# Generated by pormake.
# Topology zfc, (5)-cn, num edge types: 1
# Building blocks:
#     Node 0, Type 0, BuildingBlock: XOMCOT_clean_sbu_0, # of connection points: 5
#     Node 1, Type 0, BuildingBlock: XOMCOT_clean_sbu_0, # of connection points: 5
#     Node 2, Type 0, BuildingBlock: XOMCOT_clean_sbu_0, # of connection points: 5
#     Node 3, Type 0, BuildingBlock: XOMCOT_clean_sbu_0, # of connection points: 5
#     Node 4, Type 0, BuildingBlock: XOMCOT_clean_sbu_0, # of connection points: 5
#     Node 5, Type 0, BuildingBlock: XOMCOT_clean_sbu_0, # of connection points: 5
#     Node 6, Type 0, BuildingBlock: XOMCOT_clean_sbu_0, # of connection points: 5
#     Node 7, Type 0, BuildingBlock: XOMCOT_clean_sbu_0, # of connection points: 5
#     Node 8, Type 0, BuildingBlock: XOMCOT_clean_sbu_0, # of connection points: 5
#     Node 9, Type 0, BuildingBlock: XOMCOT_clean_sbu_0, # of connection points: 5
#     Node 10, Type 0, BuildingBlock: XOMCOT_clean_sbu_0, # of connection points: 5
#     Node 11, Type 0, BuildingBlock: XOMCOT_clean_sbu_0, # of connection points: 5
#     Node 12, Type 0, BuildingBlock: XOMCOT_clean_sbu_0, # of connection points: 5
#     Node 13, Type 0, BuildingBlock: XOMCOT_clean_sbu_0, # of connection points: 5
#     Node 14, Type 0, BuildingBlock: XOMCOT_clean_sbu_0, # of connection points: 5
#     Node 15, Type 0, BuildingBlock: XOMCOT_clean_sbu_0, # of connection points: 5
#     Edge 16, Type (0, 0), None
#     Edge 17, Type (0, 0), None
#     Edge 18, Type (0, 0), None
#     Edge 19, Type (0, 0), None
#     Edge 20, Type (0, 0), None
#     Edge 21, Type (0, 0), None
#     Edge 22, Type (0, 0), None
#     Edge 23, Type (0, 0), None
#     Edge 24, Type (0, 0), None
#     Edge 25, Type (0, 0), None
#     Edge 26, Type (0, 0), None
#     Edge 27, Type (0, 0), None
#     Edge 28, Type (0, 0), None
#     Edge 29, Type (0, 0), None
#     Edge 30, Type (0, 0), None
#     Edge 31, Type (0, 0), None
#     Edge 32, Type (0, 0), None
#     Edge 33, Type (0, 0), None
#     Edge 34, Type (0, 0), None
#     Edge 35, Type (0, 0), None
#     Edge 36, Type (0, 0), None
#     Edge 37, Type (0, 0), None
#     Edge 38, Type (0, 0), None
#     Edge 39, Type (0, 0), None
#     Edge 40, Type (0, 0), None
#     Edge 41, Type (0, 0), None
#     Edge 42, Type (0, 0), None
#     Edge 43, Type (0, 0), None
#     Edge 44, Type (0, 0), None
#     Edge 45, Type (0, 0), None
#     Edge 46, Type (0, 0), None
#     Edge 47, Type (0, 0), None
#     Edge 48, Type (0, 0), None
#     Edge 49, Type (0, 0), None
#     Edge 50, Type (0, 0), None
#     Edge 51, Type (0, 0), None
#     Edge 52, Type (0, 0), None
#     Edge 53, Type (0, 0), None
#     Edge 54, Type (0, 0), None
#     Edge 55, Type (0, 0), None
# Relax obj value: 0.134
# Max RMSD: 0.151
# Mean RMSD: 0.151
data_MOF--net-zfc--node1-XOMCOT_clean_sbu_0--edge1-none
_symmetry_space_group_name_H-M    P1
_symmetry_Int_Tables_number       1
_symmetry_cell_setting            triclinic
loop_
_symmetry_equiv_pos_as_xyz
'x, y, z'
_cell_length_a     36.5892295
_cell_length_b     36.589296
_cell_length_c     9.203552
_cell_angle_alpha  89.999659
_cell_angle_beta   90.001191
_cell_angle_gamma 90.000001
loop_
_atom_site_label
_atom_site_type_symbol
_atom_site_fract_x
_atom_site_fract_y
_atom_site_fract_z
_atom_type_partial_charge
Co0 Co 0.28968 0.08054 0.13577 0.0
C1 C 0.28135 0.09122 0.82754 0.0
C2 C 0.33805 0.08695 0.88315 0.0
C3 C 0.33438 0.08098 0.73572 0.0
N4 N 0.30471 0.0933 0.94095 0.0
N5 N 0.29858 0.08313 0.70268 0.0
H6 H 0.25205 0.09054 0.83933 0.0
H7 H 0.36256 0.08205 0.94588 0.0
C8 C 0.35135 0.13659 0.21426 0.0
O9 O 0.36007 0.14615 0.08128 0.0
N10 N 0.27508 0.06723 0.33075 0.0
C11 C 0.24166 0.07004 0.39189 0.0
C12 C 0.24574 0.07358 0.54032 0.0
C13 C 0.29878 0.06738 0.44332 0.0
N14 N 0.28175 0.07261 0.57099 0.0
C15 C 0.21805 0.1087 0.08273 0.0
C16 C 0.23431 0.1821 0.10353 0.0
C17 C 0.19971 0.1719 0.05072 0.0
C18 C 0.19189 0.13442 0.04233 0.0
C19 C 0.26025 0.1553 0.13893 0.0
N20 N 0.25224 0.11891 0.12641 0.0
H21 H 0.21101 0.08025 0.07145 0.0
H22 H 0.28684 0.16444 0.17208 0.0
H23 H 0.21626 0.07274 0.33349 0.0
H24 H 0.32815 0.06785 0.43034 0.0
O25 O 0.26171 0.04084 0.05323 0.0
O26 O 0.31952 0.03624 0.12058 0.0
O27 O 0.32571 0.11393 0.23771 0.0
C28 C 0.29112 0.0213 0.05906 0.0
H29 H 0.35582 0.07238 0.66236 0.0
H30 H 0.22411 0.07926 0.61716 0.0
H31 H 0.24171 0.21055 0.11621 0.0
H32 H 0.16618 0.12449 0.99996 0.0
Co33 Co 0.92517 0.28968 0.13575 0.0
C34 C 0.91449 0.28135 0.82752 0.0
C35 C 0.91875 0.33805 0.88313 0.0
C36 C 0.92472 0.33439 0.7357 0.0
N37 N 0.9124 0.30471 0.94093 0.0
N38 N 0.92258 0.29858 0.70266 0.0
H39 H 0.91517 0.25205 0.83932 0.0
H40 H 0.92365 0.36256 0.94586 0.0
C41 C 0.86912 0.35135 0.21425 0.0
O42 O 0.85956 0.36007 0.08127 0.0
N43 N 0.93848 0.27508 0.33074 0.0
C44 C 0.93567 0.24166 0.39188 0.0
C45 C 0.93213 0.24574 0.54031 0.0
C46 C 0.93833 0.29878 0.4433 0.0
N47 N 0.9331 0.28176 0.57097 0.0
C48 C 0.89701 0.21805 0.08272 0.0
C49 C 0.82361 0.23431 0.10352 0.0
C50 C 0.83381 0.19971 0.05072 0.0
C51 C 0.87129 0.1919 0.04233 0.0
C52 C 0.8504 0.26025 0.13892 0.0
N53 N 0.88679 0.25225 0.1264 0.0
H54 H 0.92546 0.21101 0.07144 0.0
H55 H 0.84127 0.28684 0.17207 0.0
H56 H 0.93297 0.21626 0.33348 0.0
H57 H 0.93786 0.32815 0.43033 0.0
O58 O 0.96486 0.26171 0.05321 0.0
O59 O 0.96946 0.31952 0.12056 0.0
O60 O 0.89178 0.32571 0.23769 0.0
C61 C 0.9844 0.29112 0.05904 0.0
H62 H 0.93332 0.35582 0.66234 0.0
H63 H 0.92645 0.22411 0.61715 0.0
H64 H 0.79515 0.24171 0.1162 0.0
H65 H 0.88122 0.16618 0.99996 0.0
Co66 Co 0.71603 0.92517 0.13574 0.0
C67 C 0.72435 0.91449 0.82751 0.0
C68 C 0.66765 0.91875 0.88311 0.0
C69 C 0.67132 0.92472 0.73568 0.0
N70 N 0.701 0.9124 0.94092 0.0
N71 N 0.70712 0.92258 0.70265 0.0
H72 H 0.75365 0.91517 0.83931 0.0
H73 H 0.64314 0.92364 0.94584 0.0
C74 C 0.65435 0.86911 0.21423 0.0
O75 O 0.64565 0.85954 0.08125 0.0
N76 N 0.73062 0.93848 0.33072 0.0
C77 C 0.76404 0.93566 0.39187 0.0
C78 C 0.75997 0.93213 0.54029 0.0
C79 C 0.70692 0.93832 0.44329 0.0
N80 N 0.72395 0.93309 0.57096 0.0
C81 C 0.78766 0.897 0.08271 0.0
C82 C 0.77139 0.8236 0.10352 0.0
C83 C 0.80599 0.8338 0.05071 0.0
C84 C 0.81381 0.87128 0.04232 0.0
C85 C 0.74546 0.8504 0.13892 0.0
N86 N 0.75346 0.88679 0.1264 0.0
H87 H 0.7947 0.92545 0.07143 0.0
H88 H 0.71887 0.84127 0.17208 0.0
H89 H 0.78945 0.93297 0.33347 0.0
H90 H 0.67756 0.93785 0.43031 0.0
O91 O 0.74399 0.96486 0.0532 0.0
O92 O 0.68618 0.96946 0.12054 0.0
O93 O 0.67999 0.89178 0.23767 0.0
C94 C 0.71459 0.9844 0.05902 0.0
H95 H 0.64988 0.93332 0.66232 0.0
H96 H 0.7816 0.92645 0.61714 0.0
H97 H 0.764 0.79515 0.11621 0.0
H98 H 0.83952 0.88121 0.99995 0.0
Co99 Co 0.08054 0.71603 0.13575 0.0
C100 C 0.09122 0.72435 0.82753 0.0
C101 C 0.08696 0.66765 0.88313 0.0
C102 C 0.08098 0.67132 0.7357 0.0
N103 N 0.0933 0.701 0.94094 0.0
N104 N 0.08313 0.70712 0.70266 0.0
H105 H 0.09054 0.75365 0.83932 0.0
H106 H 0.08206 0.64314 0.94587 0.0
C107 C 0.13659 0.65435 0.21424 0.0
O108 O 0.14616 0.64565 0.08126 0.0
N109 N 0.06723 0.73062 0.33074 0.0
C110 C 0.07004 0.76404 0.39188 0.0
C111 C 0.07358 0.75997 0.5403 0.0
C112 C 0.06738 0.70693 0.4433 0.0
N113 N 0.07261 0.72395 0.57097 0.0
C114 C 0.1087 0.78766 0.08272 0.0
C115 C 0.1821 0.77139 0.10353 0.0
C116 C 0.1719 0.80599 0.05072 0.0
C117 C 0.13442 0.81381 0.04232 0.0
C118 C 0.15531 0.74546 0.13893 0.0
N119 N 0.11891 0.75346 0.12641 0.0
H120 H 0.08025 0.7947 0.07144 0.0
H121 H 0.16444 0.71887 0.17209 0.0
H122 H 0.07274 0.78945 0.33347 0.0
H123 H 0.06785 0.67756 0.43033 0.0
O124 O 0.04085 0.744 0.05321 0.0
O125 O 0.03624 0.68618 0.12056 0.0
O126 O 0.11393 0.67999 0.23769 0.0
C127 C 0.0213 0.71459 0.05904 0.0
H128 H 0.07238 0.64988 0.66234 0.0
H129 H 0.07926 0.7816 0.61715 0.0
H130 H 0.21056 0.764 0.11621 0.0
H131 H 0.12449 0.83952 0.99995 0.0
Co132 Co 0.28968 0.92517 0.91961 0.0
C133 C 0.28135 0.91449 0.22784 0.0
C134 C 0.33805 0.91875 0.17224 0.0
C135 C 0.33439 0.92472 0.31967 0.0
N136 N 0.30471 0.9124 0.11443 0.0
N137 N 0.29858 0.92258 0.35271 0.0
H138 H 0.25205 0.91517 0.21605 0.0
H139 H 0.36256 0.92364 0.10951 0.0
C140 C 0.35135 0.86911 0.84112 0.0
O141 O 0.36006 0.85955 0.9741 0.0
N142 N 0.27508 0.93848 0.72463 0.0
C143 C 0.24167 0.93566 0.66348 0.0
C144 C 0.24574 0.93213 0.51506 0.0
C145 C 0.29878 0.93832 0.61206 0.0
N146 N 0.28176 0.9331 0.48439 0.0
C147 C 0.21805 0.897 0.97264 0.0
C148 C 0.23431 0.8236 0.95183 0.0
C149 C 0.19971 0.8338 1.00464 0.0
C150 C 0.1919 0.87128 1.01303 0.0
C151 C 0.26025 0.8504 0.91643 0.0
N152 N 0.25225 0.88679 0.92895 0.0
H153 H 0.21101 0.92545 0.98392 0.0
H154 H 0.28684 0.84127 0.88327 0.0
H155 H 0.21626 0.93297 0.72188 0.0
H156 H 0.32815 0.93785 0.62504 0.0
O157 O 0.26171 0.96486 1.00215 0.0
O158 O 0.31952 0.96946 0.93481 0.0
O159 O 0.32571 0.89178 0.81768 0.0
C160 C 0.29112 0.9844 0.99633 0.0
H161 H 0.35582 0.93332 0.39303 0.0
H162 H 0.22411 0.92645 0.43821 0.0
H163 H 0.24171 0.79515 0.93915 0.0
H164 H 0.16618 0.88122 0.0554 0.0
Co165 Co 0.08054 0.28968 0.91959 0.0
C166 C 0.09122 0.28135 0.22782 0.0
C167 C 0.08696 0.33805 0.17221 0.0
C168 C 0.08098 0.33439 0.31965 0.0
N169 N 0.0933 0.30471 0.11441 0.0
N170 N 0.08313 0.29858 0.35269 0.0
H171 H 0.09054 0.25205 0.21603 0.0
H172 H 0.08206 0.36256 0.10948 0.0
C173 C 0.13659 0.35135 0.84109 0.0
O174 O 0.14615 0.36007 0.97407 0.0
N175 N 0.06723 0.27508 0.72461 0.0
C176 C 0.07004 0.24166 0.66346 0.0
C177 C 0.07358 0.24574 0.51504 0.0
C178 C 0.06738 0.29878 0.61204 0.0
N179 N 0.07261 0.28175 0.48437 0.0
C180 C 0.1087 0.21805 0.97263 0.0
C181 C 0.1821 0.23431 0.95183 0.0
C182 C 0.1719 0.19971 1.00464 0.0
C183 C 0.13442 0.19189 1.01302 0.0
C184 C 0.1553 0.26025 0.91643 0.0
N185 N 0.11891 0.25224 0.92894 0.0
H186 H 0.08025 0.21101 0.98391 0.0
H187 H 0.16444 0.28684 0.88328 0.0
H188 H 0.07273 0.21626 0.72187 0.0
H189 H 0.06785 0.32815 0.62502 0.0
O190 O 0.04084 0.26171 1.00213 0.0
O191 O 0.03624 0.31952 0.93478 0.0
O192 O 0.11393 0.32571 0.81765 0.0
C193 C 0.0213 0.29112 0.99631 0.0
H194 H 0.07238 0.35582 0.393 0.0
H195 H 0.07926 0.22411 0.4382 0.0
H196 H 0.21055 0.24171 0.93915 0.0
H197 H 0.12449 0.16618 0.05539 0.0
Co198 Co 0.71603 0.08054 0.91959 0.0
C199 C 0.72435 0.09122 0.22782 0.0
C200 C 0.66765 0.08695 0.1722 0.0
C201 C 0.67132 0.08098 0.31964 0.0
N202 N 0.701 0.0933 0.1144 0.0
N203 N 0.70713 0.08313 0.35268 0.0
H204 H 0.75365 0.09054 0.21603 0.0
H205 H 0.64314 0.08206 0.10947 0.0
C206 C 0.65435 0.13659 0.8411 0.0
O207 O 0.64564 0.14615 0.97408 0.0
N208 N 0.73063 0.06723 0.7246 0.0
C209 C 0.76404 0.07004 0.66346 0.0
C210 C 0.75997 0.07358 0.51504 0.0
C211 C 0.70693 0.06738 0.61204 0.0
N212 N 0.72395 0.07261 0.48437 0.0
C213 C 0.78766 0.1087 0.97263 0.0
C214 C 0.77139 0.1821 0.95182 0.0
C215 C 0.806 0.1719 1.00463 0.0
C216 C 0.81381 0.13442 1.01302 0.0
C217 C 0.74546 0.1553 0.91642 0.0
N218 N 0.75346 0.11891 0.92894 0.0
H219 H 0.7947 0.08025 0.98391 0.0
H220 H 0.71887 0.16444 0.88327 0.0
H221 H 0.78945 0.07274 0.72187 0.0
H222 H 0.67756 0.06785 0.62501 0.0
O223 O 0.744 0.04084 1.00213 0.0
O224 O 0.68618 0.03624 0.93477 0.0
O225 O 0.68 0.11393 0.81765 0.0
C226 C 0.71459 0.0213 0.9963 0.0
H227 H 0.64989 0.07238 0.39299 0.0
H228 H 0.7816 0.07926 0.4382 0.0
H229 H 0.764 0.21055 0.93914 0.0
H230 H 0.83953 0.12449 0.05539 0.0
Co231 Co 0.92517 0.71603 0.91961 0.0
C232 C 0.91449 0.72435 0.22783 0.0
C233 C 0.91875 0.66765 0.17223 0.0
C234 C 0.92472 0.67132 0.31966 0.0
N235 N 0.9124 0.701 0.11443 0.0
N236 N 0.92258 0.70712 0.3527 0.0
H237 H 0.91517 0.75365 0.21604 0.0
H238 H 0.92364 0.64314 0.1095 0.0
C239 C 0.86911 0.65435 0.84112 0.0
O240 O 0.85955 0.64565 0.9741 0.0
N241 N 0.93848 0.73062 0.72462 0.0
C242 C 0.93566 0.76404 0.66348 0.0
C243 C 0.93213 0.75997 0.51506 0.0
C244 C 0.93832 0.70692 0.61206 0.0
N245 N 0.9331 0.72395 0.48439 0.0
C246 C 0.897 0.78766 0.97264 0.0
C247 C 0.8236 0.77139 0.95182 0.0
C248 C 0.8338 0.80599 1.00464 0.0
C249 C 0.87128 0.81381 1.01303 0.0
C250 C 0.8504 0.74546 0.91643 0.0
N251 N 0.88679 0.75346 0.92895 0.0
H252 H 0.92545 0.7947 0.98392 0.0
H253 H 0.84127 0.71887 0.88326 0.0
H254 H 0.93297 0.78945 0.72188 0.0
H255 H 0.93785 0.67756 0.62504 0.0
O256 O 0.96486 0.74399 1.00215 0.0
O257 O 0.96946 0.68618 0.9348 0.0
O258 O 0.89178 0.67999 0.81768 0.0
C259 C 0.9844 0.71459 0.99632 0.0
H260 H 0.93332 0.64988 0.39302 0.0
H261 H 0.92645 0.7816 0.43821 0.0
H262 H 0.79515 0.764 0.93914 0.0
H263 H 0.88122 0.83952 0.0554 0.0
Co264 Co 0.78968 0.58054 0.63577 0.0
C265 C 0.78135 0.59122 0.32754 0.0
C266 C 0.83805 0.58695 0.38315 0.0
C267 C 0.83439 0.58098 0.23572 0.0
N268 N 0.80471 0.5933 0.44095 0.0
N269 N 0.79858 0.58313 0.20268 0.0
H270 H 0.75205 0.59054 0.33933 0.0
H271 H 0.86256 0.58206 0.44588 0.0
C272 C 0.85135 0.63659 0.71426 0.0
O273 O 0.86007 0.64615 0.58128 0.0
N274 N 0.77508 0.56723 0.83075 0.0
C275 C 0.74166 0.57004 0.89189 0.0
C276 C 0.74574 0.57358 0.04032 0.0
C277 C 0.79878 0.56738 0.94332 0.0
N278 N 0.78175 0.57261 0.07099 0.0
C279 C 0.71805 0.6087 0.58273 0.0
C280 C 0.73431 0.6821 0.60353 0.0
C281 C 0.69971 0.6719 0.55072 0.0
C282 C 0.6919 0.63442 0.54233 0.0
C283 C 0.76025 0.6553 0.63893 0.0
N284 N 0.75225 0.61891 0.62641 0.0
H285 H 0.71101 0.58025 0.57145 0.0
H286 H 0.78684 0.66444 0.67208 0.0
H287 H 0.71626 0.57274 0.83349 0.0
H288 H 0.82815 0.56785 0.93034 0.0
O289 O 0.76171 0.54084 0.55323 0.0
O290 O 0.81952 0.53624 0.62058 0.0
O291 O 0.82571 0.61393 0.7377 0.0
C292 C 0.79112 0.5213 0.55906 0.0
H293 H 0.85582 0.57238 0.16236 0.0
H294 H 0.72411 0.57926 0.11716 0.0
H295 H 0.74171 0.71055 0.61621 0.0
H296 H 0.66618 0.62449 0.49996 0.0
Co297 Co 0.42517 0.78968 0.63575 0.0
C298 C 0.41449 0.78135 0.32752 0.0
C299 C 0.41875 0.83805 0.38313 0.0
C300 C 0.42472 0.83439 0.2357 0.0
N301 N 0.4124 0.80471 0.44093 0.0
N302 N 0.42258 0.79858 0.20266 0.0
H303 H 0.41517 0.75205 0.33932 0.0
H304 H 0.42364 0.86256 0.44586 0.0
C305 C 0.36912 0.85135 0.71425 0.0
O306 O 0.35955 0.86007 0.58127 0.0
N307 N 0.43848 0.77508 0.83074 0.0
C308 C 0.43567 0.74166 0.89188 0.0
C309 C 0.43213 0.74574 0.0403 0.0
C310 C 0.43833 0.79878 0.9433 0.0
N311 N 0.4331 0.78176 0.07097 0.0
C312 C 0.397 0.71805 0.58272 0.0
C313 C 0.3236 0.73431 0.60352 0.0
C314 C 0.33381 0.69971 0.55072 0.0
C315 C 0.37129 0.6919 0.54232 0.0
C316 C 0.3504 0.76025 0.63892 0.0
N317 N 0.38679 0.75225 0.6264 0.0
H318 H 0.42546 0.71101 0.57144 0.0
H319 H 0.34127 0.78684 0.67207 0.0
H320 H 0.43297 0.71626 0.83348 0.0
H321 H 0.43786 0.82815 0.93033 0.0
O322 O 0.46486 0.76171 0.55321 0.0
O323 O 0.46946 0.81952 0.62056 0.0
O324 O 0.39178 0.82571 0.73769 0.0
C325 C 0.4844 0.79112 0.55904 0.0
H326 H 0.43332 0.85582 0.16234 0.0
H327 H 0.42645 0.72411 0.11715 0.0
H328 H 0.29515 0.74171 0.6162 0.0
H329 H 0.38122 0.66618 0.49996 0.0
Co330 Co 0.21603 0.42517 0.63574 0.0
C331 C 0.22435 0.41449 0.32751 0.0
C332 C 0.16765 0.41875 0.38311 0.0
C333 C 0.17132 0.42472 0.23568 0.0
N334 N 0.20099 0.4124 0.44092 0.0
N335 N 0.20712 0.42258 0.20264 0.0
H336 H 0.25365 0.41517 0.3393 0.0
H337 H 0.14314 0.42364 0.44584 0.0
C338 C 0.15435 0.36911 0.71422 0.0
O339 O 0.14565 0.35954 0.58124 0.0
N340 N 0.23062 0.43848 0.83072 0.0
C341 C 0.26404 0.43566 0.89187 0.0
C342 C 0.25997 0.43213 0.04029 0.0
C343 C 0.20692 0.43832 0.94329 0.0
N344 N 0.22395 0.43309 0.07096 0.0
C345 C 0.28766 0.397 0.58271 0.0
C346 C 0.27139 0.3236 0.60352 0.0
C347 C 0.30599 0.3338 0.55071 0.0
C348 C 0.31381 0.37128 0.54232 0.0
C349 C 0.24546 0.3504 0.63892 0.0
N350 N 0.25346 0.38679 0.6264 0.0
H351 H 0.2947 0.42545 0.57143 0.0
H352 H 0.21887 0.34126 0.67208 0.0
H353 H 0.28945 0.43297 0.83347 0.0
H354 H 0.17756 0.43785 0.93031 0.0
O355 O 0.24399 0.46486 0.5532 0.0
O356 O 0.18618 0.46946 0.62054 0.0
O357 O 0.17999 0.39178 0.73767 0.0
C358 C 0.21459 0.4844 0.55902 0.0
H359 H 0.14988 0.43332 0.16232 0.0
H360 H 0.2816 0.42645 0.11714 0.0
H361 H 0.264 0.29515 0.61621 0.0
H362 H 0.33952 0.38121 0.49995 0.0
Co363 Co 0.58054 0.21603 0.63575 0.0
C364 C 0.59122 0.22435 0.32753 0.0
C365 C 0.58696 0.16765 0.38313 0.0
C366 C 0.58098 0.17132 0.2357 0.0
N367 N 0.5933 0.201 0.44094 0.0
N368 N 0.58313 0.20712 0.20266 0.0
H369 H 0.59054 0.25365 0.33932 0.0
H370 H 0.58206 0.14314 0.44587 0.0
C371 C 0.63659 0.15435 0.71423 0.0
O372 O 0.64616 0.14565 0.58125 0.0
N373 N 0.56723 0.23062 0.83074 0.0
C374 C 0.57004 0.26404 0.89188 0.0
C375 C 0.57358 0.25997 0.0403 0.0
C376 C 0.56738 0.20692 0.9433 0.0
N377 N 0.57261 0.22395 0.07097 0.0
C378 C 0.6087 0.28766 0.58272 0.0
C379 C 0.6821 0.27139 0.60353 0.0
C380 C 0.6719 0.30599 0.55072 0.0
C381 C 0.63442 0.31381 0.54232 0.0
C382 C 0.65531 0.24546 0.63893 0.0
N383 N 0.61892 0.25346 0.62641 0.0
H384 H 0.58025 0.2947 0.57144 0.0
H385 H 0.66444 0.21887 0.67209 0.0
H386 H 0.57274 0.28945 0.83347 0.0
H387 H 0.56785 0.17756 0.93032 0.0
O388 O 0.54085 0.244 0.55321 0.0
O389 O 0.53624 0.18618 0.62056 0.0
O390 O 0.61393 0.17999 0.73768 0.0
C391 C 0.5213 0.21459 0.55904 0.0
H392 H 0.57238 0.14988 0.16234 0.0
H393 H 0.57926 0.2816 0.11715 0.0
H394 H 0.71056 0.264 0.61621 0.0
H395 H 0.62449 0.33952 0.49995 0.0
Co396 Co 0.78968 0.42517 0.41961 0.0
C397 C 0.78136 0.41449 0.72784 0.0
C398 C 0.83805 0.41874 0.67224 0.0
C399 C 0.83439 0.42472 0.81967 0.0
N400 N 0.80471 0.4124 0.61443 0.0
N401 N 0.79858 0.42258 0.85271 0.0
H402 H 0.75206 0.41517 0.71605 0.0
H403 H 0.86257 0.42364 0.60951 0.0
C404 C 0.85136 0.36912 0.34113 0.0
O405 O 0.86006 0.35954 0.4741 0.0
N406 N 0.77508 0.43848 0.22463 0.0
C407 C 0.74167 0.43566 0.16348 0.0
C408 C 0.74574 0.43213 1.01506 0.0
C409 C 0.79878 0.43832 0.11207 0.0
N410 N 0.78176 0.4331 0.98439 0.0
C411 C 0.71805 0.397 0.47264 0.0
C412 C 0.73431 0.3236 0.45183 0.0
C413 C 0.69972 0.3338 0.50464 0.0
C414 C 0.6919 0.37128 0.51303 0.0
C415 C 0.76025 0.3504 0.41643 0.0
N416 N 0.75225 0.38679 0.42895 0.0
H417 H 0.71101 0.42545 0.48392 0.0
H418 H 0.78684 0.34127 0.38327 0.0
H419 H 0.71626 0.43297 0.22188 0.0
H420 H 0.82815 0.43785 0.12504 0.0
O421 O 0.76171 0.46486 0.50215 0.0
O422 O 0.81953 0.46946 0.43481 0.0
O423 O 0.82571 0.39178 0.31768 0.0
C424 C 0.79112 0.4844 0.49633 0.0
H425 H 0.85582 0.43332 0.89303 0.0
H426 H 0.72411 0.42645 0.93821 0.0
H427 H 0.74171 0.29515 0.43915 0.0
H428 H 0.66618 0.38121 0.5554 0.0
Co429 Co 0.58054 0.78968 0.41959 0.0
C430 C 0.59122 0.78135 0.72782 0.0
C431 C 0.58696 0.83805 0.67221 0.0
C432 C 0.58098 0.83439 0.81965 0.0
N433 N 0.5933 0.80471 0.61441 0.0
N434 N 0.58313 0.79858 0.85269 0.0
H435 H 0.59054 0.75205 0.71603 0.0
H436 H 0.58206 0.86256 0.60948 0.0
C437 C 0.63659 0.85135 0.3411 0.0
O438 O 0.64615 0.86007 0.47407 0.0
N439 N 0.56723 0.77508 0.22461 0.0
C440 C 0.57004 0.74166 0.16346 0.0
C441 C 0.57358 0.74574 1.01504 0.0
C442 C 0.56738 0.79878 0.11204 0.0
N443 N 0.57261 0.78175 0.98437 0.0
C444 C 0.6087 0.71805 0.47263 0.0
C445 C 0.6821 0.73431 0.45183 0.0
C446 C 0.6719 0.69971 0.50464 0.0
C447 C 0.63442 0.6919 0.51303 0.0
C448 C 0.65531 0.76025 0.41643 0.0
N449 N 0.61891 0.75225 0.42894 0.0
H450 H 0.58025 0.71101 0.48391 0.0
H451 H 0.66444 0.78684 0.38328 0.0
H452 H 0.57274 0.71626 0.22187 0.0
H453 H 0.56785 0.82815 0.12502 0.0
O454 O 0.54085 0.76171 0.50213 0.0
O455 O 0.53624 0.81952 0.43479 0.0
O456 O 0.61393 0.82571 0.31766 0.0
C457 C 0.5213 0.79112 0.49631 0.0
H458 H 0.57238 0.85582 0.893 0.0
H459 H 0.57926 0.72411 0.9382 0.0
H460 H 0.71056 0.74171 0.43915 0.0
H461 H 0.62449 0.66618 0.55539 0.0
Co462 Co 0.21603 0.58054 0.41959 0.0
C463 C 0.22435 0.59122 0.72782 0.0
C464 C 0.16765 0.58695 0.67221 0.0
C465 C 0.17132 0.58098 0.81964 0.0
N466 N 0.201 0.5933 0.6144 0.0
N467 N 0.20712 0.58313 0.85268 0.0
H468 H 0.25365 0.59054 0.71603 0.0
H469 H 0.14314 0.58206 0.60947 0.0
C470 C 0.15435 0.63659 0.3411 0.0
O471 O 0.14564 0.64615 0.47408 0.0
N472 N 0.23062 0.56723 0.22461 0.0
C473 C 0.26404 0.57004 0.16346 0.0
C474 C 0.25997 0.57358 1.01504 0.0
C475 C 0.20693 0.56738 0.11204 0.0
N476 N 0.22395 0.57261 0.98437 0.0
C477 C 0.28766 0.6087 0.47263 0.0
C478 C 0.27139 0.6821 0.45182 0.0
C479 C 0.30599 0.6719 0.50463 0.0
C480 C 0.31381 0.63442 0.51303 0.0
C481 C 0.24546 0.6553 0.41642 0.0
N482 N 0.25346 0.61891 0.42894 0.0
H483 H 0.2947 0.58025 0.48391 0.0
H484 H 0.21887 0.66444 0.38326 0.0
H485 H 0.28945 0.57274 0.22187 0.0
H486 H 0.17756 0.56785 0.12501 0.0
O487 O 0.244 0.54084 0.50213 0.0
O488 O 0.18618 0.53624 0.43478 0.0
O489 O 0.18 0.61393 0.31765 0.0
C490 C 0.21459 0.5213 0.4963 0.0
H491 H 0.14988 0.57238 0.893 0.0
H492 H 0.2816 0.57926 0.9382 0.0
H493 H 0.264 0.71056 0.43914 0.0
H494 H 0.33952 0.62449 0.55539 0.0
Co495 Co 0.42517 0.21603 0.41961 0.0
C496 C 0.41449 0.22435 0.72784 0.0
C497 C 0.41875 0.16765 0.67223 0.0
C498 C 0.42472 0.17132 0.81967 0.0
N499 N 0.4124 0.201 0.61443 0.0
N500 N 0.42258 0.20712 0.8527 0.0
H501 H 0.41517 0.25365 0.71604 0.0
H502 H 0.42364 0.14314 0.6095 0.0
C503 C 0.36911 0.15435 0.34113 0.0
O504 O 0.35954 0.14565 0.47411 0.0
N505 N 0.43848 0.23062 0.22462 0.0
C506 C 0.43566 0.26404 0.16348 0.0
C507 C 0.43213 0.25997 1.01506 0.0
C508 C 0.43832 0.20692 0.11206 0.0
N509 N 0.4331 0.22395 0.98439 0.0
C510 C 0.397 0.28766 0.47264 0.0
C511 C 0.3236 0.27139 0.45182 0.0
C512 C 0.3338 0.30599 0.50464 0.0
C513 C 0.37128 0.31381 0.51303 0.0
C514 C 0.3504 0.24546 0.41643 0.0
N515 N 0.38679 0.25346 0.42895 0.0
H516 H 0.42545 0.2947 0.48392 0.0
H517 H 0.34127 0.21887 0.38326 0.0
H518 H 0.43297 0.28945 0.22188 0.0
H519 H 0.43785 0.17756 0.12504 0.0
O520 O 0.46486 0.24399 0.50215 0.0
O521 O 0.46946 0.18618 0.4348 0.0
O522 O 0.39178 0.17999 0.31768 0.0
C523 C 0.4844 0.21459 0.49632 0.0
H524 H 0.43332 0.14988 0.89302 0.0
H525 H 0.42645 0.2816 0.93821 0.0
H526 H 0.29515 0.264 0.43914 0.0
H527 H 0.38121 0.33952 0.5554 0.0
loop_
_geom_bond_atom_site_label_1
_geom_bond_atom_site_label_2
_geom_bond_distance
_geom_bond_site_symmetry_2
_ccdc_geom_bond_type
Co0 N4 2.148 1_554 S
Co0 N10 2.128 . S
Co0 N20 2.194 . S
Co0 O25 2.351 . S
Co0 O26 2.155 . S
Co0 O27 2.096 . S
C1 N4 1.301 . S
C1 N5 1.328 . S
C1 H6 0.930 . S
C2 C3 1.333 . S
C2 N4 1.317 . S
C2 H7 0.930 . S
C3 C2 1.333 . S
C3 N5 1.350 . S
C3 H29 0.931 . S
N4 Co0 2.148 1_556 S
N4 C1 1.301 . S
N4 C2 1.317 . S
N5 C1 1.328 . S
N5 C3 1.350 . S
H6 C1 0.930 . S
H7 C2 0.930 . S
C8 O9 1.224 . S
C8 O27 1.247 . S
O9 C8 1.224 . S
N10 Co0 2.128 . S
N10 C11 1.355 . S
N10 C13 1.311 . S
C11 N10 1.355 . S
C11 C12 1.363 . S
C11 H23 0.929 . S
C12 C11 1.363 . S
C12 N14 1.375 . S
C12 H30 0.931 . S
C13 N10 1.311 . S
C13 N14 1.347 . S
C13 H24 0.929 . S
N14 C12 1.375 . S
N14 C13 1.347 . S
C15 C18 1.365 . S
C15 N20 1.328 1_556 S
C15 H21 0.929 . S
C16 C17 1.362 . S
C16 C19 1.378 . S
C16 H31 0.929 . S
C17 C16 1.362 . S
C17 C18 1.366 1_554 S
C18 C15 1.365 . S
C18 C17 1.366 1_556 S
C18 H32 0.930 . S
C19 C16 1.378 . S
C19 N20 1.315 . S
C19 H22 0.930 . S
N20 Co0 2.194 . S
N20 C15 1.328 1_554 S
N20 C19 1.315 . S
H21 C15 0.929 . S
H22 C19 0.930 . S
H23 C11 0.929 . S
H24 C13 0.929 . S
O25 Co0 2.351 . S
O25 C28 1.244 . S
O26 Co0 2.155 . S
O26 C28 1.240 . S
O27 Co0 2.096 . S
O27 C8 1.247 . S
C28 O25 1.244 . S
C28 O26 1.240 . S
H29 C3 0.931 . S
H30 C12 0.931 . S
H31 C16 0.929 . S
H32 C18 0.930 . S
Co33 N37 2.148 1_554 S
Co33 N43 2.128 . S
Co33 N53 2.194 . S
Co33 O58 2.351 . S
Co33 O59 2.155 . S
Co33 O60 2.096 . S
C34 N37 1.301 . S
C34 N38 1.328 . S
C34 H39 0.930 . S
C35 C36 1.333 . S
C35 N37 1.317 . S
C35 H40 0.930 . S
C36 C35 1.333 . S
C36 N38 1.350 . S
C36 H62 0.931 . S
N37 Co33 2.148 1_556 S
N37 C34 1.301 . S
N37 C35 1.317 . S
N38 C34 1.328 . S
N38 C36 1.350 . S
H39 C34 0.930 . S
H40 C35 0.930 . S
C41 O42 1.224 . S
C41 O60 1.247 . S
O42 C41 1.224 . S
N43 Co33 2.128 . S
N43 C44 1.355 . S
N43 C46 1.311 . S
C44 N43 1.355 . S
C44 C45 1.363 . S
C44 H56 0.929 . S
C45 C44 1.363 . S
C45 N47 1.375 . S
C45 H63 0.931 . S
C46 N43 1.311 . S
C46 N47 1.347 . S
C46 H57 0.929 . S
N47 C45 1.375 . S
N47 C46 1.347 . S
C48 C51 1.365 . S
C48 N53 1.328 1_556 S
C48 H54 0.929 . S
C49 C50 1.362 . S
C49 C52 1.378 . S
C49 H64 0.929 . S
C50 C49 1.362 . S
C50 C51 1.366 1_554 S
C51 C48 1.365 . S
C51 C50 1.366 1_556 S
C51 H65 0.930 . S
C52 C49 1.378 . S
C52 N53 1.315 . S
C52 H55 0.930 . S
N53 Co33 2.194 . S
N53 C48 1.328 1_554 S
N53 C52 1.315 . S
H54 C48 0.929 . S
H55 C52 0.930 . S
H56 C44 0.929 . S
H57 C46 0.929 . S
O58 Co33 2.351 . S
O58 C61 1.244 . S
O59 Co33 2.155 . S
O59 C61 1.240 . S
O60 Co33 2.096 . S
O60 C41 1.247 . S
C61 O58 1.244 . S
C61 O59 1.240 . S
H62 C36 0.931 . S
H63 C45 0.931 . S
H64 C49 0.929 . S
H65 C51 0.930 . S
Co66 N70 2.148 1_554 S
Co66 N76 2.128 . S
Co66 N86 2.194 . S
Co66 O91 2.351 . S
Co66 O92 2.155 . S
Co66 O93 2.096 . S
C67 N70 1.301 . S
C67 N71 1.328 . S
C67 H72 0.930 . S
C68 C69 1.333 . S
C68 N70 1.317 . S
C68 H73 0.930 . S
C69 C68 1.333 . S
C69 N71 1.350 . S
C69 H95 0.931 . S
N70 Co66 2.148 1_556 S
N70 C67 1.301 . S
N70 C68 1.317 . S
N71 C67 1.328 . S
N71 C69 1.350 . S
H72 C67 0.930 . S
H73 C68 0.930 . S
C74 O75 1.224 . S
C74 O93 1.247 . S
O75 C74 1.224 . S
N76 Co66 2.128 . S
N76 C77 1.355 . S
N76 C79 1.311 . S
C77 N76 1.355 . S
C77 C78 1.363 . S
C77 H89 0.929 . S
C78 C77 1.363 . S
C78 N80 1.375 . S
C78 H96 0.931 . S
C79 N76 1.311 . S
C79 N80 1.347 . S
C79 H90 0.929 . S
N80 C78 1.375 . S
N80 C79 1.347 . S
C81 C84 1.365 . S
C81 N86 1.328 1_556 S
C81 H87 0.929 . S
C82 C83 1.362 . S
C82 C85 1.378 . S
C82 H97 0.929 . S
C83 C82 1.362 . S
C83 C84 1.366 1_554 S
C84 C81 1.365 . S
C84 C83 1.366 1_556 S
C84 H98 0.930 . S
C85 C82 1.378 . S
C85 N86 1.315 . S
C85 H88 0.930 . S
N86 Co66 2.194 . S
N86 C81 1.328 1_554 S
N86 C85 1.315 . S
H87 C81 0.929 . S
H88 C85 0.930 . S
H89 C77 0.929 . S
H90 C79 0.929 . S
O91 Co66 2.351 . S
O91 C94 1.244 . S
O92 Co66 2.155 . S
O92 C94 1.240 . S
O93 Co66 2.096 . S
O93 C74 1.247 . S
C94 O91 1.244 . S
C94 O92 1.240 . S
H95 C69 0.931 . S
H96 C78 0.931 . S
H97 C82 0.929 . S
H98 C84 0.930 . S
Co99 N103 2.148 1_554 S
Co99 N109 2.128 . S
Co99 N119 2.194 . S
Co99 O124 2.351 . S
Co99 O125 2.155 . S
Co99 O126 2.096 . S
C100 N103 1.301 . S
C100 N104 1.328 . S
C100 H105 0.930 . S
C101 C102 1.333 . S
C101 N103 1.317 . S
C101 H106 0.930 . S
C102 C101 1.333 . S
C102 N104 1.350 . S
C102 H128 0.931 . S
N103 Co99 2.148 1_556 S
N103 C100 1.301 . S
N103 C101 1.317 . S
N104 C100 1.328 . S
N104 C102 1.350 . S
H105 C100 0.930 . S
H106 C101 0.930 . S
C107 O108 1.224 . S
C107 O126 1.247 . S
O108 C107 1.224 . S
N109 Co99 2.128 . S
N109 C110 1.355 . S
N109 C112 1.311 . S
C110 N109 1.355 . S
C110 C111 1.363 . S
C110 H122 0.929 . S
C111 C110 1.363 . S
C111 N113 1.375 . S
C111 H129 0.931 . S
C112 N109 1.311 . S
C112 N113 1.347 . S
C112 H123 0.929 . S
N113 C111 1.375 . S
N113 C112 1.347 . S
C114 C117 1.365 . S
C114 N119 1.328 1_556 S
C114 H120 0.929 . S
C115 C116 1.362 . S
C115 C118 1.378 . S
C115 H130 0.929 . S
C116 C115 1.362 . S
C116 C117 1.366 1_554 S
C117 C114 1.365 . S
C117 C116 1.366 1_556 S
C117 H131 0.930 . S
C118 C115 1.378 . S
C118 N119 1.315 . S
C118 H121 0.930 . S
N119 Co99 2.194 . S
N119 C114 1.328 1_554 S
N119 C118 1.315 . S
H120 C114 0.929 . S
H121 C118 0.930 . S
H122 C110 0.929 . S
H123 C112 0.929 . S
O124 Co99 2.351 . S
O124 C127 1.244 . S
O125 Co99 2.155 . S
O125 C127 1.240 . S
O126 Co99 2.096 . S
O126 C107 1.247 . S
C127 O124 1.244 . S
C127 O125 1.240 . S
H128 C102 0.931 . S
H129 C111 0.931 . S
H130 C115 0.929 . S
H131 C117 0.930 . S
Co132 N136 2.148 1_556 S
Co132 N142 2.128 . S
Co132 N152 2.194 . S
Co132 O157 2.351 . S
Co132 O158 2.155 . S
Co132 O159 2.096 . S
C133 N136 1.301 . S
C133 N137 1.328 . S
C133 H138 0.930 . S
C134 C135 1.333 . S
C134 N136 1.317 . S
C134 H139 0.930 . S
C135 C134 1.333 . S
C135 N137 1.350 . S
C135 H161 0.931 . S
N136 Co132 2.148 1_554 S
N136 C133 1.301 . S
N136 C134 1.317 . S
N137 C133 1.328 . S
N137 C135 1.350 . S
H138 C133 0.930 . S
H139 C134 0.930 . S
C140 O141 1.224 . S
C140 O159 1.247 . S
O141 C140 1.224 . S
N142 Co132 2.128 . S
N142 C143 1.355 . S
N142 C145 1.311 . S
C143 N142 1.355 . S
C143 C144 1.363 . S
C143 H155 0.929 . S
C144 C143 1.363 . S
C144 N146 1.375 . S
C144 H162 0.931 . S
C145 N142 1.311 . S
C145 N146 1.347 . S
C145 H156 0.929 . S
N146 C144 1.375 . S
N146 C145 1.347 . S
C147 C150 1.365 . S
C147 N152 1.328 1_554 S
C147 H153 0.929 . S
C148 C149 1.362 . S
C148 C151 1.378 . S
C148 H163 0.929 . S
C149 C148 1.362 . S
C149 C150 1.366 1_556 S
C150 C147 1.365 . S
C150 C149 1.366 1_554 S
C150 H164 0.930 . S
C151 C148 1.378 . S
C151 N152 1.315 . S
C151 H154 0.930 . S
N152 Co132 2.194 . S
N152 C147 1.328 1_556 S
N152 C151 1.315 . S
H153 C147 0.929 . S
H154 C151 0.930 . S
H155 C143 0.929 . S
H156 C145 0.929 . S
O157 Co132 2.351 . S
O157 C160 1.244 . S
O158 Co132 2.155 . S
O158 C160 1.240 . S
O159 Co132 2.096 . S
O159 C140 1.247 . S
C160 O157 1.244 . S
C160 O158 1.240 . S
H161 C135 0.931 . S
H162 C144 0.931 . S
H163 C148 0.929 . S
H164 C150 0.930 . S
Co165 N169 2.148 1_556 S
Co165 N175 2.128 . S
Co165 N185 2.194 . S
Co165 O190 2.351 . S
Co165 O191 2.155 . S
Co165 O192 2.096 . S
C166 N169 1.301 . S
C166 N170 1.328 . S
C166 H171 0.930 . S
C167 C168 1.333 . S
C167 N169 1.317 . S
C167 H172 0.930 . S
C168 C167 1.333 . S
C168 N170 1.350 . S
C168 H194 0.931 . S
N169 Co165 2.148 1_554 S
N169 C166 1.301 . S
N169 C167 1.317 . S
N170 C166 1.328 . S
N170 C168 1.350 . S
H171 C166 0.930 . S
H172 C167 0.930 . S
C173 O174 1.224 . S
C173 O192 1.247 . S
O174 C173 1.224 . S
N175 Co165 2.128 . S
N175 C176 1.355 . S
N175 C178 1.311 . S
C176 N175 1.355 . S
C176 C177 1.363 . S
C176 H188 0.929 . S
C177 C176 1.363 . S
C177 N179 1.375 . S
C177 H195 0.931 . S
C178 N175 1.311 . S
C178 N179 1.347 . S
C178 H189 0.929 . S
N179 C177 1.375 . S
N179 C178 1.347 . S
C180 C183 1.365 . S
C180 N185 1.328 1_554 S
C180 H186 0.929 . S
C181 C182 1.362 . S
C181 C184 1.378 . S
C181 H196 0.929 . S
C182 C181 1.362 . S
C182 C183 1.366 1_556 S
C183 C180 1.365 . S
C183 C182 1.366 1_554 S
C183 H197 0.930 . S
C184 C181 1.378 . S
C184 N185 1.315 . S
C184 H187 0.930 . S
N185 Co165 2.194 . S
N185 C180 1.328 1_556 S
N185 C184 1.315 . S
H186 C180 0.929 . S
H187 C184 0.930 . S
H188 C176 0.929 . S
H189 C178 0.929 . S
O190 Co165 2.351 . S
O190 C193 1.244 . S
O191 Co165 2.155 . S
O191 C193 1.240 . S
O192 Co165 2.096 . S
O192 C173 1.247 . S
C193 O190 1.244 . S
C193 O191 1.240 . S
H194 C168 0.931 . S
H195 C177 0.931 . S
H196 C181 0.929 . S
H197 C183 0.930 . S
Co198 N202 2.148 1_556 S
Co198 N208 2.128 . S
Co198 N218 2.194 . S
Co198 O223 2.351 . S
Co198 O224 2.155 . S
Co198 O225 2.096 . S
C199 N202 1.301 . S
C199 N203 1.328 . S
C199 H204 0.930 . S
C200 C201 1.333 . S
C200 N202 1.317 . S
C200 H205 0.930 . S
C201 C200 1.333 . S
C201 N203 1.350 . S
C201 H227 0.931 . S
N202 Co198 2.148 1_554 S
N202 C199 1.301 . S
N202 C200 1.317 . S
N203 C199 1.328 . S
N203 C201 1.350 . S
H204 C199 0.930 . S
H205 C200 0.930 . S
C206 O207 1.224 . S
C206 O225 1.247 . S
O207 C206 1.224 . S
N208 Co198 2.128 . S
N208 C209 1.355 . S
N208 C211 1.311 . S
C209 N208 1.355 . S
C209 C210 1.363 . S
C209 H221 0.929 . S
C210 C209 1.363 . S
C210 N212 1.375 . S
C210 H228 0.931 . S
C211 N208 1.311 . S
C211 N212 1.347 . S
C211 H222 0.929 . S
N212 C210 1.375 . S
N212 C211 1.347 . S
C213 C216 1.365 . S
C213 N218 1.328 1_554 S
C213 H219 0.929 . S
C214 C215 1.362 . S
C214 C217 1.378 . S
C214 H229 0.929 . S
C215 C214 1.362 . S
C215 C216 1.366 1_556 S
C216 C213 1.365 . S
C216 C215 1.366 1_554 S
C216 H230 0.930 . S
C217 C214 1.378 . S
C217 N218 1.315 . S
C217 H220 0.930 . S
N218 Co198 2.194 . S
N218 C213 1.328 1_556 S
N218 C217 1.315 . S
H219 C213 0.929 . S
H220 C217 0.930 . S
H221 C209 0.929 . S
H222 C211 0.929 . S
O223 Co198 2.351 . S
O223 C226 1.244 . S
O224 Co198 2.155 . S
O224 C226 1.240 . S
O225 Co198 2.096 . S
O225 C206 1.247 . S
C226 O223 1.244 . S
C226 O224 1.240 . S
H227 C201 0.931 . S
H228 C210 0.931 . S
H229 C214 0.929 . S
H230 C216 0.930 . S
Co231 N235 2.148 1_556 S
Co231 N241 2.128 . S
Co231 N251 2.194 . S
Co231 O256 2.351 . S
Co231 O257 2.155 . S
Co231 O258 2.096 . S
C232 N235 1.301 . S
C232 N236 1.328 . S
C232 H237 0.930 . S
C233 C234 1.333 . S
C233 N235 1.317 . S
C233 H238 0.930 . S
C234 C233 1.333 . S
C234 N236 1.350 . S
C234 H260 0.931 . S
N235 Co231 2.148 1_554 S
N235 C232 1.301 . S
N235 C233 1.317 . S
N236 C232 1.328 . S
N236 C234 1.350 . S
H237 C232 0.930 . S
H238 C233 0.930 . S
C239 O240 1.224 . S
C239 O258 1.247 . S
O240 C239 1.224 . S
N241 Co231 2.128 . S
N241 C242 1.355 . S
N241 C244 1.311 . S
C242 N241 1.355 . S
C242 C243 1.363 . S
C242 H254 0.929 . S
C243 C242 1.363 . S
C243 N245 1.375 . S
C243 H261 0.931 . S
C244 N241 1.311 . S
C244 N245 1.347 . S
C244 H255 0.929 . S
N245 C243 1.375 . S
N245 C244 1.347 . S
C246 C249 1.365 . S
C246 N251 1.328 1_554 S
C246 H252 0.929 . S
C247 C248 1.362 . S
C247 C250 1.378 . S
C247 H262 0.929 . S
C248 C247 1.362 . S
C248 C249 1.366 1_556 S
C249 C246 1.365 . S
C249 C248 1.366 1_554 S
C249 H263 0.930 . S
C250 C247 1.378 . S
C250 N251 1.315 . S
C250 H253 0.930 . S
N251 Co231 2.194 . S
N251 C246 1.328 1_556 S
N251 C250 1.315 . S
H252 C246 0.929 . S
H253 C250 0.930 . S
H254 C242 0.929 . S
H255 C244 0.929 . S
O256 Co231 2.351 . S
O256 C259 1.244 . S
O257 Co231 2.155 . S
O257 C259 1.240 . S
O258 Co231 2.096 . S
O258 C239 1.247 . S
C259 O256 1.244 . S
C259 O257 1.240 . S
H260 C234 0.931 . S
H261 C243 0.931 . S
H262 C247 0.929 . S
H263 C249 0.930 . S
Co264 N268 2.148 . S
Co264 N274 2.128 . S
Co264 N284 2.194 . S
Co264 O289 2.351 . S
Co264 O290 2.155 . S
Co264 O291 2.096 . S
C265 N268 1.301 . S
C265 N269 1.328 . S
C265 H270 0.930 . S
C266 C267 1.333 . S
C266 N268 1.317 . S
C266 H271 0.930 . S
C267 C266 1.333 . S
C267 N269 1.350 . S
C267 H293 0.931 . S
N268 Co264 2.148 . S
N268 C265 1.301 . S
N268 C266 1.317 . S
N269 C265 1.328 . S
N269 C267 1.350 . S
H270 C265 0.930 . S
H271 C266 0.930 . S
C272 O273 1.224 . S
C272 O291 1.247 . S
O273 C272 1.224 . S
N274 Co264 2.128 . S
N274 C275 1.355 . S
N274 C277 1.311 . S
C275 N274 1.355 . S
C275 C276 1.363 . S
C275 H287 0.929 . S
C276 C275 1.363 . S
C276 N278 1.375 1_556 S
C276 H294 0.931 1_556 S
C277 N274 1.311 . S
C277 N278 1.347 1_556 S
C277 H288 0.929 . S
N278 C276 1.375 1_554 S
N278 C277 1.347 1_554 S
C279 C282 1.365 . S
C279 N284 1.328 . S
C279 H285 0.929 . S
C280 C281 1.362 . S
C280 C283 1.378 . S
C280 H295 0.929 . S
C281 C280 1.362 . S
C281 C282 1.366 . S
C282 C279 1.365 . S
C282 C281 1.366 . S
C282 H296 0.930 . S
C283 C280 1.378 . S
C283 N284 1.315 . S
C283 H286 0.930 . S
N284 Co264 2.194 . S
N284 C279 1.328 . S
N284 C283 1.315 . S
H285 C279 0.929 . S
H286 C283 0.930 . S
H287 C275 0.929 . S
H288 C277 0.929 . S
O289 Co264 2.351 . S
O289 C292 1.244 . S
O290 Co264 2.155 . S
O290 C292 1.240 . S
O291 Co264 2.096 . S
O291 C272 1.247 . S
C292 O289 1.244 . S
C292 O290 1.240 . S
H293 C267 0.931 . S
H294 C276 0.931 1_554 S
H295 C280 0.929 . S
H296 C282 0.930 . S
Co297 N301 2.148 . S
Co297 N307 2.128 . S
Co297 N317 2.194 . S
Co297 O322 2.351 . S
Co297 O323 2.155 . S
Co297 O324 2.096 . S
C298 N301 1.301 . S
C298 N302 1.328 . S
C298 H303 0.930 . S
C299 C300 1.333 . S
C299 N301 1.317 . S
C299 H304 0.930 . S
C300 C299 1.333 . S
C300 N302 1.350 . S
C300 H326 0.931 . S
N301 Co297 2.148 . S
N301 C298 1.301 . S
N301 C299 1.317 . S
N302 C298 1.328 . S
N302 C300 1.350 . S
H303 C298 0.930 . S
H304 C299 0.930 . S
C305 O306 1.224 . S
C305 O324 1.247 . S
O306 C305 1.224 . S
N307 Co297 2.128 . S
N307 C308 1.355 . S
N307 C310 1.311 . S
C308 N307 1.355 . S
C308 C309 1.363 . S
C308 H320 0.929 . S
C309 C308 1.363 . S
C309 N311 1.375 1_556 S
C309 H327 0.931 1_556 S
C310 N307 1.311 . S
C310 N311 1.347 1_556 S
C310 H321 0.929 . S
N311 C309 1.375 1_554 S
N311 C310 1.347 1_554 S
C312 C315 1.365 . S
C312 N317 1.328 . S
C312 H318 0.929 . S
C313 C314 1.362 . S
C313 C316 1.378 . S
C313 H328 0.929 . S
C314 C313 1.362 . S
C314 C315 1.366 . S
C315 C312 1.365 . S
C315 C314 1.366 . S
C315 H329 0.930 . S
C316 C313 1.378 . S
C316 N317 1.315 . S
C316 H319 0.930 . S
N317 Co297 2.194 . S
N317 C312 1.328 . S
N317 C316 1.315 . S
H318 C312 0.929 . S
H319 C316 0.930 . S
H320 C308 0.929 . S
H321 C310 0.929 . S
O322 Co297 2.351 . S
O322 C325 1.244 . S
O323 Co297 2.155 . S
O323 C325 1.240 . S
O324 Co297 2.096 . S
O324 C305 1.247 . S
C325 O322 1.244 . S
C325 O323 1.240 . S
H326 C300 0.931 . S
H327 C309 0.931 1_554 S
H328 C313 0.929 . S
H329 C315 0.930 . S
Co330 N334 2.148 . S
Co330 N340 2.128 . S
Co330 N350 2.194 . S
Co330 O355 2.351 . S
Co330 O356 2.155 . S
Co330 O357 2.096 . S
C331 N334 1.301 . S
C331 N335 1.328 . S
C331 H336 0.930 . S
C332 C333 1.333 . S
C332 N334 1.317 . S
C332 H337 0.930 . S
C333 C332 1.333 . S
C333 N335 1.350 . S
C333 H359 0.931 . S
N334 Co330 2.148 . S
N334 C331 1.301 . S
N334 C332 1.317 . S
N335 C331 1.328 . S
N335 C333 1.350 . S
H336 C331 0.930 . S
H337 C332 0.930 . S
C338 O339 1.224 . S
C338 O357 1.247 . S
O339 C338 1.224 . S
N340 Co330 2.128 . S
N340 C341 1.355 . S
N340 C343 1.311 . S
C341 N340 1.355 . S
C341 C342 1.363 . S
C341 H353 0.929 . S
C342 C341 1.363 . S
C342 N344 1.375 1_556 S
C342 H360 0.931 1_556 S
C343 N340 1.311 . S
C343 N344 1.347 1_556 S
C343 H354 0.929 . S
N344 C342 1.375 1_554 S
N344 C343 1.347 1_554 S
C345 C348 1.365 . S
C345 N350 1.328 . S
C345 H351 0.929 . S
C346 C347 1.362 . S
C346 C349 1.378 . S
C346 H361 0.929 . S
C347 C346 1.362 . S
C347 C348 1.366 . S
C348 C345 1.365 . S
C348 C347 1.366 . S
C348 H362 0.930 . S
C349 C346 1.378 . S
C349 N350 1.315 . S
C349 H352 0.930 . S
N350 Co330 2.194 . S
N350 C345 1.328 . S
N350 C349 1.315 . S
H351 C345 0.929 . S
H352 C349 0.930 . S
H353 C341 0.929 . S
H354 C343 0.929 . S
O355 Co330 2.351 . S
O355 C358 1.244 . S
O356 Co330 2.155 . S
O356 C358 1.240 . S
O357 Co330 2.096 . S
O357 C338 1.247 . S
C358 O355 1.244 . S
C358 O356 1.240 . S
H359 C333 0.931 . S
H360 C342 0.931 1_554 S
H361 C346 0.929 . S
H362 C348 0.930 . S
Co363 N367 2.148 . S
Co363 N373 2.128 . S
Co363 N383 2.194 . S
Co363 O388 2.351 . S
Co363 O389 2.155 . S
Co363 O390 2.096 . S
C364 N367 1.301 . S
C364 N368 1.328 . S
C364 H369 0.930 . S
C365 C366 1.333 . S
C365 N367 1.317 . S
C365 H370 0.930 . S
C366 C365 1.333 . S
C366 N368 1.350 . S
C366 H392 0.931 . S
N367 Co363 2.148 . S
N367 C364 1.301 . S
N367 C365 1.317 . S
N368 C364 1.328 . S
N368 C366 1.350 . S
H369 C364 0.930 . S
H370 C365 0.930 . S
C371 O372 1.224 . S
C371 O390 1.247 . S
O372 C371 1.224 . S
N373 Co363 2.128 . S
N373 C374 1.355 . S
N373 C376 1.311 . S
C374 N373 1.355 . S
C374 C375 1.363 . S
C374 H386 0.929 . S
C375 C374 1.363 . S
C375 N377 1.375 1_556 S
C375 H393 0.931 1_556 S
C376 N373 1.311 . S
C376 N377 1.347 1_556 S
C376 H387 0.929 . S
N377 C375 1.375 1_554 S
N377 C376 1.347 1_554 S
C378 C381 1.365 . S
C378 N383 1.328 . S
C378 H384 0.929 . S
C379 C380 1.362 . S
C379 C382 1.378 . S
C379 H394 0.929 . S
C380 C379 1.362 . S
C380 C381 1.366 . S
C381 C378 1.365 . S
C381 C380 1.366 . S
C381 H395 0.930 . S
C382 C379 1.378 . S
C382 N383 1.315 . S
C382 H385 0.930 . S
N383 Co363 2.194 . S
N383 C378 1.328 . S
N383 C382 1.315 . S
H384 C378 0.929 . S
H385 C382 0.930 . S
H386 C374 0.929 . S
H387 C376 0.929 . S
O388 Co363 2.351 . S
O388 C391 1.244 . S
O389 Co363 2.155 . S
O389 C391 1.240 . S
O390 Co363 2.096 . S
O390 C371 1.247 . S
C391 O388 1.244 . S
C391 O389 1.240 . S
H392 C366 0.931 . S
H393 C375 0.931 1_554 S
H394 C379 0.929 . S
H395 C381 0.930 . S
Co396 N400 2.148 . S
Co396 N406 2.128 . S
Co396 N416 2.194 . S
Co396 O421 2.351 . S
Co396 O422 2.155 . S
Co396 O423 2.096 . S
C397 N400 1.301 . S
C397 N401 1.328 . S
C397 H402 0.930 . S
C398 C399 1.333 . S
C398 N400 1.317 . S
C398 H403 0.930 . S
C399 C398 1.333 . S
C399 N401 1.350 . S
C399 H425 0.931 . S
N400 Co396 2.148 . S
N400 C397 1.301 . S
N400 C398 1.317 . S
N401 C397 1.328 . S
N401 C399 1.350 . S
H402 C397 0.930 . S
H403 C398 0.930 . S
C404 O405 1.224 . S
C404 O423 1.247 . S
O405 C404 1.224 . S
N406 Co396 2.128 . S
N406 C407 1.355 . S
N406 C409 1.311 . S
C407 N406 1.355 . S
C407 C408 1.363 . S
C407 H419 0.929 . S
C408 C407 1.363 . S
C408 N410 1.375 1_554 S
C408 H426 0.931 1_554 S
C409 N406 1.311 . S
C409 N410 1.347 1_554 S
C409 H420 0.929 . S
N410 C408 1.375 1_556 S
N410 C409 1.347 1_556 S
C411 C414 1.365 . S
C411 N416 1.328 . S
C411 H417 0.929 . S
C412 C413 1.362 . S
C412 C415 1.378 . S
C412 H427 0.929 . S
C413 C412 1.362 . S
C413 C414 1.366 . S
C414 C411 1.365 . S
C414 C413 1.366 . S
C414 H428 0.930 . S
C415 C412 1.378 . S
C415 N416 1.315 . S
C415 H418 0.930 . S
N416 Co396 2.194 . S
N416 C411 1.328 . S
N416 C415 1.315 . S
H417 C411 0.929 . S
H418 C415 0.930 . S
H419 C407 0.929 . S
H420 C409 0.929 . S
O421 Co396 2.351 . S
O421 C424 1.244 . S
O422 Co396 2.155 . S
O422 C424 1.240 . S
O423 Co396 2.096 . S
O423 C404 1.247 . S
C424 O421 1.244 . S
C424 O422 1.240 . S
H425 C399 0.931 . S
H426 C408 0.931 1_556 S
H427 C412 0.929 . S
H428 C414 0.930 . S
Co429 N433 2.148 . S
Co429 N439 2.128 . S
Co429 N449 2.194 . S
Co429 O454 2.351 . S
Co429 O455 2.155 . S
Co429 O456 2.096 . S
C430 N433 1.301 . S
C430 N434 1.328 . S
C430 H435 0.930 . S
C431 C432 1.333 . S
C431 N433 1.317 . S
C431 H436 0.930 . S
C432 C431 1.333 . S
C432 N434 1.350 . S
C432 H458 0.931 . S
N433 Co429 2.148 . S
N433 C430 1.301 . S
N433 C431 1.317 . S
N434 C430 1.328 . S
N434 C432 1.350 . S
H435 C430 0.930 . S
H436 C431 0.930 . S
C437 O438 1.224 . S
C437 O456 1.247 . S
O438 C437 1.224 . S
N439 Co429 2.128 . S
N439 C440 1.355 . S
N439 C442 1.311 . S
C440 N439 1.355 . S
C440 C441 1.363 . S
C440 H452 0.929 . S
C441 C440 1.363 . S
C441 N443 1.375 1_554 S
C441 H459 0.931 1_554 S
C442 N439 1.311 . S
C442 N443 1.347 1_554 S
C442 H453 0.929 . S
N443 C441 1.375 1_556 S
N443 C442 1.347 1_556 S
C444 C447 1.365 . S
C444 N449 1.328 . S
C444 H450 0.929 . S
C445 C446 1.362 . S
C445 C448 1.378 . S
C445 H460 0.929 . S
C446 C445 1.362 . S
C446 C447 1.366 . S
C447 C444 1.365 . S
C447 C446 1.366 . S
C447 H461 0.930 . S
C448 C445 1.378 . S
C448 N449 1.315 . S
C448 H451 0.930 . S
N449 Co429 2.194 . S
N449 C444 1.328 . S
N449 C448 1.315 . S
H450 C444 0.929 . S
H451 C448 0.930 . S
H452 C440 0.929 . S
H453 C442 0.929 . S
O454 Co429 2.351 . S
O454 C457 1.244 . S
O455 Co429 2.155 . S
O455 C457 1.240 . S
O456 Co429 2.096 . S
O456 C437 1.247 . S
C457 O454 1.244 . S
C457 O455 1.240 . S
H458 C432 0.931 . S
H459 C441 0.931 1_556 S
H460 C445 0.929 . S
H461 C447 0.930 . S
Co462 N466 2.148 . S
Co462 N472 2.128 . S
Co462 N482 2.194 . S
Co462 O487 2.351 . S
Co462 O488 2.155 . S
Co462 O489 2.096 . S
C463 N466 1.301 . S
C463 N467 1.328 . S
C463 H468 0.930 . S
C464 C465 1.333 . S
C464 N466 1.317 . S
C464 H469 0.930 . S
C465 C464 1.333 . S
C465 N467 1.350 . S
C465 H491 0.931 . S
N466 Co462 2.148 . S
N466 C463 1.301 . S
N466 C464 1.317 . S
N467 C463 1.328 . S
N467 C465 1.350 . S
H468 C463 0.930 . S
H469 C464 0.930 . S
C470 O471 1.224 . S
C470 O489 1.247 . S
O471 C470 1.224 . S
N472 Co462 2.128 . S
N472 C473 1.355 . S
N472 C475 1.311 . S
C473 N472 1.355 . S
C473 C474 1.363 . S
C473 H485 0.929 . S
C474 C473 1.363 . S
C474 N476 1.375 1_554 S
C474 H492 0.931 1_554 S
C475 N472 1.311 . S
C475 N476 1.347 1_554 S
C475 H486 0.929 . S
N476 C474 1.375 1_556 S
N476 C475 1.347 1_556 S
C477 C480 1.365 . S
C477 N482 1.328 . S
C477 H483 0.929 . S
C478 C479 1.362 . S
C478 C481 1.378 . S
C478 H493 0.929 . S
C479 C478 1.362 . S
C479 C480 1.366 . S
C480 C477 1.365 . S
C480 C479 1.366 . S
C480 H494 0.930 . S
C481 C478 1.378 . S
C481 N482 1.315 . S
C481 H484 0.930 . S
N482 Co462 2.194 . S
N482 C477 1.328 . S
N482 C481 1.315 . S
H483 C477 0.929 . S
H484 C481 0.930 . S
H485 C473 0.929 . S
H486 C475 0.929 . S
O487 Co462 2.351 . S
O487 C490 1.244 . S
O488 Co462 2.155 . S
O488 C490 1.240 . S
O489 Co462 2.096 . S
O489 C470 1.247 . S
C490 O487 1.244 . S
C490 O488 1.240 . S
H491 C465 0.931 . S
H492 C474 0.931 1_556 S
H493 C478 0.929 . S
H494 C480 0.930 . S
Co495 N499 2.148 . S
Co495 N505 2.128 . S
Co495 N515 2.194 . S
Co495 O520 2.351 . S
Co495 O521 2.155 . S
Co495 O522 2.096 . S
C496 N499 1.301 . S
C496 N500 1.328 . S
C496 H501 0.930 . S
C497 C498 1.333 . S
C497 N499 1.317 . S
C497 H502 0.930 . S
C498 C497 1.333 . S
C498 N500 1.350 . S
C498 H524 0.931 . S
N499 Co495 2.148 . S
N499 C496 1.301 . S
N499 C497 1.317 . S
N500 C496 1.328 . S
N500 C498 1.350 . S
H501 C496 0.930 . S
H502 C497 0.930 . S
C503 O504 1.224 . S
C503 O522 1.247 . S
O504 C503 1.224 . S
N505 Co495 2.128 . S
N505 C506 1.355 . S
N505 C508 1.311 . S
C506 N505 1.355 . S
C506 C507 1.363 . S
C506 H518 0.929 . S
C507 C506 1.363 . S
C507 N509 1.375 1_554 S
C507 H525 0.931 1_554 S
C508 N505 1.311 . S
C508 N509 1.347 1_554 S
C508 H519 0.929 . S
N509 C507 1.375 1_556 S
N509 C508 1.347 1_556 S
C510 C513 1.365 . S
C510 N515 1.328 . S
C510 H516 0.929 . S
C511 C512 1.362 . S
C511 C514 1.378 . S
C511 H526 0.929 . S
C512 C511 1.362 . S
C512 C513 1.366 . S
C513 C510 1.365 . S
C513 C512 1.366 . S
C513 H527 0.930 . S
C514 C511 1.378 . S
C514 N515 1.315 . S
C514 H517 0.930 . S
N515 Co495 2.194 . S
N515 C510 1.328 . S
N515 C514 1.315 . S
H516 C510 0.929 . S
H517 C514 0.930 . S
H518 C506 0.929 . S
H519 C508 0.929 . S
O520 Co495 2.351 . S
O520 C523 1.244 . S
O521 Co495 2.155 . S
O521 C523 1.240 . S
O522 Co495 2.096 . S
O522 C503 1.247 . S
C523 O520 1.244 . S
C523 O521 1.240 . S
H524 C498 0.931 . S
H525 C507 0.931 1_556 S
H526 C511 0.929 . S
H527 C513 0.930 . S
N5 N14 2.036 . S
N38 N47 2.036 . S
N80 N71 2.036 . S
N113 N104 2.036 . S
N137 N146 2.036 . S
N179 N170 2.036 . S
N212 N203 2.036 . S
N245 N236 2.036 . S
N269 N278 2.036 . S
N302 N311 2.036 . S
N335 N344 2.036 . S
N368 N377 2.036 . S
N410 N401 2.036 . S
N443 N434 2.036 . S
N476 N467 2.036 . S
N509 N500 2.036 . S
C8 C503 1.618 . S
C404 C41 1.618 . S
C437 C74 1.618 . S
C470 C107 1.618 . S
C305 C140 1.618 . S
C173 C338 1.618 . S
C206 C371 1.618 . S
C272 C239 1.618 . S
C28 C160 1.183 1_544 S
C193 C61 1.183 1_456 S
C94 C226 1.183 1_564 S
C259 C127 1.183 1_656 S
C424 C292 1.183 . S
C325 C457 1.183 . S
C358 C490 1.183 . S
C391 C523 1.183 . S
C17 C182 1.623 1_554 S
C50 C215 1.623 1_554 S
C248 C83 1.623 1_556 S
C116 C149 1.623 1_554 S
C446 C281 1.623 . S
C314 C479 1.623 . S
C512 C347 1.623 . S
C413 C380 1.623 . S
