# Generated by pormake.
# Topology snz, (6)-cn, num edge types: 1
# Building blocks:
#     Node 0, Type 0, BuildingBlock: BETDEL_clean_sbu_0, # of connection points: 6
#     Node 1, Type 0, BuildingBlock: BETDEL_clean_sbu_0, # of connection points: 6
#     Node 2, Type 0, BuildingBlock: BETDEL_clean_sbu_0, # of connection points: 6
#     Node 3, Type 0, BuildingBlock: BETDEL_clean_sbu_0, # of connection points: 6
#     Node 4, Type 0, BuildingBlock: BETDEL_clean_sbu_0, # of connection points: 6
#     Node 5, Type 0, BuildingBlock: BETDEL_clean_sbu_0, # of connection points: 6
#     Node 6, Type 0, BuildingBlock: BETDEL_clean_sbu_0, # of connection points: 6
#     Node 7, Type 0, BuildingBlock: BETDEL_clean_sbu_0, # of connection points: 6
#     Node 8, Type 0, BuildingBlock: BETDEL_clean_sbu_0, # of connection points: 6
#     Edge 9, Type (0, 0), BuildingBlock: MIFKUJ_clean_linker_0, # of connection points: 2
#     Edge 10, Type (0, 0), BuildingBlock: MIFKUJ_clean_linker_0, # of connection points: 2
#     Edge 11, Type (0, 0), BuildingBlock: MIFKUJ_clean_linker_0, # of connection points: 2
#     Edge 12, Type (0, 0), BuildingBlock: MIFKUJ_clean_linker_0, # of connection points: 2
#     Edge 13, Type (0, 0), BuildingBlock: MIFKUJ_clean_linker_0, # of connection points: 2
#     Edge 14, Type (0, 0), BuildingBlock: MIFKUJ_clean_linker_0, # of connection points: 2
#     Edge 15, Type (0, 0), BuildingBlock: MIFKUJ_clean_linker_0, # of connection points: 2
#     Edge 16, Type (0, 0), BuildingBlock: MIFKUJ_clean_linker_0, # of connection points: 2
#     Edge 17, Type (0, 0), BuildingBlock: MIFKUJ_clean_linker_0, # of connection points: 2
#     Edge 18, Type (0, 0), BuildingBlock: MIFKUJ_clean_linker_0, # of connection points: 2
#     Edge 19, Type (0, 0), BuildingBlock: MIFKUJ_clean_linker_0, # of connection points: 2
#     Edge 20, Type (0, 0), BuildingBlock: MIFKUJ_clean_linker_0, # of connection points: 2
#     Edge 21, Type (0, 0), BuildingBlock: MIFKUJ_clean_linker_0, # of connection points: 2
#     Edge 22, Type (0, 0), BuildingBlock: MIFKUJ_clean_linker_0, # of connection points: 2
#     Edge 23, Type (0, 0), BuildingBlock: MIFKUJ_clean_linker_0, # of connection points: 2
#     Edge 24, Type (0, 0), BuildingBlock: MIFKUJ_clean_linker_0, # of connection points: 2
#     Edge 25, Type (0, 0), BuildingBlock: MIFKUJ_clean_linker_0, # of connection points: 2
#     Edge 26, Type (0, 0), BuildingBlock: MIFKUJ_clean_linker_0, # of connection points: 2
#     Edge 27, Type (0, 0), BuildingBlock: MIFKUJ_clean_linker_0, # of connection points: 2
#     Edge 28, Type (0, 0), BuildingBlock: MIFKUJ_clean_linker_0, # of connection points: 2
#     Edge 29, Type (0, 0), BuildingBlock: MIFKUJ_clean_linker_0, # of connection points: 2
#     Edge 30, Type (0, 0), BuildingBlock: MIFKUJ_clean_linker_0, # of connection points: 2
#     Edge 31, Type (0, 0), BuildingBlock: MIFKUJ_clean_linker_0, # of connection points: 2
#     Edge 32, Type (0, 0), BuildingBlock: MIFKUJ_clean_linker_0, # of connection points: 2
#     Edge 33, Type (0, 0), BuildingBlock: MIFKUJ_clean_linker_0, # of connection points: 2
#     Edge 34, Type (0, 0), BuildingBlock: MIFKUJ_clean_linker_0, # of connection points: 2
#     Edge 35, Type (0, 0), BuildingBlock: MIFKUJ_clean_linker_0, # of connection points: 2
# Relax obj value: 0.167
# Max RMSD: 0.226
# Mean RMSD: 0.174
data_MOF--net-snz--node1-BETDEL_clean_sbu_0--edge1-MIFKUJ_clean_linker_0
_symmetry_space_group_name_H-M    P1
_symmetry_Int_Tables_number       1
_symmetry_cell_setting            triclinic
loop_
_symmetry_equiv_pos_as_xyz
'x, y, z'
_cell_length_a     66.022163
_cell_length_b     67.910843
_cell_length_c     19.135286
_cell_angle_alpha  91.947019
_cell_angle_beta   92.251279
_cell_angle_gamma 120.1704
loop_
_atom_site_label
_atom_site_type_symbol
_atom_site_fract_x
_atom_site_fract_y
_atom_site_fract_z
_atom_type_partial_charge
Dy0 Dy 0.07298 0.48116 0.02719 0.0
C1 C 1.00531 0.50465 0.94223 0.0
C2 C 0.10126 0.46612 0.08177 0.0
Dy3 Dy 0.03249 0.48851 0.99814 0.0
O4 O 0.10599 0.47902 0.0292 0.0
O5 O 0.08126 0.46166 0.10475 0.0
O6 O 0.08796 0.49547 0.92484 0.0
O7 O 0.05158 0.47772 0.93153 0.0
C8 C 0.06787 0.48953 0.89247 0.0
C9 C 0.03768 0.48021 0.13294 0.0
O10 O 0.01483 0.45166 0.96012 0.0
O11 O 0.0425 0.44509 0.01556 0.0
O12 O 1.00132 0.49378 -0.00069 0.0
O13 O 0.02379 0.50627 0.91549 0.0
O14 O 0.0175 0.47368 0.09988 0.0
O15 O 0.05395 0.49215 0.0939 0.0
O16 O 0.09097 0.51792 0.0642 0.0
O17 O 0.06311 0.52454 0.01078 0.0
C18 C 0.0218 0.43752 0.98162 0.0
C19 C 0.08404 0.5321 0.04331 0.0
Dy20 Dy 0.59854 0.52583 0.07245 0.0
C21 C 0.5792 0.43766 0.98543 0.0
C22 C 0.61155 0.56941 0.11844 0.0
Dy23 Dy 0.59308 0.48005 0.04508 0.0
O24 O 0.61265 0.56292 0.05496 0.0
O25 O 0.60307 0.55201 0.15715 0.0
O26 O 0.58219 0.52297 0.9646 0.0
O27 O 0.60407 0.5092 0.98061 0.0
C28 C 0.59115 0.51175 0.93568 0.0
C29 C 0.60048 0.4937 0.18204 0.0
O30 O 0.63139 0.50079 0.03045 0.0
O31 O 0.63553 0.5328 0.09058 0.0
O32 O 0.58586 0.44396 0.0511 0.0
O33 O 0.58061 0.45463 0.95246 0.0
O34 O 0.60866 0.48175 0.15302 0.0
O35 O 0.58775 0.49665 0.13735 0.0
O36 O 0.56009 0.50607 0.08448 0.0
O37 O 0.55548 0.47208 0.03761 0.0
C38 C 0.64478 0.52148 0.06091 0.0
C39 C 0.54656 0.48456 0.06092 0.0
Dy40 Dy 0.54902 0.00655 0.09136 0.0
C41 C 0.64343 0.07416 0.05144 0.0
C42 C 0.50492 0.97873 0.13383 0.0
Dy43 Dy 0.59775 0.04611 0.0827 0.0
O44 O 0.51402 0.97379 0.0819 0.0
O45 O 0.51993 0.99873 0.16256 0.0
O46 O 0.54944 0.99244 0.98376 0.0
O47 O 0.56788 0.02778 0.00571 0.0
C48 C 0.56375 0.0121 0.96003 0.0
C49 C 0.58205 0.04028 0.2128 0.0
O50 O 0.57882 0.06496 0.0582 0.0
O51 O 0.5424 0.03586 0.08673 0.0
O52 O 0.63643 0.06814 0.11358 0.0
O53 O 0.62539 0.06531 0.00645 0.0
O54 O 0.5953 0.06013 0.18825 0.0
O55 O 0.57885 0.02473 0.16791 0.0
O56 O 0.56901 0.98973 0.12381 0.0
O57 O 0.60244 0.01545 0.07209 0.0
C58 C 0.55631 0.05698 0.06841 0.0
C59 C 0.58977 0.99566 0.10049 0.0
Dy60 Dy 0.77473 0.85031 0.35588 0.0
C61 C 0.70509 0.87107 0.26847 0.0
C62 C 0.80303 0.83394 0.40089 0.0
Dy63 Dy 0.73432 0.85755 0.32632 0.0
O64 O 0.79264 0.82994 0.33892 0.0
O65 O 0.79847 0.84743 0.43817 0.0
O66 O 0.78956 0.86537 0.25461 0.0
O67 O 0.75298 0.84599 0.26004 0.0
C68 C 0.7693 0.85802 0.22115 0.0
C69 C 0.7403 0.85113 0.46261 0.0
O70 O 0.71716 0.82056 0.29419 0.0
O71 O 0.74293 0.81573 0.36573 0.0
O72 O 0.70041 0.85807 0.32076 0.0
O73 O 0.72566 0.87658 0.24772 0.0
O74 O 0.71999 0.84458 0.43062 0.0
O75 O 0.75624 0.86222 0.42182 0.0
O76 O 0.79442 0.88795 0.38102 0.0
O77 O 0.76465 0.89371 0.33721 0.0
C78 C 0.72294 0.80713 0.32706 0.0
C79 C 0.78644 0.90168 0.36376 0.0
Dy80 Dy 0.22138 0.85967 0.3406 0.0
C81 C 0.19935 0.76856 0.2707 0.0
C82 C 0.23667 0.90305 0.39448 0.0
Dy83 Dy 0.21344 0.81247 0.31596 0.0
O84 O 0.23243 0.89658 0.32835 0.0
O85 O 0.23216 0.88574 0.43113 0.0
O86 O 0.2049 0.85764 0.23376 0.0
O87 O 0.22412 0.84102 0.24878 0.0
C88 C 0.21156 0.8444 0.2047 0.0
C89 C 0.22385 0.82832 0.45143 0.0
O90 O 0.25173 0.83131 0.29951 0.0
O91 O 0.25835 0.86606 0.34668 0.0
O92 O 0.19562 0.77482 0.3313 0.0
O93 O 0.21088 0.7863 0.23463 0.0
O94 O 0.23077 0.81534 0.42222 0.0
O95 O 0.21082 0.83116 0.40769 0.0
O96 O 0.18318 0.84044 0.35771 0.0
O97 O 0.17682 0.80686 0.3018 0.0
C98 C 0.26616 0.85284 0.32163 0.0
C99 C 0.16881 0.81943 0.33086 0.0
Dy100 Dy 0.21059 0.2922 0.25968 0.0
C101 C 0.30281 0.35995 0.20018 0.0
C102 C 0.16562 0.2642 0.29674 0.0
Dy103 Dy 0.25926 0.33174 0.24652 0.0
O104 O 0.17144 0.27154 0.23488 0.0
O105 O 0.18442 0.27178 0.33811 0.0
O106 O 0.21141 0.2777 0.15317 0.0
O107 O 0.22858 0.31323 0.17254 0.0
C108 C 0.22447 0.29738 0.12741 0.0
C109 C 0.24562 0.32666 0.37946 0.0
O110 O 0.23863 0.34822 0.2168 0.0
O111 O 0.20635 0.32299 0.27397 0.0
O112 O 0.29384 0.36495 0.25237 0.0
O113 O 0.28797 0.3396 0.17334 0.0
O114 O 0.25999 0.34621 0.3551 0.0
O115 O 0.24118 0.31094 0.33365 0.0
O116 O 0.22978 0.27351 0.28152 0.0
O117 O 0.26602 0.30246 0.25104 0.0
C118 C 0.21843 0.34254 0.24382 0.0
C119 C 0.25219 0.28141 0.27014 0.0
Dy120 Dy 0.41421 0.16746 0.61755 0.0
C121 C 0.38602 0.19455 0.86396 0.0
C122 C 0.4278 0.15263 0.5042 0.0
Dy123 Dy 0.39495 0.1759 0.74918 0.0
O124 O 0.44139 0.17048 0.54538 0.0
O125 O 0.40676 0.14264 0.5263 0.0
O126 O 0.43554 0.20541 0.60903 0.0
O127 O 0.42934 0.19182 0.70804 0.0
C128 C 0.43835 0.20996 0.67631 0.0
C129 C 0.37051 0.13325 0.69234 0.0
O130 O 0.38291 0.19202 0.66903 0.0
O131 O 0.38893 0.17638 0.56765 0.0
O132 O 0.37206 0.17429 0.83476 0.0
O133 O 0.40458 0.20474 0.82859 0.0
O134 O 0.37263 0.13821 0.75941 0.0
O135 O 0.37979 0.1512 0.6595 0.0
O136 O 0.42376 0.14909 0.69589 0.0
O137 O 0.42005 0.16634 0.79736 0.0
C138 C 0.38052 0.18808 0.5999 0.0
C139 C 0.42704 0.15346 0.76477 0.0
Dy140 Dy 0.91934 0.17039 0.7428 0.0
C141 C 0.86324 0.15805 0.49255 0.0
C142 C 0.94266 0.18124 0.87143 0.0
Dy143 Dy 0.88956 0.16758 0.61539 0.0
O144 O 0.93442 0.16185 0.83581 0.0
O145 O 0.93858 0.19484 0.83529 0.0
O146 O 0.92194 0.14086 0.69985 0.0
O147 O 0.89101 0.14204 0.67776 0.0
C148 C 0.90165 0.1313 0.66496 0.0
C149 C 0.90787 0.20652 0.69518 0.0
O150 O 0.86127 0.15245 0.68979 0.0
O151 O 0.88581 0.16338 0.79085 0.0
O152 O 0.87545 0.1781 0.52458 0.0
O153 O 0.86604 0.1433 0.52664 0.0
O154 O 0.88721 0.19704 0.66272 0.0
O155 O 0.91803 0.19562 0.67976 0.0
O156 O 0.94766 0.1858 0.66942 0.0
O157 O 0.92318 0.17404 0.5676 0.0
C158 C 0.86468 0.15516 0.75886 0.0
C159 C 0.94435 0.18263 0.60037 0.0
Dy160 Dy 0.89073 0.65986 0.61828 0.0
C161 C 0.94559 0.68734 0.88089 0.0
C162 C 0.8612 0.63644 0.50419 0.0
Dy163 Dy 0.92027 0.68418 0.76097 0.0
O164 O 0.86472 0.62745 0.5587 0.0
O165 O 0.87332 0.65861 0.5138 0.0
O166 O 0.91223 0.64281 0.61137 0.0
O167 O 0.90362 0.65003 0.70956 0.0
C168 C 0.91457 0.64195 0.67853 0.0
C169 C 0.90568 0.71028 0.69939 0.0
O170 O 0.94777 0.69613 0.68227 0.0
O171 O 0.92408 0.68751 0.57871 0.0
O172 O 0.93235 0.69636 0.87308 0.0
O173 O 0.94579 0.67766 0.82137 0.0
O174 O 0.9185 0.71672 0.75846 0.0
O175 O 0.9023 0.69104 0.6791 0.0
O176 O 0.86227 0.65198 0.69135 0.0
O177 O 0.88436 0.66201 0.79842 0.0
C178 C 0.94499 0.69758 0.61375 0.0
C179 C 0.86395 0.65251 0.76089 0.0
H180 H 0.02685 0.47604 0.8133 0.0
H181 H 0.02151 0.47603 0.68569 0.0
H182 H 0.09595 0.50442 0.66929 0.0
H183 H 0.10142 0.50534 0.79683 0.0
H184 H 0.08052 0.52297 0.57843 0.0
H185 H 0.05358 0.44665 0.64629 0.0
H186 H 0.02882 0.41389 0.71474 0.0
H187 H 0.96696 0.40488 0.60206 0.0
H188 H 0.99122 0.43881 0.53666 0.0
H189 H 0.07879 0.49639 0.21438 0.0
H190 H 0.08389 0.4981 0.34255 0.0
H191 H 0.00895 0.46655 0.35562 0.0
H192 H 1.0038 0.46416 0.2277 0.0
H193 H 0.02427 0.4497 0.44846 0.0
H194 H 0.0489 0.52615 0.38881 0.0
H195 H 0.07179 0.56162 0.32851 0.0
H196 H 0.1358 0.57005 0.42434 0.0
H197 H 0.1133 0.53443 0.48444 0.0
C198 C 0.0421 0.4825 0.78252 0.0
C199 C 0.06454 0.49052 0.81534 0.0
C200 C 0.03903 0.4824 0.70934 0.0
C201 C 0.05826 0.4898 0.66697 0.0
C202 C 0.08077 0.49852 0.70018 0.0
C203 C 0.08387 0.49893 0.77333 0.0
C204 C 0.05496 0.4876 0.58826 0.0
C205 C 0.0684 0.50685 0.55012 0.0
C206 C 0.03876 0.46671 0.55062 0.0
C207 C 0.02426 0.44549 0.58698 0.0
C208 C 0.03469 0.43781 0.6363 0.0
C209 C 0.02073 0.41904 0.67474 0.0
C210 C 0.99635 0.40711 0.66225 0.0
C211 C 0.98586 0.41411 0.61166 0.0
C212 C 0.9997 0.43326 0.57432 0.0
C213 C 0.0634 0.4897 0.24462 0.0
C214 C 0.0409 0.48027 0.21065 0.0
C215 C 0.06633 0.49083 0.31814 0.0
C216 C 0.04685 0.48287 0.35971 0.0
C217 C 0.02433 0.4729 0.32545 0.0
C218 C 0.02139 0.47159 0.25203 0.0
C219 C 0.04984 0.48509 0.43855 0.0
C220 C 0.03639 0.46581 0.47673 0.0
C221 C 0.06585 0.50599 0.47632 0.0
C222 C 0.07942 0.52749 0.44056 0.0
C223 C 0.06787 0.53548 0.39664 0.0
C224 C 0.08077 0.55562 0.36253 0.0
C225 C 0.10524 0.56805 0.37242 0.0
C226 C 0.11685 0.56039 0.41662 0.0
C227 C 0.10403 0.54023 0.45075 0.0
H228 H 0.1152 0.58364 0.34598 0.0
H229 H 0.98561 0.39251 0.6919 0.0
H230 H 0.62228 0.50469 0.86322 0.0
H231 H 0.62452 0.50235 0.73559 0.0
H232 H 0.56401 0.51032 0.70609 0.0
H233 H 0.56197 0.51307 0.83348 0.0
H234 H 0.56096 0.47535 0.61913 0.0
H235 H 0.61682 0.55506 0.67511 0.0
H236 H 0.6517 0.58915 0.73099 0.0
H237 H 0.69577 0.56358 0.66218 0.0
H238 H 0.66114 0.52943 0.60521 0.0
H239 H 0.5696 0.50086 0.25585 0.0
H240 H 0.56761 0.50285 0.38375 0.0
H241 H 0.62816 0.49482 0.41045 0.0
H242 H 0.6299 0.49235 0.28293 0.0
H243 H 0.63138 0.52925 0.49916 0.0
H244 H 0.57645 0.45182 0.43198 0.0
H245 H 0.54218 0.41829 0.37189 0.0
H246 H 0.49616 0.4378 0.46432 0.0
H247 H 0.53021 0.47193 0.52312 0.0
C248 C 0.60941 0.50585 0.82948 0.0
C249 C 0.59191 0.50903 0.85847 0.0
C250 C 0.6108 0.50468 0.75649 0.0
C251 C 0.59454 0.50634 0.7109 0.0
C252 C 0.5768 0.50906 0.73993 0.0
C253 C 0.57564 0.51061 0.81281 0.0
C254 C 0.59565 0.50477 0.63306 0.0
C255 C 0.57621 0.48736 0.59274 0.0
C256 C 0.61582 0.51993 0.59856 0.0
C257 C 0.6364 0.53962 0.63654 0.0
C258 C 0.63392 0.5566 0.67258 0.0
C259 C 0.65366 0.57601 0.7039 0.0
C260 C 0.67594 0.57856 0.69989 0.0
C261 C 0.67851 0.56163 0.66496 0.0
C262 C 0.65885 0.54228 0.63297 0.0
C263 C 0.58254 0.49963 0.28906 0.0
C264 C 0.59993 0.49646 0.2593 0.0
C265 C 0.5813 0.50062 0.36217 0.0
C266 C 0.59763 0.49882 0.40701 0.0
C267 C 0.61532 0.4962 0.37719 0.0
C268 C 0.61631 0.4948 0.30424 0.0
C269 C 0.59657 0.49997 0.48492 0.0
C270 C 0.61606 0.51725 0.52534 0.0
C271 C 0.57646 0.48458 0.51941 0.0
C272 C 0.55598 0.46468 0.48123 0.0
C273 C 0.55908 0.44925 0.43847 0.0
C274 C 0.53967 0.43007 0.4048 0.0
C275 C 0.51701 0.42593 0.41423 0.0
C276 C 0.51373 0.44103 0.45706 0.0
C277 C 0.53309 0.46036 0.49031 0.0
H278 H 0.502 0.41103 0.38832 0.0
H279 H 0.69121 0.59361 0.72418 0.0
H280 H 0.55279 0.97964 0.85433 0.0
H281 H 0.55615 0.98461 0.72838 0.0
H282 H 0.58587 0.05717 0.76693 0.0
H283 H 0.58246 0.05223 0.89333 0.0
H284 H 0.55221 0.04065 0.65976 0.0
H285 H 0.61972 0.03461 0.72161 0.0
H286 H 0.64165 0.01738 0.77233 0.0
H287 H 0.60211 0.95775 0.63275 0.0
H288 H 0.57964 0.97445 0.582 0.0
H289 H 0.5921 0.07269 0.31807 0.0
H290 H 0.58859 0.06774 0.444 0.0
H291 H 0.56024 0.99535 0.40602 0.0
H292 H 0.56387 1.00029 0.27976 0.0
H293 H 0.59317 0.01178 0.51292 0.0
H294 H 0.52527 0.01706 0.45224 0.0
H295 H 0.50297 0.03381 0.40076 0.0
H296 H 0.54272 0.09421 0.53717 0.0
H297 H 0.56553 0.07796 0.58874 0.0
C298 C 0.56022 0.99669 0.83609 0.0
C299 C 0.56737 0.01553 0.88399 0.0
C300 C 0.56219 0.99953 0.7639 0.0
C301 C 0.5714 0.0213 0.73765 0.0
C302 C 0.5787 0.04019 0.78555 0.0
C303 C 0.57685 0.03736 0.85792 0.0
C304 C 0.57286 0.02421 0.6603 0.0
C305 C 0.56149 0.03464 0.62791 0.0
C306 C 0.58437 0.01582 0.61788 0.0
C307 C 0.59778 0.00568 0.64858 0.0
C308 C 0.61552 0.01772 0.70222 0.0
C309 C 0.62808 0.00807 0.7309 0.0
C310 C 0.62322 0.98645 0.70595 0.0
C311 C 0.60582 0.97447 0.65215 0.0
C312 C 0.59316 0.98402 0.62341 0.0
C313 C 0.58493 0.05568 0.33644 0.0
C314 C 0.57826 0.03689 0.28876 0.0
C315 C 0.58286 0.05285 0.40861 0.0
C316 C 0.574 0.03113 0.43504 0.0
C317 C 0.56715 0.01229 0.3873 0.0
C318 C 0.56912 0.01511 0.315 0.0
C319 C 0.57253 0.02822 0.51239 0.0
C320 C 0.5839 0.01779 0.54478 0.0
C321 C 0.56095 0.03654 0.55476 0.0
C322 C 0.54729 0.04638 0.52383 0.0
C323 C 0.52941 0.034 0.47083 0.0
C324 C 0.51665 0.04339 0.4417 0.0
C325 C 0.52148 0.06509 0.46552 0.0
C326 C 0.53903 0.07742 0.51867 0.0
C327 C 0.55187 0.06812 0.5479 0.0
H328 H 0.51157 0.07233 0.44292 0.0
H329 H 0.63299 0.97902 0.72818 0.0
H330 H 0.7811 0.87748 0.54451 0.0
H331 H 0.78657 0.88001 0.67267 0.0
H332 H 0.71358 0.82905 0.68419 0.0
H333 H 0.70792 0.82717 0.55636 0.0
H334 H 0.72519 0.8613 0.78301 0.0
H335 H 0.76164 0.81966 0.69708 0.0
H336 H 0.78986 0.81465 0.62918 0.0
H337 H 0.84727 0.86991 0.75245 0.0
H338 H 0.8195 0.8763 0.81811 0.0
H339 H 0.72906 0.8334 0.13574 0.0
H340 H 0.72486 0.83229 0.00769 0.0
H341 H 0.79847 0.88224 0.00318 0.0
H342 H 0.80285 0.88272 0.13105 0.0
H343 H 0.78729 0.85124 0.90141 0.0
H344 H 0.75443 0.89719 0.97285 0.0
H345 H 0.729 0.90486 0.04637 0.0
H346 H 0.66836 0.84374 0.95732 0.0
H347 H 0.69345 0.83584 0.88276 0.0
C348 C 0.76625 0.86675 0.57441 0.0
C349 C 0.74409 0.852 0.54018 0.0
C350 C 0.76939 0.86817 0.64786 0.0
C351 C 0.75058 0.85447 0.68879 0.0
C352 C 0.72843 0.83981 0.65435 0.0
C353 C 0.72522 0.83864 0.58108 0.0
C354 C 0.75381 0.85521 0.76721 0.0
C355 C 0.73865 0.85884 0.80852 0.0
C356 C 0.77177 0.85268 0.8016 0.0
C357 C 0.78842 0.84861 0.76222 0.0
C358 C 0.78027 0.83095 0.70923 0.0
C359 C 0.79621 0.82789 0.67102 0.0
C360 C 0.82032 0.84181 0.68697 0.0
C361 C 0.82858 0.8591 0.7403 0.0
C362 C 0.81275 0.86257 0.77765 0.0
C363 C 0.74431 0.84423 0.10746 0.0
C364 C 0.76627 0.85822 0.14368 0.0
C365 C 0.7419 0.84366 0.03405 0.0
C366 C 0.76128 0.85742 0.99507 0.0
C367 C 0.78322 0.87141 0.03147 0.0
C368 C 0.78568 0.87178 0.10478 0.0
C369 C 0.7587 0.85728 0.91664 0.0
C370 C 0.77391 0.85375 0.87553 0.0
C371 C 0.74114 0.86029 0.88229 0.0
C372 C 0.72579 0.86587 0.92263 0.0
C373 C 0.73564 0.88548 0.9687 0.0
C374 C 0.72131 0.88985 0.01061 0.0
C375 C 0.69711 0.87472 0.00689 0.0
C376 C 0.68712 0.85543 0.96022 0.0
C377 C 0.70137 0.85106 0.91779 0.0
H378 H 0.68611 0.87797 0.04014 0.0
H379 H 0.83262 0.83921 0.65816 0.0
H380 H 0.24487 0.81599 0.55273 0.0
H381 H 0.24315 0.81905 0.67986 0.0
H382 H 0.20183 0.85154 0.65322 0.0
H383 H 0.20358 0.84858 0.52552 0.0
H384 H 0.23476 0.8722 0.76274 0.0
H385 H 0.17593 0.79546 0.68759 0.0
H386 H 0.1606 0.7575 0.62742 0.0
H387 H 0.20811 0.74625 0.75634 0.0
H388 H 0.22397 0.7843 0.81664 0.0
H389 H 0.19174 0.85773 0.10253 0.0
H390 H 0.19448 0.85534 0.97569 0.0
H391 H 0.23507 0.82216 0.00423 0.0
H392 H 0.23225 0.82442 0.13156 0.0
H393 H 0.20295 0.80195 0.89391 0.0
H394 H 0.26165 0.87824 0.96982 0.0
H395 H 0.27755 0.91632 0.02971 0.0
H396 H 0.23096 0.92854 0.89982 0.0
H397 H 0.21455 0.89039 0.8397 0.0
C398 C 0.23552 0.82392 0.57386 0.0
C399 C 0.22424 0.83192 0.52884 0.0
C400 C 0.23446 0.82556 0.64672 0.0
C401 C 0.22204 0.8352 0.67655 0.0
C402 C 0.21144 0.84394 0.63175 0.0
C403 C 0.21244 0.84223 0.55868 0.0
C404 C 0.2198 0.83575 0.75416 0.0
C405 C 0.22749 0.85678 0.7912 0.0
C406 C 0.21089 0.81576 0.79207 0.0
C407 C 0.2013 0.79283 0.75615 0.0
C408 C 0.18324 0.78497 0.70275 0.0
C409 C 0.17443 0.76342 0.66867 0.0
C410 C 0.18342 0.74949 0.68792 0.0
C411 C 0.20119 0.75707 0.74142 0.0
C412 C 0.21008 0.77861 0.7756 0.0
C413 C 0.20115 0.8498 0.08186 0.0
C414 C 0.21185 0.84133 0.12732 0.0
C415 C 0.20282 0.84855 0.00918 0.0
C416 C 0.21529 0.83887 0.97999 0.0
C417 C 0.22541 0.82978 0.02519 0.0
C418 C 0.22379 0.83108 0.09806 0.0
C419 C 0.21784 0.83839 0.90253 0.0
C420 C 0.21022 0.81737 0.8655 0.0
C421 C 0.22688 0.85841 0.86468 0.0
C422 C 0.23671 0.88136 0.90072 0.0
C423 C 0.25466 0.88897 0.95439 0.0
C424 C 0.26379 0.91058 0.98831 0.0
C425 C 0.25523 0.92481 0.96871 0.0
C426 C 0.23755 0.91749 0.91501 0.0
C427 C 0.22834 0.89588 0.88095 0.0
H428 H 0.26232 0.94154 0.99503 0.0
H429 H 0.17657 0.73282 0.66148 0.0
H430 H 0.22274 0.28635 0.44495 0.0
H431 H 0.218 0.28124 0.57075 0.0
H432 H 0.25467 0.35429 0.61189 0.0
H433 H 0.2596 0.35941 0.48645 0.0
H434 H 0.2705 0.33752 0.70424 0.0
H435 H 0.19464 0.32073 0.62439 0.0
H436 H 0.15678 0.30281 0.55481 0.0
H437 H 0.13995 0.23723 0.62504 0.0
H438 H 0.17793 0.25472 0.69444 0.0
H439 H 0.24151 0.33704 0.05926 0.0
H440 H 0.24318 0.34155 0.93282 0.0
H441 H 0.21445 0.26912 0.89492 0.0
H442 H 0.21215 0.26445 0.02149 0.0
H443 H 0.19422 0.28575 0.80201 0.0
H444 H 0.27578 0.30698 0.87544 0.0
H445 H 0.31012 0.32899 0.95958 0.0
H446 H 0.3116 0.39092 0.91042 0.0
H447 H 0.27789 0.3694 0.8246 0.0
C448 C 0.22962 0.30131 0.48077 0.0
C449 C 0.24154 0.3233 0.45546 0.0
C450 C 0.22685 0.29839 0.5529 0.0
C451 C 0.23584 0.31736 0.60159 0.0
C452 C 0.24761 0.33931 0.57603 0.0
C453 C 0.25034 0.34224 0.50403 0.0
C454 C 0.23353 0.31441 0.67902 0.0
C455 C 0.25371 0.32628 0.72514 0.0
C456 C 0.21174 0.29982 0.70766 0.0
C457 C 0.18927 0.28901 0.66405 0.0
C458 C 0.18302 0.30244 0.62431 0.0
C459 C 0.16151 0.29238 0.58508 0.0
C460 C 0.14598 0.26891 0.58556 0.0
C461 C 0.15202 0.25542 0.62479 0.0
C462 C 0.17353 0.26539 0.6641 0.0
C463 C 0.23566 0.32208 0.02407 0.0
C464 C 0.22683 0.3004 0.05068 0.0
C465 C 0.23667 0.32467 0.95155 0.0
C466 C 0.22923 0.30572 0.90369 0.0
C467 C 0.22031 0.28404 0.9303 0.0
C468 C 0.21915 0.28141 0.00285 0.0
C469 C 0.23115 0.30857 0.82625 0.0
C470 C 0.21095 0.29672 0.78039 0.0
C471 C 0.25274 0.32355 0.79781 0.0
C472 C 0.2745 0.33665 0.84352 0.0
C473 C 0.28375 0.32535 0.88188 0.0
C474 C 0.30309 0.33773 0.92981 0.0
C475 C 0.31314 0.36136 0.94008 0.0
C476 C 0.30405 0.37268 0.90185 0.0
C477 C 0.28499 0.36045 0.85305 0.0
H478 H 0.32795 0.37091 0.97764 0.0
H479 H 0.12921 0.26125 0.55595 0.0
H480 H 0.39814 0.12119 0.40283 0.0
H481 H 0.39748 0.13018 0.2812 0.0
H482 H 0.46678 0.18923 0.31771 0.0
H483 H 0.46753 0.18025 0.43975 0.0
H484 H 0.43284 0.20035 0.29783 0.0
H485 H 0.45583 0.15317 0.17871 0.0
H486 H 0.45698 0.11835 0.14707 0.0
H487 H 0.38411 0.08409 0.07571 0.0
H488 H 0.38238 0.11862 0.10819 0.0
H489 H 0.42084 0.23037 0.94407 0.0
H490 H 0.43086 0.22638 0.06469 0.0
H491 H 0.36273 0.16623 0.07396 0.0
H492 H 0.35256 0.17013 0.95344 0.0
H493 H 0.40189 0.15892 0.06534 0.0
H494 H 0.3774 0.2032 0.20019 0.0
H495 H 0.37499 0.23715 0.23445 0.0
H496 H 0.44981 0.27608 0.27557 0.0
H497 H 0.45267 0.24222 0.24125 0.0
C498 C 0.4138 0.1353 0.38395 0.0
C499 C 0.43247 0.15059 0.43085 0.0
C500 C 0.41343 0.14045 0.31424 0.0
C501 C 0.43183 0.16076 0.29128 0.0
C502 C 0.45229 0.17367 0.33501 0.0
C503 C 0.45271 0.16845 0.40467 0.0
C504 C 0.42687 0.17124 0.2317 0.0
C505 C 0.42669 0.19161 0.24626 0.0
C506 C 0.41809 0.15941 0.16558 0.0
C507 C 0.41896 0.13849 0.14636 0.0
C508 C 0.43998 0.13816 0.15688 0.0
C509 C 0.44074 0.11845 0.13864 0.0
C510 C 0.42061 0.09898 0.10941 0.0
C511 C 0.39969 0.09918 0.09833 0.0
C512 C 0.39882 0.11883 0.1166 0.0
C513 C 0.40745 0.21712 0.97318 0.0
C514 C 0.38634 0.19993 0.93897 0.0
C515 C 0.41325 0.21483 0.04211 0.0
C516 C 0.39778 0.19558 0.07678 0.0
C517 C 0.37498 0.18098 0.04714 0.0
C518 C 0.36916 0.18331 0.9784 0.0
C519 C 0.40722 0.18748 0.13256 0.0
C520 C 0.40837 0.16773 0.11674 0.0
C521 C 0.41679 0.1998 0.19749 0.0
C522 C 0.41527 0.22027 0.2173 0.0
C523 C 0.39337 0.21906 0.21582 0.0
C524 C 0.39191 0.23828 0.2355 0.0
C525 C 0.41224 0.25884 0.25684 0.0
C526 C 0.43408 0.26017 0.25887 0.0
C527 C 0.43563 0.24094 0.23947 0.0
H528 H 0.41105 0.27371 0.27201 0.0
H529 H 0.42116 0.08371 0.0953 0.0
H530 H 0.86278 0.18924 0.40853 0.0
H531 H 0.86454 0.18708 0.28203 0.0
H532 H 0.84298 0.11581 0.2855 0.0
H533 H 0.84192 0.11797 0.41275 0.0
H534 H 0.892 0.14685 0.28565 0.0
H535 H 0.82161 0.13062 0.16056 0.0
H536 H 0.7871 0.13341 0.12225 0.0
H537 H 0.83209 0.20054 0.0544 0.0
H538 H 0.86691 0.19875 0.0951 0.0
H539 H 0.94106 0.1497 0.95778 0.0
H540 H 0.92334 0.14378 0.06983 0.0
H541 H 0.93072 0.21065 0.07023 0.0
H542 H 0.94811 0.21649 0.95725 0.0
H543 H 0.88513 0.17661 0.05881 0.0
H544 H 0.95367 0.1963 0.21092 0.0
H545 H 0.98888 0.19504 0.25173 0.0
H546 H 0.94704 0.12257 0.26734 0.0
H547 H 0.91164 0.12341 0.22606 0.0
C548 C 0.85724 0.1728 0.38199 0.0
C549 C 0.85345 0.15407 0.42003 0.0
C550 C 0.85792 0.1715 0.30939 0.0
C551 C 0.8549 0.15151 0.27533 0.0
C552 C 0.84596 0.1315 0.31167 0.0
C553 C 0.84553 0.13282 0.38439 0.0
C554 C 0.87006 0.15429 0.21772 0.0
C555 C 0.89009 0.1527 0.23506 0.0
C556 C 0.86809 0.16307 0.15361 0.0
C557 C 0.84703 0.16459 0.13165 0.0
C558 C 0.82424 0.14618 0.13872 0.0
C559 C 0.80458 0.14755 0.11632 0.0
C560 C 0.8074 0.16708 0.08573 0.0
C561 C 0.82991 0.1854 0.07807 0.0
C562 C 0.84963 0.18424 0.10104 0.0
C563 C 0.94012 0.16364 0.98357 0.0
C564 C 0.94502 0.18315 0.94806 0.0
C565 C 0.92989 0.16021 0.0476 0.0
C566 C 0.92511 0.17653 0.07686 0.0
C567 C 0.93391 0.19771 0.04739 0.0
C568 C 0.94406 0.20111 0.98323 0.0
C569 C 0.90707 0.16972 0.12814 0.0
C570 C 0.88668 0.1705 0.10927 0.0
C571 C 0.9087 0.16049 0.1914 0.0
C572 C 0.93004 0.1599 0.21504 0.0
C573 C 0.95203 0.18008 0.22251 0.0
C574 C 0.97202 0.17944 0.2458 0.0
C575 C 0.97023 0.15871 0.26178 0.0
C576 C 0.94842 0.13861 0.25486 0.0
C577 C 0.92838 0.13916 0.23171 0.0
H578 H 0.98571 0.1582 0.27952 0.0
H579 H 0.79215 0.16799 0.06794 0.0
H580 H 0.8335 0.63544 0.39196 0.0
H581 H 0.83908 0.62851 0.26965 0.0
H582 H 0.89076 0.61095 0.34074 0.0
H583 H 0.88219 0.61412 0.45981 0.0
H584 H 0.8723 0.65478 0.21955 0.0
H585 H 0.91765 0.59804 0.22568 0.0
H586 H 0.90737 0.55928 0.25573 0.0
H587 H 0.83417 0.53843 0.24051 0.0
H588 H 0.8439 0.57693 0.20947 0.0
H589 H 0.95972 0.70939 0.01099 0.0
H590 H 0.94368 0.69031 0.11838 0.0
H591 H 0.91366 0.62486 0.0033 0.0
H592 H 0.93277 0.64383 0.90066 0.0
H593 H 0.91271 0.61602 0.12363 0.0
H594 H 0.88633 0.65952 0.00639 0.0
H595 H 0.88877 0.69324 0.95338 0.0
H596 H 0.90767 0.72929 0.15556 0.0
H597 H 0.906 0.69608 0.20951 0.0
C598 C 0.8448 0.62861 0.38045 0.0
C599 C 0.8575 0.62537 0.43447 0.0
C600 C 0.8483 0.62493 0.31075 0.0
C601 C 0.8659 0.61977 0.29488 0.0
C602 C 0.8767 0.61435 0.34964 0.0
C603 C 0.872 0.61649 0.41862 0.0
C604 C 0.87707 0.6256 0.22676 0.0
C605 C 0.88061 0.64583 0.1983 0.0
C606 C 0.88757 0.61387 0.19611 0.0
C607 C 0.88156 0.59053 0.21502 0.0
C608 C 0.89933 0.58518 0.22805 0.0
C609 C 0.8936 0.56323 0.24552 0.0
C610 C 0.87013 0.5464 0.25003 0.0
C611 C 0.85235 0.55149 0.23709 0.0
C612 C 0.85798 0.57341 0.21961 0.0
C613 C 0.9511 0.69095 0.01036 0.0
C614 C 0.94686 0.67798 0.94746 0.0
C615 C 0.94148 0.68001 0.07112 0.0
C616 C 0.9261 0.65622 0.06755 0.0
C617 C 0.92488 0.64325 0.00734 0.0
C618 C 0.93578 0.65415 0.94822 0.0
C619 C 0.90855 0.64546 0.12057 0.0
C620 C 0.90381 0.62439 0.14503 0.0
C621 C 0.8954 0.65537 0.14397 0.0
C622 C 0.8962 0.67536 0.11187 0.0
C623 C 0.89109 0.67468 0.03946 0.0
C624 C 0.89236 0.6937 0.00925 0.0
C625 C 0.89833 0.71335 0.05107 0.0
C626 C 0.90307 0.71405 0.12321 0.0
C627 C 0.902 0.69516 0.15363 0.0
H628 H 0.89928 0.72804 0.02757 0.0
H629 H 0.86574 0.52942 0.26357 0.0
H630 H 0.17907 0.33814 0.30044 0.0
H631 H 0.16095 0.36138 0.2811 0.0
H632 H 0.21638 0.40377 0.14984 0.0
H633 H 0.23491 0.3809 0.17002 0.0
H634 H 0.20503 0.42922 0.23155 0.0
H635 H 0.16363 0.36174 0.07786 0.0
H636 H 0.14181 0.3203 0.04741 0.0
H637 H 0.0876 0.31221 0.18056 0.0
H638 H 0.10928 0.35359 0.21259 0.0
H639 H 0.14368 0.47437 0.03957 0.0
H640 H 0.16536 0.45549 0.07623 0.0
H641 H 0.1119 0.41639 0.21735 0.0
H642 H 0.09021 0.43522 0.18096 0.0
H643 H 0.12247 0.38973 0.13281 0.0
H644 H 0.16408 0.45839 0.28217 0.0
H645 H 0.18636 0.49999 0.30937 0.0
H646 H 0.2405 0.50612 0.1791 0.0
H647 H 0.21837 0.46457 0.1503 0.0
C648 C 0.18752 0.3525 0.26786 0.0
C649 C 0.20833 0.35754 0.23626 0.0
C650 C 0.1771 0.36573 0.25671 0.0
C651 C 0.18711 0.38407 0.21308 0.0
C652 C 0.20833 0.38966 0.18355 0.0
C653 C 0.21886 0.37652 0.19501 0.0
C654 C 0.17496 0.39685 0.19607 0.0
C655 C 0.18706 0.42063 0.20926 0.0
C656 C 0.1514 0.38558 0.1679 0.0
C657 C 0.1382 0.36073 0.14817 0.0
C658 C 0.14714 0.3511 0.10103 0.0
C659 C 0.13478 0.32763 0.08343 0.0
C660 C 0.11336 0.31362 0.11219 0.0
C661 C 0.10421 0.32308 0.15841 0.0
C662 C 0.11651 0.34654 0.17627 0.0
C663 C 0.13673 0.46193 0.07898 0.0
C664 C 0.1153 0.45621 0.10747 0.0
C665 C 0.14913 0.45121 0.09998 0.0
C666 C 0.14026 0.43461 0.1497 0.0
C667 C 0.11903 0.42916 0.17893 0.0
C668 C 0.10671 0.43996 0.15828 0.0
C669 C 0.15248 0.42208 0.16865 0.0
C670 C 0.1404 0.39831 0.15545 0.0
C671 C 0.17609 0.43341 0.19618 0.0
C672 C 0.18945 0.45839 0.21353 0.0
C673 C 0.18064 0.46863 0.25883 0.0
C674 C 0.19326 0.4922 0.27464 0.0
C675 C 0.2148 0.5057 0.24584 0.0
C676 C 0.2238 0.49565 0.2013 0.0
C677 C 0.21123 0.47208 0.18527 0.0
H678 H 0.22455 0.52394 0.25815 0.0
H679 H 0.10383 0.29545 0.09853 0.0
H680 H 0.60813 0.58556 0.24768 0.0
H681 H 0.62451 0.62567 0.28903 0.0
H682 H 0.65144 0.64693 0.08647 0.0
H683 H 0.63503 0.60705 0.04492 0.0
H684 H 0.68465 0.67053 0.19576 0.0
H685 H 0.60487 0.64919 0.12815 0.0
H686 H 0.56178 0.62579 0.12926 0.0
H687 H 0.56591 0.6422 0.34998 0.0
H688 H 0.60908 0.66545 0.35035 0.0
H689 H 0.68405 0.78287 0.23674 0.0
H690 H 0.66238 0.74163 0.20921 0.0
H691 H 0.70587 0.73339 0.36595 0.0
H692 H 0.72787 0.77457 0.39305 0.0
H693 H 0.63691 0.70313 0.28061 0.0
H694 H 0.71938 0.69495 0.30034 0.0
H695 H 0.76228 0.71932 0.29519 0.0
H696 H 0.75216 0.76282 0.15801 0.0
H697 H 0.70921 0.73855 0.16166 0.0
C698 C 0.61741 0.59883 0.212 0.0
C699 C 0.62032 0.59328 0.14317 0.0
C700 C 0.62671 0.62167 0.23557 0.0
C701 C 0.63915 0.63923 0.19071 0.0
C702 C 0.64194 0.63364 0.1219 0.0
C703 C 0.63248 0.61086 0.09819 0.0
C704 C 0.6498 0.66351 0.21556 0.0
C705 C 0.67421 0.67762 0.21458 0.0
C706 C 0.63615 0.67277 0.23956 0.0
C707 C 0.61021 0.65885 0.23941 0.0
C708 C 0.5966 0.64764 0.17704 0.0
C709 C 0.57217 0.63444 0.17737 0.0
C710 C 0.56112 0.63246 0.23969 0.0
C711 C 0.57449 0.64372 0.30177 0.0
C712 C 0.59894 0.65693 0.30173 0.0
C713 C 0.68881 0.77227 0.26603 0.0
C714 C 0.70789 0.78205 0.31643 0.0
C715 C 0.67634 0.74869 0.25039 0.0
C716 C 0.68274 0.73451 0.28481 0.0
C717 C 0.70088 0.74408 0.33801 0.0
C718 C 0.71343 0.76764 0.35343 0.0
C719 C 0.67175 0.71007 0.26123 0.0
C720 C 0.64733 0.69595 0.26241 0.0
C721 C 0.68535 0.70081 0.2366 0.0
C722 C 0.71111 0.71504 0.23182 0.0
C723 C 0.72632 0.70963 0.26874 0.0
C724 C 0.75064 0.72345 0.26617 0.0
C725 C 0.75994 0.74265 0.22649 0.0
C726 C 0.74494 0.74799 0.1889 0.0
C727 C 0.72061 0.73421 0.19123 0.0
H728 H 0.77877 0.75337 0.2248 0.0
H729 H 0.5422 0.62223 0.23984 0.0
H730 H 0.48311 0.98951 0.2329 0.0
H731 H 0.44301 0.96606 0.26796 0.0
H732 H 0.43246 0.91171 0.12044 0.0
H733 H 0.47249 0.93548 0.08375 0.0
H734 H 0.39537 0.91709 0.11388 0.0
H735 H 0.44152 0.90953 0.29956 0.0
H736 H 0.47356 0.92355 0.39206 0.0
H737 H 0.44457 0.95894 0.50164 0.0
H738 H 0.4125 0.94537 0.40932 0.0
H739 H 0.28823 0.83497 0.2462 0.0
H740 H 0.32953 0.85424 0.2191 0.0
H741 H 0.34287 0.9136 0.34689 0.0
H742 H 0.30168 0.8945 0.37447 0.0
H743 H 0.37853 0.90355 0.36377 0.0
H744 H 0.33372 0.91272 0.17644 0.0
H745 H 0.30163 0.8991 0.08429 0.0
H746 H 0.32829 0.86104 0.97775 0.0
H747 H 0.36032 0.87409 0.07005 0.0
C748 C 0.47225 0.97253 0.20812 0.0
C749 C 0.48088 0.96424 0.15586 0.0
C750 C 0.44937 0.95909 0.22841 0.0
C751 C 0.4348 0.93695 0.19766 0.0
C752 C 0.44339 0.9287 0.14507 0.0
C753 C 0.46625 0.94224 0.12432 0.0
C754 C 0.41049 0.92262 0.21965 0.0
C755 C 0.39174 0.91379 0.16839 0.0
C756 C 0.40566 0.9187 0.29097 0.0
C757 C 0.4247 0.92656 0.34724 0.0
C758 C 0.44204 0.92039 0.34321 0.0
C759 C 0.4602 0.92825 0.39562 0.0
C760 C 0.46113 0.94217 0.45261 0.0
C761 C 0.44384 0.94817 0.45745 0.0
C762 C 0.42564 0.94037 0.40515 0.0
C763 C 0.30001 0.85198 0.26946 0.0
C764 C 0.2916 0.86325 0.31212 0.0
C765 C 0.32358 0.86301 0.25364 0.0
C766 C 0.33916 0.88545 0.2803 0.0
C767 C 0.3311 0.8963 0.32565 0.0
C768 C 0.30753 0.88537 0.34115 0.0
C769 C 0.36354 0.8981 0.25804 0.0
C770 C 0.38225 0.90666 0.30923 0.0
C771 C 0.36833 0.90179 0.18669 0.0
C772 C 0.34927 0.89417 0.13061 0.0
C773 C 0.33264 0.9013 0.13367 0.0
C774 C 0.31447 0.8937 0.08137 0.0
C775 C 0.31289 0.87917 0.02529 0.0
C776 C 0.32952 0.87226 0.0213 0.0
C777 C 0.34768 0.87975 0.07359 0.0
H778 H 0.29881 0.87331 0.98485 0.0
H779 H 0.47523 0.94826 0.49308 0.0
H780 H 0.57764 0.10198 0.03495 0.0
H781 H 0.55826 0.12306 0.99802 0.0
H782 H 0.49069 0.06356 0.02244 0.0
H783 H 0.50969 0.04298 0.06194 0.0
H784 H 0.53092 0.11657 0.889 0.0
H785 H 0.45075 0.0729 0.05559 0.0
H786 H 0.44142 0.05944 0.17469 0.0
H787 H 0.51155 0.10898 0.25264 0.0
H788 H 0.52117 0.12287 0.1341 0.0
H789 H 0.43754 0.12108 0.72131 0.0
H790 H 0.4613 0.10844 0.78464 0.0
H791 H 0.47032 0.15338 0.96295 0.0
H792 H 0.44599 0.16576 0.90032 0.0
H793 H 0.46434 0.11473 0.0065 0.0
H794 H 0.51418 0.16777 0.84716 0.0
H795 H 0.52573 0.1845 0.73292 0.0
H796 H 0.52168 0.123 0.64976 0.0
H797 H 0.50977 0.10576 0.76322 0.0
C798 C 0.55868 0.09358 0.03373 0.0
C799 C 0.54528 0.07081 0.05181 0.0
C800 C 0.54761 0.10562 0.01237 0.0
C801 C 0.52297 0.09508 0.00848 0.0
C802 C 0.5097 0.07241 0.02702 0.0
C803 C 0.52068 0.06055 0.04918 0.0
C804 C 0.51084 0.10692 0.98051 0.0
C805 C 0.51653 0.11637 0.91508 0.0
C806 C 0.4923 0.10709 0.01481 0.0
C807 C 0.48661 0.09895 0.08619 0.0
C808 C 0.4641 0.081 0.09831 0.0
C809 C 0.45879 0.07326 0.16563 0.0
C810 C 0.47588 0.08336 0.22121 0.0
C811 C 0.49832 0.10119 0.20955 0.0
C812 C 0.50372 0.10899 0.14232 0.0
C813 C 0.44449 0.12826 0.77408 0.0
C814 C 0.44008 0.14466 0.8054 0.0
C815 C 0.45819 0.12108 0.81016 0.0
C816 C 0.46814 0.13039 0.87794 0.0
C817 C 0.46303 0.14611 0.91046 0.0
C818 C 0.44912 0.15317 0.87455 0.0
C819 C 0.48404 0.12382 0.91416 0.0
C820 C 0.47899 0.1153 0.98097 0.0
C821 C 0.50357 0.12505 0.88183 0.0
C822 C 0.51094 0.13542 0.81361 0.0
C823 C 0.51562 0.15776 0.80439 0.0
C824 C 0.52224 0.16734 0.73978 0.0
C825 C 0.5244 0.15481 0.68408 0.0
C826 C 0.51999 0.13269 0.69294 0.0
C827 C 0.51333 0.12301 0.75742 0.0
H828 H 0.52952 0.16226 0.63409 0.0
H829 H 0.47173 0.07735 0.2733 0.0
H830 H 0.95359 0.23205 0.74539 0.0
H831 H 0.97281 0.27004 0.80598 0.0
H832 H 0.90713 0.2695 0.79364 0.0
H833 H 0.88781 0.23142 0.73376 0.0
H834 H 0.97842 0.30864 0.75779 0.0
H835 H 0.90568 0.30047 0.93741 0.0
H836 H 0.87432 0.27087 0.00286 0.0
H837 H 0.91194 0.23459 0.0149 0.0
H838 H 0.9437 0.26415 0.95064 0.0
H839 H 0.99389 0.41731 0.86164 0.0
H840 H 0.97461 0.37685 0.82122 0.0
H841 H 0.99882 0.36186 0.01374 0.0
H842 H 0.01867 0.40234 0.05356 0.0
H843 H 0.95063 0.32979 0.9691 0.0
H844 H 0.02752 0.36532 0.8888 0.0
H845 H 0.06262 0.39181 0.82913 0.0
H846 H 0.02244 0.37055 0.63136 0.0
H847 H 0.98688 0.34443 0.69016 0.0
C848 C 0.94322 0.23995 0.75633 0.0
C849 C 0.91924 0.22885 0.73489 0.0
C850 C 0.95422 0.26166 0.7907 0.0
C851 C 0.94139 0.27256 0.80464 0.0
C852 C 0.91732 0.2613 0.78422 0.0
C853 C 0.90633 0.23962 0.74971 0.0
C854 C 0.95339 0.29619 0.83711 0.0
C855 C 0.9723 0.31327 0.80388 0.0
C856 C 0.94576 0.30208 0.89836 0.0
C857 C 0.92698 0.28446 0.93854 0.0
C858 C 0.90733 0.28626 0.95436 0.0
C859 C 0.88947 0.26947 0.99122 0.0
C860 C 0.89111 0.25083 0.01283 0.0
C861 C 0.91066 0.249 0.99793 0.0
C862 C 0.92858 0.26576 0.96122 0.0
C863 C 0.99475 0.40531 0.89576 0.0
C864 C 1.00767 0.4129 0.96084 0.0
C865 C 0.98389 0.38227 0.87246 0.0
C866 C 0.98539 0.36643 0.91446 0.0
C867 C 0.99745 0.37383 0.98066 0.0
C868 C 0.00877 0.39692 0.00325 0.0
C869 C 0.97513 0.34229 0.88822 0.0
C870 C 0.9566 0.32514 0.92271 0.0
C871 C 0.98347 0.33621 0.82904 0.0
C872 C 1.00442 0.35312 0.79414 0.0
C873 C 0.02602 0.36662 0.83281 0.0
C874 C 0.04605 0.38148 0.79906 0.0
C875 C 0.04478 0.38279 0.72647 0.0
C876 C 0.02342 0.36943 0.68756 0.0
C877 C 1.00329 0.35469 0.72114 0.0
H878 H 0.06033 0.39425 0.70039 0.0
H879 H 0.87724 0.23785 0.04123 0.0
H880 H 0.8587 0.65566 0.90121 0.0
H881 H 0.82299 0.63463 0.96325 0.0
H882 H 0.78403 0.60115 0.76736 0.0
H883 H 0.81949 0.62283 0.70476 0.0
H884 H 0.75839 0.61148 0.84783 0.0
H885 H 0.80623 0.57549 0.88438 0.0
H886 H 0.84336 0.57747 0.92329 0.0
H887 H 0.83893 0.60139 0.12954 0.0
H888 H 0.80202 0.59967 0.09193 0.0
H889 H 0.67083 0.50495 0.00122 0.0
H890 H 0.71117 0.52747 0.96624 0.0
H891 H 0.7169 0.58805 0.06621 0.0
H892 H 0.67684 0.56582 0.10199 0.0
H893 H 0.75921 0.56348 0.03699 0.0
H894 H 0.73145 0.62376 0.93134 0.0
H895 H 0.69431 0.62366 0.90909 0.0
H896 H 0.65879 0.55205 0.84832 0.0
H897 H 0.69586 0.55193 0.86776 0.0
C898 C 0.84251 0.64401 0.87127 0.0
C899 C 0.84203 0.64087 0.79809 0.0
C900 C 0.82209 0.63187 0.90686 0.0
C901 C 0.80089 0.61591 0.87017 0.0
C902 C 0.80019 0.6133 0.79686 0.0
C903 C 0.82052 0.6257 0.76114 0.0
C904 C 0.7796 0.60131 0.90797 0.0
C905 C 0.75864 0.60097 0.88893 0.0
C906 C 0.77981 0.58764 0.96212 0.0
C907 C 0.80141 0.5875 0.98531 0.0
C908 C 0.8132 0.58111 0.93809 0.0
C909 C 0.83424 0.58222 0.95993 0.0
C910 C 0.84357 0.58956 0.02893 0.0
C911 C 0.83178 0.59567 0.07626 0.0
C912 C 0.81075 0.59456 0.05478 0.0
C913 C 0.68089 0.52293 0.01759 0.0
C914 C 0.67044 0.53365 0.05331 0.0
C915 C 0.704 0.53573 0.99795 0.0
C916 C 0.71684 0.55939 0.01319 0.0
C917 C 0.7072 0.56977 0.05398 0.0
C918 C 0.68422 0.55701 0.07407 0.0
C919 C 0.73829 0.57371 0.9764 0.0
C920 C 0.75911 0.57395 0.99557 0.0
C921 C 0.73801 0.58732 0.92244 0.0
C922 C 0.71637 0.58781 0.90181 0.0
C923 C 0.7158 0.60809 0.91213 0.0
C924 C 0.69474 0.60806 0.90021 0.0
C925 C 0.67416 0.58781 0.87809 0.0
C926 C 0.67469 0.56767 0.86618 0.0
C927 C 0.69575 0.56769 0.87712 0.0
H928 H 0.65783 0.58777 0.86968 0.0
H929 H 0.8599 0.59051 0.04572 0.0
H930 H 0.90409 0.62214 0.80353 0.0
H931 H 0.91823 0.59822 0.85459 0.0
H932 H 0.95983 0.60746 0.67705 0.0
H933 H 0.94575 0.63136 0.62622 0.0
H934 H 0.93468 0.56353 0.7035 0.0
H935 H 0.98517 0.63391 0.83729 0.0
H936 H 0.99719 0.66765 0.9176 0.0
H937 H 0.95962 0.62423 0.08042 0.0
H938 H 0.94707 0.59021 0.00074 0.0
H939 H 0.01167 0.52615 0.8213 0.0
H940 H 0.99347 0.54776 0.78109 0.0
H941 H 0.95259 0.53064 0.96302 0.0
H942 H 0.97094 0.50897 0.00381 0.0
H943 H 0.97417 0.57644 0.94025 0.0
H944 H 0.92592 0.50594 0.80621 0.0
H945 H 0.91776 0.47287 0.72775 0.0
H946 H 0.95332 0.51751 0.56521 0.0
H947 H 0.96199 0.55089 0.64304 0.0
C948 C 0.9166 0.61937 0.77624 0.0
C949 C 0.92413 0.6288 0.71158 0.0
C950 C 0.92462 0.60569 0.8053 0.0
C951 C 0.94025 0.60119 0.76993 0.0
C952 C 0.94782 0.61073 0.70535 0.0
C953 C 0.93981 0.62439 0.67641 0.0
C954 C 0.94775 0.58557 0.79792 0.0
C955 C 0.94352 0.56651 0.75504 0.0
C956 C 0.95862 0.58902 0.86607 0.0
C957 C 0.96498 0.60949 0.91274 0.0
C958 C 0.9792 0.63154 0.88989 0.0
C959 C 0.98625 0.65072 0.93548 0.0
C960 C 0.97935 0.64808 0.00424 0.0
C961 C 0.96513 0.62625 0.02732 0.0
C962 C 0.95799 0.60702 0.98191 0.0
C963 C 0.9986 0.52677 0.85232 0.0
C964 C 0.99263 0.51585 0.91551 0.0
C965 C 0.98818 0.53908 0.82923 0.0
C966 C 0.97154 0.54068 0.8688 0.0
C967 C 0.96535 0.52958 0.93167 0.0
C968 C 0.97573 0.51713 0.95468 0.0
C969 C 0.96141 0.5547 0.84538 0.0
C970 C 0.96507 0.57338 0.88908 0.0
C971 C 0.95012 0.551 0.77791 0.0
C972 C 0.94475 0.53094 0.73068 0.0
C973 C 0.93214 0.50872 0.7539 0.0
C974 C 0.9274 0.48992 0.70951 0.0
C975 C 0.93506 0.49309 0.64159 0.0
C976 C 0.94741 0.51508 0.61785 0.0
C977 C 0.95222 0.53395 0.66205 0.0
H978 H 0.93138 0.47851 0.60731 0.0
H979 H 0.98481 0.66295 0.03943 0.0
H980 H 0.56434 0.42304 0.84944 0.0
H981 H 0.54139 0.38361 0.80087 0.0
H982 H 0.54535 0.35951 0.00386 0.0
H983 H 0.56872 0.3991 0.0526 0.0
H984 H 0.54953 0.3338 0.89936 0.0
H985 H 0.49719 0.3605 0.9515 0.0
H986 H 0.48203 0.38709 0.95056 0.0
H987 H 0.47093 0.37741 0.72644 0.0
H988 H 0.48642 0.35105 0.72591 0.0
H989 H 0.45291 0.22123 0.81462 0.0
H990 H 0.47738 0.25956 0.87122 0.0
H991 H 0.48043 0.28889 0.67266 0.0
H992 H 0.45582 0.25058 0.61588 0.0
H993 H 0.4718 0.31111 0.78222 0.0
H994 H 0.52589 0.28468 0.7338 0.0
H995 H 0.54028 0.25753 0.73962 0.0
H996 H 0.54648 0.26576 0.96434 0.0
H997 H 0.5318 0.29274 0.95986 0.0
C998 C 0.56062 0.40935 0.88347 0.0
C999 C 0.56814 0.41406 0.95482 0.0
C1000 C 0.54741 0.38683 0.85577 0.0
C1001 C 0.54128 0.36863 0.89908 0.0
C1002 C 0.5498 0.37331 0.96964 0.0
C1003 C 0.56312 0.39589 0.99738 0.0
C1004 C 0.52505 0.34484 0.87116 0.0
C1005 C 0.53241 0.32875 0.8746 0.0
C1006 C 0.50275 0.33828 0.83855 0.0
C1007 C 0.49317 0.35395 0.83862 0.0
C1008 C 0.49168 0.36416 0.90195 0.0
C1009 C 0.48301 0.37918 0.9017 0.0
C1010 C 0.47557 0.38397 0.83847 0.0
C1011 C 0.47673 0.3737 0.77538 0.0
C1012 C 0.48544 0.35871 0.77532 0.0
C1013 C 0.45869 0.23588 0.78318 0.0
C1014 C 0.45254 0.23301 0.71088 0.0
C1015 C 0.47275 0.25773 0.81548 0.0
C1016 C 0.48088 0.27704 0.77597 0.0
C1017 C 0.47434 0.27419 0.70402 0.0
C1018 C 0.46038 0.25235 0.67164 0.0
C1019 C 0.49646 0.30023 0.80928 0.0
C1020 C 0.48891 0.31617 0.80712 0.0
C1021 C 0.51843 0.30654 0.84381 0.0
C1022 C 0.52753 0.29055 0.84651 0.0
C1023 C 0.53017 0.28058 0.78447 0.0
C1024 C 0.5384 0.26524 0.78752 0.0
C1025 C 0.54423 0.25987 0.85231 0.0
C1026 C 0.54192 0.2699 0.91419 0.0
C1027 C 0.53367 0.28524 0.91142 0.0
H1028 H 0.55059 0.24798 0.85457 0.0
H1029 H 0.46886 0.3956 0.83838 0.0
H1030 H 0.86229 0.153 0.90228 0.0
H1031 H 0.82787 0.14306 0.96988 0.0
H1032 H 0.78665 0.13419 0.77851 0.0
H1033 H 0.82055 0.14388 0.71097 0.0
H1034 H 0.7808 0.15979 0.88375 0.0
H1035 H 0.78371 0.09026 0.85247 0.0
H1036 H 0.80187 0.06645 0.86595 0.0
H1037 H 0.80267 0.0743 0.08982 0.0
H1038 H 0.78463 0.09823 0.07766 0.0
H1039 H 0.66025 0.08838 0.92387 0.0
H1040 H 0.70107 0.10631 0.8923 0.0
H1041 H 0.72341 0.10556 0.10659 0.0
H1042 H 0.68249 0.0876 0.13849 0.0
H1043 H 0.74297 0.08924 0.01335 0.0
H1044 H 0.73667 0.15558 0.04518 0.0
H1045 H 0.71876 0.17966 0.03236 0.0
H1046 H 0.72422 0.17763 0.80968 0.0
H1047 H 0.74187 0.15327 0.82103 0.0
C1048 C 0.84587 0.1489 0.87464 0.0
C1049 C 0.84416 0.1491 0.80104 0.0
C1050 C 0.82625 0.14325 0.91338 0.0
C1051 C 0.80471 0.13786 0.87913 0.0
C1052 C 0.80312 0.13836 0.806 0.0
C1053 C 0.82254 0.14378 0.76739 0.0
C1054 C 0.78342 0.13125 0.9181 0.0
C1055 C 0.7725 0.14434 0.912 0.0
C1056 C 0.77302 0.11149 0.95694 0.0
C1057 C 0.78344 0.09666 0.96418 0.0
C1058 C 0.78805 0.08719 0.90461 0.0
C1059 C 0.79822 0.07355 0.91199 0.0
C1060 C 0.80361 0.06902 0.9787 0.0
C1061 C 0.79865 0.07795 0.03815 0.0
C1062 C 0.78846 0.09158 0.03102 0.0
C1063 C 0.67389 0.0923 0.96439 0.0
C1064 C 0.66824 0.08671 0.03363 0.0
C1065 C 0.69722 0.10258 0.94638 0.0
C1066 C 0.71534 0.10743 0.99722 0.0
C1067 C 0.70973 0.10201 0.0666 0.0
C1068 C 0.68639 0.09187 0.08476 0.0
C1069 C 0.73992 0.11734 0.97666 0.0
C1070 C 0.75149 0.10493 0.98634 0.0
C1071 C 0.75099 0.13774 0.94114 0.0
C1072 C 0.74045 0.15246 0.93395 0.0
C1073 C 0.7339 0.16013 0.99342 0.0
C1074 C 0.72382 0.17386 0.98642 0.0
C1075 C 0.72032 0.18014 0.92023 0.0
C1076 C 0.72694 0.17274 0.86091 0.0
C1077 C 0.73701 0.159 0.86761 0.0
H1078 H 0.71251 0.19076 0.91493 0.0
H1079 H 0.81149 0.05847 0.98432 0.0
H1080 H 0.57044 0.95552 0.16572 0.0
H1081 H 0.58769 0.93164 0.18741 0.0
H1082 H 0.64864 0.97761 0.08023 0.0
H1083 H 0.63147 1.00158 0.05773 0.0
H1084 H 0.63296 0.93232 0.04357 0.0
H1085 H 0.6506 0.98024 0.25578 0.0
H1086 H 0.64056 0.99665 0.35636 0.0
H1087 H 0.59694 0.92961 0.42767 0.0
H1088 H 0.60644 0.91276 0.32687 0.0
H1089 H 0.71585 0.90262 0.17137 0.0
H1090 H 0.69294 0.92 0.13341 0.0
H1091 H 0.63798 0.87691 0.26518 0.0
H1092 H 0.66112 0.85975 0.30408 0.0
H1093 H 0.64836 0.91892 0.2881 0.0
H1094 H 0.62771 0.87015 0.07934 0.0
H1095 H 0.63227 0.85147 0.97312 0.0
H1096 H 0.67796 0.91696 0.89498 0.0
H1097 H 0.67343 0.93602 0.0004 0.0
C1098 C 0.58746 0.96053 0.14634 0.0
C1099 C 0.59964 0.98054 0.11028 0.0
C1100 C 0.59732 0.94688 0.15906 0.0
C1101 C 0.61955 0.95303 0.13619 0.0
C1102 C 0.63147 0.97263 0.09848 0.0
C1103 C 0.62165 0.98632 0.08584 0.0
C1104 C 0.63058 0.93922 0.15258 0.0
C1105 C 0.63662 0.9296 0.09703 0.0
C1106 C 0.63456 0.93506 0.2223 0.0
C1107 C 0.62906 0.94522 0.28338 0.0
C1108 C 0.63873 0.96898 0.29262 0.0
C1109 C 0.63316 0.97837 0.34971 0.0
C1110 C 0.61808 0.96418 0.39828 0.0
C1111 C 0.6086 0.94058 0.38996 0.0
C1112 C 0.61408 0.9311 0.33288 0.0
C1113 C 0.69872 0.89662 0.19133 0.0
C1114 C 0.69024 0.8799 0.24068 0.0
C1115 C 0.68556 0.90647 0.16932 0.0
C1116 C 0.66361 0.89965 0.19595 0.0
C1117 C 0.65485 0.88244 0.24385 0.0
C1118 C 0.66805 0.87264 0.26601 0.0
C1119 C 0.6509 0.91195 0.17895 0.0
C1120 C 0.64462 0.92146 0.23452 0.0
C1121 C 0.64642 0.91576 0.10922 0.0
C1122 C 0.65038 0.90448 0.04793 0.0
C1123 C 0.63888 0.88055 0.03976 0.0
C1124 C 0.64128 0.8699 0.97942 0.0
C1125 C 0.65532 0.88302 0.92721 0.0
C1126 C 0.66703 0.90682 0.93533 0.0
C1127 C 0.66447 0.91755 0.9952 0.0
H1128 H 0.65723 0.87474 0.88067 0.0
H1129 H 0.61377 0.97148 0.44244 0.0
H1130 H 0.16796 0.73014 0.33059 0.0
H1131 H 0.15275 0.69059 0.28804 0.0
H1132 H 0.19717 0.71367 0.11402 0.0
H1133 H 0.21161 0.75339 0.155 0.0
H1134 H 0.15701 0.68165 0.06776 0.0
H1135 H 0.20852 0.68893 0.25994 0.0
H1136 H 0.22613 0.69838 0.38114 0.0
H1137 H 0.16018 0.64897 0.45651 0.0
H1138 H 0.14206 0.63945 0.3359 0.0
H1139 H 0.12953 0.55507 0.09913 0.0
H1140 H 0.1538 0.59594 0.13159 0.0
H1141 H 0.09658 0.60575 0.06338 0.0
H1142 H 0.07257 0.56524 0.02899 0.0
H1143 H 0.14956 0.62197 0.22459 0.0
H1144 H 0.11557 0.6572 0.00359 0.0
H1145 H 0.10188 0.64798 0.87866 0.0
H1146 H 0.14065 0.61324 0.85374 0.0
H1147 H 0.15484 0.62252 0.97823 0.0
C1148 C 0.17454 0.72675 0.28345 0.0
C1149 C 0.19097 0.74475 0.24609 0.0
C1150 C 0.16597 0.70413 0.25939 0.0
C1151 C 0.1741 0.69905 0.19843 0.0
C1152 C 0.19065 0.71711 0.16125 0.0
C1153 C 0.19894 0.73977 0.18472 0.0
C1154 C 0.16453 0.67494 0.17204 0.0
C1155 C 0.15554 0.66865 0.10204 0.0
C1156 C 0.16306 0.65795 0.21608 0.0
C1157 C 0.17389 0.66362 0.28883 0.0
C1158 C 0.19772 0.6802 0.3024 0.0
C1159 C 0.2078 0.68555 0.37101 0.0
C1160 C 0.19427 0.67432 0.4265 0.0
C1161 C 0.17063 0.65767 0.41349 0.0
C1162 C 0.16046 0.65228 0.34499 0.0
C1163 C 0.1222 0.56598 0.09045 0.0
C1164 C 0.09915 0.55689 0.06112 0.0
C1165 C 0.13608 0.58933 0.10921 0.0
C1166 C 0.12715 0.60401 0.09909 0.0
C1167 C 0.10409 0.59491 0.07018 0.0
C1168 C 0.09031 0.57166 0.05084 0.0
C1169 C 0.14151 0.62869 0.12106 0.0
C1170 C 0.15132 0.63505 0.1902 0.0
C1171 C 0.14435 0.64582 0.07569 0.0
C1172 C 0.13612 0.64042 0.00045 0.0
C1173 C 0.12128 0.6477 0.97138 0.0
C1174 C 0.1134 0.64244 0.90065 0.0
C1175 C 0.12034 0.62999 0.85834 0.0
C1176 C 0.13523 0.62282 0.88662 0.0
C1177 C 0.14317 0.62805 0.95729 0.0
H1178 H 0.11421 0.62592 0.80361 0.0
H1179 H 0.20211 0.67849 0.47958 0.0
H1180 H 0.52177 0.50265 0.11921 0.0
H1181 H 0.47965 0.48318 0.1352 0.0
H1182 H 0.47091 0.42199 0.0298 0.0
H1183 H 0.51295 0.44131 0.01295 0.0
H1184 H 0.43579 0.4315 0.99036 0.0
H1185 H 0.4757 0.42843 0.20334 0.0
H1186 H 0.50599 0.44715 0.30048 0.0
H1187 H 0.47263 0.48374 0.37252 0.0
H1188 H 0.44264 0.46595 0.27392 0.0
H1189 H 0.32533 0.34893 0.10366 0.0
H1190 H 0.36587 0.37218 0.07173 0.0
H1191 H 0.37476 0.42744 0.21224 0.0
H1192 H 0.33435 0.40391 0.24568 0.0
H1193 H 0.41025 0.42247 0.23335 0.0
H1194 H 0.37656 0.4338 0.02237 0.0
H1195 H 0.35215 0.42578 0.91252 0.0
H1196 H 0.37414 0.37967 0.8367 0.0
H1197 H 0.3992 0.38795 0.94546 0.0
C1198 C 0.51089 0.48513 0.09876 0.0
C1199 C 0.5208 0.4735 0.06532 0.0
C1200 C 0.48683 0.47401 0.10817 0.0
C1201 C 0.47224 0.45105 0.08461 0.0
C1202 C 0.48189 0.43968 0.04866 0.0
C1203 C 0.50596 0.45076 0.03931 0.0
C1204 C 0.4471 0.43858 0.09978 0.0
C1205 C 0.43015 0.42922 0.04348 0.0
C1206 C 0.43983 0.43637 0.1691 0.0
C1207 C 0.45704 0.44601 0.23075 0.0
C1208 C 0.47486 0.44054 0.23968 0.0
C1209 C 0.49201 0.45102 0.29498 0.0
C1210 C 0.49123 0.46662 0.34272 0.0
C1211 C 0.47323 0.47168 0.33543 0.0
C1212 C 0.45618 0.46145 0.27971 0.0
C1213 C 0.33589 0.36612 0.12723 0.0
C1214 C 0.32675 0.37462 0.17727 0.0
C1215 C 0.35904 0.37949 0.10851 0.0
C1216 C 0.37343 0.40174 0.1389 0.0
C1217 C 0.36408 0.41037 0.18796 0.0
C1218 C 0.34098 0.39693 0.20702 0.0
C1219 C 0.39866 0.41527 0.12364 0.0
C1220 C 0.41573 0.4247 0.1801 0.0
C1221 C 0.40609 0.418 0.05441 0.0
C1222 C 0.38947 0.41127 0.9922 0.0
C1223 C 0.37595 0.42175 0.98257 0.0
C1224 C 0.36223 0.41736 0.9202 0.0
C1225 C 0.3616 0.40223 0.86762 0.0
C1226 C 0.37468 0.39142 0.87738 0.0
C1227 C 0.38874 0.39605 0.93918 0.0
H1228 H 0.3509 0.39879 0.81947 0.0
H1229 H 0.50459 0.47482 0.3853 0.0
H1230 H 0.88053 0.69953 0.57315 0.0
H1231 H 0.86399 0.72083 0.51731 0.0
H1232 H 0.89311 0.77142 0.69087 0.0
H1233 H 0.9096 0.75022 0.74664 0.0
H1234 H 0.84646 0.75656 0.65635 0.0
H1235 H 0.91812 0.78275 0.53686 0.0
H1236 H 0.94555 0.77704 0.4669 0.0
H1237 H 0.89225 0.74401 0.2989 0.0
H1238 H 0.86438 0.74922 0.36832 0.0
H1239 H 0.82798 0.84242 0.52617 0.0
H1240 H 0.84629 0.8214 0.57253 0.0
H1241 H 0.82353 0.778 0.38211 0.0
H1242 H 0.80589 0.79938 0.33492 0.0
H1243 H 0.86601 0.78772 0.42198 0.0
H1244 H 0.79423 0.75928 0.53368 0.0
H1245 H 0.76335 0.75923 0.60221 0.0
H1246 H 0.81273 0.79145 0.77991 0.0
H1247 H 0.84399 0.79186 0.71224 0.0
C1248 C 0.88347 0.71525 0.59902 0.0
C1249 C 0.89632 0.72327 0.66408 0.0
C1250 C 0.8741 0.72743 0.56707 0.0
C1251 C 0.87744 0.74778 0.59982 0.0
C1252 C 0.89033 0.75577 0.66474 0.0
C1253 C 0.89979 0.74369 0.69642 0.0
C1254 C 0.86699 0.7605 0.56777 0.0
C1255 C 0.85099 0.76369 0.60556 0.0
C1256 C 0.87221 0.76895 0.5003 0.0
C1257 C 0.8891 0.7662 0.45807 0.0
C1258 C 0.9122 0.77414 0.48519 0.0
C1259 C 0.92784 0.77101 0.44561 0.0
C1260 C 0.92063 0.76012 0.37857 0.0
C1261 C 0.8978 0.75242 0.35087 0.0
C1262 C 0.88208 0.75548 0.39028 0.0
C1263 C 0.82707 0.8285 0.4942 0.0
C1264 C 0.81551 0.82247 0.42719 0.0
C1265 C 0.83735 0.8164 0.52084 0.0
C1266 C 0.83589 0.79782 0.48141 0.0
C1267 C 0.82486 0.79221 0.41362 0.0
C1268 C 0.81478 0.80444 0.38672 0.0
C1269 C 0.84569 0.78416 0.51117 0.0
C1270 C 0.8615 0.78069 0.4729 0.0
C1271 C 0.83995 0.77503 0.57774 0.0
C1272 C 0.82149 0.77575 0.61771 0.0
C1273 C 0.79857 0.76656 0.58715 0.0
C1274 C 0.78096 0.76634 0.62597 0.0
C1275 C 0.78604 0.77519 0.69551 0.0
C1276 C 0.80879 0.78446 0.72619 0.0
C1277 C 0.82646 0.78469 0.68763 0.0
H1278 H 0.77239 0.77503 0.72545 0.0
H1279 H 0.93275 0.75769 0.34804 0.0
H1280 H 0.34876 0.09353 0.75763 0.0
H1281 H 0.32511 0.05486 0.70352 0.0
H1282 H 0.33702 0.0817 0.49846 0.0
H1283 H 0.36017 0.12057 0.55265 0.0
H1284 H 0.29196 0.04911 0.50649 0.0
H1285 H 0.36692 0.05679 0.5628 0.0
H1286 H 0.40183 0.06599 0.63945 0.0
H1287 H 0.35864 0.01358 0.77411 0.0
H1288 H 0.32339 0.00433 0.69892 0.0
H1289 H 0.25328 0.94148 0.32197 0.0
H1290 H 0.27512 0.98112 0.36991 0.0
H1291 H 0.26676 0.95788 0.57965 0.0
H1292 H 0.24543 0.91824 0.53176 0.0
H1293 H 0.31087 0.98929 0.56501 0.0
H1294 H 0.23566 0.98237 0.5087 0.0
H1295 H 0.20098 0.97386 0.43194 0.0
H1296 H 0.24513 0.02505 0.29542 0.0
H1297 H 0.28012 0.03367 0.3709 0.0
C1298 C 0.34633 0.09118 0.70102 0.0
C1299 C 0.35645 0.10998 0.65925 0.0
C1300 C 0.3329 0.06908 0.67015 0.0
C1301 C 0.32958 0.06536 0.59689 0.0
C1302 C 0.33943 0.08418 0.55506 0.0
C1303 C 0.35278 0.10633 0.58601 0.0
C1304 C 0.31583 0.04179 0.56425 0.0
C1305 C 0.29627 0.03609 0.51846 0.0
C1306 C 0.32124 0.02473 0.58081 0.0
C1307 C 0.34248 0.02999 0.6255 0.0
C1308 C 0.36484 0.04732 0.609 0.0
C1309 C 0.3847 0.05254 0.65217 0.0
C1310 C 0.38245 0.04041 0.71168 0.0
C1311 C 0.36035 0.02298 0.72802 0.0
C1312 C 0.34043 0.01773 0.68512 0.0
C1313 C 0.25586 0.94487 0.3783 0.0
C1314 C 0.24767 0.92686 0.42324 0.0
C1315 C 0.26829 0.96752 0.40567 0.0
C1316 C 0.27246 0.97251 0.47846 0.0
C1317 C 0.2638 0.95446 0.52334 0.0
C1318 C 0.25153 0.93183 0.49599 0.0
C1319 C 0.28675 0.99646 0.50794 0.0
C1320 C 0.30652 1.00228 0.55296 0.0
C1321 C 0.28157 0.01362 0.4904 0.0
C1322 C 0.26053 0.0085 0.4451 0.0
C1323 C 0.23799 0.99169 0.46203 0.0
C1324 C 0.21827 0.98687 0.4188 0.0
C1325 C 0.22086 0.99887 0.35875 0.0
C1326 C 0.24316 0.01575 0.3419 0.0
C1327 C 0.26293 0.02062 0.38492 0.0
H1328 H 0.20557 0.99511 0.32535 0.0
H1329 H 0.39784 0.04449 0.74508 0.0
H1330 H 0.98691 0.19041 0.65072 0.0
H1331 H 0.02219 0.20248 0.58841 0.0
H1332 H 0.98531 0.20179 0.39634 0.0
H1333 H 0.94927 0.18894 0.45871 0.0
H1334 H 0.01404 0.18513 0.37261 0.0
H1335 H 0.02274 0.25205 0.48986 0.0
H1336 H 0.02255 0.27625 0.58853 0.0
H1337 H 0.07697 0.27076 0.70052 0.0
H1338 H 0.07723 0.24621 0.60302 0.0
H1339 H 0.12534 0.25345 0.21982 0.0
H1340 H 0.08574 0.23726 0.26131 0.0
H1341 H 0.11146 0.23073 0.4648 0.0
H1342 H 0.15123 0.24763 0.42435 0.0
H1343 H 0.08718 0.2532 0.47292 0.0
H1344 H 0.07568 0.1836 0.35678 0.0
H1345 H 0.07545 0.15959 0.25672 0.0
H1346 H 0.0266 0.17189 0.13891 0.0
H1347 H 0.02692 0.19632 0.23785 0.0
C1348 C 0.98616 0.19281 0.5952 0.0
C1349 C 0.9653 0.18905 0.55997 0.0
C1350 C 1.00645 0.19979 0.55961 0.0
C1351 C 1.00663 0.20364 0.48805 0.0
C1352 C 0.98565 0.19913 0.45176 0.0
C1353 C 0.96509 0.19185 0.48745 0.0
C1354 C 0.02899 0.21262 0.45249 0.0
C1355 C 0.02994 0.20026 0.39363 0.0
C1356 C 0.04987 0.23224 0.48051 0.0
C1357 C 0.04985 0.24711 0.53927 0.0
C1358 C 0.03454 0.25585 0.53574 0.0
C1359 C 0.03444 0.26966 0.59145 0.0
C1360 C 0.0497 0.275 0.65082 0.0
C1361 C 0.06514 0.26659 0.65453 0.0
C1362 C 0.06528 0.25274 0.59902 0.0
C1363 C 0.12247 0.24829 0.27317 0.0
C1364 C 0.14134 0.25186 0.31901 0.0
C1365 C 0.09983 0.23898 0.29672 0.0
C1366 C 0.09567 0.23289 0.36631 0.0
C1367 C 0.11437 0.2356 0.41121 0.0
C1368 C 0.13702 0.2451 0.38793 0.0
C1369 C 0.07234 0.22535 0.39421 0.0
C1370 C 0.07123 0.23815 0.45148 0.0
C1371 C 0.05137 0.20633 0.36424 0.0
C1372 C 0.05142 0.19188 0.30452 0.0
C1373 C 0.06505 0.18134 0.3093 0.0
C1374 C 0.06489 0.16764 0.25282 0.0
C1375 C 0.05105 0.16425 0.19144 0.0
C1376 C 0.03733 0.17454 0.18644 0.0
C1377 C 0.03748 0.1883 0.24271 0.0
H1378 H 0.05093 0.15361 0.14781 0.0
H1379 H 0.0496 0.28569 0.69389 0.0
H1380 H 0.36917 0.22019 0.6395 0.0
H1381 H 0.3456 0.23231 0.57232 0.0
H1382 H 0.33705 0.1858 0.39915 0.0
H1383 H 0.36138 0.1742 0.46527 0.0
H1384 H 0.34313 0.22301 0.34951 0.0
H1385 H 0.29252 0.17359 0.51458 0.0
H1386 H 0.28044 0.15882 0.63089 0.0
H1387 H 0.28598 0.22211 0.70183 0.0
H1388 H 0.2984 0.23738 0.58623 0.0
H1389 H 0.23082 0.23708 0.3091 0.0
H1390 H 0.25004 0.21642 0.35076 0.0
H1391 H 0.31766 0.27456 0.31689 0.0
H1392 H 0.29871 0.29478 0.27286 0.0
H1393 H 0.27735 0.22486 0.46027 0.0
H1394 H 0.35787 0.26241 0.29007 0.0
H1395 H 0.36702 0.27305 0.16847 0.0
H1396 H 0.2955 0.2255 0.09743 0.0
H1397 H 0.28602 0.21439 0.2185 0.0
C1398 C 0.36232 0.21256 0.58707 0.0
C1399 C 0.36701 0.19609 0.55798 0.0
C1400 C 0.34872 0.21942 0.54877 0.0
C1401 C 0.33903 0.2096 0.48116 0.0
C1402 C 0.34419 0.19356 0.45131 0.0
C1403 C 0.3581 0.18692 0.48924 0.0
C1404 C 0.32353 0.21606 0.44193 0.0
C1405 C 0.32867 0.22329 0.37367 0.0
C1406 C 0.30419 0.21585 0.47236 0.0
C1407 C 0.29655 0.20668 0.54185 0.0
C1408 C 0.29129 0.1844 0.55511 0.0
C1409 C 0.28437 0.17594 0.6209 0.0
C1410 C 0.28249 0.18953 0.67375 0.0
C1411 C 0.28746 0.2116 0.66085 0.0
C1412 C 0.29441 0.22016 0.59517 0.0
C1413 C 0.24975 0.24525 0.30913 0.0
C1414 C 0.26317 0.2676 0.28749 0.0
C1415 C 0.26074 0.23346 0.33327 0.0
C1416 C 0.28534 0.24379 0.33642 0.0
C1417 C 0.29866 0.2659 0.31342 0.0
C1418 C 0.28773 0.27755 0.28856 0.0
C1419 C 0.29733 0.23238 0.36863 0.0
C1420 C 0.29159 0.22428 0.43571 0.0
C1421 C 0.31564 0.23115 0.33633 0.0
C1422 C 0.32125 0.23762 0.26334 0.0
C1423 C 0.34413 0.25416 0.24844 0.0
C1424 C 0.34936 0.2603 0.17963 0.0
C1425 C 0.33184 0.24998 0.12526 0.0
C1426 C 0.30905 0.2335 0.13959 0.0
C1427 C 0.30374 0.22729 0.2083 0.0
H1428 H 0.33593 0.25474 0.07202 0.0
H1429 H 0.27714 0.18295 0.72466 0.0
H1430 H 0.83101 0.92513 0.42706 0.0
H1431 H 0.85285 0.96529 0.46948 0.0
H1432 H 0.79674 0.97448 0.38569 0.0
H1433 H 0.77508 0.93464 0.34173 0.0
H1434 H 0.8381 0.01124 0.36778 0.0
H1435 H 0.80054 0.96429 0.55739 0.0
H1436 H 0.79094 0.93268 0.6341 0.0
H1437 H 0.8636 0.96348 0.70489 0.0
H1438 H 0.8737 0.99508 0.62758 0.0
H1439 H 0.85826 0.1069 0.5951 0.0
H1440 H 0.84078 0.06885 0.5349 0.0
H1441 H 0.90296 0.06603 0.59363 0.0
H1442 H 0.92076 0.10421 0.65182 0.0
H1443 H 0.85974 0.02656 0.62323 0.0
H1444 H 0.89637 0.07465 0.43458 0.0
H1445 H 0.90489 0.10542 0.35544 0.0
H1446 H 0.83209 0.07214 0.28402 0.0
H1447 H 0.82304 0.04136 0.36376 0.0
C1448 C 0.82346 0.93576 0.41668 0.0
C1449 C 0.80115 0.92655 0.38166 0.0
C1450 C 0.83593 0.95871 0.44127 0.0
C1451 C 0.82622 0.97278 0.43198 0.0
C1452 C 0.80455 0.96394 0.39376 0.0
C1453 C 0.79214 0.94107 0.36886 0.0
C1454 C 0.83787 0.99628 0.46546 0.0
C1455 C 0.84262 0.01456 0.42372 0.0
C1456 C 0.844 1.00065 0.53842 0.0
C1457 C 0.83791 0.98194 0.58615 0.0
C1458 C 0.81449 0.96426 0.58901 0.0
C1459 C 0.80896 0.94634 0.63259 0.0
C1460 C 0.82666 0.94604 0.6742 0.0
C1461 C 0.84992 0.96372 0.67252 0.0
C1462 C 0.85556 0.98164 0.62884 0.0
C1463 C 0.86829 0.09828 0.59428 0.0
C1464 C 0.89092 0.10857 0.62763 0.0
C1465 C 0.85828 0.07656 0.56015 0.0
C1466 C 0.87063 0.0647 0.55978 0.0
C1467 C 0.89316 0.07491 0.59341 0.0
C1468 C 0.9033 0.09672 0.62648 0.0
C1469 C 0.85994 0.04144 0.52549 0.0
C1470 C 0.85528 0.02322 0.56724 0.0
C1471 C 0.85366 0.03711 0.45276 0.0
C1472 C 0.85899 0.05581 0.40568 0.0
C1473 C 0.88212 0.07403 0.40265 0.0
C1474 C 0.88706 0.09145 0.35755 0.0
C1475 C 0.86904 0.09072 0.31476 0.0
C1476 C 0.84602 0.07266 0.31722 0.0
C1477 C 0.84098 0.05523 0.36236 0.0
H1478 H 0.8729 0.10408 0.27942 0.0
H1479 H 0.82234 0.93214 0.70784 0.0
H1480 H 0.99004 0.71002 0.65478 0.0
H1481 H 0.02538 0.73264 0.59321 0.0
H1482 H 0.98396 0.73887 0.42469 0.0
H1483 H 0.94821 0.71546 0.48532 0.0
H1484 H 0.01598 0.73228 0.37184 0.0
H1485 H 0.01742 0.78371 0.54869 0.0
H1486 H 0.01508 0.79726 0.66766 0.0
H1487 H 0.07504 0.79294 0.7401 0.0
H1488 H 0.07754 0.77906 0.62178 0.0
H1489 H 0.14451 0.84045 0.37026 0.0
H1490 H 0.10361 0.82224 0.40066 0.0
H1491 H 0.09497 0.75607 0.34742 0.0
H1492 H 0.13546 0.77416 0.31461 0.0
H1493 H 0.08527 0.79727 0.50114 0.0
H1494 H 0.03854 0.71596 0.30836 0.0
H1495 H 0.03911 0.70518 0.18439 0.0
H1496 H 0.0674 0.7749 0.1332 0.0
H1497 H 0.06665 0.78606 0.25659 0.0
C1498 C 0.98839 0.71621 0.60468 0.0
C1499 C 0.96631 0.71108 0.57524 0.0
C1500 C 0.00867 0.72925 0.56957 0.0
C1501 C 1.00746 0.73792 0.50491 0.0
C1502 C 0.98537 0.73247 0.47464 0.0
C1503 C 0.96496 0.71912 0.5094 0.0
C1504 C 0.02934 0.75258 0.4694 0.0
C1505 C 0.03112 0.74656 0.39991 0.0
C1506 C 0.04889 0.7717 0.50516 0.0
C1507 C 0.04757 0.78021 0.5764 0.0
C1508 C 0.03003 0.78552 0.59008 0.0
C1509 C 0.02868 0.79327 0.6574 0.0
C1510 C 0.04488 0.79593 0.71142 0.0
C1511 C 0.0625 0.79088 0.6982 0.0
C1512 C 0.06391 0.7831 0.63099 0.0
C1513 C 0.13375 0.82204 0.36363 0.0
C1514 C 0.1433 0.80878 0.34014 0.0
C1515 C 0.11036 0.81163 0.38123 0.0
C1516 C 0.09605 0.78774 0.37619 0.0
C1517 C 0.10538 0.77452 0.35049 0.0
C1518 C 0.12866 0.78493 0.33202 0.0
C1519 C 0.07227 0.77655 0.4041 0.0
C1520 C 0.07012 0.78318 0.47245 0.0
C1521 C 0.05224 0.75845 0.36644 0.0
C1522 C 0.05272 0.75187 0.29198 0.0
C1523 C 0.04479 0.72899 0.27063 0.0
C1524 C 0.04516 0.72281 0.20044 0.0
C1525 C 0.05335 0.73935 0.151 0.0
C1526 C 0.06114 0.76211 0.1716 0.0
C1527 C 0.06078 0.76838 0.2417 0.0
H1528 H 0.05362 0.73453 0.09669 0.0
H1529 H 0.0438 0.80192 0.76351 0.0
loop_
_geom_bond_atom_site_label_1
_geom_bond_atom_site_label_2
_geom_bond_distance
_geom_bond_site_symmetry_2
_ccdc_geom_bond_type
Dy0 O4 2.398 1_554 S
Dy0 O5 2.491 . S
Dy0 O6 2.403 1_554 S
Dy0 O7 2.664 1_554 S
Dy0 O11 2.326 1_554 S
Dy0 O15 2.310 . S
Dy0 O16 2.351 . S
C1 O12 1.185 1_556 S
C1 O13 1.355 . S
C2 O4 1.185 1_554 S
C2 O5 1.355 . S
Dy3 O7 2.310 1_654 S
Dy3 O10 2.351 1_554 S
Dy3 O12 2.398 . S
Dy3 O13 2.491 1_554 S
Dy3 O14 2.403 . S
Dy3 O15 2.664 1_655 S
Dy3 O17 2.326 1_655 S
O4 Dy0 2.398 1_556 S
O4 C2 1.185 1_556 S
O5 Dy0 2.491 . S
O5 C2 1.355 . S
O6 Dy0 2.403 1_556 S
O6 C8 1.254 . S
O7 Dy0 2.664 1_556 S
O7 Dy3 2.310 1_456 S
O7 C8 1.268 . S
C8 O6 1.254 . S
C8 O7 1.268 . S
C9 O14 1.254 1_455 S
C9 O15 1.268 . S
O10 Dy3 2.351 1_556 S
O10 C18 1.284 . S
O11 Dy0 2.326 1_556 S
O11 C18 1.235 1_455 S
O12 C1 1.185 1_554 S
O12 Dy3 2.398 . S
O13 C1 1.355 . S
O13 Dy3 2.491 1_556 S
O14 Dy3 2.403 . S
O14 C9 1.254 1_655 S
O15 Dy0 2.310 . S
O15 Dy3 2.664 1_455 S
O15 C9 1.268 . S
O16 Dy0 2.351 . S
O16 C19 1.249 . S
O17 Dy3 2.326 1_455 S
O17 C19 1.267 . S
C18 O10 1.284 . S
C18 O11 1.235 1_655 S
C19 O16 1.249 . S
C19 O17 1.267 . S
Dy20 O24 2.398 . S
Dy20 O25 2.491 . S
Dy20 O26 2.403 1_554 S
Dy20 O27 2.664 . S
Dy20 O31 2.326 . S
Dy20 O35 2.310 . S
Dy20 O36 2.351 . S
C21 O32 1.185 . S
C21 O33 1.355 . S
C22 O24 1.185 . S
C22 O25 1.355 . S
Dy23 O27 2.310 . S
Dy23 O30 2.351 . S
Dy23 O32 2.398 . S
Dy23 O33 2.491 . S
Dy23 O34 2.403 . S
Dy23 O35 2.664 . S
Dy23 O37 2.326 . S
O24 Dy20 2.398 . S
O24 C22 1.185 . S
O25 Dy20 2.491 . S
O25 C22 1.355 . S
O26 Dy20 2.403 1_556 S
O26 C28 1.254 . S
O27 Dy20 2.664 . S
O27 Dy23 2.310 . S
O27 C28 1.268 1_554 S
C28 O26 1.254 . S
C28 O27 1.268 1_556 S
C29 O34 1.254 . S
C29 O35 1.268 . S
O30 Dy23 2.351 . S
O30 C38 1.249 . S
O31 Dy20 2.326 . S
O31 C38 1.267 . S
O32 C21 1.185 . S
O32 Dy23 2.398 . S
O33 C21 1.355 . S
O33 Dy23 2.491 . S
O34 Dy23 2.403 . S
O34 C29 1.254 . S
O35 Dy20 2.310 . S
O35 Dy23 2.664 . S
O35 C29 1.268 . S
O36 Dy20 2.351 . S
O36 C39 1.249 . S
O37 Dy23 2.326 . S
O37 C39 1.267 . S
C38 O30 1.249 . S
C38 O31 1.267 . S
C39 O36 1.249 . S
C39 O37 1.267 . S
Dy40 O44 2.398 . S
Dy40 O45 2.491 . S
Dy40 O46 2.403 . S
Dy40 O47 2.664 . S
Dy40 O51 2.326 . S
Dy40 O55 2.310 . S
Dy40 O56 2.351 . S
C41 O52 1.185 . S
C41 O53 1.355 . S
C42 O44 1.185 . S
C42 O45 1.355 . S
Dy43 O47 2.310 . S
Dy43 O50 2.351 . S
Dy43 O52 2.398 . S
Dy43 O53 2.491 . S
Dy43 O54 2.403 . S
Dy43 O55 2.664 . S
Dy43 O57 2.326 . S
O44 Dy40 2.398 . S
O44 C42 1.185 . S
O45 Dy40 2.491 . S
O45 C42 1.355 . S
O46 Dy40 2.403 . S
O46 C48 1.254 . S
O47 Dy40 2.664 . S
O47 Dy43 2.310 . S
O47 C48 1.268 . S
C48 O46 1.254 . S
C48 O47 1.268 . S
C49 O54 1.254 . S
C49 O55 1.268 . S
O50 Dy43 2.351 . S
O50 C58 1.249 . S
O51 Dy40 2.326 . S
O51 C58 1.267 . S
O52 C41 1.185 . S
O52 Dy43 2.398 . S
O53 C41 1.355 . S
O53 Dy43 2.491 . S
O54 Dy43 2.403 . S
O54 C49 1.254 . S
O55 Dy40 2.310 . S
O55 Dy43 2.664 . S
O55 C49 1.268 . S
O56 Dy40 2.351 . S
O56 C59 1.249 . S
O57 Dy43 2.326 . S
O57 C59 1.267 . S
C58 O50 1.249 . S
C58 O51 1.267 . S
C59 O56 1.249 . S
C59 O57 1.267 . S
Dy60 O64 2.398 . S
Dy60 O65 2.491 . S
Dy60 O66 2.403 . S
Dy60 O67 2.664 . S
Dy60 O71 2.326 . S
Dy60 O75 2.310 . S
Dy60 O76 2.351 . S
C61 O72 1.185 . S
C61 O73 1.355 . S
C62 O64 1.185 . S
C62 O65 1.355 . S
Dy63 O67 2.310 . S
Dy63 O70 2.351 . S
Dy63 O72 2.398 . S
Dy63 O73 2.491 . S
Dy63 O74 2.403 . S
Dy63 O75 2.664 . S
Dy63 O77 2.326 . S
O64 Dy60 2.398 . S
O64 C62 1.185 . S
O65 Dy60 2.491 . S
O65 C62 1.355 . S
O66 Dy60 2.403 . S
O66 C68 1.254 . S
O67 Dy60 2.664 . S
O67 Dy63 2.310 . S
O67 C68 1.268 . S
C68 O66 1.254 . S
C68 O67 1.268 . S
C69 O74 1.254 . S
C69 O75 1.268 . S
O70 Dy63 2.351 . S
O70 C78 1.249 . S
O71 Dy60 2.326 . S
O71 C78 1.267 . S
O72 C61 1.185 . S
O72 Dy63 2.398 . S
O73 C61 1.355 . S
O73 Dy63 2.491 . S
O74 Dy63 2.403 . S
O74 C69 1.254 . S
O75 Dy60 2.310 . S
O75 Dy63 2.664 . S
O75 C69 1.268 . S
O76 Dy60 2.351 . S
O76 C79 1.249 . S
O77 Dy63 2.326 . S
O77 C79 1.267 . S
C78 O70 1.249 . S
C78 O71 1.267 . S
C79 O76 1.249 . S
C79 O77 1.267 . S
Dy80 O84 2.398 . S
Dy80 O85 2.491 . S
Dy80 O86 2.403 . S
Dy80 O87 2.664 . S
Dy80 O91 2.326 . S
Dy80 O95 2.310 . S
Dy80 O96 2.351 . S
C81 O92 1.185 . S
C81 O93 1.355 . S
C82 O84 1.185 . S
C82 O85 1.355 . S
Dy83 O87 2.310 . S
Dy83 O90 2.351 . S
Dy83 O92 2.398 . S
Dy83 O93 2.491 . S
Dy83 O94 2.403 . S
Dy83 O95 2.664 . S
Dy83 O97 2.326 . S
O84 Dy80 2.398 . S
O84 C82 1.185 . S
O85 Dy80 2.491 . S
O85 C82 1.355 . S
O86 Dy80 2.403 . S
O86 C88 1.254 . S
O87 Dy80 2.664 . S
O87 Dy83 2.310 . S
O87 C88 1.268 . S
C88 O86 1.254 . S
C88 O87 1.268 . S
C89 O94 1.254 . S
C89 O95 1.268 . S
O90 Dy83 2.351 . S
O90 C98 1.249 . S
O91 Dy80 2.326 . S
O91 C98 1.267 . S
O92 C81 1.185 . S
O92 Dy83 2.398 . S
O93 C81 1.355 . S
O93 Dy83 2.491 . S
O94 Dy83 2.403 . S
O94 C89 1.254 . S
O95 Dy80 2.310 . S
O95 Dy83 2.664 . S
O95 C89 1.268 . S
O96 Dy80 2.351 . S
O96 C99 1.249 . S
O97 Dy83 2.326 . S
O97 C99 1.267 . S
C98 O90 1.249 . S
C98 O91 1.267 . S
C99 O96 1.249 . S
C99 O97 1.267 . S
Dy100 O104 2.398 . S
Dy100 O105 2.491 . S
Dy100 O106 2.403 . S
Dy100 O107 2.664 . S
Dy100 O111 2.326 . S
Dy100 O115 2.310 . S
Dy100 O116 2.351 . S
C101 O112 1.185 . S
C101 O113 1.355 . S
C102 O104 1.185 . S
C102 O105 1.355 . S
Dy103 O107 2.310 . S
Dy103 O110 2.351 . S
Dy103 O112 2.398 . S
Dy103 O113 2.491 . S
Dy103 O114 2.403 . S
Dy103 O115 2.664 . S
Dy103 O117 2.326 . S
O104 Dy100 2.398 . S
O104 C102 1.185 . S
O105 Dy100 2.491 . S
O105 C102 1.355 . S
O106 Dy100 2.403 . S
O106 C108 1.254 . S
O107 Dy100 2.664 . S
O107 Dy103 2.310 . S
O107 C108 1.268 . S
C108 O106 1.254 . S
C108 O107 1.268 . S
C109 O114 1.254 . S
C109 O115 1.268 . S
O110 Dy103 2.351 . S
O110 C118 1.249 . S
O111 Dy100 2.326 . S
O111 C118 1.267 . S
O112 C101 1.185 . S
O112 Dy103 2.398 . S
O113 C101 1.355 . S
O113 Dy103 2.491 . S
O114 Dy103 2.403 . S
O114 C109 1.254 . S
O115 Dy100 2.310 . S
O115 Dy103 2.664 . S
O115 C109 1.268 . S
O116 Dy100 2.351 . S
O116 C119 1.249 . S
O117 Dy103 2.326 . S
O117 C119 1.267 . S
C118 O110 1.249 . S
C118 O111 1.267 . S
C119 O116 1.249 . S
C119 O117 1.267 . S
Dy120 O124 2.398 . S
Dy120 O125 2.491 . S
Dy120 O126 2.403 . S
Dy120 O127 2.664 . S
Dy120 O131 2.326 . S
Dy120 O135 2.310 . S
Dy120 O136 2.351 . S
C121 O132 1.185 . S
C121 O133 1.355 . S
C122 O124 1.185 . S
C122 O125 1.355 . S
Dy123 O127 2.310 . S
Dy123 O130 2.351 . S
Dy123 O132 2.398 . S
Dy123 O133 2.491 . S
Dy123 O134 2.403 . S
Dy123 O135 2.664 . S
Dy123 O137 2.326 . S
O124 Dy120 2.398 . S
O124 C122 1.185 . S
O125 Dy120 2.491 . S
O125 C122 1.355 . S
O126 Dy120 2.403 . S
O126 C128 1.254 . S
O127 Dy120 2.664 . S
O127 Dy123 2.310 . S
O127 C128 1.268 . S
C128 O126 1.254 . S
C128 O127 1.268 . S
C129 O134 1.254 . S
C129 O135 1.268 . S
O130 Dy123 2.351 . S
O130 C138 1.249 . S
O131 Dy120 2.326 . S
O131 C138 1.267 . S
O132 C121 1.185 . S
O132 Dy123 2.398 . S
O133 C121 1.355 . S
O133 Dy123 2.491 . S
O134 Dy123 2.403 . S
O134 C129 1.254 . S
O135 Dy120 2.310 . S
O135 Dy123 2.664 . S
O135 C129 1.268 . S
O136 Dy120 2.351 . S
O136 C139 1.249 . S
O137 Dy123 2.326 . S
O137 C139 1.267 . S
C138 O130 1.249 . S
C138 O131 1.267 . S
C139 O136 1.249 . S
C139 O137 1.267 . S
Dy140 O144 2.398 . S
Dy140 O145 2.491 . S
Dy140 O146 2.403 . S
Dy140 O147 2.664 . S
Dy140 O151 2.326 . S
Dy140 O155 2.310 . S
Dy140 O156 2.351 . S
C141 O152 1.185 . S
C141 O153 1.355 . S
C142 O144 1.185 . S
C142 O145 1.355 . S
Dy143 O147 2.310 . S
Dy143 O150 2.351 . S
Dy143 O152 2.398 . S
Dy143 O153 2.491 . S
Dy143 O154 2.403 . S
Dy143 O155 2.664 . S
Dy143 O157 2.326 . S
O144 Dy140 2.398 . S
O144 C142 1.185 . S
O145 Dy140 2.491 . S
O145 C142 1.355 . S
O146 Dy140 2.403 . S
O146 C148 1.254 . S
O147 Dy140 2.664 . S
O147 Dy143 2.310 . S
O147 C148 1.268 . S
C148 O146 1.254 . S
C148 O147 1.268 . S
C149 O154 1.254 . S
C149 O155 1.268 . S
O150 Dy143 2.351 . S
O150 C158 1.249 . S
O151 Dy140 2.326 . S
O151 C158 1.267 . S
O152 C141 1.185 . S
O152 Dy143 2.398 . S
O153 C141 1.355 . S
O153 Dy143 2.491 . S
O154 Dy143 2.403 . S
O154 C149 1.254 . S
O155 Dy140 2.310 . S
O155 Dy143 2.664 . S
O155 C149 1.268 . S
O156 Dy140 2.351 . S
O156 C159 1.249 . S
O157 Dy143 2.326 . S
O157 C159 1.267 . S
C158 O150 1.249 . S
C158 O151 1.267 . S
C159 O156 1.249 . S
C159 O157 1.267 . S
Dy160 O164 2.398 . S
Dy160 O165 2.491 . S
Dy160 O166 2.403 . S
Dy160 O167 2.664 . S
Dy160 O171 2.326 . S
Dy160 O175 2.310 . S
Dy160 O176 2.351 . S
C161 O172 1.185 . S
C161 O173 1.355 . S
C162 O164 1.185 . S
C162 O165 1.355 . S
Dy163 O167 2.310 . S
Dy163 O170 2.351 . S
Dy163 O172 2.398 . S
Dy163 O173 2.491 . S
Dy163 O174 2.403 . S
Dy163 O175 2.664 . S
Dy163 O177 2.326 . S
O164 Dy160 2.398 . S
O164 C162 1.185 . S
O165 Dy160 2.491 . S
O165 C162 1.355 . S
O166 Dy160 2.403 . S
O166 C168 1.254 . S
O167 Dy160 2.664 . S
O167 Dy163 2.310 . S
O167 C168 1.268 . S
C168 O166 1.254 . S
C168 O167 1.268 . S
C169 O174 1.254 . S
C169 O175 1.268 . S
O170 Dy163 2.351 . S
O170 C178 1.249 . S
O171 Dy160 2.326 . S
O171 C178 1.267 . S
O172 C161 1.185 . S
O172 Dy163 2.398 . S
O173 C161 1.355 . S
O173 Dy163 2.491 . S
O174 Dy163 2.403 . S
O174 C169 1.254 . S
O175 Dy160 2.310 . S
O175 Dy163 2.664 . S
O175 C169 1.268 . S
O176 Dy160 2.351 . S
O176 C179 1.249 . S
O177 Dy163 2.326 . S
O177 C179 1.267 . S
C178 O170 1.249 . S
C178 O171 1.267 . S
C179 O176 1.249 . S
C179 O177 1.267 . S
H180 C198 0.951 1_655 S
H181 C200 0.951 1_655 S
H182 C202 0.950 . S
H183 C203 0.950 . S
H184 C205 0.950 . S
H185 C208 0.950 . S
H186 C209 0.950 . S
H187 C211 0.950 . S
H188 C212 0.950 . S
H189 C213 0.951 . S
H190 C215 0.951 . S
H191 C217 0.950 . S
H192 C218 0.950 . S
H193 C220 0.950 . S
H194 C223 0.950 . S
H195 C224 0.950 . S
H196 C226 0.950 . S
H197 C227 0.950 . S
C198 H180 0.951 1_455 S
C198 C199 1.366 . S
C198 C200 1.388 . S
C199 C198 1.366 . S
C199 C203 1.385 . S
C200 H181 0.951 1_455 S
C200 C198 1.388 . S
C200 C201 1.366 . S
C201 C200 1.366 . S
C201 C202 1.414 . S
C201 C204 1.499 . S
C202 H182 0.950 . S
C202 C201 1.414 . S
C202 C203 1.374 . S
C203 H183 0.950 . S
C203 C199 1.385 . S
C203 C202 1.374 . S
C204 C201 1.499 . S
C204 C205 1.373 . S
C204 C206 1.389 . S
C205 H184 0.950 . S
C205 C204 1.373 . S
C205 C221 1.377 . S
C206 C204 1.389 . S
C206 C207 1.524 . S
C206 C220 1.377 . S
C207 C206 1.524 . S
C207 C208 1.397 . S
C207 C212 1.363 1_455 S
C208 H185 0.950 . S
C208 C207 1.397 . S
C208 C209 1.334 . S
C209 H186 0.950 . S
C209 C208 1.334 . S
C209 C210 1.287 . S
C210 C209 1.287 . S
C210 C211 1.524 1_455 S
C210 H229 0.913 1_455 S
C211 H187 0.950 . S
C211 C210 1.524 1_655 S
C211 C212 1.415 . S
C212 H188 0.950 . S
C212 C207 1.363 1_655 S
C212 C211 1.415 . S
C213 H189 0.951 . S
C213 C214 1.366 . S
C213 C215 1.388 . S
C214 C213 1.366 . S
C214 C218 1.385 1_455 S
C215 H190 0.951 . S
C215 C213 1.388 . S
C215 C216 1.366 . S
C216 C215 1.366 . S
C216 C217 1.414 1_455 S
C216 C219 1.499 . S
C217 H191 0.950 . S
C217 C216 1.414 1_655 S
C217 C218 1.374 . S
C218 H192 0.950 . S
C218 C214 1.385 1_655 S
C218 C217 1.374 . S
C219 C216 1.499 . S
C219 C220 1.373 . S
C219 C221 1.389 . S
C220 H193 0.950 . S
C220 C206 1.377 . S
C220 C219 1.373 . S
C221 C205 1.377 . S
C221 C219 1.389 . S
C221 C222 1.524 . S
C222 C221 1.524 . S
C222 C223 1.397 . S
C222 C227 1.363 . S
C223 H194 0.950 . S
C223 C222 1.397 . S
C223 C224 1.334 . S
C224 H195 0.950 . S
C224 C223 1.334 . S
C224 C225 1.287 . S
C225 C224 1.287 . S
C225 C226 1.524 . S
C225 H228 0.999 . S
C226 H196 0.950 . S
C226 C225 1.524 . S
C226 C227 1.415 . S
C227 H197 0.950 . S
C227 C222 1.363 . S
C227 C226 1.415 . S
H228 C225 0.999 . S
H229 C210 0.913 1_655 S
H230 C248 0.951 . S
H231 C250 0.951 . S
H232 C252 0.950 . S
H233 C253 0.950 . S
H234 C255 0.950 . S
H235 C258 0.950 . S
H236 C259 0.950 . S
H237 C261 0.950 . S
H238 C262 0.950 . S
H239 C263 0.951 . S
H240 C265 0.951 . S
H241 C267 0.950 . S
H242 C268 0.950 . S
H243 C270 0.950 . S
H244 C273 0.950 . S
H245 C274 0.950 . S
H246 C276 0.950 . S
H247 C277 0.950 . S
C248 H230 0.951 . S
C248 C249 1.366 . S
C248 C250 1.388 . S
C249 C248 1.366 . S
C249 C253 1.385 . S
C250 H231 0.951 . S
C250 C248 1.388 . S
C250 C251 1.366 . S
C251 C250 1.366 . S
C251 C252 1.414 . S
C251 C254 1.499 . S
C252 H232 0.950 . S
C252 C251 1.414 . S
C252 C253 1.374 . S
C253 H233 0.950 . S
C253 C249 1.385 . S
C253 C252 1.374 . S
C254 C251 1.499 . S
C254 C255 1.373 . S
C254 C256 1.389 . S
C255 H234 0.950 . S
C255 C254 1.373 . S
C255 C271 1.377 . S
C256 C254 1.389 . S
C256 C257 1.524 . S
C256 C270 1.377 . S
C257 C256 1.524 . S
C257 C258 1.397 . S
C257 C262 1.363 . S
C258 H235 0.950 . S
C258 C257 1.397 . S
C258 C259 1.334 . S
C259 H236 0.950 . S
C259 C258 1.334 . S
C259 C260 1.287 . S
C260 C259 1.287 . S
C260 C261 1.524 . S
C260 H279 0.913 . S
C261 H237 0.950 . S
C261 C260 1.524 . S
C261 C262 1.415 . S
C262 H238 0.950 . S
C262 C257 1.363 . S
C262 C261 1.415 . S
C263 H239 0.951 . S
C263 C264 1.366 . S
C263 C265 1.388 . S
C264 C263 1.366 . S
C264 C268 1.385 . S
C265 H240 0.951 . S
C265 C263 1.388 . S
C265 C266 1.366 . S
C266 C265 1.366 . S
C266 C267 1.414 . S
C266 C269 1.499 . S
C267 H241 0.950 . S
C267 C266 1.414 . S
C267 C268 1.374 . S
C268 H242 0.950 . S
C268 C264 1.385 . S
C268 C267 1.374 . S
C269 C266 1.499 . S
C269 C270 1.373 . S
C269 C271 1.389 . S
C270 H243 0.950 . S
C270 C256 1.377 . S
C270 C269 1.373 . S
C271 C255 1.377 . S
C271 C269 1.389 . S
C271 C272 1.524 . S
C272 C271 1.524 . S
C272 C273 1.397 . S
C272 C277 1.363 . S
C273 H244 0.950 . S
C273 C272 1.397 . S
C273 C274 1.334 . S
C274 H245 0.950 . S
C274 C273 1.334 . S
C274 C275 1.287 . S
C275 C274 1.287 . S
C275 C276 1.524 . S
C275 H278 0.999 . S
C276 H246 0.950 . S
C276 C275 1.524 . S
C276 C277 1.415 . S
C277 H247 0.950 . S
C277 C272 1.363 . S
C277 C276 1.415 . S
H278 C275 0.999 . S
H279 C260 0.913 . S
H280 C298 0.951 . S
H281 C300 0.951 . S
H282 C302 0.950 . S
H283 C303 0.950 . S
H284 C305 0.950 . S
H285 C308 0.950 . S
H286 C309 0.950 . S
H287 C311 0.950 1_565 S
H288 C312 0.950 . S
H289 C313 0.951 . S
H290 C315 0.951 . S
H291 C317 0.950 . S
H292 C318 0.950 . S
H293 C320 0.950 . S
H294 C323 0.950 . S
H295 C324 0.950 . S
H296 C326 0.950 . S
H297 C327 0.950 . S
C298 H280 0.951 . S
C298 C299 1.366 . S
C298 C300 1.388 . S
C299 C298 1.366 . S
C299 C303 1.385 . S
C300 H281 0.951 . S
C300 C298 1.388 . S
C300 C301 1.366 . S
C301 C300 1.366 . S
C301 C302 1.414 . S
C301 C304 1.499 . S
C302 H282 0.950 . S
C302 C301 1.414 . S
C302 C303 1.374 . S
C303 H283 0.950 . S
C303 C299 1.385 . S
C303 C302 1.374 . S
C304 C301 1.499 . S
C304 C305 1.373 . S
C304 C306 1.389 . S
C305 H284 0.950 . S
C305 C304 1.373 . S
C305 C321 1.377 . S
C306 C304 1.389 . S
C306 C307 1.524 . S
C306 C320 1.377 . S
C307 C306 1.524 . S
C307 C308 1.397 . S
C307 C312 1.363 . S
C308 H285 0.950 . S
C308 C307 1.397 . S
C308 C309 1.334 . S
C309 H286 0.950 . S
C309 C308 1.334 . S
C309 C310 1.287 . S
C310 C309 1.287 . S
C310 C311 1.524 . S
C310 H329 0.913 . S
C311 H287 0.950 1_545 S
C311 C310 1.524 . S
C311 C312 1.415 . S
C312 H288 0.950 . S
C312 C307 1.363 . S
C312 C311 1.415 . S
C313 H289 0.951 . S
C313 C314 1.366 . S
C313 C315 1.388 . S
C314 C313 1.366 . S
C314 C318 1.385 . S
C315 H290 0.951 . S
C315 C313 1.388 . S
C315 C316 1.366 . S
C316 C315 1.366 . S
C316 C317 1.414 . S
C316 C319 1.499 . S
C317 H291 0.950 . S
C317 C316 1.414 . S
C317 C318 1.374 . S
C318 H292 0.950 . S
C318 C314 1.385 . S
C318 C317 1.374 . S
C319 C316 1.499 . S
C319 C320 1.373 . S
C319 C321 1.389 . S
C320 H293 0.950 . S
C320 C306 1.377 . S
C320 C319 1.373 . S
C321 C305 1.377 . S
C321 C319 1.389 . S
C321 C322 1.524 . S
C322 C321 1.524 . S
C322 C323 1.397 . S
C322 C327 1.363 . S
C323 H294 0.950 . S
C323 C322 1.397 . S
C323 C324 1.334 . S
C324 H295 0.950 . S
C324 C323 1.334 . S
C324 C325 1.287 . S
C325 C324 1.287 . S
C325 C326 1.524 . S
C325 H328 0.999 . S
C326 H296 0.950 . S
C326 C325 1.524 . S
C326 C327 1.415 . S
C327 H297 0.950 . S
C327 C322 1.363 . S
C327 C326 1.415 . S
H328 C325 0.999 . S
H329 C310 0.913 . S
H330 C348 0.951 . S
H331 C350 0.951 . S
H332 C352 0.950 . S
H333 C353 0.950 . S
H334 C355 0.950 . S
H335 C358 0.950 . S
H336 C359 0.950 . S
H337 C361 0.950 . S
H338 C362 0.950 . S
H339 C363 0.951 . S
H340 C365 0.951 . S
H341 C367 0.950 . S
H342 C368 0.950 . S
H343 C370 0.950 . S
H344 C373 0.950 . S
H345 C374 0.950 1_554 S
H346 C376 0.950 . S
H347 C377 0.950 . S
C348 H330 0.951 . S
C348 C349 1.366 . S
C348 C350 1.388 . S
C349 C348 1.366 . S
C349 C353 1.385 . S
C350 H331 0.951 . S
C350 C348 1.388 . S
C350 C351 1.366 . S
C351 C350 1.366 . S
C351 C352 1.414 . S
C351 C354 1.499 . S
C352 H332 0.950 . S
C352 C351 1.414 . S
C352 C353 1.374 . S
C353 H333 0.950 . S
C353 C349 1.385 . S
C353 C352 1.374 . S
C354 C351 1.499 . S
C354 C355 1.373 . S
C354 C356 1.389 . S
C355 H334 0.950 . S
C355 C354 1.373 . S
C355 C371 1.377 . S
C356 C354 1.389 . S
C356 C357 1.524 . S
C356 C370 1.377 . S
C357 C356 1.524 . S
C357 C358 1.397 . S
C357 C362 1.363 . S
C358 H335 0.950 . S
C358 C357 1.397 . S
C358 C359 1.334 . S
C359 H336 0.950 . S
C359 C358 1.334 . S
C359 C360 1.287 . S
C360 C359 1.287 . S
C360 C361 1.524 . S
C360 H379 0.913 . S
C361 H337 0.950 . S
C361 C360 1.524 . S
C361 C362 1.415 . S
C362 H338 0.950 . S
C362 C357 1.363 . S
C362 C361 1.415 . S
C363 H339 0.951 . S
C363 C364 1.366 . S
C363 C365 1.388 . S
C364 C363 1.366 . S
C364 C368 1.385 . S
C365 H340 0.951 . S
C365 C363 1.388 . S
C365 C366 1.366 1_554 S
C366 C365 1.366 1_556 S
C366 C367 1.414 1_556 S
C366 C369 1.499 . S
C367 H341 0.950 . S
C367 C366 1.414 1_554 S
C367 C368 1.374 . S
C368 H342 0.950 . S
C368 C364 1.385 . S
C368 C367 1.374 . S
C369 C366 1.499 . S
C369 C370 1.373 . S
C369 C371 1.389 . S
C370 H343 0.950 . S
C370 C356 1.377 . S
C370 C369 1.373 . S
C371 C355 1.377 . S
C371 C369 1.389 . S
C371 C372 1.524 . S
C372 C371 1.524 . S
C372 C373 1.397 . S
C372 C377 1.363 . S
C373 H344 0.950 . S
C373 C372 1.397 . S
C373 C374 1.334 . S
C374 H345 0.950 1_556 S
C374 C373 1.334 . S
C374 C375 1.287 . S
C375 C374 1.287 . S
C375 C376 1.524 . S
C375 H378 0.999 . S
C376 H346 0.950 . S
C376 C375 1.524 . S
C376 C377 1.415 . S
C377 H347 0.950 . S
C377 C372 1.363 . S
C377 C376 1.415 . S
H378 C375 0.999 . S
H379 C360 0.913 . S
H380 C398 0.951 . S
H381 C400 0.951 . S
H382 C402 0.950 . S
H383 C403 0.950 . S
H384 C405 0.950 . S
H385 C408 0.950 . S
H386 C409 0.950 . S
H387 C411 0.950 . S
H388 C412 0.950 . S
H389 C413 0.951 . S
H390 C415 0.951 . S
H391 C417 0.950 . S
H392 C418 0.950 . S
H393 C420 0.950 . S
H394 C423 0.950 . S
H395 C424 0.950 . S
H396 C426 0.950 . S
H397 C427 0.950 . S
C398 H380 0.951 . S
C398 C399 1.366 . S
C398 C400 1.388 . S
C399 C398 1.366 . S
C399 C403 1.385 . S
C400 H381 0.951 . S
C400 C398 1.388 . S
C400 C401 1.366 . S
C401 C400 1.366 . S
C401 C402 1.414 . S
C401 C404 1.499 . S
C402 H382 0.950 . S
C402 C401 1.414 . S
C402 C403 1.374 . S
C403 H383 0.950 . S
C403 C399 1.385 . S
C403 C402 1.374 . S
C404 C401 1.499 . S
C404 C405 1.373 . S
C404 C406 1.389 . S
C405 H384 0.950 . S
C405 C404 1.373 . S
C405 C421 1.377 . S
C406 C404 1.389 . S
C406 C407 1.524 . S
C406 C420 1.377 . S
C407 C406 1.524 . S
C407 C408 1.397 . S
C407 C412 1.363 . S
C408 H385 0.950 . S
C408 C407 1.397 . S
C408 C409 1.334 . S
C409 H386 0.950 . S
C409 C408 1.334 . S
C409 C410 1.287 . S
C410 C409 1.287 . S
C410 C411 1.524 . S
C410 H429 0.913 . S
C411 H387 0.950 . S
C411 C410 1.524 . S
C411 C412 1.415 . S
C412 H388 0.950 . S
C412 C407 1.363 . S
C412 C411 1.415 . S
C413 H389 0.951 . S
C413 C414 1.366 . S
C413 C415 1.388 1_554 S
C414 C413 1.366 . S
C414 C418 1.385 . S
C415 H390 0.951 . S
C415 C413 1.388 1_556 S
C415 C416 1.366 . S
C416 C415 1.366 . S
C416 C417 1.414 . S
C416 C419 1.499 . S
C417 H391 0.950 . S
C417 C416 1.414 . S
C417 C418 1.374 1_556 S
C418 H392 0.950 . S
C418 C414 1.385 . S
C418 C417 1.374 1_554 S
C419 C416 1.499 . S
C419 C420 1.373 . S
C419 C421 1.389 . S
C420 H393 0.950 . S
C420 C406 1.377 . S
C420 C419 1.373 . S
C421 C405 1.377 . S
C421 C419 1.389 . S
C421 C422 1.524 . S
C422 C421 1.524 . S
C422 C423 1.397 . S
C422 C427 1.363 . S
C423 H394 0.950 . S
C423 C422 1.397 . S
C423 C424 1.334 . S
C424 H395 0.950 . S
C424 C423 1.334 . S
C424 C425 1.287 . S
C425 C424 1.287 . S
C425 C426 1.524 . S
C425 H428 0.999 . S
C426 H396 0.950 . S
C426 C425 1.524 . S
C426 C427 1.415 . S
C427 H397 0.950 . S
C427 C422 1.363 . S
C427 C426 1.415 . S
H428 C425 0.999 . S
H429 C410 0.913 . S
H430 C448 0.951 . S
H431 C450 0.951 . S
H432 C452 0.950 . S
H433 C453 0.950 . S
H434 C455 0.950 . S
H435 C458 0.950 . S
H436 C459 0.950 . S
H437 C461 0.950 . S
H438 C462 0.950 . S
H439 C463 0.951 . S
H440 C465 0.951 . S
H441 C467 0.950 . S
H442 C468 0.950 . S
H443 C470 0.950 . S
H444 C473 0.950 . S
H445 C474 0.950 . S
H446 C476 0.950 . S
H447 C477 0.950 . S
C448 H430 0.951 . S
C448 C449 1.366 . S
C448 C450 1.388 . S
C449 C448 1.366 . S
C449 C453 1.385 . S
C450 H431 0.951 . S
C450 C448 1.388 . S
C450 C451 1.366 . S
C451 C450 1.366 . S
C451 C452 1.414 . S
C451 C454 1.499 . S
C452 H432 0.950 . S
C452 C451 1.414 . S
C452 C453 1.374 . S
C453 H433 0.950 . S
C453 C449 1.385 . S
C453 C452 1.374 . S
C454 C451 1.499 . S
C454 C455 1.373 . S
C454 C456 1.389 . S
C455 H434 0.950 . S
C455 C454 1.373 . S
C455 C471 1.377 . S
C456 C454 1.389 . S
C456 C457 1.524 . S
C456 C470 1.377 . S
C457 C456 1.524 . S
C457 C458 1.397 . S
C457 C462 1.363 . S
C458 H435 0.950 . S
C458 C457 1.397 . S
C458 C459 1.334 . S
C459 H436 0.950 . S
C459 C458 1.334 . S
C459 C460 1.287 . S
C460 C459 1.287 . S
C460 C461 1.524 . S
C460 H479 0.913 . S
C461 H437 0.950 . S
C461 C460 1.524 . S
C461 C462 1.415 . S
C462 H438 0.950 . S
C462 C457 1.363 . S
C462 C461 1.415 . S
C463 H439 0.951 . S
C463 C464 1.366 . S
C463 C465 1.388 . S
C464 C463 1.366 . S
C464 C468 1.385 . S
C465 H440 0.951 . S
C465 C463 1.388 . S
C465 C466 1.366 . S
C466 C465 1.366 . S
C466 C467 1.414 . S
C466 C469 1.499 . S
C467 H441 0.950 . S
C467 C466 1.414 . S
C467 C468 1.374 . S
C468 H442 0.950 . S
C468 C464 1.385 . S
C468 C467 1.374 . S
C469 C466 1.499 . S
C469 C470 1.373 . S
C469 C471 1.389 . S
C470 H443 0.950 . S
C470 C456 1.377 . S
C470 C469 1.373 . S
C471 C455 1.377 . S
C471 C469 1.389 . S
C471 C472 1.524 . S
C472 C471 1.524 . S
C472 C473 1.397 . S
C472 C477 1.363 . S
C473 H444 0.950 . S
C473 C472 1.397 . S
C473 C474 1.334 . S
C474 H445 0.950 . S
C474 C473 1.334 . S
C474 C475 1.287 . S
C475 C474 1.287 . S
C475 C476 1.524 . S
C475 H478 0.999 . S
C476 H446 0.950 . S
C476 C475 1.524 . S
C476 C477 1.415 . S
C477 H447 0.950 . S
C477 C472 1.363 . S
C477 C476 1.415 . S
H478 C475 0.999 . S
H479 C460 0.913 . S
H480 C498 0.951 . S
H481 C500 0.951 . S
H482 C502 0.950 . S
H483 C503 0.950 . S
H484 C505 0.950 . S
H485 C508 0.950 . S
H486 C509 0.950 . S
H487 C511 0.950 . S
H488 C512 0.950 . S
H489 C513 0.951 . S
H490 C515 0.951 1_554 S
H491 C517 0.950 1_554 S
H492 C518 0.950 . S
H493 C520 0.950 . S
H494 C523 0.950 . S
H495 C524 0.950 1_556 S
H496 C526 0.950 . S
H497 C527 0.950 . S
C498 H480 0.951 . S
C498 C499 1.366 . S
C498 C500 1.388 . S
C499 C498 1.366 . S
C499 C503 1.385 . S
C500 H481 0.951 . S
C500 C498 1.388 . S
C500 C501 1.366 . S
C501 C500 1.366 . S
C501 C502 1.414 . S
C501 C504 1.499 . S
C502 H482 0.950 . S
C502 C501 1.414 . S
C502 C503 1.374 . S
C503 H483 0.950 . S
C503 C499 1.385 . S
C503 C502 1.374 . S
C504 C501 1.499 . S
C504 C505 1.373 . S
C504 C506 1.389 . S
C505 H484 0.950 . S
C505 C504 1.373 . S
C505 C521 1.377 . S
C506 C504 1.389 . S
C506 C507 1.524 . S
C506 C520 1.377 . S
C507 C506 1.524 . S
C507 C508 1.397 . S
C507 C512 1.363 . S
C508 H485 0.950 . S
C508 C507 1.397 . S
C508 C509 1.334 . S
C509 H486 0.950 . S
C509 C508 1.334 . S
C509 C510 1.287 . S
C510 C509 1.287 . S
C510 C511 1.524 . S
C510 H529 0.913 . S
C511 H487 0.950 . S
C511 C510 1.524 . S
C511 C512 1.415 . S
C512 H488 0.950 . S
C512 C507 1.363 . S
C512 C511 1.415 . S
C513 H489 0.951 . S
C513 C514 1.366 . S
C513 C515 1.388 . S
C514 C513 1.366 . S
C514 C518 1.385 . S
C515 H490 0.951 1_556 S
C515 C513 1.388 . S
C515 C516 1.366 1_556 S
C516 C515 1.366 1_554 S
C516 C517 1.414 1_554 S
C516 C519 1.499 . S
C517 H491 0.950 1_556 S
C517 C516 1.414 1_556 S
C517 C518 1.374 . S
C518 H492 0.950 . S
C518 C514 1.385 . S
C518 C517 1.374 . S
C519 C516 1.499 . S
C519 C520 1.373 . S
C519 C521 1.389 . S
C520 H493 0.950 . S
C520 C506 1.377 . S
C520 C519 1.373 . S
C521 C505 1.377 . S
C521 C519 1.389 . S
C521 C522 1.524 . S
C522 C521 1.524 . S
C522 C523 1.397 . S
C522 C527 1.363 . S
C523 H494 0.950 . S
C523 C522 1.397 . S
C523 C524 1.334 . S
C524 H495 0.950 1_554 S
C524 C523 1.334 . S
C524 C525 1.287 . S
C525 C524 1.287 . S
C525 C526 1.524 . S
C525 H528 0.999 . S
C526 H496 0.950 . S
C526 C525 1.524 . S
C526 C527 1.415 . S
C527 H497 0.950 . S
C527 C522 1.363 . S
C527 C526 1.415 . S
H528 C525 0.999 . S
H529 C510 0.913 . S
H530 C548 0.951 . S
H531 C550 0.951 . S
H532 C552 0.950 . S
H533 C553 0.950 . S
H534 C555 0.950 . S
H535 C558 0.950 . S
H536 C559 0.950 . S
H537 C561 0.950 . S
H538 C562 0.950 . S
H539 C563 0.951 . S
H540 C565 0.948 1_554 S
H541 C567 0.950 1_554 S
H542 C568 0.950 . S
H543 C570 0.950 . S
H544 C573 0.950 . S
H545 C574 0.950 . S
H546 C576 0.950 . S
H547 C577 0.950 . S
C548 H530 0.951 . S
C548 C549 1.366 . S
C548 C550 1.388 . S
C549 C548 1.366 . S
C549 C553 1.385 . S
C550 H531 0.951 . S
C550 C548 1.388 . S
C550 C551 1.366 . S
C551 C550 1.366 . S
C551 C552 1.414 . S
C551 C554 1.499 . S
C552 H532 0.950 . S
C552 C551 1.414 . S
C552 C553 1.374 . S
C553 H533 0.950 . S
C553 C549 1.385 . S
C553 C552 1.374 . S
C554 C551 1.499 . S
C554 C555 1.373 . S
C554 C556 1.389 . S
C555 H534 0.950 . S
C555 C554 1.373 . S
C555 C571 1.377 . S
C556 C554 1.389 . S
C556 C557 1.524 . S
C556 C570 1.377 . S
C557 C556 1.524 . S
C557 C558 1.397 . S
C557 C562 1.363 . S
C558 H535 0.950 . S
C558 C557 1.397 . S
C558 C559 1.334 . S
C559 H536 0.950 . S
C559 C558 1.334 . S
C559 C560 1.287 . S
C560 C559 1.287 . S
C560 C561 1.524 . S
C560 H579 0.913 . S
C561 H537 0.950 . S
C561 C560 1.524 . S
C561 C562 1.415 . S
C562 H538 0.950 . S
C562 C557 1.363 . S
C562 C561 1.415 . S
C563 H539 0.951 . S
C563 C564 1.366 . S
C563 C565 1.392 . S
C564 C563 1.366 . S
C564 C568 1.385 . S
C565 H540 0.948 1_556 S
C565 C563 1.392 . S
C565 C566 1.364 1_556 S
C566 C565 1.364 1_554 S
C566 C567 1.414 1_554 S
C566 C569 1.499 . S
C567 H541 0.950 1_556 S
C567 C566 1.414 1_556 S
C567 C568 1.374 . S
C568 H542 0.950 . S
C568 C564 1.385 . S
C568 C567 1.374 . S
C569 C566 1.499 . S
C569 C570 1.373 . S
C569 C571 1.389 . S
C570 H543 0.950 . S
C570 C556 1.377 . S
C570 C569 1.373 . S
C571 C555 1.377 . S
C571 C569 1.389 . S
C571 C572 1.524 . S
C572 C571 1.524 . S
C572 C573 1.397 . S
C572 C577 1.363 . S
C573 H544 0.950 . S
C573 C572 1.397 . S
C573 C574 1.334 . S
C574 H545 0.950 . S
C574 C573 1.334 . S
C574 C575 1.287 . S
C575 C574 1.287 . S
C575 C576 1.524 . S
C575 H578 0.999 . S
C576 H546 0.950 . S
C576 C575 1.524 . S
C576 C577 1.415 . S
C577 H547 0.950 . S
C577 C572 1.363 . S
C577 C576 1.415 . S
H578 C575 0.999 . S
H579 C560 0.913 . S
H580 C598 0.951 . S
H581 C600 0.951 . S
H582 C602 0.950 . S
H583 C603 0.950 . S
H584 C605 0.950 . S
H585 C608 0.950 . S
H586 C609 0.950 . S
H587 C611 0.950 . S
H588 C612 0.950 . S
H589 C613 0.951 . S
H590 C615 0.951 . S
H591 C617 0.950 1_554 S
H592 C618 0.950 . S
H593 C620 0.950 . S
H594 C623 0.950 . S
H595 C624 0.950 . S
H596 C626 0.950 . S
H597 C627 0.950 . S
C598 H580 0.951 . S
C598 C599 1.366 . S
C598 C600 1.388 . S
C599 C598 1.366 . S
C599 C603 1.385 . S
C600 H581 0.951 . S
C600 C598 1.388 . S
C600 C601 1.366 . S
C601 C600 1.366 . S
C601 C602 1.414 . S
C601 C604 1.499 . S
C602 H582 0.950 . S
C602 C601 1.414 . S
C602 C603 1.374 . S
C603 H583 0.950 . S
C603 C599 1.385 . S
C603 C602 1.374 . S
C604 C601 1.499 . S
C604 C605 1.373 . S
C604 C606 1.389 . S
C605 H584 0.950 . S
C605 C604 1.373 . S
C605 C621 1.377 . S
C606 C604 1.389 . S
C606 C607 1.524 . S
C606 C620 1.377 . S
C607 C606 1.524 . S
C607 C608 1.397 . S
C607 C612 1.363 . S
C608 H585 0.950 . S
C608 C607 1.397 . S
C608 C609 1.334 . S
C609 H586 0.950 . S
C609 C608 1.334 . S
C609 C610 1.287 . S
C610 C609 1.287 . S
C610 C611 1.524 . S
C610 H629 0.913 . S
C611 H587 0.950 . S
C611 C610 1.524 . S
C611 C612 1.415 . S
C612 H588 0.950 . S
C612 C607 1.363 . S
C612 C611 1.415 . S
C613 H589 0.951 . S
C613 C614 1.366 . S
C613 C615 1.388 1_556 S
C614 C613 1.366 . S
C614 C618 1.385 . S
C615 H590 0.951 . S
C615 C613 1.388 1_554 S
C615 C616 1.366 . S
C616 C615 1.366 . S
C616 C617 1.414 1_554 S
C616 C619 1.499 . S
C617 H591 0.950 1_556 S
C617 C616 1.414 1_556 S
C617 C618 1.374 . S
C618 H592 0.950 . S
C618 C614 1.385 . S
C618 C617 1.374 . S
C619 C616 1.499 . S
C619 C620 1.373 . S
C619 C621 1.389 . S
C620 H593 0.950 . S
C620 C606 1.377 . S
C620 C619 1.373 . S
C621 C605 1.377 . S
C621 C619 1.389 . S
C621 C622 1.524 . S
C622 C621 1.524 . S
C622 C623 1.397 . S
C622 C627 1.363 . S
C623 H594 0.950 . S
C623 C622 1.397 . S
C623 C624 1.334 . S
C624 H595 0.950 . S
C624 C623 1.334 . S
C624 C625 1.287 . S
C625 C624 1.287 . S
C625 C626 1.524 . S
C625 H628 0.999 . S
C626 H596 0.950 . S
C626 C625 1.524 . S
C626 C627 1.415 . S
C627 H597 0.950 . S
C627 C622 1.363 . S
C627 C626 1.415 . S
H628 C625 0.999 . S
H629 C610 0.913 . S
H630 C648 0.951 . S
H631 C650 0.951 . S
H632 C652 0.950 . S
H633 C653 0.950 . S
H634 C655 0.950 . S
H635 C658 0.950 . S
H636 C659 0.950 . S
H637 C661 0.949 . S
H638 C662 0.950 . S
H639 C663 0.951 . S
H640 C665 0.951 . S
H641 C667 0.950 . S
H642 C668 0.950 . S
H643 C670 0.950 . S
H644 C673 0.950 . S
H645 C674 0.950 . S
H646 C676 0.950 . S
H647 C677 0.950 . S
C648 H630 0.951 . S
C648 C649 1.366 . S
C648 C650 1.388 . S
C649 C648 1.366 . S
C649 C653 1.385 . S
C650 H631 0.951 . S
C650 C648 1.388 . S
C650 C651 1.366 . S
C651 C650 1.366 . S
C651 C652 1.414 . S
C651 C654 1.499 . S
C652 H632 0.950 . S
C652 C651 1.414 . S
C652 C653 1.374 . S
C653 H633 0.950 . S
C653 C649 1.385 . S
C653 C652 1.374 . S
C654 C651 1.499 . S
C654 C655 1.373 . S
C654 C656 1.389 . S
C655 H634 0.950 . S
C655 C654 1.373 . S
C655 C671 1.377 . S
C656 C654 1.389 . S
C656 C657 1.524 . S
C656 C670 1.377 . S
C657 C656 1.524 . S
C657 C658 1.397 1_554 S
C657 C662 1.363 . S
C658 H635 0.950 . S
C658 C657 1.397 1_556 S
C658 C659 1.334 . S
C659 H636 0.950 . S
C659 C658 1.334 . S
C659 C660 1.287 . S
C660 C659 1.287 . S
C660 C661 1.522 1_556 S
C660 H679 0.913 . S
C661 H637 0.949 . S
C661 C660 1.522 1_554 S
C661 C662 1.417 . S
C662 H638 0.950 . S
C662 C657 1.363 . S
C662 C661 1.417 . S
C663 H639 0.951 . S
C663 C664 1.366 . S
C663 C665 1.388 . S
C664 C663 1.366 . S
C664 C668 1.385 . S
C665 H640 0.951 . S
C665 C663 1.388 . S
C665 C666 1.366 . S
C666 C665 1.366 . S
C666 C667 1.414 . S
C666 C669 1.499 . S
C667 H641 0.950 . S
C667 C666 1.414 . S
C667 C668 1.374 . S
C668 H642 0.950 . S
C668 C664 1.385 . S
C668 C667 1.374 . S
C669 C666 1.499 . S
C669 C670 1.373 . S
C669 C671 1.389 . S
C670 H643 0.950 . S
C670 C656 1.377 . S
C670 C669 1.373 . S
C671 C655 1.377 . S
C671 C669 1.389 . S
C671 C672 1.524 . S
C672 C671 1.524 . S
C672 C673 1.397 . S
C672 C677 1.363 . S
C673 H644 0.950 . S
C673 C672 1.397 . S
C673 C674 1.334 . S
C674 H645 0.950 . S
C674 C673 1.334 . S
C674 C675 1.287 . S
C675 C674 1.287 . S
C675 C676 1.524 . S
C675 H678 0.999 . S
C676 H646 0.950 . S
C676 C675 1.524 . S
C676 C677 1.415 . S
C677 H647 0.950 . S
C677 C672 1.363 . S
C677 C676 1.415 . S
H678 C675 0.999 . S
H679 C660 0.913 . S
H680 C698 0.951 . S
H681 C700 0.951 . S
H682 C702 0.950 . S
H683 C703 0.950 . S
H684 C705 0.950 . S
H685 C708 0.950 . S
H686 C709 0.950 . S
H687 C711 0.950 . S
H688 C712 0.950 . S
H689 C713 0.951 . S
H690 C715 0.951 . S
H691 C717 0.950 . S
H692 C718 0.950 . S
H693 C720 0.950 . S
H694 C723 0.950 . S
H695 C724 0.950 . S
H696 C726 0.950 . S
H697 C727 0.950 . S
C698 H680 0.951 . S
C698 C699 1.366 . S
C698 C700 1.388 . S
C699 C698 1.366 . S
C699 C703 1.385 . S
C700 H681 0.951 . S
C700 C698 1.388 . S
C700 C701 1.366 . S
C701 C700 1.366 . S
C701 C702 1.414 . S
C701 C704 1.499 . S
C702 H682 0.950 . S
C702 C701 1.414 . S
C702 C703 1.374 . S
C703 H683 0.950 . S
C703 C699 1.385 . S
C703 C702 1.374 . S
C704 C701 1.499 . S
C704 C705 1.373 . S
C704 C706 1.389 . S
C705 H684 0.950 . S
C705 C704 1.373 . S
C705 C721 1.377 . S
C706 C704 1.389 . S
C706 C707 1.524 . S
C706 C720 1.377 . S
C707 C706 1.524 . S
C707 C708 1.397 . S
C707 C712 1.363 . S
C708 H685 0.950 . S
C708 C707 1.397 . S
C708 C709 1.334 . S
C709 H686 0.950 . S
C709 C708 1.334 . S
C709 C710 1.287 . S
C710 C709 1.287 . S
C710 C711 1.524 . S
C710 H729 0.913 . S
C711 H687 0.950 . S
C711 C710 1.524 . S
C711 C712 1.415 . S
C712 H688 0.950 . S
C712 C707 1.363 . S
C712 C711 1.415 . S
C713 H689 0.951 . S
C713 C714 1.366 . S
C713 C715 1.388 . S
C714 C713 1.366 . S
C714 C718 1.385 . S
C715 H690 0.951 . S
C715 C713 1.388 . S
C715 C716 1.366 . S
C716 C715 1.366 . S
C716 C717 1.414 . S
C716 C719 1.499 . S
C717 H691 0.950 . S
C717 C716 1.414 . S
C717 C718 1.374 . S
C718 H692 0.950 . S
C718 C714 1.385 . S
C718 C717 1.374 . S
C719 C716 1.499 . S
C719 C720 1.373 . S
C719 C721 1.389 . S
C720 H693 0.950 . S
C720 C706 1.377 . S
C720 C719 1.373 . S
C721 C705 1.377 . S
C721 C719 1.389 . S
C721 C722 1.524 . S
C722 C721 1.524 . S
C722 C723 1.397 . S
C722 C727 1.363 . S
C723 H694 0.950 . S
C723 C722 1.397 . S
C723 C724 1.334 . S
C724 H695 0.950 . S
C724 C723 1.334 . S
C724 C725 1.287 . S
C725 C724 1.287 . S
C725 C726 1.524 . S
C725 H728 0.999 . S
C726 H696 0.950 . S
C726 C725 1.524 . S
C726 C727 1.415 . S
C727 H697 0.950 . S
C727 C722 1.363 . S
C727 C726 1.415 . S
H728 C725 0.999 . S
H729 C710 0.913 . S
H730 C748 0.940 1_545 S
H731 C750 0.951 . S
H732 C752 0.950 . S
H733 C753 0.950 . S
H734 C755 0.950 . S
H735 C758 0.950 . S
H736 C759 0.950 . S
H737 C761 0.950 . S
H738 C762 0.950 . S
H739 C763 0.951 . S
H740 C765 0.951 . S
H741 C767 0.950 . S
H742 C768 0.950 . S
H743 C770 0.950 . S
H744 C773 0.950 . S
H745 C774 0.950 . S
H746 C776 0.950 . S
H747 C777 0.950 . S
C748 H730 0.940 1_565 S
C748 C749 1.375 . S
C748 C750 1.390 . S
C749 C748 1.375 . S
C749 C753 1.385 . S
C750 H731 0.951 . S
C750 C748 1.390 . S
C750 C751 1.366 . S
C751 C750 1.366 . S
C751 C752 1.414 . S
C751 C754 1.499 . S
C752 H732 0.950 . S
C752 C751 1.414 . S
C752 C753 1.374 . S
C753 H733 0.950 . S
C753 C749 1.385 . S
C753 C752 1.374 . S
C754 C751 1.499 . S
C754 C755 1.373 . S
C754 C756 1.389 . S
C755 H734 0.950 . S
C755 C754 1.373 . S
C755 C771 1.377 . S
C756 C754 1.389 . S
C756 C757 1.524 . S
C756 C770 1.377 . S
C757 C756 1.524 . S
C757 C758 1.397 . S
C757 C762 1.363 . S
C758 H735 0.950 . S
C758 C757 1.397 . S
C758 C759 1.334 . S
C759 H736 0.950 . S
C759 C758 1.334 . S
C759 C760 1.287 . S
C760 C759 1.287 . S
C760 C761 1.524 . S
C760 H779 0.913 . S
C761 H737 0.950 . S
C761 C760 1.524 . S
C761 C762 1.415 . S
C762 H738 0.950 . S
C762 C757 1.363 . S
C762 C761 1.415 . S
C763 H739 0.951 . S
C763 C764 1.366 . S
C763 C765 1.388 . S
C764 C763 1.366 . S
C764 C768 1.385 . S
C765 H740 0.951 . S
C765 C763 1.388 . S
C765 C766 1.366 . S
C766 C765 1.366 . S
C766 C767 1.414 . S
C766 C769 1.499 . S
C767 H741 0.950 . S
C767 C766 1.414 . S
C767 C768 1.374 . S
C768 H742 0.950 . S
C768 C764 1.385 . S
C768 C767 1.374 . S
C769 C766 1.499 . S
C769 C770 1.373 . S
C769 C771 1.389 . S
C770 H743 0.950 . S
C770 C756 1.377 . S
C770 C769 1.373 . S
C771 C755 1.377 . S
C771 C769 1.389 . S
C771 C772 1.524 . S
C772 C771 1.524 . S
C772 C773 1.397 . S
C772 C777 1.363 . S
C773 H744 0.950 . S
C773 C772 1.397 . S
C773 C774 1.334 . S
C774 H745 0.950 . S
C774 C773 1.334 . S
C774 C775 1.287 1_554 S
C775 C774 1.287 1_556 S
C775 C776 1.524 . S
C775 H778 0.999 . S
C776 H746 0.950 . S
C776 C775 1.524 . S
C776 C777 1.415 1_556 S
C777 H747 0.950 . S
C777 C772 1.363 . S
C777 C776 1.415 1_554 S
H778 C775 0.999 . S
H779 C760 0.913 . S
H780 C798 0.951 . S
H781 C800 0.951 . S
H782 C802 0.950 . S
H783 C803 0.950 . S
H784 C805 0.950 . S
H785 C808 0.950 . S
H786 C809 0.950 . S
H787 C811 0.950 . S
H788 C812 0.950 . S
H789 C813 0.951 . S
H790 C815 0.951 . S
H791 C817 0.950 . S
H792 C818 0.950 . S
H793 C820 0.950 1_554 S
H794 C823 0.950 . S
H795 C824 0.950 . S
H796 C826 0.950 . S
H797 C827 0.950 . S
C798 H780 0.951 . S
C798 C799 1.366 . S
C798 C800 1.388 . S
C799 C798 1.366 . S
C799 C803 1.385 . S
C800 H781 0.951 . S
C800 C798 1.388 . S
C800 C801 1.366 . S
C801 C800 1.366 . S
C801 C802 1.414 . S
C801 C804 1.499 . S
C802 H782 0.950 . S
C802 C801 1.414 . S
C802 C803 1.374 . S
C803 H783 0.950 . S
C803 C799 1.385 . S
C803 C802 1.374 . S
C804 C801 1.499 . S
C804 C805 1.373 1_554 S
C804 C806 1.389 . S
C805 H784 0.950 . S
C805 C804 1.373 1_556 S
C805 C821 1.377 . S
C806 C804 1.389 . S
C806 C807 1.524 . S
C806 C820 1.377 1_554 S
C807 C806 1.524 . S
C807 C808 1.397 . S
C807 C812 1.363 . S
C808 H785 0.950 . S
C808 C807 1.397 . S
C808 C809 1.334 . S
C809 H786 0.950 . S
C809 C808 1.334 . S
C809 C810 1.287 . S
C810 C809 1.287 . S
C810 C811 1.524 . S
C810 H829 0.913 . S
C811 H787 0.950 . S
C811 C810 1.524 . S
C811 C812 1.415 . S
C812 H788 0.950 . S
C812 C807 1.363 . S
C812 C811 1.415 . S
C813 H789 0.951 . S
C813 C814 1.366 . S
C813 C815 1.388 . S
C814 C813 1.366 . S
C814 C818 1.385 . S
C815 H790 0.951 . S
C815 C813 1.388 . S
C815 C816 1.366 . S
C816 C815 1.366 . S
C816 C817 1.414 . S
C816 C819 1.499 . S
C817 H791 0.950 . S
C817 C816 1.414 . S
C817 C818 1.374 . S
C818 H792 0.950 . S
C818 C814 1.385 . S
C818 C817 1.374 . S
C819 C816 1.499 . S
C819 C820 1.373 . S
C819 C821 1.389 . S
C820 H793 0.950 1_556 S
C820 C806 1.377 1_556 S
C820 C819 1.373 . S
C821 C805 1.377 . S
C821 C819 1.389 . S
C821 C822 1.524 . S
C822 C821 1.524 . S
C822 C823 1.397 . S
C822 C827 1.363 . S
C823 H794 0.950 . S
C823 C822 1.397 . S
C823 C824 1.334 . S
C824 H795 0.950 . S
C824 C823 1.334 . S
C824 C825 1.287 . S
C825 C824 1.287 . S
C825 C826 1.524 . S
C825 H828 0.999 . S
C826 H796 0.950 . S
C826 C825 1.524 . S
C826 C827 1.415 . S
C827 H797 0.950 . S
C827 C822 1.363 . S
C827 C826 1.415 . S
H828 C825 0.999 . S
H829 C810 0.913 . S
H830 C848 0.951 . S
H831 C850 0.951 . S
H832 C852 0.950 . S
H833 C853 0.950 . S
H834 C855 0.950 . S
H835 C858 0.950 . S
H836 C859 0.950 . S
H837 C861 0.950 . S
H838 C862 0.950 . S
H839 C863 0.947 1_455 S
H840 C865 0.951 . S
H841 C867 0.950 1_554 S
H842 C868 0.950 . S
H843 C870 0.950 . S
H844 C873 0.950 . S
H845 C874 0.950 . S
H846 C876 0.950 . S
H847 C877 0.946 1_655 S
C848 H830 0.951 . S
C848 C849 1.366 . S
C848 C850 1.388 . S
C849 C848 1.366 . S
C849 C853 1.385 . S
C850 H831 0.951 . S
C850 C848 1.388 . S
C850 C851 1.366 . S
C851 C850 1.366 . S
C851 C852 1.414 . S
C851 C854 1.499 . S
C852 H832 0.950 . S
C852 C851 1.414 . S
C852 C853 1.374 . S
C853 H833 0.950 . S
C853 C849 1.385 . S
C853 C852 1.374 . S
C854 C851 1.499 . S
C854 C855 1.373 . S
C854 C856 1.389 . S
C855 H834 0.950 . S
C855 C854 1.373 . S
C855 C871 1.377 . S
C856 C854 1.389 . S
C856 C857 1.524 . S
C856 C870 1.377 . S
C857 C856 1.524 . S
C857 C858 1.397 . S
C857 C862 1.363 . S
C858 H835 0.950 . S
C858 C857 1.397 . S
C858 C859 1.334 . S
C859 H836 0.950 . S
C859 C858 1.334 . S
C859 C860 1.287 . S
C860 C859 1.287 . S
C860 C861 1.524 . S
C860 H879 0.913 . S
C861 H837 0.950 . S
C861 C860 1.524 . S
C861 C862 1.415 . S
C862 H838 0.950 . S
C862 C857 1.363 . S
C862 C861 1.415 . S
C863 H839 0.947 1_655 S
C863 C864 1.366 . S
C863 C865 1.388 . S
C864 C863 1.366 . S
C864 C868 1.385 1_556 S
C865 H840 0.951 . S
C865 C863 1.388 . S
C865 C866 1.366 . S
C866 C865 1.366 . S
C866 C867 1.414 . S
C866 C869 1.499 . S
C867 H841 0.950 1_556 S
C867 C866 1.414 . S
C867 C868 1.374 1_556 S
C868 H842 0.950 . S
C868 C864 1.385 1_554 S
C868 C867 1.374 1_554 S
C869 C866 1.499 . S
C869 C870 1.373 . S
C869 C871 1.389 . S
C870 H843 0.950 . S
C870 C856 1.377 . S
C870 C869 1.373 . S
C871 C855 1.377 . S
C871 C869 1.389 . S
C871 C872 1.524 1_655 S
C872 C871 1.524 1_455 S
C872 C873 1.397 . S
C872 C877 1.363 . S
C873 H844 0.950 . S
C873 C872 1.397 . S
C873 C874 1.334 . S
C874 H845 0.950 . S
C874 C873 1.334 . S
C874 C875 1.287 . S
C875 C874 1.287 . S
C875 C876 1.524 . S
C875 H878 0.999 . S
C876 H846 0.950 . S
C876 C875 1.524 . S
C876 C877 1.415 . S
C877 H847 0.946 1_455 S
C877 C872 1.363 . S
C877 C876 1.415 . S
H878 C875 0.999 . S
H879 C860 0.913 . S
H880 C898 0.951 . S
H881 C900 0.951 . S
H882 C902 0.950 . S
H883 C903 0.950 . S
H884 C905 0.950 . S
H885 C908 0.950 . S
H886 C909 0.950 . S
H887 C911 0.950 . S
H888 C912 0.950 . S
H889 C913 0.953 . S
H890 C915 0.951 . S
H891 C917 0.950 . S
H892 C918 0.950 . S
H893 C920 0.950 1_554 S
H894 C923 0.950 . S
H895 C924 0.950 . S
H896 C926 0.950 . S
H897 C927 0.950 . S
C898 H880 0.951 . S
C898 C899 1.366 . S
C898 C900 1.388 . S
C899 C898 1.366 . S
C899 C903 1.385 . S
C900 H881 0.951 . S
C900 C898 1.388 . S
C900 C901 1.366 . S
C901 C900 1.366 . S
C901 C902 1.414 . S
C901 C904 1.499 . S
C902 H882 0.950 . S
C902 C901 1.414 . S
C902 C903 1.374 . S
C903 H883 0.950 . S
C903 C899 1.385 . S
C903 C902 1.374 . S
C904 C901 1.499 . S
C904 C905 1.373 . S
C904 C906 1.389 . S
C905 H884 0.950 . S
C905 C904 1.373 . S
C905 C921 1.377 . S
C906 C904 1.389 . S
C906 C907 1.524 . S
C906 C920 1.377 . S
C907 C906 1.524 . S
C907 C908 1.397 . S
C907 C912 1.363 1_556 S
C908 H885 0.950 . S
C908 C907 1.397 . S
C908 C909 1.334 . S
C909 H886 0.950 . S
C909 C908 1.334 . S
C909 C910 1.287 . S
C910 C909 1.287 . S
C910 C911 1.524 1_556 S
C910 H929 0.913 . S
C911 H887 0.950 . S
C911 C910 1.524 1_554 S
C911 C912 1.415 . S
C912 H888 0.950 . S
C912 C907 1.363 1_554 S
C912 C911 1.415 . S
C913 H889 0.953 . S
C913 C914 1.360 1_556 S
C913 C915 1.391 . S
C914 C913 1.360 1_554 S
C914 C918 1.385 . S
C915 H890 0.951 . S
C915 C913 1.391 . S
C915 C916 1.363 1_556 S
C916 C915 1.363 1_554 S
C916 C917 1.420 . S
C916 C919 1.496 1_554 S
C917 H891 0.950 . S
C917 C916 1.420 . S
C917 C918 1.374 . S
C918 H892 0.950 . S
C918 C914 1.385 . S
C918 C917 1.374 . S
C919 C916 1.496 1_556 S
C919 C920 1.373 . S
C919 C921 1.389 . S
C920 H893 0.950 1_556 S
C920 C906 1.377 . S
C920 C919 1.373 . S
C921 C905 1.377 . S
C921 C919 1.389 . S
C921 C922 1.524 . S
C922 C921 1.524 . S
C922 C923 1.397 . S
C922 C927 1.363 . S
C923 H894 0.950 . S
C923 C922 1.397 . S
C923 C924 1.334 . S
C924 H895 0.950 . S
C924 C923 1.334 . S
C924 C925 1.287 . S
C925 C924 1.287 . S
C925 C926 1.524 . S
C925 H928 0.999 . S
C926 H896 0.950 . S
C926 C925 1.524 . S
C926 C927 1.415 . S
C927 H897 0.950 . S
C927 C922 1.363 . S
C927 C926 1.415 . S
H928 C925 0.999 . S
H929 C910 0.913 . S
H930 C948 0.951 . S
H931 C950 0.951 . S
H932 C952 0.950 . S
H933 C953 0.950 . S
H934 C955 0.950 . S
H935 C958 0.950 . S
H936 C959 0.950 . S
H937 C961 0.950 . S
H938 C962 0.950 . S
H939 C963 0.957 1_455 S
H940 C965 0.951 . S
H941 C967 0.950 . S
H942 C968 0.950 1_554 S
H943 C970 0.950 . S
H944 C973 0.950 . S
H945 C974 0.950 . S
H946 C976 0.950 . S
H947 C977 0.950 . S
C948 H930 0.951 . S
C948 C949 1.366 . S
C948 C950 1.388 . S
C949 C948 1.366 . S
C949 C953 1.385 . S
C950 H931 0.951 . S
C950 C948 1.388 . S
C950 C951 1.366 . S
C951 C950 1.366 . S
C951 C952 1.414 . S
C951 C954 1.499 . S
C952 H932 0.950 . S
C952 C951 1.414 . S
C952 C953 1.374 . S
C953 H933 0.950 . S
C953 C949 1.385 . S
C953 C952 1.374 . S
C954 C951 1.499 . S
C954 C955 1.373 . S
C954 C956 1.389 . S
C955 H934 0.950 . S
C955 C954 1.373 . S
C955 C971 1.377 . S
C956 C954 1.389 . S
C956 C957 1.524 . S
C956 C970 1.377 . S
C957 C956 1.524 . S
C957 C958 1.397 . S
C957 C962 1.363 1_556 S
C958 H935 0.950 . S
C958 C957 1.397 . S
C958 C959 1.334 . S
C959 H936 0.950 . S
C959 C958 1.334 . S
C959 C960 1.287 1_556 S
C960 C959 1.287 1_554 S
C960 C961 1.524 . S
C960 H979 0.913 . S
C961 H937 0.950 . S
C961 C960 1.524 . S
C961 C962 1.415 . S
C962 H938 0.950 . S
C962 C957 1.363 1_554 S
C962 C961 1.415 . S
C963 H939 0.957 1_655 S
C963 C964 1.366 . S
C963 C965 1.388 . S
C964 C963 1.366 . S
C964 C968 1.385 . S
C965 H940 0.951 . S
C965 C963 1.388 . S
C965 C966 1.366 . S
C966 C965 1.366 . S
C966 C967 1.414 . S
C966 C969 1.499 . S
C967 H941 0.950 . S
C967 C966 1.414 . S
C967 C968 1.374 . S
C968 H942 0.950 1_556 S
C968 C964 1.385 . S
C968 C967 1.374 . S
C969 C966 1.499 . S
C969 C970 1.373 . S
C969 C971 1.389 . S
C970 H943 0.950 . S
C970 C956 1.377 . S
C970 C969 1.373 . S
C971 C955 1.377 . S
C971 C969 1.389 . S
C971 C972 1.524 . S
C972 C971 1.524 . S
C972 C973 1.397 . S
C972 C977 1.363 . S
C973 H944 0.950 . S
C973 C972 1.397 . S
C973 C974 1.334 . S
C974 H945 0.950 . S
C974 C973 1.334 . S
C974 C975 1.287 . S
C975 C974 1.287 . S
C975 C976 1.524 . S
C975 H978 0.999 . S
C976 H946 0.950 . S
C976 C975 1.524 . S
C976 C977 1.415 . S
C977 H947 0.950 . S
C977 C972 1.363 . S
C977 C976 1.415 . S
H978 C975 0.999 . S
H979 C960 0.913 . S
H980 C998 0.951 . S
H981 C1000 0.951 . S
H982 C1002 0.950 . S
H983 C1003 0.950 . S
H984 C1005 0.950 . S
H985 C1008 0.950 1_554 S
H986 C1009 0.950 1_554 S
H987 C1011 0.950 . S
H988 C1012 0.950 . S
H989 C1013 0.951 . S
H990 C1015 0.951 . S
H991 C1017 0.950 . S
H992 C1018 0.950 . S
H993 C1020 0.950 . S
H994 C1023 0.950 . S
H995 C1024 0.950 . S
H996 C1026 0.950 . S
H997 C1027 0.950 . S
C998 H980 0.951 . S
C998 C999 1.366 1_556 S
C998 C1000 1.388 . S
C999 C998 1.366 1_554 S
C999 C1003 1.385 . S
C1000 H981 0.951 . S
C1000 C998 1.388 . S
C1000 C1001 1.366 . S
C1001 C1000 1.366 . S
C1001 C1002 1.414 1_556 S
C1001 C1004 1.499 . S
C1002 H982 0.950 . S
C1002 C1001 1.414 1_554 S
C1002 C1003 1.374 . S
C1003 H983 0.950 . S
C1003 C999 1.385 . S
C1003 C1002 1.374 . S
C1004 C1001 1.499 . S
C1004 C1005 1.373 . S
C1004 C1006 1.389 . S
C1005 H984 0.950 . S
C1005 C1004 1.373 . S
C1005 C1021 1.377 . S
C1006 C1004 1.389 . S
C1006 C1007 1.524 . S
C1006 C1020 1.377 . S
C1007 C1006 1.524 . S
C1007 C1008 1.397 . S
C1007 C1012 1.363 . S
C1008 H985 0.950 1_556 S
C1008 C1007 1.397 . S
C1008 C1009 1.334 . S
C1009 H986 0.950 1_556 S
C1009 C1008 1.334 . S
C1009 C1010 1.287 . S
C1010 C1009 1.287 . S
C1010 C1011 1.524 . S
C1010 H1029 0.913 . S
C1011 H987 0.950 . S
C1011 C1010 1.524 . S
C1011 C1012 1.415 . S
C1012 H988 0.950 . S
C1012 C1007 1.363 . S
C1012 C1011 1.415 . S
C1013 H989 0.951 . S
C1013 C1014 1.366 . S
C1013 C1015 1.388 . S
C1014 C1013 1.366 . S
C1014 C1018 1.385 . S
C1015 H990 0.951 . S
C1015 C1013 1.388 . S
C1015 C1016 1.366 . S
C1016 C1015 1.366 . S
C1016 C1017 1.414 . S
C1016 C1019 1.499 . S
C1017 H991 0.950 . S
C1017 C1016 1.414 . S
C1017 C1018 1.374 . S
C1018 H992 0.950 . S
C1018 C1014 1.385 . S
C1018 C1017 1.374 . S
C1019 C1016 1.499 . S
C1019 C1020 1.373 . S
C1019 C1021 1.389 . S
C1020 H993 0.950 . S
C1020 C1006 1.377 . S
C1020 C1019 1.373 . S
C1021 C1005 1.377 . S
C1021 C1019 1.389 . S
C1021 C1022 1.524 . S
C1022 C1021 1.524 . S
C1022 C1023 1.397 . S
C1022 C1027 1.363 . S
C1023 H994 0.950 . S
C1023 C1022 1.397 . S
C1023 C1024 1.334 . S
C1024 H995 0.950 . S
C1024 C1023 1.334 . S
C1024 C1025 1.287 . S
C1025 C1024 1.287 . S
C1025 C1026 1.524 . S
C1025 H1028 0.999 . S
C1026 H996 0.950 . S
C1026 C1025 1.524 . S
C1026 C1027 1.415 . S
C1027 H997 0.950 . S
C1027 C1022 1.363 . S
C1027 C1026 1.415 . S
H1028 C1025 0.999 . S
H1029 C1010 0.913 . S
H1030 C1048 0.951 . S
H1031 C1050 0.951 . S
H1032 C1052 0.950 . S
H1033 C1053 0.950 . S
H1034 C1055 0.950 . S
H1035 C1058 0.950 . S
H1036 C1059 0.950 . S
H1037 C1061 0.950 . S
H1038 C1062 0.950 1_554 S
H1039 C1063 0.951 . S
H1040 C1065 0.951 1_556 S
H1041 C1067 0.950 . S
H1042 C1068 0.950 . S
H1043 C1070 0.950 . S
H1044 C1073 0.950 . S
H1045 C1074 0.950 . S
H1046 C1076 0.950 . S
H1047 C1077 0.950 . S
C1048 H1030 0.951 . S
C1048 C1049 1.366 . S
C1048 C1050 1.388 . S
C1049 C1048 1.366 . S
C1049 C1053 1.385 . S
C1050 H1031 0.951 . S
C1050 C1048 1.388 . S
C1050 C1051 1.366 . S
C1051 C1050 1.366 . S
C1051 C1052 1.414 . S
C1051 C1054 1.499 . S
C1052 H1032 0.950 . S
C1052 C1051 1.414 . S
C1052 C1053 1.374 . S
C1053 H1033 0.950 . S
C1053 C1049 1.385 . S
C1053 C1052 1.374 . S
C1054 C1051 1.499 . S
C1054 C1055 1.373 . S
C1054 C1056 1.389 . S
C1055 H1034 0.950 . S
C1055 C1054 1.373 . S
C1055 C1071 1.377 . S
C1056 C1054 1.389 . S
C1056 C1057 1.524 . S
C1056 C1070 1.377 . S
C1057 C1056 1.524 . S
C1057 C1058 1.397 . S
C1057 C1062 1.363 . S
C1058 H1035 0.950 . S
C1058 C1057 1.397 . S
C1058 C1059 1.334 . S
C1059 H1036 0.950 . S
C1059 C1058 1.334 . S
C1059 C1060 1.287 . S
C1060 C1059 1.287 . S
C1060 C1061 1.524 . S
C1060 H1079 0.913 . S
C1061 H1037 0.950 . S
C1061 C1060 1.524 . S
C1061 C1062 1.415 . S
C1062 H1038 0.950 1_556 S
C1062 C1057 1.363 . S
C1062 C1061 1.415 . S
C1063 H1039 0.951 . S
C1063 C1064 1.366 . S
C1063 C1065 1.388 . S
C1064 C1063 1.366 . S
C1064 C1068 1.385 . S
C1065 H1040 0.951 1_554 S
C1065 C1063 1.388 . S
C1065 C1066 1.366 . S
C1066 C1065 1.366 . S
C1066 C1067 1.414 . S
C1066 C1069 1.495 1_554 S
C1067 H1041 0.950 . S
C1067 C1066 1.414 . S
C1067 C1068 1.374 . S
C1068 H1042 0.950 . S
C1068 C1064 1.385 . S
C1068 C1067 1.374 . S
C1069 C1066 1.495 1_556 S
C1069 C1070 1.375 . S
C1069 C1071 1.392 . S
C1070 H1043 0.950 . S
C1070 C1056 1.377 . S
C1070 C1069 1.375 . S
C1071 C1055 1.377 . S
C1071 C1069 1.392 . S
C1071 C1072 1.524 . S
C1072 C1071 1.524 . S
C1072 C1073 1.397 1_556 S
C1072 C1077 1.363 . S
C1073 H1044 0.950 . S
C1073 C1072 1.397 1_554 S
C1073 C1074 1.334 . S
C1074 H1045 0.950 . S
C1074 C1073 1.334 . S
C1074 C1075 1.287 . S
C1075 C1074 1.287 . S
C1075 C1076 1.524 1_554 S
C1075 H1078 0.999 . S
C1076 H1046 0.950 . S
C1076 C1075 1.524 1_556 S
C1076 C1077 1.415 . S
C1077 H1047 0.950 . S
C1077 C1072 1.363 . S
C1077 C1076 1.415 . S
H1078 C1075 0.999 . S
H1079 C1060 0.913 . S
H1080 C1098 0.951 . S
H1081 C1100 0.951 . S
H1082 C1102 0.950 . S
H1083 C1103 0.950 . S
H1084 C1105 0.950 1_545 S
H1085 C1108 0.950 . S
H1086 C1109 0.950 . S
H1087 C1111 0.950 . S
H1088 C1112 0.950 . S
H1089 C1113 0.951 . S
H1090 C1115 0.951 . S
H1091 C1117 0.950 . S
H1092 C1118 0.950 . S
H1093 C1120 0.950 . S
H1094 C1123 0.950 . S
H1095 C1124 0.950 . S
H1096 C1126 0.950 . S
H1097 C1127 0.950 . S
C1098 H1080 0.951 . S
C1098 C1099 1.366 1_565 S
C1098 C1100 1.388 . S
C1099 C1098 1.366 1_545 S
C1099 C1103 1.385 . S
C1100 H1081 0.951 . S
C1100 C1098 1.388 . S
C1100 C1101 1.366 . S
C1101 C1100 1.366 . S
C1101 C1102 1.414 1_565 S
C1101 C1104 1.499 . S
C1102 H1082 0.950 . S
C1102 C1101 1.414 1_545 S
C1102 C1103 1.374 . S
C1103 H1083 0.950 . S
C1103 C1099 1.385 . S
C1103 C1102 1.374 . S
C1104 C1101 1.499 . S
C1104 C1105 1.373 . S
C1104 C1106 1.389 . S
C1105 H1084 0.950 1_565 S
C1105 C1104 1.373 . S
C1105 C1121 1.377 . S
C1106 C1104 1.389 . S
C1106 C1107 1.524 . S
C1106 C1120 1.377 . S
C1107 C1106 1.524 . S
C1107 C1108 1.397 . S
C1107 C1112 1.363 . S
C1108 H1085 0.950 . S
C1108 C1107 1.397 . S
C1108 C1109 1.334 . S
C1109 H1086 0.950 . S
C1109 C1108 1.334 . S
C1109 C1110 1.287 . S
C1110 C1109 1.287 . S
C1110 C1111 1.524 . S
C1110 H1129 0.913 . S
C1111 H1087 0.950 . S
C1111 C1110 1.524 . S
C1111 C1112 1.415 . S
C1112 H1088 0.950 . S
C1112 C1107 1.363 . S
C1112 C1111 1.415 . S
C1113 H1089 0.951 . S
C1113 C1114 1.366 . S
C1113 C1115 1.388 . S
C1114 C1113 1.366 . S
C1114 C1118 1.385 . S
C1115 H1090 0.951 . S
C1115 C1113 1.388 . S
C1115 C1116 1.366 . S
C1116 C1115 1.366 . S
C1116 C1117 1.414 . S
C1116 C1119 1.499 . S
C1117 H1091 0.950 . S
C1117 C1116 1.414 . S
C1117 C1118 1.374 . S
C1118 H1092 0.950 . S
C1118 C1114 1.385 . S
C1118 C1117 1.374 . S
C1119 C1116 1.499 . S
C1119 C1120 1.373 . S
C1119 C1121 1.389 . S
C1120 H1093 0.950 . S
C1120 C1106 1.377 . S
C1120 C1119 1.373 . S
C1121 C1105 1.377 . S
C1121 C1119 1.389 . S
C1121 C1122 1.524 . S
C1122 C1121 1.524 . S
C1122 C1123 1.397 . S
C1122 C1127 1.363 1_565 S
C1123 H1094 0.950 . S
C1123 C1122 1.397 . S
C1123 C1124 1.334 . S
C1124 H1095 0.950 . S
C1124 C1123 1.334 . S
C1124 C1125 1.287 1_565 S
C1125 C1124 1.287 1_545 S
C1125 C1126 1.524 . S
C1125 H1128 0.999 . S
C1126 H1096 0.950 . S
C1126 C1125 1.524 . S
C1126 C1127 1.415 . S
C1127 H1097 0.950 . S
C1127 C1122 1.363 1_545 S
C1127 C1126 1.415 . S
H1128 C1125 0.999 . S
H1129 C1110 0.913 . S
H1130 C1148 0.951 . S
H1131 C1150 0.951 . S
H1132 C1152 0.950 . S
H1133 C1153 0.950 . S
H1134 C1155 0.950 . S
H1135 C1158 0.950 . S
H1136 C1159 0.950 . S
H1137 C1161 0.950 . S
H1138 C1162 0.950 . S
H1139 C1163 0.951 1_556 S
H1140 C1165 0.951 . S
H1141 C1167 0.950 . S
H1142 C1168 0.950 . S
H1143 C1170 0.950 . S
H1144 C1173 0.950 . S
H1145 C1174 0.950 . S
H1146 C1176 0.950 . S
H1147 C1177 0.950 . S
C1148 H1130 0.951 . S
C1148 C1149 1.366 . S
C1148 C1150 1.388 . S
C1149 C1148 1.366 . S
C1149 C1153 1.385 . S
C1150 H1131 0.951 . S
C1150 C1148 1.388 . S
C1150 C1151 1.366 . S
C1151 C1150 1.366 . S
C1151 C1152 1.414 . S
C1151 C1154 1.499 . S
C1152 H1132 0.950 . S
C1152 C1151 1.414 . S
C1152 C1153 1.374 . S
C1153 H1133 0.950 . S
C1153 C1149 1.385 . S
C1153 C1152 1.374 . S
C1154 C1151 1.499 . S
C1154 C1155 1.373 . S
C1154 C1156 1.389 . S
C1155 H1134 0.950 . S
C1155 C1154 1.373 . S
C1155 C1171 1.377 . S
C1156 C1154 1.389 . S
C1156 C1157 1.524 . S
C1156 C1170 1.377 . S
C1157 C1156 1.524 . S
C1157 C1158 1.397 . S
C1157 C1162 1.363 . S
C1158 H1135 0.950 . S
C1158 C1157 1.397 . S
C1158 C1159 1.334 . S
C1159 H1136 0.950 . S
C1159 C1158 1.334 . S
C1159 C1160 1.287 . S
C1160 C1159 1.287 . S
C1160 C1161 1.524 . S
C1160 H1179 0.913 . S
C1161 H1137 0.950 . S
C1161 C1160 1.524 . S
C1161 C1162 1.415 . S
C1162 H1138 0.950 . S
C1162 C1157 1.363 . S
C1162 C1161 1.415 . S
C1163 H1139 0.951 1_554 S
C1163 C1164 1.366 . S
C1163 C1165 1.388 . S
C1164 C1163 1.366 . S
C1164 C1168 1.385 . S
C1165 H1140 0.951 . S
C1165 C1163 1.388 . S
C1165 C1166 1.366 . S
C1166 C1165 1.366 . S
C1166 C1167 1.414 . S
C1166 C1169 1.499 . S
C1167 H1141 0.950 . S
C1167 C1166 1.414 . S
C1167 C1168 1.374 . S
C1168 H1142 0.950 . S
C1168 C1164 1.385 . S
C1168 C1167 1.374 . S
C1169 C1166 1.499 . S
C1169 C1170 1.373 . S
C1169 C1171 1.389 . S
C1170 H1143 0.950 . S
C1170 C1156 1.377 . S
C1170 C1169 1.373 . S
C1171 C1155 1.377 . S
C1171 C1169 1.389 . S
C1171 C1172 1.524 1_554 S
C1172 C1171 1.524 1_556 S
C1172 C1173 1.397 . S
C1172 C1177 1.363 . S
C1173 H1144 0.950 . S
C1173 C1172 1.397 . S
C1173 C1174 1.334 . S
C1174 H1145 0.950 . S
C1174 C1173 1.334 . S
C1174 C1175 1.287 . S
C1175 C1174 1.287 . S
C1175 C1176 1.524 . S
C1175 H1178 0.999 . S
C1176 H1146 0.950 . S
C1176 C1175 1.524 . S
C1176 C1177 1.415 . S
C1177 H1147 0.950 . S
C1177 C1172 1.363 . S
C1177 C1176 1.415 . S
H1178 C1175 0.999 . S
H1179 C1160 0.913 . S
H1180 C1198 0.951 . S
H1181 C1200 0.951 . S
H1182 C1202 0.950 . S
H1183 C1203 0.950 . S
H1184 C1205 0.950 . S
H1185 C1208 0.950 . S
H1186 C1209 0.950 . S
H1187 C1211 0.950 . S
H1188 C1212 0.950 . S
H1189 C1213 0.951 . S
H1190 C1215 0.951 . S
H1191 C1217 0.950 . S
H1192 C1218 0.950 . S
H1193 C1220 0.950 . S
H1194 C1223 0.950 1_554 S
H1195 C1224 0.950 . S
H1196 C1226 0.950 . S
H1197 C1227 0.950 . S
C1198 H1180 0.951 . S
C1198 C1199 1.366 . S
C1198 C1200 1.388 . S
C1199 C1198 1.366 . S
C1199 C1203 1.385 . S
C1200 H1181 0.951 . S
C1200 C1198 1.388 . S
C1200 C1201 1.366 . S
C1201 C1200 1.366 . S
C1201 C1202 1.414 . S
C1201 C1204 1.499 . S
C1202 H1182 0.950 . S
C1202 C1201 1.414 . S
C1202 C1203 1.374 . S
C1203 H1183 0.950 . S
C1203 C1199 1.385 . S
C1203 C1202 1.374 . S
C1204 C1201 1.499 . S
C1204 C1205 1.373 . S
C1204 C1206 1.389 . S
C1205 H1184 0.950 . S
C1205 C1204 1.373 . S
C1205 C1221 1.377 . S
C1206 C1204 1.389 . S
C1206 C1207 1.524 . S
C1206 C1220 1.377 . S
C1207 C1206 1.524 . S
C1207 C1208 1.397 . S
C1207 C1212 1.363 . S
C1208 H1185 0.950 . S
C1208 C1207 1.397 . S
C1208 C1209 1.334 . S
C1209 H1186 0.950 . S
C1209 C1208 1.334 . S
C1209 C1210 1.287 . S
C1210 C1209 1.287 . S
C1210 C1211 1.524 . S
C1210 H1229 0.913 . S
C1211 H1187 0.950 . S
C1211 C1210 1.524 . S
C1211 C1212 1.415 . S
C1212 H1188 0.950 . S
C1212 C1207 1.363 . S
C1212 C1211 1.415 . S
C1213 H1189 0.951 . S
C1213 C1214 1.366 . S
C1213 C1215 1.388 . S
C1214 C1213 1.366 . S
C1214 C1218 1.385 . S
C1215 H1190 0.951 . S
C1215 C1213 1.388 . S
C1215 C1216 1.366 . S
C1216 C1215 1.366 . S
C1216 C1217 1.414 . S
C1216 C1219 1.499 . S
C1217 H1191 0.950 . S
C1217 C1216 1.414 . S
C1217 C1218 1.374 . S
C1218 H1192 0.950 . S
C1218 C1214 1.385 . S
C1218 C1217 1.374 . S
C1219 C1216 1.499 . S
C1219 C1220 1.373 . S
C1219 C1221 1.389 . S
C1220 H1193 0.950 . S
C1220 C1206 1.377 . S
C1220 C1219 1.373 . S
C1221 C1205 1.377 . S
C1221 C1219 1.389 . S
C1221 C1222 1.524 . S
C1222 C1221 1.524 . S
C1222 C1223 1.397 1_554 S
C1222 C1227 1.363 . S
C1223 H1194 0.950 1_556 S
C1223 C1222 1.397 1_556 S
C1223 C1224 1.334 . S
C1224 H1195 0.950 . S
C1224 C1223 1.334 . S
C1224 C1225 1.287 . S
C1225 C1224 1.287 . S
C1225 C1226 1.524 . S
C1225 H1228 0.999 . S
C1226 H1196 0.950 . S
C1226 C1225 1.524 . S
C1226 C1227 1.415 1_556 S
C1227 H1197 0.950 . S
C1227 C1222 1.363 . S
C1227 C1226 1.415 1_554 S
H1228 C1225 0.999 . S
H1229 C1210 0.913 . S
H1230 C1248 0.951 . S
H1231 C1250 0.951 . S
H1232 C1252 0.950 . S
H1233 C1253 0.950 . S
H1234 C1255 0.950 . S
H1235 C1258 0.950 . S
H1236 C1259 0.950 . S
H1237 C1261 0.950 . S
H1238 C1262 0.950 . S
H1239 C1263 0.951 . S
H1240 C1265 0.951 . S
H1241 C1267 0.950 . S
H1242 C1268 0.950 . S
H1243 C1270 0.950 . S
H1244 C1273 0.950 . S
H1245 C1274 0.950 . S
H1246 C1276 0.950 . S
H1247 C1277 0.950 . S
C1248 H1230 0.951 . S
C1248 C1249 1.366 . S
C1248 C1250 1.388 . S
C1249 C1248 1.366 . S
C1249 C1253 1.385 . S
C1250 H1231 0.951 . S
C1250 C1248 1.388 . S
C1250 C1251 1.366 . S
C1251 C1250 1.366 . S
C1251 C1252 1.414 . S
C1251 C1254 1.499 . S
C1252 H1232 0.950 . S
C1252 C1251 1.414 . S
C1252 C1253 1.374 . S
C1253 H1233 0.950 . S
C1253 C1249 1.385 . S
C1253 C1252 1.374 . S
C1254 C1251 1.499 . S
C1254 C1255 1.373 . S
C1254 C1256 1.389 . S
C1255 H1234 0.950 . S
C1255 C1254 1.373 . S
C1255 C1271 1.377 . S
C1256 C1254 1.389 . S
C1256 C1257 1.524 . S
C1256 C1270 1.377 . S
C1257 C1256 1.524 . S
C1257 C1258 1.397 . S
C1257 C1262 1.363 . S
C1258 H1235 0.950 . S
C1258 C1257 1.397 . S
C1258 C1259 1.334 . S
C1259 H1236 0.950 . S
C1259 C1258 1.334 . S
C1259 C1260 1.287 . S
C1260 C1259 1.287 . S
C1260 C1261 1.524 . S
C1260 H1279 0.913 . S
C1261 H1237 0.950 . S
C1261 C1260 1.524 . S
C1261 C1262 1.415 . S
C1262 H1238 0.950 . S
C1262 C1257 1.363 . S
C1262 C1261 1.415 . S
C1263 H1239 0.951 . S
C1263 C1264 1.366 . S
C1263 C1265 1.388 . S
C1264 C1263 1.366 . S
C1264 C1268 1.385 . S
C1265 H1240 0.951 . S
C1265 C1263 1.388 . S
C1265 C1266 1.366 . S
C1266 C1265 1.366 . S
C1266 C1267 1.414 . S
C1266 C1269 1.499 . S
C1267 H1241 0.950 . S
C1267 C1266 1.414 . S
C1267 C1268 1.374 . S
C1268 H1242 0.950 . S
C1268 C1264 1.385 . S
C1268 C1267 1.374 . S
C1269 C1266 1.499 . S
C1269 C1270 1.373 . S
C1269 C1271 1.389 . S
C1270 H1243 0.950 . S
C1270 C1256 1.377 . S
C1270 C1269 1.373 . S
C1271 C1255 1.377 . S
C1271 C1269 1.389 . S
C1271 C1272 1.524 . S
C1272 C1271 1.524 . S
C1272 C1273 1.397 . S
C1272 C1277 1.363 . S
C1273 H1244 0.950 . S
C1273 C1272 1.397 . S
C1273 C1274 1.334 . S
C1274 H1245 0.950 . S
C1274 C1273 1.334 . S
C1274 C1275 1.287 . S
C1275 C1274 1.287 . S
C1275 C1276 1.524 . S
C1275 H1278 0.999 . S
C1276 H1246 0.950 . S
C1276 C1275 1.524 . S
C1276 C1277 1.415 . S
C1277 H1247 0.950 . S
C1277 C1272 1.363 . S
C1277 C1276 1.415 . S
H1278 C1275 0.999 . S
H1279 C1260 0.913 . S
H1280 C1298 0.951 . S
H1281 C1300 0.951 . S
H1282 C1302 0.950 . S
H1283 C1303 0.950 . S
H1284 C1305 0.950 . S
H1285 C1308 0.950 . S
H1286 C1309 0.950 . S
H1287 C1311 0.950 . S
H1288 C1312 0.950 . S
H1289 C1313 0.951 . S
H1290 C1315 0.951 . S
H1291 C1317 0.950 . S
H1292 C1318 0.950 . S
H1293 C1320 0.950 1_565 S
H1294 C1323 0.950 . S
H1295 C1324 0.950 . S
H1296 C1326 0.950 . S
H1297 C1327 0.950 . S
C1298 H1280 0.951 . S
C1298 C1299 1.366 . S
C1298 C1300 1.388 . S
C1299 C1298 1.366 . S
C1299 C1303 1.385 . S
C1300 H1281 0.951 . S
C1300 C1298 1.388 . S
C1300 C1301 1.366 . S
C1301 C1300 1.366 . S
C1301 C1302 1.414 . S
C1301 C1304 1.499 . S
C1302 H1282 0.950 . S
C1302 C1301 1.414 . S
C1302 C1303 1.374 . S
C1303 H1283 0.950 . S
C1303 C1299 1.385 . S
C1303 C1302 1.374 . S
C1304 C1301 1.499 . S
C1304 C1305 1.373 . S
C1304 C1306 1.389 . S
C1305 H1284 0.950 . S
C1305 C1304 1.373 . S
C1305 C1321 1.377 . S
C1306 C1304 1.389 . S
C1306 C1307 1.524 . S
C1306 C1320 1.377 . S
C1307 C1306 1.524 . S
C1307 C1308 1.397 . S
C1307 C1312 1.363 . S
C1308 H1285 0.950 . S
C1308 C1307 1.397 . S
C1308 C1309 1.334 . S
C1309 H1286 0.950 . S
C1309 C1308 1.334 . S
C1309 C1310 1.287 . S
C1310 C1309 1.287 . S
C1310 C1311 1.524 . S
C1310 H1329 0.913 . S
C1311 H1287 0.950 . S
C1311 C1310 1.524 . S
C1311 C1312 1.415 . S
C1312 H1288 0.950 . S
C1312 C1307 1.363 . S
C1312 C1311 1.415 . S
C1313 H1289 0.951 . S
C1313 C1314 1.366 . S
C1313 C1315 1.388 . S
C1314 C1313 1.366 . S
C1314 C1318 1.385 . S
C1315 H1290 0.951 . S
C1315 C1313 1.388 . S
C1315 C1316 1.366 . S
C1316 C1315 1.366 . S
C1316 C1317 1.414 . S
C1316 C1319 1.499 1_565 S
C1317 H1291 0.950 . S
C1317 C1316 1.414 . S
C1317 C1318 1.374 . S
C1318 H1292 0.950 . S
C1318 C1314 1.385 . S
C1318 C1317 1.374 . S
C1319 C1316 1.499 1_545 S
C1319 C1320 1.373 . S
C1319 C1321 1.389 . S
C1320 H1293 0.950 1_545 S
C1320 C1306 1.377 . S
C1320 C1319 1.373 . S
C1321 C1305 1.377 . S
C1321 C1319 1.389 . S
C1321 C1322 1.524 . S
C1322 C1321 1.524 . S
C1322 C1323 1.397 . S
C1322 C1327 1.363 . S
C1323 H1294 0.950 . S
C1323 C1322 1.397 . S
C1323 C1324 1.334 . S
C1324 H1295 0.950 . S
C1324 C1323 1.334 . S
C1324 C1325 1.287 . S
C1325 C1324 1.287 . S
C1325 C1326 1.524 . S
C1325 H1328 0.999 . S
C1326 H1296 0.950 . S
C1326 C1325 1.524 . S
C1326 C1327 1.415 . S
C1327 H1297 0.950 . S
C1327 C1322 1.363 . S
C1327 C1326 1.415 . S
H1328 C1325 0.999 . S
H1329 C1310 0.913 . S
H1330 C1348 0.951 . S
H1331 C1350 0.951 1_455 S
H1332 C1352 0.950 . S
H1333 C1353 0.950 . S
H1334 C1355 0.950 1_655 S
H1335 C1358 0.950 . S
H1336 C1359 0.950 . S
H1337 C1361 0.950 . S
H1338 C1362 0.950 . S
H1339 C1363 0.951 . S
H1340 C1365 0.951 . S
H1341 C1367 0.950 . S
H1342 C1368 0.950 . S
H1343 C1370 0.950 . S
H1344 C1373 0.950 . S
H1345 C1374 0.950 . S
H1346 C1376 0.950 1_655 S
H1347 C1377 0.977 . S
C1348 H1330 0.951 . S
C1348 C1349 1.366 . S
C1348 C1350 1.388 . S
C1349 C1348 1.366 . S
C1349 C1353 1.385 . S
C1350 H1331 0.951 1_655 S
C1350 C1348 1.388 . S
C1350 C1351 1.366 . S
C1351 C1350 1.366 . S
C1351 C1352 1.414 . S
C1351 C1354 1.499 1_655 S
C1352 H1332 0.950 . S
C1352 C1351 1.414 . S
C1352 C1353 1.374 . S
C1353 H1333 0.950 . S
C1353 C1349 1.385 . S
C1353 C1352 1.374 . S
C1354 C1351 1.499 1_455 S
C1354 C1355 1.373 . S
C1354 C1356 1.389 . S
C1355 H1334 0.950 1_455 S
C1355 C1354 1.373 . S
C1355 C1371 1.377 . S
C1356 C1354 1.389 . S
C1356 C1357 1.524 . S
C1356 C1370 1.377 . S
C1357 C1356 1.524 . S
C1357 C1358 1.397 . S
C1357 C1362 1.363 . S
C1358 H1335 0.950 . S
C1358 C1357 1.397 . S
C1358 C1359 1.334 . S
C1359 H1336 0.950 . S
C1359 C1358 1.334 . S
C1359 C1360 1.287 . S
C1360 C1359 1.287 . S
C1360 C1361 1.524 . S
C1360 H1379 0.913 . S
C1361 H1337 0.950 . S
C1361 C1360 1.524 . S
C1361 C1362 1.415 . S
C1362 H1338 0.950 . S
C1362 C1357 1.363 . S
C1362 C1361 1.415 . S
C1363 H1339 0.951 . S
C1363 C1364 1.366 . S
C1363 C1365 1.388 . S
C1364 C1363 1.366 . S
C1364 C1368 1.385 . S
C1365 H1340 0.951 . S
C1365 C1363 1.388 . S
C1365 C1366 1.366 . S
C1366 C1365 1.366 . S
C1366 C1367 1.414 . S
C1366 C1369 1.499 . S
C1367 H1341 0.950 . S
C1367 C1366 1.414 . S
C1367 C1368 1.374 . S
C1368 H1342 0.950 . S
C1368 C1364 1.385 . S
C1368 C1367 1.374 . S
C1369 C1366 1.499 . S
C1369 C1370 1.373 . S
C1369 C1371 1.389 . S
C1370 H1343 0.950 . S
C1370 C1356 1.377 . S
C1370 C1369 1.373 . S
C1371 C1355 1.377 . S
C1371 C1369 1.389 . S
C1371 C1372 1.524 . S
C1372 C1371 1.524 . S
C1372 C1373 1.397 . S
C1372 C1377 1.363 . S
C1373 H1344 0.950 . S
C1373 C1372 1.397 . S
C1373 C1374 1.334 . S
C1374 H1345 0.950 . S
C1374 C1373 1.334 . S
C1374 C1375 1.287 . S
C1375 C1374 1.287 . S
C1375 C1376 1.524 . S
C1375 H1378 0.999 . S
C1376 H1346 0.950 1_455 S
C1376 C1375 1.524 . S
C1376 C1377 1.415 . S
C1377 H1347 0.977 . S
C1377 C1372 1.363 . S
C1377 C1376 1.415 . S
H1378 C1375 0.999 . S
H1379 C1360 0.913 . S
H1380 C1398 0.951 . S
H1381 C1400 0.951 . S
H1382 C1402 0.950 . S
H1383 C1403 0.950 . S
H1384 C1405 0.950 . S
H1385 C1408 0.950 . S
H1386 C1409 0.950 . S
H1387 C1411 0.950 . S
H1388 C1412 0.950 . S
H1389 C1413 0.951 . S
H1390 C1415 0.951 . S
H1391 C1417 0.950 . S
H1392 C1418 0.950 . S
H1393 C1420 0.950 . S
H1394 C1423 0.950 . S
H1395 C1424 0.950 . S
H1396 C1426 0.950 . S
H1397 C1427 0.950 . S
C1398 H1380 0.951 . S
C1398 C1399 1.366 . S
C1398 C1400 1.388 . S
C1399 C1398 1.366 . S
C1399 C1403 1.385 . S
C1400 H1381 0.951 . S
C1400 C1398 1.388 . S
C1400 C1401 1.366 . S
C1401 C1400 1.366 . S
C1401 C1402 1.414 . S
C1401 C1404 1.499 . S
C1402 H1382 0.950 . S
C1402 C1401 1.414 . S
C1402 C1403 1.374 . S
C1403 H1383 0.950 . S
C1403 C1399 1.385 . S
C1403 C1402 1.374 . S
C1404 C1401 1.499 . S
C1404 C1405 1.373 . S
C1404 C1406 1.389 . S
C1405 H1384 0.950 . S
C1405 C1404 1.373 . S
C1405 C1421 1.377 . S
C1406 C1404 1.389 . S
C1406 C1407 1.524 . S
C1406 C1420 1.377 . S
C1407 C1406 1.524 . S
C1407 C1408 1.397 . S
C1407 C1412 1.363 . S
C1408 H1385 0.950 . S
C1408 C1407 1.397 . S
C1408 C1409 1.334 . S
C1409 H1386 0.950 . S
C1409 C1408 1.334 . S
C1409 C1410 1.287 . S
C1410 C1409 1.287 . S
C1410 C1411 1.524 . S
C1410 H1429 0.913 . S
C1411 H1387 0.950 . S
C1411 C1410 1.524 . S
C1411 C1412 1.415 . S
C1412 H1388 0.950 . S
C1412 C1407 1.363 . S
C1412 C1411 1.415 . S
C1413 H1389 0.951 . S
C1413 C1414 1.366 . S
C1413 C1415 1.388 . S
C1414 C1413 1.366 . S
C1414 C1418 1.385 . S
C1415 H1390 0.951 . S
C1415 C1413 1.388 . S
C1415 C1416 1.366 . S
C1416 C1415 1.366 . S
C1416 C1417 1.414 . S
C1416 C1419 1.499 . S
C1417 H1391 0.950 . S
C1417 C1416 1.414 . S
C1417 C1418 1.374 . S
C1418 H1392 0.950 . S
C1418 C1414 1.385 . S
C1418 C1417 1.374 . S
C1419 C1416 1.499 . S
C1419 C1420 1.373 . S
C1419 C1421 1.389 . S
C1420 H1393 0.950 . S
C1420 C1406 1.377 . S
C1420 C1419 1.373 . S
C1421 C1405 1.377 . S
C1421 C1419 1.389 . S
C1421 C1422 1.524 . S
C1422 C1421 1.524 . S
C1422 C1423 1.397 . S
C1422 C1427 1.363 . S
C1423 H1394 0.950 . S
C1423 C1422 1.397 . S
C1423 C1424 1.334 . S
C1424 H1395 0.950 . S
C1424 C1423 1.334 . S
C1424 C1425 1.287 . S
C1425 C1424 1.287 . S
C1425 C1426 1.524 . S
C1425 H1428 0.999 . S
C1426 H1396 0.950 . S
C1426 C1425 1.524 . S
C1426 C1427 1.415 . S
C1427 H1397 0.950 . S
C1427 C1422 1.363 . S
C1427 C1426 1.415 . S
H1428 C1425 0.999 . S
H1429 C1410 0.913 . S
H1430 C1448 0.951 . S
H1431 C1450 0.951 . S
H1432 C1452 0.950 . S
H1433 C1453 0.950 . S
H1434 C1455 0.950 . S
H1435 C1458 0.950 . S
H1436 C1459 0.950 . S
H1437 C1461 0.950 . S
H1438 C1462 0.950 1_545 S
H1439 C1463 0.951 . S
H1440 C1465 0.951 . S
H1441 C1467 0.950 . S
H1442 C1468 0.950 . S
H1443 C1470 0.950 . S
H1444 C1473 0.950 . S
H1445 C1474 0.950 . S
H1446 C1476 0.950 . S
H1447 C1477 0.950 . S
C1448 H1430 0.951 . S
C1448 C1449 1.366 . S
C1448 C1450 1.388 . S
C1449 C1448 1.366 . S
C1449 C1453 1.385 . S
C1450 H1431 0.951 . S
C1450 C1448 1.388 . S
C1450 C1451 1.366 . S
C1451 C1450 1.366 . S
C1451 C1452 1.414 . S
C1451 C1454 1.499 . S
C1452 H1432 0.950 . S
C1452 C1451 1.414 . S
C1452 C1453 1.374 . S
C1453 H1433 0.950 . S
C1453 C1449 1.385 . S
C1453 C1452 1.374 . S
C1454 C1451 1.499 . S
C1454 C1455 1.373 1_565 S
C1454 C1456 1.389 1_565 S
C1455 H1434 0.950 . S
C1455 C1454 1.373 1_545 S
C1455 C1471 1.377 . S
C1456 C1454 1.389 1_545 S
C1456 C1457 1.524 1_545 S
C1456 C1470 1.377 . S
C1457 C1456 1.524 1_565 S
C1457 C1458 1.397 . S
C1457 C1462 1.363 . S
C1458 H1435 0.950 . S
C1458 C1457 1.397 . S
C1458 C1459 1.334 . S
C1459 H1436 0.950 . S
C1459 C1458 1.334 . S
C1459 C1460 1.287 . S
C1460 C1459 1.287 . S
C1460 C1461 1.524 . S
C1460 H1479 0.913 . S
C1461 H1437 0.950 . S
C1461 C1460 1.524 . S
C1461 C1462 1.415 . S
C1462 H1438 0.950 1_565 S
C1462 C1457 1.363 . S
C1462 C1461 1.415 . S
C1463 H1439 0.951 . S
C1463 C1464 1.366 . S
C1463 C1465 1.388 . S
C1464 C1463 1.366 . S
C1464 C1468 1.385 . S
C1465 H1440 0.951 . S
C1465 C1463 1.388 . S
C1465 C1466 1.366 . S
C1466 C1465 1.366 . S
C1466 C1467 1.414 . S
C1466 C1469 1.499 . S
C1467 H1441 0.950 . S
C1467 C1466 1.414 . S
C1467 C1468 1.374 . S
C1468 H1442 0.950 . S
C1468 C1464 1.385 . S
C1468 C1467 1.374 . S
C1469 C1466 1.499 . S
C1469 C1470 1.373 . S
C1469 C1471 1.389 . S
C1470 H1443 0.950 . S
C1470 C1456 1.377 . S
C1470 C1469 1.373 . S
C1471 C1455 1.377 . S
C1471 C1469 1.389 . S
C1471 C1472 1.524 . S
C1472 C1471 1.524 . S
C1472 C1473 1.397 . S
C1472 C1477 1.363 . S
C1473 H1444 0.950 . S
C1473 C1472 1.397 . S
C1473 C1474 1.334 . S
C1474 H1445 0.950 . S
C1474 C1473 1.334 . S
C1474 C1475 1.287 . S
C1475 C1474 1.287 . S
C1475 C1476 1.524 . S
C1475 H1478 0.999 . S
C1476 H1446 0.950 . S
C1476 C1475 1.524 . S
C1476 C1477 1.415 . S
C1477 H1447 0.950 . S
C1477 C1472 1.363 . S
C1477 C1476 1.415 . S
H1478 C1475 0.999 . S
H1479 C1460 0.913 . S
H1480 C1498 0.951 . S
H1481 C1500 0.951 1_455 S
H1482 C1502 0.950 . S
H1483 C1503 0.950 . S
H1484 C1505 0.950 . S
H1485 C1508 0.950 . S
H1486 C1509 0.950 . S
H1487 C1511 0.950 . S
H1488 C1512 0.950 . S
H1489 C1513 0.951 . S
H1490 C1515 0.951 . S
H1491 C1517 0.950 . S
H1492 C1518 0.950 . S
H1493 C1520 0.950 . S
H1494 C1523 0.950 . S
H1495 C1524 0.950 . S
H1496 C1526 0.950 . S
H1497 C1527 0.950 . S
C1498 H1480 0.951 . S
C1498 C1499 1.366 . S
C1498 C1500 1.388 . S
C1499 C1498 1.366 . S
C1499 C1503 1.385 . S
C1500 H1481 0.951 1_655 S
C1500 C1498 1.388 . S
C1500 C1501 1.359 . S
C1501 C1500 1.359 . S
C1501 C1502 1.443 . S
C1501 C1504 1.478 1_655 S
C1502 H1482 0.950 . S
C1502 C1501 1.443 . S
C1502 C1503 1.374 . S
C1503 H1483 0.950 . S
C1503 C1499 1.385 . S
C1503 C1502 1.374 . S
C1504 C1501 1.478 1_455 S
C1504 C1505 1.373 . S
C1504 C1506 1.389 . S
C1505 H1484 0.950 . S
C1505 C1504 1.373 . S
C1505 C1521 1.377 . S
C1506 C1504 1.389 . S
C1506 C1507 1.524 . S
C1506 C1520 1.377 . S
C1507 C1506 1.524 . S
C1507 C1508 1.397 . S
C1507 C1512 1.363 . S
C1508 H1485 0.950 . S
C1508 C1507 1.397 . S
C1508 C1509 1.334 . S
C1509 H1486 0.950 . S
C1509 C1508 1.334 . S
C1509 C1510 1.287 . S
C1510 C1509 1.287 . S
C1510 C1511 1.524 . S
C1510 H1529 0.913 . S
C1511 H1487 0.950 . S
C1511 C1510 1.524 . S
C1511 C1512 1.415 . S
C1512 H1488 0.950 . S
C1512 C1507 1.363 . S
C1512 C1511 1.415 . S
C1513 H1489 0.951 . S
C1513 C1514 1.366 . S
C1513 C1515 1.388 . S
C1514 C1513 1.366 . S
C1514 C1518 1.385 . S
C1515 H1490 0.951 . S
C1515 C1513 1.388 . S
C1515 C1516 1.366 . S
C1516 C1515 1.366 . S
C1516 C1517 1.414 . S
C1516 C1519 1.499 . S
C1517 H1491 0.950 . S
C1517 C1516 1.414 . S
C1517 C1518 1.374 . S
C1518 H1492 0.950 . S
C1518 C1514 1.385 . S
C1518 C1517 1.374 . S
C1519 C1516 1.499 . S
C1519 C1520 1.373 . S
C1519 C1521 1.389 . S
C1520 H1493 0.950 . S
C1520 C1506 1.377 . S
C1520 C1519 1.373 . S
C1521 C1505 1.377 . S
C1521 C1519 1.389 . S
C1521 C1522 1.524 . S
C1522 C1521 1.524 . S
C1522 C1523 1.397 . S
C1522 C1527 1.363 . S
C1523 H1494 0.950 . S
C1523 C1522 1.397 . S
C1523 C1524 1.334 . S
C1524 H1495 0.950 . S
C1524 C1523 1.334 . S
C1524 C1525 1.287 . S
C1525 C1524 1.287 . S
C1525 C1526 1.524 . S
C1525 H1528 0.999 . S
C1526 H1496 0.950 . S
C1526 C1525 1.524 . S
C1526 C1527 1.415 . S
C1527 H1497 0.950 . S
C1527 C1522 1.363 . S
C1527 C1526 1.415 . S
H1528 C1525 0.999 . S
H1529 C1510 0.913 . S
C199 C8 1.462 . S
C214 C9 1.462 . S
C249 C28 1.491 . S
C264 C29 1.491 . S
C299 C48 1.512 1_556 S
C314 C49 1.512 . S
C349 C69 1.461 . S
C364 C68 1.461 . S
C399 C89 1.491 . S
C414 C88 1.491 . S
C449 C109 1.512 . S
C464 C108 1.512 1_556 S
C499 C122 0.568 . S
C514 C121 0.568 . S
C549 C141 0.565 . S
C564 C142 0.565 . S
C599 C162 0.560 . S
C614 C161 0.560 . S
C649 C118 1.920 . S
C664 C2 1.922 . S
C699 C22 1.898 . S
C714 C78 1.902 . S
C749 C42 1.986 1_565 S
C764 C98 2.003 . S
C799 C58 1.611 . S
C814 C139 1.699 . S
C849 C149 1.150 . S
C864 C18 1.120 . S
C899 C179 1.636 . S
C914 C38 1.554 . S
C949 C168 1.166 . S
C964 C1 1.164 . S
C999 C21 1.208 . S
C1014 C128 1.215 . S
C1049 C158 1.736 . S
C1064 C41 1.697 . S
C1099 C59 1.920 . S
C1114 C61 1.921 . S
C1149 C81 1.898 . S
C1164 C19 1.902 . S
C1199 C39 2.003 . S
C1214 C101 1.986 . S
C1249 C169 1.168 . S
C1264 C62 1.164 . S
C1299 C129 1.214 . S
C1314 C82 1.208 . S
C1349 C159 1.736 . S
C1364 C102 1.697 . S
C1399 C138 1.699 . S
C1414 C119 1.611 . S
C1449 C79 1.123 . S
C1464 C148 1.149 . S
C1499 C178 1.636 . S
C1514 C99 1.553 . S
