# Generated by pormake.
# Topology uky, (4)-cn, num edge types: 1
# Building blocks:
#     Node 0, Type 0, BuildingBlock: QUQFOY_clean_sbu_1, # of connection points: 4
#     Node 1, Type 0, BuildingBlock: QUQFOY_clean_sbu_1, # of connection points: 4
#     Node 2, Type 0, BuildingBlock: QUQFOY_clean_sbu_1, # of connection points: 4
#     Node 3, Type 0, BuildingBlock: QUQFOY_clean_sbu_1, # of connection points: 4
#     Node 4, Type 0, BuildingBlock: QUQFOY_clean_sbu_1, # of connection points: 4
#     Node 5, Type 0, BuildingBlock: QUQFOY_clean_sbu_1, # of connection points: 4
#     Node 6, Type 0, BuildingBlock: QUQFOY_clean_sbu_1, # of connection points: 4
#     Node 7, Type 0, BuildingBlock: QUQFOY_clean_sbu_1, # of connection points: 4
#     Node 8, Type 0, BuildingBlock: QUQFOY_clean_sbu_1, # of connection points: 4
#     Node 9, Type 0, BuildingBlock: QUQFOY_clean_sbu_1, # of connection points: 4
#     Node 10, Type 0, BuildingBlock: QUQFOY_clean_sbu_1, # of connection points: 4
#     Node 11, Type 0, BuildingBlock: QUQFOY_clean_sbu_1, # of connection points: 4
#     Node 12, Type 0, BuildingBlock: QUQFOY_clean_sbu_1, # of connection points: 4
#     Node 13, Type 0, BuildingBlock: QUQFOY_clean_sbu_1, # of connection points: 4
#     Node 14, Type 0, BuildingBlock: QUQFOY_clean_sbu_1, # of connection points: 4
#     Node 15, Type 0, BuildingBlock: QUQFOY_clean_sbu_1, # of connection points: 4
#     Node 16, Type 0, BuildingBlock: QUQFOY_clean_sbu_1, # of connection points: 4
#     Node 17, Type 0, BuildingBlock: QUQFOY_clean_sbu_1, # of connection points: 4
#     Node 18, Type 0, BuildingBlock: QUQFOY_clean_sbu_1, # of connection points: 4
#     Node 19, Type 0, BuildingBlock: QUQFOY_clean_sbu_1, # of connection points: 4
#     Node 20, Type 0, BuildingBlock: QUQFOY_clean_sbu_1, # of connection points: 4
#     Node 21, Type 0, BuildingBlock: QUQFOY_clean_sbu_1, # of connection points: 4
#     Node 22, Type 0, BuildingBlock: QUQFOY_clean_sbu_1, # of connection points: 4
#     Node 23, Type 0, BuildingBlock: QUQFOY_clean_sbu_1, # of connection points: 4
#     Node 24, Type 0, BuildingBlock: QUQFOY_clean_sbu_1, # of connection points: 4
#     Node 25, Type 0, BuildingBlock: QUQFOY_clean_sbu_1, # of connection points: 4
#     Node 26, Type 0, BuildingBlock: QUQFOY_clean_sbu_1, # of connection points: 4
#     Node 27, Type 0, BuildingBlock: QUQFOY_clean_sbu_1, # of connection points: 4
#     Node 28, Type 0, BuildingBlock: QUQFOY_clean_sbu_1, # of connection points: 4
#     Node 29, Type 0, BuildingBlock: QUQFOY_clean_sbu_1, # of connection points: 4
#     Node 30, Type 0, BuildingBlock: QUQFOY_clean_sbu_1, # of connection points: 4
#     Node 31, Type 0, BuildingBlock: QUQFOY_clean_sbu_1, # of connection points: 4
#     Node 32, Type 0, BuildingBlock: QUQFOY_clean_sbu_1, # of connection points: 4
#     Node 33, Type 0, BuildingBlock: QUQFOY_clean_sbu_1, # of connection points: 4
#     Node 34, Type 0, BuildingBlock: QUQFOY_clean_sbu_1, # of connection points: 4
#     Node 35, Type 0, BuildingBlock: QUQFOY_clean_sbu_1, # of connection points: 4
#     Node 36, Type 0, BuildingBlock: QUQFOY_clean_sbu_1, # of connection points: 4
#     Node 37, Type 0, BuildingBlock: QUQFOY_clean_sbu_1, # of connection points: 4
#     Node 38, Type 0, BuildingBlock: QUQFOY_clean_sbu_1, # of connection points: 4
#     Node 39, Type 0, BuildingBlock: QUQFOY_clean_sbu_1, # of connection points: 4
#     Node 40, Type 0, BuildingBlock: QUQFOY_clean_sbu_1, # of connection points: 4
#     Node 41, Type 0, BuildingBlock: QUQFOY_clean_sbu_1, # of connection points: 4
#     Node 42, Type 0, BuildingBlock: QUQFOY_clean_sbu_1, # of connection points: 4
#     Node 43, Type 0, BuildingBlock: QUQFOY_clean_sbu_1, # of connection points: 4
#     Node 44, Type 0, BuildingBlock: QUQFOY_clean_sbu_1, # of connection points: 4
#     Node 45, Type 0, BuildingBlock: QUQFOY_clean_sbu_1, # of connection points: 4
#     Node 46, Type 0, BuildingBlock: QUQFOY_clean_sbu_1, # of connection points: 4
#     Node 47, Type 0, BuildingBlock: QUQFOY_clean_sbu_1, # of connection points: 4
#     Edge 48, Type (0, 0), BuildingBlock: XUDNAN_clean_linker_2, # of connection points: 2
#     Edge 49, Type (0, 0), BuildingBlock: XUDNAN_clean_linker_2, # of connection points: 2
#     Edge 50, Type (0, 0), BuildingBlock: XUDNAN_clean_linker_2, # of connection points: 2
#     Edge 51, Type (0, 0), BuildingBlock: XUDNAN_clean_linker_2, # of connection points: 2
#     Edge 52, Type (0, 0), BuildingBlock: XUDNAN_clean_linker_2, # of connection points: 2
#     Edge 53, Type (0, 0), BuildingBlock: XUDNAN_clean_linker_2, # of connection points: 2
#     Edge 54, Type (0, 0), BuildingBlock: XUDNAN_clean_linker_2, # of connection points: 2
#     Edge 55, Type (0, 0), BuildingBlock: XUDNAN_clean_linker_2, # of connection points: 2
#     Edge 56, Type (0, 0), BuildingBlock: XUDNAN_clean_linker_2, # of connection points: 2
#     Edge 57, Type (0, 0), BuildingBlock: XUDNAN_clean_linker_2, # of connection points: 2
#     Edge 58, Type (0, 0), BuildingBlock: XUDNAN_clean_linker_2, # of connection points: 2
#     Edge 59, Type (0, 0), BuildingBlock: XUDNAN_clean_linker_2, # of connection points: 2
#     Edge 60, Type (0, 0), BuildingBlock: XUDNAN_clean_linker_2, # of connection points: 2
#     Edge 61, Type (0, 0), BuildingBlock: XUDNAN_clean_linker_2, # of connection points: 2
#     Edge 62, Type (0, 0), BuildingBlock: XUDNAN_clean_linker_2, # of connection points: 2
#     Edge 63, Type (0, 0), BuildingBlock: XUDNAN_clean_linker_2, # of connection points: 2
#     Edge 64, Type (0, 0), BuildingBlock: XUDNAN_clean_linker_2, # of connection points: 2
#     Edge 65, Type (0, 0), BuildingBlock: XUDNAN_clean_linker_2, # of connection points: 2
#     Edge 66, Type (0, 0), BuildingBlock: XUDNAN_clean_linker_2, # of connection points: 2
#     Edge 67, Type (0, 0), BuildingBlock: XUDNAN_clean_linker_2, # of connection points: 2
#     Edge 68, Type (0, 0), BuildingBlock: XUDNAN_clean_linker_2, # of connection points: 2
#     Edge 69, Type (0, 0), BuildingBlock: XUDNAN_clean_linker_2, # of connection points: 2
#     Edge 70, Type (0, 0), BuildingBlock: XUDNAN_clean_linker_2, # of connection points: 2
#     Edge 71, Type (0, 0), BuildingBlock: XUDNAN_clean_linker_2, # of connection points: 2
#     Edge 72, Type (0, 0), BuildingBlock: XUDNAN_clean_linker_2, # of connection points: 2
#     Edge 73, Type (0, 0), BuildingBlock: XUDNAN_clean_linker_2, # of connection points: 2
#     Edge 74, Type (0, 0), BuildingBlock: XUDNAN_clean_linker_2, # of connection points: 2
#     Edge 75, Type (0, 0), BuildingBlock: XUDNAN_clean_linker_2, # of connection points: 2
#     Edge 76, Type (0, 0), BuildingBlock: XUDNAN_clean_linker_2, # of connection points: 2
#     Edge 77, Type (0, 0), BuildingBlock: XUDNAN_clean_linker_2, # of connection points: 2
#     Edge 78, Type (0, 0), BuildingBlock: XUDNAN_clean_linker_2, # of connection points: 2
#     Edge 79, Type (0, 0), BuildingBlock: XUDNAN_clean_linker_2, # of connection points: 2
#     Edge 80, Type (0, 0), BuildingBlock: XUDNAN_clean_linker_2, # of connection points: 2
#     Edge 81, Type (0, 0), BuildingBlock: XUDNAN_clean_linker_2, # of connection points: 2
#     Edge 82, Type (0, 0), BuildingBlock: XUDNAN_clean_linker_2, # of connection points: 2
#     Edge 83, Type (0, 0), BuildingBlock: XUDNAN_clean_linker_2, # of connection points: 2
#     Edge 84, Type (0, 0), BuildingBlock: XUDNAN_clean_linker_2, # of connection points: 2
#     Edge 85, Type (0, 0), BuildingBlock: XUDNAN_clean_linker_2, # of connection points: 2
#     Edge 86, Type (0, 0), BuildingBlock: XUDNAN_clean_linker_2, # of connection points: 2
#     Edge 87, Type (0, 0), BuildingBlock: XUDNAN_clean_linker_2, # of connection points: 2
#     Edge 88, Type (0, 0), BuildingBlock: XUDNAN_clean_linker_2, # of connection points: 2
#     Edge 89, Type (0, 0), BuildingBlock: XUDNAN_clean_linker_2, # of connection points: 2
#     Edge 90, Type (0, 0), BuildingBlock: XUDNAN_clean_linker_2, # of connection points: 2
#     Edge 91, Type (0, 0), BuildingBlock: XUDNAN_clean_linker_2, # of connection points: 2
#     Edge 92, Type (0, 0), BuildingBlock: XUDNAN_clean_linker_2, # of connection points: 2
#     Edge 93, Type (0, 0), BuildingBlock: XUDNAN_clean_linker_2, # of connection points: 2
#     Edge 94, Type (0, 0), BuildingBlock: XUDNAN_clean_linker_2, # of connection points: 2
#     Edge 95, Type (0, 0), BuildingBlock: XUDNAN_clean_linker_2, # of connection points: 2
#     Edge 96, Type (0, 0), BuildingBlock: XUDNAN_clean_linker_2, # of connection points: 2
#     Edge 97, Type (0, 0), BuildingBlock: XUDNAN_clean_linker_2, # of connection points: 2
#     Edge 98, Type (0, 0), BuildingBlock: XUDNAN_clean_linker_2, # of connection points: 2
#     Edge 99, Type (0, 0), BuildingBlock: XUDNAN_clean_linker_2, # of connection points: 2
#     Edge 100, Type (0, 0), BuildingBlock: XUDNAN_clean_linker_2, # of connection points: 2
#     Edge 101, Type (0, 0), BuildingBlock: XUDNAN_clean_linker_2, # of connection points: 2
#     Edge 102, Type (0, 0), BuildingBlock: XUDNAN_clean_linker_2, # of connection points: 2
#     Edge 103, Type (0, 0), BuildingBlock: XUDNAN_clean_linker_2, # of connection points: 2
#     Edge 104, Type (0, 0), BuildingBlock: XUDNAN_clean_linker_2, # of connection points: 2
#     Edge 105, Type (0, 0), BuildingBlock: XUDNAN_clean_linker_2, # of connection points: 2
#     Edge 106, Type (0, 0), BuildingBlock: XUDNAN_clean_linker_2, # of connection points: 2
#     Edge 107, Type (0, 0), BuildingBlock: XUDNAN_clean_linker_2, # of connection points: 2
#     Edge 108, Type (0, 0), BuildingBlock: XUDNAN_clean_linker_2, # of connection points: 2
#     Edge 109, Type (0, 0), BuildingBlock: XUDNAN_clean_linker_2, # of connection points: 2
#     Edge 110, Type (0, 0), BuildingBlock: XUDNAN_clean_linker_2, # of connection points: 2
#     Edge 111, Type (0, 0), BuildingBlock: XUDNAN_clean_linker_2, # of connection points: 2
#     Edge 112, Type (0, 0), BuildingBlock: XUDNAN_clean_linker_2, # of connection points: 2
#     Edge 113, Type (0, 0), BuildingBlock: XUDNAN_clean_linker_2, # of connection points: 2
#     Edge 114, Type (0, 0), BuildingBlock: XUDNAN_clean_linker_2, # of connection points: 2
#     Edge 115, Type (0, 0), BuildingBlock: XUDNAN_clean_linker_2, # of connection points: 2
#     Edge 116, Type (0, 0), BuildingBlock: XUDNAN_clean_linker_2, # of connection points: 2
#     Edge 117, Type (0, 0), BuildingBlock: XUDNAN_clean_linker_2, # of connection points: 2
#     Edge 118, Type (0, 0), BuildingBlock: XUDNAN_clean_linker_2, # of connection points: 2
#     Edge 119, Type (0, 0), BuildingBlock: XUDNAN_clean_linker_2, # of connection points: 2
#     Edge 120, Type (0, 0), BuildingBlock: XUDNAN_clean_linker_2, # of connection points: 2
#     Edge 121, Type (0, 0), BuildingBlock: XUDNAN_clean_linker_2, # of connection points: 2
#     Edge 122, Type (0, 0), BuildingBlock: XUDNAN_clean_linker_2, # of connection points: 2
#     Edge 123, Type (0, 0), BuildingBlock: XUDNAN_clean_linker_2, # of connection points: 2
#     Edge 124, Type (0, 0), BuildingBlock: XUDNAN_clean_linker_2, # of connection points: 2
#     Edge 125, Type (0, 0), BuildingBlock: XUDNAN_clean_linker_2, # of connection points: 2
#     Edge 126, Type (0, 0), BuildingBlock: XUDNAN_clean_linker_2, # of connection points: 2
#     Edge 127, Type (0, 0), BuildingBlock: XUDNAN_clean_linker_2, # of connection points: 2
#     Edge 128, Type (0, 0), BuildingBlock: XUDNAN_clean_linker_2, # of connection points: 2
#     Edge 129, Type (0, 0), BuildingBlock: XUDNAN_clean_linker_2, # of connection points: 2
#     Edge 130, Type (0, 0), BuildingBlock: XUDNAN_clean_linker_2, # of connection points: 2
#     Edge 131, Type (0, 0), BuildingBlock: XUDNAN_clean_linker_2, # of connection points: 2
#     Edge 132, Type (0, 0), BuildingBlock: XUDNAN_clean_linker_2, # of connection points: 2
#     Edge 133, Type (0, 0), BuildingBlock: XUDNAN_clean_linker_2, # of connection points: 2
#     Edge 134, Type (0, 0), BuildingBlock: XUDNAN_clean_linker_2, # of connection points: 2
#     Edge 135, Type (0, 0), BuildingBlock: XUDNAN_clean_linker_2, # of connection points: 2
#     Edge 136, Type (0, 0), BuildingBlock: XUDNAN_clean_linker_2, # of connection points: 2
#     Edge 137, Type (0, 0), BuildingBlock: XUDNAN_clean_linker_2, # of connection points: 2
#     Edge 138, Type (0, 0), BuildingBlock: XUDNAN_clean_linker_2, # of connection points: 2
#     Edge 139, Type (0, 0), BuildingBlock: XUDNAN_clean_linker_2, # of connection points: 2
#     Edge 140, Type (0, 0), BuildingBlock: XUDNAN_clean_linker_2, # of connection points: 2
#     Edge 141, Type (0, 0), BuildingBlock: XUDNAN_clean_linker_2, # of connection points: 2
#     Edge 142, Type (0, 0), BuildingBlock: XUDNAN_clean_linker_2, # of connection points: 2
#     Edge 143, Type (0, 0), BuildingBlock: XUDNAN_clean_linker_2, # of connection points: 2
# Relax obj value: 0.296
# Max RMSD: 0.255
# Mean RMSD: 0.253
data_MOF--net-uky--node1-QUQFOY_clean_sbu_1--edge1-XUDNAN_clean_linker_2
_symmetry_space_group_name_H-M    P1
_symmetry_Int_Tables_number       1
_symmetry_cell_setting            triclinic
loop_
_symmetry_equiv_pos_as_xyz
'x, y, z'
_cell_length_a     64.172882
_cell_length_b     64.05236
_cell_length_c     64.212218
_cell_angle_alpha  89.934271
_cell_angle_beta   90.037607
_cell_angle_gamma 90.001405
loop_
_atom_site_label
_atom_site_type_symbol
_atom_site_fract_x
_atom_site_fract_y
_atom_site_fract_z
_atom_type_partial_charge
O0 O 0.22722 0.18104 0.40932 0.0
Cd1 Cd 0.21884 0.18309 0.37833 0.0
Cd2 Cd 0.22436 0.22298 0.38531 0.0
O3 O 0.22063 0.21411 0.41602 0.0
O4 O 0.20155 0.15801 0.37198 0.0
O5 O 0.18877 0.19013 0.37466 0.0
C6 C 0.18561 0.1703 0.37258 0.0
C7 C 0.20755 0.25197 0.37087 0.0
C8 C 0.22466 0.19573 0.42238 0.0
C9 C 0.25579 0.20133 0.35876 0.0
O10 O 0.25255 0.21602 0.37164 0.0
O11 O 0.24223 0.18706 0.35631 0.0
O12 O 0.22215 0.25404 0.38452 0.0
O13 O 0.20171 0.23328 0.36606 0.0
O14 O 0.06124 0.98762 0.6694 0.0
Cd15 Cd 0.06965 0.97851 0.63956 0.0
Cd16 Cd 0.02837 0.98331 0.63261 0.0
O17 O 0.02729 0.98594 0.66452 0.0
O18 O 0.09404 0.95926 0.64249 0.0
O19 O 0.06306 0.94926 0.63078 0.0
C20 C 0.08195 0.94454 0.63596 0.0
C21 C 0.00225 0.96457 0.61534 0.0
C22 C 0.04279 0.98865 0.67654 0.0
C23 C 0.0583 0.01218 0.60995 0.0
O24 O 0.03978 0.00815 0.61569 0.0
O25 O 0.07344 0.00116 0.61656 0.0
O26 O -0.00139 0.9824 0.62383 0.0
O27 O 0.02073 0.95684 0.6173 0.0
O28 O 0.24706 0.8162 0.91995 0.0
Cd29 Cd 0.2561 0.82511 0.89025 0.0
Cd30 Cd 0.25398 0.78407 0.88232 0.0
O31 O 0.25257 0.78269 0.91428 0.0
O32 O 0.27311 0.85115 0.89171 0.0
O33 O 0.28622 0.81988 0.88449 0.0
C34 C 0.2891 0.83956 0.88785 0.0
C35 C 0.27395 0.7596 0.8641 0.0
C36 C 0.24832 0.79754 0.92668 0.0
C37 C 0.22345 0.81195 0.86024 0.0
O38 O 0.2279 0.79361 0.86631 0.0
O39 O 0.23414 0.82742 0.86653 0.0
O40 O 0.2569 0.75449 0.87337 0.0
O41 O 0.28027 0.77866 0.86587 0.0
O42 O 0.44082 0.00344 0.1624 0.0
Cd43 Cd 0.43133 0.0121 0.13275 0.0
Cd44 Cd 0.47257 0.00985 0.12541 0.0
O45 O 0.47433 0.00882 0.1573 0.0
O46 O 0.40411 0.02634 0.13707 0.0
O47 O 0.4325 0.04281 0.12636 0.0
C48 C 0.41328 0.04365 0.13237 0.0
C49 C 0.49806 0.02879 0.10745 0.0
C50 C 0.4593 0.00462 0.16945 0.0
C51 C 0.44444 0.9783 0.10448 0.0
O52 O 0.46267 0.98322 0.1104 0.0
O53 O 0.42878 0.98914 0.10995 0.0
O54 O 0.50221 0.01144 0.11669 0.0
O55 O 0.47928 0.0359 0.10881 0.0
O56 O 0.23445 0.81119 0.08646 0.0
Cd57 Cd 0.22822 0.81954 0.11694 0.0
Cd58 Cd 0.23344 0.77837 0.12329 0.0
O59 O 0.2321 0.77721 0.09128 0.0
O60 O 0.2097 0.8444 0.1152 0.0
O61 O 0.19965 0.81366 0.12773 0.0
C62 C 0.19509 0.83262 0.12251 0.0
C63 C 0.21645 0.75243 0.14261 0.0
C64 C 0.23398 0.79277 0.07913 0.0
C65 C 0.26459 0.80852 0.14233 0.0
O66 O 0.26022 0.78999 0.13682 0.0
O67 O 0.2527 0.82364 0.13753 0.0
O68 O 0.23338 0.74866 0.13253 0.0
O69 O 0.20867 0.77097 0.14131 0.0
O70 O 0.44159 0.9917 0.32885 0.0
Cd71 Cd 0.4324 0.98738 0.35949 0.0
Cd72 Cd 0.47378 0.98897 0.36607 0.0
O73 O 0.4751 0.9864 0.33422 0.0
O74 O 0.40717 0.96898 0.35918 0.0
O75 O 0.4379 0.95936 0.37184 0.0
C76 C 0.41887 0.95468 0.36725 0.0
C77 C 0.49726 0.97 0.38656 0.0
C78 C 0.45996 0.98935 0.32181 0.0
C79 C 0.44691 0.02377 0.38342 0.0
O80 O 0.46489 0.01733 0.37823 0.0
O81 O 0.4307 0.01318 0.3791 0.0
O82 O 0.50314 0.98594 0.37581 0.0
O83 O 0.478 0.96437 0.38524 0.0
O84 O 0.2518 0.17907 0.58568 0.0
Cd85 Cd 0.26804 0.18066 0.61334 0.0
Cd86 Cd 0.25677 0.22057 0.61081 0.0
O87 O 0.25306 0.21298 0.57965 0.0
O88 O 0.29144 0.15982 0.61257 0.0
O89 O 0.29562 0.19404 0.60913 0.0
C90 C 0.30347 0.1755 0.60855 0.0
C91 C 0.27532 0.24947 0.6231 0.0
C92 C 0.24947 0.19447 0.57335 0.0
C93 C 0.23657 0.19419 0.64368 0.0
O94 O 0.23483 0.20975 0.63151 0.0
O95 O 0.25127 0.1811 0.64104 0.0
O96 O 0.25709 0.25162 0.61486 0.0
O97 O 0.28352 0.23107 0.62316 0.0
O98 O 0.06493 0.0206 0.833 0.0
Cd99 Cd 0.07467 0.02878 0.8627 0.0
Cd100 Cd 0.03348 0.02371 0.87137 0.0
O101 O 0.03123 0.02198 0.83943 0.0
O102 O 0.09913 0.04769 0.85927 0.0
O103 O 0.06891 0.05778 0.87274 0.0
C104 C 0.08763 0.06237 0.86686 0.0
C105 C 0.00652 0.04018 0.88975 0.0
C106 C 0.04618 0.0197 0.82666 0.0
C107 C 0.06497 0.99431 0.89161 0.0
O108 O 0.04618 0.9986 0.88703 0.0
O109 O 0.07979 0.00546 0.88458 0.0
O110 O 0.00395 0.02242 0.88076 0.0
O111 O 0.02441 0.04918 0.88776 0.0
O112 O 0.41667 0.23108 0.18975 0.0
Cd113 Cd 0.38657 0.22179 0.18259 0.0
Cd114 Cd 0.38059 0.2275 0.22449 0.0
O115 O 0.41267 0.22866 0.22374 0.0
O116 O 0.38836 0.20169 0.15894 0.0
O117 O 0.37786 0.19292 0.19073 0.0
C118 C 0.38222 0.18747 0.17183 0.0
C119 C 0.36501 0.21495 0.25509 0.0
C120 C 0.42431 0.2316 0.20802 0.0
C121 C 0.35778 0.25582 0.19373 0.0
O122 O 0.36409 0.25214 0.21213 0.0
O123 O 0.3637 0.24437 0.17867 0.0
O124 O 0.37566 0.23194 0.25474 0.0
O125 O 0.36363 0.20438 0.23806 0.0
O126 O 0.00823 0.15776 0.43597 0.0
Cd127 Cd 0.0171 0.12677 0.43623 0.0
Cd128 Cd 0.01378 0.13269 0.47658 0.0
O129 O 0.01608 0.16396 0.46883 0.0
O130 O 0.03293 0.12177 0.4099 0.0
O131 O 0.04761 0.12344 0.44117 0.0
C132 C 0.04959 0.12223 0.42118 0.0
C133 C 0.03385 0.11614 0.50213 0.0
C134 C 0.01118 0.17061 0.45079 0.0
C135 C 0.98167 0.10585 0.45594 0.0
O136 O 0.98563 0.11839 0.47073 0.0
O137 O 0.99434 0.10408 0.44081 0.0
O138 O 0.01865 0.12838 0.50704 0.0
O139 O 0.03848 0.11427 0.48265 0.0
O140 O 0.08328 0.75816 0.68565 0.0
Cd141 Cd 0.11393 0.76825 0.68608 0.0
Cd142 Cd 0.10707 0.76372 0.72604 0.0
O143 O 0.07582 0.76335 0.71871 0.0
O144 O 0.11723 0.78341 0.65909 0.0
O145 O 0.11838 0.79911 0.68975 0.0
C146 C 0.11817 0.80051 0.66968 0.0
C147 C 0.12171 0.7846 0.75189 0.0
C148 C 0.06999 0.75884 0.70033 0.0
C149 C 0.13574 0.73297 0.70523 0.0
O150 O 0.12325 0.73661 0.72014 0.0
O151 O 0.13696 0.74563 0.68998 0.0
O152 O 0.11071 0.76837 0.75649 0.0
O153 O 0.12335 0.78973 0.7325 0.0
O154 O 0.47965 0.8401 0.92242 0.0
Cd155 Cd 0.46936 0.8705 0.92495 0.0
Cd156 Cd 0.48056 0.86593 0.96456 0.0
O157 O 0.48062 0.83461 0.95629 0.0
O158 O 0.44845 0.87574 0.90253 0.0
O159 O 0.44037 0.87295 0.93605 0.0
C160 C 0.43445 0.87516 0.91693 0.0
C161 C 0.46468 0.87763 0.99517 0.0
C162 C 0.48168 0.82768 0.93776 0.0
C163 C 0.50524 0.8962 0.93892 0.0
O164 O 0.50501 0.88459 0.95499 0.0
O165 O 0.49093 0.89454 0.92531 0.0
O166 O 0.48152 0.86667 0.9956 0.0
O167 O 0.45617 0.88121 0.97729 0.0
O168 O 0.41606 0.76675 0.31415 0.0
Cd169 Cd 0.38658 0.77699 0.32254 0.0
Cd170 Cd 0.37892 0.77348 0.28019 0.0
O171 O 0.41074 0.76968 0.28037 0.0
O172 O 0.3807 0.80766 0.31952 0.0
O173 O 0.39011 0.79255 0.34912 0.0
C174 C 0.38563 0.80938 0.33898 0.0
C175 C 0.36514 0.78952 0.25037 0.0
C176 C 0.42286 0.76601 0.29558 0.0
C177 C 0.35516 0.74523 0.31007 0.0
O178 O 0.36069 0.74956 0.29156 0.0
O179 O 0.36262 0.75538 0.32538 0.0
O180 O 0.3738 0.77145 0.24971 0.0
O181 O 0.36432 0.79894 0.2681 0.0
O182 O 0.49384 0.16241 0.56173 0.0
Cd183 Cd 0.47979 0.13359 0.5596 0.0
Cd184 Cd 0.49213 0.13607 0.52014 0.0
O185 O 0.49421 0.16755 0.5278 0.0
O186 O 0.45574 0.13263 0.57948 0.0
O187 O 0.45242 0.13493 0.54515 0.0
C188 C 0.44389 0.13505 0.56337 0.0
C189 C 0.47609 0.12502 0.4893 0.0
C190 C 0.49639 0.17452 0.54623 0.0
C191 C 0.51305 0.10413 0.54751 0.0
O192 O 0.51446 0.11554 0.53133 0.0
O193 O 0.49839 0.10717 0.56049 0.0
O194 O 0.49388 0.13437 0.4891 0.0
O195 O 0.4669 0.12263 0.50701 0.0
O196 O 0.08902 0.24477 0.81459 0.0
Cd197 Cd 0.12028 0.23684 0.81581 0.0
Cd198 Cd 0.11518 0.24076 0.77561 0.0
O199 O 0.08366 0.23853 0.7813 0.0
O200 O 0.12328 0.2227 0.84338 0.0
O201 O 0.12656 0.20624 0.81328 0.0
C202 C 0.12553 0.20539 0.83335 0.0
C203 C 0.13344 0.22012 0.75199 0.0
C204 C 0.07658 0.24272 0.7993 0.0
C205 C 0.14087 0.27314 0.79706 0.0
O206 O 0.12888 0.26911 0.78185 0.0
O207 O 0.14234 0.26043 0.81224 0.0
O208 O 0.1213 0.23495 0.74576 0.0
O209 O 0.1342 0.21618 0.77171 0.0
O210 O 0.01859 0.82822 0.04948 0.0
Cd211 Cd 0.02496 0.85891 0.05748 0.0
Cd212 Cd 0.02507 0.86298 0.01604 0.0
O213 O 0.02692 0.83091 0.01631 0.0
O214 O 0.03656 0.85737 0.08615 0.0
O215 O 0.05502 0.86738 0.05875 0.0
C216 C 0.05426 0.86292 0.07838 0.0
C217 C 0.04439 0.88286 0.99228 0.0
C218 C 0.02187 0.81975 0.03189 0.0
C219 C 0.99032 0.88325 0.04037 0.0
O220 O 0.99648 0.87582 0.02311 0.0
O221 O 0.00093 0.88046 0.05684 0.0
O222 O 0.02885 0.87156 0.98647 0.0
O223 O 0.04978 0.88212 0.01166 0.0
O224 O 0.19276 0.41685 0.23802 0.0
Cd225 Cd 0.18345 0.38674 0.23098 0.0
Cd226 Cd 0.2244 0.37844 0.23711 0.0
O227 O 0.22654 0.41062 0.23844 0.0
O228 O 0.15965 0.38888 0.21098 0.0
O229 O 0.19047 0.37544 0.20287 0.0
C230 C 0.1719 0.38083 0.1972 0.0
C231 C 0.24993 0.35954 0.21906 0.0
C232 C 0.21141 0.42338 0.23959 0.0
C233 C 0.19276 0.35901 0.26661 0.0
O234 O 0.21168 0.36305 0.26241 0.0
O235 O 0.17808 0.36608 0.25532 0.0
O236 O 0.25377 0.36826 0.23671 0.0
O237 O 0.23159 0.36205 0.21118 0.0
O238 O 0.68167 0.08833 0.75609 0.0
Cd239 Cd 0.68182 0.11855 0.76717 0.0
Cd240 Cd 0.72146 0.11684 0.75413 0.0
O241 O 0.7156 0.08509 0.75219 0.0
O242 O 0.65997 0.11939 0.78916 0.0
O243 O 0.69371 0.12386 0.79548 0.0
C244 C 0.67485 0.1223 0.80238 0.0
C245 C 0.75293 0.12897 0.76786 0.0
C246 C 0.69748 0.07707 0.75214 0.0
C247 C 0.69213 0.1469 0.73246 0.0
O248 O 0.70915 0.13675 0.73194 0.0
O249 O 0.67874 0.14313 0.74656 0.0
O250 O 0.75209 0.11951 0.75019 0.0
O251 O 0.73589 0.13078 0.7784 0.0
O252 O 0.16563 0.43275 0.00895 0.0
Cd253 Cd 0.13633 0.42415 0.0195 0.0
Cd254 Cd 0.12922 0.46561 0.01721 0.0
O255 O 0.16101 0.46656 0.0132 0.0
O256 O 0.13112 0.42732 0.05017 0.0
O257 O 0.14028 0.39758 0.03513 0.0
C258 C 0.13626 0.40787 0.05194 0.0
C259 C 0.11336 0.49215 0.03663 0.0
C260 C 0.17281 0.45126 0.00884 0.0
C261 C 0.10495 0.43721 0.98825 0.0
O262 O 0.11108 0.45552 0.9927 0.0
O263 O 0.11195 0.42159 -0.00168 0.0
O264 O 0.12142 0.49557 0.0186 0.0
O265 O 0.11497 0.47355 0.04424 0.0
O266 O 0.81068 0.91218 0.2572 0.0
Cd267 Cd 0.81376 0.88283 0.26997 0.0
Cd268 Cd 0.77187 0.8828 0.25996 0.0
O269 O 0.77647 0.91472 0.25669 0.0
O270 O 0.84153 0.88487 0.28364 0.0
O271 O 0.81224 0.88017 0.30119 0.0
C272 C 0.83214 0.88331 0.3013 0.0
C273 C 0.74172 0.87003 0.27601 0.0
C274 C 0.79432 0.92301 0.25443 0.0
C275 C 0.80056 0.85296 0.23725 0.0
O276 O 0.78335 0.86282 0.23739 0.0
O277 O 0.81467 0.85728 0.25046 0.0
O278 O 0.74112 0.87916 0.25814 0.0
O279 O 0.75949 0.86886 0.28542 0.0
O280 O 0.83412 0.05807 0.01453 0.0
Cd281 Cd 0.8637 0.06735 0.0234 0.0
Cd282 Cd 0.87201 0.02398 0.01706 0.0
O283 O 0.83997 0.02417 0.01566 0.0
O284 O 0.85939 0.09284 0.04063 0.0
O285 O 0.87216 0.06315 0.05315 0.0
C286 C 0.86602 0.08211 0.05631 0.0
C287 C 0.88661 0.99194 0.0272 0.0
C288 C 0.82749 0.0394 0.01355 0.0
C289 C 0.89417 0.05716 0.99027 0.0
O290 O 0.88919 0.0383 0.99396 0.0
O291 O 0.88658 0.07193 0.0011 0.0
O292 O 0.87687 0.99421 0.00986 0.0
O293 O 0.88796 0.00793 0.03932 0.0
O294 O 0.31832 0.59284 0.74337 0.0
Cd295 Cd 0.31538 0.62177 0.72967 0.0
Cd296 Cd 0.27628 0.61807 0.74145 0.0
O297 O 0.28462 0.58672 0.74119 0.0
O298 O 0.33416 0.6231 0.70488 0.0
O299 O 0.29973 0.6199 0.70311 0.0
C300 C 0.3176 0.62 0.69384 0.0
C301 C 0.24466 0.63002 0.72772 0.0
C302 C 0.30311 0.58013 0.74411 0.0
C303 C 0.3027 0.64978 0.7633 0.0
O304 O 0.28746 0.63718 0.76478 0.0
O305 O 0.31537 0.64819 0.74817 0.0
O306 O 0.24535 0.6191 0.7446 0.0
O307 O 0.26189 0.63325 0.7179 0.0
O308 O 0.15995 0.56821 0.48744 0.0
Cd309 Cd 0.12812 0.56955 0.48222 0.0
Cd310 Cd 0.13264 0.5293 0.49291 0.0
O311 O 0.16415 0.53409 0.48894 0.0
O312 O 0.12487 0.59419 0.46323 0.0
O313 O 0.11828 0.56161 0.45373 0.0
C314 C 0.11994 0.58106 0.4488 0.0
C315 C 0.11396 0.50375 0.47508 0.0
C316 C 0.17186 0.55235 0.48827 0.0
C317 C 0.10826 0.55678 0.52187 0.0
O318 O 0.11908 0.54029 0.51982 0.0
O319 O 0.10764 0.57038 0.5074 0.0
O320 O 0.12556 0.49898 0.49082 0.0
O321 O 0.11372 0.52295 0.46897 0.0
O322 O 0.33037 0.43248 0.97952 0.0
Cd323 Cd 0.3598 0.42341 0.97 0.0
Cd324 Cd 0.36686 0.46633 0.97091 0.0
O325 O 0.33476 0.46583 0.97234 0.0
O326 O 0.35578 0.39587 0.9563 0.0
O327 O 0.36554 0.42441 0.93934 0.0
C328 C 0.36014 0.40496 0.93888 0.0
C329 C 0.38173 0.49587 0.9552 0.0
C330 C 0.32298 0.45078 0.97758 0.0
C331 C 0.39008 0.43811 0.0014 0.0
O332 O 0.38375 0.45621 0.99631 0.0
O333 O 0.38378 0.42209 0.99156 0.0
O334 O 0.37145 0.49701 0.97232 0.0
O335 O 0.38343 0.47784 0.94642 0.0
O336 O 0.74273 0.68462 0.91706 0.0
Cd337 Cd 0.73016 0.68029 0.88767 0.0
Cd338 Cd 0.73799 0.72148 0.88242 0.0
O339 O 0.73956 0.71877 0.9143 0.0
O340 O 0.70684 0.6597 0.88918 0.0
O341 O 0.70241 0.69393 0.88539 0.0
C342 C 0.69447 0.6756 0.88837 0.0
C343 C 0.72543 0.75307 0.86897 0.0
C344 C 0.7431 0.70266 0.92532 0.0
C345 C 0.76239 0.69063 0.85654 0.0
O346 O 0.7613 0.70876 0.86446 0.0
O347 O 0.7496 0.67651 0.86208 0.0
O348 O 0.7429 0.75191 0.87872 0.0
O349 O 0.71453 0.73624 0.86718 0.0
O350 O 0.55101 0.49426 0.16228 0.0
Cd351 Cd 0.55882 0.48702 0.13174 0.0
Cd352 Cd 0.51784 0.48719 0.12758 0.0
O353 O 0.51788 0.48575 0.15952 0.0
O354 O 0.58662 0.47325 0.13348 0.0
O355 O 0.5578 0.45654 0.1244 0.0
C356 C 0.57744 0.45591 0.12891 0.0
C357 C 0.49414 0.46744 0.10823 0.0
C358 C 0.53336 0.49099 0.17069 0.0
C359 C 0.54212 0.5216 0.10673 0.0
O360 O 0.52489 0.51563 0.11438 0.0
O361 O 0.55856 0.51086 0.10955 0.0
O362 O 0.48833 0.48334 0.11902 0.0
O363 O 0.5135 0.46201 0.10912 0.0
O364 O 0.75405 0.31379 0.41638 0.0
Cd365 Cd 0.76715 0.31783 0.38722 0.0
Cd366 Cd 0.75796 0.27707 0.38201 0.0
O367 O 0.75686 0.27959 0.41399 0.0
O368 O 0.7908 0.33793 0.38935 0.0
O369 O 0.79466 0.30364 0.38551 0.0
C370 C 0.80287 0.32178 0.38883 0.0
C371 C 0.76913 0.24538 0.36759 0.0
C372 C 0.7535 0.29583 0.42483 0.0
C373 C 0.73477 0.30883 0.35607 0.0
O374 O 0.73498 0.29083 0.36437 0.0
O375 O 0.74828 0.32237 0.36132 0.0
O376 O 0.75197 0.24688 0.37782 0.0
O377 O 0.78064 0.26184 0.36608 0.0
O378 O 0.93453 0.50771 0.66353 0.0
Cd379 Cd 0.93463 0.51682 0.63262 0.0
Cd380 Cd 0.97514 0.51394 0.63951 0.0
O381 O 0.96724 0.5151 0.67065 0.0
O382 O 0.93567 0.54779 0.62713 0.0
O383 O 0.90648 0.52949 0.62896 0.0
C384 C 0.91552 0.54742 0.62749 0.0
C385 C 0.00315 0.5329 0.62589 0.0
C386 C 0.94915 0.50984 0.67672 0.0
C387 C 0.95507 0.48137 0.61233 0.0
O388 O 0.96986 0.48587 0.62472 0.0
O389 O 0.93953 0.49359 0.61051 0.0
O390 O 0.00594 0.51756 0.63859 0.0
O391 O 0.98422 0.53824 0.62154 0.0
O392 O 0.74111 0.32276 0.5836 0.0
Cd393 Cd 0.73295 0.33309 0.61308 0.0
Cd394 Cd 0.73363 0.29119 0.62188 0.0
O395 O 0.73418 0.28967 0.58992 0.0
O396 O 0.71894 0.36044 0.60859 0.0
O397 O 0.70241 0.33216 0.61968 0.0
C398 C 0.70166 0.35141 0.61358 0.0
C399 C 0.71552 0.26473 0.63942 0.0
C400 C 0.73876 0.30414 0.57718 0.0
C401 C 0.76524 0.31935 0.64309 0.0
O402 O 0.75984 0.30108 0.6376 0.0
O403 O 0.75529 0.33519 0.63645 0.0
O404 O 0.73281 0.26123 0.62993 0.0
O405 O 0.70796 0.28339 0.63854 0.0
O406 O 0.9317 0.47749 0.83896 0.0
Cd407 Cd 0.93001 0.46968 0.8702 0.0
Cd408 Cd 0.97039 0.47826 0.86624 0.0
O409 O 0.96573 0.47738 0.83445 0.0
O410 O 0.90394 0.45275 0.8717 0.0
O411 O 0.93533 0.43994 0.87849 0.0
C412 C 0.91556 0.43694 0.87617 0.0
C413 C 0.99668 0.46001 0.88361 0.0
C414 C 0.94743 0.4787 0.82697 0.0
C415 C 0.94396 0.50741 0.89193 0.0
O416 O 0.96039 0.50483 0.88121 0.0
O417 O 0.92967 0.49365 0.89195 0.0
O418 O 0.00073 0.47651 0.87279 0.0
O419 O 0.97775 0.45312 0.88358 0.0
O420 O 0.75918 0.67822 0.08422 0.0
Cd421 Cd 0.76838 0.66865 0.11367 0.0
Cd422 Cd 0.76563 0.71027 0.12192 0.0
O423 O 0.76488 0.71163 0.08997 0.0
O424 O 0.7841 0.64226 0.10946 0.0
O425 O 0.79882 0.67175 0.11997 0.0
C426 C 0.80077 0.65249 0.11423 0.0
C427 C 0.78235 0.73731 0.13985 0.0
C428 C 0.76068 0.69683 0.0775 0.0
C429 C 0.73583 0.68071 0.14372 0.0
O430 O 0.74006 0.69913 0.13774 0.0
O431 O 0.74665 0.66537 0.13737 0.0
O432 O 0.76501 0.74016 0.1302 0.0
O433 O 0.79086 0.71908 0.13868 0.0
O434 O 0.56114 0.51186 0.32824 0.0
Cd435 Cd 0.57142 0.51892 0.35808 0.0
Cd436 Cd 0.5305 0.51562 0.36723 0.0
O437 O 0.52767 0.51472 0.33536 0.0
O438 O 0.59535 0.53882 0.35572 0.0
O439 O 0.56456 0.54727 0.36901 0.0
C440 C 0.58316 0.55278 0.3636 0.0
C441 C 0.50524 0.53332 0.38667 0.0
C442 C 0.54224 0.51202 0.32226 0.0
C443 C 0.56043 0.48437 0.3866 0.0
O444 O 0.54184 0.48958 0.38217 0.0
O445 O 0.57569 0.49497 0.37962 0.0
O446 O 0.50113 0.51616 0.3771 0.0
O447 O 0.52368 0.54106 0.38457 0.0
O448 O 0.90789 0.72792 0.67994 0.0
Cd449 Cd 0.87655 0.72064 0.67809 0.0
Cd450 Cd 0.88037 0.72803 0.71855 0.0
O451 O 0.91211 0.7263 0.71394 0.0
O452 O 0.87494 0.70316 0.65234 0.0
O453 O 0.8682 0.69102 0.68398 0.0
C454 C 0.87064 0.68756 0.66432 0.0
C455 C 0.86301 0.70976 0.7448 0.0
C456 C 0.91977 0.72815 0.69579 0.0
C457 C 0.85566 0.7587 0.69274 0.0
O458 O 0.86619 0.75533 0.70917 0.0
O459 O 0.85531 0.7453 0.67811 0.0
O460 O 0.87438 0.72586 0.74893 0.0
O461 O 0.86234 0.70336 0.72575 0.0
O462 O 0.50395 0.66226 0.92597 0.0
Cd463 Cd 0.51671 0.63288 0.92961 0.0
Cd464 Cd 0.50477 0.63831 0.96802 0.0
O465 O 0.50657 0.66946 0.9594 0.0
O466 O 0.54145 0.63039 0.91077 0.0
O467 O 0.54342 0.63458 0.94505 0.0
C468 C 0.55261 0.6339 0.92717 0.0
C469 C 0.51831 0.62527 -0.00062 0.0
C470 C 0.5036 0.67549 0.94073 0.0
C471 C 0.4807 0.60824 0.94184 0.0
O472 O 0.4799 0.62156 0.95648 0.0
O473 O 0.49663 0.60737 0.93009 0.0
O474 O 0.50208 0.63714 -0.00096 0.0
O475 O 0.52752 0.62151 0.98193 0.0
O476 O 0.57968 0.26876 0.18449 0.0
Cd477 Cd 0.60927 0.27772 0.17503 0.0
Cd478 Cd 0.61785 0.27359 0.21597 0.0
O479 O 0.58593 0.27141 0.21813 0.0
O480 O 0.60601 0.29761 0.1512 0.0
O481 O 0.61864 0.30664 0.1821 0.0
C482 C 0.61303 0.31195 0.16349 0.0
C483 C 0.63608 0.29105 0.24243 0.0
C484 C 0.57329 0.26823 0.20323 0.0
C485 C 0.6385 0.24371 0.18548 0.0
O486 O 0.63364 0.24823 0.20412 0.0
O487 O 0.63168 0.2547 0.17041 0.0
O488 O 0.62706 0.27338 0.24559 0.0
O489 O 0.63423 0.29938 0.22421 0.0
O490 O 0.99281 0.33599 0.43548 0.0
Cd491 Cd 0.97862 0.36467 0.43852 0.0
Cd492 Cd 0.99104 0.36104 0.47721 0.0
O493 O 0.99154 0.32969 0.46918 0.0
O494 O 0.95476 0.36597 0.41854 0.0
O495 O 0.95125 0.36206 0.45276 0.0
C496 C 0.94292 0.36238 0.43442 0.0
C497 C 0.97695 0.37346 0.50836 0.0
C498 C 0.99428 0.32327 0.45063 0.0
C499 C 0.01232 0.39296 0.451 0.0
O500 O 0.01425 0.38022 0.46606 0.0
O501 O 0.99689 0.39135 0.43866 0.0
O502 O 0.9939 0.36266 0.50807 0.0
O503 O 0.96715 0.37614 0.49098 0.0
O504 O 0.9116 0.26068 0.81173 0.0
Cd505 Cd 0.88034 0.26849 0.81265 0.0
Cd506 Cd 0.88645 0.26618 0.77205 0.0
O507 O 0.91791 0.26731 0.77867 0.0
O508 O 0.87716 0.28019 0.84121 0.0
O509 O 0.87382 0.29919 0.81259 0.0
C510 C 0.87483 0.29829 0.83268 0.0
C511 C 0.86998 0.28781 0.74788 0.0
C512 C 0.92445 0.26277 0.79681 0.0
C513 C 0.85984 0.23315 0.79214 0.0
O514 O 0.87173 0.23802 0.77708 0.0
O515 O 0.85854 0.24497 0.80799 0.0
O516 O 0.88154 0.2724 0.74205 0.0
O517 O 0.86873 0.29173 0.76758 0.0
O518 O 0.98989 0.6635 0.05974 0.0
Cd519 Cd 0.98086 0.63379 0.06883 0.0
Cd520 Cd 0.98529 0.62455 0.02766 0.0
O521 O 0.98887 0.65643 0.02619 0.0
O522 O 0.96004 0.63609 0.09175 0.0
O523 O 0.95269 0.62386 0.06022 0.0
C524 C 0.94653 0.62874 0.07876 0.0
C525 C 0.96918 0.60914 -0.00126 0.0
C526 C 0.99144 0.66941 0.0409 0.0
C527 C 0.01364 0.60298 0.05918 0.0
O528 O 0.00916 0.60719 0.04034 0.0
O529 O 0.0034 0.6112 0.07401 0.0
O530 O 0.98726 0.6177 0.99752 0.0
O531 O 0.95987 0.60924 0.01653 0.0
O532 O 0.58125 0.73792 0.30971 0.0
Cd533 Cd 0.61172 0.73034 0.31751 0.0
Cd534 Cd 0.61655 0.73047 0.27649 0.0
O535 O 0.58451 0.73004 0.2765 0.0
O536 O 0.61028 0.71534 0.34466 0.0
O537 O 0.61939 0.70008 0.31508 0.0
C538 C 0.6151 0.69851 0.33469 0.0
C539 C 0.63466 0.71038 0.252 0.0
C540 C 0.57313 0.73515 0.29185 0.0
C541 C 0.63762 0.76451 0.30139 0.0
O542 O 0.63065 0.75843 0.2839 0.0
O543 O 0.63383 0.75412 0.31785 0.0
O544 O 0.6244 0.72683 0.24674 0.0
O545 O 0.63414 0.70476 0.27132 0.0
O546 O 0.51905 0.33911 0.5612 0.0
Cd547 Cd 0.52514 0.37071 0.56208 0.0
Cd548 Cd 0.51469 0.36656 0.52137 0.0
O549 O 0.51489 0.3347 0.52741 0.0
O550 O 0.54377 0.37407 0.58685 0.0
O551 O 0.55377 0.38059 0.55447 0.0
C552 C 0.55833 0.37928 0.57401 0.0
C553 C 0.53407 0.38165 0.49447 0.0
C554 C 0.51616 0.32712 0.5457 0.0
C555 C 0.4872 0.39383 0.54847 0.0
O556 O 0.48959 0.38428 0.53127 0.0
O557 O 0.50042 0.3915 0.56308 0.0
O558 O 0.5169 0.37182 0.49076 0.0
O559 O 0.54081 0.38197 0.51342 0.0
O560 O 0.68926 0.91179 0.73324 0.0
Cd561 Cd 0.69024 0.8801 0.72759 0.0
Cd562 Cd 0.73024 0.88723 0.7339 0.0
O563 O 0.72273 0.91843 0.72993 0.0
O564 O 0.66429 0.87509 0.71132 0.0
O565 O 0.69608 0.87079 0.69842 0.0
C566 C 0.67614 0.87104 0.69562 0.0
C567 C 0.7578 0.87097 0.71651 0.0
C568 C 0.7041 0.92486 0.73198 0.0
C569 C 0.70734 0.86181 0.76589 0.0
O570 O 0.72273 0.87372 0.76212 0.0
O571 O 0.6927 0.85989 0.75267 0.0
O572 O 0.76106 0.88442 0.7311 0.0
O573 O 0.73876 0.86745 0.711 0.0
O574 O 0.19152 0.58123 0.26701 0.0
Cd575 Cd 0.18093 0.61045 0.27611 0.0
Cd576 Cd 0.22313 0.61902 0.27359 0.0
O577 O 0.22515 0.587 0.27117 0.0
O578 O 0.15309 0.60529 0.2888 0.0
O579 O 0.18023 0.61674 0.30678 0.0
C580 C 0.16102 0.61063 0.30648 0.0
C581 C 0.24916 0.63752 0.29133 0.0
C582 C 0.2102 0.57458 0.26727 0.0
C583 C 0.19351 0.64127 0.24399 0.0
O584 O 0.21196 0.63567 0.24851 0.0
O585 O 0.17813 0.63419 0.25427 0.0
O586 O 0.25265 0.62845 0.2738 0.0
O587 O 0.23097 0.63516 0.29959 0.0
O588 O 0.65992 0.92658 0.51316 0.0
Cd589 Cd 0.63015 0.92448 0.52507 0.0
Cd590 Cd 0.63262 0.96536 0.51611 0.0
O591 O 0.66452 0.96057 0.51519 0.0
O592 O 0.63069 0.89659 0.53875 0.0
O593 O 0.62713 0.92615 0.55621 0.0
C594 C 0.62947 0.9061 0.55639 0.0
C595 C 0.61641 0.99272 0.53371 0.0
C596 C 0.67183 0.9424 0.51209 0.0
C597 C 0.60338 0.93901 0.49083 0.0
O598 O 0.61494 0.95511 0.49132 0.0
O599 O 0.60516 0.92504 0.50479 0.0
O600 O 0.62681 0.99589 0.51681 0.0
O601 O 0.61661 0.97413 0.54158 0.0
O602 O 0.31903 0.41423 0.75452 0.0
Cd603 Cd 0.31784 0.38272 0.76079 0.0
Cd604 Cd 0.27754 0.38806 0.75057 0.0
O605 O 0.28521 0.41951 0.75213 0.0
O606 O 0.34111 0.37785 0.7808 0.0
O607 O 0.30773 0.374 0.78894 0.0
C608 C 0.32704 0.37402 0.79464 0.0
C609 C 0.24752 0.37548 0.76689 0.0
C610 C 0.3037 0.42664 0.75276 0.0
C611 C 0.30357 0.35991 0.72313 0.0
O612 O 0.28685 0.37037 0.72527 0.0
O613 O 0.31815 0.36157 0.73648 0.0
O614 O 0.26568 0.37193 0.77483 0.0
O615 O 0.24652 0.38679 0.7503 0.0
O616 O 0.33652 0.56569 0.50438 0.0
Cd617 Cd 0.36428 0.565 0.52042 0.0
Cd618 Cd 0.36291 0.52563 0.50905 0.0
O619 O 0.33118 0.53176 0.50668 0.0
O620 O 0.36318 0.58682 0.54265 0.0
O621 O 0.36095 0.55272 0.54864 0.0
C622 C 0.35995 0.57164 0.55552 0.0
C623 C 0.3779 0.49761 0.52691 0.0
C624 C 0.3244 0.55005 0.50279 0.0
C625 C 0.3944 0.55326 0.48855 0.0
O626 O 0.38242 0.53759 0.48651 0.0
O627 O 0.39178 0.56578 0.50367 0.0
O628 O 0.36888 0.49494 0.50913 0.0
O629 O 0.377 0.51592 0.53525 0.0
O630 O 0.80083 0.08757 0.23133 0.0
Cd631 Cd 0.80153 0.11901 0.22408 0.0
Cd632 Cd 0.76129 0.11272 0.2289 0.0
O633 O 0.76748 0.08113 0.22647 0.0
O634 O 0.82997 0.12217 0.21207 0.0
O635 O 0.80117 0.12588 0.1935 0.0
C636 C 0.82127 0.1247 0.19413 0.0
C637 C 0.73758 0.13118 0.20845 0.0
C638 C 0.7859 0.0746 0.22976 0.0
C639 C 0.78312 0.13878 0.26096 0.0
O640 O 0.76796 0.12661 0.25709 0.0
O641 O 0.79803 0.14052 0.24802 0.0
O642 O 0.73141 0.11916 0.22339 0.0
O643 O 0.75726 0.13163 0.20421 0.0
O644 O 0.66958 0.05735 0.98787 0.0
Cd645 Cd 0.64082 0.06765 0.97749 0.0
Cd646 Cd 0.63245 0.02603 0.9803 0.0
O647 O 0.66438 0.02378 0.98248 0.0
O648 O 0.64681 0.09494 0.96398 0.0
O649 O 0.63587 0.06711 0.94664 0.0
C650 C 0.64239 0.08622 0.94642 0.0
C651 C 0.61348 0.00098 0.96176 0.0
C652 C 0.67649 0.03876 0.98711 0.0
C653 C 0.60992 0.05573 0.00925 0.0
O654 O 0.61614 0.03729 0.00548 0.0
O655 O 0.61644 0.07095 -0.00165 0.0
O656 O 0.6225 0.99662 0.97915 0.0
O657 O 0.61616 0.01947 0.95417 0.0
O658 O 0.83577 0.92819 0.48668 0.0
Cd659 Cd 0.86656 0.92877 0.47774 0.0
Cd660 Cd 0.86278 0.96834 0.49078 0.0
O661 O 0.83111 0.96201 0.49042 0.0
O662 O 0.86855 0.90546 0.45739 0.0
O663 O 0.87324 0.93874 0.44892 0.0
C664 C 0.8718 0.91943 0.44328 0.0
C665 C 0.87594 -0.00058 0.47706 0.0
C666 C 0.82373 0.94361 0.48979 0.0
C667 C 0.89172 0.93976 0.51465 0.0
O668 O 0.88097 0.95645 0.51456 0.0
O669 O 0.88961 0.92647 0.5001 0.0
O670 O 0.86516 0.99912 0.49399 0.0
O671 O 0.87848 0.98204 0.46719 0.0
H672 H 0.24303 0.22342 0.54226 0.0
H673 H 0.24274 0.15672 0.55459 0.0
H674 H 0.235 0.14995 0.51762 0.0
H675 H 0.20087 0.22301 0.50385 0.0
H676 H 0.2129 0.24281 0.48791 0.0
H677 H 0.21736 0.24251 0.51562 0.0
H678 H 0.25721 0.2413 0.50925 0.0
H679 H 0.25288 0.24152 0.48155 0.0
H680 H 0.26799 0.22087 0.49324 0.0
H681 H 0.22952 0.15021 0.47905 0.0
H682 H 0.22541 0.15759 0.44155 0.0
H683 H 0.22854 0.2241 0.45424 0.0
C684 C 0.24112 0.20739 0.53725 0.0
C685 C 0.24349 0.19061 0.55139 0.0
C686 C 0.24096 0.16986 0.54412 0.0
C687 C 0.23656 0.16584 0.52313 0.0
C688 C 0.23459 0.18271 0.50959 0.0
C689 C 0.23664 0.20308 0.51635 0.0
C690 C 0.23429 0.21834 0.49844 0.0
C691 C 0.21522 0.2325 0.50165 0.0
C692 C 0.25429 0.23126 0.49545 0.0
C693 C 0.23093 0.20334 0.48053 0.0
C694 C 0.23114 0.18286 0.48732 0.0
C695 C 0.22914 0.16619 0.47356 0.0
C696 C 0.22688 0.17054 0.45228 0.0
C697 C 0.22658 0.19141 0.44495 0.0
C698 C 0.22851 0.20798 0.45936 0.0
H699 H 0.0721 0.99496 0.7073 0.0
H700 H 0.00531 0.99282 0.69642 0.0
H701 H -0.00093 0.00082 0.73341 0.0
H702 H 0.07108 0.971 0.75804 0.0
H703 H 0.09155 0.9872 0.76843 0.0
H704 H 0.09085 0.98139 0.741 0.0
H705 H 0.09106 0.02096 0.73255 0.0
H706 H 0.09172 0.0269 0.75995 0.0
H707 H 0.0714 0.03761 0.74376 0.0
H708 H -7e-05 0.0091 0.77144 0.0
H709 H 0.00783 0.01662 0.80823 0.0
H710 H 0.07408 0.01336 0.79466 0.0
C711 C 0.05616 0.99616 0.71267 0.0
C712 C 0.0392 0.99325 0.69888 0.0
C713 C 0.01858 0.99496 0.70662 0.0
C714 C 0.01486 -0.00047 0.72763 0.0
C715 C 0.0319 0.00234 0.74075 0.0
C716 C 0.05214 0.0007 0.73363 0.0
C717 C 0.06765 0.00436 0.75107 0.0
C718 C 0.08107 0.98482 0.75485 0.0
C719 C 0.08126 0.0236 0.74656 0.0
C720 C 0.05294 0.0083 0.7691 0.0
C721 C 0.03239 0.00708 0.76277 0.0
C722 C 0.01596 0.01009 0.77659 0.0
C723 C 0.02063 0.01437 0.79748 0.0
C724 C 0.04158 0.0156 0.8044 0.0
C725 C 0.0579 0.01256 0.78991 0.0
H726 H 0.24441 0.82532 0.95923 0.0
H727 H 0.24534 0.75907 0.94482 0.0
H728 H 0.24124 0.75082 0.98205 0.0
H729 H 0.27387 0.82167 0.00636 0.0
H730 H 0.25919 0.84147 0.01984 0.0
H731 H 0.26144 0.84236 0.9919 0.0
H732 H 0.2212 0.84277 0.98851 0.0
H733 H 0.21882 0.84194 0.01645 0.0
H734 H 0.20611 0.82242 0.00073 0.0
H735 H 0.23768 0.74955 0.0207 0.0
H736 H 0.23494 0.75539 0.05853 0.0
H737 H 0.23664 0.82242 0.04816 0.0
C738 C 0.24359 0.80908 0.96388 0.0
C739 C 0.24517 0.79285 0.94906 0.0
C740 C 0.2442 0.7718 0.95584 0.0
C741 C 0.24184 0.76693 0.97697 0.0
C742 C 0.2405 0.78326 0.99117 0.0
C743 C 0.24132 0.80391 0.98497 0.0
C744 C 0.23995 0.81845 0.00353 0.0
C745 C 0.2598 0.83177 0.00552 0.0
C746 C 0.22035 0.8322 0.00222 0.0
C747 C 0.23831 0.80271 0.0211 0.0
C748 C 0.2386 0.78252 0.01359 0.0
C749 C 0.2374 0.76529 0.02679 0.0
C750 C 0.23586 0.76879 0.04827 0.0
C751 C 0.23559 0.78936 0.05637 0.0
C752 C 0.23682 0.8065 0.04251 0.0
H753 H 0.43122 0.99313 0.29017 0.0
H754 H 0.49769 0.98808 0.30204 0.0
H755 H 0.50456 0.99072 0.26438 0.0
H756 H 0.431 0.96279 0.24252 0.0
H757 H 0.41161 0.97891 0.23008 0.0
H758 H 0.41181 0.97624 0.25801 0.0
H759 H 0.41396 0.01645 0.26184 0.0
H760 H 0.41379 0.01925 0.23394 0.0
H761 H 0.43466 0.03049 0.24902 0.0
H762 H 0.50442 0.99509 0.22573 0.0
H763 H 0.49723 0.0001 0.18835 0.0
H764 H 0.43082 0.0017 0.20134 0.0
C765 C 0.44722 0.9925 0.28487 0.0
C766 C 0.46391 0.99041 0.29911 0.0
C767 C 0.48462 0.98964 0.29147 0.0
C768 C 0.4887 0.99114 0.27009 0.0
C769 C 0.47192 0.99329 0.25652 0.0
C770 C 0.45159 0.99388 0.26355 0.0
C771 C 0.43641 0.99646 0.24564 0.0
C772 C 0.42185 0.97746 0.24397 0.0
C773 C 0.42398 0.01688 0.24774 0.0
C774 C 0.45143 0.9974 0.22747 0.0
C775 C 0.47183 0.99555 0.23412 0.0
C776 C 0.48851 0.99645 0.22031 0.0
C777 C 0.48425 -0.00066 0.1991 0.0
C778 C 0.46346 0.00123 0.19188 0.0
C779 C 0.44687 0.00015 0.20633 0.0
H780 H 0.54123 0.26093 0.17551 0.0
H781 H 0.55534 0.2641 0.24162 0.0
H782 H 0.51905 0.25471 0.24977 0.0
H783 H 0.48943 0.28285 0.17907 0.0
H784 H 0.47872 0.26606 0.15925 0.0
H785 H 0.50587 0.27312 0.1585 0.0
H786 H 0.51602 0.23397 0.158 0.0
H787 H 0.48889 0.22679 0.15886 0.0
H788 H 0.50662 0.21695 0.17832 0.0
H789 H 0.48161 0.2445 0.25097 0.0
H790 H 0.44482 0.23529 0.24516 0.0
H791 H 0.4545 0.23893 0.17828 0.0
C792 C 0.53669 0.25972 0.1917 0.0
C793 C 0.55121 0.26326 0.20792 0.0
C794 C 0.54457 0.2615 0.2289 0.0
C795 C 0.52397 0.25613 0.23372 0.0
C796 C 0.51013 0.2526 0.2174 0.0
C797 C 0.51613 0.25441 0.19682 0.0
C798 C 0.49805 0.24986 0.18228 0.0
C799 C 0.4927 0.26912 0.169 0.0
C800 C 0.50268 0.23075 0.16856 0.0
C801 C 0.48099 0.2452 0.19794 0.0
C802 C 0.48836 0.24682 0.21809 0.0
C803 C 0.47563 0.24321 0.23526 0.0
C804 C 0.45473 0.23795 0.23177 0.0
C805 C 0.44669 0.23638 0.21125 0.0
C806 C 0.46012 0.23999 0.19414 0.0
H807 H -7e-05 0.29169 0.47923 0.0
H808 H 0.99725 0.304 0.41273 0.0
H809 H 0.00189 0.26647 0.40572 0.0
H810 H 0.03928 0.2508 0.47658 0.0
H811 H 0.02755 0.23553 0.49705 0.0
H812 H 0.02465 0.26351 0.4969 0.0
H813 H 0.9845 0.25935 0.498 0.0
H814 H 0.98727 0.23137 0.49806 0.0
H815 H 0.97166 0.24392 0.47834 0.0
H816 H 0.00513 0.22761 0.40582 0.0
H817 H 0.00828 0.18994 0.41296 0.0
H818 H 0.00961 0.20265 0.47938 0.0
C819 C 0.00047 0.28653 0.46318 0.0
C820 C 0.99822 0.30085 0.44653 0.0
C821 C -0.00101 0.2934 0.42577 0.0
C822 C 0.00159 0.27208 0.42161 0.0
C823 C 0.00354 0.2584 0.43836 0.0
C824 C 0.00317 0.2653 0.45873 0.0
C825 C 0.00539 0.24724 0.47387 0.0
C826 C 0.02541 0.2494 0.48686 0.0
C827 C 0.98605 0.24537 0.48789 0.0
C828 C 0.00685 0.22911 0.4588 0.0
C829 C 0.00571 0.23592 0.43841 0.0
C830 C 0.00617 0.22208 0.42172 0.0
C831 C 0.00789 0.20069 0.42596 0.0
C832 C 0.00923 0.1933 0.44673 0.0
C833 C 0.00875 0.20779 0.46333 0.0
H834 H 0.03728 0.7555 0.72807 0.0
H835 H 0.05266 0.7508 0.66234 0.0
H836 H 0.01626 0.74171 0.65447 0.0
H837 H 0.00107 0.7124 0.7292 0.0
H838 H 0.98338 0.72487 0.74708 0.0
H839 H 0.01074 0.7311 0.74781 0.0
H840 H 0.00213 0.77032 0.74294 0.0
H841 H 0.97474 0.76422 0.74229 0.0
H842 H 0.98646 0.77843 0.72107 0.0
H843 H 0.97851 0.73342 0.6534 0.0
H844 H 0.94117 0.72686 0.65913 0.0
H845 H 0.94971 0.73649 0.72557 0.0
C846 C 0.03298 0.75261 0.71202 0.0
C847 C 0.04789 0.75388 0.69583 0.0
C848 C 0.0416 0.74992 0.67504 0.0
C849 C 0.02093 0.74472 0.67038 0.0
C850 C 0.0067 0.74348 0.68667 0.0
C851 C 0.01237 0.74733 0.70706 0.0
C852 C 0.99385 0.745 0.72157 0.0
C853 C 0.99748 0.72728 0.73734 0.0
C854 C 0.98901 0.76573 0.73261 0.0
C855 C 0.97692 0.73934 0.70608 0.0
C856 C 0.98474 0.73854 0.68606 0.0
C857 C 0.97217 0.73396 0.66901 0.0
C858 C 0.95096 0.73027 0.67245 0.0
C859 C 0.94246 0.73114 0.6928 0.0
C860 C 0.95573 0.73558 0.70984 0.0
H861 H 0.48766 0.79656 0.96679 0.0
H862 H 0.48305 0.80751 0.90017 0.0
H863 H 0.48802 0.76988 0.89377 0.0
H864 H 0.5275 0.75701 0.96416 0.0
H865 H 0.51673 0.74173 0.98515 0.0
H866 H 0.51279 0.76956 0.98452 0.0
H867 H 0.47284 0.76399 0.98645 0.0
H868 H 0.47666 0.73613 0.98704 0.0
H869 H 0.46023 0.74766 0.96737 0.0
H870 H 0.49321 0.73104 0.89455 0.0
H871 H 0.49881 0.69376 0.90242 0.0
H872 H 0.50027 0.70803 0.96853 0.0
C873 C 0.48772 0.79108 0.95084 0.0
C874 C 0.48496 0.80507 0.93398 0.0
C875 C 0.48515 0.79717 0.91336 0.0
C876 C 0.48795 0.7758 0.90955 0.0
C877 C 0.49057 0.76248 0.92651 0.0
C878 C 0.49053 0.76979 0.94674 0.0
C879 C 0.49372 0.75215 0.96218 0.0
C880 C 0.51389 0.75531 0.97474 0.0
C881 C 0.47473 0.74985 0.97661 0.0
C882 C 0.49555 0.73377 0.94745 0.0
C883 C 0.49365 0.74008 0.92695 0.0
C884 C 0.49474 0.72592 0.91054 0.0
C885 C 0.49791 0.70475 0.91519 0.0
C886 C 0.49999 0.6979 0.9361 0.0
C887 C 0.49876 0.71271 0.95238 0.0
H888 H 0.54322 0.74452 0.32127 0.0
H889 H 0.55171 0.73317 0.25511 0.0
H890 H 0.51433 0.73946 0.24924 0.0
H891 H 0.49251 0.71974 0.32536 0.0
H892 H 0.48259 0.73853 0.34372 0.0
H893 H 0.51008 0.73285 0.34293 0.0
H894 H 0.51806 0.77212 0.33746 0.0
H895 H 0.49061 0.77792 0.33818 0.0
H896 H 0.50602 0.78585 0.31608 0.0
H897 H 0.47657 0.74796 0.25012 0.0
H898 H 0.44017 0.75714 0.25782 0.0
H899 H 0.45545 0.76247 0.32354 0.0
C900 C 0.53721 0.74328 0.30556 0.0
C901 C 0.55047 0.73836 0.28865 0.0
C902 C 0.54194 0.73689 0.26834 0.0
C903 C 0.52069 0.74045 0.26482 0.0
C904 C 0.50812 0.74538 0.28177 0.0
C905 C 0.51598 0.74671 0.30175 0.0
C906 C 0.49898 0.75235 0.31717 0.0
C907 C 0.49586 0.73482 0.33324 0.0
C908 C 0.5037 0.77331 0.32785 0.0
C909 C 0.4804 0.75412 0.30266 0.0
C910 C 0.4861 0.75006 0.28232 0.0
C911 C 0.47187 0.75109 0.266 0.0
C912 C 0.45121 0.75637 0.27056 0.0
C913 C 0.44488 0.76051 0.2913 0.0
C914 C 0.45974 0.7593 0.30755 0.0
H915 H 0.50874 0.29571 0.51698 0.0
H916 H 0.5197 0.30673 0.58286 0.0
H917 H 0.51683 0.26909 0.58968 0.0
H918 H 0.47081 0.25503 0.52373 0.0
H919 H 0.47972 0.23979 0.50191 0.0
H920 H 0.48311 0.2677 0.50188 0.0
H921 H 0.52276 0.26293 0.496 0.0
H922 H 0.51949 0.23499 0.49605 0.0
H923 H 0.53758 0.24703 0.51385 0.0
H924 H 0.51215 0.23061 0.58985 0.0
H925 H 0.50561 0.19331 0.58329 0.0
H926 H 0.49779 0.20648 0.51735 0.0
C927 C 0.51059 0.2902 0.53282 0.0
C928 C 0.51445 0.30429 0.54936 0.0
C929 C 0.51673 0.29637 0.56988 0.0
C930 C 0.51516 0.27495 0.57395 0.0
C931 C 0.51133 0.26154 0.55737 0.0
C932 C 0.50907 0.26877 0.53721 0.0
C933 C 0.50471 0.25088 0.52235 0.0
C934 C 0.48331 0.25351 0.51185 0.0
C935 C 0.52218 0.24884 0.5061 0.0
C936 C 0.50477 0.23256 0.53736 0.0
C937 C 0.50867 0.23912 0.55747 0.0
C938 C 0.50914 0.22524 0.57416 0.0
C939 C 0.50539 0.20406 0.57026 0.0
C940 C 0.50122 0.19689 0.5498 0.0
C941 C 0.50106 0.2114 0.53315 0.0
H942 H 0.95658 0.25926 0.76836 0.0
H943 H 0.94335 0.25978 0.83472 0.0
H944 H 0.98059 0.25467 0.84223 0.0
H945 H 0.99601 0.21921 0.77047 0.0
H946 H 0.01222 0.23101 0.75079 0.0
H947 H 0.98445 0.23511 0.75036 0.0
H948 H 0.99021 0.27514 0.75082 0.0
H949 H 0.01799 0.27116 0.7512 0.0
H950 H 0.00576 0.28661 0.7712 0.0
H951 H 0.01892 0.24983 0.84288 0.0
H952 H 0.05642 0.24493 0.8366 0.0
H953 H 0.04541 0.24662 0.76985 0.0
C954 C 0.96154 0.25837 0.78446 0.0
C955 C 0.94699 0.25994 0.80094 0.0
C956 C 0.95413 0.25857 0.8218 0.0
C957 C 0.97528 0.25569 0.82626 0.0
C958 C 0.98916 0.25411 0.80971 0.0
C959 C 0.98266 0.25533 0.78923 0.0
C960 C 0.00092 0.25286 0.77443 0.0
C961 C 0.99823 0.23339 0.7607 0.0
C962 C 0.00389 0.27262 0.76113 0.0
C963 C 0.01865 0.2501 0.78984 0.0
C964 C 0.01145 0.25095 0.81009 0.0
C965 C 0.02477 0.2491 0.8271 0.0
C966 C 0.04607 0.24634 0.82335 0.0
C967 C 0.0539 0.24535 0.80273 0.0
C968 C 0.03992 0.24719 0.78578 0.0
H969 H 0.99438 0.70315 0.06748 0.0
H970 H 0.00064 0.68532 0.00252 0.0
H971 H 0.01 0.72146 0.99349 0.0
H972 H 0.97129 0.75334 0.05774 0.0
H973 H 0.98465 0.76611 0.07889 0.0
H974 H 0.97889 0.73864 0.08047 0.0
H975 H 0.01798 0.73073 0.08684 0.0
H976 H 0.02387 0.75818 0.08521 0.0
H977 H 0.03709 0.73995 0.06843 0.0
H978 H 0.01867 0.75936 0.99127 0.0
H979 H 0.02478 0.79707 0.99588 0.0
H980 H 0.01245 0.79073 0.06211 0.0
C981 C 0.99776 0.70684 0.05137 0.0
C982 C 0.99679 0.69133 0.03573 0.0
C983 C 0.00123 0.69687 0.01481 0.0
C984 C 0.00663 0.71737 0.00949 0.0
C985 C 0.00747 0.73224 0.02525 0.0
C986 C 0.00308 0.72731 0.04574 0.0
C987 C 0.00472 0.74642 0.05954 0.0
C988 C 0.98363 0.75142 0.06976 0.0
C989 C 0.02194 0.74365 0.07597 0.0
C990 C 0.01063 0.76283 0.04357 0.0
C991 C 0.01225 0.75426 0.02391 0.0
C992 C 0.01745 0.76627 0.00659 0.0
C993 C 0.02092 0.78769 0.00938 0.0
C994 C 0.01909 0.79692 0.02935 0.0
C995 C 0.01398 0.7842 0.04664 0.0
H996 H 0.18281 0.45515 0.2435 0.0
H997 H 0.24934 0.44264 0.24386 0.0
H998 H 0.25621 0.47993 0.25059 0.0
H999 H 0.18569 0.5054 0.21795 0.0
H1000 H 0.16495 0.5166 0.23322 0.0
H1001 H 0.16527 0.48896 0.22808 0.0
H1002 H 0.16366 0.48144 0.26772 0.0
H1003 H 0.16339 0.50905 0.27297 0.0
H1004 H 0.18304 0.49269 0.28467 0.0
H1005 H 0.25588 0.51846 0.25794 0.0
H1006 H 0.24839 0.55554 0.26502 0.0
H1007 H 0.18207 0.54299 0.25978 0.0
C1008 C 0.19884 0.46022 0.2449 0.0
C1009 C 0.21553 0.4459 0.24313 0.0
C1010 C 0.23627 0.45326 0.24513 0.0
C1011 C 0.24035 0.47443 0.24896 0.0
C1012 C 0.22354 0.48808 0.25072 0.0
C1013 C 0.2032 0.4813 0.24872 0.0
C1014 C 0.18796 0.49915 0.25147 0.0
C1015 C 0.17522 0.50274 0.23149 0.0
C1016 C 0.17367 0.49535 0.27033 0.0
C1017 C 0.2029 0.51702 0.25543 0.0
C1018 C 0.22335 0.5103 0.25492 0.0
C1019 C 0.23993 0.52391 0.25833 0.0
C1020 C 0.23549 0.54497 0.26236 0.0
C1021 C 0.21464 0.55226 0.26295 0.0
C1022 C 0.19818 0.53799 0.2594 0.0
H1023 H 0.72773 0.04682 0.74714 0.0
H1024 H 0.66068 0.0562 0.74728 0.0
H1025 H 0.65545 0.01869 0.74082 0.0
H1026 H 0.72879 0.00717 0.70649 0.0
H1027 H 0.74914 0.99221 0.71883 0.0
H1028 H 0.74784 0.02004 0.72264 0.0
H1029 H 0.74691 0.01453 0.76261 0.0
H1030 H 0.74821 0.98669 0.75892 0.0
H1031 H 0.72719 0.9979 0.77379 0.0
H1032 H 0.65717 0.98035 0.73549 0.0
H1033 H 0.66569 0.94309 0.7319 0.0
H1034 H 0.73169 0.95789 0.73523 0.0
C1035 C 0.71196 0.04102 0.74565 0.0
C1036 C 0.69461 0.05453 0.74769 0.0
C1037 C 0.67422 0.04623 0.74579 0.0
C1038 C 0.67107 0.02493 0.74208 0.0
C1039 C 0.68845 0.01206 0.74028 0.0
C1040 C 0.7085 0.01971 0.74199 0.0
C1041 C 0.7244 0.00228 0.74002 0.0
C1042 C 0.73836 0.00563 0.72085 0.0
C1043 C 0.73744 0.00023 0.76003 0.0
C1044 C 0.71011 0.98364 0.73712 0.0
C1045 C 0.68945 0.98972 0.73724 0.0
C1046 C 0.67329 0.97538 0.73529 0.0
C1047 C 0.67832 0.95422 0.73329 0.0
C1048 C 0.69938 0.94749 0.73327 0.0
C1049 C 0.71546 0.9625 0.73507 0.0
H1050 H 0.20426 0.42241 0.00359 0.0
H1051 H 0.19156 0.48903 0.00239 0.0
H1052 H 0.22836 0.49591 0.99394 0.0
H1053 H 0.25474 0.42624 0.02756 0.0
H1054 H 0.26592 0.40523 0.01262 0.0
H1055 H 0.23841 0.40537 0.01815 0.0
H1056 H 0.23032 0.40281 0.9787 0.0
H1057 H 0.25781 0.40266 0.97303 0.0
H1058 H 0.24113 0.42192 0.96112 0.0
H1059 H 0.26629 0.49576 0.9856 0.0
H1060 H 0.30334 0.48864 0.97859 0.0
H1061 H 0.29191 0.42215 0.98573 0.0
C1062 C 0.20919 0.43844 0.00148 0.0
C1063 C 0.19496 0.45518 0.00362 0.0
C1064 C 0.20212 0.47593 0.00086 0.0
C1065 C 0.22301 0.48002 0.99602 0.0
C1066 C 0.2366 0.46321 0.99407 0.0
C1067 C 0.23005 0.44284 0.99675 0.0
C1068 C 0.248 0.42767 0.99409 0.0
C1069 C 0.252 0.41541 0.01431 0.0
C1070 C 0.24407 0.4129 0.97564 0.0
C1071 C 0.26563 0.44273 0.9895 0.0
C1072 C 0.25866 0.46314 0.98949 0.0
C1073 C 0.27196 0.47984 0.98557 0.0
C1074 C 0.293 0.47561 0.98159 0.0
C1075 C 0.3006 0.45483 0.98162 0.0
C1076 C 0.28664 0.43821 0.98564 0.0
H1077 H 0.75832 0.04176 0.23556 0.0
H1078 H 0.82408 0.05628 0.22842 0.0
H1079 H 0.83275 0.01916 0.23257 0.0
H1080 H 0.76508 0.00294 0.27505 0.0
H1081 H 0.74476 0.98598 0.26561 0.0
H1082 H 0.74324 0.01367 0.26096 0.0
H1083 H 0.74004 0.00697 0.22132 0.0
H1084 H 0.74152 0.97924 0.22585 0.0
H1085 H 0.75963 0.99162 0.2083 0.0
H1086 H 0.83486 0.98123 0.23849 0.0
H1087 H 0.83036 0.94399 0.24637 0.0
H1088 H 0.76332 0.9529 0.25021 0.0
C1089 C 0.77451 0.03707 0.23468 0.0
C1090 C 0.79051 0.052 0.23164 0.0
C1091 C 0.81152 0.04523 0.2308 0.0
C1092 C 0.81664 0.02414 0.23308 0.0
C1093 C 0.8006 0.00989 0.23623 0.0
C1094 C 0.77996 0.01596 0.23706 0.0
C1095 C 0.76594 0.99733 0.24137 0.0
C1096 C 0.75406 0.00015 0.26197 0.0
C1097 C 0.75089 0.99357 0.22312 0.0
C1098 C 0.782 0.97998 0.243 0.0
C1099 C 0.80186 0.98767 0.23985 0.0
C1100 C 0.81939 0.97496 0.24091 0.0
C1101 C 0.81664 0.95379 0.24544 0.0
C1102 C 0.79648 0.94541 0.24892 0.0
C1103 C 0.77892 0.95875 0.24754 0.0
H1104 H 0.70756 0.06734 0.99456 0.0
H1105 H 0.69595 0.00074 0.98925 0.0
H1106 H 0.73318 0.99377 0.99584 0.0
H1107 H 0.75704 0.06726 0.9689 0.0
H1108 H 0.76831 0.08681 0.98564 0.0
H1109 H 0.74063 0.0866 0.981 0.0
H1110 H 0.7339 0.08471 0.02075 0.0
H1111 H 0.76156 0.08494 0.02552 0.0
H1112 H 0.74573 0.06411 0.03582 0.0
H1113 H 0.77159 0.99398 0.00265 0.0
H1114 H 0.80873 0.00131 0.00902 0.0
H1115 H 0.79549 0.06783 0.00965 0.0
C1116 C 0.7128 0.05127 0.99487 0.0
C1117 C 0.69878 0.03459 0.99142 0.0
C1118 C 0.70635 0.0138 0.99185 0.0
C1119 C 0.72747 0.00966 0.9956 0.0
C1120 C 0.74085 0.02647 -0.00114 0.0
C1121 C 0.73384 0.04686 -0.00147 0.0
C1122 C 0.75153 0.06209 0.00222 0.0
C1123 C 0.75455 0.07654 0.98331 0.0
C1124 C 0.74796 0.0747 0.02227 0.0
C1125 C 0.76959 0.04707 0.00461 0.0
C1126 C 0.76306 0.02661 0.00267 0.0
C1127 C 0.77689 0.00994 0.00422 0.0
C1128 C 0.79798 0.01429 0.00784 0.0
C1129 C 0.80509 0.03516 0.00983 0.0
C1130 C 0.79061 0.05172 0.00819 0.0
H1131 H 0.27501 0.45842 0.74804 0.0
H1132 H 0.34121 0.44661 0.75599 0.0
H1133 H 0.34796 0.48445 0.75563 0.0
H1134 H 0.28057 0.50193 0.71296 0.0
H1135 H 0.25891 0.51623 0.72369 0.0
H1136 H 0.25915 0.48814 0.72483 0.0
H1137 H 0.25438 0.48966 0.76487 0.0
H1138 H 0.25422 0.51776 0.76386 0.0
H1139 H 0.27261 0.50438 0.78038 0.0
H1140 H 0.34776 0.52342 0.75434 0.0
H1141 H 0.34067 0.56111 0.7511 0.0
H1142 H 0.27465 0.54792 0.74388 0.0
C1143 C 0.29093 0.46378 0.74969 0.0
C1144 C 0.30757 0.44947 0.75204 0.0
C1145 C 0.32818 0.45719 0.75414 0.0
C1146 C 0.33219 0.47869 0.754 0.0
C1147 C 0.31547 0.49233 0.75175 0.0
C1148 C 0.29525 0.48523 0.74956 0.0
C1149 C 0.28016 0.50329 0.74709 0.0
C1150 C 0.26905 0.50233 0.72588 0.0
C1151 C 0.26442 0.5038 0.76513 0.0
C1152 C 0.29508 0.5216 0.74818 0.0
C1153 C 0.31536 0.51491 0.75095 0.0
C1154 C 0.33194 0.52888 0.7522 0.0
C1155 C 0.32774 0.55027 0.75036 0.0
C1156 C 0.3071 0.55755 0.74726 0.0
C1157 C 0.29059 0.54293 0.74633 0.0
H1158 H 0.29196 0.52173 0.50381 0.0
H1159 H 0.30649 0.58654 0.49006 0.0
H1160 H 0.26935 0.59355 0.48363 0.0
H1161 H 0.25006 0.51617 0.46518 0.0
H1162 H 0.23439 0.49993 0.48193 0.0
H1163 H 0.26238 0.49952 0.48421 0.0
H1164 H 0.25934 0.50859 0.5234 0.0
H1165 H 0.23137 0.50914 0.52123 0.0
H1166 H 0.24511 0.53157 0.53116 0.0
H1167 H 0.2308 0.59433 0.48077 0.0
H1168 H 0.19288 0.58859 0.48059 0.0
H1169 H 0.20269 0.52322 0.49589 0.0
C1170 C 0.28736 0.53731 0.49915 0.0
C1171 C 0.30221 0.55357 0.49742 0.0
C1172 C 0.29548 0.57381 0.49151 0.0
C1173 C 0.27439 0.57797 0.48779 0.0
C1174 C 0.26015 0.56173 0.48997 0.0
C1175 C 0.26629 0.54178 0.49539 0.0
C1176 C 0.24761 0.52738 0.49735 0.0
C1177 C 0.24868 0.50971 0.4812 0.0
C1178 C 0.24576 0.51866 0.51961 0.0
C1179 C 0.23005 0.54247 0.49247 0.0
C1180 C 0.2377 0.56217 0.48822 0.0
C1181 C 0.2246 0.57894 0.48391 0.0
C1182 C 0.20305 0.57551 0.48393 0.0
C1183 C 0.19475 0.55544 0.4882 0.0
C1184 C 0.20853 0.53871 0.49243 0.0
H1185 H 0.75448 0.66909 0.04516 0.0
H1186 H 0.76119 0.73517 0.05895 0.0
H1187 H 0.75806 0.74334 0.02165 0.0
H1188 H 0.78398 0.66959 0.99749 0.0
H1189 H 0.76734 0.65118 0.98429 0.0
H1190 H 0.76988 0.65022 0.01222 0.0
H1191 H 0.72984 0.65357 0.01611 0.0
H1192 H 0.72717 0.65444 0.98819 0.0
H1193 H 0.71654 0.67516 0.00391 0.0
H1194 H 0.75443 0.74468 0.98338 0.0
H1195 H 0.7496 0.73927 0.94582 0.0
H1196 H 0.74529 0.67231 0.95597 0.0
C1197 C 0.75521 0.68528 0.04034 0.0
C1198 C 0.75809 0.70148 0.05505 0.0
C1199 C 0.75902 0.72246 0.04805 0.0
C1200 C 0.75728 0.72729 0.02687 0.0
C1201 C 0.75463 0.71099 0.01282 0.0
C1202 C 0.75352 0.69042 0.01918 0.0
C1203 C 0.75055 0.67596 0.00069 0.0
C1204 C 0.76904 0.66085 -0.00145 0.0
C1205 C 0.72979 0.66409 0.00233 0.0
C1206 C 0.75015 0.69168 0.98301 0.0
C1207 C 0.75255 0.71177 0.99045 0.0
C1208 C 0.75253 0.72904 0.97732 0.0
C1209 C 0.74977 0.72576 0.95598 0.0
C1210 C 0.74707 0.70535 0.94788 0.0
C1211 C 0.74743 0.68808 0.96164 0.0
H1212 H 0.56894 0.51008 0.28867 0.0
H1213 H 0.50348 0.50644 0.30553 0.0
H1214 H 0.49431 0.50051 0.26877 0.0
H1215 H 0.56118 0.53748 0.24016 0.0
H1216 H 0.58168 0.52377 0.22672 0.0
H1217 H 0.58325 0.52757 0.25447 0.0
H1218 H 0.58721 0.48765 0.2598 0.0
H1219 H 0.58562 0.48373 0.23207 0.0
H1220 H 0.56783 0.47029 0.24916 0.0
H1221 H 0.4921 0.49447 0.23046 0.0
H1222 H 0.4969 0.48981 0.19268 0.0
H1223 H 0.56368 0.498 0.20026 0.0
C1224 C 0.55268 0.50802 0.28464 0.0
C1225 C 0.53694 0.5087 0.30004 0.0
C1226 C 0.51584 0.50603 0.29406 0.0
C1227 C 0.51045 0.50261 0.2732 0.0
C1228 C 0.52631 0.50199 0.25845 0.0
C1229 C 0.54698 0.50471 0.26383 0.0
C1230 C 0.56093 0.50355 0.24482 0.0
C1231 C 0.57243 0.52433 0.24134 0.0
C1232 C 0.5763 0.48521 0.24657 0.0
C1233 C 0.54485 0.49971 0.22795 0.0
C1234 C 0.52499 0.49879 0.2362 0.0
C1235 C 0.50756 0.4952 0.22379 0.0
C1236 C 0.51047 0.49254 0.20234 0.0
C1237 C 0.53066 0.49357 0.19345 0.0
C1238 C 0.54804 0.4972 0.20653 0.0
H1239 H 0.7525 0.32656 0.45503 0.0
H1240 H 0.74614 0.25964 0.44593 0.0
H1241 H 0.74168 0.25484 0.48366 0.0
H1242 H 0.78195 0.3235 0.50223 0.0
H1243 H 0.76959 0.34567 0.5143 0.0
H1244 H 0.77153 0.34426 0.48636 0.0
H1245 H 0.73151 0.34859 0.48315 0.0
H1246 H 0.72947 0.35015 0.51109 0.0
H1247 H 0.71457 0.33093 0.497 0.0
H1248 H 0.73876 0.25682 0.52204 0.0
H1249 H 0.73671 0.26558 0.55925 0.0
H1250 H 0.74512 0.33123 0.54426 0.0
C1251 C 0.74996 0.31093 0.46096 0.0
C1252 C 0.74965 0.29348 0.44746 0.0
C1253 C 0.74648 0.27327 0.4559 0.0
C1254 C 0.74392 0.27035 0.47733 0.0
C1255 C 0.74458 0.28778 0.4902 0.0
C1256 C 0.74744 0.30769 0.48242 0.0
C1257 C 0.74785 0.32365 0.49987 0.0
C1258 C 0.76899 0.33493 0.50073 0.0
C1259 C 0.72977 0.33925 0.49764 0.0
C1260 C 0.74484 0.30953 0.51862 0.0
C1261 C 0.74298 0.28892 0.51261 0.0
C1262 C 0.74015 0.2729 0.52698 0.0
C1263 C 0.73903 0.27807 0.54811 0.0
C1264 C 0.74076 0.29911 0.55475 0.0
C1265 C 0.7438 0.31501 0.53972 0.0
H1266 H 0.9774 0.50761 0.70915 0.0
H1267 H 0.91148 0.50186 0.69475 0.0
H1268 H 0.90427 0.49305 0.73135 0.0
H1269 H 0.97971 0.46486 0.74524 0.0
H1270 H 0.9977 0.4775 0.76273 0.0
H1271 H 0.9979 0.48391 0.73541 0.0
H1272 H 0.99257 0.523 0.74426 0.0
H1273 H 0.99247 0.51672 0.77162 0.0
H1274 H 0.97084 0.53065 0.76031 0.0
H1275 H 0.90396 0.48451 0.76904 0.0
H1276 H 0.91043 0.47736 0.80611 0.0
H1277 H 0.97661 0.48819 0.79671 0.0
C1278 C 0.96143 0.50463 0.71372 0.0
C1279 C 0.94501 0.50545 0.69902 0.0
C1280 C 0.92435 0.50132 0.70566 0.0
C1281 C 0.92007 0.49629 0.72644 0.0
C1282 C 0.9366 0.4954 0.74045 0.0
C1283 C 0.95686 0.4995 0.73446 0.0
C1284 C 0.97171 0.49728 0.75274 0.0
C1285 C 0.9877 0.47985 0.74879 0.0
C1286 C 0.98253 0.51816 0.75751 0.0
C1287 C 0.95659 0.49128 0.76988 0.0
C1288 C 0.93643 0.49031 0.76238 0.0
C1289 C 0.91967 0.48523 0.77513 0.0
C1290 C 0.92354 0.48118 0.7962 0.0
C1291 C 0.94404 0.48219 0.80439 0.0
C1292 C 0.96078 0.48719 0.79094 0.0
H1293 H 0.79262 0.97227 0.4984 0.0
H1294 H 0.80348 0.90631 0.48682 0.0
H1295 H 0.76602 0.89941 0.49068 0.0
H1296 H 0.75285 0.96512 0.53737 0.0
H1297 H 0.7374 0.98706 0.52892 0.0
H1298 H 0.76519 0.98716 0.52498 0.0
H1299 H 0.75959 0.99341 0.4855 0.0
H1300 H 0.73178 0.99329 0.48932 0.0
H1301 H 0.74346 0.97562 0.47089 0.0
H1302 H 0.72794 0.8992 0.49588 0.0
H1303 H 0.69084 0.90557 0.5027 0.0
H1304 H 0.70364 0.97167 0.51112 0.0
C1305 C 0.78711 0.95639 0.49666 0.0
C1306 C 0.80108 0.93984 0.49231 0.0
C1307 C 0.79319 0.91927 0.49018 0.0
C1308 C 0.77189 0.91517 0.49231 0.0
C1309 C 0.7586 0.93176 0.49658 0.0
C1310 C 0.7658 0.95196 0.49877 0.0
C1311 C 0.748 0.96682 0.50359 0.0
C1312 C 0.75104 0.97714 0.52499 0.0
C1313 C 0.74557 0.98326 0.48629 0.0
C1314 C 0.72975 0.95174 0.5038 0.0
C1315 C 0.73632 0.93163 0.49966 0.0
C1316 C 0.72256 0.91488 0.49913 0.0
C1317 C 0.70148 0.9187 0.50304 0.0
C1318 C 0.69424 0.93914 0.50746 0.0
C1319 C 0.70864 0.95589 0.50774 0.0
H1320 H 0.1833 0.31753 0.2691 0.0
H1321 H 0.19429 0.37277 0.30626 0.0
H1322 H 0.19365 0.35134 0.33833 0.0
H1323 H 0.15 0.28856 0.30852 0.0
H1324 H 0.1617 0.26389 0.30179 0.0
H1325 H 0.15886 0.28397 0.28229 0.0
H1326 H 0.19845 0.28211 0.27468 0.0
H1327 H 0.20144 0.26218 0.29418 0.0
H1328 H 0.21671 0.28575 0.29572 0.0
H1329 H 0.19782 0.32376 0.3652 0.0
H1330 H 0.20606 0.29192 0.38527 0.0
H1331 H 0.19188 0.25399 0.3312 0.0
C1332 C 0.18466 0.3251 0.28411 0.0
C1333 C 0.18826 0.34678 0.28546 0.0
C1334 C 0.19101 0.35622 0.30513 0.0
C1335 C 0.19067 0.34417 0.32337 0.0
C1336 C 0.18759 0.32269 0.3216 0.0
C1337 C 0.18445 0.31321 0.30249 0.0
C1338 C 0.18394 0.28962 0.3047 0.0
C1339 C 0.16234 0.28101 0.29899 0.0
C1340 C 0.20116 0.27932 0.29155 0.0
C1341 C 0.1882 0.28731 0.32783 0.0
C1342 C 0.18996 0.3066 0.33731 0.0
C1343 C 0.19597 0.30856 0.35808 0.0
C1344 C 0.20067 0.2904 0.36935 0.0
C1345 C 0.19928 0.27051 0.35988 0.0
C1346 C 0.19247 0.26896 0.339 0.0
H1347 H 0.96311 0.9789 0.60713 0.0
H1348 H 0.0051 0.92753 0.59382 0.0
H1349 H 0.97929 0.91303 0.56906 0.0
H1350 H 0.91367 0.94943 0.60207 0.0
H1351 H 0.90071 0.97127 0.58997 0.0
H1352 H 0.92118 0.97573 0.60868 0.0
H1353 H 0.94103 0.99826 0.58161 0.0
H1354 H 0.92073 0.99381 0.56283 0.0
H1355 H 0.9473 0.98723 0.55656 0.0
H1356 H 0.95028 0.90645 0.54287 0.0
H1357 H 0.92119 0.90862 0.51764 0.0
H1358 H 0.89892 0.96464 0.54843 0.0
C1359 C 0.96673 0.96432 0.59942 0.0
C1360 C 0.98608 0.95428 0.6025 0.0
C1361 C 0.9903 0.93542 0.5918 0.0
C1362 C 0.97573 0.92706 0.57774 0.0
C1363 C 0.95699 0.9377 0.57467 0.0
C1364 C 0.95246 0.95586 0.58535 0.0
C1365 C 0.93213 0.96535 0.5781 0.0
C1366 C 0.91597 0.96544 0.59576 0.0
C1367 C 0.93552 0.98746 0.56924 0.0
C1368 C 0.92619 0.95007 0.5612 0.0
C1369 C 0.94052 0.93404 0.55959 0.0
C1370 C 0.93882 0.91877 0.5442 0.0
C1371 C 0.92225 0.92014 0.52993 0.0
C1372 C 0.90772 0.93677 0.53105 0.0
C1373 C 0.90963 0.95163 0.54718 0.0
H1374 H 0.26293 0.71915 0.85711 0.0
H1375 H 0.30885 0.76579 0.83993 0.0
H1376 H 0.32382 0.74125 0.81417 0.0
H1377 H 0.29643 0.67273 0.85018 0.0
H1378 H 0.27517 0.65757 0.8398 0.0
H1379 H 0.27013 0.6778 0.85862 0.0
H1380 H 0.24395 0.69506 0.83309 0.0
H1381 H 0.24899 0.67502 0.81418 0.0
H1382 H 0.25249 0.70208 0.80727 0.0
H1383 H 0.33125 0.71256 0.78766 0.0
H1384 H 0.33042 0.68269 0.76321 0.0
H1385 H 0.27922 0.65567 0.79822 0.0
C1386 C 0.27644 0.7241 0.8483 0.0
C1387 C 0.28479 0.74436 0.85061 0.0
C1388 C 0.30229 0.75028 0.83853 0.0
C1389 C 0.31089 0.73644 0.82386 0.0
C1390 C 0.30188 0.71674 0.82161 0.0
C1391 C 0.28512 0.71058 0.83365 0.0
C1392 C 0.27716 0.68931 0.82727 0.0
C1393 C 0.2799 0.67341 0.84503 0.0
C1394 C 0.25431 0.69045 0.82002 0.0
C1395 C 0.29167 0.68465 0.80936 0.0
C1396 C 0.306 0.70048 0.80641 0.0
C1397 C 0.32026 0.69996 0.79002 0.0
C1398 C 0.31966 0.68294 0.7762 0.0
C1399 C 0.30478 0.6668 0.77879 0.0
C1400 C 0.29087 0.66765 0.79581 0.0
H1401 H 0.6019 0.02984 0.04176 0.0
H1402 H 0.5818 0.08796 0.01346 0.0
H1403 H 0.55218 0.0896 0.03821 0.0
H1404 H 0.5535 0.00804 0.04776 0.0
H1405 H 0.55886 0.99561 0.07239 0.0
H1406 H 0.57978 0.0007 0.0545 0.0
H1407 H 0.59946 0.02157 0.08296 0.0
H1408 H 0.57863 0.0164 0.10105 0.0
H1409 H 0.58656 0.04291 0.09592 0.0
H1410 H 0.522 0.08185 0.06312 0.0
H1411 H 0.49558 0.06654 0.08682 0.0
H1412 H 0.53687 0.01424 0.09878 0.0
C1413 C 0.59154 0.04317 0.04102 0.0
C1414 C 0.5941 0.05876 0.0257 0.0
C1415 C 0.58019 0.07592 0.02521 0.0
C1416 C 0.56332 0.07695 0.03917 0.0
C1417 C 0.56088 0.06088 0.05369 0.0
C1418 C 0.57487 0.04451 0.05487 0.0
C1419 C 0.5683 0.0285 0.07086 0.0
C1420 C 0.5649 0.00696 0.06076 0.0
C1421 C 0.58418 0.02729 0.08876 0.0
C1422 C 0.548 0.03797 0.07803 0.0
C1423 C 0.54395 0.05671 0.06813 0.0
C1424 C 0.52524 0.06739 0.07125 0.0
C1425 C 0.5103 0.05857 0.08468 0.0
C1426 C 0.51422 0.03928 0.09477 0.0
C1427 C 0.53348 0.02915 0.09156 0.0
H1428 H 0.23391 0.71541 0.15403 0.0
H1429 H 0.17831 0.75301 0.16229 0.0
H1430 H 0.16434 0.72656 0.18681 0.0
H1431 H 0.20923 0.6639 0.15812 0.0
H1432 H 0.23094 0.65315 0.17237 0.0
H1433 H 0.23517 0.67378 0.15374 0.0
H1434 H 0.25313 0.69605 0.18228 0.0
H1435 H 0.24896 0.67554 0.20095 0.0
H1436 H 0.23938 0.70147 0.20615 0.0
H1437 H 0.15767 0.69655 0.21232 0.0
H1438 H 0.16 0.66743 0.23769 0.0
H1439 H 0.22069 0.65098 0.21295 0.0
C1440 C 0.2186 0.71794 0.16064 0.0
C1441 C 0.2071 0.73618 0.1561 0.0
C1442 C 0.18733 0.73907 0.16547 0.0
C1443 C 0.17926 0.72411 0.17935 0.0
C1444 C 0.19119 0.70641 0.18371 0.0
C1445 C 0.21048 0.70336 0.17462 0.0
C1446 C 0.2211 0.68406 0.18306 0.0
C1447 C 0.22429 0.66776 0.16579 0.0
C1448 C 0.24186 0.68963 0.19375 0.0
C1449 C 0.205 0.67688 0.19865 0.0
C1450 C 0.18768 0.6897 0.19863 0.0
C1451 C 0.17111 0.68636 0.21233 0.0
C1452 C 0.17253 0.66975 0.22664 0.0
C1453 C 0.19053 0.65697 0.22732 0.0
C1454 C 0.20672 0.66047 0.21285 0.0
H1455 H 0.59836 0.96426 0.45694 0.0
H1456 H 0.57133 0.91056 0.48815 0.0
H1457 H 0.54234 0.91056 0.46271 0.0
H1458 H 0.55205 0.99055 0.44773 0.0
H1459 H 0.55954 0.00065 0.42261 0.0
H1460 H 0.57916 0.99488 0.44177 0.0
H1461 H 0.59781 0.97036 0.41563 0.0
H1462 H 0.57825 0.97613 0.39631 0.0
H1463 H 0.58342 0.94943 0.40357 0.0
H1464 H 0.51439 0.91899 0.43593 0.0
H1465 H 0.49063 0.9345 0.40975 0.0
H1466 H 0.53682 0.9821 0.39621 0.0
C1467 C 0.58656 0.95224 0.45827 0.0
C1468 C 0.58713 0.9374 0.47454 0.0
C1469 C 0.57128 0.92203 0.47575 0.0
C1470 C 0.55476 0.92191 0.46137 0.0
C1471 C 0.55447 0.9371 0.44579 0.0
C1472 C 0.5701 0.95184 0.44407 0.0
C1473 C 0.5657 0.96722 0.42675 0.0
C1474 C 0.564 0.98964 0.43523 0.0
C1475 C 0.58228 0.96568 0.40955 0.0
C1476 C 0.54485 0.95921 0.41929 0.0
C1477 C 0.53863 0.94175 0.43033 0.0
C1478 C 0.51926 0.93246 0.42698 0.0
C1479 C 0.50586 0.94139 0.41212 0.0
C1480 C 0.51193 0.95941 0.40084 0.0
C1481 C 0.53181 0.96816 0.40435 0.0
H1482 H 0.25794 0.28677 0.6344 0.0
H1483 H 0.31538 0.25121 0.63782 0.0
H1484 H 0.33053 0.27807 0.66091 0.0
H1485 H 0.28179 0.33986 0.63735 0.0
H1486 H 0.26088 0.34952 0.6534 0.0
H1487 H 0.2559 0.32932 0.63452 0.0
H1488 H 0.24065 0.30582 0.66365 0.0
H1489 H 0.24571 0.32582 0.6826 0.0
H1490 H 0.25629 0.3 0.68626 0.0
H1491 H 0.3378 0.30655 0.68699 0.0
H1492 H 0.33658 0.33421 0.71376 0.0
H1493 H 0.27415 0.35075 0.69353 0.0
C1494 C 0.27394 0.28495 0.63945 0.0
C1495 C 0.28555 0.267 0.63413 0.0
C1496 C 0.30624 0.26492 0.64156 0.0
C1497 C 0.31499 0.28011 0.65467 0.0
C1498 C 0.30287 0.29731 0.66016 0.0
C1499 C 0.28283 0.29987 0.65267 0.0
C1500 C 0.27235 0.31863 0.66246 0.0
C1501 C 0.26745 0.33532 0.64595 0.0
C1502 C 0.25259 0.31217 0.67445 0.0
C1503 C 0.28937 0.32586 0.67709 0.0
C1504 C 0.30697 0.31356 0.67536 0.0
C1505 C 0.32422 0.31648 0.68825 0.0
C1506 C 0.32337 0.33222 0.70345 0.0
C1507 C 0.30531 0.34475 0.70574 0.0
C1508 C 0.28829 0.34164 0.69209 0.0
H1509 H 0.90467 0.03146 0.95832 0.0
H1510 H 0.91931 0.09176 0.98528 0.0
H1511 H 0.94836 0.09582 0.96012 0.0
H1512 H 0.95524 0.01446 0.95173 0.0
H1513 H 0.95056 0.00118 0.92744 0.0
H1514 H 0.92968 0.00438 0.94581 0.0
H1515 H 0.90727 0.02265 0.91754 0.0
H1516 H 0.92808 0.01939 0.89899 0.0
H1517 H 0.91759 0.04501 0.90395 0.0
H1518 H 0.97861 0.09085 0.93446 0.0
H1519 H 0.00568 0.07817 0.90999 0.0
H1520 H 0.96974 0.02169 0.89995 0.0
C1521 C 0.91372 0.04572 0.95874 0.0
C1522 C 0.90975 0.06129 0.97377 0.0
C1523 C 0.92199 0.0797 0.97378 0.0
C1524 C 0.93854 0.0821 0.95959 0.0
C1525 C 0.94237 0.06611 0.94532 0.0
C1526 C 0.93005 0.04842 0.94466 0.0
C1527 C 0.93784 0.03294 0.92873 0.0
C1528 C 0.94368 0.01202 0.93905 0.0
C1529 C 0.92174 0.02983 0.91127 0.0
C1530 C 0.95689 0.04433 0.92089 0.0
C1531 C 0.95928 0.06349 0.93048 0.0
C1532 C 0.97665 0.07604 0.92661 0.0
C1533 C 0.99196 0.06871 0.91272 0.0
C1534 C 0.98976 0.04902 0.90292 0.0
C1535 C 0.9718 0.03694 0.90692 0.0
H1536 H 0.32851 0.19263 0.25845 0.0
H1537 H 0.37539 0.22518 0.29469 0.0
H1538 H 0.35387 0.22122 0.32617 0.0
H1539 H 0.28624 0.21658 0.28085 0.0
H1540 H 0.26915 0.19425 0.28112 0.0
H1541 H 0.28962 0.19595 0.26207 0.0
H1542 H 0.30426 0.16027 0.27419 0.0
H1543 H 0.28366 0.15832 0.29317 0.0
H1544 H 0.31048 0.15631 0.30129 0.0
H1545 H 0.32572 0.21902 0.35201 0.0
H1546 H 0.29283 0.21704 0.37162 0.0
H1547 H 0.26345 0.1854 0.31958 0.0
C1548 C 0.33453 0.19819 0.27319 0.0
C1549 C 0.3537 0.20902 0.27422 0.0
C1550 C 0.36081 0.21674 0.29361 0.0
C1551 C 0.34871 0.21452 0.31159 0.0
C1552 C 0.32954 0.2045 0.30996 0.0
C1553 C 0.3225 0.19623 0.29135 0.0
C1554 C 0.30037 0.18809 0.29356 0.0
C1555 C 0.28547 0.1994 0.27851 0.0
C1556 C 0.29966 0.16433 0.29037 0.0
C1557 C 0.29587 0.19382 0.31605 0.0
C1558 C 0.31304 0.20308 0.3252 0.0
C1559 C 0.3123 0.21139 0.3452 0.0
C1560 C 0.29351 0.21032 0.35616 0.0
C1561 C 0.27567 0.20093 0.34717 0.0
C1562 C 0.27698 0.19228 0.32696 0.0
H1563 H 0.03299 0.04559 0.60317 0.0
H1564 H 0.09049 0.01712 0.58199 0.0
H1565 H 0.09272 0.0433 0.55358 0.0
H1566 H 0.01154 0.05509 0.55491 0.0
H1567 H -0.00014 0.07976 0.56163 0.0
H1568 H 0.0043 0.06048 0.5815 0.0
H1569 H 0.02583 0.08723 0.60282 0.0
H1570 H 0.02136 0.10668 0.58301 0.0
H1571 H 0.0476 0.10029 0.59078 0.0
H1572 H 0.08554 0.06964 0.52453 0.0
H1573 H 0.07095 0.09486 0.49912 0.0
H1574 H 0.01928 0.10688 0.5409 0.0
C1575 C 0.0463 0.04509 0.59282 0.0
C1576 C 0.06157 0.02931 0.59476 0.0
C1577 C 0.07871 0.02917 0.58088 0.0
C1578 C 0.08006 0.04396 0.56468 0.0
C1579 C 0.06438 0.05899 0.56289 0.0
C1580 C 0.04802 0.05982 0.57685 0.0
C1581 C 0.03257 0.07672 0.57109 0.0
C1582 C 0.01079 0.06745 0.56704 0.0
C1583 C 0.0318 0.09374 0.58793 0.0
C1584 C 0.04233 0.08484 0.55124 0.0
C1585 C 0.06071 0.07451 0.54674 0.0
C1586 C 0.07143 0.07813 0.52817 0.0
C1587 C 0.06302 0.09245 0.51381 0.0
C1588 C 0.04416 0.10308 0.51817 0.0
C1589 C 0.03399 0.09942 0.53733 0.0
H1590 H 0.13066 0.77036 0.79079 0.0
H1591 H 0.14125 0.82274 0.7493 0.0
H1592 H 0.16553 0.83816 0.77505 0.0
H1593 H 0.13588 0.79877 0.841 0.0
H1594 H 0.14941 0.77717 0.85289 0.0
H1595 H 0.13021 0.77242 0.83295 0.0
H1596 H 0.15759 0.75177 0.81161 0.0
H1597 H 0.17685 0.75654 0.83135 0.0
H1598 H 0.18188 0.76416 0.80479 0.0
H1599 H 0.19141 0.84593 0.80415 0.0
H1600 H 0.21764 0.84418 0.83246 0.0
H1601 H 0.19092 0.78559 0.85333 0.0
C1602 C 0.13755 0.78541 0.78737 0.0
C1603 C 0.13384 0.79551 0.76818 0.0
C1604 C 0.14371 0.81485 0.76402 0.0
C1605 C 0.15748 0.82374 0.77858 0.0
C1606 C 0.16124 0.81303 0.79715 0.0
C1607 C 0.15152 0.79426 0.80153 0.0
C1608 C 0.15991 0.78455 0.8213 0.0
C1609 C 0.14283 0.78315 0.83803 0.0
C1610 C 0.16963 0.76299 0.81699 0.0
C1611 C 0.1763 0.80044 0.82711 0.0
C1612 C 0.1766 0.81701 0.81331 0.0
C1613 C 0.19114 0.83312 0.81516 0.0
C1614 C 0.20595 0.83203 0.83129 0.0
C1615 C 0.20632 0.81474 0.84505 0.0
C1616 C 0.19103 0.79902 0.84306 0.0
H1617 H 0.44269 0.91413 -0.00072 0.0
H1618 H 0.46988 0.86331 0.03472 0.0
H1619 H 0.4619 0.88184 0.06739 0.0
H1620 H 0.46435 0.95329 0.0282 0.0
H1621 H 0.44262 0.97109 0.02707 0.0
H1622 H 0.44628 0.95221 0.00672 0.0
H1623 H 0.40904 0.93791 0.01289 0.0
H1624 H 0.40519 0.95688 0.03327 0.0
H1625 H 0.4015 0.9295 0.03861 0.0
H1626 H 0.45677 0.90773 0.09531 0.0
H1627 H 0.45462 0.93951 0.11693 0.0
H1628 H 0.4305 0.97422 0.06426 0.0
C1629 C 0.44619 0.90659 0.01397 0.0
C1630 C 0.45662 0.88715 0.01453 0.0
C1631 C 0.46172 0.87809 0.03398 0.0
C1632 C 0.45717 0.88848 0.05262 0.0
C1633 C 0.44753 0.90795 0.05157 0.0
C1634 C 0.44197 0.91692 0.03278 0.0
C1635 C 0.43419 0.9391 0.0359 0.0
C1636 C 0.44767 0.95484 0.02376 0.0
C1637 C 0.4111 0.94095 0.02981 0.0
C1638 C 0.43707 0.94146 0.05925 0.0
C1639 C 0.44448 0.92314 0.06797 0.0
C1640 C 0.45044 0.92197 0.08881 0.0
C1641 C 0.44919 0.94007 0.10096 0.0
C1642 C 0.44191 0.95901 0.09232 0.0
C1643 C 0.43539 0.95966 0.07133 0.0
H1644 H 0.32898 0.8121 0.24673 0.0
H1645 H 0.37961 0.78523 0.21107 0.0
H1646 H 0.3613 0.79386 0.17845 0.0
H1647 H 0.29023 0.79072 0.21801 0.0
H1648 H 0.27225 0.81232 0.21905 0.0
H1649 H 0.2912 0.80894 0.23938 0.0
H1650 H 0.3051 0.84635 0.23293 0.0
H1651 H 0.28604 0.84992 0.21258 0.0
H1652 H 0.31331 0.85387 0.20715 0.0
H1653 H 0.33545 0.79853 0.15076 0.0
H1654 H 0.30343 0.79934 0.12945 0.0
H1655 H 0.26877 0.82355 0.18196 0.0
C1656 C 0.33652 0.80892 0.23199 0.0
C1657 C 0.35581 0.79832 0.23131 0.0
C1658 C 0.36492 0.79354 0.21184 0.0
C1659 C 0.35467 0.79847 0.19325 0.0
C1660 C 0.33529 0.80816 0.19436 0.0
C1661 C 0.32629 0.81349 0.2132 0.0
C1662 C 0.30407 0.82104 0.21009 0.0
C1663 C 0.28853 0.80744 0.22235 0.0
C1664 C 0.30202 0.84418 0.21604 0.0
C1665 C 0.30167 0.81804 0.18676 0.0
C1666 C 0.32005 0.81099 0.17799 0.0
C1667 C 0.32116 0.80466 0.15726 0.0
C1668 C 0.30294 0.80513 0.14529 0.0
C1669 C 0.28395 0.81201 0.154 0.0
C1670 C 0.28337 0.819 0.17483 0.0
H1671 H 0.43148 0.03143 0.42242 0.0
H1672 H 0.46135 0.0607 0.36947 0.0
H1673 H 0.46653 0.0929 0.38989 0.0
H1674 H 0.40757 0.08088 0.44562 0.0
H1675 H 0.41323 0.07222 0.47174 0.0
H1676 H 0.40731 0.0534 0.45172 0.0
H1677 H 0.44205 0.03432 0.45947 0.0
H1678 H 0.44816 0.05311 0.47931 0.0
H1679 H 0.46617 0.04871 0.45824 0.0
H1680 H 0.47449 0.1188 0.41712 0.0
H1681 H 0.48432 0.13708 0.44946 0.0
H1682 H 0.44958 0.09165 0.48558 0.0
C1683 C 0.43816 0.04504 0.41494 0.0
C1684 C 0.44553 0.04394 0.39427 0.0
C1685 C 0.45523 0.06153 0.38518 0.0
C1686 C 0.45821 0.07986 0.39665 0.0
C1687 C 0.4515 0.0803 0.41727 0.0
C1688 C 0.44152 0.06344 0.42636 0.0
C1689 C 0.43854 0.06695 0.44955 0.0
C1690 C 0.41527 0.06845 0.45498 0.0
C1691 C 0.44938 0.04976 0.46238 0.0
C1692 C 0.44929 0.08789 0.4522 0.0
C1693 C 0.45632 0.09545 0.43329 0.0
C1694 C 0.46861 0.11334 0.43195 0.0
C1695 C 0.4742 0.12358 0.4504 0.0
C1696 C 0.46748 0.11594 0.46996 0.0
C1697 C 0.45445 0.09816 0.47078 0.0
H1698 H 0.13953 0.22975 0.71107 0.0
H1699 H 0.1601 0.18735 0.75964 0.0
H1700 H 0.18712 0.17339 0.73594 0.0
H1701 H 0.14974 0.19507 0.66614 0.0
H1702 H 0.15857 0.21656 0.65029 0.0
H1703 H 0.13913 0.22083 0.67008 0.0
H1704 H 0.16228 0.24965 0.68646 0.0
H1705 H 0.18183 0.24536 0.66689 0.0
H1706 H 0.18861 0.24346 0.69407 0.0
H1707 H 0.21425 0.1666 0.70762 0.0
H1708 H 0.23871 0.16795 0.67777 0.0
H1709 H 0.20027 0.21561 0.64885 0.0
C1710 C 0.14931 0.21713 0.71659 0.0
C1711 C 0.14757 0.20952 0.73715 0.0
C1712 C 0.16103 0.19331 0.74388 0.0
C1713 C 0.17643 0.18528 0.73052 0.0
C1714 C 0.17811 0.19361 0.7105 0.0
C1715 C 0.16479 0.20911 0.70357 0.0
C1716 C 0.17081 0.21676 0.68213 0.0
C1717 C 0.15354 0.21201 0.66622 0.0
C1718 C 0.17621 0.24019 0.68242 0.0
C1719 C 0.18992 0.20354 0.67822 0.0
C1720 C 0.1938 0.19005 0.69458 0.0
C1721 C 0.2112 0.17695 0.69465 0.0
C1722 C 0.22502 0.17783 0.67765 0.0
C1723 C 0.22146 0.1919 0.66098 0.0
C1724 C 0.2035 0.20467 0.66131 0.0
H1725 H 0.02986 0.89412 0.95411 0.0
H1726 H 0.08055 0.90561 0.99731 0.0
H1727 H 0.09427 0.93303 0.97371 0.0
H1728 H 0.05842 0.90492 0.90523 0.0
H1729 H 0.03609 0.91755 0.89374 0.0
H1730 H 0.03249 0.89676 0.91233 0.0
H1731 H 0.00949 0.9211 0.93494 0.0
H1732 H 0.01306 0.94192 0.91651 0.0
H1733 H 0.01982 0.94583 0.94347 0.0
H1734 H 0.10057 0.96143 0.94624 0.0
H1735 H 0.09729 0.98918 0.91941 0.0
H1736 H 0.04124 0.95954 0.89606 0.0
C1737 C 0.04418 0.90197 0.9584 0.0
C1738 C 0.05429 0.89755 0.97744 0.0
C1739 C 0.07266 0.90862 0.9827 0.0
C1740 C 0.08058 0.92417 0.96936 0.0
C1741 C 0.0699 0.92847 0.95088 0.0
C1742 C 0.05206 0.91764 0.94549 0.0
C1743 C 0.04208 0.92653 0.92608 0.0
C1744 C 0.04229 0.91048 0.90829 0.0
C1745 C 0.01981 0.93431 0.93053 0.0
C1746 C 0.05673 0.94445 0.92163 0.0
C1747 C 0.07297 0.94513 0.93577 0.0
C1748 C 0.08799 0.9609 0.93502 0.0
C1749 C 0.08606 0.97656 0.91971 0.0
C1750 C 0.06899 0.9765 0.90573 0.0
C1751 C 0.05445 0.96 0.90656 0.0
H1752 H 0.28784 0.3485 0.23466 0.0
H1753 H 0.24754 0.33954 0.18114 0.0
H1754 H 0.27298 0.3145 0.16639 0.0
H1755 H 0.33807 0.34331 0.20732 0.0
H1756 H 0.34968 0.32946 0.22885 0.0
H1757 H 0.32962 0.34856 0.23357 0.0
H1758 H 0.30793 0.32078 0.25343 0.0
H1759 H 0.32786 0.30164 0.24876 0.0
H1760 H 0.30144 0.29658 0.24065 0.0
H1761 H 0.30195 0.28793 0.15915 0.0
H1762 H 0.33037 0.26172 0.16109 0.0
H1763 H 0.35047 0.28834 0.21985 0.0
C1764 C 0.28451 0.34165 0.21961 0.0
C1765 C 0.26577 0.3461 0.20898 0.0
C1766 C 0.26188 0.33647 0.18951 0.0
C1767 C 0.27626 0.32226 0.18099 0.0
C1768 C 0.29445 0.31793 0.19212 0.0
C1769 C 0.29856 0.32743 0.21102 0.0
C1770 C 0.3182 0.31896 0.22088 0.0
C1771 C 0.33488 0.3361 0.22275 0.0
C1772 C 0.31357 0.30889 0.24218 0.0
C1773 C 0.32429 0.3028 0.20489 0.0
C1774 C 0.31067 0.30257 0.18821 0.0
C1775 C 0.31281 0.28815 0.17205 0.0
C1776 C 0.32901 0.27336 0.17323 0.0
C1777 C 0.34261 0.27298 0.19061 0.0
C1778 C 0.34036 0.28821 0.20633 0.0
H1779 H 0.75784 0.16239 0.79425 0.0
H1780 H 0.79216 0.11873 0.75569 0.0
H1781 H 0.8244 0.13867 0.76182 0.0
H1782 H 0.78127 0.20664 0.77536 0.0
H1783 H 0.78228 0.22084 0.79956 0.0
H1784 H 0.7626 0.20125 0.79565 0.0
H1785 H 0.77464 0.18195 0.82901 0.0
H1786 H 0.79429 0.20164 0.83317 0.0
H1787 H 0.8016 0.1745 0.83177 0.0
H1788 H 0.85119 0.16566 0.7671 0.0
H1789 H 0.87168 0.19771 0.77248 0.0
H1790 H 0.82091 0.22445 0.80817 0.0
C1791 C 0.77231 0.15663 0.78776 0.0
C1792 C 0.77257 0.13889 0.77467 0.0
C1793 C 0.79165 0.1322 0.76586 0.0
C1794 C 0.81005 0.1434 0.7693 0.0
C1795 C 0.80917 0.16125 0.78163 0.0
C1796 C 0.79087 0.16778 0.79092 0.0
C1797 C 0.79385 0.1887 0.80165 0.0
C1798 C 0.77913 0.20533 0.7925 0.0
C1799 C 0.79092 0.18656 0.82531 0.0
C1800 C 0.81641 0.19324 0.79621 0.0
C1801 C 0.82495 0.17703 0.78484 0.0
C1802 C 0.84486 0.17826 0.77637 0.0
C1803 C 0.85633 0.19658 0.7794 0.0
C1804 C 0.84794 0.21345 0.79089 0.0
C1805 C 0.82785 0.21159 0.79973 0.0
H1806 H 0.04715 0.59544 0.03475 0.0
H1807 H 0.01776 0.57592 0.09231 0.0
H1808 H 0.04335 0.54702 0.09551 0.0
H1809 H 0.05512 0.54709 0.01432 0.0
H1810 H 0.08 0.55277 0.00259 0.0
H1811 H 0.06156 0.57343 0.00676 0.0
H1812 H 0.08903 0.59401 0.02811 0.0
H1813 H 0.10767 0.5734 0.02389 0.0
H1814 H 0.1016 0.58167 0.05002 0.0
H1815 H 0.069 0.51705 0.08899 0.0
H1816 H 0.09289 0.49039 0.07441 0.0
H1817 H 0.10566 0.53119 0.02199 0.0
C1818 C 0.04638 0.58539 0.0483 0.0
C1819 C 0.03051 0.58784 0.06327 0.0
C1820 C 0.02995 0.57437 0.08076 0.0
C1821 C 0.0444 0.55793 0.08267 0.0
C1822 C 0.05949 0.55554 0.06718 0.0
C1823 C 0.06075 0.56921 0.05054 0.0
C1824 C 0.07732 0.56268 0.03518 0.0
C1825 C 0.06793 0.55875 0.01345 0.0
C1826 C 0.09495 0.57891 0.03426 0.0
C1827 C 0.08463 0.54265 0.04521 0.0
C1828 C 0.0744 0.53878 0.06376 0.0
C1829 C 0.07742 0.52018 0.07472 0.0
C1830 C 0.09099 0.50511 0.06632 0.0
C1831 C 0.10126 0.50876 0.04714 0.0
C1832 C 0.0983 0.52799 0.03683 0.0
H1833 H 0.67723 0.77213 0.31598 0.0
H1834 H 0.62367 0.80141 0.28705 0.0
H1835 H 0.64352 0.83414 0.28292 0.0
H1836 H 0.69915 0.82062 0.3418 0.0
H1837 H 0.72558 0.81312 0.33594 0.0
H1838 H 0.7061 0.79338 0.34064 0.0
H1839 H 0.71454 0.7765 0.305 0.0
H1840 H 0.73394 0.79616 0.30018 0.0
H1841 H 0.71316 0.79219 0.28171 0.0
H1842 H 0.66989 0.86132 0.27691 0.0
H1843 H 0.70164 0.8813 0.26859 0.0
H1844 H 0.73913 0.83513 0.30086 0.0
C1845 C 0.66956 0.78575 0.30954 0.0
C1846 C 0.64884 0.78454 0.30221 0.0
C1847 C 0.63945 0.80226 0.29301 0.0
C1848 C 0.65058 0.8209 0.29067 0.0
C1849 C 0.67117 0.82154 0.29749 0.0
C1850 C 0.68064 0.80449 0.30678 0.0
C1851 C 0.70372 0.80857 0.31018 0.0
C1852 C 0.70894 0.80895 0.33353 0.0
C1853 C 0.71712 0.7924 0.29857 0.0
C1854 C 0.70584 0.83016 0.3006 0.0
C1855 C 0.68675 0.83745 0.29374 0.0
C1856 C 0.68486 0.85603 0.28261 0.0
C1857 C 0.70298 0.86725 0.27791 0.0
C1858 C 0.72277 0.85991 0.28433 0.0
C1859 C 0.72413 0.84139 0.29629 0.0
H1860 H 0.92006 0.98445 0.05311 0.0
H1861 H 0.87643 0.95414 0.01127 0.0
H1862 H 0.89605 0.92131 0.01441 0.0
H1863 H 0.96417 0.96254 0.03253 0.0
H1864 H 0.97815 0.95902 0.05664 0.0
H1865 H 0.95877 0.97918 0.05451 0.0
H1866 H 0.9392 0.96398 0.08637 0.0
H1867 H 0.95866 0.9438 0.08871 0.0
H1868 H 0.93153 0.9369 0.08637 0.0
H1869 H 0.92285 0.89414 0.01682 0.0
H1870 H 0.95499 0.87325 0.01981 0.0
H1871 H 0.98157 0.91978 0.06099 0.0
C1872 C 0.91428 0.97068 0.04524 0.0
C1873 C 0.89666 0.97177 0.03206 0.0
C1874 C 0.88986 0.95362 0.02148 0.0
C1875 C 0.90086 0.93486 0.02323 0.0
C1876 C 0.91858 0.93443 0.03572 0.0
C1877 C 0.9252 0.95174 0.04675 0.0
C1878 C 0.94597 0.94753 0.05729 0.0
C1879 C 0.96275 0.96298 0.04978 0.0
C1880 C 0.9437 0.94808 0.0811 0.0
C1881 C 0.95036 0.92554 0.04967 0.0
C1882 C 0.93417 0.91827 0.03744 0.0
C1883 C 0.93539 0.89938 0.0268 0.0
C1884 C 0.95372 0.88769 0.0285 0.0
C1885 C 0.9705 0.89481 0.04086 0.0
C1886 C 0.96866 0.91377 0.05192 0.0
H1887 H 0.23967 0.66481 0.70315 0.0
H1888 H 0.2053 0.61846 0.73851 0.0
H1889 H 0.1728 0.63806 0.73246 0.0
H1890 H 0.21455 0.70762 0.72354 0.0
H1891 H 0.214 0.72299 0.70001 0.0
H1892 H 0.23402 0.70369 0.7037 0.0
H1893 H 0.2236 0.68583 0.66906 0.0
H1894 H 0.20361 0.70523 0.66514 0.0
H1895 H 0.19695 0.67789 0.66502 0.0
H1896 H 0.14545 0.66459 0.72736 0.0
H1897 H 0.12426 0.69627 0.72263 0.0
H1898 H 0.17553 0.72612 0.69016 0.0
C1899 C 0.22516 0.65844 0.70897 0.0
C1900 C 0.22494 0.63999 0.72111 0.0
C1901 C 0.20579 0.63248 0.72907 0.0
C1902 C 0.18724 0.64348 0.72567 0.0
C1903 C 0.18807 0.66197 0.71425 0.0
C1904 C 0.20646 0.66937 0.70585 0.0
C1905 C 0.20332 0.69073 0.69602 0.0
C1906 C 0.2173 0.70722 0.70644 0.0
C1907 C 0.20709 0.68986 0.6724 0.0
C1908 C 0.18047 0.69447 0.70087 0.0
C1909 C 0.172 0.67752 0.7112 0.0
C1910 C 0.15176 0.67779 0.71893 0.0
C1911 C 0.13989 0.69591 0.71626 0.0
C1912 C 0.1482 0.71356 0.70589 0.0
C1913 C 0.16865 0.71268 0.69775 0.0
H1914 H 0.04706 0.39981 0.47465 0.0
H1915 H 0.01219 0.4251 0.42244 0.0
H1916 H 0.03665 0.45492 0.42069 0.0
H1917 H 0.05617 0.44713 0.49964 0.0
H1918 H 0.08198 0.44047 0.50853 0.0
H1919 H 0.06309 0.42022 0.50415 0.0
H1920 H 0.0885 0.40177 0.47876 0.0
H1921 H 0.10753 0.42201 0.48307 0.0
H1922 H 0.09904 0.41607 0.45698 0.0
H1923 H 0.0632 0.48357 0.42689 0.0
H1924 H 0.08931 0.50847 0.44047 0.0
H1925 H 0.10665 0.46383 0.48832 0.0
C1926 C 0.04469 0.41141 0.4626 0.0
C1927 C 0.0277 0.41007 0.44864 0.0
C1928 C 0.02513 0.42573 0.43326 0.0
C1929 C 0.03897 0.44271 0.43213 0.0
C1930 C 0.05536 0.44368 0.44638 0.0
C1931 C 0.05831 0.42835 0.46125 0.0
C1932 C 0.0763 0.43355 0.47557 0.0
C1933 C 0.06894 0.43546 0.49831 0.0
C1934 C 0.09388 0.41739 0.47346 0.0
C1935 C 0.08275 0.45449 0.46679 0.0
C1936 C 0.07064 0.46001 0.44985 0.0
C1937 C 0.07296 0.47926 0.43996 0.0
C1938 C 0.08782 0.49331 0.44779 0.0
C1939 C 0.10012 0.48805 0.46537 0.0
C1940 C 0.09772 0.46822 0.47469 0.0
H1941 H 0.48024 0.56649 0.9313 0.0
H1942 H 0.44027 0.61906 0.94587 0.0
H1943 H 0.40952 0.59611 0.94463 0.0
H1944 H 0.44172 0.53714 0.89757 0.0
H1945 H 0.44969 0.51226 0.90802 0.0
H1946 H 0.46827 0.53328 0.90593 0.0
H1947 H 0.47648 0.52997 0.9453 0.0
H1948 H 0.45799 0.509 0.94749 0.0
H1949 H 0.4555 0.53169 0.96389 0.0
H1950 H 0.38422 0.56767 0.94736 0.0
H1951 H 0.36568 0.53481 0.95478 0.0
H1952 H 0.42097 0.49957 0.93851 0.0
C1953 C 0.4649 0.57318 0.93351 0.0
C1954 C 0.46252 0.59455 0.93845 0.0
C1955 C 0.44236 0.60273 0.94199 0.0
C1956 C 0.42479 0.58985 0.94118 0.0
C1957 C 0.42761 0.56875 0.93687 0.0
C1958 C 0.44711 0.56038 0.93307 0.0
C1959 C 0.44594 0.53674 0.93145 0.0
C1960 C 0.45175 0.52943 0.90943 0.0
C1961 C 0.45979 0.52624 0.94802 0.0
C1962 C 0.42295 0.53317 0.93583 0.0
C1963 C 0.41267 0.55195 0.93851 0.0
C1964 C 0.39193 0.55287 0.94481 0.0
C1965 C 0.38153 0.53415 0.94903 0.0
C1966 C 0.39181 0.51476 0.94683 0.0
C1967 C 0.4126 0.51422 0.93961 0.0
H1968 H 0.70066 0.75873 0.83448 0.0
H1969 H 0.73719 0.79204 0.88058 0.0
H1970 H 0.73197 0.82483 0.8612 0.0
H1971 H 0.72173 0.78312 0.79196 0.0
H1972 H 0.69827 0.78449 0.77657 0.0
H1973 H 0.70114 0.76436 0.79589 0.0
H1974 H 0.66684 0.77613 0.81358 0.0
H1975 H 0.66375 0.79625 0.79415 0.0
H1976 H 0.66378 0.80298 0.8214 0.0
H1977 H 0.72806 0.85229 0.83464 0.0
H1978 H 0.72471 0.87334 0.80266 0.0
H1979 H 0.6903 0.82309 0.77322 0.0
C1980 C 0.70686 0.77309 0.84084 0.0
C1981 C 0.71915 0.77294 0.85912 0.0
C1982 C 0.72764 0.79187 0.86666 0.0
C1983 C 0.7247 0.81058 0.8558 0.0
C1984 C 0.71318 0.81014 0.83743 0.0
C1985 C 0.70421 0.79196 0.83004 0.0
C1986 C 0.69458 0.79542 0.80871 0.0
C1987 C 0.70453 0.78099 0.79233 0.0
C1988 C 0.67082 0.79252 0.80952 0.0
C1989 C 0.70031 0.81809 0.80495 0.0
C1990 C 0.7108 0.8263 0.82188 0.0
C1991 C 0.71945 0.84623 0.82147 0.0
C1992 C 0.71757 0.85802 0.8032 0.0
C1993 C 0.70707 0.84991 0.7856 0.0
C1994 C 0.69797 0.82984 0.78665 0.0
H1995 H 0.45722 0.48291 0.09457 0.0
H1996 H 0.49787 0.42911 0.08907 0.0
H1997 H 0.47371 0.41369 0.0631 0.0
H1998 H 0.40735 0.45628 0.08741 0.0
H1999 H 0.39679 0.47743 0.07217 0.0
H2000 H 0.41594 0.48267 0.09202 0.0
H2001 H 0.43931 0.50113 0.06467 0.0
H2002 H 0.42029 0.49591 0.04477 0.0
H2003 H 0.4468 0.48726 0.04144 0.0
H2004 H 0.44544 0.40529 0.03607 0.0
H2005 H 0.41758 0.40596 0.00926 0.0
H2006 H 0.39736 0.46637 0.03208 0.0
C2007 C 0.46085 0.46764 0.0883 0.0
C2008 C 0.47925 0.45704 0.09404 0.0
C2009 C 0.48373 0.4374 0.08499 0.0
C2010 C 0.47009 0.42852 0.07029 0.0
C2011 C 0.45218 0.4396 0.06474 0.0
C2012 C 0.44767 0.45881 0.07345 0.0
C2013 C 0.42862 0.4686 0.06365 0.0
C2014 C 0.41114 0.4714 0.07978 0.0
C2015 C 0.4341 0.48945 0.053 0.0
C2016 C 0.42313 0.45202 0.04788 0.0
C2017 C 0.43663 0.43524 0.04885 0.0
C2018 C 0.43474 0.41833 0.03528 0.0
C2019 C 0.41886 0.4188 0.02014 0.0
C2020 C 0.40537 0.43624 0.01856 0.0
C2021 C 0.40745 0.45283 0.03285 0.0
H2022 H 0.79314 0.24001 0.3325 0.0
H2023 H 0.75565 0.20654 0.37775 0.0
H2024 H 0.75898 0.17441 0.35699 0.0
H2025 H 0.77054 0.21806 0.28908 0.0
H2026 H 0.79385 0.21626 0.27353 0.0
H2027 H 0.79189 0.23582 0.2935 0.0
H2028 H 0.82577 0.22207 0.31064 0.0
H2029 H 0.82796 0.20254 0.29056 0.0
H2030 H 0.82778 0.19486 0.31757 0.0
H2031 H 0.76162 0.14777 0.32951 0.0
H2032 H 0.76462 0.12736 0.29718 0.0
H2033 H 0.80082 0.17719 0.26907 0.0
C2034 C 0.78629 0.22571 0.33836 0.0
C2035 C 0.77431 0.22567 0.35683 0.0
C2036 C 0.76498 0.20687 0.3637 0.0
C2037 C 0.76683 0.18852 0.35204 0.0
C2038 C 0.7781 0.1892 0.33354 0.0
C2039 C 0.78786 0.20721 0.32676 0.0
C2040 C 0.79725 0.2041 0.30527 0.0
C2041 C 0.78781 0.21947 0.28942 0.0
C2042 C 0.82111 0.206 0.30606 0.0
C2043 C 0.79059 0.18181 0.30079 0.0
C2044 C 0.77974 0.17351 0.31745 0.0
C2045 C 0.77045 0.1539 0.31652 0.0
C2046 C 0.77213 0.14249 0.29804 0.0
C2047 C 0.78309 0.15063 0.2807 0.0
C2048 C 0.79273 0.17042 0.28224 0.0
H2049 H 0.00428 0.55239 0.58776 0.0
H2050 H 0.0431 0.53391 0.63992 0.0
H2051 H 0.07446 0.54398 0.6202 0.0
H2052 H 0.03494 0.53113 0.55009 0.0
H2053 H 0.0313 0.55113 0.53065 0.0
H2054 H 0.01163 0.54687 0.5501 0.0
H2055 H 0.01392 0.58567 0.56118 0.0
H2056 H 0.03357 0.59011 0.5416 0.0
H2057 H 0.03878 0.59659 0.56841 0.0
H2058 H 0.10133 0.54942 0.59338 0.0
H2059 H 0.12222 0.55096 0.56115 0.0
H2060 H 0.0669 0.56685 0.52583 0.0
C2061 C 0.01934 0.55129 0.59529 0.0
C2062 C 0.02127 0.54261 0.61546 0.0
C2063 C 0.04127 0.54066 0.62455 0.0
C2064 C 0.05918 0.54641 0.61349 0.0
C2065 C 0.05686 0.55416 0.59334 0.0
C2066 C 0.03746 0.55682 0.58433 0.0
C2067 C 0.0395 0.56307 0.56159 0.0
C2068 C 0.02871 0.54709 0.54728 0.0
C2069 C 0.03094 0.58518 0.55799 0.0
C2070 C 0.06301 0.56252 0.55901 0.0
C2071 C 0.07269 0.55763 0.57765 0.0
C2072 C 0.09404 0.55385 0.57883 0.0
C2073 C 0.10576 0.5547 0.56047 0.0
C2074 C 0.0962 0.55947 0.54121 0.0
C2075 C 0.07464 0.56391 0.54054 0.0
H2076 H 0.72971 0.22506 0.64485 0.0
H2077 H 0.67943 0.26665 0.66265 0.0
H2078 H 0.66538 0.23923 0.68602 0.0
H2079 H 0.7 0.17586 0.64697 0.0
H2080 H 0.7219 0.16171 0.65747 0.0
H2081 H 0.72618 0.1836 0.64034 0.0
H2082 H 0.74953 0.20103 0.66834 0.0
H2083 H 0.74529 0.17927 0.68553 0.0
H2084 H 0.7392 0.20536 0.69409 0.0
H2085 H 0.65894 0.20804 0.70995 0.0
H2086 H 0.66126 0.17681 0.73259 0.0
H2087 H 0.7162 0.15659 0.69878 0.0
C2088 C 0.71549 0.22833 0.6533 0.0
C2089 C 0.7056 0.24797 0.65184 0.0
C2090 C 0.68719 0.25166 0.66344 0.0
C2091 C 0.67909 0.23617 0.67671 0.0
C2092 C 0.68954 0.21709 0.67809 0.0
C2093 C 0.70731 0.21316 0.66659 0.0
C2094 C 0.71668 0.19218 0.67195 0.0
C2095 C 0.71615 0.17747 0.65306 0.0
C2096 C 0.73899 0.19462 0.68049 0.0
C2097 C 0.70176 0.18507 0.68869 0.0
C2098 C 0.68602 0.19944 0.69188 0.0
C2099 C 0.67106 0.19659 0.70739 0.0
C2100 C 0.67249 0.17879 0.72016 0.0
C2101 C 0.68889 0.16421 0.71746 0.0
C2102 C 0.7034 0.16733 0.70122 0.0
H2103 H 0.09536 0.465 0.95755 0.0
H2104 H 0.07883 0.40375 0.98124 0.0
H2105 H 0.05061 0.40138 0.95495 0.0
H2106 H 0.04489 0.48311 0.94885 0.0
H2107 H 0.05114 0.49716 0.92533 0.0
H2108 H 0.07086 0.49306 0.94483 0.0
H2109 H 0.09468 0.47558 0.91731 0.0
H2110 H 0.07501 0.47965 0.89768 0.0
H2111 H 0.08499 0.45377 0.90246 0.0
H2112 H 0.02166 0.40781 0.92828 0.0
H2113 H 0.9961 0.42156 0.90277 0.0
H2114 H 0.03329 0.47769 0.8959 0.0
C2115 C 0.086 0.45094 0.95709 0.0
C2116 C 0.08926 0.43457 0.9715 0.0
C2117 C 0.07667 0.41644 0.9703 0.0
C2118 C 0.0606 0.41498 0.95543 0.0
C2119 C 0.05759 0.43163 0.94169 0.0
C2120 C 0.07016 0.44914 0.94226 0.0
C2121 C 0.06344 0.46523 0.92636 0.0
C2122 C 0.05721 0.48584 0.93698 0.0
C2123 C 0.08055 0.46875 0.90998 0.0
C2124 C 0.04475 0.45433 0.91703 0.0
C2125 C 0.04156 0.43496 0.92601 0.0
C2126 C 0.02426 0.42278 0.92089 0.0
C2127 C 0.00981 0.43071 0.90641 0.0
C2128 C 0.01285 0.45056 0.89712 0.0
C2129 C 0.03075 0.46227 0.90234 0.0
H2130 H 0.77485 0.84185 0.20513 0.0
H2131 H 0.833 0.82492 0.23533 0.0
H2132 H 0.83642 0.7947 0.21162 0.0
H2133 H 0.75562 0.79128 0.19926 0.0
H2134 H 0.74375 0.79595 0.17424 0.0
H2135 H 0.747 0.81715 0.19228 0.0
H2136 H 0.76746 0.83805 0.16438 0.0
H2137 H 0.76424 0.81688 0.14621 0.0
H2138 H 0.78997 0.82645 0.15222 0.0
H2139 H 0.83162 0.76437 0.18645 0.0
H2140 H 0.81923 0.73727 0.16187 0.0
H2141 H 0.76481 0.7751 0.14816 0.0
C2142 C 0.78848 0.832 0.20662 0.0
C2143 C 0.80366 0.83579 0.2221 0.0
C2144 C 0.82119 0.82239 0.22354 0.0
C2145 C 0.82329 0.80519 0.21013 0.0
C2146 C 0.80783 0.80173 0.19525 0.0
C2147 C 0.79086 0.81489 0.19336 0.0
C2148 C 0.77587 0.80733 0.17683 0.0
C2149 C 0.7543 0.80264 0.18622 0.0
C2150 C 0.77431 0.82312 0.15884 0.0
C2151 C 0.78677 0.78757 0.17004 0.0
C2152 C 0.80525 0.78459 0.1807 0.0
C2153 C 0.81732 0.7667 0.17781 0.0
C2154 C 0.81017 0.75139 0.16383 0.0
C2155 C 0.79114 0.75412 0.15298 0.0
C2156 C 0.77956 0.77263 0.15598 0.0
H2157 H 0.40204 0.53042 0.4536 0.0
H2158 H 0.42588 0.58258 0.48954 0.0
H2159 H 0.45571 0.58553 0.46524 0.0
H2160 H 0.44985 0.50663 0.44418 0.0
H2161 H 0.44333 0.49812 0.41824 0.0
H2162 H 0.42308 0.50166 0.43724 0.0
H2163 H 0.40401 0.52723 0.41233 0.0
H2164 H 0.42426 0.52377 0.39322 0.0
H2165 H 0.41774 0.5496 0.40222 0.0
H2166 H 0.48458 0.58053 0.43831 0.0
H2167 H 0.50959 0.56789 0.41179 0.0
H2168 H 0.46585 0.5194 0.39402 0.0
C2169 C 0.41334 0.54268 0.45629 0.0
C2170 C 0.4116 0.55628 0.47349 0.0
C2171 C 0.42685 0.57202 0.47642 0.0
C2172 C 0.44382 0.57383 0.46268 0.0
C2173 C 0.44517 0.55991 0.44603 0.0
C2174 C 0.43023 0.54472 0.44278 0.0
C2175 C 0.43568 0.53088 0.42455 0.0
C2176 C 0.43814 0.50798 0.43148 0.0
C2177 C 0.41946 0.53301 0.40704 0.0
C2178 C 0.45632 0.54029 0.41828 0.0
C2179 C 0.46153 0.55714 0.43066 0.0
C2180 C 0.48051 0.56753 0.42837 0.0
C2181 C 0.49461 0.56025 0.41326 0.0
C2182 C 0.48964 0.54272 0.40077 0.0
C2183 C 0.47007 0.53296 0.40316 0.0
H2184 H 0.79698 0.71385 0.8485 0.0
H2185 H 0.76343 0.65898 0.82746 0.0
H2186 H 0.78809 0.65546 0.79795 0.0
H2187 H 0.80566 0.73563 0.80013 0.0
H2188 H 0.8313 0.74549 0.80602 0.0
H2189 H 0.81262 0.74199 0.82658 0.0
H2190 H 0.83865 0.71826 0.84646 0.0
H2191 H 0.85749 0.72173 0.82594 0.0
H2192 H 0.84962 0.69582 0.83357 0.0
H2193 H 0.81405 0.66093 0.7683 0.0
H2194 H 0.83932 0.67403 0.74225 0.0
H2195 H 0.85601 0.72457 0.78397 0.0
C2196 C 0.79498 0.70085 0.83792 0.0
C2197 C 0.77826 0.6867 0.84026 0.0
C2198 C 0.77621 0.66993 0.82604 0.0
C2199 C 0.79013 0.66783 0.80923 0.0
C2200 C 0.80617 0.68243 0.80713 0.0
C2201 C 0.80876 0.69845 0.82129 0.0
C2202 C 0.82639 0.71283 0.81509 0.0
C2203 C 0.81851 0.7353 0.81175 0.0
C2204 C 0.84409 0.7121 0.83122 0.0
C2205 C 0.83294 0.70287 0.7948 0.0
C2206 C 0.82125 0.68526 0.79047 0.0
C2207 C 0.82354 0.67446 0.77175 0.0
C2208 C 0.83791 0.68203 0.75703 0.0
C2209 C 0.8498 0.70021 0.76115 0.0
C2210 C 0.84746 0.71043 0.78047 0.0
H2211 H 0.55804 0.52932 0.06766 0.0
H2212 H 0.5255 0.55808 0.11929 0.0
H2213 H 0.5205 0.59014 0.09856 0.0
H2214 H 0.58238 0.57848 0.0459 0.0
H2215 H 0.57803 0.57024 0.01942 0.0
H2216 H 0.58274 0.55108 0.03948 0.0
H2217 H 0.54827 0.53242 0.02978 0.0
H2218 H 0.54341 0.55152 0.00982 0.0
H2219 H 0.52425 0.54703 0.02985 0.0
H2220 H 0.51457 0.61674 0.07133 0.0
H2221 H 0.5076 0.63626 0.03896 0.0
H2222 H 0.54326 0.59063 0.00401 0.0
C2223 C 0.55061 0.54271 0.07476 0.0
C2224 C 0.5425 0.5415 0.09517 0.0
C2225 C 0.53203 0.55891 0.10376 0.0
C2226 C 0.52918 0.57717 0.09212 0.0
C2227 C 0.53676 0.57776 0.07182 0.0
C2228 C 0.54731 0.56105 0.06315 0.0
C2229 C 0.55154 0.56488 0.04019 0.0
C2230 C 0.57507 0.56625 0.036 0.0
C2231 C 0.54124 0.54796 0.02662 0.0
C2232 C 0.54109 0.58595 0.03722 0.0
C2233 C 0.53298 0.59321 0.05577 0.0
C2234 C 0.52118 0.61145 0.05677 0.0
C2235 C 0.51725 0.6224 0.03828 0.0
C2236 C 0.52504 0.61509 0.019 0.0
C2237 C 0.53748 0.59685 0.01858 0.0
H2238 H 0.64266 0.27592 0.2815 0.0
H2239 H 0.65983 0.32689 0.2404 0.0
H2240 H 0.68476 0.33975 0.26696 0.0
H2241 H 0.64792 0.30446 0.33118 0.0
H2242 H 0.65842 0.28184 0.34422 0.0
H2243 H 0.64011 0.27865 0.32317 0.0
H2244 H 0.66651 0.25492 0.30386 0.0
H2245 H 0.68489 0.2581 0.32474 0.0
H2246 H 0.69232 0.26464 0.29846 0.0
H2247 H 0.71051 0.34471 0.29713 0.0
H2248 H 0.73459 0.34077 0.32712 0.0
H2249 H 0.70005 0.28615 0.34729 0.0
C2250 C 0.65129 0.29007 0.27819 0.0
C2251 C 0.64922 0.30046 0.25891 0.0
C2252 C 0.66106 0.31875 0.25514 0.0
C2253 C 0.67524 0.32617 0.27015 0.0
C2254 C 0.67725 0.31519 0.28884 0.0
C2255 C 0.66545 0.29758 0.29287 0.0
C2256 C 0.67155 0.28748 0.31325 0.0
C2257 C 0.65342 0.28816 0.32888 0.0
C2258 C 0.67928 0.26497 0.30986 0.0
C2259 C 0.68908 0.30175 0.31985 0.0
C2260 C 0.69203 0.31785 0.30582 0.0
C2261 C 0.70814 0.3323 0.30832 0.0
C2262 C 0.72173 0.32997 0.3254 0.0
C2263 C 0.71923 0.31315 0.33954 0.0
C2264 C 0.70241 0.2992 0.33681 0.0
H2265 H 0.93953 0.47235 0.57321 0.0
H2266 H 0.97366 0.44565 0.62515 0.0
H2267 H 0.97837 0.413 0.60553 0.0
H2268 H 0.91456 0.42288 0.55485 0.0
H2269 H 0.91787 0.42963 0.5278 0.0
H2270 H 0.91425 0.44989 0.54693 0.0
H2271 H 0.94855 0.46754 0.53497 0.0
H2272 H 0.95222 0.44741 0.51581 0.0
H2273 H 0.97234 0.45256 0.53473 0.0
H2274 H 0.98288 0.38499 0.57959 0.0
H2275 H 0.98838 0.36381 0.54805 0.0
H2276 H 0.9519 0.40807 0.51208 0.0
C2277 C 0.94751 0.4594 0.58058 0.0
C2278 C 0.95609 0.46144 0.60076 0.0
C2279 C 0.96695 0.44441 0.60971 0.0
C2280 C 0.96959 0.42574 0.59875 0.0
C2281 C 0.96135 0.4243 0.57876 0.0
C2282 C 0.95057 0.44064 0.56966 0.0
C2283 C 0.94529 0.4357 0.54714 0.0
C2284 C 0.92158 0.43445 0.544 0.0
C2285 C 0.9552 0.45175 0.53229 0.0
C2286 C 0.95534 0.41435 0.5449 0.0
C2287 C 0.96419 0.40797 0.56347 0.0
C2288 C 0.97573 0.38962 0.56503 0.0
C2289 C 0.97879 0.37769 0.54702 0.0
C2290 C 0.9704 0.38417 0.52768 0.0
C2291 C 0.95808 0.40248 0.52676 0.0
H2292 H 0.85957 0.27496 0.70888 0.0
H2293 H 0.84996 0.32552 0.75268 0.0
H2294 H 0.82487 0.34186 0.72823 0.0
H2295 H 0.85305 0.30524 0.66012 0.0
H2296 H 0.83921 0.28417 0.64769 0.0
H2297 H 0.85882 0.27857 0.66701 0.0
H2298 H 0.83187 0.25712 0.68817 0.0
H2299 H 0.81221 0.2627 0.66901 0.0
H2300 H 0.80775 0.26925 0.69593 0.0
H2301 H 0.79847 0.35102 0.69979 0.0
H2302 H 0.77178 0.35055 0.67181 0.0
H2303 H 0.79776 0.29268 0.6484 0.0
C2304 C 0.85268 0.2898 0.7131 0.0
C2305 C 0.85696 0.29915 0.73253 0.0
C2306 C 0.84706 0.31821 0.73775 0.0
C2307 C 0.83284 0.32762 0.72394 0.0
C2308 C 0.8286 0.31769 0.70505 0.0
C2309 C 0.83824 0.29914 0.69971 0.0
C2310 C 0.82941 0.29026 0.67976 0.0
C2311 C 0.84612 0.28952 0.66263 0.0
C2312 C 0.81974 0.26856 0.68345 0.0
C2313 C 0.81293 0.3064 0.6749 0.0
C2314 C 0.81293 0.32238 0.68935 0.0
C2315 C 0.79848 0.33866 0.68831 0.0
C2316 C 0.78342 0.33831 0.67235 0.0
C2317 C 0.78271 0.32157 0.65799 0.0
C2318 C 0.79792 0.30569 0.65916 0.0
H2319 H 0.9318 0.51174 0.93274 0.0
H2320 H 0.95311 0.5463 0.87874 0.0
H2321 H 0.95577 0.57823 0.89993 0.0
H2322 H 0.90362 0.55671 0.95945 0.0
H2323 H 0.91245 0.54836 0.98478 0.0
H2324 H 0.90761 0.52934 0.96466 0.0
H2325 H 0.94515 0.51515 0.9691 0.0
H2326 H 0.95013 0.53414 0.98908 0.0
H2327 H 0.96689 0.53281 0.9666 0.0
H2328 H 0.96228 0.60411 0.9271 0.0
H2329 H 0.97226 0.62284 0.95908 0.0
H2330 H 0.94695 0.57254 0.99654 0.0
C2331 C 0.93618 0.52628 0.92532 0.0
C2332 C 0.94192 0.52677 0.90409 0.0
C2333 C 0.94845 0.54576 0.89495 0.0
C2334 C 0.94991 0.56397 0.90684 0.0
C2335 C 0.94487 0.56293 0.9279 0.0
C2336 C 0.93803 0.54464 0.93713 0.0
C2337 C 0.93642 0.54718 0.96059 0.0
C2338 C 0.91367 0.54529 0.96779 0.0
C2339 C 0.95049 0.53139 0.972 0.0
C2340 C 0.94437 0.56936 0.96312 0.0
C2341 C 0.94877 0.57821 0.94397 0.0
C2342 C 0.9584 0.59761 0.94217 0.0
C2343 C 0.96409 0.60809 0.9604 0.0
C2344 C 0.96006 0.59924 0.98016 0.0
C2345 C 0.9496 0.57988 0.98157 0.0
H2346 H 0.6436 0.72326 0.21266 0.0
H2347 H 0.65588 0.6732 0.25652 0.0
H2348 H 0.68031 0.65718 0.23126 0.0
H2349 H 0.64816 0.69246 0.16427 0.0
H2350 H 0.66091 0.71361 0.15081 0.0
H2351 H 0.64223 0.71912 0.17102 0.0
H2352 H 0.6698 0.74139 0.19047 0.0
H2353 H 0.68851 0.73596 0.17039 0.0
H2354 H 0.69456 0.72986 0.19713 0.0
H2355 H 0.70587 0.64849 0.2019 0.0
H2356 H 0.73135 0.64944 0.17287 0.0
H2357 H 0.70255 0.70613 0.14971 0.0
C2358 C 0.651 0.70864 0.21682 0.0
C2359 C 0.64768 0.69936 0.23648 0.0
C2360 C 0.65809 0.6805 0.24147 0.0
C2361 C 0.67193 0.67126 0.22719 0.0
C2362 C 0.67515 0.68111 0.20804 0.0
C2363 C 0.66494 0.69942 0.20292 0.0
C2364 C 0.6725 0.70819 0.18243 0.0
C2365 C 0.6549 0.70835 0.16617 0.0
C2366 C 0.6819 0.73014 0.18529 0.0
C2367 C 0.68901 0.69232 0.177 0.0
C2368 C 0.69011 0.67654 0.19167 0.0
C2369 C 0.70497 0.66067 0.19024 0.0
C2370 C 0.71933 0.66127 0.17368 0.0
C2371 C 0.71891 0.67786 0.15908 0.0
C2372 C 0.70324 0.69323 0.16062 0.0
H2373 H 0.53358 0.45238 0.39378 0.0
H2374 H 0.5939 0.47651 0.41239 0.0
H2375 H 0.59586 0.44963 0.44017 0.0
H2376 H 0.51411 0.44416 0.44268 0.0
H2377 H 0.5002 0.42049 0.43656 0.0
H2378 H 0.50512 0.43943 0.41649 0.0
H2379 H 0.52341 0.41118 0.39413 0.0
H2380 H 0.51842 0.39206 0.41413 0.0
H2381 H 0.54466 0.39638 0.40509 0.0
H2382 H 0.58829 0.42352 0.46926 0.0
H2383 H 0.573 0.39959 0.49543 0.0
H2384 H 0.51832 0.3921 0.45641 0.0
C2385 C 0.54746 0.45173 0.40337 0.0
C2386 C 0.5636 0.46652 0.40094 0.0
C2387 C 0.58144 0.4652 0.41386 0.0
C2388 C 0.58264 0.45001 0.42969 0.0
C2389 C 0.56606 0.43608 0.43209 0.0
C2390 C 0.54897 0.43663 0.41899 0.0
C2391 C 0.53254 0.42099 0.4255 0.0
C2392 C 0.51178 0.43193 0.43062 0.0
C2393 C 0.5296 0.40415 0.40871 0.0
C2394 C 0.54262 0.41205 0.44482 0.0
C2395 C 0.56201 0.42079 0.44836 0.0
C2396 C 0.57335 0.41625 0.46636 0.0
C2397 C 0.56453 0.40267 0.48116 0.0
C2398 C 0.54458 0.39376 0.47785 0.0
C2399 C 0.53379 0.39827 0.45922 0.0
H2400 H 0.75647 0.83259 0.69738 0.0
H2401 H 0.7989 0.88144 0.71717 0.0
H2402 H 0.8288 0.85916 0.70795 0.0
H2403 H 0.78382 0.79195 0.719 0.0
H2404 H 0.77897 0.77316 0.69869 0.0
H2405 H 0.76082 0.79409 0.70299 0.0
H2406 H 0.76453 0.80565 0.6645 0.0
H2407 H 0.78266 0.78461 0.66003 0.0
H2408 H 0.79004 0.81111 0.65408 0.0
H2409 H 0.85362 0.83035 0.70233 0.0
H2410 H 0.87211 0.79668 0.69989 0.0
H2411 H 0.81445 0.76585 0.68295 0.0
C2412 C 0.77206 0.83884 0.69905 0.0
C2413 C 0.77538 0.85885 0.70778 0.0
C2414 C 0.796 0.86623 0.71039 0.0
C2415 C 0.81309 0.85371 0.70513 0.0
C2416 C 0.80935 0.83382 0.69721 0.0
C2417 C 0.78937 0.82642 0.694 0.0
C2418 C 0.78973 0.80363 0.68741 0.0
C2419 C 0.77762 0.78991 0.70295 0.0
C2420 C 0.78124 0.80111 0.66518 0.0
C2421 C 0.81295 0.79919 0.68826 0.0
C2422 C 0.82394 0.81696 0.69369 0.0
C2423 C 0.84529 0.81646 0.69755 0.0
C2424 C 0.85565 0.79729 0.69618 0.0
C2425 C 0.84475 0.77887 0.69084 0.0
C2426 C 0.82321 0.77988 0.6864 0.0
H2427 H 0.285 0.65063 0.27298 0.0
H2428 H 0.24875 0.65715 0.32959 0.0
H2429 H 0.27385 0.68367 0.34238 0.0
H2430 H 0.33682 0.65876 0.29576 0.0
H2431 H 0.34565 0.67337 0.27344 0.0
H2432 H 0.32636 0.65317 0.2703 0.0
H2433 H 0.30149 0.6798 0.25271 0.0
H2434 H 0.32061 0.70007 0.25589 0.0
H2435 H 0.29475 0.70347 0.26628 0.0
H2436 H 0.30228 0.71145 0.34764 0.0
H2437 H 0.32984 0.7384 0.34413 0.0
H2438 H 0.34556 0.71389 0.28318 0.0
C2439 C 0.28253 0.65723 0.2883 0.0
C2440 C 0.26503 0.65164 0.30039 0.0
C2441 C 0.26216 0.66107 0.32014 0.0
C2442 C 0.27635 0.67612 0.32752 0.0
C2443 C 0.29323 0.68158 0.31492 0.0
C2444 C 0.2963 0.67235 0.29571 0.0
C2445 C 0.31448 0.682 0.28426 0.0
C2446 C 0.33186 0.66586 0.28074 0.0
C2447 C 0.3074 0.69192 0.26357 0.0
C2448 C 0.32103 0.6984 0.29982 0.0
C2449 C 0.30888 0.6978 0.31758 0.0
C2450 C 0.31193 0.71194 0.33384 0.0
C2451 C 0.32762 0.72717 0.33173 0.0
C2452 C 0.33978 0.7283 0.31335 0.0
C2453 C 0.33648 0.71352 0.2974 0.0
H2454 H 0.54689 0.09451 0.52334 0.0
H2455 H 0.51402 0.07512 0.57918 0.0
H2456 H 0.53904 0.04609 0.58375 0.0
H2457 H 0.5569 0.04422 0.50409 0.0
H2458 H 0.58229 0.05057 0.49389 0.0
H2459 H 0.56274 0.07057 0.49609 0.0
H2460 H 0.58803 0.0929 0.51835 0.0
H2461 H 0.60765 0.07287 0.51629 0.0
H2462 H 0.59939 0.08187 0.54157 0.0
H2463 H 0.56635 0.01746 0.58056 0.0
H2464 H 0.59297 0.99177 0.56957 0.0
H2465 H 0.60805 0.03078 0.51638 0.0
C2466 C 0.54502 0.08433 0.53669 0.0
C2467 C 0.52846 0.08715 0.55092 0.0
C2468 C 0.52659 0.07333 0.56808 0.0
C2469 C 0.54076 0.05682 0.57084 0.0
C2470 C 0.55682 0.05441 0.5564 0.0
C2471 C 0.55902 0.06787 0.5397 0.0
C2472 C 0.57695 0.06142 0.52582 0.0
C2473 C 0.56925 0.05639 0.50367 0.0
C2474 C 0.59402 0.07827 0.5255 0.0
C2475 C 0.58427 0.04198 0.53705 0.0
C2476 C 0.57259 0.03822 0.55474 0.0
C2477 C 0.57576 0.02042 0.5669 0.0
C2478 C 0.59094 0.00593 0.56056 0.0
C2479 C 0.60276 0.00932 0.54223 0.0
C2480 C 0.59957 0.02784 0.53066 0.0
H2481 H 0.2446 0.34046 0.79148 0.0
H2482 H 0.20746 0.38775 0.7604 0.0
H2483 H 0.17545 0.36864 0.76965 0.0
H2484 H 0.21699 0.29844 0.77335 0.0
H2485 H 0.21862 0.28272 0.7966 0.0
H2486 H 0.2384 0.30185 0.79122 0.0
H2487 H 0.23171 0.31927 0.82698 0.0
H2488 H 0.21194 0.30006 0.83256 0.0
H2489 H 0.20571 0.32747 0.83373 0.0
H2490 H 0.14844 0.34231 0.77684 0.0
H2491 H 0.12766 0.31042 0.78237 0.0
H2492 H 0.18143 0.27969 0.8095 0.0
C2493 C 0.22967 0.34713 0.78729 0.0
C2494 C 0.22847 0.36569 0.77539 0.0
C2495 C 0.20872 0.37363 0.7696 0.0
C2496 C 0.19044 0.36292 0.77486 0.0
C2497 C 0.19215 0.34431 0.78597 0.0
C2498 C 0.21121 0.3365 0.7923 0.0
C2499 C 0.20878 0.31504 0.80208 0.0
C2500 C 0.22144 0.29855 0.79009 0.0
C2501 C 0.2149 0.31549 0.82522 0.0
C2502 C 0.18552 0.31167 0.79945 0.0
C2503 C 0.17625 0.32891 0.79035 0.0
C2504 C 0.15539 0.3289 0.78441 0.0
C2505 C 0.14374 0.3107 0.78753 0.0
C2506 C 0.1529 0.29277 0.7966 0.0
C2507 C 0.17394 0.29341 0.80306 0.0
H2508 H 0.39149 0.46176 0.50823 0.0
H2509 H 0.39488 0.49645 0.56612 0.0
H2510 H 0.42103 0.47143 0.57946 0.0
H2511 H 0.40009 0.40885 0.53056 0.0
H2512 H 0.41582 0.40094 0.5087 0.0
H2513 H 0.39516 0.41967 0.5051 0.0
H2514 H 0.42156 0.44572 0.48905 0.0
H2515 H 0.4423 0.42721 0.49277 0.0
H2516 H 0.44438 0.45302 0.50373 0.0
H2517 H 0.4496 0.44474 0.58495 0.0
H2518 H 0.47793 0.41875 0.58211 0.0
H2519 H 0.4562 0.40222 0.52024 0.0
C2520 C 0.39723 0.46374 0.52397 0.0
C2521 C 0.39094 0.48093 0.53623 0.0
C2522 C 0.39931 0.48329 0.55652 0.0
C2523 C 0.41418 0.46915 0.56423 0.0
C2524 C 0.42053 0.45273 0.55147 0.0
C2525 C 0.41221 0.44991 0.5318 0.0
C2526 C 0.42294 0.43221 0.52045 0.0
C2527 C 0.40758 0.41436 0.51595 0.0
C2528 C 0.43342 0.44002 0.50032 0.0
C2529 C 0.43895 0.42583 0.53658 0.0
C2530 C 0.43717 0.43765 0.55447 0.0
C2531 C 0.45095 0.43522 0.5711 0.0
C2532 C 0.46703 0.42042 0.56933 0.0
C2533 C 0.46932 0.40836 0.55098 0.0
C2534 C 0.45486 0.41104 0.53455 0.0
H2535 H 0.64249 0.20936 0.20993 0.0
H2536 H 0.6665 0.23767 0.15349 0.0
H2537 H 0.69289 0.20945 0.15085 0.0
H2538 H 0.68956 0.19539 0.23165 0.0
H2539 H 0.68066 0.171 0.2425 0.0
H2540 H 0.6625 0.19196 0.23839 0.0
H2541 H 0.63937 0.16769 0.21584 0.0
H2542 H 0.65747 0.14656 0.21994 0.0
H2543 H 0.65062 0.15436 0.19383 0.0
H2544 H 0.7198 0.1807 0.15771 0.0
H2545 H 0.74291 0.15313 0.17194 0.0
H2546 H 0.69937 0.14297 0.22256 0.0
C2547 C 0.65305 0.20943 0.19678 0.0
C2548 C 0.65252 0.2257 0.18193 0.0
C2549 C 0.66657 0.22525 0.16495 0.0
C2550 C 0.68161 0.20931 0.16337 0.0
C2551 C 0.68203 0.19376 0.17865 0.0
C2552 C 0.66782 0.19355 0.19481 0.0
C2553 C 0.67197 0.17579 0.2098 0.0
C2554 C 0.67644 0.18404 0.23188 0.0
C2555 C 0.65377 0.16018 0.20984 0.0
C2556 C 0.69122 0.1664 0.20003 0.0
C2557 C 0.69684 0.17688 0.18204 0.0
C2558 C 0.71525 0.1721 0.1715 0.0
C2559 C 0.7283 0.15645 0.1797 0.0
C2560 C 0.72278 0.14567 0.19817 0.0
C2561 C 0.70379 0.15052 0.20813 0.0
H2562 H 0.60236 0.96282 0.97698 0.0
H2563 H 0.59137 0.00501 0.92521 0.0
H2564 H 0.56413 0.98114 0.91182 0.0
H2565 H 0.59273 0.91357 0.94883 0.0
H2566 H 0.58006 0.90192 0.97102 0.0
H2567 H 0.60034 0.92101 0.97481 0.0
H2568 H 0.57519 0.94323 0.99728 0.0
H2569 H 0.55482 0.92435 0.99344 0.0
H2570 H 0.55051 0.95128 0.98651 0.0
H2571 H 0.5358 0.95394 0.90604 0.0
H2572 H 0.50917 0.92611 0.90835 0.0
H2573 H 0.53882 0.90259 0.96446 0.0
C2574 C 0.5946 0.96687 0.96255 0.0
C2575 C 0.59911 0.98573 0.95205 0.0
C2576 C 0.58829 0.99057 0.93342 0.0
C2577 C 0.5728 0.9771 0.92571 0.0
C2578 C 0.56838 0.95887 0.93679 0.0
C2579 C 0.57909 0.95372 0.95476 0.0
C2580 C 0.57047 0.93411 0.96469 0.0
C2581 C 0.58688 0.91662 0.96483 0.0
C2582 C 0.56226 0.93852 0.98678 0.0
C2583 C 0.55289 0.92923 0.94979 0.0
C2584 C 0.55203 0.9435 0.93366 0.0
C2585 C 0.53649 0.94256 0.91849 0.0
C2586 C 0.52141 0.92671 0.91995 0.0
C2587 C 0.52187 0.91212 0.93657 0.0
C2588 C 0.53801 0.91339 0.9515 0.0
H2589 H 0.97394 0.06628 0.44075 0.0
H2590 H 0.94527 0.11817 0.4733 0.0
H2591 H 0.91304 0.09776 0.47755 0.0
H2592 H 0.92553 0.04619 0.41497 0.0
H2593 H 0.93289 0.01931 0.41894 0.0
H2594 H 0.95268 0.03897 0.41539 0.0
H2595 H 0.96987 0.02801 0.45024 0.0
H2596 H 0.95019 0.00834 0.45386 0.0
H2597 H 0.95444 0.02777 0.4737 0.0
H2598 H 0.88571 0.07113 0.48195 0.0
H2599 H 0.86526 0.03908 0.48761 0.0
H2600 H 0.91102 0.00354 0.45278 0.0
C2601 C 0.96064 0.07346 0.44826 0.0
C2602 C 0.962 0.09386 0.45654 0.0
C2603 C 0.94454 0.10258 0.46682 0.0
C2604 C 0.92611 0.09116 0.46919 0.0
C2605 C 0.92535 0.07097 0.46127 0.0
C2606 C 0.94212 0.0621 0.45104 0.0
C2607 C 0.93787 0.03931 0.44609 0.0
C2608 C 0.9372 0.03574 0.42244 0.0
C2609 C 0.95405 0.02502 0.45661 0.0
C2610 C 0.91642 0.03666 0.45572 0.0
C2611 C 0.90941 0.05526 0.46406 0.0
C2612 C 0.89084 0.05654 0.47519 0.0
C2613 C 0.87934 0.03824 0.47836 0.0
C2614 C 0.88644 0.01888 0.47046 0.0
C2615 C 0.90497 0.01821 0.45856 0.0
H2616 H 0.07959 0.14963 0.43228 0.0
H2617 H 0.06505 0.10162 0.38709 0.0
H2618 H 0.0984 0.10888 0.36881 0.0
H2619 H 0.09971 0.18555 0.39505 0.0
H2620 H 0.11932 0.19598 0.41225 0.0
H2621 H 0.0955 0.18555 0.42281 0.0
H2622 H 0.11654 0.16006 0.44612 0.0
H2623 H 0.14042 0.17064 0.43589 0.0
H2624 H 0.13549 0.14298 0.43434 0.0
H2625 H 0.13446 0.12092 0.3566 0.0
H2626 H 0.16844 0.13829 0.35003 0.0
H2627 H 0.15615 0.18144 0.40043 0.0
C2628 C 0.08368 0.14033 0.41881 0.0
C2629 C 0.07016 0.12468 0.41135 0.0
C2630 C 0.0755 0.1134 0.39319 0.0
C2631 C 0.09432 0.11748 0.38272 0.0
C2632 C 0.10722 0.1333 0.39032 0.0
C2633 C 0.10196 0.1447 0.40782 0.0
C2634 C 0.11762 0.16183 0.41204 0.0
C2635 C 0.10742 0.18351 0.41044 0.0
C2636 C 0.12814 0.15868 0.43336 0.0
C2637 C 0.13273 0.15817 0.39436 0.0
C2638 C 0.12668 0.14147 0.38214 0.0
C2639 C 0.13911 0.13426 0.36582 0.0
C2640 C 0.1583 0.14422 0.36214 0.0
C2641 C 0.16448 0.16153 0.37433 0.0
C2642 C 0.15138 0.16871 0.39041 0.0
H2643 H 0.10459 0.92422 0.66563 0.0
H2644 H 0.07443 0.91546 0.60589 0.0
H2645 H 0.08474 0.87817 0.60619 0.0
H2646 H 0.14754 0.88638 0.65925 0.0
H2647 H 0.14564 0.87731 0.68577 0.0
H2648 H 0.13877 0.90386 0.67942 0.0
H2649 H 0.10232 0.89845 0.6959 0.0
H2650 H 0.1091 0.87197 0.70235 0.0
H2651 H 0.08616 0.87723 0.687 0.0
H2652 H 0.0971 0.84172 0.61368 0.0
H2653 H 0.10602 0.80786 0.62962 0.0
H2654 H 0.12522 0.83959 0.68616 0.0
C2655 C 0.10064 0.91451 0.6524 0.0
C2656 C 0.08915 0.92268 0.63549 0.0
C2657 C 0.08347 0.90944 0.61882 0.0
C2658 C 0.08935 0.88833 0.61884 0.0
C2659 C 0.10054 0.88065 0.63585 0.0
C2660 C 0.10585 0.89326 0.65248 0.0
C2661 C 0.1156 0.88063 0.66996 0.0
C2662 C 0.13823 0.88746 0.67382 0.0
C2663 C 0.10251 0.88216 0.68998 0.0
C2664 C 0.11467 0.85889 0.66069 0.0
C2665 C 0.10642 0.85935 0.6408 0.0
C2666 C 0.10363 0.84119 0.62922 0.0
C2667 C 0.10884 0.82201 0.6384 0.0
C2668 C 0.11635 0.82105 0.65914 0.0
C2669 C 0.11963 0.83982 0.67025 0.0
H2670 H 0.40586 0.84655 0.929 0.0
H2671 H 0.41364 0.90216 0.89137 0.0
H2672 H 0.37669 0.89969 0.88008 0.0
H2673 H 0.37566 0.81938 0.89124 0.0
H2674 H 0.35947 0.80625 0.91007 0.0
H2675 H 0.38565 0.81372 0.91688 0.0
H2676 H 0.37176 0.83454 0.94856 0.0
H2677 H 0.34554 0.82697 0.94197 0.0
H2678 H 0.35205 0.85421 0.94461 0.0
H2679 H 0.3384 0.89134 0.87393 0.0
H2680 H 0.30305 0.87594 0.87057 0.0
H2681 H 0.32229 0.82334 0.90844 0.0
C2682 C 0.39959 0.85842 0.91872 0.0
C2683 C 0.41223 0.87485 0.9114 0.0
C2684 C 0.40393 0.88968 0.89734 0.0
C2685 C 0.38305 0.88837 0.89087 0.0
C2686 C 0.37098 0.87179 0.8982 0.0
C2687 C 0.37905 0.85691 0.91158 0.0
C2688 C 0.36345 0.83972 0.91585 0.0
C2689 C 0.37154 0.81852 0.90804 0.0
C2690 C 0.35787 0.83882 0.93913 0.0
C2691 C 0.34524 0.84728 0.90291 0.0
C2692 C 0.34972 0.866 0.89313 0.0
C2693 C 0.33483 0.87654 0.88127 0.0
C2694 C 0.31487 0.86773 0.87941 0.0
C2695 C 0.31026 0.84833 0.88888 0.0
C2696 C 0.32568 0.83795 0.90063 0.0
H2697 H 0.40792 0.16741 0.14458 0.0
H2698 H 0.35504 0.1576 0.1854 0.0
H2699 H 0.35479 0.12009 0.1761 0.0
H2700 H 0.39466 0.12851 0.10439 0.0
H2701 H 0.42135 0.12031 0.10131 0.0
H2702 H 0.41556 0.14679 0.10882 0.0
H2703 H 0.43894 0.14267 0.14148 0.0
H2704 H 0.44483 0.11626 0.13405 0.0
H2705 H 0.43402 0.12155 0.1594 0.0
H2706 H 0.36129 0.08358 0.16359 0.0
H2707 H 0.3763 0.05005 0.15233 0.0
H2708 H 0.4268 0.0831 0.12171 0.0
C2709 C 0.396 0.15742 0.15116 0.0
C2710 C 0.38123 0.16537 0.1654 0.0
C2711 C 0.36634 0.15177 0.17431 0.0
C2712 C 0.36603 0.13051 0.16903 0.0
C2713 C 0.38094 0.12308 0.15507 0.0
C2714 C 0.39582 0.13607 0.14645 0.0
C2715 C 0.41151 0.12378 0.13375 0.0
C2716 C 0.41071 0.13023 0.1107 0.0
C2717 C 0.43363 0.12621 0.14271 0.0
C2718 C 0.40331 0.1018 0.13681 0.0
C2719 C 0.3854 0.10182 0.14877 0.0
C2720 C 0.37525 0.08338 0.15414 0.0
C2721 C 0.38389 0.06439 0.1476 0.0
C2722 C 0.40274 0.06391 0.1361 0.0
C2723 C 0.41232 0.08294 0.13035 0.0
H2724 H 0.1766 0.85859 0.09466 0.0
H2725 H 0.1644 0.82174 0.14996 0.0
H2726 H 0.12691 0.83057 0.14746 0.0
H2727 H 0.13517 0.89904 0.10184 0.0
H2728 H 0.12911 0.89928 0.07443 0.0
H2729 H 0.1553 0.89375 0.083 0.0
H2730 H 0.15471 0.85895 0.06247 0.0
H2731 H 0.12858 0.86431 0.05392 0.0
H2732 H 0.13425 0.84031 0.06747 0.0
H2733 H 0.09068 0.84043 0.137 0.0
H2734 H 0.05816 0.84739 0.11781 0.0
H2735 H 0.09375 0.87557 0.06764 0.0
C2736 C 0.16611 0.85304 0.10666 0.0
C2737 C 0.17333 0.83992 0.1228 0.0
C2738 C 0.15911 0.83209 0.13768 0.0
C2739 C 0.13786 0.8371 0.13642 0.0
C2740 C 0.13111 0.84971 0.12001 0.0
C2741 C 0.14481 0.85744 0.10529 0.0
C2742 C 0.13332 0.86801 0.08755 0.0
C2743 C 0.13854 0.89141 0.08666 0.0
C2744 C 0.13799 0.85724 0.06663 0.0
C2745 C 0.11098 0.86449 0.09427 0.0
C2746 C 0.11008 0.8544 0.11329 0.0
C2747 C 0.09119 0.84853 0.12221 0.0
C2748 C 0.07279 0.85258 0.11116 0.0
C2749 C 0.0734 0.86205 0.09122 0.0
C2750 C 0.09276 0.86847 0.08293 0.0
H2751 H 0.39328 0.93347 0.34083 0.0
H2752 H 0.42903 0.9268 0.39772 0.0
H2753 H 0.42012 0.88923 0.39896 0.0
H2754 H 0.35252 0.89337 0.35185 0.0
H2755 H 0.35248 0.88432 0.32528 0.0
H2756 H 0.35831 0.91126 0.33094 0.0
H2757 H 0.39324 0.90789 0.31102 0.0
H2758 H 0.38758 0.88099 0.30539 0.0
H2759 H 0.41148 0.88781 0.31849 0.0
H2760 H 0.40995 0.85213 0.39245 0.0
H2761 H 0.40193 0.81771 0.37736 0.0
H2762 H 0.37499 0.84791 0.3231 0.0
C2763 C 0.39859 0.9242 0.35391 0.0
C2764 C 0.4114 0.93302 0.36948 0.0
C2765 C 0.41892 0.92031 0.38586 0.0
C2766 C 0.41389 0.89901 0.3867 0.0
C2767 C 0.40159 0.89064 0.37086 0.0
C2768 C 0.39415 0.9028 0.35467 0.0
C2769 C 0.38361 0.8895 0.33821 0.0
C2770 C 0.36034 0.89494 0.33648 0.0
C2771 C 0.39464 0.89168 0.31704 0.0
C2772 C 0.38671 0.86793 0.34742 0.0
C2773 C 0.39668 0.869 0.36648 0.0
C2774 C 0.40197 0.85111 0.37763 0.0
C2775 C 0.39734 0.8316 0.36891 0.0
C2776 C 0.38781 0.83008 0.34904 0.0
C2777 C 0.38215 0.84855 0.33837 0.0
H2778 H 0.41668 0.12398 0.59482 0.0
H2779 H 0.42149 0.15995 0.5377 0.0
H2780 H 0.38649 0.17452 0.54378 0.0
H2781 H 0.36064 0.11169 0.58797 0.0
H2782 H 0.35532 0.113 0.6155 0.0
H2783 H 0.3807 0.10505 0.6065 0.0
H2784 H 0.39755 0.13424 0.62875 0.0
H2785 H 0.37221 0.14251 0.63754 0.0
H2786 H 0.38939 0.16093 0.62505 0.0
H2787 H 0.35336 0.18845 0.55803 0.0
H2788 H 0.32008 0.19569 0.57577 0.0
H2789 H 0.3339 0.14777 0.62153 0.0
C2790 C 0.41016 0.13466 0.58346 0.0
C2791 C 0.42177 0.14089 0.56579 0.0
C2792 C 0.41279 0.15484 0.55123 0.0
C2793 C 0.39299 0.16334 0.55463 0.0
C2794 C 0.38215 0.15731 0.57242 0.0
C2795 C 0.39005 0.14282 0.58628 0.0
C2796 C 0.37467 0.1386 0.60376 0.0
C2797 C 0.3674 0.11573 0.6034 0.0
C2798 C 0.38402 0.14442 0.62503 0.0
C2799 C 0.35714 0.15335 0.59776 0.0
C2800 C 0.36206 0.16425 0.57983 0.0
C2801 C 0.34913 0.17976 0.57185 0.0
C2802 C 0.33038 0.18389 0.58215 0.0
C2803 C 0.32449 0.17225 0.59993 0.0
C2804 C 0.33804 0.15678 0.60787 0.0
H2805 H 0.13374 0.16626 0.81781 0.0
H2806 H 0.1129 0.19862 0.87338 0.0
H2807 H 0.10378 0.1649 0.88951 0.0
H2808 H 0.09492 0.12953 0.816 0.0
H2809 H 0.11089 0.10795 0.80769 0.0
H2810 H 0.11849 0.13424 0.80147 0.0
H2811 H 0.15424 0.12846 0.81933 0.0
H2812 H 0.14686 0.10199 0.82541 0.0
H2813 H 0.15516 0.11934 0.84588 0.0
H2814 H 0.09095 0.12862 0.89688 0.0
H2815 H 0.07984 0.09157 0.89681 0.0
H2816 H 0.11164 0.08221 0.83805 0.0
C2817 C 0.12785 0.1662 0.83361 0.0
C2818 C 0.12407 0.18509 0.84433 0.0
C2819 C 0.11611 0.18437 0.8649 0.0
C2820 C 0.1108 0.16527 0.8742 0.0
C2821 C 0.11397 0.14699 0.86292 0.0
C2822 C 0.1228 0.14723 0.84328 0.0
C2823 C 0.12365 0.12545 0.83411 0.0
C2824 C 0.11124 0.12423 0.81361 0.0
C2825 C 0.14633 0.11839 0.83101 0.0
C2826 C 0.11315 0.11308 0.85129 0.0
C2827 C 0.10762 0.12581 0.86776 0.0
C2828 C 0.09574 0.11837 0.88438 0.0
C2829 C 0.08941 0.09739 0.88419 0.0
C2830 C 0.09528 0.08405 0.86767 0.0
C2831 C 0.1075 0.09197 0.85117 0.0
H2832 H 0.14609 0.40699 0.17572 0.0
H2833 H 0.18392 0.35133 0.16903 0.0
H2834 H 0.17519 0.35 0.1315 0.0
H2835 H 0.10579 0.39434 0.13642 0.0
H2836 H 0.10444 0.42088 0.12716 0.0
H2837 H 0.111 0.41567 0.15397 0.0
H2838 H 0.14503 0.43705 0.14985 0.0
H2839 H 0.13859 0.44231 0.12309 0.0
H2840 H 0.16315 0.43026 0.12951 0.0
H2841 H 0.16406 0.35587 0.09455 0.0
H2842 H 0.15441 0.37022 0.06025 0.0
H2843 H 0.12591 0.42368 0.09045 0.0
C2844 C 0.15206 0.39422 0.16642 0.0
C2845 C 0.16534 0.379 0.17525 0.0
C2846 C 0.17354 0.36298 0.16253 0.0
C2847 C 0.16859 0.36206 0.14126 0.0
C2848 C 0.15568 0.37748 0.13293 0.0
C2849 C 0.14768 0.39338 0.14507 0.0
C2850 C 0.13619 0.40932 0.13188 0.0
C2851 C 0.11298 0.41009 0.13771 0.0
C2852 C 0.14635 0.43101 0.13369 0.0
C2853 C 0.13928 0.4001 0.11038 0.0
C2854 C 0.15017 0.3815 0.1114 0.0
C2855 C 0.15543 0.37035 0.09356 0.0
C2856 C 0.14983 0.37864 0.07413 0.0
C2857 C 0.13938 0.39808 0.07263 0.0
C2858 C 0.13378 0.40874 0.09107 0.0
H2859 H 0.64624 0.09881 0.82302 0.0
H2860 H 0.69449 0.14521 0.83241 0.0
H2861 H 0.68845 0.1437 0.8705 0.0
H2862 H 0.61155 0.11385 0.86606 0.0
H2863 H 0.60566 0.08714 0.87268 0.0
H2864 H 0.6117 0.09404 0.84614 0.0
H2865 H 0.64124 0.06645 0.8457 0.0
H2866 H 0.63529 0.05947 0.87218 0.0
H2867 H 0.66134 0.06746 0.86531 0.0
H2868 H 0.67795 0.13616 0.90743 0.0
H2869 H 0.66706 0.12037 0.94074 0.0
H2870 H 0.62785 0.0765 0.90732 0.0
C2871 C 0.65516 0.109 0.83311 0.0
C2872 C 0.67053 0.12246 0.8249 0.0
C2873 C 0.68249 0.135 0.8385 0.0
C2874 C 0.6791 0.13429 0.86008 0.0
C2875 C 0.66394 0.12068 0.86774 0.0
C2876 C 0.65236 0.10806 0.85468 0.0
C2877 C 0.63874 0.09313 0.86694 0.0
C2878 C 0.61553 0.0973 0.8627 0.0
C2879 C 0.64451 0.07028 0.86225 0.0
C2880 C 0.64464 0.09914 0.88896 0.0
C2881 C 0.65883 0.11539 0.88907 0.0
C2882 C 0.66681 0.12347 0.90754 0.0
C2883 C 0.66046 0.11444 0.92639 0.0
C2884 C 0.6466 0.09721 0.92661 0.0
C2885 C 0.63842 0.08968 0.90763 0.0
H2886 H 0.82088 0.87212 0.34111 0.0
H2887 H 0.86897 0.90387 0.30571 0.0
H2888 H 0.88608 0.9146 0.33838 0.0
H2889 H 0.81608 0.90847 0.38098 0.0
H2890 H 0.81277 0.88979 0.40173 0.0
H2891 H 0.80519 0.88309 0.3756 0.0
H2892 H 0.82913 0.85053 0.37678 0.0
H2893 H 0.83671 0.85706 0.40301 0.0
H2894 H 0.85631 0.85359 0.38322 0.0
H2895 H 0.89477 0.92644 0.37467 0.0
H2896 H 0.8969 0.9346 0.41237 0.0
H2897 H 0.84561 0.89226 0.4243 0.0
C2898 C 0.83523 0.88097 0.34027 0.0
C2899 C 0.84359 0.88717 0.3209 0.0
C2900 C 0.86236 0.89881 0.32039 0.0
C2901 C 0.87218 0.90505 0.33886 0.0
C2902 C 0.86331 0.89909 0.35773 0.0
C2903 C 0.84552 0.88692 0.35859 0.0
C2904 C 0.83897 0.88301 0.38091 0.0
C2905 C 0.81696 0.89161 0.38503 0.0
C2906 C 0.84037 0.85966 0.3863 0.0
C2907 C 0.8554 0.89548 0.39239 0.0
C2908 C 0.86923 0.90477 0.37874 0.0
C2909 C 0.88442 0.91879 0.38557 0.0
C2910 C 0.8855 0.92339 0.40693 0.0
C2911 C 0.87177 0.91364 0.42112 0.0
C2912 C 0.85673 0.89937 0.41376 0.0
H2913 H 0.80838 0.13116 0.15375 0.0
H2914 H 0.86217 0.11356 0.19084 0.0
H2915 H 0.88103 0.10379 0.15892 0.0
H2916 H 0.81052 0.09087 0.11893 0.0
H2917 H 0.80327 0.10561 0.09612 0.0
H2918 H 0.79493 0.11416 0.12143 0.0
H2919 H 0.81201 0.15028 0.11529 0.0
H2920 H 0.82021 0.14194 0.08977 0.0
H2921 H 0.83912 0.15172 0.10808 0.0
H2922 H 0.89135 0.08959 0.12406 0.0
H2923 H 0.89418 0.07667 0.0878 0.0
H2924 H 0.8353 0.10618 0.07275 0.0
C2925 C 0.82436 0.1259 0.1551 0.0
C2926 C 0.83378 0.12316 0.17481 0.0
C2927 C 0.85464 0.11595 0.17593 0.0
C2928 C 0.8655 0.11029 0.15786 0.0
C2929 C 0.85548 0.11236 0.13873 0.0
C2930 C 0.83557 0.1205 0.13716 0.0
C2931 C 0.82796 0.12007 0.11481 0.0
C2932 C 0.808 0.10689 0.11272 0.0
C2933 C 0.82464 0.14233 0.1065 0.0
C2934 C 0.84631 0.10962 0.10427 0.0
C2935 C 0.86202 0.10524 0.11834 0.0
C2936 C 0.87947 0.09351 0.11274 0.0
C2937 C 0.88092 0.08615 0.0922 0.0
C2938 C 0.8652 0.09087 0.0775 0.0
C2939 C 0.84785 0.10295 0.08358 0.0
H2940 H 0.37326 0.60115 0.58377 0.0
H2941 H 0.32801 0.55179 0.57416 0.0
H2942 H 0.31077 0.56102 0.60724 0.0
H2943 H 0.3781 0.59174 0.63977 0.0
H2944 H 0.3817 0.61895 0.64593 0.0
H2945 H 0.38996 0.60903 0.62104 0.0
H2946 H 0.36729 0.63698 0.60263 0.0
H2947 H 0.35866 0.64674 0.62748 0.0
H2948 H 0.33983 0.63845 0.60836 0.0
H2949 H 0.29689 0.57713 0.63953 0.0
H2950 H 0.29141 0.59385 0.67361 0.0
H2951 H 0.34795 0.63007 0.66512 0.0
C2952 C 0.35984 0.59223 0.58882 0.0
C2953 C 0.35186 0.57581 0.57652 0.0
C2954 C 0.3344 0.56431 0.58353 0.0
C2955 C 0.3244 0.56957 0.60215 0.0
C2956 C 0.33237 0.58606 0.61379 0.0
C2957 C 0.35005 0.59682 0.6078 0.0
C2958 C 0.35617 0.61283 0.6241 0.0
C2959 C 0.37776 0.60783 0.63326 0.0
C2960 C 0.35544 0.63507 0.61509 0.0
C2961 C 0.33904 0.60947 0.64003 0.0
C2962 C 0.32521 0.59432 0.63343 0.0
C2963 C 0.30771 0.58886 0.64501 0.0
C2964 C 0.30464 0.59859 0.66426 0.0
C2965 C 0.31926 0.61322 0.67196 0.0
C2966 C 0.33654 0.61892 0.65956 0.0
H2967 H 0.17084 0.62493 0.34568 0.0
H2968 H 0.12396 0.59031 0.31132 0.0
H2969 H 0.10568 0.58239 0.34413 0.0
H2970 H 0.17455 0.59148 0.38774 0.0
H2971 H 0.17751 0.61141 0.40732 0.0
H2972 H 0.18556 0.61648 0.38098 0.0
H2973 H 0.16162 0.64904 0.37971 0.0
H2974 H 0.1535 0.64407 0.40613 0.0
H2975 H 0.13432 0.64637 0.38573 0.0
H2976 H 0.09591 0.5733 0.38077 0.0
H2977 H 0.09387 0.56623 0.41865 0.0
H2978 H 0.14499 0.6091 0.4293 0.0
C2979 C 0.15648 0.61609 0.34503 0.0
C2980 C 0.14884 0.60825 0.32592 0.0
C2981 C 0.13007 0.59659 0.32574 0.0
C2982 C 0.11954 0.592 0.34431 0.0
C2983 C 0.12773 0.59954 0.36293 0.0
C2984 C 0.14557 0.61164 0.36342 0.0
C2985 C 0.15168 0.61688 0.3856 0.0
C2986 C 0.17362 0.60856 0.3907 0.0
C2987 C 0.15018 0.64049 0.38952 0.0
C2988 C 0.13501 0.60512 0.39751 0.0
C2989 C 0.12131 0.59523 0.38414 0.0
C2990 C 0.10611 0.58147 0.39143 0.0
C2991 C 0.10506 0.57752 0.41291 0.0
C2992 C 0.11887 0.58758 0.42682 0.0
C2993 C 0.13372 0.60185 0.41903 0.0
H2994 H 0.37483 0.41592 0.90019 0.0
H2995 H 0.33746 0.36957 0.93238 0.0
H2996 H 0.3275 0.35407 0.89868 0.0
H2997 H 0.34136 0.42491 0.85917 0.0
H2998 H 0.36109 0.42744 0.83937 0.0
H2999 H 0.36726 0.43343 0.86602 0.0
H3000 H 0.39766 0.40682 0.86524 0.0
H3001 H 0.39167 0.40082 0.83847 0.0
H3002 H 0.39265 0.38021 0.85758 0.0
H3003 H 0.31677 0.34766 0.86161 0.0
H3004 H 0.30948 0.34824 0.8237 0.0
H3005 H 0.3563 0.39628 0.81549 0.0
C3006 C 0.36497 0.4022 0.90015 0.0
C3007 C 0.35693 0.39395 0.9189 0.0
C3008 C 0.34394 0.37607 0.91822 0.0
C3009 C 0.33815 0.36717 0.89914 0.0
C3010 C 0.34587 0.37601 0.88089 0.0
C3011 C 0.35938 0.39284 0.88124 0.0
C3012 C 0.36476 0.39992 0.85938 0.0
C3013 C 0.35822 0.42277 0.85579 0.0
C3014 C 0.38807 0.39675 0.85491 0.0
C3015 C 0.35151 0.38502 0.84673 0.0
C3016 C 0.34068 0.37137 0.85942 0.0
C3017 C 0.32564 0.3578 0.85145 0.0
C3018 C 0.32154 0.35826 0.82997 0.0
C3019 C 0.33273 0.3719 0.81675 0.0
C3020 C 0.34809 0.38517 0.82522 0.0
H3021 H 0.58323 0.61961 0.90043 0.0
H3022 H 0.57058 0.66496 0.94894 0.0
H3023 H 0.60468 0.68148 0.94261 0.0
H3024 H 0.63884 0.61393 0.91418 0.0
H3025 H 0.64686 0.61036 0.88752 0.0
H3026 H 0.62126 0.60218 0.89568 0.0
H3027 H 0.60496 0.62504 0.86662 0.0
H3028 H 0.63048 0.63359 0.85863 0.0
H3029 H 0.61092 0.65253 0.86561 0.0
H3030 H 0.63795 0.69541 0.9286 0.0
H3031 H 0.67281 0.70132 0.91353 0.0
H3032 H 0.66685 0.64448 0.87735 0.0
C3033 C 0.58787 0.6328 0.90989 0.0
C3034 C 0.57435 0.64105 0.92518 0.0
C3035 C 0.58084 0.65829 0.93732 0.0
C3036 C 0.60007 0.66792 0.93369 0.0
C3037 C 0.61287 0.65976 0.91823 0.0
C3038 C 0.60743 0.64219 0.90699 0.0
C3039 C 0.62479 0.63602 0.89215 0.0
C3040 C 0.63345 0.61434 0.89772 0.0
C3041 C 0.61733 0.63685 0.8694 0.0
C3042 C 0.64059 0.65309 0.89661 0.0
C3043 C 0.63308 0.66688 0.91134 0.0
C3044 C 0.64419 0.68456 0.9173 0.0
C3045 C 0.66385 0.6879 0.9085 0.0
C3046 C 0.67243 0.67335 0.89434 0.0
C3047 C 0.66059 0.65579 0.8882 0.0
H3048 H 0.58514 0.33204 0.13837 0.0
H3049 H 0.64124 0.34178 0.1747 0.0
H3050 H 0.6405 0.37937 0.16572 0.0
H3051 H 0.59462 0.3718 0.09758 0.0
H3052 H 0.56768 0.37975 0.09694 0.0
H3053 H 0.57437 0.35321 0.10348 0.0
H3054 H 0.55387 0.35646 0.13808 0.0
H3055 H 0.54711 0.38295 0.13163 0.0
H3056 H 0.56015 0.3773 0.15586 0.0
H3057 H 0.63259 0.41602 0.15445 0.0
H3058 H 0.6162 0.44959 0.14531 0.0
H3059 H 0.56359 0.41653 0.11851 0.0
C3060 C 0.59755 0.34203 0.14395 0.0
C3061 C 0.61351 0.33403 0.15687 0.0
C3062 C 0.62905 0.34764 0.16459 0.0
C3063 C 0.62879 0.36896 0.15949 0.0
C3064 C 0.61269 0.37645 0.14691 0.0
C3065 C 0.59721 0.36344 0.13944 0.0
C3066 C 0.58035 0.3758 0.12834 0.0
C3067 C 0.5792 0.36978 0.10521 0.0
C3068 C 0.55912 0.37296 0.13913 0.0
C3069 C 0.58858 0.39781 0.13105 0.0
C3070 C 0.60748 0.39777 0.14138 0.0
C3071 C 0.61785 0.41624 0.14625 0.0
C3072 C 0.60841 0.43526 0.14093 0.0
C3073 C 0.5886 0.43574 0.13115 0.0
C3074 C 0.57879 0.4167 0.12583 0.0
H3075 H 0.83093 0.35308 0.37977 0.0
H3076 H 0.82371 0.29491 0.41365 0.0
H3077 H 0.85804 0.30019 0.43016 0.0
H3078 H 0.88722 0.34551 0.36984 0.0
H3079 H 0.89294 0.37298 0.37198 0.0
H3080 H 0.86777 0.36457 0.3628 0.0
H3081 H 0.85017 0.38657 0.39169 0.0
H3082 H 0.87529 0.3947 0.40122 0.0
H3083 H 0.85711 0.38211 0.41854 0.0
H3084 H 0.89077 0.31373 0.44603 0.0
H3085 H 0.92446 0.33032 0.4544 0.0
H3086 H 0.91331 0.37736 0.40704 0.0
C3087 C 0.83682 0.34133 0.39038 0.0
C3088 C 0.82477 0.32358 0.39548 0.0
C3089 C 0.83286 0.30848 0.40939 0.0
C3090 C 0.85221 0.31145 0.41901 0.0
C3091 C 0.86352 0.32934 0.41409 0.0
C3092 C 0.85651 0.34368 0.39959 0.0
C3093 C 0.87236 0.361 0.39642 0.0
C3094 C 0.88056 0.36101 0.37392 0.0
C3095 C 0.86317 0.38236 0.40232 0.0
C3096 C 0.88913 0.35432 0.41172 0.0
C3097 C 0.8834 0.33628 0.42208 0.0
C3098 C 0.89563 0.32766 0.43779 0.0
C3099 C 0.9146 0.33731 0.44259 0.0
C3100 C 0.92138 0.35506 0.43136 0.0
C3101 C 0.90843 0.36376 0.41581 0.0
H3102 H 0.90074 0.6702 0.64036 0.0
H3103 H 0.84256 0.65627 0.67155 0.0
H3104 H 0.8456 0.61923 0.66072 0.0
H3105 H 0.89699 0.63186 0.59718 0.0
H3106 H 0.92425 0.62526 0.59888 0.0
H3107 H 0.9156 0.65115 0.60566 0.0
H3108 H 0.93293 0.64745 0.64193 0.0
H3109 H 0.94162 0.62161 0.63527 0.0
H3110 H 0.92609 0.62562 0.65831 0.0
H3111 H 0.85608 0.58354 0.64824 0.0
H3112 H 0.875 0.55121 0.63964 0.0
H3113 H 0.92833 0.58781 0.61977 0.0
C3114 C 0.88833 0.65942 0.64429 0.0
C3115 C 0.87108 0.66605 0.65622 0.0
C3116 C 0.85564 0.65145 0.66204 0.0
C3117 C 0.85724 0.63046 0.6559 0.0
C3118 C 0.87461 0.62431 0.64434 0.0
C3119 C 0.89005 0.63832 0.63885 0.0
C3120 C 0.9085 0.62728 0.62903 0.0
C3121 C 0.9115 0.63431 0.60633 0.0
C3122 C 0.92845 0.63069 0.64191 0.0
C3123 C 0.90122 0.6048 0.63016 0.0
C3124 C 0.8814 0.60351 0.63852 0.0
C3125 C 0.87156 0.58438 0.6416 0.0
C3126 C 0.88244 0.56608 0.63658 0.0
C3127 C 0.90317 0.56695 0.62899 0.0
C3128 C 0.91248 0.58663 0.6254 0.0
H3129 H 0.57829 0.35628 0.6035 0.0
H3130 H 0.5874 0.40685 0.55957 0.0
H3131 H 0.62476 0.40842 0.56917 0.0
H3132 H 0.61767 0.37216 0.64305 0.0
H3133 H 0.62591 0.34559 0.64733 0.0
H3134 H 0.59934 0.35105 0.63999 0.0
H3135 H 0.60285 0.32599 0.60853 0.0
H3136 H 0.62937 0.32049 0.61575 0.0
H3137 H 0.62355 0.33007 0.58999 0.0
H3138 H 0.66135 0.40271 0.58156 0.0
H3139 H 0.69504 0.3878 0.59245 0.0
H3140 H 0.66262 0.33878 0.62609 0.0
C3141 C 0.58806 0.36812 0.59643 0.0
C3142 C 0.58 0.38181 0.58119 0.0
C3143 C 0.59332 0.39648 0.57152 0.0
C3144 C 0.61449 0.39751 0.57694 0.0
C3145 C 0.62209 0.38353 0.5918 0.0
C3146 C 0.60932 0.36895 0.60125 0.0
C3147 C 0.62182 0.35386 0.6145 0.0
C3148 C 0.61583 0.35579 0.63759 0.0
C3149 C 0.61925 0.33128 0.60672 0.0
C3150 C 0.64368 0.36191 0.61066 0.0
C3151 C 0.64342 0.37937 0.59797 0.0
C3152 C 0.66173 0.38915 0.59163 0.0
C3153 C 0.68082 0.38056 0.59795 0.0
C3154 C 0.68149 0.36212 0.61015 0.0
C3155 C 0.66262 0.35296 0.61689 0.0
H3156 H 0.86604 0.33864 0.82088 0.0
H3157 H 0.88818 0.30141 0.87288 0.0
H3158 H 0.89765 0.3335 0.89175 0.0
H3159 H 0.90461 0.37528 0.82131 0.0
H3160 H 0.88852 0.39758 0.81538 0.0
H3161 H 0.88057 0.37198 0.80713 0.0
H3162 H 0.84542 0.37628 0.82647 0.0
H3163 H 0.85317 0.40207 0.83463 0.0
H3164 H 0.84537 0.38297 0.85374 0.0
H3165 H 0.9113 0.36882 0.90164 0.0
H3166 H 0.92345 0.40551 0.90392 0.0
H3167 H 0.88939 0.42032 0.84756 0.0
C3168 C 0.87225 0.33728 0.83651 0.0
C3169 C 0.87633 0.31751 0.84539 0.0
C3170 C 0.88473 0.31636 0.86579 0.0
C3171 C 0.89023 0.33453 0.87664 0.0
C3172 C 0.88676 0.35376 0.86713 0.0
C3173 C 0.87744 0.3553 0.84775 0.0
C3174 C 0.87646 0.37782 0.84055 0.0
C3175 C 0.88825 0.38082 0.81988 0.0
C3176 C 0.85375 0.38522 0.83875 0.0
C3177 C 0.88755 0.38854 0.85843 0.0
C3178 C 0.89343 0.37439 0.8736 0.0
C3179 C 0.90617 0.38018 0.89027 0.0
C3180 C 0.91306 0.40097 0.89142 0.0
C3181 C 0.90683 0.41569 0.87625 0.0
C3182 C 0.89369 0.40945 0.85977 0.0
H3183 H 0.83898 0.66824 0.12571 0.0
H3184 H 0.80957 0.61564 0.09486 0.0
H3185 H 0.84409 0.60224 0.08475 0.0
H3186 H 0.87749 0.67718 0.08907 0.0
H3187 H 0.89789 0.68353 0.10731 0.0
H3188 H 0.87108 0.68788 0.11423 0.0
H3189 H 0.87563 0.66495 0.14718 0.0
H3190 H 0.90256 0.66067 0.14046 0.0
H3191 H 0.88549 0.63871 0.14464 0.0
H3192 H 0.88108 0.59753 0.07337 0.0
H3193 H 0.91864 0.59976 0.06492 0.0
H3194 H 0.92452 0.65375 0.10516 0.0
C3195 C 0.83983 0.65364 0.11726 0.0
C3196 C 0.82156 0.64299 0.11109 0.0
C3197 C 0.82333 0.62402 0.09989 0.0
C3198 C 0.84289 0.61629 0.09402 0.0
C3199 C 0.86056 0.62748 0.0998 0.0
C3200 C 0.85927 0.64552 0.11153 0.0
C3201 C 0.88064 0.655 0.11496 0.0
C3202 C 0.88183 0.6772 0.10584 0.0
C3203 C 0.88642 0.65481 0.13819 0.0
C3204 C 0.89402 0.63987 0.10272 0.0
C3205 C 0.88212 0.62413 0.09405 0.0
C3206 C 0.89066 0.60945 0.08049 0.0
C3207 C 0.91194 0.61089 0.0757 0.0
C3208 C 0.92444 0.62668 0.08468 0.0
C3209 C 0.91538 0.64119 0.09853 0.0
H3210 H 0.62615 0.6601 0.31898 0.0
H3211 H 0.5995 0.69012 0.37337 0.0
H3212 H 0.5914 0.65564 0.38836 0.0
H3213 H 0.58966 0.62088 0.31416 0.0
H3214 H 0.60755 0.60057 0.3066 0.0
H3215 H 0.61372 0.62742 0.3012 0.0
H3216 H 0.64861 0.62367 0.32116 0.0
H3217 H 0.64264 0.59668 0.3265 0.0
H3218 H 0.64849 0.61424 0.34763 0.0
H3219 H 0.58093 0.61852 0.39469 0.0
H3220 H 0.57227 0.58088 0.39357 0.0
H3221 H 0.60793 0.57443 0.33663 0.0
C3222 C 0.61912 0.65941 0.33429 0.0
C3223 C 0.6135 0.67785 0.345 0.0
C3224 C 0.60409 0.67625 0.3649 0.0
C3225 C 0.59939 0.65671 0.37356 0.0
C3226 C 0.60453 0.63886 0.36233 0.0
C3227 C 0.61457 0.63998 0.34331 0.0
C3228 C 0.61743 0.61844 0.33398 0.0
C3229 C 0.60643 0.61674 0.31274 0.0
C3230 C 0.64068 0.61293 0.33222 0.0
C3231 C 0.60673 0.60513 0.35033 0.0
C3232 C 0.59938 0.61723 0.36655 0.0
C3233 C 0.58711 0.60879 0.38239 0.0
C3234 C 0.58219 0.58745 0.3816 0.0
C3235 C 0.58981 0.57477 0.36527 0.0
C3236 C 0.60246 0.5837 0.34963 0.0
H3237 H 0.62112 0.91888 0.59641 0.0
H3238 H 0.6472 0.86771 0.56069 0.0
H3239 H 0.65905 0.85091 0.59314 0.0
H3240 H 0.66032 0.92303 0.63262 0.0
H3241 H 0.64389 0.92825 0.65477 0.0
H3242 H 0.63516 0.93505 0.62903 0.0
H3243 H 0.60178 0.91289 0.63425 0.0
H3244 H 0.61035 0.90613 0.66014 0.0
H3245 H 0.60406 0.88585 0.64173 0.0
H3246 H 0.6738 0.84326 0.62853 0.0
H3247 H 0.68622 0.84302 0.66514 0.0
H3248 H 0.64752 0.89677 0.67842 0.0
C3249 C 0.62882 0.90387 0.59548 0.0
C3250 C 0.63322 0.89461 0.57603 0.0
C3251 C 0.6435 0.87503 0.57542 0.0
C3252 C 0.65034 0.86537 0.59378 0.0
C3253 C 0.64634 0.8752 0.61268 0.0
C3254 C 0.63536 0.89376 0.61372 0.0
C3255 C 0.6339 0.90151 0.63595 0.0
C3256 C 0.64392 0.92324 0.63821 0.0
C3257 C 0.61117 0.90159 0.64346 0.0
C3258 C 0.64653 0.88491 0.64707 0.0
C3259 C 0.65365 0.86989 0.63337 0.0
C3260 C 0.66776 0.85448 0.63957 0.0
C3261 C 0.67477 0.85447 0.66029 0.0
C3262 C 0.6673 0.86948 0.67456 0.0
C3263 C 0.6528 0.88465 0.66792 0.0
loop_
_geom_bond_atom_site_label_1
_geom_bond_atom_site_label_2
_geom_bond_distance
_geom_bond_site_symmetry_2
_ccdc_geom_bond_type
O0 Cd1 2.223 . S
O0 C8 1.315 . S
Cd1 O0 2.223 . S
Cd1 O4 2.297 . S
Cd1 O5 2.439 . S
Cd1 O11 2.240 . S
Cd2 O3 2.240 . S
Cd2 O10 2.223 . S
Cd2 O12 2.297 . S
Cd2 O13 2.439 . S
O3 Cd2 2.240 . S
O3 C8 1.279 . S
O4 Cd1 2.297 . S
O4 C6 1.247 . S
O5 Cd1 2.439 . S
O5 C6 1.208 . S
C6 O4 1.247 . S
C6 O5 1.208 . S
C7 O12 1.247 . S
C7 O13 1.208 . S
C8 O0 1.315 . S
C8 O3 1.279 . S
C9 O10 1.315 . S
C9 O11 1.279 . S
O10 Cd2 2.223 . S
O10 C9 1.315 . S
O11 Cd1 2.240 . S
O11 C9 1.279 . S
O12 Cd2 2.297 . S
O12 C7 1.247 . S
O13 Cd2 2.439 . S
O13 C7 1.208 . S
O14 Cd15 2.223 . S
O14 C22 1.315 . S
Cd15 O14 2.223 . S
Cd15 O18 2.297 . S
Cd15 O19 2.439 . S
Cd15 O25 2.240 . S
Cd16 O17 2.240 . S
Cd16 O24 2.223 1_565 S
Cd16 O26 2.297 . S
Cd16 O27 2.439 . S
O17 Cd16 2.240 . S
O17 C22 1.279 1_655 S
O18 Cd15 2.297 . S
O18 C20 1.247 . S
O19 Cd15 2.439 . S
O19 C20 1.208 . S
C20 O18 1.247 . S
C20 O19 1.208 . S
C21 O26 1.247 . S
C21 O27 1.208 . S
C22 O14 1.315 . S
C22 O17 1.279 1_455 S
C23 O24 1.315 1_455 S
C23 O25 1.279 1_545 S
O24 Cd16 2.223 1_545 S
O24 C23 1.315 1_655 S
O25 Cd15 2.240 . S
O25 C23 1.279 1_565 S
O26 Cd16 2.297 . S
O26 C21 1.247 . S
O27 Cd16 2.439 . S
O27 C21 1.208 . S
O28 Cd29 2.223 . S
O28 C36 1.315 . S
Cd29 O28 2.223 . S
Cd29 O32 2.297 . S
Cd29 O33 2.439 . S
Cd29 O39 2.240 . S
Cd30 O31 2.240 . S
Cd30 O38 2.223 . S
Cd30 O40 2.297 . S
Cd30 O41 2.439 . S
O31 Cd30 2.240 . S
O31 C36 1.279 . S
O32 Cd29 2.297 . S
O32 C34 1.247 . S
O33 Cd29 2.439 . S
O33 C34 1.208 . S
C34 O32 1.247 . S
C34 O33 1.208 . S
C35 O40 1.247 . S
C35 O41 1.208 . S
C36 O28 1.315 . S
C36 O31 1.279 . S
C37 O38 1.315 . S
C37 O39 1.279 . S
O38 Cd30 2.223 . S
O38 C37 1.315 . S
O39 Cd29 2.240 . S
O39 C37 1.279 . S
O40 Cd30 2.297 . S
O40 C35 1.247 . S
O41 Cd30 2.439 . S
O41 C35 1.208 . S
O42 Cd43 2.223 . S
O42 C50 1.315 . S
Cd43 O42 2.223 . S
Cd43 O46 2.297 . S
Cd43 O47 2.439 . S
Cd43 O53 2.240 . S
Cd44 O45 2.240 . S
Cd44 O52 2.223 1_545 S
Cd44 O54 2.297 . S
Cd44 O55 2.439 . S
O45 Cd44 2.240 . S
O45 C50 1.279 . S
O46 Cd43 2.297 . S
O46 C48 1.247 . S
O47 Cd43 2.439 . S
O47 C48 1.208 . S
C48 O46 1.247 . S
C48 O47 1.208 . S
C49 O54 1.247 . S
C49 O55 1.208 . S
C50 O42 1.315 . S
C50 O45 1.279 . S
C51 O52 1.315 . S
C51 O53 1.279 1_565 S
O52 Cd44 2.223 1_565 S
O52 C51 1.315 . S
O53 Cd43 2.240 . S
O53 C51 1.279 1_545 S
O54 Cd44 2.297 . S
O54 C49 1.247 . S
O55 Cd44 2.439 . S
O55 C49 1.208 . S
O56 Cd57 2.223 . S
O56 C64 1.315 . S
Cd57 O56 2.223 . S
Cd57 O60 2.297 . S
Cd57 O61 2.439 . S
Cd57 O67 2.240 . S
Cd58 O59 2.240 . S
Cd58 O66 2.223 . S
Cd58 O68 2.297 . S
Cd58 O69 2.439 . S
O59 Cd58 2.240 . S
O59 C64 1.279 . S
O60 Cd57 2.297 . S
O60 C62 1.247 . S
O61 Cd57 2.439 . S
O61 C62 1.208 . S
C62 O60 1.247 . S
C62 O61 1.208 . S
C63 O68 1.247 . S
C63 O69 1.208 . S
C64 O56 1.315 . S
C64 O59 1.279 . S
C65 O66 1.315 . S
C65 O67 1.279 . S
O66 Cd58 2.223 . S
O66 C65 1.315 . S
O67 Cd57 2.240 . S
O67 C65 1.279 . S
O68 Cd58 2.297 . S
O68 C63 1.247 . S
O69 Cd58 2.439 . S
O69 C63 1.208 . S
O70 Cd71 2.223 . S
O70 C78 1.315 . S
Cd71 O70 2.223 . S
Cd71 O74 2.297 . S
Cd71 O75 2.439 . S
Cd71 O81 2.240 . S
Cd72 O73 2.240 . S
Cd72 O80 2.223 1_565 S
Cd72 O82 2.297 . S
Cd72 O83 2.439 . S
O73 Cd72 2.240 . S
O73 C78 1.279 . S
O74 Cd71 2.297 . S
O74 C76 1.247 . S
O75 Cd71 2.439 . S
O75 C76 1.208 . S
C76 O74 1.247 . S
C76 O75 1.208 . S
C77 O82 1.247 . S
C77 O83 1.208 . S
C78 O70 1.315 . S
C78 O73 1.279 . S
C79 O80 1.332 . S
C79 O81 1.229 1_545 S
O80 Cd72 2.223 1_545 S
O80 C79 1.332 . S
O81 Cd71 2.240 . S
O81 C79 1.229 1_565 S
O82 Cd72 2.297 . S
O82 C77 1.247 . S
O83 Cd72 2.439 . S
O83 C77 1.208 . S
O84 Cd85 2.223 . S
O84 C92 1.315 . S
Cd85 O84 2.223 . S
Cd85 O88 2.297 . S
Cd85 O89 2.439 . S
Cd85 O95 2.240 . S
Cd86 O87 2.240 . S
Cd86 O94 2.223 . S
Cd86 O96 2.297 . S
Cd86 O97 2.439 . S
O87 Cd86 2.240 . S
O87 C92 1.279 . S
O88 Cd85 2.297 . S
O88 C90 1.247 . S
O89 Cd85 2.439 . S
O89 C90 1.208 . S
C90 O88 1.247 . S
C90 O89 1.208 . S
C91 O96 1.247 . S
C91 O97 1.208 . S
C92 O84 1.315 . S
C92 O87 1.279 . S
C93 O94 1.315 . S
C93 O95 1.279 . S
O94 Cd86 2.223 . S
O94 C93 1.315 . S
O95 Cd85 2.240 . S
O95 C93 1.279 . S
O96 Cd86 2.297 . S
O96 C91 1.247 . S
O97 Cd86 2.439 . S
O97 C91 1.208 . S
O98 Cd99 2.223 . S
O98 C106 1.315 . S
Cd99 O98 2.223 . S
Cd99 O102 2.297 . S
Cd99 O103 2.439 . S
Cd99 O109 2.240 . S
Cd100 O101 2.240 . S
Cd100 O108 2.223 1_545 S
Cd100 O110 2.297 . S
Cd100 O111 2.439 . S
O101 Cd100 2.240 . S
O101 C106 1.279 1_655 S
O102 Cd99 2.297 . S
O102 C104 1.247 . S
O103 Cd99 2.439 . S
O103 C104 1.208 . S
C104 O102 1.247 . S
C104 O103 1.208 . S
C105 O110 1.247 . S
C105 O111 1.208 . S
C106 O98 1.315 . S
C106 O101 1.279 1_455 S
C107 O108 1.315 1_455 S
C107 O109 1.279 1_565 S
O108 Cd100 2.223 1_565 S
O108 C107 1.315 1_655 S
O109 Cd99 2.240 . S
O109 C107 1.279 1_545 S
O110 Cd100 2.297 . S
O110 C105 1.247 . S
O111 Cd100 2.439 . S
O111 C105 1.208 . S
O112 Cd113 2.223 . S
O112 C120 1.315 . S
Cd113 O112 2.223 . S
Cd113 O116 2.297 . S
Cd113 O117 2.439 . S
Cd113 O123 2.240 . S
Cd114 O115 2.240 . S
Cd114 O122 2.223 . S
Cd114 O124 2.297 . S
Cd114 O125 2.439 . S
O115 Cd114 2.240 . S
O115 C120 1.279 . S
O116 Cd113 2.297 . S
O116 C118 1.247 . S
O117 Cd113 2.439 . S
O117 C118 1.208 . S
C118 O116 1.247 . S
C118 O117 1.208 . S
C119 O124 1.247 . S
C119 O125 1.208 . S
C120 O112 1.315 . S
C120 O115 1.279 . S
C121 O122 1.315 . S
C121 O123 1.279 . S
O122 Cd114 2.223 . S
O122 C121 1.315 . S
O123 Cd113 2.240 . S
O123 C121 1.279 . S
O124 Cd114 2.297 . S
O124 C119 1.247 . S
O125 Cd114 2.439 . S
O125 C119 1.208 . S
O126 Cd127 2.223 . S
O126 C134 1.315 . S
Cd127 O126 2.223 . S
Cd127 O130 2.297 . S
Cd127 O131 2.439 . S
Cd127 O137 2.240 . S
Cd128 O129 2.240 . S
Cd128 O136 2.223 1_455 S
Cd128 O138 2.297 . S
Cd128 O139 2.439 . S
O129 Cd128 2.240 . S
O129 C134 1.279 . S
O130 Cd127 2.297 . S
O130 C132 1.247 . S
O131 Cd127 2.439 . S
O131 C132 1.208 . S
C132 O130 1.247 . S
C132 O131 1.208 . S
C133 O138 1.247 . S
C133 O139 1.208 . S
C134 O126 1.315 . S
C134 O129 1.279 . S
C135 O136 1.315 . S
C135 O137 1.279 1_655 S
O136 Cd128 2.223 1_655 S
O136 C135 1.315 . S
O137 Cd127 2.240 . S
O137 C135 1.279 1_455 S
O138 Cd128 2.297 . S
O138 C133 1.247 . S
O139 Cd128 2.439 . S
O139 C133 1.208 . S
O140 Cd141 2.223 . S
O140 C148 1.315 . S
Cd141 O140 2.223 . S
Cd141 O144 2.297 . S
Cd141 O145 2.439 . S
Cd141 O151 2.240 . S
Cd142 O143 2.240 . S
Cd142 O150 2.223 . S
Cd142 O152 2.297 . S
Cd142 O153 2.439 . S
O143 Cd142 2.240 . S
O143 C148 1.279 . S
O144 Cd141 2.297 . S
O144 C146 1.247 . S
O145 Cd141 2.439 . S
O145 C146 1.208 . S
C146 O144 1.247 . S
C146 O145 1.208 . S
C147 O152 1.247 . S
C147 O153 1.208 . S
C148 O140 1.315 . S
C148 O143 1.279 . S
C149 O150 1.315 . S
C149 O151 1.279 . S
O150 Cd142 2.223 . S
O150 C149 1.315 . S
O151 Cd141 2.240 . S
O151 C149 1.279 . S
O152 Cd142 2.297 . S
O152 C147 1.247 . S
O153 Cd142 2.439 . S
O153 C147 1.208 . S
O154 Cd155 2.223 . S
O154 C162 1.315 . S
Cd155 O154 2.223 . S
Cd155 O158 2.297 . S
Cd155 O159 2.439 . S
Cd155 O165 2.240 . S
Cd156 O157 2.240 . S
Cd156 O164 2.223 . S
Cd156 O166 2.297 . S
Cd156 O167 2.439 . S
O157 Cd156 2.240 . S
O157 C162 1.279 1_554 S
O158 Cd155 2.297 . S
O158 C160 1.247 . S
O159 Cd155 2.439 . S
O159 C160 1.208 . S
C160 O158 1.247 . S
C160 O159 1.208 . S
C161 O166 1.247 . S
C161 O167 1.208 . S
C162 O154 1.315 . S
C162 O157 1.279 1_556 S
C163 O164 1.315 1_556 S
C163 O165 1.279 . S
O164 Cd156 2.223 . S
O164 C163 1.315 1_554 S
O165 Cd155 2.240 . S
O165 C163 1.279 . S
O166 Cd156 2.297 . S
O166 C161 1.247 . S
O167 Cd156 2.439 . S
O167 C161 1.208 . S
O168 Cd169 2.223 . S
O168 C176 1.315 . S
Cd169 O168 2.223 . S
Cd169 O172 2.297 . S
Cd169 O173 2.439 . S
Cd169 O179 2.240 . S
Cd170 O171 2.240 . S
Cd170 O178 2.223 . S
Cd170 O180 2.297 . S
Cd170 O181 2.439 . S
O171 Cd170 2.240 . S
O171 C176 1.279 . S
O172 Cd169 2.297 . S
O172 C174 1.247 . S
O173 Cd169 2.439 . S
O173 C174 1.208 . S
C174 O172 1.247 . S
C174 O173 1.208 . S
C175 O180 1.247 . S
C175 O181 1.208 . S
C176 O168 1.315 . S
C176 O171 1.279 . S
C177 O178 1.315 . S
C177 O179 1.279 . S
O178 Cd170 2.223 . S
O178 C177 1.315 . S
O179 Cd169 2.240 . S
O179 C177 1.279 . S
O180 Cd170 2.297 . S
O180 C175 1.247 . S
O181 Cd170 2.439 . S
O181 C175 1.208 . S
O182 Cd183 2.223 . S
O182 C190 1.315 . S
Cd183 O182 2.223 . S
Cd183 O186 2.297 . S
Cd183 O187 2.439 . S
Cd183 O193 2.240 . S
Cd184 O185 2.240 . S
Cd184 O192 2.223 . S
Cd184 O194 2.297 . S
Cd184 O195 2.439 . S
O185 Cd184 2.240 . S
O185 C190 1.279 . S
O186 Cd183 2.297 . S
O186 C188 1.247 . S
O187 Cd183 2.439 . S
O187 C188 1.208 . S
C188 O186 1.247 . S
C188 O187 1.208 . S
C189 O194 1.247 . S
C189 O195 1.208 . S
C190 O182 1.315 . S
C190 O185 1.279 . S
C191 O192 1.315 . S
C191 O193 1.279 . S
O192 Cd184 2.223 . S
O192 C191 1.315 . S
O193 Cd183 2.240 . S
O193 C191 1.279 . S
O194 Cd184 2.297 . S
O194 C189 1.247 . S
O195 Cd184 2.439 . S
O195 C189 1.208 . S
O196 Cd197 2.223 . S
O196 C204 1.315 . S
Cd197 O196 2.223 . S
Cd197 O200 2.297 . S
Cd197 O201 2.439 . S
Cd197 O207 2.240 . S
Cd198 O199 2.240 . S
Cd198 O206 2.223 . S
Cd198 O208 2.297 . S
Cd198 O209 2.439 . S
O199 Cd198 2.240 . S
O199 C204 1.279 . S
O200 Cd197 2.297 . S
O200 C202 1.247 . S
O201 Cd197 2.439 . S
O201 C202 1.208 . S
C202 O200 1.247 . S
C202 O201 1.208 . S
C203 O208 1.247 . S
C203 O209 1.208 . S
C204 O196 1.315 . S
C204 O199 1.279 . S
C205 O206 1.315 . S
C205 O207 1.279 . S
O206 Cd198 2.223 . S
O206 C205 1.315 . S
O207 Cd197 2.240 . S
O207 C205 1.279 . S
O208 Cd198 2.297 . S
O208 C203 1.247 . S
O209 Cd198 2.439 . S
O209 C203 1.208 . S
O210 Cd211 2.223 . S
O210 C218 1.315 . S
Cd211 O210 2.223 . S
Cd211 O214 2.297 . S
Cd211 O215 2.439 . S
Cd211 O221 2.240 . S
Cd212 O213 2.240 . S
Cd212 O220 2.223 1_455 S
Cd212 O222 2.297 . S
Cd212 O223 2.439 . S
O213 Cd212 2.240 . S
O213 C218 1.279 1_556 S
O214 Cd211 2.297 . S
O214 C216 1.247 . S
O215 Cd211 2.439 . S
O215 C216 1.208 . S
C216 O214 1.247 . S
C216 O215 1.208 . S
C217 O222 1.247 . S
C217 O223 1.208 . S
C218 O210 1.315 . S
C218 O213 1.279 1_554 S
C219 O220 1.315 1_554 S
C219 O221 1.279 1_655 S
O220 Cd212 2.223 1_655 S
O220 C219 1.315 1_556 S
O221 Cd211 2.240 . S
O221 C219 1.279 1_455 S
O222 Cd212 2.297 . S
O222 C217 1.247 . S
O223 Cd212 2.439 . S
O223 C217 1.208 . S
O224 Cd225 2.223 . S
O224 C232 1.315 . S
Cd225 O224 2.223 . S
Cd225 O228 2.297 . S
Cd225 O229 2.439 . S
Cd225 O235 2.240 . S
Cd226 O227 2.240 . S
Cd226 O234 2.223 . S
Cd226 O236 2.297 . S
Cd226 O237 2.439 . S
O227 Cd226 2.240 . S
O227 C232 1.279 . S
O228 Cd225 2.297 . S
O228 C230 1.247 . S
O229 Cd225 2.439 . S
O229 C230 1.208 . S
C230 O228 1.247 . S
C230 O229 1.208 . S
C231 O236 1.247 . S
C231 O237 1.208 . S
C232 O224 1.315 . S
C232 O227 1.279 . S
C233 O234 1.315 . S
C233 O235 1.279 . S
O234 Cd226 2.223 . S
O234 C233 1.315 . S
O235 Cd225 2.240 . S
O235 C233 1.279 . S
O236 Cd226 2.297 . S
O236 C231 1.247 . S
O237 Cd226 2.439 . S
O237 C231 1.208 . S
O238 Cd239 2.223 . S
O238 C246 1.315 . S
Cd239 O238 2.223 . S
Cd239 O242 2.297 . S
Cd239 O243 2.439 . S
Cd239 O249 2.240 . S
Cd240 O241 2.240 . S
Cd240 O248 2.223 . S
Cd240 O250 2.297 . S
Cd240 O251 2.439 . S
O241 Cd240 2.240 . S
O241 C246 1.279 . S
O242 Cd239 2.297 . S
O242 C244 1.247 . S
O243 Cd239 2.439 . S
O243 C244 1.208 . S
C244 O242 1.247 . S
C244 O243 1.208 . S
C245 O250 1.247 . S
C245 O251 1.208 . S
C246 O238 1.315 . S
C246 O241 1.279 . S
C247 O248 1.315 . S
C247 O249 1.279 . S
O248 Cd240 2.223 . S
O248 C247 1.315 . S
O249 Cd239 2.240 . S
O249 C247 1.279 . S
O250 Cd240 2.297 . S
O250 C245 1.247 . S
O251 Cd240 2.439 . S
O251 C245 1.208 . S
O252 Cd253 2.223 . S
O252 C260 1.315 . S
Cd253 O252 2.223 . S
Cd253 O256 2.297 . S
Cd253 O257 2.439 . S
Cd253 O263 2.240 . S
Cd254 O255 2.240 . S
Cd254 O262 2.223 1_554 S
Cd254 O264 2.297 . S
Cd254 O265 2.439 . S
O255 Cd254 2.240 . S
O255 C260 1.279 . S
O256 Cd253 2.297 . S
O256 C258 1.247 . S
O257 Cd253 2.439 . S
O257 C258 1.208 . S
C258 O256 1.247 . S
C258 O257 1.208 . S
C259 O264 1.247 . S
C259 O265 1.208 . S
C260 O252 1.315 . S
C260 O255 1.279 . S
C261 O262 1.315 . S
C261 O263 1.279 1_556 S
O262 Cd254 2.223 1_556 S
O262 C261 1.315 . S
O263 Cd253 2.240 . S
O263 C261 1.279 1_554 S
O264 Cd254 2.297 . S
O264 C259 1.247 . S
O265 Cd254 2.439 . S
O265 C259 1.208 . S
O266 Cd267 2.223 . S
O266 C274 1.315 . S
Cd267 O266 2.223 . S
Cd267 O270 2.297 . S
Cd267 O271 2.439 . S
Cd267 O277 2.240 . S
Cd268 O269 2.240 . S
Cd268 O276 2.223 . S
Cd268 O278 2.297 . S
Cd268 O279 2.439 . S
O269 Cd268 2.240 . S
O269 C274 1.279 . S
O270 Cd267 2.297 . S
O270 C272 1.247 . S
O271 Cd267 2.439 . S
O271 C272 1.208 . S
C272 O270 1.247 . S
C272 O271 1.208 . S
C273 O278 1.247 . S
C273 O279 1.208 . S
C274 O266 1.315 . S
C274 O269 1.279 . S
C275 O276 1.315 . S
C275 O277 1.279 . S
O276 Cd268 2.223 . S
O276 C275 1.315 . S
O277 Cd267 2.240 . S
O277 C275 1.279 . S
O278 Cd268 2.297 . S
O278 C273 1.247 . S
O279 Cd268 2.439 . S
O279 C273 1.208 . S
O280 Cd281 2.223 . S
O280 C288 1.315 . S
Cd281 O280 2.223 . S
Cd281 O284 2.297 . S
Cd281 O285 2.439 . S
Cd281 O291 2.240 . S
Cd282 O283 2.240 . S
Cd282 O290 2.223 1_554 S
Cd282 O292 2.297 . S
Cd282 O293 2.439 . S
O283 Cd282 2.240 . S
O283 C288 1.279 1_565 S
O284 Cd281 2.297 . S
O284 C286 1.247 . S
O285 Cd281 2.439 . S
O285 C286 1.208 . S
C286 O284 1.247 . S
C286 O285 1.208 . S
C287 O292 1.247 . S
C287 O293 1.208 . S
C288 O280 1.315 . S
C288 O283 1.279 1_545 S
C289 O290 1.315 1_545 S
C289 O291 1.279 1_556 S
O290 Cd282 2.223 1_556 S
O290 C289 1.315 1_565 S
O291 Cd281 2.240 . S
O291 C289 1.279 1_554 S
O292 Cd282 2.297 . S
O292 C287 1.247 . S
O293 Cd282 2.439 . S
O293 C287 1.208 . S
O294 Cd295 2.223 . S
O294 C302 1.315 . S
Cd295 O294 2.223 . S
Cd295 O298 2.297 . S
Cd295 O299 2.439 . S
Cd295 O305 2.240 . S
Cd296 O297 2.240 . S
Cd296 O304 2.223 . S
Cd296 O306 2.297 . S
Cd296 O307 2.439 . S
O297 Cd296 2.240 . S
O297 C302 1.279 . S
O298 Cd295 2.297 . S
O298 C300 1.247 . S
O299 Cd295 2.439 . S
O299 C300 1.208 . S
C300 O298 1.247 . S
C300 O299 1.208 . S
C301 O306 1.247 . S
C301 O307 1.208 . S
C302 O294 1.315 . S
C302 O297 1.279 . S
C303 O304 1.315 . S
C303 O305 1.279 . S
O304 Cd296 2.223 . S
O304 C303 1.315 . S
O305 Cd295 2.240 . S
O305 C303 1.279 . S
O306 Cd296 2.297 . S
O306 C301 1.247 . S
O307 Cd296 2.439 . S
O307 C301 1.208 . S
O308 Cd309 2.223 . S
O308 C316 1.315 . S
Cd309 O308 2.223 . S
Cd309 O312 2.297 . S
Cd309 O313 2.439 . S
Cd309 O319 2.240 . S
Cd310 O311 2.240 . S
Cd310 O318 2.223 . S
Cd310 O320 2.297 . S
Cd310 O321 2.439 . S
O311 Cd310 2.240 . S
O311 C316 1.279 . S
O312 Cd309 2.297 . S
O312 C314 1.247 . S
O313 Cd309 2.439 . S
O313 C314 1.208 . S
C314 O312 1.247 . S
C314 O313 1.208 . S
C315 O320 1.247 . S
C315 O321 1.208 . S
C316 O308 1.315 . S
C316 O311 1.279 . S
C317 O318 1.315 . S
C317 O319 1.279 . S
O318 Cd310 2.223 . S
O318 C317 1.315 . S
O319 Cd309 2.240 . S
O319 C317 1.279 . S
O320 Cd310 2.297 . S
O320 C315 1.247 . S
O321 Cd310 2.439 . S
O321 C315 1.208 . S
O322 Cd323 2.223 . S
O322 C330 1.315 . S
Cd323 O322 2.223 . S
Cd323 O326 2.297 . S
Cd323 O327 2.439 . S
Cd323 O333 2.240 . S
Cd324 O325 2.240 . S
Cd324 O332 2.223 1_556 S
Cd324 O334 2.297 . S
Cd324 O335 2.439 . S
O325 Cd324 2.240 . S
O325 C330 1.279 . S
O326 Cd323 2.297 . S
O326 C328 1.247 . S
O327 Cd323 2.439 . S
O327 C328 1.208 . S
C328 O326 1.247 . S
C328 O327 1.208 . S
C329 O334 1.247 . S
C329 O335 1.208 . S
C330 O322 1.315 . S
C330 O325 1.279 . S
C331 O332 1.332 . S
C331 O333 1.229 1_554 S
O332 Cd324 2.223 1_554 S
O332 C331 1.332 . S
O333 Cd323 2.240 . S
O333 C331 1.229 1_556 S
O334 Cd324 2.297 . S
O334 C329 1.247 . S
O335 Cd324 2.439 . S
O335 C329 1.208 . S
O336 Cd337 2.223 . S
O336 C344 1.315 . S
Cd337 O336 2.223 . S
Cd337 O340 2.297 . S
Cd337 O341 2.439 . S
Cd337 O347 2.240 . S
Cd338 O339 2.240 . S
Cd338 O346 2.223 . S
Cd338 O348 2.297 . S
Cd338 O349 2.439 . S
O339 Cd338 2.240 . S
O339 C344 1.279 . S
O340 Cd337 2.297 . S
O340 C342 1.247 . S
O341 Cd337 2.439 . S
O341 C342 1.208 . S
C342 O340 1.247 . S
C342 O341 1.208 . S
C343 O348 1.247 . S
C343 O349 1.208 . S
C344 O336 1.315 . S
C344 O339 1.279 . S
C345 O346 1.315 . S
C345 O347 1.279 . S
O346 Cd338 2.223 . S
O346 C345 1.315 . S
O347 Cd337 2.240 . S
O347 C345 1.279 . S
O348 Cd338 2.297 . S
O348 C343 1.247 . S
O349 Cd338 2.439 . S
O349 C343 1.208 . S
O350 Cd351 2.223 . S
O350 C358 1.315 . S
Cd351 O350 2.223 . S
Cd351 O354 2.297 . S
Cd351 O355 2.439 . S
Cd351 O361 2.240 . S
Cd352 O353 2.240 . S
Cd352 O360 2.223 . S
Cd352 O362 2.297 . S
Cd352 O363 2.439 . S
O353 Cd352 2.240 . S
O353 C358 1.279 . S
O354 Cd351 2.297 . S
O354 C356 1.247 . S
O355 Cd351 2.439 . S
O355 C356 1.208 . S
C356 O354 1.247 . S
C356 O355 1.208 . S
C357 O362 1.247 . S
C357 O363 1.208 . S
C358 O350 1.315 . S
C358 O353 1.279 . S
C359 O360 1.315 . S
C359 O361 1.279 . S
O360 Cd352 2.223 . S
O360 C359 1.315 . S
O361 Cd351 2.240 . S
O361 C359 1.279 . S
O362 Cd352 2.297 . S
O362 C357 1.247 . S
O363 Cd352 2.439 . S
O363 C357 1.208 . S
O364 Cd365 2.223 . S
O364 C372 1.315 . S
Cd365 O364 2.223 . S
Cd365 O368 2.297 . S
Cd365 O369 2.439 . S
Cd365 O375 2.240 . S
Cd366 O367 2.240 . S
Cd366 O374 2.223 . S
Cd366 O376 2.297 . S
Cd366 O377 2.439 . S
O367 Cd366 2.240 . S
O367 C372 1.279 . S
O368 Cd365 2.297 . S
O368 C370 1.247 . S
O369 Cd365 2.439 . S
O369 C370 1.208 . S
C370 O368 1.247 . S
C370 O369 1.208 . S
C371 O376 1.247 . S
C371 O377 1.208 . S
C372 O364 1.315 . S
C372 O367 1.279 . S
C373 O374 1.315 . S
C373 O375 1.279 . S
O374 Cd366 2.223 . S
O374 C373 1.315 . S
O375 Cd365 2.240 . S
O375 C373 1.279 . S
O376 Cd366 2.297 . S
O376 C371 1.247 . S
O377 Cd366 2.439 . S
O377 C371 1.208 . S
O378 Cd379 2.223 . S
O378 C386 1.315 . S
Cd379 O378 2.223 . S
Cd379 O382 2.297 . S
Cd379 O383 2.439 . S
Cd379 O389 2.240 . S
Cd380 O381 2.240 . S
Cd380 O388 2.223 . S
Cd380 O390 2.297 . S
Cd380 O391 2.439 . S
O381 Cd380 2.240 . S
O381 C386 1.279 1_455 S
O382 Cd379 2.297 . S
O382 C384 1.247 . S
O383 Cd379 2.439 . S
O383 C384 1.208 . S
C384 O382 1.247 . S
C384 O383 1.208 . S
C385 O390 1.247 . S
C385 O391 1.208 . S
C386 O378 1.315 . S
C386 O381 1.279 1_655 S
C387 O388 1.315 1_655 S
C387 O389 1.279 . S
O388 Cd380 2.223 . S
O388 C387 1.315 1_455 S
O389 Cd379 2.240 . S
O389 C387 1.279 . S
O390 Cd380 2.297 . S
O390 C385 1.247 . S
O391 Cd380 2.439 . S
O391 C385 1.208 . S
O392 Cd393 2.223 . S
O392 C400 1.315 . S
Cd393 O392 2.223 . S
Cd393 O396 2.297 . S
Cd393 O397 2.439 . S
Cd393 O403 2.240 . S
Cd394 O395 2.240 . S
Cd394 O402 2.223 . S
Cd394 O404 2.297 . S
Cd394 O405 2.439 . S
O395 Cd394 2.240 . S
O395 C400 1.279 . S
O396 Cd393 2.297 . S
O396 C398 1.247 . S
O397 Cd393 2.439 . S
O397 C398 1.208 . S
C398 O396 1.247 . S
C398 O397 1.208 . S
C399 O404 1.247 . S
C399 O405 1.208 . S
C400 O392 1.315 . S
C400 O395 1.279 . S
C401 O402 1.315 . S
C401 O403 1.279 . S
O402 Cd394 2.223 . S
O402 C401 1.315 . S
O403 Cd393 2.240 . S
O403 C401 1.279 . S
O404 Cd394 2.297 . S
O404 C399 1.247 . S
O405 Cd394 2.439 . S
O405 C399 1.208 . S
O406 Cd407 2.223 . S
O406 C414 1.315 . S
Cd407 O406 2.223 . S
Cd407 O410 2.297 . S
Cd407 O411 2.439 . S
Cd407 O417 2.240 . S
Cd408 O409 2.240 . S
Cd408 O416 2.223 . S
Cd408 O418 2.297 . S
Cd408 O419 2.439 . S
O409 Cd408 2.240 . S
O409 C414 1.279 1_455 S
O410 Cd407 2.297 . S
O410 C412 1.247 . S
O411 Cd407 2.439 . S
O411 C412 1.208 . S
C412 O410 1.247 . S
C412 O411 1.208 . S
C413 O418 1.247 . S
C413 O419 1.208 . S
C414 O406 1.315 . S
C414 O409 1.279 1_655 S
C415 O416 1.315 1_655 S
C415 O417 1.279 . S
O416 Cd408 2.223 . S
O416 C415 1.315 1_455 S
O417 Cd407 2.240 . S
O417 C415 1.279 . S
O418 Cd408 2.297 . S
O418 C413 1.247 . S
O419 Cd408 2.439 . S
O419 C413 1.208 . S
O420 Cd421 2.223 . S
O420 C428 1.315 . S
Cd421 O420 2.223 . S
Cd421 O424 2.297 . S
Cd421 O425 2.439 . S
Cd421 O431 2.240 . S
Cd422 O423 2.240 . S
Cd422 O430 2.223 . S
Cd422 O432 2.297 . S
Cd422 O433 2.439 . S
O423 Cd422 2.240 . S
O423 C428 1.279 . S
O424 Cd421 2.297 . S
O424 C426 1.247 . S
O425 Cd421 2.439 . S
O425 C426 1.208 . S
C426 O424 1.247 . S
C426 O425 1.208 . S
C427 O432 1.247 . S
C427 O433 1.208 . S
C428 O420 1.315 . S
C428 O423 1.279 . S
C429 O430 1.315 . S
C429 O431 1.279 . S
O430 Cd422 2.223 . S
O430 C429 1.315 . S
O431 Cd421 2.240 . S
O431 C429 1.279 . S
O432 Cd422 2.297 . S
O432 C427 1.247 . S
O433 Cd422 2.439 . S
O433 C427 1.208 . S
O434 Cd435 2.223 . S
O434 C442 1.315 . S
Cd435 O434 2.223 . S
Cd435 O438 2.297 . S
Cd435 O439 2.439 . S
Cd435 O445 2.240 . S
Cd436 O437 2.240 . S
Cd436 O444 2.223 . S
Cd436 O446 2.297 . S
Cd436 O447 2.439 . S
O437 Cd436 2.240 . S
O437 C442 1.279 . S
O438 Cd435 2.297 . S
O438 C440 1.247 . S
O439 Cd435 2.439 . S
O439 C440 1.208 . S
C440 O438 1.247 . S
C440 O439 1.208 . S
C441 O446 1.247 . S
C441 O447 1.208 . S
C442 O434 1.315 . S
C442 O437 1.279 . S
C443 O444 1.315 . S
C443 O445 1.279 . S
O444 Cd436 2.223 . S
O444 C443 1.315 . S
O445 Cd435 2.240 . S
O445 C443 1.279 . S
O446 Cd436 2.297 . S
O446 C441 1.247 . S
O447 Cd436 2.439 . S
O447 C441 1.208 . S
O448 Cd449 2.223 . S
O448 C456 1.315 . S
Cd449 O448 2.223 . S
Cd449 O452 2.297 . S
Cd449 O453 2.439 . S
Cd449 O459 2.240 . S
Cd450 O451 2.240 . S
Cd450 O458 2.223 . S
Cd450 O460 2.297 . S
Cd450 O461 2.439 . S
O451 Cd450 2.240 . S
O451 C456 1.279 . S
O452 Cd449 2.297 . S
O452 C454 1.247 . S
O453 Cd449 2.439 . S
O453 C454 1.208 . S
C454 O452 1.247 . S
C454 O453 1.208 . S
C455 O460 1.247 . S
C455 O461 1.208 . S
C456 O448 1.315 . S
C456 O451 1.279 . S
C457 O458 1.315 . S
C457 O459 1.279 . S
O458 Cd450 2.223 . S
O458 C457 1.315 . S
O459 Cd449 2.240 . S
O459 C457 1.279 . S
O460 Cd450 2.297 . S
O460 C455 1.247 . S
O461 Cd450 2.439 . S
O461 C455 1.208 . S
O462 Cd463 2.223 . S
O462 C470 1.315 . S
Cd463 O462 2.223 . S
Cd463 O466 2.297 . S
Cd463 O467 2.439 . S
Cd463 O473 2.240 . S
Cd464 O465 2.240 . S
Cd464 O472 2.223 . S
Cd464 O474 2.297 . S
Cd464 O475 2.439 . S
O465 Cd464 2.240 . S
O465 C470 1.279 1_554 S
O466 Cd463 2.297 . S
O466 C468 1.247 . S
O467 Cd463 2.439 . S
O467 C468 1.208 . S
C468 O466 1.247 . S
C468 O467 1.208 . S
C469 O474 1.247 . S
C469 O475 1.208 . S
C470 O462 1.315 . S
C470 O465 1.279 1_556 S
C471 O472 1.315 1_556 S
C471 O473 1.279 . S
O472 Cd464 2.223 . S
O472 C471 1.315 1_554 S
O473 Cd463 2.240 . S
O473 C471 1.279 . S
O474 Cd464 2.297 . S
O474 C469 1.247 . S
O475 Cd464 2.439 . S
O475 C469 1.208 . S
O476 Cd477 2.223 . S
O476 C484 1.315 . S
Cd477 O476 2.223 . S
Cd477 O480 2.297 . S
Cd477 O481 2.439 . S
Cd477 O487 2.240 . S
Cd478 O479 2.240 . S
Cd478 O486 2.223 . S
Cd478 O488 2.297 . S
Cd478 O489 2.439 . S
O479 Cd478 2.240 . S
O479 C484 1.279 . S
O480 Cd477 2.297 . S
O480 C482 1.247 . S
O481 Cd477 2.439 . S
O481 C482 1.208 . S
C482 O480 1.247 . S
C482 O481 1.208 . S
C483 O488 1.247 . S
C483 O489 1.208 . S
C484 O476 1.315 . S
C484 O479 1.279 . S
C485 O486 1.315 . S
C485 O487 1.279 . S
O486 Cd478 2.223 . S
O486 C485 1.315 . S
O487 Cd477 2.240 . S
O487 C485 1.279 . S
O488 Cd478 2.297 . S
O488 C483 1.247 . S
O489 Cd478 2.439 . S
O489 C483 1.208 . S
O490 Cd491 2.223 . S
O490 C498 1.315 . S
Cd491 O490 2.223 . S
Cd491 O494 2.297 . S
Cd491 O495 2.439 . S
Cd491 O501 2.240 . S
Cd492 O493 2.240 . S
Cd492 O500 2.223 1_655 S
Cd492 O502 2.297 . S
Cd492 O503 2.439 . S
O493 Cd492 2.240 . S
O493 C498 1.279 . S
O494 Cd491 2.297 . S
O494 C496 1.247 . S
O495 Cd491 2.439 . S
O495 C496 1.208 . S
C496 O494 1.247 . S
C496 O495 1.208 . S
C497 O502 1.247 . S
C497 O503 1.208 . S
C498 O490 1.315 . S
C498 O493 1.279 . S
C499 O500 1.332 . S
C499 O501 1.229 1_455 S
O500 Cd492 2.223 1_455 S
O500 C499 1.332 . S
O501 Cd491 2.240 . S
O501 C499 1.229 1_655 S
O502 Cd492 2.297 . S
O502 C497 1.247 . S
O503 Cd492 2.439 . S
O503 C497 1.208 . S
O504 Cd505 2.223 . S
O504 C512 1.315 . S
Cd505 O504 2.223 . S
Cd505 O508 2.297 . S
Cd505 O509 2.439 . S
Cd505 O515 2.240 . S
Cd506 O507 2.240 . S
Cd506 O514 2.223 . S
Cd506 O516 2.297 . S
Cd506 O517 2.439 . S
O507 Cd506 2.240 . S
O507 C512 1.279 . S
O508 Cd505 2.297 . S
O508 C510 1.247 . S
O509 Cd505 2.439 . S
O509 C510 1.208 . S
C510 O508 1.247 . S
C510 O509 1.208 . S
C511 O516 1.247 . S
C511 O517 1.208 . S
C512 O504 1.315 . S
C512 O507 1.279 . S
C513 O514 1.315 . S
C513 O515 1.279 . S
O514 Cd506 2.223 . S
O514 C513 1.315 . S
O515 Cd505 2.240 . S
O515 C513 1.279 . S
O516 Cd506 2.297 . S
O516 C511 1.247 . S
O517 Cd506 2.439 . S
O517 C511 1.208 . S
O518 Cd519 2.223 . S
O518 C526 1.315 . S
Cd519 O518 2.223 . S
Cd519 O522 2.297 . S
Cd519 O523 2.439 . S
Cd519 O529 2.240 . S
Cd520 O521 2.240 . S
Cd520 O528 2.223 1_655 S
Cd520 O530 2.297 . S
Cd520 O531 2.439 . S
O521 Cd520 2.240 . S
O521 C526 1.279 1_556 S
O522 Cd519 2.297 . S
O522 C524 1.247 . S
O523 Cd519 2.439 . S
O523 C524 1.208 . S
C524 O522 1.247 . S
C524 O523 1.208 . S
C525 O530 1.247 . S
C525 O531 1.208 . S
C526 O518 1.315 . S
C526 O521 1.279 1_554 S
C527 O528 1.315 1_554 S
C527 O529 1.279 1_455 S
O528 Cd520 2.223 1_455 S
O528 C527 1.315 1_556 S
O529 Cd519 2.240 . S
O529 C527 1.279 1_655 S
O530 Cd520 2.297 . S
O530 C525 1.247 . S
O531 Cd520 2.439 . S
O531 C525 1.208 . S
O532 Cd533 2.223 . S
O532 C540 1.315 . S
Cd533 O532 2.223 . S
Cd533 O536 2.297 . S
Cd533 O537 2.439 . S
Cd533 O543 2.240 . S
Cd534 O535 2.240 . S
Cd534 O542 2.223 . S
Cd534 O544 2.297 . S
Cd534 O545 2.439 . S
O535 Cd534 2.240 . S
O535 C540 1.279 . S
O536 Cd533 2.297 . S
O536 C538 1.247 . S
O537 Cd533 2.439 . S
O537 C538 1.208 . S
C538 O536 1.247 . S
C538 O537 1.208 . S
C539 O544 1.247 . S
C539 O545 1.208 . S
C540 O532 1.315 . S
C540 O535 1.279 . S
C541 O542 1.315 . S
C541 O543 1.279 . S
O542 Cd534 2.223 . S
O542 C541 1.315 . S
O543 Cd533 2.240 . S
O543 C541 1.279 . S
O544 Cd534 2.297 . S
O544 C539 1.247 . S
O545 Cd534 2.439 . S
O545 C539 1.208 . S
O546 Cd547 2.223 . S
O546 C554 1.315 . S
Cd547 O546 2.223 . S
Cd547 O550 2.297 . S
Cd547 O551 2.439 . S
Cd547 O557 2.240 . S
Cd548 O549 2.240 . S
Cd548 O556 2.223 . S
Cd548 O558 2.297 . S
Cd548 O559 2.439 . S
O549 Cd548 2.240 . S
O549 C554 1.279 . S
O550 Cd547 2.297 . S
O550 C552 1.247 . S
O551 Cd547 2.439 . S
O551 C552 1.208 . S
C552 O550 1.247 . S
C552 O551 1.208 . S
C553 O558 1.247 . S
C553 O559 1.208 . S
C554 O546 1.315 . S
C554 O549 1.279 . S
C555 O556 1.315 . S
C555 O557 1.279 . S
O556 Cd548 2.223 . S
O556 C555 1.315 . S
O557 Cd547 2.240 . S
O557 C555 1.279 . S
O558 Cd548 2.297 . S
O558 C553 1.247 . S
O559 Cd548 2.439 . S
O559 C553 1.208 . S
O560 Cd561 2.223 . S
O560 C568 1.315 . S
Cd561 O560 2.223 . S
Cd561 O564 2.297 . S
Cd561 O565 2.439 . S
Cd561 O571 2.240 . S
Cd562 O563 2.240 . S
Cd562 O570 2.223 . S
Cd562 O572 2.297 . S
Cd562 O573 2.439 . S
O563 Cd562 2.240 . S
O563 C568 1.279 . S
O564 Cd561 2.297 . S
O564 C566 1.247 . S
O565 Cd561 2.439 . S
O565 C566 1.208 . S
C566 O564 1.247 . S
C566 O565 1.208 . S
C567 O572 1.247 . S
C567 O573 1.208 . S
C568 O560 1.315 . S
C568 O563 1.279 . S
C569 O570 1.315 . S
C569 O571 1.279 . S
O570 Cd562 2.223 . S
O570 C569 1.315 . S
O571 Cd561 2.240 . S
O571 C569 1.279 . S
O572 Cd562 2.297 . S
O572 C567 1.247 . S
O573 Cd562 2.439 . S
O573 C567 1.208 . S
O574 Cd575 2.223 . S
O574 C582 1.315 . S
Cd575 O574 2.223 . S
Cd575 O578 2.297 . S
Cd575 O579 2.439 . S
Cd575 O585 2.240 . S
Cd576 O577 2.240 . S
Cd576 O584 2.223 . S
Cd576 O586 2.297 . S
Cd576 O587 2.439 . S
O577 Cd576 2.240 . S
O577 C582 1.279 . S
O578 Cd575 2.297 . S
O578 C580 1.247 . S
O579 Cd575 2.439 . S
O579 C580 1.208 . S
C580 O578 1.247 . S
C580 O579 1.208 . S
C581 O586 1.247 . S
C581 O587 1.208 . S
C582 O574 1.315 . S
C582 O577 1.279 . S
C583 O584 1.315 . S
C583 O585 1.279 . S
O584 Cd576 2.223 . S
O584 C583 1.315 . S
O585 Cd575 2.240 . S
O585 C583 1.279 . S
O586 Cd576 2.297 . S
O586 C581 1.247 . S
O587 Cd576 2.439 . S
O587 C581 1.208 . S
O588 Cd589 2.223 . S
O588 C596 1.315 . S
Cd589 O588 2.223 . S
Cd589 O592 2.297 . S
Cd589 O593 2.439 . S
Cd589 O599 2.240 . S
Cd590 O591 2.240 . S
Cd590 O598 2.223 . S
Cd590 O600 2.297 . S
Cd590 O601 2.439 . S
O591 Cd590 2.240 . S
O591 C596 1.279 1_545 S
O592 Cd589 2.297 . S
O592 C594 1.247 . S
O593 Cd589 2.439 . S
O593 C594 1.208 . S
C594 O592 1.247 . S
C594 O593 1.208 . S
C595 O600 1.247 . S
C595 O601 1.208 . S
C596 O588 1.315 . S
C596 O591 1.279 1_565 S
C597 O598 1.315 1_565 S
C597 O599 1.279 . S
O598 Cd590 2.223 . S
O598 C597 1.315 1_545 S
O599 Cd589 2.240 . S
O599 C597 1.279 . S
O600 Cd590 2.297 . S
O600 C595 1.247 . S
O601 Cd590 2.439 . S
O601 C595 1.208 . S
O602 Cd603 2.223 . S
O602 C610 1.315 . S
Cd603 O602 2.223 . S
Cd603 O606 2.297 . S
Cd603 O607 2.439 . S
Cd603 O613 2.240 . S
Cd604 O605 2.240 . S
Cd604 O612 2.223 . S
Cd604 O614 2.297 . S
Cd604 O615 2.439 . S
O605 Cd604 2.240 . S
O605 C610 1.279 . S
O606 Cd603 2.297 . S
O606 C608 1.247 . S
O607 Cd603 2.439 . S
O607 C608 1.208 . S
C608 O606 1.247 . S
C608 O607 1.208 . S
C609 O614 1.247 . S
C609 O615 1.208 . S
C610 O602 1.315 . S
C610 O605 1.279 . S
C611 O612 1.315 . S
C611 O613 1.279 . S
O612 Cd604 2.223 . S
O612 C611 1.315 . S
O613 Cd603 2.240 . S
O613 C611 1.279 . S
O614 Cd604 2.297 . S
O614 C609 1.247 . S
O615 Cd604 2.439 . S
O615 C609 1.208 . S
O616 Cd617 2.223 . S
O616 C624 1.315 . S
Cd617 O616 2.223 . S
Cd617 O620 2.297 . S
Cd617 O621 2.439 . S
Cd617 O627 2.240 . S
Cd618 O619 2.240 . S
Cd618 O626 2.223 . S
Cd618 O628 2.297 . S
Cd618 O629 2.439 . S
O619 Cd618 2.240 . S
O619 C624 1.279 . S
O620 Cd617 2.297 . S
O620 C622 1.247 . S
O621 Cd617 2.439 . S
O621 C622 1.208 . S
C622 O620 1.247 . S
C622 O621 1.208 . S
C623 O628 1.247 . S
C623 O629 1.208 . S
C624 O616 1.315 . S
C624 O619 1.279 . S
C625 O626 1.315 . S
C625 O627 1.279 . S
O626 Cd618 2.223 . S
O626 C625 1.315 . S
O627 Cd617 2.240 . S
O627 C625 1.279 . S
O628 Cd618 2.297 . S
O628 C623 1.247 . S
O629 Cd618 2.439 . S
O629 C623 1.208 . S
O630 Cd631 2.223 . S
O630 C638 1.315 . S
Cd631 O630 2.223 . S
Cd631 O634 2.297 . S
Cd631 O635 2.439 . S
Cd631 O641 2.240 . S
Cd632 O633 2.240 . S
Cd632 O640 2.223 . S
Cd632 O642 2.297 . S
Cd632 O643 2.439 . S
O633 Cd632 2.240 . S
O633 C638 1.279 . S
O634 Cd631 2.297 . S
O634 C636 1.247 . S
O635 Cd631 2.439 . S
O635 C636 1.208 . S
C636 O634 1.247 . S
C636 O635 1.208 . S
C637 O642 1.247 . S
C637 O643 1.208 . S
C638 O630 1.315 . S
C638 O633 1.279 . S
C639 O640 1.315 . S
C639 O641 1.279 . S
O640 Cd632 2.223 . S
O640 C639 1.315 . S
O641 Cd631 2.240 . S
O641 C639 1.279 . S
O642 Cd632 2.297 . S
O642 C637 1.247 . S
O643 Cd632 2.439 . S
O643 C637 1.208 . S
O644 Cd645 2.223 . S
O644 C652 1.315 . S
Cd645 O644 2.223 . S
Cd645 O648 2.297 . S
Cd645 O649 2.439 . S
Cd645 O655 2.240 . S
Cd646 O647 2.240 . S
Cd646 O654 2.223 1_556 S
Cd646 O656 2.297 . S
Cd646 O657 2.439 . S
O647 Cd646 2.240 . S
O647 C652 1.279 1_565 S
O648 Cd645 2.297 . S
O648 C650 1.247 . S
O649 Cd645 2.439 . S
O649 C650 1.208 . S
C650 O648 1.247 . S
C650 O649 1.208 . S
C651 O656 1.247 . S
C651 O657 1.208 . S
C652 O644 1.315 . S
C652 O647 1.279 1_545 S
C653 O654 1.315 1_545 S
C653 O655 1.279 1_554 S
O654 Cd646 2.223 1_554 S
O654 C653 1.315 1_565 S
O655 Cd645 2.240 . S
O655 C653 1.279 1_556 S
O656 Cd646 2.297 . S
O656 C651 1.247 . S
O657 Cd646 2.439 . S
O657 C651 1.208 . S
O658 Cd659 2.223 . S
O658 C666 1.315 . S
Cd659 O658 2.223 . S
Cd659 O662 2.297 . S
Cd659 O663 2.439 . S
Cd659 O669 2.240 . S
Cd660 O661 2.240 . S
Cd660 O668 2.223 . S
Cd660 O670 2.297 . S
Cd660 O671 2.439 . S
O661 Cd660 2.240 . S
O661 C666 1.279 1_545 S
O662 Cd659 2.297 . S
O662 C664 1.247 . S
O663 Cd659 2.439 . S
O663 C664 1.208 . S
C664 O662 1.247 . S
C664 O663 1.208 . S
C665 O670 1.247 . S
C665 O671 1.208 . S
C666 O658 1.315 . S
C666 O661 1.279 1_565 S
C667 O668 1.315 1_565 S
C667 O669 1.279 . S
O668 Cd660 2.223 . S
O668 C667 1.315 1_545 S
O669 Cd659 2.240 . S
O669 C667 1.279 . S
O670 Cd660 2.297 . S
O670 C665 1.247 . S
O671 Cd660 2.439 . S
O671 C665 1.208 . S
H672 C684 0.930 . S
H673 C686 0.930 . S
H674 C687 0.930 . S
H675 C691 0.959 . S
H676 C691 0.959 . S
H677 C691 0.961 . S
H678 C692 0.960 . S
H679 C692 0.961 . S
H680 C692 0.959 . S
H681 C695 0.929 . S
H682 C696 0.931 . S
H683 C698 0.930 . S
C684 H672 0.930 . S
C684 C685 1.399 . S
C684 C689 1.399 . S
C685 C684 1.399 . S
C685 C686 1.376 . S
C686 H673 0.930 . S
C686 C685 1.376 . S
C686 C687 1.388 . S
C687 H674 0.930 . S
C687 C686 1.388 . S
C687 C688 1.390 . S
C688 C687 1.390 . S
C688 C689 1.394 . S
C688 C694 1.465 . S
C689 C684 1.399 . S
C689 C688 1.394 . S
C689 C690 1.516 . S
C690 C689 1.516 . S
C690 C691 1.502 . S
C690 C692 1.561 . S
C690 C693 1.526 . S
C691 H675 0.959 . S
C691 H676 0.959 . S
C691 H677 0.961 . S
C691 C690 1.502 . S
C692 H678 0.960 . S
C692 H679 0.961 . S
C692 H680 0.959 . S
C692 C690 1.561 . S
C693 C690 1.526 . S
C693 C694 1.396 . S
C693 C698 1.390 . S
C694 C688 1.465 . S
C694 C693 1.396 . S
C694 C695 1.399 . S
C695 H681 0.929 . S
C695 C694 1.399 . S
C695 C696 1.385 . S
C696 H682 0.931 . S
C696 C695 1.385 . S
C696 C697 1.389 . S
C697 C696 1.389 . S
C697 C698 1.387 . S
C698 H683 0.930 . S
C698 C693 1.390 . S
C698 C697 1.387 . S
H699 C711 0.930 . S
H700 C713 0.930 . S
H701 C714 0.930 . S
H702 C718 0.959 . S
H703 C718 0.959 . S
H704 C718 0.961 . S
H705 C719 0.960 . S
H706 C719 0.961 . S
H707 C719 0.959 1_655 S
H708 C722 0.929 . S
H709 C723 0.931 . S
H710 C725 0.930 . S
C711 H699 0.930 . S
C711 C712 1.401 1_445 S
C711 C716 1.399 . S
C712 C711 1.401 1_665 S
C712 C713 1.374 . S
C713 H700 0.930 . S
C713 C712 1.374 . S
C713 C714 1.388 . S
C714 H701 0.930 . S
C714 C713 1.388 . S
C714 C715 1.390 . S
C715 C714 1.390 . S
C715 C716 1.394 1_665 S
C715 C721 1.465 . S
C716 C711 1.399 . S
C716 C715 1.394 1_445 S
C716 C717 1.516 . S
C717 C716 1.516 . S
C717 C718 1.502 . S
C717 C719 1.561 . S
C717 C720 1.526 . S
C718 H702 0.959 . S
C718 H703 0.959 . S
C718 H704 0.961 . S
C718 C717 1.502 . S
C719 H705 0.960 . S
C719 H706 0.961 . S
C719 H707 0.959 1_455 S
C719 C717 1.561 . S
C720 C717 1.526 . S
C720 C721 1.396 1_445 S
C720 C725 1.390 . S
C721 C715 1.465 . S
C721 C720 1.396 1_665 S
C721 C722 1.399 . S
C722 H708 0.929 . S
C722 C721 1.399 . S
C722 C723 1.385 . S
C723 H709 0.931 . S
C723 C722 1.385 . S
C723 C724 1.375 1_665 S
C724 C723 1.375 1_445 S
C724 C725 1.397 . S
C725 H710 0.930 . S
C725 C720 1.390 . S
C725 C724 1.397 . S
H726 C738 0.930 . S
H727 C740 0.930 . S
H728 C741 0.930 . S
H729 C745 0.959 . S
H730 C745 0.959 . S
H731 C745 0.961 1_556 S
H732 C746 0.957 . S
H733 C746 0.964 1_554 S
H734 C746 0.958 . S
H735 C749 0.929 . S
H736 C750 0.931 . S
H737 C752 0.930 . S
C738 H726 0.930 . S
C738 C739 1.399 . S
C738 C743 1.399 . S
C739 C738 1.399 . S
C739 C740 1.376 . S
C740 H727 0.930 . S
C740 C739 1.376 . S
C740 C741 1.388 . S
C741 H728 0.930 . S
C741 C740 1.388 . S
C741 C742 1.390 . S
C742 C741 1.390 . S
C742 C743 1.394 . S
C742 C748 1.465 1_556 S
C743 C738 1.399 . S
C743 C742 1.394 . S
C743 C744 1.516 1_556 S
C744 C743 1.516 1_554 S
C744 C745 1.502 . S
C744 C746 1.562 1_554 S
C744 C747 1.526 . S
C745 H729 0.959 . S
C745 H730 0.959 . S
C745 H731 0.961 1_554 S
C745 C744 1.502 . S
C746 H732 0.957 . S
C746 H733 0.964 1_556 S
C746 H734 0.958 . S
C746 C744 1.562 1_556 S
C747 C744 1.526 . S
C747 C748 1.396 . S
C747 C752 1.390 . S
C748 C742 1.465 1_554 S
C748 C747 1.396 . S
C748 C749 1.399 . S
C749 H735 0.929 . S
C749 C748 1.399 . S
C749 C750 1.385 . S
C750 H736 0.931 . S
C750 C749 1.385 . S
C750 C751 1.389 . S
C751 C750 1.389 . S
C751 C752 1.387 . S
C752 H737 0.930 . S
C752 C747 1.390 . S
C752 C751 1.387 . S
H753 C765 0.930 . S
H754 C767 0.930 . S
H755 C768 0.930 . S
H756 C772 0.959 . S
H757 C772 0.959 . S
H758 C772 0.961 . S
H759 C773 0.960 . S
H760 C773 0.961 . S
H761 C773 0.959 . S
H762 C776 0.929 . S
H763 C777 0.931 . S
H764 C779 0.930 . S
C765 H753 0.930 . S
C765 C766 1.399 1_545 S
C765 C770 1.399 . S
C766 C765 1.399 1_565 S
C766 C767 1.376 . S
C767 H754 0.930 . S
C767 C766 1.376 . S
C767 C768 1.388 . S
C768 H755 0.930 . S
C768 C767 1.388 . S
C768 C769 1.390 . S
C769 C768 1.390 . S
C769 C770 1.394 1_565 S
C769 C775 1.465 . S
C770 C765 1.399 . S
C770 C769 1.394 1_545 S
C770 C771 1.516 . S
C771 C770 1.516 . S
C771 C772 1.502 . S
C771 C773 1.561 . S
C771 C774 1.526 . S
C772 H756 0.959 . S
C772 H757 0.959 . S
C772 H758 0.961 . S
C772 C771 1.502 . S
C773 H759 0.960 . S
C773 H760 0.961 . S
C773 H761 0.959 . S
C773 C771 1.561 . S
C774 C771 1.526 . S
C774 C775 1.396 1_545 S
C774 C779 1.390 . S
C775 C769 1.465 . S
C775 C774 1.396 1_565 S
C775 C776 1.399 . S
C776 H762 0.929 . S
C776 C775 1.399 . S
C776 C777 1.385 . S
C777 H763 0.931 . S
C777 C776 1.385 . S
C777 C778 1.389 1_565 S
C778 C777 1.389 1_545 S
C778 C779 1.387 . S
C779 H764 0.930 . S
C779 C774 1.390 . S
C779 C778 1.387 . S
H780 C792 0.930 . S
H781 C794 0.930 . S
H782 C795 0.930 . S
H783 C799 0.959 . S
H784 C799 0.959 . S
H785 C799 0.961 . S
H786 C800 0.960 . S
H787 C800 0.961 . S
H788 C800 0.959 . S
H789 C803 0.929 . S
H790 C804 0.931 . S
H791 C806 0.930 . S
C792 H780 0.930 . S
C792 C793 1.399 . S
C792 C797 1.399 . S
C793 C792 1.399 . S
C793 C794 1.376 . S
C794 H781 0.930 . S
C794 C793 1.376 . S
C794 C795 1.388 . S
C795 H782 0.930 . S
C795 C794 1.388 . S
C795 C796 1.390 . S
C796 C795 1.390 . S
C796 C797 1.394 . S
C796 C802 1.465 . S
C797 C792 1.399 . S
C797 C796 1.394 . S
C797 C798 1.516 . S
C798 C797 1.516 . S
C798 C799 1.502 . S
C798 C800 1.561 . S
C798 C801 1.526 . S
C799 H783 0.959 . S
C799 H784 0.959 . S
C799 H785 0.961 . S
C799 C798 1.502 . S
C800 H786 0.960 . S
C800 H787 0.961 . S
C800 H788 0.959 . S
C800 C798 1.561 . S
C801 C798 1.526 . S
C801 C802 1.396 . S
C801 C806 1.390 . S
C802 C796 1.465 . S
C802 C801 1.396 . S
C802 C803 1.399 . S
C803 H789 0.929 . S
C803 C802 1.399 . S
C803 C804 1.385 . S
C804 H790 0.931 . S
C804 C803 1.385 . S
C804 C805 1.389 . S
C805 C804 1.389 . S
C805 C806 1.387 . S
C806 H791 0.930 . S
C806 C801 1.390 . S
C806 C805 1.387 . S
H807 C819 0.930 1_455 S
H808 C821 0.930 . S
H809 C822 0.930 . S
H810 C826 0.959 . S
H811 C826 0.959 . S
H812 C826 0.961 . S
H813 C827 0.960 . S
H814 C827 0.979 . S
H815 C827 0.959 . S
H816 C830 0.929 . S
H817 C831 0.931 . S
H818 C833 0.930 . S
C819 H807 0.930 1_655 S
C819 C820 1.399 . S
C819 C824 1.399 . S
C820 C819 1.399 . S
C820 C821 1.376 . S
C821 H808 0.930 . S
C821 C820 1.376 . S
C821 C822 1.388 . S
C822 H809 0.930 . S
C822 C821 1.388 . S
C822 C823 1.390 . S
C823 C822 1.390 . S
C823 C824 1.394 . S
C823 C829 1.465 . S
C824 C819 1.399 . S
C824 C823 1.394 . S
C824 C825 1.516 1_655 S
C825 C824 1.516 1_455 S
C825 C826 1.502 . S
C825 C827 1.561 1_455 S
C825 C828 1.526 . S
C826 H810 0.959 . S
C826 H811 0.959 . S
C826 H812 0.961 . S
C826 C825 1.502 . S
C827 H813 0.960 . S
C827 H814 0.979 . S
C827 H815 0.959 . S
C827 C825 1.561 1_655 S
C828 C825 1.526 . S
C828 C829 1.396 1_455 S
C828 C833 1.390 . S
C829 C823 1.465 . S
C829 C828 1.396 1_655 S
C829 C830 1.399 . S
C830 H816 0.929 . S
C830 C829 1.399 . S
C830 C831 1.385 . S
C831 H817 0.931 . S
C831 C830 1.385 . S
C831 C832 1.389 1_655 S
C832 C831 1.389 1_455 S
C832 C833 1.387 . S
C833 H818 0.930 . S
C833 C828 1.390 . S
C833 C832 1.387 . S
H834 C846 0.930 . S
H835 C848 0.930 . S
H836 C849 0.930 . S
H837 C853 0.959 . S
H838 C853 0.959 1_655 S
H839 C853 0.961 . S
H840 C854 0.960 1_455 S
H841 C854 0.961 . S
H842 C854 0.959 . S
H843 C857 0.929 . S
H844 C858 0.931 . S
H845 C860 0.930 . S
C846 H834 0.930 . S
C846 C847 1.399 . S
C846 C851 1.399 . S
C847 C846 1.399 . S
C847 C848 1.376 . S
C848 H835 0.930 . S
C848 C847 1.376 . S
C848 C849 1.388 . S
C849 H836 0.930 . S
C849 C848 1.388 . S
C849 C850 1.390 . S
C850 C849 1.390 . S
C850 C851 1.394 . S
C850 C856 1.465 1_455 S
C851 C846 1.399 . S
C851 C850 1.394 . S
C851 C852 1.528 . S
C852 C851 1.528 . S
C852 C853 1.504 . S
C852 C854 1.559 1_455 S
C852 C855 1.514 1_455 S
C853 H837 0.959 . S
C853 H838 0.959 1_455 S
C853 H839 0.961 . S
C853 C852 1.504 . S
C854 H840 0.960 1_655 S
C854 H841 0.961 . S
C854 H842 0.959 . S
C854 C852 1.559 1_655 S
C855 C852 1.514 1_655 S
C855 C856 1.396 . S
C855 C860 1.390 . S
C856 C850 1.465 1_655 S
C856 C855 1.396 . S
C856 C857 1.399 . S
C857 H843 0.929 . S
C857 C856 1.399 . S
C857 C858 1.385 . S
C858 H844 0.931 . S
C858 C857 1.385 . S
C858 C859 1.389 . S
C859 C858 1.389 . S
C859 C860 1.387 . S
C860 H845 0.930 . S
C860 C855 1.390 . S
C860 C859 1.387 . S
H861 C873 0.930 . S
H862 C875 0.930 . S
H863 C876 0.930 . S
H864 C880 0.959 . S
H865 C880 0.959 . S
H866 C880 0.961 . S
H867 C881 0.960 . S
H868 C881 0.961 . S
H869 C881 0.959 . S
H870 C884 0.929 . S
H871 C885 0.931 . S
H872 C887 0.930 . S
C873 H861 0.930 . S
C873 C874 1.399 1_554 S
C873 C878 1.399 . S
C874 C873 1.399 1_556 S
C874 C875 1.376 . S
C875 H862 0.930 . S
C875 C874 1.376 . S
C875 C876 1.388 . S
C876 H863 0.930 . S
C876 C875 1.388 . S
C876 C877 1.390 . S
C877 C876 1.390 . S
C877 C878 1.394 1_556 S
C877 C883 1.465 . S
C878 C873 1.399 . S
C878 C877 1.394 1_554 S
C878 C879 1.516 . S
C879 C878 1.516 . S
C879 C880 1.502 . S
C879 C881 1.561 . S
C879 C882 1.526 . S
C880 H864 0.959 . S
C880 H865 0.959 . S
C880 H866 0.961 . S
C880 C879 1.502 . S
C881 H867 0.960 . S
C881 H868 0.961 . S
C881 H869 0.959 . S
C881 C879 1.561 . S
C882 C879 1.526 . S
C882 C883 1.396 1_554 S
C882 C887 1.390 . S
C883 C877 1.465 . S
C883 C882 1.396 1_556 S
C883 C884 1.399 . S
C884 H870 0.929 . S
C884 C883 1.399 . S
C884 C885 1.385 . S
C885 H871 0.931 . S
C885 C884 1.385 . S
C885 C886 1.389 . S
C886 C885 1.389 . S
C886 C887 1.387 1_556 S
C887 H872 0.930 . S
C887 C882 1.390 . S
C887 C886 1.387 1_554 S
H888 C900 0.930 . S
H889 C902 0.930 . S
H890 C903 0.930 . S
H891 C907 0.959 . S
H892 C907 0.959 . S
H893 C907 0.961 . S
H894 C908 0.960 . S
H895 C908 0.961 . S
H896 C908 0.959 . S
H897 C911 0.929 . S
H898 C912 0.931 . S
H899 C914 0.930 . S
C900 H888 0.930 . S
C900 C901 1.399 . S
C900 C905 1.399 . S
C901 C900 1.399 . S
C901 C902 1.376 . S
C902 H889 0.930 . S
C902 C901 1.376 . S
C902 C903 1.388 . S
C903 H890 0.930 . S
C903 C902 1.388 . S
C903 C904 1.390 . S
C904 C903 1.390 . S
C904 C905 1.394 . S
C904 C910 1.465 . S
C905 C900 1.399 . S
C905 C904 1.394 . S
C905 C906 1.516 . S
C906 C905 1.516 . S
C906 C907 1.502 . S
C906 C908 1.561 . S
C906 C909 1.526 . S
C907 H891 0.959 . S
C907 H892 0.959 . S
C907 H893 0.961 . S
C907 C906 1.502 . S
C908 H894 0.960 . S
C908 H895 0.961 . S
C908 H896 0.959 . S
C908 C906 1.561 . S
C909 C906 1.526 . S
C909 C910 1.396 . S
C909 C914 1.390 . S
C910 C904 1.465 . S
C910 C909 1.396 . S
C910 C911 1.399 . S
C911 H897 0.929 . S
C911 C910 1.399 . S
C911 C912 1.385 . S
C912 H898 0.931 . S
C912 C911 1.385 . S
C912 C913 1.389 . S
C913 C912 1.389 . S
C913 C914 1.387 . S
C914 H899 0.930 . S
C914 C909 1.390 . S
C914 C913 1.387 . S
H915 C927 0.930 . S
H916 C929 0.930 . S
H917 C930 0.930 . S
H918 C934 0.959 . S
H919 C934 0.959 . S
H920 C934 0.961 . S
H921 C935 0.960 . S
H922 C935 0.961 . S
H923 C935 0.959 . S
H924 C938 0.929 . S
H925 C939 0.931 . S
H926 C941 0.930 . S
C927 H915 0.930 . S
C927 C928 1.399 . S
C927 C932 1.399 . S
C928 C927 1.399 . S
C928 C929 1.376 . S
C929 H916 0.930 . S
C929 C928 1.376 . S
C929 C930 1.388 . S
C930 H917 0.930 . S
C930 C929 1.388 . S
C930 C931 1.390 . S
C931 C930 1.390 . S
C931 C932 1.394 . S
C931 C937 1.465 . S
C932 C927 1.399 . S
C932 C931 1.394 . S
C932 C933 1.516 . S
C933 C932 1.516 . S
C933 C934 1.502 . S
C933 C935 1.561 . S
C933 C936 1.526 . S
C934 H918 0.959 . S
C934 H919 0.959 . S
C934 H920 0.961 . S
C934 C933 1.502 . S
C935 H921 0.960 . S
C935 H922 0.961 . S
C935 H923 0.959 . S
C935 C933 1.561 . S
C936 C933 1.526 . S
C936 C937 1.396 . S
C936 C941 1.390 . S
C937 C931 1.465 . S
C937 C936 1.396 . S
C937 C938 1.399 . S
C938 H924 0.929 . S
C938 C937 1.399 . S
C938 C939 1.385 . S
C939 H925 0.931 . S
C939 C938 1.385 . S
C939 C940 1.389 . S
C940 C939 1.389 . S
C940 C941 1.387 . S
C941 H926 0.930 . S
C941 C936 1.390 . S
C941 C940 1.387 . S
H942 C954 0.930 . S
H943 C956 0.930 . S
H944 C957 0.930 . S
H945 C961 0.959 . S
H946 C961 0.959 1_455 S
H947 C961 0.961 . S
H948 C962 0.960 1_655 S
H949 C962 0.961 . S
H950 C962 0.959 . S
H951 C965 0.929 . S
H952 C966 0.931 . S
H953 C968 0.930 . S
C954 H942 0.930 . S
C954 C955 1.399 . S
C954 C959 1.399 . S
C955 C954 1.399 . S
C955 C956 1.376 . S
C956 H943 0.930 . S
C956 C955 1.376 . S
C956 C957 1.388 . S
C957 H944 0.930 . S
C957 C956 1.388 . S
C957 C958 1.390 . S
C958 C957 1.390 . S
C958 C959 1.394 . S
C958 C964 1.465 1_655 S
C959 C954 1.399 . S
C959 C958 1.394 . S
C959 C960 1.523 . S
C960 C959 1.523 . S
C960 C961 1.503 . S
C960 C962 1.560 1_655 S
C960 C963 1.518 1_655 S
C961 H945 0.959 . S
C961 H946 0.959 1_655 S
C961 H947 0.961 . S
C961 C960 1.503 . S
C962 H948 0.960 1_455 S
C962 H949 0.961 . S
C962 H950 0.959 . S
C962 C960 1.560 1_455 S
C963 C960 1.518 1_455 S
C963 C964 1.396 . S
C963 C968 1.390 . S
C964 C958 1.465 1_455 S
C964 C963 1.396 . S
C964 C965 1.399 . S
C965 H951 0.929 . S
C965 C964 1.399 . S
C965 C966 1.385 . S
C966 H952 0.931 . S
C966 C965 1.385 . S
C966 C967 1.389 . S
C967 C966 1.389 . S
C967 C968 1.387 . S
C968 H953 0.930 . S
C968 C963 1.390 . S
C968 C967 1.387 . S
H969 C981 0.930 . S
H970 C983 0.924 1_455 S
H971 C984 0.930 . S
H972 C988 0.959 . S
H973 C988 0.959 . S
H974 C988 0.961 . S
H975 C989 0.960 . S
H976 C989 0.961 . S
H977 C989 0.959 . S
H978 C992 0.929 . S
H979 C993 0.931 . S
H980 C995 0.941 . S
C981 H969 0.930 . S
C981 C982 1.410 . S
C981 C986 1.399 . S
C982 C981 1.410 . S
C982 C983 1.383 1_554 S
C983 H970 0.924 1_655 S
C983 C982 1.383 1_556 S
C983 C984 1.376 1_655 S
C984 H971 0.930 . S
C984 C983 1.376 1_455 S
C984 C985 1.390 . S
C985 C984 1.390 . S
C985 C986 1.394 1_456 S
C985 C991 1.465 . S
C986 C981 1.399 . S
C986 C985 1.394 1_654 S
C986 C987 1.516 . S
C987 C986 1.516 . S
C987 C988 1.502 . S
C987 C989 1.561 1_655 S
C987 C990 1.526 1_655 S
C988 H972 0.959 . S
C988 H973 0.959 . S
C988 H974 0.961 . S
C988 C987 1.502 . S
C989 H975 0.960 . S
C989 H976 0.961 . S
C989 H977 0.959 . S
C989 C987 1.561 1_455 S
C990 C987 1.526 1_455 S
C990 C991 1.396 1_554 S
C990 C995 1.390 . S
C991 C985 1.465 . S
C991 C990 1.396 1_556 S
C991 C992 1.399 . S
C992 H978 0.929 . S
C992 C991 1.399 . S
C992 C993 1.385 . S
C993 H979 0.931 . S
C993 C992 1.385 . S
C993 C994 1.392 1_556 S
C994 C993 1.392 1_554 S
C994 C995 1.384 . S
C995 H980 0.941 . S
C995 C990 1.390 . S
C995 C994 1.384 . S
H996 C1008 0.930 . S
H997 C1010 0.930 . S
H998 C1011 0.930 . S
H999 C1015 0.959 . S
H1000 C1015 0.959 . S
H1001 C1015 0.961 . S
H1002 C1016 0.960 . S
H1003 C1016 0.961 . S
H1004 C1016 0.959 . S
H1005 C1019 0.929 . S
H1006 C1020 0.931 . S
H1007 C1022 0.930 . S
C1008 H996 0.930 . S
C1008 C1009 1.399 . S
C1008 C1013 1.399 . S
C1009 C1008 1.399 . S
C1009 C1010 1.376 . S
C1010 H997 0.930 . S
C1010 C1009 1.376 . S
C1010 C1011 1.388 . S
C1011 H998 0.930 . S
C1011 C1010 1.388 . S
C1011 C1012 1.390 . S
C1012 C1011 1.390 . S
C1012 C1013 1.394 . S
C1012 C1018 1.465 . S
C1013 C1008 1.399 . S
C1013 C1012 1.394 . S
C1013 C1014 1.516 . S
C1014 C1013 1.516 . S
C1014 C1015 1.502 . S
C1014 C1016 1.561 . S
C1014 C1017 1.526 . S
C1015 H999 0.959 . S
C1015 H1000 0.959 . S
C1015 H1001 0.961 . S
C1015 C1014 1.502 . S
C1016 H1002 0.960 . S
C1016 H1003 0.961 . S
C1016 H1004 0.959 . S
C1016 C1014 1.561 . S
C1017 C1014 1.526 . S
C1017 C1018 1.396 . S
C1017 C1022 1.390 . S
C1018 C1012 1.465 . S
C1018 C1017 1.396 . S
C1018 C1019 1.399 . S
C1019 H1005 0.929 . S
C1019 C1018 1.399 . S
C1019 C1020 1.385 . S
C1020 H1006 0.931 . S
C1020 C1019 1.385 . S
C1020 C1021 1.389 . S
C1021 C1020 1.389 . S
C1021 C1022 1.387 . S
C1022 H1007 0.930 . S
C1022 C1017 1.390 . S
C1022 C1021 1.387 . S
H1023 C1035 0.930 . S
H1024 C1037 0.930 . S
H1025 C1038 0.930 . S
H1026 C1042 0.959 . S
H1027 C1042 0.959 . S
H1028 C1042 0.961 1_545 S
H1029 C1043 0.960 1_545 S
H1030 C1043 0.961 . S
H1031 C1043 0.959 . S
H1032 C1046 0.929 . S
H1033 C1047 0.931 . S
H1034 C1049 0.930 . S
C1035 H1023 0.930 . S
C1035 C1036 1.399 . S
C1035 C1040 1.399 . S
C1036 C1035 1.399 . S
C1036 C1037 1.376 . S
C1037 H1024 0.930 . S
C1037 C1036 1.376 . S
C1037 C1038 1.388 . S
C1038 H1025 0.930 . S
C1038 C1037 1.388 . S
C1038 C1039 1.390 . S
C1039 C1038 1.390 . S
C1039 C1040 1.394 . S
C1039 C1045 1.465 1_545 S
C1040 C1035 1.399 . S
C1040 C1039 1.394 . S
C1040 C1041 1.516 1_545 S
C1041 C1040 1.516 1_565 S
C1041 C1042 1.502 . S
C1041 C1043 1.561 . S
C1041 C1044 1.526 . S
C1042 H1026 0.959 . S
C1042 H1027 0.959 . S
C1042 H1028 0.961 1_565 S
C1042 C1041 1.502 . S
C1043 H1029 0.960 1_565 S
C1043 H1030 0.961 . S
C1043 H1031 0.959 . S
C1043 C1041 1.561 . S
C1044 C1041 1.526 . S
C1044 C1045 1.396 . S
C1044 C1049 1.390 . S
C1045 C1039 1.465 1_565 S
C1045 C1044 1.396 . S
C1045 C1046 1.399 . S
C1046 H1032 0.929 . S
C1046 C1045 1.399 . S
C1046 C1047 1.385 . S
C1047 H1033 0.931 . S
C1047 C1046 1.385 . S
C1047 C1048 1.389 . S
C1048 C1047 1.389 . S
C1048 C1049 1.387 . S
C1049 H1034 0.930 . S
C1049 C1044 1.390 . S
C1049 C1048 1.387 . S
H1050 C1062 0.930 . S
H1051 C1064 0.930 . S
H1052 C1065 0.930 . S
H1053 C1069 0.958 . S
H1054 C1069 0.959 . S
H1055 C1069 0.961 . S
H1056 C1070 0.960 . S
H1057 C1070 0.961 . S
H1058 C1070 0.959 . S
H1059 C1073 0.929 . S
H1060 C1074 0.931 . S
H1061 C1076 0.930 . S
C1062 H1050 0.930 . S
C1062 C1063 1.399 1_556 S
C1062 C1067 1.399 . S
C1063 C1062 1.399 1_554 S
C1063 C1064 1.376 . S
C1064 H1051 0.930 . S
C1064 C1063 1.376 . S
C1064 C1065 1.388 . S
C1065 H1052 0.930 . S
C1065 C1064 1.388 . S
C1065 C1066 1.390 . S
C1066 C1065 1.390 . S
C1066 C1067 1.394 1_554 S
C1066 C1072 1.465 . S
C1067 C1062 1.399 . S
C1067 C1066 1.394 1_556 S
C1067 C1068 1.516 . S
C1068 C1067 1.516 . S
C1068 C1069 1.502 . S
C1068 C1070 1.561 . S
C1068 C1071 1.526 . S
C1069 H1053 0.958 . S
C1069 H1054 0.959 . S
C1069 H1055 0.961 . S
C1069 C1068 1.502 . S
C1070 H1056 0.960 . S
C1070 H1057 0.961 . S
C1070 H1058 0.959 . S
C1070 C1068 1.561 . S
C1071 C1068 1.526 . S
C1071 C1072 1.396 1_556 S
C1071 C1076 1.390 . S
C1072 C1066 1.465 . S
C1072 C1071 1.396 1_554 S
C1072 C1073 1.399 . S
C1073 H1059 0.929 . S
C1073 C1072 1.399 . S
C1073 C1074 1.385 . S
C1074 H1060 0.931 . S
C1074 C1073 1.385 . S
C1074 C1075 1.389 1_554 S
C1075 C1074 1.389 1_556 S
C1075 C1076 1.387 . S
C1076 H1061 0.930 . S
C1076 C1071 1.390 . S
C1076 C1075 1.387 . S
H1077 C1089 0.930 . S
H1078 C1091 0.930 . S
H1079 C1092 0.930 . S
H1080 C1096 0.959 . S
H1081 C1096 0.959 . S
H1082 C1096 0.961 1_545 S
H1083 C1097 0.960 1_545 S
H1084 C1097 0.961 . S
H1085 C1097 0.959 . S
H1086 C1100 0.929 . S
H1087 C1101 0.931 . S
H1088 C1103 0.930 . S
C1089 H1077 0.930 . S
C1089 C1090 1.399 . S
C1089 C1094 1.399 . S
C1090 C1089 1.399 . S
C1090 C1091 1.376 . S
C1091 H1078 0.930 . S
C1091 C1090 1.376 . S
C1091 C1092 1.388 . S
C1092 H1079 0.930 . S
C1092 C1091 1.388 . S
C1092 C1093 1.390 . S
C1093 C1092 1.390 . S
C1093 C1094 1.394 . S
C1093 C1099 1.465 1_545 S
C1094 C1089 1.399 . S
C1094 C1093 1.394 . S
C1094 C1095 1.516 1_545 S
C1095 C1094 1.516 1_565 S
C1095 C1096 1.502 . S
C1095 C1097 1.561 . S
C1095 C1098 1.526 . S
C1096 H1080 0.959 . S
C1096 H1081 0.959 . S
C1096 H1082 0.961 1_565 S
C1096 C1095 1.502 . S
C1097 H1083 0.960 1_565 S
C1097 H1084 0.961 . S
C1097 H1085 0.959 . S
C1097 C1095 1.561 . S
C1098 C1095 1.526 . S
C1098 C1099 1.396 . S
C1098 C1103 1.390 . S
C1099 C1093 1.465 1_565 S
C1099 C1098 1.396 . S
C1099 C1100 1.399 . S
C1100 H1086 0.929 . S
C1100 C1099 1.399 . S
C1100 C1101 1.385 . S
C1101 H1087 0.931 . S
C1101 C1100 1.385 . S
C1101 C1102 1.389 . S
C1102 C1101 1.389 . S
C1102 C1103 1.387 . S
C1103 H1088 0.930 . S
C1103 C1098 1.390 . S
C1103 C1102 1.387 . S
H1104 C1116 0.930 . S
H1105 C1118 0.930 . S
H1106 C1119 0.930 . S
H1107 C1123 0.959 . S
H1108 C1123 0.959 . S
H1109 C1123 0.961 . S
H1110 C1124 0.960 1_556 S
H1111 C1124 0.959 1_556 S
H1112 C1124 0.959 . S
H1113 C1127 0.929 . S
H1114 C1128 0.931 . S
H1115 C1130 0.916 1_556 S
C1116 H1104 0.930 . S
C1116 C1117 1.427 . S
C1116 C1121 1.399 . S
C1117 C1116 1.427 . S
C1117 C1118 1.344 1_546 S
C1118 H1105 0.930 . S
C1118 C1117 1.344 1_564 S
C1118 C1119 1.388 . S
C1119 H1106 0.930 . S
C1119 C1118 1.388 . S
C1119 C1120 1.390 . S
C1120 C1119 1.390 . S
C1120 C1121 1.394 1_564 S
C1120 C1126 1.465 . S
C1121 C1116 1.399 . S
C1121 C1120 1.394 1_546 S
C1121 C1122 1.516 . S
C1122 C1121 1.516 . S
C1122 C1123 1.502 . S
C1122 C1124 1.561 1_556 S
C1122 C1125 1.537 . S
C1123 H1107 0.959 . S
C1123 H1108 0.959 . S
C1123 H1109 0.961 . S
C1123 C1122 1.502 . S
C1124 H1110 0.960 1_554 S
C1124 H1111 0.959 1_554 S
C1124 H1112 0.959 . S
C1124 C1122 1.561 1_554 S
C1125 C1122 1.537 . S
C1125 C1126 1.385 1_546 S
C1125 C1130 1.388 1_556 S
C1126 C1120 1.465 . S
C1126 C1125 1.385 1_564 S
C1126 C1127 1.399 . S
C1127 H1113 0.929 . S
C1127 C1126 1.399 . S
C1127 C1128 1.385 . S
C1128 H1114 0.931 . S
C1128 C1127 1.385 . S
C1128 C1129 1.377 1_565 S
C1129 C1128 1.377 1_545 S
C1129 C1130 1.413 . S
C1130 H1115 0.916 1_554 S
C1130 C1125 1.388 1_554 S
C1130 C1129 1.413 . S
H1131 C1143 0.930 . S
H1132 C1145 0.930 . S
H1133 C1146 0.930 . S
H1134 C1150 0.959 . S
H1135 C1150 0.959 . S
H1136 C1150 0.961 . S
H1137 C1151 0.960 . S
H1138 C1151 0.961 . S
H1139 C1151 0.959 . S
H1140 C1154 0.929 . S
H1141 C1155 0.931 . S
H1142 C1157 0.930 . S
C1143 H1131 0.930 . S
C1143 C1144 1.399 . S
C1143 C1148 1.399 . S
C1144 C1143 1.399 . S
C1144 C1145 1.376 . S
C1145 H1132 0.930 . S
C1145 C1144 1.376 . S
C1145 C1146 1.388 . S
C1146 H1133 0.930 . S
C1146 C1145 1.388 . S
C1146 C1147 1.390 . S
C1147 C1146 1.390 . S
C1147 C1148 1.394 . S
C1147 C1153 1.465 . S
C1148 C1143 1.399 . S
C1148 C1147 1.394 . S
C1148 C1149 1.516 . S
C1149 C1148 1.516 . S
C1149 C1150 1.502 . S
C1149 C1151 1.561 . S
C1149 C1152 1.526 . S
C1150 H1134 0.959 . S
C1150 H1135 0.959 . S
C1150 H1136 0.961 . S
C1150 C1149 1.502 . S
C1151 H1137 0.960 . S
C1151 H1138 0.961 . S
C1151 H1139 0.959 . S
C1151 C1149 1.561 . S
C1152 C1149 1.526 . S
C1152 C1153 1.396 . S
C1152 C1157 1.390 . S
C1153 C1147 1.465 . S
C1153 C1152 1.396 . S
C1153 C1154 1.399 . S
C1154 H1140 0.929 . S
C1154 C1153 1.399 . S
C1154 C1155 1.385 . S
C1155 H1141 0.931 . S
C1155 C1154 1.385 . S
C1155 C1156 1.389 . S
C1156 C1155 1.389 . S
C1156 C1157 1.387 . S
C1157 H1142 0.930 . S
C1157 C1152 1.390 . S
C1157 C1156 1.387 . S
H1158 C1170 0.930 . S
H1159 C1172 0.930 . S
H1160 C1173 0.930 . S
H1161 C1177 0.959 . S
H1162 C1177 0.959 . S
H1163 C1177 0.961 . S
H1164 C1178 0.960 . S
H1165 C1178 0.961 . S
H1166 C1178 0.959 . S
H1167 C1181 0.929 . S
H1168 C1182 0.931 . S
H1169 C1184 0.930 . S
C1170 H1158 0.930 . S
C1170 C1171 1.399 . S
C1170 C1175 1.399 . S
C1171 C1170 1.399 . S
C1171 C1172 1.376 . S
C1172 H1159 0.930 . S
C1172 C1171 1.376 . S
C1172 C1173 1.388 . S
C1173 H1160 0.930 . S
C1173 C1172 1.388 . S
C1173 C1174 1.390 . S
C1174 C1173 1.390 . S
C1174 C1175 1.394 . S
C1174 C1180 1.465 . S
C1175 C1170 1.399 . S
C1175 C1174 1.394 . S
C1175 C1176 1.516 . S
C1176 C1175 1.516 . S
C1176 C1177 1.502 . S
C1176 C1178 1.561 . S
C1176 C1179 1.526 . S
C1177 H1161 0.959 . S
C1177 H1162 0.959 . S
C1177 H1163 0.961 . S
C1177 C1176 1.502 . S
C1178 H1164 0.960 . S
C1178 H1165 0.961 . S
C1178 H1166 0.959 . S
C1178 C1176 1.561 . S
C1179 C1176 1.526 . S
C1179 C1180 1.396 . S
C1179 C1184 1.390 . S
C1180 C1174 1.465 . S
C1180 C1179 1.396 . S
C1180 C1181 1.399 . S
C1181 H1167 0.929 . S
C1181 C1180 1.399 . S
C1181 C1182 1.385 . S
C1182 H1168 0.931 . S
C1182 C1181 1.385 . S
C1182 C1183 1.389 . S
C1183 C1182 1.389 . S
C1183 C1184 1.387 . S
C1184 H1169 0.930 . S
C1184 C1179 1.390 . S
C1184 C1183 1.387 . S
H1185 C1197 0.930 . S
H1186 C1199 0.930 . S
H1187 C1200 0.930 . S
H1188 C1204 0.959 . S
H1189 C1204 0.959 . S
H1190 C1204 0.961 1_554 S
H1191 C1205 0.960 . S
H1192 C1205 0.961 1_556 S
H1193 C1205 0.959 . S
H1194 C1208 0.929 . S
H1195 C1209 0.931 . S
H1196 C1211 0.930 . S
C1197 H1185 0.930 . S
C1197 C1198 1.399 . S
C1197 C1202 1.399 . S
C1198 C1197 1.399 . S
C1198 C1199 1.376 . S
C1199 H1186 0.930 . S
C1199 C1198 1.376 . S
C1199 C1200 1.388 . S
C1200 H1187 0.930 . S
C1200 C1199 1.388 . S
C1200 C1201 1.390 . S
C1201 C1200 1.390 . S
C1201 C1202 1.394 . S
C1201 C1207 1.465 1_554 S
C1202 C1197 1.399 . S
C1202 C1201 1.394 . S
C1202 C1203 1.496 1_554 S
C1203 C1202 1.496 1_556 S
C1203 C1204 1.507 . S
C1203 C1205 1.558 1_556 S
C1203 C1206 1.545 . S
C1204 H1188 0.959 . S
C1204 H1189 0.959 . S
C1204 H1190 0.961 1_556 S
C1204 C1203 1.507 . S
C1205 H1191 0.960 . S
C1205 H1192 0.961 1_554 S
C1205 H1193 0.959 . S
C1205 C1203 1.558 1_554 S
C1206 C1203 1.545 . S
C1206 C1207 1.396 . S
C1206 C1211 1.390 . S
C1207 C1201 1.465 1_556 S
C1207 C1206 1.396 . S
C1207 C1208 1.399 . S
C1208 H1194 0.929 . S
C1208 C1207 1.399 . S
C1208 C1209 1.385 . S
C1209 H1195 0.931 . S
C1209 C1208 1.385 . S
C1209 C1210 1.389 . S
C1210 C1209 1.389 . S
C1210 C1211 1.387 . S
C1211 H1196 0.930 . S
C1211 C1206 1.390 . S
C1211 C1210 1.387 . S
H1212 C1224 0.930 . S
H1213 C1226 0.930 . S
H1214 C1227 0.930 . S
H1215 C1231 0.959 . S
H1216 C1231 0.959 . S
H1217 C1231 0.961 . S
H1218 C1232 0.960 . S
H1219 C1232 0.961 . S
H1220 C1232 0.959 . S
H1221 C1235 0.929 . S
H1222 C1236 0.931 . S
H1223 C1238 0.930 . S
C1224 H1212 0.930 . S
C1224 C1225 1.399 . S
C1224 C1229 1.399 . S
C1225 C1224 1.399 . S
C1225 C1226 1.376 . S
C1226 H1213 0.930 . S
C1226 C1225 1.376 . S
C1226 C1227 1.388 . S
C1227 H1214 0.930 . S
C1227 C1226 1.388 . S
C1227 C1228 1.390 . S
C1228 C1227 1.390 . S
C1228 C1229 1.394 . S
C1228 C1234 1.465 . S
C1229 C1224 1.399 . S
C1229 C1228 1.394 . S
C1229 C1230 1.516 . S
C1230 C1229 1.516 . S
C1230 C1231 1.502 . S
C1230 C1232 1.561 . S
C1230 C1233 1.526 . S
C1231 H1215 0.959 . S
C1231 H1216 0.959 . S
C1231 H1217 0.961 . S
C1231 C1230 1.502 . S
C1232 H1218 0.960 . S
C1232 H1219 0.961 . S
C1232 H1220 0.959 . S
C1232 C1230 1.561 . S
C1233 C1230 1.526 . S
C1233 C1234 1.396 . S
C1233 C1238 1.390 . S
C1234 C1228 1.465 . S
C1234 C1233 1.396 . S
C1234 C1235 1.399 . S
C1235 H1221 0.929 . S
C1235 C1234 1.399 . S
C1235 C1236 1.385 . S
C1236 H1222 0.931 . S
C1236 C1235 1.385 . S
C1236 C1237 1.389 . S
C1237 C1236 1.389 . S
C1237 C1238 1.387 . S
C1238 H1223 0.930 . S
C1238 C1233 1.390 . S
C1238 C1237 1.387 . S
H1239 C1251 0.930 . S
H1240 C1253 0.930 . S
H1241 C1254 0.930 . S
H1242 C1258 0.959 . S
H1243 C1258 0.959 . S
H1244 C1258 0.961 . S
H1245 C1259 0.960 . S
H1246 C1259 0.961 . S
H1247 C1259 0.959 . S
H1248 C1262 0.929 . S
H1249 C1263 0.931 . S
H1250 C1265 0.930 . S
C1251 H1239 0.930 . S
C1251 C1252 1.399 . S
C1251 C1256 1.399 . S
C1252 C1251 1.399 . S
C1252 C1253 1.376 . S
C1253 H1240 0.930 . S
C1253 C1252 1.376 . S
C1253 C1254 1.388 . S
C1254 H1241 0.930 . S
C1254 C1253 1.388 . S
C1254 C1255 1.390 . S
C1255 C1254 1.390 . S
C1255 C1256 1.394 . S
C1255 C1261 1.465 . S
C1256 C1251 1.399 . S
C1256 C1255 1.394 . S
C1256 C1257 1.516 . S
C1257 C1256 1.516 . S
C1257 C1258 1.502 . S
C1257 C1259 1.561 . S
C1257 C1260 1.526 . S
C1258 H1242 0.959 . S
C1258 H1243 0.959 . S
C1258 H1244 0.961 . S
C1258 C1257 1.502 . S
C1259 H1245 0.960 . S
C1259 H1246 0.961 . S
C1259 H1247 0.959 . S
C1259 C1257 1.561 . S
C1260 C1257 1.526 . S
C1260 C1261 1.396 . S
C1260 C1265 1.390 . S
C1261 C1255 1.465 . S
C1261 C1260 1.396 . S
C1261 C1262 1.399 . S
C1262 H1248 0.929 . S
C1262 C1261 1.399 . S
C1262 C1263 1.385 . S
C1263 H1249 0.931 . S
C1263 C1262 1.385 . S
C1263 C1264 1.389 . S
C1264 C1263 1.389 . S
C1264 C1265 1.387 . S
C1265 H1250 0.930 . S
C1265 C1260 1.390 . S
C1265 C1264 1.387 . S
H1266 C1278 0.930 . S
H1267 C1280 0.930 . S
H1268 C1281 0.930 . S
H1269 C1285 0.959 . S
H1270 C1285 0.959 . S
H1271 C1285 0.961 . S
H1272 C1286 0.960 . S
H1273 C1286 0.961 . S
H1274 C1286 0.959 . S
H1275 C1289 0.929 . S
H1276 C1290 0.931 . S
H1277 C1292 0.930 . S
C1278 H1266 0.930 . S
C1278 C1279 1.399 1_455 S
C1278 C1283 1.398 1_455 S
C1279 C1278 1.399 1_655 S
C1279 C1280 1.376 . S
C1280 H1267 0.930 . S
C1280 C1279 1.376 . S
C1280 C1281 1.388 . S
C1281 H1268 0.930 . S
C1281 C1280 1.388 . S
C1281 C1282 1.390 . S
C1282 C1281 1.390 . S
C1282 C1283 1.399 . S
C1282 C1288 1.465 . S
C1283 C1278 1.398 1_655 S
C1283 C1282 1.399 . S
C1283 C1284 1.514 1_655 S
C1284 C1283 1.514 1_455 S
C1284 C1285 1.502 . S
C1284 C1286 1.561 1_455 S
C1284 C1287 1.523 1_455 S
C1285 H1269 0.959 . S
C1285 H1270 0.959 . S
C1285 H1271 0.961 . S
C1285 C1284 1.502 . S
C1286 H1272 0.960 . S
C1286 H1273 0.961 . S
C1286 H1274 0.959 . S
C1286 C1284 1.561 1_655 S
C1287 C1284 1.523 1_655 S
C1287 C1288 1.401 . S
C1287 C1292 1.388 1_655 S
C1288 C1282 1.465 . S
C1288 C1287 1.401 . S
C1288 C1289 1.399 . S
C1289 H1275 0.929 . S
C1289 C1288 1.399 . S
C1289 C1290 1.385 . S
C1290 H1276 0.931 . S
C1290 C1289 1.385 . S
C1290 C1291 1.389 . S
C1291 C1290 1.389 . S
C1291 C1292 1.387 1_655 S
C1292 H1277 0.930 . S
C1292 C1287 1.388 1_455 S
C1292 C1291 1.387 1_455 S
H1293 C1305 0.930 . S
H1294 C1307 0.930 . S
H1295 C1308 0.930 . S
H1296 C1312 0.959 . S
H1297 C1312 0.959 . S
H1298 C1312 0.961 . S
H1299 C1313 0.960 . S
H1300 C1313 0.961 . S
H1301 C1313 0.959 . S
H1302 C1316 0.929 . S
H1303 C1317 0.931 . S
H1304 C1319 0.930 . S
C1305 H1293 0.930 . S
C1305 C1306 1.399 1_545 S
C1305 C1310 1.399 . S
C1306 C1305 1.399 1_565 S
C1306 C1307 1.376 . S
C1307 H1294 0.930 . S
C1307 C1306 1.376 . S
C1307 C1308 1.388 . S
C1308 H1295 0.930 . S
C1308 C1307 1.388 . S
C1308 C1309 1.390 . S
C1309 C1308 1.390 . S
C1309 C1310 1.394 1_565 S
C1309 C1315 1.465 . S
C1310 C1305 1.399 . S
C1310 C1309 1.394 1_545 S
C1310 C1311 1.516 . S
C1311 C1310 1.516 . S
C1311 C1312 1.502 . S
C1311 C1313 1.561 . S
C1311 C1314 1.526 . S
C1312 H1296 0.959 . S
C1312 H1297 0.959 . S
C1312 H1298 0.961 . S
C1312 C1311 1.502 . S
C1313 H1299 0.960 . S
C1313 H1300 0.961 . S
C1313 H1301 0.959 . S
C1313 C1311 1.561 . S
C1314 C1311 1.526 . S
C1314 C1315 1.396 1_545 S
C1314 C1319 1.390 . S
C1315 C1309 1.465 . S
C1315 C1314 1.396 1_565 S
C1315 C1316 1.399 . S
C1316 H1302 0.929 . S
C1316 C1315 1.399 . S
C1316 C1317 1.385 . S
C1317 H1303 0.931 . S
C1317 C1316 1.385 . S
C1317 C1318 1.389 . S
C1318 C1317 1.389 . S
C1318 C1319 1.387 1_565 S
C1319 H1304 0.930 . S
C1319 C1314 1.390 . S
C1319 C1318 1.387 1_545 S
H1320 C1332 0.930 . S
H1321 C1334 0.930 . S
H1322 C1335 0.930 . S
H1323 C1339 0.959 . S
H1324 C1339 0.959 . S
H1325 C1339 0.961 . S
H1326 C1340 0.960 . S
H1327 C1340 0.961 . S
H1328 C1340 0.959 . S
H1329 C1343 0.929 . S
H1330 C1344 0.931 . S
H1331 C1346 0.930 . S
C1332 H1320 0.930 . S
C1332 C1333 1.399 . S
C1332 C1337 1.399 . S
C1333 C1332 1.399 . S
C1333 C1334 1.376 . S
C1334 H1321 0.930 . S
C1334 C1333 1.376 . S
C1334 C1335 1.388 . S
C1335 H1322 0.930 . S
C1335 C1334 1.388 . S
C1335 C1336 1.390 . S
C1336 C1335 1.390 . S
C1336 C1337 1.394 . S
C1336 C1342 1.465 . S
C1337 C1332 1.399 . S
C1337 C1336 1.394 . S
C1337 C1338 1.516 . S
C1338 C1337 1.516 . S
C1338 C1339 1.502 . S
C1338 C1340 1.561 . S
C1338 C1341 1.526 . S
C1339 H1323 0.959 . S
C1339 H1324 0.959 . S
C1339 H1325 0.961 . S
C1339 C1338 1.502 . S
C1340 H1326 0.960 . S
C1340 H1327 0.961 . S
C1340 H1328 0.959 . S
C1340 C1338 1.561 . S
C1341 C1338 1.526 . S
C1341 C1342 1.396 . S
C1341 C1346 1.390 . S
C1342 C1336 1.465 . S
C1342 C1341 1.396 . S
C1342 C1343 1.399 . S
C1343 H1329 0.929 . S
C1343 C1342 1.399 . S
C1343 C1344 1.385 . S
C1344 H1330 0.931 . S
C1344 C1343 1.385 . S
C1344 C1345 1.389 . S
C1345 C1344 1.389 . S
C1345 C1346 1.387 . S
C1346 H1331 0.930 . S
C1346 C1341 1.390 . S
C1346 C1345 1.387 . S
H1347 C1359 0.930 . S
H1348 C1361 0.930 . S
H1349 C1362 0.930 . S
H1350 C1366 0.959 . S
H1351 C1366 0.959 . S
H1352 C1366 0.961 . S
H1353 C1367 0.960 . S
H1354 C1367 0.961 . S
H1355 C1367 0.959 . S
H1356 C1370 0.929 . S
H1357 C1371 0.931 . S
H1358 C1373 0.930 . S
C1359 H1347 0.930 . S
C1359 C1360 1.399 . S
C1359 C1364 1.399 . S
C1360 C1359 1.399 . S
C1360 C1361 1.376 . S
C1361 H1348 0.930 . S
C1361 C1360 1.376 . S
C1361 C1362 1.388 . S
C1362 H1349 0.930 . S
C1362 C1361 1.388 . S
C1362 C1363 1.390 . S
C1363 C1362 1.390 . S
C1363 C1364 1.394 . S
C1363 C1369 1.465 . S
C1364 C1359 1.399 . S
C1364 C1363 1.394 . S
C1364 C1365 1.516 . S
C1365 C1364 1.516 . S
C1365 C1366 1.502 . S
C1365 C1367 1.561 1_565 S
C1365 C1368 1.526 . S
C1366 H1350 0.959 . S
C1366 H1351 0.959 . S
C1366 H1352 0.961 . S
C1366 C1365 1.502 . S
C1367 H1353 0.960 . S
C1367 H1354 0.961 . S
C1367 H1355 0.959 . S
C1367 C1365 1.561 1_545 S
C1368 C1365 1.526 . S
C1368 C1369 1.396 . S
C1368 C1373 1.390 . S
C1369 C1363 1.465 . S
C1369 C1368 1.396 . S
C1369 C1370 1.399 . S
C1370 H1356 0.929 . S
C1370 C1369 1.399 . S
C1370 C1371 1.385 . S
C1371 H1357 0.931 . S
C1371 C1370 1.385 . S
C1371 C1372 1.389 . S
C1372 C1371 1.389 . S
C1372 C1373 1.387 . S
C1373 H1358 0.930 . S
C1373 C1368 1.390 . S
C1373 C1372 1.387 . S
H1374 C1386 0.930 . S
H1375 C1388 0.930 . S
H1376 C1389 0.930 . S
H1377 C1393 0.959 . S
H1378 C1393 0.959 . S
H1379 C1393 0.961 . S
H1380 C1394 0.960 . S
H1381 C1394 0.961 . S
H1382 C1394 0.959 . S
H1383 C1397 0.929 . S
H1384 C1398 0.931 . S
H1385 C1400 0.930 . S
C1386 H1374 0.930 . S
C1386 C1387 1.399 . S
C1386 C1391 1.399 . S
C1387 C1386 1.399 . S
C1387 C1388 1.376 . S
C1388 H1375 0.930 . S
C1388 C1387 1.376 . S
C1388 C1389 1.388 . S
C1389 H1376 0.930 . S
C1389 C1388 1.388 . S
C1389 C1390 1.390 . S
C1390 C1389 1.390 . S
C1390 C1391 1.394 . S
C1390 C1396 1.465 . S
C1391 C1386 1.399 . S
C1391 C1390 1.394 . S
C1391 C1392 1.516 . S
C1392 C1391 1.516 . S
C1392 C1393 1.502 . S
C1392 C1394 1.561 . S
C1392 C1395 1.526 . S
C1393 H1377 0.959 . S
C1393 H1378 0.959 . S
C1393 H1379 0.961 . S
C1393 C1392 1.502 . S
C1394 H1380 0.960 . S
C1394 H1381 0.961 . S
C1394 H1382 0.959 . S
C1394 C1392 1.561 . S
C1395 C1392 1.526 . S
C1395 C1396 1.396 . S
C1395 C1400 1.390 . S
C1396 C1390 1.465 . S
C1396 C1395 1.396 . S
C1396 C1397 1.399 . S
C1397 H1383 0.929 . S
C1397 C1396 1.399 . S
C1397 C1398 1.385 . S
C1398 H1384 0.931 . S
C1398 C1397 1.385 . S
C1398 C1399 1.389 . S
C1399 C1398 1.389 . S
C1399 C1400 1.387 . S
C1400 H1385 0.930 . S
C1400 C1395 1.390 . S
C1400 C1399 1.387 . S
H1401 C1413 0.930 1_565 S
H1402 C1415 0.930 1_556 S
H1403 C1416 0.930 . S
H1404 C1420 0.959 . S
H1405 C1420 0.959 . S
H1406 C1420 0.961 . S
H1407 C1421 0.960 . S
H1408 C1421 0.961 . S
H1409 C1421 0.959 . S
H1410 C1424 0.929 . S
H1411 C1425 0.931 . S
H1412 C1427 0.930 . S
C1413 H1401 0.930 1_545 S
C1413 C1414 1.399 . S
C1413 C1418 1.399 . S
C1414 C1413 1.399 . S
C1414 C1415 1.376 . S
C1415 H1402 0.930 1_554 S
C1415 C1414 1.376 . S
C1415 C1416 1.388 . S
C1416 H1403 0.930 . S
C1416 C1415 1.388 . S
C1416 C1417 1.390 . S
C1417 C1416 1.390 . S
C1417 C1418 1.394 . S
C1417 C1423 1.465 . S
C1418 C1413 1.399 . S
C1418 C1417 1.394 . S
C1418 C1419 1.516 . S
C1419 C1418 1.516 . S
C1419 C1420 1.502 1_545 S
C1419 C1421 1.561 . S
C1419 C1422 1.526 . S
C1420 H1404 0.959 . S
C1420 H1405 0.959 . S
C1420 H1406 0.961 . S
C1420 C1419 1.502 1_565 S
C1421 H1407 0.960 . S
C1421 H1408 0.961 . S
C1421 H1409 0.959 . S
C1421 C1419 1.561 . S
C1422 C1419 1.526 . S
C1422 C1423 1.396 . S
C1422 C1427 1.390 . S
C1423 C1417 1.465 . S
C1423 C1422 1.396 . S
C1423 C1424 1.399 . S
C1424 H1410 0.929 . S
C1424 C1423 1.399 . S
C1424 C1425 1.385 . S
C1425 H1411 0.931 . S
C1425 C1424 1.385 . S
C1425 C1426 1.389 . S
C1426 C1425 1.389 . S
C1426 C1427 1.387 . S
C1427 H1412 0.930 . S
C1427 C1422 1.390 . S
C1427 C1426 1.387 . S
H1428 C1440 0.930 . S
H1429 C1442 0.930 . S
H1430 C1443 0.930 . S
H1431 C1447 0.959 . S
H1432 C1447 0.959 . S
H1433 C1447 0.961 . S
H1434 C1448 0.960 . S
H1435 C1448 0.961 . S
H1436 C1448 0.959 . S
H1437 C1451 0.929 . S
H1438 C1452 0.931 . S
H1439 C1454 0.930 . S
C1440 H1428 0.930 . S
C1440 C1441 1.399 . S
C1440 C1445 1.399 . S
C1441 C1440 1.399 . S
C1441 C1442 1.376 . S
C1442 H1429 0.930 . S
C1442 C1441 1.376 . S
C1442 C1443 1.388 . S
C1443 H1430 0.930 . S
C1443 C1442 1.388 . S
C1443 C1444 1.390 . S
C1444 C1443 1.390 . S
C1444 C1445 1.394 . S
C1444 C1450 1.465 . S
C1445 C1440 1.399 . S
C1445 C1444 1.394 . S
C1445 C1446 1.516 . S
C1446 C1445 1.516 . S
C1446 C1447 1.502 . S
C1446 C1448 1.561 . S
C1446 C1449 1.526 . S
C1447 H1431 0.959 . S
C1447 H1432 0.959 . S
C1447 H1433 0.961 . S
C1447 C1446 1.502 . S
C1448 H1434 0.960 . S
C1448 H1435 0.961 . S
C1448 H1436 0.959 . S
C1448 C1446 1.561 . S
C1449 C1446 1.526 . S
C1449 C1450 1.396 . S
C1449 C1454 1.390 . S
C1450 C1444 1.465 . S
C1450 C1449 1.396 . S
C1450 C1451 1.399 . S
C1451 H1437 0.929 . S
C1451 C1450 1.399 . S
C1451 C1452 1.385 . S
C1452 H1438 0.931 . S
C1452 C1451 1.385 . S
C1452 C1453 1.389 . S
C1453 C1452 1.389 . S
C1453 C1454 1.387 . S
C1454 H1439 0.930 . S
C1454 C1449 1.390 . S
C1454 C1453 1.387 . S
H1455 C1467 0.930 1_545 S
H1456 C1469 0.930 . S
H1457 C1470 0.930 . S
H1458 C1474 0.931 1_565 S
H1459 C1474 0.959 . S
H1460 C1474 0.961 . S
H1461 C1475 0.960 . S
H1462 C1475 0.961 . S
H1463 C1475 0.959 1_565 S
H1464 C1478 0.929 . S
H1465 C1479 0.931 . S
H1466 C1481 0.930 . S
C1467 H1455 0.930 1_565 S
C1467 C1468 1.399 . S
C1467 C1472 1.399 . S
C1468 C1467 1.399 . S
C1468 C1469 1.376 . S
C1469 H1456 0.930 . S
C1469 C1468 1.376 . S
C1469 C1470 1.388 . S
C1470 H1457 0.930 . S
C1470 C1469 1.388 . S
C1470 C1471 1.390 . S
C1471 C1470 1.390 . S
C1471 C1472 1.394 . S
C1471 C1477 1.465 . S
C1472 C1467 1.399 . S
C1472 C1471 1.394 . S
C1472 C1473 1.516 . S
C1473 C1472 1.516 . S
C1473 C1474 1.502 1_565 S
C1473 C1475 1.561 1_565 S
C1473 C1476 1.526 . S
C1474 H1458 0.931 1_545 S
C1474 H1459 0.959 . S
C1474 H1460 0.961 . S
C1474 C1473 1.502 1_545 S
C1475 H1461 0.960 . S
C1475 H1462 0.961 . S
C1475 H1463 0.959 1_545 S
C1475 C1473 1.561 1_545 S
C1476 C1473 1.526 . S
C1476 C1477 1.396 . S
C1476 C1481 1.390 . S
C1477 C1471 1.465 . S
C1477 C1476 1.396 . S
C1477 C1478 1.399 . S
C1478 H1464 0.929 . S
C1478 C1477 1.399 . S
C1478 C1479 1.385 . S
C1479 H1465 0.931 . S
C1479 C1478 1.385 . S
C1479 C1480 1.389 . S
C1480 C1479 1.389 . S
C1480 C1481 1.387 . S
C1481 H1466 0.930 . S
C1481 C1476 1.390 . S
C1481 C1480 1.387 . S
H1482 C1494 0.930 . S
H1483 C1496 0.930 . S
H1484 C1497 0.930 . S
H1485 C1501 0.959 . S
H1486 C1501 0.959 . S
H1487 C1501 0.961 . S
H1488 C1502 0.960 . S
H1489 C1502 0.961 . S
H1490 C1502 0.959 . S
H1491 C1505 0.929 . S
H1492 C1506 0.931 . S
H1493 C1508 0.930 . S
C1494 H1482 0.930 . S
C1494 C1495 1.399 . S
C1494 C1499 1.399 . S
C1495 C1494 1.399 . S
C1495 C1496 1.376 . S
C1496 H1483 0.930 . S
C1496 C1495 1.376 . S
C1496 C1497 1.388 . S
C1497 H1484 0.930 . S
C1497 C1496 1.388 . S
C1497 C1498 1.390 . S
C1498 C1497 1.390 . S
C1498 C1499 1.394 . S
C1498 C1504 1.465 . S
C1499 C1494 1.399 . S
C1499 C1498 1.394 . S
C1499 C1500 1.516 . S
C1500 C1499 1.516 . S
C1500 C1501 1.502 . S
C1500 C1502 1.561 . S
C1500 C1503 1.526 . S
C1501 H1485 0.959 . S
C1501 H1486 0.959 . S
C1501 H1487 0.961 . S
C1501 C1500 1.502 . S
C1502 H1488 0.960 . S
C1502 H1489 0.961 . S
C1502 H1490 0.959 . S
C1502 C1500 1.561 . S
C1503 C1500 1.526 . S
C1503 C1504 1.396 . S
C1503 C1508 1.390 . S
C1504 C1498 1.465 . S
C1504 C1503 1.396 . S
C1504 C1505 1.399 . S
C1505 H1491 0.929 . S
C1505 C1504 1.399 . S
C1505 C1506 1.385 . S
C1506 H1492 0.931 . S
C1506 C1505 1.385 . S
C1506 C1507 1.389 . S
C1507 C1506 1.389 . S
C1507 C1508 1.387 . S
C1508 H1493 0.930 . S
C1508 C1503 1.390 . S
C1508 C1507 1.387 . S
H1509 C1521 0.930 . S
H1510 C1523 0.930 1_554 S
H1511 C1524 0.930 . S
H1512 C1528 0.959 . S
H1513 C1528 0.959 . S
H1514 C1528 0.961 . S
H1515 C1529 0.960 . S
H1516 C1529 0.961 . S
H1517 C1529 0.959 . S
H1518 C1532 0.929 . S
H1519 C1533 0.931 . S
H1520 C1535 0.930 . S
C1521 H1509 0.930 . S
C1521 C1522 1.399 . S
C1521 C1526 1.399 . S
C1522 C1521 1.399 . S
C1522 C1523 1.376 . S
C1523 H1510 0.930 1_556 S
C1523 C1522 1.376 . S
C1523 C1524 1.388 . S
C1524 H1511 0.930 . S
C1524 C1523 1.388 . S
C1524 C1525 1.390 . S
C1525 C1524 1.390 . S
C1525 C1526 1.394 . S
C1525 C1531 1.465 . S
C1526 C1521 1.399 . S
C1526 C1525 1.394 . S
C1526 C1527 1.516 . S
C1527 C1526 1.516 . S
C1527 C1528 1.502 . S
C1527 C1529 1.561 . S
C1527 C1530 1.526 . S
C1528 H1512 0.959 . S
C1528 H1513 0.959 . S
C1528 H1514 0.961 . S
C1528 C1527 1.502 . S
C1529 H1515 0.960 . S
C1529 H1516 0.961 . S
C1529 H1517 0.959 . S
C1529 C1527 1.561 . S
C1530 C1527 1.526 . S
C1530 C1531 1.396 . S
C1530 C1535 1.390 . S
C1531 C1525 1.465 . S
C1531 C1530 1.396 . S
C1531 C1532 1.399 . S
C1532 H1518 0.929 . S
C1532 C1531 1.399 . S
C1532 C1533 1.385 . S
C1533 H1519 0.931 . S
C1533 C1532 1.385 . S
C1533 C1534 1.389 . S
C1534 C1533 1.389 . S
C1534 C1535 1.387 . S
C1535 H1520 0.930 . S
C1535 C1530 1.390 . S
C1535 C1534 1.387 . S
H1536 C1548 0.930 . S
H1537 C1550 0.930 . S
H1538 C1551 0.930 . S
H1539 C1555 0.959 . S
H1540 C1555 0.959 . S
H1541 C1555 0.961 . S
H1542 C1556 0.960 . S
H1543 C1556 0.961 . S
H1544 C1556 0.959 . S
H1545 C1559 0.929 . S
H1546 C1560 0.931 . S
H1547 C1562 0.930 . S
C1548 H1536 0.930 . S
C1548 C1549 1.399 . S
C1548 C1553 1.399 . S
C1549 C1548 1.399 . S
C1549 C1550 1.376 . S
C1550 H1537 0.930 . S
C1550 C1549 1.376 . S
C1550 C1551 1.388 . S
C1551 H1538 0.930 . S
C1551 C1550 1.388 . S
C1551 C1552 1.390 . S
C1552 C1551 1.390 . S
C1552 C1553 1.394 . S
C1552 C1558 1.465 . S
C1553 C1548 1.399 . S
C1553 C1552 1.394 . S
C1553 C1554 1.516 . S
C1554 C1553 1.516 . S
C1554 C1555 1.502 . S
C1554 C1556 1.561 . S
C1554 C1557 1.526 . S
C1555 H1539 0.959 . S
C1555 H1540 0.959 . S
C1555 H1541 0.961 . S
C1555 C1554 1.502 . S
C1556 H1542 0.960 . S
C1556 H1543 0.961 . S
C1556 H1544 0.959 . S
C1556 C1554 1.561 . S
C1557 C1554 1.526 . S
C1557 C1558 1.396 . S
C1557 C1562 1.390 . S
C1558 C1552 1.465 . S
C1558 C1557 1.396 . S
C1558 C1559 1.399 . S
C1559 H1545 0.929 . S
C1559 C1558 1.399 . S
C1559 C1560 1.385 . S
C1560 H1546 0.931 . S
C1560 C1559 1.385 . S
C1560 C1561 1.389 . S
C1561 C1560 1.389 . S
C1561 C1562 1.387 . S
C1562 H1547 0.930 . S
C1562 C1557 1.390 . S
C1562 C1561 1.387 . S
H1563 C1575 0.930 1_655 S
H1564 C1577 0.926 1_565 S
H1565 C1578 0.930 . S
H1566 C1582 0.959 . S
H1567 C1582 0.959 . S
H1568 C1582 0.961 . S
H1569 C1583 0.960 1_655 S
H1570 C1583 0.961 . S
H1571 C1583 0.959 . S
H1572 C1586 0.929 . S
H1573 C1587 0.931 . S
H1574 C1589 0.930 . S
C1575 H1563 0.930 1_455 S
C1575 C1576 1.399 . S
C1575 C1580 1.399 . S
C1576 C1575 1.399 . S
C1576 C1577 1.376 . S
C1577 H1564 0.926 1_545 S
C1577 C1576 1.376 . S
C1577 C1578 1.388 . S
C1578 H1565 0.930 . S
C1578 C1577 1.388 . S
C1578 C1579 1.390 . S
C1579 C1578 1.390 . S
C1579 C1580 1.394 . S
C1579 C1585 1.465 . S
C1580 C1575 1.399 . S
C1580 C1579 1.394 . S
C1580 C1581 1.516 . S
C1581 C1580 1.516 . S
C1581 C1582 1.502 1_455 S
C1581 C1583 1.561 . S
C1581 C1584 1.526 . S
C1582 H1566 0.959 . S
C1582 H1567 0.959 . S
C1582 H1568 0.961 . S
C1582 C1581 1.502 1_655 S
C1583 H1569 0.960 1_455 S
C1583 H1570 0.961 . S
C1583 H1571 0.959 . S
C1583 C1581 1.561 . S
C1584 C1581 1.526 . S
C1584 C1585 1.396 . S
C1584 C1589 1.390 . S
C1585 C1579 1.465 . S
C1585 C1584 1.396 . S
C1585 C1586 1.399 . S
C1586 H1572 0.929 . S
C1586 C1585 1.399 . S
C1586 C1587 1.385 . S
C1587 H1573 0.931 . S
C1587 C1586 1.385 . S
C1587 C1588 1.389 . S
C1588 C1587 1.389 . S
C1588 C1589 1.387 . S
C1589 H1574 0.930 . S
C1589 C1584 1.390 . S
C1589 C1588 1.387 . S
H1590 C1602 0.930 . S
H1591 C1604 0.930 . S
H1592 C1605 0.930 . S
H1593 C1609 0.959 . S
H1594 C1609 0.959 . S
H1595 C1609 0.961 . S
H1596 C1610 0.960 . S
H1597 C1610 0.961 . S
H1598 C1610 0.959 . S
H1599 C1613 0.929 . S
H1600 C1614 0.931 . S
H1601 C1616 0.930 . S
C1602 H1590 0.930 . S
C1602 C1603 1.399 . S
C1602 C1607 1.399 . S
C1603 C1602 1.399 . S
C1603 C1604 1.376 . S
C1604 H1591 0.930 . S
C1604 C1603 1.376 . S
C1604 C1605 1.388 . S
C1605 H1592 0.930 . S
C1605 C1604 1.388 . S
C1605 C1606 1.390 . S
C1606 C1605 1.390 . S
C1606 C1607 1.394 . S
C1606 C1612 1.465 . S
C1607 C1602 1.399 . S
C1607 C1606 1.394 . S
C1607 C1608 1.516 . S
C1608 C1607 1.516 . S
C1608 C1609 1.502 . S
C1608 C1610 1.561 . S
C1608 C1611 1.526 . S
C1609 H1593 0.959 . S
C1609 H1594 0.959 . S
C1609 H1595 0.961 . S
C1609 C1608 1.502 . S
C1610 H1596 0.960 . S
C1610 H1597 0.961 . S
C1610 H1598 0.959 . S
C1610 C1608 1.561 . S
C1611 C1608 1.526 . S
C1611 C1612 1.396 . S
C1611 C1616 1.390 . S
C1612 C1606 1.465 . S
C1612 C1611 1.396 . S
C1612 C1613 1.399 . S
C1613 H1599 0.929 . S
C1613 C1612 1.399 . S
C1613 C1614 1.385 . S
C1614 H1600 0.931 . S
C1614 C1613 1.385 . S
C1614 C1615 1.389 . S
C1615 C1614 1.389 . S
C1615 C1616 1.387 . S
C1616 H1601 0.930 . S
C1616 C1611 1.390 . S
C1616 C1615 1.387 . S
H1617 C1629 0.930 . S
H1618 C1631 0.930 . S
H1619 C1632 0.930 . S
H1620 C1636 0.959 . S
H1621 C1636 0.959 . S
H1622 C1636 0.961 . S
H1623 C1637 0.960 . S
H1624 C1637 0.961 . S
H1625 C1637 0.959 . S
H1626 C1640 0.929 . S
H1627 C1641 0.931 . S
H1628 C1643 0.930 . S
C1629 H1617 0.930 . S
C1629 C1630 1.399 . S
C1629 C1634 1.399 . S
C1630 C1629 1.399 . S
C1630 C1631 1.376 . S
C1631 H1618 0.930 . S
C1631 C1630 1.376 . S
C1631 C1632 1.388 . S
C1632 H1619 0.930 . S
C1632 C1631 1.388 . S
C1632 C1633 1.390 . S
C1633 C1632 1.390 . S
C1633 C1634 1.394 . S
C1633 C1639 1.465 . S
C1634 C1629 1.399 . S
C1634 C1633 1.394 . S
C1634 C1635 1.516 . S
C1635 C1634 1.516 . S
C1635 C1636 1.502 . S
C1635 C1637 1.561 . S
C1635 C1638 1.526 . S
C1636 H1620 0.959 . S
C1636 H1621 0.959 . S
C1636 H1622 0.961 . S
C1636 C1635 1.502 . S
C1637 H1623 0.960 . S
C1637 H1624 0.961 . S
C1637 H1625 0.959 . S
C1637 C1635 1.561 . S
C1638 C1635 1.526 . S
C1638 C1639 1.396 . S
C1638 C1643 1.390 . S
C1639 C1633 1.465 . S
C1639 C1638 1.396 . S
C1639 C1640 1.399 . S
C1640 H1626 0.929 . S
C1640 C1639 1.399 . S
C1640 C1641 1.385 . S
C1641 H1627 0.931 . S
C1641 C1640 1.385 . S
C1641 C1642 1.389 . S
C1642 C1641 1.389 . S
C1642 C1643 1.387 . S
C1643 H1628 0.930 . S
C1643 C1638 1.390 . S
C1643 C1642 1.387 . S
H1644 C1656 0.930 . S
H1645 C1658 0.930 . S
H1646 C1659 0.930 . S
H1647 C1663 0.959 . S
H1648 C1663 0.959 . S
H1649 C1663 0.961 . S
H1650 C1664 0.960 . S
H1651 C1664 0.961 . S
H1652 C1664 0.959 . S
H1653 C1667 0.929 . S
H1654 C1668 0.931 . S
H1655 C1670 0.930 . S
C1656 H1644 0.930 . S
C1656 C1657 1.399 . S
C1656 C1661 1.399 . S
C1657 C1656 1.399 . S
C1657 C1658 1.376 . S
C1658 H1645 0.930 . S
C1658 C1657 1.376 . S
C1658 C1659 1.388 . S
C1659 H1646 0.930 . S
C1659 C1658 1.388 . S
C1659 C1660 1.390 . S
C1660 C1659 1.390 . S
C1660 C1661 1.394 . S
C1660 C1666 1.465 . S
C1661 C1656 1.399 . S
C1661 C1660 1.394 . S
C1661 C1662 1.516 . S
C1662 C1661 1.516 . S
C1662 C1663 1.502 . S
C1662 C1664 1.561 . S
C1662 C1665 1.526 . S
C1663 H1647 0.959 . S
C1663 H1648 0.959 . S
C1663 H1649 0.961 . S
C1663 C1662 1.502 . S
C1664 H1650 0.960 . S
C1664 H1651 0.961 . S
C1664 H1652 0.959 . S
C1664 C1662 1.561 . S
C1665 C1662 1.526 . S
C1665 C1666 1.396 . S
C1665 C1670 1.390 . S
C1666 C1660 1.465 . S
C1666 C1665 1.396 . S
C1666 C1667 1.399 . S
C1667 H1653 0.929 . S
C1667 C1666 1.399 . S
C1667 C1668 1.385 . S
C1668 H1654 0.931 . S
C1668 C1667 1.385 . S
C1668 C1669 1.389 . S
C1669 C1668 1.389 . S
C1669 C1670 1.387 . S
C1670 H1655 0.930 . S
C1670 C1665 1.390 . S
C1670 C1669 1.387 . S
H1671 C1683 0.930 . S
H1672 C1685 0.930 . S
H1673 C1686 0.930 . S
H1674 C1690 0.959 . S
H1675 C1690 0.959 . S
H1676 C1690 0.961 . S
H1677 C1691 0.960 . S
H1678 C1691 0.961 . S
H1679 C1691 0.959 . S
H1680 C1694 0.929 . S
H1681 C1695 0.931 . S
H1682 C1697 0.930 . S
C1683 H1671 0.930 . S
C1683 C1684 1.399 . S
C1683 C1688 1.399 . S
C1684 C1683 1.399 . S
C1684 C1685 1.376 . S
C1685 H1672 0.930 . S
C1685 C1684 1.376 . S
C1685 C1686 1.388 . S
C1686 H1673 0.930 . S
C1686 C1685 1.388 . S
C1686 C1687 1.390 . S
C1687 C1686 1.390 . S
C1687 C1688 1.394 . S
C1687 C1693 1.465 . S
C1688 C1683 1.399 . S
C1688 C1687 1.394 . S
C1688 C1689 1.516 . S
C1689 C1688 1.516 . S
C1689 C1690 1.502 . S
C1689 C1691 1.561 . S
C1689 C1692 1.526 . S
C1690 H1674 0.959 . S
C1690 H1675 0.959 . S
C1690 H1676 0.961 . S
C1690 C1689 1.502 . S
C1691 H1677 0.960 . S
C1691 H1678 0.961 . S
C1691 H1679 0.959 . S
C1691 C1689 1.561 . S
C1692 C1689 1.526 . S
C1692 C1693 1.396 . S
C1692 C1697 1.390 . S
C1693 C1687 1.465 . S
C1693 C1692 1.396 . S
C1693 C1694 1.399 . S
C1694 H1680 0.929 . S
C1694 C1693 1.399 . S
C1694 C1695 1.385 . S
C1695 H1681 0.931 . S
C1695 C1694 1.385 . S
C1695 C1696 1.389 . S
C1696 C1695 1.389 . S
C1696 C1697 1.387 . S
C1697 H1682 0.930 . S
C1697 C1692 1.390 . S
C1697 C1696 1.387 . S
H1698 C1710 0.930 . S
H1699 C1712 0.930 . S
H1700 C1713 0.930 . S
H1701 C1717 0.959 . S
H1702 C1717 0.959 . S
H1703 C1717 0.961 . S
H1704 C1718 0.960 . S
H1705 C1718 0.961 . S
H1706 C1718 0.959 . S
H1707 C1721 0.929 . S
H1708 C1722 0.931 . S
H1709 C1724 0.930 . S
C1710 H1698 0.930 . S
C1710 C1711 1.399 . S
C1710 C1715 1.399 . S
C1711 C1710 1.399 . S
C1711 C1712 1.376 . S
C1712 H1699 0.930 . S
C1712 C1711 1.376 . S
C1712 C1713 1.388 . S
C1713 H1700 0.930 . S
C1713 C1712 1.388 . S
C1713 C1714 1.390 . S
C1714 C1713 1.390 . S
C1714 C1715 1.394 . S
C1714 C1720 1.465 . S
C1715 C1710 1.399 . S
C1715 C1714 1.394 . S
C1715 C1716 1.516 . S
C1716 C1715 1.516 . S
C1716 C1717 1.502 . S
C1716 C1718 1.561 . S
C1716 C1719 1.526 . S
C1717 H1701 0.959 . S
C1717 H1702 0.959 . S
C1717 H1703 0.961 . S
C1717 C1716 1.502 . S
C1718 H1704 0.960 . S
C1718 H1705 0.961 . S
C1718 H1706 0.959 . S
C1718 C1716 1.561 . S
C1719 C1716 1.526 . S
C1719 C1720 1.396 . S
C1719 C1724 1.390 . S
C1720 C1714 1.465 . S
C1720 C1719 1.396 . S
C1720 C1721 1.399 . S
C1721 H1707 0.929 . S
C1721 C1720 1.399 . S
C1721 C1722 1.385 . S
C1722 H1708 0.931 . S
C1722 C1721 1.385 . S
C1722 C1723 1.389 . S
C1723 C1722 1.389 . S
C1723 C1724 1.387 . S
C1724 H1709 0.930 . S
C1724 C1719 1.390 . S
C1724 C1723 1.387 . S
H1725 C1737 0.930 . S
H1726 C1739 0.930 . S
H1727 C1740 0.930 . S
H1728 C1744 0.959 . S
H1729 C1744 0.959 . S
H1730 C1744 0.961 . S
H1731 C1745 0.960 . S
H1732 C1745 0.961 . S
H1733 C1745 0.956 . S
H1734 C1748 0.929 . S
H1735 C1749 0.931 1_545 S
H1736 C1751 0.930 . S
C1737 H1725 0.930 . S
C1737 C1738 1.399 . S
C1737 C1742 1.399 . S
C1738 C1737 1.399 . S
C1738 C1739 1.376 . S
C1739 H1726 0.930 . S
C1739 C1738 1.376 . S
C1739 C1740 1.388 . S
C1740 H1727 0.930 . S
C1740 C1739 1.388 . S
C1740 C1741 1.390 . S
C1741 C1740 1.390 . S
C1741 C1742 1.394 . S
C1741 C1747 1.465 . S
C1742 C1737 1.399 . S
C1742 C1741 1.394 . S
C1742 C1743 1.516 . S
C1743 C1742 1.516 . S
C1743 C1744 1.502 . S
C1743 C1745 1.561 . S
C1743 C1746 1.526 . S
C1744 H1728 0.959 . S
C1744 H1729 0.959 . S
C1744 H1730 0.961 . S
C1744 C1743 1.502 . S
C1745 H1731 0.960 . S
C1745 H1732 0.961 . S
C1745 H1733 0.956 . S
C1745 C1743 1.561 . S
C1746 C1743 1.526 . S
C1746 C1747 1.396 . S
C1746 C1751 1.390 . S
C1747 C1741 1.465 . S
C1747 C1746 1.396 . S
C1747 C1748 1.399 . S
C1748 H1734 0.929 . S
C1748 C1747 1.399 . S
C1748 C1749 1.385 . S
C1749 H1735 0.931 1_565 S
C1749 C1748 1.385 . S
C1749 C1750 1.389 . S
C1750 C1749 1.389 . S
C1750 C1751 1.387 . S
C1751 H1736 0.930 . S
C1751 C1746 1.390 . S
C1751 C1750 1.387 . S
H1752 C1764 0.930 . S
H1753 C1766 0.930 . S
H1754 C1767 0.930 . S
H1755 C1771 0.959 . S
H1756 C1771 0.959 . S
H1757 C1771 0.961 . S
H1758 C1772 0.960 . S
H1759 C1772 0.961 . S
H1760 C1772 0.959 . S
H1761 C1775 0.929 . S
H1762 C1776 0.931 . S
H1763 C1778 0.930 . S
C1764 H1752 0.930 . S
C1764 C1765 1.399 . S
C1764 C1769 1.399 . S
C1765 C1764 1.399 . S
C1765 C1766 1.376 . S
C1766 H1753 0.930 . S
C1766 C1765 1.376 . S
C1766 C1767 1.388 . S
C1767 H1754 0.930 . S
C1767 C1766 1.388 . S
C1767 C1768 1.390 . S
C1768 C1767 1.390 . S
C1768 C1769 1.394 . S
C1768 C1774 1.465 . S
C1769 C1764 1.399 . S
C1769 C1768 1.394 . S
C1769 C1770 1.516 . S
C1770 C1769 1.516 . S
C1770 C1771 1.502 . S
C1770 C1772 1.561 . S
C1770 C1773 1.526 . S
C1771 H1755 0.959 . S
C1771 H1756 0.959 . S
C1771 H1757 0.961 . S
C1771 C1770 1.502 . S
C1772 H1758 0.960 . S
C1772 H1759 0.961 . S
C1772 H1760 0.959 . S
C1772 C1770 1.561 . S
C1773 C1770 1.526 . S
C1773 C1774 1.396 . S
C1773 C1778 1.390 . S
C1774 C1768 1.465 . S
C1774 C1773 1.396 . S
C1774 C1775 1.399 . S
C1775 H1761 0.929 . S
C1775 C1774 1.399 . S
C1775 C1776 1.385 . S
C1776 H1762 0.931 . S
C1776 C1775 1.385 . S
C1776 C1777 1.389 . S
C1777 C1776 1.389 . S
C1777 C1778 1.387 . S
C1778 H1763 0.930 . S
C1778 C1773 1.390 . S
C1778 C1777 1.387 . S
H1779 C1791 0.930 . S
H1780 C1793 0.930 . S
H1781 C1794 0.930 . S
H1782 C1798 0.959 . S
H1783 C1798 0.959 . S
H1784 C1798 0.961 . S
H1785 C1799 0.960 . S
H1786 C1799 0.961 . S
H1787 C1799 0.959 . S
H1788 C1802 0.929 . S
H1789 C1803 0.931 . S
H1790 C1805 0.930 . S
C1791 H1779 0.930 . S
C1791 C1792 1.399 . S
C1791 C1796 1.399 . S
C1792 C1791 1.399 . S
C1792 C1793 1.376 . S
C1793 H1780 0.930 . S
C1793 C1792 1.376 . S
C1793 C1794 1.388 . S
C1794 H1781 0.930 . S
C1794 C1793 1.388 . S
C1794 C1795 1.390 . S
C1795 C1794 1.390 . S
C1795 C1796 1.394 . S
C1795 C1801 1.465 . S
C1796 C1791 1.399 . S
C1796 C1795 1.394 . S
C1796 C1797 1.516 . S
C1797 C1796 1.516 . S
C1797 C1798 1.502 . S
C1797 C1799 1.561 . S
C1797 C1800 1.526 . S
C1798 H1782 0.959 . S
C1798 H1783 0.959 . S
C1798 H1784 0.961 . S
C1798 C1797 1.502 . S
C1799 H1785 0.960 . S
C1799 H1786 0.961 . S
C1799 H1787 0.959 . S
C1799 C1797 1.561 . S
C1800 C1797 1.526 . S
C1800 C1801 1.396 . S
C1800 C1805 1.390 . S
C1801 C1795 1.465 . S
C1801 C1800 1.396 . S
C1801 C1802 1.399 . S
C1802 H1788 0.929 . S
C1802 C1801 1.399 . S
C1802 C1803 1.385 . S
C1803 H1789 0.931 . S
C1803 C1802 1.385 . S
C1803 C1804 1.389 . S
C1804 C1803 1.389 . S
C1804 C1805 1.387 . S
C1805 H1790 0.930 . S
C1805 C1800 1.390 . S
C1805 C1804 1.387 . S
H1806 C1818 0.930 . S
H1807 C1820 0.930 1_556 S
H1808 C1821 0.930 1_556 S
H1809 C1825 0.959 . S
H1810 C1825 0.959 . S
H1811 C1825 0.961 . S
H1812 C1826 0.960 . S
H1813 C1826 0.961 . S
H1814 C1826 0.959 . S
H1815 C1829 0.929 . S
H1816 C1830 0.931 . S
H1817 C1832 0.930 . S
C1818 H1806 0.930 . S
C1818 C1819 1.399 . S
C1818 C1823 1.399 . S
C1819 C1818 1.399 . S
C1819 C1820 1.376 . S
C1820 H1807 0.930 1_554 S
C1820 C1819 1.376 . S
C1820 C1821 1.388 . S
C1821 H1808 0.930 1_554 S
C1821 C1820 1.388 . S
C1821 C1822 1.390 . S
C1822 C1821 1.390 . S
C1822 C1823 1.394 . S
C1822 C1828 1.465 . S
C1823 C1818 1.399 . S
C1823 C1822 1.394 . S
C1823 C1824 1.516 . S
C1824 C1823 1.516 . S
C1824 C1825 1.502 . S
C1824 C1826 1.561 . S
C1824 C1827 1.526 . S
C1825 H1809 0.959 . S
C1825 H1810 0.959 . S
C1825 H1811 0.961 . S
C1825 C1824 1.502 . S
C1826 H1812 0.960 . S
C1826 H1813 0.961 . S
C1826 H1814 0.959 . S
C1826 C1824 1.561 . S
C1827 C1824 1.526 . S
C1827 C1828 1.396 . S
C1827 C1832 1.390 . S
C1828 C1822 1.465 . S
C1828 C1827 1.396 . S
C1828 C1829 1.399 . S
C1829 H1815 0.929 . S
C1829 C1828 1.399 . S
C1829 C1830 1.385 . S
C1830 H1816 0.931 . S
C1830 C1829 1.385 . S
C1830 C1831 1.389 . S
C1831 C1830 1.389 . S
C1831 C1832 1.387 . S
C1832 H1817 0.930 . S
C1832 C1827 1.390 . S
C1832 C1831 1.387 . S
H1833 C1845 0.930 . S
H1834 C1847 0.930 . S
H1835 C1848 0.930 . S
H1836 C1852 0.959 . S
H1837 C1852 0.959 . S
H1838 C1852 0.961 . S
H1839 C1853 0.960 . S
H1840 C1853 0.961 . S
H1841 C1853 0.959 . S
H1842 C1856 0.929 . S
H1843 C1857 0.931 . S
H1844 C1859 0.930 . S
C1845 H1833 0.930 . S
C1845 C1846 1.399 . S
C1845 C1850 1.399 . S
C1846 C1845 1.399 . S
C1846 C1847 1.376 . S
C1847 H1834 0.930 . S
C1847 C1846 1.376 . S
C1847 C1848 1.388 . S
C1848 H1835 0.930 . S
C1848 C1847 1.388 . S
C1848 C1849 1.390 . S
C1849 C1848 1.390 . S
C1849 C1850 1.394 . S
C1849 C1855 1.465 . S
C1850 C1845 1.399 . S
C1850 C1849 1.394 . S
C1850 C1851 1.516 . S
C1851 C1850 1.516 . S
C1851 C1852 1.502 . S
C1851 C1853 1.561 . S
C1851 C1854 1.526 . S
C1852 H1836 0.959 . S
C1852 H1837 0.959 . S
C1852 H1838 0.961 . S
C1852 C1851 1.502 . S
C1853 H1839 0.960 . S
C1853 H1840 0.961 . S
C1853 H1841 0.959 . S
C1853 C1851 1.561 . S
C1854 C1851 1.526 . S
C1854 C1855 1.396 . S
C1854 C1859 1.390 . S
C1855 C1849 1.465 . S
C1855 C1854 1.396 . S
C1855 C1856 1.399 . S
C1856 H1842 0.929 . S
C1856 C1855 1.399 . S
C1856 C1857 1.385 . S
C1857 H1843 0.931 . S
C1857 C1856 1.385 . S
C1857 C1858 1.389 . S
C1858 C1857 1.389 . S
C1858 C1859 1.387 . S
C1859 H1844 0.930 . S
C1859 C1854 1.390 . S
C1859 C1858 1.387 . S
H1860 C1872 0.930 . S
H1861 C1874 0.930 . S
H1862 C1875 0.930 1_556 S
H1863 C1879 0.959 . S
H1864 C1879 0.959 . S
H1865 C1879 0.961 . S
H1866 C1880 0.960 . S
H1867 C1880 0.961 . S
H1868 C1880 0.959 . S
H1869 C1883 0.929 . S
H1870 C1884 0.931 . S
H1871 C1886 0.930 . S
C1872 H1860 0.930 . S
C1872 C1873 1.399 . S
C1872 C1877 1.399 . S
C1873 C1872 1.399 . S
C1873 C1874 1.376 . S
C1874 H1861 0.930 . S
C1874 C1873 1.376 . S
C1874 C1875 1.388 . S
C1875 H1862 0.930 1_554 S
C1875 C1874 1.388 . S
C1875 C1876 1.390 . S
C1876 C1875 1.390 . S
C1876 C1877 1.394 . S
C1876 C1882 1.465 . S
C1877 C1872 1.399 . S
C1877 C1876 1.394 . S
C1877 C1878 1.516 . S
C1878 C1877 1.516 . S
C1878 C1879 1.502 . S
C1878 C1880 1.561 . S
C1878 C1881 1.526 . S
C1879 H1863 0.959 . S
C1879 H1864 0.959 . S
C1879 H1865 0.961 . S
C1879 C1878 1.502 . S
C1880 H1866 0.960 . S
C1880 H1867 0.961 . S
C1880 H1868 0.959 . S
C1880 C1878 1.561 . S
C1881 C1878 1.526 . S
C1881 C1882 1.396 . S
C1881 C1886 1.390 . S
C1882 C1876 1.465 . S
C1882 C1881 1.396 . S
C1882 C1883 1.399 1_554 S
C1883 H1869 0.929 . S
C1883 C1882 1.399 1_556 S
C1883 C1884 1.385 . S
C1884 H1870 0.931 . S
C1884 C1883 1.385 . S
C1884 C1885 1.389 1_556 S
C1885 C1884 1.389 1_554 S
C1885 C1886 1.387 . S
C1886 H1871 0.930 . S
C1886 C1881 1.390 . S
C1886 C1885 1.387 . S
H1887 C1899 0.930 . S
H1888 C1901 0.930 . S
H1889 C1902 0.930 . S
H1890 C1906 0.959 . S
H1891 C1906 0.959 . S
H1892 C1906 0.961 . S
H1893 C1907 0.960 . S
H1894 C1907 0.961 . S
H1895 C1907 0.959 . S
H1896 C1910 0.929 . S
H1897 C1911 0.931 . S
H1898 C1913 0.930 . S
C1899 H1887 0.930 . S
C1899 C1900 1.399 . S
C1899 C1904 1.399 . S
C1900 C1899 1.399 . S
C1900 C1901 1.376 . S
C1901 H1888 0.930 . S
C1901 C1900 1.376 . S
C1901 C1902 1.388 . S
C1902 H1889 0.930 . S
C1902 C1901 1.388 . S
C1902 C1903 1.390 . S
C1903 C1902 1.390 . S
C1903 C1904 1.394 . S
C1903 C1909 1.465 . S
C1904 C1899 1.399 . S
C1904 C1903 1.394 . S
C1904 C1905 1.516 . S
C1905 C1904 1.516 . S
C1905 C1906 1.502 . S
C1905 C1907 1.561 . S
C1905 C1908 1.526 . S
C1906 H1890 0.959 . S
C1906 H1891 0.959 . S
C1906 H1892 0.961 . S
C1906 C1905 1.502 . S
C1907 H1893 0.960 . S
C1907 H1894 0.961 . S
C1907 H1895 0.959 . S
C1907 C1905 1.561 . S
C1908 C1905 1.526 . S
C1908 C1909 1.396 . S
C1908 C1913 1.390 . S
C1909 C1903 1.465 . S
C1909 C1908 1.396 . S
C1909 C1910 1.399 . S
C1910 H1896 0.929 . S
C1910 C1909 1.399 . S
C1910 C1911 1.385 . S
C1911 H1897 0.931 . S
C1911 C1910 1.385 . S
C1911 C1912 1.389 . S
C1912 C1911 1.389 . S
C1912 C1913 1.387 . S
C1913 H1898 0.930 . S
C1913 C1908 1.390 . S
C1913 C1912 1.387 . S
H1914 C1926 0.930 . S
H1915 C1928 0.930 . S
H1916 C1929 0.930 . S
H1917 C1933 0.959 . S
H1918 C1933 0.959 . S
H1919 C1933 0.961 . S
H1920 C1934 0.960 . S
H1921 C1934 0.961 . S
H1922 C1934 0.959 . S
H1923 C1937 0.929 . S
H1924 C1938 0.931 . S
H1925 C1940 0.930 . S
C1926 H1914 0.930 . S
C1926 C1927 1.399 . S
C1926 C1931 1.399 . S
C1927 C1926 1.399 . S
C1927 C1928 1.376 . S
C1928 H1915 0.930 . S
C1928 C1927 1.376 . S
C1928 C1929 1.388 . S
C1929 H1916 0.930 . S
C1929 C1928 1.388 . S
C1929 C1930 1.390 . S
C1930 C1929 1.390 . S
C1930 C1931 1.394 . S
C1930 C1936 1.465 . S
C1931 C1926 1.399 . S
C1931 C1930 1.394 . S
C1931 C1932 1.516 . S
C1932 C1931 1.516 . S
C1932 C1933 1.502 . S
C1932 C1934 1.561 . S
C1932 C1935 1.526 . S
C1933 H1917 0.959 . S
C1933 H1918 0.959 . S
C1933 H1919 0.961 . S
C1933 C1932 1.502 . S
C1934 H1920 0.960 . S
C1934 H1921 0.961 . S
C1934 H1922 0.959 . S
C1934 C1932 1.561 . S
C1935 C1932 1.526 . S
C1935 C1936 1.396 . S
C1935 C1940 1.390 . S
C1936 C1930 1.465 . S
C1936 C1935 1.396 . S
C1936 C1937 1.399 . S
C1937 H1923 0.929 . S
C1937 C1936 1.399 . S
C1937 C1938 1.385 . S
C1938 H1924 0.931 . S
C1938 C1937 1.385 . S
C1938 C1939 1.389 . S
C1939 C1938 1.389 . S
C1939 C1940 1.387 . S
C1940 H1925 0.930 . S
C1940 C1935 1.390 . S
C1940 C1939 1.387 . S
H1941 C1953 0.949 . S
H1942 C1955 0.930 . S
H1943 C1956 0.930 . S
H1944 C1960 0.959 . S
H1945 C1960 0.959 . S
H1946 C1960 0.961 . S
H1947 C1961 0.960 . S
H1948 C1961 0.961 . S
H1949 C1961 0.959 . S
H1950 C1964 0.929 . S
H1951 C1965 0.931 . S
H1952 C1967 0.930 . S
C1953 H1941 0.949 . S
C1953 C1954 1.399 . S
C1953 C1958 1.399 . S
C1954 C1953 1.399 . S
C1954 C1955 1.376 . S
C1955 H1942 0.930 . S
C1955 C1954 1.376 . S
C1955 C1956 1.388 . S
C1956 H1943 0.930 . S
C1956 C1955 1.388 . S
C1956 C1957 1.390 . S
C1957 C1956 1.390 . S
C1957 C1958 1.394 . S
C1957 C1963 1.465 . S
C1958 C1953 1.399 . S
C1958 C1957 1.394 . S
C1958 C1959 1.516 . S
C1959 C1958 1.516 . S
C1959 C1960 1.502 . S
C1959 C1961 1.561 1_556 S
C1959 C1962 1.526 . S
C1960 H1944 0.959 . S
C1960 H1945 0.959 . S
C1960 H1946 0.961 . S
C1960 C1959 1.502 . S
C1961 H1947 0.960 . S
C1961 H1948 0.961 . S
C1961 H1949 0.959 . S
C1961 C1959 1.561 1_554 S
C1962 C1959 1.526 . S
C1962 C1963 1.396 . S
C1962 C1967 1.390 . S
C1963 C1957 1.465 . S
C1963 C1962 1.396 . S
C1963 C1964 1.399 . S
C1964 H1950 0.929 . S
C1964 C1963 1.399 . S
C1964 C1965 1.385 . S
C1965 H1951 0.931 . S
C1965 C1964 1.385 . S
C1965 C1966 1.389 . S
C1966 C1965 1.389 . S
C1966 C1967 1.387 . S
C1967 H1952 0.930 . S
C1967 C1962 1.390 . S
C1967 C1966 1.387 . S
H1968 C1980 0.930 . S
H1969 C1982 0.930 . S
H1970 C1983 0.930 . S
H1971 C1987 0.959 . S
H1972 C1987 0.959 . S
H1973 C1987 0.961 . S
H1974 C1988 0.960 . S
H1975 C1988 0.961 . S
H1976 C1988 0.959 . S
H1977 C1991 0.929 . S
H1978 C1992 0.931 . S
H1979 C1994 0.930 . S
C1980 H1968 0.930 . S
C1980 C1981 1.399 . S
C1980 C1985 1.399 . S
C1981 C1980 1.399 . S
C1981 C1982 1.376 . S
C1982 H1969 0.930 . S
C1982 C1981 1.376 . S
C1982 C1983 1.388 . S
C1983 H1970 0.930 . S
C1983 C1982 1.388 . S
C1983 C1984 1.390 . S
C1984 C1983 1.390 . S
C1984 C1985 1.394 . S
C1984 C1990 1.465 . S
C1985 C1980 1.399 . S
C1985 C1984 1.394 . S
C1985 C1986 1.516 . S
C1986 C1985 1.516 . S
C1986 C1987 1.502 . S
C1986 C1988 1.561 . S
C1986 C1989 1.526 . S
C1987 H1971 0.959 . S
C1987 H1972 0.959 . S
C1987 H1973 0.961 . S
C1987 C1986 1.502 . S
C1988 H1974 0.960 . S
C1988 H1975 0.961 . S
C1988 H1976 0.959 . S
C1988 C1986 1.561 . S
C1989 C1986 1.526 . S
C1989 C1990 1.396 . S
C1989 C1994 1.390 . S
C1990 C1984 1.465 . S
C1990 C1989 1.396 . S
C1990 C1991 1.399 . S
C1991 H1977 0.929 . S
C1991 C1990 1.399 . S
C1991 C1992 1.385 . S
C1992 H1978 0.931 . S
C1992 C1991 1.385 . S
C1992 C1993 1.389 . S
C1993 C1992 1.389 . S
C1993 C1994 1.387 . S
C1994 H1979 0.930 . S
C1994 C1989 1.390 . S
C1994 C1993 1.387 . S
H1995 C2007 0.930 . S
H1996 C2009 0.930 . S
H1997 C2010 0.930 . S
H1998 C2014 0.959 . S
H1999 C2014 0.959 . S
H2000 C2014 0.961 . S
H2001 C2015 0.960 . S
H2002 C2015 0.961 . S
H2003 C2015 0.959 . S
H2004 C2018 0.929 . S
H2005 C2019 0.931 . S
H2006 C2021 0.930 . S
C2007 H1995 0.930 . S
C2007 C2008 1.399 . S
C2007 C2012 1.399 . S
C2008 C2007 1.399 . S
C2008 C2009 1.376 . S
C2009 H1996 0.930 . S
C2009 C2008 1.376 . S
C2009 C2010 1.388 . S
C2010 H1997 0.930 . S
C2010 C2009 1.388 . S
C2010 C2011 1.390 . S
C2011 C2010 1.390 . S
C2011 C2012 1.394 . S
C2011 C2017 1.465 . S
C2012 C2007 1.399 . S
C2012 C2011 1.394 . S
C2012 C2013 1.516 . S
C2013 C2012 1.516 . S
C2013 C2014 1.502 . S
C2013 C2015 1.561 . S
C2013 C2016 1.526 . S
C2014 H1998 0.959 . S
C2014 H1999 0.959 . S
C2014 H2000 0.961 . S
C2014 C2013 1.502 . S
C2015 H2001 0.960 . S
C2015 H2002 0.961 . S
C2015 H2003 0.959 . S
C2015 C2013 1.561 . S
C2016 C2013 1.526 . S
C2016 C2017 1.396 . S
C2016 C2021 1.390 . S
C2017 C2011 1.465 . S
C2017 C2016 1.396 . S
C2017 C2018 1.399 . S
C2018 H2004 0.929 . S
C2018 C2017 1.399 . S
C2018 C2019 1.385 . S
C2019 H2005 0.931 . S
C2019 C2018 1.385 . S
C2019 C2020 1.389 . S
C2020 C2019 1.389 . S
C2020 C2021 1.387 . S
C2021 H2006 0.930 . S
C2021 C2016 1.390 . S
C2021 C2020 1.387 . S
H2022 C2034 0.930 . S
H2023 C2036 0.930 . S
H2024 C2037 0.930 . S
H2025 C2041 0.959 . S
H2026 C2041 0.959 . S
H2027 C2041 0.961 . S
H2028 C2042 0.960 . S
H2029 C2042 0.961 . S
H2030 C2042 0.959 . S
H2031 C2045 0.929 . S
H2032 C2046 0.931 . S
H2033 C2048 0.930 . S
C2034 H2022 0.930 . S
C2034 C2035 1.399 . S
C2034 C2039 1.399 . S
C2035 C2034 1.399 . S
C2035 C2036 1.376 . S
C2036 H2023 0.930 . S
C2036 C2035 1.376 . S
C2036 C2037 1.388 . S
C2037 H2024 0.930 . S
C2037 C2036 1.388 . S
C2037 C2038 1.390 . S
C2038 C2037 1.390 . S
C2038 C2039 1.394 . S
C2038 C2044 1.465 . S
C2039 C2034 1.399 . S
C2039 C2038 1.394 . S
C2039 C2040 1.516 . S
C2040 C2039 1.516 . S
C2040 C2041 1.502 . S
C2040 C2042 1.561 . S
C2040 C2043 1.526 . S
C2041 H2025 0.959 . S
C2041 H2026 0.959 . S
C2041 H2027 0.961 . S
C2041 C2040 1.502 . S
C2042 H2028 0.960 . S
C2042 H2029 0.961 . S
C2042 H2030 0.959 . S
C2042 C2040 1.561 . S
C2043 C2040 1.526 . S
C2043 C2044 1.396 . S
C2043 C2048 1.390 . S
C2044 C2038 1.465 . S
C2044 C2043 1.396 . S
C2044 C2045 1.399 . S
C2045 H2031 0.929 . S
C2045 C2044 1.399 . S
C2045 C2046 1.385 . S
C2046 H2032 0.931 . S
C2046 C2045 1.385 . S
C2046 C2047 1.389 . S
C2047 C2046 1.389 . S
C2047 C2048 1.387 . S
C2048 H2033 0.930 . S
C2048 C2043 1.390 . S
C2048 C2047 1.387 . S
H2049 C2061 0.930 . S
H2050 C2063 0.930 . S
H2051 C2064 0.930 . S
H2052 C2068 0.959 . S
H2053 C2068 0.959 . S
H2054 C2068 0.961 . S
H2055 C2069 0.960 . S
H2056 C2069 0.961 . S
H2057 C2069 0.959 . S
H2058 C2072 0.929 . S
H2059 C2073 0.931 . S
H2060 C2075 0.930 . S
C2061 H2049 0.930 . S
C2061 C2062 1.399 . S
C2061 C2066 1.399 . S
C2062 C2061 1.399 . S
C2062 C2063 1.376 . S
C2063 H2050 0.930 . S
C2063 C2062 1.376 . S
C2063 C2064 1.388 . S
C2064 H2051 0.930 . S
C2064 C2063 1.388 . S
C2064 C2065 1.390 . S
C2065 C2064 1.390 . S
C2065 C2066 1.394 . S
C2065 C2071 1.465 . S
C2066 C2061 1.399 . S
C2066 C2065 1.394 . S
C2066 C2067 1.516 . S
C2067 C2066 1.516 . S
C2067 C2068 1.502 . S
C2067 C2069 1.561 . S
C2067 C2070 1.526 . S
C2068 H2052 0.959 . S
C2068 H2053 0.959 . S
C2068 H2054 0.961 . S
C2068 C2067 1.502 . S
C2069 H2055 0.960 . S
C2069 H2056 0.961 . S
C2069 H2057 0.959 . S
C2069 C2067 1.561 . S
C2070 C2067 1.526 . S
C2070 C2071 1.396 . S
C2070 C2075 1.390 . S
C2071 C2065 1.465 . S
C2071 C2070 1.396 . S
C2071 C2072 1.399 . S
C2072 H2058 0.929 . S
C2072 C2071 1.399 . S
C2072 C2073 1.385 . S
C2073 H2059 0.931 . S
C2073 C2072 1.385 . S
C2073 C2074 1.389 . S
C2074 C2073 1.389 . S
C2074 C2075 1.387 . S
C2075 H2060 0.930 . S
C2075 C2070 1.390 . S
C2075 C2074 1.387 . S
H2076 C2088 0.930 . S
H2077 C2090 0.930 . S
H2078 C2091 0.930 . S
H2079 C2095 0.959 . S
H2080 C2095 0.959 . S
H2081 C2095 0.961 . S
H2082 C2096 0.960 . S
H2083 C2096 0.961 . S
H2084 C2096 0.959 . S
H2085 C2099 0.929 . S
H2086 C2100 0.931 . S
H2087 C2102 0.930 . S
C2088 H2076 0.930 . S
C2088 C2089 1.399 . S
C2088 C2093 1.399 . S
C2089 C2088 1.399 . S
C2089 C2090 1.376 . S
C2090 H2077 0.930 . S
C2090 C2089 1.376 . S
C2090 C2091 1.388 . S
C2091 H2078 0.930 . S
C2091 C2090 1.388 . S
C2091 C2092 1.390 . S
C2092 C2091 1.390 . S
C2092 C2093 1.394 . S
C2092 C2098 1.465 . S
C2093 C2088 1.399 . S
C2093 C2092 1.394 . S
C2093 C2094 1.516 . S
C2094 C2093 1.516 . S
C2094 C2095 1.502 . S
C2094 C2096 1.561 . S
C2094 C2097 1.526 . S
C2095 H2079 0.959 . S
C2095 H2080 0.959 . S
C2095 H2081 0.961 . S
C2095 C2094 1.502 . S
C2096 H2082 0.960 . S
C2096 H2083 0.961 . S
C2096 H2084 0.959 . S
C2096 C2094 1.561 . S
C2097 C2094 1.526 . S
C2097 C2098 1.396 . S
C2097 C2102 1.390 . S
C2098 C2092 1.465 . S
C2098 C2097 1.396 . S
C2098 C2099 1.399 . S
C2099 H2085 0.929 . S
C2099 C2098 1.399 . S
C2099 C2100 1.385 . S
C2100 H2086 0.931 . S
C2100 C2099 1.385 . S
C2100 C2101 1.389 . S
C2101 C2100 1.389 . S
C2101 C2102 1.387 . S
C2102 H2087 0.930 . S
C2102 C2097 1.390 . S
C2102 C2101 1.387 . S
H2103 C2115 0.930 . S
H2104 C2117 0.930 . S
H2105 C2118 0.930 . S
H2106 C2122 0.959 . S
H2107 C2122 0.959 . S
H2108 C2122 0.961 . S
H2109 C2123 0.960 . S
H2110 C2123 0.961 . S
H2111 C2123 0.959 . S
H2112 C2126 0.929 . S
H2113 C2127 0.931 . S
H2114 C2129 0.930 . S
C2115 H2103 0.930 . S
C2115 C2116 1.399 . S
C2115 C2120 1.399 . S
C2116 C2115 1.399 . S
C2116 C2117 1.376 . S
C2117 H2104 0.930 . S
C2117 C2116 1.376 . S
C2117 C2118 1.388 . S
C2118 H2105 0.930 . S
C2118 C2117 1.388 . S
C2118 C2119 1.390 . S
C2119 C2118 1.390 . S
C2119 C2120 1.394 . S
C2119 C2125 1.465 . S
C2120 C2115 1.399 . S
C2120 C2119 1.394 . S
C2120 C2121 1.516 . S
C2121 C2120 1.516 . S
C2121 C2122 1.502 . S
C2121 C2123 1.561 . S
C2121 C2124 1.526 . S
C2122 H2106 0.959 . S
C2122 H2107 0.959 . S
C2122 H2108 0.961 . S
C2122 C2121 1.502 . S
C2123 H2109 0.960 . S
C2123 H2110 0.961 . S
C2123 H2111 0.959 . S
C2123 C2121 1.561 . S
C2124 C2121 1.526 . S
C2124 C2125 1.396 . S
C2124 C2129 1.390 . S
C2125 C2119 1.465 . S
C2125 C2124 1.396 . S
C2125 C2126 1.399 . S
C2126 H2112 0.929 . S
C2126 C2125 1.399 . S
C2126 C2127 1.385 . S
C2127 H2113 0.931 . S
C2127 C2126 1.385 . S
C2127 C2128 1.389 . S
C2128 C2127 1.389 . S
C2128 C2129 1.387 . S
C2129 H2114 0.930 . S
C2129 C2124 1.390 . S
C2129 C2128 1.387 . S
H2130 C2142 0.930 . S
H2131 C2144 0.930 . S
H2132 C2145 0.930 . S
H2133 C2149 0.959 . S
H2134 C2149 0.959 . S
H2135 C2149 0.961 . S
H2136 C2150 0.960 . S
H2137 C2150 0.961 . S
H2138 C2150 0.959 . S
H2139 C2153 0.929 . S
H2140 C2154 0.931 . S
H2141 C2156 0.930 . S
C2142 H2130 0.930 . S
C2142 C2143 1.399 . S
C2142 C2147 1.399 . S
C2143 C2142 1.399 . S
C2143 C2144 1.376 . S
C2144 H2131 0.930 . S
C2144 C2143 1.376 . S
C2144 C2145 1.388 . S
C2145 H2132 0.930 . S
C2145 C2144 1.388 . S
C2145 C2146 1.390 . S
C2146 C2145 1.390 . S
C2146 C2147 1.394 . S
C2146 C2152 1.465 . S
C2147 C2142 1.399 . S
C2147 C2146 1.394 . S
C2147 C2148 1.516 . S
C2148 C2147 1.516 . S
C2148 C2149 1.502 . S
C2148 C2150 1.561 . S
C2148 C2151 1.526 . S
C2149 H2133 0.959 . S
C2149 H2134 0.959 . S
C2149 H2135 0.961 . S
C2149 C2148 1.502 . S
C2150 H2136 0.960 . S
C2150 H2137 0.961 . S
C2150 H2138 0.959 . S
C2150 C2148 1.561 . S
C2151 C2148 1.526 . S
C2151 C2152 1.396 . S
C2151 C2156 1.390 . S
C2152 C2146 1.465 . S
C2152 C2151 1.396 . S
C2152 C2153 1.399 . S
C2153 H2139 0.929 . S
C2153 C2152 1.399 . S
C2153 C2154 1.385 . S
C2154 H2140 0.931 . S
C2154 C2153 1.385 . S
C2154 C2155 1.389 . S
C2155 C2154 1.389 . S
C2155 C2156 1.387 . S
C2156 H2141 0.930 . S
C2156 C2151 1.390 . S
C2156 C2155 1.387 . S
H2157 C2169 0.930 . S
H2158 C2171 0.930 . S
H2159 C2172 0.930 . S
H2160 C2176 0.959 . S
H2161 C2176 0.959 . S
H2162 C2176 0.961 . S
H2163 C2177 0.960 . S
H2164 C2177 0.961 . S
H2165 C2177 0.959 . S
H2166 C2180 0.929 . S
H2167 C2181 0.931 . S
H2168 C2183 0.930 . S
C2169 H2157 0.930 . S
C2169 C2170 1.399 . S
C2169 C2174 1.399 . S
C2170 C2169 1.399 . S
C2170 C2171 1.376 . S
C2171 H2158 0.930 . S
C2171 C2170 1.376 . S
C2171 C2172 1.388 . S
C2172 H2159 0.930 . S
C2172 C2171 1.388 . S
C2172 C2173 1.390 . S
C2173 C2172 1.390 . S
C2173 C2174 1.394 . S
C2173 C2179 1.465 . S
C2174 C2169 1.399 . S
C2174 C2173 1.394 . S
C2174 C2175 1.516 . S
C2175 C2174 1.516 . S
C2175 C2176 1.502 . S
C2175 C2177 1.561 . S
C2175 C2178 1.526 . S
C2176 H2160 0.959 . S
C2176 H2161 0.959 . S
C2176 H2162 0.961 . S
C2176 C2175 1.502 . S
C2177 H2163 0.960 . S
C2177 H2164 0.961 . S
C2177 H2165 0.959 . S
C2177 C2175 1.561 . S
C2178 C2175 1.526 . S
C2178 C2179 1.396 . S
C2178 C2183 1.390 . S
C2179 C2173 1.465 . S
C2179 C2178 1.396 . S
C2179 C2180 1.399 . S
C2180 H2166 0.929 . S
C2180 C2179 1.399 . S
C2180 C2181 1.385 . S
C2181 H2167 0.931 . S
C2181 C2180 1.385 . S
C2181 C2182 1.389 . S
C2182 C2181 1.389 . S
C2182 C2183 1.387 . S
C2183 H2168 0.930 . S
C2183 C2178 1.390 . S
C2183 C2182 1.387 . S
H2184 C2196 0.930 . S
H2185 C2198 0.930 . S
H2186 C2199 0.930 . S
H2187 C2203 0.959 . S
H2188 C2203 0.959 . S
H2189 C2203 0.961 . S
H2190 C2204 0.960 . S
H2191 C2204 0.961 . S
H2192 C2204 0.959 . S
H2193 C2207 0.929 . S
H2194 C2208 0.931 . S
H2195 C2210 0.930 . S
C2196 H2184 0.930 . S
C2196 C2197 1.399 . S
C2196 C2201 1.399 . S
C2197 C2196 1.399 . S
C2197 C2198 1.376 . S
C2198 H2185 0.930 . S
C2198 C2197 1.376 . S
C2198 C2199 1.388 . S
C2199 H2186 0.930 . S
C2199 C2198 1.388 . S
C2199 C2200 1.390 . S
C2200 C2199 1.390 . S
C2200 C2201 1.394 . S
C2200 C2206 1.465 . S
C2201 C2196 1.399 . S
C2201 C2200 1.394 . S
C2201 C2202 1.516 . S
C2202 C2201 1.516 . S
C2202 C2203 1.502 . S
C2202 C2204 1.561 . S
C2202 C2205 1.526 . S
C2203 H2187 0.959 . S
C2203 H2188 0.959 . S
C2203 H2189 0.961 . S
C2203 C2202 1.502 . S
C2204 H2190 0.960 . S
C2204 H2191 0.961 . S
C2204 H2192 0.959 . S
C2204 C2202 1.561 . S
C2205 C2202 1.526 . S
C2205 C2206 1.396 . S
C2205 C2210 1.390 . S
C2206 C2200 1.465 . S
C2206 C2205 1.396 . S
C2206 C2207 1.399 . S
C2207 H2193 0.929 . S
C2207 C2206 1.399 . S
C2207 C2208 1.385 . S
C2208 H2194 0.931 . S
C2208 C2207 1.385 . S
C2208 C2209 1.389 . S
C2209 C2208 1.389 . S
C2209 C2210 1.387 . S
C2210 H2195 0.930 . S
C2210 C2205 1.390 . S
C2210 C2209 1.387 . S
H2211 C2223 0.930 . S
H2212 C2225 0.930 . S
H2213 C2226 0.930 . S
H2214 C2230 0.959 . S
H2215 C2230 0.959 . S
H2216 C2230 0.961 . S
H2217 C2231 0.960 . S
H2218 C2231 0.961 . S
H2219 C2231 0.959 . S
H2220 C2234 0.929 . S
H2221 C2235 0.931 . S
H2222 C2237 0.930 . S
C2223 H2211 0.930 . S
C2223 C2224 1.399 . S
C2223 C2228 1.399 . S
C2224 C2223 1.399 . S
C2224 C2225 1.376 . S
C2225 H2212 0.930 . S
C2225 C2224 1.376 . S
C2225 C2226 1.388 . S
C2226 H2213 0.930 . S
C2226 C2225 1.388 . S
C2226 C2227 1.390 . S
C2227 C2226 1.390 . S
C2227 C2228 1.394 . S
C2227 C2233 1.465 . S
C2228 C2223 1.399 . S
C2228 C2227 1.394 . S
C2228 C2229 1.516 . S
C2229 C2228 1.516 . S
C2229 C2230 1.502 . S
C2229 C2231 1.561 . S
C2229 C2232 1.526 . S
C2230 H2214 0.959 . S
C2230 H2215 0.959 . S
C2230 H2216 0.961 . S
C2230 C2229 1.502 . S
C2231 H2217 0.960 . S
C2231 H2218 0.961 . S
C2231 H2219 0.959 . S
C2231 C2229 1.561 . S
C2232 C2229 1.526 . S
C2232 C2233 1.396 . S
C2232 C2237 1.390 . S
C2233 C2227 1.465 . S
C2233 C2232 1.396 . S
C2233 C2234 1.399 . S
C2234 H2220 0.929 . S
C2234 C2233 1.399 . S
C2234 C2235 1.385 . S
C2235 H2221 0.931 . S
C2235 C2234 1.385 . S
C2235 C2236 1.389 . S
C2236 C2235 1.389 . S
C2236 C2237 1.387 . S
C2237 H2222 0.930 . S
C2237 C2232 1.390 . S
C2237 C2236 1.387 . S
H2238 C2250 0.930 . S
H2239 C2252 0.930 . S
H2240 C2253 0.930 . S
H2241 C2257 0.959 . S
H2242 C2257 0.959 . S
H2243 C2257 0.961 . S
H2244 C2258 0.960 . S
H2245 C2258 0.961 . S
H2246 C2258 0.959 . S
H2247 C2261 0.929 . S
H2248 C2262 0.931 . S
H2249 C2264 0.930 . S
C2250 H2238 0.930 . S
C2250 C2251 1.399 . S
C2250 C2255 1.399 . S
C2251 C2250 1.399 . S
C2251 C2252 1.376 . S
C2252 H2239 0.930 . S
C2252 C2251 1.376 . S
C2252 C2253 1.388 . S
C2253 H2240 0.930 . S
C2253 C2252 1.388 . S
C2253 C2254 1.390 . S
C2254 C2253 1.390 . S
C2254 C2255 1.394 . S
C2254 C2260 1.465 . S
C2255 C2250 1.399 . S
C2255 C2254 1.394 . S
C2255 C2256 1.516 . S
C2256 C2255 1.516 . S
C2256 C2257 1.502 . S
C2256 C2258 1.561 . S
C2256 C2259 1.526 . S
C2257 H2241 0.959 . S
C2257 H2242 0.959 . S
C2257 H2243 0.961 . S
C2257 C2256 1.502 . S
C2258 H2244 0.960 . S
C2258 H2245 0.961 . S
C2258 H2246 0.959 . S
C2258 C2256 1.561 . S
C2259 C2256 1.526 . S
C2259 C2260 1.396 . S
C2259 C2264 1.390 . S
C2260 C2254 1.465 . S
C2260 C2259 1.396 . S
C2260 C2261 1.399 . S
C2261 H2247 0.929 . S
C2261 C2260 1.399 . S
C2261 C2262 1.385 . S
C2262 H2248 0.931 . S
C2262 C2261 1.385 . S
C2262 C2263 1.389 . S
C2263 C2262 1.389 . S
C2263 C2264 1.387 . S
C2264 H2249 0.930 . S
C2264 C2259 1.390 . S
C2264 C2263 1.387 . S
H2265 C2277 0.930 . S
H2266 C2279 0.930 1_455 S
H2267 C2280 0.930 . S
H2268 C2284 0.959 . S
H2269 C2284 0.959 . S
H2270 C2284 0.961 . S
H2271 C2285 0.960 . S
H2272 C2285 0.961 . S
H2273 C2285 0.959 . S
H2274 C2288 0.929 . S
H2275 C2289 0.931 . S
H2276 C2291 0.930 . S
C2277 H2265 0.930 . S
C2277 C2278 1.399 . S
C2277 C2282 1.399 . S
C2278 C2277 1.399 . S
C2278 C2279 1.376 . S
C2279 H2266 0.930 1_655 S
C2279 C2278 1.376 . S
C2279 C2280 1.388 . S
C2280 H2267 0.930 . S
C2280 C2279 1.388 . S
C2280 C2281 1.390 . S
C2281 C2280 1.390 . S
C2281 C2282 1.394 . S
C2281 C2287 1.465 . S
C2282 C2277 1.399 . S
C2282 C2281 1.394 . S
C2282 C2283 1.516 . S
C2283 C2282 1.516 . S
C2283 C2284 1.502 . S
C2283 C2285 1.561 . S
C2283 C2286 1.526 . S
C2284 H2268 0.959 . S
C2284 H2269 0.959 . S
C2284 H2270 0.961 . S
C2284 C2283 1.502 . S
C2285 H2271 0.960 . S
C2285 H2272 0.961 . S
C2285 H2273 0.959 . S
C2285 C2283 1.561 . S
C2286 C2283 1.526 . S
C2286 C2287 1.396 . S
C2286 C2291 1.390 . S
C2287 C2281 1.465 . S
C2287 C2286 1.396 . S
C2287 C2288 1.399 . S
C2288 H2274 0.929 . S
C2288 C2287 1.399 . S
C2288 C2289 1.385 . S
C2289 H2275 0.931 . S
C2289 C2288 1.385 . S
C2289 C2290 1.389 . S
C2290 C2289 1.389 . S
C2290 C2291 1.387 . S
C2291 H2276 0.930 . S
C2291 C2286 1.390 . S
C2291 C2290 1.387 . S
H2292 C2304 0.930 . S
H2293 C2306 0.930 . S
H2294 C2307 0.930 . S
H2295 C2311 0.959 . S
H2296 C2311 0.959 . S
H2297 C2311 0.961 . S
H2298 C2312 0.960 . S
H2299 C2312 0.961 . S
H2300 C2312 0.959 . S
H2301 C2315 0.929 . S
H2302 C2316 0.931 . S
H2303 C2318 0.930 . S
C2304 H2292 0.930 . S
C2304 C2305 1.399 . S
C2304 C2309 1.399 . S
C2305 C2304 1.399 . S
C2305 C2306 1.376 . S
C2306 H2293 0.930 . S
C2306 C2305 1.376 . S
C2306 C2307 1.388 . S
C2307 H2294 0.930 . S
C2307 C2306 1.388 . S
C2307 C2308 1.390 . S
C2308 C2307 1.390 . S
C2308 C2309 1.394 . S
C2308 C2314 1.465 . S
C2309 C2304 1.399 . S
C2309 C2308 1.394 . S
C2309 C2310 1.516 . S
C2310 C2309 1.516 . S
C2310 C2311 1.502 . S
C2310 C2312 1.561 . S
C2310 C2313 1.526 . S
C2311 H2295 0.959 . S
C2311 H2296 0.959 . S
C2311 H2297 0.961 . S
C2311 C2310 1.502 . S
C2312 H2298 0.960 . S
C2312 H2299 0.961 . S
C2312 H2300 0.959 . S
C2312 C2310 1.561 . S
C2313 C2310 1.526 . S
C2313 C2314 1.396 . S
C2313 C2318 1.390 . S
C2314 C2308 1.465 . S
C2314 C2313 1.396 . S
C2314 C2315 1.399 . S
C2315 H2301 0.929 . S
C2315 C2314 1.399 . S
C2315 C2316 1.385 . S
C2316 H2302 0.931 . S
C2316 C2315 1.385 . S
C2316 C2317 1.389 . S
C2317 C2316 1.389 . S
C2317 C2318 1.387 . S
C2318 H2303 0.930 . S
C2318 C2313 1.390 . S
C2318 C2317 1.387 . S
H2319 C2331 0.930 . S
H2320 C2333 0.930 . S
H2321 C2334 0.930 . S
H2322 C2338 0.959 . S
H2323 C2338 0.959 . S
H2324 C2338 0.961 . S
H2325 C2339 0.960 . S
H2326 C2339 0.961 . S
H2327 C2339 0.959 . S
H2328 C2342 0.929 . S
H2329 C2343 0.931 . S
H2330 C2345 0.930 . S
C2331 H2319 0.930 . S
C2331 C2332 1.399 . S
C2331 C2336 1.399 . S
C2332 C2331 1.399 . S
C2332 C2333 1.376 . S
C2333 H2320 0.930 . S
C2333 C2332 1.376 . S
C2333 C2334 1.388 . S
C2334 H2321 0.930 . S
C2334 C2333 1.388 . S
C2334 C2335 1.390 . S
C2335 C2334 1.390 . S
C2335 C2336 1.394 . S
C2335 C2341 1.465 . S
C2336 C2331 1.399 . S
C2336 C2335 1.394 . S
C2336 C2337 1.516 . S
C2337 C2336 1.516 . S
C2337 C2338 1.502 . S
C2337 C2339 1.561 1_655 S
C2337 C2340 1.526 . S
C2338 H2322 0.959 . S
C2338 H2323 0.959 . S
C2338 H2324 0.961 . S
C2338 C2337 1.502 . S
C2339 H2325 0.960 . S
C2339 H2326 0.961 . S
C2339 H2327 0.959 . S
C2339 C2337 1.561 1_455 S
C2340 C2337 1.526 . S
C2340 C2341 1.396 . S
C2340 C2345 1.390 . S
C2341 C2335 1.465 . S
C2341 C2340 1.396 . S
C2341 C2342 1.399 . S
C2342 H2328 0.929 . S
C2342 C2341 1.399 . S
C2342 C2343 1.385 . S
C2343 H2329 0.931 . S
C2343 C2342 1.385 . S
C2343 C2344 1.389 . S
C2344 C2343 1.389 . S
C2344 C2345 1.387 . S
C2345 H2330 0.930 . S
C2345 C2340 1.390 . S
C2345 C2344 1.387 . S
H2346 C2358 0.930 . S
H2347 C2360 0.930 . S
H2348 C2361 0.930 . S
H2349 C2365 0.959 . S
H2350 C2365 0.959 . S
H2351 C2365 0.961 . S
H2352 C2366 0.960 . S
H2353 C2366 0.961 . S
H2354 C2366 0.959 . S
H2355 C2369 0.929 . S
H2356 C2370 0.931 . S
H2357 C2372 0.930 . S
C2358 H2346 0.930 . S
C2358 C2359 1.399 . S
C2358 C2363 1.399 . S
C2359 C2358 1.399 . S
C2359 C2360 1.376 . S
C2360 H2347 0.930 . S
C2360 C2359 1.376 . S
C2360 C2361 1.388 . S
C2361 H2348 0.930 . S
C2361 C2360 1.388 . S
C2361 C2362 1.390 . S
C2362 C2361 1.390 . S
C2362 C2363 1.394 . S
C2362 C2368 1.465 . S
C2363 C2358 1.399 . S
C2363 C2362 1.394 . S
C2363 C2364 1.516 . S
C2364 C2363 1.516 . S
C2364 C2365 1.502 . S
C2364 C2366 1.561 . S
C2364 C2367 1.526 . S
C2365 H2349 0.959 . S
C2365 H2350 0.959 . S
C2365 H2351 0.961 . S
C2365 C2364 1.502 . S
C2366 H2352 0.960 . S
C2366 H2353 0.961 . S
C2366 H2354 0.959 . S
C2366 C2364 1.561 . S
C2367 C2364 1.526 . S
C2367 C2368 1.396 . S
C2367 C2372 1.390 . S
C2368 C2362 1.465 . S
C2368 C2367 1.396 . S
C2368 C2369 1.399 . S
C2369 H2355 0.929 . S
C2369 C2368 1.399 . S
C2369 C2370 1.385 . S
C2370 H2356 0.931 . S
C2370 C2369 1.385 . S
C2370 C2371 1.389 . S
C2371 C2370 1.389 . S
C2371 C2372 1.387 . S
C2372 H2357 0.930 . S
C2372 C2367 1.390 . S
C2372 C2371 1.387 . S
H2373 C2385 0.930 . S
H2374 C2387 0.930 . S
H2375 C2388 0.930 . S
H2376 C2392 0.959 . S
H2377 C2392 0.959 . S
H2378 C2392 0.961 . S
H2379 C2393 0.960 . S
H2380 C2393 0.961 . S
H2381 C2393 0.959 . S
H2382 C2396 0.929 . S
H2383 C2397 0.931 . S
H2384 C2399 0.930 . S
C2385 H2373 0.930 . S
C2385 C2386 1.399 . S
C2385 C2390 1.399 . S
C2386 C2385 1.399 . S
C2386 C2387 1.376 . S
C2387 H2374 0.930 . S
C2387 C2386 1.376 . S
C2387 C2388 1.388 . S
C2388 H2375 0.930 . S
C2388 C2387 1.388 . S
C2388 C2389 1.390 . S
C2389 C2388 1.390 . S
C2389 C2390 1.394 . S
C2389 C2395 1.465 . S
C2390 C2385 1.399 . S
C2390 C2389 1.394 . S
C2390 C2391 1.516 . S
C2391 C2390 1.516 . S
C2391 C2392 1.502 . S
C2391 C2393 1.561 . S
C2391 C2394 1.526 . S
C2392 H2376 0.959 . S
C2392 H2377 0.959 . S
C2392 H2378 0.961 . S
C2392 C2391 1.502 . S
C2393 H2379 0.960 . S
C2393 H2380 0.961 . S
C2393 H2381 0.959 . S
C2393 C2391 1.561 . S
C2394 C2391 1.526 . S
C2394 C2395 1.396 . S
C2394 C2399 1.390 . S
C2395 C2389 1.465 . S
C2395 C2394 1.396 . S
C2395 C2396 1.399 . S
C2396 H2382 0.929 . S
C2396 C2395 1.399 . S
C2396 C2397 1.385 . S
C2397 H2383 0.931 . S
C2397 C2396 1.385 . S
C2397 C2398 1.389 . S
C2398 C2397 1.389 . S
C2398 C2399 1.387 . S
C2399 H2384 0.930 . S
C2399 C2394 1.390 . S
C2399 C2398 1.387 . S
H2400 C2412 0.930 . S
H2401 C2414 0.930 . S
H2402 C2415 0.930 . S
H2403 C2419 0.959 . S
H2404 C2419 0.959 . S
H2405 C2419 0.961 . S
H2406 C2420 0.960 . S
H2407 C2420 0.961 . S
H2408 C2420 0.959 . S
H2409 C2423 0.929 . S
H2410 C2424 0.931 . S
H2411 C2426 0.930 . S
C2412 H2400 0.930 . S
C2412 C2413 1.399 . S
C2412 C2417 1.399 . S
C2413 C2412 1.399 . S
C2413 C2414 1.376 . S
C2414 H2401 0.930 . S
C2414 C2413 1.376 . S
C2414 C2415 1.388 . S
C2415 H2402 0.930 . S
C2415 C2414 1.388 . S
C2415 C2416 1.390 . S
C2416 C2415 1.390 . S
C2416 C2417 1.394 . S
C2416 C2422 1.465 . S
C2417 C2412 1.399 . S
C2417 C2416 1.394 . S
C2417 C2418 1.516 . S
C2418 C2417 1.516 . S
C2418 C2419 1.502 . S
C2418 C2420 1.561 . S
C2418 C2421 1.526 . S
C2419 H2403 0.959 . S
C2419 H2404 0.959 . S
C2419 H2405 0.961 . S
C2419 C2418 1.502 . S
C2420 H2406 0.960 . S
C2420 H2407 0.961 . S
C2420 H2408 0.959 . S
C2420 C2418 1.561 . S
C2421 C2418 1.526 . S
C2421 C2422 1.396 . S
C2421 C2426 1.390 . S
C2422 C2416 1.465 . S
C2422 C2421 1.396 . S
C2422 C2423 1.399 . S
C2423 H2409 0.929 . S
C2423 C2422 1.399 . S
C2423 C2424 1.385 . S
C2424 H2410 0.931 . S
C2424 C2423 1.385 . S
C2424 C2425 1.389 . S
C2425 C2424 1.389 . S
C2425 C2426 1.387 . S
C2426 H2411 0.930 . S
C2426 C2421 1.390 . S
C2426 C2425 1.387 . S
H2427 C2439 0.930 . S
H2428 C2441 0.930 . S
H2429 C2442 0.930 . S
H2430 C2446 0.959 . S
H2431 C2446 0.959 . S
H2432 C2446 0.961 . S
H2433 C2447 0.960 . S
H2434 C2447 0.961 . S
H2435 C2447 0.959 . S
H2436 C2450 0.929 . S
H2437 C2451 0.931 . S
H2438 C2453 0.930 . S
C2439 H2427 0.930 . S
C2439 C2440 1.399 . S
C2439 C2444 1.399 . S
C2440 C2439 1.399 . S
C2440 C2441 1.376 . S
C2441 H2428 0.930 . S
C2441 C2440 1.376 . S
C2441 C2442 1.388 . S
C2442 H2429 0.930 . S
C2442 C2441 1.388 . S
C2442 C2443 1.390 . S
C2443 C2442 1.390 . S
C2443 C2444 1.394 . S
C2443 C2449 1.465 . S
C2444 C2439 1.399 . S
C2444 C2443 1.394 . S
C2444 C2445 1.516 . S
C2445 C2444 1.516 . S
C2445 C2446 1.502 . S
C2445 C2447 1.561 . S
C2445 C2448 1.526 . S
C2446 H2430 0.959 . S
C2446 H2431 0.959 . S
C2446 H2432 0.961 . S
C2446 C2445 1.502 . S
C2447 H2433 0.960 . S
C2447 H2434 0.961 . S
C2447 H2435 0.959 . S
C2447 C2445 1.561 . S
C2448 C2445 1.526 . S
C2448 C2449 1.396 . S
C2448 C2453 1.390 . S
C2449 C2443 1.465 . S
C2449 C2448 1.396 . S
C2449 C2450 1.399 . S
C2450 H2436 0.929 . S
C2450 C2449 1.399 . S
C2450 C2451 1.385 . S
C2451 H2437 0.931 . S
C2451 C2450 1.385 . S
C2451 C2452 1.389 . S
C2452 C2451 1.389 . S
C2452 C2453 1.387 . S
C2453 H2438 0.930 . S
C2453 C2448 1.390 . S
C2453 C2452 1.387 . S
H2454 C2466 0.930 . S
H2455 C2468 0.930 . S
H2456 C2469 0.930 . S
H2457 C2473 0.959 . S
H2458 C2473 0.959 . S
H2459 C2473 0.961 . S
H2460 C2474 0.960 . S
H2461 C2474 0.961 . S
H2462 C2474 0.959 . S
H2463 C2477 0.929 . S
H2464 C2478 0.931 . S
H2465 C2480 0.930 . S
C2466 H2454 0.930 . S
C2466 C2467 1.399 . S
C2466 C2471 1.399 . S
C2467 C2466 1.399 . S
C2467 C2468 1.376 . S
C2468 H2455 0.930 . S
C2468 C2467 1.376 . S
C2468 C2469 1.388 . S
C2469 H2456 0.930 . S
C2469 C2468 1.388 . S
C2469 C2470 1.390 . S
C2470 C2469 1.390 . S
C2470 C2471 1.394 . S
C2470 C2476 1.465 . S
C2471 C2466 1.399 . S
C2471 C2470 1.394 . S
C2471 C2472 1.516 . S
C2472 C2471 1.516 . S
C2472 C2473 1.502 . S
C2472 C2474 1.561 . S
C2472 C2475 1.526 . S
C2473 H2457 0.959 . S
C2473 H2458 0.959 . S
C2473 H2459 0.961 . S
C2473 C2472 1.502 . S
C2474 H2460 0.960 . S
C2474 H2461 0.961 . S
C2474 H2462 0.959 . S
C2474 C2472 1.561 . S
C2475 C2472 1.526 . S
C2475 C2476 1.396 . S
C2475 C2480 1.390 . S
C2476 C2470 1.465 . S
C2476 C2475 1.396 . S
C2476 C2477 1.399 . S
C2477 H2463 0.929 . S
C2477 C2476 1.399 . S
C2477 C2478 1.385 . S
C2478 H2464 0.931 . S
C2478 C2477 1.385 . S
C2478 C2479 1.389 . S
C2479 C2478 1.389 . S
C2479 C2480 1.387 . S
C2480 H2465 0.930 . S
C2480 C2475 1.390 . S
C2480 C2479 1.387 . S
H2481 C2493 0.930 . S
H2482 C2495 0.930 . S
H2483 C2496 0.930 . S
H2484 C2500 0.959 . S
H2485 C2500 0.959 . S
H2486 C2500 0.961 . S
H2487 C2501 0.960 . S
H2488 C2501 0.961 . S
H2489 C2501 0.959 . S
H2490 C2504 0.929 . S
H2491 C2505 0.931 . S
H2492 C2507 0.930 . S
C2493 H2481 0.930 . S
C2493 C2494 1.399 . S
C2493 C2498 1.399 . S
C2494 C2493 1.399 . S
C2494 C2495 1.376 . S
C2495 H2482 0.930 . S
C2495 C2494 1.376 . S
C2495 C2496 1.388 . S
C2496 H2483 0.930 . S
C2496 C2495 1.388 . S
C2496 C2497 1.390 . S
C2497 C2496 1.390 . S
C2497 C2498 1.394 . S
C2497 C2503 1.465 . S
C2498 C2493 1.399 . S
C2498 C2497 1.394 . S
C2498 C2499 1.516 . S
C2499 C2498 1.516 . S
C2499 C2500 1.502 . S
C2499 C2501 1.561 . S
C2499 C2502 1.526 . S
C2500 H2484 0.959 . S
C2500 H2485 0.959 . S
C2500 H2486 0.961 . S
C2500 C2499 1.502 . S
C2501 H2487 0.960 . S
C2501 H2488 0.961 . S
C2501 H2489 0.959 . S
C2501 C2499 1.561 . S
C2502 C2499 1.526 . S
C2502 C2503 1.396 . S
C2502 C2507 1.390 . S
C2503 C2497 1.465 . S
C2503 C2502 1.396 . S
C2503 C2504 1.399 . S
C2504 H2490 0.929 . S
C2504 C2503 1.399 . S
C2504 C2505 1.385 . S
C2505 H2491 0.931 . S
C2505 C2504 1.385 . S
C2505 C2506 1.389 . S
C2506 C2505 1.389 . S
C2506 C2507 1.387 . S
C2507 H2492 0.930 . S
C2507 C2502 1.390 . S
C2507 C2506 1.387 . S
H2508 C2520 0.930 . S
H2509 C2522 0.930 . S
H2510 C2523 0.930 . S
H2511 C2527 0.959 . S
H2512 C2527 0.959 . S
H2513 C2527 0.961 . S
H2514 C2528 0.960 . S
H2515 C2528 0.961 . S
H2516 C2528 0.959 . S
H2517 C2531 0.929 . S
H2518 C2532 0.931 . S
H2519 C2534 0.930 . S
C2520 H2508 0.930 . S
C2520 C2521 1.399 . S
C2520 C2525 1.399 . S
C2521 C2520 1.399 . S
C2521 C2522 1.376 . S
C2522 H2509 0.930 . S
C2522 C2521 1.376 . S
C2522 C2523 1.388 . S
C2523 H2510 0.930 . S
C2523 C2522 1.388 . S
C2523 C2524 1.390 . S
C2524 C2523 1.390 . S
C2524 C2525 1.394 . S
C2524 C2530 1.465 . S
C2525 C2520 1.399 . S
C2525 C2524 1.394 . S
C2525 C2526 1.516 . S
C2526 C2525 1.516 . S
C2526 C2527 1.502 . S
C2526 C2528 1.561 . S
C2526 C2529 1.526 . S
C2527 H2511 0.959 . S
C2527 H2512 0.959 . S
C2527 H2513 0.961 . S
C2527 C2526 1.502 . S
C2528 H2514 0.960 . S
C2528 H2515 0.961 . S
C2528 H2516 0.959 . S
C2528 C2526 1.561 . S
C2529 C2526 1.526 . S
C2529 C2530 1.396 . S
C2529 C2534 1.390 . S
C2530 C2524 1.465 . S
C2530 C2529 1.396 . S
C2530 C2531 1.399 . S
C2531 H2517 0.929 . S
C2531 C2530 1.399 . S
C2531 C2532 1.385 . S
C2532 H2518 0.931 . S
C2532 C2531 1.385 . S
C2532 C2533 1.389 . S
C2533 C2532 1.389 . S
C2533 C2534 1.387 . S
C2534 H2519 0.930 . S
C2534 C2529 1.390 . S
C2534 C2533 1.387 . S
H2535 C2547 0.930 . S
H2536 C2549 0.930 . S
H2537 C2550 0.930 . S
H2538 C2554 0.959 . S
H2539 C2554 0.959 . S
H2540 C2554 0.961 . S
H2541 C2555 0.960 . S
H2542 C2555 0.961 . S
H2543 C2555 0.959 . S
H2544 C2558 0.929 . S
H2545 C2559 0.931 . S
H2546 C2561 0.930 . S
C2547 H2535 0.930 . S
C2547 C2548 1.399 . S
C2547 C2552 1.399 . S
C2548 C2547 1.399 . S
C2548 C2549 1.376 . S
C2549 H2536 0.930 . S
C2549 C2548 1.376 . S
C2549 C2550 1.388 . S
C2550 H2537 0.930 . S
C2550 C2549 1.388 . S
C2550 C2551 1.390 . S
C2551 C2550 1.390 . S
C2551 C2552 1.394 . S
C2551 C2557 1.465 . S
C2552 C2547 1.399 . S
C2552 C2551 1.394 . S
C2552 C2553 1.516 . S
C2553 C2552 1.516 . S
C2553 C2554 1.502 . S
C2553 C2555 1.561 . S
C2553 C2556 1.526 . S
C2554 H2538 0.959 . S
C2554 H2539 0.959 . S
C2554 H2540 0.961 . S
C2554 C2553 1.502 . S
C2555 H2541 0.960 . S
C2555 H2542 0.961 . S
C2555 H2543 0.959 . S
C2555 C2553 1.561 . S
C2556 C2553 1.526 . S
C2556 C2557 1.396 . S
C2556 C2561 1.390 . S
C2557 C2551 1.465 . S
C2557 C2556 1.396 . S
C2557 C2558 1.399 . S
C2558 H2544 0.929 . S
C2558 C2557 1.399 . S
C2558 C2559 1.385 . S
C2559 H2545 0.931 . S
C2559 C2558 1.385 . S
C2559 C2560 1.389 . S
C2560 C2559 1.389 . S
C2560 C2561 1.387 . S
C2561 H2546 0.930 . S
C2561 C2556 1.390 . S
C2561 C2560 1.387 . S
H2562 C2574 0.930 . S
H2563 C2576 0.930 . S
H2564 C2577 0.930 . S
H2565 C2581 0.959 . S
H2566 C2581 0.959 . S
H2567 C2581 0.961 . S
H2568 C2582 0.960 . S
H2569 C2582 0.961 . S
H2570 C2582 0.959 1_556 S
H2571 C2585 0.929 . S
H2572 C2586 0.931 . S
H2573 C2588 0.930 1_554 S
C2574 H2562 0.930 . S
C2574 C2575 1.399 . S
C2574 C2579 1.399 . S
C2575 C2574 1.399 . S
C2575 C2576 1.376 . S
C2576 H2563 0.930 . S
C2576 C2575 1.376 . S
C2576 C2577 1.388 . S
C2577 H2564 0.930 . S
C2577 C2576 1.388 . S
C2577 C2578 1.390 . S
C2578 C2577 1.390 . S
C2578 C2579 1.394 . S
C2578 C2584 1.465 . S
C2579 C2574 1.399 . S
C2579 C2578 1.394 . S
C2579 C2580 1.516 . S
C2580 C2579 1.516 . S
C2580 C2581 1.502 1_556 S
C2580 C2582 1.561 1_556 S
C2580 C2583 1.526 . S
C2581 H2565 0.959 . S
C2581 H2566 0.959 . S
C2581 H2567 0.961 . S
C2581 C2580 1.502 1_554 S
C2582 H2568 0.960 . S
C2582 H2569 0.961 . S
C2582 H2570 0.959 1_554 S
C2582 C2580 1.561 1_554 S
C2583 C2580 1.526 . S
C2583 C2584 1.396 . S
C2583 C2588 1.390 . S
C2584 C2578 1.465 . S
C2584 C2583 1.396 . S
C2584 C2585 1.399 . S
C2585 H2571 0.929 . S
C2585 C2584 1.399 . S
C2585 C2586 1.385 . S
C2586 H2572 0.931 . S
C2586 C2585 1.385 . S
C2586 C2587 1.389 . S
C2587 C2586 1.389 . S
C2587 C2588 1.387 . S
C2588 H2573 0.930 1_556 S
C2588 C2583 1.390 . S
C2588 C2587 1.387 . S
H2589 C2601 0.930 . S
H2590 C2603 0.930 . S
H2591 C2604 0.930 . S
H2592 C2608 0.959 . S
H2593 C2608 0.959 . S
H2594 C2608 0.961 . S
H2595 C2609 0.960 . S
H2596 C2609 0.961 . S
H2597 C2609 0.959 . S
H2598 C2612 0.929 . S
H2599 C2613 0.931 . S
H2600 C2615 0.930 . S
C2601 H2589 0.930 . S
C2601 C2602 1.399 . S
C2601 C2606 1.399 . S
C2602 C2601 1.399 . S
C2602 C2603 1.376 . S
C2603 H2590 0.930 . S
C2603 C2602 1.376 . S
C2603 C2604 1.388 . S
C2604 H2591 0.930 . S
C2604 C2603 1.388 . S
C2604 C2605 1.390 . S
C2605 C2604 1.390 . S
C2605 C2606 1.394 . S
C2605 C2611 1.465 . S
C2606 C2601 1.399 . S
C2606 C2605 1.394 . S
C2606 C2607 1.516 . S
C2607 C2606 1.516 . S
C2607 C2608 1.502 . S
C2607 C2609 1.561 . S
C2607 C2610 1.526 . S
C2608 H2592 0.959 . S
C2608 H2593 0.959 . S
C2608 H2594 0.961 . S
C2608 C2607 1.502 . S
C2609 H2595 0.960 . S
C2609 H2596 0.961 . S
C2609 H2597 0.959 . S
C2609 C2607 1.561 . S
C2610 C2607 1.526 . S
C2610 C2611 1.396 . S
C2610 C2615 1.390 . S
C2611 C2605 1.465 . S
C2611 C2610 1.396 . S
C2611 C2612 1.399 . S
C2612 H2598 0.929 . S
C2612 C2611 1.399 . S
C2612 C2613 1.385 . S
C2613 H2599 0.931 . S
C2613 C2612 1.385 . S
C2613 C2614 1.389 . S
C2614 C2613 1.389 . S
C2614 C2615 1.387 . S
C2615 H2600 0.930 . S
C2615 C2610 1.390 . S
C2615 C2614 1.387 . S
H2616 C2628 0.930 . S
H2617 C2630 0.930 . S
H2618 C2631 0.930 . S
H2619 C2635 0.959 . S
H2620 C2635 0.959 . S
H2621 C2635 0.961 . S
H2622 C2636 0.960 . S
H2623 C2636 0.961 . S
H2624 C2636 0.959 . S
H2625 C2639 0.929 . S
H2626 C2640 0.931 . S
H2627 C2642 0.930 . S
C2628 H2616 0.930 . S
C2628 C2629 1.399 . S
C2628 C2633 1.399 . S
C2629 C2628 1.399 . S
C2629 C2630 1.376 . S
C2630 H2617 0.930 . S
C2630 C2629 1.376 . S
C2630 C2631 1.388 . S
C2631 H2618 0.930 . S
C2631 C2630 1.388 . S
C2631 C2632 1.390 . S
C2632 C2631 1.390 . S
C2632 C2633 1.394 . S
C2632 C2638 1.465 . S
C2633 C2628 1.399 . S
C2633 C2632 1.394 . S
C2633 C2634 1.516 . S
C2634 C2633 1.516 . S
C2634 C2635 1.502 . S
C2634 C2636 1.561 . S
C2634 C2637 1.526 . S
C2635 H2619 0.959 . S
C2635 H2620 0.959 . S
C2635 H2621 0.961 . S
C2635 C2634 1.502 . S
C2636 H2622 0.960 . S
C2636 H2623 0.961 . S
C2636 H2624 0.959 . S
C2636 C2634 1.561 . S
C2637 C2634 1.526 . S
C2637 C2638 1.396 . S
C2637 C2642 1.390 . S
C2638 C2632 1.465 . S
C2638 C2637 1.396 . S
C2638 C2639 1.399 . S
C2639 H2625 0.929 . S
C2639 C2638 1.399 . S
C2639 C2640 1.385 . S
C2640 H2626 0.931 . S
C2640 C2639 1.385 . S
C2640 C2641 1.389 . S
C2641 C2640 1.389 . S
C2641 C2642 1.387 . S
C2642 H2627 0.930 . S
C2642 C2637 1.390 . S
C2642 C2641 1.387 . S
H2643 C2655 0.930 . S
H2644 C2657 0.930 . S
H2645 C2658 0.930 . S
H2646 C2662 0.959 . S
H2647 C2662 0.959 . S
H2648 C2662 0.961 . S
H2649 C2663 0.960 . S
H2650 C2663 0.961 . S
H2651 C2663 0.959 . S
H2652 C2666 0.929 . S
H2653 C2667 0.931 . S
H2654 C2669 0.930 . S
C2655 H2643 0.930 . S
C2655 C2656 1.399 . S
C2655 C2660 1.399 . S
C2656 C2655 1.399 . S
C2656 C2657 1.376 . S
C2657 H2644 0.930 . S
C2657 C2656 1.376 . S
C2657 C2658 1.388 . S
C2658 H2645 0.930 . S
C2658 C2657 1.388 . S
C2658 C2659 1.390 . S
C2659 C2658 1.390 . S
C2659 C2660 1.394 . S
C2659 C2665 1.465 . S
C2660 C2655 1.399 . S
C2660 C2659 1.394 . S
C2660 C2661 1.516 . S
C2661 C2660 1.516 . S
C2661 C2662 1.502 . S
C2661 C2663 1.561 . S
C2661 C2664 1.526 . S
C2662 H2646 0.959 . S
C2662 H2647 0.959 . S
C2662 H2648 0.961 . S
C2662 C2661 1.502 . S
C2663 H2649 0.960 . S
C2663 H2650 0.961 . S
C2663 H2651 0.959 . S
C2663 C2661 1.561 . S
C2664 C2661 1.526 . S
C2664 C2665 1.396 . S
C2664 C2669 1.390 . S
C2665 C2659 1.465 . S
C2665 C2664 1.396 . S
C2665 C2666 1.399 . S
C2666 H2652 0.929 . S
C2666 C2665 1.399 . S
C2666 C2667 1.385 . S
C2667 H2653 0.931 . S
C2667 C2666 1.385 . S
C2667 C2668 1.389 . S
C2668 C2667 1.389 . S
C2668 C2669 1.387 . S
C2669 H2654 0.930 . S
C2669 C2664 1.390 . S
C2669 C2668 1.387 . S
H2670 C2682 0.930 . S
H2671 C2684 0.930 . S
H2672 C2685 0.930 . S
H2673 C2689 0.959 . S
H2674 C2689 0.959 . S
H2675 C2689 0.961 . S
H2676 C2690 0.960 . S
H2677 C2690 0.961 . S
H2678 C2690 0.959 . S
H2679 C2693 0.929 . S
H2680 C2694 0.931 . S
H2681 C2696 0.930 . S
C2682 H2670 0.930 . S
C2682 C2683 1.399 . S
C2682 C2687 1.399 . S
C2683 C2682 1.399 . S
C2683 C2684 1.376 . S
C2684 H2671 0.930 . S
C2684 C2683 1.376 . S
C2684 C2685 1.388 . S
C2685 H2672 0.930 . S
C2685 C2684 1.388 . S
C2685 C2686 1.390 . S
C2686 C2685 1.390 . S
C2686 C2687 1.394 . S
C2686 C2692 1.465 . S
C2687 C2682 1.399 . S
C2687 C2686 1.394 . S
C2687 C2688 1.516 . S
C2688 C2687 1.516 . S
C2688 C2689 1.502 . S
C2688 C2690 1.561 . S
C2688 C2691 1.526 . S
C2689 H2673 0.959 . S
C2689 H2674 0.959 . S
C2689 H2675 0.961 . S
C2689 C2688 1.502 . S
C2690 H2676 0.960 . S
C2690 H2677 0.961 . S
C2690 H2678 0.959 . S
C2690 C2688 1.561 . S
C2691 C2688 1.526 . S
C2691 C2692 1.396 . S
C2691 C2696 1.390 . S
C2692 C2686 1.465 . S
C2692 C2691 1.396 . S
C2692 C2693 1.399 . S
C2693 H2679 0.929 . S
C2693 C2692 1.399 . S
C2693 C2694 1.385 . S
C2694 H2680 0.931 . S
C2694 C2693 1.385 . S
C2694 C2695 1.389 . S
C2695 C2694 1.389 . S
C2695 C2696 1.387 . S
C2696 H2681 0.930 . S
C2696 C2691 1.390 . S
C2696 C2695 1.387 . S
H2697 C2709 0.930 . S
H2698 C2711 0.930 . S
H2699 C2712 0.930 . S
H2700 C2716 0.959 . S
H2701 C2716 0.959 . S
H2702 C2716 0.961 . S
H2703 C2717 0.960 . S
H2704 C2717 0.961 . S
H2705 C2717 0.959 . S
H2706 C2720 0.929 . S
H2707 C2721 0.931 . S
H2708 C2723 0.930 . S
C2709 H2697 0.930 . S
C2709 C2710 1.399 . S
C2709 C2714 1.399 . S
C2710 C2709 1.399 . S
C2710 C2711 1.376 . S
C2711 H2698 0.930 . S
C2711 C2710 1.376 . S
C2711 C2712 1.388 . S
C2712 H2699 0.930 . S
C2712 C2711 1.388 . S
C2712 C2713 1.390 . S
C2713 C2712 1.390 . S
C2713 C2714 1.394 . S
C2713 C2719 1.465 . S
C2714 C2709 1.399 . S
C2714 C2713 1.394 . S
C2714 C2715 1.516 . S
C2715 C2714 1.516 . S
C2715 C2716 1.502 . S
C2715 C2717 1.561 . S
C2715 C2718 1.526 . S
C2716 H2700 0.959 . S
C2716 H2701 0.959 . S
C2716 H2702 0.961 . S
C2716 C2715 1.502 . S
C2717 H2703 0.960 . S
C2717 H2704 0.961 . S
C2717 H2705 0.959 . S
C2717 C2715 1.561 . S
C2718 C2715 1.526 . S
C2718 C2719 1.396 . S
C2718 C2723 1.390 . S
C2719 C2713 1.465 . S
C2719 C2718 1.396 . S
C2719 C2720 1.399 . S
C2720 H2706 0.929 . S
C2720 C2719 1.399 . S
C2720 C2721 1.385 . S
C2721 H2707 0.931 . S
C2721 C2720 1.385 . S
C2721 C2722 1.389 . S
C2722 C2721 1.389 . S
C2722 C2723 1.387 . S
C2723 H2708 0.930 . S
C2723 C2718 1.390 . S
C2723 C2722 1.387 . S
H2724 C2736 0.930 . S
H2725 C2738 0.930 . S
H2726 C2739 0.930 . S
H2727 C2743 0.959 . S
H2728 C2743 0.959 . S
H2729 C2743 0.961 . S
H2730 C2744 0.960 . S
H2731 C2744 0.961 . S
H2732 C2744 0.959 . S
H2733 C2747 0.929 . S
H2734 C2748 0.931 . S
H2735 C2750 0.930 . S
C2736 H2724 0.930 . S
C2736 C2737 1.399 . S
C2736 C2741 1.399 . S
C2737 C2736 1.399 . S
C2737 C2738 1.376 . S
C2738 H2725 0.930 . S
C2738 C2737 1.376 . S
C2738 C2739 1.388 . S
C2739 H2726 0.930 . S
C2739 C2738 1.388 . S
C2739 C2740 1.390 . S
C2740 C2739 1.390 . S
C2740 C2741 1.394 . S
C2740 C2746 1.465 . S
C2741 C2736 1.399 . S
C2741 C2740 1.394 . S
C2741 C2742 1.516 . S
C2742 C2741 1.516 . S
C2742 C2743 1.502 . S
C2742 C2744 1.561 . S
C2742 C2745 1.526 . S
C2743 H2727 0.959 . S
C2743 H2728 0.959 . S
C2743 H2729 0.961 . S
C2743 C2742 1.502 . S
C2744 H2730 0.960 . S
C2744 H2731 0.961 . S
C2744 H2732 0.959 . S
C2744 C2742 1.561 . S
C2745 C2742 1.526 . S
C2745 C2746 1.396 . S
C2745 C2750 1.390 . S
C2746 C2740 1.465 . S
C2746 C2745 1.396 . S
C2746 C2747 1.399 . S
C2747 H2733 0.929 . S
C2747 C2746 1.399 . S
C2747 C2748 1.385 . S
C2748 H2734 0.931 . S
C2748 C2747 1.385 . S
C2748 C2749 1.389 . S
C2749 C2748 1.389 . S
C2749 C2750 1.387 . S
C2750 H2735 0.930 . S
C2750 C2745 1.390 . S
C2750 C2749 1.387 . S
H2751 C2763 0.930 . S
H2752 C2765 0.930 . S
H2753 C2766 0.930 . S
H2754 C2770 0.959 . S
H2755 C2770 0.959 . S
H2756 C2770 0.961 . S
H2757 C2771 0.960 . S
H2758 C2771 0.961 . S
H2759 C2771 0.959 . S
H2760 C2774 0.929 . S
H2761 C2775 0.931 . S
H2762 C2777 0.930 . S
C2763 H2751 0.930 . S
C2763 C2764 1.399 . S
C2763 C2768 1.399 . S
C2764 C2763 1.399 . S
C2764 C2765 1.376 . S
C2765 H2752 0.930 . S
C2765 C2764 1.376 . S
C2765 C2766 1.388 . S
C2766 H2753 0.930 . S
C2766 C2765 1.388 . S
C2766 C2767 1.390 . S
C2767 C2766 1.390 . S
C2767 C2768 1.394 . S
C2767 C2773 1.465 . S
C2768 C2763 1.399 . S
C2768 C2767 1.394 . S
C2768 C2769 1.516 . S
C2769 C2768 1.516 . S
C2769 C2770 1.502 . S
C2769 C2771 1.561 . S
C2769 C2772 1.526 . S
C2770 H2754 0.959 . S
C2770 H2755 0.959 . S
C2770 H2756 0.961 . S
C2770 C2769 1.502 . S
C2771 H2757 0.960 . S
C2771 H2758 0.961 . S
C2771 H2759 0.959 . S
C2771 C2769 1.561 . S
C2772 C2769 1.526 . S
C2772 C2773 1.396 . S
C2772 C2777 1.390 . S
C2773 C2767 1.465 . S
C2773 C2772 1.396 . S
C2773 C2774 1.399 . S
C2774 H2760 0.929 . S
C2774 C2773 1.399 . S
C2774 C2775 1.385 . S
C2775 H2761 0.931 . S
C2775 C2774 1.385 . S
C2775 C2776 1.389 . S
C2776 C2775 1.389 . S
C2776 C2777 1.387 . S
C2777 H2762 0.930 . S
C2777 C2772 1.390 . S
C2777 C2776 1.387 . S
H2778 C2790 0.930 . S
H2779 C2792 0.930 . S
H2780 C2793 0.930 . S
H2781 C2797 0.959 . S
H2782 C2797 0.959 . S
H2783 C2797 0.961 . S
H2784 C2798 0.960 . S
H2785 C2798 0.961 . S
H2786 C2798 0.959 . S
H2787 C2801 0.929 . S
H2788 C2802 0.931 . S
H2789 C2804 0.930 . S
C2790 H2778 0.930 . S
C2790 C2791 1.399 . S
C2790 C2795 1.399 . S
C2791 C2790 1.399 . S
C2791 C2792 1.376 . S
C2792 H2779 0.930 . S
C2792 C2791 1.376 . S
C2792 C2793 1.388 . S
C2793 H2780 0.930 . S
C2793 C2792 1.388 . S
C2793 C2794 1.390 . S
C2794 C2793 1.390 . S
C2794 C2795 1.394 . S
C2794 C2800 1.465 . S
C2795 C2790 1.399 . S
C2795 C2794 1.394 . S
C2795 C2796 1.516 . S
C2796 C2795 1.516 . S
C2796 C2797 1.502 . S
C2796 C2798 1.561 . S
C2796 C2799 1.526 . S
C2797 H2781 0.959 . S
C2797 H2782 0.959 . S
C2797 H2783 0.961 . S
C2797 C2796 1.502 . S
C2798 H2784 0.960 . S
C2798 H2785 0.961 . S
C2798 H2786 0.959 . S
C2798 C2796 1.561 . S
C2799 C2796 1.526 . S
C2799 C2800 1.396 . S
C2799 C2804 1.390 . S
C2800 C2794 1.465 . S
C2800 C2799 1.396 . S
C2800 C2801 1.399 . S
C2801 H2787 0.929 . S
C2801 C2800 1.399 . S
C2801 C2802 1.385 . S
C2802 H2788 0.931 . S
C2802 C2801 1.385 . S
C2802 C2803 1.389 . S
C2803 C2802 1.389 . S
C2803 C2804 1.387 . S
C2804 H2789 0.930 . S
C2804 C2799 1.390 . S
C2804 C2803 1.387 . S
H2805 C2817 0.930 . S
H2806 C2819 0.930 . S
H2807 C2820 0.930 . S
H2808 C2824 0.959 . S
H2809 C2824 0.959 . S
H2810 C2824 0.961 . S
H2811 C2825 0.960 . S
H2812 C2825 0.961 . S
H2813 C2825 0.959 . S
H2814 C2828 0.929 . S
H2815 C2829 0.931 . S
H2816 C2831 0.930 . S
C2817 H2805 0.930 . S
C2817 C2818 1.399 . S
C2817 C2822 1.399 . S
C2818 C2817 1.399 . S
C2818 C2819 1.376 . S
C2819 H2806 0.930 . S
C2819 C2818 1.376 . S
C2819 C2820 1.388 . S
C2820 H2807 0.930 . S
C2820 C2819 1.388 . S
C2820 C2821 1.390 . S
C2821 C2820 1.390 . S
C2821 C2822 1.394 . S
C2821 C2827 1.465 . S
C2822 C2817 1.399 . S
C2822 C2821 1.394 . S
C2822 C2823 1.516 . S
C2823 C2822 1.516 . S
C2823 C2824 1.502 . S
C2823 C2825 1.561 . S
C2823 C2826 1.526 . S
C2824 H2808 0.959 . S
C2824 H2809 0.959 . S
C2824 H2810 0.961 . S
C2824 C2823 1.502 . S
C2825 H2811 0.960 . S
C2825 H2812 0.961 . S
C2825 H2813 0.959 . S
C2825 C2823 1.561 . S
C2826 C2823 1.526 . S
C2826 C2827 1.396 . S
C2826 C2831 1.390 . S
C2827 C2821 1.465 . S
C2827 C2826 1.396 . S
C2827 C2828 1.399 . S
C2828 H2814 0.929 . S
C2828 C2827 1.399 . S
C2828 C2829 1.385 . S
C2829 H2815 0.931 . S
C2829 C2828 1.385 . S
C2829 C2830 1.389 . S
C2830 C2829 1.389 . S
C2830 C2831 1.387 . S
C2831 H2816 0.930 . S
C2831 C2826 1.390 . S
C2831 C2830 1.387 . S
H2832 C2844 0.930 . S
H2833 C2846 0.930 . S
H2834 C2847 0.930 . S
H2835 C2851 0.959 . S
H2836 C2851 0.959 . S
H2837 C2851 0.961 . S
H2838 C2852 0.960 . S
H2839 C2852 0.961 . S
H2840 C2852 0.959 . S
H2841 C2855 0.929 . S
H2842 C2856 0.931 . S
H2843 C2858 0.930 . S
C2844 H2832 0.930 . S
C2844 C2845 1.399 . S
C2844 C2849 1.399 . S
C2845 C2844 1.399 . S
C2845 C2846 1.376 . S
C2846 H2833 0.930 . S
C2846 C2845 1.376 . S
C2846 C2847 1.388 . S
C2847 H2834 0.930 . S
C2847 C2846 1.388 . S
C2847 C2848 1.390 . S
C2848 C2847 1.390 . S
C2848 C2849 1.394 . S
C2848 C2854 1.465 . S
C2849 C2844 1.399 . S
C2849 C2848 1.394 . S
C2849 C2850 1.516 . S
C2850 C2849 1.516 . S
C2850 C2851 1.502 . S
C2850 C2852 1.561 . S
C2850 C2853 1.526 . S
C2851 H2835 0.959 . S
C2851 H2836 0.959 . S
C2851 H2837 0.961 . S
C2851 C2850 1.502 . S
C2852 H2838 0.960 . S
C2852 H2839 0.961 . S
C2852 H2840 0.959 . S
C2852 C2850 1.561 . S
C2853 C2850 1.526 . S
C2853 C2854 1.396 . S
C2853 C2858 1.390 . S
C2854 C2848 1.465 . S
C2854 C2853 1.396 . S
C2854 C2855 1.399 . S
C2855 H2841 0.929 . S
C2855 C2854 1.399 . S
C2855 C2856 1.385 . S
C2856 H2842 0.931 . S
C2856 C2855 1.385 . S
C2856 C2857 1.389 . S
C2857 C2856 1.389 . S
C2857 C2858 1.387 . S
C2858 H2843 0.930 . S
C2858 C2853 1.390 . S
C2858 C2857 1.387 . S
H2859 C2871 0.930 . S
H2860 C2873 0.930 . S
H2861 C2874 0.930 . S
H2862 C2878 0.959 . S
H2863 C2878 0.959 . S
H2864 C2878 0.961 . S
H2865 C2879 0.960 . S
H2866 C2879 0.961 . S
H2867 C2879 0.959 . S
H2868 C2882 0.929 . S
H2869 C2883 0.931 . S
H2870 C2885 0.930 . S
C2871 H2859 0.930 . S
C2871 C2872 1.399 . S
C2871 C2876 1.399 . S
C2872 C2871 1.399 . S
C2872 C2873 1.376 . S
C2873 H2860 0.930 . S
C2873 C2872 1.376 . S
C2873 C2874 1.388 . S
C2874 H2861 0.930 . S
C2874 C2873 1.388 . S
C2874 C2875 1.390 . S
C2875 C2874 1.390 . S
C2875 C2876 1.394 . S
C2875 C2881 1.465 . S
C2876 C2871 1.399 . S
C2876 C2875 1.394 . S
C2876 C2877 1.516 . S
C2877 C2876 1.516 . S
C2877 C2878 1.502 . S
C2877 C2879 1.561 . S
C2877 C2880 1.526 . S
C2878 H2862 0.959 . S
C2878 H2863 0.959 . S
C2878 H2864 0.961 . S
C2878 C2877 1.502 . S
C2879 H2865 0.960 . S
C2879 H2866 0.961 . S
C2879 H2867 0.959 . S
C2879 C2877 1.561 . S
C2880 C2877 1.526 . S
C2880 C2881 1.396 . S
C2880 C2885 1.390 . S
C2881 C2875 1.465 . S
C2881 C2880 1.396 . S
C2881 C2882 1.399 . S
C2882 H2868 0.929 . S
C2882 C2881 1.399 . S
C2882 C2883 1.385 . S
C2883 H2869 0.931 . S
C2883 C2882 1.385 . S
C2883 C2884 1.389 . S
C2884 C2883 1.389 . S
C2884 C2885 1.387 . S
C2885 H2870 0.930 . S
C2885 C2880 1.390 . S
C2885 C2884 1.387 . S
H2886 C2898 0.930 . S
H2887 C2900 0.930 . S
H2888 C2901 0.930 . S
H2889 C2905 0.959 . S
H2890 C2905 0.959 . S
H2891 C2905 0.961 . S
H2892 C2906 0.960 . S
H2893 C2906 0.961 . S
H2894 C2906 0.959 . S
H2895 C2909 0.929 . S
H2896 C2910 0.931 . S
H2897 C2912 0.930 . S
C2898 H2886 0.930 . S
C2898 C2899 1.399 . S
C2898 C2903 1.399 . S
C2899 C2898 1.399 . S
C2899 C2900 1.376 . S
C2900 H2887 0.930 . S
C2900 C2899 1.376 . S
C2900 C2901 1.388 . S
C2901 H2888 0.930 . S
C2901 C2900 1.388 . S
C2901 C2902 1.390 . S
C2902 C2901 1.390 . S
C2902 C2903 1.394 . S
C2902 C2908 1.465 . S
C2903 C2898 1.399 . S
C2903 C2902 1.394 . S
C2903 C2904 1.516 . S
C2904 C2903 1.516 . S
C2904 C2905 1.502 . S
C2904 C2906 1.561 . S
C2904 C2907 1.526 . S
C2905 H2889 0.959 . S
C2905 H2890 0.959 . S
C2905 H2891 0.961 . S
C2905 C2904 1.502 . S
C2906 H2892 0.960 . S
C2906 H2893 0.961 . S
C2906 H2894 0.959 . S
C2906 C2904 1.561 . S
C2907 C2904 1.526 . S
C2907 C2908 1.396 . S
C2907 C2912 1.390 . S
C2908 C2902 1.465 . S
C2908 C2907 1.396 . S
C2908 C2909 1.399 . S
C2909 H2895 0.929 . S
C2909 C2908 1.399 . S
C2909 C2910 1.385 . S
C2910 H2896 0.931 . S
C2910 C2909 1.385 . S
C2910 C2911 1.389 . S
C2911 C2910 1.389 . S
C2911 C2912 1.387 . S
C2912 H2897 0.930 . S
C2912 C2907 1.390 . S
C2912 C2911 1.387 . S
H2913 C2925 0.930 . S
H2914 C2927 0.930 . S
H2915 C2928 0.930 . S
H2916 C2932 0.959 . S
H2917 C2932 0.959 . S
H2918 C2932 0.961 . S
H2919 C2933 0.960 . S
H2920 C2933 0.961 . S
H2921 C2933 0.959 . S
H2922 C2936 0.929 . S
H2923 C2937 0.931 . S
H2924 C2939 0.930 . S
C2925 H2913 0.930 . S
C2925 C2926 1.399 . S
C2925 C2930 1.399 . S
C2926 C2925 1.399 . S
C2926 C2927 1.376 . S
C2927 H2914 0.930 . S
C2927 C2926 1.376 . S
C2927 C2928 1.388 . S
C2928 H2915 0.930 . S
C2928 C2927 1.388 . S
C2928 C2929 1.390 . S
C2929 C2928 1.390 . S
C2929 C2930 1.394 . S
C2929 C2935 1.465 . S
C2930 C2925 1.399 . S
C2930 C2929 1.394 . S
C2930 C2931 1.516 . S
C2931 C2930 1.516 . S
C2931 C2932 1.502 . S
C2931 C2933 1.561 . S
C2931 C2934 1.526 . S
C2932 H2916 0.959 . S
C2932 H2917 0.959 . S
C2932 H2918 0.961 . S
C2932 C2931 1.502 . S
C2933 H2919 0.960 . S
C2933 H2920 0.961 . S
C2933 H2921 0.959 . S
C2933 C2931 1.561 . S
C2934 C2931 1.526 . S
C2934 C2935 1.396 . S
C2934 C2939 1.390 . S
C2935 C2929 1.465 . S
C2935 C2934 1.396 . S
C2935 C2936 1.399 . S
C2936 H2922 0.929 . S
C2936 C2935 1.399 . S
C2936 C2937 1.385 . S
C2937 H2923 0.931 . S
C2937 C2936 1.385 . S
C2937 C2938 1.389 . S
C2938 C2937 1.389 . S
C2938 C2939 1.387 . S
C2939 H2924 0.930 . S
C2939 C2934 1.390 . S
C2939 C2938 1.387 . S
H2940 C2952 0.930 . S
H2941 C2954 0.930 . S
H2942 C2955 0.930 . S
H2943 C2959 0.959 . S
H2944 C2959 0.959 . S
H2945 C2959 0.961 . S
H2946 C2960 0.960 . S
H2947 C2960 0.961 . S
H2948 C2960 0.959 . S
H2949 C2963 0.929 . S
H2950 C2964 0.931 . S
H2951 C2966 0.930 . S
C2952 H2940 0.930 . S
C2952 C2953 1.399 . S
C2952 C2957 1.399 . S
C2953 C2952 1.399 . S
C2953 C2954 1.376 . S
C2954 H2941 0.930 . S
C2954 C2953 1.376 . S
C2954 C2955 1.388 . S
C2955 H2942 0.930 . S
C2955 C2954 1.388 . S
C2955 C2956 1.390 . S
C2956 C2955 1.390 . S
C2956 C2957 1.394 . S
C2956 C2962 1.465 . S
C2957 C2952 1.399 . S
C2957 C2956 1.394 . S
C2957 C2958 1.516 . S
C2958 C2957 1.516 . S
C2958 C2959 1.502 . S
C2958 C2960 1.561 . S
C2958 C2961 1.526 . S
C2959 H2943 0.959 . S
C2959 H2944 0.959 . S
C2959 H2945 0.961 . S
C2959 C2958 1.502 . S
C2960 H2946 0.960 . S
C2960 H2947 0.961 . S
C2960 H2948 0.959 . S
C2960 C2958 1.561 . S
C2961 C2958 1.526 . S
C2961 C2962 1.396 . S
C2961 C2966 1.390 . S
C2962 C2956 1.465 . S
C2962 C2961 1.396 . S
C2962 C2963 1.399 . S
C2963 H2949 0.929 . S
C2963 C2962 1.399 . S
C2963 C2964 1.385 . S
C2964 H2950 0.931 . S
C2964 C2963 1.385 . S
C2964 C2965 1.389 . S
C2965 C2964 1.389 . S
C2965 C2966 1.387 . S
C2966 H2951 0.930 . S
C2966 C2961 1.390 . S
C2966 C2965 1.387 . S
H2967 C2979 0.930 . S
H2968 C2981 0.930 . S
H2969 C2982 0.930 . S
H2970 C2986 0.959 . S
H2971 C2986 0.959 . S
H2972 C2986 0.961 . S
H2973 C2987 0.960 . S
H2974 C2987 0.961 . S
H2975 C2987 0.959 . S
H2976 C2990 0.929 . S
H2977 C2991 0.931 . S
H2978 C2993 0.930 . S
C2979 H2967 0.930 . S
C2979 C2980 1.399 . S
C2979 C2984 1.399 . S
C2980 C2979 1.399 . S
C2980 C2981 1.376 . S
C2981 H2968 0.930 . S
C2981 C2980 1.376 . S
C2981 C2982 1.388 . S
C2982 H2969 0.930 . S
C2982 C2981 1.388 . S
C2982 C2983 1.390 . S
C2983 C2982 1.390 . S
C2983 C2984 1.394 . S
C2983 C2989 1.465 . S
C2984 C2979 1.399 . S
C2984 C2983 1.394 . S
C2984 C2985 1.516 . S
C2985 C2984 1.516 . S
C2985 C2986 1.502 . S
C2985 C2987 1.561 . S
C2985 C2988 1.526 . S
C2986 H2970 0.959 . S
C2986 H2971 0.959 . S
C2986 H2972 0.961 . S
C2986 C2985 1.502 . S
C2987 H2973 0.960 . S
C2987 H2974 0.961 . S
C2987 H2975 0.959 . S
C2987 C2985 1.561 . S
C2988 C2985 1.526 . S
C2988 C2989 1.396 . S
C2988 C2993 1.390 . S
C2989 C2983 1.465 . S
C2989 C2988 1.396 . S
C2989 C2990 1.399 . S
C2990 H2976 0.929 . S
C2990 C2989 1.399 . S
C2990 C2991 1.385 . S
C2991 H2977 0.931 . S
C2991 C2990 1.385 . S
C2991 C2992 1.389 . S
C2992 C2991 1.389 . S
C2992 C2993 1.387 . S
C2993 H2978 0.930 . S
C2993 C2988 1.390 . S
C2993 C2992 1.387 . S
H2994 C3006 0.930 . S
H2995 C3008 0.930 . S
H2996 C3009 0.930 . S
H2997 C3013 0.959 . S
H2998 C3013 0.959 . S
H2999 C3013 0.961 . S
H3000 C3014 0.960 . S
H3001 C3014 0.961 . S
H3002 C3014 0.959 . S
H3003 C3017 0.929 . S
H3004 C3018 0.931 . S
H3005 C3020 0.930 . S
C3006 H2994 0.930 . S
C3006 C3007 1.399 . S
C3006 C3011 1.399 . S
C3007 C3006 1.399 . S
C3007 C3008 1.376 . S
C3008 H2995 0.930 . S
C3008 C3007 1.376 . S
C3008 C3009 1.388 . S
C3009 H2996 0.930 . S
C3009 C3008 1.388 . S
C3009 C3010 1.390 . S
C3010 C3009 1.390 . S
C3010 C3011 1.394 . S
C3010 C3016 1.465 . S
C3011 C3006 1.399 . S
C3011 C3010 1.394 . S
C3011 C3012 1.516 . S
C3012 C3011 1.516 . S
C3012 C3013 1.502 . S
C3012 C3014 1.561 . S
C3012 C3015 1.526 . S
C3013 H2997 0.959 . S
C3013 H2998 0.959 . S
C3013 H2999 0.961 . S
C3013 C3012 1.502 . S
C3014 H3000 0.960 . S
C3014 H3001 0.961 . S
C3014 H3002 0.959 . S
C3014 C3012 1.561 . S
C3015 C3012 1.526 . S
C3015 C3016 1.396 . S
C3015 C3020 1.390 . S
C3016 C3010 1.465 . S
C3016 C3015 1.396 . S
C3016 C3017 1.399 . S
C3017 H3003 0.929 . S
C3017 C3016 1.399 . S
C3017 C3018 1.385 . S
C3018 H3004 0.931 . S
C3018 C3017 1.385 . S
C3018 C3019 1.389 . S
C3019 C3018 1.389 . S
C3019 C3020 1.387 . S
C3020 H3005 0.930 . S
C3020 C3015 1.390 . S
C3020 C3019 1.387 . S
H3021 C3033 0.930 . S
H3022 C3035 0.930 1_554 S
H3023 C3036 0.930 . S
H3024 C3040 0.959 . S
H3025 C3040 0.959 . S
H3026 C3040 0.961 . S
H3027 C3041 0.960 . S
H3028 C3041 0.961 . S
H3029 C3041 0.959 . S
H3030 C3044 0.929 . S
H3031 C3045 0.931 . S
H3032 C3047 0.930 . S
C3033 H3021 0.930 . S
C3033 C3034 1.399 . S
C3033 C3038 1.399 . S
C3034 C3033 1.399 . S
C3034 C3035 1.376 . S
C3035 H3022 0.930 1_556 S
C3035 C3034 1.376 . S
C3035 C3036 1.388 . S
C3036 H3023 0.930 . S
C3036 C3035 1.388 . S
C3036 C3037 1.390 . S
C3037 C3036 1.390 . S
C3037 C3038 1.394 . S
C3037 C3043 1.465 . S
C3038 C3033 1.399 . S
C3038 C3037 1.394 . S
C3038 C3039 1.516 . S
C3039 C3038 1.516 . S
C3039 C3040 1.502 . S
C3039 C3041 1.561 . S
C3039 C3042 1.526 . S
C3040 H3024 0.959 . S
C3040 H3025 0.959 . S
C3040 H3026 0.961 . S
C3040 C3039 1.502 . S
C3041 H3027 0.960 . S
C3041 H3028 0.961 . S
C3041 H3029 0.959 . S
C3041 C3039 1.561 . S
C3042 C3039 1.526 . S
C3042 C3043 1.396 . S
C3042 C3047 1.390 . S
C3043 C3037 1.465 . S
C3043 C3042 1.396 . S
C3043 C3044 1.399 . S
C3044 H3030 0.929 . S
C3044 C3043 1.399 . S
C3044 C3045 1.385 . S
C3045 H3031 0.931 . S
C3045 C3044 1.385 . S
C3045 C3046 1.389 . S
C3046 C3045 1.389 . S
C3046 C3047 1.387 . S
C3047 H3032 0.930 . S
C3047 C3042 1.390 . S
C3047 C3046 1.387 . S
H3048 C3060 0.930 . S
H3049 C3062 0.930 . S
H3050 C3063 0.930 . S
H3051 C3067 0.959 . S
H3052 C3067 0.959 . S
H3053 C3067 0.961 . S
H3054 C3068 0.960 . S
H3055 C3068 0.961 . S
H3056 C3068 0.959 . S
H3057 C3071 0.929 . S
H3058 C3072 0.931 . S
H3059 C3074 0.930 . S
C3060 H3048 0.930 . S
C3060 C3061 1.399 . S
C3060 C3065 1.399 . S
C3061 C3060 1.399 . S
C3061 C3062 1.376 . S
C3062 H3049 0.930 . S
C3062 C3061 1.376 . S
C3062 C3063 1.388 . S
C3063 H3050 0.930 . S
C3063 C3062 1.388 . S
C3063 C3064 1.390 . S
C3064 C3063 1.390 . S
C3064 C3065 1.394 . S
C3064 C3070 1.465 . S
C3065 C3060 1.399 . S
C3065 C3064 1.394 . S
C3065 C3066 1.516 . S
C3066 C3065 1.516 . S
C3066 C3067 1.502 . S
C3066 C3068 1.561 . S
C3066 C3069 1.526 . S
C3067 H3051 0.959 . S
C3067 H3052 0.959 . S
C3067 H3053 0.961 . S
C3067 C3066 1.502 . S
C3068 H3054 0.960 . S
C3068 H3055 0.961 . S
C3068 H3056 0.959 . S
C3068 C3066 1.561 . S
C3069 C3066 1.526 . S
C3069 C3070 1.396 . S
C3069 C3074 1.390 . S
C3070 C3064 1.465 . S
C3070 C3069 1.396 . S
C3070 C3071 1.399 . S
C3071 H3057 0.929 . S
C3071 C3070 1.399 . S
C3071 C3072 1.385 . S
C3072 H3058 0.931 . S
C3072 C3071 1.385 . S
C3072 C3073 1.389 . S
C3073 C3072 1.389 . S
C3073 C3074 1.387 . S
C3074 H3059 0.930 . S
C3074 C3069 1.390 . S
C3074 C3073 1.387 . S
H3075 C3087 0.930 . S
H3076 C3089 0.930 . S
H3077 C3090 0.930 . S
H3078 C3094 0.959 . S
H3079 C3094 0.959 . S
H3080 C3094 0.961 . S
H3081 C3095 0.960 . S
H3082 C3095 0.961 . S
H3083 C3095 0.959 . S
H3084 C3098 0.929 . S
H3085 C3099 0.931 . S
H3086 C3101 0.930 . S
C3087 H3075 0.930 . S
C3087 C3088 1.399 . S
C3087 C3092 1.399 . S
C3088 C3087 1.399 . S
C3088 C3089 1.376 . S
C3089 H3076 0.930 . S
C3089 C3088 1.376 . S
C3089 C3090 1.388 . S
C3090 H3077 0.930 . S
C3090 C3089 1.388 . S
C3090 C3091 1.390 . S
C3091 C3090 1.390 . S
C3091 C3092 1.394 . S
C3091 C3097 1.465 . S
C3092 C3087 1.399 . S
C3092 C3091 1.394 . S
C3092 C3093 1.516 . S
C3093 C3092 1.516 . S
C3093 C3094 1.502 . S
C3093 C3095 1.561 . S
C3093 C3096 1.526 . S
C3094 H3078 0.959 . S
C3094 H3079 0.959 . S
C3094 H3080 0.961 . S
C3094 C3093 1.502 . S
C3095 H3081 0.960 . S
C3095 H3082 0.961 . S
C3095 H3083 0.959 . S
C3095 C3093 1.561 . S
C3096 C3093 1.526 . S
C3096 C3097 1.396 . S
C3096 C3101 1.390 . S
C3097 C3091 1.465 . S
C3097 C3096 1.396 . S
C3097 C3098 1.399 . S
C3098 H3084 0.929 . S
C3098 C3097 1.399 . S
C3098 C3099 1.385 . S
C3099 H3085 0.931 . S
C3099 C3098 1.385 . S
C3099 C3100 1.389 . S
C3100 C3099 1.389 . S
C3100 C3101 1.387 . S
C3101 H3086 0.930 . S
C3101 C3096 1.390 . S
C3101 C3100 1.387 . S
H3102 C3114 0.930 . S
H3103 C3116 0.930 . S
H3104 C3117 0.930 . S
H3105 C3121 0.959 . S
H3106 C3121 0.959 . S
H3107 C3121 0.961 . S
H3108 C3122 0.960 . S
H3109 C3122 0.961 . S
H3110 C3122 0.959 . S
H3111 C3125 0.929 . S
H3112 C3126 0.931 . S
H3113 C3128 0.930 . S
C3114 H3102 0.930 . S
C3114 C3115 1.399 . S
C3114 C3119 1.399 . S
C3115 C3114 1.399 . S
C3115 C3116 1.376 . S
C3116 H3103 0.930 . S
C3116 C3115 1.376 . S
C3116 C3117 1.388 . S
C3117 H3104 0.930 . S
C3117 C3116 1.388 . S
C3117 C3118 1.390 . S
C3118 C3117 1.390 . S
C3118 C3119 1.394 . S
C3118 C3124 1.465 . S
C3119 C3114 1.399 . S
C3119 C3118 1.394 . S
C3119 C3120 1.516 . S
C3120 C3119 1.516 . S
C3120 C3121 1.502 . S
C3120 C3122 1.561 . S
C3120 C3123 1.526 . S
C3121 H3105 0.959 . S
C3121 H3106 0.959 . S
C3121 H3107 0.961 . S
C3121 C3120 1.502 . S
C3122 H3108 0.960 . S
C3122 H3109 0.961 . S
C3122 H3110 0.959 . S
C3122 C3120 1.561 . S
C3123 C3120 1.526 . S
C3123 C3124 1.396 . S
C3123 C3128 1.390 . S
C3124 C3118 1.465 . S
C3124 C3123 1.396 . S
C3124 C3125 1.399 . S
C3125 H3111 0.929 . S
C3125 C3124 1.399 . S
C3125 C3126 1.385 . S
C3126 H3112 0.931 . S
C3126 C3125 1.385 . S
C3126 C3127 1.389 . S
C3127 C3126 1.389 . S
C3127 C3128 1.387 . S
C3128 H3113 0.930 . S
C3128 C3123 1.390 . S
C3128 C3127 1.387 . S
H3129 C3141 0.930 . S
H3130 C3143 0.930 . S
H3131 C3144 0.930 . S
H3132 C3148 0.959 . S
H3133 C3148 0.959 . S
H3134 C3148 0.961 . S
H3135 C3149 0.960 . S
H3136 C3149 0.961 . S
H3137 C3149 0.959 . S
H3138 C3152 0.929 . S
H3139 C3153 0.931 . S
H3140 C3155 0.930 . S
C3141 H3129 0.930 . S
C3141 C3142 1.399 . S
C3141 C3146 1.399 . S
C3142 C3141 1.399 . S
C3142 C3143 1.376 . S
C3143 H3130 0.930 . S
C3143 C3142 1.376 . S
C3143 C3144 1.388 . S
C3144 H3131 0.930 . S
C3144 C3143 1.388 . S
C3144 C3145 1.390 . S
C3145 C3144 1.390 . S
C3145 C3146 1.394 . S
C3145 C3151 1.465 . S
C3146 C3141 1.399 . S
C3146 C3145 1.394 . S
C3146 C3147 1.516 . S
C3147 C3146 1.516 . S
C3147 C3148 1.502 . S
C3147 C3149 1.561 . S
C3147 C3150 1.526 . S
C3148 H3132 0.959 . S
C3148 H3133 0.959 . S
C3148 H3134 0.961 . S
C3148 C3147 1.502 . S
C3149 H3135 0.960 . S
C3149 H3136 0.961 . S
C3149 H3137 0.959 . S
C3149 C3147 1.561 . S
C3150 C3147 1.526 . S
C3150 C3151 1.396 . S
C3150 C3155 1.390 . S
C3151 C3145 1.465 . S
C3151 C3150 1.396 . S
C3151 C3152 1.399 . S
C3152 H3138 0.929 . S
C3152 C3151 1.399 . S
C3152 C3153 1.385 . S
C3153 H3139 0.931 . S
C3153 C3152 1.385 . S
C3153 C3154 1.389 . S
C3154 C3153 1.389 . S
C3154 C3155 1.387 . S
C3155 H3140 0.930 . S
C3155 C3150 1.390 . S
C3155 C3154 1.387 . S
H3156 C3168 0.930 . S
H3157 C3170 0.930 . S
H3158 C3171 0.930 . S
H3159 C3175 0.959 . S
H3160 C3175 0.959 . S
H3161 C3175 0.961 . S
H3162 C3176 0.960 . S
H3163 C3176 0.961 . S
H3164 C3176 0.959 . S
H3165 C3179 0.929 . S
H3166 C3180 0.931 . S
H3167 C3182 0.930 . S
C3168 H3156 0.930 . S
C3168 C3169 1.399 . S
C3168 C3173 1.399 . S
C3169 C3168 1.399 . S
C3169 C3170 1.376 . S
C3170 H3157 0.930 . S
C3170 C3169 1.376 . S
C3170 C3171 1.388 . S
C3171 H3158 0.930 . S
C3171 C3170 1.388 . S
C3171 C3172 1.390 . S
C3172 C3171 1.390 . S
C3172 C3173 1.394 . S
C3172 C3178 1.465 . S
C3173 C3168 1.399 . S
C3173 C3172 1.394 . S
C3173 C3174 1.516 . S
C3174 C3173 1.516 . S
C3174 C3175 1.502 . S
C3174 C3176 1.561 . S
C3174 C3177 1.526 . S
C3175 H3159 0.959 . S
C3175 H3160 0.959 . S
C3175 H3161 0.961 . S
C3175 C3174 1.502 . S
C3176 H3162 0.960 . S
C3176 H3163 0.961 . S
C3176 H3164 0.959 . S
C3176 C3174 1.561 . S
C3177 C3174 1.526 . S
C3177 C3178 1.396 . S
C3177 C3182 1.390 . S
C3178 C3172 1.465 . S
C3178 C3177 1.396 . S
C3178 C3179 1.399 . S
C3179 H3165 0.929 . S
C3179 C3178 1.399 . S
C3179 C3180 1.385 . S
C3180 H3166 0.931 . S
C3180 C3179 1.385 . S
C3180 C3181 1.389 . S
C3181 C3180 1.389 . S
C3181 C3182 1.387 . S
C3182 H3167 0.930 . S
C3182 C3177 1.390 . S
C3182 C3181 1.387 . S
H3183 C3195 0.930 . S
H3184 C3197 0.930 . S
H3185 C3198 0.930 . S
H3186 C3202 0.959 . S
H3187 C3202 0.959 . S
H3188 C3202 0.961 . S
H3189 C3203 0.960 . S
H3190 C3203 0.961 . S
H3191 C3203 0.959 . S
H3192 C3206 0.929 . S
H3193 C3207 0.931 1_556 S
H3194 C3209 0.930 . S
C3195 H3183 0.930 . S
C3195 C3196 1.399 . S
C3195 C3200 1.399 . S
C3196 C3195 1.399 . S
C3196 C3197 1.376 . S
C3197 H3184 0.930 . S
C3197 C3196 1.376 . S
C3197 C3198 1.388 . S
C3198 H3185 0.930 . S
C3198 C3197 1.388 . S
C3198 C3199 1.390 . S
C3199 C3198 1.390 . S
C3199 C3200 1.394 . S
C3199 C3205 1.465 . S
C3200 C3195 1.399 . S
C3200 C3199 1.394 . S
C3200 C3201 1.516 . S
C3201 C3200 1.516 . S
C3201 C3202 1.502 . S
C3201 C3203 1.561 . S
C3201 C3204 1.526 . S
C3202 H3186 0.959 . S
C3202 H3187 0.959 . S
C3202 H3188 0.961 . S
C3202 C3201 1.502 . S
C3203 H3189 0.960 . S
C3203 H3190 0.961 . S
C3203 H3191 0.959 . S
C3203 C3201 1.561 . S
C3204 C3201 1.526 . S
C3204 C3205 1.396 . S
C3204 C3209 1.390 . S
C3205 C3199 1.465 . S
C3205 C3204 1.396 . S
C3205 C3206 1.399 . S
C3206 H3192 0.929 . S
C3206 C3205 1.399 . S
C3206 C3207 1.385 . S
C3207 H3193 0.931 1_554 S
C3207 C3206 1.385 . S
C3207 C3208 1.389 . S
C3208 C3207 1.389 . S
C3208 C3209 1.387 . S
C3209 H3194 0.930 . S
C3209 C3204 1.390 . S
C3209 C3208 1.387 . S
H3210 C3222 0.930 . S
H3211 C3224 0.930 . S
H3212 C3225 0.930 . S
H3213 C3229 0.959 . S
H3214 C3229 0.959 . S
H3215 C3229 0.961 . S
H3216 C3230 0.960 . S
H3217 C3230 0.961 . S
H3218 C3230 0.959 . S
H3219 C3233 0.929 . S
H3220 C3234 0.931 . S
H3221 C3236 0.930 . S
C3222 H3210 0.930 . S
C3222 C3223 1.399 . S
C3222 C3227 1.399 . S
C3223 C3222 1.399 . S
C3223 C3224 1.376 . S
C3224 H3211 0.930 . S
C3224 C3223 1.376 . S
C3224 C3225 1.388 . S
C3225 H3212 0.930 . S
C3225 C3224 1.388 . S
C3225 C3226 1.390 . S
C3226 C3225 1.390 . S
C3226 C3227 1.394 . S
C3226 C3232 1.465 . S
C3227 C3222 1.399 . S
C3227 C3226 1.394 . S
C3227 C3228 1.516 . S
C3228 C3227 1.516 . S
C3228 C3229 1.502 . S
C3228 C3230 1.561 . S
C3228 C3231 1.526 . S
C3229 H3213 0.959 . S
C3229 H3214 0.959 . S
C3229 H3215 0.961 . S
C3229 C3228 1.502 . S
C3230 H3216 0.960 . S
C3230 H3217 0.961 . S
C3230 H3218 0.959 . S
C3230 C3228 1.561 . S
C3231 C3228 1.526 . S
C3231 C3232 1.396 . S
C3231 C3236 1.390 . S
C3232 C3226 1.465 . S
C3232 C3231 1.396 . S
C3232 C3233 1.399 . S
C3233 H3219 0.929 . S
C3233 C3232 1.399 . S
C3233 C3234 1.385 . S
C3234 H3220 0.931 . S
C3234 C3233 1.385 . S
C3234 C3235 1.389 . S
C3235 C3234 1.389 . S
C3235 C3236 1.387 . S
C3236 H3221 0.930 . S
C3236 C3231 1.390 . S
C3236 C3235 1.387 . S
H3237 C3249 0.930 . S
H3238 C3251 0.930 1_545 S
H3239 C3252 0.930 . S
H3240 C3256 0.959 . S
H3241 C3256 0.959 . S
H3242 C3256 0.961 . S
H3243 C3257 0.960 . S
H3244 C3257 0.961 . S
H3245 C3257 0.959 . S
H3246 C3260 0.929 . S
H3247 C3261 0.931 . S
H3248 C3263 0.930 . S
C3249 H3237 0.930 . S
C3249 C3250 1.399 . S
C3249 C3254 1.399 . S
C3250 C3249 1.399 . S
C3250 C3251 1.376 . S
C3251 H3238 0.930 1_565 S
C3251 C3250 1.376 . S
C3251 C3252 1.388 . S
C3252 H3239 0.930 . S
C3252 C3251 1.388 . S
C3252 C3253 1.390 . S
C3253 C3252 1.390 . S
C3253 C3254 1.394 . S
C3253 C3259 1.465 . S
C3254 C3249 1.399 . S
C3254 C3253 1.394 . S
C3254 C3255 1.516 . S
C3255 C3254 1.516 . S
C3255 C3256 1.502 . S
C3255 C3257 1.561 . S
C3255 C3258 1.526 . S
C3256 H3240 0.959 . S
C3256 H3241 0.959 . S
C3256 H3242 0.961 . S
C3256 C3255 1.502 . S
C3257 H3243 0.960 . S
C3257 H3244 0.961 . S
C3257 H3245 0.959 . S
C3257 C3255 1.561 . S
C3258 C3255 1.526 . S
C3258 C3259 1.396 . S
C3258 C3263 1.390 . S
C3259 C3253 1.465 . S
C3259 C3258 1.396 . S
C3259 C3260 1.399 . S
C3260 H3246 0.929 . S
C3260 C3259 1.399 . S
C3260 C3261 1.385 . S
C3261 H3247 0.931 . S
C3261 C3260 1.385 . S
C3261 C3262 1.389 . S
C3262 C3261 1.389 . S
C3262 C3263 1.387 . S
C3263 H3248 0.930 . S
C3263 C3258 1.390 . S
C3263 C3262 1.387 . S
C685 C92 1.137 . S
C697 C8 1.171 . S
C712 C22 1.204 1_655 S
C724 C106 1.241 . S
C739 C36 1.231 . S
C751 C64 1.188 . S
C766 C78 1.185 . S
C778 C50 1.229 . S
C793 C484 1.226 . S
C805 C120 1.186 . S
C820 C498 1.140 . S
C832 C134 1.182 . S
C847 C148 1.135 . S
C859 C456 1.157 . S
C874 C162 1.147 . S
C886 C470 1.159 . S
C901 C540 1.212 . S
C913 C176 1.191 . S
C928 C554 1.133 . S
C940 C190 1.179 . S
C955 C512 1.143 . S
C967 C204 1.175 . S
C982 C526 1.240 . S
C994 C218 1.202 . S
C1009 C232 1.174 . S
C1021 C582 1.224 . S
C1036 C246 1.175 . S
C1048 C568 1.132 . S
C1063 C260 1.205 . S
C1075 C330 1.226 . S
C1090 C638 1.200 . S
C1102 C274 1.146 . S
C1117 C652 1.248 . S
C1129 C288 1.197 . S
C1144 C610 1.174 . S
C1156 C302 1.126 . S
C1171 C624 1.140 . S
C1183 C316 1.200 . S
C1198 C428 1.221 . S
C1210 C344 1.188 . S
C1225 C442 1.193 . S
C1237 C358 1.138 . S
C1252 C372 1.215 . S
C1264 C400 1.178 . S
C1279 C386 1.191 . S
C1291 C414 1.141 . S
C1306 C666 1.140 . S
C1318 C596 1.175 . S
C1333 C233 1.162 . S
C1345 C7 1.105 . S
C1360 C21 1.190 . S
C1372 C667 1.184 . S
C1387 C35 1.147 . S
C1399 C303 1.155 . S
C1414 C653 1.219 . S
C1426 C49 1.216 . S
C1441 C63 1.121 . S
C1453 C583 1.141 . S
C1468 C597 1.231 . S
C1480 C77 1.208 . S
C1495 C91 1.208 . S
C1507 C611 1.233 . S
C1522 C289 1.157 . S
C1534 C105 1.160 . S
C1549 C119 1.096 . S
C1561 C9 1.151 . S
C1576 C23 1.224 . S
C1588 C133 1.217 . S
C1603 C147 1.149 . S
C1615 C37 1.153 . S
C1630 C161 1.129 . S
C1642 C51 1.192 . S
C1657 C175 1.186 . S
C1669 C65 1.224 . S
C1684 C79 1.197 . S
C1696 C189 1.101 . S
C1711 C203 1.217 . S
C1723 C93 1.229 . S
C1738 C217 1.147 . S
C1750 C107 1.153 . S
C1765 C231 1.215 . S
C1777 C121 1.218 . S
C1792 C245 1.092 . S
C1804 C513 1.145 . S
C1819 C527 1.138 . S
C1831 C259 1.126 . S
C1846 C541 1.144 . S
C1858 C273 1.128 . S
C1873 C287 1.103 . S
C1885 C219 1.156 . S
C1900 C301 1.124 . S
C1912 C149 1.184 . S
C1927 C499 1.272 . S
C1939 C315 1.192 . S
C1954 C471 1.219 . S
C1966 C329 1.178 . S
C1981 C343 1.094 . S
C1993 C569 1.148 . S
C2008 C357 1.213 . S
C2020 C331 1.274 . S
C2035 C371 1.200 . S
C2047 C639 1.228 . S
C2062 C385 1.107 . S
C2074 C317 1.162 . S
C2089 C399 1.190 . S
C2101 C247 1.185 . S
C2116 C261 1.237 . S
C2128 C413 1.207 . S
C2143 C275 1.151 . S
C2155 C427 1.147 . S
C2170 C625 1.172 . S
C2182 C441 1.171 . S
C2197 C345 1.177 . S
C2209 C455 1.180 . S
C2224 C359 1.175 . S
C2236 C469 1.122 . S
C2251 C483 1.206 . S
C2263 C373 1.203 . S
C2278 C387 1.158 . S
C2290 C497 1.105 . S
C2305 C511 1.205 . S
C2317 C401 1.201 . S
C2332 C415 1.206 . S
C2344 C525 1.158 . S
C2359 C539 1.211 . S
C2371 C429 1.211 . S
C2386 C443 1.146 . S
C2398 C553 1.126 . S
C2413 C567 1.191 . S
C2425 C457 1.226 . S
C2440 C581 1.186 . S
C2452 C177 1.183 . S
C2467 C191 1.152 . S
C2479 C595 1.143 . S
C2494 C609 1.107 . S
C2506 C205 1.169 . S
C2521 C623 1.218 . S
C2533 C555 1.218 . S
C2548 C485 1.232 . S
C2560 C637 1.210 . S
C2575 C651 1.224 . S
C2587 C163 1.230 . S
C2602 C135 1.223 . S
C2614 C665 1.178 . S
C2629 C132 0.863 . S
C2641 C6 0.719 . S
C2656 C20 0.855 . S
C2668 C146 0.701 . S
C2683 C160 0.799 . S
C2695 C34 0.767 . S
C2710 C118 0.827 . S
C2722 C48 0.787 . S
C2737 C62 0.857 . S
C2749 C216 0.712 . S
C2764 C76 0.859 . S
C2776 C174 0.712 . S
C2791 C188 0.802 . S
C2803 C90 0.813 . S
C2818 C202 0.786 . S
C2830 C104 0.779 . S
C2845 C230 0.878 . S
C2857 C258 0.712 . S
C2872 C244 0.851 . S
C2884 C650 0.728 . S
C2899 C272 0.702 . S
C2911 C664 0.869 . S
C2926 C636 0.818 . S
C2938 C286 0.748 . S
C2953 C622 0.853 . S
C2965 C300 0.745 . S
C2980 C580 0.713 . S
C2992 C314 0.871 . S
C3007 C328 0.817 . S
C3019 C608 0.784 . S
C3034 C468 0.833 . S
C3046 C342 0.746 . S
C3061 C482 0.879 . S
C3073 C356 0.713 . S
C3088 C370 0.798 . S
C3100 C496 0.803 . S
C3115 C454 0.862 . S
C3127 C384 0.696 . S
C3142 C552 0.746 . S
C3154 C398 0.849 . S
C3169 C510 0.748 . S
C3181 C412 0.817 . S
C3196 C426 0.731 . S
C3208 C524 0.847 . S
C3223 C538 0.736 . S
C3235 C440 0.834 . S
C3250 C594 0.810 . S
C3262 C566 0.773 . S
