# Generated by pormake.
# Topology ftb, (5)-cn, num edge types: 1
# Building blocks:
#     Node 0, Type 0, BuildingBlock: XOMCOT_clean_sbu_0, # of connection points: 5
#     Node 1, Type 0, BuildingBlock: XOMCOT_clean_sbu_0, # of connection points: 5
#     Node 2, Type 0, BuildingBlock: XOMCOT_clean_sbu_0, # of connection points: 5
#     Node 3, Type 0, BuildingBlock: XOMCOT_clean_sbu_0, # of connection points: 5
#     Node 4, Type 0, BuildingBlock: XOMCOT_clean_sbu_0, # of connection points: 5
#     Node 5, Type 0, BuildingBlock: XOMCOT_clean_sbu_0, # of connection points: 5
#     Node 6, Type 0, BuildingBlock: XOMCOT_clean_sbu_0, # of connection points: 5
#     Node 7, Type 0, BuildingBlock: XOMCOT_clean_sbu_0, # of connection points: 5
#     Edge 8, Type (0, 0), BuildingBlock: MIFKUJ_clean_linker_0, # of connection points: 2
#     Edge 9, Type (0, 0), BuildingBlock: MIFKUJ_clean_linker_0, # of connection points: 2
#     Edge 10, Type (0, 0), BuildingBlock: MIFKUJ_clean_linker_0, # of connection points: 2
#     Edge 11, Type (0, 0), BuildingBlock: MIFKUJ_clean_linker_0, # of connection points: 2
#     Edge 12, Type (0, 0), BuildingBlock: MIFKUJ_clean_linker_0, # of connection points: 2
#     Edge 13, Type (0, 0), BuildingBlock: MIFKUJ_clean_linker_0, # of connection points: 2
#     Edge 14, Type (0, 0), BuildingBlock: MIFKUJ_clean_linker_0, # of connection points: 2
#     Edge 15, Type (0, 0), BuildingBlock: MIFKUJ_clean_linker_0, # of connection points: 2
#     Edge 16, Type (0, 0), BuildingBlock: MIFKUJ_clean_linker_0, # of connection points: 2
#     Edge 17, Type (0, 0), BuildingBlock: MIFKUJ_clean_linker_0, # of connection points: 2
#     Edge 18, Type (0, 0), BuildingBlock: MIFKUJ_clean_linker_0, # of connection points: 2
#     Edge 19, Type (0, 0), BuildingBlock: MIFKUJ_clean_linker_0, # of connection points: 2
#     Edge 20, Type (0, 0), BuildingBlock: MIFKUJ_clean_linker_0, # of connection points: 2
#     Edge 21, Type (0, 0), BuildingBlock: MIFKUJ_clean_linker_0, # of connection points: 2
#     Edge 22, Type (0, 0), BuildingBlock: MIFKUJ_clean_linker_0, # of connection points: 2
#     Edge 23, Type (0, 0), BuildingBlock: MIFKUJ_clean_linker_0, # of connection points: 2
#     Edge 24, Type (0, 0), BuildingBlock: MIFKUJ_clean_linker_0, # of connection points: 2
#     Edge 25, Type (0, 0), BuildingBlock: MIFKUJ_clean_linker_0, # of connection points: 2
#     Edge 26, Type (0, 0), BuildingBlock: MIFKUJ_clean_linker_0, # of connection points: 2
#     Edge 27, Type (0, 0), BuildingBlock: MIFKUJ_clean_linker_0, # of connection points: 2
# Relax obj value: 0.127
# Max RMSD: 0.202
# Mean RMSD: 0.202
data_MOF--net-ftb--node1-XOMCOT_clean_sbu_0--edge1-MIFKUJ_clean_linker_0
_symmetry_space_group_name_H-M    P1
_symmetry_Int_Tables_number       1
_symmetry_cell_setting            triclinic
loop_
_symmetry_equiv_pos_as_xyz
'x, y, z'
_cell_length_a     69.651744
_cell_length_b     26.329391
_cell_length_c     35.913963
_cell_angle_alpha  90.110761
_cell_angle_beta   92.153967
_cell_angle_gamma 89.908533
loop_
_atom_site_label
_atom_site_type_symbol
_atom_site_fract_x
_atom_site_fract_y
_atom_site_fract_z
_atom_type_partial_charge
Co0 Co 0.32642 0.9949 1.00786 0.0
C1 C 0.32366 0.93182 0.93862 0.0
C2 C 0.30874 0.00299 0.93288 0.0
C3 C 0.30668 0.97678 0.8998 0.0
N4 N 0.31947 0.97504 0.95713 0.0
N5 N 0.31609 0.93204 0.90325 0.0
H6 H 0.3322 0.90122 0.95063 0.0
H7 H 0.30271 0.03984 0.93894 0.0
C8 C 0.34035 0.10313 1.0028 0.0
O9 O 0.35275 0.09701 0.03089 0.0
N10 N 0.3329 0.01519 0.05924 0.0
C11 C 0.345 0.99188 0.08396 0.0
C12 C 0.34471 0.01696 0.11748 0.0
C13 C 0.32501 0.05364 0.07879 0.0
N14 N 0.33216 0.0559 0.11442 0.0
C15 C 0.35897 0.92794 1.01302 0.0
C16 C 0.38438 0.99014 0.97759 0.0
C17 C 0.39138 0.94585 0.99499 0.0
C18 C 0.37822 0.91355 1.01158 0.0
C19 C 0.36499 0.00298 0.97964 0.0
N20 N 0.35284 0.97396 0.99969 0.0
H21 H 0.34917 0.90294 0.0266 0.0
H22 H 0.36001 0.03652 0.96518 0.0
H23 H 0.35339 0.95844 0.07891 0.0
H24 H 0.31426 0.07931 0.06707 0.0
O25 O 0.31592 0.93195 0.02606 0.0
O26 O 0.29973 0.00386 0.01761 0.0
O27 O 0.33055 0.06589 0.98969 0.0
C28 C 0.29973 0.95661 0.0278 0.0
H29 H 0.29857 0.98951 0.87526 0.0
H30 H 0.35335 0.00733 0.14213 0.0
H31 H 0.39387 0.01577 0.96362 0.0
H32 H 0.38282 0.87794 0.02408 0.0
Co33 Co 0.6624 0.99372 0.01853 0.0
C34 C 0.66403 0.93225 0.08852 0.0
C35 C 0.68092 1.00032 0.09286 0.0
C36 C 0.68256 0.97477 0.12621 0.0
N37 N 0.66925 0.97389 0.06929 0.0
N38 N 0.6719 0.93196 0.12368 0.0
H39 H 0.65452 0.90321 0.07713 0.0
H40 H 0.68785 0.0357 0.08616 0.0
C41 C 0.64979 0.10297 0.02367 0.0
O42 O 0.63625 0.09622 0.99769 0.0
N43 N 0.65614 0.01445 0.96715 0.0
C44 C 0.64413 0.99203 0.94184 0.0
C45 C 0.6444 0.01851 0.90895 0.0
C46 C 0.66404 0.05358 0.94851 0.0
N47 N 0.6569 0.05744 0.91294 0.0
C48 C 0.62781 0.93442 1.01301 0.0
C49 C 0.60559 0.99819 0.05476 0.0
C50 C 0.59674 0.95723 0.036 0.0
C51 C 0.60829 0.92395 0.01607 0.0
C52 C 0.62514 0.00724 0.05084 0.0
N53 N 0.63567 0.97781 0.02776 0.0
H54 H 0.63648 0.90839 0.99754 0.0
H55 H 0.63167 0.03797 0.06657 0.0
H56 H 0.63577 0.95839 0.94605 0.0
H57 H 0.67475 0.07875 0.96094 0.0
O58 O 0.67126 0.92842 1.00074 0.0
O59 O 0.68908 0.9977 1.00783 0.0
O60 O 0.65993 0.06578 0.03591 0.0
C61 C 0.68794 0.9503 0.99812 0.0
H62 H 0.69125 0.98661 0.15027 0.0
H63 H 0.63574 0.00982 0.88414 0.0
H64 H 0.59744 0.02332 0.07215 0.0
H65 H 0.60221 0.89113 1.00176 0.0
Co66 Co 0.32542 0.48617 0.513 0.0
C67 C 0.3238 0.42505 0.44246 0.0
C68 C 0.30663 0.4928 0.4393 0.0
C69 C 0.30457 0.46734 0.40597 0.0
N70 N 0.3187 0.46654 0.46214 0.0
N71 N 0.3154 0.4247 0.40768 0.0
H72 H 0.33345 0.396 0.45338 0.0
H73 H 0.29954 0.5278 0.44665 0.0
C74 C 0.33895 0.59442 0.50718 0.0
O75 O 0.35274 0.58676 0.53253 0.0
N76 N 0.33142 0.50689 0.56452 0.0
C77 C 0.3413 0.48088 0.59134 0.0
C78 C 0.34076 0.50727 0.62434 0.0
C79 C 0.32445 0.54813 0.58231 0.0
N80 N 0.3302 0.54971 0.61876 0.0
C81 C 0.35985 0.42645 0.52104 0.0
C82 C 0.38286 0.48802 0.47946 0.0
C83 C 0.39137 0.44834 0.50018 0.0
C84 C 0.37948 0.41613 0.51999 0.0
C85 C 0.36315 0.49726 0.48167 0.0
N86 N 0.35221 0.46906 0.50472 0.0
H87 H 0.35088 0.4007 0.53591 0.0
H88 H 0.35687 0.52746 0.46504 0.0
H89 H 0.34799 0.44438 0.58819 0.0
H90 H 0.31507 0.57598 0.56893 0.0
O91 O 0.31625 0.42151 0.53076 0.0
O92 O 0.2986 0.49118 0.52304 0.0
O93 O 0.32833 0.55788 0.49551 0.0
C94 C 0.29962 0.44387 0.53302 0.0
H95 H 0.29536 0.47904 0.38262 0.0
H96 H 0.34769 0.49588 0.65047 0.0
H97 H 0.39143 0.51287 0.46278 0.0
H98 H 0.38534 0.38361 0.53496 0.0
Co99 Co 0.66425 0.4975 0.52083 0.0
C100 C 0.66564 0.43739 0.59289 0.0
C101 C 0.68717 0.49522 0.5908 0.0
C102 C 0.68971 0.46936 0.62382 0.0
N103 N 0.67191 0.47591 0.57141 0.0
N104 N 0.67619 0.43288 0.62529 0.0
H105 H 0.65381 0.41277 0.58517 0.0
H106 H 0.69607 0.52582 0.58124 0.0
C107 C 0.65925 0.58815 0.56958 0.0
O108 O 0.6523 0.55882 0.59535 0.0
N109 N 0.65731 0.5187 0.47036 0.0
C110 C 0.64609 0.4925 0.44585 0.0
C111 C 0.64503 0.51845 0.41264 0.0
C112 C 0.66305 0.56029 0.45164 0.0
N113 N 0.65575 0.56107 0.41604 0.0
C114 C 0.63002 0.43806 0.52876 0.0
C115 C 0.60474 0.51901 0.52836 0.0
C116 C 0.59724 0.46961 0.52798 0.0
C117 C 0.61023 0.42877 0.52855 0.0
C118 C 0.62453 0.52657 0.52795 0.0
N119 N 0.63703 0.48649 0.52906 0.0
H120 H 0.63967 0.40612 0.52692 0.0
H121 H 0.62952 0.56491 0.52465 0.0
H122 H 0.63923 0.45672 0.45163 0.0
H123 H 0.67268 0.58867 0.46361 0.0
O124 O 0.67144 0.43096 0.50269 0.0
O125 O 0.69083 0.49754 0.50851 0.0
O126 O 0.66334 0.5702 0.5378 0.0
C127 C 0.68855 0.4501 0.49955 0.0
H128 H 0.70108 0.47603 0.64462 0.0
H129 H 0.63681 0.50676 0.38795 0.0
H130 H 0.5954 0.55194 0.52799 0.0
H131 H 0.60521 0.3899 0.52718 0.0
Co132 Co 0.82837 0.99724 0.53044 0.0
C133 C 0.82768 0.93235 0.46181 0.0
C134 C 0.81215 0.00233 0.45415 0.0
C135 C 0.81109 0.9755 0.42124 0.0
N136 N 0.82265 0.97561 0.47952 0.0
N137 N 0.82086 0.93151 0.42591 0.0
H138 H 0.83629 0.90253 0.47476 0.0
H139 H 0.80556 0.03878 0.45928 0.0
C140 C 0.83934 0.1077 0.52471 0.0
O141 O 0.85227 0.1033 0.55209 0.0
N142 N 0.83351 0.01943 0.58192 0.0
C143 C 0.84521 0.99764 0.60808 0.0
C144 C 0.84403 0.02417 0.64093 0.0
C145 C 0.82492 0.05823 0.59993 0.0
N146 N 0.83132 0.06249 0.63596 0.0
C147 C 0.86347 0.94021 0.53759 0.0
C148 C 0.88597 0.00585 0.49832 0.0
C149 C 0.89475 0.96396 0.51612 0.0
C150 C 0.88303 0.92996 0.53486 0.0
C151 C 0.86629 0.01421 0.50134 0.0
N152 N 0.85553 0.98365 0.52308 0.0
H153 H 0.85477 0.91342 0.55214 0.0
H154 H 0.85989 0.04528 0.48588 0.0
H155 H 0.8539 0.96435 0.60436 0.0
H156 H 0.81424 0.08287 0.58677 0.0
O157 O 0.82044 0.93162 0.54851 0.0
O158 O 0.80136 0.99835 0.5394 0.0
O159 O 0.82998 0.06921 0.51238 0.0
C160 C 0.80331 0.95133 0.54976 0.0
H161 H 0.80341 0.9872 0.39593 0.0
H162 H 0.85224 0.01605 0.6664 0.0
H163 H 0.89421 0.03276 0.48275 0.0
H164 H 0.88889 0.89573 0.54753 0.0
Co165 Co 0.16773 0.99529 0.53333 0.0
C166 C 0.16934 0.93023 0.60337 0.0
C167 C 0.19176 0.98562 0.60146 0.0
C168 C 0.19469 0.95698 0.63313 0.0
N169 N 0.17579 0.96938 0.58266 0.0
N170 N 0.18062 0.92201 0.63442 0.0
H171 H 0.15715 0.90687 0.59575 0.0
H172 H 0.20092 0.0159 0.59232 0.0
C173 C 0.16313 0.08196 0.58592 0.0
O174 O 0.15616 0.05082 0.61049 0.0
N175 N 0.16051 0.02111 0.48409 0.0
C176 C 0.14705 1.00146 0.4603 0.0
C177 C 0.14585 0.03104 0.42873 0.0
C178 C 0.16765 0.0618 0.46627 0.0
N179 N 0.15882 0.06886 0.4324 0.0
C180 C 0.13327 0.93685 0.54184 0.0
C181 C 0.10852 0.01904 0.54074 0.0
C182 C 0.10086 0.97 0.54103 0.0
C183 C 0.11344 0.92849 0.54221 0.0
C184 C 0.12836 0.02572 0.54102 0.0
N185 N 0.14058 0.98499 0.54217 0.0
H186 H 0.14268 0.90451 0.53936 0.0
H187 H 0.13367 0.06377 0.53762 0.0
H188 H 0.13862 0.96795 0.46553 0.0
H189 H 0.17888 0.08592 0.47802 0.0
O190 O 0.17419 0.93015 0.51181 0.0
O191 O 0.19409 0.99531 0.52007 0.0
O192 O 0.1675 0.06634 0.55366 0.0
C193 C 0.19142 0.94882 0.50901 0.0
H194 H 0.20636 0.9616 0.6536 0.0
H195 H 0.13637 0.02478 0.40458 0.0
H196 H 0.0992 0.05202 0.53905 0.0
H197 H 0.10798 0.88999 0.5413 0.0
Co198 Co 0.82778 0.49731 0.0299 0.0
C199 C 0.82706 0.44266 0.95571 0.0
C200 C 0.80965 0.50971 0.95535 0.0
C201 C 0.80725 0.48607 0.92132 0.0
N202 N 0.82248 0.48346 0.97685 0.0
N203 N 0.81817 0.44376 0.92144 0.0
H204 H 0.83603 0.41168 0.96533 0.0
H205 H 0.80187 0.54283 0.96436 0.0
C206 C 0.8338 0.59813 0.99296 0.0
O207 O 0.8437 0.57638 0.96687 0.0
N208 N 0.83233 0.51135 0.08259 0.0
C209 C 0.84169 0.48137 0.10759 0.0
C210 C 0.84241 0.50568 0.14168 0.0
C211 C 0.82746 0.55346 0.10176 0.0
N212 N 0.83351 0.55113 0.13801 0.0
C213 C 0.86356 0.44561 0.01843 0.0
C214 C 0.88696 0.52791 0.03483 0.0
C215 C 0.89554 0.48123 0.02658 0.0
C216 C 0.88352 0.43968 0.01832 0.0
C217 C 0.86699 0.53223 0.03434 0.0
N218 N 0.85547 0.49187 0.02495 0.0
H219 H 0.8547 0.41234 1.01498 0.0
H220 H 0.86091 0.56764 0.04341 0.0
H221 H 0.84784 0.44473 0.10133 0.0
H222 H 0.81956 0.58502 0.08952 0.0
O223 O 0.8216 0.4273 0.04078 0.0
O224 O 0.80084 0.49157 0.03795 0.0
O225 O 0.82768 0.57215 0.01998 0.0
C226 C 0.80397 0.44342 0.04302 0.0
H227 H 0.79743 0.49788 0.8989 0.0
H228 H 0.8494 0.49144 0.16699 0.0
H229 H 0.89555 0.56053 0.04316 0.0
H230 H 0.88941 0.40258 1.01243 0.0
Co231 Co 0.16717 0.48812 0.02976 0.0
C232 C 0.1708 0.42619 0.09935 0.0
C233 C 0.19116 0.48732 0.0986 0.0
C234 C 0.19435 0.45994 0.13089 0.0
N235 N 0.17643 0.46623 0.07882 0.0
N236 N 0.18156 0.4215 0.13143 0.0
H237 H 0.15942 0.40038 0.09063 0.0
H238 H 0.19921 0.52002 0.08986 0.0
C239 C 0.15813 0.59965 0.0388 0.0
O240 O 0.14288 0.59623 0.01627 0.0
N241 N 0.1584 0.51055 0.97997 0.0
C242 C 0.14404 0.49147 0.95788 0.0
C243 C 0.14283 0.51846 0.92514 0.0
C244 C 0.16617 0.54796 0.95938 0.0
N245 N 0.15668 0.5541 0.92604 0.0
C246 C 0.13124 0.43493 0.03208 0.0
C247 C 0.11263 0.50466 0.07556 0.0
C248 C 0.10195 0.46529 0.05863 0.0
C249 C 0.11168 0.42876 0.03807 0.0
C250 C 0.1322 0.50907 0.06906 0.0
N251 N 0.14086 0.47702 0.04484 0.0
H252 H 0.13841 0.40702 0.01546 0.0
H253 H 0.14017 0.53867 0.0834 0.0
H254 H 0.13509 0.45959 0.96409 0.0
H255 H 0.17822 0.57101 0.96901 0.0
O256 O 0.1732 0.42147 1.01015 0.0
O257 O 0.19298 0.4875 1.01302 0.0
O258 O 0.16784 0.56017 0.04793 0.0
C259 C 0.1901 0.44031 1.00406 0.0
H260 H 0.20519 0.46799 0.15246 0.0
H261 H 0.1327 0.51171 0.90206 0.0
H262 H 0.10585 0.53225 0.09324 0.0
H263 H 0.1041 0.39705 0.02514 0.0
H264 H 0.30724 0.43734 0.33349 0.0
H265 H 0.3085 0.37384 0.28446 0.0
H266 H 0.32916 0.26283 0.36443 0.0
H267 H 0.32753 0.32617 0.41428 0.0
H268 H 0.34948 0.26034 0.30106 0.0
H269 H 0.28355 0.26023 0.33139 0.0
H270 H 0.25145 0.29517 0.34229 0.0
H271 H 0.2464 0.34542 0.2287 0.0
H272 H 0.27879 0.31206 0.21733 0.0
H273 H 0.33635 0.04237 0.18922 0.0
H274 H 0.33262 0.10564 0.23787 0.0
H275 H 0.31444 0.21601 0.15532 0.0
H276 H 0.31846 0.15265 0.10595 0.0
H277 H 0.29255 0.21918 0.21936 0.0
H278 H 0.35911 0.22098 0.19011 0.0
H279 H 0.39086 0.18328 0.17941 0.0
H280 H 0.39393 0.12729 0.29169 0.0
H281 H 0.36204 0.16401 0.3029 0.0
C282 C 0.31181 0.39938 0.34108 0.0
C283 C 0.31703 0.38711 0.37833 0.0
C284 C 0.31257 0.36299 0.31275 0.0
C285 C 0.31863 0.31324 0.3207 0.0
C286 C 0.32434 0.30094 0.35758 0.0
C287 C 0.32347 0.33736 0.38611 0.0
C288 C 0.31934 0.27458 0.2903 0.0
C289 C 0.33695 0.25087 0.28358 0.0
C290 C 0.3031 0.26306 0.26673 0.0
C291 C 0.28375 0.28413 0.27363 0.0
C292 C 0.27573 0.27932 0.30883 0.0
C293 C 0.25744 0.29873 0.31508 0.0
C294 C 0.24686 0.32247 0.28621 0.0
C295 C 0.25461 0.32705 0.25105 0.0
C296 C 0.27296 0.30797 0.24471 0.0
C297 C 0.33168 0.08009 0.18113 0.0
C298 C 0.32808 0.09244 0.14335 0.0
C299 C 0.32947 0.11628 0.20916 0.0
C300 C 0.32358 0.16591 0.2003 0.0
C301 C 0.31911 0.178 0.16284 0.0
C302 C 0.32138 0.14167 0.13461 0.0
C303 C 0.32266 0.2051 0.23027 0.0
C304 C 0.30505 0.22888 0.23685 0.0
C305 C 0.33886 0.2167 0.2538 0.0
C306 C 0.3581 0.19485 0.24723 0.0
C307 C 0.36648 0.20029 0.21244 0.0
C308 C 0.38452 0.17914 0.20629 0.0
C309 C 0.39438 0.1528 0.23482 0.0
C310 C 0.38626 0.14765 0.2696 0.0
C311 C 0.36821 0.16866 0.27588 0.0
H312 H 0.40834 0.13646 0.23001 0.0
H313 H 0.23265 0.33721 0.29108 0.0
H314 H 0.66221 0.83198 0.11572 0.0
H315 H 0.65961 0.76887 0.16533 0.0
H316 H 0.67402 0.88347 0.24757 0.0
H317 H 0.67651 0.94648 0.19846 0.0
H318 H 0.69375 0.79917 0.26267 0.0
H319 H 0.62768 0.8396 0.23339 0.0
H320 H 0.59873 0.85009 0.19243 0.0
H321 H 0.60069 0.69203 0.16311 0.0
H322 H 0.62982 0.68075 0.20351 0.0
H323 H 0.66599 0.66068 0.42466 0.0
H324 H 0.66939 0.72393 0.37529 0.0
H325 H 0.65543 0.60993 0.29234 0.0
H326 H 0.65225 0.54684 0.34109 0.0
H327 H 0.63555 0.69412 0.27759 0.0
H328 H 0.70121 0.65336 0.30932 0.0
H329 H 0.7305 0.64405 0.34942 0.0
H330 H 0.72987 0.80384 0.37323 0.0
H331 H 0.70022 0.81388 0.33441 0.0
C332 C 0.66463 0.84392 0.14435 0.0
C333 C 0.66967 0.89454 0.15283 0.0
C334 C 0.66317 0.80769 0.17278 0.0
C335 C 0.66655 0.82127 0.2104 0.0
C336 C 0.67147 0.87177 0.21887 0.0
C337 C 0.67295 0.90788 0.19057 0.0
C338 C 0.66516 0.78311 0.24103 0.0
C339 C 0.68091 0.77669 0.26624 0.0
C340 C 0.64861 0.75283 0.24535 0.0
C341 C 0.63104 0.75946 0.22117 0.0
C342 C 0.62202 0.80717 0.21798 0.0
C343 C 0.60557 0.81324 0.1949 0.0
C344 C 0.59791 0.77179 0.1751 0.0
C345 C 0.60666 0.72413 0.17842 0.0
C346 C 0.62313 0.71786 0.20142 0.0
C347 C 0.66386 0.6489 0.39592 0.0
C348 C 0.65868 0.59846 0.38713 0.0
C349 C 0.66578 0.68521 0.36764 0.0
C350 C 0.66268 0.67186 0.3299 0.0
C351 C 0.65774 0.62147 0.32114 0.0
C352 C 0.65585 0.58531 0.34925 0.0
C353 C 0.66414 0.71019 0.2994 0.0
C354 C 0.64839 0.71663 0.27415 0.0
C355 C 0.68071 0.74054 0.29512 0.0
C356 C 0.6983 0.73424 0.31933 0.0
C357 C 0.70713 0.68639 0.32361 0.0
C358 C 0.72382 0.68099 0.34614 0.0
C359 C 0.73197 0.72327 0.36416 0.0
C360 C 0.72345 0.77103 0.35965 0.0
C361 C 0.70668 0.77659 0.33742 0.0
H362 H 0.74494 0.71909 0.38146 0.0
H363 H 0.58517 0.77657 0.15724 0.0
H364 H 0.32918 0.5376 0.69368 0.0
H365 H 0.32559 0.60347 0.74062 0.0
H366 H 0.31862 0.71609 0.65411 0.0
H367 H 0.32274 0.65008 0.60673 0.0
H368 H 0.34338 0.74848 0.70842 0.0
H369 H 0.28037 0.67738 0.7043 0.0
H370 H 0.25615 0.60926 0.70517 0.0
H371 H 0.27556 0.56793 0.8159 0.0
H372 H 0.3001 0.63537 0.81552 0.0
H373 H 0.31388 0.94579 0.82832 0.0
H374 H 0.31513 0.88104 0.77993 0.0
H375 H 0.32338 0.76541 0.86389 0.0
H376 H 0.32161 0.83028 0.91281 0.0
H377 H 0.29723 0.73572 0.8099 0.0
H378 H 0.36076 0.80628 0.81293 0.0
H379 H 0.38489 0.87462 0.8115 0.0
H380 H 0.36408 0.91749 0.70195 0.0
H381 H 0.33963 0.84982 0.70294 0.0
C382 C 0.32693 0.57632 0.68448 0.0
C383 C 0.32641 0.58842 0.64627 0.0
C384 C 0.32467 0.61402 0.71147 0.0
C385 C 0.32169 0.66488 0.70107 0.0
C386 C 0.32088 0.67714 0.66292 0.0
C387 C 0.3231 0.63928 0.6358 0.0
C388 C 0.32015 0.70517 0.73019 0.0
C389 C 0.33306 0.7461 0.73023 0.0
C390 C 0.30702 0.7016 0.7593 0.0
C391 C 0.2922 0.66116 0.75974 0.0
C392 C 0.27958 0.65352 0.72874 0.0
C393 C 0.26577 0.61507 0.72916 0.0
C394 C 0.26435 0.5842 0.76053 0.0
C395 C 0.27669 0.59184 0.7916 0.0
C396 C 0.29054 0.63021 0.79131 0.0
C397 C 0.31583 0.90662 0.83668 0.0
C398 C 0.31759 0.89343 0.87466 0.0
C399 C 0.31672 0.86956 0.80884 0.0
C400 C 0.31953 0.81823 0.8181 0.0
C401 C 0.32124 0.80475 0.85597 0.0
C402 C 0.3204 0.84196 0.88395 0.0
C403 C 0.32052 0.77887 0.78819 0.0
C404 C 0.30751 0.73813 0.78803 0.0
C405 C 0.33352 0.78268 0.75888 0.0
C406 C 0.34824 0.82329 0.75817 0.0
C407 C 0.36123 0.83054 0.78866 0.0
C408 C 0.37498 0.86911 0.7879 0.0
C409 C 0.37598 0.90046 0.75669 0.0
C410 C 0.36327 0.89322 0.72613 0.0
C411 C 0.34947 0.85473 0.72676 0.0
H412 H 0.38664 0.93029 0.75616 0.0
H413 H 0.25366 0.55443 0.76079 0.0
H414 H 0.68783 0.44323 0.69801 0.0
H415 H 0.68573 0.38067 0.74762 0.0
H416 H 0.65783 0.27607 0.67063 0.0
H417 H 0.65995 0.33867 0.62061 0.0
H418 H 0.64014 0.27617 0.73461 0.0
H419 H 0.70616 0.26251 0.70098 0.0
H420 H 0.73905 0.29184 0.68972 0.0
H421 H 0.74506 0.34492 0.80268 0.0
H422 H 0.7122 0.31608 0.81458 0.0
H423 H 0.65042 0.05042 0.83786 0.0
H424 H 0.65423 0.1165 0.79164 0.0
H425 H 0.67675 0.21784 0.87687 0.0
H426 H 0.67262 0.1518 0.92394 0.0
H427 H 0.69723 0.22209 0.81143 0.0
H428 H 0.63189 0.23381 0.84578 0.0
H429 H 0.59947 0.20216 0.85817 0.0
H430 H 0.59226 0.15303 0.74443 0.0
H431 H 0.62479 0.1837 0.73149 0.0
C432 C 0.68141 0.40679 0.69137 0.0
C433 C 0.67421 0.39611 0.65498 0.0
C434 C 0.68023 0.37088 0.71992 0.0
C435 C 0.67193 0.32306 0.71293 0.0
C436 C 0.66438 0.31255 0.67684 0.0
C437 C 0.66552 0.34856 0.6482 0.0
C438 C 0.67072 0.2846 0.74342 0.0
C439 C 0.6527 0.26391 0.75099 0.0
C440 C 0.68696 0.26954 0.76585 0.0
C441 C 0.70663 0.28763 0.75854 0.0
C442 C 0.71444 0.28083 0.72333 0.0
C443 C 0.73311 0.29719 0.71687 0.0
C444 C 0.74415 0.32021 0.74547 0.0
C445 C 0.73653 0.32694 0.78058 0.0
C446 C 0.71789 0.31056 0.7872 0.0
C447 C 0.65602 0.08673 0.84718 0.0
C448 C 0.66082 0.09566 0.88513 0.0
C449 C 0.65827 0.1246 0.82047 0.0
C450 C 0.66545 0.17256 0.83074 0.0
C451 C 0.67106 0.18122 0.86825 0.0
C452 C 0.66871 0.14326 0.89519 0.0
C453 C 0.66673 0.21343 0.80215 0.0
C454 C 0.6847 0.23457 0.79503 0.0
C455 C 0.65046 0.22902 0.78015 0.0
C456 C 0.63086 0.21064 0.78776 0.0
C457 C 0.62346 0.21587 0.82348 0.0
C458 C 0.60505 0.19817 0.83059 0.0
C459 C 0.59383 0.17548 0.80213 0.0
C460 C 0.60098 0.17056 0.76647 0.0
C461 C 0.6194 0.18813 0.75922 0.0
H462 H 0.57957 0.16182 0.80769 0.0
H463 H 0.75862 0.33277 0.74045 0.0
H464 H 0.81705 0.1579 0.62333 0.0
H465 H 0.81231 0.22468 0.66969 0.0
H466 H 0.83028 0.12138 0.75727 0.0
H467 H 0.83467 0.05454 0.71142 0.0
H468 H 0.80001 0.17803 0.77782 0.0
H469 H 0.86129 0.20999 0.72131 0.0
H470 H 0.88161 0.22649 0.66785 0.0
H471 H 0.84901 0.36106 0.64145 0.0
H472 H 0.82829 0.34489 0.69438 0.0
H473 H 0.82601 0.34247 0.92769 0.0
H474 H 0.82616 0.27966 0.87737 0.0
H475 H 0.8116 0.39671 0.79734 0.0
H476 H 0.81196 0.45981 0.84731 0.0
H477 H 0.83786 0.33682 0.76987 0.0
H478 H 0.77784 0.31179 0.82429 0.0
H479 H 0.75483 0.29767 0.87376 0.0
H480 H 0.78172 0.15472 0.90033 0.0
H481 H 0.80499 0.16822 0.85114 0.0
C482 C 0.81986 0.1492 0.65241 0.0
C483 C 0.82668 0.10086 0.66331 0.0
C484 C 0.81722 0.1876 0.67897 0.0
C485 C 0.82128 0.1785 0.71707 0.0
C486 C 0.82719 0.12965 0.72812 0.0
C487 C 0.82988 0.09144 0.70166 0.0
C488 C 0.82004 0.21983 0.74554 0.0
C489 C 0.80845 0.2125 0.77627 0.0
C490 C 0.83048 0.2658 0.743 0.0
C491 C 0.84314 0.27596 0.71158 0.0
C492 C 0.85839 0.24293 0.70396 0.0
C493 C 0.86997 0.25221 0.67374 0.0
C494 C 0.86654 0.29468 0.65116 0.0
C495 C 0.85159 0.32808 0.65886 0.0
C496 C 0.83994 0.3189 0.68898 0.0
C497 C 0.82304 0.35503 0.89939 0.0
C498 C 0.81889 0.4064 0.89175 0.0
C499 C 0.82292 0.31888 0.87058 0.0
C500 C 0.81863 0.33312 0.83342 0.0
C501 C 0.81488 0.38452 0.82567 0.0
C502 C 0.81494 0.4206 0.85442 0.0
C503 C 0.81814 0.29456 0.80267 0.0
C504 C 0.82937 0.30245 0.77147 0.0
C505 C 0.80709 0.24952 0.80443 0.0
C506 C 0.79326 0.24127 0.83427 0.0
C507 C 0.77893 0.27753 0.84088 0.0
C508 C 0.76582 0.26959 0.86881 0.0
C509 C 0.76686 0.2254 0.89027 0.0
C510 C 0.78096 0.18898 0.88373 0.0
C511 C 0.79409 0.19672 0.85577 0.0
H512 H 0.7567 0.21932 0.91191 0.0
H513 H 0.87551 0.3018 0.62777 0.0
H514 H 0.1909 0.59236 0.90535 0.0
H515 H 0.1962 0.65225 0.85444 0.0
H516 H 0.13503 0.66052 0.83137 0.0
H517 H 0.12984 0.59958 0.88117 0.0
H518 H 0.15258 0.65528 0.76821 0.0
H519 H 0.16208 0.75743 0.88082 0.0
H520 H 0.17794 0.76745 0.94299 0.0
H521 H 0.23312 0.76966 0.89356 0.0
H522 H 0.21759 0.75914 0.83112 0.0
H523 H 0.14767 0.87733 0.65613 0.0
H524 H 0.1444 0.81415 0.70542 0.0
H525 H 0.2058 0.81528 0.72621 0.0
H526 H 0.20906 0.87894 0.67761 0.0
H527 H 0.18959 0.81407 0.78997 0.0
H528 H 0.18175 0.71606 0.67857 0.0
H529 H 0.16811 0.69314 0.61646 0.0
H530 H 0.11235 0.67596 0.66194 0.0
H531 H 0.12561 0.69947 0.72427 0.0
C532 C 0.17862 0.60729 0.88953 0.0
C533 C 0.15996 0.59123 0.89732 0.0
C534 C 0.18163 0.64159 0.8604 0.0
C535 C 0.16599 0.66171 0.83912 0.0
C536 C 0.14737 0.64565 0.84708 0.0
C537 C 0.1444 0.61081 0.87567 0.0
C538 C 0.16881 0.69968 0.80874 0.0
C539 C 0.16045 0.69032 0.77315 0.0
C540 C 0.17958 0.74483 0.81456 0.0
C541 C 0.1887 0.75703 0.85142 0.0
C542 C 0.17758 0.76047 0.88323 0.0
C543 C 0.18651 0.76604 0.91849 0.0
C544 C 0.20652 0.76864 0.92219 0.0
C545 C 0.21762 0.76731 0.8906 0.0
C546 C 0.20876 0.76171 0.85527 0.0
C547 C 0.16048 0.86381 0.67096 0.0
C548 C 0.17862 0.88336 0.66272 0.0
C549 C 0.15862 0.82758 0.69923 0.0
C550 C 0.17488 0.80926 0.71954 0.0
C551 C 0.19299 0.82875 0.71127 0.0
C552 C 0.19483 0.86531 0.68334 0.0
C553 C 0.17306 0.77011 0.74946 0.0
C554 C 0.18163 0.7792 0.78497 0.0
C555 C 0.16265 0.72438 0.74342 0.0
C556 C 0.15464 0.71 0.70602 0.0
C557 C 0.16655 0.70774 0.67528 0.0
C558 C 0.15889 0.6946 0.64004 0.0
C559 C 0.13937 0.68322 0.63524 0.0
C560 C 0.12747 0.68484 0.6657 0.0
C561 C 0.13505 0.69804 0.70099 0.0
H562 H 0.13347 0.67305 0.60794 0.0
H563 H 0.21344 0.77132 0.94954 0.0
H564 H 0.82443 0.82942 0.43621 0.0
H565 H 0.82657 0.76405 0.3877 0.0
H566 H 0.82487 0.88049 0.30328 0.0
H567 H 0.82247 0.94539 0.35143 0.0
H568 H 0.80235 0.80758 0.28116 0.0
H569 H 0.86709 0.81455 0.33058 0.0
H570 H 0.89299 0.81195 0.37929 0.0
H571 H 0.87764 0.65888 0.40635 0.0
H572 H 0.85147 0.66081 0.35811 0.0
H573 H 0.83095 0.65356 0.1289 0.0
H574 H 0.82897 0.71808 0.17774 0.0
H575 H 0.82964 0.60048 0.26125 0.0
H576 H 0.83192 0.53603 0.21258 0.0
H577 H 0.85255 0.67379 0.28383 0.0
H578 H 0.78732 0.66906 0.23278 0.0
H579 H 0.76237 0.67345 0.18226 0.0
H580 H 0.77999 0.82506 0.15615 0.0
H581 H 0.80519 0.82137 0.20627 0.0
C582 C 0.82473 0.84101 0.40734 0.0
C583 C 0.82323 0.8927 0.39779 0.0
C584 C 0.82594 0.80361 0.37954 0.0
C585 C 0.82602 0.8171 0.34157 0.0
C586 C 0.82472 0.86877 0.33217 0.0
C587 C 0.82334 0.90598 0.35983 0.0
C588 C 0.82715 0.77775 0.31149 0.0
C589 C 0.81348 0.77872 0.28162 0.0
C590 C 0.84145 0.73935 0.31203 0.0
C591 C 0.85719 0.73803 0.341 0.0
C592 C 0.86914 0.78048 0.34711 0.0
C593 C 0.88389 0.7791 0.37461 0.0
C594 C 0.88692 0.73533 0.39597 0.0
C595 C 0.87525 0.69279 0.38982 0.0
C596 C 0.86047 0.69399 0.36239 0.0
C597 C 0.83046 0.64138 0.15761 0.0
C598 C 0.83158 0.58944 0.16669 0.0
C599 C 0.82932 0.6784 0.18563 0.0
C600 C 0.82892 0.6644 0.22342 0.0
C601 C 0.82998 0.61253 0.23246 0.0
C602 C 0.8313 0.57559 0.20452 0.0
C603 C 0.82771 0.70353 0.25362 0.0
C604 C 0.84138 0.70257 0.28347 0.0
C605 C 0.81353 0.74224 0.25289 0.0
C606 C 0.79822 0.74477 0.22309 0.0
C607 C 0.78593 0.70324 0.21615 0.0
C608 C 0.77174 0.70562 0.1876 0.0
C609 C 0.76964 0.74946 0.16595 0.0
C610 C 0.78166 0.79111 0.17291 0.0
C611 C 0.79587 0.78893 0.20142 0.0
H612 H 0.75867 0.75121 0.14383 0.0
H613 H 0.89835 0.73434 0.41724 0.0
H614 H 0.19319 0.1055 0.41167 0.0
H615 H 0.19876 0.16601 0.36128 0.0
H616 H 0.13759 0.1804 0.34081 0.0
H617 H 0.13211 0.11906 0.39044 0.0
H618 H 0.15552 0.16411 0.2772 0.0
H619 H 0.16464 0.31366 0.3705 0.0
H620 H 0.17926 0.34834 0.4289 0.0
H621 H 0.23309 0.27842 0.40454 0.0
H622 H 0.21898 0.2456 0.34504 0.0
H623 H 0.14923 0.37462 0.15364 0.0
H624 H 0.14658 0.31466 0.20527 0.0
H625 H 0.2079 0.3223 0.2265 0.0
H626 H 0.21046 0.38316 0.17566 0.0
H627 H 0.19195 0.32526 0.28955 0.0
H628 H 0.184 0.21604 0.18352 0.0
H629 H 0.17001 0.18661 0.12319 0.0
H630 H 0.11471 0.17292 0.17113 0.0
H631 H 0.12831 0.2029 0.23166 0.0
C632 C 0.18098 0.12246 0.39685 0.0
C633 C 0.16223 0.10782 0.40513 0.0
C634 C 0.18415 0.15736 0.36816 0.0
C635 C 0.1686 0.17884 0.34748 0.0
C636 C 0.14986 0.1647 0.35628 0.0
C637 C 0.14672 0.12956 0.38462 0.0
C638 C 0.17166 0.21296 0.31493 0.0
C639 C 0.16335 0.19958 0.27999 0.0
C640 C 0.18235 0.25851 0.31792 0.0
C641 C 0.19071 0.27651 0.35391 0.0
C642 C 0.17957 0.3056 0.37776 0.0
C643 C 0.1878 0.32526 0.41084 0.0
C644 C 0.20702 0.31503 0.42069 0.0
C645 C 0.21818 0.28604 0.39702 0.0
C646 C 0.21013 0.26736 0.36346 0.0
C647 C 0.16215 0.36307 0.16907 0.0
C648 C 0.18004 0.38378 0.16047 0.0
C649 C 0.16066 0.32864 0.19863 0.0
C650 C 0.17708 0.31316 0.21979 0.0
C651 C 0.19497 0.33354 0.21091 0.0
C652 C 0.19643 0.36842 0.18174 0.0
C653 C 0.17561 0.2768 0.25166 0.0
C654 C 0.1842 0.28971 0.28649 0.0
C655 C 0.16536 0.23039 0.24835 0.0
C656 C 0.15715 0.21214 0.21204 0.0
C657 C 0.16883 0.20708 0.18113 0.0
C658 C 0.16097 0.19025 0.14691 0.0
C659 C 0.14148 0.17802 0.14331 0.0
C660 C 0.1298 0.18246 0.17396 0.0
C661 C 0.13758 0.19931 0.20824 0.0
H662 H 0.13542 0.16501 0.11679 0.0
H663 H 0.21328 0.32975 0.44655 0.0
H664 H 0.57597 0.8688 0.04076 0.0
H665 H 0.54099 0.85922 0.03545 0.0
H666 H 0.53472 0.02162 0.0247 0.0
H667 H 0.56951 0.03146 0.02973 0.0
H668 H 0.50871 0.9847 0.06973 0.0
H669 H 0.53209 0.94453 0.9486 0.0
H670 H 0.55185 0.89814 0.90419 0.0
H671 H 0.52526 0.75784 0.93437 0.0
H672 H 0.50552 0.80336 0.97938 0.0
H673 H 0.4183 0.96003 0.94197 0.0
H674 H 0.45324 0.95376 0.95051 0.0
H675 H 0.44686 0.90065 0.06289 0.0
H676 H 0.41203 0.90861 0.05513 0.0
H677 H 0.47914 0.87964 0.96806 0.0
H678 H 0.48131 0.95715 0.11853 0.0
H679 H 0.46165 0.01019 0.15917 0.0
H680 H 0.4374 0.08774 0.06337 0.0
H681 H 0.45711 0.03569 0.02224 0.0
C682 C 0.56713 0.90244 0.03726 0.0
C683 C 0.57554 0.9509 0.03563 0.0
C684 C 0.54715 0.8969 0.03428 0.0
C685 C 0.53527 0.93969 0.02934 0.0
C686 C 0.54361 0.9881 0.02865 0.0
C687 C 0.56352 0.99367 0.03169 0.0
C688 C 0.51415 0.9344 0.02392 0.0
C689 C 0.50226 0.96141 0.04768 0.0
C690 C 0.50572 0.90462 0.9948 0.0
C691 C 0.51749 0.87726 0.96763 0.0
C692 C 0.53057 0.90373 0.94597 0.0
C693 C 0.54174 0.87761 0.92066 0.0
C694 C 0.53985 0.82505 0.91654 0.0
C695 C 0.52673 0.79853 0.93764 0.0
C696 C 0.51554 0.82447 0.96304 0.0
C697 C 0.42433 0.94686 0.96846 0.0
C698 C 0.41236 0.93537 0.99798 0.0
C699 C 0.44429 0.94283 0.97317 0.0
C700 C 0.45263 0.92741 1.00749 0.0
C701 C 0.44071 0.91321 0.03631 0.0
C702 C 0.42078 0.91736 0.03168 0.0
C703 C 0.47376 0.92976 1.01398 0.0
C704 C 0.48562 0.9023 0.99044 0.0
C705 C 0.48221 0.95999 0.04283 0.0
C706 C 0.47052 0.99211 0.06733 0.0
C707 C 0.47183 0.98565 0.10618 0.0
C708 C 0.46068 0.01553 0.12929 0.0
C709 C 0.44823 0.05218 0.11385 0.0
C710 C 0.44699 0.05921 0.07528 0.0
C711 C 0.45813 0.0295 0.05206 0.0
H712 H 0.43959 0.07522 0.13179 0.0
H713 H 0.54851 0.80489 0.89692 0.0
H714 H 0.41686 0.45005 0.44372 0.0
H715 H 0.45207 0.44516 0.44967 0.0
H716 H 0.44876 0.42937 0.56874 0.0
H717 H 0.41368 0.43395 0.563 0.0
H718 H 0.4743 0.50561 0.54636 0.0
H719 H 0.46009 0.32961 0.52258 0.0
H720 H 0.4455 0.25786 0.48763 0.0
H721 H 0.47739 0.29727 0.39185 0.0
H722 H 0.49197 0.36976 0.42608 0.0
H723 H 0.57611 0.39371 0.5597 0.0
H724 H 0.5412 0.38184 0.55532 0.0
H725 H 0.53545 0.51499 0.48621 0.0
H726 H 0.57019 0.52591 0.48876 0.0
H727 H 0.51464 0.37414 0.48806 0.0
H728 H 0.49748 0.58147 0.52484 0.0
H729 H 0.51212 0.65307 0.56002 0.0
H730 H 0.54273 0.54845 0.63216 0.0
H731 H 0.52805 0.4763 0.59779 0.0
C732 C 0.42367 0.44521 0.47109 0.0
C733 C 0.41255 0.44222 0.50288 0.0
C734 C 0.44373 0.44219 0.47444 0.0
C735 C 0.45296 0.43676 0.50965 0.0
C736 C 0.44188 0.43343 0.54134 0.0
C737 C 0.42187 0.43573 0.53797 0.0
C738 C 0.47421 0.43688 0.51373 0.0
C739 C 0.4831 0.47679 0.53368 0.0
C740 C 0.48566 0.39908 0.49738 0.0
C741 C 0.47698 0.3554 0.47679 0.0
C742 C 0.46387 0.32325 0.49396 0.0
C743 C 0.45562 0.28239 0.4743 0.0
C744 C 0.46048 0.27308 0.43751 0.0
C745 C 0.47363 0.30456 0.42034 0.0
C746 C 0.4819 0.34551 0.43987 0.0
C747 C 0.56748 0.42003 0.54305 0.0
C748 C 0.57606 0.46119 0.52501 0.0
C749 C 0.54754 0.4132 0.54067 0.0
C750 C 0.53581 0.44778 0.52068 0.0
C751 C 0.54428 0.48821 0.50208 0.0
C752 C 0.56417 0.49466 0.50398 0.0
C753 C 0.51463 0.44319 0.52027 0.0
C754 C 0.50578 0.40272 0.50086 0.0
C755 C 0.50317 0.48042 0.53717 0.0
C756 C 0.51181 0.52352 0.55849 0.0
C757 C 0.50727 0.57377 0.54831 0.0
C758 C 0.51559 0.61445 0.5681 0.0
C759 C 0.5284 0.60531 0.59823 0.0
C760 C 0.53287 0.55548 0.60873 0.0
C761 C 0.52458 0.51469 0.58906 0.0
H762 H 0.53483 0.63685 0.61349 0.0
H763 H 0.45408 0.24142 0.42234 0.0
H764 H 0.07686 0.00883 0.48716 0.0
H765 H 0.04195 1.00091 0.48132 0.0
H766 H 0.04247 0.90806 0.58031 0.0
H767 H 0.07769 0.91434 0.58526 0.0
H768 H 0.01693 0.87243 0.5319 0.0
H769 H 0.03059 0.03695 0.58194 0.0
H770 H 0.04575 0.12146 0.5856 0.0
H771 H 0.01892 0.16169 0.48013 0.0
H772 H 0.00381 0.07711 0.47558 0.0
H773 H 0.91841 0.92626 0.57234 0.0
H774 H 0.95337 0.9194 0.57395 0.0
H775 H 0.9545 0.98085 0.46293 0.0
H776 H 0.91944 0.98564 0.46013 0.0
H777 H 0.97879 0.03116 0.51854 0.0
H778 H 0.9644 0.86336 0.47155 0.0
H779 H 0.94867 0.77958 0.47232 0.0
H780 H 0.97618 0.74715 0.57864 0.0
H781 H 0.99186 0.83112 0.57876 0.0
C782 C 0.0695 0.98664 0.5076 0.0
C783 C 0.07985 0.96274 0.53695 0.0
C784 C 0.04956 0.98224 0.50434 0.0
C785 C 0.0395 0.95496 0.53092 0.0
C786 C 0.0499 0.92956 0.5596 0.0
C787 C 0.06996 0.93321 0.56248 0.0
C788 C 0.01815 0.95415 0.52908 0.0
C789 C 0.00861 0.9072 0.52947 0.0
C790 C 0.00722 0.99947 0.52554 0.0
C791 C 0.01621 0.0505 0.52826 0.0
C792 C 0.02803 0.06369 0.5594 0.0
C793 C 0.0366 0.11162 0.56165 0.0
C794 C 0.03334 0.14688 0.53307 0.0
C795 C 0.02146 0.13431 0.50223 0.0
C796 C 0.01287 0.0864 0.49981 0.0
C797 C 0.92597 0.93716 0.54781 0.0
C798 C 0.91598 0.95668 0.51611 0.0
C799 C 0.946 0.93347 0.54894 0.0
C800 C 0.95645 0.94963 0.51857 0.0
C801 C 0.94663 0.96838 0.4867 0.0
C802 C 0.92658 0.97143 0.4853 0.0
C803 C 0.9777 0.94959 0.52093 0.0
C804 C 0.98719 0.99647 0.52087 0.0
C805 C 0.98849 0.90435 0.52546 0.0
C806 C 0.97916 0.85375 0.52533 0.0
C807 C 0.96696 0.83856 0.49525 0.0
C808 C 0.95808 0.791 0.49549 0.0
C809 C 0.96138 0.75812 0.52555 0.0
C810 C 0.97362 0.77269 0.55539 0.0
C811 C 0.98252 0.82024 0.5553 0.0
H812 H 0.95449 0.7213 0.52569 0.0
H813 H 0.03999 0.18397 0.53487 0.0
H814 H 0.91696 0.40001 0.05268 0.0
H815 H 0.95188 0.3928 0.05819 0.0
H816 H 0.95739 0.54363 1.01311 0.0
H817 H 0.92255 0.54995 1.00537 0.0
H818 H 0.98308 0.4855 0.98498 0.0
H819 H 0.96249 0.51727 0.1088 0.0
H820 H 0.944 0.50252 0.16499 0.0
H821 H 0.96974 0.355 0.17803 0.0
H822 H 0.98819 0.36861 0.12158 0.0
H823 H 0.07739 0.5449 0.04855 0.0
H824 H 0.04229 0.54298 0.04468 0.0
H825 H 0.04322 0.38212 0.06697 0.0
H826 H 0.0785 0.38373 0.07099 0.0
H827 H 0.01474 0.44009 0.10652 0.0
H828 H 0.03663 0.41362 0.98225 0.0
H829 H 0.05571 0.43404 0.92782 0.0
H830 H 0.02768 0.57901 0.91782 0.0
H831 H 0.00864 0.55977 0.9726 0.0
C832 C 0.92557 0.43134 0.04327 0.0
C833 C 0.91685 0.4757 0.0287 0.0
C834 C 0.94557 0.42742 0.04696 0.0
C835 C 0.9573 0.46805 0.03675 0.0
C836 C 0.94867 0.51186 0.02141 0.0
C837 C 0.9287 0.5156 0.01734 0.0
C838 C 0.97855 0.46523 0.04211 0.0
C839 C 0.98995 0.47606 1.01169 0.0
C840 C 0.98761 0.45201 0.07678 0.0
C841 C 0.97655 0.44373 0.11073 0.0
C842 C 0.96409 0.48152 0.12348 0.0
C843 C 0.95364 0.47339 0.1554 0.0
C844 C 0.95565 0.42779 0.175 0.0
C845 C 0.96816 0.39027 0.16278 0.0
C846 C 0.97863 0.39818 0.13083 0.0
C847 C 0.07014 0.50926 0.05331 0.0
C848 C 0.08069 0.46443 0.06006 0.0
C849 C 0.0501 0.50818 0.05082 0.0
C850 C 0.04022 0.46234 0.05521 0.0
C851 C 0.05063 0.41783 0.06342 0.0
C852 C 0.07074 0.41876 0.06552 0.0
C853 C 0.01906 0.46084 0.04955 0.0
C854 C 0.00776 0.4492 0.07985 0.0
C855 C 0.01006 0.47403 1.01495 0.0
C856 C 0.02133 0.48542 0.98173 0.0
C857 C 0.03464 0.45002 0.96863 0.0
C858 C 0.04543 0.46135 0.93768 0.0
C859 C 0.04294 0.50784 0.91942 0.0
C860 C 0.02961 0.54303 0.93201 0.0
C861 C 0.0188 0.53192 0.96299 0.0
H862 H 0.05131 0.51655 0.89547 0.0
H863 H 0.94755 0.42158 0.19972 0.0
H864 H 0.22073 0.47364 0.96674 0.0
H865 H 0.24936 0.42544 0.9513 0.0
H866 H 0.22461 0.29049 0.99788 0.0
H867 H 0.19556 0.33823 1.01163 0.0
H868 H 0.27448 0.38614 0.99419 0.0
H869 H 0.24234 0.18457 0.96403 0.0
H870 H 0.2137 0.14693 0.93244 0.0
H871 H 0.20628 0.28088 0.86539 0.0
H872 H 0.23502 0.31906 0.8962 0.0
H873 H 0.33493 0.18409 0.04798 0.0
H874 H 0.31309 0.25449 0.03415 0.0
H875 H 0.30847 0.20726 0.9189 0.0
H876 H 0.3294 0.13484 0.93344 0.0
H877 H 0.27533 0.21187 0.9419 0.0
H878 H 0.32627 0.32928 0.94812 0.0
H879 H 0.3559 0.37091 0.97218 0.0
H880 H 0.32785 0.41296 0.07213 0.0
H881 H 0.29812 0.37098 0.04893 0.0
C882 C 0.22126 0.43338 0.97289 0.0
C883 C 0.20597 0.40948 0.99026 0.0
C884 C 0.23766 0.40594 0.96423 0.0
C885 C 0.23919 0.35423 0.97324 0.0
C886 C 0.22365 0.33004 0.9898 0.0
C887 C 0.20706 0.35731 0.99777 0.0
C888 C 0.25752 0.32656 0.96807 0.0
C889 C 0.27471 0.34821 0.98239 0.0
C890 C 0.25801 0.27778 0.95158 0.0
C891 C 0.24079 0.25482 0.93264 0.0
C892 C 0.23467 0.2059 0.94241 0.0
C893 C 0.21839 0.18449 0.92467 0.0
C894 C 0.20815 0.21155 0.89699 0.0
C895 C 0.21419 0.26003 0.88692 0.0
C896 C 0.23046 0.2816 0.90455 0.0
C897 C 0.3299 0.19005 0.01941 0.0
C898 C 0.33372 0.1541 0.99179 0.0
C899 C 0.31738 0.23042 1.01143 0.0
C900 C 0.30897 0.23624 0.97543 0.0
C901 C 0.31457 0.20335 0.94695 0.0
C902 C 0.32668 0.16229 0.95515 0.0
C903 C 0.29224 0.27073 0.96916 0.0
C904 C 0.27527 0.25026 0.95289 0.0
C905 C 0.29213 0.32125 0.98263 0.0
C906 C 0.30997 0.34673 0.99681 0.0
C907 C 0.32645 0.34711 0.97534 0.0
C908 C 0.34326 0.37083 0.98881 0.0
C909 C 0.34376 0.39452 0.02367 0.0
C910 C 0.32744 0.39462 0.04511 0.0
C911 C 0.31058 0.37095 0.03178 0.0
H912 H 0.3568 0.41285 0.03406 0.0
H913 H 0.19555 0.19492 0.88331 0.0
H914 H 0.83308 0.65772 0.93009 0.0
H915 H 0.81433 0.73583 0.92017 0.0
H916 H 0.79766 0.73118 0.0347 0.0
H917 H 0.81694 0.65585 0.04514 0.0
H918 H 0.77769 0.7431 0.92157 0.0
H919 H 0.78444 0.83634 0.06928 0.0
H920 H 0.80979 0.85334 0.11742 0.0
H921 H 0.85249 0.85008 0.0343 0.0
H922 H 0.82739 0.83364 0.98553 0.0
H923 H 0.6921 0.84827 0.98572 0.0
H924 H 0.72179 0.80322 0.97188 0.0
H925 H 0.75209 0.94592 0.96896 0.0
H926 H 0.72266 0.99086 0.98327 0.0
H927 H 0.77073 0.8833 1.01251 0.0
H928 H 0.74522 0.8759 0.88947 0.0
H929 H 0.72147 0.86193 0.83787 0.0
H930 H 0.71902 0.7034 0.86498 0.0
H931 H 0.74256 0.71649 0.91711 0.0
C932 C 0.82598 0.67456 0.95343 0.0
C933 C 0.82635 0.65036 0.98831 0.0
C934 C 0.81515 0.71894 0.94766 0.0
C935 C 0.80464 0.7397 0.97671 0.0
C936 C 0.80595 0.71694 1.012 0.0
C937 C 0.81688 0.67327 0.01785 0.0
C938 C 0.79041 0.78097 0.96973 0.0
C939 C 0.77633 0.77425 0.9411 0.0
C940 C 0.78886 0.82247 0.99457 0.0
C941 C 0.804 0.83372 0.02369 0.0
C942 C 0.7992 0.83974 0.06117 0.0
C943 C 0.81354 0.8491 0.08861 0.0
C944 C 0.83273 0.85276 0.07893 0.0
C945 C 0.83762 0.84716 0.04177 0.0
C946 C 0.82335 0.83774 1.01422 0.0
C947 C 0.70503 0.87 0.98157 0.0
C948 C 0.70511 0.92298 0.98594 0.0
C949 C 0.72196 0.84431 0.97343 0.0
C950 C 0.73915 0.87128 0.96919 0.0
C951 C 0.73902 0.92436 0.97216 0.0
C952 C 0.72217 0.94995 0.98042 0.0
C953 C 0.75757 0.84374 0.96558 0.0
C954 C 0.77237 0.85305 0.99232 0.0
C955 C 0.75997 0.80545 0.93848 0.0
C956 C 0.74561 0.79728 0.90739 0.0
C957 C 0.73951 0.83812 0.88465 0.0
C958 C 0.7261 0.83034 0.85525 0.0
C959 C 0.71873 0.78182 0.84817 0.0
C960 C 0.72475 0.74097 0.87049 0.0
C961 C 0.73815 0.74854 0.89994 0.0
H962 H 0.70837 0.77586 0.82534 0.0
H963 H 0.8438 0.85994 0.10022 0.0
H964 H 0.18875 0.61755 0.08597 0.0
H965 H 0.2059 0.69635 0.0952 0.0
H966 H 0.16243 0.77535 0.0287 0.0
H967 H 0.14553 0.69483 0.01748 0.0
H968 H 0.19426 0.7986 1.00434 0.0
H969 H 0.17283 0.80347 0.12602 0.0
H970 H 0.16417 0.7733 0.18809 0.0
H971 H 0.2231 0.7349 0.21379 0.0
H972 H 0.23212 0.76407 0.15169 0.0
H973 H 0.2636 0.99611 0.02379 0.0
H974 H 0.2336 0.95326 0.03764 0.0
H975 H 0.26548 0.81987 0.07233 0.0
H976 H 0.29562 0.86232 0.05818 0.0
H977 H 0.23267 0.84694 0.11795 0.0
H978 H 0.25068 0.82758 0.98817 0.0
H979 H 0.25794 0.86011 0.92598 0.0
H980 H 0.20236 0.9307 0.91686 0.0
H981 H 0.19496 0.89969 0.97952 0.0
C982 C 0.18254 0.65171 0.07382 0.0
C983 C 0.16587 0.64969 0.05054 0.0
C984 C 0.19229 0.69723 0.07961 0.0
C985 C 0.1854 0.74233 0.06313 0.0
C986 C 0.16803 0.74113 0.04183 0.0
C987 C 0.15834 0.69512 0.03553 0.0
C988 C 0.19798 0.78795 0.06371 0.0
C989 C 0.20221 0.81013 0.02945 0.0
C990 C 0.20841 0.8035 0.09644 0.0
C991 C 0.20314 0.78597 0.13405 0.0
C992 C 0.18394 0.78834 0.1448 0.0
C993 C 0.17897 0.77143 0.18003 0.0
C994 C 0.19307 0.75219 0.20486 0.0
C995 C 0.2122 0.74989 0.19454 0.0
C996 C 0.21725 0.76674 0.15934 0.0
C997 C 0.26426 0.95788 0.03484 0.0
C998 C 0.28192 0.93222 0.03949 0.0
C999 C 0.24712 0.93364 0.04287 0.0
C1000 C 0.24739 0.88352 0.05589 0.0
C1001 C 0.26505 0.85874 0.06247 0.0
C1002 C 0.28221 0.8828 0.05408 0.0
C1003 C 0.22935 0.85466 0.05851 0.0
C1004 C 0.2242 0.83612 0.09326 0.0
C1005 C 0.21783 0.84312 0.02638 0.0
C1006 C 0.22242 0.86223 0.98889 0.0
C1007 C 0.24014 0.85084 0.97324 0.0
C1008 C 0.24426 0.86888 0.93784 0.0
C1009 C 0.23067 0.89773 0.91758 0.0
C1010 C 0.21291 0.90858 0.93267 0.0
C1011 C 0.20877 0.89089 0.96816 0.0
H1012 H 0.23384 0.91143 0.89009 0.0
H1013 H 0.18919 0.7391 0.23211 0.0
H1014 H 0.65194 0.18385 0.97682 0.0
H1015 H 0.67515 0.25323 0.98447 0.0
H1016 H 0.68795 0.20566 0.09758 0.0
H1017 H 0.66528 0.13552 0.08966 0.0
H1018 H 0.68703 0.33411 0.02973 0.0
H1019 H 0.73422 0.18148 0.10541 0.0
H1020 H 0.7366 0.08786 0.10747 0.0
H1021 H 0.71165 0.07861 0.99645 0.0
H1022 H 0.70917 0.17169 0.99381 0.0
H1023 H 0.77238 0.46087 0.08276 0.0
H1024 H 0.7434 0.40869 0.08423 0.0
H1025 H 0.76945 0.29879 1.01215 0.0
H1026 H 0.79892 0.34945 1.01294 0.0
H1027 H 0.74998 0.25016 0.0562 0.0
H1028 H 0.73572 0.39423 0.9804 0.0
H1029 H 0.73341 0.48503 0.96409 0.0
H1030 H 0.69375 0.50897 0.05115 0.0
H1031 H 0.69603 0.4184 0.06832 0.0
C1032 C 0.65906 0.18969 1.00382 0.0
C1033 C 0.65711 0.15407 0.0325 0.0
C1034 C 0.67234 0.22927 1.00814 0.0
C1035 C 0.68357 0.23366 0.04129 0.0
C1036 C 0.67962 0.20232 0.0716 0.0
C1037 C 0.66662 0.16245 0.06712 0.0
C1038 C 0.70153 0.26365 0.04207 0.0
C1039 C 0.70081 0.31608 0.03578 0.0
C1040 C 0.71955 0.23953 0.04816 0.0
C1041 C 0.72136 0.18345 0.04959 0.0
C1042 C 0.7293 0.15934 0.08146 0.0
C1043 C 0.73063 0.10634 0.08275 0.0
C1044 C 0.72421 0.07718 0.05219 0.0
C1045 C 0.71651 0.10098 0.02024 0.0
C1046 C 0.71511 0.15385 0.01886 0.0
C1047 C 0.77197 0.42502 0.06788 0.0
C1048 C 0.78777 0.40886 0.04783 0.0
C1049 C 0.75536 0.39554 0.06833 0.0
C1050 C 0.75397 0.35045 0.04743 0.0
C1051 C 0.7701 0.33345 0.02845 0.0
C1052 C 0.78695 0.36223 0.02896 0.0
C1053 C 0.73566 0.32149 0.0448 0.0
C1054 C 0.73628 0.26882 0.05056 0.0
C1055 C 0.7177 0.34522 0.03623 0.0
C1056 C 0.71619 0.39964 0.02586 0.0
C1057 C 0.7266 0.41893 0.99622 0.0
C1058 C 0.72528 0.47035 0.98681 0.0
C1059 C 0.71347 0.50278 1.00663 0.0
C1060 C 0.70291 0.48382 0.03585 0.0
C1061 C 0.70419 0.43244 0.04542 0.0
H1062 H 0.71247 0.54257 0.99931 0.0
H1063 H 0.72523 0.03617 0.05324 0.0
H1064 H 0.19348 0.84539 0.5024 0.0
H1065 H 0.22268 0.79478 0.49505 0.0
H1066 H 0.25571 0.9321 0.48438 0.0
H1067 H 0.22669 0.98272 0.49129 0.0
H1068 H 0.26819 0.85709 0.43844 0.0
H1069 H 0.25314 0.87898 0.56689 0.0
H1070 H 0.23221 0.87499 0.62067 0.0
H1071 H 0.22818 0.71302 0.60878 0.0
H1072 H 0.24876 0.71615 0.55439 0.0
H1073 H 0.34273 0.67972 0.5503 0.0
H1074 H 0.32255 0.75577 0.54444 0.0
H1075 H 0.2986 0.70002 0.4396 0.0
H1076 H 0.31879 0.62468 0.44513 0.0
H1077 H 0.28477 0.74613 0.54648 0.0
H1078 H 0.27893 0.79402 0.38805 0.0
H1079 H 0.30019 0.80079 0.33493 0.0
H1080 H 0.34839 0.82952 0.41002 0.0
H1081 H 0.32739 0.82366 0.46357 0.0
C1082 C 0.20688 0.86467 0.49758 0.0
C1083 C 0.20788 0.91791 0.49783 0.0
C1084 C 0.22355 0.8358 0.49358 0.0
C1085 C 0.24137 0.85986 0.48984 0.0
C1086 C 0.24212 0.91288 0.4874 0.0
C1087 C 0.22552 0.94169 0.4915 0.0
C1088 C 0.25944 0.83022 0.49177 0.0
C1089 C 0.27186 0.83274 0.46198 0.0
C1090 C 0.26446 0.79992 0.52314 0.0
C1091 C 0.25237 0.79786 0.55633 0.0
C1092 C 0.24769 0.84254 0.57558 0.0
C1093 C 0.23588 0.84043 0.60618 0.0
C1094 C 0.22885 0.79377 0.6181 0.0
C1095 C 0.23363 0.74913 0.59948 0.0
C1096 C 0.24536 0.75105 0.56876 0.0
C1097 C 0.33379 0.68484 0.52525 0.0
C1098 C 0.33214 0.64616 0.49835 0.0
C1099 C 0.32216 0.72808 0.52207 0.0
C1100 C 0.30898 0.73342 0.4917 0.0
C1101 C 0.30877 0.69709 0.46308 0.0
C1102 C 0.32029 0.65391 0.46632 0.0
C1103 C 0.29338 0.77168 0.49258 0.0
C1104 C 0.2813 0.77081 0.52301 0.0
C1105 C 0.28884 0.80388 0.46199 0.0
C1106 C 0.30157 0.80807 0.42988 0.0
C1107 C 0.29404 0.80208 0.39324 0.0
C1108 C 0.30606 0.80569 0.36305 0.0
C1109 C 0.32564 0.81547 0.3691 0.0
C1110 C 0.33323 0.82178 0.40537 0.0
C1111 C 0.32128 0.81822 0.43567 0.0
H1112 H 0.33492 0.81822 0.34569 0.0
H1113 H 0.21972 0.79214 0.64179 0.0
H1114 H 0.72189 0.48306 0.47115 0.0
H1115 H 0.75112 0.43378 0.46214 0.0
H1116 H 0.72249 0.29893 0.49976 0.0
H1117 H 0.69299 0.34773 0.50703 0.0
H1118 H 0.7733 0.39111 0.50943 0.0
H1119 H 0.74108 0.19321 0.46786 0.0
H1120 H 0.71405 0.15889 0.42932 0.0
H1121 H 0.71208 0.29564 0.36434 0.0
H1122 H 0.73927 0.33052 0.40213 0.0
H1123 H 0.83209 0.18822 0.56899 0.0
H1124 H 0.8101 0.25752 0.55329 0.0
H1125 H 0.80891 0.21079 0.43776 0.0
H1126 H 0.82932 0.13815 0.45457 0.0
H1127 H 0.77559 0.21886 0.4539 0.0
H1128 H 0.82722 0.33374 0.47407 0.0
H1129 H 0.85571 0.3713 0.50626 0.0
H1130 H 0.82199 0.40894 0.60011 0.0
H1131 H 0.79336 0.37096 0.56876 0.0
C1132 C 0.72175 0.44264 0.47671 0.0
C1133 C 0.7052 0.41904 0.48961 0.0
C1134 C 0.73849 0.41458 0.47174 0.0
C1135 C 0.73906 0.36252 0.48004 0.0
C1136 C 0.72235 0.33875 0.49227 0.0
C1137 C 0.70548 0.36665 0.49653 0.0
C1138 C 0.7574 0.33378 0.47844 0.0
C1139 C 0.7739 0.35365 0.49691 0.0
C1140 C 0.75841 0.28559 0.46117 0.0
C1141 C 0.74215 0.26461 0.43803 0.0
C1142 C 0.73496 0.21585 0.44522 0.0
C1143 C 0.71959 0.19633 0.42353 0.0
C1144 C 0.71133 0.22511 0.39446 0.0
C1145 C 0.71845 0.27344 0.38695 0.0
C1146 C 0.73383 0.29314 0.40852 0.0
C1147 C 0.82755 0.19375 0.54013 0.0
C1148 C 0.83219 0.15787 0.51303 0.0
C1149 C 0.81505 0.23372 0.53098 0.0
C1150 C 0.80772 0.23983 0.49417 0.0
C1151 C 0.8141 0.20675 0.46642 0.0
C1152 C 0.82594 0.1656 0.47589 0.0
C1153 C 0.7915 0.27549 0.48579 0.0
C1154 C 0.77529 0.25682 0.46563 0.0
C1155 C 0.79102 0.32552 0.50031 0.0
C1156 C 0.80814 0.3493 0.51906 0.0
C1157 C 0.82589 0.34985 0.50163 0.0
C1158 C 0.84207 0.37121 0.51975 0.0
C1159 C 0.84067 0.39242 0.55523 0.0
C1160 C 0.82306 0.3925 0.57262 0.0
C1161 C 0.80684 0.37116 0.55465 0.0
H1162 H 0.85322 0.40882 0.56925 0.0
H1163 H 0.69942 0.20994 0.37772 0.0
H1164 H 0.14752 0.17495 0.57149 0.0
H1165 H 0.16446 0.25646 0.57739 0.0
H1166 H 0.21367 0.17937 0.62764 0.0
H1167 H 0.19608 0.09934 0.62486 0.0
H1168 H 0.21332 0.27234 0.65231 0.0
H1169 H 0.2126 0.2014 0.52047 0.0
H1170 H 0.19406 0.1666 0.46653 0.0
H1171 H 0.15457 0.29174 0.47072 0.0
H1172 H 0.17354 0.32852 0.52371 0.0
H1173 H 0.2983 0.35228 0.56849 0.0
H1174 H 0.2697 0.30841 0.58967 0.0
H1175 H 0.23399 0.43165 0.54862 0.0
H1176 H 0.26248 0.47595 0.52774 0.0
H1177 H 0.22193 0.33583 0.52399 0.0
H1178 H 0.23827 0.41939 0.63822 0.0
H1179 H 0.25954 0.44795 0.69051 0.0
H1180 H 0.27052 0.29296 0.72171 0.0
H1181 H 0.24954 0.26339 0.66926 0.0
C1182 C 0.16164 0.17619 0.58519 0.0
C1183 C 0.17061 0.13144 0.59775 0.0
C1184 C 0.17143 0.22243 0.58802 0.0
C1185 C 0.19065 0.22376 0.60155 0.0
C1186 C 0.19892 0.17946 0.6169 0.0
C1187 C 0.1889 0.13368 0.61523 0.0
C1188 C 0.20315 0.26826 0.59498 0.0
C1189 C 0.21511 0.28662 0.62435 0.0
C1190 C 0.20528 0.28778 0.55865 0.0
C1191 C 0.19432 0.2673 0.52602 0.0
C1192 C 0.20002 0.22154 0.50966 0.0
C1193 C 0.18946 0.20155 0.47923 0.0
C1194 C 0.173 0.22663 0.46537 0.0
C1195 C 0.16726 0.27222 0.48159 0.0
C1196 C 0.17806 0.29305 0.51145 0.0
C1197 C 0.28436 0.3701 0.56419 0.0
C1198 C 0.28259 0.41738 0.54638 0.0
C1199 C 0.26808 0.34527 0.57655 0.0
C1200 C 0.2498 0.36717 0.57104 0.0
C1201 C 0.24801 0.41441 0.55335 0.0
C1202 C 0.26429 0.43953 0.54142 0.0
C1203 C 0.23249 0.33866 0.58111 0.0
C1204 C 0.21972 0.32317 0.55225 0.0
C1205 C 0.22981 0.32163 0.61787 0.0
C1206 C 0.24239 0.33916 0.64963 0.0
C1207 C 0.24533 0.39136 0.65605 0.0
C1208 C 0.25732 0.40774 0.68576 0.0
C1209 C 0.26639 0.37229 0.70939 0.0
C1210 C 0.26347 0.32038 0.70339 0.0
C1211 C 0.2515 0.30379 0.6737 0.0
H1212 H 0.27567 0.38505 0.73237 0.0
H1213 H 0.16477 0.21103 0.44192 0.0
H1214 H 0.68279 0.61048 0.62866 0.0
H1215 H 0.70369 0.68437 0.63464 0.0
H1216 H 0.67431 0.75256 0.53903 0.0
H1217 H 0.65455 0.67623 0.53129 0.0
H1218 H 0.70856 0.75348 0.52655 0.0
H1219 H 0.67593 0.80366 0.63482 0.0
H1220 H 0.6616 0.79577 0.69627 0.0
H1221 H 0.71681 0.75833 0.74605 0.0
H1222 H 0.73145 0.76516 0.6848 0.0
H1223 H 0.7656 0.9763 0.53998 0.0
H1224 H 0.73776 0.92417 0.55383 0.0
H1225 H 0.77528 0.80786 0.59961 0.0
H1226 H 0.80337 0.85944 0.58513 0.0
H1227 H 0.73572 0.84004 0.63945 0.0
H1228 H 0.76515 0.77532 0.52506 0.0
H1229 H 0.77894 0.79213 0.46398 0.0
H1230 H 0.72694 0.86785 0.42742 0.0
H1231 H 0.71293 0.85169 0.4884 0.0
C1232 C 0.68037 0.64215 0.60982 0.0
C1233 C 0.6671 0.63812 0.57963 0.0
C1234 C 0.6923 0.68461 0.6133 0.0
C1235 C 0.69063 0.72451 0.58738 0.0
C1236 C 0.67604 0.72223 0.55923 0.0
C1237 C 0.66462 0.67895 0.55496 0.0
C1238 C 0.70584 0.76404 0.58592 0.0
C1239 C 0.71407 0.77298 0.55135 0.0
C1240 C 0.71356 0.78911 0.61817 0.0
C1241 C 0.70477 0.78457 0.65508 0.0
C1242 C 0.685 0.7933 0.65879 0.0
C1243 C 0.67682 0.78909 0.69361 0.0
C1244 C 0.68828 0.77646 0.72502 0.0
C1245 C 0.70795 0.76807 0.72168 0.0
C1246 C 0.7162 0.77216 0.68692 0.0
C1247 C 0.76795 0.93995 0.55348 0.0
C1248 C 0.78664 0.92163 0.5612 0.0
C1249 C 0.75204 0.91045 0.56155 0.0
C1250 C 0.75457 0.86257 0.57792 0.0
C1251 C 0.77314 0.84508 0.58731 0.0
C1252 C 0.78912 0.87428 0.57871 0.0
C1253 C 0.73798 0.82832 0.58056 0.0
C1254 C 0.72974 0.82053 0.61505 0.0
C1255 C 0.72995 0.8048 0.54835 0.0
C1256 C 0.73807 0.81266 0.51127 0.0
C1257 C 0.7567 0.79567 0.50399 0.0
C1258 C 0.76455 0.80502 0.4694 0.0
C1259 C 0.75384 0.83111 0.44186 0.0
C1260 C 0.73522 0.84763 0.44877 0.0
C1261 C 0.7273 0.83828 0.48329 0.0
H1262 H 0.75996 0.83845 0.41513 0.0
H1263 H 0.68192 0.77327 0.75196 0.0
loop_
_geom_bond_atom_site_label_1
_geom_bond_atom_site_label_2
_geom_bond_distance
_geom_bond_site_symmetry_2
_ccdc_geom_bond_type
Co0 N4 2.148 1_554 S
Co0 N10 2.128 1_565 S
Co0 N20 2.194 . S
Co0 O25 2.351 . S
Co0 O26 2.155 . S
Co0 O27 2.096 1_564 S
C1 N4 1.301 . S
C1 N5 1.328 . S
C1 H6 0.930 . S
C2 C3 1.333 1_545 S
C2 N4 1.317 1_545 S
C2 H7 0.930 . S
C3 C2 1.333 1_565 S
C3 N5 1.350 . S
C3 H29 0.931 . S
N4 Co0 2.148 1_556 S
N4 C1 1.301 . S
N4 C2 1.317 1_565 S
N5 C1 1.328 . S
N5 C3 1.350 . S
H6 C1 0.930 . S
H7 C2 0.930 . S
C8 O9 1.224 . S
C8 O27 1.247 . S
O9 C8 1.224 . S
N10 Co0 2.128 1_545 S
N10 C11 1.355 . S
N10 C13 1.311 . S
C11 N10 1.355 . S
C11 C12 1.363 . S
C11 H23 0.929 1_545 S
C12 C11 1.363 . S
C12 N14 1.375 . S
C12 H30 0.931 . S
C13 N10 1.311 . S
C13 N14 1.347 . S
C13 H24 0.929 . S
N14 C12 1.375 . S
N14 C13 1.347 . S
C15 C18 1.365 . S
C15 N20 1.328 . S
C15 H21 0.929 . S
C16 C17 1.362 1_556 S
C16 C19 1.378 . S
C16 H31 0.929 . S
C17 C16 1.362 1_554 S
C17 C18 1.366 1_545 S
C18 C15 1.365 . S
C18 C17 1.366 1_565 S
C18 H32 0.930 . S
C19 C16 1.378 . S
C19 N20 1.315 1_546 S
C19 H22 0.930 . S
N20 Co0 2.194 . S
N20 C15 1.328 . S
N20 C19 1.315 1_564 S
H21 C15 0.929 . S
H22 C19 0.930 . S
H23 C11 0.929 1_565 S
H24 C13 0.929 . S
O25 Co0 2.351 . S
O25 C28 1.244 . S
O26 Co0 2.155 . S
O26 C28 1.240 . S
O27 Co0 2.096 1_546 S
O27 C8 1.247 . S
C28 O25 1.244 . S
C28 O26 1.240 . S
H29 C3 0.931 . S
H30 C12 0.931 . S
H31 C16 0.929 . S
H32 C18 0.930 . S
Co33 N37 2.148 . S
Co33 N43 2.128 1_564 S
Co33 N53 2.194 . S
Co33 O58 2.351 1_554 S
Co33 O59 2.155 1_554 S
Co33 O60 2.096 1_565 S
C34 N37 1.301 . S
C34 N38 1.328 . S
C34 H39 0.930 . S
C35 C36 1.333 1_545 S
C35 N37 1.317 1_545 S
C35 H40 0.930 . S
C36 C35 1.333 1_565 S
C36 N38 1.350 . S
C36 H62 0.931 . S
N37 Co33 2.148 . S
N37 C34 1.301 . S
N37 C35 1.317 1_565 S
N38 C34 1.328 . S
N38 C36 1.350 . S
H39 C34 0.930 . S
H40 C35 0.930 . S
C41 O42 1.224 . S
C41 O60 1.247 . S
O42 C41 1.224 . S
N43 Co33 2.128 1_546 S
N43 C44 1.355 . S
N43 C46 1.311 . S
C44 N43 1.355 . S
C44 C45 1.363 . S
C44 H56 0.929 1_545 S
C45 C44 1.363 . S
C45 N47 1.375 . S
C45 H63 0.931 . S
C46 N43 1.311 . S
C46 N47 1.347 . S
C46 H57 0.929 . S
N47 C45 1.375 . S
N47 C46 1.347 . S
C48 C51 1.365 . S
C48 N53 1.328 . S
C48 H54 0.929 . S
C49 C50 1.362 . S
C49 C52 1.378 . S
C49 H64 0.929 . S
C50 C49 1.362 . S
C50 C51 1.366 1_545 S
C51 C48 1.365 . S
C51 C50 1.366 1_565 S
C51 H65 0.930 . S
C52 C49 1.378 . S
C52 N53 1.315 1_545 S
C52 H55 0.930 . S
N53 Co33 2.194 . S
N53 C48 1.328 . S
N53 C52 1.315 1_565 S
H54 C48 0.929 . S
H55 C52 0.930 . S
H56 C44 0.929 1_565 S
H57 C46 0.929 . S
O58 Co33 2.351 1_556 S
O58 C61 1.244 . S
O59 Co33 2.155 1_556 S
O59 C61 1.240 . S
O60 Co33 2.096 1_545 S
O60 C41 1.247 . S
C61 O58 1.244 . S
C61 O59 1.240 . S
H62 C36 0.931 . S
H63 C45 0.931 . S
H64 C49 0.929 . S
H65 C51 0.930 . S
Co66 N70 2.148 . S
Co66 N76 2.128 . S
Co66 N86 2.194 . S
Co66 O91 2.351 . S
Co66 O92 2.155 . S
Co66 O93 2.096 . S
C67 N70 1.301 . S
C67 N71 1.328 . S
C67 H72 0.930 . S
C68 C69 1.333 . S
C68 N70 1.317 . S
C68 H73 0.930 . S
C69 C68 1.333 . S
C69 N71 1.350 . S
C69 H95 0.931 . S
N70 Co66 2.148 . S
N70 C67 1.301 . S
N70 C68 1.317 . S
N71 C67 1.328 . S
N71 C69 1.350 . S
H72 C67 0.930 . S
H73 C68 0.930 . S
C74 O75 1.224 . S
C74 O93 1.247 . S
O75 C74 1.224 . S
N76 Co66 2.128 . S
N76 C77 1.355 . S
N76 C79 1.311 . S
C77 N76 1.355 . S
C77 C78 1.363 . S
C77 H89 0.929 . S
C78 C77 1.363 . S
C78 N80 1.375 . S
C78 H96 0.931 . S
C79 N76 1.311 . S
C79 N80 1.347 . S
C79 H90 0.929 . S
N80 C78 1.375 . S
N80 C79 1.347 . S
C81 C84 1.365 . S
C81 N86 1.328 . S
C81 H87 0.929 . S
C82 C83 1.362 . S
C82 C85 1.378 . S
C82 H97 0.929 . S
C83 C82 1.362 . S
C83 C84 1.366 . S
C84 C81 1.365 . S
C84 C83 1.366 . S
C84 H98 0.930 . S
C85 C82 1.378 . S
C85 N86 1.315 . S
C85 H88 0.930 . S
N86 Co66 2.194 . S
N86 C81 1.328 . S
N86 C85 1.315 . S
H87 C81 0.929 . S
H88 C85 0.930 . S
H89 C77 0.929 . S
H90 C79 0.929 . S
O91 Co66 2.351 . S
O91 C94 1.244 . S
O92 Co66 2.155 . S
O92 C94 1.240 . S
O93 Co66 2.096 . S
O93 C74 1.247 . S
C94 O91 1.244 . S
C94 O92 1.240 . S
H95 C69 0.931 . S
H96 C78 0.931 . S
H97 C82 0.929 . S
H98 C84 0.930 . S
Co99 N103 2.148 . S
Co99 N109 2.128 . S
Co99 N119 2.194 . S
Co99 O124 2.351 . S
Co99 O125 2.155 . S
Co99 O126 2.096 . S
C100 N103 1.301 . S
C100 N104 1.328 . S
C100 H105 0.930 . S
C101 C102 1.333 . S
C101 N103 1.317 . S
C101 H106 0.930 . S
C102 C101 1.333 . S
C102 N104 1.350 . S
C102 H128 0.931 . S
N103 Co99 2.148 . S
N103 C100 1.301 . S
N103 C101 1.317 . S
N104 C100 1.328 . S
N104 C102 1.350 . S
H105 C100 0.930 . S
H106 C101 0.930 . S
C107 O108 1.224 . S
C107 O126 1.247 . S
O108 C107 1.224 . S
N109 Co99 2.128 . S
N109 C110 1.355 . S
N109 C112 1.311 . S
C110 N109 1.355 . S
C110 C111 1.363 . S
C110 H122 0.929 . S
C111 C110 1.363 . S
C111 N113 1.375 . S
C111 H129 0.931 . S
C112 N109 1.311 . S
C112 N113 1.347 . S
C112 H123 0.929 . S
N113 C111 1.375 . S
N113 C112 1.347 . S
C114 C117 1.365 . S
C114 N119 1.328 . S
C114 H120 0.929 . S
C115 C116 1.362 . S
C115 C118 1.378 . S
C115 H130 0.929 . S
C116 C115 1.362 . S
C116 C117 1.366 . S
C117 C114 1.365 . S
C117 C116 1.366 . S
C117 H131 0.930 . S
C118 C115 1.378 . S
C118 N119 1.315 . S
C118 H121 0.930 . S
N119 Co99 2.194 . S
N119 C114 1.328 . S
N119 C118 1.315 . S
H120 C114 0.929 . S
H121 C118 0.930 . S
H122 C110 0.929 . S
H123 C112 0.929 . S
O124 Co99 2.351 . S
O124 C127 1.244 . S
O125 Co99 2.155 . S
O125 C127 1.240 . S
O126 Co99 2.096 . S
O126 C107 1.247 . S
C127 O124 1.244 . S
C127 O125 1.240 . S
H128 C102 0.931 . S
H129 C111 0.931 . S
H130 C115 0.929 . S
H131 C117 0.930 . S
Co132 N136 2.148 . S
Co132 N142 2.128 1_565 S
Co132 N152 2.194 . S
Co132 O157 2.351 . S
Co132 O158 2.155 . S
Co132 O159 2.096 1_565 S
C133 N136 1.301 . S
C133 N137 1.328 . S
C133 H138 0.930 . S
C134 C135 1.333 1_545 S
C134 N136 1.317 1_545 S
C134 H139 0.930 . S
C135 C134 1.333 1_565 S
C135 N137 1.350 . S
C135 H161 0.931 . S
N136 Co132 2.148 . S
N136 C133 1.301 . S
N136 C134 1.317 1_565 S
N137 C133 1.328 . S
N137 C135 1.350 . S
H138 C133 0.930 . S
H139 C134 0.930 . S
C140 O141 1.224 . S
C140 O159 1.247 . S
O141 C140 1.224 . S
N142 Co132 2.128 1_545 S
N142 C143 1.355 . S
N142 C145 1.311 . S
C143 N142 1.355 . S
C143 C144 1.363 . S
C143 H155 0.929 1_545 S
C144 C143 1.363 . S
C144 N146 1.375 . S
C144 H162 0.931 . S
C145 N142 1.311 . S
C145 N146 1.347 . S
C145 H156 0.929 . S
N146 C144 1.375 . S
N146 C145 1.347 . S
C147 C150 1.365 . S
C147 N152 1.328 . S
C147 H153 0.929 . S
C148 C149 1.362 . S
C148 C151 1.378 . S
C148 H163 0.929 . S
C149 C148 1.362 . S
C149 C150 1.366 1_545 S
C150 C147 1.365 . S
C150 C149 1.366 1_565 S
C150 H164 0.930 . S
C151 C148 1.378 . S
C151 N152 1.315 1_545 S
C151 H154 0.930 . S
N152 Co132 2.194 . S
N152 C147 1.328 . S
N152 C151 1.315 1_565 S
H153 C147 0.929 . S
H154 C151 0.930 . S
H155 C143 0.929 1_565 S
H156 C145 0.929 . S
O157 Co132 2.351 . S
O157 C160 1.244 . S
O158 Co132 2.155 . S
O158 C160 1.240 . S
O159 Co132 2.096 1_545 S
O159 C140 1.247 . S
C160 O157 1.244 . S
C160 O158 1.240 . S
H161 C135 0.931 . S
H162 C144 0.931 . S
H163 C148 0.929 . S
H164 C150 0.930 . S
Co165 N169 2.148 . S
Co165 N175 2.128 1_565 S
Co165 N185 2.194 . S
Co165 O190 2.351 . S
Co165 O191 2.155 . S
Co165 O192 2.096 1_565 S
C166 N169 1.301 . S
C166 N170 1.328 . S
C166 H171 0.930 . S
C167 C168 1.333 1_545 S
C167 N169 1.317 1_545 S
C167 H172 0.930 . S
C168 C167 1.333 1_565 S
C168 N170 1.350 . S
C168 H194 0.931 . S
N169 Co165 2.148 . S
N169 C166 1.301 . S
N169 C167 1.317 1_565 S
N170 C166 1.328 . S
N170 C168 1.350 . S
H171 C166 0.930 . S
H172 C167 0.930 . S
C173 O174 1.224 . S
C173 O192 1.247 . S
O174 C173 1.224 . S
N175 Co165 2.128 1_545 S
N175 C176 1.355 . S
N175 C178 1.311 . S
C176 N175 1.355 . S
C176 C177 1.363 . S
C176 H188 0.929 1_545 S
C177 C176 1.363 . S
C177 N179 1.375 . S
C177 H195 0.931 . S
C178 N175 1.311 . S
C178 N179 1.347 . S
C178 H189 0.929 . S
N179 C177 1.375 . S
N179 C178 1.347 . S
C180 C183 1.365 . S
C180 N185 1.328 . S
C180 H186 0.929 . S
C181 C182 1.362 . S
C181 C184 1.378 . S
C181 H196 0.929 . S
C182 C181 1.362 . S
C182 C183 1.366 1_545 S
C183 C180 1.365 . S
C183 C182 1.366 1_565 S
C183 H197 0.930 . S
C184 C181 1.378 . S
C184 N185 1.315 1_545 S
C184 H187 0.930 . S
N185 Co165 2.194 . S
N185 C180 1.328 . S
N185 C184 1.315 1_565 S
H186 C180 0.929 . S
H187 C184 0.930 . S
H188 C176 0.929 1_565 S
H189 C178 0.929 . S
O190 Co165 2.351 . S
O190 C193 1.244 . S
O191 Co165 2.155 . S
O191 C193 1.240 . S
O192 Co165 2.096 1_545 S
O192 C173 1.247 . S
C193 O190 1.244 . S
C193 O191 1.240 . S
H194 C168 0.931 . S
H195 C177 0.931 . S
H196 C181 0.929 . S
H197 C183 0.930 . S
Co198 N202 2.148 1_554 S
Co198 N208 2.128 . S
Co198 N218 2.194 . S
Co198 O223 2.351 . S
Co198 O224 2.155 . S
Co198 O225 2.096 1_554 S
C199 N202 1.301 . S
C199 N203 1.328 . S
C199 H204 0.930 . S
C200 C201 1.333 . S
C200 N202 1.317 . S
C200 H205 0.930 . S
C201 C200 1.333 . S
C201 N203 1.350 . S
C201 H227 0.931 . S
N202 Co198 2.148 1_556 S
N202 C199 1.301 . S
N202 C200 1.317 . S
N203 C199 1.328 . S
N203 C201 1.350 . S
H204 C199 0.930 . S
H205 C200 0.930 . S
C206 O207 1.224 . S
C206 O225 1.247 . S
O207 C206 1.224 . S
N208 Co198 2.128 . S
N208 C209 1.355 . S
N208 C211 1.311 . S
C209 N208 1.355 . S
C209 C210 1.363 . S
C209 H221 0.929 . S
C210 C209 1.363 . S
C210 N212 1.375 . S
C210 H228 0.931 . S
C211 N208 1.311 . S
C211 N212 1.347 . S
C211 H222 0.929 . S
N212 C210 1.375 . S
N212 C211 1.347 . S
C213 C216 1.365 . S
C213 N218 1.328 . S
C213 H219 0.929 . S
C214 C215 1.362 1_556 S
C214 C217 1.378 . S
C214 H229 0.929 . S
C215 C214 1.362 1_554 S
C215 C216 1.366 . S
C216 C213 1.365 . S
C216 C215 1.366 . S
C216 H230 0.930 . S
C217 C214 1.378 . S
C217 N218 1.315 1_556 S
C217 H220 0.930 . S
N218 Co198 2.194 . S
N218 C213 1.328 . S
N218 C217 1.315 1_554 S
H219 C213 0.929 . S
H220 C217 0.930 . S
H221 C209 0.929 . S
H222 C211 0.929 . S
O223 Co198 2.351 . S
O223 C226 1.244 . S
O224 Co198 2.155 . S
O224 C226 1.240 . S
O225 Co198 2.096 1_556 S
O225 C206 1.247 . S
C226 O223 1.244 . S
C226 O224 1.240 . S
H227 C201 0.931 . S
H228 C210 0.931 . S
H229 C214 0.929 . S
H230 C216 0.930 . S
Co231 N235 2.148 . S
Co231 N241 2.128 1_554 S
Co231 N251 2.194 . S
Co231 O256 2.351 1_554 S
Co231 O257 2.155 1_554 S
Co231 O258 2.096 . S
C232 N235 1.301 . S
C232 N236 1.328 . S
C232 H237 0.930 . S
C233 C234 1.333 . S
C233 N235 1.317 . S
C233 H238 0.930 . S
C234 C233 1.333 . S
C234 N236 1.350 . S
C234 H260 0.931 . S
N235 Co231 2.148 . S
N235 C232 1.301 . S
N235 C233 1.317 . S
N236 C232 1.328 . S
N236 C234 1.350 . S
H237 C232 0.930 . S
H238 C233 0.930 . S
C239 O240 1.224 . S
C239 O258 1.247 . S
O240 C239 1.224 . S
N241 Co231 2.128 1_556 S
N241 C242 1.355 . S
N241 C244 1.311 . S
C242 N241 1.355 . S
C242 C243 1.363 . S
C242 H254 0.929 . S
C243 C242 1.363 . S
C243 N245 1.375 . S
C243 H261 0.931 . S
C244 N241 1.311 . S
C244 N245 1.347 . S
C244 H255 0.929 . S
N245 C243 1.375 . S
N245 C244 1.347 . S
C246 C249 1.365 . S
C246 N251 1.328 . S
C246 H252 0.929 . S
C247 C248 1.362 . S
C247 C250 1.378 . S
C247 H262 0.929 . S
C248 C247 1.362 . S
C248 C249 1.366 . S
C249 C246 1.365 . S
C249 C248 1.366 . S
C249 H263 0.930 . S
C250 C247 1.378 . S
C250 N251 1.315 . S
C250 H253 0.930 . S
N251 Co231 2.194 . S
N251 C246 1.328 . S
N251 C250 1.315 . S
H252 C246 0.929 . S
H253 C250 0.930 . S
H254 C242 0.929 . S
H255 C244 0.929 . S
O256 Co231 2.351 1_556 S
O256 C259 1.244 . S
O257 Co231 2.155 1_556 S
O257 C259 1.240 . S
O258 Co231 2.096 . S
O258 C239 1.247 . S
C259 O256 1.244 . S
C259 O257 1.240 . S
H260 C234 0.931 . S
H261 C243 0.931 . S
H262 C247 0.929 . S
H263 C249 0.930 . S
H264 C282 0.951 . S
H265 C284 0.951 . S
H266 C286 0.950 . S
H267 C287 0.950 . S
H268 C289 0.950 . S
H269 C292 0.950 . S
H270 C293 0.950 . S
H271 C295 0.950 . S
H272 C296 0.950 . S
H273 C297 0.951 . S
H274 C299 0.951 . S
H275 C301 0.950 . S
H276 C302 0.950 . S
H277 C304 0.950 . S
H278 C307 0.950 . S
H279 C308 0.950 . S
H280 C310 0.950 . S
H281 C311 0.950 . S
C282 H264 0.951 . S
C282 C283 1.366 . S
C282 C284 1.388 . S
C283 C282 1.366 . S
C283 C287 1.385 . S
C284 H265 0.951 . S
C284 C282 1.388 . S
C284 C285 1.366 . S
C285 C284 1.366 . S
C285 C286 1.414 . S
C285 C288 1.499 . S
C286 H266 0.950 . S
C286 C285 1.414 . S
C286 C287 1.374 . S
C287 H267 0.950 . S
C287 C283 1.385 . S
C287 C286 1.374 . S
C288 C285 1.499 . S
C288 C289 1.373 . S
C288 C290 1.389 . S
C289 H268 0.950 . S
C289 C288 1.373 . S
C289 C305 1.377 . S
C290 C288 1.389 . S
C290 C291 1.524 . S
C290 C304 1.377 . S
C291 C290 1.524 . S
C291 C292 1.397 . S
C291 C296 1.363 . S
C292 H269 0.950 . S
C292 C291 1.397 . S
C292 C293 1.334 . S
C293 H270 0.950 . S
C293 C292 1.334 . S
C293 C294 1.287 . S
C294 C293 1.287 . S
C294 C295 1.524 . S
C294 H313 0.913 . S
C295 H271 0.950 . S
C295 C294 1.524 . S
C295 C296 1.415 . S
C296 H272 0.950 . S
C296 C291 1.363 . S
C296 C295 1.415 . S
C297 H273 0.951 . S
C297 C298 1.366 . S
C297 C299 1.388 . S
C298 C297 1.366 . S
C298 C302 1.385 . S
C299 H274 0.951 . S
C299 C297 1.388 . S
C299 C300 1.366 . S
C300 C299 1.366 . S
C300 C301 1.414 . S
C300 C303 1.499 . S
C301 H275 0.950 . S
C301 C300 1.414 . S
C301 C302 1.374 . S
C302 H276 0.950 . S
C302 C298 1.385 . S
C302 C301 1.374 . S
C303 C300 1.499 . S
C303 C304 1.373 . S
C303 C305 1.389 . S
C304 H277 0.950 . S
C304 C290 1.377 . S
C304 C303 1.373 . S
C305 C289 1.377 . S
C305 C303 1.389 . S
C305 C306 1.524 . S
C306 C305 1.524 . S
C306 C307 1.397 . S
C306 C311 1.363 . S
C307 H278 0.950 . S
C307 C306 1.397 . S
C307 C308 1.334 . S
C308 H279 0.950 . S
C308 C307 1.334 . S
C308 C309 1.287 . S
C309 C308 1.287 . S
C309 C310 1.524 . S
C309 H312 0.999 . S
C310 H280 0.950 . S
C310 C309 1.524 . S
C310 C311 1.415 . S
C311 H281 0.950 . S
C311 C306 1.363 . S
C311 C310 1.415 . S
H312 C309 0.999 . S
H313 C294 0.913 . S
H314 C332 0.951 . S
H315 C334 0.951 . S
H316 C336 0.950 . S
H317 C337 0.950 . S
H318 C339 0.950 . S
H319 C342 0.950 . S
H320 C343 0.950 . S
H321 C345 0.950 . S
H322 C346 0.950 . S
H323 C347 0.951 . S
H324 C349 0.951 . S
H325 C351 0.950 . S
H326 C352 0.950 . S
H327 C354 0.950 . S
H328 C357 0.950 . S
H329 C358 0.950 . S
H330 C360 0.950 . S
H331 C361 0.950 . S
C332 H314 0.951 . S
C332 C333 1.366 . S
C332 C334 1.388 . S
C333 C332 1.366 . S
C333 C337 1.385 . S
C334 H315 0.951 . S
C334 C332 1.388 . S
C334 C335 1.366 . S
C335 C334 1.366 . S
C335 C336 1.414 . S
C335 C338 1.499 . S
C336 H316 0.950 . S
C336 C335 1.414 . S
C336 C337 1.374 . S
C337 H317 0.950 . S
C337 C333 1.385 . S
C337 C336 1.374 . S
C338 C335 1.499 . S
C338 C339 1.373 . S
C338 C340 1.389 . S
C339 H318 0.950 . S
C339 C338 1.373 . S
C339 C355 1.377 . S
C340 C338 1.389 . S
C340 C341 1.524 . S
C340 C354 1.377 . S
C341 C340 1.524 . S
C341 C342 1.397 . S
C341 C346 1.363 . S
C342 H319 0.950 . S
C342 C341 1.397 . S
C342 C343 1.334 . S
C343 H320 0.950 . S
C343 C342 1.334 . S
C343 C344 1.287 . S
C344 C343 1.287 . S
C344 C345 1.524 . S
C344 H363 0.913 . S
C345 H321 0.950 . S
C345 C344 1.524 . S
C345 C346 1.415 . S
C346 H322 0.950 . S
C346 C341 1.363 . S
C346 C345 1.415 . S
C347 H323 0.951 . S
C347 C348 1.366 . S
C347 C349 1.388 . S
C348 C347 1.366 . S
C348 C352 1.385 . S
C349 H324 0.951 . S
C349 C347 1.388 . S
C349 C350 1.366 . S
C350 C349 1.366 . S
C350 C351 1.414 . S
C350 C353 1.499 . S
C351 H325 0.950 . S
C351 C350 1.414 . S
C351 C352 1.374 . S
C352 H326 0.950 . S
C352 C348 1.385 . S
C352 C351 1.374 . S
C353 C350 1.499 . S
C353 C354 1.373 . S
C353 C355 1.389 . S
C354 H327 0.950 . S
C354 C340 1.377 . S
C354 C353 1.373 . S
C355 C339 1.377 . S
C355 C353 1.389 . S
C355 C356 1.524 . S
C356 C355 1.524 . S
C356 C357 1.397 . S
C356 C361 1.363 . S
C357 H328 0.950 . S
C357 C356 1.397 . S
C357 C358 1.334 . S
C358 H329 0.950 . S
C358 C357 1.334 . S
C358 C359 1.287 . S
C359 C358 1.287 . S
C359 C360 1.524 . S
C359 H362 0.999 . S
C360 H330 0.950 . S
C360 C359 1.524 . S
C360 C361 1.415 . S
C361 H331 0.950 . S
C361 C356 1.363 . S
C361 C360 1.415 . S
H362 C359 0.999 . S
H363 C344 0.913 . S
H364 C382 0.951 . S
H365 C384 0.951 . S
H366 C386 0.950 . S
H367 C387 0.950 . S
H368 C389 0.950 . S
H369 C392 0.950 . S
H370 C393 0.950 . S
H371 C395 0.950 . S
H372 C396 0.950 . S
H373 C397 0.951 . S
H374 C399 0.951 . S
H375 C401 0.950 . S
H376 C402 0.950 . S
H377 C404 0.950 . S
H378 C407 0.950 . S
H379 C408 0.950 . S
H380 C410 0.950 . S
H381 C411 0.950 . S
C382 H364 0.951 . S
C382 C383 1.366 . S
C382 C384 1.388 . S
C383 C382 1.366 . S
C383 C387 1.385 . S
C384 H365 0.951 . S
C384 C382 1.388 . S
C384 C385 1.366 . S
C385 C384 1.366 . S
C385 C386 1.414 . S
C385 C388 1.499 . S
C386 H366 0.950 . S
C386 C385 1.414 . S
C386 C387 1.374 . S
C387 H367 0.950 . S
C387 C383 1.385 . S
C387 C386 1.374 . S
C388 C385 1.499 . S
C388 C389 1.373 . S
C388 C390 1.389 . S
C389 H368 0.950 . S
C389 C388 1.373 . S
C389 C405 1.377 . S
C390 C388 1.389 . S
C390 C391 1.524 . S
C390 C404 1.377 . S
C391 C390 1.524 . S
C391 C392 1.397 . S
C391 C396 1.363 . S
C392 H369 0.950 . S
C392 C391 1.397 . S
C392 C393 1.334 . S
C393 H370 0.950 . S
C393 C392 1.334 . S
C393 C394 1.287 . S
C394 C393 1.287 . S
C394 C395 1.524 . S
C394 H413 0.913 . S
C395 H371 0.950 . S
C395 C394 1.524 . S
C395 C396 1.415 . S
C396 H372 0.950 . S
C396 C391 1.363 . S
C396 C395 1.415 . S
C397 H373 0.951 . S
C397 C398 1.366 . S
C397 C399 1.388 . S
C398 C397 1.366 . S
C398 C402 1.385 . S
C399 H374 0.951 . S
C399 C397 1.388 . S
C399 C400 1.366 . S
C400 C399 1.366 . S
C400 C401 1.414 . S
C400 C403 1.499 . S
C401 H375 0.950 . S
C401 C400 1.414 . S
C401 C402 1.374 . S
C402 H376 0.950 . S
C402 C398 1.385 . S
C402 C401 1.374 . S
C403 C400 1.499 . S
C403 C404 1.373 . S
C403 C405 1.389 . S
C404 H377 0.950 . S
C404 C390 1.377 . S
C404 C403 1.373 . S
C405 C389 1.377 . S
C405 C403 1.389 . S
C405 C406 1.524 . S
C406 C405 1.524 . S
C406 C407 1.397 . S
C406 C411 1.363 . S
C407 H378 0.950 . S
C407 C406 1.397 . S
C407 C408 1.334 . S
C408 H379 0.950 . S
C408 C407 1.334 . S
C408 C409 1.287 . S
C409 C408 1.287 . S
C409 C410 1.524 . S
C409 H412 0.999 . S
C410 H380 0.950 . S
C410 C409 1.524 . S
C410 C411 1.415 . S
C411 H381 0.950 . S
C411 C406 1.363 . S
C411 C410 1.415 . S
H412 C409 0.999 . S
H413 C394 0.913 . S
H414 C432 0.951 . S
H415 C434 0.951 . S
H416 C436 0.950 . S
H417 C437 0.950 . S
H418 C439 0.950 . S
H419 C442 0.950 . S
H420 C443 0.950 . S
H421 C445 0.950 . S
H422 C446 0.950 . S
H423 C447 0.951 . S
H424 C449 0.951 . S
H425 C451 0.950 . S
H426 C452 0.950 . S
H427 C454 0.950 . S
H428 C457 0.950 . S
H429 C458 0.950 . S
H430 C460 0.950 . S
H431 C461 0.950 . S
C432 H414 0.951 . S
C432 C433 1.366 . S
C432 C434 1.388 . S
C433 C432 1.366 . S
C433 C437 1.385 . S
C434 H415 0.951 . S
C434 C432 1.388 . S
C434 C435 1.366 . S
C435 C434 1.366 . S
C435 C436 1.414 . S
C435 C438 1.499 . S
C436 H416 0.950 . S
C436 C435 1.414 . S
C436 C437 1.374 . S
C437 H417 0.950 . S
C437 C433 1.385 . S
C437 C436 1.374 . S
C438 C435 1.499 . S
C438 C439 1.373 . S
C438 C440 1.389 . S
C439 H418 0.950 . S
C439 C438 1.373 . S
C439 C455 1.377 . S
C440 C438 1.389 . S
C440 C441 1.524 . S
C440 C454 1.377 . S
C441 C440 1.524 . S
C441 C442 1.397 . S
C441 C446 1.363 . S
C442 H419 0.950 . S
C442 C441 1.397 . S
C442 C443 1.334 . S
C443 H420 0.950 . S
C443 C442 1.334 . S
C443 C444 1.287 . S
C444 C443 1.287 . S
C444 C445 1.524 . S
C444 H463 0.913 . S
C445 H421 0.950 . S
C445 C444 1.524 . S
C445 C446 1.415 . S
C446 H422 0.950 . S
C446 C441 1.363 . S
C446 C445 1.415 . S
C447 H423 0.951 . S
C447 C448 1.366 . S
C447 C449 1.388 . S
C448 C447 1.366 . S
C448 C452 1.385 . S
C449 H424 0.951 . S
C449 C447 1.388 . S
C449 C450 1.366 . S
C450 C449 1.366 . S
C450 C451 1.414 . S
C450 C453 1.499 . S
C451 H425 0.950 . S
C451 C450 1.414 . S
C451 C452 1.374 . S
C452 H426 0.950 . S
C452 C448 1.385 . S
C452 C451 1.374 . S
C453 C450 1.499 . S
C453 C454 1.373 . S
C453 C455 1.389 . S
C454 H427 0.950 . S
C454 C440 1.377 . S
C454 C453 1.373 . S
C455 C439 1.377 . S
C455 C453 1.389 . S
C455 C456 1.524 . S
C456 C455 1.524 . S
C456 C457 1.397 . S
C456 C461 1.363 . S
C457 H428 0.950 . S
C457 C456 1.397 . S
C457 C458 1.334 . S
C458 H429 0.950 . S
C458 C457 1.334 . S
C458 C459 1.287 . S
C459 C458 1.287 . S
C459 C460 1.524 . S
C459 H462 0.999 . S
C460 H430 0.950 . S
C460 C459 1.524 . S
C460 C461 1.415 . S
C461 H431 0.950 . S
C461 C456 1.363 . S
C461 C460 1.415 . S
H462 C459 0.999 . S
H463 C444 0.913 . S
H464 C482 0.951 . S
H465 C484 0.951 . S
H466 C486 0.950 . S
H467 C487 0.950 . S
H468 C489 0.950 . S
H469 C492 0.950 . S
H470 C493 0.950 . S
H471 C495 0.950 . S
H472 C496 0.950 . S
H473 C497 0.951 . S
H474 C499 0.951 . S
H475 C501 0.950 . S
H476 C502 0.950 . S
H477 C504 0.950 . S
H478 C507 0.950 . S
H479 C508 0.950 . S
H480 C510 0.950 . S
H481 C511 0.950 . S
C482 H464 0.951 . S
C482 C483 1.366 . S
C482 C484 1.388 . S
C483 C482 1.366 . S
C483 C487 1.385 . S
C484 H465 0.951 . S
C484 C482 1.388 . S
C484 C485 1.366 . S
C485 C484 1.366 . S
C485 C486 1.414 . S
C485 C488 1.499 . S
C486 H466 0.950 . S
C486 C485 1.414 . S
C486 C487 1.374 . S
C487 H467 0.950 . S
C487 C483 1.385 . S
C487 C486 1.374 . S
C488 C485 1.499 . S
C488 C489 1.373 . S
C488 C490 1.389 . S
C489 H468 0.950 . S
C489 C488 1.373 . S
C489 C505 1.377 . S
C490 C488 1.389 . S
C490 C491 1.524 . S
C490 C504 1.377 . S
C491 C490 1.524 . S
C491 C492 1.397 . S
C491 C496 1.363 . S
C492 H469 0.950 . S
C492 C491 1.397 . S
C492 C493 1.334 . S
C493 H470 0.950 . S
C493 C492 1.334 . S
C493 C494 1.287 . S
C494 C493 1.287 . S
C494 C495 1.524 . S
C494 H513 0.913 . S
C495 H471 0.950 . S
C495 C494 1.524 . S
C495 C496 1.415 . S
C496 H472 0.950 . S
C496 C491 1.363 . S
C496 C495 1.415 . S
C497 H473 0.951 . S
C497 C498 1.366 . S
C497 C499 1.388 . S
C498 C497 1.366 . S
C498 C502 1.385 . S
C499 H474 0.951 . S
C499 C497 1.388 . S
C499 C500 1.366 . S
C500 C499 1.366 . S
C500 C501 1.414 . S
C500 C503 1.499 . S
C501 H475 0.950 . S
C501 C500 1.414 . S
C501 C502 1.374 . S
C502 H476 0.950 . S
C502 C498 1.385 . S
C502 C501 1.374 . S
C503 C500 1.499 . S
C503 C504 1.373 . S
C503 C505 1.389 . S
C504 H477 0.950 . S
C504 C490 1.377 . S
C504 C503 1.373 . S
C505 C489 1.377 . S
C505 C503 1.389 . S
C505 C506 1.524 . S
C506 C505 1.524 . S
C506 C507 1.397 . S
C506 C511 1.363 . S
C507 H478 0.950 . S
C507 C506 1.397 . S
C507 C508 1.334 . S
C508 H479 0.950 . S
C508 C507 1.334 . S
C508 C509 1.287 . S
C509 C508 1.287 . S
C509 C510 1.524 . S
C509 H512 0.999 . S
C510 H480 0.950 . S
C510 C509 1.524 . S
C510 C511 1.415 . S
C511 H481 0.950 . S
C511 C506 1.363 . S
C511 C510 1.415 . S
H512 C509 0.999 . S
H513 C494 0.913 . S
H514 C532 0.951 . S
H515 C534 0.951 . S
H516 C536 0.950 . S
H517 C537 0.950 . S
H518 C539 0.950 . S
H519 C542 0.950 . S
H520 C543 0.950 . S
H521 C545 0.950 . S
H522 C546 0.950 . S
H523 C547 0.951 . S
H524 C549 0.951 . S
H525 C551 0.950 . S
H526 C552 0.950 . S
H527 C554 0.950 . S
H528 C557 0.950 . S
H529 C558 0.950 . S
H530 C560 0.950 . S
H531 C561 0.950 . S
C532 H514 0.951 . S
C532 C533 1.366 . S
C532 C534 1.388 . S
C533 C532 1.366 . S
C533 C537 1.385 . S
C534 H515 0.951 . S
C534 C532 1.388 . S
C534 C535 1.366 . S
C535 C534 1.366 . S
C535 C536 1.414 . S
C535 C538 1.499 . S
C536 H516 0.950 . S
C536 C535 1.414 . S
C536 C537 1.374 . S
C537 H517 0.950 . S
C537 C533 1.385 . S
C537 C536 1.374 . S
C538 C535 1.499 . S
C538 C539 1.373 . S
C538 C540 1.389 . S
C539 H518 0.950 . S
C539 C538 1.373 . S
C539 C555 1.377 . S
C540 C538 1.389 . S
C540 C541 1.524 . S
C540 C554 1.377 . S
C541 C540 1.524 . S
C541 C542 1.397 . S
C541 C546 1.363 . S
C542 H519 0.950 . S
C542 C541 1.397 . S
C542 C543 1.334 . S
C543 H520 0.950 . S
C543 C542 1.334 . S
C543 C544 1.287 . S
C544 C543 1.287 . S
C544 C545 1.524 . S
C544 H563 0.913 . S
C545 H521 0.950 . S
C545 C544 1.524 . S
C545 C546 1.415 . S
C546 H522 0.950 . S
C546 C541 1.363 . S
C546 C545 1.415 . S
C547 H523 0.951 . S
C547 C548 1.366 . S
C547 C549 1.388 . S
C548 C547 1.366 . S
C548 C552 1.385 . S
C549 H524 0.951 . S
C549 C547 1.388 . S
C549 C550 1.366 . S
C550 C549 1.366 . S
C550 C551 1.414 . S
C550 C553 1.499 . S
C551 H525 0.950 . S
C551 C550 1.414 . S
C551 C552 1.374 . S
C552 H526 0.950 . S
C552 C548 1.385 . S
C552 C551 1.374 . S
C553 C550 1.499 . S
C553 C554 1.373 . S
C553 C555 1.389 . S
C554 H527 0.950 . S
C554 C540 1.377 . S
C554 C553 1.373 . S
C555 C539 1.377 . S
C555 C553 1.389 . S
C555 C556 1.524 . S
C556 C555 1.524 . S
C556 C557 1.397 . S
C556 C561 1.363 . S
C557 H528 0.950 . S
C557 C556 1.397 . S
C557 C558 1.334 . S
C558 H529 0.950 . S
C558 C557 1.334 . S
C558 C559 1.287 . S
C559 C558 1.287 . S
C559 C560 1.524 . S
C559 H562 0.999 . S
C560 H530 0.950 . S
C560 C559 1.524 . S
C560 C561 1.415 . S
C561 H531 0.950 . S
C561 C556 1.363 . S
C561 C560 1.415 . S
H562 C559 0.999 . S
H563 C544 0.913 . S
H564 C582 0.951 . S
H565 C584 0.951 . S
H566 C586 0.950 . S
H567 C587 0.950 . S
H568 C589 0.950 . S
H569 C592 0.950 . S
H570 C593 0.950 . S
H571 C595 0.950 . S
H572 C596 0.950 . S
H573 C597 0.951 . S
H574 C599 0.951 . S
H575 C601 0.950 . S
H576 C602 0.950 . S
H577 C604 0.950 . S
H578 C607 0.950 . S
H579 C608 0.950 . S
H580 C610 0.950 . S
H581 C611 0.950 . S
C582 H564 0.951 . S
C582 C583 1.366 . S
C582 C584 1.388 . S
C583 C582 1.366 . S
C583 C587 1.385 . S
C584 H565 0.951 . S
C584 C582 1.388 . S
C584 C585 1.366 . S
C585 C584 1.366 . S
C585 C586 1.414 . S
C585 C588 1.499 . S
C586 H566 0.950 . S
C586 C585 1.414 . S
C586 C587 1.374 . S
C587 H567 0.950 . S
C587 C583 1.385 . S
C587 C586 1.374 . S
C588 C585 1.499 . S
C588 C589 1.373 . S
C588 C590 1.389 . S
C589 H568 0.950 . S
C589 C588 1.373 . S
C589 C605 1.377 . S
C590 C588 1.389 . S
C590 C591 1.524 . S
C590 C604 1.377 . S
C591 C590 1.524 . S
C591 C592 1.397 . S
C591 C596 1.363 . S
C592 H569 0.950 . S
C592 C591 1.397 . S
C592 C593 1.334 . S
C593 H570 0.950 . S
C593 C592 1.334 . S
C593 C594 1.287 . S
C594 C593 1.287 . S
C594 C595 1.524 . S
C594 H613 0.913 . S
C595 H571 0.950 . S
C595 C594 1.524 . S
C595 C596 1.415 . S
C596 H572 0.950 . S
C596 C591 1.363 . S
C596 C595 1.415 . S
C597 H573 0.951 . S
C597 C598 1.366 . S
C597 C599 1.388 . S
C598 C597 1.366 . S
C598 C602 1.385 . S
C599 H574 0.951 . S
C599 C597 1.388 . S
C599 C600 1.366 . S
C600 C599 1.366 . S
C600 C601 1.414 . S
C600 C603 1.499 . S
C601 H575 0.950 . S
C601 C600 1.414 . S
C601 C602 1.374 . S
C602 H576 0.950 . S
C602 C598 1.385 . S
C602 C601 1.374 . S
C603 C600 1.499 . S
C603 C604 1.373 . S
C603 C605 1.389 . S
C604 H577 0.950 . S
C604 C590 1.377 . S
C604 C603 1.373 . S
C605 C589 1.377 . S
C605 C603 1.389 . S
C605 C606 1.524 . S
C606 C605 1.524 . S
C606 C607 1.397 . S
C606 C611 1.363 . S
C607 H578 0.950 . S
C607 C606 1.397 . S
C607 C608 1.334 . S
C608 H579 0.950 . S
C608 C607 1.334 . S
C608 C609 1.287 . S
C609 C608 1.287 . S
C609 C610 1.524 . S
C609 H612 0.999 . S
C610 H580 0.950 . S
C610 C609 1.524 . S
C610 C611 1.415 . S
C611 H581 0.950 . S
C611 C606 1.363 . S
C611 C610 1.415 . S
H612 C609 0.999 . S
H613 C594 0.913 . S
H614 C632 0.951 . S
H615 C634 0.951 . S
H616 C636 0.950 . S
H617 C637 0.950 . S
H618 C639 0.950 . S
H619 C642 0.950 . S
H620 C643 0.950 . S
H621 C645 0.950 . S
H622 C646 0.950 . S
H623 C647 0.951 . S
H624 C649 0.951 . S
H625 C651 0.950 . S
H626 C652 0.950 . S
H627 C654 0.950 . S
H628 C657 0.950 . S
H629 C658 0.950 . S
H630 C660 0.950 . S
H631 C661 0.950 . S
C632 H614 0.951 . S
C632 C633 1.366 . S
C632 C634 1.388 . S
C633 C632 1.366 . S
C633 C637 1.385 . S
C634 H615 0.951 . S
C634 C632 1.388 . S
C634 C635 1.366 . S
C635 C634 1.366 . S
C635 C636 1.414 . S
C635 C638 1.499 . S
C636 H616 0.950 . S
C636 C635 1.414 . S
C636 C637 1.374 . S
C637 H617 0.950 . S
C637 C633 1.385 . S
C637 C636 1.374 . S
C638 C635 1.499 . S
C638 C639 1.373 . S
C638 C640 1.389 . S
C639 H618 0.950 . S
C639 C638 1.373 . S
C639 C655 1.377 . S
C640 C638 1.389 . S
C640 C641 1.524 . S
C640 C654 1.377 . S
C641 C640 1.524 . S
C641 C642 1.397 . S
C641 C646 1.363 . S
C642 H619 0.950 . S
C642 C641 1.397 . S
C642 C643 1.334 . S
C643 H620 0.950 . S
C643 C642 1.334 . S
C643 C644 1.287 . S
C644 C643 1.287 . S
C644 C645 1.524 . S
C644 H663 0.913 . S
C645 H621 0.950 . S
C645 C644 1.524 . S
C645 C646 1.415 . S
C646 H622 0.950 . S
C646 C641 1.363 . S
C646 C645 1.415 . S
C647 H623 0.951 . S
C647 C648 1.366 . S
C647 C649 1.388 . S
C648 C647 1.366 . S
C648 C652 1.385 . S
C649 H624 0.951 . S
C649 C647 1.388 . S
C649 C650 1.366 . S
C650 C649 1.366 . S
C650 C651 1.414 . S
C650 C653 1.499 . S
C651 H625 0.950 . S
C651 C650 1.414 . S
C651 C652 1.374 . S
C652 H626 0.950 . S
C652 C648 1.385 . S
C652 C651 1.374 . S
C653 C650 1.499 . S
C653 C654 1.373 . S
C653 C655 1.389 . S
C654 H627 0.950 . S
C654 C640 1.377 . S
C654 C653 1.373 . S
C655 C639 1.377 . S
C655 C653 1.389 . S
C655 C656 1.524 . S
C656 C655 1.524 . S
C656 C657 1.397 . S
C656 C661 1.363 . S
C657 H628 0.950 . S
C657 C656 1.397 . S
C657 C658 1.334 . S
C658 H629 0.950 . S
C658 C657 1.334 . S
C658 C659 1.287 . S
C659 C658 1.287 . S
C659 C660 1.524 . S
C659 H662 0.999 . S
C660 H630 0.950 . S
C660 C659 1.524 . S
C660 C661 1.415 . S
C661 H631 0.950 . S
C661 C656 1.363 . S
C661 C660 1.415 . S
H662 C659 0.999 . S
H663 C644 0.913 . S
H664 C682 0.951 . S
H665 C684 0.951 . S
H666 C686 0.949 1_556 S
H667 C687 0.951 . S
H668 C689 0.950 . S
H669 C692 0.950 . S
H670 C693 0.950 . S
H671 C695 0.950 . S
H672 C696 0.950 . S
H673 C697 0.951 1_556 S
H674 C699 0.950 1_556 S
H675 C701 0.950 . S
H676 C702 0.950 . S
H677 C704 0.950 . S
H678 C707 0.950 . S
H679 C708 0.950 . S
H680 C710 0.950 . S
H681 C711 0.950 . S
C682 H664 0.951 . S
C682 C683 1.366 1_565 S
C682 C684 1.388 . S
C683 C682 1.366 1_545 S
C683 C687 1.385 . S
C684 H665 0.951 . S
C684 C682 1.388 . S
C684 C685 1.366 1_565 S
C685 C684 1.366 1_545 S
C685 C686 1.414 . S
C685 C688 1.499 . S
C686 H666 0.949 1_554 S
C686 C685 1.414 . S
C686 C687 1.374 . S
C687 H667 0.951 . S
C687 C683 1.385 . S
C687 C686 1.374 . S
C688 C685 1.499 . S
C688 C689 1.373 . S
C688 C690 1.389 1_544 S
C689 H668 0.950 . S
C689 C688 1.373 . S
C689 C705 1.377 . S
C690 C688 1.389 1_566 S
C690 C691 1.524 . S
C690 C704 1.377 . S
C691 C690 1.524 . S
C691 C692 1.397 . S
C691 C696 1.363 . S
C692 H669 0.950 . S
C692 C691 1.397 . S
C692 C693 1.334 . S
C693 H670 0.950 . S
C693 C692 1.334 . S
C693 C694 1.287 . S
C694 C693 1.287 . S
C694 C695 1.524 . S
C694 H713 0.913 . S
C695 H671 0.950 . S
C695 C694 1.524 . S
C695 C696 1.415 . S
C696 H672 0.950 . S
C696 C691 1.363 . S
C696 C695 1.415 . S
C697 H673 0.951 1_554 S
C697 C698 1.366 . S
C697 C699 1.388 . S
C698 C697 1.366 . S
C698 C702 1.385 1_545 S
C699 H674 0.950 1_554 S
C699 C697 1.388 . S
C699 C700 1.366 . S
C700 C699 1.366 . S
C700 C701 1.414 1_545 S
C700 C703 1.499 . S
C701 H675 0.950 . S
C701 C700 1.414 1_565 S
C701 C702 1.374 . S
C702 H676 0.950 . S
C702 C698 1.385 1_565 S
C702 C701 1.374 . S
C703 C700 1.499 . S
C703 C704 1.373 1_544 S
C703 C705 1.389 . S
C704 H677 0.950 . S
C704 C690 1.377 . S
C704 C703 1.373 1_566 S
C705 C689 1.377 . S
C705 C703 1.389 . S
C705 C706 1.524 . S
C706 C705 1.524 . S
C706 C707 1.397 . S
C706 C711 1.363 . S
C707 H678 0.950 . S
C707 C706 1.397 . S
C707 C708 1.334 . S
C708 H679 0.950 . S
C708 C707 1.334 . S
C708 C709 1.287 . S
C709 C708 1.287 . S
C709 C710 1.524 . S
C709 H712 0.999 . S
C710 H680 0.950 . S
C710 C709 1.524 . S
C710 C711 1.415 . S
C711 H681 0.950 . S
C711 C706 1.363 . S
C711 C710 1.415 . S
H712 C709 0.999 . S
H713 C694 0.913 . S
H714 C732 0.951 . S
H715 C734 0.951 . S
H716 C736 0.950 . S
H717 C737 0.950 . S
H718 C739 0.950 . S
H719 C742 0.950 . S
H720 C743 0.950 . S
H721 C745 0.950 . S
H722 C746 0.950 . S
H723 C747 0.951 . S
H724 C749 0.951 . S
H725 C751 0.950 . S
H726 C752 0.950 . S
H727 C754 0.950 . S
H728 C757 0.950 . S
H729 C758 0.950 . S
H730 C760 0.950 . S
H731 C761 0.950 . S
C732 H714 0.951 . S
C732 C733 1.366 . S
C732 C734 1.388 . S
C733 C732 1.366 . S
C733 C737 1.385 . S
C734 H715 0.951 . S
C734 C732 1.388 . S
C734 C735 1.366 . S
C735 C734 1.366 . S
C735 C736 1.414 . S
C735 C738 1.499 . S
C736 H716 0.950 . S
C736 C735 1.414 . S
C736 C737 1.374 . S
C737 H717 0.950 . S
C737 C733 1.385 . S
C737 C736 1.374 . S
C738 C735 1.499 . S
C738 C739 1.373 . S
C738 C740 1.389 . S
C739 H718 0.950 . S
C739 C738 1.373 . S
C739 C755 1.377 . S
C740 C738 1.389 . S
C740 C741 1.524 . S
C740 C754 1.377 . S
C741 C740 1.524 . S
C741 C742 1.397 . S
C741 C746 1.363 . S
C742 H719 0.950 . S
C742 C741 1.397 . S
C742 C743 1.334 . S
C743 H720 0.950 . S
C743 C742 1.334 . S
C743 C744 1.287 . S
C744 C743 1.287 . S
C744 C745 1.524 . S
C744 H763 0.913 . S
C745 H721 0.950 . S
C745 C744 1.524 . S
C745 C746 1.415 . S
C746 H722 0.950 . S
C746 C741 1.363 . S
C746 C745 1.415 . S
C747 H723 0.951 . S
C747 C748 1.366 . S
C747 C749 1.388 . S
C748 C747 1.366 . S
C748 C752 1.385 . S
C749 H724 0.951 . S
C749 C747 1.388 . S
C749 C750 1.366 . S
C750 C749 1.366 . S
C750 C751 1.414 . S
C750 C753 1.499 . S
C751 H725 0.950 . S
C751 C750 1.414 . S
C751 C752 1.374 . S
C752 H726 0.950 . S
C752 C748 1.385 . S
C752 C751 1.374 . S
C753 C750 1.499 . S
C753 C754 1.373 . S
C753 C755 1.389 . S
C754 H727 0.950 . S
C754 C740 1.377 . S
C754 C753 1.373 . S
C755 C739 1.377 . S
C755 C753 1.389 . S
C755 C756 1.524 . S
C756 C755 1.524 . S
C756 C757 1.397 . S
C756 C761 1.363 . S
C757 H728 0.950 . S
C757 C756 1.397 . S
C757 C758 1.334 . S
C758 H729 0.950 . S
C758 C757 1.334 . S
C758 C759 1.287 . S
C759 C758 1.287 . S
C759 C760 1.524 . S
C759 H762 0.999 . S
C760 H730 0.950 . S
C760 C759 1.524 . S
C760 C761 1.415 . S
C761 H731 0.950 . S
C761 C756 1.363 . S
C761 C760 1.415 . S
H762 C759 0.999 . S
H763 C744 0.913 . S
H764 C782 0.951 . S
H765 C784 0.951 . S
H766 C786 0.950 . S
H767 C787 0.950 . S
H768 C789 0.950 . S
H769 C792 0.950 . S
H770 C793 0.950 . S
H771 C795 0.950 . S
H772 C796 0.950 . S
H773 C797 0.951 . S
H774 C799 0.951 . S
H775 C801 0.950 . S
H776 C802 0.950 . S
H777 C804 0.950 . S
H778 C807 0.950 . S
H779 C808 0.950 . S
H780 C810 0.950 . S
H781 C811 0.950 . S
C782 H764 0.951 . S
C782 C783 1.366 . S
C782 C784 1.388 . S
C783 C782 1.366 . S
C783 C787 1.385 1_545 S
C784 H765 0.951 . S
C784 C782 1.388 . S
C784 C785 1.366 . S
C785 C784 1.366 . S
C785 C786 1.414 1_545 S
C785 C788 1.499 . S
C786 H766 0.950 . S
C786 C785 1.414 1_565 S
C786 C787 1.374 . S
C787 H767 0.950 . S
C787 C783 1.385 1_565 S
C787 C786 1.374 . S
C788 C785 1.499 . S
C788 C789 1.373 1_545 S
C788 C790 1.389 . S
C789 H768 0.950 . S
C789 C788 1.373 1_565 S
C789 C805 1.377 1_455 S
C790 C788 1.389 . S
C790 C791 1.524 . S
C790 C804 1.377 1_455 S
C791 C790 1.524 . S
C791 C792 1.397 . S
C791 C796 1.363 . S
C792 H769 0.950 . S
C792 C791 1.397 . S
C792 C793 1.334 . S
C793 H770 0.950 . S
C793 C792 1.334 . S
C793 C794 1.287 . S
C794 C793 1.287 . S
C794 C795 1.524 . S
C794 H813 0.913 . S
C795 H771 0.950 . S
C795 C794 1.524 . S
C795 C796 1.415 . S
C796 H772 0.950 . S
C796 C791 1.363 . S
C796 C795 1.415 . S
C797 H773 0.951 . S
C797 C798 1.366 1_565 S
C797 C799 1.388 . S
C798 C797 1.366 1_545 S
C798 C802 1.385 . S
C799 H774 0.951 . S
C799 C797 1.388 . S
C799 C800 1.362 1_565 S
C800 C799 1.362 1_545 S
C800 C801 1.418 . S
C800 C803 1.499 . S
C801 H775 0.950 . S
C801 C800 1.418 . S
C801 C802 1.374 . S
C802 H776 0.950 . S
C802 C798 1.385 . S
C802 C801 1.374 . S
C803 C800 1.499 . S
C803 C804 1.391 . S
C803 C805 1.373 1_545 S
C804 H777 0.950 . S
C804 C790 1.377 1_655 S
C804 C803 1.391 . S
C805 C789 1.377 1_655 S
C805 C803 1.373 1_565 S
C805 C806 1.524 . S
C806 C805 1.524 . S
C806 C807 1.397 . S
C806 C811 1.363 . S
C807 H778 0.950 . S
C807 C806 1.397 . S
C807 C808 1.334 . S
C808 H779 0.950 . S
C808 C807 1.334 . S
C808 C809 1.287 . S
C809 C808 1.287 . S
C809 C810 1.524 . S
C809 H812 0.999 . S
C810 H780 0.950 . S
C810 C809 1.524 . S
C810 C811 1.415 . S
C811 H781 0.950 . S
C811 C806 1.363 . S
C811 C810 1.415 . S
H812 C809 0.999 . S
H813 C794 0.913 . S
H814 C832 0.951 . S
H815 C834 0.951 . S
H816 C836 0.953 . S
H817 C837 0.950 . S
H818 C839 0.950 . S
H819 C842 0.950 . S
H820 C843 0.950 . S
H821 C845 0.950 . S
H822 C846 0.950 . S
H823 C847 0.944 1_556 S
H824 C849 0.952 . S
H825 C851 0.950 . S
H826 C852 0.950 . S
H827 C854 0.950 . S
H828 C857 0.950 . S
H829 C858 0.950 . S
H830 C860 0.950 . S
H831 C861 0.950 . S
C832 H814 0.951 . S
C832 C833 1.366 . S
C832 C834 1.388 . S
C833 C832 1.366 . S
C833 C837 1.385 1_554 S
C834 H815 0.951 . S
C834 C832 1.388 . S
C834 C835 1.366 . S
C835 C834 1.366 . S
C835 C836 1.411 1_554 S
C835 C838 1.499 . S
C836 H816 0.953 . S
C836 C835 1.411 1_556 S
C836 C837 1.374 . S
C837 H817 0.950 . S
C837 C833 1.385 1_556 S
C837 C836 1.374 . S
C838 C835 1.499 . S
C838 C839 1.373 1_554 S
C838 C840 1.389 . S
C839 H818 0.950 . S
C839 C838 1.373 1_556 S
C839 C855 1.377 1_655 S
C840 C838 1.389 . S
C840 C841 1.524 . S
C840 C854 1.377 1_655 S
C841 C840 1.524 . S
C841 C842 1.397 . S
C841 C846 1.363 . S
C842 H819 0.950 . S
C842 C841 1.397 . S
C842 C843 1.334 . S
C843 H820 0.950 . S
C843 C842 1.334 . S
C843 C844 1.287 . S
C844 C843 1.287 . S
C844 C845 1.524 . S
C844 H863 0.913 . S
C845 H821 0.950 . S
C845 C844 1.524 . S
C845 C846 1.415 . S
C846 H822 0.950 . S
C846 C841 1.363 . S
C846 C845 1.415 . S
C847 H823 0.944 1_554 S
C847 C848 1.373 . S
C847 C849 1.389 1_554 S
C848 C847 1.373 . S
C848 C852 1.385 . S
C849 H824 0.952 . S
C849 C847 1.389 1_556 S
C849 C850 1.365 1_556 S
C850 C849 1.365 1_554 S
C850 C851 1.414 . S
C850 C853 1.499 . S
C851 H825 0.950 . S
C851 C850 1.414 . S
C851 C852 1.374 . S
C852 H826 0.950 . S
C852 C848 1.385 . S
C852 C851 1.374 . S
C853 C850 1.499 . S
C853 C854 1.373 . S
C853 C855 1.389 1_554 S
C854 H827 0.950 . S
C854 C840 1.377 1_455 S
C854 C853 1.373 . S
C855 C839 1.377 1_455 S
C855 C853 1.389 1_556 S
C855 C856 1.524 . S
C856 C855 1.524 . S
C856 C857 1.397 . S
C856 C861 1.363 . S
C857 H828 0.950 . S
C857 C856 1.397 . S
C857 C858 1.334 . S
C858 H829 0.950 . S
C858 C857 1.334 . S
C858 C859 1.287 . S
C859 C858 1.287 . S
C859 C860 1.524 . S
C859 H862 0.999 . S
C860 H830 0.950 . S
C860 C859 1.524 . S
C860 C861 1.415 . S
C861 H831 0.950 . S
C861 C856 1.363 . S
C861 C860 1.415 . S
H862 C859 0.999 . S
H863 C844 0.913 . S
H864 C882 0.951 . S
H865 C884 0.951 . S
H866 C886 0.950 . S
H867 C887 0.950 . S
H868 C889 0.950 . S
H869 C892 0.950 1_554 S
H870 C893 0.946 1_554 S
H871 C895 0.950 . S
H872 C896 0.950 . S
H873 C897 0.951 . S
H874 C899 0.951 . S
H875 C901 0.950 . S
H876 C902 0.950 . S
H877 C904 0.950 . S
H878 C907 0.950 . S
H879 C908 0.950 . S
H880 C910 0.950 . S
H881 C911 0.950 . S
C882 H864 0.951 . S
C882 C883 1.366 . S
C882 C884 1.388 . S
C883 C882 1.366 . S
C883 C887 1.385 1_556 S
C884 H865 0.951 . S
C884 C882 1.388 . S
C884 C885 1.366 . S
C885 C884 1.366 . S
C885 C886 1.414 1_556 S
C885 C888 1.499 . S
C886 H866 0.950 . S
C886 C885 1.414 1_554 S
C886 C887 1.374 . S
C887 H867 0.950 . S
C887 C883 1.385 1_554 S
C887 C886 1.374 . S
C888 C885 1.499 . S
C888 C889 1.373 1_556 S
C888 C890 1.389 . S
C889 H868 0.950 . S
C889 C888 1.373 1_554 S
C889 C905 1.376 1_554 S
C890 C888 1.389 . S
C890 C891 1.524 . S
C890 C904 1.377 . S
C891 C890 1.524 . S
C891 C892 1.397 . S
C891 C896 1.363 . S
C892 H869 0.950 1_556 S
C892 C891 1.397 . S
C892 C893 1.334 . S
C893 H870 0.946 1_556 S
C893 C892 1.334 . S
C893 C894 1.287 . S
C894 C893 1.287 . S
C894 C895 1.524 . S
C894 H913 0.913 . S
C895 H871 0.950 . S
C895 C894 1.524 . S
C895 C896 1.415 . S
C896 H872 0.950 . S
C896 C891 1.363 . S
C896 C895 1.415 . S
C897 H873 0.951 . S
C897 C898 1.366 1_554 S
C897 C899 1.388 . S
C898 C897 1.366 1_556 S
C898 C902 1.385 . S
C899 H874 0.951 . S
C899 C897 1.388 . S
C899 C900 1.366 1_554 S
C900 C899 1.366 1_556 S
C900 C901 1.414 . S
C900 C903 1.499 . S
C901 H875 0.950 . S
C901 C900 1.414 . S
C901 C902 1.374 . S
C902 H876 0.950 . S
C902 C898 1.385 . S
C902 C901 1.374 . S
C903 C900 1.499 . S
C903 C904 1.373 . S
C903 C905 1.392 . S
C904 H877 0.950 . S
C904 C890 1.377 . S
C904 C903 1.373 . S
C905 C889 1.376 1_556 S
C905 C903 1.392 . S
C905 C906 1.523 1_556 S
C906 C905 1.523 1_554 S
C906 C907 1.397 1_554 S
C906 C911 1.363 . S
C907 H878 0.950 . S
C907 C906 1.397 1_556 S
C907 C908 1.334 . S
C908 H879 0.950 . S
C908 C907 1.334 . S
C908 C909 1.287 1_556 S
C909 C908 1.287 1_554 S
C909 C910 1.524 . S
C909 H912 0.999 . S
C910 H880 0.950 . S
C910 C909 1.524 . S
C910 C911 1.415 . S
C911 H881 0.950 . S
C911 C906 1.363 . S
C911 C910 1.415 . S
H912 C909 0.999 . S
H913 C894 0.913 . S
H914 C932 0.951 . S
H915 C934 0.951 . S
H916 C936 0.950 . S
H917 C937 0.950 . S
H918 C939 0.950 . S
H919 C942 0.950 . S
H920 C943 0.950 . S
H921 C945 0.950 . S
H922 C946 0.950 . S
H923 C947 0.951 . S
H924 C949 0.951 . S
H925 C951 0.950 . S
H926 C952 0.950 . S
H927 C954 0.950 . S
H928 C957 0.950 . S
H929 C958 0.950 . S
H930 C960 0.950 . S
H931 C961 0.950 . S
C932 H914 0.951 . S
C932 C933 1.366 1_554 S
C932 C934 1.388 . S
C933 C932 1.366 1_556 S
C933 C937 1.385 . S
C934 H915 0.951 . S
C934 C932 1.388 . S
C934 C935 1.366 1_554 S
C935 C934 1.366 1_556 S
C935 C936 1.414 . S
C935 C938 1.499 . S
C936 H916 0.950 . S
C936 C935 1.414 . S
C936 C937 1.374 . S
C937 H917 0.950 . S
C937 C933 1.385 . S
C937 C936 1.374 . S
C938 C935 1.499 . S
C938 C939 1.373 . S
C938 C940 1.389 1_556 S
C939 H918 0.950 . S
C939 C938 1.373 . S
C939 C955 1.377 . S
C940 C938 1.389 1_554 S
C940 C941 1.524 . S
C940 C954 1.377 . S
C941 C940 1.524 . S
C941 C942 1.397 . S
C941 C946 1.363 . S
C942 H919 0.950 . S
C942 C941 1.397 . S
C942 C943 1.334 . S
C943 H920 0.950 . S
C943 C942 1.334 . S
C943 C944 1.287 . S
C944 C943 1.287 . S
C944 C945 1.524 . S
C944 H963 0.913 . S
C945 H921 0.950 . S
C945 C944 1.524 . S
C945 C946 1.415 . S
C946 H922 0.950 . S
C946 C941 1.363 . S
C946 C945 1.415 . S
C947 H923 0.951 . S
C947 C948 1.366 . S
C947 C949 1.388 . S
C948 C947 1.366 . S
C948 C952 1.385 1_556 S
C949 H924 0.951 . S
C949 C947 1.388 . S
C949 C950 1.366 . S
C950 C949 1.366 . S
C950 C951 1.414 1_556 S
C950 C953 1.499 . S
C951 H925 0.950 . S
C951 C950 1.414 1_554 S
C951 C952 1.374 . S
C952 H926 0.950 . S
C952 C948 1.385 1_554 S
C952 C951 1.374 . S
C953 C950 1.499 . S
C953 C954 1.373 1_556 S
C953 C955 1.389 . S
C954 H927 0.950 . S
C954 C940 1.377 . S
C954 C953 1.373 1_554 S
C955 C939 1.377 . S
C955 C953 1.389 . S
C955 C956 1.524 . S
C956 C955 1.524 . S
C956 C957 1.397 . S
C956 C961 1.363 . S
C957 H928 0.950 . S
C957 C956 1.397 . S
C957 C958 1.334 . S
C958 H929 0.950 . S
C958 C957 1.334 . S
C958 C959 1.287 . S
C959 C958 1.287 . S
C959 C960 1.524 . S
C959 H962 0.999 . S
C960 H930 0.950 . S
C960 C959 1.524 . S
C960 C961 1.415 . S
C961 H931 0.950 . S
C961 C956 1.363 . S
C961 C960 1.415 . S
H962 C959 0.999 . S
H963 C944 0.913 . S
H964 C982 0.951 . S
H965 C984 0.951 . S
H966 C986 0.950 . S
H967 C987 0.950 . S
H968 C989 0.950 . S
H969 C992 0.950 . S
H970 C993 0.950 . S
H971 C995 0.950 . S
H972 C996 0.950 . S
H973 C997 0.951 . S
H974 C999 0.951 . S
H975 C1001 0.950 . S
H976 C1002 0.950 . S
H977 C1004 0.950 . S
H978 C1007 0.950 . S
H979 C1008 0.950 . S
H980 C1010 0.950 . S
H981 C1011 0.950 . S
C982 H964 0.951 . S
C982 C983 1.366 . S
C982 C984 1.388 . S
C983 C982 1.366 . S
C983 C987 1.385 . S
C984 H965 0.951 . S
C984 C982 1.388 . S
C984 C985 1.366 . S
C985 C984 1.366 . S
C985 C986 1.414 . S
C985 C988 1.499 . S
C986 H966 0.950 . S
C986 C985 1.414 . S
C986 C987 1.374 . S
C987 H967 0.950 . S
C987 C983 1.385 . S
C987 C986 1.374 . S
C988 C985 1.499 . S
C988 C989 1.373 . S
C988 C990 1.389 . S
C989 H968 0.950 . S
C989 C988 1.373 . S
C989 C1005 1.377 . S
C990 C988 1.389 . S
C990 C991 1.524 . S
C990 C1004 1.377 . S
C991 C990 1.524 . S
C991 C992 1.397 . S
C991 C996 1.363 . S
C992 H969 0.950 . S
C992 C991 1.397 . S
C992 C993 1.334 . S
C993 H970 0.950 . S
C993 C992 1.334 . S
C993 C994 1.287 . S
C994 C993 1.287 . S
C994 C995 1.524 . S
C994 H1013 0.913 . S
C995 H971 0.950 . S
C995 C994 1.524 . S
C995 C996 1.415 . S
C996 H972 0.950 . S
C996 C991 1.363 . S
C996 C995 1.415 . S
C997 H973 0.951 . S
C997 C998 1.366 . S
C997 C999 1.388 . S
C998 C997 1.366 . S
C998 C1002 1.385 . S
C999 H974 0.951 . S
C999 C997 1.388 . S
C999 C1000 1.366 . S
C1000 C999 1.366 . S
C1000 C1001 1.414 . S
C1000 C1003 1.499 . S
C1001 H975 0.950 . S
C1001 C1000 1.414 . S
C1001 C1002 1.374 . S
C1002 H976 0.950 . S
C1002 C998 1.385 . S
C1002 C1001 1.374 . S
C1003 C1000 1.499 . S
C1003 C1004 1.373 . S
C1003 C1005 1.389 . S
C1004 H977 0.950 . S
C1004 C990 1.377 . S
C1004 C1003 1.373 . S
C1005 C989 1.377 . S
C1005 C1003 1.389 . S
C1005 C1006 1.524 1_554 S
C1006 C1005 1.524 1_556 S
C1006 C1007 1.397 . S
C1006 C1011 1.363 1_556 S
C1007 H978 0.950 . S
C1007 C1006 1.397 . S
C1007 C1008 1.334 . S
C1008 H979 0.950 . S
C1008 C1007 1.334 . S
C1008 C1009 1.287 . S
C1009 C1008 1.287 . S
C1009 C1010 1.524 . S
C1009 H1012 0.999 . S
C1010 H980 0.950 . S
C1010 C1009 1.524 . S
C1010 C1011 1.415 1_556 S
C1011 H981 0.950 . S
C1011 C1006 1.363 1_554 S
C1011 C1010 1.415 1_554 S
H1012 C1009 0.999 . S
H1013 C994 0.913 . S
H1014 C1032 0.951 1_556 S
H1015 C1034 0.951 1_556 S
H1016 C1036 0.950 . S
H1017 C1037 0.950 . S
H1018 C1039 0.950 . S
H1019 C1042 0.950 . S
H1020 C1043 0.950 . S
H1021 C1045 0.950 1_556 S
H1022 C1046 0.950 1_556 S
H1023 C1047 0.951 . S
H1024 C1049 0.951 . S
H1025 C1051 0.950 1_556 S
H1026 C1052 0.950 1_556 S
H1027 C1054 0.950 . S
H1028 C1057 0.950 . S
H1029 C1058 0.950 . S
H1030 C1060 0.950 . S
H1031 C1061 0.950 . S
C1032 H1014 0.951 1_554 S
C1032 C1033 1.366 . S
C1032 C1034 1.388 . S
C1033 C1032 1.366 . S
C1033 C1037 1.385 . S
C1034 H1015 0.951 1_554 S
C1034 C1032 1.388 . S
C1034 C1035 1.366 . S
C1035 C1034 1.366 . S
C1035 C1036 1.414 . S
C1035 C1038 1.499 . S
C1036 H1016 0.950 . S
C1036 C1035 1.414 . S
C1036 C1037 1.374 . S
C1037 H1017 0.950 . S
C1037 C1033 1.385 . S
C1037 C1036 1.374 . S
C1038 C1035 1.499 . S
C1038 C1039 1.373 . S
C1038 C1040 1.389 . S
C1039 H1018 0.950 . S
C1039 C1038 1.373 . S
C1039 C1055 1.377 . S
C1040 C1038 1.389 . S
C1040 C1041 1.524 . S
C1040 C1054 1.377 . S
C1041 C1040 1.524 . S
C1041 C1042 1.397 . S
C1041 C1046 1.363 . S
C1042 H1019 0.950 . S
C1042 C1041 1.397 . S
C1042 C1043 1.334 . S
C1043 H1020 0.950 . S
C1043 C1042 1.334 . S
C1043 C1044 1.287 . S
C1044 C1043 1.287 . S
C1044 C1045 1.524 . S
C1044 H1063 0.913 . S
C1045 H1021 0.950 1_554 S
C1045 C1044 1.524 . S
C1045 C1046 1.415 . S
C1046 H1022 0.950 1_554 S
C1046 C1041 1.363 . S
C1046 C1045 1.415 . S
C1047 H1023 0.951 . S
C1047 C1048 1.366 . S
C1047 C1049 1.388 . S
C1048 C1047 1.366 . S
C1048 C1052 1.385 . S
C1049 H1024 0.951 . S
C1049 C1047 1.388 . S
C1049 C1050 1.366 . S
C1050 C1049 1.366 . S
C1050 C1051 1.414 . S
C1050 C1053 1.499 . S
C1051 H1025 0.950 1_554 S
C1051 C1050 1.414 . S
C1051 C1052 1.374 . S
C1052 H1026 0.950 1_554 S
C1052 C1048 1.385 . S
C1052 C1051 1.374 . S
C1053 C1050 1.499 . S
C1053 C1054 1.373 . S
C1053 C1055 1.389 . S
C1054 H1027 0.950 . S
C1054 C1040 1.377 . S
C1054 C1053 1.373 . S
C1055 C1039 1.377 . S
C1055 C1053 1.389 . S
C1055 C1056 1.524 . S
C1056 C1055 1.524 . S
C1056 C1057 1.397 1_554 S
C1056 C1061 1.363 . S
C1057 H1028 0.950 . S
C1057 C1056 1.397 1_556 S
C1057 C1058 1.334 . S
C1058 H1029 0.950 . S
C1058 C1057 1.334 . S
C1058 C1059 1.287 1_556 S
C1059 C1058 1.287 1_554 S
C1059 C1060 1.524 . S
C1059 H1062 0.999 . S
C1060 H1030 0.950 . S
C1060 C1059 1.524 . S
C1060 C1061 1.415 . S
C1061 H1031 0.950 . S
C1061 C1056 1.363 . S
C1061 C1060 1.415 . S
H1062 C1059 0.999 . S
H1063 C1044 0.913 . S
H1064 C1082 0.951 . S
H1065 C1084 0.951 . S
H1066 C1086 0.950 . S
H1067 C1087 0.950 . S
H1068 C1089 0.950 . S
H1069 C1092 0.950 . S
H1070 C1093 0.950 . S
H1071 C1095 0.950 . S
H1072 C1096 0.950 . S
H1073 C1097 0.951 . S
H1074 C1099 0.951 . S
H1075 C1101 0.950 . S
H1076 C1102 0.950 . S
H1077 C1104 0.950 . S
H1078 C1107 0.950 . S
H1079 C1108 0.950 . S
H1080 C1110 0.950 . S
H1081 C1111 0.950 . S
C1082 H1064 0.951 . S
C1082 C1083 1.366 . S
C1082 C1084 1.388 . S
C1083 C1082 1.366 . S
C1083 C1087 1.385 . S
C1084 H1065 0.951 . S
C1084 C1082 1.388 . S
C1084 C1085 1.366 . S
C1085 C1084 1.366 . S
C1085 C1086 1.414 . S
C1085 C1088 1.499 . S
C1086 H1066 0.950 . S
C1086 C1085 1.414 . S
C1086 C1087 1.374 . S
C1087 H1067 0.950 . S
C1087 C1083 1.385 . S
C1087 C1086 1.374 . S
C1088 C1085 1.499 . S
C1088 C1089 1.373 . S
C1088 C1090 1.389 . S
C1089 H1068 0.950 . S
C1089 C1088 1.373 . S
C1089 C1105 1.377 . S
C1090 C1088 1.389 . S
C1090 C1091 1.524 . S
C1090 C1104 1.377 . S
C1091 C1090 1.524 . S
C1091 C1092 1.397 . S
C1091 C1096 1.363 . S
C1092 H1069 0.950 . S
C1092 C1091 1.397 . S
C1092 C1093 1.334 . S
C1093 H1070 0.950 . S
C1093 C1092 1.334 . S
C1093 C1094 1.287 . S
C1094 C1093 1.287 . S
C1094 C1095 1.524 . S
C1094 H1113 0.913 . S
C1095 H1071 0.950 . S
C1095 C1094 1.524 . S
C1095 C1096 1.415 . S
C1096 H1072 0.950 . S
C1096 C1091 1.363 . S
C1096 C1095 1.415 . S
C1097 H1073 0.951 . S
C1097 C1098 1.366 . S
C1097 C1099 1.388 . S
C1098 C1097 1.366 . S
C1098 C1102 1.385 . S
C1099 H1074 0.951 . S
C1099 C1097 1.388 . S
C1099 C1100 1.366 . S
C1100 C1099 1.366 . S
C1100 C1101 1.414 . S
C1100 C1103 1.499 . S
C1101 H1075 0.950 . S
C1101 C1100 1.414 . S
C1101 C1102 1.374 . S
C1102 H1076 0.950 . S
C1102 C1098 1.385 . S
C1102 C1101 1.374 . S
C1103 C1100 1.499 . S
C1103 C1104 1.373 . S
C1103 C1105 1.389 . S
C1104 H1077 0.950 . S
C1104 C1090 1.377 . S
C1104 C1103 1.373 . S
C1105 C1089 1.377 . S
C1105 C1103 1.389 . S
C1105 C1106 1.524 . S
C1106 C1105 1.524 . S
C1106 C1107 1.397 . S
C1106 C1111 1.363 . S
C1107 H1078 0.950 . S
C1107 C1106 1.397 . S
C1107 C1108 1.334 . S
C1108 H1079 0.950 . S
C1108 C1107 1.334 . S
C1108 C1109 1.287 . S
C1109 C1108 1.287 . S
C1109 C1110 1.524 . S
C1109 H1112 0.999 . S
C1110 H1080 0.950 . S
C1110 C1109 1.524 . S
C1110 C1111 1.415 . S
C1111 H1081 0.950 . S
C1111 C1106 1.363 . S
C1111 C1110 1.415 . S
H1112 C1109 0.999 . S
H1113 C1094 0.913 . S
H1114 C1132 0.951 . S
H1115 C1134 0.951 . S
H1116 C1136 0.950 . S
H1117 C1137 0.950 . S
H1118 C1139 0.950 . S
H1119 C1142 0.950 . S
H1120 C1143 0.950 . S
H1121 C1145 0.950 . S
H1122 C1146 0.950 . S
H1123 C1147 0.951 . S
H1124 C1149 0.951 . S
H1125 C1151 0.950 . S
H1126 C1152 0.950 . S
H1127 C1154 0.950 . S
H1128 C1157 0.950 . S
H1129 C1158 0.950 . S
H1130 C1160 0.950 . S
H1131 C1161 0.950 . S
C1132 H1114 0.951 . S
C1132 C1133 1.366 . S
C1132 C1134 1.388 . S
C1133 C1132 1.366 . S
C1133 C1137 1.385 . S
C1134 H1115 0.951 . S
C1134 C1132 1.388 . S
C1134 C1135 1.366 . S
C1135 C1134 1.366 . S
C1135 C1136 1.414 . S
C1135 C1138 1.499 . S
C1136 H1116 0.950 . S
C1136 C1135 1.414 . S
C1136 C1137 1.374 . S
C1137 H1117 0.950 . S
C1137 C1133 1.385 . S
C1137 C1136 1.374 . S
C1138 C1135 1.499 . S
C1138 C1139 1.373 . S
C1138 C1140 1.389 . S
C1139 H1118 0.950 . S
C1139 C1138 1.373 . S
C1139 C1155 1.377 . S
C1140 C1138 1.389 . S
C1140 C1141 1.524 . S
C1140 C1154 1.377 . S
C1141 C1140 1.524 . S
C1141 C1142 1.397 . S
C1141 C1146 1.363 . S
C1142 H1119 0.950 . S
C1142 C1141 1.397 . S
C1142 C1143 1.334 . S
C1143 H1120 0.950 . S
C1143 C1142 1.334 . S
C1143 C1144 1.287 . S
C1144 C1143 1.287 . S
C1144 C1145 1.524 . S
C1144 H1163 0.913 . S
C1145 H1121 0.950 . S
C1145 C1144 1.524 . S
C1145 C1146 1.415 . S
C1146 H1122 0.950 . S
C1146 C1141 1.363 . S
C1146 C1145 1.415 . S
C1147 H1123 0.951 . S
C1147 C1148 1.366 . S
C1147 C1149 1.388 . S
C1148 C1147 1.366 . S
C1148 C1152 1.385 . S
C1149 H1124 0.951 . S
C1149 C1147 1.388 . S
C1149 C1150 1.366 . S
C1150 C1149 1.366 . S
C1150 C1151 1.414 . S
C1150 C1153 1.499 . S
C1151 H1125 0.950 . S
C1151 C1150 1.414 . S
C1151 C1152 1.374 . S
C1152 H1126 0.950 . S
C1152 C1148 1.385 . S
C1152 C1151 1.374 . S
C1153 C1150 1.499 . S
C1153 C1154 1.373 . S
C1153 C1155 1.389 . S
C1154 H1127 0.950 . S
C1154 C1140 1.377 . S
C1154 C1153 1.373 . S
C1155 C1139 1.377 . S
C1155 C1153 1.389 . S
C1155 C1156 1.524 . S
C1156 C1155 1.524 . S
C1156 C1157 1.397 . S
C1156 C1161 1.363 . S
C1157 H1128 0.950 . S
C1157 C1156 1.397 . S
C1157 C1158 1.334 . S
C1158 H1129 0.950 . S
C1158 C1157 1.334 . S
C1158 C1159 1.287 . S
C1159 C1158 1.287 . S
C1159 C1160 1.524 . S
C1159 H1162 0.999 . S
C1160 H1130 0.950 . S
C1160 C1159 1.524 . S
C1160 C1161 1.415 . S
C1161 H1131 0.950 . S
C1161 C1156 1.363 . S
C1161 C1160 1.415 . S
H1162 C1159 0.999 . S
H1163 C1144 0.913 . S
H1164 C1182 0.951 . S
H1165 C1184 0.951 . S
H1166 C1186 0.950 . S
H1167 C1187 0.950 . S
H1168 C1189 0.950 . S
H1169 C1192 0.950 . S
H1170 C1193 0.950 . S
H1171 C1195 0.950 . S
H1172 C1196 0.950 . S
H1173 C1197 0.951 . S
H1174 C1199 0.951 . S
H1175 C1201 0.950 . S
H1176 C1202 0.950 . S
H1177 C1204 0.950 . S
H1178 C1207 0.950 . S
H1179 C1208 0.950 . S
H1180 C1210 0.950 . S
H1181 C1211 0.950 . S
C1182 H1164 0.951 . S
C1182 C1183 1.366 . S
C1182 C1184 1.388 . S
C1183 C1182 1.366 . S
C1183 C1187 1.385 . S
C1184 H1165 0.951 . S
C1184 C1182 1.388 . S
C1184 C1185 1.366 . S
C1185 C1184 1.366 . S
C1185 C1186 1.414 . S
C1185 C1188 1.499 . S
C1186 H1166 0.950 . S
C1186 C1185 1.414 . S
C1186 C1187 1.374 . S
C1187 H1167 0.950 . S
C1187 C1183 1.385 . S
C1187 C1186 1.374 . S
C1188 C1185 1.499 . S
C1188 C1189 1.373 . S
C1188 C1190 1.389 . S
C1189 H1168 0.950 . S
C1189 C1188 1.373 . S
C1189 C1205 1.377 . S
C1190 C1188 1.389 . S
C1190 C1191 1.524 . S
C1190 C1204 1.377 . S
C1191 C1190 1.524 . S
C1191 C1192 1.397 . S
C1191 C1196 1.363 . S
C1192 H1169 0.950 . S
C1192 C1191 1.397 . S
C1192 C1193 1.334 . S
C1193 H1170 0.950 . S
C1193 C1192 1.334 . S
C1193 C1194 1.287 . S
C1194 C1193 1.287 . S
C1194 C1195 1.524 . S
C1194 H1213 0.913 . S
C1195 H1171 0.950 . S
C1195 C1194 1.524 . S
C1195 C1196 1.415 . S
C1196 H1172 0.950 . S
C1196 C1191 1.363 . S
C1196 C1195 1.415 . S
C1197 H1173 0.951 . S
C1197 C1198 1.366 . S
C1197 C1199 1.388 . S
C1198 C1197 1.366 . S
C1198 C1202 1.385 . S
C1199 H1174 0.951 . S
C1199 C1197 1.388 . S
C1199 C1200 1.366 . S
C1200 C1199 1.366 . S
C1200 C1201 1.414 . S
C1200 C1203 1.499 . S
C1201 H1175 0.950 . S
C1201 C1200 1.414 . S
C1201 C1202 1.374 . S
C1202 H1176 0.950 . S
C1202 C1198 1.385 . S
C1202 C1201 1.374 . S
C1203 C1200 1.499 . S
C1203 C1204 1.373 . S
C1203 C1205 1.389 . S
C1204 H1177 0.950 . S
C1204 C1190 1.377 . S
C1204 C1203 1.373 . S
C1205 C1189 1.377 . S
C1205 C1203 1.389 . S
C1205 C1206 1.524 . S
C1206 C1205 1.524 . S
C1206 C1207 1.397 . S
C1206 C1211 1.363 . S
C1207 H1178 0.950 . S
C1207 C1206 1.397 . S
C1207 C1208 1.334 . S
C1208 H1179 0.950 . S
C1208 C1207 1.334 . S
C1208 C1209 1.287 . S
C1209 C1208 1.287 . S
C1209 C1210 1.524 . S
C1209 H1212 0.999 . S
C1210 H1180 0.950 . S
C1210 C1209 1.524 . S
C1210 C1211 1.415 . S
C1211 H1181 0.950 . S
C1211 C1206 1.363 . S
C1211 C1210 1.415 . S
H1212 C1209 0.999 . S
H1213 C1194 0.913 . S
H1214 C1232 0.951 . S
H1215 C1234 0.951 . S
H1216 C1236 0.950 . S
H1217 C1237 0.950 . S
H1218 C1239 0.950 . S
H1219 C1242 0.950 . S
H1220 C1243 0.950 . S
H1221 C1245 0.950 . S
H1222 C1246 0.950 . S
H1223 C1247 0.951 . S
H1224 C1249 0.951 . S
H1225 C1251 0.950 . S
H1226 C1252 0.950 . S
H1227 C1254 0.950 . S
H1228 C1257 0.950 . S
H1229 C1258 0.950 . S
H1230 C1260 0.950 . S
H1231 C1261 0.950 . S
C1232 H1214 0.951 . S
C1232 C1233 1.366 . S
C1232 C1234 1.388 . S
C1233 C1232 1.366 . S
C1233 C1237 1.385 . S
C1234 H1215 0.951 . S
C1234 C1232 1.388 . S
C1234 C1235 1.366 . S
C1235 C1234 1.366 . S
C1235 C1236 1.414 . S
C1235 C1238 1.499 . S
C1236 H1216 0.950 . S
C1236 C1235 1.414 . S
C1236 C1237 1.374 . S
C1237 H1217 0.950 . S
C1237 C1233 1.385 . S
C1237 C1236 1.374 . S
C1238 C1235 1.499 . S
C1238 C1239 1.373 . S
C1238 C1240 1.389 . S
C1239 H1218 0.950 . S
C1239 C1238 1.373 . S
C1239 C1255 1.377 . S
C1240 C1238 1.389 . S
C1240 C1241 1.524 . S
C1240 C1254 1.377 . S
C1241 C1240 1.524 . S
C1241 C1242 1.397 . S
C1241 C1246 1.363 . S
C1242 H1219 0.950 . S
C1242 C1241 1.397 . S
C1242 C1243 1.334 . S
C1243 H1220 0.950 . S
C1243 C1242 1.334 . S
C1243 C1244 1.287 . S
C1244 C1243 1.287 . S
C1244 C1245 1.524 . S
C1244 H1263 0.913 . S
C1245 H1221 0.950 . S
C1245 C1244 1.524 . S
C1245 C1246 1.415 . S
C1246 H1222 0.950 . S
C1246 C1241 1.363 . S
C1246 C1245 1.415 . S
C1247 H1223 0.951 . S
C1247 C1248 1.366 . S
C1247 C1249 1.388 . S
C1248 C1247 1.366 . S
C1248 C1252 1.385 . S
C1249 H1224 0.951 . S
C1249 C1247 1.388 . S
C1249 C1250 1.366 . S
C1250 C1249 1.366 . S
C1250 C1251 1.414 . S
C1250 C1253 1.499 . S
C1251 H1225 0.950 . S
C1251 C1250 1.414 . S
C1251 C1252 1.374 . S
C1252 H1226 0.950 . S
C1252 C1248 1.385 . S
C1252 C1251 1.374 . S
C1253 C1250 1.499 . S
C1253 C1254 1.373 . S
C1253 C1255 1.389 . S
C1254 H1227 0.950 . S
C1254 C1240 1.377 . S
C1254 C1253 1.373 . S
C1255 C1239 1.377 . S
C1255 C1253 1.389 . S
C1255 C1256 1.524 . S
C1256 C1255 1.524 . S
C1256 C1257 1.397 . S
C1256 C1261 1.363 . S
C1257 H1228 0.950 . S
C1257 C1256 1.397 . S
C1257 C1258 1.334 . S
C1258 H1229 0.950 . S
C1258 C1257 1.334 . S
C1258 C1259 1.287 . S
C1259 C1258 1.287 . S
C1259 C1260 1.524 . S
C1259 H1262 0.999 . S
C1260 H1230 0.950 . S
C1260 C1259 1.524 . S
C1260 C1261 1.415 . S
C1261 H1231 0.950 . S
C1261 C1256 1.363 . S
C1261 C1260 1.415 . S
H1262 C1259 0.999 . S
H1263 C1244 0.913 . S
C283 N71 1.579 . S
C298 N14 1.574 . S
C333 N38 1.579 . S
C348 N113 1.574 . S
C383 N80 1.574 . S
C398 N5 1.579 . S
C433 N104 1.579 . S
C448 N47 1.574 . S
C483 N146 1.574 . S
C498 N203 1.579 . S
C533 N245 1.574 . S
C548 N170 1.579 . S
C583 N137 1.579 . S
C598 N212 1.574 . S
C633 N179 1.574 . S
C648 N236 1.579 . S
C683 C50 1.363 . S
C698 C17 1.363 . S
C733 C83 1.363 . S
C748 C116 1.363 . S
C783 C182 1.363 . S
C798 C149 1.363 . S
C833 C215 1.363 . S
C848 C248 1.363 . S
C883 C259 0.434 . S
C898 C8 0.423 . S
C933 C206 0.425 . S
C948 C61 0.435 . S
C983 C239 0.424 . S
C998 C28 0.436 . S
C1033 C41 0.425 . S
C1048 C226 0.436 . S
C1083 C193 0.436 . S
C1098 C74 0.424 . S
C1133 C127 0.434 . S
C1148 C140 0.424 . S
C1183 C173 0.425 . S
C1198 C94 0.434 . S
C1233 C107 0.423 . S
C1248 C160 0.435 . S
