# Generated by pormake.
# Topology wgq, (5)-cn, num edge types: 1
# Building blocks:
#     Node 0, Type 0, BuildingBlock: BEQFEK_clean_sbu_0, # of connection points: 5
#     Node 1, Type 0, BuildingBlock: BEQFEK_clean_sbu_0, # of connection points: 5
#     Node 2, Type 0, BuildingBlock: BEQFEK_clean_sbu_0, # of connection points: 5
#     Node 3, Type 0, BuildingBlock: BEQFEK_clean_sbu_0, # of connection points: 5
#     Node 4, Type 0, BuildingBlock: BEQFEK_clean_sbu_0, # of connection points: 5
#     Node 5, Type 0, BuildingBlock: BEQFEK_clean_sbu_0, # of connection points: 5
#     Node 6, Type 0, BuildingBlock: BEQFEK_clean_sbu_0, # of connection points: 5
#     Node 7, Type 0, BuildingBlock: BEQFEK_clean_sbu_0, # of connection points: 5
#     Node 8, Type 0, BuildingBlock: BEQFEK_clean_sbu_0, # of connection points: 5
#     Node 9, Type 0, BuildingBlock: BEQFEK_clean_sbu_0, # of connection points: 5
#     Node 10, Type 0, BuildingBlock: BEQFEK_clean_sbu_0, # of connection points: 5
#     Node 11, Type 0, BuildingBlock: BEQFEK_clean_sbu_0, # of connection points: 5
#     Node 12, Type 0, BuildingBlock: BEQFEK_clean_sbu_0, # of connection points: 5
#     Node 13, Type 0, BuildingBlock: BEQFEK_clean_sbu_0, # of connection points: 5
#     Node 14, Type 0, BuildingBlock: BEQFEK_clean_sbu_0, # of connection points: 5
#     Node 15, Type 0, BuildingBlock: BEQFEK_clean_sbu_0, # of connection points: 5
#     Node 16, Type 0, BuildingBlock: BEQFEK_clean_sbu_0, # of connection points: 5
#     Node 17, Type 0, BuildingBlock: BEQFEK_clean_sbu_0, # of connection points: 5
#     Node 18, Type 0, BuildingBlock: BEQFEK_clean_sbu_0, # of connection points: 5
#     Node 19, Type 0, BuildingBlock: BEQFEK_clean_sbu_0, # of connection points: 5
#     Node 20, Type 0, BuildingBlock: BEQFEK_clean_sbu_0, # of connection points: 5
#     Node 21, Type 0, BuildingBlock: BEQFEK_clean_sbu_0, # of connection points: 5
#     Node 22, Type 0, BuildingBlock: BEQFEK_clean_sbu_0, # of connection points: 5
#     Node 23, Type 0, BuildingBlock: BEQFEK_clean_sbu_0, # of connection points: 5
#     Node 24, Type 0, BuildingBlock: BEQFEK_clean_sbu_0, # of connection points: 5
#     Node 25, Type 0, BuildingBlock: BEQFEK_clean_sbu_0, # of connection points: 5
#     Node 26, Type 0, BuildingBlock: BEQFEK_clean_sbu_0, # of connection points: 5
#     Node 27, Type 0, BuildingBlock: BEQFEK_clean_sbu_0, # of connection points: 5
#     Node 28, Type 0, BuildingBlock: BEQFEK_clean_sbu_0, # of connection points: 5
#     Node 29, Type 0, BuildingBlock: BEQFEK_clean_sbu_0, # of connection points: 5
#     Node 30, Type 0, BuildingBlock: BEQFEK_clean_sbu_0, # of connection points: 5
#     Node 31, Type 0, BuildingBlock: BEQFEK_clean_sbu_0, # of connection points: 5
#     Edge 32, Type (0, 0), BuildingBlock: TEMPAE_clean_linker_10, # of connection points: 2
#     Edge 33, Type (0, 0), BuildingBlock: TEMPAE_clean_linker_10, # of connection points: 2
#     Edge 34, Type (0, 0), BuildingBlock: TEMPAE_clean_linker_10, # of connection points: 2
#     Edge 35, Type (0, 0), BuildingBlock: TEMPAE_clean_linker_10, # of connection points: 2
#     Edge 36, Type (0, 0), BuildingBlock: TEMPAE_clean_linker_10, # of connection points: 2
#     Edge 37, Type (0, 0), BuildingBlock: TEMPAE_clean_linker_10, # of connection points: 2
#     Edge 38, Type (0, 0), BuildingBlock: TEMPAE_clean_linker_10, # of connection points: 2
#     Edge 39, Type (0, 0), BuildingBlock: TEMPAE_clean_linker_10, # of connection points: 2
#     Edge 40, Type (0, 0), BuildingBlock: TEMPAE_clean_linker_10, # of connection points: 2
#     Edge 41, Type (0, 0), BuildingBlock: TEMPAE_clean_linker_10, # of connection points: 2
#     Edge 42, Type (0, 0), BuildingBlock: TEMPAE_clean_linker_10, # of connection points: 2
#     Edge 43, Type (0, 0), BuildingBlock: TEMPAE_clean_linker_10, # of connection points: 2
#     Edge 44, Type (0, 0), BuildingBlock: TEMPAE_clean_linker_10, # of connection points: 2
#     Edge 45, Type (0, 0), BuildingBlock: TEMPAE_clean_linker_10, # of connection points: 2
#     Edge 46, Type (0, 0), BuildingBlock: TEMPAE_clean_linker_10, # of connection points: 2
#     Edge 47, Type (0, 0), BuildingBlock: TEMPAE_clean_linker_10, # of connection points: 2
#     Edge 48, Type (0, 0), BuildingBlock: TEMPAE_clean_linker_10, # of connection points: 2
#     Edge 49, Type (0, 0), BuildingBlock: TEMPAE_clean_linker_10, # of connection points: 2
#     Edge 50, Type (0, 0), BuildingBlock: TEMPAE_clean_linker_10, # of connection points: 2
#     Edge 51, Type (0, 0), BuildingBlock: TEMPAE_clean_linker_10, # of connection points: 2
#     Edge 52, Type (0, 0), BuildingBlock: TEMPAE_clean_linker_10, # of connection points: 2
#     Edge 53, Type (0, 0), BuildingBlock: TEMPAE_clean_linker_10, # of connection points: 2
#     Edge 54, Type (0, 0), BuildingBlock: TEMPAE_clean_linker_10, # of connection points: 2
#     Edge 55, Type (0, 0), BuildingBlock: TEMPAE_clean_linker_10, # of connection points: 2
#     Edge 56, Type (0, 0), BuildingBlock: TEMPAE_clean_linker_10, # of connection points: 2
#     Edge 57, Type (0, 0), BuildingBlock: TEMPAE_clean_linker_10, # of connection points: 2
#     Edge 58, Type (0, 0), BuildingBlock: TEMPAE_clean_linker_10, # of connection points: 2
#     Edge 59, Type (0, 0), BuildingBlock: TEMPAE_clean_linker_10, # of connection points: 2
#     Edge 60, Type (0, 0), BuildingBlock: TEMPAE_clean_linker_10, # of connection points: 2
#     Edge 61, Type (0, 0), BuildingBlock: TEMPAE_clean_linker_10, # of connection points: 2
#     Edge 62, Type (0, 0), BuildingBlock: TEMPAE_clean_linker_10, # of connection points: 2
#     Edge 63, Type (0, 0), BuildingBlock: TEMPAE_clean_linker_10, # of connection points: 2
#     Edge 64, Type (0, 0), BuildingBlock: TEMPAE_clean_linker_10, # of connection points: 2
#     Edge 65, Type (0, 0), BuildingBlock: TEMPAE_clean_linker_10, # of connection points: 2
#     Edge 66, Type (0, 0), BuildingBlock: TEMPAE_clean_linker_10, # of connection points: 2
#     Edge 67, Type (0, 0), BuildingBlock: TEMPAE_clean_linker_10, # of connection points: 2
#     Edge 68, Type (0, 0), BuildingBlock: TEMPAE_clean_linker_10, # of connection points: 2
#     Edge 69, Type (0, 0), BuildingBlock: TEMPAE_clean_linker_10, # of connection points: 2
#     Edge 70, Type (0, 0), BuildingBlock: TEMPAE_clean_linker_10, # of connection points: 2
#     Edge 71, Type (0, 0), BuildingBlock: TEMPAE_clean_linker_10, # of connection points: 2
#     Edge 72, Type (0, 0), BuildingBlock: TEMPAE_clean_linker_10, # of connection points: 2
#     Edge 73, Type (0, 0), BuildingBlock: TEMPAE_clean_linker_10, # of connection points: 2
#     Edge 74, Type (0, 0), BuildingBlock: TEMPAE_clean_linker_10, # of connection points: 2
#     Edge 75, Type (0, 0), BuildingBlock: TEMPAE_clean_linker_10, # of connection points: 2
#     Edge 76, Type (0, 0), BuildingBlock: TEMPAE_clean_linker_10, # of connection points: 2
#     Edge 77, Type (0, 0), BuildingBlock: TEMPAE_clean_linker_10, # of connection points: 2
#     Edge 78, Type (0, 0), BuildingBlock: TEMPAE_clean_linker_10, # of connection points: 2
#     Edge 79, Type (0, 0), BuildingBlock: TEMPAE_clean_linker_10, # of connection points: 2
#     Edge 80, Type (0, 0), BuildingBlock: TEMPAE_clean_linker_10, # of connection points: 2
#     Edge 81, Type (0, 0), BuildingBlock: TEMPAE_clean_linker_10, # of connection points: 2
#     Edge 82, Type (0, 0), BuildingBlock: TEMPAE_clean_linker_10, # of connection points: 2
#     Edge 83, Type (0, 0), BuildingBlock: TEMPAE_clean_linker_10, # of connection points: 2
#     Edge 84, Type (0, 0), BuildingBlock: TEMPAE_clean_linker_10, # of connection points: 2
#     Edge 85, Type (0, 0), BuildingBlock: TEMPAE_clean_linker_10, # of connection points: 2
#     Edge 86, Type (0, 0), BuildingBlock: TEMPAE_clean_linker_10, # of connection points: 2
#     Edge 87, Type (0, 0), BuildingBlock: TEMPAE_clean_linker_10, # of connection points: 2
#     Edge 88, Type (0, 0), BuildingBlock: TEMPAE_clean_linker_10, # of connection points: 2
#     Edge 89, Type (0, 0), BuildingBlock: TEMPAE_clean_linker_10, # of connection points: 2
#     Edge 90, Type (0, 0), BuildingBlock: TEMPAE_clean_linker_10, # of connection points: 2
#     Edge 91, Type (0, 0), BuildingBlock: TEMPAE_clean_linker_10, # of connection points: 2
#     Edge 92, Type (0, 0), BuildingBlock: TEMPAE_clean_linker_10, # of connection points: 2
#     Edge 93, Type (0, 0), BuildingBlock: TEMPAE_clean_linker_10, # of connection points: 2
#     Edge 94, Type (0, 0), BuildingBlock: TEMPAE_clean_linker_10, # of connection points: 2
#     Edge 95, Type (0, 0), BuildingBlock: TEMPAE_clean_linker_10, # of connection points: 2
#     Edge 96, Type (0, 0), BuildingBlock: TEMPAE_clean_linker_10, # of connection points: 2
#     Edge 97, Type (0, 0), BuildingBlock: TEMPAE_clean_linker_10, # of connection points: 2
#     Edge 98, Type (0, 0), BuildingBlock: TEMPAE_clean_linker_10, # of connection points: 2
#     Edge 99, Type (0, 0), BuildingBlock: TEMPAE_clean_linker_10, # of connection points: 2
#     Edge 100, Type (0, 0), BuildingBlock: TEMPAE_clean_linker_10, # of connection points: 2
#     Edge 101, Type (0, 0), BuildingBlock: TEMPAE_clean_linker_10, # of connection points: 2
#     Edge 102, Type (0, 0), BuildingBlock: TEMPAE_clean_linker_10, # of connection points: 2
#     Edge 103, Type (0, 0), BuildingBlock: TEMPAE_clean_linker_10, # of connection points: 2
#     Edge 104, Type (0, 0), BuildingBlock: TEMPAE_clean_linker_10, # of connection points: 2
#     Edge 105, Type (0, 0), BuildingBlock: TEMPAE_clean_linker_10, # of connection points: 2
#     Edge 106, Type (0, 0), BuildingBlock: TEMPAE_clean_linker_10, # of connection points: 2
#     Edge 107, Type (0, 0), BuildingBlock: TEMPAE_clean_linker_10, # of connection points: 2
#     Edge 108, Type (0, 0), BuildingBlock: TEMPAE_clean_linker_10, # of connection points: 2
#     Edge 109, Type (0, 0), BuildingBlock: TEMPAE_clean_linker_10, # of connection points: 2
#     Edge 110, Type (0, 0), BuildingBlock: TEMPAE_clean_linker_10, # of connection points: 2
#     Edge 111, Type (0, 0), BuildingBlock: TEMPAE_clean_linker_10, # of connection points: 2
# Relax obj value: 0.087
# Max RMSD: 0.133
# Mean RMSD: 0.133
data_MOF--net-wgq--node1-BEQFEK_clean_sbu_0--edge1-TEMPAE_clean_linker_10
_symmetry_space_group_name_H-M    P1
_symmetry_Int_Tables_number       1
_symmetry_cell_setting            triclinic
loop_
_symmetry_equiv_pos_as_xyz
'x, y, z'
_cell_length_a     30.926715
_cell_length_b     30.925612
_cell_length_c     155.60159
_cell_angle_alpha  89.99826
_cell_angle_beta   89.992619
_cell_angle_gamma 90.006267
loop_
_atom_site_label
_atom_site_type_symbol
_atom_site_fract_x
_atom_site_fract_y
_atom_site_fract_z
_atom_type_partial_charge
Co0 Co 0.1587 0.0555 0.17314 0.0
Co1 Co 0.15664 0.07646 0.19286 0.0
C2 C 0.09879 0.00829 0.18443 0.0
O3 O 0.11662 0.01139 0.17705 0.0
O4 O 0.11189 0.03097 0.19078 0.0
C5 C 0.16729 0.02017 0.15555 0.0
O6 O 0.15332 0.98272 0.15841 0.0
C7 C 0.16108 0.05697 0.2113 0.0
C8 C 0.17145 0.12188 0.21687 0.0
C9 C 0.16638 0.07871 0.21906 0.0
N10 N 0.16272 0.08603 0.20489 0.0
N11 N 0.1688 0.12477 0.20826 0.0
C12 C 0.15759 0.00929 0.20982 0.0
H13 H 0.16965 1.00093 0.20331 0.0
H14 H 0.1762 0.99116 0.21474 0.0
H15 H 0.12311 0.99957 0.21022 0.0
C16 C 0.2525 0.04832 0.17693 0.0
N17 N 0.21129 0.05472 0.17944 0.0
N18 N 0.21071 0.06375 0.1877 0.0
C19 C 0.25165 0.06376 0.1907 0.0
C20 C 0.27954 0.05397 0.18397 0.0
C21 C 0.26566 0.03981 0.16783 0.0
H22 H 0.25391 0.06653 0.16368 0.0
H23 H 0.2502 0.00947 0.16558 0.0
H24 H 0.30124 0.03716 0.16712 0.0
O25 O 0.12718 0.1107 0.17436 0.0
O26 O 0.13175 0.1298 0.18807 0.0
H27 H 0.25335 0.10556 0.20163 0.0
H28 H 0.29884 0.06885 0.20097 0.0
C29 C 0.2636 0.07237 0.19986 0.0
H30 H 0.24616 0.04937 0.20408 0.0
H31 H 0.17129 0.15317 0.20467 0.0
O32 O 0.17118 0.05174 0.16071 0.0
C33 C 0.11913 0.13697 0.18043 0.0
Co34 Co 0.18169 0.90077 0.42361 0.0
Co35 Co 0.19578 0.89607 0.44353 0.0
C36 C 0.24583 0.83905 0.43222 0.0
O37 O 0.22544 0.85422 0.42574 0.0
O38 O 0.2407 0.855 0.4397 0.0
C39 C 0.21132 0.9152 0.4063 0.0
O40 O 0.24994 0.91013 0.40967 0.0
C41 C 0.22892 0.89937 0.46131 0.0
C42 C 0.16814 0.90993 0.46851 0.0
C43 C 0.2122 0.90411 0.46954 0.0
N44 N 0.19608 0.9025 0.45569 0.0
N45 N 0.15993 0.90893 0.46003 0.0
C46 C 0.27425 0.88826 0.45877 0.0
H47 H 0.27458 0.85534 0.45594 0.0
H48 H 0.28544 0.91101 0.45372 0.0
H49 H 0.29675 0.8889 0.46431 0.0
C50 C 0.19235 0.99449 0.42724 0.0
N51 N 0.1925 0.95271 0.42972 0.0
N52 N 0.19954 0.95077 0.43805 0.0
C53 C 0.20498 0.99126 0.4411 0.0
C54 C 0.20039 0.02023 0.43436 0.0
C55 C 0.18387 0.00941 0.41826 0.0
H56 H 0.21187 1.00068 0.41415 0.0
H57 H 0.17903 0.04493 0.41795 0.0
H58 H 0.1549 0.9927 0.41567 0.0
O59 O 0.12606 0.87522 0.42707 0.0
O60 O 0.14068 0.86638 0.44092 0.0
H61 H 0.18299 0.99316 0.4541 0.0
H62 H 0.21872 0.0371 0.45127 0.0
C63 C 0.21216 0.00211 0.45036 0.0
H64 H 0.23978 0.98305 0.45286 0.0
H65 H 0.12951 0.91206 0.4572 0.0
O66 O 0.17827 0.91252 0.41112 0.0
C67 C 0.1163 0.86045 0.43445 0.0
Co68 Co 0.34915 0.93994 0.67089 0.0
Co69 Co 0.35138 0.94758 0.69087 0.0
C70 C 0.40965 0.0015 0.68082 0.0
O71 O 0.39558 0.98306 0.67401 0.0
O72 O 0.39232 0.99427 0.68811 0.0
C73 C 0.32519 0.97329 0.65417 0.0
O74 O 0.31732 0.00972 0.65823 0.0
C75 C 0.35206 0.96846 0.70938 0.0
C76 C 0.3204 0.91013 0.71469 0.0
C77 C 0.33852 0.94937 0.71698 0.0
N78 N 0.34239 0.94155 0.70288 0.0
N79 N 0.32383 0.90665 0.70611 0.0
C80 C 0.37131 0.01244 0.7082 0.0
H81 H 0.35818 0.02761 0.70229 0.0
H82 H 0.36456 0.03355 0.71381 0.0
H83 H 0.40684 0.00922 0.70742 0.0
C84 C 0.25411 0.94759 0.67429 0.0
N85 N 0.29587 0.94763 0.67685 0.0
N86 N 0.29727 0.95367 0.68521 0.0
C87 C 0.25665 0.95961 0.68816 0.0
C88 C 0.22802 0.95555 0.68136 0.0
C89 C 0.23912 0.93873 0.66532 0.0
H90 H 0.23922 0.96938 0.66162 0.0
H91 H 0.20564 0.92581 0.66529 0.0
H92 H 0.26104 0.91531 0.66214 0.0
O93 O 0.37465 0.88331 0.67352 0.0
O94 O 0.38288 0.89445 0.68751 0.0
H95 H 0.21288 0.98313 0.69792 0.0
H96 H 0.26985 0.98875 0.7004 0.0
C97 C 0.24517 0.96772 0.69736 0.0
H98 H 0.24421 0.93645 0.70084 0.0
H99 H 0.31302 0.88062 0.70242 0.0
O100 O 0.33928 0.94099 0.65836 0.0
C101 C 0.38958 0.87203 0.68079 0.0
Co102 Co 0.31087 0.09428 0.92216 0.0
Co103 Co 0.3022 0.09634 0.94221 0.0
C104 C 0.24838 0.1542 0.93169 0.0
O105 O 0.26719 0.14006 0.92493 0.0
O106 O 0.25561 0.13732 0.93903 0.0
C107 C 0.27959 0.08204 0.90477 0.0
O108 O 0.24083 0.08731 0.90807 0.0
C109 C 0.28403 0.10445 0.96089 0.0
C110 C 0.33427 0.061 0.96614 0.0
C111 C 0.30036 0.08764 0.96854 0.0
N112 N 0.30668 0.08747 0.95432 0.0
N113 N 0.33705 0.06214 0.95753 0.0
C114 C 0.25109 0.13949 0.95981 0.0
H115 H 0.21959 0.12483 0.95803 0.0
H116 H 0.24725 0.15871 0.96578 0.0
H117 H 0.26112 0.16158 0.95457 0.0
C118 C 0.29909 1.00016 0.92525 0.0
N119 N 0.30141 0.0414 0.92804 0.0
N120 N 0.29694 0.04202 0.93645 0.0
C121 C 0.29087 1.00106 0.93924 0.0
C122 C 0.29253 0.97325 0.93225 0.0
C123 C 0.30509 0.98663 0.9161 0.0
H124 H 0.33313 0.00393 0.91328 0.0
H125 H 0.27583 0.99554 0.91237 0.0
H126 H 0.31028 0.95123 0.91555 0.0
O127 O 0.36714 0.11988 0.92517 0.0
O128 O 0.35575 0.12753 0.93916 0.0
H129 H 0.31218 0.98169 0.95171 0.0
H130 H 0.2615 0.95855 0.94853 0.0
C131 C 0.28136 0.98844 0.94833 0.0
H132 H 0.26395 0.01479 0.95169 0.0
H133 H 0.3598 0.04566 0.95382 0.0
O134 O 0.31245 0.08406 0.90964 0.0
C135 C 0.37837 0.13437 0.93248 0.0
Co136 Co 0.15691 0.93099 0.32524 0.0
Co137 Co 0.15658 0.94305 0.30522 0.0
C138 C 0.09727 0.99452 0.31598 0.0
O139 O 0.11158 0.97529 0.32266 0.0
O140 O 0.11398 0.98779 0.3086 0.0
C141 C 0.16802 0.96092 0.34265 0.0
O142 O 0.16444 0.99959 0.33923 0.0
C143 C 0.16294 0.97427 0.28728 0.0
C144 C 0.18016 0.91356 0.28061 0.0
C145 C 0.17181 0.957 0.2792 0.0
N146 N 0.16583 0.94233 0.29312 0.0
N147 N 0.17602 0.90618 0.28908 0.0
C148 C 0.15442 0.02045 0.28958 0.0
H149 H 0.1649 0.02693 0.29628 0.0
H150 H 0.17153 0.04257 0.28511 0.0
H151 H 0.11916 0.02677 0.28915 0.0
C152 C 0.25137 0.94245 0.32244 0.0
N153 N 0.21024 0.94135 0.31956 0.0
N154 N 0.21013 0.94766 0.3112 0.0
C155 C 0.25118 0.95385 0.30852 0.0
C156 C 0.27873 0.9505 0.31554 0.0
C157 C 0.26396 0.9366 0.33165 0.0
H158 H 0.24793 0.90737 0.33429 0.0
H159 H 0.25266 0.96495 0.33539 0.0
H160 H 0.29946 0.93373 0.33245 0.0
O161 O 0.13147 0.87533 0.32168 0.0
O162 O 0.12664 0.88794 0.30767 0.0
H163 H 0.25614 0.93081 0.29562 0.0
H164 H 0.29891 0.96732 0.29865 0.0
C165 C 0.26389 0.96042 0.29933 0.0
H166 H 0.24495 0.98753 0.29658 0.0
H167 H 0.18022 0.87641 0.29212 0.0
O168 O 0.16581 0.92785 0.33782 0.0
C169 C 0.1188 0.86449 0.31421 0.0
Co170 Co 0.30546 0.90754 0.57448 0.0
Co171 Co 0.33233 0.90156 0.55514 0.0
C172 C 0.26373 0.84312 0.56337 0.0
O173 O 0.26412 0.86266 0.5706 0.0
O174 O 0.28786 0.85559 0.55719 0.0
C175 C 0.26604 0.91574 0.59172 0.0
O176 O 0.23262 0.8934 0.58899 0.0
C177 C 0.31652 0.90748 0.53656 0.0
C178 C 0.38281 0.90247 0.53134 0.0
C179 C 0.33986 0.90637 0.52894 0.0
N180 N 0.34446 0.90476 0.54315 0.0
N181 N 0.38403 0.90195 0.53998 0.0
C182 C 0.26839 0.90803 0.53758 0.0
H183 H 0.25319 0.8856 0.5329 0.0
H184 H 0.25898 0.89907 0.54421 0.0
H185 H 0.25604 0.94103 0.53626 0.0
C186 C 0.29613 0.99992 0.56975 0.0
N187 N 0.30442 0.95844 0.56766 0.0
N188 N 0.31667 0.95652 0.55958 0.0
C189 C 0.31736 0.99694 0.5563 0.0
C190 C 0.30412 0.02581 0.56263 0.0
C191 C 0.28415 0.01457 0.5786 0.0
H192 H 0.25471 0.99711 0.58074 0.0
H193 H 0.27836 0.04992 0.57891 0.0
H194 H 0.31071 0.0063 0.5831 0.0
O195 O 0.36254 0.87851 0.57429 0.0
O196 O 0.38501 0.87989 0.56075 0.0
H197 H 0.36207 0.99188 0.54584 0.0
H198 H 0.33329 0.0429 0.54624 0.0
C199 C 0.33065 0.00755 0.54729 0.0
H200 H 0.30623 0.9945 0.54278 0.0
H201 H 0.41186 0.89893 0.54373 0.0
O202 O 0.2971 0.92371 0.58662 0.0
C203 C 0.39076 0.86985 0.56859 0.0
Co204 Co 0.34635 0.06997 0.82424 0.0
Co205 Co 0.34628 0.05577 0.80439 0.0
C206 C 0.40653 0.00609 0.81485 0.0
O207 O 0.39299 0.02676 0.82144 0.0
O208 O 0.3883 0.01051 0.80755 0.0
C209 C 0.33125 0.03859 0.84137 0.0
O210 O 0.33102 1.00034 0.8377 0.0
C211 C 0.35373 0.03729 0.78575 0.0
C212 C 0.30582 0.08364 0.78062 0.0
C213 C 0.33506 0.05206 0.77816 0.0
N214 N 0.33542 0.05858 0.79235 0.0
N215 N 0.30735 0.08663 0.78922 0.0
C216 C 0.39143 0.00733 0.78674 0.0
H217 H 0.41263 0.01867 0.79202 0.0
H218 H 0.37945 0.97456 0.78841 0.0
H219 H 0.41081 0.00557 0.78075 0.0
C220 C 0.25163 0.05847 0.82159 0.0
N221 N 0.29278 0.05902 0.81869 0.0
N222 N 0.29298 0.04981 0.81045 0.0
C223 C 0.2521 0.04086 0.80794 0.0
C224 C 0.22455 0.04675 0.81488 0.0
C225 C 0.23847 0.06902 0.8306 0.0
H226 H 0.25824 0.0962 0.83308 0.0
H227 H 0.24416 0.04035 0.83472 0.0
H228 H 0.20367 0.07754 0.83097 0.0
O229 O 0.37016 0.1261 0.82078 0.0
O230 O 0.37677 0.11075 0.80693 0.0
H231 H 0.22889 0.05595 0.79537 0.0
H232 H 0.21132 0.00458 0.79935 0.0
C233 C 0.23918 0.02714 0.79909 0.0
H234 H 0.26654 0.01113 0.79576 0.0
H235 H 0.28941 0.10808 0.79297 0.0
O236 O 0.33769 0.07198 0.8368 0.0
C237 C 0.38384 0.13548 0.81331 0.0
Co238 Co 0.17635 0.10262 0.07563 0.0
Co239 Co 0.1856 0.10278 0.05558 0.0
C240 C 0.23758 0.16325 0.06586 0.0
O241 O 0.21955 0.14891 0.07268 0.0
O242 O 0.23015 0.14604 0.05856 0.0
C243 C 0.20941 0.08469 0.09258 0.0
O244 O 0.24705 0.08256 0.08868 0.0
C245 C 0.21027 0.10278 0.03721 0.0
C246 C 0.15432 0.06845 0.03156 0.0
C247 C 0.19328 0.08785 0.02951 0.0
N248 N 0.18249 0.09258 0.04354 0.0
N249 N 0.14898 0.07245 0.0401 0.0
C250 C 0.25304 0.12418 0.03863 0.0
H251 H 0.26769 0.11228 0.04469 0.0
H252 H 0.27544 0.118 0.0332 0.0
H253 H 0.24799 0.15957 0.03925 0.0
C254 C 0.18705 0.00777 0.07271 0.0
N255 N 0.18609 0.04908 0.0699 0.0
N256 N 0.19254 0.04947 0.06155 0.0
C257 C 0.19955 0.00857 0.05884 0.0
C258 C 0.19584 0.98077 0.0658 0.0
C259 C 0.1796 0.99435 0.08183 0.0
H260 H 0.20965 0.99986 0.08556 0.0
H261 H 0.17122 0.95958 0.08232 0.0
H262 H 0.15333 0.01402 0.0847 0.0
O263 O 0.1198 0.12723 0.07248 0.0
O264 O 0.13043 0.13185 0.05841 0.0
H265 H 0.22306 0.96381 0.04922 0.0
H266 H 0.2283 0.02046 0.04651 0.0
C267 C 0.2075 0.99602 0.04969 0.0
H268 H 0.17614 0.99448 0.04625 0.0
H269 H 0.12263 0.06101 0.04362 0.0
O270 O 0.17582 0.09343 0.08821 0.0
C271 C 0.10778 0.1396 0.06506 0.0
Co272 Co 0.84348 0.93895 0.82451 0.0
Co273 Co 0.84909 0.92951 0.80439 0.0
C274 C 0.90582 0.99182 0.81449 0.0
O275 O 0.88716 0.98362 0.82162 0.0
O276 O 0.89339 0.97398 0.80751 0.0
C277 C 0.8292 0.97196 0.84194 0.0
O278 O 0.84018 0.01015 0.83895 0.0
C279 C 0.84244 0.95567 0.7861 0.0
C280 C 0.84623 0.89206 0.77967 0.0
C281 C 0.84311 0.93598 0.77806 0.0
N282 N 0.84489 0.92467 0.79215 0.0
N283 N 0.8469 0.88676 0.78825 0.0
C284 C 0.84248 0.00309 0.788 0.0
H285 H 0.85273 0.00928 0.79471 0.0
H286 H 0.8093 0.01604 0.78717 0.0
H287 H 0.86412 0.02037 0.78346 0.0
C288 C 0.75028 0.94653 0.82031 0.0
N289 N 0.79199 0.94284 0.8179 0.0
N290 N 0.79392 0.93947 0.80948 0.0
C291 C 0.75334 0.94116 0.80627 0.0
C292 C 0.72438 0.94557 0.81304 0.0
C293 C 0.73564 0.95118 0.82943 0.0
H294 H 0.75132 0.97999 0.83231 0.0
H295 H 0.70005 0.9549 0.82992 0.0
H296 H 0.74589 0.92236 0.83316 0.0
O297 O 0.87407 0.88389 0.8226 0.0
O298 O 0.87438 0.87431 0.80846 0.0
H299 H 0.75886 0.90681 0.79438 0.0
H300 H 0.70693 0.93259 0.79599 0.0
C301 C 0.74232 0.93583 0.79697 0.0
H302 H 0.75409 0.96439 0.79336 0.0
H303 H 0.84951 0.85723 0.79145 0.0
O304 O 0.82903 0.93959 0.83691 0.0
C305 C 0.88441 0.86194 0.816 0.0
Co306 Co 0.80634 0.09826 0.57497 0.0
Co307 Co 0.82424 0.10107 0.55517 0.0
C308 C 0.75832 0.15963 0.56403 0.0
O309 O 0.76271 0.14166 0.57137 0.0
O310 O 0.77962 0.14637 0.55752 0.0
C311 C 0.7701 0.08315 0.59226 0.0
O312 O 0.73134 0.08911 0.58901 0.0
C313 C 0.80018 0.09684 0.53699 0.0
C314 C 0.86325 0.08576 0.5307 0.0
C315 C 0.81954 0.09104 0.52901 0.0
N316 N 0.83104 0.09523 0.54306 0.0
N317 N 0.8687 0.08878 0.53926 0.0
C318 C 0.753 0.10052 0.539 0.0
H319 H 0.74643 0.08846 0.54559 0.0
H320 H 0.73341 0.08201 0.53429 0.0
H321 H 0.74334 0.13504 0.53871 0.0
C322 C 0.79667 0.00445 0.57104 0.0
N323 N 0.80352 0.04576 0.5686 0.0
N324 N 0.81131 0.04672 0.5603 0.0
C325 C 0.80992 0.00597 0.55719 0.0
C326 C 0.80052 0.97777 0.56389 0.0
C327 C 0.78936 0.9906 0.58014 0.0
H328 H 0.75791 0.00357 0.5824 0.0
H329 H 0.7893 0.95489 0.58081 0.0
H330 H 0.81518 0.00416 0.58429 0.0
O331 O 0.86249 0.12804 0.57355 0.0
O332 O 0.87886 0.12517 0.55968 0.0
H333 H 0.84948 0.00497 0.54593 0.0
H334 H 0.81315 0.95926 0.5468 0.0
C335 C 0.81673 0.99446 0.54795 0.0
H336 H 0.79277 0.01191 0.54395 0.0
H337 H 0.89806 0.08612 0.54252 0.0
O338 O 0.80303 0.08595 0.58741 0.0
C339 C 0.88784 0.13649 0.56733 0.0
Co340 Co 0.65672 0.07536 0.32545 0.0
Co341 Co 0.65806 0.05951 0.30552 0.0
C342 C 0.59674 0.01112 0.31634 0.0
O343 O 0.61071 0.03133 0.32294 0.0
O344 O 0.61431 0.01623 0.30899 0.0
C345 C 0.66976 0.04661 0.34282 0.0
O346 O 0.66832 0.00793 0.33934 0.0
C347 C 0.65809 0.02889 0.28748 0.0
C348 C 0.69799 0.07954 0.28132 0.0
C349 C 0.67581 0.04162 0.2797 0.0
N350 N 0.6696 0.05795 0.29349 0.0
N351 N 0.69296 0.08838 0.28973 0.0
C352 C 0.63197 0.98921 0.28925 0.0
H353 H 0.64501 0.97248 0.295 0.0
H354 H 0.63208 0.96681 0.28368 0.0
H355 H 0.59819 0.99886 0.29069 0.0
C356 C 0.75141 0.06269 0.32304 0.0
N357 N 0.71047 0.06333 0.32004 0.0
N358 N 0.71084 0.05414 0.31178 0.0
C359 C 0.75193 0.04564 0.30936 0.0
C360 C 0.77903 0.05132 0.31639 0.0
C361 C 0.76376 0.07251 0.33213 0.0
H362 H 0.75542 0.04438 0.33623 0.0
H363 H 0.79892 0.07874 0.33278 0.0
H364 H 0.74537 0.10097 0.33447 0.0
O365 O 0.63264 0.13078 0.32144 0.0
O366 O 0.62903 0.11582 0.30751 0.0
H367 H 0.76972 0.06417 0.29663 0.0
H368 H 0.79661 0.01644 0.30037 0.0
C369 C 0.76542 0.03409 0.30041 0.0
H370 H 0.74033 0.01383 0.29731 0.0
H371 H 0.706 0.11495 0.29295 0.0
O372 O 0.66502 0.07964 0.33805 0.0
C373 C 0.62094 0.14054 0.31384 0.0
Co374 Co 0.67598 0.91113 0.07491 0.0
Co375 Co 0.69054 0.91121 0.05492 0.0
C376 C 0.73996 0.85106 0.06583 0.0
O377 O 0.72017 0.86559 0.07243 0.0
O378 O 0.73415 0.86778 0.05843 0.0
C379 C 0.70622 0.92817 0.09199 0.0
O380 O 0.74404 0.93074 0.08817 0.0
C381 C 0.72101 0.9105 0.03682 0.0
C382 C 0.66951 0.94886 0.03058 0.0
C383 C 0.70785 0.92731 0.02898 0.0
N384 N 0.69178 0.92187 0.04282 0.0
N385 N 0.66087 0.94433 0.039 0.0
C386 C 0.76151 0.88583 0.03869 0.0
H387 H 0.77671 0.89848 0.04464 0.0
H388 H 0.78481 0.88798 0.03328 0.0
H389 H 0.75315 0.85139 0.0398 0.0
C390 C 0.68698 0.00569 0.07223 0.0
N391 N 0.687 0.96456 0.06933 0.0
N392 N 0.69578 0.96452 0.06106 0.0
C393 C 0.70344 0.00561 0.05852 0.0
C394 C 0.69758 0.03305 0.06549 0.0
C395 C 0.67704 0.01856 0.08129 0.0
H396 H 0.70614 0.01316 0.08531 0.0
H397 H 0.66822 0.0532 0.08178 0.0
H398 H 0.65025 0.9985 0.08385 0.0
O399 O 0.62062 0.88641 0.07111 0.0
O400 O 0.63432 0.88207 0.05712 0.0
H401 H 0.6838 0.02203 0.04579 0.0
H402 H 0.73106 0.05036 0.04935 0.0
C403 C 0.71418 0.01875 0.04951 0.0
H404 H 0.73484 0.99391 0.04643 0.0
H405 H 0.63409 0.95711 0.0422 0.0
O406 O 0.6729 0.91968 0.08752 0.0
C407 C 0.6102 0.87427 0.06358 0.0
Co408 Co 0.84745 0.06323 0.67222 0.0
Co409 Co 0.85245 0.07325 0.69231 0.0
C410 C 0.90952 0.01063 0.68237 0.0
O411 O 0.891 0.01864 0.67522 0.0
O412 O 0.89695 0.02871 0.68931 0.0
C413 C 0.8302 0.02909 0.655 0.0
O414 O 0.83592 0.99036 0.65828 0.0
C415 C 0.84495 0.04727 0.71059 0.0
C416 C 0.84865 0.11089 0.71702 0.0
C417 C 0.84527 0.06697 0.71863 0.0
N418 N 0.84781 0.07824 0.70454 0.0
N419 N 0.84978 0.11616 0.70844 0.0
C420 C 0.84489 0.99984 0.7087 0.0
H421 H 0.85549 0.9936 0.70201 0.0
H422 H 0.81163 0.98701 0.70945 0.0
H423 H 0.86622 0.98249 0.71328 0.0
C424 C 0.75393 0.05639 0.67629 0.0
N425 N 0.79562 0.05964 0.67875 0.0
N426 N 0.79735 0.06312 0.68717 0.0
C427 C 0.75665 0.06183 0.69033 0.0
C428 C 0.72786 0.05758 0.68353 0.0
C429 C 0.73932 0.05245 0.66716 0.0
H430 H 0.75249 0.02217 0.66439 0.0
H431 H 0.70356 0.05174 0.66662 0.0
H432 H 0.75212 0.08003 0.66337 0.0
O433 O 0.87773 0.11846 0.67408 0.0
O434 O 0.87778 0.12849 0.68821 0.0
H435 H 0.76171 0.09662 0.70218 0.0
H436 H 0.70991 0.07054 0.70055 0.0
C437 C 0.74536 0.06744 0.69961 0.0
H438 H 0.75714 0.03906 0.70328 0.0
H439 H 0.85265 0.14568 0.70524 0.0
O440 O 0.83394 0.0621 0.6598 0.0
C441 C 0.88785 0.14069 0.68066 0.0
Co442 Co 0.69171 0.09845 0.42382 0.0
Co443 Co 0.67714 0.0973 0.44379 0.0
C444 C 0.74107 0.1579 0.43496 0.0
O445 O 0.73604 0.14119 0.42752 0.0
O446 O 0.72064 0.1433 0.44147 0.0
C447 C 0.72535 0.0897 0.40622 0.0
O448 O 0.76397 0.09787 0.40934 0.0
C449 C 0.70392 0.09135 0.46179 0.0
C450 C 0.64194 0.07865 0.46839 0.0
C451 C 0.68571 0.08488 0.46987 0.0
N452 N 0.67232 0.08932 0.45589 0.0
N453 N 0.63534 0.08179 0.45987 0.0
C454 C 0.75067 0.09666 0.45956 0.0
H455 H 0.75689 0.08444 0.45297 0.0
H456 H 0.77149 0.0792 0.46422 0.0
H457 H 0.75906 0.13154 0.45972 0.0
C458 C 0.69991 0.0039 0.42696 0.0
N459 N 0.69501 0.04486 0.42978 0.0
N460 N 0.68979 0.04437 0.43817 0.0
C461 C 0.69174 0.00312 0.44097 0.0
C462 C 0.69805 0.97616 0.43396 0.0
C463 C 0.70564 0.99162 0.41774 0.0
H464 H 0.73503 0.00762 0.41518 0.0
H465 H 0.70879 0.95609 0.41693 0.0
H466 H 0.67753 0.00333 0.41397 0.0
O467 O 0.6361 0.12793 0.42589 0.0
O468 O 0.62165 0.12159 0.43981 0.0
H469 H 0.68719 0.95396 0.45085 0.0
H470 H 0.71037 0.00499 0.45418 0.0
C471 C 0.6853 0.98961 0.45011 0.0
H472 H 0.65323 1.00097 0.45236 0.0
H473 H 0.60559 0.07882 0.45676 0.0
O474 O 0.69303 0.08857 0.41125 0.0
C475 C 0.61165 0.13472 0.43232 0.0
Co476 Co 0.66014 0.95122 0.17288 0.0
Co477 Co 0.65747 0.93147 0.19271 0.0
C478 C 0.59767 0.99671 0.18384 0.0
O479 O 0.61615 0.9941 0.17653 0.0
O480 O 0.61101 0.97453 0.19023 0.0
C481 C 0.66531 0.9859 0.15528 0.0
O482 O 0.64737 0.02155 0.15818 0.0
C483 C 0.65969 0.95055 0.21146 0.0
C484 C 0.67682 0.88621 0.21661 0.0
C485 C 0.66807 0.92835 0.21909 0.0
N486 N 0.66391 0.92275 0.20485 0.0
N487 N 0.674 0.88438 0.20799 0.0
C488 C 0.64632 0.9968 0.21046 0.0
H489 H 0.62845 0.00176 0.2044 0.0
H490 H 0.67564 0.01747 0.21026 0.0
H491 H 0.62565 0.00715 0.21591 0.0
C492 C 0.75348 0.96103 0.17685 0.0
N493 N 0.71222 0.95432 0.17932 0.0
N494 N 0.71137 0.94585 0.1876 0.0
C495 C 0.75218 0.94665 0.19066 0.0
C496 C 0.78027 0.95619 0.18396 0.0
C497 C 0.76696 0.96844 0.16773 0.0
H498 H 0.75053 0.99774 0.16523 0.0
H499 H 0.80246 0.9723 0.1671 0.0
H500 H 0.75645 0.94059 0.16375 0.0
O501 O 0.63109 0.89473 0.1742 0.0
O502 O 0.63506 0.87677 0.18799 0.0
H503 H 0.79876 0.9448 0.20108 0.0
H504 H 0.74439 0.9596 0.20407 0.0
C505 C 0.764 0.93845 0.19985 0.0
H506 H 0.75656 0.90435 0.20148 0.0
H507 H 0.67907 0.85688 0.20424 0.0
O508 O 0.673 0.95503 0.16044 0.0
C509 C 0.62352 0.86852 0.18031 0.0
Co510 Co 0.80281 0.90367 0.92208 0.0
Co511 Co 0.82122 0.90304 0.94203 0.0
C512 C 0.75663 0.84233 0.93315 0.0
O513 O 0.75944 0.8603 0.92579 0.0
O514 O 0.77828 0.85637 0.93955 0.0
C515 C 0.76732 0.91861 0.9047 0.0
O516 O 0.72833 0.91626 0.90803 0.0
C517 C 0.80302 0.90148 0.96087 0.0
C518 C 0.86225 0.93257 0.96586 0.0
C519 C 0.82289 0.9155 0.96843 0.0
N520 N 0.82912 0.91093 0.95419 0.0
N521 N 0.86464 0.92899 0.95726 0.0
C522 C 0.76164 0.8767 0.96003 0.0
H523 H 0.7647 0.8519 0.95497 0.0
H524 H 0.73526 0.89921 0.9582 0.0
H525 H 0.75309 0.86004 0.96611 0.0
C526 C 0.79294 0.99768 0.92564 0.0
N527 N 0.79963 0.95664 0.92827 0.0
N528 N 0.80716 0.95661 0.9366 0.0
C529 C 0.80541 0.99775 0.93951 0.0
C530 C 0.79652 0.02505 0.93266 0.0
C531 C 0.78611 0.01073 0.91648 0.0
H532 H 0.81191 0.99653 0.91241 0.0
H533 H 0.75455 0.99797 0.91424 0.0
H534 H 0.78638 0.04638 0.91569 0.0
O535 O 0.8589 0.87444 0.92376 0.0
O536 O 0.8762 0.87972 0.93756 0.0
H537 H 0.84643 0.00851 0.95032 0.0
H538 H 0.80078 0.04463 0.94979 0.0
C539 C 0.81163 0.01089 0.94867 0.0
H540 H 0.79319 0.98894 0.95295 0.0
H541 H 0.89042 0.93931 0.95345 0.0
O542 O 0.80012 0.91421 0.90954 0.0
C543 C 0.8847 0.86717 0.92996 0.0
Co544 Co 0.65733 0.56905 0.67285 0.0
Co545 Co 0.65672 0.57179 0.69297 0.0
C546 C 0.59681 0.51339 0.68343 0.0
O547 O 0.61183 0.52589 0.67619 0.0
O548 O 0.6129 0.52695 0.69047 0.0
C549 C 0.67511 0.53346 0.65587 0.0
O550 O 0.67509 0.49537 0.65961 0.0
C551 C 0.6565 0.55029 0.71139 0.0
C552 C 0.68625 0.60904 0.71694 0.0
C553 C 0.66923 0.56909 0.71907 0.0
N554 N 0.66551 0.57799 0.70499 0.0
N555 N 0.68293 0.61318 0.70836 0.0
C556 C 0.63872 0.5058 0.71007 0.0
H557 H 0.65119 0.49203 0.70397 0.0
H558 H 0.64739 0.48417 0.7155 0.0
H559 H 0.60297 0.50776 0.70963 0.0
C560 C 0.75204 0.55793 0.67614 0.0
N561 N 0.71071 0.56192 0.67884 0.0
N562 N 0.71023 0.56234 0.6873 0.0
C563 C 0.7511 0.55816 0.69023 0.0
C564 C 0.77893 0.55546 0.68326 0.0
C565 C 0.76596 0.55956 0.66694 0.0
H566 H 0.75894 0.52798 0.66386 0.0
H567 H 0.80112 0.56615 0.66636 0.0
H568 H 0.74774 0.58508 0.66349 0.0
O569 O 0.63126 0.62644 0.67512 0.0
O570 O 0.62922 0.62602 0.68937 0.0
H571 H 0.76286 0.58878 0.7023 0.0
H572 H 0.79629 0.54211 0.70035 0.0
C573 C 0.76337 0.55578 0.69952 0.0
H574 H 0.73988 0.53538 0.70305 0.0
H575 H 0.69304 0.63983 0.70476 0.0
O576 O 0.66769 0.56706 0.66033 0.0
C577 C 0.62043 0.64379 0.68222 0.0
Co578 Co 0.67925 0.40149 0.92317 0.0
Co579 Co 0.67952 0.40366 0.94335 0.0
C580 C 0.73665 0.34264 0.93378 0.0
O581 O 0.72258 0.35659 0.92657 0.0
O582 O 0.72462 0.3597 0.94085 0.0
C583 C 0.71375 0.40896 0.90587 0.0
O584 O 0.75159 0.40073 0.90935 0.0
C585 C 0.69665 0.40167 0.96211 0.0
C586 C 0.64388 0.44368 0.96681 0.0
C587 C 0.67925 0.41987 0.96953 0.0
N588 N 0.6732 0.41516 0.95534 0.0
N589 N 0.64136 0.43968 0.95823 0.0
C590 C 0.73169 0.3685 0.96147 0.0
H591 H 0.7222 0.34354 0.95674 0.0
H592 H 0.76187 0.38415 0.95919 0.0
H593 H 0.73763 0.35228 0.96772 0.0
C594 C 0.69148 0.49599 0.92574 0.0
N595 N 0.68741 0.45535 0.9288 0.0
N596 N 0.68848 0.45638 0.93725 0.0
C597 C 0.69394 0.49776 0.93981 0.0
C598 C 0.69552 0.5242 0.93262 0.0
C599 C 0.68906 0.50773 0.91642 0.0
H600 H 0.66103 0.49126 0.91341 0.0
H601 H 0.71885 0.49645 0.91315 0.0
H602 H 0.68587 0.54317 0.9155 0.0
O603 O 0.62213 0.37616 0.92582 0.0
O604 O 0.6252 0.37505 0.94005 0.0
H605 H 0.66734 0.51776 0.95183 0.0
H606 H 0.71813 0.54269 0.94927 0.0
C607 C 0.69957 0.512 0.94893 0.0
H608 H 0.71677 0.48685 0.95268 0.0
H609 H 0.61798 0.45389 0.9543 0.0
O610 O 0.68034 0.41018 0.91061 0.0
C611 C 0.60616 0.36574 0.93306 0.0
Co612 Co 0.85598 0.44626 0.17429 0.0
Co613 Co 0.85716 0.42629 0.19411 0.0
C614 C 0.91941 0.48954 0.18553 0.0
O615 O 0.90143 0.48658 0.17818 0.0
O616 O 0.90503 0.46848 0.19198 0.0
C617 C 0.8753 0.44679 0.15666 0.0
O618 O 0.91397 0.43777 0.15967 0.0
C619 C 0.85873 0.4418 0.21294 0.0
C620 C 0.8256 0.38309 0.21766 0.0
C621 C 0.84359 0.42178 0.22038 0.0
N622 N 0.84897 0.41653 0.20617 0.0
N623 N 0.82975 0.38126 0.20906 0.0
C624 C 0.88482 0.48245 0.21228 0.0
H625 H 0.91108 0.47808 0.20755 0.0
H626 H 0.86373 0.50921 0.21004 0.0
H627 H 0.89988 0.49121 0.2185 0.0
C628 C 0.76332 0.45945 0.17795 0.0
N629 N 0.80403 0.4514 0.18058 0.0
N630 N 0.80392 0.44302 0.18887 0.0
C631 C 0.76282 0.44545 0.19177 0.0
C632 C 0.73581 0.45571 0.18494 0.0
C633 C 0.75093 0.46682 0.16877 0.0
H634 H 0.76918 0.49491 0.16621 0.0
H635 H 0.71574 0.47265 0.16803 0.0
H636 H 0.76011 0.43806 0.16491 0.0
O637 O 0.88113 0.38796 0.17537 0.0
O638 O 0.87824 0.3713 0.18923 0.0
H639 H 0.75064 0.40278 0.20227 0.0
H640 H 0.71592 0.44957 0.20205 0.0
C641 C 0.74935 0.43791 0.20088 0.0
H642 H 0.77176 0.45488 0.2053 0.0
H643 H 0.81882 0.35617 0.20514 0.0
O644 O 0.84478 0.45406 0.16193 0.0
C645 C 0.88823 0.36182 0.18152 0.0
Co646 Co 0.81441 0.59599 0.42457 0.0
Co647 Co 0.80554 0.59968 0.44466 0.0
C648 C 0.75344 0.65807 0.43355 0.0
O649 O 0.77112 0.64237 0.42683 0.0
O650 O 0.76143 0.64257 0.44098 0.0
C651 C 0.7855 0.58509 0.40703 0.0
O652 O 0.74683 0.59352 0.4101 0.0
C653 C 0.77354 0.59229 0.46258 0.0
C654 C 0.83563 0.59161 0.46962 0.0
C655 C 0.79128 0.59105 0.47078 0.0
N656 N 0.8061 0.59345 0.45685 0.0
N657 N 0.84305 0.59273 0.46112 0.0
C658 C 0.72667 0.5951 0.46026 0.0
H659 H 0.7097 0.61765 0.46467 0.0
H660 H 0.72254 0.60575 0.45352 0.0
H661 H 0.71166 0.56272 0.46096 0.0
C662 C 0.80081 0.50252 0.42802 0.0
N663 N 0.80334 0.54397 0.43067 0.0
N664 N 0.80054 0.54516 0.4391 0.0
C665 C 0.79671 0.50437 0.44209 0.0
C666 C 0.79663 0.47607 0.43517 0.0
C667 C 0.80503 0.48839 0.41886 0.0
H668 H 0.83455 0.50287 0.41601 0.0
H669 H 0.77674 0.50028 0.41518 0.0
H670 H 0.80674 0.45266 0.4183 0.0
O671 O 0.87077 0.62123 0.42784 0.0
O672 O 0.86092 0.62783 0.4419 0.0
H673 H 0.82276 0.50492 0.45482 0.0
H674 H 0.7911 0.45726 0.45235 0.0
C675 C 0.79373 0.49272 0.4514 0.0
H676 H 0.76497 0.50861 0.45424 0.0
H677 H 0.87344 0.59387 0.45821 0.0
O678 O 0.81767 0.5845 0.4121 0.0
C679 C 0.8833 0.63438 0.43517 0.0
Co680 Co 0.6558 0.42466 0.82507 0.0
Co681 Co 0.65626 0.43867 0.80517 0.0
C682 C 0.59586 0.48844 0.81583 0.0
O683 O 0.6094 0.468 0.82244 0.0
O684 O 0.61391 0.4836 0.80853 0.0
C685 C 0.67108 0.45452 0.84228 0.0
O686 O 0.67288 0.49289 0.83867 0.0
C687 C 0.65036 0.46185 0.78673 0.0
C688 C 0.6962 0.41463 0.78118 0.0
C689 C 0.66899 0.44852 0.77903 0.0
N690 N 0.66692 0.43766 0.79312 0.0
N691 N 0.69365 0.40906 0.78972 0.0
C692 C 0.61413 0.49336 0.78798 0.0
H693 H 0.59156 0.48116 0.79295 0.0
H694 H 0.6275 0.52471 0.79021 0.0
H695 H 0.59569 0.49838 0.78194 0.0
C696 C 0.75054 0.43822 0.82254 0.0
N697 N 0.7095 0.43646 0.81958 0.0
N698 N 0.70961 0.4438 0.81125 0.0
C699 C 0.75067 0.45149 0.8087 0.0
C700 C 0.77789 0.4477 0.81573 0.0
C701 C 0.76374 0.42858 0.83158 0.0
H702 H 0.74389 0.40179 0.8342 0.0
H703 H 0.75842 0.45776 0.83559 0.0
H704 H 0.79849 0.41975 0.83195 0.0
O705 O 0.63182 0.36864 0.82138 0.0
O706 O 0.62636 0.3834 0.80748 0.0
H707 H 0.7722 0.43502 0.79608 0.0
H708 H 0.79318 0.48523 0.80003 0.0
C709 C 0.76395 0.46441 0.79982 0.0
H710 H 0.73744 0.48208 0.79656 0.0
H711 H 0.71023 0.38569 0.79327 0.0
O712 O 0.66386 0.42155 0.83763 0.0
C713 C 0.61891 0.35886 0.81387 0.0
Co714 Co 0.81505 0.41102 0.07598 0.0
Co715 Co 0.80425 0.41102 0.05601 0.0
C716 C 0.75223 0.3514 0.06656 0.0
O717 O 0.77085 0.36553 0.07333 0.0
O718 O 0.75954 0.36836 0.05923 0.0
C719 C 0.8186 0.39092 0.09391 0.0
O720 O 0.81727 0.35069 0.0912 0.0
C721 C 0.77638 0.41163 0.03787 0.0
C722 C 0.8313 0.4459 0.03182 0.0
C723 C 0.7918 0.42688 0.03008 0.0
N724 N 0.80554 0.42133 0.04397 0.0
N725 N 0.83843 0.44141 0.0403 0.0
C726 C 0.73383 0.39036 0.0396 0.0
H727 H 0.72003 0.40281 0.0457 0.0
H728 H 0.71066 0.39605 0.03427 0.0
H729 H 0.73898 0.35504 0.04032 0.0
C730 C 0.80338 0.50517 0.07329 0.0
N731 N 0.80488 0.46422 0.07033 0.0
N732 N 0.79849 0.46435 0.06198 0.0
C733 C 0.79145 0.50544 0.05939 0.0
C734 C 0.79482 0.53268 0.06645 0.0
C735 C 0.8097 0.51744 0.0825 0.0
H736 H 0.84168 0.5056 0.08472 0.0
H737 H 0.78457 0.50142 0.08647 0.0
H738 H 0.80765 0.55293 0.08346 0.0
O739 O 0.87096 0.38568 0.07261 0.0
O740 O 0.85921 0.381 0.05857 0.0
H741 H 0.81485 0.51962 0.04681 0.0
H742 H 0.76873 0.55124 0.04989 0.0
C743 C 0.78356 0.51866 0.05027 0.0
H744 H 0.76213 0.49487 0.04707 0.0
H745 H 0.86555 0.45257 0.04362 0.0
O746 O 0.81717 0.42143 0.08846 0.0
C747 C 0.88219 0.37302 0.06517 0.0
Co748 Co 0.85116 0.57273 0.32634 0.0
Co749 Co 0.84938 0.5575 0.30643 0.0
C750 C 0.91089 0.50892 0.31714 0.0
O751 O 0.89708 0.52892 0.32378 0.0
O752 O 0.89318 0.51425 0.30982 0.0
C753 C 0.8386 0.5431 0.3436 0.0
O754 O 0.83909 0.50471 0.33998 0.0
C755 C 0.84838 0.52589 0.28849 0.0
C756 C 0.81038 0.57744 0.28217 0.0
C757 C 0.8313 0.53867 0.28066 0.0
N758 N 0.83778 0.55575 0.2944 0.0
N759 N 0.81551 0.58668 0.29055 0.0
C760 C 0.87257 0.48517 0.29043 0.0
H761 H 0.8603 0.47081 0.29649 0.0
H762 H 0.86945 0.46135 0.28513 0.0
H763 H 0.90725 0.49307 0.29135 0.0
C764 C 0.75648 0.56042 0.32403 0.0
N765 N 0.79735 0.56085 0.32099 0.0
N766 N 0.79676 0.55206 0.31272 0.0
C767 C 0.75557 0.54407 0.31031 0.0
C768 C 0.72868 0.54961 0.31737 0.0
C769 C 0.74436 0.57014 0.33314 0.0
H770 H 0.76307 0.59836 0.33549 0.0
H771 H 0.75249 0.54183 0.3372 0.0
H772 H 0.70928 0.57669 0.33381 0.0
O773 O 0.87492 0.62826 0.32239 0.0
O774 O 0.87838 0.6138 0.30842 0.0
H775 H 0.73874 0.56383 0.29761 0.0
H776 H 0.71 0.51693 0.30123 0.0
C777 C 0.74181 0.53344 0.30134 0.0
H778 H 0.76623 0.51244 0.29821 0.0
H779 H 0.8033 0.61388 0.2937 0.0
O780 O 0.84351 0.57646 0.33893 0.0
C781 C 0.88645 0.63832 0.3148 0.0
Co782 Co 0.69378 0.59714 0.57582 0.0
Co783 Co 0.66861 0.60056 0.55635 0.0
C784 C 0.73671 0.65992 0.56447 0.0
O785 O 0.73575 0.64138 0.5718 0.0
O786 O 0.713 0.64664 0.5583 0.0
C787 C 0.73341 0.58285 0.59296 0.0
O788 O 0.77153 0.59233 0.58975 0.0
C789 C 0.68562 0.59261 0.53781 0.0
C790 C 0.61945 0.59541 0.53247 0.0
C791 C 0.66256 0.5921 0.53016 0.0
N792 N 0.65734 0.59567 0.54434 0.0
N793 N 0.61786 0.59717 0.5411 0.0
C794 C 0.73371 0.59309 0.5389 0.0
H795 H 0.74271 0.60351 0.54547 0.0
H796 H 0.74665 0.56007 0.53786 0.0
H797 H 0.74873 0.61483 0.53407 0.0
C798 C 0.7028 0.50368 0.57157 0.0
N799 N 0.695 0.54504 0.56929 0.0
N800 N 0.68366 0.54615 0.56115 0.0
C801 C 0.68322 0.50543 0.55802 0.0
C802 C 0.69555 0.47712 0.56452 0.0
C803 C 0.7139 0.48973 0.58052 0.0
H804 H 0.68849 0.50114 0.58501 0.0
H805 H 0.74494 0.50486 0.58245 0.0
H806 H 0.71665 0.45409 0.58107 0.0
O807 O 0.63695 0.62646 0.57521 0.0
O808 O 0.61549 0.62319 0.56164 0.0
H809 H 0.63971 0.50885 0.54735 0.0
H810 H 0.6697 0.45861 0.54797 0.0
C811 C 0.67133 0.49405 0.54898 0.0
H812 H 0.69595 0.5075 0.54456 0.0
H813 H 0.58981 0.60007 0.54479 0.0
O814 O 0.70025 0.58364 0.58815 0.0
C815 C 0.6092 0.63442 0.56939 0.0
Co816 Co 0.35077 0.431 0.32482 0.0
Co817 Co 0.35112 0.44691 0.30492 0.0
C818 C 0.41062 0.49593 0.3162 0.0
O819 O 0.39594 0.47588 0.32275 0.0
O820 O 0.39438 0.49011 0.30875 0.0
C821 C 0.37006 0.42686 0.34287 0.0
O822 O 0.41025 0.43227 0.34035 0.0
C823 C 0.35108 0.48119 0.28715 0.0
C824 C 0.31629 0.4289 0.28035 0.0
C825 C 0.33566 0.46876 0.27915 0.0
N826 N 0.34104 0.45005 0.29284 0.0
N827 N 0.32068 0.41874 0.28871 0.0
C828 C 0.37305 0.52268 0.28944 0.0
H829 H 0.4082 0.51659 0.29019 0.0
H830 H 0.36047 0.53479 0.29567 0.0
H831 H 0.36817 0.54755 0.28439 0.0
C832 C 0.25704 0.44436 0.32228 0.0
N833 N 0.29786 0.44314 0.31926 0.0
N834 N 0.29762 0.45126 0.31097 0.0
C835 C 0.25645 0.4589 0.30848 0.0
C836 C 0.22935 0.45427 0.31555 0.0
C837 C 0.24512 0.43681 0.33148 0.0
H838 H 0.2626 0.46034 0.33559 0.0
H839 H 0.20987 0.44041 0.33259 0.0
H840 H 0.25549 0.40386 0.33341 0.0
O841 O 0.37602 0.37616 0.32078 0.0
O842 O 0.38027 0.39062 0.30683 0.0
H843 H 0.24269 0.43747 0.29574 0.0
H844 H 0.21017 0.48238 0.29912 0.0
C845 C 0.24302 0.46815 0.29942 0.0
H846 H 0.2664 0.49058 0.29637 0.0
H847 H 0.30928 0.3906 0.29164 0.0
O848 O 0.34016 0.42564 0.33728 0.0
C849 C 0.38818 0.36621 0.31322 0.0
Co850 Co 0.31696 0.60228 0.07415 0.0
Co851 Co 0.30523 0.6043 0.05411 0.0
C852 C 0.25337 0.66252 0.06506 0.0
O853 O 0.2725 0.64775 0.07172 0.0
O854 O 0.26021 0.64633 0.05764 0.0
C855 C 0.32113 0.62011 0.09229 0.0
O856 O 0.31995 0.66071 0.08981 0.0
C857 C 0.27402 0.59748 0.03616 0.0
C858 C 0.33532 0.58308 0.02944 0.0
C859 C 0.2915 0.58934 0.02806 0.0
N860 N 0.30618 0.5961 0.04197 0.0
N861 N 0.34268 0.58765 0.0379 0.0
C862 C 0.22752 0.6037 0.03849 0.0
H863 H 0.22186 0.59367 0.04525 0.0
H864 H 0.20625 0.58489 0.03413 0.0
H865 H 0.21924 0.63849 0.03791 0.0
C866 C 0.30535 0.50846 0.07106 0.0
N867 N 0.30676 0.54967 0.06825 0.0
N868 N 0.30084 0.55021 0.05988 0.0
C869 C 0.29485 0.50925 0.05711 0.0
C870 C 0.29779 0.48139 0.0641 0.0
C871 C 0.3105 0.49557 0.08027 0.0
H872 H 0.34271 0.50615 0.0826 0.0
H873 H 0.28564 0.51228 0.0842 0.0
H874 H 0.30713 0.46015 0.08117 0.0
O875 O 0.37266 0.62846 0.07075 0.0
O876 O 0.36003 0.63445 0.05675 0.0
H877 H 0.31789 0.50628 0.04419 0.0
H878 H 0.28334 0.46168 0.04713 0.0
C879 C 0.28874 0.49692 0.04789 0.0
H880 H 0.26077 0.51484 0.04521 0.0
H881 H 0.37266 0.58472 0.04092 0.0
O882 O 0.31955 0.59042 0.08666 0.0
C883 C 0.38337 0.64194 0.06332 0.0
Co884 Co 0.15782 0.55887 0.82441 0.0
Co885 Co 0.15605 0.57417 0.80446 0.0
C886 C 0.09574 0.51098 0.81377 0.0
O887 O 0.11433 0.51468 0.82105 0.0
O888 O 0.10931 0.53175 0.80721 0.0
C889 C 0.16932 0.52474 0.84188 0.0
O890 O 0.15795 0.48679 0.83883 0.0
C891 C 0.16525 0.54758 0.78633 0.0
C892 C 0.16175 0.61065 0.7797 0.0
C893 C 0.16548 0.56662 0.77824 0.0
N894 N 0.16175 0.57901 0.79227 0.0
N895 N 0.15991 0.61662 0.78825 0.0
C896 C 0.16525 0.50033 0.7884 0.0
H897 H 0.15418 0.49468 0.79508 0.0
H898 H 0.19859 0.48751 0.78779 0.0
H899 H 0.1443 0.48251 0.78382 0.0
C900 C 0.25165 0.54988 0.82072 0.0
N901 N 0.21042 0.55527 0.81811 0.0
N902 N 0.20995 0.56119 0.80973 0.0
C903 C 0.25095 0.5596 0.80676 0.0
C904 C 0.27869 0.55242 0.81363 0.0
C905 C 0.26483 0.54254 0.82985 0.0
H906 H 0.2476 0.5138 0.83239 0.0
H907 H 0.30019 0.5373 0.83047 0.0
H908 H 0.25528 0.5709 0.83379 0.0
O909 O 0.12778 0.6146 0.82254 0.0
O910 O 0.13299 0.62987 0.80863 0.0
H911 H 0.24681 0.59709 0.79522 0.0
H912 H 0.29909 0.57221 0.79697 0.0
C913 C 0.26362 0.56784 0.79763 0.0
H914 H 0.25346 0.54 0.79362 0.0
H915 H 0.15659 0.64636 0.79135 0.0
O916 O 0.1706 0.55718 0.83687 0.0
C917 C 0.12037 0.63941 0.81618 0.0
Co918 Co 0.19722 0.4043 0.57492 0.0
Co919 Co 0.17676 0.40239 0.55518 0.0
C920 C 0.24333 0.34314 0.56348 0.0
O921 O 0.2395 0.36038 0.57089 0.0
O922 O 0.2216 0.35703 0.55708 0.0
C923 C 0.19983 0.38743 0.59289 0.0
O924 O 0.19234 0.34769 0.5903 0.0
C925 C 0.19705 0.4062 0.53684 0.0
C926 C 0.13306 0.41885 0.53105 0.0
C927 C 0.17622 0.41231 0.52902 0.0
N928 N 0.16752 0.40877 0.54315 0.0
N929 N 0.1293 0.41619 0.53965 0.0
C930 C 0.24449 0.40132 0.53846 0.0
H931 H 0.2528 0.41369 0.54495 0.0
H932 H 0.26359 0.4189 0.53353 0.0
H933 H 0.25312 0.36651 0.5382 0.0
C934 C 0.20681 0.49793 0.57106 0.0
N935 N 0.19959 0.4568 0.56857 0.0
N936 N 0.1909 0.45625 0.5603 0.0
C937 C 0.19209 0.49712 0.55726 0.0
C938 C 0.20219 0.52498 0.56398 0.0
C939 C 0.21474 0.51104 0.58019 0.0
H940 H 0.24431 0.49469 0.58258 0.0
H941 H 0.21835 0.54655 0.58088 0.0
H942 H 0.18723 0.50013 0.58422 0.0
O943 O 0.1402 0.37547 0.57394 0.0
O944 O 0.12308 0.37843 0.56009 0.0
H945 H 0.15082 0.50003 0.54626 0.0
H946 H 0.18931 0.54403 0.5469 0.0
C947 C 0.18433 0.50902 0.54807 0.0
H948 H 0.2068 0.49055 0.54391 0.0
H949 H 0.10071 0.41964 0.54315 0.0
O950 O 0.20515 0.41692 0.5873 0.0
C951 C 0.1144 0.36734 0.56777 0.0
Co952 Co 0.35741 0.55962 0.17274 0.0
Co953 Co 0.35899 0.57819 0.19269 0.0
C954 C 0.41841 0.51251 0.18421 0.0
O955 O 0.4014 0.51764 0.17681 0.0
O956 O 0.4044 0.53316 0.19076 0.0
C957 C 0.37651 0.55832 0.15497 0.0
O958 O 0.41557 0.56616 0.15791 0.0
C959 C 0.36381 0.56692 0.21158 0.0
C960 C 0.32373 0.62153 0.21608 0.0
C961 C 0.34673 0.58591 0.21895 0.0
N962 N 0.35036 0.58954 0.2047 0.0
N963 N 0.32711 0.6226 0.20746 0.0
C964 C 0.39626 0.5312 0.21105 0.0
H965 H 0.42257 0.54142 0.20669 0.0
H966 H 0.38076 0.50191 0.20832 0.0
H967 H 0.41085 0.52368 0.21738 0.0
C968 C 0.26405 0.5495 0.17643 0.0
N969 N 0.30502 0.55667 0.17903 0.0
N970 N 0.30542 0.56323 0.18739 0.0
C971 C 0.26459 0.55969 0.19038 0.0
C972 C 0.23701 0.55141 0.18355 0.0
C973 C 0.25114 0.54382 0.16723 0.0
H974 H 0.26371 0.57134 0.1634 0.0
H975 H 0.26606 0.51381 0.16468 0.0
H976 H 0.21554 0.54211 0.16646 0.0
O977 O 0.38529 0.61657 0.17383 0.0
O978 O 0.38319 0.6319 0.18776 0.0
H979 H 0.24837 0.5964 0.20155 0.0
H980 H 0.2208 0.54537 0.20082 0.0
C981 C 0.25205 0.56203 0.19966 0.0
H982 H 0.27728 0.54681 0.20371 0.0
H983 H 0.31288 0.64551 0.20343 0.0
O984 O 0.34601 0.55205 0.1603 0.0
C985 C 0.39368 0.6416 0.18009 0.0
Co986 Co 0.18774 0.59383 0.92203 0.0
Co987 Co 0.16856 0.59448 0.94184 0.0
C988 C 0.2341 0.65472 0.93339 0.0
O989 O 0.23106 0.63707 0.926 0.0
O990 O 0.21236 0.64065 0.93978 0.0
C991 C 0.22523 0.57771 0.90486 0.0
O992 O 0.2638 0.57878 0.90839 0.0
C993 C 0.18914 0.59022 0.96024 0.0
C994 C 0.12488 0.57785 0.96595 0.0
C995 C 0.16795 0.58436 0.96805 0.0
N996 N 0.15984 0.58758 0.95389 0.0
N997 N 0.1215 0.58027 0.95734 0.0
C998 C 0.23658 0.59551 0.95868 0.0
H999 H 0.24517 0.58329 0.9522 0.0
H1000 H 0.25563 0.57804 0.96363 0.0
H1001 H 0.24491 0.63038 0.95896 0.0
C1002 C 0.19492 0.49929 0.9256 0.0
N1003 N 0.18955 0.54059 0.92819 0.0
N1004 N 0.18256 0.54095 0.93654 0.0
C1005 C 0.18386 0.49997 0.93952 0.0
C1006 C 0.19163 0.47229 0.93268 0.0
C1007 C 0.20205 0.48578 0.91648 0.0
H1008 H 0.17656 0.50002 0.91234 0.0
H1009 H 0.23379 0.49821 0.91427 0.0
H1010 H 0.20172 0.45006 0.91578 0.0
O1011 O 0.13174 0.62365 0.92343 0.0
O1012 O 0.11428 0.61846 0.93722 0.0
H1013 H 0.14289 0.49829 0.95056 0.0
H1014 H 0.17814 0.45188 0.94957 0.0
C1015 C 0.17566 0.48738 0.94865 0.0
H1016 H 0.19945 0.50378 0.95287 0.0
H1017 H 0.093 0.57693 0.95381 0.0
O1018 O 0.19193 0.58326 0.90951 0.0
C1019 C 0.10595 0.63109 0.92962 0.0
Co1020 Co 0.15799 0.44844 0.67331 0.0
Co1021 Co 0.15705 0.42783 0.69307 0.0
C1022 C 0.09663 0.4937 0.68451 0.0
O1023 O 0.11467 0.4914 0.67715 0.0
O1024 O 0.11042 0.47132 0.69084 0.0
C1025 C 0.14076 0.44972 0.65532 0.0
O1026 O 0.10079 0.44384 0.65794 0.0
C1027 C 0.16728 0.45095 0.71132 0.0
C1028 C 0.16305 0.38695 0.71758 0.0
C1029 C 0.16736 0.4307 0.7193 0.0
N1030 N 0.16333 0.42051 0.7052 0.0
N1031 N 0.16109 0.38232 0.70899 0.0
C1032 C 0.1678 0.49851 0.70955 0.0
H1033 H 0.15724 0.50531 0.70288 0.0
H1034 H 0.2012 0.51096 0.71032 0.0
H1035 H 0.14669 0.51577 0.71419 0.0
C1036 C 0.25148 0.45877 0.67698 0.0
N1037 N 0.21057 0.45133 0.67958 0.0
N1038 N 0.21071 0.44161 0.68781 0.0
C1039 C 0.25193 0.44158 0.69067 0.0
C1040 C 0.27912 0.45267 0.68391 0.0
C1041 C 0.2639 0.46848 0.66789 0.0
H1042 H 0.2564 0.43997 0.66383 0.0
H1043 H 0.2444 0.49607 0.66549 0.0
H1044 H 0.29881 0.47612 0.66728 0.0
O1045 O 0.12851 0.39175 0.67465 0.0
O1046 O 0.13379 0.37341 0.68841 0.0
H1047 H 0.24897 0.40012 0.70167 0.0
H1048 H 0.3005 0.42722 0.7003 0.0
C1049 C 0.26494 0.43061 0.69967 0.0
H1050 H 0.25391 0.45665 0.70404 0.0
H1051 H 0.15727 0.35313 0.70571 0.0
O1052 O 0.17044 0.45448 0.66088 0.0
C1053 C 0.12131 0.36546 0.68079 0.0
Co1054 Co 0.3022 0.3988 0.42324 0.0
Co1055 Co 0.31216 0.39827 0.44328 0.0
C1056 C 0.2501 0.33874 0.43399 0.0
O1057 O 0.25843 0.35556 0.4267 0.0
O1058 O 0.2678 0.35295 0.44085 0.0
C1059 C 0.30724 0.37762 0.4057 0.0
O1060 O 0.31428 0.3391 0.40898 0.0
C1061 C 0.28524 0.40543 0.46129 0.0
C1062 C 0.34762 0.41656 0.46785 0.0
C1063 C 0.30367 0.41182 0.46934 0.0
N1064 N 0.31688 0.40615 0.45538 0.0
N1065 N 0.35409 0.41272 0.45934 0.0
C1066 C 0.23834 0.40147 0.45907 0.0
H1067 H 0.23255 0.41308 0.45242 0.0
H1068 H 0.21815 0.4202 0.46365 0.0
H1069 H 0.22874 0.36694 0.4594 0.0
C1070 C 0.2943 0.49274 0.42643 0.0
N1071 N 0.29782 0.45173 0.42926 0.0
N1072 N 0.3011 0.45185 0.43768 0.0
C1073 C 0.29928 0.49312 0.44049 0.0
C1074 C 0.29514 0.52037 0.43344 0.0
C1075 C 0.29078 0.50501 0.41715 0.0
H1076 H 0.26433 0.48622 0.41411 0.0
H1077 H 0.28436 0.54008 0.41634 0.0
H1078 H 0.32134 0.49649 0.41382 0.0
O1079 O 0.35812 0.37038 0.4253 0.0
O1080 O 0.36766 0.37294 0.43943 0.0
H1081 H 0.30374 0.54197 0.45045 0.0
H1082 H 0.27849 0.49161 0.45358 0.0
C1083 C 0.30464 0.50632 0.44968 0.0
H1084 H 0.33597 0.49398 0.45213 0.0
H1085 H 0.3839 0.41466 0.45622 0.0
O1086 O 0.2993 0.40895 0.41073 0.0
C1087 C 0.38032 0.36192 0.43197 0.0
C1088 C 0.14268 0.01076 0.26856 0.0
C1089 C 0.17232 0.97814 0.27066 0.0
C1090 C 0.14155 0.0286 0.26026 0.0
C1091 C 0.17038 0.01302 0.2539 0.0
C1092 C 0.20048 0.98024 0.256 0.0
C1093 C 0.20101 0.96318 0.26435 0.0
C1094 C 0.10892 0.06347 0.25825 0.0
C1095 C 0.23168 0.96271 0.2494 0.0
C1096 C 0.14099 0.02651 0.23035 0.0
C1097 C 0.16729 0.06137 0.22793 0.0
C1098 C 0.14157 0.01052 0.23879 0.0
C1099 C 0.16862 0.03031 0.24499 0.0
C1100 C 0.19462 0.06603 0.24263 0.0
C1101 C 0.19357 0.08117 0.23414 0.0
C1102 C 0.11325 0.97242 0.24107 0.0
C1103 C 0.22373 0.0881 0.24907 0.0
H1104 H 0.11938 0.02143 0.27329 0.0
H1105 H 0.22388 0.93782 0.26593 0.0
H1106 H 0.12548 0.09234 0.25559 0.0
H1107 H 0.08604 0.05177 0.25327 0.0
H1108 H 0.09013 0.07338 0.264 0.0
H1109 H 0.25362 0.93777 0.25212 0.0
H1110 H 0.21348 0.94819 0.24397 0.0
H1111 H 0.25159 0.98935 0.24673 0.0
H1112 H 0.11928 0.01216 0.2257 0.0
H1113 H 0.21373 0.10836 0.23232 0.0
H1114 H 0.09068 0.98144 0.24632 0.0
H1115 H 0.13349 0.94538 0.24348 0.0
H1116 H 0.09407 0.96072 0.2355 0.0
H1117 H 0.20445 0.09959 0.25463 0.0
H1118 H 0.24122 0.11609 0.24625 0.0
H1119 H 0.24785 0.06472 0.25158 0.0
C1120 C 0.21734 0.87729 0.48453 0.0
C1121 C 0.23464 0.9024 0.47788 0.0
C1122 C 0.23623 0.87723 0.49272 0.0
C1123 C 0.27278 0.90359 0.49431 0.0
C1124 C 0.2905 0.92892 0.48759 0.0
C1125 C 0.27115 0.92798 0.47943 0.0
C1126 C 0.21665 0.84949 0.4997 0.0
C1127 C 0.32908 0.95786 0.48908 0.0
C1128 C 0.29095 0.93556 0.51757 0.0
C1129 C 0.32339 0.90658 0.52004 0.0
C1130 C 0.27478 0.93552 0.50915 0.0
C1131 C 0.29142 0.90564 0.5031 0.0
C1132 C 0.32478 0.87681 0.50554 0.0
C1133 C 0.34065 0.8779 0.51398 0.0
C1134 C 0.23966 0.96723 0.50675 0.0
C1135 C 0.34305 0.84425 0.49928 0.0
H1136 H 0.18889 0.85772 0.48332 0.0
H1137 H 0.28373 0.94829 0.47433 0.0
H1138 H 0.24163 0.82785 0.50247 0.0
H1139 H 0.20451 0.8703 0.50498 0.0
H1140 H 0.18946 0.82936 0.4973 0.0
H1141 H 0.3399 0.97423 0.4831 0.0
H1142 H 0.32086 0.98289 0.49392 0.0
H1143 H 0.35645 0.93879 0.4917 0.0
H1144 H 0.27863 0.95874 0.52217 0.0
H1145 H 0.36592 0.85561 0.5159 0.0
H1146 H 0.21001 0.94946 0.50484 0.0
H1147 H 0.24997 0.98682 0.50113 0.0
H1148 H 0.23142 0.98942 0.51211 0.0
H1149 H 0.31711 0.82188 0.49716 0.0
H1150 H 0.36969 0.82489 0.50213 0.0
H1151 H 0.35542 0.86094 0.49347 0.0
C1152 C 0.37974 0.9834 0.729 0.0
C1153 C 0.341 0.96645 0.72579 0.0
C1154 C 0.38261 0.99772 0.73754 0.0
C1155 C 0.34562 0.99555 0.74289 0.0
C1156 C 0.30632 0.97882 0.73962 0.0
C1157 C 0.30468 0.96392 0.73113 0.0
C1158 C 0.42525 0.01449 0.74088 0.0
C1159 C 0.26595 0.97676 0.74507 0.0
C1160 C 0.3525 0.99502 0.76721 0.0
C1161 C 0.3424 0.03808 0.76917 0.0
C1162 C 0.35594 0.98122 0.75864 0.0
C1163 C 0.34762 0.01087 0.75191 0.0
C1164 C 0.33785 0.05446 0.75385 0.0
C1165 C 0.33559 0.06757 0.76246 0.0
C1166 C 0.36684 0.93453 0.75681 0.0
C1167 C 0.32801 0.08684 0.74685 0.0
H1168 H 0.40803 0.98446 0.72489 0.0
H1169 H 0.27477 0.95071 0.72861 0.0
H1170 H 0.42147 0.04818 0.74321 0.0
H1171 H 0.43591 0.99468 0.74644 0.0
H1172 H 0.45098 0.01385 0.7359 0.0
H1173 H 0.23773 0.96394 0.74146 0.0
H1174 H 0.27159 0.95581 0.75074 0.0
H1175 H 0.25779 0.0095 0.7475 0.0
H1176 H 0.35604 0.97156 0.77232 0.0
H1177 H 0.32754 0.10087 0.76394 0.0
H1178 H 0.39299 0.93242 0.75195 0.0
H1179 H 0.33811 0.91788 0.75412 0.0
H1180 H 0.37727 0.91696 0.76269 0.0
H1181 H 0.35464 0.08762 0.74208 0.0
H1182 H 0.3232 0.12001 0.74942 0.0
H1183 H 0.29824 0.07696 0.74339 0.0
C1184 C 0.31537 0.0898 0.98427 0.0
C1185 C 0.28563 0.09412 0.97752 0.0
C1186 C 0.30192 0.09139 0.99287 0.0
C1187 C 0.25769 0.09801 0.99477 0.0
C1188 C 0.22766 0.10372 0.98799 0.0
C1189 C 0.24187 0.1009 0.97945 0.0
C1190 C 0.33477 0.08426 -9e-05 0.0
C1191 C 0.18025 0.11127 0.98977 0.0
C1192 C 0.21232 0.05365 0.0156 0.0
C1193 C 0.21178 0.09052 0.02081 0.0
C1194 C 0.22802 0.05553 0.00716 0.0
C1195 C 0.24233 0.0956 0.0038 0.0
C1196 C 0.24159 0.13307 0.00903 0.0
C1197 C 0.22665 0.12998 0.01753 0.0
C1198 C 0.22918 0.01466 0.00185 0.0
C1199 C 0.25564 0.17648 0.00559 0.0
H1200 H 0.34922 0.08424 0.98283 0.0
H1201 H 0.21829 0.10235 0.97432 0.0
H1202 H 0.33362 0.11119 0.00461 0.0
H1203 H 0.32689 0.05411 0.00345 0.0
H1204 H 0.36824 0.08158 0.99737 0.0
H1205 H 0.16208 0.11994 0.98386 0.0
H1206 H 0.16571 0.08158 0.99254 0.0
H1207 H 0.17613 0.13755 0.99455 0.0
H1208 H 0.20072 0.02318 0.01817 0.0
H1209 H 0.22539 0.15863 0.02154 0.0
H1210 H 0.26246 0.00886 -0.00055 0.0
H1211 H 0.20787 0.01816 0.99616 0.0
H1212 H 0.21858 0.98584 0.00556 0.0
H1213 H 0.2895 0.17475 0.00327 0.0
H1214 H 0.25332 0.20242 0.01051 0.0
H1215 H 0.23518 0.1855 1e-05 0.0
C1216 C 0.81596 0.99075 0.76746 0.0
C1217 C 0.84334 0.95606 0.76942 0.0
C1218 C 0.81534 0.00883 0.75917 0.0
C1219 C 0.84296 0.99189 0.75273 0.0
C1220 C 0.87064 0.95681 0.7547 0.0
C1221 C 0.8702 0.93909 0.763 0.0
C1222 C 0.7849 0.04578 0.75729 0.0
C1223 C 0.9009 0.93814 0.74804 0.0
C1224 C 0.81724 0.0123 0.72916 0.0
C1225 C 0.84488 0.04691 0.72727 0.0
C1226 C 0.81603 0.99422 0.73745 0.0
C1227 C 0.84328 0.01107 0.74396 0.0
C1228 C 0.87121 0.04606 0.74206 0.0
C1229 C 0.87137 0.06378 0.73376 0.0
C1230 C 0.78535 0.95735 0.73925 0.0
C1231 C 0.9011 0.06462 0.74879 0.0
H1232 H 0.79419 0.00309 0.77232 0.0
H1233 H 0.89134 0.91217 0.7645 0.0
H1234 H 0.80349 0.0745 0.75514 0.0
H1235 H 0.76276 0.03678 0.75197 0.0
H1236 H 0.76523 0.05495 0.76298 0.0
H1237 H 0.9206 0.91106 0.75063 0.0
H1238 H 0.88217 0.92619 0.74245 0.0
H1239 H 0.92305 0.96369 0.74565 0.0
H1240 H 0.79574 1.00004 0.72424 0.0
H1241 H 0.89271 0.09063 0.73231 0.0
H1242 H 0.76287 0.96642 0.74451 0.0
H1243 H 0.8037 0.92858 0.74145 0.0
H1244 H 0.76603 0.94823 0.73351 0.0
H1245 H 0.88204 0.07664 0.75434 0.0
H1246 H 0.92106 0.09164 0.74626 0.0
H1247 H 0.92299 0.039 0.75124 0.0
C1248 C 0.69121 0.05743 0.48489 0.0
C1249 C 0.70673 0.0849 0.47842 0.0
C1250 C 0.70941 0.05781 0.49315 0.0
C1251 C 0.74377 0.08659 0.49499 0.0
C1252 C 0.75947 0.11453 0.4885 0.0
C1253 C 0.74057 0.11353 0.4803 0.0
C1254 C 0.69173 0.02759 0.49992 0.0
C1255 C 0.79589 0.14586 0.49023 0.0
C1256 C 0.76456 0.11671 0.5183 0.0
C1257 C 0.7994 0.08967 0.52038 0.0
C1258 C 0.74598 0.11589 0.51007 0.0
C1259 C 0.76301 0.08771 0.50375 0.0
C1260 C 0.79849 0.0607 0.50578 0.0
C1261 C 0.81634 0.06212 0.51407 0.0
C1262 C 0.70832 0.1454 0.50813 0.0
C1263 C 0.81761 0.03032 0.4992 0.0
H1264 H 0.66485 0.03544 0.48348 0.0
H1265 H 0.75163 0.13601 0.47544 0.0
H1266 H 0.71789 0.00637 0.50236 0.0
H1267 H 0.67937 0.04651 0.50546 0.0
H1268 H 0.66514 0.00695 0.49742 0.0
H1269 H 0.80504 0.16467 0.48443 0.0
H1270 H 0.78628 0.16881 0.49537 0.0
H1271 H 0.82479 0.12814 0.49256 0.0
H1272 H 0.75234 0.13925 0.52303 0.0
H1273 H 0.84345 0.04134 0.51563 0.0
H1274 H 0.68014 0.12608 0.50596 0.0
H1275 H 0.71693 0.16772 0.50282 0.0
H1276 H 0.69849 0.1649 0.5138 0.0
H1277 H 0.7925 0.00743 0.49691 0.0
H1278 H 0.84521 0.01143 0.50181 0.0
H1279 H 0.82897 0.04889 0.49353 0.0
C1280 C 0.71042 0.00486 0.26733 0.0
C1281 C 0.67288 0.0202 0.2713 0.0
C1282 C 0.70895 0.98734 0.25903 0.0
C1283 C 0.66919 0.98668 0.25451 0.0
C1284 C 0.63105 0.00188 0.25856 0.0
C1285 C 0.63329 0.01799 0.26698 0.0
C1286 C 0.75006 0.9703 0.25503 0.0
C1287 C 0.58832 0.00273 0.25387 0.0
C1288 C 0.67814 0.9869 0.23018 0.0
C1289 C 0.66764 0.94402 0.22812 0.0
C1290 C 0.67747 0.00147 0.23872 0.0
C1291 C 0.668 0.97198 0.24542 0.0
C1292 C 0.65863 0.92834 0.24343 0.0
C1293 C 0.65821 0.915 0.23481 0.0
C1294 C 0.68727 0.04841 0.24057 0.0
C1295 C 0.64965 0.89565 0.25041 0.0
H1296 H 0.74097 0.00674 0.27074 0.0
H1297 H 0.60445 0.03041 0.27009 0.0
H1298 H 0.74489 0.93706 0.25255 0.0
H1299 H 0.75938 0.99084 0.24949 0.0
H1300 H 0.77737 0.96973 0.25967 0.0
H1301 H 0.56151 0.01446 0.25802 0.0
H1302 H 0.59082 0.0242 0.24818 0.0
H1303 H 0.58008 0.96995 0.2515 0.0
H1304 H 0.6879 0.00911 0.22519 0.0
H1305 H 0.65055 0.88164 0.2333 0.0
H1306 H 0.71767 0.051 0.24432 0.0
H1307 H 0.66109 0.06274 0.24453 0.0
H1308 H 0.69078 0.06783 0.23461 0.0
H1309 H 0.67762 0.89388 0.25486 0.0
H1310 H 0.64339 0.86282 0.24779 0.0
H1311 H 0.62121 0.90584 0.25425 0.0
C1312 C 0.76274 0.91805 0.97933 0.0
C1313 C 0.80694 0.91444 0.97744 0.0
C1314 C 0.74789 0.9178 0.98785 0.0
C1315 C 0.77808 0.91603 0.99468 0.0
C1316 C 0.82281 0.91351 0.99284 0.0
C1317 C 0.83665 0.91238 0.98425 0.0
C1318 C 0.69985 0.92006 0.98955 0.0
C1319 C 0.8561 0.91295 -6e-05 0.0
C1320 C 0.73786 0.96178 0.01586 0.0
C1321 C 0.7291 0.92413 0.02053 0.0
C1322 C 0.75539 0.9596 0.00756 0.0
C1323 C 0.76282 0.91868 0.00374 0.0
C1324 C 0.75415 0.88049 0.00848 0.0
C1325 C 0.73787 0.88371 0.01688 0.0
C1326 C 0.76537 1.00107 0.00283 0.0
C1327 C 0.76054 0.83632 0.00455 0.0
H1328 H 0.73961 0.92218 0.97418 0.0
H1329 H 0.87093 0.91022 0.98285 0.0
H1330 H 0.68999 0.89374 0.99398 0.0
H1331 H 0.69178 0.95116 0.99271 0.0
H1332 H 0.68055 0.91737 0.98355 0.0
H1333 H 0.88965 0.91081 0.99743 0.0
H1334 H 0.85317 0.94276 0.00387 0.0
H1335 H 0.85028 0.88512 0.00428 0.0
H1336 H 0.73099 0.993 0.01873 0.0
H1337 H 0.73044 0.85465 0.02049 0.0
H1338 H 0.74391 0.00419 0.99716 0.0
H1339 H 0.79917 1.00059 0.00044 0.0
H1340 H 0.76096 0.03005 0.00696 0.0
H1341 H 0.73923 0.83277 0.99885 0.0
H1342 H 0.75319 0.80985 0.00915 0.0
H1343 H 0.79434 0.8326 0.00229 0.0
C1344 C 0.62804 0.53356 0.73088 0.0
C1345 C 0.66684 0.55086 0.72778 0.0
C1346 C 0.62532 0.5172 0.73927 0.0
C1347 C 0.66258 0.51741 0.74455 0.0
C1348 C 0.70193 0.53462 0.74139 0.0
C1349 C 0.70338 0.55178 0.73307 0.0
C1350 C 0.58258 0.50013 0.74251 0.0
C1351 C 0.7426 0.53449 0.74677 0.0
C1352 C 0.65539 0.51001 0.76883 0.0
C1353 C 0.66362 0.46598 0.77023 0.0
C1354 C 0.65297 0.52683 0.76047 0.0
C1355 C 0.66076 0.49931 0.75337 0.0
C1356 C 0.66926 0.45491 0.75473 0.0
C1357 C 0.67026 0.43874 0.76314 0.0
C1358 C 0.64327 0.5743 0.75925 0.0
C1359 C 0.67873 0.42476 0.74733 0.0
H1360 H 0.59964 0.53364 0.72679 0.0
H1361 H 0.73333 0.56522 0.73062 0.0
H1362 H 0.58581 0.46558 0.74431 0.0
H1363 H 0.57283 0.51799 0.74838 0.0
H1364 H 0.55646 0.50319 0.73765 0.0
H1365 H 0.77078 0.54812 0.74326 0.0
H1366 H 0.73753 0.55363 0.75271 0.0
H1367 H 0.75049 0.50095 0.74876 0.0
H1368 H 0.65228 0.53179 0.77423 0.0
H1369 H 0.67703 0.40474 0.76418 0.0
H1370 H 0.61699 0.57862 0.75447 0.0
H1371 H 0.67231 0.59104 0.75672 0.0
H1372 H 0.63353 0.59023 0.76535 0.0
H1373 H 0.65178 0.42544 0.74263 0.0
H1374 H 0.68368 0.39086 0.74947 0.0
H1375 H 0.70826 0.43572 0.74391 0.0
C1376 C 0.7386 0.41368 0.98045 0.0
C1377 C 0.69443 0.41693 0.97854 0.0
C1378 C 0.75308 0.41263 0.98899 0.0
C1379 C 0.72281 0.41682 0.99576 0.0
C1380 C 0.67824 0.4207 0.99388 0.0
C1381 C 0.66456 0.42043 0.98529 0.0
C1382 C 0.80089 0.40803 0.99074 0.0
C1383 C 0.64514 0.42634 0.00093 0.0
C1384 C 0.75754 0.38467 0.01827 0.0
C1385 C 0.77147 0.42441 0.02155 0.0
C1386 C 0.7413 0.38165 0.00987 0.0
C1387 C 0.73816 0.41948 0.00478 0.0
C1388 C 0.75108 0.45989 0.0082 0.0
C1389 C 0.76827 0.46172 0.01652 0.0
C1390 C 0.72882 0.3379 0.00635 0.0
C1391 C 0.74725 0.5011 0.00304 0.0
H1392 H 0.76213 0.41321 0.97531 0.0
H1393 H 0.63041 0.42349 0.98384 0.0
H1394 H 0.8135 0.43827 0.99364 0.0
H1395 H 0.80664 0.38158 0.99543 0.0
H1396 H 0.81964 0.4011 0.98481 0.0
H1397 H 0.6116 0.42794 0.99839 0.0
H1398 H 0.64725 0.39919 0.00557 0.0
H1399 H 0.65193 0.45652 0.00454 0.0
H1400 H 0.76076 0.35577 0.02216 0.0
H1401 H 0.77909 0.49241 0.01912 0.0
H1402 H 0.74955 0.32995 0.00075 0.0
H1403 H 0.69489 0.33842 0.00405 0.0
H1404 H 0.73223 0.31182 0.01121 0.0
H1405 H 0.76874 0.49949 0.99735 0.0
H1406 H 0.75603 0.53015 0.00686 0.0
H1407 H 0.71367 0.505 0.00065 0.0
C1408 C 0.8744 0.50721 0.26868 0.0
C1409 C 0.8341 0.5168 0.27229 0.0
C1410 C 0.87739 0.49021 0.26033 0.0
C1411 C 0.83908 0.48166 0.25564 0.0
C1412 C 0.79825 0.48982 0.25943 0.0
C1413 C 0.7963 0.50807 0.26767 0.0
C1414 C 0.92148 0.48304 0.25642 0.0
C1415 C 0.75666 0.48001 0.25473 0.0
C1416 C 0.84032 0.48168 0.23127 0.0
C1417 C 0.84393 0.43748 0.22939 0.0
C1418 C 0.84026 0.49653 0.23978 0.0
C1419 C 0.84158 0.46629 0.2466 0.0
C1420 C 0.84382 0.42153 0.24477 0.0
C1421 C 0.84535 0.4077 0.23619 0.0
C1422 C 0.83831 0.5446 0.24146 0.0
C1423 C 0.84382 0.38827 0.25188 0.0
H1424 H 0.90356 0.51461 0.27225 0.0
H1425 H 0.76519 0.51555 0.27052 0.0
H1426 H 0.9247 0.44915 0.25418 0.0
H1427 H 0.92539 0.50421 0.25071 0.0
H1428 H 0.94804 0.49006 0.26101 0.0
H1429 H 0.72777 0.48463 0.25888 0.0
H1430 H 0.75357 0.50144 0.24905 0.0
H1431 H 0.7569 0.44619 0.25235 0.0
H1432 H 0.83657 0.50483 0.22611 0.0
H1433 H 0.84739 0.37342 0.23479 0.0
H1434 H 0.86473 0.5543 0.24589 0.0
H1435 H 0.80729 0.55289 0.24464 0.0
H1436 H 0.84109 0.56387 0.23546 0.0
H1437 H 0.87171 0.39369 0.25622 0.0
H1438 H 0.84547 0.35468 0.24937 0.0
H1439 H 0.81404 0.39167 0.2558 0.0
C1440 C 0.66152 0.61802 0.51501 0.0
C1441 C 0.67935 0.59084 0.52128 0.0
C1442 C 0.67763 0.61816 0.50659 0.0
C1443 C 0.71184 0.58987 0.50437 0.0
C1444 C 0.72906 0.56143 0.51063 0.0
C1445 C 0.71262 0.56233 0.51903 0.0
C1446 C 0.65873 0.64921 0.50011 0.0
C1447 C 0.76511 0.53033 0.50847 0.0
C1448 C 0.73341 0.56545 0.48082 0.0
C1449 C 0.76921 0.59193 0.47919 0.0
C1450 C 0.71405 0.56466 0.48898 0.0
C1451 C 0.73086 0.5912 0.49561 0.0
C1452 C 0.76666 0.61842 0.49394 0.0
C1453 C 0.78565 0.61813 0.48576 0.0
C1454 C 0.67633 0.53473 0.49058 0.0
C1455 C 0.78518 0.64756 0.5008 0.0
H1456 H 0.63561 0.63994 0.51676 0.0
H1457 H 0.7254 0.54025 0.52379 0.0
H1458 H 0.6841 0.67201 0.4979 0.0
H1459 H 0.64713 0.63131 0.49438 0.0
H1460 H 0.63139 0.66819 0.50279 0.0
H1461 H 0.7736 0.50909 0.51398 0.0
H1462 H 0.75564 0.50973 0.50294 0.0
H1463 H 0.7944 0.5486 0.50653 0.0
H1464 H 0.72141 0.5443 0.47581 0.0
H1465 H 0.81338 0.63862 0.48449 0.0
H1466 H 0.64822 0.55331 0.49302 0.0
H1467 H 0.68505 0.51074 0.49559 0.0
H1468 H 0.66637 0.5171 0.48468 0.0
H1469 H 0.75954 0.66899 0.5034 0.0
H1470 H 0.81206 0.66797 0.49836 0.0
H1471 H 0.79745 0.62779 0.50623 0.0
C1472 C 0.37868 0.5051 0.26768 0.0
C1473 C 0.33856 0.49176 0.27089 0.0
C1474 C 0.38215 0.52271 0.25939 0.0
C1475 C 0.34442 0.52791 0.25433 0.0
C1476 C 0.30361 0.51609 0.25773 0.0
C1477 C 0.3013 0.49744 0.26592 0.0
C1478 C 0.42631 0.53389 0.2559 0.0
C1479 C 0.26251 0.52212 0.25262 0.0
C1480 C 0.34662 0.60121 0.23473 0.0
C1481 C 0.34888 0.57105 0.22801 0.0
C1482 C 0.34571 0.58776 0.24335 0.0
C1483 C 0.34768 0.5431 0.24528 0.0
C1484 C 0.35048 0.51253 0.23854 0.0
C1485 C 0.35 0.52683 0.22999 0.0
C1486 C 0.34144 0.62122 0.25036 0.0
C1487 C 0.35303 0.46459 0.24033 0.0
H1488 H 0.40751 0.50002 0.27151 0.0
H1489 H 0.27031 0.48708 0.26845 0.0
H1490 H 0.43384 0.51264 0.25035 0.0
H1491 H 0.4268 0.5677 0.25353 0.0
H1492 H 0.45213 0.53 0.26081 0.0
H1493 H 0.23316 0.51509 0.2565 0.0
H1494 H 0.26037 0.55577 0.25018 0.0
H1495 H 0.26269 0.50033 0.24696 0.0
H1496 H 0.34504 0.63542 0.23324 0.0
H1497 H 0.34927 0.50314 0.22487 0.0
H1498 H 0.36838 0.618 0.25502 0.0
H1499 H 0.31092 0.61586 0.25396 0.0
H1500 H 0.34138 0.65474 0.24779 0.0
H1501 H 0.37919 0.4578 0.24502 0.0
H1502 H 0.35917 0.44545 0.23441 0.0
H1503 H 0.32226 0.45334 0.24323 0.0
C1504 C 0.28644 0.55886 0.01329 0.0
C1505 C 0.27014 0.58714 0.01955 0.0
C1506 C 0.26908 0.55785 0.00497 0.0
C1507 C 0.23464 0.58595 0.00283 0.0
C1508 C 0.21771 0.61433 0.00914 0.0
C1509 C 0.23585 0.61476 0.01742 0.0
C1510 C 0.28807 0.52715 0.99843 0.0
C1511 C 0.18107 0.64488 0.00708 0.0
C1512 C 0.21919 0.61291 0.97921 0.0
C1513 C 0.18565 0.58473 0.9769 0.0
C1514 C 0.23533 0.61378 0.98764 0.0
C1515 C 0.21709 0.58619 0.99393 0.0
C1516 C 0.18272 0.5582 0.99168 0.0
C1517 C 0.16736 0.5579 0.98319 0.0
C1518 C 0.27191 0.64424 0.98981 0.0
C1519 C 0.16237 0.52839 0.99821 0.0
H1520 H 0.31306 0.53752 0.0149 0.0
H1521 H 0.22403 0.63774 0.02211 0.0
H1522 H 0.26244 0.50571 0.99584 0.0
H1523 H 0.30151 0.54571 0.99294 0.0
H1524 H 0.31418 0.50672 0.00118 0.0
H1525 H 0.17031 0.6635 0.0128 0.0
H1526 H 0.19137 0.66801 0.00203 0.0
H1527 H 0.15307 0.6266 0.0045 0.0
H1528 H 0.23233 0.63499 0.97449 0.0
H1529 H 0.14117 0.53629 0.98145 0.0
H1530 H 0.30004 0.62563 0.99224 0.0
H1531 H 0.2618 0.66663 0.995 0.0
H1532 H 0.28245 0.66366 0.98418 0.0
H1533 H 0.18706 0.50575 0.00077 0.0
H1534 H 0.13533 0.50921 0.99546 0.0
H1535 H 0.14992 0.54741 0.00373 0.0
C1536 C 0.1413 0.43409 0.73443 0.0
C1537 C 0.16822 0.45045 0.72795 0.0
C1538 C 0.14111 0.45236 0.74268 0.0
C1539 C 0.16906 0.48739 0.74454 0.0
C1540 C 0.19697 0.50348 0.73806 0.0
C1541 C 0.19616 0.48482 0.72984 0.0
C1542 C 0.11061 0.43455 0.74939 0.0
C1543 C 0.22769 0.54036 0.73983 0.0
C1544 C 0.14025 0.56186 0.76307 0.0
C1545 C 0.16642 0.54572 0.76969 0.0
C1546 C 0.14066 0.54305 0.75487 0.0
C1547 C 0.16848 0.50768 0.75321 0.0
C1548 C 0.19544 0.49161 0.75984 0.0
C1549 C 0.19403 0.51081 0.76802 0.0
C1550 C 0.11115 0.56087 0.748 0.0
C1551 C 0.22599 0.45435 0.75827 0.0
H1552 H 0.11975 0.4074 0.73299 0.0
H1553 H 0.21801 0.49663 0.72493 0.0
H1554 H 0.12909 0.42353 0.75509 0.0
H1555 H 0.08825 0.46036 0.75158 0.0
H1556 H 0.09113 0.40702 0.74693 0.0
H1557 H 0.2479 0.5485 0.73416 0.0
H1558 H 0.20923 0.56957 0.74175 0.0
H1559 H 0.24931 0.53195 0.74527 0.0
H1560 H 0.11894 0.58894 0.76435 0.0
H1561 H 0.2153 0.49913 0.77303 0.0
H1562 H 0.08918 0.53506 0.74566 0.0
H1563 H 0.13049 0.57201 0.74242 0.0
H1564 H 0.09127 0.58835 0.75035 0.0
H1565 H 0.20756 0.42541 0.75619 0.0
H1566 H 0.245 0.44588 0.76409 0.0
H1567 H 0.24874 0.46262 0.75301 0.0
C1568 C 0.22808 0.38422 0.51796 0.0
C1569 C 0.19466 0.41259 0.52024 0.0
C1570 C 0.24532 0.3842 0.50962 0.0
C1571 C 0.22832 0.41288 0.50339 0.0
C1572 C 0.1941 0.44112 0.50561 0.0
C1573 C 0.17758 0.44052 0.51401 0.0
C1574 C 0.28165 0.3534 0.50748 0.0
C1575 C 0.17505 0.47205 0.49913 0.0
C1576 C 0.29952 0.44042 0.48429 0.0
C1577 C 0.28277 0.41319 0.4779 0.0
C1578 C 0.28177 0.44102 0.49258 0.0
C1579 C 0.24658 0.41349 0.49455 0.0
C1580 C 0.22945 0.38596 0.48812 0.0
C1581 C 0.24794 0.38596 0.47988 0.0
C1582 C 0.30098 0.47075 0.49927 0.0
C1583 C 0.19208 0.35597 0.49 0.0
H1584 H 0.24029 0.36139 0.52264 0.0
H1585 H 0.15151 0.4623 0.51573 0.0
H1586 H 0.27168 0.3316 0.50217 0.0
H1587 H 0.31028 0.37178 0.50521 0.0
H1588 H 0.29139 0.33336 0.51308 0.0
H1589 H 0.14826 0.49162 0.50186 0.0
H1590 H 0.2005 0.49431 0.49674 0.0
H1591 H 0.1626 0.45386 0.4935 0.0
H1592 H 0.32661 0.46137 0.48279 0.0
H1593 H 0.23585 0.36368 0.47509 0.0
H1594 H 0.31351 0.45148 0.50474 0.0
H1595 H 0.27566 0.49262 0.50184 0.0
H1596 H 0.32779 0.49073 0.49666 0.0
H1597 H 0.20148 0.33245 0.49504 0.0
H1598 H 0.18151 0.33778 0.48421 0.0
H1599 H 0.16417 0.37465 0.4925 0.0
C1600 C 0.05053 0.1623 0.17399 0.0
C1601 C 0.08719 0.17138 0.17897 0.0
C1602 C 0.01562 0.1911 0.1737 0.0
C1603 C 0.01822 0.23051 0.17827 0.0
C1604 C 0.05617 0.24083 0.18296 0.0
C1605 C 0.08995 0.21064 0.1834 0.0
C1606 C 0.97517 0.17833 0.16888 0.0
C1607 C 0.06058 0.28322 0.18769 0.0
C1608 C 0.94356 0.32341 0.17278 0.0
C1609 C 0.91567 0.32361 0.1799 0.0
C1610 C 0.97642 0.29249 0.17203 0.0
C1611 C 0.98074 0.26039 0.17844 0.0
C1612 C 0.95071 0.25848 0.1853 0.0
C1613 C 0.91879 0.2905 0.18601 0.0
C1614 C 0.00818 0.29593 0.16468 0.0
C1615 C 0.95351 0.22379 0.19211 0.0
H1616 H 0.04802 0.13143 0.17072 0.0
H1617 H 0.11824 0.21741 0.18728 0.0
H1618 H 0.94804 0.1745 0.17349 0.0
H1619 H 0.96579 0.20402 0.16428 0.0
H1620 H 0.97922 0.1475 0.16531 0.0
H1621 H 0.0935 0.28777 0.1904 0.0
H1622 H 0.05337 0.31061 0.18331 0.0
H1623 H 0.03685 0.28454 0.19303 0.0
H1624 H 0.94157 0.34908 0.16805 0.0
H1625 H 0.89718 0.29041 0.1915 0.0
H1626 H 0.01151 0.26439 0.16136 0.0
H1627 H 0.04053 0.30464 0.16724 0.0
H1628 H 0.99841 0.32073 0.1599 0.0
H1629 H 0.95618 0.19141 0.18909 0.0
H1630 H 0.92498 0.22397 0.19645 0.0
H1631 H 0.98299 0.22879 0.19605 0.0
C1632 C 0.04397 0.83242 0.4299 0.0
C1633 C 0.08032 0.8295 0.43523 0.0
C1634 C 0.01187 0.80032 0.4301 0.0
C1635 C 0.01728 0.76386 0.43551 0.0
C1636 C 0.05401 0.76081 0.44088 0.0
C1637 C 0.08473 0.79404 0.44078 0.0
C1638 C 0.97237 0.80524 0.42448 0.0
C1639 C 0.06149 0.7219 0.44657 0.0
C1640 C 0.91947 0.6976 0.44184 0.0
C1641 C 0.9203 0.66431 0.43572 0.0
C1642 C 0.95066 0.73038 0.44179 0.0
C1643 C 0.9843 0.72905 0.43565 0.0
C1644 C 0.98636 0.69458 0.42966 0.0
C1645 C 0.95379 0.66293 0.42967 0.0
C1646 C 0.94676 0.76718 0.44813 0.0
C1647 C 0.02263 0.69145 0.4232 0.0
H1648 H 0.04071 0.85976 0.42559 0.0
H1649 H 0.11329 0.79126 0.44478 0.0
H1650 H 0.97107 0.77856 0.41973 0.0
H1651 H 0.94265 0.80307 0.42846 0.0
H1652 H 0.9721 0.8365 0.42096 0.0
H1653 H 0.0923 0.72413 0.45021 0.0
H1654 H 0.03453 0.71839 0.45121 0.0
H1655 H 0.0622 0.69209 0.4426 0.0
H1656 H 0.89317 0.69923 0.44644 0.0
H1657 H 0.95437 0.63726 0.42492 0.0
H1658 H 0.94378 0.79828 0.44462 0.0
H1659 H 0.97631 0.76923 0.45215 0.0
H1660 H 0.91834 0.76355 0.45244 0.0
H1661 H 0.02139 0.71946 0.41875 0.0
H1662 H 0.02094 0.66126 0.41934 0.0
H1663 H 0.05433 0.69261 0.42653 0.0
C1664 C 0.41785 0.79929 0.67657 0.0
C1665 C 0.42257 0.8379 0.68116 0.0
C1666 C 0.45094 0.76815 0.67661 0.0
C1667 C 0.49009 0.77697 0.68103 0.0
C1668 C 0.49525 0.81654 0.68546 0.0
C1669 C 0.46108 0.84616 0.68561 0.0
C1670 C 0.44384 0.72567 0.67205 0.0
C1671 C 0.53697 0.82777 0.69 0.0
C1672 C 0.55967 0.68432 0.68879 0.0
C1673 C 0.59033 0.6808 0.68218 0.0
C1674 C 0.5266 0.7151 0.68842 0.0
C1675 C 0.52493 0.74405 0.68139 0.0
C1676 C 0.5567 0.7418 0.67485 0.0
C1677 C 0.58869 0.70959 0.67524 0.0
C1678 C 0.49273 0.7158 0.69542 0.0
C1679 C 0.5567 0.77318 0.66742 0.0
H1680 H 0.38813 0.79327 0.67308 0.0
H1681 H 0.46506 0.87662 0.68897 0.0
H1682 H 0.46875 0.72109 0.667 0.0
H1683 H 0.44726 0.69856 0.67667 0.0
H1684 H 0.41139 0.72369 0.66902 0.0
H1685 H 0.53687 0.86132 0.69256 0.0
H1686 H 0.54242 0.80514 0.69542 0.0
H1687 H 0.56468 0.82423 0.68552 0.0
H1688 H 0.5603 0.66162 0.6941 0.0
H1689 H 0.61228 0.7068 0.67011 0.0
H1690 H 0.46013 0.71142 0.69257 0.0
H1691 H 0.49289 0.74758 0.69872 0.0
H1692 H 0.49798 0.69011 0.7003 0.0
H1693 H 0.52675 0.76917 0.66358 0.0
H1694 H 0.58498 0.76854 0.66311 0.0
H1695 H 0.55702 0.8069 0.66986 0.0
C1696 C 0.45065 0.16297 0.92803 0.0
C1697 C 0.41298 0.16688 0.93295 0.0
C1698 C 0.48187 0.19597 0.92806 0.0
C1699 C 0.47408 0.23427 0.93283 0.0
C1700 C 0.43563 0.23853 0.93767 0.0
C1701 C 0.40594 0.20441 0.9378 0.0
C1702 C 0.52322 0.1898 0.92305 0.0
C1703 C 0.42549 0.27939 0.9426 0.0
C1704 C 0.56816 0.30401 0.93985 0.0
C1705 C 0.56944 0.33539 0.93334 0.0
C1706 C 0.53762 0.27065 0.93968 0.0
C1707 C 0.50668 0.26944 0.933 0.0
C1708 C 0.50671 0.30196 0.92658 0.0
C1709 C 0.5387 0.33421 0.92674 0.0
C1710 C 0.53933 0.23596 0.94651 0.0
C1711 C 0.47321 0.30247 0.91953 0.0
H1712 H 0.45578 0.13402 0.92424 0.0
H1713 H 0.37622 0.20784 0.94144 0.0
H1714 H 0.5261 0.21512 0.91804 0.0
H1715 H 0.55147 0.19332 0.9274 0.0
H1716 H 0.52485 0.15759 0.91991 0.0
H1717 H 0.39299 0.27838 0.94564 0.0
H1718 H 0.44998 0.28456 0.9477 0.0
H1719 H 0.42693 0.30773 0.93823 0.0
H1720 H 0.59241 0.30431 0.94488 0.0
H1721 H 0.53981 0.35836 0.92169 0.0
H1722 H 0.54343 0.20379 0.94346 0.0
H1723 H 0.50849 0.23516 0.95015 0.0
H1724 H 0.56622 0.24105 0.95114 0.0
H1725 H 0.47647 0.27307 0.9155 0.0
H1726 H 0.47625 0.33135 0.91532 0.0
H1727 H 0.44026 0.30201 0.92235 0.0
C1728 C 0.05406 0.83233 0.3073 0.0
C1729 C 0.0877 0.82864 0.3133 0.0
C1730 C 0.02003 0.80247 0.30714 0.0
C1731 C 0.02042 0.76727 0.31293 0.0
C1732 C 0.05531 0.76225 0.31876 0.0
C1733 C 0.08822 0.79353 0.31898 0.0
C1734 C 0.98282 0.8096 0.30101 0.0
C1735 C 0.05747 0.72428 0.32484 0.0
C1736 C 0.91611 0.71037 0.31909 0.0
C1737 C 0.91694 0.67447 0.31361 0.0
C1738 C 0.94889 0.74174 0.31873 0.0
C1739 C 0.98397 0.73603 0.31298 0.0
C1740 C 0.98458 0.70013 0.30735 0.0
C1741 C 0.95066 0.67016 0.30764 0.0
C1742 C 0.94646 0.78046 0.32462 0.0
C1743 C 0.02199 0.6923 0.30131 0.0
H1744 H 0.05311 0.85992 0.303 0.0
H1745 H 0.11415 0.79076 0.32364 0.0
H1746 H 0.9784 0.78088 0.29683 0.0
H1747 H 0.95243 0.81397 0.3047 0.0
H1748 H 0.98772 0.83842 0.29685 0.0
H1749 H 0.08827 0.72345 0.32851 0.0
H1750 H 0.03025 0.72589 0.32947 0.0
H1751 H 0.05413 0.69355 0.32122 0.0
H1752 H 0.89012 0.7136 0.32372 0.0
H1753 H 0.95184 0.64196 0.30351 0.0
H1754 H 0.95006 0.81074 0.32086 0.0
H1755 H 0.9734 0.77937 0.32931 0.0
H1756 H 0.91545 0.78179 0.32821 0.0
H1757 H 0.02665 0.72058 0.29702 0.0
H1758 H 0.01718 0.66308 0.29726 0.0
H1759 H 0.05224 0.68822 0.30506 0.0
C1760 C 0.53656 0.66541 0.56609 0.0
C1761 C 0.57339 0.6644 0.57132 0.0
C1762 C 0.50636 0.69904 0.56683 0.0
C1763 C 0.51399 0.73302 0.57275 0.0
C1764 C 0.55009 0.73111 0.57831 0.0
C1765 C 0.57909 0.69646 0.57761 0.0
C1766 C 0.4674 0.69929 0.56098 0.0
C1767 C 0.55977 0.76709 0.58458 0.0
C1768 C 0.46388 0.83897 0.56571 0.0
C1769 C 0.4265 0.84026 0.57078 0.0
C1770 C 0.49406 0.80547 0.56667 0.0
C1771 C 0.48585 0.77188 0.57264 0.0
C1772 C 0.44918 0.77412 0.57805 0.0
C1773 C 0.42021 0.80866 0.57713 0.0
C1774 C 0.53363 0.80489 0.56098 0.0
C1775 C 0.43888 0.73854 0.58438 0.0
H1776 H 0.53207 0.64062 0.56125 0.0
H1777 H 0.60782 0.69613 0.5816 0.0
H1778 H 0.43752 0.70528 0.56474 0.0
H1779 H 0.47052 0.72588 0.55623 0.0
H1780 H 0.46372 0.66834 0.55743 0.0
H1781 H 0.58652 0.75862 0.58904 0.0
H1782 H 0.56907 0.79663 0.58098 0.0
H1783 H 0.53067 0.77518 0.58843 0.0
H1784 H 0.46882 0.86341 0.56081 0.0
H1785 H 0.39103 0.8092 0.581 0.0
H1786 H 0.53099 0.77804 0.55628 0.0
H1787 H 0.56311 0.79911 0.56488 0.0
H1788 H 0.53768 0.83564 0.55738 0.0
H1789 H 0.42988 0.70879 0.58082 0.0
H1790 H 0.41172 0.74732 0.58872 0.0
H1791 H 0.4676 0.73067 0.58835 0.0
C1792 C 0.44991 0.16577 0.80657 0.0
C1793 C 0.41537 0.17088 0.81233 0.0
C1794 C 0.48438 0.19513 0.80645 0.0
C1795 C 0.48356 0.23121 0.81203 0.0
C1796 C 0.4478 0.23764 0.81758 0.0
C1797 C 0.41441 0.20689 0.81778 0.0
C1798 C 0.52247 0.18654 0.80061 0.0
C1799 C 0.44521 0.27656 0.82342 0.0
C1800 C 0.58755 0.28792 0.81847 0.0
C1801 C 0.58793 0.32301 0.81279 0.0
C1802 C 0.55447 0.25686 0.8181 0.0
C1803 C 0.52036 0.26202 0.81211 0.0
C1804 C 0.52098 0.29706 0.80628 0.0
C1805 C 0.55512 0.32674 0.8066 0.0
C1806 C 0.55554 0.21904 0.82424 0.0
C1807 C 0.48465 0.30428 0.79995 0.0
H1808 H 0.45118 0.13748 0.80246 0.0
H1809 H 0.38779 0.21074 0.82225 0.0
H1810 H 0.52794 0.21452 0.79629 0.0
H1811 H 0.55219 0.18241 0.80452 0.0
H1812 H 0.51787 0.15713 0.79662 0.0
H1813 H 0.41387 0.27835 0.82689 0.0
H1814 H 0.47167 0.27533 0.82822 0.0
H1815 H 0.44952 0.30668 0.81963 0.0
H1816 H 0.61283 0.28505 0.82327 0.0
H1817 H 0.55485 0.35426 0.80228 0.0
H1818 H 0.55221 0.18823 0.82064 0.0
H1819 H 0.52786 0.22111 0.82875 0.0
H1820 H 0.58594 0.21796 0.82804 0.0
H1821 H 0.48048 0.27541 0.7958 0.0
H1822 H 0.49037 0.33285 0.79577 0.0
H1823 H 0.45383 0.30912 0.80347 0.0
C1824 C 0.07343 0.20303 0.05808 0.0
C1825 C 0.0715 0.17034 0.06433 0.0
C1826 C 0.04337 0.23687 0.05801 0.0
C1827 C 0.00972 0.23728 0.06416 0.0
C1828 C 0.00644 0.20336 0.07025 0.0
C1829 C 0.0379 0.17061 0.07036 0.0
C1830 C 0.04861 0.27301 0.05156 0.0
C1831 C 0.97007 0.20202 0.07672 0.0
C1832 C 0.95376 0.34306 0.06971 0.0
C1833 C 0.91736 0.34119 0.06438 0.0
C1834 C 0.98477 0.30988 0.06955 0.0
C1835 C 0.97807 0.27336 0.06421 0.0
C1836 C 0.94123 0.27137 0.05884 0.0
C1837 C 0.91174 0.30569 0.05888 0.0
C1838 C 0.02447 0.31371 0.07515 0.0
C1839 C 0.93223 0.23239 0.05327 0.0
H1840 H 0.09982 0.20341 0.0535 0.0
H1841 H 0.03647 0.14544 0.0752 0.0
H1842 H 0.01908 0.27595 0.04756 0.0
H1843 H 0.05291 0.30422 0.05498 0.0
H1844 H 0.07677 0.26793 0.04724 0.0
H1845 H 0.97053 0.17197 0.08063 0.0
H1846 H 0.97249 0.23016 0.08112 0.0
H1847 H 0.93844 0.20432 0.07339 0.0
H1848 H 0.95787 0.37039 0.074 0.0
H1849 H 0.88303 0.30373 0.0549 0.0
H1850 H 0.05407 0.31 0.07118 0.0
H1851 H 0.0247 0.28743 0.08 0.0
H1852 H 0.02601 0.34525 0.07855 0.0
H1853 H 0.95909 0.22741 0.04865 0.0
H1854 H 0.90159 0.23561 0.0496 0.0
H1855 H 0.93023 0.20294 0.05733 0.0
C1856 C 0.05434 0.66952 0.82296 0.0
C1857 C 0.08914 0.67502 0.81728 0.0
C1858 C 0.0199 0.69892 0.82312 0.0
C1859 C 0.02104 0.73551 0.81767 0.0
C1860 C 0.05714 0.74239 0.81222 0.0
C1861 C 0.09044 0.71153 0.81196 0.0
C1862 C 0.98145 0.68977 0.82882 0.0
C1863 C 0.06015 0.78188 0.80655 0.0
C1864 C 0.91705 0.79209 0.81113 0.0
C1865 C 0.91573 0.82636 0.81701 0.0
C1866 C 0.95046 0.76136 0.81146 0.0
C1867 C 0.98408 0.76617 0.81758 0.0
C1868 C 0.98262 0.80055 0.82356 0.0
C1869 C 0.94806 0.82979 0.8233 0.0
C1870 C 0.9502 0.72421 0.80516 0.0
C1871 C 0.01846 0.80752 0.83001 0.0
H1872 H 0.05279 0.64083 0.82696 0.0
H1873 H 0.11723 0.71565 0.80755 0.0
H1874 H 0.9756 0.71736 0.83322 0.0
H1875 H 0.95201 0.68587 0.82482 0.0
H1876 H 0.98585 0.66004 0.83274 0.0
H1877 H 0.09184 0.78414 0.80322 0.0
H1878 H 0.03421 0.78098 0.80163 0.0
H1879 H 0.05528 0.81161 0.81043 0.0
H1880 H 0.89218 0.78958 0.80625 0.0
H1881 H 0.94763 0.8568 0.82774 0.0
H1882 H 0.95344 0.69305 0.80865 0.0
H1883 H 0.97824 0.72695 0.80075 0.0
H1884 H 0.92014 0.72331 0.80126 0.0
H1885 H 0.02259 0.77836 0.83407 0.0
H1886 H 0.01224 0.83571 0.83426 0.0
H1887 H 0.04948 0.81289 0.82658 0.0
C1888 C 0.96011 0.16682 0.56335 0.0
C1889 C 0.92407 0.16666 0.5688 0.0
C1890 C 0.99152 0.19946 0.56398 0.0
C1891 C 0.98582 0.23342 0.57 0.0
C1892 C 0.94999 0.23282 0.57564 0.0
C1893 C 0.9199 0.19906 0.57506 0.0
C1894 C 0.03012 0.19828 0.55805 0.0
C1895 C 0.94216 0.26901 0.58197 0.0
C1896 C 0.08248 0.30405 0.57529 0.0
C1897 C 0.07796 0.3375 0.56926 0.0
C1898 C 0.05243 0.27017 0.57569 0.0
C1899 C 0.01633 0.27052 0.5701 0.0
C1900 C 0.01023 0.30561 0.56437 0.0
C1901 C 0.04158 0.33835 0.56391 0.0
C1902 C 0.06064 0.23284 0.58173 0.0
C1903 C 0.97132 0.30784 0.55853 0.0
H1904 H 0.96334 0.14182 0.55851 0.0
H1905 H 0.89169 0.19947 0.5792 0.0
H1906 H 0.02839 0.22567 0.55346 0.0
H1907 H 0.06046 0.20203 0.56178 0.0
H1908 H 0.03186 0.16768 0.55432 0.0
H1909 H 0.91392 0.26259 0.5862 0.0
H1910 H 0.97108 0.27407 0.58606 0.0
H1911 H 0.93632 0.2996 0.57843 0.0
H1912 H 0.11098 0.3029 0.57934 0.0
H1913 H 0.03811 0.36416 0.55925 0.0
H1914 H 0.06663 0.20301 0.57794 0.0
H1915 H 0.03185 0.22675 0.5858 0.0
H1916 H 0.08893 0.23863 0.58597 0.0
H1917 H 0.97292 0.28142 0.55372 0.0
H1918 H 0.9693 0.33917 0.55505 0.0
H1919 H 0.94118 0.30323 0.56229 0.0
C1920 C 0.45307 0.33471 0.30622 0.0
C1921 C 0.41903 0.33026 0.31212 0.0
C1922 C 0.48722 0.30496 0.30603 0.0
C1923 C 0.48657 0.26913 0.31168 0.0
C1924 C 0.45118 0.26329 0.31735 0.0
C1925 C 0.41816 0.29443 0.31762 0.0
C1926 C 0.52493 0.31297 0.30007 0.0
C1927 C 0.44869 0.22467 0.32327 0.0
C1928 C 0.55754 0.17275 0.30644 0.0
C1929 C 0.59045 0.17671 0.3126 0.0
C1930 C 0.5236 0.20269 0.30605 0.0
C1931 C 0.52332 0.23821 0.31177 0.0
C1932 C 0.55764 0.24361 0.31771 0.0
C1933 C 0.59046 0.2123 0.31816 0.0
C1934 C 0.48703 0.19516 0.29978 0.0
C1935 C 0.55914 0.2819 0.32372 0.0
H1936 H 0.45429 0.36286 0.30208 0.0
H1937 H 0.39194 0.29107 0.3222 0.0
H1938 H 0.55485 0.31766 0.30389 0.0
H1939 H 0.53028 0.28454 0.29586 0.0
H1940 H 0.52001 0.34192 0.29595 0.0
H1941 H 0.41745 0.22312 0.32678 0.0
H1942 H 0.45283 0.19434 0.31954 0.0
H1943 H 0.47529 0.22612 0.32804 0.0
H1944 H 0.55696 0.14484 0.30222 0.0
H1945 H 0.61582 0.21533 0.32293 0.0
H1946 H 0.48256 0.22388 0.29561 0.0
H1947 H 0.45639 0.19032 0.30337 0.0
H1948 H 0.49266 0.16647 0.29564 0.0
H1949 H 0.55567 0.31244 0.32004 0.0
H1950 H 0.58975 0.28321 0.32745 0.0
H1951 H 0.53172 0.28022 0.3283 0.0
C1952 C 0.539 0.84419 0.06832 0.0
C1953 C 0.5738 0.84385 0.06256 0.0
C1954 C 0.50749 0.81151 0.06809 0.0
C1955 C 0.51186 0.77701 0.06215 0.0
C1956 C 0.54662 0.7769 0.05625 0.0
C1957 C 0.57679 0.81069 0.05643 0.0
C1958 C 0.47001 0.81344 0.07429 0.0
C1959 C 0.55297 0.74018 0.04997 0.0
C1960 C 0.45474 0.67217 0.06798 0.0
C1961 C 0.41885 0.67354 0.06251 0.0
C1962 C 0.48607 0.70507 0.06776 0.0
C1963 C 0.48028 0.74082 0.06217 0.0
C1964 C 0.44409 0.74222 0.05663 0.0
C1965 C 0.41422 0.7082 0.05676 0.0
C1966 C 0.52505 0.70186 0.07356 0.0
C1967 C 0.43605 0.78037 0.05078 0.0
H1968 H 0.53672 0.86974 0.07307 0.0
H1969 H 0.6041 0.80986 0.05206 0.0
H1970 H 0.43897 0.81058 0.07076 0.0
H1971 H 0.47179 0.78586 0.07883 0.0
H1972 H 0.46967 0.84396 0.07806 0.0
H1973 H 0.58155 0.74517 0.04576 0.0
H1974 H 0.55727 0.70941 0.05354 0.0
H1975 H 0.52392 0.73642 0.04586 0.0
H1976 H 0.45821 0.64548 0.07245 0.0
H1977 H 0.38599 0.7098 0.05264 0.0
H1978 H 0.52462 0.72862 0.0783 0.0
H1979 H 0.55516 0.70521 0.06973 0.0
H1980 H 0.52617 0.67068 0.0771 0.0
H1981 H 0.43304 0.81032 0.05466 0.0
H1982 H 0.4062 0.77646 0.04688 0.0
H1983 H 0.46381 0.78495 0.04636 0.0
C1984 C 0.92016 0.21073 0.68553 0.0
C1985 C 0.91863 0.17676 0.67959 0.0
C1986 C 0.9531 0.24194 0.68513 0.0
C1987 C 0.98603 0.23799 0.67884 0.0
C1988 C 0.98425 0.20404 0.67276 0.0
C1989 C 0.95017 0.17426 0.67313 0.0
C1990 C 0.95319 0.27858 0.69154 0.0
C1991 C 0.01939 0.19798 0.66612 0.0
C1992 C 0.05565 0.33568 0.67379 0.0
C1993 C 0.09064 0.32963 0.67939 0.0
C1994 C 0.02142 0.30601 0.67351 0.0
C1995 C 0.02298 0.2687 0.67876 0.0
C1996 C 0.0594 0.26122 0.68408 0.0
C1997 C 0.09248 0.29227 0.68446 0.0
C1998 C 0.98263 0.31574 0.66793 0.0
C1999 C 0.0629 0.221 0.68954 0.0
H2000 H 0.89587 0.21259 0.69055 0.0
H2001 H 0.94958 0.14755 0.66862 0.0
H2002 H 0.98155 0.27555 0.69586 0.0
H2003 H 0.9561 0.31004 0.68815 0.0
H2004 H 0.92341 0.27906 0.69553 0.0
H2005 H 0.01265 0.17047 0.66173 0.0
H2006 H 0.02322 0.22774 0.66222 0.0
H2007 H 0.05072 0.19202 0.66939 0.0
H2008 H 0.05372 0.36499 0.66998 0.0
H2009 H 0.11945 0.28769 0.68882 0.0
H2010 H 0.95357 0.31979 0.67204 0.0
H2011 H 0.97612 0.28838 0.66351 0.0
H2012 H 0.98704 0.34558 0.66405 0.0
H2013 H 0.03744 0.22131 0.69456 0.0
H2014 H 0.0949 0.21829 0.69273 0.0
H2015 H 0.05763 0.19177 0.68553 0.0
C2016 C 0.45099 0.33246 0.43712 0.0
C2017 C 0.41712 0.33195 0.43115 0.0
C2018 C 0.48315 0.30043 0.43694 0.0
C2019 C 0.48025 0.26642 0.43087 0.0
C2020 C 0.44629 0.26605 0.42479 0.0
C2021 C 0.41553 0.29924 0.42492 0.0
C2022 C 0.51982 0.30262 0.44333 0.0
C2023 C 0.44143 0.22971 0.41837 0.0
C2024 C 0.57993 0.20032 0.42571 0.0
C2025 C 0.57542 0.16521 0.43134 0.0
C2026 C 0.5493 0.23362 0.42552 0.0
C2027 C 0.51255 0.23096 0.4309 0.0
C2028 C 0.50685 0.19466 0.43635 0.0
C2029 C 0.53889 0.16252 0.43663 0.0
C2030 C 0.55713 0.2724 0.41983 0.0
C2031 C 0.46727 0.19009 0.44195 0.0
H2032 H 0.4521 0.35768 0.44195 0.0
H2033 H 0.38888 0.29831 0.42039 0.0
H2034 H 0.51813 0.27457 0.44776 0.0
H2035 H 0.55132 0.3008 0.43994 0.0
H2036 H 0.51901 0.33277 0.44721 0.0
H2037 H 0.4132 0.23439 0.41405 0.0
H2038 H 0.47097 0.22696 0.41437 0.0
H2039 H 0.43747 0.19856 0.42182 0.0
H2040 H 0.60862 0.2029 0.42173 0.0
H2041 H 0.53556 0.13545 0.441 0.0
H2042 H 0.55912 0.30208 0.42382 0.0
H2043 H 0.52974 0.27677 0.41531 0.0
H2044 H 0.58744 0.26942 0.41604 0.0
H2045 H 0.46663 0.21636 0.4468 0.0
H2046 H 0.46636 0.15854 0.44536 0.0
H2047 H 0.43756 0.19326 0.438 0.0
C2048 C 0.59469 0.79534 0.18397 0.0
C2049 C 0.59358 0.83227 0.17878 0.0
C2050 C 0.56205 0.76394 0.18339 0.0
C2051 C 0.52685 0.77063 0.17771 0.0
C2052 C 0.52619 0.80736 0.17231 0.0
C2053 C 0.55996 0.83742 0.17281 0.0
C2054 C 0.56453 0.72434 0.18904 0.0
C2055 C 0.48866 0.8162 0.16635 0.0
C2056 C 0.45542 0.67489 0.17234 0.0
C2057 C 0.42324 0.67827 0.17866 0.0
C2058 C 0.48913 0.70505 0.17188 0.0
C2059 C 0.48985 0.7401 0.17771 0.0
C2060 C 0.456 0.74514 0.18376 0.0
C2061 C 0.42341 0.71367 0.18427 0.0
C2062 C 0.52518 0.69802 0.16548 0.0
C2063 C 0.45496 0.78299 0.18989 0.0
H2064 H 0.62064 0.79142 0.18859 0.0
H2065 H 0.55861 0.86636 0.16889 0.0
H2066 H 0.53819 0.72525 0.19388 0.0
H2067 H 0.55995 0.69466 0.18514 0.0
H2068 H 0.59593 0.722 0.19248 0.0
H2069 H 0.49418 0.84511 0.16225 0.0
H2070 H 0.48265 0.78796 0.16212 0.0
H2071 H 0.45888 0.82148 0.17019 0.0
H2072 H 0.45578 0.64716 0.16808 0.0
H2073 H 0.39856 0.71626 0.18916 0.0
H2074 H 0.55581 0.69155 0.16897 0.0
H2075 H 0.5303 0.72749 0.16155 0.0
H2076 H 0.51859 0.67041 0.1611 0.0
H2077 H 0.48239 0.78063 0.19446 0.0
H2078 H 0.4244 0.7843 0.19364 0.0
H2079 H 0.4587 0.81378 0.1863 0.0
C2080 C 0.91592 0.80371 0.92242 0.0
C2081 C 0.92053 0.83644 0.9286 0.0
C2082 C 0.94526 0.76931 0.92197 0.0
C2083 C 0.98082 0.76835 0.92768 0.0
C2084 C 0.98703 0.80255 0.93361 0.0
C2085 C 0.95633 0.8359 0.9341 0.0
C2086 C 0.93695 0.73292 0.91571 0.0
C2087 C 0.02542 0.80327 0.9396 0.0
C2088 C 0.03425 0.66216 0.93371 0.0
C2089 C 0.07042 0.66217 0.9283 0.0
C2090 C 0.00383 0.69579 0.93334 0.0
C2091 C 0.01071 0.73083 0.92763 0.0
C2092 C 0.04669 0.73048 0.92202 0.0
C2093 C 0.07576 0.69578 0.92234 0.0
C2094 C 0.965 0.69442 0.93922 0.0
C2095 C 0.05571 0.76774 0.91601 0.0
H2096 H 0.88789 0.80357 0.91823 0.0
H2097 H 0.95989 0.86113 0.93889 0.0
H2098 H 0.96573 0.72745 0.9116 0.0
H2099 H 0.93092 0.70251 0.9193 0.0
H2100 H 0.90868 0.7394 0.9115 0.0
H2101 H 0.02755 0.83396 0.94329 0.0
H2102 H 0.02306 0.77606 0.94422 0.0
H2103 H 0.05582 0.79889 0.93592 0.0
H2104 H 0.03018 0.63626 0.93834 0.0
H2105 H 0.10413 0.69632 0.91824 0.0
H2106 H 0.93489 0.69932 0.93546 0.0
H2107 H 0.96705 0.72106 0.94397 0.0
H2108 H 0.96253 0.66329 0.94275 0.0
H2109 H 0.02731 0.77395 0.91184 0.0
H2110 H 0.08431 0.76176 0.91185 0.0
H2111 H 0.06155 0.79757 0.9198 0.0
C2112 C 0.34789 0.01278 0.18174 0.0
C2113 C 0.32729 0.05113 0.18418 0.0
C2114 C 0.39314 0.00937 0.18189 0.0
C2115 C 0.41839 0.04539 0.18447 0.0
C2116 C 0.39761 0.08438 0.18687 0.0
C2117 C 0.35219 0.0867 0.18674 0.0
C2118 C 0.41392 0.96703 0.17936 0.0
C2119 C 0.42333 0.12356 0.18957 0.0
C2120 C 0.53078 0.01508 0.19215 0.0
C2121 C 0.55509 0.01885 0.18455 0.0
C2122 C 0.48671 0.02591 0.19234 0.0
C2123 C 0.46643 0.04147 0.1848 0.0
C2124 C 0.49156 0.04891 0.17733 0.0
C2125 C 0.53556 0.03741 0.17728 0.0
C2126 C 0.46119 0.01748 0.20045 0.0
C2127 C 0.47135 0.06624 0.1692 0.0
H2128 H 0.32845 0.98529 0.17979 0.0
H2129 H 0.33607 0.11645 0.18856 0.0
H2130 H 0.43624 0.97215 0.17387 0.0
H2131 H 0.43342 0.95433 0.18479 0.0
H2132 H 0.38971 0.94218 0.17751 0.0
H2133 H 0.40231 0.15169 0.19108 0.0
H2134 H 0.44301 0.11582 0.19533 0.0
H2135 H 0.4461 0.1329 0.18438 0.0
H2136 H 0.54543 1.00107 0.19783 0.0
H2137 H 0.55396 0.04076 0.17139 0.0
H2138 H 0.43921 0.9896 0.1994 0.0
H2139 H 0.44078 0.04579 0.20208 0.0
H2140 H 0.48243 0.01007 0.20601 0.0
H2141 H 0.45036 0.04104 0.16631 0.0
H2142 H 0.49606 0.07581 0.16438 0.0
H2143 H 0.45063 0.09462 0.17064 0.0
C2144 C 0.21972 0.2756 0.44215 0.0
C2145 C 0.22757 0.29627 0.43426 0.0
C2146 C 0.20917 0.23139 0.44249 0.0
C2147 C 0.2069 0.20718 0.43477 0.0
C2148 C 0.21142 0.22858 0.42678 0.0
C2149 C 0.22128 0.27289 0.42662 0.0
C2150 C 0.20349 0.21002 0.45113 0.0
C2151 C 0.20944 0.20404 0.4184 0.0
C2152 C 0.24136 0.0892 0.43545 0.0
C2153 C 0.20169 0.06789 0.43474 0.0
C2154 C 0.24339 0.13456 0.43554 0.0
C2155 C 0.20465 0.15902 0.43505 0.0
C2156 C 0.16436 0.13736 0.43453 0.0
C2157 C 0.16341 0.09191 0.4343 0.0
C2158 C 0.28706 0.1563 0.43599 0.0
C2159 C 0.12239 0.16218 0.43414 0.0
H2160 H 0.22415 0.29333 0.44809 0.0
H2161 H 0.22716 0.28837 0.42048 0.0
H2162 H 0.17486 0.1884 0.4511 0.0
H2163 H 0.23222 0.18977 0.45256 0.0
H2164 H 0.19969 0.23408 0.45638 0.0
H2165 H 0.20898 0.22597 0.41274 0.0
H2166 H 0.23811 0.18262 0.41787 0.0
H2167 H 0.18032 0.18314 0.41818 0.0
H2168 H 0.27084 0.07029 0.43578 0.0
H2169 H 0.13277 0.07506 0.43379 0.0
H2170 H 0.28863 0.17772 0.4417 0.0
H2171 H 0.29194 0.17689 0.43023 0.0
H2172 H 0.31402 0.13263 0.43637 0.0
H2173 H 0.12014 0.18472 0.43967 0.0
H2174 H 0.09375 0.14049 0.43421 0.0
H2175 H 0.12136 0.18203 0.42821 0.0
C2176 C 0.97416 0.98023 0.69005 0.0
C2177 C 0.95197 0.98788 0.68232 0.0
C2178 C 0.0183 0.96925 0.69007 0.0
C2179 C 0.04097 0.96617 0.68219 0.0
C2180 C 0.01804 0.97058 0.67436 0.0
C2181 C 0.97381 0.98103 0.67452 0.0
C2182 C 0.04129 0.96388 0.69856 0.0
C2183 C 0.04088 0.96765 0.6658 0.0
C2184 C 0.15985 0.99816 0.68216 0.0
C2185 C 0.18032 0.95796 0.68164 0.0
C2186 C 0.11453 0.00118 0.68235 0.0
C2187 C 0.08917 0.96295 0.68212 0.0
C2188 C 0.10996 0.92217 0.68168 0.0
C2189 C 0.1554 0.92019 0.6814 0.0
C2190 C 0.09378 0.04535 0.68273 0.0
C2191 C 0.08422 0.88072 0.68152 0.0
H2192 H 0.95765 0.98511 0.69612 0.0
H2193 H 0.95719 0.98678 0.66849 0.0
H2194 H 0.0621 0.93466 0.69847 0.0
H2195 H 0.0626 0.99216 0.6997 0.0
H2196 H 0.01828 0.96126 0.70402 0.0
H2197 H 0.01783 0.96699 0.66033 0.0
H2198 H 0.0625 0.99602 0.66501 0.0
H2199 H 0.06139 0.93827 0.66551 0.0
H2200 H 0.1794 0.02725 0.68235 0.0
H2201 H 0.17155 0.88913 0.68102 0.0
H2202 H 0.07335 0.04802 0.68857 0.0
H2203 H 0.07234 0.04998 0.67708 0.0
H2204 H 0.11804 0.07184 0.68283 0.0
H2205 H 0.06301 0.87892 0.68726 0.0
H2206 H 0.10528 0.85163 0.68139 0.0
H2207 H 0.06292 0.88012 0.67579 0.0
C2208 C 0.2442 0.72515 0.94101 0.0
C2209 C 0.25528 0.69779 0.93414 0.0
C2210 C 0.25444 0.76937 0.94087 0.0
C2211 C 0.2775 0.78666 0.9338 0.0
C2212 C 0.29203 0.7586 0.9272 0.0
C2213 C 0.28031 0.7146 0.92739 0.0
C2214 C 0.23769 0.79811 0.94798 0.0
C2215 C 0.31795 0.77547 0.9197 0.0
C2216 C 0.2556 0.90449 0.92819 0.0
C2217 C 0.2897 0.9255 0.93236 0.0
C2218 C 0.25149 0.85926 0.92855 0.0
C2219 C 0.28298 0.83448 0.933 0.0
C2220 C 0.31825 0.8557 0.93699 0.0
C2221 C 0.3208 0.90108 0.93674 0.0
C2222 C 0.2128 0.83812 0.92438 0.0
C2223 C 0.35307 0.8305 0.94159 0.0
H2224 H 0.22477 0.71275 0.94626 0.0
H2225 H 0.28923 0.69381 0.92207 0.0
H2226 H 0.2641 0.81836 0.95062 0.0
H2227 H 0.21281 0.82035 0.94535 0.0
H2228 H 0.22302 0.77929 0.95332 0.0
H2229 H 0.33205 0.74887 0.9158 0.0
H2230 H 0.29681 0.7952 0.91548 0.0
H2231 H 0.34449 0.79671 0.92198 0.0
H2232 H 0.23154 0.92361 0.92484 0.0
H2233 H 0.34731 0.91757 0.93991 0.0
H2234 H 0.19378 0.82034 0.92929 0.0
H2235 H 0.22359 0.81418 0.91953 0.0
H2236 H 0.19126 0.86196 0.92119 0.0
H2237 H 0.33915 0.81379 0.94725 0.0
H2238 H 0.37997 0.85157 0.9438 0.0
H2239 H 0.36641 0.80522 0.93728 0.0
C2240 C 0.35184 0.91848 0.31814 0.0
C2241 C 0.32649 0.95385 0.31564 0.0
C2242 C 0.39721 0.92152 0.31838 0.0
C2243 C 0.41752 0.96103 0.31616 0.0
C2244 C 0.39182 0.99677 0.31359 0.0
C2245 C 0.3466 0.99263 0.31333 0.0
C2246 C 0.42337 0.88259 0.32106 0.0
C2247 C 0.41207 0.03961 0.31124 0.0
C2248 C 0.52902 0.99206 0.32435 0.0
C2249 C 0.55417 0.98872 0.31686 0.0
C2250 C 0.48495 0.98098 0.32434 0.0
C2251 C 0.46551 0.96573 0.31668 0.0
C2252 C 0.49146 0.95889 0.3093 0.0
C2253 C 0.53542 0.97051 0.30947 0.0
C2254 C 0.45855 0.98865 0.33236 0.0
C2255 C 0.47221 0.942 0.30104 0.0
H2256 H 0.33608 0.88841 0.31988 0.0
H2257 H 0.32681 0.01995 0.31142 0.0
H2258 H 0.44705 0.87427 0.31596 0.0
H2259 H 0.44206 0.89012 0.32696 0.0
H2260 H 0.40274 0.85388 0.32233 0.0
H2261 H 0.3876 0.0641 0.30934 0.0
H2262 H 0.43075 0.05237 0.31677 0.0
H2263 H 0.43508 0.0352 0.30584 0.0
H2264 H 0.54301 0.00591 0.33011 0.0
H2265 H 0.55447 0.96744 0.30366 0.0
H2266 H 0.43847 0.95992 0.33387 0.0
H2267 H 0.43621 0.0162 0.33128 0.0
H2268 H 0.47915 0.99615 0.33802 0.0
H2269 H 0.45188 0.91313 0.30231 0.0
H2270 H 0.49745 0.93331 0.29627 0.0
H2271 H 0.45099 0.96709 0.29818 0.0
C2272 C 0.33693 0.09891 0.56026 0.0
C2273 C 0.30058 0.0735 0.56209 0.0
C2274 C 0.3341 0.14432 0.5601 0.0
C2275 C 0.29392 0.16459 0.56181 0.0
C2276 C 0.25705 0.13881 0.56358 0.0
C2277 C 0.2609 0.09359 0.56372 0.0
C2278 C 0.37412 0.17059 0.55822 0.0
C2279 C 0.21353 0.15901 0.5654 0.0
C2280 C 0.28231 0.27981 0.56995 0.0
C2281 C 0.26635 0.30106 0.56263 0.0
C2282 C 0.29414 0.23593 0.56965 0.0
C2283 C 0.28997 0.2127 0.56185 0.0
C2284 C 0.27734 0.23484 0.55429 0.0
C2285 C 0.26583 0.27873 0.55477 0.0
C2286 C 0.30801 0.21371 0.57784 0.0
C2287 C 0.27276 0.21143 0.54583 0.0
H2288 H 0.36772 0.08322 0.55909 0.0
H2289 H 0.23284 0.07377 0.56512 0.0
H2290 H 0.3683 0.19228 0.55267 0.0
H2291 H 0.38188 0.19143 0.56382 0.0
H2292 H 0.40259 0.1499 0.5568 0.0
H2293 H 0.18797 0.13441 0.56654 0.0
H2294 H 0.21571 0.18014 0.57114 0.0
H2295 H 0.20357 0.17965 0.55991 0.0
H2296 H 0.28311 0.29664 0.57606 0.0
H2297 H 0.25389 0.29476 0.54904 0.0
H2298 H 0.33717 0.19363 0.5767 0.0
H2299 H 0.28187 0.19178 0.58005 0.0
H2300 H 0.31508 0.23716 0.58306 0.0
H2301 H 0.30161 0.19114 0.54454 0.0
H2302 H 0.2682 0.23414 0.54037 0.0
H2303 H 0.24435 0.18955 0.54611 0.0
C2304 C 0.15637 0.00379 0.81434 0.0
C2305 C 0.17682 0.04399 0.81492 0.0
C2306 C 0.11104 1.00069 0.81431 0.0
C2307 C 0.08564 0.03884 0.81475 0.0
C2308 C 0.10639 0.07961 0.81527 0.0
C2309 C 0.15183 0.08166 0.8154 0.0
C2310 C 0.09031 0.95653 0.81383 0.0
C2311 C 0.08061 0.121 0.81565 0.0
C2312 C 0.9704 0.02266 0.80686 0.0
C2313 C 0.94834 0.01442 0.81458 0.0
C2314 C 0.0146 0.0334 0.80684 0.0
C2315 C 0.03745 0.03561 0.81472 0.0
C2316 C 0.01468 0.03057 0.82255 0.0
C2317 C 0.97039 0.02038 0.82239 0.0
C2318 C 0.03742 0.03946 0.79835 0.0
C2319 C 0.03773 0.0326 0.8311 0.0
H2320 H 0.17594 0.97476 0.81398 0.0
H2321 H 0.16793 0.11274 0.81581 0.0
H2322 H 0.06902 0.95146 0.81948 0.0
H2323 H 0.06973 0.95425 0.80801 0.0
H2324 H 0.1146 0.93008 0.81363 0.0
H2325 H 0.10163 0.15009 0.81595 0.0
H2326 H 0.0595 0.12355 0.80991 0.0
H2327 H 0.05919 0.12079 0.82137 0.0
H2328 H 0.95373 0.01845 0.80079 0.0
H2329 H 0.95387 0.01412 0.82841 0.0
H2330 H 0.05876 0.01131 0.79711 0.0
H2331 H 0.05819 0.0687 0.79852 0.0
H2332 H 0.01431 0.04247 0.79292 0.0
H2333 H 0.05925 0.00407 0.83175 0.0
H2334 H 0.01481 0.03283 0.83659 0.0
H2335 H 0.05837 0.06186 0.83147 0.0
C2336 C 0.21474 0.7253 0.05828 0.0
C2337 C 0.23061 0.70486 0.0657 0.0
C2338 C 0.20348 0.76937 0.05834 0.0
C2339 C 0.20829 0.79368 0.066 0.0
C2340 C 0.22096 0.77247 0.07366 0.0
C2341 C 0.23172 0.72834 0.07343 0.0
C2342 C 0.18936 0.79055 0.05006 0.0
C2343 C 0.22638 0.79706 0.08197 0.0
C2344 C 0.23794 0.91267 0.06388 0.0
C2345 C 0.1987 0.93299 0.06578 0.0
C2346 C 0.24136 0.86737 0.0639 0.0
C2347 C 0.20449 0.84182 0.06581 0.0
C2348 C 0.16461 0.86237 0.06766 0.0
C2349 C 0.16225 0.9078 0.06765 0.0
C2350 C 0.28457 0.84685 0.06194 0.0
C2351 C 0.12455 0.83639 0.06967 0.0
H2352 H 0.21346 0.70758 0.05227 0.0
H2353 H 0.24372 0.71304 0.07922 0.0
H2354 H 0.16054 0.81118 0.05115 0.0
H2355 H 0.21563 0.8118 0.04766 0.0
H2356 H 0.18166 0.76642 0.045 0.0
H2357 H 0.23164 0.77518 0.08754 0.0
H2358 H 0.25461 0.81906 0.08144 0.0
H2359 H 0.19755 0.81738 0.08327 0.0
H2360 H 0.26608 0.93234 0.06246 0.0
H2361 H 0.13185 0.92374 0.06907 0.0
H2362 H 0.28161 0.82504 0.05632 0.0
H2363 H 0.29519 0.82685 0.06748 0.0
H2364 H 0.31002 0.87125 0.06056 0.0
H2365 H 0.11729 0.81408 0.06427 0.0
H2366 H 0.09588 0.85725 0.07081 0.0
H2367 H 0.13008 0.8162 0.07545 0.0
C2368 C 0.47749 0.99313 0.82213 0.0
C2369 C 0.44944 0.98437 0.81525 0.0
C2370 C 0.52154 0.98223 0.82173 0.0
C2371 C 0.53796 0.96116 0.81433 0.0
C2372 C 0.50921 0.94913 0.80766 0.0
C2373 C 0.4654 0.96118 0.80816 0.0
C2374 C 0.55104 0.99607 0.82896 0.0
C2375 C 0.52516 0.92561 0.79978 0.0
C2376 C 0.65609 0.98335 0.80901 0.0
C2377 C 0.6766 0.94763 0.81271 0.0
C2378 C 0.61087 0.98772 0.80935 0.0
C2379 C 0.58562 0.95505 0.81333 0.0
C2380 C 0.60631 0.91802 0.81677 0.0
C2381 C 0.65167 0.915 0.8165 0.0
C2382 C 0.59026 0.02805 0.80572 0.0
C2383 C 0.58064 0.88209 0.8209 0.0
H2384 H 0.46575 0.01114 0.82763 0.0
H2385 H 0.44407 0.95406 0.80282 0.0
H2386 H 0.57083 0.96841 0.83121 0.0
H2387 H 0.57367 0.02126 0.8266 0.0
H2388 H 0.53285 0.00937 0.83452 0.0
H2389 H 0.4981 0.91354 0.79574 0.0
H2390 H 0.54521 0.94779 0.79583 0.0
H2391 H 0.5459 0.89787 0.80164 0.0
H2392 H 0.67559 0.00858 0.80611 0.0
H2393 H 0.66777 0.88732 0.81934 0.0
H2394 H 0.57366 0.04606 0.81094 0.0
H2395 H 0.56542 0.01932 0.80089 0.0
H2396 H 0.61428 0.04986 0.80266 0.0
H2397 H 0.56511 0.89409 0.82687 0.0
H2398 H 0.60118 0.85381 0.82255 0.0
H2399 H 0.55443 0.87128 0.81653 0.0
C2400 C 0.77913 0.72198 0.57066 0.0
C2401 C 0.75887 0.70249 0.56357 0.0
C2402 C 0.79117 0.76586 0.57048 0.0
C2403 C 0.78256 0.79099 0.56306 0.0
C2404 C 0.76503 0.77077 0.55568 0.0
C2405 C 0.75367 0.7268 0.55601 0.0
C2406 C 0.81052 0.78597 0.57844 0.0
C2407 C 0.75533 0.79626 0.54763 0.0
C2408 C 0.75775 0.91044 0.56632 0.0
C2409 C 0.79613 0.93006 0.56359 0.0
C2410 C 0.75301 0.86527 0.56617 0.0
C2411 C 0.78773 0.83903 0.5633 0.0
C2412 C 0.82674 0.8588 0.56057 0.0
C2413 C 0.83039 0.90417 0.56071 0.0
C2414 C 0.71069 0.84564 0.56905 0.0
C2415 C 0.86461 0.83205 0.55755 0.0
H2416 H 0.78355 0.70362 0.57653 0.0
H2417 H 0.73829 0.71222 0.55046 0.0
H2418 H 0.83914 0.80586 0.57676 0.0
H2419 H 0.78644 0.80776 0.58148 0.0
H2420 H 0.82035 0.76123 0.58324 0.0
H2421 H 0.74615 0.77504 0.54217 0.0
H2422 H 0.72826 0.81893 0.5489 0.0
H2423 H 0.78372 0.81594 0.54572 0.0
H2424 H 0.73128 0.93059 0.56852 0.0
H2425 H 0.86022 0.91946 0.55867 0.0
H2426 H 0.71631 0.82337 0.57453 0.0
H2427 H 0.69646 0.82629 0.56375 0.0
H2428 H 0.68683 0.87053 0.57106 0.0
H2429 H 0.8747 0.80939 0.5627 0.0
H2430 H 0.89279 0.85234 0.55573 0.0
H2431 H 0.85503 0.81221 0.55193 0.0
C2432 C 0.84727 0.00882 0.31507 0.0
C2433 C 0.82679 0.04841 0.31657 0.0
C2434 C 0.89257 0.00557 0.31514 0.0
C2435 C 0.91796 0.04295 0.31671 0.0
C2436 C 0.89726 0.0831 0.31822 0.0
C2437 C 0.85183 0.08532 0.31815 0.0
C2438 C 0.91326 0.96207 0.31354 0.0
C2439 C 0.92308 0.12366 0.31988 0.0
C2440 C 0.03186 0.01767 0.32431 0.0
C2441 C 0.05494 0.01733 0.31653 0.0
C2442 C 0.98773 0.02839 0.32455 0.0
C2443 C 0.96611 0.03947 0.31684 0.0
C2444 C 0.99002 0.04286 0.3091 0.0
C2445 C 0.03411 0.03176 0.30903 0.0
C2446 C 0.96358 0.02462 0.33295 0.0
C2447 C 0.96838 0.0552 0.30076 0.0
H2448 H 0.82773 0.98032 0.3139 0.0
H2449 H 0.83578 0.11598 0.31926 0.0
H2450 H 0.93485 0.96387 0.30786 0.0
H2451 H 0.93352 0.95282 0.31913 0.0
H2452 H 0.88897 0.93621 0.31243 0.0
H2453 H 0.90209 0.15235 0.32091 0.0
H2454 H 0.94381 0.11924 0.32563 0.0
H2455 H 0.94487 0.1302 0.31436 0.0
H2456 H 0.04751 0.00686 0.33016 0.0
H2457 H 0.05153 0.03191 0.30299 0.0
H2458 H 0.94186 0.99607 0.33271 0.0
H2459 H 0.94303 0.05349 0.33403 0.0
H2460 H 0.98578 0.02082 0.33851 0.0
H2461 H 0.94708 0.0284 0.29862 0.0
H2462 H 0.99222 0.06192 0.29559 0.0
H2463 H 0.94772 0.08417 0.30165 0.0
C2464 C 0.73922 0.10176 0.06408 0.0
C2465 C 0.6999 0.08083 0.06562 0.0
C2466 C 0.74216 0.14707 0.06435 0.0
C2467 C 0.70476 0.17195 0.06619 0.0
C2468 C 0.66482 0.15081 0.06768 0.0
C2469 C 0.6629 0.10541 0.06737 0.0
C2470 C 0.7854 0.16828 0.06274 0.0
C2471 C 0.62427 0.1761 0.06964 0.0
C2472 C 0.73019 0.2845 0.07453 0.0
C2473 C 0.72958 0.30897 0.06692 0.0
C2474 C 0.7197 0.24029 0.07449 0.0
C2475 C 0.70801 0.22003 0.06666 0.0
C2476 C 0.70369 0.2453 0.05913 0.0
C2477 C 0.71446 0.28945 0.05934 0.0
C2478 C 0.72437 0.21463 0.08269 0.0
C2479 C 0.69076 0.22512 0.05067 0.0
H2480 H 0.76781 0.08257 0.06276 0.0
H2481 H 0.63245 0.089 0.06851 0.0
H2482 H 0.7829 0.19108 0.05726 0.0
H2483 H 0.7952 0.18735 0.06846 0.0
H2484 H 0.81121 0.14436 0.06131 0.0
H2485 H 0.59566 0.15481 0.0705 0.0
H2486 H 0.62887 0.19537 0.07558 0.0
H2487 H 0.61749 0.19922 0.06436 0.0
H2488 H 0.74158 0.29911 0.08045 0.0
H2489 H 0.71352 0.30796 0.05344 0.0
H2490 H 0.75297 0.19311 0.08219 0.0
H2491 H 0.69567 0.19376 0.08373 0.0
H2492 H 0.72859 0.23582 0.0884 0.0
H2493 H 0.71749 0.20439 0.04829 0.0
H2494 H 0.6835 0.24985 0.0457 0.0
H2495 H 0.66198 0.20414 0.05151 0.0
C2496 C 0.65886 0.01955 0.68694 0.0
C2497 C 0.68006 0.05622 0.6838 0.0
C2498 C 0.6136 0.01596 0.68645 0.0
C2499 C 0.58902 0.05031 0.68288 0.0
C2500 C 0.61042 0.08815 0.68 0.0
C2501 C 0.6558 0.09043 0.68041 0.0
C2502 C 0.59223 0.97477 0.68948 0.0
C2503 C 0.58549 0.12577 0.67632 0.0
C2504 C 0.48041 0.01663 0.6736 0.0
C2505 C 0.4525 0.02343 0.6806 0.0
C2506 C 0.52458 0.02695 0.67413 0.0
C2507 C 0.54128 0.04538 0.68177 0.0
C2508 C 0.51267 0.05565 0.68858 0.0
C2509 C 0.46872 0.04429 0.68794 0.0
C2510 C 0.55391 0.01516 0.66673 0.0
C2511 C 0.5289 0.0763 0.69676 0.0
H2512 H 0.67787 0.99308 0.68951 0.0
H2513 H 0.67246 0.11878 0.67799 0.0
H2514 H 0.5674 0.98218 0.6944 0.0
H2515 H 0.57547 0.95893 0.68401 0.0
H2516 H 0.6158 0.95152 0.69225 0.0
H2517 H 0.60654 0.15419 0.67506 0.0
H2518 H 0.56995 0.116 0.67019 0.0
H2519 H 0.55931 0.13557 0.68079 0.0
H2520 H 0.46847 1.00041 0.6679 0.0
H2521 H 0.44751 0.04989 0.69338 0.0
H2522 H 0.57589 0.98863 0.66873 0.0
H2523 H 0.5744 0.0431 0.6649 0.0
H2524 H 0.53553 0.00435 0.66098 0.0
H2525 H 0.54853 0.05257 0.70041 0.0
H2526 H 0.502 0.08748 0.70093 0.0
H2527 H 0.55011 0.10425 0.69526 0.0
C2528 C 0.7119 0.71935 0.4402 0.0
C2529 C 0.73114 0.70058 0.43293 0.0
C2530 C 0.70044 0.76336 0.4403 0.0
C2531 C 0.709 0.78939 0.43301 0.0
C2532 C 0.72546 0.76995 0.42545 0.0
C2533 C 0.73588 0.72576 0.42547 0.0
C2534 C 0.68181 0.78257 0.44841 0.0
C2535 C 0.73542 0.79649 0.41754 0.0
C2536 C 0.66504 0.90408 0.43098 0.0
C2537 C 0.7002 0.92848 0.4339 0.0
C2538 C 0.66688 0.85865 0.43085 0.0
C2539 C 0.70516 0.83742 0.43354 0.0
C2540 C 0.74073 0.86225 0.43651 0.0
C2541 C 0.73761 0.90754 0.43673 0.0
C2542 C 0.62805 0.8334 0.4278 0.0
C2543 C 0.78238 0.84102 0.43931 0.0
H2544 H 0.7078 0.70021 0.44599 0.0
H2545 H 0.75068 0.71177 0.4198 0.0
H2546 H 0.70664 0.80288 0.45161 0.0
H2547 H 0.65389 0.80376 0.4469 0.0
H2548 H 0.67115 0.75725 0.45302 0.0
H2549 H 0.74398 0.77597 0.41193 0.0
H2550 H 0.7074 0.81704 0.41579 0.0
H2551 H 0.763 0.81839 0.41891 0.0
H2552 H 0.63608 0.92063 0.42883 0.0
H2553 H 0.76469 0.92673 0.43898 0.0
H2554 H 0.61822 0.8096 0.43277 0.0
H2555 H 0.63642 0.81488 0.42193 0.0
H2556 H 0.60004 0.85466 0.42634 0.0
H2557 H 0.77606 0.81835 0.44469 0.0
H2558 H 0.80699 0.86495 0.44142 0.0
H2559 H 0.79603 0.82182 0.43393 0.0
C2560 C 0.85201 0.922 0.18691 0.0
C2561 C 0.82808 0.95799 0.18421 0.0
C2562 C 0.89744 0.92332 0.18718 0.0
C2563 C 0.91927 0.96175 0.18479 0.0
C2564 C 0.89502 0.9982 0.18207 0.0
C2565 C 0.8497 0.99575 0.18177 0.0
C2566 C 0.92206 0.88367 0.19002 0.0
C2567 C 0.91693 0.03998 0.17955 0.0
C2568 C 0.0318 0.99008 0.19272 0.0
C2569 C 0.05641 0.98577 0.18517 0.0
C2570 C 0.98753 0.97997 0.19283 0.0
C2571 C 0.96738 0.96458 0.18526 0.0
C2572 C 0.99282 0.95631 0.17787 0.0
C2573 C 0.037 0.96707 0.17791 0.0
C2574 C 0.96169 0.98916 0.20086 0.0
C2575 C 0.97278 0.93907 0.16972 0.0
H2576 H 0.8351 0.8927 0.18875 0.0
H2577 H 0.83102 0.02358 0.17972 0.0
H2578 H 0.94504 0.87367 0.18491 0.0
H2579 H 0.94143 0.89116 0.19583 0.0
H2580 H 0.9003 0.85606 0.19149 0.0
H2581 H 0.89343 0.06532 0.1776 0.0
H2582 H 0.93634 0.05241 0.18502 0.0
H2583 H 0.93953 0.0342 0.17413 0.0
H2584 H 0.04635 0.00418 0.1984 0.0
H2585 H 0.05562 0.96327 0.17205 0.0
H2586 H 0.94039 0.96145 0.20245 0.0
H2587 H 0.94058 0.01764 0.19975 0.0
H2588 H 0.98276 0.99604 0.20648 0.0
H2589 H 0.9512 0.91133 0.17114 0.0
H2590 H 0.99761 0.9286 0.16499 0.0
H2591 H 0.95272 0.96468 0.16671 0.0
C2592 C 0.77554 0.28166 0.92641 0.0
C2593 C 0.75951 0.30032 0.93399 0.0
C2594 C 0.78764 0.23781 0.92613 0.0
C2595 C 0.78278 0.2118 0.93356 0.0
C2596 C 0.76937 0.23112 0.94137 0.0
C2597 C 0.75841 0.27515 0.9415 0.0
C2598 C 0.80307 0.21875 0.91775 0.0
C2599 C 0.76317 0.20459 0.94943 0.0
C2600 C 0.75475 0.09305 0.93046 0.0
C2601 C 0.79349 0.07277 0.93274 0.0
C2602 C 0.75099 0.13829 0.93066 0.0
C2603 C 0.78722 0.16383 0.93301 0.0
C2604 C 0.82677 0.14332 0.93514 0.0
C2605 C 0.82927 0.09791 0.93508 0.0
C2606 C 0.70797 0.15872 0.92851 0.0
C2607 C 0.86632 0.16933 0.93749 0.0
H2608 H 0.77675 0.30078 0.92057 0.0
H2609 H 0.7459 0.2889 0.94739 0.0
H2610 H 0.83189 0.19806 0.9188 0.0
H2611 H 0.77732 0.19797 0.91499 0.0
H2612 H 0.8113 0.24416 0.91297 0.0
H2613 H 0.75655 0.22507 0.95514 0.0
H2614 H 0.73553 0.18214 0.94852 0.0
H2615 H 0.79219 0.1846 0.95074 0.0
H2616 H 0.72716 0.07337 0.92868 0.0
H2617 H 0.8593 0.08198 0.93678 0.0
H2618 H 0.71167 0.18121 0.92301 0.0
H2619 H 0.69628 0.17798 0.93406 0.0
H2620 H 0.68297 0.13431 0.92685 0.0
H2621 H 0.87365 0.19303 0.93234 0.0
H2622 H 0.89519 0.14858 0.93852 0.0
H2623 H 0.86013 0.188 0.94345 0.0
C2624 C 0.03704 0.5398 0.67844 0.0
C2625 C 0.05381 0.51531 0.68527 0.0
C2626 C 0.9932 0.55195 0.67826 0.0
C2627 C 0.9653 0.53865 0.68498 0.0
C2628 C 0.98262 0.51635 0.69214 0.0
C2629 C 0.02667 0.50541 0.69224 0.0
C2630 C 0.97626 0.57684 0.67062 0.0
C2631 C 0.95402 0.50113 0.6994 0.0
C2632 C 0.85144 0.5839 0.68755 0.0
C2633 C 0.82666 0.55217 0.68343 0.0
C2634 C 0.89676 0.58072 0.68789 0.0
C2635 C 0.91755 0.54439 0.68419 0.0
C2636 C 0.89243 0.51233 0.67999 0.0
C2637 C 0.84729 0.51691 0.67957 0.0
C2638 C 0.92236 0.61601 0.69224 0.0
C2639 C 0.91315 0.47267 0.6761 0.0
H2640 H 0.05767 0.54785 0.67304 0.0
H2641 H 0.0391 0.48648 0.69756 0.0
H2642 H 0.95607 0.55524 0.66659 0.0
H2643 H 0.95544 0.60399 0.67277 0.0
H2644 H 0.00281 0.58997 0.66658 0.0
H2645 H 0.97295 0.48747 0.70483 0.0
H2646 H 0.93393 0.52812 0.70186 0.0
H2647 H 0.93164 0.47582 0.697 0.0
H2648 H 0.83529 0.61133 0.69047 0.0
H2649 H 0.82792 0.49237 0.67642 0.0
H2650 H 0.94755 0.62857 0.68782 0.0
H2651 H 0.93922 0.60278 0.69796 0.0
H2652 H 0.90157 0.64335 0.69433 0.0
H2653 H 0.93723 0.4823 0.67118 0.0
H2654 H 0.88909 0.45082 0.67306 0.0
H2655 H 0.9307 0.45436 0.68115 0.0
C2656 C 0.66742 0.59714 0.93662 0.0
C2657 C 0.69862 0.57193 0.93244 0.0
C2658 C 0.67057 0.64247 0.93674 0.0
C2659 C 0.7064 0.66288 0.93278 0.0
C2660 C 0.73785 0.63735 0.92849 0.0
C2661 C 0.73328 0.59215 0.9283 0.0
C2662 C 0.63591 0.66847 0.9412 0.0
C2663 C 0.77703 0.65768 0.92434 0.0
C2664 C 0.71057 0.78257 0.92709 0.0
C2665 C 0.73555 0.79922 0.93386 0.0
C2666 C 0.69858 0.73867 0.92689 0.0
C2667 C 0.71263 0.71059 0.93352 0.0
C2668 C 0.73571 0.72771 0.9406 0.0
C2669 C 0.74643 0.77179 0.94073 0.0
C2670 C 0.67284 0.7219 0.91935 0.0
C2671 C 0.75181 0.69892 0.94776 0.0
H2672 H 0.64047 0.58129 0.93977 0.0
H2673 H 0.75745 0.57245 0.92511 0.0
H2674 H 0.64978 0.68508 0.94689 0.0
H2675 H 0.62334 0.69388 0.93683 0.0
H2676 H 0.60847 0.64799 0.94337 0.0
H2677 H 0.79812 0.63339 0.92116 0.0
H2678 H 0.76685 0.68186 0.91948 0.0
H2679 H 0.79634 0.67504 0.92927 0.0
H2680 H 0.70187 0.80342 0.92176 0.0
H2681 H 0.76596 0.784 0.94597 0.0
H2682 H 0.64577 0.70127 0.92161 0.0
H2683 H 0.69388 0.70153 0.91523 0.0
H2684 H 0.6595 0.74853 0.91536 0.0
H2685 H 0.72499 0.67917 0.9504 0.0
H2686 H 0.7666 0.71766 0.9531 0.0
H2687 H 0.77642 0.67622 0.94519 0.0
C2688 C 0.4841 0.49059 0.19258 0.0
C2689 C 0.46051 0.48939 0.18487 0.0
C2690 C 0.52813 0.47972 0.1928 0.0
C2691 C 0.54904 0.46645 0.18515 0.0
C2692 C 0.52455 0.46109 0.17754 0.0
C2693 C 0.48062 0.47279 0.17747 0.0
C2694 C 0.55296 0.48595 0.20106 0.0
C2695 C 0.54541 0.44597 0.1693 0.0
C2696 C 0.66748 0.49679 0.18273 0.0
C2697 C 0.68812 0.45818 0.18496 0.0
C2698 C 0.6222 0.49979 0.18276 0.0
C2699 C 0.59708 0.46298 0.18492 0.0
C2700 C 0.61797 0.42368 0.18707 0.0
C2701 C 0.66338 0.42188 0.18714 0.0
C2702 C 0.60126 0.54252 0.18057 0.0
C2703 C 0.59238 0.3836 0.18926 0.0
H2704 H 0.46905 0.50273 0.19835 0.0
H2705 H 0.46279 0.47126 0.17148 0.0
H2706 H 0.57334 0.4573 0.20246 0.0
H2707 H 0.57491 0.51415 0.20039 0.0
H2708 H 0.53125 0.49175 0.20663 0.0
H2709 H 0.52105 0.43722 0.16435 0.0
H2710 H 0.56615 0.47212 0.16669 0.0
H2711 H 0.56646 0.41757 0.17051 0.0
H2712 H 0.68688 0.52479 0.18107 0.0
H2713 H 0.67964 0.39197 0.1888 0.0
H2714 H 0.58098 0.55358 0.18603 0.0
H2715 H 0.57966 0.53864 0.17494 0.0
H2716 H 0.62541 0.56806 0.1791 0.0
H2717 H 0.57223 0.38955 0.19503 0.0
H2718 H 0.61353 0.35526 0.19051 0.0
H2719 H 0.57006 0.37557 0.18391 0.0
C2720 C 0.78364 0.21949 0.42864 0.0
C2721 C 0.76327 0.20041 0.43576 0.0
C2722 C 0.79522 0.2635 0.4287 0.0
C2723 C 0.78555 0.2892 0.43599 0.0
C2724 C 0.76791 0.26942 0.44341 0.0
C2725 C 0.75751 0.22525 0.44324 0.0
C2726 C 0.81521 0.28307 0.42075 0.0
C2727 C 0.75667 0.29558 0.4513 0.0
C2728 C 0.82884 0.40394 0.43851 0.0
C2729 C 0.79424 0.42837 0.43534 0.0
C2730 C 0.82706 0.35849 0.43857 0.0
C2731 C 0.78937 0.33726 0.43557 0.0
C2732 C 0.75431 0.36212 0.43238 0.0
C2733 C 0.75743 0.40741 0.43221 0.0
C2734 C 0.86542 0.33321 0.44184 0.0
C2735 C 0.7132 0.34091 0.42927 0.0
H2736 H 0.78857 0.20065 0.42285 0.0
H2737 H 0.74196 0.21101 0.4488 0.0
H2738 H 0.79091 0.30344 0.41742 0.0
H2739 H 0.8428 0.30427 0.4225 0.0
H2740 H 0.82673 0.25795 0.41619 0.0
H2741 H 0.74727 0.27479 0.45681 0.0
H2742 H 0.78434 0.31612 0.45326 0.0
H2743 H 0.72926 0.31748 0.44979 0.0
H2744 H 0.85742 0.42046 0.44086 0.0
H2745 H 0.73081 0.42659 0.42976 0.0
H2746 H 0.87635 0.3099 0.43687 0.0
H2747 H 0.85603 0.31414 0.44758 0.0
H2748 H 0.89299 0.3545 0.44359 0.0
H2749 H 0.72046 0.31865 0.42387 0.0
H2750 H 0.68883 0.36487 0.42707 0.0
H2751 H 0.6988 0.32128 0.43451 0.0
C2752 C 0.85051 0.42134 0.81112 0.0
C2753 C 0.8256 0.45092 0.8158 0.0
C2754 C 0.89582 0.42482 0.81086 0.0
C2755 C 0.91645 0.45958 0.81515 0.0
C2756 C 0.89119 0.48936 0.81994 0.0
C2757 C 0.84605 0.48426 0.82031 0.0
C2758 C 0.92153 0.39173 0.80589 0.0
C2759 C 0.91166 0.52752 0.82442 0.0
C2760 C 0.03719 0.46387 0.82002 0.0
C2761 C 0.05243 0.49014 0.81331 0.0
C2762 C 0.99341 0.45148 0.82045 0.0
C2763 C 0.96396 0.46674 0.81416 0.0
C2764 C 0.97956 0.49157 0.80718 0.0
C2765 C 0.02359 0.50235 0.80677 0.0
C2766 C 0.97834 0.42367 0.82783 0.0
C2767 C 0.94927 0.5093 0.80042 0.0
H2768 H 0.83446 0.39541 0.80768 0.0
H2769 H 0.82653 0.50714 0.82389 0.0
H2770 H 0.93672 0.4072 0.80021 0.0
H2771 H 0.94802 0.37866 0.80994 0.0
H2772 H 0.90111 0.36443 0.80363 0.0
H2773 H 0.8876 0.54733 0.82797 0.0
H2774 H 0.93666 0.51628 0.82901 0.0
H2775 H 0.92806 0.54845 0.81963 0.0
H2776 H 0.05916 0.45418 0.8251 0.0
H2777 H 0.03476 0.52291 0.80158 0.0
H2778 H 0.9576 0.39694 0.82545 0.0
H2779 H 0.95852 0.44336 0.8323 0.0
H2780 H 0.00584 0.40967 0.83148 0.0
H2781 H 0.9298 0.48289 0.79755 0.0
H2782 H 0.96677 0.52634 0.79518 0.0
H2783 H 0.92636 0.53236 0.80344 0.0
C2784 C 0.77834 0.78801 0.0591 0.0
C2785 C 0.76242 0.80861 0.0665 0.0
C2786 C 0.78931 0.74389 0.05919 0.0
C2787 C 0.78417 0.71971 0.06686 0.0
C2788 C 0.77153 0.74108 0.0745 0.0
C2789 C 0.76106 0.78525 0.07424 0.0
C2790 C 0.80346 0.72252 0.05093 0.0
C2791 C 0.76574 0.71661 0.08282 0.0
C2792 C 0.75333 0.60116 0.06462 0.0
C2793 C 0.79228 0.58042 0.06657 0.0
C2794 C 0.75035 0.64647 0.0647 0.0
C2795 C 0.78743 0.67157 0.06669 0.0
C2796 C 0.82698 0.65058 0.06861 0.0
C2797 C 0.82883 0.60514 0.06859 0.0
C2798 C 0.70742 0.66747 0.06271 0.0
C2799 C 0.86726 0.67611 0.07066 0.0
H2800 H 0.77987 0.80566 0.05309 0.0
H2801 H 0.7491 0.80072 0.08002 0.0
H2802 H 0.83209 0.70167 0.05206 0.0
H2803 H 0.77708 0.70147 0.04851 0.0
H2804 H 0.81148 0.74655 0.04587 0.0
H2805 H 0.76071 0.7386 0.08838 0.0
H2806 H 0.73722 0.69499 0.08228 0.0
H2807 H 0.79427 0.69592 0.08413 0.0
H2808 H 0.7251 0.58181 0.06311 0.0
H2809 H 0.85896 0.58883 0.07007 0.0
H2810 H 0.7107 0.6891 0.05706 0.0
H2811 H 0.69699 0.68775 0.06822 0.0
H2812 H 0.68168 0.64336 0.06134 0.0
H2813 H 0.87508 0.69814 0.06525 0.0
H2814 H 0.8956 0.65491 0.07189 0.0
H2815 H 0.86172 0.69656 0.07641 0.0
C2816 C 0.47425 0.53373 0.30959 0.0
C2817 C 0.45282 0.51872 0.31697 0.0
C2818 C 0.51837 0.54459 0.30982 0.0
C2819 C 0.54163 0.54042 0.31762 0.0
C2820 C 0.51936 0.52896 0.32523 0.0
C2821 C 0.47523 0.51842 0.32482 0.0
C2822 C 0.54074 0.5573 0.30158 0.0
C2823 C 0.54282 0.52446 0.33369 0.0
C2824 C 0.65996 0.50811 0.31598 0.0
C2825 C 0.68093 0.54735 0.31757 0.0
C2826 C 0.61464 0.50551 0.31599 0.0
C2827 C 0.58977 0.54319 0.31762 0.0
C2828 C 0.61098 0.58295 0.31924 0.0
C2829 C 0.65642 0.58452 0.31921 0.0
C2830 C 0.59336 0.46241 0.31427 0.0
C2831 C 0.5857 0.62377 0.32097 0.0
H2832 H 0.45733 0.53444 0.30349 0.0
H2833 H 0.45908 0.50722 0.33059 0.0
H2834 H 0.56168 0.58595 0.30261 0.0
H2835 H 0.56186 0.5304 0.29942 0.0
H2836 H 0.51735 0.56467 0.29636 0.0
H2837 H 0.52013 0.52078 0.33918 0.0
H2838 H 0.56408 0.49557 0.33347 0.0
H2839 H 0.56376 0.55296 0.33488 0.0
H2840 H 0.67912 0.47942 0.31475 0.0
H2841 H 0.6729 0.6149 0.32039 0.0
H2842 H 0.57216 0.46482 0.30854 0.0
H2843 H 0.57261 0.45321 0.3198 0.0
H2844 H 0.61731 0.43622 0.31317 0.0
H2845 H 0.56454 0.63117 0.3154 0.0
H2846 H 0.60708 0.65201 0.32217 0.0
H2847 H 0.56437 0.61919 0.32662 0.0
C2848 C 0.73879 0.40947 0.56601 0.0
C2849 C 0.69932 0.42938 0.56412 0.0
C2850 C 0.74307 0.36427 0.56575 0.0
C2851 C 0.70684 0.33834 0.56359 0.0
C2852 C 0.66677 0.35842 0.5617 0.0
C2853 C 0.66352 0.40379 0.56198 0.0
C2854 C 0.78647 0.34429 0.56776 0.0
C2855 C 0.62737 0.332 0.55943 0.0
C2856 C 0.73685 0.22589 0.55578 0.0
C2857 C 0.73531 0.20185 0.56344 0.0
C2858 C 0.7253 0.26983 0.55562 0.0
C2859 C 0.71144 0.29028 0.56328 0.0
C2860 C 0.7063 0.26537 0.57085 0.0
C2861 C 0.71831 0.2215 0.57084 0.0
C2862 C 0.73106 0.29507 0.54739 0.0
C2863 C 0.69099 0.28573 0.57912 0.0
H2864 H 0.76643 0.4294 0.56766 0.0
H2865 H 0.63286 0.41932 0.5606 0.0
H2866 H 0.78344 0.32199 0.57331 0.0
H2867 H 0.7978 0.32489 0.5622 0.0
H2868 H 0.81142 0.36896 0.56929 0.0
H2869 H 0.59862 0.35253 0.55814 0.0
H2870 H 0.63402 0.312 0.55366 0.0
H2871 H 0.61959 0.30948 0.56477 0.0
H2872 H 0.74964 0.21115 0.54999 0.0
H2873 H 0.7167 0.20335 0.57679 0.0
H2874 H 0.75897 0.31737 0.54807 0.0
H2875 H 0.7021 0.31511 0.54605 0.0
H2876 H 0.73705 0.27363 0.54178 0.0
H2877 H 0.7166 0.30735 0.58167 0.0
H2878 H 0.68329 0.26114 0.5841 0.0
H2879 H 0.66187 0.30585 0.57798 0.0
C2880 C 0.15719 0.42061 0.31825 0.0
C2881 C 0.18158 0.45673 0.3158 0.0
C2882 C 0.11182 0.42262 0.31865 0.0
C2883 C 0.09052 0.46184 0.31661 0.0
C2884 C 0.11522 0.49841 0.31412 0.0
C2885 C 0.16049 0.49534 0.31373 0.0
C2886 C 0.08672 0.38292 0.32129 0.0
C2887 C 0.09385 0.54095 0.31195 0.0
C2888 C 0.97231 0.46923 0.31014 0.0
C2889 C 0.95357 0.48679 0.31759 0.0
C2890 C 0.01644 0.4584 0.30988 0.0
C2891 C 0.04251 0.46534 0.31723 0.0
C2892 C 0.02309 0.47971 0.32496 0.0
C2893 C 0.97886 0.49003 0.32506 0.0
C2894 C 0.03571 0.44244 0.30155 0.0
C2895 C 0.04964 0.48736 0.33296 0.0
H2896 H 0.17372 0.39073 0.31984 0.0
H2897 H 0.17954 0.52333 0.31191 0.0
H2898 H 0.06811 0.38967 0.32723 0.0
H2899 H 0.06301 0.37432 0.31622 0.0
H2900 H 0.10807 0.35465 0.32246 0.0
H2901 H 0.11763 0.56614 0.31006 0.0
H2902 H 0.07058 0.53644 0.3066 0.0
H2903 H 0.07528 0.55285 0.31758 0.0
H2904 H 0.95313 0.46621 0.30434 0.0
H2905 H 0.96486 0.50334 0.33087 0.0
H2906 H 0.05674 0.41398 0.30271 0.0
H2907 H 0.05621 0.4682 0.29871 0.0
H2908 H 0.01046 0.43346 0.29679 0.0
H2909 H 0.0706 0.45909 0.33433 0.0
H2910 H 0.02909 0.49376 0.33868 0.0
H2911 H 0.07113 0.51565 0.33195 0.0
C2912 C 0.27753 0.22399 0.05864 0.0
C2913 C 0.25987 0.20594 0.06615 0.0
C2914 C 0.2891 0.26794 0.05826 0.0
C2915 C 0.28257 0.29466 0.06554 0.0
C2916 C 0.26768 0.276 0.07331 0.0
C2917 C 0.25683 0.23188 0.07354 0.0
C2918 C 0.30574 0.28632 0.04991 0.0
C2919 C 0.26016 0.30326 0.08122 0.0
C2920 C 0.32989 0.40839 0.06673 0.0
C2921 C 0.2946 0.43362 0.06415 0.0
C2922 C 0.3269 0.36302 0.06703 0.0
C2923 C 0.2874 0.3426 0.06484 0.0
C2924 C 0.25172 0.36818 0.06218 0.0
C2925 C 0.2559 0.4134 0.06181 0.0
C2926 C 0.36584 0.33699 0.06974 0.0
C2927 C 0.20884 0.34785 0.0599 0.0
H2928 H 0.28031 0.20432 0.0529 0.0
H2929 H 0.24328 0.21848 0.07938 0.0
H2930 H 0.28058 0.30722 0.04698 0.0
H2931 H 0.33464 0.30678 0.05106 0.0
H2932 H 0.3143 0.26057 0.04523 0.0
H2933 H 0.25252 0.2833 0.08696 0.0
H2934 H 0.28901 0.3233 0.08265 0.0
H2935 H 0.23276 0.32567 0.08005 0.0
H2936 H 0.35986 0.42425 0.0685 0.0
H2937 H 0.22862 0.43311 0.05986 0.0
H2938 H 0.37374 0.3126 0.06476 0.0
H2939 H 0.35855 0.31913 0.07575 0.0
H2940 H 0.39473 0.35762 0.07085 0.0
H2941 H 0.21316 0.3244 0.05457 0.0
H2942 H 0.1844 0.37223 0.05793 0.0
H2943 H 0.19606 0.32965 0.0655 0.0
C2944 C 0.35142 0.58142 0.81757 0.0
C2945 C 0.32644 0.54963 0.81352 0.0
C2946 C 0.39673 0.57797 0.81791 0.0
C2947 C 0.41729 0.54126 0.8143 0.0
C2948 C 0.39197 0.50936 0.8101 0.0
C2949 C 0.34683 0.51423 0.80968 0.0
C2950 C 0.42251 0.61315 0.82226 0.0
C2951 C 0.41239 0.46932 0.80631 0.0
C2952 C 0.53762 0.53453 0.80924 0.0
C2953 C 0.55311 0.51045 0.81625 0.0
C2954 C 0.49394 0.54712 0.80875 0.0
C2955 C 0.46486 0.53464 0.81534 0.0
C2956 C 0.48083 0.51256 0.82265 0.0
C2957 C 0.52475 0.50123 0.82306 0.0
C2958 C 0.4785 0.57177 0.80096 0.0
C2959 C 0.45095 0.4981 0.82977 0.0
H2960 H 0.33539 0.60888 0.82051 0.0
H2961 H 0.32726 0.48968 0.80657 0.0
H2962 H 0.43785 0.60023 0.82817 0.0
H2963 H 0.44888 0.6244 0.81797 0.0
H2964 H 0.40211 0.64131 0.82405 0.0
H2965 H 0.3883 0.448 0.80313 0.0
H2966 H 0.43735 0.47847 0.80152 0.0
H2967 H 0.42883 0.45063 0.81144 0.0
H2968 H 0.5592 0.54201 0.80396 0.0
H2969 H 0.53614 0.48249 0.8285 0.0
H2970 H 0.45794 0.59946 0.80293 0.0
H2971 H 0.45841 0.55029 0.79688 0.0
H2972 H 0.50582 0.58411 0.79703 0.0
H2973 H 0.43134 0.52565 0.83214 0.0
H2974 H 0.46882 0.48392 0.83529 0.0
H2975 H 0.42816 0.47343 0.82726 0.0
C2976 C 0.22161 0.78172 0.56985 0.0
C2977 C 0.24179 0.80038 0.56266 0.0
C2978 C 0.20993 0.73775 0.56991 0.0
C2979 C 0.21872 0.71173 0.56263 0.0
C2980 C 0.2361 0.73108 0.55514 0.0
C2981 C 0.2472 0.77513 0.55523 0.0
C2982 C 0.19082 0.71856 0.57799 0.0
C2983 C 0.24587 0.70461 0.54722 0.0
C2984 C 0.2443 0.59281 0.56635 0.0
C2985 C 0.20599 0.57274 0.56372 0.0
C2986 C 0.24872 0.638 0.56605 0.0
C2987 C 0.21378 0.66375 0.56311 0.0
C2988 C 0.1748 0.64352 0.56051 0.0
C2989 C 0.17144 0.59818 0.56082 0.0
C2990 C 0.29097 0.65816 0.56882 0.0
C2991 C 0.13675 0.66974 0.5574 0.0
H2992 H 0.21705 0.8008 0.57563 0.0
H2993 H 0.26251 0.78909 0.54961 0.0
H2994 H 0.1623 0.69828 0.57642 0.0
H2995 H 0.21507 0.69731 0.58111 0.0
H2996 H 0.18091 0.74383 0.58266 0.0
H2997 H 0.2549 0.72517 0.54164 0.0
H2998 H 0.27306 0.68224 0.54859 0.0
H2999 H 0.21755 0.68456 0.54541 0.0
H3000 H 0.27104 0.57301 0.56855 0.0
H3001 H 0.14169 0.58252 0.55885 0.0
H3002 H 0.28527 0.68128 0.57415 0.0
H3003 H 0.30519 0.6767 0.56341 0.0
H3004 H 0.31487 0.63365 0.57098 0.0
H3005 H 0.1269 0.69328 0.56242 0.0
H3006 H 0.10849 0.64916 0.55577 0.0
H3007 H 0.14605 0.68862 0.55163 0.0
C3008 C 0.16897 0.51059 0.18059 0.0
C3009 C 0.18935 0.54753 0.18382 0.0
C3010 C 0.12388 0.50585 0.1811 0.0
C3011 C 0.09865 0.53912 0.18487 0.0
C3012 C 0.11918 0.57684 0.18803 0.0
C3013 C 0.16439 0.58045 0.18751 0.0
C3014 C 0.10333 0.46489 0.17775 0.0
C3015 C 0.09343 0.61317 0.192 0.0
C3016 C 0.9794 0.53367 0.17912 0.0
C3017 C 0.96242 0.51076 0.18615 0.0
C3018 C 0.02329 0.54537 0.17883 0.0
C3019 C 0.05096 0.5336 0.18569 0.0
C3020 C 0.03346 0.51311 0.19304 0.0
C3021 C 0.98941 0.50217 0.1932 0.0
C3022 C 0.04055 0.56797 0.17094 0.0
C3023 C 0.06182 0.49992 0.2005 0.0
H3024 H 0.18846 0.48503 0.1778 0.0
H3025 H 0.18031 0.60912 0.18997 0.0
H3026 H 0.08612 0.44806 0.18304 0.0
H3027 H 0.07899 0.47282 0.17275 0.0
H3028 H 0.12745 0.44233 0.17494 0.0
H3029 H 0.11415 0.64099 0.19386 0.0
H3030 H 0.06848 0.62466 0.18741 0.0
H3031 H 0.07625 0.60134 0.1978 0.0
H3032 H 0.95888 0.54068 0.17365 0.0
H3033 H 0.97689 0.48435 0.19865 0.0
H3034 H 0.06116 0.5453 0.16723 0.0
H3035 H 0.06105 0.59588 0.1728 0.0
H3036 H 0.0142 0.57964 0.16668 0.0
H3037 H 0.08394 0.47365 0.19842 0.0
H3038 H 0.04267 0.4882 0.20607 0.0
H3039 H 0.08218 0.52743 0.20262 0.0
C3040 C 0.232 0.40389 0.93527 0.0
C3041 C 0.19381 0.42458 0.9328 0.0
C3042 C 0.23535 0.35859 0.93502 0.0
C3043 C 0.19936 0.33351 0.93235 0.0
C3044 C 0.16034 0.3545 0.93002 0.0
C3045 C 0.15816 0.39992 0.93021 0.0
C3046 C 0.27772 0.33763 0.93746 0.0
C3047 C 0.12115 0.32901 0.92724 0.0
C3048 C 0.22933 0.22234 0.92385 0.0
C3049 C 0.22576 0.19667 0.93127 0.0
C3050 C 0.21873 0.26651 0.92399 0.0
C3051 C 0.20349 0.2855 0.9317 0.0
C3052 C 0.19621 0.25903 0.93899 0.0
C3053 C 0.20755 0.215 0.9387 0.0
C3054 C 0.22706 0.29348 0.91607 0.0
C3055 C 0.17913 0.27778 0.94727 0.0
H3056 H 0.25949 0.42327 0.93724 0.0
H3057 H 0.12866 0.41627 0.92831 0.0
H3058 H 0.27261 0.31437 0.94279 0.0
H3059 H 0.29064 0.31911 0.93192 0.0
H3060 H 0.3024 0.36166 0.93949 0.0
H3061 H 0.0926 0.35004 0.92611 0.0
H3062 H 0.12843 0.31114 0.92123 0.0
H3063 H 0.11274 0.30466 0.93221 0.0
H3064 H 0.24324 0.20873 0.91806 0.0
H3065 H 0.20423 0.19552 0.94445 0.0
H3066 H 0.25475 0.31549 0.91728 0.0
H3067 H 0.1986 0.31393 0.91456 0.0
H3068 H 0.23469 0.27327 0.91036 0.0
H3069 H 0.20436 0.29835 0.95027 0.0
H3070 H 0.16981 0.25222 0.95194 0.0
H3071 H 0.15064 0.29864 0.94602 0.0
C3072 C 0.53368 0.47789 0.67607 0.0
C3073 C 0.55455 0.49029 0.68369 0.0
C3074 C 0.48979 0.46587 0.67606 0.0
C3075 C 0.46603 0.46673 0.68385 0.0
C3076 C 0.48768 0.47612 0.69164 0.0
C3077 C 0.53167 0.48738 0.69148 0.0
C3078 C 0.46819 0.45502 0.66764 0.0
C3079 C 0.46366 0.47766 0.70009 0.0
C3080 C 0.3467 0.49592 0.68252 0.0
C3081 C 0.32684 0.45593 0.68394 0.0
C3082 C 0.39194 0.49977 0.68248 0.0
C3083 C 0.41793 0.46251 0.68374 0.0
C3084 C 0.39784 0.42187 0.68508 0.0
C3085 C 0.35242 0.41913 0.68522 0.0
C3086 C 0.41193 0.54383 0.68115 0.0
C3087 C 0.42429 0.38135 0.68632 0.0
H3088 H 0.55098 0.47971 0.67002 0.0
H3089 H 0.54726 0.49674 0.69743 0.0
H3090 H 0.4479 0.42562 0.6683 0.0
H3091 H 0.44654 0.48197 0.66573 0.0
H3092 H 0.49206 0.44971 0.66241 0.0
H3093 H 0.48588 0.48083 0.70566 0.0
H3094 H 0.44129 0.50572 0.70009 0.0
H3095 H 0.44378 0.44814 0.70096 0.0
H3096 H 0.32669 0.52428 0.68153 0.0
H3097 H 0.33681 0.38816 0.68624 0.0
H3098 H 0.43297 0.54347 0.67538 0.0
H3099 H 0.43263 0.55221 0.68674 0.0
H3100 H 0.38721 0.56957 0.68034 0.0
H3101 H 0.4461 0.37655 0.68074 0.0
H3102 H 0.40375 0.35213 0.68707 0.0
H3103 H 0.44503 0.38464 0.6921 0.0
C3104 C 0.25811 0.76977 0.42431 0.0
C3105 C 0.26748 0.79632 0.4314 0.0
C3106 C 0.26773 0.72541 0.42443 0.0
C3107 C 0.28818 0.70721 0.43172 0.0
C3108 C 0.30139 0.73452 0.43854 0.0
C3109 C 0.29057 0.77869 0.43834 0.0
C3110 C 0.2527 0.69748 0.41705 0.0
C3111 C 0.32441 0.71663 0.44632 0.0
C3112 C 0.25969 0.59049 0.43696 0.0
C3113 C 0.29451 0.56815 0.43335 0.0
C3114 C 0.2575 0.63581 0.43654 0.0
C3115 C 0.2915 0.65926 0.43257 0.0
C3116 C 0.32738 0.63669 0.42913 0.0
C3117 C 0.3282 0.59126 0.42947 0.0
C3118 C 0.21828 0.6585 0.44017 0.0
C3119 C 0.36463 0.66046 0.42501 0.0
H3120 H 0.24024 0.78287 0.41892 0.0
H3121 H 0.29826 0.7989 0.44382 0.0
H3122 H 0.27914 0.67602 0.41482 0.0
H3123 H 0.2258 0.67643 0.41925 0.0
H3124 H 0.24114 0.71699 0.41151 0.0
H3125 H 0.33825 0.74267 0.4504 0.0
H3126 H 0.30131 0.69766 0.45026 0.0
H3127 H 0.3508 0.69445 0.44434 0.0
H3128 H 0.23367 0.57235 0.43994 0.0
H3129 H 0.3552 0.5737 0.42671 0.0
H3130 H 0.20171 0.67686 0.435 0.0
H3131 H 0.22828 0.68212 0.44515 0.0
H3132 H 0.19479 0.63557 0.44307 0.0
H3133 H 0.35331 0.67762 0.41917 0.0
H3134 H 0.39139 0.63836 0.42317 0.0
H3135 H 0.37744 0.68529 0.42949 0.0
C3136 C 0.16529 0.07819 0.10597 0.0
C3137 C 0.20531 0.07381 0.10181 0.0
C3138 C 0.16045 0.06741 0.11467 0.0
C3139 C 0.19644 0.05166 0.11934 0.0
C3140 C 0.23686 0.04679 0.11517 0.0
C3141 C 0.24085 0.05805 0.10646 0.0
C3142 C 0.11689 0.0734 0.1189 0.0
C3143 C 0.27591 0.02996 0.11994 0.0
C3144 C 0.19177 0.06739 0.14347 0.0
C3145 C 0.17722 0.02683 0.14632 0.0
C3146 C 0.19914 0.0755 0.13473 0.0
C3147 C 0.192 0.04221 0.12867 0.0
C3148 C 0.17852 1.0008 0.1315 0.0
C3149 C 0.17121 0.9936 0.1403 0.0
C3150 C 0.21341 0.12012 0.13198 0.0
C3151 C 0.17086 0.96445 0.12521 0.0
H3152 H 0.13762 0.09027 0.10244 0.0
H3153 H 0.27181 0.05431 0.10328 0.0
H3154 H 0.10577 0.0424 0.12173 0.0
H3155 H 0.11961 0.09707 0.12424 0.0
H3156 H 0.09191 0.08506 0.11433 0.0
H3157 H 0.30461 0.02658 0.11569 0.0
H3158 H 0.28421 0.05221 0.12528 0.0
H3159 H 0.26856 0.998 0.12283 0.0
H3160 H 0.19679 0.09326 0.14806 0.0
H3161 H 0.16016 0.96214 0.14245 0.0
H3162 H 0.18824 0.13496 0.12784 0.0
H3163 H 0.24346 0.11803 0.12811 0.0
H3164 H 0.21937 0.14188 0.13753 0.0
H3165 H 0.14368 0.97295 0.12087 0.0
H3166 H 0.16307 0.93348 0.12848 0.0
H3167 H 0.19987 0.95962 0.12112 0.0
C3168 C 0.17736 0.91411 0.35563 0.0
C3169 C 0.17561 0.95562 0.35199 0.0
C3170 C 0.18416 0.90836 0.36446 0.0
C3171 C 0.18954 0.94499 0.36981 0.0
C3172 C 0.18825 0.98697 0.36619 0.0
C3173 C 0.1812 0.9918 0.35732 0.0
C3174 C 0.18515 0.86307 0.36809 0.0
C3175 C 0.19404 0.02676 0.37169 0.0
C3176 C 0.16465 0.92999 0.39351 0.0
C3177 C 0.20606 0.92412 0.397 0.0
C3178 C 0.1589 0.93747 0.38469 0.0
C3179 C 0.19544 0.9392 0.37923 0.0
C3180 C 0.23739 0.93397 0.38272 0.0
C3181 C 0.2422 0.92646 0.39157 0.0
C3182 C 0.11364 0.94286 0.3812 0.0
C3183 C 0.27712 0.9357 0.37709 0.0
H3184 H 0.17312 0.88595 0.35157 0.0
H3185 H 0.18007 0.02397 0.35457 0.0
H3186 H 0.21626 0.85732 0.37145 0.0
H3187 H 0.15897 0.85911 0.3729 0.0
H3188 H 0.18112 0.83799 0.36304 0.0
H3189 H 0.19326 0.05705 0.36785 0.0
H3190 H 0.16809 0.02827 0.3766 0.0
H3191 H 0.2253 0.0251 0.37517 0.0
H3192 H 0.13652 0.92841 0.39765 0.0
H3193 H 0.27432 0.9221 0.39422 0.0
H3194 H 0.1066 0.91681 0.3765 0.0
H3195 H 0.11084 0.97409 0.37774 0.0
H3196 H 0.08874 0.94188 0.38634 0.0
H3197 H 0.27594 0.90925 0.37228 0.0
H3198 H 0.3075 0.93258 0.38085 0.0
H3199 H 0.27798 0.96665 0.37349 0.0
C3200 C 0.2392 0.91648 0.60695 0.0
C3201 C 0.26955 0.92972 0.60079 0.0
C3202 C 0.2449 0.92658 0.61569 0.0
C3203 C 0.28181 0.95034 0.61829 0.0
C3204 C 0.31147 0.96538 0.61205 0.0
C3205 C 0.30494 0.95497 0.60339 0.0
C3206 C 0.21241 0.91031 0.62216 0.0
C3207 C 0.35125 0.99078 0.61456 0.0
C3208 C 0.28967 0.99943 0.64065 0.0
C3209 C 0.31435 0.96819 0.64497 0.0
C3210 C 0.27801 0.99376 0.63199 0.0
C3211 C 0.29172 0.95619 0.62756 0.0
C3212 C 0.3167 0.92465 0.63189 0.0
C3213 C 0.32756 0.93096 0.64054 0.0
C3214 C 0.25114 0.02793 0.62758 0.0
C3215 C 0.33235 0.88434 0.62737 0.0
H3216 H 0.21165 0.89719 0.60499 0.0
H3217 H 0.32837 0.96579 0.59868 0.0
H3218 H 0.22759 0.88512 0.62625 0.0
H3219 H 0.20206 0.93695 0.62647 0.0
H3220 H 0.18333 0.89622 0.61904 0.0
H3221 H 0.36928 0.00299 0.60888 0.0
H3222 H 0.34224 0.0187 0.61866 0.0
H3223 H 0.37322 0.96993 0.61839 0.0
H3224 H 0.27905 0.0281 0.64405 0.0
H3225 H 0.34667 0.90667 0.64382 0.0
H3226 H 0.22128 0.01325 0.62491 0.0
H3227 H 0.26943 0.04182 0.6221 0.0
H3228 H 0.24191 0.05459 0.632 0.0
H3229 H 0.30446 0.86611 0.62473 0.0
H3230 H 0.35087 0.86263 0.6317 0.0
H3231 H 0.35337 0.89337 0.62187 0.0
C3232 C 0.32701 0.06585 0.89218 0.0
C3233 C 0.28543 0.07322 0.89549 0.0
C3234 C 0.33356 0.05839 0.88339 0.0
C3235 C 0.29768 0.05827 0.87776 0.0
C3236 C 0.25553 0.06495 0.88106 0.0
C3237 C 0.24988 0.07235 0.88989 0.0
C3238 C 0.37903 0.05139 0.88012 0.0
C3239 C 0.21651 0.06499 0.87523 0.0
C3240 C 0.32121 0.08454 0.85443 0.0
C3241 C 0.32213 0.0433 0.85067 0.0
C3242 C 0.3126 0.08984 0.86321 0.0
C3243 C 0.3047 0.05302 0.86837 0.0
C3244 C 0.30513 0.01131 0.86462 0.0
C3245 C 0.31387 0.00694 0.8558 0.0
C3246 C 0.3125 0.13486 0.86698 0.0
C3247 C 0.29683 0.97133 0.86993 0.0
H3248 H 0.35468 0.06621 0.89645 0.0
H3249 H 0.21765 0.07787 0.8924 0.0
H3250 H 0.38102 0.02038 0.87656 0.0
H3251 H 0.38779 0.07754 0.87556 0.0
H3252 H 0.40325 0.0509 0.88539 0.0
H3253 H 0.18577 0.06881 0.87884 0.0
H3254 H 0.21919 0.09179 0.87052 0.0
H3255 H 0.21509 0.0344 0.87151 0.0
H3256 H 0.32737 0.11287 0.85051 0.0
H3257 H 0.31435 0.97498 0.85294 0.0
H3258 H 0.33812 0.13759 0.87194 0.0
H3259 H 0.28114 0.14132 0.87019 0.0
H3260 H 0.31803 0.16019 0.86204 0.0
H3261 H 0.32199 0.96827 0.87498 0.0
H3262 H 0.29688 0.94138 0.86599 0.0
H3263 H 0.26519 0.97403 0.87325 0.0
C3264 C 0.73902 0.93957 0.89015 0.0
C3265 C 0.77381 0.92788 0.89545 0.0
C3266 C 0.74545 0.94881 0.88139 0.0
C3267 C 0.78757 0.94593 0.87786 0.0
C3268 C 0.82275 0.93424 0.88318 0.0
C3269 C 0.81547 0.92552 0.8919 0.0
C3270 C 0.70721 0.96142 0.87591 0.0
C3271 C 0.86811 0.93045 0.87965 0.0
C3272 C 0.80375 0.9253 0.85405 0.0
C3273 C 0.81652 0.96619 0.85106 0.0
C3274 C 0.79303 0.9186 0.8627 0.0
C3275 C 0.795 0.95364 0.86853 0.0
C3276 C 0.80679 0.99526 0.86553 0.0
C3277 C 0.81746 1.00104 0.85683 0.0
C3278 C 0.78073 0.8737 0.86565 0.0
C3279 C 0.80913 0.03342 0.87156 0.0
H3280 H 0.70678 0.94171 0.89285 0.0
H3281 H 0.84259 0.91647 0.89593 0.0
H3282 H 0.71325 0.99319 0.87282 0.0
H3283 H 0.7027 0.93743 0.87069 0.0
H3284 H 0.67679 0.96349 0.87969 0.0
H3285 H 0.89203 0.92167 0.88468 0.0
H3286 H 0.86905 0.90547 0.87453 0.0
H3287 H 0.87812 0.96151 0.87669 0.0
H3288 H 0.80262 0.89819 0.84964 0.0
H3289 H 0.82707 0.03278 0.85457 0.0
H3290 H 0.74915 0.87447 0.86902 0.0
H3291 H 0.80511 0.86159 0.87029 0.0
H3292 H 0.77853 0.85044 0.86022 0.0
H3293 H 0.77824 0.03691 0.87512 0.0
H3294 H 0.81599 0.06416 0.86813 0.0
H3295 H 0.83496 0.02798 0.87639 0.0
C3296 C 0.74067 0.06796 0.60701 0.0
C3297 C 0.77615 0.07239 0.60146 0.0
C3298 C 0.74671 0.05854 0.61577 0.0
C3299 C 0.78918 0.05361 0.61903 0.0
C3300 C 0.825 0.05736 0.61343 0.0
C3301 C 0.81806 0.06662 0.60473 0.0
C3302 C 0.70774 0.05459 0.62156 0.0
C3303 C 0.87082 0.05253 0.61667 0.0
C3304 C 0.81307 0.0766 0.64248 0.0
C3305 C 0.81809 0.03482 0.64586 0.0
C3306 C 0.80251 0.08306 0.63382 0.0
C3307 C 0.79665 0.04687 0.62838 0.0
C3308 C 0.8007 0.00457 0.63177 0.0
C3309 C 0.81148 0.99903 0.64048 0.0
C3310 C 0.79872 0.1287 0.63043 0.0
C3311 C 0.7945 0.96522 0.62617 0.0
H3312 H 0.7082 0.07216 0.60453 0.0
H3313 H 0.84573 0.06978 0.6005 0.0
H3314 H 0.7085 0.02326 0.62503 0.0
H3315 H 0.70843 0.08056 0.62648 0.0
H3316 H 0.67685 0.05692 0.61794 0.0
H3317 H 0.89504 0.05482 0.61141 0.0
H3318 H 0.87788 0.07811 0.62147 0.0
H3319 H 0.87482 0.02092 0.61994 0.0
H3320 H 0.81791 0.10451 0.64658 0.0
H3321 H 0.81503 0.96665 0.64305 0.0
H3322 H 0.76694 0.13336 0.62726 0.0
H3323 H 0.82405 0.13454 0.62552 0.0
H3324 H 0.80225 0.1533 0.63559 0.0
H3325 H 0.76285 0.9669 0.62283 0.0
H3326 H 0.796 0.93463 0.6299 0.0
H3327 H 0.81993 0.96435 0.62114 0.0
C3328 C 0.75401 0.081 0.39121 0.0
C3329 C 0.71886 0.08179 0.3969 0.0
C3330 C 0.74771 0.07417 0.38236 0.0
C3331 C 0.70527 0.06819 0.37915 0.0
C3332 C 0.66975 0.06859 0.38488 0.0
C3333 C 0.67698 0.07527 0.39367 0.0
C3334 C 0.78638 0.07372 0.37644 0.0
C3335 C 0.62399 0.06248 0.3817 0.0
C3336 C 0.68098 0.09344 0.35576 0.0
C3337 C 0.67918 0.05198 0.35211 0.0
C3338 C 0.69006 0.09916 0.36452 0.0
C3339 C 0.69765 0.06257 0.36977 0.0
C3340 C 0.69631 0.02065 0.36612 0.0
C3341 C 0.68703 0.01584 0.35733 0.0
C3342 C 0.69102 0.14439 0.36818 0.0
C3343 C 0.70428 0.98086 0.37151 0.0
H3344 H 0.78647 0.08586 0.39365 0.0
H3345 H 0.64956 0.07575 0.39801 0.0
H3346 H 0.78743 0.04287 0.3728 0.0
H3347 H 0.78356 0.10022 0.37167 0.0
H3348 H 0.81734 0.0776 0.37998 0.0
H3349 H 0.6 0.06292 0.38702 0.0
H3350 H 0.61564 0.0885 0.37708 0.0
H3351 H 0.6211 0.03128 0.37824 0.0
H3352 H 0.67511 0.12157 0.35177 0.0
H3353 H 0.6859 0.98371 0.35456 0.0
H3354 H 0.72267 0.15062 0.37129 0.0
H3355 H 0.66577 0.14776 0.3732 0.0
H3356 H 0.68552 0.16949 0.36319 0.0
H3357 H 0.73617 0.98327 0.37475 0.0
H3358 H 0.70354 0.95068 0.36764 0.0
H3359 H 0.67938 0.97849 0.37663 0.0
C3360 C 0.66554 0.01304 0.14007 0.0
C3361 C 0.67463 0.98015 0.146 0.0
C3362 C 0.67223 0.00665 0.13122 0.0
C3363 C 0.68815 0.96636 0.12826 0.0
C3364 C 0.69824 0.93342 0.13424 0.0
C3365 C 0.6915 0.94076 0.14302 0.0
C3366 C 0.66147 0.04265 0.12503 0.0
C3367 C 0.71513 0.88996 0.13134 0.0
C3368 C 0.66239 0.93062 0.10549 0.0
C3369 C 0.70179 0.93798 0.10127 0.0
C3370 C 0.65744 0.94012 0.11425 0.0
C3371 C 0.69262 0.95779 0.11889 0.0
C3372 C 0.73235 0.96573 0.11465 0.0
C3373 C 0.73653 0.95554 0.1059 0.0
C3374 C 0.61469 0.93077 0.11856 0.0
C3375 C 0.77047 0.98481 0.11938 0.0
H3376 H 0.65266 0.04361 0.14231 0.0
H3377 H 0.69881 0.91515 0.14755 0.0
H3378 H 0.68977 0.04981 0.12088 0.0
H3379 H 0.63469 0.0324 0.12074 0.0
H3380 H 0.65167 0.0728 0.12838 0.0
H3381 H 0.72277 0.86829 0.13683 0.0
H3382 H 0.69072 0.87381 0.12721 0.0
H3383 H 0.74476 0.89421 0.12741 0.0
H3384 H 0.63539 0.91706 0.10196 0.0
H3385 H 0.76698 0.96162 0.10267 0.0
H3386 H 0.60157 0.96073 0.12149 0.0
H3387 H 0.61942 0.90705 0.12383 0.0
H3388 H 0.59033 0.91763 0.11401 0.0
H3389 H 0.76117 0.01602 0.12238 0.0
H3390 H 0.79863 0.9904 0.11509 0.0
H3391 H 0.78054 0.96282 0.12465 0.0
C3392 C 0.76334 0.57174 0.60782 0.0
C3393 C 0.72809 0.57142 0.60215 0.0
C3394 C 0.7576 0.56273 0.61661 0.0
C3395 C 0.71566 0.55336 0.61977 0.0
C3396 C 0.68025 0.55185 0.61403 0.0
C3397 C 0.6869 0.56081 0.60531 0.0
C3398 C 0.79615 0.56439 0.62255 0.0
C3399 C 0.63499 0.54211 0.61714 0.0
C3400 C 0.69759 0.50199 0.64169 0.0
C3401 C 0.68641 0.53811 0.64667 0.0
C3402 C 0.70843 0.50651 0.63296 0.0
C3403 C 0.70792 0.54808 0.62914 0.0
C3404 C 0.69726 0.58467 0.63417 0.0
C3405 C 0.68668 0.57924 0.64286 0.0
C3406 C 0.71972 0.46678 0.62779 0.0
C3407 C 0.69612 0.62953 0.63033 0.0
H3408 H 0.79528 0.57966 0.60543 0.0
H3409 H 0.65944 0.56014 0.60098 0.0
H3410 H 0.7923 0.59151 0.62715 0.0
H3411 H 0.79822 0.53418 0.62637 0.0
H3412 H 0.827 0.56887 0.619 0.0
H3413 H 0.61138 0.5399 0.61178 0.0
H3414 H 0.63453 0.51118 0.62075 0.0
H3415 H 0.62418 0.56787 0.62161 0.0
H3416 H 0.69773 0.47013 0.64459 0.0
H3417 H 0.6783 0.60741 0.64665 0.0
H3418 H 0.75143 0.47122 0.62457 0.0
H3419 H 0.69526 0.46182 0.62267 0.0
H3420 H 0.72114 0.43717 0.63182 0.0
H3421 H 0.72759 0.63714 0.62726 0.0
H3422 H 0.689 0.6548 0.6352 0.0
H3423 H 0.67102 0.63108 0.62525 0.0
C3424 C 0.6694 0.42955 0.89311 0.0
C3425 C 0.70961 0.41762 0.89655 0.0
C3426 C 0.66434 0.43714 0.88429 0.0
C3427 C 0.70036 0.43268 0.87876 0.0
C3428 C 0.74122 0.42131 0.88219 0.0
C3429 C 0.74538 0.41393 0.89106 0.0
C3430 C 0.62024 0.44924 0.88088 0.0
C3431 C 0.78034 0.4163 0.87647 0.0
C3432 C 0.67532 0.40821 0.85541 0.0
C3433 C 0.67924 0.44914 0.8516 0.0
C3434 C 0.6828 0.40235 0.86422 0.0
C3435 C 0.69463 0.43824 0.86934 0.0
C3436 C 0.69919 0.47955 0.86553 0.0
C3437 C 0.69134 0.48455 0.85669 0.0
C3438 C 0.6774 0.35781 0.86806 0.0
C3439 C 0.71189 0.51853 0.8708 0.0
H3440 H 0.6416 0.43277 0.89731 0.0
H3441 H 0.77657 0.40485 0.89367 0.0
H3442 H 0.62213 0.48014 0.87727 0.0
H3443 H 0.60882 0.42412 0.87632 0.0
H3444 H 0.59587 0.45278 0.88607 0.0
H3445 H 0.81016 0.40904 0.88018 0.0
H3446 H 0.7748 0.38974 0.8718 0.0
H3447 H 0.78564 0.4463 0.87271 0.0
H3448 H 0.66607 0.38064 0.85153 0.0
H3449 H 0.69467 0.51622 0.85379 0.0
H3450 H 0.65131 0.35833 0.87296 0.0
H3451 H 0.70757 0.34789 0.87138 0.0
H3452 H 0.66928 0.33305 0.86315 0.0
H3453 H 0.68698 0.52483 0.87577 0.0
H3454 H 0.71566 0.54807 0.8668 0.0
H3455 H 0.74279 0.51224 0.8742 0.0
C3456 C 0.82465 0.36758 0.10926 0.0
C3457 C 0.82417 0.40085 0.10314 0.0
C3458 C 0.83179 0.37655 0.11799 0.0
C3459 C 0.83882 0.41979 0.12064 0.0
C3460 C 0.83775 0.45358 0.11452 0.0
C3461 C 0.83032 0.44373 0.10585 0.0
C3462 C 0.83241 0.33969 0.12436 0.0
C3463 C 0.84525 0.50006 0.1171 0.0
C3464 C 0.82365 0.44568 0.14429 0.0
C3465 C 0.86629 0.44351 0.14735 0.0
C3466 C 0.81426 0.43862 0.13558 0.0
C3467 C 0.84835 0.42948 0.12979 0.0
C3468 C 0.89156 0.42853 0.13279 0.0
C3469 C 0.9 0.43546 0.14154 0.0
C3470 C 0.76778 0.43981 0.13262 0.0
C3471 C 0.9288 0.41927 0.12678 0.0
H3472 H 0.81979 0.33441 0.10723 0.0
H3473 H 0.83002 0.46967 0.10116 0.0
H3474 H 0.86474 0.33753 0.12742 0.0
H3475 H 0.80855 0.34569 0.12954 0.0
H3476 H 0.82493 0.3081 0.1213 0.0
H3477 H 0.8422 0.52267 0.11159 0.0
H3478 H 0.82176 0.50973 0.12213 0.0
H3479 H 0.87807 0.50358 0.1199 0.0
H3480 H 0.79739 0.45183 0.14874 0.0
H3481 H 0.93303 0.43385 0.14384 0.0
H3482 H 0.75827 0.40758 0.13012 0.0
H3483 H 0.76401 0.46324 0.12728 0.0
H3484 H 0.7452 0.4489 0.13787 0.0
H3485 H 0.92534 0.38632 0.12405 0.0
H3486 H 0.96063 0.42148 0.13006 0.0
H3487 H 0.92846 0.44237 0.12133 0.0
C3488 C 0.82042 0.51161 0.35799 0.0
C3489 C 0.83014 0.54784 0.35292 0.0
C3490 C 0.81179 0.51593 0.36681 0.0
C3491 C 0.81312 0.55743 0.37064 0.0
C3492 C 0.82281 0.5941 0.36556 0.0
C3493 C 0.83112 0.58888 0.35676 0.0
C3494 C 0.80143 0.47611 0.37204 0.0
C3495 C 0.82473 0.63887 0.36942 0.0
C3496 C 0.75708 0.57783 0.392 0.0
C3497 C 0.79199 0.57651 0.39775 0.0
C3498 C 0.76333 0.5709 0.38317 0.0
C3499 C 0.80547 0.56254 0.38002 0.0
C3500 C 0.8407 0.56051 0.3858 0.0
C3501 C 0.83354 0.56746 0.39459 0.0
C3502 C 0.72496 0.57317 0.37718 0.0
C3503 C 0.88613 0.55171 0.38269 0.0
H3504 H 0.81941 0.47981 0.35507 0.0
H3505 H 0.83854 0.61707 0.35289 0.0
H3506 H 0.82587 0.47192 0.37719 0.0
H3507 H 0.76954 0.47992 0.37521 0.0
H3508 H 0.80076 0.44631 0.36805 0.0
H3509 H 0.83215 0.6641 0.36456 0.0
H3510 H 0.7934 0.64685 0.37251 0.0
H3511 H 0.84989 0.63999 0.3745 0.0
H3512 H 0.72488 0.58466 0.39439 0.0
H3513 H 0.86071 0.5662 0.39898 0.0
H3514 H 0.72244 0.54288 0.3734 0.0
H3515 H 0.72942 0.60006 0.37255 0.0
H3516 H 0.69408 0.5783 0.38069 0.0
H3517 H 0.88713 0.52081 0.37908 0.0
H3518 H 0.90977 0.5499 0.38805 0.0
H3519 H 0.89646 0.57767 0.37822 0.0
C3520 C 0.39208 0.42292 0.35834 0.0
C3521 C 0.35949 0.4212 0.35208 0.0
C3522 C 0.38247 0.41665 0.36706 0.0
C3523 C 0.33926 0.40837 0.36959 0.0
C3524 C 0.30615 0.40701 0.36332 0.0
C3525 C 0.31665 0.41348 0.35465 0.0
C3526 C 0.41861 0.41848 0.37358 0.0
C3527 C 0.25971 0.39822 0.36577 0.0
C3528 C 0.32255 0.35069 0.39086 0.0
C3529 C 0.31254 0.38518 0.39636 0.0
C3530 C 0.3307 0.35774 0.3821 0.0
C3531 C 0.32886 0.4003 0.37877 0.0
C3532 C 0.3179 0.43514 0.38425 0.0
C3533 C 0.3098 0.42716 0.39298 0.0
C3534 C 0.34207 0.31972 0.37644 0.0
C3535 C 0.31557 0.48096 0.38093 0.0
H3536 H 0.42523 0.42897 0.35641 0.0
H3537 H 0.29121 0.41212 0.34986 0.0
H3538 H 0.41137 0.44327 0.37853 0.0
H3539 H 0.42135 0.38693 0.37693 0.0
H3540 H 0.45031 0.42622 0.37059 0.0
H3541 H 0.23766 0.39916 0.36013 0.0
H3542 H 0.25711 0.36595 0.36884 0.0
H3543 H 0.24855 0.42243 0.37054 0.0
H3544 H 0.32466 0.31815 0.39341 0.0
H3545 H 0.3021 0.45401 0.39719 0.0
H3546 H 0.3751 0.32398 0.37379 0.0
H3547 H 0.3195 0.318 0.37091 0.0
H3548 H 0.34082 0.28851 0.37996 0.0
H3549 H 0.34769 0.49099 0.37845 0.0
H3550 H 0.30533 0.50425 0.38597 0.0
H3551 H 0.29248 0.48293 0.37548 0.0
C3552 C 0.32457 0.56115 0.14261 0.0
C3553 C 0.36731 0.56183 0.14564 0.0
C3554 C 0.31523 0.56864 0.13391 0.0
C3555 C 0.34946 0.57676 0.12808 0.0
C3556 C 0.39274 0.57605 0.13105 0.0
C3557 C 0.40113 0.56869 0.13979 0.0
C3558 C 0.26867 0.56915 0.13099 0.0
C3559 C 0.43016 0.5842 0.12502 0.0
C3560 C 0.33092 0.56555 0.10404 0.0
C3561 C 0.32634 0.60889 0.1015 0.0
C3562 C 0.33783 0.55454 0.11268 0.0
C3563 C 0.34008 0.58762 0.11895 0.0
C3564 C 0.33466 0.63133 0.11646 0.0
C3565 C 0.32792 0.64145 0.10776 0.0
C3566 C 0.34351 0.50757 0.11508 0.0
C3567 C 0.33665 0.66752 0.12296 0.0
H3568 H 0.29821 0.5559 0.14709 0.0
H3569 H 0.43426 0.56911 0.14206 0.0
H3570 H 0.26009 0.60194 0.12865 0.0
H3571 H 0.26407 0.54648 0.12554 0.0
H3572 H 0.24597 0.56014 0.13622 0.0
H3573 H 0.46196 0.58041 0.12826 0.0
H3574 H 0.42871 0.56156 0.1195 0.0
H3575 H 0.428 0.61748 0.1224 0.0
H3576 H 0.32971 0.54013 0.09925 0.0
H3577 H 0.32429 0.67498 0.10587 0.0
H3578 H 0.31982 0.49838 0.12012 0.0
H3579 H 0.37626 0.50247 0.11781 0.0
H3580 H 0.33936 0.48564 0.10949 0.0
H3581 H 0.31263 0.66188 0.12814 0.0
H3582 H 0.33028 0.69965 0.12003 0.0
H3583 H 0.36906 0.66823 0.12602 0.0
C3584 C 0.195 0.57074 0.85406 0.0
C3585 C 0.18122 0.53023 0.85104 0.0
C3586 C 0.20499 0.57727 0.86275 0.0
C3587 C 0.20121 0.54244 0.86859 0.0
C3588 C 0.18844 0.50116 0.86557 0.0
C3589 C 0.17856 0.49553 0.85682 0.0
C3590 C 0.21842 0.62181 0.86571 0.0
C3591 C 0.18416 0.46323 0.87162 0.0
C3592 C 0.25477 0.55542 0.89048 0.0
C3593 C 0.21969 0.5684 0.89558 0.0
C3594 C 0.2492 0.54608 0.8817 0.0
C3595 C 0.20767 0.55016 0.87795 0.0
C3596 C 0.1722 0.56317 0.88307 0.0
C3597 C 0.1786 0.57198 0.89181 0.0
C3598 C 0.28772 0.53207 0.87643 0.0
C3599 C 0.12746 0.56828 0.8793 0.0
H3600 H 0.1975 0.59772 0.84964 0.0
H3601 H 0.16816 0.46409 0.85455 0.0
H3602 H 0.19385 0.63487 0.87022 0.0
H3603 H 0.24949 0.62008 0.86925 0.0
H3604 H 0.22212 0.64483 0.86028 0.0
H3605 H 0.17682 0.43263 0.86818 0.0
H3606 H 0.21444 0.45889 0.87534 0.0
H3607 H 0.15788 0.46957 0.87631 0.0
H3608 H 0.28655 0.55235 0.89335 0.0
H3609 H 0.15127 0.58202 0.89569 0.0
H3610 H 0.29368 0.55575 0.87121 0.0
H3611 H 0.28106 0.50043 0.87334 0.0
H3612 H 0.31755 0.52915 0.88037 0.0
H3613 H 0.12797 0.59313 0.87416 0.0
H3614 H 0.10317 0.57795 0.8842 0.0
H3615 H 0.11687 0.53747 0.87632 0.0
C3616 C 0.11899 0.44227 0.6399 0.0
C3617 C 0.15179 0.44607 0.64608 0.0
C3618 C 0.1289 0.43505 0.63121 0.0
C3619 C 0.17267 0.43121 0.62864 0.0
C3620 C 0.20598 0.43619 0.6348 0.0
C3621 C 0.19515 0.44375 0.64344 0.0
C3622 C 0.09246 0.43039 0.62482 0.0
C3623 C 0.25301 0.43215 0.63232 0.0
C3624 C 0.19202 0.366 0.60832 0.0
C3625 C 0.19705 0.39861 0.60214 0.0
C3626 C 0.18534 0.3762 0.61701 0.0
C3627 C 0.18334 0.42009 0.61958 0.0
C3628 C 0.18966 0.45316 0.61342 0.0
C3629 C 0.19661 0.44203 0.60478 0.0
C3630 C 0.17922 0.33998 0.62341 0.0
C3631 C 0.18763 0.50032 0.6159 0.0
H3632 H 0.08543 0.44422 0.64187 0.0
H3633 H 0.22073 0.44663 0.64816 0.0
H3634 H 0.09715 0.45313 0.61938 0.0
H3635 H 0.09249 0.39719 0.62212 0.0
H3636 H 0.06033 0.43665 0.62776 0.0
H3637 H 0.27505 0.43918 0.63778 0.0
H3638 H 0.25956 0.39886 0.63 0.0
H3639 H 0.26069 0.45456 0.62697 0.0
H3640 H 0.19252 0.33238 0.60635 0.0
H3641 H 0.20047 0.46748 0.60005 0.0
H3642 H 0.14603 0.34134 0.62611 0.0
H3643 H 0.2021 0.34376 0.62885 0.0
H3644 H 0.18419 0.30762 0.62047 0.0
H3645 H 0.15465 0.50828 0.61822 0.0
H3646 H 0.1956 0.52205 0.61044 0.0
H3647 H 0.21034 0.50703 0.62125 0.0
loop_
_geom_bond_atom_site_label_1
_geom_bond_atom_site_label_2
_geom_bond_distance
_geom_bond_site_symmetry_2
_ccdc_geom_bond_type
Co0 O3 1.970 . S
Co0 N17 1.989 . S
Co0 O25 1.967 . S
Co0 O32 1.920 . S
Co1 O4 1.966 . S
Co1 N10 2.022 . S
Co1 N18 1.993 . S
Co1 O26 1.941 . S
C2 O3 1.258 . S
C2 O4 1.263 . S
O3 Co0 1.970 . S
O3 C2 1.258 . S
O4 Co1 1.966 . S
O4 C2 1.263 . S
C5 O6 1.235 . S
C5 O32 1.289 . S
O6 C5 1.235 . S
C7 C9 1.400 . S
C7 N10 1.351 . S
C7 C12 1.501 1_545 S
C8 C9 1.387 . S
C8 N11 1.341 . S
C9 C7 1.400 . S
C9 C8 1.387 . S
N10 Co1 2.022 . S
N10 C7 1.351 . S
N10 N11 1.365 . S
N11 C8 1.341 . S
N11 N10 1.365 . S
N11 H31 0.862 . S
C12 C7 1.501 1_565 S
C12 H13 0.961 1_565 S
C12 H14 0.961 . S
C12 H15 0.960 . S
H13 C12 0.961 1_545 S
H14 C12 0.961 . S
H15 C12 0.960 . S
C16 N17 1.342 . S
C16 C20 1.401 . S
C16 C21 1.499 . S
N17 Co0 1.989 . S
N17 C16 1.342 . S
N17 N18 1.388 . S
N18 Co1 1.993 . S
N18 N17 1.388 . S
N18 C19 1.346 . S
C19 N18 1.346 . S
C19 C20 1.396 . S
C19 C29 1.510 . S
C20 C16 1.401 . S
C20 C19 1.396 . S
C21 C16 1.499 . S
C21 H22 0.959 . S
C21 H23 0.960 . S
C21 H24 0.961 . S
H22 C21 0.959 . S
H23 C21 0.960 . S
H24 C21 0.961 . S
O25 Co0 1.967 . S
O25 C33 1.258 . S
O26 Co1 1.941 . S
O26 C33 1.266 . S
H27 C29 0.959 . S
H28 C29 0.961 1_565 S
C29 C19 1.510 . S
C29 H27 0.959 . S
C29 H28 0.961 1_545 S
C29 H30 0.960 . S
H30 C29 0.960 . S
H31 N11 0.862 . S
O32 Co0 1.920 . S
O32 C5 1.289 . S
C33 O25 1.258 . S
C33 O26 1.266 . S
Co34 O37 1.970 . S
Co34 N51 1.989 . S
Co34 O59 1.967 . S
Co34 O66 1.920 . S
Co35 O38 1.966 . S
Co35 N44 2.022 . S
Co35 N52 1.993 . S
Co35 O60 1.941 . S
C36 O37 1.258 . S
C36 O38 1.263 . S
O37 Co34 1.970 . S
O37 C36 1.258 . S
O38 Co35 1.966 . S
O38 C36 1.263 . S
C39 O40 1.235 . S
C39 O66 1.289 . S
O40 C39 1.235 . S
C41 C43 1.400 . S
C41 N44 1.351 . S
C41 C46 1.501 . S
C42 C43 1.387 . S
C42 N45 1.341 . S
C43 C41 1.400 . S
C43 C42 1.387 . S
N44 Co35 2.022 . S
N44 C41 1.351 . S
N44 N45 1.365 . S
N45 C42 1.341 . S
N45 N44 1.365 . S
N45 H65 0.862 . S
C46 C41 1.501 . S
C46 H47 0.961 . S
C46 H48 0.961 . S
C46 H49 0.960 . S
H47 C46 0.961 . S
H48 C46 0.961 . S
H49 C46 0.960 . S
C50 N51 1.342 . S
C50 C54 1.401 . S
C50 C55 1.499 . S
N51 Co34 1.989 . S
N51 C50 1.342 . S
N51 N52 1.388 . S
N52 Co35 1.993 . S
N52 N51 1.388 . S
N52 C53 1.346 . S
C53 N52 1.346 . S
C53 C54 1.396 . S
C53 C63 1.510 . S
C54 C50 1.401 . S
C54 C53 1.396 . S
C55 C50 1.499 . S
C55 H56 0.959 . S
C55 H57 0.960 . S
C55 H58 0.961 . S
H56 C55 0.959 . S
H57 C55 0.960 . S
H58 C55 0.961 . S
O59 Co34 1.967 . S
O59 C67 1.258 . S
O60 Co35 1.941 . S
O60 C67 1.266 . S
H61 C63 0.959 . S
H62 C63 0.961 . S
C63 C53 1.510 . S
C63 H61 0.959 . S
C63 H62 0.961 . S
C63 H64 0.960 . S
H64 C63 0.960 . S
H65 N45 0.862 . S
O66 Co34 1.920 . S
O66 C39 1.289 . S
C67 O59 1.258 . S
C67 O60 1.266 . S
Co68 O71 1.970 . S
Co68 N85 1.989 . S
Co68 O93 1.967 . S
Co68 O100 1.920 . S
Co69 O72 1.966 . S
Co69 N78 2.022 . S
Co69 N86 1.993 . S
Co69 O94 1.941 . S
C70 O71 1.258 . S
C70 O72 1.263 . S
O71 Co68 1.970 . S
O71 C70 1.258 . S
O72 Co69 1.966 . S
O72 C70 1.263 . S
C73 O74 1.235 . S
C73 O100 1.289 . S
O74 C73 1.235 . S
C75 C77 1.400 . S
C75 N78 1.351 . S
C75 C80 1.501 1_565 S
C76 C77 1.387 . S
C76 N79 1.341 . S
C77 C75 1.400 . S
C77 C76 1.387 . S
N78 Co69 2.022 . S
N78 C75 1.351 . S
N78 N79 1.365 . S
N79 C76 1.341 . S
N79 N78 1.365 . S
N79 H99 0.862 . S
C80 C75 1.501 1_545 S
C80 H81 0.961 1_545 S
C80 H82 0.961 . S
C80 H83 0.960 . S
H81 C80 0.961 1_565 S
H82 C80 0.961 . S
H83 C80 0.960 . S
C84 N85 1.342 . S
C84 C88 1.401 . S
C84 C89 1.499 . S
N85 Co68 1.989 . S
N85 C84 1.342 . S
N85 N86 1.388 . S
N86 Co69 1.993 . S
N86 N85 1.388 . S
N86 C87 1.346 . S
C87 N86 1.346 . S
C87 C88 1.396 . S
C87 C97 1.510 . S
C88 C84 1.401 . S
C88 C87 1.396 . S
C89 C84 1.499 . S
C89 H90 0.959 . S
C89 H91 0.960 . S
C89 H92 0.961 . S
H90 C89 0.959 . S
H91 C89 0.960 . S
H92 C89 0.961 . S
O93 Co68 1.967 . S
O93 C101 1.258 . S
O94 Co69 1.941 . S
O94 C101 1.266 . S
H95 C97 0.959 . S
H96 C97 0.961 1_545 S
C97 C87 1.510 . S
C97 H95 0.959 . S
C97 H96 0.961 1_565 S
C97 H98 0.960 . S
H98 C97 0.960 . S
H99 N79 0.862 . S
O100 Co68 1.920 . S
O100 C73 1.289 . S
C101 O93 1.258 . S
C101 O94 1.266 . S
Co102 O105 1.970 . S
Co102 N119 1.989 . S
Co102 O127 1.967 . S
Co102 O134 1.920 . S
Co103 O106 1.966 . S
Co103 N112 2.022 . S
Co103 N120 1.993 . S
Co103 O128 1.941 . S
C104 O105 1.258 . S
C104 O106 1.263 . S
O105 Co102 1.970 . S
O105 C104 1.258 . S
O106 Co103 1.966 . S
O106 C104 1.263 . S
C107 O108 1.235 . S
C107 O134 1.289 . S
O108 C107 1.235 . S
C109 C111 1.400 . S
C109 N112 1.351 . S
C109 C114 1.501 . S
C110 C111 1.387 . S
C110 N113 1.341 . S
C111 C109 1.400 . S
C111 C110 1.387 . S
N112 Co103 2.022 . S
N112 C109 1.351 . S
N112 N113 1.365 . S
N113 C110 1.341 . S
N113 N112 1.365 . S
N113 H133 0.862 . S
C114 C109 1.501 . S
C114 H115 0.961 . S
C114 H116 0.961 . S
C114 H117 0.960 . S
H115 C114 0.961 . S
H116 C114 0.961 . S
H117 C114 0.960 . S
C118 N119 1.342 . S
C118 C122 1.401 . S
C118 C123 1.499 . S
N119 Co102 1.989 . S
N119 C118 1.342 . S
N119 N120 1.388 . S
N120 Co103 1.993 . S
N120 N119 1.388 . S
N120 C121 1.346 . S
C121 N120 1.346 . S
C121 C122 1.396 . S
C121 C131 1.510 . S
C122 C118 1.401 . S
C122 C121 1.396 . S
C123 C118 1.499 . S
C123 H124 0.959 . S
C123 H125 0.960 . S
C123 H126 0.961 . S
H124 C123 0.959 . S
H125 C123 0.960 . S
H126 C123 0.961 . S
O127 Co102 1.967 . S
O127 C135 1.258 . S
O128 Co103 1.941 . S
O128 C135 1.266 . S
H129 C131 0.959 . S
H130 C131 0.961 . S
C131 C121 1.510 . S
C131 H129 0.959 . S
C131 H130 0.961 . S
C131 H132 0.960 . S
H132 C131 0.960 . S
H133 N113 0.862 . S
O134 Co102 1.920 . S
O134 C107 1.289 . S
C135 O127 1.258 . S
C135 O128 1.266 . S
Co136 O139 1.970 . S
Co136 N153 1.989 . S
Co136 O161 1.967 . S
Co136 O168 1.920 . S
Co137 O140 1.966 . S
Co137 N146 2.022 . S
Co137 N154 1.993 . S
Co137 O162 1.941 . S
C138 O139 1.258 . S
C138 O140 1.263 . S
O139 Co136 1.970 . S
O139 C138 1.258 . S
O140 Co137 1.966 . S
O140 C138 1.263 . S
C141 O142 1.235 . S
C141 O168 1.289 . S
O142 C141 1.235 . S
C143 C145 1.400 . S
C143 N146 1.351 . S
C143 C148 1.501 1_565 S
C144 C145 1.387 . S
C144 N147 1.341 . S
C145 C143 1.400 . S
C145 C144 1.387 . S
N146 Co137 2.022 . S
N146 C143 1.351 . S
N146 N147 1.365 . S
N147 C144 1.341 . S
N147 N146 1.365 . S
N147 H167 0.862 . S
C148 C143 1.501 1_545 S
C148 H149 0.961 1_545 S
C148 H150 0.961 . S
C148 H151 0.960 . S
H149 C148 0.961 1_565 S
H150 C148 0.961 . S
H151 C148 0.960 . S
C152 N153 1.342 . S
C152 C156 1.401 . S
C152 C157 1.499 . S
N153 Co136 1.989 . S
N153 C152 1.342 . S
N153 N154 1.388 . S
N154 Co137 1.993 . S
N154 N153 1.388 . S
N154 C155 1.346 . S
C155 N154 1.346 . S
C155 C156 1.396 . S
C155 C165 1.510 . S
C156 C152 1.401 . S
C156 C155 1.396 . S
C157 C152 1.499 . S
C157 H158 0.959 . S
C157 H159 0.960 . S
C157 H160 0.961 . S
H158 C157 0.959 . S
H159 C157 0.960 . S
H160 C157 0.961 . S
O161 Co136 1.967 . S
O161 C169 1.258 . S
O162 Co137 1.941 . S
O162 C169 1.266 . S
H163 C165 0.959 . S
H164 C165 0.961 1_545 S
C165 C155 1.510 . S
C165 H163 0.959 . S
C165 H164 0.961 1_565 S
C165 H166 0.960 . S
H166 C165 0.960 . S
H167 N147 0.862 . S
O168 Co136 1.920 . S
O168 C141 1.289 . S
C169 O161 1.258 . S
C169 O162 1.266 . S
Co170 O173 1.970 . S
Co170 N187 1.989 . S
Co170 O195 1.967 . S
Co170 O202 1.920 . S
Co171 O174 1.966 . S
Co171 N180 2.022 . S
Co171 N188 1.993 . S
Co171 O196 1.941 . S
C172 O173 1.258 . S
C172 O174 1.263 . S
O173 Co170 1.970 . S
O173 C172 1.258 . S
O174 Co171 1.966 . S
O174 C172 1.263 . S
C175 O176 1.235 . S
C175 O202 1.289 . S
O176 C175 1.235 . S
C177 C179 1.400 . S
C177 N180 1.351 . S
C177 C182 1.501 . S
C178 C179 1.387 . S
C178 N181 1.341 . S
C179 C177 1.400 . S
C179 C178 1.387 . S
N180 Co171 2.022 . S
N180 C177 1.351 . S
N180 N181 1.365 . S
N181 C178 1.341 . S
N181 N180 1.365 . S
N181 H201 0.862 . S
C182 C177 1.501 . S
C182 H183 0.961 . S
C182 H184 0.961 . S
C182 H185 0.960 . S
H183 C182 0.961 . S
H184 C182 0.961 . S
H185 C182 0.960 . S
C186 N187 1.342 . S
C186 C190 1.401 . S
C186 C191 1.499 . S
N187 Co170 1.989 . S
N187 C186 1.342 . S
N187 N188 1.388 . S
N188 Co171 1.993 . S
N188 N187 1.388 . S
N188 C189 1.346 . S
C189 N188 1.346 . S
C189 C190 1.396 . S
C189 C199 1.510 . S
C190 C186 1.401 . S
C190 C189 1.396 . S
C191 C186 1.499 . S
C191 H192 0.959 . S
C191 H193 0.960 . S
C191 H194 0.961 . S
H192 C191 0.959 . S
H193 C191 0.960 . S
H194 C191 0.961 . S
O195 Co170 1.967 . S
O195 C203 1.258 . S
O196 Co171 1.941 . S
O196 C203 1.266 . S
H197 C199 0.959 . S
H198 C199 0.961 . S
C199 C189 1.510 . S
C199 H197 0.959 . S
C199 H198 0.961 . S
C199 H200 0.960 . S
H200 C199 0.960 . S
H201 N181 0.862 . S
O202 Co170 1.920 . S
O202 C175 1.289 . S
C203 O195 1.258 . S
C203 O196 1.266 . S
Co204 O207 1.970 . S
Co204 N221 1.989 . S
Co204 O229 1.967 . S
Co204 O236 1.920 . S
Co205 O208 1.966 . S
Co205 N214 2.022 . S
Co205 N222 1.993 . S
Co205 O230 1.941 . S
C206 O207 1.258 . S
C206 O208 1.263 . S
O207 Co204 1.970 . S
O207 C206 1.258 . S
O208 Co205 1.966 . S
O208 C206 1.263 . S
C209 O210 1.235 . S
C209 O236 1.289 . S
O210 C209 1.235 . S
C211 C213 1.400 . S
C211 N214 1.351 . S
C211 C216 1.501 1_545 S
C212 C213 1.387 . S
C212 N215 1.341 . S
C213 C211 1.400 . S
C213 C212 1.387 . S
N214 Co205 2.022 . S
N214 C211 1.351 . S
N214 N215 1.365 . S
N215 C212 1.341 . S
N215 N214 1.365 . S
N215 H235 0.862 . S
C216 C211 1.501 1_565 S
C216 H217 0.961 1_565 S
C216 H218 0.961 . S
C216 H219 0.960 . S
H217 C216 0.961 1_545 S
H218 C216 0.961 . S
H219 C216 0.960 . S
C220 N221 1.342 . S
C220 C224 1.401 . S
C220 C225 1.499 . S
N221 Co204 1.989 . S
N221 C220 1.342 . S
N221 N222 1.388 . S
N222 Co205 1.993 . S
N222 N221 1.388 . S
N222 C223 1.346 . S
C223 N222 1.346 . S
C223 C224 1.396 . S
C223 C233 1.510 . S
C224 C220 1.401 . S
C224 C223 1.396 . S
C225 C220 1.499 . S
C225 H226 0.959 . S
C225 H227 0.960 . S
C225 H228 0.961 . S
H226 C225 0.959 . S
H227 C225 0.960 . S
H228 C225 0.961 . S
O229 Co204 1.967 . S
O229 C237 1.258 . S
O230 Co205 1.941 . S
O230 C237 1.266 . S
H231 C233 0.959 . S
H232 C233 0.961 1_565 S
C233 C223 1.510 . S
C233 H231 0.959 . S
C233 H232 0.961 1_545 S
C233 H234 0.960 . S
H234 C233 0.960 . S
H235 N215 0.862 . S
O236 Co204 1.920 . S
O236 C209 1.289 . S
C237 O229 1.258 . S
C237 O230 1.266 . S
Co238 O241 1.970 . S
Co238 N255 1.989 . S
Co238 O263 1.967 . S
Co238 O270 1.920 . S
Co239 O242 1.966 . S
Co239 N248 2.022 . S
Co239 N256 1.993 . S
Co239 O264 1.941 . S
C240 O241 1.258 . S
C240 O242 1.263 . S
O241 Co238 1.970 . S
O241 C240 1.258 . S
O242 Co239 1.966 . S
O242 C240 1.263 . S
C243 O244 1.235 . S
C243 O270 1.289 . S
O244 C243 1.235 . S
C245 C247 1.400 . S
C245 N248 1.351 . S
C245 C250 1.501 . S
C246 C247 1.387 . S
C246 N249 1.341 . S
C247 C245 1.400 . S
C247 C246 1.387 . S
N248 Co239 2.022 . S
N248 C245 1.351 . S
N248 N249 1.365 . S
N249 C246 1.341 . S
N249 N248 1.365 . S
N249 H269 0.862 . S
C250 C245 1.501 . S
C250 H251 0.961 . S
C250 H252 0.961 . S
C250 H253 0.960 . S
H251 C250 0.961 . S
H252 C250 0.961 . S
H253 C250 0.960 . S
C254 N255 1.342 . S
C254 C258 1.401 . S
C254 C259 1.499 . S
N255 Co238 1.989 . S
N255 C254 1.342 . S
N255 N256 1.388 . S
N256 Co239 1.993 . S
N256 N255 1.388 . S
N256 C257 1.346 . S
C257 N256 1.346 . S
C257 C258 1.396 . S
C257 C267 1.510 . S
C258 C254 1.401 . S
C258 C257 1.396 . S
C259 C254 1.499 . S
C259 H260 0.959 . S
C259 H261 0.960 . S
C259 H262 0.961 . S
H260 C259 0.959 . S
H261 C259 0.960 . S
H262 C259 0.961 . S
O263 Co238 1.967 . S
O263 C271 1.258 . S
O264 Co239 1.941 . S
O264 C271 1.266 . S
H265 C267 0.959 . S
H266 C267 0.961 . S
C267 C257 1.510 . S
C267 H265 0.959 . S
C267 H266 0.961 . S
C267 H268 0.960 . S
H268 C267 0.960 . S
H269 N249 0.862 . S
O270 Co238 1.920 . S
O270 C243 1.289 . S
C271 O263 1.258 . S
C271 O264 1.266 . S
Co272 O275 1.970 . S
Co272 N289 1.989 . S
Co272 O297 1.967 . S
Co272 O304 1.920 . S
Co273 O276 1.966 . S
Co273 N282 2.022 . S
Co273 N290 1.993 . S
Co273 O298 1.941 . S
C274 O275 1.258 . S
C274 O276 1.263 . S
O275 Co272 1.970 . S
O275 C274 1.258 . S
O276 Co273 1.966 . S
O276 C274 1.263 . S
C277 O278 1.235 . S
C277 O304 1.289 . S
O278 C277 1.235 . S
C279 C281 1.400 . S
C279 N282 1.351 . S
C279 C284 1.501 1_565 S
C280 C281 1.387 . S
C280 N283 1.341 . S
C281 C279 1.400 . S
C281 C280 1.387 . S
N282 Co273 2.022 . S
N282 C279 1.351 . S
N282 N283 1.365 . S
N283 C280 1.341 . S
N283 N282 1.365 . S
N283 H303 0.862 . S
C284 C279 1.501 1_545 S
C284 H285 0.961 1_545 S
C284 H286 0.961 . S
C284 H287 0.960 . S
H285 C284 0.961 1_565 S
H286 C284 0.961 . S
H287 C284 0.960 . S
C288 N289 1.342 . S
C288 C292 1.401 . S
C288 C293 1.499 . S
N289 Co272 1.989 . S
N289 C288 1.342 . S
N289 N290 1.388 . S
N290 Co273 1.993 . S
N290 N289 1.388 . S
N290 C291 1.346 . S
C291 N290 1.346 . S
C291 C292 1.396 . S
C291 C301 1.510 . S
C292 C288 1.401 . S
C292 C291 1.396 . S
C293 C288 1.499 . S
C293 H294 0.959 . S
C293 H295 0.960 . S
C293 H296 0.961 . S
H294 C293 0.959 . S
H295 C293 0.960 . S
H296 C293 0.961 . S
O297 Co272 1.967 . S
O297 C305 1.258 . S
O298 Co273 1.941 . S
O298 C305 1.266 . S
H299 C301 0.959 . S
H300 C301 0.961 1_545 S
C301 C291 1.510 . S
C301 H299 0.959 . S
C301 H300 0.961 1_565 S
C301 H302 0.960 . S
H302 C301 0.960 . S
H303 N283 0.862 . S
O304 Co272 1.920 . S
O304 C277 1.289 . S
C305 O297 1.258 . S
C305 O298 1.266 . S
Co306 O309 1.970 . S
Co306 N323 1.989 . S
Co306 O331 1.967 . S
Co306 O338 1.920 . S
Co307 O310 1.966 . S
Co307 N316 2.022 . S
Co307 N324 1.993 . S
Co307 O332 1.941 . S
C308 O309 1.258 . S
C308 O310 1.263 . S
O309 Co306 1.970 . S
O309 C308 1.258 . S
O310 Co307 1.966 . S
O310 C308 1.263 . S
C311 O312 1.235 . S
C311 O338 1.289 . S
O312 C311 1.235 . S
C313 C315 1.400 . S
C313 N316 1.351 . S
C313 C318 1.501 . S
C314 C315 1.387 . S
C314 N317 1.341 . S
C315 C313 1.400 . S
C315 C314 1.387 . S
N316 Co307 2.022 . S
N316 C313 1.351 . S
N316 N317 1.365 . S
N317 C314 1.341 . S
N317 N316 1.365 . S
N317 H337 0.862 . S
C318 C313 1.501 . S
C318 H319 0.961 . S
C318 H320 0.961 . S
C318 H321 0.960 . S
H319 C318 0.961 . S
H320 C318 0.961 . S
H321 C318 0.960 . S
C322 N323 1.342 . S
C322 C326 1.401 . S
C322 C327 1.499 . S
N323 Co306 1.989 . S
N323 C322 1.342 . S
N323 N324 1.388 . S
N324 Co307 1.993 . S
N324 N323 1.388 . S
N324 C325 1.346 . S
C325 N324 1.346 . S
C325 C326 1.396 . S
C325 C335 1.510 . S
C326 C322 1.401 . S
C326 C325 1.396 . S
C327 C322 1.499 . S
C327 H328 0.959 . S
C327 H329 0.960 . S
C327 H330 0.961 . S
H328 C327 0.959 . S
H329 C327 0.960 . S
H330 C327 0.961 . S
O331 Co306 1.967 . S
O331 C339 1.258 . S
O332 Co307 1.941 . S
O332 C339 1.266 . S
H333 C335 0.959 . S
H334 C335 0.961 . S
C335 C325 1.510 . S
C335 H333 0.959 . S
C335 H334 0.961 . S
C335 H336 0.960 . S
H336 C335 0.960 . S
H337 N317 0.862 . S
O338 Co306 1.920 . S
O338 C311 1.289 . S
C339 O331 1.258 . S
C339 O332 1.266 . S
Co340 O343 1.970 . S
Co340 N357 1.989 . S
Co340 O365 1.967 . S
Co340 O372 1.920 . S
Co341 O344 1.966 . S
Co341 N350 2.022 . S
Co341 N358 1.993 . S
Co341 O366 1.941 . S
C342 O343 1.258 . S
C342 O344 1.263 . S
O343 Co340 1.970 . S
O343 C342 1.258 . S
O344 Co341 1.966 . S
O344 C342 1.263 . S
C345 O346 1.235 . S
C345 O372 1.289 . S
O346 C345 1.235 . S
C347 C349 1.400 . S
C347 N350 1.351 . S
C347 C352 1.501 1_545 S
C348 C349 1.387 . S
C348 N351 1.341 . S
C349 C347 1.400 . S
C349 C348 1.387 . S
N350 Co341 2.022 . S
N350 C347 1.351 . S
N350 N351 1.365 . S
N351 C348 1.341 . S
N351 N350 1.365 . S
N351 H371 0.862 . S
C352 C347 1.501 1_565 S
C352 H353 0.961 1_565 S
C352 H354 0.961 . S
C352 H355 0.960 . S
H353 C352 0.961 1_545 S
H354 C352 0.961 . S
H355 C352 0.960 . S
C356 N357 1.342 . S
C356 C360 1.401 . S
C356 C361 1.499 . S
N357 Co340 1.989 . S
N357 C356 1.342 . S
N357 N358 1.388 . S
N358 Co341 1.993 . S
N358 N357 1.388 . S
N358 C359 1.346 . S
C359 N358 1.346 . S
C359 C360 1.396 . S
C359 C369 1.510 . S
C360 C356 1.401 . S
C360 C359 1.396 . S
C361 C356 1.499 . S
C361 H362 0.959 . S
C361 H363 0.960 . S
C361 H364 0.961 . S
H362 C361 0.959 . S
H363 C361 0.960 . S
H364 C361 0.961 . S
O365 Co340 1.967 . S
O365 C373 1.258 . S
O366 Co341 1.941 . S
O366 C373 1.266 . S
H367 C369 0.959 . S
H368 C369 0.961 1_565 S
C369 C359 1.510 . S
C369 H367 0.959 . S
C369 H368 0.961 1_545 S
C369 H370 0.960 . S
H370 C369 0.960 . S
H371 N351 0.862 . S
O372 Co340 1.920 . S
O372 C345 1.289 . S
C373 O365 1.258 . S
C373 O366 1.266 . S
Co374 O377 1.970 . S
Co374 N391 1.989 . S
Co374 O399 1.967 . S
Co374 O406 1.920 . S
Co375 O378 1.966 . S
Co375 N384 2.022 . S
Co375 N392 1.993 . S
Co375 O400 1.941 . S
C376 O377 1.258 . S
C376 O378 1.263 . S
O377 Co374 1.970 . S
O377 C376 1.258 . S
O378 Co375 1.966 . S
O378 C376 1.263 . S
C379 O380 1.235 . S
C379 O406 1.289 . S
O380 C379 1.235 . S
C381 C383 1.400 . S
C381 N384 1.351 . S
C381 C386 1.501 . S
C382 C383 1.387 . S
C382 N385 1.341 . S
C383 C381 1.400 . S
C383 C382 1.387 . S
N384 Co375 2.022 . S
N384 C381 1.351 . S
N384 N385 1.365 . S
N385 C382 1.341 . S
N385 N384 1.365 . S
N385 H405 0.862 . S
C386 C381 1.501 . S
C386 H387 0.961 . S
C386 H388 0.961 . S
C386 H389 0.960 . S
H387 C386 0.961 . S
H388 C386 0.961 . S
H389 C386 0.960 . S
C390 N391 1.342 . S
C390 C394 1.401 . S
C390 C395 1.499 . S
N391 Co374 1.989 . S
N391 C390 1.342 . S
N391 N392 1.388 . S
N392 Co375 1.993 . S
N392 N391 1.388 . S
N392 C393 1.346 . S
C393 N392 1.346 . S
C393 C394 1.396 . S
C393 C403 1.510 . S
C394 C390 1.401 . S
C394 C393 1.396 . S
C395 C390 1.499 . S
C395 H396 0.959 . S
C395 H397 0.960 . S
C395 H398 0.961 . S
H396 C395 0.959 . S
H397 C395 0.960 . S
H398 C395 0.961 . S
O399 Co374 1.967 . S
O399 C407 1.258 . S
O400 Co375 1.941 . S
O400 C407 1.266 . S
H401 C403 0.959 . S
H402 C403 0.961 . S
C403 C393 1.510 . S
C403 H401 0.959 . S
C403 H402 0.961 . S
C403 H404 0.960 . S
H404 C403 0.960 . S
H405 N385 0.862 . S
O406 Co374 1.920 . S
O406 C379 1.289 . S
C407 O399 1.258 . S
C407 O400 1.266 . S
Co408 O411 1.970 . S
Co408 N425 1.989 . S
Co408 O433 1.967 . S
Co408 O440 1.920 . S
Co409 O412 1.966 . S
Co409 N418 2.022 . S
Co409 N426 1.993 . S
Co409 O434 1.941 . S
C410 O411 1.258 . S
C410 O412 1.263 . S
O411 Co408 1.970 . S
O411 C410 1.258 . S
O412 Co409 1.966 . S
O412 C410 1.263 . S
C413 O414 1.235 . S
C413 O440 1.289 . S
O414 C413 1.235 . S
C415 C417 1.400 . S
C415 N418 1.351 . S
C415 C420 1.501 1_545 S
C416 C417 1.387 . S
C416 N419 1.341 . S
C417 C415 1.400 . S
C417 C416 1.387 . S
N418 Co409 2.022 . S
N418 C415 1.351 . S
N418 N419 1.365 . S
N419 C416 1.341 . S
N419 N418 1.365 . S
N419 H439 0.862 . S
C420 C415 1.501 1_565 S
C420 H421 0.961 1_565 S
C420 H422 0.961 . S
C420 H423 0.960 . S
H421 C420 0.961 1_545 S
H422 C420 0.961 . S
H423 C420 0.960 . S
C424 N425 1.342 . S
C424 C428 1.401 . S
C424 C429 1.499 . S
N425 Co408 1.989 . S
N425 C424 1.342 . S
N425 N426 1.388 . S
N426 Co409 1.993 . S
N426 N425 1.388 . S
N426 C427 1.346 . S
C427 N426 1.346 . S
C427 C428 1.396 . S
C427 C437 1.510 . S
C428 C424 1.401 . S
C428 C427 1.396 . S
C429 C424 1.499 . S
C429 H430 0.959 . S
C429 H431 0.960 . S
C429 H432 0.961 . S
H430 C429 0.959 . S
H431 C429 0.960 . S
H432 C429 0.961 . S
O433 Co408 1.967 . S
O433 C441 1.258 . S
O434 Co409 1.941 . S
O434 C441 1.266 . S
H435 C437 0.959 . S
H436 C437 0.961 1_565 S
C437 C427 1.510 . S
C437 H435 0.959 . S
C437 H436 0.961 1_545 S
C437 H438 0.960 . S
H438 C437 0.960 . S
H439 N419 0.862 . S
O440 Co408 1.920 . S
O440 C413 1.289 . S
C441 O433 1.258 . S
C441 O434 1.266 . S
Co442 O445 1.970 . S
Co442 N459 1.989 . S
Co442 O467 1.967 . S
Co442 O474 1.920 . S
Co443 O446 1.966 . S
Co443 N452 2.022 . S
Co443 N460 1.993 . S
Co443 O468 1.941 . S
C444 O445 1.258 . S
C444 O446 1.263 . S
O445 Co442 1.970 . S
O445 C444 1.258 . S
O446 Co443 1.966 . S
O446 C444 1.263 . S
C447 O448 1.235 . S
C447 O474 1.289 . S
O448 C447 1.235 . S
C449 C451 1.400 . S
C449 N452 1.351 . S
C449 C454 1.501 . S
C450 C451 1.387 . S
C450 N453 1.341 . S
C451 C449 1.400 . S
C451 C450 1.387 . S
N452 Co443 2.022 . S
N452 C449 1.351 . S
N452 N453 1.365 . S
N453 C450 1.341 . S
N453 N452 1.365 . S
N453 H473 0.862 . S
C454 C449 1.501 . S
C454 H455 0.961 . S
C454 H456 0.961 . S
C454 H457 0.960 . S
H455 C454 0.961 . S
H456 C454 0.961 . S
H457 C454 0.960 . S
C458 N459 1.342 . S
C458 C462 1.401 . S
C458 C463 1.499 . S
N459 Co442 1.989 . S
N459 C458 1.342 . S
N459 N460 1.388 . S
N460 Co443 1.993 . S
N460 N459 1.388 . S
N460 C461 1.346 . S
C461 N460 1.346 . S
C461 C462 1.396 . S
C461 C471 1.510 . S
C462 C458 1.401 . S
C462 C461 1.396 . S
C463 C458 1.499 . S
C463 H464 0.959 . S
C463 H465 0.960 . S
C463 H466 0.961 . S
H464 C463 0.959 . S
H465 C463 0.960 . S
H466 C463 0.961 . S
O467 Co442 1.967 . S
O467 C475 1.258 . S
O468 Co443 1.941 . S
O468 C475 1.266 . S
H469 C471 0.959 . S
H470 C471 0.961 . S
C471 C461 1.510 . S
C471 H469 0.959 . S
C471 H470 0.961 . S
C471 H472 0.960 . S
H472 C471 0.960 . S
H473 N453 0.862 . S
O474 Co442 1.920 . S
O474 C447 1.289 . S
C475 O467 1.258 . S
C475 O468 1.266 . S
Co476 O479 1.970 . S
Co476 N493 1.989 . S
Co476 O501 1.967 . S
Co476 O508 1.920 . S
Co477 O480 1.966 . S
Co477 N486 2.022 . S
Co477 N494 1.993 . S
Co477 O502 1.941 . S
C478 O479 1.258 . S
C478 O480 1.263 . S
O479 Co476 1.970 . S
O479 C478 1.258 . S
O480 Co477 1.966 . S
O480 C478 1.263 . S
C481 O482 1.235 . S
C481 O508 1.289 . S
O482 C481 1.235 . S
C483 C485 1.400 . S
C483 N486 1.351 . S
C483 C488 1.501 1_565 S
C484 C485 1.387 . S
C484 N487 1.341 . S
C485 C483 1.400 . S
C485 C484 1.387 . S
N486 Co477 2.022 . S
N486 C483 1.351 . S
N486 N487 1.365 . S
N487 C484 1.341 . S
N487 N486 1.365 . S
N487 H507 0.862 . S
C488 C483 1.501 1_545 S
C488 H489 0.961 1_545 S
C488 H490 0.961 . S
C488 H491 0.960 . S
H489 C488 0.961 1_565 S
H490 C488 0.961 . S
H491 C488 0.960 . S
C492 N493 1.342 . S
C492 C496 1.401 . S
C492 C497 1.499 . S
N493 Co476 1.989 . S
N493 C492 1.342 . S
N493 N494 1.388 . S
N494 Co477 1.993 . S
N494 N493 1.388 . S
N494 C495 1.346 . S
C495 N494 1.346 . S
C495 C496 1.396 . S
C495 C505 1.510 . S
C496 C492 1.401 . S
C496 C495 1.396 . S
C497 C492 1.499 . S
C497 H498 0.959 . S
C497 H499 0.960 . S
C497 H500 0.961 . S
H498 C497 0.959 . S
H499 C497 0.960 . S
H500 C497 0.961 . S
O501 Co476 1.967 . S
O501 C509 1.258 . S
O502 Co477 1.941 . S
O502 C509 1.266 . S
H503 C505 0.959 . S
H504 C505 0.961 1_545 S
C505 C495 1.510 . S
C505 H503 0.959 . S
C505 H504 0.961 1_565 S
C505 H506 0.960 . S
H506 C505 0.960 . S
H507 N487 0.862 . S
O508 Co476 1.920 . S
O508 C481 1.289 . S
C509 O501 1.258 . S
C509 O502 1.266 . S
Co510 O513 1.970 . S
Co510 N527 1.989 . S
Co510 O535 1.967 . S
Co510 O542 1.920 . S
Co511 O514 1.966 . S
Co511 N520 2.022 . S
Co511 N528 1.993 . S
Co511 O536 1.941 . S
C512 O513 1.258 . S
C512 O514 1.263 . S
O513 Co510 1.970 . S
O513 C512 1.258 . S
O514 Co511 1.966 . S
O514 C512 1.263 . S
C515 O516 1.235 . S
C515 O542 1.289 . S
O516 C515 1.235 . S
C517 C519 1.400 . S
C517 N520 1.351 . S
C517 C522 1.501 . S
C518 C519 1.387 . S
C518 N521 1.341 . S
C519 C517 1.400 . S
C519 C518 1.387 . S
N520 Co511 2.022 . S
N520 C517 1.351 . S
N520 N521 1.365 . S
N521 C518 1.341 . S
N521 N520 1.365 . S
N521 H541 0.862 . S
C522 C517 1.501 . S
C522 H523 0.961 . S
C522 H524 0.961 . S
C522 H525 0.960 . S
H523 C522 0.961 . S
H524 C522 0.961 . S
H525 C522 0.960 . S
C526 N527 1.342 . S
C526 C530 1.401 . S
C526 C531 1.499 . S
N527 Co510 1.989 . S
N527 C526 1.342 . S
N527 N528 1.388 . S
N528 Co511 1.993 . S
N528 N527 1.388 . S
N528 C529 1.346 . S
C529 N528 1.346 . S
C529 C530 1.396 . S
C529 C539 1.510 . S
C530 C526 1.401 . S
C530 C529 1.396 . S
C531 C526 1.499 . S
C531 H532 0.959 . S
C531 H533 0.960 . S
C531 H534 0.961 . S
H532 C531 0.959 . S
H533 C531 0.960 . S
H534 C531 0.961 . S
O535 Co510 1.967 . S
O535 C543 1.258 . S
O536 Co511 1.941 . S
O536 C543 1.266 . S
H537 C539 0.959 . S
H538 C539 0.961 . S
C539 C529 1.510 . S
C539 H537 0.959 . S
C539 H538 0.961 . S
C539 H540 0.960 . S
H540 C539 0.960 . S
H541 N521 0.862 . S
O542 Co510 1.920 . S
O542 C515 1.289 . S
C543 O535 1.258 . S
C543 O536 1.266 . S
Co544 O547 1.970 . S
Co544 N561 1.989 . S
Co544 O569 1.967 . S
Co544 O576 1.920 . S
Co545 O548 1.966 . S
Co545 N554 2.022 . S
Co545 N562 1.993 . S
Co545 O570 1.941 . S
C546 O547 1.258 . S
C546 O548 1.263 . S
O547 Co544 1.970 . S
O547 C546 1.258 . S
O548 Co545 1.966 . S
O548 C546 1.263 . S
C549 O550 1.235 . S
C549 O576 1.289 . S
O550 C549 1.235 . S
C551 C553 1.400 . S
C551 N554 1.351 . S
C551 C556 1.501 . S
C552 C553 1.387 . S
C552 N555 1.341 . S
C553 C551 1.400 . S
C553 C552 1.387 . S
N554 Co545 2.022 . S
N554 C551 1.351 . S
N554 N555 1.365 . S
N555 C552 1.341 . S
N555 N554 1.365 . S
N555 H575 0.862 . S
C556 C551 1.501 . S
C556 H557 0.961 . S
C556 H558 0.961 . S
C556 H559 0.960 . S
H557 C556 0.961 . S
H558 C556 0.961 . S
H559 C556 0.960 . S
C560 N561 1.342 . S
C560 C564 1.401 . S
C560 C565 1.499 . S
N561 Co544 1.989 . S
N561 C560 1.342 . S
N561 N562 1.388 . S
N562 Co545 1.993 . S
N562 N561 1.388 . S
N562 C563 1.346 . S
C563 N562 1.346 . S
C563 C564 1.396 . S
C563 C573 1.510 . S
C564 C560 1.401 . S
C564 C563 1.396 . S
C565 C560 1.499 . S
C565 H566 0.959 . S
C565 H567 0.960 . S
C565 H568 0.961 . S
H566 C565 0.959 . S
H567 C565 0.960 . S
H568 C565 0.961 . S
O569 Co544 1.967 . S
O569 C577 1.258 . S
O570 Co545 1.941 . S
O570 C577 1.266 . S
H571 C573 0.959 . S
H572 C573 0.961 . S
C573 C563 1.510 . S
C573 H571 0.959 . S
C573 H572 0.961 . S
C573 H574 0.960 . S
H574 C573 0.960 . S
H575 N555 0.862 . S
O576 Co544 1.920 . S
O576 C549 1.289 . S
C577 O569 1.258 . S
C577 O570 1.266 . S
Co578 O581 1.970 . S
Co578 N595 1.989 . S
Co578 O603 1.967 . S
Co578 O610 1.920 . S
Co579 O582 1.966 . S
Co579 N588 2.022 . S
Co579 N596 1.993 . S
Co579 O604 1.941 . S
C580 O581 1.258 . S
C580 O582 1.263 . S
O581 Co578 1.970 . S
O581 C580 1.258 . S
O582 Co579 1.966 . S
O582 C580 1.263 . S
C583 O584 1.235 . S
C583 O610 1.289 . S
O584 C583 1.235 . S
C585 C587 1.400 . S
C585 N588 1.351 . S
C585 C590 1.501 . S
C586 C587 1.387 . S
C586 N589 1.341 . S
C587 C585 1.400 . S
C587 C586 1.387 . S
N588 Co579 2.022 . S
N588 C585 1.351 . S
N588 N589 1.365 . S
N589 C586 1.341 . S
N589 N588 1.365 . S
N589 H609 0.862 . S
C590 C585 1.501 . S
C590 H591 0.961 . S
C590 H592 0.961 . S
C590 H593 0.960 . S
H591 C590 0.961 . S
H592 C590 0.961 . S
H593 C590 0.960 . S
C594 N595 1.342 . S
C594 C598 1.401 . S
C594 C599 1.499 . S
N595 Co578 1.989 . S
N595 C594 1.342 . S
N595 N596 1.388 . S
N596 Co579 1.993 . S
N596 N595 1.388 . S
N596 C597 1.346 . S
C597 N596 1.346 . S
C597 C598 1.396 . S
C597 C607 1.510 . S
C598 C594 1.401 . S
C598 C597 1.396 . S
C599 C594 1.499 . S
C599 H600 0.959 . S
C599 H601 0.960 . S
C599 H602 0.961 . S
H600 C599 0.959 . S
H601 C599 0.960 . S
H602 C599 0.961 . S
O603 Co578 1.967 . S
O603 C611 1.258 . S
O604 Co579 1.941 . S
O604 C611 1.266 . S
H605 C607 0.959 . S
H606 C607 0.961 . S
C607 C597 1.510 . S
C607 H605 0.959 . S
C607 H606 0.961 . S
C607 H608 0.960 . S
H608 C607 0.960 . S
H609 N589 0.862 . S
O610 Co578 1.920 . S
O610 C583 1.289 . S
C611 O603 1.258 . S
C611 O604 1.266 . S
Co612 O615 1.970 . S
Co612 N629 1.989 . S
Co612 O637 1.967 . S
Co612 O644 1.920 . S
Co613 O616 1.966 . S
Co613 N622 2.022 . S
Co613 N630 1.993 . S
Co613 O638 1.941 . S
C614 O615 1.258 . S
C614 O616 1.263 . S
O615 Co612 1.970 . S
O615 C614 1.258 . S
O616 Co613 1.966 . S
O616 C614 1.263 . S
C617 O618 1.235 . S
C617 O644 1.289 . S
O618 C617 1.235 . S
C619 C621 1.400 . S
C619 N622 1.351 . S
C619 C624 1.501 . S
C620 C621 1.387 . S
C620 N623 1.341 . S
C621 C619 1.400 . S
C621 C620 1.387 . S
N622 Co613 2.022 . S
N622 C619 1.351 . S
N622 N623 1.365 . S
N623 C620 1.341 . S
N623 N622 1.365 . S
N623 H643 0.862 . S
C624 C619 1.501 . S
C624 H625 0.961 . S
C624 H626 0.961 . S
C624 H627 0.960 . S
H625 C624 0.961 . S
H626 C624 0.961 . S
H627 C624 0.960 . S
C628 N629 1.342 . S
C628 C632 1.401 . S
C628 C633 1.499 . S
N629 Co612 1.989 . S
N629 C628 1.342 . S
N629 N630 1.388 . S
N630 Co613 1.993 . S
N630 N629 1.388 . S
N630 C631 1.346 . S
C631 N630 1.346 . S
C631 C632 1.396 . S
C631 C641 1.510 . S
C632 C628 1.401 . S
C632 C631 1.396 . S
C633 C628 1.499 . S
C633 H634 0.959 . S
C633 H635 0.960 . S
C633 H636 0.961 . S
H634 C633 0.959 . S
H635 C633 0.960 . S
H636 C633 0.961 . S
O637 Co612 1.967 . S
O637 C645 1.258 . S
O638 Co613 1.941 . S
O638 C645 1.266 . S
H639 C641 0.959 . S
H640 C641 0.961 . S
C641 C631 1.510 . S
C641 H639 0.959 . S
C641 H640 0.961 . S
C641 H642 0.960 . S
H642 C641 0.960 . S
H643 N623 0.862 . S
O644 Co612 1.920 . S
O644 C617 1.289 . S
C645 O637 1.258 . S
C645 O638 1.266 . S
Co646 O649 1.970 . S
Co646 N663 1.989 . S
Co646 O671 1.967 . S
Co646 O678 1.920 . S
Co647 O650 1.966 . S
Co647 N656 2.022 . S
Co647 N664 1.993 . S
Co647 O672 1.941 . S
C648 O649 1.258 . S
C648 O650 1.263 . S
O649 Co646 1.970 . S
O649 C648 1.258 . S
O650 Co647 1.966 . S
O650 C648 1.263 . S
C651 O652 1.235 . S
C651 O678 1.289 . S
O652 C651 1.235 . S
C653 C655 1.400 . S
C653 N656 1.351 . S
C653 C658 1.501 . S
C654 C655 1.387 . S
C654 N657 1.341 . S
C655 C653 1.400 . S
C655 C654 1.387 . S
N656 Co647 2.022 . S
N656 C653 1.351 . S
N656 N657 1.365 . S
N657 C654 1.341 . S
N657 N656 1.365 . S
N657 H677 0.862 . S
C658 C653 1.501 . S
C658 H659 0.961 . S
C658 H660 0.961 . S
C658 H661 0.960 . S
H659 C658 0.961 . S
H660 C658 0.961 . S
H661 C658 0.960 . S
C662 N663 1.342 . S
C662 C666 1.401 . S
C662 C667 1.499 . S
N663 Co646 1.989 . S
N663 C662 1.342 . S
N663 N664 1.388 . S
N664 Co647 1.993 . S
N664 N663 1.388 . S
N664 C665 1.346 . S
C665 N664 1.346 . S
C665 C666 1.396 . S
C665 C675 1.510 . S
C666 C662 1.401 . S
C666 C665 1.396 . S
C667 C662 1.499 . S
C667 H668 0.959 . S
C667 H669 0.960 . S
C667 H670 0.961 . S
H668 C667 0.959 . S
H669 C667 0.960 . S
H670 C667 0.961 . S
O671 Co646 1.967 . S
O671 C679 1.258 . S
O672 Co647 1.941 . S
O672 C679 1.266 . S
H673 C675 0.959 . S
H674 C675 0.961 . S
C675 C665 1.510 . S
C675 H673 0.959 . S
C675 H674 0.961 . S
C675 H676 0.960 . S
H676 C675 0.960 . S
H677 N657 0.862 . S
O678 Co646 1.920 . S
O678 C651 1.289 . S
C679 O671 1.258 . S
C679 O672 1.266 . S
Co680 O683 1.970 . S
Co680 N697 1.989 . S
Co680 O705 1.967 . S
Co680 O712 1.920 . S
Co681 O684 1.966 . S
Co681 N690 2.022 . S
Co681 N698 1.993 . S
Co681 O706 1.941 . S
C682 O683 1.258 . S
C682 O684 1.263 . S
O683 Co680 1.970 . S
O683 C682 1.258 . S
O684 Co681 1.966 . S
O684 C682 1.263 . S
C685 O686 1.235 . S
C685 O712 1.289 . S
O686 C685 1.235 . S
C687 C689 1.400 . S
C687 N690 1.351 . S
C687 C692 1.501 . S
C688 C689 1.387 . S
C688 N691 1.341 . S
C689 C687 1.400 . S
C689 C688 1.387 . S
N690 Co681 2.022 . S
N690 C687 1.351 . S
N690 N691 1.365 . S
N691 C688 1.341 . S
N691 N690 1.365 . S
N691 H711 0.862 . S
C692 C687 1.501 . S
C692 H693 0.961 . S
C692 H694 0.961 . S
C692 H695 0.960 . S
H693 C692 0.961 . S
H694 C692 0.961 . S
H695 C692 0.960 . S
C696 N697 1.342 . S
C696 C700 1.401 . S
C696 C701 1.499 . S
N697 Co680 1.989 . S
N697 C696 1.342 . S
N697 N698 1.388 . S
N698 Co681 1.993 . S
N698 N697 1.388 . S
N698 C699 1.346 . S
C699 N698 1.346 . S
C699 C700 1.396 . S
C699 C709 1.510 . S
C700 C696 1.401 . S
C700 C699 1.396 . S
C701 C696 1.499 . S
C701 H702 0.959 . S
C701 H703 0.960 . S
C701 H704 0.961 . S
H702 C701 0.959 . S
H703 C701 0.960 . S
H704 C701 0.961 . S
O705 Co680 1.967 . S
O705 C713 1.258 . S
O706 Co681 1.941 . S
O706 C713 1.266 . S
H707 C709 0.959 . S
H708 C709 0.961 . S
C709 C699 1.510 . S
C709 H707 0.959 . S
C709 H708 0.961 . S
C709 H710 0.960 . S
H710 C709 0.960 . S
H711 N691 0.862 . S
O712 Co680 1.920 . S
O712 C685 1.289 . S
C713 O705 1.258 . S
C713 O706 1.266 . S
Co714 O717 1.970 . S
Co714 N731 1.989 . S
Co714 O739 1.967 . S
Co714 O746 1.920 . S
Co715 O718 1.966 . S
Co715 N724 2.022 . S
Co715 N732 1.993 . S
Co715 O740 1.941 . S
C716 O717 1.258 . S
C716 O718 1.263 . S
O717 Co714 1.970 . S
O717 C716 1.258 . S
O718 Co715 1.966 . S
O718 C716 1.263 . S
C719 O720 1.235 . S
C719 O746 1.289 . S
O720 C719 1.235 . S
C721 C723 1.400 . S
C721 N724 1.351 . S
C721 C726 1.501 . S
C722 C723 1.387 . S
C722 N725 1.341 . S
C723 C721 1.400 . S
C723 C722 1.387 . S
N724 Co715 2.022 . S
N724 C721 1.351 . S
N724 N725 1.365 . S
N725 C722 1.341 . S
N725 N724 1.365 . S
N725 H745 0.862 . S
C726 C721 1.501 . S
C726 H727 0.961 . S
C726 H728 0.961 . S
C726 H729 0.960 . S
H727 C726 0.961 . S
H728 C726 0.961 . S
H729 C726 0.960 . S
C730 N731 1.342 . S
C730 C734 1.401 . S
C730 C735 1.499 . S
N731 Co714 1.989 . S
N731 C730 1.342 . S
N731 N732 1.388 . S
N732 Co715 1.993 . S
N732 N731 1.388 . S
N732 C733 1.346 . S
C733 N732 1.346 . S
C733 C734 1.396 . S
C733 C743 1.510 . S
C734 C730 1.401 . S
C734 C733 1.396 . S
C735 C730 1.499 . S
C735 H736 0.959 . S
C735 H737 0.960 . S
C735 H738 0.961 . S
H736 C735 0.959 . S
H737 C735 0.960 . S
H738 C735 0.961 . S
O739 Co714 1.967 . S
O739 C747 1.258 . S
O740 Co715 1.941 . S
O740 C747 1.266 . S
H741 C743 0.959 . S
H742 C743 0.961 . S
C743 C733 1.510 . S
C743 H741 0.959 . S
C743 H742 0.961 . S
C743 H744 0.960 . S
H744 C743 0.960 . S
H745 N725 0.862 . S
O746 Co714 1.920 . S
O746 C719 1.289 . S
C747 O739 1.258 . S
C747 O740 1.266 . S
Co748 O751 1.970 . S
Co748 N765 1.989 . S
Co748 O773 1.967 . S
Co748 O780 1.920 . S
Co749 O752 1.966 . S
Co749 N758 2.022 . S
Co749 N766 1.993 . S
Co749 O774 1.941 . S
C750 O751 1.258 . S
C750 O752 1.263 . S
O751 Co748 1.970 . S
O751 C750 1.258 . S
O752 Co749 1.966 . S
O752 C750 1.263 . S
C753 O754 1.235 . S
C753 O780 1.289 . S
O754 C753 1.235 . S
C755 C757 1.400 . S
C755 N758 1.351 . S
C755 C760 1.501 . S
C756 C757 1.387 . S
C756 N759 1.341 . S
C757 C755 1.400 . S
C757 C756 1.387 . S
N758 Co749 2.022 . S
N758 C755 1.351 . S
N758 N759 1.365 . S
N759 C756 1.341 . S
N759 N758 1.365 . S
N759 H779 0.862 . S
C760 C755 1.501 . S
C760 H761 0.961 . S
C760 H762 0.961 . S
C760 H763 0.960 . S
H761 C760 0.961 . S
H762 C760 0.961 . S
H763 C760 0.960 . S
C764 N765 1.342 . S
C764 C768 1.401 . S
C764 C769 1.499 . S
N765 Co748 1.989 . S
N765 C764 1.342 . S
N765 N766 1.388 . S
N766 Co749 1.993 . S
N766 N765 1.388 . S
N766 C767 1.346 . S
C767 N766 1.346 . S
C767 C768 1.396 . S
C767 C777 1.510 . S
C768 C764 1.401 . S
C768 C767 1.396 . S
C769 C764 1.499 . S
C769 H770 0.959 . S
C769 H771 0.960 . S
C769 H772 0.961 . S
H770 C769 0.959 . S
H771 C769 0.960 . S
H772 C769 0.961 . S
O773 Co748 1.967 . S
O773 C781 1.258 . S
O774 Co749 1.941 . S
O774 C781 1.266 . S
H775 C777 0.959 . S
H776 C777 0.961 . S
C777 C767 1.510 . S
C777 H775 0.959 . S
C777 H776 0.961 . S
C777 H778 0.960 . S
H778 C777 0.960 . S
H779 N759 0.862 . S
O780 Co748 1.920 . S
O780 C753 1.289 . S
C781 O773 1.258 . S
C781 O774 1.266 . S
Co782 O785 1.970 . S
Co782 N799 1.989 . S
Co782 O807 1.967 . S
Co782 O814 1.920 . S
Co783 O786 1.966 . S
Co783 N792 2.022 . S
Co783 N800 1.993 . S
Co783 O808 1.941 . S
C784 O785 1.258 . S
C784 O786 1.263 . S
O785 Co782 1.970 . S
O785 C784 1.258 . S
O786 Co783 1.966 . S
O786 C784 1.263 . S
C787 O788 1.235 . S
C787 O814 1.289 . S
O788 C787 1.235 . S
C789 C791 1.400 . S
C789 N792 1.351 . S
C789 C794 1.501 . S
C790 C791 1.387 . S
C790 N793 1.341 . S
C791 C789 1.400 . S
C791 C790 1.387 . S
N792 Co783 2.022 . S
N792 C789 1.351 . S
N792 N793 1.365 . S
N793 C790 1.341 . S
N793 N792 1.365 . S
N793 H813 0.862 . S
C794 C789 1.501 . S
C794 H795 0.961 . S
C794 H796 0.961 . S
C794 H797 0.960 . S
H795 C794 0.961 . S
H796 C794 0.961 . S
H797 C794 0.960 . S
C798 N799 1.342 . S
C798 C802 1.401 . S
C798 C803 1.499 . S
N799 Co782 1.989 . S
N799 C798 1.342 . S
N799 N800 1.388 . S
N800 Co783 1.993 . S
N800 N799 1.388 . S
N800 C801 1.346 . S
C801 N800 1.346 . S
C801 C802 1.396 . S
C801 C811 1.510 . S
C802 C798 1.401 . S
C802 C801 1.396 . S
C803 C798 1.499 . S
C803 H804 0.959 . S
C803 H805 0.960 . S
C803 H806 0.961 . S
H804 C803 0.959 . S
H805 C803 0.960 . S
H806 C803 0.961 . S
O807 Co782 1.967 . S
O807 C815 1.258 . S
O808 Co783 1.941 . S
O808 C815 1.266 . S
H809 C811 0.959 . S
H810 C811 0.961 . S
C811 C801 1.510 . S
C811 H809 0.959 . S
C811 H810 0.961 . S
C811 H812 0.960 . S
H812 C811 0.960 . S
H813 N793 0.862 . S
O814 Co782 1.920 . S
O814 C787 1.289 . S
C815 O807 1.258 . S
C815 O808 1.266 . S
Co816 O819 1.970 . S
Co816 N833 1.989 . S
Co816 O841 1.967 . S
Co816 O848 1.920 . S
Co817 O820 1.966 . S
Co817 N826 2.022 . S
Co817 N834 1.993 . S
Co817 O842 1.941 . S
C818 O819 1.258 . S
C818 O820 1.263 . S
O819 Co816 1.970 . S
O819 C818 1.258 . S
O820 Co817 1.966 . S
O820 C818 1.263 . S
C821 O822 1.235 . S
C821 O848 1.289 . S
O822 C821 1.235 . S
C823 C825 1.400 . S
C823 N826 1.351 . S
C823 C828 1.501 . S
C824 C825 1.387 . S
C824 N827 1.341 . S
C825 C823 1.400 . S
C825 C824 1.387 . S
N826 Co817 2.022 . S
N826 C823 1.351 . S
N826 N827 1.365 . S
N827 C824 1.341 . S
N827 N826 1.365 . S
N827 H847 0.862 . S
C828 C823 1.501 . S
C828 H829 0.961 . S
C828 H830 0.961 . S
C828 H831 0.960 . S
H829 C828 0.961 . S
H830 C828 0.961 . S
H831 C828 0.960 . S
C832 N833 1.342 . S
C832 C836 1.401 . S
C832 C837 1.499 . S
N833 Co816 1.989 . S
N833 C832 1.342 . S
N833 N834 1.388 . S
N834 Co817 1.993 . S
N834 N833 1.388 . S
N834 C835 1.346 . S
C835 N834 1.346 . S
C835 C836 1.396 . S
C835 C845 1.510 . S
C836 C832 1.401 . S
C836 C835 1.396 . S
C837 C832 1.499 . S
C837 H838 0.959 . S
C837 H839 0.960 . S
C837 H840 0.961 . S
H838 C837 0.959 . S
H839 C837 0.960 . S
H840 C837 0.961 . S
O841 Co816 1.967 . S
O841 C849 1.258 . S
O842 Co817 1.941 . S
O842 C849 1.266 . S
H843 C845 0.959 . S
H844 C845 0.961 . S
C845 C835 1.510 . S
C845 H843 0.959 . S
C845 H844 0.961 . S
C845 H846 0.960 . S
H846 C845 0.960 . S
H847 N827 0.862 . S
O848 Co816 1.920 . S
O848 C821 1.289 . S
C849 O841 1.258 . S
C849 O842 1.266 . S
Co850 O853 1.970 . S
Co850 N867 1.989 . S
Co850 O875 1.967 . S
Co850 O882 1.920 . S
Co851 O854 1.966 . S
Co851 N860 2.022 . S
Co851 N868 1.993 . S
Co851 O876 1.941 . S
C852 O853 1.258 . S
C852 O854 1.263 . S
O853 Co850 1.970 . S
O853 C852 1.258 . S
O854 Co851 1.966 . S
O854 C852 1.263 . S
C855 O856 1.235 . S
C855 O882 1.289 . S
O856 C855 1.235 . S
C857 C859 1.400 . S
C857 N860 1.351 . S
C857 C862 1.501 . S
C858 C859 1.387 . S
C858 N861 1.341 . S
C859 C857 1.400 . S
C859 C858 1.387 . S
N860 Co851 2.022 . S
N860 C857 1.351 . S
N860 N861 1.365 . S
N861 C858 1.341 . S
N861 N860 1.365 . S
N861 H881 0.862 . S
C862 C857 1.501 . S
C862 H863 0.961 . S
C862 H864 0.961 . S
C862 H865 0.960 . S
H863 C862 0.961 . S
H864 C862 0.961 . S
H865 C862 0.960 . S
C866 N867 1.342 . S
C866 C870 1.401 . S
C866 C871 1.499 . S
N867 Co850 1.989 . S
N867 C866 1.342 . S
N867 N868 1.388 . S
N868 Co851 1.993 . S
N868 N867 1.388 . S
N868 C869 1.346 . S
C869 N868 1.346 . S
C869 C870 1.396 . S
C869 C879 1.510 . S
C870 C866 1.401 . S
C870 C869 1.396 . S
C871 C866 1.499 . S
C871 H872 0.959 . S
C871 H873 0.960 . S
C871 H874 0.961 . S
H872 C871 0.959 . S
H873 C871 0.960 . S
H874 C871 0.961 . S
O875 Co850 1.967 . S
O875 C883 1.258 . S
O876 Co851 1.941 . S
O876 C883 1.266 . S
H877 C879 0.959 . S
H878 C879 0.961 . S
C879 C869 1.510 . S
C879 H877 0.959 . S
C879 H878 0.961 . S
C879 H880 0.960 . S
H880 C879 0.960 . S
H881 N861 0.862 . S
O882 Co850 1.920 . S
O882 C855 1.289 . S
C883 O875 1.258 . S
C883 O876 1.266 . S
Co884 O887 1.970 . S
Co884 N901 1.989 . S
Co884 O909 1.967 . S
Co884 O916 1.920 . S
Co885 O888 1.966 . S
Co885 N894 2.022 . S
Co885 N902 1.993 . S
Co885 O910 1.941 . S
C886 O887 1.258 . S
C886 O888 1.263 . S
O887 Co884 1.970 . S
O887 C886 1.258 . S
O888 Co885 1.966 . S
O888 C886 1.263 . S
C889 O890 1.235 . S
C889 O916 1.289 . S
O890 C889 1.235 . S
C891 C893 1.400 . S
C891 N894 1.351 . S
C891 C896 1.501 . S
C892 C893 1.387 . S
C892 N895 1.341 . S
C893 C891 1.400 . S
C893 C892 1.387 . S
N894 Co885 2.022 . S
N894 C891 1.351 . S
N894 N895 1.365 . S
N895 C892 1.341 . S
N895 N894 1.365 . S
N895 H915 0.862 . S
C896 C891 1.501 . S
C896 H897 0.961 . S
C896 H898 0.961 . S
C896 H899 0.960 . S
H897 C896 0.961 . S
H898 C896 0.961 . S
H899 C896 0.960 . S
C900 N901 1.342 . S
C900 C904 1.401 . S
C900 C905 1.499 . S
N901 Co884 1.989 . S
N901 C900 1.342 . S
N901 N902 1.388 . S
N902 Co885 1.993 . S
N902 N901 1.388 . S
N902 C903 1.346 . S
C903 N902 1.346 . S
C903 C904 1.396 . S
C903 C913 1.510 . S
C904 C900 1.401 . S
C904 C903 1.396 . S
C905 C900 1.499 . S
C905 H906 0.959 . S
C905 H907 0.960 . S
C905 H908 0.961 . S
H906 C905 0.959 . S
H907 C905 0.960 . S
H908 C905 0.961 . S
O909 Co884 1.967 . S
O909 C917 1.258 . S
O910 Co885 1.941 . S
O910 C917 1.266 . S
H911 C913 0.959 . S
H912 C913 0.961 . S
C913 C903 1.510 . S
C913 H911 0.959 . S
C913 H912 0.961 . S
C913 H914 0.960 . S
H914 C913 0.960 . S
H915 N895 0.862 . S
O916 Co884 1.920 . S
O916 C889 1.289 . S
C917 O909 1.258 . S
C917 O910 1.266 . S
Co918 O921 1.970 . S
Co918 N935 1.989 . S
Co918 O943 1.967 . S
Co918 O950 1.920 . S
Co919 O922 1.966 . S
Co919 N928 2.022 . S
Co919 N936 1.993 . S
Co919 O944 1.941 . S
C920 O921 1.258 . S
C920 O922 1.263 . S
O921 Co918 1.970 . S
O921 C920 1.258 . S
O922 Co919 1.966 . S
O922 C920 1.263 . S
C923 O924 1.235 . S
C923 O950 1.289 . S
O924 C923 1.235 . S
C925 C927 1.400 . S
C925 N928 1.351 . S
C925 C930 1.501 . S
C926 C927 1.387 . S
C926 N929 1.341 . S
C927 C925 1.400 . S
C927 C926 1.387 . S
N928 Co919 2.022 . S
N928 C925 1.351 . S
N928 N929 1.365 . S
N929 C926 1.341 . S
N929 N928 1.365 . S
N929 H949 0.862 . S
C930 C925 1.501 . S
C930 H931 0.961 . S
C930 H932 0.961 . S
C930 H933 0.960 . S
H931 C930 0.961 . S
H932 C930 0.961 . S
H933 C930 0.960 . S
C934 N935 1.342 . S
C934 C938 1.401 . S
C934 C939 1.499 . S
N935 Co918 1.989 . S
N935 C934 1.342 . S
N935 N936 1.388 . S
N936 Co919 1.993 . S
N936 N935 1.388 . S
N936 C937 1.346 . S
C937 N936 1.346 . S
C937 C938 1.396 . S
C937 C947 1.510 . S
C938 C934 1.401 . S
C938 C937 1.396 . S
C939 C934 1.499 . S
C939 H940 0.959 . S
C939 H941 0.960 . S
C939 H942 0.961 . S
H940 C939 0.959 . S
H941 C939 0.960 . S
H942 C939 0.961 . S
O943 Co918 1.967 . S
O943 C951 1.258 . S
O944 Co919 1.941 . S
O944 C951 1.266 . S
H945 C947 0.959 . S
H946 C947 0.961 . S
C947 C937 1.510 . S
C947 H945 0.959 . S
C947 H946 0.961 . S
C947 H948 0.960 . S
H948 C947 0.960 . S
H949 N929 0.862 . S
O950 Co918 1.920 . S
O950 C923 1.289 . S
C951 O943 1.258 . S
C951 O944 1.266 . S
Co952 O955 1.970 . S
Co952 N969 1.989 . S
Co952 O977 1.967 . S
Co952 O984 1.920 . S
Co953 O956 1.966 . S
Co953 N962 2.022 . S
Co953 N970 1.993 . S
Co953 O978 1.941 . S
C954 O955 1.258 . S
C954 O956 1.263 . S
O955 Co952 1.970 . S
O955 C954 1.258 . S
O956 Co953 1.966 . S
O956 C954 1.263 . S
C957 O958 1.235 . S
C957 O984 1.289 . S
O958 C957 1.235 . S
C959 C961 1.400 . S
C959 N962 1.351 . S
C959 C964 1.501 . S
C960 C961 1.387 . S
C960 N963 1.341 . S
C961 C959 1.400 . S
C961 C960 1.387 . S
N962 Co953 2.022 . S
N962 C959 1.351 . S
N962 N963 1.365 . S
N963 C960 1.341 . S
N963 N962 1.365 . S
N963 H983 0.862 . S
C964 C959 1.501 . S
C964 H965 0.961 . S
C964 H966 0.961 . S
C964 H967 0.960 . S
H965 C964 0.961 . S
H966 C964 0.961 . S
H967 C964 0.960 . S
C968 N969 1.342 . S
C968 C972 1.401 . S
C968 C973 1.499 . S
N969 Co952 1.989 . S
N969 C968 1.342 . S
N969 N970 1.388 . S
N970 Co953 1.993 . S
N970 N969 1.388 . S
N970 C971 1.346 . S
C971 N970 1.346 . S
C971 C972 1.396 . S
C971 C981 1.510 . S
C972 C968 1.401 . S
C972 C971 1.396 . S
C973 C968 1.499 . S
C973 H974 0.959 . S
C973 H975 0.960 . S
C973 H976 0.961 . S
H974 C973 0.959 . S
H975 C973 0.960 . S
H976 C973 0.961 . S
O977 Co952 1.967 . S
O977 C985 1.258 . S
O978 Co953 1.941 . S
O978 C985 1.266 . S
H979 C981 0.959 . S
H980 C981 0.961 . S
C981 C971 1.510 . S
C981 H979 0.959 . S
C981 H980 0.961 . S
C981 H982 0.960 . S
H982 C981 0.960 . S
H983 N963 0.862 . S
O984 Co952 1.920 . S
O984 C957 1.289 . S
C985 O977 1.258 . S
C985 O978 1.266 . S
Co986 O989 1.970 . S
Co986 N1003 1.989 . S
Co986 O1011 1.967 . S
Co986 O1018 1.920 . S
Co987 O990 1.966 . S
Co987 N996 2.022 . S
Co987 N1004 1.993 . S
Co987 O1012 1.941 . S
C988 O989 1.258 . S
C988 O990 1.263 . S
O989 Co986 1.970 . S
O989 C988 1.258 . S
O990 Co987 1.966 . S
O990 C988 1.263 . S
C991 O992 1.235 . S
C991 O1018 1.289 . S
O992 C991 1.235 . S
C993 C995 1.400 . S
C993 N996 1.351 . S
C993 C998 1.501 . S
C994 C995 1.387 . S
C994 N997 1.341 . S
C995 C993 1.400 . S
C995 C994 1.387 . S
N996 Co987 2.022 . S
N996 C993 1.351 . S
N996 N997 1.365 . S
N997 C994 1.341 . S
N997 N996 1.365 . S
N997 H1017 0.862 . S
C998 C993 1.501 . S
C998 H999 0.961 . S
C998 H1000 0.961 . S
C998 H1001 0.960 . S
H999 C998 0.961 . S
H1000 C998 0.961 . S
H1001 C998 0.960 . S
C1002 N1003 1.342 . S
C1002 C1006 1.401 . S
C1002 C1007 1.499 . S
N1003 Co986 1.989 . S
N1003 C1002 1.342 . S
N1003 N1004 1.388 . S
N1004 Co987 1.993 . S
N1004 N1003 1.388 . S
N1004 C1005 1.346 . S
C1005 N1004 1.346 . S
C1005 C1006 1.396 . S
C1005 C1015 1.510 . S
C1006 C1002 1.401 . S
C1006 C1005 1.396 . S
C1007 C1002 1.499 . S
C1007 H1008 0.959 . S
C1007 H1009 0.960 . S
C1007 H1010 0.961 . S
H1008 C1007 0.959 . S
H1009 C1007 0.960 . S
H1010 C1007 0.961 . S
O1011 Co986 1.967 . S
O1011 C1019 1.258 . S
O1012 Co987 1.941 . S
O1012 C1019 1.266 . S
H1013 C1015 0.959 . S
H1014 C1015 0.961 . S
C1015 C1005 1.510 . S
C1015 H1013 0.959 . S
C1015 H1014 0.961 . S
C1015 H1016 0.960 . S
H1016 C1015 0.960 . S
H1017 N997 0.862 . S
O1018 Co986 1.920 . S
O1018 C991 1.289 . S
C1019 O1011 1.258 . S
C1019 O1012 1.266 . S
Co1020 O1023 1.970 . S
Co1020 N1037 1.989 . S
Co1020 O1045 1.967 . S
Co1020 O1052 1.920 . S
Co1021 O1024 1.966 . S
Co1021 N1030 2.022 . S
Co1021 N1038 1.993 . S
Co1021 O1046 1.941 . S
C1022 O1023 1.258 . S
C1022 O1024 1.263 . S
O1023 Co1020 1.970 . S
O1023 C1022 1.258 . S
O1024 Co1021 1.966 . S
O1024 C1022 1.263 . S
C1025 O1026 1.235 . S
C1025 O1052 1.289 . S
O1026 C1025 1.235 . S
C1027 C1029 1.400 . S
C1027 N1030 1.351 . S
C1027 C1032 1.501 . S
C1028 C1029 1.387 . S
C1028 N1031 1.341 . S
C1029 C1027 1.400 . S
C1029 C1028 1.387 . S
N1030 Co1021 2.022 . S
N1030 C1027 1.351 . S
N1030 N1031 1.365 . S
N1031 C1028 1.341 . S
N1031 N1030 1.365 . S
N1031 H1051 0.862 . S
C1032 C1027 1.501 . S
C1032 H1033 0.961 . S
C1032 H1034 0.961 . S
C1032 H1035 0.960 . S
H1033 C1032 0.961 . S
H1034 C1032 0.961 . S
H1035 C1032 0.960 . S
C1036 N1037 1.342 . S
C1036 C1040 1.401 . S
C1036 C1041 1.499 . S
N1037 Co1020 1.989 . S
N1037 C1036 1.342 . S
N1037 N1038 1.388 . S
N1038 Co1021 1.993 . S
N1038 N1037 1.388 . S
N1038 C1039 1.346 . S
C1039 N1038 1.346 . S
C1039 C1040 1.396 . S
C1039 C1049 1.510 . S
C1040 C1036 1.401 . S
C1040 C1039 1.396 . S
C1041 C1036 1.499 . S
C1041 H1042 0.959 . S
C1041 H1043 0.960 . S
C1041 H1044 0.961 . S
H1042 C1041 0.959 . S
H1043 C1041 0.960 . S
H1044 C1041 0.961 . S
O1045 Co1020 1.967 . S
O1045 C1053 1.258 . S
O1046 Co1021 1.941 . S
O1046 C1053 1.266 . S
H1047 C1049 0.959 . S
H1048 C1049 0.961 . S
C1049 C1039 1.510 . S
C1049 H1047 0.959 . S
C1049 H1048 0.961 . S
C1049 H1050 0.960 . S
H1050 C1049 0.960 . S
H1051 N1031 0.862 . S
O1052 Co1020 1.920 . S
O1052 C1025 1.289 . S
C1053 O1045 1.258 . S
C1053 O1046 1.266 . S
Co1054 O1057 1.970 . S
Co1054 N1071 1.989 . S
Co1054 O1079 1.967 . S
Co1054 O1086 1.920 . S
Co1055 O1058 1.966 . S
Co1055 N1064 2.022 . S
Co1055 N1072 1.993 . S
Co1055 O1080 1.941 . S
C1056 O1057 1.258 . S
C1056 O1058 1.263 . S
O1057 Co1054 1.970 . S
O1057 C1056 1.258 . S
O1058 Co1055 1.966 . S
O1058 C1056 1.263 . S
C1059 O1060 1.235 . S
C1059 O1086 1.289 . S
O1060 C1059 1.235 . S
C1061 C1063 1.400 . S
C1061 N1064 1.351 . S
C1061 C1066 1.501 . S
C1062 C1063 1.387 . S
C1062 N1065 1.341 . S
C1063 C1061 1.400 . S
C1063 C1062 1.387 . S
N1064 Co1055 2.022 . S
N1064 C1061 1.351 . S
N1064 N1065 1.365 . S
N1065 C1062 1.341 . S
N1065 N1064 1.365 . S
N1065 H1085 0.862 . S
C1066 C1061 1.501 . S
C1066 H1067 0.961 . S
C1066 H1068 0.961 . S
C1066 H1069 0.960 . S
H1067 C1066 0.961 . S
H1068 C1066 0.961 . S
H1069 C1066 0.960 . S
C1070 N1071 1.342 . S
C1070 C1074 1.401 . S
C1070 C1075 1.499 . S
N1071 Co1054 1.989 . S
N1071 C1070 1.342 . S
N1071 N1072 1.388 . S
N1072 Co1055 1.993 . S
N1072 N1071 1.388 . S
N1072 C1073 1.346 . S
C1073 N1072 1.346 . S
C1073 C1074 1.396 . S
C1073 C1083 1.510 . S
C1074 C1070 1.401 . S
C1074 C1073 1.396 . S
C1075 C1070 1.499 . S
C1075 H1076 0.959 . S
C1075 H1077 0.960 . S
C1075 H1078 0.961 . S
H1076 C1075 0.959 . S
H1077 C1075 0.960 . S
H1078 C1075 0.961 . S
O1079 Co1054 1.967 . S
O1079 C1087 1.258 . S
O1080 Co1055 1.941 . S
O1080 C1087 1.266 . S
H1081 C1083 0.959 . S
H1082 C1083 0.961 . S
C1083 C1073 1.510 . S
C1083 H1081 0.959 . S
C1083 H1082 0.961 . S
C1083 H1084 0.960 . S
H1084 C1083 0.960 . S
H1085 N1065 0.862 . S
O1086 Co1054 1.920 . S
O1086 C1059 1.289 . S
C1087 O1079 1.258 . S
C1087 O1080 1.266 . S
C1088 C1089 1.391 1_545 S
C1088 C1090 1.394 . S
C1088 H1104 0.931 . S
C1089 C1088 1.391 1_565 S
C1089 C1093 1.376 . S
C1090 C1088 1.394 . S
C1090 C1091 1.369 . S
C1090 C1094 1.531 . S
C1091 C1090 1.369 . S
C1091 C1092 1.410 1_545 S
C1091 C1099 1.503 . S
C1092 C1091 1.410 1_565 S
C1092 C1093 1.392 . S
C1092 C1095 1.511 . S
C1093 C1089 1.376 . S
C1093 C1092 1.392 . S
C1093 H1105 0.929 . S
C1094 C1090 1.531 . S
C1094 H1106 0.960 . S
C1094 H1107 0.962 . S
C1094 H1108 0.960 . S
C1095 C1092 1.511 . S
C1095 H1109 0.961 . S
C1095 H1110 0.961 . S
C1095 H1111 0.961 . S
C1096 C1097 1.370 1_565 S
C1096 C1098 1.363 . S
C1096 H1112 0.931 . S
C1097 C1096 1.370 1_545 S
C1097 C1101 1.408 . S
C1098 C1096 1.363 . S
C1098 C1099 1.370 1_565 S
C1098 C1102 1.524 . S
C1099 C1091 1.503 . S
C1099 C1098 1.370 1_545 S
C1099 C1100 1.403 . S
C1100 C1099 1.403 . S
C1100 C1101 1.404 . S
C1100 C1103 1.539 . S
C1101 C1097 1.408 . S
C1101 C1100 1.404 . S
C1101 H1113 0.930 . S
C1102 C1098 1.524 . S
C1102 H1114 0.956 . S
C1102 H1115 0.961 . S
C1102 H1116 0.961 . S
C1103 C1100 1.539 . S
C1103 H1117 0.958 . S
C1103 H1118 0.961 . S
C1103 H1119 0.960 . S
H1104 C1088 0.931 . S
H1105 C1093 0.929 . S
H1106 C1094 0.960 . S
H1107 C1094 0.962 . S
H1108 C1094 0.960 . S
H1109 C1095 0.961 . S
H1110 C1095 0.961 . S
H1111 C1095 0.961 . S
H1112 C1096 0.931 . S
H1113 C1101 0.930 . S
H1114 C1102 0.956 . S
H1115 C1102 0.961 . S
H1116 C1102 0.961 . S
H1117 C1103 0.958 . S
H1118 C1103 0.961 . S
H1119 C1103 0.960 . S
C1120 C1121 1.391 . S
C1120 C1122 1.394 . S
C1120 H1136 0.931 . S
C1121 C1120 1.391 . S
C1121 C1125 1.376 . S
C1122 C1120 1.394 . S
C1122 C1123 1.369 . S
C1122 C1126 1.531 . S
C1123 C1122 1.369 . S
C1123 C1124 1.410 . S
C1123 C1131 1.503 . S
C1124 C1123 1.410 . S
C1124 C1125 1.392 . S
C1124 C1127 1.511 . S
C1125 C1121 1.376 . S
C1125 C1124 1.392 . S
C1125 H1137 0.929 . S
C1126 C1122 1.531 . S
C1126 H1138 0.960 . S
C1126 H1139 0.962 . S
C1126 H1140 0.960 . S
C1127 C1124 1.511 . S
C1127 H1141 0.961 . S
C1127 H1142 0.961 . S
C1127 H1143 0.961 . S
C1128 C1129 1.370 . S
C1128 C1130 1.363 . S
C1128 H1144 0.931 . S
C1129 C1128 1.370 . S
C1129 C1133 1.408 . S
C1130 C1128 1.363 . S
C1130 C1131 1.370 . S
C1130 C1134 1.524 . S
C1131 C1123 1.503 . S
C1131 C1130 1.370 . S
C1131 C1132 1.403 . S
C1132 C1131 1.403 . S
C1132 C1133 1.404 . S
C1132 C1135 1.539 . S
C1133 C1129 1.408 . S
C1133 C1132 1.404 . S
C1133 H1145 0.930 . S
C1134 C1130 1.524 . S
C1134 H1146 0.956 . S
C1134 H1147 0.961 . S
C1134 H1148 0.961 . S
C1135 C1132 1.539 . S
C1135 H1149 0.958 . S
C1135 H1150 0.961 . S
C1135 H1151 0.960 . S
H1136 C1120 0.931 . S
H1137 C1125 0.929 . S
H1138 C1126 0.960 . S
H1139 C1126 0.962 . S
H1140 C1126 0.960 . S
H1141 C1127 0.961 . S
H1142 C1127 0.961 . S
H1143 C1127 0.961 . S
H1144 C1128 0.931 . S
H1145 C1133 0.930 . S
H1146 C1134 0.956 . S
H1147 C1134 0.961 . S
H1148 C1134 0.961 . S
H1149 C1135 0.958 . S
H1150 C1135 0.961 . S
H1151 C1135 0.960 . S
C1152 C1153 1.391 1_545 S
C1152 C1154 1.394 . S
C1152 H1168 0.931 . S
C1153 C1152 1.391 1_565 S
C1153 C1157 1.376 . S
C1154 C1152 1.394 . S
C1154 C1155 1.369 . S
C1154 C1158 1.531 . S
C1155 C1154 1.369 . S
C1155 C1156 1.410 1_545 S
C1155 C1163 1.503 . S
C1156 C1155 1.410 1_565 S
C1156 C1157 1.392 . S
C1156 C1159 1.511 . S
C1157 C1153 1.376 . S
C1157 C1156 1.392 . S
C1157 H1169 0.929 . S
C1158 C1154 1.531 . S
C1158 H1170 0.960 . S
C1158 H1171 0.962 . S
C1158 H1172 0.960 . S
C1159 C1156 1.511 . S
C1159 H1173 0.961 . S
C1159 H1174 0.961 . S
C1159 H1175 0.961 . S
C1160 C1161 1.370 1_565 S
C1160 C1162 1.363 . S
C1160 H1176 0.931 . S
C1161 C1160 1.370 1_545 S
C1161 C1165 1.408 . S
C1162 C1160 1.363 . S
C1162 C1163 1.370 1_565 S
C1162 C1166 1.524 . S
C1163 C1155 1.503 . S
C1163 C1162 1.370 1_545 S
C1163 C1164 1.403 . S
C1164 C1163 1.403 . S
C1164 C1165 1.404 . S
C1164 C1167 1.539 . S
C1165 C1161 1.408 . S
C1165 C1164 1.404 . S
C1165 H1177 0.930 . S
C1166 C1162 1.524 . S
C1166 H1178 0.956 . S
C1166 H1179 0.961 . S
C1166 H1180 0.961 . S
C1167 C1164 1.539 . S
C1167 H1181 0.958 . S
C1167 H1182 0.961 . S
C1167 H1183 0.960 . S
H1168 C1152 0.931 . S
H1169 C1157 0.929 . S
H1170 C1158 0.960 . S
H1171 C1158 0.962 . S
H1172 C1158 0.960 . S
H1173 C1159 0.961 . S
H1174 C1159 0.961 . S
H1175 C1159 0.961 . S
H1176 C1160 0.931 . S
H1177 C1165 0.930 . S
H1178 C1166 0.956 . S
H1179 C1166 0.961 . S
H1180 C1166 0.961 . S
H1181 C1167 0.958 . S
H1182 C1167 0.961 . S
H1183 C1167 0.960 . S
C1184 C1185 1.391 . S
C1184 C1186 1.394 . S
C1184 H1200 0.931 . S
C1185 C1184 1.391 . S
C1185 C1189 1.376 . S
C1186 C1184 1.394 . S
C1186 C1187 1.369 . S
C1186 C1190 1.531 . S
C1187 C1186 1.369 . S
C1187 C1188 1.410 . S
C1187 C1195 1.503 1_556 S
C1188 C1187 1.410 . S
C1188 C1189 1.392 . S
C1188 C1191 1.511 . S
C1189 C1185 1.376 . S
C1189 C1188 1.392 . S
C1189 H1201 0.929 . S
C1190 C1186 1.531 . S
C1190 H1202 0.960 1_556 S
C1190 H1203 0.962 . S
C1190 H1204 0.960 . S
C1191 C1188 1.511 . S
C1191 H1205 0.961 . S
C1191 H1206 0.962 1_556 S
C1191 H1207 0.961 . S
C1192 C1193 1.370 . S
C1192 C1194 1.363 . S
C1192 H1208 0.931 . S
C1193 C1192 1.370 . S
C1193 C1197 1.408 . S
C1194 C1192 1.363 . S
C1194 C1195 1.370 . S
C1194 C1198 1.524 . S
C1195 C1187 1.503 1_554 S
C1195 C1194 1.370 . S
C1195 C1196 1.403 . S
C1196 C1195 1.403 . S
C1196 C1197 1.404 . S
C1196 C1199 1.539 . S
C1197 C1193 1.408 . S
C1197 C1196 1.404 . S
C1197 H1209 0.930 . S
C1198 C1194 1.524 . S
C1198 H1210 1.021 . S
C1198 H1211 0.921 1_554 S
C1198 H1212 0.961 . S
C1199 C1196 1.539 . S
C1199 H1213 0.958 . S
C1199 H1214 0.961 . S
C1199 H1215 0.922 1_554 S
H1200 C1184 0.931 . S
H1201 C1189 0.929 . S
H1202 C1190 0.960 1_554 S
H1203 C1190 0.962 . S
H1204 C1190 0.960 . S
H1205 C1191 0.961 . S
H1206 C1191 0.962 1_554 S
H1207 C1191 0.961 . S
H1208 C1192 0.931 . S
H1209 C1197 0.930 . S
H1210 C1198 1.021 . S
H1211 C1198 0.921 1_556 S
H1212 C1198 0.961 . S
H1213 C1199 0.958 . S
H1214 C1199 0.961 . S
H1215 C1199 0.922 1_556 S
C1216 C1217 1.391 1_545 S
C1216 C1218 1.394 . S
C1216 H1232 0.931 . S
C1217 C1216 1.391 1_565 S
C1217 C1221 1.376 . S
C1218 C1216 1.394 . S
C1218 C1219 1.369 . S
C1218 C1222 1.531 . S
C1219 C1218 1.369 . S
C1219 C1220 1.410 1_545 S
C1219 C1227 1.503 . S
C1220 C1219 1.410 1_565 S
C1220 C1221 1.392 . S
C1220 C1223 1.511 . S
C1221 C1217 1.376 . S
C1221 C1220 1.392 . S
C1221 H1233 0.929 . S
C1222 C1218 1.531 . S
C1222 H1234 0.960 . S
C1222 H1235 0.962 . S
C1222 H1236 0.960 . S
C1223 C1220 1.511 . S
C1223 H1237 0.961 . S
C1223 H1238 0.961 . S
C1223 H1239 0.961 . S
C1224 C1225 1.370 1_565 S
C1224 C1226 1.363 . S
C1224 H1240 0.931 . S
C1225 C1224 1.370 1_545 S
C1225 C1229 1.408 . S
C1226 C1224 1.363 . S
C1226 C1227 1.370 1_565 S
C1226 C1230 1.524 . S
C1227 C1219 1.503 . S
C1227 C1226 1.370 1_545 S
C1227 C1228 1.403 . S
C1228 C1227 1.403 . S
C1228 C1229 1.404 . S
C1228 C1231 1.539 . S
C1229 C1225 1.408 . S
C1229 C1228 1.404 . S
C1229 H1241 0.930 . S
C1230 C1226 1.524 . S
C1230 H1242 0.956 . S
C1230 H1243 0.961 . S
C1230 H1244 0.961 . S
C1231 C1228 1.539 . S
C1231 H1245 0.958 . S
C1231 H1246 0.961 . S
C1231 H1247 0.960 . S
H1232 C1216 0.931 . S
H1233 C1221 0.929 . S
H1234 C1222 0.960 . S
H1235 C1222 0.962 . S
H1236 C1222 0.960 . S
H1237 C1223 0.961 . S
H1238 C1223 0.961 . S
H1239 C1223 0.961 . S
H1240 C1224 0.931 . S
H1241 C1229 0.930 . S
H1242 C1230 0.956 . S
H1243 C1230 0.961 . S
H1244 C1230 0.961 . S
H1245 C1231 0.958 . S
H1246 C1231 0.961 . S
H1247 C1231 0.960 . S
C1248 C1249 1.391 . S
C1248 C1250 1.394 . S
C1248 H1264 0.931 . S
C1249 C1248 1.391 . S
C1249 C1253 1.376 . S
C1250 C1248 1.394 . S
C1250 C1251 1.369 . S
C1250 C1254 1.531 . S
C1251 C1250 1.369 . S
C1251 C1252 1.410 . S
C1251 C1259 1.503 . S
C1252 C1251 1.410 . S
C1252 C1253 1.392 . S
C1252 C1255 1.511 . S
C1253 C1249 1.376 . S
C1253 C1252 1.392 . S
C1253 H1265 0.929 . S
C1254 C1250 1.531 . S
C1254 H1266 0.960 . S
C1254 H1267 0.962 . S
C1254 H1268 0.960 . S
C1255 C1252 1.511 . S
C1255 H1269 0.961 . S
C1255 H1270 0.961 . S
C1255 H1271 0.961 . S
C1256 C1257 1.370 . S
C1256 C1258 1.363 . S
C1256 H1272 0.931 . S
C1257 C1256 1.370 . S
C1257 C1261 1.408 . S
C1258 C1256 1.363 . S
C1258 C1259 1.370 . S
C1258 C1262 1.524 . S
C1259 C1251 1.503 . S
C1259 C1258 1.370 . S
C1259 C1260 1.403 . S
C1260 C1259 1.403 . S
C1260 C1261 1.404 . S
C1260 C1263 1.539 . S
C1261 C1257 1.408 . S
C1261 C1260 1.404 . S
C1261 H1273 0.930 . S
C1262 C1258 1.524 . S
C1262 H1274 0.956 . S
C1262 H1275 0.961 . S
C1262 H1276 0.961 . S
C1263 C1260 1.539 . S
C1263 H1277 0.958 . S
C1263 H1278 0.961 . S
C1263 H1279 0.960 . S
H1264 C1248 0.931 . S
H1265 C1253 0.929 . S
H1266 C1254 0.960 . S
H1267 C1254 0.962 . S
H1268 C1254 0.960 . S
H1269 C1255 0.961 . S
H1270 C1255 0.961 . S
H1271 C1255 0.961 . S
H1272 C1256 0.931 . S
H1273 C1261 0.930 . S
H1274 C1262 0.956 . S
H1275 C1262 0.961 . S
H1276 C1262 0.961 . S
H1277 C1263 0.958 . S
H1278 C1263 0.961 . S
H1279 C1263 0.960 . S
C1280 C1281 1.391 1_565 S
C1280 C1282 1.394 . S
C1280 H1296 0.931 . S
C1281 C1280 1.391 1_545 S
C1281 C1285 1.376 . S
C1282 C1280 1.394 . S
C1282 C1283 1.369 . S
C1282 C1286 1.531 . S
C1283 C1282 1.369 . S
C1283 C1284 1.410 1_565 S
C1283 C1291 1.503 . S
C1284 C1283 1.410 1_545 S
C1284 C1285 1.392 . S
C1284 C1287 1.511 . S
C1285 C1281 1.376 . S
C1285 C1284 1.392 . S
C1285 H1297 0.929 . S
C1286 C1282 1.531 . S
C1286 H1298 0.960 . S
C1286 H1299 0.962 . S
C1286 H1300 0.960 . S
C1287 C1284 1.511 . S
C1287 H1301 0.961 . S
C1287 H1302 0.961 . S
C1287 H1303 0.961 1_545 S
C1288 C1289 1.370 1_545 S
C1288 C1290 1.363 . S
C1288 H1304 0.931 . S
C1289 C1288 1.370 1_565 S
C1289 C1293 1.408 . S
C1290 C1288 1.363 . S
C1290 C1291 1.370 1_545 S
C1290 C1294 1.524 . S
C1291 C1283 1.503 . S
C1291 C1290 1.370 1_565 S
C1291 C1292 1.403 . S
C1292 C1291 1.403 . S
C1292 C1293 1.404 . S
C1292 C1295 1.539 . S
C1293 C1289 1.408 . S
C1293 C1292 1.404 . S
C1293 H1305 0.930 . S
C1294 C1290 1.524 . S
C1294 H1306 0.956 . S
C1294 H1307 0.961 . S
C1294 H1308 0.961 . S
C1295 C1292 1.539 . S
C1295 H1309 0.958 . S
C1295 H1310 0.961 . S
C1295 H1311 0.960 . S
H1296 C1280 0.931 . S
H1297 C1285 0.929 . S
H1298 C1286 0.960 . S
H1299 C1286 0.962 . S
H1300 C1286 0.960 . S
H1301 C1287 0.961 . S
H1302 C1287 0.961 . S
H1303 C1287 0.961 1_565 S
H1304 C1288 0.931 . S
H1305 C1293 0.930 . S
H1306 C1294 0.956 . S
H1307 C1294 0.961 . S
H1308 C1294 0.961 . S
H1309 C1295 0.958 . S
H1310 C1295 0.961 . S
H1311 C1295 0.960 . S
C1312 C1313 1.391 . S
C1312 C1314 1.394 . S
C1312 H1328 0.931 . S
C1313 C1312 1.391 . S
C1313 C1317 1.376 . S
C1314 C1312 1.394 . S
C1314 C1315 1.369 . S
C1314 C1318 1.531 . S
C1315 C1314 1.369 . S
C1315 C1316 1.410 . S
C1315 C1323 1.503 1_556 S
C1316 C1315 1.410 . S
C1316 C1317 1.392 . S
C1316 C1319 1.511 . S
C1317 C1313 1.376 . S
C1317 C1316 1.392 . S
C1317 H1329 0.929 . S
C1318 C1314 1.531 . S
C1318 H1330 0.958 . S
C1318 H1331 0.962 . S
C1318 H1332 0.960 . S
C1319 C1316 1.511 . S
C1319 H1333 0.961 . S
C1319 H1334 0.961 1_556 S
C1319 H1335 0.961 . S
C1320 C1321 1.370 . S
C1320 C1322 1.363 . S
C1320 H1336 0.931 . S
C1321 C1320 1.370 . S
C1321 C1325 1.408 . S
C1322 C1320 1.363 . S
C1322 C1323 1.370 . S
C1322 C1326 1.524 . S
C1323 C1315 1.503 1_554 S
C1323 C1322 1.370 . S
C1323 C1324 1.403 . S
C1324 C1323 1.403 . S
C1324 C1325 1.404 . S
C1324 C1327 1.539 . S
C1325 C1321 1.408 . S
C1325 C1324 1.404 . S
C1325 H1337 0.930 . S
C1326 C1322 1.524 . S
C1326 H1338 0.951 . S
C1326 H1339 0.944 1_554 S
C1326 H1340 0.961 . S
C1327 C1324 1.539 . S
C1327 H1341 0.958 . S
C1327 H1342 0.961 . S
C1327 H1343 0.994 . S
H1328 C1312 0.931 . S
H1329 C1317 0.929 . S
H1330 C1318 0.958 . S
H1331 C1318 0.962 . S
H1332 C1318 0.960 . S
H1333 C1319 0.961 . S
H1334 C1319 0.961 1_554 S
H1335 C1319 0.961 . S
H1336 C1320 0.931 . S
H1337 C1325 0.930 . S
H1338 C1326 0.951 . S
H1339 C1326 0.944 1_556 S
H1340 C1326 0.961 . S
H1341 C1327 0.958 . S
H1342 C1327 0.961 . S
H1343 C1327 0.994 . S
C1344 C1345 1.391 . S
C1344 C1346 1.394 . S
C1344 H1360 0.931 . S
C1345 C1344 1.391 . S
C1345 C1349 1.376 . S
C1346 C1344 1.394 . S
C1346 C1347 1.369 . S
C1346 C1350 1.531 . S
C1347 C1346 1.369 . S
C1347 C1348 1.410 . S
C1347 C1355 1.503 . S
C1348 C1347 1.410 . S
C1348 C1349 1.392 . S
C1348 C1351 1.511 . S
C1349 C1345 1.376 . S
C1349 C1348 1.392 . S
C1349 H1361 0.929 . S
C1350 C1346 1.531 . S
C1350 H1362 0.960 . S
C1350 H1363 0.962 . S
C1350 H1364 0.960 . S
C1351 C1348 1.511 . S
C1351 H1365 0.961 . S
C1351 H1366 0.961 . S
C1351 H1367 0.961 . S
C1352 C1353 1.370 . S
C1352 C1354 1.363 . S
C1352 H1368 0.931 . S
C1353 C1352 1.370 . S
C1353 C1357 1.408 . S
C1354 C1352 1.363 . S
C1354 C1355 1.370 . S
C1354 C1358 1.524 . S
C1355 C1347 1.503 . S
C1355 C1354 1.370 . S
C1355 C1356 1.403 . S
C1356 C1355 1.403 . S
C1356 C1357 1.404 . S
C1356 C1359 1.539 . S
C1357 C1353 1.408 . S
C1357 C1356 1.404 . S
C1357 H1369 0.930 . S
C1358 C1354 1.524 . S
C1358 H1370 0.956 . S
C1358 H1371 0.961 . S
C1358 H1372 0.961 . S
C1359 C1356 1.539 . S
C1359 H1373 0.958 . S
C1359 H1374 0.961 . S
C1359 H1375 0.960 . S
H1360 C1344 0.931 . S
H1361 C1349 0.929 . S
H1362 C1350 0.960 . S
H1363 C1350 0.962 . S
H1364 C1350 0.960 . S
H1365 C1351 0.961 . S
H1366 C1351 0.961 . S
H1367 C1351 0.961 . S
H1368 C1352 0.931 . S
H1369 C1357 0.930 . S
H1370 C1358 0.956 . S
H1371 C1358 0.961 . S
H1372 C1358 0.961 . S
H1373 C1359 0.958 . S
H1374 C1359 0.961 . S
H1375 C1359 0.960 . S
C1376 C1377 1.391 . S
C1376 C1378 1.394 . S
C1376 H1392 0.931 . S
C1377 C1376 1.391 . S
C1377 C1381 1.376 . S
C1378 C1376 1.394 . S
C1378 C1379 1.369 . S
C1378 C1382 1.531 . S
C1379 C1378 1.369 . S
C1379 C1380 1.410 . S
C1379 C1387 1.503 1_556 S
C1380 C1379 1.410 . S
C1380 C1381 1.392 . S
C1380 C1383 1.511 . S
C1381 C1377 1.376 . S
C1381 C1380 1.392 . S
C1381 H1393 0.929 . S
C1382 C1378 1.531 . S
C1382 H1394 0.963 . S
C1382 H1395 0.962 . S
C1382 H1396 0.960 . S
C1383 C1380 1.511 . S
C1383 H1397 0.961 . S
C1383 H1398 0.961 1_556 S
C1383 H1399 0.961 . S
C1384 C1385 1.370 . S
C1384 C1386 1.363 . S
C1384 H1400 0.931 . S
C1385 C1384 1.370 . S
C1385 C1389 1.408 . S
C1386 C1384 1.363 . S
C1386 C1387 1.370 . S
C1386 C1390 1.524 . S
C1387 C1379 1.503 1_554 S
C1387 C1386 1.370 . S
C1387 C1388 1.403 . S
C1388 C1387 1.403 . S
C1388 C1389 1.404 . S
C1388 C1391 1.539 . S
C1389 C1385 1.408 . S
C1389 C1388 1.404 . S
C1389 H1401 0.930 . S
C1390 C1386 1.524 . S
C1390 H1402 0.955 . S
C1390 H1403 0.950 1_554 S
C1390 H1404 0.961 . S
C1391 C1388 1.539 . S
C1391 H1405 0.958 . S
C1391 H1406 0.961 . S
C1391 H1407 0.985 . S
H1392 C1376 0.931 . S
H1393 C1381 0.929 . S
H1394 C1382 0.963 . S
H1395 C1382 0.962 . S
H1396 C1382 0.960 . S
H1397 C1383 0.961 . S
H1398 C1383 0.961 1_554 S
H1399 C1383 0.961 . S
H1400 C1384 0.931 . S
H1401 C1389 0.930 . S
H1402 C1390 0.955 . S
H1403 C1390 0.950 1_556 S
H1404 C1390 0.961 . S
H1405 C1391 0.958 . S
H1406 C1391 0.961 . S
H1407 C1391 0.985 . S
C1408 C1409 1.391 . S
C1408 C1410 1.394 . S
C1408 H1424 0.931 . S
C1409 C1408 1.391 . S
C1409 C1413 1.376 . S
C1410 C1408 1.394 . S
C1410 C1411 1.369 . S
C1410 C1414 1.531 . S
C1411 C1410 1.369 . S
C1411 C1412 1.410 . S
C1411 C1419 1.503 . S
C1412 C1411 1.410 . S
C1412 C1413 1.392 . S
C1412 C1415 1.511 . S
C1413 C1409 1.376 . S
C1413 C1412 1.392 . S
C1413 H1425 0.929 . S
C1414 C1410 1.531 . S
C1414 H1426 0.960 . S
C1414 H1427 0.962 . S
C1414 H1428 0.960 . S
C1415 C1412 1.511 . S
C1415 H1429 0.961 . S
C1415 H1430 0.961 . S
C1415 H1431 0.961 . S
C1416 C1417 1.370 . S
C1416 C1418 1.363 . S
C1416 H1432 0.931 . S
C1417 C1416 1.370 . S
C1417 C1421 1.408 . S
C1418 C1416 1.363 . S
C1418 C1419 1.370 . S
C1418 C1422 1.524 . S
C1419 C1411 1.503 . S
C1419 C1418 1.370 . S
C1419 C1420 1.403 . S
C1420 C1419 1.403 . S
C1420 C1421 1.404 . S
C1420 C1423 1.539 . S
C1421 C1417 1.408 . S
C1421 C1420 1.404 . S
C1421 H1433 0.930 . S
C1422 C1418 1.524 . S
C1422 H1434 0.956 . S
C1422 H1435 0.961 . S
C1422 H1436 0.961 . S
C1423 C1420 1.539 . S
C1423 H1437 0.958 . S
C1423 H1438 0.961 . S
C1423 H1439 0.960 . S
H1424 C1408 0.931 . S
H1425 C1413 0.929 . S
H1426 C1414 0.960 . S
H1427 C1414 0.962 . S
H1428 C1414 0.960 . S
H1429 C1415 0.961 . S
H1430 C1415 0.961 . S
H1431 C1415 0.961 . S
H1432 C1416 0.931 . S
H1433 C1421 0.930 . S
H1434 C1422 0.956 . S
H1435 C1422 0.961 . S
H1436 C1422 0.961 . S
H1437 C1423 0.958 . S
H1438 C1423 0.961 . S
H1439 C1423 0.960 . S
C1440 C1441 1.391 . S
C1440 C1442 1.394 . S
C1440 H1456 0.931 . S
C1441 C1440 1.391 . S
C1441 C1445 1.376 . S
C1442 C1440 1.394 . S
C1442 C1443 1.369 . S
C1442 C1446 1.531 . S
C1443 C1442 1.369 . S
C1443 C1444 1.410 . S
C1443 C1451 1.503 . S
C1444 C1443 1.410 . S
C1444 C1445 1.392 . S
C1444 C1447 1.511 . S
C1445 C1441 1.376 . S
C1445 C1444 1.392 . S
C1445 H1457 0.929 . S
C1446 C1442 1.531 . S
C1446 H1458 0.960 . S
C1446 H1459 0.962 . S
C1446 H1460 0.960 . S
C1447 C1444 1.511 . S
C1447 H1461 0.961 . S
C1447 H1462 0.961 . S
C1447 H1463 0.961 . S
C1448 C1449 1.370 . S
C1448 C1450 1.363 . S
C1448 H1464 0.931 . S
C1449 C1448 1.370 . S
C1449 C1453 1.408 . S
C1450 C1448 1.363 . S
C1450 C1451 1.370 . S
C1450 C1454 1.524 . S
C1451 C1443 1.503 . S
C1451 C1450 1.370 . S
C1451 C1452 1.403 . S
C1452 C1451 1.403 . S
C1452 C1453 1.404 . S
C1452 C1455 1.539 . S
C1453 C1449 1.408 . S
C1453 C1452 1.404 . S
C1453 H1465 0.930 . S
C1454 C1450 1.524 . S
C1454 H1466 0.956 . S
C1454 H1467 0.961 . S
C1454 H1468 0.961 . S
C1455 C1452 1.539 . S
C1455 H1469 0.958 . S
C1455 H1470 0.961 . S
C1455 H1471 0.960 . S
H1456 C1440 0.931 . S
H1457 C1445 0.929 . S
H1458 C1446 0.960 . S
H1459 C1446 0.962 . S
H1460 C1446 0.960 . S
H1461 C1447 0.961 . S
H1462 C1447 0.961 . S
H1463 C1447 0.961 . S
H1464 C1448 0.931 . S
H1465 C1453 0.930 . S
H1466 C1454 0.956 . S
H1467 C1454 0.961 . S
H1468 C1454 0.961 . S
H1469 C1455 0.958 . S
H1470 C1455 0.961 . S
H1471 C1455 0.960 . S
C1472 C1473 1.391 . S
C1472 C1474 1.394 . S
C1472 H1488 0.931 . S
C1473 C1472 1.391 . S
C1473 C1477 1.376 . S
C1474 C1472 1.394 . S
C1474 C1475 1.369 . S
C1474 C1478 1.531 . S
C1475 C1474 1.369 . S
C1475 C1476 1.410 . S
C1475 C1483 1.503 . S
C1476 C1475 1.410 . S
C1476 C1477 1.392 . S
C1476 C1479 1.511 . S
C1477 C1473 1.376 . S
C1477 C1476 1.392 . S
C1477 H1489 0.929 . S
C1478 C1474 1.531 . S
C1478 H1490 0.960 . S
C1478 H1491 0.962 . S
C1478 H1492 0.960 . S
C1479 C1476 1.511 . S
C1479 H1493 0.961 . S
C1479 H1494 0.961 . S
C1479 H1495 0.961 . S
C1480 C1481 1.370 . S
C1480 C1482 1.363 . S
C1480 H1496 0.931 . S
C1481 C1480 1.370 . S
C1481 C1485 1.408 . S
C1482 C1480 1.363 . S
C1482 C1483 1.370 . S
C1482 C1486 1.524 . S
C1483 C1475 1.503 . S
C1483 C1482 1.370 . S
C1483 C1484 1.403 . S
C1484 C1483 1.403 . S
C1484 C1485 1.404 . S
C1484 C1487 1.539 . S
C1485 C1481 1.408 . S
C1485 C1484 1.404 . S
C1485 H1497 0.930 . S
C1486 C1482 1.524 . S
C1486 H1498 0.956 . S
C1486 H1499 0.961 . S
C1486 H1500 0.961 . S
C1487 C1484 1.539 . S
C1487 H1501 0.958 . S
C1487 H1502 0.961 . S
C1487 H1503 0.960 . S
H1488 C1472 0.931 . S
H1489 C1477 0.929 . S
H1490 C1478 0.960 . S
H1491 C1478 0.962 . S
H1492 C1478 0.960 . S
H1493 C1479 0.961 . S
H1494 C1479 0.961 . S
H1495 C1479 0.961 . S
H1496 C1480 0.931 . S
H1497 C1485 0.930 . S
H1498 C1486 0.956 . S
H1499 C1486 0.961 . S
H1500 C1486 0.961 . S
H1501 C1487 0.958 . S
H1502 C1487 0.961 . S
H1503 C1487 0.960 . S
C1504 C1505 1.391 . S
C1504 C1506 1.394 . S
C1504 H1520 0.931 . S
C1505 C1504 1.391 . S
C1505 C1509 1.376 . S
C1506 C1504 1.394 . S
C1506 C1507 1.369 . S
C1506 C1510 1.531 . S
C1507 C1506 1.369 . S
C1507 C1508 1.410 . S
C1507 C1515 1.503 1_554 S
C1508 C1507 1.410 . S
C1508 C1509 1.392 . S
C1508 C1511 1.511 . S
C1509 C1505 1.376 . S
C1509 C1508 1.392 . S
C1509 H1521 0.929 . S
C1510 C1506 1.531 . S
C1510 H1522 0.960 1_554 S
C1510 H1523 0.962 . S
C1510 H1524 0.960 . S
C1511 C1508 1.511 . S
C1511 H1525 0.961 . S
C1511 H1526 0.945 1_554 S
C1511 H1527 0.961 . S
C1512 C1513 1.370 . S
C1512 C1514 1.363 . S
C1512 H1528 0.931 . S
C1513 C1512 1.370 . S
C1513 C1517 1.408 . S
C1514 C1512 1.363 . S
C1514 C1515 1.370 . S
C1514 C1518 1.524 . S
C1515 C1507 1.503 1_556 S
C1515 C1514 1.370 . S
C1515 C1516 1.403 . S
C1516 C1515 1.403 . S
C1516 C1517 1.404 . S
C1516 C1519 1.539 . S
C1517 C1513 1.408 . S
C1517 C1516 1.404 . S
C1517 H1529 0.930 . S
C1518 C1514 1.524 . S
C1518 H1530 0.956 . S
C1518 H1531 0.949 1_556 S
C1518 H1532 0.961 . S
C1519 C1516 1.539 . S
C1519 H1533 0.958 . S
C1519 H1534 0.961 . S
C1519 H1535 0.886 1_556 S
H1520 C1504 0.931 . S
H1521 C1509 0.929 . S
H1522 C1510 0.960 1_556 S
H1523 C1510 0.962 . S
H1524 C1510 0.960 . S
H1525 C1511 0.961 . S
H1526 C1511 0.945 1_556 S
H1527 C1511 0.961 . S
H1528 C1512 0.931 . S
H1529 C1517 0.930 . S
H1530 C1518 0.956 . S
H1531 C1518 0.949 1_554 S
H1532 C1518 0.961 . S
H1533 C1519 0.958 . S
H1534 C1519 0.961 . S
H1535 C1519 0.886 1_554 S
C1536 C1537 1.391 . S
C1536 C1538 1.394 . S
C1536 H1552 0.931 . S
C1537 C1536 1.391 . S
C1537 C1541 1.376 . S
C1538 C1536 1.394 . S
C1538 C1539 1.369 . S
C1538 C1542 1.531 . S
C1539 C1538 1.369 . S
C1539 C1540 1.410 . S
C1539 C1547 1.503 . S
C1540 C1539 1.410 . S
C1540 C1541 1.392 . S
C1540 C1543 1.511 . S
C1541 C1537 1.376 . S
C1541 C1540 1.392 . S
C1541 H1553 0.929 . S
C1542 C1538 1.531 . S
C1542 H1554 0.960 . S
C1542 H1555 0.962 . S
C1542 H1556 0.960 . S
C1543 C1540 1.511 . S
C1543 H1557 0.961 . S
C1543 H1558 0.961 . S
C1543 H1559 0.961 . S
C1544 C1545 1.370 . S
C1544 C1546 1.363 . S
C1544 H1560 0.931 . S
C1545 C1544 1.370 . S
C1545 C1549 1.408 . S
C1546 C1544 1.363 . S
C1546 C1547 1.370 . S
C1546 C1550 1.524 . S
C1547 C1539 1.503 . S
C1547 C1546 1.370 . S
C1547 C1548 1.403 . S
C1548 C1547 1.403 . S
C1548 C1549 1.404 . S
C1548 C1551 1.539 . S
C1549 C1545 1.408 . S
C1549 C1548 1.404 . S
C1549 H1561 0.930 . S
C1550 C1546 1.524 . S
C1550 H1562 0.956 . S
C1550 H1563 0.961 . S
C1550 H1564 0.961 . S
C1551 C1548 1.539 . S
C1551 H1565 0.958 . S
C1551 H1566 0.961 . S
C1551 H1567 0.960 . S
H1552 C1536 0.931 . S
H1553 C1541 0.929 . S
H1554 C1542 0.960 . S
H1555 C1542 0.962 . S
H1556 C1542 0.960 . S
H1557 C1543 0.961 . S
H1558 C1543 0.961 . S
H1559 C1543 0.961 . S
H1560 C1544 0.931 . S
H1561 C1549 0.930 . S
H1562 C1550 0.956 . S
H1563 C1550 0.961 . S
H1564 C1550 0.961 . S
H1565 C1551 0.958 . S
H1566 C1551 0.961 . S
H1567 C1551 0.960 . S
C1568 C1569 1.391 . S
C1568 C1570 1.394 . S
C1568 H1584 0.931 . S
C1569 C1568 1.391 . S
C1569 C1573 1.376 . S
C1570 C1568 1.394 . S
C1570 C1571 1.369 . S
C1570 C1574 1.531 . S
C1571 C1570 1.369 . S
C1571 C1572 1.410 . S
C1571 C1579 1.503 . S
C1572 C1571 1.410 . S
C1572 C1573 1.392 . S
C1572 C1575 1.511 . S
C1573 C1569 1.376 . S
C1573 C1572 1.392 . S
C1573 H1585 0.929 . S
C1574 C1570 1.531 . S
C1574 H1586 0.960 . S
C1574 H1587 0.962 . S
C1574 H1588 0.960 . S
C1575 C1572 1.511 . S
C1575 H1589 0.961 . S
C1575 H1590 0.961 . S
C1575 H1591 0.961 . S
C1576 C1577 1.370 . S
C1576 C1578 1.363 . S
C1576 H1592 0.931 . S
C1577 C1576 1.370 . S
C1577 C1581 1.408 . S
C1578 C1576 1.363 . S
C1578 C1579 1.370 . S
C1578 C1582 1.524 . S
C1579 C1571 1.503 . S
C1579 C1578 1.370 . S
C1579 C1580 1.403 . S
C1580 C1579 1.403 . S
C1580 C1581 1.404 . S
C1580 C1583 1.539 . S
C1581 C1577 1.408 . S
C1581 C1580 1.404 . S
C1581 H1593 0.930 . S
C1582 C1578 1.524 . S
C1582 H1594 0.956 . S
C1582 H1595 0.961 . S
C1582 H1596 0.961 . S
C1583 C1580 1.539 . S
C1583 H1597 0.958 . S
C1583 H1598 0.961 . S
C1583 H1599 0.960 . S
H1584 C1568 0.931 . S
H1585 C1573 0.929 . S
H1586 C1574 0.960 . S
H1587 C1574 0.962 . S
H1588 C1574 0.960 . S
H1589 C1575 0.961 . S
H1590 C1575 0.961 . S
H1591 C1575 0.961 . S
H1592 C1576 0.931 . S
H1593 C1581 0.930 . S
H1594 C1582 0.956 . S
H1595 C1582 0.961 . S
H1596 C1582 0.961 . S
H1597 C1583 0.958 . S
H1598 C1583 0.961 . S
H1599 C1583 0.960 . S
C1600 C1601 1.391 . S
C1600 C1602 1.394 . S
C1600 H1616 0.931 . S
C1601 C1600 1.391 . S
C1601 C1605 1.376 . S
C1602 C1600 1.394 . S
C1602 C1603 1.369 . S
C1602 C1606 1.531 1_455 S
C1603 C1602 1.369 . S
C1603 C1604 1.410 . S
C1603 C1611 1.503 1_455 S
C1604 C1603 1.410 . S
C1604 C1605 1.392 . S
C1604 C1607 1.511 . S
C1605 C1601 1.376 . S
C1605 C1604 1.392 . S
C1605 H1617 0.929 . S
C1606 C1602 1.531 1_655 S
C1606 H1618 0.960 . S
C1606 H1619 0.962 . S
C1606 H1620 0.960 . S
C1607 C1604 1.511 . S
C1607 H1621 0.961 . S
C1607 H1622 0.961 . S
C1607 H1623 0.961 . S
C1608 C1609 1.370 . S
C1608 C1610 1.363 . S
C1608 H1624 0.931 . S
C1609 C1608 1.370 . S
C1609 C1613 1.408 . S
C1610 C1608 1.363 . S
C1610 C1611 1.370 . S
C1610 C1614 1.524 . S
C1611 C1603 1.503 1_655 S
C1611 C1610 1.370 . S
C1611 C1612 1.403 . S
C1612 C1611 1.403 . S
C1612 C1613 1.404 . S
C1612 C1615 1.539 . S
C1613 C1609 1.408 . S
C1613 C1612 1.404 . S
C1613 H1625 0.930 . S
C1614 C1610 1.524 . S
C1614 H1626 0.956 . S
C1614 H1627 0.961 1_655 S
C1614 H1628 0.961 . S
C1615 C1612 1.539 . S
C1615 H1629 0.958 . S
C1615 H1630 0.961 . S
C1615 H1631 0.960 1_655 S
H1616 C1600 0.931 . S
H1617 C1605 0.929 . S
H1618 C1606 0.960 . S
H1619 C1606 0.962 . S
H1620 C1606 0.960 . S
H1621 C1607 0.961 . S
H1622 C1607 0.961 . S
H1623 C1607 0.961 . S
H1624 C1608 0.931 . S
H1625 C1613 0.930 . S
H1626 C1614 0.956 . S
H1627 C1614 0.961 1_455 S
H1628 C1614 0.961 . S
H1629 C1615 0.958 . S
H1630 C1615 0.961 . S
H1631 C1615 0.960 1_455 S
C1632 C1633 1.391 . S
C1632 C1634 1.394 . S
C1632 H1648 0.931 . S
C1633 C1632 1.391 . S
C1633 C1637 1.376 . S
C1634 C1632 1.394 . S
C1634 C1635 1.369 . S
C1634 C1638 1.531 . S
C1635 C1634 1.369 . S
C1635 C1636 1.410 . S
C1635 C1643 1.503 1_455 S
C1636 C1635 1.410 . S
C1636 C1637 1.392 . S
C1636 C1639 1.511 . S
C1637 C1633 1.376 . S
C1637 C1636 1.392 . S
C1637 H1649 0.929 . S
C1638 C1634 1.531 . S
C1638 H1650 0.960 . S
C1638 H1651 0.962 1_455 S
C1638 H1652 0.960 . S
C1639 C1636 1.511 . S
C1639 H1653 0.961 . S
C1639 H1654 0.961 . S
C1639 H1655 0.961 . S
C1640 C1641 1.370 . S
C1640 C1642 1.363 . S
C1640 H1656 0.931 . S
C1641 C1640 1.370 . S
C1641 C1645 1.408 . S
C1642 C1640 1.363 . S
C1642 C1643 1.370 . S
C1642 C1646 1.524 . S
C1643 C1635 1.503 1_655 S
C1643 C1642 1.370 . S
C1643 C1644 1.403 . S
C1644 C1643 1.403 . S
C1644 C1645 1.404 . S
C1644 C1647 1.539 1_655 S
C1645 C1641 1.408 . S
C1645 C1644 1.404 . S
C1645 H1657 0.930 . S
C1646 C1642 1.524 . S
C1646 H1658 0.956 . S
C1646 H1659 0.961 . S
C1646 H1660 0.961 . S
C1647 C1644 1.539 1_455 S
C1647 H1661 0.958 . S
C1647 H1662 0.961 . S
C1647 H1663 0.960 . S
H1648 C1632 0.931 . S
H1649 C1637 0.929 . S
H1650 C1638 0.960 . S
H1651 C1638 0.962 1_655 S
H1652 C1638 0.960 . S
H1653 C1639 0.961 . S
H1654 C1639 0.961 . S
H1655 C1639 0.961 . S
H1656 C1640 0.931 . S
H1657 C1645 0.930 . S
H1658 C1646 0.956 . S
H1659 C1646 0.961 . S
H1660 C1646 0.961 . S
H1661 C1647 0.958 . S
H1662 C1647 0.961 . S
H1663 C1647 0.960 . S
C1664 C1665 1.391 . S
C1664 C1666 1.394 . S
C1664 H1680 0.931 . S
C1665 C1664 1.391 . S
C1665 C1669 1.376 . S
C1666 C1664 1.394 . S
C1666 C1667 1.369 . S
C1666 C1670 1.531 . S
C1667 C1666 1.369 . S
C1667 C1668 1.410 . S
C1667 C1675 1.503 . S
C1668 C1667 1.410 . S
C1668 C1669 1.392 . S
C1668 C1671 1.511 . S
C1669 C1665 1.376 . S
C1669 C1668 1.392 . S
C1669 H1681 0.929 . S
C1670 C1666 1.531 . S
C1670 H1682 0.960 . S
C1670 H1683 0.962 . S
C1670 H1684 0.960 . S
C1671 C1668 1.511 . S
C1671 H1685 0.961 . S
C1671 H1686 0.961 . S
C1671 H1687 0.961 . S
C1672 C1673 1.370 . S
C1672 C1674 1.363 . S
C1672 H1688 0.931 . S
C1673 C1672 1.370 . S
C1673 C1677 1.408 . S
C1674 C1672 1.363 . S
C1674 C1675 1.370 . S
C1674 C1678 1.524 . S
C1675 C1667 1.503 . S
C1675 C1674 1.370 . S
C1675 C1676 1.403 . S
C1676 C1675 1.403 . S
C1676 C1677 1.404 . S
C1676 C1679 1.539 . S
C1677 C1673 1.408 . S
C1677 C1676 1.404 . S
C1677 H1689 0.930 . S
C1678 C1674 1.524 . S
C1678 H1690 0.956 . S
C1678 H1691 0.961 . S
C1678 H1692 0.961 . S
C1679 C1676 1.539 . S
C1679 H1693 0.958 . S
C1679 H1694 0.961 . S
C1679 H1695 0.960 . S
H1680 C1664 0.931 . S
H1681 C1669 0.929 . S
H1682 C1670 0.960 . S
H1683 C1670 0.962 . S
H1684 C1670 0.960 . S
H1685 C1671 0.961 . S
H1686 C1671 0.961 . S
H1687 C1671 0.961 . S
H1688 C1672 0.931 . S
H1689 C1677 0.930 . S
H1690 C1678 0.956 . S
H1691 C1678 0.961 . S
H1692 C1678 0.961 . S
H1693 C1679 0.958 . S
H1694 C1679 0.961 . S
H1695 C1679 0.960 . S
C1696 C1697 1.391 . S
C1696 C1698 1.394 . S
C1696 H1712 0.931 . S
C1697 C1696 1.391 . S
C1697 C1701 1.376 . S
C1698 C1696 1.394 . S
C1698 C1699 1.369 . S
C1698 C1702 1.531 . S
C1699 C1698 1.369 . S
C1699 C1700 1.410 . S
C1699 C1707 1.503 . S
C1700 C1699 1.410 . S
C1700 C1701 1.392 . S
C1700 C1703 1.511 . S
C1701 C1697 1.376 . S
C1701 C1700 1.392 . S
C1701 H1713 0.929 . S
C1702 C1698 1.531 . S
C1702 H1714 0.960 . S
C1702 H1715 0.962 . S
C1702 H1716 0.960 . S
C1703 C1700 1.511 . S
C1703 H1717 0.961 . S
C1703 H1718 0.961 . S
C1703 H1719 0.961 . S
C1704 C1705 1.370 . S
C1704 C1706 1.363 . S
C1704 H1720 0.931 . S
C1705 C1704 1.370 . S
C1705 C1709 1.408 . S
C1706 C1704 1.363 . S
C1706 C1707 1.370 . S
C1706 C1710 1.524 . S
C1707 C1699 1.503 . S
C1707 C1706 1.370 . S
C1707 C1708 1.403 . S
C1708 C1707 1.403 . S
C1708 C1709 1.404 . S
C1708 C1711 1.539 . S
C1709 C1705 1.408 . S
C1709 C1708 1.404 . S
C1709 H1721 0.930 . S
C1710 C1706 1.524 . S
C1710 H1722 0.956 . S
C1710 H1723 0.961 . S
C1710 H1724 0.961 . S
C1711 C1708 1.539 . S
C1711 H1725 0.958 . S
C1711 H1726 0.961 . S
C1711 H1727 0.960 . S
H1712 C1696 0.931 . S
H1713 C1701 0.929 . S
H1714 C1702 0.960 . S
H1715 C1702 0.962 . S
H1716 C1702 0.960 . S
H1717 C1703 0.961 . S
H1718 C1703 0.961 . S
H1719 C1703 0.961 . S
H1720 C1704 0.931 . S
H1721 C1709 0.930 . S
H1722 C1710 0.956 . S
H1723 C1710 0.961 . S
H1724 C1710 0.961 . S
H1725 C1711 0.958 . S
H1726 C1711 0.961 . S
H1727 C1711 0.960 . S
C1728 C1729 1.391 . S
C1728 C1730 1.394 . S
C1728 H1744 0.931 . S
C1729 C1728 1.391 . S
C1729 C1733 1.376 . S
C1730 C1728 1.394 . S
C1730 C1731 1.369 . S
C1730 C1734 1.531 1_455 S
C1731 C1730 1.369 . S
C1731 C1732 1.410 . S
C1731 C1739 1.503 1_455 S
C1732 C1731 1.410 . S
C1732 C1733 1.392 . S
C1732 C1735 1.511 . S
C1733 C1729 1.376 . S
C1733 C1732 1.392 . S
C1733 H1745 0.929 . S
C1734 C1730 1.531 1_655 S
C1734 H1746 0.960 . S
C1734 H1747 0.962 . S
C1734 H1748 0.960 . S
C1735 C1732 1.511 . S
C1735 H1749 0.961 . S
C1735 H1750 0.961 . S
C1735 H1751 0.961 . S
C1736 C1737 1.370 . S
C1736 C1738 1.363 . S
C1736 H1752 0.931 . S
C1737 C1736 1.370 . S
C1737 C1741 1.408 . S
C1738 C1736 1.363 . S
C1738 C1739 1.370 . S
C1738 C1742 1.524 . S
C1739 C1731 1.503 1_655 S
C1739 C1738 1.370 . S
C1739 C1740 1.403 . S
C1740 C1739 1.403 . S
C1740 C1741 1.404 . S
C1740 C1743 1.539 1_655 S
C1741 C1737 1.408 . S
C1741 C1740 1.404 . S
C1741 H1753 0.930 . S
C1742 C1738 1.524 . S
C1742 H1754 0.956 . S
C1742 H1755 0.961 . S
C1742 H1756 0.961 . S
C1743 C1740 1.539 1_455 S
C1743 H1757 0.958 . S
C1743 H1758 0.961 . S
C1743 H1759 0.960 . S
H1744 C1728 0.931 . S
H1745 C1733 0.929 . S
H1746 C1734 0.960 . S
H1747 C1734 0.962 . S
H1748 C1734 0.960 . S
H1749 C1735 0.961 . S
H1750 C1735 0.961 . S
H1751 C1735 0.961 . S
H1752 C1736 0.931 . S
H1753 C1741 0.930 . S
H1754 C1742 0.956 . S
H1755 C1742 0.961 . S
H1756 C1742 0.961 . S
H1757 C1743 0.958 . S
H1758 C1743 0.961 . S
H1759 C1743 0.960 . S
C1760 C1761 1.391 . S
C1760 C1762 1.394 . S
C1760 H1776 0.931 . S
C1761 C1760 1.391 . S
C1761 C1765 1.376 . S
C1762 C1760 1.394 . S
C1762 C1763 1.369 . S
C1762 C1766 1.531 . S
C1763 C1762 1.369 . S
C1763 C1764 1.410 . S
C1763 C1771 1.503 . S
C1764 C1763 1.410 . S
C1764 C1765 1.392 . S
C1764 C1767 1.511 . S
C1765 C1761 1.376 . S
C1765 C1764 1.392 . S
C1765 H1777 0.929 . S
C1766 C1762 1.531 . S
C1766 H1778 0.960 . S
C1766 H1779 0.962 . S
C1766 H1780 0.960 . S
C1767 C1764 1.511 . S
C1767 H1781 0.961 . S
C1767 H1782 0.961 . S
C1767 H1783 0.961 . S
C1768 C1769 1.370 . S
C1768 C1770 1.363 . S
C1768 H1784 0.931 . S
C1769 C1768 1.370 . S
C1769 C1773 1.408 . S
C1770 C1768 1.363 . S
C1770 C1771 1.370 . S
C1770 C1774 1.524 . S
C1771 C1763 1.503 . S
C1771 C1770 1.370 . S
C1771 C1772 1.403 . S
C1772 C1771 1.403 . S
C1772 C1773 1.404 . S
C1772 C1775 1.539 . S
C1773 C1769 1.408 . S
C1773 C1772 1.404 . S
C1773 H1785 0.930 . S
C1774 C1770 1.524 . S
C1774 H1786 0.956 . S
C1774 H1787 0.961 . S
C1774 H1788 0.961 . S
C1775 C1772 1.539 . S
C1775 H1789 0.958 . S
C1775 H1790 0.961 . S
C1775 H1791 0.960 . S
H1776 C1760 0.931 . S
H1777 C1765 0.929 . S
H1778 C1766 0.960 . S
H1779 C1766 0.962 . S
H1780 C1766 0.960 . S
H1781 C1767 0.961 . S
H1782 C1767 0.961 . S
H1783 C1767 0.961 . S
H1784 C1768 0.931 . S
H1785 C1773 0.930 . S
H1786 C1774 0.956 . S
H1787 C1774 0.961 . S
H1788 C1774 0.961 . S
H1789 C1775 0.958 . S
H1790 C1775 0.961 . S
H1791 C1775 0.960 . S
C1792 C1793 1.391 . S
C1792 C1794 1.394 . S
C1792 H1808 0.931 . S
C1793 C1792 1.391 . S
C1793 C1797 1.376 . S
C1794 C1792 1.394 . S
C1794 C1795 1.369 . S
C1794 C1798 1.531 . S
C1795 C1794 1.369 . S
C1795 C1796 1.410 . S
C1795 C1803 1.503 . S
C1796 C1795 1.410 . S
C1796 C1797 1.392 . S
C1796 C1799 1.511 . S
C1797 C1793 1.376 . S
C1797 C1796 1.392 . S
C1797 H1809 0.929 . S
C1798 C1794 1.531 . S
C1798 H1810 0.960 . S
C1798 H1811 0.962 . S
C1798 H1812 0.960 . S
C1799 C1796 1.511 . S
C1799 H1813 0.961 . S
C1799 H1814 0.961 . S
C1799 H1815 0.961 . S
C1800 C1801 1.370 . S
C1800 C1802 1.363 . S
C1800 H1816 0.931 . S
C1801 C1800 1.370 . S
C1801 C1805 1.408 . S
C1802 C1800 1.363 . S
C1802 C1803 1.370 . S
C1802 C1806 1.524 . S
C1803 C1795 1.503 . S
C1803 C1802 1.370 . S
C1803 C1804 1.403 . S
C1804 C1803 1.403 . S
C1804 C1805 1.404 . S
C1804 C1807 1.539 . S
C1805 C1801 1.408 . S
C1805 C1804 1.404 . S
C1805 H1817 0.930 . S
C1806 C1802 1.524 . S
C1806 H1818 0.956 . S
C1806 H1819 0.961 . S
C1806 H1820 0.961 . S
C1807 C1804 1.539 . S
C1807 H1821 0.958 . S
C1807 H1822 0.961 . S
C1807 H1823 0.960 . S
H1808 C1792 0.931 . S
H1809 C1797 0.929 . S
H1810 C1798 0.960 . S
H1811 C1798 0.962 . S
H1812 C1798 0.960 . S
H1813 C1799 0.961 . S
H1814 C1799 0.961 . S
H1815 C1799 0.961 . S
H1816 C1800 0.931 . S
H1817 C1805 0.930 . S
H1818 C1806 0.956 . S
H1819 C1806 0.961 . S
H1820 C1806 0.961 . S
H1821 C1807 0.958 . S
H1822 C1807 0.961 . S
H1823 C1807 0.960 . S
C1824 C1825 1.391 . S
C1824 C1826 1.394 . S
C1824 H1840 0.931 . S
C1825 C1824 1.391 . S
C1825 C1829 1.376 . S
C1826 C1824 1.394 . S
C1826 C1827 1.369 . S
C1826 C1830 1.531 . S
C1827 C1826 1.369 . S
C1827 C1828 1.410 . S
C1827 C1835 1.503 1_455 S
C1828 C1827 1.410 . S
C1828 C1829 1.392 . S
C1828 C1831 1.511 1_455 S
C1829 C1825 1.376 . S
C1829 C1828 1.392 . S
C1829 H1841 0.929 . S
C1830 C1826 1.531 . S
C1830 H1842 0.960 . S
C1830 H1843 0.962 . S
C1830 H1844 0.960 . S
C1831 C1828 1.511 1_655 S
C1831 H1845 0.961 . S
C1831 H1846 0.961 . S
C1831 H1847 0.961 . S
C1832 C1833 1.370 . S
C1832 C1834 1.363 . S
C1832 H1848 0.931 . S
C1833 C1832 1.370 . S
C1833 C1837 1.408 . S
C1834 C1832 1.363 . S
C1834 C1835 1.370 . S
C1834 C1838 1.524 1_655 S
C1835 C1827 1.503 1_655 S
C1835 C1834 1.370 . S
C1835 C1836 1.403 . S
C1836 C1835 1.403 . S
C1836 C1837 1.404 . S
C1836 C1839 1.539 . S
C1837 C1833 1.408 . S
C1837 C1836 1.404 . S
C1837 H1849 0.930 . S
C1838 C1834 1.524 1_455 S
C1838 H1850 0.956 . S
C1838 H1851 0.961 . S
C1838 H1852 0.961 . S
C1839 C1836 1.539 . S
C1839 H1853 0.958 . S
C1839 H1854 0.961 . S
C1839 H1855 0.960 . S
H1840 C1824 0.931 . S
H1841 C1829 0.929 . S
H1842 C1830 0.960 . S
H1843 C1830 0.962 . S
H1844 C1830 0.960 . S
H1845 C1831 0.961 . S
H1846 C1831 0.961 . S
H1847 C1831 0.961 . S
H1848 C1832 0.931 . S
H1849 C1837 0.930 . S
H1850 C1838 0.956 . S
H1851 C1838 0.961 . S
H1852 C1838 0.961 . S
H1853 C1839 0.958 . S
H1854 C1839 0.961 . S
H1855 C1839 0.960 . S
C1856 C1857 1.391 . S
C1856 C1858 1.394 . S
C1856 H1872 0.931 . S
C1857 C1856 1.391 . S
C1857 C1861 1.376 . S
C1858 C1856 1.394 . S
C1858 C1859 1.369 . S
C1858 C1862 1.531 1_455 S
C1859 C1858 1.369 . S
C1859 C1860 1.410 . S
C1859 C1867 1.503 1_455 S
C1860 C1859 1.410 . S
C1860 C1861 1.392 . S
C1860 C1863 1.511 . S
C1861 C1857 1.376 . S
C1861 C1860 1.392 . S
C1861 H1873 0.929 . S
C1862 C1858 1.531 1_655 S
C1862 H1874 0.960 . S
C1862 H1875 0.962 . S
C1862 H1876 0.960 . S
C1863 C1860 1.511 . S
C1863 H1877 0.961 . S
C1863 H1878 0.961 . S
C1863 H1879 0.961 . S
C1864 C1865 1.370 . S
C1864 C1866 1.363 . S
C1864 H1880 0.931 . S
C1865 C1864 1.370 . S
C1865 C1869 1.408 . S
C1866 C1864 1.363 . S
C1866 C1867 1.370 . S
C1866 C1870 1.524 . S
C1867 C1859 1.503 1_655 S
C1867 C1866 1.370 . S
C1867 C1868 1.403 . S
C1868 C1867 1.403 . S
C1868 C1869 1.404 . S
C1868 C1871 1.539 1_655 S
C1869 C1865 1.408 . S
C1869 C1868 1.404 . S
C1869 H1881 0.930 . S
C1870 C1866 1.524 . S
C1870 H1882 0.956 . S
C1870 H1883 0.961 . S
C1870 H1884 0.961 . S
C1871 C1868 1.539 1_455 S
C1871 H1885 0.958 . S
C1871 H1886 0.961 . S
C1871 H1887 0.960 . S
H1872 C1856 0.931 . S
H1873 C1861 0.929 . S
H1874 C1862 0.960 . S
H1875 C1862 0.962 . S
H1876 C1862 0.960 . S
H1877 C1863 0.961 . S
H1878 C1863 0.961 . S
H1879 C1863 0.961 . S
H1880 C1864 0.931 . S
H1881 C1869 0.930 . S
H1882 C1870 0.956 . S
H1883 C1870 0.961 . S
H1884 C1870 0.961 . S
H1885 C1871 0.958 . S
H1886 C1871 0.961 . S
H1887 C1871 0.960 . S
C1888 C1889 1.391 . S
C1888 C1890 1.394 . S
C1888 H1904 0.931 . S
C1889 C1888 1.391 . S
C1889 C1893 1.376 . S
C1890 C1888 1.394 . S
C1890 C1891 1.369 . S
C1890 C1894 1.531 1_655 S
C1891 C1890 1.369 . S
C1891 C1892 1.410 . S
C1891 C1899 1.503 1_655 S
C1892 C1891 1.410 . S
C1892 C1893 1.392 . S
C1892 C1895 1.511 . S
C1893 C1889 1.376 . S
C1893 C1892 1.392 . S
C1893 H1905 0.929 . S
C1894 C1890 1.531 1_455 S
C1894 H1906 0.960 . S
C1894 H1907 0.962 . S
C1894 H1908 0.960 . S
C1895 C1892 1.511 . S
C1895 H1909 0.961 . S
C1895 H1910 0.961 . S
C1895 H1911 0.961 . S
C1896 C1897 1.370 . S
C1896 C1898 1.363 . S
C1896 H1912 0.931 . S
C1897 C1896 1.370 . S
C1897 C1901 1.408 . S
C1898 C1896 1.363 . S
C1898 C1899 1.370 . S
C1898 C1902 1.524 . S
C1899 C1891 1.503 1_455 S
C1899 C1898 1.370 . S
C1899 C1900 1.403 . S
C1900 C1899 1.403 . S
C1900 C1901 1.404 . S
C1900 C1903 1.539 . S
C1901 C1897 1.408 . S
C1901 C1900 1.404 . S
C1901 H1913 0.930 . S
C1902 C1898 1.524 . S
C1902 H1914 0.956 . S
C1902 H1915 0.961 1_455 S
C1902 H1916 0.961 . S
C1903 C1900 1.539 . S
C1903 H1917 0.958 . S
C1903 H1918 0.961 . S
C1903 H1919 0.960 1_455 S
H1904 C1888 0.931 . S
H1905 C1893 0.929 . S
H1906 C1894 0.960 . S
H1907 C1894 0.962 . S
H1908 C1894 0.960 . S
H1909 C1895 0.961 . S
H1910 C1895 0.961 . S
H1911 C1895 0.961 . S
H1912 C1896 0.931 . S
H1913 C1901 0.930 . S
H1914 C1902 0.956 . S
H1915 C1902 0.961 1_655 S
H1916 C1902 0.961 . S
H1917 C1903 0.958 . S
H1918 C1903 0.961 . S
H1919 C1903 0.960 1_655 S
C1920 C1921 1.391 . S
C1920 C1922 1.394 . S
C1920 H1936 0.931 . S
C1921 C1920 1.391 . S
C1921 C1925 1.376 . S
C1922 C1920 1.394 . S
C1922 C1923 1.369 . S
C1922 C1926 1.531 . S
C1923 C1922 1.369 . S
C1923 C1924 1.410 . S
C1923 C1931 1.503 . S
C1924 C1923 1.410 . S
C1924 C1925 1.392 . S
C1924 C1927 1.511 . S
C1925 C1921 1.376 . S
C1925 C1924 1.392 . S
C1925 H1937 0.929 . S
C1926 C1922 1.531 . S
C1926 H1938 0.960 . S
C1926 H1939 0.962 . S
C1926 H1940 0.960 . S
C1927 C1924 1.511 . S
C1927 H1941 0.961 . S
C1927 H1942 0.961 . S
C1927 H1943 0.961 . S
C1928 C1929 1.370 . S
C1928 C1930 1.363 . S
C1928 H1944 0.931 . S
C1929 C1928 1.370 . S
C1929 C1933 1.408 . S
C1930 C1928 1.363 . S
C1930 C1931 1.370 . S
C1930 C1934 1.524 . S
C1931 C1923 1.503 . S
C1931 C1930 1.370 . S
C1931 C1932 1.403 . S
C1932 C1931 1.403 . S
C1932 C1933 1.404 . S
C1932 C1935 1.539 . S
C1933 C1929 1.408 . S
C1933 C1932 1.404 . S
C1933 H1945 0.930 . S
C1934 C1930 1.524 . S
C1934 H1946 0.956 . S
C1934 H1947 0.961 . S
C1934 H1948 0.961 . S
C1935 C1932 1.539 . S
C1935 H1949 0.958 . S
C1935 H1950 0.961 . S
C1935 H1951 0.960 . S
H1936 C1920 0.931 . S
H1937 C1925 0.929 . S
H1938 C1926 0.960 . S
H1939 C1926 0.962 . S
H1940 C1926 0.960 . S
H1941 C1927 0.961 . S
H1942 C1927 0.961 . S
H1943 C1927 0.961 . S
H1944 C1928 0.931 . S
H1945 C1933 0.930 . S
H1946 C1934 0.956 . S
H1947 C1934 0.961 . S
H1948 C1934 0.961 . S
H1949 C1935 0.958 . S
H1950 C1935 0.961 . S
H1951 C1935 0.960 . S
C1952 C1953 1.391 . S
C1952 C1954 1.394 . S
C1952 H1968 0.931 . S
C1953 C1952 1.391 . S
C1953 C1957 1.376 . S
C1954 C1952 1.394 . S
C1954 C1955 1.369 . S
C1954 C1958 1.531 . S
C1955 C1954 1.369 . S
C1955 C1956 1.410 . S
C1955 C1963 1.503 . S
C1956 C1955 1.410 . S
C1956 C1957 1.392 . S
C1956 C1959 1.511 . S
C1957 C1953 1.376 . S
C1957 C1956 1.392 . S
C1957 H1969 0.929 . S
C1958 C1954 1.531 . S
C1958 H1970 0.960 . S
C1958 H1971 0.962 . S
C1958 H1972 0.960 . S
C1959 C1956 1.511 . S
C1959 H1973 0.961 . S
C1959 H1974 0.961 . S
C1959 H1975 0.961 . S
C1960 C1961 1.370 . S
C1960 C1962 1.363 . S
C1960 H1976 0.931 . S
C1961 C1960 1.370 . S
C1961 C1965 1.408 . S
C1962 C1960 1.363 . S
C1962 C1963 1.370 . S
C1962 C1966 1.524 . S
C1963 C1955 1.503 . S
C1963 C1962 1.370 . S
C1963 C1964 1.403 . S
C1964 C1963 1.403 . S
C1964 C1965 1.404 . S
C1964 C1967 1.539 . S
C1965 C1961 1.408 . S
C1965 C1964 1.404 . S
C1965 H1977 0.930 . S
C1966 C1962 1.524 . S
C1966 H1978 0.956 . S
C1966 H1979 0.961 . S
C1966 H1980 0.961 . S
C1967 C1964 1.539 . S
C1967 H1981 0.958 . S
C1967 H1982 0.961 . S
C1967 H1983 0.960 . S
H1968 C1952 0.931 . S
H1969 C1957 0.929 . S
H1970 C1958 0.960 . S
H1971 C1958 0.962 . S
H1972 C1958 0.960 . S
H1973 C1959 0.961 . S
H1974 C1959 0.961 . S
H1975 C1959 0.961 . S
H1976 C1960 0.931 . S
H1977 C1965 0.930 . S
H1978 C1966 0.956 . S
H1979 C1966 0.961 . S
H1980 C1966 0.961 . S
H1981 C1967 0.958 . S
H1982 C1967 0.961 . S
H1983 C1967 0.960 . S
C1984 C1985 1.391 . S
C1984 C1986 1.394 . S
C1984 H2000 0.931 . S
C1985 C1984 1.391 . S
C1985 C1989 1.376 . S
C1986 C1984 1.394 . S
C1986 C1987 1.369 . S
C1986 C1990 1.531 . S
C1987 C1986 1.369 . S
C1987 C1988 1.410 . S
C1987 C1995 1.503 1_655 S
C1988 C1987 1.410 . S
C1988 C1989 1.392 . S
C1988 C1991 1.511 1_655 S
C1989 C1985 1.376 . S
C1989 C1988 1.392 . S
C1989 H2001 0.929 . S
C1990 C1986 1.531 . S
C1990 H2002 0.960 . S
C1990 H2003 0.962 . S
C1990 H2004 0.960 . S
C1991 C1988 1.511 1_455 S
C1991 H2005 0.961 . S
C1991 H2006 0.961 . S
C1991 H2007 0.961 . S
C1992 C1993 1.370 . S
C1992 C1994 1.363 . S
C1992 H2008 0.931 . S
C1993 C1992 1.370 . S
C1993 C1997 1.408 . S
C1994 C1992 1.363 . S
C1994 C1995 1.370 . S
C1994 C1998 1.524 1_455 S
C1995 C1987 1.503 1_455 S
C1995 C1994 1.370 . S
C1995 C1996 1.403 . S
C1996 C1995 1.403 . S
C1996 C1997 1.404 . S
C1996 C1999 1.539 . S
C1997 C1993 1.408 . S
C1997 C1996 1.404 . S
C1997 H2009 0.930 . S
C1998 C1994 1.524 1_655 S
C1998 H2010 0.956 . S
C1998 H2011 0.961 . S
C1998 H2012 0.961 . S
C1999 C1996 1.539 . S
C1999 H2013 0.958 . S
C1999 H2014 0.961 . S
C1999 H2015 0.960 . S
H2000 C1984 0.931 . S
H2001 C1989 0.929 . S
H2002 C1990 0.960 . S
H2003 C1990 0.962 . S
H2004 C1990 0.960 . S
H2005 C1991 0.961 . S
H2006 C1991 0.961 . S
H2007 C1991 0.961 . S
H2008 C1992 0.931 . S
H2009 C1997 0.930 . S
H2010 C1998 0.956 . S
H2011 C1998 0.961 . S
H2012 C1998 0.961 . S
H2013 C1999 0.958 . S
H2014 C1999 0.961 . S
H2015 C1999 0.960 . S
C2016 C2017 1.391 . S
C2016 C2018 1.394 . S
C2016 H2032 0.931 . S
C2017 C2016 1.391 . S
C2017 C2021 1.376 . S
C2018 C2016 1.394 . S
C2018 C2019 1.369 . S
C2018 C2022 1.531 . S
C2019 C2018 1.369 . S
C2019 C2020 1.410 . S
C2019 C2027 1.503 . S
C2020 C2019 1.410 . S
C2020 C2021 1.392 . S
C2020 C2023 1.511 . S
C2021 C2017 1.376 . S
C2021 C2020 1.392 . S
C2021 H2033 0.929 . S
C2022 C2018 1.531 . S
C2022 H2034 0.960 . S
C2022 H2035 0.962 . S
C2022 H2036 0.960 . S
C2023 C2020 1.511 . S
C2023 H2037 0.961 . S
C2023 H2038 0.961 . S
C2023 H2039 0.961 . S
C2024 C2025 1.370 . S
C2024 C2026 1.363 . S
C2024 H2040 0.931 . S
C2025 C2024 1.370 . S
C2025 C2029 1.408 . S
C2026 C2024 1.363 . S
C2026 C2027 1.370 . S
C2026 C2030 1.524 . S
C2027 C2019 1.503 . S
C2027 C2026 1.370 . S
C2027 C2028 1.403 . S
C2028 C2027 1.403 . S
C2028 C2029 1.404 . S
C2028 C2031 1.539 . S
C2029 C2025 1.408 . S
C2029 C2028 1.404 . S
C2029 H2041 0.930 . S
C2030 C2026 1.524 . S
C2030 H2042 0.956 . S
C2030 H2043 0.961 . S
C2030 H2044 0.961 . S
C2031 C2028 1.539 . S
C2031 H2045 0.958 . S
C2031 H2046 0.961 . S
C2031 H2047 0.960 . S
H2032 C2016 0.931 . S
H2033 C2021 0.929 . S
H2034 C2022 0.960 . S
H2035 C2022 0.962 . S
H2036 C2022 0.960 . S
H2037 C2023 0.961 . S
H2038 C2023 0.961 . S
H2039 C2023 0.961 . S
H2040 C2024 0.931 . S
H2041 C2029 0.930 . S
H2042 C2030 0.956 . S
H2043 C2030 0.961 . S
H2044 C2030 0.961 . S
H2045 C2031 0.958 . S
H2046 C2031 0.961 . S
H2047 C2031 0.960 . S
C2048 C2049 1.391 . S
C2048 C2050 1.394 . S
C2048 H2064 0.931 . S
C2049 C2048 1.391 . S
C2049 C2053 1.376 . S
C2050 C2048 1.394 . S
C2050 C2051 1.369 . S
C2050 C2054 1.531 . S
C2051 C2050 1.369 . S
C2051 C2052 1.410 . S
C2051 C2059 1.503 . S
C2052 C2051 1.410 . S
C2052 C2053 1.392 . S
C2052 C2055 1.511 . S
C2053 C2049 1.376 . S
C2053 C2052 1.392 . S
C2053 H2065 0.929 . S
C2054 C2050 1.531 . S
C2054 H2066 0.960 . S
C2054 H2067 0.962 . S
C2054 H2068 0.960 . S
C2055 C2052 1.511 . S
C2055 H2069 0.961 . S
C2055 H2070 0.961 . S
C2055 H2071 0.961 . S
C2056 C2057 1.370 . S
C2056 C2058 1.363 . S
C2056 H2072 0.931 . S
C2057 C2056 1.370 . S
C2057 C2061 1.408 . S
C2058 C2056 1.363 . S
C2058 C2059 1.370 . S
C2058 C2062 1.524 . S
C2059 C2051 1.503 . S
C2059 C2058 1.370 . S
C2059 C2060 1.403 . S
C2060 C2059 1.403 . S
C2060 C2061 1.404 . S
C2060 C2063 1.539 . S
C2061 C2057 1.408 . S
C2061 C2060 1.404 . S
C2061 H2073 0.930 . S
C2062 C2058 1.524 . S
C2062 H2074 0.956 . S
C2062 H2075 0.961 . S
C2062 H2076 0.961 . S
C2063 C2060 1.539 . S
C2063 H2077 0.958 . S
C2063 H2078 0.961 . S
C2063 H2079 0.960 . S
H2064 C2048 0.931 . S
H2065 C2053 0.929 . S
H2066 C2054 0.960 . S
H2067 C2054 0.962 . S
H2068 C2054 0.960 . S
H2069 C2055 0.961 . S
H2070 C2055 0.961 . S
H2071 C2055 0.961 . S
H2072 C2056 0.931 . S
H2073 C2061 0.930 . S
H2074 C2062 0.956 . S
H2075 C2062 0.961 . S
H2076 C2062 0.961 . S
H2077 C2063 0.958 . S
H2078 C2063 0.961 . S
H2079 C2063 0.960 . S
C2080 C2081 1.391 . S
C2080 C2082 1.394 . S
C2080 H2096 0.931 . S
C2081 C2080 1.391 . S
C2081 C2085 1.376 . S
C2082 C2080 1.394 . S
C2082 C2083 1.369 . S
C2082 C2086 1.531 . S
C2083 C2082 1.369 . S
C2083 C2084 1.410 . S
C2083 C2091 1.503 1_655 S
C2084 C2083 1.410 . S
C2084 C2085 1.392 . S
C2084 C2087 1.511 1_655 S
C2085 C2081 1.376 . S
C2085 C2084 1.392 . S
C2085 H2097 0.929 . S
C2086 C2082 1.531 . S
C2086 H2098 0.960 . S
C2086 H2099 0.962 . S
C2086 H2100 0.960 . S
C2087 C2084 1.511 1_455 S
C2087 H2101 0.961 . S
C2087 H2102 0.961 . S
C2087 H2103 0.961 . S
C2088 C2089 1.370 . S
C2088 C2090 1.363 . S
C2088 H2104 0.931 . S
C2089 C2088 1.370 . S
C2089 C2093 1.408 . S
C2090 C2088 1.363 . S
C2090 C2091 1.370 . S
C2090 C2094 1.524 1_455 S
C2091 C2083 1.503 1_455 S
C2091 C2090 1.370 . S
C2091 C2092 1.403 . S
C2092 C2091 1.403 . S
C2092 C2093 1.404 . S
C2092 C2095 1.539 . S
C2093 C2089 1.408 . S
C2093 C2092 1.404 . S
C2093 H2105 0.930 . S
C2094 C2090 1.524 1_655 S
C2094 H2106 0.956 . S
C2094 H2107 0.961 . S
C2094 H2108 0.961 1_655 S
C2095 C2092 1.539 . S
C2095 H2109 0.958 . S
C2095 H2110 0.961 . S
C2095 H2111 0.960 . S
H2096 C2080 0.931 . S
H2097 C2085 0.929 . S
H2098 C2086 0.960 . S
H2099 C2086 0.962 . S
H2100 C2086 0.960 . S
H2101 C2087 0.961 . S
H2102 C2087 0.961 . S
H2103 C2087 0.961 . S
H2104 C2088 0.931 . S
H2105 C2093 0.930 . S
H2106 C2094 0.956 . S
H2107 C2094 0.961 . S
H2108 C2094 0.961 1_455 S
H2109 C2095 0.958 . S
H2110 C2095 0.961 . S
H2111 C2095 0.960 . S
C2112 C2113 1.391 . S
C2112 C2114 1.394 . S
C2112 H2128 0.931 1_545 S
C2113 C2112 1.391 . S
C2113 C2117 1.376 . S
C2114 C2112 1.394 . S
C2114 C2115 1.369 . S
C2114 C2118 1.531 1_545 S
C2115 C2114 1.369 . S
C2115 C2116 1.410 . S
C2115 C2123 1.503 . S
C2116 C2115 1.410 . S
C2116 C2117 1.392 . S
C2116 C2119 1.511 . S
C2117 C2113 1.376 . S
C2117 C2116 1.392 . S
C2117 H2129 0.929 . S
C2118 C2114 1.531 1_565 S
C2118 H2130 0.960 . S
C2118 H2131 0.962 . S
C2118 H2132 0.960 . S
C2119 C2116 1.511 . S
C2119 H2133 0.961 . S
C2119 H2134 0.961 . S
C2119 H2135 0.961 . S
C2120 C2121 1.370 . S
C2120 C2122 1.363 . S
C2120 H2136 0.931 . S
C2121 C2120 1.370 . S
C2121 C2125 1.408 1_565 S
C2122 C2120 1.363 . S
C2122 C2123 1.370 1_565 S
C2122 C2126 1.524 . S
C2123 C2115 1.503 . S
C2123 C2122 1.370 1_545 S
C2123 C2124 1.403 . S
C2124 C2123 1.403 . S
C2124 C2125 1.404 . S
C2124 C2127 1.539 . S
C2125 C2121 1.408 1_545 S
C2125 C2124 1.404 . S
C2125 H2137 0.930 . S
C2126 C2122 1.524 . S
C2126 H2138 0.956 . S
C2126 H2139 0.961 . S
C2126 H2140 0.961 . S
C2127 C2124 1.539 . S
C2127 H2141 0.958 . S
C2127 H2142 0.961 . S
C2127 H2143 0.960 . S
H2128 C2112 0.931 1_565 S
H2129 C2117 0.929 . S
H2130 C2118 0.960 . S
H2131 C2118 0.962 . S
H2132 C2118 0.960 . S
H2133 C2119 0.961 . S
H2134 C2119 0.961 . S
H2135 C2119 0.961 . S
H2136 C2120 0.931 . S
H2137 C2125 0.930 . S
H2138 C2126 0.956 . S
H2139 C2126 0.961 . S
H2140 C2126 0.961 . S
H2141 C2127 0.958 . S
H2142 C2127 0.961 . S
H2143 C2127 0.960 . S
C2144 C2145 1.391 . S
C2144 C2146 1.394 . S
C2144 H2160 0.931 . S
C2145 C2144 1.391 . S
C2145 C2149 1.376 . S
C2146 C2144 1.394 . S
C2146 C2147 1.369 . S
C2146 C2150 1.531 . S
C2147 C2146 1.369 . S
C2147 C2148 1.410 . S
C2147 C2155 1.503 . S
C2148 C2147 1.410 . S
C2148 C2149 1.392 . S
C2148 C2151 1.511 . S
C2149 C2145 1.376 . S
C2149 C2148 1.392 . S
C2149 H2161 0.929 . S
C2150 C2146 1.531 . S
C2150 H2162 0.960 . S
C2150 H2163 0.962 . S
C2150 H2164 0.960 . S
C2151 C2148 1.511 . S
C2151 H2165 0.961 . S
C2151 H2166 0.961 . S
C2151 H2167 0.961 . S
C2152 C2153 1.370 . S
C2152 C2154 1.363 . S
C2152 H2168 0.931 . S
C2153 C2152 1.370 . S
C2153 C2157 1.408 . S
C2154 C2152 1.363 . S
C2154 C2155 1.370 . S
C2154 C2158 1.524 . S
C2155 C2147 1.503 . S
C2155 C2154 1.370 . S
C2155 C2156 1.403 . S
C2156 C2155 1.403 . S
C2156 C2157 1.404 . S
C2156 C2159 1.539 . S
C2157 C2153 1.408 . S
C2157 C2156 1.404 . S
C2157 H2169 0.930 . S
C2158 C2154 1.524 . S
C2158 H2170 0.956 . S
C2158 H2171 0.961 . S
C2158 H2172 0.961 . S
C2159 C2156 1.539 . S
C2159 H2173 0.958 . S
C2159 H2174 0.961 . S
C2159 H2175 0.960 . S
H2160 C2144 0.931 . S
H2161 C2149 0.929 . S
H2162 C2150 0.960 . S
H2163 C2150 0.962 . S
H2164 C2150 0.960 . S
H2165 C2151 0.961 . S
H2166 C2151 0.961 . S
H2167 C2151 0.961 . S
H2168 C2152 0.931 . S
H2169 C2157 0.930 . S
H2170 C2158 0.956 . S
H2171 C2158 0.961 . S
H2172 C2158 0.961 . S
H2173 C2159 0.958 . S
H2174 C2159 0.961 . S
H2175 C2159 0.960 . S
C2176 C2177 1.391 1_565 S
C2176 C2178 1.394 . S
C2176 H2192 0.931 1_455 S
C2177 C2176 1.391 1_545 S
C2177 C2181 1.376 . S
C2178 C2176 1.394 . S
C2178 C2179 1.369 . S
C2178 C2182 1.531 . S
C2179 C2178 1.369 . S
C2179 C2180 1.410 1_565 S
C2179 C2187 1.503 . S
C2180 C2179 1.410 1_545 S
C2180 C2181 1.392 . S
C2180 C2183 1.511 . S
C2181 C2177 1.376 . S
C2181 C2180 1.392 . S
C2181 H2193 0.929 . S
C2182 C2178 1.531 . S
C2182 H2194 0.960 . S
C2182 H2195 0.962 . S
C2182 H2196 0.960 . S
C2183 C2180 1.511 . S
C2183 H2197 0.961 . S
C2183 H2198 0.961 . S
C2183 H2199 0.961 . S
C2184 C2185 1.370 . S
C2184 C2186 1.363 . S
C2184 H2200 0.931 . S
C2185 C2184 1.370 . S
C2185 C2189 1.408 . S
C2186 C2184 1.363 . S
C2186 C2187 1.370 . S
C2186 C2190 1.524 1_565 S
C2187 C2179 1.503 . S
C2187 C2186 1.370 . S
C2187 C2188 1.403 . S
C2188 C2187 1.403 . S
C2188 C2189 1.404 . S
C2188 C2191 1.539 . S
C2189 C2185 1.408 . S
C2189 C2188 1.404 . S
C2189 H2201 0.930 . S
C2190 C2186 1.524 1_545 S
C2190 H2202 0.956 1_545 S
C2190 H2203 0.961 . S
C2190 H2204 0.961 . S
C2191 C2188 1.539 . S
C2191 H2205 0.958 . S
C2191 H2206 0.961 . S
C2191 H2207 0.960 . S
H2192 C2176 0.931 1_655 S
H2193 C2181 0.929 . S
H2194 C2182 0.960 . S
H2195 C2182 0.962 . S
H2196 C2182 0.960 . S
H2197 C2183 0.961 . S
H2198 C2183 0.961 . S
H2199 C2183 0.961 . S
H2200 C2184 0.931 . S
H2201 C2189 0.930 . S
H2202 C2190 0.956 1_565 S
H2203 C2190 0.961 . S
H2204 C2190 0.961 . S
H2205 C2191 0.958 . S
H2206 C2191 0.961 . S
H2207 C2191 0.960 . S
C2208 C2209 1.391 . S
C2208 C2210 1.394 . S
C2208 H2224 0.931 . S
C2209 C2208 1.391 . S
C2209 C2213 1.376 . S
C2210 C2208 1.394 . S
C2210 C2211 1.369 . S
C2210 C2214 1.531 . S
C2211 C2210 1.369 . S
C2211 C2212 1.410 . S
C2211 C2219 1.503 . S
C2212 C2211 1.410 . S
C2212 C2213 1.392 . S
C2212 C2215 1.511 . S
C2213 C2209 1.376 . S
C2213 C2212 1.392 . S
C2213 H2225 0.929 . S
C2214 C2210 1.531 . S
C2214 H2226 0.960 . S
C2214 H2227 0.962 . S
C2214 H2228 0.960 . S
C2215 C2212 1.511 . S
C2215 H2229 0.961 . S
C2215 H2230 0.961 . S
C2215 H2231 0.961 . S
C2216 C2217 1.370 . S
C2216 C2218 1.363 . S
C2216 H2232 0.931 . S
C2217 C2216 1.370 . S
C2217 C2221 1.408 . S
C2218 C2216 1.363 . S
C2218 C2219 1.370 . S
C2218 C2222 1.524 . S
C2219 C2211 1.503 . S
C2219 C2218 1.370 . S
C2219 C2220 1.403 . S
C2220 C2219 1.403 . S
C2220 C2221 1.404 . S
C2220 C2223 1.539 . S
C2221 C2217 1.408 . S
C2221 C2220 1.404 . S
C2221 H2233 0.930 . S
C2222 C2218 1.524 . S
C2222 H2234 0.956 . S
C2222 H2235 0.961 . S
C2222 H2236 0.961 . S
C2223 C2220 1.539 . S
C2223 H2237 0.958 . S
C2223 H2238 0.961 . S
C2223 H2239 0.960 . S
H2224 C2208 0.931 . S
H2225 C2213 0.929 . S
H2226 C2214 0.960 . S
H2227 C2214 0.962 . S
H2228 C2214 0.960 . S
H2229 C2215 0.961 . S
H2230 C2215 0.961 . S
H2231 C2215 0.961 . S
H2232 C2216 0.931 . S
H2233 C2221 0.930 . S
H2234 C2222 0.956 . S
H2235 C2222 0.961 . S
H2236 C2222 0.961 . S
H2237 C2223 0.958 . S
H2238 C2223 0.961 . S
H2239 C2223 0.960 . S
C2240 C2241 1.391 . S
C2240 C2242 1.394 . S
C2240 H2256 0.931 . S
C2241 C2240 1.391 . S
C2241 C2245 1.376 . S
C2242 C2240 1.394 . S
C2242 C2243 1.369 . S
C2242 C2246 1.531 . S
C2243 C2242 1.369 . S
C2243 C2244 1.410 . S
C2243 C2251 1.503 1_565 S
C2244 C2243 1.410 . S
C2244 C2245 1.392 . S
C2244 C2247 1.511 1_565 S
C2245 C2241 1.376 . S
C2245 C2244 1.392 . S
C2245 H2257 0.929 . S
C2246 C2242 1.531 . S
C2246 H2258 0.960 1_565 S
C2246 H2259 0.962 . S
C2246 H2260 0.960 . S
C2247 C2244 1.511 1_545 S
C2247 H2261 0.960 1_545 S
C2247 H2262 0.961 . S
C2247 H2263 0.961 . S
C2248 C2249 1.370 1_565 S
C2248 C2250 1.363 . S
C2248 H2264 0.931 . S
C2249 C2248 1.370 1_545 S
C2249 C2253 1.408 . S
C2250 C2248 1.363 . S
C2250 C2251 1.370 1_565 S
C2250 C2254 1.524 . S
C2251 C2243 1.503 1_545 S
C2251 C2250 1.370 1_545 S
C2251 C2252 1.403 . S
C2252 C2251 1.403 . S
C2252 C2253 1.404 . S
C2252 C2255 1.539 . S
C2253 C2249 1.408 . S
C2253 C2252 1.404 . S
C2253 H2265 0.930 . S
C2254 C2250 1.524 . S
C2254 H2266 0.956 . S
C2254 H2267 0.961 . S
C2254 H2268 0.961 . S
C2255 C2252 1.539 . S
C2255 H2269 0.958 . S
C2255 H2270 0.961 . S
C2255 H2271 0.960 . S
H2256 C2240 0.931 . S
H2257 C2245 0.929 . S
H2258 C2246 0.960 1_545 S
H2259 C2246 0.962 . S
H2260 C2246 0.960 . S
H2261 C2247 0.960 1_565 S
H2262 C2247 0.961 . S
H2263 C2247 0.961 . S
H2264 C2248 0.931 . S
H2265 C2253 0.930 . S
H2266 C2254 0.956 . S
H2267 C2254 0.961 . S
H2268 C2254 0.961 . S
H2269 C2255 0.958 . S
H2270 C2255 0.961 . S
H2271 C2255 0.960 . S
C2272 C2273 1.391 . S
C2272 C2274 1.394 . S
C2272 H2288 0.931 . S
C2273 C2272 1.391 . S
C2273 C2277 1.376 . S
C2274 C2272 1.394 . S
C2274 C2275 1.369 . S
C2274 C2278 1.531 . S
C2275 C2274 1.369 . S
C2275 C2276 1.410 . S
C2275 C2283 1.503 . S
C2276 C2275 1.410 . S
C2276 C2277 1.392 . S
C2276 C2279 1.511 . S
C2277 C2273 1.376 . S
C2277 C2276 1.392 . S
C2277 H2289 0.929 . S
C2278 C2274 1.531 . S
C2278 H2290 0.960 . S
C2278 H2291 0.962 . S
C2278 H2292 0.960 . S
C2279 C2276 1.511 . S
C2279 H2293 0.961 . S
C2279 H2294 0.961 . S
C2279 H2295 0.961 . S
C2280 C2281 1.370 . S
C2280 C2282 1.363 . S
C2280 H2296 0.931 . S
C2281 C2280 1.370 . S
C2281 C2285 1.408 . S
C2282 C2280 1.363 . S
C2282 C2283 1.370 . S
C2282 C2286 1.524 . S
C2283 C2275 1.503 . S
C2283 C2282 1.370 . S
C2283 C2284 1.403 . S
C2284 C2283 1.403 . S
C2284 C2285 1.404 . S
C2284 C2287 1.539 . S
C2285 C2281 1.408 . S
C2285 C2284 1.404 . S
C2285 H2297 0.930 . S
C2286 C2282 1.524 . S
C2286 H2298 0.956 . S
C2286 H2299 0.961 . S
C2286 H2300 0.961 . S
C2287 C2284 1.539 . S
C2287 H2301 0.958 . S
C2287 H2302 0.961 . S
C2287 H2303 0.960 . S
H2288 C2272 0.931 . S
H2289 C2277 0.929 . S
H2290 C2278 0.960 . S
H2291 C2278 0.962 . S
H2292 C2278 0.960 . S
H2293 C2279 0.961 . S
H2294 C2279 0.961 . S
H2295 C2279 0.961 . S
H2296 C2280 0.931 . S
H2297 C2285 0.930 . S
H2298 C2286 0.956 . S
H2299 C2286 0.961 . S
H2300 C2286 0.961 . S
H2301 C2287 0.958 . S
H2302 C2287 0.961 . S
H2303 C2287 0.960 . S
C2304 C2305 1.391 1_565 S
C2304 C2306 1.394 . S
C2304 H2320 0.931 . S
C2305 C2304 1.391 1_545 S
C2305 C2309 1.376 . S
C2306 C2304 1.394 . S
C2306 C2307 1.369 1_565 S
C2306 C2310 1.531 . S
C2307 C2306 1.369 1_545 S
C2307 C2308 1.410 . S
C2307 C2315 1.503 . S
C2308 C2307 1.410 . S
C2308 C2309 1.392 . S
C2308 C2311 1.511 . S
C2309 C2305 1.376 . S
C2309 C2308 1.392 . S
C2309 H2321 0.929 . S
C2310 C2306 1.531 . S
C2310 H2322 0.960 . S
C2310 H2323 0.962 . S
C2310 H2324 0.960 . S
C2311 C2308 1.511 . S
C2311 H2325 0.961 . S
C2311 H2326 0.961 . S
C2311 H2327 0.961 . S
C2312 C2313 1.370 . S
C2312 C2314 1.363 . S
C2312 H2328 0.931 . S
C2313 C2312 1.370 . S
C2313 C2317 1.408 . S
C2314 C2312 1.363 . S
C2314 C2315 1.370 1_565 S
C2314 C2318 1.524 1_565 S
C2315 C2307 1.503 . S
C2315 C2314 1.370 1_545 S
C2315 C2316 1.403 . S
C2316 C2315 1.403 . S
C2316 C2317 1.404 1_545 S
C2316 C2319 1.539 . S
C2317 C2313 1.408 . S
C2317 C2316 1.404 1_565 S
C2317 H2329 0.930 . S
C2318 C2314 1.524 1_545 S
C2318 H2330 0.950 1_545 S
C2318 H2331 0.968 . S
C2318 H2332 0.960 1_545 S
C2319 C2316 1.539 . S
C2319 H2333 0.958 1_545 S
C2319 H2334 0.961 . S
C2319 H2335 0.960 . S
H2320 C2304 0.931 . S
H2321 C2309 0.929 . S
H2322 C2310 0.960 . S
H2323 C2310 0.962 . S
H2324 C2310 0.960 . S
H2325 C2311 0.961 . S
H2326 C2311 0.961 . S
H2327 C2311 0.961 . S
H2328 C2312 0.931 . S
H2329 C2317 0.930 . S
H2330 C2318 0.950 1_565 S
H2331 C2318 0.968 . S
H2332 C2318 0.960 1_565 S
H2333 C2319 0.958 1_565 S
H2334 C2319 0.961 . S
H2335 C2319 0.960 . S
C2336 C2337 1.391 . S
C2336 C2338 1.394 . S
C2336 H2352 0.931 . S
C2337 C2336 1.391 . S
C2337 C2341 1.376 . S
C2338 C2336 1.394 . S
C2338 C2339 1.369 . S
C2338 C2342 1.531 . S
C2339 C2338 1.369 . S
C2339 C2340 1.410 . S
C2339 C2347 1.503 . S
C2340 C2339 1.410 . S
C2340 C2341 1.392 . S
C2340 C2343 1.511 . S
C2341 C2337 1.376 . S
C2341 C2340 1.392 . S
C2341 H2353 0.929 . S
C2342 C2338 1.531 . S
C2342 H2354 0.960 . S
C2342 H2355 0.962 . S
C2342 H2356 0.960 . S
C2343 C2340 1.511 . S
C2343 H2357 0.961 . S
C2343 H2358 0.961 . S
C2343 H2359 0.961 . S
C2344 C2345 1.370 . S
C2344 C2346 1.363 . S
C2344 H2360 0.931 . S
C2345 C2344 1.370 . S
C2345 C2349 1.408 . S
C2346 C2344 1.363 . S
C2346 C2347 1.370 . S
C2346 C2350 1.524 . S
C2347 C2339 1.503 . S
C2347 C2346 1.370 . S
C2347 C2348 1.403 . S
C2348 C2347 1.403 . S
C2348 C2349 1.404 . S
C2348 C2351 1.539 . S
C2349 C2345 1.408 . S
C2349 C2348 1.404 . S
C2349 H2361 0.930 . S
C2350 C2346 1.524 . S
C2350 H2362 0.956 . S
C2350 H2363 0.961 . S
C2350 H2364 0.961 . S
C2351 C2348 1.539 . S
C2351 H2365 0.958 . S
C2351 H2366 0.961 . S
C2351 H2367 0.960 . S
H2352 C2336 0.931 . S
H2353 C2341 0.929 . S
H2354 C2342 0.960 . S
H2355 C2342 0.962 . S
H2356 C2342 0.960 . S
H2357 C2343 0.961 . S
H2358 C2343 0.961 . S
H2359 C2343 0.961 . S
H2360 C2344 0.931 . S
H2361 C2349 0.930 . S
H2362 C2350 0.956 . S
H2363 C2350 0.961 . S
H2364 C2350 0.961 . S
H2365 C2351 0.958 . S
H2366 C2351 0.961 . S
H2367 C2351 0.960 . S
C2368 C2369 1.391 . S
C2368 C2370 1.394 . S
C2368 H2384 0.931 . S
C2369 C2368 1.391 . S
C2369 C2373 1.376 1_545 S
C2370 C2368 1.394 . S
C2370 C2371 1.369 1_545 S
C2370 C2374 1.531 . S
C2371 C2370 1.369 1_565 S
C2371 C2372 1.410 . S
C2371 C2379 1.503 . S
C2372 C2371 1.410 . S
C2372 C2373 1.392 . S
C2372 C2375 1.511 . S
C2373 C2369 1.376 1_565 S
C2373 C2372 1.392 . S
C2373 H2385 0.929 . S
C2374 C2370 1.531 . S
C2374 H2386 0.960 . S
C2374 H2387 0.962 . S
C2374 H2388 0.960 . S
C2375 C2372 1.511 . S
C2375 H2389 0.961 . S
C2375 H2390 0.961 . S
C2375 H2391 0.961 . S
C2376 C2377 1.352 1_545 S
C2376 C2378 1.367 . S
C2376 H2392 0.946 . S
C2377 C2376 1.352 1_565 S
C2377 C2381 1.408 . S
C2378 C2376 1.367 . S
C2378 C2379 1.370 1_545 S
C2378 C2382 1.524 . S
C2379 C2371 1.503 . S
C2379 C2378 1.370 1_565 S
C2379 C2380 1.403 . S
C2380 C2379 1.403 . S
C2380 C2381 1.404 . S
C2380 C2383 1.539 . S
C2381 C2377 1.408 . S
C2381 C2380 1.404 . S
C2381 H2393 0.930 . S
C2382 C2378 1.524 . S
C2382 H2394 0.956 . S
C2382 H2395 0.961 . S
C2382 H2396 0.961 . S
C2383 C2380 1.539 . S
C2383 H2397 0.958 . S
C2383 H2398 0.961 . S
C2383 H2399 0.960 . S
H2384 C2368 0.931 . S
H2385 C2373 0.929 . S
H2386 C2374 0.960 . S
H2387 C2374 0.962 . S
H2388 C2374 0.960 . S
H2389 C2375 0.961 . S
H2390 C2375 0.961 . S
H2391 C2375 0.961 . S
H2392 C2376 0.946 . S
H2393 C2381 0.930 . S
H2394 C2382 0.956 . S
H2395 C2382 0.961 . S
H2396 C2382 0.961 . S
H2397 C2383 0.958 . S
H2398 C2383 0.961 . S
H2399 C2383 0.960 . S
C2400 C2401 1.391 . S
C2400 C2402 1.394 . S
C2400 H2416 0.931 . S
C2401 C2400 1.391 . S
C2401 C2405 1.376 . S
C2402 C2400 1.394 . S
C2402 C2403 1.369 . S
C2402 C2406 1.531 . S
C2403 C2402 1.369 . S
C2403 C2404 1.410 . S
C2403 C2411 1.503 . S
C2404 C2403 1.410 . S
C2404 C2405 1.392 . S
C2404 C2407 1.511 . S
C2405 C2401 1.376 . S
C2405 C2404 1.392 . S
C2405 H2417 0.929 . S
C2406 C2402 1.531 . S
C2406 H2418 0.960 . S
C2406 H2419 0.962 . S
C2406 H2420 0.960 . S
C2407 C2404 1.511 . S
C2407 H2421 0.961 . S
C2407 H2422 0.961 . S
C2407 H2423 0.961 . S
C2408 C2409 1.370 . S
C2408 C2410 1.363 . S
C2408 H2424 0.931 . S
C2409 C2408 1.370 . S
C2409 C2413 1.408 . S
C2410 C2408 1.363 . S
C2410 C2411 1.370 . S
C2410 C2414 1.524 . S
C2411 C2403 1.503 . S
C2411 C2410 1.370 . S
C2411 C2412 1.403 . S
C2412 C2411 1.403 . S
C2412 C2413 1.404 . S
C2412 C2415 1.539 . S
C2413 C2409 1.408 . S
C2413 C2412 1.404 . S
C2413 H2425 0.930 . S
C2414 C2410 1.524 . S
C2414 H2426 0.956 . S
C2414 H2427 0.961 . S
C2414 H2428 0.961 . S
C2415 C2412 1.539 . S
C2415 H2429 0.958 . S
C2415 H2430 0.961 . S
C2415 H2431 0.960 . S
H2416 C2400 0.931 . S
H2417 C2405 0.929 . S
H2418 C2406 0.960 . S
H2419 C2406 0.962 . S
H2420 C2406 0.960 . S
H2421 C2407 0.961 . S
H2422 C2407 0.961 . S
H2423 C2407 0.961 . S
H2424 C2408 0.931 . S
H2425 C2413 0.930 . S
H2426 C2414 0.956 . S
H2427 C2414 0.961 . S
H2428 C2414 0.961 . S
H2429 C2415 0.958 . S
H2430 C2415 0.961 . S
H2431 C2415 0.960 . S
C2432 C2433 1.391 1_565 S
C2432 C2434 1.394 . S
C2432 H2448 0.931 . S
C2433 C2432 1.391 1_545 S
C2433 C2437 1.376 . S
C2434 C2432 1.394 . S
C2434 C2435 1.369 1_565 S
C2434 C2438 1.531 . S
C2435 C2434 1.369 1_545 S
C2435 C2436 1.410 . S
C2435 C2443 1.503 . S
C2436 C2435 1.410 . S
C2436 C2437 1.392 . S
C2436 C2439 1.511 . S
C2437 C2433 1.376 . S
C2437 C2436 1.392 . S
C2437 H2449 0.929 . S
C2438 C2434 1.531 . S
C2438 H2450 0.960 . S
C2438 H2451 0.962 . S
C2438 H2452 0.960 . S
C2439 C2436 1.511 . S
C2439 H2453 0.961 . S
C2439 H2454 0.961 . S
C2439 H2455 0.961 . S
C2440 C2441 1.370 . S
C2440 C2442 1.363 . S
C2440 H2456 0.931 . S
C2441 C2440 1.370 . S
C2441 C2445 1.408 1_565 S
C2442 C2440 1.363 . S
C2442 C2443 1.370 1_565 S
C2442 C2446 1.524 . S
C2443 C2435 1.503 . S
C2443 C2442 1.370 1_545 S
C2443 C2444 1.403 . S
C2444 C2443 1.403 . S
C2444 C2445 1.404 . S
C2444 C2447 1.539 . S
C2445 C2441 1.408 1_545 S
C2445 C2444 1.404 . S
C2445 H2457 0.917 1_655 S
C2446 C2442 1.524 . S
C2446 H2458 0.956 . S
C2446 H2459 0.961 . S
C2446 H2460 0.961 . S
C2447 C2444 1.539 . S
C2447 H2461 0.958 . S
C2447 H2462 0.961 . S
C2447 H2463 0.960 . S
H2448 C2432 0.931 . S
H2449 C2437 0.929 . S
H2450 C2438 0.960 . S
H2451 C2438 0.962 . S
H2452 C2438 0.960 . S
H2453 C2439 0.961 . S
H2454 C2439 0.961 . S
H2455 C2439 0.961 . S
H2456 C2440 0.931 . S
H2457 C2445 0.917 1_455 S
H2458 C2446 0.956 . S
H2459 C2446 0.961 . S
H2460 C2446 0.961 . S
H2461 C2447 0.958 . S
H2462 C2447 0.961 . S
H2463 C2447 0.960 . S
C2464 C2465 1.391 . S
C2464 C2466 1.394 . S
C2464 H2480 0.931 . S
C2465 C2464 1.391 . S
C2465 C2469 1.376 . S
C2466 C2464 1.394 . S
C2466 C2467 1.369 . S
C2466 C2470 1.531 . S
C2467 C2466 1.369 . S
C2467 C2468 1.410 . S
C2467 C2475 1.503 . S
C2468 C2467 1.410 . S
C2468 C2469 1.392 . S
C2468 C2471 1.511 . S
C2469 C2465 1.376 . S
C2469 C2468 1.392 . S
C2469 H2481 0.929 . S
C2470 C2466 1.531 . S
C2470 H2482 0.960 . S
C2470 H2483 0.962 . S
C2470 H2484 0.960 . S
C2471 C2468 1.511 . S
C2471 H2485 0.961 . S
C2471 H2486 0.961 . S
C2471 H2487 0.961 . S
C2472 C2473 1.370 . S
C2472 C2474 1.363 . S
C2472 H2488 0.931 . S
C2473 C2472 1.370 . S
C2473 C2477 1.408 . S
C2474 C2472 1.363 . S
C2474 C2475 1.370 . S
C2474 C2478 1.524 . S
C2475 C2467 1.503 . S
C2475 C2474 1.370 . S
C2475 C2476 1.403 . S
C2476 C2475 1.403 . S
C2476 C2477 1.404 . S
C2476 C2479 1.539 . S
C2477 C2473 1.408 . S
C2477 C2476 1.404 . S
C2477 H2489 0.930 . S
C2478 C2474 1.524 . S
C2478 H2490 0.956 . S
C2478 H2491 0.961 . S
C2478 H2492 0.961 . S
C2479 C2476 1.539 . S
C2479 H2493 0.958 . S
C2479 H2494 0.961 . S
C2479 H2495 0.960 . S
H2480 C2464 0.931 . S
H2481 C2469 0.929 . S
H2482 C2470 0.960 . S
H2483 C2470 0.962 . S
H2484 C2470 0.960 . S
H2485 C2471 0.961 . S
H2486 C2471 0.961 . S
H2487 C2471 0.961 . S
H2488 C2472 0.931 . S
H2489 C2477 0.930 . S
H2490 C2478 0.956 . S
H2491 C2478 0.961 . S
H2492 C2478 0.961 . S
H2493 C2479 0.958 . S
H2494 C2479 0.961 . S
H2495 C2479 0.960 . S
C2496 C2497 1.391 . S
C2496 C2498 1.397 . S
C2496 H2512 0.931 1_545 S
C2497 C2496 1.391 . S
C2497 C2501 1.376 . S
C2498 C2496 1.397 . S
C2498 C2499 1.379 . S
C2498 C2502 1.517 1_545 S
C2499 C2498 1.379 . S
C2499 C2500 1.410 . S
C2499 C2507 1.503 . S
C2500 C2499 1.410 . S
C2500 C2501 1.392 . S
C2500 C2503 1.511 . S
C2501 C2497 1.376 . S
C2501 C2500 1.392 . S
C2501 H2513 0.929 . S
C2502 C2498 1.517 1_565 S
C2502 H2514 0.960 . S
C2502 H2515 0.962 . S
C2502 H2516 0.960 . S
C2503 C2500 1.511 . S
C2503 H2517 0.961 . S
C2503 H2518 0.961 . S
C2503 H2519 0.961 . S
C2504 C2505 1.370 . S
C2504 C2506 1.363 . S
C2504 H2520 0.931 . S
C2505 C2504 1.370 . S
C2505 C2509 1.408 1_565 S
C2506 C2504 1.363 . S
C2506 C2507 1.370 1_565 S
C2506 C2510 1.524 . S
C2507 C2499 1.503 . S
C2507 C2506 1.370 1_545 S
C2507 C2508 1.403 . S
C2508 C2507 1.403 . S
C2508 C2509 1.404 . S
C2508 C2511 1.539 . S
C2509 C2505 1.408 1_545 S
C2509 C2508 1.404 . S
C2509 H2521 0.930 . S
C2510 C2506 1.524 . S
C2510 H2522 0.956 . S
C2510 H2523 0.961 . S
C2510 H2524 0.961 . S
C2511 C2508 1.539 . S
C2511 H2525 0.958 . S
C2511 H2526 0.961 . S
C2511 H2527 0.960 . S
H2512 C2496 0.931 1_565 S
H2513 C2501 0.929 . S
H2514 C2502 0.960 . S
H2515 C2502 0.962 . S
H2516 C2502 0.960 . S
H2517 C2503 0.961 . S
H2518 C2503 0.961 . S
H2519 C2503 0.961 . S
H2520 C2504 0.931 . S
H2521 C2509 0.930 . S
H2522 C2510 0.956 . S
H2523 C2510 0.961 . S
H2524 C2510 0.961 . S
H2525 C2511 0.958 . S
H2526 C2511 0.961 . S
H2527 C2511 0.960 . S
C2528 C2529 1.391 . S
C2528 C2530 1.394 . S
C2528 H2544 0.931 . S
C2529 C2528 1.391 . S
C2529 C2533 1.376 . S
C2530 C2528 1.394 . S
C2530 C2531 1.369 . S
C2530 C2534 1.531 . S
C2531 C2530 1.369 . S
C2531 C2532 1.410 . S
C2531 C2539 1.503 . S
C2532 C2531 1.410 . S
C2532 C2533 1.392 . S
C2532 C2535 1.511 . S
C2533 C2529 1.376 . S
C2533 C2532 1.392 . S
C2533 H2545 0.929 . S
C2534 C2530 1.531 . S
C2534 H2546 0.960 . S
C2534 H2547 0.962 . S
C2534 H2548 0.960 . S
C2535 C2532 1.511 . S
C2535 H2549 0.961 . S
C2535 H2550 0.961 . S
C2535 H2551 0.961 . S
C2536 C2537 1.370 . S
C2536 C2538 1.363 . S
C2536 H2552 0.931 . S
C2537 C2536 1.370 . S
C2537 C2541 1.408 . S
C2538 C2536 1.363 . S
C2538 C2539 1.370 . S
C2538 C2542 1.524 . S
C2539 C2531 1.503 . S
C2539 C2538 1.370 . S
C2539 C2540 1.403 . S
C2540 C2539 1.403 . S
C2540 C2541 1.404 . S
C2540 C2543 1.539 . S
C2541 C2537 1.408 . S
C2541 C2540 1.404 . S
C2541 H2553 0.930 . S
C2542 C2538 1.524 . S
C2542 H2554 0.956 . S
C2542 H2555 0.961 . S
C2542 H2556 0.961 . S
C2543 C2540 1.539 . S
C2543 H2557 0.958 . S
C2543 H2558 0.961 . S
C2543 H2559 0.960 . S
H2544 C2528 0.931 . S
H2545 C2533 0.929 . S
H2546 C2534 0.960 . S
H2547 C2534 0.962 . S
H2548 C2534 0.960 . S
H2549 C2535 0.961 . S
H2550 C2535 0.961 . S
H2551 C2535 0.961 . S
H2552 C2536 0.931 . S
H2553 C2541 0.930 . S
H2554 C2542 0.956 . S
H2555 C2542 0.961 . S
H2556 C2542 0.961 . S
H2557 C2543 0.958 . S
H2558 C2543 0.961 . S
H2559 C2543 0.960 . S
C2560 C2561 1.391 . S
C2560 C2562 1.394 . S
C2560 H2576 0.931 . S
C2561 C2560 1.391 . S
C2561 C2565 1.376 . S
C2562 C2560 1.394 . S
C2562 C2563 1.369 . S
C2562 C2566 1.531 . S
C2563 C2562 1.369 . S
C2563 C2564 1.410 1_565 S
C2563 C2571 1.503 1_565 S
C2564 C2563 1.410 1_545 S
C2564 C2565 1.392 1_545 S
C2564 C2567 1.511 . S
C2565 C2561 1.376 . S
C2565 C2564 1.392 1_565 S
C2565 H2577 0.929 1_565 S
C2566 C2562 1.531 . S
C2566 H2578 0.960 . S
C2566 H2579 0.962 . S
C2566 H2580 0.960 . S
C2567 C2564 1.511 . S
C2567 H2581 0.961 . S
C2567 H2582 0.961 . S
C2567 H2583 0.961 . S
C2568 C2569 1.370 1_565 S
C2568 C2570 1.363 . S
C2568 H2584 0.931 . S
C2569 C2568 1.370 1_545 S
C2569 C2573 1.408 . S
C2570 C2568 1.363 . S
C2570 C2571 1.370 1_565 S
C2570 C2574 1.524 . S
C2571 C2563 1.503 1_545 S
C2571 C2570 1.370 1_545 S
C2571 C2572 1.403 . S
C2572 C2571 1.403 . S
C2572 C2573 1.404 . S
C2572 C2575 1.539 . S
C2573 C2569 1.408 . S
C2573 C2572 1.404 . S
C2573 H2585 0.930 . S
C2574 C2570 1.524 . S
C2574 H2586 0.956 . S
C2574 H2587 0.961 . S
C2574 H2588 0.961 . S
C2575 C2572 1.539 . S
C2575 H2589 0.958 . S
C2575 H2590 0.961 . S
C2575 H2591 0.960 . S
H2576 C2560 0.931 . S
H2577 C2565 0.929 1_545 S
H2578 C2566 0.960 . S
H2579 C2566 0.962 . S
H2580 C2566 0.960 . S
H2581 C2567 0.961 . S
H2582 C2567 0.961 . S
H2583 C2567 0.961 . S
H2584 C2568 0.931 . S
H2585 C2573 0.930 . S
H2586 C2574 0.956 . S
H2587 C2574 0.961 . S
H2588 C2574 0.961 . S
H2589 C2575 0.958 . S
H2590 C2575 0.961 . S
H2591 C2575 0.960 . S
C2592 C2593 1.391 . S
C2592 C2594 1.394 . S
C2592 H2608 0.931 . S
C2593 C2592 1.391 . S
C2593 C2597 1.376 . S
C2594 C2592 1.394 . S
C2594 C2595 1.369 . S
C2594 C2598 1.531 . S
C2595 C2594 1.369 . S
C2595 C2596 1.410 . S
C2595 C2603 1.503 . S
C2596 C2595 1.410 . S
C2596 C2597 1.392 . S
C2596 C2599 1.511 . S
C2597 C2593 1.376 . S
C2597 C2596 1.392 . S
C2597 H2609 0.929 . S
C2598 C2594 1.531 . S
C2598 H2610 0.960 . S
C2598 H2611 0.962 . S
C2598 H2612 0.960 . S
C2599 C2596 1.511 . S
C2599 H2613 0.961 . S
C2599 H2614 0.961 . S
C2599 H2615 0.961 . S
C2600 C2601 1.370 . S
C2600 C2602 1.363 . S
C2600 H2616 0.931 . S
C2601 C2600 1.370 . S
C2601 C2605 1.408 . S
C2602 C2600 1.363 . S
C2602 C2603 1.370 . S
C2602 C2606 1.524 . S
C2603 C2595 1.503 . S
C2603 C2602 1.370 . S
C2603 C2604 1.403 . S
C2604 C2603 1.403 . S
C2604 C2605 1.404 . S
C2604 C2607 1.539 . S
C2605 C2601 1.408 . S
C2605 C2604 1.404 . S
C2605 H2617 0.930 . S
C2606 C2602 1.524 . S
C2606 H2618 0.956 . S
C2606 H2619 0.961 . S
C2606 H2620 0.961 . S
C2607 C2604 1.539 . S
C2607 H2621 0.958 . S
C2607 H2622 0.961 . S
C2607 H2623 0.960 . S
H2608 C2592 0.931 . S
H2609 C2597 0.929 . S
H2610 C2598 0.960 . S
H2611 C2598 0.962 . S
H2612 C2598 0.960 . S
H2613 C2599 0.961 . S
H2614 C2599 0.961 . S
H2615 C2599 0.961 . S
H2616 C2600 0.931 . S
H2617 C2605 0.930 . S
H2618 C2606 0.956 . S
H2619 C2606 0.961 . S
H2620 C2606 0.961 . S
H2621 C2607 0.958 . S
H2622 C2607 0.961 . S
H2623 C2607 0.960 . S
C2624 C2625 1.391 . S
C2624 C2626 1.394 . S
C2624 H2640 0.931 . S
C2625 C2624 1.391 . S
C2625 C2629 1.376 . S
C2626 C2624 1.394 . S
C2626 C2627 1.369 . S
C2626 C2630 1.531 . S
C2627 C2626 1.369 . S
C2627 C2628 1.410 . S
C2627 C2635 1.503 . S
C2628 C2627 1.410 . S
C2628 C2629 1.392 . S
C2628 C2631 1.511 . S
C2629 C2625 1.376 . S
C2629 C2628 1.392 . S
C2629 H2641 0.929 . S
C2630 C2626 1.531 . S
C2630 H2642 0.960 . S
C2630 H2643 0.962 . S
C2630 H2644 0.960 . S
C2631 C2628 1.511 . S
C2631 H2645 0.961 . S
C2631 H2646 0.961 . S
C2631 H2647 0.961 . S
C2632 C2633 1.370 . S
C2632 C2634 1.363 . S
C2632 H2648 0.931 . S
C2633 C2632 1.370 . S
C2633 C2637 1.408 . S
C2634 C2632 1.363 . S
C2634 C2635 1.370 . S
C2634 C2638 1.524 . S
C2635 C2627 1.503 . S
C2635 C2634 1.370 . S
C2635 C2636 1.403 . S
C2636 C2635 1.403 . S
C2636 C2637 1.404 . S
C2636 C2639 1.539 . S
C2637 C2633 1.408 . S
C2637 C2636 1.404 . S
C2637 H2649 0.930 . S
C2638 C2634 1.524 . S
C2638 H2650 0.956 . S
C2638 H2651 0.961 . S
C2638 H2652 0.961 . S
C2639 C2636 1.539 . S
C2639 H2653 0.958 . S
C2639 H2654 0.961 . S
C2639 H2655 0.960 . S
H2640 C2624 0.931 . S
H2641 C2629 0.929 . S
H2642 C2630 0.960 . S
H2643 C2630 0.962 . S
H2644 C2630 0.960 . S
H2645 C2631 0.961 . S
H2646 C2631 0.961 . S
H2647 C2631 0.961 . S
H2648 C2632 0.931 . S
H2649 C2637 0.930 . S
H2650 C2638 0.956 . S
H2651 C2638 0.961 . S
H2652 C2638 0.961 . S
H2653 C2639 0.958 . S
H2654 C2639 0.961 . S
H2655 C2639 0.960 . S
C2656 C2657 1.391 . S
C2656 C2658 1.394 . S
C2656 H2672 0.931 . S
C2657 C2656 1.391 . S
C2657 C2661 1.376 . S
C2658 C2656 1.394 . S
C2658 C2659 1.369 . S
C2658 C2662 1.531 . S
C2659 C2658 1.369 . S
C2659 C2660 1.410 . S
C2659 C2667 1.503 . S
C2660 C2659 1.410 . S
C2660 C2661 1.392 . S
C2660 C2663 1.511 . S
C2661 C2657 1.376 . S
C2661 C2660 1.392 . S
C2661 H2673 0.929 . S
C2662 C2658 1.531 . S
C2662 H2674 0.960 . S
C2662 H2675 0.962 . S
C2662 H2676 0.960 . S
C2663 C2660 1.511 . S
C2663 H2677 0.961 . S
C2663 H2678 0.961 . S
C2663 H2679 0.961 . S
C2664 C2665 1.370 . S
C2664 C2666 1.363 . S
C2664 H2680 0.931 . S
C2665 C2664 1.370 . S
C2665 C2669 1.408 . S
C2666 C2664 1.363 . S
C2666 C2667 1.370 . S
C2666 C2670 1.524 . S
C2667 C2659 1.503 . S
C2667 C2666 1.370 . S
C2667 C2668 1.403 . S
C2668 C2667 1.403 . S
C2668 C2669 1.404 . S
C2668 C2671 1.539 . S
C2669 C2665 1.408 . S
C2669 C2668 1.404 . S
C2669 H2681 0.930 . S
C2670 C2666 1.524 . S
C2670 H2682 0.956 . S
C2670 H2683 0.961 . S
C2670 H2684 0.961 . S
C2671 C2668 1.539 . S
C2671 H2685 0.958 . S
C2671 H2686 0.961 . S
C2671 H2687 0.960 . S
H2672 C2656 0.931 . S
H2673 C2661 0.929 . S
H2674 C2662 0.960 . S
H2675 C2662 0.962 . S
H2676 C2662 0.960 . S
H2677 C2663 0.961 . S
H2678 C2663 0.961 . S
H2679 C2663 0.961 . S
H2680 C2664 0.931 . S
H2681 C2669 0.930 . S
H2682 C2670 0.956 . S
H2683 C2670 0.961 . S
H2684 C2670 0.961 . S
H2685 C2671 0.958 . S
H2686 C2671 0.961 . S
H2687 C2671 0.960 . S
C2688 C2689 1.391 . S
C2688 C2690 1.394 . S
C2688 H2704 0.931 . S
C2689 C2688 1.391 . S
C2689 C2693 1.376 . S
C2690 C2688 1.394 . S
C2690 C2691 1.369 . S
C2690 C2694 1.531 . S
C2691 C2690 1.369 . S
C2691 C2692 1.410 . S
C2691 C2699 1.503 . S
C2692 C2691 1.410 . S
C2692 C2693 1.392 . S
C2692 C2695 1.511 . S
C2693 C2689 1.376 . S
C2693 C2692 1.392 . S
C2693 H2705 0.929 . S
C2694 C2690 1.531 . S
C2694 H2706 0.960 . S
C2694 H2707 0.962 . S
C2694 H2708 0.960 . S
C2695 C2692 1.511 . S
C2695 H2709 0.961 . S
C2695 H2710 0.961 . S
C2695 H2711 0.961 . S
C2696 C2697 1.370 . S
C2696 C2698 1.363 . S
C2696 H2712 0.931 . S
C2697 C2696 1.370 . S
C2697 C2701 1.408 . S
C2698 C2696 1.363 . S
C2698 C2699 1.370 . S
C2698 C2702 1.524 . S
C2699 C2691 1.503 . S
C2699 C2698 1.370 . S
C2699 C2700 1.403 . S
C2700 C2699 1.403 . S
C2700 C2701 1.404 . S
C2700 C2703 1.539 . S
C2701 C2697 1.408 . S
C2701 C2700 1.404 . S
C2701 H2713 0.930 . S
C2702 C2698 1.524 . S
C2702 H2714 0.956 . S
C2702 H2715 0.961 . S
C2702 H2716 0.961 . S
C2703 C2700 1.539 . S
C2703 H2717 0.958 . S
C2703 H2718 0.961 . S
C2703 H2719 0.960 . S
H2704 C2688 0.931 . S
H2705 C2693 0.929 . S
H2706 C2694 0.960 . S
H2707 C2694 0.962 . S
H2708 C2694 0.960 . S
H2709 C2695 0.961 . S
H2710 C2695 0.961 . S
H2711 C2695 0.961 . S
H2712 C2696 0.931 . S
H2713 C2701 0.930 . S
H2714 C2702 0.956 . S
H2715 C2702 0.961 . S
H2716 C2702 0.961 . S
H2717 C2703 0.958 . S
H2718 C2703 0.961 . S
H2719 C2703 0.960 . S
C2720 C2721 1.391 . S
C2720 C2722 1.394 . S
C2720 H2736 0.931 . S
C2721 C2720 1.391 . S
C2721 C2725 1.376 . S
C2722 C2720 1.394 . S
C2722 C2723 1.369 . S
C2722 C2726 1.531 . S
C2723 C2722 1.369 . S
C2723 C2724 1.410 . S
C2723 C2731 1.503 . S
C2724 C2723 1.410 . S
C2724 C2725 1.392 . S
C2724 C2727 1.511 . S
C2725 C2721 1.376 . S
C2725 C2724 1.392 . S
C2725 H2737 0.929 . S
C2726 C2722 1.531 . S
C2726 H2738 0.960 . S
C2726 H2739 0.962 . S
C2726 H2740 0.960 . S
C2727 C2724 1.511 . S
C2727 H2741 0.961 . S
C2727 H2742 0.961 . S
C2727 H2743 0.961 . S
C2728 C2729 1.370 . S
C2728 C2730 1.363 . S
C2728 H2744 0.931 . S
C2729 C2728 1.370 . S
C2729 C2733 1.408 . S
C2730 C2728 1.363 . S
C2730 C2731 1.370 . S
C2730 C2734 1.524 . S
C2731 C2723 1.503 . S
C2731 C2730 1.370 . S
C2731 C2732 1.403 . S
C2732 C2731 1.403 . S
C2732 C2733 1.404 . S
C2732 C2735 1.539 . S
C2733 C2729 1.408 . S
C2733 C2732 1.404 . S
C2733 H2745 0.930 . S
C2734 C2730 1.524 . S
C2734 H2746 0.956 . S
C2734 H2747 0.961 . S
C2734 H2748 0.961 . S
C2735 C2732 1.539 . S
C2735 H2749 0.958 . S
C2735 H2750 0.961 . S
C2735 H2751 0.960 . S
H2736 C2720 0.931 . S
H2737 C2725 0.929 . S
H2738 C2726 0.960 . S
H2739 C2726 0.962 . S
H2740 C2726 0.960 . S
H2741 C2727 0.961 . S
H2742 C2727 0.961 . S
H2743 C2727 0.961 . S
H2744 C2728 0.931 . S
H2745 C2733 0.930 . S
H2746 C2734 0.956 . S
H2747 C2734 0.961 . S
H2748 C2734 0.961 . S
H2749 C2735 0.958 . S
H2750 C2735 0.961 . S
H2751 C2735 0.960 . S
C2752 C2753 1.391 . S
C2752 C2754 1.394 . S
C2752 H2768 0.931 . S
C2753 C2752 1.391 . S
C2753 C2757 1.376 . S
C2754 C2752 1.394 . S
C2754 C2755 1.369 . S
C2754 C2758 1.531 . S
C2755 C2754 1.369 . S
C2755 C2756 1.410 . S
C2755 C2763 1.503 . S
C2756 C2755 1.410 . S
C2756 C2757 1.392 . S
C2756 C2759 1.511 . S
C2757 C2753 1.376 . S
C2757 C2756 1.392 . S
C2757 H2769 0.929 . S
C2758 C2754 1.531 . S
C2758 H2770 0.960 . S
C2758 H2771 0.962 . S
C2758 H2772 0.960 . S
C2759 C2756 1.511 . S
C2759 H2773 0.961 . S
C2759 H2774 0.961 . S
C2759 H2775 0.961 . S
C2760 C2761 1.370 . S
C2760 C2762 1.363 . S
C2760 H2776 0.931 . S
C2761 C2760 1.370 . S
C2761 C2765 1.408 . S
C2762 C2760 1.363 . S
C2762 C2763 1.370 . S
C2762 C2766 1.524 . S
C2763 C2755 1.503 . S
C2763 C2762 1.370 . S
C2763 C2764 1.403 . S
C2764 C2763 1.403 . S
C2764 C2765 1.404 . S
C2764 C2767 1.539 . S
C2765 C2761 1.408 . S
C2765 C2764 1.404 . S
C2765 H2777 0.930 . S
C2766 C2762 1.524 . S
C2766 H2778 0.956 . S
C2766 H2779 0.961 . S
C2766 H2780 0.961 . S
C2767 C2764 1.539 . S
C2767 H2781 0.958 . S
C2767 H2782 0.961 . S
C2767 H2783 0.960 . S
H2768 C2752 0.931 . S
H2769 C2757 0.929 . S
H2770 C2758 0.960 . S
H2771 C2758 0.962 . S
H2772 C2758 0.960 . S
H2773 C2759 0.961 . S
H2774 C2759 0.961 . S
H2775 C2759 0.961 . S
H2776 C2760 0.931 . S
H2777 C2765 0.930 . S
H2778 C2766 0.956 . S
H2779 C2766 0.961 . S
H2780 C2766 0.961 . S
H2781 C2767 0.958 . S
H2782 C2767 0.961 . S
H2783 C2767 0.960 . S
C2784 C2785 1.391 . S
C2784 C2786 1.394 . S
C2784 H2800 0.931 . S
C2785 C2784 1.391 . S
C2785 C2789 1.376 . S
C2786 C2784 1.394 . S
C2786 C2787 1.369 . S
C2786 C2790 1.531 . S
C2787 C2786 1.369 . S
C2787 C2788 1.410 . S
C2787 C2795 1.503 . S
C2788 C2787 1.410 . S
C2788 C2789 1.392 . S
C2788 C2791 1.511 . S
C2789 C2785 1.376 . S
C2789 C2788 1.392 . S
C2789 H2801 0.929 . S
C2790 C2786 1.531 . S
C2790 H2802 0.960 . S
C2790 H2803 0.962 . S
C2790 H2804 0.960 . S
C2791 C2788 1.511 . S
C2791 H2805 0.961 . S
C2791 H2806 0.961 . S
C2791 H2807 0.961 . S
C2792 C2793 1.370 . S
C2792 C2794 1.363 . S
C2792 H2808 0.931 . S
C2793 C2792 1.370 . S
C2793 C2797 1.408 . S
C2794 C2792 1.363 . S
C2794 C2795 1.370 . S
C2794 C2798 1.524 . S
C2795 C2787 1.503 . S
C2795 C2794 1.370 . S
C2795 C2796 1.403 . S
C2796 C2795 1.403 . S
C2796 C2797 1.404 . S
C2796 C2799 1.539 . S
C2797 C2793 1.408 . S
C2797 C2796 1.404 . S
C2797 H2809 0.930 . S
C2798 C2794 1.524 . S
C2798 H2810 0.956 . S
C2798 H2811 0.961 . S
C2798 H2812 0.961 . S
C2799 C2796 1.539 . S
C2799 H2813 0.958 . S
C2799 H2814 0.961 . S
C2799 H2815 0.960 . S
H2800 C2784 0.931 . S
H2801 C2789 0.929 . S
H2802 C2790 0.960 . S
H2803 C2790 0.962 . S
H2804 C2790 0.960 . S
H2805 C2791 0.961 . S
H2806 C2791 0.961 . S
H2807 C2791 0.961 . S
H2808 C2792 0.931 . S
H2809 C2797 0.930 . S
H2810 C2798 0.956 . S
H2811 C2798 0.961 . S
H2812 C2798 0.961 . S
H2813 C2799 0.958 . S
H2814 C2799 0.961 . S
H2815 C2799 0.960 . S
C2816 C2817 1.391 . S
C2816 C2818 1.394 . S
C2816 H2832 0.931 . S
C2817 C2816 1.391 . S
C2817 C2821 1.376 . S
C2818 C2816 1.394 . S
C2818 C2819 1.369 . S
C2818 C2822 1.531 . S
C2819 C2818 1.369 . S
C2819 C2820 1.410 . S
C2819 C2827 1.503 . S
C2820 C2819 1.410 . S
C2820 C2821 1.392 . S
C2820 C2823 1.511 . S
C2821 C2817 1.376 . S
C2821 C2820 1.392 . S
C2821 H2833 0.929 . S
C2822 C2818 1.531 . S
C2822 H2834 0.960 . S
C2822 H2835 0.962 . S
C2822 H2836 0.960 . S
C2823 C2820 1.511 . S
C2823 H2837 0.961 . S
C2823 H2838 0.961 . S
C2823 H2839 0.961 . S
C2824 C2825 1.370 . S
C2824 C2826 1.363 . S
C2824 H2840 0.931 . S
C2825 C2824 1.370 . S
C2825 C2829 1.408 . S
C2826 C2824 1.363 . S
C2826 C2827 1.370 . S
C2826 C2830 1.524 . S
C2827 C2819 1.503 . S
C2827 C2826 1.370 . S
C2827 C2828 1.403 . S
C2828 C2827 1.403 . S
C2828 C2829 1.404 . S
C2828 C2831 1.539 . S
C2829 C2825 1.408 . S
C2829 C2828 1.404 . S
C2829 H2841 0.930 . S
C2830 C2826 1.524 . S
C2830 H2842 0.956 . S
C2830 H2843 0.961 . S
C2830 H2844 0.961 . S
C2831 C2828 1.539 . S
C2831 H2845 0.958 . S
C2831 H2846 0.961 . S
C2831 H2847 0.960 . S
H2832 C2816 0.931 . S
H2833 C2821 0.929 . S
H2834 C2822 0.960 . S
H2835 C2822 0.962 . S
H2836 C2822 0.960 . S
H2837 C2823 0.961 . S
H2838 C2823 0.961 . S
H2839 C2823 0.961 . S
H2840 C2824 0.931 . S
H2841 C2829 0.930 . S
H2842 C2830 0.956 . S
H2843 C2830 0.961 . S
H2844 C2830 0.961 . S
H2845 C2831 0.958 . S
H2846 C2831 0.961 . S
H2847 C2831 0.960 . S
C2848 C2849 1.391 . S
C2848 C2850 1.394 . S
C2848 H2864 0.931 . S
C2849 C2848 1.391 . S
C2849 C2853 1.376 . S
C2850 C2848 1.394 . S
C2850 C2851 1.369 . S
C2850 C2854 1.531 . S
C2851 C2850 1.369 . S
C2851 C2852 1.410 . S
C2851 C2859 1.503 . S
C2852 C2851 1.410 . S
C2852 C2853 1.392 . S
C2852 C2855 1.511 . S
C2853 C2849 1.376 . S
C2853 C2852 1.392 . S
C2853 H2865 0.929 . S
C2854 C2850 1.531 . S
C2854 H2866 0.960 . S
C2854 H2867 0.962 . S
C2854 H2868 0.960 . S
C2855 C2852 1.511 . S
C2855 H2869 0.961 . S
C2855 H2870 0.961 . S
C2855 H2871 0.961 . S
C2856 C2857 1.370 . S
C2856 C2858 1.363 . S
C2856 H2872 0.931 . S
C2857 C2856 1.370 . S
C2857 C2861 1.408 . S
C2858 C2856 1.363 . S
C2858 C2859 1.370 . S
C2858 C2862 1.524 . S
C2859 C2851 1.503 . S
C2859 C2858 1.370 . S
C2859 C2860 1.403 . S
C2860 C2859 1.403 . S
C2860 C2861 1.404 . S
C2860 C2863 1.539 . S
C2861 C2857 1.408 . S
C2861 C2860 1.404 . S
C2861 H2873 0.930 . S
C2862 C2858 1.524 . S
C2862 H2874 0.956 . S
C2862 H2875 0.961 . S
C2862 H2876 0.961 . S
C2863 C2860 1.539 . S
C2863 H2877 0.958 . S
C2863 H2878 0.961 . S
C2863 H2879 0.960 . S
H2864 C2848 0.931 . S
H2865 C2853 0.929 . S
H2866 C2854 0.960 . S
H2867 C2854 0.962 . S
H2868 C2854 0.960 . S
H2869 C2855 0.961 . S
H2870 C2855 0.961 . S
H2871 C2855 0.961 . S
H2872 C2856 0.931 . S
H2873 C2861 0.930 . S
H2874 C2862 0.956 . S
H2875 C2862 0.961 . S
H2876 C2862 0.961 . S
H2877 C2863 0.958 . S
H2878 C2863 0.961 . S
H2879 C2863 0.960 . S
C2880 C2881 1.391 . S
C2880 C2882 1.394 . S
C2880 H2896 0.931 . S
C2881 C2880 1.391 . S
C2881 C2885 1.376 . S
C2882 C2880 1.394 . S
C2882 C2883 1.369 . S
C2882 C2886 1.531 . S
C2883 C2882 1.369 . S
C2883 C2884 1.410 . S
C2883 C2891 1.503 . S
C2884 C2883 1.410 . S
C2884 C2885 1.392 . S
C2884 C2887 1.511 . S
C2885 C2881 1.376 . S
C2885 C2884 1.392 . S
C2885 H2897 0.929 . S
C2886 C2882 1.531 . S
C2886 H2898 0.960 . S
C2886 H2899 0.962 . S
C2886 H2900 0.960 . S
C2887 C2884 1.511 . S
C2887 H2901 0.961 . S
C2887 H2902 0.961 . S
C2887 H2903 0.961 . S
C2888 C2889 1.370 . S
C2888 C2890 1.363 . S
C2888 H2904 0.931 . S
C2889 C2888 1.370 . S
C2889 C2893 1.408 . S
C2890 C2888 1.363 . S
C2890 C2891 1.370 . S
C2890 C2894 1.524 . S
C2891 C2883 1.503 . S
C2891 C2890 1.370 . S
C2891 C2892 1.403 . S
C2892 C2891 1.403 . S
C2892 C2893 1.404 . S
C2892 C2895 1.539 . S
C2893 C2889 1.408 . S
C2893 C2892 1.404 . S
C2893 H2905 0.930 . S
C2894 C2890 1.524 . S
C2894 H2906 0.956 . S
C2894 H2907 0.961 . S
C2894 H2908 0.961 . S
C2895 C2892 1.539 . S
C2895 H2909 0.958 . S
C2895 H2910 0.961 . S
C2895 H2911 0.960 . S
H2896 C2880 0.931 . S
H2897 C2885 0.929 . S
H2898 C2886 0.960 . S
H2899 C2886 0.962 . S
H2900 C2886 0.960 . S
H2901 C2887 0.961 . S
H2902 C2887 0.961 . S
H2903 C2887 0.961 . S
H2904 C2888 0.931 . S
H2905 C2893 0.930 . S
H2906 C2894 0.956 . S
H2907 C2894 0.961 . S
H2908 C2894 0.961 . S
H2909 C2895 0.958 . S
H2910 C2895 0.961 . S
H2911 C2895 0.960 . S
C2912 C2913 1.391 . S
C2912 C2914 1.394 . S
C2912 H2928 0.931 . S
C2913 C2912 1.391 . S
C2913 C2917 1.376 . S
C2914 C2912 1.394 . S
C2914 C2915 1.369 . S
C2914 C2918 1.531 . S
C2915 C2914 1.369 . S
C2915 C2916 1.410 . S
C2915 C2923 1.503 . S
C2916 C2915 1.410 . S
C2916 C2917 1.392 . S
C2916 C2919 1.511 . S
C2917 C2913 1.376 . S
C2917 C2916 1.392 . S
C2917 H2929 0.929 . S
C2918 C2914 1.531 . S
C2918 H2930 0.960 . S
C2918 H2931 0.962 . S
C2918 H2932 0.960 . S
C2919 C2916 1.511 . S
C2919 H2933 0.961 . S
C2919 H2934 0.961 . S
C2919 H2935 0.961 . S
C2920 C2921 1.370 . S
C2920 C2922 1.363 . S
C2920 H2936 0.931 . S
C2921 C2920 1.370 . S
C2921 C2925 1.408 . S
C2922 C2920 1.363 . S
C2922 C2923 1.370 . S
C2922 C2926 1.524 . S
C2923 C2915 1.503 . S
C2923 C2922 1.370 . S
C2923 C2924 1.403 . S
C2924 C2923 1.403 . S
C2924 C2925 1.404 . S
C2924 C2927 1.539 . S
C2925 C2921 1.408 . S
C2925 C2924 1.404 . S
C2925 H2937 0.930 . S
C2926 C2922 1.524 . S
C2926 H2938 0.956 . S
C2926 H2939 0.961 . S
C2926 H2940 0.961 . S
C2927 C2924 1.539 . S
C2927 H2941 0.958 . S
C2927 H2942 0.961 . S
C2927 H2943 0.960 . S
H2928 C2912 0.931 . S
H2929 C2917 0.929 . S
H2930 C2918 0.960 . S
H2931 C2918 0.962 . S
H2932 C2918 0.960 . S
H2933 C2919 0.961 . S
H2934 C2919 0.961 . S
H2935 C2919 0.961 . S
H2936 C2920 0.931 . S
H2937 C2925 0.930 . S
H2938 C2926 0.956 . S
H2939 C2926 0.961 . S
H2940 C2926 0.961 . S
H2941 C2927 0.958 . S
H2942 C2927 0.961 . S
H2943 C2927 0.960 . S
C2944 C2945 1.391 . S
C2944 C2946 1.394 . S
C2944 H2960 0.931 . S
C2945 C2944 1.391 . S
C2945 C2949 1.376 . S
C2946 C2944 1.394 . S
C2946 C2947 1.369 . S
C2946 C2950 1.531 . S
C2947 C2946 1.369 . S
C2947 C2948 1.410 . S
C2947 C2955 1.503 . S
C2948 C2947 1.410 . S
C2948 C2949 1.392 . S
C2948 C2951 1.511 . S
C2949 C2945 1.376 . S
C2949 C2948 1.392 . S
C2949 H2961 0.929 . S
C2950 C2946 1.531 . S
C2950 H2962 0.960 . S
C2950 H2963 0.962 . S
C2950 H2964 0.960 . S
C2951 C2948 1.511 . S
C2951 H2965 0.961 . S
C2951 H2966 0.961 . S
C2951 H2967 0.961 . S
C2952 C2953 1.370 . S
C2952 C2954 1.363 . S
C2952 H2968 0.931 . S
C2953 C2952 1.370 . S
C2953 C2957 1.408 . S
C2954 C2952 1.363 . S
C2954 C2955 1.370 . S
C2954 C2958 1.524 . S
C2955 C2947 1.503 . S
C2955 C2954 1.370 . S
C2955 C2956 1.403 . S
C2956 C2955 1.403 . S
C2956 C2957 1.404 . S
C2956 C2959 1.539 . S
C2957 C2953 1.408 . S
C2957 C2956 1.404 . S
C2957 H2969 0.930 . S
C2958 C2954 1.524 . S
C2958 H2970 0.956 . S
C2958 H2971 0.961 . S
C2958 H2972 0.961 . S
C2959 C2956 1.539 . S
C2959 H2973 0.958 . S
C2959 H2974 0.961 . S
C2959 H2975 0.960 . S
H2960 C2944 0.931 . S
H2961 C2949 0.929 . S
H2962 C2950 0.960 . S
H2963 C2950 0.962 . S
H2964 C2950 0.960 . S
H2965 C2951 0.961 . S
H2966 C2951 0.961 . S
H2967 C2951 0.961 . S
H2968 C2952 0.931 . S
H2969 C2957 0.930 . S
H2970 C2958 0.956 . S
H2971 C2958 0.961 . S
H2972 C2958 0.961 . S
H2973 C2959 0.958 . S
H2974 C2959 0.961 . S
H2975 C2959 0.960 . S
C2976 C2977 1.391 . S
C2976 C2978 1.394 . S
C2976 H2992 0.931 . S
C2977 C2976 1.391 . S
C2977 C2981 1.376 . S
C2978 C2976 1.394 . S
C2978 C2979 1.369 . S
C2978 C2982 1.531 . S
C2979 C2978 1.369 . S
C2979 C2980 1.410 . S
C2979 C2987 1.503 . S
C2980 C2979 1.410 . S
C2980 C2981 1.392 . S
C2980 C2983 1.511 . S
C2981 C2977 1.376 . S
C2981 C2980 1.392 . S
C2981 H2993 0.929 . S
C2982 C2978 1.531 . S
C2982 H2994 0.960 . S
C2982 H2995 0.962 . S
C2982 H2996 0.960 . S
C2983 C2980 1.511 . S
C2983 H2997 0.961 . S
C2983 H2998 0.961 . S
C2983 H2999 0.961 . S
C2984 C2985 1.370 . S
C2984 C2986 1.363 . S
C2984 H3000 0.931 . S
C2985 C2984 1.370 . S
C2985 C2989 1.408 . S
C2986 C2984 1.363 . S
C2986 C2987 1.370 . S
C2986 C2990 1.524 . S
C2987 C2979 1.503 . S
C2987 C2986 1.370 . S
C2987 C2988 1.403 . S
C2988 C2987 1.403 . S
C2988 C2989 1.404 . S
C2988 C2991 1.539 . S
C2989 C2985 1.408 . S
C2989 C2988 1.404 . S
C2989 H3001 0.930 . S
C2990 C2986 1.524 . S
C2990 H3002 0.956 . S
C2990 H3003 0.961 . S
C2990 H3004 0.961 . S
C2991 C2988 1.539 . S
C2991 H3005 0.958 . S
C2991 H3006 0.961 . S
C2991 H3007 0.960 . S
H2992 C2976 0.931 . S
H2993 C2981 0.929 . S
H2994 C2982 0.960 . S
H2995 C2982 0.962 . S
H2996 C2982 0.960 . S
H2997 C2983 0.961 . S
H2998 C2983 0.961 . S
H2999 C2983 0.961 . S
H3000 C2984 0.931 . S
H3001 C2989 0.930 . S
H3002 C2990 0.956 . S
H3003 C2990 0.961 . S
H3004 C2990 0.961 . S
H3005 C2991 0.958 . S
H3006 C2991 0.961 . S
H3007 C2991 0.960 . S
C3008 C3009 1.391 . S
C3008 C3010 1.394 . S
C3008 H3024 0.931 . S
C3009 C3008 1.391 . S
C3009 C3013 1.376 . S
C3010 C3008 1.394 . S
C3010 C3011 1.369 . S
C3010 C3014 1.531 . S
C3011 C3010 1.369 . S
C3011 C3012 1.410 . S
C3011 C3019 1.503 . S
C3012 C3011 1.410 . S
C3012 C3013 1.392 . S
C3012 C3015 1.511 . S
C3013 C3009 1.376 . S
C3013 C3012 1.392 . S
C3013 H3025 0.929 . S
C3014 C3010 1.531 . S
C3014 H3026 0.960 . S
C3014 H3027 0.962 . S
C3014 H3028 0.960 . S
C3015 C3012 1.511 . S
C3015 H3029 0.961 . S
C3015 H3030 0.961 . S
C3015 H3031 0.961 . S
C3016 C3017 1.370 . S
C3016 C3018 1.363 . S
C3016 H3032 0.931 . S
C3017 C3016 1.370 . S
C3017 C3021 1.408 . S
C3018 C3016 1.363 . S
C3018 C3019 1.370 . S
C3018 C3022 1.524 . S
C3019 C3011 1.503 . S
C3019 C3018 1.370 . S
C3019 C3020 1.403 . S
C3020 C3019 1.403 . S
C3020 C3021 1.404 . S
C3020 C3023 1.539 . S
C3021 C3017 1.408 . S
C3021 C3020 1.404 . S
C3021 H3033 0.930 . S
C3022 C3018 1.524 . S
C3022 H3034 0.956 . S
C3022 H3035 0.961 . S
C3022 H3036 0.961 . S
C3023 C3020 1.539 . S
C3023 H3037 0.958 . S
C3023 H3038 0.961 . S
C3023 H3039 0.960 . S
H3024 C3008 0.931 . S
H3025 C3013 0.929 . S
H3026 C3014 0.960 . S
H3027 C3014 0.962 . S
H3028 C3014 0.960 . S
H3029 C3015 0.961 . S
H3030 C3015 0.961 . S
H3031 C3015 0.961 . S
H3032 C3016 0.931 . S
H3033 C3021 0.930 . S
H3034 C3022 0.956 . S
H3035 C3022 0.961 . S
H3036 C3022 0.961 . S
H3037 C3023 0.958 . S
H3038 C3023 0.961 . S
H3039 C3023 0.960 . S
C3040 C3041 1.391 . S
C3040 C3042 1.394 . S
C3040 H3056 0.931 . S
C3041 C3040 1.391 . S
C3041 C3045 1.376 . S
C3042 C3040 1.394 . S
C3042 C3043 1.369 . S
C3042 C3046 1.531 . S
C3043 C3042 1.369 . S
C3043 C3044 1.410 . S
C3043 C3051 1.503 . S
C3044 C3043 1.410 . S
C3044 C3045 1.392 . S
C3044 C3047 1.511 . S
C3045 C3041 1.376 . S
C3045 C3044 1.392 . S
C3045 H3057 0.929 . S
C3046 C3042 1.531 . S
C3046 H3058 0.960 . S
C3046 H3059 0.962 . S
C3046 H3060 0.960 . S
C3047 C3044 1.511 . S
C3047 H3061 0.961 . S
C3047 H3062 0.961 . S
C3047 H3063 0.961 . S
C3048 C3049 1.370 . S
C3048 C3050 1.363 . S
C3048 H3064 0.931 . S
C3049 C3048 1.370 . S
C3049 C3053 1.408 . S
C3050 C3048 1.363 . S
C3050 C3051 1.370 . S
C3050 C3054 1.524 . S
C3051 C3043 1.503 . S
C3051 C3050 1.370 . S
C3051 C3052 1.403 . S
C3052 C3051 1.403 . S
C3052 C3053 1.404 . S
C3052 C3055 1.539 . S
C3053 C3049 1.408 . S
C3053 C3052 1.404 . S
C3053 H3065 0.930 . S
C3054 C3050 1.524 . S
C3054 H3066 0.956 . S
C3054 H3067 0.961 . S
C3054 H3068 0.961 . S
C3055 C3052 1.539 . S
C3055 H3069 0.958 . S
C3055 H3070 0.961 . S
C3055 H3071 0.960 . S
H3056 C3040 0.931 . S
H3057 C3045 0.929 . S
H3058 C3046 0.960 . S
H3059 C3046 0.962 . S
H3060 C3046 0.960 . S
H3061 C3047 0.961 . S
H3062 C3047 0.961 . S
H3063 C3047 0.961 . S
H3064 C3048 0.931 . S
H3065 C3053 0.930 . S
H3066 C3054 0.956 . S
H3067 C3054 0.961 . S
H3068 C3054 0.961 . S
H3069 C3055 0.958 . S
H3070 C3055 0.961 . S
H3071 C3055 0.960 . S
C3072 C3073 1.391 . S
C3072 C3074 1.394 . S
C3072 H3088 0.931 . S
C3073 C3072 1.391 . S
C3073 C3077 1.376 . S
C3074 C3072 1.394 . S
C3074 C3075 1.369 . S
C3074 C3078 1.531 . S
C3075 C3074 1.369 . S
C3075 C3076 1.410 . S
C3075 C3083 1.503 . S
C3076 C3075 1.410 . S
C3076 C3077 1.392 . S
C3076 C3079 1.511 . S
C3077 C3073 1.376 . S
C3077 C3076 1.392 . S
C3077 H3089 0.929 . S
C3078 C3074 1.531 . S
C3078 H3090 0.960 . S
C3078 H3091 0.962 . S
C3078 H3092 0.960 . S
C3079 C3076 1.511 . S
C3079 H3093 0.961 . S
C3079 H3094 0.961 . S
C3079 H3095 0.961 . S
C3080 C3081 1.370 . S
C3080 C3082 1.363 . S
C3080 H3096 0.931 . S
C3081 C3080 1.370 . S
C3081 C3085 1.408 . S
C3082 C3080 1.363 . S
C3082 C3083 1.370 . S
C3082 C3086 1.524 . S
C3083 C3075 1.503 . S
C3083 C3082 1.370 . S
C3083 C3084 1.403 . S
C3084 C3083 1.403 . S
C3084 C3085 1.404 . S
C3084 C3087 1.539 . S
C3085 C3081 1.408 . S
C3085 C3084 1.404 . S
C3085 H3097 0.930 . S
C3086 C3082 1.524 . S
C3086 H3098 0.956 . S
C3086 H3099 0.961 . S
C3086 H3100 0.961 . S
C3087 C3084 1.539 . S
C3087 H3101 0.958 . S
C3087 H3102 0.961 . S
C3087 H3103 0.960 . S
H3088 C3072 0.931 . S
H3089 C3077 0.929 . S
H3090 C3078 0.960 . S
H3091 C3078 0.962 . S
H3092 C3078 0.960 . S
H3093 C3079 0.961 . S
H3094 C3079 0.961 . S
H3095 C3079 0.961 . S
H3096 C3080 0.931 . S
H3097 C3085 0.930 . S
H3098 C3086 0.956 . S
H3099 C3086 0.961 . S
H3100 C3086 0.961 . S
H3101 C3087 0.958 . S
H3102 C3087 0.961 . S
H3103 C3087 0.960 . S
C3104 C3105 1.391 . S
C3104 C3106 1.394 . S
C3104 H3120 0.931 . S
C3105 C3104 1.391 . S
C3105 C3109 1.376 . S
C3106 C3104 1.394 . S
C3106 C3107 1.369 . S
C3106 C3110 1.531 . S
C3107 C3106 1.369 . S
C3107 C3108 1.410 . S
C3107 C3115 1.503 . S
C3108 C3107 1.410 . S
C3108 C3109 1.392 . S
C3108 C3111 1.511 . S
C3109 C3105 1.376 . S
C3109 C3108 1.392 . S
C3109 H3121 0.929 . S
C3110 C3106 1.531 . S
C3110 H3122 0.960 . S
C3110 H3123 0.962 . S
C3110 H3124 0.960 . S
C3111 C3108 1.511 . S
C3111 H3125 0.961 . S
C3111 H3126 0.961 . S
C3111 H3127 0.961 . S
C3112 C3113 1.370 . S
C3112 C3114 1.363 . S
C3112 H3128 0.931 . S
C3113 C3112 1.370 . S
C3113 C3117 1.408 . S
C3114 C3112 1.363 . S
C3114 C3115 1.370 . S
C3114 C3118 1.524 . S
C3115 C3107 1.503 . S
C3115 C3114 1.370 . S
C3115 C3116 1.403 . S
C3116 C3115 1.403 . S
C3116 C3117 1.404 . S
C3116 C3119 1.539 . S
C3117 C3113 1.408 . S
C3117 C3116 1.404 . S
C3117 H3129 0.930 . S
C3118 C3114 1.524 . S
C3118 H3130 0.956 . S
C3118 H3131 0.961 . S
C3118 H3132 0.961 . S
C3119 C3116 1.539 . S
C3119 H3133 0.958 . S
C3119 H3134 0.961 . S
C3119 H3135 0.960 . S
H3120 C3104 0.931 . S
H3121 C3109 0.929 . S
H3122 C3110 0.960 . S
H3123 C3110 0.962 . S
H3124 C3110 0.960 . S
H3125 C3111 0.961 . S
H3126 C3111 0.961 . S
H3127 C3111 0.961 . S
H3128 C3112 0.931 . S
H3129 C3117 0.930 . S
H3130 C3118 0.956 . S
H3131 C3118 0.961 . S
H3132 C3118 0.961 . S
H3133 C3119 0.958 . S
H3134 C3119 0.961 . S
H3135 C3119 0.960 . S
C3136 C3137 1.391 . S
C3136 C3138 1.394 . S
C3136 H3152 0.931 . S
C3137 C3136 1.391 . S
C3137 C3141 1.376 . S
C3138 C3136 1.394 . S
C3138 C3139 1.369 . S
C3138 C3142 1.531 . S
C3139 C3138 1.369 . S
C3139 C3140 1.410 . S
C3139 C3147 1.503 . S
C3140 C3139 1.410 . S
C3140 C3141 1.392 . S
C3140 C3143 1.511 . S
C3141 C3137 1.376 . S
C3141 C3140 1.392 . S
C3141 H3153 0.929 . S
C3142 C3138 1.531 . S
C3142 H3154 0.960 . S
C3142 H3155 0.962 . S
C3142 H3156 0.960 . S
C3143 C3140 1.511 . S
C3143 H3157 0.961 . S
C3143 H3158 0.961 . S
C3143 H3159 0.961 . S
C3144 C3145 1.370 . S
C3144 C3146 1.363 . S
C3144 H3160 0.931 . S
C3145 C3144 1.370 . S
C3145 C3149 1.408 . S
C3146 C3144 1.363 . S
C3146 C3147 1.370 . S
C3146 C3150 1.524 . S
C3147 C3139 1.503 . S
C3147 C3146 1.370 . S
C3147 C3148 1.403 . S
C3148 C3147 1.403 . S
C3148 C3149 1.404 . S
C3148 C3151 1.539 . S
C3149 C3145 1.408 . S
C3149 C3148 1.404 . S
C3149 H3161 0.930 . S
C3150 C3146 1.524 . S
C3150 H3162 0.956 . S
C3150 H3163 0.961 . S
C3150 H3164 0.961 . S
C3151 C3148 1.539 . S
C3151 H3165 0.958 . S
C3151 H3166 0.961 1_545 S
C3151 H3167 0.960 . S
H3152 C3136 0.931 . S
H3153 C3141 0.929 . S
H3154 C3142 0.960 . S
H3155 C3142 0.962 . S
H3156 C3142 0.960 . S
H3157 C3143 0.961 . S
H3158 C3143 0.961 . S
H3159 C3143 0.961 . S
H3160 C3144 0.931 . S
H3161 C3149 0.930 . S
H3162 C3150 0.956 . S
H3163 C3150 0.961 . S
H3164 C3150 0.961 . S
H3165 C3151 0.958 . S
H3166 C3151 0.961 1_565 S
H3167 C3151 0.960 . S
C3168 C3169 1.391 . S
C3168 C3170 1.394 . S
C3168 H3184 0.931 . S
C3169 C3168 1.391 . S
C3169 C3173 1.376 . S
C3170 C3168 1.394 . S
C3170 C3171 1.369 . S
C3170 C3174 1.531 . S
C3171 C3170 1.369 . S
C3171 C3172 1.410 . S
C3171 C3179 1.503 . S
C3172 C3171 1.410 . S
C3172 C3173 1.392 . S
C3172 C3175 1.511 . S
C3173 C3169 1.376 . S
C3173 C3172 1.392 . S
C3173 H3185 0.929 . S
C3174 C3170 1.531 . S
C3174 H3186 0.960 . S
C3174 H3187 0.962 . S
C3174 H3188 0.960 . S
C3175 C3172 1.511 . S
C3175 H3189 0.961 . S
C3175 H3190 0.961 . S
C3175 H3191 0.961 . S
C3176 C3177 1.370 . S
C3176 C3178 1.363 . S
C3176 H3192 0.931 . S
C3177 C3176 1.370 . S
C3177 C3181 1.408 . S
C3178 C3176 1.363 . S
C3178 C3179 1.370 . S
C3178 C3182 1.524 . S
C3179 C3171 1.503 . S
C3179 C3178 1.370 . S
C3179 C3180 1.403 . S
C3180 C3179 1.403 . S
C3180 C3181 1.404 . S
C3180 C3183 1.539 . S
C3181 C3177 1.408 . S
C3181 C3180 1.404 . S
C3181 H3193 0.930 . S
C3182 C3178 1.524 . S
C3182 H3194 0.956 . S
C3182 H3195 0.961 . S
C3182 H3196 0.961 . S
C3183 C3180 1.539 . S
C3183 H3197 0.958 . S
C3183 H3198 0.961 . S
C3183 H3199 0.960 . S
H3184 C3168 0.931 . S
H3185 C3173 0.929 . S
H3186 C3174 0.960 . S
H3187 C3174 0.962 . S
H3188 C3174 0.960 . S
H3189 C3175 0.961 . S
H3190 C3175 0.961 . S
H3191 C3175 0.961 . S
H3192 C3176 0.931 . S
H3193 C3181 0.930 . S
H3194 C3182 0.956 . S
H3195 C3182 0.961 . S
H3196 C3182 0.961 . S
H3197 C3183 0.958 . S
H3198 C3183 0.961 . S
H3199 C3183 0.960 . S
C3200 C3201 1.391 . S
C3200 C3202 1.394 . S
C3200 H3216 0.931 . S
C3201 C3200 1.391 . S
C3201 C3205 1.376 . S
C3202 C3200 1.394 . S
C3202 C3203 1.369 . S
C3202 C3206 1.531 . S
C3203 C3202 1.369 . S
C3203 C3204 1.410 . S
C3203 C3211 1.503 . S
C3204 C3203 1.410 . S
C3204 C3205 1.392 . S
C3204 C3207 1.511 . S
C3205 C3201 1.376 . S
C3205 C3204 1.392 . S
C3205 H3217 0.929 . S
C3206 C3202 1.531 . S
C3206 H3218 0.960 . S
C3206 H3219 0.962 . S
C3206 H3220 0.960 . S
C3207 C3204 1.511 . S
C3207 H3221 0.961 . S
C3207 H3222 0.961 . S
C3207 H3223 0.961 . S
C3208 C3209 1.370 . S
C3208 C3210 1.363 . S
C3208 H3224 0.931 . S
C3209 C3208 1.370 . S
C3209 C3213 1.408 . S
C3210 C3208 1.363 . S
C3210 C3211 1.370 . S
C3210 C3214 1.524 . S
C3211 C3203 1.503 . S
C3211 C3210 1.370 . S
C3211 C3212 1.403 . S
C3212 C3211 1.403 . S
C3212 C3213 1.404 . S
C3212 C3215 1.539 . S
C3213 C3209 1.408 . S
C3213 C3212 1.404 . S
C3213 H3225 0.930 . S
C3214 C3210 1.524 . S
C3214 H3226 0.956 . S
C3214 H3227 0.961 . S
C3214 H3228 0.961 . S
C3215 C3212 1.539 . S
C3215 H3229 0.958 . S
C3215 H3230 0.961 . S
C3215 H3231 0.960 . S
H3216 C3200 0.931 . S
H3217 C3205 0.929 . S
H3218 C3206 0.960 . S
H3219 C3206 0.962 . S
H3220 C3206 0.960 . S
H3221 C3207 0.961 . S
H3222 C3207 0.961 . S
H3223 C3207 0.961 . S
H3224 C3208 0.931 . S
H3225 C3213 0.930 . S
H3226 C3214 0.956 . S
H3227 C3214 0.961 . S
H3228 C3214 0.961 . S
H3229 C3215 0.958 . S
H3230 C3215 0.961 . S
H3231 C3215 0.960 . S
C3232 C3233 1.391 . S
C3232 C3234 1.394 . S
C3232 H3248 0.931 . S
C3233 C3232 1.391 . S
C3233 C3237 1.376 . S
C3234 C3232 1.394 . S
C3234 C3235 1.369 . S
C3234 C3238 1.531 . S
C3235 C3234 1.369 . S
C3235 C3236 1.410 . S
C3235 C3243 1.503 . S
C3236 C3235 1.410 . S
C3236 C3237 1.392 . S
C3236 C3239 1.511 . S
C3237 C3233 1.376 . S
C3237 C3236 1.392 . S
C3237 H3249 0.929 . S
C3238 C3234 1.531 . S
C3238 H3250 0.960 . S
C3238 H3251 0.962 . S
C3238 H3252 0.960 . S
C3239 C3236 1.511 . S
C3239 H3253 0.961 . S
C3239 H3254 0.961 . S
C3239 H3255 0.961 . S
C3240 C3241 1.370 . S
C3240 C3242 1.363 . S
C3240 H3256 0.931 . S
C3241 C3240 1.370 . S
C3241 C3245 1.408 . S
C3242 C3240 1.363 . S
C3242 C3243 1.370 . S
C3242 C3246 1.524 . S
C3243 C3235 1.503 . S
C3243 C3242 1.370 . S
C3243 C3244 1.403 . S
C3244 C3243 1.403 . S
C3244 C3245 1.404 . S
C3244 C3247 1.545 . S
C3245 C3241 1.408 . S
C3245 C3244 1.404 . S
C3245 H3257 0.930 . S
C3246 C3242 1.524 . S
C3246 H3258 0.956 . S
C3246 H3259 0.961 . S
C3246 H3260 0.961 . S
C3247 C3244 1.545 . S
C3247 H3261 0.956 1_545 S
C3247 H3262 0.956 1_545 S
C3247 H3263 0.962 . S
H3248 C3232 0.931 . S
H3249 C3237 0.929 . S
H3250 C3238 0.960 . S
H3251 C3238 0.962 . S
H3252 C3238 0.960 . S
H3253 C3239 0.961 . S
H3254 C3239 0.961 . S
H3255 C3239 0.961 . S
H3256 C3240 0.931 . S
H3257 C3245 0.930 . S
H3258 C3246 0.956 . S
H3259 C3246 0.961 . S
H3260 C3246 0.961 . S
H3261 C3247 0.956 1_565 S
H3262 C3247 0.956 1_565 S
H3263 C3247 0.962 . S
C3264 C3265 1.391 . S
C3264 C3266 1.394 . S
C3264 H3280 0.931 . S
C3265 C3264 1.391 . S
C3265 C3269 1.376 . S
C3266 C3264 1.394 . S
C3266 C3267 1.369 . S
C3266 C3270 1.531 . S
C3267 C3266 1.369 . S
C3267 C3268 1.410 . S
C3267 C3275 1.503 . S
C3268 C3267 1.410 . S
C3268 C3269 1.392 . S
C3268 C3271 1.511 . S
C3269 C3265 1.376 . S
C3269 C3268 1.392 . S
C3269 H3281 0.929 . S
C3270 C3266 1.531 . S
C3270 H3282 0.960 . S
C3270 H3283 0.962 . S
C3270 H3284 0.960 . S
C3271 C3268 1.511 . S
C3271 H3285 0.961 . S
C3271 H3286 0.961 . S
C3271 H3287 0.961 . S
C3272 C3273 1.370 . S
C3272 C3274 1.363 . S
C3272 H3288 0.931 . S
C3273 C3272 1.370 . S
C3273 C3277 1.408 . S
C3274 C3272 1.363 . S
C3274 C3275 1.370 . S
C3274 C3278 1.524 . S
C3275 C3267 1.503 . S
C3275 C3274 1.370 . S
C3275 C3276 1.403 . S
C3276 C3275 1.403 . S
C3276 C3277 1.404 . S
C3276 C3279 1.539 . S
C3277 C3273 1.408 . S
C3277 C3276 1.404 . S
C3277 H3289 0.930 . S
C3278 C3274 1.524 . S
C3278 H3290 0.956 . S
C3278 H3291 0.961 . S
C3278 H3292 0.961 . S
C3279 C3276 1.539 . S
C3279 H3293 0.958 1_565 S
C3279 H3294 0.961 . S
C3279 H3295 0.960 . S
H3280 C3264 0.931 . S
H3281 C3269 0.929 . S
H3282 C3270 0.960 . S
H3283 C3270 0.962 . S
H3284 C3270 0.960 . S
H3285 C3271 0.961 . S
H3286 C3271 0.961 . S
H3287 C3271 0.961 . S
H3288 C3272 0.931 . S
H3289 C3277 0.930 . S
H3290 C3278 0.956 . S
H3291 C3278 0.961 . S
H3292 C3278 0.961 . S
H3293 C3279 0.958 1_545 S
H3294 C3279 0.961 . S
H3295 C3279 0.960 . S
C3296 C3297 1.391 . S
C3296 C3298 1.394 . S
C3296 H3312 0.931 . S
C3297 C3296 1.391 . S
C3297 C3301 1.376 . S
C3298 C3296 1.394 . S
C3298 C3299 1.369 . S
C3298 C3302 1.531 . S
C3299 C3298 1.369 . S
C3299 C3300 1.410 . S
C3299 C3307 1.503 . S
C3300 C3299 1.410 . S
C3300 C3301 1.392 . S
C3300 C3303 1.511 . S
C3301 C3297 1.376 . S
C3301 C3300 1.392 . S
C3301 H3313 0.929 . S
C3302 C3298 1.531 . S
C3302 H3314 0.960 . S
C3302 H3315 0.962 . S
C3302 H3316 0.960 . S
C3303 C3300 1.511 . S
C3303 H3317 0.961 . S
C3303 H3318 0.961 . S
C3303 H3319 0.961 . S
C3304 C3305 1.370 . S
C3304 C3306 1.363 . S
C3304 H3320 0.931 . S
C3305 C3304 1.370 . S
C3305 C3309 1.408 . S
C3306 C3304 1.363 . S
C3306 C3307 1.370 . S
C3306 C3310 1.524 . S
C3307 C3299 1.503 . S
C3307 C3306 1.370 . S
C3307 C3308 1.403 . S
C3308 C3307 1.403 . S
C3308 C3309 1.404 . S
C3308 C3311 1.539 . S
C3309 C3305 1.408 . S
C3309 C3308 1.404 . S
C3309 H3321 0.930 . S
C3310 C3306 1.524 . S
C3310 H3322 0.956 . S
C3310 H3323 0.961 . S
C3310 H3324 0.961 . S
C3311 C3308 1.539 . S
C3311 H3325 0.958 1_545 S
C3311 H3326 0.961 1_545 S
C3311 H3327 0.960 . S
H3312 C3296 0.931 . S
H3313 C3301 0.929 . S
H3314 C3302 0.960 . S
H3315 C3302 0.962 . S
H3316 C3302 0.960 . S
H3317 C3303 0.961 . S
H3318 C3303 0.961 . S
H3319 C3303 0.961 . S
H3320 C3304 0.931 . S
H3321 C3309 0.930 . S
H3322 C3310 0.956 . S
H3323 C3310 0.961 . S
H3324 C3310 0.961 . S
H3325 C3311 0.958 1_565 S
H3326 C3311 0.961 1_565 S
H3327 C3311 0.960 . S
C3328 C3329 1.391 . S
C3328 C3330 1.394 . S
C3328 H3344 0.931 . S
C3329 C3328 1.391 . S
C3329 C3333 1.376 . S
C3330 C3328 1.394 . S
C3330 C3331 1.369 . S
C3330 C3334 1.531 . S
C3331 C3330 1.369 . S
C3331 C3332 1.410 . S
C3331 C3339 1.503 . S
C3332 C3331 1.410 . S
C3332 C3333 1.392 . S
C3332 C3335 1.511 . S
C3333 C3329 1.376 . S
C3333 C3332 1.392 . S
C3333 H3345 0.929 . S
C3334 C3330 1.531 . S
C3334 H3346 0.960 . S
C3334 H3347 0.962 . S
C3334 H3348 0.960 . S
C3335 C3332 1.511 . S
C3335 H3349 0.961 . S
C3335 H3350 0.961 . S
C3335 H3351 0.961 . S
C3336 C3337 1.370 . S
C3336 C3338 1.363 . S
C3336 H3352 0.931 . S
C3337 C3336 1.370 . S
C3337 C3341 1.408 . S
C3338 C3336 1.363 . S
C3338 C3339 1.370 . S
C3338 C3342 1.524 . S
C3339 C3331 1.503 . S
C3339 C3338 1.370 . S
C3339 C3340 1.403 . S
C3340 C3339 1.403 . S
C3340 C3341 1.404 . S
C3340 C3343 1.539 . S
C3341 C3337 1.408 . S
C3341 C3340 1.404 . S
C3341 H3353 0.930 . S
C3342 C3338 1.524 . S
C3342 H3354 0.956 . S
C3342 H3355 0.961 . S
C3342 H3356 0.961 . S
C3343 C3340 1.539 . S
C3343 H3357 0.958 1_545 S
C3343 H3358 0.961 . S
C3343 H3359 0.960 . S
H3344 C3328 0.931 . S
H3345 C3333 0.929 . S
H3346 C3334 0.960 . S
H3347 C3334 0.962 . S
H3348 C3334 0.960 . S
H3349 C3335 0.961 . S
H3350 C3335 0.961 . S
H3351 C3335 0.961 . S
H3352 C3336 0.931 . S
H3353 C3341 0.930 . S
H3354 C3342 0.956 . S
H3355 C3342 0.961 . S
H3356 C3342 0.961 . S
H3357 C3343 0.958 1_565 S
H3358 C3343 0.961 . S
H3359 C3343 0.960 . S
C3360 C3361 1.391 . S
C3360 C3362 1.394 . S
C3360 H3376 0.931 . S
C3361 C3360 1.391 . S
C3361 C3365 1.376 . S
C3362 C3360 1.394 . S
C3362 C3363 1.369 . S
C3362 C3366 1.531 . S
C3363 C3362 1.369 . S
C3363 C3364 1.410 . S
C3363 C3371 1.503 . S
C3364 C3363 1.410 . S
C3364 C3365 1.392 . S
C3364 C3367 1.511 . S
C3365 C3361 1.376 . S
C3365 C3364 1.392 . S
C3365 H3377 0.929 . S
C3366 C3362 1.531 . S
C3366 H3378 0.960 . S
C3366 H3379 0.962 . S
C3366 H3380 0.960 . S
C3367 C3364 1.511 . S
C3367 H3381 0.961 . S
C3367 H3382 0.961 . S
C3367 H3383 0.961 . S
C3368 C3369 1.370 . S
C3368 C3370 1.363 . S
C3368 H3384 0.931 . S
C3369 C3368 1.370 . S
C3369 C3373 1.408 . S
C3370 C3368 1.363 . S
C3370 C3371 1.370 . S
C3370 C3374 1.524 . S
C3371 C3363 1.503 . S
C3371 C3370 1.370 . S
C3371 C3372 1.403 . S
C3372 C3371 1.403 . S
C3372 C3373 1.404 . S
C3372 C3375 1.539 . S
C3373 C3369 1.408 . S
C3373 C3372 1.404 . S
C3373 H3385 0.930 . S
C3374 C3370 1.524 . S
C3374 H3386 0.956 . S
C3374 H3387 0.961 . S
C3374 H3388 0.961 . S
C3375 C3372 1.539 . S
C3375 H3389 0.958 . S
C3375 H3390 0.961 . S
C3375 H3391 0.960 . S
H3376 C3360 0.931 . S
H3377 C3365 0.929 . S
H3378 C3366 0.960 . S
H3379 C3366 0.962 . S
H3380 C3366 0.960 . S
H3381 C3367 0.961 . S
H3382 C3367 0.961 . S
H3383 C3367 0.961 . S
H3384 C3368 0.931 . S
H3385 C3373 0.930 . S
H3386 C3374 0.956 . S
H3387 C3374 0.961 . S
H3388 C3374 0.961 . S
H3389 C3375 0.958 . S
H3390 C3375 0.961 . S
H3391 C3375 0.960 . S
C3392 C3393 1.391 . S
C3392 C3394 1.394 . S
C3392 H3408 0.931 . S
C3393 C3392 1.391 . S
C3393 C3397 1.376 . S
C3394 C3392 1.394 . S
C3394 C3395 1.369 . S
C3394 C3398 1.531 . S
C3395 C3394 1.369 . S
C3395 C3396 1.410 . S
C3395 C3403 1.503 . S
C3396 C3395 1.410 . S
C3396 C3397 1.392 . S
C3396 C3399 1.511 . S
C3397 C3393 1.376 . S
C3397 C3396 1.392 . S
C3397 H3409 0.929 . S
C3398 C3394 1.531 . S
C3398 H3410 0.960 . S
C3398 H3411 0.962 . S
C3398 H3412 0.960 . S
C3399 C3396 1.511 . S
C3399 H3413 0.961 . S
C3399 H3414 0.961 . S
C3399 H3415 0.961 . S
C3400 C3401 1.370 . S
C3400 C3402 1.363 . S
C3400 H3416 0.931 . S
C3401 C3400 1.370 . S
C3401 C3405 1.408 . S
C3402 C3400 1.363 . S
C3402 C3403 1.370 . S
C3402 C3406 1.524 . S
C3403 C3395 1.503 . S
C3403 C3402 1.370 . S
C3403 C3404 1.403 . S
C3404 C3403 1.403 . S
C3404 C3405 1.404 . S
C3404 C3407 1.539 . S
C3405 C3401 1.408 . S
C3405 C3404 1.404 . S
C3405 H3417 0.930 . S
C3406 C3402 1.524 . S
C3406 H3418 0.956 . S
C3406 H3419 0.961 . S
C3406 H3420 0.961 . S
C3407 C3404 1.539 . S
C3407 H3421 0.958 . S
C3407 H3422 0.961 . S
C3407 H3423 0.960 . S
H3408 C3392 0.931 . S
H3409 C3397 0.929 . S
H3410 C3398 0.960 . S
H3411 C3398 0.962 . S
H3412 C3398 0.960 . S
H3413 C3399 0.961 . S
H3414 C3399 0.961 . S
H3415 C3399 0.961 . S
H3416 C3400 0.931 . S
H3417 C3405 0.930 . S
H3418 C3406 0.956 . S
H3419 C3406 0.961 . S
H3420 C3406 0.961 . S
H3421 C3407 0.958 . S
H3422 C3407 0.961 . S
H3423 C3407 0.960 . S
C3424 C3425 1.391 . S
C3424 C3426 1.394 . S
C3424 H3440 0.931 . S
C3425 C3424 1.391 . S
C3425 C3429 1.376 . S
C3426 C3424 1.394 . S
C3426 C3427 1.369 . S
C3426 C3430 1.531 . S
C3427 C3426 1.369 . S
C3427 C3428 1.410 . S
C3427 C3435 1.503 . S
C3428 C3427 1.410 . S
C3428 C3429 1.392 . S
C3428 C3431 1.511 . S
C3429 C3425 1.376 . S
C3429 C3428 1.392 . S
C3429 H3441 0.929 . S
C3430 C3426 1.531 . S
C3430 H3442 0.960 . S
C3430 H3443 0.962 . S
C3430 H3444 0.960 . S
C3431 C3428 1.511 . S
C3431 H3445 0.961 . S
C3431 H3446 0.961 . S
C3431 H3447 0.961 . S
C3432 C3433 1.370 . S
C3432 C3434 1.363 . S
C3432 H3448 0.931 . S
C3433 C3432 1.370 . S
C3433 C3437 1.408 . S
C3434 C3432 1.363 . S
C3434 C3435 1.370 . S
C3434 C3438 1.524 . S
C3435 C3427 1.503 . S
C3435 C3434 1.370 . S
C3435 C3436 1.403 . S
C3436 C3435 1.403 . S
C3436 C3437 1.404 . S
C3436 C3439 1.539 . S
C3437 C3433 1.408 . S
C3437 C3436 1.404 . S
C3437 H3449 0.930 . S
C3438 C3434 1.524 . S
C3438 H3450 0.956 . S
C3438 H3451 0.961 . S
C3438 H3452 0.961 . S
C3439 C3436 1.539 . S
C3439 H3453 0.958 . S
C3439 H3454 0.961 . S
C3439 H3455 0.960 . S
H3440 C3424 0.931 . S
H3441 C3429 0.929 . S
H3442 C3430 0.960 . S
H3443 C3430 0.962 . S
H3444 C3430 0.960 . S
H3445 C3431 0.961 . S
H3446 C3431 0.961 . S
H3447 C3431 0.961 . S
H3448 C3432 0.931 . S
H3449 C3437 0.930 . S
H3450 C3438 0.956 . S
H3451 C3438 0.961 . S
H3452 C3438 0.961 . S
H3453 C3439 0.958 . S
H3454 C3439 0.961 . S
H3455 C3439 0.960 . S
C3456 C3457 1.391 . S
C3456 C3458 1.394 . S
C3456 H3472 0.931 . S
C3457 C3456 1.391 . S
C3457 C3461 1.376 . S
C3458 C3456 1.394 . S
C3458 C3459 1.369 . S
C3458 C3462 1.531 . S
C3459 C3458 1.369 . S
C3459 C3460 1.410 . S
C3459 C3467 1.503 . S
C3460 C3459 1.410 . S
C3460 C3461 1.392 . S
C3460 C3463 1.511 . S
C3461 C3457 1.376 . S
C3461 C3460 1.392 . S
C3461 H3473 0.929 . S
C3462 C3458 1.531 . S
C3462 H3474 0.960 . S
C3462 H3475 0.962 . S
C3462 H3476 0.960 . S
C3463 C3460 1.511 . S
C3463 H3477 0.961 . S
C3463 H3478 0.961 . S
C3463 H3479 0.961 . S
C3464 C3465 1.370 . S
C3464 C3466 1.363 . S
C3464 H3480 0.931 . S
C3465 C3464 1.370 . S
C3465 C3469 1.408 . S
C3466 C3464 1.363 . S
C3466 C3467 1.370 . S
C3466 C3470 1.524 . S
C3467 C3459 1.503 . S
C3467 C3466 1.370 . S
C3467 C3468 1.403 . S
C3468 C3467 1.403 . S
C3468 C3469 1.404 . S
C3468 C3471 1.539 . S
C3469 C3465 1.408 . S
C3469 C3468 1.404 . S
C3469 H3481 0.930 . S
C3470 C3466 1.524 . S
C3470 H3482 0.956 . S
C3470 H3483 0.961 . S
C3470 H3484 0.961 . S
C3471 C3468 1.539 . S
C3471 H3485 0.958 . S
C3471 H3486 0.961 . S
C3471 H3487 0.960 . S
H3472 C3456 0.931 . S
H3473 C3461 0.929 . S
H3474 C3462 0.960 . S
H3475 C3462 0.962 . S
H3476 C3462 0.960 . S
H3477 C3463 0.961 . S
H3478 C3463 0.961 . S
H3479 C3463 0.961 . S
H3480 C3464 0.931 . S
H3481 C3469 0.930 . S
H3482 C3470 0.956 . S
H3483 C3470 0.961 . S
H3484 C3470 0.961 . S
H3485 C3471 0.958 . S
H3486 C3471 0.961 . S
H3487 C3471 0.960 . S
C3488 C3489 1.391 . S
C3488 C3490 1.394 . S
C3488 H3504 0.931 . S
C3489 C3488 1.391 . S
C3489 C3493 1.376 . S
C3490 C3488 1.394 . S
C3490 C3491 1.369 . S
C3490 C3494 1.531 . S
C3491 C3490 1.369 . S
C3491 C3492 1.410 . S
C3491 C3499 1.503 . S
C3492 C3491 1.410 . S
C3492 C3493 1.392 . S
C3492 C3495 1.511 . S
C3493 C3489 1.376 . S
C3493 C3492 1.392 . S
C3493 H3505 0.929 . S
C3494 C3490 1.531 . S
C3494 H3506 0.960 . S
C3494 H3507 0.962 . S
C3494 H3508 0.960 . S
C3495 C3492 1.511 . S
C3495 H3509 0.961 . S
C3495 H3510 0.961 . S
C3495 H3511 0.961 . S
C3496 C3497 1.370 . S
C3496 C3498 1.363 . S
C3496 H3512 0.931 . S
C3497 C3496 1.370 . S
C3497 C3501 1.408 . S
C3498 C3496 1.363 . S
C3498 C3499 1.370 . S
C3498 C3502 1.524 . S
C3499 C3491 1.503 . S
C3499 C3498 1.370 . S
C3499 C3500 1.403 . S
C3500 C3499 1.403 . S
C3500 C3501 1.404 . S
C3500 C3503 1.539 . S
C3501 C3497 1.408 . S
C3501 C3500 1.404 . S
C3501 H3513 0.930 . S
C3502 C3498 1.524 . S
C3502 H3514 0.956 . S
C3502 H3515 0.961 . S
C3502 H3516 0.961 . S
C3503 C3500 1.539 . S
C3503 H3517 0.958 . S
C3503 H3518 0.961 . S
C3503 H3519 0.960 . S
H3504 C3488 0.931 . S
H3505 C3493 0.929 . S
H3506 C3494 0.960 . S
H3507 C3494 0.962 . S
H3508 C3494 0.960 . S
H3509 C3495 0.961 . S
H3510 C3495 0.961 . S
H3511 C3495 0.961 . S
H3512 C3496 0.931 . S
H3513 C3501 0.930 . S
H3514 C3502 0.956 . S
H3515 C3502 0.961 . S
H3516 C3502 0.961 . S
H3517 C3503 0.958 . S
H3518 C3503 0.961 . S
H3519 C3503 0.960 . S
C3520 C3521 1.391 . S
C3520 C3522 1.394 . S
C3520 H3536 0.931 . S
C3521 C3520 1.391 . S
C3521 C3525 1.376 . S
C3522 C3520 1.394 . S
C3522 C3523 1.369 . S
C3522 C3526 1.531 . S
C3523 C3522 1.369 . S
C3523 C3524 1.410 . S
C3523 C3531 1.503 . S
C3524 C3523 1.410 . S
C3524 C3525 1.392 . S
C3524 C3527 1.511 . S
C3525 C3521 1.376 . S
C3525 C3524 1.392 . S
C3525 H3537 0.929 . S
C3526 C3522 1.531 . S
C3526 H3538 0.960 . S
C3526 H3539 0.962 . S
C3526 H3540 0.960 . S
C3527 C3524 1.511 . S
C3527 H3541 0.961 . S
C3527 H3542 0.961 . S
C3527 H3543 0.961 . S
C3528 C3529 1.370 . S
C3528 C3530 1.363 . S
C3528 H3544 0.931 . S
C3529 C3528 1.370 . S
C3529 C3533 1.408 . S
C3530 C3528 1.363 . S
C3530 C3531 1.370 . S
C3530 C3534 1.524 . S
C3531 C3523 1.503 . S
C3531 C3530 1.370 . S
C3531 C3532 1.403 . S
C3532 C3531 1.403 . S
C3532 C3533 1.404 . S
C3532 C3535 1.539 . S
C3533 C3529 1.408 . S
C3533 C3532 1.404 . S
C3533 H3545 0.930 . S
C3534 C3530 1.524 . S
C3534 H3546 0.956 . S
C3534 H3547 0.961 . S
C3534 H3548 0.961 . S
C3535 C3532 1.539 . S
C3535 H3549 0.958 . S
C3535 H3550 0.961 . S
C3535 H3551 0.960 . S
H3536 C3520 0.931 . S
H3537 C3525 0.929 . S
H3538 C3526 0.960 . S
H3539 C3526 0.962 . S
H3540 C3526 0.960 . S
H3541 C3527 0.961 . S
H3542 C3527 0.961 . S
H3543 C3527 0.961 . S
H3544 C3528 0.931 . S
H3545 C3533 0.930 . S
H3546 C3534 0.956 . S
H3547 C3534 0.961 . S
H3548 C3534 0.961 . S
H3549 C3535 0.958 . S
H3550 C3535 0.961 . S
H3551 C3535 0.960 . S
C3552 C3553 1.391 . S
C3552 C3554 1.394 . S
C3552 H3568 0.931 . S
C3553 C3552 1.391 . S
C3553 C3557 1.376 . S
C3554 C3552 1.394 . S
C3554 C3555 1.369 . S
C3554 C3558 1.531 . S
C3555 C3554 1.369 . S
C3555 C3556 1.410 . S
C3555 C3563 1.503 . S
C3556 C3555 1.410 . S
C3556 C3557 1.392 . S
C3556 C3559 1.511 . S
C3557 C3553 1.376 . S
C3557 C3556 1.392 . S
C3557 H3569 0.929 . S
C3558 C3554 1.531 . S
C3558 H3570 0.960 . S
C3558 H3571 0.962 . S
C3558 H3572 0.960 . S
C3559 C3556 1.511 . S
C3559 H3573 0.961 . S
C3559 H3574 0.961 . S
C3559 H3575 0.961 . S
C3560 C3561 1.370 . S
C3560 C3562 1.363 . S
C3560 H3576 0.931 . S
C3561 C3560 1.370 . S
C3561 C3565 1.408 . S
C3562 C3560 1.363 . S
C3562 C3563 1.370 . S
C3562 C3566 1.524 . S
C3563 C3555 1.503 . S
C3563 C3562 1.370 . S
C3563 C3564 1.403 . S
C3564 C3563 1.403 . S
C3564 C3565 1.404 . S
C3564 C3567 1.539 . S
C3565 C3561 1.408 . S
C3565 C3564 1.404 . S
C3565 H3577 0.930 . S
C3566 C3562 1.524 . S
C3566 H3578 0.956 . S
C3566 H3579 0.961 . S
C3566 H3580 0.961 . S
C3567 C3564 1.539 . S
C3567 H3581 0.958 . S
C3567 H3582 0.961 . S
C3567 H3583 0.960 . S
H3568 C3552 0.931 . S
H3569 C3557 0.929 . S
H3570 C3558 0.960 . S
H3571 C3558 0.962 . S
H3572 C3558 0.960 . S
H3573 C3559 0.961 . S
H3574 C3559 0.961 . S
H3575 C3559 0.961 . S
H3576 C3560 0.931 . S
H3577 C3565 0.930 . S
H3578 C3566 0.956 . S
H3579 C3566 0.961 . S
H3580 C3566 0.961 . S
H3581 C3567 0.958 . S
H3582 C3567 0.961 . S
H3583 C3567 0.960 . S
C3584 C3585 1.391 . S
C3584 C3586 1.394 . S
C3584 H3600 0.931 . S
C3585 C3584 1.391 . S
C3585 C3589 1.376 . S
C3586 C3584 1.394 . S
C3586 C3587 1.369 . S
C3586 C3590 1.531 . S
C3587 C3586 1.369 . S
C3587 C3588 1.410 . S
C3587 C3595 1.503 . S
C3588 C3587 1.410 . S
C3588 C3589 1.392 . S
C3588 C3591 1.511 . S
C3589 C3585 1.376 . S
C3589 C3588 1.392 . S
C3589 H3601 0.929 . S
C3590 C3586 1.531 . S
C3590 H3602 0.960 . S
C3590 H3603 0.962 . S
C3590 H3604 0.960 . S
C3591 C3588 1.511 . S
C3591 H3605 0.961 . S
C3591 H3606 0.961 . S
C3591 H3607 0.961 . S
C3592 C3593 1.370 . S
C3592 C3594 1.363 . S
C3592 H3608 0.931 . S
C3593 C3592 1.370 . S
C3593 C3597 1.408 . S
C3594 C3592 1.363 . S
C3594 C3595 1.370 . S
C3594 C3598 1.524 . S
C3595 C3587 1.503 . S
C3595 C3594 1.370 . S
C3595 C3596 1.403 . S
C3596 C3595 1.403 . S
C3596 C3597 1.404 . S
C3596 C3599 1.539 . S
C3597 C3593 1.408 . S
C3597 C3596 1.404 . S
C3597 H3609 0.930 . S
C3598 C3594 1.524 . S
C3598 H3610 0.956 . S
C3598 H3611 0.961 . S
C3598 H3612 0.961 . S
C3599 C3596 1.539 . S
C3599 H3613 0.958 . S
C3599 H3614 0.961 . S
C3599 H3615 0.960 . S
H3600 C3584 0.931 . S
H3601 C3589 0.929 . S
H3602 C3590 0.960 . S
H3603 C3590 0.962 . S
H3604 C3590 0.960 . S
H3605 C3591 0.961 . S
H3606 C3591 0.961 . S
H3607 C3591 0.961 . S
H3608 C3592 0.931 . S
H3609 C3597 0.930 . S
H3610 C3598 0.956 . S
H3611 C3598 0.961 . S
H3612 C3598 0.961 . S
H3613 C3599 0.958 . S
H3614 C3599 0.961 . S
H3615 C3599 0.960 . S
C3616 C3617 1.391 . S
C3616 C3618 1.394 . S
C3616 H3632 0.931 . S
C3617 C3616 1.391 . S
C3617 C3621 1.376 . S
C3618 C3616 1.394 . S
C3618 C3619 1.369 . S
C3618 C3622 1.531 . S
C3619 C3618 1.369 . S
C3619 C3620 1.410 . S
C3619 C3627 1.503 . S
C3620 C3619 1.410 . S
C3620 C3621 1.392 . S
C3620 C3623 1.511 . S
C3621 C3617 1.376 . S
C3621 C3620 1.392 . S
C3621 H3633 0.929 . S
C3622 C3618 1.531 . S
C3622 H3634 0.960 . S
C3622 H3635 0.962 . S
C3622 H3636 0.960 . S
C3623 C3620 1.511 . S
C3623 H3637 0.961 . S
C3623 H3638 0.961 . S
C3623 H3639 0.961 . S
C3624 C3625 1.370 . S
C3624 C3626 1.363 . S
C3624 H3640 0.931 . S
C3625 C3624 1.370 . S
C3625 C3629 1.408 . S
C3626 C3624 1.363 . S
C3626 C3627 1.370 . S
C3626 C3630 1.524 . S
C3627 C3619 1.503 . S
C3627 C3626 1.370 . S
C3627 C3628 1.403 . S
C3628 C3627 1.403 . S
C3628 C3629 1.404 . S
C3628 C3631 1.539 . S
C3629 C3625 1.408 . S
C3629 C3628 1.404 . S
C3629 H3641 0.930 . S
C3630 C3626 1.524 . S
C3630 H3642 0.956 . S
C3630 H3643 0.961 . S
C3630 H3644 0.961 . S
C3631 C3628 1.539 . S
C3631 H3645 0.958 . S
C3631 H3646 0.961 . S
C3631 H3647 0.960 . S
H3632 C3616 0.931 . S
H3633 C3621 0.929 . S
H3634 C3622 0.960 . S
H3635 C3622 0.962 . S
H3636 C3622 0.960 . S
H3637 C3623 0.961 . S
H3638 C3623 0.961 . S
H3639 C3623 0.961 . S
H3640 C3624 0.931 . S
H3641 C3629 0.930 . S
H3642 C3630 0.956 . S
H3643 C3630 0.961 . S
H3644 C3630 0.961 . S
H3645 C3631 0.958 . S
H3646 C3631 0.961 . S
H3647 C3631 0.960 . S
C1089 C145 1.436 . S
C1097 C9 1.397 . S
C1121 C43 1.435 . S
C1129 C179 1.400 . S
C1153 C77 1.438 . S
C1161 C213 1.396 . S
C1185 C111 1.427 . S
C1193 C247 1.404 . S
C1217 C281 1.448 . S
C1225 C417 1.398 . S
C1249 C451 1.430 . S
C1257 C315 1.395 . S
C1281 C349 1.448 . S
C1289 C485 1.397 . S
C1313 C519 1.410 . S
C1321 C383 1.417 . S
C1345 C553 1.443 . S
C1353 C689 1.395 . S
C1377 C587 1.402 . S
C1385 C723 1.412 . S
C1409 C757 1.444 . S
C1417 C621 1.394 . S
C1441 C791 1.437 . S
C1449 C655 1.401 . S
C1473 C825 1.366 . S
C1481 C961 1.424 . S
C1505 C859 1.430 . S
C1513 C995 1.396 . S
C1537 C1029 1.368 . S
C1545 C893 1.423 . S
C1569 C927 1.392 . S
C1577 C1063 1.424 . S
C1601 C33 0.668 . S
C1609 C645 0.661 . S
C1633 C67 0.609 . S
C1641 C679 0.695 . S
C1665 C101 0.658 . S
C1673 C577 0.683 . S
C1697 C135 0.655 . S
C1705 C611 0.684 . S
C1729 C169 0.706 . S
C1737 C781 0.647 . S
C1761 C815 0.719 . S
C1769 C203 0.655 . S
C1793 C237 0.688 . S
C1801 C713 0.653 . S
C1825 C271 0.716 . S
C1833 C747 0.645 . S
C1857 C917 0.711 . S
C1865 C305 0.652 . S
C1889 C339 0.654 . S
C1897 C951 0.676 . S
C1921 C849 0.612 . S
C1929 C373 0.693 . S
C1953 C407 0.730 . S
C1961 C883 0.643 . S
C1985 C441 0.619 . S
C1993 C1053 0.689 . S
C2017 C1087 0.615 . S
C2025 C475 0.691 . S
C2049 C509 0.664 . S
C2057 C985 0.671 . S
C2081 C543 0.695 . S
C2089 C1019 0.660 . S
C2113 C20 1.448 . S
C2121 C478 1.449 . S
C2145 C1056 1.453 . S
C2153 C54 1.451 1_545 S
C2177 C410 1.446 1_455 S
C2185 C88 1.449 . S
C2209 C988 1.445 . S
C2217 C122 1.455 1_565 S
C2241 C156 1.445 . S
C2249 C342 1.437 . S
C2273 C190 1.455 1_545 S
C2281 C920 1.442 . S
C2305 C224 1.441 . S
C2313 C274 1.445 1_455 S
C2337 C852 1.449 . S
C2345 C258 1.449 1_565 S
C2369 C206 1.453 . S
C2377 C292 1.452 . S
C2401 C784 1.454 . S
C2409 C326 1.452 1_565 S
C2433 C360 1.455 . S
C2441 C138 1.446 1_655 S
C2465 C394 1.455 1_545 S
C2473 C716 1.446 . S
C2497 C428 1.455 . S
C2505 C70 1.448 . S
C2529 C648 1.429 . S
C2537 C462 1.452 1_565 S
C2561 C496 1.440 . S
C2569 C2 1.437 1_655 S
C2593 C580 1.443 . S
C2601 C530 1.454 1_545 S
C2625 C1022 1.425 1_655 S
C2633 C564 1.452 . S
C2657 C598 1.446 . S
C2665 C512 1.436 . S
C2689 C954 1.453 . S
C2697 C632 1.451 . S
C2721 C444 1.434 . S
C2729 C666 1.448 . S
C2753 C700 1.446 . S
C2761 C886 1.436 1_655 S
C2785 C376 1.443 . S
C2793 C734 1.455 . S
C2817 C818 1.446 . S
C2825 C768 1.455 . S
C2849 C802 1.447 . S
C2857 C308 1.449 . S
C2881 C836 1.440 . S
C2889 C750 1.439 1_455 S
C2913 C240 1.430 . S
C2921 C870 1.448 . S
C2945 C904 1.440 . S
C2953 C682 1.439 . S
C2977 C172 1.452 . S
C2985 C938 1.452 . S
C3009 C972 1.442 . S
C3017 C614 1.436 1_455 S
C3041 C1006 1.454 . S
C3049 C104 1.443 . S
C3073 C546 1.441 . S
C3081 C1040 1.455 . S
C3105 C36 1.449 . S
C3113 C1074 1.450 . S
C3137 C243 1.576 . S
C3145 C5 1.591 . S
C3169 C141 1.576 . S
C3177 C39 1.590 . S
C3201 C175 1.594 . S
C3209 C73 1.592 . S
C3233 C107 1.573 . S
C3241 C209 1.587 . S
C3265 C515 1.576 . S
C3273 C277 1.592 . S
C3297 C311 1.573 . S
C3305 C413 1.588 . S
C3329 C447 1.575 . S
C3337 C345 1.591 . S
C3361 C481 1.577 . S
C3369 C379 1.585 . S
C3393 C787 1.596 . S
C3401 C549 1.589 . S
C3425 C583 1.579 . S
C3433 C685 1.584 . S
C3457 C719 1.586 . S
C3465 C617 1.594 . S
C3489 C753 1.592 . S
C3497 C651 1.586 . S
C3521 C821 1.577 . S
C3529 C1059 1.585 . S
C3553 C957 1.588 . S
C3561 C855 1.593 . S
C3585 C889 1.594 . S
C3593 C991 1.592 . S
C3617 C1025 1.580 . S
C3625 C923 1.584 . S
