# Generated by pormake.
# Topology skb, (5)-cn, num edge types: 1
# Building blocks:
#     Node 0, Type 0, BuildingBlock: BEQFEK_clean_sbu_0, # of connection points: 5
#     Node 1, Type 0, BuildingBlock: BEQFEK_clean_sbu_0, # of connection points: 5
#     Node 2, Type 0, BuildingBlock: BEQFEK_clean_sbu_0, # of connection points: 5
#     Node 3, Type 0, BuildingBlock: BEQFEK_clean_sbu_0, # of connection points: 5
#     Node 4, Type 0, BuildingBlock: BEQFEK_clean_sbu_0, # of connection points: 5
#     Node 5, Type 0, BuildingBlock: BEQFEK_clean_sbu_0, # of connection points: 5
#     Node 6, Type 0, BuildingBlock: BEQFEK_clean_sbu_0, # of connection points: 5
#     Node 7, Type 0, BuildingBlock: BEQFEK_clean_sbu_0, # of connection points: 5
#     Node 8, Type 0, BuildingBlock: BEQFEK_clean_sbu_0, # of connection points: 5
#     Node 9, Type 0, BuildingBlock: BEQFEK_clean_sbu_0, # of connection points: 5
#     Node 10, Type 0, BuildingBlock: BEQFEK_clean_sbu_0, # of connection points: 5
#     Node 11, Type 0, BuildingBlock: BEQFEK_clean_sbu_0, # of connection points: 5
#     Node 12, Type 0, BuildingBlock: BEQFEK_clean_sbu_0, # of connection points: 5
#     Node 13, Type 0, BuildingBlock: BEQFEK_clean_sbu_0, # of connection points: 5
#     Node 14, Type 0, BuildingBlock: BEQFEK_clean_sbu_0, # of connection points: 5
#     Node 15, Type 0, BuildingBlock: BEQFEK_clean_sbu_0, # of connection points: 5
#     Edge 16, Type (0, 0), BuildingBlock: KIFKEQ_clean_linker_1, # of connection points: 2
#     Edge 17, Type (0, 0), BuildingBlock: KIFKEQ_clean_linker_1, # of connection points: 2
#     Edge 18, Type (0, 0), BuildingBlock: KIFKEQ_clean_linker_1, # of connection points: 2
#     Edge 19, Type (0, 0), BuildingBlock: KIFKEQ_clean_linker_1, # of connection points: 2
#     Edge 20, Type (0, 0), BuildingBlock: KIFKEQ_clean_linker_1, # of connection points: 2
#     Edge 21, Type (0, 0), BuildingBlock: KIFKEQ_clean_linker_1, # of connection points: 2
#     Edge 22, Type (0, 0), BuildingBlock: KIFKEQ_clean_linker_1, # of connection points: 2
#     Edge 23, Type (0, 0), BuildingBlock: KIFKEQ_clean_linker_1, # of connection points: 2
#     Edge 24, Type (0, 0), BuildingBlock: KIFKEQ_clean_linker_1, # of connection points: 2
#     Edge 25, Type (0, 0), BuildingBlock: KIFKEQ_clean_linker_1, # of connection points: 2
#     Edge 26, Type (0, 0), BuildingBlock: KIFKEQ_clean_linker_1, # of connection points: 2
#     Edge 27, Type (0, 0), BuildingBlock: KIFKEQ_clean_linker_1, # of connection points: 2
#     Edge 28, Type (0, 0), BuildingBlock: KIFKEQ_clean_linker_1, # of connection points: 2
#     Edge 29, Type (0, 0), BuildingBlock: KIFKEQ_clean_linker_1, # of connection points: 2
#     Edge 30, Type (0, 0), BuildingBlock: KIFKEQ_clean_linker_1, # of connection points: 2
#     Edge 31, Type (0, 0), BuildingBlock: KIFKEQ_clean_linker_1, # of connection points: 2
#     Edge 32, Type (0, 0), BuildingBlock: KIFKEQ_clean_linker_1, # of connection points: 2
#     Edge 33, Type (0, 0), BuildingBlock: KIFKEQ_clean_linker_1, # of connection points: 2
#     Edge 34, Type (0, 0), BuildingBlock: KIFKEQ_clean_linker_1, # of connection points: 2
#     Edge 35, Type (0, 0), BuildingBlock: KIFKEQ_clean_linker_1, # of connection points: 2
#     Edge 36, Type (0, 0), BuildingBlock: KIFKEQ_clean_linker_1, # of connection points: 2
#     Edge 37, Type (0, 0), BuildingBlock: KIFKEQ_clean_linker_1, # of connection points: 2
#     Edge 38, Type (0, 0), BuildingBlock: KIFKEQ_clean_linker_1, # of connection points: 2
#     Edge 39, Type (0, 0), BuildingBlock: KIFKEQ_clean_linker_1, # of connection points: 2
#     Edge 40, Type (0, 0), BuildingBlock: KIFKEQ_clean_linker_1, # of connection points: 2
#     Edge 41, Type (0, 0), BuildingBlock: KIFKEQ_clean_linker_1, # of connection points: 2
#     Edge 42, Type (0, 0), BuildingBlock: KIFKEQ_clean_linker_1, # of connection points: 2
#     Edge 43, Type (0, 0), BuildingBlock: KIFKEQ_clean_linker_1, # of connection points: 2
#     Edge 44, Type (0, 0), BuildingBlock: KIFKEQ_clean_linker_1, # of connection points: 2
#     Edge 45, Type (0, 0), BuildingBlock: KIFKEQ_clean_linker_1, # of connection points: 2
#     Edge 46, Type (0, 0), BuildingBlock: KIFKEQ_clean_linker_1, # of connection points: 2
#     Edge 47, Type (0, 0), BuildingBlock: KIFKEQ_clean_linker_1, # of connection points: 2
#     Edge 48, Type (0, 0), BuildingBlock: KIFKEQ_clean_linker_1, # of connection points: 2
#     Edge 49, Type (0, 0), BuildingBlock: KIFKEQ_clean_linker_1, # of connection points: 2
#     Edge 50, Type (0, 0), BuildingBlock: KIFKEQ_clean_linker_1, # of connection points: 2
#     Edge 51, Type (0, 0), BuildingBlock: KIFKEQ_clean_linker_1, # of connection points: 2
#     Edge 52, Type (0, 0), BuildingBlock: KIFKEQ_clean_linker_1, # of connection points: 2
#     Edge 53, Type (0, 0), BuildingBlock: KIFKEQ_clean_linker_1, # of connection points: 2
#     Edge 54, Type (0, 0), BuildingBlock: KIFKEQ_clean_linker_1, # of connection points: 2
#     Edge 55, Type (0, 0), BuildingBlock: KIFKEQ_clean_linker_1, # of connection points: 2
# Relax obj value: 0.050
# Max RMSD: 0.094
# Mean RMSD: 0.094
data_MOF--net-skb--node1-BEQFEK_clean_sbu_0--edge1-KIFKEQ_clean_linker_1
_symmetry_space_group_name_H-M    P1
_symmetry_Int_Tables_number       1
_symmetry_cell_setting            triclinic
loop_
_symmetry_equiv_pos_as_xyz
'x, y, z'
_cell_length_a     41.06775
_cell_length_b     30.853756
_cell_length_c     77.657055
_cell_angle_alpha  89.997585
_cell_angle_beta   89.995798
_cell_angle_gamma 89.978876
loop_
_atom_site_label
_atom_site_type_symbol
_atom_site_fract_x
_atom_site_fract_y
_atom_site_fract_z
_atom_type_partial_charge
Co0 Co 0.18298 0.04309 0.10491 0.0
Co1 Co 0.18378 0.04169 0.14551 0.0
C2 C 0.20778 0.11845 0.12564 0.0
O3 O 0.20146 0.10013 0.11134 0.0
O4 O 0.20242 0.09942 0.13991 0.0
C5 C 0.2131 0.04207 0.07128 0.0
O6 O 0.2401 0.04938 0.07988 0.0
C7 C 0.20932 0.04096 0.18135 0.0
C8 C 0.16585 0.01849 0.19554 0.0
C9 C 0.19775 0.03186 0.19781 0.0
N10 N 0.18531 0.03307 0.16995 0.0
N11 N 0.15948 0.01953 0.17856 0.0
C12 C 0.24188 0.05911 0.17658 0.0
H13 H 0.24126 0.07357 0.16353 0.0
H14 H 0.26016 0.03266 0.17653 0.0
H15 H 0.24964 0.08376 0.18615 0.0
C16 C 0.21507 0.95795 0.11058 0.0
N17 N 0.20416 0.99642 0.11645 0.0
N18 N 0.20524 0.9963 0.13342 0.0
C19 C 0.21724 0.95795 0.13883 0.0
C20 C 0.22392 0.93247 0.12454 0.0
C21 C 0.21458 0.94465 0.09204 0.0
H22 H 0.19089 0.95357 0.08617 0.0
H23 H 0.23413 0.96217 0.08509 0.0
H24 H 0.21887 0.90941 0.09042 0.0
O25 O 0.13613 0.04191 0.11063 0.0
O26 O 0.13697 0.04034 0.13922 0.0
H27 H 0.19294 0.94706 0.16281 0.0
H28 H 0.22574 0.90952 0.15861 0.0
C29 C 0.21768 0.94366 0.15725 0.0
H30 H 0.23442 0.96478 0.16464 0.0
H31 H 0.13729 0.01151 0.17286 0.0
O32 O 0.18648 0.0377 0.07945 0.0
C33 C 0.12139 0.04043 0.12504 0.0
Co34 Co 0.81565 0.00515 0.10431 0.0
Co35 Co 0.81414 0.0051 0.1449 0.0
C36 C 0.78998 0.92928 0.12453 0.0
O37 O 0.79656 0.94794 0.11031 0.0
O38 O 0.79537 0.94781 0.1389 0.0
C39 C 0.78641 0.0053 0.0705 0.0
O40 O 0.7602 0.99252 0.07877 0.0
C41 C 0.78942 1.00345 0.18098 0.0
C42 C 0.83177 0.03076 0.19477 0.0
C43 C 0.80079 0.01427 0.1973 0.0
N44 N 0.81263 0.01346 0.16937 0.0
N45 N 0.8378 0.02982 0.17775 0.0
C46 C 0.75771 0.98228 0.17657 0.0
H47 H 0.75873 0.96717 0.16366 0.0
H48 H 0.73817 0.00709 0.1764 0.0
H49 H 0.75134 0.95756 0.18639 0.0
C50 C 0.78437 0.0905 0.11028 0.0
N51 N 0.79476 0.05166 0.11603 0.0
N52 N 0.79303 0.05099 0.13296 0.0
C53 C 0.78087 0.08909 0.1385 0.0
C54 C 0.77516 0.1156 0.12434 0.0
C55 C 0.78801 0.10535 0.09202 0.0
H56 H 0.81127 0.09318 0.08663 0.0
H57 H 0.76773 0.09191 0.08424 0.0
H58 H 0.78766 0.14118 0.09097 0.0
O59 O 0.86239 0.00545 0.11015 0.0
O60 O 0.86109 0.00624 0.13874 0.0
H61 H 0.80016 0.1043 0.16335 0.0
H62 H 0.76172 0.1306 0.15864 0.0
C63 C 0.77607 0.1004 0.15707 0.0
H64 H 0.76296 0.07373 0.16359 0.0
H65 H 0.8593 0.04001 0.17186 0.0
O66 O 0.81235 0.01258 0.07895 0.0
C67 C 0.8769 0.00636 0.12462 0.0
Co68 Co 0.18325 0.00541 0.90805 0.0
Co69 Co 0.18296 0.00549 0.86746 0.0
C70 C 0.20774 0.92946 0.88752 0.0
O71 O 0.2017 0.94812 0.90179 0.0
O72 O 0.20197 0.9481 0.87322 0.0
C73 C 0.21405 0.0101 0.94158 0.0
O74 O 0.24137 0.00584 0.93294 0.0
C75 C 0.20758 0.00502 0.83142 0.0
C76 C 0.16401 0.02804 0.81745 0.0
C77 C 0.19576 0.01421 0.81503 0.0
N78 N 0.18389 0.01339 0.84296 0.0
N79 N 0.15798 0.02718 0.83447 0.0
C80 C 0.24017 0.9866 0.83601 0.0
H81 H 0.23975 0.97201 0.84903 0.0
H82 H 0.25856 0.01292 0.836 0.0
H83 H 0.24769 0.962 0.82636 0.0
C84 C 0.21546 0.09049 0.90167 0.0
N85 N 0.2042 0.05183 0.89614 0.0
N86 N 0.20439 0.05148 0.87916 0.0
C87 C 0.21577 0.08981 0.87341 0.0
C88 C 0.22333 0.11563 0.88746 0.0
C89 C 0.21399 0.10561 0.91997 0.0
H90 H 0.1916 0.09324 0.92625 0.0
H91 H 0.23544 0.09289 0.92702 0.0
H92 H 0.21435 0.14151 0.92082 0.0
O93 O 0.13616 0.0064 0.90263 0.0
O94 O 0.13637 0.0068 0.87403 0.0
H95 H 0.19169 0.10187 0.84946 0.0
H96 H 0.22693 0.13587 0.85314 0.0
C97 C 0.21668 0.10289 0.85486 0.0
H98 H 0.23193 0.07962 0.8476 0.0
H99 H 0.13599 0.03564 0.8403 0.0
O100 O 0.18717 0.0113 0.93348 0.0
C101 C 0.1211 0.00728 0.8883 0.0
Co102 Co 0.8139 0.04378 0.90727 0.0
Co103 Co 0.81515 0.04482 0.8667 0.0
C104 C 0.7906 0.12079 0.88717 0.0
O105 O 0.7962 0.10183 0.90144 0.0
O106 O 0.79651 0.10229 0.87284 0.0
C107 C 0.78596 0.04864 0.94144 0.0
O108 O 0.76221 0.0696 0.93374 0.0
C109 C 0.79035 0.04624 0.83077 0.0
C110 C 0.8338 0.02364 0.81659 0.0
C111 C 0.80197 0.03731 0.81431 0.0
N112 N 0.81423 0.03786 0.84219 0.0
N113 N 0.84008 0.02439 0.83358 0.0
C114 C 0.75774 0.06427 0.83557 0.0
H115 H 0.75861 0.07976 0.84842 0.0
H116 H 0.73973 0.03754 0.83613 0.0
H117 H 0.74945 0.08806 0.82578 0.0
C118 C 0.78021 0.96059 0.90047 0.0
N119 N 0.79239 0.99873 0.89499 0.0
N120 N 0.79319 0.9988 0.87803 0.0
C121 C 0.7819 0.96049 0.87222 0.0
C122 C 0.77319 0.93508 0.88623 0.0
C123 C 0.77977 0.94673 0.91894 0.0
H124 H 0.8044 0.95088 0.92457 0.0
H125 H 0.76273 0.96781 0.92621 0.0
H126 H 0.77208 0.91246 0.92041 0.0
O127 O 0.8611 0.042 0.90197 0.0
O128 O 0.86159 0.04248 0.87338 0.0
H129 H 0.80749 0.94858 0.84869 0.0
H130 H 0.77252 0.91375 0.85193 0.0
C131 C 0.78223 0.947 0.85371 0.0
H132 H 0.76708 0.96974 0.84613 0.0
H133 H 0.86216 0.01592 0.83931 0.0
O134 O 0.80976 0.03478 0.93253 0.0
C135 C 0.8765 0.04127 0.88774 0.0
Co136 Co 0.18372 0.54335 0.60463 0.0
Co137 Co 0.18371 0.54166 0.64518 0.0
C138 C 0.20875 0.61822 0.6258 0.0
O139 O 0.20226 0.60016 0.61146 0.0
O140 O 0.2033 0.59907 0.64005 0.0
C141 C 0.21471 0.53992 0.57112 0.0
O142 O 0.24195 0.54378 0.57985 0.0
C143 C 0.20725 0.54265 0.68118 0.0
C144 C 0.1668 0.50944 0.69451 0.0
C145 C 0.19681 0.52874 0.69735 0.0
N146 N 0.18442 0.53198 0.6695 0.0
N147 N 0.16025 0.51238 0.67758 0.0
C148 C 0.23922 0.56266 0.6765 0.0
H149 H 0.24489 0.5565 0.66274 0.0
H150 H 0.25902 0.54953 0.68472 0.0
H151 H 0.23777 0.59822 0.67847 0.0
C152 C 0.21578 0.45792 0.61035 0.0
N153 N 0.20455 0.49634 0.61615 0.0
N154 N 0.20511 0.49616 0.63313 0.0
C155 C 0.21694 0.45782 0.6386 0.0
C156 C 0.22415 0.43243 0.62438 0.0
C157 C 0.2139 0.44337 0.59198 0.0
H158 H 0.19154 0.45629 0.58586 0.0
H159 H 0.23537 0.45593 0.5849 0.0
H160 H 0.21393 0.4075 0.59098 0.0
O161 O 0.13669 0.54234 0.61003 0.0
O162 O 0.13707 0.54125 0.63862 0.0
H163 H 0.19402 0.44209 0.6625 0.0
H164 H 0.23138 0.41268 0.65858 0.0
C165 C 0.21894 0.44439 0.65708 0.0
H166 H 0.23258 0.46918 0.66446 0.0
H167 H 0.13939 0.50063 0.67151 0.0
O168 O 0.18776 0.53859 0.57916 0.0
C169 C 0.12171 0.54127 0.62438 0.0
Co170 Co 0.8157 0.50364 0.6038 0.0
Co171 Co 0.81466 0.50612 0.64429 0.0
C172 C 0.79099 0.42855 0.62489 0.0
O173 O 0.7976 0.44643 0.61051 0.0
O174 O 0.79594 0.44812 0.63911 0.0
C175 C 0.78744 0.49832 0.56977 0.0
O176 O 0.76242 0.4812 0.57783 0.0
C177 C 0.79018 0.50591 0.68013 0.0
C178 C 0.83036 0.53937 0.69359 0.0
C179 C 0.80029 0.52013 0.6963 0.0
N180 N 0.81328 0.51631 0.66855 0.0
N181 N 0.83726 0.5361 0.67672 0.0
C182 C 0.75836 0.48569 0.67532 0.0
H183 H 0.75299 0.49153 0.6615 0.0
H184 H 0.73837 0.49891 0.68338 0.0
H185 H 0.75985 0.45017 0.67741 0.0
C186 C 0.78235 0.58776 0.60891 0.0
N187 N 0.794 0.55 0.61507 0.0
N188 N 0.79276 0.55072 0.63202 0.0
C189 C 0.77984 0.58879 0.63713 0.0
C190 C 0.77279 0.6134 0.62266 0.0
C191 C 0.78333 0.60063 0.59034 0.0
H192 H 0.80815 0.59515 0.58513 0.0
H193 H 0.76616 0.57997 0.58299 0.0
H194 H 0.77637 0.63508 0.5885 0.0
O195 O 0.86252 0.50565 0.60947 0.0
O196 O 0.8615 0.5076 0.63803 0.0
H197 H 0.80314 0.60481 0.6609 0.0
H198 H 0.76684 0.63611 0.65658 0.0
C199 C 0.77819 0.60359 0.65545 0.0
H200 H 0.76379 0.58004 0.66307 0.0
H201 H 0.85826 0.5477 0.67073 0.0
O202 O 0.8122 0.51003 0.57842 0.0
C203 C 0.87717 0.50748 0.62389 0.0
Co204 Co 0.18362 0.50498 0.40788 0.0
Co205 Co 0.18355 0.50612 0.36734 0.0
C206 C 0.2087 0.4298 0.38682 0.0
O207 O 0.20217 0.44804 0.40113 0.0
O208 O 0.20326 0.44878 0.37254 0.0
C209 C 0.21471 0.50864 0.44137 0.0
O210 O 0.24195 0.50451 0.43265 0.0
C211 C 0.20657 0.50504 0.3312 0.0
C212 C 0.16581 0.53814 0.31808 0.0
C213 C 0.19581 0.51895 0.31509 0.0
N214 N 0.1839 0.51562 0.343 0.0
N215 N 0.15956 0.53515 0.33503 0.0
C216 C 0.23866 0.48513 0.33573 0.0
H217 H 0.24447 0.49111 0.34949 0.0
H218 H 0.25831 0.49851 0.32748 0.0
H219 H 0.23732 0.44959 0.33368 0.0
C220 C 0.21561 0.5904 0.40194 0.0
N221 N 0.20439 0.55188 0.39623 0.0
N222 N 0.20493 0.5518 0.37926 0.0
C223 C 0.21674 0.59007 0.37369 0.0
C224 C 0.22392 0.61571 0.38785 0.0
C225 C 0.21381 0.60514 0.42028 0.0
H226 H 0.19147 0.59231 0.42646 0.0
H227 H 0.2353 0.59261 0.42736 0.0
H228 H 0.21385 0.64103 0.42123 0.0
O229 O 0.13654 0.50596 0.40258 0.0
O230 O 0.13698 0.50659 0.37399 0.0
H231 H 0.19396 0.60555 0.34972 0.0
H232 H 0.23146 0.63467 0.35358 0.0
C233 C 0.21886 0.60311 0.35516 0.0
H234 H 0.2324 0.57806 0.34788 0.0
H235 H 0.13878 0.54684 0.34121 0.0
O236 O 0.18777 0.51005 0.43333 0.0
C237 C 0.12159 0.50683 0.38822 0.0
Co238 Co 0.81442 0.5422 0.40683 0.0
Co239 Co 0.81554 0.54348 0.36628 0.0
C240 C 0.79085 0.61923 0.38682 0.0
O241 O 0.79656 0.60013 0.40105 0.0
O242 O 0.79674 0.6009 0.37245 0.0
C243 C 0.78595 0.54489 0.44093 0.0
O244 O 0.76123 0.56366 0.43321 0.0
C245 C 0.79113 0.54492 0.33024 0.0
C246 C 0.8348 0.52234 0.31623 0.0
C247 C 0.80303 0.53607 0.31383 0.0
N248 N 0.81482 0.53645 0.34175 0.0
N249 N 0.84079 0.52294 0.33325 0.0
C250 C 0.75847 0.56303 0.33487 0.0
H251 H 0.759 0.5779 0.34785 0.0
H252 H 0.74029 0.53647 0.33504 0.0
H253 H 0.75065 0.58733 0.32518 0.0
C254 C 0.78087 0.45891 0.4 0.0
N255 N 0.79301 0.49709 0.39454 0.0
N256 N 0.79368 0.49731 0.37758 0.0
C257 C 0.7823 0.45907 0.37174 0.0
C258 C 0.7737 0.43355 0.38574 0.0
C259 C 0.7806 0.44484 0.41845 0.0
H260 H 0.80502 0.45015 0.42418 0.0
H261 H 0.76284 0.46492 0.42567 0.0
H262 H 0.77387 0.4102 0.41984 0.0
O263 O 0.86157 0.54068 0.40154 0.0
O264 O 0.86202 0.54135 0.37295 0.0
H265 H 0.80752 0.44711 0.34811 0.0
H266 H 0.7723 0.41275 0.35139 0.0
C267 C 0.7823 0.44583 0.35321 0.0
H268 H 0.76726 0.46889 0.34573 0.0
H269 H 0.86278 0.51443 0.33907 0.0
O270 O 0.81044 0.53317 0.43206 0.0
C271 C 0.87695 0.54013 0.38731 0.0
Co272 Co 0.68246 0.04455 0.60429 0.0
Co273 Co 0.68354 0.04321 0.64478 0.0
C274 C 0.70808 0.11969 0.62522 0.0
O275 O 0.70133 0.10152 0.61092 0.0
O276 O 0.70285 0.10064 0.63951 0.0
C277 C 0.71228 0.0459 0.57057 0.0
O278 O 0.73833 0.05881 0.57894 0.0
C279 C 0.70661 0.04509 0.68089 0.0
C280 C 0.6672 0.00898 0.6939 0.0
C281 C 0.69643 0.0301 0.69695 0.0
N282 N 0.68437 0.03326 0.66907 0.0
N283 N 0.66082 0.01192 0.67696 0.0
C284 C 0.73794 0.06712 0.67643 0.0
H285 H 0.744 0.06174 0.66266 0.0
H286 H 0.75806 0.05489 0.68465 0.0
H287 H 0.73528 0.1025 0.67857 0.0
C288 C 0.71364 0.95892 0.60986 0.0
N289 N 0.70317 0.99758 0.61576 0.0
N290 N 0.70497 0.99786 0.63269 0.0
C291 C 0.71743 0.95979 0.63807 0.0
C292 C 0.72307 0.93357 0.62381 0.0
C293 C 0.70993 0.94452 0.59154 0.0
H294 H 0.68684 0.95724 0.58615 0.0
H295 H 0.7304 0.95772 0.58383 0.0
H296 H 0.70991 0.9087 0.59039 0.0
O297 O 0.63562 0.04379 0.60981 0.0
O298 O 0.63669 0.04246 0.63839 0.0
H299 H 0.69899 0.94214 0.66284 0.0
H300 H 0.73844 0.91914 0.65791 0.0
C301 C 0.72282 0.94828 0.65657 0.0
H302 H 0.73476 0.97568 0.66326 0.0
H303 H 0.64052 0.99898 0.67075 0.0
O304 O 0.6863 0.03814 0.57892 0.0
C305 C 0.62099 0.04256 0.62425 0.0
Co306 Co 0.31466 1.00302 0.60471 0.0
Co307 Co 0.3147 1.0044 0.64532 0.0
C308 C 0.29071 0.92739 0.62561 0.0
O309 O 0.29668 0.94572 0.61127 0.0
O310 O 0.29622 0.94654 0.63984 0.0
C311 C 0.28371 0.00647 0.57122 0.0
O312 O 0.25652 1.00199 0.57996 0.0
C313 C 0.28995 1.00472 0.68132 0.0
C314 C 0.33328 0.02879 0.69522 0.0
C315 C 0.30166 0.01452 0.69768 0.0
N316 N 0.31359 0.01313 0.66977 0.0
N317 N 0.33935 0.02758 0.6782 0.0
C318 C 0.25754 0.9857 0.67679 0.0
H319 H 0.25815 0.97072 0.66384 0.0
H320 H 0.23895 0.01177 0.67664 0.0
H321 H 0.2502 0.96128 0.68655 0.0
C322 C 0.28195 0.08791 0.61059 0.0
N323 N 0.2933 0.04951 0.61635 0.0
N324 N 0.293 0.04972 0.63334 0.0
C325 C 0.28142 0.08818 0.63885 0.0
C326 C 0.27386 0.11345 0.62464 0.0
C327 C 0.28364 0.10251 0.59223 0.0
H328 H 0.30621 0.09018 0.58611 0.0
H329 H 0.26238 0.0894 0.58514 0.0
H330 H 0.28309 0.13838 0.59121 0.0
O331 O 0.36169 0.00485 0.61021 0.0
O332 O 0.36131 0.00607 0.63881 0.0
H333 H 0.30555 0.10135 0.66268 0.0
H334 H 0.27019 0.13502 0.65881 0.0
C335 C 0.28053 0.10201 0.65731 0.0
H336 H 0.2654 0.07896 0.66474 0.0
H337 H 0.36128 0.0362 0.67236 0.0
O338 O 0.31066 0.00815 0.57925 0.0
C339 C 0.37666 0.00633 0.62456 0.0
Co340 Co 0.68502 0.00563 0.40746 0.0
Co341 Co 0.6825 1.00336 0.36695 0.0
C342 C 0.7082 0.92829 0.38741 0.0
O343 O 0.70259 0.94737 0.40166 0.0
O344 O 0.70205 0.94655 0.37307 0.0
C345 C 0.7137 1.00201 0.44155 0.0
O346 O 0.73765 0.9814 0.43388 0.0
C347 C 0.70673 1.00229 0.33095 0.0
C348 C 0.66245 0.02216 0.31683 0.0
C349 C 0.69463 0.01008 0.3145 0.0
N350 N 0.68278 0.00981 0.34242 0.0
N351 N 0.65643 0.0217 0.33386 0.0
C352 C 0.73985 0.9859 0.33567 0.0
H353 H 0.73975 0.9716 0.34875 0.0
H354 H 0.75735 0.01326 0.33563 0.0
H355 H 0.74826 0.96154 0.32614 0.0
C356 C 0.71842 0.08857 0.40015 0.0
N357 N 0.70605 0.05036 0.39488 0.0
N358 N 0.70433 0.05017 0.37794 0.0
C359 C 0.71517 0.08854 0.37193 0.0
C360 C 0.7246 0.11403 0.3858 0.0
C361 C 0.71976 0.10254 0.4186 0.0
H362 H 0.69538 0.09851 0.42455 0.0
H363 H 0.73709 0.08145 0.42565 0.0
H364 H 0.72756 0.13679 0.41994 0.0
O365 O 0.63777 0.00786 0.40251 0.0
O366 O 0.63614 1.00415 0.37397 0.0
H367 H 0.68856 0.09893 0.3486 0.0
H368 H 0.72256 0.13562 0.35154 0.0
C369 C 0.71389 0.10191 0.35342 0.0
H370 H 0.7295 0.07996 0.34574 0.0
H371 H 0.6342 0.02916 0.33963 0.0
O372 O 0.68966 0.01514 0.43265 0.0
C373 C 0.62179 0.00673 0.38846 0.0
Co374 Co 0.31447 0.04428 0.40808 0.0
Co375 Co 0.31624 0.04451 0.3675 0.0
C376 C 0.29106 0.12061 0.38731 0.0
O377 O 0.29683 0.10201 0.40164 0.0
O378 O 0.29693 0.1018 0.37306 0.0
C379 C 0.28318 0.04095 0.44161 0.0
O380 O 0.25602 0.04701 0.43299 0.0
C381 C 0.29218 0.04418 0.33139 0.0
C382 C 0.33617 0.02197 0.31758 0.0
C383 C 0.30425 0.03499 0.31504 0.0
N384 N 0.31588 0.03654 0.343 0.0
N385 N 0.34205 0.02325 0.33461 0.0
C386 C 0.25933 0.06195 0.33587 0.0
H387 H 0.25958 0.07709 0.3488 0.0
H388 H 0.24134 0.03517 0.33607 0.0
H389 H 0.25144 0.08596 0.32607 0.0
C390 C 0.28173 0.95996 0.40148 0.0
N391 N 0.29353 0.99835 0.396 0.0
N392 N 0.29445 0.99834 0.37902 0.0
C393 C 0.28333 0.95989 0.37323 0.0
C394 C 0.2747 0.93452 0.38725 0.0
C395 C 0.28192 0.94536 0.41987 0.0
H396 H 0.30454 0.95639 0.4263 0.0
H397 H 0.26079 0.95986 0.42663 0.0
H398 H 0.28013 0.90957 0.42091 0.0
O399 O 0.36162 0.04185 0.40302 0.0
O400 O 0.36271 0.04403 0.37444 0.0
H401 H 0.30897 0.94834 0.34969 0.0
H402 H 0.27452 0.9127 0.35305 0.0
C403 C 0.28375 0.94622 0.35475 0.0
H404 H 0.26824 0.96848 0.34716 0.0
H405 H 0.36409 0.0154 0.34051 0.0
O406 O 0.30999 0.03829 0.43349 0.0
C407 C 0.37733 0.04222 0.38888 0.0
Co408 Co 0.68273 0.54458 0.10368 0.0
Co409 Co 0.68339 0.54369 0.14424 0.0
C410 C 0.7067 0.62072 0.12418 0.0
O411 O 0.70052 0.60227 0.10987 0.0
O412 O 0.70151 0.60164 0.13847 0.0
C413 C 0.71106 0.54923 0.0697 0.0
O414 O 0.73577 0.56715 0.07774 0.0
C415 C 0.70867 0.54361 0.18012 0.0
C416 C 0.66537 0.52021 0.19423 0.0
C417 C 0.69708 0.53426 0.19655 0.0
N418 N 0.68484 0.53524 0.16868 0.0
N419 N 0.65912 0.52114 0.17723 0.0
C420 C 0.74106 0.56239 0.17543 0.0
H421 H 0.74034 0.57702 0.16241 0.0
H422 H 0.7596 0.53625 0.17534 0.0
H423 H 0.74856 0.58704 0.18506 0.0
C424 C 0.71654 0.46108 0.10945 0.0
N425 N 0.70469 0.49898 0.11535 0.0
N426 N 0.70544 0.49869 0.13231 0.0
C427 C 0.71795 0.46061 0.13769 0.0
C428 C 0.72556 0.43572 0.12338 0.0
C429 C 0.71597 0.44764 0.09093 0.0
H430 H 0.69115 0.45238 0.08562 0.0
H431 H 0.73295 0.46849 0.08354 0.0
H432 H 0.72339 0.4133 0.08929 0.0
O433 O 0.63584 0.54239 0.10935 0.0
O434 O 0.63666 0.54134 0.13793 0.0
H435 H 0.69351 0.4481 0.1615 0.0
H436 H 0.72747 0.41224 0.15731 0.0
C437 C 0.71843 0.44599 0.15606 0.0
H438 H 0.73444 0.46776 0.16361 0.0
H439 H 0.63708 0.51264 0.17148 0.0
O440 O 0.68639 0.53713 0.07834 0.0
C441 C 0.6211 0.54085 0.12376 0.0
Co442 Co 0.31487 0.5026 0.10452 0.0
Co443 Co 0.31458 0.50395 0.14514 0.0
C444 C 0.2903 0.42725 0.12533 0.0
O445 O 0.2964 0.44556 0.111 0.0
O446 O 0.29591 0.44627 0.13957 0.0
C447 C 0.28444 0.50415 0.07094 0.0
O448 O 0.25745 0.49706 0.07958 0.0
C449 C 0.28935 0.50463 0.18105 0.0
C450 C 0.33275 0.52781 0.19512 0.0
C451 C 0.30092 0.51421 0.19748 0.0
N452 N 0.31327 0.51252 0.1696 0.0
N453 N 0.33907 0.52641 0.17814 0.0
C454 C 0.25684 0.4862 0.17635 0.0
H455 H 0.25767 0.47071 0.1635 0.0
H456 H 0.23862 0.51271 0.17585 0.0
H457 H 0.24884 0.46232 0.18617 0.0
C458 C 0.28297 0.58784 0.11035 0.0
N459 N 0.29389 0.54931 0.11616 0.0
N460 N 0.293 0.54938 0.13314 0.0
C461 C 0.2811 0.58773 0.1386 0.0
C462 C 0.27429 0.61327 0.12435 0.0
C463 C 0.28331 0.60124 0.09182 0.0
H464 H 0.30687 0.59211 0.08585 0.0
H465 H 0.26357 0.58399 0.08492 0.0
H466 H 0.27922 0.63654 0.09025 0.0
O467 O 0.3618 0.5037 0.1101 0.0
O468 O 0.36132 0.50533 0.1387 0.0
H469 H 0.3057 0.59862 0.16249 0.0
H470 H 0.27282 0.63612 0.15842 0.0
C471 C 0.28089 0.60199 0.15702 0.0
H472 H 0.26426 0.58084 0.16447 0.0
H473 H 0.36118 0.53458 0.17238 0.0
O474 O 0.31115 0.50814 0.07907 0.0
C475 C 0.37672 0.50521 0.12446 0.0
Co476 Co 0.68434 0.50708 0.90672 0.0
Co477 Co 0.68225 0.50484 0.86618 0.0
C478 C 0.70769 0.42973 0.88674 0.0
O479 O 0.70197 0.4489 0.90095 0.0
O480 O 0.70168 0.44791 0.87236 0.0
C481 C 0.71311 0.50433 0.94078 0.0
O482 O 0.73771 0.48531 0.93304 0.0
C483 C 0.70644 0.50355 0.83012 0.0
C484 C 0.66262 0.52565 0.81614 0.0
C485 C 0.69452 0.51245 0.8137 0.0
N486 N 0.68267 0.51156 0.84164 0.0
N487 N 0.65658 0.52471 0.83316 0.0
C488 C 0.73925 0.48595 0.83477 0.0
H489 H 0.73862 0.47014 0.84757 0.0
H490 H 0.75702 0.51295 0.8354 0.0
H491 H 0.74768 0.4625 0.82489 0.0
C492 C 0.71779 0.59003 0.89955 0.0
N493 N 0.70549 0.55184 0.89422 0.0
N494 N 0.70403 0.55163 0.87728 0.0
C495 C 0.71506 0.58996 0.87132 0.0
C496 C 0.72427 0.61546 0.88522 0.0
C497 C 0.71879 0.60404 0.918 0.0
H498 H 0.6945 0.59919 0.92394 0.0
H499 H 0.73654 0.58358 0.92506 0.0
H500 H 0.72592 0.63854 0.91935 0.0
O501 O 0.6372 0.50929 0.90164 0.0
O502 O 0.63578 0.50566 0.87309 0.0
H503 H 0.68893 0.60111 0.8479 0.0
H504 H 0.72358 0.63664 0.85091 0.0
C505 C 0.71426 0.60324 0.85279 0.0
H506 H 0.72951 0.5807 0.84518 0.0
H507 H 0.63454 0.53287 0.83899 0.0
O508 O 0.68867 0.51629 0.93193 0.0
C509 C 0.62132 0.50822 0.88756 0.0
Co510 Co 0.31415 0.54383 0.90782 0.0
Co511 Co 0.31534 0.54493 0.86722 0.0
C512 C 0.29026 0.62045 0.8874 0.0
O513 O 0.29625 0.60158 0.90164 0.0
O514 O 0.29603 0.60199 0.87307 0.0
C515 C 0.28313 0.5392 0.94136 0.0
O516 O 0.25584 0.54439 0.93278 0.0
C517 C 0.29087 0.54557 0.83116 0.0
C518 C 0.33444 0.52258 0.81719 0.0
C519 C 0.30263 0.53617 0.81476 0.0
N520 N 0.31463 0.53747 0.84268 0.0
N521 N 0.34057 0.52377 0.8342 0.0
C522 C 0.25822 0.56378 0.83578 0.0
H523 H 0.25893 0.57957 0.84858 0.0
H524 H 0.24016 0.53712 0.83638 0.0
H525 H 0.2501 0.58737 0.82588 0.0
C526 C 0.28156 0.45945 0.90105 0.0
N527 N 0.29319 0.49803 0.89566 0.0
N528 N 0.29377 0.49846 0.87868 0.0
C529 C 0.28254 0.46016 0.87279 0.0
C530 C 0.27424 0.43439 0.88675 0.0
C531 C 0.28225 0.44429 0.91936 0.0
H532 H 0.3047 0.45591 0.9258 0.0
H533 H 0.26088 0.45773 0.92626 0.0
H534 H 0.28122 0.40841 0.92022 0.0
O535 O 0.36122 0.54173 0.90256 0.0
O536 O 0.36193 0.54443 0.87398 0.0
H537 H 0.30753 0.44882 0.84905 0.0
H538 H 0.27271 0.41386 0.85242 0.0
C539 C 0.2824 0.4471 0.85424 0.0
H540 H 0.26702 0.46995 0.84685 0.0
H541 H 0.36259 0.51546 0.84002 0.0
O542 O 0.30996 0.53747 0.93322 0.0
C543 C 0.37674 0.54241 0.88837 0.0
H544 H 0.2612 0.01252 0.20609 0.0
H545 H 0.17101 0.05893 0.22787 0.0
H546 H 0.28667 0.01588 0.23438 0.0
H547 H 0.19648 0.06289 0.25617 0.0
H548 H 0.24123 0.01387 0.30667 0.0
H549 H 0.21597 0.01576 0.27833 0.0
H550 H 0.30578 0.06374 0.25646 0.0
H551 H 0.33108 0.0613 0.28486 0.0
C552 C 0.24705 0.02452 0.21682 0.0
C553 C 0.21425 0.03615 0.21468 0.0
C554 C 0.26161 0.02629 0.2331 0.0
C555 C 0.24367 0.03972 0.24761 0.0
C556 C 0.21092 0.05178 0.24537 0.0
C557 C 0.19636 0.04975 0.22913 0.0
C558 C 0.25534 0.02581 0.29591 0.0
C559 C 0.28796 0.03824 0.29807 0.0
C560 C 0.24091 0.02671 0.2796 0.0
C561 C 0.25878 0.04005 0.26506 0.0
C562 C 0.29139 0.05275 0.26729 0.0
C563 C 0.30584 0.05159 0.28359 0.0
H564 H 0.73687 0.02977 0.20561 0.0
H565 H 0.82881 0.99013 0.22744 0.0
H566 H 0.71172 0.0258 0.23395 0.0
H567 H 0.80365 0.98548 0.25583 0.0
H568 H 0.75706 0.03379 0.30609 0.0
H569 H 0.78252 0.03186 0.27779 0.0
H570 H 0.69441 0.97773 0.25625 0.0
H571 H 0.6689 0.98035 0.28458 0.0
C572 C 0.7515 0.01907 0.21638 0.0
C573 C 0.78467 0.00949 0.21424 0.0
C574 C 0.73713 0.01695 0.23269 0.0
C575 C 0.75561 0.00519 0.24723 0.0
C576 C 0.78876 0.99523 0.245 0.0
C577 C 0.80314 0.99764 0.22872 0.0
C578 C 0.74341 0.02052 0.29541 0.0
C579 C 0.71117 0.0065 0.29762 0.0
C580 C 0.75796 0.01956 0.27913 0.0
C581 C 0.74057 1.00455 0.26469 0.0
C582 C 0.7084 0.99008 0.267 0.0
C583 C 0.69383 0.99133 0.28325 0.0
H584 H 0.23824 0.03344 0.70606 0.0
H585 H 0.32889 0.98847 0.72778 0.0
H586 H 0.21304 0.03055 0.73442 0.0
H587 H 0.30367 0.98488 0.75616 0.0
H588 H 0.25887 0.03455 0.80661 0.0
H589 H 0.28412 0.03187 0.77827 0.0
H590 H 0.19424 0.98339 0.75664 0.0
H591 H 0.16895 0.98681 0.78502 0.0
C592 C 0.25255 0.02183 0.7168 0.0
C593 C 0.28539 0.01046 0.71463 0.0
C594 C 0.23815 0.02032 0.73312 0.0
C595 C 0.25627 0.00738 0.74763 0.0
C596 C 0.28907 0.9956 0.74536 0.0
C597 C 0.30349 0.9974 0.72907 0.0
C598 C 0.24475 0.02237 0.7959 0.0
C599 C 0.2121 0.01017 0.79811 0.0
C600 C 0.25918 0.02098 0.77959 0.0
C601 C 0.24127 0.00732 0.76511 0.0
C602 C 0.20866 0.99468 0.76742 0.0
C603 C 0.19421 0.99638 0.7837 0.0
H604 H 0.69269 0.97225 0.72316 0.0
H605 H 0.73512 0.09588 0.70982 0.0
H606 H 0.71716 0.97679 0.75164 0.0
H607 H 0.76009 0.10003 0.73828 0.0
H608 H 0.82838 0.06224 0.78384 0.0
H609 H 0.80276 0.06258 0.75546 0.0
H610 H 0.71249 0.0194 0.77826 0.0
H611 H 0.73836 0.01781 0.80649 0.0
C612 C 0.70734 1.00037 0.72627 0.0
C613 C 0.7125 0.03323 0.71403 0.0
C614 C 0.72123 1.00305 0.74264 0.0
C615 C 0.74057 0.03876 0.74722 0.0
C616 C 0.7457 0.07177 0.73503 0.0
C617 C 0.73163 0.06917 0.71863 0.0
C618 C 0.80297 0.05317 0.78279 0.0
C619 C 0.78525 0.0407 0.79746 0.0
C620 C 0.78826 0.05363 0.76656 0.0
C621 C 0.75559 0.04107 0.76461 0.0
C622 C 0.73776 0.02905 0.77933 0.0
C623 C 0.75244 0.02882 0.79557 0.0
H624 H 0.19194 0.47167 0.72378 0.0
H625 H 0.23737 0.59294 0.70982 0.0
H626 H 0.21672 0.47589 0.7522 0.0
H627 H 0.26251 0.59687 0.73823 0.0
H628 H 0.3295 0.55944 0.78417 0.0
H629 H 0.30409 0.55932 0.75576 0.0
H630 H 0.2132 0.51862 0.7786 0.0
H631 H 0.23889 0.5173 0.80686 0.0
C632 C 0.20732 0.4992 0.72674 0.0
C633 C 0.21319 0.53149 0.71435 0.0
C634 C 0.22138 0.50172 0.74308 0.0
C635 C 0.24159 0.53673 0.7475 0.0
C636 C 0.24746 0.56913 0.73513 0.0
C637 C 0.23327 0.56666 0.71876 0.0
C638 C 0.30401 0.55077 0.78312 0.0
C639 C 0.28608 0.53912 0.79783 0.0
C640 C 0.28941 0.55098 0.76686 0.0
C641 C 0.25661 0.53902 0.76491 0.0
C642 C 0.23859 0.52776 0.77965 0.0
C643 C 0.25317 0.52774 0.79593 0.0
H644 H 0.75975 0.45587 0.70874 0.0
H645 H 0.80464 0.57754 0.72263 0.0
H646 H 0.73457 0.45187 0.73714 0.0
H647 H 0.77981 0.57329 0.75103 0.0
H648 H 0.75813 0.53186 0.80571 0.0
H649 H 0.78368 0.53067 0.77742 0.0
H650 H 0.69292 0.48898 0.75473 0.0
H651 H 0.66765 0.4887 0.78318 0.0
C652 C 0.76371 0.48223 0.71766 0.0
C653 C 0.78368 0.5175 0.71324 0.0
C654 C 0.74949 0.47973 0.73403 0.0
C655 C 0.75524 0.51221 0.74637 0.0
C656 C 0.77526 0.54738 0.74193 0.0
C657 C 0.78935 0.54992 0.7256 0.0
C658 C 0.74385 0.52123 0.79481 0.0
C659 C 0.71102 0.50952 0.79676 0.0
C660 C 0.75836 0.52128 0.77851 0.0
C661 C 0.74032 0.5098 0.7638 0.0
C662 C 0.7076 0.49751 0.76581 0.0
C663 C 0.69308 0.49762 0.78209 0.0
H664 H 0.328 0.49098 0.228 0.0
H665 H 0.23698 0.53195 0.20542 0.0
H666 H 0.30264 0.49032 0.25642 0.0
H667 H 0.21134 0.52987 0.2337 0.0
H668 H 0.19011 0.57605 0.28872 0.0
H669 H 0.21457 0.57236 0.26021 0.0
H670 H 0.26149 0.45188 0.27388 0.0
H671 H 0.23664 0.45527 0.30238 0.0
C672 C 0.30244 0.49924 0.22907 0.0
C673 C 0.28438 0.51082 0.21439 0.0
C674 C 0.28787 0.49857 0.24534 0.0
C675 C 0.25496 0.50997 0.24733 0.0
C676 C 0.2368 0.52114 0.23262 0.0
C677 C 0.25137 0.52163 0.21633 0.0
C678 C 0.20566 0.54874 0.28567 0.0
C679 C 0.21194 0.51645 0.29801 0.0
C680 C 0.21954 0.54651 0.26928 0.0
C681 C 0.23999 0.51183 0.26476 0.0
C682 C 0.24624 0.4794 0.27706 0.0
C683 C 0.23222 0.48156 0.29348 0.0
H684 H 0.76054 0.5155 0.20492 0.0
H685 H 0.67 0.56112 0.22656 0.0
H686 H 0.78579 0.51886 0.23326 0.0
H687 H 0.69527 0.56517 0.25491 0.0
H688 H 0.7399 0.51573 0.30542 0.0
H689 H 0.71471 0.51818 0.27707 0.0
H690 H 0.80462 0.56643 0.2554 0.0
H691 H 0.82986 0.5633 0.2838 0.0
C692 C 0.74627 0.52735 0.21563 0.0
C693 C 0.71343 0.53872 0.21345 0.0
C694 C 0.7607 0.52913 0.23194 0.0
C695 C 0.74261 0.54236 0.24642 0.0
C696 C 0.70983 0.55422 0.24413 0.0
C697 C 0.69539 0.55214 0.22786 0.0
C698 C 0.75404 0.52784 0.29471 0.0
C699 C 0.78669 0.54006 0.2969 0.0
C700 C 0.73964 0.52908 0.27839 0.0
C701 C 0.75758 0.5426 0.2639 0.0
C702 C 0.79018 0.55527 0.2662 0.0
C703 C 0.8046 0.55373 0.28248 0.0
H704 H 0.20676 0.17654 0.09917 0.0
H705 H 0.23726 0.16207 0.15211 0.0
H706 H 0.22547 0.25119 0.09931 0.0
H707 H 0.25747 0.23634 0.15204 0.0
H708 H 0.26123 0.38378 0.15195 0.0
H709 H 0.24101 0.30952 0.15204 0.0
H710 H 0.27215 0.29439 0.09917 0.0
H711 H 0.29087 0.36904 0.09889 0.0
C712 C 0.21786 0.18915 0.11079 0.0
C713 C 0.22052 0.16334 0.12563 0.0
C714 C 0.22878 0.23201 0.11085 0.0
C715 C 0.24311 0.25001 0.12567 0.0
C716 C 0.24606 0.22395 0.14048 0.0
C717 C 0.23469 0.18121 0.14049 0.0
C718 C 0.2636 0.36458 0.14033 0.0
C719 C 0.27754 0.38237 0.1254 0.0
C720 C 0.25224 0.32185 0.14041 0.0
C721 C 0.25494 0.2957 0.12562 0.0
C722 C 0.26903 0.31363 0.11071 0.0
C723 C 0.27994 0.35649 0.11057 0.0
H724 H 0.73595 0.6644 0.15066 0.0
H725 H 0.70577 0.67887 0.09768 0.0
H726 H 0.7562 0.73859 0.15063 0.0
H727 H 0.72455 0.75355 0.09784 0.0
H728 H 0.79024 0.87168 0.09782 0.0
H729 H 0.77114 0.79713 0.09784 0.0
H730 H 0.73972 0.81157 0.15069 0.0
H731 H 0.7603 0.88557 0.15087 0.0
C732 C 0.73344 0.68354 0.13904 0.0
C733 C 0.71932 0.66568 0.12416 0.0
C734 C 0.74483 0.72625 0.13905 0.0
C735 C 0.74198 0.75236 0.12425 0.0
C736 C 0.72775 0.73436 0.10939 0.0
C737 C 0.71679 0.6915 0.10932 0.0
C738 C 0.77917 0.85897 0.10943 0.0
C739 C 0.77684 0.88457 0.12435 0.0
C740 C 0.76803 0.81619 0.10943 0.0
C741 C 0.75382 0.79806 0.12427 0.0
C742 C 0.75108 0.824 0.13912 0.0
C743 C 0.76265 0.86662 0.13919 0.0
H744 H 0.23709 0.88571 0.86107 0.0
H745 H 0.20722 0.87161 0.91412 0.0
H746 H 0.25735 0.81149 0.86115 0.0
H747 H 0.22596 0.79691 0.91399 0.0
H748 H 0.29087 0.67816 0.91406 0.0
H749 H 0.27223 0.75293 0.91398 0.0
H750 H 0.24082 0.73864 0.86113 0.0
H751 H 0.26097 0.6644 0.86101 0.0
C752 C 0.23468 0.86666 0.87272 0.0
C753 C 0.22063 0.88462 0.8876 0.0
C754 C 0.24607 0.82392 0.87274 0.0
C755 C 0.24326 0.7979 0.88756 0.0
C756 C 0.22915 0.81603 0.90243 0.0
C757 C 0.21821 0.85891 0.90248 0.0
C758 C 0.2799 0.69095 0.90243 0.0
C759 C 0.27744 0.66532 0.88753 0.0
C760 C 0.26903 0.73387 0.9024 0.0
C761 C 0.25493 0.7521 0.88755 0.0
C762 C 0.25209 0.72614 0.87271 0.0
C763 C 0.26341 0.68339 0.87267 0.0
H764 H 0.70741 0.37236 0.91353 0.0
H765 H 0.73701 0.3856 0.86041 0.0
H766 H 0.7263 0.29768 0.91358 0.0
H767 H 0.75744 0.31152 0.86066 0.0
H768 H 0.76149 0.16464 0.8607 0.0
H769 H 0.74121 0.23879 0.86075 0.0
H770 H 0.77235 0.25342 0.91364 0.0
H771 H 0.79108 0.17866 0.91378 0.0
C772 C 0.71836 0.35947 0.90191 0.0
C773 C 0.72064 0.38491 0.88696 0.0
C774 C 0.72939 0.31661 0.90196 0.0
C775 C 0.74346 0.29825 0.88712 0.0
C776 C 0.74616 0.32407 0.87223 0.0
C777 C 0.73467 0.36674 0.87211 0.0
C778 C 0.76387 0.18369 0.87235 0.0
C779 C 0.77784 0.16571 0.88725 0.0
C780 C 0.75246 0.2264 0.87235 0.0
C781 C 0.75519 0.25245 0.88718 0.0
C782 C 0.76924 0.2343 0.90206 0.0
C783 C 0.78018 0.1914 0.90213 0.0
H784 H 0.81232 0.87009 0.87513 0.0
H785 H 0.71808 0.89531 0.89745 0.0
H786 H 0.80069 0.79221 0.87502 0.0
H787 H 0.70618 0.81729 0.89732 0.0
H788 H 0.68561 0.68102 0.87411 0.0
H789 H 0.69737 0.75888 0.87463 0.0
H790 H 0.79157 0.73245 0.89705 0.0
H791 H 0.77956 0.65451 0.89654 0.0
C792 C 0.78908 0.85875 0.87996 0.0
C793 C 0.76591 0.88828 0.88617 0.0
C794 C 0.78251 0.81434 0.88 0.0
C795 C 0.75252 0.79876 0.88613 0.0
C796 C 0.72936 0.82848 0.89237 0.0
C797 C 0.73613 0.87291 0.89251 0.0
C798 C 0.70886 0.69205 0.87904 0.0
C799 C 0.73188 0.66217 0.88513 0.0
C800 C 0.71548 0.73645 0.87947 0.0
C801 C 0.74537 0.75166 0.88587 0.0
C802 C 0.76845 0.72157 0.89191 0.0
C803 C 0.76163 0.67717 0.89166 0.0
H804 H 0.21911 0.39585 0.89844 0.0
H805 H 0.31225 0.36861 0.87521 0.0
H806 H 0.20652 0.31801 0.89875 0.0
H807 H 0.30002 0.2908 0.8757 0.0
H808 H 0.18546 0.18084 0.87534 0.0
H809 H 0.19757 0.25867 0.87538 0.0
H810 H 0.29027 0.23278 0.89954 0.0
H811 H 0.27778 0.15489 0.89969 0.0
C812 C 0.23674 0.37305 0.89336 0.0
C813 C 0.2664 0.38778 0.88662 0.0
C814 C 0.2296 0.32875 0.89351 0.0
C815 C 0.25233 0.29853 0.88724 0.0
C816 C 0.28219 0.31343 0.88069 0.0
C817 C 0.28908 0.35775 0.88029 0.0
C818 C 0.2084 0.192 0.88061 0.0
C819 C 0.2309 0.16231 0.88737 0.0
C820 C 0.21524 0.23634 0.88073 0.0
C821 C 0.24487 0.2516 0.88742 0.0
C822 C 0.26738 0.22175 0.89418 0.0
C823 C 0.26028 0.17742 0.89431 0.0
H824 H 0.78453 0.39743 0.12737 0.0
H825 H 0.68291 0.36992 0.11908 0.0
H826 H 0.79667 0.31976 0.12712 0.0
H827 H 0.69436 0.29216 0.11955 0.0
H828 H 0.73009 0.15745 0.10467 0.0
H829 H 0.71869 0.23515 0.10376 0.0
H830 H 0.7904 0.25629 0.14368 0.0
H831 H 0.80305 0.1792 0.14367 0.0
C832 C 0.76486 0.37448 0.12557 0.0
C833 C 0.73292 0.38907 0.12318 0.0
C834 C 0.77165 0.33007 0.12556 0.0
C835 C 0.74648 0.29951 0.12336 0.0
C836 C 0.71443 0.31461 0.12099 0.0
C837 C 0.70777 0.35901 0.12084 0.0
C838 C 0.7434 0.17892 0.11318 0.0
C839 C 0.76718 0.16239 0.12435 0.0
C840 C 0.73672 0.22336 0.11279 0.0
C841 C 0.75356 0.25216 0.12368 0.0
C842 C 0.77725 0.23531 0.13493 0.0
C843 C 0.78414 0.191 0.13516 0.0
H844 H 0.27965 0.89365 0.13532 0.0
H845 H 0.18483 0.86681 0.11405 0.0
H846 H 0.29195 0.81581 0.13559 0.0
H847 H 0.19695 0.78909 0.11416 0.0
H848 H 0.21863 0.65204 0.13523 0.0
H849 H 0.20634 0.72988 0.13561 0.0
H850 H 0.30125 0.75673 0.11408 0.0
H851 H 0.31335 0.67899 0.11386 0.0
C852 C 0.26159 0.87092 0.13064 0.0
C853 C 0.23153 0.88579 0.12448 0.0
C854 C 0.26859 0.82657 0.13074 0.0
C855 C 0.24542 0.7964 0.12486 0.0
C856 C 0.21517 0.81151 0.11889 0.0
C857 C 0.20832 0.85585 0.11868 0.0
C858 C 0.23666 0.67479 0.13055 0.0
C859 C 0.26669 0.65996 0.12434 0.0
C860 C 0.22968 0.71915 0.13071 0.0
C861 C 0.25283 0.74935 0.12483 0.0
C862 C 0.28305 0.73427 0.1188 0.0
C863 C 0.28989 0.68993 0.11853 0.0
H864 H 0.20796 0.67643 0.59939 0.0
H865 H 0.23823 0.66167 0.65234 0.0
H866 H 0.22668 0.75103 0.59959 0.0
H867 H 0.25847 0.73596 0.65234 0.0
H868 H 0.26194 0.88364 0.65227 0.0
H869 H 0.24206 0.80921 0.65237 0.0
H870 H 0.27327 0.79429 0.59951 0.0
H871 H 0.29164 0.86909 0.59921 0.0
C872 C 0.21904 0.68896 0.61102 0.0
C873 C 0.22162 0.66306 0.62585 0.0
C874 C 0.22997 0.7318 0.61112 0.0
C875 C 0.24424 0.74975 0.62597 0.0
C876 C 0.24712 0.72361 0.64076 0.0
C877 C 0.23575 0.68086 0.64073 0.0
C878 C 0.2644 0.86445 0.64066 0.0
C879 C 0.27823 0.88236 0.62571 0.0
C880 C 0.25323 0.82161 0.64074 0.0
C881 C 0.25603 0.79548 0.62595 0.0
C882 C 0.27006 0.81351 0.61105 0.0
C883 C 0.28078 0.85645 0.61089 0.0
H884 H 0.76171 0.38513 0.6515 0.0
H885 H 0.79204 0.36999 0.59857 0.0
H886 H 0.74155 0.31082 0.65161 0.0
H887 H 0.77335 0.29535 0.59887 0.0
H888 H 0.70769 0.17769 0.59868 0.0
H889 H 0.7266 0.25225 0.59884 0.0
H890 H 0.75784 0.23748 0.6517 0.0
H891 H 0.73747 0.16329 0.65173 0.0
C892 C 0.76425 0.36585 0.63992 0.0
C893 C 0.77836 0.38357 0.62501 0.0
C894 C 0.75291 0.32307 0.64001 0.0
C895 C 0.75579 0.29682 0.62525 0.0
C896 C 0.77008 0.31466 0.61038 0.0
C897 C 0.78099 0.35753 0.61023 0.0
C898 C 0.71868 0.19029 0.61033 0.0
C899 C 0.72106 0.1645 0.6252 0.0
C900 C 0.72972 0.2331 0.61041 0.0
C901 C 0.74388 0.25113 0.62528 0.0
C902 C 0.74657 0.22509 0.6401 0.0
C903 C 0.73512 0.18237 0.64009 0.0
H904 H 0.20782 0.3718 0.41333 0.0
H905 H 0.23843 0.38613 0.36041 0.0
H906 H 0.22659 0.29719 0.41325 0.0
H907 H 0.25874 0.31186 0.36054 0.0
H908 H 0.29143 0.17875 0.41381 0.0
H909 H 0.27297 0.25356 0.41349 0.0
H910 H 0.24245 0.23876 0.36051 0.0
H911 H 0.26243 0.16439 0.36064 0.0
C912 C 0.21898 0.35917 0.40172 0.0
C913 C 0.22162 0.38495 0.38687 0.0
C914 C 0.22995 0.31632 0.4017 0.0
C915 C 0.24433 0.29824 0.3869 0.0
C916 C 0.2473 0.32429 0.37209 0.0
C917 C 0.23588 0.36704 0.37204 0.0
C918 C 0.2807 0.19142 0.4021 0.0
C919 C 0.2784 0.16558 0.38725 0.0
C920 C 0.26992 0.23438 0.40193 0.0
C921 C 0.25609 0.25247 0.38698 0.0
C922 C 0.25349 0.22635 0.37217 0.0
C923 C 0.26471 0.18353 0.37228 0.0
H924 H 0.79146 0.67659 0.41359 0.0
H925 H 0.76163 0.6636 0.3605 0.0
H926 H 0.77276 0.75134 0.4137 0.0
H927 H 0.74137 0.73778 0.36081 0.0
H928 H 0.73739 0.88461 0.36094 0.0
H929 H 0.75769 0.81048 0.36094 0.0
H930 H 0.72678 0.7957 0.41386 0.0
H931 H 0.70802 0.87046 0.41406 0.0
C932 C 0.7805 0.68955 0.40199 0.0
C933 C 0.77809 0.66414 0.38703 0.0
C934 C 0.76958 0.73246 0.40207 0.0
C935 C 0.75547 0.7509 0.38726 0.0
C936 C 0.75267 0.72515 0.37236 0.0
C937 C 0.76406 0.68242 0.37221 0.0
C938 C 0.73508 0.86555 0.3726 0.0
C939 C 0.72115 0.88347 0.38751 0.0
C940 C 0.74649 0.82284 0.37256 0.0
C941 C 0.74381 0.79674 0.38737 0.0
C942 C 0.72985 0.81485 0.40229 0.0
C943 C 0.7189 0.85776 0.40239 0.0
H944 H 0.81202 0.36838 0.37402 0.0
H945 H 0.71897 0.39407 0.39762 0.0
H946 H 0.80027 0.29054 0.37419 0.0
H947 H 0.70696 0.31611 0.39779 0.0
H948 H 0.78032 0.15328 0.39637 0.0
H949 H 0.7923 0.23124 0.39654 0.0
H950 H 0.69695 0.25728 0.37544 0.0
H951 H 0.68523 0.1794 0.37526 0.0
C952 C 0.78899 0.35716 0.37916 0.0
C953 C 0.7662 0.38681 0.38567 0.0
C954 C 0.78236 0.31277 0.37938 0.0
C955 C 0.7527 0.29733 0.38598 0.0
C956 C 0.72989 0.32718 0.39248 0.0
C957 C 0.73672 0.37159 0.39244 0.0
C958 C 0.76212 0.17586 0.39172 0.0
C959 C 0.73206 0.16076 0.38565 0.0
C960 C 0.76892 0.22027 0.39177 0.0
C961 C 0.74554 0.25025 0.38598 0.0
C962 C 0.71531 0.23494 0.38008 0.0
C963 C 0.70869 0.19053 0.37985 0.0
H964 H 0.27712 0.65518 0.40151 0.0
H965 H 0.18739 0.68079 0.37453 0.0
H966 H 0.28964 0.73308 0.40151 0.0
H967 H 0.19951 0.75858 0.37472 0.0
H968 H 0.31379 0.86852 0.37703 0.0
H969 H 0.30165 0.79068 0.37762 0.0
H970 H 0.20622 0.81831 0.39826 0.0
H971 H 0.21874 0.89618 0.39789 0.0
C972 C 0.26019 0.67762 0.39559 0.0
C973 C 0.23154 0.6624 0.38788 0.0
C974 C 0.26731 0.72195 0.39555 0.0
C975 C 0.24552 0.7517 0.3881 0.0
C976 C 0.2166 0.73633 0.38062 0.0
C977 C 0.20978 0.69199 0.38041 0.0
C978 C 0.29024 0.85773 0.38164 0.0
C979 C 0.267 0.88788 0.38726 0.0
C980 C 0.28338 0.8134 0.38209 0.0
C981 C 0.253 0.79862 0.38797 0.0
C982 C 0.22973 0.82896 0.39355 0.0
C983 C 0.23682 0.87328 0.39337 0.0
H984 H 0.71397 0.65172 0.62726 0.0
H985 H 0.81508 0.67917 0.61736 0.0
H986 H 0.70175 0.72935 0.62693 0.0
H987 H 0.80362 0.75691 0.61778 0.0
H988 H 0.76737 0.89178 0.60359 0.0
H989 H 0.77868 0.81407 0.60248 0.0
H990 H 0.7087 0.79282 0.64324 0.0
H991 H 0.69604 0.86985 0.64342 0.0
C992 C 0.73351 0.67465 0.62507 0.0
C993 C 0.76532 0.66003 0.62225 0.0
C994 C 0.72669 0.71905 0.62502 0.0
C995 C 0.75172 0.74961 0.62238 0.0
C996 C 0.78363 0.73449 0.61956 0.0
C997 C 0.79031 0.69009 0.61943 0.0
C998 C 0.7544 0.87028 0.61222 0.0
C999 C 0.73109 0.88678 0.62368 0.0
C1000 C 0.76103 0.82583 0.61172 0.0
C1001 C 0.74466 0.79698 0.6228 0.0
C1002 C 0.72147 0.8138 0.63434 0.0
C1003 C 0.7146 0.85811 0.63467 0.0
H1004 H 0.1869 0.36723 0.63696 0.0
H1005 H 0.27782 0.39312 0.61116 0.0
H1006 H 0.1988 0.28935 0.6365 0.0
H1007 H 0.29014 0.31514 0.61094 0.0
H1008 H 0.21896 0.15235 0.61281 0.0
H1009 H 0.20671 0.23034 0.61243 0.0
H1010 H 0.30063 0.25692 0.63509 0.0
H1011 H 0.31247 0.17899 0.63571 0.0
C1012 C 0.20949 0.35606 0.63128 0.0
C1013 C 0.23166 0.38573 0.62422 0.0
C1014 C 0.21619 0.31169 0.63092 0.0
C1015 C 0.24538 0.2964 0.62371 0.0
C1016 C 0.26757 0.32622 0.61667 0.0
C1017 C 0.26058 0.37059 0.61676 0.0
C1018 C 0.23678 0.17506 0.61775 0.0
C1019 C 0.26641 0.16015 0.62445 0.0
C1020 C 0.22983 0.21943 0.61756 0.0
C1021 C 0.25276 0.24947 0.62374 0.0
C1022 C 0.28265 0.2344 0.63018 0.0
C1023 C 0.28933 0.19003 0.63064 0.0
H1024 H 0.91521 0.03159 0.15155 0.0
H1025 H 0.91973 0.98894 0.09861 0.0
H1026 H 0.97397 0.04132 0.15175 0.0
H1027 H 0.97869 0.99676 0.09901 0.0
H1028 H 0.0788 0.05796 0.09892 0.0
H1029 H 0.01985 0.04993 0.09912 0.0
H1030 H 0.02411 1.00444 0.15175 0.0
H1031 H 0.08285 0.01437 0.15175 0.0
C1032 C 0.92882 0.02369 0.14003 0.0
C1033 C 0.91281 0.00959 0.12505 0.0
C1034 C 0.96259 0.0291 0.14015 0.0
C1035 C 0.98119 0.01998 0.12537 0.0
C1036 C 0.96514 0.00502 0.11051 0.0
C1037 C 0.93134 1.00017 0.11031 0.0
C1038 C 0.0671 0.04646 0.11055 0.0
C1039 C 0.08549 0.03687 0.12532 0.0
C1040 C 0.0333 0.0415 0.11064 0.0
C1041 C 0.01712 0.02624 0.12542 0.0
C1042 C 0.0356 0.01689 0.14022 0.0
C1043 C 0.06935 0.02241 0.1402 0.0
H1044 H 0.07873 0.98998 0.91461 0.0
H1045 H 0.08238 0.03331 0.86174 0.0
H1046 H 0.01967 0.99753 0.91444 0.0
H1047 H 0.02368 0.04286 0.86177 0.0
H1048 H 0.91558 0.01533 0.86131 0.0
H1049 H 0.97423 0.00534 0.8616 0.0
H1050 H 0.97747 0.0493 0.91446 0.0
H1051 H 0.91844 0.05728 0.91437 0.0
C1052 C 0.06691 1.00133 0.90298 0.0
C1053 C 0.0852 0.01087 0.88817 0.0
C1054 C 0.03306 0.00601 0.90291 0.0
C1055 C 0.01677 0.02094 0.8881 0.0
C1056 C 0.03521 0.03051 0.87331 0.0
C1057 C 0.06896 0.02522 0.87331 0.0
C1058 C 0.92882 0.023 0.87298 0.0
C1059 C 0.91237 0.03714 0.88781 0.0
C1060 C 0.96255 0.01746 0.87313 0.0
C1061 C 0.98076 0.02657 0.88804 0.0
C1062 C 0.96426 0.04119 0.90283 0.0
C1063 C 0.93042 0.04611 0.90275 0.0
H1064 H 0.91998 0.49001 0.59785 0.0
H1065 H 0.91544 0.53407 0.65061 0.0
H1066 H 0.97893 0.49811 0.59818 0.0
H1067 H 0.97416 0.54406 0.65074 0.0
H1068 H 0.08281 0.5162 0.65107 0.0
H1069 H 0.02406 0.50676 0.65097 0.0
H1070 H 0.02042 0.55092 0.59815 0.0
H1071 H 0.07944 0.55846 0.59805 0.0
C1072 C 0.93157 0.50165 0.60949 0.0
C1073 C 0.91305 0.51129 0.62421 0.0
C1074 C 0.96538 0.50664 0.60965 0.0
C1075 C 0.98141 0.52198 0.62446 0.0
C1076 C 0.96279 0.53151 0.63919 0.0
C1077 C 0.92905 0.52595 0.6391 0.0
C1078 C 0.06945 0.52407 0.63945 0.0
C1079 C 0.08579 0.53802 0.62455 0.0
C1080 C 0.03569 0.51883 0.63941 0.0
C1081 C 0.01737 0.52798 0.62454 0.0
C1082 C 0.03374 0.5427 0.60973 0.0
C1083 C 0.06758 0.54737 0.6097 0.0
H1084 H 0.91616 0.51456 0.36086 0.0
H1085 H 0.91879 0.55619 0.41396 0.0
H1086 H 0.97484 0.50468 0.3612 0.0
H1087 H 0.97781 0.54832 0.41411 0.0
H1088 H 0.07903 0.48913 0.4144 0.0
H1089 H 0.01996 0.49652 0.41411 0.0
H1090 H 0.02431 0.5422 0.3615 0.0
H1091 H 0.08302 0.53281 0.36158 0.0
C1092 C 0.92935 0.52219 0.37255 0.0
C1093 C 0.91283 0.53618 0.38738 0.0
C1094 C 0.96309 0.51671 0.37273 0.0
C1095 C 0.98122 0.52573 0.38768 0.0
C1096 C 0.96465 0.54025 0.40246 0.0
C1097 C 0.93082 0.54512 0.40235 0.0
C1098 C 0.06729 0.50051 0.40276 0.0
C1099 C 0.08568 0.51022 0.38801 0.0
C1100 C 0.03343 0.5051 0.40262 0.0
C1101 C 0.01723 0.52011 0.3878 0.0
C1102 C 0.03576 0.5298 0.37305 0.0
C1103 C 0.06952 0.5246 0.37312 0.0
H1104 H 0.41519 0.03244 0.65122 0.0
H1105 H 0.41919 0.98988 0.59826 0.0
H1106 H 0.47382 0.04292 0.65118 0.0
H1107 H 0.47813 0.99846 0.59842 0.0
H1108 H 0.57823 0.06005 0.59819 0.0
H1109 H 0.51929 0.05171 0.59847 0.0
H1110 H 0.52395 0.00627 0.6511 0.0
H1111 H 0.58265 0.01652 0.65102 0.0
C1112 C 0.42867 0.02474 0.63963 0.0
C1113 C 0.41253 0.01037 0.62473 0.0
C1114 C 0.46237 0.03058 0.63962 0.0
C1115 C 0.48084 0.02161 0.62479 0.0
C1116 C 0.46468 0.00654 0.60997 0.0
C1117 C 0.43089 1.00127 0.60991 0.0
C1118 C 0.56661 0.04853 0.60985 0.0
C1119 C 0.58509 0.03904 0.62459 0.0
C1120 C 0.53282 0.04338 0.60997 0.0
C1121 C 0.51676 0.02805 0.62477 0.0
C1122 C 0.53533 0.0188 0.63955 0.0
C1123 C 0.56906 0.02452 0.63949 0.0
H1124 H 0.4199 0.0587 0.36265 0.0
H1125 H 0.41593 0.01697 0.41573 0.0
H1126 H 0.47883 0.05044 0.36285 0.0
H1127 H 0.47466 0.00684 0.41573 0.0
H1128 H 0.58364 0.03348 0.41526 0.0
H1129 H 0.5249 0.04362 0.41545 0.0
H1130 H 0.51987 0.99701 0.363 0.0
H1131 H 0.57878 0.98873 0.3626 0.0
C1132 C 0.43161 0.04759 0.37435 0.0
C1133 C 0.41324 0.03858 0.38918 0.0
C1134 C 0.46541 0.04249 0.37443 0.0
C1135 C 0.4816 0.02769 0.38927 0.0
C1136 C 0.46316 0.01893 0.40414 0.0
C1137 C 0.42941 0.02457 0.40412 0.0
C1138 C 0.56997 0.02523 0.4038 0.0
C1139 C 0.58589 0.01036 0.38891 0.0
C1140 C 0.53622 0.03087 0.40392 0.0
C1141 C 0.51753 0.02127 0.38922 0.0
C1142 C 0.53348 0.00562 0.37444 0.0
C1143 C 0.56727 1.00051 0.37425 0.0
H1144 H 0.57825 0.55715 0.0976 0.0
H1145 H 0.58292 0.5147 0.15057 0.0
H1146 H 0.51932 0.54871 0.09798 0.0
H1147 H 0.52425 0.50435 0.15075 0.0
H1148 H 0.41902 0.48764 0.09819 0.0
H1149 H 0.47799 0.49568 0.09822 0.0
H1150 H 0.47424 0.54134 0.15084 0.0
H1151 H 0.41553 0.5314 0.15102 0.0
C1152 C 0.56669 0.54579 0.1093 0.0
C1153 C 0.58524 0.53671 0.12406 0.0
C1154 C 0.5329 0.5406 0.10949 0.0
C1155 C 0.51692 0.52563 0.12438 0.0
C1156 C 0.53557 0.51663 0.13914 0.0
C1157 C 0.56929 0.52238 0.13902 0.0
C1158 C 0.43085 0.49917 0.10979 0.0
C1159 C 0.41262 0.50879 0.12461 0.0
C1160 C 0.46466 0.50413 0.10977 0.0
C1161 C 0.48098 0.5194 0.1245 0.0
C1162 C 0.46265 0.52884 0.13934 0.0
C1163 C 0.42891 0.52331 0.13943 0.0
H1164 H 0.41901 0.55939 0.86203 0.0
H1165 H 0.41566 0.5169 0.91503 0.0
H1166 H 0.47798 0.5515 0.86207 0.0
H1167 H 0.47441 0.50714 0.91486 0.0
H1168 H 0.58311 0.53463 0.91437 0.0
H1169 H 0.52436 0.54445 0.91459 0.0
H1170 H 0.51941 0.49852 0.86204 0.0
H1171 H 0.57837 0.49056 0.86161 0.0
C1172 C 0.43087 0.54819 0.87368 0.0
C1173 C 0.41266 0.5389 0.88854 0.0
C1174 C 0.46468 0.5433 0.87366 0.0
C1175 C 0.48106 0.52844 0.88844 0.0
C1176 C 0.46277 0.51932 0.90333 0.0
C1177 C 0.42901 0.52475 0.90341 0.0
C1178 C 0.56946 0.52646 0.90288 0.0
C1179 C 0.58542 0.51184 0.88797 0.0
C1180 C 0.5357 0.53192 0.90303 0.0
C1181 C 0.51702 0.52236 0.88833 0.0
C1182 C 0.53301 0.50705 0.87349 0.0
C1183 C 0.56682 0.50213 0.87328 0.0
H1184 H 0.16475 0.99243 0.96395 0.0
H1185 H 0.26412 0.0376 0.962 0.0
H1186 H 0.16509 0.99882 0.99514 0.0
H1187 H 0.26406 0.04666 0.99318 0.0
H1188 H 0.26482 0.02096 0.05081 0.0
H1189 H 0.26533 0.01195 0.01964 0.0
H1190 H 0.16337 0.04708 0.01776 0.0
H1191 H 0.16265 0.0534 0.04895 0.0
C1192 C 0.18659 1.00421 0.97022 0.0
C1193 C 0.21442 0.01445 0.96055 0.0
C1194 C 0.18675 0.00825 0.98814 0.0
C1195 C 0.21455 0.02356 0.99686 0.0
C1196 C 0.24237 0.034 0.98707 0.0
C1197 C 0.24239 0.0291 0.96915 0.0
C1198 C 0.24255 0.02668 0.04368 0.0
C1199 C 0.21368 0.03774 0.05231 0.0
C1200 C 0.24284 0.02181 0.02576 0.0
C1201 C 0.21438 0.02871 0.016 0.0
C1202 C 0.18563 0.04044 0.02474 0.0
C1203 C 0.18522 0.04442 0.04267 0.0
H1204 H 0.8316 0.00762 0.96121 0.0
H1205 H 0.73879 0.0732 0.9644 0.0
H1206 H 0.83107 0.9967 0.99227 0.0
H1207 H 0.73852 0.06273 0.99556 0.0
H1208 H 0.73473 0.99541 0.04854 0.0
H1209 H 0.73413 0.00516 0.01734 0.0
H1210 H 0.83598 0.03992 0.01852 0.0
H1211 H 0.83674 0.02965 0.04961 0.0
C1212 C 0.81109 0.01978 0.96853 0.0
C1213 C 0.78527 0.0414 0.9603 0.0
C1214 C 0.81089 0.01371 0.98636 0.0
C1215 C 0.78483 0.02901 0.99641 0.0
C1216 C 0.75881 0.0502 0.98817 0.0
C1217 C 0.75906 0.05639 0.97032 0.0
C1218 C 0.757 0.00512 0.04215 0.0
C1219 C 0.7858 0.01162 0.05158 0.0
C1220 C 0.7566 0.01093 0.02427 0.0
C1221 C 0.78503 0.02321 0.01543 0.0
C1222 C 0.81378 0.02985 0.02489 0.0
C1223 C 0.81416 0.02419 0.04275 0.0
H1224 H 0.26552 0.5148 0.55069 0.0
H1225 H 0.16508 0.55574 0.54869 0.0
H1226 H 0.26579 0.506 0.5195 0.0
H1227 H 0.16568 0.54941 0.51749 0.0
H1228 H 0.16484 0.49398 0.46377 0.0
H1229 H 0.16541 0.50034 0.49497 0.0
H1230 H 0.26605 0.5415 0.49303 0.0
H1231 H 0.26576 0.53269 0.46184 0.0
C1232 C 0.24361 0.52242 0.54354 0.0
C1233 C 0.21526 0.53582 0.55213 0.0
C1234 C 0.24378 0.51765 0.52561 0.0
C1235 C 0.21573 0.52689 0.51582 0.0
C1236 C 0.18754 0.54096 0.52451 0.0
C1237 C 0.18723 0.54494 0.54244 0.0
C1238 C 0.1871 0.5043 0.47004 0.0
C1239 C 0.21526 0.51279 0.46036 0.0
C1240 C 0.1874 0.5083 0.48796 0.0
C1241 C 0.21573 0.52174 0.49668 0.0
C1242 C 0.24391 0.53035 0.4869 0.0
C1243 C 0.24374 0.52557 0.46898 0.0
H1244 H 0.83406 0.50968 0.46081 0.0
H1245 H 0.7368 0.56274 0.46373 0.0
H1246 H 0.83378 0.4979 0.49181 0.0
H1247 H 0.73674 0.55134 0.49485 0.0
H1248 H 0.73733 0.48139 0.54747 0.0
H1249 H 0.73648 0.49207 0.51631 0.0
H1250 H 0.8348 0.54147 0.51824 0.0
H1251 H 0.83585 0.53041 0.54928 0.0
C1252 C 0.81261 0.5189 0.46806 0.0
C1253 C 0.78547 0.53728 0.45978 0.0
C1254 C 0.81254 0.51234 0.48586 0.0
C1255 C 0.78529 0.52384 0.49581 0.0
C1256 C 0.75799 0.54178 0.48752 0.0
C1257 C 0.75811 0.54853 0.4697 0.0
C1258 C 0.75878 0.4945 0.54124 0.0
C1259 C 0.78669 0.50491 0.55087 0.0
C1260 C 0.75821 0.50084 0.5234 0.0
C1261 C 0.7856 0.51751 0.51479 0.0
C1262 C 0.81346 0.52801 0.52444 0.0
C1263 C 0.81398 0.52186 0.54226 0.0
H1264 H 0.66261 0.01972 0.54961 0.0
H1265 H 0.7638 0.05807 0.54866 0.0
H1266 H 0.66372 0.00955 0.51853 0.0
H1267 H 0.76473 0.04843 0.51745 0.0
H1268 H 0.76158 0.9798 0.46449 0.0
H1269 H 0.76171 0.99068 0.49564 0.0
H1270 H 0.6677 0.05294 0.49231 0.0
H1271 H 0.66732 0.04161 0.46129 0.0
C1272 C 0.68508 0.02615 0.54277 0.0
C1273 C 0.7131 0.0398 0.55164 0.0
C1274 C 0.68566 0.02053 0.52492 0.0
C1275 C 0.71428 0.02834 0.51549 0.0
C1276 C 0.74238 0.04175 0.52436 0.0
C1277 C 0.74179 0.04749 0.54224 0.0
C1278 C 0.74097 0.99587 0.4704 0.0
C1279 C 0.71438 0.00965 0.46039 0.0
C1280 C 0.74113 1.00232 0.48825 0.0
C1281 C 0.71466 0.02253 0.49647 0.0
C1282 C 0.68826 0.03669 0.48642 0.0
C1283 C 0.68813 0.03039 0.4686 0.0
H1284 H 0.23189 0.01776 0.46207 0.0
H1285 H 0.33343 0.05348 0.46394 0.0
H1286 H 0.23171 0.00801 0.49322 0.0
H1287 H 0.33298 0.04633 0.4951 0.0
H1288 H 0.33301 0.99025 0.54865 0.0
H1289 H 0.33226 0.99717 0.51748 0.0
H1290 H 0.23259 0.04233 0.51983 0.0
H1291 H 0.23299 0.0328 0.55099 0.0
C1292 C 0.25408 0.02403 0.46919 0.0
C1293 C 0.28269 0.03622 0.46056 0.0
C1294 C 0.25397 0.01872 0.48709 0.0
C1295 C 0.28235 0.02627 0.49684 0.0
C1296 C 0.31082 0.03915 0.48812 0.0
C1297 C 0.31106 0.04362 0.47021 0.0
C1298 C 0.31093 1.00154 0.54248 0.0
C1299 C 0.28306 0.01093 0.55225 0.0
C1300 C 0.31052 0.00588 0.52456 0.0
C1301 C 0.28242 0.02063 0.51597 0.0
C1302 C 0.25453 0.03014 0.52585 0.0
C1303 C 0.25477 0.02496 0.54376 0.0
H1304 H 0.66309 0.5162 0.04916 0.0
H1305 H 0.76111 0.56698 0.04747 0.0
H1306 H 0.6643 0.50549 0.01809 0.0
H1307 H 0.76213 0.55661 0.01629 0.0
H1308 H 0.7624 0.48668 0.96352 0.0
H1309 H 0.76237 0.49749 0.99468 0.0
H1310 H 0.66499 0.54988 0.99179 0.0
H1311 H 0.66482 0.53874 0.96075 0.0
C1312 C 0.68489 0.52517 0.04216 0.0
C1313 C 0.71198 0.54256 0.05081 0.0
C1314 C 0.68551 0.51923 0.02433 0.0
C1315 C 0.71327 0.53035 0.01471 0.0
C1316 C 0.74048 0.54738 0.02336 0.0
C1317 C 0.73982 0.55353 0.04121 0.0
C1318 C 0.741 0.50055 0.96953 0.0
C1319 C 0.71358 0.5117 0.95964 0.0
C1320 C 0.74106 0.50695 0.98737 0.0
C1321 C 0.71364 0.52439 0.99571 0.0
C1322 C 0.68633 0.53581 0.98579 0.0
C1323 C 0.68632 0.52963 0.96797 0.0
H1324 H 0.23281 0.51232 0.96175 0.0
H1325 H 0.33274 0.55522 0.96373 0.0
H1326 H 0.23292 0.50242 0.99289 0.0
H1327 H 0.33248 0.54803 0.99489 0.0
H1328 H 0.3346 0.49224 0.04848 0.0
H1329 H 0.33375 0.49925 0.01731 0.0
H1330 H 0.2322 0.53633 0.01951 0.0
H1331 H 0.23281 0.52659 0.05064 0.0
C1332 C 0.25468 0.52015 0.9689 0.0
C1333 C 0.28278 0.53439 0.96031 0.0
C1334 C 0.25473 0.51476 0.9868 0.0
C1335 C 0.28273 0.52433 0.99658 0.0
C1336 C 0.31067 0.53926 0.98789 0.0
C1337 C 0.31079 0.54376 0.96998 0.0
C1338 C 0.31209 0.50178 0.04227 0.0
C1339 C 0.28377 0.50881 0.05199 0.0
C1340 C 0.31161 0.50617 0.02436 0.0
C1341 C 0.28294 0.51867 0.01571 0.0
C1342 C 0.25462 0.52588 0.02555 0.0
C1343 C 0.25496 0.52059 0.04345 0.0
loop_
_geom_bond_atom_site_label_1
_geom_bond_atom_site_label_2
_geom_bond_distance
_geom_bond_site_symmetry_2
_ccdc_geom_bond_type
Co0 O3 1.970 . S
Co0 N17 1.989 1_545 S
Co0 O25 1.967 . S
Co0 O32 1.920 . S
Co1 O4 1.966 . S
Co1 N10 2.022 . S
Co1 N18 1.993 1_545 S
Co1 O26 1.941 . S
C2 O3 1.258 . S
C2 O4 1.263 . S
O3 Co0 1.970 . S
O3 C2 1.258 . S
O4 Co1 1.966 . S
O4 C2 1.263 . S
C5 O6 1.235 . S
C5 O32 1.289 . S
O6 C5 1.235 . S
C7 C9 1.400 . S
C7 N10 1.351 . S
C7 C12 1.501 . S
C8 C9 1.387 1_565 S
C8 N11 1.341 . S
C9 C7 1.400 . S
C9 C8 1.387 1_545 S
N10 Co1 2.022 . S
N10 C7 1.351 . S
N10 N11 1.365 1_545 S
N11 C8 1.341 . S
N11 N10 1.365 1_565 S
N11 H31 0.862 . S
C12 C7 1.501 . S
C12 H13 0.961 . S
C12 H14 0.961 . S
C12 H15 0.960 . S
H13 C12 0.961 . S
H14 C12 0.961 . S
H15 C12 0.960 . S
C16 N17 1.342 . S
C16 C20 1.401 . S
C16 C21 1.499 . S
N17 Co0 1.989 1_565 S
N17 C16 1.342 . S
N17 N18 1.388 . S
N18 Co1 1.993 1_565 S
N18 N17 1.388 . S
N18 C19 1.346 . S
C19 N18 1.346 . S
C19 C20 1.396 . S
C19 C29 1.510 . S
C20 C16 1.401 . S
C20 C19 1.396 . S
C21 C16 1.499 . S
C21 H22 0.959 . S
C21 H23 0.960 . S
C21 H24 0.961 . S
H22 C21 0.959 . S
H23 C21 0.960 . S
H24 C21 0.961 . S
O25 Co0 1.967 . S
O25 C33 1.258 . S
O26 Co1 1.941 . S
O26 C33 1.266 . S
H27 C29 0.959 . S
H28 C29 0.961 . S
C29 C19 1.510 . S
C29 H27 0.959 . S
C29 H28 0.961 . S
C29 H30 0.960 . S
H30 C29 0.960 . S
H31 N11 0.862 . S
O32 Co0 1.920 . S
O32 C5 1.289 . S
C33 O25 1.258 . S
C33 O26 1.266 . S
Co34 O37 1.970 1_545 S
Co34 N51 1.989 . S
Co34 O59 1.967 . S
Co34 O66 1.920 . S
Co35 O38 1.966 1_545 S
Co35 N44 2.022 . S
Co35 N52 1.993 . S
Co35 O60 1.941 . S
C36 O37 1.258 . S
C36 O38 1.263 . S
O37 Co34 1.970 1_565 S
O37 C36 1.258 . S
O38 Co35 1.966 1_565 S
O38 C36 1.263 . S
C39 O40 1.235 . S
C39 O66 1.289 . S
O40 C39 1.235 . S
C41 C43 1.400 . S
C41 N44 1.351 . S
C41 C46 1.501 1_545 S
C42 C43 1.387 . S
C42 N45 1.341 . S
C43 C41 1.400 . S
C43 C42 1.387 . S
N44 Co35 2.022 . S
N44 C41 1.351 . S
N44 N45 1.365 . S
N45 C42 1.341 . S
N45 N44 1.365 . S
N45 H65 0.862 . S
C46 C41 1.501 1_565 S
C46 H47 0.961 . S
C46 H48 0.961 . S
C46 H49 0.960 . S
H47 C46 0.961 . S
H48 C46 0.961 . S
H49 C46 0.960 . S
C50 N51 1.342 . S
C50 C54 1.401 . S
C50 C55 1.499 . S
N51 Co34 1.989 . S
N51 C50 1.342 . S
N51 N52 1.388 . S
N52 Co35 1.993 . S
N52 N51 1.388 . S
N52 C53 1.346 . S
C53 N52 1.346 . S
C53 C54 1.396 . S
C53 C63 1.510 . S
C54 C50 1.401 . S
C54 C53 1.396 . S
C55 C50 1.499 . S
C55 H56 0.959 . S
C55 H57 0.960 . S
C55 H58 0.961 . S
H56 C55 0.959 . S
H57 C55 0.960 . S
H58 C55 0.961 . S
O59 Co34 1.967 . S
O59 C67 1.258 . S
O60 Co35 1.941 . S
O60 C67 1.266 . S
H61 C63 0.959 . S
H62 C63 0.961 . S
C63 C53 1.510 . S
C63 H61 0.959 . S
C63 H62 0.961 . S
C63 H64 0.960 . S
H64 C63 0.960 . S
H65 N45 0.862 . S
O66 Co34 1.920 . S
O66 C39 1.289 . S
C67 O59 1.258 . S
C67 O60 1.266 . S
Co68 O71 1.970 1_545 S
Co68 N85 1.989 . S
Co68 O93 1.967 . S
Co68 O100 1.920 . S
Co69 O72 1.966 1_545 S
Co69 N78 2.022 . S
Co69 N86 1.993 . S
Co69 O94 1.941 . S
C70 O71 1.258 . S
C70 O72 1.263 . S
O71 Co68 1.970 1_565 S
O71 C70 1.258 . S
O72 Co69 1.966 1_565 S
O72 C70 1.263 . S
C73 O74 1.235 . S
C73 O100 1.289 . S
O74 C73 1.235 . S
C75 C77 1.400 . S
C75 N78 1.351 . S
C75 C80 1.501 1_545 S
C76 C77 1.387 . S
C76 N79 1.341 . S
C77 C75 1.400 . S
C77 C76 1.387 . S
N78 Co69 2.022 . S
N78 C75 1.351 . S
N78 N79 1.365 . S
N79 C76 1.341 . S
N79 N78 1.365 . S
N79 H99 0.862 . S
C80 C75 1.501 1_565 S
C80 H81 0.961 . S
C80 H82 0.961 . S
C80 H83 0.960 . S
H81 C80 0.961 . S
H82 C80 0.961 . S
H83 C80 0.960 . S
C84 N85 1.342 . S
C84 C88 1.401 . S
C84 C89 1.499 . S
N85 Co68 1.989 . S
N85 C84 1.342 . S
N85 N86 1.388 . S
N86 Co69 1.993 . S
N86 N85 1.388 . S
N86 C87 1.346 . S
C87 N86 1.346 . S
C87 C88 1.396 . S
C87 C97 1.510 . S
C88 C84 1.401 . S
C88 C87 1.396 . S
C89 C84 1.499 . S
C89 H90 0.959 . S
C89 H91 0.960 . S
C89 H92 0.961 . S
H90 C89 0.959 . S
H91 C89 0.960 . S
H92 C89 0.961 . S
O93 Co68 1.967 . S
O93 C101 1.258 . S
O94 Co69 1.941 . S
O94 C101 1.266 . S
H95 C97 0.959 . S
H96 C97 0.961 . S
C97 C87 1.510 . S
C97 H95 0.959 . S
C97 H96 0.961 . S
C97 H98 0.960 . S
H98 C97 0.960 . S
H99 N79 0.862 . S
O100 Co68 1.920 . S
O100 C73 1.289 . S
C101 O93 1.258 . S
C101 O94 1.266 . S
Co102 O105 1.970 . S
Co102 N119 1.989 1_545 S
Co102 O127 1.967 . S
Co102 O134 1.920 . S
Co103 O106 1.966 . S
Co103 N112 2.022 . S
Co103 N120 1.993 1_545 S
Co103 O128 1.941 . S
C104 O105 1.258 . S
C104 O106 1.263 . S
O105 Co102 1.970 . S
O105 C104 1.258 . S
O106 Co103 1.966 . S
O106 C104 1.263 . S
C107 O108 1.235 . S
C107 O134 1.289 . S
O108 C107 1.235 . S
C109 C111 1.400 . S
C109 N112 1.351 . S
C109 C114 1.501 . S
C110 C111 1.387 1_565 S
C110 N113 1.341 . S
C111 C109 1.400 . S
C111 C110 1.387 1_545 S
N112 Co103 2.022 . S
N112 C109 1.351 . S
N112 N113 1.365 1_545 S
N113 C110 1.341 . S
N113 N112 1.365 1_565 S
N113 H133 0.862 . S
C114 C109 1.501 . S
C114 H115 0.961 . S
C114 H116 0.961 . S
C114 H117 0.960 . S
H115 C114 0.961 . S
H116 C114 0.961 . S
H117 C114 0.960 . S
C118 N119 1.342 . S
C118 C122 1.401 . S
C118 C123 1.499 . S
N119 Co102 1.989 1_565 S
N119 C118 1.342 . S
N119 N120 1.388 . S
N120 Co103 1.993 1_565 S
N120 N119 1.388 . S
N120 C121 1.346 . S
C121 N120 1.346 . S
C121 C122 1.396 . S
C121 C131 1.510 . S
C122 C118 1.401 . S
C122 C121 1.396 . S
C123 C118 1.499 . S
C123 H124 0.959 . S
C123 H125 0.960 . S
C123 H126 0.961 . S
H124 C123 0.959 . S
H125 C123 0.960 . S
H126 C123 0.961 . S
O127 Co102 1.967 . S
O127 C135 1.258 . S
O128 Co103 1.941 . S
O128 C135 1.266 . S
H129 C131 0.959 . S
H130 C131 0.961 . S
C131 C121 1.510 . S
C131 H129 0.959 . S
C131 H130 0.961 . S
C131 H132 0.960 . S
H132 C131 0.960 . S
H133 N113 0.862 . S
O134 Co102 1.920 . S
O134 C107 1.289 . S
C135 O127 1.258 . S
C135 O128 1.266 . S
Co136 O139 1.970 . S
Co136 N153 1.989 . S
Co136 O161 1.967 . S
Co136 O168 1.920 . S
Co137 O140 1.966 . S
Co137 N146 2.022 . S
Co137 N154 1.993 . S
Co137 O162 1.941 . S
C138 O139 1.258 . S
C138 O140 1.263 . S
O139 Co136 1.970 . S
O139 C138 1.258 . S
O140 Co137 1.966 . S
O140 C138 1.263 . S
C141 O142 1.235 . S
C141 O168 1.289 . S
O142 C141 1.235 . S
C143 C145 1.400 . S
C143 N146 1.351 . S
C143 C148 1.501 . S
C144 C145 1.387 . S
C144 N147 1.341 . S
C145 C143 1.400 . S
C145 C144 1.387 . S
N146 Co137 2.022 . S
N146 C143 1.351 . S
N146 N147 1.365 . S
N147 C144 1.341 . S
N147 N146 1.365 . S
N147 H167 0.862 . S
C148 C143 1.501 . S
C148 H149 0.961 . S
C148 H150 0.961 . S
C148 H151 0.960 . S
H149 C148 0.961 . S
H150 C148 0.961 . S
H151 C148 0.960 . S
C152 N153 1.342 . S
C152 C156 1.401 . S
C152 C157 1.499 . S
N153 Co136 1.989 . S
N153 C152 1.342 . S
N153 N154 1.388 . S
N154 Co137 1.993 . S
N154 N153 1.388 . S
N154 C155 1.346 . S
C155 N154 1.346 . S
C155 C156 1.396 . S
C155 C165 1.510 . S
C156 C152 1.401 . S
C156 C155 1.396 . S
C157 C152 1.499 . S
C157 H158 0.959 . S
C157 H159 0.960 . S
C157 H160 0.961 . S
H158 C157 0.959 . S
H159 C157 0.960 . S
H160 C157 0.961 . S
O161 Co136 1.967 . S
O161 C169 1.258 . S
O162 Co137 1.941 . S
O162 C169 1.266 . S
H163 C165 0.959 . S
H164 C165 0.961 . S
C165 C155 1.510 . S
C165 H163 0.959 . S
C165 H164 0.961 . S
C165 H166 0.960 . S
H166 C165 0.960 . S
H167 N147 0.862 . S
O168 Co136 1.920 . S
O168 C141 1.289 . S
C169 O161 1.258 . S
C169 O162 1.266 . S
Co170 O173 1.970 . S
Co170 N187 1.989 . S
Co170 O195 1.967 . S
Co170 O202 1.920 . S
Co171 O174 1.966 . S
Co171 N180 2.022 . S
Co171 N188 1.993 . S
Co171 O196 1.941 . S
C172 O173 1.258 . S
C172 O174 1.263 . S
O173 Co170 1.970 . S
O173 C172 1.258 . S
O174 Co171 1.966 . S
O174 C172 1.263 . S
C175 O176 1.235 . S
C175 O202 1.289 . S
O176 C175 1.235 . S
C177 C179 1.400 . S
C177 N180 1.351 . S
C177 C182 1.501 . S
C178 C179 1.387 . S
C178 N181 1.341 . S
C179 C177 1.400 . S
C179 C178 1.387 . S
N180 Co171 2.022 . S
N180 C177 1.351 . S
N180 N181 1.365 . S
N181 C178 1.341 . S
N181 N180 1.365 . S
N181 H201 0.862 . S
C182 C177 1.501 . S
C182 H183 0.961 . S
C182 H184 0.961 . S
C182 H185 0.960 . S
H183 C182 0.961 . S
H184 C182 0.961 . S
H185 C182 0.960 . S
C186 N187 1.342 . S
C186 C190 1.401 . S
C186 C191 1.499 . S
N187 Co170 1.989 . S
N187 C186 1.342 . S
N187 N188 1.388 . S
N188 Co171 1.993 . S
N188 N187 1.388 . S
N188 C189 1.346 . S
C189 N188 1.346 . S
C189 C190 1.396 . S
C189 C199 1.510 . S
C190 C186 1.401 . S
C190 C189 1.396 . S
C191 C186 1.499 . S
C191 H192 0.959 . S
C191 H193 0.960 . S
C191 H194 0.961 . S
H192 C191 0.959 . S
H193 C191 0.960 . S
H194 C191 0.961 . S
O195 Co170 1.967 . S
O195 C203 1.258 . S
O196 Co171 1.941 . S
O196 C203 1.266 . S
H197 C199 0.959 . S
H198 C199 0.961 . S
C199 C189 1.510 . S
C199 H197 0.959 . S
C199 H198 0.961 . S
C199 H200 0.960 . S
H200 C199 0.960 . S
H201 N181 0.862 . S
O202 Co170 1.920 . S
O202 C175 1.289 . S
C203 O195 1.258 . S
C203 O196 1.266 . S
Co204 O207 1.970 . S
Co204 N221 1.989 . S
Co204 O229 1.967 . S
Co204 O236 1.920 . S
Co205 O208 1.966 . S
Co205 N214 2.022 . S
Co205 N222 1.993 . S
Co205 O230 1.941 . S
C206 O207 1.258 . S
C206 O208 1.263 . S
O207 Co204 1.970 . S
O207 C206 1.258 . S
O208 Co205 1.966 . S
O208 C206 1.263 . S
C209 O210 1.235 . S
C209 O236 1.289 . S
O210 C209 1.235 . S
C211 C213 1.400 . S
C211 N214 1.351 . S
C211 C216 1.501 . S
C212 C213 1.387 . S
C212 N215 1.341 . S
C213 C211 1.400 . S
C213 C212 1.387 . S
N214 Co205 2.022 . S
N214 C211 1.351 . S
N214 N215 1.365 . S
N215 C212 1.341 . S
N215 N214 1.365 . S
N215 H235 0.862 . S
C216 C211 1.501 . S
C216 H217 0.961 . S
C216 H218 0.961 . S
C216 H219 0.960 . S
H217 C216 0.961 . S
H218 C216 0.961 . S
H219 C216 0.960 . S
C220 N221 1.342 . S
C220 C224 1.401 . S
C220 C225 1.499 . S
N221 Co204 1.989 . S
N221 C220 1.342 . S
N221 N222 1.388 . S
N222 Co205 1.993 . S
N222 N221 1.388 . S
N222 C223 1.346 . S
C223 N222 1.346 . S
C223 C224 1.396 . S
C223 C233 1.510 . S
C224 C220 1.401 . S
C224 C223 1.396 . S
C225 C220 1.499 . S
C225 H226 0.959 . S
C225 H227 0.960 . S
C225 H228 0.961 . S
H226 C225 0.959 . S
H227 C225 0.960 . S
H228 C225 0.961 . S
O229 Co204 1.967 . S
O229 C237 1.258 . S
O230 Co205 1.941 . S
O230 C237 1.266 . S
H231 C233 0.959 . S
H232 C233 0.961 . S
C233 C223 1.510 . S
C233 H231 0.959 . S
C233 H232 0.961 . S
C233 H234 0.960 . S
H234 C233 0.960 . S
H235 N215 0.862 . S
O236 Co204 1.920 . S
O236 C209 1.289 . S
C237 O229 1.258 . S
C237 O230 1.266 . S
Co238 O241 1.970 . S
Co238 N255 1.989 . S
Co238 O263 1.967 . S
Co238 O270 1.920 . S
Co239 O242 1.966 . S
Co239 N248 2.022 . S
Co239 N256 1.993 . S
Co239 O264 1.941 . S
C240 O241 1.258 . S
C240 O242 1.263 . S
O241 Co238 1.970 . S
O241 C240 1.258 . S
O242 Co239 1.966 . S
O242 C240 1.263 . S
C243 O244 1.235 . S
C243 O270 1.289 . S
O244 C243 1.235 . S
C245 C247 1.400 . S
C245 N248 1.351 . S
C245 C250 1.501 . S
C246 C247 1.387 . S
C246 N249 1.341 . S
C247 C245 1.400 . S
C247 C246 1.387 . S
N248 Co239 2.022 . S
N248 C245 1.351 . S
N248 N249 1.365 . S
N249 C246 1.341 . S
N249 N248 1.365 . S
N249 H269 0.862 . S
C250 C245 1.501 . S
C250 H251 0.961 . S
C250 H252 0.961 . S
C250 H253 0.960 . S
H251 C250 0.961 . S
H252 C250 0.961 . S
H253 C250 0.960 . S
C254 N255 1.342 . S
C254 C258 1.401 . S
C254 C259 1.499 . S
N255 Co238 1.989 . S
N255 C254 1.342 . S
N255 N256 1.388 . S
N256 Co239 1.993 . S
N256 N255 1.388 . S
N256 C257 1.346 . S
C257 N256 1.346 . S
C257 C258 1.396 . S
C257 C267 1.510 . S
C258 C254 1.401 . S
C258 C257 1.396 . S
C259 C254 1.499 . S
C259 H260 0.959 . S
C259 H261 0.960 . S
C259 H262 0.961 . S
H260 C259 0.959 . S
H261 C259 0.960 . S
H262 C259 0.961 . S
O263 Co238 1.967 . S
O263 C271 1.258 . S
O264 Co239 1.941 . S
O264 C271 1.266 . S
H265 C267 0.959 . S
H266 C267 0.961 . S
C267 C257 1.510 . S
C267 H265 0.959 . S
C267 H266 0.961 . S
C267 H268 0.960 . S
H268 C267 0.960 . S
H269 N249 0.862 . S
O270 Co238 1.920 . S
O270 C243 1.289 . S
C271 O263 1.258 . S
C271 O264 1.266 . S
Co272 O275 1.970 . S
Co272 N289 1.989 1_545 S
Co272 O297 1.967 . S
Co272 O304 1.920 . S
Co273 O276 1.966 . S
Co273 N282 2.022 . S
Co273 N290 1.993 1_545 S
Co273 O298 1.941 . S
C274 O275 1.258 . S
C274 O276 1.263 . S
O275 Co272 1.970 . S
O275 C274 1.258 . S
O276 Co273 1.966 . S
O276 C274 1.263 . S
C277 O278 1.235 . S
C277 O304 1.289 . S
O278 C277 1.235 . S
C279 C281 1.400 . S
C279 N282 1.351 . S
C279 C284 1.501 . S
C280 C281 1.387 1_565 S
C280 N283 1.341 . S
C281 C279 1.400 . S
C281 C280 1.387 1_545 S
N282 Co273 2.022 . S
N282 C279 1.351 . S
N282 N283 1.365 1_545 S
N283 C280 1.341 . S
N283 N282 1.365 1_565 S
N283 H303 0.862 . S
C284 C279 1.501 . S
C284 H285 0.961 . S
C284 H286 0.961 . S
C284 H287 0.960 . S
H285 C284 0.961 . S
H286 C284 0.961 . S
H287 C284 0.960 . S
C288 N289 1.342 . S
C288 C292 1.401 . S
C288 C293 1.499 . S
N289 Co272 1.989 1_565 S
N289 C288 1.342 . S
N289 N290 1.388 . S
N290 Co273 1.993 1_565 S
N290 N289 1.388 . S
N290 C291 1.346 . S
C291 N290 1.346 . S
C291 C292 1.396 . S
C291 C301 1.510 . S
C292 C288 1.401 . S
C292 C291 1.396 . S
C293 C288 1.499 . S
C293 H294 0.959 . S
C293 H295 0.960 . S
C293 H296 0.961 . S
H294 C293 0.959 . S
H295 C293 0.960 . S
H296 C293 0.961 . S
O297 Co272 1.967 . S
O297 C305 1.258 . S
O298 Co273 1.941 . S
O298 C305 1.266 . S
H299 C301 0.959 . S
H300 C301 0.961 . S
C301 C291 1.510 . S
C301 H299 0.959 . S
C301 H300 0.961 . S
C301 H302 0.960 . S
H302 C301 0.960 . S
H303 N283 0.862 . S
O304 Co272 1.920 . S
O304 C277 1.289 . S
C305 O297 1.258 . S
C305 O298 1.266 . S
Co306 O309 1.970 1_545 S
Co306 N323 1.989 . S
Co306 O331 1.967 . S
Co306 O338 1.920 . S
Co307 O310 1.966 1_545 S
Co307 N316 2.022 . S
Co307 N324 1.993 . S
Co307 O332 1.941 . S
C308 O309 1.258 . S
C308 O310 1.263 . S
O309 Co306 1.970 1_565 S
O309 C308 1.258 . S
O310 Co307 1.966 1_565 S
O310 C308 1.263 . S
C311 O312 1.235 . S
C311 O338 1.289 . S
O312 C311 1.235 . S
C313 C315 1.400 . S
C313 N316 1.351 . S
C313 C318 1.501 1_545 S
C314 C315 1.387 . S
C314 N317 1.341 . S
C315 C313 1.400 . S
C315 C314 1.387 . S
N316 Co307 2.022 . S
N316 C313 1.351 . S
N316 N317 1.365 . S
N317 C314 1.341 . S
N317 N316 1.365 . S
N317 H337 0.862 . S
C318 C313 1.501 1_565 S
C318 H319 0.961 . S
C318 H320 0.961 . S
C318 H321 0.960 . S
H319 C318 0.961 . S
H320 C318 0.961 . S
H321 C318 0.960 . S
C322 N323 1.342 . S
C322 C326 1.401 . S
C322 C327 1.499 . S
N323 Co306 1.989 . S
N323 C322 1.342 . S
N323 N324 1.388 . S
N324 Co307 1.993 . S
N324 N323 1.388 . S
N324 C325 1.346 . S
C325 N324 1.346 . S
C325 C326 1.396 . S
C325 C335 1.510 . S
C326 C322 1.401 . S
C326 C325 1.396 . S
C327 C322 1.499 . S
C327 H328 0.959 . S
C327 H329 0.960 . S
C327 H330 0.961 . S
H328 C327 0.959 . S
H329 C327 0.960 . S
H330 C327 0.961 . S
O331 Co306 1.967 . S
O331 C339 1.258 . S
O332 Co307 1.941 . S
O332 C339 1.266 . S
H333 C335 0.959 . S
H334 C335 0.961 . S
C335 C325 1.510 . S
C335 H333 0.959 . S
C335 H334 0.961 . S
C335 H336 0.960 . S
H336 C335 0.960 . S
H337 N317 0.862 . S
O338 Co306 1.920 . S
O338 C311 1.289 . S
C339 O331 1.258 . S
C339 O332 1.266 . S
Co340 O343 1.970 1_545 S
Co340 N357 1.989 . S
Co340 O365 1.967 . S
Co340 O372 1.920 . S
Co341 O344 1.966 1_545 S
Co341 N350 2.022 . S
Co341 N358 1.993 . S
Co341 O366 1.941 . S
C342 O343 1.258 . S
C342 O344 1.263 . S
O343 Co340 1.970 1_565 S
O343 C342 1.258 . S
O344 Co341 1.966 1_565 S
O344 C342 1.263 . S
C345 O346 1.235 . S
C345 O372 1.289 . S
O346 C345 1.235 . S
C347 C349 1.400 . S
C347 N350 1.351 . S
C347 C352 1.501 1_545 S
C348 C349 1.387 . S
C348 N351 1.341 . S
C349 C347 1.400 . S
C349 C348 1.387 . S
N350 Co341 2.022 . S
N350 C347 1.351 . S
N350 N351 1.365 . S
N351 C348 1.341 . S
N351 N350 1.365 . S
N351 H371 0.862 . S
C352 C347 1.501 1_565 S
C352 H353 0.961 . S
C352 H354 0.961 . S
C352 H355 0.960 . S
H353 C352 0.961 . S
H354 C352 0.961 . S
H355 C352 0.960 . S
C356 N357 1.342 . S
C356 C360 1.401 . S
C356 C361 1.499 . S
N357 Co340 1.989 . S
N357 C356 1.342 . S
N357 N358 1.388 . S
N358 Co341 1.993 . S
N358 N357 1.388 . S
N358 C359 1.346 . S
C359 N358 1.346 . S
C359 C360 1.396 . S
C359 C369 1.510 . S
C360 C356 1.401 . S
C360 C359 1.396 . S
C361 C356 1.499 . S
C361 H362 0.959 . S
C361 H363 0.960 . S
C361 H364 0.961 . S
H362 C361 0.959 . S
H363 C361 0.960 . S
H364 C361 0.961 . S
O365 Co340 1.967 . S
O365 C373 1.258 . S
O366 Co341 1.941 . S
O366 C373 1.266 . S
H367 C369 0.959 . S
H368 C369 0.961 . S
C369 C359 1.510 . S
C369 H367 0.959 . S
C369 H368 0.961 . S
C369 H370 0.960 . S
H370 C369 0.960 . S
H371 N351 0.862 . S
O372 Co340 1.920 . S
O372 C345 1.289 . S
C373 O365 1.258 . S
C373 O366 1.266 . S
Co374 O377 1.970 . S
Co374 N391 1.989 1_545 S
Co374 O399 1.967 . S
Co374 O406 1.920 . S
Co375 O378 1.966 . S
Co375 N384 2.022 . S
Co375 N392 1.993 1_545 S
Co375 O400 1.941 . S
C376 O377 1.258 . S
C376 O378 1.263 . S
O377 Co374 1.970 . S
O377 C376 1.258 . S
O378 Co375 1.966 . S
O378 C376 1.263 . S
C379 O380 1.235 . S
C379 O406 1.289 . S
O380 C379 1.235 . S
C381 C383 1.400 . S
C381 N384 1.351 . S
C381 C386 1.501 . S
C382 C383 1.387 1_565 S
C382 N385 1.341 . S
C383 C381 1.400 . S
C383 C382 1.387 1_545 S
N384 Co375 2.022 . S
N384 C381 1.351 . S
N384 N385 1.365 1_545 S
N385 C382 1.341 . S
N385 N384 1.365 1_565 S
N385 H405 0.862 . S
C386 C381 1.501 . S
C386 H387 0.961 . S
C386 H388 0.961 . S
C386 H389 0.960 . S
H387 C386 0.961 . S
H388 C386 0.961 . S
H389 C386 0.960 . S
C390 N391 1.342 . S
C390 C394 1.401 . S
C390 C395 1.499 . S
N391 Co374 1.989 1_565 S
N391 C390 1.342 . S
N391 N392 1.388 . S
N392 Co375 1.993 1_565 S
N392 N391 1.388 . S
N392 C393 1.346 . S
C393 N392 1.346 . S
C393 C394 1.396 . S
C393 C403 1.510 . S
C394 C390 1.401 . S
C394 C393 1.396 . S
C395 C390 1.499 . S
C395 H396 0.959 . S
C395 H397 0.960 . S
C395 H398 0.961 . S
H396 C395 0.959 . S
H397 C395 0.960 . S
H398 C395 0.961 . S
O399 Co374 1.967 . S
O399 C407 1.258 . S
O400 Co375 1.941 . S
O400 C407 1.266 . S
H401 C403 0.959 . S
H402 C403 0.961 . S
C403 C393 1.510 . S
C403 H401 0.959 . S
C403 H402 0.961 . S
C403 H404 0.960 . S
H404 C403 0.960 . S
H405 N385 0.862 . S
O406 Co374 1.920 . S
O406 C379 1.289 . S
C407 O399 1.258 . S
C407 O400 1.266 . S
Co408 O411 1.970 . S
Co408 N425 1.989 . S
Co408 O433 1.967 . S
Co408 O440 1.920 . S
Co409 O412 1.966 . S
Co409 N418 2.022 . S
Co409 N426 1.993 . S
Co409 O434 1.941 . S
C410 O411 1.258 . S
C410 O412 1.263 . S
O411 Co408 1.970 . S
O411 C410 1.258 . S
O412 Co409 1.966 . S
O412 C410 1.263 . S
C413 O414 1.235 . S
C413 O440 1.289 . S
O414 C413 1.235 . S
C415 C417 1.400 . S
C415 N418 1.351 . S
C415 C420 1.501 . S
C416 C417 1.387 . S
C416 N419 1.341 . S
C417 C415 1.400 . S
C417 C416 1.387 . S
N418 Co409 2.022 . S
N418 C415 1.351 . S
N418 N419 1.365 . S
N419 C416 1.341 . S
N419 N418 1.365 . S
N419 H439 0.862 . S
C420 C415 1.501 . S
C420 H421 0.961 . S
C420 H422 0.961 . S
C420 H423 0.960 . S
H421 C420 0.961 . S
H422 C420 0.961 . S
H423 C420 0.960 . S
C424 N425 1.342 . S
C424 C428 1.401 . S
C424 C429 1.499 . S
N425 Co408 1.989 . S
N425 C424 1.342 . S
N425 N426 1.388 . S
N426 Co409 1.993 . S
N426 N425 1.388 . S
N426 C427 1.346 . S
C427 N426 1.346 . S
C427 C428 1.396 . S
C427 C437 1.510 . S
C428 C424 1.401 . S
C428 C427 1.396 . S
C429 C424 1.499 . S
C429 H430 0.959 . S
C429 H431 0.960 . S
C429 H432 0.961 . S
H430 C429 0.959 . S
H431 C429 0.960 . S
H432 C429 0.961 . S
O433 Co408 1.967 . S
O433 C441 1.258 . S
O434 Co409 1.941 . S
O434 C441 1.266 . S
H435 C437 0.959 . S
H436 C437 0.961 . S
C437 C427 1.510 . S
C437 H435 0.959 . S
C437 H436 0.961 . S
C437 H438 0.960 . S
H438 C437 0.960 . S
H439 N419 0.862 . S
O440 Co408 1.920 . S
O440 C413 1.289 . S
C441 O433 1.258 . S
C441 O434 1.266 . S
Co442 O445 1.970 . S
Co442 N459 1.989 . S
Co442 O467 1.967 . S
Co442 O474 1.920 . S
Co443 O446 1.966 . S
Co443 N452 2.022 . S
Co443 N460 1.993 . S
Co443 O468 1.941 . S
C444 O445 1.258 . S
C444 O446 1.263 . S
O445 Co442 1.970 . S
O445 C444 1.258 . S
O446 Co443 1.966 . S
O446 C444 1.263 . S
C447 O448 1.235 . S
C447 O474 1.289 . S
O448 C447 1.235 . S
C449 C451 1.400 . S
C449 N452 1.351 . S
C449 C454 1.501 . S
C450 C451 1.387 . S
C450 N453 1.341 . S
C451 C449 1.400 . S
C451 C450 1.387 . S
N452 Co443 2.022 . S
N452 C449 1.351 . S
N452 N453 1.365 . S
N453 C450 1.341 . S
N453 N452 1.365 . S
N453 H473 0.862 . S
C454 C449 1.501 . S
C454 H455 0.961 . S
C454 H456 0.961 . S
C454 H457 0.960 . S
H455 C454 0.961 . S
H456 C454 0.961 . S
H457 C454 0.960 . S
C458 N459 1.342 . S
C458 C462 1.401 . S
C458 C463 1.499 . S
N459 Co442 1.989 . S
N459 C458 1.342 . S
N459 N460 1.388 . S
N460 Co443 1.993 . S
N460 N459 1.388 . S
N460 C461 1.346 . S
C461 N460 1.346 . S
C461 C462 1.396 . S
C461 C471 1.510 . S
C462 C458 1.401 . S
C462 C461 1.396 . S
C463 C458 1.499 . S
C463 H464 0.959 . S
C463 H465 0.960 . S
C463 H466 0.961 . S
H464 C463 0.959 . S
H465 C463 0.960 . S
H466 C463 0.961 . S
O467 Co442 1.967 . S
O467 C475 1.258 . S
O468 Co443 1.941 . S
O468 C475 1.266 . S
H469 C471 0.959 . S
H470 C471 0.961 . S
C471 C461 1.510 . S
C471 H469 0.959 . S
C471 H470 0.961 . S
C471 H472 0.960 . S
H472 C471 0.960 . S
H473 N453 0.862 . S
O474 Co442 1.920 . S
O474 C447 1.289 . S
C475 O467 1.258 . S
C475 O468 1.266 . S
Co476 O479 1.970 . S
Co476 N493 1.989 . S
Co476 O501 1.967 . S
Co476 O508 1.920 . S
Co477 O480 1.966 . S
Co477 N486 2.022 . S
Co477 N494 1.993 . S
Co477 O502 1.941 . S
C478 O479 1.258 . S
C478 O480 1.263 . S
O479 Co476 1.970 . S
O479 C478 1.258 . S
O480 Co477 1.966 . S
O480 C478 1.263 . S
C481 O482 1.235 . S
C481 O508 1.289 . S
O482 C481 1.235 . S
C483 C485 1.400 . S
C483 N486 1.351 . S
C483 C488 1.501 . S
C484 C485 1.387 . S
C484 N487 1.341 . S
C485 C483 1.400 . S
C485 C484 1.387 . S
N486 Co477 2.022 . S
N486 C483 1.351 . S
N486 N487 1.365 . S
N487 C484 1.341 . S
N487 N486 1.365 . S
N487 H507 0.862 . S
C488 C483 1.501 . S
C488 H489 0.961 . S
C488 H490 0.961 . S
C488 H491 0.960 . S
H489 C488 0.961 . S
H490 C488 0.961 . S
H491 C488 0.960 . S
C492 N493 1.342 . S
C492 C496 1.401 . S
C492 C497 1.499 . S
N493 Co476 1.989 . S
N493 C492 1.342 . S
N493 N494 1.388 . S
N494 Co477 1.993 . S
N494 N493 1.388 . S
N494 C495 1.346 . S
C495 N494 1.346 . S
C495 C496 1.396 . S
C495 C505 1.510 . S
C496 C492 1.401 . S
C496 C495 1.396 . S
C497 C492 1.499 . S
C497 H498 0.959 . S
C497 H499 0.960 . S
C497 H500 0.961 . S
H498 C497 0.959 . S
H499 C497 0.960 . S
H500 C497 0.961 . S
O501 Co476 1.967 . S
O501 C509 1.258 . S
O502 Co477 1.941 . S
O502 C509 1.266 . S
H503 C505 0.959 . S
H504 C505 0.961 . S
C505 C495 1.510 . S
C505 H503 0.959 . S
C505 H504 0.961 . S
C505 H506 0.960 . S
H506 C505 0.960 . S
H507 N487 0.862 . S
O508 Co476 1.920 . S
O508 C481 1.289 . S
C509 O501 1.258 . S
C509 O502 1.266 . S
Co510 O513 1.970 . S
Co510 N527 1.989 . S
Co510 O535 1.967 . S
Co510 O542 1.920 . S
Co511 O514 1.966 . S
Co511 N520 2.022 . S
Co511 N528 1.993 . S
Co511 O536 1.941 . S
C512 O513 1.258 . S
C512 O514 1.263 . S
O513 Co510 1.970 . S
O513 C512 1.258 . S
O514 Co511 1.966 . S
O514 C512 1.263 . S
C515 O516 1.235 . S
C515 O542 1.289 . S
O516 C515 1.235 . S
C517 C519 1.400 . S
C517 N520 1.351 . S
C517 C522 1.501 . S
C518 C519 1.387 . S
C518 N521 1.341 . S
C519 C517 1.400 . S
C519 C518 1.387 . S
N520 Co511 2.022 . S
N520 C517 1.351 . S
N520 N521 1.365 . S
N521 C518 1.341 . S
N521 N520 1.365 . S
N521 H541 0.862 . S
C522 C517 1.501 . S
C522 H523 0.961 . S
C522 H524 0.961 . S
C522 H525 0.960 . S
H523 C522 0.961 . S
H524 C522 0.961 . S
H525 C522 0.960 . S
C526 N527 1.342 . S
C526 C530 1.401 . S
C526 C531 1.499 . S
N527 Co510 1.989 . S
N527 C526 1.342 . S
N527 N528 1.388 . S
N528 Co511 1.993 . S
N528 N527 1.388 . S
N528 C529 1.346 . S
C529 N528 1.346 . S
C529 C530 1.396 . S
C529 C539 1.510 . S
C530 C526 1.401 . S
C530 C529 1.396 . S
C531 C526 1.499 . S
C531 H532 0.959 . S
C531 H533 0.960 . S
C531 H534 0.961 . S
H532 C531 0.959 . S
H533 C531 0.960 . S
H534 C531 0.961 . S
O535 Co510 1.967 . S
O535 C543 1.258 . S
O536 Co511 1.941 . S
O536 C543 1.266 . S
H537 C539 0.959 . S
H538 C539 0.961 . S
C539 C529 1.510 . S
C539 H537 0.959 . S
C539 H538 0.961 . S
C539 H540 0.960 . S
H540 C539 0.960 . S
H541 N521 0.862 . S
O542 Co510 1.920 . S
O542 C515 1.289 . S
C543 O535 1.258 . S
C543 O536 1.266 . S
H544 C552 0.950 . S
H545 C557 0.950 . S
H546 C554 0.950 . S
H547 C556 0.950 . S
H548 C558 0.950 . S
H549 C560 0.950 . S
H550 C562 0.950 . S
H551 C563 0.950 . S
C552 H544 0.950 . S
C552 C553 1.386 . S
C552 C554 1.391 . S
C553 C552 1.386 . S
C553 C557 1.393 1_545 S
C554 H546 0.950 . S
C554 C552 1.391 . S
C554 C555 1.400 . S
C555 C554 1.400 . S
C555 C556 1.398 1_545 S
C555 C561 1.491 . S
C556 H547 0.950 . S
C556 C555 1.398 1_565 S
C556 C557 1.391 . S
C557 H545 0.950 . S
C557 C553 1.393 1_565 S
C557 C556 1.391 . S
C558 H548 0.950 . S
C558 C559 1.386 1_565 S
C558 C560 1.391 . S
C559 C558 1.386 1_545 S
C559 C563 1.393 . S
C560 H549 0.950 . S
C560 C558 1.391 . S
C560 C561 1.400 1_565 S
C561 C555 1.491 . S
C561 C560 1.400 1_545 S
C561 C562 1.398 . S
C562 H550 0.950 . S
C562 C561 1.398 . S
C562 C563 1.391 . S
C563 H551 0.950 . S
C563 C559 1.393 . S
C563 C562 1.391 . S
H564 C572 0.950 . S
H565 C577 0.950 . S
H566 C574 0.950 . S
H567 C576 0.950 . S
H568 C578 0.950 . S
H569 C580 0.950 . S
H570 C582 0.962 . S
H571 C583 0.950 . S
C572 H564 0.950 . S
C572 C573 1.386 1_565 S
C572 C574 1.391 . S
C573 C572 1.386 1_545 S
C573 C577 1.393 . S
C574 H566 0.950 . S
C574 C572 1.391 . S
C574 C575 1.400 1_565 S
C575 C574 1.400 1_545 S
C575 C576 1.398 . S
C575 C581 1.491 . S
C576 H567 0.950 . S
C576 C575 1.398 . S
C576 C577 1.391 . S
C577 H565 0.950 . S
C577 C573 1.393 . S
C577 C576 1.391 . S
C578 H568 0.950 . S
C578 C579 1.386 . S
C578 C580 1.391 . S
C579 C578 1.386 . S
C579 C583 1.393 1_545 S
C580 H569 0.950 . S
C580 C578 1.391 . S
C580 C581 1.400 . S
C581 C575 1.491 . S
C581 C580 1.400 . S
C581 C582 1.387 1_545 S
C582 H570 0.962 . S
C582 C581 1.387 1_565 S
C582 C583 1.391 . S
C583 H571 0.950 . S
C583 C579 1.393 1_565 S
C583 C582 1.391 . S
H584 C592 0.950 1_565 S
H585 C597 0.950 . S
H586 C594 0.950 1_565 S
H587 C596 0.950 . S
H588 C598 0.950 . S
H589 C600 0.950 . S
H590 C602 0.950 1_565 S
H591 C603 0.950 1_565 S
C592 H584 0.950 1_545 S
C592 C593 1.386 . S
C592 C594 1.391 . S
C593 C592 1.386 . S
C593 C597 1.393 . S
C594 H586 0.950 1_545 S
C594 C592 1.391 . S
C594 C595 1.400 . S
C595 C594 1.400 . S
C595 C596 1.398 . S
C595 C601 1.491 . S
C596 H587 0.950 . S
C596 C595 1.398 . S
C596 C597 1.391 . S
C597 H585 0.950 . S
C597 C593 1.393 . S
C597 C596 1.391 . S
C598 H588 0.950 . S
C598 C599 1.386 . S
C598 C600 1.391 . S
C599 C598 1.386 . S
C599 C603 1.393 . S
C600 H589 0.950 . S
C600 C598 1.391 . S
C600 C601 1.400 . S
C601 C595 1.491 . S
C601 C600 1.400 . S
C601 C602 1.398 . S
C602 H590 0.950 1_545 S
C602 C601 1.398 . S
C602 C603 1.391 . S
C603 H591 0.950 1_545 S
C603 C599 1.393 . S
C603 C602 1.391 . S
H604 C612 0.950 . S
H605 C617 0.950 . S
H606 C614 0.950 . S
H607 C616 0.950 . S
H608 C618 0.950 . S
H609 C620 0.950 . S
H610 C622 0.950 . S
H611 C623 0.950 . S
C612 H604 0.950 . S
C612 C613 1.386 1_565 S
C612 C614 1.391 . S
C613 C612 1.386 1_545 S
C613 C617 1.393 . S
C614 H606 0.950 . S
C614 C612 1.391 . S
C614 C615 1.400 1_565 S
C615 C614 1.400 1_545 S
C615 C616 1.398 . S
C615 C621 1.491 . S
C616 H607 0.950 . S
C616 C615 1.398 . S
C616 C617 1.391 . S
C617 H605 0.950 . S
C617 C613 1.393 . S
C617 C616 1.391 . S
C618 H608 0.950 . S
C618 C619 1.386 . S
C618 C620 1.391 . S
C619 C618 1.386 . S
C619 C623 1.393 1_545 S
C620 H609 0.950 . S
C620 C618 1.391 . S
C620 C621 1.400 . S
C621 C615 1.491 . S
C621 C620 1.400 . S
C621 C622 1.398 1_545 S
C622 H610 0.950 . S
C622 C621 1.398 1_565 S
C622 C623 1.391 . S
C623 H611 0.950 . S
C623 C619 1.393 1_565 S
C623 C622 1.391 . S
H624 C632 0.950 . S
H625 C637 0.950 . S
H626 C634 0.950 . S
H627 C636 0.950 . S
H628 C638 0.950 . S
H629 C640 0.950 . S
H630 C642 0.950 . S
H631 C643 0.950 . S
C632 H624 0.950 . S
C632 C633 1.386 . S
C632 C634 1.391 . S
C633 C632 1.386 . S
C633 C637 1.393 . S
C634 H626 0.950 . S
C634 C632 1.391 . S
C634 C635 1.400 . S
C635 C634 1.400 . S
C635 C636 1.398 . S
C635 C641 1.491 . S
C636 H627 0.950 . S
C636 C635 1.398 . S
C636 C637 1.391 . S
C637 H625 0.950 . S
C637 C633 1.393 . S
C637 C636 1.391 . S
C638 H628 0.950 . S
C638 C639 1.386 . S
C638 C640 1.391 . S
C639 C638 1.386 . S
C639 C643 1.393 . S
C640 H629 0.950 . S
C640 C638 1.391 . S
C640 C641 1.400 . S
C641 C635 1.491 . S
C641 C640 1.400 . S
C641 C642 1.398 . S
C642 H630 0.950 . S
C642 C641 1.398 . S
C642 C643 1.391 . S
C643 H631 0.950 . S
C643 C639 1.393 . S
C643 C642 1.391 . S
H644 C652 0.950 . S
H645 C657 0.950 . S
H646 C654 0.950 . S
H647 C656 0.950 . S
H648 C658 0.950 . S
H649 C660 0.950 . S
H650 C662 0.950 . S
H651 C663 0.950 . S
C652 H644 0.950 . S
C652 C653 1.386 . S
C652 C654 1.391 . S
C653 C652 1.386 . S
C653 C657 1.393 . S
C654 H646 0.950 . S
C654 C652 1.391 . S
C654 C655 1.400 . S
C655 C654 1.400 . S
C655 C656 1.398 . S
C655 C661 1.491 . S
C656 H647 0.950 . S
C656 C655 1.398 . S
C656 C657 1.391 . S
C657 H645 0.950 . S
C657 C653 1.393 . S
C657 C656 1.391 . S
C658 H648 0.950 . S
C658 C659 1.386 . S
C658 C660 1.391 . S
C659 C658 1.386 . S
C659 C663 1.393 . S
C660 H649 0.950 . S
C660 C658 1.391 . S
C660 C661 1.400 . S
C661 C655 1.491 . S
C661 C660 1.400 . S
C661 C662 1.398 . S
C662 H650 0.950 . S
C662 C661 1.398 . S
C662 C663 1.391 . S
C663 H651 0.950 . S
C663 C659 1.393 . S
C663 C662 1.391 . S
H664 C672 0.950 . S
H665 C677 0.950 . S
H666 C674 0.950 . S
H667 C676 0.950 . S
H668 C678 0.950 . S
H669 C680 0.950 . S
H670 C682 0.950 . S
H671 C683 0.950 . S
C672 H664 0.950 . S
C672 C673 1.386 . S
C672 C674 1.391 . S
C673 C672 1.386 . S
C673 C677 1.393 . S
C674 H666 0.950 . S
C674 C672 1.391 . S
C674 C675 1.400 . S
C675 C674 1.400 . S
C675 C676 1.398 . S
C675 C681 1.491 . S
C676 H667 0.950 . S
C676 C675 1.398 . S
C676 C677 1.391 . S
C677 H665 0.950 . S
C677 C673 1.393 . S
C677 C676 1.391 . S
C678 H668 0.950 . S
C678 C679 1.386 . S
C678 C680 1.391 . S
C679 C678 1.386 . S
C679 C683 1.393 . S
C680 H669 0.950 . S
C680 C678 1.391 . S
C680 C681 1.400 . S
C681 C675 1.491 . S
C681 C680 1.400 . S
C681 C682 1.398 . S
C682 H670 0.950 . S
C682 C681 1.398 . S
C682 C683 1.391 . S
C683 H671 0.950 . S
C683 C679 1.393 . S
C683 C682 1.391 . S
H684 C692 0.950 . S
H685 C697 0.950 . S
H686 C694 0.950 . S
H687 C696 0.950 . S
H688 C698 0.950 . S
H689 C700 0.950 . S
H690 C702 0.950 . S
H691 C703 0.950 . S
C692 H684 0.950 . S
C692 C693 1.386 . S
C692 C694 1.391 . S
C693 C692 1.386 . S
C693 C697 1.393 . S
C694 H686 0.950 . S
C694 C692 1.391 . S
C694 C695 1.400 . S
C695 C694 1.400 . S
C695 C696 1.398 . S
C695 C701 1.491 . S
C696 H687 0.950 . S
C696 C695 1.398 . S
C696 C697 1.391 . S
C697 H685 0.950 . S
C697 C693 1.393 . S
C697 C696 1.391 . S
C698 H688 0.950 . S
C698 C699 1.386 . S
C698 C700 1.391 . S
C699 C698 1.386 . S
C699 C703 1.393 . S
C700 H689 0.950 . S
C700 C698 1.391 . S
C700 C701 1.400 . S
C701 C695 1.491 . S
C701 C700 1.400 . S
C701 C702 1.398 . S
C702 H690 0.950 . S
C702 C701 1.398 . S
C702 C703 1.391 . S
C703 H691 0.950 . S
C703 C699 1.393 . S
C703 C702 1.391 . S
H704 C712 0.950 . S
H705 C717 0.950 . S
H706 C714 0.950 . S
H707 C716 0.950 . S
H708 C718 0.950 . S
H709 C720 0.950 . S
H710 C722 0.950 . S
H711 C723 0.950 . S
C712 H704 0.950 . S
C712 C713 1.386 . S
C712 C714 1.391 . S
C713 C712 1.386 . S
C713 C717 1.393 . S
C714 H706 0.950 . S
C714 C712 1.391 . S
C714 C715 1.400 . S
C715 C714 1.400 . S
C715 C716 1.398 . S
C715 C721 1.491 . S
C716 H707 0.950 . S
C716 C715 1.398 . S
C716 C717 1.391 . S
C717 H705 0.950 . S
C717 C713 1.393 . S
C717 C716 1.391 . S
C718 H708 0.950 . S
C718 C719 1.386 . S
C718 C720 1.391 . S
C719 C718 1.386 . S
C719 C723 1.393 . S
C720 H709 0.950 . S
C720 C718 1.391 . S
C720 C721 1.400 . S
C721 C715 1.491 . S
C721 C720 1.400 . S
C721 C722 1.398 . S
C722 H710 0.950 . S
C722 C721 1.398 . S
C722 C723 1.391 . S
C723 H711 0.950 . S
C723 C719 1.393 . S
C723 C722 1.391 . S
H724 C732 0.950 . S
H725 C737 0.950 . S
H726 C734 0.950 . S
H727 C736 0.950 . S
H728 C738 0.950 . S
H729 C740 0.950 . S
H730 C742 0.950 . S
H731 C743 0.950 . S
C732 H724 0.950 . S
C732 C733 1.386 . S
C732 C734 1.391 . S
C733 C732 1.386 . S
C733 C737 1.393 . S
C734 H726 0.950 . S
C734 C732 1.391 . S
C734 C735 1.400 . S
C735 C734 1.400 . S
C735 C736 1.398 . S
C735 C741 1.491 . S
C736 H727 0.950 . S
C736 C735 1.398 . S
C736 C737 1.391 . S
C737 H725 0.950 . S
C737 C733 1.393 . S
C737 C736 1.391 . S
C738 H728 0.950 . S
C738 C739 1.386 . S
C738 C740 1.391 . S
C739 C738 1.386 . S
C739 C743 1.393 . S
C740 H729 0.950 . S
C740 C738 1.391 . S
C740 C741 1.400 . S
C741 C735 1.491 . S
C741 C740 1.400 . S
C741 C742 1.398 . S
C742 H730 0.950 . S
C742 C741 1.398 . S
C742 C743 1.391 . S
C743 H731 0.950 . S
C743 C739 1.393 . S
C743 C742 1.391 . S
H744 C752 0.950 . S
H745 C757 0.950 . S
H746 C754 0.950 . S
H747 C756 0.950 . S
H748 C758 0.950 . S
H749 C760 0.950 . S
H750 C762 0.950 . S
H751 C763 0.950 . S
C752 H744 0.950 . S
C752 C753 1.386 . S
C752 C754 1.391 . S
C753 C752 1.386 . S
C753 C757 1.393 . S
C754 H746 0.950 . S
C754 C752 1.391 . S
C754 C755 1.400 . S
C755 C754 1.400 . S
C755 C756 1.398 . S
C755 C761 1.491 . S
C756 H747 0.950 . S
C756 C755 1.398 . S
C756 C757 1.391 . S
C757 H745 0.950 . S
C757 C753 1.393 . S
C757 C756 1.391 . S
C758 H748 0.950 . S
C758 C759 1.386 . S
C758 C760 1.391 . S
C759 C758 1.386 . S
C759 C763 1.393 . S
C760 H749 0.950 . S
C760 C758 1.391 . S
C760 C761 1.400 . S
C761 C755 1.491 . S
C761 C760 1.400 . S
C761 C762 1.398 . S
C762 H750 0.950 . S
C762 C761 1.398 . S
C762 C763 1.391 . S
C763 H751 0.950 . S
C763 C759 1.393 . S
C763 C762 1.391 . S
H764 C772 0.950 . S
H765 C777 0.950 . S
H766 C774 0.950 . S
H767 C776 0.950 . S
H768 C778 0.950 . S
H769 C780 0.950 . S
H770 C782 0.950 . S
H771 C783 0.950 . S
C772 H764 0.950 . S
C772 C773 1.386 . S
C772 C774 1.391 . S
C773 C772 1.386 . S
C773 C777 1.393 . S
C774 H766 0.950 . S
C774 C772 1.391 . S
C774 C775 1.400 . S
C775 C774 1.400 . S
C775 C776 1.398 . S
C775 C781 1.491 . S
C776 H767 0.950 . S
C776 C775 1.398 . S
C776 C777 1.391 . S
C777 H765 0.950 . S
C777 C773 1.393 . S
C777 C776 1.391 . S
C778 H768 0.950 . S
C778 C779 1.386 . S
C778 C780 1.391 . S
C779 C778 1.386 . S
C779 C783 1.393 . S
C780 H769 0.950 . S
C780 C778 1.391 . S
C780 C781 1.400 . S
C781 C775 1.491 . S
C781 C780 1.400 . S
C781 C782 1.398 . S
C782 H770 0.950 . S
C782 C781 1.398 . S
C782 C783 1.391 . S
C783 H771 0.950 . S
C783 C779 1.393 . S
C783 C782 1.391 . S
H784 C792 0.950 . S
H785 C797 0.950 . S
H786 C794 0.950 . S
H787 C796 0.950 . S
H788 C798 0.950 . S
H789 C800 0.950 . S
H790 C802 0.950 . S
H791 C803 0.950 . S
C792 H784 0.950 . S
C792 C793 1.386 . S
C792 C794 1.391 . S
C793 C792 1.386 . S
C793 C797 1.393 . S
C794 H786 0.950 . S
C794 C792 1.391 . S
C794 C795 1.400 . S
C795 C794 1.400 . S
C795 C796 1.398 . S
C795 C801 1.491 . S
C796 H787 0.950 . S
C796 C795 1.398 . S
C796 C797 1.391 . S
C797 H785 0.950 . S
C797 C793 1.393 . S
C797 C796 1.391 . S
C798 H788 0.950 . S
C798 C799 1.386 . S
C798 C800 1.391 . S
C799 C798 1.386 . S
C799 C803 1.393 . S
C800 H789 0.950 . S
C800 C798 1.391 . S
C800 C801 1.400 . S
C801 C795 1.491 . S
C801 C800 1.400 . S
C801 C802 1.398 . S
C802 H790 0.950 . S
C802 C801 1.398 . S
C802 C803 1.391 . S
C803 H791 0.950 . S
C803 C799 1.393 . S
C803 C802 1.391 . S
H804 C812 0.950 . S
H805 C817 0.950 . S
H806 C814 0.950 . S
H807 C816 0.950 . S
H808 C818 0.950 . S
H809 C820 0.950 . S
H810 C822 0.950 . S
H811 C823 0.950 . S
C812 H804 0.950 . S
C812 C813 1.386 . S
C812 C814 1.391 . S
C813 C812 1.386 . S
C813 C817 1.393 . S
C814 H806 0.950 . S
C814 C812 1.391 . S
C814 C815 1.400 . S
C815 C814 1.400 . S
C815 C816 1.398 . S
C815 C821 1.491 . S
C816 H807 0.950 . S
C816 C815 1.398 . S
C816 C817 1.391 . S
C817 H805 0.950 . S
C817 C813 1.393 . S
C817 C816 1.391 . S
C818 H808 0.950 . S
C818 C819 1.386 . S
C818 C820 1.391 . S
C819 C818 1.386 . S
C819 C823 1.393 . S
C820 H809 0.950 . S
C820 C818 1.391 . S
C820 C821 1.400 . S
C821 C815 1.491 . S
C821 C820 1.400 . S
C821 C822 1.398 . S
C822 H810 0.950 . S
C822 C821 1.398 . S
C822 C823 1.391 . S
C823 H811 0.950 . S
C823 C819 1.393 . S
C823 C822 1.391 . S
H824 C832 0.950 . S
H825 C837 0.950 . S
H826 C834 0.950 . S
H827 C836 0.950 . S
H828 C838 0.950 . S
H829 C840 0.950 . S
H830 C842 0.950 . S
H831 C843 0.950 . S
C832 H824 0.950 . S
C832 C833 1.386 . S
C832 C834 1.391 . S
C833 C832 1.386 . S
C833 C837 1.393 . S
C834 H826 0.950 . S
C834 C832 1.391 . S
C834 C835 1.400 . S
C835 C834 1.400 . S
C835 C836 1.398 . S
C835 C841 1.491 . S
C836 H827 0.950 . S
C836 C835 1.398 . S
C836 C837 1.391 . S
C837 H825 0.950 . S
C837 C833 1.393 . S
C837 C836 1.391 . S
C838 H828 0.950 . S
C838 C839 1.386 . S
C838 C840 1.391 . S
C839 C838 1.386 . S
C839 C843 1.393 . S
C840 H829 0.950 . S
C840 C838 1.391 . S
C840 C841 1.400 . S
C841 C835 1.491 . S
C841 C840 1.400 . S
C841 C842 1.398 . S
C842 H830 0.950 . S
C842 C841 1.398 . S
C842 C843 1.391 . S
C843 H831 0.950 . S
C843 C839 1.393 . S
C843 C842 1.391 . S
H844 C852 0.950 . S
H845 C857 0.950 . S
H846 C854 0.950 . S
H847 C856 0.950 . S
H848 C858 0.950 . S
H849 C860 0.950 . S
H850 C862 0.950 . S
H851 C863 0.950 . S
C852 H844 0.950 . S
C852 C853 1.386 . S
C852 C854 1.391 . S
C853 C852 1.386 . S
C853 C857 1.393 . S
C854 H846 0.950 . S
C854 C852 1.391 . S
C854 C855 1.400 . S
C855 C854 1.400 . S
C855 C856 1.398 . S
C855 C861 1.491 . S
C856 H847 0.950 . S
C856 C855 1.398 . S
C856 C857 1.391 . S
C857 H845 0.950 . S
C857 C853 1.393 . S
C857 C856 1.391 . S
C858 H848 0.950 . S
C858 C859 1.386 . S
C858 C860 1.391 . S
C859 C858 1.386 . S
C859 C863 1.393 . S
C860 H849 0.950 . S
C860 C858 1.391 . S
C860 C861 1.400 . S
C861 C855 1.491 . S
C861 C860 1.400 . S
C861 C862 1.398 . S
C862 H850 0.950 . S
C862 C861 1.398 . S
C862 C863 1.391 . S
C863 H851 0.950 . S
C863 C859 1.393 . S
C863 C862 1.391 . S
H864 C872 0.950 . S
H865 C877 0.950 . S
H866 C874 0.950 . S
H867 C876 0.950 . S
H868 C878 0.950 . S
H869 C880 0.950 . S
H870 C882 0.950 . S
H871 C883 0.950 . S
C872 H864 0.950 . S
C872 C873 1.386 . S
C872 C874 1.391 . S
C873 C872 1.386 . S
C873 C877 1.393 . S
C874 H866 0.950 . S
C874 C872 1.391 . S
C874 C875 1.400 . S
C875 C874 1.400 . S
C875 C876 1.398 . S
C875 C881 1.491 . S
C876 H867 0.950 . S
C876 C875 1.398 . S
C876 C877 1.391 . S
C877 H865 0.950 . S
C877 C873 1.393 . S
C877 C876 1.391 . S
C878 H868 0.950 . S
C878 C879 1.386 . S
C878 C880 1.391 . S
C879 C878 1.386 . S
C879 C883 1.393 . S
C880 H869 0.950 . S
C880 C878 1.391 . S
C880 C881 1.400 . S
C881 C875 1.491 . S
C881 C880 1.400 . S
C881 C882 1.398 . S
C882 H870 0.950 . S
C882 C881 1.398 . S
C882 C883 1.391 . S
C883 H871 0.950 . S
C883 C879 1.393 . S
C883 C882 1.391 . S
H884 C892 0.950 . S
H885 C897 0.950 . S
H886 C894 0.950 . S
H887 C896 0.950 . S
H888 C898 0.950 . S
H889 C900 0.950 . S
H890 C902 0.950 . S
H891 C903 0.950 . S
C892 H884 0.950 . S
C892 C893 1.386 . S
C892 C894 1.391 . S
C893 C892 1.386 . S
C893 C897 1.393 . S
C894 H886 0.950 . S
C894 C892 1.391 . S
C894 C895 1.400 . S
C895 C894 1.400 . S
C895 C896 1.398 . S
C895 C901 1.491 . S
C896 H887 0.950 . S
C896 C895 1.398 . S
C896 C897 1.391 . S
C897 H885 0.950 . S
C897 C893 1.393 . S
C897 C896 1.391 . S
C898 H888 0.950 . S
C898 C899 1.386 . S
C898 C900 1.391 . S
C899 C898 1.386 . S
C899 C903 1.393 . S
C900 H889 0.950 . S
C900 C898 1.391 . S
C900 C901 1.400 . S
C901 C895 1.491 . S
C901 C900 1.400 . S
C901 C902 1.398 . S
C902 H890 0.950 . S
C902 C901 1.398 . S
C902 C903 1.391 . S
C903 H891 0.950 . S
C903 C899 1.393 . S
C903 C902 1.391 . S
H904 C912 0.950 . S
H905 C917 0.950 . S
H906 C914 0.950 . S
H907 C916 0.950 . S
H908 C918 0.950 . S
H909 C920 0.950 . S
H910 C922 0.950 . S
H911 C923 0.950 . S
C912 H904 0.950 . S
C912 C913 1.386 . S
C912 C914 1.391 . S
C913 C912 1.386 . S
C913 C917 1.393 . S
C914 H906 0.950 . S
C914 C912 1.391 . S
C914 C915 1.400 . S
C915 C914 1.400 . S
C915 C916 1.398 . S
C915 C921 1.491 . S
C916 H907 0.950 . S
C916 C915 1.398 . S
C916 C917 1.391 . S
C917 H905 0.950 . S
C917 C913 1.393 . S
C917 C916 1.391 . S
C918 H908 0.950 . S
C918 C919 1.386 . S
C918 C920 1.391 . S
C919 C918 1.386 . S
C919 C923 1.393 . S
C920 H909 0.950 . S
C920 C918 1.391 . S
C920 C921 1.400 . S
C921 C915 1.491 . S
C921 C920 1.400 . S
C921 C922 1.398 . S
C922 H910 0.950 . S
C922 C921 1.398 . S
C922 C923 1.391 . S
C923 H911 0.950 . S
C923 C919 1.393 . S
C923 C922 1.391 . S
H924 C932 0.950 . S
H925 C937 0.950 . S
H926 C934 0.950 . S
H927 C936 0.950 . S
H928 C938 0.950 . S
H929 C940 0.950 . S
H930 C942 0.950 . S
H931 C943 0.950 . S
C932 H924 0.950 . S
C932 C933 1.386 . S
C932 C934 1.391 . S
C933 C932 1.386 . S
C933 C937 1.393 . S
C934 H926 0.950 . S
C934 C932 1.391 . S
C934 C935 1.400 . S
C935 C934 1.400 . S
C935 C936 1.398 . S
C935 C941 1.491 . S
C936 H927 0.950 . S
C936 C935 1.398 . S
C936 C937 1.391 . S
C937 H925 0.950 . S
C937 C933 1.393 . S
C937 C936 1.391 . S
C938 H928 0.950 . S
C938 C939 1.386 . S
C938 C940 1.391 . S
C939 C938 1.386 . S
C939 C943 1.393 . S
C940 H929 0.950 . S
C940 C938 1.391 . S
C940 C941 1.400 . S
C941 C935 1.491 . S
C941 C940 1.400 . S
C941 C942 1.398 . S
C942 H930 0.950 . S
C942 C941 1.398 . S
C942 C943 1.391 . S
C943 H931 0.950 . S
C943 C939 1.393 . S
C943 C942 1.391 . S
H944 C952 0.950 . S
H945 C957 0.950 . S
H946 C954 0.950 . S
H947 C956 0.950 . S
H948 C958 0.950 . S
H949 C960 0.950 . S
H950 C962 0.950 . S
H951 C963 0.950 . S
C952 H944 0.950 . S
C952 C953 1.386 . S
C952 C954 1.391 . S
C953 C952 1.386 . S
C953 C957 1.393 . S
C954 H946 0.950 . S
C954 C952 1.391 . S
C954 C955 1.400 . S
C955 C954 1.400 . S
C955 C956 1.398 . S
C955 C961 1.491 . S
C956 H947 0.950 . S
C956 C955 1.398 . S
C956 C957 1.391 . S
C957 H945 0.950 . S
C957 C953 1.393 . S
C957 C956 1.391 . S
C958 H948 0.950 . S
C958 C959 1.386 . S
C958 C960 1.391 . S
C959 C958 1.386 . S
C959 C963 1.393 . S
C960 H949 0.950 . S
C960 C958 1.391 . S
C960 C961 1.400 . S
C961 C955 1.491 . S
C961 C960 1.400 . S
C961 C962 1.398 . S
C962 H950 0.950 . S
C962 C961 1.398 . S
C962 C963 1.391 . S
C963 H951 0.950 . S
C963 C959 1.393 . S
C963 C962 1.391 . S
H964 C972 0.950 . S
H965 C977 0.950 . S
H966 C974 0.950 . S
H967 C976 0.950 . S
H968 C978 0.950 . S
H969 C980 0.950 . S
H970 C982 0.950 . S
H971 C983 0.950 . S
C972 H964 0.950 . S
C972 C973 1.386 . S
C972 C974 1.391 . S
C973 C972 1.386 . S
C973 C977 1.393 . S
C974 H966 0.950 . S
C974 C972 1.391 . S
C974 C975 1.400 . S
C975 C974 1.400 . S
C975 C976 1.398 . S
C975 C981 1.491 . S
C976 H967 0.950 . S
C976 C975 1.398 . S
C976 C977 1.391 . S
C977 H965 0.950 . S
C977 C973 1.393 . S
C977 C976 1.391 . S
C978 H968 0.950 . S
C978 C979 1.386 . S
C978 C980 1.391 . S
C979 C978 1.386 . S
C979 C983 1.393 . S
C980 H969 0.950 . S
C980 C978 1.391 . S
C980 C981 1.400 . S
C981 C975 1.491 . S
C981 C980 1.400 . S
C981 C982 1.398 . S
C982 H970 0.950 . S
C982 C981 1.398 . S
C982 C983 1.391 . S
C983 H971 0.950 . S
C983 C979 1.393 . S
C983 C982 1.391 . S
H984 C992 0.950 . S
H985 C997 0.950 . S
H986 C994 0.950 . S
H987 C996 0.950 . S
H988 C998 0.950 . S
H989 C1000 0.950 . S
H990 C1002 0.950 . S
H991 C1003 0.950 . S
C992 H984 0.950 . S
C992 C993 1.386 . S
C992 C994 1.391 . S
C993 C992 1.386 . S
C993 C997 1.393 . S
C994 H986 0.950 . S
C994 C992 1.391 . S
C994 C995 1.400 . S
C995 C994 1.400 . S
C995 C996 1.398 . S
C995 C1001 1.491 . S
C996 H987 0.950 . S
C996 C995 1.398 . S
C996 C997 1.391 . S
C997 H985 0.950 . S
C997 C993 1.393 . S
C997 C996 1.391 . S
C998 H988 0.950 . S
C998 C999 1.386 . S
C998 C1000 1.391 . S
C999 C998 1.386 . S
C999 C1003 1.393 . S
C1000 H989 0.950 . S
C1000 C998 1.391 . S
C1000 C1001 1.400 . S
C1001 C995 1.491 . S
C1001 C1000 1.400 . S
C1001 C1002 1.398 . S
C1002 H990 0.950 . S
C1002 C1001 1.398 . S
C1002 C1003 1.391 . S
C1003 H991 0.950 . S
C1003 C999 1.393 . S
C1003 C1002 1.391 . S
H1004 C1012 0.950 . S
H1005 C1017 0.950 . S
H1006 C1014 0.950 . S
H1007 C1016 0.950 . S
H1008 C1018 0.950 . S
H1009 C1020 0.950 . S
H1010 C1022 0.950 . S
H1011 C1023 0.950 . S
C1012 H1004 0.950 . S
C1012 C1013 1.386 . S
C1012 C1014 1.391 . S
C1013 C1012 1.386 . S
C1013 C1017 1.393 . S
C1014 H1006 0.950 . S
C1014 C1012 1.391 . S
C1014 C1015 1.400 . S
C1015 C1014 1.400 . S
C1015 C1016 1.398 . S
C1015 C1021 1.491 . S
C1016 H1007 0.950 . S
C1016 C1015 1.398 . S
C1016 C1017 1.391 . S
C1017 H1005 0.950 . S
C1017 C1013 1.393 . S
C1017 C1016 1.391 . S
C1018 H1008 0.950 . S
C1018 C1019 1.386 . S
C1018 C1020 1.391 . S
C1019 C1018 1.386 . S
C1019 C1023 1.393 . S
C1020 H1009 0.950 . S
C1020 C1018 1.391 . S
C1020 C1021 1.400 . S
C1021 C1015 1.491 . S
C1021 C1020 1.400 . S
C1021 C1022 1.398 . S
C1022 H1010 0.950 . S
C1022 C1021 1.398 . S
C1022 C1023 1.391 . S
C1023 H1011 0.950 . S
C1023 C1019 1.393 . S
C1023 C1022 1.391 . S
H1024 C1032 0.950 . S
H1025 C1037 0.950 . S
H1026 C1034 0.950 . S
H1027 C1036 0.950 . S
H1028 C1038 0.950 1_565 S
H1029 C1040 0.950 . S
H1030 C1042 0.950 . S
H1031 C1043 0.950 . S
C1032 H1024 0.950 . S
C1032 C1033 1.386 . S
C1032 C1034 1.391 . S
C1033 C1032 1.386 . S
C1033 C1037 1.393 1_545 S
C1034 H1026 0.950 . S
C1034 C1032 1.391 . S
C1034 C1035 1.400 . S
C1035 C1034 1.400 . S
C1035 C1036 1.398 1_545 S
C1035 C1041 1.491 1_655 S
C1036 H1027 0.950 . S
C1036 C1035 1.398 1_565 S
C1036 C1037 1.391 . S
C1037 H1025 0.950 . S
C1037 C1033 1.393 1_565 S
C1037 C1036 1.391 . S
C1038 H1028 0.950 1_545 S
C1038 C1039 1.386 . S
C1038 C1040 1.391 1_545 S
C1039 C1038 1.386 . S
C1039 C1043 1.393 . S
C1040 H1029 0.950 . S
C1040 C1038 1.391 1_565 S
C1040 C1041 1.400 1_565 S
C1041 C1035 1.491 1_455 S
C1041 C1040 1.400 1_545 S
C1041 C1042 1.398 . S
C1042 H1030 0.950 . S
C1042 C1041 1.398 . S
C1042 C1043 1.391 . S
C1043 H1031 0.950 . S
C1043 C1039 1.393 . S
C1043 C1042 1.391 . S
H1044 C1052 0.950 . S
H1045 C1057 0.950 . S
H1046 C1054 0.944 1_565 S
H1047 C1056 0.950 . S
H1048 C1058 0.950 . S
H1049 C1060 0.950 . S
H1050 C1062 0.950 1_565 S
H1051 C1063 0.950 . S
C1052 H1044 0.950 . S
C1052 C1053 1.386 1_565 S
C1052 C1054 1.389 1_565 S
C1053 C1052 1.386 1_545 S
C1053 C1057 1.393 . S
C1054 H1046 0.944 1_545 S
C1054 C1052 1.389 1_545 S
C1054 C1055 1.408 . S
C1055 C1054 1.408 . S
C1055 C1056 1.398 . S
C1055 C1061 1.491 1_455 S
C1056 H1047 0.950 . S
C1056 C1055 1.398 . S
C1056 C1057 1.391 . S
C1057 H1045 0.950 . S
C1057 C1053 1.393 . S
C1057 C1056 1.391 . S
C1058 H1048 0.950 . S
C1058 C1059 1.386 . S
C1058 C1060 1.391 . S
C1059 C1058 1.386 . S
C1059 C1063 1.393 . S
C1060 H1049 0.950 . S
C1060 C1058 1.391 . S
C1060 C1061 1.400 . S
C1061 C1055 1.491 1_655 S
C1061 C1060 1.400 . S
C1061 C1062 1.398 . S
C1062 H1050 0.950 1_545 S
C1062 C1061 1.398 . S
C1062 C1063 1.391 . S
C1063 H1051 0.950 . S
C1063 C1059 1.393 . S
C1063 C1062 1.391 . S
H1064 C1072 0.950 . S
H1065 C1077 0.950 . S
H1066 C1074 0.950 . S
H1067 C1076 0.950 . S
H1068 C1078 0.950 . S
H1069 C1080 0.950 . S
H1070 C1082 0.950 . S
H1071 C1083 0.950 . S
C1072 H1064 0.950 . S
C1072 C1073 1.386 . S
C1072 C1074 1.391 . S
C1073 C1072 1.386 . S
C1073 C1077 1.393 . S
C1074 H1066 0.950 . S
C1074 C1072 1.391 . S
C1074 C1075 1.400 . S
C1075 C1074 1.400 . S
C1075 C1076 1.398 . S
C1075 C1081 1.491 1_655 S
C1076 H1067 0.950 . S
C1076 C1075 1.398 . S
C1076 C1077 1.391 . S
C1077 H1065 0.950 . S
C1077 C1073 1.393 . S
C1077 C1076 1.391 . S
C1078 H1068 0.950 . S
C1078 C1079 1.386 . S
C1078 C1080 1.391 . S
C1079 C1078 1.386 . S
C1079 C1083 1.393 . S
C1080 H1069 0.950 . S
C1080 C1078 1.391 . S
C1080 C1081 1.400 . S
C1081 C1075 1.491 1_455 S
C1081 C1080 1.400 . S
C1081 C1082 1.398 . S
C1082 H1070 0.950 . S
C1082 C1081 1.398 . S
C1082 C1083 1.391 . S
C1083 H1071 0.950 . S
C1083 C1079 1.393 . S
C1083 C1082 1.391 . S
H1084 C1092 0.950 . S
H1085 C1097 0.950 . S
H1086 C1094 0.950 . S
H1087 C1096 0.950 . S
H1088 C1098 0.950 . S
H1089 C1100 0.950 . S
H1090 C1102 0.950 . S
H1091 C1103 0.950 . S
C1092 H1084 0.950 . S
C1092 C1093 1.386 . S
C1092 C1094 1.391 . S
C1093 C1092 1.386 . S
C1093 C1097 1.393 . S
C1094 H1086 0.950 . S
C1094 C1092 1.391 . S
C1094 C1095 1.400 . S
C1095 C1094 1.400 . S
C1095 C1096 1.398 . S
C1095 C1101 1.491 1_655 S
C1096 H1087 0.950 . S
C1096 C1095 1.398 . S
C1096 C1097 1.391 . S
C1097 H1085 0.950 . S
C1097 C1093 1.393 . S
C1097 C1096 1.391 . S
C1098 H1088 0.950 . S
C1098 C1099 1.386 . S
C1098 C1100 1.391 . S
C1099 C1098 1.386 . S
C1099 C1103 1.393 . S
C1100 H1089 0.950 . S
C1100 C1098 1.391 . S
C1100 C1101 1.400 . S
C1101 C1095 1.491 1_455 S
C1101 C1100 1.400 . S
C1101 C1102 1.398 . S
C1102 H1090 0.950 . S
C1102 C1101 1.398 . S
C1102 C1103 1.391 . S
C1103 H1091 0.950 . S
C1103 C1099 1.393 . S
C1103 C1102 1.391 . S
H1104 C1112 0.950 . S
H1105 C1117 0.950 . S
H1106 C1114 0.950 . S
H1107 C1116 0.950 . S
H1108 C1118 0.950 . S
H1109 C1120 0.950 . S
H1110 C1122 0.950 . S
H1111 C1123 0.950 . S
C1112 H1104 0.950 . S
C1112 C1113 1.386 . S
C1112 C1114 1.391 . S
C1113 C1112 1.386 . S
C1113 C1117 1.393 1_545 S
C1114 H1106 0.950 . S
C1114 C1112 1.391 . S
C1114 C1115 1.400 . S
C1115 C1114 1.400 . S
C1115 C1116 1.398 1_545 S
C1115 C1121 1.491 . S
C1116 H1107 0.950 . S
C1116 C1115 1.398 1_565 S
C1116 C1117 1.391 . S
C1117 H1105 0.950 . S
C1117 C1113 1.393 1_565 S
C1117 C1116 1.391 . S
C1118 H1108 0.950 . S
C1118 C1119 1.386 1_565 S
C1118 C1120 1.391 . S
C1119 C1118 1.386 1_545 S
C1119 C1123 1.393 . S
C1120 H1109 0.950 . S
C1120 C1118 1.391 . S
C1120 C1121 1.400 1_565 S
C1121 C1115 1.491 . S
C1121 C1120 1.400 1_545 S
C1121 C1122 1.398 . S
C1122 H1110 0.950 . S
C1122 C1121 1.398 . S
C1122 C1123 1.391 . S
C1123 H1111 0.950 . S
C1123 C1119 1.393 . S
C1123 C1122 1.391 . S
H1124 C1132 0.950 . S
H1125 C1137 0.950 . S
H1126 C1134 0.950 . S
H1127 C1136 0.950 . S
H1128 C1138 0.950 . S
H1129 C1140 0.950 . S
H1130 C1142 0.950 . S
H1131 C1143 0.950 . S
C1132 H1124 0.950 . S
C1132 C1133 1.386 . S
C1132 C1134 1.391 . S
C1133 C1132 1.386 . S
C1133 C1137 1.393 1_545 S
C1134 H1126 0.950 . S
C1134 C1132 1.391 . S
C1134 C1135 1.400 . S
C1135 C1134 1.400 . S
C1135 C1136 1.398 1_545 S
C1135 C1141 1.491 . S
C1136 H1127 0.950 . S
C1136 C1135 1.398 1_565 S
C1136 C1137 1.391 . S
C1137 H1125 0.950 . S
C1137 C1133 1.393 1_565 S
C1137 C1136 1.391 . S
C1138 H1128 0.950 . S
C1138 C1139 1.386 1_565 S
C1138 C1140 1.391 . S
C1139 C1138 1.386 1_545 S
C1139 C1143 1.393 . S
C1140 H1129 0.950 . S
C1140 C1138 1.391 . S
C1140 C1141 1.400 1_565 S
C1141 C1135 1.491 . S
C1141 C1140 1.400 1_545 S
C1141 C1142 1.398 . S
C1142 H1130 0.950 . S
C1142 C1141 1.398 . S
C1142 C1143 1.391 . S
C1143 H1131 0.950 . S
C1143 C1139 1.393 . S
C1143 C1142 1.391 . S
H1144 C1152 0.950 . S
H1145 C1157 0.950 . S
H1146 C1154 0.950 . S
H1147 C1156 0.950 . S
H1148 C1158 0.950 . S
H1149 C1160 0.950 . S
H1150 C1162 0.950 . S
H1151 C1163 0.950 . S
C1152 H1144 0.950 . S
C1152 C1153 1.386 . S
C1152 C1154 1.391 . S
C1153 C1152 1.386 . S
C1153 C1157 1.393 . S
C1154 H1146 0.950 . S
C1154 C1152 1.391 . S
C1154 C1155 1.400 . S
C1155 C1154 1.400 . S
C1155 C1156 1.398 . S
C1155 C1161 1.491 . S
C1156 H1147 0.950 . S
C1156 C1155 1.398 . S
C1156 C1157 1.391 . S
C1157 H1145 0.950 . S
C1157 C1153 1.393 . S
C1157 C1156 1.391 . S
C1158 H1148 0.950 . S
C1158 C1159 1.386 . S
C1158 C1160 1.391 . S
C1159 C1158 1.386 . S
C1159 C1163 1.393 . S
C1160 H1149 0.950 . S
C1160 C1158 1.391 . S
C1160 C1161 1.400 . S
C1161 C1155 1.491 . S
C1161 C1160 1.400 . S
C1161 C1162 1.398 . S
C1162 H1150 0.950 . S
C1162 C1161 1.398 . S
C1162 C1163 1.391 . S
C1163 H1151 0.950 . S
C1163 C1159 1.393 . S
C1163 C1162 1.391 . S
H1164 C1172 0.950 . S
H1165 C1177 0.950 . S
H1166 C1174 0.950 . S
H1167 C1176 0.950 . S
H1168 C1178 0.950 . S
H1169 C1180 0.950 . S
H1170 C1182 0.950 . S
H1171 C1183 0.950 . S
C1172 H1164 0.950 . S
C1172 C1173 1.386 . S
C1172 C1174 1.391 . S
C1173 C1172 1.386 . S
C1173 C1177 1.393 . S
C1174 H1166 0.950 . S
C1174 C1172 1.391 . S
C1174 C1175 1.400 . S
C1175 C1174 1.400 . S
C1175 C1176 1.398 . S
C1175 C1181 1.491 . S
C1176 H1167 0.950 . S
C1176 C1175 1.398 . S
C1176 C1177 1.391 . S
C1177 H1165 0.950 . S
C1177 C1173 1.393 . S
C1177 C1176 1.391 . S
C1178 H1168 0.950 . S
C1178 C1179 1.386 . S
C1178 C1180 1.391 . S
C1179 C1178 1.386 . S
C1179 C1183 1.393 . S
C1180 H1169 0.950 . S
C1180 C1178 1.391 . S
C1180 C1181 1.400 . S
C1181 C1175 1.491 . S
C1181 C1180 1.400 . S
C1181 C1182 1.398 . S
C1182 H1170 0.950 . S
C1182 C1181 1.398 . S
C1182 C1183 1.391 . S
C1183 H1171 0.950 . S
C1183 C1179 1.393 . S
C1183 C1182 1.391 . S
H1184 C1192 0.950 . S
H1185 C1197 0.950 1_565 S
H1186 C1194 0.950 . S
H1187 C1196 0.950 1_565 S
H1188 C1198 0.950 . S
H1189 C1200 0.950 1_565 S
H1190 C1202 0.950 . S
H1191 C1203 0.950 . S
C1192 H1184 0.950 . S
C1192 C1193 1.386 . S
C1192 C1194 1.391 . S
C1193 C1192 1.386 . S
C1193 C1197 1.393 . S
C1194 H1186 0.950 . S
C1194 C1192 1.391 . S
C1194 C1195 1.400 . S
C1195 C1194 1.400 . S
C1195 C1196 1.398 . S
C1195 C1201 1.491 1_556 S
C1196 H1187 0.950 1_545 S
C1196 C1195 1.398 . S
C1196 C1197 1.391 . S
C1197 H1185 0.950 1_545 S
C1197 C1193 1.393 . S
C1197 C1196 1.391 . S
C1198 H1188 0.950 . S
C1198 C1199 1.386 . S
C1198 C1200 1.391 . S
C1199 C1198 1.386 . S
C1199 C1203 1.393 . S
C1200 H1189 0.950 1_545 S
C1200 C1198 1.391 . S
C1200 C1201 1.400 . S
C1201 C1195 1.491 1_554 S
C1201 C1200 1.400 . S
C1201 C1202 1.398 . S
C1202 H1190 0.950 . S
C1202 C1201 1.398 . S
C1202 C1203 1.391 . S
C1203 H1191 0.950 . S
C1203 C1199 1.393 . S
C1203 C1202 1.391 . S
H1204 C1212 0.953 . S
H1205 C1217 0.950 . S
H1206 C1214 0.950 . S
H1207 C1216 0.950 . S
H1208 C1218 0.950 . S
H1209 C1220 0.950 . S
H1210 C1222 0.950 . S
H1211 C1223 0.950 . S
C1212 H1204 0.953 . S
C1212 C1213 1.382 1_565 S
C1212 C1214 1.391 . S
C1213 C1212 1.382 1_545 S
C1213 C1217 1.393 . S
C1214 H1206 0.950 . S
C1214 C1212 1.391 . S
C1214 C1215 1.400 1_565 S
C1215 C1214 1.400 1_545 S
C1215 C1216 1.398 . S
C1215 C1221 1.491 1_556 S
C1216 H1207 0.950 . S
C1216 C1215 1.398 . S
C1216 C1217 1.391 . S
C1217 H1205 0.950 . S
C1217 C1213 1.393 . S
C1217 C1216 1.391 . S
C1218 H1208 0.950 . S
C1218 C1219 1.386 . S
C1218 C1220 1.391 . S
C1219 C1218 1.386 . S
C1219 C1223 1.393 1_545 S
C1220 H1209 0.950 . S
C1220 C1218 1.391 . S
C1220 C1221 1.400 . S
C1221 C1215 1.491 1_554 S
C1221 C1220 1.400 . S
C1221 C1222 1.398 1_545 S
C1222 H1210 0.950 . S
C1222 C1221 1.398 1_565 S
C1222 C1223 1.391 . S
C1223 H1211 0.950 . S
C1223 C1219 1.393 1_565 S
C1223 C1222 1.391 . S
H1224 C1232 0.950 . S
H1225 C1237 0.950 . S
H1226 C1234 0.950 . S
H1227 C1236 0.950 . S
H1228 C1238 0.950 . S
H1229 C1240 0.950 . S
H1230 C1242 0.950 . S
H1231 C1243 0.950 . S
C1232 H1224 0.950 . S
C1232 C1233 1.386 . S
C1232 C1234 1.391 . S
C1233 C1232 1.386 . S
C1233 C1237 1.393 . S
C1234 H1226 0.950 . S
C1234 C1232 1.391 . S
C1234 C1235 1.400 . S
C1235 C1234 1.400 . S
C1235 C1236 1.398 . S
C1235 C1241 1.491 . S
C1236 H1227 0.950 . S
C1236 C1235 1.398 . S
C1236 C1237 1.391 . S
C1237 H1225 0.950 . S
C1237 C1233 1.393 . S
C1237 C1236 1.391 . S
C1238 H1228 0.950 . S
C1238 C1239 1.386 . S
C1238 C1240 1.391 . S
C1239 C1238 1.386 . S
C1239 C1243 1.393 . S
C1240 H1229 0.950 . S
C1240 C1238 1.391 . S
C1240 C1241 1.400 . S
C1241 C1235 1.491 . S
C1241 C1240 1.400 . S
C1241 C1242 1.398 . S
C1242 H1230 0.950 . S
C1242 C1241 1.398 . S
C1242 C1243 1.391 . S
C1243 H1231 0.950 . S
C1243 C1239 1.393 . S
C1243 C1242 1.391 . S
H1244 C1252 0.950 . S
H1245 C1257 0.950 . S
H1246 C1254 0.950 . S
H1247 C1256 0.950 . S
H1248 C1258 0.950 . S
H1249 C1260 0.950 . S
H1250 C1262 0.950 . S
H1251 C1263 0.950 . S
C1252 H1244 0.950 . S
C1252 C1253 1.386 . S
C1252 C1254 1.391 . S
C1253 C1252 1.386 . S
C1253 C1257 1.393 . S
C1254 H1246 0.950 . S
C1254 C1252 1.391 . S
C1254 C1255 1.400 . S
C1255 C1254 1.400 . S
C1255 C1256 1.398 . S
C1255 C1261 1.491 . S
C1256 H1247 0.950 . S
C1256 C1255 1.398 . S
C1256 C1257 1.391 . S
C1257 H1245 0.950 . S
C1257 C1253 1.393 . S
C1257 C1256 1.391 . S
C1258 H1248 0.950 . S
C1258 C1259 1.386 . S
C1258 C1260 1.391 . S
C1259 C1258 1.386 . S
C1259 C1263 1.393 . S
C1260 H1249 0.950 . S
C1260 C1258 1.391 . S
C1260 C1261 1.400 . S
C1261 C1255 1.491 . S
C1261 C1260 1.400 . S
C1261 C1262 1.398 . S
C1262 H1250 0.950 . S
C1262 C1261 1.398 . S
C1262 C1263 1.391 . S
C1263 H1251 0.950 . S
C1263 C1259 1.393 . S
C1263 C1262 1.391 . S
H1264 C1272 0.950 . S
H1265 C1277 0.950 . S
H1266 C1274 0.950 . S
H1267 C1276 0.950 . S
H1268 C1278 0.950 . S
H1269 C1280 0.950 . S
H1270 C1282 0.950 . S
H1271 C1283 0.950 . S
C1272 H1264 0.950 . S
C1272 C1273 1.386 1_565 S
C1272 C1274 1.391 . S
C1273 C1272 1.386 1_545 S
C1273 C1277 1.393 . S
C1274 H1266 0.950 . S
C1274 C1272 1.391 . S
C1274 C1275 1.400 1_565 S
C1275 C1274 1.400 1_545 S
C1275 C1276 1.398 . S
C1275 C1281 1.491 . S
C1276 H1267 0.950 . S
C1276 C1275 1.398 . S
C1276 C1277 1.391 . S
C1277 H1265 0.950 . S
C1277 C1273 1.393 . S
C1277 C1276 1.391 . S
C1278 H1268 0.950 . S
C1278 C1279 1.386 . S
C1278 C1280 1.391 . S
C1279 C1278 1.386 . S
C1279 C1283 1.393 1_545 S
C1280 H1269 0.950 . S
C1280 C1278 1.391 . S
C1280 C1281 1.400 . S
C1281 C1275 1.491 . S
C1281 C1280 1.400 . S
C1281 C1282 1.398 1_545 S
C1282 H1270 0.950 . S
C1282 C1281 1.398 1_565 S
C1282 C1283 1.391 . S
C1283 H1271 0.950 . S
C1283 C1279 1.393 1_565 S
C1283 C1282 1.391 . S
H1284 C1292 0.950 . S
H1285 C1297 0.950 . S
H1286 C1294 0.950 . S
H1287 C1296 0.950 . S
H1288 C1298 0.950 . S
H1289 C1300 0.950 . S
H1290 C1302 0.950 . S
H1291 C1303 0.950 . S
C1292 H1284 0.950 . S
C1292 C1293 1.386 . S
C1292 C1294 1.391 . S
C1293 C1292 1.386 . S
C1293 C1297 1.393 1_545 S
C1294 H1286 0.950 . S
C1294 C1292 1.391 . S
C1294 C1295 1.400 . S
C1295 C1294 1.400 . S
C1295 C1296 1.398 1_545 S
C1295 C1301 1.491 . S
C1296 H1287 0.950 . S
C1296 C1295 1.398 1_565 S
C1296 C1297 1.391 . S
C1297 H1285 0.950 . S
C1297 C1293 1.393 1_565 S
C1297 C1296 1.391 . S
C1298 H1288 0.950 . S
C1298 C1299 1.386 1_565 S
C1298 C1300 1.391 . S
C1299 C1298 1.386 1_545 S
C1299 C1303 1.393 . S
C1300 H1289 0.950 . S
C1300 C1298 1.391 . S
C1300 C1301 1.400 1_565 S
C1301 C1295 1.491 . S
C1301 C1300 1.400 1_545 S
C1301 C1302 1.398 . S
C1302 H1290 0.950 . S
C1302 C1301 1.398 . S
C1302 C1303 1.391 . S
C1303 H1291 0.950 . S
C1303 C1299 1.393 . S
C1303 C1302 1.391 . S
H1304 C1312 0.950 . S
H1305 C1317 0.950 . S
H1306 C1314 0.950 . S
H1307 C1316 0.950 . S
H1308 C1318 0.950 . S
H1309 C1320 0.950 . S
H1310 C1322 0.950 . S
H1311 C1323 0.950 . S
C1312 H1304 0.950 . S
C1312 C1313 1.386 . S
C1312 C1314 1.391 . S
C1313 C1312 1.386 . S
C1313 C1317 1.393 . S
C1314 H1306 0.950 . S
C1314 C1312 1.391 . S
C1314 C1315 1.400 . S
C1315 C1314 1.400 . S
C1315 C1316 1.398 . S
C1315 C1321 1.491 1_554 S
C1316 H1307 0.950 . S
C1316 C1315 1.398 . S
C1316 C1317 1.391 . S
C1317 H1305 0.950 . S
C1317 C1313 1.393 . S
C1317 C1316 1.391 . S
C1318 H1308 0.950 . S
C1318 C1319 1.386 . S
C1318 C1320 1.391 . S
C1319 C1318 1.386 . S
C1319 C1323 1.393 . S
C1320 H1309 0.950 . S
C1320 C1318 1.391 . S
C1320 C1321 1.400 . S
C1321 C1315 1.491 1_556 S
C1321 C1320 1.400 . S
C1321 C1322 1.398 . S
C1322 H1310 0.950 . S
C1322 C1321 1.398 . S
C1322 C1323 1.391 . S
C1323 H1311 0.950 . S
C1323 C1319 1.393 . S
C1323 C1322 1.391 . S
H1324 C1332 0.950 . S
H1325 C1337 0.950 . S
H1326 C1334 0.950 . S
H1327 C1336 0.950 . S
H1328 C1338 0.950 . S
H1329 C1340 0.950 . S
H1330 C1342 0.950 . S
H1331 C1343 0.950 . S
C1332 H1324 0.950 . S
C1332 C1333 1.386 . S
C1332 C1334 1.391 . S
C1333 C1332 1.386 . S
C1333 C1337 1.393 . S
C1334 H1326 0.950 . S
C1334 C1332 1.391 . S
C1334 C1335 1.400 . S
C1335 C1334 1.400 . S
C1335 C1336 1.398 . S
C1335 C1341 1.491 1_556 S
C1336 H1327 0.950 . S
C1336 C1335 1.398 . S
C1336 C1337 1.391 . S
C1337 H1325 0.950 . S
C1337 C1333 1.393 . S
C1337 C1336 1.391 . S
C1338 H1328 0.950 . S
C1338 C1339 1.386 . S
C1338 C1340 1.391 . S
C1339 C1338 1.386 . S
C1339 C1343 1.393 . S
C1340 H1329 0.950 . S
C1340 C1338 1.391 . S
C1340 C1341 1.400 . S
C1341 C1335 1.491 1_554 S
C1341 C1340 1.400 . S
C1341 C1342 1.398 . S
C1342 H1330 0.950 . S
C1342 C1341 1.398 . S
C1342 C1343 1.391 . S
C1343 H1331 0.950 . S
C1343 C1339 1.393 . S
C1343 C1342 1.391 . S
C553 C9 1.416 . S
C559 C383 1.409 . S
C573 C43 1.416 . S
C579 C349 1.409 . S
C593 C315 1.419 . S
C599 C77 1.411 . S
C613 C281 1.432 . S
C619 C111 1.437 . S
C633 C145 1.427 . S
C639 C519 1.434 . S
C653 C179 1.409 . S
C659 C485 1.409 . S
C673 C451 1.410 . S
C679 C213 1.418 . S
C693 C417 1.425 . S
C699 C247 1.415 . S
C713 C2 2.022 . S
C719 C444 2.021 . S
C733 C410 2.020 . S
C739 C36 2.020 . S
C753 C70 2.020 . S
C759 C512 2.020 . S
C773 C478 2.022 . S
C779 C104 2.021 . S
C793 C122 1.019 . S
C799 C496 1.021 . S
C813 C530 1.023 . S
C819 C88 1.022 . S
C833 C428 1.018 . S
C839 C54 1.016 . S
C853 C20 1.019 . S
C859 C462 1.018 . S
C873 C138 2.021 . S
C879 C308 2.022 . S
C893 C172 2.020 . S
C899 C274 2.019 . S
C913 C206 2.021 . S
C919 C376 2.020 . S
C933 C240 2.022 . S
C939 C342 2.022 . S
C953 C258 1.015 . S
C959 C360 1.015 . S
C973 C224 1.023 . S
C979 C394 1.023 . S
C993 C190 1.019 . S
C999 C292 1.017 . S
C1013 C156 1.015 . S
C1019 C326 1.015 . S
C1033 C67 1.607 . S
C1039 C33 1.609 . S
C1053 C101 1.600 . S
C1059 C135 1.599 . S
C1073 C203 1.600 . S
C1079 C169 1.602 . S
C1093 C271 1.608 . S
C1099 C237 1.609 . S
C1113 C339 1.606 . S
C1119 C305 1.608 . S
C1133 C407 1.606 . S
C1139 C373 1.602 . S
C1153 C441 1.605 . S
C1159 C475 1.602 . S
C1173 C543 1.607 . S
C1179 C509 1.605 . S
C1193 C73 1.474 . S
C1199 C5 1.471 . S
C1213 C107 1.475 . S
C1219 C39 1.470 . S
C1233 C141 1.469 . S
C1239 C209 1.479 . S
C1253 C243 1.476 . S
C1259 C175 1.470 . S
C1273 C277 1.479 . S
C1279 C345 1.468 . S
C1293 C379 1.472 . S
C1299 C311 1.477 . S
C1313 C413 1.475 . S
C1319 C481 1.470 . S
C1333 C515 1.473 . S
C1339 C447 1.476 . S
