# Generated by pormake.
# Topology uka, (4)-cn, num edge types: 1
# Building blocks:
#     Node 0, Type 0, BuildingBlock: CEKHIL_clean_sbu_0, # of connection points: 4
#     Node 1, Type 0, BuildingBlock: CEKHIL_clean_sbu_0, # of connection points: 4
#     Node 2, Type 0, BuildingBlock: CEKHIL_clean_sbu_0, # of connection points: 4
#     Node 3, Type 0, BuildingBlock: CEKHIL_clean_sbu_0, # of connection points: 4
#     Node 4, Type 0, BuildingBlock: CEKHIL_clean_sbu_0, # of connection points: 4
#     Node 5, Type 0, BuildingBlock: CEKHIL_clean_sbu_0, # of connection points: 4
#     Node 6, Type 0, BuildingBlock: CEKHIL_clean_sbu_0, # of connection points: 4
#     Node 7, Type 0, BuildingBlock: CEKHIL_clean_sbu_0, # of connection points: 4
#     Node 8, Type 0, BuildingBlock: CEKHIL_clean_sbu_0, # of connection points: 4
#     Node 9, Type 0, BuildingBlock: CEKHIL_clean_sbu_0, # of connection points: 4
#     Node 10, Type 0, BuildingBlock: CEKHIL_clean_sbu_0, # of connection points: 4
#     Node 11, Type 0, BuildingBlock: CEKHIL_clean_sbu_0, # of connection points: 4
#     Node 12, Type 0, BuildingBlock: CEKHIL_clean_sbu_0, # of connection points: 4
#     Node 13, Type 0, BuildingBlock: CEKHIL_clean_sbu_0, # of connection points: 4
#     Node 14, Type 0, BuildingBlock: CEKHIL_clean_sbu_0, # of connection points: 4
#     Node 15, Type 0, BuildingBlock: CEKHIL_clean_sbu_0, # of connection points: 4
#     Node 16, Type 0, BuildingBlock: CEKHIL_clean_sbu_0, # of connection points: 4
#     Node 17, Type 0, BuildingBlock: CEKHIL_clean_sbu_0, # of connection points: 4
#     Node 18, Type 0, BuildingBlock: CEKHIL_clean_sbu_0, # of connection points: 4
#     Node 19, Type 0, BuildingBlock: CEKHIL_clean_sbu_0, # of connection points: 4
#     Node 20, Type 0, BuildingBlock: CEKHIL_clean_sbu_0, # of connection points: 4
#     Node 21, Type 0, BuildingBlock: CEKHIL_clean_sbu_0, # of connection points: 4
#     Node 22, Type 0, BuildingBlock: CEKHIL_clean_sbu_0, # of connection points: 4
#     Node 23, Type 0, BuildingBlock: CEKHIL_clean_sbu_0, # of connection points: 4
#     Node 24, Type 0, BuildingBlock: CEKHIL_clean_sbu_0, # of connection points: 4
#     Node 25, Type 0, BuildingBlock: CEKHIL_clean_sbu_0, # of connection points: 4
#     Node 26, Type 0, BuildingBlock: CEKHIL_clean_sbu_0, # of connection points: 4
#     Node 27, Type 0, BuildingBlock: CEKHIL_clean_sbu_0, # of connection points: 4
#     Node 28, Type 0, BuildingBlock: CEKHIL_clean_sbu_0, # of connection points: 4
#     Node 29, Type 0, BuildingBlock: CEKHIL_clean_sbu_0, # of connection points: 4
#     Node 30, Type 0, BuildingBlock: CEKHIL_clean_sbu_0, # of connection points: 4
#     Node 31, Type 0, BuildingBlock: CEKHIL_clean_sbu_0, # of connection points: 4
#     Edge 32, Type (0, 0), BuildingBlock: KIFKEQ_clean_linker_1, # of connection points: 2
#     Edge 33, Type (0, 0), BuildingBlock: KIFKEQ_clean_linker_1, # of connection points: 2
#     Edge 34, Type (0, 0), BuildingBlock: KIFKEQ_clean_linker_1, # of connection points: 2
#     Edge 35, Type (0, 0), BuildingBlock: KIFKEQ_clean_linker_1, # of connection points: 2
#     Edge 36, Type (0, 0), BuildingBlock: KIFKEQ_clean_linker_1, # of connection points: 2
#     Edge 37, Type (0, 0), BuildingBlock: KIFKEQ_clean_linker_1, # of connection points: 2
#     Edge 38, Type (0, 0), BuildingBlock: KIFKEQ_clean_linker_1, # of connection points: 2
#     Edge 39, Type (0, 0), BuildingBlock: KIFKEQ_clean_linker_1, # of connection points: 2
#     Edge 40, Type (0, 0), BuildingBlock: KIFKEQ_clean_linker_1, # of connection points: 2
#     Edge 41, Type (0, 0), BuildingBlock: KIFKEQ_clean_linker_1, # of connection points: 2
#     Edge 42, Type (0, 0), BuildingBlock: KIFKEQ_clean_linker_1, # of connection points: 2
#     Edge 43, Type (0, 0), BuildingBlock: KIFKEQ_clean_linker_1, # of connection points: 2
#     Edge 44, Type (0, 0), BuildingBlock: KIFKEQ_clean_linker_1, # of connection points: 2
#     Edge 45, Type (0, 0), BuildingBlock: KIFKEQ_clean_linker_1, # of connection points: 2
#     Edge 46, Type (0, 0), BuildingBlock: KIFKEQ_clean_linker_1, # of connection points: 2
#     Edge 47, Type (0, 0), BuildingBlock: KIFKEQ_clean_linker_1, # of connection points: 2
#     Edge 48, Type (0, 0), BuildingBlock: KIFKEQ_clean_linker_1, # of connection points: 2
#     Edge 49, Type (0, 0), BuildingBlock: KIFKEQ_clean_linker_1, # of connection points: 2
#     Edge 50, Type (0, 0), BuildingBlock: KIFKEQ_clean_linker_1, # of connection points: 2
#     Edge 51, Type (0, 0), BuildingBlock: KIFKEQ_clean_linker_1, # of connection points: 2
#     Edge 52, Type (0, 0), BuildingBlock: KIFKEQ_clean_linker_1, # of connection points: 2
#     Edge 53, Type (0, 0), BuildingBlock: KIFKEQ_clean_linker_1, # of connection points: 2
#     Edge 54, Type (0, 0), BuildingBlock: KIFKEQ_clean_linker_1, # of connection points: 2
#     Edge 55, Type (0, 0), BuildingBlock: KIFKEQ_clean_linker_1, # of connection points: 2
#     Edge 56, Type (0, 0), BuildingBlock: KIFKEQ_clean_linker_1, # of connection points: 2
#     Edge 57, Type (0, 0), BuildingBlock: KIFKEQ_clean_linker_1, # of connection points: 2
#     Edge 58, Type (0, 0), BuildingBlock: KIFKEQ_clean_linker_1, # of connection points: 2
#     Edge 59, Type (0, 0), BuildingBlock: KIFKEQ_clean_linker_1, # of connection points: 2
#     Edge 60, Type (0, 0), BuildingBlock: KIFKEQ_clean_linker_1, # of connection points: 2
#     Edge 61, Type (0, 0), BuildingBlock: KIFKEQ_clean_linker_1, # of connection points: 2
#     Edge 62, Type (0, 0), BuildingBlock: KIFKEQ_clean_linker_1, # of connection points: 2
#     Edge 63, Type (0, 0), BuildingBlock: KIFKEQ_clean_linker_1, # of connection points: 2
#     Edge 64, Type (0, 0), BuildingBlock: KIFKEQ_clean_linker_1, # of connection points: 2
#     Edge 65, Type (0, 0), BuildingBlock: KIFKEQ_clean_linker_1, # of connection points: 2
#     Edge 66, Type (0, 0), BuildingBlock: KIFKEQ_clean_linker_1, # of connection points: 2
#     Edge 67, Type (0, 0), BuildingBlock: KIFKEQ_clean_linker_1, # of connection points: 2
#     Edge 68, Type (0, 0), BuildingBlock: KIFKEQ_clean_linker_1, # of connection points: 2
#     Edge 69, Type (0, 0), BuildingBlock: KIFKEQ_clean_linker_1, # of connection points: 2
#     Edge 70, Type (0, 0), BuildingBlock: KIFKEQ_clean_linker_1, # of connection points: 2
#     Edge 71, Type (0, 0), BuildingBlock: KIFKEQ_clean_linker_1, # of connection points: 2
#     Edge 72, Type (0, 0), BuildingBlock: KIFKEQ_clean_linker_1, # of connection points: 2
#     Edge 73, Type (0, 0), BuildingBlock: KIFKEQ_clean_linker_1, # of connection points: 2
#     Edge 74, Type (0, 0), BuildingBlock: KIFKEQ_clean_linker_1, # of connection points: 2
#     Edge 75, Type (0, 0), BuildingBlock: KIFKEQ_clean_linker_1, # of connection points: 2
#     Edge 76, Type (0, 0), BuildingBlock: KIFKEQ_clean_linker_1, # of connection points: 2
#     Edge 77, Type (0, 0), BuildingBlock: KIFKEQ_clean_linker_1, # of connection points: 2
#     Edge 78, Type (0, 0), BuildingBlock: KIFKEQ_clean_linker_1, # of connection points: 2
#     Edge 79, Type (0, 0), BuildingBlock: KIFKEQ_clean_linker_1, # of connection points: 2
#     Edge 80, Type (0, 0), BuildingBlock: KIFKEQ_clean_linker_1, # of connection points: 2
#     Edge 81, Type (0, 0), BuildingBlock: KIFKEQ_clean_linker_1, # of connection points: 2
#     Edge 82, Type (0, 0), BuildingBlock: KIFKEQ_clean_linker_1, # of connection points: 2
#     Edge 83, Type (0, 0), BuildingBlock: KIFKEQ_clean_linker_1, # of connection points: 2
#     Edge 84, Type (0, 0), BuildingBlock: KIFKEQ_clean_linker_1, # of connection points: 2
#     Edge 85, Type (0, 0), BuildingBlock: KIFKEQ_clean_linker_1, # of connection points: 2
#     Edge 86, Type (0, 0), BuildingBlock: KIFKEQ_clean_linker_1, # of connection points: 2
#     Edge 87, Type (0, 0), BuildingBlock: KIFKEQ_clean_linker_1, # of connection points: 2
#     Edge 88, Type (0, 0), BuildingBlock: KIFKEQ_clean_linker_1, # of connection points: 2
#     Edge 89, Type (0, 0), BuildingBlock: KIFKEQ_clean_linker_1, # of connection points: 2
#     Edge 90, Type (0, 0), BuildingBlock: KIFKEQ_clean_linker_1, # of connection points: 2
#     Edge 91, Type (0, 0), BuildingBlock: KIFKEQ_clean_linker_1, # of connection points: 2
#     Edge 92, Type (0, 0), BuildingBlock: KIFKEQ_clean_linker_1, # of connection points: 2
#     Edge 93, Type (0, 0), BuildingBlock: KIFKEQ_clean_linker_1, # of connection points: 2
#     Edge 94, Type (0, 0), BuildingBlock: KIFKEQ_clean_linker_1, # of connection points: 2
#     Edge 95, Type (0, 0), BuildingBlock: KIFKEQ_clean_linker_1, # of connection points: 2
# Relax obj value: 0.116
# Max RMSD: 0.170
# Mean RMSD: 0.170
data_MOF--net-uka--node1-CEKHIL_clean_sbu_0--edge1-KIFKEQ_clean_linker_1
_symmetry_space_group_name_H-M    P1
_symmetry_Int_Tables_number       1
_symmetry_cell_setting            triclinic
loop_
_symmetry_equiv_pos_as_xyz
'x, y, z'
_cell_length_a     60.094138
_cell_length_b     60.09165
_cell_length_c     42.274283
_cell_angle_alpha  89.998569
_cell_angle_beta   89.984247
_cell_angle_gamma 90.0173
loop_
_atom_site_label
_atom_site_type_symbol
_atom_site_fract_x
_atom_site_fract_y
_atom_site_fract_z
_atom_type_partial_charge
Co0 Co 0.13003 0.2597 0.26602 0.0
O1 O 0.15461 0.2447 0.24634 0.0
O2 O 0.1563 0.27804 0.26875 0.0
C3 C 0.1179 0.23093 0.29551 0.0
O4 O 0.10864 0.27976 0.28987 0.0
Co5 Co 0.08149 0.2435 0.25381 0.0
O6 O 0.07392 0.26574 0.28681 0.0
C7 C 0.10522 0.26918 0.20488 0.0
C8 C 0.16657 0.26161 0.25504 0.0
C9 C 0.08787 0.27994 0.29728 0.0
O10 O 0.12102 0.27375 0.2244 0.0
O11 O 0.08953 0.25542 0.21106 0.0
O12 O 0.13466 0.24286 0.30481 0.0
O13 O 0.11096 0.23495 0.26717 0.0
Co14 Co 0.98317 0.87743 0.50927 0.0
O15 O 0.99563 0.89863 0.47993 0.0
O16 O 0.96957 0.90603 0.51553 0.0
C17 C 0.01611 0.86301 0.52458 0.0
O18 O 0.96716 0.86107 0.54496 0.0
Co19 Co 0.98897 0.8263 0.50319 0.0
O20 O 0.98067 0.82634 0.54843 0.0
C21 C 0.95393 0.84943 0.46623 0.0
C22 C 0.98308 0.91327 0.49386 0.0
C23 C 0.96947 0.84247 0.55968 0.0
O24 O 0.95933 0.86845 0.47799 0.0
O25 O 0.96408 0.83125 0.4726 0.0
O26 O 0.00898 0.88157 0.53658 0.0
O27 O 0.00408 0.85469 0.50218 0.0
Co28 Co 0.36313 0.73551 0.76035 0.0
O29 O 0.34046 0.74516 0.73126 0.0
O30 O 0.33807 0.71587 0.76301 0.0
C31 C 0.36965 0.76928 0.78191 0.0
O32 O 0.38164 0.72087 0.79468 0.0
Co33 Co 0.4118 0.75275 0.76024 0.0
O34 O 0.41182 0.74177 0.80451 0.0
C35 C 0.39852 0.71498 0.71855 0.0
C36 C 0.32839 0.72929 0.74324 0.0
C37 C 0.39834 0.72631 0.81196 0.0
O38 O 0.37803 0.71627 0.72734 0.0
O39 O 0.41386 0.72805 0.72842 0.0
O40 O 0.35272 0.75742 0.79074 0.0
O41 O 0.38087 0.76139 0.75832 0.0
Co42 Co 0.50407 0.11033 0.01296 0.0
O43 O 0.49383 0.08543 0.98843 0.0
O44 O 0.52183 0.08457 0.02259 0.0
C45 C 0.47034 0.12164 0.02987 0.0
O46 O 0.5187 0.13179 0.04363 0.0
Co47 Co 0.49034 0.15901 0.99727 0.0
O48 O 0.50304 0.16563 0.03968 0.0
C49 C 0.52444 0.13621 0.95866 0.0
C50 C 0.50878 0.07387 0.00336 0.0
C51 C 0.51596 0.15186 0.05344 0.0
O52 O 0.52516 0.11983 0.97825 0.0
O53 O 0.51036 0.15215 0.96051 0.0
O54 O 0.48042 0.10519 0.04366 0.0
O55 O 0.47982 0.12907 0.00456 0.0
Co56 Co 0.1351 0.74734 0.23725 0.0
O57 O 0.1593 0.75915 0.26191 0.0
O58 O 0.15951 0.7267 0.2369 0.0
C59 C 0.1283 0.77829 0.20865 0.0
O60 O 0.11445 0.7301 0.20821 0.0
Co61 Co 0.08724 0.76688 0.24016 0.0
O62 O 0.08294 0.74951 0.20067 0.0
C63 C 0.10266 0.73564 0.29004 0.0
C64 C 0.17032 0.74164 0.25297 0.0
C65 C 0.09594 0.73347 0.19375 0.0
O66 O 0.1213 0.73257 0.27558 0.0
O67 O 0.08803 0.74973 0.2808 0.0
O68 O 0.14459 0.76514 0.20125 0.0
O69 O 0.1184 0.77378 0.23503 0.0
Co70 Co 0.50794 0.88229 0.48674 0.0
O71 O 0.49765 0.90743 0.51073 0.0
O72 O 0.52484 0.90821 0.47522 0.0
C73 C 0.47431 0.86955 0.47158 0.0
O74 O 0.52239 0.86063 0.45631 0.0
Co75 Co 0.49616 0.83363 0.5054 0.0
O76 O 0.5077 0.82651 0.46247 0.0
C77 C 0.53058 0.85822 0.54097 0.0
C78 C 0.51204 0.91899 0.49467 0.0
C79 C 0.51984 0.84034 0.44745 0.0
O80 O 0.53016 0.87416 0.52067 0.0
O81 O 0.51699 0.8418 0.54069 0.0
O82 O 0.48354 0.88617 0.457 0.0
O83 O 0.48442 0.86298 0.49691 0.0
Co84 Co 0.36711 0.26196 0.73566 0.0
O85 O 0.34693 0.24945 0.76623 0.0
O86 O 0.33929 0.27758 0.73404 0.0
C87 C 0.37837 0.22909 0.7156 0.0
O88 O 0.38241 0.2786 0.69982 0.0
Co89 Co 0.41786 0.25286 0.73463 0.0
O90 O 0.41536 0.26246 0.68991 0.0
C91 C 0.39932 0.28769 0.77712 0.0
C92 C 0.33241 0.26345 0.75517 0.0
C93 C 0.39945 0.27526 0.6821 0.0
O94 O 0.37938 0.2837 0.76754 0.0
O95 O 0.41641 0.27685 0.76759 0.0
O96 O 0.35971 0.23796 0.70664 0.0
O97 O 0.38872 0.23939 0.73806 0.0
Co98 Co 0.98636 0.11791 0.98386 0.0
O99 O 0.00082 0.09342 0.00464 0.0
O100 O 0.96938 0.09118 0.9773 0.0
C101 C 0.01664 0.13191 0.95975 0.0
O102 O 0.96728 0.13892 0.95774 0.0
Co103 Co -0.00137 0.16687 0.00036 0.0
O104 O 0.97949 0.17411 0.96355 0.0
C105 C 0.97195 0.14023 0.0448 0.0
C106 C 0.98501 0.08114 0.99305 0.0
C107 C 0.96694 0.1597 0.95044 0.0
O108 O 0.96908 0.12514 0.0236 0.0
O109 O 0.98508 0.15682 0.04125 0.0
O110 O 0.00633 0.11485 0.94791 0.0
O111 O 0.00998 0.13816 0.98743 0.0
Co112 Co 0.86987 0.73993 0.74752 0.0
O113 O 0.84838 0.75128 0.77723 0.0
O114 O 0.84294 0.72281 0.74478 0.0
C115 C 0.87984 0.77337 0.72764 0.0
O116 O 0.88678 0.72417 0.71238 0.0
Co117 Co 0.92009 0.75222 0.74815 0.0
O118 O 0.9191 0.74192 0.70359 0.0
C119 C 0.90302 0.71564 0.78908 0.0
C120 C 0.83484 0.73654 0.76553 0.0
C121 C 0.90405 0.72819 0.69541 0.0
O122 O 0.88285 0.71873 0.77979 0.0
O123 O 0.91957 0.7274 0.77984 0.0
O124 O 0.86182 0.76356 0.71803 0.0
O125 O 0.89012 0.76368 0.75066 0.0
Co126 Co 0.00687 0.11437 0.49254 0.0
O127 O 0.99663 0.08876 0.51546 0.0
O128 O 0.02485 0.08889 0.48165 0.0
C129 C 0.97329 0.12595 0.4754 0.0
O130 O 0.02145 0.13712 0.46359 0.0
Co131 Co 0.99226 0.16197 0.51313 0.0
O132 O 0.00753 0.17119 0.47359 0.0
C133 C 0.0263 0.13797 0.54976 0.0
C134 C 0.01171 0.07765 0.50017 0.0
C135 C 0.01983 0.15806 0.45757 0.0
O136 O 0.02767 0.12292 0.52817 0.0
O137 O 0.0116 0.15337 0.5498 0.0
O138 O 0.98365 0.10991 0.46107 0.0
O139 O 0.98225 0.13255 0.50155 0.0
Co140 Co 0.62944 0.25725 0.23004 0.0
O141 O 0.65258 0.2441 0.25559 0.0
O142 O 0.65712 0.27222 0.22223 0.0
C143 C 0.61497 0.22518 0.21142 0.0
O144 O 0.61078 0.27448 0.19821 0.0
Co145 Co 0.57897 0.24924 0.24099 0.0
O146 O 0.57635 0.26004 0.19691 0.0
C147 C 0.60299 0.28273 0.27962 0.0
C148 C 0.66598 0.25792 0.2415 0.0
C149 C 0.59157 0.27224 0.18516 0.0
O150 O 0.6214 0.27885 0.265 0.0
O151 O 0.58483 0.27229 0.27413 0.0
O152 O 0.63291 0.23353 0.19911 0.0
O153 O 0.60773 0.23512 0.23653 0.0
Co154 Co 0.48838 0.8729 0.98353 0.0
O155 O 0.50532 0.89457 0.00666 0.0
O156 O 0.47146 0.89999 0.98732 0.0
C157 C 0.51578 0.86233 0.95053 0.0
O158 O 0.46657 0.85522 0.95675 0.0
Co159 Co 0.50177 0.82283 0.98523 0.0
O160 O 0.47883 0.81994 0.9518 0.0
C161 C 0.4787 0.84281 0.03981 0.0
C162 C 0.48883 0.90808 0.00165 0.0
C163 C 0.4653 0.83554 0.94495 0.0
O164 O 0.47502 0.86075 0.02398 0.0
O165 O 0.49087 0.82687 0.02959 0.0
O166 O 0.50453 0.88035 0.945 0.0
O167 O 0.51189 0.85286 0.9774 0.0
Co168 Co 0.86402 0.2587 0.75555 0.0
O169 O 0.84011 0.2468 0.73035 0.0
O170 O 0.83893 0.27843 0.75731 0.0
C171 C 0.87207 0.2272 0.78211 0.0
O172 O 0.88413 0.27579 0.78569 0.0
Co173 Co 0.91265 0.24144 0.75134 0.0
O174 O 0.91555 0.25624 0.79302 0.0
C175 C 0.89653 0.2752 0.70555 0.0
C176 C 0.82855 0.26365 0.74041 0.0
C177 C 0.90229 0.27184 0.80077 0.0
O178 O 0.87699 0.27512 0.71808 0.0
O179 O 0.9125 0.26269 0.71481 0.0
O180 O 0.85532 0.2395 0.79034 0.0
O181 O 0.88179 0.23286 0.75598 0.0
Co182 Co 0.48999 0.11977 0.50975 0.0
O183 O 0.50491 0.09854 0.48306 0.0
O184 O 0.47438 0.09189 0.51102 0.0
C185 C 0.52055 0.13247 0.53476 0.0
O186 O 0.47068 0.13641 0.54141 0.0
Co187 Co 0.49944 0.17068 0.50565 0.0
O188 O 0.48207 0.17204 0.54531 0.0
C189 C 0.46797 0.1497 0.46073 0.0
C190 C 0.49001 0.08438 0.49264 0.0
C191 C 0.47018 0.15573 0.55442 0.0
O192 O 0.47084 0.13044 0.47343 0.0
O193 O 0.47838 0.16726 0.46938 0.0
O194 O 0.51136 0.11387 0.54332 0.0
O195 O 0.51255 0.14142 0.5094 0.0
Co196 Co 0.62838 0.73947 0.25652 0.0
O197 O 0.65206 0.7548 0.23526 0.0
O198 O 0.6557 0.72301 0.2614 0.0
C199 C 0.61428 0.76931 0.28163 0.0
O200 O 0.60812 0.71968 0.28295 0.0
Co201 Co 0.57889 0.75105 0.24214 0.0
O202 O 0.57374 0.73453 0.28214 0.0
C203 C 0.60499 0.72465 0.19658 0.0
C204 C 0.66501 0.73916 0.24573 0.0
C205 C 0.58805 0.72105 0.29347 0.0
O206 O 0.62081 0.72245 0.2168 0.0
O207 O 0.58797 0.73707 0.20107 0.0
O208 O 0.63167 0.75918 0.29276 0.0
O209 O 0.60766 0.76269 0.25411 0.0
Co210 Co 0.00761 0.87913 0.00549 0.0
O211 O 0.99099 0.90178 0.984 0.0
O212 O 0.02401 0.9067 0.00637 0.0
C213 C 0.97928 0.86603 0.03482 0.0
O214 O 0.0289 0.86017 0.03137 0.0
Co215 Co 0.99552 0.82915 0.99632 0.0
O216 O 0.0172 0.82455 0.03109 0.0
C217 C 0.01965 0.85325 0.94625 0.0
C218 C 0.00695 0.91525 0.99181 0.0
C219 C 0.03022 0.83986 0.04081 0.0
O220 O 0.02265 0.86994 0.96481 0.0
O221 O 0.00737 0.83654 0.95327 0.0
O222 O 0.98994 0.88382 0.04345 0.0
O223 O 0.98439 0.85833 0.00723 0.0
Co224 Co 0.63303 0.75671 0.74845 0.0
O225 O 0.65936 0.74496 0.72863 0.0
O226 O 0.65867 0.77311 0.76256 0.0
C227 C 0.61845 0.72382 0.76355 0.0
O228 O 0.60985 0.77271 0.77497 0.0
Co229 Co 0.58573 0.74577 0.72272 0.0
O230 O 0.57525 0.76356 0.75942 0.0
C231 C 0.61435 0.77741 0.68869 0.0
C232 C 0.67029 0.75936 0.74554 0.0
C233 C 0.58857 0.77391 0.77768 0.0
O234 O 0.62791 0.77812 0.71224 0.0
O235 O 0.59824 0.76356 0.68674 0.0
O236 O 0.63423 0.73305 0.77985 0.0
O237 O 0.61367 0.73343 0.73706 0.0
Co238 Co 0.4893 0.38365 0.00858 0.0
O239 O 0.50121 0.40831 0.98511 0.0
O240 O 0.47258 0.41012 0.01816 0.0
C241 C 0.52203 0.37058 0.0268 0.0
O242 O 0.473 0.36241 0.0381 0.0
Co243 Co 0.50136 0.33454 0.99188 0.0
O244 O 0.48573 0.32747 0.03176 0.0
C245 C 0.46648 0.35817 0.95555 0.0
C246 C 0.48647 0.42039 -0.00036 0.0
C247 C 0.47362 0.34172 0.04593 0.0
O248 O 0.46852 0.37576 0.97266 0.0
O249 O 0.47856 0.34078 0.95863 0.0
O250 O 0.51238 0.38737 0.04038 0.0
O251 O 0.51295 0.36387 0.00079 0.0
Co252 Co 0.86629 0.2303 0.26422 0.0
O253 O 0.8452 0.24122 0.23372 0.0
O254 O 0.83814 0.21553 0.27001 0.0
C255 C 0.87897 0.2641 0.27892 0.0
O256 O 0.88277 0.21582 0.30103 0.0
Co257 Co 0.91721 0.23852 0.25943 0.0
O258 O 0.91675 0.23105 0.30501 0.0
C259 C 0.89634 0.20195 0.22276 0.0
C260 C 0.83079 0.22838 0.24761 0.0
C261 C 0.90098 0.21934 0.31626 0.0
O262 O 0.87693 0.20632 0.23414 0.0
O263 O 0.91386 0.2132 0.22911 0.0
O264 O 0.86051 0.25636 0.29046 0.0
O265 O 0.88813 0.25212 0.25715 0.0
Co266 Co 0.00529 0.6224 0.50556 0.0
O267 O 0.99038 0.60057 0.47996 0.0
O268 O 0.02014 0.59413 0.50957 0.0
C269 C 0.97415 0.63629 0.52804 0.0
O270 O 0.02424 0.63987 0.53673 0.0
Co271 Co 0.99667 0.67322 0.49753 0.0
O272 O 0.01111 0.67484 0.53963 0.0
C273 C 0.02566 0.64943 0.45225 0.0
C274 C 0.00445 0.58632 0.49154 0.0
C275 C 0.02334 0.65912 0.54994 0.0
O276 O 0.02528 0.63161 0.46919 0.0
O277 O 0.01398 0.66674 0.45817 0.0
O278 O 0.98297 0.61802 0.53854 0.0
O279 O 0.98312 0.64434 0.50275 0.0
Co280 Co 0.62662 0.24065 0.74692 0.0
O281 O 0.65026 0.25464 0.77009 0.0
O282 O 0.65405 0.22478 0.73975 0.0
C283 C 0.61254 0.27201 0.72565 0.0
O284 O 0.60662 0.22262 0.71786 0.0
Co285 Co 0.57702 0.2511 0.76218 0.0
O286 O 0.57204 0.23686 0.72036 0.0
C287 C 0.60241 0.22081 0.80348 0.0
C288 C 0.66333 0.24011 0.75699 0.0
C289 C 0.58655 0.22426 0.70755 0.0
O290 O 0.61881 0.22076 0.78389 0.0
O291 O 0.5853 0.23334 0.80059 0.0
O292 O 0.63003 0.26267 0.71355 0.0
O293 O 0.60577 0.26364 0.75214 0.0
Co294 Co 0.00548 0.37655 0.98746 0.0
O295 O 0.9933 0.39911 0.01457 0.0
O296 O 0.02394 0.40277 0.98583 0.0
C297 C 0.97313 0.36754 0.96363 0.0
O298 O 0.02227 0.35786 0.95521 0.0
Co299 Co 0.99006 0.32712 0.99088 0.0
O300 O 0.00447 0.32529 0.9487 0.0
C301 C 0.02148 0.34499 0.03868 0.0
C302 C 0.00926 0.41181 0.00442 0.0
C303 C 0.01894 0.33957 0.94009 0.0
O304 O 0.02361 0.36342 0.02334 0.0
O305 O 0.00766 0.32971 0.03089 0.0
O306 O 0.98431 0.38486 0.95441 0.0
O307 O 0.98069 0.35774 0.98855 0.0
Co308 Co 0.86828 0.7527 0.23613 0.0
O309 O 0.84357 0.74091 0.25974 0.0
O310 O 0.84201 0.76979 0.22713 0.0
C311 C 0.88124 0.72023 0.21689 0.0
O312 O 0.88954 0.76892 0.20654 0.0
Co313 Co 0.91724 0.74037 0.25295 0.0
O314 O 0.92434 0.7558 0.21293 0.0
C315 C 0.89421 0.77589 0.28865 0.0
C316 C 0.83165 0.75598 0.24565 0.0
C317 C 0.91021 0.768 0.19868 0.0
O318 O 0.87644 0.77339 0.27204 0.0
O319 O 0.91162 0.76383 0.28551 0.0
O320 O 0.8642 0.72992 0.20405 0.0
O321 O 0.88798 0.72886 0.24325 0.0
Co322 Co 0.49347 0.61365 0.49201 0.0
O323 O 0.50897 0.59038 0.51388 0.0
O324 O 0.47627 0.58656 0.49024 0.0
C325 C 0.52289 0.62578 0.46367 0.0
O326 O 0.47325 0.6333 0.46549 0.0
Co327 Co 0.50712 0.66332 0.50069 0.0
O328 O 0.48927 0.66703 0.46156 0.0
C329 C 0.48074 0.64063 0.55011 0.0
C330 C 0.49291 0.57737 0.50496 0.0
C331 C 0.47483 0.65273 0.45293 0.0
O332 O 0.478 0.62348 0.53223 0.0
O333 O 0.49335 0.65705 0.54289 0.0
O334 O 0.5118 0.60837 0.45465 0.0
O335 O 0.51739 0.63368 0.49099 0.0
Co336 Co 0.36648 0.23833 0.23189 0.0
O337 O 0.34607 0.25188 0.26112 0.0
O338 O 0.33887 0.22207 0.23196 0.0
C339 C 0.37709 0.27015 0.20813 0.0
O340 O 0.38243 0.2205 0.1977 0.0
Co341 Co 0.41702 0.24912 0.23128 0.0
O342 O 0.41517 0.23707 0.18776 0.0
C343 C 0.39921 0.21563 0.27629 0.0
C344 C 0.33178 0.2371 0.25165 0.0
C345 C 0.3998 0.22343 0.18039 0.0
O346 O 0.37924 0.21854 0.26603 0.0
O347 O 0.41605 0.22659 0.26618 0.0
O348 O 0.3586 0.26047 0.20025 0.0
O349 O 0.38739 0.26158 0.23203 0.0
Co350 Co 0.51431 0.61994 0.97937 0.0
O351 O 0.50257 0.59981 0.01073 0.0
O352 O 0.52801 0.59129 0.9747 0.0
C353 C 0.481 0.63372 0.96454 0.0
O354 O 0.52964 0.63491 0.942 0.0
Co355 Co 0.50847 0.67117 0.98016 0.0
O356 O 0.51473 0.66868 0.93429 0.0
C357 C 0.54434 0.64986 0.01803 0.0
C358 C 0.51501 0.58478 0.99744 0.0
C359 C 0.52622 0.65222 0.92483 0.0
O360 O 0.5387 0.63023 0.00883 0.0
O361 O 0.53413 0.66766 0.00993 0.0
O362 O 0.48792 0.61477 0.95353 0.0
O363 O 0.49358 0.64291 0.98556 0.0
Co364 Co 0.13001 0.75932 0.73149 0.0
O365 O 0.15046 0.74756 0.76211 0.0
O366 O 0.1577 0.7753 0.72906 0.0
C367 C 0.11937 0.72584 0.71257 0.0
O368 O 0.11412 0.77518 0.69549 0.0
Co369 Co 0.07948 0.74841 0.73037 0.0
O370 O 0.08206 0.7574 0.68538 0.0
C371 C 0.09692 0.78509 0.77101 0.0
C372 C 0.16488 0.76133 0.75021 0.0
C373 C 0.09734 0.77099 0.67764 0.0
O374 O 0.11722 0.78129 0.76281 0.0
O375 O 0.08026 0.77367 0.76129 0.0
O376 O 0.13772 0.735 0.70293 0.0
O377 O 0.10902 0.73631 0.73481 0.0
Co378 Co 0.98183 0.38661 0.47819 0.0
O379 O 0.99326 0.40964 0.50536 0.0
O380 O 0.96212 0.41178 0.47739 0.0
C381 C 0.01406 0.37959 0.4528 0.0
O382 O 0.96522 0.36744 0.44633 0.0
Co383 Co -0.00087 0.33793 0.47852 0.0
O384 O 0.98613 0.33743 0.4354 0.0
C385 C 0.9647 0.35221 0.52485 0.0
C386 C 0.97659 0.42156 0.49554 0.0
C387 C 0.97021 0.35062 0.42896 0.0
O388 O 0.96493 0.37231 0.51423 0.0
O389 O 0.97724 0.33666 0.51429 0.0
O390 O 0.00176 0.39637 0.44467 0.0
O391 O 0.00767 0.36894 0.47777 0.0
Co392 Co 0.37112 0.75443 0.26789 0.0
O393 O 0.34973 0.74329 0.23804 0.0
O394 O 0.3448 0.77266 0.26899 0.0
C395 C 0.37918 0.72107 0.28954 0.0
O396 O 0.3882 0.77005 0.30308 0.0
Co397 Co 0.42066 0.73954 0.26895 0.0
O398 O 0.4199 0.75148 0.31263 0.0
C399 C 0.40592 0.77539 0.22512 0.0
C400 C 0.3365 0.75864 0.24877 0.0
C401 C 0.40539 0.76596 0.32028 0.0
O402 O 0.38562 0.77415 0.23486 0.0
O403 O 0.42156 0.76269 0.23499 0.0
O404 O 0.36151 0.73189 0.29823 0.0
O405 O 0.39014 0.72974 0.26635 0.0
Co406 Co 0.99809 0.61522 0.01489 0.0
O407 O 0.01115 0.59055 0.99242 0.0
O408 O 0.98006 0.58915 0.02066 0.0
C409 C 0.02941 0.62728 0.03865 0.0
O410 O 0.98019 0.63605 0.04284 0.0
Co411 Co 0.01203 0.66442 0.00322 0.0
O412 O 0.99643 0.66971 0.04399 0.0
C413 C 0.9832 0.64115 0.95716 0.0
C414 C 0.99505 0.57871 0.00422 0.0
C415 C 0.98242 0.65564 0.05463 0.0
O416 O 0.9806 0.62458 0.97617 0.0
O417 O 0.99656 0.65732 0.96249 0.0
O418 O 0.01856 0.61038 0.05001 0.0
O419 O 0.02243 0.63458 0.01169 0.0
Co420 Co 0.13134 0.24147 0.75932 0.0
O421 O 0.15638 0.25278 0.73608 0.0
O422 O 0.15714 0.22364 0.76831 0.0
C423 C 0.11933 0.27423 0.77886 0.0
O424 O 0.10966 0.22571 0.78847 0.0
Co425 Co 0.08285 0.25517 0.74258 0.0
O426 O 0.07593 0.24163 0.78437 0.0
C427 C 0.10649 0.22245 0.70287 0.0
C428 C 0.16791 0.23748 0.7503 0.0
C429 C 0.08952 0.22842 0.79795 0.0
O430 O 0.12249 0.22142 0.72304 0.0
O431 O 0.0904 0.23635 0.70482 0.0
O432 O 0.13598 0.26394 0.79179 0.0
O433 O 0.11238 0.26585 0.75247 0.0
Co434 Co 0.50996 0.37515 0.50778 0.0
O435 O 0.50061 0.39899 0.48012 0.0
O436 O 0.52657 0.40152 0.51719 0.0
C437 C 0.47552 0.36374 0.52148 0.0
O438 O 0.5234 0.35595 0.54251 0.0
Co439 Co 0.49924 0.32526 0.49795 0.0
O440 O 0.50764 0.32215 0.54302 0.0
C441 C 0.53662 0.34599 0.4628 0.0
C442 C 0.51441 0.41137 0.49606 0.0
C443 C 0.51974 0.33704 0.55575 0.0
O444 O 0.53321 0.36489 0.47636 0.0
O445 O 0.52451 0.32877 0.46748 0.0
O446 O 0.48444 0.38105 0.53477 0.0
O447 O 0.4868 0.35501 0.49855 0.0
H448 H 0.03182 0.20144 0.44997 0.0
H449 H 0.03925 0.13637 0.40759 0.0
H450 H 0.05626 0.21717 0.40977 0.0
H451 H 0.06358 0.15241 0.36695 0.0
H452 H 0.08353 0.20248 0.28266 0.0
H453 H 0.05966 0.18329 0.32107 0.0
H454 H 0.0987 0.21055 0.39748 0.0
H455 H 0.12268 0.22939 0.35941 0.0
C456 C 0.03849 0.19052 0.43192 0.0
C457 C 0.03365 0.16763 0.43202 0.0
C458 C 0.05258 0.19953 0.40906 0.0
C459 C 0.06185 0.18594 0.38551 0.0
C460 C 0.05658 0.16318 0.38493 0.0
C461 C 0.04276 0.15404 0.4082 0.0
C462 C 0.08716 0.20409 0.30765 0.0
C463 C 0.10489 0.21746 0.31808 0.0
C464 C 0.07357 0.1931 0.32954 0.0
C465 C 0.07731 0.19566 0.36212 0.0
C466 C 0.09539 0.20852 0.37245 0.0
C467 C 0.10915 0.21919 0.35065 0.0
H468 H 0.05037 0.87906 0.56001 0.0
H469 H 0.02263 0.81817 0.52304 0.0
H470 H 0.0772 0.85768 0.59056 0.0
H471 H 0.0473 0.79671 0.55592 0.0
H472 H 0.0917 0.75832 0.61647 0.0
H473 H 0.07905 0.78163 0.57282 0.0
H474 H 0.07833 0.83855 0.63589 0.0
H475 H 0.09315 0.81551 0.67785 0.0
C476 C 0.04999 0.86106 0.55856 0.0
C477 C 0.03409 0.85026 0.53978 0.0
C478 C 0.06521 0.84871 0.57635 0.0
C479 C 0.06424 0.82526 0.57675 0.0
C480 C 0.04903 0.81462 0.55636 0.0
C481 C 0.03447 0.82699 0.53767 0.0
C482 C 0.08942 0.776 0.62036 0.0
C483 C 0.09328 0.78527 0.65022 0.0
C484 C 0.08186 0.78938 0.59556 0.0
C485 C 0.07697 0.81208 0.60065 0.0
C486 C 0.08207 0.82137 0.63043 0.0
C487 C 0.09044 0.80815 0.65477 0.0
H488 H 0.43981 0.79854 0.9429 0.0
H489 H 0.45131 0.86113 0.89551 0.0
H490 H 0.41273 0.78825 0.90244 0.0
H491 H 0.42449 0.85048 0.85419 0.0
H492 H 0.40689 0.79463 0.77264 0.0
H493 H 0.42691 0.81592 0.81291 0.0
H494 H 0.37422 0.80299 0.87978 0.0
H495 H 0.35407 0.7819 0.83969 0.0
C496 C 0.43631 0.81016 0.92394 0.0
C497 C 0.44752 0.83058 0.92219 0.0
C498 C 0.42076 0.80437 0.90096 0.0
C499 C 0.4165 0.81867 0.87541 0.0
C500 C 0.42745 0.83929 0.87383 0.0
C501 C 0.44265 0.84537 0.8974 0.0
C502 C 0.39928 0.79688 0.79565 0.0
C503 C 0.37914 0.78625 0.80322 0.0
C504 C 0.41068 0.80915 0.8186 0.0
C505 C 0.40214 0.81081 0.84941 0.0
C506 C 0.38116 0.80175 0.85619 0.0
C507 C 0.36967 0.7897 0.83322 0.0
H508 H 0.42681 0.23167 0.13014 0.0
H509 H 0.38099 0.18287 0.16757 0.0
H510 H 0.4376 0.20589 0.08863 0.0
H511 H 0.39174 0.15698 0.12557 0.0
H512 H 0.45096 0.1122 0.08662 0.0
H513 H 0.42758 0.13679 0.11809 0.0
H514 H 0.42642 0.18433 0.04146 0.0
H515 H 0.45001 0.15978 0.00999 0.0
C516 C 0.41875 0.21555 0.12915 0.0
C517 C 0.40336 0.20913 0.15243 0.0
C518 C 0.42476 0.20085 0.10514 0.0
C519 C 0.4156 0.17936 0.10397 0.0
C520 C 0.39919 0.17339 0.1261 0.0
C521 C 0.39299 0.18823 0.15004 0.0
C522 C 0.44531 0.12767 0.07621 0.0
C523 C 0.45269 0.13429 0.04613 0.0
C524 C 0.43177 0.14169 0.09416 0.0
C525 C 0.42541 0.16261 0.08236 0.0
C526 C 0.43136 0.16844 0.0513 0.0
C527 C 0.44484 0.15437 0.0333 0.0
H528 H 0.13938 0.78162 0.14637 0.0
H529 H 0.09349 0.80707 0.2163 0.0
H530 H 0.11794 0.79968 0.10467 0.0
H531 H 0.07219 0.82538 0.17436 0.0
H532 H 0.04869 0.86629 0.0865 0.0
H533 H 0.07543 0.85513 0.12744 0.0
H534 H 0.07722 0.78881 0.0883 0.0
H535 H 0.05037 0.79972 0.04795 0.0
C536 C 0.12503 0.7915 0.15293 0.0
C537 C 0.11793 0.79272 0.18456 0.0
C538 C 0.11275 0.80176 0.12904 0.0
C539 C 0.09337 0.81371 0.13638 0.0
C540 C 0.08715 0.81631 0.16818 0.0
C541 C 0.09929 0.80579 0.19211 0.0
C542 C 0.055 0.84941 0.08652 0.0
C543 C 0.04744 0.83383 0.06415 0.0
C544 C 0.07018 0.84305 0.10994 0.0
C545 C 0.0784 0.82118 0.1108 0.0
C546 C 0.0713 0.80584 0.08789 0.0
C547 C 0.05584 0.81204 0.06497 0.0
H548 H 0.38514 0.80512 0.33684 0.0
H549 H 0.43544 0.75843 0.36748 0.0
H550 H 0.39607 0.83052 0.37918 0.0
H551 H 0.44643 0.78387 0.40937 0.0
H552 H 0.4526 0.8786 0.41657 0.0
H553 H 0.43056 0.8529 0.38502 0.0
H554 H 0.43569 0.80344 0.4588 0.0
H555 H 0.45786 0.82921 0.49048 0.0
C556 C 0.39825 0.8001 0.35289 0.0
C557 C 0.40969 0.77992 0.34846 0.0
C558 C 0.40454 0.81468 0.37706 0.0
C559 C 0.42219 0.80925 0.39743 0.0
C560 C 0.43263 0.78846 0.39424 0.0
C561 C 0.42648 0.77397 0.36999 0.0
C562 C 0.44862 0.86243 0.4264 0.0
C563 C 0.45733 0.85575 0.45572 0.0
C564 C 0.43586 0.84774 0.40838 0.0
C565 C 0.43163 0.82606 0.4193 0.0
C566 C 0.43898 0.81995 0.44964 0.0
C567 C 0.45162 0.83472 0.46778 0.0
H568 H 0.42069 0.21314 0.72179 0.0
H569 H 0.36059 0.20547 0.66677 0.0
H570 H 0.44063 0.1896 0.68444 0.0
H571 H 0.38041 0.18139 0.62987 0.0
H572 H 0.43344 0.18069 0.54898 0.0
H573 H 0.40859 0.19266 0.59123 0.0
H574 H 0.44584 0.15304 0.65821 0.0
H575 H 0.47079 0.14106 0.61533 0.0
C576 C 0.41161 0.20599 0.70214 0.0
C577 C 0.38923 0.21156 0.69674 0.0
C578 C 0.423 0.19233 0.68088 0.0
C579 C 0.41214 0.18391 0.65398 0.0
C580 C 0.38929 0.188 0.65009 0.0
C581 C 0.37794 0.20175 0.67123 0.0
C582 C 0.43594 0.17424 0.57265 0.0
C583 C 0.4538 0.16005 0.5792 0.0
C584 C 0.42168 0.18091 0.5968 0.0
C585 C 0.42523 0.17374 0.62805 0.0
C586 C 0.44275 0.15884 0.63435 0.0
C587 C 0.4569 0.15192 0.60996 0.0
H588 H 0.05365 0.23667 0.83586 0.0
H589 H 0.10749 0.19006 0.82124 0.0
H590 H 0.03934 0.2134 0.87865 0.0
H591 H 0.09301 0.1668 0.86394 0.0
H592 H 0.03607 0.1202 0.90419 0.0
H593 H 0.05658 0.14423 0.86793 0.0
H594 H 0.05086 0.19869 0.93404 0.0
H595 H 0.03062 0.17455 0.97068 0.0
C596 C 0.06248 0.22154 0.84188 0.0
C597 C 0.08158 0.21509 0.82502 0.0
C598 C 0.05441 0.20835 0.86653 0.0
C599 C 0.06511 0.18835 0.87448 0.0
C600 C 0.08445 0.18212 0.85812 0.0
C601 C 0.09272 0.19546 0.83377 0.0
C602 C 0.03952 0.13719 0.91122 0.0
C603 C 0.03157 0.14558 0.94009 0.0
C604 C 0.05132 0.1509 0.89054 0.0
C605 C 0.05513 0.1733 0.89818 0.0
C606 C 0.04794 0.18149 0.92756 0.0
C607 C 0.03644 0.16767 0.94851 0.0
H608 H 0.93046 0.86172 0.579 0.0
H609 H 0.98059 0.81415 0.60708 0.0
H610 H 0.90757 0.85074 0.62444 0.0
H611 H 0.95793 0.80333 0.65221 0.0
H612 H 0.91928 0.79401 0.73976 0.0
H613 H 0.94109 0.81663 0.70323 0.0
H614 H 0.88749 0.81408 0.63532 0.0
H615 H 0.8656 0.79147 0.67186 0.0
C616 C 0.93679 0.84931 0.59525 0.0
C617 C 0.95718 0.83861 0.58939 0.0
C618 C 0.92367 0.84297 0.6211 0.0
C619 C 0.93097 0.82618 0.64177 0.0
C620 C 0.95196 0.81649 0.63688 0.0
C621 C 0.96486 0.82255 0.61089 0.0
C622 C 0.91195 0.79866 0.71731 0.0
C623 C 0.89091 0.79062 0.70839 0.0
C624 C 0.92445 0.81159 0.69642 0.0
C625 C 0.91608 0.81686 0.66634 0.0
C626 C 0.89431 0.81037 0.65844 0.0
C627 C 0.88183 0.79731 0.6793 0.0
H628 H 0.95091 0.11408 0.42221 0.0
H629 H 0.95608 0.16658 0.49164 0.0
H630 H 0.92732 0.13767 0.38963 0.0
H631 H 0.93242 0.19029 0.45885 0.0
H632 H 0.93089 0.23021 0.36206 0.0
H633 H 0.94232 0.20755 0.40684 0.0
H634 H 0.89181 0.15908 0.38362 0.0
H635 H 0.88035 0.1818 0.33846 0.0
C636 C 0.94659 0.1305 0.43084 0.0
C637 C 0.95568 0.13866 0.45916 0.0
C638 C 0.93292 0.14396 0.41228 0.0
C639 C 0.92819 0.16589 0.42158 0.0
C640 C 0.936 0.17351 0.451 0.0
C641 C 0.94952 0.15994 0.46975 0.0
C642 C 0.92192 0.21493 0.36682 0.0
C643 C 0.90499 0.20759 0.34642 0.0
C644 C 0.92833 0.20205 0.39269 0.0
C645 C 0.91805 0.18147 0.39858 0.0
C646 C 0.90012 0.1748 0.37944 0.0
C647 C 0.89353 0.18784 0.35368 0.0
H648 H 0.55307 0.13242 0.07852 0.0
H649 H 0.50912 0.18882 0.08998 0.0
H650 H 0.57681 0.14673 0.12072 0.0
H651 H 0.5329 0.20298 0.13228 0.0
H652 H 0.57195 0.21287 0.22352 0.0
H653 H 0.547 0.1925 0.18824 0.0
H654 H 0.60127 0.18185 0.12307 0.0
H655 H 0.62614 0.20256 0.15792 0.0
C656 C 0.54831 0.14771 0.09028 0.0
C657 C 0.52929 0.15959 0.08072 0.0
C658 C 0.56195 0.1559 0.11435 0.0
C659 C 0.55667 0.17592 0.12967 0.0
C660 C 0.53722 0.18737 0.12101 0.0
C661 C 0.52373 0.17936 0.09664 0.0
C662 C 0.57863 0.20595 0.20187 0.0
C663 C 0.60092 0.20962 0.19322 0.0
C664 C 0.56433 0.19436 0.18169 0.0
C665 C 0.5722 0.18581 0.15288 0.0
C666 C 0.59481 0.18821 0.14523 0.0
C667 C 0.60902 0.20011 0.16513 0.0
H668 H 0.51747 0.87303 0.88796 0.0
H669 H 0.54348 0.8267 0.95682 0.0
H670 H 0.53646 0.85271 0.84584 0.0
H671 H 0.56261 0.80648 0.91459 0.0
H672 H 0.60941 0.78941 0.83084 0.0
H673 H 0.59344 0.81239 0.87284 0.0
H674 H 0.53059 0.81346 0.82344 0.0
H675 H 0.54637 0.79044 0.78156 0.0
C676 C 0.52747 0.85868 0.89414 0.0
C677 C 0.52895 0.85136 0.92562 0.0
C678 C 0.53822 0.84702 0.87002 0.0
C679 C 0.55087 0.82801 0.87702 0.0
C680 C 0.55305 0.82117 0.90864 0.0
C681 C 0.54205 0.83267 0.93273 0.0
C682 C 0.5922 0.79461 0.82889 0.0
C683 C 0.57912 0.78805 0.80294 0.0
C684 C 0.58308 0.80767 0.85297 0.0
C685 C 0.56084 0.8147 0.85126 0.0
C686 C 0.54785 0.80842 0.82514 0.0
C687 C 0.55685 0.79511 0.80132 0.0
H688 H 0.86124 0.22216 0.84416 0.0
H689 H 0.9078 0.19969 0.77305 0.0
H690 H 0.88297 0.20346 0.8849 0.0
H691 H 0.92938 0.18061 0.81412 0.0
H692 H 0.94956 0.13552 0.90149 0.0
H693 H 0.92465 0.14883 0.85957 0.0
H694 H 0.92428 0.21414 0.90204 0.0
H695 H 0.94935 0.20112 0.94347 0.0
C696 C 0.87583 0.21282 0.8371 0.0
C697 C 0.88296 0.21255 0.80544 0.0
C698 C 0.88828 0.20221 0.86047 0.0
C699 C 0.90786 0.19082 0.85256 0.0
C700 C 0.91426 0.18927 0.82069 0.0
C701 C 0.90196 0.20019 0.79728 0.0
C702 C 0.94404 0.15268 0.90192 0.0
C703 C 0.95136 0.1673 0.92573 0.0
C704 C 0.92992 0.16026 0.87792 0.0
C705 C 0.92254 0.18241 0.87784 0.0
C706 C 0.92961 0.19691 0.90184 0.0
C707 C 0.94403 0.18949 0.9254 0.0
H708 H 0.60582 0.18613 0.68505 0.0
H709 H 0.55214 0.23236 0.66735 0.0
H710 H 0.59348 0.16345 0.6402 0.0
H711 H 0.54002 0.20981 0.62266 0.0
H712 H 0.53539 0.17517 0.5284 0.0
H713 H 0.5544 0.19755 0.56827 0.0
H714 H 0.55782 0.1404 0.62996 0.0
H715 H 0.53857 0.118 0.59028 0.0
C716 C 0.59153 0.19153 0.67146 0.0
C717 C 0.57983 0.21091 0.67984 0.0
C718 C 0.58447 0.17854 0.64591 0.0
C719 C 0.56588 0.18497 0.628 0.0
C720 C 0.55456 0.20463 0.63589 0.0
C721 C 0.56137 0.2174 0.66165 0.0
C722 C 0.54045 0.16728 0.55027 0.0
C723 C 0.53519 0.14493 0.55645 0.0
C724 C 0.55128 0.18011 0.57307 0.0
C725 C 0.55735 0.17072 0.60223 0.0
C726 C 0.55339 0.148 0.6076 0.0
C727 C 0.5423 0.13523 0.58495 0.0
H728 H 0.57128 0.7827 0.2721 0.0
H729 H 0.62641 0.78844 0.33721 0.0
H730 H 0.54728 0.8021 0.30983 0.0
H731 H 0.60254 0.80831 0.37442 0.0
H732 H 0.55663 0.85936 0.4211 0.0
H733 H 0.57913 0.84509 0.37753 0.0
H734 H 0.53413 0.7896 0.36706 0.0
H735 H 0.5116 0.80367 0.41092 0.0
C736 C 0.57836 0.78839 0.2942 0.0
C737 C 0.60064 0.78382 0.30194 0.0
C738 C 0.56461 0.79942 0.31575 0.0
C739 C 0.5731 0.80653 0.34496 0.0
C740 C 0.59566 0.80305 0.35194 0.0
C741 C 0.60927 0.79164 0.33071 0.0
C742 C 0.55137 0.84424 0.40933 0.0
C743 C 0.53244 0.83252 0.4196 0.0
C744 C 0.56429 0.83609 0.38448 0.0
C745 C 0.55831 0.8163 0.3691 0.0
C746 C 0.53894 0.80501 0.37848 0.0
C747 C 0.52619 0.81296 0.40369 0.0
H748 H 0.88724 0.78416 0.1476 0.0
H749 H 0.95175 0.78503 0.1928 0.0
H750 H 0.90147 0.80913 0.10618 0.0
H751 H 0.96561 0.81011 0.15206 0.0
H752 H 0.97301 0.87483 0.09723 0.0
H753 H 0.95399 0.85159 0.13605 0.0
H754 H 0.93526 0.80555 0.06238 0.0
H755 H 0.95459 0.82868 0.02327 0.0
C756 C 0.90437 0.78972 0.1487 0.0
C757 C 0.91842 0.78266 0.17331 0.0
C758 C 0.91247 0.80389 0.12506 0.0
C759 C 0.93452 0.81156 0.12627 0.0
C760 C 0.94848 0.80452 0.15087 0.0
C761 C 0.94058 0.79007 0.174 0.0
C762 C 0.9646 0.85992 0.08918 0.0
C763 C 0.96544 0.85343 0.0573 0.0
C764 C 0.95377 0.84665 0.1114 0.0
C765 C 0.94334 0.82683 0.10207 0.0
C766 C 0.94313 0.82087 0.06998 0.0
C767 C 0.95424 0.83402 0.04774 0.0
H768 H 0.51081 0.65966 0.86526 0.0
H769 H 0.57079 0.65208 0.91993 0.0
H770 H 0.53278 0.6697 0.8189 0.0
H771 H 0.59281 0.66434 0.8754 0.0
H772 H 0.63226 0.68788 0.79667 0.0
H773 H 0.60954 0.6632 0.82879 0.0
H774 H 0.55055 0.69853 0.79776 0.0
H775 H 0.57324 0.72082 0.76283 0.0
C776 C 0.52879 0.66005 0.8671 0.0
C777 C 0.53925 0.65513 0.89584 0.0
C778 C 0.54147 0.66612 0.84071 0.0
C779 C 0.56479 0.6684 0.84304 0.0
C780 C 0.57509 0.66247 0.87185 0.0
C781 C 0.56247 0.65558 0.89774 0.0
C782 C 0.61433 0.68974 0.79615 0.0
C783 C 0.60448 0.70645 0.77782 0.0
C784 C 0.60123 0.67586 0.81499 0.0
C785 C 0.57805 0.67922 0.81726 0.0
C786 C 0.56819 0.69507 0.79698 0.0
C787 C 0.58126 0.70819 0.77701 0.0
H788 H 0.55872 0.26439 0.14224 0.0
H789 H 0.61246 0.30979 0.16371 0.0
H790 H 0.5472 0.28823 0.09866 0.0
H791 H 0.60081 0.33371 0.11991 0.0
H792 H 0.54392 0.38163 0.08085 0.0
H793 H 0.56569 0.35699 0.11455 0.0
H794 H 0.55903 0.30432 0.0457 0.0
H795 H 0.53737 0.32905 0.01172 0.0
C796 C 0.56824 0.27933 0.1374 0.0
C797 C 0.5863 0.28539 0.15666 0.0
C798 C 0.56178 0.29285 0.11224 0.0
C799 C 0.57312 0.31281 0.106 0.0
C800 C 0.59176 0.31843 0.12437 0.0
C801 C 0.59842 0.30473 0.14935 0.0
C802 C 0.54752 0.36495 0.07257 0.0
C803 C 0.5386 0.35712 0.04396 0.0
C804 C 0.5601 0.35089 0.09178 0.0
C805 C 0.56382 0.32871 0.08282 0.0
C806 C 0.55616 0.32131 0.05325 0.0
C807 C 0.5438 0.33547 0.03383 0.0
H808 H 0.9232 0.27369 0.27514 0.0
H809 H 0.86184 0.29623 0.3174 0.0
H810 H 0.94401 0.29885 0.30818 0.0
H811 H 0.88243 0.32344 0.34844 0.0
H812 H 0.92659 0.34079 0.43327 0.0
H813 H 0.90333 0.32423 0.39271 0.0
H814 H 0.95696 0.33183 0.32493 0.0
H815 H 0.98073 0.34633 0.36691 0.0
C816 C 0.91409 0.28448 0.291 0.0
C817 C 0.89096 0.28251 0.29442 0.0
C818 C 0.92606 0.29929 0.30981 0.0
C819 C 0.9151 0.31315 0.33171 0.0
C820 C 0.89165 0.31253 0.33287 0.0
C821 C 0.87976 0.29709 0.31482 0.0
C822 C 0.93316 0.3391 0.40951 0.0
C823 C 0.95533 0.34453 0.40301 0.0
C824 C 0.91979 0.32978 0.38602 0.0
C825 C 0.92817 0.32629 0.35525 0.0
C826 C 0.95002 0.33344 0.34843 0.0
C827 C 0.96362 0.34202 0.37229 0.0
H828 H 0.91387 0.68461 0.69661 0.0
H829 H 0.9046 0.74006 0.6334 0.0
H830 H 0.9267 0.66177 0.65299 0.0
H831 H 0.91543 0.71679 0.5886 0.0
H832 H 0.96667 0.68108 0.52715 0.0
H833 H 0.94598 0.7026 0.56534 0.0
H834 H 0.92241 0.64161 0.60856 0.0
H835 H 0.94535 0.62027 0.57213 0.0
C836 C 0.91399 0.69161 0.67297 0.0
C837 C 0.90847 0.71394 0.66809 0.0
C838 C 0.92114 0.67848 0.64774 0.0
C839 C 0.92234 0.68728 0.61686 0.0
C840 C 0.91542 0.70947 0.61197 0.0
C841 C 0.90896 0.72279 0.63749 0.0
C842 C 0.95708 0.67228 0.5448 0.0
C843 C 0.95816 0.64903 0.54729 0.0
C844 C 0.94484 0.68466 0.56664 0.0
C845 C 0.93267 0.67403 0.5908 0.0
C846 C 0.93222 0.65057 0.59129 0.0
C847 C 0.94517 0.63824 0.57016 0.0
H848 H 0.55469 0.35922 0.58261 0.0
H849 H 0.51098 0.30288 0.59662 0.0
H850 H 0.5763 0.34806 0.62885 0.0
H851 H 0.53265 0.29184 0.6428 0.0
H852 H 0.56919 0.2844 0.73559 0.0
H853 H 0.54503 0.30407 0.69835 0.0
H854 H 0.60092 0.31391 0.63568 0.0
H855 H 0.62493 0.29401 0.67245 0.0
C856 C 0.54948 0.34466 0.59579 0.0
C857 C 0.5313 0.33174 0.58568 0.0
C858 C 0.56188 0.33829 0.62221 0.0
C859 C 0.55616 0.31908 0.63927 0.0
C860 C 0.53729 0.30685 0.63022 0.0
C861 C 0.52503 0.31306 0.6036 0.0
C862 C 0.57638 0.29108 0.71411 0.0
C863 C 0.59885 0.28735 0.70663 0.0
C864 C 0.56254 0.30228 0.69282 0.0
C865 C 0.57111 0.31034 0.6641 0.0
C866 C 0.59391 0.30798 0.65774 0.0
C867 C 0.60763 0.29649 0.67873 0.0
H868 H 0.96012 0.37978 0.90408 0.0
H869 H 0.94975 0.32983 0.97617 0.0
H870 H 0.93883 0.35726 0.8666 0.0
H871 H 0.92861 0.30742 0.93872 0.0
H872 H 0.93094 0.26245 0.84872 0.0
H873 H 0.94357 0.28729 0.8905 0.0
H874 H 0.90084 0.33927 0.85466 0.0
H875 H 0.88806 0.31431 0.8126 0.0
C876 C 0.95289 0.36426 0.91211 0.0
C877 C 0.9569 0.35637 0.94286 0.0
C878 C 0.94066 0.35143 0.8907 0.0
C879 C 0.93238 0.3305 0.89973 0.0
C880 C 0.93512 0.32335 0.93108 0.0
C881 C 0.94718 0.33622 0.95249 0.0
C882 C 0.92412 0.27912 0.84983 0.0
C883 C 0.90865 0.2865 0.82726 0.0
C884 C 0.93119 0.29327 0.87392 0.0
C885 C 0.92312 0.31516 0.87579 0.0
C886 C 0.90734 0.32247 0.85362 0.0
C887 C 0.9 0.30817 0.82969 0.0
H888 H 0.98804 0.6905 0.09537 0.0
H889 H 0.94419 0.63533 0.07457 0.0
H890 H 0.96356 0.7018 0.13851 0.0
H891 H 0.91975 0.64675 0.11778 0.0
H892 H 0.87016 0.69964 0.16189 0.0
H893 H 0.89519 0.68078 0.12532 0.0
H894 H 0.94907 0.68803 0.19208 0.0
H895 H 0.92393 0.70664 0.22901 0.0
C896 C 0.97323 0.68075 0.10005 0.0
C897 C 0.96795 0.66214 0.08135 0.0
C898 C 0.95937 0.68708 0.12496 0.0
C899 C 0.93983 0.67508 0.13149 0.0
C900 C 0.9347 0.6563 0.11315 0.0
C901 C 0.9487 0.64979 0.08846 0.0
C902 C 0.88722 0.69678 0.16908 0.0
C903 C 0.89519 0.70498 0.19807 0.0
C904 C 0.90152 0.68593 0.14817 0.0
C905 C 0.9241 0.68325 0.15575 0.0
C906 C 0.93177 0.69019 0.18554 0.0
C907 C 0.91737 0.70077 0.20669 0.0
H908 H 0.60583 0.681 0.31145 0.0
H909 H 0.55477 0.72873 0.33555 0.0
H910 H 0.59332 0.65698 0.3549 0.0
H911 H 0.54258 0.70494 0.37888 0.0
H912 H 0.53698 0.61269 0.40523 0.0
H913 H 0.55585 0.63546 0.36549 0.0
H914 H 0.55902 0.69006 0.43167 0.0
H915 H 0.54055 0.66727 0.47162 0.0
C916 C 0.59207 0.68641 0.32611 0.0
C917 C 0.58116 0.70664 0.31999 0.0
C918 C 0.58492 0.67268 0.35085 0.0
C919 C 0.5671 0.67922 0.37021 0.0
C920 C 0.55652 0.69964 0.36447 0.0
C921 C 0.56338 0.71314 0.3395 0.0
C922 C 0.54207 0.62941 0.41148 0.0
C923 C 0.53703 0.63831 0.44138 0.0
C924 C 0.55293 0.64238 0.38879 0.0
C925 C 0.55867 0.66452 0.39553 0.0
C926 C 0.55455 0.67308 0.42587 0.0
C927 C 0.54401 0.66001 0.4487 0.0
H928 H 0.45584 0.30044 0.05135 0.0
H929 H 0.45742 0.36484 0.09687 0.0
H930 H 0.43025 0.28689 0.09172 0.0
H931 H 0.432 0.35088 0.13796 0.0
H932 H 0.41414 0.29504 0.21984 0.0
H933 H 0.43635 0.31565 0.18102 0.0
H934 H 0.38831 0.2999 0.10859 0.0
H935 H 0.36587 0.27969 0.14725 0.0
C936 C 0.45083 0.31166 0.07011 0.0
C937 C 0.45863 0.33368 0.07105 0.0
C938 C 0.43607 0.30394 0.09301 0.0
C939 C 0.42914 0.31796 0.11762 0.0
C940 C 0.43714 0.33988 0.11902 0.0
C941 C 0.45158 0.3478 0.0956 0.0
C942 C 0.40807 0.29646 0.19579 0.0
C943 C 0.38839 0.28566 0.18646 0.0
C944 C 0.42072 0.30828 0.17371 0.0
C945 C 0.41399 0.30915 0.14198 0.0
C946 C 0.39378 0.29934 0.133 0.0
C947 C 0.38096 0.28785 0.15512 0.0
H948 H 0.44794 0.6175 0.92672 0.0
H949 H 0.47317 0.67827 0.96763 0.0
H950 H 0.42153 0.63894 0.89549 0.0
H951 H 0.44901 0.6998 0.93422 0.0
H952 H 0.40405 0.73812 0.87348 0.0
H953 H 0.41729 0.71444 0.91639 0.0
H954 H 0.42147 0.65905 0.85086 0.0
H955 H 0.40606 0.68232 0.80955 0.0
C956 C 0.44787 0.63546 0.92892 0.0
C957 C 0.46301 0.64624 0.94893 0.0
C958 C 0.43291 0.64785 0.91073 0.0
C959 C 0.43339 0.67132 0.9113 0.0
C960 C 0.44773 0.68188 0.93296 0.0
C961 C 0.46201 0.66946 0.95196 0.0
C962 C 0.40738 0.7207 0.86881 0.0
C963 C 0.4042 0.71189 0.83853 0.0
C964 C 0.41522 0.70711 0.89321 0.0
C965 C 0.421 0.68472 0.88731 0.0
C966 C 0.41693 0.67594 0.85693 0.0
C967 C 0.4083 0.68931 0.83297 0.0
H968 H 0.08015 0.7055 0.72628 0.0
H969 H 0.13256 0.70761 0.65631 0.0
H970 H 0.05717 0.68376 0.69019 0.0
H971 H 0.10948 0.68581 0.62022 0.0
H972 H 0.06268 0.63912 0.56617 0.0
H973 H 0.08748 0.64942 0.6099 0.0
H974 H 0.04037 0.69947 0.63973 0.0
H975 H 0.01584 0.6894 0.59629 0.0
C976 C 0.08696 0.70089 0.70348 0.0
C977 C 0.10794 0.70864 0.6938 0.0
C978 C 0.07381 0.68846 0.68287 0.0
C979 C 0.08146 0.68344 0.65233 0.0
C980 C 0.10323 0.68942 0.6437 0.0
C981 C 0.11639 0.70197 0.6643 0.0
C982 C 0.05756 0.6521 0.58238 0.0
C983 C 0.03748 0.66365 0.57769 0.0
C984 C 0.07173 0.65799 0.60727 0.0
C985 C 0.06576 0.67515 0.62817 0.0
C986 C 0.04525 0.68598 0.6242 0.0
C987 C 0.03132 0.68038 0.59914 0.0
H988 H 0.01823 0.38849 0.38988 0.0
H989 H 0.04475 0.34732 0.46472 0.0
H990 H 0.03895 0.36678 0.35094 0.0
H991 H 0.06574 0.32582 0.42565 0.0
H992 H 0.11113 0.30209 0.34311 0.0
H993 H 0.09662 0.32962 0.38069 0.0
H994 H 0.0318 0.32468 0.33727 0.0
H995 H 0.04606 0.29704 0.3002 0.0
C996 C 0.02895 0.37521 0.39809 0.0
C997 C 0.0298 0.36946 0.43028 0.0
C998 C 0.0407 0.36275 0.3758 0.0
C999 C 0.05377 0.34462 0.38539 0.0
C1000 C 0.05585 0.33983 0.41775 0.0
C1001 C 0.04381 0.35207 0.44003 0.0
C1002 C 0.09384 0.30706 0.34148 0.0
C1003 C 0.07967 0.29738 0.31888 0.0
C1004 C 0.08558 0.32272 0.36296 0.0
C1005 C 0.06318 0.32928 0.36163 0.0
C1006 C 0.04921 0.32006 0.33849 0.0
C1007 C 0.05732 0.30412 0.31749 0.0
H1008 H 0.43324 0.63594 0.44077 0.0
H1009 H 0.48185 0.68335 0.40691 0.0
H1010 H 0.40765 0.64745 0.39851 0.0
H1011 H 0.45655 0.69453 0.36494 0.0
H1012 H 0.41667 0.69734 0.27757 0.0
H1013 H 0.43862 0.67632 0.31569 0.0
H1014 H 0.3875 0.6858 0.38614 0.0
H1015 H 0.36542 0.70702 0.348 0.0
C1016 C 0.4385 0.64864 0.42419 0.0
C1017 C 0.45945 0.65887 0.4272 0.0
C1018 C 0.42389 0.65521 0.40016 0.0
C1019 C 0.43028 0.67169 0.37844 0.0
C1020 C 0.45137 0.68154 0.38115 0.0
C1021 C 0.46575 0.6753 0.40536 0.0
C1022 C 0.40985 0.69454 0.30095 0.0
C1023 C 0.38957 0.7042 0.31006 0.0
C1024 C 0.42243 0.68253 0.32272 0.0
C1025 C 0.41485 0.67981 0.35387 0.0
C1026 C 0.39365 0.68768 0.3622 0.0
C1027 C 0.38107 0.69986 0.34041 0.0
H1028 H 0.04268 0.61865 0.09922 0.0
H1029 H 0.04916 0.66676 0.02376 0.0
H1030 H 0.06171 0.64416 0.13519 0.0
H1031 H 0.0679 0.69227 0.05985 0.0
H1032 H 0.06492 0.73982 0.14747 0.0
H1033 H 0.05242 0.71305 0.10791 0.0
H1034 H 0.0988 0.66451 0.14424 0.0
H1035 H 0.11145 0.69129 0.18388 0.0
C1036 C 0.04851 0.63448 0.09017 0.0
C1037 C 0.04416 0.64084 0.0588 0.0
C1038 C 0.05942 0.64905 0.11074 0.0
C1039 C 0.06599 0.67025 0.10031 0.0
C1040 C 0.0627 0.67612 0.06853 0.0
C1041 C 0.05204 0.66148 0.0479 0.0
C1042 C 0.07253 0.72349 0.14695 0.0
C1043 C 0.08908 0.71763 0.16889 0.0
C1044 C 0.0655 0.70824 0.12416 0.0
C1045 C 0.07471 0.68677 0.12306 0.0
C1046 C 0.09141 0.68095 0.14472 0.0
C1047 C 0.09867 0.69631 0.16727 0.0
H1048 H 0.13012 0.29326 0.83519 0.0
H1049 H 0.07817 0.29102 0.76461 0.0
H1050 H 0.10541 0.31344 0.8707 0.0
H1051 H 0.05335 0.31112 0.80037 0.0
H1052 H 0.01147 0.3083 0.8945 0.0
H1053 H 0.03609 0.29758 0.85137 0.0
H1054 H 0.08294 0.34835 0.87954 0.0
H1055 H 0.05831 0.35914 0.92294 0.0
C1056 C 0.11357 0.29748 0.827 0.0
C1057 C 0.10594 0.2902 0.79735 0.0
C1058 C 0.09945 0.30913 0.8473 0.0
C1059 C 0.07739 0.31359 0.83841 0.0
C1060 C 0.07022 0.30762 0.80794 0.0
C1061 C 0.08444 0.29617 0.78746 0.0
C1062 C 0.02693 0.31733 0.89139 0.0
C1063 C 0.03306 0.33439 0.9124 0.0
C1064 C 0.04091 0.31133 0.86646 0.0
C1065 C 0.06141 0.32215 0.86213 0.0
C1066 C 0.06726 0.33968 0.88247 0.0
C1067 C 0.05314 0.34586 0.90725 0.0
H1068 H 0.44379 0.38139 0.55984 0.0
H1069 H 0.46497 0.31961 0.51749 0.0
H1070 H 0.41763 0.3612 0.59307 0.0
H1071 H 0.44094 0.29914 0.55278 0.0
H1072 H 0.39889 0.26299 0.62024 0.0
H1073 H 0.40951 0.2859 0.57493 0.0
H1074 H 0.42052 0.34158 0.63825 0.0
H1075 H 0.40794 0.3191 0.68232 0.0
C1076 C 0.44278 0.36346 0.55763 0.0
C1077 C 0.45688 0.35201 0.53681 0.0
C1078 C 0.42798 0.35179 0.57695 0.0
C1079 C 0.42761 0.32833 0.57677 0.0
C1080 C 0.4405 0.31712 0.55391 0.0
C1081 C 0.45464 0.32888 0.53377 0.0
C1082 C 0.40301 0.28036 0.62395 0.0
C1083 C 0.40268 0.28946 0.65441 0.0
C1084 C 0.40936 0.29347 0.59814 0.0
C1085 C 0.41635 0.31567 0.60263 0.0
C1086 C 0.41495 0.32483 0.6333 0.0
C1087 C 0.40793 0.31191 0.6588 0.0
H1088 H 0.29874 0.20644 0.24343 0.0
H1089 H 0.31075 0.27401 0.27371 0.0
H1090 H 0.25877 0.21307 0.24564 0.0
H1091 H 0.27101 0.28114 0.2741 0.0
H1092 H 0.19639 0.28263 0.29316 0.0
H1093 H 0.23625 0.27571 0.29655 0.0
H1094 H 0.23171 0.23138 0.21612 0.0
H1095 H 0.19169 0.23736 0.21421 0.0
C1096 C 0.2928 0.22265 0.25084 0.0
C1097 C 0.30783 0.2397 0.25833 0.0
C1098 C 0.26989 0.22659 0.25167 0.0
C1099 C 0.26155 0.24783 0.25934 0.0
C1100 C 0.27668 0.26454 0.26829 0.0
C1101 C 0.29955 0.26046 0.26806 0.0
C1102 C 0.20404 0.27167 0.27596 0.0
C1103 C 0.19102 0.26053 0.25341 0.0
C1104 C 0.22691 0.26764 0.2779 0.0
C1105 C 0.23729 0.2527 0.25691 0.0
C1106 C 0.22428 0.24243 0.23337 0.0
C1107 C 0.20137 0.24611 0.23189 0.0
H1108 H 0.95563 0.94706 0.51162 0.0
H1109 H 0.01879 0.93379 0.4667 0.0
H1110 H 0.96417 0.98665 0.51232 0.0
H1111 H 0.02787 0.97329 0.46866 0.0
H1112 H 0.02792 0.04957 0.45498 0.0
H1113 H 0.02061 0.00978 0.45022 0.0
H1114 H 0.9876 0.01066 0.54114 0.0
H1115 H 0.99402 0.05054 0.54502 0.0
C1116 C 0.97126 0.95266 0.50162 0.0
C1117 C 0.98656 0.93736 0.4892 0.0
C1118 C 0.97632 0.97532 0.50241 0.0
C1119 C 0.99697 0.98316 0.49127 0.0
C1120 C 0.0118 0.96791 0.47739 0.0
C1121 C 0.00658 0.94525 0.47621 0.0
C1122 C 0.01946 0.04113 0.47417 0.0
C1123 C 0.01142 0.05312 0.50029 0.0
C1124 C 0.01521 0.01831 0.47143 0.0
C1125 C 0.00307 0.00704 0.49497 0.0
C1126 C 0.99632 0.0189 0.52203 0.0
C1127 C 0.00027 0.04171 0.52451 0.0
H1128 H 0.303 0.75115 0.69952 0.0
H1129 H 0.29872 0.71023 0.78328 0.0
H1130 H 0.26324 0.75885 0.70312 0.0
H1131 H 0.2596 0.71903 0.78828 0.0
H1132 H 0.18495 0.72467 0.77444 0.0
H1133 H 0.2239 0.71482 0.77038 0.0
H1134 H 0.23846 0.7802 0.73271 0.0
H1135 H 0.199 0.78943 0.73489 0.0
C1136 C 0.29348 0.74356 0.71842 0.0
C1137 C 0.30393 0.73003 0.741 0.0
C1138 C 0.27077 0.74829 0.7209 0.0
C1139 C 0.25817 0.73999 0.74642 0.0
C1140 C 0.26855 0.7256 0.76811 0.0
C1141 C 0.29108 0.72048 0.76521 0.0
C1142 C 0.19652 0.73711 0.76586 0.0
C1143 C 0.18892 0.75781 0.75489 0.0
C1144 C 0.21896 0.73145 0.76346 0.0
C1145 C 0.23444 0.74654 0.75068 0.0
C1146 C 0.22697 0.76784 0.74169 0.0
C1147 C 0.20441 0.77333 0.74347 0.0
H1148 H 0.52953 0.04495 0.04339 0.0
H1149 H 0.48699 0.0475 0.96112 0.0
H1150 H 0.52411 0.00483 0.04659 0.0
H1151 H 0.4822 0.00731 0.96355 0.0
H1152 H 0.45738 0.94048 0.99429 0.0
H1153 H 0.46325 0.9806 0.9957 0.0
H1154 H 0.532 0.9701 0.02183 0.0
H1155 H 0.52589 0.9301 0.02156 0.0
C1156 C 0.51943 0.03686 0.02556 0.0
C1157 C 0.50862 0.04935 0.00205 0.0
C1158 C 0.51628 0.01386 0.02743 0.0
C1159 C 0.50242 0.00288 0.00564 0.0
C1160 C 0.49247 0.01531 0.98126 0.0
C1161 C 0.49545 0.03831 0.97958 0.0
C1162 C 0.47362 0.94677 0.00091 0.0
C1163 C 0.4912 0.93215 0.00761 0.0
C1164 C 0.47707 0.96975 0.00134 0.0
C1165 C 0.49823 0.97857 0.00822 0.0
C1166 C 0.51549 0.96392 0.01652 0.0
C1167 C 0.51198 0.94096 0.01634 0.0
H1168 H 0.19702 0.76429 0.29411 0.0
H1169 H 0.19871 0.71882 0.21512 0.0
H1170 H 0.23733 0.76839 0.2911 0.0
H1171 H 0.23857 0.72399 0.21049 0.0
H1172 H 0.3132 0.72302 0.22732 0.0
H1173 H 0.27336 0.71734 0.23025 0.0
H1174 H 0.26486 0.78546 0.26123 0.0
H1175 H 0.3051 0.79054 0.26029 0.0
C1176 C 0.20608 0.75502 0.2763 0.0
C1177 C 0.19479 0.74113 0.25502 0.0
C1178 C 0.22915 0.75765 0.27415 0.0
C1179 C 0.24134 0.74687 0.25014 0.0
C1180 C 0.22997 0.73239 0.22955 0.0
C1181 C 0.20702 0.72936 0.23222 0.0
C1182 C 0.30279 0.73692 0.2342 0.0
C1183 C 0.31227 0.75722 0.24365 0.0
C1184 C 0.27983 0.73366 0.23592 0.0
C1185 C 0.26571 0.75081 0.24646 0.0
C1186 C 0.27518 0.77161 0.25397 0.0
C1187 C 0.29823 0.77469 0.25292 0.0
H1188 H 0.53114 0.94746 0.45244 0.0
H1189 H 0.49137 0.94576 0.53754 0.0
H1190 H 0.52527 0.98747 0.44841 0.0
H1191 H 0.48622 0.98587 0.53432 0.0
H1192 H 0.45952 0.05171 0.50345 0.0
H1193 H 0.46593 0.0117 0.50293 0.0
H1194 H 0.53339 0.02279 0.47097 0.0
H1195 H 0.52662 0.06273 0.47028 0.0
C1196 C 0.52157 0.95573 0.4707 0.0
C1197 C 0.51162 0.9435 0.49525 0.0
C1198 C 0.51818 0.97867 0.46837 0.0
C1199 C 0.50496 0.98985 0.49074 0.0
C1200 C 0.49595 0.9777 0.51615 0.0
C1201 C 0.49913 0.95475 0.51827 0.0
C1202 C 0.47557 0.04555 0.49574 0.0
C1203 C 0.49259 0.06031 0.48707 0.0
C1204 C 0.47936 0.02264 0.49582 0.0
C1205 C 0.50035 0.01404 0.48761 0.0
C1206 C 0.51701 0.0288 0.47735 0.0
C1207 C 0.51313 0.05172 0.47693 0.0
H1208 H 0.19624 0.21873 0.79291 0.0
H1209 H 0.1947 0.2586 0.70795 0.0
H1210 H 0.23595 0.22584 0.79831 0.0
H1211 H 0.2346 0.26485 0.71234 0.0
H1212 H 0.29925 0.29323 0.74362 0.0
H1213 H 0.25941 0.28583 0.74363 0.0
H1214 H 0.27186 0.21922 0.77816 0.0
H1215 H 0.31155 0.2271 0.77958 0.0
C1216 C 0.20453 0.22852 0.77491 0.0
C1217 C 0.19241 0.23819 0.75006 0.0
C1218 C 0.22731 0.23265 0.77804 0.0
C1219 C 0.23845 0.24628 0.75611 0.0
C1220 C 0.22645 0.25488 0.73026 0.0
C1221 C 0.20364 0.25104 0.72743 0.0
C1222 C 0.29338 0.27721 0.75192 0.0
C1223 C 0.30847 0.26072 0.76147 0.0
C1224 C 0.27059 0.27282 0.7515 0.0
C1225 C 0.26243 0.25171 0.7601 0.0
C1226 C 0.27749 0.23568 0.77144 0.0
C1227 C 0.30028 0.2402 0.77232 0.0
H1228 H 0.96334 0.0514 0.95557 0.0
H1229 H 0.01023 0.05583 0.03271 0.0
H1230 H 0.96944 0.01147 0.95255 0.0
H1231 H 0.01554 0.01566 0.03092 0.0
H1232 H 0.03839 0.94764 0.00016 0.0
H1233 H 0.03252 0.98781 -1e-05 0.0
H1234 H 0.96308 0.97742 0.97742 0.0
H1235 H 0.96928 0.93757 0.97601 0.0
C1236 C 0.97457 0.04373 0.97238 0.0
C1237 C 0.98632 0.05668 0.99438 0.0
C1238 C 0.97808 0.0208 0.97068 0.0
C1239 C 0.99315 0.01028 0.9913 0.0
C1240 C 0.00425 0.02323 0.01411 0.0
C1241 C 0.00101 0.04622 0.01544 0.0
C1242 C 0.022 0.95403 0.99465 0.0
C1243 C 0.00432 0.93949 0.98806 0.0
C1244 C 0.01853 0.97703 0.99493 0.0
C1245 C 0.99724 0.98592 0.98909 0.0
C1246 C 0.97975 0.97128 0.98165 0.0
C1247 C 0.9833 0.94836 0.9809 0.0
H1248 H 0.8033 0.70544 0.75156 0.0
H1249 H 0.81166 0.77166 0.78942 0.0
H1250 H 0.76323 0.71122 0.74892 0.0
H1251 H 0.77181 0.77793 0.78535 0.0
H1252 H 0.69606 0.77724 0.79208 0.0
H1253 H 0.73535 0.77022 0.80196 0.0
H1254 H 0.73893 0.73137 0.71597 0.0
H1255 H 0.6994 0.73754 0.70706 0.0
C1256 C 0.79652 0.72111 0.75975 0.0
C1257 C 0.8106 0.73812 0.77053 0.0
C1258 C 0.77358 0.72458 0.75781 0.0
C1259 C 0.76428 0.74527 0.76612 0.0
C1260 C 0.77829 0.76176 0.77882 0.0
C1261 C 0.8012 0.75816 0.78121 0.0
C1262 C 0.70534 0.76742 0.77511 0.0
C1263 C 0.69469 0.75793 0.74878 0.0
C1264 C 0.72788 0.76336 0.78079 0.0
C1265 C 0.74033 0.74995 0.76003 0.0
C1266 C 0.72977 0.74122 0.73301 0.0
C1267 C 0.70717 0.74502 0.7276 0.0
H1268 H 0.69003 0.2363 0.28698 0.0
H1269 H 0.69673 0.27288 0.19961 0.0
H1270 H 0.72992 0.22877 0.28674 0.0
H1271 H 0.73611 0.26424 0.19806 0.0
H1272 H 0.81006 0.26331 0.21953 0.0
H1273 H 0.77056 0.27138 0.21916 0.0
H1274 H 0.75733 0.20744 0.26239 0.0
H1275 H 0.79721 0.20011 0.26452 0.0
C1276 C 0.70008 0.24277 0.26779 0.0
C1277 C 0.69034 0.25531 0.24348 0.0
C1278 C 0.7229 0.2382 0.26734 0.0
C1279 C 0.73637 0.24566 0.24218 0.0
C1280 C 0.72651 0.25849 0.21813 0.0
C1281 C 0.70384 0.26345 0.21897 0.0
C1282 C 0.79869 0.25083 0.2285 0.0
C1283 C 0.80671 0.23108 0.24207 0.0
C1284 C 0.77593 0.25544 0.22828 0.0
C1285 C 0.76057 0.24019 0.24104 0.0
C1286 C 0.76862 0.21989 0.25315 0.0
C1287 C 0.79146 0.21549 0.25395 0.0
H1288 H 0.68574 0.27792 0.77137 0.0
H1289 H 0.69566 0.20994 0.74151 0.0
H1290 H 0.72494 0.28552 0.76375 0.0
H1291 H 0.73544 0.21701 0.73587 0.0
H1292 H 0.80214 0.23952 0.70042 0.0
H1293 H 0.76196 0.23438 0.70428 0.0
H1294 H 0.76014 0.28051 0.78286 0.0
H1295 H 0.79975 0.28664 0.77743 0.0
C1296 C 0.69647 0.26439 0.764 0.0
C1297 C 0.68766 0.24329 0.75718 0.0
C1298 C 0.71905 0.26874 0.75962 0.0
C1299 C 0.73355 0.25195 0.74901 0.0
C1300 C 0.72479 0.23056 0.74329 0.0
C1301 C 0.70203 0.22635 0.747 0.0
C1302 C 0.79296 0.24895 0.71792 0.0
C1303 C 0.80404 0.26354 0.73851 0.0
C1304 C 0.76997 0.24575 0.72054 0.0
C1305 C 0.75768 0.25672 0.74426 0.0
C1306 C 0.7688 0.27196 0.764 0.0
C1307 C 0.79163 0.27551 0.7609 0.0
H1308 H 0.80239 0.77623 0.20595 0.0
H1309 H 0.80572 0.73428 0.28876 0.0
H1310 H 0.76227 0.77147 0.20419 0.0
H1311 H 0.76534 0.73037 0.28809 0.0
H1312 H 0.69644 0.70768 0.25934 0.0
H1313 H 0.73676 0.71245 0.25945 0.0
H1314 H 0.7286 0.78057 0.22845 0.0
H1315 H 0.68858 0.77538 0.22687 0.0
C1316 C 0.79446 0.7664 0.22423 0.0
C1317 C 0.80716 0.75562 0.24748 0.0
C1318 C 0.77141 0.76368 0.22327 0.0
C1319 C 0.76049 0.75038 0.24586 0.0
C1320 C 0.77321 0.74028 0.26984 0.0
C1321 C 0.79632 0.74273 0.2705 0.0
C1322 C 0.70335 0.72354 0.25214 0.0
C1323 C 0.68939 0.74111 0.24301 0.0
C1324 C 0.72644 0.72639 0.25255 0.0
C1325 C 0.736 0.74699 0.24426 0.0
C1326 C 0.72193 0.76439 0.23457 0.0
C1327 C 0.69893 0.76143 0.23374 0.0
H1328 H 0.50647 0.44605 0.95491 0.0
H1329 H 0.46993 0.44977 0.0427 0.0
H1330 H 0.51322 0.48595 0.95708 0.0
H1331 H 0.47761 0.48951 0.04589 0.0
H1332 H 0.47922 0.56475 0.0249 0.0
H1333 H 0.47071 0.52514 0.0252 0.0
H1334 H 0.53547 0.51126 0.98513 0.0
H1335 H 0.5434 0.55096 0.98338 0.0
C1336 C 0.49978 0.45547 0.97459 0.0
C1337 C 0.48769 0.44486 -0.00139 0.0
C1338 C 0.5039 0.47829 0.97612 0.0
C1339 C 0.4964 0.49095 0.00204 0.0
C1340 C 0.48356 0.48039 0.02549 0.0
C1341 C 0.47911 0.45759 0.02366 0.0
C1342 C 0.49178 0.55317 0.01672 0.0
C1343 C 0.51192 0.5609 0.00393 0.0
C1344 C 0.48689 0.53043 0.01684 0.0
C1345 C 0.5022 0.51496 0.00457 0.0
C1346 C 0.52297 0.52271 0.99378 0.0
C1347 C 0.52768 0.54544 0.99319 0.0
H1348 H -0.0001 0.44624 0.53848 0.0
H1349 H 0.95452 0.45189 0.45973 0.0
H1350 H 0.00582 0.48637 0.53742 0.0
H1351 H 0.96139 0.49161 0.45724 0.0
H1352 H 0.96607 0.56583 0.47416 0.0
H1353 H 0.95706 0.52661 0.47857 0.0
H1354 H 0.02478 0.51279 0.50728 0.0
H1355 H 0.03329 0.55241 0.50469 0.0
C1356 C 0.99099 0.45613 0.5212 0.0
C1357 C 0.97675 0.44596 0.49923 0.0
C1358 C 0.99464 0.47909 0.52021 0.0
C1359 C 0.98448 0.49231 0.49679 0.0
C1360 C 0.96939 0.48215 0.47582 0.0
C1361 C 0.96541 0.45929 0.47724 0.0
C1362 C 0.97912 0.55437 0.48098 0.0
C1363 C 0.00042 0.56217 0.48898 0.0
C1364 C 0.97395 0.5318 0.48355 0.0
C1365 C 0.99009 0.51638 0.49359 0.0
C1366 C 0.0117 0.52417 0.50032 0.0
C1367 C 0.01674 0.54684 0.49834 0.0
H1368 H 0.04201 0.44242 0.99281 0.0
H1369 H 0.97425 0.43611 0.02564 0.0
H1370 H 0.03838 0.48285 0.99349 0.0
H1371 H 0.97007 0.47618 0.0245 0.0
H1372 H 0.97382 0.54997 0.0435 0.0
H1373 H 0.97862 0.50997 0.04689 0.0
H1374 H 0.02197 0.51185 0.96516 0.0
H1375 H 0.01816 0.55224 0.96321 0.0
C1376 C 0.02641 0.4497 0.00042 0.0
C1377 C 0.00846 0.43612 0.00927 0.0
C1378 C 0.02418 0.47287 0.00037 0.0
C1379 C 0.00381 0.48293 0.00861 0.0
C1380 C 0.98612 0.46922 0.01842 0.0
C1381 C 0.9885 0.44613 0.01904 0.0
C1382 C 0.98417 0.5418 0.02603 0.0
C1383 C 0.99556 0.55419 0.00301 0.0
C1384 C 0.98693 0.51878 0.02793 0.0
C1385 C 0.0008 0.50751 0.00641 0.0
C1386 C 0.0116 0.51993 0.98267 0.0
C1387 C 0.00919 0.54306 0.9812 0.0
H1388 H 0.53493 0.44056 0.53538 0.0
H1389 H 0.49153 0.43755 0.45403 0.0
H1390 H 0.52888 0.48027 0.53925 0.0
H1391 H 0.48633 0.47783 0.45681 0.0
H1392 H 0.46194 0.54536 0.49098 0.0
H1393 H 0.46803 0.50524 0.48769 0.0
H1394 H 0.53635 0.5147 0.51698 0.0
H1395 H 0.52988 0.55432 0.52182 0.0
C1396 C 0.52452 0.4485 0.51776 0.0
C1397 C 0.5137 0.4359 0.49439 0.0
C1398 C 0.52107 0.47137 0.51995 0.0
C1399 C 0.50698 0.48235 0.49849 0.0
C1400 C 0.49689 0.46987 0.4742 0.0
C1401 C 0.50011 0.44684 0.47229 0.0
C1402 C 0.4781 0.53873 0.49728 0.0
C1403 C 0.49537 0.55296 0.50686 0.0
C1404 C 0.48172 0.51579 0.49495 0.0
C1405 C 0.50276 0.50666 0.50177 0.0
C1406 C 0.51983 0.52097 0.51197 0.0
C1407 C 0.51612 0.54378 0.51474 0.0
H1408 H 0.06464 0.35921 0.04855 0.0
H1409 H 0.01261 0.31822 0.08841 0.0
H1410 H 0.09137 0.3431 0.08646 0.0
H1411 H 0.03904 0.30232 0.12547 0.0
H1412 H 0.09133 0.25433 0.14785 0.0
H1413 H 0.0747 0.27695 0.10627 0.0
H1414 H 0.0948 0.33669 0.15509 0.0
H1415 H 0.11183 0.3139 0.1969 0.0
C1416 C 0.0588 0.34726 0.06585 0.0
C1417 C 0.03661 0.33973 0.06525 0.0
C1418 C 0.0741 0.33799 0.08732 0.0
C1419 C 0.06727 0.32113 0.1082 0.0
C1420 C 0.04477 0.31496 0.10909 0.0
C1421 C 0.02964 0.32414 0.08794 0.0
C1422 C 0.09302 0.27226 0.14909 0.0
C1423 C 0.10262 0.28238 0.17569 0.0
C1424 C 0.08346 0.28519 0.12538 0.0
C1425 C 0.08316 0.30849 0.12793 0.0
C1426 C 0.09488 0.31874 0.15268 0.0
C1427 C 0.10466 0.3057 0.17648 0.0
H1428 H 0.86348 0.78869 0.33317 0.0
H1429 H 0.92828 0.80444 0.29532 0.0
H1430 H 0.86989 0.81501 0.37687 0.0
H1431 H 0.93453 0.83071 0.33804 0.0
H1432 H 0.94645 0.87567 0.41454 0.0
H1433 H 0.92384 0.86516 0.36858 0.0
H1434 H 0.89838 0.8086 0.42026 0.0
H1435 H 0.92097 0.81899 0.46564 0.0
C1436 C 0.87875 0.79827 0.33374 0.0
C1437 C 0.8956 0.79433 0.31145 0.0
C1438 C 0.8824 0.81331 0.35857 0.0
C1439 C 0.90271 0.82491 0.36086 0.0
C1440 C 0.91861 0.8223 0.3368 0.0
C1441 C 0.91517 0.80703 0.31255 0.0
C1442 C 0.93527 0.86158 0.41639 0.0
C1443 C 0.93566 0.84786 0.44321 0.0
C1444 C 0.92239 0.85553 0.39014 0.0
C1445 C 0.90961 0.83587 0.3907 0.0
C1446 C 0.90795 0.82387 0.41908 0.0
C1447 C 0.92102 0.8297 0.44501 0.0
H1448 H 0.43128 0.68586 0.73052 0.0
H1449 H 0.38217 0.70302 0.6603 0.0
H1450 H 0.4488 0.66017 0.69358 0.0
H1451 H 0.40031 0.67786 0.62243 0.0
H1452 H 0.43738 0.62836 0.56056 0.0
H1453 H 0.41382 0.64029 0.60499 0.0
H1454 H 0.47106 0.6711 0.64875 0.0
H1455 H 0.4942 0.65922 0.60496 0.0
C1456 C 0.42406 0.6838 0.70721 0.0
C1457 C 0.40569 0.69661 0.69791 0.0
C1458 C 0.4341 0.66915 0.68605 0.0
C1459 C 0.42629 0.66736 0.65483 0.0
C1460 C 0.4067 0.67881 0.64633 0.0
C1461 C 0.39638 0.6933 0.66787 0.0
C1462 C 0.44493 0.63706 0.58026 0.0
C1463 C 0.46757 0.64294 0.57939 0.0
C1464 C 0.43144 0.64408 0.60547 0.0
C1465 C 0.44053 0.65671 0.63036 0.0
C1466 C 0.4635 0.66117 0.63026 0.0
C1467 C 0.47681 0.65446 0.60506 0.0
H1468 H 0.60386 0.17612 0.79561 0.0
H1469 H 0.59667 0.22729 0.8664 0.0
H1470 H 0.59049 0.14824 0.83363 0.0
H1471 H 0.5843 0.19936 0.90473 0.0
H1472 H 0.56845 0.14179 0.9696 0.0
H1473 H 0.5954 0.15791 0.93237 0.0
H1474 H 0.54675 0.15346 0.85761 0.0
H1475 H 0.51961 0.13831 0.89506 0.0
C1476 C 0.60049 0.18116 0.81975 0.0
C1477 C 0.60135 0.20373 0.82831 0.0
C1478 C 0.59279 0.16527 0.84137 0.0
C1479 C 0.58651 0.17172 0.87202 0.0
C1480 C 0.58935 0.19397 0.88134 0.0
C1481 C 0.59639 0.20992 0.85949 0.0
C1482 C 0.56391 0.14342 0.9449 0.0
C1483 C 0.54212 0.13873 0.93495 0.0
C1484 C 0.57925 0.15269 0.92373 0.0
C1485 C 0.5731 0.15678 0.89222 0.0
C1486 C 0.55195 0.15015 0.88169 0.0
C1487 C 0.53645 0.1415 0.90303 0.0
H1488 H 0.07079 0.65221 0.4547 0.0
H1489 H 0.01492 0.65355 0.39079 0.0
H1490 H 0.09404 0.67039 0.41437 0.0
H1491 H 0.03804 0.67132 0.35057 0.0
H1492 H 0.06712 0.74027 0.3293 0.0
H1493 H 0.05218 0.71317 0.36598 0.0
H1494 H 0.1081 0.66989 0.34875 0.0
H1495 H 0.12329 0.69714 0.31091 0.0
C1496 C 0.06389 0.65525 0.43142 0.0
C1497 C 0.04117 0.65144 0.42559 0.0
C1498 C 0.07713 0.66573 0.40848 0.0
C1499 C 0.06767 0.67246 0.37965 0.0
C1500 C 0.04563 0.66639 0.37274 0.0
C1501 C 0.03245 0.65609 0.39559 0.0
C1502 C 0.0765 0.72515 0.33333 0.0
C1503 C 0.09629 0.7208 0.31667 0.0
C1504 C 0.06782 0.70957 0.3543 0.0
C1505 C 0.07873 0.68929 0.35951 0.0
C1506 C 0.0993 0.68537 0.34475 0.0
C1507 C 0.10799 0.701 0.32329 0.0
H1508 H 0.61335 0.77348 0.62483 0.0
H1509 H 0.61332 0.82172 0.70036 0.0
H1510 H 0.59978 0.8018 0.58816 0.0
H1511 H 0.59887 0.84994 0.66387 0.0
H1512 H 0.52768 0.85442 0.60464 0.0
H1513 H 0.55716 0.8418 0.6402 0.0
H1514 H 0.60416 0.84375 0.56306 0.0
H1515 H 0.57471 0.85735 0.52769 0.0
C1516 C 0.61141 0.79042 0.63316 0.0
C1517 C 0.61438 0.7955 0.66527 0.0
C1518 C 0.60367 0.80663 0.61223 0.0
C1519 C 0.59818 0.82797 0.62332 0.0
C1520 C 0.6031 0.83362 0.65479 0.0
C1521 C 0.61147 0.81753 0.67557 0.0
C1522 C 0.54454 0.85315 0.59573 0.0
C1523 C 0.54906 0.85692 0.56365 0.0
C1524 C 0.56141 0.84601 0.61602 0.0
C1525 C 0.5829 0.84187 0.6043 0.0
C1526 C 0.58777 0.84705 0.57265 0.0
C1527 C 0.57099 0.85485 0.55252 0.0
H1528 H 0.37146 0.30199 0.82438 0.0
H1529 H 0.43585 0.31383 0.78222 0.0
H1530 H 0.38108 0.32729 0.86788 0.0
H1531 H 0.44532 0.33897 0.82513 0.0
H1532 H 0.46105 0.38367 0.90263 0.0
H1533 H 0.43807 0.37371 0.85667 0.0
H1534 H 0.40989 0.31898 0.90952 0.0
H1535 H 0.43285 0.32884 0.95481 0.0
C1536 C 0.3874 0.31042 0.82402 0.0
C1537 C 0.40313 0.30558 0.80042 0.0
C1538 C 0.39288 0.32489 0.8488 0.0
C1539 C 0.41398 0.33504 0.84995 0.0
C1540 C 0.42886 0.33162 0.82481 0.0
C1541 C 0.42355 0.31695 0.80045 0.0
C1542 C 0.44925 0.37011 0.90462 0.0
C1543 C 0.4487 0.35686 0.93189 0.0
C1544 C 0.43619 0.36435 0.87841 0.0
C1545 C 0.42234 0.34544 0.87944 0.0
C1546 C 0.4202 0.33373 0.90803 0.0
C1547 C 0.43343 0.33927 0.9339 0.0
H1548 H 0.9231 0.16671 0.23197 0.0
H1549 H 0.87769 0.19567 0.16464 0.0
H1550 H 0.93821 0.1426 0.19082 0.0
H1551 H 0.89326 0.17199 0.12293 0.0
H1552 H 0.92824 0.12811 0.05164 0.0
H1553 H 0.9046 0.13504 0.0981 0.0
H1554 H 0.96214 0.1587 0.14937 0.0
H1555 H 0.98535 0.15203 0.10339 0.0
C1556 C 0.91579 0.16725 0.20854 0.0
C1557 C 0.89941 0.18304 0.20122 0.0
C1558 C 0.9245 0.15356 0.18497 0.0
C1559 C 0.91728 0.15578 0.15352 0.0
C1560 C 0.89912 0.16985 0.14697 0.0
C1561 C 0.89019 0.18342 0.17077 0.0
C1562 C 0.93582 0.13417 0.07324 0.0
C1563 C 0.95855 0.13969 0.074 0.0
C1564 C 0.92231 0.13825 0.09968 0.0
C1565 C 0.93149 0.1474 0.12738 0.0
C1566 C 0.95454 0.15135 0.12862 0.0
C1567 C 0.96786 0.14768 0.10219 0.0
H1568 H 0.93881 0.63156 0.95055 0.0
H1569 H 0.99616 0.65604 0.89992 0.0
H1570 H 0.91473 0.64318 0.9065 0.0
H1571 H 0.97253 0.66752 0.85644 0.0
H1572 H 0.93155 0.68248 0.77645 0.0
H1573 H 0.94775 0.65637 0.81407 0.0
H1574 H 0.90391 0.68128 0.88695 0.0
H1575 H 0.8871 0.70694 0.84857 0.0
C1576 C 0.9463 0.63874 0.9296 0.0
C1577 C 0.96929 0.64299 0.92855 0.0
C1578 C 0.93254 0.64557 0.90459 0.0
C1579 C 0.94169 0.65632 0.87801 0.0
C1580 C 0.9649 0.65904 0.87628 0.0
C1581 C 0.97849 0.65256 0.90128 0.0
C1582 C 0.92492 0.68182 0.80029 0.0
C1583 C 0.90833 0.69678 0.80989 0.0
C1584 C 0.93422 0.66696 0.82183 0.0
C1585 C 0.92747 0.6671 0.85365 0.0
C1586 C 0.90942 0.68071 0.86257 0.0
C1587 C 0.89984 0.69545 0.84072 0.0
H1588 H 0.09944 0.22859 0.64014 0.0
H1589 H 0.1077 0.17768 0.71111 0.0
H1590 H 0.08651 0.20053 0.60244 0.0
H1591 H 0.09376 0.14966 0.67369 0.0
H1592 H 0.02199 0.13996 0.61351 0.0
H1593 H 0.04952 0.15494 0.65047 0.0
H1594 H 0.09768 0.15877 0.57499 0.0
H1595 H 0.07036 0.1428 0.53824 0.0
C1596 C 0.0992 0.21126 0.64724 0.0
C1597 C 0.10463 0.20519 0.67833 0.0
C1598 C 0.09187 0.19522 0.62573 0.0
C1599 C 0.08922 0.173 0.63527 0.0
C1600 C 0.09591 0.16667 0.66579 0.0
C1601 C 0.10391 0.18265 0.68707 0.0
C1602 C 0.03881 0.14295 0.60527 0.0
C1603 C 0.0442 0.1401 0.57325 0.0
C1604 C 0.05453 0.1515 0.62634 0.0
C1605 C 0.07565 0.15796 0.61546 0.0
C1606 C 0.08156 0.15369 0.5839 0.0
C1607 C 0.066 0.14449 0.563 0.0
H1608 H 0.55018 0.37538 0.41711 0.0
H1609 H 0.56415 0.31075 0.45687 0.0
H1610 H 0.57457 0.3668 0.37208 0.0
H1611 H 0.58851 0.30229 0.41255 0.0
H1612 H 0.63039 0.28807 0.33076 0.0
H1613 H 0.62198 0.31033 0.37805 0.0
H1614 H 0.56458 0.33797 0.33078 0.0
H1615 H 0.57281 0.31565 0.28422 0.0
C1616 C 0.55907 0.35971 0.41675 0.0
C1617 C 0.55505 0.34355 0.44004 0.0
C1618 C 0.57298 0.35478 0.39105 0.0
C1619 C 0.58334 0.33382 0.3887 0.0
C1620 C 0.58097 0.31865 0.41374 0.0
C1621 C 0.56683 0.32339 0.43898 0.0
C1622 C 0.6165 0.29955 0.33025 0.0
C1623 C 0.60205 0.30004 0.3042 0.0
C1624 C 0.61165 0.31222 0.35724 0.0
C1625 C 0.59253 0.32577 0.35818 0.0
C1626 C 0.57952 0.32789 0.33076 0.0
C1627 C 0.58412 0.31498 0.30416 0.0
H1628 H 0.4935 0.81806 0.08892 0.0
H1629 H 0.43815 0.85894 0.05944 0.0
H1630 H 0.47329 0.80732 0.13616 0.0
H1631 H 0.41763 0.84802 0.10738 0.0
H1632 H 0.3846 0.78834 0.17046 0.0
H1633 H 0.40111 0.81057 0.12753 0.0
H1634 H 0.45862 0.82342 0.18598 0.0
H1635 H 0.44251 0.801 0.22805 0.0
C1636 C 0.47711 0.82506 0.09284 0.0
C1637 C 0.46742 0.83933 0.07049 0.0
C1638 C 0.46554 0.81899 0.12002 0.0
C1639 C 0.44388 0.82689 0.12554 0.0
C1640 C 0.43429 0.84167 0.10366 0.0
C1641 C 0.44609 0.84805 0.07645 0.0
C1642 C 0.40047 0.79647 0.17427 0.0
C1643 C 0.41254 0.79264 0.20216 0.0
C1644 C 0.40989 0.80921 0.14982 0.0
C1645 C 0.43136 0.81833 0.15325 0.0
C1646 C 0.44228 0.81622 0.18243 0.0
C1647 C 0.43305 0.8034 0.2065 0.0
H1648 H 0.93911 0.31536 0.52666 0.0
H1649 H 0.95484 0.37481 0.57939 0.0
H1650 H 0.91717 0.30146 0.57103 0.0
H1651 H 0.93323 0.36051 0.62449 0.0
H1652 H 0.93367 0.3001 0.70048 0.0
H1653 H 0.94483 0.324 0.65666 0.0
H1654 H 0.88269 0.31023 0.60936 0.0
H1655 H 0.87112 0.28662 0.65409 0.0
C1656 C 0.9375 0.32561 0.54763 0.0
C1657 C 0.94881 0.34601 0.54988 0.0
C1658 C 0.92479 0.31775 0.57286 0.0
C1659 C 0.92354 0.32992 0.6011 0.0
C1660 C 0.93392 0.35089 0.60285 0.0
C1661 C 0.94624 0.35904 0.57718 0.0
C1662 C 0.92222 0.30249 0.68097 0.0
C1663 C 0.90167 0.29135 0.68036 0.0
C1664 C 0.9285 0.31635 0.65611 0.0
C1665 C 0.91458 0.319 0.62976 0.0
C1666 C 0.89363 0.30851 0.62956 0.0
C1667 C 0.88706 0.29502 0.65499 0.0
H1668 H 0.37269 0.20417 0.32654 0.0
H1669 H 0.43547 0.18927 0.28159 0.0
H1670 H 0.38356 0.1812 0.37207 0.0
H1671 H 0.44611 0.16628 0.32646 0.0
H1672 H 0.46087 0.12319 0.4089 0.0
H1673 H 0.43811 0.13269 0.36245 0.0
H1674 H 0.41506 0.19194 0.41009 0.0
H1675 H 0.4379 0.18271 0.45575 0.0
C1676 C 0.38849 0.1955 0.32603 0.0
C1677 C 0.40346 0.19882 0.30097 0.0
C1678 C 0.39469 0.18238 0.35197 0.0
C1679 C 0.4157 0.17204 0.35279 0.0
C1680 C 0.42974 0.17385 0.3264 0.0
C1681 C 0.42376 0.18725 0.30089 0.0
C1682 C 0.45045 0.13789 0.40958 0.0
C1683 C 0.45135 0.15245 0.43548 0.0
C1684 C 0.43747 0.14332 0.38313 0.0
C1685 C 0.42487 0.16308 0.3827 0.0
C1686 C 0.42437 0.17651 0.40984 0.0
C1687 C 0.43764 0.17136 0.43582 0.0
H1688 H 0.5796 0.67671 0.00911 0.0
H1689 H 0.55085 0.63058 0.07573 0.0
H1690 H 0.60367 0.69156 0.05048 0.0
H1691 H 0.57454 0.64587 0.11762 0.0
H1692 H 0.61839 0.68142 0.18904 0.0
H1693 H 0.61199 0.65786 0.14233 0.0
H1694 H 0.58579 0.71481 0.09228 0.0
H1695 H 0.59182 0.73792 0.13857 0.0
C1696 C 0.57909 0.66921 0.03242 0.0
C1697 C 0.56328 0.65279 0.03955 0.0
C1698 C 0.59279 0.67772 0.05607 0.0
C1699 C 0.59056 0.67024 0.08738 0.0
C1700 C 0.57663 0.65193 0.09367 0.0
C1701 C 0.56305 0.64318 0.06977 0.0
C1702 C 0.61184 0.6889 0.16766 0.0
C1703 C 0.60544 0.7114 0.1673 0.0
C1704 C 0.60811 0.67543 0.14109 0.0
C1705 C 0.59848 0.6845 0.11367 0.0
C1706 C 0.59356 0.70737 0.11285 0.0
C1707 C 0.59684 0.72061 0.13943 0.0
H1708 H 0.11532 0.79527 0.82856 0.0
H1709 H 0.06608 0.81662 0.76084 0.0
H1710 H 0.09854 0.81972 0.86854 0.0
H1711 H 0.04974 0.84137 0.80014 0.0
H1712 H 0.00569 0.83536 0.89106 0.0
H1713 H 0.02824 0.82618 0.84524 0.0
H1714 H 0.08516 0.85786 0.88847 0.0
H1715 H 0.06223 0.86731 0.93472 0.0
C1716 C 0.10151 0.80588 0.82194 0.0
C1717 C 0.09165 0.80385 0.79201 0.0
C1718 C 0.09194 0.8199 0.8447 0.0
C1719 C 0.07254 0.83208 0.83757 0.0
C1720 C 0.0644 0.83185 0.80646 0.0
C1721 C 0.07375 0.81774 0.78399 0.0
C1722 C 0.02286 0.84088 0.89045 0.0
C1723 C 0.03225 0.85195 0.91639 0.0
C1724 C 0.03578 0.83574 0.86413 0.0
C1725 C 0.05851 0.8413 0.86327 0.0
C1726 C 0.06771 0.85336 0.88858 0.0
C1727 C 0.05457 0.85889 0.91485 0.0
loop_
_geom_bond_atom_site_label_1
_geom_bond_atom_site_label_2
_geom_bond_distance
_geom_bond_site_symmetry_2
_ccdc_geom_bond_type
Co0 O1 2.216 . S
Co0 O2 2.091 . S
Co0 O4 2.004 . S
Co0 O10 2.021 . S
Co0 O12 2.137 . S
Co0 O13 2.244 . S
O1 Co0 2.216 . S
O1 C8 1.247 . S
O2 Co0 2.091 . S
O2 C8 1.261 . S
C3 O12 1.247 . S
C3 O13 1.272 . S
O4 Co0 2.004 . S
O4 C9 1.259 . S
Co5 O6 2.061 . S
Co5 O11 2.052 . S
Co5 O13 2.135 . S
O6 Co5 2.061 . S
O6 C9 1.235 . S
C7 O10 1.238 . S
C7 O11 1.241 . S
C8 O1 1.247 . S
C8 O2 1.261 . S
C9 O4 1.259 . S
C9 O6 1.235 . S
O10 Co0 2.021 . S
O10 C7 1.238 . S
O11 Co5 2.052 . S
O11 C7 1.241 . S
O12 Co0 2.137 . S
O12 C3 1.247 . S
O13 Co0 2.244 . S
O13 C3 1.272 . S
O13 Co5 2.135 . S
Co14 O15 2.216 . S
Co14 O16 2.091 . S
Co14 O18 2.004 . S
Co14 O24 2.021 . S
Co14 O26 2.137 . S
Co14 O27 2.244 . S
O15 Co14 2.216 . S
O15 C22 1.247 . S
O16 Co14 2.091 . S
O16 C22 1.261 . S
C17 O26 1.247 . S
C17 O27 1.272 . S
O18 Co14 2.004 . S
O18 C23 1.259 . S
Co19 O20 2.061 . S
Co19 O25 2.052 . S
Co19 O27 2.135 . S
O20 Co19 2.061 . S
O20 C23 1.235 . S
C21 O24 1.238 . S
C21 O25 1.241 . S
C22 O15 1.247 . S
C22 O16 1.261 . S
C23 O18 1.259 . S
C23 O20 1.235 . S
O24 Co14 2.021 . S
O24 C21 1.238 . S
O25 Co19 2.052 . S
O25 C21 1.241 . S
O26 Co14 2.137 . S
O26 C17 1.247 . S
O27 Co14 2.244 . S
O27 C17 1.272 . S
O27 Co19 2.135 . S
Co28 O29 2.216 . S
Co28 O30 2.091 . S
Co28 O32 2.004 . S
Co28 O38 2.021 . S
Co28 O40 2.137 . S
Co28 O41 2.244 . S
O29 Co28 2.216 . S
O29 C36 1.247 . S
O30 Co28 2.091 . S
O30 C36 1.261 . S
C31 O40 1.247 . S
C31 O41 1.272 . S
O32 Co28 2.004 . S
O32 C37 1.259 . S
Co33 O34 2.061 . S
Co33 O39 2.052 . S
Co33 O41 2.135 . S
O34 Co33 2.061 . S
O34 C37 1.235 . S
C35 O38 1.238 . S
C35 O39 1.241 . S
C36 O29 1.247 . S
C36 O30 1.261 . S
C37 O32 1.259 . S
C37 O34 1.235 . S
O38 Co28 2.021 . S
O38 C35 1.238 . S
O39 Co33 2.052 . S
O39 C35 1.241 . S
O40 Co28 2.137 . S
O40 C31 1.247 . S
O41 Co28 2.244 . S
O41 C31 1.272 . S
O41 Co33 2.135 . S
Co42 O43 2.216 . S
Co42 O44 2.091 . S
Co42 O46 2.004 . S
Co42 O52 2.021 . S
Co42 O54 2.137 . S
Co42 O55 2.244 . S
O43 Co42 2.216 . S
O43 C50 1.247 . S
O44 Co42 2.091 . S
O44 C50 1.261 . S
C45 O54 1.247 . S
C45 O55 1.272 . S
O46 Co42 2.004 . S
O46 C51 1.259 . S
Co47 O48 2.061 . S
Co47 O53 2.052 1_554 S
Co47 O55 2.135 . S
O48 Co47 2.061 . S
O48 C51 1.235 . S
C49 O52 1.238 1_556 S
C49 O53 1.241 . S
C50 O43 1.247 . S
C50 O44 1.261 . S
C51 O46 1.259 . S
C51 O48 1.235 . S
O52 Co42 2.021 . S
O52 C49 1.238 1_554 S
O53 Co47 2.052 1_556 S
O53 C49 1.241 . S
O54 Co42 2.137 . S
O54 C45 1.247 . S
O55 Co42 2.244 . S
O55 C45 1.272 . S
O55 Co47 2.135 . S
Co56 O57 2.216 . S
Co56 O58 2.091 . S
Co56 O60 2.004 . S
Co56 O66 2.021 . S
Co56 O68 2.137 . S
Co56 O69 2.244 . S
O57 Co56 2.216 . S
O57 C64 1.247 . S
O58 Co56 2.091 . S
O58 C64 1.261 . S
C59 O68 1.247 . S
C59 O69 1.272 . S
O60 Co56 2.004 . S
O60 C65 1.259 . S
Co61 O62 2.061 . S
Co61 O67 2.052 . S
Co61 O69 2.135 . S
O62 Co61 2.061 . S
O62 C65 1.235 . S
C63 O66 1.238 . S
C63 O67 1.241 . S
C64 O57 1.247 . S
C64 O58 1.261 . S
C65 O60 1.259 . S
C65 O62 1.235 . S
O66 Co56 2.021 . S
O66 C63 1.238 . S
O67 Co61 2.052 . S
O67 C63 1.241 . S
O68 Co56 2.137 . S
O68 C59 1.247 . S
O69 Co56 2.244 . S
O69 C59 1.272 . S
O69 Co61 2.135 . S
Co70 O71 2.216 . S
Co70 O72 2.091 . S
Co70 O74 2.004 . S
Co70 O80 2.021 . S
Co70 O82 2.137 . S
Co70 O83 2.244 . S
O71 Co70 2.216 . S
O71 C78 1.247 . S
O72 Co70 2.091 . S
O72 C78 1.261 . S
C73 O82 1.247 . S
C73 O83 1.272 . S
O74 Co70 2.004 . S
O74 C79 1.259 . S
Co75 O76 2.061 . S
Co75 O81 2.052 . S
Co75 O83 2.135 . S
O76 Co75 2.061 . S
O76 C79 1.235 . S
C77 O80 1.238 . S
C77 O81 1.241 . S
C78 O71 1.247 . S
C78 O72 1.261 . S
C79 O74 1.259 . S
C79 O76 1.235 . S
O80 Co70 2.021 . S
O80 C77 1.238 . S
O81 Co75 2.052 . S
O81 C77 1.241 . S
O82 Co70 2.137 . S
O82 C73 1.247 . S
O83 Co70 2.244 . S
O83 C73 1.272 . S
O83 Co75 2.135 . S
Co84 O85 2.216 . S
Co84 O86 2.091 . S
Co84 O88 2.004 . S
Co84 O94 2.021 . S
Co84 O96 2.137 . S
Co84 O97 2.244 . S
O85 Co84 2.216 . S
O85 C92 1.247 . S
O86 Co84 2.091 . S
O86 C92 1.261 . S
C87 O96 1.247 . S
C87 O97 1.272 . S
O88 Co84 2.004 . S
O88 C93 1.259 . S
Co89 O90 2.061 . S
Co89 O95 2.052 . S
Co89 O97 2.135 . S
O90 Co89 2.061 . S
O90 C93 1.235 . S
C91 O94 1.238 . S
C91 O95 1.241 . S
C92 O85 1.247 . S
C92 O86 1.261 . S
C93 O88 1.259 . S
C93 O90 1.235 . S
O94 Co84 2.021 . S
O94 C91 1.238 . S
O95 Co89 2.052 . S
O95 C91 1.241 . S
O96 Co84 2.137 . S
O96 C87 1.247 . S
O97 Co84 2.244 . S
O97 C87 1.272 . S
O97 Co89 2.135 . S
Co98 O99 2.216 . S
Co98 O100 2.091 . S
Co98 O102 2.004 . S
Co98 O108 2.021 . S
Co98 O110 2.137 . S
Co98 O111 2.244 . S
O99 Co98 2.216 . S
O99 C106 1.247 . S
O100 Co98 2.091 . S
O100 C106 1.261 . S
C101 O110 1.247 . S
C101 O111 1.272 . S
O102 Co98 2.004 . S
O102 C107 1.259 . S
Co103 O104 2.061 . S
Co103 O109 2.052 1_556 S
Co103 O111 2.135 . S
O104 Co103 2.061 . S
O104 C107 1.235 . S
C105 O108 1.238 1_554 S
C105 O109 1.241 . S
C106 O99 1.247 . S
C106 O100 1.261 . S
C107 O102 1.259 . S
C107 O104 1.235 . S
O108 Co98 2.021 . S
O108 C105 1.238 1_556 S
O109 Co103 2.052 1_554 S
O109 C105 1.241 . S
O110 Co98 2.137 . S
O110 C101 1.247 . S
O111 Co98 2.244 . S
O111 C101 1.272 . S
O111 Co103 2.135 . S
Co112 O113 2.216 . S
Co112 O114 2.091 . S
Co112 O116 2.004 . S
Co112 O122 2.021 . S
Co112 O124 2.137 . S
Co112 O125 2.244 . S
O113 Co112 2.216 . S
O113 C120 1.247 . S
O114 Co112 2.091 . S
O114 C120 1.261 . S
C115 O124 1.247 . S
C115 O125 1.272 . S
O116 Co112 2.004 . S
O116 C121 1.259 . S
Co117 O118 2.061 . S
Co117 O123 2.052 . S
Co117 O125 2.135 . S
O118 Co117 2.061 . S
O118 C121 1.235 . S
C119 O122 1.238 . S
C119 O123 1.241 . S
C120 O113 1.247 . S
C120 O114 1.261 . S
C121 O116 1.259 . S
C121 O118 1.235 . S
O122 Co112 2.021 . S
O122 C119 1.238 . S
O123 Co117 2.052 . S
O123 C119 1.241 . S
O124 Co112 2.137 . S
O124 C115 1.247 . S
O125 Co112 2.244 . S
O125 C115 1.272 . S
O125 Co117 2.135 . S
Co126 O127 2.216 . S
Co126 O128 2.091 . S
Co126 O130 2.004 . S
Co126 O136 2.021 . S
Co126 O138 2.137 . S
Co126 O139 2.244 . S
O127 Co126 2.216 . S
O127 C134 1.247 . S
O128 Co126 2.091 . S
O128 C134 1.261 . S
C129 O138 1.247 . S
C129 O139 1.272 . S
O130 Co126 2.004 . S
O130 C135 1.259 . S
Co131 O132 2.061 . S
Co131 O137 2.052 . S
Co131 O139 2.135 . S
O132 Co131 2.061 . S
O132 C135 1.235 . S
C133 O136 1.238 . S
C133 O137 1.241 . S
C134 O127 1.247 . S
C134 O128 1.261 . S
C135 O130 1.259 . S
C135 O132 1.235 . S
O136 Co126 2.021 . S
O136 C133 1.238 . S
O137 Co131 2.052 . S
O137 C133 1.241 . S
O138 Co126 2.137 . S
O138 C129 1.247 . S
O139 Co126 2.244 . S
O139 C129 1.272 . S
O139 Co131 2.135 . S
Co140 O141 2.216 . S
Co140 O142 2.091 . S
Co140 O144 2.004 . S
Co140 O150 2.021 . S
Co140 O152 2.137 . S
Co140 O153 2.244 . S
O141 Co140 2.216 . S
O141 C148 1.247 . S
O142 Co140 2.091 . S
O142 C148 1.261 . S
C143 O152 1.247 . S
C143 O153 1.272 . S
O144 Co140 2.004 . S
O144 C149 1.259 . S
Co145 O146 2.061 . S
Co145 O151 2.052 . S
Co145 O153 2.135 . S
O146 Co145 2.061 . S
O146 C149 1.235 . S
C147 O150 1.238 . S
C147 O151 1.241 . S
C148 O141 1.247 . S
C148 O142 1.261 . S
C149 O144 1.259 . S
C149 O146 1.235 . S
O150 Co140 2.021 . S
O150 C147 1.238 . S
O151 Co145 2.052 . S
O151 C147 1.241 . S
O152 Co140 2.137 . S
O152 C143 1.247 . S
O153 Co140 2.244 . S
O153 C143 1.272 . S
O153 Co145 2.135 . S
Co154 O155 2.216 . S
Co154 O156 2.091 . S
Co154 O158 2.004 . S
Co154 O164 2.021 . S
Co154 O166 2.137 . S
Co154 O167 2.244 . S
O155 Co154 2.216 . S
O155 C162 1.247 . S
O156 Co154 2.091 . S
O156 C162 1.261 . S
C157 O166 1.247 . S
C157 O167 1.272 . S
O158 Co154 2.004 . S
O158 C163 1.259 . S
Co159 O160 2.061 . S
Co159 O165 2.052 1_556 S
Co159 O167 2.135 . S
O160 Co159 2.061 . S
O160 C163 1.235 . S
C161 O164 1.238 1_554 S
C161 O165 1.241 . S
C162 O155 1.247 . S
C162 O156 1.261 . S
C163 O158 1.259 . S
C163 O160 1.235 . S
O164 Co154 2.021 . S
O164 C161 1.238 1_556 S
O165 Co159 2.052 1_554 S
O165 C161 1.241 . S
O166 Co154 2.137 . S
O166 C157 1.247 . S
O167 Co154 2.244 . S
O167 C157 1.272 . S
O167 Co159 2.135 . S
Co168 O169 2.216 . S
Co168 O170 2.091 . S
Co168 O172 2.004 . S
Co168 O178 2.021 . S
Co168 O180 2.137 . S
Co168 O181 2.244 . S
O169 Co168 2.216 . S
O169 C176 1.247 . S
O170 Co168 2.091 . S
O170 C176 1.261 . S
C171 O180 1.247 . S
C171 O181 1.272 . S
O172 Co168 2.004 . S
O172 C177 1.259 . S
Co173 O174 2.061 . S
Co173 O179 2.052 . S
Co173 O181 2.135 . S
O174 Co173 2.061 . S
O174 C177 1.235 . S
C175 O178 1.238 . S
C175 O179 1.241 . S
C176 O169 1.247 . S
C176 O170 1.261 . S
C177 O172 1.259 . S
C177 O174 1.235 . S
O178 Co168 2.021 . S
O178 C175 1.238 . S
O179 Co173 2.052 . S
O179 C175 1.241 . S
O180 Co168 2.137 . S
O180 C171 1.247 . S
O181 Co168 2.244 . S
O181 C171 1.272 . S
O181 Co173 2.135 . S
Co182 O183 2.216 . S
Co182 O184 2.091 . S
Co182 O186 2.004 . S
Co182 O192 2.021 . S
Co182 O194 2.137 . S
Co182 O195 2.244 . S
O183 Co182 2.216 . S
O183 C190 1.247 . S
O184 Co182 2.091 . S
O184 C190 1.261 . S
C185 O194 1.247 . S
C185 O195 1.272 . S
O186 Co182 2.004 . S
O186 C191 1.259 . S
Co187 O188 2.061 . S
Co187 O193 2.052 . S
Co187 O195 2.135 . S
O188 Co187 2.061 . S
O188 C191 1.235 . S
C189 O192 1.238 . S
C189 O193 1.241 . S
C190 O183 1.247 . S
C190 O184 1.261 . S
C191 O186 1.259 . S
C191 O188 1.235 . S
O192 Co182 2.021 . S
O192 C189 1.238 . S
O193 Co187 2.052 . S
O193 C189 1.241 . S
O194 Co182 2.137 . S
O194 C185 1.247 . S
O195 Co182 2.244 . S
O195 C185 1.272 . S
O195 Co187 2.135 . S
Co196 O197 2.216 . S
Co196 O198 2.091 . S
Co196 O200 2.004 . S
Co196 O206 2.021 . S
Co196 O208 2.137 . S
Co196 O209 2.244 . S
O197 Co196 2.216 . S
O197 C204 1.247 . S
O198 Co196 2.091 . S
O198 C204 1.261 . S
C199 O208 1.247 . S
C199 O209 1.272 . S
O200 Co196 2.004 . S
O200 C205 1.259 . S
Co201 O202 2.061 . S
Co201 O207 2.052 . S
Co201 O209 2.135 . S
O202 Co201 2.061 . S
O202 C205 1.235 . S
C203 O206 1.238 . S
C203 O207 1.241 . S
C204 O197 1.247 . S
C204 O198 1.261 . S
C205 O200 1.259 . S
C205 O202 1.235 . S
O206 Co196 2.021 . S
O206 C203 1.238 . S
O207 Co201 2.052 . S
O207 C203 1.241 . S
O208 Co196 2.137 . S
O208 C199 1.247 . S
O209 Co196 2.244 . S
O209 C199 1.272 . S
O209 Co201 2.135 . S
Co210 O211 2.216 . S
Co210 O212 2.091 . S
Co210 O214 2.004 . S
Co210 O220 2.021 . S
Co210 O222 2.137 . S
Co210 O223 2.244 . S
O211 Co210 2.216 . S
O211 C218 1.247 . S
O212 Co210 2.091 . S
O212 C218 1.261 . S
C213 O222 1.247 . S
C213 O223 1.272 . S
O214 Co210 2.004 . S
O214 C219 1.259 . S
Co215 O216 2.061 . S
Co215 O221 2.052 1_554 S
Co215 O223 2.135 . S
O216 Co215 2.061 . S
O216 C219 1.235 . S
C217 O220 1.238 1_556 S
C217 O221 1.241 . S
C218 O211 1.247 . S
C218 O212 1.261 . S
C219 O214 1.259 . S
C219 O216 1.235 . S
O220 Co210 2.021 . S
O220 C217 1.238 1_554 S
O221 Co215 2.052 1_556 S
O221 C217 1.241 . S
O222 Co210 2.137 . S
O222 C213 1.247 . S
O223 Co210 2.244 . S
O223 C213 1.272 . S
O223 Co215 2.135 . S
Co224 O225 2.216 . S
Co224 O226 2.091 . S
Co224 O228 2.004 . S
Co224 O234 2.021 . S
Co224 O236 2.137 . S
Co224 O237 2.244 . S
O225 Co224 2.216 . S
O225 C232 1.247 . S
O226 Co224 2.091 . S
O226 C232 1.261 . S
C227 O236 1.247 . S
C227 O237 1.272 . S
O228 Co224 2.004 . S
O228 C233 1.259 . S
Co229 O230 2.061 . S
Co229 O235 2.052 . S
Co229 O237 2.135 . S
O230 Co229 2.061 . S
O230 C233 1.235 . S
C231 O234 1.238 . S
C231 O235 1.241 . S
C232 O225 1.247 . S
C232 O226 1.261 . S
C233 O228 1.259 . S
C233 O230 1.235 . S
O234 Co224 2.021 . S
O234 C231 1.238 . S
O235 Co229 2.052 . S
O235 C231 1.241 . S
O236 Co224 2.137 . S
O236 C227 1.247 . S
O237 Co224 2.244 . S
O237 C227 1.272 . S
O237 Co229 2.135 . S
Co238 O239 2.216 . S
Co238 O240 2.091 . S
Co238 O242 2.004 . S
Co238 O248 2.021 . S
Co238 O250 2.137 . S
Co238 O251 2.244 . S
O239 Co238 2.216 . S
O239 C246 1.247 . S
O240 Co238 2.091 . S
O240 C246 1.261 . S
C241 O250 1.247 . S
C241 O251 1.272 . S
O242 Co238 2.004 . S
O242 C247 1.259 . S
Co243 O244 2.061 . S
Co243 O249 2.052 1_554 S
Co243 O251 2.135 . S
O244 Co243 2.061 . S
O244 C247 1.235 . S
C245 O248 1.238 1_556 S
C245 O249 1.241 . S
C246 O239 1.247 . S
C246 O240 1.261 . S
C247 O242 1.259 . S
C247 O244 1.235 . S
O248 Co238 2.021 . S
O248 C245 1.238 1_554 S
O249 Co243 2.052 1_556 S
O249 C245 1.241 . S
O250 Co238 2.137 . S
O250 C241 1.247 . S
O251 Co238 2.244 . S
O251 C241 1.272 . S
O251 Co243 2.135 . S
Co252 O253 2.216 . S
Co252 O254 2.091 . S
Co252 O256 2.004 . S
Co252 O262 2.021 . S
Co252 O264 2.137 . S
Co252 O265 2.244 . S
O253 Co252 2.216 . S
O253 C260 1.247 . S
O254 Co252 2.091 . S
O254 C260 1.261 . S
C255 O264 1.247 . S
C255 O265 1.272 . S
O256 Co252 2.004 . S
O256 C261 1.259 . S
Co257 O258 2.061 . S
Co257 O263 2.052 . S
Co257 O265 2.135 . S
O258 Co257 2.061 . S
O258 C261 1.235 . S
C259 O262 1.238 . S
C259 O263 1.241 . S
C260 O253 1.247 . S
C260 O254 1.261 . S
C261 O256 1.259 . S
C261 O258 1.235 . S
O262 Co252 2.021 . S
O262 C259 1.238 . S
O263 Co257 2.052 . S
O263 C259 1.241 . S
O264 Co252 2.137 . S
O264 C255 1.247 . S
O265 Co252 2.244 . S
O265 C255 1.272 . S
O265 Co257 2.135 . S
Co266 O267 2.216 . S
Co266 O268 2.091 . S
Co266 O270 2.004 . S
Co266 O276 2.021 . S
Co266 O278 2.137 . S
Co266 O279 2.244 . S
O267 Co266 2.216 . S
O267 C274 1.247 . S
O268 Co266 2.091 . S
O268 C274 1.261 . S
C269 O278 1.247 . S
C269 O279 1.272 . S
O270 Co266 2.004 . S
O270 C275 1.259 . S
Co271 O272 2.061 . S
Co271 O277 2.052 . S
Co271 O279 2.135 . S
O272 Co271 2.061 . S
O272 C275 1.235 . S
C273 O276 1.238 . S
C273 O277 1.241 . S
C274 O267 1.247 . S
C274 O268 1.261 . S
C275 O270 1.259 . S
C275 O272 1.235 . S
O276 Co266 2.021 . S
O276 C273 1.238 . S
O277 Co271 2.052 . S
O277 C273 1.241 . S
O278 Co266 2.137 . S
O278 C269 1.247 . S
O279 Co266 2.244 . S
O279 C269 1.272 . S
O279 Co271 2.135 . S
Co280 O281 2.216 . S
Co280 O282 2.091 . S
Co280 O284 2.004 . S
Co280 O290 2.021 . S
Co280 O292 2.137 . S
Co280 O293 2.244 . S
O281 Co280 2.216 . S
O281 C288 1.247 . S
O282 Co280 2.091 . S
O282 C288 1.261 . S
C283 O292 1.247 . S
C283 O293 1.272 . S
O284 Co280 2.004 . S
O284 C289 1.259 . S
Co285 O286 2.061 . S
Co285 O291 2.052 . S
Co285 O293 2.135 . S
O286 Co285 2.061 . S
O286 C289 1.235 . S
C287 O290 1.238 . S
C287 O291 1.241 . S
C288 O281 1.247 . S
C288 O282 1.261 . S
C289 O284 1.259 . S
C289 O286 1.235 . S
O290 Co280 2.021 . S
O290 C287 1.238 . S
O291 Co285 2.052 . S
O291 C287 1.241 . S
O292 Co280 2.137 . S
O292 C283 1.247 . S
O293 Co280 2.244 . S
O293 C283 1.272 . S
O293 Co285 2.135 . S
Co294 O295 2.216 . S
Co294 O296 2.091 . S
Co294 O298 2.004 . S
Co294 O304 2.021 . S
Co294 O306 2.137 . S
Co294 O307 2.244 . S
O295 Co294 2.216 . S
O295 C302 1.247 . S
O296 Co294 2.091 . S
O296 C302 1.261 . S
C297 O306 1.247 . S
C297 O307 1.272 . S
O298 Co294 2.004 . S
O298 C303 1.259 . S
Co299 O300 2.061 . S
Co299 O305 2.052 1_556 S
Co299 O307 2.135 . S
O300 Co299 2.061 . S
O300 C303 1.235 . S
C301 O304 1.238 1_554 S
C301 O305 1.241 . S
C302 O295 1.247 . S
C302 O296 1.261 . S
C303 O298 1.259 . S
C303 O300 1.235 . S
O304 Co294 2.021 . S
O304 C301 1.238 1_556 S
O305 Co299 2.052 1_554 S
O305 C301 1.241 . S
O306 Co294 2.137 . S
O306 C297 1.247 . S
O307 Co294 2.244 . S
O307 C297 1.272 . S
O307 Co299 2.135 . S
Co308 O309 2.216 . S
Co308 O310 2.091 . S
Co308 O312 2.004 . S
Co308 O318 2.021 . S
Co308 O320 2.137 . S
Co308 O321 2.244 . S
O309 Co308 2.216 . S
O309 C316 1.247 . S
O310 Co308 2.091 . S
O310 C316 1.261 . S
C311 O320 1.247 . S
C311 O321 1.272 . S
O312 Co308 2.004 . S
O312 C317 1.259 . S
Co313 O314 2.061 . S
Co313 O319 2.052 . S
Co313 O321 2.135 . S
O314 Co313 2.061 . S
O314 C317 1.235 . S
C315 O318 1.238 . S
C315 O319 1.241 . S
C316 O309 1.247 . S
C316 O310 1.261 . S
C317 O312 1.259 . S
C317 O314 1.235 . S
O318 Co308 2.021 . S
O318 C315 1.238 . S
O319 Co313 2.052 . S
O319 C315 1.241 . S
O320 Co308 2.137 . S
O320 C311 1.247 . S
O321 Co308 2.244 . S
O321 C311 1.272 . S
O321 Co313 2.135 . S
Co322 O323 2.216 . S
Co322 O324 2.091 . S
Co322 O326 2.004 . S
Co322 O332 2.021 . S
Co322 O334 2.137 . S
Co322 O335 2.244 . S
O323 Co322 2.216 . S
O323 C330 1.247 . S
O324 Co322 2.091 . S
O324 C330 1.261 . S
C325 O334 1.247 . S
C325 O335 1.272 . S
O326 Co322 2.004 . S
O326 C331 1.259 . S
Co327 O328 2.061 . S
Co327 O333 2.052 . S
Co327 O335 2.135 . S
O328 Co327 2.061 . S
O328 C331 1.235 . S
C329 O332 1.238 . S
C329 O333 1.241 . S
C330 O323 1.247 . S
C330 O324 1.261 . S
C331 O326 1.259 . S
C331 O328 1.235 . S
O332 Co322 2.021 . S
O332 C329 1.238 . S
O333 Co327 2.052 . S
O333 C329 1.241 . S
O334 Co322 2.137 . S
O334 C325 1.247 . S
O335 Co322 2.244 . S
O335 C325 1.272 . S
O335 Co327 2.135 . S
Co336 O337 2.216 . S
Co336 O338 2.091 . S
Co336 O340 2.004 . S
Co336 O346 2.021 . S
Co336 O348 2.137 . S
Co336 O349 2.244 . S
O337 Co336 2.216 . S
O337 C344 1.247 . S
O338 Co336 2.091 . S
O338 C344 1.261 . S
C339 O348 1.247 . S
C339 O349 1.272 . S
O340 Co336 2.004 . S
O340 C345 1.259 . S
Co341 O342 2.061 . S
Co341 O347 2.052 . S
Co341 O349 2.135 . S
O342 Co341 2.061 . S
O342 C345 1.235 . S
C343 O346 1.238 . S
C343 O347 1.241 . S
C344 O337 1.247 . S
C344 O338 1.261 . S
C345 O340 1.259 . S
C345 O342 1.235 . S
O346 Co336 2.021 . S
O346 C343 1.238 . S
O347 Co341 2.052 . S
O347 C343 1.241 . S
O348 Co336 2.137 . S
O348 C339 1.247 . S
O349 Co336 2.244 . S
O349 C339 1.272 . S
O349 Co341 2.135 . S
Co350 O351 2.216 . S
Co350 O352 2.091 . S
Co350 O354 2.004 . S
Co350 O360 2.021 . S
Co350 O362 2.137 . S
Co350 O363 2.244 . S
O351 Co350 2.216 . S
O351 C358 1.247 . S
O352 Co350 2.091 . S
O352 C358 1.261 . S
C353 O362 1.247 . S
C353 O363 1.272 . S
O354 Co350 2.004 . S
O354 C359 1.259 . S
Co355 O356 2.061 . S
Co355 O361 2.052 1_556 S
Co355 O363 2.135 . S
O356 Co355 2.061 . S
O356 C359 1.235 . S
C357 O360 1.238 1_554 S
C357 O361 1.241 . S
C358 O351 1.247 . S
C358 O352 1.261 . S
C359 O354 1.259 . S
C359 O356 1.235 . S
O360 Co350 2.021 . S
O360 C357 1.238 1_556 S
O361 Co355 2.052 1_554 S
O361 C357 1.241 . S
O362 Co350 2.137 . S
O362 C353 1.247 . S
O363 Co350 2.244 . S
O363 C353 1.272 . S
O363 Co355 2.135 . S
Co364 O365 2.216 . S
Co364 O366 2.091 . S
Co364 O368 2.004 . S
Co364 O374 2.021 . S
Co364 O376 2.137 . S
Co364 O377 2.244 . S
O365 Co364 2.216 . S
O365 C372 1.247 . S
O366 Co364 2.091 . S
O366 C372 1.261 . S
C367 O376 1.247 . S
C367 O377 1.272 . S
O368 Co364 2.004 . S
O368 C373 1.259 . S
Co369 O370 2.061 . S
Co369 O375 2.052 . S
Co369 O377 2.135 . S
O370 Co369 2.061 . S
O370 C373 1.235 . S
C371 O374 1.238 . S
C371 O375 1.241 . S
C372 O365 1.247 . S
C372 O366 1.261 . S
C373 O368 1.259 . S
C373 O370 1.235 . S
O374 Co364 2.021 . S
O374 C371 1.238 . S
O375 Co369 2.052 . S
O375 C371 1.241 . S
O376 Co364 2.137 . S
O376 C367 1.247 . S
O377 Co364 2.244 . S
O377 C367 1.272 . S
O377 Co369 2.135 . S
Co378 O379 2.216 . S
Co378 O380 2.091 . S
Co378 O382 2.004 . S
Co378 O388 2.021 . S
Co378 O390 2.137 . S
Co378 O391 2.244 . S
O379 Co378 2.216 . S
O379 C386 1.247 . S
O380 Co378 2.091 . S
O380 C386 1.261 . S
C381 O390 1.247 . S
C381 O391 1.272 . S
O382 Co378 2.004 . S
O382 C387 1.259 . S
Co383 O384 2.061 . S
Co383 O389 2.052 . S
Co383 O391 2.135 . S
O384 Co383 2.061 . S
O384 C387 1.235 . S
C385 O388 1.238 . S
C385 O389 1.241 . S
C386 O379 1.247 . S
C386 O380 1.261 . S
C387 O382 1.259 . S
C387 O384 1.235 . S
O388 Co378 2.021 . S
O388 C385 1.238 . S
O389 Co383 2.052 . S
O389 C385 1.241 . S
O390 Co378 2.137 . S
O390 C381 1.247 . S
O391 Co378 2.244 . S
O391 C381 1.272 . S
O391 Co383 2.135 . S
Co392 O393 2.216 . S
Co392 O394 2.091 . S
Co392 O396 2.004 . S
Co392 O402 2.021 . S
Co392 O404 2.137 . S
Co392 O405 2.244 . S
O393 Co392 2.216 . S
O393 C400 1.247 . S
O394 Co392 2.091 . S
O394 C400 1.261 . S
C395 O404 1.247 . S
C395 O405 1.272 . S
O396 Co392 2.004 . S
O396 C401 1.259 . S
Co397 O398 2.061 . S
Co397 O403 2.052 . S
Co397 O405 2.135 . S
O398 Co397 2.061 . S
O398 C401 1.235 . S
C399 O402 1.238 . S
C399 O403 1.241 . S
C400 O393 1.247 . S
C400 O394 1.261 . S
C401 O396 1.259 . S
C401 O398 1.235 . S
O402 Co392 2.021 . S
O402 C399 1.238 . S
O403 Co397 2.052 . S
O403 C399 1.241 . S
O404 Co392 2.137 . S
O404 C395 1.247 . S
O405 Co392 2.244 . S
O405 C395 1.272 . S
O405 Co397 2.135 . S
Co406 O407 2.216 . S
Co406 O408 2.091 . S
Co406 O410 2.004 . S
Co406 O416 2.021 . S
Co406 O418 2.137 . S
Co406 O419 2.244 . S
O407 Co406 2.216 . S
O407 C414 1.247 . S
O408 Co406 2.091 . S
O408 C414 1.261 . S
C409 O418 1.247 . S
C409 O419 1.272 . S
O410 Co406 2.004 . S
O410 C415 1.259 . S
Co411 O412 2.061 . S
Co411 O417 2.052 1_554 S
Co411 O419 2.135 . S
O412 Co411 2.061 . S
O412 C415 1.235 . S
C413 O416 1.238 1_556 S
C413 O417 1.241 . S
C414 O407 1.247 . S
C414 O408 1.261 . S
C415 O410 1.259 . S
C415 O412 1.235 . S
O416 Co406 2.021 . S
O416 C413 1.238 1_554 S
O417 Co411 2.052 1_556 S
O417 C413 1.241 . S
O418 Co406 2.137 . S
O418 C409 1.247 . S
O419 Co406 2.244 . S
O419 C409 1.272 . S
O419 Co411 2.135 . S
Co420 O421 2.216 . S
Co420 O422 2.091 . S
Co420 O424 2.004 . S
Co420 O430 2.021 . S
Co420 O432 2.137 . S
Co420 O433 2.244 . S
O421 Co420 2.216 . S
O421 C428 1.247 . S
O422 Co420 2.091 . S
O422 C428 1.261 . S
C423 O432 1.247 . S
C423 O433 1.272 . S
O424 Co420 2.004 . S
O424 C429 1.259 . S
Co425 O426 2.061 . S
Co425 O431 2.052 . S
Co425 O433 2.135 . S
O426 Co425 2.061 . S
O426 C429 1.235 . S
C427 O430 1.238 . S
C427 O431 1.241 . S
C428 O421 1.247 . S
C428 O422 1.261 . S
C429 O424 1.259 . S
C429 O426 1.235 . S
O430 Co420 2.021 . S
O430 C427 1.238 . S
O431 Co425 2.052 . S
O431 C427 1.241 . S
O432 Co420 2.137 . S
O432 C423 1.247 . S
O433 Co420 2.244 . S
O433 C423 1.272 . S
O433 Co425 2.135 . S
Co434 O435 2.216 . S
Co434 O436 2.091 . S
Co434 O438 2.004 . S
Co434 O444 2.021 . S
Co434 O446 2.137 . S
Co434 O447 2.244 . S
O435 Co434 2.216 . S
O435 C442 1.247 . S
O436 Co434 2.091 . S
O436 C442 1.261 . S
C437 O446 1.247 . S
C437 O447 1.272 . S
O438 Co434 2.004 . S
O438 C443 1.259 . S
Co439 O440 2.061 . S
Co439 O445 2.052 . S
Co439 O447 2.135 . S
O440 Co439 2.061 . S
O440 C443 1.235 . S
C441 O444 1.238 . S
C441 O445 1.241 . S
C442 O435 1.247 . S
C442 O436 1.261 . S
C443 O438 1.259 . S
C443 O440 1.235 . S
O444 Co434 2.021 . S
O444 C441 1.238 . S
O445 Co439 2.052 . S
O445 C441 1.241 . S
O446 Co434 2.137 . S
O446 C437 1.247 . S
O447 Co434 2.244 . S
O447 C437 1.272 . S
O447 Co439 2.135 . S
H448 C456 0.950 . S
H449 C461 0.950 . S
H450 C458 0.950 . S
H451 C460 0.950 . S
H452 C462 0.950 . S
H453 C464 0.950 . S
H454 C466 0.950 . S
H455 C467 0.950 . S
C456 H448 0.950 . S
C456 C457 1.386 . S
C456 C458 1.391 . S
C457 C456 1.386 . S
C457 C461 1.393 . S
C458 H450 0.950 . S
C458 C456 1.391 . S
C458 C459 1.400 . S
C459 C458 1.400 . S
C459 C460 1.398 . S
C459 C465 1.491 . S
C460 H451 0.950 . S
C460 C459 1.398 . S
C460 C461 1.391 . S
C461 H449 0.950 . S
C461 C457 1.393 . S
C461 C460 1.391 . S
C462 H452 0.950 . S
C462 C463 1.386 . S
C462 C464 1.391 . S
C463 C462 1.386 . S
C463 C467 1.393 . S
C464 H453 0.950 . S
C464 C462 1.391 . S
C464 C465 1.400 . S
C465 C459 1.491 . S
C465 C464 1.400 . S
C465 C466 1.398 . S
C466 H454 0.950 . S
C466 C465 1.398 . S
C466 C467 1.391 . S
C467 H455 0.950 . S
C467 C463 1.393 . S
C467 C466 1.391 . S
H468 C476 0.950 . S
H469 C481 0.950 . S
H470 C478 0.950 . S
H471 C480 0.950 . S
H472 C482 0.950 . S
H473 C484 0.950 . S
H474 C486 0.950 . S
H475 C487 0.950 . S
C476 H468 0.950 . S
C476 C477 1.365 1_455 S
C476 C478 1.391 . S
C477 C476 1.365 1_655 S
C477 C481 1.370 1_655 S
C478 H470 0.950 . S
C478 C476 1.391 . S
C478 C479 1.400 . S
C479 C478 1.400 . S
C479 C480 1.398 . S
C479 C485 1.491 . S
C480 H471 0.950 . S
C480 C479 1.398 . S
C480 C481 1.391 . S
C481 H469 0.950 . S
C481 C477 1.370 1_455 S
C481 C480 1.391 . S
C482 H472 0.950 . S
C482 C483 1.386 . S
C482 C484 1.391 . S
C483 C482 1.386 . S
C483 C487 1.393 . S
C484 H473 0.950 . S
C484 C482 1.391 . S
C484 C485 1.400 . S
C485 C479 1.491 . S
C485 C484 1.400 . S
C485 C486 1.398 . S
C486 H474 0.950 . S
C486 C485 1.398 . S
C486 C487 1.391 . S
C487 H475 0.950 . S
C487 C483 1.393 . S
C487 C486 1.391 . S
H488 C496 0.950 . S
H489 C501 0.950 . S
H490 C498 0.950 . S
H491 C500 0.950 . S
H492 C502 0.950 . S
H493 C504 0.950 . S
H494 C506 0.950 . S
H495 C507 0.950 . S
C496 H488 0.950 . S
C496 C497 1.386 . S
C496 C498 1.391 . S
C497 C496 1.386 . S
C497 C501 1.393 . S
C498 H490 0.950 . S
C498 C496 1.391 . S
C498 C499 1.400 . S
C499 C498 1.400 . S
C499 C500 1.398 . S
C499 C505 1.491 . S
C500 H491 0.950 . S
C500 C499 1.398 . S
C500 C501 1.391 . S
C501 H489 0.950 . S
C501 C497 1.393 . S
C501 C500 1.391 . S
C502 H492 0.950 . S
C502 C503 1.386 . S
C502 C504 1.391 . S
C503 C502 1.386 . S
C503 C507 1.393 . S
C504 H493 0.950 . S
C504 C502 1.391 . S
C504 C505 1.400 . S
C505 C499 1.491 . S
C505 C504 1.400 . S
C505 C506 1.398 . S
C506 H494 0.950 . S
C506 C505 1.398 . S
C506 C507 1.391 . S
C507 H495 0.950 . S
C507 C503 1.393 . S
C507 C506 1.391 . S
H508 C516 0.950 . S
H509 C521 0.950 . S
H510 C518 0.950 . S
H511 C520 0.950 . S
H512 C522 0.950 . S
H513 C524 0.950 . S
H514 C526 0.950 . S
H515 C527 0.950 . S
C516 H508 0.950 . S
C516 C517 1.386 . S
C516 C518 1.391 . S
C517 C516 1.386 . S
C517 C521 1.393 . S
C518 H510 0.950 . S
C518 C516 1.391 . S
C518 C519 1.400 . S
C519 C518 1.400 . S
C519 C520 1.398 . S
C519 C525 1.491 . S
C520 H511 0.950 . S
C520 C519 1.398 . S
C520 C521 1.391 . S
C521 H509 0.950 . S
C521 C517 1.393 . S
C521 C520 1.391 . S
C522 H512 0.950 . S
C522 C523 1.386 . S
C522 C524 1.391 . S
C523 C522 1.386 . S
C523 C527 1.393 . S
C524 H513 0.950 . S
C524 C522 1.391 . S
C524 C525 1.400 . S
C525 C519 1.491 . S
C525 C524 1.400 . S
C525 C526 1.398 . S
C526 H514 0.950 . S
C526 C525 1.398 . S
C526 C527 1.391 . S
C527 H515 0.950 . S
C527 C523 1.393 . S
C527 C526 1.391 . S
H528 C536 0.950 . S
H529 C541 0.950 . S
H530 C538 0.950 . S
H531 C540 0.950 . S
H532 C542 0.950 . S
H533 C544 0.950 . S
H534 C546 0.950 . S
H535 C547 0.950 . S
C536 H528 0.950 . S
C536 C537 1.386 . S
C536 C538 1.391 . S
C537 C536 1.386 . S
C537 C541 1.393 . S
C538 H530 0.950 . S
C538 C536 1.391 . S
C538 C539 1.400 . S
C539 C538 1.400 . S
C539 C540 1.398 . S
C539 C545 1.491 . S
C540 H531 0.950 . S
C540 C539 1.398 . S
C540 C541 1.391 . S
C541 H529 0.950 . S
C541 C537 1.393 . S
C541 C540 1.391 . S
C542 H532 0.950 . S
C542 C543 1.386 . S
C542 C544 1.391 . S
C543 C542 1.386 . S
C543 C547 1.393 . S
C544 H533 0.950 . S
C544 C542 1.391 . S
C544 C545 1.400 . S
C545 C539 1.491 . S
C545 C544 1.400 . S
C545 C546 1.398 . S
C546 H534 0.950 . S
C546 C545 1.398 . S
C546 C547 1.391 . S
C547 H535 0.950 . S
C547 C543 1.393 . S
C547 C546 1.391 . S
H548 C556 0.950 . S
H549 C561 0.950 . S
H550 C558 0.950 . S
H551 C560 0.950 . S
H552 C562 0.950 . S
H553 C564 0.950 . S
H554 C566 0.950 . S
H555 C567 0.950 . S
C556 H548 0.950 . S
C556 C557 1.386 . S
C556 C558 1.391 . S
C557 C556 1.386 . S
C557 C561 1.393 . S
C558 H550 0.950 . S
C558 C556 1.391 . S
C558 C559 1.400 . S
C559 C558 1.400 . S
C559 C560 1.398 . S
C559 C565 1.491 . S
C560 H551 0.950 . S
C560 C559 1.398 . S
C560 C561 1.391 . S
C561 H549 0.950 . S
C561 C557 1.393 . S
C561 C560 1.391 . S
C562 H552 0.950 . S
C562 C563 1.386 . S
C562 C564 1.391 . S
C563 C562 1.386 . S
C563 C567 1.393 . S
C564 H553 0.950 . S
C564 C562 1.391 . S
C564 C565 1.400 . S
C565 C559 1.491 . S
C565 C564 1.400 . S
C565 C566 1.398 . S
C566 H554 0.950 . S
C566 C565 1.398 . S
C566 C567 1.391 . S
C567 H555 0.950 . S
C567 C563 1.393 . S
C567 C566 1.391 . S
H568 C576 0.950 . S
H569 C581 0.950 . S
H570 C578 0.950 . S
H571 C580 0.950 . S
H572 C582 0.950 . S
H573 C584 0.950 . S
H574 C586 0.950 . S
H575 C587 0.950 . S
C576 H568 0.950 . S
C576 C577 1.386 . S
C576 C578 1.391 . S
C577 C576 1.386 . S
C577 C581 1.393 . S
C578 H570 0.950 . S
C578 C576 1.391 . S
C578 C579 1.400 . S
C579 C578 1.400 . S
C579 C580 1.398 . S
C579 C585 1.491 . S
C580 H571 0.950 . S
C580 C579 1.398 . S
C580 C581 1.391 . S
C581 H569 0.950 . S
C581 C577 1.393 . S
C581 C580 1.391 . S
C582 H572 0.950 . S
C582 C583 1.386 . S
C582 C584 1.391 . S
C583 C582 1.386 . S
C583 C587 1.393 . S
C584 H573 0.950 . S
C584 C582 1.391 . S
C584 C585 1.400 . S
C585 C579 1.491 . S
C585 C584 1.400 . S
C585 C586 1.398 . S
C586 H574 0.950 . S
C586 C585 1.398 . S
C586 C587 1.391 . S
C587 H575 0.950 . S
C587 C583 1.393 . S
C587 C586 1.391 . S
H588 C596 0.950 . S
H589 C601 0.950 . S
H590 C598 0.950 . S
H591 C600 0.950 . S
H592 C602 0.955 . S
H593 C604 0.950 . S
H594 C606 0.950 . S
H595 C607 0.950 . S
C596 H588 0.950 . S
C596 C597 1.386 . S
C596 C598 1.391 . S
C597 C596 1.386 . S
C597 C601 1.393 . S
C598 H590 0.950 . S
C598 C596 1.391 . S
C598 C599 1.400 . S
C599 C598 1.400 . S
C599 C600 1.398 . S
C599 C605 1.491 . S
C600 H591 0.950 . S
C600 C599 1.398 . S
C600 C601 1.391 . S
C601 H589 0.950 . S
C601 C597 1.393 . S
C601 C600 1.391 . S
C602 H592 0.955 . S
C602 C603 1.386 . S
C602 C604 1.386 1_655 S
C603 C602 1.386 . S
C603 C607 1.380 1_655 S
C604 H593 0.950 . S
C604 C602 1.386 1_455 S
C604 C605 1.400 . S
C605 C599 1.491 . S
C605 C604 1.400 . S
C605 C606 1.398 . S
C606 H594 0.950 . S
C606 C605 1.398 . S
C606 C607 1.391 . S
C607 H595 0.950 . S
C607 C603 1.380 1_455 S
C607 C606 1.391 . S
H608 C616 0.950 . S
H609 C621 0.950 . S
H610 C618 0.950 . S
H611 C620 0.950 . S
H612 C622 0.950 . S
H613 C624 0.950 . S
H614 C626 0.950 . S
H615 C627 0.950 . S
C616 H608 0.950 . S
C616 C617 1.386 . S
C616 C618 1.391 . S
C617 C616 1.386 . S
C617 C621 1.393 . S
C618 H610 0.950 . S
C618 C616 1.391 . S
C618 C619 1.400 . S
C619 C618 1.400 . S
C619 C620 1.398 . S
C619 C625 1.491 . S
C620 H611 0.950 . S
C620 C619 1.398 . S
C620 C621 1.391 . S
C621 H609 0.950 . S
C621 C617 1.393 . S
C621 C620 1.391 . S
C622 H612 0.950 . S
C622 C623 1.386 . S
C622 C624 1.391 . S
C623 C622 1.386 . S
C623 C627 1.393 . S
C624 H613 0.950 . S
C624 C622 1.391 . S
C624 C625 1.400 . S
C625 C619 1.491 . S
C625 C624 1.400 . S
C625 C626 1.398 . S
C626 H614 0.950 . S
C626 C625 1.398 . S
C626 C627 1.391 . S
C627 H615 0.950 . S
C627 C623 1.393 . S
C627 C626 1.391 . S
H628 C636 0.962 . S
H629 C641 0.950 . S
H630 C638 0.950 . S
H631 C640 0.950 . S
H632 C642 0.950 . S
H633 C644 0.950 . S
H634 C646 0.950 . S
H635 C647 0.950 . S
C636 H628 0.962 . S
C636 C637 1.386 . S
C636 C638 1.379 1_455 S
C637 C636 1.386 . S
C637 C641 1.379 1_455 S
C638 H630 0.950 . S
C638 C636 1.379 1_655 S
C638 C639 1.400 . S
C639 C638 1.400 . S
C639 C640 1.398 . S
C639 C645 1.491 . S
C640 H631 0.950 . S
C640 C639 1.398 . S
C640 C641 1.391 . S
C641 H629 0.950 . S
C641 C637 1.379 1_655 S
C641 C640 1.391 . S
C642 H632 0.950 . S
C642 C643 1.386 . S
C642 C644 1.391 . S
C643 C642 1.386 . S
C643 C647 1.393 . S
C644 H633 0.950 . S
C644 C642 1.391 . S
C644 C645 1.400 . S
C645 C639 1.491 . S
C645 C644 1.400 . S
C645 C646 1.398 . S
C646 H634 0.950 . S
C646 C645 1.398 . S
C646 C647 1.391 . S
C647 H635 0.950 . S
C647 C643 1.393 . S
C647 C646 1.391 . S
H648 C656 0.950 . S
H649 C661 0.950 . S
H650 C658 0.950 . S
H651 C660 0.950 . S
H652 C662 0.950 . S
H653 C664 0.950 . S
H654 C666 0.950 . S
H655 C667 0.950 . S
C656 H648 0.950 . S
C656 C657 1.386 . S
C656 C658 1.391 . S
C657 C656 1.386 . S
C657 C661 1.393 . S
C658 H650 0.950 . S
C658 C656 1.391 . S
C658 C659 1.400 . S
C659 C658 1.400 . S
C659 C660 1.398 . S
C659 C665 1.491 . S
C660 H651 0.950 . S
C660 C659 1.398 . S
C660 C661 1.391 . S
C661 H649 0.950 . S
C661 C657 1.393 . S
C661 C660 1.391 . S
C662 H652 0.950 . S
C662 C663 1.386 . S
C662 C664 1.391 . S
C663 C662 1.386 . S
C663 C667 1.393 . S
C664 H653 0.950 . S
C664 C662 1.391 . S
C664 C665 1.400 . S
C665 C659 1.491 . S
C665 C664 1.400 . S
C665 C666 1.398 . S
C666 H654 0.950 . S
C666 C665 1.398 . S
C666 C667 1.391 . S
C667 H655 0.950 . S
C667 C663 1.393 . S
C667 C666 1.391 . S
H668 C676 0.950 . S
H669 C681 0.950 . S
H670 C678 0.950 . S
H671 C680 0.950 . S
H672 C682 0.950 . S
H673 C684 0.950 . S
H674 C686 0.950 . S
H675 C687 0.950 . S
C676 H668 0.950 . S
C676 C677 1.386 . S
C676 C678 1.391 . S
C677 C676 1.386 . S
C677 C681 1.393 . S
C678 H670 0.950 . S
C678 C676 1.391 . S
C678 C679 1.400 . S
C679 C678 1.400 . S
C679 C680 1.398 . S
C679 C685 1.491 . S
C680 H671 0.950 . S
C680 C679 1.398 . S
C680 C681 1.391 . S
C681 H669 0.950 . S
C681 C677 1.393 . S
C681 C680 1.391 . S
C682 H672 0.950 . S
C682 C683 1.386 . S
C682 C684 1.391 . S
C683 C682 1.386 . S
C683 C687 1.393 . S
C684 H673 0.950 . S
C684 C682 1.391 . S
C684 C685 1.400 . S
C685 C679 1.491 . S
C685 C684 1.400 . S
C685 C686 1.398 . S
C686 H674 0.950 . S
C686 C685 1.398 . S
C686 C687 1.391 . S
C687 H675 0.950 . S
C687 C683 1.393 . S
C687 C686 1.391 . S
H688 C696 0.950 . S
H689 C701 0.950 . S
H690 C698 0.950 . S
H691 C700 0.950 . S
H692 C702 0.950 . S
H693 C704 0.950 . S
H694 C706 0.950 . S
H695 C707 0.950 . S
C696 H688 0.950 . S
C696 C697 1.386 . S
C696 C698 1.391 . S
C697 C696 1.386 . S
C697 C701 1.393 . S
C698 H690 0.950 . S
C698 C696 1.391 . S
C698 C699 1.400 . S
C699 C698 1.400 . S
C699 C700 1.398 . S
C699 C705 1.491 . S
C700 H691 0.950 . S
C700 C699 1.398 . S
C700 C701 1.391 . S
C701 H689 0.950 . S
C701 C697 1.393 . S
C701 C700 1.391 . S
C702 H692 0.950 . S
C702 C703 1.386 . S
C702 C704 1.391 . S
C703 C702 1.386 . S
C703 C707 1.393 . S
C704 H693 0.950 . S
C704 C702 1.391 . S
C704 C705 1.400 . S
C705 C699 1.491 . S
C705 C704 1.400 . S
C705 C706 1.398 . S
C706 H694 0.950 . S
C706 C705 1.398 . S
C706 C707 1.391 . S
C707 H695 0.950 . S
C707 C703 1.393 . S
C707 C706 1.391 . S
H708 C716 0.950 . S
H709 C721 0.950 . S
H710 C718 0.950 . S
H711 C720 0.950 . S
H712 C722 0.950 . S
H713 C724 0.950 . S
H714 C726 0.950 . S
H715 C727 0.950 . S
C716 H708 0.950 . S
C716 C717 1.386 . S
C716 C718 1.391 . S
C717 C716 1.386 . S
C717 C721 1.393 . S
C718 H710 0.950 . S
C718 C716 1.391 . S
C718 C719 1.400 . S
C719 C718 1.400 . S
C719 C720 1.398 . S
C719 C725 1.491 . S
C720 H711 0.950 . S
C720 C719 1.398 . S
C720 C721 1.391 . S
C721 H709 0.950 . S
C721 C717 1.393 . S
C721 C720 1.391 . S
C722 H712 0.950 . S
C722 C723 1.386 . S
C722 C724 1.391 . S
C723 C722 1.386 . S
C723 C727 1.393 . S
C724 H713 0.950 . S
C724 C722 1.391 . S
C724 C725 1.400 . S
C725 C719 1.491 . S
C725 C724 1.400 . S
C725 C726 1.398 . S
C726 H714 0.950 . S
C726 C725 1.398 . S
C726 C727 1.391 . S
C727 H715 0.950 . S
C727 C723 1.393 . S
C727 C726 1.391 . S
H728 C736 0.950 . S
H729 C741 0.950 . S
H730 C738 0.950 . S
H731 C740 0.950 . S
H732 C742 0.950 . S
H733 C744 0.950 . S
H734 C746 0.950 . S
H735 C747 0.950 . S
C736 H728 0.950 . S
C736 C737 1.386 . S
C736 C738 1.391 . S
C737 C736 1.386 . S
C737 C741 1.393 . S
C738 H730 0.950 . S
C738 C736 1.391 . S
C738 C739 1.400 . S
C739 C738 1.400 . S
C739 C740 1.398 . S
C739 C745 1.491 . S
C740 H731 0.950 . S
C740 C739 1.398 . S
C740 C741 1.391 . S
C741 H729 0.950 . S
C741 C737 1.393 . S
C741 C740 1.391 . S
C742 H732 0.950 . S
C742 C743 1.386 . S
C742 C744 1.391 . S
C743 C742 1.386 . S
C743 C747 1.393 . S
C744 H733 0.950 . S
C744 C742 1.391 . S
C744 C745 1.400 . S
C745 C739 1.491 . S
C745 C744 1.400 . S
C745 C746 1.398 . S
C746 H734 0.950 . S
C746 C745 1.398 . S
C746 C747 1.391 . S
C747 H735 0.950 . S
C747 C743 1.393 . S
C747 C746 1.391 . S
H748 C756 0.950 . S
H749 C761 0.950 . S
H750 C758 0.950 . S
H751 C760 0.950 . S
H752 C762 0.950 . S
H753 C764 0.950 . S
H754 C766 0.950 . S
H755 C767 0.950 1_455 S
C756 H748 0.950 . S
C756 C757 1.386 . S
C756 C758 1.391 . S
C757 C756 1.386 . S
C757 C761 1.393 . S
C758 H750 0.950 . S
C758 C756 1.391 . S
C758 C759 1.400 . S
C759 C758 1.400 . S
C759 C760 1.398 . S
C759 C765 1.491 . S
C760 H751 0.950 . S
C760 C759 1.398 . S
C760 C761 1.391 . S
C761 H749 0.950 . S
C761 C757 1.393 . S
C761 C760 1.391 . S
C762 H752 0.950 . S
C762 C763 1.357 1_655 S
C762 C764 1.391 . S
C763 C762 1.357 1_455 S
C763 C767 1.378 1_455 S
C764 H753 0.950 . S
C764 C762 1.391 . S
C764 C765 1.400 . S
C765 C759 1.491 . S
C765 C764 1.400 . S
C765 C766 1.398 . S
C766 H754 0.950 . S
C766 C765 1.398 . S
C766 C767 1.391 . S
C767 H755 0.950 1_655 S
C767 C763 1.378 1_655 S
C767 C766 1.391 . S
H768 C776 0.950 . S
H769 C781 0.950 . S
H770 C778 0.950 . S
H771 C780 0.950 . S
H772 C782 0.950 . S
H773 C784 0.950 . S
H774 C786 0.950 . S
H775 C787 0.950 . S
C776 H768 0.950 . S
C776 C777 1.386 . S
C776 C778 1.391 . S
C777 C776 1.386 . S
C777 C781 1.393 . S
C778 H770 0.950 . S
C778 C776 1.391 . S
C778 C779 1.400 . S
C779 C778 1.400 . S
C779 C780 1.398 . S
C779 C785 1.491 . S
C780 H771 0.950 . S
C780 C779 1.398 . S
C780 C781 1.391 . S
C781 H769 0.950 . S
C781 C777 1.393 . S
C781 C780 1.391 . S
C782 H772 0.950 . S
C782 C783 1.386 . S
C782 C784 1.391 . S
C783 C782 1.386 . S
C783 C787 1.393 . S
C784 H773 0.950 . S
C784 C782 1.391 . S
C784 C785 1.400 . S
C785 C779 1.491 . S
C785 C784 1.400 . S
C785 C786 1.398 . S
C786 H774 0.950 . S
C786 C785 1.398 . S
C786 C787 1.391 . S
C787 H775 0.950 . S
C787 C783 1.393 . S
C787 C786 1.391 . S
H788 C796 0.950 . S
H789 C801 0.950 . S
H790 C798 0.950 . S
H791 C800 0.950 . S
H792 C802 0.950 . S
H793 C804 0.950 . S
H794 C806 0.950 . S
H795 C807 0.950 . S
C796 H788 0.950 . S
C796 C797 1.386 . S
C796 C798 1.391 . S
C797 C796 1.386 . S
C797 C801 1.393 . S
C798 H790 0.950 . S
C798 C796 1.391 . S
C798 C799 1.400 . S
C799 C798 1.400 . S
C799 C800 1.398 . S
C799 C805 1.491 . S
C800 H791 0.950 . S
C800 C799 1.398 . S
C800 C801 1.391 . S
C801 H789 0.950 . S
C801 C797 1.393 . S
C801 C800 1.391 . S
C802 H792 0.950 . S
C802 C803 1.386 . S
C802 C804 1.391 . S
C803 C802 1.386 . S
C803 C807 1.393 . S
C804 H793 0.950 . S
C804 C802 1.391 . S
C804 C805 1.400 . S
C805 C799 1.491 . S
C805 C804 1.400 . S
C805 C806 1.398 . S
C806 H794 0.950 . S
C806 C805 1.398 . S
C806 C807 1.391 . S
C807 H795 0.950 . S
C807 C803 1.393 . S
C807 C806 1.391 . S
H808 C816 0.950 . S
H809 C821 0.950 . S
H810 C818 0.950 . S
H811 C820 0.950 . S
H812 C822 0.950 . S
H813 C824 0.950 . S
H814 C826 0.950 . S
H815 C827 0.950 . S
C816 H808 0.950 . S
C816 C817 1.386 . S
C816 C818 1.391 . S
C817 C816 1.386 . S
C817 C821 1.393 . S
C818 H810 0.950 . S
C818 C816 1.391 . S
C818 C819 1.400 . S
C819 C818 1.400 . S
C819 C820 1.398 . S
C819 C825 1.491 . S
C820 H811 0.950 . S
C820 C819 1.398 . S
C820 C821 1.391 . S
C821 H809 0.950 . S
C821 C817 1.393 . S
C821 C820 1.391 . S
C822 H812 0.950 . S
C822 C823 1.386 . S
C822 C824 1.391 . S
C823 C822 1.386 . S
C823 C827 1.393 . S
C824 H813 0.950 . S
C824 C822 1.391 . S
C824 C825 1.400 . S
C825 C819 1.491 . S
C825 C824 1.400 . S
C825 C826 1.398 . S
C826 H814 0.950 . S
C826 C825 1.398 . S
C826 C827 1.391 . S
C827 H815 0.950 . S
C827 C823 1.393 . S
C827 C826 1.391 . S
H828 C836 0.950 . S
H829 C841 0.950 . S
H830 C838 0.950 . S
H831 C840 0.950 . S
H832 C842 0.950 1_455 S
H833 C844 0.950 . S
H834 C846 0.950 . S
H835 C847 0.950 . S
C836 H828 0.950 . S
C836 C837 1.386 . S
C836 C838 1.391 . S
C837 C836 1.386 . S
C837 C841 1.393 . S
C838 H830 0.950 . S
C838 C836 1.391 . S
C838 C839 1.400 . S
C839 C838 1.400 . S
C839 C840 1.398 . S
C839 C845 1.491 . S
C840 H831 0.950 . S
C840 C839 1.398 . S
C840 C841 1.391 . S
C841 H829 0.950 . S
C841 C837 1.393 . S
C841 C840 1.391 . S
C842 H832 0.950 1_655 S
C842 C843 1.379 1_655 S
C842 C844 1.391 . S
C843 C842 1.379 1_455 S
C843 C847 1.361 1_455 S
C844 H833 0.950 . S
C844 C842 1.391 . S
C844 C845 1.400 . S
C845 C839 1.491 . S
C845 C844 1.400 . S
C845 C846 1.398 . S
C846 H834 0.950 . S
C846 C845 1.398 . S
C846 C847 1.391 . S
C847 H835 0.950 . S
C847 C843 1.361 1_655 S
C847 C846 1.391 . S
H848 C856 0.950 . S
H849 C861 0.950 . S
H850 C858 0.950 . S
H851 C860 0.950 . S
H852 C862 0.950 . S
H853 C864 0.950 . S
H854 C866 0.950 . S
H855 C867 0.950 . S
C856 H848 0.950 . S
C856 C857 1.386 . S
C856 C858 1.391 . S
C857 C856 1.386 . S
C857 C861 1.393 . S
C858 H850 0.950 . S
C858 C856 1.391 . S
C858 C859 1.400 . S
C859 C858 1.400 . S
C859 C860 1.398 . S
C859 C865 1.491 . S
C860 H851 0.950 . S
C860 C859 1.398 . S
C860 C861 1.391 . S
C861 H849 0.950 . S
C861 C857 1.393 . S
C861 C860 1.391 . S
C862 H852 0.950 . S
C862 C863 1.386 . S
C862 C864 1.391 . S
C863 C862 1.386 . S
C863 C867 1.393 . S
C864 H853 0.950 . S
C864 C862 1.391 . S
C864 C865 1.400 . S
C865 C859 1.491 . S
C865 C864 1.400 . S
C865 C866 1.398 . S
C866 H854 0.950 . S
C866 C865 1.398 . S
C866 C867 1.391 . S
C867 H855 0.950 . S
C867 C863 1.393 . S
C867 C866 1.391 . S
H868 C876 0.950 1_455 S
H869 C881 0.950 . S
H870 C878 0.950 . S
H871 C880 0.950 . S
H872 C882 0.950 . S
H873 C884 0.950 . S
H874 C886 0.950 . S
H875 C887 0.950 . S
C876 H868 0.950 1_655 S
C876 C877 1.378 1_655 S
C876 C878 1.391 . S
C877 C876 1.378 1_455 S
C877 C881 1.361 1_455 S
C878 H870 0.950 . S
C878 C876 1.391 . S
C878 C879 1.400 . S
C879 C878 1.400 . S
C879 C880 1.398 . S
C879 C885 1.491 . S
C880 H871 0.950 . S
C880 C879 1.398 . S
C880 C881 1.391 . S
C881 H869 0.950 . S
C881 C877 1.361 1_655 S
C881 C880 1.391 . S
C882 H872 0.950 . S
C882 C883 1.386 . S
C882 C884 1.391 . S
C883 C882 1.386 . S
C883 C887 1.393 . S
C884 H873 0.950 . S
C884 C882 1.391 . S
C884 C885 1.400 . S
C885 C879 1.491 . S
C885 C884 1.400 . S
C885 C886 1.398 . S
C886 H874 0.950 . S
C886 C885 1.398 . S
C886 C887 1.391 . S
C887 H875 0.950 . S
C887 C883 1.393 . S
C887 C886 1.391 . S
H888 C896 0.950 . S
H889 C901 0.950 . S
H890 C898 0.950 . S
H891 C900 0.950 . S
H892 C902 0.950 . S
H893 C904 0.950 . S
H894 C906 0.950 . S
H895 C907 0.950 . S
C896 H888 0.950 . S
C896 C897 1.386 . S
C896 C898 1.391 . S
C897 C896 1.386 . S
C897 C901 1.393 . S
C898 H890 0.950 . S
C898 C896 1.391 . S
C898 C899 1.400 . S
C899 C898 1.400 . S
C899 C900 1.398 . S
C899 C905 1.491 . S
C900 H891 0.950 . S
C900 C899 1.398 . S
C900 C901 1.391 . S
C901 H889 0.950 . S
C901 C897 1.393 . S
C901 C900 1.391 . S
C902 H892 0.950 . S
C902 C903 1.386 . S
C902 C904 1.391 . S
C903 C902 1.386 . S
C903 C907 1.393 . S
C904 H893 0.950 . S
C904 C902 1.391 . S
C904 C905 1.400 . S
C905 C899 1.491 . S
C905 C904 1.400 . S
C905 C906 1.398 . S
C906 H894 0.950 . S
C906 C905 1.398 . S
C906 C907 1.391 . S
C907 H895 0.950 . S
C907 C903 1.393 . S
C907 C906 1.391 . S
H908 C916 0.950 . S
H909 C921 0.950 . S
H910 C918 0.950 . S
H911 C920 0.950 . S
H912 C922 0.950 . S
H913 C924 0.950 . S
H914 C926 0.950 . S
H915 C927 0.950 . S
C916 H908 0.950 . S
C916 C917 1.386 . S
C916 C918 1.391 . S
C917 C916 1.386 . S
C917 C921 1.393 . S
C918 H910 0.950 . S
C918 C916 1.391 . S
C918 C919 1.400 . S
C919 C918 1.400 . S
C919 C920 1.398 . S
C919 C925 1.491 . S
C920 H911 0.950 . S
C920 C919 1.398 . S
C920 C921 1.391 . S
C921 H909 0.950 . S
C921 C917 1.393 . S
C921 C920 1.391 . S
C922 H912 0.950 . S
C922 C923 1.386 . S
C922 C924 1.391 . S
C923 C922 1.386 . S
C923 C927 1.393 . S
C924 H913 0.950 . S
C924 C922 1.391 . S
C924 C925 1.400 . S
C925 C919 1.491 . S
C925 C924 1.400 . S
C925 C926 1.398 . S
C926 H914 0.950 . S
C926 C925 1.398 . S
C926 C927 1.391 . S
C927 H915 0.950 . S
C927 C923 1.393 . S
C927 C926 1.391 . S
H928 C936 0.950 . S
H929 C941 0.950 . S
H930 C938 0.950 . S
H931 C940 0.950 . S
H932 C942 0.950 . S
H933 C944 0.950 . S
H934 C946 0.950 . S
H935 C947 0.950 . S
C936 H928 0.950 . S
C936 C937 1.386 . S
C936 C938 1.391 . S
C937 C936 1.386 . S
C937 C941 1.393 . S
C938 H930 0.950 . S
C938 C936 1.391 . S
C938 C939 1.400 . S
C939 C938 1.400 . S
C939 C940 1.398 . S
C939 C945 1.491 . S
C940 H931 0.950 . S
C940 C939 1.398 . S
C940 C941 1.391 . S
C941 H929 0.950 . S
C941 C937 1.393 . S
C941 C940 1.391 . S
C942 H932 0.950 . S
C942 C943 1.386 . S
C942 C944 1.391 . S
C943 C942 1.386 . S
C943 C947 1.393 . S
C944 H933 0.950 . S
C944 C942 1.391 . S
C944 C945 1.400 . S
C945 C939 1.491 . S
C945 C944 1.400 . S
C945 C946 1.398 . S
C946 H934 0.950 . S
C946 C945 1.398 . S
C946 C947 1.391 . S
C947 H935 0.950 . S
C947 C943 1.393 . S
C947 C946 1.391 . S
H948 C956 0.950 . S
H949 C961 0.950 . S
H950 C958 0.950 . S
H951 C960 0.950 . S
H952 C962 0.950 . S
H953 C964 0.950 . S
H954 C966 0.950 . S
H955 C967 0.950 . S
C956 H948 0.950 . S
C956 C957 1.386 . S
C956 C958 1.391 . S
C957 C956 1.386 . S
C957 C961 1.393 . S
C958 H950 0.950 . S
C958 C956 1.391 . S
C958 C959 1.400 . S
C959 C958 1.400 . S
C959 C960 1.398 . S
C959 C965 1.491 . S
C960 H951 0.950 . S
C960 C959 1.398 . S
C960 C961 1.391 . S
C961 H949 0.950 . S
C961 C957 1.393 . S
C961 C960 1.391 . S
C962 H952 0.950 . S
C962 C963 1.386 . S
C962 C964 1.391 . S
C963 C962 1.386 . S
C963 C967 1.393 . S
C964 H953 0.950 . S
C964 C962 1.391 . S
C964 C965 1.400 . S
C965 C959 1.491 . S
C965 C964 1.400 . S
C965 C966 1.398 . S
C966 H954 0.950 . S
C966 C965 1.398 . S
C966 C967 1.391 . S
C967 H955 0.950 . S
C967 C963 1.393 . S
C967 C966 1.391 . S
H968 C976 0.950 . S
H969 C981 0.950 . S
H970 C978 0.950 . S
H971 C980 0.950 . S
H972 C982 0.950 . S
H973 C984 0.950 . S
H974 C986 0.950 . S
H975 C987 0.950 . S
C976 H968 0.950 . S
C976 C977 1.386 . S
C976 C978 1.391 . S
C977 C976 1.386 . S
C977 C981 1.393 . S
C978 H970 0.950 . S
C978 C976 1.391 . S
C978 C979 1.400 . S
C979 C978 1.400 . S
C979 C980 1.398 . S
C979 C985 1.491 . S
C980 H971 0.950 . S
C980 C979 1.398 . S
C980 C981 1.391 . S
C981 H969 0.950 . S
C981 C977 1.393 . S
C981 C980 1.391 . S
C982 H972 0.950 . S
C982 C983 1.386 . S
C982 C984 1.391 . S
C983 C982 1.386 . S
C983 C987 1.393 . S
C984 H973 0.950 . S
C984 C982 1.391 . S
C984 C985 1.400 . S
C985 C979 1.491 . S
C985 C984 1.400 . S
C985 C986 1.398 . S
C986 H974 0.950 . S
C986 C985 1.398 . S
C986 C987 1.391 . S
C987 H975 0.950 . S
C987 C983 1.393 . S
C987 C986 1.391 . S
H988 C996 0.944 1_655 S
H989 C1001 0.950 . S
H990 C998 0.950 . S
H991 C1000 0.950 . S
H992 C1002 0.950 . S
H993 C1004 0.950 . S
H994 C1006 0.950 . S
H995 C1007 0.950 . S
C996 H988 0.944 1_455 S
C996 C997 1.385 1_455 S
C996 C998 1.391 . S
C997 C996 1.385 1_655 S
C997 C1001 1.392 1_655 S
C998 H990 0.950 . S
C998 C996 1.391 . S
C998 C999 1.400 . S
C999 C998 1.400 . S
C999 C1000 1.398 . S
C999 C1005 1.491 . S
C1000 H991 0.950 . S
C1000 C999 1.398 . S
C1000 C1001 1.391 . S
C1001 H989 0.950 . S
C1001 C997 1.392 1_455 S
C1001 C1000 1.391 . S
C1002 H992 0.950 . S
C1002 C1003 1.386 . S
C1002 C1004 1.391 . S
C1003 C1002 1.386 . S
C1003 C1007 1.393 . S
C1004 H993 0.950 . S
C1004 C1002 1.391 . S
C1004 C1005 1.400 . S
C1005 C999 1.491 . S
C1005 C1004 1.400 . S
C1005 C1006 1.398 . S
C1006 H994 0.950 . S
C1006 C1005 1.398 . S
C1006 C1007 1.391 . S
C1007 H995 0.950 . S
C1007 C1003 1.393 . S
C1007 C1006 1.391 . S
H1008 C1016 0.950 . S
H1009 C1021 0.950 . S
H1010 C1018 0.950 . S
H1011 C1020 0.950 . S
H1012 C1022 0.950 . S
H1013 C1024 0.950 . S
H1014 C1026 0.950 . S
H1015 C1027 0.950 . S
C1016 H1008 0.950 . S
C1016 C1017 1.386 . S
C1016 C1018 1.391 . S
C1017 C1016 1.386 . S
C1017 C1021 1.393 . S
C1018 H1010 0.950 . S
C1018 C1016 1.391 . S
C1018 C1019 1.400 . S
C1019 C1018 1.400 . S
C1019 C1020 1.398 . S
C1019 C1025 1.491 . S
C1020 H1011 0.950 . S
C1020 C1019 1.398 . S
C1020 C1021 1.391 . S
C1021 H1009 0.950 . S
C1021 C1017 1.393 . S
C1021 C1020 1.391 . S
C1022 H1012 0.950 . S
C1022 C1023 1.386 . S
C1022 C1024 1.391 . S
C1023 C1022 1.386 . S
C1023 C1027 1.393 . S
C1024 H1013 0.950 . S
C1024 C1022 1.391 . S
C1024 C1025 1.400 . S
C1025 C1019 1.491 . S
C1025 C1024 1.400 . S
C1025 C1026 1.398 . S
C1026 H1014 0.950 . S
C1026 C1025 1.398 . S
C1026 C1027 1.391 . S
C1027 H1015 0.950 . S
C1027 C1023 1.393 . S
C1027 C1026 1.391 . S
H1028 C1036 0.950 . S
H1029 C1041 0.950 . S
H1030 C1038 0.950 . S
H1031 C1040 0.950 . S
H1032 C1042 0.950 . S
H1033 C1044 0.950 . S
H1034 C1046 0.950 . S
H1035 C1047 0.950 . S
C1036 H1028 0.950 . S
C1036 C1037 1.387 . S
C1036 C1038 1.391 1_655 S
C1037 C1036 1.387 . S
C1037 C1041 1.369 1_655 S
C1038 H1030 0.950 . S
C1038 C1036 1.391 1_455 S
C1038 C1039 1.400 . S
C1039 C1038 1.400 . S
C1039 C1040 1.398 . S
C1039 C1045 1.491 . S
C1040 H1031 0.950 . S
C1040 C1039 1.398 . S
C1040 C1041 1.391 . S
C1041 H1029 0.950 . S
C1041 C1037 1.369 1_455 S
C1041 C1040 1.391 . S
C1042 H1032 0.950 . S
C1042 C1043 1.386 . S
C1042 C1044 1.391 . S
C1043 C1042 1.386 . S
C1043 C1047 1.393 . S
C1044 H1033 0.950 . S
C1044 C1042 1.391 . S
C1044 C1045 1.400 . S
C1045 C1039 1.491 . S
C1045 C1044 1.400 . S
C1045 C1046 1.398 . S
C1046 H1034 0.950 . S
C1046 C1045 1.398 . S
C1046 C1047 1.391 . S
C1047 H1035 0.950 . S
C1047 C1043 1.393 . S
C1047 C1046 1.391 . S
H1048 C1056 0.950 . S
H1049 C1061 0.950 . S
H1050 C1058 0.950 . S
H1051 C1060 0.950 . S
H1052 C1062 0.950 . S
H1053 C1064 0.950 . S
H1054 C1066 0.950 . S
H1055 C1067 0.950 . S
C1056 H1048 0.950 . S
C1056 C1057 1.386 . S
C1056 C1058 1.391 . S
C1057 C1056 1.386 . S
C1057 C1061 1.393 . S
C1058 H1050 0.950 . S
C1058 C1056 1.391 . S
C1058 C1059 1.400 . S
C1059 C1058 1.400 . S
C1059 C1060 1.398 . S
C1059 C1065 1.491 . S
C1060 H1051 0.950 . S
C1060 C1059 1.398 . S
C1060 C1061 1.391 . S
C1061 H1049 0.950 . S
C1061 C1057 1.393 . S
C1061 C1060 1.391 . S
C1062 H1052 0.950 . S
C1062 C1063 1.386 . S
C1062 C1064 1.391 . S
C1063 C1062 1.386 . S
C1063 C1067 1.393 . S
C1064 H1053 0.950 . S
C1064 C1062 1.391 . S
C1064 C1065 1.400 . S
C1065 C1059 1.491 . S
C1065 C1064 1.400 . S
C1065 C1066 1.398 . S
C1066 H1054 0.950 . S
C1066 C1065 1.398 . S
C1066 C1067 1.391 . S
C1067 H1055 0.950 . S
C1067 C1063 1.393 . S
C1067 C1066 1.391 . S
H1068 C1076 0.950 . S
H1069 C1081 0.950 . S
H1070 C1078 0.950 . S
H1071 C1080 0.950 . S
H1072 C1082 0.950 . S
H1073 C1084 0.950 . S
H1074 C1086 0.950 . S
H1075 C1087 0.950 . S
C1076 H1068 0.950 . S
C1076 C1077 1.386 . S
C1076 C1078 1.391 . S
C1077 C1076 1.386 . S
C1077 C1081 1.393 . S
C1078 H1070 0.950 . S
C1078 C1076 1.391 . S
C1078 C1079 1.400 . S
C1079 C1078 1.400 . S
C1079 C1080 1.398 . S
C1079 C1085 1.491 . S
C1080 H1071 0.950 . S
C1080 C1079 1.398 . S
C1080 C1081 1.391 . S
C1081 H1069 0.950 . S
C1081 C1077 1.393 . S
C1081 C1080 1.391 . S
C1082 H1072 0.950 . S
C1082 C1083 1.386 . S
C1082 C1084 1.391 . S
C1083 C1082 1.386 . S
C1083 C1087 1.393 . S
C1084 H1073 0.950 . S
C1084 C1082 1.391 . S
C1084 C1085 1.400 . S
C1085 C1079 1.491 . S
C1085 C1084 1.400 . S
C1085 C1086 1.398 . S
C1086 H1074 0.950 . S
C1086 C1085 1.398 . S
C1086 C1087 1.391 . S
C1087 H1075 0.950 . S
C1087 C1083 1.393 . S
C1087 C1086 1.391 . S
H1088 C1096 0.950 . S
H1089 C1101 0.950 . S
H1090 C1098 0.950 . S
H1091 C1100 0.950 . S
H1092 C1102 0.950 . S
H1093 C1104 0.950 . S
H1094 C1106 0.950 . S
H1095 C1107 0.950 . S
C1096 H1088 0.950 . S
C1096 C1097 1.386 . S
C1096 C1098 1.391 . S
C1097 C1096 1.386 . S
C1097 C1101 1.393 . S
C1098 H1090 0.950 . S
C1098 C1096 1.391 . S
C1098 C1099 1.400 . S
C1099 C1098 1.400 . S
C1099 C1100 1.398 . S
C1099 C1105 1.491 . S
C1100 H1091 0.950 . S
C1100 C1099 1.398 . S
C1100 C1101 1.391 . S
C1101 H1089 0.950 . S
C1101 C1097 1.393 . S
C1101 C1100 1.391 . S
C1102 H1092 0.950 . S
C1102 C1103 1.386 . S
C1102 C1104 1.391 . S
C1103 C1102 1.386 . S
C1103 C1107 1.393 . S
C1104 H1093 0.950 . S
C1104 C1102 1.391 . S
C1104 C1105 1.400 . S
C1105 C1099 1.491 . S
C1105 C1104 1.400 . S
C1105 C1106 1.398 . S
C1106 H1094 0.950 . S
C1106 C1105 1.398 . S
C1106 C1107 1.391 . S
C1107 H1095 0.950 . S
C1107 C1103 1.393 . S
C1107 C1106 1.391 . S
H1108 C1116 0.950 . S
H1109 C1121 0.950 . S
H1110 C1118 0.950 1_545 S
H1111 C1120 0.950 1_455 S
H1112 C1122 0.950 . S
H1113 C1124 0.950 1_565 S
H1114 C1126 0.950 1_655 S
H1115 C1127 0.950 . S
C1116 H1108 0.950 . S
C1116 C1117 1.386 . S
C1116 C1118 1.391 . S
C1117 C1116 1.386 . S
C1117 C1121 1.393 . S
C1118 H1110 0.950 1_565 S
C1118 C1116 1.391 . S
C1118 C1119 1.400 . S
C1119 C1118 1.400 . S
C1119 C1120 1.398 . S
C1119 C1125 1.491 1_665 S
C1120 H1111 0.950 1_655 S
C1120 C1119 1.398 . S
C1120 C1121 1.391 . S
C1121 H1109 0.950 . S
C1121 C1117 1.393 . S
C1121 C1120 1.391 . S
C1122 H1112 0.950 . S
C1122 C1123 1.386 . S
C1122 C1124 1.391 . S
C1123 C1122 1.386 . S
C1123 C1127 1.393 . S
C1124 H1113 0.950 1_545 S
C1124 C1122 1.391 . S
C1124 C1125 1.400 . S
C1125 C1119 1.491 1_445 S
C1125 C1124 1.400 . S
C1125 C1126 1.398 . S
C1126 H1114 0.950 1_455 S
C1126 C1125 1.398 . S
C1126 C1127 1.391 . S
C1127 H1115 0.950 . S
C1127 C1123 1.393 . S
C1127 C1126 1.391 . S
H1128 C1136 0.950 . S
H1129 C1141 0.950 . S
H1130 C1138 0.950 . S
H1131 C1140 0.950 . S
H1132 C1142 0.950 . S
H1133 C1144 0.950 . S
H1134 C1146 0.950 . S
H1135 C1147 0.950 . S
C1136 H1128 0.950 . S
C1136 C1137 1.386 . S
C1136 C1138 1.391 . S
C1137 C1136 1.386 . S
C1137 C1141 1.393 . S
C1138 H1130 0.950 . S
C1138 C1136 1.391 . S
C1138 C1139 1.400 . S
C1139 C1138 1.400 . S
C1139 C1140 1.398 . S
C1139 C1145 1.491 . S
C1140 H1131 0.950 . S
C1140 C1139 1.398 . S
C1140 C1141 1.391 . S
C1141 H1129 0.950 . S
C1141 C1137 1.393 . S
C1141 C1140 1.391 . S
C1142 H1132 0.950 . S
C1142 C1143 1.386 . S
C1142 C1144 1.391 . S
C1143 C1142 1.386 . S
C1143 C1147 1.393 . S
C1144 H1133 0.950 . S
C1144 C1142 1.391 . S
C1144 C1145 1.400 . S
C1145 C1139 1.491 . S
C1145 C1144 1.400 . S
C1145 C1146 1.398 . S
C1146 H1134 0.950 . S
C1146 C1145 1.398 . S
C1146 C1147 1.391 . S
C1147 H1135 0.950 . S
C1147 C1143 1.393 . S
C1147 C1146 1.391 . S
H1148 C1156 0.950 . S
H1149 C1161 0.951 1_556 S
H1150 C1158 0.950 1_565 S
H1151 C1160 0.950 . S
H1152 C1162 0.950 . S
H1153 C1164 0.950 1_545 S
H1154 C1166 0.950 . S
H1155 C1167 0.951 1_554 S
C1156 H1148 0.950 . S
C1156 C1157 1.386 . S
C1156 C1158 1.391 . S
C1157 C1156 1.386 . S
C1157 C1161 1.391 . S
C1158 H1150 0.950 1_545 S
C1158 C1156 1.391 . S
C1158 C1159 1.400 . S
C1159 C1158 1.400 . S
C1159 C1160 1.398 1_554 S
C1159 C1165 1.491 1_544 S
C1160 H1151 0.950 . S
C1160 C1159 1.398 1_556 S
C1160 C1161 1.391 1_556 S
C1161 H1149 0.951 1_554 S
C1161 C1157 1.391 . S
C1161 C1160 1.391 1_554 S
C1162 H1152 0.950 . S
C1162 C1163 1.386 . S
C1162 C1164 1.391 . S
C1163 C1162 1.386 . S
C1163 C1167 1.391 . S
C1164 H1153 0.950 1_565 S
C1164 C1162 1.391 . S
C1164 C1165 1.400 . S
C1165 C1159 1.491 1_566 S
C1165 C1164 1.400 . S
C1165 C1166 1.398 1_556 S
C1166 H1154 0.950 . S
C1166 C1165 1.398 1_554 S
C1166 C1167 1.391 1_554 S
C1167 H1155 0.951 1_556 S
C1167 C1163 1.391 . S
C1167 C1166 1.391 1_556 S
H1168 C1176 0.950 . S
H1169 C1181 0.950 . S
H1170 C1178 0.950 . S
H1171 C1180 0.950 . S
H1172 C1182 0.950 . S
H1173 C1184 0.950 . S
H1174 C1186 0.950 . S
H1175 C1187 0.950 . S
C1176 H1168 0.950 . S
C1176 C1177 1.386 . S
C1176 C1178 1.391 . S
C1177 C1176 1.386 . S
C1177 C1181 1.393 . S
C1178 H1170 0.950 . S
C1178 C1176 1.391 . S
C1178 C1179 1.400 . S
C1179 C1178 1.400 . S
C1179 C1180 1.398 . S
C1179 C1185 1.491 . S
C1180 H1171 0.950 . S
C1180 C1179 1.398 . S
C1180 C1181 1.391 . S
C1181 H1169 0.950 . S
C1181 C1177 1.393 . S
C1181 C1180 1.391 . S
C1182 H1172 0.950 . S
C1182 C1183 1.386 . S
C1182 C1184 1.391 . S
C1183 C1182 1.386 . S
C1183 C1187 1.393 . S
C1184 H1173 0.950 . S
C1184 C1182 1.391 . S
C1184 C1185 1.400 . S
C1185 C1179 1.491 . S
C1185 C1184 1.400 . S
C1185 C1186 1.398 . S
C1186 H1174 0.950 . S
C1186 C1185 1.398 . S
C1186 C1187 1.391 . S
C1187 H1175 0.950 . S
C1187 C1183 1.393 . S
C1187 C1186 1.391 . S
H1188 C1196 0.950 . S
H1189 C1201 0.950 . S
H1190 C1198 0.950 1_545 S
H1191 C1200 0.950 . S
H1192 C1202 0.950 . S
H1193 C1204 0.950 1_565 S
H1194 C1206 0.950 . S
H1195 C1207 0.950 . S
C1196 H1188 0.950 . S
C1196 C1197 1.386 . S
C1196 C1198 1.391 . S
C1197 C1196 1.386 . S
C1197 C1201 1.393 . S
C1198 H1190 0.950 1_565 S
C1198 C1196 1.391 . S
C1198 C1199 1.400 . S
C1199 C1198 1.400 . S
C1199 C1200 1.398 . S
C1199 C1205 1.491 1_565 S
C1200 H1191 0.950 . S
C1200 C1199 1.398 . S
C1200 C1201 1.391 . S
C1201 H1189 0.950 . S
C1201 C1197 1.393 . S
C1201 C1200 1.391 . S
C1202 H1192 0.950 . S
C1202 C1203 1.386 . S
C1202 C1204 1.391 . S
C1203 C1202 1.386 . S
C1203 C1207 1.393 . S
C1204 H1193 0.950 1_545 S
C1204 C1202 1.391 . S
C1204 C1205 1.400 . S
C1205 C1199 1.491 1_545 S
C1205 C1204 1.400 . S
C1205 C1206 1.398 . S
C1206 H1194 0.950 . S
C1206 C1205 1.398 . S
C1206 C1207 1.391 . S
C1207 H1195 0.950 . S
C1207 C1203 1.393 . S
C1207 C1206 1.391 . S
H1208 C1216 0.950 . S
H1209 C1221 0.950 . S
H1210 C1218 0.950 . S
H1211 C1220 0.950 . S
H1212 C1222 0.950 . S
H1213 C1224 0.950 . S
H1214 C1226 0.950 . S
H1215 C1227 0.950 . S
C1216 H1208 0.950 . S
C1216 C1217 1.386 . S
C1216 C1218 1.391 . S
C1217 C1216 1.386 . S
C1217 C1221 1.393 . S
C1218 H1210 0.950 . S
C1218 C1216 1.391 . S
C1218 C1219 1.400 . S
C1219 C1218 1.400 . S
C1219 C1220 1.398 . S
C1219 C1225 1.491 . S
C1220 H1211 0.950 . S
C1220 C1219 1.398 . S
C1220 C1221 1.391 . S
C1221 H1209 0.950 . S
C1221 C1217 1.393 . S
C1221 C1220 1.391 . S
C1222 H1212 0.950 . S
C1222 C1223 1.386 . S
C1222 C1224 1.391 . S
C1223 C1222 1.386 . S
C1223 C1227 1.393 . S
C1224 H1213 0.950 . S
C1224 C1222 1.391 . S
C1224 C1225 1.400 . S
C1225 C1219 1.491 . S
C1225 C1224 1.400 . S
C1225 C1226 1.398 . S
C1226 H1214 0.950 . S
C1226 C1225 1.398 . S
C1226 C1227 1.391 . S
C1227 H1215 0.950 . S
C1227 C1223 1.393 . S
C1227 C1226 1.391 . S
H1228 C1236 0.950 . S
H1229 C1241 0.950 . S
H1230 C1238 0.950 1_565 S
H1231 C1240 0.950 1_454 S
H1232 C1242 0.950 . S
H1233 C1244 0.950 1_545 S
H1234 C1246 0.950 1_656 S
H1235 C1247 0.950 . S
C1236 H1228 0.950 . S
C1236 C1237 1.386 . S
C1236 C1238 1.391 . S
C1237 C1236 1.386 . S
C1237 C1241 1.393 . S
C1238 H1230 0.950 1_545 S
C1238 C1236 1.391 . S
C1238 C1239 1.400 . S
C1239 C1238 1.400 . S
C1239 C1240 1.398 . S
C1239 C1245 1.491 1_646 S
C1240 H1231 0.950 1_656 S
C1240 C1239 1.398 . S
C1240 C1241 1.391 . S
C1241 H1229 0.950 . S
C1241 C1237 1.393 . S
C1241 C1240 1.391 . S
C1242 H1232 0.950 . S
C1242 C1243 1.386 . S
C1242 C1244 1.391 . S
C1243 C1242 1.386 . S
C1243 C1247 1.393 . S
C1244 H1233 0.950 1_565 S
C1244 C1242 1.391 . S
C1244 C1245 1.400 . S
C1245 C1239 1.491 1_464 S
C1245 C1244 1.400 . S
C1245 C1246 1.398 . S
C1246 H1234 0.950 1_454 S
C1246 C1245 1.398 . S
C1246 C1247 1.391 . S
C1247 H1235 0.950 . S
C1247 C1243 1.393 . S
C1247 C1246 1.391 . S
H1248 C1256 0.950 . S
H1249 C1261 0.950 . S
H1250 C1258 0.950 . S
H1251 C1260 0.950 . S
H1252 C1262 0.950 . S
H1253 C1264 0.950 . S
H1254 C1266 0.950 . S
H1255 C1267 0.950 . S
C1256 H1248 0.950 . S
C1256 C1257 1.386 . S
C1256 C1258 1.391 . S
C1257 C1256 1.386 . S
C1257 C1261 1.393 . S
C1258 H1250 0.950 . S
C1258 C1256 1.391 . S
C1258 C1259 1.400 . S
C1259 C1258 1.400 . S
C1259 C1260 1.398 . S
C1259 C1265 1.491 . S
C1260 H1251 0.950 . S
C1260 C1259 1.398 . S
C1260 C1261 1.391 . S
C1261 H1249 0.950 . S
C1261 C1257 1.393 . S
C1261 C1260 1.391 . S
C1262 H1252 0.950 . S
C1262 C1263 1.386 . S
C1262 C1264 1.391 . S
C1263 C1262 1.386 . S
C1263 C1267 1.393 . S
C1264 H1253 0.950 . S
C1264 C1262 1.391 . S
C1264 C1265 1.400 . S
C1265 C1259 1.491 . S
C1265 C1264 1.400 . S
C1265 C1266 1.398 . S
C1266 H1254 0.950 . S
C1266 C1265 1.398 . S
C1266 C1267 1.391 . S
C1267 H1255 0.950 . S
C1267 C1263 1.393 . S
C1267 C1266 1.391 . S
H1268 C1276 0.950 . S
H1269 C1281 0.950 . S
H1270 C1278 0.950 . S
H1271 C1280 0.950 . S
H1272 C1282 0.950 . S
H1273 C1284 0.950 . S
H1274 C1286 0.950 . S
H1275 C1287 0.950 . S
C1276 H1268 0.950 . S
C1276 C1277 1.386 . S
C1276 C1278 1.391 . S
C1277 C1276 1.386 . S
C1277 C1281 1.393 . S
C1278 H1270 0.950 . S
C1278 C1276 1.391 . S
C1278 C1279 1.400 . S
C1279 C1278 1.400 . S
C1279 C1280 1.398 . S
C1279 C1285 1.491 . S
C1280 H1271 0.950 . S
C1280 C1279 1.398 . S
C1280 C1281 1.391 . S
C1281 H1269 0.950 . S
C1281 C1277 1.393 . S
C1281 C1280 1.391 . S
C1282 H1272 0.950 . S
C1282 C1283 1.386 . S
C1282 C1284 1.391 . S
C1283 C1282 1.386 . S
C1283 C1287 1.393 . S
C1284 H1273 0.950 . S
C1284 C1282 1.391 . S
C1284 C1285 1.400 . S
C1285 C1279 1.491 . S
C1285 C1284 1.400 . S
C1285 C1286 1.398 . S
C1286 H1274 0.950 . S
C1286 C1285 1.398 . S
C1286 C1287 1.391 . S
C1287 H1275 0.950 . S
C1287 C1283 1.393 . S
C1287 C1286 1.391 . S
H1288 C1296 0.950 . S
H1289 C1301 0.950 . S
H1290 C1298 0.950 . S
H1291 C1300 0.950 . S
H1292 C1302 0.950 . S
H1293 C1304 0.950 . S
H1294 C1306 0.950 . S
H1295 C1307 0.950 . S
C1296 H1288 0.950 . S
C1296 C1297 1.386 . S
C1296 C1298 1.391 . S
C1297 C1296 1.386 . S
C1297 C1301 1.393 . S
C1298 H1290 0.950 . S
C1298 C1296 1.391 . S
C1298 C1299 1.400 . S
C1299 C1298 1.400 . S
C1299 C1300 1.398 . S
C1299 C1305 1.491 . S
C1300 H1291 0.950 . S
C1300 C1299 1.398 . S
C1300 C1301 1.391 . S
C1301 H1289 0.950 . S
C1301 C1297 1.393 . S
C1301 C1300 1.391 . S
C1302 H1292 0.950 . S
C1302 C1303 1.386 . S
C1302 C1304 1.391 . S
C1303 C1302 1.386 . S
C1303 C1307 1.393 . S
C1304 H1293 0.950 . S
C1304 C1302 1.391 . S
C1304 C1305 1.400 . S
C1305 C1299 1.491 . S
C1305 C1304 1.400 . S
C1305 C1306 1.398 . S
C1306 H1294 0.950 . S
C1306 C1305 1.398 . S
C1306 C1307 1.391 . S
C1307 H1295 0.950 . S
C1307 C1303 1.393 . S
C1307 C1306 1.391 . S
H1308 C1316 0.950 . S
H1309 C1321 0.950 . S
H1310 C1318 0.950 . S
H1311 C1320 0.950 . S
H1312 C1322 0.950 . S
H1313 C1324 0.950 . S
H1314 C1326 0.950 . S
H1315 C1327 0.950 . S
C1316 H1308 0.950 . S
C1316 C1317 1.386 . S
C1316 C1318 1.391 . S
C1317 C1316 1.386 . S
C1317 C1321 1.393 . S
C1318 H1310 0.950 . S
C1318 C1316 1.391 . S
C1318 C1319 1.400 . S
C1319 C1318 1.400 . S
C1319 C1320 1.398 . S
C1319 C1325 1.491 . S
C1320 H1311 0.950 . S
C1320 C1319 1.398 . S
C1320 C1321 1.391 . S
C1321 H1309 0.950 . S
C1321 C1317 1.393 . S
C1321 C1320 1.391 . S
C1322 H1312 0.950 . S
C1322 C1323 1.386 . S
C1322 C1324 1.391 . S
C1323 C1322 1.386 . S
C1323 C1327 1.393 . S
C1324 H1313 0.950 . S
C1324 C1322 1.391 . S
C1324 C1325 1.400 . S
C1325 C1319 1.491 . S
C1325 C1324 1.400 . S
C1325 C1326 1.398 . S
C1326 H1314 0.950 . S
C1326 C1325 1.398 . S
C1326 C1327 1.391 . S
C1327 H1315 0.950 . S
C1327 C1323 1.393 . S
C1327 C1326 1.391 . S
H1328 C1336 0.950 . S
H1329 C1341 0.950 . S
H1330 C1338 0.943 1_556 S
H1331 C1340 0.950 . S
H1332 C1342 0.950 . S
H1333 C1344 0.943 1_554 S
H1334 C1346 0.950 . S
H1335 C1347 0.950 . S
C1336 H1328 0.950 . S
C1336 C1337 1.386 . S
C1336 C1338 1.396 . S
C1337 C1336 1.386 . S
C1337 C1341 1.393 . S
C1338 H1330 0.943 1_554 S
C1338 C1336 1.396 . S
C1338 C1339 1.403 . S
C1339 C1338 1.403 . S
C1339 C1340 1.398 . S
C1339 C1345 1.491 1_554 S
C1340 H1331 0.950 . S
C1340 C1339 1.398 . S
C1340 C1341 1.391 . S
C1341 H1329 0.950 . S
C1341 C1337 1.393 . S
C1341 C1340 1.391 . S
C1342 H1332 0.950 . S
C1342 C1343 1.386 . S
C1342 C1344 1.396 . S
C1343 C1342 1.386 . S
C1343 C1347 1.393 . S
C1344 H1333 0.943 1_556 S
C1344 C1342 1.396 . S
C1344 C1345 1.403 . S
C1345 C1339 1.491 1_556 S
C1345 C1344 1.403 . S
C1345 C1346 1.398 . S
C1346 H1334 0.950 . S
C1346 C1345 1.398 . S
C1346 C1347 1.391 . S
C1347 H1335 0.950 . S
C1347 C1343 1.393 . S
C1347 C1346 1.391 . S
H1348 C1356 0.950 . S
H1349 C1361 0.950 . S
H1350 C1358 0.950 1_455 S
H1351 C1360 0.950 . S
H1352 C1362 0.950 . S
H1353 C1364 0.950 1_655 S
H1354 C1366 0.950 . S
H1355 C1367 0.950 . S
C1356 H1348 0.950 . S
C1356 C1357 1.386 . S
C1356 C1358 1.391 . S
C1357 C1356 1.386 . S
C1357 C1361 1.393 . S
C1358 H1350 0.950 1_655 S
C1358 C1356 1.391 . S
C1358 C1359 1.400 . S
C1359 C1358 1.400 . S
C1359 C1360 1.398 . S
C1359 C1365 1.491 1_655 S
C1360 H1351 0.950 . S
C1360 C1359 1.398 . S
C1360 C1361 1.391 . S
C1361 H1349 0.950 . S
C1361 C1357 1.393 . S
C1361 C1360 1.391 . S
C1362 H1352 0.950 . S
C1362 C1363 1.386 . S
C1362 C1364 1.391 . S
C1363 C1362 1.386 . S
C1363 C1367 1.393 . S
C1364 H1353 0.950 1_455 S
C1364 C1362 1.391 . S
C1364 C1365 1.400 . S
C1365 C1359 1.491 1_455 S
C1365 C1364 1.400 . S
C1365 C1366 1.398 . S
C1366 H1354 0.950 . S
C1366 C1365 1.398 . S
C1366 C1367 1.391 . S
C1367 H1355 0.950 . S
C1367 C1363 1.393 . S
C1367 C1366 1.391 . S
H1368 C1376 0.950 . S
H1369 C1381 0.950 . S
H1370 C1378 0.950 . S
H1371 C1380 0.992 . S
H1372 C1382 0.950 . S
H1373 C1384 0.950 . S
H1374 C1386 0.992 . S
H1375 C1387 0.950 . S
C1376 H1368 0.950 . S
C1376 C1377 1.386 . S
C1376 C1378 1.391 . S
C1377 C1376 1.386 . S
C1377 C1381 1.393 . S
C1378 H1370 0.950 . S
C1378 C1376 1.391 . S
C1378 C1379 1.400 . S
C1379 C1378 1.400 . S
C1379 C1380 1.384 1_455 S
C1379 C1385 1.491 1_456 S
C1380 H1371 0.992 . S
C1380 C1379 1.384 1_655 S
C1380 C1381 1.365 1_655 S
C1381 H1369 0.950 . S
C1381 C1377 1.393 . S
C1381 C1380 1.365 1_455 S
C1382 H1372 0.950 . S
C1382 C1383 1.386 . S
C1382 C1384 1.391 . S
C1383 C1382 1.386 . S
C1383 C1387 1.393 . S
C1384 H1373 0.950 . S
C1384 C1382 1.391 . S
C1384 C1385 1.400 . S
C1385 C1379 1.491 1_654 S
C1385 C1384 1.400 . S
C1385 C1386 1.384 1_655 S
C1386 H1374 0.992 . S
C1386 C1385 1.384 1_455 S
C1386 C1387 1.365 1_455 S
C1387 H1375 0.950 . S
C1387 C1383 1.393 . S
C1387 C1386 1.365 1_655 S
H1388 C1396 0.950 . S
H1389 C1401 0.950 . S
H1390 C1398 0.950 . S
H1391 C1400 0.950 . S
H1392 C1402 0.950 . S
H1393 C1404 0.950 . S
H1394 C1406 0.950 . S
H1395 C1407 0.950 . S
C1396 H1388 0.950 . S
C1396 C1397 1.386 . S
C1396 C1398 1.391 . S
C1397 C1396 1.386 . S
C1397 C1401 1.393 . S
C1398 H1390 0.950 . S
C1398 C1396 1.391 . S
C1398 C1399 1.400 . S
C1399 C1398 1.400 . S
C1399 C1400 1.398 . S
C1399 C1405 1.491 . S
C1400 H1391 0.950 . S
C1400 C1399 1.398 . S
C1400 C1401 1.391 . S
C1401 H1389 0.950 . S
C1401 C1397 1.393 . S
C1401 C1400 1.391 . S
C1402 H1392 0.950 . S
C1402 C1403 1.386 . S
C1402 C1404 1.391 . S
C1403 C1402 1.386 . S
C1403 C1407 1.393 . S
C1404 H1393 0.950 . S
C1404 C1402 1.391 . S
C1404 C1405 1.400 . S
C1405 C1399 1.491 . S
C1405 C1404 1.400 . S
C1405 C1406 1.398 . S
C1406 H1394 0.950 . S
C1406 C1405 1.398 . S
C1406 C1407 1.391 . S
C1407 H1395 0.950 . S
C1407 C1403 1.393 . S
C1407 C1406 1.391 . S
H1408 C1416 0.950 . S
H1409 C1421 0.950 . S
H1410 C1418 0.950 . S
H1411 C1420 0.950 . S
H1412 C1422 0.950 . S
H1413 C1424 0.950 . S
H1414 C1426 0.950 . S
H1415 C1427 0.950 . S
C1416 H1408 0.950 . S
C1416 C1417 1.386 . S
C1416 C1418 1.391 . S
C1417 C1416 1.386 . S
C1417 C1421 1.393 . S
C1418 H1410 0.950 . S
C1418 C1416 1.391 . S
C1418 C1419 1.400 . S
C1419 C1418 1.400 . S
C1419 C1420 1.398 . S
C1419 C1425 1.491 . S
C1420 H1411 0.950 . S
C1420 C1419 1.398 . S
C1420 C1421 1.391 . S
C1421 H1409 0.950 . S
C1421 C1417 1.393 . S
C1421 C1420 1.391 . S
C1422 H1412 0.950 . S
C1422 C1423 1.386 . S
C1422 C1424 1.391 . S
C1423 C1422 1.386 . S
C1423 C1427 1.393 . S
C1424 H1413 0.950 . S
C1424 C1422 1.391 . S
C1424 C1425 1.400 . S
C1425 C1419 1.491 . S
C1425 C1424 1.400 . S
C1425 C1426 1.398 . S
C1426 H1414 0.950 . S
C1426 C1425 1.398 . S
C1426 C1427 1.391 . S
C1427 H1415 0.950 . S
C1427 C1423 1.393 . S
C1427 C1426 1.391 . S
H1428 C1436 0.950 . S
H1429 C1441 0.950 . S
H1430 C1438 0.950 . S
H1431 C1440 0.950 . S
H1432 C1442 0.950 . S
H1433 C1444 0.950 . S
H1434 C1446 0.950 . S
H1435 C1447 0.950 . S
C1436 H1428 0.950 . S
C1436 C1437 1.386 . S
C1436 C1438 1.391 . S
C1437 C1436 1.386 . S
C1437 C1441 1.393 . S
C1438 H1430 0.950 . S
C1438 C1436 1.391 . S
C1438 C1439 1.400 . S
C1439 C1438 1.400 . S
C1439 C1440 1.398 . S
C1439 C1445 1.491 . S
C1440 H1431 0.950 . S
C1440 C1439 1.398 . S
C1440 C1441 1.391 . S
C1441 H1429 0.950 . S
C1441 C1437 1.393 . S
C1441 C1440 1.391 . S
C1442 H1432 0.950 . S
C1442 C1443 1.386 . S
C1442 C1444 1.391 . S
C1443 C1442 1.386 . S
C1443 C1447 1.393 . S
C1444 H1433 0.950 . S
C1444 C1442 1.391 . S
C1444 C1445 1.400 . S
C1445 C1439 1.491 . S
C1445 C1444 1.400 . S
C1445 C1446 1.398 . S
C1446 H1434 0.950 . S
C1446 C1445 1.398 . S
C1446 C1447 1.391 . S
C1447 H1435 0.950 . S
C1447 C1443 1.393 . S
C1447 C1446 1.391 . S
H1448 C1456 0.950 . S
H1449 C1461 0.950 . S
H1450 C1458 0.950 . S
H1451 C1460 0.950 . S
H1452 C1462 0.950 . S
H1453 C1464 0.950 . S
H1454 C1466 0.950 . S
H1455 C1467 0.950 . S
C1456 H1448 0.950 . S
C1456 C1457 1.386 . S
C1456 C1458 1.391 . S
C1457 C1456 1.386 . S
C1457 C1461 1.393 . S
C1458 H1450 0.950 . S
C1458 C1456 1.391 . S
C1458 C1459 1.400 . S
C1459 C1458 1.400 . S
C1459 C1460 1.398 . S
C1459 C1465 1.491 . S
C1460 H1451 0.950 . S
C1460 C1459 1.398 . S
C1460 C1461 1.391 . S
C1461 H1449 0.950 . S
C1461 C1457 1.393 . S
C1461 C1460 1.391 . S
C1462 H1452 0.950 . S
C1462 C1463 1.386 . S
C1462 C1464 1.391 . S
C1463 C1462 1.386 . S
C1463 C1467 1.393 . S
C1464 H1453 0.950 . S
C1464 C1462 1.391 . S
C1464 C1465 1.400 . S
C1465 C1459 1.491 . S
C1465 C1464 1.400 . S
C1465 C1466 1.398 . S
C1466 H1454 0.950 . S
C1466 C1465 1.398 . S
C1466 C1467 1.391 . S
C1467 H1455 0.950 . S
C1467 C1463 1.393 . S
C1467 C1466 1.391 . S
H1468 C1476 0.950 . S
H1469 C1481 0.950 . S
H1470 C1478 0.950 . S
H1471 C1480 0.950 . S
H1472 C1482 0.950 . S
H1473 C1484 0.950 . S
H1474 C1486 0.950 . S
H1475 C1487 0.950 . S
C1476 H1468 0.950 . S
C1476 C1477 1.386 . S
C1476 C1478 1.391 . S
C1477 C1476 1.386 . S
C1477 C1481 1.393 . S
C1478 H1470 0.950 . S
C1478 C1476 1.391 . S
C1478 C1479 1.400 . S
C1479 C1478 1.400 . S
C1479 C1480 1.398 . S
C1479 C1485 1.491 . S
C1480 H1471 0.950 . S
C1480 C1479 1.398 . S
C1480 C1481 1.391 . S
C1481 H1469 0.950 . S
C1481 C1477 1.393 . S
C1481 C1480 1.391 . S
C1482 H1472 0.950 . S
C1482 C1483 1.386 . S
C1482 C1484 1.391 . S
C1483 C1482 1.386 . S
C1483 C1487 1.393 . S
C1484 H1473 0.950 . S
C1484 C1482 1.391 . S
C1484 C1485 1.400 . S
C1485 C1479 1.491 . S
C1485 C1484 1.400 . S
C1485 C1486 1.398 . S
C1486 H1474 0.950 . S
C1486 C1485 1.398 . S
C1486 C1487 1.391 . S
C1487 H1475 0.950 . S
C1487 C1483 1.393 . S
C1487 C1486 1.391 . S
H1488 C1496 0.950 . S
H1489 C1501 0.950 . S
H1490 C1498 0.950 . S
H1491 C1500 0.950 . S
H1492 C1502 0.950 . S
H1493 C1504 0.950 . S
H1494 C1506 0.950 . S
H1495 C1507 0.950 . S
C1496 H1488 0.950 . S
C1496 C1497 1.386 . S
C1496 C1498 1.391 . S
C1497 C1496 1.386 . S
C1497 C1501 1.393 . S
C1498 H1490 0.950 . S
C1498 C1496 1.391 . S
C1498 C1499 1.400 . S
C1499 C1498 1.400 . S
C1499 C1500 1.398 . S
C1499 C1505 1.491 . S
C1500 H1491 0.950 . S
C1500 C1499 1.398 . S
C1500 C1501 1.391 . S
C1501 H1489 0.950 . S
C1501 C1497 1.393 . S
C1501 C1500 1.391 . S
C1502 H1492 0.950 . S
C1502 C1503 1.386 . S
C1502 C1504 1.391 . S
C1503 C1502 1.386 . S
C1503 C1507 1.393 . S
C1504 H1493 0.950 . S
C1504 C1502 1.391 . S
C1504 C1505 1.400 . S
C1505 C1499 1.491 . S
C1505 C1504 1.400 . S
C1505 C1506 1.398 . S
C1506 H1494 0.950 . S
C1506 C1505 1.398 . S
C1506 C1507 1.391 . S
C1507 H1495 0.950 . S
C1507 C1503 1.393 . S
C1507 C1506 1.391 . S
H1508 C1516 0.950 . S
H1509 C1521 0.950 . S
H1510 C1518 0.950 . S
H1511 C1520 0.950 . S
H1512 C1522 0.950 . S
H1513 C1524 0.950 . S
H1514 C1526 0.950 . S
H1515 C1527 0.950 . S
C1516 H1508 0.950 . S
C1516 C1517 1.386 . S
C1516 C1518 1.391 . S
C1517 C1516 1.386 . S
C1517 C1521 1.393 . S
C1518 H1510 0.950 . S
C1518 C1516 1.391 . S
C1518 C1519 1.400 . S
C1519 C1518 1.400 . S
C1519 C1520 1.398 . S
C1519 C1525 1.491 . S
C1520 H1511 0.950 . S
C1520 C1519 1.398 . S
C1520 C1521 1.391 . S
C1521 H1509 0.950 . S
C1521 C1517 1.393 . S
C1521 C1520 1.391 . S
C1522 H1512 0.950 . S
C1522 C1523 1.386 . S
C1522 C1524 1.391 . S
C1523 C1522 1.386 . S
C1523 C1527 1.393 . S
C1524 H1513 0.950 . S
C1524 C1522 1.391 . S
C1524 C1525 1.400 . S
C1525 C1519 1.491 . S
C1525 C1524 1.400 . S
C1525 C1526 1.398 . S
C1526 H1514 0.950 . S
C1526 C1525 1.398 . S
C1526 C1527 1.391 . S
C1527 H1515 0.950 . S
C1527 C1523 1.393 . S
C1527 C1526 1.391 . S
H1528 C1536 0.950 . S
H1529 C1541 0.950 . S
H1530 C1538 0.950 . S
H1531 C1540 0.950 . S
H1532 C1542 0.950 . S
H1533 C1544 0.950 . S
H1534 C1546 0.950 . S
H1535 C1547 0.950 . S
C1536 H1528 0.950 . S
C1536 C1537 1.386 . S
C1536 C1538 1.391 . S
C1537 C1536 1.386 . S
C1537 C1541 1.393 . S
C1538 H1530 0.950 . S
C1538 C1536 1.391 . S
C1538 C1539 1.400 . S
C1539 C1538 1.400 . S
C1539 C1540 1.398 . S
C1539 C1545 1.491 . S
C1540 H1531 0.950 . S
C1540 C1539 1.398 . S
C1540 C1541 1.391 . S
C1541 H1529 0.950 . S
C1541 C1537 1.393 . S
C1541 C1540 1.391 . S
C1542 H1532 0.950 . S
C1542 C1543 1.386 . S
C1542 C1544 1.391 . S
C1543 C1542 1.386 . S
C1543 C1547 1.393 . S
C1544 H1533 0.950 . S
C1544 C1542 1.391 . S
C1544 C1545 1.400 . S
C1545 C1539 1.491 . S
C1545 C1544 1.400 . S
C1545 C1546 1.398 . S
C1546 H1534 0.950 . S
C1546 C1545 1.398 . S
C1546 C1547 1.391 . S
C1547 H1535 0.950 . S
C1547 C1543 1.393 . S
C1547 C1546 1.391 . S
H1548 C1556 0.950 . S
H1549 C1561 0.950 . S
H1550 C1558 0.950 . S
H1551 C1560 0.950 . S
H1552 C1562 0.950 . S
H1553 C1564 0.950 . S
H1554 C1566 0.950 . S
H1555 C1567 0.950 . S
C1556 H1548 0.950 . S
C1556 C1557 1.386 . S
C1556 C1558 1.391 . S
C1557 C1556 1.386 . S
C1557 C1561 1.393 . S
C1558 H1550 0.950 . S
C1558 C1556 1.391 . S
C1558 C1559 1.400 . S
C1559 C1558 1.400 . S
C1559 C1560 1.398 . S
C1559 C1565 1.491 . S
C1560 H1551 0.950 . S
C1560 C1559 1.398 . S
C1560 C1561 1.391 . S
C1561 H1549 0.950 . S
C1561 C1557 1.393 . S
C1561 C1560 1.391 . S
C1562 H1552 0.950 . S
C1562 C1563 1.386 . S
C1562 C1564 1.391 . S
C1563 C1562 1.386 . S
C1563 C1567 1.393 . S
C1564 H1553 0.950 . S
C1564 C1562 1.391 . S
C1564 C1565 1.400 . S
C1565 C1559 1.491 . S
C1565 C1564 1.400 . S
C1565 C1566 1.398 . S
C1566 H1554 0.950 . S
C1566 C1565 1.398 . S
C1566 C1567 1.391 . S
C1567 H1555 0.950 . S
C1567 C1563 1.393 . S
C1567 C1566 1.391 . S
H1568 C1576 0.950 . S
H1569 C1581 0.950 . S
H1570 C1578 0.950 . S
H1571 C1580 0.950 . S
H1572 C1582 0.950 . S
H1573 C1584 0.950 . S
H1574 C1586 0.950 . S
H1575 C1587 0.950 . S
C1576 H1568 0.950 . S
C1576 C1577 1.386 . S
C1576 C1578 1.391 . S
C1577 C1576 1.386 . S
C1577 C1581 1.393 . S
C1578 H1570 0.950 . S
C1578 C1576 1.391 . S
C1578 C1579 1.400 . S
C1579 C1578 1.400 . S
C1579 C1580 1.398 . S
C1579 C1585 1.491 . S
C1580 H1571 0.950 . S
C1580 C1579 1.398 . S
C1580 C1581 1.391 . S
C1581 H1569 0.950 . S
C1581 C1577 1.393 . S
C1581 C1580 1.391 . S
C1582 H1572 0.950 . S
C1582 C1583 1.386 . S
C1582 C1584 1.391 . S
C1583 C1582 1.386 . S
C1583 C1587 1.393 . S
C1584 H1573 0.950 . S
C1584 C1582 1.391 . S
C1584 C1585 1.400 . S
C1585 C1579 1.491 . S
C1585 C1584 1.400 . S
C1585 C1586 1.398 . S
C1586 H1574 0.950 . S
C1586 C1585 1.398 . S
C1586 C1587 1.391 . S
C1587 H1575 0.950 . S
C1587 C1583 1.393 . S
C1587 C1586 1.391 . S
H1588 C1596 0.950 . S
H1589 C1601 0.950 . S
H1590 C1598 0.950 . S
H1591 C1600 0.950 . S
H1592 C1602 0.950 . S
H1593 C1604 0.950 . S
H1594 C1606 0.950 . S
H1595 C1607 0.950 . S
C1596 H1588 0.950 . S
C1596 C1597 1.386 . S
C1596 C1598 1.391 . S
C1597 C1596 1.386 . S
C1597 C1601 1.393 . S
C1598 H1590 0.950 . S
C1598 C1596 1.391 . S
C1598 C1599 1.400 . S
C1599 C1598 1.400 . S
C1599 C1600 1.398 . S
C1599 C1605 1.491 . S
C1600 H1591 0.950 . S
C1600 C1599 1.398 . S
C1600 C1601 1.391 . S
C1601 H1589 0.950 . S
C1601 C1597 1.393 . S
C1601 C1600 1.391 . S
C1602 H1592 0.950 . S
C1602 C1603 1.386 . S
C1602 C1604 1.391 . S
C1603 C1602 1.386 . S
C1603 C1607 1.393 . S
C1604 H1593 0.950 . S
C1604 C1602 1.391 . S
C1604 C1605 1.400 . S
C1605 C1599 1.491 . S
C1605 C1604 1.400 . S
C1605 C1606 1.398 . S
C1606 H1594 0.950 . S
C1606 C1605 1.398 . S
C1606 C1607 1.391 . S
C1607 H1595 0.950 . S
C1607 C1603 1.393 . S
C1607 C1606 1.391 . S
H1608 C1616 0.950 . S
H1609 C1621 0.950 . S
H1610 C1618 0.950 . S
H1611 C1620 0.950 . S
H1612 C1622 0.950 . S
H1613 C1624 0.950 . S
H1614 C1626 0.950 . S
H1615 C1627 0.950 . S
C1616 H1608 0.950 . S
C1616 C1617 1.386 . S
C1616 C1618 1.391 . S
C1617 C1616 1.386 . S
C1617 C1621 1.393 . S
C1618 H1610 0.950 . S
C1618 C1616 1.391 . S
C1618 C1619 1.400 . S
C1619 C1618 1.400 . S
C1619 C1620 1.398 . S
C1619 C1625 1.491 . S
C1620 H1611 0.950 . S
C1620 C1619 1.398 . S
C1620 C1621 1.391 . S
C1621 H1609 0.950 . S
C1621 C1617 1.393 . S
C1621 C1620 1.391 . S
C1622 H1612 0.950 . S
C1622 C1623 1.386 . S
C1622 C1624 1.391 . S
C1623 C1622 1.386 . S
C1623 C1627 1.393 . S
C1624 H1613 0.950 . S
C1624 C1622 1.391 . S
C1624 C1625 1.400 . S
C1625 C1619 1.491 . S
C1625 C1624 1.400 . S
C1625 C1626 1.398 . S
C1626 H1614 0.950 . S
C1626 C1625 1.398 . S
C1626 C1627 1.391 . S
C1627 H1615 0.950 . S
C1627 C1623 1.393 . S
C1627 C1626 1.391 . S
H1628 C1636 0.950 . S
H1629 C1641 0.950 . S
H1630 C1638 0.950 . S
H1631 C1640 0.950 . S
H1632 C1642 0.950 . S
H1633 C1644 0.950 . S
H1634 C1646 0.950 . S
H1635 C1647 0.950 . S
C1636 H1628 0.950 . S
C1636 C1637 1.386 . S
C1636 C1638 1.391 . S
C1637 C1636 1.386 . S
C1637 C1641 1.393 . S
C1638 H1630 0.950 . S
C1638 C1636 1.391 . S
C1638 C1639 1.400 . S
C1639 C1638 1.400 . S
C1639 C1640 1.398 . S
C1639 C1645 1.491 . S
C1640 H1631 0.950 . S
C1640 C1639 1.398 . S
C1640 C1641 1.391 . S
C1641 H1629 0.950 . S
C1641 C1637 1.393 . S
C1641 C1640 1.391 . S
C1642 H1632 0.950 . S
C1642 C1643 1.386 . S
C1642 C1644 1.391 . S
C1643 C1642 1.386 . S
C1643 C1647 1.393 . S
C1644 H1633 0.950 . S
C1644 C1642 1.391 . S
C1644 C1645 1.400 . S
C1645 C1639 1.491 . S
C1645 C1644 1.400 . S
C1645 C1646 1.398 . S
C1646 H1634 0.950 . S
C1646 C1645 1.398 . S
C1646 C1647 1.391 . S
C1647 H1635 0.950 . S
C1647 C1643 1.393 . S
C1647 C1646 1.391 . S
H1648 C1656 0.950 . S
H1649 C1661 0.950 . S
H1650 C1658 0.950 . S
H1651 C1660 0.950 . S
H1652 C1662 0.950 . S
H1653 C1664 0.950 . S
H1654 C1666 0.950 . S
H1655 C1667 0.950 . S
C1656 H1648 0.950 . S
C1656 C1657 1.386 . S
C1656 C1658 1.391 . S
C1657 C1656 1.386 . S
C1657 C1661 1.393 . S
C1658 H1650 0.950 . S
C1658 C1656 1.391 . S
C1658 C1659 1.400 . S
C1659 C1658 1.400 . S
C1659 C1660 1.398 . S
C1659 C1665 1.491 . S
C1660 H1651 0.950 . S
C1660 C1659 1.398 . S
C1660 C1661 1.391 . S
C1661 H1649 0.950 . S
C1661 C1657 1.393 . S
C1661 C1660 1.391 . S
C1662 H1652 0.950 . S
C1662 C1663 1.386 . S
C1662 C1664 1.391 . S
C1663 C1662 1.386 . S
C1663 C1667 1.393 . S
C1664 H1653 0.950 . S
C1664 C1662 1.391 . S
C1664 C1665 1.400 . S
C1665 C1659 1.491 . S
C1665 C1664 1.400 . S
C1665 C1666 1.398 . S
C1666 H1654 0.950 . S
C1666 C1665 1.398 . S
C1666 C1667 1.391 . S
C1667 H1655 0.950 . S
C1667 C1663 1.393 . S
C1667 C1666 1.391 . S
H1668 C1676 0.950 . S
H1669 C1681 0.950 . S
H1670 C1678 0.950 . S
H1671 C1680 0.950 . S
H1672 C1682 0.950 . S
H1673 C1684 0.950 . S
H1674 C1686 0.950 . S
H1675 C1687 0.950 . S
C1676 H1668 0.950 . S
C1676 C1677 1.386 . S
C1676 C1678 1.391 . S
C1677 C1676 1.386 . S
C1677 C1681 1.393 . S
C1678 H1670 0.950 . S
C1678 C1676 1.391 . S
C1678 C1679 1.400 . S
C1679 C1678 1.400 . S
C1679 C1680 1.398 . S
C1679 C1685 1.491 . S
C1680 H1671 0.950 . S
C1680 C1679 1.398 . S
C1680 C1681 1.391 . S
C1681 H1669 0.950 . S
C1681 C1677 1.393 . S
C1681 C1680 1.391 . S
C1682 H1672 0.950 . S
C1682 C1683 1.386 . S
C1682 C1684 1.391 . S
C1683 C1682 1.386 . S
C1683 C1687 1.393 . S
C1684 H1673 0.950 . S
C1684 C1682 1.391 . S
C1684 C1685 1.400 . S
C1685 C1679 1.491 . S
C1685 C1684 1.400 . S
C1685 C1686 1.398 . S
C1686 H1674 0.950 . S
C1686 C1685 1.398 . S
C1686 C1687 1.391 . S
C1687 H1675 0.950 . S
C1687 C1683 1.393 . S
C1687 C1686 1.391 . S
H1688 C1696 0.950 . S
H1689 C1701 0.950 . S
H1690 C1698 0.950 . S
H1691 C1700 0.950 . S
H1692 C1702 0.950 . S
H1693 C1704 0.950 . S
H1694 C1706 0.950 . S
H1695 C1707 0.950 . S
C1696 H1688 0.950 . S
C1696 C1697 1.386 . S
C1696 C1698 1.391 . S
C1697 C1696 1.386 . S
C1697 C1701 1.393 . S
C1698 H1690 0.950 . S
C1698 C1696 1.391 . S
C1698 C1699 1.400 . S
C1699 C1698 1.400 . S
C1699 C1700 1.398 . S
C1699 C1705 1.491 . S
C1700 H1691 0.950 . S
C1700 C1699 1.398 . S
C1700 C1701 1.391 . S
C1701 H1689 0.950 . S
C1701 C1697 1.393 . S
C1701 C1700 1.391 . S
C1702 H1692 0.950 . S
C1702 C1703 1.386 . S
C1702 C1704 1.391 . S
C1703 C1702 1.386 . S
C1703 C1707 1.393 . S
C1704 H1693 0.950 . S
C1704 C1702 1.391 . S
C1704 C1705 1.400 . S
C1705 C1699 1.491 . S
C1705 C1704 1.400 . S
C1705 C1706 1.398 . S
C1706 H1694 0.950 . S
C1706 C1705 1.398 . S
C1706 C1707 1.391 . S
C1707 H1695 0.950 . S
C1707 C1703 1.393 . S
C1707 C1706 1.391 . S
H1708 C1716 0.950 . S
H1709 C1721 0.950 . S
H1710 C1718 0.950 . S
H1711 C1720 0.950 . S
H1712 C1722 0.950 . S
H1713 C1724 0.950 . S
H1714 C1726 0.950 . S
H1715 C1727 0.950 . S
C1716 H1708 0.950 . S
C1716 C1717 1.386 . S
C1716 C1718 1.391 . S
C1717 C1716 1.386 . S
C1717 C1721 1.393 . S
C1718 H1710 0.950 . S
C1718 C1716 1.391 . S
C1718 C1719 1.400 . S
C1719 C1718 1.400 . S
C1719 C1720 1.398 . S
C1719 C1725 1.491 . S
C1720 H1711 0.950 . S
C1720 C1719 1.398 . S
C1720 C1721 1.391 . S
C1721 H1709 0.950 . S
C1721 C1717 1.393 . S
C1721 C1720 1.391 . S
C1722 H1712 0.950 . S
C1722 C1723 1.386 . S
C1722 C1724 1.391 . S
C1723 C1722 1.386 . S
C1723 C1727 1.393 . S
C1724 H1713 0.950 . S
C1724 C1722 1.391 . S
C1724 C1725 1.400 . S
C1725 C1719 1.491 . S
C1725 C1724 1.400 . S
C1725 C1726 1.398 . S
C1726 H1714 0.950 . S
C1726 C1725 1.398 . S
C1726 C1727 1.391 . S
C1727 H1715 0.950 . S
C1727 C1723 1.393 . S
C1727 C1726 1.391 . S
C457 C135 1.116 . S
C463 C3 1.186 . S
C477 C17 1.234 . S
C483 C373 1.127 . S
C497 C163 1.105 . S
C503 C31 1.185 . S
C517 C345 1.082 . S
C523 C45 1.189 . S
C537 C59 1.191 . S
C543 C219 1.129 . S
C557 C401 1.097 . S
C563 C73 1.185 . S
C577 C87 1.192 . S
C583 C191 1.091 . S
C597 C429 1.085 . S
C603 C101 1.199 . S
C617 C23 1.082 . S
C623 C115 1.188 . S
C637 C129 1.200 . S
C643 C261 1.085 . S
C657 C51 1.082 . S
C663 C143 1.187 . S
C677 C157 1.192 . S
C683 C233 1.089 . S
C697 C171 1.195 . S
C703 C107 1.111 . S
C717 C289 1.097 . S
C723 C185 1.185 . S
C737 C199 1.190 . S
C743 C79 1.129 . S
C757 C317 1.123 . S
C763 C213 1.233 . S
C777 C359 1.110 . S
C783 C227 1.195 . S
C797 C149 1.092 . S
C803 C241 1.185 . S
C817 C255 1.189 . S
C823 C387 1.082 . S
C837 C121 1.112 . S
C843 C269 1.225 . S
C857 C443 1.122 . S
C863 C283 1.194 . S
C877 C297 1.232 . S
C883 C177 1.129 . S
C897 C415 1.082 . S
C903 C311 1.187 . S
C917 C205 1.095 . S
C923 C325 1.185 . S
C937 C247 1.100 . S
C943 C339 1.194 . S
C957 C353 1.194 . S
C963 C37 1.099 . S
C977 C367 1.193 . S
C983 C275 1.128 . S
C997 C381 1.192 . S
C1003 C9 1.085 . S
C1017 C331 1.098 . S
C1023 C395 1.185 . S
C1037 C409 1.208 . S
C1043 C65 1.093 . S
C1057 C423 1.186 . S
C1063 C303 1.085 . S
C1077 C437 1.190 . S
C1083 C93 1.084 . S
C1097 C344 1.481 . S
C1103 C8 1.481 . S
C1117 C22 1.472 . S
C1123 C134 1.472 . S
C1137 C36 1.491 . S
C1143 C372 1.491 . S
C1157 C50 1.472 . S
C1163 C162 1.472 . S
C1177 C64 1.490 . S
C1183 C400 1.490 . S
C1197 C78 1.475 . S
C1203 C190 1.475 . S
C1217 C428 1.483 . S
C1223 C92 1.483 . S
C1237 C106 1.477 . S
C1243 C218 1.477 . S
C1257 C120 1.493 . S
C1263 C232 1.493 . S
C1277 C148 1.475 . S
C1283 C260 1.475 . S
C1297 C288 1.488 . S
C1303 C176 1.488 . S
C1317 C316 1.473 . S
C1323 C204 1.473 . S
C1337 C246 1.486 . S
C1343 C358 1.486 . S
C1357 C386 1.474 . S
C1363 C274 1.474 . S
C1377 C302 1.481 . S
C1383 C414 1.481 . S
C1397 C442 1.483 . S
C1403 C330 1.483 . S
C1417 C301 1.729 . S
C1423 C7 1.736 . S
C1437 C315 1.726 . S
C1443 C21 1.736 . S
C1457 C35 1.729 . S
C1463 C329 1.716 . S
C1477 C287 1.734 . S
C1483 C49 1.719 . S
C1497 C273 1.734 . S
C1503 C63 1.731 . S
C1517 C231 1.717 . S
C1523 C77 1.732 . S
C1537 C91 1.728 . S
C1543 C245 1.736 . S
C1557 C259 1.731 . S
C1563 C105 1.717 . S
C1577 C413 1.716 . S
C1583 C119 1.728 . S
C1597 C427 1.733 . S
C1603 C133 1.718 . S
C1617 C441 1.733 . S
C1623 C147 1.717 . S
C1637 C161 1.736 . S
C1643 C399 1.721 . S
C1657 C385 1.728 . S
C1663 C175 1.736 . S
C1677 C343 1.736 . S
C1683 C189 1.723 . S
C1697 C357 1.720 . S
C1703 C203 1.735 . S
C1717 C371 1.726 . S
C1723 C217 1.716 . S
