# Generated by pormake.
# Topology qtz-e, (6)-cn, num edge types: 1
# Building blocks:
#     Node 0, Type 0, BuildingBlock: BETFEN_clean_sbu_0, # of connection points: 6
#     Node 1, Type 0, BuildingBlock: BETFEN_clean_sbu_0, # of connection points: 6
#     Node 2, Type 0, BuildingBlock: BETFEN_clean_sbu_0, # of connection points: 6
#     Node 3, Type 0, BuildingBlock: BETFEN_clean_sbu_0, # of connection points: 6
#     Node 4, Type 0, BuildingBlock: BETFEN_clean_sbu_0, # of connection points: 6
#     Node 5, Type 0, BuildingBlock: BETFEN_clean_sbu_0, # of connection points: 6
#     Edge 6, Type (0, 0), BuildingBlock: XUDNAN_clean_linker_2, # of connection points: 2
#     Edge 7, Type (0, 0), BuildingBlock: XUDNAN_clean_linker_2, # of connection points: 2
#     Edge 8, Type (0, 0), BuildingBlock: XUDNAN_clean_linker_2, # of connection points: 2
#     Edge 9, Type (0, 0), BuildingBlock: XUDNAN_clean_linker_2, # of connection points: 2
#     Edge 10, Type (0, 0), BuildingBlock: XUDNAN_clean_linker_2, # of connection points: 2
#     Edge 11, Type (0, 0), BuildingBlock: XUDNAN_clean_linker_2, # of connection points: 2
#     Edge 12, Type (0, 0), BuildingBlock: XUDNAN_clean_linker_2, # of connection points: 2
#     Edge 13, Type (0, 0), BuildingBlock: XUDNAN_clean_linker_2, # of connection points: 2
#     Edge 14, Type (0, 0), BuildingBlock: XUDNAN_clean_linker_2, # of connection points: 2
#     Edge 15, Type (0, 0), BuildingBlock: XUDNAN_clean_linker_2, # of connection points: 2
#     Edge 16, Type (0, 0), BuildingBlock: XUDNAN_clean_linker_2, # of connection points: 2
#     Edge 17, Type (0, 0), BuildingBlock: XUDNAN_clean_linker_2, # of connection points: 2
#     Edge 18, Type (0, 0), BuildingBlock: XUDNAN_clean_linker_2, # of connection points: 2
#     Edge 19, Type (0, 0), BuildingBlock: XUDNAN_clean_linker_2, # of connection points: 2
#     Edge 20, Type (0, 0), BuildingBlock: XUDNAN_clean_linker_2, # of connection points: 2
#     Edge 21, Type (0, 0), BuildingBlock: XUDNAN_clean_linker_2, # of connection points: 2
#     Edge 22, Type (0, 0), BuildingBlock: XUDNAN_clean_linker_2, # of connection points: 2
#     Edge 23, Type (0, 0), BuildingBlock: XUDNAN_clean_linker_2, # of connection points: 2
# Relax obj value: 0.182
# Max RMSD: 0.209
# Mean RMSD: 0.209
data_MOF--net-qtz-e--node1-BETFEN_clean_sbu_0--edge1-XUDNAN_clean_linker_2
_symmetry_space_group_name_H-M    P1
_symmetry_Int_Tables_number       1
_symmetry_cell_setting            triclinic
loop_
_symmetry_equiv_pos_as_xyz
'x, y, z'
_cell_length_a     25.413596
_cell_length_b     25.345035
_cell_length_c     52.910648
_cell_angle_alpha  90.072045
_cell_angle_beta   90.162397
_cell_angle_gamma 119.99163
loop_
_atom_site_label
_atom_site_type_symbol
_atom_site_fract_x
_atom_site_fract_y
_atom_site_fract_z
_atom_type_partial_charge
Pr0 Pr 0.26577 0.46044 0.08053 0.0
Pr1 Pr 0.19183 0.33059 0.10586 0.0
C2 C 0.35126 0.55844 0.05583 0.0
C3 C 0.3619 0.57713 0.02928 0.0
C4 C 0.41262 0.63263 0.02253 0.0
C5 C 0.42187 0.65122 0.99728 0.0
C6 C 0.38027 0.61455 0.97848 0.0
C7 C 0.33001 0.55837 0.98535 0.0
C8 C 0.32097 0.53975 1.01056 0.0
C9 C 0.14164 0.41415 0.07853 0.0
C10 C 0.22733 0.33417 0.046 0.0
C11 C 0.11562 0.23301 0.13356 0.0
C12 C 0.10279 0.22208 0.161 0.0
C13 C 0.14527 0.22049 0.17762 0.0
C14 C 0.13291 0.21039 0.20343 0.0
C15 C 0.07776 0.2015 0.21334 0.0
C16 C 0.03574 0.20424 0.19683 0.0
C17 C 0.04804 0.21419 0.17093 0.0
C18 C 0.31837 0.38963 0.1105 0.0
C19 C 0.23032 0.4567 0.14053 0.0
O20 O 0.35737 0.51154 0.06158 0.0
O21 O 0.30359 0.55654 0.06617 0.0
O22 O 0.16671 0.38176 0.07667 0.0
O23 O 0.18122 0.47193 0.07796 0.0
O24 O 0.18915 0.29919 0.06374 0.0
O25 O 0.26365 0.3933 0.04944 0.0
O26 O 0.09875 0.26831 0.12256 0.0
O27 O 0.16834 0.24237 0.12561 0.0
O28 O 0.28548 0.41314 0.11213 0.0
O29 O 0.28543 0.33086 0.10785 0.0
O30 O 0.26936 0.49024 0.12275 0.0
O31 O 0.19325 0.39745 0.13745 0.0
H32 H 0.44465 0.66187 0.0368 0.0
H33 H 0.46071 0.69494 0.99256 0.0
H34 H 0.29772 0.52882 0.97123 0.0
H35 H 0.28178 0.49644 0.0155 0.0
H36 H 0.18819 0.22695 0.17074 0.0
H37 H 0.16668 0.20948 0.21567 0.0
H38 H 0.99262 0.19707 0.2038 0.0
H39 H 0.01451 0.21536 0.15862 0.0
Pr40 Pr 0.70906 0.19046 0.512 0.0
Pr41 Pr 0.77928 0.13084 0.48922 0.0
C42 C 0.6263 0.20981 0.53548 0.0
C43 C 0.61623 0.22027 0.56194 0.0
C44 C 0.56843 0.23036 0.56813 0.0
C45 C 0.55992 0.24219 0.59319 0.0
C46 C 0.59932 0.24441 0.61246 0.0
C47 C 0.64691 0.23369 0.60614 0.0
C48 C 0.65521 0.22162 0.5811 0.0
C49 C 0.83332 0.2633 0.51808 0.0
C50 C 0.73827 0.09768 0.54799 0.0
C51 C 0.85244 0.10096 0.46357 0.0
C52 C 0.87937 0.11067 0.43809 0.0
C53 C 0.87566 0.06087 0.42498 0.0
C54 C 0.90092 0.06838 0.40093 0.0
C55 C 0.9311 0.12614 0.38943 0.0
C56 C 0.93373 0.17596 0.40241 0.0
C57 C 0.90802 0.1683 0.4265 0.0
C58 C 0.65322 0.06773 0.48174 0.0
C59 C 0.76235 0.23172 0.45504 0.0
O60 O 0.61685 0.15528 0.53009 0.0
O61 O 0.67548 0.25339 0.52504 0.0
O62 O 0.80555 0.20558 0.51939 0.0
O63 O 0.79601 0.28408 0.51651 0.0
O64 O 0.77671 0.09937 0.53084 0.0
O65 O 0.70411 0.12269 0.54385 0.0
O66 O 0.87294 0.14799 0.47869 0.0
O67 O 0.79368 0.06526 0.46499 0.0
O68 O 0.68783 0.12408 0.47965 0.0
O69 O 0.68356 0.04062 0.48748 0.0
O70 O 0.71609 0.22242 0.46955 0.0
O71 O 0.79704 0.2084 0.46074 0.0
H72 H 0.53803 0.22964 0.55356 0.0
H73 H 0.52317 0.25078 0.5974 0.0
H74 H 0.67747 0.2342 0.62058 0.0
H75 H 0.6923 0.2137 0.57664 0.0
H76 H 0.85315 0.01592 0.43339 0.0
H77 H 0.89657 0.02865 0.39131 0.0
H78 H 0.95677 0.22111 0.39422 0.0
H79 H 0.91094 0.20747 0.43609 0.0
Pr80 Pr 0.51661 0.83175 0.75049 0.0
Pr81 Pr 0.64199 0.88006 0.77917 0.0
C82 C 0.4089 0.80064 0.72867 0.0
C83 C 0.38306 0.78491 0.70273 0.0
C84 C 0.33462 0.72611 0.69759 0.0
C85 C 0.31132 0.70941 0.67304 0.0
C86 C 0.33557 0.75132 0.65305 0.0
C87 C 0.38337 0.81056 0.65827 0.0
C88 C 0.40704 0.82713 0.6828 0.0
C89 C 0.57054 0.75842 0.7464 0.0
C90 C 0.64143 0.91858 0.71856 0.0
C91 C 0.74205 0.89999 0.80471 0.0
C92 C 0.75056 0.8932 0.83201 0.0
C93 C 0.71362 0.89985 0.84995 0.0
C94 C 0.72045 0.89258 0.87573 0.0
C95 C 0.76386 0.87763 0.88428 0.0
C96 C 0.79981 0.8694 0.86623 0.0
C97 C 0.79331 0.8773 0.84033 0.0
C98 C 0.57858 0.93903 0.792 0.0
C99 C 0.51494 0.79496 0.8103 0.0
O100 O 0.45084 0.85721 0.73308 0.0
O101 O 0.42008 0.76116 0.73978 0.0
O102 O 0.5692 0.7869 0.76551 0.0
O103 O 0.54135 0.76633 0.72793 0.0
O104 O 0.67326 0.91151 0.73688 0.0
O105 O 0.58268 0.89816 0.72054 0.0
O106 O 0.70747 0.84935 0.7924 0.0
O107 O 0.73124 0.94383 0.79861 0.0
O108 O 0.58217 0.92263 0.76977 0.0
O109 O 0.61369 0.93114 0.80742 0.0
O110 O 0.48573 0.80721 0.79262 0.0
O111 O 0.57219 0.80899 0.80753 0.0
H112 H 0.31508 0.69275 0.71257 0.0
H113 H 0.27401 0.66367 0.66973 0.0
H114 H 0.40346 0.84376 0.64327 0.0
H115 H 0.44459 0.87278 0.68602 0.0
H116 H 0.6793 0.91071 0.84406 0.0
H117 H 0.69141 0.89844 0.889 0.0
H118 H 0.83386 0.85818 0.87216 0.0
H119 H 0.82172 0.8711 0.82682 0.0
Pr120 Pr 0.80273 0.50281 0.1787 0.0
Pr121 Pr 0.84784 0.63043 0.15309 0.0
C122 C 0.77707 0.39615 0.20001 0.0
C123 C 0.78599 0.3817 0.22616 0.0
C124 C 0.74172 0.32824 0.23788 0.0
C125 C 0.74725 0.3176 0.26351 0.0
C126 C 0.79715 0.36044 0.27796 0.0
C127 C 0.84179 0.4135 0.26588 0.0
C128 C 0.83621 0.42404 0.24038 0.0
C129 C 0.72236 0.54814 0.1811 0.0
C130 C 0.88235 0.625 0.21407 0.0
C131 C 0.86471 0.73517 0.13264 0.0
C132 C 0.85298 0.75398 0.10778 0.0
C133 C 0.88309 0.81578 0.10127 0.0
C134 C 0.87262 0.83438 0.07779 0.0
C135 C 0.83172 0.79152 0.06023 0.0
C136 C 0.8021 0.72939 0.06673 0.0
C137 C 0.81264 0.7108 0.09027 0.0
C138 C 0.92029 0.57865 0.14542 0.0
C139 C 0.77701 0.50767 0.11727 0.0
O140 O 0.82619 0.42913 0.18673 0.0
O141 O 0.73669 0.41326 0.19731 0.0
O142 O 0.75407 0.55104 0.16244 0.0
O143 O 0.73174 0.52044 0.19968 0.0
O144 O 0.87516 0.65777 0.19622 0.0
O145 O 0.86461 0.56689 0.21065 0.0
O146 O 0.81699 0.69896 0.14616 0.0
O147 O 0.90714 0.72029 0.13328 0.0
O148 O 0.89549 0.57861 0.16604 0.0
O149 O 0.9125 0.61125 0.12849 0.0
O150 O 0.7854 0.47655 0.13542 0.0
O151 O 0.7882 0.564 0.12089 0.0
H152 H 0.70234 0.29517 0.22731 0.0
H153 H 0.71247 0.27571 0.27192 0.0
H154 H 0.88069 0.44786 0.27619 0.0
H155 H 0.8707 0.46606 0.23191 0.0
H156 H 0.91477 0.84978 0.11439 0.0
H157 H 0.89697 0.88249 0.07332 0.0
H158 H 0.76977 0.69528 0.05386 0.0
H159 H 0.78901 0.66277 0.09487 0.0
Pr160 Pr 0.16405 0.67789 0.41614 0.0
Pr161 Pr 0.12231 0.76435 0.44072 0.0
C162 C 0.18752 0.59375 0.39635 0.0
C163 C 0.19376 0.57664 0.37015 0.0
C164 C 0.14398 0.55066 0.35331 0.0
C165 C 0.15204 0.54046 0.32795 0.0
C166 C 0.21004 0.5565 0.31887 0.0
C167 C 0.25922 0.58024 0.33591 0.0
C168 C 0.2511 0.58991 0.36128 0.0
C169 C 0.24779 0.80319 0.41347 0.0
C170 C 0.08911 0.72478 0.37985 0.0
C171 C 0.11193 0.85566 0.46142 0.0
C172 C 0.13236 0.88503 0.48641 0.0
C173 C 0.10228 0.91131 0.49876 0.0
C174 C 0.11908 0.93427 0.52345 0.0
C175 C 0.16583 0.9306 0.53639 0.0
C176 C 0.19598 0.90464 0.52356 0.0
C177 C 0.17972 0.88257 0.49895 0.0
C178 C 0.0464 0.64053 0.44937 0.0
C179 C 0.18761 0.70877 0.47749 0.0
O180 O 0.13337 0.58139 0.40348 0.0
O181 O 0.23023 0.64707 0.4043 0.0
O182 O 0.21506 0.77539 0.43206 0.0
O183 O 0.23842 0.76513 0.39521 0.0
O184 O 0.09624 0.76471 0.39769 0.0
O185 O 0.10618 0.68385 0.38316 0.0
O186 O 0.15505 0.86488 0.44544 0.0
O187 O 0.06799 0.79886 0.46191 0.0
O188 O 0.07238 0.66394 0.42875 0.0
O189 O 0.05403 0.6825 0.46549 0.0
O190 O 0.17639 0.66725 0.45982 0.0
O191 O 0.18095 0.75638 0.47297 0.0
H192 H 0.09907 0.53979 0.35948 0.0
H193 H 0.11339 0.52242 0.31523 0.0
H194 H 0.30431 0.59229 0.32951 0.0
H195 H 0.29013 0.60946 0.37382 0.0
H196 H 0.0654 0.91348 0.48944 0.0
H197 H 0.0954 0.95494 0.53228 0.0
H198 H 0.23156 0.89987 0.53258 0.0
H199 H 0.20367 0.86253 0.48985 0.0
Pr200 Pr 0.45185 0.30071 0.84241 0.0
Pr201 Pr 0.32844 0.22437 0.81331 0.0
C202 C 0.55876 0.37318 0.86597 0.0
C203 C 0.58266 0.38185 0.89218 0.0
C204 C 0.63215 0.37351 0.89756 0.0
C205 C 0.6545 0.3801 0.92228 0.0
C206 C 0.62817 0.39573 0.94216 0.0
C207 C 0.579 0.40472 0.93673 0.0
C208 C 0.5563 0.39759 0.91205 0.0
C209 C 0.40121 0.17376 0.84275 0.0
C210 C 0.32703 0.25798 0.87479 0.0
C211 C 0.22832 0.13785 0.78953 0.0
C212 C 0.22018 0.1149 0.76333 0.0
C213 C 0.2653 0.14828 0.74544 0.0
C214 C 0.26168 0.12512 0.72119 0.0
C215 C 0.21281 0.06806 0.7141 0.0
C216 C 0.16629 0.03541 0.73172 0.0
C217 C 0.17022 0.05853 0.75627 0.0
C218 C 0.38331 0.34867 0.80515 0.0
C219 C 0.45672 0.27876 0.7812 0.0
O220 O 0.51865 0.38979 0.8612 0.0
O221 O 0.54637 0.32232 0.85465 0.0
O222 O 0.40408 0.20592 0.82429 0.0
O223 O 0.42418 0.2075 0.86275 0.0
O224 O 0.29602 0.22062 0.85586 0.0
O225 O 0.3856 0.29726 0.8731 0.0
O226 O 0.26272 0.12532 0.80387 0.0
O227 O 0.24033 0.19424 0.79209 0.0
O228 O 0.38229 0.3245 0.82624 0.0
O229 O 0.34956 0.30819 0.78842 0.0
O230 O 0.4845 0.31683 0.80018 0.0
O231 O 0.39988 0.23365 0.78306 0.0
H232 H 0.65343 0.36158 0.88262 0.0
H233 H 0.69283 0.3735 0.92579 0.0
H234 H 0.55729 0.41613 0.95166 0.0
H235 H 0.51781 0.40399 0.90862 0.0
H236 H 0.30407 0.19197 0.75039 0.0
H237 H 0.29762 0.15165 0.70796 0.0
H238 H 0.12817 0.99124 0.72681 0.0
H239 H 0.13502 0.03194 0.76986 0.0
H240 H 0.14433 0.46048 0.28601 0.0
H241 H 0.2988 0.6441 0.28983 0.0
H242 H 0.31738 0.63976 0.24436 0.0
H243 H 0.21121 0.40122 0.24307 0.0
H244 H 0.14185 0.35367 0.2259 0.0
H245 H 0.13882 0.37165 0.25859 0.0
H246 H 0.06834 0.41424 0.24676 0.0
H247 H 0.0714 0.39663 0.21398 0.0
H248 H 0.09239 0.47318 0.22322 0.0
H249 H 0.32033 0.61619 0.19892 0.0
H250 H 0.31098 0.57249 0.15641 0.0
H251 H 0.15562 0.40305 0.18152 0.0
C252 C 0.18178 0.49982 0.27718 0.0
C253 C 0.22033 0.55262 0.29146 0.0
C254 C 0.26921 0.60298 0.27932 0.0
C255 C 0.27986 0.60111 0.25347 0.0
C256 C 0.24135 0.54847 0.23996 0.0
C257 C 0.19347 0.49851 0.25133 0.0
C258 C 0.16034 0.44686 0.23247 0.0
C259 C 0.16328 0.39002 0.24049 0.0
C260 C 0.0942 0.43188 0.2289 0.0
C261 C 0.19763 0.47562 0.20887 0.0
C262 C 0.24366 0.53443 0.21361 0.0
C263 C 0.28443 0.57019 0.19493 0.0
C264 C 0.27864 0.54496 0.17079 0.0
C265 C 0.23267 0.48432 0.16554 0.0
C266 C 0.19129 0.44957 0.18486 0.0
H267 H 0.41031 0.22041 0.73615 0.0
H268 H 0.5794 0.35077 0.77254 0.0
H269 H 0.63516 0.35694 0.73335 0.0
H270 H 0.47005 0.14025 0.70109 0.0
H271 H 0.41905 0.12777 0.67509 0.0
H272 H 0.3989 0.13704 0.70683 0.0
H273 H 0.38396 0.22743 0.68904 0.0
H274 H 0.40666 0.21542 0.65836 0.0
H275 H 0.44691 0.28935 0.67321 0.0
H276 H 0.67244 0.34552 0.68995 0.0
H277 H 0.68697 0.32121 0.64609 0.0
H278 H 0.49269 0.19886 0.63885 0.0
C279 C 0.45902 0.25059 0.73593 0.0
C280 C 0.4904 0.28501 0.75749 0.0
C281 C 0.55423 0.324 0.75626 0.0
C282 C 0.58634 0.32774 0.73409 0.0
C283 C 0.55389 0.29263 0.71325 0.0
C284 C 0.49158 0.25528 0.71398 0.0
C285 C 0.46717 0.22168 0.68925 0.0
C286 C 0.43695 0.15253 0.69325 0.0
C287 C 0.42357 0.23945 0.67673 0.0
C288 C 0.5253 0.24565 0.67439 0.0
C289 C 0.57502 0.28643 0.68851 0.0
C290 C 0.63371 0.3138 0.67874 0.0
C291 C 0.64155 0.29944 0.65387 0.0
C292 C 0.59095 0.2583 0.63899 0.0
C293 C 0.53221 0.2311 0.64957 0.0
H294 H 0.48506 0.66743 0.9505 0.0
H295 H 0.29323 0.61023 0.94673 0.0
H296 H 0.3064 0.64871 0.903 0.0
H297 H 0.53928 0.806 0.91589 0.0
H298 H 0.59782 0.79886 0.89979 0.0
H299 H 0.57283 0.76552 0.93053 0.0
H300 H 0.54877 0.66057 0.9125 0.0
H301 H 0.57364 0.69401 0.88171 0.0
H302 H 0.49858 0.62923 0.88564 0.0
H303 H 0.34113 0.69708 0.86046 0.0
H304 H 0.39432 0.74828 0.82121 0.0
H305 H 0.56336 0.77307 0.85268 0.0
C306 C 0.44589 0.6631 0.94046 0.0
C307 C 0.3881 0.63583 0.95196 0.0
C308 C 0.33775 0.63034 0.93815 0.0
C309 C 0.34484 0.65233 0.91338 0.0
C310 C 0.40248 0.67935 0.90266 0.0
C311 C 0.45208 0.68447 0.91567 0.0
C312 C 0.50908 0.71542 0.89978 0.0
C313 C 0.55758 0.775 0.91225 0.0
C314 C 0.53395 0.67221 0.8946 0.0
C315 C 0.48387 0.72767 0.87595 0.0
C316 C 0.42233 0.70651 0.87799 0.0
C317 C 0.38926 0.71354 0.85855 0.0
C318 C 0.41991 0.74277 0.83635 0.0
C319 C 0.4829 0.7644 0.83378 0.0
C320 C 0.51508 0.75667 0.85393 0.0
H321 H 0.68417 0.23306 0.41857 0.0
H322 H 0.87441 0.30737 0.43743 0.0
H323 H 0.90366 0.35326 0.39529 0.0
H324 H 0.69458 0.19022 0.35697 0.0
H325 H 0.64214 0.20975 0.34265 0.0
H326 H 0.63498 0.18965 0.37559 0.0
H327 H 0.64198 0.29197 0.38775 0.0
H328 H 0.64818 0.31203 0.35478 0.0
H329 H 0.70546 0.36246 0.3769 0.0
H330 H 0.91275 0.37969 0.35008 0.0
H331 H 0.90176 0.39256 0.30476 0.0
H332 H 0.70581 0.30455 0.31378 0.0
C333 C 0.73189 0.26083 0.41402 0.0
C334 C 0.77721 0.26745 0.43141 0.0
C335 C 0.83914 0.3023 0.42452 0.0
C336 C 0.85622 0.32845 0.40057 0.0
C337 C 0.81075 0.31934 0.3835 0.0
C338 C 0.74986 0.2871 0.38987 0.0
C339 C 0.71047 0.281 0.36713 0.0
C340 C 0.66805 0.21365 0.36019 0.0
C341 C 0.67439 0.31383 0.37193 0.0
C342 C 0.75876 0.31343 0.34703 0.0
C343 C 0.8162 0.33532 0.35702 0.0
C344 C 0.86806 0.36402 0.3421 0.0
C345 C 0.86127 0.37135 0.31629 0.0
C346 C 0.80298 0.35051 0.30546 0.0
C347 C 0.75109 0.32095 0.32123 0.0
H348 H 0.30904 0.81573 0.61843 0.0
H349 H 0.30808 0.64536 0.62833 0.0
H350 H 0.26909 0.61487 0.58474 0.0
H351 H 0.17131 0.75231 0.58219 0.0
H352 H 0.19601 0.81647 0.56146 0.0
H353 H 0.22557 0.82776 0.59318 0.0
H354 H 0.3356 0.87987 0.57718 0.0
H355 H 0.30894 0.87168 0.54508 0.0
H356 H 0.35743 0.84193 0.55415 0.0
H357 H 0.23157 0.60386 0.53939 0.0
H358 H 0.19776 0.61309 0.49653 0.0
H359 H 0.22324 0.7905 0.51676 0.0
C360 C 0.30101 0.77217 0.61138 0.0
C361 C 0.3117 0.73296 0.62682 0.0
C362 C 0.29966 0.67591 0.61696 0.0
C363 C 0.27778 0.65831 0.59218 0.0
C364 C 0.26775 0.69806 0.57747 0.0
C365 C 0.27878 0.75372 0.58676 0.0
C366 C 0.26338 0.78769 0.56728 0.0
C367 C 0.21101 0.79661 0.57658 0.0
C368 C 0.31968 0.84891 0.56053 0.0
C369 C 0.24346 0.74318 0.54534 0.0
C370 C 0.24589 0.69156 0.5516 0.0
C371 C 0.22962 0.64419 0.53429 0.0
C372 C 0.21065 0.64991 0.50994 0.0
C373 C 0.20817 0.70266 0.5031 0.0
C374 C 0.22468 0.74959 0.52122 0.0
H375 H 0.73673 0.55014 0.07842 0.0
H376 H 0.76789 0.402 0.0987 0.0
H377 H 0.73352 0.35725 0.0561 0.0
H378 H 0.60167 0.46171 0.04179 0.0
H379 H 0.6204 0.52035 0.01854 0.0
H380 H 0.64791 0.54081 0.05049 0.0
H381 H 0.75887 0.60213 0.03423 0.0
H382 H 0.73116 0.58266 1.00227 0.0
H383 H 0.78757 0.56533 0.01388 0.0
H384 H 0.69691 0.32965 1.01081 0.0
H385 H 0.65849 0.31982 0.96706 0.0
H386 H 0.65067 0.48575 0.97681 0.0
C387 C 0.73632 0.50822 0.074 0.0
C388 C 0.75483 0.47945 0.09201 0.0
C389 C 0.75345 0.42462 0.08534 0.0
C390 C 0.73421 0.39899 0.06114 0.0
C391 C 0.7163 0.42861 0.04386 0.0
C392 C 0.71708 0.48198 0.05003 0.0
C393 C 0.69552 0.50488 0.02811 0.0
C394 C 0.63795 0.50703 0.03516 0.0
C395 C 0.7463 0.56745 0.01909 0.0
C396 C 0.68198 0.45579 1.00864 0.0
C397 C 0.69469 0.41245 0.01801 0.0
C398 C 0.68677 0.36331 1.00331 0.0
C399 C 0.66522 0.35827 0.97844 0.0
C400 C 0.65147 0.40192 0.9685 0.0
C401 C 0.66003 0.45123 0.98393 0.0
H402 H 0.38579 0.34421 0.13242 0.0
H403 H 0.39269 0.51136 0.10876 0.0
H404 H 0.49484 0.57152 0.12738 0.0
H405 H 0.45737 0.40108 0.19234 0.0
H406 H 0.49939 0.3611 0.19207 0.0
H407 H 0.42801 0.32999 0.17544 0.0
H408 H 0.47966 0.3264 0.13375 0.0
H409 H 0.55071 0.35586 0.15045 0.0
H410 H 0.54579 0.39455 0.12276 0.0
H411 H 0.59688 0.61352 0.14742 0.0
H412 H 0.69423 0.63376 0.16672 0.0
H413 H 0.61747 0.44096 0.18113 0.0
C414 C 0.40948 0.39336 0.13075 0.0
C415 C 0.38211 0.42325 0.11876 0.0
C416 C 0.41355 0.48768 0.11747 0.0
C417 C 0.47129 0.52227 0.1282 0.0
C418 C 0.4965 0.49172 0.14052 0.0
C419 C 0.46687 0.42879 0.14183 0.0
C420 C 0.50388 0.40761 0.15664 0.0
C421 C 0.47013 0.3729 0.18054 0.0
C422 C 0.52104 0.36884 0.1399 0.0
C423 C 0.55892 0.4684 0.16323 0.0
C424 C 0.55383 0.51637 0.15368 0.0
C425 C 0.60105 0.57657 0.15549 0.0
C426 C 0.6558 0.5878 0.16665 0.0
C427 C 0.6619 0.53919 0.17622 0.0
C428 C 0.61255 0.47906 0.17501 0.0
H429 H 0.02466 0.59722 0.49734 0.0
H430 H 0.02779 0.54355 0.41992 0.0
H431 H 0.00734 0.44236 0.43462 0.0
H432 H 0.07945 0.49954 0.52922 0.0
H433 H 0.02625 0.48176 0.55469 0.0
H434 H 0.05882 0.55475 0.5392 0.0
H435 H 0.95095 0.53678 0.529 0.0
H436 H 0.91894 0.46545 0.54519 0.0
H437 H 0.89728 0.46774 0.51289 0.0
H438 H 0.97554 0.34487 0.45691 0.0
H439 H 0.90053 0.25461 0.47982 0.0
H440 H 0.90739 0.3675 0.54224 0.0
C441 C 0.02234 0.56456 0.48352 0.0
C442 C 0.0303 0.57876 0.45757 0.0
C443 C 0.02478 0.53431 0.43998 0.0
C444 C 0.01353 0.47696 0.44822 0.0
C445 C 0.00727 0.46473 0.47412 0.0
C446 C 0.00981 0.50692 0.49141 0.0
C447 C 0.98834 0.47892 0.51721 0.0
C448 C 0.04138 0.5053 0.5362 0.0
C449 C 0.93574 0.48767 0.52658 0.0
C450 C 0.96779 0.41294 0.51121 0.0
C451 C 0.98323 0.40653 0.48678 0.0
C452 C 0.96347 0.34938 0.47607 0.0
C453 C 0.92117 0.29781 0.4894 0.0
C454 C 0.89797 0.30422 0.51267 0.0
C455 C 0.92554 0.36167 0.52463 0.0
H456 H 0.40904 0.1262 0.79788 0.0
H457 H 0.39885 0.0952 0.87876 0.0
H458 H 0.42255 0.01277 0.8721 0.0
H459 H 0.35903 0.96352 0.77625 0.0
H460 H 0.41401 0.99207 0.7511 0.0
H461 H 0.37804 0.03449 0.76106 0.0
H462 H 0.48367 0.12928 0.76852 0.0
H463 H 0.52014 0.08744 0.75904 0.0
H464 H 0.53677 0.124 0.78958 0.0
H465 H 0.46745 0.95176 0.85834 0.0
H466 H 0.53312 0.91763 0.83913 0.0
H467 H 0.52073 0.99126 0.76682 0.0
C468 C 0.40912 0.10022 0.8141 0.0
C469 C 0.40152 0.1164 0.83887 0.0
C470 C 0.40389 0.08288 0.85968 0.0
C471 C 0.41709 0.03592 0.85601 0.0
C472 C 0.42781 0.02339 0.83144 0.0
C473 C 0.42363 0.05435 0.81077 0.0
C474 C 0.44793 0.0403 0.78705 0.0
C475 C 0.39668 0.0055 0.76772 0.0
C476 C 0.50022 0.09872 0.7754 0.0
C477 C 0.47028 -0.00022 0.79795 0.0
C478 C 0.4563 0.98915 0.82341 0.0
C479 C 0.47749 0.95862 0.83836 0.0
C480 C 0.51525 0.93992 0.82728 0.0
C481 C 0.53193 0.95209 0.80152 0.0
C482 C 0.50767 0.98064 0.78643 0.0
H483 H 0.49884 0.64764 0.72349 0.0
H484 H 0.63895 0.73974 0.78021 0.0
H485 H 0.61256 0.64154 0.79941 0.0
H486 H 0.39221 0.55002 0.76106 0.0
H487 H 0.35927 0.48317 0.74119 0.0
H488 H 0.39853 0.55752 0.72715 0.0
H489 H 0.47137 0.53078 0.70363 0.0
H490 H 0.43087 0.45518 0.71679 0.0
H491 H 0.5119 0.50115 0.72112 0.0
H492 H 0.55218 0.54068 0.81947 0.0
H493 H 0.47699 0.43658 0.83311 0.0
H494 H 0.38115 0.40583 0.762 0.0
C495 C 0.52642 0.64671 0.73892 0.0
C496 C 0.57122 0.70126 0.75033 0.0
C497 C 0.60498 0.6985 0.77109 0.0
C498 C 0.58999 0.64282 0.78223 0.0
C499 C 0.54205 0.59011 0.77197 0.0
C500 C 0.51224 0.59106 0.75017 0.0
C501 C 0.45848 0.52852 0.74457 0.0
C502 C 0.39864 0.52997 0.74344 0.0
C503 C 0.4688 0.50235 0.72007 0.0
C504 C 0.46055 0.49379 0.76747 0.0
C505 C 0.50909 0.53014 0.78303 0.0
C506 C 0.51571 0.51072 0.80688 0.0
C507 C 0.47281 0.45171 0.81457 0.0
C508 C 0.42486 0.41266 0.79832 0.0
C509 C 0.41847 0.43429 0.77457 0.0
H510 H 0.06158 0.43815 0.05599 0.0
H511 H 0.08951 0.35739 0.12258 0.0
H512 H 0.016 0.37352 0.14579 0.0
H513 H 0.07145 0.55386 0.08209 0.0
H514 H 0.01352 0.5622 0.06591 0.0
H515 H 0.0465 0.52232 0.05086 0.0
H516 H 0.94095 0.42603 0.04513 0.0
H517 H 0.90664 0.46635 0.05925 0.0
H518 H 0.8914 0.39416 0.07197 0.0
H519 H 0.9715 0.43054 0.16531 0.0
H520 H 0.94255 0.50699 0.17733 0.0
H521 H 0.94051 0.55062 0.09829 0.0
C522 C 0.04819 0.41945 0.0748 0.0
C523 C 0.07977 0.39447 0.08724 0.0
C524 C 0.06407 0.3736 0.11229 0.0
C525 C 0.02263 0.38363 0.1258 0.0
C526 C -0.00349 0.41381 0.11376 0.0
C527 C 0.00675 0.42935 0.08842 0.0
C528 C 0.98199 0.4706 0.08109 0.0
C529 C 0.03134 0.53076 0.06933 0.0
C530 C 0.92697 0.43728 0.06331 0.0
C531 C 0.96263 0.48108 0.1067 0.0
C532 C 0.96989 0.44686 0.12523 0.0
C533 C 0.96294 0.45545 0.15082 0.0
C534 C 0.94701 0.49922 0.15752 0.0
C535 C 0.93841 0.5337 0.1387 0.0
C536 C 0.94604 0.52418 0.11305 0.0
H537 H 0.35258 0.80147 0.41799 0.0
H538 H 0.27581 0.91991 0.42278 0.0
H539 H 0.37343 0.00259 0.43996 0.0
H540 H 0.42641 0.84443 0.47627 0.0
H541 H 0.4919 0.83926 0.467 0.0
H542 H 0.4201 0.79295 0.45136 0.0
H543 H 0.46924 0.83653 0.40788 0.0
H544 H 0.5416 0.88202 0.42329 0.0
H545 H 0.51104 0.91788 0.40333 0.0
H546 H 0.47747 0.06969 0.45855 0.0
H547 H 0.58021 0.11688 0.47746 0.0
H548 H 0.58529 0.95063 0.46403 0.0
C549 C 0.35743 0.84576 0.42169 0.0
C550 C 0.30808 0.85575 0.41821 0.0
C551 C 0.31418 0.91265 0.42459 0.0
C552 C 0.36916 0.95945 0.43449 0.0
C553 C 0.41672 0.94774 0.43833 0.0
C554 C 0.41138 0.89226 0.43212 0.0
C555 C 0.46693 0.88916 0.4403 0.0
C556 C 0.45031 0.83844 0.45989 0.0
C557 C 0.49911 0.88093 0.41733 0.0
C558 C 0.50451 0.95157 0.4521 0.0
C559 C 0.47496 0.98483 0.45056 0.0
C560 C 0.50097 0.04407 0.45988 0.0
C561 C 0.55912 0.07033 0.47067 0.0
C562 C 0.59014 0.03706 0.47239 0.0
C563 C 0.56214 0.9767 0.46325 0.0
H564 H 0.36923 0.347 0.91076 0.0
H565 H 0.21778 0.16695 0.8942 0.0
H566 H 0.1745 0.16502 0.9365 0.0
H567 H 0.38754 0.32254 0.9751 0.0
H568 H 0.40635 0.3981 0.98495 0.0
H569 H 0.42331 0.38525 0.95329 0.0
H570 H 0.36141 0.4327 0.93511 0.0
H571 H 0.34491 0.44619 0.96674 0.0
H572 H 0.28371 0.40303 0.94481 0.0
H573 H 0.15121 0.1829 0.98262 0.0
H574 H 0.14702 0.22112 0.0254 0.0
H575 H 0.31388 0.38954 1.00963 0.0
C576 C 0.32673 0.30705 0.91584 0.0
C577 C 0.29704 0.25691 0.8991 0.0
C578 C 0.24128 0.20598 0.90661 0.0
C579 C 0.21655 0.20445 0.93067 0.0
C580 C 0.24782 0.25446 0.94686 0.0
C581 C 0.30143 0.30506 0.93949 0.0
C582 C 0.32681 0.35322 0.96 0.0
C583 C 0.38971 0.36546 0.96885 0.0
C584 C 0.32932 0.41225 0.95113 0.0
C585 C 0.27946 0.3219 0.98031 0.0
C586 C 0.23423 0.26489 0.9726 0.0
C587 C 0.18633 0.22764 0.98868 0.0
C588 C 0.18441 0.2496 1.01301 0.0
C589 C 0.22991 0.30843 0.02098 0.0
C590 C 0.27801 0.34448 1.00426 0.0
H591 H 0.93651 0.19918 0.3493 0.0
H592 H 0.9937 0.07116 0.37266 0.0
H593 H 0.03846 0.07866 0.33077 0.0
H594 H 0.8968 0.14725 0.28622 0.0
H595 H 0.9262 0.22173 0.27244 0.0
H596 H 0.90017 0.20876 0.30466 0.0
H597 H 0.00461 0.29656 0.31965 0.0
H598 H 0.03087 0.31005 0.28743 0.0
H599 H 0.0728 0.29552 0.31126 0.0
H600 H 0.07339 0.0959 0.2863 0.0
H601 H 0.09838 0.12359 0.24159 0.0
H602 H 0.02301 0.24384 0.24654 0.0
C603 C 0.9592 0.17339 0.34574 0.0
C604 C 0.96079 0.13394 0.36433 0.0
C605 C 0.99051 0.10061 0.35868 0.0
C606 C 0.01663 0.10495 0.33497 0.0
C607 C 0.01345 0.14337 0.31703 0.0
C608 C 0.986 0.17747 0.3221 0.0
C609 C 0.98835 0.21457 0.29913 0.0
C610 C 0.92404 0.19699 0.29008 0.0
C611 C 0.02642 0.28324 0.30471 0.0
C612 C 0.02012 0.19472 0.2803 0.0
C613 C 0.03453 0.15401 0.29117 0.0
C614 C 0.063 0.12828 0.27762 0.0
C615 C 0.07731 0.14458 0.25224 0.0
C616 C 0.06317 0.18626 0.24054 0.0
C617 C 0.03416 0.21163 0.25487 0.0
H618 H 0.59916 0.96885 0.68415 0.0
H619 H 0.749 0.93641 0.698 0.0
H620 H 0.79093 0.97901 0.65578 0.0
H621 H 0.5774 0.9287 0.61956 0.0
H622 H 0.56018 0.98701 0.61057 0.0
H623 H 0.54393 0.95653 0.64211 0.0
H624 H 0.60885 0.06531 0.66065 0.0
H625 H 0.62493 0.09617 0.62915 0.0
H626 H 0.68645 0.11208 0.65055 0.0
H627 H 0.81233 0.01982 0.61039 0.0
H628 H 0.81598 0.0623 0.56793 0.0
H629 H 0.65298 0.06988 0.58511 0.0
C630 C 0.6411 0.97099 0.67847 0.0
C631 C 0.67072 0.94899 0.69442 0.0
C632 C 0.72567 0.95319 0.68621 0.0
C633 C 0.74961 0.97707 0.6622 0.0
C634 C 0.71844 0.99722 0.64678 0.0
C635 C 0.66578 0.99515 0.65482 0.0
C636 C 0.64056 0.01943 0.63485 0.0
C637 C 0.57675 0.96996 0.62627 0.0
C638 C 0.6402 0.07664 0.64437 0.0
C639 C 0.68681 0.03489 0.61407 0.0
C640 C 0.7313 0.02161 0.6212 0.0
C641 C 0.77793 0.03078 0.60475 0.0
C642 C 0.77947 0.0547 0.58059 0.0
C643 C 0.73488 0.06963 0.57309 0.0
C644 C 0.68798 0.0593 0.59019 0.0
H645 H 0.78019 0.7912 0.90982 0.0
H646 H 0.76794 0.95427 0.92152 0.0
H647 H 0.78151 0.94816 0.96734 0.0
H648 H 0.69924 0.7133 0.96681 0.0
H649 H 0.74647 0.6804 0.97319 0.0
H650 H 0.73519 0.69665 0.94113 0.0
H651 H 0.85162 0.76263 0.93525 0.0
H652 H 0.86321 0.74637 0.96725 0.0
H653 H 0.89537 0.82423 0.957 0.0
H654 H 0.79827 0.92635 1.01169 0.0
H655 H 0.81626 0.88949 0.05205 0.0
H656 H 0.81815 0.74012 1.01259 0.0
C657 C 0.78064 0.82573 0.92204 0.0
C658 C 0.7727 0.87315 0.91198 0.0
C659 C 0.77303 0.91706 0.9287 0.0
C660 C 0.781 0.91415 0.9548 0.0
C661 C 0.7884 0.86687 0.96408 0.0
C662 C 0.78815 0.82327 0.9483 0.0
C663 C 0.79703 0.77722 0.96338 0.0
C664 C 0.74115 0.71309 0.96098 0.0
C665 C 0.85528 0.77767 0.95523 0.0
C666 C 0.80304 0.80231 0.99001 0.0
C667 C 0.79783 0.85401 0.98989 0.0
C668 C 0.80252 0.88595 1.01202 0.0
C669 C 0.81316 0.86482 0.03487 0.0
C670 C 0.81911 0.81212 0.03562 0.0
C671 C 0.81343 0.78028 1.01277 0.0
H672 H 0.02807 0.62774 0.34806 0.0
H673 H 0.08117 0.81818 0.35663 0.0
H674 H 0.03297 0.81459 0.31527 0.0
H675 H 0.05011 0.62537 0.28221 0.0
H676 H 0.98364 0.55172 0.27733 0.0
H677 H 0.02219 0.57019 0.30737 0.0
H678 H 0.92182 0.54351 0.32936 0.0
H679 H 0.88154 0.52763 0.29974 0.0
H680 H 0.88223 0.58343 0.32092 0.0
H681 H 0.98129 0.78927 0.2711 0.0
H682 H 0.92817 0.74409 0.23058 0.0
H683 H 0.90649 0.56982 0.2533 0.0
C684 C 0.02989 0.66891 0.34125 0.0
C685 C 0.05901 0.72349 0.3555 0.0
C686 C 0.05918 0.77588 0.34605 0.0
C687 C 0.03202 0.77424 0.32254 0.0
C688 C 0.00398 0.7196 0.30891 0.0
C689 C 0.00226 0.66777 0.31818 0.0
C690 C 0.96778 0.61405 0.30056 0.0
C691 C 0.00836 0.58889 0.29132 0.0
C692 C 0.90998 0.56421 0.31341 0.0
C693 C 0.95229 0.64406 0.27934 0.0
C694 C 0.97307 0.70484 0.28442 0.0
C695 C 0.96458 0.7416 0.2671 0.0
C696 C 0.93436 0.71556 0.24408 0.0
C697 C 0.9129 0.6533 0.23856 0.0
C698 C 0.92199 0.6175 0.2567 0.0
H699 H 0.11969 0.01477 0.67863 0.0
H700 H 0.30643 0.06257 0.69252 0.0
H701 H 0.31482 0.0338 0.64889 0.0
H702 H 0.08335 0.8807 0.63853 0.0
H703 H 0.03421 0.89329 0.61786 0.0
H704 H 0.0424 0.91645 0.65052 0.0
H705 H 0.07392 0.0262 0.63651 0.0
H706 H 0.0666 0.00357 0.60382 0.0
H707 H 0.13724 0.06597 0.61535 0.0
H708 H 0.30631 0.00929 0.60315 0.0
H709 H 0.27869 0.97889 0.55899 0.0
H710 H 0.09309 0.93474 0.57483 0.0
C711 C 0.16193 0.01821 0.67254 0.0
C712 C 0.21323 0.04269 0.68876 0.0
C713 C 0.26759 0.04628 0.68011 0.0
C714 C 0.27252 0.02945 0.65543 0.0
C715 C 0.22207 0.00766 0.63963 0.0
C716 C 0.16738 0.00069 0.64787 0.0
C717 C 0.12029 0.97567 0.62679 0.0
C718 C 0.0669 0.91278 0.63385 0.0
C719 C 0.09823 0.02054 0.62024 0.0
C720 C 0.15757 0.9709 0.60542 0.0
C721 C 0.21619 0.98997 0.61331 0.0
C722 C 0.26011 0.99282 0.59685 0.0
C723 C 0.24358 0.97482 0.5717 0.0
C724 C 0.1831 0.95282 0.56309 0.0
C725 C 0.13977 0.95136 0.5804 0.0
loop_
_geom_bond_atom_site_label_1
_geom_bond_atom_site_label_2
_geom_bond_distance
_geom_bond_site_symmetry_2
_ccdc_geom_bond_type
Pr0 C2 2.880 . S
Pr0 O20 2.562 . S
Pr0 O21 2.490 . S
Pr0 O22 2.695 . S
Pr0 O23 2.512 . S
Pr0 O25 2.437 . S
Pr0 O28 2.436 . S
Pr0 O30 2.438 . S
Pr1 C11 2.880 . S
Pr1 O22 2.436 . S
Pr1 O24 2.438 . S
Pr1 O26 2.562 . S
Pr1 O27 2.490 . S
Pr1 O28 2.695 . S
Pr1 O29 2.512 . S
Pr1 O31 2.437 . S
C2 Pr0 2.880 . S
C2 C3 1.447 1_554 S
C2 O20 1.254 . S
C2 O21 1.225 . S
C3 C2 1.447 1_556 S
C3 C4 1.419 . S
C3 C8 1.375 . S
C4 C3 1.419 . S
C4 C5 1.368 . S
C4 H32 0.929 . S
C5 C4 1.368 . S
C5 C6 1.386 . S
C5 H33 0.929 . S
C6 C5 1.386 . S
C6 C7 1.373 . S
C7 C6 1.373 . S
C7 C8 1.409 . S
C7 H34 0.931 . S
C8 C3 1.375 . S
C8 C7 1.409 . S
C8 H35 0.930 . S
C9 O22 1.270 . S
C9 O23 1.248 . S
C10 O24 1.267 . S
C10 O25 1.278 . S
C11 Pr1 2.880 . S
C11 C12 1.491 . S
C11 O26 1.254 . S
C11 O27 1.225 . S
C12 C11 1.491 . S
C12 C13 1.392 . S
C12 C17 1.356 . S
C13 C12 1.392 . S
C13 C14 1.368 . S
C13 H36 0.929 . S
C14 C13 1.368 . S
C14 C15 1.386 . S
C14 H37 0.929 . S
C15 C14 1.386 . S
C15 C16 1.373 . S
C16 C15 1.373 . S
C16 C17 1.409 . S
C16 H38 0.931 . S
C17 C12 1.356 . S
C17 C16 1.409 . S
C17 H39 0.930 . S
C18 O28 1.270 . S
C18 O29 1.248 . S
C19 O30 1.267 . S
C19 O31 1.278 . S
O20 Pr0 2.562 . S
O20 C2 1.254 . S
O21 Pr0 2.490 . S
O21 C2 1.225 . S
O22 Pr0 2.695 . S
O22 Pr1 2.436 . S
O22 C9 1.270 . S
O23 Pr0 2.512 . S
O23 C9 1.248 . S
O24 Pr1 2.438 . S
O24 C10 1.267 . S
O25 Pr0 2.437 . S
O25 C10 1.278 . S
O26 Pr1 2.562 . S
O26 C11 1.254 . S
O27 Pr1 2.490 . S
O27 C11 1.225 . S
O28 Pr0 2.436 . S
O28 Pr1 2.695 . S
O28 C18 1.270 . S
O29 Pr1 2.512 . S
O29 C18 1.248 . S
O30 Pr0 2.438 . S
O30 C19 1.267 . S
O31 Pr1 2.437 . S
O31 C19 1.278 . S
H32 C4 0.929 . S
H33 C5 0.929 . S
H34 C7 0.931 . S
H35 C8 0.930 . S
H36 C13 0.929 . S
H37 C14 0.929 . S
H38 C16 0.931 . S
H39 C17 0.930 . S
Pr40 C42 2.880 . S
Pr40 O60 2.562 . S
Pr40 O61 2.490 . S
Pr40 O62 2.695 . S
Pr40 O63 2.512 . S
Pr40 O65 2.437 . S
Pr40 O68 2.436 . S
Pr40 O70 2.438 . S
Pr41 C51 2.880 . S
Pr41 O62 2.436 . S
Pr41 O64 2.438 . S
Pr41 O66 2.562 . S
Pr41 O67 2.490 . S
Pr41 O68 2.695 . S
Pr41 O69 2.512 1_545 S
Pr41 O71 2.437 . S
C42 Pr40 2.880 . S
C42 C43 1.491 . S
C42 O60 1.254 . S
C42 O61 1.225 . S
C43 C42 1.491 . S
C43 C44 1.392 . S
C43 C48 1.356 . S
C44 C43 1.392 . S
C44 C45 1.368 . S
C44 H72 0.929 . S
C45 C44 1.368 . S
C45 C46 1.386 . S
C45 H73 0.929 . S
C46 C45 1.386 . S
C46 C47 1.373 . S
C47 C46 1.373 . S
C47 C48 1.409 . S
C47 H74 0.931 . S
C48 C43 1.356 . S
C48 C47 1.409 . S
C48 H75 0.930 . S
C49 O62 1.270 . S
C49 O63 1.248 . S
C50 O64 1.267 . S
C50 O65 1.278 . S
C51 Pr41 2.880 . S
C51 C52 1.491 . S
C51 O66 1.254 . S
C51 O67 1.225 . S
C52 C51 1.491 . S
C52 C53 1.392 . S
C52 C57 1.356 . S
C53 C52 1.392 . S
C53 C54 1.368 . S
C53 H76 0.929 1_545 S
C54 C53 1.368 . S
C54 C55 1.386 . S
C54 H77 0.929 1_545 S
C55 C54 1.386 . S
C55 C56 1.373 . S
C56 C55 1.373 . S
C56 C57 1.409 . S
C56 H78 0.931 . S
C57 C52 1.356 . S
C57 C56 1.409 . S
C57 H79 0.930 . S
C58 O68 1.270 1_565 S
C58 O69 1.249 . S
C59 O70 1.267 . S
C59 O71 1.278 . S
O60 Pr40 2.562 . S
O60 C42 1.254 . S
O61 Pr40 2.490 . S
O61 C42 1.225 . S
O62 Pr40 2.695 . S
O62 Pr41 2.436 . S
O62 C49 1.270 . S
O63 Pr40 2.512 . S
O63 C49 1.248 . S
O64 Pr41 2.438 . S
O64 C50 1.267 . S
O65 Pr40 2.437 . S
O65 C50 1.278 . S
O66 Pr41 2.562 . S
O66 C51 1.254 . S
O67 Pr41 2.490 . S
O67 C51 1.225 . S
O68 Pr40 2.436 . S
O68 Pr41 2.695 . S
O68 C58 1.270 1_545 S
O69 Pr41 2.512 1_565 S
O69 C58 1.249 . S
O70 Pr40 2.438 . S
O70 C59 1.267 . S
O71 Pr41 2.437 . S
O71 C59 1.278 . S
H72 C44 0.929 . S
H73 C45 0.929 . S
H74 C47 0.931 . S
H75 C48 0.930 . S
H76 C53 0.929 1_565 S
H77 C54 0.929 1_565 S
H78 C56 0.931 . S
H79 C57 0.930 . S
Pr80 C82 2.880 . S
Pr80 O100 2.562 . S
Pr80 O101 2.490 . S
Pr80 O102 2.695 . S
Pr80 O103 2.512 . S
Pr80 O105 2.437 . S
Pr80 O108 2.436 . S
Pr80 O110 2.438 . S
Pr81 C91 2.880 . S
Pr81 O102 2.436 . S
Pr81 O104 2.438 . S
Pr81 O106 2.562 . S
Pr81 O107 2.490 . S
Pr81 O108 2.695 . S
Pr81 O109 2.512 . S
Pr81 O111 2.437 . S
C82 Pr80 2.880 . S
C82 C83 1.491 . S
C82 O100 1.254 . S
C82 O101 1.225 . S
C83 C82 1.491 . S
C83 C84 1.392 . S
C83 C88 1.356 . S
C84 C83 1.392 . S
C84 C85 1.368 . S
C84 H112 0.929 . S
C85 C84 1.368 . S
C85 C86 1.386 . S
C85 H113 0.929 . S
C86 C85 1.386 . S
C86 C87 1.373 . S
C87 C86 1.373 . S
C87 C88 1.409 . S
C87 H114 0.931 . S
C88 C83 1.356 . S
C88 C87 1.409 . S
C88 H115 0.930 . S
C89 O102 1.270 . S
C89 O103 1.248 . S
C90 O104 1.267 . S
C90 O105 1.278 . S
C91 Pr81 2.880 . S
C91 C92 1.491 . S
C91 O106 1.254 . S
C91 O107 1.225 . S
C92 C91 1.491 . S
C92 C93 1.392 . S
C92 C97 1.356 . S
C93 C92 1.392 . S
C93 C94 1.368 . S
C93 H116 0.929 . S
C94 C93 1.368 . S
C94 C95 1.386 . S
C94 H117 0.929 . S
C95 C94 1.386 . S
C95 C96 1.373 . S
C96 C95 1.373 . S
C96 C97 1.409 . S
C96 H118 0.931 . S
C97 C92 1.356 . S
C97 C96 1.409 . S
C97 H119 0.930 . S
C98 O108 1.270 . S
C98 O109 1.249 . S
C99 O110 1.267 . S
C99 O111 1.278 . S
O100 Pr80 2.562 . S
O100 C82 1.254 . S
O101 Pr80 2.490 . S
O101 C82 1.225 . S
O102 Pr80 2.695 . S
O102 Pr81 2.436 . S
O102 C89 1.270 . S
O103 Pr80 2.512 . S
O103 C89 1.248 . S
O104 Pr81 2.438 . S
O104 C90 1.267 . S
O105 Pr80 2.437 . S
O105 C90 1.278 . S
O106 Pr81 2.562 . S
O106 C91 1.254 . S
O107 Pr81 2.490 . S
O107 C91 1.225 . S
O108 Pr80 2.436 . S
O108 Pr81 2.695 . S
O108 C98 1.270 . S
O109 Pr81 2.512 . S
O109 C98 1.249 . S
O110 Pr80 2.438 . S
O110 C99 1.267 . S
O111 Pr81 2.437 . S
O111 C99 1.278 . S
H112 C84 0.929 . S
H113 C85 0.929 . S
H114 C87 0.931 . S
H115 C88 0.930 . S
H116 C93 0.929 . S
H117 C94 0.929 . S
H118 C96 0.931 . S
H119 C97 0.930 . S
Pr120 C122 2.880 . S
Pr120 O140 2.562 . S
Pr120 O141 2.490 . S
Pr120 O142 2.695 . S
Pr120 O143 2.512 . S
Pr120 O145 2.437 . S
Pr120 O148 2.436 . S
Pr120 O150 2.438 . S
Pr121 C131 2.880 . S
Pr121 O142 2.436 . S
Pr121 O144 2.438 . S
Pr121 O146 2.562 . S
Pr121 O147 2.490 . S
Pr121 O148 2.695 . S
Pr121 O149 2.512 . S
Pr121 O151 2.437 . S
C122 Pr120 2.880 . S
C122 C123 1.491 . S
C122 O140 1.254 . S
C122 O141 1.225 . S
C123 C122 1.491 . S
C123 C124 1.392 . S
C123 C128 1.356 . S
C124 C123 1.392 . S
C124 C125 1.368 . S
C124 H152 0.929 . S
C125 C124 1.368 . S
C125 C126 1.386 . S
C125 H153 0.929 . S
C126 C125 1.386 . S
C126 C127 1.373 . S
C127 C126 1.373 . S
C127 C128 1.409 . S
C127 H154 0.931 . S
C128 C123 1.356 . S
C128 C127 1.409 . S
C128 H155 0.930 . S
C129 O142 1.270 . S
C129 O143 1.248 . S
C130 O144 1.267 . S
C130 O145 1.278 . S
C131 Pr121 2.880 . S
C131 C132 1.491 . S
C131 O146 1.254 . S
C131 O147 1.225 . S
C132 C131 1.491 . S
C132 C133 1.392 . S
C132 C137 1.356 . S
C133 C132 1.392 . S
C133 C134 1.368 . S
C133 H156 0.929 . S
C134 C133 1.368 . S
C134 C135 1.386 . S
C134 H157 0.929 . S
C135 C134 1.386 . S
C135 C136 1.373 . S
C136 C135 1.373 . S
C136 C137 1.409 . S
C136 H158 0.931 . S
C137 C132 1.356 . S
C137 C136 1.409 . S
C137 H159 0.930 . S
C138 O148 1.270 . S
C138 O149 1.248 . S
C139 O150 1.267 . S
C139 O151 1.278 . S
O140 Pr120 2.562 . S
O140 C122 1.254 . S
O141 Pr120 2.490 . S
O141 C122 1.225 . S
O142 Pr120 2.695 . S
O142 Pr121 2.436 . S
O142 C129 1.270 . S
O143 Pr120 2.512 . S
O143 C129 1.248 . S
O144 Pr121 2.438 . S
O144 C130 1.267 . S
O145 Pr120 2.437 . S
O145 C130 1.278 . S
O146 Pr121 2.562 . S
O146 C131 1.254 . S
O147 Pr121 2.490 . S
O147 C131 1.225 . S
O148 Pr120 2.436 . S
O148 Pr121 2.695 . S
O148 C138 1.270 . S
O149 Pr121 2.512 . S
O149 C138 1.248 . S
O150 Pr120 2.438 . S
O150 C139 1.267 . S
O151 Pr121 2.437 . S
O151 C139 1.278 . S
H152 C124 0.929 . S
H153 C125 0.929 . S
H154 C127 0.931 . S
H155 C128 0.930 . S
H156 C133 0.929 . S
H157 C134 0.929 . S
H158 C136 0.931 . S
H159 C137 0.930 . S
Pr160 C162 2.880 . S
Pr160 O180 2.562 . S
Pr160 O181 2.490 . S
Pr160 O182 2.695 . S
Pr160 O183 2.512 . S
Pr160 O185 2.437 . S
Pr160 O188 2.436 . S
Pr160 O190 2.438 . S
Pr161 C171 2.880 . S
Pr161 O182 2.436 . S
Pr161 O184 2.438 . S
Pr161 O186 2.562 . S
Pr161 O187 2.490 . S
Pr161 O188 2.695 . S
Pr161 O189 2.512 1_455 S
Pr161 O191 2.437 . S
C162 Pr160 2.880 . S
C162 C163 1.491 . S
C162 O180 1.254 . S
C162 O181 1.225 . S
C163 C162 1.491 . S
C163 C164 1.392 . S
C163 C168 1.356 . S
C164 C163 1.392 . S
C164 C165 1.368 . S
C164 H192 0.929 . S
C165 C164 1.368 . S
C165 C166 1.386 . S
C165 H193 0.929 . S
C166 C165 1.386 . S
C166 C167 1.373 . S
C167 C166 1.373 . S
C167 C168 1.409 . S
C167 H194 0.931 . S
C168 C163 1.356 . S
C168 C167 1.409 . S
C168 H195 0.930 . S
C169 O182 1.270 . S
C169 O183 1.248 . S
C170 O184 1.267 . S
C170 O185 1.278 . S
C171 Pr161 2.880 . S
C171 C172 1.491 . S
C171 O186 1.254 . S
C171 O187 1.225 . S
C172 C171 1.491 . S
C172 C173 1.392 . S
C172 C177 1.356 . S
C173 C172 1.392 . S
C173 C174 1.368 . S
C173 H196 0.929 1_455 S
C174 C173 1.368 . S
C174 C175 1.386 . S
C174 H197 0.929 1_455 S
C175 C174 1.386 . S
C175 C176 1.373 . S
C176 C175 1.373 . S
C176 C177 1.409 . S
C176 H198 0.931 . S
C177 C172 1.356 . S
C177 C176 1.409 . S
C177 H199 0.930 . S
C178 O188 1.270 1_655 S
C178 O189 1.249 . S
C179 O190 1.267 . S
C179 O191 1.278 . S
O180 Pr160 2.562 . S
O180 C162 1.254 . S
O181 Pr160 2.490 . S
O181 C162 1.225 . S
O182 Pr160 2.695 . S
O182 Pr161 2.436 . S
O182 C169 1.270 . S
O183 Pr160 2.512 . S
O183 C169 1.248 . S
O184 Pr161 2.438 . S
O184 C170 1.267 . S
O185 Pr160 2.437 . S
O185 C170 1.278 . S
O186 Pr161 2.562 . S
O186 C171 1.254 . S
O187 Pr161 2.490 . S
O187 C171 1.225 . S
O188 Pr160 2.436 . S
O188 Pr161 2.695 . S
O188 C178 1.270 1_455 S
O189 Pr161 2.512 1_655 S
O189 C178 1.249 . S
O190 Pr160 2.438 . S
O190 C179 1.267 . S
O191 Pr161 2.437 . S
O191 C179 1.278 . S
H192 C164 0.929 . S
H193 C165 0.929 . S
H194 C167 0.931 . S
H195 C168 0.930 . S
H196 C173 0.929 1_655 S
H197 C174 0.929 1_655 S
H198 C176 0.931 . S
H199 C177 0.930 . S
Pr200 C202 2.880 . S
Pr200 O220 2.562 . S
Pr200 O221 2.490 . S
Pr200 O222 2.695 . S
Pr200 O223 2.512 . S
Pr200 O225 2.437 . S
Pr200 O228 2.436 . S
Pr200 O230 2.438 . S
Pr201 C211 2.880 . S
Pr201 O222 2.436 . S
Pr201 O224 2.438 . S
Pr201 O226 2.562 . S
Pr201 O227 2.490 . S
Pr201 O228 2.695 . S
Pr201 O229 2.512 . S
Pr201 O231 2.437 . S
C202 Pr200 2.880 . S
C202 C203 1.491 . S
C202 O220 1.254 . S
C202 O221 1.225 . S
C203 C202 1.491 . S
C203 C204 1.392 . S
C203 C208 1.356 . S
C204 C203 1.392 . S
C204 C205 1.368 . S
C204 H232 0.929 . S
C205 C204 1.368 . S
C205 C206 1.386 . S
C205 H233 0.929 . S
C206 C205 1.386 . S
C206 C207 1.373 . S
C207 C206 1.373 . S
C207 C208 1.409 . S
C207 H234 0.931 . S
C208 C203 1.356 . S
C208 C207 1.409 . S
C208 H235 0.930 . S
C209 O222 1.270 . S
C209 O223 1.248 . S
C210 O224 1.267 . S
C210 O225 1.278 . S
C211 Pr201 2.880 . S
C211 C212 1.491 . S
C211 O226 1.254 . S
C211 O227 1.225 . S
C212 C211 1.491 . S
C212 C213 1.392 . S
C212 C217 1.356 . S
C213 C212 1.392 . S
C213 C214 1.368 . S
C213 H236 0.929 . S
C214 C213 1.368 . S
C214 C215 1.386 . S
C214 H237 0.929 . S
C215 C214 1.386 . S
C215 C216 1.373 . S
C216 C215 1.373 . S
C216 C217 1.409 . S
C216 H238 0.931 . S
C217 C212 1.356 . S
C217 C216 1.409 . S
C217 H239 0.930 . S
C218 O228 1.270 . S
C218 O229 1.248 . S
C219 O230 1.267 . S
C219 O231 1.278 . S
O220 Pr200 2.562 . S
O220 C202 1.254 . S
O221 Pr200 2.490 . S
O221 C202 1.225 . S
O222 Pr200 2.695 . S
O222 Pr201 2.436 . S
O222 C209 1.270 . S
O223 Pr200 2.512 . S
O223 C209 1.248 . S
O224 Pr201 2.438 . S
O224 C210 1.267 . S
O225 Pr200 2.437 . S
O225 C210 1.278 . S
O226 Pr201 2.562 . S
O226 C211 1.254 . S
O227 Pr201 2.490 . S
O227 C211 1.225 . S
O228 Pr200 2.436 . S
O228 Pr201 2.695 . S
O228 C218 1.270 . S
O229 Pr201 2.512 . S
O229 C218 1.248 . S
O230 Pr200 2.438 . S
O230 C219 1.267 . S
O231 Pr201 2.437 . S
O231 C219 1.278 . S
H232 C204 0.929 . S
H233 C205 0.929 . S
H234 C207 0.931 . S
H235 C208 0.930 . S
H236 C213 0.929 . S
H237 C214 0.929 . S
H238 C216 0.931 . S
H239 C217 0.930 . S
H240 C252 0.930 . S
H241 C254 0.930 . S
H242 C255 0.930 . S
H243 C259 0.959 . S
H244 C259 0.959 . S
H245 C259 0.961 . S
H246 C260 0.960 . S
H247 C260 0.961 . S
H248 C260 0.959 . S
H249 C263 0.929 . S
H250 C264 0.931 . S
H251 C266 0.930 . S
C252 H240 0.930 . S
C252 C253 1.399 . S
C252 C257 1.399 . S
C253 C252 1.399 . S
C253 C254 1.376 . S
C254 H241 0.930 . S
C254 C253 1.376 . S
C254 C255 1.388 . S
C255 H242 0.930 . S
C255 C254 1.388 . S
C255 C256 1.390 . S
C256 C255 1.390 . S
C256 C257 1.394 . S
C256 C262 1.465 . S
C257 C252 1.399 . S
C257 C256 1.394 . S
C257 C258 1.516 . S
C258 C257 1.516 . S
C258 C259 1.502 . S
C258 C260 1.561 . S
C258 C261 1.526 . S
C259 H243 0.959 . S
C259 H244 0.959 . S
C259 H245 0.961 . S
C259 C258 1.502 . S
C260 H246 0.960 . S
C260 H247 0.961 . S
C260 H248 0.959 . S
C260 C258 1.561 . S
C261 C258 1.526 . S
C261 C262 1.396 . S
C261 C266 1.390 . S
C262 C256 1.465 . S
C262 C261 1.396 . S
C262 C263 1.399 . S
C263 H249 0.929 . S
C263 C262 1.399 . S
C263 C264 1.385 . S
C264 H250 0.931 . S
C264 C263 1.385 . S
C264 C265 1.389 . S
C265 C264 1.389 . S
C265 C266 1.387 . S
C266 H251 0.930 . S
C266 C261 1.390 . S
C266 C265 1.387 . S
H267 C279 0.930 . S
H268 C281 0.930 . S
H269 C282 0.930 . S
H270 C286 0.959 . S
H271 C286 0.959 . S
H272 C286 0.961 . S
H273 C287 0.960 . S
H274 C287 0.961 . S
H275 C287 0.959 . S
H276 C290 0.929 . S
H277 C291 0.931 . S
H278 C293 0.930 . S
C279 H267 0.930 . S
C279 C280 1.399 . S
C279 C284 1.399 . S
C280 C279 1.399 . S
C280 C281 1.376 . S
C281 H268 0.930 . S
C281 C280 1.376 . S
C281 C282 1.388 . S
C282 H269 0.930 . S
C282 C281 1.388 . S
C282 C283 1.390 . S
C283 C282 1.390 . S
C283 C284 1.394 . S
C283 C289 1.465 . S
C284 C279 1.399 . S
C284 C283 1.394 . S
C284 C285 1.516 . S
C285 C284 1.516 . S
C285 C286 1.502 . S
C285 C287 1.561 . S
C285 C288 1.526 . S
C286 H270 0.959 . S
C286 H271 0.959 . S
C286 H272 0.961 . S
C286 C285 1.502 . S
C287 H273 0.960 . S
C287 H274 0.961 . S
C287 H275 0.959 . S
C287 C285 1.561 . S
C288 C285 1.526 . S
C288 C289 1.396 . S
C288 C293 1.390 . S
C289 C283 1.465 . S
C289 C288 1.396 . S
C289 C290 1.399 . S
C290 H276 0.929 . S
C290 C289 1.399 . S
C290 C291 1.385 . S
C291 H277 0.931 . S
C291 C290 1.385 . S
C291 C292 1.389 . S
C292 C291 1.389 . S
C292 C293 1.387 . S
C293 H278 0.930 . S
C293 C288 1.390 . S
C293 C292 1.387 . S
H294 C306 0.930 . S
H295 C308 0.930 . S
H296 C309 0.930 . S
H297 C313 0.959 . S
H298 C313 0.959 . S
H299 C313 0.961 . S
H300 C314 0.960 . S
H301 C314 0.961 . S
H302 C314 0.959 . S
H303 C317 0.929 . S
H304 C318 0.931 . S
H305 C320 0.930 . S
C306 H294 0.930 . S
C306 C307 1.399 . S
C306 C311 1.399 . S
C307 C306 1.399 . S
C307 C308 1.376 . S
C308 H295 0.930 . S
C308 C307 1.376 . S
C308 C309 1.388 . S
C309 H296 0.930 . S
C309 C308 1.388 . S
C309 C310 1.390 . S
C310 C309 1.390 . S
C310 C311 1.394 . S
C310 C316 1.465 . S
C311 C306 1.399 . S
C311 C310 1.394 . S
C311 C312 1.516 . S
C312 C311 1.516 . S
C312 C313 1.502 . S
C312 C314 1.561 . S
C312 C315 1.526 . S
C313 H297 0.959 . S
C313 H298 0.959 . S
C313 H299 0.961 . S
C313 C312 1.502 . S
C314 H300 0.960 . S
C314 H301 0.961 . S
C314 H302 0.959 . S
C314 C312 1.561 . S
C315 C312 1.526 . S
C315 C316 1.396 . S
C315 C320 1.390 . S
C316 C310 1.465 . S
C316 C315 1.396 . S
C316 C317 1.399 . S
C317 H303 0.929 . S
C317 C316 1.399 . S
C317 C318 1.385 . S
C318 H304 0.931 . S
C318 C317 1.385 . S
C318 C319 1.389 . S
C319 C318 1.389 . S
C319 C320 1.387 . S
C320 H305 0.930 . S
C320 C315 1.390 . S
C320 C319 1.387 . S
H321 C333 0.930 . S
H322 C335 0.930 . S
H323 C336 0.930 . S
H324 C340 0.959 . S
H325 C340 0.959 . S
H326 C340 0.961 . S
H327 C341 0.960 . S
H328 C341 0.961 . S
H329 C341 0.959 . S
H330 C344 0.929 . S
H331 C345 0.931 . S
H332 C347 0.930 . S
C333 H321 0.930 . S
C333 C334 1.399 . S
C333 C338 1.399 . S
C334 C333 1.399 . S
C334 C335 1.376 . S
C335 H322 0.930 . S
C335 C334 1.376 . S
C335 C336 1.388 . S
C336 H323 0.930 . S
C336 C335 1.388 . S
C336 C337 1.390 . S
C337 C336 1.390 . S
C337 C338 1.394 . S
C337 C343 1.465 . S
C338 C333 1.399 . S
C338 C337 1.394 . S
C338 C339 1.516 . S
C339 C338 1.516 . S
C339 C340 1.502 . S
C339 C341 1.561 . S
C339 C342 1.526 . S
C340 H324 0.959 . S
C340 H325 0.959 . S
C340 H326 0.961 . S
C340 C339 1.502 . S
C341 H327 0.960 . S
C341 H328 0.961 . S
C341 H329 0.959 . S
C341 C339 1.561 . S
C342 C339 1.526 . S
C342 C343 1.396 . S
C342 C347 1.390 . S
C343 C337 1.465 . S
C343 C342 1.396 . S
C343 C344 1.399 . S
C344 H330 0.929 . S
C344 C343 1.399 . S
C344 C345 1.385 . S
C345 H331 0.931 . S
C345 C344 1.385 . S
C345 C346 1.389 . S
C346 C345 1.389 . S
C346 C347 1.387 . S
C347 H332 0.930 . S
C347 C342 1.390 . S
C347 C346 1.387 . S
H348 C360 0.930 . S
H349 C362 0.930 . S
H350 C363 0.930 . S
H351 C367 0.959 . S
H352 C367 0.959 . S
H353 C367 0.961 . S
H354 C368 0.960 . S
H355 C368 0.961 . S
H356 C368 0.959 . S
H357 C371 0.929 . S
H358 C372 0.931 . S
H359 C374 0.930 . S
C360 H348 0.930 . S
C360 C361 1.399 . S
C360 C365 1.399 . S
C361 C360 1.399 . S
C361 C362 1.376 . S
C362 H349 0.930 . S
C362 C361 1.376 . S
C362 C363 1.388 . S
C363 H350 0.930 . S
C363 C362 1.388 . S
C363 C364 1.390 . S
C364 C363 1.390 . S
C364 C365 1.394 . S
C364 C370 1.465 . S
C365 C360 1.399 . S
C365 C364 1.394 . S
C365 C366 1.516 . S
C366 C365 1.516 . S
C366 C367 1.502 . S
C366 C368 1.561 . S
C366 C369 1.526 . S
C367 H351 0.959 . S
C367 H352 0.959 . S
C367 H353 0.961 . S
C367 C366 1.502 . S
C368 H354 0.960 . S
C368 H355 0.961 . S
C368 H356 0.959 . S
C368 C366 1.561 . S
C369 C366 1.526 . S
C369 C370 1.396 . S
C369 C374 1.390 . S
C370 C364 1.465 . S
C370 C369 1.396 . S
C370 C371 1.399 . S
C371 H357 0.929 . S
C371 C370 1.399 . S
C371 C372 1.385 . S
C372 H358 0.931 . S
C372 C371 1.385 . S
C372 C373 1.389 . S
C373 C372 1.389 . S
C373 C374 1.387 . S
C374 H359 0.930 . S
C374 C369 1.390 . S
C374 C373 1.387 . S
H375 C387 0.930 . S
H376 C389 0.930 . S
H377 C390 0.930 . S
H378 C394 0.959 . S
H379 C394 0.959 . S
H380 C394 0.961 . S
H381 C395 0.941 1_554 S
H382 C395 0.993 . S
H383 C395 0.968 . S
H384 C398 0.929 . S
H385 C399 0.931 . S
H386 C401 0.930 . S
C387 H375 0.930 . S
C387 C388 1.399 . S
C387 C392 1.399 . S
C388 C387 1.399 . S
C388 C389 1.376 . S
C389 H376 0.930 . S
C389 C388 1.376 . S
C389 C390 1.388 . S
C390 H377 0.930 . S
C390 C389 1.388 . S
C390 C391 1.390 . S
C391 C390 1.390 . S
C391 C392 1.394 . S
C391 C397 1.465 . S
C392 C387 1.399 . S
C392 C391 1.394 . S
C392 C393 1.516 . S
C393 C392 1.516 . S
C393 C394 1.502 . S
C393 C395 1.542 1_554 S
C393 C396 1.526 . S
C394 H378 0.959 . S
C394 H379 0.959 . S
C394 H380 0.961 . S
C394 C393 1.502 . S
C395 H381 0.941 1_556 S
C395 H382 0.993 . S
C395 H383 0.968 . S
C395 C393 1.542 1_556 S
C396 C393 1.526 . S
C396 C397 1.396 . S
C396 C401 1.390 1_554 S
C397 C391 1.465 . S
C397 C396 1.396 . S
C397 C398 1.399 . S
C398 H384 0.929 . S
C398 C397 1.399 . S
C398 C399 1.385 1_554 S
C399 H385 0.931 . S
C399 C398 1.385 1_556 S
C399 C400 1.389 . S
C400 C399 1.389 . S
C400 C401 1.387 . S
C401 H386 0.930 . S
C401 C396 1.390 1_556 S
C401 C400 1.387 . S
H402 C414 0.930 . S
H403 C416 0.930 . S
H404 C417 0.930 . S
H405 C421 0.959 . S
H406 C421 0.959 . S
H407 C421 0.961 . S
H408 C422 0.960 . S
H409 C422 0.961 . S
H410 C422 0.959 . S
H411 C425 0.929 . S
H412 C426 0.931 . S
H413 C428 0.930 . S
C414 H402 0.930 . S
C414 C415 1.399 . S
C414 C419 1.399 . S
C415 C414 1.399 . S
C415 C416 1.376 . S
C416 H403 0.930 . S
C416 C415 1.376 . S
C416 C417 1.388 . S
C417 H404 0.930 . S
C417 C416 1.388 . S
C417 C418 1.390 . S
C418 C417 1.390 . S
C418 C419 1.394 . S
C418 C424 1.465 . S
C419 C414 1.399 . S
C419 C418 1.394 . S
C419 C420 1.516 . S
C420 C419 1.516 . S
C420 C421 1.502 . S
C420 C422 1.561 . S
C420 C423 1.526 . S
C421 H405 0.959 . S
C421 H406 0.959 . S
C421 H407 0.961 . S
C421 C420 1.502 . S
C422 H408 0.960 . S
C422 H409 0.961 . S
C422 H410 0.959 . S
C422 C420 1.561 . S
C423 C420 1.526 . S
C423 C424 1.396 . S
C423 C428 1.390 . S
C424 C418 1.465 . S
C424 C423 1.396 . S
C424 C425 1.399 . S
C425 H411 0.929 . S
C425 C424 1.399 . S
C425 C426 1.385 . S
C426 H412 0.931 . S
C426 C425 1.385 . S
C426 C427 1.389 . S
C427 C426 1.389 . S
C427 C428 1.387 . S
C428 H413 0.930 . S
C428 C423 1.390 . S
C428 C427 1.387 . S
H429 C441 0.930 . S
H430 C443 0.930 . S
H431 C444 0.930 . S
H432 C448 0.959 1_455 S
H433 C448 0.959 . S
H434 C448 0.961 1_455 S
H435 C449 0.960 . S
H436 C449 0.961 . S
H437 C449 0.959 . S
H438 C452 0.929 . S
H439 C453 0.931 . S
H440 C455 0.930 . S
C441 H429 0.930 . S
C441 C442 1.399 . S
C441 C446 1.399 . S
C442 C441 1.399 . S
C442 C443 1.376 . S
C443 H430 0.930 . S
C443 C442 1.376 . S
C443 C444 1.388 . S
C444 H431 0.930 . S
C444 C443 1.388 . S
C444 C445 1.390 . S
C445 C444 1.390 . S
C445 C446 1.394 . S
C445 C451 1.465 . S
C446 C441 1.399 . S
C446 C445 1.394 . S
C446 C447 1.516 . S
C447 C446 1.516 . S
C447 C448 1.502 . S
C447 C449 1.561 . S
C447 C450 1.526 . S
C448 H432 0.959 1_655 S
C448 H433 0.959 . S
C448 H434 0.961 1_655 S
C448 C447 1.502 . S
C449 H435 0.960 . S
C449 H436 0.961 . S
C449 H437 0.959 . S
C449 C447 1.561 . S
C450 C447 1.526 . S
C450 C451 1.396 . S
C450 C455 1.390 . S
C451 C445 1.465 . S
C451 C450 1.396 . S
C451 C452 1.399 . S
C452 H438 0.929 . S
C452 C451 1.399 . S
C452 C453 1.385 . S
C453 H439 0.931 . S
C453 C452 1.385 . S
C453 C454 1.389 . S
C454 C453 1.389 . S
C454 C455 1.387 . S
C455 H440 0.930 . S
C455 C450 1.390 . S
C455 C454 1.387 . S
H456 C468 0.930 . S
H457 C470 0.930 . S
H458 C471 0.930 . S
H459 C475 0.959 . S
H460 C475 0.959 . S
H461 C475 0.961 . S
H462 C476 0.960 . S
H463 C476 0.961 . S
H464 C476 0.959 . S
H465 C479 0.929 . S
H466 C480 0.931 . S
H467 C482 0.930 . S
C468 H456 0.930 . S
C468 C469 1.399 . S
C468 C473 1.399 . S
C469 C468 1.399 . S
C469 C470 1.376 . S
C470 H457 0.930 . S
C470 C469 1.376 . S
C470 C471 1.388 . S
C471 H458 0.930 . S
C471 C470 1.388 . S
C471 C472 1.390 . S
C472 C471 1.390 . S
C472 C473 1.394 . S
C472 C478 1.465 . S
C473 C468 1.399 . S
C473 C472 1.394 . S
C473 C474 1.516 . S
C474 C473 1.516 . S
C474 C475 1.502 1_545 S
C474 C476 1.561 . S
C474 C477 1.526 . S
C475 H459 0.959 . S
C475 H460 0.959 . S
C475 H461 0.961 . S
C475 C474 1.502 1_565 S
C476 H462 0.960 . S
C476 H463 0.961 . S
C476 H464 0.959 . S
C476 C474 1.561 . S
C477 C474 1.526 . S
C477 C478 1.396 . S
C477 C482 1.390 1_545 S
C478 C472 1.465 . S
C478 C477 1.396 . S
C478 C479 1.399 . S
C479 H465 0.929 . S
C479 C478 1.399 . S
C479 C480 1.385 . S
C480 H466 0.931 . S
C480 C479 1.385 . S
C480 C481 1.389 . S
C481 C480 1.389 . S
C481 C482 1.387 1_545 S
C482 H467 0.930 . S
C482 C477 1.390 1_565 S
C482 C481 1.387 1_565 S
H483 C495 0.930 . S
H484 C497 0.930 . S
H485 C498 0.930 . S
H486 C502 0.959 . S
H487 C502 0.959 . S
H488 C502 0.961 . S
H489 C503 0.960 . S
H490 C503 0.961 . S
H491 C503 0.959 . S
H492 C506 0.929 . S
H493 C507 0.931 . S
H494 C509 0.930 . S
C495 H483 0.930 . S
C495 C496 1.399 . S
C495 C500 1.399 . S
C496 C495 1.399 . S
C496 C497 1.376 . S
C497 H484 0.930 . S
C497 C496 1.376 . S
C497 C498 1.388 . S
C498 H485 0.930 . S
C498 C497 1.388 . S
C498 C499 1.390 . S
C499 C498 1.390 . S
C499 C500 1.394 . S
C499 C505 1.465 . S
C500 C495 1.399 . S
C500 C499 1.394 . S
C500 C501 1.516 . S
C501 C500 1.516 . S
C501 C502 1.502 . S
C501 C503 1.561 . S
C501 C504 1.526 . S
C502 H486 0.959 . S
C502 H487 0.959 . S
C502 H488 0.961 . S
C502 C501 1.502 . S
C503 H489 0.960 . S
C503 H490 0.961 . S
C503 H491 0.959 . S
C503 C501 1.561 . S
C504 C501 1.526 . S
C504 C505 1.396 . S
C504 C509 1.390 . S
C505 C499 1.465 . S
C505 C504 1.396 . S
C505 C506 1.399 . S
C506 H492 0.929 . S
C506 C505 1.399 . S
C506 C507 1.385 . S
C507 H493 0.931 . S
C507 C506 1.385 . S
C507 C508 1.389 . S
C508 C507 1.389 . S
C508 C509 1.387 . S
C509 H494 0.930 . S
C509 C504 1.390 . S
C509 C508 1.387 . S
H510 C522 0.930 . S
H511 C524 0.930 . S
H512 C525 0.930 . S
H513 C529 0.959 . S
H514 C529 0.959 . S
H515 C529 0.961 . S
H516 C530 0.960 . S
H517 C530 0.961 . S
H518 C530 0.959 1_655 S
H519 C533 0.929 . S
H520 C534 0.931 1_655 S
H521 C536 0.930 . S
C522 H510 0.930 . S
C522 C523 1.399 . S
C522 C527 1.399 . S
C523 C522 1.399 . S
C523 C524 1.376 . S
C524 H511 0.930 . S
C524 C523 1.376 . S
C524 C525 1.388 . S
C525 H512 0.930 . S
C525 C524 1.388 . S
C525 C526 1.390 . S
C526 C525 1.390 . S
C526 C527 1.394 . S
C526 C532 1.465 . S
C527 C522 1.399 . S
C527 C526 1.394 . S
C527 C528 1.516 . S
C528 C527 1.516 . S
C528 C529 1.502 . S
C528 C530 1.561 . S
C528 C531 1.526 . S
C529 H513 0.959 . S
C529 H514 0.959 . S
C529 H515 0.961 . S
C529 C528 1.502 . S
C530 H516 0.960 . S
C530 H517 0.961 . S
C530 H518 0.959 1_455 S
C530 C528 1.561 . S
C531 C528 1.526 . S
C531 C532 1.396 . S
C531 C536 1.390 . S
C532 C526 1.465 . S
C532 C531 1.396 . S
C532 C533 1.399 . S
C533 H519 0.929 . S
C533 C532 1.399 . S
C533 C534 1.385 . S
C534 H520 0.931 1_455 S
C534 C533 1.385 . S
C534 C535 1.389 . S
C535 C534 1.389 . S
C535 C536 1.387 . S
C536 H521 0.930 . S
C536 C531 1.390 . S
C536 C535 1.387 . S
H537 C549 0.930 . S
H538 C551 0.930 . S
H539 C552 0.930 . S
H540 C556 0.959 . S
H541 C556 0.959 . S
H542 C556 0.961 . S
H543 C557 0.960 . S
H544 C557 0.961 . S
H545 C557 0.959 . S
H546 C560 0.929 . S
H547 C561 0.931 . S
H548 C563 0.930 . S
C549 H537 0.930 . S
C549 C550 1.399 . S
C549 C554 1.399 . S
C550 C549 1.399 . S
C550 C551 1.376 . S
C551 H538 0.930 . S
C551 C550 1.376 . S
C551 C552 1.388 . S
C552 H539 0.930 . S
C552 C551 1.388 . S
C552 C553 1.390 . S
C553 C552 1.390 . S
C553 C554 1.394 . S
C553 C559 1.465 . S
C554 C549 1.399 . S
C554 C553 1.394 . S
C554 C555 1.516 . S
C555 C554 1.516 . S
C555 C556 1.502 . S
C555 C557 1.561 . S
C555 C558 1.526 . S
C556 H540 0.959 . S
C556 H541 0.959 . S
C556 H542 0.961 . S
C556 C555 1.502 . S
C557 H543 0.960 . S
C557 H544 0.961 . S
C557 H545 0.959 . S
C557 C555 1.561 . S
C558 C555 1.526 . S
C558 C559 1.396 . S
C558 C563 1.390 . S
C559 C553 1.465 . S
C559 C558 1.396 . S
C559 C560 1.399 1_565 S
C560 H546 0.929 . S
C560 C559 1.399 1_545 S
C560 C561 1.385 . S
C561 H547 0.931 . S
C561 C560 1.385 . S
C561 C562 1.389 1_545 S
C562 C561 1.389 1_565 S
C562 C563 1.387 . S
C563 H548 0.930 . S
C563 C558 1.390 . S
C563 C562 1.387 . S
H564 C576 0.930 . S
H565 C578 0.930 . S
H566 C579 0.930 . S
H567 C583 0.959 . S
H568 C583 0.959 . S
H569 C583 0.961 . S
H570 C584 0.960 . S
H571 C584 0.961 . S
H572 C584 0.959 . S
H573 C587 0.929 . S
H574 C588 0.931 . S
H575 C590 0.930 . S
C576 H564 0.930 . S
C576 C577 1.399 . S
C576 C581 1.399 . S
C577 C576 1.399 . S
C577 C578 1.376 . S
C578 H565 0.930 . S
C578 C577 1.376 . S
C578 C579 1.388 . S
C579 H566 0.930 . S
C579 C578 1.388 . S
C579 C580 1.390 . S
C580 C579 1.390 . S
C580 C581 1.394 . S
C580 C586 1.465 . S
C581 C576 1.399 . S
C581 C580 1.394 . S
C581 C582 1.516 . S
C582 C581 1.516 . S
C582 C583 1.502 . S
C582 C584 1.561 . S
C582 C585 1.526 . S
C583 H567 0.959 . S
C583 H568 0.959 . S
C583 H569 0.961 . S
C583 C582 1.502 . S
C584 H570 0.960 . S
C584 H571 0.961 . S
C584 H572 0.959 . S
C584 C582 1.561 . S
C585 C582 1.526 . S
C585 C586 1.396 . S
C585 C590 1.390 . S
C586 C580 1.465 . S
C586 C585 1.396 . S
C586 C587 1.399 . S
C587 H573 0.929 . S
C587 C586 1.399 . S
C587 C588 1.385 1_556 S
C588 H574 0.931 . S
C588 C587 1.385 1_554 S
C588 C589 1.389 . S
C589 C588 1.389 . S
C589 C590 1.387 1_554 S
C590 H575 0.930 . S
C590 C585 1.390 . S
C590 C589 1.387 1_556 S
H591 C603 0.930 . S
H592 C605 0.930 1_565 S
H593 C606 0.930 . S
H594 C610 0.959 . S
H595 C610 0.959 . S
H596 C610 0.961 . S
H597 C611 0.960 . S
H598 C611 0.961 . S
H599 C611 0.959 . S
H600 C614 0.929 . S
H601 C615 0.931 . S
H602 C617 0.930 . S
C603 H591 0.930 . S
C603 C604 1.399 . S
C603 C608 1.399 . S
C604 C603 1.399 . S
C604 C605 1.376 . S
C605 H592 0.930 1_545 S
C605 C604 1.376 . S
C605 C606 1.388 . S
C606 H593 0.930 . S
C606 C605 1.388 . S
C606 C607 1.390 . S
C607 C606 1.390 . S
C607 C608 1.394 . S
C607 C613 1.465 1_655 S
C608 C603 1.399 . S
C608 C607 1.394 . S
C608 C609 1.516 1_655 S
C609 C608 1.516 1_455 S
C609 C610 1.502 1_455 S
C609 C611 1.561 . S
C609 C612 1.526 . S
C610 H594 0.959 . S
C610 H595 0.959 . S
C610 H596 0.961 . S
C610 C609 1.502 1_655 S
C611 H597 0.960 . S
C611 H598 0.961 . S
C611 H599 0.959 . S
C611 C609 1.561 . S
C612 C609 1.526 . S
C612 C613 1.396 . S
C612 C617 1.390 . S
C613 C607 1.465 1_455 S
C613 C612 1.396 . S
C613 C614 1.399 . S
C614 H600 0.929 . S
C614 C613 1.399 . S
C614 C615 1.385 . S
C615 H601 0.931 . S
C615 C614 1.385 . S
C615 C616 1.389 . S
C616 C615 1.389 . S
C616 C617 1.387 . S
C617 H602 0.930 . S
C617 C612 1.390 . S
C617 C616 1.387 . S
H618 C630 0.930 1_545 S
H619 C632 0.930 . S
H620 C633 0.930 . S
H621 C637 0.959 . S
H622 C637 0.959 . S
H623 C637 0.961 . S
H624 C638 0.960 . S
H625 C638 0.961 . S
H626 C638 0.959 . S
H627 C641 0.929 . S
H628 C642 0.931 . S
H629 C644 0.930 . S
C630 H618 0.930 1_565 S
C630 C631 1.399 . S
C630 C635 1.399 1_565 S
C631 C630 1.399 . S
C631 C632 1.376 . S
C632 H619 0.930 . S
C632 C631 1.376 . S
C632 C633 1.388 . S
C633 H620 0.930 . S
C633 C632 1.388 . S
C633 C634 1.390 . S
C634 C633 1.390 . S
C634 C635 1.394 1_565 S
C634 C640 1.465 . S
C635 C630 1.399 1_545 S
C635 C634 1.394 1_545 S
C635 C636 1.516 . S
C636 C635 1.516 . S
C636 C637 1.502 . S
C636 C638 1.561 . S
C636 C639 1.526 . S
C637 H621 0.959 . S
C637 H622 0.959 . S
C637 H623 0.961 . S
C637 C636 1.502 . S
C638 H624 0.960 . S
C638 H625 0.961 . S
C638 H626 0.959 . S
C638 C636 1.561 . S
C639 C636 1.526 . S
C639 C640 1.396 1_545 S
C639 C644 1.390 . S
C640 C634 1.465 . S
C640 C639 1.396 1_565 S
C640 C641 1.399 . S
C641 H627 0.929 . S
C641 C640 1.399 . S
C641 C642 1.385 . S
C642 H628 0.931 . S
C642 C641 1.385 . S
C642 C643 1.389 1_565 S
C643 C642 1.389 1_545 S
C643 C644 1.387 . S
C644 H629 0.930 . S
C644 C639 1.390 . S
C644 C643 1.387 . S
H645 C657 0.930 . S
H646 C659 0.930 . S
H647 C660 0.930 . S
H648 C664 0.959 . S
H649 C664 0.959 . S
H650 C664 0.961 . S
H651 C665 0.960 . S
H652 C665 0.961 . S
H653 C665 0.959 . S
H654 C668 0.929 . S
H655 C669 0.931 1_554 S
H656 C671 0.930 . S
C657 H645 0.930 . S
C657 C658 1.399 . S
C657 C662 1.399 . S
C658 C657 1.399 . S
C658 C659 1.376 . S
C659 H646 0.930 . S
C659 C658 1.376 . S
C659 C660 1.388 . S
C660 H647 0.930 . S
C660 C659 1.388 . S
C660 C661 1.390 . S
C661 C660 1.390 . S
C661 C662 1.394 . S
C661 C667 1.465 . S
C662 C657 1.399 . S
C662 C661 1.394 . S
C662 C663 1.516 . S
C663 C662 1.516 . S
C663 C664 1.502 . S
C663 C665 1.561 . S
C663 C666 1.526 . S
C664 H648 0.959 . S
C664 H649 0.959 . S
C664 H650 0.961 . S
C664 C663 1.502 . S
C665 H651 0.960 . S
C665 H652 0.961 . S
C665 H653 0.959 . S
C665 C663 1.561 . S
C666 C663 1.526 . S
C666 C667 1.396 . S
C666 C671 1.390 . S
C667 C661 1.465 . S
C667 C666 1.396 . S
C667 C668 1.399 . S
C668 H654 0.929 . S
C668 C667 1.399 . S
C668 C669 1.385 . S
C669 H655 0.931 1_556 S
C669 C668 1.385 . S
C669 C670 1.382 1_556 S
C670 C669 1.382 1_554 S
C670 C671 1.362 1_554 S
C671 H656 0.930 . S
C671 C666 1.390 . S
C671 C670 1.362 1_556 S
H672 C684 0.930 . S
H673 C686 0.930 . S
H674 C687 0.930 . S
H675 C691 0.959 . S
H676 C691 0.959 . S
H677 C691 0.961 . S
H678 C692 0.960 . S
H679 C692 0.961 . S
H680 C692 0.959 . S
H681 C695 0.929 . S
H682 C696 0.931 1_455 S
H683 C698 0.930 . S
C684 H672 0.930 . S
C684 C685 1.399 1_655 S
C684 C689 1.399 . S
C685 C684 1.399 1_455 S
C685 C686 1.376 . S
C686 H673 0.930 . S
C686 C685 1.376 . S
C686 C687 1.388 . S
C687 H674 0.930 . S
C687 C686 1.388 . S
C687 C688 1.390 . S
C688 C687 1.390 . S
C688 C689 1.394 1_455 S
C688 C694 1.465 1_455 S
C689 C684 1.399 . S
C689 C688 1.394 1_655 S
C689 C690 1.516 . S
C690 C689 1.516 . S
C690 C691 1.502 . S
C690 C692 1.561 . S
C690 C693 1.526 . S
C691 H675 0.959 . S
C691 H676 0.959 . S
C691 H677 0.961 . S
C691 C690 1.502 . S
C692 H678 0.960 . S
C692 H679 0.961 . S
C692 H680 0.959 . S
C692 C690 1.561 . S
C693 C690 1.526 . S
C693 C694 1.396 . S
C693 C698 1.390 . S
C694 C688 1.465 1_655 S
C694 C693 1.396 . S
C694 C695 1.399 1_655 S
C695 H681 0.929 . S
C695 C694 1.399 1_455 S
C695 C696 1.385 1_455 S
C696 H682 0.931 1_655 S
C696 C695 1.385 1_655 S
C696 C697 1.389 . S
C697 C696 1.389 . S
C697 C698 1.387 . S
C698 H683 0.930 . S
C698 C693 1.390 . S
C698 C697 1.387 . S
H699 C711 0.930 . S
H700 C713 0.930 . S
H701 C714 0.930 . S
H702 C718 0.959 . S
H703 C718 0.959 . S
H704 C718 0.961 . S
H705 C719 0.960 1_655 S
H706 C719 0.961 1_655 S
H707 C719 0.959 . S
H708 C722 0.929 . S
H709 C723 0.931 . S
H710 C725 0.930 . S
C711 H699 0.930 . S
C711 C712 1.399 . S
C711 C716 1.399 . S
C712 C711 1.399 . S
C712 C713 1.376 . S
C713 H700 0.930 . S
C713 C712 1.376 . S
C713 C714 1.388 . S
C714 H701 0.930 . S
C714 C713 1.388 . S
C714 C715 1.390 . S
C715 C714 1.390 . S
C715 C716 1.394 . S
C715 C721 1.465 1_545 S
C716 C711 1.399 . S
C716 C715 1.394 . S
C716 C717 1.516 1_545 S
C717 C716 1.516 1_565 S
C717 C718 1.502 . S
C717 C719 1.561 . S
C717 C720 1.526 . S
C718 H702 0.959 . S
C718 H703 0.959 . S
C718 H704 0.961 . S
C718 C717 1.502 . S
C719 H705 0.960 1_455 S
C719 H706 0.961 1_455 S
C719 H707 0.959 . S
C719 C717 1.561 . S
C720 C717 1.526 . S
C720 C721 1.396 . S
C720 C725 1.390 . S
C721 C715 1.465 1_565 S
C721 C720 1.396 . S
C721 C722 1.399 1_565 S
C722 H708 0.929 . S
C722 C721 1.399 1_545 S
C722 C723 1.385 1_545 S
C723 H709 0.931 . S
C723 C722 1.385 1_565 S
C723 C724 1.389 . S
C724 C723 1.389 . S
C724 C725 1.387 . S
C725 H710 0.930 . S
C725 C720 1.390 . S
C725 C724 1.387 . S
C253 C166 1.455 . S
C265 C19 1.472 . S
C280 C219 1.474 . S
C292 C46 1.469 . S
C307 C6 1.471 . S
C319 C99 1.473 . S
C334 C59 1.465 . S
C346 C126 1.482 . S
C361 C86 1.447 . S
C373 C179 1.485 . S
C388 C139 1.490 . S
C400 C206 1.435 . S
C415 C18 1.352 . S
C427 C129 1.193 . S
C442 C178 1.348 . S
C454 C49 1.122 . S
C469 C209 1.086 . S
C481 C98 1.311 1_545 S
C496 C89 1.242 . S
C508 C218 1.330 . S
C523 C9 1.220 . S
C535 C138 1.344 1_455 S
C550 C169 1.242 . S
C562 C58 1.295 . S
C577 C210 1.745 . S
C589 C10 1.743 . S
C604 C55 0.885 . S
C616 C15 0.894 . S
C631 C90 1.732 . S
C643 C50 1.753 . S
C658 C95 0.887 . S
C670 C135 0.926 . S
C685 C170 1.737 . S
C697 C130 1.750 . S
C712 C215 0.878 . S
C724 C175 0.827 . S
