# Generated by pormake.
# Topology unl, (4)-cn, num edge types: 1
# Building blocks:
#     Node 0, Type 0, BuildingBlock: TATPOV_clean_sbu_0, # of connection points: 4
#     Node 1, Type 0, BuildingBlock: TATPOV_clean_sbu_0, # of connection points: 4
#     Node 2, Type 0, BuildingBlock: TATPOV_clean_sbu_0, # of connection points: 4
#     Node 3, Type 0, BuildingBlock: TATPOV_clean_sbu_0, # of connection points: 4
#     Node 4, Type 0, BuildingBlock: TATPOV_clean_sbu_0, # of connection points: 4
#     Node 5, Type 0, BuildingBlock: TATPOV_clean_sbu_0, # of connection points: 4
#     Node 6, Type 0, BuildingBlock: TATPOV_clean_sbu_0, # of connection points: 4
#     Node 7, Type 0, BuildingBlock: TATPOV_clean_sbu_0, # of connection points: 4
#     Node 8, Type 0, BuildingBlock: TATPOV_clean_sbu_0, # of connection points: 4
#     Node 9, Type 0, BuildingBlock: TATPOV_clean_sbu_0, # of connection points: 4
#     Node 10, Type 0, BuildingBlock: TATPOV_clean_sbu_0, # of connection points: 4
#     Node 11, Type 0, BuildingBlock: TATPOV_clean_sbu_0, # of connection points: 4
#     Node 12, Type 0, BuildingBlock: TATPOV_clean_sbu_0, # of connection points: 4
#     Node 13, Type 0, BuildingBlock: TATPOV_clean_sbu_0, # of connection points: 4
#     Node 14, Type 0, BuildingBlock: TATPOV_clean_sbu_0, # of connection points: 4
#     Node 15, Type 0, BuildingBlock: TATPOV_clean_sbu_0, # of connection points: 4
#     Node 16, Type 0, BuildingBlock: TATPOV_clean_sbu_0, # of connection points: 4
#     Node 17, Type 0, BuildingBlock: TATPOV_clean_sbu_0, # of connection points: 4
#     Node 18, Type 0, BuildingBlock: TATPOV_clean_sbu_0, # of connection points: 4
#     Node 19, Type 0, BuildingBlock: TATPOV_clean_sbu_0, # of connection points: 4
#     Node 20, Type 0, BuildingBlock: TATPOV_clean_sbu_0, # of connection points: 4
#     Node 21, Type 0, BuildingBlock: TATPOV_clean_sbu_0, # of connection points: 4
#     Node 22, Type 0, BuildingBlock: TATPOV_clean_sbu_0, # of connection points: 4
#     Node 23, Type 0, BuildingBlock: TATPOV_clean_sbu_0, # of connection points: 4
#     Node 24, Type 0, BuildingBlock: TATPOV_clean_sbu_0, # of connection points: 4
#     Node 25, Type 0, BuildingBlock: TATPOV_clean_sbu_0, # of connection points: 4
#     Node 26, Type 0, BuildingBlock: TATPOV_clean_sbu_0, # of connection points: 4
#     Node 27, Type 0, BuildingBlock: TATPOV_clean_sbu_0, # of connection points: 4
#     Node 28, Type 0, BuildingBlock: TATPOV_clean_sbu_0, # of connection points: 4
#     Node 29, Type 0, BuildingBlock: TATPOV_clean_sbu_0, # of connection points: 4
#     Node 30, Type 0, BuildingBlock: TATPOV_clean_sbu_0, # of connection points: 4
#     Node 31, Type 0, BuildingBlock: TATPOV_clean_sbu_0, # of connection points: 4
#     Node 32, Type 0, BuildingBlock: TATPOV_clean_sbu_0, # of connection points: 4
#     Node 33, Type 0, BuildingBlock: TATPOV_clean_sbu_0, # of connection points: 4
#     Node 34, Type 0, BuildingBlock: TATPOV_clean_sbu_0, # of connection points: 4
#     Node 35, Type 0, BuildingBlock: TATPOV_clean_sbu_0, # of connection points: 4
#     Edge 36, Type (0, 0), BuildingBlock: AJUNOK_clean_linker_0, # of connection points: 2
#     Edge 37, Type (0, 0), BuildingBlock: AJUNOK_clean_linker_0, # of connection points: 2
#     Edge 38, Type (0, 0), BuildingBlock: AJUNOK_clean_linker_0, # of connection points: 2
#     Edge 39, Type (0, 0), BuildingBlock: AJUNOK_clean_linker_0, # of connection points: 2
#     Edge 40, Type (0, 0), BuildingBlock: AJUNOK_clean_linker_0, # of connection points: 2
#     Edge 41, Type (0, 0), BuildingBlock: AJUNOK_clean_linker_0, # of connection points: 2
#     Edge 42, Type (0, 0), BuildingBlock: AJUNOK_clean_linker_0, # of connection points: 2
#     Edge 43, Type (0, 0), BuildingBlock: AJUNOK_clean_linker_0, # of connection points: 2
#     Edge 44, Type (0, 0), BuildingBlock: AJUNOK_clean_linker_0, # of connection points: 2
#     Edge 45, Type (0, 0), BuildingBlock: AJUNOK_clean_linker_0, # of connection points: 2
#     Edge 46, Type (0, 0), BuildingBlock: AJUNOK_clean_linker_0, # of connection points: 2
#     Edge 47, Type (0, 0), BuildingBlock: AJUNOK_clean_linker_0, # of connection points: 2
#     Edge 48, Type (0, 0), BuildingBlock: AJUNOK_clean_linker_0, # of connection points: 2
#     Edge 49, Type (0, 0), BuildingBlock: AJUNOK_clean_linker_0, # of connection points: 2
#     Edge 50, Type (0, 0), BuildingBlock: AJUNOK_clean_linker_0, # of connection points: 2
#     Edge 51, Type (0, 0), BuildingBlock: AJUNOK_clean_linker_0, # of connection points: 2
#     Edge 52, Type (0, 0), BuildingBlock: AJUNOK_clean_linker_0, # of connection points: 2
#     Edge 53, Type (0, 0), BuildingBlock: AJUNOK_clean_linker_0, # of connection points: 2
#     Edge 54, Type (0, 0), BuildingBlock: AJUNOK_clean_linker_0, # of connection points: 2
#     Edge 55, Type (0, 0), BuildingBlock: AJUNOK_clean_linker_0, # of connection points: 2
#     Edge 56, Type (0, 0), BuildingBlock: AJUNOK_clean_linker_0, # of connection points: 2
#     Edge 57, Type (0, 0), BuildingBlock: AJUNOK_clean_linker_0, # of connection points: 2
#     Edge 58, Type (0, 0), BuildingBlock: AJUNOK_clean_linker_0, # of connection points: 2
#     Edge 59, Type (0, 0), BuildingBlock: AJUNOK_clean_linker_0, # of connection points: 2
#     Edge 60, Type (0, 0), BuildingBlock: AJUNOK_clean_linker_0, # of connection points: 2
#     Edge 61, Type (0, 0), BuildingBlock: AJUNOK_clean_linker_0, # of connection points: 2
#     Edge 62, Type (0, 0), BuildingBlock: AJUNOK_clean_linker_0, # of connection points: 2
#     Edge 63, Type (0, 0), BuildingBlock: AJUNOK_clean_linker_0, # of connection points: 2
#     Edge 64, Type (0, 0), BuildingBlock: AJUNOK_clean_linker_0, # of connection points: 2
#     Edge 65, Type (0, 0), BuildingBlock: AJUNOK_clean_linker_0, # of connection points: 2
#     Edge 66, Type (0, 0), BuildingBlock: AJUNOK_clean_linker_0, # of connection points: 2
#     Edge 67, Type (0, 0), BuildingBlock: AJUNOK_clean_linker_0, # of connection points: 2
#     Edge 68, Type (0, 0), BuildingBlock: AJUNOK_clean_linker_0, # of connection points: 2
#     Edge 69, Type (0, 0), BuildingBlock: AJUNOK_clean_linker_0, # of connection points: 2
#     Edge 70, Type (0, 0), BuildingBlock: AJUNOK_clean_linker_0, # of connection points: 2
#     Edge 71, Type (0, 0), BuildingBlock: AJUNOK_clean_linker_0, # of connection points: 2
#     Edge 72, Type (0, 0), BuildingBlock: AJUNOK_clean_linker_0, # of connection points: 2
#     Edge 73, Type (0, 0), BuildingBlock: AJUNOK_clean_linker_0, # of connection points: 2
#     Edge 74, Type (0, 0), BuildingBlock: AJUNOK_clean_linker_0, # of connection points: 2
#     Edge 75, Type (0, 0), BuildingBlock: AJUNOK_clean_linker_0, # of connection points: 2
#     Edge 76, Type (0, 0), BuildingBlock: AJUNOK_clean_linker_0, # of connection points: 2
#     Edge 77, Type (0, 0), BuildingBlock: AJUNOK_clean_linker_0, # of connection points: 2
#     Edge 78, Type (0, 0), BuildingBlock: AJUNOK_clean_linker_0, # of connection points: 2
#     Edge 79, Type (0, 0), BuildingBlock: AJUNOK_clean_linker_0, # of connection points: 2
#     Edge 80, Type (0, 0), BuildingBlock: AJUNOK_clean_linker_0, # of connection points: 2
#     Edge 81, Type (0, 0), BuildingBlock: AJUNOK_clean_linker_0, # of connection points: 2
#     Edge 82, Type (0, 0), BuildingBlock: AJUNOK_clean_linker_0, # of connection points: 2
#     Edge 83, Type (0, 0), BuildingBlock: AJUNOK_clean_linker_0, # of connection points: 2
#     Edge 84, Type (0, 0), BuildingBlock: AJUNOK_clean_linker_0, # of connection points: 2
#     Edge 85, Type (0, 0), BuildingBlock: AJUNOK_clean_linker_0, # of connection points: 2
#     Edge 86, Type (0, 0), BuildingBlock: AJUNOK_clean_linker_0, # of connection points: 2
#     Edge 87, Type (0, 0), BuildingBlock: AJUNOK_clean_linker_0, # of connection points: 2
#     Edge 88, Type (0, 0), BuildingBlock: AJUNOK_clean_linker_0, # of connection points: 2
#     Edge 89, Type (0, 0), BuildingBlock: AJUNOK_clean_linker_0, # of connection points: 2
#     Edge 90, Type (0, 0), BuildingBlock: AJUNOK_clean_linker_0, # of connection points: 2
#     Edge 91, Type (0, 0), BuildingBlock: AJUNOK_clean_linker_0, # of connection points: 2
#     Edge 92, Type (0, 0), BuildingBlock: AJUNOK_clean_linker_0, # of connection points: 2
#     Edge 93, Type (0, 0), BuildingBlock: AJUNOK_clean_linker_0, # of connection points: 2
#     Edge 94, Type (0, 0), BuildingBlock: AJUNOK_clean_linker_0, # of connection points: 2
#     Edge 95, Type (0, 0), BuildingBlock: AJUNOK_clean_linker_0, # of connection points: 2
#     Edge 96, Type (0, 0), BuildingBlock: AJUNOK_clean_linker_0, # of connection points: 2
#     Edge 97, Type (0, 0), BuildingBlock: AJUNOK_clean_linker_0, # of connection points: 2
#     Edge 98, Type (0, 0), BuildingBlock: AJUNOK_clean_linker_0, # of connection points: 2
#     Edge 99, Type (0, 0), BuildingBlock: AJUNOK_clean_linker_0, # of connection points: 2
#     Edge 100, Type (0, 0), BuildingBlock: AJUNOK_clean_linker_0, # of connection points: 2
#     Edge 101, Type (0, 0), BuildingBlock: AJUNOK_clean_linker_0, # of connection points: 2
#     Edge 102, Type (0, 0), BuildingBlock: AJUNOK_clean_linker_0, # of connection points: 2
#     Edge 103, Type (0, 0), BuildingBlock: AJUNOK_clean_linker_0, # of connection points: 2
#     Edge 104, Type (0, 0), BuildingBlock: AJUNOK_clean_linker_0, # of connection points: 2
#     Edge 105, Type (0, 0), BuildingBlock: AJUNOK_clean_linker_0, # of connection points: 2
#     Edge 106, Type (0, 0), BuildingBlock: AJUNOK_clean_linker_0, # of connection points: 2
#     Edge 107, Type (0, 0), BuildingBlock: AJUNOK_clean_linker_0, # of connection points: 2
# Relax obj value: 0.147
# Max RMSD: 0.189
# Mean RMSD: 0.189
data_MOF--net-unl--node1-TATPOV_clean_sbu_0--edge1-AJUNOK_clean_linker_0
_symmetry_space_group_name_H-M    P1
_symmetry_Int_Tables_number       1
_symmetry_cell_setting            triclinic
loop_
_symmetry_equiv_pos_as_xyz
'x, y, z'
_cell_length_a     48.228661
_cell_length_b     48.184956
_cell_length_c     28.277185
_cell_angle_alpha  90.083294
_cell_angle_beta   89.911677
_cell_angle_gamma 119.97153
loop_
_atom_site_label
_atom_site_type_symbol
_atom_site_fract_x
_atom_site_fract_y
_atom_site_fract_z
_atom_type_partial_charge
Zn0 Zn 0.1446 0.08206 0.07857 0.0
Zn1 Zn 0.20109 0.10777 0.09981 0.0
O2 O 0.17938 0.11855 0.15448 0.0
O3 O 0.13447 0.10917 0.12105 0.0
O4 O 0.24618 0.12666 0.1226 0.0
O5 O 0.13558 0.03861 0.09979 0.0
O6 O 0.18726 0.05998 0.08995 0.0
C7 C 0.15405 0.12061 0.15492 0.0
C8 C 0.18411 0.12019 0.00388 0.0
O9 O 0.20421 0.13167 0.03761 0.0
O10 O 0.15717 0.09543 0.01086 0.0
C11 C 0.25943 0.15329 0.14436 0.0
O12 O 0.24378 0.16895 0.14908 0.0
C13 C 0.1598 0.03521 0.09542 0.0
Zn14 Zn 0.94392 0.09401 0.09646 0.0
Zn15 Zn 0.91037 0.11945 0.10702 0.0
O16 O 0.89852 0.08806 0.16406 0.0
O17 O 0.92477 0.06266 0.14852 0.0
O18 O 0.88859 0.1444 0.12248 0.0
O19 O 0.98583 0.13308 0.10738 0.0
O20 O 0.95716 0.15583 0.09383 0.0
C21 C 0.90539 0.06637 0.17408 0.0
C22 C 0.90125 0.08338 0.01798 0.0
O23 O 0.88918 0.09508 0.04619 0.0
O24 O 0.92602 0.08231 0.02992 0.0
C25 C 0.85902 0.13066 0.13265 0.0
O26 O 0.84222 0.09921 0.132 0.0
C27 C 0.98449 0.15795 0.09772 0.0
Zn28 Zn 0.91994 0.84881 0.08314 0.0
Zn29 Zn 0.88834 0.79293 0.10292 0.0
O30 O 0.91829 0.81333 0.16092 0.0
O31 O 0.95506 0.85828 0.12882 0.0
O32 O 0.85994 0.74714 0.12155 0.0
O33 O 0.88602 0.85932 0.10023 0.0
O34 O 0.85557 0.80785 0.08856 0.0
C35 C 0.9456 0.8388 0.16294 0.0
C36 C 0.92273 0.81115 0.01009 0.0
O37 O 0.91246 0.79077 0.04357 0.0
O38 O 0.92404 0.83781 0.01587 0.0
C39 C 0.87133 0.72955 0.13399 0.0
O40 O 0.90254 0.7418 0.13439 0.0
C41 C 0.85851 0.83552 0.09311 0.0
Zn42 Zn 0.07716 0.15033 0.39962 0.0
Zn43 Zn 0.09715 0.20584 0.37779 0.0
O44 O 0.10809 0.18546 0.32099 0.0
O45 O 0.10341 0.14199 0.35345 0.0
O46 O 0.11188 0.25064 0.35529 0.0
O47 O 0.03149 0.13621 0.3855 0.0
O48 O 0.049 0.18742 0.39499 0.0
C49 C 0.112 0.16118 0.31902 0.0
C50 C 0.11651 0.19248 0.47092 0.0
O51 O 0.12493 0.21232 0.43689 0.0
O52 O 0.09336 0.16428 0.46565 0.0
C53 C 0.13836 0.2659 0.33341 0.0
O54 O 0.15548 0.25196 0.32633 0.0
C55 C 0.02568 0.1587 0.3927 0.0
Zn56 Zn 0.84758 0.93469 0.39732 0.0
Zn57 Zn 0.79328 0.9091 0.36399 0.0
O58 O 0.82108 0.94684 0.31811 0.0
O59 O 0.86669 0.97317 0.35628 0.0
O60 O 0.75145 0.88477 0.32973 0.0
O61 O 0.85652 0.8996 0.38302 0.0
O62 O 0.80427 0.87296 0.37804 0.0
C63 C 0.8492 0.97106 0.32171 0.0
C64 C 0.80079 0.93265 0.46245 0.0
O65 O 0.78359 0.92542 0.42547 0.0
O66 O 0.82826 0.93533 0.46046 0.0
C67 C 0.72765 0.88876 0.3366 0.0
O68 O 0.72992 0.91011 0.36762 0.0
C69 C 0.83071 0.87311 0.38179 0.0
Zn70 Zn 0.05618 0.9215 0.40482 0.0
Zn71 Zn 0.08676 0.89584 0.38362 0.0
O72 O 0.05506 0.88618 0.32826 0.0
O73 O 0.01997 0.89704 0.35984 0.0
O74 O 0.11273 0.87743 0.35759 0.0
O75 O 0.09122 0.9659 0.39008 0.0
O76 O 0.12016 0.94308 0.40064 0.0
C77 C 0.02816 0.88515 0.32656 0.0
C78 C 0.05463 0.87996 0.47701 0.0
O79 O 0.0643 0.86943 0.44322 0.0
O80 O 0.05276 0.905 0.47109 0.0
C81 C 0.13314 0.87347 0.38029 0.0
O82 O 0.13839 0.88185 0.42505 0.0
C83 C 0.11814 0.96845 0.39845 0.0
Zn84 Zn 0.8534 0.92994 0.90144 0.0
Zn85 Zn 0.79758 0.91034 0.88292 0.0
O86 O 0.81792 0.95911 0.89623 0.0
O87 O 0.86864 0.97556 0.88459 0.0
O88 O 0.75237 0.89685 0.86532 0.0
O89 O 0.85806 0.90066 0.85623 0.0
O90 O 0.81389 0.89546 0.8256 0.0
C91 C 0.84667 0.98205 0.89209 0.0
C92 C 0.81402 0.89264 0.97573 0.0
O93 O 0.79329 0.88414 0.94297 0.0
O94 O 0.84194 0.91594 0.96897 0.0
C95 C 0.73214 0.86715 0.86264 0.0
O96 O 0.74161 0.84645 0.8718 0.0
C97 C 0.83737 0.89032 0.82371 0.0
Zn98 Zn 0.06584 0.92706 0.91094 0.0
Zn99 Zn 0.09736 0.90374 0.88503 0.0
O100 O 0.0502 0.8662 0.89464 0.0
O101 O 0.02328 0.89158 0.89143 0.0
O102 O 0.11983 0.88086 0.86114 0.0
O103 O 0.08736 0.96561 0.87028 0.0
O104 O 0.10734 0.93912 0.83435 0.0
C105 C 0.02341 0.86549 0.89306 0.0
C106 C 0.10762 0.93068 0.98292 0.0
O107 O 0.11995 0.92417 0.94782 0.0
O108 O 0.08093 0.9294 0.97798 0.0
C109 C 0.11445 0.8552 0.88167 0.0
O110 O 0.09527 0.84523 0.91849 0.0
C111 C 0.1031 0.96324 0.83637 0.0
Zn112 Zn 0.07013 0.14674 0.9005 0.0
Zn113 Zn 0.0961 0.2005 0.86375 0.0
O114 O 0.13306 0.19055 0.87572 0.0
O115 O 0.10557 0.13851 0.88541 0.0
O116 O 0.11765 0.24216 0.8291 0.0
O117 O 0.03167 0.12712 0.85931 0.0
O118 O 0.05869 0.1716 0.8186 0.0
C119 C 0.13223 0.16381 0.88037 0.0
C120 C 0.07229 0.19452 0.96274 0.0
O121 O 0.07994 0.21084 0.9248 0.0
O122 O 0.06954 0.16698 0.96283 0.0
C123 C 0.13982 0.26698 0.84886 0.0
O124 O 0.14842 0.26467 0.89209 0.0
C125 C 0.03437 0.14365 0.82318 0.0
Zn126 Zn 0.91025 0.85118 0.58456 0.0
Zn127 Zn 0.88104 0.79378 0.60125 0.0
O128 O 0.92841 0.80598 0.59039 0.0
O129 O 0.95321 0.85768 0.60267 0.0
O130 O 0.86064 0.74758 0.62011 0.0
O131 O 0.88544 0.86223 0.62983 0.0
O132 O 0.87072 0.81442 0.6582 0.0
C133 C 0.95442 0.83238 0.59596 0.0
C134 C 0.87051 0.81607 0.50794 0.0
O135 O 0.85824 0.79443 0.5396 0.0
O136 O 0.89604 0.84199 0.51674 0.0
C137 C 0.86861 0.7289 0.60036 0.0
O138 O 0.88922 0.73979 0.56525 0.0
C139 C 0.87177 0.84133 0.66161 0.0
Zn140 Zn 0.13624 0.08079 0.60241 0.0
Zn141 Zn 0.19535 0.10666 0.61529 0.0
O142 O 0.18473 0.14281 0.60075 0.0
O143 O 0.13279 0.11986 0.60943 0.0
O144 O 0.24189 0.13362 0.63132 0.0
O145 O 0.12412 0.05121 0.6567 0.0
O146 O 0.17551 0.07659 0.67386 0.0
C147 C 0.1594 0.14487 0.60253 0.0
C148 C 0.16922 0.0682 0.52725 0.0
O149 O 0.19292 0.08103 0.55552 0.0
O150 O 0.14324 0.06727 0.53785 0.0
C151 C 0.26133 0.12347 0.63751 0.0
O152 O 0.25107 0.09271 0.63274 0.0
C153 C 0.14672 0.05544 0.6837 0.0
Zn154 Zn 0.91163 0.0565 0.59329 0.0
Zn155 Zn 0.88845 0.09258 0.60946 0.0
O156 O 0.85017 0.04666 0.59661 0.0
O157 O 0.87102 0.01552 0.6016 0.0
O158 O 0.86583 0.11642 0.62818 0.0
O159 O 0.94226 0.07261 0.64667 0.0
O160 O 0.91955 0.10097 0.66561 0.0
C161 C 0.84668 0.01865 0.5972 0.0
C162 C 0.92446 0.10278 0.51909 0.0
O163 O 0.91308 0.11438 0.54875 0.0
O164 O 0.9246 0.07716 0.52857 0.0
C165 C 0.84027 0.11072 0.60705 0.0
O166 O 0.83015 0.09057 0.57135 0.0
C167 C 0.93971 0.09183 0.67428 0.0
Zn168 Zn 0.81223 0.40207 0.41038 0.0
Zn169 Zn 0.86707 0.43114 0.44057 0.0
O170 O 0.8414 0.44305 0.48735 0.0
O171 O 0.79617 0.42565 0.44888 0.0
O172 O 0.91107 0.4526 0.46806 0.0
O173 O 0.80355 0.35951 0.43324 0.0
O174 O 0.85585 0.38335 0.43538 0.0
C175 C 0.81404 0.44089 0.48326 0.0
C176 C 0.85531 0.44226 0.34033 0.0
O177 O 0.8731 0.45364 0.37656 0.0
O178 O 0.82845 0.41687 0.34409 0.0
C179 C 0.92431 0.48121 0.48321 0.0
O180 O 0.90864 0.49695 0.48074 0.0
C181 C 0.82869 0.35772 0.43685 0.0
Zn182 Zn 0.58918 0.3897 0.40099 0.0
Zn183 Zn 0.56302 0.41771 0.43143 0.0
O184 O 0.55394 0.38277 0.48245 0.0
O185 O 0.56873 0.35255 0.44436 0.0
O186 O 0.54522 0.44382 0.45968 0.0
O187 O 0.63369 0.42361 0.4143 0.0
O188 O 0.61038 0.45262 0.41555 0.0
C189 C 0.55598 0.35737 0.48008 0.0
C190 C 0.54417 0.38781 0.33568 0.0
O191 O 0.53555 0.39709 0.37217 0.0
O192 O 0.56983 0.3867 0.33686 0.0
C193 C 0.51975 0.43144 0.48423 0.0
O194 O 0.50423 0.40033 0.49127 0.0
C195 C 0.63587 0.45081 0.41368 0.0
Zn196 Zn 0.58294 0.18481 0.43134 0.0
Zn197 Zn 0.56007 0.12827 0.45825 0.0
O198 O 0.59709 0.15447 0.50532 0.0
O199 O 0.62121 0.20234 0.47312 0.0
O200 O 0.54018 0.08365 0.48317 0.0
O201 O 0.54528 0.18843 0.45131 0.0
O202 O 0.52136 0.13605 0.45348 0.0
C203 C 0.62041 0.18322 0.50432 0.0
C204 C 0.58555 0.14453 0.35949 0.0
O205 O 0.57783 0.12521 0.39405 0.0
O206 O 0.58606 0.17088 0.36491 0.0
C207 C 0.55747 0.07174 0.49486 0.0
O208 O 0.58868 0.08909 0.4901 0.0
C209 C 0.51979 0.16169 0.45416 0.0
Zn210 Zn 0.72366 0.47783 0.70576 0.0
Zn211 Zn 0.76612 0.53658 0.70199 0.0
O212 O 0.77435 0.51509 0.64387 0.0
O213 O 0.73896 0.46386 0.65074 0.0
O214 O 0.79416 0.58387 0.69064 0.0
O215 O 0.68644 0.48427 0.69745 0.0
O216 O 0.72215 0.5341 0.71275 0.0
C217 C 0.76238 0.4863 0.62927 0.0
C218 C 0.76707 0.50044 0.78659 0.0
O219 O 0.7823 0.52611 0.76261 0.0
O220 O 0.74079 0.47767 0.77124 0.0
C221 C 0.81607 0.59621 0.65955 0.0
O222 O 0.82323 0.57754 0.63486 0.0
C223 C 0.69297 0.51245 0.70737 0.0
Zn224 Zn 0.51847 0.24081 0.71794 0.0
Zn225 Zn 0.45987 0.2215 0.7067 0.0
O226 O 0.48176 0.24909 0.64678 0.0
O227 O 0.53298 0.26769 0.6604 0.0
O228 O 0.41313 0.19785 0.6908 0.0
O229 O 0.51626 0.19854 0.71742 0.0
O230 O 0.46559 0.18315 0.72728 0.0
C231 C 0.51103 0.26644 0.63463 0.0
C232 C 0.49022 0.26285 0.79 0.0
O233 O 0.46578 0.25067 0.76314 0.0
O234 O 0.51425 0.25991 0.77977 0.0
C235 C 0.39512 0.2099 0.68655 0.0
O236 O 0.40726 0.24083 0.69299 0.0
C237 C 0.48825 0.17674 0.72753 0.0
Zn238 Zn 0.74909 0.26631 0.72655 0.0
Zn239 Zn 0.76612 0.22516 0.71615 0.0
O240 O 0.73715 0.21989 0.65827 0.0
O241 O 0.72068 0.25435 0.67079 0.0
O242 O 0.78565 0.19827 0.69862 0.0
O243 O 0.79243 0.30471 0.72319 0.0
O244 O 0.80642 0.26848 0.73457 0.0
C245 C 0.72018 0.23223 0.64621 0.0
C246 C 0.72698 0.21764 0.80088 0.0
O247 O 0.73817 0.20425 0.77422 0.0
O248 O 0.73055 0.24473 0.78971 0.0
C249 C 0.77017 0.17213 0.67599 0.0
O250 O 0.73986 0.16133 0.6663 0.0
C251 C 0.81373 0.29783 0.73359 0.0
Zn252 Zn 0.50202 0.23617 0.26137 0.0
Zn253 Zn 0.44716 0.20728 0.23587 0.0
O254 O 0.46005 0.25552 0.24014 0.0
O255 O 0.51214 0.27867 0.23569 0.0
O256 O 0.40251 0.18769 0.21102 0.0
O257 O 0.51608 0.21012 0.2248 0.0
O258 O 0.47085 0.19404 0.18725 0.0
C259 C 0.48714 0.28088 0.23558 0.0
C260 C 0.46148 0.19911 0.33552 0.0
O261 O 0.4428 0.18591 0.30061 0.0
O262 O 0.48776 0.22476 0.32908 0.0
C263 C 0.38425 0.19672 0.22931 0.0
O264 O 0.39475 0.21662 0.26531 0.0
C265 C 0.49784 0.19526 0.19059 0.0
Zn266 Zn 0.73417 0.25408 0.26194 0.0
Zn267 Zn 0.76 0.22503 0.23449 0.0
O268 O 0.71209 0.19073 0.24519 0.0
O269 O 0.69018 0.22096 0.24361 0.0
O270 O 0.77779 0.19824 0.20954 0.0
O271 O 0.75753 0.29152 0.21951 0.0
O272 O 0.77091 0.25973 0.18283 0.0
C273 C 0.68708 0.19337 0.24402 0.0
C274 C 0.77539 0.25362 0.33162 0.0
O275 O 0.78531 0.24495 0.2959 0.0
O276 O 0.75014 0.25535 0.3281 0.0
C277 C 0.80625 0.2103 0.1943 0.0
O278 O 0.82487 0.24159 0.1949 0.0
C279 C 0.77007 0.2858 0.18436 0.0
Zn280 Zn 0.74574 0.47082 0.21358 0.0
Zn281 Zn 0.77587 0.53115 0.2036 0.0
O282 O 0.81054 0.5181 0.2158 0.0
O283 O 0.78392 0.46595 0.20654 0.0
O284 O 0.80251 0.57818 0.19073 0.0
O285 O 0.71788 0.46213 0.15774 0.0
O286 O 0.74702 0.51393 0.14389 0.0
C287 C 0.81018 0.49148 0.21298 0.0
C288 C 0.73547 0.50423 0.29025 0.0
O289 O 0.75019 0.52842 0.26331 0.0
O290 O 0.73214 0.47739 0.27827 0.0
C291 C 0.7894 0.59488 0.18244 0.0
O292 O 0.75801 0.58085 0.18304 0.0
C293 C 0.72474 0.4861 0.13201 0.0
Zn294 Zn 0.56933 0.17559 0.93923 0.0
Zn295 Zn 0.55291 0.11592 0.95382 0.0
O296 O 0.60084 0.13685 0.93443 0.0
O297 O 0.6145 0.18754 0.92669 0.0
O298 O 0.54063 0.07134 0.9739 0.0
O299 O 0.55695 0.18325 0.00223 0.0
O300 O 0.54036 0.1321 0.01415 0.0
C301 C 0.62188 0.16579 0.92526 0.0
C302 C 0.52123 0.13072 0.87431 0.0
O303 O 0.52438 0.10938 0.8961 0.0
O304 O 0.53728 0.15986 0.88644 0.0
C305 C 0.55098 0.05404 0.95607 0.0
O306 O 0.57128 0.06523 0.9206 0.0
C307 C 0.54362 0.15873 0.02817 0.0
Zn308 Zn 0.80031 0.3787 0.92751 0.0
Zn309 Zn 0.85805 0.42177 0.95381 0.0
O310 O 0.83847 0.44906 0.9295 0.0
O311 O 0.78889 0.41216 0.91334 0.0
O312 O 0.89955 0.45369 0.9834 0.0
O313 O 0.78758 0.35586 0.98875 0.0
O314 O 0.83683 0.39081 0.01039 0.0
C315 C 0.81038 0.44133 0.9155 0.0
C316 C 0.85192 0.37894 0.87306 0.0
O317 O 0.87088 0.40204 0.89948 0.0
O318 O 0.82189 0.36577 0.87835 0.0
C319 C 0.92064 0.47941 0.96413 0.0
O320 O 0.9158 0.48632 0.92108 0.0
C321 C 0.80957 0.36653 0.01927 0.0
Zn322 Zn 0.61005 0.4229 0.88832 0.0
Zn323 Zn 0.5777 0.44294 0.92798 0.0
O324 O 0.54521 0.39514 0.91024 0.0
O325 O 0.57791 0.37698 0.89496 0.0
O326 O 0.55104 0.45679 0.96458 0.0
O327 O 0.64662 0.44212 0.93295 0.0
O328 O 0.61451 0.45238 0.97515 0.0
C329 C 0.54978 0.37181 0.90087 0.0
C330 C 0.60468 0.46901 0.8324 0.0
O331 O 0.59379 0.47363 0.87078 0.0
O332 O 0.61088 0.44646 0.82953 0.0
C333 C 0.52265 0.44853 0.95216 0.0
O334 O 0.51063 0.43053 0.91441 0.0
C335 C 0.64076 0.45218 0.97077 0.0
Zn336 Zn 0.4842 0.73411 0.74143 0.0
Zn337 Zn 0.53782 0.76541 0.77485 0.0
O338 O 0.51074 0.77563 0.82121 0.0
O339 O 0.46655 0.7564 0.77963 0.0
O340 O 0.58205 0.7877 0.80178 0.0
O341 O 0.47664 0.69172 0.7634 0.0
O342 O 0.52878 0.71828 0.7709 0.0
C343 C 0.48288 0.77199 0.81501 0.0
C344 C 0.52532 0.77741 0.67426 0.0
O345 O 0.54222 0.78831 0.71147 0.0
O346 O 0.50015 0.75023 0.67563 0.0
C347 C 0.60025 0.81789 0.80232 0.0
O348 O 0.58955 0.83619 0.78555 0.0
C349 C 0.50248 0.69173 0.77047 0.0
Zn350 Zn 0.25264 0.74866 0.74489 0.0
Zn351 Zn 0.2243 0.77691 0.76751 0.0
O352 O 0.2155 0.74509 0.82255 0.0
O353 O 0.23195 0.71384 0.79203 0.0
O354 O 0.20206 0.80055 0.78912 0.0
O355 O 0.29552 0.78454 0.7605 0.0
O356 O 0.27192 0.81332 0.75747 0.0
C357 C 0.21847 0.72028 0.82512 0.0
C358 C 0.2097 0.74246 0.67369 0.0
O359 O 0.19972 0.75294 0.70715 0.0
O360 O 0.23555 0.74206 0.67868 0.0
C361 C 0.17481 0.78505 0.80887 0.0
O362 O 0.16144 0.75381 0.81294 0.0
C363 C 0.29748 0.81164 0.75978 0.0
Zn364 Zn 0.26837 0.51788 0.72804 0.0
Zn365 Zn 0.24128 0.46061 0.75603 0.0
O366 O 0.27604 0.48576 0.80598 0.0
O367 O 0.30391 0.53382 0.77487 0.0
O368 O 0.21991 0.41628 0.78243 0.0
O369 O 0.23082 0.52261 0.74312 0.0
O370 O 0.2038 0.47021 0.7493 0.0
C371 C 0.30007 0.51407 0.80709 0.0
C372 C 0.27224 0.47666 0.65963 0.0
O373 O 0.26168 0.45713 0.69412 0.0
O374 O 0.27407 0.50372 0.6634 0.0
C375 C 0.19986 0.3923 0.75851 0.0
O376 O 0.19299 0.39686 0.71531 0.0
C377 C 0.20442 0.49696 0.74787 0.0
Zn378 Zn 0.39173 0.80289 0.03983 0.0
Zn379 Zn 0.43792 0.8611 0.04371 0.0
O380 O 0.44357 0.84231 0.9808 0.0
O381 O 0.40368 0.79266 0.9779 0.0
O382 O 0.46901 0.9083 0.03754 0.0
O383 O 0.35666 0.81301 0.04352 0.0
O384 O 0.39588 0.86095 0.06131 0.0
C385 C 0.42874 0.81531 0.95988 0.0
C386 C 0.43752 0.81711 0.11733 0.0
O387 O 0.4531 0.84483 0.0988 0.0
O388 O 0.41086 0.79636 0.09993 0.0
C389 C 0.49357 0.92032 0.01097 0.0
O390 O 0.50089 0.90117 0.98786 0.0
C391 C 0.36595 0.84113 0.05792 0.0
Zn392 Zn 0.17048 0.60209 0.06501 0.0
Zn393 Zn 0.11394 0.58744 0.04854 0.0
O394 O 0.14034 0.61697 0.99302 0.0
O395 O 0.19019 0.6347 0.0146 0.0
O396 O 0.06896 0.57197 0.02745 0.0
O397 O 0.16408 0.55878 0.0525 0.0
O398 O 0.11345 0.54434 0.06015 0.0
C399 C 0.1703 0.63481 0.98578 0.0
C400 C 0.14203 0.61987 0.14018 0.0
O401 O 0.12006 0.61295 0.1098 0.0
O402 O 0.1649 0.61492 0.13084 0.0
C403 C 0.04558 0.55209 0.05248 0.0
O404 O 0.05147 0.54354 0.09365 0.0
C405 C 0.13531 0.53688 0.05705 0.0
Zn406 Zn 0.41281 0.58878 0.04904 0.0
Zn407 Zn 0.42309 0.54156 0.044 0.0
O408 O 0.40005 0.54122 0.98254 0.0
O409 O 0.38935 0.58036 0.98822 0.0
O410 O 0.43654 0.50954 0.02785 0.0
O411 O 0.45876 0.62255 0.05239 0.0
O412 O 0.46541 0.58149 0.06579 0.0
C413 C 0.38738 0.55679 0.96572 0.0
C414 C 0.38045 0.53851 0.12124 0.0
O415 O 0.39088 0.52296 0.09804 0.0
O416 O 0.38805 0.56677 0.10896 0.0
C417 C 0.45918 0.50815 0.04843 0.0
O418 O 0.47324 0.52692 0.08486 0.0
C419 C 0.47662 0.6117 0.06503 0.0
Zn420 Zn 0.17948 0.59065 0.57917 0.0
Zn421 Zn 0.12023 0.56067 0.56324 0.0
O422 O 0.13175 0.60839 0.57271 0.0
O423 O 0.18419 0.63343 0.56877 0.0
O424 O 0.07396 0.53787 0.54542 0.0
O425 O 0.19062 0.57065 0.52645 0.0
O426 O 0.14005 0.54969 0.50633 0.0
C427 C 0.15855 0.63443 0.57068 0.0
C428 C 0.14426 0.54656 0.65288 0.0
O429 O 0.12151 0.53733 0.62327 0.0
O430 O 0.17105 0.57113 0.6442 0.0
C431 C 0.05386 0.54603 0.55853 0.0
O432 O 0.06328 0.57105 0.58625 0.0
C433 C 0.16799 0.55414 0.49821 0.0
Zn434 Zn 0.42741 0.58661 0.59638 0.0
Zn435 Zn 0.45595 0.56002 0.57424 0.0
O436 O 0.40749 0.52461 0.5759 0.0
O437 O 0.38602 0.55491 0.56732 0.0
O438 O 0.47772 0.53617 0.55186 0.0
O439 O 0.45478 0.62694 0.56116 0.0
O440 O 0.46979 0.59639 0.52472 0.0
C441 C 0.38293 0.52733 0.56794 0.0
C442 C 0.46229 0.58494 0.67304 0.0
O443 O 0.47599 0.57897 0.63921 0.0
O444 O 0.43596 0.5839 0.66533 0.0
C445 C 0.46888 0.50798 0.56617 0.0
O446 O 0.44573 0.49475 0.59753 0.0
C447 C 0.46959 0.62274 0.52758 0.0
Zn448 Zn 0.40892 0.81762 0.59373 0.0
Zn449 Zn 0.44049 0.87556 0.56782 0.0
O450 O 0.47485 0.86145 0.57573 0.0
O451 O 0.4446 0.80926 0.58213 0.0
O452 O 0.46602 0.92095 0.54582 0.0
O453 O 0.37608 0.80555 0.5434 0.0
O454 O 0.4068 0.85404 0.51494 0.0
C455 C 0.47198 0.8337 0.57765 0.0
C456 C 0.40571 0.85936 0.66164 0.0
O457 O 0.4191 0.87949 0.62838 0.0
O458 O 0.40164 0.8314 0.65768 0.0
C459 C 0.49367 0.94017 0.56204 0.0
O460 O 0.50613 0.93002 0.59423 0.0
C461 C 0.38191 0.82637 0.51197 0.0
Zn462 Zn 0.22393 0.51982 0.23527 0.0
Zn463 Zn 0.19778 0.45989 0.25726 0.0
O464 O 0.24483 0.47331 0.23789 0.0
O465 O 0.26711 0.52541 0.22827 0.0
O466 O 0.17943 0.4145 0.27963 0.0
O467 O 0.21285 0.53271 0.29551 0.0
O468 O 0.19125 0.482 0.3161 0.0
C469 C 0.26945 0.50047 0.22918 0.0
C470 C 0.17209 0.47833 0.17347 0.0
O471 O 0.16865 0.45613 0.20135 0.0
O472 O 0.19428 0.5069 0.17988 0.0
C473 C 0.18633 0.39493 0.2602 0.0
O474 O 0.20604 0.40452 0.22397 0.0
C475 C 0.19827 0.5107 0.32548 0.0
Zn476 Zn 0.47997 0.69824 0.27128 0.0
Zn477 Zn 0.53826 0.74415 0.27744 0.0
O478 O 0.51377 0.76661 0.25372 0.0
O479 O 0.46476 0.72649 0.24467 0.0
O480 O 0.58188 0.78116 0.29107 0.0
O481 O 0.47438 0.68799 0.33935 0.0
O482 O 0.52653 0.72044 0.34216 0.0
C483 C 0.4848 0.75607 0.24129 0.0
C484 C 0.52446 0.69004 0.21193 0.0
O485 O 0.54447 0.7185 0.22457 0.0
O486 O 0.49633 0.67598 0.22866 0.0
C487 C 0.60442 0.79419 0.26109 0.0
O488 O 0.59962 0.78335 0.21748 0.0
C489 C 0.50039 0.70012 0.36188 0.0
Zn490 Zn 0.27302 0.75972 0.26535 0.0
Zn491 Zn 0.24456 0.79082 0.28939 0.0
O492 O 0.20761 0.74487 0.27206 0.0
O493 O 0.23295 0.71785 0.26385 0.0
O494 O 0.22132 0.81204 0.31607 0.0
O495 O 0.30064 0.7712 0.32184 0.0
O496 O 0.27599 0.79713 0.34398 0.0
C497 C 0.20707 0.71844 0.26503 0.0
C498 C 0.28347 0.81098 0.20081 0.0
O499 O 0.26765 0.81737 0.23056 0.0
O500 O 0.28799 0.78754 0.20727 0.0
C501 C 0.20128 0.81553 0.29149 0.0
O502 O 0.19601 0.80512 0.24763 0.0
C503 C 0.29662 0.78845 0.35153 0.0
C504 C 0.17216 0.00021 0.04589 0.0
C505 C 0.15426 0.00305 0.08304 0.0
C506 C 0.15867 0.97297 0.0168 0.0
C507 C 0.12707 0.94811 0.02435 0.0
H508 H 0.19465 0.02067 0.03507 0.0
H509 H 0.17127 0.9736 0.9847 0.0
S510 S 0.07604 0.93897 0.12783 0.0
N511 N 0.10779 0.97496 0.13414 0.0
N512 N 0.08243 0.92383 0.07932 0.0
C513 C 0.11182 0.9481 0.06668 0.0
C514 C 0.12549 0.9757 0.09621 0.0
C515 C 0.04291 0.18653 0.08515 0.0
C516 C 0.01343 0.18495 0.07643 0.0
C517 C 0.06565 0.19518 0.04912 0.0
C518 C 0.0599 0.20348 0.00409 0.0
H519 H 0.04621 0.17614 0.11711 0.0
H520 H 0.08566 0.19123 0.0546 0.0
S521 S 0.99282 0.21596 0.97024 0.0
N522 N 0.98432 0.20189 0.02477 0.0
N523 N 0.0276 0.21889 0.95728 0.0
C524 C 0.03406 0.20888 -0.00142 0.0
C525 C 0.01063 0.19962 0.03512 0.0
C526 C 0.82482 0.88683 0.05913 0.0
C527 C 0.80935 0.872 0.01674 0.0
C528 C 0.83631 0.87197 0.08944 0.0
C529 C 0.83303 0.84206 0.07776 0.0
H530 H 0.83171 0.91161 0.06582 0.0
H531 H 0.85146 0.8858 0.11866 0.0
S532 S 0.78509 0.78936 0.97886 0.0
N533 N 0.78401 0.82277 0.97094 0.0
N534 N 0.8059 0.79475 0.02774 0.0
C535 C 0.81243 0.82465 0.04031 0.0
C536 C 0.80049 0.83977 0.00959 0.0
C537 C 0.96609 0.15339 0.48203 0.0
C538 C 0.94233 0.12105 0.47709 0.0
C539 C 0.99154 0.16772 0.44964 0.0
C540 C 0.99375 0.15 0.41161 0.0
H541 H 0.9671 0.1665 0.51376 0.0
H542 H 0.01131 0.19135 0.45776 0.0
S543 S 0.93203 0.06801 0.37568 0.0
N544 N 0.91856 0.07432 0.42595 0.0
N545 N 0.96601 0.1013 0.36471 0.0
C546 C 0.96742 0.11947 0.40246 0.0
C547 C 0.94178 0.10488 0.4355 0.0
C548 C 0.86055 0.84411 0.39089 0.0
C549 C 0.83198 0.84467 0.39827 0.0
C550 C 0.871 0.82969 0.42381 0.0
C551 C 0.85302 0.81507 0.4647 0.0
H552 H 0.87693 0.85852 0.36312 0.0
H553 H 0.89505 0.83353 0.42028 0.0
S554 S 0.77216 0.80157 0.49252 0.0
N555 N 0.78244 0.82284 0.44328 0.0
N556 N 0.80213 0.79546 0.50505 0.0
C557 C 0.82192 0.81042 0.46789 0.0
C558 C 0.81128 0.82529 0.43441 0.0
C559 C 0.1408 0.02674 0.41143 0.0
C560 C 0.14342 -0.00078 0.41846 0.0
C561 C 0.15323 0.05171 0.44443 0.0
C562 C 0.16927 0.05032 0.48497 0.0
H563 H 0.12592 0.02739 0.38328 0.0
H564 H 0.14747 0.07064 0.44061 0.0
S565 S 0.19036 0.98809 0.51288 0.0
N566 N 0.16913 0.97535 0.46375 0.0
N567 N 0.1929 0.02277 0.52546 0.0
C568 C 0.17654 0.0256 0.48845 0.0
C569 C 0.16358 -0.00012 0.45501 0.0
C570 C 0.8514 0.04328 0.97775 0.0
C571 C 0.88418 0.066 0.97503 0.0
C572 C 0.83744 0.0178 0.94542 0.0
C573 C 0.85601 0.01447 0.90972 0.0
H574 H 0.83743 0.043 0.00798 0.0
H575 H 0.81318 -0.00124 0.95209 0.0
S576 S 0.9399 0.07392 0.87892 0.0
N577 N 0.9326 0.08812 0.92764 0.0
N578 N 0.90634 0.04057 0.86638 0.0
C579 C 0.88725 0.04004 0.90221 0.0
C580 C 0.90144 0.06573 0.93523 0.0
C581 C 0.93815 0.8218 0.92611 0.0
C582 C 0.93996 0.80819 0.96909 0.0
C583 C 0.96433 0.83565 0.89527 0.0
C584 C 0.99318 0.83668 0.907 0.0
H585 H 0.91816 0.82556 0.91931 0.0
H586 H 0.96352 0.84958 0.86578 0.0
S587 S 0.00574 0.79483 0.0074 0.0
N588 N 0.96928 0.78901 0.01555 0.0
N589 N 0.01881 0.81536 0.95771 0.0
C590 C 0.99291 0.81773 0.94501 0.0
C591 C 0.96607 0.80342 0.97632 0.0
C592 C 0.17942 0.18152 0.93181 0.0
C593 C 0.16082 0.16212 0.89404 0.0
C594 C 0.19276 0.16978 0.96485 0.0
C595 C 0.1878 0.13854 0.96047 0.0
H596 H 0.17945 0.2035 0.94012 0.0
H597 H 0.20265 0.18321 -0.0028 0.0
S598 S 0.15155 0.08397 0.85845 0.0
N599 N 0.1463 0.11464 0.84691 0.0
N600 N 0.17125 0.09257 0.90903 0.0
C601 C 0.17492 0.12193 0.91806 0.0
C602 C 0.16149 0.13386 0.88454 0.0
C603 C 0.98565 0.81736 0.54237 0.0
C604 C 0.98531 0.83575 0.58092 0.0
C605 C 0.01196 0.8296 0.5115 0.0
C606 C 0.03837 0.86036 0.51874 0.0
H607 H 0.96402 0.79571 0.53209 0.0
H608 H 0.0095 0.81708 0.47854 0.0
S609 S 0.05369 0.91189 0.62386 0.0
N610 N 0.01711 0.88147 0.63193 0.0
N611 N 0.06638 0.90451 0.57365 0.0
C612 C 0.04068 0.8758 0.56187 0.0
C613 C 0.01405 0.86341 0.59321 0.0
C614 C 0.16617 0.20074 0.50803 0.0
C615 C 0.13627 0.19879 0.51332 0.0
C616 C 0.17744 0.18803 0.54275 0.0
C617 C 0.15885 0.17302 0.58316 0.0
H618 H 0.17844 0.20752 0.47426 0.0
H619 H 0.19809 0.18565 0.53439 0.0
S620 S 0.08522 0.17312 0.62027 0.0
N621 N 0.09309 0.18921 0.56691 0.0
N622 N 0.11441 0.16574 0.63253 0.0
C623 C 0.13246 0.17703 0.59269 0.0
C624 C 0.121 0.18978 0.55739 0.0
C625 C 0.80357 0.99599 0.53757 0.0
C626 C 0.81751 0.991 0.57804 0.0
C627 C 0.79153 0.97303 0.50129 0.0
C628 C 0.79307 0.94476 0.5052 0.0
H629 H 0.80672 0.01947 0.5303 0.0
H630 H 0.7859 0.97972 0.46759 0.0
S631 S 0.81449 0.91539 0.61201 0.0
N632 N 0.82225 0.95186 0.62617 0.0
N633 N 0.79998 0.90892 0.55769 0.0
C634 C 0.8003 0.93685 0.54939 0.0
C635 C 0.81234 0.96003 0.58626 0.0
C636 C 0.8279 0.29503 0.3622 0.0
C637 C 0.79658 0.27026 0.37194 0.0
C638 C 0.84223 0.32273 0.3904 0.0
C639 C 0.8254 0.32601 0.42867 0.0
H640 H 0.83925 0.29537 0.32894 0.0
H641 H 0.86398 0.3433 0.37762 0.0
S642 S 0.74896 0.26249 0.47898 0.0
N643 N 0.7539 0.2466 0.43011 0.0
N644 N 0.78084 0.29858 0.48315 0.0
C645 C 0.79745 0.29867 0.44421 0.0
C646 C 0.78291 0.27063 0.4156 0.0
C647 C 0.66632 0.49648 0.35919 0.0
C648 C 0.66655 0.47794 0.39746 0.0
C649 C 0.6919 0.5099 0.32691 0.0
C650 C 0.71818 0.50512 0.33249 0.0
H651 H 0.64468 0.49692 0.3504 0.0
H652 H 0.68916 0.52031 0.29456 0.0
S653 S 0.7344 0.46753 0.4347 0.0
N654 N 0.69853 0.46261 0.44534 0.0
N655 N 0.74629 0.48742 0.38433 0.0
C656 C 0.72087 0.49135 0.37458 0.0
C657 C 0.69509 0.47796 0.40744 0.0
C658 C 0.47018 0.14057 0.40713 0.0
C659 C 0.48964 0.1612 0.44329 0.0
C660 C 0.45461 0.15059 0.37535 0.0
C661 C 0.45824 0.18133 0.3794 0.0
H662 H 0.47115 0.11914 0.39858 0.0
H663 H 0.44429 0.13651 0.34365 0.0
S664 S 0.49474 0.23746 0.47954 0.0
N665 N 0.50267 0.20843 0.49024 0.0
N666 N 0.47349 0.22726 0.43034 0.0
C667 C 0.47145 0.1986 0.42121 0.0
C668 C 0.48719 0.18844 0.45348 0.0
C669 C 0.6108 0.48136 0.74792 0.0
C670 C 0.61736 0.493 0.79451 0.0
C671 C 0.63515 0.49322 0.71389 0.0
C672 C 0.66661 0.51656 0.72619 0.0
H673 H 0.5886 0.4596 0.73994 0.0
H674 H 0.63058 0.48029 0.68079 0.0
S675 S 0.69139 0.56382 0.8371 0.0
N676 N 0.6537 0.53607 0.8462 0.0
N677 N 0.69979 0.55835 0.7824 0.0
C678 C 0.67109 0.53342 0.76875 0.0
C679 C 0.64614 0.52147 0.80324 0.0
C680 C 0.46605 0.13951 0.79517 0.0
C681 C 0.48475 0.14867 0.75372 0.0
C682 C 0.47471 0.12746 0.83402 0.0
C683 C 0.50156 0.12342 0.83175 0.0
H684 H 0.4479 0.1462 0.80044 0.0
H685 H 0.4631 0.12551 0.86769 0.0
S686 S 0.55092 0.13318 0.72613 0.0
N687 N 0.52575 0.14496 0.70869 0.0
N688 N 0.54152 0.1217 0.78169 0.0
C689 C 0.51629 0.12653 0.78781 0.0
C690 C 0.50786 0.13924 0.74849 0.0
C691 C 0.86145 0.37678 0.78863 0.0
C692 C 0.86341 0.36693 0.83457 0.0
C693 C 0.85117 0.35491 0.75104 0.0
C694 C 0.84221 0.32263 0.75889 0.0
H695 H 0.86291 0.39974 0.78311 0.0
H696 H 0.84532 0.36198 0.71784 0.0
S697 S 0.85502 0.28915 0.8692 0.0
N698 N 0.8647 0.32622 0.8831 0.0
N699 N 0.84564 0.28497 0.81247 0.0
C700 C 0.85089 0.31476 0.80219 0.0
C701 C 0.86126 0.33705 0.84041 0.0
C702 C 0.53442 0.36791 0.25361 0.0
C703 C 0.52154 0.37016 0.29714 0.0
C704 C 0.51941 0.33958 0.22723 0.0
C705 C 0.49114 0.31292 0.24375 0.0
H706 H 0.55843 0.3861 0.24357 0.0
H707 H 0.53239 0.337 0.19782 0.0
S708 S 0.44177 0.31184 0.34498 0.0
N709 N 0.47437 0.34747 0.34755 0.0
N710 N 0.44599 0.2941 0.29771 0.0
C711 C 0.47468 0.31756 0.2812 0.0
C712 C 0.49004 0.34647 0.30817 0.0
C713 C 0.62842 0.16953 0.24546 0.0
C714 C 0.65518 0.16635 0.25615 0.0
C715 C 0.60208 0.15723 0.27593 0.0
C716 C 0.60168 0.14104 0.31743 0.0
H717 H 0.62982 0.18548 0.21745 0.0
H718 H 0.5841 0.16412 0.27027 0.0
S719 S 0.66008 0.11574 0.35053 0.0
N720 N 0.67547 0.13799 0.3028 0.0
N721 N 0.62558 0.11431 0.35987 0.0
C722 C 0.625 0.13189 0.32273 0.0
C723 C 0.65202 0.14469 0.29183 0.0
C724 C 0.86596 0.49311 0.30359 0.0
C725 C 0.86082 0.46189 0.29778 0.0
C726 C 0.85426 0.50617 0.2701 0.0
C727 C 0.83726 0.4882 0.23029 0.0
H728 H 0.87461 0.50547 0.33703 0.0
H729 H 0.85435 0.52808 0.27915 0.0
S730 S 0.82951 0.41128 0.1908 0.0
N731 N 0.84649 0.41775 0.24343 0.0
N732 N 0.82504 0.44251 0.18 0.0
C733 C 0.8382 0.46015 0.21973 0.0
C734 C 0.8498 0.4468 0.25388 0.0
C735 C 0.67859 0.20607 0.91033 0.0
C736 C 0.65347 0.17431 0.90529 0.0
C737 C 0.70448 0.21908 0.87903 0.0
C738 C 0.70628 0.20075 0.84171 0.0
H739 H 0.67685 0.22186 0.93601 0.0
H740 H 0.72187 0.24439 0.88179 0.0
S741 S 0.64998 0.11462 0.81906 0.0
N742 N 0.63445 0.12341 0.86485 0.0
N743 N 0.68346 0.1479 0.80596 0.0
C744 C 0.68347 0.1679 0.8399 0.0
C745 C 0.65692 0.15461 0.87185 0.0
C746 C 0.77098 0.45804 0.89509 0.0
C747 C 0.80299 0.46505 0.89485 0.0
C748 C 0.76018 0.47249 0.86289 0.0
C749 C 0.78102 0.49454 0.82927 0.0
H750 H 0.75351 0.43921 0.91759 0.0
H751 H 0.7348 0.4644 0.86187 0.0
S752 S 0.8684 0.52581 0.82025 0.0
N753 N 0.85649 0.49915 0.86333 0.0
N754 N 0.83613 0.52652 0.80255 0.0
C755 C 0.81385 0.50474 0.83248 0.0
C756 C 0.82489 0.48991 0.86544 0.0
C757 C 0.52726 0.31334 0.89683 0.0
C758 C 0.52343 0.33987 0.88749 0.0
C759 C 0.51263 0.28603 0.86828 0.0
C760 C 0.49359 0.28431 0.82957 0.0
H761 H 0.54447 0.31508 0.92299 0.0
H762 H 0.51888 0.26755 0.87363 0.0
S763 S 0.47004 0.34419 0.7974 0.0
N764 N 0.49461 0.36042 0.84267 0.0
N765 N 0.46682 0.30877 0.78887 0.0
C766 C 0.48578 0.30861 0.82423 0.0
C767 C 0.5008 0.33657 0.8534 0.0
C768 C 0.51138 0.6297 0.70704 0.0
C769 C 0.48056 0.60334 0.71475 0.0
C770 C 0.52182 0.65831 0.73234 0.0
C771 C 0.50167 0.66087 0.76592 0.0
H772 H 0.52521 0.63014 0.67652 0.0
H773 H 0.54329 0.67954 0.72044 0.0
S774 S 0.42537 0.59455 0.81205 0.0
N775 N 0.43506 0.57842 0.76804 0.0
N776 N 0.45465 0.63215 0.81567 0.0
C777 C 0.47427 0.6327 0.78067 0.0
C778 C 0.46372 0.60371 0.75504 0.0
C779 C 0.38434 0.85016 0.74287 0.0
C780 C 0.38717 0.86447 0.69858 0.0
C781 C 0.35595 0.83806 0.76887 0.0
C782 C 0.32948 0.8394 0.75071 0.0
H783 H 0.40229 0.84437 0.75434 0.0
H784 H 0.3531 0.82338 0.79953 0.0
S785 S 0.32901 0.88384 0.64435 0.0
N786 N 0.36474 0.88704 0.64411 0.0
N787 N 0.31092 0.8635 0.6926 0.0
C788 C 0.33433 0.85907 0.71138 0.0
C789 C 0.36348 0.87179 0.68515 0.0
C790 C 0.16028 0.54021 0.73289 0.0
C791 C 0.14325 0.52557 0.69138 0.0
C792 C 0.17594 0.52704 0.75785 0.0
C793 C 0.17523 0.49908 0.74158 0.0
H794 H 0.16522 0.56407 0.7423 0.0
H795 H 0.19236 0.54121 0.78573 0.0
S796 S 0.1253 0.44658 0.64417 0.0
N797 N 0.11958 0.47764 0.64256 0.0
N798 N 0.14949 0.45299 0.68931 0.0
C799 C 0.15332 0.48118 0.70586 0.0
C800 C 0.13713 0.49453 0.68058 0.0
C801 C 0.35217 0.86406 0.12647 0.0
C802 C 0.3425 0.84673 0.08374 0.0
C803 C 0.3305 0.85612 0.16409 0.0
C804 C 0.29872 0.83117 0.15942 0.0
H805 H 0.3773 0.88031 0.1335 0.0
H806 H 0.33973 0.86637 0.1986 0.0
S807 S 0.25943 0.787 0.04997 0.0
N808 N 0.29737 0.81011 0.03502 0.0
N809 N 0.25685 0.79513 0.10604 0.0
C810 C 0.28764 0.81816 0.11447 0.0
C811 C 0.30956 0.82616 0.07624 0.0
C812 C 0.11341 0.49307 0.11548 0.0
C813 C 0.12978 0.50532 0.07254 0.0
C814 C 0.12324 0.47711 0.14686 0.0
C815 C 0.14928 0.47288 0.13553 0.0
H816 H 0.09681 0.50033 0.12832 0.0
H817 H 0.11394 0.47283 0.18265 0.0
S818 S 0.19109 0.48962 0.02051 0.0
N819 N 0.16628 0.5037 0.01482 0.0
N820 N 0.18473 0.47382 0.07399 0.0
C821 C 0.1609 0.47894 0.08908 0.0
C822 C 0.15099 0.49515 0.05724 0.0
C823 C 0.52138 0.64212 0.17578 0.0
C824 C 0.53068 0.67468 0.17167 0.0
C825 C 0.5093 0.62161 0.1367 0.0
C826 C 0.50526 0.63314 0.09307 0.0
H827 H 0.51937 0.63167 0.21043 0.0
H828 H 0.49844 0.59609 0.14287 0.0
S829 S 0.53612 0.71815 0.06123 0.0
N830 N 0.54337 0.71892 0.11844 0.0
N831 N 0.51971 0.68022 0.045 0.0
C832 C 0.52014 0.66649 0.08674 0.0
C833 C 0.53304 0.68742 0.12635 0.0
C834 C 0.14497 0.66833 0.62058 0.0
C835 C 0.16144 0.66574 0.58127 0.0
C836 C 0.1583 0.69672 0.64728 0.0
C837 C 0.18835 0.7229 0.63517 0.0
H838 H 0.1243 0.64722 0.63468 0.0
H839 H 0.14742 0.69636 0.681 0.0
S840 S 0.23463 0.73139 0.52632 0.0
N841 N 0.20429 0.69426 0.52441 0.0
N842 N 0.22949 0.74735 0.57494 0.0
C843 C 0.20167 0.72239 0.5913 0.0
C844 C 0.18809 0.69372 0.56411 0.0
C845 C 0.31443 0.46499 0.63469 0.0
C846 C 0.29108 0.47293 0.62168 0.0
C847 C 0.3438 0.47845 0.6106 0.0
C848 C 0.35017 0.49995 0.57306 0.0
H849 H 0.3122 0.45261 0.66767 0.0
H850 H 0.36297 0.4759 0.62601 0.0
S851 S 0.29179 0.51714 0.5144 0.0
N852 N 0.27243 0.49511 0.56079 0.0
N853 N 0.32743 0.52011 0.51515 0.0
C854 C 0.32449 0.50218 0.55392 0.0
C855 C 0.2948 0.48868 0.57848 0.0
C856 C 0.53468 0.83038 0.64777 0.0
C857 C 0.52808 0.79927 0.63567 0.0
C858 C 0.5205 0.84517 0.62259 0.0
C859 C 0.4997 0.82918 0.58474 0.0
H860 H 0.54666 0.84124 0.68073 0.0
H861 H 0.52204 0.86672 0.63712 0.0
S862 S 0.48555 0.75376 0.5285 0.0
N863 N 0.50769 0.75781 0.57536 0.0
N864 N 0.48104 0.78557 0.52812 0.0
C865 C 0.49849 0.8014 0.56683 0.0
C866 C 0.51285 0.78642 0.59234 0.0
C867 C 0.32831 0.53297 0.22289 0.0
C868 C 0.30023 0.5037 0.21403 0.0
C869 C 0.35584 0.54262 0.19574 0.0
C870 C 0.35634 0.52325 0.15899 0.0
H871 H 0.32813 0.54983 0.24812 0.0
H872 H 0.37595 0.56655 0.20098 0.0
S873 S 0.29125 0.44168 0.12798 0.0
N874 N 0.27613 0.45326 0.17108 0.0
N875 N 0.32826 0.47136 0.12002 0.0
C876 C 0.32988 0.49223 0.15374 0.0
C877 C 0.30164 0.48241 0.18142 0.0
C878 C 0.44159 0.7662 0.21484 0.0
C879 C 0.47453 0.77703 0.21829 0.0
C880 C 0.43007 0.78099 0.18456 0.0
C881 C 0.451 0.80729 0.15654 0.0
H882 H 0.42431 0.74502 0.2338 0.0
H883 H 0.40439 0.77065 0.18136 0.0
S884 S 0.5397 0.84799 0.15766 0.0
N885 N 0.52826 0.81801 0.19527 0.0
N886 N 0.50648 0.84599 0.13818 0.0
C887 C 0.48415 0.82025 0.16273 0.0
C888 C 0.49597 0.80506 0.1937 0.0
C889 C 0.16074 0.69274 0.21033 0.0
C890 C 0.17813 0.68967 0.24788 0.0
C891 C 0.14431 0.66752 0.17802 0.0
C892 C 0.145 0.63881 0.18272 0.0
H893 H 0.16325 0.71587 0.20226 0.0
H894 H 0.13463 0.67205 0.1463 0.0
S895 S 0.17876 0.61593 0.2829 0.0
N896 N 0.1886 0.65342 0.29403 0.0
N897 N 0.15796 0.60622 0.23326 0.0
C898 C 0.1579 0.63388 0.22415 0.0
C899 C 0.17441 0.65934 0.25694 0.0
C900 C 0.1422 0.13753 0.28148 0.0
C901 C 0.12556 0.15445 0.27664 0.0
C902 C 0.15279 0.12802 0.24182 0.0
C903 C 0.14635 0.13438 0.19596 0.0
H904 H 0.14669 0.13115 0.31622 0.0
H905 H 0.16485 0.11438 0.24709 0.0
S906 S 0.10589 0.17999 0.16402 0.0
N907 N 0.10517 0.17914 0.22242 0.0
N908 N 0.12421 0.16031 0.14767 0.0
C909 C 0.13068 0.15216 0.19055 0.0
C910 C 0.12054 0.1625 0.23098 0.0
C911 C 0.89558 0.01197 0.27596 0.0
C912 C 0.8625 0.99621 0.28508 0.0
C913 C 0.90928 0.03544 0.24098 0.0
C914 C 0.89059 0.04463 0.21449 0.0
H915 H 0.91097 0.00556 0.29522 0.0
H916 H 0.93473 0.04625 0.23421 0.0
S917 S 0.80319 0.01214 0.22623 0.0
N918 N 0.81145 0.99211 0.26583 0.0
N919 N 0.83756 0.0371 0.20048 0.0
C920 C 0.85768 0.02995 0.22418 0.0
C921 C 0.84351 0.00543 0.25928 0.0
C922 C -0.00057 0.8638 0.20036 0.0
C923 C 0.9659 0.84697 0.20538 0.0
C924 C 0.01952 0.87504 0.23993 0.0
C925 C 0.00671 0.87062 0.28573 0.0
H926 H 0.01022 0.86871 0.16551 0.0
H927 H 0.04519 0.88834 0.2345 0.0
S928 S 0.92061 0.82686 0.31803 0.0
N929 N 0.92082 0.82501 0.25971 0.0
N930 N 0.95857 0.84705 0.3342 0.0
C931 C 0.97326 0.8532 0.29133 0.0
C932 C 0.95283 0.84108 0.25109 0.0
C933 C 0.84489 0.86886 0.69769 0.0
C934 C 0.85874 0.84936 0.70325 0.0
C935 C 0.83611 0.88053 0.73697 0.0
C936 C 0.84177 0.87376 0.78305 0.0
H937 H 0.84153 0.87577 0.66267 0.0
H938 H 0.82645 0.89628 0.73121 0.0
S939 S 0.8754 0.82212 0.81669 0.0
N940 N 0.87567 0.82204 0.75827 0.0
N941 N 0.86013 0.84477 0.83227 0.0
C942 C 0.85446 0.8533 0.78911 0.0
C943 C 0.86268 0.84083 0.74912 0.0
C944 C 0.15356 0.01715 0.73531 0.0
C945 C 0.1387 0.03532 0.72622 0.0
C946 C 0.14196 0.9937 0.77102 0.0
C947 C 0.11557 0.98823 0.79917 0.0
H948 H 0.17329 0.02007 0.71339 0.0
H949 H 0.1536 0.97969 0.77642 0.0
S950 S 0.06984 0.03137 0.79054 0.0
N951 N 0.09732 0.04739 0.74878 0.0
N952 N 0.07586 0.00411 0.81626 0.0
C953 C 0.10136 0.00723 0.79121 0.0
C954 C 0.11286 0.03059 0.75462 0.0
C955 C 0.97726 0.13719 0.72595 0.0
C956 C 0.96136 0.10431 0.71519 0.0
C957 C 0.00123 0.14996 0.76071 0.0
C958 C 0.0094 0.1301 0.7864 0.0
H959 H 0.972 0.15327 0.70622 0.0
H960 H 0.01333 0.17549 0.76762 0.0
S961 S 0.97358 0.04216 0.77274 0.0
N962 N 0.95474 0.05209 0.7335 0.0
N963 N -0.00081 0.07587 0.79935 0.0
C964 C 0.993 0.09706 0.77671 0.0
C965 C 0.96909 0.08422 0.74095 0.0
C966 C 0.75629 0.45234 0.55982 0.0
C967 C 0.77647 0.47813 0.58917 0.0
C968 C 0.76883 0.44101 0.52521 0.0
C969 C 0.80207 0.45465 0.51912 0.0
H970 H 0.73054 0.44046 0.56413 0.0
H971 H 0.75223 0.42079 0.50389 0.0
S972 S 0.86519 0.52338 0.58621 0.0
N973 N 0.83126 0.51774 0.60926 0.0
N974 N 0.855 0.49607 0.5443 0.0
C975 C 0.82259 0.48088 0.54766 0.0
C976 C 0.80973 0.49279 0.58256 0.0
C977 C 0.50561 0.30524 0.58224 0.0
C978 C 0.52024 0.28695 0.59232 0.0
C979 C 0.51752 0.32842 0.54622 0.0
C980 C 0.54393 0.33344 0.51858 0.0
H981 H 0.48566 0.30248 0.60345 0.0
H982 H 0.50593 0.34238 0.53987 0.0
S983 S 0.58925 0.2901 0.52946 0.0
N984 N 0.56168 0.27457 0.57117 0.0
N985 N 0.58354 0.31732 0.50288 0.0
C986 C 0.55807 0.31454 0.52759 0.0
C987 C 0.54636 0.29151 0.56466 0.0
C988 C 0.66536 0.22785 0.54801 0.0
C989 C 0.64674 0.19477 0.53911 0.0
C990 C 0.69002 0.23981 0.58133 0.0
C991 C 0.69749 0.21925 0.6064 0.0
H992 H 0.66037 0.2447 0.52997 0.0
H993 H 0.70302 0.26536 0.58809 0.0
S994 S 0.65744 0.13088 0.59418 0.0
N995 N 0.63837 0.14169 0.55665 0.0
N996 N 0.68519 0.16435 0.61903 0.0
C997 C 0.67994 0.18624 0.59668 0.0
C998 C 0.65438 0.17395 0.56319 0.0
C999 C 0.49872 0.15146 0.07934 0.0
C1000 C 0.53138 0.1617 0.0741 0.0
C1001 C 0.48772 0.16134 0.11826 0.0
C1002 C 0.50909 0.18165 0.15313 0.0
H1003 H 0.48192 0.13734 0.05183 0.0
H1004 H 0.46253 0.15397 0.12007 0.0
S1005 S 0.5969 0.21285 0.15617 0.0
N1006 N 0.5847 0.19153 0.10708 0.0
N1007 N 0.56442 0.2097 0.18091 0.0
C1008 C 0.54166 0.19044 0.14928 0.0
C1009 C 0.55272 0.18062 0.10946 0.0
C1010 C 0.81555 0.3296 0.07383 0.0
C1011 C 0.8032 0.34996 0.06466 0.0
C1012 C 0.80507 0.30912 0.11314 0.0
C1013 C 0.78227 0.30877 0.14463 0.0
H1014 H 0.83233 0.32853 0.04942 0.0
H1015 H 0.81455 0.29317 0.1185 0.0
S1016 S 0.74399 0.35912 0.13615 0.0
N1017 N 0.76795 0.36945 0.08977 0.0
N1018 N 0.74865 0.33175 0.16438 0.0
C1019 C 0.77072 0.33007 0.1364 0.0
C1020 C 0.78106 0.35045 0.0961 0.0
C1021 C 0.66602 0.48533 0.0432 0.0
C1022 C 0.66404 0.46259 0.01001 0.0
C1023 C 0.68738 0.4946 0.08144 0.0
C1024 C 0.70682 0.48088 0.08797 0.0
H1025 H 0.65082 0.49584 0.03981 0.0
H1026 H 0.6877 0.51149 0.10708 0.0
S1027 S 0.71144 0.42105 0.01113 0.0
N1028 N 0.68437 0.42751 0.98572 0.0
N1029 N 0.7236 0.44432 0.05835 0.0
C1030 C 0.70553 0.45866 0.0548 0.0
C1031 C 0.68437 0.44967 0.01554 0.0
C1032 C 0.47583 0.81973 0.91674 0.0
C1033 C 0.44276 0.80851 0.91833 0.0
C1034 C 0.48878 0.80814 0.88281 0.0
C1035 C 0.46913 0.78532 0.84896 0.0
H1036 H 0.49156 0.83624 0.94341 0.0
H1037 H 0.51425 0.81668 0.88372 0.0
S1038 S 0.38129 0.75135 0.83539 0.0
N1039 N 0.391 0.77544 0.88152 0.0
N1040 N 0.41505 0.75396 0.81717 0.0
C1041 C 0.43619 0.77535 0.84875 0.0
C1042 C 0.42308 0.78687 0.8836 0.0
C1043 C 0.17822 0.69287 0.88935 0.0
C1044 C 0.20662 0.69897 0.86648 0.0
C1045 C 0.16595 0.67128 0.92728 0.0
C1046 C 0.18221 0.65587 0.94413 0.0
H1047 H 0.16512 0.70439 0.87733 0.0
H1048 H 0.144 0.66713 0.94409 0.0
S1049 S 0.2578 0.66423 0.89679 0.0
N1050 N 0.25065 0.688 0.86334 0.0
N1051 N 0.22805 0.64812 0.93518 0.0
C1052 C 0.21076 0.66203 0.92177 0.0
C1053 C 0.22287 0.68344 0.88277 0.0
C1054 C 0.36159 0.5672 0.89721 0.0
C1055 C 0.36762 0.5457 0.92256 0.0
C1056 C 0.34015 0.55677 0.85933 0.0
C1057 C 0.3234 0.52432 0.84606 0.0
H1058 H 0.37328 0.59229 0.907 0.0
H1059 H 0.33605 0.57418 0.84114 0.0
S1060 S 0.33159 0.45854 0.89951 0.0
N1061 N 0.35614 0.49063 0.93042 0.0
N1062 N 0.31523 0.47093 0.8596 0.0
C1063 C 0.32961 0.50262 0.8704 0.0
C1064 C 0.35195 0.51335 0.9085 0.0
C1065 C 0.20526 0.55881 0.43424 0.0
C1066 C 0.17483 0.5414 0.45511 0.0
C1067 C 0.21268 0.54813 0.39281 0.0
C1068 C 0.19025 0.51924 0.37136 0.0
H1069 H 0.2233 0.58133 0.44938 0.0
H1070 H 0.23616 0.56274 0.37725 0.0
S1071 S 0.10777 0.46388 0.41308 0.0
N1072 N 0.12228 0.49344 0.45201 0.0
N1073 N 0.13673 0.47282 0.37435 0.0
C1074 C 0.16005 0.501 0.39248 0.0
C1075 C 0.15218 0.51229 0.43427 0.0
C1076 C 0.47102 0.66791 0.48305 0.0
C1077 C 0.48307 0.64689 0.48949 0.0
C1078 C 0.47894 0.68737 0.44301 0.0
C1079 C 0.49997 0.68727 0.40887 0.0
H1080 H 0.45368 0.66789 0.50746 0.0
H1081 H 0.46725 0.70133 0.43746 0.0
S1082 S 0.54148 0.64015 0.4118 0.0
N1083 N 0.51942 0.62945 0.46034 0.0
N1084 N 0.53496 0.66694 0.38544 0.0
C1085 C 0.51423 0.66844 0.41652 0.0
C1086 C 0.50562 0.64799 0.45682 0.0
C1087 C 0.34472 0.78608 0.45457 0.0
C1088 C 0.3599 0.81771 0.47158 0.0
C1089 C 0.32375 0.77678 0.41624 0.0
C1090 C 0.31651 0.79853 0.39435 0.0
H1091 H 0.34961 0.76849 0.47037 0.0
H1092 H 0.31317 0.75235 0.40351 0.0
S1093 S 0.34862 0.8837 0.42691 0.0
N1094 N 0.36576 0.87068 0.46452 0.0
N1095 N 0.32535 0.8528 0.3929 0.0
C1096 C 0.33074 0.83 0.41175 0.0
C1097 C 0.35278 0.83973 0.45022 0.0
C1098 C 0.30953 0.15078 0.1548 0.0
C1099 C 0.29138 0.16542 0.16603 0.0
C1100 C 0.3394 0.161 0.17557 0.0
C1101 C 0.35227 0.18612 0.20875 0.0
H1102 H 0.30066 0.13122 0.12964 0.0
H1103 H 0.35241 0.14895 0.16561 0.0
S1104 S 0.31445 0.23261 0.25039 0.0
N1105 N 0.28853 0.20651 0.21248 0.0
N1106 N 0.34466 0.22566 0.25167 0.0
C1107 C 0.33441 0.20102 0.22039 0.0
C1108 C 0.30402 0.19074 0.19895 0.0
C1109 C 0.85086 0.2029 0.16401 0.0
C1110 C 0.81855 0.18931 0.17728 0.0
C1111 C 0.86349 0.18374 0.14915 0.0
C1112 C 0.84437 0.15014 0.14687 0.0
H1113 H 0.86676 0.22858 0.1655 0.0
H1114 H 0.88862 0.19551 0.13981 0.0
S1115 S 0.7578 0.10255 0.17597 0.0
N1116 N 0.76732 0.14004 0.18584 0.0
N1117 N 0.79111 0.1041 0.15795 0.0
C1118 C 0.81185 0.1362 0.15931 0.0
C1119 C 0.79895 0.15574 0.17449 0.0
C1120 C 0.84301 0.64347 0.16923 0.0
C1121 C 0.80947 0.62945 0.17105 0.0
C1122 C 0.8627 0.6758 0.15756 0.0
C1123 C 0.84974 0.69554 0.14715 0.0
H1124 H 0.85431 0.62937 0.1766 0.0
H1125 H 0.88832 0.68525 0.15641 0.0
S1126 S 0.76337 0.67092 0.14819 0.0
N1127 N 0.76414 0.6381 0.16234 0.0
N1128 N 0.8011 0.69883 0.14041 0.0
C1129 C 0.81622 0.68197 0.1493 0.0
C1130 C 0.79613 0.64897 0.16125 0.0
C1131 C 0.18642 0.34315 0.26456 0.0
C1132 C 0.17315 0.36199 0.27905 0.0
C1133 C 0.17506 0.31224 0.28249 0.0
C1134 C 0.14972 0.29872 0.3153 0.0
H1135 H 0.20603 0.35242 0.23949 0.0
H1136 H 0.1862 0.29882 0.27023 0.0
S1137 S 0.10625 0.33781 0.36428 0.0
N1138 N 0.13301 0.36471 0.32805 0.0
N1139 N 0.11154 0.30655 0.36146 0.0
C1140 C 0.13601 0.31716 0.32986 0.0
C1141 C 0.14776 0.34878 0.31185 0.0
C1142 C 0.63832 0.83769 0.31785 0.0
C1143 C 0.63608 0.82033 0.27656 0.0
C1144 C 0.66803 0.86079 0.33586 0.0
C1145 C 0.69668 0.86703 0.31372 0.0
H1146 H 0.61694 0.8331 0.33692 0.0
H1147 H 0.66851 0.87294 0.36838 0.0
S1148 S 0.70402 0.82988 0.2028 0.0
N1149 N 0.66509 0.8124 0.21239 0.0
N1150 N 0.72103 0.85553 0.24669 0.0
C1151 C 0.69482 0.85066 0.27153 0.0
C1152 C 0.6645 0.82741 0.25279 0.0
C1153 C 0.18799 0.839 0.361 0.0
C1154 C 0.18386 0.83065 0.31271 0.0
C1155 C 0.17165 0.85292 0.38239 0.0
C1156 C 0.15047 0.85911 0.35644 0.0
H1157 H 0.20387 0.83462 0.38276 0.0
H1158 H 0.17559 0.85869 0.4197 0.0
S1159 S 0.13174 0.84258 0.22843 0.0
N1160 N 0.15738 0.83016 0.23928 0.0
N1161 N 0.12669 0.85629 0.2793 0.0
C1162 C 0.14628 0.85112 0.30795 0.0
C1163 C 0.16294 0.83691 0.28617 0.0
C1164 C 0.67634 0.82277 0.84858 0.0
C1165 C 0.69852 0.8558 0.84862 0.0
C1166 C 0.64465 0.81098 0.83433 0.0
C1167 C 0.63368 0.83167 0.81933 0.0
H1168 H 0.68346 0.80567 0.85937 0.0
H1169 H 0.62876 0.78527 0.83465 0.0
S1170 S 0.68189 0.92046 0.81408 0.0
N1171 N 0.7071 0.90928 0.83339 0.0
N1172 N 0.64746 0.88705 0.80648 0.0
C1173 C 0.65544 0.86486 0.81984 0.0
C1174 C 0.68783 0.87692 0.83449 0.0
C1175 C 0.16917 0.83383 0.81358 0.0
C1176 C 0.15877 0.80215 0.82777 0.0
C1177 C 0.15463 0.85069 0.83106 0.0
C1178 C 0.12934 0.83669 0.8639 0.0
H1179 H 0.1886 0.84574 0.78848 0.0
H1180 H 0.1635 0.875 0.81891 0.0
S1181 S 0.09331 0.75436 0.91293 0.0
N1182 N 0.12163 0.75741 0.87686 0.0
N1183 N 0.09447 0.78912 0.90994 0.0
C1184 C 0.11876 0.80504 0.87858 0.0
C1185 C 0.1334 0.78776 0.86044 0.0
C1186 C 0.19174 0.35615 0.82679 0.0
C1187 C 0.18444 0.35985 0.77984 0.0
C1188 C 0.17741 0.32606 0.84847 0.0
C1189 C 0.15512 0.29832 0.82421 0.0
H1190 H 0.20859 0.37669 0.84731 0.0
H1191 H 0.18376 0.32468 0.88477 0.0
S1192 S 0.12833 0.29462 0.70002 0.0
N1193 N 0.15385 0.33295 0.7093 0.0
N1194 N 0.1269 0.27634 0.75003 0.0
C1195 C 0.14778 0.30154 0.77702 0.0
C1196 C 0.16243 0.33228 0.75486 0.0
C1197 C 0.86324 0.67469 0.59321 0.0
C1198 C 0.85555 0.69553 0.61732 0.0
C1199 C 0.85108 0.64295 0.60794 0.0
C1200 C 0.83069 0.63067 0.64742 0.0
H1201 H 0.87856 0.68277 0.56229 0.0
H1202 H 0.85734 0.62782 0.58755 0.0
S1203 S 0.80464 0.67587 0.72473 0.0
N1204 N 0.82724 0.70195 0.68405 0.0
N1205 N 0.80444 0.64238 0.71174 0.0
C1206 C 0.82337 0.65145 0.6726 0.0
C1207 C 0.83574 0.68381 0.65754 0.0
C1208 C 0.31715 0.13516 0.65365 0.0
C1209 C 0.29521 0.1462 0.65009 0.0
C1210 C 0.34924 0.15596 0.6654 0.0
C1211 C 0.36086 0.18875 0.67418 0.0
H1212 H 0.3096 0.11021 0.6472 0.0
H1213 H 0.36504 0.14608 0.66751 0.0
S1214 S 0.31316 0.22987 0.67025 0.0
N1215 N 0.28736 0.19226 0.65681 0.0
N1216 N 0.34766 0.23124 0.67889 0.0
C1217 C 0.3392 0.20018 0.67089 0.0
C1218 C 0.30643 0.17896 0.65886 0.0
C1219 C 0.83498 0.15039 0.65771 0.0
C1220 C 0.82167 0.12578 0.62374 0.0
C1221 C 0.81801 0.16492 0.67462 0.0
C1222 C 0.78688 0.1553 0.65857 0.0
H1223 H 0.85886 0.15874 0.6713 0.0
H1224 H 0.8295 0.1839 0.70054 0.0
S1225 S 0.74079 0.09153 0.57021 0.0
N1226 N 0.7752 0.09214 0.57489 0.0
N1227 N 0.74327 0.11938 0.60682 0.0
C1228 C 0.7731 0.13051 0.62487 0.0
C1229 C 0.7905 0.11582 0.60738 0.0
C1230 C 0.00045 0.54155 0.54579 0.0
C1231 C 0.02056 0.52837 0.54066 0.0
C1232 C 0.96938 0.52609 0.52721 0.0
C1233 C 0.95708 0.49671 0.50311 0.0
H1234 H 0.00889 0.56427 0.56366 0.0
H1235 H 0.95494 0.53735 0.53181 0.0
S1236 S -0.00036 0.45144 0.48146 0.0
N1237 N 0.02563 0.4837 0.51065 0.0
N1238 N 0.96732 0.45467 0.47589 0.0
C1239 C 0.97675 0.48296 0.49839 0.0
C1240 C 0.00844 0.49878 0.51709 0.0
C1241 C 0.46978 0.4568 0.55678 0.0
C1242 C 0.48312 0.4895 0.54583 0.0
C1243 C 0.4818 0.43833 0.53672 0.0
C1244 C 0.50778 0.4518 0.50504 0.0
H1245 H 0.4496 0.44513 0.5807 0.0
H1246 H 0.47052 0.41324 0.54624 0.0
S1247 S 0.55186 0.53663 0.46526 0.0
N1248 N 0.52418 0.53477 0.50158 0.0
N1249 N 0.54679 0.50014 0.46401 0.0
C1250 C 0.52162 0.4846 0.4941 0.0
C1251 C 0.5093 0.5034 0.51444 0.0
C1252 C 0.50949 0.01755 0.50409 0.0
C1253 C 0.54225 0.03844 0.51248 0.0
C1254 C 0.49421 0.98587 0.52001 0.0
C1255 C 0.51095 0.97381 0.54547 0.0
H1256 H 0.49546 0.0256 0.48469 0.0
H1257 H 0.46894 0.97083 0.51252 0.0
S1258 S 0.59713 0.01888 0.5774 0.0
N1259 N 0.59105 0.04497 0.54812 0.0
N1260 N 0.56223 0.98535 0.57848 0.0
C1261 C 0.54374 0.99446 0.55437 0.0
C1262 C 0.55941 0.02676 0.53771 0.0
C1263 C 0.54466 -0.00061 0.94772 0.0
C1264 C 0.53868 0.02087 0.97348 0.0
C1265 C 0.53106 0.96721 0.96125 0.0
C1266 C 0.51092 0.95521 0.00107 0.0
H1267 H 0.55919 0.00718 0.91599 0.0
H1268 H 0.53553 0.95142 0.93928 0.0
S1269 S 0.49097 0.00247 0.08413 0.0
N1270 N 0.5136 0.02846 0.04338 0.0
N1271 N 0.48809 0.96809 0.06864 0.0
C1272 C 0.50603 0.97679 0.0285 0.0
C1273 C 0.51988 0.00955 0.01475 0.0
C1274 C 0.97795 0.52306 0.96332 0.0
C1275 C 0.95136 0.49997 0.9888 0.0
C1276 C 0.00803 0.54063 0.98473 0.0
C1277 C 0.01274 0.53587 0.03254 0.0
H1278 H 0.97585 0.52693 0.92608 0.0
H1279 H 0.02793 0.55737 0.96306 0.0
S1280 S 0.94986 0.48119 0.11654 0.0
N1281 N 0.93097 0.47541 0.0657 0.0
N1282 N 0.98747 0.5084 0.10586 0.0
C1283 C 0.98598 0.51401 0.05908 0.0
C1284 C 0.95533 0.49607 0.03725 0.0
C1285 C 0.51816 0.4805 0.01845 0.0
C1286 C 0.50431 0.46071 0.97866 0.0
C1287 C 0.5027 0.49451 0.0421 0.0
C1288 C 0.47277 0.48944 0.02689 0.0
H1289 H 0.54156 0.48592 0.03093 0.0
H1290 H 0.51492 0.51034 0.07156 0.0
S1291 S 0.42454 0.43693 0.92761 0.0
N1292 N 0.45763 0.43476 0.92735 0.0
N1293 N 0.42858 0.4611 0.97177 0.0
C1294 C 0.4579 0.46849 0.98852 0.0
C1295 C 0.47366 0.45416 0.96442 0.0
loop_
_geom_bond_atom_site_label_1
_geom_bond_atom_site_label_2
_geom_bond_distance
_geom_bond_site_symmetry_2
_ccdc_geom_bond_type
Zn0 O3 2.031 . S
Zn0 O5 2.049 . S
Zn0 O10 2.067 . S
Zn1 O2 1.962 . S
Zn1 O4 1.986 . S
Zn1 O6 1.996 . S
Zn1 O9 1.943 . S
O2 Zn1 1.962 . S
O2 C7 1.254 . S
O3 Zn0 2.031 . S
O3 C7 1.269 . S
O4 Zn1 1.986 . S
O4 C11 1.262 . S
O5 Zn0 2.049 . S
O5 C13 1.260 . S
O6 Zn1 1.996 . S
O6 C13 1.257 . S
C7 O2 1.254 . S
C7 O3 1.269 . S
C8 O9 1.249 . S
C8 O10 1.270 . S
O9 Zn1 1.943 . S
O9 C8 1.249 . S
O10 Zn0 2.067 . S
O10 C8 1.270 . S
C11 O4 1.262 . S
C11 O12 1.232 . S
O12 C11 1.232 . S
C13 O5 1.260 . S
C13 O6 1.257 . S
Zn14 O17 2.031 . S
Zn14 O19 2.049 . S
Zn14 O24 2.067 . S
Zn15 O16 1.962 . S
Zn15 O18 1.986 . S
Zn15 O20 1.996 . S
Zn15 O23 1.943 . S
O16 Zn15 1.962 . S
O16 C21 1.254 . S
O17 Zn14 2.031 . S
O17 C21 1.269 . S
O18 Zn15 1.986 . S
O18 C25 1.262 . S
O19 Zn14 2.049 . S
O19 C27 1.260 . S
O20 Zn15 1.996 . S
O20 C27 1.257 . S
C21 O16 1.254 . S
C21 O17 1.269 . S
C22 O23 1.249 . S
C22 O24 1.270 . S
O23 Zn15 1.943 . S
O23 C22 1.249 . S
O24 Zn14 2.067 . S
O24 C22 1.270 . S
C25 O18 1.262 . S
C25 O26 1.232 . S
O26 C25 1.232 . S
C27 O19 1.260 . S
C27 O20 1.257 . S
Zn28 O31 2.031 . S
Zn28 O33 2.049 . S
Zn28 O38 2.067 . S
Zn29 O30 1.962 . S
Zn29 O32 1.986 . S
Zn29 O34 1.996 . S
Zn29 O37 1.943 . S
O30 Zn29 1.962 . S
O30 C35 1.254 . S
O31 Zn28 2.031 . S
O31 C35 1.269 . S
O32 Zn29 1.986 . S
O32 C39 1.262 . S
O33 Zn28 2.049 . S
O33 C41 1.260 . S
O34 Zn29 1.996 . S
O34 C41 1.257 . S
C35 O30 1.254 . S
C35 O31 1.269 . S
C36 O37 1.249 . S
C36 O38 1.270 . S
O37 Zn29 1.943 . S
O37 C36 1.249 . S
O38 Zn28 2.067 . S
O38 C36 1.270 . S
C39 O32 1.262 . S
C39 O40 1.232 . S
O40 C39 1.232 . S
C41 O33 1.260 . S
C41 O34 1.257 . S
Zn42 O45 2.031 . S
Zn42 O47 2.049 . S
Zn42 O52 2.067 . S
Zn43 O44 1.962 . S
Zn43 O46 1.986 . S
Zn43 O48 1.996 . S
Zn43 O51 1.943 . S
O44 Zn43 1.962 . S
O44 C49 1.254 . S
O45 Zn42 2.031 . S
O45 C49 1.269 . S
O46 Zn43 1.986 . S
O46 C53 1.262 . S
O47 Zn42 2.049 . S
O47 C55 1.260 . S
O48 Zn43 1.996 . S
O48 C55 1.257 . S
C49 O44 1.254 . S
C49 O45 1.269 . S
C50 O51 1.249 . S
C50 O52 1.270 . S
O51 Zn43 1.943 . S
O51 C50 1.249 . S
O52 Zn42 2.067 . S
O52 C50 1.270 . S
C53 O46 1.262 . S
C53 O54 1.232 . S
O54 C53 1.232 . S
C55 O47 1.260 . S
C55 O48 1.257 . S
Zn56 O59 2.031 . S
Zn56 O61 2.049 . S
Zn56 O66 2.067 . S
Zn57 O58 1.962 . S
Zn57 O60 1.986 . S
Zn57 O62 1.996 . S
Zn57 O65 1.943 . S
O58 Zn57 1.962 . S
O58 C63 1.254 . S
O59 Zn56 2.031 . S
O59 C63 1.269 . S
O60 Zn57 1.986 . S
O60 C67 1.262 . S
O61 Zn56 2.049 . S
O61 C69 1.260 . S
O62 Zn57 1.996 . S
O62 C69 1.257 . S
C63 O58 1.254 . S
C63 O59 1.269 . S
C64 O65 1.249 . S
C64 O66 1.270 . S
O65 Zn57 1.943 . S
O65 C64 1.249 . S
O66 Zn56 2.067 . S
O66 C64 1.270 . S
C67 O60 1.262 . S
C67 O68 1.232 . S
O68 C67 1.232 . S
C69 O61 1.260 . S
C69 O62 1.257 . S
Zn70 O73 2.031 . S
Zn70 O75 2.049 . S
Zn70 O80 2.067 . S
Zn71 O72 1.962 . S
Zn71 O74 1.986 . S
Zn71 O76 1.996 . S
Zn71 O79 1.943 . S
O72 Zn71 1.962 . S
O72 C77 1.254 . S
O73 Zn70 2.031 . S
O73 C77 1.269 . S
O74 Zn71 1.986 . S
O74 C81 1.262 . S
O75 Zn70 2.049 . S
O75 C83 1.260 . S
O76 Zn71 1.996 . S
O76 C83 1.257 . S
C77 O72 1.254 . S
C77 O73 1.269 . S
C78 O79 1.249 . S
C78 O80 1.270 . S
O79 Zn71 1.943 . S
O79 C78 1.249 . S
O80 Zn70 2.067 . S
O80 C78 1.270 . S
C81 O74 1.262 . S
C81 O82 1.232 . S
O82 C81 1.232 . S
C83 O75 1.260 . S
C83 O76 1.257 . S
Zn84 O87 2.031 . S
Zn84 O89 2.049 . S
Zn84 O94 2.067 . S
Zn85 O86 1.962 . S
Zn85 O88 1.986 . S
Zn85 O90 1.996 . S
Zn85 O93 1.943 . S
O86 Zn85 1.962 . S
O86 C91 1.254 . S
O87 Zn84 2.031 . S
O87 C91 1.269 . S
O88 Zn85 1.986 . S
O88 C95 1.262 . S
O89 Zn84 2.049 . S
O89 C97 1.260 . S
O90 Zn85 1.996 . S
O90 C97 1.257 . S
C91 O86 1.254 . S
C91 O87 1.269 . S
C92 O93 1.249 . S
C92 O94 1.270 . S
O93 Zn85 1.943 . S
O93 C92 1.249 . S
O94 Zn84 2.067 . S
O94 C92 1.270 . S
C95 O88 1.262 . S
C95 O96 1.232 . S
O96 C95 1.232 . S
C97 O89 1.260 . S
C97 O90 1.257 . S
Zn98 O101 2.031 . S
Zn98 O103 2.049 . S
Zn98 O108 2.067 . S
Zn99 O100 1.962 . S
Zn99 O102 1.986 . S
Zn99 O104 1.996 . S
Zn99 O107 1.943 . S
O100 Zn99 1.962 . S
O100 C105 1.254 . S
O101 Zn98 2.031 . S
O101 C105 1.269 . S
O102 Zn99 1.986 . S
O102 C109 1.262 . S
O103 Zn98 2.049 . S
O103 C111 1.260 . S
O104 Zn99 1.996 . S
O104 C111 1.257 . S
C105 O100 1.254 . S
C105 O101 1.269 . S
C106 O107 1.249 . S
C106 O108 1.270 . S
O107 Zn99 1.943 . S
O107 C106 1.249 . S
O108 Zn98 2.067 . S
O108 C106 1.270 . S
C109 O102 1.262 . S
C109 O110 1.232 . S
O110 C109 1.232 . S
C111 O103 1.260 . S
C111 O104 1.257 . S
Zn112 O115 2.031 . S
Zn112 O117 2.049 . S
Zn112 O122 2.067 . S
Zn113 O114 1.962 . S
Zn113 O116 1.986 . S
Zn113 O118 1.996 . S
Zn113 O121 1.943 . S
O114 Zn113 1.962 . S
O114 C119 1.254 . S
O115 Zn112 2.031 . S
O115 C119 1.269 . S
O116 Zn113 1.986 . S
O116 C123 1.262 . S
O117 Zn112 2.049 . S
O117 C125 1.260 . S
O118 Zn113 1.996 . S
O118 C125 1.257 . S
C119 O114 1.254 . S
C119 O115 1.269 . S
C120 O121 1.249 . S
C120 O122 1.270 . S
O121 Zn113 1.943 . S
O121 C120 1.249 . S
O122 Zn112 2.067 . S
O122 C120 1.270 . S
C123 O116 1.262 . S
C123 O124 1.232 . S
O124 C123 1.232 . S
C125 O117 1.260 . S
C125 O118 1.257 . S
Zn126 O129 2.031 . S
Zn126 O131 2.049 . S
Zn126 O136 2.067 . S
Zn127 O128 1.962 . S
Zn127 O130 1.986 . S
Zn127 O132 1.996 . S
Zn127 O135 1.943 . S
O128 Zn127 1.962 . S
O128 C133 1.254 . S
O129 Zn126 2.031 . S
O129 C133 1.269 . S
O130 Zn127 1.986 . S
O130 C137 1.262 . S
O131 Zn126 2.049 . S
O131 C139 1.260 . S
O132 Zn127 1.996 . S
O132 C139 1.257 . S
C133 O128 1.254 . S
C133 O129 1.269 . S
C134 O135 1.249 . S
C134 O136 1.270 . S
O135 Zn127 1.943 . S
O135 C134 1.249 . S
O136 Zn126 2.067 . S
O136 C134 1.270 . S
C137 O130 1.262 . S
C137 O138 1.232 . S
O138 C137 1.232 . S
C139 O131 1.260 . S
C139 O132 1.257 . S
Zn140 O143 2.031 . S
Zn140 O145 2.049 . S
Zn140 O150 2.067 . S
Zn141 O142 1.962 . S
Zn141 O144 1.986 . S
Zn141 O146 1.996 . S
Zn141 O149 1.943 . S
O142 Zn141 1.962 . S
O142 C147 1.254 . S
O143 Zn140 2.031 . S
O143 C147 1.269 . S
O144 Zn141 1.986 . S
O144 C151 1.262 . S
O145 Zn140 2.049 . S
O145 C153 1.260 . S
O146 Zn141 1.996 . S
O146 C153 1.257 . S
C147 O142 1.254 . S
C147 O143 1.269 . S
C148 O149 1.249 . S
C148 O150 1.270 . S
O149 Zn141 1.943 . S
O149 C148 1.249 . S
O150 Zn140 2.067 . S
O150 C148 1.270 . S
C151 O144 1.262 . S
C151 O152 1.232 . S
O152 C151 1.232 . S
C153 O145 1.260 . S
C153 O146 1.257 . S
Zn154 O157 2.031 . S
Zn154 O159 2.049 . S
Zn154 O164 2.067 . S
Zn155 O156 1.962 . S
Zn155 O158 1.986 . S
Zn155 O160 1.996 . S
Zn155 O163 1.943 . S
O156 Zn155 1.962 . S
O156 C161 1.254 . S
O157 Zn154 2.031 . S
O157 C161 1.269 . S
O158 Zn155 1.986 . S
O158 C165 1.262 . S
O159 Zn154 2.049 . S
O159 C167 1.260 . S
O160 Zn155 1.996 . S
O160 C167 1.257 . S
C161 O156 1.254 . S
C161 O157 1.269 . S
C162 O163 1.249 . S
C162 O164 1.270 . S
O163 Zn155 1.943 . S
O163 C162 1.249 . S
O164 Zn154 2.067 . S
O164 C162 1.270 . S
C165 O158 1.262 . S
C165 O166 1.232 . S
O166 C165 1.232 . S
C167 O159 1.260 . S
C167 O160 1.257 . S
Zn168 O171 2.031 . S
Zn168 O173 2.049 . S
Zn168 O178 2.067 . S
Zn169 O170 1.962 . S
Zn169 O172 1.986 . S
Zn169 O174 1.996 . S
Zn169 O177 1.943 . S
O170 Zn169 1.962 . S
O170 C175 1.254 . S
O171 Zn168 2.031 . S
O171 C175 1.269 . S
O172 Zn169 1.986 . S
O172 C179 1.262 . S
O173 Zn168 2.049 . S
O173 C181 1.260 . S
O174 Zn169 1.996 . S
O174 C181 1.257 . S
C175 O170 1.254 . S
C175 O171 1.269 . S
C176 O177 1.249 . S
C176 O178 1.270 . S
O177 Zn169 1.943 . S
O177 C176 1.249 . S
O178 Zn168 2.067 . S
O178 C176 1.270 . S
C179 O172 1.262 . S
C179 O180 1.232 . S
O180 C179 1.232 . S
C181 O173 1.260 . S
C181 O174 1.257 . S
Zn182 O185 2.031 . S
Zn182 O187 2.049 . S
Zn182 O192 2.067 . S
Zn183 O184 1.962 . S
Zn183 O186 1.986 . S
Zn183 O188 1.996 . S
Zn183 O191 1.943 . S
O184 Zn183 1.962 . S
O184 C189 1.254 . S
O185 Zn182 2.031 . S
O185 C189 1.269 . S
O186 Zn183 1.986 . S
O186 C193 1.262 . S
O187 Zn182 2.049 . S
O187 C195 1.260 . S
O188 Zn183 1.996 . S
O188 C195 1.257 . S
C189 O184 1.254 . S
C189 O185 1.269 . S
C190 O191 1.249 . S
C190 O192 1.270 . S
O191 Zn183 1.943 . S
O191 C190 1.249 . S
O192 Zn182 2.067 . S
O192 C190 1.270 . S
C193 O186 1.262 . S
C193 O194 1.232 . S
O194 C193 1.232 . S
C195 O187 1.260 . S
C195 O188 1.257 . S
Zn196 O199 2.031 . S
Zn196 O201 2.049 . S
Zn196 O206 2.067 . S
Zn197 O198 1.962 . S
Zn197 O200 1.986 . S
Zn197 O202 1.996 . S
Zn197 O205 1.943 . S
O198 Zn197 1.962 . S
O198 C203 1.254 . S
O199 Zn196 2.031 . S
O199 C203 1.269 . S
O200 Zn197 1.986 . S
O200 C207 1.262 . S
O201 Zn196 2.049 . S
O201 C209 1.260 . S
O202 Zn197 1.996 . S
O202 C209 1.257 . S
C203 O198 1.254 . S
C203 O199 1.269 . S
C204 O205 1.249 . S
C204 O206 1.270 . S
O205 Zn197 1.943 . S
O205 C204 1.249 . S
O206 Zn196 2.067 . S
O206 C204 1.270 . S
C207 O200 1.262 . S
C207 O208 1.232 . S
O208 C207 1.232 . S
C209 O201 1.260 . S
C209 O202 1.257 . S
Zn210 O213 2.031 . S
Zn210 O215 2.049 . S
Zn210 O220 2.067 . S
Zn211 O212 1.962 . S
Zn211 O214 1.986 . S
Zn211 O216 1.996 . S
Zn211 O219 1.943 . S
O212 Zn211 1.962 . S
O212 C217 1.254 . S
O213 Zn210 2.031 . S
O213 C217 1.269 . S
O214 Zn211 1.986 . S
O214 C221 1.262 . S
O215 Zn210 2.049 . S
O215 C223 1.260 . S
O216 Zn211 1.996 . S
O216 C223 1.257 . S
C217 O212 1.254 . S
C217 O213 1.269 . S
C218 O219 1.249 . S
C218 O220 1.270 . S
O219 Zn211 1.943 . S
O219 C218 1.249 . S
O220 Zn210 2.067 . S
O220 C218 1.270 . S
C221 O214 1.262 . S
C221 O222 1.232 . S
O222 C221 1.232 . S
C223 O215 1.260 . S
C223 O216 1.257 . S
Zn224 O227 2.031 . S
Zn224 O229 2.049 . S
Zn224 O234 2.067 . S
Zn225 O226 1.962 . S
Zn225 O228 1.986 . S
Zn225 O230 1.996 . S
Zn225 O233 1.943 . S
O226 Zn225 1.962 . S
O226 C231 1.254 . S
O227 Zn224 2.031 . S
O227 C231 1.269 . S
O228 Zn225 1.986 . S
O228 C235 1.262 . S
O229 Zn224 2.049 . S
O229 C237 1.260 . S
O230 Zn225 1.996 . S
O230 C237 1.257 . S
C231 O226 1.254 . S
C231 O227 1.269 . S
C232 O233 1.249 . S
C232 O234 1.270 . S
O233 Zn225 1.943 . S
O233 C232 1.249 . S
O234 Zn224 2.067 . S
O234 C232 1.270 . S
C235 O228 1.262 . S
C235 O236 1.232 . S
O236 C235 1.232 . S
C237 O229 1.260 . S
C237 O230 1.257 . S
Zn238 O241 2.031 . S
Zn238 O243 2.049 . S
Zn238 O248 2.067 . S
Zn239 O240 1.962 . S
Zn239 O242 1.986 . S
Zn239 O244 1.996 . S
Zn239 O247 1.943 . S
O240 Zn239 1.962 . S
O240 C245 1.254 . S
O241 Zn238 2.031 . S
O241 C245 1.269 . S
O242 Zn239 1.986 . S
O242 C249 1.262 . S
O243 Zn238 2.049 . S
O243 C251 1.260 . S
O244 Zn239 1.996 . S
O244 C251 1.257 . S
C245 O240 1.254 . S
C245 O241 1.269 . S
C246 O247 1.249 . S
C246 O248 1.270 . S
O247 Zn239 1.943 . S
O247 C246 1.249 . S
O248 Zn238 2.067 . S
O248 C246 1.270 . S
C249 O242 1.262 . S
C249 O250 1.232 . S
O250 C249 1.232 . S
C251 O243 1.260 . S
C251 O244 1.257 . S
Zn252 O255 2.031 . S
Zn252 O257 2.049 . S
Zn252 O262 2.067 . S
Zn253 O254 1.962 . S
Zn253 O256 1.986 . S
Zn253 O258 1.996 . S
Zn253 O261 1.943 . S
O254 Zn253 1.962 . S
O254 C259 1.254 . S
O255 Zn252 2.031 . S
O255 C259 1.269 . S
O256 Zn253 1.986 . S
O256 C263 1.262 . S
O257 Zn252 2.049 . S
O257 C265 1.260 . S
O258 Zn253 1.996 . S
O258 C265 1.257 . S
C259 O254 1.254 . S
C259 O255 1.269 . S
C260 O261 1.249 . S
C260 O262 1.270 . S
O261 Zn253 1.943 . S
O261 C260 1.249 . S
O262 Zn252 2.067 . S
O262 C260 1.270 . S
C263 O256 1.262 . S
C263 O264 1.232 . S
O264 C263 1.232 . S
C265 O257 1.260 . S
C265 O258 1.257 . S
Zn266 O269 2.031 . S
Zn266 O271 2.049 . S
Zn266 O276 2.067 . S
Zn267 O268 1.962 . S
Zn267 O270 1.986 . S
Zn267 O272 1.996 . S
Zn267 O275 1.943 . S
O268 Zn267 1.962 . S
O268 C273 1.254 . S
O269 Zn266 2.031 . S
O269 C273 1.269 . S
O270 Zn267 1.986 . S
O270 C277 1.262 . S
O271 Zn266 2.049 . S
O271 C279 1.260 . S
O272 Zn267 1.996 . S
O272 C279 1.257 . S
C273 O268 1.254 . S
C273 O269 1.269 . S
C274 O275 1.249 . S
C274 O276 1.270 . S
O275 Zn267 1.943 . S
O275 C274 1.249 . S
O276 Zn266 2.067 . S
O276 C274 1.270 . S
C277 O270 1.262 . S
C277 O278 1.232 . S
O278 C277 1.232 . S
C279 O271 1.260 . S
C279 O272 1.257 . S
Zn280 O283 2.031 . S
Zn280 O285 2.049 . S
Zn280 O290 2.067 . S
Zn281 O282 1.962 . S
Zn281 O284 1.986 . S
Zn281 O286 1.996 . S
Zn281 O289 1.943 . S
O282 Zn281 1.962 . S
O282 C287 1.254 . S
O283 Zn280 2.031 . S
O283 C287 1.269 . S
O284 Zn281 1.986 . S
O284 C291 1.262 . S
O285 Zn280 2.049 . S
O285 C293 1.260 . S
O286 Zn281 1.996 . S
O286 C293 1.257 . S
C287 O282 1.254 . S
C287 O283 1.269 . S
C288 O289 1.249 . S
C288 O290 1.270 . S
O289 Zn281 1.943 . S
O289 C288 1.249 . S
O290 Zn280 2.067 . S
O290 C288 1.270 . S
C291 O284 1.262 . S
C291 O292 1.232 . S
O292 C291 1.232 . S
C293 O285 1.260 . S
C293 O286 1.257 . S
Zn294 O297 2.031 . S
Zn294 O299 2.049 1_556 S
Zn294 O304 2.067 . S
Zn295 O296 1.962 . S
Zn295 O298 1.986 . S
Zn295 O300 2.011 . S
Zn295 O303 1.943 . S
O296 Zn295 1.962 . S
O296 C301 1.254 . S
O297 Zn294 2.031 . S
O297 C301 1.269 . S
O298 Zn295 1.986 . S
O298 C305 1.262 . S
O299 Zn294 2.049 1_554 S
O299 C307 1.260 . S
O300 Zn295 2.011 . S
O300 C307 1.246 1_556 S
C301 O296 1.254 . S
C301 O297 1.269 . S
C302 O303 1.249 . S
C302 O304 1.270 . S
O303 Zn295 1.943 . S
O303 C302 1.249 . S
O304 Zn294 2.067 . S
O304 C302 1.270 . S
C305 O298 1.262 . S
C305 O306 1.232 . S
O306 C305 1.232 . S
C307 O299 1.260 . S
C307 O300 1.246 1_554 S
Zn308 O311 2.031 . S
Zn308 O313 2.049 1_556 S
Zn308 O318 2.067 . S
Zn309 O310 1.962 . S
Zn309 O312 1.986 . S
Zn309 O314 2.011 . S
Zn309 O317 1.943 . S
O310 Zn309 1.962 . S
O310 C315 1.254 . S
O311 Zn308 2.031 . S
O311 C315 1.269 . S
O312 Zn309 1.986 . S
O312 C319 1.262 . S
O313 Zn308 2.049 1_554 S
O313 C321 1.260 . S
O314 Zn309 2.011 . S
O314 C321 1.247 1_556 S
C315 O310 1.254 . S
C315 O311 1.269 . S
C316 O317 1.249 . S
C316 O318 1.270 . S
O317 Zn309 1.943 . S
O317 C316 1.249 . S
O318 Zn308 2.067 . S
O318 C316 1.270 . S
C319 O312 1.262 . S
C319 O320 1.232 . S
O320 C319 1.232 . S
C321 O313 1.260 . S
C321 O314 1.247 1_554 S
Zn322 O325 2.031 . S
Zn322 O327 2.049 1_556 S
Zn322 O332 2.067 . S
Zn323 O324 1.962 . S
Zn323 O326 1.986 . S
Zn323 O328 2.011 . S
Zn323 O331 1.943 . S
O324 Zn323 1.962 . S
O324 C329 1.254 . S
O325 Zn322 2.031 . S
O325 C329 1.269 . S
O326 Zn323 1.986 . S
O326 C333 1.262 . S
O327 Zn322 2.049 1_554 S
O327 C335 1.260 . S
O328 Zn323 2.011 . S
O328 C335 1.246 1_556 S
C329 O324 1.254 . S
C329 O325 1.269 . S
C330 O331 1.249 . S
C330 O332 1.270 . S
O331 Zn323 1.943 . S
O331 C330 1.249 . S
O332 Zn322 2.067 . S
O332 C330 1.270 . S
C333 O326 1.262 . S
C333 O334 1.232 . S
O334 C333 1.232 . S
C335 O327 1.260 . S
C335 O328 1.246 1_554 S
Zn336 O339 2.031 . S
Zn336 O341 2.049 . S
Zn336 O346 2.067 . S
Zn337 O338 1.962 . S
Zn337 O340 1.986 . S
Zn337 O342 1.996 . S
Zn337 O345 1.943 . S
O338 Zn337 1.962 . S
O338 C343 1.254 . S
O339 Zn336 2.031 . S
O339 C343 1.269 . S
O340 Zn337 1.986 . S
O340 C347 1.262 . S
O341 Zn336 2.049 . S
O341 C349 1.260 . S
O342 Zn337 1.996 . S
O342 C349 1.257 . S
C343 O338 1.254 . S
C343 O339 1.269 . S
C344 O345 1.249 . S
C344 O346 1.270 . S
O345 Zn337 1.943 . S
O345 C344 1.249 . S
O346 Zn336 2.067 . S
O346 C344 1.270 . S
C347 O340 1.262 . S
C347 O348 1.232 . S
O348 C347 1.232 . S
C349 O341 1.260 . S
C349 O342 1.257 . S
Zn350 O353 2.031 . S
Zn350 O355 2.049 . S
Zn350 O360 2.067 . S
Zn351 O352 1.962 . S
Zn351 O354 1.986 . S
Zn351 O356 1.996 . S
Zn351 O359 1.943 . S
O352 Zn351 1.962 . S
O352 C357 1.254 . S
O353 Zn350 2.031 . S
O353 C357 1.269 . S
O354 Zn351 1.986 . S
O354 C361 1.262 . S
O355 Zn350 2.049 . S
O355 C363 1.260 . S
O356 Zn351 1.996 . S
O356 C363 1.257 . S
C357 O352 1.254 . S
C357 O353 1.269 . S
C358 O359 1.249 . S
C358 O360 1.270 . S
O359 Zn351 1.943 . S
O359 C358 1.249 . S
O360 Zn350 2.067 . S
O360 C358 1.270 . S
C361 O354 1.262 . S
C361 O362 1.232 . S
O362 C361 1.232 . S
C363 O355 1.260 . S
C363 O356 1.257 . S
Zn364 O367 2.031 . S
Zn364 O369 2.049 . S
Zn364 O374 2.067 . S
Zn365 O366 1.962 . S
Zn365 O368 1.986 . S
Zn365 O370 1.996 . S
Zn365 O373 1.943 . S
O366 Zn365 1.962 . S
O366 C371 1.254 . S
O367 Zn364 2.031 . S
O367 C371 1.269 . S
O368 Zn365 1.986 . S
O368 C375 1.262 . S
O369 Zn364 2.049 . S
O369 C377 1.260 . S
O370 Zn365 1.996 . S
O370 C377 1.257 . S
C371 O366 1.254 . S
C371 O367 1.269 . S
C372 O373 1.249 . S
C372 O374 1.270 . S
O373 Zn365 1.943 . S
O373 C372 1.249 . S
O374 Zn364 2.067 . S
O374 C372 1.270 . S
C375 O368 1.262 . S
C375 O376 1.232 . S
O376 C375 1.232 . S
C377 O369 1.260 . S
C377 O370 1.257 . S
Zn378 O381 2.031 . S
Zn378 O383 2.049 . S
Zn378 O388 2.067 . S
Zn379 O380 1.962 1_554 S
Zn379 O382 1.986 . S
Zn379 O384 1.996 . S
Zn379 O387 1.943 . S
O380 Zn379 1.962 1_556 S
O380 C385 1.254 . S
O381 Zn378 2.031 . S
O381 C385 1.269 1_554 S
O382 Zn379 1.986 . S
O382 C389 1.262 . S
O383 Zn378 2.049 . S
O383 C391 1.260 . S
O384 Zn379 1.996 . S
O384 C391 1.257 . S
C385 O380 1.254 . S
C385 O381 1.269 1_556 S
C386 O387 1.249 . S
C386 O388 1.270 . S
O387 Zn379 1.943 . S
O387 C386 1.249 . S
O388 Zn378 2.067 . S
O388 C386 1.270 . S
C389 O382 1.262 . S
C389 O390 1.232 . S
O390 C389 1.232 . S
C391 O383 1.260 . S
C391 O384 1.257 . S
Zn392 O395 2.031 . S
Zn392 O397 2.049 . S
Zn392 O402 2.067 . S
Zn393 O394 1.962 1_554 S
Zn393 O396 1.986 . S
Zn393 O398 1.996 . S
Zn393 O401 1.943 . S
O394 Zn393 1.962 1_556 S
O394 C399 1.254 . S
O395 Zn392 2.031 . S
O395 C399 1.269 1_554 S
O396 Zn393 1.986 . S
O396 C403 1.262 . S
O397 Zn392 2.049 . S
O397 C405 1.260 . S
O398 Zn393 1.996 . S
O398 C405 1.257 . S
C399 O394 1.254 . S
C399 O395 1.269 1_556 S
C400 O401 1.249 . S
C400 O402 1.270 . S
O401 Zn393 1.943 . S
O401 C400 1.249 . S
O402 Zn392 2.067 . S
O402 C400 1.270 . S
C403 O396 1.262 . S
C403 O404 1.232 . S
O404 C403 1.232 . S
C405 O397 1.260 . S
C405 O398 1.257 . S
Zn406 O409 2.031 . S
Zn406 O411 2.049 . S
Zn406 O416 2.067 . S
Zn407 O408 1.962 1_554 S
Zn407 O410 1.986 . S
Zn407 O412 1.996 . S
Zn407 O415 1.943 . S
O408 Zn407 1.962 1_556 S
O408 C413 1.254 . S
O409 Zn406 2.031 . S
O409 C413 1.269 1_554 S
O410 Zn407 1.986 . S
O410 C417 1.262 . S
O411 Zn406 2.049 . S
O411 C419 1.260 . S
O412 Zn407 1.996 . S
O412 C419 1.257 . S
C413 O408 1.254 . S
C413 O409 1.269 1_556 S
C414 O415 1.249 . S
C414 O416 1.270 . S
O415 Zn407 1.943 . S
O415 C414 1.249 . S
O416 Zn406 2.067 . S
O416 C414 1.270 . S
C417 O410 1.262 . S
C417 O418 1.232 . S
O418 C417 1.232 . S
C419 O411 1.260 . S
C419 O412 1.257 . S
Zn420 O423 2.031 . S
Zn420 O425 2.049 . S
Zn420 O430 2.067 . S
Zn421 O422 1.962 . S
Zn421 O424 1.986 . S
Zn421 O426 1.996 . S
Zn421 O429 1.943 . S
O422 Zn421 1.962 . S
O422 C427 1.254 . S
O423 Zn420 2.031 . S
O423 C427 1.269 . S
O424 Zn421 1.986 . S
O424 C431 1.262 . S
O425 Zn420 2.049 . S
O425 C433 1.260 . S
O426 Zn421 1.996 . S
O426 C433 1.257 . S
C427 O422 1.254 . S
C427 O423 1.269 . S
C428 O429 1.249 . S
C428 O430 1.270 . S
O429 Zn421 1.943 . S
O429 C428 1.249 . S
O430 Zn420 2.067 . S
O430 C428 1.270 . S
C431 O424 1.262 . S
C431 O432 1.232 . S
O432 C431 1.232 . S
C433 O425 1.260 . S
C433 O426 1.257 . S
Zn434 O437 2.031 . S
Zn434 O439 2.049 . S
Zn434 O444 2.067 . S
Zn435 O436 1.962 . S
Zn435 O438 1.986 . S
Zn435 O440 1.996 . S
Zn435 O443 1.943 . S
O436 Zn435 1.962 . S
O436 C441 1.254 . S
O437 Zn434 2.031 . S
O437 C441 1.269 . S
O438 Zn435 1.986 . S
O438 C445 1.262 . S
O439 Zn434 2.049 . S
O439 C447 1.260 . S
O440 Zn435 1.996 . S
O440 C447 1.257 . S
C441 O436 1.254 . S
C441 O437 1.269 . S
C442 O443 1.249 . S
C442 O444 1.270 . S
O443 Zn435 1.943 . S
O443 C442 1.249 . S
O444 Zn434 2.067 . S
O444 C442 1.270 . S
C445 O438 1.262 . S
C445 O446 1.232 . S
O446 C445 1.232 . S
C447 O439 1.260 . S
C447 O440 1.257 . S
Zn448 O451 2.031 . S
Zn448 O453 2.049 . S
Zn448 O458 2.067 . S
Zn449 O450 1.962 . S
Zn449 O452 1.986 . S
Zn449 O454 1.996 . S
Zn449 O457 1.943 . S
O450 Zn449 1.962 . S
O450 C455 1.254 . S
O451 Zn448 2.031 . S
O451 C455 1.269 . S
O452 Zn449 1.986 . S
O452 C459 1.262 . S
O453 Zn448 2.049 . S
O453 C461 1.260 . S
O454 Zn449 1.996 . S
O454 C461 1.257 . S
C455 O450 1.254 . S
C455 O451 1.269 . S
C456 O457 1.249 . S
C456 O458 1.270 . S
O457 Zn449 1.943 . S
O457 C456 1.249 . S
O458 Zn448 2.067 . S
O458 C456 1.270 . S
C459 O452 1.262 . S
C459 O460 1.232 . S
O460 C459 1.232 . S
C461 O453 1.260 . S
C461 O454 1.257 . S
Zn462 O465 2.031 . S
Zn462 O467 2.049 . S
Zn462 O472 2.067 . S
Zn463 O464 1.962 . S
Zn463 O466 1.986 . S
Zn463 O468 1.996 . S
Zn463 O471 1.943 . S
O464 Zn463 1.962 . S
O464 C469 1.254 . S
O465 Zn462 2.031 . S
O465 C469 1.269 . S
O466 Zn463 1.986 . S
O466 C473 1.262 . S
O467 Zn462 2.049 . S
O467 C475 1.260 . S
O468 Zn463 1.996 . S
O468 C475 1.257 . S
C469 O464 1.254 . S
C469 O465 1.269 . S
C470 O471 1.249 . S
C470 O472 1.270 . S
O471 Zn463 1.943 . S
O471 C470 1.249 . S
O472 Zn462 2.067 . S
O472 C470 1.270 . S
C473 O466 1.262 . S
C473 O474 1.232 . S
O474 C473 1.232 . S
C475 O467 1.260 . S
C475 O468 1.257 . S
Zn476 O479 2.031 . S
Zn476 O481 2.049 . S
Zn476 O486 2.067 . S
Zn477 O478 1.962 . S
Zn477 O480 1.986 . S
Zn477 O482 1.996 . S
Zn477 O485 1.943 . S
O478 Zn477 1.962 . S
O478 C483 1.254 . S
O479 Zn476 2.031 . S
O479 C483 1.269 . S
O480 Zn477 1.986 . S
O480 C487 1.262 . S
O481 Zn476 2.049 . S
O481 C489 1.260 . S
O482 Zn477 1.996 . S
O482 C489 1.257 . S
C483 O478 1.254 . S
C483 O479 1.269 . S
C484 O485 1.249 . S
C484 O486 1.270 . S
O485 Zn477 1.943 . S
O485 C484 1.249 . S
O486 Zn476 2.067 . S
O486 C484 1.270 . S
C487 O480 1.262 . S
C487 O488 1.232 . S
O488 C487 1.232 . S
C489 O481 1.260 . S
C489 O482 1.257 . S
Zn490 O493 2.031 . S
Zn490 O495 2.049 . S
Zn490 O500 2.067 . S
Zn491 O492 1.962 . S
Zn491 O494 1.986 . S
Zn491 O496 1.996 . S
Zn491 O499 1.943 . S
O492 Zn491 1.962 . S
O492 C497 1.254 . S
O493 Zn490 2.031 . S
O493 C497 1.269 . S
O494 Zn491 1.986 . S
O494 C501 1.262 . S
O495 Zn490 2.049 . S
O495 C503 1.260 . S
O496 Zn491 1.996 . S
O496 C503 1.257 . S
C497 O492 1.254 . S
C497 O493 1.269 . S
C498 O499 1.249 . S
C498 O500 1.270 . S
O499 Zn491 1.943 . S
O499 C498 1.249 . S
O500 Zn490 2.067 . S
O500 C498 1.270 . S
C501 O494 1.262 . S
C501 O502 1.232 . S
O502 C501 1.232 . S
C503 O495 1.260 . S
C503 O496 1.257 . S
C504 C505 1.369 . S
C504 C506 1.419 1_554 S
C504 H508 0.930 . S
C505 C504 1.369 . S
C505 C514 1.429 1_545 S
C506 C504 1.419 1_556 S
C506 C507 1.363 1_545 S
C506 H509 0.929 . S
C507 C506 1.363 1_565 S
C507 C513 1.428 1_556 S
H508 C504 0.930 . S
H509 C506 0.929 . S
S510 N511 1.613 . S
S510 N512 1.610 . S
N511 S510 1.613 . S
N511 C514 1.350 . S
N512 S510 1.610 . S
N512 C513 1.351 . S
C513 C507 1.428 1_554 S
C513 N512 1.351 . S
C513 C514 1.434 . S
C514 C505 1.429 1_565 S
C514 N511 1.350 . S
C514 C513 1.434 . S
C515 C516 1.369 1_455 S
C515 C517 1.419 . S
C515 H519 0.930 . S
C516 C515 1.369 1_655 S
C516 C525 1.429 . S
C517 C515 1.419 . S
C517 C518 1.363 1_554 S
C517 H520 0.929 . S
C518 C517 1.363 1_556 S
C518 C524 1.428 1_455 S
H519 C515 0.930 . S
H520 C517 0.929 . S
S521 N522 1.613 . S
S521 N523 1.610 . S
N522 S521 1.613 . S
N522 C525 1.350 1_556 S
N523 S521 1.610 . S
N523 C524 1.351 . S
C524 C518 1.428 1_655 S
C524 N523 1.351 . S
C524 C525 1.434 1_556 S
C525 C516 1.429 . S
C525 N522 1.350 1_554 S
C525 C524 1.434 1_554 S
C526 C527 1.369 1_554 S
C526 C528 1.419 . S
C526 H530 0.930 . S
C527 C526 1.369 1_556 S
C527 C536 1.429 . S
C528 C526 1.419 . S
C528 C529 1.363 . S
C528 H531 0.929 . S
C529 C528 1.363 . S
C529 C535 1.428 . S
H530 C526 0.930 . S
H531 C528 0.929 . S
S532 N533 1.613 . S
S532 N534 1.610 1_556 S
N533 S532 1.613 . S
N533 C536 1.350 . S
N534 S532 1.610 1_554 S
N534 C535 1.351 . S
C535 C529 1.428 . S
C535 N534 1.351 . S
C535 C536 1.434 1_554 S
C536 C527 1.429 . S
C536 N533 1.350 . S
C536 C535 1.434 1_556 S
C537 C538 1.369 . S
C537 C539 1.419 1_655 S
C537 H541 0.930 . S
C538 C537 1.369 . S
C538 C547 1.429 . S
C539 C537 1.419 1_455 S
C539 C540 1.363 . S
C539 H542 0.929 . S
C540 C539 1.363 . S
C540 C546 1.428 . S
H541 C537 0.930 . S
H542 C539 0.929 . S
S543 N544 1.613 . S
S543 N545 1.610 1_655 S
N544 S543 1.613 . S
N544 C547 1.350 . S
N545 S543 1.610 1_455 S
N545 C546 1.351 . S
C546 C540 1.428 . S
C546 N545 1.351 . S
C546 C547 1.434 1_455 S
C547 C538 1.429 . S
C547 N544 1.350 . S
C547 C546 1.434 1_655 S
C548 C549 1.369 . S
C548 C550 1.419 . S
C548 H552 0.930 . S
C549 C548 1.369 . S
C549 C558 1.429 . S
C550 C548 1.419 . S
C550 C551 1.363 . S
C550 H553 0.929 . S
C551 C550 1.363 . S
C551 C557 1.428 . S
H552 C548 0.930 . S
H553 C550 0.929 . S
S554 N555 1.613 . S
S554 N556 1.610 . S
N555 S554 1.613 . S
N555 C558 1.350 . S
N556 S554 1.610 . S
N556 C557 1.351 . S
C557 C551 1.428 . S
C557 N556 1.351 . S
C557 C558 1.434 . S
C558 C549 1.429 . S
C558 N555 1.350 . S
C558 C557 1.434 . S
C559 C560 1.369 1_545 S
C559 C561 1.419 . S
C559 H563 0.930 . S
C560 C559 1.369 1_565 S
C560 C569 1.429 . S
C561 C559 1.419 . S
C561 C562 1.363 . S
C561 H564 0.929 . S
C562 C561 1.363 . S
C562 C568 1.428 1_545 S
H563 C559 0.930 . S
H564 C561 0.929 . S
S565 N566 1.613 . S
S565 N567 1.610 . S
N566 S565 1.613 . S
N566 C569 1.350 . S
N567 S565 1.610 . S
N567 C568 1.351 . S
C568 C562 1.428 1_565 S
C568 N567 1.351 . S
C568 C569 1.434 . S
C569 C560 1.429 . S
C569 N566 1.350 . S
C569 C568 1.434 . S
C570 C571 1.369 1_565 S
C570 C572 1.419 1_554 S
C570 H574 0.930 . S
C571 C570 1.369 1_545 S
C571 C580 1.429 1_554 S
C572 C570 1.419 1_556 S
C572 C573 1.363 . S
C572 H575 0.929 . S
C573 C572 1.363 . S
C573 C579 1.430 1_565 S
H574 C570 0.930 . S
H575 C572 0.929 . S
S576 N577 1.613 . S
S576 N578 1.610 . S
N577 S576 1.613 . S
N577 C580 1.350 . S
N578 S576 1.610 . S
N578 C579 1.351 . S
C579 C573 1.430 1_545 S
C579 N578 1.351 . S
C579 C580 1.432 . S
C580 C571 1.429 1_556 S
C580 N577 1.350 . S
C580 C579 1.432 . S
C581 C582 1.369 1_556 S
C581 C583 1.419 1_655 S
C581 H585 0.930 . S
C582 C581 1.369 1_554 S
C582 C591 1.429 . S
C583 C581 1.419 1_455 S
C583 C584 1.363 . S
C583 H586 0.929 . S
C584 C583 1.363 . S
C584 C590 1.428 . S
H585 C581 0.930 . S
H586 C583 0.929 . S
S587 N588 1.613 1_455 S
S587 N589 1.610 1_554 S
N588 S587 1.613 1_655 S
N588 C591 1.350 . S
N589 S587 1.610 1_556 S
N589 C590 1.351 . S
C590 C584 1.428 . S
C590 N589 1.351 . S
C590 C591 1.434 1_456 S
C591 C582 1.429 . S
C591 N588 1.350 . S
C591 C590 1.434 1_654 S
C592 C593 1.369 . S
C592 C594 1.419 1_556 S
C592 H596 0.930 . S
C593 C592 1.369 . S
C593 C602 1.429 . S
C594 C592 1.419 1_554 S
C594 C595 1.363 . S
C594 H597 0.929 . S
C595 C594 1.363 . S
C595 C601 1.428 1_554 S
H596 C592 0.930 . S
H597 C594 0.929 . S
S598 N599 1.613 . S
S598 N600 1.610 . S
N599 S598 1.613 . S
N599 C602 1.350 . S
N600 S598 1.610 . S
N600 C601 1.351 . S
C601 C595 1.428 1_556 S
C601 N600 1.351 . S
C601 C602 1.434 . S
C602 C593 1.429 . S
C602 N599 1.350 . S
C602 C601 1.434 . S
C603 C604 1.369 . S
C603 C605 1.419 . S
C603 H607 0.930 . S
C604 C603 1.369 . S
C604 C613 1.429 1_655 S
C605 C603 1.419 . S
C605 C606 1.363 1_655 S
C605 H608 0.929 . S
C606 C605 1.363 1_455 S
C606 C612 1.428 . S
H607 C603 0.930 . S
H608 C605 0.929 . S
S609 N610 1.613 . S
S609 N611 1.610 . S
N610 S609 1.613 . S
N610 C613 1.350 . S
N611 S609 1.610 . S
N611 C612 1.351 . S
C612 C606 1.428 . S
C612 N611 1.351 . S
C612 C613 1.434 . S
C613 C604 1.429 1_455 S
C613 N610 1.350 . S
C613 C612 1.434 . S
C614 C615 1.369 . S
C614 C616 1.419 . S
C614 H618 0.930 . S
C615 C614 1.369 . S
C615 C624 1.429 . S
C616 C614 1.419 . S
C616 C617 1.363 . S
C616 H619 0.929 . S
C617 C616 1.363 . S
C617 C623 1.428 . S
H618 C614 0.930 . S
H619 C616 0.929 . S
S620 N621 1.613 . S
S620 N622 1.610 . S
N621 S620 1.613 . S
N621 C624 1.350 . S
N622 S620 1.610 . S
N622 C623 1.351 . S
C623 C617 1.428 . S
C623 N622 1.351 . S
C623 C624 1.434 . S
C624 C615 1.429 . S
C624 N621 1.350 . S
C624 C623 1.434 . S
C625 C626 1.369 . S
C625 C627 1.419 . S
C625 H629 0.930 . S
C626 C625 1.369 . S
C626 C635 1.429 1_545 S
C627 C625 1.419 . S
C627 C628 1.363 1_545 S
C627 H630 0.929 . S
C628 C627 1.363 1_565 S
C628 C634 1.428 . S
H629 C625 0.930 . S
H630 C627 0.929 . S
S631 N632 1.613 . S
S631 N633 1.610 . S
N632 S631 1.613 . S
N632 C635 1.350 . S
N633 S631 1.610 . S
N633 C634 1.351 . S
C634 C628 1.428 . S
C634 N633 1.351 . S
C634 C635 1.434 . S
C635 C626 1.429 1_565 S
C635 N632 1.350 . S
C635 C634 1.434 . S
C636 C637 1.369 . S
C636 C638 1.419 . S
C636 H640 0.930 . S
C637 C636 1.369 . S
C637 C646 1.429 . S
C638 C636 1.419 . S
C638 C639 1.363 . S
C638 H641 0.929 . S
C639 C638 1.363 . S
C639 C645 1.428 . S
H640 C636 0.930 . S
H641 C638 0.929 . S
S642 N643 1.613 . S
S642 N644 1.610 . S
N643 S642 1.613 . S
N643 C646 1.350 . S
N644 S642 1.610 . S
N644 C645 1.351 . S
C645 C639 1.428 . S
C645 N644 1.351 . S
C645 C646 1.434 . S
C646 C637 1.429 . S
C646 N643 1.350 . S
C646 C645 1.434 . S
C647 C648 1.369 . S
C647 C649 1.419 . S
C647 H651 0.930 . S
C648 C647 1.369 . S
C648 C657 1.429 . S
C649 C647 1.419 . S
C649 C650 1.363 . S
C649 H652 0.929 . S
C650 C649 1.363 . S
C650 C656 1.428 . S
H651 C647 0.930 . S
H652 C649 0.929 . S
S653 N654 1.613 . S
S653 N655 1.610 . S
N654 S653 1.613 . S
N654 C657 1.350 . S
N655 S653 1.610 . S
N655 C656 1.351 . S
C656 C650 1.428 . S
C656 N655 1.351 . S
C656 C657 1.434 . S
C657 C648 1.429 . S
C657 N654 1.350 . S
C657 C656 1.434 . S
C658 C659 1.369 . S
C658 C660 1.419 . S
C658 H662 0.930 . S
C659 C658 1.369 . S
C659 C668 1.429 . S
C660 C658 1.419 . S
C660 C661 1.363 . S
C660 H663 0.929 . S
C661 C660 1.363 . S
C661 C667 1.428 . S
H662 C658 0.930 . S
H663 C660 0.929 . S
S664 N665 1.613 . S
S664 N666 1.610 . S
N665 S664 1.613 . S
N665 C668 1.350 . S
N666 S664 1.610 . S
N666 C667 1.351 . S
C667 C661 1.428 . S
C667 N666 1.351 . S
C667 C668 1.434 . S
C668 C659 1.429 . S
C668 N665 1.350 . S
C668 C667 1.434 . S
C669 C670 1.369 . S
C669 C671 1.419 . S
C669 H673 0.930 . S
C670 C669 1.369 . S
C670 C679 1.429 . S
C671 C669 1.419 . S
C671 C672 1.363 . S
C671 H674 0.929 . S
C672 C671 1.363 . S
C672 C678 1.428 . S
H673 C669 0.930 . S
H674 C671 0.929 . S
S675 N676 1.613 . S
S675 N677 1.610 . S
N676 S675 1.613 . S
N676 C679 1.350 . S
N677 S675 1.610 . S
N677 C678 1.351 . S
C678 C672 1.428 . S
C678 N677 1.351 . S
C678 C679 1.434 . S
C679 C670 1.429 . S
C679 N676 1.350 . S
C679 C678 1.434 . S
C680 C681 1.369 . S
C680 C682 1.419 . S
C680 H684 0.930 . S
C681 C680 1.369 . S
C681 C690 1.429 . S
C682 C680 1.419 . S
C682 C683 1.363 . S
C682 H685 0.929 . S
C683 C682 1.363 . S
C683 C689 1.428 . S
H684 C680 0.930 . S
H685 C682 0.929 . S
S686 N687 1.613 . S
S686 N688 1.610 . S
N687 S686 1.613 . S
N687 C690 1.350 . S
N688 S686 1.610 . S
N688 C689 1.351 . S
C689 C683 1.428 . S
C689 N688 1.351 . S
C689 C690 1.434 . S
C690 C681 1.429 . S
C690 N687 1.350 . S
C690 C689 1.434 . S
C691 C692 1.369 . S
C691 C693 1.419 . S
C691 H695 0.930 . S
C692 C691 1.369 . S
C692 C701 1.429 . S
C693 C691 1.419 . S
C693 C694 1.363 . S
C693 H696 0.929 . S
C694 C693 1.363 . S
C694 C700 1.428 . S
H695 C691 0.930 . S
H696 C693 0.929 . S
S697 N698 1.613 . S
S697 N699 1.610 . S
N698 S697 1.613 . S
N698 C701 1.350 . S
N699 S697 1.610 . S
N699 C700 1.351 . S
C700 C694 1.428 . S
C700 N699 1.351 . S
C700 C701 1.434 . S
C701 C692 1.429 . S
C701 N698 1.350 . S
C701 C700 1.434 . S
C702 C703 1.369 . S
C702 C704 1.419 . S
C702 H706 0.930 . S
C703 C702 1.369 . S
C703 C712 1.429 . S
C704 C702 1.419 . S
C704 C705 1.363 . S
C704 H707 0.929 . S
C705 C704 1.363 . S
C705 C711 1.428 . S
H706 C702 0.930 . S
H707 C704 0.929 . S
S708 N709 1.613 . S
S708 N710 1.610 . S
N709 S708 1.613 . S
N709 C712 1.350 . S
N710 S708 1.610 . S
N710 C711 1.351 . S
C711 C705 1.428 . S
C711 N710 1.351 . S
C711 C712 1.434 . S
C712 C703 1.429 . S
C712 N709 1.350 . S
C712 C711 1.434 . S
C713 C714 1.369 . S
C713 C715 1.419 . S
C713 H717 0.930 . S
C714 C713 1.369 . S
C714 C723 1.429 . S
C715 C713 1.419 . S
C715 C716 1.363 . S
C715 H718 0.929 . S
C716 C715 1.363 . S
C716 C722 1.428 . S
H717 C713 0.930 . S
H718 C715 0.929 . S
S719 N720 1.613 . S
S719 N721 1.610 . S
N720 S719 1.613 . S
N720 C723 1.350 . S
N721 S719 1.610 . S
N721 C722 1.351 . S
C722 C716 1.428 . S
C722 N721 1.351 . S
C722 C723 1.434 . S
C723 C714 1.429 . S
C723 N720 1.350 . S
C723 C722 1.434 . S
C724 C725 1.369 . S
C724 C726 1.419 . S
C724 H728 0.930 . S
C725 C724 1.369 . S
C725 C734 1.429 . S
C726 C724 1.419 . S
C726 C727 1.363 . S
C726 H729 0.929 . S
C727 C726 1.363 . S
C727 C733 1.428 . S
H728 C724 0.930 . S
H729 C726 0.929 . S
S730 N731 1.613 . S
S730 N732 1.610 . S
N731 S730 1.613 . S
N731 C734 1.350 . S
N732 S730 1.610 . S
N732 C733 1.351 . S
C733 C727 1.428 . S
C733 N732 1.351 . S
C733 C734 1.434 . S
C734 C725 1.429 . S
C734 N731 1.350 . S
C734 C733 1.434 . S
C735 C736 1.369 . S
C735 C737 1.419 . S
C735 H739 0.930 . S
C736 C735 1.369 . S
C736 C745 1.429 . S
C737 C735 1.419 . S
C737 C738 1.363 . S
C737 H740 0.929 . S
C738 C737 1.363 . S
C738 C744 1.428 . S
H739 C735 0.930 . S
H740 C737 0.929 . S
S741 N742 1.613 . S
S741 N743 1.610 . S
N742 S741 1.613 . S
N742 C745 1.350 . S
N743 S741 1.610 . S
N743 C744 1.351 . S
C744 C738 1.428 . S
C744 N743 1.351 . S
C744 C745 1.434 . S
C745 C736 1.429 . S
C745 N742 1.350 . S
C745 C744 1.434 . S
C746 C747 1.369 . S
C746 C748 1.419 . S
C746 H750 0.930 . S
C747 C746 1.369 . S
C747 C756 1.429 . S
C748 C746 1.419 . S
C748 C749 1.363 . S
C748 H751 0.929 . S
C749 C748 1.363 . S
C749 C755 1.428 . S
H750 C746 0.930 . S
H751 C748 0.929 . S
S752 N753 1.613 . S
S752 N754 1.610 . S
N753 S752 1.613 . S
N753 C756 1.350 . S
N754 S752 1.610 . S
N754 C755 1.351 . S
C755 C749 1.428 . S
C755 N754 1.351 . S
C755 C756 1.434 . S
C756 C747 1.429 . S
C756 N753 1.350 . S
C756 C755 1.434 . S
C757 C758 1.369 . S
C757 C759 1.419 . S
C757 H761 0.930 . S
C758 C757 1.369 . S
C758 C767 1.429 . S
C759 C757 1.419 . S
C759 C760 1.363 . S
C759 H762 0.929 . S
C760 C759 1.363 . S
C760 C766 1.428 . S
H761 C757 0.930 . S
H762 C759 0.929 . S
S763 N764 1.613 . S
S763 N765 1.610 . S
N764 S763 1.613 . S
N764 C767 1.350 . S
N765 S763 1.610 . S
N765 C766 1.351 . S
C766 C760 1.428 . S
C766 N765 1.351 . S
C766 C767 1.434 . S
C767 C758 1.429 . S
C767 N764 1.350 . S
C767 C766 1.434 . S
C768 C769 1.369 . S
C768 C770 1.419 . S
C768 H772 0.930 . S
C769 C768 1.369 . S
C769 C778 1.429 . S
C770 C768 1.419 . S
C770 C771 1.363 . S
C770 H773 0.929 . S
C771 C770 1.363 . S
C771 C777 1.428 . S
H772 C768 0.930 . S
H773 C770 0.929 . S
S774 N775 1.613 . S
S774 N776 1.610 . S
N775 S774 1.613 . S
N775 C778 1.350 . S
N776 S774 1.610 . S
N776 C777 1.351 . S
C777 C771 1.428 . S
C777 N776 1.351 . S
C777 C778 1.434 . S
C778 C769 1.429 . S
C778 N775 1.350 . S
C778 C777 1.434 . S
C779 C780 1.369 . S
C779 C781 1.419 . S
C779 H783 0.930 . S
C780 C779 1.369 . S
C780 C789 1.429 . S
C781 C779 1.419 . S
C781 C782 1.363 . S
C781 H784 0.929 . S
C782 C781 1.363 . S
C782 C788 1.428 . S
H783 C779 0.930 . S
H784 C781 0.929 . S
S785 N786 1.613 . S
S785 N787 1.610 . S
N786 S785 1.613 . S
N786 C789 1.350 . S
N787 S785 1.610 . S
N787 C788 1.351 . S
C788 C782 1.428 . S
C788 N787 1.351 . S
C788 C789 1.434 . S
C789 C780 1.429 . S
C789 N786 1.350 . S
C789 C788 1.434 . S
C790 C791 1.369 . S
C790 C792 1.419 . S
C790 H794 0.930 . S
C791 C790 1.369 . S
C791 C800 1.429 . S
C792 C790 1.419 . S
C792 C793 1.363 . S
C792 H795 0.929 . S
C793 C792 1.363 . S
C793 C799 1.428 . S
H794 C790 0.930 . S
H795 C792 0.929 . S
S796 N797 1.613 . S
S796 N798 1.610 . S
N797 S796 1.613 . S
N797 C800 1.350 . S
N798 S796 1.610 . S
N798 C799 1.351 . S
C799 C793 1.428 . S
C799 N798 1.351 . S
C799 C800 1.434 . S
C800 C791 1.429 . S
C800 N797 1.350 . S
C800 C799 1.434 . S
C801 C802 1.369 . S
C801 C803 1.419 . S
C801 H805 0.930 . S
C802 C801 1.369 . S
C802 C811 1.429 . S
C803 C801 1.419 . S
C803 C804 1.363 . S
C803 H806 0.929 . S
C804 C803 1.363 . S
C804 C810 1.428 . S
H805 C801 0.930 . S
H806 C803 0.929 . S
S807 N808 1.613 . S
S807 N809 1.610 . S
N808 S807 1.613 . S
N808 C811 1.350 . S
N809 S807 1.610 . S
N809 C810 1.351 . S
C810 C804 1.428 . S
C810 N809 1.351 . S
C810 C811 1.434 . S
C811 C802 1.429 . S
C811 N808 1.350 . S
C811 C810 1.434 . S
C812 C813 1.369 . S
C812 C814 1.419 . S
C812 H816 0.930 . S
C813 C812 1.369 . S
C813 C822 1.429 . S
C814 C812 1.419 . S
C814 C815 1.363 . S
C814 H817 0.929 . S
C815 C814 1.363 . S
C815 C821 1.428 . S
H816 C812 0.930 . S
H817 C814 0.929 . S
S818 N819 1.613 . S
S818 N820 1.610 . S
N819 S818 1.613 . S
N819 C822 1.350 . S
N820 S818 1.610 . S
N820 C821 1.351 . S
C821 C815 1.428 . S
C821 N820 1.351 . S
C821 C822 1.434 . S
C822 C813 1.429 . S
C822 N819 1.350 . S
C822 C821 1.434 . S
C823 C824 1.369 . S
C823 C825 1.419 . S
C823 H827 0.930 . S
C824 C823 1.369 . S
C824 C833 1.429 . S
C825 C823 1.419 . S
C825 C826 1.363 . S
C825 H828 0.929 . S
C826 C825 1.363 . S
C826 C832 1.428 . S
H827 C823 0.930 . S
H828 C825 0.929 . S
S829 N830 1.613 . S
S829 N831 1.610 . S
N830 S829 1.613 . S
N830 C833 1.350 . S
N831 S829 1.610 . S
N831 C832 1.351 . S
C832 C826 1.428 . S
C832 N831 1.351 . S
C832 C833 1.434 . S
C833 C824 1.429 . S
C833 N830 1.350 . S
C833 C832 1.434 . S
C834 C835 1.369 . S
C834 C836 1.419 . S
C834 H838 0.930 . S
C835 C834 1.369 . S
C835 C844 1.429 . S
C836 C834 1.419 . S
C836 C837 1.363 . S
C836 H839 0.929 . S
C837 C836 1.363 . S
C837 C843 1.428 . S
H838 C834 0.930 . S
H839 C836 0.929 . S
S840 N841 1.613 . S
S840 N842 1.610 . S
N841 S840 1.613 . S
N841 C844 1.350 . S
N842 S840 1.610 . S
N842 C843 1.351 . S
C843 C837 1.428 . S
C843 N842 1.351 . S
C843 C844 1.434 . S
C844 C835 1.429 . S
C844 N841 1.350 . S
C844 C843 1.434 . S
C845 C846 1.369 . S
C845 C847 1.419 . S
C845 H849 0.930 . S
C846 C845 1.369 . S
C846 C855 1.429 . S
C847 C845 1.419 . S
C847 C848 1.363 . S
C847 H850 0.929 . S
C848 C847 1.363 . S
C848 C854 1.428 . S
H849 C845 0.930 . S
H850 C847 0.929 . S
S851 N852 1.613 . S
S851 N853 1.610 . S
N852 S851 1.613 . S
N852 C855 1.350 . S
N853 S851 1.610 . S
N853 C854 1.351 . S
C854 C848 1.428 . S
C854 N853 1.351 . S
C854 C855 1.434 . S
C855 C846 1.429 . S
C855 N852 1.350 . S
C855 C854 1.434 . S
C856 C857 1.369 . S
C856 C858 1.419 . S
C856 H860 0.930 . S
C857 C856 1.369 . S
C857 C866 1.429 . S
C858 C856 1.419 . S
C858 C859 1.363 . S
C858 H861 0.929 . S
C859 C858 1.363 . S
C859 C865 1.428 . S
H860 C856 0.930 . S
H861 C858 0.929 . S
S862 N863 1.613 . S
S862 N864 1.610 . S
N863 S862 1.613 . S
N863 C866 1.350 . S
N864 S862 1.610 . S
N864 C865 1.351 . S
C865 C859 1.428 . S
C865 N864 1.351 . S
C865 C866 1.434 . S
C866 C857 1.429 . S
C866 N863 1.350 . S
C866 C865 1.434 . S
C867 C868 1.369 . S
C867 C869 1.419 . S
C867 H871 0.930 . S
C868 C867 1.369 . S
C868 C877 1.429 . S
C869 C867 1.419 . S
C869 C870 1.363 . S
C869 H872 0.929 . S
C870 C869 1.363 . S
C870 C876 1.428 . S
H871 C867 0.930 . S
H872 C869 0.929 . S
S873 N874 1.613 . S
S873 N875 1.610 . S
N874 S873 1.613 . S
N874 C877 1.350 . S
N875 S873 1.610 . S
N875 C876 1.351 . S
C876 C870 1.428 . S
C876 N875 1.351 . S
C876 C877 1.434 . S
C877 C868 1.429 . S
C877 N874 1.350 . S
C877 C876 1.434 . S
C878 C879 1.369 . S
C878 C880 1.419 . S
C878 H882 0.930 . S
C879 C878 1.369 . S
C879 C888 1.429 . S
C880 C878 1.419 . S
C880 C881 1.363 . S
C880 H883 0.929 . S
C881 C880 1.363 . S
C881 C887 1.428 . S
H882 C878 0.930 . S
H883 C880 0.929 . S
S884 N885 1.613 . S
S884 N886 1.610 . S
N885 S884 1.613 . S
N885 C888 1.350 . S
N886 S884 1.610 . S
N886 C887 1.351 . S
C887 C881 1.428 . S
C887 N886 1.351 . S
C887 C888 1.434 . S
C888 C879 1.429 . S
C888 N885 1.350 . S
C888 C887 1.434 . S
C889 C890 1.369 . S
C889 C891 1.419 . S
C889 H893 0.930 . S
C890 C889 1.369 . S
C890 C899 1.429 . S
C891 C889 1.419 . S
C891 C892 1.363 . S
C891 H894 0.929 . S
C892 C891 1.363 . S
C892 C898 1.428 . S
H893 C889 0.930 . S
H894 C891 0.929 . S
S895 N896 1.613 . S
S895 N897 1.610 . S
N896 S895 1.613 . S
N896 C899 1.350 . S
N897 S895 1.610 . S
N897 C898 1.351 . S
C898 C892 1.428 . S
C898 N897 1.351 . S
C898 C899 1.434 . S
C899 C890 1.429 . S
C899 N896 1.350 . S
C899 C898 1.434 . S
C900 C901 1.369 . S
C900 C902 1.419 . S
C900 H904 0.930 . S
C901 C900 1.369 . S
C901 C910 1.429 . S
C902 C900 1.419 . S
C902 C903 1.363 . S
C902 H905 0.929 . S
C903 C902 1.363 . S
C903 C909 1.428 . S
H904 C900 0.930 . S
H905 C902 0.929 . S
S906 N907 1.613 . S
S906 N908 1.610 . S
N907 S906 1.613 . S
N907 C910 1.350 . S
N908 S906 1.610 . S
N908 C909 1.351 . S
C909 C903 1.428 . S
C909 N908 1.351 . S
C909 C910 1.434 . S
C910 C901 1.429 . S
C910 N907 1.350 . S
C910 C909 1.434 . S
C911 C912 1.369 . S
C911 C913 1.419 1_565 S
C911 H915 0.930 . S
C912 C911 1.369 . S
C912 C921 1.429 . S
C913 C911 1.419 1_545 S
C913 C914 1.363 . S
C913 H916 0.929 . S
C914 C913 1.363 . S
C914 C920 1.428 . S
H915 C911 0.930 . S
H916 C913 0.929 . S
S917 N918 1.613 . S
S917 N919 1.610 1_565 S
N918 S917 1.613 . S
N918 C921 1.350 . S
N919 S917 1.610 1_545 S
N919 C920 1.351 . S
C920 C914 1.428 . S
C920 N919 1.351 . S
C920 C921 1.434 1_545 S
C921 C912 1.429 . S
C921 N918 1.350 . S
C921 C920 1.434 1_565 S
C922 C923 1.369 . S
C922 C924 1.419 1_655 S
C922 H926 0.930 . S
C923 C922 1.369 . S
C923 C932 1.429 . S
C924 C922 1.419 1_455 S
C924 C925 1.363 . S
C924 H927 0.929 . S
C925 C924 1.363 . S
C925 C931 1.428 . S
H926 C922 0.930 . S
H927 C924 0.929 . S
S928 N929 1.613 . S
S928 N930 1.642 . S
N929 S928 1.613 . S
N929 C932 1.350 . S
N930 S928 1.642 . S
N930 C931 1.346 1_655 S
C931 C925 1.428 . S
C931 N930 1.346 1_455 S
C931 C932 1.434 1_455 S
C932 C923 1.429 . S
C932 N929 1.350 . S
C932 C931 1.434 1_655 S
C933 C934 1.369 . S
C933 C935 1.419 . S
C933 H937 0.930 . S
C934 C933 1.369 . S
C934 C943 1.429 . S
C935 C933 1.419 . S
C935 C936 1.363 . S
C935 H938 0.929 . S
C936 C935 1.363 . S
C936 C942 1.428 . S
H937 C933 0.930 . S
H938 C935 0.929 . S
S939 N940 1.613 . S
S939 N941 1.610 . S
N940 S939 1.613 . S
N940 C943 1.350 . S
N941 S939 1.610 . S
N941 C942 1.351 . S
C942 C936 1.428 . S
C942 N941 1.351 . S
C942 C943 1.434 . S
C943 C934 1.429 . S
C943 N940 1.350 . S
C943 C942 1.434 . S
C944 C945 1.369 . S
C944 C946 1.419 1_545 S
C944 H948 0.930 . S
C945 C944 1.369 . S
C945 C954 1.429 . S
C946 C944 1.419 1_565 S
C946 C947 1.363 . S
C946 H949 0.929 . S
C947 C946 1.363 . S
C947 C953 1.428 . S
H948 C944 0.930 . S
H949 C946 0.929 . S
S950 N951 1.613 . S
S950 N952 1.610 1_545 S
N951 S950 1.613 . S
N951 C954 1.350 . S
N952 S950 1.610 1_565 S
N952 C953 1.351 . S
C953 C947 1.428 . S
C953 N952 1.351 . S
C953 C954 1.434 1_565 S
C954 C945 1.429 . S
C954 N951 1.350 . S
C954 C953 1.434 1_545 S
C955 C956 1.369 . S
C955 C957 1.419 1_655 S
C955 H959 0.930 . S
C956 C955 1.369 . S
C956 C965 1.429 . S
C957 C955 1.419 1_455 S
C957 C958 1.363 . S
C957 H960 0.929 . S
C958 C957 1.363 . S
C958 C964 1.428 . S
H959 C955 0.930 . S
H960 C957 0.929 . S
S961 N962 1.613 . S
S961 N963 1.610 1_655 S
N962 S961 1.613 . S
N962 C965 1.350 . S
N963 S961 1.610 1_455 S
N963 C964 1.351 . S
C964 C958 1.428 . S
C964 N963 1.351 . S
C964 C965 1.434 1_455 S
C965 C956 1.429 . S
C965 N962 1.350 . S
C965 C964 1.434 1_655 S
C966 C967 1.369 . S
C966 C968 1.419 . S
C966 H970 0.930 . S
C967 C966 1.369 . S
C967 C976 1.429 . S
C968 C966 1.419 . S
C968 C969 1.363 . S
C968 H971 0.929 . S
C969 C968 1.363 . S
C969 C975 1.428 . S
H970 C966 0.930 . S
H971 C968 0.929 . S
S972 N973 1.613 . S
S972 N974 1.610 . S
N973 S972 1.613 . S
N973 C976 1.350 . S
N974 S972 1.610 . S
N974 C975 1.351 . S
C975 C969 1.428 . S
C975 N974 1.351 . S
C975 C976 1.434 . S
C976 C967 1.429 . S
C976 N973 1.350 . S
C976 C975 1.434 . S
C977 C978 1.369 . S
C977 C979 1.419 . S
C977 H981 0.930 . S
C978 C977 1.369 . S
C978 C987 1.429 . S
C979 C977 1.419 . S
C979 C980 1.363 . S
C979 H982 0.929 . S
C980 C979 1.363 . S
C980 C986 1.428 . S
H981 C977 0.930 . S
H982 C979 0.929 . S
S983 N984 1.613 . S
S983 N985 1.610 . S
N984 S983 1.613 . S
N984 C987 1.350 . S
N985 S983 1.610 . S
N985 C986 1.351 . S
C986 C980 1.428 . S
C986 N985 1.351 . S
C986 C987 1.434 . S
C987 C978 1.429 . S
C987 N984 1.350 . S
C987 C986 1.434 . S
C988 C989 1.369 . S
C988 C990 1.419 . S
C988 H992 0.930 . S
C989 C988 1.369 . S
C989 C998 1.429 . S
C990 C988 1.419 . S
C990 C991 1.363 . S
C990 H993 0.929 . S
C991 C990 1.363 . S
C991 C997 1.428 . S
H992 C988 0.930 . S
H993 C990 0.929 . S
S994 N995 1.613 . S
S994 N996 1.610 . S
N995 S994 1.613 . S
N995 C998 1.350 . S
N996 S994 1.610 . S
N996 C997 1.351 . S
C997 C991 1.428 . S
C997 N996 1.351 . S
C997 C998 1.434 . S
C998 C989 1.429 . S
C998 N995 1.350 . S
C998 C997 1.434 . S
C999 C1000 1.369 . S
C999 C1001 1.419 . S
C999 H1003 0.930 . S
C1000 C999 1.369 . S
C1000 C1009 1.429 . S
C1001 C999 1.419 . S
C1001 C1002 1.363 . S
C1001 H1004 0.929 . S
C1002 C1001 1.363 . S
C1002 C1008 1.428 . S
H1003 C999 0.930 . S
H1004 C1001 0.929 . S
S1005 N1006 1.613 . S
S1005 N1007 1.610 . S
N1006 S1005 1.613 . S
N1006 C1009 1.350 . S
N1007 S1005 1.610 . S
N1007 C1008 1.351 . S
C1008 C1002 1.428 . S
C1008 N1007 1.351 . S
C1008 C1009 1.434 . S
C1009 C1000 1.429 . S
C1009 N1006 1.350 . S
C1009 C1008 1.434 . S
C1010 C1011 1.369 . S
C1010 C1012 1.419 . S
C1010 H1014 0.930 . S
C1011 C1010 1.369 . S
C1011 C1020 1.429 . S
C1012 C1010 1.419 . S
C1012 C1013 1.363 . S
C1012 H1015 0.929 . S
C1013 C1012 1.363 . S
C1013 C1019 1.428 . S
H1014 C1010 0.930 . S
H1015 C1012 0.929 . S
S1016 N1017 1.613 . S
S1016 N1018 1.610 . S
N1017 S1016 1.613 . S
N1017 C1020 1.350 . S
N1018 S1016 1.610 . S
N1018 C1019 1.351 . S
C1019 C1013 1.428 . S
C1019 N1018 1.351 . S
C1019 C1020 1.434 . S
C1020 C1011 1.429 . S
C1020 N1017 1.350 . S
C1020 C1019 1.434 . S
C1021 C1022 1.369 . S
C1021 C1023 1.419 . S
C1021 H1025 0.930 . S
C1022 C1021 1.369 . S
C1022 C1031 1.429 . S
C1023 C1021 1.419 . S
C1023 C1024 1.363 . S
C1023 H1026 0.929 . S
C1024 C1023 1.363 . S
C1024 C1030 1.428 . S
H1025 C1021 0.930 . S
H1026 C1023 0.929 . S
S1027 N1028 1.613 1_556 S
S1027 N1029 1.610 1_556 S
N1028 S1027 1.613 1_554 S
N1028 C1031 1.350 . S
N1029 S1027 1.610 1_554 S
N1029 C1030 1.351 . S
C1030 C1024 1.428 . S
C1030 N1029 1.351 . S
C1030 C1031 1.434 . S
C1031 C1022 1.429 . S
C1031 N1028 1.350 . S
C1031 C1030 1.434 . S
C1032 C1033 1.369 . S
C1032 C1034 1.419 . S
C1032 H1036 0.930 . S
C1033 C1032 1.369 . S
C1033 C1042 1.429 . S
C1034 C1032 1.419 . S
C1034 C1035 1.363 . S
C1034 H1037 0.929 . S
C1035 C1034 1.363 . S
C1035 C1041 1.428 . S
H1036 C1032 0.930 . S
H1037 C1034 0.929 . S
S1038 N1039 1.613 . S
S1038 N1040 1.610 . S
N1039 S1038 1.613 . S
N1039 C1042 1.350 . S
N1040 S1038 1.610 . S
N1040 C1041 1.351 . S
C1041 C1035 1.428 . S
C1041 N1040 1.351 . S
C1041 C1042 1.434 . S
C1042 C1033 1.429 . S
C1042 N1039 1.350 . S
C1042 C1041 1.434 . S
C1043 C1044 1.369 . S
C1043 C1045 1.419 . S
C1043 H1047 0.930 . S
C1044 C1043 1.369 . S
C1044 C1053 1.429 . S
C1045 C1043 1.419 . S
C1045 C1046 1.363 . S
C1045 H1048 0.929 . S
C1046 C1045 1.363 . S
C1046 C1052 1.428 . S
H1047 C1043 0.930 . S
H1048 C1045 0.929 . S
S1049 N1050 1.613 . S
S1049 N1051 1.610 . S
N1050 S1049 1.613 . S
N1050 C1053 1.350 . S
N1051 S1049 1.610 . S
N1051 C1052 1.351 . S
C1052 C1046 1.428 . S
C1052 N1051 1.351 . S
C1052 C1053 1.434 . S
C1053 C1044 1.429 . S
C1053 N1050 1.350 . S
C1053 C1052 1.434 . S
C1054 C1055 1.369 . S
C1054 C1056 1.419 . S
C1054 H1058 0.930 . S
C1055 C1054 1.369 . S
C1055 C1064 1.429 . S
C1056 C1054 1.419 . S
C1056 C1057 1.363 . S
C1056 H1059 0.929 . S
C1057 C1056 1.363 . S
C1057 C1063 1.428 . S
H1058 C1054 0.930 . S
H1059 C1056 0.929 . S
S1060 N1061 1.613 . S
S1060 N1062 1.610 . S
N1061 S1060 1.613 . S
N1061 C1064 1.350 . S
N1062 S1060 1.610 . S
N1062 C1063 1.351 . S
C1063 C1057 1.428 . S
C1063 N1062 1.351 . S
C1063 C1064 1.434 . S
C1064 C1055 1.429 . S
C1064 N1061 1.350 . S
C1064 C1063 1.434 . S
C1065 C1066 1.369 . S
C1065 C1067 1.419 . S
C1065 H1069 0.930 . S
C1066 C1065 1.369 . S
C1066 C1075 1.429 . S
C1067 C1065 1.419 . S
C1067 C1068 1.363 . S
C1067 H1070 0.929 . S
C1068 C1067 1.363 . S
C1068 C1074 1.428 . S
H1069 C1065 0.930 . S
H1070 C1067 0.929 . S
S1071 N1072 1.613 . S
S1071 N1073 1.610 . S
N1072 S1071 1.613 . S
N1072 C1075 1.350 . S
N1073 S1071 1.610 . S
N1073 C1074 1.351 . S
C1074 C1068 1.428 . S
C1074 N1073 1.351 . S
C1074 C1075 1.434 . S
C1075 C1066 1.429 . S
C1075 N1072 1.350 . S
C1075 C1074 1.434 . S
C1076 C1077 1.369 . S
C1076 C1078 1.419 . S
C1076 H1080 0.930 . S
C1077 C1076 1.369 . S
C1077 C1086 1.429 . S
C1078 C1076 1.419 . S
C1078 C1079 1.363 . S
C1078 H1081 0.929 . S
C1079 C1078 1.363 . S
C1079 C1085 1.428 . S
H1080 C1076 0.930 . S
H1081 C1078 0.929 . S
S1082 N1083 1.613 . S
S1082 N1084 1.610 . S
N1083 S1082 1.613 . S
N1083 C1086 1.350 . S
N1084 S1082 1.610 . S
N1084 C1085 1.351 . S
C1085 C1079 1.428 . S
C1085 N1084 1.351 . S
C1085 C1086 1.434 . S
C1086 C1077 1.429 . S
C1086 N1083 1.350 . S
C1086 C1085 1.434 . S
C1087 C1088 1.369 . S
C1087 C1089 1.419 . S
C1087 H1091 0.930 . S
C1088 C1087 1.369 . S
C1088 C1097 1.429 . S
C1089 C1087 1.419 . S
C1089 C1090 1.363 . S
C1089 H1092 0.929 . S
C1090 C1089 1.363 . S
C1090 C1096 1.428 . S
H1091 C1087 0.930 . S
H1092 C1089 0.929 . S
S1093 N1094 1.613 . S
S1093 N1095 1.610 . S
N1094 S1093 1.613 . S
N1094 C1097 1.350 . S
N1095 S1093 1.610 . S
N1095 C1096 1.351 . S
C1096 C1090 1.428 . S
C1096 N1095 1.351 . S
C1096 C1097 1.434 . S
C1097 C1088 1.429 . S
C1097 N1094 1.350 . S
C1097 C1096 1.434 . S
C1098 C1099 1.369 . S
C1098 C1100 1.419 . S
C1098 H1102 0.930 . S
C1099 C1098 1.369 . S
C1099 C1108 1.429 . S
C1100 C1098 1.419 . S
C1100 C1101 1.363 . S
C1100 H1103 0.929 . S
C1101 C1100 1.363 . S
C1101 C1107 1.428 . S
H1102 C1098 0.930 . S
H1103 C1100 0.929 . S
S1104 N1105 1.613 . S
S1104 N1106 1.610 . S
N1105 S1104 1.613 . S
N1105 C1108 1.350 . S
N1106 S1104 1.610 . S
N1106 C1107 1.351 . S
C1107 C1101 1.428 . S
C1107 N1106 1.351 . S
C1107 C1108 1.434 . S
C1108 C1099 1.429 . S
C1108 N1105 1.350 . S
C1108 C1107 1.434 . S
C1109 C1110 1.369 . S
C1109 C1111 1.419 . S
C1109 H1113 0.930 . S
C1110 C1109 1.369 . S
C1110 C1119 1.429 . S
C1111 C1109 1.419 . S
C1111 C1112 1.363 . S
C1111 H1114 0.929 . S
C1112 C1111 1.363 . S
C1112 C1118 1.428 . S
H1113 C1109 0.930 . S
H1114 C1111 0.929 . S
S1115 N1116 1.613 . S
S1115 N1117 1.610 . S
N1116 S1115 1.613 . S
N1116 C1119 1.350 . S
N1117 S1115 1.610 . S
N1117 C1118 1.351 . S
C1118 C1112 1.428 . S
C1118 N1117 1.351 . S
C1118 C1119 1.434 . S
C1119 C1110 1.429 . S
C1119 N1116 1.350 . S
C1119 C1118 1.434 . S
C1120 C1121 1.369 . S
C1120 C1122 1.419 . S
C1120 H1124 0.930 . S
C1121 C1120 1.369 . S
C1121 C1130 1.429 . S
C1122 C1120 1.419 . S
C1122 C1123 1.363 . S
C1122 H1125 0.929 . S
C1123 C1122 1.363 . S
C1123 C1129 1.428 . S
H1124 C1120 0.930 . S
H1125 C1122 0.929 . S
S1126 N1127 1.613 . S
S1126 N1128 1.610 . S
N1127 S1126 1.613 . S
N1127 C1130 1.350 . S
N1128 S1126 1.610 . S
N1128 C1129 1.351 . S
C1129 C1123 1.428 . S
C1129 N1128 1.351 . S
C1129 C1130 1.434 . S
C1130 C1121 1.429 . S
C1130 N1127 1.350 . S
C1130 C1129 1.434 . S
C1131 C1132 1.369 . S
C1131 C1133 1.419 . S
C1131 H1135 0.930 . S
C1132 C1131 1.369 . S
C1132 C1141 1.429 . S
C1133 C1131 1.419 . S
C1133 C1134 1.363 . S
C1133 H1136 0.929 . S
C1134 C1133 1.363 . S
C1134 C1140 1.428 . S
H1135 C1131 0.930 . S
H1136 C1133 0.929 . S
S1137 N1138 1.613 . S
S1137 N1139 1.610 . S
N1138 S1137 1.613 . S
N1138 C1141 1.350 . S
N1139 S1137 1.610 . S
N1139 C1140 1.351 . S
C1140 C1134 1.428 . S
C1140 N1139 1.351 . S
C1140 C1141 1.434 . S
C1141 C1132 1.429 . S
C1141 N1138 1.350 . S
C1141 C1140 1.434 . S
C1142 C1143 1.369 . S
C1142 C1144 1.419 . S
C1142 H1146 0.930 . S
C1143 C1142 1.369 . S
C1143 C1152 1.429 . S
C1144 C1142 1.419 . S
C1144 C1145 1.363 . S
C1144 H1147 0.929 . S
C1145 C1144 1.363 . S
C1145 C1151 1.428 . S
H1146 C1142 0.930 . S
H1147 C1144 0.929 . S
S1148 N1149 1.613 . S
S1148 N1150 1.610 . S
N1149 S1148 1.613 . S
N1149 C1152 1.350 . S
N1150 S1148 1.610 . S
N1150 C1151 1.351 . S
C1151 C1145 1.428 . S
C1151 N1150 1.351 . S
C1151 C1152 1.434 . S
C1152 C1143 1.429 . S
C1152 N1149 1.350 . S
C1152 C1151 1.434 . S
C1153 C1154 1.369 . S
C1153 C1155 1.419 . S
C1153 H1157 0.930 . S
C1154 C1153 1.369 . S
C1154 C1163 1.429 . S
C1155 C1153 1.419 . S
C1155 C1156 1.363 . S
C1155 H1158 0.929 . S
C1156 C1155 1.363 . S
C1156 C1162 1.428 . S
H1157 C1153 0.930 . S
H1158 C1155 0.929 . S
S1159 N1160 1.613 . S
S1159 N1161 1.610 . S
N1160 S1159 1.613 . S
N1160 C1163 1.350 . S
N1161 S1159 1.610 . S
N1161 C1162 1.351 . S
C1162 C1156 1.428 . S
C1162 N1161 1.351 . S
C1162 C1163 1.434 . S
C1163 C1154 1.429 . S
C1163 N1160 1.350 . S
C1163 C1162 1.434 . S
C1164 C1165 1.369 . S
C1164 C1166 1.419 . S
C1164 H1168 0.930 . S
C1165 C1164 1.369 . S
C1165 C1174 1.429 . S
C1166 C1164 1.419 . S
C1166 C1167 1.363 . S
C1166 H1169 0.929 . S
C1167 C1166 1.363 . S
C1167 C1173 1.428 . S
H1168 C1164 0.930 . S
H1169 C1166 0.929 . S
S1170 N1171 1.613 . S
S1170 N1172 1.610 . S
N1171 S1170 1.613 . S
N1171 C1174 1.350 . S
N1172 S1170 1.610 . S
N1172 C1173 1.351 . S
C1173 C1167 1.428 . S
C1173 N1172 1.351 . S
C1173 C1174 1.434 . S
C1174 C1165 1.429 . S
C1174 N1171 1.350 . S
C1174 C1173 1.434 . S
C1175 C1176 1.369 . S
C1175 C1177 1.419 . S
C1175 H1179 0.930 . S
C1176 C1175 1.369 . S
C1176 C1185 1.429 . S
C1177 C1175 1.419 . S
C1177 C1178 1.363 . S
C1177 H1180 0.929 . S
C1178 C1177 1.363 . S
C1178 C1184 1.428 . S
H1179 C1175 0.930 . S
H1180 C1177 0.929 . S
S1181 N1182 1.613 . S
S1181 N1183 1.610 . S
N1182 S1181 1.613 . S
N1182 C1185 1.350 . S
N1183 S1181 1.610 . S
N1183 C1184 1.351 . S
C1184 C1178 1.428 . S
C1184 N1183 1.351 . S
C1184 C1185 1.434 . S
C1185 C1176 1.429 . S
C1185 N1182 1.350 . S
C1185 C1184 1.434 . S
C1186 C1187 1.369 . S
C1186 C1188 1.419 . S
C1186 H1190 0.930 . S
C1187 C1186 1.369 . S
C1187 C1196 1.429 . S
C1188 C1186 1.419 . S
C1188 C1189 1.363 . S
C1188 H1191 0.929 . S
C1189 C1188 1.363 . S
C1189 C1195 1.428 . S
H1190 C1186 0.930 . S
H1191 C1188 0.929 . S
S1192 N1193 1.613 . S
S1192 N1194 1.610 . S
N1193 S1192 1.613 . S
N1193 C1196 1.350 . S
N1194 S1192 1.610 . S
N1194 C1195 1.351 . S
C1195 C1189 1.428 . S
C1195 N1194 1.351 . S
C1195 C1196 1.434 . S
C1196 C1187 1.429 . S
C1196 N1193 1.350 . S
C1196 C1195 1.434 . S
C1197 C1198 1.369 . S
C1197 C1199 1.419 . S
C1197 H1201 0.930 . S
C1198 C1197 1.369 . S
C1198 C1207 1.429 . S
C1199 C1197 1.419 . S
C1199 C1200 1.363 . S
C1199 H1202 0.929 . S
C1200 C1199 1.363 . S
C1200 C1206 1.428 . S
H1201 C1197 0.930 . S
H1202 C1199 0.929 . S
S1203 N1204 1.613 . S
S1203 N1205 1.610 . S
N1204 S1203 1.613 . S
N1204 C1207 1.350 . S
N1205 S1203 1.610 . S
N1205 C1206 1.351 . S
C1206 C1200 1.428 . S
C1206 N1205 1.351 . S
C1206 C1207 1.434 . S
C1207 C1198 1.429 . S
C1207 N1204 1.350 . S
C1207 C1206 1.434 . S
C1208 C1209 1.369 . S
C1208 C1210 1.419 . S
C1208 H1212 0.930 . S
C1209 C1208 1.369 . S
C1209 C1218 1.429 . S
C1210 C1208 1.419 . S
C1210 C1211 1.363 . S
C1210 H1213 0.929 . S
C1211 C1210 1.363 . S
C1211 C1217 1.428 . S
H1212 C1208 0.930 . S
H1213 C1210 0.929 . S
S1214 N1215 1.613 . S
S1214 N1216 1.610 . S
N1215 S1214 1.613 . S
N1215 C1218 1.350 . S
N1216 S1214 1.610 . S
N1216 C1217 1.351 . S
C1217 C1211 1.428 . S
C1217 N1216 1.351 . S
C1217 C1218 1.434 . S
C1218 C1209 1.429 . S
C1218 N1215 1.350 . S
C1218 C1217 1.434 . S
C1219 C1220 1.369 . S
C1219 C1221 1.419 . S
C1219 H1223 0.930 . S
C1220 C1219 1.369 . S
C1220 C1229 1.429 . S
C1221 C1219 1.419 . S
C1221 C1222 1.363 . S
C1221 H1224 0.929 . S
C1222 C1221 1.363 . S
C1222 C1228 1.428 . S
H1223 C1219 0.930 . S
H1224 C1221 0.929 . S
S1225 N1226 1.613 . S
S1225 N1227 1.610 . S
N1226 S1225 1.613 . S
N1226 C1229 1.350 . S
N1227 S1225 1.610 . S
N1227 C1228 1.351 . S
C1228 C1222 1.428 . S
C1228 N1227 1.351 . S
C1228 C1229 1.434 . S
C1229 C1220 1.429 . S
C1229 N1226 1.350 . S
C1229 C1228 1.434 . S
C1230 C1231 1.369 . S
C1230 C1232 1.419 1_455 S
C1230 H1234 0.930 . S
C1231 C1230 1.369 . S
C1231 C1240 1.429 . S
C1232 C1230 1.419 1_655 S
C1232 C1233 1.363 . S
C1232 H1235 0.929 . S
C1233 C1232 1.363 . S
C1233 C1239 1.428 . S
H1234 C1230 0.930 . S
H1235 C1232 0.929 . S
S1236 N1237 1.613 . S
S1236 N1238 1.610 1_455 S
N1237 S1236 1.613 . S
N1237 C1240 1.350 . S
N1238 S1236 1.610 1_655 S
N1238 C1239 1.351 . S
C1239 C1233 1.428 . S
C1239 N1238 1.351 . S
C1239 C1240 1.434 1_655 S
C1240 C1231 1.429 . S
C1240 N1237 1.350 . S
C1240 C1239 1.434 1_455 S
C1241 C1242 1.369 . S
C1241 C1243 1.419 . S
C1241 H1245 0.930 . S
C1242 C1241 1.369 . S
C1242 C1251 1.429 . S
C1243 C1241 1.419 . S
C1243 C1244 1.363 . S
C1243 H1246 0.929 . S
C1244 C1243 1.363 . S
C1244 C1250 1.428 . S
H1245 C1241 0.930 . S
H1246 C1243 0.929 . S
S1247 N1248 1.613 . S
S1247 N1249 1.610 . S
N1248 S1247 1.613 . S
N1248 C1251 1.350 . S
N1249 S1247 1.610 . S
N1249 C1250 1.351 . S
C1250 C1244 1.428 . S
C1250 N1249 1.351 . S
C1250 C1251 1.434 . S
C1251 C1242 1.429 . S
C1251 N1248 1.350 . S
C1251 C1250 1.434 . S
C1252 C1253 1.369 . S
C1252 C1254 1.419 1_545 S
C1252 H1256 0.930 . S
C1253 C1252 1.369 . S
C1253 C1262 1.429 . S
C1254 C1252 1.419 1_565 S
C1254 C1255 1.363 . S
C1254 H1257 0.929 . S
C1255 C1254 1.363 . S
C1255 C1261 1.428 . S
H1256 C1252 0.930 . S
H1257 C1254 0.929 . S
S1258 N1259 1.613 . S
S1258 N1260 1.610 1_545 S
N1259 S1258 1.613 . S
N1259 C1262 1.350 . S
N1260 S1258 1.610 1_565 S
N1260 C1261 1.351 . S
C1261 C1255 1.428 . S
C1261 N1260 1.351 . S
C1261 C1262 1.434 1_565 S
C1262 C1253 1.429 . S
C1262 N1259 1.350 . S
C1262 C1261 1.434 1_545 S
C1263 C1264 1.364 1_565 S
C1263 C1265 1.423 . S
C1263 H1267 0.931 1_565 S
C1264 C1263 1.364 1_545 S
C1264 C1273 1.429 1_556 S
C1265 C1263 1.423 . S
C1265 C1266 1.363 1_556 S
C1265 H1268 0.929 . S
C1266 C1265 1.363 1_554 S
C1266 C1272 1.428 . S
H1267 C1263 0.931 1_545 S
H1268 C1265 0.929 . S
S1269 N1270 1.613 . S
S1269 N1271 1.610 1_545 S
N1270 S1269 1.613 . S
N1270 C1273 1.350 . S
N1271 S1269 1.610 1_565 S
N1271 C1272 1.351 . S
C1272 C1266 1.428 . S
C1272 N1271 1.351 . S
C1272 C1273 1.434 1_565 S
C1273 C1264 1.429 1_554 S
C1273 N1270 1.350 . S
C1273 C1272 1.434 1_545 S
C1274 C1275 1.369 . S
C1274 C1276 1.419 1_655 S
C1274 H1278 0.930 . S
C1275 C1274 1.369 . S
C1275 C1284 1.429 1_556 S
C1276 C1274 1.419 1_455 S
C1276 C1277 1.363 1_556 S
C1276 H1279 0.929 . S
C1277 C1276 1.363 1_554 S
C1277 C1283 1.428 . S
H1278 C1274 0.930 . S
H1279 C1276 0.929 . S
S1280 N1281 1.613 . S
S1280 N1282 1.610 1_655 S
N1281 S1280 1.613 . S
N1281 C1284 1.350 . S
N1282 S1280 1.610 1_455 S
N1282 C1283 1.351 . S
C1283 C1277 1.428 . S
C1283 N1282 1.351 . S
C1283 C1284 1.434 1_455 S
C1284 C1275 1.429 1_554 S
C1284 N1281 1.350 . S
C1284 C1283 1.434 1_655 S
C1285 C1286 1.369 1_554 S
C1285 C1287 1.419 . S
C1285 H1289 0.930 . S
C1286 C1285 1.369 1_556 S
C1286 C1295 1.429 . S
C1287 C1285 1.419 . S
C1287 C1288 1.363 . S
C1287 H1290 0.929 . S
C1288 C1287 1.363 . S
C1288 C1294 1.428 1_554 S
H1289 C1285 0.930 . S
H1290 C1287 0.929 . S
S1291 N1292 1.613 . S
S1291 N1293 1.610 . S
N1292 S1291 1.613 . S
N1292 C1295 1.350 . S
N1293 S1291 1.610 . S
N1293 C1294 1.351 . S
C1294 C1288 1.428 1_556 S
C1294 N1293 1.351 . S
C1294 C1295 1.434 . S
C1295 C1286 1.429 . S
C1295 N1292 1.350 . S
C1295 C1294 1.434 . S
C505 C13 1.191 . S
C507 C106 1.209 . S
C516 C27 1.184 . S
C518 C120 1.202 . S
C527 C92 1.208 . S
C529 C41 1.192 . S
C538 C162 1.201 . S
C540 C55 1.184 . S
C549 C69 1.186 . S
C551 C134 1.203 . S
C560 C83 1.188 . S
C562 C148 1.204 . S
C571 C22 1.349 . S
C573 C91 1.414 . S
C582 C36 1.347 . S
C584 C105 1.411 . S
C593 C119 1.411 . S
C595 C8 1.348 . S
C604 C133 1.413 . S
C606 C78 1.349 . S
C615 C50 1.351 . S
C617 C147 1.415 . S
C626 C161 1.415 . S
C628 C64 1.352 . S
C637 C274 1.202 . S
C639 C181 1.184 . S
C648 C195 1.187 . S
C650 C288 1.207 . S
C659 C209 1.183 . S
C661 C260 1.203 . S
C670 C330 1.209 . S
C672 C223 1.193 . S
C681 C237 1.193 . S
C683 C302 1.211 . S
C692 C316 1.201 . S
C694 C251 1.186 . S
C703 C190 1.352 . S
C705 C259 1.410 . S
C714 C273 1.415 . S
C716 C204 1.357 . S
C725 C176 1.354 . S
C727 C287 1.415 . S
C736 C301 1.410 . S
C738 C246 1.353 . S
C747 C315 1.411 . S
C749 C218 1.356 . S
C758 C329 1.410 . S
C760 C232 1.352 . S
C769 C442 1.207 . S
C771 C349 1.188 . S
C780 C456 1.202 . S
C782 C363 1.187 . S
C791 C428 1.213 . S
C793 C377 1.195 . S
C802 C391 1.196 . S
C804 C498 1.211 . S
C813 C405 1.196 . S
C815 C470 1.211 . S
C824 C484 1.212 . S
C826 C419 1.193 . S
C835 C427 1.415 . S
C837 C358 1.351 . S
C846 C372 1.358 . S
C848 C441 1.414 . S
C857 C344 1.347 . S
C859 C455 1.411 . S
C868 C469 1.413 . S
C870 C414 1.357 . S
C879 C483 1.410 . S
C881 C386 1.351 . S
C890 C497 1.414 . S
C892 C400 1.350 . S
C901 C49 1.289 . S
C903 C7 1.279 . S
C912 C63 1.286 . S
C914 C21 1.282 . S
C923 C35 1.288 . S
C925 C77 1.280 . S
C934 C139 1.331 . S
C936 C97 1.319 . S
C945 C153 1.328 . S
C947 C111 1.318 . S
C956 C167 1.322 . S
C958 C125 1.319 . S
C967 C217 1.284 . S
C969 C175 1.283 . S
C978 C231 1.280 . S
C980 C189 1.286 . S
C989 C203 1.289 . S
C991 C245 1.279 . S
C1000 C307 1.329 . S
C1002 C265 1.318 . S
C1011 C321 1.322 . S
C1013 C279 1.319 . S
C1022 C335 1.316 . S
C1024 C293 1.324 . S
C1033 C385 1.283 . S
C1035 C343 1.284 . S
C1044 C357 1.279 . S
C1046 C399 1.286 . S
C1055 C413 1.283 . S
C1057 C371 1.284 . S
C1066 C433 1.330 . S
C1068 C475 1.325 . S
C1077 C447 1.322 . S
C1079 C489 1.330 . S
C1088 C461 1.324 . S
C1090 C503 1.329 . S
C1099 C11 1.474 . S
C1101 C263 1.503 . S
C1110 C277 1.501 . S
C1112 C25 1.477 . S
C1121 C291 1.504 . S
C1123 C39 1.477 . S
C1132 C473 1.502 . S
C1134 C53 1.479 . S
C1143 C487 1.505 . S
C1145 C67 1.475 . S
C1154 C501 1.505 . S
C1156 C81 1.475 . S
C1165 C95 1.503 . S
C1167 C347 1.475 . S
C1176 C361 1.472 . S
C1178 C109 1.504 . S
C1187 C375 1.480 . S
C1189 C123 1.502 . S
C1198 C137 1.501 . S
C1200 C221 1.479 . S
C1209 C151 1.503 . S
C1211 C235 1.475 . S
C1220 C165 1.504 . S
C1222 C249 1.474 . S
C1231 C431 1.502 . S
C1233 C179 1.479 . S
C1242 C445 1.502 . S
C1244 C193 1.479 . S
C1253 C207 1.474 . S
C1255 C459 1.503 . S
C1264 C305 1.501 . S
C1266 C389 1.479 . S
C1275 C319 1.502 . S
C1277 C403 1.476 . S
C1286 C333 1.505 . S
C1288 C417 1.474 . S
