# Generated by pormake.
# Topology wme, (6)-cn, num edge types: 1
# Building blocks:
#     Node 0, Type 0, BuildingBlock: PAMTUU_clean_sbu_0, # of connection points: 6
#     Node 1, Type 0, BuildingBlock: PAMTUU_clean_sbu_0, # of connection points: 6
#     Node 2, Type 0, BuildingBlock: PAMTUU_clean_sbu_0, # of connection points: 6
#     Node 3, Type 0, BuildingBlock: PAMTUU_clean_sbu_0, # of connection points: 6
#     Node 4, Type 0, BuildingBlock: PAMTUU_clean_sbu_0, # of connection points: 6
#     Node 5, Type 0, BuildingBlock: PAMTUU_clean_sbu_0, # of connection points: 6
#     Node 6, Type 0, BuildingBlock: PAMTUU_clean_sbu_0, # of connection points: 6
#     Node 7, Type 0, BuildingBlock: PAMTUU_clean_sbu_0, # of connection points: 6
#     Node 8, Type 0, BuildingBlock: PAMTUU_clean_sbu_0, # of connection points: 6
#     Node 9, Type 0, BuildingBlock: PAMTUU_clean_sbu_0, # of connection points: 6
#     Node 10, Type 0, BuildingBlock: PAMTUU_clean_sbu_0, # of connection points: 6
#     Node 11, Type 0, BuildingBlock: PAMTUU_clean_sbu_0, # of connection points: 6
#     Edge 12, Type (0, 0), BuildingBlock: UVAHIK_clean_linker_0, # of connection points: 2
#     Edge 13, Type (0, 0), BuildingBlock: UVAHIK_clean_linker_0, # of connection points: 2
#     Edge 14, Type (0, 0), BuildingBlock: UVAHIK_clean_linker_0, # of connection points: 2
#     Edge 15, Type (0, 0), BuildingBlock: UVAHIK_clean_linker_0, # of connection points: 2
#     Edge 16, Type (0, 0), BuildingBlock: UVAHIK_clean_linker_0, # of connection points: 2
#     Edge 17, Type (0, 0), BuildingBlock: UVAHIK_clean_linker_0, # of connection points: 2
#     Edge 18, Type (0, 0), BuildingBlock: UVAHIK_clean_linker_0, # of connection points: 2
#     Edge 19, Type (0, 0), BuildingBlock: UVAHIK_clean_linker_0, # of connection points: 2
#     Edge 20, Type (0, 0), BuildingBlock: UVAHIK_clean_linker_0, # of connection points: 2
#     Edge 21, Type (0, 0), BuildingBlock: UVAHIK_clean_linker_0, # of connection points: 2
#     Edge 22, Type (0, 0), BuildingBlock: UVAHIK_clean_linker_0, # of connection points: 2
#     Edge 23, Type (0, 0), BuildingBlock: UVAHIK_clean_linker_0, # of connection points: 2
#     Edge 24, Type (0, 0), BuildingBlock: UVAHIK_clean_linker_0, # of connection points: 2
#     Edge 25, Type (0, 0), BuildingBlock: UVAHIK_clean_linker_0, # of connection points: 2
#     Edge 26, Type (0, 0), BuildingBlock: UVAHIK_clean_linker_0, # of connection points: 2
#     Edge 27, Type (0, 0), BuildingBlock: UVAHIK_clean_linker_0, # of connection points: 2
#     Edge 28, Type (0, 0), BuildingBlock: UVAHIK_clean_linker_0, # of connection points: 2
#     Edge 29, Type (0, 0), BuildingBlock: UVAHIK_clean_linker_0, # of connection points: 2
#     Edge 30, Type (0, 0), BuildingBlock: UVAHIK_clean_linker_0, # of connection points: 2
#     Edge 31, Type (0, 0), BuildingBlock: UVAHIK_clean_linker_0, # of connection points: 2
#     Edge 32, Type (0, 0), BuildingBlock: UVAHIK_clean_linker_0, # of connection points: 2
#     Edge 33, Type (0, 0), BuildingBlock: UVAHIK_clean_linker_0, # of connection points: 2
#     Edge 34, Type (0, 0), BuildingBlock: UVAHIK_clean_linker_0, # of connection points: 2
#     Edge 35, Type (0, 0), BuildingBlock: UVAHIK_clean_linker_0, # of connection points: 2
#     Edge 36, Type (0, 0), BuildingBlock: UVAHIK_clean_linker_0, # of connection points: 2
#     Edge 37, Type (0, 0), BuildingBlock: UVAHIK_clean_linker_0, # of connection points: 2
#     Edge 38, Type (0, 0), BuildingBlock: UVAHIK_clean_linker_0, # of connection points: 2
#     Edge 39, Type (0, 0), BuildingBlock: UVAHIK_clean_linker_0, # of connection points: 2
#     Edge 40, Type (0, 0), BuildingBlock: UVAHIK_clean_linker_0, # of connection points: 2
#     Edge 41, Type (0, 0), BuildingBlock: UVAHIK_clean_linker_0, # of connection points: 2
#     Edge 42, Type (0, 0), BuildingBlock: UVAHIK_clean_linker_0, # of connection points: 2
#     Edge 43, Type (0, 0), BuildingBlock: UVAHIK_clean_linker_0, # of connection points: 2
#     Edge 44, Type (0, 0), BuildingBlock: UVAHIK_clean_linker_0, # of connection points: 2
#     Edge 45, Type (0, 0), BuildingBlock: UVAHIK_clean_linker_0, # of connection points: 2
#     Edge 46, Type (0, 0), BuildingBlock: UVAHIK_clean_linker_0, # of connection points: 2
#     Edge 47, Type (0, 0), BuildingBlock: UVAHIK_clean_linker_0, # of connection points: 2
# Relax obj value: 0.083
# Max RMSD: 0.189
# Mean RMSD: 0.189
data_MOF--net-wme--node1-PAMTUU_clean_sbu_0--edge1-UVAHIK_clean_linker_0
_symmetry_space_group_name_H-M    P1
_symmetry_Int_Tables_number       1
_symmetry_cell_setting            triclinic
loop_
_symmetry_equiv_pos_as_xyz
'x, y, z'
_cell_length_a     49.025344
_cell_length_b     49.019324
_cell_length_c     69.822511
_cell_angle_alpha  89.985715
_cell_angle_beta   90.144818
_cell_angle_gamma 120.0321
loop_
_atom_site_label
_atom_site_type_symbol
_atom_site_fract_x
_atom_site_fract_y
_atom_site_fract_z
_atom_type_partial_charge
Tb0 Tb 0.23309 0.32445 0.12428 0.0
Tb1 Tb 0.2015 0.36473 0.10723 0.0
C2 C 0.21671 0.36428 0.15139 0.0
C3 C 0.24296 0.25593 0.13371 0.0
C4 C 0.22103 0.1908 0.13023 0.0
C5 C 0.24693 0.21001 0.14211 0.0
C6 C 0.25778 0.24227 0.14381 0.0
C7 C 0.21699 0.23696 0.12194 0.0
C8 C 0.20614 0.20468 0.12019 0.0
C9 C 0.25424 0.28977 0.13579 0.0
O10 O 0.18243 0.29709 0.12951 0.0
O11 O 0.1665 0.31521 0.10419 0.0
O12 O 0.22395 0.35396 0.08353 0.0
O13 O 0.21671 0.30764 0.09562 0.0
O14 O 0.16193 0.37061 0.10566 0.0
O15 O 0.20364 0.39995 0.08909 0.0
O16 O 0.24778 0.39992 0.11705 0.0
O17 O 0.27228 0.37039 0.11519 0.0
O18 O 0.23759 0.35603 0.14708 0.0
O19 O 0.19669 0.36385 0.13855 0.0
C20 C 0.16044 0.29398 0.11745 0.0
O21 O 0.26336 0.30627 0.12005 0.0
O22 O 0.23648 0.2968 0.1461 0.0
C23 C 0.22258 0.32669 0.08118 0.0
C24 C 0.17248 0.42203 0.09854 0.0
C25 C 0.16569 0.47503 0.10578 0.0
C26 C 0.14628 0.45207 0.09232 0.0
C27 C 0.14969 0.4259 0.08874 0.0
C28 C 0.19162 0.44446 0.11226 0.0
C29 C 0.18824 0.47077 0.11586 0.0
C30 C 0.17572 0.39448 0.09403 0.0
C31 C 0.27345 0.3979 0.11601 0.0
H32 H 0.25863 0.20006 0.15031 0.0
H33 H 0.27768 0.25654 0.15309 0.0
H34 H 0.20517 0.24715 0.11408 0.0
H35 H 0.18637 0.1907 0.11078 0.0
H36 H 0.12832 0.45424 0.08455 0.0
H37 H 0.13455 0.40869 0.07821 0.0
H38 H 0.2093 0.44178 0.12001 0.0
H39 H 0.20373 0.48811 0.12622 0.0
Tb40 Tb 0.92139 0.22638 0.62538 0.0
Tb41 Tb 0.84871 0.19608 0.60952 0.0
C42 C 0.86628 0.20983 0.65373 0.0
C43 C 1.00016 0.23572 0.63301 0.0
C44 C 0.04281 0.21328 0.62894 0.0
C45 C 0.05026 0.23955 0.64063 0.0
C46 C 0.02913 0.25065 0.64261 0.0
C47 C 0.99243 0.20943 0.6214 0.0
C48 C 1.01358 0.19831 0.61937 0.0
C49 C 0.97786 0.24718 0.63556 0.0
O50 O 0.89794 0.17572 0.63046 0.0
O51 O 0.86183 0.16008 0.60618 0.0
O52 O 0.88124 0.21863 0.58555 0.0
O53 O 0.91964 0.2095 0.5966 0.0
O54 O 0.80292 0.15697 0.60794 0.0
O55 O 0.81555 0.19953 0.59213 0.0
O56 O 0.86087 0.24205 0.62031 0.0
O57 O 0.91471 0.26606 0.61735 0.0
O58 O 0.89572 0.22969 0.64937 0.0
O59 O 0.84538 0.19151 0.64082 0.0
C60 C 0.87768 0.15378 0.61887 0.0
O61 O 0.96964 0.25605 0.62001 0.0
O62 O 0.95366 0.22975 0.64637 0.0
C63 C 0.90638 0.2162 0.58255 0.0
C64 C 0.76268 0.16912 0.60266 0.0
C65 C 0.70395 0.16294 0.61232 0.0
C66 C 0.70548 0.13935 0.60172 0.0
C67 C 0.73455 0.14246 0.59693 0.0
C68 C 0.76141 0.19262 0.61345 0.0
C69 C 0.73226 0.18961 0.61818 0.0
C70 C 0.79283 0.17171 0.59708 0.0
C71 C 0.88866 0.26755 0.61908 0.0
H72 H 0.07229 0.25132 0.64847 0.0
H73 H 0.03534 0.2708 0.65176 0.0
H74 H 0.97002 0.19752 0.61394 0.0
H75 H 1.00719 0.17825 0.61013 0.0
H76 H 0.68418 0.11873 0.59677 0.0
H77 H 0.73508 0.12408 0.58859 0.0
H78 H 0.7829 0.2133 0.61815 0.0
H79 H 0.73187 0.20804 0.62651 0.0
Tb80 Tb 0.70537 0.91839 0.12953 0.0
Tb81 Tb 0.66848 0.84608 0.11173 0.0
C82 C 0.66715 0.8583 0.15588 0.0
C83 C 0.77233 0.99893 0.13875 0.0
C84 C 0.83662 0.04483 0.13462 0.0
C85 C 0.82022 0.04328 0.15147 0.0
C86 C 0.78837 0.02059 0.15348 0.0
C87 C 0.78857 1.0003 0.12189 0.0
C88 C 0.82038 0.02318 0.1198 0.0
C89 C 0.73916 0.97433 0.14152 0.0
O90 O 0.74098 0.90757 0.11922 0.0
O91 O 0.71254 0.85457 0.12411 0.0
O92 O 0.69669 0.87923 0.089 0.0
O93 O 0.69195 0.92007 0.10038 0.0
O94 O 0.66172 0.80029 0.11125 0.0
O95 O 0.63907 0.81476 0.09036 0.0
O96 O 0.63338 0.86069 0.11301 0.0
O97 O 0.65576 0.904 0.13332 0.0
O98 O 0.6914 0.88683 0.15381 0.0
O99 O 0.65212 0.83978 0.14127 0.0
C100 C 0.73967 0.88056 0.1224 0.0
O101 O 0.72075 0.96665 0.1266 0.0
O102 O 0.73475 0.94953 0.15092 0.0
C103 C 0.69721 0.90602 0.08621 0.0
C104 C 0.61261 0.76094 0.0993 0.0
C105 C 0.55837 0.70096 0.10396 0.0
C106 C 0.57956 0.70671 0.08887 0.0
C107 C 0.60638 0.73637 0.08659 0.0
C108 C 0.59144 0.75563 0.11425 0.0
C109 C 0.56451 0.72589 0.11655 0.0
C110 C 0.64185 0.79143 0.09703 0.0
C111 C 0.63148 0.88175 0.1238 0.0
H112 H 0.83197 0.0598 0.16306 0.0
H113 H 0.7763 0.0198 0.16662 0.0
H114 H 0.77675 0.98353 0.11042 0.0
H115 H 0.83243 0.02354 0.10674 0.0
H116 H 0.57535 0.6883 0.07871 0.0
H117 H 0.62244 0.74006 0.07495 0.0
H118 H 0.59594 0.77433 0.12426 0.0
H119 H 0.54887 0.72226 0.12842 0.0
Tb120 Tb 0.79621 0.69759 0.62872 0.0
Tb121 Tb 0.82683 0.65698 0.61022 0.0
C122 C 0.81401 0.6571 0.65486 0.0
C123 C 0.78407 0.76525 0.63838 0.0
C124 C 0.80253 0.82965 0.6347 0.0
C125 C 0.79061 0.81375 0.65214 0.0
C126 C 0.7814 0.78185 0.65393 0.0
C127 C 0.79619 0.78108 0.62096 0.0
C128 C 0.80515 0.81292 0.61911 0.0
C129 C 0.77479 0.73178 0.64071 0.0
O130 O 0.847 0.72508 0.63336 0.0
O131 O 0.86228 0.70644 0.60797 0.0
O132 O 0.80339 0.6684 0.58737 0.0
O133 O 0.81192 0.7148 0.60008 0.0
O134 O 0.86616 0.65108 0.60711 0.0
O135 O 0.82315 0.62163 0.59153 0.0
O136 O 0.78135 0.62201 0.62094 0.0
O137 O 0.75682 0.65156 0.61985 0.0
O138 O 0.79381 0.6667 0.65148 0.0
O139 O 0.83252 0.65643 0.64138 0.0
C140 C 0.86875 0.7276 0.62136 0.0
O141 O 0.76438 0.71409 0.62544 0.0
O142 O 0.79425 0.72628 0.65046 0.0
C143 C 0.80515 0.6959 0.58544 0.0
C144 C 0.85522 0.59974 0.59936 0.0
C145 C 0.86475 0.54829 0.60626 0.0
C146 C 0.8773 0.56714 0.58984 0.0
C147 C 0.87257 0.59257 0.58646 0.0
C148 C 0.84243 0.58102 0.61573 0.0
C149 C 0.8471 0.55544 0.61914 0.0
C150 C 0.85149 0.62721 0.59551 0.0
C151 C 0.75569 0.62407 0.62053 0.0
H152 H 0.78803 0.82589 0.66435 0.0
H153 H 0.77221 0.77011 0.6675 0.0
H154 H 0.79884 0.76889 0.60879 0.0
H155 H 0.8146 0.82458 0.60556 0.0
H156 H 0.89052 0.56205 0.57946 0.0
H157 H 0.88257 0.60675 0.57372 0.0
H158 H 0.82906 0.58633 0.6259 0.0
H159 H 0.83733 0.54159 0.63199 0.0
Tb160 Tb 0.10991 0.79624 0.12272 0.0
Tb161 Tb 0.18393 0.83103 0.10861 0.0
C162 C 0.16572 0.82454 0.15178 0.0
C163 C 0.03099 0.78514 0.13408 0.0
C164 C 0.98963 0.80953 0.1363 0.0
C165 C 0.02246 0.82968 0.13778 0.0
C166 C 0.04296 0.81758 0.13665 0.0
C167 C 0.99836 0.76494 0.13292 0.0
C168 C 0.97787 0.77696 0.13403 0.0
C169 C 0.05213 0.77246 0.13064 0.0
O170 O 0.12149 0.84338 0.11311 0.0
O171 O 0.17515 0.86836 0.11673 0.0
O172 O 0.15311 0.82641 0.08453 0.0
O173 O 0.11412 0.77946 0.09494 0.0
O174 O 0.2305 0.86818 0.11114 0.0
O175 O 0.21713 0.83369 0.08854 0.0
O176 O 0.16957 0.78151 0.1108 0.0
O177 O 0.12361 0.76086 0.1286 0.0
O178 O 0.13911 0.82294 0.14678 0.0
O179 O 0.18392 0.82155 0.13914 0.0
C180 C 0.14904 0.86926 0.11478 0.0
O181 O 0.06322 0.77659 0.1133 0.0
O182 O 0.07391 0.77855 0.14345 0.0
C183 C 0.12771 0.79935 0.08099 0.0
C184 C 0.26975 0.85799 0.09987 0.0
C185 C 0.32789 0.86038 0.10598 0.0
C186 C 0.32534 0.88059 0.09269 0.0
C187 C 0.29658 0.87936 0.08968 0.0
C188 C 0.27193 0.83769 0.11317 0.0
C189 C 0.30081 0.83888 0.11621 0.0
C190 C 0.24024 0.85833 0.0968 0.0
C191 C 0.14704 0.75866 0.12089 0.0
H192 H 0.03235 0.8548 0.13974 0.0
H193 H 0.06815 0.8336 0.13741 0.0
H194 H 0.98873 0.7399 0.13064 0.0
H195 H 0.95283 0.76077 0.13249 0.0
H196 H 0.34573 0.89779 0.0848 0.0
H197 H 0.29536 0.89539 0.07948 0.0
H198 H 0.25139 0.82108 0.12122 0.0
H199 H 0.30186 0.82279 0.12641 0.0
Tb200 Tb 0.32468 0.09993 0.62319 0.0
Tb201 Tb 0.36341 0.17371 0.60849 0.0
C202 C 0.35361 0.15602 0.65193 0.0
C203 C 0.25875 0.01949 0.63522 0.0
C204 C 0.19403 0.97406 0.6367 0.0
C205 C 0.21703 0.96492 0.63752 0.0
C206 C 0.24906 0.98743 0.63676 0.0
C207 C 0.23604 0.02895 0.63507 0.0
C208 C 0.20391 1.0064 0.63587 0.0
C209 C 0.2922 0.04219 0.63179 0.0
O210 O 0.28866 0.11096 0.61369 0.0
O211 O 0.31743 0.16466 0.61712 0.0
O212 O 0.33671 0.14238 0.58474 0.0
O213 O 0.34515 0.10377 0.5953 0.0
O214 O 0.37224 0.22009 0.6105 0.0
O215 O 0.39349 0.20665 0.58807 0.0
O216 O 0.39885 0.15965 0.61055 0.0
O217 O 0.37391 0.11436 0.62899 0.0
O218 O 0.32822 0.12952 0.64721 0.0
O219 O 0.37396 0.17439 0.63894 0.0
C220 C 0.29038 0.13854 0.61523 0.0
O221 O 0.29884 0.05287 0.61434 0.0
O222 O 0.3068 0.06459 0.64438 0.0
C223 C 0.33851 0.11706 0.58131 0.0
C224 C 0.42116 0.25975 0.59868 0.0
C225 C 0.47489 0.31968 0.60442 0.0
C226 C 0.45515 0.31383 0.58845 0.0
C227 C 0.42858 0.28419 0.58564 0.0
C228 C 0.44106 0.26508 0.61443 0.0
C229 C 0.46776 0.29482 0.61727 0.0
C230 C 0.39162 0.22971 0.59605 0.0
C231 C 0.39937 0.13749 0.62096 0.0
H232 H 0.21024 0.94027 0.63846 0.0
H233 H 0.26627 0.97971 0.63681 0.0
H234 H 0.24314 0.05364 0.63374 0.0
H235 H 0.18681 0.01421 0.63508 0.0
H236 H 0.46022 0.33221 0.57809 0.0
H237 H 0.41349 0.28047 0.57338 0.0
H238 H 0.43561 0.24646 0.6247 0.0
H239 H 0.48233 0.29856 0.62978 0.0
Tb240 Tb 0.70069 0.79099 0.38311 0.0
Tb241 Tb 0.65971 0.82229 0.39949 0.0
C242 C 0.6609 0.80695 0.35549 0.0
C243 C 0.77043 0.78249 0.37468 0.0
C244 C 0.83552 0.80452 0.37953 0.0
C245 C 0.81308 0.77236 0.38184 0.0
C246 C 0.78093 0.76148 0.37936 0.0
C247 C 0.79261 0.81469 0.37264 0.0
C248 C 0.82481 0.82556 0.37493 0.0
C249 C 0.73634 0.77061 0.3725 0.0
O250 O 0.72784 0.84162 0.37789 0.0
O251 O 0.70911 0.85737 0.40292 0.0
O252 O 0.66978 0.79981 0.42348 0.0
O253 O 0.71643 0.80717 0.41199 0.0
O254 O 0.65359 0.86176 0.40066 0.0
O255 O 0.62392 0.81993 0.4171 0.0
O256 O 0.62501 0.77599 0.38948 0.0
O257 O 0.65462 0.75158 0.39168 0.0
O258 O 0.66956 0.78638 0.35988 0.0
O259 O 0.6612 0.82702 0.3682 0.0
C260 C 0.73062 0.86352 0.38988 0.0
O261 O 0.71983 0.76163 0.38822 0.0
O262 O 0.72832 0.78709 0.3616 0.0
C263 C 0.69694 0.80115 0.42619 0.0
C264 C 0.60148 0.85023 0.40628 0.0
C265 C 0.54869 0.85624 0.39677 0.0
C266 C 0.57385 0.87978 0.40743 0.0
C267 C 0.59993 0.87675 0.41215 0.0
C268 C 0.57667 0.82678 0.39542 0.0
C269 C 0.55043 0.82971 0.39076 0.0
C270 C 0.62911 0.84764 0.4118 0.0
C271 C 0.62712 0.75036 0.39053 0.0
H272 H 0.82027 0.75552 0.38578 0.0
H273 H 0.76421 0.73663 0.38123 0.0
H274 H 0.78511 0.8315 0.36922 0.0
H275 H 0.8413 0.85039 0.37284 0.0
H276 H 0.57311 0.90028 0.4125 0.0
H277 H 0.61886 0.89508 0.42054 0.0
H278 H 0.57753 0.80621 0.39062 0.0
H279 H 0.5316 0.81133 0.38236 0.0
Tb280 Tb 0.92627 0.69823 0.88196 0.0
Tb281 Tb 0.85321 0.65954 0.89782 0.0
C282 C 0.86829 0.66278 0.85432 0.0
C283 C 1.00636 0.76542 0.87267 0.0
C284 C 0.0511 0.83029 0.87541 0.0
C285 C 0.0501 0.81282 0.85917 0.0
C286 C 0.02798 0.78066 0.85785 0.0
C287 C 1.00708 0.78281 0.88885 0.0
C288 C 0.02939 0.8149 0.89026 0.0
C289 C 0.98261 0.73176 0.87076 0.0
O290 O 0.91507 0.7339 0.89163 0.0
O291 O 0.86189 0.70441 0.88679 0.0
O292 O 0.88362 0.68919 0.92111 0.0
O293 O 0.92668 0.68654 0.91175 0.0
O294 O 0.80672 0.65041 0.89592 0.0
O295 O 0.82062 0.62987 0.91854 0.0
O296 O 0.87116 0.62711 0.8995 0.0
O297 O 0.91194 0.64865 0.87771 0.0
O298 O 0.89482 0.68881 0.85792 0.0
O299 O 0.85068 0.64416 0.86819 0.0
C300 C 0.88754 0.73181 0.88894 0.0
O301 O 0.97454 0.71515 0.88642 0.0
O302 O 0.95815 0.72544 0.86031 0.0
C303 C 0.91084 0.69135 0.92501 0.0
C304 C 0.76734 0.60173 0.90823 0.0
C305 C 0.70728 0.54791 0.90305 0.0
C306 C 0.71373 0.5675 0.91914 0.0
C307 C 0.74344 0.59412 0.92168 0.0
C308 C 0.76142 0.58196 0.89235 0.0
C309 C 0.73163 0.55521 0.8898 0.0
C310 C 0.79738 0.63141 0.91055 0.0
C311 C 0.8917 0.62496 0.88842 0.0
H312 H 0.06668 0.82395 0.84757 0.0
H313 H 0.02768 0.7677 0.84521 0.0
H314 H 0.9903 0.77163 0.90036 0.0
H315 H 0.02932 0.82781 0.90283 0.0
H316 H 0.69576 0.56229 0.9298 0.0
H317 H 0.7476 0.60911 0.93403 0.0
H318 H 0.7796 0.58756 0.88177 0.0
H319 H 0.72741 0.54076 0.87719 0.0
Tb320 Tb 0.23103 0.9171 0.38506 0.0
Tb321 Tb 0.19541 0.84264 0.398 0.0
C322 C 0.20324 0.86263 0.35512 0.0
C323 C 0.24571 0.99781 0.37387 0.0
C324 C 0.2264 0.04313 0.3718 0.0
C325 C 0.25852 0.05225 0.37075 0.0
C326 C 0.26805 0.02978 0.37181 0.0
C327 C 0.21354 0.98835 0.37426 0.0
C328 C 0.20394 0.01084 0.37316 0.0
C329 C 0.25651 0.97522 0.37756 0.0
O330 O 0.18368 0.90553 0.39425 0.0
O331 O 0.15875 0.85216 0.38932 0.0
O332 O 0.19928 0.87266 0.4223 0.0
O333 O 0.24686 0.9118 0.41295 0.0
O334 O 0.15819 0.79626 0.39491 0.0
O335 O 0.19159 0.80892 0.41814 0.0
O336 O 0.24488 0.85649 0.39639 0.0
O337 O 0.26591 0.90293 0.37907 0.0
O338 O 0.20477 0.889 0.36058 0.0
O339 O 0.20559 0.84363 0.3675 0.0
C340 C 0.15783 0.8782 0.39168 0.0
O341 O 0.25112 0.96359 0.39481 0.0
O342 O 0.25 0.95359 0.36462 0.0
C343 C 0.22636 0.89757 0.4265 0.0
C344 C 0.16683 0.75625 0.40693 0.0
C345 C 0.16119 0.69662 0.40128 0.0
C346 C 0.14685 0.70217 0.41707 0.0
C347 C 0.14964 0.73167 0.41983 0.0
C348 C 0.18187 0.75123 0.39137 0.0
C349 C 0.17911 0.72163 0.38858 0.0
C350 C 0.16714 0.78615 0.40955 0.0
C351 C 0.26797 0.8793 0.3866 0.0
H352 H 0.27636 0.07686 0.36941 0.0
H353 H 0.29298 0.03748 0.37156 0.0
H354 H 0.19597 0.96373 0.37602 0.0
H355 H 0.17906 1.00307 0.37415 0.0
H356 H 0.1334 0.68367 0.42732 0.0
H357 H 0.13794 0.73517 0.43194 0.0
H358 H 0.1952 0.76999 0.38123 0.0
H359 H 0.1903 0.71809 0.37623 0.0
Tb360 Tb 0.32835 0.22795 0.87976 0.0
Tb361 Tb 0.36851 0.19677 0.89801 0.0
C362 C 0.36684 0.20861 0.85345 0.0
C363 C 0.26099 0.23996 0.86899 0.0
C364 C 0.19643 0.22096 0.87176 0.0
C365 C 0.21342 0.23534 0.85498 0.0
C366 C 0.24542 0.24481 0.85365 0.0
C367 C 0.24408 0.22536 0.88572 0.0
C368 C 0.21214 0.21611 0.88713 0.0
C369 C 0.2945 0.2494 0.86712 0.0
O370 O 0.30037 0.17698 0.87579 0.0
O371 O 0.31904 0.1621 0.9014 0.0
O372 O 0.35778 0.22035 0.92108 0.0
O373 O 0.31169 0.21345 0.90862 0.0
O374 O 0.37478 0.15758 0.90065 0.0
O375 O 0.40401 0.20027 0.91658 0.0
O376 O 0.40347 0.24218 0.88707 0.0
O377 O 0.37443 0.26715 0.88865 0.0
O378 O 0.35922 0.23017 0.85715 0.0
O379 O 0.36668 0.18957 0.86688 0.0
C380 C 0.29752 0.15557 0.88822 0.0
O381 O 0.31165 0.25968 0.88263 0.0
O382 O 0.30028 0.22998 0.85761 0.0
C383 C 0.33071 0.2195 0.92316 0.0
C384 C 0.42733 0.16961 0.90775 0.0
C385 C 0.47965 0.16069 0.90251 0.0
C386 C 0.47951 0.18008 0.91732 0.0
C387 C 0.45364 0.18437 0.91994 0.0
C388 C 0.42756 0.15054 0.89275 0.0
C389 C 0.45343 0.14612 0.89018 0.0
C390 C 0.39919 0.17244 0.91189 0.0
C391 C 0.40176 0.26803 0.88779 0.0
H392 H 0.20206 0.23966 0.84298 0.0
H393 H 0.25803 0.2559 0.84059 0.0
H394 H 0.25552 0.22099 0.89767 0.0
H395 H 0.19962 0.20477 0.90014 0.0
H396 H 0.49908 0.19129 0.92726 0.0
H397 H 0.45395 0.19879 0.93178 0.0
H398 H 0.4076 0.13864 0.88314 0.0
H399 H 0.4529 0.13129 0.87852 0.0
Tb400 Tb 0.10447 0.31903 0.3789 0.0
Tb401 Tb 0.1763 0.35936 0.39669 0.0
C402 C 0.16194 0.35815 0.3522 0.0
C403 C 0.02445 0.25174 0.36955 0.0
C404 C 0.97897 0.18728 0.37331 0.0
C405 C 0.98184 0.20335 0.35607 0.0
C406 C 1.00432 0.2353 0.35424 0.0
C407 C 0.02181 0.23576 0.38677 0.0
C408 C 0.99915 0.20387 0.38867 0.0
C409 C 0.0486 0.28516 0.36713 0.0
O410 O 0.12716 0.29098 0.37437 0.0
O411 O 0.16164 0.30987 0.39956 0.0
O412 O 0.14231 0.3488 0.41986 0.0
O413 O 0.10332 0.30241 0.40769 0.0
O414 O 0.22157 0.36508 0.3993 0.0
O415 O 0.20866 0.39467 0.41518 0.0
O416 O 0.16593 0.39445 0.38594 0.0
O417 O 0.11187 0.36533 0.38762 0.0
O418 O 0.13252 0.34956 0.35596 0.0
O419 O 0.18135 0.35854 0.36549 0.0
C420 C 0.14652 0.28848 0.38634 0.0
O421 O 0.05625 0.30286 0.38241 0.0
O422 O 0.07333 0.29049 0.35726 0.0
C423 C 0.11634 0.32158 0.42213 0.0
C424 C 0.26239 0.41629 0.40706 0.0
C425 C 0.3232 0.46803 0.40029 0.0
C426 C 0.31756 0.44784 0.41596 0.0
C427 C 0.28748 0.42226 0.41928 0.0
C428 C 0.26767 0.43626 0.39139 0.0
C429 C 0.29785 0.46199 0.38806 0.0
C430 C 0.23118 0.38892 0.41096 0.0
C431 C 0.13834 0.39267 0.38664 0.0
H432 H 0.96646 0.19129 0.34405 0.0
H433 H 1.00609 0.24718 0.34082 0.0
H434 H 0.03736 0.24785 0.39873 0.0
H435 H 0.99776 0.19206 0.40205 0.0
H436 H 0.33632 0.45204 0.42585 0.0
H437 H 0.28378 0.40711 0.43147 0.0
H438 H 0.24854 0.43189 0.38176 0.0
H439 H 0.30143 0.4769 0.37577 0.0
Tb440 Tb 0.79927 0.10086 0.88061 0.0
Tb441 Tb 0.83006 0.17257 0.89829 0.0
C442 C 0.81489 0.15752 0.85394 0.0
C443 C 0.79066 0.02282 0.87083 0.0
C444 C 0.8128 0.97971 0.87466 0.0
C445 C 0.8325 0.01014 0.86733 0.0
C446 C 0.82162 0.0315 0.8655 0.0
C447 C 0.77102 0.99258 0.87825 0.0
C448 C 0.78197 0.97129 0.88021 0.0
C449 C 0.77878 0.04513 0.86924 0.0
O450 O 0.84994 0.12489 0.87508 0.0
O451 O 0.86615 0.1595 0.90021 0.0
O452 O 0.80971 0.13871 0.92197 0.0
O453 O 0.8174 0.1007 0.90871 0.0
O454 O 0.86846 0.21863 0.89997 0.0
O455 O 0.82693 0.20434 0.9172 0.0
O456 O 0.78349 0.16045 0.88881 0.0
O457 O 0.75976 0.1065 0.89046 0.0
O458 O 0.79465 0.12805 0.85798 0.0
O459 O 0.83401 0.17748 0.86698 0.0
C460 C 0.87212 0.14442 0.88686 0.0
O461 O 0.77005 0.05221 0.88524 0.0
O462 O 0.79491 0.06992 0.85852 0.0
C463 C 0.81178 0.11307 0.92366 0.0
C464 C 0.85557 0.25786 0.9078 0.0
C465 C 0.86109 0.31726 0.90097 0.0
C466 C 0.86176 0.30718 0.91975 0.0
C467 C 0.85905 0.27783 0.9231 0.0
C468 C 0.85454 0.26754 0.88899 0.0
C469 C 0.8574 0.29707 0.88561 0.0
C470 C 0.85415 0.22768 0.91192 0.0
C471 C 0.75814 0.1326 0.89013 0.0
H472 H 0.85622 0.01734 0.86269 0.0
H473 H 0.83746 0.05478 0.85988 0.0
H474 H 0.7472 0.98547 0.88264 0.0
H475 H 0.7663 0.94831 0.88625 0.0
H476 H 0.86502 0.32226 0.9319 0.0
H477 H 0.86005 0.27085 0.9377 0.0
H478 H 0.85174 0.25241 0.87695 0.0
H479 H 0.85649 0.304 0.871 0.0
C480 C 0.12489 0.90437 0.11626 0.0
C481 C 0.15155 0.90071 0.1152 0.0
C482 C 0.12844 0.93456 0.11806 0.0
C483 C 0.18671 0.01405 0.13499 0.0
H484 H 0.142 0.04471 0.10396 0.0
C485 C 0.23169 0.14593 0.12738 0.0
C486 C 0.20987 0.15652 0.12828 0.0
C487 C 0.22148 0.11381 0.12617 0.0
C488 C 0.15436 0.03633 0.11291 0.0
H489 H 0.20276 0.92614 0.11429 0.0
H490 H 0.2087 0.97792 0.11732 0.0
H491 H 0.1288 0.9895 0.10121 0.0
H492 H 0.16001 0.14142 0.12834 0.0
H493 H 0.14219 0.08514 0.12606 0.0
H494 H 0.21259 0.06062 0.14651 0.0
C495 C 0.18511 0.95767 0.11718 0.0
C496 C 0.14677 1.00475 0.11134 0.0
C497 C 0.18162 0.92783 0.11535 0.0
C498 C 0.17748 0.13411 0.12751 0.0
C499 C 0.16724 0.10186 0.12623 0.0
C500 C 0.19426 0.04542 0.13654 0.0
C501 C 0.15869 0.96144 0.11893 0.0
C502 C 0.16348 0.99355 0.12203 0.0
C503 C 0.18916 0.09135 0.12578 0.0
C504 C 0.17876 0.05717 0.12519 0.0
H505 H 0.1014 0.884 0.11612 0.0
H506 H 0.10764 0.9368 0.11933 0.0
H507 H 0.19952 1.00594 0.14375 0.0
H508 H 0.25678 0.16251 0.12748 0.0
H509 H 0.239 0.10655 0.12541 0.0
C510 C 0.23109 0.11464 0.61665 0.0
C511 C 0.2615 0.14118 0.61548 0.0
C512 C 0.20456 0.1184 0.6182 0.0
C513 C 0.18393 0.17745 0.63422 0.0
H514 H 0.10837 0.1324 0.60331 0.0
C515 C 0.09802 0.22329 0.62548 0.0
C516 C 0.06556 0.20173 0.62682 0.0
C517 C 0.11966 0.21276 0.62434 0.0
C518 C 0.12918 0.14487 0.61221 0.0
H519 H 0.28755 0.19237 0.61407 0.0
H520 H 0.2419 0.19866 0.61667 0.0
H521 H 0.15007 0.11871 0.60102 0.0
H522 H 0.03043 0.152 0.62763 0.0
H523 H 0.06843 0.13359 0.62547 0.0
H524 H 0.16363 0.20395 0.64521 0.0
C525 C 0.23841 0.17501 0.61683 0.0
C526 C 0.15298 0.13699 0.61092 0.0
C527 C 0.26464 0.17132 0.61525 0.0
C528 C 0.05525 0.16926 0.62647 0.0
C529 C 0.07698 0.15869 0.62525 0.0
C530 C 0.16031 0.1853 0.63549 0.0
C531 C 0.20813 0.14874 0.61871 0.0
C532 C 0.18095 0.15381 0.62157 0.0
C533 C 0.10947 0.18037 0.62446 0.0
C534 C 0.13301 0.16968 0.62417 0.0
H535 H 0.22783 0.0911 0.61677 0.0
H536 H 0.18143 0.0977 0.61956 0.0
H537 H 0.20489 0.19035 0.64295 0.0
H538 H 0.10678 0.24842 0.62523 0.0
H539 H 0.14449 0.23007 0.6233 0.0
C540 C 0.88207 0.08602 0.11552 0.0
C541 C 0.87057 0.06886 0.13259 0.0
C542 C 0.91387 0.10908 0.11379 0.0
C543 C 0.98525 0.15957 0.14314 0.0
H544 H 0.02828 0.1729 0.09457 0.0
C545 C 0.11926 0.24584 0.13464 0.0
C546 C 0.12818 0.2663 0.11883 0.0
C547 C 0.08838 0.22058 0.13626 0.0
C548 C 0.01653 0.16957 0.1082 0.0
H549 H 0.88369 0.06182 0.16105 0.0
H550 H 0.93919 0.10152 0.15796 0.0
H551 H 0.97355 0.13097 0.09751 0.0
H552 H 0.11171 0.27572 0.09211 0.0
H553 H 0.05806 0.23162 0.09491 0.0
H554 H 0.02844 0.19806 0.15382 0.0
C555 C 0.92355 0.09784 0.14604 0.0
C556 C 0.98508 0.14559 0.10989 0.0
C557 C 0.89171 0.07499 0.14781 0.0
C558 C 0.10567 0.2605 0.10451 0.0
C559 C 0.07493 0.23509 0.10604 0.0
C560 C 0.01677 0.18336 0.14148 0.0
C561 C 0.93507 0.11538 0.12905 0.0
C562 C 0.96891 0.14038 0.12735 0.0
C563 C 0.06583 0.21499 0.12201 0.0
C564 C 0.03272 0.1888 0.12396 0.0
H565 H 0.86631 0.08211 0.10361 0.0
H566 H 0.92166 0.1224 0.1006 0.0
H567 H 0.97353 0.15672 0.15672 0.0
H568 H 0.13599 0.24958 0.14592 0.0
H569 H 0.08217 0.20532 0.14865 0.0
C570 C 0.80366 0.87448 0.6165 0.0
C571 C 0.81216 0.86354 0.63279 0.0
C572 C 0.81224 0.90624 0.61486 0.0
C573 C 0.8384 0.97874 0.64399 0.0
H574 H 0.86062 0.01996 0.59448 0.0
C575 C 0.88603 0.11261 0.63494 0.0
C576 C 0.8726 0.12132 0.62002 0.0
C577 C 0.88016 0.08163 0.63637 0.0
C578 C 0.85428 1.00872 0.60839 0.0
H579 H 0.83705 0.87757 0.6599 0.0
H580 H 0.85251 0.93302 0.65693 0.0
H581 H 0.84777 0.9652 0.59722 0.0
H582 H 0.8429 0.1043 0.59471 0.0
H583 H 0.83284 0.05045 0.59718 0.0
H584 H 0.84518 0.02244 0.65513 0.0
C585 C 0.83853 0.91697 0.6456 0.0
C586 C 0.84681 0.97726 0.60997 0.0
C587 C 0.82973 0.88517 0.6473 0.0
C588 C 0.85362 0.09846 0.6064 0.0
C589 C 0.84798 0.06759 0.60774 0.0
C590 C 0.8461 0.01026 0.64242 0.0
C591 C 0.82977 0.92794 0.6294 0.0
C592 C 0.83855 0.96175 0.62777 0.0
C593 C 0.86097 0.05873 0.62282 0.0
C594 C 0.85393 0.02556 0.62458 0.0
H595 H 0.78978 0.85833 0.60517 0.0
H596 H 0.80457 0.91361 0.60233 0.0
H597 H 0.83166 0.96752 0.65789 0.0
H598 H 0.9008 0.1296 0.64566 0.0
H599 H 0.89078 0.07562 0.64804 0.0
C600 C 0.9383 0.8056 0.1458 0.0
C601 C 0.96763 0.82227 0.13659 0.0
C602 C 0.91686 0.81649 0.14524 0.0
C603 C 0.89633 0.86821 0.11743 0.0
H604 H 0.84143 0.85389 0.16075 0.0
C605 C 0.79845 0.90345 0.11886 0.0
C606 C 0.76884 0.87876 0.12466 0.0
C607 C 0.82549 0.90069 0.12089 0.0
C608 C 0.85662 0.85808 0.14853 0.0
H609 H 0.99741 0.86386 0.1197 0.0
H610 H 0.96032 0.88335 0.11917 0.0
H611 H 0.88384 0.84188 0.16357 0.0
H612 H 0.74461 0.83211 0.13741 0.0
H613 H 0.79143 0.82763 0.1411 0.0
H614 H 0.86871 0.88431 0.10244 0.0
C615 C 0.95373 0.86153 0.1266 0.0
C616 C 0.88085 0.85104 0.1501 0.0
C617 C 0.97519 0.85054 0.12712 0.0
C618 C 0.76696 0.85158 0.13272 0.0
C619 C 0.79387 0.84905 0.13498 0.0
C620 C 0.87217 0.87552 0.11593 0.0
C621 C 0.92417 0.84452 0.13555 0.0
C622 C 0.90055 0.85523 0.13443 0.0
C623 C 0.82344 0.87348 0.12909 0.0
C624 C 0.85159 0.86979 0.13132 0.0
H625 H 0.93177 0.78396 0.15344 0.0
H626 H 0.8942 0.80246 0.15207 0.0
H627 H 0.91084 0.87153 0.10501 0.0
H628 H 0.80066 0.92467 0.11259 0.0
H629 H 0.84803 0.91992 0.11625 0.0
C630 C 0.90897 0.77925 0.63605 0.0
C631 C 0.9014 0.75456 0.62302 0.0
C632 C 0.94011 0.80395 0.638 0.0
C633 C 0.02186 0.82215 0.63032 0.0
H634 H 0.04296 0.90957 0.63307 0.0
C635 C 0.14993 0.92302 0.6241 0.0
C636 C 0.16 0.94977 0.63575 0.0
C637 C 0.11812 0.89995 0.62312 0.0
C638 C 0.03745 0.88526 0.63259 0.0
H639 H 0.9207 0.73683 0.60162 0.0
H640 H 0.97472 0.77971 0.60504 0.0
H641 H 0.9878 0.86806 0.63034 0.0
H642 H 0.1444 0.97331 0.65544 0.0
H643 H 0.0887 0.93274 0.6539 0.0
H644 H 0.07124 0.83904 0.63269 0.0
C645 C 0.95667 0.77987 0.61388 0.0
C646 C 1.00583 0.86148 0.63099 0.0
C647 C 0.92561 0.75537 0.61183 0.0
C648 C 0.13737 0.95306 0.64625 0.0
C649 C 0.10545 0.92984 0.64533 0.0
C650 C 0.05336 0.84582 0.63201 0.0
C651 C 0.96437 0.80432 0.62709 0.0
C652 C 0.99773 0.82968 0.6296 0.0
C653 C 0.09545 0.90288 0.63382 0.0
C654 C 0.06165 0.87773 0.63293 0.0
H655 H 0.8909 0.77941 0.64487 0.0
H656 H 0.94532 0.82236 0.64837 0.0
H657 H 0.01637 0.79784 0.62968 0.0
H658 H 0.16663 0.92008 0.61548 0.0
H659 H 0.11127 0.87994 0.61374 0.0
C660 C 0.12158 0.90045 0.39691 0.0
C661 C 0.12636 0.87563 0.39119 0.0
C662 C 0.09102 0.89629 0.39715 0.0
C663 C 1.00761 0.83201 0.3989 0.0
H664 H 0.98718 0.89328 0.37865 0.0
C665 C 0.88239 0.79712 0.37561 0.0
C666 C 0.86986 0.81589 0.38179 0.0
C667 C 0.91429 0.80712 0.37816 0.0
C668 C 0.99264 0.87613 0.38456 0.0
H669 H 0.10287 0.82758 0.38035 0.0
H670 H 0.05062 0.82071 0.38055 0.0
H671 H 0.04247 0.90653 0.38078 0.0
H672 H 0.88159 0.86034 0.39535 0.0
H673 H 0.93762 0.87808 0.39935 0.0
H674 H 0.95799 0.80128 0.40214 0.0
C675 C 0.07003 0.84304 0.3854 0.0
C676 C 0.02426 0.88373 0.38583 0.0
C677 C 0.1002 0.84711 0.38519 0.0
C678 C 0.89039 0.84537 0.3902 0.0
C679 C 0.92248 0.85554 0.39257 0.0
C680 C 0.9762 0.82438 0.3975 0.0
C681 C 0.06486 0.86725 0.3917 0.0
C682 C 0.032 0.86138 0.39254 0.0
C683 C 0.93465 0.83631 0.38678 0.0
C684 C 0.96829 0.84603 0.3899 0.0
H685 H 0.14125 0.92277 0.40152 0.0
H686 H 0.08779 0.91545 0.40203 0.0
H687 H 1.01277 0.81454 0.40463 0.0
H688 H 0.86762 0.77469 0.36862 0.0
H689 H 0.92312 0.79204 0.37323 0.0
C690 C 0.09174 0.87712 0.89387 0.0
C691 C 0.07473 0.86443 0.87683 0.0
C692 C 0.11441 0.90912 0.89509 0.0
C693 C 0.16425 0.97896 0.86472 0.0
H694 H 0.17653 0.02449 0.91232 0.0
C695 C 0.24944 0.1135 0.87134 0.0
C696 C 0.26985 0.12328 0.88724 0.0
C697 C 0.2243 0.08251 0.87006 0.0
C698 C 0.17347 0.01204 0.89896 0.0
H699 H 0.06757 0.87552 0.84787 0.0
H700 H 0.1066 0.93143 0.85007 0.0
H701 H 0.13507 0.96944 0.91004 0.0
H702 H 0.27931 0.10826 0.91448 0.0
H703 H 0.23538 0.05439 0.91228 0.0
H704 H 0.20257 0.02177 0.85364 0.0
C705 C 0.10309 0.91658 0.86238 0.0
C706 C 0.14978 0.98042 0.89765 0.0
C707 C 0.08063 0.88452 0.86111 0.0
C708 C 0.26411 0.10154 0.90201 0.0
C709 C 0.23882 0.07069 0.90081 0.0
C710 C 0.18776 0.01066 0.86598 0.0
C711 C 0.12044 0.92931 0.87935 0.0
C712 C 0.145 0.96334 0.88056 0.0
C713 C 0.2188 0.06072 0.88475 0.0
C714 C 0.19282 0.02748 0.88316 0.0
H715 H 0.08799 0.86215 0.90615 0.0
H716 H 0.12763 0.91786 0.90829 0.0
H717 H 0.1617 0.96653 0.85142 0.0
H718 H 0.25317 0.12963 0.85971 0.0
H719 H 0.2091 0.0756 0.85759 0.0
C720 C 0.17582 0.26092 0.39584 0.0
C721 C 0.15212 0.2615 0.38477 0.0
C722 C 0.18247 0.23651 0.39378 0.0
C723 C 0.15007 0.15485 0.37705 0.0
H724 H 0.23808 0.17801 0.37451 0.0
C725 C 0.19037 0.06366 0.36212 0.0
C726 C 0.21668 0.06741 0.37247 0.0
C727 C 0.18157 0.08678 0.36287 0.0
C728 C 0.21339 0.17104 0.37542 0.0
H729 H 0.11628 0.23633 0.36314 0.0
H730 H 0.12788 0.19349 0.35963 0.0
H731 H 0.22407 0.21893 0.37748 0.0
H732 H 0.25363 0.09785 0.39228 0.0
H733 H 0.23822 0.13783 0.39373 0.0
H734 H 0.13942 0.10685 0.37528 0.0
C735 C 0.14127 0.21203 0.3699 0.0
C736 C 0.20537 0.19455 0.37708 0.0
C737 C 0.13474 0.23665 0.37186 0.0
C738 C 0.23368 0.09455 0.38378 0.0
C739 C 0.22483 0.11752 0.3846 0.0
C740 C 0.15811 0.13124 0.37549 0.0
C741 C 0.1655 0.21194 0.38068 0.0
C742 C 0.17365 0.18674 0.37812 0.0
C743 C 0.1988 0.11409 0.37407 0.0
C744 C 0.18991 0.13905 0.37485 0.0
H745 H 0.18967 0.27959 0.40595 0.0
H746 H 0.20095 0.23687 0.40251 0.0
H747 H 0.12543 0.1481 0.37795 0.0
H748 H 0.17691 0.04309 0.35319 0.0
H749 H 0.16158 0.08349 0.35443 0.0
C750 C 0.15084 0.21782 0.88995 0.0
C751 C 0.16253 0.21131 0.87327 0.0
C752 C 0.11913 0.20946 0.89122 0.0
C753 C 0.04039 0.15644 0.87102 0.0
H754 H 0.02058 0.2181 0.89128 0.0
C755 C 0.91376 0.13831 0.86956 0.0
C756 C 0.90456 0.14965 0.88531 0.0
C757 C 0.94493 0.14478 0.86787 0.0
C758 C 0.02559 0.20039 0.88584 0.0
H759 H 0.14994 0.19024 0.845 0.0
H760 H 0.09449 0.17563 0.84723 0.0
H761 H 0.0753 0.2311 0.88901 0.0
H762 H 0.92071 0.17573 0.912 0.0
H763 H 0.97445 0.18626 0.90931 0.0
H764 H 0.9906 0.12555 0.86807 0.0
C765 C 0.10989 0.18722 0.85932 0.0
C766 C 0.05702 0.20791 0.8845 0.0
C767 C 0.14169 0.19584 0.85798 0.0
C768 C 0.927 0.1669 0.89955 0.0
C769 C 0.95797 0.17315 0.89794 0.0
C770 C 1.00885 0.1488 0.87249 0.0
C771 C 0.09832 0.19416 0.8759 0.0
C772 C 0.0648 0.18602 0.87714 0.0
C773 C 0.96752 0.16258 0.88197 0.0
C774 C 1.00103 0.17064 0.88001 0.0
H775 H 0.16633 0.2299 0.90192 0.0
H776 H 0.11086 0.21487 0.90427 0.0
H777 H 0.04564 0.13897 0.86544 0.0
H778 H 0.89707 0.12497 0.85833 0.0
H779 H 0.95147 0.13647 0.8553 0.0
C780 C 0.93641 0.1421 0.39181 0.0
C781 C 0.95502 0.15333 0.37525 0.0
C782 C 0.91352 0.11026 0.3935 0.0
C783 C 0.86608 0.03812 0.36433 0.0
H784 H 0.84971 0.99637 0.4136 0.0
C785 C 0.77975 0.90434 0.37341 0.0
C786 C 0.75828 0.89577 0.38864 0.0
C787 C 0.80506 0.93519 0.37188 0.0
C788 C 0.8539 1.00777 0.39977 0.0
H789 H 0.96476 0.1398 0.34768 0.0
H790 H 0.92525 0.08418 0.35072 0.0
H791 H 0.8915 0.05117 0.41071 0.0
H792 H 0.74705 0.91282 0.41443 0.0
H793 H 0.79119 0.96644 0.41178 0.0
H794 H 0.82854 0.99455 0.35341 0.0
C795 C 0.92774 0.10006 0.36224 0.0
C796 C 0.8778 0.03923 0.3981 0.0
C797 C 0.95046 0.13194 0.3605 0.0
C798 C 0.76308 0.91858 0.40249 0.0
C799 C 0.7885 0.94931 0.40105 0.0
C800 C 0.84235 1.00659 0.36597 0.0
C801 C 0.90883 0.08879 0.37872 0.0
C802 C 0.88405 0.05493 0.38039 0.0
C803 C 0.80962 0.95806 0.38564 0.0
C804 C 0.83582 0.99113 0.38374 0.0
H805 H 0.93911 0.15808 0.40333 0.0
H806 H 0.89908 0.10263 0.40625 0.0
H807 H 0.86981 0.04951 0.35052 0.0
H808 H 0.77682 0.88735 0.36251 0.0
H809 H 0.82113 0.94114 0.35994 0.0
C810 C 0.9106 0.79097 0.88999 0.0
C811 C 0.88457 0.76045 0.88767 0.0
C812 C 0.90688 0.8175 0.88827 0.0
C813 C 0.85401 0.84178 0.86621 0.0
H814 H 0.88444 0.90763 0.90469 0.0
C815 C 0.80368 0.92464 0.87189 0.0
C816 C 0.82409 0.95662 0.87615 0.0
C817 C 0.81418 0.90294 0.87293 0.0
C818 C 0.87618 0.88969 0.89366 0.0
H819 H 0.83415 0.73405 0.88209 0.0
H820 H 0.82793 0.77976 0.8791 0.0
H821 H 0.89834 0.86617 0.90695 0.0
H822 H 0.8716 0.99064 0.88522 0.0
H823 H 0.89015 0.9528 0.88656 0.0
H824 H 0.83167 0.86479 0.85294 0.0
C825 C 0.85124 0.78338 0.882 0.0
C826 C 0.88418 0.86599 0.89497 0.0
C827 C 0.85486 0.75709 0.88383 0.0
C828 C 0.85531 0.96628 0.8816 0.0
C829 C 0.86587 0.94452 0.88259 0.0
C830 C 0.84617 0.86542 0.86486 0.0
C831 C 0.87715 0.81388 0.88401 0.0
C832 C 0.87247 0.84136 0.88151 0.0
C833 C 0.84547 0.9126 0.87814 0.0
C834 C 0.85645 0.88924 0.87881 0.0
H835 H 0.93379 0.79437 0.893 0.0
H836 H 0.92727 0.84079 0.88989 0.0
H837 H 0.84514 0.82344 0.85541 0.0
H838 H 0.7796 0.91633 0.86744 0.0
H839 H 0.79762 0.87846 0.86974 0.0
C840 C 0.1767 0.72963 0.11904 0.0
C841 C 0.14833 0.72917 0.12288 0.0
C842 C 0.17799 0.70186 0.11901 0.0
C843 C 0.13669 0.61804 0.13376 0.0
H844 H 0.1844 0.61081 0.0918 0.0
C845 C 0.16471 0.51601 0.12725 0.0
C846 C 0.16281 0.5036 0.1088 0.0
C847 C 0.1619 0.54287 0.12987 0.0
C848 C 0.17078 0.61227 0.10353 0.0
H849 H 0.09928 0.69913 0.13053 0.0
H850 H 0.10143 0.6502 0.13023 0.0
H851 H 0.1808 0.65821 0.09504 0.0
H852 H 0.15682 0.51005 0.07865 0.0
H853 H 0.15143 0.55627 0.08323 0.0
H854 H 0.12624 0.57159 0.14197 0.0
C855 C 0.12275 0.67228 0.12737 0.0
C856 C 0.16903 0.63968 0.10554 0.0
C857 C 0.12149 0.70028 0.1275 0.0
C858 C 0.15804 0.51868 0.09308 0.0
C859 C 0.1553 0.54546 0.09569 0.0
C860 C 0.13849 0.5905 0.13176 0.0
C861 C 0.15091 0.67271 0.12269 0.0
C862 C 0.15209 0.64303 0.1207 0.0
C863 C 0.15735 0.55803 0.11408 0.0
C864 C 0.15552 0.58728 0.11657 0.0
H865 H 0.19802 0.75151 0.11577 0.0
H866 H 0.20026 0.70322 0.11585 0.0
H867 H 0.12358 0.61991 0.14565 0.0
H868 H 0.16809 0.50482 0.13969 0.0
H869 H 0.16385 0.55207 0.14421 0.0
C870 C 0.66819 0.18578 0.61457 0.0
C871 C 0.67287 0.15991 0.61675 0.0
C872 C 0.63847 0.18245 0.61757 0.0
C873 C 0.55376 0.1219 0.61857 0.0
H874 H 0.5451 0.18997 0.64026 0.0
C875 C 0.43209 0.11288 0.62998 0.0
C876 C 0.43016 0.13898 0.62341 0.0
C877 C 0.46137 0.11438 0.63136 0.0
C878 C 0.54715 0.17078 0.63413 0.0
H879 H 0.65022 0.11053 0.62454 0.0
H880 H 0.59846 0.10477 0.62998 0.0
H881 H 0.59698 0.19467 0.63881 0.0
H882 H 0.45765 0.18743 0.61367 0.0
H883 H 0.50828 0.18996 0.6161 0.0
H884 H 0.50388 0.09816 0.61378 0.0
C885 C 0.61759 0.1275 0.62553 0.0
C886 C 0.5769 0.1735 0.63323 0.0
C887 C 0.64728 0.13081 0.62245 0.0
C888 C 0.45816 0.16677 0.61869 0.0
C889 C 0.4873 0.16835 0.62023 0.0
C890 C 0.52396 0.11912 0.61956 0.0
C891 C 0.61269 0.15319 0.62293 0.0
C892 C 0.5807 0.14933 0.62516 0.0
C893 C 0.48928 0.14214 0.62643 0.0
C894 C 0.52039 0.14375 0.62705 0.0
H895 H 0.68729 0.20842 0.60994 0.0
H896 H 0.63553 0.20264 0.61512 0.0
H897 H 0.55578 0.10297 0.61203 0.0
H898 H 0.41099 0.09112 0.63374 0.0
H899 H 0.46217 0.09385 0.63631 0.0
C900 C 0.53225 0.64171 0.10361 0.0
C901 C 0.53015 0.66902 0.10652 0.0
C902 C 0.50571 0.61171 0.10561 0.0
C903 C 0.42563 0.56981 0.12691 0.0
H904 H 0.41117 0.50451 0.09019 0.0
C905 C 0.30528 0.4566 0.11923 0.0
C906 C 0.30429 0.42775 0.11608 0.0
C907 C 0.33384 0.48502 0.11901 0.0
C908 C 0.41507 0.52232 0.10073 0.0
H909 H 0.49823 0.68597 0.11375 0.0
H910 H 0.45198 0.63374 0.11719 0.0
H911 H 0.45879 0.55609 0.08793 0.0
H912 H 0.33288 0.40638 0.11028 0.0
H913 H 0.38302 0.45629 0.1099 0.0
H914 H 0.38175 0.53621 0.13955 0.0
C915 C 0.47429 0.6355 0.11364 0.0
C916 C 0.44239 0.55195 0.09944 0.0
C917 C 0.50085 0.6655 0.11165 0.0
C918 C 0.33276 0.42812 0.11277 0.0
C919 C 0.36147 0.45674 0.11245 0.0
C920 C 0.39834 0.54025 0.12818 0.0
C921 C 0.47633 0.60818 0.11059 0.0
C922 C 0.44787 0.5762 0.11239 0.0
C923 C 0.36232 0.48554 0.11559 0.0
C924 C 0.3925 0.51623 0.11498 0.0
H925 H 0.55454 0.64347 0.09998 0.0
H926 H 0.50833 0.59126 0.10346 0.0
H927 H 0.42934 0.58765 0.13738 0.0
H928 H 0.28391 0.45738 0.12182 0.0
H929 H 0.33348 0.50672 0.12118 0.0
C930 C 0.84556 0.49229 0.61652 0.0
C931 C 0.87002 0.52124 0.60972 0.0
C932 C 0.8502 0.46654 0.61895 0.0
C933 C 0.9012 0.43515 0.60289 0.0
H934 H 0.86247 0.37745 0.6453 0.0
C935 C 0.91769 0.32678 0.61536 0.0
C936 C 0.88998 0.29849 0.61974 0.0
C937 C 0.91786 0.35551 0.61532 0.0
C938 C 0.87333 0.39324 0.63331 0.0
H939 H 0.91895 0.54602 0.60081 0.0
H940 H 0.92703 0.50121 0.60509 0.0
H941 H 0.85762 0.42446 0.64308 0.0
H942 H 0.84086 0.27848 0.62785 0.0
H943 H 0.84123 0.32809 0.62771 0.0
H944 H 0.91662 0.40366 0.59304 0.0
C945 C 0.90405 0.4982 0.6082 0.0
C946 C 0.87047 0.42018 0.63201 0.0
C947 C 0.8994 0.52392 0.60575 0.0
C948 C 0.86269 0.29971 0.62437 0.0
C949 C 0.86292 0.32829 0.62445 0.0
C950 C 0.9041 0.40819 0.60421 0.0
C951 C 0.87944 0.46908 0.6147 0.0
C952 C 0.884 0.44129 0.61664 0.0
C953 C 0.89041 0.35656 0.61984 0.0
C954 C 0.88979 0.38665 0.61929 0.0
H955 H 0.82252 0.48924 0.61949 0.0
H956 H 0.83055 0.44437 0.62372 0.0
H957 H 0.91163 0.45065 0.59073 0.0
H958 H 0.9391 0.32669 0.61171 0.0
H959 H 0.93949 0.37691 0.61182 0.0
C960 C 0.59713 0.90559 0.13027 0.0
C961 C 0.60026 0.87964 0.12492 0.0
C962 C 0.56754 0.90358 0.12967 0.0
C963 C 0.48954 0.85701 0.10616 0.0
H964 H 0.46213 0.89724 0.14309 0.0
C965 C 0.37858 0.86642 0.09336 0.0
C966 C 0.35876 0.86194 0.109 0.0
C967 C 0.40796 0.86886 0.09608 0.0
C968 C 0.46933 0.88564 0.13275 0.0
H969 H 0.57444 0.83067 0.11593 0.0
H970 H 0.5233 0.82703 0.11531 0.0
H971 H 0.51337 0.90075 0.14711 0.0
H972 H 0.35452 0.85658 0.13987 0.0
H973 H 0.40561 0.86009 0.14459 0.0
H974 H 0.44547 0.84128 0.09201 0.0
C975 C 0.54364 0.84928 0.11934 0.0
C976 C 0.49888 0.88798 0.13493 0.0
C977 C 0.57306 0.85135 0.11978 0.0
C978 C 0.36904 0.85972 0.12747 0.0
C979 C 0.39852 0.86215 0.13021 0.0
C980 C 0.46011 0.85463 0.10401 0.0
C981 C 0.54052 0.87552 0.12384 0.0
C982 C 0.50931 0.87359 0.12168 0.0
C983 C 0.41835 0.86674 0.11453 0.0
C984 C 0.4496 0.86897 0.11722 0.0
H985 H 0.61764 0.92771 0.1343 0.0
H986 H 0.56603 0.9243 0.13316 0.0
H987 H 0.49691 0.84602 0.09549 0.0
H988 H 0.37133 0.86787 0.07891 0.0
H989 H 0.4227 0.87276 0.08369 0.0
C990 C 0.72401 0.56564 0.62468 0.0
C991 C 0.72492 0.59426 0.62085 0.0
C992 C 0.69557 0.53714 0.62436 0.0
C993 C 0.6157 0.49909 0.60407 0.0
H994 H 0.59976 0.43426 0.64146 0.0
C995 C 0.49989 0.37873 0.60434 0.0
C996 C 0.50241 0.35177 0.60772 0.0
C997 C 0.5258 0.40892 0.607 0.0
C998 C 0.60396 0.45198 0.6308 0.0
H999 H 0.69635 0.61527 0.61388 0.0
H1000 H 0.64637 0.56518 0.61329 0.0
H1001 H 0.64666 0.48612 0.6445 0.0
H1002 H 0.53432 0.33558 0.61658 0.0
H1003 H 0.57959 0.38823 0.62115 0.0
H1004 H 0.57327 0.46478 0.59018 0.0
C1005 C 0.6679 0.56497 0.61646 0.0
C1006 C 0.63082 0.48176 0.63257 0.0
C1007 C 0.69649 0.59367 0.6169 0.0
C1008 C 0.53144 0.35579 0.61406 0.0
C1009 C 0.5574 0.38602 0.61669 0.0
C1010 C 0.58883 0.46925 0.60227 0.0
C1011 C 0.66717 0.53636 0.62014 0.0
C1012 C 0.63724 0.50557 0.61909 0.0
C1013 C 0.55495 0.41299 0.61312 0.0
C1014 C 0.58281 0.44519 0.6155 0.0
H1015 H 0.74538 0.56508 0.62782 0.0
H1016 H 0.69598 0.51557 0.627 0.0
H1017 H 0.62013 0.51675 0.59331 0.0
H1018 H 0.47773 0.37652 0.5998 0.0
H1019 H 0.52288 0.4291 0.60443 0.0
C1020 C 0.29771 0.85022 0.38883 0.0
C1021 C 0.29745 0.87808 0.38436 0.0
C1022 C 0.32545 0.84892 0.38756 0.0
C1023 C 0.41141 0.89872 0.38938 0.0
H1024 H 0.40993 0.82401 0.3697 0.0
C1025 C 0.52383 0.88829 0.38694 0.0
C1026 C 0.5205 0.85914 0.3924 0.0
C1027 C 0.49731 0.89141 0.38383 0.0
C1028 C 0.41073 0.84494 0.3754 0.0
H1029 H 0.32626 0.92636 0.37478 0.0
H1030 H 0.37498 0.92411 0.37266 0.0
H1031 H 0.36253 0.82827 0.36792 0.0
H1032 H 0.48659 0.81041 0.39878 0.0
H1033 H 0.44039 0.81584 0.39353 0.0
H1034 H 0.45935 0.91509 0.39732 0.0
C1035 C 0.35356 0.90331 0.37721 0.0
C1036 C 0.38356 0.84741 0.37433 0.0
C1037 C 0.32563 0.90454 0.37832 0.0
C1038 C 0.49 0.83308 0.39434 0.0
C1039 C 0.46349 0.83622 0.3913 0.0
C1040 C 0.43857 0.8962 0.39054 0.0
C1041 C 0.35377 0.87548 0.38189 0.0
C1042 C 0.38344 0.87413 0.38154 0.0
C1043 C 0.46678 0.86549 0.38615 0.0
C1044 C 0.43847 0.86908 0.3838 0.0
H1045 H 0.27646 0.8293 0.39346 0.0
H1046 H 0.32483 0.82725 0.39149 0.0
H1047 H 0.412 0.91945 0.39527 0.0
H1048 H 0.54699 0.90873 0.38504 0.0
H1049 H 0.50077 0.91417 0.37956 0.0
C1050 C 0.64826 0.52289 0.90389 0.0
C1051 C 0.67509 0.5204 0.90003 0.0
C1052 C 0.61798 0.49702 0.90141 0.0
C1053 C 0.57421 0.41918 0.87731 0.0
H1054 H 0.51028 0.40278 0.91535 0.0
C1055 C 0.46018 0.29937 0.88344 0.0
C1056 C 0.43173 0.29866 0.88749 0.0
C1057 C 0.4888 0.32768 0.88377 0.0
C1058 C 0.52771 0.40728 0.90445 0.0
H1059 H 0.69096 0.48858 0.89053 0.0
H1060 H 0.63817 0.44338 0.88628 0.0
H1061 H 0.56241 0.44943 0.91837 0.0
H1062 H 0.41118 0.32745 0.89491 0.0
H1063 H 0.4615 0.37719 0.89554 0.0
H1064 H 0.53966 0.37674 0.86357 0.0
C1065 C 0.64053 0.46552 0.89097 0.0
C1066 C 0.55764 0.43403 0.90618 0.0
C1067 C 0.67084 0.49143 0.89342 0.0
C1068 C 0.43264 0.32716 0.8917 0.0
C1069 C 0.46147 0.35561 0.89217 0.0
C1070 C 0.54434 0.39243 0.87561 0.0
C1071 C 0.61369 0.46794 0.89499 0.0
C1072 C 0.5814 0.44015 0.89274 0.0
C1073 C 0.4899 0.35615 0.88825 0.0
C1074 C 0.52083 0.38593 0.88928 0.0
H1075 H 0.65063 0.545 0.90866 0.0
H1076 H 0.5979 0.49994 0.90433 0.0
H1077 H 0.59168 0.42346 0.86647 0.0
H1078 H 0.46048 0.27795 0.8801 0.0
H1079 H 0.51024 0.32713 0.88094 0.0
C1080 C 0.1274 0.6376 0.40109 0.0
C1081 C 0.15691 0.66468 0.39804 0.0
C1082 C 0.12338 0.60751 0.39858 0.0
C1083 C 0.15943 0.56488 0.37575 0.0
H1084 H 0.11025 0.50018 0.4131 0.0
C1085 C 0.16552 0.45115 0.38261 0.0
C1086 C 0.13764 0.42258 0.38627 0.0
C1087 C 0.16571 0.4797 0.38281 0.0
C1088 C 0.12365 0.51782 0.40238 0.0
H1089 H 0.20534 0.68124 0.38988 0.0
H1090 H 0.1984 0.62873 0.38555 0.0
H1091 H 0.11514 0.55205 0.41588 0.0
H1092 H 0.08795 0.40172 0.39282 0.0
H1093 H 0.0883 0.45188 0.39317 0.0
H1094 H 0.16834 0.53079 0.36243 0.0
C1095 C 0.17821 0.63078 0.38965 0.0
C1096 C 0.12649 0.5476 0.40398 0.0
C1097 C 0.18222 0.66091 0.39215 0.0
C1098 C 0.10981 0.42328 0.38994 0.0
C1099 C 0.11006 0.45201 0.39025 0.0
C1100 C 0.15663 0.53515 0.37418 0.0
C1101 C 0.14877 0.60369 0.39294 0.0
C1102 C 0.1447 0.57161 0.39079 0.0
C1103 C 0.13807 0.48056 0.38672 0.0
C1104 C 0.13901 0.51137 0.3876 0.0
H1105 H 0.10724 0.63964 0.40529 0.0
H1106 H 0.10026 0.58722 0.40091 0.0
H1107 H 0.17312 0.5826 0.36513 0.0
H1108 H 0.18744 0.45162 0.37971 0.0
H1109 H 0.18778 0.50124 0.38031 0.0
C1110 C 0.69844 0.10299 0.89053 0.0
C1111 C 0.72733 0.13148 0.89144 0.0
C1112 C 0.6698 0.10295 0.89192 0.0
C1113 C 0.63732 0.15151 0.9103 0.0
H1114 H 0.56899 0.10622 0.87419 0.0
C1115 C 0.53783 0.18024 0.90268 0.0
C1116 C 0.5068 0.15525 0.90031 0.0
C1117 C 0.5633 0.17499 0.90164 0.0
C1118 C 0.58767 0.11869 0.88455 0.0
H1119 H 0.74854 0.18226 0.8945 0.0
H1120 H 0.69923 0.18202 0.89692 0.0
H1121 H 0.61563 0.10019 0.87285 0.0
H1122 H 0.47834 0.10511 0.89477 0.0
H1123 H 0.52289 0.09592 0.89299 0.0
H1124 H 0.60979 0.17016 0.92201 0.0
C1125 C 0.69851 0.15969 0.89528 0.0
C1126 C 0.61436 0.11518 0.88378 0.0
C1127 C 0.72687 0.15978 0.89374 0.0
C1128 C 0.50196 0.12495 0.89647 0.0
C1129 C 0.52751 0.11968 0.89546 0.0
C1130 C 0.61073 0.15493 0.91111 0.0
C1131 C 0.66962 0.13135 0.8945 0.0
C1132 C 0.63975 0.13209 0.89642 0.0
C1133 C 0.5585 0.14458 0.89827 0.0
C1134 C 0.58581 0.13909 0.89801 0.0
H1135 H 0.69793 0.0808 0.88872 0.0
H1136 H 0.64787 0.08072 0.8913 0.0
H1137 H 0.6562 0.16438 0.92049 0.0
H1138 H 0.54246 0.20397 0.9053 0.0
H1139 H 0.58687 0.1949 0.90341 0.0
C1140 C 0.38223 0.4925 0.39986 0.0
C1141 C 0.35536 0.4954 0.397 0.0
C1142 C 0.41249 0.51852 0.39771 0.0
C1143 C 0.45603 0.59863 0.37653 0.0
H1144 H 0.51975 0.61203 0.41429 0.0
C1145 C 0.56865 0.71856 0.38632 0.0
C1146 C 0.59738 0.71951 0.38992 0.0
C1147 C 0.54031 0.68998 0.38595 0.0
C1148 C 0.50239 0.6084 0.40346 0.0
H1149 H 0.33943 0.52808 0.38952 0.0
H1150 H 0.39215 0.57345 0.38577 0.0
H1151 H 0.46793 0.56463 0.41586 0.0
H1152 H 0.61865 0.69085 0.39589 0.0
H1153 H 0.56883 0.64062 0.39527 0.0
H1154 H 0.4903 0.64264 0.36432 0.0
C1155 C 0.38983 0.55092 0.38944 0.0
C1156 C 0.47264 0.58122 0.40435 0.0
C1157 C 0.35955 0.52488 0.39158 0.0
C1158 C 0.59698 0.69098 0.39307 0.0
C1159 C 0.56843 0.66223 0.39281 0.0
C1160 C 0.48571 0.62579 0.37565 0.0
C1161 C 0.41671 0.54814 0.39261 0.0
C1162 C 0.44893 0.57619 0.39104 0.0
C1163 C 0.53976 0.66144 0.38921 0.0
C1164 C 0.50913 0.63125 0.38926 0.0
H1165 H 0.37989 0.47002 0.40372 0.0
H1166 H 0.43261 0.51537 0.39994 0.0
H1167 H 0.43859 0.59525 0.36581 0.0
H1168 H 0.5679 0.73999 0.38382 0.0
H1169 H 0.51868 0.69034 0.38345 0.0
C1170 C 0.90999 0.58858 0.8755 0.0
C1171 C 0.89156 0.59457 0.88838 0.0
C1172 C 0.90909 0.55947 0.87574 0.0
C1173 C 0.8886 0.49149 0.90751 0.0
H1174 H 0.87927 0.44479 0.86081 0.0
C1175 C 0.84949 0.3601 0.90973 0.0
C1176 C 0.86464 0.34891 0.89764 0.0
C1177 C 0.85435 0.39054 0.90757 0.0
C1178 C 0.88226 0.4577 0.87397 0.0
H1179 H 0.85766 0.57439 0.91156 0.0
H1180 H 0.85618 0.52431 0.91189 0.0
H1181 H 0.88621 0.49781 0.85901 0.0
H1182 H 0.8963 0.36088 0.87348 0.0
H1183 H 0.90481 0.41422 0.86969 0.0
H1184 H 0.88449 0.45163 0.92253 0.0
C1185 C 0.87157 0.54204 0.90174 0.0
C1186 C 0.88628 0.48809 0.87292 0.0
C1187 C 0.8723 0.57083 0.90144 0.0
C1188 C 0.88408 0.36868 0.88294 0.0
C1189 C 0.88898 0.39926 0.88078 0.0
C1190 C 0.88465 0.46129 0.90855 0.0
C1191 C 0.89 0.53598 0.88898 0.0
C1192 C 0.88886 0.50506 0.88972 0.0
C1193 C 0.87454 0.41072 0.89328 0.0
C1194 C 0.8808 0.44371 0.89184 0.0
H1195 H 0.925 0.60627 0.86522 0.0
H1196 H 0.92364 0.55552 0.86576 0.0
H1197 H 0.89121 0.50419 0.92071 0.0
H1198 H 0.83384 0.34529 0.92094 0.0
H1199 H 0.84221 0.39827 0.91714 0.0
C1200 C 0.15253 0.3685 0.31847 0.0
C1201 C 0.17281 0.36692 0.33216 0.0
C1202 C 0.16115 0.3742 0.29924 0.0
C1203 C 0.21198 0.36544 0.26428 0.0
H1204 H 0.18663 0.41272 0.23137 0.0
C1205 C 0.24029 0.37878 0.1841 0.0
C1206 C 0.21539 0.37284 0.17158 0.0
C1207 C 0.23803 0.38313 0.20364 0.0
C1208 C 0.1937 0.39932 0.24037 0.0
H1209 H 0.2187 0.37139 0.33641 0.0
H1210 H 0.23395 0.38166 0.30269 0.0
H1211 H 0.17867 0.41202 0.26594 0.0
H1212 H 0.1692 0.36838 0.16965 0.0
H1213 H 0.1651 0.37573 0.204 0.0
H1214 H 0.22654 0.35231 0.23876 0.0
C1215 C 0.21112 0.37801 0.30689 0.0
C1216 C 0.1892 0.39893 0.26017 0.0
C1217 C 0.20246 0.3723 0.32623 0.0
C1218 C 0.18877 0.37291 0.17892 0.0
C1219 C 0.18647 0.37719 0.19859 0.0
C1220 C 0.21656 0.3659 0.24452 0.0
C1221 C 0.19033 0.37856 0.29313 0.0
C1222 C 0.19791 0.38163 0.27234 0.0
C1223 C 0.2108 0.38156 0.21122 0.0
C1224 C 0.20719 0.38257 0.2323 0.0
H1225 H 0.12952 0.36461 0.32247 0.0
H1226 H 0.14437 0.37403 0.28906 0.0
H1227 H 0.21843 0.35141 0.27314 0.0
H1228 H 0.26139 0.3794 0.17891 0.0
H1229 H 0.25748 0.38716 0.21289 0.0
C1230 C 0.82584 0.19718 0.67955 0.0
C1231 C 0.85717 0.20816 0.67406 0.0
C1232 C 0.81814 0.1963 0.69897 0.0
C1233 C 0.85557 0.2247 0.74741 0.0
H1234 H 0.77815 0.15317 0.76541 0.0
C1235 C 0.83075 0.19941 0.82854 0.0
C1236 C 0.81645 0.16751 0.83377 0.0
C1237 C 0.8322 0.20792 0.80921 0.0
C1238 C 0.80003 0.17322 0.76068 0.0
H1239 H 0.90485 0.22617 0.68457 0.0
H1240 H 0.89143 0.22326 0.71804 0.0
H1241 H 0.78792 0.16102 0.73129 0.0
H1242 H 0.79286 0.11961 0.82279 0.0
H1243 H 0.79653 0.13426 0.78955 0.0
H1244 H 0.86882 0.23542 0.77681 0.0
C1245 C 0.87281 0.2166 0.70758 0.0
C1246 C 0.8054 0.17805 0.74099 0.0
C1247 C 0.88051 0.21797 0.68829 0.0
C1248 C 0.80369 0.14443 0.81934 0.0
C1249 C 0.80553 0.15287 0.80016 0.0
C1250 C 0.85048 0.21951 0.76709 0.0
C1251 C 0.84157 0.2059 0.71327 0.0
C1252 C 0.8337 0.20332 0.73407 0.0
C1253 C 0.81976 0.1847 0.79475 0.0
C1254 C 0.82307 0.19312 0.774 0.0
H1255 H 0.8074 0.18968 0.66886 0.0
H1256 H 0.79387 0.18821 0.70272 0.0
H1257 H 0.87722 0.24504 0.74268 0.0
H1258 H 0.84065 0.21772 0.83935 0.0
H1259 H 0.84308 0.23268 0.80565 0.0
C1260 C 0.64117 0.81567 0.18073 0.0
C1261 C 0.65656 0.84768 0.17567 0.0
C1262 C 0.63389 0.80669 0.19997 0.0
C1263 C 0.62444 0.83486 0.24735 0.0
H1264 H 0.6575 0.78369 0.26778 0.0
C1265 C 0.65374 0.83501 0.32754 0.0
C1266 C 0.6513 0.80757 0.33548 0.0
C1267 C 0.648 0.83627 0.308 0.0
C1268 C 0.64746 0.79744 0.26235 0.0
H1269 H 0.67473 0.8952 0.18653 0.0
H1270 H 0.6618 0.87958 0.21975 0.0
H1271 H 0.65735 0.79115 0.23334 0.0
H1272 H 0.6388 0.75925 0.32953 0.0
H1273 H 0.62784 0.76109 0.29574 0.0
H1274 H 0.61494 0.84158 0.27634 0.0
C1275 C 0.65549 0.86139 0.20903 0.0
C1276 C 0.64741 0.80169 0.24256 0.0
C1277 C 0.66318 0.87034 0.18999 0.0
C1278 C 0.6414 0.78094 0.32375 0.0
C1279 C 0.63527 0.78205 0.30433 0.0
C1280 C 0.62422 0.83038 0.26714 0.0
C1281 C 0.64127 0.82957 0.2143 0.0
C1282 C 0.63661 0.82105 0.2349 0.0
C1283 C 0.63929 0.80996 0.29606 0.0
C1284 C 0.6364 0.8122 0.27494 0.0
H1285 H 0.63577 0.79773 0.16998 0.0
H1286 H 0.62284 0.78196 0.20367 0.0
H1287 H 0.61569 0.84968 0.24179 0.0
H1288 H 0.66141 0.85593 0.33623 0.0
H1289 H 0.65167 0.8583 0.30213 0.0
C1290 C 0.83759 0.63768 0.67978 0.0
C1291 C 0.81591 0.64727 0.67469 0.0
C1292 C 0.8405 0.63072 0.69889 0.0
C1293 C 0.80207 0.61688 0.74705 0.0
H1294 H 0.88793 0.65524 0.76571 0.0
C1295 C 0.87662 0.67709 0.81975 0.0
C1296 C 0.85908 0.65485 0.83396 0.0
C1297 C 0.86983 0.66993 0.80043 0.0
C1298 C 0.86378 0.64433 0.76074 0.0
H1299 H 0.77941 0.65582 0.68568 0.0
H1300 H 0.785 0.64455 0.71868 0.0
H1301 H 0.87816 0.65307 0.73148 0.0
H1302 H 0.82013 0.60764 0.8389 0.0
H1303 H 0.80813 0.595 0.80478 0.0
H1304 H 0.78794 0.61 0.7765 0.0
C1305 C 0.79943 0.64179 0.70801 0.0
C1306 C 0.85814 0.64269 0.74105 0.0
C1307 C 0.79647 0.64862 0.689 0.0
C1308 C 0.83405 0.6253 0.82831 0.0
C1309 C 0.82722 0.61807 0.8088 0.0
C1310 C 0.80775 0.61868 0.76679 0.0
C1311 C 0.8218 0.63324 0.7133 0.0
C1312 C 0.82728 0.62988 0.73395 0.0
C1313 C 0.84536 0.64025 0.79465 0.0
C1314 C 0.83875 0.63344 0.77386 0.0
H1315 H 0.85275 0.63614 0.66909 0.0
H1316 H 0.85774 0.62384 0.70243 0.0
H1317 H 0.77795 0.60626 0.74206 0.0
H1318 H 0.89586 0.70025 0.82349 0.0
H1319 H 0.8837 0.68791 0.78999 0.0
C1320 C 0.16256 0.84384 0.18423 0.0
C1321 C 0.1748 0.82961 0.17222 0.0
C1322 C 0.16954 0.84746 0.20374 0.0
C1323 C 0.18842 0.81338 0.24392 0.0
H1324 H 0.2143 0.89399 0.26804 0.0
C1325 C 0.20927 0.83518 0.32633 0.0
C1326 C 0.1996 0.85521 0.33442 0.0
C1327 C 0.20865 0.8312 0.3064 0.0
C1328 C 0.20677 0.8712 0.26159 0.0
H1329 H 0.20397 0.80793 0.17122 0.0
H1330 H 0.2157 0.81371 0.20573 0.0
H1331 H 0.20989 0.88941 0.23332 0.0
H1332 H 0.17998 0.88527 0.3281 0.0
H1333 H 0.17795 0.87762 0.29374 0.0
H1334 H 0.18402 0.79485 0.27229 0.0
C1335 C 0.20092 0.82228 0.19984 0.0
C1336 C 0.20448 0.86869 0.24169 0.0
C1337 C 0.19438 0.81917 0.18014 0.0
C1338 C 0.18807 0.87006 0.32232 0.0
C1339 C 0.18716 0.86586 0.30255 0.0
C1340 C 0.19037 0.8158 0.26394 0.0
C1341 C 0.18855 0.8365 0.21178 0.0
C1342 C 0.19467 0.83966 0.23268 0.0
C1343 C 0.19813 0.84703 0.29426 0.0
C1344 C 0.19884 0.84462 0.27302 0.0
H1345 H 0.14745 0.85218 0.17855 0.0
H1346 H 0.15949 0.85827 0.21266 0.0
H1347 H 0.18065 0.79068 0.23728 0.0
H1348 H 0.21836 0.82351 0.33532 0.0
H1349 H 0.2173 0.81654 0.3005 0.0
C1350 C 0.37869 0.18031 0.82748 0.0
C1351 C 0.37453 0.20542 0.83335 0.0
C1352 C 0.38288 0.17615 0.80805 0.0
C1353 C 0.36643 0.16037 0.76588 0.0
H1354 H 0.40797 0.23125 0.73112 0.0
C1355 C 0.33579 0.14739 0.68598 0.0
C1356 C 0.35976 0.16406 0.67253 0.0
C1357 C 0.34174 0.15297 0.70555 0.0
C1358 C 0.39663 0.21112 0.7406 0.0
H1359 H 0.37293 0.24662 0.82341 0.0
H1360 H 0.37948 0.23903 0.78992 0.0
H1361 H 0.41373 0.24025 0.76556 0.0
H1362 H 0.40877 0.20001 0.6691 0.0
H1363 H 0.41933 0.20957 0.70342 0.0
H1364 H 0.34958 0.1312 0.74095 0.0
C1365 C 0.38002 0.22273 0.80018 0.0
C1366 C 0.39964 0.21631 0.76038 0.0
C1367 C 0.37591 0.2269 0.81948 0.0
C1368 C 0.38975 0.18691 0.6791 0.0
C1369 C 0.39578 0.19238 0.69877 0.0
C1370 C 0.36359 0.15516 0.74612 0.0
C1371 C 0.38303 0.19704 0.79413 0.0
C1372 C 0.38385 0.1911 0.77327 0.0
C1373 C 0.3719 0.17521 0.71225 0.0
C1374 C 0.37791 0.18055 0.73321 0.0
H1375 H 0.37789 0.16342 0.8378 0.0
H1376 H 0.38552 0.15631 0.80391 0.0
H1377 H 0.35378 0.14038 0.77532 0.0
H1378 H 0.31232 0.12981 0.68143 0.0
H1379 H 0.32253 0.13991 0.71543 0.0
C1380 C 0.29019 0.21354 0.94681 0.0
C1381 C 0.32205 0.2281 0.94149 0.0
C1382 C 0.28094 0.22437 0.96263 0.0
C1383 C 0.29768 0.29418 0.98763 0.0
H1384 H 0.25162 0.24044 0.03035 0.0
C1385 C 0.25768 0.33986 0.05261 0.0
C1386 C 0.23099 0.31801 0.06281 0.0
C1387 C 0.26935 0.32982 0.0375 0.0
C1388 C 0.26386 0.2557 0.01838 0.0
H1389 H 0.36927 0.26525 0.94851 0.0
H1390 H 0.35281 0.28495 0.97601 0.0
H1391 H 0.27171 0.22055 0.0054 0.0
H1392 H 0.19434 0.26911 0.06457 0.0
H1393 H 0.21301 0.25193 0.03747 0.0
H1394 H 0.28855 0.32882 0.99986 0.0
C1395 C 0.33523 0.26477 0.96807 0.0
C1396 C 0.27572 0.24432 0.00423 0.0
C1397 C 0.34463 0.25335 0.95251 0.0
C1398 C 0.21505 0.2864 0.05693 0.0
C1399 C 0.22615 0.27651 0.04157 0.0
C1400 C 0.28519 0.3054 1.00157 0.0
C1401 C 0.30326 0.25051 0.97312 0.0
C1402 C 0.29267 0.26342 0.98874 0.0
C1403 C 0.25415 0.2978 0.03204 0.0
C1404 C 0.26787 0.28623 0.01712 0.0
H1405 H 0.27232 0.19416 0.93847 0.0
H1406 H 0.25616 0.21309 0.96623 0.0
H1407 H 0.3104 0.3092 0.97565 0.0
H1408 H 0.27067 0.36429 0.0571 0.0
H1409 H 0.29107 0.34699 0.03073 0.0
C1410 C 0.08161 0.28119 0.44582 0.0
C1411 C 0.09935 0.31305 0.44054 0.0
C1412 C 0.062 0.2722 0.46184 0.0
C1413 C 1.01098 0.2904 0.48792 0.0
H1414 H 0.01871 0.24302 0.52992 0.0
C1415 C 0.92798 0.25162 0.55409 0.0
C1416 C 0.92272 0.22449 0.56396 0.0
C1417 C 0.94909 0.26301 0.53869 0.0
C1418 C 0.01568 0.25564 0.51816 0.0
H1419 H 0.11073 0.36055 0.44784 0.0
H1420 H 0.07541 0.34457 0.47571 0.0
H1421 H 0.05782 0.26256 0.5045 0.0
H1422 H 0.93348 0.18676 0.56485 0.0
H1423 H 0.96829 0.20502 0.53727 0.0
H1424 H 0.96803 0.28224 0.50085 0.0
C1425 C 0.07727 0.32677 0.46756 0.0
C1426 C 0.03842 0.26718 0.50374 0.0
C1427 C 0.0976 0.33588 0.45179 0.0
C1428 C 0.93728 0.20784 0.55748 0.0
C1429 C 0.95767 0.21868 0.54184 0.0
C1430 C 0.98776 0.27825 0.50214 0.0
C1431 C 0.05913 0.29481 0.47258 0.0
C1432 C 0.03623 0.28457 0.48849 0.0
C1433 C 0.96487 0.24708 0.53264 0.0
C1434 C 0.98964 0.26047 0.51743 0.0
H1435 H 0.08243 0.26312 0.43733 0.0
H1436 H 0.04816 0.24742 0.46542 0.0
H1437 H 1.00868 0.30349 0.47613 0.0
H1438 H 0.91738 0.26514 0.55904 0.0
H1439 H 0.95407 0.28505 0.53217 0.0
C1440 C 0.69756 0.94579 0.06401 0.0
C1441 C 0.70601 0.92276 0.06762 0.0
C1442 C 0.70947 0.96563 0.04821 0.0
C1443 C 0.74793 0.97711 1.00132 0.0
H1444 H 0.77696 0.0653 0.01168 0.0
C1445 C 0.81361 0.0724 0.94421 0.0
C1446 C 0.80495 0.09558 0.94197 0.0
C1447 C 0.80345 0.05229 0.96 0.0
C1448 C 0.76869 0.04076 0.00847 0.0
H1449 H 0.73241 0.90144 0.05689 0.0
H1450 H 0.75344 0.9364 0.02896 0.0
H1451 H 0.75453 0.02684 0.03745 0.0
H1452 H 0.7798 0.11663 0.95498 0.0
H1453 H 0.76172 0.08125 0.98264 0.0
H1454 H 0.7618 0.99098 0.97229 0.0
C1455 C 0.73747 0.93895 0.03849 0.0
C1456 C 0.75584 0.01867 0.02326 0.0
C1457 C 0.72539 0.91888 0.05442 0.0
C1458 C 0.78704 0.09915 0.95637 0.0
C1459 C 0.77667 0.07883 0.9722 0.0
C1460 C 0.76073 0.99921 0.9865 0.0
C1461 C 0.73029 0.96313 0.03555 0.0
C1462 C 0.74506 0.98654 0.01984 0.0
C1463 C 0.78418 0.05467 0.97397 0.0
C1464 C 0.77116 0.03132 0.98987 0.0
H1465 H 0.68229 0.94912 0.07375 0.0
H1466 H 0.70274 0.98337 0.04609 0.0
H1467 H 0.73957 0.95254 0.99817 0.0
H1468 H 0.82769 0.06921 0.93347 0.0
H1469 H 0.81037 0.03455 0.96111 0.0
C1470 C 0.77038 0.68288 0.55658 0.0
C1471 C 0.79622 0.705 0.56736 0.0
C1472 C 0.75845 0.6928 0.54151 0.0
C1473 C 0.76114 0.76606 0.52318 0.0
H1474 H 0.71894 0.71369 0.47903 0.0
C1475 C 0.73674 0.80838 0.45086 0.0
C1476 C 0.70514 0.79301 0.44484 0.0
C1477 C 0.74574 0.79785 0.46697 0.0
C1478 C 0.73042 0.72836 0.49141 0.0
H1479 H 0.83112 0.7544 0.57023 0.0
H1480 H 0.81202 0.7715 0.54326 0.0
H1481 H 0.74084 0.69456 0.50358 0.0
H1482 H 0.65808 0.75481 0.45094 0.0
H1483 H 0.67414 0.73565 0.47895 0.0
H1484 H 0.75211 0.8005 0.51025 0.0
C1485 C 0.79969 0.7467 0.54686 0.0
C1486 C 0.74292 0.71743 0.50554 0.0
C1487 C 0.81104 0.73688 0.56217 0.0
C1488 C 0.68251 0.76732 0.45548 0.0
C1489 C 0.69169 0.75622 0.47133 0.0
C1490 C 0.74928 0.77721 0.50884 0.0
C1491 C 0.77257 0.725 0.53668 0.0
C1492 C 0.75869 0.73622 0.52161 0.0
C1493 C 0.72344 0.77124 0.47704 0.0
C1494 C 0.7339 0.7585 0.49284 0.0
H1495 H 0.75826 0.65819 0.5605 0.0
H1496 H 0.7374 0.6753 0.53423 0.0
H1497 H 0.77216 0.78096 0.53552 0.0
H1498 H 0.75464 0.82812 0.44281 0.0
H1499 H 0.77036 0.80971 0.4711 0.0
C1500 C 0.93127 0.72957 0.95229 0.0
C1501 C 0.9257 0.70114 0.94399 0.0
C1502 C 0.95155 0.7421 0.96811 0.0
C1503 C 0.98753 0.72188 0.00767 0.0
H1504 H 0.06105 0.80466 1.00086 0.0
C1505 C 0.09461 0.76116 0.05602 0.0
C1506 C 0.11065 0.79237 0.06262 0.0
C1507 C 0.07265 0.7522 0.04121 0.0
C1508 C 0.04048 0.78173 1.00316 0.0
H1509 H 0.93562 0.66289 0.94591 0.0
H1510 H 0.96973 0.68391 0.97399 0.0
H1511 H 0.01827 0.7846 0.97727 0.0
H1512 H 0.11729 0.83906 0.05854 0.0
H1513 H 0.07816 0.82334 0.03278 0.0
H1514 H 1.0091 0.71877 0.03351 0.0
C1515 C 0.95883 0.69672 0.96827 0.0
C1516 C 0.01597 0.7703 0.98966 0.0
C1517 C 0.93928 0.68465 0.95227 0.0
C1518 C 0.10553 0.81493 0.05347 0.0
C1519 C 0.083 0.80583 0.03879 0.0
C1520 C 1.01171 0.7334 0.02125 0.0
C1521 C 0.96586 0.72595 0.97604 0.0
C1522 C 0.98961 0.73997 0.9916 0.0
C1523 C 0.06552 0.77407 0.03291 0.0
C1524 C 0.03894 0.76313 0.01895 0.0
H1525 H 0.92151 0.74295 0.94586 0.0
H1526 H 0.9566 0.76467 0.97388 0.0
H1527 H 0.96731 0.69855 0.00959 0.0
H1528 H 0.09824 0.74335 0.06283 0.0
H1529 H 0.06056 0.7278 0.03665 0.0
C1530 C 0.26338 0.9279 0.45272 0.0
C1531 C 0.23267 0.91333 0.44526 0.0
C1532 C 0.27157 0.94786 0.46855 0.0
C1533 C 0.2549 1.00418 0.49063 0.0
H1534 H 0.30211 0.9989 0.53365 0.0
C1535 C 0.30025 0.0941 0.55407 0.0
C1536 C 0.3283 0.09981 0.56302 0.0
C1537 C 0.28687 0.07148 0.53945 0.0
C1538 C 0.28941 1.00111 0.52161 0.0
H1539 H 0.18625 0.90778 0.4485 0.0
H1540 H 0.20087 0.94359 0.47617 0.0
H1541 H 0.28037 0.95695 0.50988 0.0
H1542 H 0.36556 0.08836 0.56296 0.0
H1543 H 0.34354 0.0506 0.53684 0.0
H1544 H 0.26508 0.04902 0.50184 0.0
C1545 C 0.21837 0.93903 0.46987 0.0
C1546 C 0.27664 0.97681 0.50812 0.0
C1547 C 0.20994 0.91834 0.45424 0.0
C1548 C 0.34384 0.08427 0.55629 0.0
C1549 C 0.3309 0.06225 0.54152 0.0
C1550 C 0.2681 0.02882 0.50401 0.0
C1551 C 0.24942 0.95429 0.47697 0.0
C1552 C 0.25963 0.97828 0.49237 0.0
C1553 C 0.30157 0.05452 0.53342 0.0
C1554 C 0.28604 0.02787 0.51951 0.0
H1555 H 0.28137 0.92462 0.4459 0.0
H1556 H 0.2957 0.95948 0.47366 0.0
H1557 H 0.24211 1.00599 0.47848 0.0
H1558 H 0.2876 0.10548 0.55925 0.0
H1559 H 0.26426 0.06618 0.53362 0.0
loop_
_geom_bond_atom_site_label_1
_geom_bond_atom_site_label_2
_geom_bond_distance
_geom_bond_site_symmetry_2
_ccdc_geom_bond_type
Tb0 C9 2.764 . S
Tb0 O10 2.325 . S
Tb0 O13 2.303 . S
Tb0 O17 2.322 . S
Tb0 O18 2.349 . S
Tb0 O21 2.415 . S
Tb0 O22 2.399 . S
Tb1 O11 2.322 . S
Tb1 O12 2.349 . S
Tb1 O14 2.415 . S
Tb1 O15 2.399 . S
Tb1 O16 2.325 . S
Tb1 O19 2.303 . S
Tb1 C30 2.764 . S
C2 O18 1.261 . S
C2 O19 1.257 . S
C3 C6 1.358 . S
C3 C7 1.332 . S
C3 C9 1.504 . S
C4 C5 1.373 . S
C4 C8 1.308 . S
C5 C4 1.373 . S
C5 C6 1.429 . S
C5 H32 0.932 . S
C6 C3 1.358 . S
C6 C5 1.429 . S
C6 H33 0.930 . S
C7 C3 1.332 . S
C7 C8 1.394 . S
C7 H34 0.932 . S
C8 C4 1.308 . S
C8 C7 1.394 . S
C8 H35 0.929 . S
C9 Tb0 2.764 . S
C9 C3 1.504 . S
C9 O21 1.239 . S
C9 O22 1.263 . S
O10 Tb0 2.325 . S
O10 C20 1.236 . S
O11 Tb1 2.322 . S
O11 C20 1.257 . S
O12 Tb1 2.349 . S
O12 C23 1.261 . S
O13 Tb0 2.303 . S
O13 C23 1.257 . S
O14 Tb1 2.415 . S
O14 C30 1.239 . S
O15 Tb1 2.399 . S
O15 C30 1.263 . S
O16 Tb1 2.325 . S
O16 C31 1.236 . S
O17 Tb0 2.322 . S
O17 C31 1.257 . S
O18 Tb0 2.349 . S
O18 C2 1.261 . S
O19 Tb1 2.303 . S
O19 C2 1.257 . S
C20 O10 1.236 . S
C20 O11 1.257 . S
O21 Tb0 2.415 . S
O21 C9 1.239 . S
O22 Tb0 2.399 . S
O22 C9 1.263 . S
C23 O12 1.261 . S
C23 O13 1.257 . S
C24 C27 1.358 . S
C24 C28 1.332 . S
C24 C30 1.504 . S
C25 C26 1.373 . S
C25 C29 1.308 . S
C26 C25 1.373 . S
C26 C27 1.429 . S
C26 H36 0.932 . S
C27 C24 1.358 . S
C27 C26 1.429 . S
C27 H37 0.930 . S
C28 C24 1.332 . S
C28 C29 1.394 . S
C28 H38 0.932 . S
C29 C25 1.308 . S
C29 C28 1.394 . S
C29 H39 0.929 . S
C30 Tb1 2.764 . S
C30 O14 1.239 . S
C30 O15 1.263 . S
C30 C24 1.504 . S
C31 O16 1.236 . S
C31 O17 1.257 . S
H32 C5 0.932 . S
H33 C6 0.930 . S
H34 C7 0.932 . S
H35 C8 0.929 . S
H36 C26 0.932 . S
H37 C27 0.930 . S
H38 C28 0.932 . S
H39 C29 0.929 . S
Tb40 C49 2.764 . S
Tb40 O50 2.325 . S
Tb40 O53 2.303 . S
Tb40 O57 2.322 . S
Tb40 O58 2.349 . S
Tb40 O61 2.415 . S
Tb40 O62 2.399 . S
Tb41 O51 2.322 . S
Tb41 O52 2.349 . S
Tb41 O54 2.415 . S
Tb41 O55 2.399 . S
Tb41 O56 2.325 . S
Tb41 O59 2.303 . S
Tb41 C70 2.764 . S
C42 O58 1.261 . S
C42 O59 1.257 . S
C43 C46 1.358 . S
C43 C47 1.332 . S
C43 C49 1.504 . S
C44 C45 1.373 . S
C44 C48 1.308 . S
C45 C44 1.373 . S
C45 C46 1.429 1_455 S
C45 H72 0.932 . S
C46 C43 1.358 . S
C46 C45 1.429 1_655 S
C46 H73 0.930 . S
C47 C43 1.332 . S
C47 C48 1.394 1_655 S
C47 H74 0.932 . S
C48 C44 1.308 . S
C48 C47 1.394 1_455 S
C48 H75 0.929 . S
C49 Tb40 2.764 . S
C49 C43 1.504 . S
C49 O61 1.239 . S
C49 O62 1.263 . S
O50 Tb40 2.325 . S
O50 C60 1.236 . S
O51 Tb41 2.322 . S
O51 C60 1.257 . S
O52 Tb41 2.349 . S
O52 C63 1.261 . S
O53 Tb40 2.303 . S
O53 C63 1.257 . S
O54 Tb41 2.415 . S
O54 C70 1.239 . S
O55 Tb41 2.399 . S
O55 C70 1.263 . S
O56 Tb41 2.325 . S
O56 C71 1.236 . S
O57 Tb40 2.322 . S
O57 C71 1.257 . S
O58 Tb40 2.349 . S
O58 C42 1.261 . S
O59 Tb41 2.303 . S
O59 C42 1.257 . S
C60 O50 1.236 . S
C60 O51 1.257 . S
O61 Tb40 2.415 . S
O61 C49 1.239 . S
O62 Tb40 2.399 . S
O62 C49 1.263 . S
C63 O52 1.261 . S
C63 O53 1.257 . S
C64 C67 1.358 . S
C64 C68 1.332 . S
C64 C70 1.504 . S
C65 C66 1.373 . S
C65 C69 1.308 . S
C66 C65 1.373 . S
C66 C67 1.429 . S
C66 H76 0.932 . S
C67 C64 1.358 . S
C67 C66 1.429 . S
C67 H77 0.930 . S
C68 C64 1.332 . S
C68 C69 1.394 . S
C68 H78 0.932 . S
C69 C65 1.308 . S
C69 C68 1.394 . S
C69 H79 0.929 . S
C70 Tb41 2.764 . S
C70 O54 1.239 . S
C70 O55 1.263 . S
C70 C64 1.504 . S
C71 O56 1.236 . S
C71 O57 1.257 . S
H72 C45 0.932 . S
H73 C46 0.930 . S
H74 C47 0.932 . S
H75 C48 0.929 . S
H76 C66 0.932 . S
H77 C67 0.930 . S
H78 C68 0.932 . S
H79 C69 0.929 . S
Tb80 C89 2.764 . S
Tb80 O90 2.325 . S
Tb80 O93 2.303 . S
Tb80 O97 2.322 . S
Tb80 O98 2.349 . S
Tb80 O101 2.415 . S
Tb80 O102 2.399 . S
Tb81 O91 2.322 . S
Tb81 O92 2.349 . S
Tb81 O94 2.415 . S
Tb81 O95 2.399 . S
Tb81 O96 2.325 . S
Tb81 O99 2.303 . S
Tb81 C110 2.764 . S
C82 O98 1.261 . S
C82 O99 1.257 . S
C83 C86 1.358 . S
C83 C87 1.332 . S
C83 C89 1.504 . S
C84 C85 1.373 . S
C84 C88 1.308 . S
C85 C84 1.373 . S
C85 C86 1.429 1_545 S
C85 H112 0.932 . S
C86 C83 1.358 . S
C86 C85 1.429 1_565 S
C86 H113 0.930 . S
C87 C83 1.332 . S
C87 C88 1.394 1_565 S
C87 H114 0.932 . S
C88 C84 1.308 . S
C88 C87 1.394 1_545 S
C88 H115 0.929 . S
C89 Tb80 2.764 . S
C89 C83 1.504 . S
C89 O101 1.239 . S
C89 O102 1.263 . S
O90 Tb80 2.325 . S
O90 C100 1.236 . S
O91 Tb81 2.322 . S
O91 C100 1.257 . S
O92 Tb81 2.349 . S
O92 C103 1.261 . S
O93 Tb80 2.303 . S
O93 C103 1.257 . S
O94 Tb81 2.415 . S
O94 C110 1.239 . S
O95 Tb81 2.399 . S
O95 C110 1.263 . S
O96 Tb81 2.325 . S
O96 C111 1.236 . S
O97 Tb80 2.322 . S
O97 C111 1.257 . S
O98 Tb80 2.349 . S
O98 C82 1.261 . S
O99 Tb81 2.303 . S
O99 C82 1.257 . S
C100 O90 1.236 . S
C100 O91 1.257 . S
O101 Tb80 2.415 . S
O101 C89 1.239 . S
O102 Tb80 2.399 . S
O102 C89 1.263 . S
C103 O92 1.261 . S
C103 O93 1.257 . S
C104 C107 1.358 . S
C104 C108 1.332 . S
C104 C110 1.504 . S
C105 C106 1.373 . S
C105 C109 1.308 . S
C106 C105 1.373 . S
C106 C107 1.429 . S
C106 H116 0.932 . S
C107 C104 1.358 . S
C107 C106 1.429 . S
C107 H117 0.930 . S
C108 C104 1.332 . S
C108 C109 1.394 . S
C108 H118 0.932 . S
C109 C105 1.308 . S
C109 C108 1.394 . S
C109 H119 0.929 . S
C110 Tb81 2.764 . S
C110 O94 1.239 . S
C110 O95 1.263 . S
C110 C104 1.504 . S
C111 O96 1.236 . S
C111 O97 1.257 . S
H112 C85 0.932 . S
H113 C86 0.930 . S
H114 C87 0.932 . S
H115 C88 0.929 . S
H116 C106 0.932 . S
H117 C107 0.930 . S
H118 C108 0.932 . S
H119 C109 0.929 . S
Tb120 C129 2.764 . S
Tb120 O130 2.325 . S
Tb120 O133 2.303 . S
Tb120 O137 2.322 . S
Tb120 O138 2.349 . S
Tb120 O141 2.415 . S
Tb120 O142 2.399 . S
Tb121 O131 2.322 . S
Tb121 O132 2.349 . S
Tb121 O134 2.415 . S
Tb121 O135 2.399 . S
Tb121 O136 2.325 . S
Tb121 O139 2.303 . S
Tb121 C150 2.764 . S
C122 O138 1.261 . S
C122 O139 1.257 . S
C123 C126 1.358 . S
C123 C127 1.332 . S
C123 C129 1.504 . S
C124 C125 1.373 . S
C124 C128 1.308 . S
C125 C124 1.373 . S
C125 C126 1.429 . S
C125 H152 0.932 . S
C126 C123 1.358 . S
C126 C125 1.429 . S
C126 H153 0.930 . S
C127 C123 1.332 . S
C127 C128 1.394 . S
C127 H154 0.932 . S
C128 C124 1.308 . S
C128 C127 1.394 . S
C128 H155 0.929 . S
C129 Tb120 2.764 . S
C129 C123 1.504 . S
C129 O141 1.239 . S
C129 O142 1.263 . S
O130 Tb120 2.325 . S
O130 C140 1.236 . S
O131 Tb121 2.322 . S
O131 C140 1.257 . S
O132 Tb121 2.349 . S
O132 C143 1.261 . S
O133 Tb120 2.303 . S
O133 C143 1.257 . S
O134 Tb121 2.415 . S
O134 C150 1.239 . S
O135 Tb121 2.399 . S
O135 C150 1.263 . S
O136 Tb121 2.325 . S
O136 C151 1.236 . S
O137 Tb120 2.322 . S
O137 C151 1.257 . S
O138 Tb120 2.349 . S
O138 C122 1.261 . S
O139 Tb121 2.303 . S
O139 C122 1.257 . S
C140 O130 1.236 . S
C140 O131 1.257 . S
O141 Tb120 2.415 . S
O141 C129 1.239 . S
O142 Tb120 2.399 . S
O142 C129 1.263 . S
C143 O132 1.261 . S
C143 O133 1.257 . S
C144 C147 1.358 . S
C144 C148 1.332 . S
C144 C150 1.504 . S
C145 C146 1.373 . S
C145 C149 1.308 . S
C146 C145 1.373 . S
C146 C147 1.429 . S
C146 H156 0.932 . S
C147 C144 1.358 . S
C147 C146 1.429 . S
C147 H157 0.930 . S
C148 C144 1.332 . S
C148 C149 1.394 . S
C148 H158 0.932 . S
C149 C145 1.308 . S
C149 C148 1.394 . S
C149 H159 0.929 . S
C150 Tb121 2.764 . S
C150 O134 1.239 . S
C150 O135 1.263 . S
C150 C144 1.504 . S
C151 O136 1.236 . S
C151 O137 1.257 . S
H152 C125 0.932 . S
H153 C126 0.930 . S
H154 C127 0.932 . S
H155 C128 0.929 . S
H156 C146 0.932 . S
H157 C147 0.930 . S
H158 C148 0.932 . S
H159 C149 0.929 . S
Tb160 C169 2.764 . S
Tb160 O170 2.325 . S
Tb160 O173 2.303 . S
Tb160 O177 2.322 . S
Tb160 O178 2.349 . S
Tb160 O181 2.415 . S
Tb160 O182 2.399 . S
Tb161 O171 2.322 . S
Tb161 O172 2.349 . S
Tb161 O174 2.415 . S
Tb161 O175 2.399 . S
Tb161 O176 2.325 . S
Tb161 O179 2.303 . S
Tb161 C190 2.764 . S
C162 O178 1.261 . S
C162 O179 1.257 . S
C163 C166 1.358 . S
C163 C167 1.332 . S
C163 C169 1.504 . S
C164 C165 1.373 . S
C164 C168 1.308 . S
C165 C164 1.373 . S
C165 C166 1.429 1_655 S
C165 H192 0.932 . S
C166 C163 1.358 . S
C166 C165 1.429 1_455 S
C166 H193 0.930 . S
C167 C163 1.332 . S
C167 C168 1.394 1_455 S
C167 H194 0.932 . S
C168 C164 1.308 . S
C168 C167 1.394 1_655 S
C168 H195 0.929 . S
C169 Tb160 2.764 . S
C169 C163 1.504 . S
C169 O181 1.239 . S
C169 O182 1.263 . S
O170 Tb160 2.325 . S
O170 C180 1.236 . S
O171 Tb161 2.322 . S
O171 C180 1.257 . S
O172 Tb161 2.349 . S
O172 C183 1.261 . S
O173 Tb160 2.303 . S
O173 C183 1.257 . S
O174 Tb161 2.415 . S
O174 C190 1.239 . S
O175 Tb161 2.399 . S
O175 C190 1.263 . S
O176 Tb161 2.325 . S
O176 C191 1.236 . S
O177 Tb160 2.322 . S
O177 C191 1.257 . S
O178 Tb160 2.349 . S
O178 C162 1.261 . S
O179 Tb161 2.303 . S
O179 C162 1.257 . S
C180 O170 1.236 . S
C180 O171 1.257 . S
O181 Tb160 2.415 . S
O181 C169 1.239 . S
O182 Tb160 2.399 . S
O182 C169 1.263 . S
C183 O172 1.261 . S
C183 O173 1.257 . S
C184 C187 1.358 . S
C184 C188 1.332 . S
C184 C190 1.504 . S
C185 C186 1.373 . S
C185 C189 1.308 . S
C186 C185 1.373 . S
C186 C187 1.429 . S
C186 H196 0.932 . S
C187 C184 1.358 . S
C187 C186 1.429 . S
C187 H197 0.930 . S
C188 C184 1.332 . S
C188 C189 1.394 . S
C188 H198 0.932 . S
C189 C185 1.308 . S
C189 C188 1.394 . S
C189 H199 0.929 . S
C190 Tb161 2.764 . S
C190 O174 1.239 . S
C190 O175 1.263 . S
C190 C184 1.504 . S
C191 O176 1.236 . S
C191 O177 1.257 . S
H192 C165 0.932 . S
H193 C166 0.930 . S
H194 C167 0.932 . S
H195 C168 0.929 . S
H196 C186 0.932 . S
H197 C187 0.930 . S
H198 C188 0.932 . S
H199 C189 0.929 . S
Tb200 C209 2.764 . S
Tb200 O210 2.325 . S
Tb200 O213 2.303 . S
Tb200 O217 2.322 . S
Tb200 O218 2.349 . S
Tb200 O221 2.415 . S
Tb200 O222 2.399 . S
Tb201 O211 2.322 . S
Tb201 O212 2.349 . S
Tb201 O214 2.415 . S
Tb201 O215 2.399 . S
Tb201 O216 2.325 . S
Tb201 O219 2.303 . S
Tb201 C230 2.764 . S
C202 O218 1.261 . S
C202 O219 1.257 . S
C203 C206 1.358 . S
C203 C207 1.332 . S
C203 C209 1.504 . S
C204 C205 1.373 . S
C204 C208 1.308 . S
C205 C204 1.373 . S
C205 C206 1.429 1_565 S
C205 H232 0.932 . S
C206 C203 1.358 . S
C206 C205 1.429 1_545 S
C206 H233 0.930 . S
C207 C203 1.332 . S
C207 C208 1.394 1_545 S
C207 H234 0.932 . S
C208 C204 1.308 . S
C208 C207 1.394 1_565 S
C208 H235 0.929 . S
C209 Tb200 2.764 . S
C209 C203 1.504 . S
C209 O221 1.239 . S
C209 O222 1.263 . S
O210 Tb200 2.325 . S
O210 C220 1.236 . S
O211 Tb201 2.322 . S
O211 C220 1.257 . S
O212 Tb201 2.349 . S
O212 C223 1.261 . S
O213 Tb200 2.303 . S
O213 C223 1.257 . S
O214 Tb201 2.415 . S
O214 C230 1.239 . S
O215 Tb201 2.399 . S
O215 C230 1.263 . S
O216 Tb201 2.325 . S
O216 C231 1.236 . S
O217 Tb200 2.322 . S
O217 C231 1.257 . S
O218 Tb200 2.349 . S
O218 C202 1.261 . S
O219 Tb201 2.303 . S
O219 C202 1.257 . S
C220 O210 1.236 . S
C220 O211 1.257 . S
O221 Tb200 2.415 . S
O221 C209 1.239 . S
O222 Tb200 2.399 . S
O222 C209 1.263 . S
C223 O212 1.261 . S
C223 O213 1.257 . S
C224 C227 1.358 . S
C224 C228 1.332 . S
C224 C230 1.504 . S
C225 C226 1.373 . S
C225 C229 1.308 . S
C226 C225 1.373 . S
C226 C227 1.429 . S
C226 H236 0.932 . S
C227 C224 1.358 . S
C227 C226 1.429 . S
C227 H237 0.930 . S
C228 C224 1.332 . S
C228 C229 1.394 . S
C228 H238 0.932 . S
C229 C225 1.308 . S
C229 C228 1.394 . S
C229 H239 0.929 . S
C230 Tb201 2.764 . S
C230 O214 1.239 . S
C230 O215 1.263 . S
C230 C224 1.504 . S
C231 O216 1.236 . S
C231 O217 1.257 . S
H232 C205 0.932 . S
H233 C206 0.930 . S
H234 C207 0.932 . S
H235 C208 0.929 . S
H236 C226 0.932 . S
H237 C227 0.930 . S
H238 C228 0.932 . S
H239 C229 0.929 . S
Tb240 C249 2.764 . S
Tb240 O250 2.325 . S
Tb240 O253 2.303 . S
Tb240 O257 2.322 . S
Tb240 O258 2.349 . S
Tb240 O261 2.415 . S
Tb240 O262 2.399 . S
Tb241 O251 2.322 . S
Tb241 O252 2.349 . S
Tb241 O254 2.415 . S
Tb241 O255 2.399 . S
Tb241 O256 2.325 . S
Tb241 O259 2.303 . S
Tb241 C270 2.764 . S
C242 O258 1.261 . S
C242 O259 1.257 . S
C243 C246 1.358 . S
C243 C247 1.332 . S
C243 C249 1.504 . S
C244 C245 1.373 . S
C244 C248 1.308 . S
C245 C244 1.373 . S
C245 C246 1.429 . S
C245 H272 0.932 . S
C246 C243 1.358 . S
C246 C245 1.429 . S
C246 H273 0.930 . S
C247 C243 1.332 . S
C247 C248 1.394 . S
C247 H274 0.932 . S
C248 C244 1.308 . S
C248 C247 1.394 . S
C248 H275 0.929 . S
C249 Tb240 2.764 . S
C249 C243 1.504 . S
C249 O261 1.239 . S
C249 O262 1.263 . S
O250 Tb240 2.325 . S
O250 C260 1.236 . S
O251 Tb241 2.322 . S
O251 C260 1.257 . S
O252 Tb241 2.349 . S
O252 C263 1.261 . S
O253 Tb240 2.303 . S
O253 C263 1.257 . S
O254 Tb241 2.415 . S
O254 C270 1.239 . S
O255 Tb241 2.399 . S
O255 C270 1.263 . S
O256 Tb241 2.325 . S
O256 C271 1.236 . S
O257 Tb240 2.322 . S
O257 C271 1.257 . S
O258 Tb240 2.349 . S
O258 C242 1.261 . S
O259 Tb241 2.303 . S
O259 C242 1.257 . S
C260 O250 1.236 . S
C260 O251 1.257 . S
O261 Tb240 2.415 . S
O261 C249 1.239 . S
O262 Tb240 2.399 . S
O262 C249 1.263 . S
C263 O252 1.261 . S
C263 O253 1.257 . S
C264 C267 1.358 . S
C264 C268 1.332 . S
C264 C270 1.504 . S
C265 C266 1.373 . S
C265 C269 1.308 . S
C266 C265 1.373 . S
C266 C267 1.429 . S
C266 H276 0.932 . S
C267 C264 1.358 . S
C267 C266 1.429 . S
C267 H277 0.930 . S
C268 C264 1.332 . S
C268 C269 1.394 . S
C268 H278 0.932 . S
C269 C265 1.308 . S
C269 C268 1.394 . S
C269 H279 0.929 . S
C270 Tb241 2.764 . S
C270 O254 1.239 . S
C270 O255 1.263 . S
C270 C264 1.504 . S
C271 O256 1.236 . S
C271 O257 1.257 . S
H272 C245 0.932 . S
H273 C246 0.930 . S
H274 C247 0.932 . S
H275 C248 0.929 . S
H276 C266 0.932 . S
H277 C267 0.930 . S
H278 C268 0.932 . S
H279 C269 0.929 . S
Tb280 C289 2.764 . S
Tb280 O290 2.325 . S
Tb280 O293 2.303 . S
Tb280 O297 2.322 . S
Tb280 O298 2.349 . S
Tb280 O301 2.415 . S
Tb280 O302 2.399 . S
Tb281 O291 2.322 . S
Tb281 O292 2.349 . S
Tb281 O294 2.415 . S
Tb281 O295 2.399 . S
Tb281 O296 2.325 . S
Tb281 O299 2.303 . S
Tb281 C310 2.764 . S
C282 O298 1.261 . S
C282 O299 1.257 . S
C283 C286 1.358 . S
C283 C287 1.332 . S
C283 C289 1.504 . S
C284 C285 1.373 . S
C284 C288 1.308 . S
C285 C284 1.373 . S
C285 C286 1.429 1_455 S
C285 H312 0.932 . S
C286 C283 1.358 . S
C286 C285 1.429 1_655 S
C286 H313 0.930 . S
C287 C283 1.332 . S
C287 C288 1.394 1_655 S
C287 H314 0.932 . S
C288 C284 1.308 . S
C288 C287 1.394 1_455 S
C288 H315 0.929 . S
C289 Tb280 2.764 . S
C289 C283 1.504 . S
C289 O301 1.239 . S
C289 O302 1.263 . S
O290 Tb280 2.325 . S
O290 C300 1.236 . S
O291 Tb281 2.322 . S
O291 C300 1.257 . S
O292 Tb281 2.349 . S
O292 C303 1.261 . S
O293 Tb280 2.303 . S
O293 C303 1.257 . S
O294 Tb281 2.415 . S
O294 C310 1.239 . S
O295 Tb281 2.399 . S
O295 C310 1.263 . S
O296 Tb281 2.325 . S
O296 C311 1.236 . S
O297 Tb280 2.322 . S
O297 C311 1.257 . S
O298 Tb280 2.349 . S
O298 C282 1.261 . S
O299 Tb281 2.303 . S
O299 C282 1.257 . S
C300 O290 1.236 . S
C300 O291 1.257 . S
O301 Tb280 2.415 . S
O301 C289 1.239 . S
O302 Tb280 2.399 . S
O302 C289 1.263 . S
C303 O292 1.261 . S
C303 O293 1.257 . S
C304 C307 1.358 . S
C304 C308 1.332 . S
C304 C310 1.504 . S
C305 C306 1.373 . S
C305 C309 1.308 . S
C306 C305 1.373 . S
C306 C307 1.429 . S
C306 H316 0.932 . S
C307 C304 1.358 . S
C307 C306 1.429 . S
C307 H317 0.930 . S
C308 C304 1.332 . S
C308 C309 1.394 . S
C308 H318 0.932 . S
C309 C305 1.308 . S
C309 C308 1.394 . S
C309 H319 0.929 . S
C310 Tb281 2.764 . S
C310 O294 1.239 . S
C310 O295 1.263 . S
C310 C304 1.504 . S
C311 O296 1.236 . S
C311 O297 1.257 . S
H312 C285 0.932 . S
H313 C286 0.930 . S
H314 C287 0.932 . S
H315 C288 0.929 . S
H316 C306 0.932 . S
H317 C307 0.930 . S
H318 C308 0.932 . S
H319 C309 0.929 . S
Tb320 C329 2.764 . S
Tb320 O330 2.325 . S
Tb320 O333 2.303 . S
Tb320 O337 2.322 . S
Tb320 O338 2.349 . S
Tb320 O341 2.415 . S
Tb320 O342 2.399 . S
Tb321 O331 2.322 . S
Tb321 O332 2.349 . S
Tb321 O334 2.415 . S
Tb321 O335 2.399 . S
Tb321 O336 2.325 . S
Tb321 O339 2.303 . S
Tb321 C350 2.764 . S
C322 O338 1.261 . S
C322 O339 1.257 . S
C323 C326 1.358 . S
C323 C327 1.332 . S
C323 C329 1.504 . S
C324 C325 1.373 . S
C324 C328 1.308 . S
C325 C324 1.373 . S
C325 C326 1.429 1_545 S
C325 H352 0.932 . S
C326 C323 1.358 . S
C326 C325 1.429 1_565 S
C326 H353 0.930 . S
C327 C323 1.332 . S
C327 C328 1.394 1_565 S
C327 H354 0.932 . S
C328 C324 1.308 . S
C328 C327 1.394 1_545 S
C328 H355 0.929 . S
C329 Tb320 2.764 . S
C329 C323 1.504 . S
C329 O341 1.239 . S
C329 O342 1.263 . S
O330 Tb320 2.325 . S
O330 C340 1.236 . S
O331 Tb321 2.322 . S
O331 C340 1.257 . S
O332 Tb321 2.349 . S
O332 C343 1.261 . S
O333 Tb320 2.303 . S
O333 C343 1.257 . S
O334 Tb321 2.415 . S
O334 C350 1.239 . S
O335 Tb321 2.399 . S
O335 C350 1.263 . S
O336 Tb321 2.325 . S
O336 C351 1.236 . S
O337 Tb320 2.322 . S
O337 C351 1.257 . S
O338 Tb320 2.349 . S
O338 C322 1.261 . S
O339 Tb321 2.303 . S
O339 C322 1.257 . S
C340 O330 1.236 . S
C340 O331 1.257 . S
O341 Tb320 2.415 . S
O341 C329 1.239 . S
O342 Tb320 2.399 . S
O342 C329 1.263 . S
C343 O332 1.261 . S
C343 O333 1.257 . S
C344 C347 1.358 . S
C344 C348 1.332 . S
C344 C350 1.504 . S
C345 C346 1.373 . S
C345 C349 1.308 . S
C346 C345 1.373 . S
C346 C347 1.429 . S
C346 H356 0.932 . S
C347 C344 1.358 . S
C347 C346 1.429 . S
C347 H357 0.930 . S
C348 C344 1.332 . S
C348 C349 1.394 . S
C348 H358 0.932 . S
C349 C345 1.308 . S
C349 C348 1.394 . S
C349 H359 0.929 . S
C350 Tb321 2.764 . S
C350 O334 1.239 . S
C350 O335 1.263 . S
C350 C344 1.504 . S
C351 O336 1.236 . S
C351 O337 1.257 . S
H352 C325 0.932 . S
H353 C326 0.930 . S
H354 C327 0.932 . S
H355 C328 0.929 . S
H356 C346 0.932 . S
H357 C347 0.930 . S
H358 C348 0.932 . S
H359 C349 0.929 . S
Tb360 C369 2.764 . S
Tb360 O370 2.325 . S
Tb360 O373 2.303 . S
Tb360 O377 2.322 . S
Tb360 O378 2.349 . S
Tb360 O381 2.415 . S
Tb360 O382 2.399 . S
Tb361 O371 2.322 . S
Tb361 O372 2.349 . S
Tb361 O374 2.415 . S
Tb361 O375 2.399 . S
Tb361 O376 2.325 . S
Tb361 O379 2.303 . S
Tb361 C390 2.764 . S
C362 O378 1.261 . S
C362 O379 1.257 . S
C363 C366 1.358 . S
C363 C367 1.332 . S
C363 C369 1.504 . S
C364 C365 1.373 . S
C364 C368 1.308 . S
C365 C364 1.373 . S
C365 C366 1.429 . S
C365 H392 0.932 . S
C366 C363 1.358 . S
C366 C365 1.429 . S
C366 H393 0.930 . S
C367 C363 1.332 . S
C367 C368 1.394 . S
C367 H394 0.932 . S
C368 C364 1.308 . S
C368 C367 1.394 . S
C368 H395 0.929 . S
C369 Tb360 2.764 . S
C369 C363 1.504 . S
C369 O381 1.239 . S
C369 O382 1.263 . S
O370 Tb360 2.325 . S
O370 C380 1.236 . S
O371 Tb361 2.322 . S
O371 C380 1.257 . S
O372 Tb361 2.349 . S
O372 C383 1.261 . S
O373 Tb360 2.303 . S
O373 C383 1.257 . S
O374 Tb361 2.415 . S
O374 C390 1.239 . S
O375 Tb361 2.399 . S
O375 C390 1.263 . S
O376 Tb361 2.325 . S
O376 C391 1.236 . S
O377 Tb360 2.322 . S
O377 C391 1.257 . S
O378 Tb360 2.349 . S
O378 C362 1.261 . S
O379 Tb361 2.303 . S
O379 C362 1.257 . S
C380 O370 1.236 . S
C380 O371 1.257 . S
O381 Tb360 2.415 . S
O381 C369 1.239 . S
O382 Tb360 2.399 . S
O382 C369 1.263 . S
C383 O372 1.261 . S
C383 O373 1.257 . S
C384 C387 1.358 . S
C384 C388 1.332 . S
C384 C390 1.504 . S
C385 C386 1.373 . S
C385 C389 1.308 . S
C386 C385 1.373 . S
C386 C387 1.429 . S
C386 H396 0.932 . S
C387 C384 1.358 . S
C387 C386 1.429 . S
C387 H397 0.930 . S
C388 C384 1.332 . S
C388 C389 1.394 . S
C388 H398 0.932 . S
C389 C385 1.308 . S
C389 C388 1.394 . S
C389 H399 0.929 . S
C390 Tb361 2.764 . S
C390 O374 1.239 . S
C390 O375 1.263 . S
C390 C384 1.504 . S
C391 O376 1.236 . S
C391 O377 1.257 . S
H392 C365 0.932 . S
H393 C366 0.930 . S
H394 C367 0.932 . S
H395 C368 0.929 . S
H396 C386 0.932 . S
H397 C387 0.930 . S
H398 C388 0.932 . S
H399 C389 0.929 . S
Tb400 C409 2.764 . S
Tb400 O410 2.325 . S
Tb400 O413 2.303 . S
Tb400 O417 2.322 . S
Tb400 O418 2.349 . S
Tb400 O421 2.415 . S
Tb400 O422 2.399 . S
Tb401 O411 2.322 . S
Tb401 O412 2.349 . S
Tb401 O414 2.415 . S
Tb401 O415 2.399 . S
Tb401 O416 2.325 . S
Tb401 O419 2.303 . S
Tb401 C430 2.764 . S
C402 O418 1.261 . S
C402 O419 1.257 . S
C403 C406 1.358 . S
C403 C407 1.332 . S
C403 C409 1.504 . S
C404 C405 1.373 . S
C404 C408 1.308 . S
C405 C404 1.373 . S
C405 C406 1.429 1_655 S
C405 H432 0.932 . S
C406 C403 1.358 . S
C406 C405 1.429 1_455 S
C406 H433 0.930 . S
C407 C403 1.332 . S
C407 C408 1.394 1_455 S
C407 H434 0.932 . S
C408 C404 1.308 . S
C408 C407 1.394 1_655 S
C408 H435 0.929 . S
C409 Tb400 2.764 . S
C409 C403 1.504 . S
C409 O421 1.239 . S
C409 O422 1.263 . S
O410 Tb400 2.325 . S
O410 C420 1.236 . S
O411 Tb401 2.322 . S
O411 C420 1.257 . S
O412 Tb401 2.349 . S
O412 C423 1.261 . S
O413 Tb400 2.303 . S
O413 C423 1.257 . S
O414 Tb401 2.415 . S
O414 C430 1.239 . S
O415 Tb401 2.399 . S
O415 C430 1.263 . S
O416 Tb401 2.325 . S
O416 C431 1.236 . S
O417 Tb400 2.322 . S
O417 C431 1.257 . S
O418 Tb400 2.349 . S
O418 C402 1.261 . S
O419 Tb401 2.303 . S
O419 C402 1.257 . S
C420 O410 1.236 . S
C420 O411 1.257 . S
O421 Tb400 2.415 . S
O421 C409 1.239 . S
O422 Tb400 2.399 . S
O422 C409 1.263 . S
C423 O412 1.261 . S
C423 O413 1.257 . S
C424 C427 1.358 . S
C424 C428 1.332 . S
C424 C430 1.504 . S
C425 C426 1.373 . S
C425 C429 1.308 . S
C426 C425 1.373 . S
C426 C427 1.429 . S
C426 H436 0.932 . S
C427 C424 1.358 . S
C427 C426 1.429 . S
C427 H437 0.930 . S
C428 C424 1.332 . S
C428 C429 1.394 . S
C428 H438 0.932 . S
C429 C425 1.308 . S
C429 C428 1.394 . S
C429 H439 0.929 . S
C430 Tb401 2.764 . S
C430 O414 1.239 . S
C430 O415 1.263 . S
C430 C424 1.504 . S
C431 O416 1.236 . S
C431 O417 1.257 . S
H432 C405 0.932 . S
H433 C406 0.930 . S
H434 C407 0.932 . S
H435 C408 0.929 . S
H436 C426 0.932 . S
H437 C427 0.930 . S
H438 C428 0.932 . S
H439 C429 0.929 . S
Tb440 C449 2.764 . S
Tb440 O450 2.325 . S
Tb440 O453 2.303 . S
Tb440 O457 2.322 . S
Tb440 O458 2.349 . S
Tb440 O461 2.415 . S
Tb440 O462 2.399 . S
Tb441 O451 2.322 . S
Tb441 O452 2.349 . S
Tb441 O454 2.415 . S
Tb441 O455 2.399 . S
Tb441 O456 2.325 . S
Tb441 O459 2.303 . S
Tb441 C470 2.764 . S
C442 O458 1.261 . S
C442 O459 1.257 . S
C443 C446 1.358 . S
C443 C447 1.332 . S
C443 C449 1.504 . S
C444 C445 1.373 . S
C444 C448 1.308 . S
C445 C444 1.373 . S
C445 C446 1.429 1_565 S
C445 H472 0.932 . S
C446 C443 1.358 . S
C446 C445 1.429 1_545 S
C446 H473 0.930 . S
C447 C443 1.332 . S
C447 C448 1.394 1_545 S
C447 H474 0.932 . S
C448 C444 1.308 . S
C448 C447 1.394 1_565 S
C448 H475 0.929 . S
C449 Tb440 2.764 . S
C449 C443 1.504 . S
C449 O461 1.239 . S
C449 O462 1.263 . S
O450 Tb440 2.325 . S
O450 C460 1.236 . S
O451 Tb441 2.322 . S
O451 C460 1.257 . S
O452 Tb441 2.349 . S
O452 C463 1.261 . S
O453 Tb440 2.303 . S
O453 C463 1.257 . S
O454 Tb441 2.415 . S
O454 C470 1.239 . S
O455 Tb441 2.399 . S
O455 C470 1.263 . S
O456 Tb441 2.325 . S
O456 C471 1.236 . S
O457 Tb440 2.322 . S
O457 C471 1.257 . S
O458 Tb440 2.349 . S
O458 C442 1.261 . S
O459 Tb441 2.303 . S
O459 C442 1.257 . S
C460 O450 1.236 . S
C460 O451 1.257 . S
O461 Tb440 2.415 . S
O461 C449 1.239 . S
O462 Tb440 2.399 . S
O462 C449 1.263 . S
C463 O452 1.261 . S
C463 O453 1.257 . S
C464 C467 1.358 . S
C464 C468 1.332 . S
C464 C470 1.504 . S
C465 C466 1.373 . S
C465 C469 1.308 . S
C466 C465 1.373 . S
C466 C467 1.429 . S
C466 H476 0.932 . S
C467 C464 1.358 . S
C467 C466 1.429 . S
C467 H477 0.930 . S
C468 C464 1.332 . S
C468 C469 1.394 . S
C468 H478 0.932 . S
C469 C465 1.308 . S
C469 C468 1.394 . S
C469 H479 0.929 . S
C470 Tb441 2.764 . S
C470 O454 1.239 . S
C470 O455 1.263 . S
C470 C464 1.504 . S
C471 O456 1.236 . S
C471 O457 1.257 . S
H472 C445 0.932 . S
H473 C446 0.930 . S
H474 C447 0.932 . S
H475 C448 0.929 . S
H476 C466 0.932 . S
H477 C467 0.930 . S
H478 C468 0.932 . S
H479 C469 0.929 . S
C480 C481 1.349 . S
C480 C482 1.327 . S
C480 H505 0.950 . S
C481 C480 1.349 . S
C481 C497 1.349 . S
C482 C480 1.327 . S
C482 C501 1.429 . S
C482 H506 0.950 . S
C483 C500 1.574 1_565 S
C483 C502 1.368 . S
C483 H507 0.949 . S
H484 C488 0.949 . S
C485 C486 1.349 . S
C485 C487 1.327 . S
C485 H508 0.950 . S
C486 C485 1.349 . S
C486 C498 1.349 . S
C487 C485 1.327 . S
C487 C503 1.429 . S
C487 H509 0.950 . S
C488 H484 0.949 . S
C488 C496 1.574 1_545 S
C488 C504 1.368 . S
H489 C497 0.950 . S
H490 C495 0.950 . S
H491 C496 0.949 . S
H492 C498 0.950 . S
H493 C499 0.950 . S
H494 C500 0.949 . S
C495 H490 0.950 . S
C495 C497 1.327 . S
C495 C501 1.429 . S
C496 C488 1.574 1_565 S
C496 H491 0.949 . S
C496 C502 1.368 . S
C497 C481 1.349 . S
C497 H489 0.950 . S
C497 C495 1.327 . S
C498 C486 1.349 . S
C498 H492 0.950 . S
C498 C499 1.327 . S
C499 H493 0.950 . S
C499 C498 1.327 . S
C499 C503 1.429 . S
C500 C483 1.574 1_545 S
C500 H494 0.949 . S
C500 C504 1.368 . S
C501 C482 1.429 . S
C501 C495 1.429 . S
C501 C502 1.523 . S
C502 C483 1.368 . S
C502 C496 1.368 . S
C502 C501 1.523 . S
C503 C487 1.429 . S
C503 C499 1.429 . S
C503 C504 1.523 . S
C504 C488 1.368 . S
C504 C500 1.368 . S
C504 C503 1.523 . S
H505 C480 0.950 . S
H506 C482 0.950 . S
H507 C483 0.949 . S
H508 C485 0.950 . S
H509 C487 0.950 . S
C510 C511 1.349 . S
C510 C512 1.327 . S
C510 H535 0.950 . S
C511 C510 1.349 . S
C511 C527 1.349 . S
C512 C510 1.327 . S
C512 C531 1.429 . S
C512 H536 0.950 . S
C513 C530 1.574 . S
C513 C532 1.368 . S
C513 H537 0.949 . S
H514 C518 0.949 . S
C515 C516 1.349 . S
C515 C517 1.327 . S
C515 H538 0.950 . S
C516 C515 1.349 . S
C516 C528 1.349 . S
C517 C515 1.327 . S
C517 C533 1.429 . S
C517 H539 0.950 . S
C518 H514 0.949 . S
C518 C526 1.574 . S
C518 C534 1.368 . S
H519 C527 0.950 . S
H520 C525 0.950 . S
H521 C526 0.949 . S
H522 C528 0.950 . S
H523 C529 0.950 . S
H524 C530 0.949 . S
C525 H520 0.950 . S
C525 C527 1.327 . S
C525 C531 1.429 . S
C526 C518 1.574 . S
C526 H521 0.949 . S
C526 C532 1.368 . S
C527 C511 1.349 . S
C527 H519 0.950 . S
C527 C525 1.327 . S
C528 C516 1.349 . S
C528 H522 0.950 . S
C528 C529 1.327 . S
C529 H523 0.950 . S
C529 C528 1.327 . S
C529 C533 1.429 . S
C530 C513 1.574 . S
C530 H524 0.949 . S
C530 C534 1.368 . S
C531 C512 1.429 . S
C531 C525 1.429 . S
C531 C532 1.523 . S
C532 C513 1.368 . S
C532 C526 1.368 . S
C532 C531 1.523 . S
C533 C517 1.429 . S
C533 C529 1.429 . S
C533 C534 1.523 . S
C534 C518 1.368 . S
C534 C530 1.368 . S
C534 C533 1.523 . S
H535 C510 0.950 . S
H536 C512 0.950 . S
H537 C513 0.949 . S
H538 C515 0.950 . S
H539 C517 0.950 . S
C540 C541 1.349 . S
C540 C542 1.327 . S
C540 H565 0.950 . S
C541 C540 1.349 . S
C541 C557 1.349 . S
C542 C540 1.327 . S
C542 C561 1.429 . S
C542 H566 0.950 . S
C543 C560 1.574 1_655 S
C543 C562 1.368 . S
C543 H567 0.949 . S
H544 C548 0.949 1_455 S
C545 C546 1.349 . S
C545 C547 1.327 . S
C545 H568 0.950 . S
C546 C545 1.349 . S
C546 C558 1.349 . S
C547 C545 1.327 . S
C547 C563 1.429 . S
C547 H569 0.950 . S
C548 H544 0.949 1_655 S
C548 C556 1.581 . S
C548 C564 1.362 1_655 S
H549 C557 0.950 . S
H550 C555 0.950 . S
H551 C556 0.949 . S
H552 C558 0.950 . S
H553 C559 0.950 . S
H554 C560 0.949 . S
C555 H550 0.950 . S
C555 C557 1.327 . S
C555 C561 1.429 . S
C556 C548 1.581 . S
C556 H551 0.949 . S
C556 C562 1.368 . S
C557 C541 1.349 . S
C557 H549 0.950 . S
C557 C555 1.327 . S
C558 C546 1.349 . S
C558 H552 0.950 . S
C558 C559 1.327 . S
C559 H553 0.950 . S
C559 C558 1.327 . S
C559 C563 1.429 . S
C560 C543 1.574 1_455 S
C560 H554 0.949 . S
C560 C564 1.368 . S
C561 C542 1.429 . S
C561 C555 1.429 . S
C561 C562 1.523 . S
C562 C543 1.368 . S
C562 C556 1.368 . S
C562 C561 1.523 . S
C563 C547 1.429 . S
C563 C559 1.429 . S
C563 C564 1.523 . S
C564 C548 1.362 1_455 S
C564 C560 1.368 . S
C564 C563 1.523 . S
H565 C540 0.950 . S
H566 C542 0.950 . S
H567 C543 0.949 . S
H568 C545 0.950 . S
H569 C547 0.950 . S
C570 C571 1.349 . S
C570 C572 1.327 . S
C570 H595 0.950 . S
C571 C570 1.349 . S
C571 C587 1.349 . S
C572 C570 1.327 . S
C572 C591 1.429 . S
C572 H596 0.950 . S
C573 C590 1.574 1_565 S
C573 C592 1.368 . S
C573 H597 0.949 . S
H574 C578 0.949 1_545 S
C575 C576 1.349 . S
C575 C577 1.327 . S
C575 H598 0.950 . S
C576 C575 1.349 . S
C576 C588 1.349 . S
C577 C575 1.327 . S
C577 C593 1.429 . S
C577 H599 0.950 . S
C578 H574 0.949 1_565 S
C578 C586 1.574 . S
C578 C594 1.368 1_565 S
H579 C587 0.950 . S
H580 C585 0.950 . S
H581 C586 0.949 . S
H582 C588 0.950 . S
H583 C589 0.950 . S
H584 C590 0.949 . S
C585 H580 0.950 . S
C585 C587 1.327 . S
C585 C591 1.429 . S
C586 C578 1.574 . S
C586 H581 0.949 . S
C586 C592 1.368 . S
C587 C571 1.349 . S
C587 H579 0.950 . S
C587 C585 1.327 . S
C588 C576 1.349 . S
C588 H582 0.950 . S
C588 C589 1.327 . S
C589 H583 0.950 . S
C589 C588 1.327 . S
C589 C593 1.429 . S
C590 C573 1.574 1_545 S
C590 H584 0.949 . S
C590 C594 1.368 . S
C591 C572 1.429 . S
C591 C585 1.429 . S
C591 C592 1.523 . S
C592 C573 1.368 . S
C592 C586 1.368 . S
C592 C591 1.523 . S
C593 C577 1.429 . S
C593 C589 1.429 . S
C593 C594 1.523 . S
C594 C578 1.368 1_545 S
C594 C590 1.368 . S
C594 C593 1.523 . S
H595 C570 0.950 . S
H596 C572 0.950 . S
H597 C573 0.949 . S
H598 C575 0.950 . S
H599 C577 0.950 . S
C600 C601 1.349 . S
C600 C602 1.327 . S
C600 H625 0.950 . S
C601 C600 1.349 . S
C601 C617 1.349 . S
C602 C600 1.327 . S
C602 C621 1.429 . S
C602 H626 0.950 . S
C603 C620 1.574 . S
C603 C622 1.368 . S
C603 H627 0.949 . S
H604 C608 0.949 . S
C605 C606 1.349 . S
C605 C607 1.327 . S
C605 H628 0.950 . S
C606 C605 1.349 . S
C606 C618 1.349 . S
C607 C605 1.327 . S
C607 C623 1.429 . S
C607 H629 0.950 . S
C608 H604 0.949 . S
C608 C616 1.574 . S
C608 C624 1.368 . S
H609 C617 0.950 . S
H610 C615 0.950 . S
H611 C616 0.949 . S
H612 C618 0.950 . S
H613 C619 0.950 . S
H614 C620 0.949 . S
C615 H610 0.950 . S
C615 C617 1.327 . S
C615 C621 1.429 . S
C616 C608 1.574 . S
C616 H611 0.949 . S
C616 C622 1.368 . S
C617 C601 1.349 . S
C617 H609 0.950 . S
C617 C615 1.327 . S
C618 C606 1.349 . S
C618 H612 0.950 . S
C618 C619 1.327 . S
C619 H613 0.950 . S
C619 C618 1.327 . S
C619 C623 1.429 . S
C620 C603 1.574 . S
C620 H614 0.949 . S
C620 C624 1.368 . S
C621 C602 1.429 . S
C621 C615 1.429 . S
C621 C622 1.523 . S
C622 C603 1.368 . S
C622 C616 1.368 . S
C622 C621 1.523 . S
C623 C607 1.429 . S
C623 C619 1.429 . S
C623 C624 1.523 . S
C624 C608 1.368 . S
C624 C620 1.368 . S
C624 C623 1.523 . S
H625 C600 0.950 . S
H626 C602 0.950 . S
H627 C603 0.949 . S
H628 C605 0.950 . S
H629 C607 0.950 . S
C630 C631 1.349 . S
C630 C632 1.327 . S
C630 H655 0.950 . S
C631 C630 1.349 . S
C631 C647 1.349 . S
C632 C630 1.327 . S
C632 C651 1.429 . S
C632 H656 0.950 . S
C633 C650 1.574 1_655 S
C633 C652 1.368 . S
C633 H657 0.949 . S
H634 C638 0.949 . S
C635 C636 1.349 . S
C635 C637 1.327 . S
C635 H658 0.950 . S
C636 C635 1.349 . S
C636 C648 1.349 . S
C637 C635 1.327 . S
C637 C653 1.429 . S
C637 H659 0.950 . S
C638 H634 0.949 . S
C638 C646 1.574 1_455 S
C638 C654 1.368 . S
H639 C647 0.950 . S
H640 C645 0.950 . S
H641 C646 0.949 . S
H642 C648 0.950 . S
H643 C649 0.950 . S
H644 C650 0.949 . S
C645 H640 0.950 . S
C645 C647 1.327 . S
C645 C651 1.429 . S
C646 C638 1.574 1_655 S
C646 H641 0.949 . S
C646 C652 1.368 . S
C647 C631 1.349 . S
C647 H639 0.950 . S
C647 C645 1.327 . S
C648 C636 1.349 . S
C648 H642 0.950 . S
C648 C649 1.327 . S
C649 H643 0.950 . S
C649 C648 1.327 . S
C649 C653 1.429 . S
C650 C633 1.574 1_455 S
C650 H644 0.949 . S
C650 C654 1.368 . S
C651 C632 1.429 . S
C651 C645 1.429 . S
C651 C652 1.523 . S
C652 C633 1.368 . S
C652 C646 1.368 . S
C652 C651 1.523 . S
C653 C637 1.429 . S
C653 C649 1.429 . S
C653 C654 1.523 . S
C654 C638 1.368 . S
C654 C650 1.368 . S
C654 C653 1.523 . S
H655 C630 0.950 . S
H656 C632 0.950 . S
H657 C633 0.949 . S
H658 C635 0.950 . S
H659 C637 0.950 . S
C660 C661 1.349 . S
C660 C662 1.327 . S
C660 H685 0.950 . S
C661 C660 1.349 . S
C661 C677 1.349 . S
C662 C660 1.327 . S
C662 C681 1.429 . S
C662 H686 0.950 . S
C663 C680 1.574 1_455 S
C663 C682 1.368 . S
C663 H687 0.949 . S
H664 C668 0.949 . S
C665 C666 1.349 . S
C665 C667 1.327 . S
C665 H688 0.950 . S
C666 C665 1.349 . S
C666 C678 1.349 . S
C667 C665 1.327 . S
C667 C683 1.429 . S
C667 H689 0.950 . S
C668 H664 0.949 . S
C668 C676 1.574 1_655 S
C668 C684 1.368 . S
H669 C677 0.950 . S
H670 C675 0.950 . S
H671 C676 0.949 . S
H672 C678 0.950 . S
H673 C679 0.950 . S
H674 C680 0.949 . S
C675 H670 0.950 . S
C675 C677 1.327 . S
C675 C681 1.429 . S
C676 C668 1.574 1_455 S
C676 H671 0.949 . S
C676 C682 1.368 . S
C677 C661 1.349 . S
C677 H669 0.950 . S
C677 C675 1.327 . S
C678 C666 1.349 . S
C678 H672 0.950 . S
C678 C679 1.327 . S
C679 H673 0.950 . S
C679 C678 1.327 . S
C679 C683 1.429 . S
C680 C663 1.574 1_655 S
C680 H674 0.949 . S
C680 C684 1.368 . S
C681 C662 1.429 . S
C681 C675 1.429 . S
C681 C682 1.523 . S
C682 C663 1.368 . S
C682 C676 1.368 . S
C682 C681 1.523 . S
C683 C667 1.429 . S
C683 C679 1.429 . S
C683 C684 1.523 . S
C684 C668 1.368 . S
C684 C680 1.368 . S
C684 C683 1.523 . S
H685 C660 0.950 . S
H686 C662 0.950 . S
H687 C663 0.949 . S
H688 C665 0.950 . S
H689 C667 0.950 . S
C690 C691 1.349 . S
C690 C692 1.327 . S
C690 H715 0.950 . S
C691 C690 1.349 . S
C691 C707 1.349 . S
C692 C690 1.327 . S
C692 C711 1.429 . S
C692 H716 0.950 . S
C693 C710 1.574 1_565 S
C693 C712 1.368 . S
C693 H717 0.949 . S
H694 C698 0.949 1_545 S
C695 C696 1.349 . S
C695 C697 1.327 . S
C695 H718 0.950 . S
C696 C695 1.349 . S
C696 C708 1.349 . S
C697 C695 1.327 . S
C697 C713 1.429 . S
C697 H719 0.950 . S
C698 H694 0.949 1_565 S
C698 C706 1.574 . S
C698 C714 1.368 1_565 S
H699 C707 0.950 . S
H700 C705 0.950 . S
H701 C706 0.949 . S
H702 C708 0.950 . S
H703 C709 0.950 . S
H704 C710 0.949 . S
C705 H700 0.950 . S
C705 C707 1.327 . S
C705 C711 1.429 . S
C706 C698 1.574 . S
C706 H701 0.949 . S
C706 C712 1.368 . S
C707 C691 1.349 . S
C707 H699 0.950 . S
C707 C705 1.327 . S
C708 C696 1.349 . S
C708 H702 0.950 . S
C708 C709 1.327 . S
C709 H703 0.950 . S
C709 C708 1.327 . S
C709 C713 1.429 . S
C710 C693 1.574 1_545 S
C710 H704 0.949 . S
C710 C714 1.368 . S
C711 C692 1.429 . S
C711 C705 1.429 . S
C711 C712 1.523 . S
C712 C693 1.368 . S
C712 C706 1.368 . S
C712 C711 1.523 . S
C713 C697 1.429 . S
C713 C709 1.429 . S
C713 C714 1.523 . S
C714 C698 1.368 1_545 S
C714 C710 1.368 . S
C714 C713 1.523 . S
H715 C690 0.950 . S
H716 C692 0.950 . S
H717 C693 0.949 . S
H718 C695 0.950 . S
H719 C697 0.950 . S
C720 C721 1.349 . S
C720 C722 1.327 . S
C720 H745 0.950 . S
C721 C720 1.349 . S
C721 C737 1.349 . S
C722 C720 1.327 . S
C722 C741 1.429 . S
C722 H746 0.950 . S
C723 C740 1.574 . S
C723 C742 1.368 . S
C723 H747 0.949 . S
H724 C728 0.949 . S
C725 C726 1.349 . S
C725 C727 1.327 . S
C725 H748 0.950 . S
C726 C725 1.349 . S
C726 C738 1.349 . S
C727 C725 1.327 . S
C727 C743 1.429 . S
C727 H749 0.950 . S
C728 H724 0.949 . S
C728 C736 1.574 . S
C728 C744 1.368 . S
H729 C737 0.950 . S
H730 C735 0.950 . S
H731 C736 0.949 . S
H732 C738 0.950 . S
H733 C739 0.950 . S
H734 C740 0.949 . S
C735 H730 0.950 . S
C735 C737 1.327 . S
C735 C741 1.429 . S
C736 C728 1.574 . S
C736 H731 0.949 . S
C736 C742 1.368 . S
C737 C721 1.349 . S
C737 H729 0.950 . S
C737 C735 1.327 . S
C738 C726 1.349 . S
C738 H732 0.950 . S
C738 C739 1.327 . S
C739 H733 0.950 . S
C739 C738 1.327 . S
C739 C743 1.429 . S
C740 C723 1.574 . S
C740 H734 0.949 . S
C740 C744 1.368 . S
C741 C722 1.429 . S
C741 C735 1.429 . S
C741 C742 1.523 . S
C742 C723 1.368 . S
C742 C736 1.368 . S
C742 C741 1.523 . S
C743 C727 1.429 . S
C743 C739 1.429 . S
C743 C744 1.523 . S
C744 C728 1.368 . S
C744 C740 1.368 . S
C744 C743 1.523 . S
H745 C720 0.950 . S
H746 C722 0.950 . S
H747 C723 0.949 . S
H748 C725 0.950 . S
H749 C727 0.950 . S
C750 C751 1.349 . S
C750 C752 1.327 . S
C750 H775 0.950 . S
C751 C750 1.349 . S
C751 C767 1.349 . S
C752 C750 1.327 . S
C752 C771 1.429 . S
C752 H776 0.950 . S
C753 C770 1.574 1_455 S
C753 C772 1.368 . S
C753 H777 0.949 . S
H754 C758 0.949 1_655 S
C755 C756 1.349 . S
C755 C757 1.327 . S
C755 H778 0.950 . S
C756 C755 1.349 . S
C756 C768 1.349 . S
C757 C755 1.327 . S
C757 C773 1.429 . S
C757 H779 0.950 . S
C758 H754 0.949 1_455 S
C758 C766 1.574 . S
C758 C774 1.368 1_455 S
H759 C767 0.950 . S
H760 C765 0.950 . S
H761 C766 0.949 . S
H762 C768 0.950 . S
H763 C769 0.950 . S
H764 C770 0.949 . S
C765 H760 0.950 . S
C765 C767 1.327 . S
C765 C771 1.429 . S
C766 C758 1.574 . S
C766 H761 0.949 . S
C766 C772 1.368 . S
C767 C751 1.349 . S
C767 H759 0.950 . S
C767 C765 1.327 . S
C768 C756 1.349 . S
C768 H762 0.950 . S
C768 C769 1.327 . S
C769 H763 0.950 . S
C769 C768 1.327 . S
C769 C773 1.429 . S
C770 C753 1.574 1_655 S
C770 H764 0.949 . S
C770 C774 1.368 . S
C771 C752 1.429 . S
C771 C765 1.429 . S
C771 C772 1.523 . S
C772 C753 1.368 . S
C772 C766 1.368 . S
C772 C771 1.523 . S
C773 C757 1.429 . S
C773 C769 1.429 . S
C773 C774 1.523 . S
C774 C758 1.368 1_655 S
C774 C770 1.368 . S
C774 C773 1.523 . S
H775 C750 0.950 . S
H776 C752 0.950 . S
H777 C753 0.949 . S
H778 C755 0.950 . S
H779 C757 0.950 . S
C780 C781 1.349 . S
C780 C782 1.327 . S
C780 H805 0.950 . S
C781 C780 1.349 . S
C781 C797 1.349 . S
C782 C780 1.327 . S
C782 C801 1.429 . S
C782 H806 0.950 . S
C783 C800 1.574 1_545 S
C783 C802 1.368 . S
C783 H807 0.949 . S
H784 C788 0.949 1_565 S
C785 C786 1.349 . S
C785 C787 1.327 . S
C785 H808 0.950 . S
C786 C785 1.349 . S
C786 C798 1.349 . S
C787 C785 1.327 . S
C787 C803 1.429 . S
C787 H809 0.950 . S
C788 H784 0.949 1_545 S
C788 C796 1.574 . S
C788 C804 1.368 1_545 S
H789 C797 0.950 . S
H790 C795 0.950 . S
H791 C796 0.949 . S
H792 C798 0.950 . S
H793 C799 0.950 . S
H794 C800 0.949 . S
C795 H790 0.950 . S
C795 C797 1.327 . S
C795 C801 1.429 . S
C796 C788 1.574 . S
C796 H791 0.949 . S
C796 C802 1.368 . S
C797 C781 1.349 . S
C797 H789 0.950 . S
C797 C795 1.327 . S
C798 C786 1.349 . S
C798 H792 0.950 . S
C798 C799 1.327 . S
C799 H793 0.950 . S
C799 C798 1.327 . S
C799 C803 1.429 . S
C800 C783 1.574 1_565 S
C800 H794 0.949 . S
C800 C804 1.368 . S
C801 C782 1.429 . S
C801 C795 1.429 . S
C801 C802 1.523 . S
C802 C783 1.368 . S
C802 C796 1.368 . S
C802 C801 1.523 . S
C803 C787 1.429 . S
C803 C799 1.429 . S
C803 C804 1.523 . S
C804 C788 1.368 1_565 S
C804 C800 1.368 . S
C804 C803 1.523 . S
H805 C780 0.950 . S
H806 C782 0.950 . S
H807 C783 0.949 . S
H808 C785 0.950 . S
H809 C787 0.950 . S
C810 C811 1.349 . S
C810 C812 1.327 . S
C810 H835 0.950 . S
C811 C810 1.349 . S
C811 C827 1.349 . S
C812 C810 1.327 . S
C812 C831 1.429 . S
C812 H836 0.950 . S
C813 C830 1.574 . S
C813 C832 1.368 . S
C813 H837 0.949 . S
H814 C818 0.949 . S
C815 C816 1.349 . S
C815 C817 1.327 . S
C815 H838 0.950 . S
C816 C815 1.349 . S
C816 C828 1.349 . S
C817 C815 1.327 . S
C817 C833 1.429 . S
C817 H839 0.950 . S
C818 H814 0.949 . S
C818 C826 1.574 . S
C818 C834 1.368 . S
H819 C827 0.950 . S
H820 C825 0.950 . S
H821 C826 0.949 . S
H822 C828 0.950 . S
H823 C829 0.950 . S
H824 C830 0.949 . S
C825 H820 0.950 . S
C825 C827 1.327 . S
C825 C831 1.429 . S
C826 C818 1.574 . S
C826 H821 0.949 . S
C826 C832 1.368 . S
C827 C811 1.349 . S
C827 H819 0.950 . S
C827 C825 1.327 . S
C828 C816 1.349 . S
C828 H822 0.950 . S
C828 C829 1.327 . S
C829 H823 0.950 . S
C829 C828 1.327 . S
C829 C833 1.429 . S
C830 C813 1.574 . S
C830 H824 0.949 . S
C830 C834 1.368 . S
C831 C812 1.429 . S
C831 C825 1.429 . S
C831 C832 1.523 . S
C832 C813 1.368 . S
C832 C826 1.368 . S
C832 C831 1.523 . S
C833 C817 1.429 . S
C833 C829 1.429 . S
C833 C834 1.523 . S
C834 C818 1.368 . S
C834 C830 1.368 . S
C834 C833 1.523 . S
H835 C810 0.950 . S
H836 C812 0.950 . S
H837 C813 0.949 . S
H838 C815 0.950 . S
H839 C817 0.950 . S
C840 C841 1.349 . S
C840 C842 1.327 . S
C840 H865 0.950 . S
C841 C840 1.349 . S
C841 C857 1.349 . S
C842 C840 1.327 . S
C842 C861 1.429 . S
C842 H866 0.950 . S
C843 C860 1.574 . S
C843 C862 1.368 . S
C843 H867 0.949 . S
H844 C848 0.949 . S
C845 C846 1.349 . S
C845 C847 1.327 . S
C845 H868 0.950 . S
C846 C845 1.349 . S
C846 C858 1.349 . S
C847 C845 1.327 . S
C847 C863 1.429 . S
C847 H869 0.950 . S
C848 H844 0.949 . S
C848 C856 1.574 . S
C848 C864 1.368 . S
H849 C857 0.950 . S
H850 C855 0.950 . S
H851 C856 0.949 . S
H852 C858 0.950 . S
H853 C859 0.950 . S
H854 C860 0.949 . S
C855 H850 0.950 . S
C855 C857 1.327 . S
C855 C861 1.429 . S
C856 C848 1.574 . S
C856 H851 0.949 . S
C856 C862 1.368 . S
C857 C841 1.349 . S
C857 H849 0.950 . S
C857 C855 1.327 . S
C858 C846 1.349 . S
C858 H852 0.950 . S
C858 C859 1.327 . S
C859 H853 0.950 . S
C859 C858 1.327 . S
C859 C863 1.429 . S
C860 C843 1.574 . S
C860 H854 0.949 . S
C860 C864 1.368 . S
C861 C842 1.429 . S
C861 C855 1.429 . S
C861 C862 1.523 . S
C862 C843 1.368 . S
C862 C856 1.368 . S
C862 C861 1.523 . S
C863 C847 1.429 . S
C863 C859 1.429 . S
C863 C864 1.523 . S
C864 C848 1.368 . S
C864 C860 1.368 . S
C864 C863 1.523 . S
H865 C840 0.950 . S
H866 C842 0.950 . S
H867 C843 0.949 . S
H868 C845 0.950 . S
H869 C847 0.950 . S
C870 C871 1.349 . S
C870 C872 1.327 . S
C870 H895 0.950 . S
C871 C870 1.349 . S
C871 C887 1.349 . S
C872 C870 1.327 . S
C872 C891 1.429 . S
C872 H896 0.950 . S
C873 C890 1.574 . S
C873 C892 1.368 . S
C873 H897 0.949 . S
H874 C878 0.949 . S
C875 C876 1.349 . S
C875 C877 1.327 . S
C875 H898 0.950 . S
C876 C875 1.349 . S
C876 C888 1.349 . S
C877 C875 1.327 . S
C877 C893 1.429 . S
C877 H899 0.950 . S
C878 H874 0.949 . S
C878 C886 1.574 . S
C878 C894 1.368 . S
H879 C887 0.950 . S
H880 C885 0.950 . S
H881 C886 0.949 . S
H882 C888 0.950 . S
H883 C889 0.950 . S
H884 C890 0.949 . S
C885 H880 0.950 . S
C885 C887 1.327 . S
C885 C891 1.429 . S
C886 C878 1.574 . S
C886 H881 0.949 . S
C886 C892 1.368 . S
C887 C871 1.349 . S
C887 H879 0.950 . S
C887 C885 1.327 . S
C888 C876 1.349 . S
C888 H882 0.950 . S
C888 C889 1.327 . S
C889 H883 0.950 . S
C889 C888 1.327 . S
C889 C893 1.429 . S
C890 C873 1.574 . S
C890 H884 0.949 . S
C890 C894 1.368 . S
C891 C872 1.429 . S
C891 C885 1.429 . S
C891 C892 1.523 . S
C892 C873 1.368 . S
C892 C886 1.368 . S
C892 C891 1.523 . S
C893 C877 1.429 . S
C893 C889 1.429 . S
C893 C894 1.523 . S
C894 C878 1.368 . S
C894 C890 1.368 . S
C894 C893 1.523 . S
H895 C870 0.950 . S
H896 C872 0.950 . S
H897 C873 0.949 . S
H898 C875 0.950 . S
H899 C877 0.950 . S
C900 C901 1.349 . S
C900 C902 1.327 . S
C900 H925 0.950 . S
C901 C900 1.349 . S
C901 C917 1.349 . S
C902 C900 1.327 . S
C902 C921 1.429 . S
C902 H926 0.950 . S
C903 C920 1.574 . S
C903 C922 1.368 . S
C903 H927 0.949 . S
H904 C908 0.949 . S
C905 C906 1.349 . S
C905 C907 1.327 . S
C905 H928 0.950 . S
C906 C905 1.349 . S
C906 C918 1.349 . S
C907 C905 1.327 . S
C907 C923 1.429 . S
C907 H929 0.950 . S
C908 H904 0.949 . S
C908 C916 1.574 . S
C908 C924 1.368 . S
H909 C917 0.950 . S
H910 C915 0.950 . S
H911 C916 0.949 . S
H912 C918 0.950 . S
H913 C919 0.950 . S
H914 C920 0.949 . S
C915 H910 0.950 . S
C915 C917 1.327 . S
C915 C921 1.429 . S
C916 C908 1.574 . S
C916 H911 0.949 . S
C916 C922 1.368 . S
C917 C901 1.349 . S
C917 H909 0.950 . S
C917 C915 1.327 . S
C918 C906 1.349 . S
C918 H912 0.950 . S
C918 C919 1.327 . S
C919 H913 0.950 . S
C919 C918 1.327 . S
C919 C923 1.429 . S
C920 C903 1.574 . S
C920 H914 0.949 . S
C920 C924 1.368 . S
C921 C902 1.429 . S
C921 C915 1.429 . S
C921 C922 1.523 . S
C922 C903 1.368 . S
C922 C916 1.368 . S
C922 C921 1.523 . S
C923 C907 1.429 . S
C923 C919 1.429 . S
C923 C924 1.523 . S
C924 C908 1.368 . S
C924 C920 1.368 . S
C924 C923 1.523 . S
H925 C900 0.950 . S
H926 C902 0.950 . S
H927 C903 0.949 . S
H928 C905 0.950 . S
H929 C907 0.950 . S
C930 C931 1.349 . S
C930 C932 1.327 . S
C930 H955 0.950 . S
C931 C930 1.349 . S
C931 C947 1.349 . S
C932 C930 1.327 . S
C932 C951 1.429 . S
C932 H956 0.950 . S
C933 C950 1.574 . S
C933 C952 1.368 . S
C933 H957 0.949 . S
H934 C938 0.949 . S
C935 C936 1.349 . S
C935 C937 1.327 . S
C935 H958 0.950 . S
C936 C935 1.349 . S
C936 C948 1.349 . S
C937 C935 1.327 . S
C937 C953 1.429 . S
C937 H959 0.950 . S
C938 H934 0.949 . S
C938 C946 1.574 . S
C938 C954 1.368 . S
H939 C947 0.950 . S
H940 C945 0.950 . S
H941 C946 0.949 . S
H942 C948 0.950 . S
H943 C949 0.950 . S
H944 C950 0.949 . S
C945 H940 0.950 . S
C945 C947 1.327 . S
C945 C951 1.429 . S
C946 C938 1.574 . S
C946 H941 0.949 . S
C946 C952 1.368 . S
C947 C931 1.349 . S
C947 H939 0.950 . S
C947 C945 1.327 . S
C948 C936 1.349 . S
C948 H942 0.950 . S
C948 C949 1.327 . S
C949 H943 0.950 . S
C949 C948 1.327 . S
C949 C953 1.429 . S
C950 C933 1.574 . S
C950 H944 0.949 . S
C950 C954 1.368 . S
C951 C932 1.429 . S
C951 C945 1.429 . S
C951 C952 1.523 . S
C952 C933 1.368 . S
C952 C946 1.368 . S
C952 C951 1.523 . S
C953 C937 1.429 . S
C953 C949 1.429 . S
C953 C954 1.523 . S
C954 C938 1.368 . S
C954 C950 1.368 . S
C954 C953 1.523 . S
H955 C930 0.950 . S
H956 C932 0.950 . S
H957 C933 0.949 . S
H958 C935 0.950 . S
H959 C937 0.950 . S
C960 C961 1.349 . S
C960 C962 1.327 . S
C960 H985 0.950 . S
C961 C960 1.349 . S
C961 C977 1.349 . S
C962 C960 1.327 . S
C962 C981 1.429 . S
C962 H986 0.950 . S
C963 C980 1.574 . S
C963 C982 1.368 . S
C963 H987 0.949 . S
H964 C968 0.949 . S
C965 C966 1.349 . S
C965 C967 1.327 . S
C965 H988 0.950 . S
C966 C965 1.349 . S
C966 C978 1.349 . S
C967 C965 1.327 . S
C967 C983 1.429 . S
C967 H989 0.950 . S
C968 H964 0.949 . S
C968 C976 1.574 . S
C968 C984 1.368 . S
H969 C977 0.950 . S
H970 C975 0.950 . S
H971 C976 0.949 . S
H972 C978 0.950 . S
H973 C979 0.950 . S
H974 C980 0.949 . S
C975 H970 0.950 . S
C975 C977 1.327 . S
C975 C981 1.429 . S
C976 C968 1.574 . S
C976 H971 0.949 . S
C976 C982 1.368 . S
C977 C961 1.349 . S
C977 H969 0.950 . S
C977 C975 1.327 . S
C978 C966 1.349 . S
C978 H972 0.950 . S
C978 C979 1.327 . S
C979 H973 0.950 . S
C979 C978 1.327 . S
C979 C983 1.429 . S
C980 C963 1.574 . S
C980 H974 0.949 . S
C980 C984 1.368 . S
C981 C962 1.429 . S
C981 C975 1.429 . S
C981 C982 1.523 . S
C982 C963 1.368 . S
C982 C976 1.368 . S
C982 C981 1.523 . S
C983 C967 1.429 . S
C983 C979 1.429 . S
C983 C984 1.523 . S
C984 C968 1.368 . S
C984 C980 1.368 . S
C984 C983 1.523 . S
H985 C960 0.950 . S
H986 C962 0.950 . S
H987 C963 0.949 . S
H988 C965 0.950 . S
H989 C967 0.950 . S
C990 C991 1.349 . S
C990 C992 1.327 . S
C990 H1015 0.950 . S
C991 C990 1.349 . S
C991 C1007 1.349 . S
C992 C990 1.327 . S
C992 C1011 1.429 . S
C992 H1016 0.950 . S
C993 C1010 1.574 . S
C993 C1012 1.368 . S
C993 H1017 0.949 . S
H994 C998 0.949 . S
C995 C996 1.349 . S
C995 C997 1.327 . S
C995 H1018 0.950 . S
C996 C995 1.349 . S
C996 C1008 1.349 . S
C997 C995 1.327 . S
C997 C1013 1.429 . S
C997 H1019 0.950 . S
C998 H994 0.949 . S
C998 C1006 1.574 . S
C998 C1014 1.368 . S
H999 C1007 0.950 . S
H1000 C1005 0.950 . S
H1001 C1006 0.949 . S
H1002 C1008 0.950 . S
H1003 C1009 0.950 . S
H1004 C1010 0.949 . S
C1005 H1000 0.950 . S
C1005 C1007 1.327 . S
C1005 C1011 1.429 . S
C1006 C998 1.574 . S
C1006 H1001 0.949 . S
C1006 C1012 1.368 . S
C1007 C991 1.349 . S
C1007 H999 0.950 . S
C1007 C1005 1.327 . S
C1008 C996 1.349 . S
C1008 H1002 0.950 . S
C1008 C1009 1.327 . S
C1009 H1003 0.950 . S
C1009 C1008 1.327 . S
C1009 C1013 1.429 . S
C1010 C993 1.574 . S
C1010 H1004 0.949 . S
C1010 C1014 1.368 . S
C1011 C992 1.429 . S
C1011 C1005 1.429 . S
C1011 C1012 1.523 . S
C1012 C993 1.368 . S
C1012 C1006 1.368 . S
C1012 C1011 1.523 . S
C1013 C997 1.429 . S
C1013 C1009 1.429 . S
C1013 C1014 1.523 . S
C1014 C998 1.368 . S
C1014 C1010 1.368 . S
C1014 C1013 1.523 . S
H1015 C990 0.950 . S
H1016 C992 0.950 . S
H1017 C993 0.949 . S
H1018 C995 0.950 . S
H1019 C997 0.950 . S
C1020 C1021 1.349 . S
C1020 C1022 1.327 . S
C1020 H1045 0.950 . S
C1021 C1020 1.349 . S
C1021 C1037 1.349 . S
C1022 C1020 1.327 . S
C1022 C1041 1.429 . S
C1022 H1046 0.950 . S
C1023 C1040 1.574 . S
C1023 C1042 1.368 . S
C1023 H1047 0.949 . S
H1024 C1028 0.949 . S
C1025 C1026 1.349 . S
C1025 C1027 1.327 . S
C1025 H1048 0.950 . S
C1026 C1025 1.349 . S
C1026 C1038 1.349 . S
C1027 C1025 1.327 . S
C1027 C1043 1.429 . S
C1027 H1049 0.950 . S
C1028 H1024 0.949 . S
C1028 C1036 1.574 . S
C1028 C1044 1.368 . S
H1029 C1037 0.950 . S
H1030 C1035 0.950 . S
H1031 C1036 0.949 . S
H1032 C1038 0.950 . S
H1033 C1039 0.950 . S
H1034 C1040 0.949 . S
C1035 H1030 0.950 . S
C1035 C1037 1.327 . S
C1035 C1041 1.429 . S
C1036 C1028 1.574 . S
C1036 H1031 0.949 . S
C1036 C1042 1.368 . S
C1037 C1021 1.349 . S
C1037 H1029 0.950 . S
C1037 C1035 1.327 . S
C1038 C1026 1.349 . S
C1038 H1032 0.950 . S
C1038 C1039 1.327 . S
C1039 H1033 0.950 . S
C1039 C1038 1.327 . S
C1039 C1043 1.429 . S
C1040 C1023 1.574 . S
C1040 H1034 0.949 . S
C1040 C1044 1.368 . S
C1041 C1022 1.429 . S
C1041 C1035 1.429 . S
C1041 C1042 1.523 . S
C1042 C1023 1.368 . S
C1042 C1036 1.368 . S
C1042 C1041 1.523 . S
C1043 C1027 1.429 . S
C1043 C1039 1.429 . S
C1043 C1044 1.523 . S
C1044 C1028 1.368 . S
C1044 C1040 1.368 . S
C1044 C1043 1.523 . S
H1045 C1020 0.950 . S
H1046 C1022 0.950 . S
H1047 C1023 0.949 . S
H1048 C1025 0.950 . S
H1049 C1027 0.950 . S
C1050 C1051 1.349 . S
C1050 C1052 1.327 . S
C1050 H1075 0.950 . S
C1051 C1050 1.349 . S
C1051 C1067 1.349 . S
C1052 C1050 1.327 . S
C1052 C1071 1.429 . S
C1052 H1076 0.950 . S
C1053 C1070 1.574 . S
C1053 C1072 1.368 . S
C1053 H1077 0.949 . S
H1054 C1058 0.949 . S
C1055 C1056 1.349 . S
C1055 C1057 1.327 . S
C1055 H1078 0.950 . S
C1056 C1055 1.349 . S
C1056 C1068 1.349 . S
C1057 C1055 1.327 . S
C1057 C1073 1.429 . S
C1057 H1079 0.950 . S
C1058 H1054 0.949 . S
C1058 C1066 1.574 . S
C1058 C1074 1.368 . S
H1059 C1067 0.950 . S
H1060 C1065 0.950 . S
H1061 C1066 0.949 . S
H1062 C1068 0.950 . S
H1063 C1069 0.950 . S
H1064 C1070 0.949 . S
C1065 H1060 0.950 . S
C1065 C1067 1.327 . S
C1065 C1071 1.429 . S
C1066 C1058 1.574 . S
C1066 H1061 0.949 . S
C1066 C1072 1.368 . S
C1067 C1051 1.349 . S
C1067 H1059 0.950 . S
C1067 C1065 1.327 . S
C1068 C1056 1.349 . S
C1068 H1062 0.950 . S
C1068 C1069 1.327 . S
C1069 H1063 0.950 . S
C1069 C1068 1.327 . S
C1069 C1073 1.429 . S
C1070 C1053 1.574 . S
C1070 H1064 0.949 . S
C1070 C1074 1.368 . S
C1071 C1052 1.429 . S
C1071 C1065 1.429 . S
C1071 C1072 1.523 . S
C1072 C1053 1.368 . S
C1072 C1066 1.368 . S
C1072 C1071 1.523 . S
C1073 C1057 1.429 . S
C1073 C1069 1.429 . S
C1073 C1074 1.523 . S
C1074 C1058 1.368 . S
C1074 C1070 1.368 . S
C1074 C1073 1.523 . S
H1075 C1050 0.950 . S
H1076 C1052 0.950 . S
H1077 C1053 0.949 . S
H1078 C1055 0.950 . S
H1079 C1057 0.950 . S
C1080 C1081 1.349 . S
C1080 C1082 1.327 . S
C1080 H1105 0.950 . S
C1081 C1080 1.349 . S
C1081 C1097 1.349 . S
C1082 C1080 1.327 . S
C1082 C1101 1.429 . S
C1082 H1106 0.950 . S
C1083 C1100 1.574 . S
C1083 C1102 1.368 . S
C1083 H1107 0.949 . S
H1084 C1088 0.949 . S
C1085 C1086 1.349 . S
C1085 C1087 1.327 . S
C1085 H1108 0.950 . S
C1086 C1085 1.349 . S
C1086 C1098 1.349 . S
C1087 C1085 1.327 . S
C1087 C1103 1.429 . S
C1087 H1109 0.950 . S
C1088 H1084 0.949 . S
C1088 C1096 1.574 . S
C1088 C1104 1.368 . S
H1089 C1097 0.950 . S
H1090 C1095 0.950 . S
H1091 C1096 0.949 . S
H1092 C1098 0.950 . S
H1093 C1099 0.950 . S
H1094 C1100 0.949 . S
C1095 H1090 0.950 . S
C1095 C1097 1.327 . S
C1095 C1101 1.429 . S
C1096 C1088 1.574 . S
C1096 H1091 0.949 . S
C1096 C1102 1.368 . S
C1097 C1081 1.349 . S
C1097 H1089 0.950 . S
C1097 C1095 1.327 . S
C1098 C1086 1.349 . S
C1098 H1092 0.950 . S
C1098 C1099 1.327 . S
C1099 H1093 0.950 . S
C1099 C1098 1.327 . S
C1099 C1103 1.429 . S
C1100 C1083 1.574 . S
C1100 H1094 0.949 . S
C1100 C1104 1.368 . S
C1101 C1082 1.429 . S
C1101 C1095 1.429 . S
C1101 C1102 1.523 . S
C1102 C1083 1.368 . S
C1102 C1096 1.368 . S
C1102 C1101 1.523 . S
C1103 C1087 1.429 . S
C1103 C1099 1.429 . S
C1103 C1104 1.523 . S
C1104 C1088 1.368 . S
C1104 C1100 1.368 . S
C1104 C1103 1.523 . S
H1105 C1080 0.950 . S
H1106 C1082 0.950 . S
H1107 C1083 0.949 . S
H1108 C1085 0.950 . S
H1109 C1087 0.950 . S
C1110 C1111 1.349 . S
C1110 C1112 1.327 . S
C1110 H1135 0.950 . S
C1111 C1110 1.349 . S
C1111 C1127 1.349 . S
C1112 C1110 1.327 . S
C1112 C1131 1.429 . S
C1112 H1136 0.950 . S
C1113 C1130 1.574 . S
C1113 C1132 1.368 . S
C1113 H1137 0.949 . S
H1114 C1118 0.949 . S
C1115 C1116 1.349 . S
C1115 C1117 1.327 . S
C1115 H1138 0.950 . S
C1116 C1115 1.349 . S
C1116 C1128 1.349 . S
C1117 C1115 1.327 . S
C1117 C1133 1.429 . S
C1117 H1139 0.950 . S
C1118 H1114 0.949 . S
C1118 C1126 1.574 . S
C1118 C1134 1.368 . S
H1119 C1127 0.950 . S
H1120 C1125 0.950 . S
H1121 C1126 0.949 . S
H1122 C1128 0.950 . S
H1123 C1129 0.950 . S
H1124 C1130 0.949 . S
C1125 H1120 0.950 . S
C1125 C1127 1.327 . S
C1125 C1131 1.429 . S
C1126 C1118 1.574 . S
C1126 H1121 0.949 . S
C1126 C1132 1.368 . S
C1127 C1111 1.349 . S
C1127 H1119 0.950 . S
C1127 C1125 1.327 . S
C1128 C1116 1.349 . S
C1128 H1122 0.950 . S
C1128 C1129 1.327 . S
C1129 H1123 0.950 . S
C1129 C1128 1.327 . S
C1129 C1133 1.429 . S
C1130 C1113 1.574 . S
C1130 H1124 0.949 . S
C1130 C1134 1.368 . S
C1131 C1112 1.429 . S
C1131 C1125 1.429 . S
C1131 C1132 1.523 . S
C1132 C1113 1.368 . S
C1132 C1126 1.368 . S
C1132 C1131 1.523 . S
C1133 C1117 1.429 . S
C1133 C1129 1.429 . S
C1133 C1134 1.523 . S
C1134 C1118 1.368 . S
C1134 C1130 1.368 . S
C1134 C1133 1.523 . S
H1135 C1110 0.950 . S
H1136 C1112 0.950 . S
H1137 C1113 0.949 . S
H1138 C1115 0.950 . S
H1139 C1117 0.950 . S
C1140 C1141 1.349 . S
C1140 C1142 1.327 . S
C1140 H1165 0.950 . S
C1141 C1140 1.349 . S
C1141 C1157 1.349 . S
C1142 C1140 1.327 . S
C1142 C1161 1.429 . S
C1142 H1166 0.950 . S
C1143 C1160 1.574 . S
C1143 C1162 1.368 . S
C1143 H1167 0.949 . S
H1144 C1148 0.949 . S
C1145 C1146 1.349 . S
C1145 C1147 1.327 . S
C1145 H1168 0.950 . S
C1146 C1145 1.349 . S
C1146 C1158 1.349 . S
C1147 C1145 1.327 . S
C1147 C1163 1.429 . S
C1147 H1169 0.950 . S
C1148 H1144 0.949 . S
C1148 C1156 1.574 . S
C1148 C1164 1.368 . S
H1149 C1157 0.950 . S
H1150 C1155 0.950 . S
H1151 C1156 0.949 . S
H1152 C1158 0.950 . S
H1153 C1159 0.950 . S
H1154 C1160 0.949 . S
C1155 H1150 0.950 . S
C1155 C1157 1.327 . S
C1155 C1161 1.429 . S
C1156 C1148 1.574 . S
C1156 H1151 0.949 . S
C1156 C1162 1.368 . S
C1157 C1141 1.349 . S
C1157 H1149 0.950 . S
C1157 C1155 1.327 . S
C1158 C1146 1.349 . S
C1158 H1152 0.950 . S
C1158 C1159 1.327 . S
C1159 H1153 0.950 . S
C1159 C1158 1.327 . S
C1159 C1163 1.429 . S
C1160 C1143 1.574 . S
C1160 H1154 0.949 . S
C1160 C1164 1.368 . S
C1161 C1142 1.429 . S
C1161 C1155 1.429 . S
C1161 C1162 1.523 . S
C1162 C1143 1.368 . S
C1162 C1156 1.368 . S
C1162 C1161 1.523 . S
C1163 C1147 1.429 . S
C1163 C1159 1.429 . S
C1163 C1164 1.523 . S
C1164 C1148 1.368 . S
C1164 C1160 1.368 . S
C1164 C1163 1.523 . S
H1165 C1140 0.950 . S
H1166 C1142 0.950 . S
H1167 C1143 0.949 . S
H1168 C1145 0.950 . S
H1169 C1147 0.950 . S
C1170 C1171 1.349 . S
C1170 C1172 1.327 . S
C1170 H1195 0.950 . S
C1171 C1170 1.349 . S
C1171 C1187 1.349 . S
C1172 C1170 1.327 . S
C1172 C1191 1.429 . S
C1172 H1196 0.950 . S
C1173 C1190 1.574 . S
C1173 C1192 1.368 . S
C1173 H1197 0.949 . S
H1174 C1178 0.949 . S
C1175 C1176 1.349 . S
C1175 C1177 1.327 . S
C1175 H1198 0.950 . S
C1176 C1175 1.349 . S
C1176 C1188 1.349 . S
C1177 C1175 1.327 . S
C1177 C1193 1.429 . S
C1177 H1199 0.950 . S
C1178 H1174 0.949 . S
C1178 C1186 1.574 . S
C1178 C1194 1.368 . S
H1179 C1187 0.950 . S
H1180 C1185 0.950 . S
H1181 C1186 0.949 . S
H1182 C1188 0.950 . S
H1183 C1189 0.950 . S
H1184 C1190 0.949 . S
C1185 H1180 0.950 . S
C1185 C1187 1.327 . S
C1185 C1191 1.429 . S
C1186 C1178 1.574 . S
C1186 H1181 0.949 . S
C1186 C1192 1.368 . S
C1187 C1171 1.349 . S
C1187 H1179 0.950 . S
C1187 C1185 1.327 . S
C1188 C1176 1.349 . S
C1188 H1182 0.950 . S
C1188 C1189 1.327 . S
C1189 H1183 0.950 . S
C1189 C1188 1.327 . S
C1189 C1193 1.429 . S
C1190 C1173 1.574 . S
C1190 H1184 0.949 . S
C1190 C1194 1.368 . S
C1191 C1172 1.429 . S
C1191 C1185 1.429 . S
C1191 C1192 1.523 . S
C1192 C1173 1.368 . S
C1192 C1186 1.368 . S
C1192 C1191 1.523 . S
C1193 C1177 1.429 . S
C1193 C1189 1.429 . S
C1193 C1194 1.523 . S
C1194 C1178 1.368 . S
C1194 C1190 1.368 . S
C1194 C1193 1.523 . S
H1195 C1170 0.950 . S
H1196 C1172 0.950 . S
H1197 C1173 0.949 . S
H1198 C1175 0.950 . S
H1199 C1177 0.950 . S
C1200 C1201 1.349 . S
C1200 C1202 1.327 . S
C1200 H1225 0.950 . S
C1201 C1200 1.349 . S
C1201 C1217 1.349 . S
C1202 C1200 1.327 . S
C1202 C1221 1.429 . S
C1202 H1226 0.950 . S
C1203 C1220 1.574 . S
C1203 C1222 1.368 . S
C1203 H1227 0.949 . S
H1204 C1208 0.949 . S
C1205 C1206 1.349 . S
C1205 C1207 1.327 . S
C1205 H1228 0.950 . S
C1206 C1205 1.349 . S
C1206 C1218 1.349 . S
C1207 C1205 1.327 . S
C1207 C1223 1.429 . S
C1207 H1229 0.950 . S
C1208 H1204 0.949 . S
C1208 C1216 1.574 . S
C1208 C1224 1.368 . S
H1209 C1217 0.950 . S
H1210 C1215 0.950 . S
H1211 C1216 0.949 . S
H1212 C1218 0.950 . S
H1213 C1219 0.950 . S
H1214 C1220 0.949 . S
C1215 H1210 0.950 . S
C1215 C1217 1.327 . S
C1215 C1221 1.429 . S
C1216 C1208 1.574 . S
C1216 H1211 0.949 . S
C1216 C1222 1.368 . S
C1217 C1201 1.349 . S
C1217 H1209 0.950 . S
C1217 C1215 1.327 . S
C1218 C1206 1.349 . S
C1218 H1212 0.950 . S
C1218 C1219 1.327 . S
C1219 H1213 0.950 . S
C1219 C1218 1.327 . S
C1219 C1223 1.429 . S
C1220 C1203 1.574 . S
C1220 H1214 0.949 . S
C1220 C1224 1.368 . S
C1221 C1202 1.429 . S
C1221 C1215 1.429 . S
C1221 C1222 1.523 . S
C1222 C1203 1.368 . S
C1222 C1216 1.368 . S
C1222 C1221 1.523 . S
C1223 C1207 1.429 . S
C1223 C1219 1.429 . S
C1223 C1224 1.523 . S
C1224 C1208 1.368 . S
C1224 C1220 1.368 . S
C1224 C1223 1.523 . S
H1225 C1200 0.950 . S
H1226 C1202 0.950 . S
H1227 C1203 0.949 . S
H1228 C1205 0.950 . S
H1229 C1207 0.950 . S
C1230 C1231 1.349 . S
C1230 C1232 1.327 . S
C1230 H1255 0.950 . S
C1231 C1230 1.349 . S
C1231 C1247 1.349 . S
C1232 C1230 1.327 . S
C1232 C1251 1.429 . S
C1232 H1256 0.950 . S
C1233 C1250 1.574 . S
C1233 C1252 1.368 . S
C1233 H1257 0.949 . S
H1234 C1238 0.949 . S
C1235 C1236 1.349 . S
C1235 C1237 1.327 . S
C1235 H1258 0.950 . S
C1236 C1235 1.349 . S
C1236 C1248 1.349 . S
C1237 C1235 1.327 . S
C1237 C1253 1.429 . S
C1237 H1259 0.950 . S
C1238 H1234 0.949 . S
C1238 C1246 1.574 . S
C1238 C1254 1.368 . S
H1239 C1247 0.950 . S
H1240 C1245 0.950 . S
H1241 C1246 0.949 . S
H1242 C1248 0.950 . S
H1243 C1249 0.950 . S
H1244 C1250 0.949 . S
C1245 H1240 0.950 . S
C1245 C1247 1.327 . S
C1245 C1251 1.429 . S
C1246 C1238 1.574 . S
C1246 H1241 0.949 . S
C1246 C1252 1.368 . S
C1247 C1231 1.349 . S
C1247 H1239 0.950 . S
C1247 C1245 1.327 . S
C1248 C1236 1.349 . S
C1248 H1242 0.950 . S
C1248 C1249 1.327 . S
C1249 H1243 0.950 . S
C1249 C1248 1.327 . S
C1249 C1253 1.429 . S
C1250 C1233 1.574 . S
C1250 H1244 0.949 . S
C1250 C1254 1.368 . S
C1251 C1232 1.429 . S
C1251 C1245 1.429 . S
C1251 C1252 1.523 . S
C1252 C1233 1.368 . S
C1252 C1246 1.368 . S
C1252 C1251 1.523 . S
C1253 C1237 1.429 . S
C1253 C1249 1.429 . S
C1253 C1254 1.523 . S
C1254 C1238 1.368 . S
C1254 C1250 1.368 . S
C1254 C1253 1.523 . S
H1255 C1230 0.950 . S
H1256 C1232 0.950 . S
H1257 C1233 0.949 . S
H1258 C1235 0.950 . S
H1259 C1237 0.950 . S
C1260 C1261 1.349 . S
C1260 C1262 1.327 . S
C1260 H1285 0.950 . S
C1261 C1260 1.349 . S
C1261 C1277 1.349 . S
C1262 C1260 1.327 . S
C1262 C1281 1.429 . S
C1262 H1286 0.950 . S
C1263 C1280 1.574 . S
C1263 C1282 1.368 . S
C1263 H1287 0.949 . S
H1264 C1268 0.949 . S
C1265 C1266 1.349 . S
C1265 C1267 1.327 . S
C1265 H1288 0.950 . S
C1266 C1265 1.349 . S
C1266 C1278 1.349 . S
C1267 C1265 1.327 . S
C1267 C1283 1.429 . S
C1267 H1289 0.950 . S
C1268 H1264 0.949 . S
C1268 C1276 1.574 . S
C1268 C1284 1.368 . S
H1269 C1277 0.950 . S
H1270 C1275 0.950 . S
H1271 C1276 0.949 . S
H1272 C1278 0.950 . S
H1273 C1279 0.950 . S
H1274 C1280 0.949 . S
C1275 H1270 0.950 . S
C1275 C1277 1.327 . S
C1275 C1281 1.429 . S
C1276 C1268 1.574 . S
C1276 H1271 0.949 . S
C1276 C1282 1.368 . S
C1277 C1261 1.349 . S
C1277 H1269 0.950 . S
C1277 C1275 1.327 . S
C1278 C1266 1.349 . S
C1278 H1272 0.950 . S
C1278 C1279 1.327 . S
C1279 H1273 0.950 . S
C1279 C1278 1.327 . S
C1279 C1283 1.429 . S
C1280 C1263 1.574 . S
C1280 H1274 0.949 . S
C1280 C1284 1.368 . S
C1281 C1262 1.429 . S
C1281 C1275 1.429 . S
C1281 C1282 1.523 . S
C1282 C1263 1.368 . S
C1282 C1276 1.368 . S
C1282 C1281 1.523 . S
C1283 C1267 1.429 . S
C1283 C1279 1.429 . S
C1283 C1284 1.523 . S
C1284 C1268 1.368 . S
C1284 C1280 1.368 . S
C1284 C1283 1.523 . S
H1285 C1260 0.950 . S
H1286 C1262 0.950 . S
H1287 C1263 0.949 . S
H1288 C1265 0.950 . S
H1289 C1267 0.950 . S
C1290 C1291 1.349 . S
C1290 C1292 1.327 . S
C1290 H1315 0.950 . S
C1291 C1290 1.349 . S
C1291 C1307 1.349 . S
C1292 C1290 1.327 . S
C1292 C1311 1.429 . S
C1292 H1316 0.950 . S
C1293 C1310 1.574 . S
C1293 C1312 1.368 . S
C1293 H1317 0.949 . S
H1294 C1298 0.949 . S
C1295 C1296 1.349 . S
C1295 C1297 1.327 . S
C1295 H1318 0.950 . S
C1296 C1295 1.349 . S
C1296 C1308 1.349 . S
C1297 C1295 1.327 . S
C1297 C1313 1.429 . S
C1297 H1319 0.950 . S
C1298 H1294 0.949 . S
C1298 C1306 1.574 . S
C1298 C1314 1.368 . S
H1299 C1307 0.950 . S
H1300 C1305 0.950 . S
H1301 C1306 0.949 . S
H1302 C1308 0.950 . S
H1303 C1309 0.950 . S
H1304 C1310 0.949 . S
C1305 H1300 0.950 . S
C1305 C1307 1.327 . S
C1305 C1311 1.429 . S
C1306 C1298 1.574 . S
C1306 H1301 0.949 . S
C1306 C1312 1.368 . S
C1307 C1291 1.349 . S
C1307 H1299 0.950 . S
C1307 C1305 1.327 . S
C1308 C1296 1.349 . S
C1308 H1302 0.950 . S
C1308 C1309 1.327 . S
C1309 H1303 0.950 . S
C1309 C1308 1.327 . S
C1309 C1313 1.429 . S
C1310 C1293 1.574 . S
C1310 H1304 0.949 . S
C1310 C1314 1.368 . S
C1311 C1292 1.429 . S
C1311 C1305 1.429 . S
C1311 C1312 1.523 . S
C1312 C1293 1.368 . S
C1312 C1306 1.368 . S
C1312 C1311 1.523 . S
C1313 C1297 1.429 . S
C1313 C1309 1.429 . S
C1313 C1314 1.523 . S
C1314 C1298 1.368 . S
C1314 C1310 1.368 . S
C1314 C1313 1.523 . S
H1315 C1290 0.950 . S
H1316 C1292 0.950 . S
H1317 C1293 0.949 . S
H1318 C1295 0.950 . S
H1319 C1297 0.950 . S
C1320 C1321 1.349 . S
C1320 C1322 1.327 . S
C1320 H1345 0.950 . S
C1321 C1320 1.349 . S
C1321 C1337 1.349 . S
C1322 C1320 1.327 . S
C1322 C1341 1.429 . S
C1322 H1346 0.950 . S
C1323 C1340 1.574 . S
C1323 C1342 1.368 . S
C1323 H1347 0.949 . S
H1324 C1328 0.949 . S
C1325 C1326 1.349 . S
C1325 C1327 1.327 . S
C1325 H1348 0.950 . S
C1326 C1325 1.349 . S
C1326 C1338 1.349 . S
C1327 C1325 1.327 . S
C1327 C1343 1.429 . S
C1327 H1349 0.950 . S
C1328 H1324 0.949 . S
C1328 C1336 1.574 . S
C1328 C1344 1.368 . S
H1329 C1337 0.950 . S
H1330 C1335 0.950 . S
H1331 C1336 0.949 . S
H1332 C1338 0.950 . S
H1333 C1339 0.950 . S
H1334 C1340 0.949 . S
C1335 H1330 0.950 . S
C1335 C1337 1.327 . S
C1335 C1341 1.429 . S
C1336 C1328 1.574 . S
C1336 H1331 0.949 . S
C1336 C1342 1.368 . S
C1337 C1321 1.349 . S
C1337 H1329 0.950 . S
C1337 C1335 1.327 . S
C1338 C1326 1.349 . S
C1338 H1332 0.950 . S
C1338 C1339 1.327 . S
C1339 H1333 0.950 . S
C1339 C1338 1.327 . S
C1339 C1343 1.429 . S
C1340 C1323 1.574 . S
C1340 H1334 0.949 . S
C1340 C1344 1.368 . S
C1341 C1322 1.429 . S
C1341 C1335 1.429 . S
C1341 C1342 1.523 . S
C1342 C1323 1.368 . S
C1342 C1336 1.368 . S
C1342 C1341 1.523 . S
C1343 C1327 1.429 . S
C1343 C1339 1.429 . S
C1343 C1344 1.523 . S
C1344 C1328 1.368 . S
C1344 C1340 1.368 . S
C1344 C1343 1.523 . S
H1345 C1320 0.950 . S
H1346 C1322 0.950 . S
H1347 C1323 0.949 . S
H1348 C1325 0.950 . S
H1349 C1327 0.950 . S
C1350 C1351 1.349 . S
C1350 C1352 1.327 . S
C1350 H1375 0.950 . S
C1351 C1350 1.349 . S
C1351 C1367 1.349 . S
C1352 C1350 1.327 . S
C1352 C1371 1.429 . S
C1352 H1376 0.950 . S
C1353 C1370 1.574 . S
C1353 C1372 1.368 . S
C1353 H1377 0.949 . S
H1354 C1358 0.949 . S
C1355 C1356 1.349 . S
C1355 C1357 1.327 . S
C1355 H1378 0.950 . S
C1356 C1355 1.349 . S
C1356 C1368 1.349 . S
C1357 C1355 1.327 . S
C1357 C1373 1.429 . S
C1357 H1379 0.950 . S
C1358 H1354 0.949 . S
C1358 C1366 1.574 . S
C1358 C1374 1.368 . S
H1359 C1367 0.950 . S
H1360 C1365 0.950 . S
H1361 C1366 0.949 . S
H1362 C1368 0.950 . S
H1363 C1369 0.950 . S
H1364 C1370 0.949 . S
C1365 H1360 0.950 . S
C1365 C1367 1.327 . S
C1365 C1371 1.429 . S
C1366 C1358 1.574 . S
C1366 H1361 0.949 . S
C1366 C1372 1.368 . S
C1367 C1351 1.349 . S
C1367 H1359 0.950 . S
C1367 C1365 1.327 . S
C1368 C1356 1.349 . S
C1368 H1362 0.950 . S
C1368 C1369 1.327 . S
C1369 H1363 0.950 . S
C1369 C1368 1.327 . S
C1369 C1373 1.429 . S
C1370 C1353 1.574 . S
C1370 H1364 0.949 . S
C1370 C1374 1.368 . S
C1371 C1352 1.429 . S
C1371 C1365 1.429 . S
C1371 C1372 1.523 . S
C1372 C1353 1.368 . S
C1372 C1366 1.368 . S
C1372 C1371 1.523 . S
C1373 C1357 1.429 . S
C1373 C1369 1.429 . S
C1373 C1374 1.523 . S
C1374 C1358 1.368 . S
C1374 C1370 1.368 . S
C1374 C1373 1.523 . S
H1375 C1350 0.950 . S
H1376 C1352 0.950 . S
H1377 C1353 0.949 . S
H1378 C1355 0.950 . S
H1379 C1357 0.950 . S
C1380 C1381 1.349 . S
C1380 C1382 1.327 . S
C1380 H1405 0.950 . S
C1381 C1380 1.349 . S
C1381 C1397 1.349 . S
C1382 C1380 1.327 . S
C1382 C1401 1.429 . S
C1382 H1406 0.950 . S
C1383 C1400 1.574 . S
C1383 C1402 1.368 . S
C1383 H1407 0.949 . S
H1384 C1388 0.949 . S
C1385 C1386 1.349 . S
C1385 C1387 1.327 . S
C1385 H1408 0.950 . S
C1386 C1385 1.349 . S
C1386 C1398 1.349 . S
C1387 C1385 1.327 . S
C1387 C1403 1.429 . S
C1387 H1409 0.950 . S
C1388 H1384 0.949 . S
C1388 C1396 1.574 . S
C1388 C1404 1.368 . S
H1389 C1397 0.950 . S
H1390 C1395 0.950 . S
H1391 C1396 0.949 . S
H1392 C1398 0.950 . S
H1393 C1399 0.950 . S
H1394 C1400 0.949 . S
C1395 H1390 0.950 . S
C1395 C1397 1.327 . S
C1395 C1401 1.429 . S
C1396 C1388 1.574 . S
C1396 H1391 0.949 . S
C1396 C1402 1.368 1_554 S
C1397 C1381 1.349 . S
C1397 H1389 0.950 . S
C1397 C1395 1.327 . S
C1398 C1386 1.349 . S
C1398 H1392 0.950 . S
C1398 C1399 1.327 . S
C1399 H1393 0.950 . S
C1399 C1398 1.327 . S
C1399 C1403 1.429 . S
C1400 C1383 1.574 . S
C1400 H1394 0.949 . S
C1400 C1404 1.368 1_556 S
C1401 C1382 1.429 . S
C1401 C1395 1.429 . S
C1401 C1402 1.523 . S
C1402 C1383 1.368 . S
C1402 C1396 1.368 1_556 S
C1402 C1401 1.523 . S
C1403 C1387 1.429 . S
C1403 C1399 1.429 . S
C1403 C1404 1.523 . S
C1404 C1388 1.368 . S
C1404 C1400 1.368 1_554 S
C1404 C1403 1.523 . S
H1405 C1380 0.950 . S
H1406 C1382 0.950 . S
H1407 C1383 0.949 . S
H1408 C1385 0.950 . S
H1409 C1387 0.950 . S
C1410 C1411 1.349 . S
C1410 C1412 1.327 . S
C1410 H1435 0.950 . S
C1411 C1410 1.349 . S
C1411 C1427 1.349 . S
C1412 C1410 1.327 . S
C1412 C1431 1.429 . S
C1412 H1436 0.950 . S
C1413 C1430 1.574 1_455 S
C1413 C1432 1.368 . S
C1413 H1437 0.949 . S
H1414 C1418 0.949 . S
C1415 C1416 1.349 . S
C1415 C1417 1.327 . S
C1415 H1438 0.950 . S
C1416 C1415 1.349 . S
C1416 C1428 1.349 . S
C1417 C1415 1.327 . S
C1417 C1433 1.429 . S
C1417 H1439 0.950 . S
C1418 H1414 0.949 . S
C1418 C1426 1.574 1_655 S
C1418 C1434 1.368 . S
H1419 C1427 0.950 . S
H1420 C1425 0.950 . S
H1421 C1426 0.949 . S
H1422 C1428 0.950 . S
H1423 C1429 0.950 . S
H1424 C1430 0.949 . S
C1425 H1420 0.950 . S
C1425 C1427 1.327 . S
C1425 C1431 1.429 . S
C1426 C1418 1.574 1_455 S
C1426 H1421 0.949 . S
C1426 C1432 1.368 . S
C1427 C1411 1.349 . S
C1427 H1419 0.950 . S
C1427 C1425 1.327 . S
C1428 C1416 1.349 . S
C1428 H1422 0.950 . S
C1428 C1429 1.327 . S
C1429 H1423 0.950 . S
C1429 C1428 1.327 . S
C1429 C1433 1.429 . S
C1430 C1413 1.574 1_655 S
C1430 H1424 0.949 . S
C1430 C1434 1.368 . S
C1431 C1412 1.429 . S
C1431 C1425 1.429 . S
C1431 C1432 1.523 . S
C1432 C1413 1.368 . S
C1432 C1426 1.368 . S
C1432 C1431 1.523 . S
C1433 C1417 1.429 . S
C1433 C1429 1.429 . S
C1433 C1434 1.523 . S
C1434 C1418 1.368 . S
C1434 C1430 1.368 . S
C1434 C1433 1.523 . S
H1435 C1410 0.950 . S
H1436 C1412 0.950 . S
H1437 C1413 0.949 . S
H1438 C1415 0.950 . S
H1439 C1417 0.950 . S
C1440 C1441 1.349 . S
C1440 C1442 1.327 . S
C1440 H1465 0.950 . S
C1441 C1440 1.349 . S
C1441 C1457 1.349 . S
C1442 C1440 1.327 . S
C1442 C1461 1.429 . S
C1442 H1466 0.950 . S
C1443 C1460 1.574 1_564 S
C1443 C1462 1.368 . S
C1443 H1467 0.949 . S
H1444 C1448 0.949 . S
C1445 C1446 1.349 . S
C1445 C1447 1.327 . S
C1445 H1468 0.950 . S
C1446 C1445 1.349 . S
C1446 C1458 1.349 . S
C1447 C1445 1.327 . S
C1447 C1463 1.429 . S
C1447 H1469 0.950 . S
C1448 H1444 0.949 . S
C1448 C1456 1.574 1_546 S
C1448 C1464 1.368 . S
H1449 C1457 0.950 . S
H1450 C1455 0.950 . S
H1451 C1456 0.949 . S
H1452 C1458 0.950 . S
H1453 C1459 0.950 . S
H1454 C1460 0.949 . S
C1455 H1450 0.950 . S
C1455 C1457 1.327 . S
C1455 C1461 1.429 . S
C1456 C1448 1.574 1_564 S
C1456 H1451 0.949 . S
C1456 C1462 1.368 . S
C1457 C1441 1.349 . S
C1457 H1449 0.950 . S
C1457 C1455 1.327 . S
C1458 C1446 1.349 . S
C1458 H1452 0.950 . S
C1458 C1459 1.327 . S
C1459 H1453 0.950 . S
C1459 C1458 1.327 . S
C1459 C1463 1.429 . S
C1460 C1443 1.574 1_546 S
C1460 H1454 0.949 . S
C1460 C1464 1.368 . S
C1461 C1442 1.429 . S
C1461 C1455 1.429 . S
C1461 C1462 1.523 . S
C1462 C1443 1.368 . S
C1462 C1456 1.368 . S
C1462 C1461 1.523 . S
C1463 C1447 1.429 . S
C1463 C1459 1.429 . S
C1463 C1464 1.523 . S
C1464 C1448 1.368 . S
C1464 C1460 1.368 . S
C1464 C1463 1.523 . S
H1465 C1440 0.950 . S
H1466 C1442 0.950 . S
H1467 C1443 0.949 . S
H1468 C1445 0.950 . S
H1469 C1447 0.950 . S
C1470 C1471 1.349 . S
C1470 C1472 1.327 . S
C1470 H1495 0.950 . S
C1471 C1470 1.349 . S
C1471 C1487 1.349 . S
C1472 C1470 1.327 . S
C1472 C1491 1.429 . S
C1472 H1496 0.950 . S
C1473 C1490 1.574 . S
C1473 C1492 1.368 . S
C1473 H1497 0.949 . S
H1474 C1478 0.949 . S
C1475 C1476 1.349 . S
C1475 C1477 1.327 . S
C1475 H1498 0.950 . S
C1476 C1475 1.349 . S
C1476 C1488 1.349 . S
C1477 C1475 1.327 . S
C1477 C1493 1.429 . S
C1477 H1499 0.950 . S
C1478 H1474 0.949 . S
C1478 C1486 1.574 . S
C1478 C1494 1.368 . S
H1479 C1487 0.950 . S
H1480 C1485 0.950 . S
H1481 C1486 0.949 . S
H1482 C1488 0.950 . S
H1483 C1489 0.950 . S
H1484 C1490 0.949 . S
C1485 H1480 0.950 . S
C1485 C1487 1.327 . S
C1485 C1491 1.429 . S
C1486 C1478 1.574 . S
C1486 H1481 0.949 . S
C1486 C1492 1.368 . S
C1487 C1471 1.349 . S
C1487 H1479 0.950 . S
C1487 C1485 1.327 . S
C1488 C1476 1.349 . S
C1488 H1482 0.950 . S
C1488 C1489 1.327 . S
C1489 H1483 0.950 . S
C1489 C1488 1.327 . S
C1489 C1493 1.429 . S
C1490 C1473 1.574 . S
C1490 H1484 0.949 . S
C1490 C1494 1.368 . S
C1491 C1472 1.429 . S
C1491 C1485 1.429 . S
C1491 C1492 1.523 . S
C1492 C1473 1.368 . S
C1492 C1486 1.368 . S
C1492 C1491 1.523 . S
C1493 C1477 1.429 . S
C1493 C1489 1.429 . S
C1493 C1494 1.523 . S
C1494 C1478 1.368 . S
C1494 C1490 1.368 . S
C1494 C1493 1.523 . S
H1495 C1470 0.950 . S
H1496 C1472 0.950 . S
H1497 C1473 0.949 . S
H1498 C1475 0.950 . S
H1499 C1477 0.950 . S
C1500 C1501 1.349 . S
C1500 C1502 1.327 . S
C1500 H1525 0.950 . S
C1501 C1500 1.349 . S
C1501 C1517 1.349 . S
C1502 C1500 1.327 . S
C1502 C1521 1.429 . S
C1502 H1526 0.950 . S
C1503 C1520 1.574 1_656 S
C1503 C1522 1.368 . S
C1503 H1527 0.949 . S
H1504 C1508 0.949 . S
C1505 C1506 1.349 . S
C1505 C1507 1.327 . S
C1505 H1528 0.950 . S
C1506 C1505 1.349 . S
C1506 C1518 1.349 . S
C1507 C1505 1.327 . S
C1507 C1523 1.429 . S
C1507 H1529 0.950 . S
C1508 H1504 0.949 . S
C1508 C1516 1.574 1_454 S
C1508 C1524 1.368 . S
H1509 C1517 0.950 . S
H1510 C1515 0.950 . S
H1511 C1516 0.949 . S
H1512 C1518 0.950 . S
H1513 C1519 0.950 . S
H1514 C1520 0.949 . S
C1515 H1510 0.950 . S
C1515 C1517 1.327 . S
C1515 C1521 1.429 . S
C1516 C1508 1.574 1_656 S
C1516 H1511 0.949 . S
C1516 C1522 1.368 . S
C1517 C1501 1.349 . S
C1517 H1509 0.950 . S
C1517 C1515 1.327 . S
C1518 C1506 1.349 . S
C1518 H1512 0.950 . S
C1518 C1519 1.327 . S
C1519 H1513 0.950 . S
C1519 C1518 1.327 . S
C1519 C1523 1.429 . S
C1520 C1503 1.574 1_454 S
C1520 H1514 0.949 . S
C1520 C1524 1.368 . S
C1521 C1502 1.429 . S
C1521 C1515 1.429 . S
C1521 C1522 1.523 . S
C1522 C1503 1.368 . S
C1522 C1516 1.368 . S
C1522 C1521 1.523 . S
C1523 C1507 1.429 . S
C1523 C1519 1.429 . S
C1523 C1524 1.523 . S
C1524 C1508 1.368 . S
C1524 C1520 1.368 . S
C1524 C1523 1.523 . S
H1525 C1500 0.950 . S
H1526 C1502 0.950 . S
H1527 C1503 0.949 . S
H1528 C1505 0.950 . S
H1529 C1507 0.950 . S
C1530 C1531 1.349 . S
C1530 C1532 1.327 . S
C1530 H1555 0.950 . S
C1531 C1530 1.349 . S
C1531 C1547 1.349 . S
C1532 C1530 1.327 . S
C1532 C1551 1.429 . S
C1532 H1556 0.950 . S
C1533 C1550 1.574 1_565 S
C1533 C1552 1.368 . S
C1533 H1557 0.949 . S
H1534 C1538 0.949 . S
C1535 C1536 1.349 . S
C1535 C1537 1.327 . S
C1535 H1558 0.950 . S
C1536 C1535 1.349 . S
C1536 C1548 1.349 . S
C1537 C1535 1.327 . S
C1537 C1553 1.429 . S
C1537 H1559 0.950 . S
C1538 H1534 0.949 . S
C1538 C1546 1.574 1_545 S
C1538 C1554 1.368 . S
H1539 C1547 0.950 . S
H1540 C1545 0.950 . S
H1541 C1546 0.949 . S
H1542 C1548 0.950 . S
H1543 C1549 0.950 . S
H1544 C1550 0.949 . S
C1545 H1540 0.950 . S
C1545 C1547 1.327 . S
C1545 C1551 1.429 . S
C1546 C1538 1.574 1_565 S
C1546 H1541 0.949 . S
C1546 C1552 1.368 . S
C1547 C1531 1.349 . S
C1547 H1539 0.950 . S
C1547 C1545 1.327 . S
C1548 C1536 1.349 . S
C1548 H1542 0.950 . S
C1548 C1549 1.327 . S
C1549 H1543 0.950 . S
C1549 C1548 1.327 . S
C1549 C1553 1.429 . S
C1550 C1533 1.574 1_545 S
C1550 H1544 0.949 . S
C1550 C1554 1.368 . S
C1551 C1532 1.429 . S
C1551 C1545 1.429 . S
C1551 C1552 1.523 . S
C1552 C1533 1.368 . S
C1552 C1546 1.368 . S
C1552 C1551 1.523 . S
C1553 C1537 1.429 . S
C1553 C1549 1.429 . S
C1553 C1554 1.523 . S
C1554 C1538 1.368 . S
C1554 C1550 1.368 . S
C1554 C1553 1.523 . S
H1555 C1530 0.950 . S
H1556 C1532 0.950 . S
H1557 C1533 0.949 . S
H1558 C1535 0.950 . S
H1559 C1537 0.950 . S
C481 C180 1.121 . S
C486 C4 1.127 . S
C511 C220 1.121 . S
C516 C44 1.127 . S
C541 C84 1.127 . S
C546 C20 1.121 . S
C571 C124 1.127 . S
C576 C60 1.121 . S
C601 C164 1.127 . S
C606 C100 1.121 . S
C631 C140 1.121 . S
C636 C204 1.127 . S
C661 C340 1.121 . S
C666 C244 1.127 . S
C691 C284 1.127 . S
C696 C380 1.121 . S
C721 C420 1.121 . S
C726 C324 1.127 . S
C751 C364 1.127 . S
C756 C460 1.121 . S
C781 C404 1.127 . S
C786 C260 1.121 . S
C811 C300 1.121 . S
C816 C444 1.127 . S
C841 C191 1.527 . S
C846 C25 1.533 . S
C871 C65 1.533 . S
C876 C231 1.527 . S
C901 C105 1.534 . S
C906 C31 1.527 . S
C931 C145 1.533 . S
C936 C71 1.527 . S
C961 C111 1.527 . S
C966 C185 1.533 . S
C991 C151 1.527 . S
C996 C225 1.534 . S
C1021 C351 1.527 . S
C1026 C265 1.533 . S
C1051 C305 1.534 . S
C1056 C391 1.527 . S
C1081 C345 1.533 . S
C1086 C431 1.527 . S
C1111 C471 1.527 . S
C1116 C385 1.533 . S
C1141 C425 1.534 . S
C1146 C271 1.527 . S
C1171 C311 1.527 . S
C1176 C465 1.534 . S
C1201 C402 1.691 . S
C1206 C2 1.691 . S
C1231 C42 1.691 . S
C1236 C442 1.691 . S
C1261 C82 1.691 . S
C1266 C242 1.691 . S
C1291 C122 1.691 . S
C1296 C282 1.691 . S
C1321 C162 1.691 . S
C1326 C322 1.691 . S
C1351 C362 1.691 . S
C1356 C202 1.691 . S
C1381 C383 2.147 . S
C1386 C23 2.147 . S
C1411 C423 2.147 . S
C1416 C63 2.147 . S
C1441 C103 2.147 . S
C1446 C463 2.147 . S
C1471 C143 2.147 . S
C1476 C263 2.147 . S
C1501 C303 2.147 . S
C1506 C183 2.147 . S
C1531 C343 2.147 . S
C1536 C223 2.147 . S
