# Generated by pormake.
# Topology cbo, (4)-cn, num edge types: 1
# Building blocks:
#     Node 0, Type 0, BuildingBlock: NAHDIM_clean_sbu_0, # of connection points: 4
#     Node 1, Type 0, BuildingBlock: NAHDIM_clean_sbu_0, # of connection points: 4
#     Node 2, Type 0, BuildingBlock: NAHDIM_clean_sbu_0, # of connection points: 4
#     Node 3, Type 0, BuildingBlock: NAHDIM_clean_sbu_0, # of connection points: 4
#     Node 4, Type 0, BuildingBlock: NAHDIM_clean_sbu_0, # of connection points: 4
#     Node 5, Type 0, BuildingBlock: NAHDIM_clean_sbu_0, # of connection points: 4
#     Node 6, Type 0, BuildingBlock: NAHDIM_clean_sbu_0, # of connection points: 4
#     Node 7, Type 0, BuildingBlock: NAHDIM_clean_sbu_0, # of connection points: 4
#     Node 8, Type 0, BuildingBlock: NAHDIM_clean_sbu_0, # of connection points: 4
#     Node 9, Type 0, BuildingBlock: NAHDIM_clean_sbu_0, # of connection points: 4
#     Node 10, Type 0, BuildingBlock: NAHDIM_clean_sbu_0, # of connection points: 4
#     Node 11, Type 0, BuildingBlock: NAHDIM_clean_sbu_0, # of connection points: 4
#     Node 12, Type 0, BuildingBlock: NAHDIM_clean_sbu_0, # of connection points: 4
#     Node 13, Type 0, BuildingBlock: NAHDIM_clean_sbu_0, # of connection points: 4
#     Node 14, Type 0, BuildingBlock: NAHDIM_clean_sbu_0, # of connection points: 4
#     Node 15, Type 0, BuildingBlock: NAHDIM_clean_sbu_0, # of connection points: 4
#     Node 16, Type 0, BuildingBlock: NAHDIM_clean_sbu_0, # of connection points: 4
#     Node 17, Type 0, BuildingBlock: NAHDIM_clean_sbu_0, # of connection points: 4
#     Node 18, Type 0, BuildingBlock: NAHDIM_clean_sbu_0, # of connection points: 4
#     Node 19, Type 0, BuildingBlock: NAHDIM_clean_sbu_0, # of connection points: 4
#     Node 20, Type 0, BuildingBlock: NAHDIM_clean_sbu_0, # of connection points: 4
#     Node 21, Type 0, BuildingBlock: NAHDIM_clean_sbu_0, # of connection points: 4
#     Node 22, Type 0, BuildingBlock: NAHDIM_clean_sbu_0, # of connection points: 4
#     Node 23, Type 0, BuildingBlock: NAHDIM_clean_sbu_0, # of connection points: 4
#     Edge 24, Type (0, 0), BuildingBlock: UVAHIK_clean_linker_0, # of connection points: 2
#     Edge 25, Type (0, 0), BuildingBlock: UVAHIK_clean_linker_0, # of connection points: 2
#     Edge 26, Type (0, 0), BuildingBlock: UVAHIK_clean_linker_0, # of connection points: 2
#     Edge 27, Type (0, 0), BuildingBlock: UVAHIK_clean_linker_0, # of connection points: 2
#     Edge 28, Type (0, 0), BuildingBlock: UVAHIK_clean_linker_0, # of connection points: 2
#     Edge 29, Type (0, 0), BuildingBlock: UVAHIK_clean_linker_0, # of connection points: 2
#     Edge 30, Type (0, 0), BuildingBlock: UVAHIK_clean_linker_0, # of connection points: 2
#     Edge 31, Type (0, 0), BuildingBlock: UVAHIK_clean_linker_0, # of connection points: 2
#     Edge 32, Type (0, 0), BuildingBlock: UVAHIK_clean_linker_0, # of connection points: 2
#     Edge 33, Type (0, 0), BuildingBlock: UVAHIK_clean_linker_0, # of connection points: 2
#     Edge 34, Type (0, 0), BuildingBlock: UVAHIK_clean_linker_0, # of connection points: 2
#     Edge 35, Type (0, 0), BuildingBlock: UVAHIK_clean_linker_0, # of connection points: 2
#     Edge 36, Type (0, 0), BuildingBlock: UVAHIK_clean_linker_0, # of connection points: 2
#     Edge 37, Type (0, 0), BuildingBlock: UVAHIK_clean_linker_0, # of connection points: 2
#     Edge 38, Type (0, 0), BuildingBlock: UVAHIK_clean_linker_0, # of connection points: 2
#     Edge 39, Type (0, 0), BuildingBlock: UVAHIK_clean_linker_0, # of connection points: 2
#     Edge 40, Type (0, 0), BuildingBlock: UVAHIK_clean_linker_0, # of connection points: 2
#     Edge 41, Type (0, 0), BuildingBlock: UVAHIK_clean_linker_0, # of connection points: 2
#     Edge 42, Type (0, 0), BuildingBlock: UVAHIK_clean_linker_0, # of connection points: 2
#     Edge 43, Type (0, 0), BuildingBlock: UVAHIK_clean_linker_0, # of connection points: 2
#     Edge 44, Type (0, 0), BuildingBlock: UVAHIK_clean_linker_0, # of connection points: 2
#     Edge 45, Type (0, 0), BuildingBlock: UVAHIK_clean_linker_0, # of connection points: 2
#     Edge 46, Type (0, 0), BuildingBlock: UVAHIK_clean_linker_0, # of connection points: 2
#     Edge 47, Type (0, 0), BuildingBlock: UVAHIK_clean_linker_0, # of connection points: 2
#     Edge 48, Type (0, 0), BuildingBlock: UVAHIK_clean_linker_0, # of connection points: 2
#     Edge 49, Type (0, 0), BuildingBlock: UVAHIK_clean_linker_0, # of connection points: 2
#     Edge 50, Type (0, 0), BuildingBlock: UVAHIK_clean_linker_0, # of connection points: 2
#     Edge 51, Type (0, 0), BuildingBlock: UVAHIK_clean_linker_0, # of connection points: 2
#     Edge 52, Type (0, 0), BuildingBlock: UVAHIK_clean_linker_0, # of connection points: 2
#     Edge 53, Type (0, 0), BuildingBlock: UVAHIK_clean_linker_0, # of connection points: 2
#     Edge 54, Type (0, 0), BuildingBlock: UVAHIK_clean_linker_0, # of connection points: 2
#     Edge 55, Type (0, 0), BuildingBlock: UVAHIK_clean_linker_0, # of connection points: 2
#     Edge 56, Type (0, 0), BuildingBlock: UVAHIK_clean_linker_0, # of connection points: 2
#     Edge 57, Type (0, 0), BuildingBlock: UVAHIK_clean_linker_0, # of connection points: 2
#     Edge 58, Type (0, 0), BuildingBlock: UVAHIK_clean_linker_0, # of connection points: 2
#     Edge 59, Type (0, 0), BuildingBlock: UVAHIK_clean_linker_0, # of connection points: 2
#     Edge 60, Type (0, 0), BuildingBlock: UVAHIK_clean_linker_0, # of connection points: 2
#     Edge 61, Type (0, 0), BuildingBlock: UVAHIK_clean_linker_0, # of connection points: 2
#     Edge 62, Type (0, 0), BuildingBlock: UVAHIK_clean_linker_0, # of connection points: 2
#     Edge 63, Type (0, 0), BuildingBlock: UVAHIK_clean_linker_0, # of connection points: 2
#     Edge 64, Type (0, 0), BuildingBlock: UVAHIK_clean_linker_0, # of connection points: 2
#     Edge 65, Type (0, 0), BuildingBlock: UVAHIK_clean_linker_0, # of connection points: 2
#     Edge 66, Type (0, 0), BuildingBlock: UVAHIK_clean_linker_0, # of connection points: 2
#     Edge 67, Type (0, 0), BuildingBlock: UVAHIK_clean_linker_0, # of connection points: 2
#     Edge 68, Type (0, 0), BuildingBlock: UVAHIK_clean_linker_0, # of connection points: 2
#     Edge 69, Type (0, 0), BuildingBlock: UVAHIK_clean_linker_0, # of connection points: 2
#     Edge 70, Type (0, 0), BuildingBlock: UVAHIK_clean_linker_0, # of connection points: 2
#     Edge 71, Type (0, 0), BuildingBlock: UVAHIK_clean_linker_0, # of connection points: 2
# Relax obj value: 0.275
# Max RMSD: 0.280
# Mean RMSD: 0.265
data_MOF--net-cbo--node1-NAHDIM_clean_sbu_0--edge1-UVAHIK_clean_linker_0
_symmetry_space_group_name_H-M    P1
_symmetry_Int_Tables_number       1
_symmetry_cell_setting            triclinic
loop_
_symmetry_equiv_pos_as_xyz
'x, y, z'
_cell_length_a     66.465526
_cell_length_b     63.978602
_cell_length_c     65.215345
_cell_angle_alpha  89.965778
_cell_angle_beta   89.975096
_cell_angle_gamma 90.016148
loop_
_atom_site_label
_atom_site_type_symbol
_atom_site_fract_x
_atom_site_fract_y
_atom_site_fract_z
_atom_type_partial_charge
C0 C 0.9951 0.11011 0.26697 0.0
O1 O -0.00132 0.13029 0.26602 0.0
O2 O 0.0358 0.12769 0.23376 0.0
Zn3 Zn 0.03681 0.11009 0.25936 0.0
O4 O 0.0453 0.1273 0.28364 0.0
C5 C 0.062 0.08108 0.23749 0.0
O6 O 0.05042 0.08656 0.22207 0.0
O7 O 0.00964 0.09745 0.26455 0.0
C8 C 0.06331 0.13396 0.28416 0.0
O9 O 0.07525 0.13009 0.26855 0.0
C10 C 0.03631 0.14754 0.23322 0.0
O11 O 0.03693 0.15812 0.25047 0.0
O12 O 0.05818 0.08821 0.25525 0.0
C13 C 0.5049 0.85769 0.77231 0.0
O14 O 0.50484 0.83815 0.76613 0.0
O15 O 0.4623 0.84171 0.73945 0.0
Zn16 Zn 0.46243 0.85215 0.76853 0.0
O17 O 0.4581 0.82894 0.78881 0.0
C18 C 0.43676 0.88835 0.76168 0.0
O19 O 0.45086 0.89405 0.74871 0.0
O20 O 0.48825 0.86716 0.77451 0.0
C21 C 0.44094 0.82018 0.78901 0.0
O22 O 0.42761 0.82557 0.77509 0.0
C23 C 0.46348 0.82261 0.73425 0.0
O24 O 0.46559 0.80822 0.74846 0.0
O25 O 0.43896 0.87159 0.77187 0.0
C26 C 0.47911 0.35257 0.71837 0.0
O27 O 0.47926 0.33331 0.72537 0.0
O28 O 0.51872 0.33556 0.75356 0.0
Zn29 Zn 0.52141 0.34899 0.72572 0.0
O30 O 0.53019 0.32844 0.70422 0.0
C31 C 0.54888 0.37847 0.74424 0.0
O32 O 0.53854 0.37415 0.76088 0.0
O33 O 0.49556 0.3626 0.71726 0.0
C34 C 0.54818 0.32174 0.70502 0.0
O35 O 0.55955 0.32718 0.72061 0.0
C36 C 0.52076 0.31621 0.75745 0.0
O37 O 0.5237 0.30303 0.74232 0.0
O38 O 0.54357 0.37037 0.72731 0.0
C39 C 0.98898 0.63933 0.22092 0.0
O40 O 0.98629 0.65924 0.22502 0.0
O41 O 0.94491 0.65727 0.24798 0.0
Zn42 Zn 0.94575 0.6385 0.22311 0.0
O43 O 0.93625 0.65328 0.19747 0.0
C44 C 0.92643 0.6057 0.24603 0.0
O45 O 0.93868 0.61209 0.26053 0.0
O46 O 0.97374 0.62748 0.21921 0.0
C47 C 0.91771 0.65233 0.19271 0.0
O48 O 0.90524 0.64232 0.20489 0.0
C49 C 0.93002 0.66921 0.25143 0.0
O50 O 0.91551 0.67036 0.23782 0.0
O51 O 0.92723 0.61432 0.2285 0.0
C52 C 0.33199 0.03198 0.14719 0.0
O53 O 0.33159 0.02321 0.12898 0.0
O54 O 0.28388 0.05101 0.12206 0.0
Zn55 Zn 0.28979 0.02786 0.14195 0.0
O56 O 0.29265 0.00062 0.12691 0.0
C57 C 0.26033 0.04253 0.17034 0.0
O58 O 0.27002 0.06015 0.16715 0.0
O59 O 0.31548 0.03513 0.15653 0.0
C60 C 0.29125 0.98356 0.13677 0.0
O61 O 0.28798 0.98415 0.15663 0.0
C62 C 0.26719 0.05159 0.11262 0.0
O63 O 0.25423 0.03632 0.11536 0.0
O64 O 0.26654 0.02601 0.1616 0.0
C65 C 0.18154 0.96456 0.67558 0.0
O66 O 0.18578 0.96829 0.65623 0.0
O67 O 0.22973 0.95589 0.65589 0.0
Zn68 Zn 0.22187 0.97663 0.67773 0.0
O69 O 0.21896 0.00472 0.66449 0.0
C70 C 0.24389 0.96399 0.71385 0.0
O71 O 0.22881 0.95088 0.716 0.0
O72 O 0.19512 0.9675 0.68898 0.0
C73 C 0.23384 0.01357 0.65587 0.0
O74 O 0.25155 0.00446 0.65641 0.0
C75 C 0.2476 0.94911 0.65399 0.0
O76 O 0.26165 0.95598 0.66644 0.0
O77 O 0.24349 0.97715 0.69927 0.0
C78 C 0.82105 0.45072 0.80327 0.0
O79 O 0.8201 0.46132 0.82049 0.0
O80 O 0.7712 0.43608 0.82833 0.0
Zn81 Zn 0.77884 0.45647 0.80615 0.0
O82 O 0.7816 0.48545 0.81768 0.0
C83 C 0.75203 0.4376 0.77848 0.0
O84 O 0.76397 0.42181 0.78274 0.0
O85 O 0.80489 0.44699 0.79354 0.0
C86 C 0.76978 0.49212 0.83153 0.0
O87 O 0.75526 0.47994 0.83819 0.0
C88 C 0.77757 0.43546 0.84669 0.0
O89 O 0.79081 0.44931 0.85292 0.0
O90 O 0.75616 0.45545 0.78589 0.0
C91 C 0.67336 0.53085 0.34924 0.0
O92 O 0.67459 0.52597 0.36877 0.0
O93 O 0.71979 0.54732 0.37404 0.0
Zn94 Zn 0.71578 0.52543 0.35221 0.0
O95 O 0.7162 0.49634 0.36392 0.0
C96 C 0.74923 0.51462 0.32481 0.0
O97 O 0.74585 0.49522 0.33045 0.0
O98 O 0.68931 0.53111 0.33851 0.0
C99 C 0.7293 0.49042 0.37688 0.0
O100 O 0.74309 0.50367 0.38313 0.0
C101 C 0.71621 0.54574 0.39314 0.0
O102 O 0.70908 0.52816 0.40059 0.0
O103 O 0.73817 0.52917 0.33181 0.0
C104 C 0.14728 0.276 0.99375 0.0
O105 O 0.16609 0.27924 -0.00095 0.0
O106 O 0.16369 0.2397 0.03617 0.0
Zn107 Zn 0.14483 0.26426 0.03576 0.0
O108 O 0.15814 0.29016 0.04664 0.0
C109 C 0.11194 0.24036 0.05173 0.0
O110 O 0.11608 0.22862 0.03574 0.0
O111 O 0.13496 0.26934 0.00714 0.0
C112 C 0.16257 0.29124 0.06556 0.0
O113 O 0.15902 0.27503 0.0774 0.0
C114 C 0.1827 0.2407 0.03794 0.0
O115 O 0.19149 0.25906 0.03896 0.0
O116 O 0.12186 0.25709 0.05446 0.0
C117 C 0.64339 0.25143 0.01353 0.0
O118 O 0.66299 0.2513 0.01094 0.0
O119 O 0.6617 0.27747 0.96537 0.0
Zn120 Zn 0.64336 0.25275 0.96944 0.0
O121 O 0.65769 0.2258 0.96334 0.0
C122 C 0.60868 0.27057 0.94937 0.0
O123 O 0.61038 0.28474 0.96385 0.0
O124 O 0.63202 0.25221 -0.00209 0.0
C125 C 0.66356 0.22273 0.94504 0.0
O126 O 0.66078 0.23752 0.93134 0.0
C127 C 0.68078 0.27634 0.96466 0.0
O128 O 0.68961 0.25824 0.96774 0.0
O129 O 0.62088 0.25531 0.94906 0.0
C130 C 0.83985 0.75925 0.51945 0.0
O131 O 0.82048 0.76229 0.51671 0.0
O132 O 0.81566 0.73144 0.47482 0.0
Zn133 Zn 0.83787 0.75282 0.47629 0.0
O134 O 0.82664 0.78107 0.46954 0.0
C135 C 0.86234 0.72737 0.44951 0.0
O136 O 0.85363 0.71199 0.45949 0.0
O137 O 0.85066 0.75426 0.50415 0.0
C138 C 0.81636 0.78362 0.45331 0.0
O139 O 0.8127 0.7674 0.44153 0.0
C140 C 0.8135 0.71606 0.48696 0.0
O141 O 0.82602 0.71378 0.50238 0.0
O142 O 0.85842 0.74611 0.45459 0.0
C143 C 0.34282 0.7478 0.47898 0.0
O144 O 0.32315 0.74788 0.48103 0.0
O145 O 0.32373 0.77454 0.52647 0.0
Zn146 Zn 0.34238 0.7499 0.52326 0.0
O147 O 0.32885 0.72262 0.53027 0.0
C148 C 0.37485 0.77121 0.5432 0.0
O149 O 0.3705 0.7856 0.52952 0.0
O150 O 0.35381 0.74872 0.49487 0.0
C151 C 0.3272 0.71754 0.54905 0.0
O152 O 0.33367 0.73056 0.56316 0.0
C153 C 0.30664 0.77348 0.53515 0.0
O154 O 0.29972 0.7552 0.54102 0.0
O155 O 0.36505 0.75417 0.54312 0.0
C156 C 0.98826 0.87409 0.72008 0.0
O157 O 0.98582 0.85372 0.72061 0.0
O158 O 0.94617 0.85706 0.7538 0.0
Zn159 Zn 0.94594 0.87297 0.7272 0.0
O160 O 0.93832 0.85407 0.70383 0.0
C161 C 0.92426 0.90636 0.74593 0.0
O162 O 0.93832 0.90384 0.75988 0.0
O163 O 0.97304 0.88585 0.7224 0.0
C164 C 0.92032 0.8474 0.70301 0.0
O165 O 0.90765 0.8528 0.71755 0.0
C166 C 0.94686 0.83728 0.75532 0.0
O167 O 0.94815 0.82587 0.73863 0.0
O168 O 0.92482 0.89526 0.7298 0.0
C169 C 0.5131 0.1359 0.21112 0.0
O170 O 0.53002 0.13299 0.2011 0.0
O171 O 0.53549 0.17932 0.25955 0.0
Zn172 Zn 0.53834 0.16398 0.23275 0.0
O173 O 0.54626 0.183 0.20948 0.0
C174 C 0.55838 0.12707 0.24797 0.0
O175 O 0.5413 0.12431 0.25774 0.0
O176 O 0.51272 0.14899 0.22576 0.0
C177 C 0.56465 0.18809 0.20745 0.0
O178 O 0.57772 0.18169 0.22119 0.0
C179 C 0.54054 0.19827 0.26235 0.0
O180 O 0.54706 0.20936 0.24675 0.0
O181 O 0.56038 0.1428 0.23627 0.0
C182 C 0.49272 0.62409 0.26971 0.0
O183 O 0.49085 0.62847 0.25012 0.0
O184 O 0.45653 0.65574 0.24448 0.0
Zn185 Zn 0.45349 0.64372 0.27284 0.0
O186 O 0.44574 0.66576 0.29331 0.0
C187 C 0.43144 0.60672 0.26083 0.0
O188 O 0.44774 0.60276 0.25011 0.0
O189 O 0.47876 0.62926 0.28203 0.0
C190 C 0.42791 0.67291 0.29294 0.0
O191 O 0.41553 0.6665 0.27855 0.0
C192 C 0.45672 0.67514 0.2403 0.0
O193 O 0.4556 0.68882 0.25526 0.0
O194 O 0.43083 0.62302 0.27191 0.0
C195 C 0.01013 0.35508 0.7511 0.0
O196 O 0.01364 0.34616 0.73332 0.0
O197 O 0.05184 0.32225 0.73792 0.0
Zn198 Zn 0.05181 0.34438 0.75988 0.0
O199 O 0.06225 0.33261 0.78652 0.0
C200 C 0.0694 0.37311 0.73153 0.0
O201 O 0.05685 0.36364 0.71903 0.0
O202 O 0.02404 0.35579 0.76444 0.0
C203 C 0.08031 0.3355 0.79229 0.0
O204 O 0.09259 0.34619 0.78048 0.0
C205 C 0.06862 0.31403 0.73325 0.0
O206 O 0.08469 0.31931 0.74377 0.0
O207 O 0.06972 0.36781 0.7503 0.0
C208 C 0.71211 0.01952 0.86715 0.0
O209 O 0.71481 0.01775 0.84727 0.0
O210 O 0.74001 0.97654 0.84588 0.0
Zn211 Zn 0.71562 0.97537 0.8642 0.0
O212 O 0.69092 0.9676 0.84817 0.0
C213 C 0.73766 0.94921 0.8921 0.0
O214 O 0.75241 0.96192 0.88711 0.0
O215 O 0.71176 0.00309 0.87809 0.0
C216 C 0.69021 0.94943 0.84034 0.0
O217 O 0.70582 0.93701 0.84237 0.0
C218 C 0.73972 0.97742 0.82641 0.0
O219 O 0.72238 0.97816 0.81679 0.0
O220 O 0.72021 0.95253 0.88486 0.0
C221 C 0.77848 0.98971 0.3749 0.0
O222 O 0.78698 0.00606 0.38346 0.0
O223 O 0.74172 0.02239 0.32801 0.0
Zn224 Zn 0.76639 0.02074 0.34591 0.0
O225 O 0.79187 0.02743 0.3305 0.0
C226 C 0.74824 0.04086 0.38071 0.0
O227 O 0.73579 0.02496 0.37937 0.0
O228 O 0.76864 0.99212 0.35836 0.0
C229 C 0.79706 0.0464 0.32811 0.0
O230 O 0.7852 0.06125 0.335 0.0
C231 C 0.74114 0.03159 0.31074 0.0
O232 O 0.75774 0.03953 0.30308 0.0
O233 O 0.76285 0.04208 0.36821 0.0
C234 C 0.21011 0.48917 0.15774 0.0
O235 O 0.212 0.49059 0.17775 0.0
O236 O 0.23943 0.53026 0.17993 0.0
Zn237 Zn 0.21588 0.53329 0.16068 0.0
O238 O 0.19034 0.54225 0.17498 0.0
C239 C 0.23488 0.56966 0.14353 0.0
O240 O 0.24265 0.57055 0.16203 0.0
O241 O 0.21115 0.50568 0.14696 0.0
C242 C 0.18744 0.56116 0.18018 0.0
O243 O 0.20181 0.57492 0.17717 0.0
C244 C 0.24024 0.53664 0.19836 0.0
O245 O 0.22432 0.54536 0.20667 0.0
O246 O 0.22294 0.5548 0.13912 0.0
C247 C 0.27666 0.51015 0.61495 0.0
O248 O 0.27761 0.50585 0.63463 0.0
O249 O 0.24869 0.46358 0.63316 0.0
Zn250 Zn 0.27109 0.46594 0.6126 0.0
O251 O 0.29669 0.45664 0.6262 0.0
C252 C 0.27684 0.43399 0.58121 0.0
O253 O 0.29574 0.43447 0.58707 0.0
O254 O 0.27385 0.49535 0.6023 0.0
C255 C 0.29655 0.43946 0.63599 0.0
O256 O 0.27979 0.4286 0.63686 0.0
C257 C 0.23266 0.47438 0.63269 0.0
O258 O 0.23053 0.48885 0.61855 0.0
O259 O 0.26427 0.4464 0.58944 0.0
C260 C 0.83779 0.70841 0.99582 0.0
O261 O 0.8182 0.70827 0.99312 0.0
O262 O 0.81744 0.741 0.95445 0.0
Zn263 Zn 0.8377 0.71772 0.95273 0.0
O264 O 0.82497 0.69169 0.94082 0.0
C265 C 0.86767 0.74558 0.93648 0.0
O266 O 0.86185 0.75726 0.95195 0.0
O267 O 0.84919 0.71195 0.98058 0.0
C268 C 0.82807 0.68702 0.92212 0.0
O269 O 0.8394 0.69934 0.91088 0.0
C270 C 0.80941 0.74721 0.93786 0.0
O271 O 0.8138 0.73743 0.92072 0.0
O272 O 0.85987 0.72762 0.93417 0.0
C273 C 0.35763 0.75347 0.97785 0.0
O274 O 0.33809 0.75058 0.97896 0.0
O275 O 0.33509 0.73095 0.02423 0.0
Zn276 Zn 0.3548 0.75472 0.02205 0.0
O277 O 0.3416 0.78213 0.02888 0.0
C278 C 0.38599 0.73281 0.04367 0.0
O279 O 0.38288 0.71884 0.02926 0.0
O280 O 0.36768 0.75564 0.99428 0.0
C281 C 0.33486 0.78422 0.047 0.0
O282 O 0.33611 0.76834 0.05972 0.0
C283 C 0.31607 0.73299 0.02397 0.0
O284 O 0.30821 0.75158 0.02097 0.0
O285 O 0.37603 0.74974 0.04333 0.0
C286 C 0.15236 0.20925 0.4706 0.0
O287 O 0.17177 0.21312 0.47105 0.0
O288 O 0.172 0.24416 0.5104 0.0
Zn289 Zn 0.15605 0.21761 0.51356 0.0
O290 O 0.17357 0.19397 0.52308 0.0
C291 C 0.1276 0.2401 0.53858 0.0
O292 O 0.13199 0.25541 0.52592 0.0
O293 O 0.14233 0.21022 0.48715 0.0
C294 C 0.18192 0.19573 0.54053 0.0
O295 O 0.17968 0.21323 0.55082 0.0
C296 C 0.19102 0.24536 0.50883 0.0
O297 O 0.20177 0.22814 0.50841 0.0
O298 O 0.13553 0.22227 0.53576 0.0
C299 C 0.65118 0.26356 0.52136 0.0
O300 O 0.67036 0.25857 0.52166 0.0
O301 O 0.67071 0.23424 0.47681 0.0
Zn302 Zn 0.65611 0.2618 0.47723 0.0
O303 O 0.6744 0.28601 0.47059 0.0
C304 C 0.62025 0.24797 0.45631 0.0
O305 O 0.61855 0.23565 0.47235 0.0
O306 O 0.64236 0.26592 0.50425 0.0
C307 C 0.67865 0.28884 0.45178 0.0
O308 O 0.67192 0.27541 0.43818 0.0
C309 C 0.68933 0.232 0.47296 0.0
O310 O 0.70055 0.2486 0.46987 0.0
O311 O 0.63493 0.26063 0.45534 0.0
C312 C 0.08832 0.2134 0.06573 0.0
C313 C 0.09794 0.23285 0.06776 0.0
C314 C 0.07722 0.20504 0.08199 0.0
C315 C 0.05409 0.21737 0.13245 0.0
H316 H 0.06763 0.15976 0.14471 0.0
C317 C 0.04296 0.17971 0.21231 0.0
C318 C 0.03804 0.15837 0.21326 0.0
C319 C 0.04666 0.18933 0.19342 0.0
C320 C 0.06333 0.17573 0.14135 0.0
H321 H 0.10249 0.25932 0.08804 0.0
H322 H 0.08332 0.24464 0.11643 0.0
H323 H 0.08009 0.17571 0.11341 0.0
H324 H 0.03199 0.13069 0.19506 0.0
H325 H 0.03808 0.14753 0.16218 0.0
H326 H 0.03768 0.21743 0.16074 0.0
C327 C 0.08422 0.2359 0.10224 0.0
C328 C 0.07049 0.18489 0.12336 0.0
C329 C 0.09532 0.24426 0.08599 0.0
C330 C 0.03597 0.1471 0.19489 0.0
C331 C 0.03956 0.15673 0.17603 0.0
C332 C 0.04687 0.20817 0.15048 0.0
C333 C 0.0755 0.21596 0.10061 0.0
C334 C 0.06618 0.20588 0.11881 0.0
C335 C 0.04542 0.17782 0.17509 0.0
C336 C 0.05163 0.18731 0.15525 0.0
H337 H 0.08989 0.20428 0.05184 0.0
H338 H 0.07038 0.18979 0.08014 0.0
H339 H 0.05034 0.23352 0.12926 0.0
H340 H 0.04467 0.18883 0.22619 0.0
H341 H 0.05132 0.20555 0.19327 0.0
C342 C 0.45617 0.7959 0.70718 0.0
C343 C 0.46044 0.81669 0.71257 0.0
C344 C 0.45099 0.79081 0.68701 0.0
C345 C 0.42915 0.81555 0.64117 0.0
H346 H 0.44182 0.76259 0.61534 0.0
C347 C 0.39866 0.79527 0.56129 0.0
C348 C 0.38945 0.77557 0.55977 0.0
C349 C 0.41076 0.80012 0.57814 0.0
C350 C 0.43815 0.77743 0.62239 0.0
H351 H 0.46393 0.84821 0.7008 0.0
H352 H 0.45538 0.83927 0.6656 0.0
H353 H 0.45717 0.77148 0.64826 0.0
H354 H 0.3865 0.74515 0.57422 0.0
H355 H 0.40749 0.75369 0.60366 0.0
H356 H 0.4099 0.82138 0.61558 0.0
C357 C 0.45546 0.82697 0.67703 0.0
C358 C 0.4469 0.78251 0.64125 0.0
C359 C 0.46046 0.83208 0.69719 0.0
C360 C 0.39334 0.7605 0.57496 0.0
C361 C 0.40547 0.76535 0.59178 0.0
C362 C 0.4205 0.81052 0.62233 0.0
C363 C 0.45013 0.80639 0.67179 0.0
C364 C 0.44229 0.80153 0.65099 0.0
C365 C 0.41395 0.78536 0.59378 0.0
C366 C 0.42468 0.7913 0.61285 0.0
H367 H 0.45601 0.78369 0.71868 0.0
H368 H 0.44681 0.77483 0.68357 0.0
H369 H 0.42492 0.83014 0.64839 0.0
H370 H 0.39609 0.80718 0.54978 0.0
H371 H 0.41733 0.81559 0.57913 0.0
C372 C 0.51851 0.32323 0.7951 0.0
C373 C 0.5227 0.30929 0.779 0.0
C374 C 0.52303 0.31788 0.81533 0.0
C375 C 0.53833 0.274 0.84948 0.0
H376 H 0.56643 0.31795 0.87872 0.0
C377 C 0.59304 0.25868 0.91646 0.0
C378 C 0.594 0.27329 0.93253 0.0
C379 C 0.58061 0.2622 0.89955 0.0
C380 C 0.55829 0.30559 0.87099 0.0
H381 H 0.53385 0.27833 0.77166 0.0
H382 H 0.54209 0.26914 0.80693 0.0
H383 H 0.55105 0.32553 0.8458 0.0
H384 H 0.58188 0.30256 0.94389 0.0
H385 H 0.56008 0.30863 0.91439 0.0
H386 H 0.54625 0.25391 0.87452 0.0
C387 C 0.53509 0.28412 0.80396 0.0
C388 C 0.54943 0.30994 0.85207 0.0
C389 C 0.53045 0.28943 0.7837 0.0
C390 C 0.58161 0.29107 0.93171 0.0
C391 C 0.56918 0.29459 0.91477 0.0
C392 C 0.54725 0.26963 0.86843 0.0
C393 C 0.53196 0.29853 0.81994 0.0
C394 C 0.53958 0.29414 0.84094 0.0
C395 C 0.56886 0.28041 0.89831 0.0
C396 C 0.55759 0.28532 0.87924 0.0
H397 H 0.51232 0.33857 0.79202 0.0
H398 H 0.52002 0.32916 0.82733 0.0
H399 H 0.53063 0.26155 0.84142 0.0
H400 H 0.60235 0.24478 0.91662 0.0
H401 H 0.58087 0.25106 0.88704 0.0
C402 C 0.91029 0.69099 0.27611 0.0
C403 C 0.9278 0.67961 0.27157 0.0
C404 C 0.90702 0.69879 0.29582 0.0
C405 C 0.92112 0.68827 0.34932 0.0
H406 H 0.89138 0.73937 0.35933 0.0
C407 C 0.87645 0.70259 0.42355 0.0
C408 C 0.87477 0.72304 0.43116 0.0
C409 C 0.8864 0.69873 0.40506 0.0
C410 C 0.89998 0.72521 0.3569 0.0
H411 H 0.95614 0.66842 0.28391 0.0
H412 H 0.95055 0.68231 0.31828 0.0
H413 H 0.90289 0.73136 0.32478 0.0
H414 H 0.88309 0.7554 0.42584 0.0
H415 H 0.90077 0.74861 0.39375 0.0
H416 H 0.91823 0.68212 0.38144 0.0
C417 C 0.93916 0.68486 0.30668 0.0
C418 C 0.90637 0.7205 0.33702 0.0
C419 C 0.94241 0.67701 0.28694 0.0
C420 C 0.88399 0.73946 0.42032 0.0
C421 C 0.89402 0.73559 0.40186 0.0
C422 C 0.9148 0.69302 0.36921 0.0
C423 C 0.92123 0.69546 0.31146 0.0
C424 C 0.91661 0.70174 0.33291 0.0
C425 C 0.89501 0.71523 0.39381 0.0
C426 C 0.90376 0.71132 0.37317 0.0
H427 H 0.89872 0.69329 0.26463 0.0
H428 H 0.89293 0.70665 0.299 0.0
H429 H 0.92884 0.6736 0.3467 0.0
H430 H 0.86949 0.68958 0.43149 0.0
H431 H 0.88662 0.6829 0.39921 0.0
C432 C 0.2334 0.06109 0.19 0.0
C433 C 0.24128 0.04239 0.18209 0.0
C434 C 0.21448 0.06141 0.1993 0.0
C435 C 0.17717 0.05697 0.22555 0.0
H436 H 0.13488 0.02713 0.19692 0.0
C437 C 0.0945 0.06574 0.24988 0.0
C438 C 0.08111 0.06986 0.23368 0.0
C439 C 0.11383 0.05813 0.2459 0.0
C440 C 0.14652 0.03553 0.20511 0.0
H441 H 0.23583 0.00913 0.17857 0.0
H442 H 0.20286 0.00967 0.19504 0.0
H443 H 0.16975 0.02274 0.18621 0.0
H444 H 0.07711 0.06801 0.20072 0.0
H445 H 0.1108 0.05505 0.19378 0.0
H446 H 0.15389 0.07064 0.24373 0.0
C447 C 0.2112 0.02415 0.19373 0.0
C448 C 0.16654 0.03283 0.19913 0.0
C449 C 0.23014 0.02384 0.1844 0.0
C450 C 0.08705 0.06505 0.21356 0.0
C451 C 0.10637 0.05749 0.20958 0.0
C452 C 0.15715 0.0597 0.23151 0.0
C453 C 0.20299 0.04301 0.20096 0.0
C454 C 0.18206 0.0439 0.20897 0.0
C455 C 0.12018 0.05448 0.22565 0.0
C456 C 0.14154 0.04938 0.22105 0.0
H457 H 0.24157 0.07566 0.18847 0.0
H458 H 0.20853 0.07626 0.20446 0.0
H459 H 0.18879 0.06549 0.23365 0.0
H460 H 0.09035 0.06913 0.26559 0.0
H461 H 0.12397 0.05562 0.25866 0.0
C462 C 0.40194 0.89272 0.77566 0.0
C463 C 0.41756 0.9 0.76297 0.0
C464 C 0.38306 0.90227 0.77529 0.0
C465 C 0.35526 0.94938 0.75835 0.0
H466 H 0.31115 0.91041 0.75113 0.0
C467 C 0.28024 0.97176 0.72023 0.0
C468 C 0.26259 0.96109 0.72584 0.0
C469 C 0.29865 0.96664 0.72924 0.0
C470 C 0.32314 0.92159 0.75361 0.0
H471 H 0.42589 0.9237 0.74073 0.0
H472 H 0.39285 0.94031 0.74002 0.0
H473 H 0.34456 0.89724 0.75873 0.0
H474 H 0.25015 0.93781 0.74644 0.0
H475 H 0.28221 0.9292 0.76251 0.0
H476 H 0.33384 0.97372 0.75281 0.0
C477 C 0.39526 0.92727 0.75033 0.0
C478 C 0.34236 0.914 0.75791 0.0
C479 C 0.41416 0.91766 0.75064 0.0
C480 C 0.26351 0.94616 0.74162 0.0
C481 C 0.28192 0.94114 0.75074 0.0
C482 C 0.33597 0.957 0.75416 0.0
C483 C 0.37938 0.91935 0.76229 0.0
C484 C 0.35871 0.92777 0.75994 0.0
C485 C 0.29981 0.95083 0.74418 0.0
C486 C 0.31975 0.94316 0.75131 0.0
H487 H 0.40408 0.87923 0.78547 0.0
H488 H 0.3712 0.896 0.7849 0.0
H489 H 0.36754 0.96037 0.7601 0.0
H490 H 0.28007 0.98337 0.70813 0.0
H491 H 0.3121 0.9743 0.72364 0.0
C492 C 0.71834 0.45013 0.76624 0.0
C493 C 0.73229 0.43379 0.76869 0.0
C494 C 0.69852 0.44584 0.76038 0.0
C495 C 0.66201 0.40413 0.76614 0.0
H496 H 0.62893 0.43568 0.72814 0.0
C497 C 0.57651 0.39445 0.76499 0.0
C498 C 0.56827 0.38973 0.7457 0.0
C499 C 0.5961 0.40216 0.76657 0.0
C500 C 0.63804 0.42677 0.73879 0.0
H501 H 0.73679 0.40035 0.76537 0.0
H502 H 0.70225 0.39295 0.75525 0.0
H503 H 0.6649 0.44386 0.73138 0.0
H504 H 0.57364 0.39071 0.71288 0.0
H505 H 0.60786 0.40437 0.71571 0.0
H506 H 0.63534 0.38713 0.7737 0.0
C507 C 0.70658 0.40901 0.75811 0.0
C508 C 0.65854 0.43148 0.74067 0.0
C509 C 0.72639 0.41329 0.76383 0.0
C510 C 0.57959 0.3941 0.72797 0.0
C511 C 0.59915 0.40199 0.72957 0.0
C512 C 0.64157 0.39963 0.76446 0.0
C513 C 0.6923 0.42515 0.75699 0.0
C514 C 0.67071 0.4201 0.75431 0.0
C515 C 0.60778 0.40549 0.74891 0.0
C516 C 0.62936 0.41089 0.7508 0.0
H517 H 0.72244 0.46611 0.76977 0.0
H518 H 0.68779 0.45857 0.75965 0.0
H519 H 0.67097 0.39531 0.77699 0.0
H520 H 0.56817 0.39137 0.77894 0.0
H521 H 0.60232 0.405 0.78166 0.0
C522 C 0.89688 0.58407 0.23521 0.0
C523 C 0.91034 0.59042 0.25062 0.0
C524 C 0.88031 0.57155 0.24 0.0
C525 C 0.85775 0.53847 0.28096 0.0
H526 H 0.80734 0.55844 0.25833 0.0
C527 C 0.78114 0.50466 0.30668 0.0
C528 C 0.76675 0.51989 0.31181 0.0
C529 C 0.79859 0.51022 0.29597 0.0
C530 C 0.8213 0.55263 0.26473 0.0
H531 H 0.91751 0.58777 0.28296 0.0
H532 H 0.88846 0.56625 0.29138 0.0
H533 H 0.83892 0.57317 0.24617 0.0
H534 H 0.759 0.55272 0.30898 0.0
H535 H 0.78935 0.56238 0.29053 0.0
H536 H 0.83999 0.51873 0.30032 0.0
C537 C 0.89081 0.57071 0.27554 0.0
C538 C 0.83943 0.5609 0.2576 0.0
C539 C 0.90741 0.58318 0.27073 0.0
C540 C 0.7698 0.5406 0.30533 0.0
C541 C 0.78715 0.54612 0.2946 0.0
C542 C 0.83959 0.53021 0.28811 0.0
C543 C 0.87682 0.56515 0.26031 0.0
C544 C 0.85785 0.55429 0.26598 0.0
C545 C 0.8019 0.53108 0.29007 0.0
C546 C 0.82115 0.5376 0.28045 0.0
H547 H 0.89881 0.58924 0.21951 0.0
H548 H 0.86999 0.56725 0.22786 0.0
H549 H 0.8717 0.53286 0.28753 0.0
H550 H 0.7792 0.48855 0.3114 0.0
H551 H 0.8096 0.49825 0.29252 0.0
C552 C 0.27501 0.08713 0.09854 0.0
C553 C 0.26171 0.07012 0.10023 0.0
C554 C 0.26917 0.10535 0.08834 0.0
C555 C 0.23113 0.12704 0.05256 0.0
H556 H 0.24153 0.17895 0.08134 0.0
C557 C 0.18485 0.20171 0.0394 0.0
C558 C 0.19446 0.22125 0.04056 0.0
C559 C 0.19541 0.18335 0.04358 0.0
C560 C 0.23882 0.16467 0.07287 0.0
H561 H 0.2321 0.05865 0.09192 0.0
H562 H 0.22185 0.09048 0.07431 0.0
H563 H 0.2558 0.14648 0.09425 0.0
H564 H 0.22295 0.23675 0.04626 0.0
H565 H 0.24145 0.20458 0.05349 0.0
H566 H 0.21371 0.14522 0.03148 0.0
C567 C 0.23688 0.08968 0.08068 0.0
C568 C 0.247 0.14603 0.08028 0.0
C569 C 0.24271 0.07146 0.0909 0.0
C570 C 0.21508 0.22195 0.04532 0.0
C571 C 0.22565 0.20355 0.04956 0.0
C572 C 0.22296 0.1457 0.04513 0.0
C573 C 0.24991 0.10696 0.07958 0.0
C574 C 0.24293 0.12695 0.07044 0.0
C575 C 0.21585 0.18407 0.04904 0.0
C576 C 0.22639 0.16466 0.05545 0.0
H577 H 0.28981 0.08657 0.10546 0.0
H578 H 0.27965 0.11829 0.08751 0.0
H579 H 0.228 0.11265 0.04443 0.0
H580 H 0.16899 0.20058 0.03575 0.0
H581 H 0.18733 0.16866 0.04329 0.0
C582 C 0.75534 0.40486 0.85391 0.0
C583 C 0.76931 0.41968 0.861 0.0
C584 C 0.74679 0.39043 0.86735 0.0
C585 C 0.75318 0.3647 0.91743 0.0
H586 H 0.69619 0.35356 0.91088 0.0
C587 C 0.71276 0.2925 0.95183 0.0
C588 C 0.69258 0.29469 0.95787 0.0
C589 C 0.72304 0.30925 0.94284 0.0
C590 C 0.71205 0.35667 0.91316 0.0
H591 H 0.78556 0.43067 0.88774 0.0
H592 H 0.77043 0.4054 0.91135 0.0
H593 H 0.71227 0.37983 0.88957 0.0
H594 H 0.66779 0.31658 0.96059 0.0
H595 H 0.6858 0.34584 0.94532 0.0
H596 H 0.75284 0.34147 0.94115 0.0
C597 C 0.76623 0.40495 0.89531 0.0
C598 C 0.72133 0.37154 0.90072 0.0
C599 C 0.77483 0.41946 0.88181 0.0
C600 C 0.68326 0.31429 0.95585 0.0
C601 C 0.69355 0.33104 0.947 0.0
C602 C 0.74386 0.34974 0.92992 0.0
C603 C 0.75193 0.39045 0.88824 0.0
C604 C 0.74205 0.37552 0.90248 0.0
C605 C 0.71336 0.32855 0.93983 0.0
C606 C 0.72321 0.34542 0.92778 0.0
H607 H 0.75086 0.40444 0.83795 0.0
H608 H 0.73613 0.37918 0.86133 0.0
H609 H 0.76919 0.36737 0.91909 0.0
H610 H 0.72038 0.2776 0.95319 0.0
H611 H 0.73824 0.30675 0.93737 0.0
C612 C 0.79611 0.6822 0.49511 0.0
C613 C 0.7984 0.69972 0.4823 0.0
C614 C 0.78321 0.66587 0.48953 0.0
C615 C 0.74261 0.65141 0.45255 0.0
H616 H 0.76489 0.59569 0.45821 0.0
C617 C 0.72369 0.58356 0.39855 0.0
C618 C 0.72098 0.56347 0.40681 0.0
C619 C 0.72948 0.60017 0.41106 0.0
C620 C 0.75827 0.6111 0.45685 0.0
H621 H 0.78836 0.71419 0.45399 0.0
H622 H 0.76638 0.68569 0.44409 0.0
H623 H 0.78177 0.62514 0.47447 0.0
H624 H 0.72176 0.54511 0.43476 0.0
H625 H 0.73235 0.57423 0.45666 0.0
H626 H 0.71973 0.63738 0.43396 0.0
C627 C 0.77419 0.68461 0.45862 0.0
C628 C 0.76791 0.628 0.46621 0.0
C629 C 0.78696 0.70093 0.46423 0.0
C630 C 0.72373 0.56043 0.42797 0.0
C631 C 0.72984 0.57704 0.44048 0.0
C632 C 0.7331 0.63453 0.44304 0.0
C633 C 0.7724 0.6667 0.471 0.0
C634 C 0.76051 0.64845 0.4637 0.0
C635 C 0.73294 0.59702 0.43208 0.0
C636 C 0.74113 0.6143 0.44467 0.0
H637 H 0.8046 0.68087 0.50922 0.0
H638 H 0.78197 0.65245 0.49958 0.0
H639 H 0.73624 0.66687 0.45069 0.0
H640 H 0.72159 0.58642 0.38231 0.0
H641 H 0.73198 0.61534 0.40413 0.0
C642 C 0.23802 0.92721 0.62365 0.0
C643 C 0.25238 0.93311 0.63838 0.0
C644 C 0.24241 0.91163 0.60931 0.0
C645 C 0.28507 0.88212 0.58648 0.0
H646 H 0.24404 0.8409 0.5742 0.0
C647 C 0.30305 0.81242 0.53442 0.0
C648 C 0.29637 0.79289 0.54159 0.0
C649 C 0.29542 0.83088 0.54282 0.0
C650 C 0.25568 0.85225 0.57749 0.0
H651 H 0.28262 0.92737 0.64955 0.0
H652 H 0.29007 0.89994 0.62493 0.0
H653 H 0.2359 0.8705 0.59615 0.0
H654 H 0.27566 0.77742 0.56237 0.0
H655 H 0.2628 0.80951 0.57737 0.0
H656 H 0.30518 0.86333 0.56886 0.0
C657 C 0.27559 0.90762 0.62411 0.0
C658 C 0.25094 0.86938 0.58989 0.0
C659 C 0.27125 0.92327 0.63834 0.0
C660 C 0.28113 0.79222 0.5565 0.0
C661 C 0.27365 0.81067 0.56504 0.0
C662 C 0.28984 0.86494 0.57424 0.0
C663 C 0.2612 0.90155 0.60944 0.0
C664 C 0.26569 0.88432 0.59484 0.0
C665 C 0.28112 0.83022 0.5587 0.0
C666 C 0.27531 0.84959 0.56986 0.0
H667 H 0.22337 0.93458 0.62322 0.0
H668 H 0.23108 0.90754 0.59806 0.0
H669 H 0.29671 0.89351 0.58966 0.0
H670 H 0.31462 0.81345 0.52278 0.0
H671 H 0.30117 0.84567 0.53722 0.0
C672 C 0.88862 0.77464 0.92208 0.0
C673 C 0.88134 0.75408 0.92063 0.0
C674 C 0.89967 0.78343 0.90602 0.0
C675 C 0.92736 0.77107 0.85805 0.0
H676 H 0.90946 0.82626 0.84162 0.0
C677 C 0.94115 0.80568 0.77732 0.0
C678 C 0.94436 0.82732 0.77563 0.0
C679 C 0.93675 0.79667 0.79635 0.0
C680 C 0.91495 0.81101 0.84618 0.0
H681 H 0.88076 0.72627 0.90157 0.0
H682 H 0.89984 0.74168 0.87351 0.0
H683 H 0.8962 0.81067 0.87278 0.0
H684 H 0.9466 0.85631 0.79275 0.0
H685 H 0.93926 0.84057 0.8259 0.0
H686 H 0.94581 0.77131 0.83109 0.0
C687 C 0.89717 0.75097 0.88712 0.0
C688 C 0.90733 0.80206 0.86408 0.0
C689 C 0.88612 0.74218 0.90317 0.0
C690 C 0.94398 0.83961 0.79348 0.0
C691 C 0.93968 0.83061 0.81248 0.0
C692 C 0.93502 0.78005 0.84011 0.0
C693 C 0.90369 0.77184 0.88816 0.0
C694 C 0.91325 0.7819 0.8701 0.0
C695 C 0.93556 0.80912 0.81408 0.0
C696 C 0.92871 0.80004 0.83385 0.0
H697 H 0.88532 0.78418 0.93538 0.0
H698 H 0.90476 0.79945 0.90741 0.0
H699 H 0.93238 0.75559 0.86242 0.0
H700 H 0.94134 0.79577 0.76385 0.0
H701 H 0.93348 0.7801 0.797 0.0
C702 C 0.53407 0.19511 0.30003 0.0
C703 C 0.54167 0.2067 0.28343 0.0
C704 C 0.53753 0.2016 0.32016 0.0
C705 C 0.55635 0.24577 0.3521 0.0
H706 H 0.57523 0.20104 0.38732 0.0
C707 C 0.60862 0.25874 0.42137 0.0
C708 C 0.6063 0.24594 0.43874 0.0
C709 C 0.59674 0.25559 0.40399 0.0
C710 C 0.56963 0.2137 0.37788 0.0
H711 H 0.55789 0.23483 0.27493 0.0
H712 H 0.56429 0.24592 0.31002 0.0
H713 H 0.56126 0.19272 0.35393 0.0
H714 H 0.58901 0.22047 0.45186 0.0
H715 H 0.56821 0.21501 0.4215 0.0
H716 H 0.5655 0.26678 0.37591 0.0
C717 C 0.55543 0.23195 0.30752 0.0
C718 C 0.56158 0.20892 0.35869 0.0
C719 C 0.55185 0.22553 0.28737 0.0
C720 C 0.59127 0.2305 0.43867 0.0
C721 C 0.57941 0.22732 0.42126 0.0
C722 C 0.56447 0.25055 0.37131 0.0
C723 C 0.54879 0.21975 0.32416 0.0
C724 C 0.55517 0.22491 0.34541 0.0
C725 C 0.58229 0.23955 0.40358 0.0
C726 C 0.57154 0.23457 0.38425 0.0
H727 H 0.52595 0.18065 0.29751 0.0
H728 H 0.53185 0.19207 0.33262 0.0
H729 H 0.55127 0.25842 0.34235 0.0
H730 H 0.62003 0.27083 0.42093 0.0
H731 H 0.5995 0.26514 0.39056 0.0
C732 C 0.45862 0.66743 0.20276 0.0
C733 C 0.45599 0.682 0.21866 0.0
C734 C 0.45569 0.67329 0.18236 0.0
C735 C 0.44903 0.71895 0.14765 0.0
H736 H 0.4164 0.67998 0.11655 0.0
C737 C 0.40145 0.74248 0.07736 0.0
C738 C 0.39927 0.72805 0.06126 0.0
C739 C 0.41219 0.73716 0.095 0.0
C740 C 0.42584 0.69089 0.12483 0.0
H741 H 0.44916 0.7144 0.22554 0.0
H742 H 0.44366 0.72453 0.18996 0.0
H743 H 0.42843 0.67017 0.15035 0.0
H744 H 0.40758 0.69711 0.05061 0.0
H745 H 0.42645 0.68788 0.08138 0.0
H746 H 0.4458 0.73992 0.12222 0.0
C747 C 0.44824 0.70864 0.19322 0.0
C748 C 0.43277 0.68527 0.14425 0.0
C749 C 0.45129 0.7028 0.21365 0.0
C750 C 0.40884 0.70853 0.06279 0.0
C751 C 0.41958 0.7032 0.08046 0.0
C752 C 0.44205 0.72461 0.12819 0.0
C753 C 0.44994 0.69382 0.17738 0.0
C754 C 0.44421 0.69931 0.15602 0.0
C755 C 0.42099 0.71728 0.09694 0.0
C756 C 0.43014 0.71073 0.11669 0.0
H757 H 0.46248 0.65134 0.20609 0.0
H758 H 0.45753 0.6616 0.1705 0.0
H759 H 0.45804 0.73002 0.15621 0.0
H760 H 0.3943 0.75768 0.07665 0.0
H761 H 0.41283 0.74829 0.10749 0.0
C762 C 0.10964 0.2646 0.56223 0.0
C763 C 0.11561 0.24415 0.55729 0.0
C764 C 0.10044 0.26886 0.58103 0.0
C765 C 0.09789 0.24799 0.63348 0.0
H766 H 0.05926 0.29278 0.64068 0.0
C767 C 0.08953 0.29302 0.709 0.0
C768 C 0.07061 0.30086 0.71472 0.0
C769 C 0.09205 0.28264 0.69037 0.0
C770 C 0.06978 0.27997 0.63898 0.0
H771 H 0.11556 0.21193 0.56772 0.0
H772 H 0.0992 0.21933 0.60038 0.0
H773 H 0.06784 0.2811 0.60624 0.0
H774 H 0.03924 0.30305 0.70579 0.0
H775 H 0.0436 0.28466 0.67329 0.0
H776 H 0.09988 0.24692 0.6662 0.0
C777 C 0.10201 0.23215 0.58991 0.0
C778 C 0.07489 0.27346 0.6192 0.0
C779 C 0.11129 0.2279 0.57113 0.0
C780 C 0.05404 0.29728 0.70179 0.0
C781 C 0.05656 0.28685 0.68311 0.0
C782 C 0.09272 0.25445 0.65324 0.0
C783 C 0.0969 0.25275 0.59528 0.0
C784 C 0.0894 0.25777 0.6162 0.0
C785 C 0.07568 0.27979 0.677 0.0
C786 C 0.07901 0.2709 0.65622 0.0
H787 H 0.11274 0.27748 0.55193 0.0
H788 H 0.09694 0.28495 0.58474 0.0
H789 H 0.10923 0.23597 0.63177 0.0
H790 H 0.10261 0.29549 0.71861 0.0
H791 H 0.10704 0.27766 0.68606 0.0
C792 C 0.77731 0.97675 0.82521 0.0
C793 C 0.75881 0.97607 0.81481 0.0
C794 C 0.79534 0.97379 0.81462 0.0
C795 C 0.81497 0.94741 0.76931 0.0
H796 H 0.86415 0.97684 0.78313 0.0
C797 C 0.89106 0.92176 0.73572 0.0
C798 C 0.9067 0.91992 0.75011 0.0
C799 C 0.87341 0.93252 0.74067 0.0
C800 C 0.85056 0.96845 0.77913 0.0
H801 H 0.74476 0.97251 0.78499 0.0
H802 H 0.77634 0.96724 0.76649 0.0
H803 H 0.83212 0.98875 0.79728 0.0
H804 H 0.91648 0.92882 0.78062 0.0
H805 H 0.88566 0.94722 0.78937 0.0
H806 H 0.83338 0.92661 0.75186 0.0
C807 C 0.77682 0.96996 0.78287 0.0
C808 C 0.83223 0.97529 0.78721 0.0
C809 C 0.75876 0.97306 0.79346 0.0
C810 C 0.90471 0.92991 0.76918 0.0
C811 C 0.88706 0.9406 0.77416 0.0
C812 C 0.8333 0.94053 0.7613 0.0
C813 C 0.79528 0.96999 0.7934 0.0
C814 C 0.8143 0.96455 0.78275 0.0
C815 C 0.87101 0.94163 0.76014 0.0
C816 C 0.85137 0.95067 0.76649 0.0
H817 H 0.77789 0.9791 0.84164 0.0
H818 H 0.80927 0.97365 0.82322 0.0
H819 H 0.80147 0.93865 0.76579 0.0
H820 H 0.89218 0.91438 0.72082 0.0
H821 H 0.86147 0.93332 0.7294 0.0
C822 C 0.57404 0.09624 0.26554 0.0
C823 C 0.57559 0.11284 0.25151 0.0
C824 C 0.59076 0.08376 0.26993 0.0
C825 C 0.6418 0.06943 0.25156 0.0
H826 H 0.65225 0.05965 0.30925 0.0
C827 C 0.72028 0.04889 0.28361 0.0
C828 C 0.72152 0.03568 0.30079 0.0
C829 C 0.70157 0.05489 0.27581 0.0
C830 C 0.64941 0.06185 0.29305 0.0
H831 H 0.59572 0.1289 0.23054 0.0
H832 H 0.62486 0.10729 0.23835 0.0
H833 H 0.62102 0.07635 0.29891 0.0
H834 H 0.70408 0.01737 0.32247 0.0
H835 H 0.67147 0.02759 0.30867 0.0
H836 H 0.67047 0.05532 0.24579 0.0
C837 C 0.61071 0.10377 0.24583 0.0
C838 C 0.63148 0.07146 0.28711 0.0
C839 C 0.59402 0.11626 0.24146 0.0
C840 C 0.70366 0.02773 0.30933 0.0
C841 C 0.68496 0.03368 0.3015 0.0
C842 C 0.65975 0.05978 0.2575 0.0
C843 C 0.60935 0.08758 0.26034 0.0
C844 C 0.62759 0.07565 0.26634 0.0
C845 C 0.68368 0.04774 0.28498 0.0
C846 C 0.66389 0.05616 0.27835 0.0
H847 H 0.56003 0.09311 0.27345 0.0
H848 H 0.58917 0.07123 0.28099 0.0
H849 H 0.63911 0.07218 0.23541 0.0
H850 H 0.73374 0.05528 0.27665 0.0
H851 H 0.70114 0.06588 0.26319 0.0
C852 C 0.39543 0.5988 0.26899 0.0
C853 C 0.41324 0.59362 0.2585 0.0
C854 C 0.37764 0.58786 0.2652 0.0
C855 C 0.35348 0.55823 0.2241 0.0
H856 H 0.31262 0.54745 0.26525 0.0
C857 C 0.27643 0.52631 0.20072 0.0
C858 C 0.25984 0.53691 0.20909 0.0
C859 C 0.2956 0.52888 0.20908 0.0
C860 C 0.32388 0.5504 0.25359 0.0
H861 H 0.42656 0.57214 0.23665 0.0
H862 H 0.39549 0.55293 0.23015 0.0
H863 H 0.34586 0.55979 0.27578 0.0
H864 H 0.25014 0.55757 0.23353 0.0
H865 H 0.28368 0.56239 0.24788 0.0
H866 H 0.33147 0.54959 0.20185 0.0
C867 C 0.39526 0.56568 0.24107 0.0
C868 C 0.3429 0.55745 0.25962 0.0
C869 C 0.41307 0.57663 0.24486 0.0
C870 C 0.26263 0.5492 0.22671 0.0
C871 C 0.28186 0.55188 0.235 0.0
C872 C 0.33451 0.55123 0.21809 0.0
C873 C 0.37724 0.57148 0.25086 0.0
C874 C 0.35781 0.56177 0.24489 0.0
C875 C 0.29865 0.54222 0.22591 0.0
C876 C 0.31936 0.54755 0.23271 0.0
H877 H 0.39504 0.61177 0.27965 0.0
H878 H 0.364 0.59287 0.27284 0.0
H879 H 0.36448 0.56176 0.21233 0.0
H880 H 0.27474 0.5165 0.1873 0.0
H881 H 0.30815 0.52086 0.20198 0.0
C882 C 0.19795 0.48083 0.64651 0.0
C883 C 0.21583 0.46911 0.64663 0.0
C884 C 0.18146 0.47456 0.65835 0.0
C885 C 0.16625 0.43821 0.70044 0.0
H886 H 0.11441 0.43999 0.67329 0.0
C887 C 0.0865 0.39104 0.70227 0.0
C888 C 0.08402 0.38849 0.7235 0.0
C889 C 0.10136 0.40432 0.69456 0.0
C890 C 0.12878 0.4393 0.68108 0.0
H891 H 0.23064 0.44202 0.65983 0.0
H892 H 0.20189 0.43087 0.67993 0.0
H893 H 0.14332 0.4566 0.65727 0.0
H894 H 0.09461 0.39857 0.75336 0.0
H895 H 0.12024 0.42219 0.73992 0.0
H896 H 0.15203 0.41976 0.72358 0.0
C897 C 0.20061 0.44511 0.67107 0.0
C898 C 0.14533 0.44912 0.67203 0.0
C899 C 0.2171 0.45144 0.65937 0.0
C900 C 0.09626 0.40007 0.7369 0.0
C901 C 0.11102 0.41353 0.72919 0.0
C902 C 0.14975 0.42822 0.70939 0.0
C903 C 0.18246 0.45639 0.67047 0.0
C904 C 0.16439 0.44829 0.68136 0.0
C905 C 0.11399 0.41555 0.70792 0.0
C906 C 0.1309 0.42824 0.6996 0.0
H907 H 0.19655 0.49461 0.63697 0.0
H908 H 0.16782 0.48381 0.65778 0.0
H909 H 0.18061 0.43758 0.70826 0.0
H910 H 0.07737 0.38228 0.69152 0.0
H911 H 0.10339 0.40516 0.67811 0.0
C912 C 0.79423 0.77846 0.95521 0.0
C913 C 0.7971 0.76647 0.93739 0.0
C914 C 0.78435 0.79774 0.95422 0.0
C915 C 0.75223 0.83077 0.92057 0.0
H916 H 0.77886 0.8768 0.9481 0.0
C917 C 0.72629 0.91547 0.90788 0.0
C918 C 0.74185 0.92969 0.90352 0.0
C919 C 0.73062 0.89584 0.91619 0.0
C920 C 0.77122 0.86411 0.94034 0.0
H921 H 0.79113 0.7649 0.90473 0.0
H922 H 0.77419 0.79848 0.90295 0.0
H923 H 0.79031 0.84114 0.95409 0.0
H924 H 0.77405 0.93486 0.90549 0.0
H925 H 0.78163 0.90058 0.91962 0.0
H926 H 0.73389 0.85378 0.90593 0.0
C927 C 0.77934 0.79298 0.91775 0.0
C928 C 0.77763 0.84363 0.94397 0.0
C929 C 0.78919 0.77375 0.91874 0.0
C930 C 0.7617 0.92427 0.90863 0.0
C931 C 0.76604 0.90463 0.91687 0.0
C932 C 0.74586 0.85123 0.91691 0.0
C933 C 0.77711 0.80538 0.93539 0.0
C934 C 0.76853 0.82677 0.93372 0.0
C935 C 0.7506 0.88998 0.92028 0.0
C936 C 0.75561 0.86819 0.92637 0.0
H937 H 0.80007 0.77324 0.96985 0.0
H938 H 0.78265 0.80681 0.96813 0.0
H939 H 0.74471 0.8181 0.91267 0.0
H940 H 0.7108 0.91923 0.90427 0.0
H941 H 0.71834 0.88507 0.91896 0.0
C942 C 0.24996 0.6042 0.13454 0.0
C943 C 0.23955 0.58616 0.12838 0.0
C944 C 0.25446 0.6199 0.12043 0.0
C945 C 0.26344 0.62902 0.06605 0.0
H946 H 0.2586 0.68724 0.08187 0.0
C947 C 0.31164 0.69509 0.03214 0.0
C948 C 0.30321 0.71511 0.02988 0.0
C949 C 0.30036 0.67878 0.0405 0.0
C950 C 0.25973 0.67109 0.07703 0.0
H951 H 0.22563 0.57045 0.10255 0.0
H952 H 0.23378 0.59793 0.07773 0.0
H953 H 0.24512 0.66008 0.10422 0.0
H954 H 0.27594 0.73337 0.03345 0.0
H955 H 0.25623 0.7048 0.04814 0.0
H956 H 0.27857 0.64005 0.03911 0.0
C957 C 0.23838 0.59984 0.09355 0.0
C958 C 0.25221 0.65554 0.08994 0.0
C959 C 0.23369 0.58417 0.10775 0.0
C960 C 0.2829 0.71815 0.03509 0.0
C961 C 0.27164 0.70183 0.04358 0.0
C962 C 0.27109 0.64459 0.05318 0.0
C963 C 0.24878 0.61788 0.09978 0.0
C964 C 0.25443 0.63433 0.08484 0.0
C965 C 0.28042 0.68213 0.04686 0.0
C966 C 0.26973 0.66577 0.05877 0.0
H967 H 0.25467 0.60624 0.15032 0.0
H968 H 0.26277 0.63347 0.12562 0.0
H969 H 0.26541 0.61279 0.06176 0.0
H970 H 0.32722 0.69219 0.02817 0.0
H971 H 0.30763 0.66384 0.04299 0.0
C972 C 0.28182 0.40011 0.56263 0.0
C973 C 0.26958 0.41738 0.5673 0.0
C974 C 0.27396 0.38303 0.55192 0.0
C975 C 0.22524 0.3575 0.54334 0.0
H976 H 0.25515 0.32261 0.50547 0.0
C977 C 0.18924 0.28436 0.50897 0.0
C978 C 0.20089 0.26606 0.50975 0.0
C979 C 0.19806 0.30386 0.51225 0.0
C980 C 0.24666 0.33219 0.51608 0.0
H981 H 0.23996 0.43096 0.5631 0.0
H982 H 0.2264 0.40141 0.54411 0.0
H983 H 0.26991 0.35537 0.51769 0.0
H984 H 0.23115 0.25396 0.51351 0.0
H985 H 0.24653 0.28806 0.51957 0.0
H986 H 0.20221 0.33429 0.54219 0.0
C987 C 0.24191 0.40078 0.54918 0.0
C988 C 0.2551 0.35093 0.52307 0.0
C989 C 0.24971 0.41777 0.55998 0.0
C990 C 0.22175 0.26777 0.51285 0.0
C991 C 0.23059 0.28732 0.51623 0.0
C992 C 0.21683 0.33887 0.53636 0.0
C993 C 0.25373 0.38294 0.54559 0.0
C994 C 0.24451 0.36373 0.5369 0.0
C995 C 0.21873 0.30552 0.51649 0.0
C996 C 0.22746 0.32591 0.52276 0.0
H997 H 0.2972 0.39934 0.56805 0.0
H998 H 0.28344 0.36949 0.54953 0.0
H999 H 0.21685 0.36669 0.55435 0.0
H1000 H 0.17315 0.28362 0.50637 0.0
H1001 H 0.18858 0.31763 0.51193 0.0
C1002 C 0.71672 0.20808 0.46084 0.0
C1003 C 0.69758 0.2108 0.46961 0.0
C1004 C 0.72343 0.18814 0.45534 0.0
C1005 C 0.70283 0.13702 0.44062 0.0
H1006 H 0.7586 0.11937 0.44278 0.0
C1007 C 0.72738 0.05754 0.4082 0.0
C1008 C 0.74434 0.05805 0.39534 0.0
C1009 C 0.72269 0.07465 0.42061 0.0
C1010 C 0.74297 0.12412 0.44204 0.0
H1011 H 0.67103 0.19461 0.48071 0.0
H1012 H 0.68288 0.15987 0.47146 0.0
H1013 H 0.74861 0.15226 0.4589 0.0
H1014 H 0.77017 0.07658 0.3861 0.0
H1015 H 0.76185 0.10647 0.40757 0.0
H1016 H 0.69722 0.10924 0.42341 0.0
C1017 C 0.69251 0.17317 0.46836 0.0
C1018 C 0.73726 0.14295 0.45125 0.0
C1019 C 0.68576 0.19308 0.47376 0.0
C1020 C 0.75696 0.07569 0.39579 0.0
C1021 C 0.75227 0.09279 0.40821 0.0
C1022 C 0.70853 0.11823 0.43147 0.0
C1023 C 0.71119 0.17051 0.45859 0.0
C1024 C 0.71716 0.14974 0.45042 0.0
C1025 C 0.73486 0.09263 0.42046 0.0
C1026 C 0.7287 0.11169 0.43182 0.0
H1027 H 0.7262 0.22141 0.45745 0.0
H1028 H 0.73783 0.18669 0.4477 0.0
H1029 H 0.6873 0.14195 0.43933 0.0
H1030 H 0.71743 0.04413 0.40833 0.0
H1031 H 0.70933 0.07394 0.43011 0.0
C1032 C 0.12158 0.19933 0.4507 0.0
C1033 C 0.14233 0.20353 0.45114 0.0
C1034 C 0.11217 0.19353 0.43243 0.0
C1035 C 0.11829 0.19441 0.37607 0.0
H1036 H 0.08014 0.14856 0.37762 0.0
C1037 C 0.09133 0.15116 0.30345 0.0
C1038 C 0.07112 0.14473 0.30258 0.0
C1039 C 0.09913 0.16006 0.32131 0.0
C1040 C 0.09052 0.1616 0.37696 0.0
H1041 H 0.16945 0.20513 0.43268 0.0
H1042 H 0.15306 0.19479 0.40083 0.0
H1043 H 0.09551 0.16071 0.40934 0.0
H1044 H 0.04308 0.14322 0.31957 0.0
H1045 H 0.05668 0.15892 0.3507 0.0
H1046 H 0.11345 0.1951 0.34362 0.0
C1047 C 0.14402 0.19623 0.41457 0.0
C1048 C 0.09935 0.16855 0.39514 0.0
C1049 C 0.15343 0.20202 0.43286 0.0
C1050 C 0.05875 0.1479 0.31978 0.0
C1051 C 0.06656 0.15679 0.33765 0.0
C1052 C 0.10945 0.18745 0.35787 0.0
C1053 C 0.1233 0.1918 0.41418 0.0
C1054 C 0.11343 0.18495 0.3949 0.0
C1055 C 0.0869 0.16272 0.3387 0.0
C1056 C 0.09557 0.17087 0.3581 0.0
H1057 H 0.11257 0.20044 0.4645 0.0
H1058 H 0.09614 0.19049 0.43257 0.0
H1059 H 0.12885 0.20729 0.37542 0.0
H1060 H 0.10127 0.14894 0.29047 0.0
H1061 H 0.11491 0.16425 0.32169 0.0
C1062 C 0.38886 0.75712 0.95673 0.0
C1063 C 0.36783 0.75507 0.95775 0.0
C1064 C 0.39847 0.75987 0.93789 0.0
C1065 C 0.39148 0.75572 0.88159 0.0
H1066 H 0.43151 0.79981 0.88024 0.0
C1067 C 0.41517 0.79919 0.80794 0.0
C1068 C 0.43506 0.80648 0.80627 0.0
C1069 C 0.40874 0.78889 0.82565 0.0
C1070 C 0.42068 0.78715 0.88037 0.0
H1071 H 0.34045 0.75362 0.93972 0.0
H1072 H 0.35721 0.75879 0.90683 0.0
H1073 H 0.41677 0.7895 0.91278 0.0
H1074 H 0.46419 0.80731 0.82125 0.0
H1075 H 0.45302 0.78909 0.85207 0.0
H1076 H 0.39508 0.75384 0.84899 0.0
C1077 C 0.3663 0.75801 0.92059 0.0
C1078 C 0.41219 0.78126 0.89905 0.0
C1079 C 0.35667 0.75519 0.93946 0.0
C1080 C 0.44871 0.80209 0.82214 0.0
C1081 C 0.44228 0.79175 0.83985 0.0
C1082 C 0.4 0.76164 0.86285 0.0
C1083 C 0.38728 0.76071 0.91964 0.0
C1084 C 0.3973 0.76568 0.89987 0.0
C1085 C 0.42208 0.7856 0.84206 0.0
C1086 C 0.41449 0.77763 0.86201 0.0
H1087 H 0.39793 0.75688 0.97053 0.0
H1088 H 0.41469 0.76156 0.93765 0.0
H1089 H 0.38024 0.74346 0.88176 0.0
H1090 H 0.40429 0.80224 0.79595 0.0
H1091 H 0.39305 0.7845 0.8269 0.0
C1092 C 0.64966 0.26606 0.55973 0.0
C1093 C 0.63983 0.26647 0.54066 0.0
C1094 C 0.63886 0.26935 0.57785 0.0
C1095 C 0.5918 0.2933 0.59647 0.0
H1096 H 0.60368 0.26294 0.64651 0.0
C1097 C 0.54565 0.30685 0.6696 0.0
C1098 C 0.55699 0.31034 0.68746 0.0
C1099 C 0.55475 0.2986 0.65207 0.0
C1100 C 0.60025 0.27158 0.63266 0.0
H1101 H 0.61086 0.27005 0.5257 0.0
H1102 H 0.59206 0.27548 0.55723 0.0
H1103 H 0.62178 0.25436 0.61498 0.0
H1104 H 0.58649 0.30678 0.70129 0.0
H1105 H 0.60235 0.29252 0.67067 0.0
H1106 H 0.57048 0.31066 0.6141 0.0
C1107 C 0.60816 0.27304 0.5582 0.0
C1108 C 0.61065 0.26671 0.61463 0.0
C1109 C 0.61894 0.26984 0.54012 0.0
C1110 C 0.57734 0.30437 0.68775 0.0
C1111 C 0.58642 0.29608 0.67023 0.0
C1112 C 0.5814 0.2981 0.61444 0.0
C1113 C 0.618 0.27305 0.57727 0.0
C1114 C 0.60662 0.27762 0.59635 0.0
C1115 C 0.57535 0.29362 0.65204 0.0
C1116 C 0.58558 0.2874 0.63276 0.0
H1117 H 0.66574 0.2635 0.56066 0.0
H1118 H 0.64694 0.2695 0.59227 0.0
H1119 H 0.58858 0.30228 0.58278 0.0
H1120 H 0.5299 0.31114 0.66891 0.0
H1121 H 0.54575 0.29655 0.63837 0.0
C1122 C 0.88952 0.66158 0.16905 0.0
C1123 C 0.91025 0.66143 0.17329 0.0
C1124 C 0.88238 0.66898 0.15029 0.0
C1125 C 0.89794 0.67616 0.09691 0.0
H1126 H 0.84915 0.70917 0.09311 0.0
C1127 C 0.86743 0.70597 0.0194 0.0
C1128 C 0.84653 0.70462 0.01635 0.0
C1129 C 0.87573 0.70232 0.03875 0.0
C1130 C 0.8627 0.6998 0.09391 0.0
H1131 H 0.93973 0.66942 0.16134 0.0
H1132 H 0.92721 0.68236 0.12846 0.0
H1133 H 0.86289 0.70045 0.12673 0.0
H1134 H 0.81795 0.69842 0.03124 0.0
H1135 H 0.83247 0.6917 0.06491 0.0
H1136 H 0.89756 0.67511 0.06414 0.0
C1137 C 0.91652 0.67659 0.13966 0.0
C1138 C 0.87059 0.69486 0.11316 0.0
C1139 C 0.92367 0.66928 0.15851 0.0
C1140 C 0.83411 0.69963 0.03308 0.0
C1141 C 0.84242 0.69592 0.05243 0.0
C1142 C 0.89002 0.68104 0.07766 0.0
C1143 C 0.89581 0.67632 0.13528 0.0
C1144 C 0.88819 0.68281 0.11487 0.0
C1145 C 0.86333 0.69718 0.05547 0.0
C1146 C 0.8722 0.69275 0.07593 0.0
H1147 H 0.87877 0.65568 0.18012 0.0
H1148 H 0.86636 0.66836 0.1473 0.0
H1149 H 0.91136 0.66659 0.09773 0.0
H1150 H 0.87742 0.7099 0.00686 0.0
H1151 H 0.89186 0.70369 0.04062 0.0
C1152 C 0.3514 0.05206 0.17362 0.0
C1153 C 0.35118 0.03982 0.15572 0.0
C1154 C 0.36934 0.061 0.18058 0.0
C1155 C 0.41908 0.07741 0.16149 0.0
H1156 H 0.43222 0.08228 0.21922 0.0
C1157 C 0.49524 0.10989 0.18901 0.0
C1158 C 0.49482 0.12403 0.20548 0.0
C1159 C 0.47799 0.09876 0.18353 0.0
C1160 C 0.42866 0.08119 0.20305 0.0
H1161 H 0.36975 0.02659 0.13164 0.0
H1162 H 0.40103 0.04189 0.14396 0.0
H1163 H 0.40173 0.06376 0.20887 0.0
H1164 H 0.47597 0.13744 0.22925 0.0
H1165 H 0.4458 0.1181 0.21956 0.0
H1166 H 0.4459 0.09489 0.15564 0.0
C1167 C 0.38729 0.04497 0.15237 0.0
C1168 C 0.4112 0.07058 0.19712 0.0
C1169 C 0.36937 0.03609 0.14538 0.0
C1170 C 0.4768 0.12667 0.21647 0.0
C1171 C 0.45954 0.11549 0.21102 0.0
C1172 C 0.43651 0.08797 0.1674 0.0
C1173 C 0.38743 0.05783 0.16983 0.0
C1174 C 0.4062 0.0686 0.17627 0.0
C1175 C 0.45993 0.10148 0.19442 0.0
C1176 C 0.44149 0.09001 0.18824 0.0
H1177 H 0.33764 0.05525 0.18194 0.0
H1178 H 0.36889 0.07096 0.19399 0.0
H1179 H 0.41547 0.07655 0.14532 0.0
H1180 H 0.5089 0.10741 0.18027 0.0
H1181 H 0.47884 0.08788 0.17084 0.0
C1182 C 0.01129 0.905 0.71757 0.0
C1183 C 0.00845 0.88323 0.71681 0.0
C1184 C 0.03033 0.91364 0.7143 0.0
C1185 C 0.07437 0.92651 0.71785 0.0
H1186 H 0.10598 0.90542 0.67235 0.0
C1187 C 0.15675 0.95197 0.70192 0.0
C1188 C 0.16162 0.95606 0.68132 0.0
C1189 C 0.13814 0.94317 0.70705 0.0
C1190 C 0.09729 0.91153 0.68506 0.0
H1191 H 0.02342 0.85347 0.71222 0.0
H1192 H 0.05665 0.86858 0.70648 0.0
H1193 H 0.07333 0.88984 0.6799 0.0
H1194 H 0.15065 0.95441 0.65001 0.0
H1195 H 0.11829 0.93916 0.65899 0.0
H1196 H 0.09826 0.94844 0.72276 0.0
C1197 C 0.0441 0.87895 0.70947 0.0
C1198 C 0.0787 0.90246 0.68952 0.0
C1199 C 0.02508 0.8703 0.71284 0.0
C1200 C 0.14742 0.9514 0.66602 0.0
C1201 C 0.12891 0.94254 0.67114 0.0
C1202 C 0.09305 0.93552 0.71345 0.0
C1203 C 0.04691 0.90071 0.7101 0.0
C1204 C 0.06697 0.90994 0.70587 0.0
C1205 C 0.12412 0.93817 0.69168 0.0
C1206 C 0.10462 0.92823 0.69689 0.0
H1207 H -0.00121 0.9154 0.72061 0.0
H1208 H 0.03199 0.93048 0.71465 0.0
H1209 H 0.06574 0.93247 0.73066 0.0
H1210 H 0.16737 0.95538 0.71406 0.0
H1211 H 0.1349 0.93986 0.72301 0.0
C1212 C 0.97432 0.36286 0.74158 0.0
C1213 C 0.99031 0.36455 0.75558 0.0
C1214 C 0.95564 0.37192 0.74593 0.0
C1215 C 0.92519 0.39181 0.78927 0.0
H1216 H 0.89529 0.42081 0.74685 0.0
C1217 C 0.85782 0.44439 0.80828 0.0
C1218 C 0.84046 0.44196 0.79623 0.0
C1219 C 0.87589 0.43499 0.80248 0.0
C1220 C 0.90339 0.4126 0.7588 0.0
H1221 H -0.00071 0.37729 0.78503 0.0
H1222 H 0.96697 0.39331 0.79243 0.0
H1223 H 0.9272 0.40392 0.73836 0.0
H1224 H 0.82859 0.42824 0.76832 0.0
H1225 H 0.86027 0.41184 0.75817 0.0
H1226 H 0.90155 0.40068 0.80974 0.0
C1227 C 0.96867 0.38465 0.77827 0.0
C1228 C 0.92164 0.40289 0.75394 0.0
C1229 C 0.98726 0.37555 0.77396 0.0
C1230 C 0.8417 0.43039 0.77795 0.0
C1231 C 0.85984 0.42106 0.77209 0.0
C1232 C 0.90705 0.40159 0.79413 0.0
C1233 C 0.95261 0.3829 0.76436 0.0
C1234 C 0.93283 0.39253 0.76918 0.0
C1235 C 0.87704 0.42303 0.78447 0.0
C1236 C 0.89604 0.41223 0.779 0.0
H1237 H 0.97617 0.35445 0.72729 0.0
H1238 H 0.94352 0.3701 0.73499 0.0
H1239 H 0.93319 0.38359 0.80128 0.0
H1240 H 0.85742 0.45327 0.8224 0.0
H1241 H 0.88898 0.43706 0.81216 0.0
C1242 C 0.51207 0.60712 0.29809 0.0
C1243 C 0.51085 0.61325 0.27743 0.0
C1244 C 0.52921 0.59702 0.3055 0.0
C1245 C 0.57425 0.5675 0.28891 0.0
H1246 H 0.59437 0.58321 0.34254 0.0
C1247 C 0.65265 0.54334 0.31953 0.0
C1248 C 0.65397 0.53765 0.34032 0.0
C1249 C 0.63469 0.55121 0.31151 0.0
C1250 C 0.5888 0.57846 0.32765 0.0
H1251 H 0.52664 0.6135 0.24832 0.0
H1252 H 0.55672 0.59618 0.26134 0.0
H1253 H 0.56419 0.59988 0.32917 0.0
H1254 H 0.63727 0.53514 0.36882 0.0
H1255 H 0.60594 0.5488 0.35478 0.0
H1256 H 0.59913 0.54626 0.28735 0.0
C1257 C 0.54429 0.59889 0.27174 0.0
C1258 C 0.57149 0.588 0.31998 0.0
C1259 C 0.5271 0.60894 0.26431 0.0
C1260 C 0.6368 0.53947 0.35276 0.0
C1261 C 0.61888 0.54741 0.34476 0.0
C1262 C 0.59164 0.55799 0.29656 0.0
C1263 C 0.54557 0.59289 0.29245 0.0
C1264 C 0.56399 0.58263 0.30053 0.0
C1265 C 0.61771 0.55363 0.32413 0.0
C1266 C 0.59907 0.56336 0.31603 0.0
H1267 H 0.49977 0.61007 0.30859 0.0
H1268 H 0.52956 0.59231 0.32145 0.0
H1269 H 0.56872 0.56279 0.27399 0.0
H1270 H 0.66561 0.54211 0.30953 0.0
H1271 H 0.6343 0.55602 0.29559 0.0
C1272 C 0.17338 0.32856 0.06184 0.0
C1273 C 0.17031 0.31097 0.07437 0.0
C1274 C 0.17935 0.3476 0.07037 0.0
C1275 C 0.20162 0.37154 0.11676 0.0
H1276 H 0.17372 0.42119 0.09792 0.0
C1277 C 0.20536 0.45038 0.15977 0.0
C1278 C 0.20678 0.46864 0.14788 0.0
C1279 C 0.20201 0.43102 0.15045 0.0
C1280 C 0.18185 0.40753 0.10317 0.0
H1281 H 0.17167 0.29941 0.10563 0.0
H1282 H 0.18191 0.33268 0.12052 0.0
H1283 H 0.16638 0.38756 0.08214 0.0
H1284 H 0.20604 0.48088 0.11684 0.0
H1285 H 0.20037 0.4471 0.10061 0.0
H1286 H 0.21695 0.39154 0.13793 0.0
C1287 C 0.17987 0.33172 0.10408 0.0
C1288 C 0.17765 0.38825 0.09411 0.0
C1289 C 0.17389 0.31267 0.09554 0.0
C1290 C 0.20493 0.46712 0.12646 0.0
C1291 C 0.20158 0.44777 0.11715 0.0
C1292 C 0.20582 0.39084 0.12583 0.0
C1293 C 0.18239 0.34946 0.09162 0.0
C1294 C 0.18743 0.37002 0.10085 0.0
C1295 C 0.20001 0.42952 0.12905 0.0
C1296 C 0.19592 0.40904 0.11918 0.0
H1297 H 0.17088 0.32775 0.04545 0.0
H1298 H 0.18148 0.3609 0.06032 0.0
H1299 H 0.20958 0.35782 0.12212 0.0
H1300 H 0.20669 0.45101 0.17631 0.0
H1301 H 0.20063 0.41728 0.16006 0.0
C1302 C 0.7062 0.04237 0.8978 0.0
C1303 C 0.70939 0.04035 0.87658 0.0
C1304 C 0.70334 0.06206 0.90659 0.0
C1305 C 0.71109 0.11854 0.89711 0.0
H1306 H 0.66801 0.12534 0.93666 0.0
C1307 C 0.67791 0.19884 0.91845 0.0
C1308 C 0.67208 0.20232 0.93887 0.0
C1309 C 0.68457 0.17915 0.91219 0.0
C1310 C 0.68031 0.12366 0.9259 0.0
H1311 H 0.71224 0.05746 0.84799 0.0
H1312 H 0.70703 0.09174 0.86328 0.0
H1313 H 0.67556 0.0907 0.92321 0.0
H1314 H 0.66931 0.18803 0.96893 0.0
H1315 H 0.68108 0.15367 0.958 0.0
H1316 H 0.71561 0.15158 0.89957 0.0
C1317 C 0.707 0.07814 0.87318 0.0
C1318 C 0.68463 0.1038 0.91817 0.0
C1319 C 0.70984 0.05846 0.86439 0.0
C1320 C 0.6736 0.18584 0.95305 0.0
C1321 C 0.68024 0.16612 0.94678 0.0
C1322 C 0.70677 0.1384 0.90484 0.0
C1323 C 0.70364 0.08016 0.89436 0.0
C1324 C 0.6999 0.10106 0.9035 0.0
C1325 C 0.68555 0.16249 0.92621 0.0
C1326 C 0.69117 0.14122 0.91913 0.0
H1327 H 0.70585 0.02873 0.90764 0.0
H1328 H 0.70099 0.06313 0.923 0.0
H1329 H 0.72318 0.11688 0.88609 0.0
H1330 H 0.67694 0.2112 0.90714 0.0
H1331 H 0.68834 0.17683 0.89619 0.0
C1332 C 0.79057 0.96629 0.40305 0.0
C1333 C 0.78063 0.96875 0.3842 0.0
C1334 C 0.79304 0.94645 0.41164 0.0
C1335 C 0.7739 0.89209 0.40934 0.0
H1336 H 0.82559 0.87877 0.43359 0.0
C1337 C 0.79905 0.80781 0.42877 0.0
C1338 C 0.80987 0.8048 0.44705 0.0
C1339 C 0.79411 0.82795 0.42218 0.0
C1340 C 0.81098 0.88233 0.42712 0.0
H1341 H 0.76527 0.95232 0.35967 0.0
H1342 H 0.76986 0.91768 0.3745 0.0
H1343 H 0.81967 0.91366 0.41997 0.0
H1344 H 0.82343 0.82055 0.47308 0.0
H1345 H 0.81472 0.85565 0.4616 0.0
H1346 H 0.76538 0.86056 0.41624 0.0
C1347 C 0.7755 0.93112 0.3828 0.0
C1348 C 0.80757 0.90233 0.41932 0.0
C1349 C 0.77298 0.95097 0.37424 0.0
C1350 C 0.81518 0.82232 0.45887 0.0
C1351 C 0.81029 0.84245 0.45224 0.0
C1352 C 0.77734 0.87204 0.41709 0.0
C1353 C 0.78566 0.92861 0.40155 0.0
C1354 C 0.78902 0.90745 0.41028 0.0
C1355 C 0.79993 0.8455 0.4337 0.0
C1356 C 0.79594 0.86693 0.42602 0.0
H1357 H 0.79652 0.97968 0.4112 0.0
H1358 H 0.80066 0.94511 0.42626 0.0
H1359 H 0.75934 0.89561 0.40273 0.0
H1360 H 0.79472 0.79464 0.41933 0.0
H1361 H 0.78626 0.82981 0.40774 0.0
C1362 C 0.28286 0.54818 0.62148 0.0
C1363 C 0.27922 0.53185 0.60757 0.0
C1364 C 0.28586 0.56858 0.61446 0.0
C1365 C 0.30164 0.59784 0.56859 0.0
H1366 H 0.28001 0.64543 0.59808 0.0
C1367 C 0.31301 0.6824 0.54003 0.0
C1368 C 0.31882 0.697 0.555 0.0
C1369 C 0.30616 0.66258 0.54576 0.0
C1370 C 0.28625 0.6323 0.58975 0.0
H1371 H 0.27545 0.52421 0.57538 0.0
H1372 H 0.28054 0.55983 0.56316 0.0
H1373 H 0.2718 0.61008 0.60942 0.0
H1374 H 0.32151 0.70241 0.58773 0.0
H1375 H 0.30974 0.66785 0.59768 0.0
H1376 H 0.31631 0.62002 0.54911 0.0
C1377 C 0.28134 0.55681 0.57948 0.0
C1378 C 0.28156 0.61206 0.59625 0.0
C1379 C 0.27834 0.53642 0.5865 0.0
C1380 C 0.31717 0.69154 0.57581 0.0
C1381 C 0.31029 0.67175 0.58153 0.0
C1382 C 0.30632 0.61807 0.56209 0.0
C1383 C 0.28528 0.5731 0.59336 0.0
C1384 C 0.28937 0.5946 0.58587 0.0
C1385 C 0.30491 0.65697 0.56657 0.0
C1386 C 0.29885 0.63552 0.57272 0.0
H1387 H 0.28365 0.54519 0.63781 0.0
H1388 H 0.28911 0.58072 0.62553 0.0
H1389 H 0.30813 0.58474 0.56043 0.0
H1390 H 0.31402 0.68616 0.52387 0.0
H1391 H 0.30188 0.65161 0.53389 0.0
C1392 C 0.87021 0.7631 0.5419 0.0
C1393 C 0.84918 0.76338 0.53963 0.0
C1394 C 0.87908 0.76892 0.56046 0.0
C1395 C 0.86888 0.77741 0.61559 0.0
H1396 H 0.91217 0.81784 0.61153 0.0
C1397 C 0.89304 0.8293 0.68346 0.0
C1398 C 0.91347 0.8345 0.68554 0.0
C1399 C 0.88631 0.81808 0.66642 0.0
C1400 C 0.90036 0.80628 0.613 0.0
H1401 H 0.82094 0.76914 0.55535 0.0
H1402 H 0.83643 0.77931 0.58771 0.0
H1403 H 0.89847 0.80228 0.58049 0.0
H1404 H 0.94301 0.83137 0.67172 0.0
H1405 H 0.93132 0.8115 0.64213 0.0
H1406 H 0.87062 0.78158 0.6481 0.0
C1407 C 0.84606 0.77452 0.57516 0.0
C1408 C 0.89249 0.79737 0.59518 0.0
C1409 C 0.83719 0.76881 0.55657 0.0
C1410 C 0.92713 0.82776 0.67048 0.0
C1411 C 0.92042 0.81645 0.65348 0.0
C1412 C 0.87682 0.78624 0.63343 0.0
C1413 C 0.86711 0.77501 0.57718 0.0
C1414 C 0.87648 0.78306 0.59626 0.0
C1415 C 0.89988 0.8117 0.65111 0.0
C1416 C 0.89246 0.80102 0.63233 0.0
H1417 H 0.87988 0.75891 0.52917 0.0
H1418 H 0.89534 0.7689 0.56165 0.0
H1419 H 0.85671 0.76622 0.6169 0.0
H1420 H 0.88211 0.83427 0.69477 0.0
H1421 H 0.87036 0.81496 0.66497 0.0
C1422 C 0.64693 0.24663 0.05151 0.0
C1423 C 0.63455 0.24946 0.03427 0.0
C1424 C 0.63848 0.24338 0.07089 0.0
C1425 C 0.59211 0.22384 0.09483 0.0
H1426 H 0.61532 0.24637 0.14469 0.0
C1427 C 0.55778 0.20555 0.17376 0.0
C1428 C 0.57152 0.19958 0.18904 0.0
C1429 C 0.56455 0.21467 0.15554 0.0
C1430 C 0.60873 0.23989 0.1309 0.0
H1431 H 0.60359 0.25192 0.02398 0.0
H1432 H 0.58889 0.24644 0.05776 0.0
H1433 H 0.629 0.25678 0.11144 0.0
H1434 H 0.60309 0.19928 0.19754 0.0
H1435 H 0.61489 0.21492 0.16571 0.0
H1436 H 0.57214 0.20661 0.11418 0.0
C1437 C 0.60512 0.24639 0.05627 0.0
C1438 C 0.61657 0.24585 0.11187 0.0
C1439 C 0.61356 0.24961 0.03691 0.0
C1440 C 0.5921 0.20366 0.18606 0.0
C1441 C 0.59887 0.21276 0.16785 0.0
C1442 C 0.58429 0.21789 0.11382 0.0
C1443 C 0.61747 0.24291 0.07342 0.0
C1444 C 0.60847 0.23771 0.09363 0.0
C1445 C 0.58521 0.21801 0.15222 0.0
C1446 C 0.59263 0.22567 0.13209 0.0
H1447 H 0.66316 0.24644 0.05 0.0
H1448 H 0.6484 0.24055 0.08376 0.0
H1449 H 0.58574 0.217 0.0811 0.0
H1450 H 0.54181 0.20275 0.17564 0.0
H1451 H 0.55362 0.21885 0.14393 0.0
C1452 C 0.39999 0.69132 0.31129 0.0
C1453 C 0.42054 0.6864 0.30975 0.0
C1454 C 0.39261 0.70195 0.32843 0.0
C1455 C 0.40502 0.71002 0.38267 0.0
H1456 H 0.36047 0.74913 0.38113 0.0
C1457 C 0.37327 0.74565 0.45655 0.0
C1458 C 0.35222 0.74532 0.45856 0.0
C1459 C 0.38231 0.74172 0.43763 0.0
C1460 C 0.37287 0.73816 0.38178 0.0
H1461 H 0.44967 0.68993 0.32434 0.0
H1462 H 0.43685 0.70876 0.35407 0.0
H1463 H 0.37542 0.73688 0.34905 0.0
H1464 H 0.32412 0.7414 0.44209 0.0
H1465 H 0.33996 0.73425 0.40906 0.0
H1466 H 0.4023 0.71093 0.41528 0.0
C1467 C 0.42636 0.70398 0.34226 0.0
C1468 C 0.38143 0.73115 0.36343 0.0
C1469 C 0.43372 0.69328 0.32517 0.0
C1470 C 0.34038 0.74172 0.44106 0.0
C1471 C 0.34945 0.73775 0.4221 0.0
C1472 C 0.39651 0.71704 0.40095 0.0
C1473 C 0.40565 0.70796 0.34434 0.0
C1474 C 0.39748 0.71683 0.36367 0.0
C1475 C 0.37053 0.73732 0.42028 0.0
C1476 C 0.38022 0.73102 0.40074 0.0
H1477 H 0.38944 0.68628 0.29965 0.0
H1478 H 0.37656 0.70459 0.32961 0.0
H1479 H 0.41708 0.69866 0.38344 0.0
H1480 H 0.38284 0.74858 0.46968 0.0
H1481 H 0.39858 0.74185 0.43665 0.0
C1482 C 0.12046 0.27646 0.96677 0.0
C1483 C 0.14045 0.28043 0.97261 0.0
C1484 C 0.11391 0.28107 0.94692 0.0
C1485 C 0.13232 0.29156 0.89433 0.0
H1486 H 0.08018 0.31782 0.88748 0.0
C1487 C 0.10731 0.33042 0.81859 0.0
C1488 C 0.08727 0.32747 0.81235 0.0
C1489 C 0.11375 0.32345 0.8378 0.0
C1490 C 0.09466 0.31024 0.8891 0.0
H1491 H 0.16929 0.29221 0.96212 0.0
H1492 H 0.1578 0.3005 0.9276 0.0
H1493 H 0.09151 0.30796 0.92166 0.0
H1494 H 0.05836 0.31455 0.82125 0.0
H1495 H 0.06966 0.3023 0.85475 0.0
H1496 H 0.13554 0.29409 0.86175 0.0
C1497 C 0.14725 0.29355 0.93827 0.0
C1498 C 0.10116 0.30458 0.9087 0.0
C1499 C 0.1538 0.28892 0.95811 0.0
C1500 C 0.07388 0.31714 0.82562 0.0
C1501 C 0.08032 0.31022 0.84486 0.0
C1502 C 0.12584 0.29726 0.87473 0.0
C1503 C 0.1272 0.28977 0.93247 0.0
C1504 C 0.1201 0.29526 0.91155 0.0
C1505 C 0.10029 0.31341 0.8512 0.0
C1506 C 0.10697 0.30675 0.87192 0.0
H1507 H 0.10981 0.26983 0.97754 0.0
H1508 H 0.09845 0.27769 0.94286 0.0
H1509 H 0.14686 0.2841 0.89597 0.0
H1510 H 0.11801 0.33832 0.80874 0.0
H1511 H 0.12918 0.32634 0.84233 0.0
C1512 C 0.65436 0.95445 0.82949 0.0
C1513 C 0.67166 0.94185 0.83026 0.0
C1514 C 0.63645 0.94668 0.82125 0.0
C1515 C 0.6155 0.90471 0.78855 0.0
H1516 H 0.56682 0.91451 0.81989 0.0
C1517 C 0.54244 0.85767 0.77569 0.0
C1518 C 0.52406 0.86842 0.77706 0.0
C1519 C 0.56048 0.86765 0.78072 0.0
C1520 C 0.5802 0.91188 0.81077 0.0
H1521 H 0.6839 0.91144 0.82241 0.0
H1522 H 0.65264 0.89788 0.80819 0.0
H1523 H 0.5983 0.93041 0.83087 0.0
H1524 H 0.51023 0.89822 0.78439 0.0
H1525 H 0.5417 0.91567 0.79295 0.0
H1526 H 0.5974 0.88598 0.76856 0.0
C1527 C 0.65294 0.91381 0.8138 0.0
C1528 C 0.59825 0.921 0.81707 0.0
C1529 C 0.67083 0.92155 0.82207 0.0
C1530 C 0.52412 0.88945 0.78329 0.0
C1531 C 0.54215 0.89943 0.78829 0.0
C1532 C 0.59743 0.8956 0.78222 0.0
C1533 C 0.63548 0.92618 0.81355 0.0
C1534 C 0.61614 0.91739 0.80613 0.0
C1535 C 0.56053 0.88861 0.7872 0.0
C1536 C 0.5796 0.89895 0.79336 0.0
H1537 H 0.65452 0.97019 0.83558 0.0
H1538 H 0.62331 0.95669 0.82101 0.0
H1539 H 0.62898 0.90185 0.77964 0.0
H1540 H 0.54291 0.84145 0.77097 0.0
H1541 H 0.57434 0.85879 0.77996 0.0
C1542 C 0.83035 0.03597 0.31316 0.0
C1543 C 0.81662 0.05173 0.31862 0.0
C1544 C 0.8493 0.04115 0.30535 0.0
C1545 C 0.87822 0.0842 0.28155 0.0
H1546 H 0.92445 0.05579 0.30476 0.0
C1547 C 0.95866 0.11657 0.27411 0.0
C1548 C 0.97449 0.10237 0.27098 0.0
C1549 C 0.93923 0.10941 0.2782 0.0
C1550 C 0.9117 0.06366 0.29787 0.0
H1551 H 0.81183 0.08526 0.31966 0.0
H1552 H 0.84487 0.09426 0.30616 0.0
H1553 H 0.89064 0.04493 0.31459 0.0
H1554 H 0.98228 0.06948 0.26943 0.0
H1555 H 0.94826 0.05697 0.2764 0.0
H1556 H 0.89927 0.10309 0.26502 0.0
C1557 C 0.84095 0.0779 0.30776 0.0
C1558 C 0.89232 0.05743 0.30351 0.0
C1559 C 0.82205 0.07274 0.31562 0.0
C1560 C 0.97043 0.08083 0.27185 0.0
C1561 C 0.95096 0.07365 0.27593 0.0
C1562 C 0.89759 0.0904 0.27588 0.0
C1563 C 0.85487 0.06218 0.30275 0.0
C1564 C 0.87538 0.06781 0.29562 0.0
C1565 C 0.93515 0.08787 0.27921 0.0
C1566 C 0.91456 0.08038 0.28419 0.0
H1567 H 0.8266 0.01963 0.31522 0.0
H1568 H 0.85962 0.02868 0.30141 0.0
H1569 H 0.86545 0.09228 0.27495 0.0
H1570 H 0.96128 0.13327 0.2736 0.0
H1571 H 0.92748 0.12078 0.28096 0.0
C1572 C 0.16426 0.58904 0.19305 0.0
C1573 C 0.16759 0.56799 0.18794 0.0
C1574 C 0.1451 0.59592 0.19868 0.0
C1575 C 0.09187 0.58249 0.1918 0.0
H1576 H 0.08312 0.62371 0.23445 0.0
C1577 C 0.0123 0.60921 0.21499 0.0
C1578 C 0.00949 0.6307 0.21846 0.0
C1579 C 0.03162 0.60101 0.21257 0.0
C1580 C 0.08535 0.61234 0.22237 0.0
H1581 H 0.15356 0.53746 0.18551 0.0
H1582 H 0.12012 0.54946 0.19548 0.0
H1583 H 0.11693 0.61006 0.22853 0.0
H1584 H 0.02478 0.66041 0.22221 0.0
H1585 H 0.0585 0.64613 0.21768 0.0
H1586 H 0.06042 0.58495 0.18539 0.0
C1587 C 0.1323 0.5607 0.19484 0.0
C1588 C 0.1047 0.60449 0.21901 0.0
C1589 C 0.15148 0.55381 0.18924 0.0
C1590 C 0.02643 0.64378 0.21958 0.0
C1591 C 0.04577 0.63558 0.21713 0.0
C1592 C 0.07256 0.59035 0.19512 0.0
C1593 C 0.12883 0.58189 0.19931 0.0
C1594 C 0.10818 0.58955 0.20362 0.0
C1595 C 0.04858 0.61411 0.21352 0.0
C1596 C 0.06908 0.60543 0.21038 0.0
H1597 H 0.17635 0.60037 0.19222 0.0
H1598 H 0.14289 0.61237 0.20186 0.0
H1599 H 0.09411 0.57127 0.17958 0.0
H1600 H -0.00042 0.59867 0.21416 0.0
H1601 H 0.03327 0.58436 0.21011 0.0
C1602 C 0.31513 0.4119 0.65556 0.0
C1603 C 0.31512 0.43143 0.64568 0.0
C1604 C 0.33276 0.40403 0.66429 0.0
C1605 C 0.38796 0.40904 0.6616 0.0
H1606 H 0.3865 0.37959 0.71358 0.0
C1607 C 0.46018 0.38255 0.70298 0.0
C1608 C 0.46014 0.36228 0.71129 0.0
C1609 C 0.4424 0.39151 0.69572 0.0
C1610 C 0.38711 0.38762 0.69896 0.0
H1611 H 0.33353 0.45817 0.63749 0.0
H1612 H 0.36425 0.44453 0.65293 0.0
H1613 H 0.35559 0.39446 0.69961 0.0
H1614 H 0.44133 0.3356 0.71873 0.0
H1615 H 0.41031 0.35122 0.70594 0.0
H1616 H 0.41944 0.40216 0.66091 0.0
C1617 C 0.35069 0.43516 0.65366 0.0
C1618 C 0.36941 0.39613 0.69096 0.0
C1619 C 0.33306 0.44303 0.64491 0.0
C1620 C 0.44188 0.35126 0.71243 0.0
C1621 C 0.42408 0.36025 0.70521 0.0
C1622 C 0.40564 0.40057 0.66961 0.0
C1623 C 0.35077 0.41553 0.66336 0.0
C1624 C 0.36963 0.40688 0.67215 0.0
C1625 C 0.42417 0.38042 0.69664 0.0
C1626 C 0.40541 0.38971 0.68836 0.0
H1627 H 0.30158 0.40254 0.65639 0.0
H1628 H 0.33237 0.38874 0.67142 0.0
H1629 H 0.38859 0.41692 0.64691 0.0
H1630 H 0.47398 0.3915 0.70194 0.0
H1631 H 0.44291 0.40719 0.68946 0.0
C1632 C 0.80592 0.65526 0.9242 0.0
C1633 C 0.81941 0.66783 0.91307 0.0
C1634 C 0.79809 0.63698 0.91553 0.0
C1635 C 0.79129 0.61004 0.86548 0.0
H1636 H 0.78781 0.56008 0.899 0.0
C1637 C 0.78649 0.52716 0.83158 0.0
C1638 C 0.77288 0.51306 0.84058 0.0
C1639 C 0.78994 0.54669 0.84044 0.0
C1640 C 0.78845 0.57398 0.88952 0.0
H1641 H 0.83524 0.67107 0.88413 0.0
H1642 H 0.82202 0.63913 0.86928 0.0
H1643 H 0.79796 0.59308 0.91462 0.0
H1644 H 0.75212 0.50844 0.86586 0.0
H1645 H 0.75834 0.54257 0.88146 0.0
H1646 H 0.7824 0.59072 0.84026 0.0
C1647 C 0.81709 0.64353 0.88451 0.0
C1648 C 0.79421 0.5929 0.89847 0.0
C1649 C 0.82481 0.66181 0.8931 0.0
C1650 C 0.76268 0.51897 0.85854 0.0
C1651 C 0.7663 0.53845 0.86753 0.0
C1652 C 0.78569 0.5911 0.85652 0.0
C1653 C 0.80365 0.63087 0.8956 0.0
C1654 C 0.796 0.6111 0.88649 0.0
C1655 C 0.78 0.55246 0.85859 0.0
C1656 C 0.78447 0.57283 0.86839 0.0
H1657 H 0.8014 0.65953 0.93959 0.0
H1658 H 0.7876 0.62771 0.92442 0.0
H1659 H 0.79207 0.62384 0.85588 0.0
H1660 H 0.79458 0.52308 0.81772 0.0
H1661 H 0.80075 0.55709 0.83333 0.0
C1662 C 0.32702 0.82212 0.0412 0.0
C1663 C 0.32697 0.80457 0.05417 0.0
C1664 C 0.32092 0.84165 0.04856 0.0
C1665 C 0.29338 0.8675 0.09102 0.0
H1666 H 0.32751 0.9148 0.07781 0.0
C1667 C 0.29168 0.94443 0.13695 0.0
C1668 C 0.29348 0.9633 0.12607 0.0
C1669 C 0.29412 0.92529 0.12695 0.0
C1670 C 0.31764 0.90183 0.08141 0.0
H1671 H 0.31991 0.79362 0.08485 0.0
H1672 H 0.3095 0.82763 0.09768 0.0
H1673 H 0.33426 0.88092 0.06224 0.0
H1674 H 0.299 0.97688 0.09609 0.0
H1675 H 0.30316 0.94345 0.07864 0.0
H1676 H 0.27698 0.88837 0.11048 0.0
C1677 C 0.31405 0.82631 0.08178 0.0
C1678 C 0.3215 0.88241 0.07247 0.0
C1679 C 0.32015 0.80682 0.07445 0.0
C1680 C 0.29759 0.96262 0.10494 0.0
C1681 C 0.30006 0.94347 0.09495 0.0
C1682 C 0.28953 0.88692 0.09998 0.0
C1683 C 0.31462 0.84401 0.06901 0.0
C1684 C 0.30956 0.86496 0.07736 0.0
C1685 C 0.29843 0.9246 0.10586 0.0
C1686 C 0.30177 0.90425 0.09546 0.0
H1687 H 0.3321 0.82089 0.02547 0.0
H1688 H 0.32128 0.85493 0.03826 0.0
H1689 H 0.28371 0.85444 0.09486 0.0
H1690 H 0.28854 0.9444 0.15325 0.0
H1691 H 0.29304 0.91104 0.13586 0.0
C1692 C 0.24712 0.04299 0.6343 0.0
C1693 C 0.23086 0.03313 0.64416 0.0
C1694 C 0.24399 0.06082 0.6223 0.0
C1695 C 0.20437 0.08747 0.59297 0.0
H1696 H 0.23918 0.13601 0.59627 0.0
C1697 C 0.19248 0.15814 0.54015 0.0
C1698 C 0.19205 0.17761 0.55011 0.0
C1699 C 0.1999 0.14048 0.55022 0.0
C1700 C 0.22936 0.12255 0.59518 0.0
H1701 H 0.19866 0.03455 0.64955 0.0
H1702 H 0.19326 0.06561 0.62873 0.0
H1703 H 0.24632 0.10531 0.61745 0.0
H1704 H 0.20009 0.19403 0.57805 0.0
H1705 H 0.21288 0.16318 0.59564 0.0
H1706 H 0.18709 0.10476 0.57117 0.0
C1707 C 0.20838 0.05942 0.63005 0.0
C1708 C 0.23353 0.10495 0.60718 0.0
C1709 C 0.2115 0.04169 0.6421 0.0
C1710 C 0.20013 0.17924 0.56997 0.0
C1711 C 0.20758 0.16158 0.58002 0.0
C1712 C 0.20027 0.10498 0.58093 0.0
C1713 C 0.22453 0.06903 0.61984 0.0
C1714 C 0.22089 0.08735 0.6064 0.0
C1715 C 0.20709 0.14192 0.57044 0.0
C1716 C 0.21257 0.12281 0.58206 0.0
H1717 H 0.26222 0.03678 0.6356 0.0
H1718 H 0.2567 0.06786 0.61453 0.0
H1719 H 0.19452 0.07403 0.59183 0.0
H1720 H 0.18651 0.15639 0.52479 0.0
H1721 H 0.19962 0.12559 0.54233 0.0
C1722 C 0.68976 0.3132 0.42411 0.0
C1723 C 0.68939 0.30786 0.44499 0.0
C1724 C 0.69823 0.33203 0.41766 0.0
C1725 C 0.71083 0.38467 0.43719 0.0
H1726 H 0.73404 0.3907 0.38293 0.0
C1727 C 0.73788 0.46401 0.40385 0.0
C1728 C 0.72871 0.46891 0.38503 0.0
C1729 C 0.73642 0.44381 0.41194 0.0
C1730 C 0.72767 0.38919 0.39815 0.0
H1731 H 0.69849 0.31764 0.47544 0.0
H1732 H 0.71389 0.35032 0.46412 0.0
H1733 H 0.72642 0.35589 0.39611 0.0
H1734 H 0.71142 0.45646 0.35962 0.0
H1735 H 0.70926 0.42111 0.37357 0.0
H1736 H 0.71219 0.41809 0.43911 0.0
C1737 C 0.70712 0.34019 0.45275 0.0
C1738 C 0.72318 0.36929 0.40568 0.0
C1739 C 0.6984 0.32141 0.45924 0.0
C1740 C 0.71855 0.45315 0.3742 0.0
C1741 C 0.71743 0.4329 0.3821 0.0
C1742 C 0.71563 0.40455 0.42977 0.0
C1743 C 0.70681 0.34593 0.43191 0.0
C1744 C 0.71416 0.3668 0.42507 0.0
C1745 C 0.72615 0.42811 0.40113 0.0
C1746 C 0.72359 0.407 0.40998 0.0
H1747 H 0.68287 0.30316 0.41273 0.0
H1748 H 0.69734 0.336 0.40155 0.0
H1749 H 0.70367 0.38345 0.45206 0.0
H1750 H 0.74576 0.47588 0.41253 0.0
H1751 H 0.74328 0.44044 0.42664 0.0
loop_
_geom_bond_atom_site_label_1
_geom_bond_atom_site_label_2
_geom_bond_distance
_geom_bond_site_symmetry_2
_ccdc_geom_bond_type
C0 O1 1.160 . S
C0 O7 1.185 . S
O1 C0 1.160 . S
O2 Zn3 1.899 . S
O2 C10 1.284 . S
Zn3 O2 1.899 . S
Zn3 O4 2.032 . S
Zn3 O7 2.086 . S
Zn3 O12 1.977 . S
O4 Zn3 2.032 . S
O4 C8 1.278 . S
C5 O6 1.203 . S
C5 O12 1.267 . S
O6 C5 1.203 . S
O7 C0 1.185 . S
O7 Zn3 2.086 . S
C8 O4 1.278 . S
C8 O9 1.211 . S
O9 C8 1.211 . S
C10 O2 1.284 . S
C10 O11 1.273 . S
O11 C10 1.273 . S
O12 Zn3 1.977 . S
O12 C5 1.267 . S
C13 O14 1.160 . S
C13 O20 1.185 . S
O14 C13 1.160 . S
O15 Zn16 1.899 . S
O15 C23 1.284 . S
Zn16 O15 1.899 . S
Zn16 O17 2.032 . S
Zn16 O20 2.086 . S
Zn16 O25 1.977 . S
O17 Zn16 2.032 . S
O17 C21 1.278 . S
C18 O19 1.203 . S
C18 O25 1.267 . S
O19 C18 1.203 . S
O20 C13 1.185 . S
O20 Zn16 2.086 . S
C21 O17 1.278 . S
C21 O22 1.211 . S
O22 C21 1.211 . S
C23 O15 1.284 . S
C23 O24 1.273 . S
O24 C23 1.273 . S
O25 Zn16 1.977 . S
O25 C18 1.267 . S
C26 O27 1.160 . S
C26 O33 1.185 . S
O27 C26 1.160 . S
O28 Zn29 1.899 . S
O28 C36 1.284 . S
Zn29 O28 1.899 . S
Zn29 O30 2.032 . S
Zn29 O33 2.086 . S
Zn29 O38 1.977 . S
O30 Zn29 2.032 . S
O30 C34 1.278 . S
C31 O32 1.203 . S
C31 O38 1.267 . S
O32 C31 1.203 . S
O33 C26 1.185 . S
O33 Zn29 2.086 . S
C34 O30 1.278 . S
C34 O35 1.211 . S
O35 C34 1.211 . S
C36 O28 1.284 . S
C36 O37 1.273 . S
O37 C36 1.273 . S
O38 Zn29 1.977 . S
O38 C31 1.267 . S
C39 O40 1.160 . S
C39 O46 1.185 . S
O40 C39 1.160 . S
O41 Zn42 1.899 . S
O41 C49 1.284 . S
Zn42 O41 1.899 . S
Zn42 O43 2.032 . S
Zn42 O46 2.086 . S
Zn42 O51 1.977 . S
O43 Zn42 2.032 . S
O43 C47 1.278 . S
C44 O45 1.203 . S
C44 O51 1.267 . S
O45 C44 1.203 . S
O46 C39 1.185 . S
O46 Zn42 2.086 . S
C47 O43 1.278 . S
C47 O48 1.211 . S
O48 C47 1.211 . S
C49 O41 1.284 . S
C49 O50 1.273 . S
O50 C49 1.273 . S
O51 Zn42 1.977 . S
O51 C44 1.267 . S
C52 O53 1.160 . S
C52 O59 1.185 . S
O53 C52 1.160 . S
O54 Zn55 1.899 . S
O54 C62 1.284 . S
Zn55 O54 1.899 . S
Zn55 O56 2.032 . S
Zn55 O59 2.086 . S
Zn55 O64 1.977 . S
O56 Zn55 2.032 . S
O56 C60 1.278 . S
C57 O58 1.203 . S
C57 O64 1.267 . S
O58 C57 1.203 . S
O59 C52 1.185 . S
O59 Zn55 2.086 . S
C60 O56 1.278 . S
C60 O61 1.211 . S
O61 C60 1.211 . S
C62 O54 1.284 . S
C62 O63 1.273 . S
O63 C62 1.273 . S
O64 Zn55 1.977 . S
O64 C57 1.267 . S
C65 O66 1.160 . S
C65 O72 1.185 . S
O66 C65 1.160 . S
O67 Zn68 1.899 . S
O67 C75 1.284 . S
Zn68 O67 1.899 . S
Zn68 O69 2.032 . S
Zn68 O72 2.086 . S
Zn68 O77 1.977 . S
O69 Zn68 2.032 . S
O69 C73 1.278 . S
C70 O71 1.203 . S
C70 O77 1.267 . S
O71 C70 1.203 . S
O72 C65 1.185 . S
O72 Zn68 2.086 . S
C73 O69 1.278 . S
C73 O74 1.211 . S
O74 C73 1.211 . S
C75 O67 1.284 . S
C75 O76 1.273 . S
O76 C75 1.273 . S
O77 Zn68 1.977 . S
O77 C70 1.267 . S
C78 O79 1.160 . S
C78 O85 1.185 . S
O79 C78 1.160 . S
O80 Zn81 1.899 . S
O80 C88 1.284 . S
Zn81 O80 1.899 . S
Zn81 O82 2.032 . S
Zn81 O85 2.086 . S
Zn81 O90 1.977 . S
O82 Zn81 2.032 . S
O82 C86 1.278 . S
C83 O84 1.203 . S
C83 O90 1.267 . S
O84 C83 1.203 . S
O85 C78 1.185 . S
O85 Zn81 2.086 . S
C86 O82 1.278 . S
C86 O87 1.211 . S
O87 C86 1.211 . S
C88 O80 1.284 . S
C88 O89 1.273 . S
O89 C88 1.273 . S
O90 Zn81 1.977 . S
O90 C83 1.267 . S
C91 O92 1.160 . S
C91 O98 1.185 . S
O92 C91 1.160 . S
O93 Zn94 1.899 . S
O93 C101 1.284 . S
Zn94 O93 1.899 . S
Zn94 O95 2.032 . S
Zn94 O98 2.086 . S
Zn94 O103 1.977 . S
O95 Zn94 2.032 . S
O95 C99 1.278 . S
C96 O97 1.203 . S
C96 O103 1.267 . S
O97 C96 1.203 . S
O98 C91 1.185 . S
O98 Zn94 2.086 . S
C99 O95 1.278 . S
C99 O100 1.211 . S
O100 C99 1.211 . S
C101 O93 1.284 . S
C101 O102 1.273 . S
O102 C101 1.273 . S
O103 Zn94 1.977 . S
O103 C96 1.267 . S
C104 O105 1.160 . S
C104 O111 1.185 . S
O105 C104 1.160 . S
O106 Zn107 1.899 . S
O106 C114 1.284 . S
Zn107 O106 1.899 . S
Zn107 O108 2.032 . S
Zn107 O111 2.086 . S
Zn107 O116 1.977 . S
O108 Zn107 2.032 . S
O108 C112 1.278 . S
C109 O110 1.203 . S
C109 O116 1.267 . S
O110 C109 1.203 . S
O111 C104 1.185 . S
O111 Zn107 2.086 . S
C112 O108 1.278 . S
C112 O113 1.211 . S
O113 C112 1.211 . S
C114 O106 1.284 . S
C114 O115 1.273 . S
O115 C114 1.273 . S
O116 Zn107 1.977 . S
O116 C109 1.267 . S
C117 O118 1.160 . S
C117 O124 1.185 . S
O118 C117 1.160 . S
O119 Zn120 1.899 . S
O119 C127 1.284 . S
Zn120 O119 1.899 . S
Zn120 O121 2.032 . S
Zn120 O124 2.086 . S
Zn120 O129 1.977 . S
O121 Zn120 2.032 . S
O121 C125 1.278 . S
C122 O123 1.203 . S
C122 O129 1.267 . S
O123 C122 1.203 . S
O124 C117 1.185 . S
O124 Zn120 2.086 . S
C125 O121 1.278 . S
C125 O126 1.211 . S
O126 C125 1.211 . S
C127 O119 1.284 . S
C127 O128 1.273 . S
O128 C127 1.273 . S
O129 Zn120 1.977 . S
O129 C122 1.267 . S
C130 O131 1.160 . S
C130 O137 1.185 . S
O131 C130 1.160 . S
O132 Zn133 1.899 . S
O132 C140 1.284 . S
Zn133 O132 1.899 . S
Zn133 O134 2.032 . S
Zn133 O137 2.086 . S
Zn133 O142 1.977 . S
O134 Zn133 2.032 . S
O134 C138 1.278 . S
C135 O136 1.203 . S
C135 O142 1.267 . S
O136 C135 1.203 . S
O137 C130 1.185 . S
O137 Zn133 2.086 . S
C138 O134 1.278 . S
C138 O139 1.211 . S
O139 C138 1.211 . S
C140 O132 1.284 . S
C140 O141 1.273 . S
O141 C140 1.273 . S
O142 Zn133 1.977 . S
O142 C135 1.267 . S
C143 O144 1.160 . S
C143 O150 1.185 . S
O144 C143 1.160 . S
O145 Zn146 1.899 . S
O145 C153 1.284 . S
Zn146 O145 1.899 . S
Zn146 O147 2.032 . S
Zn146 O150 2.086 . S
Zn146 O155 1.977 . S
O147 Zn146 2.032 . S
O147 C151 1.278 . S
C148 O149 1.203 . S
C148 O155 1.267 . S
O149 C148 1.203 . S
O150 C143 1.185 . S
O150 Zn146 2.086 . S
C151 O147 1.278 . S
C151 O152 1.211 . S
O152 C151 1.211 . S
C153 O145 1.284 . S
C153 O154 1.273 . S
O154 C153 1.273 . S
O155 Zn146 1.977 . S
O155 C148 1.267 . S
C156 O157 1.160 . S
C156 O163 1.185 . S
O157 C156 1.160 . S
O158 Zn159 1.899 . S
O158 C166 1.284 . S
Zn159 O158 1.899 . S
Zn159 O160 2.032 . S
Zn159 O163 2.086 . S
Zn159 O168 1.977 . S
O160 Zn159 2.032 . S
O160 C164 1.278 . S
C161 O162 1.203 . S
C161 O168 1.267 . S
O162 C161 1.203 . S
O163 C156 1.185 . S
O163 Zn159 2.086 . S
C164 O160 1.278 . S
C164 O165 1.211 . S
O165 C164 1.211 . S
C166 O158 1.284 . S
C166 O167 1.273 . S
O167 C166 1.273 . S
O168 Zn159 1.977 . S
O168 C161 1.267 . S
C169 O170 1.160 . S
C169 O176 1.185 . S
O170 C169 1.160 . S
O171 Zn172 1.899 . S
O171 C179 1.284 . S
Zn172 O171 1.899 . S
Zn172 O173 2.032 . S
Zn172 O176 2.086 . S
Zn172 O181 1.977 . S
O173 Zn172 2.032 . S
O173 C177 1.278 . S
C174 O175 1.203 . S
C174 O181 1.267 . S
O175 C174 1.203 . S
O176 C169 1.185 . S
O176 Zn172 2.086 . S
C177 O173 1.278 . S
C177 O178 1.211 . S
O178 C177 1.211 . S
C179 O171 1.284 . S
C179 O180 1.273 . S
O180 C179 1.273 . S
O181 Zn172 1.977 . S
O181 C174 1.267 . S
C182 O183 1.160 . S
C182 O189 1.185 . S
O183 C182 1.160 . S
O184 Zn185 1.899 . S
O184 C192 1.284 . S
Zn185 O184 1.899 . S
Zn185 O186 2.032 . S
Zn185 O189 2.086 . S
Zn185 O194 1.977 . S
O186 Zn185 2.032 . S
O186 C190 1.278 . S
C187 O188 1.203 . S
C187 O194 1.267 . S
O188 C187 1.203 . S
O189 C182 1.185 . S
O189 Zn185 2.086 . S
C190 O186 1.278 . S
C190 O191 1.211 . S
O191 C190 1.211 . S
C192 O184 1.284 . S
C192 O193 1.273 . S
O193 C192 1.273 . S
O194 Zn185 1.977 . S
O194 C187 1.267 . S
C195 O196 1.160 . S
C195 O202 1.185 . S
O196 C195 1.160 . S
O197 Zn198 1.899 . S
O197 C205 1.284 . S
Zn198 O197 1.899 . S
Zn198 O199 2.032 . S
Zn198 O202 2.086 . S
Zn198 O207 1.977 . S
O199 Zn198 2.032 . S
O199 C203 1.278 . S
C200 O201 1.203 . S
C200 O207 1.267 . S
O201 C200 1.203 . S
O202 C195 1.185 . S
O202 Zn198 2.086 . S
C203 O199 1.278 . S
C203 O204 1.211 . S
O204 C203 1.211 . S
C205 O197 1.284 . S
C205 O206 1.273 . S
O206 C205 1.273 . S
O207 Zn198 1.977 . S
O207 C200 1.267 . S
C208 O209 1.160 . S
C208 O215 1.185 . S
O209 C208 1.160 . S
O210 Zn211 1.899 . S
O210 C218 1.284 . S
Zn211 O210 1.899 . S
Zn211 O212 2.032 . S
Zn211 O215 2.086 . S
Zn211 O220 1.977 . S
O212 Zn211 2.032 . S
O212 C216 1.278 . S
C213 O214 1.203 . S
C213 O220 1.267 . S
O214 C213 1.203 . S
O215 C208 1.185 . S
O215 Zn211 2.086 . S
C216 O212 1.278 . S
C216 O217 1.211 . S
O217 C216 1.211 . S
C218 O210 1.284 . S
C218 O219 1.273 . S
O219 C218 1.273 . S
O220 Zn211 1.977 . S
O220 C213 1.267 . S
C221 O222 1.160 . S
C221 O228 1.185 . S
O222 C221 1.160 . S
O223 Zn224 1.899 . S
O223 C231 1.284 . S
Zn224 O223 1.899 . S
Zn224 O225 2.032 . S
Zn224 O228 2.086 . S
Zn224 O233 1.977 . S
O225 Zn224 2.032 . S
O225 C229 1.278 . S
C226 O227 1.203 . S
C226 O233 1.267 . S
O227 C226 1.203 . S
O228 C221 1.185 . S
O228 Zn224 2.086 . S
C229 O225 1.278 . S
C229 O230 1.211 . S
O230 C229 1.211 . S
C231 O223 1.284 . S
C231 O232 1.273 . S
O232 C231 1.273 . S
O233 Zn224 1.977 . S
O233 C226 1.267 . S
C234 O235 1.160 . S
C234 O241 1.185 . S
O235 C234 1.160 . S
O236 Zn237 1.899 . S
O236 C244 1.284 . S
Zn237 O236 1.899 . S
Zn237 O238 2.032 . S
Zn237 O241 2.086 . S
Zn237 O246 1.977 . S
O238 Zn237 2.032 . S
O238 C242 1.278 . S
C239 O240 1.203 . S
C239 O246 1.267 . S
O240 C239 1.203 . S
O241 C234 1.185 . S
O241 Zn237 2.086 . S
C242 O238 1.278 . S
C242 O243 1.211 . S
O243 C242 1.211 . S
C244 O236 1.284 . S
C244 O245 1.273 . S
O245 C244 1.273 . S
O246 Zn237 1.977 . S
O246 C239 1.267 . S
C247 O248 1.160 . S
C247 O254 1.185 . S
O248 C247 1.160 . S
O249 Zn250 1.899 . S
O249 C257 1.284 . S
Zn250 O249 1.899 . S
Zn250 O251 2.032 . S
Zn250 O254 2.086 . S
Zn250 O259 1.977 . S
O251 Zn250 2.032 . S
O251 C255 1.278 . S
C252 O253 1.203 . S
C252 O259 1.267 . S
O253 C252 1.203 . S
O254 C247 1.185 . S
O254 Zn250 2.086 . S
C255 O251 1.278 . S
C255 O256 1.211 . S
O256 C255 1.211 . S
C257 O249 1.284 . S
C257 O258 1.273 . S
O258 C257 1.273 . S
O259 Zn250 1.977 . S
O259 C252 1.267 . S
C260 O261 1.160 . S
C260 O267 1.185 . S
O261 C260 1.160 . S
O262 Zn263 1.899 . S
O262 C270 1.284 . S
Zn263 O262 1.899 . S
Zn263 O264 2.032 . S
Zn263 O267 2.086 . S
Zn263 O272 1.977 . S
O264 Zn263 2.032 . S
O264 C268 1.278 . S
C265 O266 1.203 . S
C265 O272 1.267 . S
O266 C265 1.203 . S
O267 C260 1.185 . S
O267 Zn263 2.086 . S
C268 O264 1.278 . S
C268 O269 1.211 . S
O269 C268 1.211 . S
C270 O262 1.284 . S
C270 O271 1.273 . S
O271 C270 1.273 . S
O272 Zn263 1.977 . S
O272 C265 1.267 . S
C273 O274 1.160 . S
C273 O280 1.185 . S
O274 C273 1.160 . S
O275 Zn276 1.899 . S
O275 C283 1.284 . S
Zn276 O275 1.899 . S
Zn276 O277 2.032 . S
Zn276 O280 2.086 . S
Zn276 O285 1.977 . S
O277 Zn276 2.032 . S
O277 C281 1.278 . S
C278 O279 1.203 . S
C278 O285 1.267 . S
O279 C278 1.203 . S
O280 C273 1.185 . S
O280 Zn276 2.086 . S
C281 O277 1.278 . S
C281 O282 1.211 . S
O282 C281 1.211 . S
C283 O275 1.284 . S
C283 O284 1.273 . S
O284 C283 1.273 . S
O285 Zn276 1.977 . S
O285 C278 1.267 . S
C286 O287 1.160 . S
C286 O293 1.185 . S
O287 C286 1.160 . S
O288 Zn289 1.899 . S
O288 C296 1.284 . S
Zn289 O288 1.899 . S
Zn289 O290 2.032 . S
Zn289 O293 2.086 . S
Zn289 O298 1.977 . S
O290 Zn289 2.032 . S
O290 C294 1.278 . S
C291 O292 1.203 . S
C291 O298 1.267 . S
O292 C291 1.203 . S
O293 C286 1.185 . S
O293 Zn289 2.086 . S
C294 O290 1.278 . S
C294 O295 1.211 . S
O295 C294 1.211 . S
C296 O288 1.284 . S
C296 O297 1.273 . S
O297 C296 1.273 . S
O298 Zn289 1.977 . S
O298 C291 1.267 . S
C299 O300 1.160 . S
C299 O306 1.185 . S
O300 C299 1.160 . S
O301 Zn302 1.899 . S
O301 C309 1.284 . S
Zn302 O301 1.899 . S
Zn302 O303 2.032 . S
Zn302 O306 2.086 . S
Zn302 O311 1.977 . S
O303 Zn302 2.032 . S
O303 C307 1.278 . S
C304 O305 1.203 . S
C304 O311 1.267 . S
O305 C304 1.203 . S
O306 C299 1.185 . S
O306 Zn302 2.086 . S
C307 O303 1.278 . S
C307 O308 1.211 . S
O308 C307 1.211 . S
C309 O301 1.284 . S
C309 O310 1.273 . S
O310 C309 1.273 . S
O311 Zn302 1.977 . S
O311 C304 1.267 . S
C312 C313 1.349 . S
C312 C314 1.327 . S
C312 H337 0.950 . S
C313 C312 1.349 . S
C313 C329 1.349 . S
C314 C312 1.327 . S
C314 C333 1.429 . S
C314 H338 0.950 . S
C315 C332 1.574 . S
C315 C334 1.368 . S
C315 H339 0.949 . S
H316 C320 0.949 . S
C317 C318 1.349 . S
C317 C319 1.327 . S
C317 H340 0.950 . S
C318 C317 1.349 . S
C318 C330 1.349 . S
C319 C317 1.327 . S
C319 C335 1.429 . S
C319 H341 0.950 . S
C320 H316 0.949 . S
C320 C328 1.574 . S
C320 C336 1.368 . S
H321 C329 0.950 . S
H322 C327 0.950 . S
H323 C328 0.949 . S
H324 C330 0.950 . S
H325 C331 0.950 . S
H326 C332 0.949 . S
C327 H322 0.950 . S
C327 C329 1.327 . S
C327 C333 1.429 . S
C328 C320 1.574 . S
C328 H323 0.949 . S
C328 C334 1.368 . S
C329 C313 1.349 . S
C329 H321 0.950 . S
C329 C327 1.327 . S
C330 C318 1.349 . S
C330 H324 0.950 . S
C330 C331 1.327 . S
C331 H325 0.950 . S
C331 C330 1.327 . S
C331 C335 1.429 . S
C332 C315 1.574 . S
C332 H326 0.949 . S
C332 C336 1.368 . S
C333 C314 1.429 . S
C333 C327 1.429 . S
C333 C334 1.523 . S
C334 C315 1.368 . S
C334 C328 1.368 . S
C334 C333 1.523 . S
C335 C319 1.429 . S
C335 C331 1.429 . S
C335 C336 1.523 . S
C336 C320 1.368 . S
C336 C332 1.368 . S
C336 C335 1.523 . S
H337 C312 0.950 . S
H338 C314 0.950 . S
H339 C315 0.949 . S
H340 C317 0.950 . S
H341 C319 0.950 . S
C342 C343 1.349 . S
C342 C344 1.327 . S
C342 H367 0.950 . S
C343 C342 1.349 . S
C343 C359 1.349 . S
C344 C342 1.327 . S
C344 C363 1.429 . S
C344 H368 0.950 . S
C345 C362 1.574 . S
C345 C364 1.368 . S
C345 H369 0.949 . S
H346 C350 0.949 . S
C347 C348 1.349 . S
C347 C349 1.327 . S
C347 H370 0.950 . S
C348 C347 1.349 . S
C348 C360 1.349 . S
C349 C347 1.327 . S
C349 C365 1.429 . S
C349 H371 0.950 . S
C350 H346 0.949 . S
C350 C358 1.574 . S
C350 C366 1.368 . S
H351 C359 0.950 . S
H352 C357 0.950 . S
H353 C358 0.949 . S
H354 C360 0.950 . S
H355 C361 0.950 . S
H356 C362 0.949 . S
C357 H352 0.950 . S
C357 C359 1.327 . S
C357 C363 1.429 . S
C358 C350 1.574 . S
C358 H353 0.949 . S
C358 C364 1.368 . S
C359 C343 1.349 . S
C359 H351 0.950 . S
C359 C357 1.327 . S
C360 C348 1.349 . S
C360 H354 0.950 . S
C360 C361 1.327 . S
C361 H355 0.950 . S
C361 C360 1.327 . S
C361 C365 1.429 . S
C362 C345 1.574 . S
C362 H356 0.949 . S
C362 C366 1.368 . S
C363 C344 1.429 . S
C363 C357 1.429 . S
C363 C364 1.523 . S
C364 C345 1.368 . S
C364 C358 1.368 . S
C364 C363 1.523 . S
C365 C349 1.429 . S
C365 C361 1.429 . S
C365 C366 1.523 . S
C366 C350 1.368 . S
C366 C362 1.368 . S
C366 C365 1.523 . S
H367 C342 0.950 . S
H368 C344 0.950 . S
H369 C345 0.949 . S
H370 C347 0.950 . S
H371 C349 0.950 . S
C372 C373 1.349 . S
C372 C374 1.327 . S
C372 H397 0.950 . S
C373 C372 1.349 . S
C373 C389 1.349 . S
C374 C372 1.327 . S
C374 C393 1.429 . S
C374 H398 0.950 . S
C375 C392 1.574 . S
C375 C394 1.368 . S
C375 H399 0.949 . S
H376 C380 0.949 . S
C377 C378 1.349 . S
C377 C379 1.327 . S
C377 H400 0.950 . S
C378 C377 1.349 . S
C378 C390 1.349 . S
C379 C377 1.327 . S
C379 C395 1.429 . S
C379 H401 0.950 . S
C380 H376 0.949 . S
C380 C388 1.574 . S
C380 C396 1.368 . S
H381 C389 0.950 . S
H382 C387 0.950 . S
H383 C388 0.949 . S
H384 C390 0.950 . S
H385 C391 0.950 . S
H386 C392 0.949 . S
C387 H382 0.950 . S
C387 C389 1.327 . S
C387 C393 1.429 . S
C388 C380 1.574 . S
C388 H383 0.949 . S
C388 C394 1.368 . S
C389 C373 1.349 . S
C389 H381 0.950 . S
C389 C387 1.327 . S
C390 C378 1.349 . S
C390 H384 0.950 . S
C390 C391 1.327 . S
C391 H385 0.950 . S
C391 C390 1.327 . S
C391 C395 1.429 . S
C392 C375 1.574 . S
C392 H386 0.949 . S
C392 C396 1.368 . S
C393 C374 1.429 . S
C393 C387 1.429 . S
C393 C394 1.523 . S
C394 C375 1.368 . S
C394 C388 1.368 . S
C394 C393 1.523 . S
C395 C379 1.429 . S
C395 C391 1.429 . S
C395 C396 1.523 . S
C396 C380 1.368 . S
C396 C392 1.368 . S
C396 C395 1.523 . S
H397 C372 0.950 . S
H398 C374 0.950 . S
H399 C375 0.949 . S
H400 C377 0.950 . S
H401 C379 0.950 . S
C402 C403 1.349 . S
C402 C404 1.327 . S
C402 H427 0.950 . S
C403 C402 1.349 . S
C403 C419 1.349 . S
C404 C402 1.327 . S
C404 C423 1.429 . S
C404 H428 0.950 . S
C405 C422 1.574 . S
C405 C424 1.368 . S
C405 H429 0.949 . S
H406 C410 0.949 . S
C407 C408 1.349 . S
C407 C409 1.327 . S
C407 H430 0.950 . S
C408 C407 1.349 . S
C408 C420 1.349 . S
C409 C407 1.327 . S
C409 C425 1.429 . S
C409 H431 0.950 . S
C410 H406 0.949 . S
C410 C418 1.574 . S
C410 C426 1.368 . S
H411 C419 0.950 . S
H412 C417 0.950 . S
H413 C418 0.949 . S
H414 C420 0.950 . S
H415 C421 0.950 . S
H416 C422 0.949 . S
C417 H412 0.950 . S
C417 C419 1.327 . S
C417 C423 1.429 . S
C418 C410 1.574 . S
C418 H413 0.949 . S
C418 C424 1.368 . S
C419 C403 1.349 . S
C419 H411 0.950 . S
C419 C417 1.327 . S
C420 C408 1.349 . S
C420 H414 0.950 . S
C420 C421 1.327 . S
C421 H415 0.950 . S
C421 C420 1.327 . S
C421 C425 1.429 . S
C422 C405 1.574 . S
C422 H416 0.949 . S
C422 C426 1.368 . S
C423 C404 1.429 . S
C423 C417 1.429 . S
C423 C424 1.523 . S
C424 C405 1.368 . S
C424 C418 1.368 . S
C424 C423 1.523 . S
C425 C409 1.429 . S
C425 C421 1.429 . S
C425 C426 1.523 . S
C426 C410 1.368 . S
C426 C422 1.368 . S
C426 C425 1.523 . S
H427 C402 0.950 . S
H428 C404 0.950 . S
H429 C405 0.949 . S
H430 C407 0.950 . S
H431 C409 0.950 . S
C432 C433 1.349 . S
C432 C434 1.327 . S
C432 H457 0.950 . S
C433 C432 1.349 . S
C433 C449 1.349 . S
C434 C432 1.327 . S
C434 C453 1.429 . S
C434 H458 0.950 . S
C435 C452 1.574 . S
C435 C454 1.368 . S
C435 H459 0.949 . S
H436 C440 0.949 . S
C437 C438 1.349 . S
C437 C439 1.327 . S
C437 H460 0.950 . S
C438 C437 1.349 . S
C438 C450 1.349 . S
C439 C437 1.327 . S
C439 C455 1.429 . S
C439 H461 0.950 . S
C440 H436 0.949 . S
C440 C448 1.574 . S
C440 C456 1.368 . S
H441 C449 0.950 . S
H442 C447 0.950 . S
H443 C448 0.949 . S
H444 C450 0.950 . S
H445 C451 0.950 . S
H446 C452 0.949 . S
C447 H442 0.950 . S
C447 C449 1.327 . S
C447 C453 1.429 . S
C448 C440 1.574 . S
C448 H443 0.949 . S
C448 C454 1.368 . S
C449 C433 1.349 . S
C449 H441 0.950 . S
C449 C447 1.327 . S
C450 C438 1.349 . S
C450 H444 0.950 . S
C450 C451 1.327 . S
C451 H445 0.950 . S
C451 C450 1.327 . S
C451 C455 1.429 . S
C452 C435 1.574 . S
C452 H446 0.949 . S
C452 C456 1.368 . S
C453 C434 1.429 . S
C453 C447 1.429 . S
C453 C454 1.523 . S
C454 C435 1.368 . S
C454 C448 1.368 . S
C454 C453 1.523 . S
C455 C439 1.429 . S
C455 C451 1.429 . S
C455 C456 1.523 . S
C456 C440 1.368 . S
C456 C452 1.368 . S
C456 C455 1.523 . S
H457 C432 0.950 . S
H458 C434 0.950 . S
H459 C435 0.949 . S
H460 C437 0.950 . S
H461 C439 0.950 . S
C462 C463 1.349 . S
C462 C464 1.327 . S
C462 H487 0.950 . S
C463 C462 1.349 . S
C463 C479 1.349 . S
C464 C462 1.327 . S
C464 C483 1.429 . S
C464 H488 0.950 . S
C465 C482 1.574 . S
C465 C484 1.368 . S
C465 H489 0.949 . S
H466 C470 0.949 . S
C467 C468 1.349 . S
C467 C469 1.327 . S
C467 H490 0.950 . S
C468 C467 1.349 . S
C468 C480 1.349 . S
C469 C467 1.327 . S
C469 C485 1.429 . S
C469 H491 0.950 . S
C470 H466 0.949 . S
C470 C478 1.574 . S
C470 C486 1.368 . S
H471 C479 0.950 . S
H472 C477 0.950 . S
H473 C478 0.949 . S
H474 C480 0.950 . S
H475 C481 0.950 . S
H476 C482 0.949 . S
C477 H472 0.950 . S
C477 C479 1.327 . S
C477 C483 1.429 . S
C478 C470 1.574 . S
C478 H473 0.949 . S
C478 C484 1.368 . S
C479 C463 1.349 . S
C479 H471 0.950 . S
C479 C477 1.327 . S
C480 C468 1.349 . S
C480 H474 0.950 . S
C480 C481 1.327 . S
C481 H475 0.950 . S
C481 C480 1.327 . S
C481 C485 1.429 . S
C482 C465 1.574 . S
C482 H476 0.949 . S
C482 C486 1.368 . S
C483 C464 1.429 . S
C483 C477 1.429 . S
C483 C484 1.523 . S
C484 C465 1.368 . S
C484 C478 1.368 . S
C484 C483 1.523 . S
C485 C469 1.429 . S
C485 C481 1.429 . S
C485 C486 1.523 . S
C486 C470 1.368 . S
C486 C482 1.368 . S
C486 C485 1.523 . S
H487 C462 0.950 . S
H488 C464 0.950 . S
H489 C465 0.949 . S
H490 C467 0.950 . S
H491 C469 0.950 . S
C492 C493 1.349 . S
C492 C494 1.327 . S
C492 H517 0.950 . S
C493 C492 1.349 . S
C493 C509 1.349 . S
C494 C492 1.327 . S
C494 C513 1.429 . S
C494 H518 0.950 . S
C495 C512 1.574 . S
C495 C514 1.368 . S
C495 H519 0.949 . S
H496 C500 0.949 . S
C497 C498 1.349 . S
C497 C499 1.327 . S
C497 H520 0.950 . S
C498 C497 1.349 . S
C498 C510 1.349 . S
C499 C497 1.327 . S
C499 C515 1.429 . S
C499 H521 0.950 . S
C500 H496 0.949 . S
C500 C508 1.574 . S
C500 C516 1.368 . S
H501 C509 0.950 . S
H502 C507 0.950 . S
H503 C508 0.949 . S
H504 C510 0.950 . S
H505 C511 0.950 . S
H506 C512 0.949 . S
C507 H502 0.950 . S
C507 C509 1.327 . S
C507 C513 1.429 . S
C508 C500 1.574 . S
C508 H503 0.949 . S
C508 C514 1.368 . S
C509 C493 1.349 . S
C509 H501 0.950 . S
C509 C507 1.327 . S
C510 C498 1.349 . S
C510 H504 0.950 . S
C510 C511 1.327 . S
C511 H505 0.950 . S
C511 C510 1.327 . S
C511 C515 1.429 . S
C512 C495 1.574 . S
C512 H506 0.949 . S
C512 C516 1.368 . S
C513 C494 1.429 . S
C513 C507 1.429 . S
C513 C514 1.523 . S
C514 C495 1.368 . S
C514 C508 1.368 . S
C514 C513 1.523 . S
C515 C499 1.429 . S
C515 C511 1.429 . S
C515 C516 1.523 . S
C516 C500 1.368 . S
C516 C512 1.368 . S
C516 C515 1.523 . S
H517 C492 0.950 . S
H518 C494 0.950 . S
H519 C495 0.949 . S
H520 C497 0.950 . S
H521 C499 0.950 . S
C522 C523 1.349 . S
C522 C524 1.327 . S
C522 H547 0.950 . S
C523 C522 1.349 . S
C523 C539 1.349 . S
C524 C522 1.327 . S
C524 C543 1.429 . S
C524 H548 0.950 . S
C525 C542 1.574 . S
C525 C544 1.368 . S
C525 H549 0.949 . S
H526 C530 0.949 . S
C527 C528 1.349 . S
C527 C529 1.327 . S
C527 H550 0.950 . S
C528 C527 1.349 . S
C528 C540 1.349 . S
C529 C527 1.327 . S
C529 C545 1.429 . S
C529 H551 0.950 . S
C530 H526 0.949 . S
C530 C538 1.574 . S
C530 C546 1.368 . S
H531 C539 0.950 . S
H532 C537 0.950 . S
H533 C538 0.949 . S
H534 C540 0.950 . S
H535 C541 0.950 . S
H536 C542 0.949 . S
C537 H532 0.950 . S
C537 C539 1.327 . S
C537 C543 1.429 . S
C538 C530 1.574 . S
C538 H533 0.949 . S
C538 C544 1.368 . S
C539 C523 1.349 . S
C539 H531 0.950 . S
C539 C537 1.327 . S
C540 C528 1.349 . S
C540 H534 0.950 . S
C540 C541 1.327 . S
C541 H535 0.950 . S
C541 C540 1.327 . S
C541 C545 1.429 . S
C542 C525 1.574 . S
C542 H536 0.949 . S
C542 C546 1.368 . S
C543 C524 1.429 . S
C543 C537 1.429 . S
C543 C544 1.523 . S
C544 C525 1.368 . S
C544 C538 1.368 . S
C544 C543 1.523 . S
C545 C529 1.429 . S
C545 C541 1.429 . S
C545 C546 1.523 . S
C546 C530 1.368 . S
C546 C542 1.368 . S
C546 C545 1.523 . S
H547 C522 0.950 . S
H548 C524 0.950 . S
H549 C525 0.949 . S
H550 C527 0.950 . S
H551 C529 0.950 . S
C552 C553 1.349 . S
C552 C554 1.327 . S
C552 H577 0.950 . S
C553 C552 1.349 . S
C553 C569 1.349 . S
C554 C552 1.327 . S
C554 C573 1.429 . S
C554 H578 0.950 . S
C555 C572 1.574 . S
C555 C574 1.368 . S
C555 H579 0.949 . S
H556 C560 0.949 . S
C557 C558 1.349 . S
C557 C559 1.327 . S
C557 H580 0.950 . S
C558 C557 1.349 . S
C558 C570 1.349 . S
C559 C557 1.327 . S
C559 C575 1.429 . S
C559 H581 0.950 . S
C560 H556 0.949 . S
C560 C568 1.574 . S
C560 C576 1.368 . S
H561 C569 0.950 . S
H562 C567 0.950 . S
H563 C568 0.949 . S
H564 C570 0.950 . S
H565 C571 0.950 . S
H566 C572 0.949 . S
C567 H562 0.950 . S
C567 C569 1.327 . S
C567 C573 1.429 . S
C568 C560 1.574 . S
C568 H563 0.949 . S
C568 C574 1.368 . S
C569 C553 1.349 . S
C569 H561 0.950 . S
C569 C567 1.327 . S
C570 C558 1.349 . S
C570 H564 0.950 . S
C570 C571 1.327 . S
C571 H565 0.950 . S
C571 C570 1.327 . S
C571 C575 1.429 . S
C572 C555 1.574 . S
C572 H566 0.949 . S
C572 C576 1.368 . S
C573 C554 1.429 . S
C573 C567 1.429 . S
C573 C574 1.523 . S
C574 C555 1.368 . S
C574 C568 1.368 . S
C574 C573 1.523 . S
C575 C559 1.429 . S
C575 C571 1.429 . S
C575 C576 1.523 . S
C576 C560 1.368 . S
C576 C572 1.368 . S
C576 C575 1.523 . S
H577 C552 0.950 . S
H578 C554 0.950 . S
H579 C555 0.949 . S
H580 C557 0.950 . S
H581 C559 0.950 . S
C582 C583 1.349 . S
C582 C584 1.327 . S
C582 H607 0.950 . S
C583 C582 1.349 . S
C583 C599 1.349 . S
C584 C582 1.327 . S
C584 C603 1.429 . S
C584 H608 0.950 . S
C585 C602 1.574 . S
C585 C604 1.368 . S
C585 H609 0.949 . S
H586 C590 0.949 . S
C587 C588 1.349 . S
C587 C589 1.327 . S
C587 H610 0.950 . S
C588 C587 1.349 . S
C588 C600 1.349 . S
C589 C587 1.327 . S
C589 C605 1.429 . S
C589 H611 0.950 . S
C590 H586 0.949 . S
C590 C598 1.574 . S
C590 C606 1.368 . S
H591 C599 0.950 . S
H592 C597 0.950 . S
H593 C598 0.949 . S
H594 C600 0.950 . S
H595 C601 0.950 . S
H596 C602 0.949 . S
C597 H592 0.950 . S
C597 C599 1.327 . S
C597 C603 1.429 . S
C598 C590 1.574 . S
C598 H593 0.949 . S
C598 C604 1.368 . S
C599 C583 1.349 . S
C599 H591 0.950 . S
C599 C597 1.327 . S
C600 C588 1.349 . S
C600 H594 0.950 . S
C600 C601 1.327 . S
C601 H595 0.950 . S
C601 C600 1.327 . S
C601 C605 1.429 . S
C602 C585 1.574 . S
C602 H596 0.949 . S
C602 C606 1.368 . S
C603 C584 1.429 . S
C603 C597 1.429 . S
C603 C604 1.523 . S
C604 C585 1.368 . S
C604 C598 1.368 . S
C604 C603 1.523 . S
C605 C589 1.429 . S
C605 C601 1.429 . S
C605 C606 1.523 . S
C606 C590 1.368 . S
C606 C602 1.368 . S
C606 C605 1.523 . S
H607 C582 0.950 . S
H608 C584 0.950 . S
H609 C585 0.949 . S
H610 C587 0.950 . S
H611 C589 0.950 . S
C612 C613 1.349 . S
C612 C614 1.327 . S
C612 H637 0.950 . S
C613 C612 1.349 . S
C613 C629 1.349 . S
C614 C612 1.327 . S
C614 C633 1.429 . S
C614 H638 0.950 . S
C615 C632 1.574 . S
C615 C634 1.368 . S
C615 H639 0.949 . S
H616 C620 0.949 . S
C617 C618 1.349 . S
C617 C619 1.327 . S
C617 H640 0.950 . S
C618 C617 1.349 . S
C618 C630 1.349 . S
C619 C617 1.327 . S
C619 C635 1.429 . S
C619 H641 0.950 . S
C620 H616 0.949 . S
C620 C628 1.574 . S
C620 C636 1.368 . S
H621 C629 0.950 . S
H622 C627 0.950 . S
H623 C628 0.949 . S
H624 C630 0.950 . S
H625 C631 0.950 . S
H626 C632 0.949 . S
C627 H622 0.950 . S
C627 C629 1.327 . S
C627 C633 1.429 . S
C628 C620 1.574 . S
C628 H623 0.949 . S
C628 C634 1.368 . S
C629 C613 1.349 . S
C629 H621 0.950 . S
C629 C627 1.327 . S
C630 C618 1.349 . S
C630 H624 0.950 . S
C630 C631 1.327 . S
C631 H625 0.950 . S
C631 C630 1.327 . S
C631 C635 1.429 . S
C632 C615 1.574 . S
C632 H626 0.949 . S
C632 C636 1.368 . S
C633 C614 1.429 . S
C633 C627 1.429 . S
C633 C634 1.523 . S
C634 C615 1.368 . S
C634 C628 1.368 . S
C634 C633 1.523 . S
C635 C619 1.429 . S
C635 C631 1.429 . S
C635 C636 1.523 . S
C636 C620 1.368 . S
C636 C632 1.368 . S
C636 C635 1.523 . S
H637 C612 0.950 . S
H638 C614 0.950 . S
H639 C615 0.949 . S
H640 C617 0.950 . S
H641 C619 0.950 . S
C642 C643 1.349 . S
C642 C644 1.327 . S
C642 H667 0.950 . S
C643 C642 1.349 . S
C643 C659 1.349 . S
C644 C642 1.327 . S
C644 C663 1.429 . S
C644 H668 0.950 . S
C645 C662 1.574 . S
C645 C664 1.368 . S
C645 H669 0.949 . S
H646 C650 0.949 . S
C647 C648 1.349 . S
C647 C649 1.327 . S
C647 H670 0.950 . S
C648 C647 1.349 . S
C648 C660 1.349 . S
C649 C647 1.327 . S
C649 C665 1.429 . S
C649 H671 0.950 . S
C650 H646 0.949 . S
C650 C658 1.574 . S
C650 C666 1.368 . S
H651 C659 0.950 . S
H652 C657 0.950 . S
H653 C658 0.949 . S
H654 C660 0.950 . S
H655 C661 0.950 . S
H656 C662 0.949 . S
C657 H652 0.950 . S
C657 C659 1.327 . S
C657 C663 1.429 . S
C658 C650 1.574 . S
C658 H653 0.949 . S
C658 C664 1.368 . S
C659 C643 1.349 . S
C659 H651 0.950 . S
C659 C657 1.327 . S
C660 C648 1.349 . S
C660 H654 0.950 . S
C660 C661 1.327 . S
C661 H655 0.950 . S
C661 C660 1.327 . S
C661 C665 1.429 . S
C662 C645 1.574 . S
C662 H656 0.949 . S
C662 C666 1.368 . S
C663 C644 1.429 . S
C663 C657 1.429 . S
C663 C664 1.523 . S
C664 C645 1.368 . S
C664 C658 1.368 . S
C664 C663 1.523 . S
C665 C649 1.429 . S
C665 C661 1.429 . S
C665 C666 1.523 . S
C666 C650 1.368 . S
C666 C662 1.368 . S
C666 C665 1.523 . S
H667 C642 0.950 . S
H668 C644 0.950 . S
H669 C645 0.949 . S
H670 C647 0.950 . S
H671 C649 0.950 . S
C672 C673 1.349 . S
C672 C674 1.327 . S
C672 H697 0.950 . S
C673 C672 1.349 . S
C673 C689 1.349 . S
C674 C672 1.327 . S
C674 C693 1.429 . S
C674 H698 0.950 . S
C675 C692 1.574 . S
C675 C694 1.368 . S
C675 H699 0.949 . S
H676 C680 0.949 . S
C677 C678 1.349 . S
C677 C679 1.327 . S
C677 H700 0.950 . S
C678 C677 1.349 . S
C678 C690 1.349 . S
C679 C677 1.327 . S
C679 C695 1.429 . S
C679 H701 0.950 . S
C680 H676 0.949 . S
C680 C688 1.574 . S
C680 C696 1.368 . S
H681 C689 0.950 . S
H682 C687 0.950 . S
H683 C688 0.949 . S
H684 C690 0.950 . S
H685 C691 0.950 . S
H686 C692 0.949 . S
C687 H682 0.950 . S
C687 C689 1.327 . S
C687 C693 1.429 . S
C688 C680 1.574 . S
C688 H683 0.949 . S
C688 C694 1.368 . S
C689 C673 1.349 . S
C689 H681 0.950 . S
C689 C687 1.327 . S
C690 C678 1.349 . S
C690 H684 0.950 . S
C690 C691 1.327 . S
C691 H685 0.950 . S
C691 C690 1.327 . S
C691 C695 1.429 . S
C692 C675 1.574 . S
C692 H686 0.949 . S
C692 C696 1.368 . S
C693 C674 1.429 . S
C693 C687 1.429 . S
C693 C694 1.523 . S
C694 C675 1.368 . S
C694 C688 1.368 . S
C694 C693 1.523 . S
C695 C679 1.429 . S
C695 C691 1.429 . S
C695 C696 1.523 . S
C696 C680 1.368 . S
C696 C692 1.368 . S
C696 C695 1.523 . S
H697 C672 0.950 . S
H698 C674 0.950 . S
H699 C675 0.949 . S
H700 C677 0.950 . S
H701 C679 0.950 . S
C702 C703 1.349 . S
C702 C704 1.327 . S
C702 H727 0.950 . S
C703 C702 1.349 . S
C703 C719 1.349 . S
C704 C702 1.327 . S
C704 C723 1.429 . S
C704 H728 0.950 . S
C705 C722 1.574 . S
C705 C724 1.368 . S
C705 H729 0.949 . S
H706 C710 0.949 . S
C707 C708 1.349 . S
C707 C709 1.327 . S
C707 H730 0.950 . S
C708 C707 1.349 . S
C708 C720 1.349 . S
C709 C707 1.327 . S
C709 C725 1.429 . S
C709 H731 0.950 . S
C710 H706 0.949 . S
C710 C718 1.574 . S
C710 C726 1.368 . S
H711 C719 0.950 . S
H712 C717 0.950 . S
H713 C718 0.949 . S
H714 C720 0.950 . S
H715 C721 0.950 . S
H716 C722 0.949 . S
C717 H712 0.950 . S
C717 C719 1.327 . S
C717 C723 1.429 . S
C718 C710 1.574 . S
C718 H713 0.949 . S
C718 C724 1.368 . S
C719 C703 1.349 . S
C719 H711 0.950 . S
C719 C717 1.327 . S
C720 C708 1.349 . S
C720 H714 0.950 . S
C720 C721 1.327 . S
C721 H715 0.950 . S
C721 C720 1.327 . S
C721 C725 1.429 . S
C722 C705 1.574 . S
C722 H716 0.949 . S
C722 C726 1.368 . S
C723 C704 1.429 . S
C723 C717 1.429 . S
C723 C724 1.523 . S
C724 C705 1.368 . S
C724 C718 1.368 . S
C724 C723 1.523 . S
C725 C709 1.429 . S
C725 C721 1.429 . S
C725 C726 1.523 . S
C726 C710 1.368 . S
C726 C722 1.368 . S
C726 C725 1.523 . S
H727 C702 0.950 . S
H728 C704 0.950 . S
H729 C705 0.949 . S
H730 C707 0.950 . S
H731 C709 0.950 . S
C732 C733 1.349 . S
C732 C734 1.327 . S
C732 H757 0.950 . S
C733 C732 1.349 . S
C733 C749 1.349 . S
C734 C732 1.327 . S
C734 C753 1.429 . S
C734 H758 0.950 . S
C735 C752 1.574 . S
C735 C754 1.368 . S
C735 H759 0.949 . S
H736 C740 0.949 . S
C737 C738 1.349 . S
C737 C739 1.327 . S
C737 H760 0.950 . S
C738 C737 1.349 . S
C738 C750 1.349 . S
C739 C737 1.327 . S
C739 C755 1.429 . S
C739 H761 0.950 . S
C740 H736 0.949 . S
C740 C748 1.574 . S
C740 C756 1.368 . S
H741 C749 0.950 . S
H742 C747 0.950 . S
H743 C748 0.949 . S
H744 C750 0.950 . S
H745 C751 0.950 . S
H746 C752 0.949 . S
C747 H742 0.950 . S
C747 C749 1.327 . S
C747 C753 1.429 . S
C748 C740 1.574 . S
C748 H743 0.949 . S
C748 C754 1.368 . S
C749 C733 1.349 . S
C749 H741 0.950 . S
C749 C747 1.327 . S
C750 C738 1.349 . S
C750 H744 0.950 . S
C750 C751 1.327 . S
C751 H745 0.950 . S
C751 C750 1.327 . S
C751 C755 1.429 . S
C752 C735 1.574 . S
C752 H746 0.949 . S
C752 C756 1.368 . S
C753 C734 1.429 . S
C753 C747 1.429 . S
C753 C754 1.523 . S
C754 C735 1.368 . S
C754 C748 1.368 . S
C754 C753 1.523 . S
C755 C739 1.429 . S
C755 C751 1.429 . S
C755 C756 1.523 . S
C756 C740 1.368 . S
C756 C752 1.368 . S
C756 C755 1.523 . S
H757 C732 0.950 . S
H758 C734 0.950 . S
H759 C735 0.949 . S
H760 C737 0.950 . S
H761 C739 0.950 . S
C762 C763 1.349 . S
C762 C764 1.327 . S
C762 H787 0.950 . S
C763 C762 1.349 . S
C763 C779 1.349 . S
C764 C762 1.327 . S
C764 C783 1.429 . S
C764 H788 0.950 . S
C765 C782 1.574 . S
C765 C784 1.368 . S
C765 H789 0.949 . S
H766 C770 0.949 . S
C767 C768 1.349 . S
C767 C769 1.327 . S
C767 H790 0.950 . S
C768 C767 1.349 . S
C768 C780 1.349 . S
C769 C767 1.327 . S
C769 C785 1.429 . S
C769 H791 0.950 . S
C770 H766 0.949 . S
C770 C778 1.574 . S
C770 C786 1.368 . S
H771 C779 0.950 . S
H772 C777 0.950 . S
H773 C778 0.949 . S
H774 C780 0.950 . S
H775 C781 0.950 . S
H776 C782 0.949 . S
C777 H772 0.950 . S
C777 C779 1.327 . S
C777 C783 1.429 . S
C778 C770 1.574 . S
C778 H773 0.949 . S
C778 C784 1.368 . S
C779 C763 1.349 . S
C779 H771 0.950 . S
C779 C777 1.327 . S
C780 C768 1.349 . S
C780 H774 0.950 . S
C780 C781 1.327 . S
C781 H775 0.950 . S
C781 C780 1.327 . S
C781 C785 1.429 . S
C782 C765 1.574 . S
C782 H776 0.949 . S
C782 C786 1.368 . S
C783 C764 1.429 . S
C783 C777 1.429 . S
C783 C784 1.523 . S
C784 C765 1.368 . S
C784 C778 1.368 . S
C784 C783 1.523 . S
C785 C769 1.429 . S
C785 C781 1.429 . S
C785 C786 1.523 . S
C786 C770 1.368 . S
C786 C782 1.368 . S
C786 C785 1.523 . S
H787 C762 0.950 . S
H788 C764 0.950 . S
H789 C765 0.949 . S
H790 C767 0.950 . S
H791 C769 0.950 . S
C792 C793 1.349 . S
C792 C794 1.327 . S
C792 H817 0.950 . S
C793 C792 1.349 . S
C793 C809 1.349 . S
C794 C792 1.327 . S
C794 C813 1.429 . S
C794 H818 0.950 . S
C795 C812 1.574 . S
C795 C814 1.368 . S
C795 H819 0.949 . S
H796 C800 0.949 . S
C797 C798 1.349 . S
C797 C799 1.327 . S
C797 H820 0.950 . S
C798 C797 1.349 . S
C798 C810 1.349 . S
C799 C797 1.327 . S
C799 C815 1.429 . S
C799 H821 0.950 . S
C800 H796 0.949 . S
C800 C808 1.574 . S
C800 C816 1.368 . S
H801 C809 0.950 . S
H802 C807 0.950 . S
H803 C808 0.949 . S
H804 C810 0.950 . S
H805 C811 0.950 . S
H806 C812 0.949 . S
C807 H802 0.950 . S
C807 C809 1.327 . S
C807 C813 1.429 . S
C808 C800 1.574 . S
C808 H803 0.949 . S
C808 C814 1.368 . S
C809 C793 1.349 . S
C809 H801 0.950 . S
C809 C807 1.327 . S
C810 C798 1.349 . S
C810 H804 0.950 . S
C810 C811 1.327 . S
C811 H805 0.950 . S
C811 C810 1.327 . S
C811 C815 1.429 . S
C812 C795 1.574 . S
C812 H806 0.949 . S
C812 C816 1.368 . S
C813 C794 1.429 . S
C813 C807 1.429 . S
C813 C814 1.523 . S
C814 C795 1.368 . S
C814 C808 1.368 . S
C814 C813 1.523 . S
C815 C799 1.429 . S
C815 C811 1.429 . S
C815 C816 1.523 . S
C816 C800 1.368 . S
C816 C812 1.368 . S
C816 C815 1.523 . S
H817 C792 0.950 . S
H818 C794 0.950 . S
H819 C795 0.949 . S
H820 C797 0.950 . S
H821 C799 0.950 . S
C822 C823 1.349 . S
C822 C824 1.327 . S
C822 H847 0.950 . S
C823 C822 1.349 . S
C823 C839 1.349 . S
C824 C822 1.327 . S
C824 C843 1.429 . S
C824 H848 0.950 . S
C825 C842 1.574 . S
C825 C844 1.368 . S
C825 H849 0.949 . S
H826 C830 0.949 . S
C827 C828 1.349 . S
C827 C829 1.327 . S
C827 H850 0.950 . S
C828 C827 1.349 . S
C828 C840 1.349 . S
C829 C827 1.327 . S
C829 C845 1.429 . S
C829 H851 0.950 . S
C830 H826 0.949 . S
C830 C838 1.574 . S
C830 C846 1.368 . S
H831 C839 0.950 . S
H832 C837 0.950 . S
H833 C838 0.949 . S
H834 C840 0.950 . S
H835 C841 0.950 . S
H836 C842 0.949 . S
C837 H832 0.950 . S
C837 C839 1.327 . S
C837 C843 1.429 . S
C838 C830 1.574 . S
C838 H833 0.949 . S
C838 C844 1.368 . S
C839 C823 1.349 . S
C839 H831 0.950 . S
C839 C837 1.327 . S
C840 C828 1.349 . S
C840 H834 0.950 . S
C840 C841 1.327 . S
C841 H835 0.950 . S
C841 C840 1.327 . S
C841 C845 1.429 . S
C842 C825 1.574 . S
C842 H836 0.949 . S
C842 C846 1.368 . S
C843 C824 1.429 . S
C843 C837 1.429 . S
C843 C844 1.523 . S
C844 C825 1.368 . S
C844 C838 1.368 . S
C844 C843 1.523 . S
C845 C829 1.429 . S
C845 C841 1.429 . S
C845 C846 1.523 . S
C846 C830 1.368 . S
C846 C842 1.368 . S
C846 C845 1.523 . S
H847 C822 0.950 . S
H848 C824 0.950 . S
H849 C825 0.949 . S
H850 C827 0.950 . S
H851 C829 0.950 . S
C852 C853 1.349 . S
C852 C854 1.327 . S
C852 H877 0.950 . S
C853 C852 1.349 . S
C853 C869 1.349 . S
C854 C852 1.327 . S
C854 C873 1.429 . S
C854 H878 0.950 . S
C855 C872 1.574 . S
C855 C874 1.368 . S
C855 H879 0.949 . S
H856 C860 0.949 . S
C857 C858 1.349 . S
C857 C859 1.327 . S
C857 H880 0.950 . S
C858 C857 1.349 . S
C858 C870 1.349 . S
C859 C857 1.327 . S
C859 C875 1.429 . S
C859 H881 0.950 . S
C860 H856 0.949 . S
C860 C868 1.574 . S
C860 C876 1.368 . S
H861 C869 0.950 . S
H862 C867 0.950 . S
H863 C868 0.949 . S
H864 C870 0.950 . S
H865 C871 0.950 . S
H866 C872 0.949 . S
C867 H862 0.950 . S
C867 C869 1.327 . S
C867 C873 1.429 . S
C868 C860 1.574 . S
C868 H863 0.949 . S
C868 C874 1.368 . S
C869 C853 1.349 . S
C869 H861 0.950 . S
C869 C867 1.327 . S
C870 C858 1.349 . S
C870 H864 0.950 . S
C870 C871 1.327 . S
C871 H865 0.950 . S
C871 C870 1.327 . S
C871 C875 1.429 . S
C872 C855 1.574 . S
C872 H866 0.949 . S
C872 C876 1.368 . S
C873 C854 1.429 . S
C873 C867 1.429 . S
C873 C874 1.523 . S
C874 C855 1.368 . S
C874 C868 1.368 . S
C874 C873 1.523 . S
C875 C859 1.429 . S
C875 C871 1.429 . S
C875 C876 1.523 . S
C876 C860 1.368 . S
C876 C872 1.368 . S
C876 C875 1.523 . S
H877 C852 0.950 . S
H878 C854 0.950 . S
H879 C855 0.949 . S
H880 C857 0.950 . S
H881 C859 0.950 . S
C882 C883 1.349 . S
C882 C884 1.327 . S
C882 H907 0.950 . S
C883 C882 1.349 . S
C883 C899 1.349 . S
C884 C882 1.327 . S
C884 C903 1.429 . S
C884 H908 0.950 . S
C885 C902 1.574 . S
C885 C904 1.368 . S
C885 H909 0.949 . S
H886 C890 0.949 . S
C887 C888 1.349 . S
C887 C889 1.327 . S
C887 H910 0.950 . S
C888 C887 1.349 . S
C888 C900 1.349 . S
C889 C887 1.327 . S
C889 C905 1.429 . S
C889 H911 0.950 . S
C890 H886 0.949 . S
C890 C898 1.574 . S
C890 C906 1.368 . S
H891 C899 0.950 . S
H892 C897 0.950 . S
H893 C898 0.949 . S
H894 C900 0.950 . S
H895 C901 0.950 . S
H896 C902 0.949 . S
C897 H892 0.950 . S
C897 C899 1.327 . S
C897 C903 1.429 . S
C898 C890 1.574 . S
C898 H893 0.949 . S
C898 C904 1.368 . S
C899 C883 1.349 . S
C899 H891 0.950 . S
C899 C897 1.327 . S
C900 C888 1.349 . S
C900 H894 0.950 . S
C900 C901 1.327 . S
C901 H895 0.950 . S
C901 C900 1.327 . S
C901 C905 1.429 . S
C902 C885 1.574 . S
C902 H896 0.949 . S
C902 C906 1.368 . S
C903 C884 1.429 . S
C903 C897 1.429 . S
C903 C904 1.523 . S
C904 C885 1.368 . S
C904 C898 1.368 . S
C904 C903 1.523 . S
C905 C889 1.429 . S
C905 C901 1.429 . S
C905 C906 1.523 . S
C906 C890 1.368 . S
C906 C902 1.368 . S
C906 C905 1.523 . S
H907 C882 0.950 . S
H908 C884 0.950 . S
H909 C885 0.949 . S
H910 C887 0.950 . S
H911 C889 0.950 . S
C912 C913 1.349 . S
C912 C914 1.327 . S
C912 H937 0.950 . S
C913 C912 1.349 . S
C913 C929 1.349 . S
C914 C912 1.327 . S
C914 C933 1.429 . S
C914 H938 0.950 . S
C915 C932 1.574 . S
C915 C934 1.368 . S
C915 H939 0.949 . S
H916 C920 0.949 . S
C917 C918 1.349 . S
C917 C919 1.327 . S
C917 H940 0.950 . S
C918 C917 1.349 . S
C918 C930 1.349 . S
C919 C917 1.327 . S
C919 C935 1.429 . S
C919 H941 0.950 . S
C920 H916 0.949 . S
C920 C928 1.574 . S
C920 C936 1.368 . S
H921 C929 0.950 . S
H922 C927 0.950 . S
H923 C928 0.949 . S
H924 C930 0.950 . S
H925 C931 0.950 . S
H926 C932 0.949 . S
C927 H922 0.950 . S
C927 C929 1.327 . S
C927 C933 1.429 . S
C928 C920 1.574 . S
C928 H923 0.949 . S
C928 C934 1.368 . S
C929 C913 1.349 . S
C929 H921 0.950 . S
C929 C927 1.327 . S
C930 C918 1.349 . S
C930 H924 0.950 . S
C930 C931 1.327 . S
C931 H925 0.950 . S
C931 C930 1.327 . S
C931 C935 1.429 . S
C932 C915 1.574 . S
C932 H926 0.949 . S
C932 C936 1.368 . S
C933 C914 1.429 . S
C933 C927 1.429 . S
C933 C934 1.523 . S
C934 C915 1.368 . S
C934 C928 1.368 . S
C934 C933 1.523 . S
C935 C919 1.429 . S
C935 C931 1.429 . S
C935 C936 1.523 . S
C936 C920 1.368 . S
C936 C932 1.368 . S
C936 C935 1.523 . S
H937 C912 0.950 . S
H938 C914 0.950 . S
H939 C915 0.949 . S
H940 C917 0.950 . S
H941 C919 0.950 . S
C942 C943 1.349 . S
C942 C944 1.327 . S
C942 H967 0.950 . S
C943 C942 1.349 . S
C943 C959 1.349 . S
C944 C942 1.327 . S
C944 C963 1.429 . S
C944 H968 0.950 . S
C945 C962 1.574 . S
C945 C964 1.368 . S
C945 H969 0.949 . S
H946 C950 0.949 . S
C947 C948 1.349 . S
C947 C949 1.327 . S
C947 H970 0.950 . S
C948 C947 1.349 . S
C948 C960 1.349 . S
C949 C947 1.327 . S
C949 C965 1.429 . S
C949 H971 0.950 . S
C950 H946 0.949 . S
C950 C958 1.574 . S
C950 C966 1.368 . S
H951 C959 0.950 . S
H952 C957 0.950 . S
H953 C958 0.949 . S
H954 C960 0.950 . S
H955 C961 0.950 . S
H956 C962 0.949 . S
C957 H952 0.950 . S
C957 C959 1.327 . S
C957 C963 1.429 . S
C958 C950 1.574 . S
C958 H953 0.949 . S
C958 C964 1.368 . S
C959 C943 1.349 . S
C959 H951 0.950 . S
C959 C957 1.327 . S
C960 C948 1.349 . S
C960 H954 0.950 . S
C960 C961 1.327 . S
C961 H955 0.950 . S
C961 C960 1.327 . S
C961 C965 1.429 . S
C962 C945 1.574 . S
C962 H956 0.949 . S
C962 C966 1.368 . S
C963 C944 1.429 . S
C963 C957 1.429 . S
C963 C964 1.523 . S
C964 C945 1.368 . S
C964 C958 1.368 . S
C964 C963 1.523 . S
C965 C949 1.429 . S
C965 C961 1.429 . S
C965 C966 1.523 . S
C966 C950 1.368 . S
C966 C962 1.368 . S
C966 C965 1.523 . S
H967 C942 0.950 . S
H968 C944 0.950 . S
H969 C945 0.949 . S
H970 C947 0.950 . S
H971 C949 0.950 . S
C972 C973 1.349 . S
C972 C974 1.327 . S
C972 H997 0.950 . S
C973 C972 1.349 . S
C973 C989 1.349 . S
C974 C972 1.327 . S
C974 C993 1.429 . S
C974 H998 0.950 . S
C975 C992 1.574 . S
C975 C994 1.368 . S
C975 H999 0.949 . S
H976 C980 0.949 . S
C977 C978 1.349 . S
C977 C979 1.327 . S
C977 H1000 0.950 . S
C978 C977 1.349 . S
C978 C990 1.349 . S
C979 C977 1.327 . S
C979 C995 1.429 . S
C979 H1001 0.950 . S
C980 H976 0.949 . S
C980 C988 1.574 . S
C980 C996 1.368 . S
H981 C989 0.950 . S
H982 C987 0.950 . S
H983 C988 0.949 . S
H984 C990 0.950 . S
H985 C991 0.950 . S
H986 C992 0.949 . S
C987 H982 0.950 . S
C987 C989 1.327 . S
C987 C993 1.429 . S
C988 C980 1.574 . S
C988 H983 0.949 . S
C988 C994 1.368 . S
C989 C973 1.349 . S
C989 H981 0.950 . S
C989 C987 1.327 . S
C990 C978 1.349 . S
C990 H984 0.950 . S
C990 C991 1.327 . S
C991 H985 0.950 . S
C991 C990 1.327 . S
C991 C995 1.429 . S
C992 C975 1.574 . S
C992 H986 0.949 . S
C992 C996 1.368 . S
C993 C974 1.429 . S
C993 C987 1.429 . S
C993 C994 1.523 . S
C994 C975 1.368 . S
C994 C988 1.368 . S
C994 C993 1.523 . S
C995 C979 1.429 . S
C995 C991 1.429 . S
C995 C996 1.523 . S
C996 C980 1.368 . S
C996 C992 1.368 . S
C996 C995 1.523 . S
H997 C972 0.950 . S
H998 C974 0.950 . S
H999 C975 0.949 . S
H1000 C977 0.950 . S
H1001 C979 0.950 . S
C1002 C1003 1.349 . S
C1002 C1004 1.327 . S
C1002 H1027 0.950 . S
C1003 C1002 1.349 . S
C1003 C1019 1.349 . S
C1004 C1002 1.327 . S
C1004 C1023 1.429 . S
C1004 H1028 0.950 . S
C1005 C1022 1.574 . S
C1005 C1024 1.368 . S
C1005 H1029 0.949 . S
H1006 C1010 0.949 . S
C1007 C1008 1.349 . S
C1007 C1009 1.327 . S
C1007 H1030 0.950 . S
C1008 C1007 1.349 . S
C1008 C1020 1.349 . S
C1009 C1007 1.327 . S
C1009 C1025 1.429 . S
C1009 H1031 0.950 . S
C1010 H1006 0.949 . S
C1010 C1018 1.574 . S
C1010 C1026 1.368 . S
H1011 C1019 0.950 . S
H1012 C1017 0.950 . S
H1013 C1018 0.949 . S
H1014 C1020 0.950 . S
H1015 C1021 0.950 . S
H1016 C1022 0.949 . S
C1017 H1012 0.950 . S
C1017 C1019 1.327 . S
C1017 C1023 1.429 . S
C1018 C1010 1.574 . S
C1018 H1013 0.949 . S
C1018 C1024 1.368 . S
C1019 C1003 1.349 . S
C1019 H1011 0.950 . S
C1019 C1017 1.327 . S
C1020 C1008 1.349 . S
C1020 H1014 0.950 . S
C1020 C1021 1.327 . S
C1021 H1015 0.950 . S
C1021 C1020 1.327 . S
C1021 C1025 1.429 . S
C1022 C1005 1.574 . S
C1022 H1016 0.949 . S
C1022 C1026 1.368 . S
C1023 C1004 1.429 . S
C1023 C1017 1.429 . S
C1023 C1024 1.523 . S
C1024 C1005 1.368 . S
C1024 C1018 1.368 . S
C1024 C1023 1.523 . S
C1025 C1009 1.429 . S
C1025 C1021 1.429 . S
C1025 C1026 1.523 . S
C1026 C1010 1.368 . S
C1026 C1022 1.368 . S
C1026 C1025 1.523 . S
H1027 C1002 0.950 . S
H1028 C1004 0.950 . S
H1029 C1005 0.949 . S
H1030 C1007 0.950 . S
H1031 C1009 0.950 . S
C1032 C1033 1.349 . S
C1032 C1034 1.327 . S
C1032 H1057 0.950 . S
C1033 C1032 1.349 . S
C1033 C1049 1.349 . S
C1034 C1032 1.327 . S
C1034 C1053 1.429 . S
C1034 H1058 0.950 . S
C1035 C1052 1.574 . S
C1035 C1054 1.368 . S
C1035 H1059 0.949 . S
H1036 C1040 0.949 . S
C1037 C1038 1.349 . S
C1037 C1039 1.327 . S
C1037 H1060 0.950 . S
C1038 C1037 1.349 . S
C1038 C1050 1.349 . S
C1039 C1037 1.327 . S
C1039 C1055 1.429 . S
C1039 H1061 0.950 . S
C1040 H1036 0.949 . S
C1040 C1048 1.574 . S
C1040 C1056 1.368 . S
H1041 C1049 0.950 . S
H1042 C1047 0.950 . S
H1043 C1048 0.949 . S
H1044 C1050 0.950 . S
H1045 C1051 0.950 . S
H1046 C1052 0.949 . S
C1047 H1042 0.950 . S
C1047 C1049 1.327 . S
C1047 C1053 1.429 . S
C1048 C1040 1.574 . S
C1048 H1043 0.949 . S
C1048 C1054 1.368 . S
C1049 C1033 1.349 . S
C1049 H1041 0.950 . S
C1049 C1047 1.327 . S
C1050 C1038 1.349 . S
C1050 H1044 0.950 . S
C1050 C1051 1.327 . S
C1051 H1045 0.950 . S
C1051 C1050 1.327 . S
C1051 C1055 1.429 . S
C1052 C1035 1.574 . S
C1052 H1046 0.949 . S
C1052 C1056 1.368 . S
C1053 C1034 1.429 . S
C1053 C1047 1.429 . S
C1053 C1054 1.523 . S
C1054 C1035 1.368 . S
C1054 C1048 1.368 . S
C1054 C1053 1.523 . S
C1055 C1039 1.429 . S
C1055 C1051 1.429 . S
C1055 C1056 1.523 . S
C1056 C1040 1.368 . S
C1056 C1052 1.368 . S
C1056 C1055 1.523 . S
H1057 C1032 0.950 . S
H1058 C1034 0.950 . S
H1059 C1035 0.949 . S
H1060 C1037 0.950 . S
H1061 C1039 0.950 . S
C1062 C1063 1.349 . S
C1062 C1064 1.327 . S
C1062 H1087 0.950 . S
C1063 C1062 1.349 . S
C1063 C1079 1.349 . S
C1064 C1062 1.327 . S
C1064 C1083 1.429 1_554 S
C1064 H1088 0.950 1_554 S
C1065 C1082 1.574 . S
C1065 C1084 1.368 . S
C1065 H1089 0.949 . S
H1066 C1070 0.949 . S
C1067 C1068 1.349 . S
C1067 C1069 1.327 . S
C1067 H1090 0.950 . S
C1068 C1067 1.349 . S
C1068 C1080 1.349 . S
C1069 C1067 1.327 . S
C1069 C1085 1.429 . S
C1069 H1091 0.950 . S
C1070 H1066 0.949 . S
C1070 C1078 1.574 . S
C1070 C1086 1.368 . S
H1071 C1079 0.950 . S
H1072 C1077 0.950 . S
H1073 C1078 0.949 . S
H1074 C1080 0.950 . S
H1075 C1081 0.950 . S
H1076 C1082 0.949 . S
C1077 H1072 0.950 . S
C1077 C1079 1.327 1_556 S
C1077 C1083 1.429 . S
C1078 C1070 1.574 . S
C1078 H1073 0.949 . S
C1078 C1084 1.368 . S
C1079 C1063 1.349 . S
C1079 H1071 0.950 . S
C1079 C1077 1.327 1_554 S
C1080 C1068 1.349 . S
C1080 H1074 0.950 . S
C1080 C1081 1.327 . S
C1081 H1075 0.950 . S
C1081 C1080 1.327 . S
C1081 C1085 1.429 . S
C1082 C1065 1.574 . S
C1082 H1076 0.949 . S
C1082 C1086 1.368 . S
C1083 C1064 1.429 1_556 S
C1083 C1077 1.429 . S
C1083 C1084 1.523 . S
C1084 C1065 1.368 . S
C1084 C1078 1.368 . S
C1084 C1083 1.523 . S
C1085 C1069 1.429 . S
C1085 C1081 1.429 . S
C1085 C1086 1.523 . S
C1086 C1070 1.368 . S
C1086 C1082 1.368 . S
C1086 C1085 1.523 . S
H1087 C1062 0.950 . S
H1088 C1064 0.950 1_556 S
H1089 C1065 0.949 . S
H1090 C1067 0.950 . S
H1091 C1069 0.950 . S
C1092 C1093 1.349 . S
C1092 C1094 1.327 . S
C1092 H1117 0.950 . S
C1093 C1092 1.349 . S
C1093 C1109 1.349 . S
C1094 C1092 1.327 . S
C1094 C1113 1.429 . S
C1094 H1118 0.950 . S
C1095 C1112 1.574 . S
C1095 C1114 1.368 . S
C1095 H1119 0.949 . S
H1096 C1100 0.949 . S
C1097 C1098 1.349 . S
C1097 C1099 1.327 . S
C1097 H1120 0.950 . S
C1098 C1097 1.349 . S
C1098 C1110 1.349 . S
C1099 C1097 1.327 . S
C1099 C1115 1.429 . S
C1099 H1121 0.950 . S
C1100 H1096 0.949 . S
C1100 C1108 1.574 . S
C1100 C1116 1.368 . S
H1101 C1109 0.950 . S
H1102 C1107 0.950 . S
H1103 C1108 0.949 . S
H1104 C1110 0.950 . S
H1105 C1111 0.950 . S
H1106 C1112 0.949 . S
C1107 H1102 0.950 . S
C1107 C1109 1.327 . S
C1107 C1113 1.429 . S
C1108 C1100 1.574 . S
C1108 H1103 0.949 . S
C1108 C1114 1.368 . S
C1109 C1093 1.349 . S
C1109 H1101 0.950 . S
C1109 C1107 1.327 . S
C1110 C1098 1.349 . S
C1110 H1104 0.950 . S
C1110 C1111 1.327 . S
C1111 H1105 0.950 . S
C1111 C1110 1.327 . S
C1111 C1115 1.429 . S
C1112 C1095 1.574 . S
C1112 H1106 0.949 . S
C1112 C1116 1.368 . S
C1113 C1094 1.429 . S
C1113 C1107 1.429 . S
C1113 C1114 1.523 . S
C1114 C1095 1.368 . S
C1114 C1108 1.368 . S
C1114 C1113 1.523 . S
C1115 C1099 1.429 . S
C1115 C1111 1.429 . S
C1115 C1116 1.523 . S
C1116 C1100 1.368 . S
C1116 C1112 1.368 . S
C1116 C1115 1.523 . S
H1117 C1092 0.950 . S
H1118 C1094 0.950 . S
H1119 C1095 0.949 . S
H1120 C1097 0.950 . S
H1121 C1099 0.950 . S
C1122 C1123 1.349 . S
C1122 C1124 1.327 . S
C1122 H1147 0.950 . S
C1123 C1122 1.349 . S
C1123 C1139 1.349 . S
C1124 C1122 1.327 . S
C1124 C1143 1.429 . S
C1124 H1148 0.950 . S
C1125 C1142 1.574 . S
C1125 C1144 1.368 . S
C1125 H1149 0.949 . S
H1126 C1130 0.949 . S
C1127 C1128 1.349 . S
C1127 C1129 1.327 . S
C1127 H1150 0.950 . S
C1128 C1127 1.349 . S
C1128 C1140 1.349 . S
C1129 C1127 1.327 . S
C1129 C1145 1.429 1_556 S
C1129 H1151 0.950 1_556 S
C1130 H1126 0.949 . S
C1130 C1138 1.574 . S
C1130 C1146 1.368 . S
H1131 C1139 0.950 . S
H1132 C1137 0.950 . S
H1133 C1138 0.949 . S
H1134 C1140 0.950 . S
H1135 C1141 0.950 . S
H1136 C1142 0.949 . S
C1137 H1132 0.950 . S
C1137 C1139 1.327 . S
C1137 C1143 1.429 . S
C1138 C1130 1.574 . S
C1138 H1133 0.949 . S
C1138 C1144 1.368 . S
C1139 C1123 1.349 . S
C1139 H1131 0.950 . S
C1139 C1137 1.327 . S
C1140 C1128 1.349 . S
C1140 H1134 0.950 . S
C1140 C1141 1.327 1_556 S
C1141 H1135 0.950 . S
C1141 C1140 1.327 1_554 S
C1141 C1145 1.429 . S
C1142 C1125 1.574 . S
C1142 H1136 0.949 . S
C1142 C1146 1.368 . S
C1143 C1124 1.429 . S
C1143 C1137 1.429 . S
C1143 C1144 1.523 . S
C1144 C1125 1.368 . S
C1144 C1138 1.368 . S
C1144 C1143 1.523 . S
C1145 C1129 1.429 1_554 S
C1145 C1141 1.429 . S
C1145 C1146 1.523 . S
C1146 C1130 1.368 . S
C1146 C1142 1.368 . S
C1146 C1145 1.523 . S
H1147 C1122 0.950 . S
H1148 C1124 0.950 . S
H1149 C1125 0.949 . S
H1150 C1127 0.950 . S
H1151 C1129 0.950 1_554 S
C1152 C1153 1.349 . S
C1152 C1154 1.327 . S
C1152 H1177 0.950 . S
C1153 C1152 1.349 . S
C1153 C1169 1.349 . S
C1154 C1152 1.327 . S
C1154 C1173 1.429 . S
C1154 H1178 0.950 . S
C1155 C1172 1.574 . S
C1155 C1174 1.368 . S
C1155 H1179 0.949 . S
H1156 C1160 0.949 . S
C1157 C1158 1.349 . S
C1157 C1159 1.327 . S
C1157 H1180 0.950 . S
C1158 C1157 1.349 . S
C1158 C1170 1.349 . S
C1159 C1157 1.327 . S
C1159 C1175 1.429 . S
C1159 H1181 0.950 . S
C1160 H1156 0.949 . S
C1160 C1168 1.574 . S
C1160 C1176 1.368 . S
H1161 C1169 0.950 . S
H1162 C1167 0.950 . S
H1163 C1168 0.949 . S
H1164 C1170 0.950 . S
H1165 C1171 0.950 . S
H1166 C1172 0.949 . S
C1167 H1162 0.950 . S
C1167 C1169 1.327 . S
C1167 C1173 1.429 . S
C1168 C1160 1.574 . S
C1168 H1163 0.949 . S
C1168 C1174 1.368 . S
C1169 C1153 1.349 . S
C1169 H1161 0.950 . S
C1169 C1167 1.327 . S
C1170 C1158 1.349 . S
C1170 H1164 0.950 . S
C1170 C1171 1.327 . S
C1171 H1165 0.950 . S
C1171 C1170 1.327 . S
C1171 C1175 1.429 . S
C1172 C1155 1.574 . S
C1172 H1166 0.949 . S
C1172 C1176 1.368 . S
C1173 C1154 1.429 . S
C1173 C1167 1.429 . S
C1173 C1174 1.523 . S
C1174 C1155 1.368 . S
C1174 C1168 1.368 . S
C1174 C1173 1.523 . S
C1175 C1159 1.429 . S
C1175 C1171 1.429 . S
C1175 C1176 1.523 . S
C1176 C1160 1.368 . S
C1176 C1172 1.368 . S
C1176 C1175 1.523 . S
H1177 C1152 0.950 . S
H1178 C1154 0.950 . S
H1179 C1155 0.949 . S
H1180 C1157 0.950 . S
H1181 C1159 0.950 . S
C1182 C1183 1.349 . S
C1182 C1184 1.327 . S
C1182 H1207 0.950 . S
C1183 C1182 1.349 . S
C1183 C1199 1.349 . S
C1184 C1182 1.327 . S
C1184 C1203 1.429 1_655 S
C1184 H1208 0.950 . S
C1185 C1202 1.574 . S
C1185 C1204 1.368 . S
C1185 H1209 0.949 . S
H1186 C1190 0.949 . S
C1187 C1188 1.349 . S
C1187 C1189 1.327 . S
C1187 H1210 0.950 . S
C1188 C1187 1.349 . S
C1188 C1200 1.349 . S
C1189 C1187 1.327 . S
C1189 C1205 1.429 . S
C1189 H1211 0.950 . S
C1190 H1186 0.949 . S
C1190 C1198 1.574 . S
C1190 C1206 1.368 . S
H1191 C1199 0.950 . S
H1192 C1197 0.950 1_455 S
H1193 C1198 0.949 . S
H1194 C1200 0.950 . S
H1195 C1201 0.950 . S
H1196 C1202 0.949 . S
C1197 H1192 0.950 1_655 S
C1197 C1199 1.327 . S
C1197 C1203 1.429 1_655 S
C1198 C1190 1.574 . S
C1198 H1193 0.949 . S
C1198 C1204 1.368 . S
C1199 C1183 1.349 . S
C1199 H1191 0.950 . S
C1199 C1197 1.327 . S
C1200 C1188 1.349 . S
C1200 H1194 0.950 . S
C1200 C1201 1.327 . S
C1201 H1195 0.950 . S
C1201 C1200 1.327 . S
C1201 C1205 1.429 . S
C1202 C1185 1.574 . S
C1202 H1196 0.949 . S
C1202 C1206 1.368 . S
C1203 C1184 1.429 1_455 S
C1203 C1197 1.429 1_455 S
C1203 C1204 1.523 . S
C1204 C1185 1.368 . S
C1204 C1198 1.368 . S
C1204 C1203 1.523 . S
C1205 C1189 1.429 . S
C1205 C1201 1.429 . S
C1205 C1206 1.523 . S
C1206 C1190 1.368 . S
C1206 C1202 1.368 . S
C1206 C1205 1.523 . S
H1207 C1182 0.950 . S
H1208 C1184 0.950 . S
H1209 C1185 0.949 . S
H1210 C1187 0.950 . S
H1211 C1189 0.950 . S
C1212 C1213 1.349 . S
C1212 C1214 1.327 . S
C1212 H1237 0.950 . S
C1213 C1212 1.349 . S
C1213 C1229 1.349 . S
C1214 C1212 1.327 . S
C1214 C1233 1.429 1_455 S
C1214 H1238 0.950 1_455 S
C1215 C1232 1.574 . S
C1215 C1234 1.368 . S
C1215 H1239 0.949 . S
H1216 C1220 0.949 . S
C1217 C1218 1.349 . S
C1217 C1219 1.327 . S
C1217 H1240 0.950 . S
C1218 C1217 1.349 . S
C1218 C1230 1.349 . S
C1219 C1217 1.327 . S
C1219 C1235 1.429 . S
C1219 H1241 0.950 . S
C1220 H1216 0.949 . S
C1220 C1228 1.574 . S
C1220 C1236 1.368 . S
H1221 C1229 0.950 . S
H1222 C1227 0.950 . S
H1223 C1228 0.949 . S
H1224 C1230 0.950 . S
H1225 C1231 0.950 . S
H1226 C1232 0.949 . S
C1227 H1222 0.950 . S
C1227 C1229 1.327 . S
C1227 C1233 1.429 1_455 S
C1228 C1220 1.574 . S
C1228 H1223 0.949 . S
C1228 C1234 1.368 . S
C1229 C1213 1.349 . S
C1229 H1221 0.950 . S
C1229 C1227 1.327 . S
C1230 C1218 1.349 . S
C1230 H1224 0.950 . S
C1230 C1231 1.327 . S
C1231 H1225 0.950 . S
C1231 C1230 1.327 . S
C1231 C1235 1.429 . S
C1232 C1215 1.574 . S
C1232 H1226 0.949 . S
C1232 C1236 1.368 . S
C1233 C1214 1.429 1_655 S
C1233 C1227 1.429 1_655 S
C1233 C1234 1.523 . S
C1234 C1215 1.368 . S
C1234 C1228 1.368 . S
C1234 C1233 1.523 . S
C1235 C1219 1.429 . S
C1235 C1231 1.429 . S
C1235 C1236 1.523 . S
C1236 C1220 1.368 . S
C1236 C1232 1.368 . S
C1236 C1235 1.523 . S
H1237 C1212 0.950 . S
H1238 C1214 0.950 1_655 S
H1239 C1215 0.949 . S
H1240 C1217 0.950 . S
H1241 C1219 0.950 . S
C1242 C1243 1.349 . S
C1242 C1244 1.327 . S
C1242 H1267 0.950 . S
C1243 C1242 1.349 . S
C1243 C1259 1.349 . S
C1244 C1242 1.327 . S
C1244 C1263 1.429 . S
C1244 H1268 0.950 . S
C1245 C1262 1.574 . S
C1245 C1264 1.368 . S
C1245 H1269 0.949 . S
H1246 C1250 0.949 . S
C1247 C1248 1.349 . S
C1247 C1249 1.327 . S
C1247 H1270 0.950 . S
C1248 C1247 1.349 . S
C1248 C1260 1.349 . S
C1249 C1247 1.327 . S
C1249 C1265 1.429 . S
C1249 H1271 0.950 . S
C1250 H1246 0.949 . S
C1250 C1258 1.574 . S
C1250 C1266 1.368 . S
H1251 C1259 0.950 . S
H1252 C1257 0.950 . S
H1253 C1258 0.949 . S
H1254 C1260 0.950 . S
H1255 C1261 0.950 . S
H1256 C1262 0.949 . S
C1257 H1252 0.950 . S
C1257 C1259 1.327 . S
C1257 C1263 1.429 . S
C1258 C1250 1.574 . S
C1258 H1253 0.949 . S
C1258 C1264 1.368 . S
C1259 C1243 1.349 . S
C1259 H1251 0.950 . S
C1259 C1257 1.327 . S
C1260 C1248 1.349 . S
C1260 H1254 0.950 . S
C1260 C1261 1.327 . S
C1261 H1255 0.950 . S
C1261 C1260 1.327 . S
C1261 C1265 1.429 . S
C1262 C1245 1.574 . S
C1262 H1256 0.949 . S
C1262 C1266 1.368 . S
C1263 C1244 1.429 . S
C1263 C1257 1.429 . S
C1263 C1264 1.523 . S
C1264 C1245 1.368 . S
C1264 C1258 1.368 . S
C1264 C1263 1.523 . S
C1265 C1249 1.429 . S
C1265 C1261 1.429 . S
C1265 C1266 1.523 . S
C1266 C1250 1.368 . S
C1266 C1262 1.368 . S
C1266 C1265 1.523 . S
H1267 C1242 0.950 . S
H1268 C1244 0.950 . S
H1269 C1245 0.949 . S
H1270 C1247 0.950 . S
H1271 C1249 0.950 . S
C1272 C1273 1.349 . S
C1272 C1274 1.327 . S
C1272 H1297 0.950 . S
C1273 C1272 1.349 . S
C1273 C1289 1.349 . S
C1274 C1272 1.327 . S
C1274 C1293 1.429 . S
C1274 H1298 0.950 . S
C1275 C1292 1.574 . S
C1275 C1294 1.368 . S
C1275 H1299 0.949 . S
H1276 C1280 0.949 . S
C1277 C1278 1.349 . S
C1277 C1279 1.327 . S
C1277 H1300 0.950 . S
C1278 C1277 1.349 . S
C1278 C1290 1.349 . S
C1279 C1277 1.327 . S
C1279 C1295 1.429 . S
C1279 H1301 0.950 . S
C1280 H1276 0.949 . S
C1280 C1288 1.574 . S
C1280 C1296 1.368 . S
H1281 C1289 0.950 . S
H1282 C1287 0.950 . S
H1283 C1288 0.949 . S
H1284 C1290 0.950 . S
H1285 C1291 0.950 . S
H1286 C1292 0.949 . S
C1287 H1282 0.950 . S
C1287 C1289 1.327 . S
C1287 C1293 1.429 . S
C1288 C1280 1.574 . S
C1288 H1283 0.949 . S
C1288 C1294 1.368 . S
C1289 C1273 1.349 . S
C1289 H1281 0.950 . S
C1289 C1287 1.327 . S
C1290 C1278 1.349 . S
C1290 H1284 0.950 . S
C1290 C1291 1.327 . S
C1291 H1285 0.950 . S
C1291 C1290 1.327 . S
C1291 C1295 1.429 . S
C1292 C1275 1.574 . S
C1292 H1286 0.949 . S
C1292 C1296 1.368 . S
C1293 C1274 1.429 . S
C1293 C1287 1.429 . S
C1293 C1294 1.523 . S
C1294 C1275 1.368 . S
C1294 C1288 1.368 . S
C1294 C1293 1.523 . S
C1295 C1279 1.429 . S
C1295 C1291 1.429 . S
C1295 C1296 1.523 . S
C1296 C1280 1.368 . S
C1296 C1292 1.368 . S
C1296 C1295 1.523 . S
H1297 C1272 0.950 . S
H1298 C1274 0.950 . S
H1299 C1275 0.949 . S
H1300 C1277 0.950 . S
H1301 C1279 0.950 . S
C1302 C1303 1.349 . S
C1302 C1304 1.327 . S
C1302 H1327 0.950 . S
C1303 C1302 1.349 . S
C1303 C1319 1.349 . S
C1304 C1302 1.327 . S
C1304 C1323 1.429 1_565 S
C1304 H1328 0.940 1_565 S
C1305 C1322 1.574 . S
C1305 C1324 1.368 . S
C1305 H1329 0.949 . S
H1306 C1310 0.949 . S
C1307 C1308 1.349 . S
C1307 C1309 1.327 . S
C1307 H1330 0.950 . S
C1308 C1307 1.349 . S
C1308 C1320 1.349 . S
C1309 C1307 1.327 . S
C1309 C1325 1.429 . S
C1309 H1331 0.950 . S
C1310 H1306 0.949 . S
C1310 C1318 1.574 . S
C1310 C1326 1.368 . S
H1311 C1319 0.950 . S
H1312 C1317 0.950 . S
H1313 C1318 0.949 . S
H1314 C1320 0.950 . S
H1315 C1321 0.950 . S
H1316 C1322 0.949 . S
C1317 H1312 0.950 . S
C1317 C1319 1.327 1_545 S
C1317 C1323 1.429 . S
C1318 C1310 1.574 . S
C1318 H1313 0.949 . S
C1318 C1324 1.368 . S
C1319 C1303 1.349 . S
C1319 H1311 0.950 . S
C1319 C1317 1.327 1_565 S
C1320 C1308 1.349 . S
C1320 H1314 0.950 . S
C1320 C1321 1.327 . S
C1321 H1315 0.950 . S
C1321 C1320 1.327 . S
C1321 C1325 1.429 . S
C1322 C1305 1.574 . S
C1322 H1316 0.949 . S
C1322 C1326 1.368 . S
C1323 C1304 1.429 1_545 S
C1323 C1317 1.429 . S
C1323 C1324 1.523 . S
C1324 C1305 1.368 . S
C1324 C1318 1.368 . S
C1324 C1323 1.523 . S
C1325 C1309 1.429 . S
C1325 C1321 1.429 . S
C1325 C1326 1.523 . S
C1326 C1310 1.368 . S
C1326 C1322 1.368 . S
C1326 C1325 1.523 . S
H1327 C1302 0.950 . S
H1328 C1304 0.940 1_545 S
H1329 C1305 0.949 . S
H1330 C1307 0.950 . S
H1331 C1309 0.950 . S
C1332 C1333 1.349 . S
C1332 C1334 1.327 1_545 S
C1332 H1357 0.950 . S
C1333 C1332 1.349 . S
C1333 C1349 1.349 . S
C1334 C1332 1.327 1_565 S
C1334 C1353 1.429 . S
C1334 H1358 0.950 . S
C1335 C1352 1.574 . S
C1335 C1354 1.368 . S
C1335 H1359 0.949 . S
H1336 C1340 0.949 . S
C1337 C1338 1.349 . S
C1337 C1339 1.327 . S
C1337 H1360 0.950 . S
C1338 C1337 1.349 . S
C1338 C1350 1.349 . S
C1339 C1337 1.327 . S
C1339 C1355 1.429 . S
C1339 H1361 0.950 . S
C1340 H1336 0.949 . S
C1340 C1348 1.574 . S
C1340 C1356 1.368 . S
H1341 C1349 0.950 . S
H1342 C1347 0.950 . S
H1343 C1348 0.949 . S
H1344 C1350 0.950 . S
H1345 C1351 0.950 . S
H1346 C1352 0.949 . S
C1347 H1342 0.950 . S
C1347 C1349 1.327 1_565 S
C1347 C1353 1.429 . S
C1348 C1340 1.574 . S
C1348 H1343 0.949 . S
C1348 C1354 1.368 . S
C1349 C1333 1.349 . S
C1349 H1341 0.950 . S
C1349 C1347 1.327 1_545 S
C1350 C1338 1.349 . S
C1350 H1344 0.950 . S
C1350 C1351 1.327 . S
C1351 H1345 0.950 . S
C1351 C1350 1.327 . S
C1351 C1355 1.429 . S
C1352 C1335 1.574 . S
C1352 H1346 0.949 . S
C1352 C1356 1.368 . S
C1353 C1334 1.429 . S
C1353 C1347 1.429 . S
C1353 C1354 1.523 . S
C1354 C1335 1.368 . S
C1354 C1348 1.368 . S
C1354 C1353 1.523 . S
C1355 C1339 1.429 . S
C1355 C1351 1.429 . S
C1355 C1356 1.523 . S
C1356 C1340 1.368 . S
C1356 C1352 1.368 . S
C1356 C1355 1.523 . S
H1357 C1332 0.950 . S
H1358 C1334 0.950 . S
H1359 C1335 0.949 . S
H1360 C1337 0.950 . S
H1361 C1339 0.950 . S
C1362 C1363 1.349 . S
C1362 C1364 1.327 . S
C1362 H1387 0.950 . S
C1363 C1362 1.349 . S
C1363 C1379 1.349 . S
C1364 C1362 1.327 . S
C1364 C1383 1.429 . S
C1364 H1388 0.950 . S
C1365 C1382 1.574 . S
C1365 C1384 1.368 . S
C1365 H1389 0.949 . S
H1366 C1370 0.949 . S
C1367 C1368 1.349 . S
C1367 C1369 1.327 . S
C1367 H1390 0.950 . S
C1368 C1367 1.349 . S
C1368 C1380 1.349 . S
C1369 C1367 1.327 . S
C1369 C1385 1.429 . S
C1369 H1391 0.950 . S
C1370 H1366 0.949 . S
C1370 C1378 1.574 . S
C1370 C1386 1.368 . S
H1371 C1379 0.950 . S
H1372 C1377 0.950 . S
H1373 C1378 0.949 . S
H1374 C1380 0.950 . S
H1375 C1381 0.950 . S
H1376 C1382 0.949 . S
C1377 H1372 0.950 . S
C1377 C1379 1.327 . S
C1377 C1383 1.429 . S
C1378 C1370 1.574 . S
C1378 H1373 0.949 . S
C1378 C1384 1.368 . S
C1379 C1363 1.349 . S
C1379 H1371 0.950 . S
C1379 C1377 1.327 . S
C1380 C1368 1.349 . S
C1380 H1374 0.950 . S
C1380 C1381 1.327 . S
C1381 H1375 0.950 . S
C1381 C1380 1.327 . S
C1381 C1385 1.429 . S
C1382 C1365 1.574 . S
C1382 H1376 0.949 . S
C1382 C1386 1.368 . S
C1383 C1364 1.429 . S
C1383 C1377 1.429 . S
C1383 C1384 1.523 . S
C1384 C1365 1.368 . S
C1384 C1378 1.368 . S
C1384 C1383 1.523 . S
C1385 C1369 1.429 . S
C1385 C1381 1.429 . S
C1385 C1386 1.523 . S
C1386 C1370 1.368 . S
C1386 C1382 1.368 . S
C1386 C1385 1.523 . S
H1387 C1362 0.950 . S
H1388 C1364 0.950 . S
H1389 C1365 0.949 . S
H1390 C1367 0.950 . S
H1391 C1369 0.950 . S
C1392 C1393 1.349 . S
C1392 C1394 1.327 . S
C1392 H1417 0.950 . S
C1393 C1392 1.349 . S
C1393 C1409 1.349 . S
C1394 C1392 1.327 . S
C1394 C1413 1.429 . S
C1394 H1418 0.950 . S
C1395 C1412 1.574 . S
C1395 C1414 1.368 . S
C1395 H1419 0.949 . S
H1396 C1400 0.949 . S
C1397 C1398 1.349 . S
C1397 C1399 1.327 . S
C1397 H1420 0.950 . S
C1398 C1397 1.349 . S
C1398 C1410 1.349 . S
C1399 C1397 1.327 . S
C1399 C1415 1.429 . S
C1399 H1421 0.950 . S
C1400 H1396 0.949 . S
C1400 C1408 1.574 . S
C1400 C1416 1.368 . S
H1401 C1409 0.950 . S
H1402 C1407 0.950 . S
H1403 C1408 0.949 . S
H1404 C1410 0.950 . S
H1405 C1411 0.950 . S
H1406 C1412 0.949 . S
C1407 H1402 0.950 . S
C1407 C1409 1.327 . S
C1407 C1413 1.429 . S
C1408 C1400 1.574 . S
C1408 H1403 0.949 . S
C1408 C1414 1.368 . S
C1409 C1393 1.349 . S
C1409 H1401 0.950 . S
C1409 C1407 1.327 . S
C1410 C1398 1.349 . S
C1410 H1404 0.950 . S
C1410 C1411 1.327 . S
C1411 H1405 0.950 . S
C1411 C1410 1.327 . S
C1411 C1415 1.429 . S
C1412 C1395 1.574 . S
C1412 H1406 0.949 . S
C1412 C1416 1.368 . S
C1413 C1394 1.429 . S
C1413 C1407 1.429 . S
C1413 C1414 1.523 . S
C1414 C1395 1.368 . S
C1414 C1408 1.368 . S
C1414 C1413 1.523 . S
C1415 C1399 1.429 . S
C1415 C1411 1.429 . S
C1415 C1416 1.523 . S
C1416 C1400 1.368 . S
C1416 C1412 1.368 . S
C1416 C1415 1.523 . S
H1417 C1392 0.950 . S
H1418 C1394 0.950 . S
H1419 C1395 0.949 . S
H1420 C1397 0.950 . S
H1421 C1399 0.950 . S
C1422 C1423 1.349 . S
C1422 C1424 1.327 1_556 S
C1422 H1447 0.950 . S
C1423 C1422 1.349 . S
C1423 C1439 1.349 . S
C1424 C1422 1.327 1_554 S
C1424 C1443 1.429 . S
C1424 H1448 0.950 . S
C1425 C1442 1.574 . S
C1425 C1444 1.368 . S
C1425 H1449 0.949 . S
H1426 C1430 0.949 . S
C1427 C1428 1.349 . S
C1427 C1429 1.327 . S
C1427 H1450 0.950 . S
C1428 C1427 1.349 . S
C1428 C1440 1.349 . S
C1429 C1427 1.327 . S
C1429 C1445 1.429 . S
C1429 H1451 0.950 . S
C1430 H1426 0.949 . S
C1430 C1438 1.574 . S
C1430 C1446 1.368 . S
H1431 C1439 0.950 . S
H1432 C1437 0.950 1_554 S
H1433 C1438 0.949 . S
H1434 C1440 0.950 . S
H1435 C1441 0.950 . S
H1436 C1442 0.949 . S
C1437 H1432 0.950 1_556 S
C1437 C1439 1.327 . S
C1437 C1443 1.429 1_556 S
C1438 C1430 1.574 . S
C1438 H1433 0.949 . S
C1438 C1444 1.368 . S
C1439 C1423 1.349 . S
C1439 H1431 0.950 . S
C1439 C1437 1.327 . S
C1440 C1428 1.349 . S
C1440 H1434 0.950 . S
C1440 C1441 1.327 . S
C1441 H1435 0.950 . S
C1441 C1440 1.327 . S
C1441 C1445 1.429 . S
C1442 C1425 1.574 . S
C1442 H1436 0.949 . S
C1442 C1446 1.368 . S
C1443 C1424 1.429 . S
C1443 C1437 1.429 1_554 S
C1443 C1444 1.523 . S
C1444 C1425 1.368 . S
C1444 C1438 1.368 . S
C1444 C1443 1.523 . S
C1445 C1429 1.429 . S
C1445 C1441 1.429 . S
C1445 C1446 1.523 . S
C1446 C1430 1.368 . S
C1446 C1442 1.368 . S
C1446 C1445 1.523 . S
H1447 C1422 0.950 . S
H1448 C1424 0.950 . S
H1449 C1425 0.949 . S
H1450 C1427 0.950 . S
H1451 C1429 0.950 . S
C1452 C1453 1.349 . S
C1452 C1454 1.327 . S
C1452 H1477 0.950 . S
C1453 C1452 1.349 . S
C1453 C1469 1.349 . S
C1454 C1452 1.327 . S
C1454 C1473 1.429 . S
C1454 H1478 0.950 . S
C1455 C1472 1.574 . S
C1455 C1474 1.368 . S
C1455 H1479 0.949 . S
H1456 C1460 0.949 . S
C1457 C1458 1.349 . S
C1457 C1459 1.327 . S
C1457 H1480 0.950 . S
C1458 C1457 1.349 . S
C1458 C1470 1.349 . S
C1459 C1457 1.327 . S
C1459 C1475 1.429 . S
C1459 H1481 0.950 . S
C1460 H1456 0.949 . S
C1460 C1468 1.574 . S
C1460 C1476 1.368 . S
H1461 C1469 0.950 . S
H1462 C1467 0.950 . S
H1463 C1468 0.949 . S
H1464 C1470 0.950 . S
H1465 C1471 0.950 . S
H1466 C1472 0.949 . S
C1467 H1462 0.950 . S
C1467 C1469 1.327 . S
C1467 C1473 1.429 . S
C1468 C1460 1.574 . S
C1468 H1463 0.949 . S
C1468 C1474 1.368 . S
C1469 C1453 1.349 . S
C1469 H1461 0.950 . S
C1469 C1467 1.327 . S
C1470 C1458 1.349 . S
C1470 H1464 0.950 . S
C1470 C1471 1.327 . S
C1471 H1465 0.950 . S
C1471 C1470 1.327 . S
C1471 C1475 1.429 . S
C1472 C1455 1.574 . S
C1472 H1466 0.949 . S
C1472 C1476 1.368 . S
C1473 C1454 1.429 . S
C1473 C1467 1.429 . S
C1473 C1474 1.523 . S
C1474 C1455 1.368 . S
C1474 C1468 1.368 . S
C1474 C1473 1.523 . S
C1475 C1459 1.429 . S
C1475 C1471 1.429 . S
C1475 C1476 1.523 . S
C1476 C1460 1.368 . S
C1476 C1472 1.368 . S
C1476 C1475 1.523 . S
H1477 C1452 0.950 . S
H1478 C1454 0.950 . S
H1479 C1455 0.949 . S
H1480 C1457 0.950 . S
H1481 C1459 0.950 . S
C1482 C1483 1.349 . S
C1482 C1484 1.345 . S
C1482 H1507 0.950 . S
C1483 C1482 1.349 . S
C1483 C1499 1.349 . S
C1484 C1482 1.345 . S
C1484 C1503 1.417 1_554 S
C1484 H1508 0.943 1_554 S
C1485 C1502 1.574 . S
C1485 C1504 1.368 . S
C1485 H1509 0.949 . S
H1486 C1490 0.949 . S
C1487 C1488 1.349 . S
C1487 C1489 1.327 . S
C1487 H1510 0.950 . S
C1488 C1487 1.349 . S
C1488 C1500 1.349 . S
C1489 C1487 1.327 . S
C1489 C1505 1.429 . S
C1489 H1511 0.950 . S
C1490 H1486 0.949 . S
C1490 C1498 1.574 . S
C1490 C1506 1.368 . S
H1491 C1499 0.950 . S
H1492 C1497 0.950 . S
H1493 C1498 0.949 . S
H1494 C1500 0.950 . S
H1495 C1501 0.950 . S
H1496 C1502 0.949 . S
C1497 H1492 0.950 . S
C1497 C1499 1.327 1_556 S
C1497 C1503 1.429 . S
C1498 C1490 1.574 . S
C1498 H1493 0.949 . S
C1498 C1504 1.368 . S
C1499 C1483 1.349 . S
C1499 H1491 0.950 . S
C1499 C1497 1.327 1_554 S
C1500 C1488 1.349 . S
C1500 H1494 0.950 . S
C1500 C1501 1.327 . S
C1501 H1495 0.950 . S
C1501 C1500 1.327 . S
C1501 C1505 1.429 . S
C1502 C1485 1.574 . S
C1502 H1496 0.949 . S
C1502 C1506 1.368 . S
C1503 C1484 1.417 1_556 S
C1503 C1497 1.429 . S
C1503 C1504 1.523 . S
C1504 C1485 1.368 . S
C1504 C1498 1.368 . S
C1504 C1503 1.523 . S
C1505 C1489 1.429 . S
C1505 C1501 1.429 . S
C1505 C1506 1.523 . S
C1506 C1490 1.368 . S
C1506 C1502 1.368 . S
C1506 C1505 1.523 . S
H1507 C1482 0.950 . S
H1508 C1484 0.943 1_556 S
H1509 C1485 0.949 . S
H1510 C1487 0.950 . S
H1511 C1489 0.950 . S
C1512 C1513 1.349 . S
C1512 C1514 1.327 . S
C1512 H1537 0.950 . S
C1513 C1512 1.349 . S
C1513 C1529 1.349 . S
C1514 C1512 1.327 . S
C1514 C1533 1.429 . S
C1514 H1538 0.950 . S
C1515 C1532 1.574 . S
C1515 C1534 1.368 . S
C1515 H1539 0.949 . S
H1516 C1520 0.949 . S
C1517 C1518 1.349 . S
C1517 C1519 1.327 . S
C1517 H1540 0.950 . S
C1518 C1517 1.349 . S
C1518 C1530 1.349 . S
C1519 C1517 1.327 . S
C1519 C1535 1.429 . S
C1519 H1541 0.950 . S
C1520 H1516 0.949 . S
C1520 C1528 1.574 . S
C1520 C1536 1.368 . S
H1521 C1529 0.950 . S
H1522 C1527 0.950 . S
H1523 C1528 0.949 . S
H1524 C1530 0.950 . S
H1525 C1531 0.950 . S
H1526 C1532 0.949 . S
C1527 H1522 0.950 . S
C1527 C1529 1.327 . S
C1527 C1533 1.429 . S
C1528 C1520 1.574 . S
C1528 H1523 0.949 . S
C1528 C1534 1.368 . S
C1529 C1513 1.349 . S
C1529 H1521 0.950 . S
C1529 C1527 1.327 . S
C1530 C1518 1.349 . S
C1530 H1524 0.950 . S
C1530 C1531 1.327 . S
C1531 H1525 0.950 . S
C1531 C1530 1.327 . S
C1531 C1535 1.429 . S
C1532 C1515 1.574 . S
C1532 H1526 0.949 . S
C1532 C1536 1.368 . S
C1533 C1514 1.429 . S
C1533 C1527 1.429 . S
C1533 C1534 1.523 . S
C1534 C1515 1.368 . S
C1534 C1528 1.368 . S
C1534 C1533 1.523 . S
C1535 C1519 1.429 . S
C1535 C1531 1.429 . S
C1535 C1536 1.523 . S
C1536 C1520 1.368 . S
C1536 C1532 1.368 . S
C1536 C1535 1.523 . S
H1537 C1512 0.950 . S
H1538 C1514 0.950 . S
H1539 C1515 0.949 . S
H1540 C1517 0.950 . S
H1541 C1519 0.950 . S
C1542 C1543 1.349 . S
C1542 C1544 1.327 . S
C1542 H1567 0.950 . S
C1543 C1542 1.349 . S
C1543 C1559 1.349 . S
C1544 C1542 1.327 . S
C1544 C1563 1.429 . S
C1544 H1568 0.950 . S
C1545 C1562 1.574 . S
C1545 C1564 1.368 . S
C1545 H1569 0.949 . S
H1546 C1550 0.949 . S
C1547 C1548 1.349 . S
C1547 C1549 1.327 1_455 S
C1547 H1570 0.950 . S
C1548 C1547 1.349 . S
C1548 C1560 1.349 . S
C1549 C1547 1.327 1_655 S
C1549 C1565 1.429 . S
C1549 H1571 0.950 . S
C1550 H1546 0.949 . S
C1550 C1558 1.574 . S
C1550 C1566 1.368 . S
H1551 C1559 0.950 . S
H1552 C1557 0.950 . S
H1553 C1558 0.949 . S
H1554 C1560 0.950 . S
H1555 C1561 0.940 1_655 S
H1556 C1562 0.949 . S
C1557 H1552 0.950 . S
C1557 C1559 1.327 . S
C1557 C1563 1.429 . S
C1558 C1550 1.574 . S
C1558 H1553 0.949 . S
C1558 C1564 1.368 . S
C1559 C1543 1.349 . S
C1559 H1551 0.950 . S
C1559 C1557 1.327 . S
C1560 C1548 1.349 . S
C1560 H1554 0.950 . S
C1560 C1561 1.327 . S
C1561 H1555 0.940 1_455 S
C1561 C1560 1.327 . S
C1561 C1565 1.429 1_455 S
C1562 C1545 1.574 . S
C1562 H1556 0.949 . S
C1562 C1566 1.368 . S
C1563 C1544 1.429 . S
C1563 C1557 1.429 . S
C1563 C1564 1.523 . S
C1564 C1545 1.368 . S
C1564 C1558 1.368 . S
C1564 C1563 1.523 . S
C1565 C1549 1.429 . S
C1565 C1561 1.429 1_655 S
C1565 C1566 1.523 . S
C1566 C1550 1.368 . S
C1566 C1562 1.368 . S
C1566 C1565 1.523 . S
H1567 C1542 0.950 . S
H1568 C1544 0.950 . S
H1569 C1545 0.949 . S
H1570 C1547 0.950 . S
H1571 C1549 0.950 . S
C1572 C1573 1.349 . S
C1572 C1574 1.327 . S
C1572 H1597 0.950 . S
C1573 C1572 1.349 . S
C1573 C1589 1.349 . S
C1574 C1572 1.327 . S
C1574 C1593 1.429 . S
C1574 H1598 0.950 . S
C1575 C1592 1.574 . S
C1575 C1594 1.368 . S
C1575 H1599 0.949 . S
H1576 C1580 0.949 . S
C1577 C1578 1.349 . S
C1577 C1579 1.327 . S
C1577 H1600 0.950 . S
C1578 C1577 1.349 . S
C1578 C1590 1.349 . S
C1579 C1577 1.327 . S
C1579 C1595 1.429 1_655 S
C1579 H1601 0.940 1_655 S
C1580 H1576 0.949 . S
C1580 C1588 1.574 . S
C1580 C1596 1.368 . S
H1581 C1589 0.950 . S
H1582 C1587 0.950 . S
H1583 C1588 0.949 . S
H1584 C1590 0.950 . S
H1585 C1591 0.950 . S
H1586 C1592 0.949 . S
C1587 H1582 0.950 . S
C1587 C1589 1.327 . S
C1587 C1593 1.429 . S
C1588 C1580 1.574 . S
C1588 H1583 0.949 . S
C1588 C1594 1.368 . S
C1589 C1573 1.349 . S
C1589 H1581 0.950 . S
C1589 C1587 1.327 . S
C1590 C1578 1.349 . S
C1590 H1584 0.950 . S
C1590 C1591 1.327 1_655 S
C1591 H1585 0.950 . S
C1591 C1590 1.327 1_455 S
C1591 C1595 1.429 . S
C1592 C1575 1.574 . S
C1592 H1586 0.949 . S
C1592 C1596 1.368 . S
C1593 C1574 1.429 . S
C1593 C1587 1.429 . S
C1593 C1594 1.523 . S
C1594 C1575 1.368 . S
C1594 C1588 1.368 . S
C1594 C1593 1.523 . S
C1595 C1579 1.429 1_455 S
C1595 C1591 1.429 . S
C1595 C1596 1.523 . S
C1596 C1580 1.368 . S
C1596 C1592 1.368 . S
C1596 C1595 1.523 . S
H1597 C1572 0.950 . S
H1598 C1574 0.950 . S
H1599 C1575 0.949 . S
H1600 C1577 0.950 . S
H1601 C1579 0.940 1_455 S
C1602 C1603 1.349 . S
C1602 C1604 1.327 . S
C1602 H1627 0.950 . S
C1603 C1602 1.349 . S
C1603 C1619 1.349 . S
C1604 C1602 1.327 . S
C1604 C1623 1.429 . S
C1604 H1628 0.950 . S
C1605 C1622 1.574 . S
C1605 C1624 1.368 . S
C1605 H1629 0.949 . S
H1606 C1610 0.949 . S
C1607 C1608 1.349 . S
C1607 C1609 1.327 . S
C1607 H1630 0.950 . S
C1608 C1607 1.349 . S
C1608 C1620 1.349 . S
C1609 C1607 1.327 . S
C1609 C1625 1.429 . S
C1609 H1631 0.950 . S
C1610 H1606 0.949 . S
C1610 C1618 1.574 . S
C1610 C1626 1.368 . S
H1611 C1619 0.950 . S
H1612 C1617 0.950 . S
H1613 C1618 0.949 . S
H1614 C1620 0.950 . S
H1615 C1621 0.950 . S
H1616 C1622 0.949 . S
C1617 H1612 0.950 . S
C1617 C1619 1.327 . S
C1617 C1623 1.429 . S
C1618 C1610 1.574 . S
C1618 H1613 0.949 . S
C1618 C1624 1.368 . S
C1619 C1603 1.349 . S
C1619 H1611 0.950 . S
C1619 C1617 1.327 . S
C1620 C1608 1.349 . S
C1620 H1614 0.950 . S
C1620 C1621 1.327 . S
C1621 H1615 0.950 . S
C1621 C1620 1.327 . S
C1621 C1625 1.429 . S
C1622 C1605 1.574 . S
C1622 H1616 0.949 . S
C1622 C1626 1.368 . S
C1623 C1604 1.429 . S
C1623 C1617 1.429 . S
C1623 C1624 1.523 . S
C1624 C1605 1.368 . S
C1624 C1618 1.368 . S
C1624 C1623 1.523 . S
C1625 C1609 1.429 . S
C1625 C1621 1.429 . S
C1625 C1626 1.523 . S
C1626 C1610 1.368 . S
C1626 C1622 1.368 . S
C1626 C1625 1.523 . S
H1627 C1602 0.950 . S
H1628 C1604 0.950 . S
H1629 C1605 0.949 . S
H1630 C1607 0.950 . S
H1631 C1609 0.950 . S
C1632 C1633 1.349 . S
C1632 C1634 1.327 . S
C1632 H1657 0.950 . S
C1633 C1632 1.349 . S
C1633 C1649 1.349 . S
C1634 C1632 1.327 . S
C1634 C1653 1.429 . S
C1634 H1658 0.950 . S
C1635 C1652 1.574 . S
C1635 C1654 1.368 . S
C1635 H1659 0.949 . S
H1636 C1640 0.949 . S
C1637 C1638 1.349 . S
C1637 C1639 1.327 . S
C1637 H1660 0.950 . S
C1638 C1637 1.349 . S
C1638 C1650 1.349 . S
C1639 C1637 1.327 . S
C1639 C1655 1.429 . S
C1639 H1661 0.950 . S
C1640 H1636 0.949 . S
C1640 C1648 1.574 . S
C1640 C1656 1.368 . S
H1641 C1649 0.950 . S
H1642 C1647 0.950 . S
H1643 C1648 0.949 . S
H1644 C1650 0.950 . S
H1645 C1651 0.950 . S
H1646 C1652 0.949 . S
C1647 H1642 0.950 . S
C1647 C1649 1.327 . S
C1647 C1653 1.429 . S
C1648 C1640 1.574 . S
C1648 H1643 0.949 . S
C1648 C1654 1.368 . S
C1649 C1633 1.349 . S
C1649 H1641 0.950 . S
C1649 C1647 1.327 . S
C1650 C1638 1.349 . S
C1650 H1644 0.950 . S
C1650 C1651 1.327 . S
C1651 H1645 0.950 . S
C1651 C1650 1.327 . S
C1651 C1655 1.429 . S
C1652 C1635 1.574 . S
C1652 H1646 0.949 . S
C1652 C1656 1.368 . S
C1653 C1634 1.429 . S
C1653 C1647 1.429 . S
C1653 C1654 1.523 . S
C1654 C1635 1.368 . S
C1654 C1648 1.368 . S
C1654 C1653 1.523 . S
C1655 C1639 1.429 . S
C1655 C1651 1.429 . S
C1655 C1656 1.523 . S
C1656 C1640 1.368 . S
C1656 C1652 1.368 . S
C1656 C1655 1.523 . S
H1657 C1632 0.950 . S
H1658 C1634 0.950 . S
H1659 C1635 0.949 . S
H1660 C1637 0.950 . S
H1661 C1639 0.950 . S
C1662 C1663 1.349 . S
C1662 C1664 1.327 . S
C1662 H1687 0.950 . S
C1663 C1662 1.349 . S
C1663 C1679 1.349 . S
C1664 C1662 1.327 . S
C1664 C1683 1.429 . S
C1664 H1688 0.950 . S
C1665 C1682 1.574 . S
C1665 C1684 1.368 . S
C1665 H1689 0.949 . S
H1666 C1670 0.949 . S
C1667 C1668 1.349 . S
C1667 C1669 1.327 . S
C1667 H1690 0.950 . S
C1668 C1667 1.349 . S
C1668 C1680 1.349 . S
C1669 C1667 1.327 . S
C1669 C1685 1.429 1_545 S
C1669 H1691 0.950 . S
C1670 H1666 0.949 . S
C1670 C1678 1.574 . S
C1670 C1686 1.368 . S
H1671 C1679 0.950 . S
H1672 C1677 0.950 . S
H1673 C1678 0.949 . S
H1674 C1680 0.950 . S
H1675 C1681 0.972 . S
H1676 C1682 0.949 . S
C1677 H1672 0.950 . S
C1677 C1679 1.327 . S
C1677 C1683 1.429 . S
C1678 C1670 1.574 . S
C1678 H1673 0.949 . S
C1678 C1684 1.368 . S
C1679 C1663 1.349 . S
C1679 H1671 0.950 . S
C1679 C1677 1.327 . S
C1680 C1668 1.349 . S
C1680 H1674 0.950 . S
C1680 C1681 1.327 . S
C1681 H1675 0.972 . S
C1681 C1680 1.327 . S
C1681 C1685 1.429 1_545 S
C1682 C1665 1.574 . S
C1682 H1676 0.949 . S
C1682 C1686 1.368 . S
C1683 C1664 1.429 . S
C1683 C1677 1.429 . S
C1683 C1684 1.523 . S
C1684 C1665 1.368 . S
C1684 C1678 1.368 . S
C1684 C1683 1.523 . S
C1685 C1669 1.429 1_565 S
C1685 C1681 1.429 1_565 S
C1685 C1686 1.523 . S
C1686 C1670 1.368 . S
C1686 C1682 1.368 . S
C1686 C1685 1.523 . S
H1687 C1662 0.950 . S
H1688 C1664 0.950 . S
H1689 C1665 0.949 . S
H1690 C1667 0.950 . S
H1691 C1669 0.950 . S
C1692 C1693 1.349 . S
C1692 C1694 1.327 . S
C1692 H1717 0.950 . S
C1693 C1692 1.349 . S
C1693 C1709 1.349 . S
C1694 C1692 1.327 . S
C1694 C1713 1.429 1_565 S
C1694 H1718 0.950 1_565 S
C1695 C1712 1.574 . S
C1695 C1714 1.368 . S
C1695 H1719 0.949 . S
H1696 C1700 0.949 . S
C1697 C1698 1.349 . S
C1697 C1699 1.327 . S
C1697 H1720 0.950 . S
C1698 C1697 1.349 . S
C1698 C1710 1.349 . S
C1699 C1697 1.327 . S
C1699 C1715 1.429 . S
C1699 H1721 0.950 . S
C1700 H1696 0.949 . S
C1700 C1708 1.574 . S
C1700 C1716 1.368 . S
H1701 C1709 0.950 . S
H1702 C1707 0.950 . S
H1703 C1708 0.949 . S
H1704 C1710 0.950 . S
H1705 C1711 0.950 . S
H1706 C1712 0.949 . S
C1707 H1702 0.950 . S
C1707 C1709 1.327 . S
C1707 C1713 1.429 1_565 S
C1708 C1700 1.574 . S
C1708 H1703 0.949 . S
C1708 C1714 1.368 . S
C1709 C1693 1.349 . S
C1709 H1701 0.950 . S
C1709 C1707 1.327 . S
C1710 C1698 1.349 . S
C1710 H1704 0.950 . S
C1710 C1711 1.327 . S
C1711 H1705 0.950 . S
C1711 C1710 1.327 . S
C1711 C1715 1.429 . S
C1712 C1695 1.574 . S
C1712 H1706 0.949 . S
C1712 C1716 1.368 . S
C1713 C1694 1.429 1_545 S
C1713 C1707 1.429 1_545 S
C1713 C1714 1.523 . S
C1714 C1695 1.368 . S
C1714 C1708 1.368 . S
C1714 C1713 1.523 . S
C1715 C1699 1.429 . S
C1715 C1711 1.429 . S
C1715 C1716 1.523 . S
C1716 C1700 1.368 . S
C1716 C1712 1.368 . S
C1716 C1715 1.523 . S
H1717 C1692 0.950 . S
H1718 C1694 0.950 1_545 S
H1719 C1695 0.949 . S
H1720 C1697 0.950 . S
H1721 C1699 0.950 . S
C1722 C1723 1.349 . S
C1722 C1724 1.327 . S
C1722 H1747 0.950 . S
C1723 C1722 1.349 . S
C1723 C1739 1.349 . S
C1724 C1722 1.327 . S
C1724 C1743 1.429 . S
C1724 H1748 0.950 . S
C1725 C1742 1.574 . S
C1725 C1744 1.368 . S
C1725 H1749 0.949 . S
H1726 C1730 0.949 . S
C1727 C1728 1.349 . S
C1727 C1729 1.327 . S
C1727 H1750 0.950 . S
C1728 C1727 1.349 . S
C1728 C1740 1.349 . S
C1729 C1727 1.327 . S
C1729 C1745 1.429 . S
C1729 H1751 0.950 . S
C1730 H1726 0.949 . S
C1730 C1738 1.574 . S
C1730 C1746 1.368 . S
H1731 C1739 0.950 . S
H1732 C1737 0.950 . S
H1733 C1738 0.949 . S
H1734 C1740 0.950 . S
H1735 C1741 0.950 . S
H1736 C1742 0.949 . S
C1737 H1732 0.950 . S
C1737 C1739 1.327 . S
C1737 C1743 1.429 . S
C1738 C1730 1.574 . S
C1738 H1733 0.949 . S
C1738 C1744 1.368 . S
C1739 C1723 1.349 . S
C1739 H1731 0.950 . S
C1739 C1737 1.327 . S
C1740 C1728 1.349 . S
C1740 H1734 0.950 . S
C1740 C1741 1.327 . S
C1741 H1735 0.950 . S
C1741 C1740 1.327 . S
C1741 C1745 1.429 . S
C1742 C1725 1.574 . S
C1742 H1736 0.949 . S
C1742 C1746 1.368 . S
C1743 C1724 1.429 . S
C1743 C1737 1.429 . S
C1743 C1744 1.523 . S
C1744 C1725 1.368 . S
C1744 C1738 1.368 . S
C1744 C1743 1.523 . S
C1745 C1729 1.429 . S
C1745 C1741 1.429 . S
C1745 C1746 1.523 . S
C1746 C1730 1.368 . S
C1746 C1742 1.368 . S
C1746 C1745 1.523 . S
H1747 C1722 0.950 . S
H1748 C1724 0.950 . S
H1749 C1725 0.949 . S
H1750 C1727 0.950 . S
H1751 C1729 0.950 . S
C313 C109 0.727 . S
C318 C10 0.721 . S
C343 C23 0.721 . S
C348 C148 0.727 . S
C373 C36 0.721 . S
C378 C122 0.727 . S
C403 C49 0.721 . S
C408 C135 0.727 . S
C433 C57 0.714 . S
C438 C5 0.709 . S
C463 C18 0.709 . S
C468 C70 0.714 . S
C493 C83 0.714 . S
C498 C31 0.709 . S
C523 C44 0.709 . S
C528 C96 0.714 . S
C553 C62 0.673 . S
C558 C114 0.677 . S
C583 C88 0.673 . S
C588 C127 0.677 . S
C613 C140 0.677 . S
C618 C101 0.673 . S
C643 C75 0.673 . S
C648 C153 0.677 . S
C673 C265 0.707 . S
C678 C166 0.695 . S
C703 C179 0.695 . S
C708 C304 0.707 . S
C733 C192 0.695 . S
C738 C278 0.707 . S
C763 C291 0.707 . S
C768 C205 0.695 . S
C793 C218 0.682 . S
C798 C161 0.698 . S
C823 C174 0.698 . S
C828 C231 0.682 . S
C853 C187 0.698 . S
C858 C244 0.682 . S
C883 C257 0.682 . S
C888 C200 0.698 . S
C913 C270 0.763 . S
C918 C213 0.761 . S
C943 C239 0.761 . S
C948 C283 0.763 . S
C973 C252 0.761 . S
C978 C296 0.763 . S
C1003 C309 0.763 . S
C1008 C226 0.761 . S
C1033 C286 1.287 . S
C1038 C8 1.256 . S
C1063 C273 1.287 . S
C1068 C21 1.256 . S
C1093 C299 1.287 . S
C1098 C34 1.256 . S
C1123 C47 1.256 . S
C1128 C260 1.287 . S
C1153 C52 1.233 . S
C1158 C169 1.255 . S
C1183 C156 1.255 . S
C1188 C65 1.233 . S
C1213 C195 1.255 . S
C1218 C78 1.233 . S
C1243 C182 1.255 . S
C1248 C91 1.233 . S
C1273 C112 1.211 . S
C1278 C234 1.227 . S
C1303 C208 1.227 . S
C1308 C125 1.210 . S
C1333 C221 1.227 . S
C1338 C138 1.211 . S
C1363 C247 1.227 . S
C1368 C151 1.210 . S
C1393 C130 1.183 . S
C1398 C164 1.166 . S
C1423 C117 1.183 . S
C1428 C177 1.166 . S
C1453 C190 1.166 . S
C1458 C143 1.183 . S
C1483 C104 1.183 . S
C1488 C203 1.166 . S
C1513 C216 1.206 . S
C1518 C13 1.219 . S
C1543 C229 1.207 . S
C1548 C0 1.219 . S
C1573 C242 1.207 . S
C1578 C39 1.219 . S
C1603 C255 1.206 . S
C1608 C26 1.219 . S
C1633 C268 1.211 . S
C1638 C86 1.236 . S
C1663 C281 1.211 . S
C1668 C60 1.236 . S
C1693 C73 1.236 . S
C1698 C294 1.211 . S
C1723 C307 1.211 . S
C1728 C99 1.236 . S
