# Generated by pormake.
# Topology umv, (4)-cn, num edge types: 1
# Building blocks:
#     Node 0, Type 0, BuildingBlock: GALJAG_clean_sbu_0, # of connection points: 4
#     Node 1, Type 0, BuildingBlock: GALJAG_clean_sbu_0, # of connection points: 4
#     Node 2, Type 0, BuildingBlock: GALJAG_clean_sbu_0, # of connection points: 4
#     Node 3, Type 0, BuildingBlock: GALJAG_clean_sbu_0, # of connection points: 4
#     Node 4, Type 0, BuildingBlock: GALJAG_clean_sbu_0, # of connection points: 4
#     Node 5, Type 0, BuildingBlock: GALJAG_clean_sbu_0, # of connection points: 4
#     Node 6, Type 0, BuildingBlock: GALJAG_clean_sbu_0, # of connection points: 4
#     Node 7, Type 0, BuildingBlock: GALJAG_clean_sbu_0, # of connection points: 4
#     Node 8, Type 0, BuildingBlock: GALJAG_clean_sbu_0, # of connection points: 4
#     Node 9, Type 0, BuildingBlock: GALJAG_clean_sbu_0, # of connection points: 4
#     Node 10, Type 0, BuildingBlock: GALJAG_clean_sbu_0, # of connection points: 4
#     Node 11, Type 0, BuildingBlock: GALJAG_clean_sbu_0, # of connection points: 4
#     Node 12, Type 0, BuildingBlock: GALJAG_clean_sbu_0, # of connection points: 4
#     Node 13, Type 0, BuildingBlock: GALJAG_clean_sbu_0, # of connection points: 4
#     Node 14, Type 0, BuildingBlock: GALJAG_clean_sbu_0, # of connection points: 4
#     Node 15, Type 0, BuildingBlock: GALJAG_clean_sbu_0, # of connection points: 4
#     Node 16, Type 0, BuildingBlock: GALJAG_clean_sbu_0, # of connection points: 4
#     Node 17, Type 0, BuildingBlock: GALJAG_clean_sbu_0, # of connection points: 4
#     Node 18, Type 0, BuildingBlock: GALJAG_clean_sbu_0, # of connection points: 4
#     Node 19, Type 0, BuildingBlock: GALJAG_clean_sbu_0, # of connection points: 4
#     Node 20, Type 0, BuildingBlock: GALJAG_clean_sbu_0, # of connection points: 4
#     Node 21, Type 0, BuildingBlock: GALJAG_clean_sbu_0, # of connection points: 4
#     Node 22, Type 0, BuildingBlock: GALJAG_clean_sbu_0, # of connection points: 4
#     Node 23, Type 0, BuildingBlock: GALJAG_clean_sbu_0, # of connection points: 4
#     Node 24, Type 0, BuildingBlock: GALJAG_clean_sbu_0, # of connection points: 4
#     Node 25, Type 0, BuildingBlock: GALJAG_clean_sbu_0, # of connection points: 4
#     Node 26, Type 0, BuildingBlock: GALJAG_clean_sbu_0, # of connection points: 4
#     Node 27, Type 0, BuildingBlock: GALJAG_clean_sbu_0, # of connection points: 4
#     Node 28, Type 0, BuildingBlock: GALJAG_clean_sbu_0, # of connection points: 4
#     Node 29, Type 0, BuildingBlock: GALJAG_clean_sbu_0, # of connection points: 4
#     Node 30, Type 0, BuildingBlock: GALJAG_clean_sbu_0, # of connection points: 4
#     Node 31, Type 0, BuildingBlock: GALJAG_clean_sbu_0, # of connection points: 4
#     Edge 32, Type (0, 0), BuildingBlock: KIFKEQ_clean_linker_1, # of connection points: 2
#     Edge 33, Type (0, 0), BuildingBlock: KIFKEQ_clean_linker_1, # of connection points: 2
#     Edge 34, Type (0, 0), BuildingBlock: KIFKEQ_clean_linker_1, # of connection points: 2
#     Edge 35, Type (0, 0), BuildingBlock: KIFKEQ_clean_linker_1, # of connection points: 2
#     Edge 36, Type (0, 0), BuildingBlock: KIFKEQ_clean_linker_1, # of connection points: 2
#     Edge 37, Type (0, 0), BuildingBlock: KIFKEQ_clean_linker_1, # of connection points: 2
#     Edge 38, Type (0, 0), BuildingBlock: KIFKEQ_clean_linker_1, # of connection points: 2
#     Edge 39, Type (0, 0), BuildingBlock: KIFKEQ_clean_linker_1, # of connection points: 2
#     Edge 40, Type (0, 0), BuildingBlock: KIFKEQ_clean_linker_1, # of connection points: 2
#     Edge 41, Type (0, 0), BuildingBlock: KIFKEQ_clean_linker_1, # of connection points: 2
#     Edge 42, Type (0, 0), BuildingBlock: KIFKEQ_clean_linker_1, # of connection points: 2
#     Edge 43, Type (0, 0), BuildingBlock: KIFKEQ_clean_linker_1, # of connection points: 2
#     Edge 44, Type (0, 0), BuildingBlock: KIFKEQ_clean_linker_1, # of connection points: 2
#     Edge 45, Type (0, 0), BuildingBlock: KIFKEQ_clean_linker_1, # of connection points: 2
#     Edge 46, Type (0, 0), BuildingBlock: KIFKEQ_clean_linker_1, # of connection points: 2
#     Edge 47, Type (0, 0), BuildingBlock: KIFKEQ_clean_linker_1, # of connection points: 2
#     Edge 48, Type (0, 0), BuildingBlock: KIFKEQ_clean_linker_1, # of connection points: 2
#     Edge 49, Type (0, 0), BuildingBlock: KIFKEQ_clean_linker_1, # of connection points: 2
#     Edge 50, Type (0, 0), BuildingBlock: KIFKEQ_clean_linker_1, # of connection points: 2
#     Edge 51, Type (0, 0), BuildingBlock: KIFKEQ_clean_linker_1, # of connection points: 2
#     Edge 52, Type (0, 0), BuildingBlock: KIFKEQ_clean_linker_1, # of connection points: 2
#     Edge 53, Type (0, 0), BuildingBlock: KIFKEQ_clean_linker_1, # of connection points: 2
#     Edge 54, Type (0, 0), BuildingBlock: KIFKEQ_clean_linker_1, # of connection points: 2
#     Edge 55, Type (0, 0), BuildingBlock: KIFKEQ_clean_linker_1, # of connection points: 2
#     Edge 56, Type (0, 0), BuildingBlock: KIFKEQ_clean_linker_1, # of connection points: 2
#     Edge 57, Type (0, 0), BuildingBlock: KIFKEQ_clean_linker_1, # of connection points: 2
#     Edge 58, Type (0, 0), BuildingBlock: KIFKEQ_clean_linker_1, # of connection points: 2
#     Edge 59, Type (0, 0), BuildingBlock: KIFKEQ_clean_linker_1, # of connection points: 2
#     Edge 60, Type (0, 0), BuildingBlock: KIFKEQ_clean_linker_1, # of connection points: 2
#     Edge 61, Type (0, 0), BuildingBlock: KIFKEQ_clean_linker_1, # of connection points: 2
#     Edge 62, Type (0, 0), BuildingBlock: KIFKEQ_clean_linker_1, # of connection points: 2
#     Edge 63, Type (0, 0), BuildingBlock: KIFKEQ_clean_linker_1, # of connection points: 2
#     Edge 64, Type (0, 0), BuildingBlock: KIFKEQ_clean_linker_1, # of connection points: 2
#     Edge 65, Type (0, 0), BuildingBlock: KIFKEQ_clean_linker_1, # of connection points: 2
#     Edge 66, Type (0, 0), BuildingBlock: KIFKEQ_clean_linker_1, # of connection points: 2
#     Edge 67, Type (0, 0), BuildingBlock: KIFKEQ_clean_linker_1, # of connection points: 2
#     Edge 68, Type (0, 0), BuildingBlock: KIFKEQ_clean_linker_1, # of connection points: 2
#     Edge 69, Type (0, 0), BuildingBlock: KIFKEQ_clean_linker_1, # of connection points: 2
#     Edge 70, Type (0, 0), BuildingBlock: KIFKEQ_clean_linker_1, # of connection points: 2
#     Edge 71, Type (0, 0), BuildingBlock: KIFKEQ_clean_linker_1, # of connection points: 2
#     Edge 72, Type (0, 0), BuildingBlock: KIFKEQ_clean_linker_1, # of connection points: 2
#     Edge 73, Type (0, 0), BuildingBlock: KIFKEQ_clean_linker_1, # of connection points: 2
#     Edge 74, Type (0, 0), BuildingBlock: KIFKEQ_clean_linker_1, # of connection points: 2
#     Edge 75, Type (0, 0), BuildingBlock: KIFKEQ_clean_linker_1, # of connection points: 2
#     Edge 76, Type (0, 0), BuildingBlock: KIFKEQ_clean_linker_1, # of connection points: 2
#     Edge 77, Type (0, 0), BuildingBlock: KIFKEQ_clean_linker_1, # of connection points: 2
#     Edge 78, Type (0, 0), BuildingBlock: KIFKEQ_clean_linker_1, # of connection points: 2
#     Edge 79, Type (0, 0), BuildingBlock: KIFKEQ_clean_linker_1, # of connection points: 2
#     Edge 80, Type (0, 0), BuildingBlock: KIFKEQ_clean_linker_1, # of connection points: 2
#     Edge 81, Type (0, 0), BuildingBlock: KIFKEQ_clean_linker_1, # of connection points: 2
#     Edge 82, Type (0, 0), BuildingBlock: KIFKEQ_clean_linker_1, # of connection points: 2
#     Edge 83, Type (0, 0), BuildingBlock: KIFKEQ_clean_linker_1, # of connection points: 2
#     Edge 84, Type (0, 0), BuildingBlock: KIFKEQ_clean_linker_1, # of connection points: 2
#     Edge 85, Type (0, 0), BuildingBlock: KIFKEQ_clean_linker_1, # of connection points: 2
#     Edge 86, Type (0, 0), BuildingBlock: KIFKEQ_clean_linker_1, # of connection points: 2
#     Edge 87, Type (0, 0), BuildingBlock: KIFKEQ_clean_linker_1, # of connection points: 2
#     Edge 88, Type (0, 0), BuildingBlock: KIFKEQ_clean_linker_1, # of connection points: 2
#     Edge 89, Type (0, 0), BuildingBlock: KIFKEQ_clean_linker_1, # of connection points: 2
#     Edge 90, Type (0, 0), BuildingBlock: KIFKEQ_clean_linker_1, # of connection points: 2
#     Edge 91, Type (0, 0), BuildingBlock: KIFKEQ_clean_linker_1, # of connection points: 2
#     Edge 92, Type (0, 0), BuildingBlock: KIFKEQ_clean_linker_1, # of connection points: 2
#     Edge 93, Type (0, 0), BuildingBlock: KIFKEQ_clean_linker_1, # of connection points: 2
#     Edge 94, Type (0, 0), BuildingBlock: KIFKEQ_clean_linker_1, # of connection points: 2
#     Edge 95, Type (0, 0), BuildingBlock: KIFKEQ_clean_linker_1, # of connection points: 2
# Relax obj value: 0.083
# Max RMSD: 0.091
# Mean RMSD: 0.091
data_MOF--net-umv--node1-GALJAG_clean_sbu_0--edge1-KIFKEQ_clean_linker_1
_symmetry_space_group_name_H-M    P1
_symmetry_Int_Tables_number       1
_symmetry_cell_setting            triclinic
loop_
_symmetry_equiv_pos_as_xyz
'x, y, z'
_cell_length_a     108.24575
_cell_length_b     27.827349
_cell_length_c     51.434633
_cell_angle_alpha  89.996215
_cell_angle_beta   89.992071
_cell_angle_gamma 90.082138
loop_
_atom_site_label
_atom_site_type_symbol
_atom_site_fract_x
_atom_site_fract_y
_atom_site_fract_z
_atom_type_partial_charge
In0 In 0.05824 0.13287 0.3081 0.0
O1 O 0.05791 0.18156 0.34367 0.0
O2 O 0.06004 0.21347 0.30615 0.0
C3 C 0.05589 0.04628 0.33107 0.0
C4 C 0.03652 0.15122 0.28451 0.0
C5 C 0.0819 0.13332 0.29204 0.0
O6 O 0.05551 0.08523 0.34362 0.0
O7 O 0.05748 0.05095 0.30687 0.0
O8 O 0.07333 0.11946 0.27701 0.0
O9 O 0.07851 0.14475 0.31462 0.0
C10 C 0.05922 0.21958 0.33041 0.0
O11 O 0.04646 0.14743 0.27169 0.0
O12 O 0.03755 0.14237 0.30842 0.0
In13 In 0.19633 0.11471 0.31659 0.0
O14 O 0.20825 0.10042 0.28037 0.0
O15 O 0.21615 0.09073 0.31794 0.0
C16 C 0.17319 0.13371 0.30058 0.0
C17 C 0.19209 0.02794 0.33748 0.0
C18 C 0.2017 0.19962 0.33898 0.0
O19 O 0.1817 0.12457 0.28439 0.0
O20 O 0.17654 0.1341 0.32406 0.0
O21 O 0.19844 0.16309 0.35189 0.0
O22 O 0.20248 0.19308 0.3147 0.0
C23 C 0.21751 0.08727 0.29368 0.0
O24 O 0.19683 0.06186 0.35047 0.0
O25 O 0.18921 0.03843 0.31443 0.0
In26 In 0.05309 0.12122 0.93689 0.0
O27 O 0.04846 0.07057 0.90317 0.0
O28 O 0.05932 0.0442 0.93463 0.0
C29 C 0.04842 0.20821 0.9163 0.0
C30 C 0.03415 0.09602 0.96811 0.0
C31 C 0.07745 0.13304 0.94488 0.0
O32 O 0.04812 0.16999 0.90304 0.0
O33 O 0.05078 0.20239 0.94018 0.0
O34 O 0.06984 0.13465 0.96362 0.0
O35 O 0.07264 0.12681 0.92277 0.0
C36 C 0.05416 0.03553 0.9132 0.0
O37 O 0.0452 0.0967 0.97614 0.0
O38 O 0.03271 0.11165 0.94534 0.0
In39 In 0.19494 0.12716 0.94088 0.0
O40 O 0.20301 0.14747 0.98057 0.0
O41 O 0.2154 0.12801 0.95034 0.0
C42 C 0.17033 0.12976 0.94849 0.0
C43 C 0.19753 0.21244 0.9173 0.0
C44 C 0.19767 0.03936 0.91953 0.0
O45 O 0.17759 0.11621 0.96635 0.0
O46 O 0.1755 0.14025 0.92728 0.0
O47 O 0.19921 0.07775 0.90683 0.0
O48 O 0.19491 0.04522 0.9432 0.0
C49 C 0.2141 0.14399 0.9731 0.0
O50 O 0.19992 0.17344 0.90568 0.0
O51 O 0.19375 0.2079 0.94036 0.0
In52 In 0.94836 0.87631 0.68485 0.0
O53 O 0.94971 0.82794 0.6493 0.0
O54 O 0.94511 0.79627 0.68583 0.0
C55 C 0.95243 0.9635 0.66401 0.0
C56 C 0.96932 0.85452 0.71033 0.0
C57 C 0.92413 0.88326 0.69598 0.0
O58 O 0.9526 0.92526 0.65079 0.0
O59 O 0.95036 0.95778 0.68803 0.0
O60 O 0.93219 0.88535 0.71386 0.0
O61 O 0.92843 0.87886 0.67333 0.0
C62 C 0.94719 0.79015 0.66193 0.0
O63 O 0.9591 0.85826 0.7222 0.0
O64 O 0.96893 0.86534 0.68656 0.0
In65 In 0.80736 0.87497 0.68999 0.0
O66 O 0.79694 0.89209 0.72793 0.0
O67 O 0.78668 0.87997 0.6933 0.0
C68 C 0.83164 0.87838 0.70119 0.0
C69 C 0.80603 0.9608 0.66673 0.0
C70 C 0.80488 0.78734 0.66825 0.0
O71 O 0.82386 0.86505 0.71816 0.0
O72 O 0.82713 0.88797 0.67922 0.0
O73 O 0.80424 0.82584 0.65534 0.0
O74 O 0.80677 0.79292 0.69233 0.0
C75 C 0.7865 0.89256 0.71681 0.0
O76 O 0.80446 0.92203 0.65427 0.0
O77 O 0.80844 0.95585 0.69059 0.0
In78 In 0.94432 0.86082 0.0619 0.0
O79 O 0.94345 0.90795 0.09816 0.0
O80 O 0.93879 0.93897 0.06159 0.0
C81 C 0.94978 0.77407 0.08185 0.0
C82 C 0.96551 0.88961 0.03924 0.0
C83 C 0.92077 0.84676 0.04678 0.0
O84 O 0.94886 0.81148 0.09563 0.0
O85 O 0.94816 0.78048 0.05773 0.0
O86 O 0.92915 0.8568 0.03043 0.0
O87 O 0.92446 0.84251 0.06993 0.0
C88 C 0.94018 0.94499 0.0857 0.0
O89 O 0.95614 0.8781 0.02582 0.0
O90 O 0.96429 0.88346 0.06336 0.0
In91 In 0.8056 0.87634 0.05947 0.0
O92 O 0.79407 0.85644 0.02325 0.0
O93 O 0.78546 0.85647 0.0604 0.0
C94 C 0.82943 0.88714 0.04554 0.0
C95 C 0.80869 0.79332 0.08504 0.0
C96 C 0.80076 0.96445 0.07836 0.0
O97 O 0.82114 0.87877 0.0287 0.0
O98 O 0.82552 0.89125 0.06854 0.0
O99 O 0.80133 0.92739 0.09247 0.0
O100 O 0.80241 0.95709 0.05432 0.0
C101 C 0.78448 0.84739 0.03651 0.0
O102 O 0.80524 0.83124 0.09645 0.0
O103 O 0.81086 0.7979 0.06108 0.0
In104 In 0.05663 0.62087 0.81112 0.0
O105 O 0.05004 0.66904 0.84447 0.0
O106 O 0.06369 0.69599 0.81855 0.0
C107 C 0.0514 0.53398 0.83134 0.0
C108 C 0.03859 0.64899 0.77823 0.0
C109 C 0.08091 0.60769 0.8026 0.0
O110 O 0.05139 0.57205 0.84472 0.0
O111 O 0.0539 0.53976 0.80751 0.0
O112 O 0.07324 0.6079 0.78396 0.0
O113 O 0.0762 0.61271 0.82488 0.0
C114 C 0.0569 0.70373 0.83794 0.0
O115 O 0.0499 0.6539 0.77277 0.0
O116 O 0.03652 0.62631 0.79895 0.0
In117 In 0.19783 0.62519 0.81183 0.0
O118 O 0.20126 0.57803 0.84739 0.0
O119 O 0.19757 0.54431 0.81093 0.0
C120 C 0.19924 0.71301 0.83371 0.0
C121 C 0.2186 0.61197 0.78388 0.0
C122 C 0.17354 0.61867 0.80095 0.0
O123 O 0.20066 0.67467 0.8465 0.0
O124 O 0.1972 0.70711 0.80971 0.0
O125 O 0.18114 0.63373 0.78406 0.0
O126 O 0.1782 0.6088 0.82274 0.0
C127 C 0.19998 0.53927 0.83477 0.0
O128 O 0.20799 0.60876 0.77366 0.0
O129 O 0.21859 0.62578 0.8072 0.0
In130 In 0.05719 0.63211 0.43587 0.0
O131 O 0.04547 0.6135 0.47189 0.0
O132 O 0.03692 0.61377 0.43467 0.0
C133 C 0.08087 0.64071 0.45107 0.0
C134 C 0.06032 0.54848 0.41091 0.0
C135 C 0.05311 0.72048 0.41652 0.0
O136 O 0.07225 0.63543 0.46754 0.0
O137 O 0.07735 0.64312 0.42772 0.0
O138 O 0.05336 0.68319 0.40255 0.0
O139 O 0.05467 0.71321 0.44058 0.0
C140 C 0.03585 0.60512 0.4586 0.0
O141 O 0.05706 0.58626 0.39912 0.0
O142 O 0.06216 0.5534 0.43496 0.0
In143 In 0.19422 0.61617 0.43759 0.0
O144 O 0.20053 0.66834 0.46911 0.0
O145 O 0.21368 0.61838 0.45484 0.0
C146 C 0.17151 0.59809 0.45716 0.0
C147 C 0.1926 0.68972 0.40349 0.0
C148 C 0.20055 0.53031 0.41751 0.0
O149 O 0.17977 0.61848 0.47059 0.0
O150 O 0.17495 0.5855 0.43478 0.0
O151 O 0.19805 0.56644 0.40362 0.0
O152 O 0.20012 0.53769 0.44178 0.0
C153 C 0.21161 0.65433 0.46913 0.0
O154 O 0.20251 0.66731 0.40751 0.0
O155 O 0.1834 0.67342 0.41556 0.0
In156 In 0.94395 0.36158 0.18671 0.0
O157 O 0.95316 0.33886 0.22493 0.0
O158 O 0.96452 0.35069 0.19177 0.0
C159 C 0.91985 0.37544 0.19692 0.0
C160 C 0.94155 0.27576 0.16352 0.0
C161 C 0.9493 0.44816 0.16637 0.0
O162 O 0.92777 0.37449 0.21507 0.0
O163 O 0.92423 0.37053 0.17435 0.0
O164 O 0.94964 0.40988 0.15316 0.0
O165 O 0.94649 0.44262 0.19007 0.0
C166 C 0.96386 0.33709 0.2151 0.0
O167 O 0.94523 0.31242 0.1512 0.0
O168 O 0.9391 0.28282 0.18716 0.0
In169 In 0.80347 0.37701 0.18651 0.0
O170 O 0.7928 0.39292 0.22414 0.0
O171 O 0.78268 0.38225 0.18918 0.0
C172 C 0.82757 0.37768 0.19922 0.0
C173 C 0.8038 0.4643 0.16471 0.0
C174 C 0.80098 0.29039 0.16376 0.0
O175 O 0.81948 0.36451 0.21558 0.0
O176 O 0.82345 0.38813 0.17702 0.0
O177 O 0.79986 0.32933 0.15137 0.0
O178 O 0.80328 0.29515 0.18772 0.0
C179 C 0.7824 0.39346 0.2129 0.0
O180 O 0.80217 0.42662 0.15132 0.0
O181 O 0.80512 0.45753 0.1888 0.0
In182 In 0.94749 0.37557 0.55772 0.0
O183 O 0.95557 0.39873 0.51847 0.0
O184 O 0.96794 0.38306 0.54944 0.0
C185 C 0.92293 0.36838 0.55077 0.0
C186 C 0.94737 0.46114 0.58149 0.0
C187 C 0.95216 0.28837 0.5779 0.0
O188 O 0.93034 0.36322 0.53187 0.0
O189 O 0.92801 0.3756 0.57247 0.0
O190 O 0.95327 0.32672 0.59085 0.0
O191 O 0.94893 0.29406 0.55446 0.0
C192 C 0.9666 0.39857 0.52659 0.0
O193 O 0.95078 0.42338 0.59314 0.0
O194 O 0.94402 0.45523 0.55824 0.0
In195 In 0.80548 0.37385 0.5608 0.0
O196 O 0.79713 0.3541 0.52135 0.0
O197 O 0.78493 0.37009 0.55252 0.0
C198 C 0.83002 0.37343 0.55236 0.0
C199 C 0.80408 0.28809 0.5843 0.0
C200 C 0.80258 0.46174 0.5819 0.0
O201 O 0.82252 0.3845 0.53442 0.0
O202 O 0.82509 0.36437 0.57402 0.0
O203 O 0.80101 0.42345 0.59466 0.0
O204 O 0.80539 0.45571 0.55826 0.0
C205 C 0.78611 0.35548 0.52947 0.0
O206 O 0.80147 0.32659 0.59618 0.0
O207 O 0.80739 0.29336 0.56098 0.0
In208 In 0.55754 0.13509 0.81184 0.0
O209 O 0.54809 0.15954 0.77439 0.0
O210 O 0.53685 0.14711 0.80763 0.0
C211 C 0.58095 0.12631 0.79464 0.0
C212 C 0.55891 0.22046 0.8357 0.0
C213 C 0.55363 0.0499 0.83562 0.0
O214 O 0.57199 0.10916 0.78184 0.0
O215 O 0.57807 0.14584 0.81583 0.0
O216 O 0.5568 0.08725 0.84788 0.0
O217 O 0.55238 0.0556 0.8114 0.0
C218 C 0.53746 0.16175 0.78447 0.0
O219 O 0.55574 0.18284 0.84788 0.0
O220 O 0.56134 0.21441 0.81195 0.0
In221 In 0.69544 0.11197 0.81332 0.0
O222 O 0.69712 0.06463 0.84954 0.0
O223 O 0.69338 0.03152 0.81299 0.0
C224 C 0.69836 0.19822 0.83668 0.0
C225 C 0.71564 0.09063 0.78487 0.0
C226 C 0.67171 0.11525 0.79758 0.0
O227 O 0.69861 0.15907 0.84908 0.0
O228 O 0.69675 0.19383 0.81247 0.0
O229 O 0.68034 0.13197 0.78368 0.0
O230 O 0.67505 0.09878 0.81928 0.0
C231 C 0.69524 0.02615 0.837 0.0
O232 O 0.70487 0.08964 0.7755 0.0
O233 O 0.71629 0.10639 0.8078 0.0
In234 In 0.55571 0.12147 0.43684 0.0
O235 O 0.55346 0.07376 0.4009 0.0
O236 O 0.56018 0.04239 0.43586 0.0
C237 C 0.55055 0.20848 0.41688 0.0
C238 C 0.53607 0.09614 0.46603 0.0
C239 C 0.57993 0.13338 0.44692 0.0
O240 O 0.55023 0.17037 0.40355 0.0
O241 O 0.55324 0.20265 0.44063 0.0
O242 O 0.57205 0.13133 0.46512 0.0
O243 O 0.57546 0.13069 0.42432 0.0
C244 C 0.55712 0.03631 0.41248 0.0
O245 O 0.54692 0.0969 0.47515 0.0
O246 O 0.53511 0.11177 0.44313 0.0
In247 In 0.69547 0.12828 0.43285 0.0
O248 O 0.70712 0.14483 0.46927 0.0
O249 O 0.71533 0.15181 0.43182 0.0
C250 C 0.672 0.11046 0.4468 0.0
C251 C 0.69111 0.21435 0.41134 0.0
C252 C 0.70127 0.04217 0.4126 0.0
O253 O 0.68012 0.12129 0.4636 0.0
O254 O 0.6759 0.10758 0.42372 0.0
O255 O 0.69986 0.07932 0.39875 0.0
O256 O 0.69996 0.04866 0.4368 0.0
C257 C 0.71648 0.1572 0.45601 0.0
O258 O 0.69547 0.1798 0.39825 0.0
O259 O 0.68866 0.20471 0.43472 0.0
In260 In 0.4467 0.87567 0.18153 0.0
O261 O 0.45845 0.85983 0.21783 0.0
O262 O 0.46649 0.85103 0.18037 0.0
C263 C 0.42323 0.89027 0.19672 0.0
C264 C 0.44215 0.79119 0.15833 0.0
C265 C 0.45231 0.9621 0.16121 0.0
O266 O 0.4316 0.88002 0.21302 0.0
O267 O 0.4269 0.89457 0.17356 0.0
O268 O 0.45138 0.92451 0.14757 0.0
O269 O 0.45066 0.95596 0.18534 0.0
C270 C 0.46771 0.84646 0.2046 0.0
O271 O 0.44561 0.82769 0.14559 0.0
O272 O 0.44082 0.79789 0.1824 0.0
In273 In 0.3077 0.86883 0.19009 0.0
O274 O 0.29841 0.88992 0.22852 0.0
O275 O 0.28731 0.88489 0.1945 0.0
C276 C 0.33167 0.85385 0.20115 0.0
C277 C 0.31083 0.95364 0.16604 0.0
C278 C 0.30174 0.78222 0.17054 0.0
O279 O 0.3238 0.86059 0.219 0.0
O280 O 0.3273 0.8532 0.17842 0.0
O281 O 0.30177 0.82008 0.15697 0.0
O282 O 0.3045 0.78817 0.19423 0.0
C283 C 0.28789 0.89564 0.21826 0.0
O284 O 0.30672 0.91721 0.15415 0.0
O285 O 0.31338 0.94682 0.18963 0.0
In286 In 0.44419 0.8776 0.55854 0.0
O287 O 0.45497 0.89469 0.52104 0.0
O288 O 0.46493 0.88275 0.55606 0.0
C289 C 0.42 0.88136 0.54652 0.0
C290 C 0.44517 0.96325 0.58202 0.0
C291 C 0.44618 0.78967 0.58008 0.0
O292 O 0.42788 0.86797 0.52979 0.0
O293 O 0.42435 0.89083 0.56865 0.0
O294 O 0.44704 0.828 0.59309 0.0
O295 O 0.44437 0.79558 0.55601 0.0
C296 C 0.46532 0.8952 0.53254 0.0
O297 O 0.44682 0.92447 0.59442 0.0
O298 O 0.44291 0.95838 0.55809 0.0
In299 In 0.30334 0.87446 0.56091 0.0
O300 O 0.30096 0.82112 0.59433 0.0
O301 O 0.30779 0.79566 0.55795 0.0
C302 C 0.29935 0.961 0.58256 0.0
C303 C 0.28248 0.85502 0.53447 0.0
C304 C 0.32754 0.88443 0.55053 0.0
O305 O 0.29941 0.92254 0.59567 0.0
O306 O 0.30114 0.95566 0.55842 0.0
O307 O 0.31957 0.88562 0.53244 0.0
O308 O 0.32316 0.87929 0.57311 0.0
C309 C 0.30463 0.78576 0.58092 0.0
O310 O 0.29282 0.8583 0.52303 0.0
O311 O 0.28273 0.86488 0.55838 0.0
In312 In 0.55537 0.61993 0.30978 0.0
O313 O 0.54664 0.63985 0.2707 0.0
O314 O 0.53485 0.63111 0.30343 0.0
C315 C 0.57967 0.61103 0.29971 0.0
C316 C 0.55644 0.70613 0.33309 0.0
C317 C 0.55049 0.53316 0.33058 0.0
O318 O 0.57173 0.60995 0.28163 0.0
O319 O 0.57523 0.615 0.32228 0.0
O320 O 0.54998 0.57165 0.34355 0.0
O321 O 0.55322 0.53848 0.30684 0.0
C322 C 0.53584 0.64314 0.2799 0.0
O323 O 0.55319 0.66871 0.34527 0.0
O324 O 0.55923 0.69959 0.30959 0.0
In325 In 0.69456 0.62705 0.31276 0.0
O326 O 0.70336 0.57403 0.34119 0.0
O327 O 0.68392 0.57249 0.33714 0.0
C328 C 0.7012 0.71378 0.3314 0.0
C329 C 0.71123 0.59023 0.27916 0.0
C330 C 0.67137 0.64314 0.2957 0.0
O331 O 0.70095 0.67647 0.34539 0.0
O332 O 0.69841 0.70709 0.3078 0.0
O333 O 0.67935 0.62291 0.28147 0.0
O334 O 0.67527 0.65627 0.31766 0.0
C335 C 0.69335 0.55387 0.34721 0.0
O336 O 0.70031 0.57474 0.28082 0.0
O337 O 0.71342 0.62692 0.29281 0.0
In338 In 0.55622 0.63455 0.93888 0.0
O339 O 0.54378 0.61942 0.97433 0.0
O340 O 0.53638 0.61059 0.93629 0.0
C341 C 0.57953 0.64834 0.95576 0.0
C342 C 0.56023 0.55053 0.91474 0.0
C343 C 0.55152 0.72146 0.91818 0.0
O344 O 0.57108 0.63465 0.97114 0.0
O345 O 0.57602 0.65621 0.9328 0.0
O346 O 0.55394 0.6848 0.90463 0.0
O347 O 0.55115 0.71414 0.94247 0.0
C348 C 0.53472 0.60624 0.96042 0.0
O349 O 0.55649 0.58729 0.90265 0.0
O350 O 0.56222 0.5568 0.93864 0.0
In351 In 0.69516 0.61219 0.94274 0.0
O352 O 0.69773 0.65919 0.9066 0.0
O353 O 0.69099 0.69151 0.9413 0.0
C354 C 0.69939 0.52385 0.92323 0.0
C355 C 0.71506 0.63721 0.97127 0.0
C356 C 0.67088 0.60471 0.95356 0.0
O357 O 0.69999 0.56161 0.90965 0.0
O358 O 0.6969 0.53064 0.94699 0.0
O359 O 0.67891 0.60499 0.9715 0.0
O360 O 0.67522 0.60669 0.93082 0.0
C361 C 0.69418 0.69704 0.91795 0.0
O362 O 0.70433 0.63545 0.98093 0.0
O363 O 0.7158 0.62246 0.94817 0.0
In364 In 0.44573 0.37598 0.6885 0.0
O365 O 0.45656 0.36047 0.72608 0.0
O366 O 0.46649 0.37031 0.69083 0.0
C367 C 0.42175 0.37094 0.70207 0.0
C368 C 0.44655 0.29026 0.66504 0.0
C369 C 0.44728 0.46365 0.66636 0.0
O370 O 0.42978 0.38645 0.71794 0.0
O371 O 0.42583 0.3601 0.6799 0.0
O372 O 0.44824 0.42516 0.65354 0.0
O373 O 0.44564 0.458 0.69049 0.0
C374 C 0.46688 0.35911 0.71454 0.0
O375 O 0.44805 0.32902 0.65252 0.0
O376 O 0.44457 0.29519 0.68907 0.0
In377 In 0.30586 0.37587 0.68494 0.0
O378 O 0.296 0.42491 0.65582 0.0
O379 O 0.31505 0.43691 0.663 0.0
C380 C 0.29998 0.28825 0.66616 0.0
C381 C 0.28968 0.41277 0.71961 0.0
C382 C 0.32973 0.36195 0.69752 0.0
O383 O 0.29955 0.32589 0.65249 0.0
O384 O 0.30305 0.29492 0.68958 0.0
O385 O 0.32168 0.36968 0.7149 0.0
O386 O 0.32558 0.36032 0.67463 0.0
C387 C 0.30542 0.45038 0.65146 0.0
O388 O 0.30062 0.42792 0.7175 0.0
O389 O 0.2873 0.37621 0.70601 0.0
In390 In 0.44502 0.37495 0.05772 0.0
O391 O 0.45448 0.39717 0.01958 0.0
O392 O 0.46541 0.39156 0.0538 0.0
C393 C 0.42102 0.35949 0.04691 0.0
C394 C 0.4418 0.45973 0.08165 0.0
C395 C 0.451 0.28831 0.07715 0.0
O396 O 0.42887 0.36563 0.02892 0.0
O397 O 0.42543 0.35976 0.06961 0.0
O398 O 0.45096 0.32611 0.09077 0.0
O399 O 0.44826 0.29434 0.05345 0.0
C400 C 0.46494 0.40302 0.03013 0.0
O401 O 0.44579 0.42328 0.09368 0.0
O402 O 0.4394 0.4529 0.05798 0.0
In403 In 0.30579 0.36966 0.06651 0.0
O404 O 0.29375 0.3526 0.03077 0.0
O405 O 0.28591 0.34615 0.06858 0.0
C406 C 0.32917 0.38582 0.05105 0.0
C407 C 0.31051 0.28514 0.08943 0.0
C408 C 0.30018 0.45601 0.08671 0.0
O409 O 0.32081 0.37492 0.03482 0.0
O410 O 0.32554 0.38973 0.07425 0.0
O411 O 0.30123 0.41857 0.10044 0.0
O412 O 0.30172 0.44974 0.06255 0.0
C413 C 0.28451 0.34049 0.04446 0.0
O414 O 0.30724 0.32164 0.10236 0.0
O415 O 0.31159 0.29188 0.0653 0.0
H416 H 0.0969 0.07024 0.26563 0.0
H417 H 0.09607 0.21019 0.30158 0.0
H418 H 0.11955 0.0756 0.2623 0.0
H419 H 0.11838 0.21672 0.29727 0.0
H420 H 0.15533 0.17034 0.33121 0.0
H421 H 0.13338 0.1742 0.32297 0.0
H422 H 0.13901 0.11614 0.24595 0.0
H423 H 0.16136 0.11159 0.25455 0.0
C424 C 0.10154 0.10271 0.27195 0.0
C425 C 0.09487 0.1395 0.28421 0.0
C426 C 0.11447 0.10591 0.27001 0.0
C427 C 0.12078 0.14618 0.28006 0.0
C428 C 0.11385 0.18469 0.28999 0.0
C429 C 0.10108 0.18109 0.29235 0.0
C430 C 0.15196 0.15891 0.31236 0.0
C431 C 0.16008 0.1407 0.29353 0.0
C432 C 0.13934 0.16144 0.30753 0.0
C433 C 0.13442 0.14586 0.28369 0.0
C434 C 0.14253 0.12835 0.26452 0.0
C435 C 0.1553 0.1261 0.26935 0.0
H436 H 0.15523 0.08993 0.98599 0.0
H437 H 0.15495 0.18108 0.91804 0.0
H438 H 0.13254 0.09351 0.98761 0.0
H439 H 0.13263 0.18597 0.92012 0.0
H440 H 0.0945 0.12757 0.90666 0.0
H441 H 0.11675 0.12851 0.9104 0.0
H442 H 0.11375 0.14541 0.99367 0.0
H443 H 0.09109 0.14326 0.98992 0.0
C444 C 0.15034 0.11116 0.97167 0.0
C445 C 0.15681 0.13443 0.95159 0.0
C446 C 0.13738 0.11346 0.97267 0.0
C447 C 0.13077 0.13934 0.95371 0.0
C448 C 0.13739 0.16465 0.9346 0.0
C449 C 0.15021 0.16192 0.93344 0.0
C450 C 0.09852 0.13175 0.92582 0.0
C451 C 0.09102 0.13571 0.94799 0.0
C452 C 0.11132 0.13253 0.92795 0.0
C453 C 0.11705 0.13768 0.9523 0.0
C454 C 0.10959 0.1413 0.97464 0.0
C455 C 0.09665 0.14041 0.97249 0.0
H456 H 0.9064 0.879 0.65924 0.0
H457 H 0.91128 0.8891 0.74245 0.0
H458 H 0.88424 0.87991 0.6647 0.0
H459 H 0.88864 0.89073 0.74794 0.0
H460 H 0.84639 0.83329 0.73767 0.0
H461 H 0.86913 0.83688 0.74004 0.0
H462 H 0.86935 0.9418 0.67816 0.0
H463 H 0.84703 0.93724 0.67536 0.0
C464 C 0.90274 0.88173 0.67879 0.0
C465 C 0.91062 0.88447 0.70041 0.0
C466 C 0.88999 0.88243 0.6819 0.0
C467 C 0.88468 0.88614 0.70672 0.0
C468 C 0.8925 0.88793 0.72857 0.0
C469 C 0.90541 0.88729 0.72543 0.0
C470 C 0.85136 0.85748 0.7249 0.0
C471 C 0.84501 0.88417 0.70594 0.0
C472 C 0.86433 0.8597 0.72631 0.0
C473 C 0.87102 0.88891 0.70891 0.0
C474 C 0.86449 0.91805 0.69138 0.0
C475 C 0.85169 0.91543 0.68979 0.0
H476 H 0.90881 0.88099 0.00321 0.0
H477 H 0.90258 0.81051 0.0769 0.0
H478 H 0.88636 0.89246 0.99832 0.0
H479 H 0.88045 0.8219 0.07199 0.0
H480 H 0.84754 0.91863 0.07734 0.0
H481 H 0.86964 0.90612 0.07297 0.0
H482 H 0.86409 0.84257 0.99734 0.0
H483 H 0.84164 0.8551 0.00171 0.0
C484 C 0.90265 0.86692 0.01798 0.0
C485 C 0.90743 0.84543 0.04061 0.0
C486 C 0.88985 0.87355 0.01519 0.0
C487 C 0.88175 0.85888 0.03504 0.0
C488 C 0.88652 0.83434 0.05664 0.0
C489 C 0.8992 0.8277 0.05939 0.0
C490 C 0.85099 0.90263 0.05956 0.0
C491 C 0.84284 0.88726 0.04002 0.0
C492 C 0.86365 0.89535 0.05711 0.0
C493 C 0.86852 0.87253 0.03506 0.0
C494 C 0.86053 0.86008 0.01458 0.0
C495 C 0.84772 0.86732 0.01707 0.0
H496 H 0.09446 0.60574 0.75709 0.0
H497 H 0.09804 0.60416 0.84073 0.0
H498 H 0.11711 0.60461 0.75301 0.0
H499 H 0.12028 0.6041 0.83674 0.0
H500 H 0.15857 0.55754 0.8265 0.0
H501 H 0.13631 0.54984 0.8233 0.0
H502 H 0.13579 0.65651 0.76227 0.0
H503 H 0.15844 0.66295 0.76492 0.0
C504 C 0.10006 0.60486 0.77452 0.0
C505 C 0.09447 0.60465 0.79922 0.0
C506 C 0.113 0.60459 0.7722 0.0
C507 C 0.1205 0.60378 0.79454 0.0
C508 C 0.11482 0.60364 0.8191 0.0
C509 C 0.10202 0.60393 0.8214 0.0
C510 C 0.15375 0.57909 0.8122 0.0
C511 C 0.1602 0.6115 0.79628 0.0
C512 C 0.14097 0.57476 0.81041 0.0
C513 C 0.13423 0.60336 0.79296 0.0
C514 C 0.14073 0.63397 0.77592 0.0
C515 C 0.15366 0.63786 0.77749 0.0
H516 H 0.09992 0.65641 0.41823 0.0
H517 H 0.09191 0.62045 0.49824 0.0
H518 H 0.12172 0.64176 0.42582 0.0
H519 H 0.11411 0.6062 0.50587 0.0
H520 H 0.15951 0.64894 0.49541 0.0
H521 H 0.13702 0.65961 0.49919 0.0
H522 H 0.13149 0.5542 0.43882 0.0
H523 H 0.15372 0.54342 0.43502 0.0
C524 C 0.10283 0.64604 0.43759 0.0
C525 C 0.09417 0.63907 0.45757 0.0
C526 C 0.11532 0.63752 0.44187 0.0
C527 C 0.11951 0.62214 0.46628 0.0
C528 C 0.11103 0.61787 0.48685 0.0
C529 C 0.09839 0.62609 0.48249 0.0
C530 C 0.15345 0.6269 0.48363 0.0
C531 C 0.15835 0.59585 0.46466 0.0
C532 C 0.14062 0.63306 0.48579 0.0
C533 C 0.13262 0.6082 0.46901 0.0
C534 C 0.13751 0.57411 0.45177 0.0
C535 C 0.15023 0.56794 0.44963 0.0
H536 H 0.90245 0.3853 0.15978 0.0
H537 H 0.90678 0.37478 0.24309 0.0
H538 H 0.88028 0.38882 0.16478 0.0
H539 H 0.88417 0.37913 0.2482 0.0
H540 H 0.84202 0.32651 0.23372 0.0
H541 H 0.86473 0.32977 0.23696 0.0
H542 H 0.86528 0.44624 0.18144 0.0
H543 H 0.84298 0.44182 0.17762 0.0
C544 C 0.89866 0.3842 0.17927 0.0
C545 C 0.90639 0.38004 0.20106 0.0
C546 C 0.88591 0.38648 0.18215 0.0
C547 C 0.88046 0.38486 0.20692 0.0
C548 C 0.88813 0.38045 0.22888 0.0
C549 C 0.90103 0.37831 0.22597 0.0
C550 C 0.84706 0.35314 0.22259 0.0
C551 C 0.84083 0.38317 0.20499 0.0
C552 C 0.86001 0.35518 0.2245 0.0
C553 C 0.86679 0.3876 0.20902 0.0
C554 C 0.86036 0.42001 0.19309 0.0
C555 C 0.84758 0.41751 0.19093 0.0
H556 H 0.90645 0.38683 0.58882 0.0
H557 H 0.90864 0.35037 0.50729 0.0
H558 H 0.88416 0.38734 0.58635 0.0
H559 H 0.88592 0.34978 0.50494 0.0
H560 H 0.84441 0.40692 0.51189 0.0
H561 H 0.8671 0.40416 0.50894 0.0
H562 H 0.86839 0.32637 0.58158 0.0
H563 H 0.8461 0.33032 0.58484 0.0
C564 C 0.90216 0.37852 0.57033 0.0
C565 C 0.90932 0.36801 0.54831 0.0
C566 C 0.88933 0.37865 0.56895 0.0
C567 C 0.88325 0.36785 0.54555 0.0
C568 C 0.89037 0.35825 0.52324 0.0
C569 C 0.90333 0.35828 0.52461 0.0
C570 C 0.84961 0.38915 0.52709 0.0
C571 C 0.84353 0.36967 0.54883 0.0
C572 C 0.86255 0.3873 0.52534 0.0
C573 C 0.86954 0.36576 0.54526 0.0
C574 C 0.86332 0.34432 0.56624 0.0
C575 C 0.85052 0.34653 0.56808 0.0
H576 H 0.65957 0.17682 0.76479 0.0
H577 H 0.65448 0.05037 0.81225 0.0
H578 H 0.63722 0.17869 0.7561 0.0
H579 H 0.63238 0.05144 0.80301 0.0
H580 H 0.59338 0.05296 0.77058 0.0
H581 H 0.61588 0.04804 0.76395 0.0
H582 H 0.61988 0.19304 0.79257 0.0
H583 H 0.59765 0.1973 0.79992 0.0
C584 C 0.65372 0.14891 0.77283 0.0
C585 C 0.65866 0.11383 0.78942 0.0
C586 C 0.64099 0.14991 0.76784 0.0
C587 C 0.63314 0.115 0.77877 0.0
C588 C 0.63825 0.07835 0.79407 0.0
C589 C 0.65086 0.07807 0.79957 0.0
C590 C 0.59908 0.08401 0.77481 0.0
C591 C 0.59389 0.12533 0.78592 0.0
C592 C 0.6119 0.08122 0.77107 0.0
C593 C 0.61956 0.12027 0.77768 0.0
C594 C 0.61418 0.1627 0.78703 0.0
C595 C 0.60149 0.16498 0.7914 0.0
H596 H 0.65484 0.06516 0.41766 0.0
H597 H 0.65905 0.14746 0.48827 0.0
H598 H 0.63252 0.07099 0.42134 0.0
H599 H 0.63645 0.15409 0.49176 0.0
H600 H 0.59302 0.11705 0.49207 0.0
H601 H 0.61557 0.10806 0.49605 0.0
H602 H 0.61958 0.14375 0.41478 0.0
H603 H 0.59737 0.15213 0.41077 0.0
C604 C 0.65097 0.08393 0.43422 0.0
C605 C 0.65867 0.10637 0.45249 0.0
C606 C 0.63818 0.08752 0.43624 0.0
C607 C 0.63275 0.11405 0.45647 0.0
C608 C 0.6404 0.1336 0.47591 0.0
C609 C 0.6533 0.12974 0.47394 0.0
C610 C 0.59879 0.12363 0.47524 0.0
C611 C 0.59344 0.1347 0.45104 0.0
C612 C 0.61165 0.11843 0.4775 0.0
C613 C 0.61929 0.12409 0.45557 0.0
C614 C 0.61392 0.13785 0.43186 0.0
C615 C 0.60118 0.14296 0.42961 0.0
H616 H 0.34473 0.87987 0.24494 0.0
H617 H 0.34907 0.82516 0.16688 0.0
H618 H 0.36725 0.89092 0.24802 0.0
H619 H 0.37129 0.8359 0.17003 0.0
H620 H 0.40504 0.92692 0.16682 0.0
H621 H 0.38292 0.91578 0.17193 0.0
H622 H 0.38889 0.84413 0.24528 0.0
H623 H 0.41132 0.85556 0.24021 0.0
C624 C 0.35049 0.86922 0.22873 0.0
C625 C 0.34515 0.85226 0.20553 0.0
C626 C 0.36334 0.87562 0.23049 0.0
C627 C 0.37094 0.86527 0.20904 0.0
C628 C 0.36562 0.84522 0.18664 0.0
C629 C 0.35289 0.83885 0.18489 0.0
C630 C 0.40167 0.9095 0.18429 0.0
C631 C 0.40991 0.89156 0.20296 0.0
C632 C 0.389 0.9029 0.18714 0.0
C633 C 0.38423 0.87811 0.2087 0.0
C634 C 0.39236 0.86316 0.22842 0.0
C635 C 0.40516 0.86979 0.22554 0.0
H636 H 0.34515 0.88736 0.58763 0.0
H637 H 0.34052 0.88668 0.50419 0.0
H638 H 0.36732 0.88927 0.58243 0.0
H639 H 0.36315 0.88935 0.49892 0.0
H640 H 0.40523 0.83383 0.51097 0.0
H641 H 0.38251 0.83773 0.50836 0.0
H642 H 0.38245 0.94819 0.56735 0.0
H643 H 0.40476 0.94321 0.57047 0.0
C644 C 0.34887 0.888 0.56809 0.0
C645 C 0.34105 0.88723 0.54632 0.0
C646 C 0.36163 0.88933 0.5651 0.0
C647 C 0.36701 0.89012 0.54026 0.0
C648 C 0.35925 0.88879 0.51831 0.0
C649 C 0.34634 0.88759 0.52132 0.0
C650 C 0.4003 0.85931 0.52302 0.0
C651 C 0.40668 0.88746 0.54132 0.0
C652 C 0.38734 0.8617 0.52148 0.0
C653 C 0.38069 0.89257 0.53806 0.0
C654 C 0.38726 0.92314 0.55482 0.0
C655 C 0.40006 0.92032 0.55658 0.0
H656 H 0.65424 0.70001 0.31835 0.0
H657 H 0.65849 0.59096 0.25929 0.0
H658 H 0.6319 0.69238 0.31545 0.0
H659 H 0.63591 0.58288 0.25661 0.0
H660 H 0.59233 0.61528 0.25321 0.0
H661 H 0.61474 0.62664 0.2475 0.0
H662 H 0.61956 0.6208 0.33076 0.0
H663 H 0.59751 0.60967 0.33646 0.0
C664 C 0.65038 0.67504 0.30436 0.0
C665 C 0.65809 0.64561 0.2893 0.0
C666 C 0.63759 0.67051 0.3028 0.0
C667 C 0.6322 0.63624 0.28625 0.0
C668 C 0.63984 0.60947 0.26958 0.0
C669 C 0.65274 0.61414 0.2711 0.0
C670 C 0.59824 0.61586 0.2702 0.0
C671 C 0.59316 0.61203 0.29529 0.0
C672 C 0.61102 0.62241 0.26693 0.0
C673 C 0.61882 0.62562 0.28873 0.0
C674 C 0.61374 0.61966 0.31363 0.0
C675 C 0.60109 0.61294 0.31687 0.0
H676 H 0.65288 0.5965 0.91743 0.0
H677 H 0.65838 0.61769 -0.00017 0.0
H678 H 0.6309 0.61014 0.92274 0.0
H679 H 0.63605 0.63159 0.00514 0.0
H680 H 0.59169 0.60014 0.99487 0.0
H681 H 0.61418 0.58855 0.99819 0.0
H682 H 0.61956 0.68708 0.93436 0.0
H683 H 0.59736 0.69818 0.93089 0.0
C684 C 0.64937 0.60365 0.93677 0.0
C685 C 0.65739 0.60653 0.95817 0.0
C686 C 0.63677 0.61174 0.93978 0.0
C687 C 0.63181 0.62295 0.96426 0.0
C688 C 0.63967 0.62326 0.98604 0.0
C689 C 0.65241 0.61527 0.98299 0.0
C690 C 0.59774 0.62027 0.9821 0.0
C691 C 0.5928 0.64956 0.96239 0.0
C692 C 0.61058 0.61355 0.98396 0.0
C693 C 0.61856 0.63608 0.96613 0.0
C694 C 0.6136 0.66842 0.94796 0.0
C695 C 0.60089 0.67496 0.94607 0.0
H696 H 0.34741 0.34052 0.66246 0.0
H697 H 0.34239 0.37517 0.74364 0.0
H698 H 0.36952 0.33929 0.6684 0.0
H699 H 0.36494 0.37282 0.74986 0.0
H700 H 0.4066 0.42555 0.73339 0.0
H701 H 0.38396 0.41891 0.73648 0.0
H702 H 0.38511 0.29126 0.6887 0.0
H703 H 0.40736 0.29928 0.68475 0.0
C704 C 0.35104 0.34725 0.68175 0.0
C705 C 0.34313 0.35778 0.7026 0.0
C706 C 0.36377 0.34622 0.68521 0.0
C707 C 0.36903 0.35538 0.70969 0.0
C708 C 0.36116 0.36568 0.73076 0.0
C709 C 0.34828 0.36668 0.72725 0.0
C710 C 0.40195 0.39576 0.72399 0.0
C711 C 0.40862 0.3635 0.7084 0.0
C712 C 0.38903 0.3918 0.72581 0.0
C713 C 0.38272 0.35516 0.71232 0.0
C714 C 0.38963 0.32072 0.69868 0.0
C715 C 0.40238 0.32519 0.69648 0.0
H716 H 0.34136 0.35023 0.00812 0.0
H717 H 0.34703 0.42716 0.08008 0.0
H718 H 0.36389 0.34183 0.00317 0.0
H719 H 0.36924 0.41911 0.07507 0.0
H720 H 0.40374 0.33272 0.08193 0.0
H721 H 0.38149 0.34135 0.07865 0.0
H722 H 0.3852 0.39063 -0.00055 0.0
H723 H 0.40778 0.38173 0.00269 0.0
C724 C 0.34741 0.36635 0.02248 0.0
C725 C 0.34246 0.38877 0.04467 0.0
C726 C 0.36026 0.36145 0.01967 0.0
C727 C 0.36826 0.37887 0.03905 0.0
C728 C 0.36327 0.40435 0.06014 0.0
C729 C 0.35055 0.40915 0.06294 0.0
C730 C 0.39985 0.34478 0.06365 0.0
C731 C 0.40752 0.35713 0.04267 0.0
C732 C 0.3871 0.34995 0.06182 0.0
C733 C 0.38165 0.3677 0.039 0.0
C734 C 0.38919 0.37711 0.01731 0.0
C735 C 0.40208 0.37194 0.01916 0.0
H736 H 0.01594 0.1767 0.31128 0.0
H737 H 0.03137 0.17488 0.23386 0.0
H738 H 0.99852 0.22326 0.29584 0.0
H739 H 0.01351 0.21962 0.21791 0.0
H740 H 0.98816 0.34511 0.20243 0.0
H741 H 0.00531 0.29771 0.21911 0.0
H742 H 0.98032 0.22513 0.27178 0.0
H743 H 0.96334 0.27447 0.25589 0.0
C744 C 0.01545 0.18527 0.29076 0.0
C745 C 0.02506 0.17221 0.27378 0.0
C746 C 0.00541 0.21198 0.28186 0.0
C747 C 0.0046 0.22582 0.25564 0.0
C748 C 0.01395 0.21072 0.23838 0.0
C749 C 0.02411 0.18447 0.2474 0.0
C750 C 0.98641 0.31963 0.21793 0.0
C751 C 0.97445 0.31367 0.22799 0.0
C752 C 0.9962 0.29186 0.22723 0.0
C753 C 0.99423 0.25685 0.24654 0.0
C754 C 0.98227 0.25197 0.2571 0.0
C755 C 0.97252 0.28034 0.24805 0.0
H756 H 0.23673 0.04805 0.32001 0.0
H757 H 0.2231 0.07242 0.24221 0.0
H758 H 0.25354 0.00021 0.30283 0.0
H759 H 0.24037 0.02602 0.2247 0.0
H760 H 0.26379 0.89713 0.20338 0.0
H761 H 0.24716 0.94543 0.22158 0.0
H762 H 0.27225 0.0004 0.2799 0.0
H763 H 0.2887 0.95029 0.26228 0.0
C764 C 0.23747 0.04397 0.29912 0.0
C765 C 0.22856 0.06393 0.28245 0.0
C766 C 0.24718 0.01659 0.28924 0.0
C767 C 0.24832 0.0088 0.26235 0.0
C768 C 0.23964 0.03034 0.24557 0.0
C769 C 0.22982 0.05743 0.25553 0.0
C770 C 0.26567 0.91896 0.22037 0.0
C771 C 0.27751 0.91974 0.23153 0.0
C772 C 0.25618 0.94722 0.23059 0.0
C773 C 0.25835 0.97747 0.25202 0.0
C774 C 0.27016 0.97724 0.26356 0.0
C775 C 0.27961 0.94844 0.25352 0.0
H776 H 0.03606 0.03377 0.00897 0.0
H777 H 0.00957 0.09935 0.95728 0.0
H778 H 0.02 0.98051 0.02564 0.0
H779 H 0.99339 0.04749 0.97454 0.0
H780 H 0.97019 0.91475 0.98855 0.0
H781 H 0.987 0.9656 0.97261 0.0
H782 H 0.00173 0.97515 0.05056 0.0
H783 H 0.98532 0.9231 0.06612 0.0
C784 C 0.02672 0.03769 0.00169 0.0
C785 C 0.02407 0.07074 0.98185 0.0
C786 C 0.0175 0.00703 0.01117 0.0
C787 C 0.0054 0.0091 0.00117 0.0
C788 C 0.00266 0.0439 0.9822 0.0
C789 C 0.0119 0.07418 0.97258 0.0
C790 C 0.97716 0.92705 0.00212 0.0
C791 C 0.97643 0.91487 0.02855 0.0
C792 C 0.98671 0.95673 0.9931 0.0
C793 C 0.99567 0.97511 0.01036 0.0
C794 C 0.99511 0.96145 0.03663 0.0
C795 C 0.98565 0.9316 0.04557 0.0
H796 H 0.21303 0.20438 0.01485 0.0
H797 H 0.23864 0.13614 0.96217 0.0
H798 H 0.22969 0.25427 0.03182 0.0
H799 H 0.25542 0.1848 0.9797 0.0
H800 H 0.27949 0.31609 0.99381 0.0
H801 H 0.2624 0.26643 0.97808 0.0
H802 H 0.24815 0.25605 0.0564 0.0
H803 H 0.26487 0.30682 0.07179 0.0
C804 C 0.2223 0.19907 0.00742 0.0
C805 C 0.22452 0.16635 0.98719 0.0
C806 C 0.23186 0.22782 0.01708 0.0
C807 C 0.2439 0.22417 0.00685 0.0
C808 C 0.24622 0.18952 0.98756 0.0
C809 C 0.23663 0.16108 0.97778 0.0
C810 C 0.27258 0.3038 0.00752 0.0
C811 C 0.27352 0.31548 0.03399 0.0
C812 C 0.26287 0.27482 0.99861 0.0
C813 C 0.25394 0.2567 0.01602 0.0
C814 C 0.25475 0.26962 0.04237 0.0
C815 C 0.26438 0.29874 0.0512 0.0
H816 H 0.97231 0.81749 0.7594 0.0
H817 H 0.99115 0.83717 0.68614 0.0
H818 H 0.9894 0.76771 0.77479 0.0
H819 H 0.00787 0.78611 0.70091 0.0
H820 H 0.04108 0.72317 0.74392 0.0
H821 H 0.0249 0.77716 0.72883 0.0
H822 H 0.99748 0.68943 0.76748 0.0
H823 H 0.01375 0.6367 0.78338 0.0
C824 C 0.98017 0.8117 0.74674 0.0
C825 C 0.98038 0.83125 0.72159 0.0
C826 C 0.98989 0.7826 0.75537 0.0
C827 C 0.99997 0.77215 0.73895 0.0
C828 C 1.00036 0.79352 0.71421 0.0
C829 C 0.99072 0.82284 0.70571 0.0
C830 C 0.03157 0.71496 0.74875 0.0
C831 C 0.02868 0.67567 0.76478 0.0
C832 C 0.02227 0.74602 0.74019 0.0
C833 C 0.00985 0.73818 0.74724 0.0
C834 C 0.00695 0.69744 0.76225 0.0
C835 C 0.01626 0.66672 0.77103 0.0
H836 H 0.74018 0.09942 0.79633 0.0
H837 H 0.71465 0.02379 0.7465 0.0
H838 H 0.75705 0.04939 0.78038 0.0
H839 H 0.73119 0.97177 0.73179 0.0
H840 H 0.76524 0.91448 0.6918 0.0
H841 H 0.74857 0.96478 0.7069 0.0
H842 H 0.76564 0.97264 0.78286 0.0
H843 H 0.7829 0.92438 0.76688 0.0
C844 C 0.73822 0.07234 0.78177 0.0
C845 C 0.72615 0.06586 0.77243 0.0
C846 C 0.74784 0.04303 0.77293 0.0
C847 C 0.74555 0.0059 0.75494 0.0
C848 C 0.73345 0.00032 0.74527 0.0
C849 C 0.72392 0.03026 0.75369 0.0
C850 C 0.76538 0.92631 0.71187 0.0
C851 C 0.77541 0.91537 0.72817 0.0
C852 C 0.75574 0.95525 0.72061 0.0
C853 C 0.75568 0.97332 0.74614 0.0
C854 C 0.76547 0.96046 0.76287 0.0
C855 C 0.77528 0.93212 0.7539 0.0
H856 H 0.7394 0.63484 0.95773 0.0
H857 H 0.71399 0.7001 0.01185 0.0
H858 H 0.75587 0.68723 0.9733 0.0
H859 H 0.73022 0.75416 0.02661 0.0
H860 H 0.76486 0.81477 0.06416 0.0
H861 H 0.7485 0.76165 0.04984 0.0
H862 H 0.76278 0.76753 0.97137 0.0
H863 H 0.77967 0.81919 0.98623 0.0
C864 C 0.73738 0.6601 0.97317 0.0
C865 C 0.72543 0.66311 0.98372 0.0
C866 C 0.74677 0.69073 0.98183 0.0
C867 C 0.7444 0.72563 0.001 0.0
C868 C 0.7325 0.7275 0.01206 0.0
C869 C 0.72316 0.69637 0.00365 0.0
C870 C 0.76445 0.80524 0.04375 0.0
C871 C 0.77358 0.82125 0.02631 0.0
C872 C 0.755 0.77474 0.03549 0.0
C873 C 0.75428 0.75981 0.00943 0.0
C874 C 0.76317 0.77734 0.99172 0.0
C875 C 0.77276 0.80752 0.00011 0.0
H876 H 0.24196 0.61329 0.80341 0.0
H877 H 0.22058 0.56252 0.73803 0.0
H878 H 0.25944 0.56513 0.78922 0.0
H879 H 0.23824 0.5151 0.72337 0.0
H880 H 0.26523 0.39019 0.72394 0.0
H881 H 0.24853 0.44269 0.73818 0.0
H882 H 0.27514 0.5534 0.75675 0.0
H883 H 0.29185 0.50041 0.74307 0.0
C884 C 0.2411 0.59277 0.7856 0.0
C885 C 0.22986 0.59157 0.77189 0.0
C886 C 0.25114 0.56509 0.77747 0.0
C887 C 0.25019 0.53557 0.7554 0.0
C888 C 0.23918 0.53658 0.74082 0.0
C889 C 0.22912 0.5643 0.74898 0.0
C890 C 0.26753 0.42541 0.73153 0.0
C891 C 0.27986 0.4411 0.73244 0.0
C892 C 0.25794 0.4558 0.73932 0.0
C893 C 0.26046 0.50263 0.74817 0.0
C894 C 0.27285 0.51755 0.75011 0.0
C895 C 0.28245 0.4871 0.74235 0.0
H896 H 0.01576 0.57535 0.43139 0.0
H897 H 0.03128 0.57634 0.50874 0.0
H898 H 0.99926 0.52288 0.44599 0.0
H899 H 0.01435 0.52522 0.52381 0.0
H900 H 0.9912 0.39255 0.53697 0.0
H901 H 0.00757 0.44433 0.52042 0.0
H902 H 0.98113 0.51599 0.4708 0.0
H903 H 0.96491 0.46273 0.48664 0.0
C904 C 0.01549 0.5652 0.45172 0.0
C905 C 0.02485 0.57995 0.46893 0.0
C906 C 0.00598 0.53507 0.46012 0.0
C907 C 0.00549 0.51924 0.48604 0.0
C908 C 0.01458 0.53573 0.50354 0.0
C909 C 0.0242 0.56559 0.49505 0.0
C910 C 0.98896 0.4187 0.5221 0.0
C911 C 0.97679 0.42346 0.51301 0.0
C912 C 0.9983 0.44894 0.5129 0.0
C913 C 0.99567 0.48508 0.49461 0.0
C914 C 0.98356 0.48843 0.48474 0.0
C915 C 0.97424 0.45776 0.49374 0.0
H916 H 0.23633 0.63467 0.46918 0.0
H917 H 0.20962 0.73945 0.49502 0.0
H918 H 0.25307 0.68718 0.48354 0.0
H919 H 0.22631 0.79246 0.50875 0.0
H920 H 0.25955 0.84898 0.55556 0.0
H921 H 0.24231 0.80041 0.54055 0.0
H922 H 0.26292 0.76258 0.47157 0.0
H923 H 0.2804 0.8105 0.48709 0.0
C924 C 0.23403 0.6687 0.47818 0.0
C925 C 0.22165 0.6828 0.4811 0.0
C926 C 0.24363 0.69911 0.48607 0.0
C927 C 0.24105 0.74436 0.49699 0.0
C928 C 0.22864 0.75778 0.50057 0.0
C929 C 0.21906 0.72732 0.49275 0.0
C930 C 0.26034 0.83099 0.53695 0.0
C931 C 0.27135 0.83347 0.52253 0.0
C932 C 0.25043 0.80312 0.52833 0.0
C933 C 0.25126 0.77707 0.505 0.0
C934 C 0.26207 0.78144 0.4899 0.0
C935 C 0.27202 0.80942 0.49857 0.0
H936 H 0.78018 0.43902 0.25986 0.0
H937 H 0.75933 0.39652 0.19205 0.0
H938 H 0.76256 0.48607 0.27511 0.0
H939 H 0.74187 0.44416 0.20692 0.0
H940 H 0.7092 0.50431 0.25394 0.0
H941 H 0.72595 0.45219 0.23955 0.0
H942 H 0.75253 0.56064 0.26176 0.0
H943 H 0.73578 0.61233 0.27663 0.0
C944 C 0.77177 0.43901 0.24847 0.0
C945 C 0.77115 0.41415 0.22475 0.0
C946 C 0.76173 0.46648 0.257 0.0
C947 C 0.75087 0.46953 0.24201 0.0
C948 C 0.75006 0.44252 0.21899 0.0
C949 C 0.76008 0.41518 0.21047 0.0
C950 C 0.71861 0.51733 0.25535 0.0
C951 C 0.72117 0.56247 0.26638 0.0
C952 C 0.72822 0.48739 0.24718 0.0
C953 C 0.7406 0.50193 0.24986 0.0
C954 C 0.74312 0.54787 0.25998 0.0
C955 C 0.73351 0.5778 0.26816 0.0
H956 H 0.7616 0.36027 0.54127 0.0
H957 H 0.78731 0.29679 0.48709 0.0
H958 H 0.745 0.31108 0.5234 0.0
H959 H 0.77087 0.2462 0.46986 0.0
H960 H 0.73606 0.193 0.42939 0.0
H961 H 0.75252 0.24402 0.44551 0.0
H962 H 0.73817 0.22957 0.52358 0.0
H963 H 0.72126 0.17978 0.50705 0.0
C964 C 0.76366 0.33622 0.52529 0.0
C965 C 0.77574 0.33253 0.5155 0.0
C966 C 0.75419 0.30745 0.51531 0.0
C967 C 0.7566 0.27398 0.49546 0.0
C968 C 0.76861 0.27177 0.48499 0.0
C969 C 0.77806 0.30091 0.49481 0.0
C970 C 0.73647 0.20022 0.45007 0.0
C971 C 0.72735 0.18233 0.46697 0.0
C972 C 0.74596 0.22949 0.45934 0.0
C973 C 0.74668 0.24133 0.48584 0.0
C974 C 0.73777 0.22205 0.50295 0.0
C975 C 0.72817 0.19298 0.49358 0.0
H976 H 0.48787 0.33423 0.68918 0.0
H977 H 0.47092 0.33192 0.76517 0.0
H978 H 0.50462 0.28485 0.705 0.0
H979 H 0.48822 0.2846 0.78172 0.0
H980 H 0.51302 0.15673 0.79708 0.0
H981 H 0.49633 0.20701 0.78062 0.0
H982 H 0.52223 0.27882 0.72958 0.0
H983 H 0.53862 0.22646 0.74495 0.0
C984 C 0.48791 0.32427 0.70955 0.0
C985 C 0.47805 0.337 0.72594 0.0
C986 C 0.49758 0.29589 0.71869 0.0
C987 C 0.49782 0.28013 0.74467 0.0
C988 C 0.48823 0.29492 0.76143 0.0
C989 C 0.4784 0.32271 0.7521 0.0
C990 C 0.51504 0.18267 0.78196 0.0
C991 C 0.52707 0.18737 0.7721 0.0
C992 C 0.50552 0.21211 0.77279 0.0
C993 C 0.50788 0.24764 0.75392 0.0
C994 C 0.51994 0.25154 0.74379 0.0
C995 C 0.52938 0.22143 0.75258 0.0
H996 H 0.46914 0.92825 0.48283 0.0
H997 H 0.4867 0.91506 0.55785 0.0
H998 H 0.48651 0.97668 0.46746 0.0
H999 H 0.50357 0.96539 0.54327 0.0
H1000 H 0.53749 0.0274 0.50357 0.0
H1001 H 0.52103 0.97422 0.51812 0.0
H1002 H 0.4948 0.05385 0.47155 0.0
H1003 H 0.51149 0.10509 0.45592 0.0
C1004 C 0.47676 0.93527 0.49592 0.0
C1005 C 0.47655 0.91772 0.52149 0.0
C1006 C 0.48665 0.96369 0.4873 0.0
C1007 C 0.49644 0.9758 0.50421 0.0
C1008 C 0.49636 0.9566 0.52949 0.0
C1009 C 0.48661 0.92766 0.53792 0.0
C1010 C 0.52815 0.034 0.49684 0.0
C1011 C 0.52575 0.0705 0.47872 0.0
C1012 C 0.51868 0.0034 0.50513 0.0
C1013 C 0.50652 0.00914 0.49585 0.0
C1014 C 0.50407 0.04726 0.4786 0.0
C1015 C 0.5136 0.07725 0.46995 0.0
H1016 H 0.47275 0.82775 0.25594 0.0
H1017 H 0.48674 0.80602 0.17818 0.0
H1018 H 0.48933 0.77734 0.27313 0.0
H1019 H 0.50285 0.75426 0.19501 0.0
H1020 H 0.53731 0.69849 0.23625 0.0
H1021 H 0.52135 0.75069 0.21856 0.0
H1022 H 0.49534 0.69543 0.275 0.0
H1023 H 0.5115 0.64483 0.29331 0.0
C1024 C 0.47942 0.81253 0.24257 0.0
C1025 C 0.47845 0.82098 0.21575 0.0
C1026 C 0.48883 0.7831 0.25233 0.0
C1027 C 0.49739 0.76116 0.23544 0.0
C1028 C 0.49656 0.77084 0.20868 0.0
C1029 C 0.48727 0.80053 0.19901 0.0
C1030 C 0.52812 0.6969 0.24455 0.0
C1031 C 0.52565 0.66753 0.26612 0.0
C1032 C 0.51895 0.72694 0.23446 0.0
C1033 C 0.50705 0.72784 0.24553 0.0
C1034 C 0.50446 0.6967 0.26639 0.0
C1035 C 0.51367 0.66711 0.27665 0.0
H1036 H 0.46425 0.45869 0.98641 0.0
H1037 H 0.4889 0.40641 0.04596 0.0
H1038 H 0.48053 0.51132 0.9701 0.0
H1039 H 0.50536 0.45732 0.02909 0.0
H1040 H 0.52861 0.58836 0.01138 0.0
H1041 H 0.51155 0.53879 0.02733 0.0
H1042 H 0.49948 0.51514 0.94822 0.0
H1043 H 0.51607 0.5661 0.93259 0.0
C1044 C 0.47326 0.45756 0.99558 0.0
C1045 C 0.47531 0.42839 0.01741 0.0
C1046 C 0.48261 0.48783 0.98629 0.0
C1047 C 0.49427 0.48916 0.99844 0.0
C1048 C 0.49643 0.45833 0.01964 0.0
C1049 C 0.48704 0.42857 0.02909 0.0
C1050 C 0.52216 0.5732 0.99752 0.0
C1051 C 0.52368 0.58125 0.97077 0.0
C1052 C 0.51247 0.54426 0.00658 0.0
C1053 C 0.50416 0.52235 0.98906 0.0
C1054 C 0.50554 0.53169 0.96236 0.0
C1055 C 0.51512 0.56092 0.95338 0.0
H1056 H 0.05285 0.52435 0.36197 0.0
H1057 H 0.06975 0.46629 0.43125 0.0
H1058 H 0.05282 0.44446 0.34243 0.0
H1059 H 0.07011 0.38683 0.41148 0.0
H1060 H 0.06499 0.30339 0.30619 0.0
H1061 H 0.06613 0.38335 0.3252 0.0
H1062 H 0.05573 0.32461 0.39991 0.0
H1063 H 0.055 0.24427 0.38097 0.0
C1064 C 0.05672 0.49461 0.37283 0.0
C1065 C 0.06126 0.50136 0.39812 0.0
C1066 C 0.05675 0.4489 0.36164 0.0
C1067 C 0.0614 0.40923 0.37548 0.0
C1068 C 0.06624 0.41644 0.40052 0.0
C1069 C 0.06612 0.462 0.41176 0.0
C1070 C 0.06297 0.30759 0.32669 0.0
C1071 C 0.0599 0.26772 0.34214 0.0
C1072 C 0.06356 0.35343 0.33755 0.0
C1073 C 0.061 0.36037 0.36405 0.0
C1074 C 0.05794 0.32036 0.37951 0.0
C1075 C 0.05744 0.27441 0.36866 0.0
H1076 H 0.17217 0.73932 0.38813 0.0
H1077 H 0.21207 0.74454 0.38801 0.0
H1078 H 0.1715 0.82161 0.37141 0.0
H1079 H 0.21136 0.82686 0.37159 0.0
H1080 H 0.20344 0.98957 0.37993 0.0
H1081 H 0.20338 0.90532 0.39349 0.0
H1082 H 0.17843 0.87062 0.33074 0.0
H1083 H 0.17857 0.95474 0.31695 0.0
C1084 C 0.18078 0.75777 0.3841 0.0
C1085 C 0.19217 0.7357 0.38938 0.0
C1086 C 0.18039 0.80475 0.37459 0.0
C1087 C 0.19138 0.83055 0.37061 0.0
C1088 C 0.20277 0.80781 0.37488 0.0
C1089 C 0.20317 0.76063 0.38401 0.0
C1090 C 0.19784 0.96404 0.36923 0.0
C1091 C 0.19102 0.97853 0.34741 0.0
C1092 C 0.1979 0.91588 0.37682 0.0
C1093 C 0.191 0.88163 0.36295 0.0
C1094 C 0.18382 0.89642 0.3417 0.0
C1095 C 0.18391 0.94444 0.33387 0.0
H1096 H 0.07119 0.96657 0.92236 0.0
H1097 H 0.03813 0.99611 0.8781 0.0
H1098 H 0.07171 0.8851 0.90476 0.0
H1099 H 0.03855 0.91375 0.86089 0.0
H1100 H 0.03818 0.74272 0.8665 0.0
H1101 H 0.03727 0.82454 0.88432 0.0
H1102 H 0.07408 0.8522 0.85571 0.0
H1103 H 0.07492 0.77122 0.83746 0.0
C1104 C 0.06404 0.95557 0.90885 0.0
C1105 C 0.05464 0.98746 0.90146 0.0
C1106 C 0.06436 0.9091 0.89883 0.0
C1107 C 0.05514 0.89346 0.88168 0.0
C1108 C 0.04569 0.92519 0.87429 0.0
C1109 C 0.04552 0.97217 0.88391 0.0
C1110 C 0.04609 0.76626 0.86426 0.0
C1111 C 0.05663 0.75088 0.85073 0.0
C1112 C 0.04552 0.81295 0.8742 0.0
C1113 C 0.05559 0.84431 0.87119 0.0
C1114 C 0.06623 0.82847 0.85824 0.0
C1115 C 0.06669 0.78229 0.84786 0.0
H1116 H 0.19543 0.4532 0.81183 0.0
H1117 H 0.20651 0.51739 0.8847 0.0
H1118 H 0.19581 0.37406 0.83179 0.0
H1119 H 0.20728 0.43773 0.90459 0.0
H1120 H 0.20711 0.23371 0.86945 0.0
H1121 H 0.20913 0.31318 0.84963 0.0
H1122 H 0.19269 0.37734 0.9179 0.0
H1123 H 0.19104 0.2985 0.93787 0.0
C1124 C 0.19809 0.45029 0.83208 0.0
C1125 C 0.20086 0.49142 0.8468 0.0
C1126 C 0.1984 0.40487 0.84346 0.0
C1127 C 0.20156 0.39958 0.86978 0.0
C1128 C 0.20462 0.44072 0.88435 0.0
C1129 C 0.20424 0.48627 0.87298 0.0
C1130 C 0.20399 0.26491 0.88018 0.0
C1131 C 0.19889 0.26001 0.90512 0.0
C1132 C 0.2051 0.31034 0.86884 0.0
C1133 C 0.20108 0.35158 0.88221 0.0
C1134 C 0.19608 0.34647 0.90726 0.0
C1135 C 0.19504 0.30121 0.91861 0.0
H1136 H 0.95305 0.76631 0.61201 0.0
H1137 H 0.94106 0.70569 0.68516 0.0
H1138 H 0.95337 0.68609 0.59288 0.0
H1139 H 0.94109 0.62573 0.6659 0.0
H1140 H 0.95543 0.48563 0.63009 0.0
H1141 H 0.95555 0.56575 0.64959 0.0
H1142 H 0.93894 0.62381 0.57993 0.0
H1143 H 0.9391 0.54434 0.56033 0.0
C1144 C 0.9504 0.73587 0.62391 0.0
C1145 C 0.94702 0.74213 0.65002 0.0
C1146 C 0.95054 0.69 0.61297 0.0
C1147 C 0.94726 0.64963 0.62792 0.0
C1148 C 0.94383 0.65605 0.65401 0.0
C1149 C 0.94373 0.70186 0.66496 0.0
C1150 C 0.95181 0.51559 0.61903 0.0
C1151 C 0.94728 0.50889 0.59373 0.0
C1152 C 0.95182 0.56135 0.63019 0.0
C1153 C 0.94728 0.60105 0.61624 0.0
C1154 C 0.94269 0.59409 0.591 0.0
C1155 C 0.94271 0.54851 0.57985 0.0
H1156 H 0.81104 0.04708 0.68908 0.0
H1157 H 0.79882 0.9822 0.61722 0.0
H1158 H 0.80984 0.12628 0.66922 0.0
H1159 H 0.79724 0.06175 0.59748 0.0
H1160 H 0.79592 0.26499 0.63308 0.0
H1161 H 0.79541 0.18522 0.65298 0.0
H1162 H 0.81093 0.12432 0.5829 0.0
H1163 H 0.81109 0.20337 0.5629 0.0
C1164 C 0.80801 0.04983 0.66907 0.0
C1165 C 0.80509 0.00855 0.6546 0.0
C1166 C 0.80722 0.09525 0.65776 0.0
C1167 C 0.80343 0.10032 0.63179 0.0
C1168 C 0.80036 0.05896 0.61743 0.0
C1169 C 0.80121 0.01346 0.62872 0.0
C1170 C 0.79916 0.23443 0.62197 0.0
C1171 C 0.80356 0.2403 0.59651 0.0
C1172 C 0.79893 0.18885 0.63336 0.0
C1173 C 0.80313 0.14845 0.6195 0.0
C1174 C 0.80744 0.15451 0.59395 0.0
C1175 C 0.80762 0.1999 0.58257 0.0
H1176 H 0.94791 0.24849 0.11427 0.0
H1177 H 0.93253 0.1949 0.18619 0.0
H1178 H 0.94673 0.16782 0.09571 0.0
H1179 H 0.93108 0.11474 0.16752 0.0
H1180 H 0.9453 0.9702 0.13583 0.0
H1181 H 0.94501 0.05085 0.15445 0.0
H1182 H 0.93183 0.10777 0.08136 0.0
H1183 H 0.93239 0.02742 0.06263 0.0
C1184 C 0.94418 0.21957 0.12599 0.0
C1185 C 0.94037 0.22784 0.15166 0.0
C1186 C 0.94344 0.17347 0.11536 0.0
C1187 C 0.93884 0.13492 0.1302 0.0
C1188 C 0.93484 0.14353 0.15574 0.0
C1189 C 0.93561 0.1895 0.16637 0.0
C1190 C 0.94224 -8e-05 0.12386 0.0
C1191 C 0.93891 0.99265 0.0978 0.0
C1192 C 0.94203 0.04606 0.13452 0.0
C1193 C 0.93846 0.08569 0.1193 0.0
C1194 C 0.93482 0.07808 0.09343 0.0
C1195 C 0.93505 0.03203 0.08278 0.0
H1196 H 0.7998 0.4903 0.1142 0.0
H1197 H 0.80975 0.54726 0.18951 0.0
H1198 H 0.80145 0.57075 0.09555 0.0
H1199 H 0.81177 0.62715 0.17081 0.0
H1200 H 0.81772 0.70989 0.06531 0.0
H1201 H 0.81688 0.63032 0.08495 0.0
H1202 H 0.79931 0.69059 0.15302 0.0
H1203 H 0.8005 0.77045 0.13363 0.0
C1204 C 0.80238 0.51999 0.12671 0.0
C1205 C 0.80461 0.51265 0.15327 0.0
C1206 C 0.80342 0.56596 0.11603 0.0
C1207 C 0.80678 0.6053 0.13171 0.0
C1208 C 0.809 0.59776 0.15829 0.0
C1209 C 0.80789 0.55194 0.16897 0.0
C1210 C 0.81379 0.70616 0.08459 0.0
C1211 C 0.80916 0.74623 0.09797 0.0
C1212 C 0.81321 0.66055 0.09573 0.0
C1213 C 0.80792 0.65408 0.12042 0.0
C1214 C 0.80356 0.69445 0.13406 0.0
C1215 C 0.80421 0.74016 0.12297 0.0
H1216 H 0.56698 0.3027 0.8131 0.0
H1217 H 0.55282 0.24609 0.88547 0.0
H1218 H 0.56818 0.38245 0.83217 0.0
H1219 H 0.55376 0.32658 0.9045 0.0
H1220 H 0.56842 0.46797 0.93715 0.0
H1221 H 0.56866 0.38764 0.91827 0.0
H1222 H 0.55411 0.44484 0.84641 0.0
H1223 H 0.55412 0.52536 0.86514 0.0
C1224 C 0.56409 0.30736 0.83311 0.0
C1225 C 0.55977 0.26826 0.84782 0.0
C1226 C 0.56472 0.35313 0.84397 0.0
C1227 C 0.56101 0.36085 0.86977 0.0
C1228 C 0.55681 0.3216 0.88463 0.0
C1229 C 0.55621 0.27563 0.87373 0.0
C1230 C 0.56538 0.46341 0.91724 0.0
C1231 C 0.56126 0.50284 0.90257 0.0
C1232 C 0.56543 0.41737 0.90652 0.0
C1233 C 0.56134 0.40989 0.88093 0.0
C1234 C 0.55744 0.44955 0.86611 0.0
C1235 C 0.55742 0.49562 0.87682 0.0
H1236 H 0.7029 0.72137 0.86983 0.0
H1237 H 0.68545 0.78033 0.93829 0.0
H1238 H 0.70356 0.80152 0.85047 0.0
H1239 H 0.68581 0.85994 0.91877 0.0
H1240 H 0.70029 0.00283 0.88756 0.0
H1241 H 0.70032 0.92261 0.90693 0.0
H1242 H 0.68974 0.86155 0.83292 0.0
H1243 H 0.69003 0.9412 0.81353 0.0
C1244 C 0.69912 0.75138 0.88061 0.0
C1245 C 0.69413 0.7447 0.90552 0.0
C1246 C 0.69946 0.79721 0.86953 0.0
C1247 C 0.69477 0.8371 0.88315 0.0
C1248 C 0.68969 0.83014 0.90798 0.0
C1249 C 0.68939 0.78445 0.91906 0.0
C1250 C 0.69799 0.97219 0.8755 0.0
C1251 C 0.69516 0.97819 0.84909 0.0
C1252 C 0.69795 0.92633 0.88657 0.0
C1253 C 0.69504 0.88573 0.87142 0.0
C1254 C 0.69221 0.89195 0.84501 0.0
C1255 C 0.69229 0.93766 0.83396 0.0
H1256 H 0.56343 0.78966 0.31006 0.0
H1257 H 0.55011 0.73122 0.3827 0.0
H1258 H 0.56378 0.86976 0.32904 0.0
H1259 H 0.55022 0.81178 0.40161 0.0
H1260 H 0.56514 0.95306 0.43413 0.0
H1261 H 0.56509 0.87317 0.41491 0.0
H1262 H 0.54939 0.93122 0.34435 0.0
H1263 H 0.54967 0.01163 0.36348 0.0
C1264 C 0.56055 0.79398 0.33009 0.0
C1265 C 0.55676 0.75425 0.34496 0.0
C1266 C 0.56067 0.83992 0.34088 0.0
C1267 C 0.557 0.84707 0.36676 0.0
C1268 C 0.55324 0.80726 0.38168 0.0
C1269 C 0.55312 0.76122 0.37086 0.0
C1270 C 0.56172 0.94882 0.41446 0.0
C1271 C 0.55741 0.98851 0.40025 0.0
C1272 C 0.56161 0.903 0.40355 0.0
C1273 C 0.55718 0.89589 0.3782 0.0
C1274 C 0.55297 0.9357 0.36386 0.0
C1275 C 0.55309 0.98166 0.3748 0.0
H1276 H 0.67852 0.28878 0.43286 0.0
H1277 H 0.70175 0.25138 0.36762 0.0
H1278 H 0.6789 0.37292 0.41937 0.0
H1279 H 0.70216 0.33574 0.35421 0.0
H1280 H 0.71259 0.49499 0.35906 0.0
H1281 H 0.71138 0.41218 0.37461 0.0
H1282 H 0.67174 0.42461 0.38103 0.0
H1283 H 0.67291 0.50742 0.36533 0.0
C1284 C 0.68359 0.29851 0.41547 0.0
C1285 C 0.69012 0.26369 0.40126 0.0
C1286 C 0.68379 0.34659 0.40778 0.0
C1287 C 0.69067 0.36073 0.38597 0.0
C1288 C 0.69693 0.32573 0.37134 0.0
C1289 C 0.69659 0.2775 0.37884 0.0
C1290 C 0.70365 0.48035 0.36427 0.0
C1291 C 0.69284 0.50752 0.36097 0.0
C1292 C 0.70295 0.43286 0.37286 0.0
C1293 C 0.69145 0.41197 0.37861 0.0
C1294 C 0.68071 0.43994 0.37668 0.0
C1295 C 0.68139 0.48727 0.36777 0.0
H1296 H 0.43232 0.54014 0.05948 0.0
H1297 H 0.44839 0.48701 0.13079 0.0
H1298 H 0.43116 0.62047 0.07803 0.0
H1299 H 0.44748 0.56784 0.14923 0.0
H1300 H 0.43417 0.70976 0.18223 0.0
H1301 H 0.43295 0.62911 0.16399 0.0
H1302 H 0.44568 0.68364 0.08999 0.0
H1303 H 0.44665 0.7646 0.10814 0.0
C1304 C 0.43558 0.54565 0.07917 0.0
C1305 C 0.44049 0.50743 0.0937 0.0
C1306 C 0.43498 0.59171 0.08972 0.0
C1307 C 0.4393 0.60053 0.115 0.0
C1308 C 0.44396 0.56203 0.12977 0.0
C1309 C 0.44453 0.51584 0.1192 0.0
C1310 C 0.4366 0.70457 0.162 0.0
C1311 C 0.44053 0.74336 0.14658 0.0
C1312 C 0.43598 0.65834 0.15162 0.0
C1313 C 0.43929 0.64998 0.12563 0.0
C1314 C 0.44294 0.68904 0.11003 0.0
C1315 C 0.44354 0.73535 0.12041 0.0
H1316 H 0.30362 0.98127 0.11736 0.0
H1317 H 0.32094 0.03359 0.18758 0.0
H1318 H 0.30456 0.06208 0.09888 0.0
H1319 H 0.32212 0.11388 0.16896 0.0
H1320 H 0.31787 0.20344 0.06502 0.0
H1321 H 0.31908 0.12272 0.08317 0.0
H1322 H 0.30765 0.17768 0.15798 0.0
H1323 H 0.30668 0.25869 0.13991 0.0
C1324 C 0.30775 0.00991 0.12869 0.0
C1325 C 0.31214 0.0013 0.15392 0.0
C1326 C 0.30834 0.05609 0.1181 0.0
C1327 C 0.31336 0.09435 0.13255 0.0
C1328 C 0.31802 0.08531 0.15754 0.0
C1329 C 0.31741 0.03927 0.16812 0.0
C1330 C 0.31573 0.19833 0.08541 0.0
C1331 C 0.31215 0.23726 0.10108 0.0
C1332 C 0.31635 0.15207 0.09573 0.0
C1333 C 0.31339 0.14382 0.12193 0.0
C1334 C 0.31011 0.183 0.13777 0.0
C1335 C 0.30951 0.22934 0.12743 0.0
H1336 H 0.45338 0.26801 0.61535 0.0
H1337 H 0.44043 0.20495 0.68713 0.0
H1338 H 0.45384 0.18843 0.59537 0.0
H1339 H 0.44046 0.12591 0.66703 0.0
H1340 H 0.45278 0.98511 0.63122 0.0
H1341 H 0.45396 0.06464 0.6511 0.0
H1342 H 0.43976 0.12797 0.58039 0.0
H1343 H 0.43901 0.04888 0.56035 0.0
C1344 C 0.45058 0.23716 0.62678 0.0
C1345 C 0.44686 0.24256 0.65274 0.0
C1346 C 0.45078 0.19165 0.61534 0.0
C1347 C 0.44718 0.15082 0.62962 0.0
C1348 C 0.4435 0.15644 0.65562 0.0
C1349 C 0.44339 0.20179 0.66708 0.0
C1350 C 0.44994 0.01611 0.61998 0.0
C1351 C 0.44579 0.01092 0.59431 0.0
C1352 C 0.45057 0.06161 0.63136 0.0
C1353 C 0.44695 0.10265 0.61732 0.0
C1354 C 0.44282 0.09725 0.5916 0.0
C1355 C 0.44229 0.05188 0.58018 0.0
H1356 H 0.28504 0.5027 0.63863 0.0
H1357 H 0.32485 0.50142 0.63267 0.0
H1358 H 0.28467 0.5842 0.62066 0.0
H1359 H 0.32446 0.58247 0.61454 0.0
H1360 H 0.31648 0.70969 0.55945 0.0
H1361 H 0.31626 0.62633 0.57417 0.0
H1362 H 0.29283 0.66592 0.63864 0.0
H1363 H 0.29312 0.74974 0.62401 0.0
C1364 C 0.29367 0.51947 0.63299 0.0
C1365 C 0.30497 0.49591 0.63699 0.0
C1366 C 0.29346 0.56614 0.62299 0.0
C1367 C 0.30454 0.58953 0.61646 0.0
C1368 C 0.31579 0.56509 0.61936 0.0
C1369 C 0.31601 0.51879 0.6297 0.0
C1370 C 0.31131 0.70063 0.57682 0.0
C1371 C 0.30484 0.73607 0.59068 0.0
C1372 C 0.3112 0.65301 0.58521 0.0
C1373 C 0.30447 0.63985 0.6074 0.0
C1374 C 0.29797 0.67522 0.62128 0.0
C1375 C 0.29823 0.7231 0.61308 0.0
H1376 H 0.05824 0.80672 0.4395 0.0
H1377 H 0.04551 0.74343 0.36769 0.0
H1378 H 0.0584 0.88578 0.41902 0.0
H1379 H 0.0451 0.8225 0.34748 0.0
H1380 H 0.06047 0.95815 0.31009 0.0
H1381 H 0.05902 0.88023 0.33139 0.0
H1382 H 0.04655 0.94957 0.4019 0.0
H1383 H 0.04855 0.02766 0.3808 0.0
C1384 C 0.05525 0.8099 0.41947 0.0
C1385 C 0.05194 0.76896 0.40513 0.0
C1386 C 0.05529 0.85525 0.40772 0.0
C1387 C 0.05186 0.86065 0.38147 0.0
C1388 C 0.04809 0.81969 0.36752 0.0
C1389 C 0.04821 0.77437 0.37916 0.0
C1390 C 0.0574 0.95666 0.33013 0.0
C1391 C 0.05465 -0.00106 0.34381 0.0
C1392 C 0.05648 0.91194 0.34233 0.0
C1393 C 0.05262 0.90839 0.36841 0.0
C1394 C 0.04974 0.95085 0.38196 0.0
C1395 C 0.05081 0.99563 0.36983 0.0
H1396 H 0.20802 0.44845 0.44243 0.0
H1397 H 0.19815 0.50392 0.36685 0.0
H1398 H 0.21033 0.36823 0.42381 0.0
H1399 H 0.19992 0.42385 0.34844 0.0
H1400 H 0.21127 0.28072 0.31676 0.0
H1401 H 0.21306 0.36042 0.33615 0.0
H1402 H 0.19768 0.30558 0.40788 0.0
H1403 H 0.19641 0.22576 0.38879 0.0
C1404 C 0.20639 0.44349 0.42182 0.0
C1405 C 0.20287 0.4824 0.40611 0.0
C1406 C 0.20762 0.39747 0.41116 0.0
C1407 C 0.20525 0.3893 0.3846 0.0
C1408 C 0.20203 0.42868 0.36885 0.0
C1409 C 0.20092 0.47467 0.37945 0.0
C1410 C 0.20842 0.2857 0.33677 0.0
C1411 C 0.20366 0.24709 0.35122 0.0
C1412 C 0.20936 0.33145 0.34786 0.0
C1413 C 0.20542 0.33974 0.37357 0.0
C1414 C 0.20097 0.30062 0.38819 0.0
C1415 C 0.20016 0.25481 0.37718 0.0
H1416 H 0.04267 0.51423 0.87988 0.0
H1417 H 0.05537 0.446 0.80941 0.0
H1418 H 0.04027 0.4358 0.90033 0.0
H1419 H 0.05348 0.36756 0.83012 0.0
H1420 H 0.04076 0.22929 0.86707 0.0
H1421 H 0.03988 0.30803 0.84634 0.0
H1422 H 0.05269 0.37387 0.91759 0.0
H1423 H 0.05306 0.29539 0.93847 0.0
C1424 C 0.04495 0.48239 0.86876 0.0
C1425 C 0.04925 0.48622 0.84308 0.0
C1426 C 0.04365 0.4374 0.88054 0.0
C1427 C 0.04676 0.39517 0.867 0.0
C1428 C 0.05082 0.39912 0.84107 0.0
C1429 C 0.05198 0.44413 0.8292 0.0
C1430 C 0.04324 0.26072 0.87835 0.0
C1431 C 0.04699 0.25621 0.90437 0.0
C1432 C 0.04284 0.30585 0.86642 0.0
C1433 C 0.04629 0.34747 0.88018 0.0
C1434 C 0.04978 0.34286 0.90644 0.0
C1435 C 0.05006 0.29779 0.91842 0.0
H1436 H 0.20564 0.01813 0.87056 0.0
H1437 H 0.19186 0.95239 0.94089 0.0
H1438 H 0.20672 0.93943 0.8499 0.0
H1439 H 0.19253 0.87378 0.92001 0.0
H1440 H 0.20577 0.73449 0.88357 0.0
H1441 H 0.20615 0.8132 0.90433 0.0
H1442 H 0.19361 0.87832 0.83274 0.0
H1443 H 0.19366 0.79971 0.8118 0.0
C1444 C 0.20281 0.98681 0.88158 0.0
C1445 C 0.19867 0.9914 0.90734 0.0
C1446 C 0.20335 0.9417 0.86969 0.0
C1447 C 0.19966 0.90014 0.88321 0.0
C1448 C 0.19561 0.90483 0.9091 0.0
C1449 C 0.19516 0.94993 0.92105 0.0
C1450 C 0.20315 0.76569 0.87225 0.0
C1451 C 0.19969 0.76096 0.84606 0.0
C1452 C 0.20328 0.8108 0.8842 0.0
C1453 C 0.19987 0.85223 0.87028 0.0
C1454 C 0.19648 0.84738 0.84398 0.0
C1455 C 0.19643 0.80228 0.83199 0.0
H1456 H 0.94662 0.20103 0.55678 0.0
H1457 H 0.96126 0.2678 0.62605 0.0
H1458 H 0.94766 0.12273 0.57785 0.0
H1459 H 0.96273 0.18932 0.64688 0.0
H1460 H 0.94852 0.05139 0.68613 0.0
H1461 H 0.94946 0.12973 0.66498 0.0
H1462 H 0.96106 0.06163 0.59348 0.0
H1463 H 0.95967 0.9833 0.61444 0.0
C1464 C 0.95025 0.19883 0.57638 0.0
C1465 C 0.95381 0.24051 0.58981 0.0
C1466 C 0.95091 0.1539 0.58844 0.0
C1467 C 0.95524 0.14961 0.61414 0.0
C1468 C 0.95914 0.19132 0.62726 0.0
C1469 C 0.95838 0.23628 0.61526 0.0
C1470 C 0.95135 0.05328 0.66595 0.0
C1471 C 0.95396 0.01126 0.6519 0.0
C1472 C 0.95196 0.0982 0.65383 0.0
C1473 C 0.95529 0.10209 0.62745 0.0
C1474 C 0.95824 0.05998 0.61366 0.0
C1475 C 0.95752 0.01509 0.62572 0.0
H1476 H 0.7946 0.48374 0.63078 0.0
H1477 H 0.809 0.54805 0.56063 0.0
H1478 H 0.79427 0.56241 0.65164 0.0
H1479 H 0.80912 0.62646 0.58169 0.0
H1480 H 0.80915 0.6994 0.6901 0.0
H1481 H 0.80803 0.62098 0.66903 0.0
H1482 H 0.79639 0.68922 0.59761 0.0
H1483 H 0.79797 0.76755 0.61847 0.0
C1484 C 0.7977 0.51475 0.61982 0.0
C1485 C 0.80182 0.50977 0.59407 0.0
C1486 C 0.7976 0.55981 0.63184 0.0
C1487 C 0.80173 0.6009 0.61844 0.0
C1488 C 0.80571 0.59584 0.59252 0.0
C1489 C 0.8057 0.55082 0.58045 0.0
C1490 C 0.80633 0.69753 0.66992 0.0
C1491 C 0.80371 0.73959 0.65591 0.0
C1492 C 0.8056 0.65256 0.65785 0.0
C1493 C 0.80213 0.64864 0.63155 0.0
C1494 C 0.79931 0.69083 0.61773 0.0
C1495 C 0.80013 0.73577 0.62973 0.0
H1496 H 0.95841 0.46849 0.11812 0.0
H1497 H 0.94451 0.53569 0.18788 0.0
H1498 H 0.96037 0.54712 0.09757 0.0
H1499 H 0.94594 0.61405 0.1671 0.0
H1500 H 0.94661 0.68643 0.05894 0.0
H1501 H 0.94776 0.60774 0.07959 0.0
H1502 H 0.95906 0.67505 0.15157 0.0
H1503 H 0.95734 0.75371 0.13112 0.0
C1504 C 0.95579 0.50014 0.12907 0.0
C1505 C 0.95129 0.49598 0.15458 0.0
C1506 C 0.95683 0.54521 0.11723 0.0
C1507 C 0.95325 0.58712 0.13055 0.0
C1508 C 0.94898 0.58282 0.15632 0.0
C1509 C 0.94809 0.53781 0.16823 0.0
C1510 C 0.94945 0.68427 0.0791 0.0
C1511 C 0.9518 0.72617 0.09347 0.0
C1512 C 0.95018 0.63912 0.09095 0.0
C1513 C 0.95342 0.63485 0.11737 0.0
C1514 C 0.95626 0.67688 0.13138 0.0
C1515 C 0.95537 0.722 0.11961 0.0
H1516 H 0.79318 0.2709 0.11438 0.0
H1517 H 0.80653 0.20284 0.18438 0.0
H1518 H 0.79179 0.19263 0.09319 0.0
H1519 H 0.80562 0.1249 0.16301 0.0
H1520 H 0.79307 0.98651 0.12722 0.0
H1521 H 0.79196 0.06547 0.14737 0.0
H1522 H 0.80431 0.13058 0.07557 0.0
H1523 H 0.8049 0.05142 0.05514 0.0
C1524 C 0.79585 0.23917 0.1252 0.0
C1525 C 0.79994 0.24294 0.15104 0.0
C1526 C 0.79513 0.19432 0.11301 0.0
C1527 C 0.79858 0.15228 0.12634 0.0
C1528 C 0.80265 0.15627 0.15225 0.0
C1529 C 0.80326 0.20102 0.16449 0.0
C1530 C 0.79542 0.01777 0.11567 0.0
C1531 C 0.79911 0.01283 0.08964 0.0
C1532 C 0.79489 0.06306 0.12728 0.0
C1533 C 0.7982 0.10451 0.11325 0.0
C1534 C 0.80156 0.09959 0.08693 0.0
C1535 C 0.80195 0.05422 0.07521 0.0
H1536 H 0.5548 0.74581 0.86747 0.0
H1537 H 0.54535 0.80602 0.94223 0.0
H1538 H 0.55433 0.82543 0.84823 0.0
H1539 H 0.5444 0.88606 0.92274 0.0
H1540 H 0.55948 0.02521 0.8855 0.0
H1541 H 0.55781 0.94625 0.90575 0.0
H1542 H 0.54163 0.88982 0.83519 0.0
H1543 H 0.54379 0.96833 0.81471 0.0
C1544 C 0.55242 0.77606 0.87973 0.0
C1545 C 0.55014 0.76965 0.90639 0.0
C1546 C 0.55207 0.82183 0.86864 0.0
C1547 C 0.54932 0.86241 0.88388 0.0
C1548 C 0.54673 0.85578 0.91048 0.0
C1549 C 0.54718 0.80989 0.92164 0.0
C1550 C 0.55552 0.99593 0.87439 0.0
C1551 C 0.55186 0.00283 0.84846 0.0
C1552 C 0.55447 0.95068 0.88606 0.0
C1553 C 0.54964 0.9114 0.87212 0.0
C1554 C 0.54563 0.91889 0.84639 0.0
C1555 C 0.5468 0.96398 0.83466 0.0
H1556 H 0.69364 0.43719 0.94519 0.0
H1557 H 0.70802 0.50134 0.87501 0.0
H1558 H 0.69401 0.35834 0.9245 0.0
H1559 H 0.70891 0.42246 0.85461 0.0
H1560 H 0.69446 0.28665 0.81542 0.0
H1561 H 0.69548 0.36445 0.83693 0.0
H1562 H 0.70634 0.2947 0.90848 0.0
H1563 H 0.70482 0.21667 0.88707 0.0
C1564 C 0.69708 0.43428 0.92548 0.0
C1565 C 0.70073 0.47545 0.91167 0.0
C1566 C 0.69736 0.38902 0.91361 0.0
C1567 C 0.70141 0.38385 0.88774 0.0
C1568 C 0.70547 0.42504 0.87432 0.0
C1569 C 0.70506 0.47028 0.88608 0.0
C1570 C 0.69711 0.28799 0.83572 0.0
C1571 C 0.69953 0.24556 0.84956 0.0
C1572 C 0.69778 0.33268 0.84806 0.0
C1573 C 0.70103 0.33612 0.87451 0.0
C1574 C 0.70363 0.29353 0.88823 0.0
C1575 C 0.70283 0.24877 0.87592 0.0
H1576 H 0.55487 0.44516 0.30909 0.0
H1577 H 0.54231 0.51362 0.37962 0.0
H1578 H 0.55373 0.36707 0.33036 0.0
H1579 H 0.54071 0.43538 0.40071 0.0
H1580 H 0.55501 0.29629 0.43871 0.0
H1581 H 0.55386 0.37465 0.41767 0.0
H1582 H 0.54043 0.30704 0.34743 0.0
H1583 H 0.54205 0.22864 0.36824 0.0
C1584 C 0.55167 0.4434 0.32903 0.0
C1585 C 0.54873 0.48549 0.34272 0.0
C1586 C 0.55095 0.39858 0.34122 0.0
C1587 C 0.54716 0.39478 0.36734 0.0
C1588 C 0.54388 0.43694 0.38075 0.0
C1589 C 0.5447 0.48178 0.36861 0.0
C1590 C 0.55171 0.29829 0.41885 0.0
C1591 C 0.54869 0.25635 0.40507 0.0
C1592 C 0.55098 0.34326 0.40679 0.0
C1593 C 0.54711 0.34729 0.38074 0.0
C1594 C 0.54369 0.3053 0.36732 0.0
C1595 C 0.54452 0.26035 0.3793 0.0
H1596 H 0.6988 0.9549 0.43612 0.0
H1597 H 0.70854 0.02136 0.3631 0.0
H1598 H 0.70029 0.87591 0.41608 0.0
H1599 H 0.71067 0.94231 0.34322 0.0
H1600 H 0.71076 0.73614 0.379 0.0
H1601 H 0.71284 0.81563 0.39847 0.0
H1602 H 0.69815 0.87955 0.32834 0.0
H1603 H 0.69667 0.80035 0.30861 0.0
C1604 C 0.7015 0.95251 0.41589 0.0
C1605 C 0.70347 0.99426 0.40113 0.0
C1606 C 0.70245 0.90715 0.40438 0.0
C1607 C 0.70555 0.90244 0.3779 0.0
C1608 C 0.708 0.94439 0.36347 0.0
C1609 C 0.70687 0.98976 0.3749 0.0
C1610 C 0.70815 0.76734 0.36767 0.0
C1611 C 0.70353 0.76207 0.34232 0.0
C1612 C 0.70924 0.81293 0.37889 0.0
C1613 C 0.70556 0.85427 0.36515 0.0
C1614 C 0.70126 0.84884 0.33947 0.0
C1615 C 0.70034 0.80332 0.32814 0.0
H1616 H 0.46042 0.26779 0.12504 0.0
H1617 H 0.44648 0.20076 0.05525 0.0
H1618 H 0.46265 0.18909 0.14528 0.0
H1619 H 0.44815 0.12219 0.07576 0.0
H1620 H 0.45965 0.98245 0.11173 0.0
H1621 H 0.46123 0.06113 0.09118 0.0
H1622 H 0.45019 0.12833 0.16333 0.0
H1623 H 0.44918 0.04974 0.18405 0.0
C1624 C 0.45786 0.23614 0.11401 0.0
C1625 C 0.45325 0.24039 0.08859 0.0
C1626 C 0.45904 0.19101 0.12568 0.0
C1627 C 0.45549 0.14907 0.11231 0.0
C1628 C 0.45116 0.15345 0.08659 0.0
C1629 C 0.45013 0.19856 0.07482 0.0
C1630 C 0.45772 0.01415 0.12324 0.0
C1631 C 0.45426 0.00998 0.14946 0.0
C1632 C 0.45853 0.05928 0.11142 0.0
C1633 C 0.45573 0.1013 0.12546 0.0
C1634 C 0.45259 0.097 0.15194 0.0
C1635 C 0.45194 0.05188 0.16383 0.0
H1636 H 0.30619 0.69468 0.19242 0.0
H1637 H 0.2923 0.7618 0.12264 0.0
H1638 H 0.30441 0.61614 0.17192 0.0
H1639 H 0.28997 0.6831 0.10242 0.0
H1640 H 0.30331 0.54355 0.06374 0.0
H1641 H 0.30234 0.62222 0.08436 0.0
H1642 H 0.29125 0.55521 0.15659 0.0
H1643 H 0.29281 0.47647 0.13614 0.0
C1644 C 0.30253 0.69251 0.17285 0.0
C1645 C 0.29945 0.73435 0.15908 0.0
C1646 C 0.30143 0.64741 0.1611 0.0
C1647 C 0.29708 0.64306 0.13539 0.0
C1648 C 0.29358 0.68501 0.12201 0.0
C1649 C 0.29483 0.73014 0.13367 0.0
C1650 C 0.30055 0.54575 0.08395 0.0
C1651 C 0.29822 0.50391 0.09838 0.0
C1652 C 0.29992 0.59091 0.09579 0.0
C1653 C 0.29679 0.59528 0.12227 0.0
C1654 C 0.29396 0.55331 0.13635 0.0
C1655 C 0.29475 0.50815 0.12459 0.0
H1656 H 0.45403 0.48479 0.61658 0.0
H1657 H 0.44156 0.55037 0.68796 0.0
H1658 H 0.45449 0.56337 0.59568 0.0
H1659 H 0.4415 0.62877 0.66686 0.0
H1660 H 0.45337 0.76866 0.62953 0.0
H1661 H 0.45437 0.69006 0.65021 0.0
H1662 H 0.44129 0.62394 0.57927 0.0
H1663 H 0.44079 0.70256 0.55834 0.0
C1664 C 0.45134 0.51605 0.62777 0.0
C1665 C 0.44777 0.51148 0.65391 0.0
C1666 C 0.45151 0.5611 0.61574 0.0
C1667 C 0.44799 0.60259 0.6295 0.0
C1668 C 0.44447 0.59784 0.65573 0.0
C1669 C 0.44442 0.55284 0.66783 0.0
C1670 C 0.45077 0.73727 0.61834 0.0
C1671 C 0.447 0.74173 0.59232 0.0
C1672 C 0.45125 0.69218 0.63025 0.0
C1673 C 0.44785 0.65048 0.61651 0.0
C1674 C 0.44416 0.65507 0.59038 0.0
C1675 C 0.4438 0.70017 0.57838 0.0
H1676 H 0.29255 0.98105 0.63251 0.0
H1677 H 0.30289 0.04875 0.56017 0.0
H1678 H 0.29102 0.05973 0.65314 0.0
H1679 H 0.30187 0.12725 0.58092 0.0
H1680 H 0.30508 0.20156 0.68847 0.0
H1681 H 0.30388 0.12246 0.66834 0.0
H1682 H 0.28881 0.18663 0.59866 0.0
H1683 H 0.29053 0.26588 0.61852 0.0
C1684 C 0.2945 0.01281 0.62103 0.0
C1685 C 0.29785 0.00877 0.59474 0.0
C1686 C 0.2937 0.05793 0.63289 0.0
C1687 C 0.29637 0.10004 0.61879 0.0
C1688 C 0.29954 0.09582 0.59233 0.0
C1689 C 0.30021 0.05075 0.58043 0.0
C1690 C 0.3014 0.19864 0.66895 0.0
C1691 C 0.29796 0.2399 0.65502 0.0
C1692 C 0.30065 0.15323 0.65741 0.0
C1693 C 0.29632 0.14799 0.63174 0.0
C1694 C 0.29244 0.18928 0.61823 0.0
C1695 C 0.29332 0.23472 0.62968 0.0
loop_
_geom_bond_atom_site_label_1
_geom_bond_atom_site_label_2
_geom_bond_distance
_geom_bond_site_symmetry_2
_ccdc_geom_bond_type
In0 O1 2.294 . S
In0 O2 2.326 . S
In0 O6 2.266 . S
In0 O7 2.326 . S
In0 O8 2.266 . S
In0 O9 2.326 . S
In0 O11 2.294 . S
In0 O12 2.326 . S
O1 In0 2.294 . S
O1 C10 1.240 . S
O2 In0 2.326 . S
O2 C10 1.252 . S
C3 O6 1.252 . S
C3 O7 1.260 . S
C4 O11 1.240 . S
C4 O12 1.252 . S
C5 O8 1.252 . S
C5 O9 1.260 . S
O6 In0 2.266 . S
O6 C3 1.252 . S
O7 In0 2.326 . S
O7 C3 1.260 . S
O8 In0 2.266 . S
O8 C5 1.252 . S
O9 In0 2.326 . S
O9 C5 1.260 . S
C10 O1 1.240 . S
C10 O2 1.252 . S
O11 In0 2.294 . S
O11 C4 1.240 . S
O12 In0 2.326 . S
O12 C4 1.252 . S
In13 O14 2.294 . S
In13 O15 2.326 . S
In13 O19 2.266 . S
In13 O20 2.326 . S
In13 O21 2.266 . S
In13 O22 2.326 . S
In13 O24 2.294 . S
In13 O25 2.326 . S
O14 In13 2.294 . S
O14 C23 1.240 . S
O15 In13 2.326 . S
O15 C23 1.252 . S
C16 O19 1.252 . S
C16 O20 1.260 . S
C17 O24 1.240 . S
C17 O25 1.252 . S
C18 O21 1.252 . S
C18 O22 1.260 . S
O19 In13 2.266 . S
O19 C16 1.252 . S
O20 In13 2.326 . S
O20 C16 1.260 . S
O21 In13 2.266 . S
O21 C18 1.252 . S
O22 In13 2.326 . S
O22 C18 1.260 . S
C23 O14 1.240 . S
C23 O15 1.252 . S
O24 In13 2.294 . S
O24 C17 1.240 . S
O25 In13 2.326 . S
O25 C17 1.252 . S
In26 O27 2.294 . S
In26 O28 2.326 . S
In26 O32 2.266 . S
In26 O33 2.326 . S
In26 O34 2.266 . S
In26 O35 2.326 . S
In26 O37 2.294 . S
In26 O38 2.326 . S
O27 In26 2.294 . S
O27 C36 1.240 . S
O28 In26 2.326 . S
O28 C36 1.252 . S
C29 O32 1.252 . S
C29 O33 1.260 . S
C30 O37 1.240 . S
C30 O38 1.252 . S
C31 O34 1.252 . S
C31 O35 1.260 . S
O32 In26 2.266 . S
O32 C29 1.252 . S
O33 In26 2.326 . S
O33 C29 1.260 . S
O34 In26 2.266 . S
O34 C31 1.252 . S
O35 In26 2.326 . S
O35 C31 1.260 . S
C36 O27 1.240 . S
C36 O28 1.252 . S
O37 In26 2.294 . S
O37 C30 1.240 . S
O38 In26 2.326 . S
O38 C30 1.252 . S
In39 O40 2.294 . S
In39 O41 2.326 . S
In39 O45 2.266 . S
In39 O46 2.326 . S
In39 O47 2.266 . S
In39 O48 2.326 . S
In39 O50 2.294 . S
In39 O51 2.326 . S
O40 In39 2.294 . S
O40 C49 1.240 . S
O41 In39 2.326 . S
O41 C49 1.252 . S
C42 O45 1.252 . S
C42 O46 1.260 . S
C43 O50 1.240 . S
C43 O51 1.252 . S
C44 O47 1.252 . S
C44 O48 1.260 . S
O45 In39 2.266 . S
O45 C42 1.252 . S
O46 In39 2.326 . S
O46 C42 1.260 . S
O47 In39 2.266 . S
O47 C44 1.252 . S
O48 In39 2.326 . S
O48 C44 1.260 . S
C49 O40 1.240 . S
C49 O41 1.252 . S
O50 In39 2.294 . S
O50 C43 1.240 . S
O51 In39 2.326 . S
O51 C43 1.252 . S
In52 O53 2.294 . S
In52 O54 2.326 . S
In52 O58 2.266 . S
In52 O59 2.326 . S
In52 O60 2.266 . S
In52 O61 2.326 . S
In52 O63 2.294 . S
In52 O64 2.326 . S
O53 In52 2.294 . S
O53 C62 1.240 . S
O54 In52 2.326 . S
O54 C62 1.252 . S
C55 O58 1.252 . S
C55 O59 1.260 . S
C56 O63 1.240 . S
C56 O64 1.252 . S
C57 O60 1.252 . S
C57 O61 1.260 . S
O58 In52 2.266 . S
O58 C55 1.252 . S
O59 In52 2.326 . S
O59 C55 1.260 . S
O60 In52 2.266 . S
O60 C57 1.252 . S
O61 In52 2.326 . S
O61 C57 1.260 . S
C62 O53 1.240 . S
C62 O54 1.252 . S
O63 In52 2.294 . S
O63 C56 1.240 . S
O64 In52 2.326 . S
O64 C56 1.252 . S
In65 O66 2.294 . S
In65 O67 2.326 . S
In65 O71 2.266 . S
In65 O72 2.326 . S
In65 O73 2.266 . S
In65 O74 2.326 . S
In65 O76 2.294 . S
In65 O77 2.326 . S
O66 In65 2.294 . S
O66 C75 1.240 . S
O67 In65 2.326 . S
O67 C75 1.252 . S
C68 O71 1.252 . S
C68 O72 1.260 . S
C69 O76 1.240 . S
C69 O77 1.252 . S
C70 O73 1.252 . S
C70 O74 1.260 . S
O71 In65 2.266 . S
O71 C68 1.252 . S
O72 In65 2.326 . S
O72 C68 1.260 . S
O73 In65 2.266 . S
O73 C70 1.252 . S
O74 In65 2.326 . S
O74 C70 1.260 . S
C75 O66 1.240 . S
C75 O67 1.252 . S
O76 In65 2.294 . S
O76 C69 1.240 . S
O77 In65 2.326 . S
O77 C69 1.252 . S
In78 O79 2.294 . S
In78 O80 2.326 . S
In78 O84 2.266 . S
In78 O85 2.326 . S
In78 O86 2.266 . S
In78 O87 2.326 . S
In78 O89 2.294 . S
In78 O90 2.326 . S
O79 In78 2.294 . S
O79 C88 1.240 . S
O80 In78 2.326 . S
O80 C88 1.252 . S
C81 O84 1.252 . S
C81 O85 1.260 . S
C82 O89 1.240 . S
C82 O90 1.252 . S
C83 O86 1.252 . S
C83 O87 1.260 . S
O84 In78 2.266 . S
O84 C81 1.252 . S
O85 In78 2.326 . S
O85 C81 1.260 . S
O86 In78 2.266 . S
O86 C83 1.252 . S
O87 In78 2.326 . S
O87 C83 1.260 . S
C88 O79 1.240 . S
C88 O80 1.252 . S
O89 In78 2.294 . S
O89 C82 1.240 . S
O90 In78 2.326 . S
O90 C82 1.252 . S
In91 O92 2.294 . S
In91 O93 2.326 . S
In91 O97 2.266 . S
In91 O98 2.326 . S
In91 O99 2.266 . S
In91 O100 2.326 . S
In91 O102 2.294 . S
In91 O103 2.326 . S
O92 In91 2.294 . S
O92 C101 1.240 . S
O93 In91 2.326 . S
O93 C101 1.252 . S
C94 O97 1.252 . S
C94 O98 1.260 . S
C95 O102 1.240 . S
C95 O103 1.252 . S
C96 O99 1.252 . S
C96 O100 1.260 . S
O97 In91 2.266 . S
O97 C94 1.252 . S
O98 In91 2.326 . S
O98 C94 1.260 . S
O99 In91 2.266 . S
O99 C96 1.252 . S
O100 In91 2.326 . S
O100 C96 1.260 . S
C101 O92 1.240 . S
C101 O93 1.252 . S
O102 In91 2.294 . S
O102 C95 1.240 . S
O103 In91 2.326 . S
O103 C95 1.252 . S
In104 O105 2.294 . S
In104 O106 2.326 . S
In104 O110 2.266 . S
In104 O111 2.326 . S
In104 O112 2.266 . S
In104 O113 2.326 . S
In104 O115 2.294 . S
In104 O116 2.326 . S
O105 In104 2.294 . S
O105 C114 1.240 . S
O106 In104 2.326 . S
O106 C114 1.252 . S
C107 O110 1.252 . S
C107 O111 1.260 . S
C108 O115 1.240 . S
C108 O116 1.252 . S
C109 O112 1.252 . S
C109 O113 1.260 . S
O110 In104 2.266 . S
O110 C107 1.252 . S
O111 In104 2.326 . S
O111 C107 1.260 . S
O112 In104 2.266 . S
O112 C109 1.252 . S
O113 In104 2.326 . S
O113 C109 1.260 . S
C114 O105 1.240 . S
C114 O106 1.252 . S
O115 In104 2.294 . S
O115 C108 1.240 . S
O116 In104 2.326 . S
O116 C108 1.252 . S
In117 O118 2.294 . S
In117 O119 2.326 . S
In117 O123 2.266 . S
In117 O124 2.326 . S
In117 O125 2.266 . S
In117 O126 2.326 . S
In117 O128 2.294 . S
In117 O129 2.326 . S
O118 In117 2.294 . S
O118 C127 1.240 . S
O119 In117 2.326 . S
O119 C127 1.252 . S
C120 O123 1.252 . S
C120 O124 1.260 . S
C121 O128 1.240 . S
C121 O129 1.252 . S
C122 O125 1.252 . S
C122 O126 1.260 . S
O123 In117 2.266 . S
O123 C120 1.252 . S
O124 In117 2.326 . S
O124 C120 1.260 . S
O125 In117 2.266 . S
O125 C122 1.252 . S
O126 In117 2.326 . S
O126 C122 1.260 . S
C127 O118 1.240 . S
C127 O119 1.252 . S
O128 In117 2.294 . S
O128 C121 1.240 . S
O129 In117 2.326 . S
O129 C121 1.252 . S
In130 O131 2.294 . S
In130 O132 2.326 . S
In130 O136 2.266 . S
In130 O137 2.326 . S
In130 O138 2.266 . S
In130 O139 2.326 . S
In130 O141 2.294 . S
In130 O142 2.326 . S
O131 In130 2.294 . S
O131 C140 1.240 . S
O132 In130 2.326 . S
O132 C140 1.252 . S
C133 O136 1.252 . S
C133 O137 1.260 . S
C134 O141 1.240 . S
C134 O142 1.252 . S
C135 O138 1.252 . S
C135 O139 1.260 . S
O136 In130 2.266 . S
O136 C133 1.252 . S
O137 In130 2.326 . S
O137 C133 1.260 . S
O138 In130 2.266 . S
O138 C135 1.252 . S
O139 In130 2.326 . S
O139 C135 1.260 . S
C140 O131 1.240 . S
C140 O132 1.252 . S
O141 In130 2.294 . S
O141 C134 1.240 . S
O142 In130 2.326 . S
O142 C134 1.252 . S
In143 O144 2.294 . S
In143 O145 2.326 . S
In143 O149 2.266 . S
In143 O150 2.326 . S
In143 O151 2.266 . S
In143 O152 2.326 . S
In143 O154 2.294 . S
In143 O155 2.326 . S
O144 In143 2.294 . S
O144 C153 1.240 . S
O145 In143 2.326 . S
O145 C153 1.252 . S
C146 O149 1.252 . S
C146 O150 1.260 . S
C147 O154 1.240 . S
C147 O155 1.252 . S
C148 O151 1.252 . S
C148 O152 1.260 . S
O149 In143 2.266 . S
O149 C146 1.252 . S
O150 In143 2.326 . S
O150 C146 1.260 . S
O151 In143 2.266 . S
O151 C148 1.252 . S
O152 In143 2.326 . S
O152 C148 1.260 . S
C153 O144 1.240 . S
C153 O145 1.252 . S
O154 In143 2.294 . S
O154 C147 1.240 . S
O155 In143 2.326 . S
O155 C147 1.252 . S
In156 O157 2.294 . S
In156 O158 2.326 . S
In156 O162 2.266 . S
In156 O163 2.326 . S
In156 O164 2.266 . S
In156 O165 2.326 . S
In156 O167 2.294 . S
In156 O168 2.326 . S
O157 In156 2.294 . S
O157 C166 1.240 . S
O158 In156 2.326 . S
O158 C166 1.252 . S
C159 O162 1.252 . S
C159 O163 1.260 . S
C160 O167 1.240 . S
C160 O168 1.252 . S
C161 O164 1.252 . S
C161 O165 1.260 . S
O162 In156 2.266 . S
O162 C159 1.252 . S
O163 In156 2.326 . S
O163 C159 1.260 . S
O164 In156 2.266 . S
O164 C161 1.252 . S
O165 In156 2.326 . S
O165 C161 1.260 . S
C166 O157 1.240 . S
C166 O158 1.252 . S
O167 In156 2.294 . S
O167 C160 1.240 . S
O168 In156 2.326 . S
O168 C160 1.252 . S
In169 O170 2.294 . S
In169 O171 2.326 . S
In169 O175 2.266 . S
In169 O176 2.326 . S
In169 O177 2.266 . S
In169 O178 2.326 . S
In169 O180 2.294 . S
In169 O181 2.326 . S
O170 In169 2.294 . S
O170 C179 1.240 . S
O171 In169 2.326 . S
O171 C179 1.252 . S
C172 O175 1.252 . S
C172 O176 1.260 . S
C173 O180 1.240 . S
C173 O181 1.252 . S
C174 O177 1.252 . S
C174 O178 1.260 . S
O175 In169 2.266 . S
O175 C172 1.252 . S
O176 In169 2.326 . S
O176 C172 1.260 . S
O177 In169 2.266 . S
O177 C174 1.252 . S
O178 In169 2.326 . S
O178 C174 1.260 . S
C179 O170 1.240 . S
C179 O171 1.252 . S
O180 In169 2.294 . S
O180 C173 1.240 . S
O181 In169 2.326 . S
O181 C173 1.252 . S
In182 O183 2.294 . S
In182 O184 2.326 . S
In182 O188 2.266 . S
In182 O189 2.326 . S
In182 O190 2.266 . S
In182 O191 2.326 . S
In182 O193 2.294 . S
In182 O194 2.326 . S
O183 In182 2.294 . S
O183 C192 1.240 . S
O184 In182 2.326 . S
O184 C192 1.252 . S
C185 O188 1.252 . S
C185 O189 1.260 . S
C186 O193 1.240 . S
C186 O194 1.252 . S
C187 O190 1.252 . S
C187 O191 1.260 . S
O188 In182 2.266 . S
O188 C185 1.252 . S
O189 In182 2.326 . S
O189 C185 1.260 . S
O190 In182 2.266 . S
O190 C187 1.252 . S
O191 In182 2.326 . S
O191 C187 1.260 . S
C192 O183 1.240 . S
C192 O184 1.252 . S
O193 In182 2.294 . S
O193 C186 1.240 . S
O194 In182 2.326 . S
O194 C186 1.252 . S
In195 O196 2.294 . S
In195 O197 2.326 . S
In195 O201 2.266 . S
In195 O202 2.326 . S
In195 O203 2.266 . S
In195 O204 2.326 . S
In195 O206 2.294 . S
In195 O207 2.326 . S
O196 In195 2.294 . S
O196 C205 1.240 . S
O197 In195 2.326 . S
O197 C205 1.252 . S
C198 O201 1.252 . S
C198 O202 1.260 . S
C199 O206 1.240 . S
C199 O207 1.252 . S
C200 O203 1.252 . S
C200 O204 1.260 . S
O201 In195 2.266 . S
O201 C198 1.252 . S
O202 In195 2.326 . S
O202 C198 1.260 . S
O203 In195 2.266 . S
O203 C200 1.252 . S
O204 In195 2.326 . S
O204 C200 1.260 . S
C205 O196 1.240 . S
C205 O197 1.252 . S
O206 In195 2.294 . S
O206 C199 1.240 . S
O207 In195 2.326 . S
O207 C199 1.252 . S
In208 O209 2.294 . S
In208 O210 2.326 . S
In208 O214 2.266 . S
In208 O215 2.326 . S
In208 O216 2.266 . S
In208 O217 2.326 . S
In208 O219 2.294 . S
In208 O220 2.326 . S
O209 In208 2.294 . S
O209 C218 1.240 . S
O210 In208 2.326 . S
O210 C218 1.252 . S
C211 O214 1.252 . S
C211 O215 1.260 . S
C212 O219 1.240 . S
C212 O220 1.252 . S
C213 O216 1.252 . S
C213 O217 1.260 . S
O214 In208 2.266 . S
O214 C211 1.252 . S
O215 In208 2.326 . S
O215 C211 1.260 . S
O216 In208 2.266 . S
O216 C213 1.252 . S
O217 In208 2.326 . S
O217 C213 1.260 . S
C218 O209 1.240 . S
C218 O210 1.252 . S
O219 In208 2.294 . S
O219 C212 1.240 . S
O220 In208 2.326 . S
O220 C212 1.252 . S
In221 O222 2.294 . S
In221 O223 2.326 . S
In221 O227 2.266 . S
In221 O228 2.326 . S
In221 O229 2.266 . S
In221 O230 2.326 . S
In221 O232 2.294 . S
In221 O233 2.326 . S
O222 In221 2.294 . S
O222 C231 1.240 . S
O223 In221 2.326 . S
O223 C231 1.252 . S
C224 O227 1.252 . S
C224 O228 1.260 . S
C225 O232 1.240 . S
C225 O233 1.252 . S
C226 O229 1.252 . S
C226 O230 1.260 . S
O227 In221 2.266 . S
O227 C224 1.252 . S
O228 In221 2.326 . S
O228 C224 1.260 . S
O229 In221 2.266 . S
O229 C226 1.252 . S
O230 In221 2.326 . S
O230 C226 1.260 . S
C231 O222 1.240 . S
C231 O223 1.252 . S
O232 In221 2.294 . S
O232 C225 1.240 . S
O233 In221 2.326 . S
O233 C225 1.252 . S
In234 O235 2.294 . S
In234 O236 2.326 . S
In234 O240 2.266 . S
In234 O241 2.326 . S
In234 O242 2.266 . S
In234 O243 2.326 . S
In234 O245 2.294 . S
In234 O246 2.326 . S
O235 In234 2.294 . S
O235 C244 1.240 . S
O236 In234 2.326 . S
O236 C244 1.252 . S
C237 O240 1.252 . S
C237 O241 1.260 . S
C238 O245 1.240 . S
C238 O246 1.252 . S
C239 O242 1.252 . S
C239 O243 1.260 . S
O240 In234 2.266 . S
O240 C237 1.252 . S
O241 In234 2.326 . S
O241 C237 1.260 . S
O242 In234 2.266 . S
O242 C239 1.252 . S
O243 In234 2.326 . S
O243 C239 1.260 . S
C244 O235 1.240 . S
C244 O236 1.252 . S
O245 In234 2.294 . S
O245 C238 1.240 . S
O246 In234 2.326 . S
O246 C238 1.252 . S
In247 O248 2.294 . S
In247 O249 2.326 . S
In247 O253 2.266 . S
In247 O254 2.326 . S
In247 O255 2.266 . S
In247 O256 2.326 . S
In247 O258 2.294 . S
In247 O259 2.326 . S
O248 In247 2.294 . S
O248 C257 1.240 . S
O249 In247 2.326 . S
O249 C257 1.252 . S
C250 O253 1.252 . S
C250 O254 1.260 . S
C251 O258 1.240 . S
C251 O259 1.252 . S
C252 O255 1.252 . S
C252 O256 1.260 . S
O253 In247 2.266 . S
O253 C250 1.252 . S
O254 In247 2.326 . S
O254 C250 1.260 . S
O255 In247 2.266 . S
O255 C252 1.252 . S
O256 In247 2.326 . S
O256 C252 1.260 . S
C257 O248 1.240 . S
C257 O249 1.252 . S
O258 In247 2.294 . S
O258 C251 1.240 . S
O259 In247 2.326 . S
O259 C251 1.252 . S
In260 O261 2.294 . S
In260 O262 2.326 . S
In260 O266 2.266 . S
In260 O267 2.326 . S
In260 O268 2.266 . S
In260 O269 2.326 . S
In260 O271 2.294 . S
In260 O272 2.326 . S
O261 In260 2.294 . S
O261 C270 1.240 . S
O262 In260 2.326 . S
O262 C270 1.252 . S
C263 O266 1.252 . S
C263 O267 1.260 . S
C264 O271 1.240 . S
C264 O272 1.252 . S
C265 O268 1.252 . S
C265 O269 1.260 . S
O266 In260 2.266 . S
O266 C263 1.252 . S
O267 In260 2.326 . S
O267 C263 1.260 . S
O268 In260 2.266 . S
O268 C265 1.252 . S
O269 In260 2.326 . S
O269 C265 1.260 . S
C270 O261 1.240 . S
C270 O262 1.252 . S
O271 In260 2.294 . S
O271 C264 1.240 . S
O272 In260 2.326 . S
O272 C264 1.252 . S
In273 O274 2.294 . S
In273 O275 2.326 . S
In273 O279 2.266 . S
In273 O280 2.326 . S
In273 O281 2.266 . S
In273 O282 2.326 . S
In273 O284 2.294 . S
In273 O285 2.326 . S
O274 In273 2.294 . S
O274 C283 1.240 . S
O275 In273 2.326 . S
O275 C283 1.252 . S
C276 O279 1.252 . S
C276 O280 1.260 . S
C277 O284 1.240 . S
C277 O285 1.252 . S
C278 O281 1.252 . S
C278 O282 1.260 . S
O279 In273 2.266 . S
O279 C276 1.252 . S
O280 In273 2.326 . S
O280 C276 1.260 . S
O281 In273 2.266 . S
O281 C278 1.252 . S
O282 In273 2.326 . S
O282 C278 1.260 . S
C283 O274 1.240 . S
C283 O275 1.252 . S
O284 In273 2.294 . S
O284 C277 1.240 . S
O285 In273 2.326 . S
O285 C277 1.252 . S
In286 O287 2.294 . S
In286 O288 2.326 . S
In286 O292 2.266 . S
In286 O293 2.326 . S
In286 O294 2.266 . S
In286 O295 2.326 . S
In286 O297 2.294 . S
In286 O298 2.326 . S
O287 In286 2.294 . S
O287 C296 1.240 . S
O288 In286 2.326 . S
O288 C296 1.252 . S
C289 O292 1.252 . S
C289 O293 1.260 . S
C290 O297 1.240 . S
C290 O298 1.252 . S
C291 O294 1.252 . S
C291 O295 1.260 . S
O292 In286 2.266 . S
O292 C289 1.252 . S
O293 In286 2.326 . S
O293 C289 1.260 . S
O294 In286 2.266 . S
O294 C291 1.252 . S
O295 In286 2.326 . S
O295 C291 1.260 . S
C296 O287 1.240 . S
C296 O288 1.252 . S
O297 In286 2.294 . S
O297 C290 1.240 . S
O298 In286 2.326 . S
O298 C290 1.252 . S
In299 O300 2.294 . S
In299 O301 2.326 . S
In299 O305 2.266 . S
In299 O306 2.326 . S
In299 O307 2.266 . S
In299 O308 2.326 . S
In299 O310 2.294 . S
In299 O311 2.326 . S
O300 In299 2.294 . S
O300 C309 1.240 . S
O301 In299 2.326 . S
O301 C309 1.252 . S
C302 O305 1.252 . S
C302 O306 1.260 . S
C303 O310 1.240 . S
C303 O311 1.252 . S
C304 O307 1.252 . S
C304 O308 1.260 . S
O305 In299 2.266 . S
O305 C302 1.252 . S
O306 In299 2.326 . S
O306 C302 1.260 . S
O307 In299 2.266 . S
O307 C304 1.252 . S
O308 In299 2.326 . S
O308 C304 1.260 . S
C309 O300 1.240 . S
C309 O301 1.252 . S
O310 In299 2.294 . S
O310 C303 1.240 . S
O311 In299 2.326 . S
O311 C303 1.252 . S
In312 O313 2.294 . S
In312 O314 2.326 . S
In312 O318 2.266 . S
In312 O319 2.326 . S
In312 O320 2.266 . S
In312 O321 2.326 . S
In312 O323 2.294 . S
In312 O324 2.326 . S
O313 In312 2.294 . S
O313 C322 1.240 . S
O314 In312 2.326 . S
O314 C322 1.252 . S
C315 O318 1.252 . S
C315 O319 1.260 . S
C316 O323 1.240 . S
C316 O324 1.252 . S
C317 O320 1.252 . S
C317 O321 1.260 . S
O318 In312 2.266 . S
O318 C315 1.252 . S
O319 In312 2.326 . S
O319 C315 1.260 . S
O320 In312 2.266 . S
O320 C317 1.252 . S
O321 In312 2.326 . S
O321 C317 1.260 . S
C322 O313 1.240 . S
C322 O314 1.252 . S
O323 In312 2.294 . S
O323 C316 1.240 . S
O324 In312 2.326 . S
O324 C316 1.252 . S
In325 O326 2.294 . S
In325 O327 2.326 . S
In325 O331 2.266 . S
In325 O332 2.326 . S
In325 O333 2.266 . S
In325 O334 2.326 . S
In325 O336 2.294 . S
In325 O337 2.326 . S
O326 In325 2.294 . S
O326 C335 1.240 . S
O327 In325 2.326 . S
O327 C335 1.252 . S
C328 O331 1.252 . S
C328 O332 1.260 . S
C329 O336 1.240 . S
C329 O337 1.252 . S
C330 O333 1.252 . S
C330 O334 1.260 . S
O331 In325 2.266 . S
O331 C328 1.252 . S
O332 In325 2.326 . S
O332 C328 1.260 . S
O333 In325 2.266 . S
O333 C330 1.252 . S
O334 In325 2.326 . S
O334 C330 1.260 . S
C335 O326 1.240 . S
C335 O327 1.252 . S
O336 In325 2.294 . S
O336 C329 1.240 . S
O337 In325 2.326 . S
O337 C329 1.252 . S
In338 O339 2.294 . S
In338 O340 2.326 . S
In338 O344 2.266 . S
In338 O345 2.326 . S
In338 O346 2.266 . S
In338 O347 2.326 . S
In338 O349 2.294 . S
In338 O350 2.326 . S
O339 In338 2.294 . S
O339 C348 1.240 . S
O340 In338 2.326 . S
O340 C348 1.252 . S
C341 O344 1.252 . S
C341 O345 1.260 . S
C342 O349 1.240 . S
C342 O350 1.252 . S
C343 O346 1.252 . S
C343 O347 1.260 . S
O344 In338 2.266 . S
O344 C341 1.252 . S
O345 In338 2.326 . S
O345 C341 1.260 . S
O346 In338 2.266 . S
O346 C343 1.252 . S
O347 In338 2.326 . S
O347 C343 1.260 . S
C348 O339 1.240 . S
C348 O340 1.252 . S
O349 In338 2.294 . S
O349 C342 1.240 . S
O350 In338 2.326 . S
O350 C342 1.252 . S
In351 O352 2.294 . S
In351 O353 2.326 . S
In351 O357 2.266 . S
In351 O358 2.326 . S
In351 O359 2.266 . S
In351 O360 2.326 . S
In351 O362 2.294 . S
In351 O363 2.326 . S
O352 In351 2.294 . S
O352 C361 1.240 . S
O353 In351 2.326 . S
O353 C361 1.252 . S
C354 O357 1.252 . S
C354 O358 1.260 . S
C355 O362 1.240 . S
C355 O363 1.252 . S
C356 O359 1.252 . S
C356 O360 1.260 . S
O357 In351 2.266 . S
O357 C354 1.252 . S
O358 In351 2.326 . S
O358 C354 1.260 . S
O359 In351 2.266 . S
O359 C356 1.252 . S
O360 In351 2.326 . S
O360 C356 1.260 . S
C361 O352 1.240 . S
C361 O353 1.252 . S
O362 In351 2.294 . S
O362 C355 1.240 . S
O363 In351 2.326 . S
O363 C355 1.252 . S
In364 O365 2.294 . S
In364 O366 2.326 . S
In364 O370 2.266 . S
In364 O371 2.326 . S
In364 O372 2.266 . S
In364 O373 2.326 . S
In364 O375 2.294 . S
In364 O376 2.326 . S
O365 In364 2.294 . S
O365 C374 1.240 . S
O366 In364 2.326 . S
O366 C374 1.252 . S
C367 O370 1.252 . S
C367 O371 1.260 . S
C368 O375 1.240 . S
C368 O376 1.252 . S
C369 O372 1.252 . S
C369 O373 1.260 . S
O370 In364 2.266 . S
O370 C367 1.252 . S
O371 In364 2.326 . S
O371 C367 1.260 . S
O372 In364 2.266 . S
O372 C369 1.252 . S
O373 In364 2.326 . S
O373 C369 1.260 . S
C374 O365 1.240 . S
C374 O366 1.252 . S
O375 In364 2.294 . S
O375 C368 1.240 . S
O376 In364 2.326 . S
O376 C368 1.252 . S
In377 O378 2.294 . S
In377 O379 2.326 . S
In377 O383 2.266 . S
In377 O384 2.326 . S
In377 O385 2.266 . S
In377 O386 2.326 . S
In377 O388 2.294 . S
In377 O389 2.326 . S
O378 In377 2.294 . S
O378 C387 1.240 . S
O379 In377 2.326 . S
O379 C387 1.252 . S
C380 O383 1.252 . S
C380 O384 1.260 . S
C381 O388 1.240 . S
C381 O389 1.252 . S
C382 O385 1.252 . S
C382 O386 1.260 . S
O383 In377 2.266 . S
O383 C380 1.252 . S
O384 In377 2.326 . S
O384 C380 1.260 . S
O385 In377 2.266 . S
O385 C382 1.252 . S
O386 In377 2.326 . S
O386 C382 1.260 . S
C387 O378 1.240 . S
C387 O379 1.252 . S
O388 In377 2.294 . S
O388 C381 1.240 . S
O389 In377 2.326 . S
O389 C381 1.252 . S
In390 O391 2.294 . S
In390 O392 2.326 . S
In390 O396 2.266 . S
In390 O397 2.326 . S
In390 O398 2.266 . S
In390 O399 2.326 . S
In390 O401 2.294 . S
In390 O402 2.326 . S
O391 In390 2.294 . S
O391 C400 1.240 . S
O392 In390 2.326 . S
O392 C400 1.252 . S
C393 O396 1.252 . S
C393 O397 1.260 . S
C394 O401 1.240 . S
C394 O402 1.252 . S
C395 O398 1.252 . S
C395 O399 1.260 . S
O396 In390 2.266 . S
O396 C393 1.252 . S
O397 In390 2.326 . S
O397 C393 1.260 . S
O398 In390 2.266 . S
O398 C395 1.252 . S
O399 In390 2.326 . S
O399 C395 1.260 . S
C400 O391 1.240 . S
C400 O392 1.252 . S
O401 In390 2.294 . S
O401 C394 1.240 . S
O402 In390 2.326 . S
O402 C394 1.252 . S
In403 O404 2.294 . S
In403 O405 2.326 . S
In403 O409 2.266 . S
In403 O410 2.326 . S
In403 O411 2.266 . S
In403 O412 2.326 . S
In403 O414 2.294 . S
In403 O415 2.326 . S
O404 In403 2.294 . S
O404 C413 1.240 . S
O405 In403 2.326 . S
O405 C413 1.252 . S
C406 O409 1.252 . S
C406 O410 1.260 . S
C407 O414 1.240 . S
C407 O415 1.252 . S
C408 O411 1.252 . S
C408 O412 1.260 . S
O409 In403 2.266 . S
O409 C406 1.252 . S
O410 In403 2.326 . S
O410 C406 1.260 . S
O411 In403 2.266 . S
O411 C408 1.252 . S
O412 In403 2.326 . S
O412 C408 1.260 . S
C413 O404 1.240 . S
C413 O405 1.252 . S
O414 In403 2.294 . S
O414 C407 1.240 . S
O415 In403 2.326 . S
O415 C407 1.252 . S
H416 C424 0.950 . S
H417 C429 0.950 . S
H418 C426 0.950 . S
H419 C428 0.950 . S
H420 C430 0.950 . S
H421 C432 0.950 . S
H422 C434 0.950 . S
H423 C435 0.950 . S
C424 H416 0.950 . S
C424 C425 1.386 . S
C424 C426 1.391 . S
C425 C424 1.386 . S
C425 C429 1.393 . S
C426 H418 0.950 . S
C426 C424 1.391 . S
C426 C427 1.400 . S
C427 C426 1.400 . S
C427 C428 1.398 . S
C427 C433 1.491 . S
C428 H419 0.950 . S
C428 C427 1.398 . S
C428 C429 1.391 . S
C429 H417 0.950 . S
C429 C425 1.393 . S
C429 C428 1.391 . S
C430 H420 0.950 . S
C430 C431 1.386 . S
C430 C432 1.391 . S
C431 C430 1.386 . S
C431 C435 1.393 . S
C432 H421 0.950 . S
C432 C430 1.391 . S
C432 C433 1.400 . S
C433 C427 1.491 . S
C433 C432 1.400 . S
C433 C434 1.398 . S
C434 H422 0.950 . S
C434 C433 1.398 . S
C434 C435 1.391 . S
C435 H423 0.950 . S
C435 C431 1.393 . S
C435 C434 1.391 . S
H436 C444 0.950 . S
H437 C449 0.950 . S
H438 C446 0.950 . S
H439 C448 0.950 . S
H440 C450 0.950 . S
H441 C452 0.950 . S
H442 C454 0.950 . S
H443 C455 0.950 . S
C444 H436 0.950 . S
C444 C445 1.386 . S
C444 C446 1.391 . S
C445 C444 1.386 . S
C445 C449 1.393 . S
C446 H438 0.950 . S
C446 C444 1.391 . S
C446 C447 1.400 . S
C447 C446 1.400 . S
C447 C448 1.398 . S
C447 C453 1.491 . S
C448 H439 0.950 . S
C448 C447 1.398 . S
C448 C449 1.391 . S
C449 H437 0.950 . S
C449 C445 1.393 . S
C449 C448 1.391 . S
C450 H440 0.950 . S
C450 C451 1.386 . S
C450 C452 1.391 . S
C451 C450 1.386 . S
C451 C455 1.393 . S
C452 H441 0.950 . S
C452 C450 1.391 . S
C452 C453 1.400 . S
C453 C447 1.491 . S
C453 C452 1.400 . S
C453 C454 1.398 . S
C454 H442 0.950 . S
C454 C453 1.398 . S
C454 C455 1.391 . S
C455 H443 0.950 . S
C455 C451 1.393 . S
C455 C454 1.391 . S
H456 C464 0.950 . S
H457 C469 0.950 . S
H458 C466 0.950 . S
H459 C468 0.950 . S
H460 C470 0.950 . S
H461 C472 0.950 . S
H462 C474 0.950 . S
H463 C475 0.950 . S
C464 H456 0.950 . S
C464 C465 1.386 . S
C464 C466 1.391 . S
C465 C464 1.386 . S
C465 C469 1.393 . S
C466 H458 0.950 . S
C466 C464 1.391 . S
C466 C467 1.400 . S
C467 C466 1.400 . S
C467 C468 1.398 . S
C467 C473 1.491 . S
C468 H459 0.950 . S
C468 C467 1.398 . S
C468 C469 1.391 . S
C469 H457 0.950 . S
C469 C465 1.393 . S
C469 C468 1.391 . S
C470 H460 0.950 . S
C470 C471 1.386 . S
C470 C472 1.391 . S
C471 C470 1.386 . S
C471 C475 1.393 . S
C472 H461 0.950 . S
C472 C470 1.391 . S
C472 C473 1.400 . S
C473 C467 1.491 . S
C473 C472 1.400 . S
C473 C474 1.398 . S
C474 H462 0.950 . S
C474 C473 1.398 . S
C474 C475 1.391 . S
C475 H463 0.950 . S
C475 C471 1.393 . S
C475 C474 1.391 . S
H476 C484 0.950 . S
H477 C489 0.950 . S
H478 C486 0.950 . S
H479 C488 0.950 . S
H480 C490 0.950 . S
H481 C492 0.950 . S
H482 C494 0.950 . S
H483 C495 0.950 . S
C484 H476 0.950 . S
C484 C485 1.386 . S
C484 C486 1.391 . S
C485 C484 1.386 . S
C485 C489 1.393 . S
C486 H478 0.950 . S
C486 C484 1.391 . S
C486 C487 1.400 . S
C487 C486 1.400 . S
C487 C488 1.398 . S
C487 C493 1.491 . S
C488 H479 0.950 . S
C488 C487 1.398 . S
C488 C489 1.391 . S
C489 H477 0.950 . S
C489 C485 1.393 . S
C489 C488 1.391 . S
C490 H480 0.950 . S
C490 C491 1.386 . S
C490 C492 1.391 . S
C491 C490 1.386 . S
C491 C495 1.393 . S
C492 H481 0.950 . S
C492 C490 1.391 . S
C492 C493 1.400 . S
C493 C487 1.491 . S
C493 C492 1.400 . S
C493 C494 1.398 . S
C494 H482 0.950 . S
C494 C493 1.398 . S
C494 C495 1.391 . S
C495 H483 0.950 . S
C495 C491 1.393 . S
C495 C494 1.391 . S
H496 C504 0.950 . S
H497 C509 0.950 . S
H498 C506 0.950 . S
H499 C508 0.950 . S
H500 C510 0.950 . S
H501 C512 0.950 . S
H502 C514 0.950 . S
H503 C515 0.950 . S
C504 H496 0.950 . S
C504 C505 1.386 . S
C504 C506 1.391 . S
C505 C504 1.386 . S
C505 C509 1.393 . S
C506 H498 0.950 . S
C506 C504 1.391 . S
C506 C507 1.400 . S
C507 C506 1.400 . S
C507 C508 1.398 . S
C507 C513 1.491 . S
C508 H499 0.950 . S
C508 C507 1.398 . S
C508 C509 1.391 . S
C509 H497 0.950 . S
C509 C505 1.393 . S
C509 C508 1.391 . S
C510 H500 0.950 . S
C510 C511 1.386 . S
C510 C512 1.391 . S
C511 C510 1.386 . S
C511 C515 1.393 . S
C512 H501 0.950 . S
C512 C510 1.391 . S
C512 C513 1.400 . S
C513 C507 1.491 . S
C513 C512 1.400 . S
C513 C514 1.398 . S
C514 H502 0.950 . S
C514 C513 1.398 . S
C514 C515 1.391 . S
C515 H503 0.950 . S
C515 C511 1.393 . S
C515 C514 1.391 . S
H516 C524 0.950 . S
H517 C529 0.950 . S
H518 C526 0.950 . S
H519 C528 0.950 . S
H520 C530 0.950 . S
H521 C532 0.950 . S
H522 C534 0.950 . S
H523 C535 0.950 . S
C524 H516 0.950 . S
C524 C525 1.386 . S
C524 C526 1.391 . S
C525 C524 1.386 . S
C525 C529 1.393 . S
C526 H518 0.950 . S
C526 C524 1.391 . S
C526 C527 1.400 . S
C527 C526 1.400 . S
C527 C528 1.398 . S
C527 C533 1.491 . S
C528 H519 0.950 . S
C528 C527 1.398 . S
C528 C529 1.391 . S
C529 H517 0.950 . S
C529 C525 1.393 . S
C529 C528 1.391 . S
C530 H520 0.950 . S
C530 C531 1.386 . S
C530 C532 1.391 . S
C531 C530 1.386 . S
C531 C535 1.393 . S
C532 H521 0.950 . S
C532 C530 1.391 . S
C532 C533 1.400 . S
C533 C527 1.491 . S
C533 C532 1.400 . S
C533 C534 1.398 . S
C534 H522 0.950 . S
C534 C533 1.398 . S
C534 C535 1.391 . S
C535 H523 0.950 . S
C535 C531 1.393 . S
C535 C534 1.391 . S
H536 C544 0.950 . S
H537 C549 0.950 . S
H538 C546 0.950 . S
H539 C548 0.950 . S
H540 C550 0.950 . S
H541 C552 0.950 . S
H542 C554 0.950 . S
H543 C555 0.950 . S
C544 H536 0.950 . S
C544 C545 1.386 . S
C544 C546 1.391 . S
C545 C544 1.386 . S
C545 C549 1.393 . S
C546 H538 0.950 . S
C546 C544 1.391 . S
C546 C547 1.400 . S
C547 C546 1.400 . S
C547 C548 1.398 . S
C547 C553 1.491 . S
C548 H539 0.950 . S
C548 C547 1.398 . S
C548 C549 1.391 . S
C549 H537 0.950 . S
C549 C545 1.393 . S
C549 C548 1.391 . S
C550 H540 0.950 . S
C550 C551 1.386 . S
C550 C552 1.391 . S
C551 C550 1.386 . S
C551 C555 1.393 . S
C552 H541 0.950 . S
C552 C550 1.391 . S
C552 C553 1.400 . S
C553 C547 1.491 . S
C553 C552 1.400 . S
C553 C554 1.398 . S
C554 H542 0.950 . S
C554 C553 1.398 . S
C554 C555 1.391 . S
C555 H543 0.950 . S
C555 C551 1.393 . S
C555 C554 1.391 . S
H556 C564 0.950 . S
H557 C569 0.950 . S
H558 C566 0.950 . S
H559 C568 0.950 . S
H560 C570 0.950 . S
H561 C572 0.950 . S
H562 C574 0.950 . S
H563 C575 0.950 . S
C564 H556 0.950 . S
C564 C565 1.386 . S
C564 C566 1.391 . S
C565 C564 1.386 . S
C565 C569 1.393 . S
C566 H558 0.950 . S
C566 C564 1.391 . S
C566 C567 1.400 . S
C567 C566 1.400 . S
C567 C568 1.398 . S
C567 C573 1.491 . S
C568 H559 0.950 . S
C568 C567 1.398 . S
C568 C569 1.391 . S
C569 H557 0.950 . S
C569 C565 1.393 . S
C569 C568 1.391 . S
C570 H560 0.950 . S
C570 C571 1.386 . S
C570 C572 1.391 . S
C571 C570 1.386 . S
C571 C575 1.393 . S
C572 H561 0.950 . S
C572 C570 1.391 . S
C572 C573 1.400 . S
C573 C567 1.491 . S
C573 C572 1.400 . S
C573 C574 1.398 . S
C574 H562 0.950 . S
C574 C573 1.398 . S
C574 C575 1.391 . S
C575 H563 0.950 . S
C575 C571 1.393 . S
C575 C574 1.391 . S
H576 C584 0.950 . S
H577 C589 0.950 . S
H578 C586 0.950 . S
H579 C588 0.950 . S
H580 C590 0.950 . S
H581 C592 0.950 . S
H582 C594 0.950 . S
H583 C595 0.950 . S
C584 H576 0.950 . S
C584 C585 1.386 . S
C584 C586 1.391 . S
C585 C584 1.386 . S
C585 C589 1.393 . S
C586 H578 0.950 . S
C586 C584 1.391 . S
C586 C587 1.400 . S
C587 C586 1.400 . S
C587 C588 1.398 . S
C587 C593 1.491 . S
C588 H579 0.950 . S
C588 C587 1.398 . S
C588 C589 1.391 . S
C589 H577 0.950 . S
C589 C585 1.393 . S
C589 C588 1.391 . S
C590 H580 0.950 . S
C590 C591 1.386 . S
C590 C592 1.391 . S
C591 C590 1.386 . S
C591 C595 1.393 . S
C592 H581 0.950 . S
C592 C590 1.391 . S
C592 C593 1.400 . S
C593 C587 1.491 . S
C593 C592 1.400 . S
C593 C594 1.398 . S
C594 H582 0.950 . S
C594 C593 1.398 . S
C594 C595 1.391 . S
C595 H583 0.950 . S
C595 C591 1.393 . S
C595 C594 1.391 . S
H596 C604 0.950 . S
H597 C609 0.950 . S
H598 C606 0.950 . S
H599 C608 0.950 . S
H600 C610 0.950 . S
H601 C612 0.950 . S
H602 C614 0.950 . S
H603 C615 0.950 . S
C604 H596 0.950 . S
C604 C605 1.386 . S
C604 C606 1.391 . S
C605 C604 1.386 . S
C605 C609 1.393 . S
C606 H598 0.950 . S
C606 C604 1.391 . S
C606 C607 1.400 . S
C607 C606 1.400 . S
C607 C608 1.398 . S
C607 C613 1.491 . S
C608 H599 0.950 . S
C608 C607 1.398 . S
C608 C609 1.391 . S
C609 H597 0.950 . S
C609 C605 1.393 . S
C609 C608 1.391 . S
C610 H600 0.950 . S
C610 C611 1.386 . S
C610 C612 1.391 . S
C611 C610 1.386 . S
C611 C615 1.393 . S
C612 H601 0.950 . S
C612 C610 1.391 . S
C612 C613 1.400 . S
C613 C607 1.491 . S
C613 C612 1.400 . S
C613 C614 1.398 . S
C614 H602 0.950 . S
C614 C613 1.398 . S
C614 C615 1.391 . S
C615 H603 0.950 . S
C615 C611 1.393 . S
C615 C614 1.391 . S
H616 C624 0.950 . S
H617 C629 0.950 . S
H618 C626 0.950 . S
H619 C628 0.950 . S
H620 C630 0.950 . S
H621 C632 0.950 . S
H622 C634 0.950 . S
H623 C635 0.950 . S
C624 H616 0.950 . S
C624 C625 1.386 . S
C624 C626 1.391 . S
C625 C624 1.386 . S
C625 C629 1.393 . S
C626 H618 0.950 . S
C626 C624 1.391 . S
C626 C627 1.400 . S
C627 C626 1.400 . S
C627 C628 1.398 . S
C627 C633 1.491 . S
C628 H619 0.950 . S
C628 C627 1.398 . S
C628 C629 1.391 . S
C629 H617 0.950 . S
C629 C625 1.393 . S
C629 C628 1.391 . S
C630 H620 0.950 . S
C630 C631 1.386 . S
C630 C632 1.391 . S
C631 C630 1.386 . S
C631 C635 1.393 . S
C632 H621 0.950 . S
C632 C630 1.391 . S
C632 C633 1.400 . S
C633 C627 1.491 . S
C633 C632 1.400 . S
C633 C634 1.398 . S
C634 H622 0.950 . S
C634 C633 1.398 . S
C634 C635 1.391 . S
C635 H623 0.950 . S
C635 C631 1.393 . S
C635 C634 1.391 . S
H636 C644 0.950 . S
H637 C649 0.950 . S
H638 C646 0.950 . S
H639 C648 0.950 . S
H640 C650 0.950 . S
H641 C652 0.950 . S
H642 C654 0.950 . S
H643 C655 0.950 . S
C644 H636 0.950 . S
C644 C645 1.386 . S
C644 C646 1.391 . S
C645 C644 1.386 . S
C645 C649 1.393 . S
C646 H638 0.950 . S
C646 C644 1.391 . S
C646 C647 1.400 . S
C647 C646 1.400 . S
C647 C648 1.398 . S
C647 C653 1.491 . S
C648 H639 0.950 . S
C648 C647 1.398 . S
C648 C649 1.391 . S
C649 H637 0.950 . S
C649 C645 1.393 . S
C649 C648 1.391 . S
C650 H640 0.950 . S
C650 C651 1.386 . S
C650 C652 1.391 . S
C651 C650 1.386 . S
C651 C655 1.393 . S
C652 H641 0.950 . S
C652 C650 1.391 . S
C652 C653 1.400 . S
C653 C647 1.491 . S
C653 C652 1.400 . S
C653 C654 1.398 . S
C654 H642 0.950 . S
C654 C653 1.398 . S
C654 C655 1.391 . S
C655 H643 0.950 . S
C655 C651 1.393 . S
C655 C654 1.391 . S
H656 C664 0.950 . S
H657 C669 0.950 . S
H658 C666 0.950 . S
H659 C668 0.950 . S
H660 C670 0.950 . S
H661 C672 0.950 . S
H662 C674 0.950 . S
H663 C675 0.950 . S
C664 H656 0.950 . S
C664 C665 1.386 . S
C664 C666 1.391 . S
C665 C664 1.386 . S
C665 C669 1.393 . S
C666 H658 0.950 . S
C666 C664 1.391 . S
C666 C667 1.400 . S
C667 C666 1.400 . S
C667 C668 1.398 . S
C667 C673 1.491 . S
C668 H659 0.950 . S
C668 C667 1.398 . S
C668 C669 1.391 . S
C669 H657 0.950 . S
C669 C665 1.393 . S
C669 C668 1.391 . S
C670 H660 0.950 . S
C670 C671 1.386 . S
C670 C672 1.391 . S
C671 C670 1.386 . S
C671 C675 1.393 . S
C672 H661 0.950 . S
C672 C670 1.391 . S
C672 C673 1.400 . S
C673 C667 1.491 . S
C673 C672 1.400 . S
C673 C674 1.398 . S
C674 H662 0.950 . S
C674 C673 1.398 . S
C674 C675 1.391 . S
C675 H663 0.950 . S
C675 C671 1.393 . S
C675 C674 1.391 . S
H676 C684 0.950 . S
H677 C689 0.950 . S
H678 C686 0.950 . S
H679 C688 0.950 . S
H680 C690 0.950 . S
H681 C692 0.950 . S
H682 C694 0.950 . S
H683 C695 0.950 . S
C684 H676 0.950 . S
C684 C685 1.386 . S
C684 C686 1.391 . S
C685 C684 1.386 . S
C685 C689 1.393 . S
C686 H678 0.950 . S
C686 C684 1.391 . S
C686 C687 1.400 . S
C687 C686 1.400 . S
C687 C688 1.398 . S
C687 C693 1.491 . S
C688 H679 0.950 . S
C688 C687 1.398 . S
C688 C689 1.391 . S
C689 H677 0.950 . S
C689 C685 1.393 . S
C689 C688 1.391 . S
C690 H680 0.950 . S
C690 C691 1.386 . S
C690 C692 1.391 . S
C691 C690 1.386 . S
C691 C695 1.393 . S
C692 H681 0.950 . S
C692 C690 1.391 . S
C692 C693 1.400 . S
C693 C687 1.491 . S
C693 C692 1.400 . S
C693 C694 1.398 . S
C694 H682 0.950 . S
C694 C693 1.398 . S
C694 C695 1.391 . S
C695 H683 0.950 . S
C695 C691 1.393 . S
C695 C694 1.391 . S
H696 C704 0.950 . S
H697 C709 0.950 . S
H698 C706 0.950 . S
H699 C708 0.950 . S
H700 C710 0.950 . S
H701 C712 0.950 . S
H702 C714 0.950 . S
H703 C715 0.950 . S
C704 H696 0.950 . S
C704 C705 1.386 . S
C704 C706 1.391 . S
C705 C704 1.386 . S
C705 C709 1.393 . S
C706 H698 0.950 . S
C706 C704 1.391 . S
C706 C707 1.400 . S
C707 C706 1.400 . S
C707 C708 1.398 . S
C707 C713 1.491 . S
C708 H699 0.950 . S
C708 C707 1.398 . S
C708 C709 1.391 . S
C709 H697 0.950 . S
C709 C705 1.393 . S
C709 C708 1.391 . S
C710 H700 0.950 . S
C710 C711 1.386 . S
C710 C712 1.391 . S
C711 C710 1.386 . S
C711 C715 1.393 . S
C712 H701 0.950 . S
C712 C710 1.391 . S
C712 C713 1.400 . S
C713 C707 1.491 . S
C713 C712 1.400 . S
C713 C714 1.398 . S
C714 H702 0.950 . S
C714 C713 1.398 . S
C714 C715 1.391 . S
C715 H703 0.950 . S
C715 C711 1.393 . S
C715 C714 1.391 . S
H716 C724 0.950 . S
H717 C729 0.950 . S
H718 C726 0.950 . S
H719 C728 0.950 . S
H720 C730 0.950 . S
H721 C732 0.950 . S
H722 C734 0.950 . S
H723 C735 0.950 . S
C724 H716 0.950 . S
C724 C725 1.386 . S
C724 C726 1.391 . S
C725 C724 1.386 . S
C725 C729 1.393 . S
C726 H718 0.950 . S
C726 C724 1.391 . S
C726 C727 1.400 . S
C727 C726 1.400 . S
C727 C728 1.398 . S
C727 C733 1.491 . S
C728 H719 0.950 . S
C728 C727 1.398 . S
C728 C729 1.391 . S
C729 H717 0.950 . S
C729 C725 1.393 . S
C729 C728 1.391 . S
C730 H720 0.950 . S
C730 C731 1.386 . S
C730 C732 1.391 . S
C731 C730 1.386 . S
C731 C735 1.393 . S
C732 H721 0.950 . S
C732 C730 1.391 . S
C732 C733 1.400 . S
C733 C727 1.491 . S
C733 C732 1.400 . S
C733 C734 1.398 . S
C734 H722 0.950 . S
C734 C733 1.398 . S
C734 C735 1.391 . S
C735 H723 0.950 . S
C735 C731 1.393 . S
C735 C734 1.391 . S
H736 C744 0.950 . S
H737 C749 0.950 . S
H738 C746 0.950 . S
H739 C748 0.950 . S
H740 C750 0.950 . S
H741 C752 0.950 . S
H742 C754 0.950 . S
H743 C755 0.950 . S
C744 H736 0.950 . S
C744 C745 1.386 . S
C744 C746 1.391 . S
C745 C744 1.386 . S
C745 C749 1.393 . S
C746 H738 0.950 . S
C746 C744 1.391 . S
C746 C747 1.400 . S
C747 C746 1.400 . S
C747 C748 1.398 . S
C747 C753 1.491 1_455 S
C748 H739 0.950 . S
C748 C747 1.398 . S
C748 C749 1.391 . S
C749 H737 0.950 . S
C749 C745 1.393 . S
C749 C748 1.391 . S
C750 H740 0.950 . S
C750 C751 1.386 . S
C750 C752 1.391 . S
C751 C750 1.386 . S
C751 C755 1.393 . S
C752 H741 0.950 . S
C752 C750 1.391 . S
C752 C753 1.400 . S
C753 C747 1.491 1_655 S
C753 C752 1.400 . S
C753 C754 1.398 . S
C754 H742 0.950 . S
C754 C753 1.398 . S
C754 C755 1.391 . S
C755 H743 0.950 . S
C755 C751 1.393 . S
C755 C754 1.391 . S
H756 C764 0.950 . S
H757 C769 0.950 . S
H758 C766 0.950 . S
H759 C768 0.950 . S
H760 C770 0.950 . S
H761 C772 0.950 . S
H762 C774 0.950 . S
H763 C775 0.950 . S
C764 H756 0.950 . S
C764 C765 1.386 . S
C764 C766 1.391 . S
C765 C764 1.386 . S
C765 C769 1.393 . S
C766 H758 0.950 . S
C766 C764 1.391 . S
C766 C767 1.400 . S
C767 C766 1.400 . S
C767 C768 1.398 . S
C767 C773 1.491 1_545 S
C768 H759 0.950 . S
C768 C767 1.398 . S
C768 C769 1.391 . S
C769 H757 0.950 . S
C769 C765 1.393 . S
C769 C768 1.391 . S
C770 H760 0.950 . S
C770 C771 1.386 . S
C770 C772 1.391 . S
C771 C770 1.386 . S
C771 C775 1.393 . S
C772 H761 0.950 . S
C772 C770 1.391 . S
C772 C773 1.400 . S
C773 C767 1.491 1_565 S
C773 C772 1.400 . S
C773 C774 1.398 . S
C774 H762 0.950 . S
C774 C773 1.398 . S
C774 C775 1.391 . S
C775 H763 0.950 . S
C775 C771 1.393 . S
C775 C774 1.391 . S
H776 C784 0.950 1_554 S
H777 C789 0.950 . S
H778 C786 0.950 . S
H779 C788 0.950 1_565 S
H780 C790 0.950 1_556 S
H781 C792 0.950 . S
H782 C794 0.950 1_545 S
H783 C795 0.950 . S
C784 H776 0.950 1_556 S
C784 C785 1.386 . S
C784 C786 1.391 1_556 S
C785 C784 1.386 . S
C785 C789 1.393 . S
C786 H778 0.950 . S
C786 C784 1.391 1_554 S
C786 C787 1.400 1_554 S
C787 C786 1.400 1_556 S
C787 C788 1.398 . S
C787 C793 1.491 1_446 S
C788 H779 0.950 1_545 S
C788 C787 1.398 . S
C788 C789 1.391 . S
C789 H777 0.950 . S
C789 C785 1.393 . S
C789 C788 1.391 . S
C790 H780 0.950 1_554 S
C790 C791 1.386 . S
C790 C792 1.391 1_554 S
C791 C790 1.386 . S
C791 C795 1.393 . S
C792 H781 0.950 . S
C792 C790 1.391 1_556 S
C792 C793 1.400 1_556 S
C793 C787 1.491 1_664 S
C793 C792 1.400 1_554 S
C793 C794 1.398 . S
C794 H782 0.950 1_565 S
C794 C793 1.398 . S
C794 C795 1.391 . S
C795 H783 0.950 . S
C795 C791 1.393 . S
C795 C794 1.391 . S
H796 C804 0.946 1_554 S
H797 C809 0.950 . S
H798 C806 0.950 . S
H799 C808 0.950 . S
H800 C810 0.946 1_556 S
H801 C812 0.950 . S
H802 C814 0.950 . S
H803 C815 0.950 . S
C804 H796 0.946 1_556 S
C804 C805 1.391 . S
C804 C806 1.389 1_556 S
C805 C804 1.391 . S
C805 C809 1.393 . S
C806 H798 0.950 . S
C806 C804 1.389 1_554 S
C806 C807 1.400 1_554 S
C807 C806 1.400 1_556 S
C807 C808 1.398 . S
C807 C813 1.491 1_556 S
C808 H799 0.950 . S
C808 C807 1.398 . S
C808 C809 1.391 . S
C809 H797 0.950 . S
C809 C805 1.393 . S
C809 C808 1.391 . S
C810 H800 0.946 1_554 S
C810 C811 1.391 . S
C810 C812 1.389 1_554 S
C811 C810 1.391 . S
C811 C815 1.393 . S
C812 H801 0.950 . S
C812 C810 1.389 1_556 S
C812 C813 1.400 1_556 S
C813 C807 1.491 1_554 S
C813 C812 1.400 1_554 S
C813 C814 1.398 . S
C814 H802 0.950 . S
C814 C813 1.398 . S
C814 C815 1.391 . S
C815 H803 0.950 . S
C815 C811 1.393 . S
C815 C814 1.391 . S
H816 C824 0.950 . S
H817 C829 0.950 . S
H818 C826 0.950 . S
H819 C828 0.950 . S
H820 C830 0.950 . S
H821 C832 0.950 . S
H822 C834 0.950 . S
H823 C835 0.950 . S
C824 H816 0.950 . S
C824 C825 1.386 . S
C824 C826 1.391 . S
C825 C824 1.386 . S
C825 C829 1.393 . S
C826 H818 0.950 . S
C826 C824 1.391 . S
C826 C827 1.400 . S
C827 C826 1.400 . S
C827 C828 1.398 . S
C827 C833 1.491 1_655 S
C828 H819 0.950 . S
C828 C827 1.398 . S
C828 C829 1.391 . S
C829 H817 0.950 . S
C829 C825 1.393 . S
C829 C828 1.391 . S
C830 H820 0.950 . S
C830 C831 1.386 . S
C830 C832 1.391 . S
C831 C830 1.386 . S
C831 C835 1.393 . S
C832 H821 0.950 . S
C832 C830 1.391 . S
C832 C833 1.400 . S
C833 C827 1.491 1_455 S
C833 C832 1.400 . S
C833 C834 1.398 . S
C834 H822 0.950 . S
C834 C833 1.398 . S
C834 C835 1.391 . S
C835 H823 0.950 . S
C835 C831 1.393 . S
C835 C834 1.391 . S
H836 C844 0.950 . S
H837 C849 0.950 . S
H838 C846 0.950 . S
H839 C848 0.950 . S
H840 C850 0.950 . S
H841 C852 0.950 . S
H842 C854 0.950 . S
H843 C855 0.950 . S
C844 H836 0.950 . S
C844 C845 1.386 . S
C844 C846 1.391 . S
C845 C844 1.386 . S
C845 C849 1.393 . S
C846 H838 0.950 . S
C846 C844 1.391 . S
C846 C847 1.400 . S
C847 C846 1.400 . S
C847 C848 1.398 1_545 S
C847 C853 1.491 1_545 S
C848 H839 0.950 . S
C848 C847 1.398 1_565 S
C848 C849 1.391 1_565 S
C849 H837 0.950 . S
C849 C845 1.393 . S
C849 C848 1.391 1_545 S
C850 H840 0.950 . S
C850 C851 1.386 . S
C850 C852 1.391 . S
C851 C850 1.386 . S
C851 C855 1.393 . S
C852 H841 0.950 . S
C852 C850 1.391 . S
C852 C853 1.400 . S
C853 C847 1.491 1_565 S
C853 C852 1.400 . S
C853 C854 1.398 1_565 S
C854 H842 0.950 . S
C854 C853 1.398 1_545 S
C854 C855 1.391 1_545 S
C855 H843 0.950 . S
C855 C851 1.393 . S
C855 C854 1.391 1_565 S
H856 C864 0.950 . S
H857 C869 0.950 1_554 S
H858 C866 0.950 . S
H859 C868 0.950 . S
H860 C870 0.950 . S
H861 C872 0.950 . S
H862 C874 0.950 . S
H863 C875 0.950 1_556 S
C864 H856 0.950 . S
C864 C865 1.386 . S
C864 C866 1.391 . S
C865 C864 1.386 . S
C865 C869 1.393 . S
C866 H858 0.950 . S
C866 C864 1.391 . S
C866 C867 1.400 . S
C867 C866 1.400 . S
C867 C868 1.398 1_556 S
C867 C873 1.491 1_556 S
C868 H859 0.950 . S
C868 C867 1.398 1_554 S
C868 C869 1.391 1_554 S
C869 H857 0.950 1_556 S
C869 C865 1.393 . S
C869 C868 1.391 1_556 S
C870 H860 0.950 . S
C870 C871 1.386 . S
C870 C872 1.391 . S
C871 C870 1.386 . S
C871 C875 1.393 . S
C872 H861 0.950 . S
C872 C870 1.391 . S
C872 C873 1.400 . S
C873 C867 1.491 1_554 S
C873 C872 1.400 . S
C873 C874 1.398 1_554 S
C874 H862 0.950 . S
C874 C873 1.398 1_556 S
C874 C875 1.391 1_556 S
C875 H863 0.950 1_554 S
C875 C871 1.393 . S
C875 C874 1.391 1_554 S
H876 C884 0.950 . S
H877 C889 0.950 . S
H878 C886 0.950 . S
H879 C888 0.950 . S
H880 C890 0.950 . S
H881 C892 0.950 . S
H882 C894 0.950 . S
H883 C895 0.950 . S
C884 H876 0.950 . S
C884 C885 1.386 . S
C884 C886 1.391 . S
C885 C884 1.386 . S
C885 C889 1.393 . S
C886 H878 0.950 . S
C886 C884 1.391 . S
C886 C887 1.400 . S
C887 C886 1.400 . S
C887 C888 1.398 . S
C887 C893 1.491 . S
C888 H879 0.950 . S
C888 C887 1.398 . S
C888 C889 1.391 . S
C889 H877 0.950 . S
C889 C885 1.393 . S
C889 C888 1.391 . S
C890 H880 0.950 . S
C890 C891 1.386 . S
C890 C892 1.391 . S
C891 C890 1.386 . S
C891 C895 1.393 . S
C892 H881 0.950 . S
C892 C890 1.391 . S
C892 C893 1.400 . S
C893 C887 1.491 . S
C893 C892 1.400 . S
C893 C894 1.398 . S
C894 H882 0.950 . S
C894 C893 1.398 . S
C894 C895 1.391 . S
C895 H883 0.950 . S
C895 C891 1.393 . S
C895 C894 1.391 . S
H896 C904 0.950 . S
H897 C909 0.950 . S
H898 C906 0.932 1_655 S
H899 C908 0.950 . S
H900 C910 0.950 . S
H901 C912 0.932 1_455 S
H902 C914 0.950 . S
H903 C915 0.950 . S
C904 H896 0.950 . S
C904 C905 1.386 . S
C904 C906 1.391 . S
C905 C904 1.386 . S
C905 C909 1.393 . S
C906 H898 0.932 1_455 S
C906 C904 1.391 . S
C906 C907 1.400 . S
C907 C906 1.400 . S
C907 C908 1.398 . S
C907 C913 1.491 1_455 S
C908 H899 0.950 . S
C908 C907 1.398 . S
C908 C909 1.391 . S
C909 H897 0.950 . S
C909 C905 1.393 . S
C909 C908 1.391 . S
C910 H900 0.950 . S
C910 C911 1.386 . S
C910 C912 1.391 . S
C911 C910 1.386 . S
C911 C915 1.393 . S
C912 H901 0.932 1_655 S
C912 C910 1.391 . S
C912 C913 1.400 . S
C913 C907 1.491 1_655 S
C913 C912 1.400 . S
C913 C914 1.398 . S
C914 H902 0.950 . S
C914 C913 1.398 . S
C914 C915 1.391 . S
C915 H903 0.950 . S
C915 C911 1.393 . S
C915 C914 1.391 . S
H916 C924 0.950 . S
H917 C929 0.950 . S
H918 C926 0.950 . S
H919 C928 0.950 . S
H920 C930 0.950 . S
H921 C932 0.950 . S
H922 C934 0.950 . S
H923 C935 0.950 . S
C924 H916 0.950 . S
C924 C925 1.386 . S
C924 C926 1.391 . S
C925 C924 1.386 . S
C925 C929 1.393 . S
C926 H918 0.950 . S
C926 C924 1.391 . S
C926 C927 1.400 . S
C927 C926 1.400 . S
C927 C928 1.398 . S
C927 C933 1.491 . S
C928 H919 0.950 . S
C928 C927 1.398 . S
C928 C929 1.391 . S
C929 H917 0.950 . S
C929 C925 1.393 . S
C929 C928 1.391 . S
C930 H920 0.950 . S
C930 C931 1.386 . S
C930 C932 1.391 . S
C931 C930 1.386 . S
C931 C935 1.393 . S
C932 H921 0.950 . S
C932 C930 1.391 . S
C932 C933 1.400 . S
C933 C927 1.491 . S
C933 C932 1.400 . S
C933 C934 1.398 . S
C934 H922 0.950 . S
C934 C933 1.398 . S
C934 C935 1.391 . S
C935 H923 0.950 . S
C935 C931 1.393 . S
C935 C934 1.391 . S
H936 C944 0.950 . S
H937 C949 0.950 . S
H938 C946 0.950 . S
H939 C948 0.950 . S
H940 C950 0.950 . S
H941 C952 0.950 . S
H942 C954 0.950 . S
H943 C955 0.950 . S
C944 H936 0.950 . S
C944 C945 1.386 . S
C944 C946 1.391 . S
C945 C944 1.386 . S
C945 C949 1.393 . S
C946 H938 0.950 . S
C946 C944 1.391 . S
C946 C947 1.400 . S
C947 C946 1.400 . S
C947 C948 1.398 . S
C947 C953 1.491 . S
C948 H939 0.950 . S
C948 C947 1.398 . S
C948 C949 1.391 . S
C949 H937 0.950 . S
C949 C945 1.393 . S
C949 C948 1.391 . S
C950 H940 0.950 . S
C950 C951 1.386 . S
C950 C952 1.391 . S
C951 C950 1.386 . S
C951 C955 1.393 . S
C952 H941 0.950 . S
C952 C950 1.391 . S
C952 C953 1.400 . S
C953 C947 1.491 . S
C953 C952 1.400 . S
C953 C954 1.398 . S
C954 H942 0.950 . S
C954 C953 1.398 . S
C954 C955 1.391 . S
C955 H943 0.950 . S
C955 C951 1.393 . S
C955 C954 1.391 . S
H956 C964 0.950 . S
H957 C969 0.950 . S
H958 C966 0.950 . S
H959 C968 0.950 . S
H960 C970 0.950 . S
H961 C972 0.950 . S
H962 C974 0.950 . S
H963 C975 0.950 . S
C964 H956 0.950 . S
C964 C965 1.386 . S
C964 C966 1.391 . S
C965 C964 1.386 . S
C965 C969 1.393 . S
C966 H958 0.950 . S
C966 C964 1.391 . S
C966 C967 1.400 . S
C967 C966 1.400 . S
C967 C968 1.398 . S
C967 C973 1.491 . S
C968 H959 0.950 . S
C968 C967 1.398 . S
C968 C969 1.391 . S
C969 H957 0.950 . S
C969 C965 1.393 . S
C969 C968 1.391 . S
C970 H960 0.950 . S
C970 C971 1.386 . S
C970 C972 1.391 . S
C971 C970 1.386 . S
C971 C975 1.393 . S
C972 H961 0.950 . S
C972 C970 1.391 . S
C972 C973 1.400 . S
C973 C967 1.491 . S
C973 C972 1.400 . S
C973 C974 1.398 . S
C974 H962 0.950 . S
C974 C973 1.398 . S
C974 C975 1.391 . S
C975 H963 0.950 . S
C975 C971 1.393 . S
C975 C974 1.391 . S
H976 C984 0.950 . S
H977 C989 0.950 . S
H978 C986 0.950 . S
H979 C988 0.950 . S
H980 C990 0.950 . S
H981 C992 0.950 . S
H982 C994 0.950 . S
H983 C995 0.950 . S
C984 H976 0.950 . S
C984 C985 1.386 . S
C984 C986 1.391 . S
C985 C984 1.386 . S
C985 C989 1.393 . S
C986 H978 0.950 . S
C986 C984 1.391 . S
C986 C987 1.400 . S
C987 C986 1.400 . S
C987 C988 1.398 . S
C987 C993 1.491 . S
C988 H979 0.950 . S
C988 C987 1.398 . S
C988 C989 1.391 . S
C989 H977 0.950 . S
C989 C985 1.393 . S
C989 C988 1.391 . S
C990 H980 0.950 . S
C990 C991 1.386 . S
C990 C992 1.391 . S
C991 C990 1.386 . S
C991 C995 1.393 . S
C992 H981 0.950 . S
C992 C990 1.391 . S
C992 C993 1.400 . S
C993 C987 1.491 . S
C993 C992 1.400 . S
C993 C994 1.398 . S
C994 H982 0.950 . S
C994 C993 1.398 . S
C994 C995 1.391 . S
C995 H983 0.950 . S
C995 C991 1.393 . S
C995 C994 1.391 . S
H996 C1004 0.950 . S
H997 C1009 0.950 . S
H998 C1006 0.950 1_545 S
H999 C1008 0.950 . S
H1000 C1010 0.950 . S
H1001 C1012 0.950 1_565 S
H1002 C1014 0.950 . S
H1003 C1015 0.950 . S
C1004 H996 0.950 . S
C1004 C1005 1.386 . S
C1004 C1006 1.391 . S
C1005 C1004 1.386 . S
C1005 C1009 1.393 . S
C1006 H998 0.950 1_565 S
C1006 C1004 1.391 . S
C1006 C1007 1.400 . S
C1007 C1006 1.400 . S
C1007 C1008 1.398 . S
C1007 C1013 1.491 1_565 S
C1008 H999 0.950 . S
C1008 C1007 1.398 . S
C1008 C1009 1.391 . S
C1009 H997 0.950 . S
C1009 C1005 1.393 . S
C1009 C1008 1.391 . S
C1010 H1000 0.950 . S
C1010 C1011 1.386 . S
C1010 C1012 1.391 . S
C1011 C1010 1.386 . S
C1011 C1015 1.393 . S
C1012 H1001 0.950 1_545 S
C1012 C1010 1.391 . S
C1012 C1013 1.400 . S
C1013 C1007 1.491 1_545 S
C1013 C1012 1.400 . S
C1013 C1014 1.398 . S
C1014 H1002 0.950 . S
C1014 C1013 1.398 . S
C1014 C1015 1.391 . S
C1015 H1003 0.950 . S
C1015 C1011 1.393 . S
C1015 C1014 1.391 . S
H1016 C1024 0.950 . S
H1017 C1029 0.950 . S
H1018 C1026 0.950 . S
H1019 C1028 0.950 . S
H1020 C1030 0.950 . S
H1021 C1032 0.950 . S
H1022 C1034 0.950 . S
H1023 C1035 0.950 . S
C1024 H1016 0.950 . S
C1024 C1025 1.386 . S
C1024 C1026 1.391 . S
C1025 C1024 1.386 . S
C1025 C1029 1.393 . S
C1026 H1018 0.950 . S
C1026 C1024 1.391 . S
C1026 C1027 1.400 . S
C1027 C1026 1.400 . S
C1027 C1028 1.398 . S
C1027 C1033 1.491 . S
C1028 H1019 0.950 . S
C1028 C1027 1.398 . S
C1028 C1029 1.391 . S
C1029 H1017 0.950 . S
C1029 C1025 1.393 . S
C1029 C1028 1.391 . S
C1030 H1020 0.950 . S
C1030 C1031 1.386 . S
C1030 C1032 1.391 . S
C1031 C1030 1.386 . S
C1031 C1035 1.393 . S
C1032 H1021 0.950 . S
C1032 C1030 1.391 . S
C1032 C1033 1.400 . S
C1033 C1027 1.491 . S
C1033 C1032 1.400 . S
C1033 C1034 1.398 . S
C1034 H1022 0.950 . S
C1034 C1033 1.398 . S
C1034 C1035 1.391 . S
C1035 H1023 0.950 . S
C1035 C1031 1.393 . S
C1035 C1034 1.391 . S
H1036 C1044 0.950 . S
H1037 C1049 0.950 . S
H1038 C1046 0.950 . S
H1039 C1048 0.950 . S
H1040 C1050 0.950 . S
H1041 C1052 0.950 . S
H1042 C1054 0.950 . S
H1043 C1055 0.950 . S
C1044 H1036 0.950 . S
C1044 C1045 1.386 . S
C1044 C1046 1.391 . S
C1045 C1044 1.386 . S
C1045 C1049 1.393 . S
C1046 H1038 0.950 . S
C1046 C1044 1.391 . S
C1046 C1047 1.400 . S
C1047 C1046 1.400 . S
C1047 C1048 1.398 . S
C1047 C1053 1.491 1_554 S
C1048 H1039 0.950 . S
C1048 C1047 1.398 . S
C1048 C1049 1.391 . S
C1049 H1037 0.950 . S
C1049 C1045 1.393 . S
C1049 C1048 1.391 . S
C1050 H1040 0.950 . S
C1050 C1051 1.386 . S
C1050 C1052 1.391 . S
C1051 C1050 1.386 . S
C1051 C1055 1.393 . S
C1052 H1041 0.950 . S
C1052 C1050 1.391 . S
C1052 C1053 1.400 . S
C1053 C1047 1.491 1_556 S
C1053 C1052 1.400 . S
C1053 C1054 1.398 . S
C1054 H1042 0.950 . S
C1054 C1053 1.398 . S
C1054 C1055 1.391 . S
C1055 H1043 0.950 . S
C1055 C1051 1.393 . S
C1055 C1054 1.391 . S
H1056 C1064 0.950 . S
H1057 C1069 0.950 . S
H1058 C1066 0.950 . S
H1059 C1068 0.950 . S
H1060 C1070 0.950 . S
H1061 C1072 0.950 . S
H1062 C1074 0.950 . S
H1063 C1075 0.950 . S
C1064 H1056 0.950 . S
C1064 C1065 1.386 . S
C1064 C1066 1.391 . S
C1065 C1064 1.386 . S
C1065 C1069 1.393 . S
C1066 H1058 0.950 . S
C1066 C1064 1.391 . S
C1066 C1067 1.400 . S
C1067 C1066 1.400 . S
C1067 C1068 1.398 . S
C1067 C1073 1.491 . S
C1068 H1059 0.950 . S
C1068 C1067 1.398 . S
C1068 C1069 1.391 . S
C1069 H1057 0.950 . S
C1069 C1065 1.393 . S
C1069 C1068 1.391 . S
C1070 H1060 0.950 . S
C1070 C1071 1.386 . S
C1070 C1072 1.391 . S
C1071 C1070 1.386 . S
C1071 C1075 1.393 . S
C1072 H1061 0.950 . S
C1072 C1070 1.391 . S
C1072 C1073 1.400 . S
C1073 C1067 1.491 . S
C1073 C1072 1.400 . S
C1073 C1074 1.398 . S
C1074 H1062 0.950 . S
C1074 C1073 1.398 . S
C1074 C1075 1.391 . S
C1075 H1063 0.950 . S
C1075 C1071 1.393 . S
C1075 C1074 1.391 . S
H1076 C1084 0.950 . S
H1077 C1089 0.950 . S
H1078 C1086 0.950 . S
H1079 C1088 0.950 . S
H1080 C1090 0.950 . S
H1081 C1092 0.950 . S
H1082 C1094 0.950 . S
H1083 C1095 0.950 . S
C1084 H1076 0.950 . S
C1084 C1085 1.386 . S
C1084 C1086 1.391 . S
C1085 C1084 1.386 . S
C1085 C1089 1.393 . S
C1086 H1078 0.950 . S
C1086 C1084 1.391 . S
C1086 C1087 1.400 . S
C1087 C1086 1.400 . S
C1087 C1088 1.398 . S
C1087 C1093 1.491 . S
C1088 H1079 0.950 . S
C1088 C1087 1.398 . S
C1088 C1089 1.391 . S
C1089 H1077 0.950 . S
C1089 C1085 1.393 . S
C1089 C1088 1.391 . S
C1090 H1080 0.950 . S
C1090 C1091 1.386 . S
C1090 C1092 1.391 . S
C1091 C1090 1.386 . S
C1091 C1095 1.393 . S
C1092 H1081 0.950 . S
C1092 C1090 1.391 . S
C1092 C1093 1.400 . S
C1093 C1087 1.491 . S
C1093 C1092 1.400 . S
C1093 C1094 1.398 . S
C1094 H1082 0.950 . S
C1094 C1093 1.398 . S
C1094 C1095 1.391 . S
C1095 H1083 0.950 . S
C1095 C1091 1.393 . S
C1095 C1094 1.391 . S
H1096 C1104 0.950 . S
H1097 C1109 0.950 . S
H1098 C1106 0.950 . S
H1099 C1108 0.950 . S
H1100 C1110 0.950 . S
H1101 C1112 0.950 . S
H1102 C1114 0.950 . S
H1103 C1115 0.950 . S
C1104 H1096 0.950 . S
C1104 C1105 1.386 . S
C1104 C1106 1.391 . S
C1105 C1104 1.386 . S
C1105 C1109 1.393 . S
C1106 H1098 0.950 . S
C1106 C1104 1.391 . S
C1106 C1107 1.400 . S
C1107 C1106 1.400 . S
C1107 C1108 1.398 . S
C1107 C1113 1.491 . S
C1108 H1099 0.950 . S
C1108 C1107 1.398 . S
C1108 C1109 1.391 . S
C1109 H1097 0.950 . S
C1109 C1105 1.393 . S
C1109 C1108 1.391 . S
C1110 H1100 0.950 . S
C1110 C1111 1.386 . S
C1110 C1112 1.391 . S
C1111 C1110 1.386 . S
C1111 C1115 1.393 . S
C1112 H1101 0.950 . S
C1112 C1110 1.391 . S
C1112 C1113 1.400 . S
C1113 C1107 1.491 . S
C1113 C1112 1.400 . S
C1113 C1114 1.398 . S
C1114 H1102 0.950 . S
C1114 C1113 1.398 . S
C1114 C1115 1.391 . S
C1115 H1103 0.950 . S
C1115 C1111 1.393 . S
C1115 C1114 1.391 . S
H1116 C1124 0.950 . S
H1117 C1129 0.950 . S
H1118 C1126 0.950 . S
H1119 C1128 0.950 . S
H1120 C1130 0.950 . S
H1121 C1132 0.950 . S
H1122 C1134 0.950 . S
H1123 C1135 0.950 . S
C1124 H1116 0.950 . S
C1124 C1125 1.386 . S
C1124 C1126 1.391 . S
C1125 C1124 1.386 . S
C1125 C1129 1.393 . S
C1126 H1118 0.950 . S
C1126 C1124 1.391 . S
C1126 C1127 1.400 . S
C1127 C1126 1.400 . S
C1127 C1128 1.398 . S
C1127 C1133 1.491 . S
C1128 H1119 0.950 . S
C1128 C1127 1.398 . S
C1128 C1129 1.391 . S
C1129 H1117 0.950 . S
C1129 C1125 1.393 . S
C1129 C1128 1.391 . S
C1130 H1120 0.950 . S
C1130 C1131 1.386 . S
C1130 C1132 1.391 . S
C1131 C1130 1.386 . S
C1131 C1135 1.393 . S
C1132 H1121 0.950 . S
C1132 C1130 1.391 . S
C1132 C1133 1.400 . S
C1133 C1127 1.491 . S
C1133 C1132 1.400 . S
C1133 C1134 1.398 . S
C1134 H1122 0.950 . S
C1134 C1133 1.398 . S
C1134 C1135 1.391 . S
C1135 H1123 0.950 . S
C1135 C1131 1.393 . S
C1135 C1134 1.391 . S
H1136 C1144 0.950 . S
H1137 C1149 0.950 . S
H1138 C1146 0.950 . S
H1139 C1148 0.950 . S
H1140 C1150 0.950 . S
H1141 C1152 0.950 . S
H1142 C1154 0.950 . S
H1143 C1155 0.950 . S
C1144 H1136 0.950 . S
C1144 C1145 1.386 . S
C1144 C1146 1.391 . S
C1145 C1144 1.386 . S
C1145 C1149 1.393 . S
C1146 H1138 0.950 . S
C1146 C1144 1.391 . S
C1146 C1147 1.400 . S
C1147 C1146 1.400 . S
C1147 C1148 1.398 . S
C1147 C1153 1.491 . S
C1148 H1139 0.950 . S
C1148 C1147 1.398 . S
C1148 C1149 1.391 . S
C1149 H1137 0.950 . S
C1149 C1145 1.393 . S
C1149 C1148 1.391 . S
C1150 H1140 0.950 . S
C1150 C1151 1.386 . S
C1150 C1152 1.391 . S
C1151 C1150 1.386 . S
C1151 C1155 1.393 . S
C1152 H1141 0.950 . S
C1152 C1150 1.391 . S
C1152 C1153 1.400 . S
C1153 C1147 1.491 . S
C1153 C1152 1.400 . S
C1153 C1154 1.398 . S
C1154 H1142 0.950 . S
C1154 C1153 1.398 . S
C1154 C1155 1.391 . S
C1155 H1143 0.950 . S
C1155 C1151 1.393 . S
C1155 C1154 1.391 . S
H1156 C1164 0.950 . S
H1157 C1169 0.950 . S
H1158 C1166 0.950 . S
H1159 C1168 0.950 . S
H1160 C1170 0.950 . S
H1161 C1172 0.950 . S
H1162 C1174 0.950 . S
H1163 C1175 0.950 . S
C1164 H1156 0.950 . S
C1164 C1165 1.386 . S
C1164 C1166 1.391 . S
C1165 C1164 1.386 . S
C1165 C1169 1.393 . S
C1166 H1158 0.950 . S
C1166 C1164 1.391 . S
C1166 C1167 1.400 . S
C1167 C1166 1.400 . S
C1167 C1168 1.398 . S
C1167 C1173 1.491 . S
C1168 H1159 0.950 . S
C1168 C1167 1.398 . S
C1168 C1169 1.391 . S
C1169 H1157 0.950 . S
C1169 C1165 1.393 . S
C1169 C1168 1.391 . S
C1170 H1160 0.950 . S
C1170 C1171 1.386 . S
C1170 C1172 1.391 . S
C1171 C1170 1.386 . S
C1171 C1175 1.393 . S
C1172 H1161 0.950 . S
C1172 C1170 1.391 . S
C1172 C1173 1.400 . S
C1173 C1167 1.491 . S
C1173 C1172 1.400 . S
C1173 C1174 1.398 . S
C1174 H1162 0.950 . S
C1174 C1173 1.398 . S
C1174 C1175 1.391 . S
C1175 H1163 0.950 . S
C1175 C1171 1.393 . S
C1175 C1174 1.391 . S
H1176 C1184 0.950 . S
H1177 C1189 0.950 . S
H1178 C1186 0.950 . S
H1179 C1188 0.950 . S
H1180 C1190 0.950 1_565 S
H1181 C1192 0.950 . S
H1182 C1194 0.950 . S
H1183 C1195 0.950 . S
C1184 H1176 0.950 . S
C1184 C1185 1.386 . S
C1184 C1186 1.391 . S
C1185 C1184 1.386 . S
C1185 C1189 1.393 . S
C1186 H1178 0.950 . S
C1186 C1184 1.391 . S
C1186 C1187 1.400 . S
C1187 C1186 1.400 . S
C1187 C1188 1.398 . S
C1187 C1193 1.491 . S
C1188 H1179 0.950 . S
C1188 C1187 1.398 . S
C1188 C1189 1.391 . S
C1189 H1177 0.950 . S
C1189 C1185 1.393 . S
C1189 C1188 1.391 . S
C1190 H1180 0.950 1_545 S
C1190 C1191 1.386 . S
C1190 C1192 1.391 . S
C1191 C1190 1.386 . S
C1191 C1195 1.393 . S
C1192 H1181 0.950 . S
C1192 C1190 1.391 . S
C1192 C1193 1.400 . S
C1193 C1187 1.491 . S
C1193 C1192 1.400 . S
C1193 C1194 1.398 . S
C1194 H1182 0.950 . S
C1194 C1193 1.398 . S
C1194 C1195 1.391 . S
C1195 H1183 0.950 . S
C1195 C1191 1.393 . S
C1195 C1194 1.391 . S
H1196 C1204 0.950 . S
H1197 C1209 0.950 . S
H1198 C1206 0.950 . S
H1199 C1208 0.950 . S
H1200 C1210 0.950 . S
H1201 C1212 0.950 . S
H1202 C1214 0.950 . S
H1203 C1215 0.950 . S
C1204 H1196 0.950 . S
C1204 C1205 1.386 . S
C1204 C1206 1.391 . S
C1205 C1204 1.386 . S
C1205 C1209 1.393 . S
C1206 H1198 0.950 . S
C1206 C1204 1.391 . S
C1206 C1207 1.400 . S
C1207 C1206 1.400 . S
C1207 C1208 1.398 . S
C1207 C1213 1.491 . S
C1208 H1199 0.950 . S
C1208 C1207 1.398 . S
C1208 C1209 1.391 . S
C1209 H1197 0.950 . S
C1209 C1205 1.393 . S
C1209 C1208 1.391 . S
C1210 H1200 0.950 . S
C1210 C1211 1.386 . S
C1210 C1212 1.391 . S
C1211 C1210 1.386 . S
C1211 C1215 1.393 . S
C1212 H1201 0.950 . S
C1212 C1210 1.391 . S
C1212 C1213 1.400 . S
C1213 C1207 1.491 . S
C1213 C1212 1.400 . S
C1213 C1214 1.398 . S
C1214 H1202 0.950 . S
C1214 C1213 1.398 . S
C1214 C1215 1.391 . S
C1215 H1203 0.950 . S
C1215 C1211 1.393 . S
C1215 C1214 1.391 . S
H1216 C1224 0.950 . S
H1217 C1229 0.950 . S
H1218 C1226 0.950 . S
H1219 C1228 0.950 . S
H1220 C1230 0.950 . S
H1221 C1232 0.950 . S
H1222 C1234 0.950 . S
H1223 C1235 0.950 . S
C1224 H1216 0.950 . S
C1224 C1225 1.386 . S
C1224 C1226 1.391 . S
C1225 C1224 1.386 . S
C1225 C1229 1.393 . S
C1226 H1218 0.950 . S
C1226 C1224 1.391 . S
C1226 C1227 1.400 . S
C1227 C1226 1.400 . S
C1227 C1228 1.398 . S
C1227 C1233 1.491 . S
C1228 H1219 0.950 . S
C1228 C1227 1.398 . S
C1228 C1229 1.391 . S
C1229 H1217 0.950 . S
C1229 C1225 1.393 . S
C1229 C1228 1.391 . S
C1230 H1220 0.950 . S
C1230 C1231 1.386 . S
C1230 C1232 1.391 . S
C1231 C1230 1.386 . S
C1231 C1235 1.393 . S
C1232 H1221 0.950 . S
C1232 C1230 1.391 . S
C1232 C1233 1.400 . S
C1233 C1227 1.491 . S
C1233 C1232 1.400 . S
C1233 C1234 1.398 . S
C1234 H1222 0.950 . S
C1234 C1233 1.398 . S
C1234 C1235 1.391 . S
C1235 H1223 0.950 . S
C1235 C1231 1.393 . S
C1235 C1234 1.391 . S
H1236 C1244 0.950 . S
H1237 C1249 0.950 . S
H1238 C1246 0.950 . S
H1239 C1248 0.950 . S
H1240 C1250 0.959 . S
H1241 C1252 0.950 . S
H1242 C1254 0.950 . S
H1243 C1255 0.950 . S
C1244 H1236 0.950 . S
C1244 C1245 1.386 . S
C1244 C1246 1.391 . S
C1245 C1244 1.386 . S
C1245 C1249 1.393 . S
C1246 H1238 0.950 . S
C1246 C1244 1.391 . S
C1246 C1247 1.400 . S
C1247 C1246 1.400 . S
C1247 C1248 1.398 . S
C1247 C1253 1.491 . S
C1248 H1239 0.950 . S
C1248 C1247 1.398 . S
C1248 C1249 1.391 . S
C1249 H1237 0.950 . S
C1249 C1245 1.393 . S
C1249 C1248 1.391 . S
C1250 H1240 0.959 . S
C1250 C1251 1.386 . S
C1250 C1252 1.391 . S
C1251 C1250 1.386 . S
C1251 C1255 1.393 . S
C1252 H1241 0.950 . S
C1252 C1250 1.391 . S
C1252 C1253 1.400 . S
C1253 C1247 1.491 . S
C1253 C1252 1.400 . S
C1253 C1254 1.398 . S
C1254 H1242 0.950 . S
C1254 C1253 1.398 . S
C1254 C1255 1.391 . S
C1255 H1243 0.950 . S
C1255 C1251 1.393 . S
C1255 C1254 1.391 . S
H1256 C1264 0.950 . S
H1257 C1269 0.950 . S
H1258 C1266 0.950 . S
H1259 C1268 0.950 . S
H1260 C1270 0.950 . S
H1261 C1272 0.950 . S
H1262 C1274 0.950 . S
H1263 C1275 0.950 . S
C1264 H1256 0.950 . S
C1264 C1265 1.386 . S
C1264 C1266 1.391 . S
C1265 C1264 1.386 . S
C1265 C1269 1.393 . S
C1266 H1258 0.950 . S
C1266 C1264 1.391 . S
C1266 C1267 1.400 . S
C1267 C1266 1.400 . S
C1267 C1268 1.398 . S
C1267 C1273 1.491 . S
C1268 H1259 0.950 . S
C1268 C1267 1.398 . S
C1268 C1269 1.391 . S
C1269 H1257 0.950 . S
C1269 C1265 1.393 . S
C1269 C1268 1.391 . S
C1270 H1260 0.950 . S
C1270 C1271 1.386 . S
C1270 C1272 1.391 . S
C1271 C1270 1.386 . S
C1271 C1275 1.393 . S
C1272 H1261 0.950 . S
C1272 C1270 1.391 . S
C1272 C1273 1.400 . S
C1273 C1267 1.491 . S
C1273 C1272 1.400 . S
C1273 C1274 1.398 . S
C1274 H1262 0.950 . S
C1274 C1273 1.398 . S
C1274 C1275 1.391 . S
C1275 H1263 0.950 . S
C1275 C1271 1.393 . S
C1275 C1274 1.391 . S
H1276 C1284 0.950 . S
H1277 C1289 0.950 . S
H1278 C1286 0.950 . S
H1279 C1288 0.950 . S
H1280 C1290 0.950 . S
H1281 C1292 0.950 . S
H1282 C1294 0.950 . S
H1283 C1295 0.950 . S
C1284 H1276 0.950 . S
C1284 C1285 1.386 . S
C1284 C1286 1.391 . S
C1285 C1284 1.386 . S
C1285 C1289 1.393 . S
C1286 H1278 0.950 . S
C1286 C1284 1.391 . S
C1286 C1287 1.400 . S
C1287 C1286 1.400 . S
C1287 C1288 1.398 . S
C1287 C1293 1.491 . S
C1288 H1279 0.950 . S
C1288 C1287 1.398 . S
C1288 C1289 1.391 . S
C1289 H1277 0.950 . S
C1289 C1285 1.393 . S
C1289 C1288 1.391 . S
C1290 H1280 0.950 . S
C1290 C1291 1.386 . S
C1290 C1292 1.391 . S
C1291 C1290 1.386 . S
C1291 C1295 1.393 . S
C1292 H1281 0.950 . S
C1292 C1290 1.391 . S
C1292 C1293 1.400 . S
C1293 C1287 1.491 . S
C1293 C1292 1.400 . S
C1293 C1294 1.398 . S
C1294 H1282 0.950 . S
C1294 C1293 1.398 . S
C1294 C1295 1.391 . S
C1295 H1283 0.950 . S
C1295 C1291 1.393 . S
C1295 C1294 1.391 . S
H1296 C1304 0.950 . S
H1297 C1309 0.950 . S
H1298 C1306 0.950 . S
H1299 C1308 0.950 . S
H1300 C1310 0.950 . S
H1301 C1312 0.950 . S
H1302 C1314 0.950 . S
H1303 C1315 0.950 . S
C1304 H1296 0.950 . S
C1304 C1305 1.386 . S
C1304 C1306 1.391 . S
C1305 C1304 1.386 . S
C1305 C1309 1.393 . S
C1306 H1298 0.950 . S
C1306 C1304 1.391 . S
C1306 C1307 1.400 . S
C1307 C1306 1.400 . S
C1307 C1308 1.398 . S
C1307 C1313 1.491 . S
C1308 H1299 0.950 . S
C1308 C1307 1.398 . S
C1308 C1309 1.391 . S
C1309 H1297 0.950 . S
C1309 C1305 1.393 . S
C1309 C1308 1.391 . S
C1310 H1300 0.950 . S
C1310 C1311 1.386 . S
C1310 C1312 1.391 . S
C1311 C1310 1.386 . S
C1311 C1315 1.393 . S
C1312 H1301 0.950 . S
C1312 C1310 1.391 . S
C1312 C1313 1.400 . S
C1313 C1307 1.491 . S
C1313 C1312 1.400 . S
C1313 C1314 1.398 . S
C1314 H1302 0.950 . S
C1314 C1313 1.398 . S
C1314 C1315 1.391 . S
C1315 H1303 0.950 . S
C1315 C1311 1.393 . S
C1315 C1314 1.391 . S
H1316 C1324 0.950 . S
H1317 C1329 0.950 . S
H1318 C1326 0.950 . S
H1319 C1328 0.950 . S
H1320 C1330 0.950 . S
H1321 C1332 0.950 . S
H1322 C1334 0.950 . S
H1323 C1335 0.950 . S
C1324 H1316 0.950 . S
C1324 C1325 1.386 . S
C1324 C1326 1.391 . S
C1325 C1324 1.386 . S
C1325 C1329 1.393 . S
C1326 H1318 0.950 . S
C1326 C1324 1.391 . S
C1326 C1327 1.400 . S
C1327 C1326 1.400 . S
C1327 C1328 1.398 . S
C1327 C1333 1.491 . S
C1328 H1319 0.950 . S
C1328 C1327 1.398 . S
C1328 C1329 1.391 . S
C1329 H1317 0.950 . S
C1329 C1325 1.393 . S
C1329 C1328 1.391 . S
C1330 H1320 0.950 . S
C1330 C1331 1.386 . S
C1330 C1332 1.391 . S
C1331 C1330 1.386 . S
C1331 C1335 1.393 . S
C1332 H1321 0.950 . S
C1332 C1330 1.391 . S
C1332 C1333 1.400 . S
C1333 C1327 1.491 . S
C1333 C1332 1.400 . S
C1333 C1334 1.398 . S
C1334 H1322 0.950 . S
C1334 C1333 1.398 . S
C1334 C1335 1.391 . S
C1335 H1323 0.950 . S
C1335 C1331 1.393 . S
C1335 C1334 1.391 . S
H1336 C1344 0.950 . S
H1337 C1349 0.950 . S
H1338 C1346 0.950 . S
H1339 C1348 0.950 . S
H1340 C1350 0.950 1_565 S
H1341 C1352 0.950 . S
H1342 C1354 0.950 . S
H1343 C1355 0.950 . S
C1344 H1336 0.950 . S
C1344 C1345 1.386 . S
C1344 C1346 1.391 . S
C1345 C1344 1.386 . S
C1345 C1349 1.393 . S
C1346 H1338 0.950 . S
C1346 C1344 1.391 . S
C1346 C1347 1.400 . S
C1347 C1346 1.400 . S
C1347 C1348 1.398 . S
C1347 C1353 1.491 . S
C1348 H1339 0.950 . S
C1348 C1347 1.398 . S
C1348 C1349 1.391 . S
C1349 H1337 0.950 . S
C1349 C1345 1.393 . S
C1349 C1348 1.391 . S
C1350 H1340 0.950 1_545 S
C1350 C1351 1.386 . S
C1350 C1352 1.391 . S
C1351 C1350 1.386 . S
C1351 C1355 1.393 . S
C1352 H1341 0.950 . S
C1352 C1350 1.391 . S
C1352 C1353 1.400 . S
C1353 C1347 1.491 . S
C1353 C1352 1.400 . S
C1353 C1354 1.398 . S
C1354 H1342 0.950 . S
C1354 C1353 1.398 . S
C1354 C1355 1.391 . S
C1355 H1343 0.950 . S
C1355 C1351 1.393 . S
C1355 C1354 1.391 . S
H1356 C1364 0.950 . S
H1357 C1369 0.950 . S
H1358 C1366 0.950 . S
H1359 C1368 0.950 . S
H1360 C1370 0.950 . S
H1361 C1372 0.950 . S
H1362 C1374 0.950 . S
H1363 C1375 0.950 . S
C1364 H1356 0.950 . S
C1364 C1365 1.386 . S
C1364 C1366 1.391 . S
C1365 C1364 1.386 . S
C1365 C1369 1.393 . S
C1366 H1358 0.950 . S
C1366 C1364 1.391 . S
C1366 C1367 1.400 . S
C1367 C1366 1.400 . S
C1367 C1368 1.398 . S
C1367 C1373 1.491 . S
C1368 H1359 0.950 . S
C1368 C1367 1.398 . S
C1368 C1369 1.391 . S
C1369 H1357 0.950 . S
C1369 C1365 1.393 . S
C1369 C1368 1.391 . S
C1370 H1360 0.950 . S
C1370 C1371 1.386 . S
C1370 C1372 1.391 . S
C1371 C1370 1.386 . S
C1371 C1375 1.393 . S
C1372 H1361 0.950 . S
C1372 C1370 1.391 . S
C1372 C1373 1.400 . S
C1373 C1367 1.491 . S
C1373 C1372 1.400 . S
C1373 C1374 1.398 . S
C1374 H1362 0.950 . S
C1374 C1373 1.398 . S
C1374 C1375 1.391 . S
C1375 H1363 0.950 . S
C1375 C1371 1.393 . S
C1375 C1374 1.391 . S
H1376 C1384 0.950 . S
H1377 C1389 0.950 . S
H1378 C1386 0.950 . S
H1379 C1388 0.950 . S
H1380 C1390 0.950 . S
H1381 C1392 0.950 . S
H1382 C1394 0.950 . S
H1383 C1395 0.950 1_545 S
C1384 H1376 0.950 . S
C1384 C1385 1.386 . S
C1384 C1386 1.391 . S
C1385 C1384 1.386 . S
C1385 C1389 1.393 . S
C1386 H1378 0.950 . S
C1386 C1384 1.391 . S
C1386 C1387 1.400 . S
C1387 C1386 1.400 . S
C1387 C1388 1.398 . S
C1387 C1393 1.491 . S
C1388 H1379 0.950 . S
C1388 C1387 1.398 . S
C1388 C1389 1.391 . S
C1389 H1377 0.950 . S
C1389 C1385 1.393 . S
C1389 C1388 1.391 . S
C1390 H1380 0.950 . S
C1390 C1391 1.386 . S
C1390 C1392 1.391 . S
C1391 C1390 1.386 . S
C1391 C1395 1.393 . S
C1392 H1381 0.950 . S
C1392 C1390 1.391 . S
C1392 C1393 1.400 . S
C1393 C1387 1.491 . S
C1393 C1392 1.400 . S
C1393 C1394 1.398 . S
C1394 H1382 0.950 . S
C1394 C1393 1.398 . S
C1394 C1395 1.391 . S
C1395 H1383 0.950 1_565 S
C1395 C1391 1.393 . S
C1395 C1394 1.391 . S
H1396 C1404 0.950 . S
H1397 C1409 0.950 . S
H1398 C1406 0.950 . S
H1399 C1408 0.950 . S
H1400 C1410 0.950 . S
H1401 C1412 0.950 . S
H1402 C1414 0.950 . S
H1403 C1415 0.950 . S
C1404 H1396 0.950 . S
C1404 C1405 1.386 . S
C1404 C1406 1.391 . S
C1405 C1404 1.386 . S
C1405 C1409 1.393 . S
C1406 H1398 0.950 . S
C1406 C1404 1.391 . S
C1406 C1407 1.400 . S
C1407 C1406 1.400 . S
C1407 C1408 1.398 . S
C1407 C1413 1.491 . S
C1408 H1399 0.950 . S
C1408 C1407 1.398 . S
C1408 C1409 1.391 . S
C1409 H1397 0.950 . S
C1409 C1405 1.393 . S
C1409 C1408 1.391 . S
C1410 H1400 0.950 . S
C1410 C1411 1.386 . S
C1410 C1412 1.391 . S
C1411 C1410 1.386 . S
C1411 C1415 1.393 . S
C1412 H1401 0.950 . S
C1412 C1410 1.391 . S
C1412 C1413 1.400 . S
C1413 C1407 1.491 . S
C1413 C1412 1.400 . S
C1413 C1414 1.398 . S
C1414 H1402 0.950 . S
C1414 C1413 1.398 . S
C1414 C1415 1.391 . S
C1415 H1403 0.950 . S
C1415 C1411 1.393 . S
C1415 C1414 1.391 . S
H1416 C1424 0.950 . S
H1417 C1429 0.950 . S
H1418 C1426 0.950 . S
H1419 C1428 0.950 . S
H1420 C1430 0.950 . S
H1421 C1432 0.950 . S
H1422 C1434 0.950 . S
H1423 C1435 0.950 . S
C1424 H1416 0.950 . S
C1424 C1425 1.386 . S
C1424 C1426 1.391 . S
C1425 C1424 1.386 . S
C1425 C1429 1.393 . S
C1426 H1418 0.950 . S
C1426 C1424 1.391 . S
C1426 C1427 1.400 . S
C1427 C1426 1.400 . S
C1427 C1428 1.398 . S
C1427 C1433 1.491 . S
C1428 H1419 0.950 . S
C1428 C1427 1.398 . S
C1428 C1429 1.391 . S
C1429 H1417 0.950 . S
C1429 C1425 1.393 . S
C1429 C1428 1.391 . S
C1430 H1420 0.950 . S
C1430 C1431 1.386 . S
C1430 C1432 1.391 . S
C1431 C1430 1.386 . S
C1431 C1435 1.393 . S
C1432 H1421 0.950 . S
C1432 C1430 1.391 . S
C1432 C1433 1.400 . S
C1433 C1427 1.491 . S
C1433 C1432 1.400 . S
C1433 C1434 1.398 . S
C1434 H1422 0.950 . S
C1434 C1433 1.398 . S
C1434 C1435 1.391 . S
C1435 H1423 0.950 . S
C1435 C1431 1.393 . S
C1435 C1434 1.391 . S
H1436 C1444 0.950 1_545 S
H1437 C1449 0.950 . S
H1438 C1446 0.950 . S
H1439 C1448 0.950 . S
H1440 C1450 0.950 . S
H1441 C1452 0.950 . S
H1442 C1454 0.950 . S
H1443 C1455 0.950 . S
C1444 H1436 0.950 1_565 S
C1444 C1445 1.386 . S
C1444 C1446 1.391 . S
C1445 C1444 1.386 . S
C1445 C1449 1.393 . S
C1446 H1438 0.950 . S
C1446 C1444 1.391 . S
C1446 C1447 1.400 . S
C1447 C1446 1.400 . S
C1447 C1448 1.398 . S
C1447 C1453 1.491 . S
C1448 H1439 0.950 . S
C1448 C1447 1.398 . S
C1448 C1449 1.391 . S
C1449 H1437 0.950 . S
C1449 C1445 1.393 . S
C1449 C1448 1.391 . S
C1450 H1440 0.950 . S
C1450 C1451 1.386 . S
C1450 C1452 1.391 . S
C1451 C1450 1.386 . S
C1451 C1455 1.393 . S
C1452 H1441 0.950 . S
C1452 C1450 1.391 . S
C1452 C1453 1.400 . S
C1453 C1447 1.491 . S
C1453 C1452 1.400 . S
C1453 C1454 1.398 . S
C1454 H1442 0.950 . S
C1454 C1453 1.398 . S
C1454 C1455 1.391 . S
C1455 H1443 0.950 . S
C1455 C1451 1.393 . S
C1455 C1454 1.391 . S
H1456 C1464 0.950 . S
H1457 C1469 0.950 . S
H1458 C1466 0.950 . S
H1459 C1468 0.950 . S
H1460 C1470 0.950 . S
H1461 C1472 0.950 . S
H1462 C1474 0.950 . S
H1463 C1475 0.950 1_565 S
C1464 H1456 0.950 . S
C1464 C1465 1.386 . S
C1464 C1466 1.391 . S
C1465 C1464 1.386 . S
C1465 C1469 1.393 . S
C1466 H1458 0.950 . S
C1466 C1464 1.391 . S
C1466 C1467 1.400 . S
C1467 C1466 1.400 . S
C1467 C1468 1.398 . S
C1467 C1473 1.491 . S
C1468 H1459 0.950 . S
C1468 C1467 1.398 . S
C1468 C1469 1.391 . S
C1469 H1457 0.950 . S
C1469 C1465 1.393 . S
C1469 C1468 1.391 . S
C1470 H1460 0.950 . S
C1470 C1471 1.386 . S
C1470 C1472 1.391 . S
C1471 C1470 1.386 . S
C1471 C1475 1.393 . S
C1472 H1461 0.950 . S
C1472 C1470 1.391 . S
C1472 C1473 1.400 . S
C1473 C1467 1.491 . S
C1473 C1472 1.400 . S
C1473 C1474 1.398 . S
C1474 H1462 0.950 . S
C1474 C1473 1.398 . S
C1474 C1475 1.391 . S
C1475 H1463 0.950 1_545 S
C1475 C1471 1.393 . S
C1475 C1474 1.391 . S
H1476 C1484 0.950 . S
H1477 C1489 0.950 . S
H1478 C1486 0.950 . S
H1479 C1488 0.950 . S
H1480 C1490 0.950 . S
H1481 C1492 0.950 . S
H1482 C1494 0.950 . S
H1483 C1495 0.950 . S
C1484 H1476 0.950 . S
C1484 C1485 1.386 . S
C1484 C1486 1.391 . S
C1485 C1484 1.386 . S
C1485 C1489 1.393 . S
C1486 H1478 0.950 . S
C1486 C1484 1.391 . S
C1486 C1487 1.400 . S
C1487 C1486 1.400 . S
C1487 C1488 1.398 . S
C1487 C1493 1.491 . S
C1488 H1479 0.950 . S
C1488 C1487 1.398 . S
C1488 C1489 1.391 . S
C1489 H1477 0.950 . S
C1489 C1485 1.393 . S
C1489 C1488 1.391 . S
C1490 H1480 0.950 . S
C1490 C1491 1.386 . S
C1490 C1492 1.391 . S
C1491 C1490 1.386 . S
C1491 C1495 1.393 . S
C1492 H1481 0.950 . S
C1492 C1490 1.391 . S
C1492 C1493 1.400 . S
C1493 C1487 1.491 . S
C1493 C1492 1.400 . S
C1493 C1494 1.398 . S
C1494 H1482 0.950 . S
C1494 C1493 1.398 . S
C1494 C1495 1.391 . S
C1495 H1483 0.950 . S
C1495 C1491 1.393 . S
C1495 C1494 1.391 . S
H1496 C1504 0.950 . S
H1497 C1509 0.950 . S
H1498 C1506 0.950 . S
H1499 C1508 0.950 . S
H1500 C1510 0.950 . S
H1501 C1512 0.950 . S
H1502 C1514 0.950 . S
H1503 C1515 0.950 . S
C1504 H1496 0.950 . S
C1504 C1505 1.386 . S
C1504 C1506 1.391 . S
C1505 C1504 1.386 . S
C1505 C1509 1.393 . S
C1506 H1498 0.950 . S
C1506 C1504 1.391 . S
C1506 C1507 1.400 . S
C1507 C1506 1.400 . S
C1507 C1508 1.398 . S
C1507 C1513 1.491 . S
C1508 H1499 0.950 . S
C1508 C1507 1.398 . S
C1508 C1509 1.391 . S
C1509 H1497 0.950 . S
C1509 C1505 1.393 . S
C1509 C1508 1.391 . S
C1510 H1500 0.950 . S
C1510 C1511 1.386 . S
C1510 C1512 1.391 . S
C1511 C1510 1.386 . S
C1511 C1515 1.393 . S
C1512 H1501 0.950 . S
C1512 C1510 1.391 . S
C1512 C1513 1.400 . S
C1513 C1507 1.491 . S
C1513 C1512 1.400 . S
C1513 C1514 1.398 . S
C1514 H1502 0.950 . S
C1514 C1513 1.398 . S
C1514 C1515 1.391 . S
C1515 H1503 0.950 . S
C1515 C1511 1.393 . S
C1515 C1514 1.391 . S
H1516 C1524 0.950 . S
H1517 C1529 0.950 . S
H1518 C1526 0.950 . S
H1519 C1528 0.950 . S
H1520 C1530 0.950 1_565 S
H1521 C1532 0.950 . S
H1522 C1534 0.950 . S
H1523 C1535 0.950 . S
C1524 H1516 0.950 . S
C1524 C1525 1.386 . S
C1524 C1526 1.391 . S
C1525 C1524 1.386 . S
C1525 C1529 1.393 . S
C1526 H1518 0.950 . S
C1526 C1524 1.391 . S
C1526 C1527 1.400 . S
C1527 C1526 1.400 . S
C1527 C1528 1.398 . S
C1527 C1533 1.491 . S
C1528 H1519 0.950 . S
C1528 C1527 1.398 . S
C1528 C1529 1.391 . S
C1529 H1517 0.950 . S
C1529 C1525 1.393 . S
C1529 C1528 1.391 . S
C1530 H1520 0.950 1_545 S
C1530 C1531 1.386 . S
C1530 C1532 1.391 . S
C1531 C1530 1.386 . S
C1531 C1535 1.393 . S
C1532 H1521 0.950 . S
C1532 C1530 1.391 . S
C1532 C1533 1.400 . S
C1533 C1527 1.491 . S
C1533 C1532 1.400 . S
C1533 C1534 1.398 . S
C1534 H1522 0.950 . S
C1534 C1533 1.398 . S
C1534 C1535 1.391 . S
C1535 H1523 0.950 . S
C1535 C1531 1.393 . S
C1535 C1534 1.391 . S
H1536 C1544 0.950 . S
H1537 C1549 0.950 . S
H1538 C1546 0.950 . S
H1539 C1548 0.950 . S
H1540 C1550 0.950 . S
H1541 C1552 0.950 . S
H1542 C1554 0.950 . S
H1543 C1555 0.950 . S
C1544 H1536 0.950 . S
C1544 C1545 1.386 . S
C1544 C1546 1.391 . S
C1545 C1544 1.386 . S
C1545 C1549 1.393 . S
C1546 H1538 0.950 . S
C1546 C1544 1.391 . S
C1546 C1547 1.400 . S
C1547 C1546 1.400 . S
C1547 C1548 1.398 . S
C1547 C1553 1.491 . S
C1548 H1539 0.950 . S
C1548 C1547 1.398 . S
C1548 C1549 1.391 . S
C1549 H1537 0.950 . S
C1549 C1545 1.393 . S
C1549 C1548 1.391 . S
C1550 H1540 0.950 . S
C1550 C1551 1.386 . S
C1550 C1552 1.391 . S
C1551 C1550 1.386 . S
C1551 C1555 1.393 . S
C1552 H1541 0.950 . S
C1552 C1550 1.391 . S
C1552 C1553 1.400 . S
C1553 C1547 1.491 . S
C1553 C1552 1.400 . S
C1553 C1554 1.398 . S
C1554 H1542 0.950 . S
C1554 C1553 1.398 . S
C1554 C1555 1.391 . S
C1555 H1543 0.950 . S
C1555 C1551 1.393 . S
C1555 C1554 1.391 . S
H1556 C1564 0.950 . S
H1557 C1569 0.950 . S
H1558 C1566 0.950 . S
H1559 C1568 0.950 . S
H1560 C1570 0.950 . S
H1561 C1572 0.950 . S
H1562 C1574 0.950 . S
H1563 C1575 0.950 . S
C1564 H1556 0.950 . S
C1564 C1565 1.386 . S
C1564 C1566 1.391 . S
C1565 C1564 1.386 . S
C1565 C1569 1.393 . S
C1566 H1558 0.950 . S
C1566 C1564 1.391 . S
C1566 C1567 1.400 . S
C1567 C1566 1.400 . S
C1567 C1568 1.398 . S
C1567 C1573 1.491 . S
C1568 H1559 0.950 . S
C1568 C1567 1.398 . S
C1568 C1569 1.391 . S
C1569 H1557 0.950 . S
C1569 C1565 1.393 . S
C1569 C1568 1.391 . S
C1570 H1560 0.950 . S
C1570 C1571 1.386 . S
C1570 C1572 1.391 . S
C1571 C1570 1.386 . S
C1571 C1575 1.393 . S
C1572 H1561 0.950 . S
C1572 C1570 1.391 . S
C1572 C1573 1.400 . S
C1573 C1567 1.491 . S
C1573 C1572 1.400 . S
C1573 C1574 1.398 . S
C1574 H1562 0.950 . S
C1574 C1573 1.398 . S
C1574 C1575 1.391 . S
C1575 H1563 0.950 . S
C1575 C1571 1.393 . S
C1575 C1574 1.391 . S
H1576 C1584 0.950 . S
H1577 C1589 0.950 . S
H1578 C1586 0.950 . S
H1579 C1588 0.950 . S
H1580 C1590 0.950 . S
H1581 C1592 0.950 . S
H1582 C1594 0.950 . S
H1583 C1595 0.950 . S
C1584 H1576 0.950 . S
C1584 C1585 1.386 . S
C1584 C1586 1.391 . S
C1585 C1584 1.386 . S
C1585 C1589 1.393 . S
C1586 H1578 0.950 . S
C1586 C1584 1.391 . S
C1586 C1587 1.400 . S
C1587 C1586 1.400 . S
C1587 C1588 1.398 . S
C1587 C1593 1.491 . S
C1588 H1579 0.950 . S
C1588 C1587 1.398 . S
C1588 C1589 1.391 . S
C1589 H1577 0.950 . S
C1589 C1585 1.393 . S
C1589 C1588 1.391 . S
C1590 H1580 0.950 . S
C1590 C1591 1.386 . S
C1590 C1592 1.391 . S
C1591 C1590 1.386 . S
C1591 C1595 1.393 . S
C1592 H1581 0.950 . S
C1592 C1590 1.391 . S
C1592 C1593 1.400 . S
C1593 C1587 1.491 . S
C1593 C1592 1.400 . S
C1593 C1594 1.398 . S
C1594 H1582 0.950 . S
C1594 C1593 1.398 . S
C1594 C1595 1.391 . S
C1595 H1583 0.950 . S
C1595 C1591 1.393 . S
C1595 C1594 1.391 . S
H1596 C1604 0.950 . S
H1597 C1609 0.950 . S
H1598 C1606 0.950 . S
H1599 C1608 0.950 . S
H1600 C1610 0.950 . S
H1601 C1612 0.950 . S
H1602 C1614 0.950 . S
H1603 C1615 0.950 . S
C1604 H1596 0.950 . S
C1604 C1605 1.386 . S
C1604 C1606 1.391 . S
C1605 C1604 1.386 . S
C1605 C1609 1.393 . S
C1606 H1598 0.950 . S
C1606 C1604 1.391 . S
C1606 C1607 1.400 . S
C1607 C1606 1.400 . S
C1607 C1608 1.398 . S
C1607 C1613 1.491 . S
C1608 H1599 0.950 . S
C1608 C1607 1.398 . S
C1608 C1609 1.391 . S
C1609 H1597 0.950 . S
C1609 C1605 1.393 . S
C1609 C1608 1.391 . S
C1610 H1600 0.950 . S
C1610 C1611 1.386 . S
C1610 C1612 1.391 . S
C1611 C1610 1.386 . S
C1611 C1615 1.393 . S
C1612 H1601 0.950 . S
C1612 C1610 1.391 . S
C1612 C1613 1.400 . S
C1613 C1607 1.491 . S
C1613 C1612 1.400 . S
C1613 C1614 1.398 . S
C1614 H1602 0.950 . S
C1614 C1613 1.398 . S
C1614 C1615 1.391 . S
C1615 H1603 0.950 . S
C1615 C1611 1.393 . S
C1615 C1614 1.391 . S
H1616 C1624 0.950 . S
H1617 C1629 0.950 . S
H1618 C1626 0.950 . S
H1619 C1628 0.950 . S
H1620 C1630 0.950 1_565 S
H1621 C1632 0.950 . S
H1622 C1634 0.950 . S
H1623 C1635 0.950 . S
C1624 H1616 0.950 . S
C1624 C1625 1.386 . S
C1624 C1626 1.391 . S
C1625 C1624 1.386 . S
C1625 C1629 1.393 . S
C1626 H1618 0.950 . S
C1626 C1624 1.391 . S
C1626 C1627 1.400 . S
C1627 C1626 1.400 . S
C1627 C1628 1.398 . S
C1627 C1633 1.491 . S
C1628 H1619 0.950 . S
C1628 C1627 1.398 . S
C1628 C1629 1.391 . S
C1629 H1617 0.950 . S
C1629 C1625 1.393 . S
C1629 C1628 1.391 . S
C1630 H1620 0.950 1_545 S
C1630 C1631 1.386 . S
C1630 C1632 1.391 . S
C1631 C1630 1.386 . S
C1631 C1635 1.393 . S
C1632 H1621 0.950 . S
C1632 C1630 1.391 . S
C1632 C1633 1.400 . S
C1633 C1627 1.491 . S
C1633 C1632 1.400 . S
C1633 C1634 1.398 . S
C1634 H1622 0.950 . S
C1634 C1633 1.398 . S
C1634 C1635 1.391 . S
C1635 H1623 0.950 . S
C1635 C1631 1.393 . S
C1635 C1634 1.391 . S
H1636 C1644 0.950 . S
H1637 C1649 0.950 . S
H1638 C1646 0.950 . S
H1639 C1648 0.950 . S
H1640 C1650 0.950 . S
H1641 C1652 0.950 . S
H1642 C1654 0.950 . S
H1643 C1655 0.950 . S
C1644 H1636 0.950 . S
C1644 C1645 1.386 . S
C1644 C1646 1.391 . S
C1645 C1644 1.386 . S
C1645 C1649 1.393 . S
C1646 H1638 0.950 . S
C1646 C1644 1.391 . S
C1646 C1647 1.400 . S
C1647 C1646 1.400 . S
C1647 C1648 1.398 . S
C1647 C1653 1.491 . S
C1648 H1639 0.950 . S
C1648 C1647 1.398 . S
C1648 C1649 1.391 . S
C1649 H1637 0.950 . S
C1649 C1645 1.393 . S
C1649 C1648 1.391 . S
C1650 H1640 0.950 . S
C1650 C1651 1.386 . S
C1650 C1652 1.391 . S
C1651 C1650 1.386 . S
C1651 C1655 1.393 . S
C1652 H1641 0.950 . S
C1652 C1650 1.391 . S
C1652 C1653 1.400 . S
C1653 C1647 1.491 . S
C1653 C1652 1.400 . S
C1653 C1654 1.398 . S
C1654 H1642 0.950 . S
C1654 C1653 1.398 . S
C1654 C1655 1.391 . S
C1655 H1643 0.950 . S
C1655 C1651 1.393 . S
C1655 C1654 1.391 . S
H1656 C1664 0.950 . S
H1657 C1669 0.950 . S
H1658 C1666 0.950 . S
H1659 C1668 0.950 . S
H1660 C1670 0.950 . S
H1661 C1672 0.950 . S
H1662 C1674 0.950 . S
H1663 C1675 0.950 . S
C1664 H1656 0.950 . S
C1664 C1665 1.386 . S
C1664 C1666 1.391 . S
C1665 C1664 1.386 . S
C1665 C1669 1.393 . S
C1666 H1658 0.950 . S
C1666 C1664 1.391 . S
C1666 C1667 1.400 . S
C1667 C1666 1.400 . S
C1667 C1668 1.398 . S
C1667 C1673 1.491 . S
C1668 H1659 0.950 . S
C1668 C1667 1.398 . S
C1668 C1669 1.391 . S
C1669 H1657 0.950 . S
C1669 C1665 1.393 . S
C1669 C1668 1.391 . S
C1670 H1660 0.950 . S
C1670 C1671 1.386 . S
C1670 C1672 1.391 . S
C1671 C1670 1.386 . S
C1671 C1675 1.393 . S
C1672 H1661 0.950 . S
C1672 C1670 1.391 . S
C1672 C1673 1.400 . S
C1673 C1667 1.491 . S
C1673 C1672 1.400 . S
C1673 C1674 1.398 . S
C1674 H1662 0.950 . S
C1674 C1673 1.398 . S
C1674 C1675 1.391 . S
C1675 H1663 0.950 . S
C1675 C1671 1.393 . S
C1675 C1674 1.391 . S
H1676 C1684 0.950 . S
H1677 C1689 0.950 . S
H1678 C1686 0.950 . S
H1679 C1688 0.950 . S
H1680 C1690 0.950 . S
H1681 C1692 0.950 . S
H1682 C1694 0.950 . S
H1683 C1695 0.950 . S
C1684 H1676 0.950 . S
C1684 C1685 1.386 . S
C1684 C1686 1.391 . S
C1685 C1684 1.386 . S
C1685 C1689 1.393 . S
C1686 H1678 0.950 . S
C1686 C1684 1.391 . S
C1686 C1687 1.400 . S
C1687 C1686 1.400 . S
C1687 C1688 1.398 . S
C1687 C1693 1.491 . S
C1688 H1679 0.950 . S
C1688 C1687 1.398 . S
C1688 C1689 1.391 . S
C1689 H1677 0.950 . S
C1689 C1685 1.393 . S
C1689 C1688 1.391 . S
C1690 H1680 0.950 . S
C1690 C1691 1.386 . S
C1690 C1692 1.391 . S
C1691 C1690 1.386 . S
C1691 C1695 1.393 . S
C1692 H1681 0.950 . S
C1692 C1690 1.391 . S
C1692 C1693 1.400 . S
C1693 C1687 1.491 . S
C1693 C1692 1.400 . S
C1693 C1694 1.398 . S
C1694 H1682 0.950 . S
C1694 C1693 1.398 . S
C1694 C1695 1.391 . S
C1695 H1683 0.950 . S
C1695 C1691 1.393 . S
C1695 C1694 1.391 . S
C425 C5 1.468 . S
C431 C16 1.463 . S
C445 C42 1.468 . S
C451 C31 1.463 . S
C465 C57 1.463 . S
C471 C68 1.466 . S
C485 C83 1.474 . S
C491 C94 1.474 . S
C505 C109 1.463 . S
C511 C122 1.468 . S
C525 C133 1.472 . S
C531 C146 1.475 . S
C545 C159 1.463 . S
C551 C172 1.468 . S
C565 C185 1.463 . S
C571 C198 1.469 . S
C585 C226 1.472 . S
C591 C211 1.463 . S
C605 C250 1.475 . S
C611 C239 1.472 . S
C625 C276 1.475 . S
C631 C263 1.473 . S
C645 C304 1.463 . S
C651 C289 1.470 . S
C665 C330 1.474 . S
C671 C315 1.465 . S
C685 C356 1.472 . S
C691 C341 1.475 . S
C705 C382 1.467 . S
C711 C367 1.463 . S
C725 C406 1.471 . S
C731 C393 1.475 . S
C745 C4 1.431 . S
C751 C166 1.431 . S
C765 C23 1.420 . S
C771 C283 1.420 . S
C785 C30 1.433 . S
C791 C82 1.433 . S
C805 C49 1.437 . S
C811 C413 1.437 . S
C825 C56 1.421 . S
C831 C108 1.421 . S
C845 C225 1.420 . S
C851 C75 1.420 . S
C865 C355 1.420 . S
C871 C101 1.420 . S
C885 C121 1.425 . S
C891 C381 1.425 . S
C905 C140 1.424 . S
C911 C192 1.424 . S
C925 C153 1.423 . S
C931 C303 1.423 . S
C945 C179 1.419 . S
C951 C329 1.419 . S
C965 C205 1.433 . S
C971 C257 1.433 . S
C985 C374 1.438 . S
C991 C218 1.438 . S
C1005 C296 1.419 . S
C1011 C238 1.419 . S
C1025 C270 1.419 . S
C1031 C322 1.419 . S
C1045 C400 1.422 . S
C1051 C348 1.422 . S
C1065 C134 0.816 . S
C1071 C10 0.816 . S
C1085 C147 0.807 . S
C1091 C17 0.807 1_565 S
C1105 C36 0.807 1_565 S
C1111 C114 0.807 . S
C1125 C127 0.807 . S
C1131 C43 0.807 . S
C1145 C62 0.810 . S
C1151 C186 0.807 . S
C1165 C69 0.816 1_545 S
C1171 C199 0.816 . S
C1185 C160 0.814 . S
C1191 C88 0.810 1_545 S
C1205 C173 0.806 . S
C1211 C95 0.809 . S
C1225 C212 0.816 . S
C1231 C342 0.814 . S
C1245 C361 0.814 . S
C1251 C231 0.816 1_565 S
C1265 C316 0.816 . S
C1271 C244 0.815 1_565 S
C1285 C251 0.808 . S
C1291 C335 0.807 . S
C1305 C394 0.812 . S
C1311 C264 0.815 . S
C1325 C277 0.808 1_545 S
C1331 C407 0.807 . S
C1345 C368 0.811 . S
C1351 C290 0.807 1_545 S
C1365 C387 0.807 . S
C1371 C309 0.808 . S
C1385 C135 1.744 . S
C1391 C3 1.749 1_565 S
C1405 C148 1.745 . S
C1411 C18 1.746 . S
C1425 C107 1.750 . S
C1431 C29 1.746 . S
C1445 C44 1.749 1_565 S
C1451 C120 1.744 . S
C1465 C187 1.750 . S
C1471 C55 1.745 1_545 S
C1485 C200 1.745 . S
C1491 C70 1.746 . S
C1505 C161 1.745 . S
C1511 C81 1.746 . S
C1525 C174 1.746 . S
C1531 C96 1.750 1_545 S
C1545 C343 1.747 . S
C1551 C213 1.745 1_565 S
C1565 C354 1.744 . S
C1571 C224 1.749 . S
C1585 C317 1.745 . S
C1591 C237 1.747 . S
C1605 C252 1.746 1_565 S
C1611 C328 1.745 . S
C1625 C395 1.746 . S
C1631 C265 1.750 1_545 S
C1645 C278 1.750 . S
C1651 C408 1.746 . S
C1665 C369 1.745 . S
C1671 C291 1.750 . S
C1685 C302 1.745 1_545 S
C1691 C380 1.746 . S
