# Generated by pormake.
# Topology kag, (6)-cn, num edge types: 1
# Building blocks:
#     Node 0, Type 0, BuildingBlock: INOVEN_clean_sbu_0, # of connection points: 6
#     Node 1, Type 0, BuildingBlock: INOVEN_clean_sbu_0, # of connection points: 6
#     Node 2, Type 0, BuildingBlock: INOVEN_clean_sbu_0, # of connection points: 6
#     Edge 3, Type (0, 0), BuildingBlock: KIFKEQ_clean_linker_1, # of connection points: 2
#     Edge 4, Type (0, 0), BuildingBlock: KIFKEQ_clean_linker_1, # of connection points: 2
#     Edge 5, Type (0, 0), BuildingBlock: KIFKEQ_clean_linker_1, # of connection points: 2
#     Edge 6, Type (0, 0), BuildingBlock: KIFKEQ_clean_linker_1, # of connection points: 2
#     Edge 7, Type (0, 0), BuildingBlock: KIFKEQ_clean_linker_1, # of connection points: 2
#     Edge 8, Type (0, 0), BuildingBlock: KIFKEQ_clean_linker_1, # of connection points: 2
#     Edge 9, Type (0, 0), BuildingBlock: KIFKEQ_clean_linker_1, # of connection points: 2
#     Edge 10, Type (0, 0), BuildingBlock: KIFKEQ_clean_linker_1, # of connection points: 2
#     Edge 11, Type (0, 0), BuildingBlock: KIFKEQ_clean_linker_1, # of connection points: 2
# Relax obj value: 0.072
# Max RMSD: 0.198
# Mean RMSD: 0.105
data_MOF--net-kag--node1-INOVEN_clean_sbu_0--edge1-KIFKEQ_clean_linker_1
_symmetry_space_group_name_H-M    P1
_symmetry_Int_Tables_number       1
_symmetry_cell_setting            triclinic
loop_
_symmetry_equiv_pos_as_xyz
'x, y, z'
_cell_length_a     31.684406
_cell_length_b     42.575406
_cell_length_c     14.770325
_cell_angle_alpha  97.218182
_cell_angle_beta   91.978179
_cell_angle_gamma 96.70356
loop_
_atom_site_label
_atom_site_type_symbol
_atom_site_fract_x
_atom_site_fract_y
_atom_site_fract_z
_atom_type_partial_charge
Gd0 Gd 1.0593 0.47891 0.01635 0.0
Gd1 Gd 0.06657 0.54831 1.00393 0.0
C2 C 0.97295 0.51302 0.99982 0.0
C3 C 1.04145 0.42164 0.05761 0.0
C4 C 1.00677 0.39497 0.04416 0.0
C5 C 0.98488 0.38532 0.95902 0.0
C6 C 0.99639 0.37816 0.11766 0.0
C7 C 0.94385 0.34146 0.02064 0.0
C8 C 0.96524 0.35172 0.10617 0.0
C9 C 0.95379 0.35872 0.94732 0.0
C10 C 0.06479 0.49392 0.84328 0.0
C11 C 0.15285 0.51427 0.02212 0.0
C12 C 0.08405 0.60516 0.95935 0.0
C13 C 0.1186 0.63182 0.97087 0.0
C14 C 0.14606 0.63814 0.0494 0.0
C15 C 0.12331 0.65188 0.90273 0.0
C16 C 0.18154 0.68524 0.99267 0.0
C17 C 0.15447 0.6783 0.91337 0.0
C18 C 0.17719 0.66472 0.06036 0.0
C19 C 0.0612 0.5337 0.17759 0.0
O20 O 0.99081 0.48934 0.02916 0.0
O21 O 0.9964 0.53714 0.97104 0.0
O22 O 0.0621 0.42818 0.98581 0.0
O23 O 1.03428 0.44716 0.11107 0.0
O24 O 0.08307 0.47135 0.87345 0.0
O25 O 1.04301 0.50654 0.90445 0.0
O26 O 0.13505 0.53778 0.99162 0.0
O27 O 0.12931 0.4903 0.05148 0.0
O28 O 0.06409 0.59912 0.03242 0.0
O29 O 0.09111 0.57936 0.90703 0.0
O30 O 1.04436 0.55698 0.1478 0.0
O31 O 0.0825 0.52063 0.11619 0.0
H32 H 0.9921 0.39806 0.90135 0.0
H33 H 1.01295 0.38519 0.18383 0.0
H34 H 0.95878 0.33877 0.16376 0.0
H35 H 0.93754 0.35166 0.88088 0.0
H36 H 0.14313 0.62277 0.10257 0.0
H37 H 0.10237 0.64738 0.84172 0.0
H38 H 0.15656 0.69381 0.86049 0.0
H39 H 0.19786 0.66922 0.12173 0.0
Gd40 Gd 0.60822 0.0182 0.99885 0.0
Gd41 Gd 0.51478 1.00923 0.02105 0.0
C42 C 0.55613 0.08048 0.03256 0.0
C43 C 0.68431 0.03778 0.95523 0.0
C44 C 0.70937 0.0693 0.95531 0.0
C45 C 0.74961 0.0756 1.00091 0.0
C46 C 0.69319 0.09358 0.91333 0.0
C47 C 0.75693 0.13013 0.96426 0.0
C48 C 0.71681 0.12367 0.91755 0.0
C49 C 0.77312 0.10571 1.00556 0.0
C50 C 0.58569 1.01153 0.17095 0.0
C51 C 0.56678 0.94687 0.98451 0.0
C52 C 0.43949 0.98991 0.06972 0.0
C53 C 0.41435 0.95846 0.06969 0.0
C54 C 0.37217 0.95347 0.0341 0.0
C55 C 0.43236 0.93295 0.10126 0.0
C56 C 0.36661 0.89764 0.05893 0.0
C57 C 0.40872 0.90284 0.09595 0.0
C58 C 0.34851 0.92338 0.02874 0.0
C59 C 0.53647 0.01583 0.84826 0.0
O60 O 0.58974 0.06817 0.99935 0.0
O61 O 0.52341 0.06218 0.05829 0.0
O62 O 0.67569 0.02955 0.0355 0.0
O63 O 0.65204 0.03027 0.89567 0.0
O64 O 0.6167 0.99856 0.13235 0.0
O65 O 0.56874 0.028 0.11779 0.0
O66 O 0.53306 0.95914 0.01735 0.0
O67 O 0.59983 0.96524 0.96036 0.0
O68 O 0.44682 0.99859 0.98935 0.0
O69 O 0.47274 0.99676 0.12691 0.0
O70 O 0.50458 0.02767 0.88667 0.0
O71 O 0.55423 0.99975 0.90148 0.0
H72 H 0.76273 0.05726 0.03372 0.0
H73 H 0.66208 0.08951 0.87819 0.0
H74 H 0.70328 0.14207 0.8859 0.0
H75 H 0.80414 0.10983 0.0411 0.0
H76 H 0.35763 0.97281 1.0095 0.0
H77 H 0.46492 0.93609 0.1288 0.0
H78 H 0.42378 0.88347 0.11885 0.0
H79 H 0.31597 0.92031 1.00111 0.0
Gd80 Gd 0.56972 0.54916 0.01443 0.0
Gd81 Gd 0.55549 0.47838 1.00777 0.0
C82 C 0.47319 0.51337 0.01986 0.0
C83 C 0.57043 0.6086 0.99508 0.0
C84 C 0.57107 0.64305 0.98781 0.0
C85 C 0.57632 0.66536 0.06718 0.0
C86 C 0.56614 0.65403 0.90269 0.0
C87 C 0.57073 0.70899 0.97706 0.0
C88 C 0.56604 0.68669 0.89734 0.0
C89 C 0.57618 0.69787 0.06189 0.0
C90 C 0.57734 0.52848 0.17889 0.0
C91 C 0.65275 0.51434 1.00389 0.0
C92 C 0.55437 0.41897 0.02766 0.0
C93 C 0.55304 0.38458 0.0364 0.0
C94 C 0.53365 0.36157 0.96612 0.0
C95 C 0.57165 0.37434 0.11353 0.0
C96 C 0.55188 0.31866 0.04917 0.0
C97 C 0.57116 0.34171 0.11977 0.0
C98 C 0.53304 0.32905 0.97244 0.0
C99 C 0.54946 0.49957 0.84322 0.0
O100 O 0.4977 0.53807 0.99603 0.0
O101 O 0.48972 0.48823 0.04256 0.0
O102 O 0.57384 0.59838 0.07444 0.0
O103 O 0.56644 0.58623 0.9247 0.0
O104 O 0.60188 0.5519 0.15316 0.0
O105 O 0.54905 0.51734 0.11722 0.0
O106 O 0.6278 0.48855 0.01951 0.0
O107 O 0.63687 0.54062 0.98864 0.0
O108 O 0.53969 0.42866 0.95359 0.0
O109 O 0.56973 0.44182 0.09221 0.0
O110 O 0.52425 0.47624 0.86737 0.0
O111 O 0.57722 0.51006 0.90614 0.0
H112 H 0.58046 0.65774 0.13385 0.0
H113 H 0.56202 0.6374 0.84034 0.0
H114 H 0.56144 0.69441 0.83096 0.0
H115 H 0.58064 0.71436 0.12451 0.0
H116 H 0.51913 0.36866 0.9056 0.0
H117 H 0.58681 0.39152 0.16882 0.0
H118 H 0.58561 0.33454 0.18022 0.0
H119 H 0.51848 0.31202 0.91618 0.0
H120 H 1.01006 0.52663 0.75513 0.0
H121 H 0.11927 0.4759 0.71332 0.0
H122 H 1.00823 0.5352 0.59498 0.0
H123 H 0.11948 0.486 0.55466 0.0
H124 H 0.08887 0.48319 0.25084 0.0
H125 H 0.08855 0.47321 0.40991 0.0
H126 H 1.03767 0.5624 0.48384 0.0
H127 H 1.03548 0.57096 0.32416 0.0
C128 C 1.03403 0.51765 0.71175 0.0
C129 C 0.06468 0.50047 0.74676 0.0
C130 C 1.03328 0.52275 0.61963 0.0
C131 C 0.06372 0.51136 0.56021 0.0
C132 C 0.09481 0.4946 0.59652 0.0
C133 C 0.09501 0.48901 0.68812 0.0
C134 C 0.07737 0.50049 0.30124 0.0
C135 C 0.06201 0.52776 0.27473 0.0
C136 C 0.07755 0.49499 0.39307 0.0
C137 C 0.06313 0.51696 0.46141 0.0
C138 C 1.04819 0.54443 0.43414 0.0
C139 C 1.04727 0.54957 0.3422 0.0
H140 H 0.54305 0.05303 0.27872 0.0
H141 H 0.60888 0.97015 0.28432 0.0
H142 H 0.53268 0.05489 0.44191 0.0
H143 H 0.59633 0.97047 0.44618 0.0
H144 H 0.60315 0.99457 0.75477 0.0
H145 H 0.61535 0.99433 0.59254 0.0
H146 H 0.49667 0.03323 0.55537 0.0
H147 H 0.48648 0.03547 0.71817 0.0
C148 C 0.55475 0.0349 0.31482 0.0
C149 C 0.57692 1.01154 0.26891 0.0
C150 C 0.54859 0.03577 0.40863 0.0
C151 C 0.56365 1.01284 0.45875 0.0
C152 C 0.58507 0.98905 0.41151 0.0
C153 C 0.59195 0.98862 0.31816 0.0
C154 C 0.58001 1.00337 0.71183 0.0
C155 C 0.54407 0.01527 0.74947 0.0
C156 C 0.58665 1.0029 0.61823 0.0
C157 C 0.55703 0.01372 0.55934 0.0
C158 C 0.52085 0.02533 0.59771 0.0
C159 C 0.51472 0.02638 0.69143 0.0
H160 H 0.48897 0.48411 0.70491 0.0
H161 H 0.6183 0.52784 0.76571 0.0
H162 H 0.49575 0.49113 0.54454 0.0
H163 H 0.62633 0.53319 0.60488 0.0
H164 H 0.61645 0.56628 0.32675 0.0
H165 H 0.60857 0.56056 0.48683 0.0
H166 H 0.52575 0.47226 0.40975 0.0
H167 H 0.53177 0.47934 0.24891 0.0
C168 C 0.51891 0.49515 0.6836 0.0
C169 C 0.55305 0.50552 0.74744 0.0
C170 C 0.52304 0.49886 0.59148 0.0
C171 C 0.56173 0.51253 0.56081 0.0
C172 C 0.59578 0.52307 0.62554 0.0
C173 C 0.59133 0.5199 0.7179 0.0
C174 C 0.59665 0.54559 0.34407 0.0
C175 C 0.57464 0.52326 0.27551 0.0
C176 C 0.59231 0.54216 0.43614 0.0
C177 C 0.5665 0.51591 0.46212 0.0
C178 C 0.54521 0.49315 0.3929 0.0
C179 C 0.54895 0.49696 0.30059 0.0
H180 H 0.21056 0.5522 0.93725 0.0
H181 H 0.20177 0.47815 0.11279 0.0
H182 H 0.28738 0.55204 0.93649 0.0
H183 H 0.27871 0.4789 0.11567 0.0
H184 H 0.41147 0.46336 0.02802 0.0
H185 H 0.33483 0.46401 0.0284 0.0
H186 H 0.35228 0.56587 0.02069 0.0
H187 H 0.42891 0.56484 0.01611 0.0
C188 C 0.22509 0.53612 0.97658 0.0
C189 C 0.19991 0.5151 0.02477 0.0
C190 C 0.26932 0.53614 0.97666 0.0
C191 C 0.28969 0.51541 0.02587 0.0
C192 C 0.26437 0.49477 0.0753 0.0
C193 C 0.22012 0.49447 0.07425 0.0
C194 C 0.39896 0.48591 0.02646 0.0
C195 C 0.42642 0.51404 0.02196 0.0
C196 C 0.35486 0.48635 0.02731 0.0
C197 C 0.33692 0.51502 0.0249 0.0
C198 C 0.36457 0.54321 0.02103 0.0
C199 C 0.40868 0.54268 0.019 0.0
H200 H 0.76993 0.16818 0.82888 0.0
H201 H 0.79982 0.16476 0.11469 0.0
H202 H 0.81171 0.22068 0.83982 0.0
H203 H 0.84235 0.21674 0.12513 0.0
H204 H 0.88251 0.32298 0.13585 0.0
H205 H 0.83489 0.27305 0.12028 0.0
H206 H 0.88686 0.24363 0.86102 0.0
H207 H 0.93452 0.29354 0.87662 0.0
C208 C 0.78526 0.17871 0.8941 0.0
C209 C 0.7817 0.16228 0.97085 0.0
C210 C 0.80948 0.20864 0.90018 0.0
C211 C 0.83038 0.2229 0.98333 0.0
C212 C 0.82631 0.20661 0.06029 0.0
C213 C 0.80234 0.17665 0.05408 0.0
C214 C 0.88379 0.30584 0.07554 0.0
C215 C 0.91251 0.31218 1.00775 0.0
C216 C 0.85651 0.27723 0.06664 0.0
C217 C 0.85727 0.25425 0.98971 0.0
C218 C 0.88512 0.26097 0.92064 0.0
C219 C 0.91243 0.2896 0.92956 0.0
H220 H 0.50082 0.9017 1.00737 0.0
H221 H 0.63304 0.91231 0.94117 0.0
H222 H 0.50122 0.84444 1.00008 0.0
H223 H 0.63359 0.85471 0.93503 0.0
H224 H 0.60735 0.74588 0.8538 0.0
H225 H 0.60574 0.80297 0.84947 0.0
H226 H 0.53071 0.80766 0.08842 0.0
H227 H 0.531 0.75069 0.0907 0.0
C228 C 0.53009 0.89187 0.9916 0.0
C229 C 0.56701 0.91175 0.97577 0.0
C230 C 0.53033 0.85894 0.98764 0.0
C231 C 0.56754 0.84491 0.96778 0.0
C232 C 0.60428 0.86467 0.9498 0.0
C233 C 0.60402 0.89773 0.95374 0.0
C234 C 0.59012 0.75906 0.90473 0.0
C235 C 0.5694 0.74366 0.97273 0.0
C236 C 0.5896 0.79186 0.90286 0.0
C237 C 0.56811 0.80997 0.9686 0.0
C238 C 0.54716 0.79446 0.03605 0.0
C239 C 0.54776 0.76179 0.03802 0.0
H240 H 0.92419 0.55072 0.91486 0.0
H241 H 0.91504 0.47356 0.0798 0.0
H242 H 0.84729 0.55009 0.9128 0.0
H243 H 0.83818 0.47372 0.08103 0.0
H244 H 0.69664 0.46231 0.99867 0.0
H245 H 0.77328 0.46122 0.9941 0.0
H246 H 0.79152 0.56385 1.00419 0.0
H247 H 0.71494 0.5647 1.00501 0.0
C248 C 0.90578 0.53372 0.95122 0.0
C249 C 0.92589 0.51222 0.99758 0.0
C250 C 0.86155 0.53349 0.95061 0.0
C251 C 0.83615 0.51199 0.99723 0.0
C252 C 0.85637 0.49034 0.04318 0.0
C253 C 0.90061 0.49036 0.04297 0.0
C254 C 0.71702 0.48464 0.99974 0.0
C255 C 0.69952 0.51358 1.00191 0.0
C256 C 0.76113 0.48406 0.99769 0.0
C257 C 0.78898 0.51244 0.99869 0.0
C258 C 0.7713 0.54139 1.00147 0.0
C259 C 0.72723 0.54193 1.00255 0.0
H260 H 0.20048 0.72787 0.14763 0.0
H261 H 0.23351 0.7088 0.86645 0.0
H262 H 0.24757 0.77808 0.16479 0.0
H263 H 0.28068 0.75892 0.88362 0.0
H264 H 0.31462 0.86752 0.91476 0.0
H265 H 0.27265 0.81533 0.90127 0.0
H266 H 0.32172 0.80189 0.16841 0.0
H267 H 0.36269 0.85473 0.18324 0.0
C268 C 0.21834 0.73413 0.08993 0.0
C269 C 0.21299 0.71444 1.00548 0.0
C270 C 0.24533 0.76293 0.09975 0.0
C271 C 0.26763 0.77268 0.02534 0.0
C272 C 0.26331 0.75246 0.94177 0.0
C273 C 0.23632 0.72371 0.93195 0.0
C274 C 0.31621 0.85356 0.97098 0.0
C275 C 0.34183 0.8654 0.0503 0.0
C276 C 0.29257 0.82344 0.96275 0.0
C277 C 0.29389 0.80435 0.03365 0.0
C278 C 0.31971 0.81609 0.11284 0.0
C279 C 0.34349 0.84624 0.12098 0.0
H280 H 0.61694 0.28805 0.10923 0.0
H281 H 0.4869 0.27048 1.00004 0.0
H282 H 0.61773 0.2309 0.11167 0.0
H283 H 0.48816 0.21334 0.9995 0.0
H284 H 0.49169 0.11489 0.08948 0.0
H285 H 0.49064 0.17245 0.09999 0.0
H286 H 0.61795 0.183 1.00307 0.0
H287 H 0.61935 0.12569 0.99419 0.0
C288 C 0.58842 0.27204 0.08634 0.0
C289 C 0.5519 0.2839 0.05423 0.0
C290 C 0.58903 0.23922 0.08675 0.0
C291 C 0.55307 0.21745 0.0554 0.0
C292 C 0.5163 0.22939 0.02489 0.0
C293 C 0.51574 0.26217 0.02424 0.0
C294 C 0.51953 0.12949 0.07074 0.0
C295 C 0.55555 0.11556 0.04075 0.0
C296 C 0.51883 0.1625 0.0763 0.0
C297 C 0.55419 0.18242 0.05227 0.0
C298 C 0.59036 0.16849 0.02324 0.0
C299 C 0.59102 0.13551 0.01749 0.0
loop_
_geom_bond_atom_site_label_1
_geom_bond_atom_site_label_2
_geom_bond_distance
_geom_bond_site_symmetry_2
_ccdc_geom_bond_type
Gd0 C3 2.818 . S
Gd0 O20 2.377 . S
Gd0 O22 2.448 . S
Gd0 O23 2.506 1_556 S
Gd0 O24 2.435 . S
Gd0 O25 2.717 1_655 S
Gd0 O27 2.395 1_655 S
Gd0 O31 2.327 1_556 S
Gd1 C12 2.818 . S
Gd1 O21 2.395 1_455 S
Gd1 O25 2.327 1_554 S
Gd1 O26 2.377 . S
Gd1 O28 2.448 . S
Gd1 O29 2.506 1_554 S
Gd1 O30 2.435 . S
Gd1 O31 2.717 1_455 S
C2 O20 1.242 . S
C2 O21 1.239 1_556 S
C3 Gd0 2.818 . S
C3 C4 1.510 . S
C3 O22 1.249 . S
C3 O23 1.252 1_556 S
C4 C3 1.510 . S
C4 C5 1.404 . S
C4 C6 1.352 1_556 S
C5 C4 1.404 . S
C5 C9 1.389 . S
C5 H32 0.930 . S
C6 C4 1.352 1_554 S
C6 C8 1.374 . S
C6 H33 0.931 . S
C7 C8 1.355 1_556 S
C7 C9 1.368 . S
C8 C6 1.374 . S
C8 C7 1.355 1_554 S
C8 H34 0.931 . S
C9 C5 1.389 . S
C9 C7 1.368 . S
C9 H35 0.931 . S
C10 O24 1.256 1_455 S
C10 O25 1.257 . S
C11 O26 1.245 . S
C11 O27 1.238 1_554 S
C12 Gd1 2.818 . S
C12 C13 1.510 . S
C12 O28 1.249 . S
C12 O29 1.252 1_554 S
C13 C12 1.510 . S
C13 C14 1.404 . S
C13 C15 1.352 1_554 S
C14 C13 1.404 . S
C14 C18 1.389 . S
C14 H36 0.930 . S
C15 C13 1.352 1_556 S
C15 C17 1.374 . S
C15 H37 0.931 . S
C16 C17 1.350 1_554 S
C16 C18 1.375 . S
C17 C15 1.374 . S
C17 C16 1.350 1_556 S
C17 H38 0.931 . S
C18 C14 1.389 . S
C18 C16 1.375 . S
C18 H39 0.931 . S
C19 O30 1.256 . S
C19 O31 1.257 1_455 S
O20 Gd0 2.377 . S
O20 C2 1.242 . S
O21 Gd1 2.395 1_655 S
O21 C2 1.239 1_554 S
O22 Gd0 2.448 . S
O22 C3 1.249 . S
O23 Gd0 2.506 1_554 S
O23 C3 1.252 1_554 S
O24 Gd0 2.435 . S
O24 C10 1.256 1_655 S
O25 Gd0 2.717 1_455 S
O25 Gd1 2.327 1_556 S
O25 C10 1.257 . S
O26 Gd1 2.377 . S
O26 C11 1.245 . S
O27 Gd0 2.395 1_455 S
O27 C11 1.238 1_556 S
O28 Gd1 2.448 . S
O28 C12 1.249 . S
O29 Gd1 2.506 1_556 S
O29 C12 1.252 1_556 S
O30 Gd1 2.435 . S
O30 C19 1.256 . S
O31 Gd0 2.327 1_554 S
O31 Gd1 2.717 1_655 S
O31 C19 1.257 1_655 S
H32 C5 0.930 . S
H33 C6 0.931 . S
H34 C8 0.931 . S
H35 C9 0.931 . S
H36 C14 0.930 . S
H37 C15 0.931 . S
H38 C17 0.931 . S
H39 C18 0.931 . S
Gd40 C43 2.818 . S
Gd40 O60 2.377 . S
Gd40 O62 2.448 . S
Gd40 O63 2.506 1_554 S
Gd40 O64 2.435 . S
Gd40 O65 2.717 1_545 S
Gd40 O67 2.395 1_545 S
Gd40 O71 2.327 1_554 S
Gd41 C52 2.818 . S
Gd41 O61 2.395 1_565 S
Gd41 O65 2.327 1_556 S
Gd41 O66 2.377 . S
Gd41 O68 2.448 . S
Gd41 O69 2.506 1_556 S
Gd41 O70 2.435 . S
Gd41 O71 2.717 1_565 S
C42 O60 1.240 . S
C42 O61 1.240 1_554 S
C43 Gd40 2.818 . S
C43 C44 1.510 1_554 S
C43 O62 1.249 . S
C43 O63 1.252 1_554 S
C44 C43 1.510 1_556 S
C44 C45 1.404 1_556 S
C44 C46 1.352 . S
C45 C44 1.404 1_554 S
C45 C49 1.389 . S
C45 H72 0.930 . S
C46 C44 1.352 . S
C46 C48 1.374 . S
C46 H73 0.931 . S
C47 C48 1.359 . S
C47 C49 1.364 1_556 S
C48 C46 1.374 . S
C48 C47 1.359 . S
C48 H74 0.931 . S
C49 C45 1.389 . S
C49 C47 1.364 1_554 S
C49 H75 0.931 . S
C50 O64 1.256 . S
C50 O65 1.257 1_545 S
C51 O66 1.240 . S
C51 O67 1.240 1_556 S
C52 Gd41 2.818 . S
C52 C53 1.510 1_556 S
C52 O68 1.249 . S
C52 O69 1.252 1_556 S
C53 C52 1.510 1_554 S
C53 C54 1.404 1_554 S
C53 C55 1.352 . S
C54 C53 1.404 1_556 S
C54 C58 1.389 . S
C54 H76 0.930 . S
C55 C53 1.352 . S
C55 C57 1.374 . S
C55 H77 0.931 . S
C56 C57 1.359 . S
C56 C58 1.364 1_554 S
C57 C55 1.374 . S
C57 C56 1.359 . S
C57 H78 0.931 . S
C58 C54 1.389 . S
C58 C56 1.364 1_556 S
C58 H79 0.931 . S
C59 O70 1.256 . S
C59 O71 1.257 1_565 S
O60 Gd40 2.377 . S
O60 C42 1.240 . S
O61 Gd41 2.395 1_545 S
O61 C42 1.240 1_556 S
O62 Gd40 2.448 . S
O62 C43 1.249 . S
O63 Gd40 2.506 1_556 S
O63 C43 1.252 1_556 S
O64 Gd40 2.435 . S
O64 C50 1.256 . S
O65 Gd40 2.717 1_565 S
O65 Gd41 2.327 1_554 S
O65 C50 1.257 1_565 S
O66 Gd41 2.377 . S
O66 C51 1.240 . S
O67 Gd40 2.395 1_565 S
O67 C51 1.240 1_554 S
O68 Gd41 2.448 . S
O68 C52 1.249 . S
O69 Gd41 2.506 1_554 S
O69 C52 1.252 1_554 S
O70 Gd41 2.435 . S
O70 C59 1.256 . S
O71 Gd40 2.327 1_556 S
O71 Gd41 2.717 1_545 S
O71 C59 1.257 1_545 S
H72 C45 0.930 . S
H73 C46 0.931 . S
H74 C48 0.931 . S
H75 C49 0.931 . S
H76 C54 0.930 . S
H77 C55 0.931 . S
H78 C57 0.931 . S
H79 C58 0.931 . S
Gd80 C83 2.818 . S
Gd80 O100 2.377 . S
Gd80 O102 2.448 . S
Gd80 O103 2.506 1_554 S
Gd80 O104 2.435 . S
Gd80 O105 2.717 . S
Gd80 O107 2.395 . S
Gd80 O111 2.327 1_554 S
Gd81 C92 2.818 . S
Gd81 O101 2.395 . S
Gd81 O105 2.327 1_556 S
Gd81 O106 2.377 . S
Gd81 O108 2.448 . S
Gd81 O109 2.506 1_556 S
Gd81 O110 2.435 . S
Gd81 O111 2.717 . S
C82 O100 1.239 1_556 S
C82 O101 1.241 . S
C83 Gd80 2.818 . S
C83 C84 1.510 . S
C83 O102 1.249 . S
C83 O103 1.252 1_554 S
C84 C83 1.510 . S
C84 C85 1.404 . S
C84 C86 1.352 1_554 S
C85 C84 1.404 . S
C85 C89 1.389 . S
C85 H112 0.930 . S
C86 C84 1.352 1_556 S
C86 C88 1.374 . S
C86 H113 0.931 . S
C87 C88 1.359 . S
C87 C89 1.364 1_556 S
C88 C86 1.374 . S
C88 C87 1.359 . S
C88 H114 0.931 . S
C89 C85 1.389 . S
C89 C87 1.364 1_554 S
C89 H115 0.931 . S
C90 O104 1.256 . S
C90 O105 1.257 . S
C91 O106 1.236 1_554 S
C91 O107 1.242 . S
C92 Gd81 2.818 . S
C92 C93 1.510 . S
C92 O108 1.249 . S
C92 O109 1.252 1_556 S
C93 C92 1.510 . S
C93 C94 1.404 . S
C93 C95 1.352 1_556 S
C94 C93 1.404 . S
C94 C98 1.389 . S
C94 H116 0.930 . S
C95 C93 1.352 1_554 S
C95 C97 1.374 . S
C95 H117 0.931 . S
C96 C97 1.359 . S
C96 C98 1.364 1_554 S
C97 C95 1.374 . S
C97 C96 1.359 . S
C97 H118 0.931 . S
C98 C94 1.389 . S
C98 C96 1.364 1_556 S
C98 H119 0.931 . S
C99 O110 1.256 . S
C99 O111 1.257 . S
O100 Gd80 2.377 . S
O100 C82 1.239 1_554 S
O101 Gd81 2.395 . S
O101 C82 1.241 . S
O102 Gd80 2.448 . S
O102 C83 1.249 . S
O103 Gd80 2.506 1_556 S
O103 C83 1.252 1_556 S
O104 Gd80 2.435 . S
O104 C90 1.256 . S
O105 Gd80 2.717 . S
O105 Gd81 2.327 1_554 S
O105 C90 1.257 . S
O106 Gd81 2.377 . S
O106 C91 1.236 1_556 S
O107 Gd80 2.395 . S
O107 C91 1.242 . S
O108 Gd81 2.448 . S
O108 C92 1.249 . S
O109 Gd81 2.506 1_554 S
O109 C92 1.252 1_554 S
O110 Gd81 2.435 . S
O110 C99 1.256 . S
O111 Gd80 2.327 1_556 S
O111 Gd81 2.717 . S
O111 C99 1.257 . S
H112 C85 0.930 . S
H113 C86 0.931 . S
H114 C88 0.931 . S
H115 C89 0.931 . S
H116 C94 0.930 . S
H117 C95 0.931 . S
H118 C97 0.931 . S
H119 C98 0.931 . S
H120 C128 0.950 . S
H121 C133 0.950 . S
H122 C130 0.950 . S
H123 C132 0.950 . S
H124 C134 0.950 . S
H125 C136 0.950 . S
H126 C138 0.950 . S
H127 C139 0.950 . S
C128 H120 0.950 . S
C128 C129 1.386 1_655 S
C128 C130 1.391 . S
C129 C128 1.386 1_455 S
C129 C133 1.393 . S
C130 H122 0.950 . S
C130 C128 1.391 . S
C130 C131 1.400 1_655 S
C131 C130 1.400 1_455 S
C131 C132 1.398 . S
C131 C137 1.491 . S
C132 H123 0.950 . S
C132 C131 1.398 . S
C132 C133 1.391 . S
C133 H121 0.950 . S
C133 C129 1.393 . S
C133 C132 1.391 . S
C134 H124 0.950 . S
C134 C135 1.386 1_455 S
C134 C136 1.391 . S
C135 C134 1.386 1_655 S
C135 C139 1.393 . S
C136 H125 0.950 . S
C136 C134 1.391 . S
C136 C137 1.406 . S
C137 C131 1.491 . S
C137 C136 1.406 . S
C137 C138 1.392 1_455 S
C138 H126 0.950 . S
C138 C137 1.392 1_655 S
C138 C139 1.391 . S
C139 H127 0.950 . S
C139 C135 1.393 . S
C139 C138 1.391 . S
H140 C148 0.950 . S
H141 C153 0.950 . S
H142 C150 0.950 . S
H143 C152 0.950 . S
H144 C154 0.950 . S
H145 C156 0.950 . S
H146 C158 0.950 . S
H147 C159 0.950 . S
C148 H140 0.950 . S
C148 C149 1.404 . S
C148 C150 1.391 . S
C149 C148 1.404 . S
C149 C153 1.372 1_545 S
C150 H142 0.950 . S
C150 C148 1.391 . S
C150 C151 1.408 . S
C151 C150 1.408 . S
C151 C152 1.392 1_545 S
C151 C157 1.490 . S
C152 H143 0.950 . S
C152 C151 1.392 1_565 S
C152 C153 1.391 . S
C153 H141 0.950 . S
C153 C149 1.372 1_565 S
C153 C152 1.391 . S
C154 H144 0.950 . S
C154 C155 1.387 . S
C154 C156 1.391 . S
C155 C154 1.387 . S
C155 C159 1.392 1_565 S
C156 H145 0.950 . S
C156 C154 1.391 . S
C156 C157 1.396 1_565 S
C157 C151 1.490 . S
C157 C156 1.396 1_545 S
C157 C158 1.402 . S
C158 H146 0.950 . S
C158 C157 1.402 . S
C158 C159 1.391 . S
C159 H147 0.950 . S
C159 C155 1.392 1_545 S
C159 C158 1.391 . S
H160 C168 0.950 . S
H161 C173 0.950 . S
H162 C170 0.950 . S
H163 C172 0.950 . S
H164 C174 0.950 . S
H165 C176 0.950 . S
H166 C178 0.950 . S
H167 C179 0.950 . S
C168 H160 0.950 . S
C168 C169 1.386 . S
C168 C170 1.391 . S
C169 C168 1.386 . S
C169 C173 1.393 . S
C170 H162 0.950 . S
C170 C168 1.391 . S
C170 C171 1.400 . S
C171 C170 1.400 . S
C171 C172 1.398 . S
C171 C177 1.491 . S
C172 H163 0.950 . S
C172 C171 1.398 . S
C172 C173 1.391 . S
C173 H161 0.950 . S
C173 C169 1.393 . S
C173 C172 1.391 . S
C174 H164 0.950 . S
C174 C175 1.386 . S
C174 C176 1.391 . S
C175 C174 1.386 . S
C175 C179 1.393 . S
C176 H165 0.950 . S
C176 C174 1.391 . S
C176 C177 1.400 . S
C177 C171 1.491 . S
C177 C176 1.400 . S
C177 C178 1.398 . S
C178 H166 0.950 . S
C178 C177 1.398 . S
C178 C179 1.391 . S
C179 H167 0.950 . S
C179 C175 1.393 . S
C179 C178 1.391 . S
H180 C188 0.950 . S
H181 C193 0.950 . S
H182 C190 0.950 . S
H183 C192 0.950 . S
H184 C194 0.950 . S
H185 C196 0.950 . S
H186 C198 0.950 . S
H187 C199 0.950 . S
C188 H180 0.950 . S
C188 C189 1.386 1_554 S
C188 C190 1.391 . S
C189 C188 1.386 1_556 S
C189 C193 1.393 . S
C190 H182 0.950 . S
C190 C188 1.391 . S
C190 C191 1.400 1_554 S
C191 C190 1.400 1_556 S
C191 C192 1.398 . S
C191 C197 1.491 . S
C192 H183 0.950 . S
C192 C191 1.398 . S
C192 C193 1.391 . S
C193 H181 0.950 . S
C193 C189 1.393 . S
C193 C192 1.391 . S
C194 H184 0.950 . S
C194 C195 1.386 . S
C194 C196 1.391 . S
C195 C194 1.386 . S
C195 C199 1.393 1_556 S
C196 H185 0.950 . S
C196 C194 1.391 . S
C196 C197 1.400 . S
C197 C191 1.491 . S
C197 C196 1.400 . S
C197 C198 1.398 1_556 S
C198 H186 0.950 . S
C198 C197 1.398 1_554 S
C198 C199 1.391 . S
C199 H187 0.950 . S
C199 C195 1.393 1_554 S
C199 C198 1.391 . S
H200 C208 0.950 . S
H201 C213 0.950 . S
H202 C210 0.950 . S
H203 C212 0.950 . S
H204 C214 0.950 . S
H205 C216 0.950 . S
H206 C218 0.950 . S
H207 C219 0.950 . S
C208 H200 0.950 . S
C208 C209 1.386 . S
C208 C210 1.391 . S
C209 C208 1.386 . S
C209 C213 1.393 1_556 S
C210 H202 0.950 . S
C210 C208 1.391 . S
C210 C211 1.400 . S
C211 C210 1.400 . S
C211 C212 1.398 1_556 S
C211 C217 1.491 . S
C212 H203 0.950 . S
C212 C211 1.398 1_554 S
C212 C213 1.391 . S
C213 H201 0.950 . S
C213 C209 1.393 1_554 S
C213 C212 1.391 . S
C214 H204 0.950 . S
C214 C215 1.387 . S
C214 C216 1.391 . S
C215 C214 1.387 . S
C215 C219 1.392 1_554 S
C216 H205 0.950 . S
C216 C214 1.391 . S
C216 C217 1.400 1_554 S
C217 C211 1.491 . S
C217 C216 1.400 1_556 S
C217 C218 1.398 . S
C218 H206 0.950 . S
C218 C217 1.398 . S
C218 C219 1.391 . S
C219 H207 0.950 . S
C219 C215 1.392 1_556 S
C219 C218 1.391 . S
H220 C228 0.950 . S
H221 C233 0.950 . S
H222 C230 0.950 . S
H223 C232 0.950 . S
H224 C234 0.950 . S
H225 C236 0.950 . S
H226 C238 0.950 . S
H227 C239 0.950 . S
C228 H220 0.950 . S
C228 C229 1.386 1_554 S
C228 C230 1.391 . S
C229 C228 1.386 1_556 S
C229 C233 1.393 . S
C230 H222 0.950 . S
C230 C228 1.391 . S
C230 C231 1.400 1_554 S
C231 C230 1.400 1_556 S
C231 C232 1.398 . S
C231 C237 1.491 . S
C232 H223 0.950 . S
C232 C231 1.398 . S
C232 C233 1.391 . S
C233 H221 0.950 . S
C233 C229 1.393 . S
C233 C232 1.391 . S
C234 H224 0.950 . S
C234 C235 1.386 1_556 S
C234 C236 1.391 . S
C235 C234 1.386 1_554 S
C235 C239 1.393 . S
C236 H225 0.950 . S
C236 C234 1.391 . S
C236 C237 1.400 . S
C237 C231 1.491 . S
C237 C236 1.400 . S
C237 C238 1.398 1_556 S
C238 H226 0.950 . S
C238 C237 1.398 1_554 S
C238 C239 1.391 . S
C239 H227 0.950 . S
C239 C235 1.393 . S
C239 C238 1.391 . S
H240 C248 0.950 . S
H241 C253 0.950 . S
H242 C250 0.950 . S
H243 C252 0.950 . S
H244 C254 0.950 1_556 S
H245 C256 0.950 . S
H246 C258 0.950 . S
H247 C259 0.950 . S
C248 H240 0.950 . S
C248 C249 1.386 . S
C248 C250 1.391 . S
C249 C248 1.386 . S
C249 C253 1.393 1_554 S
C250 H242 0.950 . S
C250 C248 1.391 . S
C250 C251 1.400 . S
C251 C250 1.400 . S
C251 C252 1.398 1_554 S
C251 C257 1.491 . S
C252 H243 0.950 . S
C252 C251 1.398 1_556 S
C252 C253 1.391 . S
C253 H241 0.950 . S
C253 C249 1.393 1_556 S
C253 C252 1.391 . S
C254 H244 0.950 1_554 S
C254 C255 1.386 . S
C254 C256 1.391 1_554 S
C255 C254 1.386 . S
C255 C259 1.393 . S
C256 H245 0.950 . S
C256 C254 1.391 1_556 S
C256 C257 1.400 1_556 S
C257 C251 1.491 . S
C257 C256 1.400 1_554 S
C257 C258 1.398 . S
C258 H246 0.950 . S
C258 C257 1.398 . S
C258 C259 1.391 . S
C259 H247 0.950 . S
C259 C255 1.393 . S
C259 C258 1.391 . S
H260 C268 0.950 . S
H261 C273 0.950 . S
H262 C270 0.950 . S
H263 C272 0.950 . S
H264 C274 0.950 . S
H265 C276 0.950 . S
H266 C278 0.950 . S
H267 C279 0.950 . S
C268 H260 0.950 . S
C268 C269 1.386 . S
C268 C270 1.391 . S
C269 C268 1.386 . S
C269 C273 1.393 1_554 S
C270 H262 0.950 . S
C270 C268 1.391 . S
C270 C271 1.400 . S
C271 C270 1.400 . S
C271 C272 1.398 1_554 S
C271 C277 1.491 . S
C272 H263 0.950 . S
C272 C271 1.398 1_556 S
C272 C273 1.391 . S
C273 H261 0.950 . S
C273 C269 1.393 1_556 S
C273 C272 1.391 . S
C274 H264 0.950 . S
C274 C275 1.386 1_556 S
C274 C276 1.391 . S
C275 C274 1.386 1_554 S
C275 C279 1.393 . S
C276 H265 0.950 . S
C276 C274 1.391 . S
C276 C277 1.400 1_556 S
C277 C271 1.491 . S
C277 C276 1.400 1_554 S
C277 C278 1.398 . S
C278 H266 0.950 . S
C278 C277 1.398 . S
C278 C279 1.391 . S
C279 H267 0.950 . S
C279 C275 1.393 . S
C279 C278 1.391 . S
H280 C288 0.950 . S
H281 C293 0.950 . S
H282 C290 0.950 . S
H283 C292 0.950 . S
H284 C294 0.950 . S
H285 C296 0.950 . S
H286 C298 0.950 . S
H287 C299 0.950 . S
C288 H280 0.950 . S
C288 C289 1.386 . S
C288 C290 1.391 . S
C289 C288 1.386 . S
C289 C293 1.393 1_554 S
C290 H282 0.950 . S
C290 C288 1.391 . S
C290 C291 1.400 . S
C291 C290 1.400 . S
C291 C292 1.398 1_554 S
C291 C297 1.491 . S
C292 H283 0.950 . S
C292 C291 1.398 1_556 S
C292 C293 1.391 . S
C293 H281 0.950 . S
C293 C289 1.393 1_556 S
C293 C292 1.391 . S
C294 H284 0.950 . S
C294 C295 1.386 1_556 S
C294 C296 1.391 . S
C295 C294 1.386 1_554 S
C295 C299 1.393 . S
C296 H285 0.950 . S
C296 C294 1.391 . S
C296 C297 1.400 1_556 S
C297 C291 1.491 . S
C297 C296 1.400 1_554 S
C297 C298 1.398 . S
C298 H286 0.950 . S
C298 C297 1.398 . S
C298 C299 1.391 . S
C299 H287 0.950 . S
C299 C295 1.393 . S
C299 C298 1.391 . S
C129 C10 1.468 . S
C135 C19 1.468 1_655 S
C149 C50 1.472 . S
C155 C59 1.468 . S
C169 C99 1.473 . S
C175 C90 1.473 . S
C189 C11 2.615 1_556 S
C195 C82 2.581 . S
C209 C47 0.890 . S
C215 C7 0.886 1_554 S
C229 C51 2.028 . S
C235 C87 1.970 1_554 S
C249 C2 2.616 1_554 S
C255 C91 2.579 . S
C269 C16 0.902 . S
C275 C56 0.902 . S
C289 C96 1.970 . S
C295 C42 2.030 . S
