# Generated by pormake.
# Topology ums, (4)-cn, num edge types: 1
# Building blocks:
#     Node 0, Type 0, BuildingBlock: CEKHIL_clean_sbu_0, # of connection points: 4
#     Node 1, Type 0, BuildingBlock: CEKHIL_clean_sbu_0, # of connection points: 4
#     Node 2, Type 0, BuildingBlock: CEKHIL_clean_sbu_0, # of connection points: 4
#     Node 3, Type 0, BuildingBlock: CEKHIL_clean_sbu_0, # of connection points: 4
#     Node 4, Type 0, BuildingBlock: CEKHIL_clean_sbu_0, # of connection points: 4
#     Node 5, Type 0, BuildingBlock: CEKHIL_clean_sbu_0, # of connection points: 4
#     Node 6, Type 0, BuildingBlock: CEKHIL_clean_sbu_0, # of connection points: 4
#     Node 7, Type 0, BuildingBlock: CEKHIL_clean_sbu_0, # of connection points: 4
#     Node 8, Type 0, BuildingBlock: CEKHIL_clean_sbu_0, # of connection points: 4
#     Node 9, Type 0, BuildingBlock: CEKHIL_clean_sbu_0, # of connection points: 4
#     Node 10, Type 0, BuildingBlock: CEKHIL_clean_sbu_0, # of connection points: 4
#     Node 11, Type 0, BuildingBlock: CEKHIL_clean_sbu_0, # of connection points: 4
#     Node 12, Type 0, BuildingBlock: CEKHIL_clean_sbu_0, # of connection points: 4
#     Node 13, Type 0, BuildingBlock: CEKHIL_clean_sbu_0, # of connection points: 4
#     Node 14, Type 0, BuildingBlock: CEKHIL_clean_sbu_0, # of connection points: 4
#     Node 15, Type 0, BuildingBlock: CEKHIL_clean_sbu_0, # of connection points: 4
#     Node 16, Type 0, BuildingBlock: CEKHIL_clean_sbu_0, # of connection points: 4
#     Node 17, Type 0, BuildingBlock: CEKHIL_clean_sbu_0, # of connection points: 4
#     Node 18, Type 0, BuildingBlock: CEKHIL_clean_sbu_0, # of connection points: 4
#     Node 19, Type 0, BuildingBlock: CEKHIL_clean_sbu_0, # of connection points: 4
#     Node 20, Type 0, BuildingBlock: CEKHIL_clean_sbu_0, # of connection points: 4
#     Node 21, Type 0, BuildingBlock: CEKHIL_clean_sbu_0, # of connection points: 4
#     Node 22, Type 0, BuildingBlock: CEKHIL_clean_sbu_0, # of connection points: 4
#     Node 23, Type 0, BuildingBlock: CEKHIL_clean_sbu_0, # of connection points: 4
#     Node 24, Type 0, BuildingBlock: CEKHIL_clean_sbu_0, # of connection points: 4
#     Node 25, Type 0, BuildingBlock: CEKHIL_clean_sbu_0, # of connection points: 4
#     Node 26, Type 0, BuildingBlock: CEKHIL_clean_sbu_0, # of connection points: 4
#     Node 27, Type 0, BuildingBlock: CEKHIL_clean_sbu_0, # of connection points: 4
#     Node 28, Type 0, BuildingBlock: CEKHIL_clean_sbu_0, # of connection points: 4
#     Node 29, Type 0, BuildingBlock: CEKHIL_clean_sbu_0, # of connection points: 4
#     Node 30, Type 0, BuildingBlock: CEKHIL_clean_sbu_0, # of connection points: 4
#     Node 31, Type 0, BuildingBlock: CEKHIL_clean_sbu_0, # of connection points: 4
#     Node 32, Type 0, BuildingBlock: CEKHIL_clean_sbu_0, # of connection points: 4
#     Node 33, Type 0, BuildingBlock: CEKHIL_clean_sbu_0, # of connection points: 4
#     Node 34, Type 0, BuildingBlock: CEKHIL_clean_sbu_0, # of connection points: 4
#     Node 35, Type 0, BuildingBlock: CEKHIL_clean_sbu_0, # of connection points: 4
#     Edge 36, Type (0, 0), BuildingBlock: XIVTED_clean_linker_0, # of connection points: 2
#     Edge 37, Type (0, 0), BuildingBlock: XIVTED_clean_linker_0, # of connection points: 2
#     Edge 38, Type (0, 0), BuildingBlock: XIVTED_clean_linker_0, # of connection points: 2
#     Edge 39, Type (0, 0), BuildingBlock: XIVTED_clean_linker_0, # of connection points: 2
#     Edge 40, Type (0, 0), BuildingBlock: XIVTED_clean_linker_0, # of connection points: 2
#     Edge 41, Type (0, 0), BuildingBlock: XIVTED_clean_linker_0, # of connection points: 2
#     Edge 42, Type (0, 0), BuildingBlock: XIVTED_clean_linker_0, # of connection points: 2
#     Edge 43, Type (0, 0), BuildingBlock: XIVTED_clean_linker_0, # of connection points: 2
#     Edge 44, Type (0, 0), BuildingBlock: XIVTED_clean_linker_0, # of connection points: 2
#     Edge 45, Type (0, 0), BuildingBlock: XIVTED_clean_linker_0, # of connection points: 2
#     Edge 46, Type (0, 0), BuildingBlock: XIVTED_clean_linker_0, # of connection points: 2
#     Edge 47, Type (0, 0), BuildingBlock: XIVTED_clean_linker_0, # of connection points: 2
#     Edge 48, Type (0, 0), BuildingBlock: XIVTED_clean_linker_0, # of connection points: 2
#     Edge 49, Type (0, 0), BuildingBlock: XIVTED_clean_linker_0, # of connection points: 2
#     Edge 50, Type (0, 0), BuildingBlock: XIVTED_clean_linker_0, # of connection points: 2
#     Edge 51, Type (0, 0), BuildingBlock: XIVTED_clean_linker_0, # of connection points: 2
#     Edge 52, Type (0, 0), BuildingBlock: XIVTED_clean_linker_0, # of connection points: 2
#     Edge 53, Type (0, 0), BuildingBlock: XIVTED_clean_linker_0, # of connection points: 2
#     Edge 54, Type (0, 0), BuildingBlock: XIVTED_clean_linker_0, # of connection points: 2
#     Edge 55, Type (0, 0), BuildingBlock: XIVTED_clean_linker_0, # of connection points: 2
#     Edge 56, Type (0, 0), BuildingBlock: XIVTED_clean_linker_0, # of connection points: 2
#     Edge 57, Type (0, 0), BuildingBlock: XIVTED_clean_linker_0, # of connection points: 2
#     Edge 58, Type (0, 0), BuildingBlock: XIVTED_clean_linker_0, # of connection points: 2
#     Edge 59, Type (0, 0), BuildingBlock: XIVTED_clean_linker_0, # of connection points: 2
#     Edge 60, Type (0, 0), BuildingBlock: XIVTED_clean_linker_0, # of connection points: 2
#     Edge 61, Type (0, 0), BuildingBlock: XIVTED_clean_linker_0, # of connection points: 2
#     Edge 62, Type (0, 0), BuildingBlock: XIVTED_clean_linker_0, # of connection points: 2
#     Edge 63, Type (0, 0), BuildingBlock: XIVTED_clean_linker_0, # of connection points: 2
#     Edge 64, Type (0, 0), BuildingBlock: XIVTED_clean_linker_0, # of connection points: 2
#     Edge 65, Type (0, 0), BuildingBlock: XIVTED_clean_linker_0, # of connection points: 2
#     Edge 66, Type (0, 0), BuildingBlock: XIVTED_clean_linker_0, # of connection points: 2
#     Edge 67, Type (0, 0), BuildingBlock: XIVTED_clean_linker_0, # of connection points: 2
#     Edge 68, Type (0, 0), BuildingBlock: XIVTED_clean_linker_0, # of connection points: 2
#     Edge 69, Type (0, 0), BuildingBlock: XIVTED_clean_linker_0, # of connection points: 2
#     Edge 70, Type (0, 0), BuildingBlock: XIVTED_clean_linker_0, # of connection points: 2
#     Edge 71, Type (0, 0), BuildingBlock: XIVTED_clean_linker_0, # of connection points: 2
#     Edge 72, Type (0, 0), BuildingBlock: XIVTED_clean_linker_0, # of connection points: 2
#     Edge 73, Type (0, 0), BuildingBlock: XIVTED_clean_linker_0, # of connection points: 2
#     Edge 74, Type (0, 0), BuildingBlock: XIVTED_clean_linker_0, # of connection points: 2
#     Edge 75, Type (0, 0), BuildingBlock: XIVTED_clean_linker_0, # of connection points: 2
#     Edge 76, Type (0, 0), BuildingBlock: XIVTED_clean_linker_0, # of connection points: 2
#     Edge 77, Type (0, 0), BuildingBlock: XIVTED_clean_linker_0, # of connection points: 2
#     Edge 78, Type (0, 0), BuildingBlock: XIVTED_clean_linker_0, # of connection points: 2
#     Edge 79, Type (0, 0), BuildingBlock: XIVTED_clean_linker_0, # of connection points: 2
#     Edge 80, Type (0, 0), BuildingBlock: XIVTED_clean_linker_0, # of connection points: 2
#     Edge 81, Type (0, 0), BuildingBlock: XIVTED_clean_linker_0, # of connection points: 2
#     Edge 82, Type (0, 0), BuildingBlock: XIVTED_clean_linker_0, # of connection points: 2
#     Edge 83, Type (0, 0), BuildingBlock: XIVTED_clean_linker_0, # of connection points: 2
#     Edge 84, Type (0, 0), BuildingBlock: XIVTED_clean_linker_0, # of connection points: 2
#     Edge 85, Type (0, 0), BuildingBlock: XIVTED_clean_linker_0, # of connection points: 2
#     Edge 86, Type (0, 0), BuildingBlock: XIVTED_clean_linker_0, # of connection points: 2
#     Edge 87, Type (0, 0), BuildingBlock: XIVTED_clean_linker_0, # of connection points: 2
#     Edge 88, Type (0, 0), BuildingBlock: XIVTED_clean_linker_0, # of connection points: 2
#     Edge 89, Type (0, 0), BuildingBlock: XIVTED_clean_linker_0, # of connection points: 2
#     Edge 90, Type (0, 0), BuildingBlock: XIVTED_clean_linker_0, # of connection points: 2
#     Edge 91, Type (0, 0), BuildingBlock: XIVTED_clean_linker_0, # of connection points: 2
#     Edge 92, Type (0, 0), BuildingBlock: XIVTED_clean_linker_0, # of connection points: 2
#     Edge 93, Type (0, 0), BuildingBlock: XIVTED_clean_linker_0, # of connection points: 2
#     Edge 94, Type (0, 0), BuildingBlock: XIVTED_clean_linker_0, # of connection points: 2
#     Edge 95, Type (0, 0), BuildingBlock: XIVTED_clean_linker_0, # of connection points: 2
#     Edge 96, Type (0, 0), BuildingBlock: XIVTED_clean_linker_0, # of connection points: 2
#     Edge 97, Type (0, 0), BuildingBlock: XIVTED_clean_linker_0, # of connection points: 2
#     Edge 98, Type (0, 0), BuildingBlock: XIVTED_clean_linker_0, # of connection points: 2
#     Edge 99, Type (0, 0), BuildingBlock: XIVTED_clean_linker_0, # of connection points: 2
#     Edge 100, Type (0, 0), BuildingBlock: XIVTED_clean_linker_0, # of connection points: 2
#     Edge 101, Type (0, 0), BuildingBlock: XIVTED_clean_linker_0, # of connection points: 2
#     Edge 102, Type (0, 0), BuildingBlock: XIVTED_clean_linker_0, # of connection points: 2
#     Edge 103, Type (0, 0), BuildingBlock: XIVTED_clean_linker_0, # of connection points: 2
#     Edge 104, Type (0, 0), BuildingBlock: XIVTED_clean_linker_0, # of connection points: 2
#     Edge 105, Type (0, 0), BuildingBlock: XIVTED_clean_linker_0, # of connection points: 2
#     Edge 106, Type (0, 0), BuildingBlock: XIVTED_clean_linker_0, # of connection points: 2
#     Edge 107, Type (0, 0), BuildingBlock: XIVTED_clean_linker_0, # of connection points: 2
# Relax obj value: 0.198
# Max RMSD: 0.149
# Mean RMSD: 0.148
data_MOF--net-ums--node1-CEKHIL_clean_sbu_0--edge1-XIVTED_clean_linker_0
_symmetry_space_group_name_H-M    P1
_symmetry_Int_Tables_number       1
_symmetry_cell_setting            triclinic
loop_
_symmetry_equiv_pos_as_xyz
'x, y, z'
_cell_length_a     100.4047
_cell_length_b     100.41713
_cell_length_c     23.897029
_cell_angle_alpha  90.013064
_cell_angle_beta   90.01002
_cell_angle_gamma 120.02569
loop_
_atom_site_label
_atom_site_type_symbol
_atom_site_fract_x
_atom_site_fract_y
_atom_site_fract_z
_atom_type_partial_charge
Co0 Co 0.17894 0.26115 0.20239 0.0
O1 O 0.19447 0.25931 0.24346 0.0
O2 O 0.17772 0.24181 0.18483 0.0
C3 C 0.19435 0.28548 0.17221 0.0
O4 O 0.16165 0.259 0.15138 0.0
Co5 Co 0.16963 0.28551 0.23544 0.0
O6 O 0.1563 0.27788 0.16857 0.0
C7 C 0.15952 0.25767 0.30412 0.0
C8 C 0.18927 0.24609 0.21881 0.0
C9 C 0.15414 0.26605 0.14134 0.0
O10 O 0.16419 0.2516 0.26722 0.0
O11 O 0.16185 0.27139 0.30127 0.0
O12 O 0.19418 0.27404 0.14616 0.0
O13 O 0.1864 0.28202 0.2177 0.0
Co14 Co 0.74298 0.91888 0.22301 0.0
O15 O 0.74758 0.93828 0.25574 0.0
O16 O 0.7643 0.9341 0.20963 0.0
C17 C 0.72079 0.91383 0.1807 0.0
O18 O 0.74246 0.90088 0.18136 0.0
Co19 Co 0.71333 0.88846 0.25604 0.0
O20 O 0.71972 0.87933 0.19551 0.0
C21 C 0.73902 0.90385 0.33568 0.0
C22 C 0.76139 0.94368 0.23602 0.0
C23 C 0.73285 0.88656 0.17191 0.0
O24 O 0.74812 0.91235 0.29645 0.0
O25 O 0.72452 0.89508 0.3291 0.0
O26 O 0.73393 0.92293 0.15705 0.0
O27 O 0.72158 0.90936 0.23051 0.0
Co28 Co 0.08247 0.82294 0.2159 0.0
O29 O 0.06359 0.80821 0.25193 0.0
O30 O 0.0669 0.82866 0.20485 0.0
C31 C 0.08726 0.80567 0.17336 0.0
O32 O 0.09977 0.84026 0.1711 0.0
Co33 Co 0.11356 0.82445 0.24344 0.0
O34 O 0.12167 0.83952 0.18124 0.0
C35 C 0.09891 0.83492 0.3257 0.0
C36 C 0.05778 0.81631 0.23294 0.0
C37 C 0.11396 0.84509 0.15901 0.0
O38 O 0.08982 0.83515 0.28808 0.0
O39 O 0.10776 0.82936 0.31746 0.0
O40 O 0.07776 0.80936 0.1509 0.0
O41 O 0.09234 0.81139 0.22219 0.0
Co42 Co 0.26055 0.17853 0.29827 0.0
O43 O 0.25934 0.19411 0.25476 0.0
O44 O 0.2409 0.17711 0.30989 0.0
C45 C 0.28423 0.19391 0.33425 0.0
O46 O 0.2574 0.16124 0.35101 0.0
Co47 Co 0.28539 0.16914 0.27583 0.0
O48 O 0.27627 0.15551 0.34131 0.0
C49 C 0.25909 0.15913 0.19898 0.0
C50 C 0.2457 0.18876 0.2762 0.0
C51 C 0.26401 0.15355 0.36468 0.0
O52 O 0.25232 0.16387 0.23256 0.0
O53 O 0.27266 0.16138 0.20655 0.0
O54 O 0.27231 0.19371 0.3564 0.0
O55 O 0.28168 0.18602 0.28894 0.0
Co56 Co 0.82427 0.08227 0.26701 0.0
O57 O 0.8096 0.06294 0.23343 0.0
O58 O 0.83054 0.06716 0.27935 0.0
C59 C 0.807 0.08698 0.31014 0.0
O60 O 0.84163 0.10018 0.30942 0.0
Co61 Co 0.82478 0.11267 0.2359 0.0
O62 O 0.84005 0.12158 0.29737 0.0
C63 C 0.83551 0.0979 0.15523 0.0
C64 C 0.81808 0.05758 0.25271 0.0
C65 C 0.84609 0.11438 0.32018 0.0
O66 O 0.83601 0.08918 0.19378 0.0
O67 O 0.82973 0.10659 0.16244 0.0
O68 O 0.81111 0.07785 0.333 0.0
O69 O 0.81224 0.09165 0.26045 0.0
Co70 Co 0.91883 0.74185 0.27043 0.0
O71 O 0.93778 0.7458 0.23553 0.0
O72 O 0.9347 0.76292 0.28374 0.0
C73 C 0.91325 0.7193 0.31119 0.0
O74 O 0.9015 0.74205 0.31428 0.0
Co75 Co 0.88757 0.71302 0.23888 0.0
O76 O 0.87924 0.71995 0.30044 0.0
C77 C 0.90303 0.73884 0.15987 0.0
C78 C 0.94377 0.75962 0.25569 0.0
C79 C 0.8871 0.73299 0.32426 0.0
O80 O 0.91222 0.74758 0.19845 0.0
O81 O 0.89371 0.72444 0.16621 0.0
O82 O 0.92283 0.73228 0.3349 0.0
O83 O 0.90854 0.7204 0.26216 0.0
Co84 Co 0.82284 0.74093 0.76999 0.0
O85 O 0.80646 0.74273 0.73593 0.0
O86 O 0.82658 0.76176 0.77832 0.0
C87 C 0.80728 0.71865 0.8152 0.0
O88 O 0.84145 0.74325 0.81305 0.0
Co89 Co 0.82726 0.71295 0.7442 0.0
O90 O 0.84281 0.72163 0.80473 0.0
C91 C 0.835 0.73705 0.65946 0.0
C92 C 0.8135 0.75691 0.75282 0.0
C93 C 0.84751 0.73495 0.82549 0.0
O94 O 0.8344 0.74612 0.69626 0.0
O95 O 0.83084 0.72296 0.66912 0.0
O96 O 0.81013 0.7317 0.83687 0.0
O97 O 0.81291 0.71948 0.7661 0.0
Co98 Co 0.25811 0.0807 0.79878 0.0
O99 O 0.255 0.06278 0.75795 0.0
O100 O 0.23775 0.06369 0.8133 0.0
C101 C 0.28158 0.08729 0.83338 0.0
O102 O 0.25694 0.09645 0.84922 0.0
Co103 Co 0.28506 0.11366 0.77216 0.0
O104 O 0.27769 0.11994 0.83829 0.0
C105 C 0.25749 0.0992 0.69958 0.0
C106 C 0.24143 0.05568 0.78069 0.0
C107 C 0.26499 0.11078 0.8621 0.0
O108 O 0.25052 0.08754 0.7324 0.0
O109 O 0.27138 0.11002 0.70637 0.0
O110 O 0.2692 0.07673 0.85769 0.0
O111 O 0.27946 0.09256 0.78706 0.0
Co112 Co 0.91673 0.17951 0.76803 0.0
O113 O 0.93487 0.19615 0.73497 0.0
O114 O 0.93369 0.17548 0.77297 0.0
C115 C 0.91026 0.19458 0.81776 0.0
O116 O 0.90038 0.16052 0.80917 0.0
Co117 Co 0.8845 0.17575 0.7445 0.0
O118 O 0.87746 0.15935 0.80192 0.0
C119 C 0.9006 0.16874 0.65669 0.0
C120 C 0.94193 0.1888 0.749 0.0
C121 C 0.88599 0.15437 0.82125 0.0
O122 O 0.91014 0.16876 0.69284 0.0
O123 O 0.89085 0.17302 0.66795 0.0
O124 O 0.92047 0.19144 0.83714 0.0
O125 O 0.90537 0.18962 0.76799 0.0
Co126 Co 0.73855 0.82249 0.72188 0.0
O127 O 0.74006 0.80575 0.75397 0.0
O128 O 0.75947 0.82638 0.71555 0.0
C129 C 0.71675 0.80753 0.67296 0.0
O130 O 0.74122 0.84158 0.68145 0.0
Co131 Co 0.7103 0.8265 0.74692 0.0
O132 O 0.7196 0.84295 0.68967 0.0
C133 C 0.7336 0.83326 0.83388 0.0
C134 C 0.75441 0.81302 0.7391 0.0
C135 C 0.73306 0.84784 0.66994 0.0
O136 O 0.74301 0.83318 0.79734 0.0
O137 O 0.71957 0.8291 0.82304 0.0
O138 O 0.73002 0.81063 0.65275 0.0
O139 O 0.71705 0.8125 0.7229 0.0
Co140 Co 0.18021 0.91739 0.71482 0.0
O141 O 0.19524 0.93607 0.75119 0.0
O142 O 0.1748 0.93321 0.70505 0.0
C143 C 0.19715 0.91234 0.67103 0.0
O144 O 0.1626 0.90043 0.67011 0.0
Co145 Co 0.178 0.88597 0.74078 0.0
O146 O 0.16242 0.87806 0.68013 0.0
C147 C 0.16807 0.90077 0.82429 0.0
C148 C 0.18724 0.9421 0.73311 0.0
C149 C 0.1572 0.88612 0.65834 0.0
O150 O 0.16809 0.91008 0.78713 0.0
O151 O 0.17331 0.89168 0.81548 0.0
O152 O 0.19361 0.92204 0.64941 0.0
O153 O 0.19146 0.90717 0.71985 0.0
Co154 Co 0.08213 0.25789 0.69645 0.0
O155 O 0.06466 0.25698 0.73339 0.0
O156 O 0.06426 0.23764 0.68742 0.0
C157 C 0.08996 0.2808 0.65409 0.0
O158 O 0.0973 0.25455 0.65057 0.0
Co159 Co 0.11559 0.28418 0.72061 0.0
O160 O 0.1213 0.27468 0.65952 0.0
C161 C 0.09937 0.25902 0.802 0.0
C162 C 0.05679 0.24291 0.71552 0.0
C163 C 0.11171 0.26173 0.63825 0.0
O164 O 0.08824 0.25134 0.76755 0.0
O165 O 0.1104 0.27267 0.7929 0.0
O166 O 0.07908 0.26819 0.63204 0.0
O167 O 0.09489 0.27928 0.70213 0.0
Co168 Co 0.84592 0.59583 0.55439 0.0
O169 O 0.86105 0.59227 0.59061 0.0
O170 O 0.84082 0.57472 0.54358 0.0
C171 C 0.86278 0.61813 0.51185 0.0
O172 O 0.82828 0.59502 0.50941 0.0
Co173 Co 0.84307 0.62469 0.58046 0.0
O174 O 0.8278 0.61706 0.51878 0.0
C175 C 0.8334 0.59987 0.66366 0.0
C176 C 0.85325 0.5783 0.5717 0.0
C177 C 0.82278 0.6038 0.49703 0.0
O178 O 0.83365 0.59068 0.62653 0.0
O179 O 0.83842 0.61417 0.65487 0.0
O180 O 0.85947 0.60502 0.48945 0.0
O181 O 0.85688 0.61731 0.56047 0.0
Co182 Co 0.41051 0.25128 0.55711 0.0
O183 O 0.41356 0.26978 0.59337 0.0
O184 O 0.43121 0.26789 0.54385 0.0
C185 C 0.38759 0.24463 0.51726 0.0
O186 O 0.4116 0.23459 0.51186 0.0
Co187 Co 0.38277 0.21917 0.589 0.0
O188 O 0.39058 0.21155 0.52805 0.0
C189 C 0.40841 0.23588 0.66749 0.0
C190 C 0.42738 0.27642 0.57279 0.0
C191 C 0.40329 0.22001 0.50298 0.0
O192 O 0.41691 0.24496 0.62827 0.0
O193 O 0.39407 0.22622 0.66162 0.0
O194 O 0.40027 0.25495 0.49384 0.0
O195 O 0.38913 0.23991 0.56567 0.0
Co196 Co 0.75253 0.15312 0.57396 0.0
O197 O 0.73385 0.13676 0.60536 0.0
O198 O 0.73602 0.15776 0.56653 0.0
C199 C 0.75883 0.13767 0.52561 0.0
O200 O 0.76948 0.17194 0.53399 0.0
Co201 Co 0.78426 0.15602 0.60046 0.0
O202 O 0.79201 0.17237 0.54268 0.0
C203 C 0.76811 0.16362 0.68643 0.0
C204 C 0.72726 0.14445 0.58981 0.0
C205 C 0.78386 0.17772 0.52263 0.0
O206 O 0.75882 0.16377 0.64951 0.0
O207 O 0.7777 0.15906 0.67616 0.0
O208 O 0.74902 0.1412 0.50491 0.0
O209 O 0.76343 0.14251 0.57574 0.0
Co210 Co 0.92477 0.51066 0.61692 0.0
O211 O 0.92161 0.52587 0.57943 0.0
O212 O 0.90397 0.50641 0.62928 0.0
C213 C 0.94755 0.52742 0.65654 0.0
O214 O 0.92372 0.49313 0.66362 0.0
Co215 Co 0.95284 0.50653 0.58963 0.0
O216 O 0.94534 0.4919 0.65318 0.0
C217 C 0.92738 0.49664 0.50895 0.0
C218 C 0.90777 0.51869 0.59983 0.0
C219 C 0.9323 0.48739 0.67604 0.0
O220 O 0.91871 0.49775 0.54625 0.0
O221 O 0.94164 0.50118 0.51652 0.0
O222 O 0.93475 0.52469 0.67996 0.0
O223 O 0.94619 0.52099 0.60861 0.0
Co224 Co 0.49024 0.41565 0.61065 0.0
O225 O 0.47526 0.39678 0.57511 0.0
O226 O 0.49518 0.39965 0.62471 0.0
C227 C 0.47321 0.42138 0.64966 0.0
O228 O 0.50768 0.43283 0.6555 0.0
Co229 Co 0.49318 0.44715 0.57939 0.0
O230 O 0.50816 0.45524 0.64188 0.0
C231 C 0.50328 0.43139 0.5006 0.0
C232 C 0.4829 0.39068 0.59602 0.0
C233 C 0.5131 0.44722 0.66596 0.0
O234 O 0.50284 0.42224 0.53927 0.0
O235 O 0.49825 0.44075 0.50692 0.0
O236 O 0.47637 0.41174 0.67417 0.0
O237 O 0.47935 0.42612 0.60114 0.0
Co238 Co 0.58647 0.07518 0.59773 0.0
O239 O 0.60494 0.07694 0.56671 0.0
O240 O 0.60368 0.09583 0.60938 0.0
C241 C 0.57884 0.05253 0.64151 0.0
O242 O 0.56974 0.07736 0.63816 0.0
Co243 Co 0.55433 0.04766 0.56533 0.0
O244 O 0.54688 0.0558 0.62577 0.0
C245 C 0.57193 0.07256 0.48463 0.0
C246 C 0.61207 0.09097 0.5852 0.0
C247 C 0.55524 0.06893 0.64833 0.0
O248 O 0.58124 0.08115 0.52326 0.0
O249 O 0.56172 0.05845 0.49193 0.0
O250 O 0.5889 0.06536 0.66488 0.0
O251 O 0.57477 0.05376 0.59154 0.0
Co252 Co 0.49111 0.07198 0.09924 0.0
O253 O 0.47422 0.07334 0.06766 0.0
O254 O 0.49439 0.0926 0.10905 0.0
C255 C 0.47637 0.04949 0.14461 0.0
O256 O 0.51023 0.07473 0.13968 0.0
Co257 Co 0.49627 0.04474 0.06897 0.0
O258 O 0.51241 0.05367 0.12751 0.0
C259 C 0.50319 0.06915 0.98664 0.0
C260 C 0.48113 0.08751 0.08465 0.0
C261 C 0.51686 0.06681 0.14949 0.0
O262 O 0.50223 0.07773 0.02465 0.0
O263 O 0.49956 0.05514 0.99471 0.0
O264 O 0.47901 0.06239 0.16692 0.0
O265 O 0.48163 0.05052 0.09465 0.0
Co266 Co 0.92407 0.41355 0.11799 0.0
O267 O 0.92031 0.39478 0.08182 0.0
O268 O 0.9031 0.39749 0.13098 0.0
C269 C 0.94673 0.41922 0.15815 0.0
O270 O 0.92352 0.43043 0.16351 0.0
Co271 Co 0.95261 0.44533 0.08976 0.0
O272 O 0.94548 0.45297 0.15296 0.0
C273 C 0.92696 0.4302 0.00952 0.0
C274 C 0.9065 0.38858 0.10242 0.0
C275 C 0.93236 0.44472 0.17569 0.0
O276 O 0.91825 0.42042 0.04677 0.0
O277 O 0.94126 0.43977 0.01694 0.0
O278 O 0.93381 0.40943 0.18168 0.0
O279 O 0.94553 0.42418 0.10975 0.0
Co280 Co 0.5854 0.51238 0.11192 0.0
O281 O 0.60409 0.5276 0.07589 0.0
O282 O 0.60151 0.50749 0.12341 0.0
C283 C 0.57974 0.52916 0.15383 0.0
O284 O 0.56865 0.4947 0.15692 0.0
Co285 Co 0.55351 0.50906 0.08559 0.0
O286 O 0.54595 0.49382 0.14734 0.0
C287 C 0.56883 0.49944 0.00289 0.0
C288 C 0.61035 0.51993 0.09539 0.0
C289 C 0.55434 0.489 0.16922 0.0
O290 O 0.57843 0.5 0.03998 0.0
O291 O 0.55937 0.50424 0.01146 0.0
O292 O 0.58958 0.52598 0.17655 0.0
O293 O 0.57469 0.52315 0.10529 0.0
Co294 Co 0.40855 0.15561 0.05509 0.0
O295 O 0.41019 0.139 0.08788 0.0
O296 O 0.42919 0.15902 0.04493 0.0
C297 C 0.38592 0.14043 0.01115 0.0
O298 O 0.41103 0.17441 0.01326 0.0
Co299 Co 0.38118 0.16069 0.08429 0.0
O300 O 0.38993 0.17656 0.02486 0.0
C301 C 0.40577 0.16816 0.16656 0.0
C302 C 0.42431 0.14592 0.07025 0.0
C303 C 0.40305 0.18094 0.00283 0.0
O304 O 0.4144 0.16715 0.12885 0.0
O305 O 0.39171 0.16432 0.15838 0.0
O306 O 0.39877 0.14305 0.98833 0.0
O307 O 0.38712 0.14603 0.06058 0.0
Co308 Co 0.84462 0.24979 0.07528 0.0
O309 O 0.8594 0.26913 0.10841 0.0
O310 O 0.83818 0.26485 0.06443 0.0
C311 C 0.86175 0.24528 0.03018 0.0
O312 O 0.82708 0.23179 0.03365 0.0
Co313 Co 0.84459 0.21955 0.10501 0.0
O314 O 0.82879 0.21046 0.04534 0.0
C315 C 0.83441 0.23433 0.18769 0.0
C316 C 0.85079 0.27445 0.09027 0.0
C317 C 0.82258 0.21757 0.02318 0.0
O318 O 0.83335 0.24281 0.14943 0.0
O319 O 0.84036 0.22582 0.17937 0.0
O320 O 0.85739 0.25432 0.00818 0.0
O321 O 0.8568 0.24057 0.08012 0.0
Co322 Co 0.74948 0.5948 0.05466 0.0
O323 O 0.73053 0.59088 0.0895 0.0
O324 O 0.7336 0.57375 0.04124 0.0
C325 C 0.75506 0.61734 0.01413 0.0
O326 O 0.76677 0.59455 0.0106 0.0
Co327 Co 0.78084 0.62365 0.08541 0.0
O328 O 0.78905 0.61668 0.02356 0.0
C329 C 0.76525 0.59802 0.16521 0.0
C330 C 0.72452 0.57708 0.06909 0.0
C331 C 0.78114 0.60361 4e-05 0.0
O332 O 0.75613 0.58914 0.12674 0.0
O333 O 0.77452 0.61242 0.15836 0.0
O334 O 0.7455 0.60439 0.99023 0.0
O335 O 0.7598 0.6162 0.06303 0.0
Co336 Co 0.51318 0.92857 0.88538 0.0
O337 O 0.53002 0.92719 0.91746 0.0
O338 O 0.50991 0.90798 0.87567 0.0
C339 C 0.528 0.95107 0.8404 0.0
O340 O 0.49415 0.92579 0.8441 0.0
Co341 Co 0.50781 0.95581 0.91377 0.0
O342 O 0.49214 0.94701 0.8536 0.0
C343 C 0.5011 0.93168 -0.0027 0.0
C344 C 0.52315 0.91304 0.90017 0.0
C345 C 0.48771 0.93378 0.83246 0.0
O346 O 0.50197 0.92292 0.95981 0.0
O347 O 0.5047 0.94565 0.98838 0.0
O348 O 0.52544 0.9382 0.81799 0.0
O349 O 0.52257 0.94999 0.89005 0.0
Co350 Co 0.0734 0.58559 0.88515 0.0
O351 O 0.07535 0.60389 0.91861 0.0
O352 O 0.0942 0.60268 0.87538 0.0
C353 C 0.05092 0.57868 0.84111 0.0
O354 O 0.07546 0.56908 0.84257 0.0
Co355 Co 0.04546 0.55335 0.91373 0.0
O356 O 0.05389 0.54613 0.85358 0.0
C357 C 0.07013 0.56996 0.99631 0.0
C358 C 0.08946 0.61099 0.90094 0.0
C359 C 0.06708 0.55462 0.83162 0.0
O360 O 0.07896 0.57954 0.95881 0.0
O361 O 0.05599 0.55997 0.98788 0.0
O362 O 0.06386 0.58878 0.81857 0.0
O363 O 0.05196 0.5741 0.89038 0.0
Co364 Co 0.41718 0.49032 0.88387 0.0
O365 O 0.39879 0.47405 0.91737 0.0
O366 O 0.40026 0.49421 0.87399 0.0
C367 C 0.42396 0.47461 0.84026 0.0
O368 O 0.43365 0.50883 0.84105 0.0
Co369 Co 0.44949 0.49481 0.91145 0.0
O370 O 0.45661 0.51022 0.85039 0.0
C371 C 0.43291 0.5027 0.99474 0.0
C372 C 0.39184 0.4812 0.89962 0.0
C373 C 0.44803 0.51487 0.82899 0.0
O374 O 0.4233 0.50197 0.95741 0.0
O375 O 0.44292 0.49861 0.98592 0.0
O376 O 0.4139 0.47748 0.81753 0.0
O377 O 0.42864 0.48035 0.88934 0.0
Co378 Co 0.59853 0.84781 0.92595 0.0
O379 O 0.59695 0.86445 0.89307 0.0
O380 O 0.57771 0.84411 0.93364 0.0
C381 C 0.62065 0.86293 0.97285 0.0
O382 O 0.5959 0.82891 0.96757 0.0
Co383 Co 0.6264 0.84325 0.90022 0.0
O384 O 0.61743 0.82738 0.95962 0.0
C385 C 0.60264 0.8361 0.81462 0.0
C386 C 0.58269 0.85734 0.90916 0.0
C387 C 0.60405 0.82267 0.97981 0.0
O388 O 0.59352 0.83665 0.85136 0.0
O389 O 0.61666 0.84009 0.8247 0.0
O390 O 0.60754 0.86008 0.9939 0.0
O391 O 0.62001 0.85762 0.92326 0.0
Co392 Co 0.156 0.75149 0.92592 0.0
O393 O 0.13971 0.73304 0.89297 0.0
O394 O 0.16034 0.73478 0.93343 0.0
C395 C 0.14033 0.75773 0.97294 0.0
O396 O 0.17466 0.7682 0.96758 0.0
Co397 Co 0.1593 0.78341 0.89993 0.0
O398 O 0.17536 0.79087 0.95878 0.0
C399 C 0.16715 0.76736 0.81441 0.0
C400 C 0.14714 0.72623 0.90901 0.0
C401 C 0.18049 0.78259 0.97928 0.0
O402 O 0.16708 0.75795 0.85128 0.0
O403 O 0.16264 0.777 0.8244 0.0
O404 O 0.14366 0.74781 0.99391 0.0
O405 O 0.14554 0.76253 0.92335 0.0
Co406 Co 0.2515 0.41066 0.94347 0.0
O407 O 0.26891 0.41107 0.90814 0.0
O408 O 0.2692 0.43122 0.94709 0.0
C409 C 0.24417 0.38901 0.99338 0.0
O410 O 0.23616 0.41446 0.98673 0.0
Co411 Co 0.21826 0.38325 0.92217 0.0
O412 O 0.21234 0.39389 0.97814 0.0
C413 C 0.23493 0.40578 0.83355 0.0
C414 C 0.27672 0.42549 0.92203 0.0
C415 C 0.22167 0.40713 -0.00189 0.0
O416 O 0.24477 0.4152 0.86925 0.0
O417 O 0.22484 0.39191 0.8453 0.0
O418 O 0.25528 0.40206 0.01154 0.0
O419 O 0.239 0.38929 0.94437 0.0
Co420 Co 0.15597 0.40876 0.44175 0.0
O421 O 0.14067 0.41227 0.40706 0.0
O422 O 0.16011 0.42934 0.45858 0.0
C423 C 0.1395 0.38542 0.47834 0.0
O424 O 0.17361 0.40925 0.4858 0.0
Co425 Co 0.16016 0.3813 0.40492 0.0
O426 O 0.17492 0.38793 0.4681 0.0
C427 C 0.17029 0.4082 0.33136 0.0
C428 C 0.14786 0.42587 0.42942 0.0
C429 C 0.17944 0.40055 0.49423 0.0
O430 O 0.16891 0.41602 0.37135 0.0
O431 O 0.16581 0.39386 0.33476 0.0
O432 O 0.1421 0.39789 0.50421 0.0
O433 O 0.14571 0.38745 0.42959 0.0
Co434 Co 0.59394 0.75074 0.42539 0.0
O435 O 0.58982 0.73157 0.39195 0.0
O436 O 0.57271 0.73515 0.43796 0.0
C437 C 0.61615 0.75609 0.46828 0.0
O438 O 0.59398 0.76843 0.46763 0.0
Co439 Co 0.62332 0.78153 0.39347 0.0
O440 O 0.61651 0.79027 0.45402 0.0
C441 C 0.59778 0.76608 0.31333 0.0
C442 C 0.57595 0.72584 0.41129 0.0
C443 C 0.60336 0.78279 0.47738 0.0
O444 O 0.58875 0.75729 0.35212 0.0
O445 O 0.61222 0.77512 0.3202 0.0
O446 O 0.603 0.74672 0.49133 0.0
O447 O 0.6154 0.76064 0.41857 0.0
Co448 Co 0.25293 0.84536 0.42548 0.0
O449 O 0.27206 0.86013 0.39094 0.0
O450 O 0.26827 0.83935 0.43692 0.0
C451 C 0.24823 0.86262 0.46885 0.0
O452 O 0.23531 0.82794 0.46878 0.0
Co453 Co 0.22219 0.84439 0.3966 0.0
O454 O 0.21365 0.8291 0.45808 0.0
C455 C 0.23684 0.83386 0.31455 0.0
C456 C 0.27764 0.85182 0.40993 0.0
C457 C 0.22111 0.82326 0.48027 0.0
O458 O 0.2458 0.8335 0.35247 0.0
O459 O 0.22805 0.8395 0.32259 0.0
O460 O 0.2575 0.85862 0.49131 0.0
O461 O 0.24332 0.8572 0.41951 0.0
Co462 Co 0.07245 0.48945 0.38564 0.0
O463 O 0.07602 0.47441 0.42235 0.0
O464 O 0.09345 0.49432 0.37366 0.0
C465 C 0.04988 0.47248 0.34486 0.0
O466 O 0.07313 0.50695 0.34008 0.0
Co467 Co 0.04391 0.49266 0.41373 0.0
O468 O 0.05127 0.50768 0.35131 0.0
C469 C 0.06933 0.50277 0.49459 0.0
C470 C 0.08991 0.48203 0.40261 0.0
C471 C 0.06437 0.51253 0.32844 0.0
O472 O 0.07815 0.50211 0.45686 0.0
O473 O 0.05499 0.49784 0.48718 0.0
O474 O 0.06285 0.47562 0.32176 0.0
O475 O 0.05098 0.47862 0.39324 0.0
Co476 Co 0.51192 0.58669 0.38389 0.0
O477 O 0.52698 0.60568 0.41864 0.0
O478 O 0.50673 0.60255 0.37057 0.0
C479 C 0.52884 0.58105 0.34311 0.0
O480 O 0.49433 0.56943 0.33998 0.0
Co481 Co 0.50924 0.55529 0.41433 0.0
O482 O 0.49415 0.54714 0.35212 0.0
C483 C 0.49909 0.57079 0.49419 0.0
C484 C 0.51915 0.61165 0.39835 0.0
C485 C 0.489 0.55509 0.32896 0.0
O486 O 0.49962 0.5801 0.45598 0.0
O487 O 0.50404 0.56138 0.48727 0.0
O488 O 0.52546 0.59064 0.31938 0.0
O489 O 0.52299 0.57632 0.39207 0.0
Co490 Co 0.41697 0.92547 0.38569 0.0
O491 O 0.39791 0.92178 0.41902 0.0
O492 O 0.40095 0.90451 0.37162 0.0
C493 C 0.42318 0.94815 0.34468 0.0
O494 O 0.43433 0.92497 0.34321 0.0
Co495 Co 0.44838 0.95396 0.41843 0.0
O496 O 0.45664 0.94703 0.35658 0.0
C497 C 0.43219 0.9282 0.49731 0.0
C498 C 0.39185 0.90796 0.39866 0.0
C499 C 0.44873 0.93397 0.33301 0.0
O500 O 0.42305 0.91954 0.45844 0.0
O501 O 0.44176 0.94254 0.49099 0.0
O502 O 0.41354 0.93526 0.32057 0.0
O503 O 0.42754 0.9469 0.39415 0.0
H504 H 0.24537 0.20404 0.18195 0.0
H505 H 0.2028 0.24368 0.31407 0.0
H506 H 0.22512 0.19033 0.34601 0.0
H507 H 0.19234 0.22725 0.14402 0.0
H508 H 0.21565 0.22854 0.32745 0.0
H509 H 0.23042 0.21707 0.16686 0.0
C510 C 0.23776 0.20376 0.21464 0.0
C511 C 0.2364 0.1961 0.2652 0.0
C512 C 0.21047 0.22824 0.28737 0.0
C513 C 0.21974 0.21119 0.24883 0.0
C514 C 0.20321 0.23687 0.27966 0.0
C515 C 0.19649 0.23661 0.22797 0.0
C516 C 0.21142 0.21974 0.24252 0.0
C517 C 0.1973 0.22762 0.18462 0.0
C518 C 0.22924 0.21111 0.20593 0.0
C519 C 0.22639 0.19604 0.30631 0.0
N520 N 0.20485 0.21968 0.19257 0.0
N521 N 0.2186 0.20368 0.29759 0.0
H522 H 0.82107 0.03942 0.3307 0.0
H523 H 0.78207 0.96189 0.15683 0.0
H524 H 0.80313 0.03821 0.16566 0.0
H525 H 0.7661 0.96305 0.32323 0.0
H526 H 0.79837 0.99011 0.15941 0.0
H527 H 0.80929 0.01122 0.32772 0.0
C528 C 0.81496 0.03325 0.29341 0.0
C529 C 0.813 0.04106 0.24837 0.0
C530 C 0.79147 0.98408 0.19556 0.0
C531 C 0.79992 0.00914 0.24439 0.0
C532 C 0.78228 0.96806 0.1943 0.0
C533 C 0.77275 0.96023 0.23988 0.0
C534 C 0.79146 0.99217 0.2434 0.0
C535 C 0.77326 0.96873 0.28723 0.0
C536 C 0.80821 0.01724 0.29193 0.0
C537 C 0.80483 0.03255 0.20126 0.0
N538 N 0.78253 0.98428 0.28793 0.0
N539 N 0.79862 0.01702 0.20033 0.0
H540 H 0.96211 0.7636 0.16589 0.0
H541 H 0.0395 0.80174 0.32273 0.0
H542 H 0.9631 0.78021 0.33308 0.0
H543 H 0.0385 0.81821 0.15707 0.0
H544 H 0.01141 0.79031 0.32846 0.0
H545 H 0.99022 0.78015 0.16069 0.0
C546 C 0.96826 0.77085 0.20122 0.0
C547 C 0.96036 0.77064 0.24989 0.0
C548 C 0.01741 0.79662 0.29126 0.0
C549 C 0.99232 0.78909 0.24483 0.0
C550 C 0.03336 0.80308 0.28789 0.0
C551 C 0.04125 0.81095 0.23947 0.0
C552 C 0.00931 0.79757 0.24507 0.0
C553 C 0.03281 0.81233 0.1953 0.0
C554 C 0.98421 0.78029 0.19815 0.0
C555 C 0.96881 0.78018 0.29468 0.0
N556 N 0.01721 0.80541 0.19863 0.0
N557 N 0.98442 0.78881 0.29157 0.0
H558 H 0.82609 0.7881 0.7708 0.0
H559 H 0.74467 0.78319 0.76475 0.0
H560 H 0.78388 0.74727 0.72396 0.0
H561 H 0.7858 0.82594 0.72536 0.0
H562 H 0.75979 0.77034 0.76691 0.0
H563 H 0.8124 0.80277 0.76825 0.0
C564 C 0.81401 0.78226 0.75965 0.0
C565 C 0.80611 0.76644 0.74755 0.0
C566 C 0.76553 0.78255 0.75792 0.0
C567 C 0.79045 0.78298 0.74584 0.0
C568 C 0.75693 0.78993 0.75704 0.0
C569 C 0.76397 0.80567 0.74466 0.0
C570 C 0.78138 0.79094 0.74714 0.0
C571 C 0.77992 0.81377 0.73488 0.0
C572 C 0.80625 0.79062 0.7582 0.0
C573 C 0.79047 0.75944 0.73345 0.0
N574 N 0.78814 0.80632 0.73649 0.0
N575 N 0.78314 0.7677 0.73356 0.0
H576 H 0.22146 0.03503 0.8562 0.0
H577 H 0.18513 0.96184 0.6601 0.0
H578 H 0.23825 0.03854 0.68765 0.0
H579 H 0.20198 0.95976 0.82397 0.0
H580 H 0.19686 0.9899 0.67066 0.0
H581 H 0.20633 0.0069 0.84548 0.0
C582 C 0.22173 0.02989 0.81667 0.0
C583 C 0.23112 0.03902 0.77275 0.0
C584 C 0.19777 0.9832 0.70441 0.0
C585 C 0.2137 0.00717 0.76006 0.0
C586 C 0.19104 0.96726 0.69864 0.0
C587 C 0.19267 0.95858 0.74125 0.0
C588 C 0.20567 0.99031 0.75382 0.0
C589 C 0.20057 0.96612 0.79015 0.0
C590 C 0.21319 0.01392 0.81077 0.0
C591 C 0.2312 0.03183 0.72253 0.0
N592 N 0.20671 0.98159 0.79533 0.0
N593 N 0.22254 0.01628 0.71735 0.0
H594 H 0.03731 0.21186 0.69926 0.0
H595 H 0.9621 0.21864 0.72385 0.0
H596 H 0.03785 0.25344 0.74912 0.0
H597 H 0.96014 0.17549 0.75796 0.0
H598 H 0.99 0.23113 0.71723 0.0
H599 H 0.00906 0.1978 0.70739 0.0
C600 C 0.03151 0.218 0.71217 0.0
C601 C 0.03993 0.23384 0.72352 0.0
C602 C 0.98348 0.21892 0.7261 0.0
C603 C 0.00782 0.21796 0.73174 0.0
C604 C 0.96753 0.21174 0.72952 0.0
C605 C 0.95877 0.19599 0.7416 0.0
C606 C 0.99081 0.2103 0.73395 0.0
C607 C 0.96649 0.18768 0.74874 0.0
C608 C 0.01545 0.20997 0.71685 0.0
C609 C 0.03186 0.24124 0.74009 0.0
N610 N 0.98212 0.19493 0.74457 0.0
N611 N 0.01627 0.23328 0.74313 0.0
H612 H 0.86851 0.57538 0.6611 0.0
H613 H 0.9046 0.53325 0.50882 0.0
H614 H 0.85122 0.55679 0.49721 0.0
H615 H 0.88777 0.51885 0.67664 0.0
H616 H 0.88903 0.54585 0.50224 0.0
H617 H 0.87974 0.55856 0.66815 0.0
C618 C 0.86699 0.56767 0.62687 0.0
C619 C 0.8589 0.56737 0.57862 0.0
C620 C 0.88865 0.53977 0.54017 0.0
C621 C 0.87203 0.54862 0.58573 0.0
C622 C 0.89751 0.53263 0.54401 0.0
C623 C 0.89736 0.52496 0.59322 0.0
C624 C 0.88007 0.53969 0.5866 0.0
C625 C 0.88806 0.52454 0.63781 0.0
C626 C 0.87333 0.55809 0.631 0.0
C627 C 0.85728 0.55723 0.53528 0.0
N628 N 0.87999 0.53208 0.6339 0.0
N629 N 0.86405 0.54844 0.53935 0.0
H630 H 0.43011 0.29451 0.66222 0.0
H631 H 0.46851 0.37234 0.50614 0.0
H632 H 0.44796 0.29626 0.49661 0.0
H633 H 0.48394 0.3713 0.67363 0.0
H634 H 0.457 0.34424 0.50073 0.0
H635 H 0.44597 0.32269 0.6681 0.0
C636 C 0.43746 0.30084 0.62736 0.0
C637 C 0.43782 0.29313 0.57896 0.0
C638 C 0.46307 0.35024 0.53834 0.0
C639 C 0.45548 0.32514 0.58479 0.0
C640 C 0.46957 0.36619 0.54152 0.0
C641 C 0.47721 0.37407 0.5903 0.0
C642 C 0.46374 0.34212 0.58499 0.0
C643 C 0.47824 0.36561 0.63514 0.0
C644 C 0.4465 0.31683 0.63083 0.0
C645 C 0.44748 0.30181 0.53481 0.0
N646 N 0.4713 0.35001 0.63188 0.0
N647 N 0.45573 0.31743 0.53829 0.0
H648 H 0.70628 0.11487 0.61561 0.0
H649 H 0.63101 0.12198 0.60652 0.0
H650 H 0.70968 0.15821 0.57253 0.0
H651 H 0.6319 0.08085 0.56073 0.0
H652 H 0.65939 0.13607 0.60939 0.0
H653 H 0.67835 0.10273 0.61408 0.0
C654 C 0.70116 0.1219 0.60638 0.0
C655 C 0.71035 0.13758 0.59391 0.0
C656 C 0.65328 0.12398 0.5984 0.0
C657 C 0.67826 0.12367 0.59215 0.0
C658 C 0.63715 0.11595 0.59675 0.0
C659 C 0.62908 0.10022 0.58331 0.0
C660 C 0.66128 0.11609 0.58784 0.0
C661 C 0.6376 0.09296 0.57113 0.0
C662 C 0.68519 0.11492 0.60516 0.0
C663 C 0.70301 0.14607 0.58216 0.0
N664 N 0.65317 0.1009 0.57426 0.0
N665 N 0.68734 0.139 0.58164 0.0
H666 H 0.45122 0.07743 0.05887 0.0
H667 H 0.45553 0.15858 0.05364 0.0
H668 H 0.49361 0.11878 0.09997 0.0
H669 H 0.41455 0.11614 0.09711 0.0
H670 H 0.47026 0.14499 0.05676 0.0
H671 H 0.43809 0.09229 0.05647 0.0
C672 C 0.45782 0.08968 0.06697 0.0
C673 C 0.47354 0.09687 0.07981 0.0
C674 C 0.45806 0.13876 0.06592 0.0
C675 C 0.45851 0.11397 0.07697 0.0
C676 C 0.44966 0.14646 0.06409 0.0
C677 C 0.43379 0.13848 0.07516 0.0
C678 C 0.45043 0.12293 0.07763 0.0
C679 C 0.42676 0.12279 0.08845 0.0
C680 C 0.45027 0.09813 0.06593 0.0
C681 C 0.48146 0.11279 0.09011 0.0
N682 N 0.43508 0.11552 0.08875 0.0
N683 N 0.47386 0.12086 0.08826 0.0
H684 H 0.8652 0.29347 0.17847 0.0
H685 H 0.90313 0.36969 0.01473 0.0
H686 H 0.84861 0.29294 0.01162 0.0
H687 H 0.88573 0.36959 0.17978 0.0
H688 H 0.8868 0.3415 0.01168 0.0
H689 H 0.87646 0.32157 0.18097 0.0
C690 C 0.86378 0.29928 0.14271 0.0
C691 C 0.85591 0.29096 0.09492 0.0
C692 C 0.88645 0.34773 0.04815 0.0
C693 C 0.86915 0.32291 0.09678 0.0
C694 C 0.89576 0.36373 0.05001 0.0
C695 C 0.89569 0.3719 0.09748 0.0
C696 C 0.8775 0.33988 0.09489 0.0
C697 C 0.886 0.36368 0.14226 0.0
C698 C 0.87016 0.31523 0.1442 0.0
C699 C 0.85447 0.29898 0.04943 0.0
N700 N 0.87751 0.34805 0.14039 0.0
N701 N 0.86133 0.3146 0.05095 0.0
H702 H 0.62947 0.51777 0.17106 0.0
H703 H 0.70548 0.55679 0.99046 0.0
H704 H 0.62905 0.53577 0.00766 0.0
H705 H 0.70579 0.57298 0.15784 0.0
H706 H 0.67723 0.54098 0.99527 0.0
H707 H 0.65767 0.53013 0.1654 0.0
C708 C 0.6353 0.52407 0.13361 0.0
C709 C 0.62701 0.52582 0.08976 0.0
C710 C 0.68358 0.54786 0.03106 0.0
C711 C 0.65896 0.53956 0.08273 0.0
C712 C 0.69961 0.55676 0.02856 0.0
C713 C 0.70788 0.56617 0.07386 0.0
C714 C 0.6759 0.54803 0.07984 0.0
C715 C 0.69977 0.5659 0.12204 0.0
C716 C 0.65131 0.53114 0.13062 0.0
C717 C 0.63508 0.53423 0.04239 0.0
N718 N 0.6842 0.55688 0.12398 0.0
N719 N 0.65065 0.54074 0.0399 0.0
H720 H 0.51071 0.88185 0.88394 0.0
H721 H 0.59236 0.8871 0.88214 0.0
H722 H 0.55318 0.92317 0.92438 0.0
H723 H 0.55143 0.84455 0.92513 0.0
H724 H 0.57726 0.89999 0.88078 0.0
H725 H 0.52459 0.8674 0.88497 0.0
C726 C 0.52289 0.88785 0.89332 0.0
C727 C 0.5308 0.90373 0.90417 0.0
C728 C 0.57156 0.88782 0.89037 0.0
C729 C 0.54668 0.88742 0.90417 0.0
C730 C 0.58015 0.88041 0.89079 0.0
C731 C 0.57316 0.86472 0.90395 0.0
C732 C 0.55577 0.87948 0.90239 0.0
C733 C 0.55728 0.85668 0.91497 0.0
C734 C 0.53077 0.87961 0.89391 0.0
C735 C 0.54659 0.91094 0.91599 0.0
N736 N 0.54907 0.86415 0.9138 0.0
N737 N 0.55402 0.90277 0.91512 0.0
H738 H 0.07993 0.63092 0.93132 0.0
H739 H 0.16048 0.7082 0.92476 0.0
H740 H 0.12057 0.62971 0.88062 0.0
H741 H 0.11743 0.7057 0.8835 0.0
H742 H 0.14726 0.67984 0.92342 0.0
H743 H 0.09479 0.65889 0.93196 0.0
C744 C 0.09203 0.63653 0.92081 0.0
C745 C 0.09899 0.62794 0.90565 0.0
C746 C 0.14082 0.6856 0.91429 0.0
C747 C 0.11612 0.6601 0.90642 0.0
C748 C 0.14832 0.70172 0.91507 0.0
C749 C 0.14004 0.70932 0.90423 0.0
C750 C 0.12492 0.67713 0.90395 0.0
C751 C 0.1243 0.70037 0.89199 0.0
C752 C 0.10048 0.65252 0.92084 0.0
C753 C 0.11475 0.63591 0.89234 0.0
N754 N 0.11725 0.6848 0.89281 0.0
N755 N 0.12284 0.6516 0.89317 0.0
H756 H 0.29559 0.41452 0.89253 0.0
H757 H 0.37393 0.49459 0.88398 0.0
H758 H 0.29631 0.45671 0.93393 0.0
H759 H 0.37125 0.45149 0.92554 0.0
H760 H 0.34563 0.48164 0.88748 0.0
H761 H 0.32359 0.42869 0.88706 0.0
C762 C 0.30163 0.42681 0.89993 0.0
C763 C 0.29359 0.43443 0.91393 0.0
C764 C 0.35132 0.47511 0.89607 0.0
C765 C 0.32573 0.45075 0.90768 0.0
C766 C 0.36741 0.48246 0.89406 0.0
C767 C 0.37494 0.47411 0.90462 0.0
C768 C 0.34278 0.45927 0.90743 0.0
C769 C 0.36596 0.45841 0.91738 0.0
C770 C 0.31763 0.43487 0.89716 0.0
C771 C 0.30207 0.45039 0.92322 0.0
N772 N 0.35038 0.45149 0.91791 0.0
N773 N 0.31773 0.45806 0.91982 0.0
H774 H 0.09271 0.46683 0.49238 0.0
H775 H 0.13404 0.43006 0.33849 0.0
H776 H 0.11138 0.48383 0.32838 0.0
H777 H 0.14761 0.44542 0.50827 0.0
H778 H 0.12202 0.44615 0.33262 0.0
H779 H 0.10922 0.45527 0.49966 0.0
C780 C 0.10039 0.46823 0.45819 0.0
C781 C 0.10077 0.4763 0.40979 0.0
C782 C 0.12779 0.4461 0.37086 0.0
C783 C 0.11919 0.46281 0.4172 0.0
C784 C 0.13458 0.43692 0.37431 0.0
C785 C 0.14184 0.43651 0.42386 0.0
C786 C 0.1278 0.45444 0.41794 0.0
C787 C 0.14221 0.44556 0.46922 0.0
C788 C 0.1098 0.4617 0.46246 0.0
C789 C 0.11087 0.47778 0.36653 0.0
N790 N 0.135 0.45396 0.4656 0.0
N791 N 0.11948 0.47081 0.37074 0.0
H792 H 0.53446 0.63061 0.48603 0.0
H793 H 0.5717 0.70699 0.32288 0.0
H794 H 0.51709 0.63048 0.32088 0.0
H795 H 0.55557 0.70699 0.49006 0.0
H796 H 0.55527 0.67884 0.32006 0.0
H797 H 0.54595 0.65874 0.48927 0.0
C798 C 0.53296 0.63651 0.45074 0.0
C799 C 0.5248 0.62829 0.40321 0.0
C800 C 0.55521 0.68507 0.35698 0.0
C801 C 0.53822 0.66026 0.40602 0.0
C802 C 0.56456 0.70105 0.35868 0.0
C803 C 0.56487 0.70924 0.40665 0.0
C804 C 0.54661 0.67724 0.40436 0.0
C805 C 0.5555 0.70105 0.45214 0.0
C806 C 0.53945 0.65248 0.45272 0.0
C807 C 0.52321 0.63643 0.35845 0.0
N808 N 0.54697 0.68542 0.45039 0.0
N809 N 0.53015 0.65204 0.36042 0.0
H810 H 0.37285 0.90422 0.48613 0.0
H811 H 0.29663 0.86667 0.32197 0.0
H812 H 0.37298 0.88755 0.31998 0.0
H813 H 0.29629 0.84958 0.48775 0.0
H814 H 0.32475 0.87807 0.31919 0.0
H815 H 0.34467 0.88787 0.48856 0.0
C816 C 0.36694 0.89701 0.45044 0.0
C817 C 0.37517 0.89713 0.40288 0.0
C818 C 0.31845 0.87164 0.35577 0.0
C819 C 0.34315 0.87892 0.40477 0.0
C820 C 0.30248 0.86519 0.35745 0.0
C821 C 0.2942 0.85714 0.40504 0.0
C822 C 0.32617 0.87051 0.40282 0.0
C823 C 0.30229 0.85559 0.45012 0.0
C824 C 0.35094 0.88769 0.45194 0.0
C825 C 0.36701 0.88764 0.35757 0.0
N826 N 0.3179 0.86251 0.44844 0.0
N827 N 0.35138 0.87913 0.35912 0.0
H828 H 0.11258 0.24152 0.81795 0.0
H829 H 0.12995 0.27098 0.13083 0.0
H830 H 0.08995 0.2623 0.90438 0.0
H831 H 0.15122 0.24776 0.05088 0.0
H832 H 0.11179 0.26344 0.05376 0.0
H833 H 0.12277 0.23859 0.90748 0.0
C834 C 0.10921 0.24481 0.85627 0.0
C835 C 0.10033 0.252 0.85436 0.0
C836 C 0.12031 0.25983 0.05311 0.0
C837 C 0.11241 0.24936 0.95611 0.0
C838 C 0.13078 0.26423 0.09704 0.0
C839 C 0.14234 0.26027 0.09674 0.0
C840 C 0.1215 0.25159 0.0078 0.0
C841 C 0.14259 0.25121 0.05246 0.0
C842 C 0.11517 0.24333 0.90723 0.0
C843 C 0.09662 0.25653 0.90456 0.0
N844 N 0.13249 0.24739 0.00921 0.0
N845 N 0.10288 0.25535 0.95336 0.0
H846 H 0.71979 0.85548 0.16015 0.0
H847 H 0.75838 0.86102 0.86314 0.0
H848 H 0.75498 0.89829 0.08937 0.0
H849 H 0.72021 0.82001 0.93192 0.0
H850 H 0.76178 0.87389 0.95401 0.0
H851 H 0.72414 0.84159 0.08564 0.0
C852 C 0.72853 0.86198 0.12909 0.0
C853 C 0.73683 0.87811 0.13051 0.0
C854 C 0.75293 0.86195 0.9496 0.0
C855 C 0.74181 0.8622 0.04431 0.0
C856 C 0.75112 0.85457 0.89803 0.0
C857 C 0.73897 0.83949 0.89035 0.0
C858 C 0.74253 0.8541 0.99333 0.0
C859 C 0.72968 0.83168 0.93631 0.0
C860 C 0.73104 0.85402 0.08653 0.0
C861 C 0.74821 0.88586 0.08963 0.0
N862 N 0.73153 0.83912 0.98557 0.0
N863 N 0.7502 0.87784 0.04762 0.0
H864 H 0.10089 0.85445 0.07792 0.0
H865 H 0.18155 0.90438 0.92498 0.0
H866 H 0.14481 0.86371 0.14313 0.0
H867 H 0.13837 0.89296 0.8477 0.0
H868 H 0.16836 0.8947 0.01408 0.0
H869 H 0.11431 0.87279 0.00187 0.0
C870 C 0.11334 0.86049 0.07675 0.0
C871 C 0.12173 0.85734 0.11646 0.0
C872 C 0.16174 0.89456 0.9781 0.0
C873 C 0.13711 0.87835 0.02995 0.0
C874 C 0.16931 0.90023 0.92741 0.0
C875 C 0.161 0.89945 0.87932 0.0
C876 C 0.14564 0.88766 0.9804 0.0
C877 C 0.14515 0.89385 0.88422 0.0
C878 C 0.12098 0.87094 0.03332 0.0
C879 C 0.13784 0.86554 0.11296 0.0
N880 N 0.13789 0.88784 0.93376 0.0
N881 N 0.14496 0.87554 0.07033 0.0
H882 H 0.25228 0.08465 0.5996 0.0
H883 H 0.24565 0.15235 0.45194 0.0
H884 H 0.24616 0.11843 0.68903 0.0
H885 H 0.26688 0.12819 0.37918 0.0
H886 H 0.23719 0.13445 0.53136 0.0
H887 H 0.24816 0.09451 0.5112 0.0
C888 C 0.24937 0.09368 0.60058 0.0
C889 C 0.24948 0.10076 0.65111 0.0
C890 C 0.24348 0.13295 0.49746 0.0
C891 C 0.24532 0.11239 0.55101 0.0
C892 C 0.24832 0.14315 0.45225 0.0
C893 C 0.25727 0.14194 0.40962 0.0
C894 C 0.24745 0.12138 0.49944 0.0
C895 C 0.2603 0.12975 0.41184 0.0
C896 C 0.24722 0.09943 0.55029 0.0
C897 C 0.24605 0.11267 0.65056 0.0
N898 N 0.25551 0.12002 0.45621 0.0
N899 N 0.24433 0.11831 0.6011 0.0
H900 H 0.85729 0.10244 0.39898 0.0
H901 H 0.90159 0.18255 0.55872 0.0
H902 H 0.86303 0.14539 0.33714 0.0
H903 H 0.89619 0.14047 0.6274 0.0
H904 H 0.89237 0.16983 0.46858 0.0
H905 H 0.87553 0.11654 0.47451 0.0
C906 C 0.86253 0.11483 0.40075 0.0
C907 C 0.85841 0.12271 0.36216 0.0
C908 C 0.89347 0.16339 0.50284 0.0
C909 C 0.87929 0.13888 0.44825 0.0
C910 C 0.89887 0.17071 0.55413 0.0
C911 C 0.89961 0.16251 0.60022 0.0
C912 C 0.88836 0.1476 0.49796 0.0
C913 C 0.89585 0.14717 0.59251 0.0
C914 C 0.87294 0.12287 0.44389 0.0
C915 C 0.86562 0.13878 0.36643 0.0
N916 N 0.89005 0.14008 0.54253 0.0
N917 N 0.87557 0.14628 0.40888 0.0
H918 H 0.86402 0.76012 0.63409 0.0
H919 H 0.85626 0.72177 0.3356 0.0
H920 H 0.82141 0.72592 0.55971 0.0
H921 H 0.89994 0.7548 0.40761 0.0
H922 H 0.84316 0.7274 0.40948 0.0
H923 H 0.87704 0.76293 0.54403 0.0
C924 C 0.85731 0.7537 0.5981 0.0
C925 C 0.84167 0.7428 0.6039 0.0
C926 C 0.85562 0.73356 0.40904 0.0
C927 C 0.85641 0.74556 0.50188 0.0
C928 C 0.86312 0.73029 0.36686 0.0
C929 C 0.87923 0.73762 0.36591 0.0
C930 C 0.86422 0.74408 0.45139 0.0
C931 C 0.88749 0.74877 0.40701 0.0
C932 C 0.86475 0.75514 0.54697 0.0
C933 C 0.83351 0.73447 0.55665 0.0
N934 N 0.87989 0.75149 0.44865 0.0
N935 N 0.841 0.73588 0.50789 0.0
H936 H 0.85475 0.75678 0.90762 0.0
H937 H 0.90986 0.73218 0.05832 0.0
H938 H 0.86889 0.72605 0.83879 0.0
H939 H 0.89282 0.75897 0.13955 0.0
H940 H 0.90045 0.7359 0.96882 0.0
H941 H 0.87333 0.76305 0.98403 0.0
C942 C 0.86194 0.75156 0.908 0.0
C943 C 0.86007 0.74066 0.86731 0.0
C944 C 0.89906 0.74131 0.00583 0.0
C945 C 0.88133 0.74782 0.95424 0.0
C946 C 0.90459 0.73932 0.05675 0.0
C947 C 0.90214 0.74535 0.10593 0.0
C948 C 0.89062 0.74903 0.00439 0.0
C949 C 0.89504 0.75429 0.10217 0.0
C950 C 0.87251 0.75513 0.95165 0.0
C951 C 0.86971 0.73429 0.8698 0.0
N952 N 0.88921 0.75561 0.05232 0.0
N953 N 0.87979 0.73786 0.91271 0.0
H954 H 0.27197 0.14052 0.87595 0.0
H955 H 0.24293 0.12824 0.18562 0.0
H956 H 0.24495 0.09529 0.94792 0.0
H957 H 0.25937 0.17099 0.09729 0.0
H958 H 0.23944 0.11498 0.09617 0.0
H959 H 0.26431 0.15119 0.95271 0.0
C960 C 0.26435 0.13282 0.90787 0.0
C961 C 0.25932 0.11703 0.90614 0.0
C962 C 0.2433 0.12716 0.09604 0.0
C963 C 0.25051 0.1292 0.99451 0.0
C964 C 0.24511 0.13467 0.14704 0.0
C965 C 0.2513 0.15064 0.1483 0.0
C966 C 0.24814 0.13583 0.04645 0.0
C967 C 0.2544 0.15862 0.09764 0.0
C968 C 0.25986 0.1389 0.9515 0.0
C969 C 0.24922 0.10755 0.94799 0.0
N970 N 0.25309 0.15118 0.0487 0.0
N971 N 0.24536 0.11382 0.9911 0.0
H972 H 0.86531 0.10585 0.13263 0.0
H973 H 0.85587 0.13211 0.82851 0.0
H974 H 0.82212 0.09386 0.05408 0.0
H975 H 0.90006 0.14707 0.90508 0.0
H976 H 0.84365 0.11317 0.90251 0.0
H977 H 0.87837 0.1158 0.04241 0.0
C978 C 0.85853 0.10476 0.09583 0.0
C979 C 0.84266 0.09909 0.10041 0.0
C980 C 0.85604 0.12044 0.903 0.0
C981 C 0.85742 0.11069 -0.00191 0.0
C982 C 0.86303 0.1313 0.86071 0.0
C983 C 0.87898 0.14138 0.86119 0.0
C984 C 0.86499 0.11978 0.94697 0.0
C985 C 0.8877 0.13959 0.9034 0.0
C986 C 0.86598 0.11059 0.04457 0.0
C987 C 0.83439 0.09819 0.05204 0.0
N988 N 0.88056 0.1292 0.9453 0.0
N989 N 0.84187 0.1041 0.00313 0.0
H990 H 0.76099 0.89612 0.35862 0.0
H991 H 0.72519 0.8701 0.66246 0.0
H992 H 0.72989 0.9083 0.43663 0.0
H993 H 0.75455 0.85523 0.58656 0.0
H994 H 0.73202 0.88909 0.58855 0.0
H995 H 0.76419 0.88639 0.44917 0.0
C996 C 0.75535 0.89731 0.39536 0.0
C997 C 0.74514 0.90294 0.39053 0.0
C998 C 0.73715 0.88183 0.58821 0.0
C999 C 0.74838 0.89159 0.49324 0.0
C1000 C 0.73321 0.87094 0.63044 0.0
C1001 C 0.73908 0.86087 0.6301 0.0
C1002 C 0.74682 0.88252 0.54444 0.0
C1003 C 0.74966 0.86269 0.58812 0.0
C1004 C 0.75702 0.89161 0.44682 0.0
C1005 C 0.73784 0.90399 0.43885 0.0
N1006 N 0.75297 0.87311 0.54628 0.0
N1007 N 0.73944 0.89818 0.48797 0.0
H1008 H 0.10733 0.8648 0.34871 0.0
H1009 H 0.13684 0.85549 0.6464 0.0
H1010 H 0.09511 0.82148 0.42647 0.0
H1011 H 0.14868 0.89968 0.57646 0.0
H1012 H 0.11773 0.84299 0.57311 0.0
H1013 H 0.1182 0.87786 0.43823 0.0
C1014 C 0.10637 0.858 0.38529 0.0
C1015 C 0.10037 0.84209 0.38062 0.0
C1016 C 0.12437 0.85543 0.57388 0.0
C1017 C 0.11308 0.85684 0.48202 0.0
C1018 C 0.13536 0.86258 0.6157 0.0
C1019 C 0.14456 0.87865 0.61705 0.0
C1020 C 0.12268 0.86435 0.53222 0.0
C1021 C 0.14191 0.88725 0.57671 0.0
C1022 C 0.11273 0.86544 0.43614 0.0
C1023 C 0.09966 0.83378 0.42863 0.0
N1024 N 0.13138 0.87998 0.53532 0.0
N1025 N 0.10614 0.84126 0.47707 0.0
H1026 H 0.14073 0.26627 0.62865 0.0
H1027 H 0.1286 0.24091 0.3158 0.0
H1028 H 0.09576 0.24184 0.55268 0.0
H1029 H 0.17117 0.25605 0.40412 0.0
H1030 H 0.1151 0.23581 0.40538 0.0
H1031 H 0.15101 0.25809 0.55214 0.0
C1032 C 0.13298 0.25904 0.59603 0.0
C1033 C 0.11744 0.255 0.59632 0.0
C1034 C 0.12729 0.23971 0.40538 0.0
C1035 C 0.12917 0.2457 0.50805 0.0
C1036 C 0.13495 0.24244 0.35423 0.0
C1037 C 0.15093 0.24881 0.35308 0.0
C1038 C 0.13585 0.24381 0.45532 0.0
C1039 C 0.15878 0.25102 0.40365 0.0
C1040 C 0.13883 0.25427 0.55247 0.0
C1041 C 0.10786 0.24536 0.55367 0.0
N1042 N 0.15121 0.24884 0.45287 0.0
N1043 N 0.11394 0.2413 0.51053 0.0
H1044 H 0.81414 0.58097 0.41805 0.0
H1045 H 0.759 0.6055 0.26627 0.0
H1046 H 0.80292 0.61455 0.4801 0.0
H1047 H 0.77518 0.57774 0.18685 0.0
H1048 H 0.76925 0.60274 0.35542 0.0
H1049 H 0.79512 0.57442 0.34315 0.0
C1050 C 0.80755 0.58682 0.41642 0.0
C1051 C 0.81031 0.59851 0.4549 0.0
C1052 C 0.77026 0.5969 0.31894 0.0
C1053 C 0.78849 0.59097 0.36977 0.0
C1054 C 0.76423 0.59832 0.26827 0.0
C1055 C 0.76623 0.59177 0.21957 0.0
C1056 C 0.77869 0.58919 0.32059 0.0
C1057 C 0.7733 0.58281 0.22385 0.0
C1058 C 0.7967 0.58306 0.37367 0.0
C1059 C 0.80139 0.60565 0.45085 0.0
N1060 N 0.77959 0.58203 0.27339 0.0
N1061 N 0.79099 0.60184 0.40891 0.0
H1062 H 0.42868 0.19741 0.18893 0.0
H1063 H 0.39453 0.18965 0.49535 0.0
H1064 H 0.39612 0.15479 0.2676 0.0
H1065 H 0.42355 0.23336 0.41523 0.0
H1066 H 0.40022 0.17687 0.42045 0.0
H1067 H 0.43237 0.21069 0.279 0.0
C1068 C 0.42283 0.19077 0.22579 0.0
C1069 C 0.41213 0.17503 0.22132 0.0
C1070 C 0.4055 0.18927 0.41933 0.0
C1071 C 0.4159 0.19005 0.32341 0.0
C1072 C 0.4022 0.19659 0.46209 0.0
C1073 C 0.40832 0.21258 0.46101 0.0
C1074 C 0.41483 0.19793 0.3744 0.0
C1075 C 0.41845 0.22099 0.41742 0.0
C1076 C 0.42478 0.19835 0.27693 0.0
C1077 C 0.40452 0.16695 0.26966 0.0
N1078 N 0.42119 0.21353 0.37525 0.0
N1079 N 0.40641 0.17458 0.31851 0.0
H1080 H 0.8051 0.22757 0.21358 0.0
H1081 H 0.81441 0.19867 0.51308 0.0
H1082 H 0.84813 0.23713 0.28747 0.0
H1083 H 0.77029 0.18631 0.44103 0.0
H1084 H 0.82698 0.21762 0.43933 0.0
H1085 H 0.79236 0.21759 0.30427 0.0
C1086 C 0.81194 0.22811 0.24948 0.0
C1087 C 0.82763 0.23308 0.24335 0.0
C1088 C 0.81453 0.21091 0.4398 0.0
C1089 C 0.81323 0.22145 0.34619 0.0
C1090 C 0.80734 0.20004 0.48194 0.0
C1091 C 0.79129 0.19069 0.48267 0.0
C1092 C 0.80566 0.21232 0.39722 0.0
C1093 C 0.78272 0.1932 0.44178 0.0
C1094 C 0.80467 0.22227 0.301 0.0
C1095 C 0.83598 0.23332 0.29064 0.0
N1096 N 0.79003 0.20359 0.40004 0.0
N1097 N 0.82865 0.2274 0.3398 0.0
H1098 H 0.91044 0.48007 0.75812 0.0
H1099 H 0.93332 0.42329 0.90761 0.0
H1100 H 0.94218 0.46684 0.69236 0.0
H1101 H 0.90765 0.44142 0.99008 0.0
H1102 H 0.9305 0.43371 0.81891 0.0
H1103 H 0.90403 0.46142 0.8343 0.0
C1104 C 0.91591 0.47312 0.75924 0.0
C1105 C 0.92705 0.4752 0.71927 0.0
C1106 C 0.92512 0.43511 0.856 0.0
C1107 C 0.91968 0.4538 0.80582 0.0
C1108 C 0.92657 0.42898 0.90641 0.0
C1109 C 0.92059 0.43142 0.95575 0.0
C1110 C 0.91797 0.44409 0.85524 0.0
C1111 C 0.91223 0.43915 0.95254 0.0
C1112 C 0.91225 0.46249 0.80272 0.0
C1113 C 0.93373 0.46584 0.72272 0.0
N1114 N 0.91141 0.4455 0.9032 0.0
N1115 N 0.93001 0.45566 0.76534 0.0
H1116 H 0.56139 0.4698 0.98023 0.0
H1117 H 0.53329 0.47792 0.67735 0.0
H1118 H 0.5722 0.51267 0.90192 0.0
H1119 H 0.52103 0.43404 0.75127 0.0
H1120 H 0.55169 0.49076 0.75245 0.0
H1121 H 0.55113 0.45656 0.89047 0.0
C1122 C 0.56217 0.47648 0.94352 0.0
C1123 C 0.56764 0.49231 0.94804 0.0
C1124 C 0.54511 0.47831 0.7522 0.0
C1125 C 0.55562 0.47733 0.84631 0.0
C1126 C 0.53453 0.47096 0.70931 0.0
C1127 C 0.5254 0.45488 0.70847 0.0
C1128 C 0.54648 0.46959 0.79542 0.0
C1129 C 0.52775 0.44648 0.75053 0.0
C1130 C 0.55616 0.46893 0.89254 0.0
C1131 C 0.5681 0.50045 0.89986 0.0
N1132 N 0.53789 0.45394 0.79286 0.0
N1133 N 0.56199 0.49285 0.85124 0.0
H1134 H 0.569 0.09063 0.73156 0.0
H1135 H 0.48903 0.05998 0.88653 0.0
H1136 H 0.52467 0.05898 0.66059 0.0
H1137 H 0.53243 0.09172 0.96244 0.0
H1138 H 0.50176 0.06449 0.79588 0.0
H1139 H 0.55599 0.09571 0.80856 0.0
C1140 C 0.55656 0.08497 0.73157 0.0
C1141 C 0.54791 0.07413 0.69013 0.0
C1142 C 0.50852 0.07079 0.83191 0.0
C1143 C 0.53297 0.07988 0.77795 0.0
C1144 C 0.50119 0.06832 0.88351 0.0
C1145 C 0.50972 0.07555 0.93156 0.0
C1146 C 0.52459 0.08022 0.8287 0.0
C1147 C 0.52548 0.08606 0.92595 0.0
C1148 C 0.54914 0.08786 0.77558 0.0
C1149 C 0.53182 0.06719 0.69218 0.0
N1150 N 0.53251 0.08785 0.87553 0.0
N1151 N 0.52491 0.07005 0.73559 0.0
H1152 H 0.53912 0.05892 0.15731 0.0
H1153 H 0.56504 0.09499 0.46076 0.0
H1154 H 0.52415 0.0882 0.23328 0.0
H1155 H 0.57694 0.06349 0.38443 0.0
H1156 H 0.55561 0.09825 0.36976 0.0
H1157 H 0.55814 0.06581 0.23123 0.0
C1158 C 0.53993 0.06692 0.18935 0.0
C1159 C 0.52981 0.07274 0.18971 0.0
C1160 C 0.56074 0.09101 0.37251 0.0
C1161 C 0.55154 0.08059 0.27525 0.0
C1162 C 0.5663 0.08932 0.42423 0.0
C1163 C 0.57177 0.079 0.42965 0.0
C1164 C 0.56064 0.08223 0.32645 0.0
C1165 C 0.57282 0.07159 0.38165 0.0
C1166 C 0.55084 0.0709 0.23156 0.0
C1167 C 0.53162 0.08332 0.23171 0.0
N1168 N 0.56711 0.07318 0.33226 0.0
N1169 N 0.54208 0.08669 0.27345 0.0
H1170 H 0.90988 0.43052 0.2558 0.0
H1171 H 0.93438 0.51024 0.40771 0.0
H1172 H 0.94326 0.47534 0.1932 0.0
H1173 H 0.90744 0.46631 0.48814 0.0
H1174 H 0.93153 0.49716 0.31859 0.0
H1175 H 0.90359 0.44298 0.33144 0.0
C1176 C 0.91574 0.44296 0.2575 0.0
C1177 C 0.9273 0.4519 0.21858 0.0
C1178 C 0.92589 0.49033 0.35531 0.0
C1179 C 0.92004 0.46617 0.30454 0.0
C1180 C 0.92735 0.49782 0.40595 0.0
C1181 C 0.92103 0.4893 0.45485 0.0
C1182 C 0.91836 0.47419 0.35392 0.0
C1183 C 0.9123 0.47324 0.45094 0.0
C1184 C 0.91214 0.45005 0.30067 0.0
C1185 C 0.93447 0.46797 0.22274 0.0
N1186 N 0.91145 0.46614 0.4014 0.0
N1187 N 0.9308 0.47456 0.26508 0.0
H1188 H 0.48955 0.42432 0.39953 0.0
H1189 H 0.56886 0.4807 0.24789 0.0
H1190 H 0.53363 0.44194 0.47962 0.0
H1191 H 0.5238 0.46879 0.18643 0.0
H1192 H 0.55668 0.4616 0.32262 0.0
H1193 H 0.5025 0.43459 0.31028 0.0
C1194 C 0.50198 0.42985 0.39767 0.0
C1195 C 0.51058 0.43226 0.44655 0.0
C1196 C 0.5495 0.46305 0.29227 0.0
C1197 C 0.52552 0.44475 0.34547 0.0
C1198 C 0.55642 0.47394 0.24962 0.0
C1199 C 0.54733 0.47654 0.21136 0.0
C1200 C 0.53338 0.4546 0.29628 0.0
C1201 C 0.53128 0.4674 0.21552 0.0
C1202 C 0.50939 0.4359 0.34695 0.0
C1203 C 0.52665 0.43973 0.44247 0.0
N1204 N 0.52485 0.45694 0.25737 0.0
N1205 N 0.53366 0.44603 0.39287 0.0
H1206 H 0.42984 0.22739 0.68852 0.0
H1207 H 0.39544 0.20338 0.99441 0.0
H1208 H 0.40088 0.24199 0.76866 0.0
H1209 H 0.42405 0.18763 0.91819 0.0
H1210 H 0.40236 0.22222 0.91987 0.0
H1211 H 0.43325 0.21788 0.7791 0.0
C1212 C 0.42478 0.2292 0.72573 0.0
C1213 C 0.4151 0.23546 0.72159 0.0
C1214 C 0.4073 0.21479 0.91959 0.0
C1215 C 0.41848 0.22426 0.82433 0.0
C1216 C 0.4033 0.20398 0.96215 0.0
C1217 C 0.40893 0.19371 0.96195 0.0
C1218 C 0.41681 0.21522 0.87568 0.0
C1219 C 0.41932 0.19523 0.91966 0.0
C1220 C 0.42655 0.22361 0.77723 0.0
C1221 C 0.40846 0.23724 0.77045 0.0
N1222 N 0.42271 0.20559 0.87756 0.0
N1223 N 0.41009 0.23147 0.81962 0.0
H1224 H 0.7714 0.19157 0.71463 0.0
H1225 H 0.80447 0.1865 0.01216 0.0
H1226 H 0.76823 0.1506 0.78509 0.0
H1227 H 0.81204 0.22921 0.94077 0.0
H1228 H 0.78617 0.1725 0.9379 0.0
H1229 H 0.78095 0.20464 0.80515 0.0
C1230 C 0.77216 0.18518 0.74979 0.0
C1231 C 0.7691 0.17004 0.74267 0.0
C1232 C 0.79169 0.18493 0.93859 0.0
C1233 C 0.78025 0.18488 0.8453 0.0
C1234 C 0.8022 0.19295 0.98103 0.0
C1235 C 0.81003 0.20908 0.98219 0.0
C1236 C 0.78908 0.19305 0.8962 0.0
C1237 C 0.80636 0.21678 0.94122 0.0
C1238 C 0.77777 0.19267 0.80118 0.0
C1239 C 0.77053 0.16231 0.78901 0.0
N1240 N 0.79633 0.2087 0.8993 0.0
N1241 N 0.77616 0.16986 0.83807 0.0
H1242 H 0.8119 0.6145 0.9885 0.0
H1243 H 0.80389 0.57741 0.68725 0.0
H1244 H 0.76808 0.58215 0.91571 0.0
H1245 H 0.84669 0.61029 0.76426 0.0
H1246 H 0.79073 0.57452 0.77708 0.0
H1247 H 0.82484 0.60896 0.91375 0.0
C1248 C 0.80498 0.60614 0.95688 0.0
C1249 C 0.78888 0.59898 0.95791 0.0
C1250 C 0.80307 0.58204 0.77471 0.0
C1251 C 0.8037 0.59263 0.87136 0.0
C1252 C 0.81059 0.58353 0.7237 0.0
C1253 C 0.82635 0.59409 0.71876 0.0
C1254 C 0.81146 0.59122 0.82056 0.0
C1255 C 0.8345 0.60203 0.76662 0.0
C1256 C 0.81239 0.60293 0.91418 0.0
C1257 C 0.78053 0.58803 0.9163 0.0
N1258 N 0.82694 0.60058 0.81526 0.0
N1259 N 0.78804 0.58537 0.87414 0.0
H1260 H 0.42482 0.93486 0.59789 0.0
H1261 H 0.48037 0.91149 0.75217 0.0
H1262 H 0.4423 0.90811 0.5194 0.0
H1263 H 0.46622 0.94253 0.81786 0.0
H1264 H 0.46163 0.90467 0.6761 0.0
H1265 H 0.43419 0.93154 0.68814 0.0
C1266 C 0.43015 0.92779 0.60025 0.0
C1267 C 0.43276 0.92167 0.55159 0.0
C1268 C 0.46248 0.91278 0.70772 0.0
C1269 C 0.44424 0.91846 0.65395 0.0
C1270 C 0.47315 0.91667 0.75119 0.0
C1271 C 0.47506 0.92781 0.7909 0.0
C1272 C 0.45361 0.92002 0.70427 0.0
C1273 C 0.46537 0.93411 0.78764 0.0
C1274 C 0.43567 0.92603 0.65158 0.0
C1275 C 0.43995 0.91284 0.55635 0.0
N1276 N 0.45519 0.93023 0.74486 0.0
N1277 N 0.44576 0.91175 0.60657 0.0
H1278 H 0.05912 0.52448 0.82469 0.0
H1279 H 0.09157 0.53252 0.51528 0.0
H1280 H 0.08729 0.56829 0.7441 0.0
H1281 H 0.06036 0.48978 0.5964 0.0
H1282 H 0.09557 0.54592 0.60532 0.0
H1283 H 0.06482 0.51191 0.74903 0.0
C1284 C 0.06664 0.53149 0.79122 0.0
C1285 C 0.0725 0.54743 0.79018 0.0
C1286 C 0.08819 0.53355 0.60372 0.0
C1287 C 0.07894 0.53303 0.70254 0.0
C1288 C 0.08606 0.52591 0.55256 0.0
C1289 C 0.07565 0.51007 0.54888 0.0
C1290 C 0.07981 0.52521 0.65099 0.0
C1291 C 0.06849 0.50201 0.59781 0.0
C1292 C 0.06993 0.52429 0.74797 0.0
C1293 C 0.08243 0.55595 0.74628 0.0
N1294 N 0.07057 0.50968 0.64666 0.0
N1295 N 0.08512 0.5486 0.70356 0.0
H1296 H 0.43343 0.52247 0.74813 0.0
H1297 H 0.51286 0.57754 0.59525 0.0
H1298 H 0.47844 0.53582 0.81398 0.0
H1299 H 0.46882 0.56061 0.51569 0.0
H1300 H 0.49995 0.56792 0.68497 0.0
H1301 H 0.44564 0.54111 0.67195 0.0
C1302 C 0.44585 0.52948 0.74713 0.0
C1303 C 0.45493 0.52739 0.78697 0.0
C1304 C 0.49305 0.5666 0.6483 0.0
C1305 C 0.46893 0.54874 0.70027 0.0
C1306 C 0.50045 0.57226 0.59727 0.0
C1307 C 0.49185 0.56991 0.54846 0.0
C1308 C 0.4769 0.55814 0.65021 0.0
C1309 C 0.47581 0.56277 0.55277 0.0
C1310 C 0.4528 0.5401 0.70361 0.0
C1311 C 0.47097 0.53682 0.78367 0.0
N1312 N 0.46879 0.55683 0.60271 0.0
N1313 N 0.47743 0.54696 0.7409 0.0
H1314 H 0.58147 0.81488 0.05926 0.0
H1315 H 0.60536 0.75966 0.21271 0.0
H1316 H 0.61305 0.80137 0.99402 0.0
H1317 H 0.57745 0.77589 0.29046 0.0
H1318 H 0.60226 0.76927 0.12273 0.0
H1319 H 0.5746 0.79594 0.13462 0.0
C1320 C 0.58676 0.80776 0.06018 0.0
C1321 C 0.59807 0.80991 0.02085 0.0
C1322 C 0.59647 0.77044 0.15904 0.0
C1323 C 0.59022 0.78823 0.10663 0.0
C1324 C 0.59812 0.7648 0.21023 0.0
C1325 C 0.59161 0.76698 0.25865 0.0
C1326 C 0.58862 0.77874 0.15659 0.0
C1327 C 0.58251 0.77389 0.2537 0.0
C1328 C 0.58284 0.79697 0.10324 0.0
C1329 C 0.6045 0.80034 0.024 0.0
N1330 N 0.58155 0.77985 0.20366 0.0
N1331 N 0.60059 0.79005 0.06636 0.0
H1332 H 0.22944 0.80424 0.2911 0.0
H1333 H 0.20194 0.81298 0.98788 0.0
H1334 H 0.24003 0.84717 0.21373 0.0
H1335 H 0.18826 0.76894 0.06332 0.0
H1336 H 0.22067 0.82553 0.0623 0.0
H1337 H 0.21937 0.79114 0.20096 0.0
C1338 C 0.23019 0.81097 0.25456 0.0
C1339 C 0.23552 0.82676 0.25948 0.0
C1340 C 0.21372 0.8131 0.06248 0.0
C1341 C 0.22378 0.81195 0.15726 0.0
C1342 C 0.20298 0.80592 0.01994 0.0
C1343 C 0.19332 0.7899 0.01991 0.0
C1344 C 0.21471 0.80428 0.10616 0.0
C1345 C 0.1954 0.78134 0.06201 0.0
C1346 C 0.22429 0.80349 0.20336 0.0
C1347 C 0.23599 0.83496 0.21145 0.0
N1348 N 0.20569 0.78866 0.10409 0.0
N1349 N 0.23002 0.82745 0.16259 0.0
H1350 H 0.19282 0.40309 -2e-05 0.0
H1351 H 0.20058 0.42944 0.31684 0.0
H1352 H 0.23609 0.42596 0.08821 0.0
H1353 H 0.15787 0.40304 0.22805 0.0
H1354 H 0.21452 0.43487 0.22757 0.0
H1355 H 0.1809 0.40963 0.07572 0.0
C1356 C 0.19987 0.4097 0.03508 0.0
C1357 C 0.21538 0.41372 0.03841 0.0
C1358 C 0.20207 0.42831 0.2274 0.0
C1359 C 0.20172 0.42101 0.12611 0.0
C1360 C 0.19413 0.42536 0.27819 0.0
C1361 C 0.17811 0.41583 0.27929 0.0
C1362 C 0.19385 0.42158 0.1779 0.0
C1363 C 0.17024 0.41048 0.22859 0.0
C1364 C 0.19306 0.41345 0.07837 0.0
C1365 C 0.22405 0.42252 0.08432 0.0
N1366 N 0.17819 0.41326 0.18003 0.0
N1367 N 0.21701 0.42559 0.12709 0.0
H1368 H 0.23004 0.42927 0.80382 0.0
H1369 H 0.19899 0.38928 0.50732 0.0
H1370 H 0.23632 0.39304 0.73603 0.0
H1371 H 0.1881 0.42231 0.57763 0.0
H1372 H 0.21751 0.39497 0.58207 0.0
H1373 H 0.21996 0.4316 0.71275 0.0
C1374 C 0.22988 0.42227 0.76903 0.0
C1375 C 0.23399 0.41096 0.77699 0.0
C1376 C 0.21119 0.4011 0.58105 0.0
C1377 C 0.22218 0.41323 0.6739 0.0
C1378 C 0.20054 0.3978 0.53838 0.0
C1379 C 0.19174 0.40511 0.53669 0.0
C1380 C 0.21301 0.41167 0.62304 0.0
C1381 C 0.19451 0.41627 0.57759 0.0
C1382 C 0.22395 0.42345 0.71737 0.0
C1383 C 0.23327 0.40191 0.73128 0.0
N1384 N 0.20475 0.41905 0.61962 0.0
N1385 N 0.22729 0.40311 0.68193 0.0
H1386 H 0.57827 0.80785 0.78783 0.0
H1387 H 0.61534 0.81376 0.48755 0.0
H1388 H 0.61496 0.84931 0.7154 0.0
H1389 H 0.58171 0.77066 0.56145 0.0
H1390 H 0.61074 0.82745 0.56213 0.0
H1391 H 0.57464 0.79477 0.69727 0.0
C1392 C 0.58513 0.81434 0.75221 0.0
C1393 C 0.59693 0.82963 0.75871 0.0
C1394 C 0.60423 0.815 0.56193 0.0
C1395 C 0.59314 0.8148 0.65608 0.0
C1396 C 0.60689 0.80715 0.51932 0.0
C1397 C 0.59911 0.79102 0.51876 0.0
C1398 C 0.59386 0.80671 0.60507 0.0
C1399 C 0.58806 0.78311 0.56053 0.0
C1400 C 0.58319 0.80685 0.70081 0.0
C1401 C 0.60574 0.83749 0.71187 0.0
N1402 N 0.58595 0.79103 0.60259 0.0
N1403 N 0.60379 0.82995 0.66279 0.0
H1404 H 0.15326 0.76484 0.71524 0.0
H1405 H 0.23364 0.81261 0.55883 0.0
H1406 H 0.19614 0.77345 0.7876 0.0
H1407 H 0.19016 0.80557 0.49725 0.0
H1408 H 0.21992 0.79404 0.63386 0.0
H1409 H 0.16615 0.77452 0.62565 0.0
C1410 C 0.16533 0.76833 0.71156 0.0
C1411 C 0.17368 0.76835 0.7585 0.0
C1412 C 0.2134 0.79642 0.60341 0.0
C1413 C 0.18874 0.78017 0.65693 0.0
C1414 C 0.22121 0.80702 0.56057 0.0
C1415 C 0.21306 0.81086 0.52218 0.0
C1416 C 0.19733 0.78957 0.60761 0.0
C1417 C 0.19697 0.8032 0.52639 0.0
C1418 C 0.17275 0.77402 0.6606 0.0
C1419 C 0.18932 0.77315 0.75201 0.0
N1420 N 0.18968 0.79305 0.56849 0.0
N1421 N 0.19646 0.7792 0.70232 0.0
H1422 H 0.0617 0.57558 0.09668 0.0
H1423 H 0.08721 0.52136 0.24932 0.0
H1424 H 0.09105 0.56101 0.01965 0.0
H1425 H 0.05329 0.53211 0.31133 0.0
H1426 H 0.09364 0.54042 0.17472 0.0
H1427 H 0.0643 0.56531 0.18601 0.0
C1428 C 0.06919 0.57073 0.0993 0.0
C1429 C 0.07625 0.56919 0.0512 0.0
C1430 C 0.08494 0.53872 0.20515 0.0
C1431 C 0.07865 0.55666 0.15232 0.0
C1432 C 0.08125 0.52784 0.24771 0.0
C1433 C 0.0695 0.52494 0.28613 0.0
C1434 C 0.07691 0.54681 0.20132 0.0
C1435 C 0.06222 0.53374 0.28213 0.0
C1436 C 0.07052 0.56468 0.15006 0.0
C1437 C 0.0856 0.56255 0.05622 0.0
N1438 N 0.06597 0.54416 0.24034 0.0
N1439 N 0.08628 0.55621 0.10575 0.0
H1440 H 0.42816 0.48854 0.09458 0.0
H1441 H 0.47951 0.56853 0.24987 0.0
H1442 H 0.44068 0.53224 0.0195 0.0
H1443 H 0.47014 0.52428 0.31177 0.0
H1444 H 0.46074 0.55549 0.17476 0.0
H1445 H 0.43792 0.50134 0.18439 0.0
C1446 C 0.43248 0.5008 0.09771 0.0
C1447 C 0.43358 0.50938 0.05001 0.0
C1448 C 0.46267 0.54865 0.20527 0.0
C1449 C 0.44552 0.52427 0.15174 0.0
C1450 C 0.47338 0.55608 0.24816 0.0
C1451 C 0.47661 0.5475 0.28669 0.0
C1452 C 0.45508 0.53254 0.20117 0.0
C1453 C 0.46826 0.5314 0.28252 0.0
C1454 C 0.43823 0.50815 0.14876 0.0
C1455 C 0.4395 0.52525 0.05571 0.0
N1456 N 0.458 0.52448 0.24036 0.0
N1457 N 0.44557 0.53228 0.10554 0.0
H1458 H 0.51546 0.94163 0.09663 0.0
H1459 H 0.43551 0.91113 0.25344 0.0
H1460 H 0.47195 0.90917 0.02315 0.0
H1461 H 0.47959 0.94611 0.31657 0.0
H1462 H 0.44874 0.90579 0.17802 0.0
H1463 H 0.50281 0.93821 0.18696 0.0
C1464 C 0.5033 0.93334 0.10022 0.0
C1465 C 0.49471 0.92561 0.05283 0.0
C1466 C 0.4555 0.91447 0.20889 0.0
C1467 C 0.47995 0.92219 0.15517 0.0
C1468 C 0.44796 0.91754 0.25196 0.0
C1469 C 0.45644 0.92928 0.29089 0.0
C1470 C 0.47161 0.92316 0.20495 0.0
C1471 C 0.47255 0.93715 0.287 0.0
C1472 C 0.49602 0.93151 0.15158 0.0
C1473 C 0.47895 0.9152 0.05912 0.0
N1474 N 0.47957 0.93404 0.2446 0.0
N1475 N 0.47197 0.91402 0.10922 0.0
H1476 H 0.25923 0.37788 0.05612 0.0
H1477 H 0.1856 0.30701 0.18306 0.0
H1478 H 0.21396 0.36767 0.00412 0.0
H1479 H 0.22075 0.29972 0.11017 0.0
H1480 H 0.19834 0.33302 0.14357 0.0
H1481 H 0.24759 0.35258 0.10288 0.0
C1482 C 0.24686 0.37042 0.05538 0.0
C1483 C 0.23749 0.37475 0.02635 0.0
C1484 C 0.20327 0.32572 0.13668 0.0
C1485 C 0.22428 0.34631 0.07995 0.0
C1486 C 0.19606 0.31093 0.15914 0.0
C1487 C 0.20211 0.30122 0.14944 0.0
C1488 C 0.21686 0.33097 0.10592 0.0
C1489 C 0.21568 0.30686 0.11804 0.0
C1490 C 0.24029 0.35604 0.08152 0.0
C1491 C 0.22155 0.36469 0.02592 0.0
N1492 N 0.22273 0.32148 0.09766 0.0
N1493 N 0.2154 0.35096 0.05279 0.0
H1494 H 0.69198 0.89809 0.22534 0.0
H1495 H 0.64948 0.87427 0.93061 0.0
H1496 H 0.71583 0.91503 0.06844 0.0
H1497 H 0.62536 0.87046 0.08453 0.0
H1498 H 0.67387 0.88765 0.98104 0.0
H1499 H 0.66744 0.88645 0.17529 0.0
C1500 C 0.69204 0.89941 0.18034 0.0
C1501 C 0.70595 0.90752 0.15092 0.0
C1502 C 0.66326 0.88396 0.00379 0.0
C1503 C 0.67793 0.8941 0.09343 0.0
C1504 C 0.64932 0.87626 0.9751 0.0
C1505 C 0.63537 0.87124 0.0035 0.0
C1506 C 0.66328 0.88648 0.06154 0.0
C1507 C 0.63586 0.87417 0.06107 0.0
C1508 C 0.67803 0.8928 0.15186 0.0
C1509 C 0.70537 0.90891 0.09271 0.0
N1510 N 0.6496 0.88152 0.08834 0.0
N1511 N 0.69158 0.90215 0.06579 0.0
H1512 H 0.1328 0.75458 0.08448 0.0
H1513 H 0.08529 0.79897 0.06127 0.0
H1514 H 0.12781 0.77418 0.9307 0.0
H1515 H 0.10338 0.79296 0.21704 0.0
H1516 H 0.09728 0.78618 0.01224 0.0
H1517 H 0.11858 0.76506 0.13365 0.0
C1518 C 0.12866 0.76102 0.06109 0.0
C1519 C 0.13154 0.76359 0.00357 0.0
C1520 C 0.09855 0.78761 0.0572 0.0
C1521 C 0.11521 0.77544 0.05916 0.0
C1522 C 0.09166 0.79484 0.08516 0.0
C1523 C 0.09341 0.79707 0.14318 0.0
C1524 C 0.10708 0.78244 0.08766 0.0
C1525 C 0.10183 0.79154 0.17216 0.0
C1526 C 0.12059 0.76702 0.08911 0.0
C1527 C 0.12593 0.77202 0.97519 0.0
N1528 N 0.10835 0.78448 0.14413 0.0
N1529 N 0.11801 0.77762 0.00322 0.0
H1530 H 0.30495 0.18401 0.33793 0.0
H1531 H 0.37679 0.25861 0.44692 0.0
H1532 H 0.29815 0.22122 0.39118 0.0
H1533 H 0.36425 0.21499 0.52348 0.0
H1534 H 0.35116 0.24666 0.40251 0.0
H1535 H 0.33033 0.19683 0.38255 0.0
C1536 C 0.30884 0.19492 0.35874 0.0
C1537 C 0.29947 0.20157 0.36121 0.0
C1538 C 0.35413 0.23981 0.42912 0.0
C1539 C 0.32853 0.2164 0.41055 0.0
C1540 C 0.36869 0.24654 0.45403 0.0
C1541 C 0.37256 0.23775 0.48889 0.0
C1542 C 0.34372 0.22413 0.43778 0.0
C1543 C 0.36168 0.22218 0.49715 0.0
C1544 C 0.32326 0.20217 0.38418 0.0
C1545 C 0.30504 0.21571 0.38887 0.0
N1546 N 0.34781 0.2158 0.47115 0.0
N1547 N 0.31935 0.2228 0.41205 0.0
H1548 H 0.77551 0.12522 0.56611 0.0
H1549 H 0.79423 0.10325 0.26775 0.0
H1550 H 0.75623 0.13113 0.41311 0.0
H1551 H 0.8007 0.08507 0.42245 0.0
H1552 H 0.78153 0.11479 0.31962 0.0
H1553 H 0.7862 0.11185 0.51373 0.0
C1554 C 0.77351 0.12368 0.52141 0.0
C1555 C 0.76498 0.12931 0.49385 0.0
C1556 C 0.78563 0.10819 0.34216 0.0
C1557 C 0.77728 0.11407 0.43357 0.0
C1558 C 0.7929 0.10162 0.31264 0.0
C1559 C 0.79854 0.0932 0.3409 0.0
C1560 C 0.78416 0.10651 0.4005 0.0
C1561 C 0.7965 0.09144 0.39902 0.0
C1562 C 0.77957 0.11599 0.4916 0.0
C1563 C 0.76272 0.12695 0.43596 0.0
N1564 N 0.78959 0.09815 0.42699 0.0
N1565 N 0.76893 0.1196 0.4076 0.0
H1566 H 0.89671 0.6907 0.26521 0.0
H1567 H 0.87532 0.64677 0.55696 0.0
H1568 H 0.91551 0.71376 0.42217 0.0
H1569 H 0.87003 0.62336 0.40006 0.0
H1570 H 0.88872 0.67141 0.50816 0.0
H1571 H 0.8855 0.66592 0.31345 0.0
C1572 C 0.89852 0.69054 0.30984 0.0
C1573 C 0.90703 0.7043 0.33981 0.0
C1574 C 0.88473 0.6609 0.48441 0.0
C1575 C 0.89412 0.67599 0.39526 0.0
C1576 C 0.87703 0.64682 0.51218 0.0
C1577 C 0.87154 0.633 0.48245 0.0
C1578 C 0.88675 0.6612 0.42624 0.0
C1579 C 0.87412 0.63375 0.42455 0.0
C1580 C 0.89216 0.67639 0.33726 0.0
C1581 C 0.90905 0.70342 0.39749 0.0
N1582 N 0.88143 0.64763 0.39819 0.0
N1583 N 0.90253 0.6895 0.42344 0.0
H1584 H 0.79546 0.69007 0.77037 0.0
H1585 H 0.7713 0.6458 0.06097 0.0
H1586 H 0.79943 0.71337 0.9265 0.0
H1587 H 0.75352 0.62305 0.90276 0.0
H1588 H 0.7831 0.67066 0.01315 0.0
H1589 H 0.7816 0.6654 0.81865 0.0
C1590 C 0.79339 0.68999 0.81489 0.0
C1591 C 0.79862 0.70379 0.84457 0.0
C1592 C 0.77653 0.66024 0.98897 0.0
C1593 C 0.78284 0.67556 0.90013 0.0
C1594 C 0.76983 0.64605 0.01615 0.0
C1595 C 0.76145 0.63235 0.98569 0.0
C1596 C 0.77505 0.66073 0.93075 0.0
C1597 C 0.75986 0.63333 0.92779 0.0
C1598 C 0.78542 0.67589 0.84234 0.0
C1599 C 0.79557 0.703 0.90211 0.0
N1600 N 0.76673 0.64729 0.90208 0.0
N1601 N 0.78798 0.68909 0.92818 0.0
H1602 H 0.37987 0.13348 0.8994 0.0
H1603 H 0.2887 0.08431 0.94154 0.0
H1604 H 0.35768 0.12793 0.05919 0.0
H1605 H 0.30944 0.10551 0.78397 0.0
H1606 H 0.31434 0.09656 0.98414 0.0
H1607 H 0.35439 0.11964 0.8548 0.0
C1608 C 0.36965 0.12929 0.92504 0.0
C1609 C 0.37085 0.13188 0.98296 0.0
C1610 C 0.31326 0.09848 0.94019 0.0
C1611 C 0.34184 0.11598 0.93265 0.0
C1612 C 0.29865 0.09146 0.91586 0.0
C1613 C 0.29696 0.09397 0.85926 0.0
C1614 C 0.32626 0.10789 0.90748 0.0
C1615 C 0.31025 0.10336 0.82788 0.0
C1616 C 0.35515 0.12146 0.89964 0.0
C1617 C 0.35727 0.12625 0.01433 0.0
N1618 N 0.32436 0.10996 0.85236 0.0
N1619 N 0.34334 0.11852 0.98884 0.0
H1620 H 0.91384 0.2016 0.92982 0.0
H1621 H 0.86744 0.24725 0.91747 0.0
H1622 H 0.89292 0.20652 0.77937 0.0
H1623 H 0.87522 0.22952 0.07091 0.0
H1624 H 0.88025 0.23574 0.86573 0.0
H1625 H 0.90306 0.21507 0.98214 0.0
C1626 C 0.90704 0.20556 0.90783 0.0
C1627 C 0.9042 0.2029 0.8503 0.0
C1628 C 0.8792 0.23442 0.91076 0.0
C1629 C 0.892 0.21837 0.90949 0.0
C1630 C 0.87196 0.24104 0.94028 0.0
C1631 C 0.87023 0.23927 -0.00154 0.0
C1632 C 0.88489 0.22614 0.93976 0.0
C1633 C 0.87625 0.23108 0.02597 0.0
C1634 C 0.90087 0.21321 0.93765 0.0
C1635 C 0.89531 0.20826 0.82377 0.0
N1636 N 0.88333 0.22482 0.9964 0.0
N1637 N 0.88956 0.21577 0.85353 0.0
H1638 H 0.71273 0.80082 0.56058 0.0
H1639 H 0.62077 0.7541 0.58021 0.0
H1640 H 0.68767 0.79542 0.71351 0.0
H1641 H 0.64511 0.77265 0.42519 0.0
H1642 H 0.64544 0.76595 0.62974 0.0
H1643 H 0.68816 0.78737 0.50987 0.0
C1644 C 0.70207 0.79676 0.58345 0.0
C1645 C 0.70221 0.79927 0.64122 0.0
C1646 C 0.64537 0.76738 0.58485 0.0
C1647 C 0.6742 0.78383 0.58389 0.0
C1648 C 0.63131 0.76058 0.55658 0.0
C1649 C 0.63091 0.76246 0.4986 0.0
C1650 C 0.65913 0.77597 0.55481 0.0
C1651 C 0.64491 0.77099 0.47001 0.0
C1652 C 0.68809 0.78914 0.55455 0.0
C1653 C 0.68809 0.7938 0.66889 0.0
N1654 N 0.65846 0.77742 0.49837 0.0
N1655 N 0.67467 0.7863 0.64003 0.0
H1656 H 0.20484 0.91561 0.55969 0.0
H1657 H 0.25043 0.86925 0.58099 0.0
H1658 H 0.20959 0.89579 0.7133 0.0
H1659 H 0.23248 0.87584 0.42591 0.0
H1660 H 0.23913 0.88261 0.63059 0.0
H1661 H 0.21858 0.90468 0.51016 0.0
C1662 C 0.20886 0.90905 0.58301 0.0
C1663 C 0.20602 0.90653 0.64057 0.0
C1664 C 0.23773 0.88118 0.58566 0.0
C1665 C 0.22177 0.89411 0.58447 0.0
C1666 C 0.24422 0.87361 0.55736 0.0
C1667 C 0.24232 0.87139 0.49935 0.0
C1668 C 0.22945 0.8867 0.55557 0.0
C1669 C 0.23414 0.87724 0.47075 0.0
C1670 C 0.21665 0.90279 0.55475 0.0
C1671 C 0.21146 0.89793 0.6688 0.0
N1672 N 0.22801 0.88464 0.49912 0.0
N1673 N 0.21909 0.89204 0.64051 0.0
H1674 H 0.13206 0.37836 0.58881 0.0
H1675 H 0.08717 0.28721 0.54434 0.0
H1676 H 0.12821 0.35751 0.42731 0.0
H1677 H 0.10765 0.30891 0.70164 0.0
H1678 H 0.09857 0.31277 0.50076 0.0
H1679 H 0.11933 0.3527 0.63135 0.0
C1680 C 0.12844 0.36838 0.5623 0.0
C1681 C 0.13122 0.37005 0.50453 0.0
C1682 C 0.10053 0.31189 0.54482 0.0
C1683 C 0.1166 0.34073 0.55271 0.0
C1684 C 0.09401 0.29734 0.56967 0.0
C1685 C 0.09652 0.29597 0.62658 0.0
C1686 C 0.10936 0.3251 0.57743 0.0
C1687 C 0.1055 0.30945 0.65754 0.0
C1688 C 0.12124 0.35377 0.58658 0.0
C1689 C 0.12634 0.35673 0.47209 0.0
N1690 N 0.11152 0.32345 0.63266 0.0
N1691 N 0.11922 0.34262 0.49658 0.0
H1692 H 0.04521 0.58045 0.72971 0.0
H1693 H 0.95368 0.53602 0.76672 0.0
H1694 H 0.02251 0.56249 0.88783 0.0
H1695 H 0.97582 0.53883 0.60892 0.0
H1696 H 0.97906 0.54961 0.81155 0.0
H1697 H 0.01991 0.56897 0.68407 0.0
C1698 C 0.03492 0.57417 0.75478 0.0
C1699 C 0.03593 0.57234 0.8125 0.0
C1700 C 0.97833 0.54728 0.76706 0.0
C1701 C 0.00709 0.55938 0.76098 0.0
C1702 C 0.96388 0.53959 0.7415 0.0
C1703 C 0.96268 0.53624 0.68416 0.0
C1704 C 0.99164 0.55182 0.73484 0.0
C1705 C 0.97625 0.5411 0.65336 0.0
C1706 C 0.02052 0.5676 0.72878 0.0
C1707 C 0.02224 0.56408 0.84312 0.0
N1708 N 0.99017 0.54867 0.67905 0.0
N1709 N 0.0084 0.55795 0.81704 0.0
H1710 H 0.44035 0.4627 0.88753 0.0
H1711 H 0.46122 0.43753 0.60068 0.0
H1712 H 0.42168 0.46638 0.72941 0.0
H1713 H 0.46552 0.42008 0.76055 0.0
H1714 H 0.44808 0.44952 0.64649 0.0
H1715 H 0.45114 0.44853 0.84135 0.0
C1716 C 0.43851 0.46051 0.84301 0.0
C1717 C 0.43014 0.46575 0.81215 0.0
C1718 C 0.45179 0.44297 0.67149 0.0
C1719 C 0.44255 0.4496 0.75902 0.0
C1720 C 0.45933 0.43617 0.64546 0.0
C1721 C 0.46449 0.42783 0.67697 0.0
C1722 C 0.44961 0.44165 0.72962 0.0
C1723 C 0.4617 0.42638 0.73474 0.0
C1724 C 0.44461 0.45235 0.81677 0.0
C1725 C 0.42805 0.46252 0.7547 0.0
N1726 N 0.45457 0.43336 0.75934 0.0
N1727 N 0.43434 0.45475 0.72982 0.0
H1728 H 0.53913 0.97952 0.8858 0.0
H1729 H 0.56173 0.0241 0.59527 0.0
H1730 H 0.53518 0.95662 0.72872 0.0
H1731 H 0.5801 0.04683 0.75308 0.0
H1732 H 0.54989 0.99925 0.64315 0.0
H1733 H 0.55212 0.00428 0.83764 0.0
C1734 C 0.54101 0.97971 0.8411 0.0
C1735 C 0.53607 0.966 0.81113 0.0
C1736 C 0.55657 0.00967 0.66725 0.0
C1737 C 0.55084 0.99431 0.75575 0.0
C1738 C 0.56328 0.02385 0.64005 0.0
C1739 C 0.5719 0.03753 0.67034 0.0
C1740 C 0.55829 0.00916 0.72532 0.0
C1741 C 0.57357 0.03655 0.72819 0.0
C1742 C 0.54848 0.99385 0.81372 0.0
C1743 C 0.53884 0.96693 0.75336 0.0
N1744 N 0.56673 0.0226 0.75392 0.0
N1745 N 0.54596 0.98086 0.72741 0.0
H1746 H 0.46524 0.02089 0.10001 0.0
H1747 H 0.4397 0.97664 0.39119 0.0
H1748 H 0.46859 0.0441 0.25578 0.0
H1749 H 0.42251 0.95382 0.23269 0.0
H1750 H 0.45215 0.00144 0.34293 0.0
H1751 H 0.45149 0.99618 0.14843 0.0
C1752 C 0.46309 0.02078 0.14447 0.0
C1753 C 0.46806 0.03457 0.17398 0.0
C1754 C 0.44558 0.99102 0.31875 0.0
C1755 C 0.4524 0.00631 0.22966 0.0
C1756 C 0.4385 0.97686 0.3462 0.0
C1757 C 0.43006 0.96316 0.31584 0.0
C1758 C 0.44442 0.99149 0.26035 0.0
C1759 C 0.42887 0.96412 0.25768 0.0
C1760 C 0.45518 0.00667 0.17199 0.0
C1761 C 0.46492 0.03374 0.23147 0.0
N1762 N 0.43608 0.97804 0.23173 0.0
N1763 N 0.45737 0.01984 0.25756 0.0
H1764 H 0.04419 0.46404 0.23434 0.0
H1765 H 0.95254 0.41741 0.26931 0.0
H1766 H 0.02138 0.46031 0.39139 0.0
H1767 H 0.97516 0.43551 0.1112 0.0
H1768 H 0.97781 0.42936 0.31516 0.0
H1769 H 0.01896 0.44985 0.18866 0.0
C1770 C 0.03388 0.46016 0.25923 0.0
C1771 C 0.03486 0.46341 0.31663 0.0
C1772 C 0.97721 0.43064 0.27039 0.0
C1773 C 0.00605 0.44712 0.26493 0.0
C1774 C 0.96282 0.42378 0.24423 0.0
C1775 C 0.96178 0.42554 0.18647 0.0
C1776 C 0.99062 0.43911 0.23837 0.0
C1777 C 0.97545 0.43395 0.15592 0.0
C1778 C 0.01951 0.45211 0.23316 0.0
C1779 C 0.02114 0.45813 0.34693 0.0
N1780 N 0.98931 0.44041 0.1822 0.0
N1781 N 0.0073 0.45022 0.32077 0.0
H1782 H 0.58215 0.53703 0.26499 0.0
H1783 H 0.53642 0.58299 0.23194 0.0
H1784 H 0.56338 0.54136 0.1081 0.0
H1785 H 0.54112 0.56481 0.38962 0.0
H1786 H 0.54995 0.57134 0.18574 0.0
H1787 H 0.57076 0.55078 0.31154 0.0
C1788 C 0.57573 0.54097 0.24033 0.0
C1789 C 0.57365 0.53801 0.1827 0.0
C1790 C 0.54805 0.56996 0.23049 0.0
C1791 C 0.56072 0.55378 0.23537 0.0
C1792 C 0.54039 0.57664 0.25685 0.0
C1793 C 0.5376 0.5748 0.3146 0.0
C1794 C 0.55312 0.56156 0.26226 0.0
C1795 C 0.54297 0.56644 0.34491 0.0
C1796 C 0.5692 0.54875 0.26688 0.0
C1797 C 0.5652 0.54333 0.1527 0.0
N1798 N 0.55049 0.56015 0.31842 0.0
N1799 N 0.55907 0.55098 0.17933 0.0
loop_
_geom_bond_atom_site_label_1
_geom_bond_atom_site_label_2
_geom_bond_distance
_geom_bond_site_symmetry_2
_ccdc_geom_bond_type
Co0 O1 2.216 . S
Co0 O2 2.091 . S
Co0 O4 2.004 . S
Co0 O10 2.021 . S
Co0 O12 2.137 . S
Co0 O13 2.244 . S
O1 Co0 2.216 . S
O1 C8 1.247 . S
O2 Co0 2.091 . S
O2 C8 1.261 . S
C3 O12 1.247 . S
C3 O13 1.272 . S
O4 Co0 2.004 . S
O4 C9 1.259 . S
Co5 O6 2.061 . S
Co5 O11 2.052 . S
Co5 O13 2.135 . S
O6 Co5 2.061 . S
O6 C9 1.235 . S
C7 O10 1.238 . S
C7 O11 1.241 . S
C8 O1 1.247 . S
C8 O2 1.261 . S
C9 O4 1.259 . S
C9 O6 1.235 . S
O10 Co0 2.021 . S
O10 C7 1.238 . S
O11 Co5 2.052 . S
O11 C7 1.241 . S
O12 Co0 2.137 . S
O12 C3 1.247 . S
O13 Co0 2.244 . S
O13 C3 1.272 . S
O13 Co5 2.135 . S
Co14 O15 2.216 . S
Co14 O16 2.091 . S
Co14 O18 2.004 . S
Co14 O24 2.021 . S
Co14 O26 2.137 . S
Co14 O27 2.244 . S
O15 Co14 2.216 . S
O15 C22 1.247 . S
O16 Co14 2.091 . S
O16 C22 1.261 . S
C17 O26 1.247 . S
C17 O27 1.272 . S
O18 Co14 2.004 . S
O18 C23 1.259 . S
Co19 O20 2.061 . S
Co19 O25 2.052 . S
Co19 O27 2.135 . S
O20 Co19 2.061 . S
O20 C23 1.235 . S
C21 O24 1.238 . S
C21 O25 1.241 . S
C22 O15 1.247 . S
C22 O16 1.261 . S
C23 O18 1.259 . S
C23 O20 1.235 . S
O24 Co14 2.021 . S
O24 C21 1.238 . S
O25 Co19 2.052 . S
O25 C21 1.241 . S
O26 Co14 2.137 . S
O26 C17 1.247 . S
O27 Co14 2.244 . S
O27 C17 1.272 . S
O27 Co19 2.135 . S
Co28 O29 2.216 . S
Co28 O30 2.091 . S
Co28 O32 2.004 . S
Co28 O38 2.021 . S
Co28 O40 2.137 . S
Co28 O41 2.244 . S
O29 Co28 2.216 . S
O29 C36 1.247 . S
O30 Co28 2.091 . S
O30 C36 1.261 . S
C31 O40 1.247 . S
C31 O41 1.272 . S
O32 Co28 2.004 . S
O32 C37 1.259 . S
Co33 O34 2.061 . S
Co33 O39 2.052 . S
Co33 O41 2.135 . S
O34 Co33 2.061 . S
O34 C37 1.235 . S
C35 O38 1.238 . S
C35 O39 1.241 . S
C36 O29 1.247 . S
C36 O30 1.261 . S
C37 O32 1.259 . S
C37 O34 1.235 . S
O38 Co28 2.021 . S
O38 C35 1.238 . S
O39 Co33 2.052 . S
O39 C35 1.241 . S
O40 Co28 2.137 . S
O40 C31 1.247 . S
O41 Co28 2.244 . S
O41 C31 1.272 . S
O41 Co33 2.135 . S
Co42 O43 2.216 . S
Co42 O44 2.091 . S
Co42 O46 2.004 . S
Co42 O52 2.021 . S
Co42 O54 2.137 . S
Co42 O55 2.244 . S
O43 Co42 2.216 . S
O43 C50 1.247 . S
O44 Co42 2.091 . S
O44 C50 1.261 . S
C45 O54 1.247 . S
C45 O55 1.272 . S
O46 Co42 2.004 . S
O46 C51 1.259 . S
Co47 O48 2.061 . S
Co47 O53 2.052 . S
Co47 O55 2.135 . S
O48 Co47 2.061 . S
O48 C51 1.235 . S
C49 O52 1.238 . S
C49 O53 1.241 . S
C50 O43 1.247 . S
C50 O44 1.261 . S
C51 O46 1.259 . S
C51 O48 1.235 . S
O52 Co42 2.021 . S
O52 C49 1.238 . S
O53 Co47 2.052 . S
O53 C49 1.241 . S
O54 Co42 2.137 . S
O54 C45 1.247 . S
O55 Co42 2.244 . S
O55 C45 1.272 . S
O55 Co47 2.135 . S
Co56 O57 2.216 . S
Co56 O58 2.091 . S
Co56 O60 2.004 . S
Co56 O66 2.021 . S
Co56 O68 2.137 . S
Co56 O69 2.244 . S
O57 Co56 2.216 . S
O57 C64 1.247 . S
O58 Co56 2.091 . S
O58 C64 1.261 . S
C59 O68 1.247 . S
C59 O69 1.272 . S
O60 Co56 2.004 . S
O60 C65 1.259 . S
Co61 O62 2.061 . S
Co61 O67 2.052 . S
Co61 O69 2.135 . S
O62 Co61 2.061 . S
O62 C65 1.235 . S
C63 O66 1.238 . S
C63 O67 1.241 . S
C64 O57 1.247 . S
C64 O58 1.261 . S
C65 O60 1.259 . S
C65 O62 1.235 . S
O66 Co56 2.021 . S
O66 C63 1.238 . S
O67 Co61 2.052 . S
O67 C63 1.241 . S
O68 Co56 2.137 . S
O68 C59 1.247 . S
O69 Co56 2.244 . S
O69 C59 1.272 . S
O69 Co61 2.135 . S
Co70 O71 2.216 . S
Co70 O72 2.091 . S
Co70 O74 2.004 . S
Co70 O80 2.021 . S
Co70 O82 2.137 . S
Co70 O83 2.244 . S
O71 Co70 2.216 . S
O71 C78 1.247 . S
O72 Co70 2.091 . S
O72 C78 1.261 . S
C73 O82 1.247 . S
C73 O83 1.272 . S
O74 Co70 2.004 . S
O74 C79 1.259 . S
Co75 O76 2.061 . S
Co75 O81 2.052 . S
Co75 O83 2.135 . S
O76 Co75 2.061 . S
O76 C79 1.235 . S
C77 O80 1.238 . S
C77 O81 1.241 . S
C78 O71 1.247 . S
C78 O72 1.261 . S
C79 O74 1.259 . S
C79 O76 1.235 . S
O80 Co70 2.021 . S
O80 C77 1.238 . S
O81 Co75 2.052 . S
O81 C77 1.241 . S
O82 Co70 2.137 . S
O82 C73 1.247 . S
O83 Co70 2.244 . S
O83 C73 1.272 . S
O83 Co75 2.135 . S
Co84 O85 2.216 . S
Co84 O86 2.091 . S
Co84 O88 2.004 . S
Co84 O94 2.021 . S
Co84 O96 2.137 . S
Co84 O97 2.244 . S
O85 Co84 2.216 . S
O85 C92 1.247 . S
O86 Co84 2.091 . S
O86 C92 1.261 . S
C87 O96 1.247 . S
C87 O97 1.272 . S
O88 Co84 2.004 . S
O88 C93 1.259 . S
Co89 O90 2.061 . S
Co89 O95 2.052 . S
Co89 O97 2.135 . S
O90 Co89 2.061 . S
O90 C93 1.235 . S
C91 O94 1.238 . S
C91 O95 1.241 . S
C92 O85 1.247 . S
C92 O86 1.261 . S
C93 O88 1.259 . S
C93 O90 1.235 . S
O94 Co84 2.021 . S
O94 C91 1.238 . S
O95 Co89 2.052 . S
O95 C91 1.241 . S
O96 Co84 2.137 . S
O96 C87 1.247 . S
O97 Co84 2.244 . S
O97 C87 1.272 . S
O97 Co89 2.135 . S
Co98 O99 2.216 . S
Co98 O100 2.091 . S
Co98 O102 2.004 . S
Co98 O108 2.021 . S
Co98 O110 2.137 . S
Co98 O111 2.244 . S
O99 Co98 2.216 . S
O99 C106 1.247 . S
O100 Co98 2.091 . S
O100 C106 1.261 . S
C101 O110 1.247 . S
C101 O111 1.272 . S
O102 Co98 2.004 . S
O102 C107 1.259 . S
Co103 O104 2.061 . S
Co103 O109 2.052 . S
Co103 O111 2.135 . S
O104 Co103 2.061 . S
O104 C107 1.235 . S
C105 O108 1.238 . S
C105 O109 1.241 . S
C106 O99 1.247 . S
C106 O100 1.261 . S
C107 O102 1.259 . S
C107 O104 1.235 . S
O108 Co98 2.021 . S
O108 C105 1.238 . S
O109 Co103 2.052 . S
O109 C105 1.241 . S
O110 Co98 2.137 . S
O110 C101 1.247 . S
O111 Co98 2.244 . S
O111 C101 1.272 . S
O111 Co103 2.135 . S
Co112 O113 2.216 . S
Co112 O114 2.091 . S
Co112 O116 2.004 . S
Co112 O122 2.021 . S
Co112 O124 2.137 . S
Co112 O125 2.244 . S
O113 Co112 2.216 . S
O113 C120 1.247 . S
O114 Co112 2.091 . S
O114 C120 1.261 . S
C115 O124 1.247 . S
C115 O125 1.272 . S
O116 Co112 2.004 . S
O116 C121 1.259 . S
Co117 O118 2.061 . S
Co117 O123 2.052 . S
Co117 O125 2.135 . S
O118 Co117 2.061 . S
O118 C121 1.235 . S
C119 O122 1.238 . S
C119 O123 1.241 . S
C120 O113 1.247 . S
C120 O114 1.261 . S
C121 O116 1.259 . S
C121 O118 1.235 . S
O122 Co112 2.021 . S
O122 C119 1.238 . S
O123 Co117 2.052 . S
O123 C119 1.241 . S
O124 Co112 2.137 . S
O124 C115 1.247 . S
O125 Co112 2.244 . S
O125 C115 1.272 . S
O125 Co117 2.135 . S
Co126 O127 2.216 . S
Co126 O128 2.091 . S
Co126 O130 2.004 . S
Co126 O136 2.021 . S
Co126 O138 2.137 . S
Co126 O139 2.244 . S
O127 Co126 2.216 . S
O127 C134 1.247 . S
O128 Co126 2.091 . S
O128 C134 1.261 . S
C129 O138 1.247 . S
C129 O139 1.272 . S
O130 Co126 2.004 . S
O130 C135 1.259 . S
Co131 O132 2.061 . S
Co131 O137 2.052 . S
Co131 O139 2.135 . S
O132 Co131 2.061 . S
O132 C135 1.235 . S
C133 O136 1.238 . S
C133 O137 1.241 . S
C134 O127 1.247 . S
C134 O128 1.261 . S
C135 O130 1.259 . S
C135 O132 1.235 . S
O136 Co126 2.021 . S
O136 C133 1.238 . S
O137 Co131 2.052 . S
O137 C133 1.241 . S
O138 Co126 2.137 . S
O138 C129 1.247 . S
O139 Co126 2.244 . S
O139 C129 1.272 . S
O139 Co131 2.135 . S
Co140 O141 2.216 . S
Co140 O142 2.091 . S
Co140 O144 2.004 . S
Co140 O150 2.021 . S
Co140 O152 2.137 . S
Co140 O153 2.244 . S
O141 Co140 2.216 . S
O141 C148 1.247 . S
O142 Co140 2.091 . S
O142 C148 1.261 . S
C143 O152 1.247 . S
C143 O153 1.272 . S
O144 Co140 2.004 . S
O144 C149 1.259 . S
Co145 O146 2.061 . S
Co145 O151 2.052 . S
Co145 O153 2.135 . S
O146 Co145 2.061 . S
O146 C149 1.235 . S
C147 O150 1.238 . S
C147 O151 1.241 . S
C148 O141 1.247 . S
C148 O142 1.261 . S
C149 O144 1.259 . S
C149 O146 1.235 . S
O150 Co140 2.021 . S
O150 C147 1.238 . S
O151 Co145 2.052 . S
O151 C147 1.241 . S
O152 Co140 2.137 . S
O152 C143 1.247 . S
O153 Co140 2.244 . S
O153 C143 1.272 . S
O153 Co145 2.135 . S
Co154 O155 2.216 . S
Co154 O156 2.091 . S
Co154 O158 2.004 . S
Co154 O164 2.021 . S
Co154 O166 2.137 . S
Co154 O167 2.244 . S
O155 Co154 2.216 . S
O155 C162 1.247 . S
O156 Co154 2.091 . S
O156 C162 1.261 . S
C157 O166 1.247 . S
C157 O167 1.272 . S
O158 Co154 2.004 . S
O158 C163 1.259 . S
Co159 O160 2.061 . S
Co159 O165 2.052 . S
Co159 O167 2.135 . S
O160 Co159 2.061 . S
O160 C163 1.235 . S
C161 O164 1.238 . S
C161 O165 1.241 . S
C162 O155 1.247 . S
C162 O156 1.261 . S
C163 O158 1.259 . S
C163 O160 1.235 . S
O164 Co154 2.021 . S
O164 C161 1.238 . S
O165 Co159 2.052 . S
O165 C161 1.241 . S
O166 Co154 2.137 . S
O166 C157 1.247 . S
O167 Co154 2.244 . S
O167 C157 1.272 . S
O167 Co159 2.135 . S
Co168 O169 2.216 . S
Co168 O170 2.091 . S
Co168 O172 2.004 . S
Co168 O178 2.021 . S
Co168 O180 2.137 . S
Co168 O181 2.244 . S
O169 Co168 2.216 . S
O169 C176 1.247 . S
O170 Co168 2.091 . S
O170 C176 1.261 . S
C171 O180 1.247 . S
C171 O181 1.272 . S
O172 Co168 2.004 . S
O172 C177 1.259 . S
Co173 O174 2.061 . S
Co173 O179 2.052 . S
Co173 O181 2.135 . S
O174 Co173 2.061 . S
O174 C177 1.235 . S
C175 O178 1.238 . S
C175 O179 1.241 . S
C176 O169 1.247 . S
C176 O170 1.261 . S
C177 O172 1.259 . S
C177 O174 1.235 . S
O178 Co168 2.021 . S
O178 C175 1.238 . S
O179 Co173 2.052 . S
O179 C175 1.241 . S
O180 Co168 2.137 . S
O180 C171 1.247 . S
O181 Co168 2.244 . S
O181 C171 1.272 . S
O181 Co173 2.135 . S
Co182 O183 2.216 . S
Co182 O184 2.091 . S
Co182 O186 2.004 . S
Co182 O192 2.021 . S
Co182 O194 2.137 . S
Co182 O195 2.244 . S
O183 Co182 2.216 . S
O183 C190 1.247 . S
O184 Co182 2.091 . S
O184 C190 1.261 . S
C185 O194 1.247 . S
C185 O195 1.272 . S
O186 Co182 2.004 . S
O186 C191 1.259 . S
Co187 O188 2.061 . S
Co187 O193 2.052 . S
Co187 O195 2.135 . S
O188 Co187 2.061 . S
O188 C191 1.235 . S
C189 O192 1.238 . S
C189 O193 1.241 . S
C190 O183 1.247 . S
C190 O184 1.261 . S
C191 O186 1.259 . S
C191 O188 1.235 . S
O192 Co182 2.021 . S
O192 C189 1.238 . S
O193 Co187 2.052 . S
O193 C189 1.241 . S
O194 Co182 2.137 . S
O194 C185 1.247 . S
O195 Co182 2.244 . S
O195 C185 1.272 . S
O195 Co187 2.135 . S
Co196 O197 2.216 . S
Co196 O198 2.091 . S
Co196 O200 2.004 . S
Co196 O206 2.021 . S
Co196 O208 2.137 . S
Co196 O209 2.244 . S
O197 Co196 2.216 . S
O197 C204 1.247 . S
O198 Co196 2.091 . S
O198 C204 1.261 . S
C199 O208 1.247 . S
C199 O209 1.272 . S
O200 Co196 2.004 . S
O200 C205 1.259 . S
Co201 O202 2.061 . S
Co201 O207 2.052 . S
Co201 O209 2.135 . S
O202 Co201 2.061 . S
O202 C205 1.235 . S
C203 O206 1.238 . S
C203 O207 1.241 . S
C204 O197 1.247 . S
C204 O198 1.261 . S
C205 O200 1.259 . S
C205 O202 1.235 . S
O206 Co196 2.021 . S
O206 C203 1.238 . S
O207 Co201 2.052 . S
O207 C203 1.241 . S
O208 Co196 2.137 . S
O208 C199 1.247 . S
O209 Co196 2.244 . S
O209 C199 1.272 . S
O209 Co201 2.135 . S
Co210 O211 2.216 . S
Co210 O212 2.091 . S
Co210 O214 2.004 . S
Co210 O220 2.021 . S
Co210 O222 2.137 . S
Co210 O223 2.244 . S
O211 Co210 2.216 . S
O211 C218 1.247 . S
O212 Co210 2.091 . S
O212 C218 1.261 . S
C213 O222 1.247 . S
C213 O223 1.272 . S
O214 Co210 2.004 . S
O214 C219 1.259 . S
Co215 O216 2.061 . S
Co215 O221 2.052 . S
Co215 O223 2.135 . S
O216 Co215 2.061 . S
O216 C219 1.235 . S
C217 O220 1.238 . S
C217 O221 1.241 . S
C218 O211 1.247 . S
C218 O212 1.261 . S
C219 O214 1.259 . S
C219 O216 1.235 . S
O220 Co210 2.021 . S
O220 C217 1.238 . S
O221 Co215 2.052 . S
O221 C217 1.241 . S
O222 Co210 2.137 . S
O222 C213 1.247 . S
O223 Co210 2.244 . S
O223 C213 1.272 . S
O223 Co215 2.135 . S
Co224 O225 2.216 . S
Co224 O226 2.091 . S
Co224 O228 2.004 . S
Co224 O234 2.021 . S
Co224 O236 2.137 . S
Co224 O237 2.244 . S
O225 Co224 2.216 . S
O225 C232 1.247 . S
O226 Co224 2.091 . S
O226 C232 1.261 . S
C227 O236 1.247 . S
C227 O237 1.272 . S
O228 Co224 2.004 . S
O228 C233 1.259 . S
Co229 O230 2.061 . S
Co229 O235 2.052 . S
Co229 O237 2.135 . S
O230 Co229 2.061 . S
O230 C233 1.235 . S
C231 O234 1.238 . S
C231 O235 1.241 . S
C232 O225 1.247 . S
C232 O226 1.261 . S
C233 O228 1.259 . S
C233 O230 1.235 . S
O234 Co224 2.021 . S
O234 C231 1.238 . S
O235 Co229 2.052 . S
O235 C231 1.241 . S
O236 Co224 2.137 . S
O236 C227 1.247 . S
O237 Co224 2.244 . S
O237 C227 1.272 . S
O237 Co229 2.135 . S
Co238 O239 2.216 . S
Co238 O240 2.091 . S
Co238 O242 2.004 . S
Co238 O248 2.021 . S
Co238 O250 2.137 . S
Co238 O251 2.244 . S
O239 Co238 2.216 . S
O239 C246 1.247 . S
O240 Co238 2.091 . S
O240 C246 1.261 . S
C241 O250 1.247 . S
C241 O251 1.272 . S
O242 Co238 2.004 . S
O242 C247 1.259 . S
Co243 O244 2.061 . S
Co243 O249 2.052 . S
Co243 O251 2.135 . S
O244 Co243 2.061 . S
O244 C247 1.235 . S
C245 O248 1.238 . S
C245 O249 1.241 . S
C246 O239 1.247 . S
C246 O240 1.261 . S
C247 O242 1.259 . S
C247 O244 1.235 . S
O248 Co238 2.021 . S
O248 C245 1.238 . S
O249 Co243 2.052 . S
O249 C245 1.241 . S
O250 Co238 2.137 . S
O250 C241 1.247 . S
O251 Co238 2.244 . S
O251 C241 1.272 . S
O251 Co243 2.135 . S
Co252 O253 2.216 . S
Co252 O254 2.091 . S
Co252 O256 2.004 . S
Co252 O262 2.021 . S
Co252 O264 2.137 . S
Co252 O265 2.244 . S
O253 Co252 2.216 . S
O253 C260 1.247 . S
O254 Co252 2.091 . S
O254 C260 1.261 . S
C255 O264 1.247 . S
C255 O265 1.272 . S
O256 Co252 2.004 . S
O256 C261 1.259 . S
Co257 O258 2.061 . S
Co257 O263 2.052 . S
Co257 O265 2.135 . S
O258 Co257 2.061 . S
O258 C261 1.235 . S
C259 O262 1.238 . S
C259 O263 1.241 . S
C260 O253 1.247 . S
C260 O254 1.261 . S
C261 O256 1.259 . S
C261 O258 1.235 . S
O262 Co252 2.021 . S
O262 C259 1.238 . S
O263 Co257 2.052 . S
O263 C259 1.241 . S
O264 Co252 2.137 . S
O264 C255 1.247 . S
O265 Co252 2.244 . S
O265 C255 1.272 . S
O265 Co257 2.135 . S
Co266 O267 2.216 . S
Co266 O268 2.091 . S
Co266 O270 2.004 . S
Co266 O276 2.021 . S
Co266 O278 2.137 . S
Co266 O279 2.244 . S
O267 Co266 2.216 . S
O267 C274 1.247 . S
O268 Co266 2.091 . S
O268 C274 1.261 . S
C269 O278 1.247 . S
C269 O279 1.272 . S
O270 Co266 2.004 . S
O270 C275 1.259 . S
Co271 O272 2.061 . S
Co271 O277 2.052 . S
Co271 O279 2.135 . S
O272 Co271 2.061 . S
O272 C275 1.235 . S
C273 O276 1.238 . S
C273 O277 1.241 . S
C274 O267 1.247 . S
C274 O268 1.261 . S
C275 O270 1.259 . S
C275 O272 1.235 . S
O276 Co266 2.021 . S
O276 C273 1.238 . S
O277 Co271 2.052 . S
O277 C273 1.241 . S
O278 Co266 2.137 . S
O278 C269 1.247 . S
O279 Co266 2.244 . S
O279 C269 1.272 . S
O279 Co271 2.135 . S
Co280 O281 2.216 . S
Co280 O282 2.091 . S
Co280 O284 2.004 . S
Co280 O290 2.021 . S
Co280 O292 2.137 . S
Co280 O293 2.244 . S
O281 Co280 2.216 . S
O281 C288 1.247 . S
O282 Co280 2.091 . S
O282 C288 1.261 . S
C283 O292 1.247 . S
C283 O293 1.272 . S
O284 Co280 2.004 . S
O284 C289 1.259 . S
Co285 O286 2.061 . S
Co285 O291 2.052 . S
Co285 O293 2.135 . S
O286 Co285 2.061 . S
O286 C289 1.235 . S
C287 O290 1.238 . S
C287 O291 1.241 . S
C288 O281 1.247 . S
C288 O282 1.261 . S
C289 O284 1.259 . S
C289 O286 1.235 . S
O290 Co280 2.021 . S
O290 C287 1.238 . S
O291 Co285 2.052 . S
O291 C287 1.241 . S
O292 Co280 2.137 . S
O292 C283 1.247 . S
O293 Co280 2.244 . S
O293 C283 1.272 . S
O293 Co285 2.135 . S
Co294 O295 2.216 1_556 S
Co294 O296 2.091 . S
Co294 O298 2.004 . S
Co294 O304 2.021 1_556 S
Co294 O306 2.137 . S
Co294 O307 2.245 . S
O295 Co294 2.216 1_554 S
O295 C302 1.247 . S
O296 Co294 2.091 . S
O296 C302 1.261 1_556 S
C297 O306 1.247 . S
C297 O307 1.282 . S
O298 Co294 2.004 . S
O298 C303 1.259 . S
Co299 O300 2.061 1_554 S
Co299 O305 2.052 . S
Co299 O307 2.134 1_554 S
O300 Co299 2.061 1_556 S
O300 C303 1.235 . S
C301 O304 1.238 . S
C301 O305 1.241 . S
C302 O295 1.247 . S
C302 O296 1.261 1_554 S
C303 O298 1.259 . S
C303 O300 1.235 . S
O304 Co294 2.021 1_554 S
O304 C301 1.238 . S
O305 Co299 2.052 . S
O305 C301 1.241 . S
O306 Co294 2.137 . S
O306 C297 1.247 . S
O307 Co294 2.245 . S
O307 C297 1.282 . S
O307 Co299 2.134 1_556 S
Co308 O309 2.216 1_556 S
Co308 O310 2.091 . S
Co308 O312 2.004 . S
Co308 O318 2.021 1_556 S
Co308 O320 2.137 . S
Co308 O321 2.245 . S
O309 Co308 2.216 1_554 S
O309 C316 1.247 . S
O310 Co308 2.091 . S
O310 C316 1.261 1_556 S
C311 O320 1.247 . S
C311 O321 1.282 . S
O312 Co308 2.004 . S
O312 C317 1.259 . S
Co313 O314 2.061 1_554 S
Co313 O319 2.052 . S
Co313 O321 2.134 1_554 S
O314 Co313 2.061 1_556 S
O314 C317 1.235 . S
C315 O318 1.238 . S
C315 O319 1.241 . S
C316 O309 1.247 . S
C316 O310 1.261 1_554 S
C317 O312 1.259 . S
C317 O314 1.235 . S
O318 Co308 2.021 1_554 S
O318 C315 1.238 . S
O319 Co313 2.052 . S
O319 C315 1.241 . S
O320 Co308 2.137 . S
O320 C311 1.247 . S
O321 Co308 2.245 . S
O321 C311 1.282 . S
O321 Co313 2.134 1_556 S
Co322 O323 2.216 1_556 S
Co322 O324 2.091 . S
Co322 O326 2.004 . S
Co322 O332 2.021 1_556 S
Co322 O334 2.137 . S
Co322 O335 2.245 . S
O323 Co322 2.216 1_554 S
O323 C330 1.247 . S
O324 Co322 2.091 . S
O324 C330 1.261 1_556 S
C325 O334 1.247 . S
C325 O335 1.282 . S
O326 Co322 2.004 . S
O326 C331 1.259 . S
Co327 O328 2.061 1_554 S
Co327 O333 2.052 . S
Co327 O335 2.134 1_554 S
O328 Co327 2.061 1_556 S
O328 C331 1.235 . S
C329 O332 1.238 . S
C329 O333 1.241 . S
C330 O323 1.247 . S
C330 O324 1.261 1_554 S
C331 O326 1.259 . S
C331 O328 1.235 . S
O332 Co322 2.021 1_554 S
O332 C329 1.238 . S
O333 Co327 2.052 . S
O333 C329 1.241 . S
O334 Co322 2.137 . S
O334 C325 1.247 . S
O335 Co322 2.245 . S
O335 C325 1.282 . S
O335 Co327 2.134 1_556 S
Co336 O337 2.216 . S
Co336 O338 2.091 . S
Co336 O340 2.004 . S
Co336 O346 2.021 . S
Co336 O348 2.137 . S
Co336 O349 2.244 . S
O337 Co336 2.216 . S
O337 C344 1.247 . S
O338 Co336 2.091 . S
O338 C344 1.261 . S
C339 O348 1.247 . S
C339 O349 1.272 . S
O340 Co336 2.004 . S
O340 C345 1.259 . S
Co341 O342 2.061 . S
Co341 O347 2.052 . S
Co341 O349 2.135 . S
O342 Co341 2.061 . S
O342 C345 1.235 . S
C343 O346 1.238 . S
C343 O347 1.241 . S
C344 O337 1.247 . S
C344 O338 1.261 . S
C345 O340 1.259 . S
C345 O342 1.235 . S
O346 Co336 2.021 . S
O346 C343 1.238 . S
O347 Co341 2.052 . S
O347 C343 1.241 . S
O348 Co336 2.137 . S
O348 C339 1.247 . S
O349 Co336 2.244 . S
O349 C339 1.272 . S
O349 Co341 2.135 . S
Co350 O351 2.216 . S
Co350 O352 2.091 . S
Co350 O354 2.004 . S
Co350 O360 2.021 . S
Co350 O362 2.137 . S
Co350 O363 2.244 . S
O351 Co350 2.216 . S
O351 C358 1.247 . S
O352 Co350 2.091 . S
O352 C358 1.261 . S
C353 O362 1.247 . S
C353 O363 1.272 . S
O354 Co350 2.004 . S
O354 C359 1.259 . S
Co355 O356 2.061 . S
Co355 O361 2.052 . S
Co355 O363 2.135 . S
O356 Co355 2.061 . S
O356 C359 1.235 . S
C357 O360 1.238 . S
C357 O361 1.241 . S
C358 O351 1.247 . S
C358 O352 1.261 . S
C359 O354 1.259 . S
C359 O356 1.235 . S
O360 Co350 2.021 . S
O360 C357 1.238 . S
O361 Co355 2.052 . S
O361 C357 1.241 . S
O362 Co350 2.137 . S
O362 C353 1.247 . S
O363 Co350 2.244 . S
O363 C353 1.272 . S
O363 Co355 2.135 . S
Co364 O365 2.216 . S
Co364 O366 2.091 . S
Co364 O368 2.004 . S
Co364 O374 2.021 . S
Co364 O376 2.137 . S
Co364 O377 2.244 . S
O365 Co364 2.216 . S
O365 C372 1.247 . S
O366 Co364 2.091 . S
O366 C372 1.261 . S
C367 O376 1.247 . S
C367 O377 1.272 . S
O368 Co364 2.004 . S
O368 C373 1.259 . S
Co369 O370 2.061 . S
Co369 O375 2.052 . S
Co369 O377 2.135 . S
O370 Co369 2.061 . S
O370 C373 1.235 . S
C371 O374 1.238 . S
C371 O375 1.241 . S
C372 O365 1.247 . S
C372 O366 1.261 . S
C373 O368 1.259 . S
C373 O370 1.235 . S
O374 Co364 2.021 . S
O374 C371 1.238 . S
O375 Co369 2.052 . S
O375 C371 1.241 . S
O376 Co364 2.137 . S
O376 C367 1.247 . S
O377 Co364 2.244 . S
O377 C367 1.272 . S
O377 Co369 2.135 . S
Co378 O379 2.216 1_554 S
Co378 O380 2.091 . S
Co378 O382 2.004 . S
Co378 O388 2.021 1_554 S
Co378 O390 2.137 . S
Co378 O391 2.245 . S
O379 Co378 2.216 1_556 S
O379 C386 1.247 . S
O380 Co378 2.091 . S
O380 C386 1.261 1_554 S
C381 O390 1.247 . S
C381 O391 1.282 . S
O382 Co378 2.004 . S
O382 C387 1.259 . S
Co383 O384 2.061 1_556 S
Co383 O389 2.052 . S
Co383 O391 2.134 1_556 S
O384 Co383 2.061 1_554 S
O384 C387 1.235 . S
C385 O388 1.238 . S
C385 O389 1.241 . S
C386 O379 1.247 . S
C386 O380 1.261 1_556 S
C387 O382 1.259 . S
C387 O384 1.235 . S
O388 Co378 2.021 1_556 S
O388 C385 1.238 . S
O389 Co383 2.052 . S
O389 C385 1.241 . S
O390 Co378 2.137 . S
O390 C381 1.247 . S
O391 Co378 2.245 . S
O391 C381 1.282 . S
O391 Co383 2.134 1_554 S
Co392 O393 2.216 1_554 S
Co392 O394 2.091 . S
Co392 O396 2.004 . S
Co392 O402 2.021 1_554 S
Co392 O404 2.137 . S
Co392 O405 2.245 . S
O393 Co392 2.216 1_556 S
O393 C400 1.247 . S
O394 Co392 2.091 . S
O394 C400 1.261 1_554 S
C395 O404 1.247 . S
C395 O405 1.282 . S
O396 Co392 2.004 . S
O396 C401 1.259 . S
Co397 O398 2.061 1_556 S
Co397 O403 2.052 . S
Co397 O405 2.134 1_556 S
O398 Co397 2.061 1_554 S
O398 C401 1.235 . S
C399 O402 1.238 . S
C399 O403 1.241 . S
C400 O393 1.247 . S
C400 O394 1.261 1_556 S
C401 O396 1.259 . S
C401 O398 1.235 . S
O402 Co392 2.021 1_556 S
O402 C399 1.238 . S
O403 Co397 2.052 . S
O403 C399 1.241 . S
O404 Co392 2.137 . S
O404 C395 1.247 . S
O405 Co392 2.245 . S
O405 C395 1.282 . S
O405 Co397 2.134 1_554 S
Co406 O407 2.216 1_554 S
Co406 O408 2.091 . S
Co406 O410 2.004 . S
Co406 O416 2.021 1_554 S
Co406 O418 2.137 . S
Co406 O419 2.245 . S
O407 Co406 2.216 1_556 S
O407 C414 1.247 . S
O408 Co406 2.091 . S
O408 C414 1.261 1_554 S
C409 O418 1.247 . S
C409 O419 1.282 . S
O410 Co406 2.004 . S
O410 C415 1.259 . S
Co411 O412 2.061 1_556 S
Co411 O417 2.052 . S
Co411 O419 2.134 1_556 S
O412 Co411 2.061 1_554 S
O412 C415 1.235 . S
C413 O416 1.238 . S
C413 O417 1.241 . S
C414 O407 1.247 . S
C414 O408 1.261 1_556 S
C415 O410 1.259 . S
C415 O412 1.235 . S
O416 Co406 2.021 1_556 S
O416 C413 1.238 . S
O417 Co411 2.052 . S
O417 C413 1.241 . S
O418 Co406 2.137 . S
O418 C409 1.247 . S
O419 Co406 2.245 . S
O419 C409 1.282 . S
O419 Co411 2.134 1_554 S
Co420 O421 2.216 . S
Co420 O422 2.091 . S
Co420 O424 2.004 . S
Co420 O430 2.021 . S
Co420 O432 2.137 . S
Co420 O433 2.244 . S
O421 Co420 2.216 . S
O421 C428 1.247 . S
O422 Co420 2.091 . S
O422 C428 1.261 . S
C423 O432 1.247 . S
C423 O433 1.272 . S
O424 Co420 2.004 . S
O424 C429 1.259 . S
Co425 O426 2.061 . S
Co425 O431 2.052 . S
Co425 O433 2.135 . S
O426 Co425 2.061 . S
O426 C429 1.235 . S
C427 O430 1.238 . S
C427 O431 1.241 . S
C428 O421 1.247 . S
C428 O422 1.261 . S
C429 O424 1.259 . S
C429 O426 1.235 . S
O430 Co420 2.021 . S
O430 C427 1.238 . S
O431 Co425 2.052 . S
O431 C427 1.241 . S
O432 Co420 2.137 . S
O432 C423 1.247 . S
O433 Co420 2.244 . S
O433 C423 1.272 . S
O433 Co425 2.135 . S
Co434 O435 2.216 . S
Co434 O436 2.091 . S
Co434 O438 2.004 . S
Co434 O444 2.021 . S
Co434 O446 2.137 . S
Co434 O447 2.244 . S
O435 Co434 2.216 . S
O435 C442 1.247 . S
O436 Co434 2.091 . S
O436 C442 1.261 . S
C437 O446 1.247 . S
C437 O447 1.272 . S
O438 Co434 2.004 . S
O438 C443 1.259 . S
Co439 O440 2.061 . S
Co439 O445 2.052 . S
Co439 O447 2.135 . S
O440 Co439 2.061 . S
O440 C443 1.235 . S
C441 O444 1.238 . S
C441 O445 1.241 . S
C442 O435 1.247 . S
C442 O436 1.261 . S
C443 O438 1.259 . S
C443 O440 1.235 . S
O444 Co434 2.021 . S
O444 C441 1.238 . S
O445 Co439 2.052 . S
O445 C441 1.241 . S
O446 Co434 2.137 . S
O446 C437 1.247 . S
O447 Co434 2.244 . S
O447 C437 1.272 . S
O447 Co439 2.135 . S
Co448 O449 2.216 . S
Co448 O450 2.091 . S
Co448 O452 2.004 . S
Co448 O458 2.021 . S
Co448 O460 2.137 . S
Co448 O461 2.244 . S
O449 Co448 2.216 . S
O449 C456 1.247 . S
O450 Co448 2.091 . S
O450 C456 1.261 . S
C451 O460 1.247 . S
C451 O461 1.272 . S
O452 Co448 2.004 . S
O452 C457 1.259 . S
Co453 O454 2.061 . S
Co453 O459 2.052 . S
Co453 O461 2.135 . S
O454 Co453 2.061 . S
O454 C457 1.235 . S
C455 O458 1.238 . S
C455 O459 1.241 . S
C456 O449 1.247 . S
C456 O450 1.261 . S
C457 O452 1.259 . S
C457 O454 1.235 . S
O458 Co448 2.021 . S
O458 C455 1.238 . S
O459 Co453 2.052 . S
O459 C455 1.241 . S
O460 Co448 2.137 . S
O460 C451 1.247 . S
O461 Co448 2.244 . S
O461 C451 1.272 . S
O461 Co453 2.135 . S
Co462 O463 2.216 . S
Co462 O464 2.091 . S
Co462 O466 2.004 . S
Co462 O472 2.021 . S
Co462 O474 2.137 . S
Co462 O475 2.244 . S
O463 Co462 2.216 . S
O463 C470 1.247 . S
O464 Co462 2.091 . S
O464 C470 1.261 . S
C465 O474 1.247 . S
C465 O475 1.272 . S
O466 Co462 2.004 . S
O466 C471 1.259 . S
Co467 O468 2.061 . S
Co467 O473 2.052 . S
Co467 O475 2.135 . S
O468 Co467 2.061 . S
O468 C471 1.235 . S
C469 O472 1.238 . S
C469 O473 1.241 . S
C470 O463 1.247 . S
C470 O464 1.261 . S
C471 O466 1.259 . S
C471 O468 1.235 . S
O472 Co462 2.021 . S
O472 C469 1.238 . S
O473 Co467 2.052 . S
O473 C469 1.241 . S
O474 Co462 2.137 . S
O474 C465 1.247 . S
O475 Co462 2.244 . S
O475 C465 1.272 . S
O475 Co467 2.135 . S
Co476 O477 2.216 . S
Co476 O478 2.091 . S
Co476 O480 2.004 . S
Co476 O486 2.021 . S
Co476 O488 2.137 . S
Co476 O489 2.244 . S
O477 Co476 2.216 . S
O477 C484 1.247 . S
O478 Co476 2.091 . S
O478 C484 1.261 . S
C479 O488 1.247 . S
C479 O489 1.272 . S
O480 Co476 2.004 . S
O480 C485 1.259 . S
Co481 O482 2.061 . S
Co481 O487 2.052 . S
Co481 O489 2.135 . S
O482 Co481 2.061 . S
O482 C485 1.235 . S
C483 O486 1.238 . S
C483 O487 1.241 . S
C484 O477 1.247 . S
C484 O478 1.261 . S
C485 O480 1.259 . S
C485 O482 1.235 . S
O486 Co476 2.021 . S
O486 C483 1.238 . S
O487 Co481 2.052 . S
O487 C483 1.241 . S
O488 Co476 2.137 . S
O488 C479 1.247 . S
O489 Co476 2.244 . S
O489 C479 1.272 . S
O489 Co481 2.135 . S
Co490 O491 2.216 . S
Co490 O492 2.091 . S
Co490 O494 2.004 . S
Co490 O500 2.021 . S
Co490 O502 2.137 . S
Co490 O503 2.244 . S
O491 Co490 2.216 . S
O491 C498 1.247 . S
O492 Co490 2.091 . S
O492 C498 1.261 . S
C493 O502 1.247 . S
C493 O503 1.272 . S
O494 Co490 2.004 . S
O494 C499 1.259 . S
Co495 O496 2.061 . S
Co495 O501 2.052 . S
Co495 O503 2.135 . S
O496 Co495 2.061 . S
O496 C499 1.235 . S
C497 O500 1.238 . S
C497 O501 1.241 . S
C498 O491 1.247 . S
C498 O492 1.261 . S
C499 O494 1.259 . S
C499 O496 1.235 . S
O500 Co490 2.021 . S
O500 C497 1.238 . S
O501 Co495 2.052 . S
O501 C497 1.241 . S
O502 Co490 2.137 . S
O502 C493 1.247 . S
O503 Co490 2.244 . S
O503 C493 1.272 . S
O503 Co495 2.135 . S
H504 C510 0.930 . S
H505 C514 0.930 . S
H506 C519 0.929 . S
H507 C517 0.929 . S
H508 C512 0.929 . S
H509 C518 0.929 . S
C510 H504 0.930 . S
C510 C511 1.367 . S
C510 C518 1.378 . S
C511 C510 1.367 . S
C511 C519 1.433 . S
C512 H508 0.929 . S
C512 C514 1.378 . S
C512 C516 1.350 . S
C513 C516 1.463 . S
C513 C518 1.350 . S
C513 N521 1.427 . S
C514 H505 0.930 . S
C514 C512 1.378 . S
C514 C515 1.367 . S
C515 C514 1.367 . S
C515 C517 1.433 . S
C516 C512 1.350 . S
C516 C513 1.463 . S
C516 N520 1.427 . S
C517 H507 0.929 . S
C517 C515 1.433 . S
C517 N520 1.384 . S
C518 H509 0.929 . S
C518 C510 1.378 . S
C518 C513 1.350 . S
C519 H506 0.929 . S
C519 C511 1.433 . S
C519 N521 1.384 . S
N520 C516 1.427 . S
N520 C517 1.384 . S
N521 C513 1.427 . S
N521 C519 1.384 . S
H522 C528 0.930 . S
H523 C532 0.930 . S
H524 C537 0.929 . S
H525 C535 0.929 . S
H526 C530 0.929 . S
H527 C536 0.929 . S
C528 H522 0.930 . S
C528 C529 1.367 . S
C528 C536 1.378 . S
C529 C528 1.367 . S
C529 C537 1.433 . S
C530 H526 0.929 . S
C530 C532 1.378 . S
C530 C534 1.350 . S
C531 C534 1.463 1_545 S
C531 C536 1.350 . S
C531 N539 1.427 . S
C532 H523 0.930 . S
C532 C530 1.378 . S
C532 C533 1.367 . S
C533 C532 1.367 . S
C533 C535 1.433 . S
C534 C530 1.350 . S
C534 C531 1.463 1_565 S
C534 N538 1.427 . S
C535 H525 0.929 . S
C535 C533 1.433 . S
C535 N538 1.384 . S
C536 H527 0.929 . S
C536 C528 1.378 . S
C536 C531 1.350 . S
C537 H524 0.929 . S
C537 C529 1.433 . S
C537 N539 1.384 . S
N538 C534 1.427 . S
N538 C535 1.384 . S
N539 C531 1.427 . S
N539 C537 1.384 . S
H540 C546 0.930 . S
H541 C550 0.930 . S
H542 C555 0.929 . S
H543 C553 0.929 . S
H544 C548 0.929 . S
H545 C554 0.929 . S
C546 H540 0.930 . S
C546 C547 1.367 . S
C546 C554 1.378 . S
C547 C546 1.367 . S
C547 C555 1.433 . S
C548 H544 0.929 . S
C548 C550 1.378 . S
C548 C552 1.350 . S
C549 C552 1.463 1_655 S
C549 C554 1.350 . S
C549 N557 1.427 . S
C550 H541 0.930 . S
C550 C548 1.378 . S
C550 C551 1.367 . S
C551 C550 1.367 . S
C551 C553 1.433 . S
C552 C548 1.350 . S
C552 C549 1.463 1_455 S
C552 N556 1.427 . S
C553 H543 0.929 . S
C553 C551 1.433 . S
C553 N556 1.384 . S
C554 H545 0.929 . S
C554 C546 1.378 . S
C554 C549 1.350 . S
C555 H542 0.929 . S
C555 C547 1.433 . S
C555 N557 1.384 . S
N556 C552 1.427 . S
N556 C553 1.384 . S
N557 C549 1.427 . S
N557 C555 1.384 . S
H558 C564 0.930 . S
H559 C568 0.930 . S
H560 C573 0.929 . S
H561 C571 0.929 . S
H562 C566 0.929 . S
H563 C572 0.929 . S
C564 H558 0.930 . S
C564 C565 1.367 . S
C564 C572 1.378 . S
C565 C564 1.367 . S
C565 C573 1.433 . S
C566 H562 0.929 . S
C566 C568 1.378 . S
C566 C570 1.350 . S
C567 C570 1.463 . S
C567 C572 1.350 . S
C567 N575 1.427 . S
C568 H559 0.930 . S
C568 C566 1.378 . S
C568 C569 1.367 . S
C569 C568 1.367 . S
C569 C571 1.433 . S
C570 C566 1.350 . S
C570 C567 1.463 . S
C570 N574 1.427 . S
C571 H561 0.929 . S
C571 C569 1.433 . S
C571 N574 1.384 . S
C572 H563 0.929 . S
C572 C564 1.378 . S
C572 C567 1.350 . S
C573 H560 0.929 . S
C573 C565 1.433 . S
C573 N575 1.384 . S
N574 C570 1.427 . S
N574 C571 1.384 . S
N575 C567 1.427 . S
N575 C573 1.384 . S
H576 C582 0.930 . S
H577 C586 0.930 . S
H578 C591 0.929 . S
H579 C589 0.929 . S
H580 C584 0.929 . S
H581 C590 0.929 . S
C582 H576 0.930 . S
C582 C583 1.367 . S
C582 C590 1.378 . S
C583 C582 1.367 . S
C583 C591 1.433 . S
C584 H580 0.929 . S
C584 C586 1.378 . S
C584 C588 1.350 . S
C585 C588 1.463 1_545 S
C585 C590 1.350 . S
C585 N593 1.427 . S
C586 H577 0.930 . S
C586 C584 1.378 . S
C586 C587 1.367 . S
C587 C586 1.367 . S
C587 C589 1.433 . S
C588 C584 1.350 . S
C588 C585 1.463 1_565 S
C588 N592 1.427 . S
C589 H579 0.929 . S
C589 C587 1.433 . S
C589 N592 1.384 . S
C590 H581 0.929 . S
C590 C582 1.378 . S
C590 C585 1.350 . S
C591 H578 0.929 . S
C591 C583 1.433 . S
C591 N593 1.384 . S
N592 C588 1.427 . S
N592 C589 1.384 . S
N593 C585 1.427 . S
N593 C591 1.384 . S
H594 C600 0.930 . S
H595 C604 0.930 . S
H596 C609 0.929 . S
H597 C607 0.929 . S
H598 C602 0.929 . S
H599 C608 0.929 . S
C600 H594 0.930 . S
C600 C601 1.367 . S
C600 C608 1.378 . S
C601 C600 1.367 . S
C601 C609 1.433 . S
C602 H598 0.929 . S
C602 C604 1.378 . S
C602 C606 1.350 . S
C603 C606 1.463 1_455 S
C603 C608 1.350 . S
C603 N611 1.427 . S
C604 H595 0.930 . S
C604 C602 1.378 . S
C604 C605 1.367 . S
C605 C604 1.367 . S
C605 C607 1.433 . S
C606 C602 1.350 . S
C606 C603 1.463 1_655 S
C606 N610 1.427 . S
C607 H597 0.929 . S
C607 C605 1.433 . S
C607 N610 1.384 . S
C608 H599 0.929 . S
C608 C600 1.378 . S
C608 C603 1.350 . S
C609 H596 0.929 . S
C609 C601 1.433 . S
C609 N611 1.384 . S
N610 C606 1.427 . S
N610 C607 1.384 . S
N611 C603 1.427 . S
N611 C609 1.384 . S
H612 C618 0.930 . S
H613 C622 0.930 . S
H614 C627 0.929 . S
H615 C625 0.929 . S
H616 C620 0.929 . S
H617 C626 0.929 . S
C618 H612 0.930 . S
C618 C619 1.367 . S
C618 C626 1.378 . S
C619 C618 1.367 . S
C619 C627 1.433 . S
C620 H616 0.929 . S
C620 C622 1.378 . S
C620 C624 1.350 . S
C621 C624 1.463 . S
C621 C626 1.350 . S
C621 N629 1.427 . S
C622 H613 0.930 . S
C622 C620 1.378 . S
C622 C623 1.367 . S
C623 C622 1.367 . S
C623 C625 1.433 . S
C624 C620 1.350 . S
C624 C621 1.463 . S
C624 N628 1.427 . S
C625 H615 0.929 . S
C625 C623 1.433 . S
C625 N628 1.384 . S
C626 H617 0.929 . S
C626 C618 1.378 . S
C626 C621 1.350 . S
C627 H614 0.929 . S
C627 C619 1.433 . S
C627 N629 1.384 . S
N628 C624 1.427 . S
N628 C625 1.384 . S
N629 C621 1.427 . S
N629 C627 1.384 . S
H630 C636 0.930 . S
H631 C640 0.930 . S
H632 C645 0.929 . S
H633 C643 0.929 . S
H634 C638 0.929 . S
H635 C644 0.929 . S
C636 H630 0.930 . S
C636 C637 1.367 . S
C636 C644 1.378 . S
C637 C636 1.367 . S
C637 C645 1.433 . S
C638 H634 0.929 . S
C638 C640 1.378 . S
C638 C642 1.350 . S
C639 C642 1.463 . S
C639 C644 1.350 . S
C639 N647 1.427 . S
C640 H631 0.930 . S
C640 C638 1.378 . S
C640 C641 1.367 . S
C641 C640 1.367 . S
C641 C643 1.433 . S
C642 C638 1.350 . S
C642 C639 1.463 . S
C642 N646 1.427 . S
C643 H633 0.929 . S
C643 C641 1.433 . S
C643 N646 1.384 . S
C644 H635 0.929 . S
C644 C636 1.378 . S
C644 C639 1.350 . S
C645 H632 0.929 . S
C645 C637 1.433 . S
C645 N647 1.384 . S
N646 C642 1.427 . S
N646 C643 1.384 . S
N647 C639 1.427 . S
N647 C645 1.384 . S
H648 C654 0.930 . S
H649 C658 0.930 . S
H650 C663 0.929 . S
H651 C661 0.929 . S
H652 C656 0.929 . S
H653 C662 0.929 . S
C654 H648 0.930 . S
C654 C655 1.367 . S
C654 C662 1.378 . S
C655 C654 1.367 . S
C655 C663 1.433 . S
C656 H652 0.929 . S
C656 C658 1.378 . S
C656 C660 1.350 . S
C657 C660 1.463 . S
C657 C662 1.350 . S
C657 N665 1.427 . S
C658 H649 0.930 . S
C658 C656 1.378 . S
C658 C659 1.367 . S
C659 C658 1.367 . S
C659 C661 1.433 . S
C660 C656 1.350 . S
C660 C657 1.463 . S
C660 N664 1.427 . S
C661 H651 0.929 . S
C661 C659 1.433 . S
C661 N664 1.384 . S
C662 H653 0.929 . S
C662 C654 1.378 . S
C662 C657 1.350 . S
C663 H650 0.929 . S
C663 C655 1.433 . S
C663 N665 1.384 . S
N664 C660 1.427 . S
N664 C661 1.384 . S
N665 C657 1.427 . S
N665 C663 1.384 . S
H666 C672 0.930 . S
H667 C676 0.930 . S
H668 C681 0.929 . S
H669 C679 0.929 1_556 S
H670 C674 0.929 . S
H671 C680 0.929 . S
C672 H666 0.930 . S
C672 C673 1.367 . S
C672 C680 1.378 . S
C673 C672 1.367 . S
C673 C681 1.433 . S
C674 H670 0.929 . S
C674 C676 1.378 . S
C674 C678 1.350 . S
C675 C678 1.463 . S
C675 C680 1.350 . S
C675 N683 1.427 . S
C676 H667 0.930 . S
C676 C674 1.378 . S
C676 C677 1.367 . S
C677 C676 1.367 . S
C677 C679 1.433 . S
C678 C674 1.350 . S
C678 C675 1.463 . S
C678 N682 1.427 . S
C679 H669 0.929 1_554 S
C679 C677 1.433 . S
C679 N682 1.384 . S
C680 H671 0.929 . S
C680 C672 1.378 . S
C680 C675 1.350 . S
C681 H668 0.929 . S
C681 C673 1.433 . S
C681 N683 1.384 . S
N682 C678 1.427 . S
N682 C679 1.384 . S
N683 C675 1.427 . S
N683 C681 1.384 . S
H684 C690 0.930 . S
H685 C694 0.930 . S
H686 C699 0.929 1_556 S
H687 C697 0.929 . S
H688 C692 0.929 . S
H689 C698 0.929 . S
C690 H684 0.930 . S
C690 C691 1.367 . S
C690 C698 1.378 . S
C691 C690 1.367 . S
C691 C699 1.433 . S
C692 H688 0.929 . S
C692 C694 1.378 . S
C692 C696 1.350 . S
C693 C696 1.463 . S
C693 C698 1.350 . S
C693 N701 1.427 . S
C694 H685 0.930 . S
C694 C692 1.378 . S
C694 C695 1.367 . S
C695 C694 1.367 . S
C695 C697 1.433 . S
C696 C692 1.350 . S
C696 C693 1.463 . S
C696 N700 1.427 . S
C697 H687 0.929 . S
C697 C695 1.433 . S
C697 N700 1.384 . S
C698 H689 0.929 . S
C698 C690 1.378 . S
C698 C693 1.350 . S
C699 H686 0.929 1_554 S
C699 C691 1.433 . S
C699 N701 1.384 . S
N700 C696 1.427 . S
N700 C697 1.384 . S
N701 C693 1.427 . S
N701 C699 1.384 . S
H702 C708 0.930 . S
H703 C712 0.930 1_556 S
H704 C717 0.929 . S
H705 C715 0.929 . S
H706 C710 0.929 1_556 S
H707 C716 0.929 . S
C708 H702 0.930 . S
C708 C709 1.367 . S
C708 C716 1.378 . S
C709 C708 1.367 . S
C709 C717 1.433 . S
C710 H706 0.929 1_554 S
C710 C712 1.378 . S
C710 C714 1.350 . S
C711 C714 1.463 . S
C711 C716 1.350 . S
C711 N719 1.427 . S
C712 H703 0.930 1_554 S
C712 C710 1.378 . S
C712 C713 1.367 . S
C713 C712 1.367 . S
C713 C715 1.433 . S
C714 C710 1.350 . S
C714 C711 1.463 . S
C714 N718 1.427 . S
C715 H705 0.929 . S
C715 C713 1.433 . S
C715 N718 1.384 . S
C716 H707 0.929 . S
C716 C708 1.378 . S
C716 C711 1.350 . S
C717 H704 0.929 . S
C717 C709 1.433 . S
C717 N719 1.384 . S
N718 C714 1.427 . S
N718 C715 1.384 . S
N719 C711 1.427 . S
N719 C717 1.384 . S
H720 C726 0.930 . S
H721 C730 0.930 . S
H722 C735 0.929 . S
H723 C733 0.929 . S
H724 C728 0.929 . S
H725 C734 0.929 . S
C726 H720 0.930 . S
C726 C727 1.367 . S
C726 C734 1.378 . S
C727 C726 1.367 . S
C727 C735 1.433 . S
C728 H724 0.929 . S
C728 C730 1.378 . S
C728 C732 1.350 . S
C729 C732 1.463 . S
C729 C734 1.350 . S
C729 N737 1.427 . S
C730 H721 0.930 . S
C730 C728 1.378 . S
C730 C731 1.367 . S
C731 C730 1.367 . S
C731 C733 1.433 . S
C732 C728 1.350 . S
C732 C729 1.463 . S
C732 N736 1.427 . S
C733 H723 0.929 . S
C733 C731 1.433 . S
C733 N736 1.384 . S
C734 H725 0.929 . S
C734 C726 1.378 . S
C734 C729 1.350 . S
C735 H722 0.929 . S
C735 C727 1.433 . S
C735 N737 1.384 . S
N736 C732 1.427 . S
N736 C733 1.384 . S
N737 C729 1.427 . S
N737 C735 1.384 . S
H738 C744 0.930 . S
H739 C748 0.930 . S
H740 C753 0.929 . S
H741 C751 0.929 . S
H742 C746 0.929 . S
H743 C752 0.929 . S
C744 H738 0.930 . S
C744 C745 1.367 . S
C744 C752 1.378 . S
C745 C744 1.367 . S
C745 C753 1.433 . S
C746 H742 0.929 . S
C746 C748 1.378 . S
C746 C750 1.350 . S
C747 C750 1.463 . S
C747 C752 1.350 . S
C747 N755 1.427 . S
C748 H739 0.930 . S
C748 C746 1.378 . S
C748 C749 1.367 . S
C749 C748 1.367 . S
C749 C751 1.433 . S
C750 C746 1.350 . S
C750 C747 1.463 . S
C750 N754 1.427 . S
C751 H741 0.929 . S
C751 C749 1.433 . S
C751 N754 1.384 . S
C752 H743 0.929 . S
C752 C744 1.378 . S
C752 C747 1.350 . S
C753 H740 0.929 . S
C753 C745 1.433 . S
C753 N755 1.384 . S
N754 C750 1.427 . S
N754 C751 1.384 . S
N755 C747 1.427 . S
N755 C753 1.384 . S
H756 C762 0.930 . S
H757 C766 0.930 . S
H758 C771 0.929 . S
H759 C769 0.929 . S
H760 C764 0.929 . S
H761 C770 0.929 . S
C762 H756 0.930 . S
C762 C763 1.367 . S
C762 C770 1.378 . S
C763 C762 1.367 . S
C763 C771 1.433 . S
C764 H760 0.929 . S
C764 C766 1.378 . S
C764 C768 1.350 . S
C765 C768 1.463 . S
C765 C770 1.350 . S
C765 N773 1.427 . S
C766 H757 0.930 . S
C766 C764 1.378 . S
C766 C767 1.367 . S
C767 C766 1.367 . S
C767 C769 1.433 . S
C768 C764 1.350 . S
C768 C765 1.463 . S
C768 N772 1.427 . S
C769 H759 0.929 . S
C769 C767 1.433 . S
C769 N772 1.384 . S
C770 H761 0.929 . S
C770 C762 1.378 . S
C770 C765 1.350 . S
C771 H758 0.929 . S
C771 C763 1.433 . S
C771 N773 1.384 . S
N772 C768 1.427 . S
N772 C769 1.384 . S
N773 C765 1.427 . S
N773 C771 1.384 . S
H774 C780 0.930 . S
H775 C784 0.930 . S
H776 C789 0.929 . S
H777 C787 0.929 . S
H778 C782 0.929 . S
H779 C788 0.929 . S
C780 H774 0.930 . S
C780 C781 1.367 . S
C780 C788 1.378 . S
C781 C780 1.367 . S
C781 C789 1.433 . S
C782 H778 0.929 . S
C782 C784 1.378 . S
C782 C786 1.350 . S
C783 C786 1.463 . S
C783 C788 1.350 . S
C783 N791 1.427 . S
C784 H775 0.930 . S
C784 C782 1.378 . S
C784 C785 1.367 . S
C785 C784 1.367 . S
C785 C787 1.433 . S
C786 C782 1.350 . S
C786 C783 1.463 . S
C786 N790 1.427 . S
C787 H777 0.929 . S
C787 C785 1.433 . S
C787 N790 1.384 . S
C788 H779 0.929 . S
C788 C780 1.378 . S
C788 C783 1.350 . S
C789 H776 0.929 . S
C789 C781 1.433 . S
C789 N791 1.384 . S
N790 C786 1.427 . S
N790 C787 1.384 . S
N791 C783 1.427 . S
N791 C789 1.384 . S
H792 C798 0.930 . S
H793 C802 0.930 . S
H794 C807 0.929 . S
H795 C805 0.929 . S
H796 C800 0.929 . S
H797 C806 0.929 . S
C798 H792 0.930 . S
C798 C799 1.367 . S
C798 C806 1.378 . S
C799 C798 1.367 . S
C799 C807 1.433 . S
C800 H796 0.929 . S
C800 C802 1.378 . S
C800 C804 1.350 . S
C801 C804 1.463 . S
C801 C806 1.350 . S
C801 N809 1.427 . S
C802 H793 0.930 . S
C802 C800 1.378 . S
C802 C803 1.367 . S
C803 C802 1.367 . S
C803 C805 1.433 . S
C804 C800 1.350 . S
C804 C801 1.463 . S
C804 N808 1.427 . S
C805 H795 0.929 . S
C805 C803 1.433 . S
C805 N808 1.384 . S
C806 H797 0.929 . S
C806 C798 1.378 . S
C806 C801 1.350 . S
C807 H794 0.929 . S
C807 C799 1.433 . S
C807 N809 1.384 . S
N808 C804 1.427 . S
N808 C805 1.384 . S
N809 C801 1.427 . S
N809 C807 1.384 . S
H810 C816 0.930 . S
H811 C820 0.930 . S
H812 C825 0.929 . S
H813 C823 0.929 . S
H814 C818 0.929 . S
H815 C824 0.929 . S
C816 H810 0.930 . S
C816 C817 1.367 . S
C816 C824 1.378 . S
C817 C816 1.367 . S
C817 C825 1.433 . S
C818 H814 0.929 . S
C818 C820 1.378 . S
C818 C822 1.350 . S
C819 C822 1.463 . S
C819 C824 1.350 . S
C819 N827 1.427 . S
C820 H811 0.930 . S
C820 C818 1.378 . S
C820 C821 1.367 . S
C821 C820 1.367 . S
C821 C823 1.433 . S
C822 C818 1.350 . S
C822 C819 1.463 . S
C822 N826 1.427 . S
C823 H813 0.929 . S
C823 C821 1.433 . S
C823 N826 1.384 . S
C824 H815 0.929 . S
C824 C816 1.378 . S
C824 C819 1.350 . S
C825 H812 0.929 . S
C825 C817 1.433 . S
C825 N827 1.384 . S
N826 C822 1.427 . S
N826 C823 1.384 . S
N827 C819 1.427 . S
N827 C825 1.384 . S
H828 C834 0.930 . S
H829 C838 0.930 . S
H830 C843 0.929 . S
H831 C841 0.929 . S
H832 C836 0.929 . S
H833 C842 0.929 . S
C834 H828 0.930 . S
C834 C835 1.367 . S
C834 C842 1.378 . S
C835 C834 1.367 . S
C835 C843 1.433 . S
C836 H832 0.929 . S
C836 C838 1.378 1_556 S
C836 C840 1.350 . S
C837 C840 1.463 . S
C837 C842 1.350 . S
C837 N845 1.427 . S
C838 H829 0.930 . S
C838 C836 1.378 1_554 S
C838 C839 1.367 . S
C839 C838 1.367 . S
C839 C841 1.433 1_554 S
C840 C836 1.350 . S
C840 C837 1.463 . S
C840 N844 1.427 . S
C841 H831 0.929 . S
C841 C839 1.433 1_556 S
C841 N844 1.384 . S
C842 H833 0.929 . S
C842 C834 1.378 . S
C842 C837 1.350 . S
C843 H830 0.929 . S
C843 C835 1.433 . S
C843 N845 1.384 . S
N844 C840 1.427 . S
N844 C841 1.384 . S
N845 C837 1.427 . S
N845 C843 1.384 . S
H846 C852 0.931 . S
H847 C856 0.930 . S
H848 C861 0.929 . S
H849 C859 0.929 . S
H850 C854 0.929 . S
H851 C860 0.929 . S
C852 H846 0.931 . S
C852 C853 1.367 . S
C852 C860 1.378 1_554 S
C853 C852 1.367 . S
C853 C861 1.433 1_554 S
C854 H850 0.929 . S
C854 C856 1.378 . S
C854 C858 1.350 . S
C855 C858 1.463 . S
C855 C860 1.350 . S
C855 N863 1.427 . S
C856 H847 0.930 . S
C856 C854 1.378 . S
C856 C857 1.367 . S
C857 C856 1.367 . S
C857 C859 1.433 . S
C858 C854 1.350 . S
C858 C855 1.463 . S
C858 N862 1.427 . S
C859 H849 0.929 . S
C859 C857 1.433 . S
C859 N862 1.384 . S
C860 H851 0.929 . S
C860 C852 1.378 1_556 S
C860 C855 1.350 . S
C861 H848 0.929 . S
C861 C853 1.433 1_556 S
C861 N863 1.384 . S
N862 C858 1.427 . S
N862 C859 1.384 . S
N863 C855 1.427 . S
N863 C861 1.384 . S
H864 C870 0.930 . S
H865 C874 0.930 . S
H866 C879 0.929 . S
H867 C877 0.929 . S
H868 C872 0.929 . S
H869 C878 0.929 . S
C870 H864 0.930 . S
C870 C871 1.367 1_556 S
C870 C878 1.378 . S
C871 C870 1.367 1_554 S
C871 C879 1.433 . S
C872 H868 0.929 . S
C872 C874 1.378 . S
C872 C876 1.350 . S
C873 C876 1.463 . S
C873 C878 1.350 . S
C873 N881 1.427 . S
C874 H865 0.930 . S
C874 C872 1.378 . S
C874 C875 1.367 . S
C875 C874 1.367 . S
C875 C877 1.433 . S
C876 C872 1.350 . S
C876 C873 1.463 . S
C876 N880 1.427 . S
C877 H867 0.929 . S
C877 C875 1.433 . S
C877 N880 1.384 . S
C878 H869 0.929 . S
C878 C870 1.378 . S
C878 C873 1.350 . S
C879 H866 0.929 . S
C879 C871 1.433 . S
C879 N881 1.384 1_554 S
N880 C876 1.427 . S
N880 C877 1.384 . S
N881 C873 1.427 . S
N881 C879 1.384 1_556 S
H882 C888 0.930 . S
H883 C892 0.930 . S
H884 C897 0.929 . S
H885 C895 0.929 . S
H886 C890 0.929 . S
H887 C896 0.929 . S
C888 H882 0.930 . S
C888 C889 1.367 . S
C888 C896 1.378 . S
C889 C888 1.367 . S
C889 C897 1.433 . S
C890 H886 0.929 . S
C890 C892 1.378 . S
C890 C894 1.350 . S
C891 C894 1.463 . S
C891 C896 1.350 . S
C891 N899 1.427 . S
C892 H883 0.930 . S
C892 C890 1.378 . S
C892 C893 1.367 . S
C893 C892 1.367 . S
C893 C895 1.433 . S
C894 C890 1.350 . S
C894 C891 1.463 . S
C894 N898 1.427 . S
C895 H885 0.929 . S
C895 C893 1.433 . S
C895 N898 1.384 . S
C896 H887 0.929 . S
C896 C888 1.378 . S
C896 C891 1.350 . S
C897 H884 0.929 . S
C897 C889 1.433 . S
C897 N899 1.384 . S
N898 C894 1.427 . S
N898 C895 1.384 . S
N899 C891 1.427 . S
N899 C897 1.384 . S
H900 C906 0.930 . S
H901 C910 0.930 . S
H902 C915 0.929 . S
H903 C913 0.929 . S
H904 C908 0.929 . S
H905 C914 0.929 . S
C906 H900 0.930 . S
C906 C907 1.367 . S
C906 C914 1.378 . S
C907 C906 1.367 . S
C907 C915 1.433 . S
C908 H904 0.929 . S
C908 C910 1.378 . S
C908 C912 1.350 . S
C909 C912 1.463 . S
C909 C914 1.350 . S
C909 N917 1.427 . S
C910 H901 0.930 . S
C910 C908 1.378 . S
C910 C911 1.367 . S
C911 C910 1.367 . S
C911 C913 1.433 . S
C912 C908 1.350 . S
C912 C909 1.463 . S
C912 N916 1.427 . S
C913 H903 0.929 . S
C913 C911 1.433 . S
C913 N916 1.384 . S
C914 H905 0.929 . S
C914 C906 1.378 . S
C914 C909 1.350 . S
C915 H902 0.929 . S
C915 C907 1.433 . S
C915 N917 1.384 . S
N916 C912 1.427 . S
N916 C913 1.384 . S
N917 C909 1.427 . S
N917 C915 1.384 . S
H918 C924 0.930 . S
H919 C928 0.930 . S
H920 C933 0.929 . S
H921 C931 0.929 . S
H922 C926 0.929 . S
H923 C932 0.929 . S
C924 H918 0.930 . S
C924 C925 1.367 . S
C924 C932 1.378 . S
C925 C924 1.367 . S
C925 C933 1.433 . S
C926 H922 0.929 . S
C926 C928 1.378 . S
C926 C930 1.350 . S
C927 C930 1.463 . S
C927 C932 1.350 . S
C927 N935 1.427 . S
C928 H919 0.930 . S
C928 C926 1.378 . S
C928 C929 1.367 . S
C929 C928 1.367 . S
C929 C931 1.433 . S
C930 C926 1.350 . S
C930 C927 1.463 . S
C930 N934 1.427 . S
C931 H921 0.929 . S
C931 C929 1.433 . S
C931 N934 1.384 . S
C932 H923 0.929 . S
C932 C924 1.378 . S
C932 C927 1.350 . S
C933 H920 0.929 . S
C933 C925 1.433 . S
C933 N935 1.384 . S
N934 C930 1.427 . S
N934 C931 1.384 . S
N935 C927 1.427 . S
N935 C933 1.384 . S
H936 C942 0.930 . S
H937 C946 0.930 . S
H938 C951 0.929 . S
H939 C949 0.929 . S
H940 C944 0.929 . S
H941 C950 0.929 . S
C942 H936 0.930 . S
C942 C943 1.367 1_554 S
C942 C950 1.378 . S
C943 C942 1.367 1_556 S
C943 C951 1.433 . S
C944 H940 0.929 . S
C944 C946 1.378 . S
C944 C948 1.350 . S
C945 C948 1.463 . S
C945 C950 1.350 . S
C945 N953 1.427 . S
C946 H937 0.930 . S
C946 C944 1.378 . S
C946 C947 1.367 . S
C947 C946 1.367 . S
C947 C949 1.433 . S
C948 C944 1.350 . S
C948 C945 1.463 . S
C948 N952 1.427 . S
C949 H939 0.929 . S
C949 C947 1.433 . S
C949 N952 1.384 . S
C950 H941 0.929 . S
C950 C942 1.378 . S
C950 C945 1.350 . S
C951 H938 0.929 . S
C951 C943 1.433 . S
C951 N953 1.384 1_556 S
N952 C948 1.427 . S
N952 C949 1.384 . S
N953 C945 1.427 . S
N953 C951 1.384 1_554 S
H954 C960 0.930 . S
H955 C964 0.930 . S
H956 C969 0.929 . S
H957 C967 0.929 . S
H958 C962 0.929 . S
H959 C968 0.929 . S
C960 H954 0.930 . S
C960 C961 1.367 . S
C960 C968 1.378 1_556 S
C961 C960 1.367 . S
C961 C969 1.433 1_556 S
C962 H958 0.929 . S
C962 C964 1.378 . S
C962 C966 1.350 . S
C963 C966 1.463 . S
C963 C968 1.350 . S
C963 N971 1.427 . S
C964 H955 0.930 . S
C964 C962 1.378 . S
C964 C965 1.367 . S
C965 C964 1.367 . S
C965 C967 1.433 . S
C966 C962 1.350 . S
C966 C963 1.463 . S
C966 N970 1.427 . S
C967 H957 0.929 . S
C967 C965 1.433 . S
C967 N970 1.384 . S
C968 H959 0.929 . S
C968 C960 1.378 1_554 S
C968 C963 1.350 . S
C969 H956 0.929 . S
C969 C961 1.433 1_554 S
C969 N971 1.384 . S
N970 C966 1.427 . S
N970 C967 1.384 . S
N971 C963 1.427 . S
N971 C969 1.384 . S
H972 C978 0.930 . S
H973 C982 0.930 . S
H974 C987 0.929 . S
H975 C985 0.929 . S
H976 C980 0.929 . S
H977 C986 0.929 . S
C978 H972 0.930 . S
C978 C979 1.367 . S
C978 C986 1.378 . S
C979 C978 1.367 . S
C979 C987 1.433 . S
C980 H976 0.929 . S
C980 C982 1.378 1_554 S
C980 C984 1.350 . S
C981 C984 1.463 . S
C981 C986 1.350 . S
C981 N989 1.427 . S
C982 H973 0.930 . S
C982 C980 1.378 1_556 S
C982 C983 1.367 . S
C983 C982 1.367 . S
C983 C985 1.433 1_556 S
C984 C980 1.350 . S
C984 C981 1.463 . S
C984 N988 1.427 . S
C985 H975 0.929 . S
C985 C983 1.433 1_554 S
C985 N988 1.384 . S
C986 H977 0.929 . S
C986 C978 1.378 . S
C986 C981 1.350 . S
C987 H974 0.929 . S
C987 C979 1.433 . S
C987 N989 1.384 . S
N988 C984 1.427 . S
N988 C985 1.384 . S
N989 C981 1.427 . S
N989 C987 1.384 . S
H990 C996 0.930 . S
H991 C1000 0.930 . S
H992 C1005 0.929 . S
H993 C1003 0.929 . S
H994 C998 0.929 . S
H995 C1004 0.929 . S
C996 H990 0.930 . S
C996 C997 1.367 . S
C996 C1004 1.378 . S
C997 C996 1.367 . S
C997 C1005 1.433 . S
C998 H994 0.929 . S
C998 C1000 1.378 . S
C998 C1002 1.350 . S
C999 C1002 1.463 . S
C999 C1004 1.350 . S
C999 N1007 1.427 . S
C1000 H991 0.930 . S
C1000 C998 1.378 . S
C1000 C1001 1.367 . S
C1001 C1000 1.367 . S
C1001 C1003 1.433 . S
C1002 C998 1.350 . S
C1002 C999 1.463 . S
C1002 N1006 1.427 . S
C1003 H993 0.929 . S
C1003 C1001 1.433 . S
C1003 N1006 1.384 . S
C1004 H995 0.929 . S
C1004 C996 1.378 . S
C1004 C999 1.350 . S
C1005 H992 0.929 . S
C1005 C997 1.433 . S
C1005 N1007 1.384 . S
N1006 C1002 1.427 . S
N1006 C1003 1.384 . S
N1007 C999 1.427 . S
N1007 C1005 1.384 . S
H1008 C1014 0.930 . S
H1009 C1018 0.930 . S
H1010 C1023 0.929 . S
H1011 C1021 0.929 . S
H1012 C1016 0.929 . S
H1013 C1022 0.929 . S
C1014 H1008 0.930 . S
C1014 C1015 1.367 . S
C1014 C1022 1.378 . S
C1015 C1014 1.367 . S
C1015 C1023 1.433 . S
C1016 H1012 0.929 . S
C1016 C1018 1.378 . S
C1016 C1020 1.350 . S
C1017 C1020 1.463 . S
C1017 C1022 1.350 . S
C1017 N1025 1.427 . S
C1018 H1009 0.930 . S
C1018 C1016 1.378 . S
C1018 C1019 1.367 . S
C1019 C1018 1.367 . S
C1019 C1021 1.433 . S
C1020 C1016 1.350 . S
C1020 C1017 1.463 . S
C1020 N1024 1.427 . S
C1021 H1011 0.929 . S
C1021 C1019 1.433 . S
C1021 N1024 1.384 . S
C1022 H1013 0.929 . S
C1022 C1014 1.378 . S
C1022 C1017 1.350 . S
C1023 H1010 0.929 . S
C1023 C1015 1.433 . S
C1023 N1025 1.384 . S
N1024 C1020 1.427 . S
N1024 C1021 1.384 . S
N1025 C1017 1.427 . S
N1025 C1023 1.384 . S
H1026 C1032 0.930 . S
H1027 C1036 0.930 . S
H1028 C1041 0.929 . S
H1029 C1039 0.929 . S
H1030 C1034 0.929 . S
H1031 C1040 0.929 . S
C1032 H1026 0.930 . S
C1032 C1033 1.367 . S
C1032 C1040 1.378 . S
C1033 C1032 1.367 . S
C1033 C1041 1.433 . S
C1034 H1030 0.929 . S
C1034 C1036 1.378 . S
C1034 C1038 1.350 . S
C1035 C1038 1.463 . S
C1035 C1040 1.350 . S
C1035 N1043 1.427 . S
C1036 H1027 0.930 . S
C1036 C1034 1.378 . S
C1036 C1037 1.367 . S
C1037 C1036 1.367 . S
C1037 C1039 1.433 . S
C1038 C1034 1.350 . S
C1038 C1035 1.463 . S
C1038 N1042 1.427 . S
C1039 H1029 0.929 . S
C1039 C1037 1.433 . S
C1039 N1042 1.384 . S
C1040 H1031 0.929 . S
C1040 C1032 1.378 . S
C1040 C1035 1.350 . S
C1041 H1028 0.929 . S
C1041 C1033 1.433 . S
C1041 N1043 1.384 . S
N1042 C1038 1.427 . S
N1042 C1039 1.384 . S
N1043 C1035 1.427 . S
N1043 C1041 1.384 . S
H1044 C1050 0.930 . S
H1045 C1054 0.930 . S
H1046 C1059 0.929 . S
H1047 C1057 0.929 . S
H1048 C1052 0.929 . S
H1049 C1058 0.929 . S
C1050 H1044 0.930 . S
C1050 C1051 1.367 . S
C1050 C1058 1.378 . S
C1051 C1050 1.367 . S
C1051 C1059 1.433 . S
C1052 H1048 0.929 . S
C1052 C1054 1.378 . S
C1052 C1056 1.350 . S
C1053 C1056 1.463 . S
C1053 C1058 1.350 . S
C1053 N1061 1.427 . S
C1054 H1045 0.930 . S
C1054 C1052 1.378 . S
C1054 C1055 1.367 . S
C1055 C1054 1.367 . S
C1055 C1057 1.433 . S
C1056 C1052 1.350 . S
C1056 C1053 1.463 . S
C1056 N1060 1.427 . S
C1057 H1047 0.929 . S
C1057 C1055 1.433 . S
C1057 N1060 1.384 . S
C1058 H1049 0.929 . S
C1058 C1050 1.378 . S
C1058 C1053 1.350 . S
C1059 H1046 0.929 . S
C1059 C1051 1.433 . S
C1059 N1061 1.384 . S
N1060 C1056 1.427 . S
N1060 C1057 1.384 . S
N1061 C1053 1.427 . S
N1061 C1059 1.384 . S
H1062 C1068 0.930 . S
H1063 C1072 0.930 . S
H1064 C1077 0.929 . S
H1065 C1075 0.929 . S
H1066 C1070 0.929 . S
H1067 C1076 0.929 . S
C1068 H1062 0.930 . S
C1068 C1069 1.367 . S
C1068 C1076 1.378 . S
C1069 C1068 1.367 . S
C1069 C1077 1.433 . S
C1070 H1066 0.929 . S
C1070 C1072 1.378 . S
C1070 C1074 1.350 . S
C1071 C1074 1.463 . S
C1071 C1076 1.350 . S
C1071 N1079 1.427 . S
C1072 H1063 0.930 . S
C1072 C1070 1.378 . S
C1072 C1073 1.367 . S
C1073 C1072 1.367 . S
C1073 C1075 1.433 . S
C1074 C1070 1.350 . S
C1074 C1071 1.463 . S
C1074 N1078 1.427 . S
C1075 H1065 0.929 . S
C1075 C1073 1.433 . S
C1075 N1078 1.384 . S
C1076 H1067 0.929 . S
C1076 C1068 1.378 . S
C1076 C1071 1.350 . S
C1077 H1064 0.929 . S
C1077 C1069 1.433 . S
C1077 N1079 1.384 . S
N1078 C1074 1.427 . S
N1078 C1075 1.384 . S
N1079 C1071 1.427 . S
N1079 C1077 1.384 . S
H1080 C1086 0.930 . S
H1081 C1090 0.930 . S
H1082 C1095 0.929 . S
H1083 C1093 0.929 . S
H1084 C1088 0.929 . S
H1085 C1094 0.929 . S
C1086 H1080 0.930 . S
C1086 C1087 1.367 . S
C1086 C1094 1.378 . S
C1087 C1086 1.367 . S
C1087 C1095 1.433 . S
C1088 H1084 0.929 . S
C1088 C1090 1.378 . S
C1088 C1092 1.350 . S
C1089 C1092 1.463 . S
C1089 C1094 1.350 . S
C1089 N1097 1.427 . S
C1090 H1081 0.930 . S
C1090 C1088 1.378 . S
C1090 C1091 1.367 . S
C1091 C1090 1.367 . S
C1091 C1093 1.433 . S
C1092 C1088 1.350 . S
C1092 C1089 1.463 . S
C1092 N1096 1.427 . S
C1093 H1083 0.929 . S
C1093 C1091 1.433 . S
C1093 N1096 1.384 . S
C1094 H1085 0.929 . S
C1094 C1086 1.378 . S
C1094 C1089 1.350 . S
C1095 H1082 0.929 . S
C1095 C1087 1.433 . S
C1095 N1097 1.384 . S
N1096 C1092 1.427 . S
N1096 C1093 1.384 . S
N1097 C1089 1.427 . S
N1097 C1095 1.384 . S
H1098 C1104 0.930 . S
H1099 C1108 0.930 . S
H1100 C1113 0.929 . S
H1101 C1111 0.929 . S
H1102 C1106 0.929 . S
H1103 C1112 0.929 . S
C1104 H1098 0.930 . S
C1104 C1105 1.367 . S
C1104 C1112 1.378 . S
C1105 C1104 1.367 . S
C1105 C1113 1.433 . S
C1106 H1102 0.929 . S
C1106 C1108 1.378 1_556 S
C1106 C1110 1.350 . S
C1107 C1110 1.463 . S
C1107 C1112 1.350 . S
C1107 N1115 1.427 . S
C1108 H1099 0.930 . S
C1108 C1106 1.378 1_554 S
C1108 C1109 1.367 . S
C1109 C1108 1.367 . S
C1109 C1111 1.433 . S
C1110 C1106 1.350 . S
C1110 C1107 1.463 . S
C1110 N1114 1.427 1_556 S
C1111 H1101 0.929 . S
C1111 C1109 1.433 . S
C1111 N1114 1.384 . S
C1112 H1103 0.929 . S
C1112 C1104 1.378 . S
C1112 C1107 1.350 . S
C1113 H1100 0.929 . S
C1113 C1105 1.433 . S
C1113 N1115 1.384 . S
N1114 C1110 1.427 1_554 S
N1114 C1111 1.384 . S
N1115 C1107 1.427 . S
N1115 C1113 1.384 . S
H1116 C1122 0.930 . S
H1117 C1126 0.930 . S
H1118 C1131 0.929 . S
H1119 C1129 0.929 . S
H1120 C1124 0.929 . S
H1121 C1130 0.929 . S
C1122 H1116 0.930 . S
C1122 C1123 1.367 . S
C1122 C1130 1.378 . S
C1123 C1122 1.367 . S
C1123 C1131 1.433 1_554 S
C1124 H1120 0.929 . S
C1124 C1126 1.378 . S
C1124 C1128 1.350 . S
C1125 C1128 1.463 . S
C1125 C1130 1.350 1_556 S
C1125 N1133 1.427 . S
C1126 H1117 0.930 . S
C1126 C1124 1.378 . S
C1126 C1127 1.367 . S
C1127 C1126 1.367 . S
C1127 C1129 1.433 . S
C1128 C1124 1.350 . S
C1128 C1125 1.463 . S
C1128 N1132 1.427 . S
C1129 H1119 0.929 . S
C1129 C1127 1.433 . S
C1129 N1132 1.384 . S
C1130 H1121 0.929 . S
C1130 C1122 1.378 . S
C1130 C1125 1.350 1_554 S
C1131 H1118 0.929 . S
C1131 C1123 1.433 1_556 S
C1131 N1133 1.384 . S
N1132 C1128 1.427 . S
N1132 C1129 1.384 . S
N1133 C1125 1.427 . S
N1133 C1131 1.384 . S
H1134 C1140 0.930 . S
H1135 C1144 0.930 . S
H1136 C1149 0.929 . S
H1137 C1147 0.929 . S
H1138 C1142 0.929 . S
H1139 C1148 0.929 . S
C1140 H1134 0.930 . S
C1140 C1141 1.367 . S
C1140 C1148 1.378 . S
C1141 C1140 1.367 . S
C1141 C1149 1.433 . S
C1142 H1138 0.929 . S
C1142 C1144 1.378 1_556 S
C1142 C1146 1.350 . S
C1143 C1146 1.463 . S
C1143 C1148 1.350 . S
C1143 N1151 1.427 . S
C1144 H1135 0.930 . S
C1144 C1142 1.378 1_554 S
C1144 C1145 1.367 . S
C1145 C1144 1.367 . S
C1145 C1147 1.433 . S
C1146 C1142 1.350 . S
C1146 C1143 1.463 . S
C1146 N1150 1.427 . S
C1147 H1137 0.929 . S
C1147 C1145 1.433 . S
C1147 N1150 1.384 1_554 S
C1148 H1139 0.929 . S
C1148 C1140 1.378 . S
C1148 C1143 1.350 . S
C1149 H1136 0.929 . S
C1149 C1141 1.433 . S
C1149 N1151 1.384 . S
N1150 C1146 1.427 . S
N1150 C1147 1.384 1_556 S
N1151 C1143 1.427 . S
N1151 C1149 1.384 . S
H1152 C1158 0.930 . S
H1153 C1162 0.930 . S
H1154 C1167 0.929 . S
H1155 C1165 0.929 . S
H1156 C1160 0.929 . S
H1157 C1166 0.929 . S
C1158 H1152 0.930 . S
C1158 C1159 1.367 . S
C1158 C1166 1.378 . S
C1159 C1158 1.367 . S
C1159 C1167 1.433 . S
C1160 H1156 0.929 . S
C1160 C1162 1.378 . S
C1160 C1164 1.350 . S
C1161 C1164 1.463 . S
C1161 C1166 1.350 . S
C1161 N1169 1.427 . S
C1162 H1153 0.930 . S
C1162 C1160 1.378 . S
C1162 C1163 1.367 . S
C1163 C1162 1.367 . S
C1163 C1165 1.433 . S
C1164 C1160 1.350 . S
C1164 C1161 1.463 . S
C1164 N1168 1.427 . S
C1165 H1155 0.929 . S
C1165 C1163 1.433 . S
C1165 N1168 1.384 . S
C1166 H1157 0.929 . S
C1166 C1158 1.378 . S
C1166 C1161 1.350 . S
C1167 H1154 0.929 . S
C1167 C1159 1.433 . S
C1167 N1169 1.384 . S
N1168 C1164 1.427 . S
N1168 C1165 1.384 . S
N1169 C1161 1.427 . S
N1169 C1167 1.384 . S
H1170 C1176 0.930 . S
H1171 C1180 0.930 . S
H1172 C1185 0.929 . S
H1173 C1183 0.929 . S
H1174 C1178 0.929 . S
H1175 C1184 0.929 . S
C1176 H1170 0.930 . S
C1176 C1177 1.367 . S
C1176 C1184 1.378 . S
C1177 C1176 1.367 . S
C1177 C1185 1.433 . S
C1178 H1174 0.929 . S
C1178 C1180 1.378 . S
C1178 C1182 1.350 . S
C1179 C1182 1.463 . S
C1179 C1184 1.350 . S
C1179 N1187 1.427 . S
C1180 H1171 0.930 . S
C1180 C1178 1.378 . S
C1180 C1181 1.367 . S
C1181 C1180 1.367 . S
C1181 C1183 1.433 . S
C1182 C1178 1.350 . S
C1182 C1179 1.463 . S
C1182 N1186 1.427 . S
C1183 H1173 0.929 . S
C1183 C1181 1.433 . S
C1183 N1186 1.384 . S
C1184 H1175 0.929 . S
C1184 C1176 1.378 . S
C1184 C1179 1.350 . S
C1185 H1172 0.929 . S
C1185 C1177 1.433 . S
C1185 N1187 1.384 . S
N1186 C1182 1.427 . S
N1186 C1183 1.384 . S
N1187 C1179 1.427 . S
N1187 C1185 1.384 . S
H1188 C1194 0.930 . S
H1189 C1198 0.930 . S
H1190 C1203 0.929 . S
H1191 C1201 0.929 . S
H1192 C1196 0.929 . S
H1193 C1202 0.929 . S
C1194 H1188 0.930 . S
C1194 C1195 1.367 . S
C1194 C1202 1.378 . S
C1195 C1194 1.367 . S
C1195 C1203 1.433 . S
C1196 H1192 0.929 . S
C1196 C1198 1.378 . S
C1196 C1200 1.350 . S
C1197 C1200 1.463 . S
C1197 C1202 1.350 . S
C1197 N1205 1.427 . S
C1198 H1189 0.930 . S
C1198 C1196 1.378 . S
C1198 C1199 1.367 . S
C1199 C1198 1.367 . S
C1199 C1201 1.433 . S
C1200 C1196 1.350 . S
C1200 C1197 1.463 . S
C1200 N1204 1.427 . S
C1201 H1191 0.929 . S
C1201 C1199 1.433 . S
C1201 N1204 1.384 . S
C1202 H1193 0.929 . S
C1202 C1194 1.378 . S
C1202 C1197 1.350 . S
C1203 H1190 0.929 . S
C1203 C1195 1.433 . S
C1203 N1205 1.384 . S
N1204 C1200 1.427 . S
N1204 C1201 1.384 . S
N1205 C1197 1.427 . S
N1205 C1203 1.384 . S
H1206 C1212 0.930 . S
H1207 C1216 0.930 . S
H1208 C1221 0.929 . S
H1209 C1219 0.929 . S
H1210 C1214 0.929 . S
H1211 C1220 0.929 . S
C1212 H1206 0.930 . S
C1212 C1213 1.367 . S
C1212 C1220 1.378 . S
C1213 C1212 1.367 . S
C1213 C1221 1.433 . S
C1214 H1210 0.929 . S
C1214 C1216 1.378 . S
C1214 C1218 1.350 . S
C1215 C1218 1.463 . S
C1215 C1220 1.350 . S
C1215 N1223 1.427 . S
C1216 H1207 0.930 . S
C1216 C1214 1.378 . S
C1216 C1217 1.367 . S
C1217 C1216 1.367 . S
C1217 C1219 1.433 . S
C1218 C1214 1.350 . S
C1218 C1215 1.463 . S
C1218 N1222 1.427 . S
C1219 H1209 0.929 . S
C1219 C1217 1.433 . S
C1219 N1222 1.384 . S
C1220 H1211 0.929 . S
C1220 C1212 1.378 . S
C1220 C1215 1.350 . S
C1221 H1208 0.929 . S
C1221 C1213 1.433 . S
C1221 N1223 1.384 . S
N1222 C1218 1.427 . S
N1222 C1219 1.384 . S
N1223 C1215 1.427 . S
N1223 C1221 1.384 . S
H1224 C1230 0.930 . S
H1225 C1234 0.930 . S
H1226 C1239 0.929 . S
H1227 C1237 0.929 . S
H1228 C1232 0.929 . S
H1229 C1238 0.929 . S
C1230 H1224 0.930 . S
C1230 C1231 1.367 . S
C1230 C1238 1.378 . S
C1231 C1230 1.367 . S
C1231 C1239 1.433 . S
C1232 H1228 0.929 . S
C1232 C1234 1.378 . S
C1232 C1236 1.350 . S
C1233 C1236 1.463 . S
C1233 C1238 1.350 . S
C1233 N1241 1.427 . S
C1234 H1225 0.930 . S
C1234 C1232 1.378 . S
C1234 C1235 1.367 . S
C1235 C1234 1.367 . S
C1235 C1237 1.433 . S
C1236 C1232 1.350 . S
C1236 C1233 1.463 . S
C1236 N1240 1.427 . S
C1237 H1227 0.929 . S
C1237 C1235 1.433 . S
C1237 N1240 1.384 . S
C1238 H1229 0.929 . S
C1238 C1230 1.378 . S
C1238 C1233 1.350 . S
C1239 H1226 0.929 . S
C1239 C1231 1.433 . S
C1239 N1241 1.384 . S
N1240 C1236 1.427 . S
N1240 C1237 1.384 . S
N1241 C1233 1.427 . S
N1241 C1239 1.384 . S
H1242 C1248 0.930 . S
H1243 C1252 0.930 . S
H1244 C1257 0.929 . S
H1245 C1255 0.929 . S
H1246 C1250 0.929 . S
H1247 C1256 0.929 . S
C1248 H1242 0.930 . S
C1248 C1249 1.367 . S
C1248 C1256 1.378 . S
C1249 C1248 1.367 . S
C1249 C1257 1.433 . S
C1250 H1246 0.929 . S
C1250 C1252 1.378 . S
C1250 C1254 1.350 . S
C1251 C1254 1.463 . S
C1251 C1256 1.350 . S
C1251 N1259 1.427 . S
C1252 H1243 0.930 . S
C1252 C1250 1.378 . S
C1252 C1253 1.367 . S
C1253 C1252 1.367 . S
C1253 C1255 1.433 . S
C1254 C1250 1.350 . S
C1254 C1251 1.463 . S
C1254 N1258 1.427 . S
C1255 H1245 0.929 . S
C1255 C1253 1.433 . S
C1255 N1258 1.384 . S
C1256 H1247 0.929 . S
C1256 C1248 1.378 . S
C1256 C1251 1.350 . S
C1257 H1244 0.929 . S
C1257 C1249 1.433 . S
C1257 N1259 1.384 . S
N1258 C1254 1.427 . S
N1258 C1255 1.384 . S
N1259 C1251 1.427 . S
N1259 C1257 1.384 . S
H1260 C1266 0.930 . S
H1261 C1270 0.930 . S
H1262 C1275 0.929 . S
H1263 C1273 0.929 . S
H1264 C1268 0.929 . S
H1265 C1274 0.929 . S
C1266 H1260 0.930 . S
C1266 C1267 1.367 . S
C1266 C1274 1.378 . S
C1267 C1266 1.367 . S
C1267 C1275 1.433 . S
C1268 H1264 0.929 . S
C1268 C1270 1.378 . S
C1268 C1272 1.350 . S
C1269 C1272 1.463 . S
C1269 C1274 1.350 . S
C1269 N1277 1.427 . S
C1270 H1261 0.930 . S
C1270 C1268 1.378 . S
C1270 C1271 1.367 . S
C1271 C1270 1.367 . S
C1271 C1273 1.433 . S
C1272 C1268 1.350 . S
C1272 C1269 1.463 . S
C1272 N1276 1.427 . S
C1273 H1263 0.929 . S
C1273 C1271 1.433 . S
C1273 N1276 1.384 . S
C1274 H1265 0.929 . S
C1274 C1266 1.378 . S
C1274 C1269 1.350 . S
C1275 H1262 0.929 . S
C1275 C1267 1.433 . S
C1275 N1277 1.384 . S
N1276 C1272 1.427 . S
N1276 C1273 1.384 . S
N1277 C1269 1.427 . S
N1277 C1275 1.384 . S
H1278 C1284 0.930 . S
H1279 C1288 0.930 . S
H1280 C1293 0.929 . S
H1281 C1291 0.929 . S
H1282 C1286 0.929 . S
H1283 C1292 0.929 . S
C1284 H1278 0.930 . S
C1284 C1285 1.367 . S
C1284 C1292 1.378 . S
C1285 C1284 1.367 . S
C1285 C1293 1.433 . S
C1286 H1282 0.929 . S
C1286 C1288 1.378 . S
C1286 C1290 1.350 . S
C1287 C1290 1.463 . S
C1287 C1292 1.350 . S
C1287 N1295 1.427 . S
C1288 H1279 0.930 . S
C1288 C1286 1.378 . S
C1288 C1289 1.367 . S
C1289 C1288 1.367 . S
C1289 C1291 1.433 . S
C1290 C1286 1.350 . S
C1290 C1287 1.463 . S
C1290 N1294 1.427 . S
C1291 H1281 0.929 . S
C1291 C1289 1.433 . S
C1291 N1294 1.384 . S
C1292 H1283 0.929 . S
C1292 C1284 1.378 . S
C1292 C1287 1.350 . S
C1293 H1280 0.929 . S
C1293 C1285 1.433 . S
C1293 N1295 1.384 . S
N1294 C1290 1.427 . S
N1294 C1291 1.384 . S
N1295 C1287 1.427 . S
N1295 C1293 1.384 . S
H1296 C1302 0.930 . S
H1297 C1306 0.930 . S
H1298 C1311 0.929 . S
H1299 C1309 0.929 . S
H1300 C1304 0.929 . S
H1301 C1310 0.929 . S
C1302 H1296 0.930 . S
C1302 C1303 1.367 . S
C1302 C1310 1.378 . S
C1303 C1302 1.367 . S
C1303 C1311 1.433 . S
C1304 H1300 0.929 . S
C1304 C1306 1.378 . S
C1304 C1308 1.350 . S
C1305 C1308 1.463 . S
C1305 C1310 1.350 . S
C1305 N1313 1.427 . S
C1306 H1297 0.930 . S
C1306 C1304 1.378 . S
C1306 C1307 1.367 . S
C1307 C1306 1.367 . S
C1307 C1309 1.433 . S
C1308 C1304 1.350 . S
C1308 C1305 1.463 . S
C1308 N1312 1.427 . S
C1309 H1299 0.929 . S
C1309 C1307 1.433 . S
C1309 N1312 1.384 . S
C1310 H1301 0.929 . S
C1310 C1302 1.378 . S
C1310 C1305 1.350 . S
C1311 H1298 0.929 . S
C1311 C1303 1.433 . S
C1311 N1313 1.384 . S
N1312 C1308 1.427 . S
N1312 C1309 1.384 . S
N1313 C1305 1.427 . S
N1313 C1311 1.384 . S
H1314 C1320 0.930 . S
H1315 C1324 0.930 . S
H1316 C1329 0.929 . S
H1317 C1327 0.929 . S
H1318 C1322 0.929 . S
H1319 C1328 0.929 . S
C1320 H1314 0.930 . S
C1320 C1321 1.367 . S
C1320 C1328 1.378 . S
C1321 C1320 1.367 . S
C1321 C1329 1.433 . S
C1322 H1318 0.929 . S
C1322 C1324 1.378 . S
C1322 C1326 1.350 . S
C1323 C1326 1.463 . S
C1323 C1328 1.350 . S
C1323 N1331 1.427 . S
C1324 H1315 0.930 . S
C1324 C1322 1.378 . S
C1324 C1325 1.367 . S
C1325 C1324 1.367 . S
C1325 C1327 1.433 . S
C1326 C1322 1.350 . S
C1326 C1323 1.463 . S
C1326 N1330 1.427 . S
C1327 H1317 0.929 . S
C1327 C1325 1.433 . S
C1327 N1330 1.384 . S
C1328 H1319 0.929 . S
C1328 C1320 1.378 . S
C1328 C1323 1.350 . S
C1329 H1316 0.929 . S
C1329 C1321 1.433 . S
C1329 N1331 1.384 . S
N1330 C1326 1.427 . S
N1330 C1327 1.384 . S
N1331 C1323 1.427 . S
N1331 C1329 1.384 . S
H1332 C1338 0.930 . S
H1333 C1342 0.930 . S
H1334 C1347 0.929 . S
H1335 C1345 0.929 . S
H1336 C1340 0.929 . S
H1337 C1346 0.929 . S
C1338 H1332 0.930 . S
C1338 C1339 1.367 . S
C1338 C1346 1.378 . S
C1339 C1338 1.367 . S
C1339 C1347 1.433 . S
C1340 H1336 0.929 . S
C1340 C1342 1.378 . S
C1340 C1344 1.350 . S
C1341 C1344 1.463 . S
C1341 C1346 1.350 . S
C1341 N1349 1.427 . S
C1342 H1333 0.930 . S
C1342 C1340 1.378 . S
C1342 C1343 1.367 . S
C1343 C1342 1.367 . S
C1343 C1345 1.433 . S
C1344 C1340 1.350 . S
C1344 C1341 1.463 . S
C1344 N1348 1.427 . S
C1345 H1335 0.929 . S
C1345 C1343 1.433 . S
C1345 N1348 1.384 . S
C1346 H1337 0.929 . S
C1346 C1338 1.378 . S
C1346 C1341 1.350 . S
C1347 H1334 0.929 . S
C1347 C1339 1.433 . S
C1347 N1349 1.384 . S
N1348 C1344 1.427 . S
N1348 C1345 1.384 . S
N1349 C1341 1.427 . S
N1349 C1347 1.384 . S
H1350 C1356 0.930 . S
H1351 C1360 0.930 . S
H1352 C1365 0.929 . S
H1353 C1363 0.929 . S
H1354 C1358 0.929 . S
H1355 C1364 0.929 . S
C1356 H1350 0.930 . S
C1356 C1357 1.367 . S
C1356 C1364 1.378 . S
C1357 C1356 1.367 . S
C1357 C1365 1.433 . S
C1358 H1354 0.929 . S
C1358 C1360 1.378 . S
C1358 C1362 1.350 . S
C1359 C1362 1.463 . S
C1359 C1364 1.350 . S
C1359 N1367 1.427 . S
C1360 H1351 0.930 . S
C1360 C1358 1.378 . S
C1360 C1361 1.367 . S
C1361 C1360 1.367 . S
C1361 C1363 1.433 . S
C1362 C1358 1.350 . S
C1362 C1359 1.463 . S
C1362 N1366 1.427 . S
C1363 H1353 0.929 . S
C1363 C1361 1.433 . S
C1363 N1366 1.384 . S
C1364 H1355 0.929 . S
C1364 C1356 1.378 . S
C1364 C1359 1.350 . S
C1365 H1352 0.929 . S
C1365 C1357 1.433 . S
C1365 N1367 1.384 . S
N1366 C1362 1.427 . S
N1366 C1363 1.384 . S
N1367 C1359 1.427 . S
N1367 C1365 1.384 . S
H1368 C1374 0.930 . S
H1369 C1378 0.930 . S
H1370 C1383 0.929 . S
H1371 C1381 0.929 . S
H1372 C1376 0.929 . S
H1373 C1382 0.929 . S
C1374 H1368 0.930 . S
C1374 C1375 1.367 . S
C1374 C1382 1.378 . S
C1375 C1374 1.367 . S
C1375 C1383 1.433 . S
C1376 H1372 0.929 . S
C1376 C1378 1.378 . S
C1376 C1380 1.350 . S
C1377 C1380 1.463 . S
C1377 C1382 1.350 . S
C1377 N1385 1.427 . S
C1378 H1369 0.930 . S
C1378 C1376 1.378 . S
C1378 C1379 1.367 . S
C1379 C1378 1.367 . S
C1379 C1381 1.433 . S
C1380 C1376 1.350 . S
C1380 C1377 1.463 . S
C1380 N1384 1.427 . S
C1381 H1371 0.929 . S
C1381 C1379 1.433 . S
C1381 N1384 1.384 . S
C1382 H1373 0.929 . S
C1382 C1374 1.378 . S
C1382 C1377 1.350 . S
C1383 H1370 0.929 . S
C1383 C1375 1.433 . S
C1383 N1385 1.384 . S
N1384 C1380 1.427 . S
N1384 C1381 1.384 . S
N1385 C1377 1.427 . S
N1385 C1383 1.384 . S
H1386 C1392 0.930 . S
H1387 C1396 0.930 . S
H1388 C1401 0.929 . S
H1389 C1399 0.929 . S
H1390 C1394 0.929 . S
H1391 C1400 0.929 . S
C1392 H1386 0.930 . S
C1392 C1393 1.367 . S
C1392 C1400 1.378 . S
C1393 C1392 1.367 . S
C1393 C1401 1.433 . S
C1394 H1390 0.929 . S
C1394 C1396 1.378 . S
C1394 C1398 1.350 . S
C1395 C1398 1.463 . S
C1395 C1400 1.350 . S
C1395 N1403 1.427 . S
C1396 H1387 0.930 . S
C1396 C1394 1.378 . S
C1396 C1397 1.367 . S
C1397 C1396 1.367 . S
C1397 C1399 1.433 . S
C1398 C1394 1.350 . S
C1398 C1395 1.463 . S
C1398 N1402 1.427 . S
C1399 H1389 0.929 . S
C1399 C1397 1.433 . S
C1399 N1402 1.384 . S
C1400 H1391 0.929 . S
C1400 C1392 1.378 . S
C1400 C1395 1.350 . S
C1401 H1388 0.929 . S
C1401 C1393 1.433 . S
C1401 N1403 1.384 . S
N1402 C1398 1.427 . S
N1402 C1399 1.384 . S
N1403 C1395 1.427 . S
N1403 C1401 1.384 . S
H1404 C1410 0.930 . S
H1405 C1414 0.930 . S
H1406 C1419 0.929 . S
H1407 C1417 0.929 . S
H1408 C1412 0.929 . S
H1409 C1418 0.929 . S
C1410 H1404 0.930 . S
C1410 C1411 1.367 . S
C1410 C1418 1.378 . S
C1411 C1410 1.367 . S
C1411 C1419 1.433 . S
C1412 H1408 0.929 . S
C1412 C1414 1.378 . S
C1412 C1416 1.350 . S
C1413 C1416 1.463 . S
C1413 C1418 1.350 . S
C1413 N1421 1.427 . S
C1414 H1405 0.930 . S
C1414 C1412 1.378 . S
C1414 C1415 1.367 . S
C1415 C1414 1.367 . S
C1415 C1417 1.433 . S
C1416 C1412 1.350 . S
C1416 C1413 1.463 . S
C1416 N1420 1.427 . S
C1417 H1407 0.929 . S
C1417 C1415 1.433 . S
C1417 N1420 1.384 . S
C1418 H1409 0.929 . S
C1418 C1410 1.378 . S
C1418 C1413 1.350 . S
C1419 H1406 0.929 . S
C1419 C1411 1.433 . S
C1419 N1421 1.384 . S
N1420 C1416 1.427 . S
N1420 C1417 1.384 . S
N1421 C1413 1.427 . S
N1421 C1419 1.384 . S
H1422 C1428 0.930 . S
H1423 C1432 0.930 . S
H1424 C1437 0.929 . S
H1425 C1435 0.929 . S
H1426 C1430 0.929 . S
H1427 C1436 0.929 . S
C1428 H1422 0.930 . S
C1428 C1429 1.367 1_554 S
C1428 C1436 1.378 . S
C1429 C1428 1.367 1_556 S
C1429 C1437 1.433 . S
C1430 H1426 0.929 . S
C1430 C1432 1.378 . S
C1430 C1434 1.350 . S
C1431 C1434 1.463 . S
C1431 C1436 1.350 . S
C1431 N1439 1.427 1_554 S
C1432 H1423 0.930 . S
C1432 C1430 1.378 . S
C1432 C1433 1.367 . S
C1433 C1432 1.367 . S
C1433 C1435 1.433 . S
C1434 C1430 1.350 . S
C1434 C1431 1.463 . S
C1434 N1438 1.427 . S
C1435 H1425 0.929 . S
C1435 C1433 1.433 . S
C1435 N1438 1.384 . S
C1436 H1427 0.929 . S
C1436 C1428 1.378 . S
C1436 C1431 1.350 . S
C1437 H1424 0.929 . S
C1437 C1429 1.433 . S
C1437 N1439 1.384 . S
N1438 C1434 1.427 . S
N1438 C1435 1.384 . S
N1439 C1431 1.427 1_556 S
N1439 C1437 1.384 . S
H1440 C1446 0.930 . S
H1441 C1450 0.930 . S
H1442 C1455 0.929 . S
H1443 C1453 0.929 . S
H1444 C1448 0.929 . S
H1445 C1454 0.929 . S
C1446 H1440 0.930 . S
C1446 C1447 1.367 . S
C1446 C1454 1.378 1_556 S
C1447 C1446 1.367 . S
C1447 C1455 1.433 . S
C1448 H1444 0.929 . S
C1448 C1450 1.378 . S
C1448 C1452 1.350 . S
C1449 C1452 1.463 . S
C1449 C1454 1.350 . S
C1449 N1457 1.427 . S
C1450 H1441 0.930 . S
C1450 C1448 1.378 . S
C1450 C1451 1.367 . S
C1451 C1450 1.367 . S
C1451 C1453 1.433 . S
C1452 C1448 1.350 . S
C1452 C1449 1.463 . S
C1452 N1456 1.427 . S
C1453 H1443 0.929 . S
C1453 C1451 1.433 . S
C1453 N1456 1.384 . S
C1454 H1445 0.929 . S
C1454 C1446 1.378 1_554 S
C1454 C1449 1.350 . S
C1455 H1442 0.929 . S
C1455 C1447 1.433 . S
C1455 N1457 1.384 1_556 S
N1456 C1452 1.427 . S
N1456 C1453 1.384 . S
N1457 C1449 1.427 . S
N1457 C1455 1.384 1_554 S
H1458 C1464 0.930 . S
H1459 C1468 0.930 . S
H1460 C1473 0.929 . S
H1461 C1471 0.929 . S
H1462 C1466 0.929 . S
H1463 C1472 0.929 . S
C1464 H1458 0.930 . S
C1464 C1465 1.367 . S
C1464 C1472 1.378 1_556 S
C1465 C1464 1.367 . S
C1465 C1473 1.433 . S
C1466 H1462 0.929 . S
C1466 C1468 1.378 . S
C1466 C1470 1.350 . S
C1467 C1470 1.463 . S
C1467 C1472 1.350 . S
C1467 N1475 1.427 . S
C1468 H1459 0.930 . S
C1468 C1466 1.378 . S
C1468 C1469 1.367 . S
C1469 C1468 1.367 . S
C1469 C1471 1.433 . S
C1470 C1466 1.350 . S
C1470 C1467 1.463 . S
C1470 N1474 1.427 . S
C1471 H1461 0.929 . S
C1471 C1469 1.433 . S
C1471 N1474 1.384 . S
C1472 H1463 0.929 . S
C1472 C1464 1.378 1_554 S
C1472 C1467 1.350 . S
C1473 H1460 0.929 . S
C1473 C1465 1.433 . S
C1473 N1475 1.384 1_556 S
N1474 C1470 1.427 . S
N1474 C1471 1.384 . S
N1475 C1467 1.427 . S
N1475 C1473 1.384 1_554 S
H1476 C1482 0.930 . S
H1477 C1486 0.930 . S
H1478 C1491 0.929 . S
H1479 C1489 0.929 . S
H1480 C1484 0.929 . S
H1481 C1490 0.929 . S
C1482 H1476 0.930 . S
C1482 C1483 1.367 . S
C1482 C1490 1.378 . S
C1483 C1482 1.367 . S
C1483 C1491 1.433 . S
C1484 H1480 0.929 . S
C1484 C1486 1.378 . S
C1484 C1488 1.350 . S
C1485 C1488 1.463 . S
C1485 C1490 1.350 . S
C1485 N1493 1.427 . S
C1486 H1477 0.930 . S
C1486 C1484 1.378 . S
C1486 C1487 1.367 . S
C1487 C1486 1.367 . S
C1487 C1489 1.433 . S
C1488 C1484 1.350 . S
C1488 C1485 1.463 . S
C1488 N1492 1.427 . S
C1489 H1479 0.929 . S
C1489 C1487 1.433 . S
C1489 N1492 1.384 . S
C1490 H1481 0.929 . S
C1490 C1482 1.378 . S
C1490 C1485 1.350 . S
C1491 H1478 0.929 . S
C1491 C1483 1.433 . S
C1491 N1493 1.384 . S
N1492 C1488 1.427 . S
N1492 C1489 1.384 . S
N1493 C1485 1.427 . S
N1493 C1491 1.384 . S
H1494 C1500 0.930 . S
H1495 C1504 0.930 1_556 S
H1496 C1509 0.929 . S
H1497 C1507 0.929 . S
H1498 C1502 0.929 1_556 S
H1499 C1508 0.929 . S
C1500 H1494 0.930 . S
C1500 C1501 1.367 . S
C1500 C1508 1.378 . S
C1501 C1500 1.367 . S
C1501 C1509 1.433 . S
C1502 H1498 0.929 1_554 S
C1502 C1504 1.378 . S
C1502 C1506 1.350 . S
C1503 C1506 1.463 . S
C1503 C1508 1.350 . S
C1503 N1511 1.427 . S
C1504 H1495 0.930 1_554 S
C1504 C1502 1.378 . S
C1504 C1505 1.367 . S
C1505 C1504 1.367 . S
C1505 C1507 1.433 . S
C1506 C1502 1.350 . S
C1506 C1503 1.463 . S
C1506 N1510 1.427 . S
C1507 H1497 0.929 . S
C1507 C1505 1.433 . S
C1507 N1510 1.384 . S
C1508 H1499 0.929 . S
C1508 C1500 1.378 . S
C1508 C1503 1.350 . S
C1509 H1496 0.929 . S
C1509 C1501 1.433 . S
C1509 N1511 1.384 . S
N1510 C1506 1.427 . S
N1510 C1507 1.384 . S
N1511 C1503 1.427 . S
N1511 C1509 1.384 . S
H1512 C1518 0.930 . S
H1513 C1522 0.930 . S
H1514 C1527 0.934 . S
H1515 C1525 0.929 . S
H1516 C1520 0.928 . S
H1517 C1526 0.929 . S
C1518 H1512 0.930 . S
C1518 C1519 1.367 . S
C1518 C1526 1.378 . S
C1519 C1518 1.367 . S
C1519 C1527 1.429 1_554 S
C1520 H1516 0.928 . S
C1520 C1522 1.378 . S
C1520 C1524 1.350 . S
C1521 C1524 1.463 . S
C1521 C1526 1.350 . S
C1521 N1529 1.427 . S
C1522 H1513 0.930 . S
C1522 C1520 1.378 . S
C1522 C1523 1.367 . S
C1523 C1522 1.367 . S
C1523 C1525 1.433 . S
C1524 C1520 1.350 . S
C1524 C1521 1.463 . S
C1524 N1528 1.427 . S
C1525 H1515 0.929 . S
C1525 C1523 1.433 . S
C1525 N1528 1.384 . S
C1526 H1517 0.929 . S
C1526 C1518 1.378 . S
C1526 C1521 1.350 . S
C1527 H1514 0.934 . S
C1527 C1519 1.429 1_556 S
C1527 N1529 1.382 1_556 S
N1528 C1524 1.427 . S
N1528 C1525 1.384 . S
N1529 C1521 1.427 . S
N1529 C1527 1.382 1_554 S
H1530 C1536 0.930 . S
H1531 C1540 0.930 . S
H1532 C1545 0.929 . S
H1533 C1543 0.929 . S
H1534 C1538 0.929 . S
H1535 C1544 0.929 . S
C1536 H1530 0.930 . S
C1536 C1537 1.367 . S
C1536 C1544 1.378 . S
C1537 C1536 1.367 . S
C1537 C1545 1.433 . S
C1538 H1534 0.929 . S
C1538 C1540 1.378 . S
C1538 C1542 1.350 . S
C1539 C1542 1.463 . S
C1539 C1544 1.350 . S
C1539 N1547 1.427 . S
C1540 H1531 0.930 . S
C1540 C1538 1.378 . S
C1540 C1541 1.367 . S
C1541 C1540 1.367 . S
C1541 C1543 1.433 . S
C1542 C1538 1.350 . S
C1542 C1539 1.463 . S
C1542 N1546 1.427 . S
C1543 H1533 0.929 . S
C1543 C1541 1.433 . S
C1543 N1546 1.384 . S
C1544 H1535 0.929 . S
C1544 C1536 1.378 . S
C1544 C1539 1.350 . S
C1545 H1532 0.929 . S
C1545 C1537 1.433 . S
C1545 N1547 1.384 . S
N1546 C1542 1.427 . S
N1546 C1543 1.384 . S
N1547 C1539 1.427 . S
N1547 C1545 1.384 . S
H1548 C1554 0.930 . S
H1549 C1558 0.930 . S
H1550 C1563 0.929 . S
H1551 C1561 0.929 . S
H1552 C1556 0.929 . S
H1553 C1562 0.929 . S
C1554 H1548 0.930 . S
C1554 C1555 1.367 . S
C1554 C1562 1.378 . S
C1555 C1554 1.367 . S
C1555 C1563 1.433 . S
C1556 H1552 0.929 . S
C1556 C1558 1.378 . S
C1556 C1560 1.350 . S
C1557 C1560 1.463 . S
C1557 C1562 1.350 . S
C1557 N1565 1.427 . S
C1558 H1549 0.930 . S
C1558 C1556 1.378 . S
C1558 C1559 1.367 . S
C1559 C1558 1.367 . S
C1559 C1561 1.433 . S
C1560 C1556 1.350 . S
C1560 C1557 1.463 . S
C1560 N1564 1.427 . S
C1561 H1551 0.929 . S
C1561 C1559 1.433 . S
C1561 N1564 1.384 . S
C1562 H1553 0.929 . S
C1562 C1554 1.378 . S
C1562 C1557 1.350 . S
C1563 H1550 0.929 . S
C1563 C1555 1.433 . S
C1563 N1565 1.384 . S
N1564 C1560 1.427 . S
N1564 C1561 1.384 . S
N1565 C1557 1.427 . S
N1565 C1563 1.384 . S
H1566 C1572 0.930 . S
H1567 C1576 0.930 . S
H1568 C1581 0.929 . S
H1569 C1579 0.929 . S
H1570 C1574 0.929 . S
H1571 C1580 0.929 . S
C1572 H1566 0.930 . S
C1572 C1573 1.367 . S
C1572 C1580 1.378 . S
C1573 C1572 1.367 . S
C1573 C1581 1.433 . S
C1574 H1570 0.929 . S
C1574 C1576 1.378 . S
C1574 C1578 1.350 . S
C1575 C1578 1.463 . S
C1575 C1580 1.350 . S
C1575 N1583 1.427 . S
C1576 H1567 0.930 . S
C1576 C1574 1.378 . S
C1576 C1577 1.367 . S
C1577 C1576 1.367 . S
C1577 C1579 1.433 . S
C1578 C1574 1.350 . S
C1578 C1575 1.463 . S
C1578 N1582 1.427 . S
C1579 H1569 0.929 . S
C1579 C1577 1.433 . S
C1579 N1582 1.384 . S
C1580 H1571 0.929 . S
C1580 C1572 1.378 . S
C1580 C1575 1.350 . S
C1581 H1568 0.929 . S
C1581 C1573 1.433 . S
C1581 N1583 1.384 . S
N1582 C1578 1.427 . S
N1582 C1579 1.384 . S
N1583 C1575 1.427 . S
N1583 C1581 1.384 . S
H1584 C1590 0.930 . S
H1585 C1594 0.930 1_554 S
H1586 C1599 0.929 . S
H1587 C1597 0.929 . S
H1588 C1592 0.929 1_554 S
H1589 C1598 0.929 . S
C1590 H1584 0.930 . S
C1590 C1591 1.367 . S
C1590 C1598 1.378 . S
C1591 C1590 1.367 . S
C1591 C1599 1.433 . S
C1592 H1588 0.929 1_556 S
C1592 C1594 1.378 . S
C1592 C1596 1.350 . S
C1593 C1596 1.463 . S
C1593 C1598 1.350 . S
C1593 N1601 1.427 . S
C1594 H1585 0.930 1_556 S
C1594 C1592 1.378 . S
C1594 C1595 1.367 . S
C1595 C1594 1.367 . S
C1595 C1597 1.433 . S
C1596 C1592 1.350 . S
C1596 C1593 1.463 . S
C1596 N1600 1.427 . S
C1597 H1587 0.929 . S
C1597 C1595 1.433 . S
C1597 N1600 1.384 . S
C1598 H1589 0.929 . S
C1598 C1590 1.378 . S
C1598 C1593 1.350 . S
C1599 H1586 0.929 . S
C1599 C1591 1.433 . S
C1599 N1601 1.384 . S
N1600 C1596 1.427 . S
N1600 C1597 1.384 . S
N1601 C1593 1.427 . S
N1601 C1599 1.384 . S
H1602 C1608 0.930 . S
H1603 C1612 0.930 . S
H1604 C1617 0.912 1_554 S
H1605 C1615 0.929 . S
H1606 C1610 0.929 . S
H1607 C1616 0.929 . S
C1608 H1602 0.930 . S
C1608 C1609 1.367 . S
C1608 C1616 1.378 . S
C1609 C1608 1.367 . S
C1609 C1617 1.448 . S
C1610 H1606 0.929 . S
C1610 C1612 1.378 . S
C1610 C1614 1.350 . S
C1611 C1614 1.463 . S
C1611 C1616 1.350 . S
C1611 N1619 1.427 . S
C1612 H1603 0.930 . S
C1612 C1610 1.378 . S
C1612 C1613 1.367 . S
C1613 C1612 1.367 . S
C1613 C1615 1.433 . S
C1614 C1610 1.350 . S
C1614 C1611 1.463 . S
C1614 N1618 1.427 . S
C1615 H1605 0.929 . S
C1615 C1613 1.433 . S
C1615 N1618 1.384 . S
C1616 H1607 0.929 . S
C1616 C1608 1.378 . S
C1616 C1611 1.350 . S
C1617 H1604 0.912 1_556 S
C1617 C1609 1.448 . S
C1617 N1619 1.388 . S
N1618 C1614 1.427 . S
N1618 C1615 1.384 . S
N1619 C1611 1.427 . S
N1619 C1617 1.388 . S
H1620 C1626 0.930 . S
H1621 C1630 0.930 . S
H1622 C1635 0.929 . S
H1623 C1633 0.929 1_554 S
H1624 C1628 0.929 . S
H1625 C1634 0.929 . S
C1626 H1620 0.930 . S
C1626 C1627 1.367 . S
C1626 C1634 1.378 . S
C1627 C1626 1.367 . S
C1627 C1635 1.433 . S
C1628 H1624 0.929 . S
C1628 C1630 1.378 . S
C1628 C1632 1.350 . S
C1629 C1632 1.463 . S
C1629 C1634 1.350 . S
C1629 N1637 1.427 . S
C1630 H1621 0.930 . S
C1630 C1628 1.378 . S
C1630 C1631 1.367 . S
C1631 C1630 1.367 . S
C1631 C1633 1.433 . S
C1632 C1628 1.350 . S
C1632 C1629 1.463 . S
C1632 N1636 1.427 . S
C1633 H1623 0.929 1_556 S
C1633 C1631 1.433 . S
C1633 N1636 1.384 . S
C1634 H1625 0.929 . S
C1634 C1626 1.378 . S
C1634 C1629 1.350 . S
C1635 H1622 0.929 . S
C1635 C1627 1.433 . S
C1635 N1637 1.384 . S
N1636 C1632 1.427 . S
N1636 C1633 1.384 . S
N1637 C1629 1.427 . S
N1637 C1635 1.384 . S
H1638 C1644 0.930 . S
H1639 C1648 0.930 . S
H1640 C1653 0.929 . S
H1641 C1651 0.929 . S
H1642 C1646 0.929 . S
H1643 C1652 0.929 . S
C1644 H1638 0.930 . S
C1644 C1645 1.367 . S
C1644 C1652 1.378 . S
C1645 C1644 1.367 . S
C1645 C1653 1.433 . S
C1646 H1642 0.929 . S
C1646 C1648 1.378 . S
C1646 C1650 1.350 . S
C1647 C1650 1.463 . S
C1647 C1652 1.350 . S
C1647 N1655 1.427 . S
C1648 H1639 0.930 . S
C1648 C1646 1.378 . S
C1648 C1649 1.367 . S
C1649 C1648 1.367 . S
C1649 C1651 1.433 . S
C1650 C1646 1.350 . S
C1650 C1647 1.463 . S
C1650 N1654 1.427 . S
C1651 H1641 0.929 . S
C1651 C1649 1.433 . S
C1651 N1654 1.384 . S
C1652 H1643 0.929 . S
C1652 C1644 1.378 . S
C1652 C1647 1.350 . S
C1653 H1640 0.929 . S
C1653 C1645 1.433 . S
C1653 N1655 1.384 . S
N1654 C1650 1.427 . S
N1654 C1651 1.384 . S
N1655 C1647 1.427 . S
N1655 C1653 1.384 . S
H1656 C1662 0.930 . S
H1657 C1666 0.930 . S
H1658 C1671 0.929 . S
H1659 C1669 0.929 . S
H1660 C1664 0.929 . S
H1661 C1670 0.929 . S
C1662 H1656 0.930 . S
C1662 C1663 1.367 . S
C1662 C1670 1.378 . S
C1663 C1662 1.367 . S
C1663 C1671 1.433 . S
C1664 H1660 0.929 . S
C1664 C1666 1.378 . S
C1664 C1668 1.350 . S
C1665 C1668 1.463 . S
C1665 C1670 1.350 . S
C1665 N1673 1.427 . S
C1666 H1657 0.930 . S
C1666 C1664 1.378 . S
C1666 C1667 1.367 . S
C1667 C1666 1.367 . S
C1667 C1669 1.433 . S
C1668 C1664 1.350 . S
C1668 C1665 1.463 . S
C1668 N1672 1.427 . S
C1669 H1659 0.929 . S
C1669 C1667 1.433 . S
C1669 N1672 1.384 . S
C1670 H1661 0.929 . S
C1670 C1662 1.378 . S
C1670 C1665 1.350 . S
C1671 H1658 0.929 . S
C1671 C1663 1.433 . S
C1671 N1673 1.384 . S
N1672 C1668 1.427 . S
N1672 C1669 1.384 . S
N1673 C1665 1.427 . S
N1673 C1671 1.384 . S
H1674 C1680 0.930 . S
H1675 C1684 0.930 . S
H1676 C1689 0.929 . S
H1677 C1687 0.929 . S
H1678 C1682 0.929 . S
H1679 C1688 0.929 . S
C1680 H1674 0.930 . S
C1680 C1681 1.367 . S
C1680 C1688 1.378 . S
C1681 C1680 1.367 . S
C1681 C1689 1.433 . S
C1682 H1678 0.929 . S
C1682 C1684 1.378 . S
C1682 C1686 1.350 . S
C1683 C1686 1.463 . S
C1683 C1688 1.350 . S
C1683 N1691 1.427 . S
C1684 H1675 0.930 . S
C1684 C1682 1.378 . S
C1684 C1685 1.367 . S
C1685 C1684 1.367 . S
C1685 C1687 1.433 . S
C1686 C1682 1.350 . S
C1686 C1683 1.463 . S
C1686 N1690 1.427 . S
C1687 H1677 0.929 . S
C1687 C1685 1.433 . S
C1687 N1690 1.384 . S
C1688 H1679 0.929 . S
C1688 C1680 1.378 . S
C1688 C1683 1.350 . S
C1689 H1676 0.929 . S
C1689 C1681 1.433 . S
C1689 N1691 1.384 . S
N1690 C1686 1.427 . S
N1690 C1687 1.384 . S
N1691 C1683 1.427 . S
N1691 C1689 1.384 . S
H1692 C1698 0.930 . S
H1693 C1702 0.930 . S
H1694 C1707 0.929 . S
H1695 C1705 0.929 . S
H1696 C1700 0.929 . S
H1697 C1706 0.929 . S
C1698 H1692 0.930 . S
C1698 C1699 1.367 . S
C1698 C1706 1.378 . S
C1699 C1698 1.367 . S
C1699 C1707 1.433 . S
C1700 H1696 0.929 . S
C1700 C1702 1.378 . S
C1700 C1704 1.350 . S
C1701 C1704 1.463 1_455 S
C1701 C1706 1.350 . S
C1701 N1709 1.427 . S
C1702 H1693 0.930 . S
C1702 C1700 1.378 . S
C1702 C1703 1.367 . S
C1703 C1702 1.367 . S
C1703 C1705 1.433 . S
C1704 C1700 1.350 . S
C1704 C1701 1.463 1_655 S
C1704 N1708 1.427 . S
C1705 H1695 0.929 . S
C1705 C1703 1.433 . S
C1705 N1708 1.384 . S
C1706 H1697 0.929 . S
C1706 C1698 1.378 . S
C1706 C1701 1.350 . S
C1707 H1694 0.929 . S
C1707 C1699 1.433 . S
C1707 N1709 1.384 . S
N1708 C1704 1.427 . S
N1708 C1705 1.384 . S
N1709 C1701 1.427 . S
N1709 C1707 1.384 . S
H1710 C1716 0.930 . S
H1711 C1720 0.930 . S
H1712 C1725 0.929 . S
H1713 C1723 0.929 . S
H1714 C1718 0.929 . S
H1715 C1724 0.929 . S
C1716 H1710 0.930 . S
C1716 C1717 1.367 . S
C1716 C1724 1.378 . S
C1717 C1716 1.367 . S
C1717 C1725 1.433 . S
C1718 H1714 0.929 . S
C1718 C1720 1.378 . S
C1718 C1722 1.350 . S
C1719 C1722 1.463 . S
C1719 C1724 1.350 . S
C1719 N1727 1.427 . S
C1720 H1711 0.930 . S
C1720 C1718 1.378 . S
C1720 C1721 1.367 . S
C1721 C1720 1.367 . S
C1721 C1723 1.433 . S
C1722 C1718 1.350 . S
C1722 C1719 1.463 . S
C1722 N1726 1.427 . S
C1723 H1713 0.929 . S
C1723 C1721 1.433 . S
C1723 N1726 1.384 . S
C1724 H1715 0.929 . S
C1724 C1716 1.378 . S
C1724 C1719 1.350 . S
C1725 H1712 0.929 . S
C1725 C1717 1.433 . S
C1725 N1727 1.384 . S
N1726 C1722 1.427 . S
N1726 C1723 1.384 . S
N1727 C1719 1.427 . S
N1727 C1725 1.384 . S
H1728 C1734 0.930 . S
H1729 C1738 0.930 . S
H1730 C1743 0.929 . S
H1731 C1741 0.929 . S
H1732 C1736 0.929 . S
H1733 C1742 0.929 . S
C1734 H1728 0.930 . S
C1734 C1735 1.367 . S
C1734 C1742 1.378 . S
C1735 C1734 1.367 . S
C1735 C1743 1.433 . S
C1736 H1732 0.929 . S
C1736 C1738 1.378 . S
C1736 C1740 1.350 . S
C1737 C1740 1.463 1_565 S
C1737 C1742 1.350 . S
C1737 N1745 1.427 . S
C1738 H1729 0.930 . S
C1738 C1736 1.378 . S
C1738 C1739 1.367 . S
C1739 C1738 1.367 . S
C1739 C1741 1.433 . S
C1740 C1736 1.350 . S
C1740 C1737 1.463 1_545 S
C1740 N1744 1.427 . S
C1741 H1731 0.929 . S
C1741 C1739 1.433 . S
C1741 N1744 1.384 . S
C1742 H1733 0.929 . S
C1742 C1734 1.378 . S
C1742 C1737 1.350 . S
C1743 H1730 0.929 . S
C1743 C1735 1.433 . S
C1743 N1745 1.384 . S
N1744 C1740 1.427 . S
N1744 C1741 1.384 . S
N1745 C1737 1.427 . S
N1745 C1743 1.384 . S
H1746 C1752 0.930 . S
H1747 C1756 0.930 . S
H1748 C1761 0.929 . S
H1749 C1759 0.929 . S
H1750 C1754 0.929 . S
H1751 C1760 0.929 . S
C1752 H1746 0.930 . S
C1752 C1753 1.367 . S
C1752 C1760 1.378 . S
C1753 C1752 1.367 . S
C1753 C1761 1.433 . S
C1754 H1750 0.929 . S
C1754 C1756 1.378 . S
C1754 C1758 1.350 . S
C1755 C1758 1.463 1_545 S
C1755 C1760 1.350 . S
C1755 N1763 1.427 . S
C1756 H1747 0.930 . S
C1756 C1754 1.378 . S
C1756 C1757 1.367 . S
C1757 C1756 1.367 . S
C1757 C1759 1.433 . S
C1758 C1754 1.350 . S
C1758 C1755 1.463 1_565 S
C1758 N1762 1.427 . S
C1759 H1749 0.929 . S
C1759 C1757 1.433 . S
C1759 N1762 1.384 . S
C1760 H1751 0.929 . S
C1760 C1752 1.378 . S
C1760 C1755 1.350 . S
C1761 H1748 0.929 . S
C1761 C1753 1.433 . S
C1761 N1763 1.384 . S
N1762 C1758 1.427 . S
N1762 C1759 1.384 . S
N1763 C1755 1.427 . S
N1763 C1761 1.384 . S
H1764 C1770 0.930 . S
H1765 C1774 0.930 . S
H1766 C1779 0.929 . S
H1767 C1777 0.929 . S
H1768 C1772 0.929 . S
H1769 C1778 0.929 . S
C1770 H1764 0.930 . S
C1770 C1771 1.367 . S
C1770 C1778 1.378 . S
C1771 C1770 1.367 . S
C1771 C1779 1.433 . S
C1772 H1768 0.929 . S
C1772 C1774 1.378 . S
C1772 C1776 1.350 . S
C1773 C1776 1.463 1_455 S
C1773 C1778 1.350 . S
C1773 N1781 1.427 . S
C1774 H1765 0.930 . S
C1774 C1772 1.378 . S
C1774 C1775 1.367 . S
C1775 C1774 1.367 . S
C1775 C1777 1.433 . S
C1776 C1772 1.350 . S
C1776 C1773 1.463 1_655 S
C1776 N1780 1.427 . S
C1777 H1767 0.929 . S
C1777 C1775 1.433 . S
C1777 N1780 1.384 . S
C1778 H1769 0.929 . S
C1778 C1770 1.378 . S
C1778 C1773 1.350 . S
C1779 H1766 0.929 . S
C1779 C1771 1.433 . S
C1779 N1781 1.384 . S
N1780 C1776 1.427 . S
N1780 C1777 1.384 . S
N1781 C1773 1.427 . S
N1781 C1779 1.384 . S
H1782 C1788 0.930 . S
H1783 C1792 0.930 . S
H1784 C1797 0.929 . S
H1785 C1795 0.929 . S
H1786 C1790 0.929 . S
H1787 C1796 0.929 . S
C1788 H1782 0.930 . S
C1788 C1789 1.367 . S
C1788 C1796 1.378 . S
C1789 C1788 1.367 . S
C1789 C1797 1.433 . S
C1790 H1786 0.929 . S
C1790 C1792 1.378 . S
C1790 C1794 1.350 . S
C1791 C1794 1.463 . S
C1791 C1796 1.350 . S
C1791 N1799 1.427 . S
C1792 H1783 0.930 . S
C1792 C1790 1.378 . S
C1792 C1793 1.367 . S
C1793 C1792 1.367 . S
C1793 C1795 1.433 . S
C1794 C1790 1.350 . S
C1794 C1791 1.463 . S
C1794 N1798 1.427 . S
C1795 H1785 0.929 . S
C1795 C1793 1.433 . S
C1795 N1798 1.384 . S
C1796 H1787 0.929 . S
C1796 C1788 1.378 . S
C1796 C1791 1.350 . S
C1797 H1784 0.929 . S
C1797 C1789 1.433 . S
C1797 N1799 1.384 . S
N1798 C1794 1.427 . S
N1798 C1795 1.384 . S
N1799 C1791 1.427 . S
N1799 C1797 1.384 . S
C511 C50 1.125 . S
C515 C8 1.126 . S
C529 C64 1.124 . S
C533 C22 1.123 . S
C547 C78 1.125 . S
C551 C36 1.125 . S
C565 C92 1.124 . S
C569 C134 1.126 . S
C583 C106 1.123 . S
C587 C148 1.124 . S
C601 C162 1.123 . S
C605 C120 1.124 . S
C619 C176 1.114 . S
C623 C218 1.116 . S
C637 C190 1.115 . S
C641 C232 1.115 . S
C655 C204 1.115 . S
C659 C246 1.114 . S
C673 C260 1.113 . S
C677 C302 1.111 . S
C691 C316 1.113 . S
C695 C274 1.112 . S
C709 C288 1.110 . S
C713 C330 1.109 . S
C727 C344 1.112 . S
C731 C386 1.112 . S
C745 C358 1.111 . S
C749 C400 1.109 . S
C763 C414 1.113 . S
C767 C372 1.111 . S
C781 C470 1.116 . S
C785 C428 1.115 . S
C799 C484 1.115 . S
C803 C442 1.115 . S
C817 C498 1.116 . S
C821 C456 1.115 . S
C835 C161 1.489 . S
C839 C9 1.517 . S
C853 C23 1.517 . S
C857 C133 1.492 . S
C871 C37 1.521 . S
C875 C147 1.493 . S
C889 C105 1.504 . S
C893 C51 1.530 . S
C907 C65 1.539 . S
C911 C119 1.489 . S
C925 C91 1.497 . S
C929 C79 1.529 . S
C943 C93 1.527 . S
C947 C77 1.484 . S
C961 C107 1.522 . S
C965 C49 1.481 . S
C979 C63 1.486 . S
C983 C121 1.519 . S
C997 C21 1.490 . S
C1001 C135 1.534 . S
C1015 C35 1.503 . S
C1019 C149 1.528 . S
C1033 C163 1.529 . S
C1037 C7 1.499 . S
C1051 C177 1.497 . S
C1055 C329 1.460 . S
C1069 C301 1.459 . S
C1073 C191 1.489 . S
C1087 C315 1.465 . S
C1091 C205 1.489 . S
C1105 C219 1.524 . S
C1109 C273 1.491 . S
C1123 C287 1.480 . S
C1127 C233 1.525 . S
C1141 C247 1.533 . S
C1145 C259 1.477 . S
C1159 C261 1.518 . S
C1163 C245 1.486 . S
C1177 C275 1.524 . S
C1181 C217 1.484 . S
C1195 C231 1.477 . S
C1199 C289 1.528 . S
C1213 C189 1.510 . S
C1217 C303 1.549 . S
C1231 C203 1.516 . S
C1235 C317 1.547 . S
C1249 C331 1.551 . S
C1253 C175 1.505 . S
C1267 C497 1.474 . S
C1271 C345 1.528 . S
C1285 C359 1.520 . S
C1289 C469 1.477 . S
C1303 C373 1.526 . S
C1307 C483 1.480 . S
C1321 C387 1.556 . S
C1325 C441 1.507 . S
C1339 C455 1.506 . S
C1343 C401 1.551 . S
C1357 C415 1.552 . S
C1361 C427 1.504 . S
C1375 C413 1.457 . S
C1379 C429 1.490 . S
C1393 C385 1.455 . S
C1397 C443 1.491 . S
C1411 C399 1.452 . S
C1415 C457 1.500 . S
C1429 C357 1.484 . S
C1433 C471 1.530 . S
C1447 C371 1.478 . S
C1451 C485 1.533 . S
C1465 C343 1.491 . S
C1469 C499 1.523 . S
C1483 C409 1.380 . S
C1487 C3 1.373 . S
C1501 C17 1.375 . S
C1505 C381 1.377 . S
C1519 C395 1.377 . S
C1523 C31 1.377 . S
C1537 C45 1.375 . S
C1541 C185 1.381 . S
C1555 C199 1.380 . S
C1559 C59 1.376 . S
C1573 C73 1.378 . S
C1577 C171 1.377 . S
C1591 C87 1.375 . S
C1595 C325 1.378 . S
C1609 C297 1.378 . S
C1613 C101 1.377 . S
C1627 C115 1.379 . S
C1631 C311 1.374 . S
C1645 C129 1.378 . S
C1649 C437 1.379 . S
C1663 C143 1.379 . S
C1667 C451 1.377 . S
C1681 C423 1.376 . S
C1685 C157 1.380 . S
C1699 C353 1.379 . S
C1703 C213 1.380 . S
C1717 C367 1.377 . S
C1721 C227 1.380 . S
C1735 C339 1.381 . S
C1739 C241 1.375 . S
C1753 C255 1.377 . S
C1757 C493 1.380 . S
C1771 C465 1.380 . S
C1775 C269 1.379 . S
C1789 C283 1.377 . S
C1793 C479 1.382 . S
