# Generated by pormake.
# Topology umk, (4)-cn, num edge types: 1
# Building blocks:
#     Node 0, Type 0, BuildingBlock: AZAVOO_clean_sbu_0, # of connection points: 4
#     Node 1, Type 0, BuildingBlock: AZAVOO_clean_sbu_0, # of connection points: 4
#     Node 2, Type 0, BuildingBlock: AZAVOO_clean_sbu_0, # of connection points: 4
#     Node 3, Type 0, BuildingBlock: AZAVOO_clean_sbu_0, # of connection points: 4
#     Node 4, Type 0, BuildingBlock: AZAVOO_clean_sbu_0, # of connection points: 4
#     Node 5, Type 0, BuildingBlock: AZAVOO_clean_sbu_0, # of connection points: 4
#     Node 6, Type 0, BuildingBlock: AZAVOO_clean_sbu_0, # of connection points: 4
#     Node 7, Type 0, BuildingBlock: AZAVOO_clean_sbu_0, # of connection points: 4
#     Node 8, Type 0, BuildingBlock: AZAVOO_clean_sbu_0, # of connection points: 4
#     Node 9, Type 0, BuildingBlock: AZAVOO_clean_sbu_0, # of connection points: 4
#     Node 10, Type 0, BuildingBlock: AZAVOO_clean_sbu_0, # of connection points: 4
#     Node 11, Type 0, BuildingBlock: AZAVOO_clean_sbu_0, # of connection points: 4
#     Node 12, Type 0, BuildingBlock: AZAVOO_clean_sbu_0, # of connection points: 4
#     Node 13, Type 0, BuildingBlock: AZAVOO_clean_sbu_0, # of connection points: 4
#     Node 14, Type 0, BuildingBlock: AZAVOO_clean_sbu_0, # of connection points: 4
#     Node 15, Type 0, BuildingBlock: AZAVOO_clean_sbu_0, # of connection points: 4
#     Node 16, Type 0, BuildingBlock: AZAVOO_clean_sbu_0, # of connection points: 4
#     Node 17, Type 0, BuildingBlock: AZAVOO_clean_sbu_0, # of connection points: 4
#     Node 18, Type 0, BuildingBlock: AZAVOO_clean_sbu_0, # of connection points: 4
#     Node 19, Type 0, BuildingBlock: AZAVOO_clean_sbu_0, # of connection points: 4
#     Node 20, Type 0, BuildingBlock: AZAVOO_clean_sbu_0, # of connection points: 4
#     Node 21, Type 0, BuildingBlock: AZAVOO_clean_sbu_0, # of connection points: 4
#     Node 22, Type 0, BuildingBlock: AZAVOO_clean_sbu_0, # of connection points: 4
#     Node 23, Type 0, BuildingBlock: AZAVOO_clean_sbu_0, # of connection points: 4
#     Edge 24, Type (0, 0), BuildingBlock: TEMPAE_clean_linker_10, # of connection points: 2
#     Edge 25, Type (0, 0), BuildingBlock: TEMPAE_clean_linker_10, # of connection points: 2
#     Edge 26, Type (0, 0), BuildingBlock: TEMPAE_clean_linker_10, # of connection points: 2
#     Edge 27, Type (0, 0), BuildingBlock: TEMPAE_clean_linker_10, # of connection points: 2
#     Edge 28, Type (0, 0), BuildingBlock: TEMPAE_clean_linker_10, # of connection points: 2
#     Edge 29, Type (0, 0), BuildingBlock: TEMPAE_clean_linker_10, # of connection points: 2
#     Edge 30, Type (0, 0), BuildingBlock: TEMPAE_clean_linker_10, # of connection points: 2
#     Edge 31, Type (0, 0), BuildingBlock: TEMPAE_clean_linker_10, # of connection points: 2
#     Edge 32, Type (0, 0), BuildingBlock: TEMPAE_clean_linker_10, # of connection points: 2
#     Edge 33, Type (0, 0), BuildingBlock: TEMPAE_clean_linker_10, # of connection points: 2
#     Edge 34, Type (0, 0), BuildingBlock: TEMPAE_clean_linker_10, # of connection points: 2
#     Edge 35, Type (0, 0), BuildingBlock: TEMPAE_clean_linker_10, # of connection points: 2
#     Edge 36, Type (0, 0), BuildingBlock: TEMPAE_clean_linker_10, # of connection points: 2
#     Edge 37, Type (0, 0), BuildingBlock: TEMPAE_clean_linker_10, # of connection points: 2
#     Edge 38, Type (0, 0), BuildingBlock: TEMPAE_clean_linker_10, # of connection points: 2
#     Edge 39, Type (0, 0), BuildingBlock: TEMPAE_clean_linker_10, # of connection points: 2
#     Edge 40, Type (0, 0), BuildingBlock: TEMPAE_clean_linker_10, # of connection points: 2
#     Edge 41, Type (0, 0), BuildingBlock: TEMPAE_clean_linker_10, # of connection points: 2
#     Edge 42, Type (0, 0), BuildingBlock: TEMPAE_clean_linker_10, # of connection points: 2
#     Edge 43, Type (0, 0), BuildingBlock: TEMPAE_clean_linker_10, # of connection points: 2
#     Edge 44, Type (0, 0), BuildingBlock: TEMPAE_clean_linker_10, # of connection points: 2
#     Edge 45, Type (0, 0), BuildingBlock: TEMPAE_clean_linker_10, # of connection points: 2
#     Edge 46, Type (0, 0), BuildingBlock: TEMPAE_clean_linker_10, # of connection points: 2
#     Edge 47, Type (0, 0), BuildingBlock: TEMPAE_clean_linker_10, # of connection points: 2
#     Edge 48, Type (0, 0), BuildingBlock: TEMPAE_clean_linker_10, # of connection points: 2
#     Edge 49, Type (0, 0), BuildingBlock: TEMPAE_clean_linker_10, # of connection points: 2
#     Edge 50, Type (0, 0), BuildingBlock: TEMPAE_clean_linker_10, # of connection points: 2
#     Edge 51, Type (0, 0), BuildingBlock: TEMPAE_clean_linker_10, # of connection points: 2
#     Edge 52, Type (0, 0), BuildingBlock: TEMPAE_clean_linker_10, # of connection points: 2
#     Edge 53, Type (0, 0), BuildingBlock: TEMPAE_clean_linker_10, # of connection points: 2
#     Edge 54, Type (0, 0), BuildingBlock: TEMPAE_clean_linker_10, # of connection points: 2
#     Edge 55, Type (0, 0), BuildingBlock: TEMPAE_clean_linker_10, # of connection points: 2
#     Edge 56, Type (0, 0), BuildingBlock: TEMPAE_clean_linker_10, # of connection points: 2
#     Edge 57, Type (0, 0), BuildingBlock: TEMPAE_clean_linker_10, # of connection points: 2
#     Edge 58, Type (0, 0), BuildingBlock: TEMPAE_clean_linker_10, # of connection points: 2
#     Edge 59, Type (0, 0), BuildingBlock: TEMPAE_clean_linker_10, # of connection points: 2
#     Edge 60, Type (0, 0), BuildingBlock: TEMPAE_clean_linker_10, # of connection points: 2
#     Edge 61, Type (0, 0), BuildingBlock: TEMPAE_clean_linker_10, # of connection points: 2
#     Edge 62, Type (0, 0), BuildingBlock: TEMPAE_clean_linker_10, # of connection points: 2
#     Edge 63, Type (0, 0), BuildingBlock: TEMPAE_clean_linker_10, # of connection points: 2
#     Edge 64, Type (0, 0), BuildingBlock: TEMPAE_clean_linker_10, # of connection points: 2
#     Edge 65, Type (0, 0), BuildingBlock: TEMPAE_clean_linker_10, # of connection points: 2
#     Edge 66, Type (0, 0), BuildingBlock: TEMPAE_clean_linker_10, # of connection points: 2
#     Edge 67, Type (0, 0), BuildingBlock: TEMPAE_clean_linker_10, # of connection points: 2
#     Edge 68, Type (0, 0), BuildingBlock: TEMPAE_clean_linker_10, # of connection points: 2
#     Edge 69, Type (0, 0), BuildingBlock: TEMPAE_clean_linker_10, # of connection points: 2
#     Edge 70, Type (0, 0), BuildingBlock: TEMPAE_clean_linker_10, # of connection points: 2
#     Edge 71, Type (0, 0), BuildingBlock: TEMPAE_clean_linker_10, # of connection points: 2
# Relax obj value: 0.146
# Max RMSD: 0.163
# Mean RMSD: 0.163
data_MOF--net-umk--node1-AZAVOO_clean_sbu_0--edge1-TEMPAE_clean_linker_10
_symmetry_space_group_name_H-M    P1
_symmetry_Int_Tables_number       1
_symmetry_cell_setting            triclinic
loop_
_symmetry_equiv_pos_as_xyz
'x, y, z'
_cell_length_a     65.950174
_cell_length_b     65.964673
_cell_length_c     43.546783
_cell_angle_alpha  90.007881
_cell_angle_beta   89.998772
_cell_angle_gamma 119.94351
loop_
_atom_site_label
_atom_site_type_symbol
_atom_site_fract_x
_atom_site_fract_y
_atom_site_fract_z
_atom_type_partial_charge
Mg0 Mg 0.36813 0.48031 0.07698 0.0
O1 O 0.39905 0.51288 0.05565 0.0
O2 O 0.43198 0.51538 0.07333 0.0
Mg3 Mg 0.42236 0.48445 0.10514 0.0
C4 C 0.42134 0.52318 0.05691 0.0
C5 C 0.3216 0.47802 0.06251 0.0
O6 O 0.315 0.45881 0.07846 0.0
O7 O 0.37361 0.49833 0.1237 0.0
O8 O 0.40607 0.49862 0.1395 0.0
O9 O 0.36845 0.45809 0.03859 0.0
O10 O 0.38844 0.46429 0.08159 0.0
C11 C 0.38944 0.50296 0.14385 0.0
C12 C 0.38297 0.45475 0.0548 0.0
O13 O 0.34335 0.4923 0.05947 0.0
Mg14 Mg 0.89135 0.35103 0.57968 0.0
O15 O 0.8906 0.3826 0.55903 0.0
O16 O 0.92386 0.41439 0.57321 0.0
Mg17 Mg 0.94652 0.40325 0.60007 0.0
C18 C 0.90412 0.40477 0.55945 0.0
C19 C 0.84284 0.30769 0.58358 0.0
O20 O 0.85452 0.30424 0.60547 0.0
O21 O 0.88416 0.36031 0.62777 0.0
O22 O 0.91989 0.38972 0.63946 0.0
O23 O 0.90902 0.34768 0.53757 0.0
O24 O 0.92777 0.36891 0.57795 0.0
C25 C 0.8987 0.37527 0.64678 0.0
C26 C 0.92869 0.36196 0.55064 0.0
O27 O 0.85274 0.3271 0.5694 0.0
Mg28 Mg 0.53736 0.91145 0.06673 0.0
O29 O 0.50607 0.9119 0.04443 0.0
O30 O 0.50529 0.94283 0.06401 0.0
Mg31 Mg 0.53716 0.96362 0.09498 0.0
C32 C 0.49669 0.92473 0.04681 0.0
C33 C 0.52176 0.8692 0.02277 0.0
O34 O 0.52396 0.88543 0.00336 0.0
O35 O 0.51779 0.8996 0.11269 0.0
O36 O 0.52289 0.93379 0.13007 0.0
O37 O 0.56155 0.93343 0.02886 0.0
O38 O 0.55487 0.94771 0.0709 0.0
C39 C 0.51613 0.91212 0.13385 0.0
C40 C 0.5653 0.95153 0.04482 0.0
O41 O 0.52449 0.87399 0.05127 0.0
Mg42 Mg 0.61806 0.52112 0.56202 0.0
O43 O 0.58614 0.48891 0.54174 0.0
O44 O 0.55432 0.48896 0.55925 0.0
Mg45 Mg 0.56582 0.52149 0.58883 0.0
C46 C 0.56394 0.47976 0.54341 0.0
C47 C 0.66095 0.51488 0.5627 0.0
O48 O 0.66481 0.52891 0.58614 0.0
O49 O 0.61151 0.50438 0.60944 0.0
O50 O 0.58069 0.50705 0.62533 0.0
O51 O 0.61943 0.54261 0.52187 0.0
O52 O 0.59958 0.53907 0.56429 0.0
C53 C 0.59648 0.50153 0.62995 0.0
C54 C 0.60562 0.54764 0.53703 0.0
O55 O 0.64174 0.5069 0.54824 0.0
Mg56 Mg 0.0983 0.63464 0.06326 0.0
O57 O 0.10096 0.60561 0.03789 0.0
O58 O 0.07148 0.57139 0.05392 0.0
Mg59 Mg 0.04963 0.57846 0.08831 0.0
C60 C 0.08965 0.58328 0.03742 0.0
C61 C 0.1461 0.68018 0.06272 0.0
O62 O 0.13673 0.68268 0.08806 0.0
O63 O 0.11163 0.62716 0.1078 0.0
O64 O 0.08035 0.59365 0.12257 0.0
O65 O 0.07511 0.6356 0.02666 0.0
O66 O 0.06217 0.6133 0.06793 0.0
C67 C 0.10118 0.61048 0.12704 0.0
C68 C 0.05758 0.61997 0.04235 0.0
O69 O 0.13495 0.6613 0.04757 0.0
Mg70 Mg 0.46055 0.09233 0.57813 0.0
O71 O 0.49075 0.08921 0.55684 0.0
O72 O 0.48809 0.05648 0.57595 0.0
Mg73 Mg 0.45537 0.03754 0.60595 0.0
C74 C 0.4983 0.0748 0.55922 0.0
C75 C 0.48125 0.13574 0.53517 0.0
O76 O 0.48019 0.11978 0.51613 0.0
O77 O 0.47927 0.10237 0.62488 0.0
O78 O 0.47117 0.06701 0.64152 0.0
O79 O 0.43657 0.07227 0.53911 0.0
O80 O 0.44065 0.05605 0.58114 0.0
C81 C 0.47941 0.08889 0.64587 0.0
C82 C 0.43121 0.05349 0.55452 0.0
O83 O 0.47623 0.13035 0.56327 0.0
Mg84 Mg 0.56998 0.71384 0.91717 0.0
O85 O 0.53836 0.67782 0.9288 0.0
O86 O 0.54438 0.65061 0.90691 0.0
Mg87 Mg 0.57786 0.66884 0.87881 0.0
C88 C 0.53222 0.65643 0.92366 0.0
C89 C 0.56436 0.75294 0.94486 0.0
O90 O 0.58711 0.76164 0.94297 0.0
O91 O 0.55617 0.71284 0.86852 0.0
O92 O 0.56123 0.68461 0.84793 0.0
O93 O 0.58812 0.70911 0.95783 0.0
O94 O 0.5906 0.69862 0.91037 0.0
C95 C 0.5544 0.69959 0.84607 0.0
C96 C 0.59507 0.69857 0.9391 0.0
O97 O 0.55099 0.73209 0.93581 0.0
Mg98 Mg 0.85478 0.5559 0.44143 0.0
O99 O 0.86113 0.52498 0.44893 0.0
O100 O 0.89513 0.53403 0.42653 0.0
Mg101 Mg 0.90883 0.56886 0.40189 0.0
C102 C 0.87726 0.52029 0.44252 0.0
C103 C 0.80437 0.54251 0.4523 0.0
O104 O 0.8126 0.56088 0.4342 0.0
O105 O 0.84273 0.54468 0.39186 0.0
O106 O 0.87673 0.55265 0.37039 0.0
O107 O 0.87653 0.57185 0.4833 0.0
O108 O 0.89036 0.57836 0.43575 0.0
C109 C 0.85474 0.54493 0.36871 0.0
C110 C 0.89428 0.58077 0.46482 0.0
O111 O 0.81771 0.53453 0.45951 0.0
Mg112 Mg 0.29548 0.87787 0.94318 0.0
O113 O 0.33278 0.88348 0.94394 0.0
O114 O 0.35588 0.91722 0.91971 0.0
Mg115 Mg 0.33329 0.93159 0.90071 0.0
C116 C 0.35298 0.89942 0.93496 0.0
C117 C 0.25822 0.82824 0.9562 0.0
O118 O 0.24759 0.83757 0.94122 0.0
O119 O 0.29056 0.86546 0.89317 0.0
O120 O 0.31332 0.89956 0.8697 0.0
O121 O 0.30552 0.89961 0.98571 0.0
O122 O 0.30917 0.91375 0.93869 0.0
C123 C 0.29914 0.87754 0.86882 0.0
C124 C 0.31391 0.9175 0.9675 0.0
O125 O 0.28013 0.84059 0.96061 0.0
Mg126 Mg 0.41654 0.27739 0.43065 0.0
O127 O 0.4459 0.31561 0.43521 0.0
O128 O 0.43269 0.33806 0.4151 0.0
Mg129 Mg 0.3963 0.31442 0.39507 0.0
C130 C 0.44846 0.3357 0.42896 0.0
C131 C 0.42985 0.24209 0.44991 0.0
O132 O 0.40705 0.23067 0.4459 0.0
O133 O 0.42525 0.27704 0.37967 0.0
O134 O 0.41109 0.29897 0.36071 0.0
O135 O 0.40304 0.28295 0.4751 0.0
O136 O 0.39193 0.28836 0.42937 0.0
C137 C 0.42077 0.28652 0.35707 0.0
C138 C 0.39236 0.2911 0.45866 0.0
O139 O 0.44097 0.26397 0.4448 0.0
Mg140 Mg 0.14543 0.4447 0.90282 0.0
O141 O 0.13952 0.47601 0.90949 0.0
O142 O 0.10529 0.46683 0.88766 0.0
Mg143 Mg 0.0912 0.43185 0.86354 0.0
C144 C 0.12335 0.4807 0.90325 0.0
C145 C 0.19653 0.45856 0.91703 0.0
O146 O 0.19 0.44038 0.89894 0.0
O147 O 0.15737 0.4551 0.85295 0.0
O148 O 0.12324 0.4473 0.83204 0.0
O149 O 0.1242 0.42996 0.9451 0.0
O150 O 0.10943 0.42263 0.89807 0.0
C151 C 0.14515 0.45472 0.82996 0.0
C152 C 0.10607 0.42144 0.92731 0.0
O153 O 0.18238 0.46602 0.92169 0.0
Mg154 Mg 0.69677 0.11126 0.45905 0.0
O155 O 0.65978 0.10607 0.45924 0.0
O156 O 0.6363 0.07303 0.43389 0.0
Mg157 Mg 0.65886 0.05865 0.41445 0.0
C158 C 0.63951 0.09069 0.44974 0.0
C159 C 0.73316 0.16171 0.47308 0.0
O160 O 0.74449 0.15409 0.45618 0.0
O161 O 0.70251 0.12487 0.40951 0.0
O162 O 0.67973 0.09128 0.38482 0.0
O163 O 0.68568 0.08815 0.50047 0.0
O164 O 0.68301 0.07551 0.45274 0.0
C165 C 0.69415 0.11327 0.38475 0.0
C166 C 0.67783 0.07085 0.4813 0.0
O167 O 0.71156 0.14802 0.47828 0.0
Mg168 Mg 0.63851 0.54228 0.91827 0.0
O169 O 0.60789 0.51111 0.94207 0.0
O170 O 0.57522 0.51077 0.92759 0.0
Mg171 Mg 0.58498 0.54301 0.89782 0.0
C172 C 0.58566 0.50192 0.94242 0.0
C173 C 0.68434 0.54363 0.93014 0.0
O174 O 0.69025 0.56504 0.92184 0.0
O175 O 0.62806 0.52329 0.87165 0.0
O176 O 0.59829 0.52899 0.85944 0.0
O177 O 0.64304 0.56611 0.95794 0.0
O178 O 0.61997 0.56023 0.91831 0.0
C179 C 0.61272 0.52211 0.85265 0.0
C180 C 0.62792 0.57012 0.94444 0.0
O181 O 0.66279 0.52815 0.93003 0.0
Mg182 Mg 0.09404 0.62706 0.4191 0.0
O183 O 0.09303 0.59375 0.43644 0.0
O184 O 0.06087 0.56348 0.41668 0.0
Mg185 Mg 0.04037 0.57709 0.38964 0.0
C186 C 0.07949 0.57177 0.43283 0.0
C187 C 0.1428 0.67027 0.42442 0.0
O188 O 0.13332 0.67608 0.40204 0.0
O189 O 0.10454 0.62183 0.3706 0.0
O190 O 0.06952 0.59396 0.35379 0.0
O191 O 0.07358 0.62729 0.46004 0.0
O192 O 0.05763 0.60946 0.41647 0.0
C193 C 0.0911 0.60876 0.3492 0.0
C194 C 0.05488 0.61428 0.44426 0.0
O195 O 0.13165 0.64959 0.43501 0.0
Mg196 Mg 0.48143 0.11079 0.93315 0.0
O197 O 0.51397 0.113 0.95567 0.0
O198 O 0.51587 0.08171 0.9402 0.0
Mg199 Mg 0.48453 0.05929 0.90941 0.0
C200 C 0.52401 0.1007 0.95548 0.0
C201 C 0.48217 0.15743 0.93454 0.0
O202 O 0.46669 0.14566 0.91308 0.0
O203 O 0.49927 0.12117 0.88626 0.0
O204 O 0.49872 0.0882 0.87258 0.0
O205 O 0.45927 0.09025 0.97268 0.0
O206 O 0.46496 0.07438 0.93134 0.0
C207 C 0.50337 0.10911 0.8669 0.0
C208 C 0.45545 0.0716 0.95801 0.0
O209 O 0.49332 0.14836 0.9466 0.0
Mg210 Mg 0.3672 0.45962 0.4308 0.0
O211 O 0.39886 0.49065 0.4534 0.0
O212 O 0.43055 0.49044 0.43565 0.0
Mg213 Mg 0.41919 0.45808 0.40541 0.0
C214 C 0.42104 0.49955 0.45191 0.0
C215 C 0.32522 0.46713 0.42795 0.0
O216 O 0.32279 0.45469 0.40322 0.0
O217 O 0.37608 0.47868 0.38453 0.0
O218 O 0.40514 0.473 0.36872 0.0
O219 O 0.36383 0.43594 0.46977 0.0
O220 O 0.38502 0.44103 0.42834 0.0
C221 C 0.39057 0.4801 0.364 0.0
C222 C 0.37789 0.4312 0.45471 0.0
O223 O 0.34341 0.47385 0.44434 0.0
Mg224 Mg 0.90289 0.3744 0.93424 0.0
O225 O 0.90052 0.40478 0.95641 0.0
O226 O 0.92825 0.43783 0.93501 0.0
Mg227 Mg 0.94895 0.429 0.90089 0.0
C228 C 0.91124 0.42702 0.95368 0.0
C229 C 0.8636 0.34774 0.98252 0.0
O230 O 0.87957 0.36434 -0.00015 0.0
O231 O 0.8868 0.3778 0.88944 0.0
O232 O 0.91668 0.41026 0.86956 0.0
O233 O 0.92851 0.37677 0.9696 0.0
O234 O 0.93845 0.39618 0.9258 0.0
C235 C 0.89591 0.39279 0.86782 0.0
C236 C 0.94482 0.3915 0.95155 0.0
O237 O 0.86747 0.34783 0.95391 0.0
Mg238 Mg 0.51239 0.8806 0.42084 0.0
O239 O 0.4801 0.87944 0.44267 0.0
O240 O 0.48086 0.91251 0.42927 0.0
Mg241 Mg 0.51332 0.93478 0.4003 0.0
C242 C 0.47131 0.89286 0.44317 0.0
C243 C 0.50893 0.83306 0.41745 0.0
O244 O 0.52549 0.84597 0.39771 0.0
O245 O 0.49593 0.87308 0.3731 0.0
O246 O 0.49858 0.90737 0.36159 0.0
O247 O 0.53366 0.89865 0.46228 0.0
O248 O 0.53043 0.91704 0.42188 0.0
C249 C 0.49301 0.8864 0.35457 0.0
C250 C 0.53871 0.91819 0.44902 0.0
O251 O 0.4981 0.84198 0.43079 0.0
Mg252 Mg 0.43763 0.30591 0.06804 0.0
O253 O 0.46984 0.34244 0.06158 0.0
O254 O 0.46331 0.36807 0.087 0.0
Mg255 Mg 0.42889 0.34788 0.11281 0.0
C256 C 0.4759 0.36339 0.06939 0.0
C257 C 0.44911 0.26761 0.05208 0.0
O258 O 0.43114 0.25693 0.07074 0.0
O259 O 0.44911 0.30234 0.11646 0.0
O260 O 0.44362 0.32893 0.14117 0.0
O261 O 0.42203 0.31466 0.02829 0.0
O262 O 0.41706 0.32096 0.07696 0.0
C263 C 0.44999 0.31356 0.14081 0.0
C264 C 0.41452 0.32389 0.04831 0.0
O265 O 0.45712 0.28918 0.04647 0.0
Mg266 Mg 0.1252 0.41538 0.53976 0.0
O267 O 0.11717 0.4452 0.53437 0.0
O268 O 0.08299 0.43431 0.55753 0.0
Mg269 Mg 0.07041 0.39866 0.58007 0.0
C270 C 0.10055 0.44893 0.54169 0.0
C271 C 0.17579 0.43056 0.52878 0.0
O272 O 0.16752 0.41155 0.54566 0.0
O273 O 0.13708 0.42629 0.58953 0.0
O274 O 0.10234 0.4141 0.61178 0.0
O275 O 0.10342 0.39978 0.49755 0.0
O276 O 0.08985 0.39156 0.5451 0.0
C277 C 0.12455 0.42329 0.61331 0.0
C278 C 0.08575 0.38992 0.5161 0.0
O279 O 0.16223 0.4384 0.52208 0.0
Mg280 Mg 0.71545 0.14487 0.09471 0.0
O281 O 0.67903 0.14021 0.08455 0.0
O282 O 0.65241 0.10495 0.10214 0.0
Mg283 Mg 0.67122 0.08871 0.12667 0.0
C284 C 0.65779 0.12399 0.08816 0.0
C285 C 0.75495 0.19252 0.07689 0.0
O286 O 0.76486 0.17976 0.08165 0.0
O287 O 0.71363 0.15354 0.14527 0.0
O288 O 0.6857 0.1185 0.16178 0.0
O289 O 0.71163 0.12613 0.05054 0.0
O290 O 0.701 0.10878 0.09591 0.0
C291 C 0.70022 0.14013 0.16641 0.0
C292 C 0.70088 0.10704 0.06646 0.0
O293 O 0.73304 0.1832 0.08105 0.0
Mg294 Mg 0.57021 0.70458 0.55202 0.0
O295 O 0.54005 0.66643 0.55168 0.0
O296 O 0.55332 0.64468 0.5738 0.0
Mg297 Mg 0.59052 0.66883 0.59097 0.0
C298 C 0.5373 0.64659 0.5599 0.0
C299 C 0.53195 0.71023 0.51488 0.0
O300 O 0.52934 0.69171 0.5001 0.0
O301 O 0.56379 0.70847 0.60286 0.0
O302 O 0.57787 0.68714 0.62398 0.0
O303 O 0.58162 0.69594 0.50803 0.0
O304 O 0.59415 0.69285 0.55398 0.0
C305 C 0.56885 0.70029 0.62636 0.0
C306 C 0.59253 0.68835 0.52505 0.0
O307 O 0.5461 0.71818 0.53736 0.0
Mg308 Mg 0.8596 0.57272 0.07591 0.0
O309 O 0.86642 0.54192 0.07156 0.0
O310 O 0.90127 0.55319 0.09302 0.0
Mg311 Mg 0.91546 0.58962 0.11369 0.0
C312 C 0.88312 0.53819 0.07844 0.0
C313 C 0.81696 0.54038 0.0339 0.0
O314 O 0.83384 0.54072 0.01748 0.0
O315 O 0.84915 0.56374 0.12651 0.0
O316 O 0.88456 0.57623 0.14689 0.0
O317 O 0.8799 0.58617 0.03227 0.0
O318 O 0.89548 0.59579 0.07867 0.0
C319 C 0.86249 0.56753 0.14965 0.0
C320 C 0.89837 0.59585 0.04946 0.0
O321 O 0.82187 0.55043 0.05995 0.0
Mg322 Mg 0.28123 0.85467 0.58001 0.0
O323 O 0.31748 0.85936 0.56981 0.0
O324 O 0.34459 0.89264 0.59148 0.0
Mg325 Mg 0.32563 0.90754 0.61891 0.0
C326 C 0.33884 0.87456 0.57502 0.0
C327 C 0.24234 0.80632 0.55872 0.0
O328 O 0.23034 0.81528 0.57095 0.0
O329 O 0.28135 0.84167 0.62891 0.0
O330 O 0.3094 0.87504 0.64953 0.0
O331 O 0.28673 0.87744 0.53924 0.0
O332 O 0.29611 0.89052 0.58687 0.0
C333 C 0.29442 0.85327 0.65145 0.0
C334 C 0.29691 0.89493 0.55799 0.0
O335 O 0.26452 0.81803 0.55988 0.0
C336 C 0.36508 0.4957 0.19041 0.0
C337 C 0.3865 0.50923 0.17538 0.0
C338 C 0.36393 0.49492 0.22264 0.0
C339 C 0.38459 0.50849 0.23998 0.0
C340 C 0.40542 0.52469 0.22473 0.0
C341 C 0.40626 0.52454 0.19254 0.0
C342 C 0.34137 0.47725 0.23781 0.0
C343 C 0.4276 0.54017 0.24229 0.0
C344 C 0.38175 0.50438 0.32756 0.0
C345 C 0.38926 0.48816 0.33273 0.0
C346 C 0.38035 0.51155 0.29751 0.0
C347 C 0.38594 0.50171 0.27222 0.0
C348 C 0.39316 0.48506 0.27748 0.0
C349 C 0.39503 0.47879 0.30758 0.0
C350 C 0.37332 0.52987 0.29286 0.0
C351 C 0.39879 0.47365 0.25125 0.0
H352 H 0.34981 0.48373 0.17717 0.0
H353 H 0.42281 0.53513 0.18088 0.0
H354 H 0.34251 0.46151 0.24391 0.0
H355 H 0.33829 0.4843 0.25931 0.0
H356 H 0.32611 0.47175 0.22233 0.0
H357 H 0.44031 0.55518 0.22813 0.0
H358 H 0.42379 0.54697 0.26352 0.0
H359 H 0.43595 0.52984 0.24916 0.0
H360 H 0.37734 0.51172 0.347 0.0
H361 H 0.40053 0.466 0.31139 0.0
H362 H 0.35866 0.52364 0.27626 0.0
H363 H 0.38825 0.54586 0.28295 0.0
H364 H 0.36801 0.53463 0.31469 0.0
H365 H 0.38381 0.46536 0.23509 0.0
H366 H 0.40285 0.46007 0.25927 0.0
H367 H 0.4141 0.48705 0.23826 0.0
C368 C 0.86926 0.37031 0.68726 0.0
C369 C 0.89181 0.37512 0.6791 0.0
C370 C 0.86358 0.37148 0.71819 0.0
C371 C 0.88074 0.37704 0.74127 0.0
C372 C 0.90322 0.38102 0.73304 0.0
C373 C 0.90851 0.3803 0.70213 0.0
C374 C 0.83963 0.36764 0.72595 0.0
C375 C 0.92195 0.38643 0.75685 0.0
C376 C 0.88883 0.40633 0.81768 0.0
C377 C 0.88425 0.38782 0.83756 0.0
C378 C 0.88454 0.40248 0.78607 0.0
C379 C 0.87617 0.37971 0.77409 0.0
C380 C 0.8689 0.3606 0.79451 0.0
C381 C 0.87282 0.36488 0.82617 0.0
C382 C 0.89164 0.42323 0.76523 0.0
C383 C 0.85987 0.33604 0.7828 0.0
H384 H 0.85634 0.36637 0.66942 0.0
H385 H 0.92585 0.38366 0.69593 0.0
H386 H 0.83231 0.35622 0.74639 0.0
H387 H 0.84106 0.3847 0.73164 0.0
H388 H 0.8272 0.35973 0.7065 0.0
H389 H 0.93792 0.38749 0.74678 0.0
H390 H 0.92698 0.40339 0.7681 0.0
H391 H 0.91518 0.37277 0.77495 0.0
H392 H 0.89737 0.42407 0.82652 0.0
H393 H 0.8692 0.35049 0.84147 0.0
H394 H 0.879 0.41868 0.74608 0.0
H395 H 0.90904 0.42856 0.7551 0.0
H396 H 0.89288 0.43842 0.77792 0.0
H397 H 0.84797 0.33226 0.76295 0.0
H398 H 0.85046 0.3228 0.80099 0.0
H399 H 0.87487 0.33418 0.7749 0.0
C400 C 0.49707 0.86793 0.3069 0.0
C401 C 0.48677 0.87918 0.32227 0.0
C402 C 0.49767 0.8676 0.27466 0.0
C403 C 0.48721 0.87829 0.25763 0.0
C404 C 0.47404 0.88674 0.27317 0.0
C405 C 0.47434 0.88749 0.30537 0.0
C406 C 0.51201 0.85852 0.25913 0.0
C407 C 0.46185 0.89743 0.2559 0.0
C408 C 0.52066 0.91642 0.19017 0.0
C409 C 0.50861 0.90238 0.16497 0.0
C410 C 0.51422 0.90835 0.22023 0.0
C411 C 0.4947 0.88581 0.2254 0.0
C412 C 0.48246 0.87139 0.20002 0.0
C413 C 0.48981 0.87975 0.16994 0.0
C414 C 0.52825 0.92416 0.24649 0.0
C415 C 0.4612 0.84757 0.2046 0.0
H416 H 0.50672 0.8615 0.31992 0.0
H417 H 0.4661 0.89593 0.31727 0.0
H418 H 0.50351 0.84903 0.23767 0.0
H419 H 0.52936 0.87353 0.25288 0.0
H420 H 0.51486 0.84668 0.27441 0.0
H421 H 0.44847 0.89841 0.27034 0.0
H422 H 0.47492 0.91545 0.2487 0.0
H423 H 0.45329 0.88722 0.23488 0.0
H424 H 0.53544 0.9338 0.18633 0.0
H425 H 0.48044 0.86894 0.15038 0.0
H426 H 0.5341 0.91483 0.26218 0.0
H427 H 0.51717 0.92917 0.26 0.0
H428 H 0.54392 0.94041 0.23843 0.0
H429 H 0.4646 0.83746 0.22217 0.0
H430 H 0.45564 0.83731 0.18294 0.0
H431 H 0.44651 0.84969 0.21312 0.0
C432 C 0.61168 0.52935 0.79731 0.0
C433 C 0.61307 0.51539 0.82045 0.0
C434 C 0.61049 0.52326 0.76636 0.0
C435 C 0.61003 0.50224 0.75825 0.0
C436 C 0.61194 0.48823 0.7815 0.0
C437 C 0.61374 0.49515 0.8125 0.0
C438 C 0.60912 0.53913 0.7424 0.0
C439 C 0.61105 0.4655 0.77383 0.0
C440 C 0.58018 0.4847 0.68143 0.0
C441 C 0.59944 0.49521 0.66156 0.0
C442 C 0.58333 0.48411 0.71322 0.0
C443 C 0.60629 0.49493 0.72542 0.0
C444 C 0.62565 0.50339 0.70519 0.0
C445 C 0.62196 0.50321 0.67338 0.0
C446 C 0.56214 0.47415 0.73389 0.0
C447 C 0.65043 0.51514 0.71714 0.0
H448 H 0.61147 0.54518 0.8035 0.0
H449 H 0.61472 0.48432 0.8305 0.0
H450 H 0.62269 0.54354 0.72454 0.0
H451 H 0.59181 0.53002 0.73088 0.0
H452 H 0.61153 0.55568 0.75243 0.0
H453 H 0.61647 0.45863 0.79357 0.0
H454 H 0.59289 0.45228 0.76739 0.0
H455 H 0.6224 0.46766 0.75387 0.0
H456 H 0.5627 0.47815 0.67232 0.0
H457 H 0.63693 0.51132 0.65811 0.0
H458 H 0.56032 0.48866 0.74378 0.0
H459 H 0.56411 0.46431 0.75323 0.0
H460 H 0.54582 0.46235 0.72118 0.0
H461 H 0.65558 0.53313 0.72479 0.0
H462 H 0.66296 0.51637 0.69918 0.0
H463 H 0.65191 0.50562 0.73722 0.0
C464 C 0.08431 0.61072 0.2938 0.0
C465 C 0.09953 0.61211 0.31717 0.0
C466 C 0.09072 0.61264 0.26292 0.0
C467 C 0.11283 0.61552 0.25494 0.0
C468 C 0.12862 0.61752 0.27845 0.0
C469 C 0.12185 0.61605 0.30948 0.0
C470 C 0.07347 0.611 0.23879 0.0
C471 C 0.15216 0.6202 0.27092 0.0
C472 C 0.10509 0.592 0.17487 0.0
C473 C 0.11154 0.61231 0.15775 0.0
C474 C 0.1086 0.59313 0.20673 0.0
C475 C 0.11817 0.61502 0.22181 0.0
C476 C 0.12732 0.63578 0.20414 0.0
C477 C 0.12406 0.63418 0.17214 0.0
C478 C 0.09943 0.57062 0.22456 0.0
C479 C 0.13782 0.65949 0.2192 0.0
H480 H 0.06718 0.60809 0.29974 0.0
H481 H 0.13362 0.6171 0.32759 0.0
H482 H 0.0819 0.62618 0.22296 0.0
H483 H 0.0676 0.59492 0.22489 0.0
H484 H 0.05777 0.61048 0.24897 0.0
H485 H 0.16407 0.62629 0.29108 0.0
H486 H 0.14972 0.60302 0.26355 0.0
H487 H 0.16065 0.63264 0.25168 0.0
H488 H 0.09578 0.57507 0.1637 0.0
H489 H 0.12921 0.64997 0.15897 0.0
H490 H 0.08213 0.56588 0.23456 0.0
H491 H 0.11137 0.5727 0.24377 0.0
H492 H 0.09721 0.55597 0.20967 0.0
H493 H 0.12351 0.66224 0.22775 0.0
H494 H 0.14859 0.67378 0.2028 0.0
H495 H 0.14881 0.6607 0.23917 0.0
C496 C 0.52245 0.1101 0.81712 0.0
C497 C 0.50972 0.11755 0.83499 0.0
C498 C 0.52265 0.11169 0.78498 0.0
C499 C 0.50915 0.12019 0.77046 0.0
C500 C 0.49847 0.13014 0.78853 0.0
C501 C 0.49912 0.12894 0.82071 0.0
C502 C 0.53506 0.10173 0.76662 0.0
C503 C 0.48384 0.13932 0.7741 0.0
C504 C 0.50595 0.12054 0.68281 0.0
C505 C 0.4872 0.09796 0.67728 0.0
C506 C 0.51346 0.1283 0.71307 0.0
C507 C 0.5015 0.11329 0.7381 0.0
C508 C 0.48209 0.09079 0.73242 0.0
C509 C 0.47543 0.08335 0.70218 0.0
C510 C 0.53456 0.15215 0.71815 0.0
C511 C 0.46838 0.07433 0.75832 0.0
H512 H 0.53095 0.10157 0.82816 0.0
H513 H 0.48925 0.13473 0.83445 0.0
H514 H 0.52215 0.08381 0.75886 0.0
H515 H 0.54339 0.11248 0.74589 0.0
H516 H 0.54865 0.10068 0.78048 0.0
H517 H 0.48089 0.15067 0.7902 0.0
H518 H 0.49217 0.14936 0.75291 0.0
H519 H 0.46654 0.12433 0.76762 0.0
H520 H 0.51511 0.13182 0.66353 0.0
H521 H 0.46069 0.06601 0.698 0.0
H522 H 0.54945 0.15009 0.72596 0.0
H523 H 0.53112 0.16176 0.73643 0.0
H524 H 0.53987 0.16287 0.69688 0.0
H525 H 0.47974 0.06933 0.77118 0.0
H526 H 0.45284 0.05809 0.74997 0.0
H527 H 0.46238 0.08313 0.7747 0.0
C528 C 0.54568 0.70953 0.66413 0.0
C529 C 0.56449 0.70592 0.65765 0.0
C530 C 0.54004 0.71179 0.69469 0.0
C531 C 0.55368 0.71057 0.71901 0.0
C532 C 0.5736 0.70853 0.71225 0.0
C533 C 0.57863 0.70611 0.68176 0.0
C534 C 0.51877 0.71406 0.70086 0.0
C535 C 0.58895 0.70755 0.73733 0.0
C536 C 0.55671 0.72551 0.80294 0.0
C537 C 0.54697 0.70302 0.81553 0.0
C538 C 0.55651 0.72854 0.77098 0.0
C539 C 0.5462 0.70861 0.75163 0.0
C540 C 0.53345 0.68604 0.76481 0.0
C541 C 0.53421 0.68351 0.79664 0.0
C542 C 0.5698 0.75292 0.75787 0.0
C543 C 0.52159 0.66432 0.74515 0.0
H544 H 0.53473 0.70945 0.64551 0.0
H545 H 0.59346 0.70378 0.6768 0.0
H546 H 0.50374 0.69657 0.70644 0.0
H547 H 0.52161 0.72572 0.72072 0.0
H548 H 0.51396 0.72091 0.68048 0.0
H549 H 0.60476 0.70778 0.72806 0.0
H550 H 0.59467 0.72258 0.75321 0.0
H551 H 0.57887 0.6913 0.75096 0.0
H552 H 0.56653 0.74064 0.81757 0.0
H553 H 0.52638 0.66611 0.80651 0.0
H554 H 0.56093 0.7546 0.73718 0.0
H555 H 0.58754 0.75668 0.75091 0.0
H556 H 0.57179 0.76627 0.77502 0.0
H557 H 0.51214 0.66679 0.72576 0.0
H558 H 0.50903 0.64876 0.75861 0.0
H559 H 0.53503 0.66074 0.73533 0.0
C560 C 0.85248 0.52882 0.31663 0.0
C561 C 0.84405 0.53875 0.3379 0.0
C562 C 0.84833 0.52916 0.28516 0.0
C563 C 0.83582 0.54013 0.27476 0.0
C564 C 0.82485 0.54757 0.29641 0.0
C565 C 0.82904 0.54671 0.32793 0.0
C566 C 0.85981 0.52038 0.26298 0.0
C567 C 0.81097 0.5589 0.28629 0.0
C568 C 0.86631 0.57657 0.20514 0.0
C569 C 0.85279 0.56208 0.18104 0.0
C570 C 0.85986 0.57033 0.23575 0.0
C571 C 0.83945 0.54881 0.24256 0.0
C572 C 0.8248 0.53481 0.21831 0.0
C573 C 0.83162 0.5417 0.18765 0.0
C574 C 0.87586 0.5861 0.26077 0.0
C575 C 0.80285 0.51186 0.22455 0.0
H576 H 0.86379 0.52229 0.32442 0.0
H577 H 0.82239 0.55431 0.3444 0.0
H578 H 0.8478 0.51062 0.24381 0.0
H579 H 0.8756 0.53552 0.25298 0.0
H580 H 0.86527 0.50882 0.27443 0.0
H581 H 0.79916 0.55847 0.30479 0.0
H582 H 0.8232 0.57747 0.28032 0.0
H583 H 0.80041 0.55017 0.26557 0.0
H584 H 0.8825 0.59254 0.20002 0.0
H585 H 0.82113 0.53048 0.16899 0.0
H586 H 0.88437 0.57737 0.27252 0.0
H587 H 0.86569 0.58952 0.27824 0.0
H588 H 0.88977 0.60315 0.25166 0.0
H589 H 0.80756 0.49812 0.22852 0.0
H590 H 0.79057 0.50637 0.20479 0.0
H591 H 0.79375 0.51291 0.2454 0.0
C592 C 0.31021 0.84839 0.70059 0.0
C593 C 0.29068 0.84274 0.68222 0.0
C594 C 0.30825 0.84665 0.73263 0.0
C595 C 0.2863 0.83962 0.74649 0.0
C596 C 0.26603 0.83087 0.72785 0.0
C597 C 0.26845 0.83247 0.69571 0.0
C598 C 0.33023 0.85543 0.75155 0.0
C599 C 0.24224 0.82272 0.74172 0.0
C600 C 0.28685 0.84283 0.83397 0.0
C601 C 0.29275 0.86623 0.83828 0.0
C602 C 0.28349 0.83327 0.8042 0.0
C603 C 0.28592 0.84744 0.77845 0.0
C604 C 0.29046 0.87061 0.783 0.0
C605 C 0.29393 0.87969 0.81275 0.0
C606 C 0.27863 0.80851 0.80041 0.0
C607 C 0.29283 0.88633 0.75633 0.0
H608 H 0.32739 0.85615 0.69005 0.0
H609 H 0.25332 0.8281 0.68147 0.0
H610 H 0.3359 0.87345 0.75965 0.0
H611 H 0.327 0.84427 0.77207 0.0
H612 H 0.34475 0.8559 0.73803 0.0
H613 H 0.228 0.81149 0.7255 0.0
H614 H 0.23998 0.81287 0.76329 0.0
H615 H 0.24048 0.83818 0.74738 0.0
H616 H 0.28587 0.83234 0.85367 0.0
H617 H 0.29805 0.89766 0.816 0.0
H618 H 0.29524 0.80884 0.79512 0.0
H619 H 0.26636 0.79955 0.78114 0.0
H620 H 0.27125 0.79813 0.82172 0.0
H621 H 0.30847 0.89011 0.7425 0.0
H622 H 0.29467 0.90324 0.76397 0.0
H623 H 0.27733 0.87752 0.74108 0.0
C624 C 0.44725 0.28255 0.31892 0.0
C625 C 0.42703 0.28373 0.32538 0.0
C626 C 0.45504 0.28402 0.28842 0.0
C627 C 0.44219 0.28661 0.26415 0.0
C628 C 0.42079 0.28591 0.2706 0.0
C629 C 0.41358 0.28457 0.30107 0.0
C630 C 0.47775 0.28438 0.28255 0.0
C631 C 0.40622 0.28822 0.24551 0.0
C632 C 0.46549 0.32381 0.19383 0.0
C633 C 0.45544 0.30686 0.17073 0.0
C634 C 0.4641 0.31734 0.22471 0.0
C635 C 0.45203 0.29331 0.23262 0.0
C636 C 0.44462 0.27623 0.2091 0.0
C637 C 0.44646 0.28323 0.17822 0.0
C638 C 0.47288 0.33621 0.24895 0.0
C639 C 0.4323 0.25048 0.21655 0.0
H640 H 0.45767 0.28183 0.33769 0.0
H641 H 0.39769 0.28504 0.30596 0.0
H642 H 0.47724 0.27568 0.26052 0.0
H643 H 0.49217 0.30279 0.28112 0.0
H644 H 0.48189 0.2757 0.30143 0.0
H645 H 0.38914 0.28538 0.25415 0.0
H646 H 0.4159 0.306 0.23534 0.0
H647 H 0.40282 0.27544 0.22689 0.0
H648 H 0.47283 0.34214 0.18797 0.0
H649 H 0.43881 0.27007 0.16037 0.0
H650 H 0.48181 0.33234 0.26771 0.0
H651 H 0.45781 0.33691 0.25914 0.0
H652 H 0.4852 0.35372 0.23928 0.0
H653 H 0.44016 0.24704 0.237 0.0
H654 H 0.43291 0.24005 0.1969 0.0
H655 H 0.41367 0.2444 0.22186 0.0
C656 C 0.15804 0.44951 0.64807 0.0
C657 C 0.13548 0.43031 0.644 0.0
C658 C 0.16689 0.45763 0.67776 0.0
C659 C 0.15285 0.44609 0.70371 0.0
C660 C 0.13069 0.4258 0.69953 0.0
C661 C 0.12229 0.4183 0.66982 0.0
C662 C 0.19059 0.47926 0.68117 0.0
C663 C 0.11519 0.41262 0.72645 0.0
C664 C 0.16758 0.44941 0.78774 0.0
C665 C 0.15527 0.4601 0.79884 0.0
C666 C 0.16976 0.4472 0.75594 0.0
C667 C 0.15952 0.45606 0.73519 0.0
C668 C 0.15017 0.46982 0.74651 0.0
C669 C 0.14791 0.47144 0.77826 0.0
C670 C 0.18035 0.43289 0.7448 0.0
C671 C 0.13968 0.4802 0.72524 0.0
H672 H 0.16832 0.45883 0.62812 0.0
H673 H 0.10501 0.40318 0.66679 0.0
H674 H 0.18828 0.49466 0.68455 0.0
H675 H 0.20007 0.47798 0.70145 0.0
H676 H 0.20153 0.4824 0.66037 0.0
H677 H 0.0993 0.39622 0.71928 0.0
H678 H 0.12498 0.40811 0.74322 0.0
H679 H 0.10955 0.42382 0.73843 0.0
H680 H 0.17332 0.44066 0.80367 0.0
H681 H 0.13862 0.47996 0.78692 0.0
H682 H 0.19024 0.44015 0.72317 0.0
H683 H 0.16614 0.41477 0.74003 0.0
H684 H 0.1922 0.43208 0.76227 0.0
H685 H 0.15089 0.48802 0.70473 0.0
H686 H 0.13726 0.49383 0.73688 0.0
H687 H 0.12231 0.46616 0.71722 0.0
C688 C 0.70503 0.14772 0.35009 0.0
C689 C 0.70115 0.125 0.35458 0.0
C690 C 0.70824 0.15718 0.32029 0.0
C691 C 0.70778 0.14363 0.29475 0.0
C692 C 0.70557 0.12138 0.29963 0.0
C693 C 0.70212 0.11233 0.32939 0.0
C694 C 0.71061 0.18097 0.31612 0.0
C695 C 0.70541 0.10641 0.27322 0.0
C696 C 0.68272 0.14038 0.21657 0.0
C697 C 0.70276 0.14855 0.19829 0.0
C698 C 0.68438 0.14162 0.24864 0.0
C699 C 0.70662 0.15077 0.26267 0.0
C700 C 0.72706 0.16159 0.24426 0.0
C701 C 0.72488 0.16045 0.21208 0.0
C702 C 0.66214 0.13049 0.26733 0.0
C703 C 0.75109 0.17187 0.25833 0.0
H704 H 0.70431 0.15757 0.36959 0.0
H705 H 0.69955 0.09492 0.33289 0.0
H706 H 0.72311 0.19088 0.29745 0.0
H707 H 0.69335 0.17878 0.30966 0.0
H708 H 0.71647 0.19142 0.33761 0.0
H709 H 0.70565 0.09053 0.28118 0.0
H710 H 0.68945 0.10077 0.25913 0.0
H711 H 0.72078 0.11659 0.25814 0.0
H712 H 0.6656 0.13142 0.20581 0.0
H713 H 0.74041 0.1668 0.19792 0.0
H714 H 0.66396 0.14122 0.28786 0.0
H715 H 0.6585 0.11303 0.27544 0.0
H716 H 0.64688 0.12813 0.25368 0.0
H717 H 0.7522 0.18115 0.28006 0.0
H718 H 0.76487 0.18419 0.24234 0.0
H719 H 0.75471 0.15754 0.26379 0.0
C720 C 0.23287 0.45804 0.93179 0.0
C721 C 0.21808 0.46741 0.93575 0.0
C722 C 0.25119 0.46331 0.95238 0.0
C723 C 0.25484 0.47834 0.97757 0.0
C724 C 0.24094 0.48905 0.98061 0.0
C725 C 0.22271 0.48346 0.95963 0.0
C726 C 0.26578 0.4517 0.94816 0.0
C727 C 0.24443 0.50533 0.00698 0.0
C728 C 0.28035 0.46445 0.04696 0.0
C729 C 0.30426 0.48072 0.04398 0.0
C730 C 0.26393 0.4643 0.02637 0.0
C731 C 0.2716 0.48083 0.00217 0.0
C732 C 0.2955 0.49822 0.00014 0.0
C733 C 0.31157 0.49798 0.02111 0.0
C734 C 0.23855 0.4456 0.02953 0.0
C735 C 0.3043 0.51625 0.97481 0.0
H736 H 0.22957 0.4458 0.91325 0.0
H737 H 0.21145 0.49091 0.96279 0.0
H738 H 0.28468 0.4649 0.94912 0.0
H739 H 0.26212 0.43909 0.96711 0.0
H740 H 0.26209 0.44215 0.926 0.0
H741 H 0.23447 0.51466 0.00375 0.0
H742 H 0.23848 0.49513 0.02862 0.0
H743 H 0.26324 0.51844 0.00979 0.0
H744 H 0.27451 0.45119 0.06472 0.0
H745 H 0.33001 0.51069 0.01868 0.0
H746 H 0.23338 0.43343 0.00972 0.0
H747 H 0.22718 0.45355 0.0293 0.0
H748 H 0.23515 0.4353 0.051 0.0
H749 H 0.30357 0.50765 0.95261 0.0
H750 H 0.32263 0.53036 0.97881 0.0
H751 H 0.29302 0.52423 0.97259 0.0
C752 C 0.7345 0.19272 0.50791 0.0
C753 C 0.746 0.1849 0.48816 0.0
C754 C 0.74708 0.21375 0.52437 0.0
C755 C 0.77169 0.2271 0.52112 0.0
C756 C 0.78323 0.21969 0.50037 0.0
C757 C 0.77024 0.19876 0.4841 0.0
C758 C 0.73415 0.22126 0.54597 0.0
C759 C 0.80948 0.23342 0.49621 0.0
C760 C 0.81042 0.2903 0.54484 0.0
C761 C 0.82106 0.2877 0.57131 0.0
C762 C 0.79283 0.27068 0.52941 0.0
C763 C 0.78588 0.248 0.54065 0.0
C764 C 0.79516 0.2454 0.56873 0.0
C765 C 0.81257 0.2653 0.58379 0.0
C766 C 0.78301 0.27419 0.49987 0.0
C767 C 0.78815 0.22153 0.5816 0.0
H768 H 0.71573 0.18217 0.51107 0.0
H769 H 0.77927 0.19295 0.46878 0.0
H770 H 0.7386 0.21955 0.57004 0.0
H771 H 0.73958 0.23992 0.5422 0.0
H772 H 0.71487 0.21054 0.54314 0.0
H773 H 0.81563 0.22576 0.47826 0.0
H774 H 0.81514 0.25176 0.48979 0.0
H775 H 0.81822 0.23389 0.51819 0.0
H776 H 0.81666 0.30757 0.53521 0.0
H777 H 0.82047 0.26311 0.60442 0.0
H778 H 0.76376 0.2625 0.49893 0.0
H779 H 0.79065 0.26967 0.48014 0.0
H780 H 0.78706 0.29258 0.49708 0.0
H781 H 0.76884 0.21027 0.58176 0.0
H782 H 0.79479 0.22252 0.60532 0.0
H783 H 0.79529 0.21289 0.56676 0.0
C784 C 0.52179 0.83172 0.03189 0.0
C785 C 0.52083 0.84759 0.01129 0.0
C786 C 0.52542 0.81366 0.02136 0.0
C787 C 0.52816 0.81144 0.98951 0.0
C788 C 0.52538 0.82625 0.9685 0.0
C789 C 0.52171 0.84413 0.97964 0.0
C790 C 0.52802 0.79807 0.04451 0.0
C791 C 0.52802 0.82436 0.93434 0.0
C792 C 0.57003 0.7906 0.96586 0.0
C793 C 0.55475 0.76747 0.95676 0.0
C794 C 0.56151 0.80494 0.97668 0.0
C795 C 0.53706 0.79596 0.97855 0.0
C796 C 0.52147 0.77256 0.96967 0.0
C797 C 0.53051 0.75857 0.95883 0.0
C798 C 0.57875 0.82981 0.98592 0.0
C799 C 0.49531 0.7624 0.97145 0.0
H800 H 0.52089 0.83409 0.05638 0.0
H801 H 0.52076 0.85614 0.96351 0.0
H802 H 0.51791 0.77949 0.03727 0.0
H803 H 0.54669 0.80284 0.04595 0.0
H804 H 0.5221 0.79975 0.06777 0.0
H805 H 0.5223 0.83495 0.92094 0.0
H806 H 0.54666 0.8306 0.9289 0.0
H807 H 0.51776 0.80588 0.92673 0.0
H808 H 0.58877 0.79765 0.96438 0.0
H809 H 0.51858 0.7407 0.95188 0.0
H810 H 0.57585 0.83276 0.01021 0.0
H811 H 0.57603 0.8422 0.97168 0.0
H812 H 0.59721 0.83404 0.98328 0.0
H813 H 0.49012 0.76381 0.99524 0.0
H814 H 0.48555 0.74374 0.96433 0.0
H815 H 0.48994 0.7725 0.95647 0.0
C816 C 0.7029 0.52534 0.56191 0.0
C817 C 0.68024 0.51216 0.54987 0.0
C818 C 0.72219 0.52656 0.54664 0.0
C819 C 0.71869 0.51409 0.51886 0.0
C820 C 0.69569 0.49918 0.50801 0.0
C821 C 0.6767 0.49847 0.52358 0.0
C822 C 0.74645 0.54266 0.55901 0.0
C823 C 0.69122 0.48522 0.47882 0.0
C824 C 0.7682 0.54459 0.46189 0.0
C825 C 0.7811 0.53324 0.46679 0.0
C826 C 0.74743 0.53792 0.47798 0.0
C827 C 0.73917 0.51926 0.49929 0.0
C828 C 0.75143 0.50692 0.50323 0.0
C829 C 0.77237 0.51415 0.48703 0.0
C830 C 0.73489 0.55158 0.47313 0.0
C831 C 0.74292 0.48668 0.52537 0.0
H832 H 0.70579 0.5358 0.58237 0.0
H833 H 0.65921 0.488 0.51433 0.0
H834 H 0.75678 0.53359 0.55972 0.0
H835 H 0.75573 0.55796 0.54353 0.0
H836 H 0.74606 0.54913 0.58244 0.0
H837 H 0.6725 0.47165 0.47633 0.0
H838 H 0.69629 0.49715 0.45877 0.0
H839 H 0.70199 0.47661 0.47818 0.0
H840 H 0.77474 0.55928 0.4462 0.0
H841 H 0.78217 0.50519 0.49079 0.0
H842 H 0.73506 0.56055 0.49477 0.0
H843 H 0.71632 0.53957 0.46699 0.0
H844 H 0.74305 0.56494 0.45475 0.0
H845 H 0.74509 0.49327 0.54927 0.0
H846 H 0.75269 0.47709 0.52288 0.0
H847 H 0.724 0.47424 0.52183 0.0
C848 C 0.25522 0.79495 0.98773 0.0
C849 C 0.24441 0.80473 0.97013 0.0
C850 C 0.24183 0.77355 0.00311 0.0
C851 C 0.21712 0.76183 0.00096 0.0
C852 C 0.20621 0.77126 0.98243 0.0
C853 C 0.21998 0.79251 0.96717 0.0
C854 C 0.25406 0.76384 0.02235 0.0
C855 C 0.17989 0.75932 0.97954 0.0
C856 C 0.17627 0.69823 0.02123 0.0
C857 C 0.1672 0.70036 0.04944 0.0
C858 C 0.19381 0.71801 0.00603 0.0
C859 C 0.20233 0.7404 0.0193 0.0
C860 C 0.19439 0.74246 0.04871 0.0
C861 C 0.17698 0.7224 0.06348 0.0
C862 C 0.2021 0.71507 0.97491 0.0
C863 C 0.20306 0.76603 0.06367 0.0
H864 H 0.2741 0.80424 0.99002 0.0
H865 H 0.21146 0.79986 0.95353 0.0
H866 H 0.25007 0.76442 0.04697 0.0
H867 H 0.2476 0.74525 0.0164 0.0
H868 H 0.27336 0.77384 0.01927 0.0
H869 H 0.17421 0.76852 0.96334 0.0
H870 H 0.17279 0.74106 0.97149 0.0
H871 H 0.17204 0.75855 0.00236 0.0
H872 H 0.169 0.68123 0.01035 0.0
H873 H 0.17023 0.7242 0.08539 0.0
H874 H 0.22145 0.7256 0.97332 0.0
H875 H 0.1948 0.72149 0.95688 0.0
H876 H 0.19652 0.69649 0.96994 0.0
H877 H 0.22245 0.77631 0.06325 0.0
H878 H 0.19707 0.76445 0.08785 0.0
H879 H 0.19653 0.77606 0.05061 0.0
C880 C 0.47856 0.17197 0.54234 0.0
C881 C 0.48269 0.15741 0.52297 0.0
C882 C 0.4743 0.18921 0.53022 0.0
C883 C 0.4743 0.19201 0.49799 0.0
C884 C 0.48082 0.17902 0.47854 0.0
C885 C 0.48491 0.16183 0.49127 0.0
C886 C 0.46762 0.20282 0.55181 0.0
C887 C 0.48139 0.18173 0.44408 0.0
C888 C 0.42858 0.20556 0.46755 0.0
C889 C 0.4418 0.22956 0.4612 0.0
C890 C 0.43908 0.19325 0.47923 0.0
C891 C 0.46351 0.20517 0.48465 0.0
C892 C 0.4771 0.22934 0.47788 0.0
C893 C 0.46606 0.2413 0.46627 0.0
C894 C 0.4239 0.16747 0.48613 0.0
C895 C 0.50319 0.24256 0.48321 0.0
H896 H 0.47711 0.16892 0.56691 0.0
H897 H 0.48845 0.15092 0.47612 0.0
H898 H 0.47643 0.22155 0.54523 0.0
H899 H 0.44847 0.19588 0.55039 0.0
H900 H 0.47213 0.20148 0.57602 0.0
H901 H 0.49078 0.1737 0.43274 0.0
H902 H 0.46321 0.17305 0.43516 0.0
H903 H 0.48992 0.20046 0.43754 0.0
H904 H 0.40985 0.19631 0.46368 0.0
H905 H 0.4764 0.25985 0.46137 0.0
H906 H 0.42512 0.1642 0.51087 0.0
H907 H 0.43014 0.15725 0.47294 0.0
H908 H 0.40521 0.16079 0.48035 0.0
H909 H 0.50691 0.24241 0.50803 0.0
H910 H 0.51143 0.26102 0.47538 0.0
H911 H 0.51154 0.23387 0.47096 0.0
C912 C 0.78931 0.52498 0.98929 0.0
C913 C 0.79382 0.53293 0.01978 0.0
C914 C 0.76951 0.52238 0.97368 0.0
C915 C 0.75397 0.52799 0.98889 0.0
C916 C 0.75741 0.53414 0.02038 0.0
C917 C 0.77724 0.53645 0.03547 0.0
C918 C 0.76621 0.51533 0.94027 0.0
C919 C 0.74121 0.54016 0.03752 0.0
C920 C 0.72573 0.55648 0.94386 0.0
C921 C 0.7023 0.53855 0.94238 0.0
C922 C 0.74276 0.55295 0.9581 0.0
C923 C 0.7363 0.53086 0.97107 0.0
C924 C 0.7129 0.51234 0.96854 0.0
C925 C 0.69612 0.51642 0.95429 0.0
C926 C 0.76754 0.5732 0.96025 0.0
C927 C 0.70543 0.48848 0.98177 0.0
H928 H 0.80186 0.52193 0.97705 0.0
H929 H 0.7804 0.54233 0.05914 0.0
H930 H 0.74762 0.50243 0.93541 0.0
H931 H 0.77107 0.53094 0.9258 0.0
H932 H 0.77722 0.50772 0.93338 0.0
H933 H 0.74461 0.5418 0.06264 0.0
H934 H 0.7436 0.55705 0.02888 0.0
H935 H 0.72268 0.52667 0.03353 0.0
H936 H 0.73073 0.5736 0.93459 0.0
H937 H 0.67807 0.50243 0.95315 0.0
H938 H 0.77994 0.56815 0.95055 0.0
H939 H 0.77233 0.57788 0.98471 0.0
H940 H 0.76989 0.58897 0.94791 0.0
H941 H 0.71759 0.48237 0.97439 0.0
H942 H 0.68737 0.47529 0.97479 0.0
H943 H 0.70613 0.48953 0.00721 0.0
C944 C 0.17394 0.71199 0.4313 0.0
C945 C 0.16308 0.68873 0.44148 0.0
C946 C 0.18966 0.73038 0.45018 0.0
C947 C 0.19464 0.72539 0.47994 0.0
C948 C 0.18527 0.70185 0.48934 0.0
C949 C 0.1696 0.68376 0.46997 0.0
C950 C 0.19951 0.75525 0.43913 0.0
C951 C 0.19038 0.69579 0.52075 0.0
C952 C 0.24307 0.77624 0.52417 0.0
C953 C 0.23027 0.78423 0.54099 0.0
C954 C 0.23173 0.7566 0.50488 0.0
C955 C 0.20705 0.74475 0.50238 0.0
C956 C 0.19402 0.75222 0.5202 0.0
C957 C 0.20578 0.77184 0.53927 0.0
C958 C 0.24619 0.74907 0.48637 0.0
C959 C 0.16764 0.73997 0.51833 0.0
H960 H 0.16923 0.71598 0.40919 0.0
H961 H 0.16145 0.66583 0.47795 0.0
H962 H 0.19129 0.76375 0.45212 0.0
H963 H 0.21863 0.76551 0.44339 0.0
H964 H 0.19628 0.75612 0.41425 0.0
H965 H 0.18482 0.67693 0.52274 0.0
H966 H 0.20932 0.7063 0.52607 0.0
H967 H 0.18089 0.70002 0.53836 0.0
H968 H 0.26202 0.78569 0.5254 0.0
H969 H 0.19573 0.77779 0.5523 0.0
H970 H 0.24504 0.75243 0.46165 0.0
H971 H 0.2393 0.73001 0.489 0.0
H972 H 0.26491 0.75856 0.49326 0.0
H973 H 0.16225 0.74167 0.49476 0.0
H974 H 0.16006 0.74727 0.53478 0.0
H975 H 0.16002 0.72103 0.52309 0.0
C976 C 0.49708 0.1891 0.97436 0.0
C977 C 0.48321 0.17846 0.94836 0.0
C978 C 0.49504 0.20631 0.9908 0.0
C979 C 0.4787 0.21294 0.98104 0.0
C980 C 0.46587 0.20344 0.95363 0.0
C981 C 0.46834 0.18638 0.93757 0.0
C982 C 0.50928 0.21629 0.01968 0.0
C983 C 0.44832 0.21011 0.94237 0.0
C984 C 0.44783 0.22997 0.04032 0.0
C985 C 0.45833 0.25418 0.03583 0.0
C986 C 0.45483 0.21651 0.02323 0.0
C987 C 0.47289 0.22753 0.00118 0.0
C988 C 0.48422 0.2521 0.99734 0.0
C989 C 0.47676 0.26515 0.01466 0.0
C990 C 0.44229 0.19034 0.02804 0.0
C991 C 0.50369 0.26447 0.97427 0.0
H992 H 0.50878 0.18324 0.98273 0.0
H993 H 0.45771 0.17843 0.91735 0.0
H994 H 0.51708 0.23557 0.02033 0.0
H995 H 0.4977 0.20904 0.04001 0.0
H996 H 0.52352 0.21201 0.02166 0.0
H997 H 0.44156 0.20302 0.91912 0.0
H998 H 0.4333 0.20324 0.9585 0.0
H999 H 0.45627 0.22941 0.94172 0.0
H1000 H 0.43366 0.22135 0.0567 0.0
H1001 H 0.48505 0.28388 0.01115 0.0
H1002 H 0.45507 0.18456 0.03332 0.0
H1003 H 0.43303 0.18132 0.00665 0.0
H1004 H 0.4293 0.18461 0.047 0.0
H1005 H 0.51719 0.2593 0.97744 0.0
H1006 H 0.51218 0.28381 0.97613 0.0
H1007 H 0.49662 0.25923 0.95069 0.0
C1008 C 0.21265 0.42977 0.51961 0.0
C1009 C 0.19958 0.44102 0.51551 0.0
C1010 C 0.23423 0.43787 0.50495 0.0
C1011 C 0.24317 0.45793 0.48596 0.0
C1012 C 0.23062 0.47006 0.48282 0.0
C1013 C 0.20884 0.46135 0.4975 0.0
C1014 C 0.247 0.42434 0.50883 0.0
C1015 C 0.23983 0.49175 0.46321 0.0
C1016 C 0.30702 0.48094 0.4672 0.0
C1017 C 0.3052 0.46912 0.43964 0.0
C1018 C 0.28706 0.47911 0.48144 0.0
C1019 C 0.26481 0.46491 0.46794 0.0
C1020 C 0.26314 0.4545 0.43893 0.0
C1021 C 0.28338 0.45686 0.42504 0.0
C1022 C 0.28962 0.49095 0.512 0.0
C1023 C 0.23975 0.4392 0.42374 0.0
H1024 H 0.2057 0.4141 0.53357 0.0
H1025 H 0.1989 0.47024 0.49439 0.0
H1026 H 0.24837 0.41724 0.48631 0.0
H1027 H 0.26506 0.43608 0.51719 0.0
H1028 H 0.23804 0.40956 0.52522 0.0
H1029 H 0.22954 0.50076 0.46625 0.0
H1030 H 0.25841 0.50418 0.46882 0.0
H1031 H 0.23909 0.48695 0.43866 0.0
H1032 H 0.32387 0.49073 0.47844 0.0
H1033 H 0.28181 0.44787 0.40357 0.0
H1034 H 0.28375 0.47772 0.53061 0.0
H1035 H 0.27848 0.49916 0.51293 0.0
H1036 H 0.30805 0.50455 0.51664 0.0
H1037 H 0.22985 0.42273 0.437 0.0
H1038 H 0.24164 0.43465 0.39974 0.0
H1039 H 0.22916 0.44801 0.42358 0.0
C1040 C 0.82863 0.30761 0.97886 0.0
C1041 C 0.84339 0.32719 0.99677 0.0
C1042 C 0.81195 0.28659 0.99259 0.0
C1043 C 0.80991 0.28516 0.02498 0.0
C1044 C 0.82355 0.30535 0.04303 0.0
C1045 C 0.84018 0.32613 0.0287 0.0
C1046 C 0.79769 0.26547 0.97252 0.0
C1047 C 0.82168 0.3046 0.07761 0.0
C1048 C 0.75865 0.23046 0.05915 0.0
C1049 C 0.769 0.21675 0.06524 0.0
C1050 C 0.77181 0.25303 0.04663 0.0
C1051 C 0.7958 0.26197 0.03996 0.0
C1052 C 0.80641 0.24837 0.04662 0.0
C1053 C 0.79291 0.22599 0.05922 0.0
C1054 C 0.75999 0.26712 0.04004 0.0
C1055 C 0.83196 0.25726 0.03983 0.0
H1056 H 0.83083 0.3083 0.95415 0.0
H1057 H 0.85133 0.34124 0.04271 0.0
H1058 H 0.80365 0.2526 0.97595 0.0
H1059 H 0.77893 0.25676 0.97898 0.0
H1060 H 0.79936 0.2701 0.94776 0.0
H1061 H 0.83092 0.32238 0.08792 0.0
H1062 H 0.80308 0.2957 0.08488 0.0
H1063 H 0.82948 0.2944 0.087 0.0
H1064 H 0.74019 0.22346 0.06381 0.0
H1065 H 0.80109 0.21558 0.06391 0.0
H1066 H 0.7601 0.27012 0.01496 0.0
H1067 H 0.76975 0.28455 0.05114 0.0
H1068 H 0.74159 0.25825 0.04825 0.0
H1069 H 0.83524 0.26056 0.01484 0.0
H1070 H 0.83764 0.24471 0.04702 0.0
H1071 H 0.84299 0.27412 0.05182 0.0
C1072 C 0.52217 0.80367 0.4185 0.0
C1073 C 0.50597 0.81034 0.42775 0.0
C1074 C 0.52232 0.78444 0.43189 0.0
C1075 C 0.5056 0.77127 0.45474 0.0
C1076 C 0.48801 0.77674 0.46238 0.0
C1077 C 0.48852 0.79638 0.44899 0.0
C1078 C 0.54148 0.7793 0.42316 0.0
C1079 C 0.46948 0.7627 0.48598 0.0
C1080 C 0.5064 0.71609 0.47738 0.0
C1081 C 0.52179 0.72415 0.50248 0.0
C1082 C 0.49953 0.73071 0.46275 0.0
C1083 C 0.50864 0.75399 0.47316 0.0
C1084 C 0.52307 0.76172 0.49957 0.0
C1085 C 0.52928 0.74664 0.51405 0.0
C1086 C 0.48356 0.72163 0.4352 0.0
C1087 C 0.5333 0.78646 0.51137 0.0
H1088 H 0.53561 0.81423 0.40194 0.0
H1089 H 0.47576 0.80125 0.45598 0.0
H1090 H 0.55338 0.78299 0.44302 0.0
H1091 H 0.53395 0.76055 0.41725 0.0
H1092 H 0.552 0.79 0.40336 0.0
H1093 H 0.45479 0.76639 0.48521 0.0
H1094 H 0.46242 0.74368 0.48244 0.0
H1095 H 0.47732 0.7671 0.50927 0.0
H1096 H 0.5003 0.69863 0.46851 0.0
H1097 H 0.54104 0.753 0.53357 0.0
H1098 H 0.4939 0.72923 0.41397 0.0
H1099 H 0.47006 0.72697 0.43625 0.0
H1100 H 0.47471 0.70226 0.43345 0.0
H1101 H 0.54554 0.79889 0.49405 0.0
H1102 H 0.54295 0.78924 0.5333 0.0
H1103 H 0.51927 0.79083 0.51502 0.0
C1104 C 0.37932 0.42262 0.0207 0.0
C1105 C 0.39116 0.43871 0.04435 0.0
C1106 C 0.38369 0.40422 0.01471 0.0
C1107 C 0.40045 0.4021 0.03259 0.0
C1108 C 0.41395 0.41954 0.05451 0.0
C1109 C 0.409 0.43753 0.06029 0.0
C1110 C 0.36906 0.38605 0.99102 0.0
C1111 C 0.43239 0.41822 0.07358 0.0
C1112 C 0.39112 0.34317 0.05717 0.0
C1113 C 0.40776 0.34122 0.0395 0.0
C1114 C 0.38752 0.36221 0.05355 0.0
C1115 C 0.40134 0.38003 0.03221 0.0
C1116 C 0.41741 0.37757 0.01317 0.0
C1117 C 0.4203 0.35799 0.0169 0.0
C1118 C 0.36994 0.36395 0.07401 0.0
C1119 C 0.43274 0.39633 0.99052 0.0
H1120 H 0.36557 0.42347 0.00814 0.0
H1121 H 0.41844 0.45004 0.0783 0.0
H1122 H 0.38012 0.38151 0.97666 0.0
H1123 H 0.35598 0.36983 0.00281 0.0
H1124 H 0.3596 0.39208 0.97581 0.0
H1125 H 0.44344 0.43468 0.08648 0.0
H1126 H 0.4238 0.40368 0.09034 0.0
H1127 H 0.44387 0.41452 0.05883 0.0
H1128 H 0.38151 0.33017 0.0747 0.0
H1129 H 0.43349 0.35665 0.00361 0.0
H1130 H 0.35823 0.36792 0.06017 0.0
H1131 H 0.37926 0.37848 0.09063 0.0
H1132 H 0.35903 0.34758 0.08712 0.0
H1133 H 0.42265 0.40304 0.97801 0.0
H1134 H 0.44079 0.38985 0.97359 0.0
H1135 H 0.44703 0.41125 0.00311 0.0
C1136 C 0.0572 0.39753 0.48871 0.0
C1137 C 0.06179 0.38236 0.506 0.0
C1138 C 0.03462 0.3947 0.48809 0.0
C1139 C 0.01643 0.37618 0.50497 0.0
C1140 C 0.0206 0.35941 0.51958 0.0
C1141 C 0.04333 0.36287 0.52014 0.0
C1142 C 0.03098 0.41294 0.47216 0.0
C1143 C 0.00172 0.33925 0.53758 0.0
C1144 C 0.97235 0.38389 0.55108 0.0
C1145 C 0.95144 0.369 0.53568 0.0
C1146 C 0.99392 0.38785 0.53984 0.0
C1147 C 0.99462 0.3765 0.51258 0.0
C1148 C 0.97382 0.36288 0.49564 0.0
C1149 C 0.9524 0.35924 0.50744 0.0
C1150 C 0.01577 0.40284 0.55842 0.0
C1151 C 0.97397 0.35097 0.46615 0.0
H1152 H 0.07162 0.41286 0.4782 0.0
H1153 H 0.04702 0.35126 0.53365 0.0
H1154 H 0.01314 0.40517 0.46225 0.0
H1155 H 0.03308 0.42645 0.48907 0.0
H1156 H 0.04404 0.42181 0.4536 0.0
H1157 H 0.00689 0.32614 0.54391 0.0
H1158 H -0.00191 0.34599 0.55901 0.0
H1159 H 0.98522 0.33035 0.52421 0.0
H1160 H 0.97187 0.39162 0.57278 0.0
H1161 H 0.93633 0.34787 0.49522 0.0
H1162 H 0.02981 0.41602 0.54353 0.0
H1163 H 0.02232 0.3917 0.56841 0.0
H1164 H 0.01259 0.41212 0.57746 0.0
H1165 H 0.98888 0.36304 0.4514 0.0
H1166 H 0.95743 0.34463 0.45305 0.0
H1167 H 0.97619 0.33574 0.47147 0.0
C1168 C 0.60077 0.97928 0.01485 0.0
C1169 C 0.58287 0.97556 0.03544 0.0
C1170 C 0.62064 0.00157 0.01162 0.0
C1171 C 0.62248 0.02041 0.02932 0.0
C1172 C 0.60327 0.01724 0.04741 0.0
C1173 C 0.58374 0.99481 0.05034 0.0
C1174 C 0.6405 0.00445 0.99145 0.0
C1175 C 0.60422 0.03704 0.06602 0.0
C1176 C 0.67898 0.0638 0.06756 0.0
C1177 C 0.68451 0.08449 0.05206 0.0
C1178 C 0.65975 0.04245 0.05874 0.0
C1179 C 0.64557 0.04185 0.03392 0.0
C1180 C 0.65211 0.06242 0.01669 0.0
C1181 C 0.67165 0.0836 0.02595 0.0
C1182 C 0.65358 0.02091 0.07762 0.0
C1183 C 0.63753 0.06257 0.99007 0.0
H1184 H 0.60011 0.96452 0.00298 0.0
H1185 H 0.56975 0.99222 0.06567 0.0
H1186 H 0.64822 0.02122 0.97866 0.0
H1187 H 0.65449 0.00481 0.00601 0.0
H1188 H 0.63471 0.98983 0.97478 0.0
H1189 H 0.58687 0.03248 0.0757 0.0
H1190 H 0.61673 0.04137 0.0853 0.0
H1191 H 0.61055 0.05299 0.05173 0.0
H1192 H 0.68902 0.06452 0.08768 0.0
H1193 H 0.67578 0.09966 0.0141 0.0
H1194 H 0.65035 0.00607 0.06249 0.0
H1195 H 0.63725 0.01571 0.09067 0.0
H1196 H 0.66759 0.02388 0.09422 0.0
H1197 H 0.63021 0.04608 0.97669 0.0
H1198 H 0.6479 0.07757 0.97445 0.0
H1199 H 0.62266 0.06422 -0.00102 0.0
C1200 C 0.58391 0.56958 0.54136 0.0
C1201 C 0.59934 0.56478 0.525 0.0
C1202 C 0.58155 0.58899 0.53395 0.0
C1203 C 0.59519 0.6041 0.50986 0.0
C1204 C 0.60913 0.59813 0.49149 0.0
C1205 C 0.611 0.57846 0.49925 0.0
C1206 C 0.56587 0.59434 0.5535 0.0
C1207 C 0.62361 0.61354 0.46532 0.0
C1208 C 0.5818 0.65276 0.49366 0.0
C1209 C 0.59716 0.66989 0.51427 0.0
C1210 C 0.58182 0.63157 0.49029 0.0
C1211 C 0.59776 0.62775 0.50768 0.0
C1212 C 0.61465 0.64593 0.52637 0.0
C1213 C 0.61408 0.66675 0.52947 0.0
C1214 C 0.56395 0.61278 0.46964 0.0
C1215 C 0.63208 0.6427 0.54517 0.0
H1216 H 0.57457 0.55891 0.56098 0.0
H1217 H 0.62279 0.57475 0.48626 0.0
H1218 H 0.57677 0.6099 0.56801 0.0
H1219 H 0.55473 0.59857 0.53882 0.0
H1220 H 0.55435 0.5795 0.56875 0.0
H1221 H 0.62948 0.60422 0.4496 0.0
H1222 H 0.61364 0.61995 0.45192 0.0
H1223 H 0.63935 0.62906 0.47469 0.0
H1224 H 0.56859 0.65512 0.48202 0.0
H1225 H 0.62598 0.68005 0.54535 0.0
H1226 H 0.55361 0.59631 0.48271 0.0
H1227 H 0.57298 0.60901 0.45091 0.0
H1228 H 0.55177 0.6179 0.45928 0.0
H1229 H 0.62272 0.6296 0.5635 0.0
H1230 H 0.6454 0.65925 0.55614 0.0
H1231 H 0.64121 0.63596 0.5306 0.0
C1232 C 0.94154 0.61831 0.05291 0.0
C1233 C 0.92151 0.60148 0.03763 0.0
C1234 C 0.96341 0.62041 0.04731 0.0
C1235 C 0.9652 0.60506 0.02616 0.0
C1236 C 0.94525 0.58894 0.00926 0.0
C1237 C 0.92356 0.58744 0.01507 0.0
C1238 C 0.98426 0.63799 0.06567 0.0
C1239 C 0.94652 0.57231 0.98658 0.0
C1240 C 0.02848 0.62382 0.00966 0.0
C1241 C 0.03313 0.61216 0.03318 0.0
C1242 C 0.00582 0.62022 0.00518 0.0
C1243 C 0.98746 0.60452 0.0246 0.0
C1244 C 0.99162 0.59104 0.04633 0.0
C1245 C 0.01445 0.59511 0.05046 0.0
C1246 C 0.00205 0.63472 0.98152 0.0
C1247 C 0.97239 0.57375 0.06711 0.0
H1248 H 0.9399 0.62912 0.07038 0.0
H1249 H 0.90798 0.57417 0.00356 0.0
H1250 H 0.98978 0.62865 0.08183 0.0
H1251 H -0.00075 0.64868 0.05025 0.0
H1252 H 0.98033 0.64993 0.07915 0.0
H1253 H 0.92982 0.56186 0.97392 0.0
H1254 H 0.96077 0.58213 0.96978 0.0
H1255 H 0.95071 0.56012 0.99883 0.0
H1256 H 0.04278 0.63689 0.996 0.0
H1257 H 0.01779 0.58581 0.06843 0.0
H1258 H 0.00119 0.64923 0.9932 0.0
H1259 H 0.98526 0.62409 0.96921 0.0
H1260 H 0.0165 0.64242 0.96446 0.0
H1261 H 0.96793 0.58339 0.08422 0.0
H1262 H 0.97765 0.56244 0.07966 0.0
H1263 H 0.95631 0.56242 0.05376 0.0
C1264 C 0.41273 0.01004 0.55543 0.0
C1265 C 0.41349 0.03008 0.54337 0.0
C1266 C 0.39341 0.98779 0.55029 0.0
C1267 C 0.37428 0.98559 0.53288 0.0
C1268 C 0.3759 0.00551 0.51825 0.0
C1269 C 0.3956 0.0276 0.52359 0.0
C1270 C 0.39265 0.96689 0.56568 0.0
C1271 C 0.35604 0.0038 0.4991 0.0
C1272 C 0.32663 0.92254 0.52059 0.0
C1273 C 0.31315 0.9188 0.5471 0.0
C1274 C 0.34589 0.94474 0.51423 0.0
C1275 C 0.35148 0.96345 0.53481 0.0
C1276 C 0.33665 0.96007 0.56015 0.0
C1277 C 0.31776 0.93774 0.56606 0.0
C1278 C 0.3612 0.94759 0.48696 0.0
C1279 C 0.34178 0.97958 0.58251 0.0
H1280 H 0.42677 0.01176 0.56999 0.0
H1281 H 0.39619 0.04305 0.514 0.0
H1282 H 0.37984 0.96086 0.58484 0.0
H1283 H 0.3868 0.95216 0.54926 0.0
H1284 H 0.40996 0.97105 0.57511 0.0
H1285 H 0.36164 0.01968 0.48482 0.0
H1286 H 0.34883 0.98825 0.48389 0.0
H1287 H 0.34172 0.00175 0.51447 0.0
H1288 H 0.3232 0.90783 0.50602 0.0
H1289 H 0.30722 0.93484 0.58647 0.0
H1290 H 0.37649 0.94622 0.49474 0.0
H1291 H 0.36793 0.96499 0.47607 0.0
H1292 H 0.35164 0.93379 0.46946 0.0
H1293 H 0.35787 0.98397 0.59569 0.0
H1294 H 0.32724 0.97472 0.59905 0.0
H1295 H 0.34498 0.99557 0.57004 0.0
C1296 C 0.61743 0.6782 0.92994 0.0
C1297 C 0.60402 0.68334 0.94998 0.0
C1298 C 0.62231 0.66032 0.93653 0.0
C1299 C 0.6134 0.6471 0.96382 0.0
C1300 C 0.60131 0.65335 0.98529 0.0
C1301 C 0.59677 0.67152 0.97812 0.0
C1302 C 0.6355 0.65447 0.91307 0.0
C1303 C 0.59165 0.63983 0.01471 0.0
C1304 C 0.60058 0.58582 0.94761 0.0
C1305 C 0.62153 0.58706 0.95676 0.0
C1306 C 0.59663 0.60453 0.9527 0.0
C1307 C 0.61418 0.62506 0.96714 0.0
C1308 C 0.63427 0.62544 0.97933 0.0
C1309 C 0.63771 0.60634 0.97404 0.0
C1310 C 0.57465 0.60313 0.93998 0.0
C1311 C 0.65312 0.64681 0.99546 0.0
H1312 H 0.62324 0.6875 0.90831 0.0
H1313 H 0.58629 0.6754 0.99361 0.0
H1314 H 0.64986 0.65305 0.92424 0.0
H1315 H 0.62348 0.63728 0.90243 0.0
H1316 H 0.6431 0.66779 0.89455 0.0
H1317 H 0.58834 0.65022 0.03201 0.0
H1318 H 0.5748 0.62372 0.00982 0.0
H1319 H 0.60374 0.63447 0.02469 0.0
H1320 H 0.58769 0.57068 0.93512 0.0
H1321 H 0.65387 0.60731 0.98141 0.0
H1322 H 0.57912 0.61458 0.91947 0.0
H1323 H 0.56664 0.60943 0.95714 0.0
H1324 H 0.56147 0.58502 0.93313 0.0
H1325 H 0.66376 0.66033 0.97815 0.0
H1326 H 0.66495 0.64273 0.00891 0.0
H1327 H 0.64535 0.6544 0.01106 0.0
C1328 C 0.9226 0.5739 0.49402 0.0
C1329 C 0.9181 0.58865 0.47568 0.0
C1330 C 0.94541 0.57752 0.49656 0.0
C1331 C 0.96391 0.59648 0.48067 0.0
C1332 C 0.95963 0.61273 0.46482 0.0
C1333 C 0.93667 0.6084 0.46217 0.0
C1334 C 0.94916 0.55971 0.51352 0.0
C1335 C 0.97887 0.63338 0.44792 0.0
C1336 C 0.02839 0.61544 0.48465 0.0
C1337 C 0.03124 0.60633 0.45688 0.0
C1338 C 0.00617 0.61102 0.49413 0.0
C1339 C 0.98648 0.59715 0.47541 0.0
C1340 C 0.98906 0.58645 0.44866 0.0
C1341 C 0.0114 0.59129 0.43966 0.0
C1342 C 0.00403 0.62246 0.523 0.0
C1343 C 0.96843 0.57122 0.42823 0.0
H1344 H 0.90808 0.55838 0.50402 0.0
H1345 H 0.93301 0.61967 0.44787 0.0
H1346 H 0.94914 0.547 0.49681 0.0
H1347 H 0.96626 0.56814 0.52556 0.0
H1348 H 0.93501 0.54983 0.53049 0.0
H1349 H 0.97337 0.64605 0.44063 0.0
H1350 H 0.99469 0.64264 0.46253 0.0
H1351 H 0.9838 0.6271 0.42713 0.0
H1352 H 0.04363 0.62698 0.49822 0.0
H1353 H 0.01333 0.58404 0.41832 0.0
H1354 H 0.98852 0.60999 0.53655 0.0
H1355 H 0.00159 0.63741 0.51674 0.0
H1356 H 0.01987 0.62911 0.53768 0.0
H1357 H 0.95371 0.55778 0.44203 0.0
H1358 H 0.97296 0.56224 0.41018 0.0
H1359 H 0.96218 0.58213 0.41682 0.0
C1360 C 0.43444 0.02803 0.95326 0.0
C1361 C 0.43842 0.04801 0.96957 0.0
C1362 C 0.41502 0.00607 0.9598 0.0
C1363 C 0.39908 0.00417 0.98298 0.0
C1364 C 0.4042 0.02381 0.00141 0.0
C1365 C 0.42389 0.04554 0.99453 0.0
C1366 C 0.4105 0.98536 0.94011 0.0
C1367 C 0.38783 0.02245 0.02657 0.0
C1368 C 0.33683 0.96046 0.96107 0.0
C1369 C 0.33305 0.94055 0.97723 0.0
C1370 C 0.35776 0.9817 0.96432 0.0
C1371 C 0.37547 0.98295 0.984 0.0
C1372 C 0.37117 0.96326 0.00186 0.0
C1373 C 0.34983 0.94224 0.99843 0.0
C1374 C 0.36153 0.00232 0.945 0.0
C1375 C 0.38957 0.96405 0.02321 0.0
H1376 H 0.44574 0.02969 0.93422 0.0
H1377 H 0.42694 0.06085 0.00747 0.0
H1378 H 0.40561 0.96973 0.95454 0.0
H1379 H 0.39562 0.98102 0.92441 0.0
H1380 H 0.42598 0.98892 0.92603 0.0
H1381 H 0.39646 0.03753 0.04259 0.0
H1382 H 0.3725 0.02251 0.01618 0.0
H1383 H 0.38121 0.006 0.03987 0.0
H1384 H 0.32383 0.95911 0.94467 0.0
H1385 H 0.34701 0.92674 0.01069 0.0
H1386 H 0.37525 0.00614 0.92756 0.0
H1387 H 0.36772 0.01815 0.9595 0.0
H1388 H 0.34534 -0.00095 0.93291 0.0
H1389 H 0.40578 0.96871 0.01019 0.0
H1390 H 0.38367 0.94708 0.03502 0.0
H1391 H 0.39417 0.97784 0.04078 0.0
C1392 C 0.3716 0.39901 0.49082 0.0
C1393 C 0.38362 0.4134 0.46575 0.0
C1394 C 0.37333 0.37909 0.4976 0.0
C1395 C 0.38741 0.37353 0.47886 0.0
C1396 C 0.40121 0.38917 0.45532 0.0
C1397 C 0.39907 0.40885 0.44899 0.0
C1398 C 0.35871 0.3631 0.52327 0.0
C1399 C 0.41684 0.38416 0.43513 0.0
C1400 C 0.40182 0.32528 0.49233 0.0
C1401 C 0.38686 0.3086 0.47096 0.0
C1402 C 0.40115 0.34602 0.49709 0.0
C1403 C 0.38504 0.3499 0.4802 0.0
C1404 C 0.36848 0.33205 0.46083 0.0
C1405 C 0.36967 0.31165 0.45638 0.0
C1406 C 0.41898 0.36457 0.51803 0.0
C1407 C 0.35087 0.33534 0.44254 0.0
H1408 H 0.35975 0.40248 0.50409 0.0
H1409 H 0.40863 0.41997 0.42982 0.0
H1410 H 0.34315 0.34767 0.51341 0.0
H1411 H 0.36872 0.3566 0.53642 0.0
H1412 H 0.35257 0.372 0.53932 0.0
H1413 H 0.4285 0.39936 0.42047 0.0
H1414 H 0.42784 0.37943 0.44928 0.0
H1415 H 0.40589 0.36904 0.41999 0.0
H1416 H 0.41534 0.32308 0.50336 0.0
H1417 H 0.35812 0.29873 0.43986 0.0
H1418 H 0.41072 0.37224 0.53259 0.0
H1419 H 0.4326 0.37891 0.50396 0.0
H1420 H 0.42767 0.35756 0.53306 0.0
H1421 H 0.34161 0.34167 0.45755 0.0
H1422 H 0.33768 0.31889 0.43122 0.0
H1423 H 0.36009 0.34875 0.42452 0.0
C1424 C 0.08089 0.42779 0.96434 0.0
C1425 C 0.08288 0.41556 0.93926 0.0
C1426 C 0.05917 0.4255 0.97221 0.0
C1427 C 0.03907 0.41027 0.9549 0.0
C1428 C 0.04088 0.39693 0.93067 0.0
C1429 C 0.06282 0.39993 0.92296 0.0
C1430 C 0.05794 0.44021 0.9979 0.0
C1431 C 0.01983 0.38029 0.91184 0.0
C1432 C 0.97619 0.38774 0.97844 0.0
C1433 C 0.96981 0.40011 0.95813 0.0
C1434 C -0.00071 0.39207 0.97951 0.0
C1435 C 0.01638 0.40939 0.96011 0.0
C1436 C 0.01051 0.42351 0.94193 0.0
C1437 C 0.98722 0.41856 0.94096 0.0
C1438 C 0.00485 0.37667 -0.00075 0.0
C1439 C 0.02838 0.4426 0.92152 0.0
H1440 H 0.09649 0.44017 0.97667 0.0
H1441 H 0.06442 0.39052 0.90354 0.0
H1442 H 0.05264 0.45253 0.98857 0.0
H1443 H 0.04446 0.42894 0.01487 0.0
H1444 H 0.07497 0.45049 0.00991 0.0
H1445 H 0.02389 0.36989 0.89547 0.0
H1446 H 0.0054 0.36807 0.92709 0.0
H1447 H 0.0134 0.39032 0.89857 0.0
H1448 H 0.96282 0.37349 0.99187 0.0
H1449 H 0.98251 0.42843 0.92558 0.0
H1450 H 0.02191 0.38712 0.01103 0.0
H1451 H 0.00621 0.36369 0.98448 0.0
H1452 H 0.9911 0.36705 0.01679 0.0
H1453 H 0.04495 0.45351 0.93419 0.0
H1454 H 0.02198 0.45413 0.91243 0.0
H1455 H 0.03245 0.43458 0.90178 0.0
C1456 C 0.56146 0.96186 0.44748 0.0
C1457 C 0.55513 0.941 0.46324 0.0
C1458 C 0.5802 0.98322 0.45755 0.0
C1459 C 0.59298 0.98368 0.48393 0.0
C1460 C 0.58538 0.96308 0.50146 0.0
C1461 C 0.56652 0.94192 0.49088 0.0
C1462 C 0.58749 0.00492 0.43847 0.0
C1463 C 0.59823 0.96301 0.53009 0.0
C1464 C 0.65694 0.02805 0.47404 0.0
C1465 C 0.65866 0.04744 0.48947 0.0
C1466 C 0.63603 0.00658 0.47415 0.0
C1467 C 0.61626 0.0046 0.48976 0.0
C1468 C 0.61844 0.02366 0.50734 0.0
C1469 C 0.63977 0.04494 0.5071 0.0
C1470 C 0.63458 0.98667 0.4553 0.0
C1471 C 0.59782 0.02234 0.52419 0.0
H1472 H 0.55263 0.9614 0.4263 0.0
H1473 H 0.56157 0.92592 0.50342 0.0
H1474 H 0.59042 0.01981 0.4533 0.0
H1475 H 0.60425 0.0099 0.42667 0.0
H1476 H 0.57421 0.00224 0.42081 0.0
H1477 H 0.58786 0.94691 0.54394 0.0
H1478 H 0.61496 0.96399 0.52354 0.0
H1479 H 0.60256 0.97849 0.54457 0.0
H1480 H 0.67156 0.03011 0.46029 0.0
H1481 H 0.64098 0.0601 0.51858 0.0
H1482 H 0.62329 0.98369 0.43495 0.0
H1483 H 0.62654 0.97026 0.46889 0.0
H1484 H 0.65204 0.99027 0.44716 0.0
H1485 H 0.58652 0.02488 0.5076 0.0
H1486 H 0.60348 0.03613 0.54208 0.0
H1487 H 0.58708 0.00497 0.5351 0.0
C1488 C 0.50183 0.64299 0.96513 0.0
C1489 C 0.51172 0.63767 0.94005 0.0
C1490 C 0.48495 0.62518 0.98376 0.0
C1491 C 0.47773 0.60154 0.97701 0.0
C1492 C 0.48656 0.59602 0.95063 0.0
C1493 C 0.50347 0.61414 0.93252 0.0
C1494 C 0.4759 0.63174 0.01169 0.0
C1495 C 0.47915 0.57101 0.94248 0.0
C1496 C 0.45983 0.55722 0.04134 0.0
C1497 C 0.43543 0.54432 0.0379 0.0
C1498 C 0.47367 0.57632 0.02226 0.0
C1499 C 0.46289 0.5827 -0.00096 0.0
C1500 C 0.43824 0.57023 0.99595 0.0
C1501 C 0.42477 0.55121 0.01547 0.0
C1502 C 0.49993 0.58929 0.02642 0.0
C1503 C 0.42616 0.57652 0.97139 0.0
H1504 H 0.50806 0.66111 0.97114 0.0
H1505 H 0.51082 0.60982 0.91302 0.0
H1506 H 0.45655 0.62102 0.01297 0.0
H1507 H 0.48305 0.62811 0.03273 0.0
H1508 H 0.48099 0.65053 0.01167 0.0
H1509 H 0.48577 0.56955 0.9196 0.0
H1510 H 0.48596 0.56368 0.95997 0.0
H1511 H 0.4598 0.56008 0.94255 0.0
H1512 H 0.46825 0.55219 0.05873 0.0
H1513 H 0.40594 0.54138 0.01262 0.0
H1514 H 0.50652 0.60828 0.02928 0.0
H1515 H 0.5084 0.58712 0.00564 0.0
H1516 H 0.50545 0.58294 0.04663 0.0
H1517 H 0.43187 0.59542 0.97253 0.0
H1518 H 0.40679 0.56628 0.97351 0.0
H1519 H 0.43113 0.57316 0.94841 0.0
C1520 C 0.90933 0.44416 0.54734 0.0
C1521 C 0.89711 0.41987 0.54269 0.0
C1522 C 0.90376 0.45888 0.53062 0.0
C1523 C 0.88565 0.44913 0.50846 0.0
C1524 C 0.87293 0.42461 0.50401 0.0
C1525 C 0.87873 0.41024 0.5213 0.0
C1526 C 0.91758 0.48496 0.53626 0.0
C1527 C 0.85364 0.41362 0.4804 0.0
C1528 C 0.86269 0.48888 0.48257 0.0
C1529 C 0.87667 0.49959 0.45669 0.0
C1530 C 0.86471 0.47167 0.49903 0.0
C1531 C 0.88088 0.46486 0.48914 0.0
C1532 C 0.89403 0.47463 0.46204 0.0
C1533 C 0.89187 0.49196 0.44624 0.0
C1534 C 0.85051 0.46176 0.52795 0.0
C1535 C 0.91125 0.4676 0.45052 0.0
H1536 H 0.92342 0.45176 0.56398 0.0
H1537 H 0.86922 0.3915 0.51748 0.0
H1538 H 0.92733 0.49407 0.51519 0.0
H1539 H 0.90557 0.49168 0.54171 0.0
H1540 H 0.93029 0.48964 0.55539 0.0
H1541 H 0.84463 0.39421 0.48083 0.0
H1542 H 0.8405 0.41916 0.48434 0.0
H1543 H 0.86103 0.41972 0.45712 0.0
H1544 H 0.85098 0.49473 0.49089 0.0
H1545 H 0.90261 0.50002 0.42614 0.0
H1546 H 0.86232 0.46797 0.54818 0.0
H1547 H 0.84166 0.44238 0.52783 0.0
H1548 H 0.83708 0.4671 0.53084 0.0
H1549 H 0.92609 0.47377 0.46685 0.0
H1550 H 0.91834 0.47505 0.42752 0.0
H1551 H 0.90283 0.44826 0.4492 0.0
C1552 C 0.39642 0.91627 0.93649 0.0
C1553 C 0.37404 0.89905 0.94613 0.0
C1554 C 0.41662 0.91871 0.95066 0.0
C1555 C 0.41442 0.90368 0.9752 0.0
C1556 C 0.39198 0.88545 0.98391 0.0
C1557 C 0.37206 0.88328 0.96918 0.0
C1558 C 0.44025 0.93826 0.9405 0.0
C1559 C 0.38889 0.86919 0.01016 0.0
C1560 C 0.46844 0.90288 0.00423 0.0
C1561 C 0.47534 0.91874 0.02881 0.0
C1562 C 0.44864 0.89776 0.98649 0.0
C1563 C 0.43531 0.90854 0.99375 0.0
C1564 C 0.44199 0.92429 0.01878 0.0
C1565 C 0.46197 0.92929 0.03586 0.0
C1566 C 0.4422 0.88112 0.95971 0.0
C1567 C 0.42813 0.93604 0.02738 0.0
H1568 H 0.3982 0.9285 0.91863 0.0
H1569 H 0.35489 0.86993 0.97687 0.0
H1570 H 0.44753 0.95204 0.95843 0.0
H1571 H 0.45269 0.93172 0.93747 0.0
H1572 H 0.43919 0.94638 0.91864 0.0
H1573 H 0.37059 0.85451 0.01204 0.0
H1574 H 0.40069 0.86185 0.00734 0.0
H1575 H 0.39369 0.87914 0.03204 0.0
H1576 H 0.47873 0.89473 0.99851 0.0
H1577 H 0.46706 0.94147 0.05489 0.0
H1578 H 0.44262 0.89026 0.93812 0.0
H1579 H 0.42408 0.86633 0.96252 0.0
H1580 H 0.45422 0.87398 0.9573 0.0
H1581 H 0.42842 0.94717 0.00811 0.0
H1582 H 0.43513 0.94715 0.0482 0.0
H1583 H 0.40957 0.92269 0.03159 0.0
C1584 C 0.47361 0.37922 0.43246 0.0
C1585 C 0.46898 0.3569 0.44152 0.0
C1586 C 0.49072 0.39939 0.4474 0.0
C1587 C 0.50337 0.39717 0.47218 0.0
C1588 C 0.49952 0.37479 0.48057 0.0
C1589 C 0.48246 0.35492 0.46502 0.0
C1590 C 0.49448 0.42297 0.43755 0.0
C1591 C 0.51243 0.37168 0.50714 0.0
C1592 C 0.55787 0.45122 0.50144 0.0
C1593 C 0.54877 0.45815 0.52583 0.0
C1594 C 0.54333 0.4314 0.48372 0.0
C1595 C 0.51922 0.41802 0.49087 0.0
C1596 C 0.51004 0.42465 0.51583 0.0
C1597 C 0.52488 0.44472 0.53284 0.0
C1598 C 0.55365 0.42501 0.45701 0.0
C1599 C 0.48444 0.41077 0.52432 0.0
H1600 H 0.46337 0.38094 0.41423 0.0
H1601 H 0.47894 0.33776 0.47233 0.0
H1602 H 0.48799 0.43011 0.45569 0.0
H1603 H 0.51341 0.43552 0.43443 0.0
H1604 H 0.4852 0.42195 0.41581 0.0
H1605 H 0.50881 0.35338 0.50918 0.0
H1606 H 0.53157 0.38345 0.50458 0.0
H1607 H 0.5071 0.37653 0.52886 0.0
H1608 H 0.57629 0.46159 0.49575 0.0
H1609 H 0.51771 0.44987 0.55171 0.0
H1610 H 0.54501 0.42547 0.43536 0.0
H1611 H 0.55038 0.40691 0.45978 0.0
H1612 H 0.5728 0.43705 0.45471 0.0
H1613 H 0.47378 0.41222 0.50567 0.0
H1614 H 0.48051 0.417 0.546 0.0
H1615 H 0.47886 0.39196 0.5269 0.0
C1616 C 0.13826 0.51198 0.94348 0.0
C1617 C 0.12365 0.50102 0.91818 0.0
C1618 C 0.13532 0.52787 0.96172 0.0
C1619 C 0.11749 0.53304 0.95429 0.0
C1620 C 0.10388 0.5234 0.9275 0.0
C1621 C 0.10708 0.50746 0.90981 0.0
C1622 C 0.15016 0.53778 0.99016 0.0
C1623 C 0.08484 0.52865 0.91861 0.0
C1624 C 0.0874 0.54631 0.0189 0.0
C1625 C 0.09753 0.5707 0.01675 0.0
C1626 C 0.09408 0.53398 -0.00097 0.0
C1627 C 0.11123 0.54628 0.97626 0.0
C1628 C 0.12173 0.57089 0.9741 0.0
C1629 C 0.11482 0.58283 0.99446 0.0
C1630 C 0.08254 0.5077 0.00214 0.0
C1631 C 0.13992 0.58451 0.94992 0.0
H1632 H 0.1511 0.50712 0.95017 0.0
H1633 H 0.09583 0.49925 0.89015 0.0
H1634 H 0.15706 0.5569 0.99174 0.0
H1635 H 0.13922 0.52963 0.01082 0.0
H1636 H 0.1651 0.53447 0.99061 0.0
H1637 H 0.07804 0.52233 0.89512 0.0
H1638 H 0.07008 0.51999 0.93505 0.0
H1639 H 0.09139 0.54773 0.91973 0.0
H1640 H 0.07413 0.53677 0.03612 0.0
H1641 H 0.12271 0.60166 0.99254 0.0
H1642 H 0.096 0.50247 0.00532 0.0
H1643 H 0.07281 0.49917 0.9808 0.0
H1644 H 0.07015 0.50087 0.02177 0.0
H1645 H 0.15462 0.58093 0.95166 0.0
H1646 H 0.14701 0.60368 0.95197 0.0
H1647 H 0.13214 0.57881 0.92673 0.0
C1648 C 0.52705 0.09443 0.51641 0.0
C1649 C 0.51927 0.07906 0.54155 0.0
C1650 C 0.54639 0.09782 0.49887 0.0
C1651 C 0.55842 0.08585 0.507 0.0
C1652 C 0.55084 0.07057 0.53258 0.0
C1653 C 0.53129 0.06725 0.54939 0.0
C1654 C 0.55378 0.11398 0.47147 0.0
C1655 C 0.56338 0.05768 0.54219 0.0
C1656 C 0.5962 0.07498 0.4513 0.0
C1657 C 0.6188 0.09177 0.46079 0.0
C1658 C 0.57631 0.07363 0.46506 0.0
C1659 C 0.57909 0.08929 0.48906 0.0
C1660 C 0.6018 0.10697 0.49773 0.0
C1661 C 0.62137 0.10808 0.48338 0.0
C1662 C 0.55236 0.0547 0.45492 0.0
C1663 C 0.60549 0.12383 0.52346 0.0
H1664 H 0.51776 0.1035 0.51006 0.0
H1665 H 0.52549 0.05543 0.56886 0.0
H1666 H 0.57216 0.12823 0.47428 0.0
H1667 H 0.55305 0.1042 0.45038 0.0
H1668 H 0.54252 0.12191 0.46814 0.0
H1669 H 0.55575 0.04706 0.56326 0.0
H1670 H 0.56251 0.04588 0.52345 0.0
H1671 H 0.58215 0.07029 0.54646 0.0
H1672 H 0.59398 0.06234 0.43381 0.0
H1673 H 0.63871 0.12112 0.49095 0.0
H1674 H 0.54076 0.06212 0.45085 0.0
H1675 H 0.54427 0.04139 0.47333 0.0
H1676 H 0.55311 0.0458 0.43364 0.0
H1677 H 0.59469 0.13219 0.51973 0.0
H1678 H 0.6241 0.13776 0.52567 0.0
H1679 H 0.59982 0.11414 0.5455 0.0
C1680 C 0.50614 0.37935 0.02779 0.0
C1681 C 0.49645 0.38312 0.05439 0.0
C1682 C 0.52263 0.39822 0.01016 0.0
C1683 C 0.52975 0.42137 0.01952 0.0
C1684 C 0.52121 0.4253 0.04739 0.0
C1685 C 0.50461 0.40614 0.06443 0.0
C1686 C 0.5313 0.39333 0.98052 0.0
C1687 C 0.52859 0.44974 0.05836 0.0
C1688 C 0.58233 0.47286 0.98217 0.0
C1689 C 0.57151 0.48069 0.96126 0.0
C1690 C 0.56901 0.4534 0.00109 0.0
C1691 C 0.54432 0.44138 0.99886 0.0
C1692 C 0.5333 0.44888 0.97739 0.0
C1693 C 0.54702 0.46846 0.95895 0.0
C1694 C 0.58132 0.44599 0.02389 0.0
C1695 C 0.50697 0.43639 0.97419 0.0
H1696 H 0.49993 0.36165 0.01978 0.0
H1697 H 0.49737 0.40924 0.08507 0.0
H1698 H 0.52396 0.39823 0.96081 0.0
H1699 H 0.55063 0.40406 0.97901 0.0
H1700 H 0.52613 0.37459 0.97818 0.0
H1701 H 0.52241 0.44987 0.08205 0.0
H1702 H 0.54793 0.46085 0.05779 0.0
H1703 H 0.52132 0.45784 0.04278 0.0
H1704 H 0.60123 0.4822 0.98421 0.0
H1705 H 0.53847 0.47425 0.94276 0.0
H1706 H 0.57596 0.42732 0.02041 0.0
H1707 H 0.57617 0.44771 0.04758 0.0
H1708 H 0.60068 0.45664 0.02197 0.0
H1709 H 0.50011 0.41757 0.96928 0.0
H1710 H 0.50119 0.44388 0.95559 0.0
H1711 H 0.49897 0.43749 0.99608 0.0
C1712 C 0.10088 0.56279 0.47336 0.0
C1713 C 0.08493 0.55522 0.44885 0.0
C1714 C 0.10503 0.54694 0.4899 0.0
C1715 C 0.09317 0.52302 0.48146 0.0
C1716 C 0.07749 0.51537 0.4563 0.0
C1717 C 0.07346 0.53153 0.44043 0.0
C1718 C 0.12168 0.55566 0.51681 0.0
C1719 C 0.06475 0.49004 0.44634 0.0
C1720 C 0.11619 0.48292 0.50544 0.0
C1721 C 0.10045 0.4697 0.52884 0.0
C1722 C 0.11446 0.5008 0.49039 0.0
C1723 C 0.09674 0.50578 0.49917 0.0
C1724 C 0.08146 0.49323 0.52364 0.0
C1725 C 0.08341 0.47525 0.53806 0.0
C1726 C 0.13092 0.51364 0.46418 0.0
C1727 C 0.06251 0.49821 0.53388 0.0
H1728 H 0.10973 0.58104 0.48014 0.0
H1729 H 0.06123 0.52554 0.4214 0.0
H1730 H 0.11218 0.54687 0.53816 0.0
H1731 H 0.13569 0.55122 0.51358 0.0
H1732 H 0.12992 0.57489 0.51998 0.0
H1733 H 0.05376 0.48709 0.42564 0.0
H1734 H 0.07751 0.48418 0.44126 0.0
H1735 H 0.05334 0.47887 0.4652 0.0
H1736 H 0.12936 0.47873 0.49802 0.0
H1737 H 0.0712 0.46521 0.55614 0.0
H1738 H 0.13948 0.53282 0.46775 0.0
H1739 H 0.12088 0.5096 0.44242 0.0
H1740 H 0.1447 0.50877 0.46152 0.0
H1741 H 0.07002 0.51717 0.53849 0.0
H1742 H 0.05338 0.48829 0.55488 0.0
H1743 H 0.04938 0.49344 0.5153 0.0
C1744 C 0.64389 0.14152 0.0481 0.0
C1745 C 0.63881 0.12581 0.0725 0.0
C1746 C 0.62594 0.14041 0.02954 0.0
C1747 C 0.60241 0.12335 0.03575 0.0
C1748 C 0.5971 0.1085 0.06156 0.0
C1749 C 0.61536 0.10985 0.07954 0.0
C1750 C 0.6323 0.15646 0.00213 0.0
C1751 C 0.57222 0.09022 0.06916 0.0
C1752 C 0.55155 0.12518 0.99738 0.0
C1753 C 0.54521 0.10804 0.97452 0.0
C1754 C 0.57054 0.13084 0.01708 0.0
C1755 C 0.58356 0.11923 0.01362 0.0
C1756 C 0.57776 0.10254 0.98992 0.0
C1757 C 0.55863 0.09709 0.97076 0.0
C1758 C 0.57613 0.14861 0.04224 0.0
C1759 C 0.59136 0.0899 0.98532 0.0
H1760 H 0.66195 0.15385 0.04241 0.0
H1761 H 0.61125 0.09776 0.09849 0.0
H1762 H 0.62923 0.14616 0.98076 0.0
H1763 H 0.62107 0.16456 0.00107 0.0
H1764 H 0.65092 0.17058 0.00262 0.0
H1765 H 0.57083 0.08197 0.09189 0.0
H1766 H 0.56074 0.09805 0.06913 0.0
H1767 H 0.5655 0.07631 0.05139 0.0
H1768 H 0.54128 0.13371 0.00051 0.0
H1769 H 0.55402 0.08398 0.95301 0.0
H1770 H 0.59491 0.16219 0.0415 0.0
H1771 H 0.57281 0.13988 0.06493 0.0
H1772 H 0.56545 0.15731 0.04047 0.0
H1773 H 0.61031 0.10269 0.98304 0.0
H1774 H 0.58555 0.07852 0.96465 0.0
H1775 H 0.5892 0.07888 0.00568 0.0
C1776 C 0.50231 0.62589 0.52567 0.0
C1777 C 0.51631 0.62492 0.54925 0.0
C1778 C 0.48505 0.6054 0.51144 0.0
C1779 C 0.48149 0.58341 0.52129 0.0
C1780 C 0.49455 0.58223 0.54634 0.0
C1781 C 0.51187 0.603 0.55992 0.0
C1782 C 0.47169 0.60742 0.48457 0.0
C1783 C 0.49114 0.55912 0.55777 0.0
C1784 C 0.42719 0.52833 0.49366 0.0
C1785 C 0.43631 0.52109 0.46962 0.0
C1786 C 0.44168 0.54849 0.51088 0.0
C1787 C 0.46576 0.56189 0.50358 0.0
C1788 C 0.475 0.5548 0.47918 0.0
C1789 C 0.46022 0.53442 0.46267 0.0
C1790 C 0.4313 0.55531 0.53707 0.0
C1791 C 0.50056 0.5687 0.47056 0.0
H1792 H 0.50563 0.64271 0.51714 0.0
H1793 H 0.5225 0.60205 0.57823 0.0
H1794 H 0.47696 0.60209 0.46321 0.0
H1795 H 0.45262 0.59549 0.48759 0.0
H1796 H 0.47497 0.62554 0.48153 0.0
H1797 H 0.50029 0.56097 0.5799 0.0
H1798 H 0.47225 0.54635 0.5608 0.0
H1799 H 0.49809 0.55175 0.54055 0.0
H1800 H 0.40876 0.51805 0.49933 0.0
H1801 H 0.46742 0.52905 0.44407 0.0
H1802 H 0.43403 0.57313 0.53319 0.0
H1803 H 0.44033 0.55585 0.55882 0.0
H1804 H 0.41227 0.54297 0.5399 0.0
H1805 H 0.50559 0.58715 0.46581 0.0
H1806 H 0.50478 0.56147 0.45006 0.0
H1807 H 0.51142 0.56877 0.49004 0.0
C1808 C 0.8895 0.43076 0.99869 0.0
C1809 C 0.90426 0.44092 0.97326 0.0
C1810 C 0.88383 0.44419 0.01818 0.0
C1811 C 0.89295 0.46826 0.01189 0.0
C1812 C 0.90746 0.47848 0.98593 0.0
C1813 C 0.913 0.46473 0.96704 0.0
C1814 C 0.8685 0.43278 0.04583 0.0
C1815 C 0.91745 0.50409 0.97835 0.0
C1816 C 0.86644 0.50347 0.04331 0.0
C1817 C 0.88306 0.51736 0.06549 0.0
C1818 C 0.86873 0.48646 0.02674 0.0
C1819 C 0.88797 0.48314 0.03267 0.0
C1820 C 0.90391 0.49598 0.05643 0.0
C1821 C 0.9013 0.51296 0.07249 0.0
C1822 C 0.85143 0.47319 0.00149 0.0
C1823 C 0.92457 0.49284 0.06363 0.0
H1824 H 0.88273 0.4124 0.00376 0.0
H1825 H 0.9243 0.47273 0.94737 0.0
H1826 H 0.87843 0.4411 0.06712 0.0
H1827 H 0.85316 0.43542 0.0454 0.0
H1828 H 0.86216 0.41371 0.04694 0.0
H1829 H 0.92763 0.50912 0.95662 0.0
H1830 H 0.90316 0.50827 0.9763 0.0
H1831 H 0.9291 0.51499 0.9972 0.0
H1832 H 0.85228 0.50668 0.03768 0.0
H1833 H 0.91418 0.52348 0.08969 0.0
H1834 H 0.8452 0.4542 0.00323 0.0
H1835 H 0.86017 0.47921 0.97887 0.0
H1836 H 0.83605 0.47581 0.00208 0.0
H1837 H 0.91895 0.47399 0.06572 0.0
H1838 H 0.93352 0.50186 0.08521 0.0
H1839 H 0.93742 0.50008 0.04458 0.0
C1840 C 0.443 0.86906 0.4847 0.0
C1841 C 0.45006 0.88619 0.46172 0.0
C1842 C 0.42418 0.86429 0.50427 0.0
C1843 C 0.41206 0.87678 0.5005 0.0
C1844 C 0.41853 0.89342 0.47659 0.0
C1845 C 0.43749 0.89799 0.4576 0.0
C1846 C 0.41785 0.84654 0.52965 0.0
C1847 C 0.40583 0.90691 0.47158 0.0
C1848 C 0.35203 0.85673 0.53448 0.0
C1849 C 0.35755 0.87254 0.5589 0.0
C1850 C 0.36969 0.85711 0.51606 0.0
C1851 C 0.39339 0.87355 0.52239 0.0
C1852 C 0.39911 0.88857 0.5481 0.0
C1853 C 0.38113 0.88794 0.56597 0.0
C1854 C 0.36289 0.84089 0.48877 0.0
C1855 C 0.42421 0.90618 0.55579 0.0
H1856 H 0.45266 0.85992 0.4881 0.0
H1857 H 0.44268 0.91109 0.43973 0.0
H1858 H 0.42152 0.85548 0.55224 0.0
H1859 H 0.39887 0.83357 0.52897 0.0
H1860 H 0.42782 0.8371 0.5281 0.0
H1861 H 0.41214 0.91821 0.45085 0.0
H1862 H 0.38676 0.89467 0.46914 0.0
H1863 H 0.40831 0.91814 0.49182 0.0
H1864 H 0.33388 0.84475 0.52881 0.0
H1865 H 0.38559 0.9001 0.58492 0.0
H1866 H 0.37339 0.83199 0.48814 0.0
H1867 H 0.36662 0.8512 0.46729 0.0
H1868 H 0.34403 0.8274 0.48903 0.0
H1869 H 0.43503 0.89762 0.55629 0.0
H1870 H 0.42583 0.9148 0.5783 0.0
H1871 H 0.43154 0.91989 0.53777 0.0
loop_
_geom_bond_atom_site_label_1
_geom_bond_atom_site_label_2
_geom_bond_distance
_geom_bond_site_symmetry_2
_ccdc_geom_bond_type
Mg0 O1 2.028 . S
Mg0 O7 1.986 . S
Mg0 O9 2.114 . S
Mg0 O10 2.251 . S
Mg0 O13 2.010 . S
O1 Mg0 2.028 . S
O1 C4 1.250 . S
O2 Mg3 2.028 . S
O2 C4 1.248 . S
Mg3 O2 2.028 . S
Mg3 O8 2.032 . S
Mg3 O10 2.079 . S
C4 O1 1.250 . S
C4 O2 1.248 . S
C5 O6 1.264 . S
C5 O13 1.249 . S
O6 C5 1.264 . S
O7 Mg0 1.986 . S
O7 C11 1.246 . S
O8 Mg3 2.032 . S
O8 C11 1.259 . S
O9 Mg0 2.114 . S
O9 C12 1.252 . S
O10 Mg0 2.251 . S
O10 Mg3 2.079 . S
O10 C12 1.273 . S
C11 O7 1.246 . S
C11 O8 1.259 . S
C12 O9 1.252 . S
C12 O10 1.273 . S
O13 Mg0 2.010 . S
O13 C5 1.249 . S
Mg14 O15 2.028 . S
Mg14 O21 1.986 . S
Mg14 O23 2.114 . S
Mg14 O24 2.251 . S
Mg14 O27 2.010 . S
O15 Mg14 2.028 . S
O15 C18 1.250 . S
O16 Mg17 2.028 . S
O16 C18 1.248 . S
Mg17 O16 2.028 . S
Mg17 O22 2.032 . S
Mg17 O24 2.079 . S
C18 O15 1.250 . S
C18 O16 1.248 . S
C19 O20 1.264 . S
C19 O27 1.249 . S
O20 C19 1.264 . S
O21 Mg14 1.986 . S
O21 C25 1.246 . S
O22 Mg17 2.032 . S
O22 C25 1.259 . S
O23 Mg14 2.114 . S
O23 C26 1.252 . S
O24 Mg14 2.251 . S
O24 Mg17 2.079 . S
O24 C26 1.273 . S
C25 O21 1.246 . S
C25 O22 1.259 . S
C26 O23 1.252 . S
C26 O24 1.273 . S
O27 Mg14 2.010 . S
O27 C19 1.249 . S
Mg28 O29 2.028 . S
Mg28 O35 1.986 . S
Mg28 O37 2.114 . S
Mg28 O38 2.251 . S
Mg28 O41 2.010 . S
O29 Mg28 2.028 . S
O29 C32 1.250 . S
O30 Mg31 2.028 . S
O30 C32 1.248 . S
Mg31 O30 2.028 . S
Mg31 O36 2.032 . S
Mg31 O38 2.079 . S
C32 O29 1.250 . S
C32 O30 1.248 . S
C33 O34 1.264 . S
C33 O41 1.249 . S
O34 C33 1.264 . S
O35 Mg28 1.986 . S
O35 C39 1.246 . S
O36 Mg31 2.032 . S
O36 C39 1.259 . S
O37 Mg28 2.114 . S
O37 C40 1.252 . S
O38 Mg28 2.251 . S
O38 Mg31 2.079 . S
O38 C40 1.273 . S
C39 O35 1.246 . S
C39 O36 1.259 . S
C40 O37 1.252 . S
C40 O38 1.273 . S
O41 Mg28 2.010 . S
O41 C33 1.249 . S
Mg42 O43 2.028 . S
Mg42 O49 1.986 . S
Mg42 O51 2.114 . S
Mg42 O52 2.251 . S
Mg42 O55 2.010 . S
O43 Mg42 2.028 . S
O43 C46 1.250 . S
O44 Mg45 2.028 . S
O44 C46 1.248 . S
Mg45 O44 2.028 . S
Mg45 O50 2.032 . S
Mg45 O52 2.079 . S
C46 O43 1.250 . S
C46 O44 1.248 . S
C47 O48 1.264 . S
C47 O55 1.249 . S
O48 C47 1.264 . S
O49 Mg42 1.986 . S
O49 C53 1.246 . S
O50 Mg45 2.032 . S
O50 C53 1.259 . S
O51 Mg42 2.114 . S
O51 C54 1.252 . S
O52 Mg42 2.251 . S
O52 Mg45 2.079 . S
O52 C54 1.273 . S
C53 O49 1.246 . S
C53 O50 1.259 . S
C54 O51 1.252 . S
C54 O52 1.273 . S
O55 Mg42 2.010 . S
O55 C47 1.249 . S
Mg56 O57 2.028 . S
Mg56 O63 1.986 . S
Mg56 O65 2.114 . S
Mg56 O66 2.251 . S
Mg56 O69 2.010 . S
O57 Mg56 2.028 . S
O57 C60 1.250 . S
O58 Mg59 2.028 . S
O58 C60 1.248 . S
Mg59 O58 2.028 . S
Mg59 O64 2.032 . S
Mg59 O66 2.079 . S
C60 O57 1.250 . S
C60 O58 1.248 . S
C61 O62 1.264 . S
C61 O69 1.249 . S
O62 C61 1.264 . S
O63 Mg56 1.986 . S
O63 C67 1.246 . S
O64 Mg59 2.032 . S
O64 C67 1.259 . S
O65 Mg56 2.114 . S
O65 C68 1.252 . S
O66 Mg56 2.251 . S
O66 Mg59 2.079 . S
O66 C68 1.273 . S
C67 O63 1.246 . S
C67 O64 1.259 . S
C68 O65 1.252 . S
C68 O66 1.273 . S
O69 Mg56 2.010 . S
O69 C61 1.249 . S
Mg70 O71 2.028 . S
Mg70 O77 1.986 . S
Mg70 O79 2.114 . S
Mg70 O80 2.251 . S
Mg70 O83 2.010 . S
O71 Mg70 2.028 . S
O71 C74 1.250 . S
O72 Mg73 2.028 . S
O72 C74 1.248 . S
Mg73 O72 2.028 . S
Mg73 O78 2.032 . S
Mg73 O80 2.079 . S
C74 O71 1.250 . S
C74 O72 1.248 . S
C75 O76 1.264 . S
C75 O83 1.249 . S
O76 C75 1.264 . S
O77 Mg70 1.986 . S
O77 C81 1.246 . S
O78 Mg73 2.032 . S
O78 C81 1.259 . S
O79 Mg70 2.114 . S
O79 C82 1.252 . S
O80 Mg70 2.251 . S
O80 Mg73 2.079 . S
O80 C82 1.273 . S
C81 O77 1.246 . S
C81 O78 1.259 . S
C82 O79 1.252 . S
C82 O80 1.273 . S
O83 Mg70 2.010 . S
O83 C75 1.249 . S
Mg84 O85 2.028 . S
Mg84 O91 1.986 . S
Mg84 O93 2.114 . S
Mg84 O94 2.251 . S
Mg84 O97 2.010 . S
O85 Mg84 2.028 . S
O85 C88 1.250 . S
O86 Mg87 2.028 . S
O86 C88 1.248 . S
Mg87 O86 2.028 . S
Mg87 O92 2.032 . S
Mg87 O94 2.079 . S
C88 O85 1.250 . S
C88 O86 1.248 . S
C89 O90 1.264 . S
C89 O97 1.249 . S
O90 C89 1.264 . S
O91 Mg84 1.986 . S
O91 C95 1.246 . S
O92 Mg87 2.032 . S
O92 C95 1.259 . S
O93 Mg84 2.114 . S
O93 C96 1.252 . S
O94 Mg84 2.251 . S
O94 Mg87 2.079 . S
O94 C96 1.273 . S
C95 O91 1.246 . S
C95 O92 1.259 . S
C96 O93 1.252 . S
C96 O94 1.273 . S
O97 Mg84 2.010 . S
O97 C89 1.249 . S
Mg98 O99 2.028 . S
Mg98 O105 1.986 . S
Mg98 O107 2.114 . S
Mg98 O108 2.251 . S
Mg98 O111 2.010 . S
O99 Mg98 2.028 . S
O99 C102 1.250 . S
O100 Mg101 2.028 . S
O100 C102 1.248 . S
Mg101 O100 2.028 . S
Mg101 O106 2.032 . S
Mg101 O108 2.079 . S
C102 O99 1.250 . S
C102 O100 1.248 . S
C103 O104 1.264 . S
C103 O111 1.249 . S
O104 C103 1.264 . S
O105 Mg98 1.986 . S
O105 C109 1.246 . S
O106 Mg101 2.032 . S
O106 C109 1.259 . S
O107 Mg98 2.114 . S
O107 C110 1.252 . S
O108 Mg98 2.251 . S
O108 Mg101 2.079 . S
O108 C110 1.273 . S
C109 O105 1.246 . S
C109 O106 1.259 . S
C110 O107 1.252 . S
C110 O108 1.273 . S
O111 Mg98 2.010 . S
O111 C103 1.249 . S
Mg112 O113 2.028 . S
Mg112 O119 1.986 . S
Mg112 O121 2.114 . S
Mg112 O122 2.251 . S
Mg112 O125 2.010 . S
O113 Mg112 2.028 . S
O113 C116 1.250 . S
O114 Mg115 2.028 . S
O114 C116 1.248 . S
Mg115 O114 2.028 . S
Mg115 O120 2.032 . S
Mg115 O122 2.079 . S
C116 O113 1.250 . S
C116 O114 1.248 . S
C117 O118 1.264 . S
C117 O125 1.249 . S
O118 C117 1.264 . S
O119 Mg112 1.986 . S
O119 C123 1.246 . S
O120 Mg115 2.032 . S
O120 C123 1.259 . S
O121 Mg112 2.114 . S
O121 C124 1.252 . S
O122 Mg112 2.251 . S
O122 Mg115 2.079 . S
O122 C124 1.273 . S
C123 O119 1.246 . S
C123 O120 1.259 . S
C124 O121 1.252 . S
C124 O122 1.273 . S
O125 Mg112 2.010 . S
O125 C117 1.249 . S
Mg126 O127 2.028 . S
Mg126 O133 1.986 . S
Mg126 O135 2.114 . S
Mg126 O136 2.251 . S
Mg126 O139 2.010 . S
O127 Mg126 2.028 . S
O127 C130 1.250 . S
O128 Mg129 2.028 . S
O128 C130 1.248 . S
Mg129 O128 2.028 . S
Mg129 O134 2.032 . S
Mg129 O136 2.079 . S
C130 O127 1.250 . S
C130 O128 1.248 . S
C131 O132 1.264 . S
C131 O139 1.249 . S
O132 C131 1.264 . S
O133 Mg126 1.986 . S
O133 C137 1.246 . S
O134 Mg129 2.032 . S
O134 C137 1.259 . S
O135 Mg126 2.114 . S
O135 C138 1.252 . S
O136 Mg126 2.251 . S
O136 Mg129 2.079 . S
O136 C138 1.273 . S
C137 O133 1.246 . S
C137 O134 1.259 . S
C138 O135 1.252 . S
C138 O136 1.273 . S
O139 Mg126 2.010 . S
O139 C131 1.249 . S
Mg140 O141 2.028 . S
Mg140 O147 1.986 . S
Mg140 O149 2.114 . S
Mg140 O150 2.251 . S
Mg140 O153 2.010 . S
O141 Mg140 2.028 . S
O141 C144 1.250 . S
O142 Mg143 2.028 . S
O142 C144 1.248 . S
Mg143 O142 2.028 . S
Mg143 O148 2.032 . S
Mg143 O150 2.079 . S
C144 O141 1.250 . S
C144 O142 1.248 . S
C145 O146 1.264 . S
C145 O153 1.249 . S
O146 C145 1.264 . S
O147 Mg140 1.986 . S
O147 C151 1.246 . S
O148 Mg143 2.032 . S
O148 C151 1.259 . S
O149 Mg140 2.114 . S
O149 C152 1.252 . S
O150 Mg140 2.251 . S
O150 Mg143 2.079 . S
O150 C152 1.273 . S
C151 O147 1.246 . S
C151 O148 1.259 . S
C152 O149 1.252 . S
C152 O150 1.273 . S
O153 Mg140 2.010 . S
O153 C145 1.249 . S
Mg154 O155 2.028 . S
Mg154 O161 1.986 . S
Mg154 O163 2.114 . S
Mg154 O164 2.251 . S
Mg154 O167 2.010 . S
O155 Mg154 2.028 . S
O155 C158 1.250 . S
O156 Mg157 2.028 . S
O156 C158 1.248 . S
Mg157 O156 2.028 . S
Mg157 O162 2.032 . S
Mg157 O164 2.079 . S
C158 O155 1.250 . S
C158 O156 1.248 . S
C159 O160 1.264 . S
C159 O167 1.249 . S
O160 C159 1.264 . S
O161 Mg154 1.986 . S
O161 C165 1.246 . S
O162 Mg157 2.032 . S
O162 C165 1.259 . S
O163 Mg154 2.114 . S
O163 C166 1.252 . S
O164 Mg154 2.251 . S
O164 Mg157 2.079 . S
O164 C166 1.273 . S
C165 O161 1.246 . S
C165 O162 1.259 . S
C166 O163 1.252 . S
C166 O164 1.273 . S
O167 Mg154 2.010 . S
O167 C159 1.249 . S
Mg168 O169 2.028 . S
Mg168 O175 1.986 . S
Mg168 O177 2.114 . S
Mg168 O178 2.251 . S
Mg168 O181 2.010 . S
O169 Mg168 2.028 . S
O169 C172 1.250 . S
O170 Mg171 2.028 . S
O170 C172 1.248 . S
Mg171 O170 2.028 . S
Mg171 O176 2.032 . S
Mg171 O178 2.079 . S
C172 O169 1.250 . S
C172 O170 1.248 . S
C173 O174 1.264 . S
C173 O181 1.249 . S
O174 C173 1.264 . S
O175 Mg168 1.986 . S
O175 C179 1.246 . S
O176 Mg171 2.032 . S
O176 C179 1.259 . S
O177 Mg168 2.114 . S
O177 C180 1.252 . S
O178 Mg168 2.251 . S
O178 Mg171 2.079 . S
O178 C180 1.273 . S
C179 O175 1.246 . S
C179 O176 1.259 . S
C180 O177 1.252 . S
C180 O178 1.273 . S
O181 Mg168 2.010 . S
O181 C173 1.249 . S
Mg182 O183 2.028 . S
Mg182 O189 1.986 . S
Mg182 O191 2.114 . S
Mg182 O192 2.251 . S
Mg182 O195 2.010 . S
O183 Mg182 2.028 . S
O183 C186 1.250 . S
O184 Mg185 2.028 . S
O184 C186 1.248 . S
Mg185 O184 2.028 . S
Mg185 O190 2.032 . S
Mg185 O192 2.079 . S
C186 O183 1.250 . S
C186 O184 1.248 . S
C187 O188 1.264 . S
C187 O195 1.249 . S
O188 C187 1.264 . S
O189 Mg182 1.986 . S
O189 C193 1.246 . S
O190 Mg185 2.032 . S
O190 C193 1.259 . S
O191 Mg182 2.114 . S
O191 C194 1.252 . S
O192 Mg182 2.251 . S
O192 Mg185 2.079 . S
O192 C194 1.273 . S
C193 O189 1.246 . S
C193 O190 1.259 . S
C194 O191 1.252 . S
C194 O192 1.273 . S
O195 Mg182 2.010 . S
O195 C187 1.249 . S
Mg196 O197 2.028 . S
Mg196 O203 1.986 . S
Mg196 O205 2.114 . S
Mg196 O206 2.251 . S
Mg196 O209 2.010 . S
O197 Mg196 2.028 . S
O197 C200 1.250 . S
O198 Mg199 2.028 . S
O198 C200 1.248 . S
Mg199 O198 2.028 . S
Mg199 O204 2.032 . S
Mg199 O206 2.079 . S
C200 O197 1.250 . S
C200 O198 1.248 . S
C201 O202 1.264 . S
C201 O209 1.249 . S
O202 C201 1.264 . S
O203 Mg196 1.986 . S
O203 C207 1.246 . S
O204 Mg199 2.032 . S
O204 C207 1.259 . S
O205 Mg196 2.114 . S
O205 C208 1.252 . S
O206 Mg196 2.251 . S
O206 Mg199 2.079 . S
O206 C208 1.273 . S
C207 O203 1.246 . S
C207 O204 1.259 . S
C208 O205 1.252 . S
C208 O206 1.273 . S
O209 Mg196 2.010 . S
O209 C201 1.249 . S
Mg210 O211 2.028 . S
Mg210 O217 1.986 . S
Mg210 O219 2.114 . S
Mg210 O220 2.251 . S
Mg210 O223 2.010 . S
O211 Mg210 2.028 . S
O211 C214 1.250 . S
O212 Mg213 2.028 . S
O212 C214 1.248 . S
Mg213 O212 2.028 . S
Mg213 O218 2.032 . S
Mg213 O220 2.079 . S
C214 O211 1.250 . S
C214 O212 1.248 . S
C215 O216 1.264 . S
C215 O223 1.249 . S
O216 C215 1.264 . S
O217 Mg210 1.986 . S
O217 C221 1.246 . S
O218 Mg213 2.032 . S
O218 C221 1.259 . S
O219 Mg210 2.114 . S
O219 C222 1.252 . S
O220 Mg210 2.251 . S
O220 Mg213 2.079 . S
O220 C222 1.273 . S
C221 O217 1.246 . S
C221 O218 1.259 . S
C222 O219 1.252 . S
C222 O220 1.273 . S
O223 Mg210 2.010 . S
O223 C215 1.249 . S
Mg224 O225 2.028 . S
Mg224 O231 1.986 . S
Mg224 O233 2.114 . S
Mg224 O234 2.251 . S
Mg224 O237 2.010 . S
O225 Mg224 2.028 . S
O225 C228 1.250 . S
O226 Mg227 2.028 . S
O226 C228 1.248 . S
Mg227 O226 2.028 . S
Mg227 O232 2.032 . S
Mg227 O234 2.079 . S
C228 O225 1.250 . S
C228 O226 1.248 . S
C229 O230 1.264 . S
C229 O237 1.249 . S
O230 C229 1.264 . S
O231 Mg224 1.986 . S
O231 C235 1.246 . S
O232 Mg227 2.032 . S
O232 C235 1.259 . S
O233 Mg224 2.114 . S
O233 C236 1.252 . S
O234 Mg224 2.251 . S
O234 Mg227 2.079 . S
O234 C236 1.273 . S
C235 O231 1.246 . S
C235 O232 1.259 . S
C236 O233 1.252 . S
C236 O234 1.273 . S
O237 Mg224 2.010 . S
O237 C229 1.249 . S
Mg238 O239 2.028 . S
Mg238 O245 1.986 . S
Mg238 O247 2.114 . S
Mg238 O248 2.251 . S
Mg238 O251 2.010 . S
O239 Mg238 2.028 . S
O239 C242 1.250 . S
O240 Mg241 2.028 . S
O240 C242 1.248 . S
Mg241 O240 2.028 . S
Mg241 O246 2.032 . S
Mg241 O248 2.079 . S
C242 O239 1.250 . S
C242 O240 1.248 . S
C243 O244 1.264 . S
C243 O251 1.249 . S
O244 C243 1.264 . S
O245 Mg238 1.986 . S
O245 C249 1.246 . S
O246 Mg241 2.032 . S
O246 C249 1.259 . S
O247 Mg238 2.114 . S
O247 C250 1.252 . S
O248 Mg238 2.251 . S
O248 Mg241 2.079 . S
O248 C250 1.273 . S
C249 O245 1.246 . S
C249 O246 1.259 . S
C250 O247 1.252 . S
C250 O248 1.273 . S
O251 Mg238 2.010 . S
O251 C243 1.249 . S
Mg252 O253 2.028 . S
Mg252 O259 1.986 . S
Mg252 O261 2.114 . S
Mg252 O262 2.251 . S
Mg252 O265 2.010 . S
O253 Mg252 2.028 . S
O253 C256 1.250 . S
O254 Mg255 2.028 . S
O254 C256 1.248 . S
Mg255 O254 2.028 . S
Mg255 O260 2.032 . S
Mg255 O262 2.079 . S
C256 O253 1.250 . S
C256 O254 1.248 . S
C257 O258 1.264 . S
C257 O265 1.249 . S
O258 C257 1.264 . S
O259 Mg252 1.986 . S
O259 C263 1.246 . S
O260 Mg255 2.032 . S
O260 C263 1.259 . S
O261 Mg252 2.114 . S
O261 C264 1.252 . S
O262 Mg252 2.251 . S
O262 Mg255 2.079 . S
O262 C264 1.273 . S
C263 O259 1.246 . S
C263 O260 1.259 . S
C264 O261 1.252 . S
C264 O262 1.273 . S
O265 Mg252 2.010 . S
O265 C257 1.249 . S
Mg266 O267 2.028 . S
Mg266 O273 1.986 . S
Mg266 O275 2.114 . S
Mg266 O276 2.251 . S
Mg266 O279 2.010 . S
O267 Mg266 2.028 . S
O267 C270 1.250 . S
O268 Mg269 2.028 . S
O268 C270 1.248 . S
Mg269 O268 2.028 . S
Mg269 O274 2.032 . S
Mg269 O276 2.079 . S
C270 O267 1.250 . S
C270 O268 1.248 . S
C271 O272 1.264 . S
C271 O279 1.249 . S
O272 C271 1.264 . S
O273 Mg266 1.986 . S
O273 C277 1.246 . S
O274 Mg269 2.032 . S
O274 C277 1.259 . S
O275 Mg266 2.114 . S
O275 C278 1.252 . S
O276 Mg266 2.251 . S
O276 Mg269 2.079 . S
O276 C278 1.273 . S
C277 O273 1.246 . S
C277 O274 1.259 . S
C278 O275 1.252 . S
C278 O276 1.273 . S
O279 Mg266 2.010 . S
O279 C271 1.249 . S
Mg280 O281 2.028 . S
Mg280 O287 1.986 . S
Mg280 O289 2.114 . S
Mg280 O290 2.251 . S
Mg280 O293 2.010 . S
O281 Mg280 2.028 . S
O281 C284 1.250 . S
O282 Mg283 2.028 . S
O282 C284 1.248 . S
Mg283 O282 2.028 . S
Mg283 O288 2.032 . S
Mg283 O290 2.079 . S
C284 O281 1.250 . S
C284 O282 1.248 . S
C285 O286 1.264 . S
C285 O293 1.249 . S
O286 C285 1.264 . S
O287 Mg280 1.986 . S
O287 C291 1.246 . S
O288 Mg283 2.032 . S
O288 C291 1.259 . S
O289 Mg280 2.114 . S
O289 C292 1.252 . S
O290 Mg280 2.251 . S
O290 Mg283 2.079 . S
O290 C292 1.273 . S
C291 O287 1.246 . S
C291 O288 1.259 . S
C292 O289 1.252 . S
C292 O290 1.273 . S
O293 Mg280 2.010 . S
O293 C285 1.249 . S
Mg294 O295 2.028 . S
Mg294 O301 1.986 . S
Mg294 O303 2.114 . S
Mg294 O304 2.251 . S
Mg294 O307 2.010 . S
O295 Mg294 2.028 . S
O295 C298 1.250 . S
O296 Mg297 2.028 . S
O296 C298 1.248 . S
Mg297 O296 2.028 . S
Mg297 O302 2.032 . S
Mg297 O304 2.079 . S
C298 O295 1.250 . S
C298 O296 1.248 . S
C299 O300 1.264 . S
C299 O307 1.249 . S
O300 C299 1.264 . S
O301 Mg294 1.986 . S
O301 C305 1.246 . S
O302 Mg297 2.032 . S
O302 C305 1.259 . S
O303 Mg294 2.114 . S
O303 C306 1.252 . S
O304 Mg294 2.251 . S
O304 Mg297 2.079 . S
O304 C306 1.273 . S
C305 O301 1.246 . S
C305 O302 1.259 . S
C306 O303 1.252 . S
C306 O304 1.273 . S
O307 Mg294 2.010 . S
O307 C299 1.249 . S
Mg308 O309 2.028 . S
Mg308 O315 1.986 . S
Mg308 O317 2.114 . S
Mg308 O318 2.251 . S
Mg308 O321 2.010 . S
O309 Mg308 2.028 . S
O309 C312 1.250 . S
O310 Mg311 2.028 . S
O310 C312 1.248 . S
Mg311 O310 2.028 . S
Mg311 O316 2.032 . S
Mg311 O318 2.079 . S
C312 O309 1.250 . S
C312 O310 1.248 . S
C313 O314 1.264 . S
C313 O321 1.249 . S
O314 C313 1.264 . S
O315 Mg308 1.986 . S
O315 C319 1.246 . S
O316 Mg311 2.032 . S
O316 C319 1.259 . S
O317 Mg308 2.114 . S
O317 C320 1.252 . S
O318 Mg308 2.251 . S
O318 Mg311 2.079 . S
O318 C320 1.273 . S
C319 O315 1.246 . S
C319 O316 1.259 . S
C320 O317 1.252 . S
C320 O318 1.273 . S
O321 Mg308 2.010 . S
O321 C313 1.249 . S
Mg322 O323 2.028 . S
Mg322 O329 1.986 . S
Mg322 O331 2.114 . S
Mg322 O332 2.251 . S
Mg322 O335 2.010 . S
O323 Mg322 2.028 . S
O323 C326 1.250 . S
O324 Mg325 2.028 . S
O324 C326 1.248 . S
Mg325 O324 2.028 . S
Mg325 O330 2.032 . S
Mg325 O332 2.079 . S
C326 O323 1.250 . S
C326 O324 1.248 . S
C327 O328 1.264 . S
C327 O335 1.249 . S
O328 C327 1.264 . S
O329 Mg322 1.986 . S
O329 C333 1.246 . S
O330 Mg325 2.032 . S
O330 C333 1.259 . S
O331 Mg322 2.114 . S
O331 C334 1.252 . S
O332 Mg322 2.251 . S
O332 Mg325 2.079 . S
O332 C334 1.273 . S
C333 O329 1.246 . S
C333 O330 1.259 . S
C334 O331 1.252 . S
C334 O332 1.273 . S
O335 Mg322 2.010 . S
O335 C327 1.249 . S
C336 C337 1.391 . S
C336 C338 1.394 . S
C336 H352 0.931 . S
C337 C336 1.391 . S
C337 C341 1.376 . S
C338 C336 1.394 . S
C338 C339 1.369 . S
C338 C342 1.531 . S
C339 C338 1.369 . S
C339 C340 1.410 . S
C339 C347 1.503 . S
C340 C339 1.410 . S
C340 C341 1.392 . S
C340 C343 1.511 . S
C341 C337 1.376 . S
C341 C340 1.392 . S
C341 H353 0.929 . S
C342 C338 1.531 . S
C342 H354 0.960 . S
C342 H355 0.962 . S
C342 H356 0.960 . S
C343 C340 1.511 . S
C343 H357 0.961 . S
C343 H358 0.961 . S
C343 H359 0.961 . S
C344 C345 1.370 . S
C344 C346 1.363 . S
C344 H360 0.931 . S
C345 C344 1.370 . S
C345 C349 1.408 . S
C346 C344 1.363 . S
C346 C347 1.370 . S
C346 C350 1.524 . S
C347 C339 1.503 . S
C347 C346 1.370 . S
C347 C348 1.403 . S
C348 C347 1.403 . S
C348 C349 1.404 . S
C348 C351 1.539 . S
C349 C345 1.408 . S
C349 C348 1.404 . S
C349 H361 0.930 . S
C350 C346 1.524 . S
C350 H362 0.956 . S
C350 H363 0.961 . S
C350 H364 0.961 . S
C351 C348 1.539 . S
C351 H365 0.958 . S
C351 H366 0.961 . S
C351 H367 0.960 . S
H352 C336 0.931 . S
H353 C341 0.929 . S
H354 C342 0.960 . S
H355 C342 0.962 . S
H356 C342 0.960 . S
H357 C343 0.961 . S
H358 C343 0.961 . S
H359 C343 0.961 . S
H360 C344 0.931 . S
H361 C349 0.930 . S
H362 C350 0.956 . S
H363 C350 0.961 . S
H364 C350 0.961 . S
H365 C351 0.958 . S
H366 C351 0.961 . S
H367 C351 0.960 . S
C368 C369 1.391 . S
C368 C370 1.394 . S
C368 H384 0.931 . S
C369 C368 1.391 . S
C369 C373 1.376 . S
C370 C368 1.394 . S
C370 C371 1.369 . S
C370 C374 1.531 . S
C371 C370 1.369 . S
C371 C372 1.410 . S
C371 C379 1.503 . S
C372 C371 1.410 . S
C372 C373 1.392 . S
C372 C375 1.511 . S
C373 C369 1.376 . S
C373 C372 1.392 . S
C373 H385 0.929 . S
C374 C370 1.531 . S
C374 H386 0.960 . S
C374 H387 0.962 . S
C374 H388 0.960 . S
C375 C372 1.511 . S
C375 H389 0.961 . S
C375 H390 0.961 . S
C375 H391 0.961 . S
C376 C377 1.370 . S
C376 C378 1.363 . S
C376 H392 0.931 . S
C377 C376 1.370 . S
C377 C381 1.408 . S
C378 C376 1.363 . S
C378 C379 1.370 . S
C378 C382 1.524 . S
C379 C371 1.503 . S
C379 C378 1.370 . S
C379 C380 1.403 . S
C380 C379 1.403 . S
C380 C381 1.404 . S
C380 C383 1.539 . S
C381 C377 1.408 . S
C381 C380 1.404 . S
C381 H393 0.930 . S
C382 C378 1.524 . S
C382 H394 0.956 . S
C382 H395 0.961 . S
C382 H396 0.961 . S
C383 C380 1.539 . S
C383 H397 0.958 . S
C383 H398 0.961 . S
C383 H399 0.960 . S
H384 C368 0.931 . S
H385 C373 0.929 . S
H386 C374 0.960 . S
H387 C374 0.962 . S
H388 C374 0.960 . S
H389 C375 0.961 . S
H390 C375 0.961 . S
H391 C375 0.961 . S
H392 C376 0.931 . S
H393 C381 0.930 . S
H394 C382 0.956 . S
H395 C382 0.961 . S
H396 C382 0.961 . S
H397 C383 0.958 . S
H398 C383 0.961 . S
H399 C383 0.960 . S
C400 C401 1.391 . S
C400 C402 1.394 . S
C400 H416 0.931 . S
C401 C400 1.391 . S
C401 C405 1.376 . S
C402 C400 1.394 . S
C402 C403 1.369 . S
C402 C406 1.531 . S
C403 C402 1.369 . S
C403 C404 1.410 . S
C403 C411 1.503 . S
C404 C403 1.410 . S
C404 C405 1.392 . S
C404 C407 1.511 . S
C405 C401 1.376 . S
C405 C404 1.392 . S
C405 H417 0.929 . S
C406 C402 1.531 . S
C406 H418 0.960 . S
C406 H419 0.962 . S
C406 H420 0.960 . S
C407 C404 1.511 . S
C407 H421 0.961 . S
C407 H422 0.961 . S
C407 H423 0.961 . S
C408 C409 1.370 . S
C408 C410 1.363 . S
C408 H424 0.931 . S
C409 C408 1.370 . S
C409 C413 1.408 . S
C410 C408 1.363 . S
C410 C411 1.370 . S
C410 C414 1.524 . S
C411 C403 1.503 . S
C411 C410 1.370 . S
C411 C412 1.403 . S
C412 C411 1.403 . S
C412 C413 1.404 . S
C412 C415 1.539 . S
C413 C409 1.408 . S
C413 C412 1.404 . S
C413 H425 0.930 . S
C414 C410 1.524 . S
C414 H426 0.956 . S
C414 H427 0.961 . S
C414 H428 0.961 . S
C415 C412 1.539 . S
C415 H429 0.958 . S
C415 H430 0.961 . S
C415 H431 0.960 . S
H416 C400 0.931 . S
H417 C405 0.929 . S
H418 C406 0.960 . S
H419 C406 0.962 . S
H420 C406 0.960 . S
H421 C407 0.961 . S
H422 C407 0.961 . S
H423 C407 0.961 . S
H424 C408 0.931 . S
H425 C413 0.930 . S
H426 C414 0.956 . S
H427 C414 0.961 . S
H428 C414 0.961 . S
H429 C415 0.958 . S
H430 C415 0.961 . S
H431 C415 0.960 . S
C432 C433 1.391 . S
C432 C434 1.394 . S
C432 H448 0.931 . S
C433 C432 1.391 . S
C433 C437 1.376 . S
C434 C432 1.394 . S
C434 C435 1.369 . S
C434 C438 1.531 . S
C435 C434 1.369 . S
C435 C436 1.410 . S
C435 C443 1.503 . S
C436 C435 1.410 . S
C436 C437 1.392 . S
C436 C439 1.511 . S
C437 C433 1.376 . S
C437 C436 1.392 . S
C437 H449 0.929 . S
C438 C434 1.531 . S
C438 H450 0.960 . S
C438 H451 0.962 . S
C438 H452 0.960 . S
C439 C436 1.511 . S
C439 H453 0.961 . S
C439 H454 0.961 . S
C439 H455 0.961 . S
C440 C441 1.370 . S
C440 C442 1.363 . S
C440 H456 0.931 . S
C441 C440 1.370 . S
C441 C445 1.408 . S
C442 C440 1.363 . S
C442 C443 1.370 . S
C442 C446 1.524 . S
C443 C435 1.503 . S
C443 C442 1.370 . S
C443 C444 1.403 . S
C444 C443 1.403 . S
C444 C445 1.404 . S
C444 C447 1.539 . S
C445 C441 1.408 . S
C445 C444 1.404 . S
C445 H457 0.930 . S
C446 C442 1.524 . S
C446 H458 0.956 . S
C446 H459 0.961 . S
C446 H460 0.961 . S
C447 C444 1.539 . S
C447 H461 0.958 . S
C447 H462 0.961 . S
C447 H463 0.960 . S
H448 C432 0.931 . S
H449 C437 0.929 . S
H450 C438 0.960 . S
H451 C438 0.962 . S
H452 C438 0.960 . S
H453 C439 0.961 . S
H454 C439 0.961 . S
H455 C439 0.961 . S
H456 C440 0.931 . S
H457 C445 0.930 . S
H458 C446 0.956 . S
H459 C446 0.961 . S
H460 C446 0.961 . S
H461 C447 0.958 . S
H462 C447 0.961 . S
H463 C447 0.960 . S
C464 C465 1.391 . S
C464 C466 1.394 . S
C464 H480 0.931 . S
C465 C464 1.391 . S
C465 C469 1.376 . S
C466 C464 1.394 . S
C466 C467 1.369 . S
C466 C470 1.531 . S
C467 C466 1.369 . S
C467 C468 1.410 . S
C467 C475 1.503 . S
C468 C467 1.410 . S
C468 C469 1.392 . S
C468 C471 1.511 . S
C469 C465 1.376 . S
C469 C468 1.392 . S
C469 H481 0.929 . S
C470 C466 1.531 . S
C470 H482 0.960 . S
C470 H483 0.962 . S
C470 H484 0.960 . S
C471 C468 1.511 . S
C471 H485 0.961 . S
C471 H486 0.961 . S
C471 H487 0.961 . S
C472 C473 1.370 . S
C472 C474 1.363 . S
C472 H488 0.931 . S
C473 C472 1.370 . S
C473 C477 1.408 . S
C474 C472 1.363 . S
C474 C475 1.370 . S
C474 C478 1.524 . S
C475 C467 1.503 . S
C475 C474 1.370 . S
C475 C476 1.403 . S
C476 C475 1.403 . S
C476 C477 1.404 . S
C476 C479 1.539 . S
C477 C473 1.408 . S
C477 C476 1.404 . S
C477 H489 0.930 . S
C478 C474 1.524 . S
C478 H490 0.956 . S
C478 H491 0.961 . S
C478 H492 0.961 . S
C479 C476 1.539 . S
C479 H493 0.958 . S
C479 H494 0.961 . S
C479 H495 0.960 . S
H480 C464 0.931 . S
H481 C469 0.929 . S
H482 C470 0.960 . S
H483 C470 0.962 . S
H484 C470 0.960 . S
H485 C471 0.961 . S
H486 C471 0.961 . S
H487 C471 0.961 . S
H488 C472 0.931 . S
H489 C477 0.930 . S
H490 C478 0.956 . S
H491 C478 0.961 . S
H492 C478 0.961 . S
H493 C479 0.958 . S
H494 C479 0.961 . S
H495 C479 0.960 . S
C496 C497 1.391 . S
C496 C498 1.394 . S
C496 H512 0.931 . S
C497 C496 1.391 . S
C497 C501 1.376 . S
C498 C496 1.394 . S
C498 C499 1.369 . S
C498 C502 1.531 . S
C499 C498 1.369 . S
C499 C500 1.410 . S
C499 C507 1.503 . S
C500 C499 1.410 . S
C500 C501 1.392 . S
C500 C503 1.511 . S
C501 C497 1.376 . S
C501 C500 1.392 . S
C501 H513 0.929 . S
C502 C498 1.531 . S
C502 H514 0.960 . S
C502 H515 0.962 . S
C502 H516 0.960 . S
C503 C500 1.511 . S
C503 H517 0.961 . S
C503 H518 0.961 . S
C503 H519 0.961 . S
C504 C505 1.370 . S
C504 C506 1.363 . S
C504 H520 0.931 . S
C505 C504 1.370 . S
C505 C509 1.408 . S
C506 C504 1.363 . S
C506 C507 1.370 . S
C506 C510 1.524 . S
C507 C499 1.503 . S
C507 C506 1.370 . S
C507 C508 1.403 . S
C508 C507 1.403 . S
C508 C509 1.404 . S
C508 C511 1.539 . S
C509 C505 1.408 . S
C509 C508 1.404 . S
C509 H521 0.930 . S
C510 C506 1.524 . S
C510 H522 0.956 . S
C510 H523 0.961 . S
C510 H524 0.961 . S
C511 C508 1.539 . S
C511 H525 0.958 . S
C511 H526 0.961 . S
C511 H527 0.960 . S
H512 C496 0.931 . S
H513 C501 0.929 . S
H514 C502 0.960 . S
H515 C502 0.962 . S
H516 C502 0.960 . S
H517 C503 0.961 . S
H518 C503 0.961 . S
H519 C503 0.961 . S
H520 C504 0.931 . S
H521 C509 0.930 . S
H522 C510 0.956 . S
H523 C510 0.961 . S
H524 C510 0.961 . S
H525 C511 0.958 . S
H526 C511 0.961 . S
H527 C511 0.960 . S
C528 C529 1.391 . S
C528 C530 1.394 . S
C528 H544 0.931 . S
C529 C528 1.391 . S
C529 C533 1.376 . S
C530 C528 1.394 . S
C530 C531 1.369 . S
C530 C534 1.531 . S
C531 C530 1.369 . S
C531 C532 1.410 . S
C531 C539 1.503 . S
C532 C531 1.410 . S
C532 C533 1.392 . S
C532 C535 1.511 . S
C533 C529 1.376 . S
C533 C532 1.392 . S
C533 H545 0.929 . S
C534 C530 1.531 . S
C534 H546 0.960 . S
C534 H547 0.962 . S
C534 H548 0.960 . S
C535 C532 1.511 . S
C535 H549 0.961 . S
C535 H550 0.961 . S
C535 H551 0.961 . S
C536 C537 1.370 . S
C536 C538 1.363 . S
C536 H552 0.931 . S
C537 C536 1.370 . S
C537 C541 1.408 . S
C538 C536 1.363 . S
C538 C539 1.370 . S
C538 C542 1.524 . S
C539 C531 1.503 . S
C539 C538 1.370 . S
C539 C540 1.403 . S
C540 C539 1.403 . S
C540 C541 1.404 . S
C540 C543 1.539 . S
C541 C537 1.408 . S
C541 C540 1.404 . S
C541 H553 0.930 . S
C542 C538 1.524 . S
C542 H554 0.956 . S
C542 H555 0.961 . S
C542 H556 0.961 . S
C543 C540 1.539 . S
C543 H557 0.958 . S
C543 H558 0.961 . S
C543 H559 0.960 . S
H544 C528 0.931 . S
H545 C533 0.929 . S
H546 C534 0.960 . S
H547 C534 0.962 . S
H548 C534 0.960 . S
H549 C535 0.961 . S
H550 C535 0.961 . S
H551 C535 0.961 . S
H552 C536 0.931 . S
H553 C541 0.930 . S
H554 C542 0.956 . S
H555 C542 0.961 . S
H556 C542 0.961 . S
H557 C543 0.958 . S
H558 C543 0.961 . S
H559 C543 0.960 . S
C560 C561 1.391 . S
C560 C562 1.394 . S
C560 H576 0.931 . S
C561 C560 1.391 . S
C561 C565 1.376 . S
C562 C560 1.394 . S
C562 C563 1.369 . S
C562 C566 1.531 . S
C563 C562 1.369 . S
C563 C564 1.410 . S
C563 C571 1.503 . S
C564 C563 1.410 . S
C564 C565 1.392 . S
C564 C567 1.511 . S
C565 C561 1.376 . S
C565 C564 1.392 . S
C565 H577 0.929 . S
C566 C562 1.531 . S
C566 H578 0.960 . S
C566 H579 0.962 . S
C566 H580 0.960 . S
C567 C564 1.511 . S
C567 H581 0.961 . S
C567 H582 0.961 . S
C567 H583 0.961 . S
C568 C569 1.370 . S
C568 C570 1.363 . S
C568 H584 0.931 . S
C569 C568 1.370 . S
C569 C573 1.408 . S
C570 C568 1.363 . S
C570 C571 1.370 . S
C570 C574 1.524 . S
C571 C563 1.503 . S
C571 C570 1.370 . S
C571 C572 1.403 . S
C572 C571 1.403 . S
C572 C573 1.404 . S
C572 C575 1.539 . S
C573 C569 1.408 . S
C573 C572 1.404 . S
C573 H585 0.930 . S
C574 C570 1.524 . S
C574 H586 0.956 . S
C574 H587 0.961 . S
C574 H588 0.961 . S
C575 C572 1.539 . S
C575 H589 0.958 . S
C575 H590 0.961 . S
C575 H591 0.960 . S
H576 C560 0.931 . S
H577 C565 0.929 . S
H578 C566 0.960 . S
H579 C566 0.962 . S
H580 C566 0.960 . S
H581 C567 0.961 . S
H582 C567 0.961 . S
H583 C567 0.961 . S
H584 C568 0.931 . S
H585 C573 0.930 . S
H586 C574 0.956 . S
H587 C574 0.961 . S
H588 C574 0.961 . S
H589 C575 0.958 . S
H590 C575 0.961 . S
H591 C575 0.960 . S
C592 C593 1.391 . S
C592 C594 1.394 . S
C592 H608 0.931 . S
C593 C592 1.391 . S
C593 C597 1.376 . S
C594 C592 1.394 . S
C594 C595 1.369 . S
C594 C598 1.531 . S
C595 C594 1.369 . S
C595 C596 1.410 . S
C595 C603 1.503 . S
C596 C595 1.410 . S
C596 C597 1.392 . S
C596 C599 1.511 . S
C597 C593 1.376 . S
C597 C596 1.392 . S
C597 H609 0.929 . S
C598 C594 1.531 . S
C598 H610 0.960 . S
C598 H611 0.962 . S
C598 H612 0.960 . S
C599 C596 1.511 . S
C599 H613 0.961 . S
C599 H614 0.961 . S
C599 H615 0.961 . S
C600 C601 1.370 . S
C600 C602 1.363 . S
C600 H616 0.931 . S
C601 C600 1.370 . S
C601 C605 1.408 . S
C602 C600 1.363 . S
C602 C603 1.370 . S
C602 C606 1.524 . S
C603 C595 1.503 . S
C603 C602 1.370 . S
C603 C604 1.403 . S
C604 C603 1.403 . S
C604 C605 1.404 . S
C604 C607 1.539 . S
C605 C601 1.408 . S
C605 C604 1.404 . S
C605 H617 0.930 . S
C606 C602 1.524 . S
C606 H618 0.956 . S
C606 H619 0.961 . S
C606 H620 0.961 . S
C607 C604 1.539 . S
C607 H621 0.958 . S
C607 H622 0.961 . S
C607 H623 0.960 . S
H608 C592 0.931 . S
H609 C597 0.929 . S
H610 C598 0.960 . S
H611 C598 0.962 . S
H612 C598 0.960 . S
H613 C599 0.961 . S
H614 C599 0.961 . S
H615 C599 0.961 . S
H616 C600 0.931 . S
H617 C605 0.930 . S
H618 C606 0.956 . S
H619 C606 0.961 . S
H620 C606 0.961 . S
H621 C607 0.958 . S
H622 C607 0.961 . S
H623 C607 0.960 . S
C624 C625 1.391 . S
C624 C626 1.394 . S
C624 H640 0.931 . S
C625 C624 1.391 . S
C625 C629 1.376 . S
C626 C624 1.394 . S
C626 C627 1.369 . S
C626 C630 1.531 . S
C627 C626 1.369 . S
C627 C628 1.410 . S
C627 C635 1.503 . S
C628 C627 1.410 . S
C628 C629 1.392 . S
C628 C631 1.511 . S
C629 C625 1.376 . S
C629 C628 1.392 . S
C629 H641 0.929 . S
C630 C626 1.531 . S
C630 H642 0.960 . S
C630 H643 0.962 . S
C630 H644 0.960 . S
C631 C628 1.511 . S
C631 H645 0.961 . S
C631 H646 0.961 . S
C631 H647 0.961 . S
C632 C633 1.370 . S
C632 C634 1.363 . S
C632 H648 0.931 . S
C633 C632 1.370 . S
C633 C637 1.408 . S
C634 C632 1.363 . S
C634 C635 1.370 . S
C634 C638 1.524 . S
C635 C627 1.503 . S
C635 C634 1.370 . S
C635 C636 1.403 . S
C636 C635 1.403 . S
C636 C637 1.404 . S
C636 C639 1.539 . S
C637 C633 1.408 . S
C637 C636 1.404 . S
C637 H649 0.930 . S
C638 C634 1.524 . S
C638 H650 0.956 . S
C638 H651 0.961 . S
C638 H652 0.961 . S
C639 C636 1.539 . S
C639 H653 0.958 . S
C639 H654 0.961 . S
C639 H655 0.960 . S
H640 C624 0.931 . S
H641 C629 0.929 . S
H642 C630 0.960 . S
H643 C630 0.962 . S
H644 C630 0.960 . S
H645 C631 0.961 . S
H646 C631 0.961 . S
H647 C631 0.961 . S
H648 C632 0.931 . S
H649 C637 0.930 . S
H650 C638 0.956 . S
H651 C638 0.961 . S
H652 C638 0.961 . S
H653 C639 0.958 . S
H654 C639 0.961 . S
H655 C639 0.960 . S
C656 C657 1.391 . S
C656 C658 1.394 . S
C656 H672 0.931 . S
C657 C656 1.391 . S
C657 C661 1.376 . S
C658 C656 1.394 . S
C658 C659 1.369 . S
C658 C662 1.531 . S
C659 C658 1.369 . S
C659 C660 1.410 . S
C659 C667 1.503 . S
C660 C659 1.410 . S
C660 C661 1.392 . S
C660 C663 1.511 . S
C661 C657 1.376 . S
C661 C660 1.392 . S
C661 H673 0.929 . S
C662 C658 1.531 . S
C662 H674 0.960 . S
C662 H675 0.962 . S
C662 H676 0.960 . S
C663 C660 1.511 . S
C663 H677 0.961 . S
C663 H678 0.961 . S
C663 H679 0.961 . S
C664 C665 1.370 . S
C664 C666 1.363 . S
C664 H680 0.931 . S
C665 C664 1.370 . S
C665 C669 1.408 . S
C666 C664 1.363 . S
C666 C667 1.370 . S
C666 C670 1.524 . S
C667 C659 1.503 . S
C667 C666 1.370 . S
C667 C668 1.403 . S
C668 C667 1.403 . S
C668 C669 1.404 . S
C668 C671 1.539 . S
C669 C665 1.408 . S
C669 C668 1.404 . S
C669 H681 0.930 . S
C670 C666 1.524 . S
C670 H682 0.956 . S
C670 H683 0.961 . S
C670 H684 0.961 . S
C671 C668 1.539 . S
C671 H685 0.958 . S
C671 H686 0.961 . S
C671 H687 0.960 . S
H672 C656 0.931 . S
H673 C661 0.929 . S
H674 C662 0.960 . S
H675 C662 0.962 . S
H676 C662 0.960 . S
H677 C663 0.961 . S
H678 C663 0.961 . S
H679 C663 0.961 . S
H680 C664 0.931 . S
H681 C669 0.930 . S
H682 C670 0.956 . S
H683 C670 0.961 . S
H684 C670 0.961 . S
H685 C671 0.958 . S
H686 C671 0.961 . S
H687 C671 0.960 . S
C688 C689 1.391 . S
C688 C690 1.394 . S
C688 H704 0.931 . S
C689 C688 1.391 . S
C689 C693 1.376 . S
C690 C688 1.394 . S
C690 C691 1.369 . S
C690 C694 1.531 . S
C691 C690 1.369 . S
C691 C692 1.410 . S
C691 C699 1.503 . S
C692 C691 1.410 . S
C692 C693 1.392 . S
C692 C695 1.511 . S
C693 C689 1.376 . S
C693 C692 1.392 . S
C693 H705 0.929 . S
C694 C690 1.531 . S
C694 H706 0.960 . S
C694 H707 0.962 . S
C694 H708 0.960 . S
C695 C692 1.511 . S
C695 H709 0.961 . S
C695 H710 0.961 . S
C695 H711 0.961 . S
C696 C697 1.370 . S
C696 C698 1.363 . S
C696 H712 0.931 . S
C697 C696 1.370 . S
C697 C701 1.408 . S
C698 C696 1.363 . S
C698 C699 1.370 . S
C698 C702 1.524 . S
C699 C691 1.503 . S
C699 C698 1.370 . S
C699 C700 1.403 . S
C700 C699 1.403 . S
C700 C701 1.404 . S
C700 C703 1.539 . S
C701 C697 1.408 . S
C701 C700 1.404 . S
C701 H713 0.930 . S
C702 C698 1.524 . S
C702 H714 0.956 . S
C702 H715 0.961 . S
C702 H716 0.961 . S
C703 C700 1.539 . S
C703 H717 0.958 . S
C703 H718 0.961 . S
C703 H719 0.960 . S
H704 C688 0.931 . S
H705 C693 0.929 . S
H706 C694 0.960 . S
H707 C694 0.962 . S
H708 C694 0.960 . S
H709 C695 0.961 . S
H710 C695 0.961 . S
H711 C695 0.961 . S
H712 C696 0.931 . S
H713 C701 0.930 . S
H714 C702 0.956 . S
H715 C702 0.961 . S
H716 C702 0.961 . S
H717 C703 0.958 . S
H718 C703 0.961 . S
H719 C703 0.960 . S
C720 C721 1.391 . S
C720 C722 1.394 . S
C720 H736 0.931 . S
C721 C720 1.391 . S
C721 C725 1.376 1_556 S
C722 C720 1.394 . S
C722 C723 1.369 . S
C722 C726 1.531 . S
C723 C722 1.369 . S
C723 C724 1.410 1_556 S
C723 C731 1.503 1_556 S
C724 C723 1.410 1_554 S
C724 C725 1.392 . S
C724 C727 1.511 . S
C725 C721 1.376 1_554 S
C725 C724 1.392 . S
C725 H737 0.929 . S
C726 C722 1.531 . S
C726 H738 0.960 . S
C726 H739 0.962 . S
C726 H740 0.960 . S
C727 C724 1.511 . S
C727 H741 0.961 . S
C727 H742 0.961 . S
C727 H743 0.961 . S
C728 C729 1.370 . S
C728 C730 1.363 . S
C728 H744 0.931 . S
C729 C728 1.370 . S
C729 C733 1.408 . S
C730 C728 1.363 . S
C730 C731 1.370 . S
C730 C734 1.524 . S
C731 C723 1.503 1_554 S
C731 C730 1.370 . S
C731 C732 1.403 . S
C732 C731 1.403 . S
C732 C733 1.404 . S
C732 C735 1.539 1_554 S
C733 C729 1.408 . S
C733 C732 1.404 . S
C733 H745 0.930 . S
C734 C730 1.524 . S
C734 H746 0.941 1_554 S
C734 H747 0.961 . S
C734 H748 0.961 . S
C735 C732 1.539 1_556 S
C735 H749 0.958 . S
C735 H750 0.971 . S
C735 H751 0.960 . S
H736 C720 0.931 . S
H737 C725 0.929 . S
H738 C726 0.960 . S
H739 C726 0.962 . S
H740 C726 0.960 . S
H741 C727 0.961 . S
H742 C727 0.961 . S
H743 C727 0.961 . S
H744 C728 0.931 . S
H745 C733 0.930 . S
H746 C734 0.941 1_556 S
H747 C734 0.961 . S
H748 C734 0.961 . S
H749 C735 0.958 . S
H750 C735 0.971 . S
H751 C735 0.960 . S
C752 C753 1.391 . S
C752 C754 1.394 . S
C752 H768 0.931 . S
C753 C752 1.391 . S
C753 C757 1.376 . S
C754 C752 1.394 . S
C754 C755 1.369 . S
C754 C758 1.531 . S
C755 C754 1.369 . S
C755 C756 1.410 . S
C755 C763 1.503 . S
C756 C755 1.410 . S
C756 C757 1.392 . S
C756 C759 1.511 . S
C757 C753 1.376 . S
C757 C756 1.392 . S
C757 H769 0.929 . S
C758 C754 1.531 . S
C758 H770 0.960 . S
C758 H771 0.962 . S
C758 H772 0.960 . S
C759 C756 1.511 . S
C759 H773 0.961 . S
C759 H774 0.961 . S
C759 H775 0.961 . S
C760 C761 1.370 . S
C760 C762 1.363 . S
C760 H776 0.931 . S
C761 C760 1.370 . S
C761 C765 1.408 . S
C762 C760 1.363 . S
C762 C763 1.370 . S
C762 C766 1.524 . S
C763 C755 1.503 . S
C763 C762 1.370 . S
C763 C764 1.403 . S
C764 C763 1.403 . S
C764 C765 1.404 . S
C764 C767 1.539 . S
C765 C761 1.408 . S
C765 C764 1.404 . S
C765 H777 0.930 . S
C766 C762 1.524 . S
C766 H778 0.956 . S
C766 H779 0.961 . S
C766 H780 0.961 . S
C767 C764 1.539 . S
C767 H781 0.958 . S
C767 H782 0.961 . S
C767 H783 0.960 . S
H768 C752 0.931 . S
H769 C757 0.929 . S
H770 C758 0.960 . S
H771 C758 0.962 . S
H772 C758 0.960 . S
H773 C759 0.961 . S
H774 C759 0.961 . S
H775 C759 0.961 . S
H776 C760 0.931 . S
H777 C765 0.930 . S
H778 C766 0.956 . S
H779 C766 0.961 . S
H780 C766 0.961 . S
H781 C767 0.958 . S
H782 C767 0.961 . S
H783 C767 0.960 . S
C784 C785 1.391 . S
C784 C786 1.394 . S
C784 H800 0.931 . S
C785 C784 1.391 . S
C785 C789 1.376 1_554 S
C786 C784 1.394 . S
C786 C787 1.369 . S
C786 C790 1.531 . S
C787 C786 1.369 . S
C787 C788 1.410 1_554 S
C787 C795 1.503 1_554 S
C788 C787 1.410 1_556 S
C788 C789 1.392 . S
C788 C791 1.511 . S
C789 C785 1.376 1_556 S
C789 C788 1.392 . S
C789 H801 0.929 . S
C790 C786 1.531 . S
C790 H802 0.960 . S
C790 H803 0.962 . S
C790 H804 0.960 . S
C791 C788 1.511 . S
C791 H805 0.961 . S
C791 H806 0.961 . S
C791 H807 0.961 . S
C792 C793 1.370 . S
C792 C794 1.363 1_556 S
C792 H808 0.931 1_556 S
C793 C792 1.370 . S
C793 C797 1.408 . S
C794 C792 1.363 1_554 S
C794 C795 1.370 1_554 S
C794 C798 1.524 . S
C795 C787 1.503 1_556 S
C795 C794 1.370 1_556 S
C795 C796 1.403 . S
C796 C795 1.403 . S
C796 C797 1.404 . S
C796 C799 1.539 . S
C797 C793 1.408 . S
C797 C796 1.404 . S
C797 H809 0.930 . S
C798 C794 1.524 . S
C798 H810 0.956 . S
C798 H811 0.961 . S
C798 H812 0.961 . S
C799 C796 1.539 . S
C799 H813 0.958 . S
C799 H814 0.961 . S
C799 H815 0.960 . S
H800 C784 0.931 . S
H801 C789 0.929 . S
H802 C790 0.960 . S
H803 C790 0.962 . S
H804 C790 0.960 . S
H805 C791 0.961 . S
H806 C791 0.961 . S
H807 C791 0.961 . S
H808 C792 0.931 1_554 S
H809 C797 0.930 . S
H810 C798 0.956 . S
H811 C798 0.961 . S
H812 C798 0.961 . S
H813 C799 0.958 . S
H814 C799 0.961 . S
H815 C799 0.960 . S
C816 C817 1.391 . S
C816 C818 1.394 . S
C816 H832 0.931 . S
C817 C816 1.391 . S
C817 C821 1.376 . S
C818 C816 1.394 . S
C818 C819 1.369 . S
C818 C822 1.531 . S
C819 C818 1.369 . S
C819 C820 1.410 . S
C819 C827 1.503 . S
C820 C819 1.410 . S
C820 C821 1.392 . S
C820 C823 1.511 . S
C821 C817 1.376 . S
C821 C820 1.392 . S
C821 H833 0.929 . S
C822 C818 1.531 . S
C822 H834 0.960 . S
C822 H835 0.962 . S
C822 H836 0.960 . S
C823 C820 1.511 . S
C823 H837 0.961 . S
C823 H838 0.961 . S
C823 H839 0.961 . S
C824 C825 1.370 . S
C824 C826 1.363 . S
C824 H840 0.931 . S
C825 C824 1.370 . S
C825 C829 1.408 . S
C826 C824 1.363 . S
C826 C827 1.370 . S
C826 C830 1.524 . S
C827 C819 1.503 . S
C827 C826 1.370 . S
C827 C828 1.403 . S
C828 C827 1.403 . S
C828 C829 1.404 . S
C828 C831 1.539 . S
C829 C825 1.408 . S
C829 C828 1.404 . S
C829 H841 0.930 . S
C830 C826 1.524 . S
C830 H842 0.956 . S
C830 H843 0.961 . S
C830 H844 0.961 . S
C831 C828 1.539 . S
C831 H845 0.958 . S
C831 H846 0.961 . S
C831 H847 0.960 . S
H832 C816 0.931 . S
H833 C821 0.929 . S
H834 C822 0.960 . S
H835 C822 0.962 . S
H836 C822 0.960 . S
H837 C823 0.961 . S
H838 C823 0.961 . S
H839 C823 0.961 . S
H840 C824 0.931 . S
H841 C829 0.930 . S
H842 C830 0.956 . S
H843 C830 0.961 . S
H844 C830 0.961 . S
H845 C831 0.958 . S
H846 C831 0.961 . S
H847 C831 0.960 . S
C848 C849 1.391 1_554 S
C848 C850 1.394 . S
C848 H864 0.931 . S
C849 C848 1.391 1_556 S
C849 C853 1.376 . S
C850 C848 1.394 . S
C850 C851 1.369 1_554 S
C850 C854 1.531 . S
C851 C850 1.369 1_556 S
C851 C852 1.410 . S
C851 C859 1.503 1_556 S
C852 C851 1.410 . S
C852 C853 1.392 . S
C852 C855 1.511 . S
C853 C849 1.376 . S
C853 C852 1.392 . S
C853 H865 0.929 . S
C854 C850 1.531 . S
C854 H866 0.960 . S
C854 H867 0.962 . S
C854 H868 0.960 . S
C855 C852 1.511 . S
C855 H869 0.961 . S
C855 H870 0.961 . S
C855 H871 0.961 . S
C856 C857 1.370 . S
C856 C858 1.363 . S
C856 H872 0.931 . S
C857 C856 1.370 . S
C857 C861 1.408 . S
C858 C856 1.363 . S
C858 C859 1.370 . S
C858 C862 1.524 1_554 S
C859 C851 1.503 1_554 S
C859 C858 1.370 . S
C859 C860 1.403 . S
C860 C859 1.403 . S
C860 C861 1.404 . S
C860 C863 1.539 . S
C861 C857 1.408 . S
C861 C860 1.404 . S
C861 H873 0.930 . S
C862 C858 1.524 1_556 S
C862 H874 0.956 1_556 S
C862 H875 0.961 . S
C862 H876 0.961 . S
C863 C860 1.539 . S
C863 H877 0.958 . S
C863 H878 0.961 . S
C863 H879 0.960 1_554 S
H864 C848 0.931 . S
H865 C853 0.929 . S
H866 C854 0.960 . S
H867 C854 0.962 . S
H868 C854 0.960 . S
H869 C855 0.961 . S
H870 C855 0.961 . S
H871 C855 0.961 . S
H872 C856 0.931 . S
H873 C861 0.930 . S
H874 C862 0.956 1_554 S
H875 C862 0.961 . S
H876 C862 0.961 . S
H877 C863 0.958 . S
H878 C863 0.961 . S
H879 C863 0.960 1_556 S
C880 C881 1.391 . S
C880 C882 1.394 . S
C880 H896 0.931 . S
C881 C880 1.391 . S
C881 C885 1.376 . S
C882 C880 1.394 . S
C882 C883 1.369 . S
C882 C886 1.531 . S
C883 C882 1.369 . S
C883 C884 1.410 . S
C883 C891 1.503 . S
C884 C883 1.410 . S
C884 C885 1.392 . S
C884 C887 1.511 . S
C885 C881 1.376 . S
C885 C884 1.392 . S
C885 H897 0.929 . S
C886 C882 1.531 . S
C886 H898 0.960 . S
C886 H899 0.962 . S
C886 H900 0.960 . S
C887 C884 1.511 . S
C887 H901 0.961 . S
C887 H902 0.961 . S
C887 H903 0.961 . S
C888 C889 1.370 . S
C888 C890 1.363 . S
C888 H904 0.931 . S
C889 C888 1.370 . S
C889 C893 1.408 . S
C890 C888 1.363 . S
C890 C891 1.370 . S
C890 C894 1.524 . S
C891 C883 1.503 . S
C891 C890 1.370 . S
C891 C892 1.403 . S
C892 C891 1.403 . S
C892 C893 1.404 . S
C892 C895 1.539 . S
C893 C889 1.408 . S
C893 C892 1.404 . S
C893 H905 0.930 . S
C894 C890 1.524 . S
C894 H906 0.956 . S
C894 H907 0.961 . S
C894 H908 0.961 . S
C895 C892 1.539 . S
C895 H909 0.958 . S
C895 H910 0.961 . S
C895 H911 0.960 . S
H896 C880 0.931 . S
H897 C885 0.929 . S
H898 C886 0.960 . S
H899 C886 0.962 . S
H900 C886 0.960 . S
H901 C887 0.961 . S
H902 C887 0.961 . S
H903 C887 0.961 . S
H904 C888 0.931 . S
H905 C893 0.930 . S
H906 C894 0.956 . S
H907 C894 0.961 . S
H908 C894 0.961 . S
H909 C895 0.958 . S
H910 C895 0.961 . S
H911 C895 0.960 . S
C912 C913 1.391 . S
C912 C914 1.394 1_554 S
C912 H928 0.934 . S
C913 C912 1.391 . S
C913 C917 1.376 . S
C914 C912 1.394 1_556 S
C914 C915 1.374 . S
C914 C918 1.531 . S
C915 C914 1.374 . S
C915 C916 1.396 1_556 S
C915 C923 1.510 . S
C916 C915 1.396 1_554 S
C916 C917 1.392 . S
C916 C919 1.511 . S
C917 C913 1.376 . S
C917 C916 1.392 . S
C917 H929 0.929 . S
C918 C914 1.531 . S
C918 H930 0.960 . S
C918 H931 0.962 . S
C918 H932 0.960 . S
C919 C916 1.511 . S
C919 H933 0.961 . S
C919 H934 0.961 . S
C919 H935 0.961 . S
C920 C921 1.372 1_554 S
C920 C922 1.363 . S
C920 H936 0.930 . S
C921 C920 1.372 1_556 S
C921 C925 1.408 . S
C922 C920 1.363 . S
C922 C923 1.370 1_554 S
C922 C926 1.524 . S
C923 C915 1.510 . S
C923 C922 1.370 1_556 S
C923 C924 1.403 . S
C924 C923 1.403 . S
C924 C925 1.404 . S
C924 C927 1.539 . S
C925 C921 1.408 . S
C925 C924 1.404 . S
C925 H937 0.930 . S
C926 C922 1.524 . S
C926 H938 0.956 . S
C926 H939 0.961 . S
C926 H940 0.961 . S
C927 C924 1.539 . S
C927 H941 0.958 . S
C927 H942 0.961 . S
C927 H943 0.960 . S
H928 C912 0.934 . S
H929 C917 0.929 . S
H930 C918 0.960 . S
H931 C918 0.962 . S
H932 C918 0.960 . S
H933 C919 0.961 . S
H934 C919 0.961 . S
H935 C919 0.961 . S
H936 C920 0.930 . S
H937 C925 0.930 . S
H938 C926 0.956 . S
H939 C926 0.961 . S
H940 C926 0.961 . S
H941 C927 0.958 . S
H942 C927 0.961 . S
H943 C927 0.960 . S
C944 C945 1.391 . S
C944 C946 1.394 . S
C944 H960 0.931 . S
C945 C944 1.391 . S
C945 C949 1.376 . S
C946 C944 1.394 . S
C946 C947 1.369 . S
C946 C950 1.531 . S
C947 C946 1.369 . S
C947 C948 1.410 . S
C947 C955 1.503 . S
C948 C947 1.410 . S
C948 C949 1.392 . S
C948 C951 1.511 . S
C949 C945 1.376 . S
C949 C948 1.392 . S
C949 H961 0.929 . S
C950 C946 1.531 . S
C950 H962 0.960 . S
C950 H963 0.962 . S
C950 H964 0.960 . S
C951 C948 1.511 . S
C951 H965 0.961 . S
C951 H966 0.961 . S
C951 H967 0.961 . S
C952 C953 1.370 . S
C952 C954 1.363 . S
C952 H968 0.931 . S
C953 C952 1.370 . S
C953 C957 1.408 . S
C954 C952 1.363 . S
C954 C955 1.370 . S
C954 C958 1.524 . S
C955 C947 1.503 . S
C955 C954 1.370 . S
C955 C956 1.403 . S
C956 C955 1.403 . S
C956 C957 1.404 . S
C956 C959 1.539 . S
C957 C953 1.408 . S
C957 C956 1.404 . S
C957 H969 0.930 . S
C958 C954 1.524 . S
C958 H970 0.956 . S
C958 H971 0.961 . S
C958 H972 0.961 . S
C959 C956 1.539 . S
C959 H973 0.958 . S
C959 H974 0.961 . S
C959 H975 0.960 . S
H960 C944 0.931 . S
H961 C949 0.929 . S
H962 C950 0.960 . S
H963 C950 0.962 . S
H964 C950 0.960 . S
H965 C951 0.961 . S
H966 C951 0.961 . S
H967 C951 0.961 . S
H968 C952 0.931 . S
H969 C957 0.930 . S
H970 C958 0.956 . S
H971 C958 0.961 . S
H972 C958 0.961 . S
H973 C959 0.958 . S
H974 C959 0.961 . S
H975 C959 0.960 . S
C976 C977 1.391 . S
C976 C978 1.394 . S
C976 H992 0.931 . S
C977 C976 1.391 . S
C977 C981 1.376 . S
C978 C976 1.394 . S
C978 C979 1.369 . S
C978 C982 1.531 1_556 S
C979 C978 1.369 . S
C979 C980 1.410 . S
C979 C987 1.503 1_556 S
C980 C979 1.410 . S
C980 C981 1.392 . S
C980 C983 1.511 . S
C981 C977 1.376 . S
C981 C980 1.392 . S
C981 H993 0.929 . S
C982 C978 1.531 1_554 S
C982 H994 0.960 . S
C982 H995 0.962 . S
C982 H996 0.960 . S
C983 C980 1.511 . S
C983 H997 0.961 . S
C983 H998 0.961 . S
C983 H999 0.961 . S
C984 C985 1.370 . S
C984 C986 1.363 . S
C984 H1000 0.931 . S
C985 C984 1.370 . S
C985 C989 1.408 1_554 S
C986 C984 1.363 . S
C986 C987 1.370 . S
C986 C990 1.524 . S
C987 C979 1.503 1_554 S
C987 C986 1.370 . S
C987 C988 1.403 1_554 S
C988 C987 1.403 1_556 S
C988 C989 1.404 . S
C988 C991 1.539 . S
C989 C985 1.408 1_556 S
C989 C988 1.404 . S
C989 H1001 0.930 . S
C990 C986 1.524 . S
C990 H1002 0.956 . S
C990 H1003 0.961 . S
C990 H1004 0.961 . S
C991 C988 1.539 . S
C991 H1005 0.958 . S
C991 H1006 0.961 . S
C991 H1007 0.960 . S
H992 C976 0.931 . S
H993 C981 0.929 . S
H994 C982 0.960 . S
H995 C982 0.962 . S
H996 C982 0.960 . S
H997 C983 0.961 . S
H998 C983 0.961 . S
H999 C983 0.961 . S
H1000 C984 0.931 . S
H1001 C989 0.930 . S
H1002 C990 0.956 . S
H1003 C990 0.961 . S
H1004 C990 0.961 . S
H1005 C991 0.958 . S
H1006 C991 0.961 . S
H1007 C991 0.960 . S
C1008 C1009 1.391 . S
C1008 C1010 1.394 . S
C1008 H1024 0.931 . S
C1009 C1008 1.391 . S
C1009 C1013 1.376 . S
C1010 C1008 1.394 . S
C1010 C1011 1.369 . S
C1010 C1014 1.531 . S
C1011 C1010 1.369 . S
C1011 C1012 1.410 . S
C1011 C1019 1.503 . S
C1012 C1011 1.410 . S
C1012 C1013 1.392 . S
C1012 C1015 1.511 . S
C1013 C1009 1.376 . S
C1013 C1012 1.392 . S
C1013 H1025 0.929 . S
C1014 C1010 1.531 . S
C1014 H1026 0.960 . S
C1014 H1027 0.962 . S
C1014 H1028 0.960 . S
C1015 C1012 1.511 . S
C1015 H1029 0.961 . S
C1015 H1030 0.961 . S
C1015 H1031 0.961 . S
C1016 C1017 1.370 . S
C1016 C1018 1.363 . S
C1016 H1032 0.931 . S
C1017 C1016 1.370 . S
C1017 C1021 1.408 . S
C1018 C1016 1.363 . S
C1018 C1019 1.370 . S
C1018 C1022 1.524 . S
C1019 C1011 1.503 . S
C1019 C1018 1.370 . S
C1019 C1020 1.403 . S
C1020 C1019 1.403 . S
C1020 C1021 1.404 . S
C1020 C1023 1.539 . S
C1021 C1017 1.408 . S
C1021 C1020 1.404 . S
C1021 H1033 0.930 . S
C1022 C1018 1.524 . S
C1022 H1034 0.956 . S
C1022 H1035 0.961 . S
C1022 H1036 0.961 . S
C1023 C1020 1.539 . S
C1023 H1037 0.958 . S
C1023 H1038 0.961 . S
C1023 H1039 0.960 . S
H1024 C1008 0.931 . S
H1025 C1013 0.929 . S
H1026 C1014 0.960 . S
H1027 C1014 0.962 . S
H1028 C1014 0.960 . S
H1029 C1015 0.961 . S
H1030 C1015 0.961 . S
H1031 C1015 0.961 . S
H1032 C1016 0.931 . S
H1033 C1021 0.930 . S
H1034 C1022 0.956 . S
H1035 C1022 0.961 . S
H1036 C1022 0.961 . S
H1037 C1023 0.958 . S
H1038 C1023 0.961 . S
H1039 C1023 0.960 . S
C1040 C1041 1.391 . S
C1040 C1042 1.394 . S
C1040 H1056 0.931 . S
C1041 C1040 1.391 . S
C1041 C1045 1.376 . S
C1042 C1040 1.394 . S
C1042 C1043 1.369 . S
C1042 C1046 1.531 . S
C1043 C1042 1.369 . S
C1043 C1044 1.400 1_556 S
C1043 C1051 1.503 1_556 S
C1044 C1043 1.400 1_554 S
C1044 C1045 1.385 1_554 S
C1044 C1047 1.528 . S
C1045 C1041 1.376 . S
C1045 C1044 1.385 1_556 S
C1045 H1057 0.933 . S
C1046 C1042 1.531 . S
C1046 H1058 0.960 . S
C1046 H1059 0.962 . S
C1046 H1060 0.960 . S
C1047 C1044 1.528 . S
C1047 H1061 0.961 . S
C1047 H1062 0.961 . S
C1047 H1063 0.961 . S
C1048 C1049 1.370 . S
C1048 C1050 1.363 . S
C1048 H1064 0.931 . S
C1049 C1048 1.370 . S
C1049 C1053 1.383 1_554 S
C1050 C1048 1.363 . S
C1050 C1051 1.370 . S
C1050 C1054 1.524 . S
C1051 C1043 1.503 1_554 S
C1051 C1050 1.370 . S
C1051 C1052 1.403 1_554 S
C1052 C1051 1.403 1_556 S
C1052 C1053 1.416 . S
C1052 C1055 1.539 . S
C1053 C1049 1.383 1_556 S
C1053 C1052 1.416 . S
C1053 H1065 0.944 . S
C1054 C1050 1.524 . S
C1054 H1066 0.956 . S
C1054 H1067 0.961 . S
C1054 H1068 0.961 . S
C1055 C1052 1.539 . S
C1055 H1069 0.958 . S
C1055 H1070 0.961 . S
C1055 H1071 0.960 . S
H1056 C1040 0.931 . S
H1057 C1045 0.933 . S
H1058 C1046 0.960 . S
H1059 C1046 0.962 . S
H1060 C1046 0.960 . S
H1061 C1047 0.961 . S
H1062 C1047 0.961 . S
H1063 C1047 0.961 . S
H1064 C1048 0.931 . S
H1065 C1053 0.944 . S
H1066 C1054 0.956 . S
H1067 C1054 0.961 . S
H1068 C1054 0.961 . S
H1069 C1055 0.958 . S
H1070 C1055 0.961 . S
H1071 C1055 0.960 . S
C1072 C1073 1.391 . S
C1072 C1074 1.394 . S
C1072 H1088 0.931 . S
C1073 C1072 1.391 . S
C1073 C1077 1.376 . S
C1074 C1072 1.394 . S
C1074 C1075 1.369 . S
C1074 C1078 1.531 . S
C1075 C1074 1.369 . S
C1075 C1076 1.410 . S
C1075 C1083 1.503 . S
C1076 C1075 1.410 . S
C1076 C1077 1.392 . S
C1076 C1079 1.511 . S
C1077 C1073 1.376 . S
C1077 C1076 1.392 . S
C1077 H1089 0.929 . S
C1078 C1074 1.531 . S
C1078 H1090 0.960 . S
C1078 H1091 0.962 . S
C1078 H1092 0.960 . S
C1079 C1076 1.511 . S
C1079 H1093 0.961 . S
C1079 H1094 0.961 . S
C1079 H1095 0.961 . S
C1080 C1081 1.370 . S
C1080 C1082 1.363 . S
C1080 H1096 0.931 . S
C1081 C1080 1.370 . S
C1081 C1085 1.408 . S
C1082 C1080 1.363 . S
C1082 C1083 1.370 . S
C1082 C1086 1.524 . S
C1083 C1075 1.503 . S
C1083 C1082 1.370 . S
C1083 C1084 1.403 . S
C1084 C1083 1.403 . S
C1084 C1085 1.404 . S
C1084 C1087 1.539 . S
C1085 C1081 1.408 . S
C1085 C1084 1.404 . S
C1085 H1097 0.930 . S
C1086 C1082 1.524 . S
C1086 H1098 0.956 . S
C1086 H1099 0.961 . S
C1086 H1100 0.961 . S
C1087 C1084 1.539 . S
C1087 H1101 0.958 . S
C1087 H1102 0.961 . S
C1087 H1103 0.960 . S
H1088 C1072 0.931 . S
H1089 C1077 0.929 . S
H1090 C1078 0.960 . S
H1091 C1078 0.962 . S
H1092 C1078 0.960 . S
H1093 C1079 0.961 . S
H1094 C1079 0.961 . S
H1095 C1079 0.961 . S
H1096 C1080 0.931 . S
H1097 C1085 0.930 . S
H1098 C1086 0.956 . S
H1099 C1086 0.961 . S
H1100 C1086 0.961 . S
H1101 C1087 0.958 . S
H1102 C1087 0.961 . S
H1103 C1087 0.960 . S
C1104 C1105 1.391 . S
C1104 C1106 1.394 . S
C1104 H1120 0.931 . S
C1105 C1104 1.391 . S
C1105 C1109 1.376 . S
C1106 C1104 1.394 . S
C1106 C1107 1.369 . S
C1106 C1110 1.531 . S
C1107 C1106 1.369 . S
C1107 C1108 1.410 . S
C1107 C1115 1.503 . S
C1108 C1107 1.410 . S
C1108 C1109 1.392 . S
C1108 C1111 1.511 . S
C1109 C1105 1.376 . S
C1109 C1108 1.392 . S
C1109 H1121 0.929 . S
C1110 C1106 1.531 . S
C1110 H1122 0.960 . S
C1110 H1123 0.962 . S
C1110 H1124 0.960 . S
C1111 C1108 1.511 . S
C1111 H1125 0.961 . S
C1111 H1126 0.961 . S
C1111 H1127 0.961 . S
C1112 C1113 1.370 . S
C1112 C1114 1.363 . S
C1112 H1128 0.931 . S
C1113 C1112 1.370 . S
C1113 C1117 1.408 . S
C1114 C1112 1.363 . S
C1114 C1115 1.370 . S
C1114 C1118 1.524 . S
C1115 C1107 1.503 . S
C1115 C1114 1.370 . S
C1115 C1116 1.403 . S
C1116 C1115 1.403 . S
C1116 C1117 1.404 . S
C1116 C1119 1.539 1_554 S
C1117 C1113 1.408 . S
C1117 C1116 1.404 . S
C1117 H1129 0.930 . S
C1118 C1114 1.524 . S
C1118 H1130 0.956 . S
C1118 H1131 0.961 . S
C1118 H1132 0.961 . S
C1119 C1116 1.539 1_556 S
C1119 H1133 0.958 . S
C1119 H1134 0.961 . S
C1119 H1135 0.960 . S
H1120 C1104 0.931 . S
H1121 C1109 0.929 . S
H1122 C1110 0.960 . S
H1123 C1110 0.962 . S
H1124 C1110 0.960 . S
H1125 C1111 0.961 . S
H1126 C1111 0.961 . S
H1127 C1111 0.961 . S
H1128 C1112 0.931 . S
H1129 C1117 0.930 . S
H1130 C1118 0.956 . S
H1131 C1118 0.961 . S
H1132 C1118 0.961 . S
H1133 C1119 0.958 . S
H1134 C1119 0.961 . S
H1135 C1119 0.960 . S
C1136 C1137 1.391 . S
C1136 C1138 1.394 . S
C1136 H1152 0.931 . S
C1137 C1136 1.391 . S
C1137 C1141 1.376 . S
C1138 C1136 1.394 . S
C1138 C1139 1.369 . S
C1138 C1142 1.531 . S
C1139 C1138 1.369 . S
C1139 C1140 1.410 . S
C1139 C1147 1.503 1_455 S
C1140 C1139 1.410 . S
C1140 C1141 1.392 . S
C1140 C1143 1.511 . S
C1141 C1137 1.376 . S
C1141 C1140 1.392 . S
C1141 H1153 0.929 . S
C1142 C1138 1.531 . S
C1142 H1154 0.960 1_455 S
C1142 H1155 0.962 . S
C1142 H1156 0.960 . S
C1143 C1140 1.511 . S
C1143 H1157 0.961 . S
C1143 H1158 0.961 1_455 S
C1143 H1159 0.961 . S
C1144 C1145 1.370 . S
C1144 C1146 1.363 . S
C1144 H1160 0.931 . S
C1145 C1144 1.370 . S
C1145 C1149 1.408 . S
C1146 C1144 1.363 . S
C1146 C1147 1.370 . S
C1146 C1150 1.524 . S
C1147 C1139 1.503 1_655 S
C1147 C1146 1.370 . S
C1147 C1148 1.403 . S
C1148 C1147 1.403 . S
C1148 C1149 1.404 . S
C1148 C1151 1.539 . S
C1149 C1145 1.408 . S
C1149 C1148 1.404 . S
C1149 H1161 0.930 . S
C1150 C1146 1.524 . S
C1150 H1162 0.956 . S
C1150 H1163 0.961 1_655 S
C1150 H1164 0.961 . S
C1151 C1148 1.539 . S
C1151 H1165 0.958 . S
C1151 H1166 0.961 . S
C1151 H1167 0.973 . S
H1152 C1136 0.931 . S
H1153 C1141 0.929 . S
H1154 C1142 0.960 1_655 S
H1155 C1142 0.962 . S
H1156 C1142 0.960 . S
H1157 C1143 0.961 . S
H1158 C1143 0.961 1_655 S
H1159 C1143 0.961 . S
H1160 C1144 0.931 . S
H1161 C1149 0.930 . S
H1162 C1150 0.956 . S
H1163 C1150 0.961 1_455 S
H1164 C1150 0.961 . S
H1165 C1151 0.958 . S
H1166 C1151 0.961 . S
H1167 C1151 0.973 . S
C1168 C1169 1.391 . S
C1168 C1170 1.394 . S
C1168 H1184 0.931 . S
C1169 C1168 1.391 . S
C1169 C1173 1.376 . S
C1170 C1168 1.394 . S
C1170 C1171 1.369 . S
C1170 C1174 1.531 . S
C1171 C1170 1.369 . S
C1171 C1172 1.410 . S
C1171 C1179 1.503 1_565 S
C1172 C1171 1.410 . S
C1172 C1173 1.392 . S
C1172 C1175 1.511 . S
C1173 C1169 1.376 . S
C1173 C1172 1.392 . S
C1173 H1185 0.929 . S
C1174 C1170 1.531 . S
C1174 H1186 0.960 1_565 S
C1174 H1187 0.962 . S
C1174 H1188 0.960 1_554 S
C1175 C1172 1.511 . S
C1175 H1189 0.961 . S
C1175 H1190 0.961 1_565 S
C1175 H1191 0.961 . S
C1176 C1177 1.370 . S
C1176 C1178 1.363 . S
C1176 H1192 0.931 . S
C1177 C1176 1.370 . S
C1177 C1181 1.408 . S
C1178 C1176 1.363 . S
C1178 C1179 1.370 . S
C1178 C1182 1.524 . S
C1179 C1171 1.503 1_545 S
C1179 C1178 1.370 . S
C1179 C1180 1.403 . S
C1180 C1179 1.403 . S
C1180 C1181 1.404 . S
C1180 C1183 1.539 . S
C1181 C1177 1.408 . S
C1181 C1180 1.404 . S
C1181 H1193 0.930 . S
C1182 C1178 1.524 . S
C1182 H1194 0.956 . S
C1182 H1195 0.961 1_545 S
C1182 H1196 0.961 . S
C1183 C1180 1.539 . S
C1183 H1197 0.958 1_554 S
C1183 H1198 0.958 1_554 S
C1183 H1199 0.968 . S
H1184 C1168 0.931 . S
H1185 C1173 0.929 . S
H1186 C1174 0.960 1_545 S
H1187 C1174 0.962 . S
H1188 C1174 0.960 1_556 S
H1189 C1175 0.961 . S
H1190 C1175 0.961 1_545 S
H1191 C1175 0.961 . S
H1192 C1176 0.931 . S
H1193 C1181 0.930 . S
H1194 C1182 0.956 . S
H1195 C1182 0.961 1_565 S
H1196 C1182 0.961 . S
H1197 C1183 0.958 1_556 S
H1198 C1183 0.958 1_556 S
H1199 C1183 0.968 . S
C1200 C1201 1.391 . S
C1200 C1202 1.394 . S
C1200 H1216 0.931 . S
C1201 C1200 1.391 . S
C1201 C1205 1.376 . S
C1202 C1200 1.394 . S
C1202 C1203 1.369 . S
C1202 C1206 1.531 . S
C1203 C1202 1.369 . S
C1203 C1204 1.410 . S
C1203 C1211 1.503 . S
C1204 C1203 1.410 . S
C1204 C1205 1.392 . S
C1204 C1207 1.511 . S
C1205 C1201 1.376 . S
C1205 C1204 1.392 . S
C1205 H1217 0.929 . S
C1206 C1202 1.531 . S
C1206 H1218 0.960 . S
C1206 H1219 0.962 . S
C1206 H1220 0.960 . S
C1207 C1204 1.511 . S
C1207 H1221 0.961 . S
C1207 H1222 0.961 . S
C1207 H1223 0.961 . S
C1208 C1209 1.370 . S
C1208 C1210 1.363 . S
C1208 H1224 0.931 . S
C1209 C1208 1.370 . S
C1209 C1213 1.408 . S
C1210 C1208 1.363 . S
C1210 C1211 1.370 . S
C1210 C1214 1.524 . S
C1211 C1203 1.503 . S
C1211 C1210 1.370 . S
C1211 C1212 1.403 . S
C1212 C1211 1.403 . S
C1212 C1213 1.404 . S
C1212 C1215 1.539 . S
C1213 C1209 1.408 . S
C1213 C1212 1.404 . S
C1213 H1225 0.930 . S
C1214 C1210 1.524 . S
C1214 H1226 0.956 . S
C1214 H1227 0.961 . S
C1214 H1228 0.961 . S
C1215 C1212 1.539 . S
C1215 H1229 0.958 . S
C1215 H1230 0.961 . S
C1215 H1231 0.960 . S
H1216 C1200 0.931 . S
H1217 C1205 0.929 . S
H1218 C1206 0.960 . S
H1219 C1206 0.962 . S
H1220 C1206 0.960 . S
H1221 C1207 0.961 . S
H1222 C1207 0.961 . S
H1223 C1207 0.961 . S
H1224 C1208 0.931 . S
H1225 C1213 0.930 . S
H1226 C1214 0.956 . S
H1227 C1214 0.961 . S
H1228 C1214 0.961 . S
H1229 C1215 0.958 . S
H1230 C1215 0.961 . S
H1231 C1215 0.960 . S
C1232 C1233 1.391 . S
C1232 C1234 1.394 . S
C1232 H1248 0.931 . S
C1233 C1232 1.391 . S
C1233 C1237 1.376 . S
C1234 C1232 1.394 . S
C1234 C1235 1.369 . S
C1234 C1238 1.531 . S
C1235 C1234 1.369 . S
C1235 C1236 1.410 . S
C1235 C1243 1.503 1_655 S
C1236 C1235 1.410 . S
C1236 C1237 1.392 . S
C1236 C1239 1.511 . S
C1237 C1233 1.376 . S
C1237 C1236 1.392 . S
C1237 H1249 0.929 . S
C1238 C1234 1.531 . S
C1238 H1250 0.960 1_655 S
C1238 H1251 0.962 . S
C1238 H1252 0.960 . S
C1239 C1236 1.511 . S
C1239 H1253 0.961 . S
C1239 H1254 0.961 1_655 S
C1239 H1255 0.961 . S
C1240 C1241 1.370 . S
C1240 C1242 1.363 . S
C1240 H1256 0.931 . S
C1241 C1240 1.370 . S
C1241 C1245 1.408 . S
C1242 C1240 1.363 . S
C1242 C1243 1.370 . S
C1242 C1246 1.524 . S
C1243 C1235 1.503 1_455 S
C1243 C1242 1.370 . S
C1243 C1244 1.403 . S
C1244 C1243 1.403 . S
C1244 C1245 1.404 . S
C1244 C1247 1.539 . S
C1245 C1241 1.408 . S
C1245 C1244 1.404 . S
C1245 H1257 0.930 . S
C1246 C1242 1.524 . S
C1246 H1258 0.956 . S
C1246 H1259 0.961 1_455 S
C1246 H1260 0.961 . S
C1247 C1244 1.539 . S
C1247 H1261 0.958 . S
C1247 H1262 0.961 . S
C1247 H1263 0.969 . S
H1248 C1232 0.931 . S
H1249 C1237 0.929 . S
H1250 C1238 0.960 1_455 S
H1251 C1238 0.962 . S
H1252 C1238 0.960 . S
H1253 C1239 0.961 . S
H1254 C1239 0.961 1_455 S
H1255 C1239 0.961 . S
H1256 C1240 0.931 . S
H1257 C1245 0.930 . S
H1258 C1246 0.956 . S
H1259 C1246 0.961 1_655 S
H1260 C1246 0.961 . S
H1261 C1247 0.958 . S
H1262 C1247 0.961 . S
H1263 C1247 0.969 . S
C1264 C1265 1.391 . S
C1264 C1266 1.394 . S
C1264 H1280 0.931 . S
C1265 C1264 1.391 . S
C1265 C1269 1.376 . S
C1266 C1264 1.394 . S
C1266 C1267 1.369 . S
C1266 C1270 1.531 . S
C1267 C1266 1.369 . S
C1267 C1268 1.410 . S
C1267 C1275 1.503 1_545 S
C1268 C1267 1.410 . S
C1268 C1269 1.392 . S
C1268 C1271 1.511 . S
C1269 C1265 1.376 . S
C1269 C1268 1.392 . S
C1269 H1281 0.929 . S
C1270 C1266 1.531 . S
C1270 H1282 0.960 1_545 S
C1270 H1283 0.962 . S
C1270 H1284 0.960 . S
C1271 C1268 1.511 . S
C1271 H1285 0.961 . S
C1271 H1286 0.961 1_545 S
C1271 H1287 0.961 . S
C1272 C1273 1.370 . S
C1272 C1274 1.363 . S
C1272 H1288 0.931 . S
C1273 C1272 1.370 . S
C1273 C1277 1.408 . S
C1274 C1272 1.363 . S
C1274 C1275 1.370 . S
C1274 C1278 1.524 . S
C1275 C1267 1.503 1_565 S
C1275 C1274 1.370 . S
C1275 C1276 1.403 . S
C1276 C1275 1.403 . S
C1276 C1277 1.404 . S
C1276 C1279 1.539 . S
C1277 C1273 1.408 . S
C1277 C1276 1.404 . S
C1277 H1289 0.930 . S
C1278 C1274 1.524 . S
C1278 H1290 0.956 . S
C1278 H1291 0.961 1_565 S
C1278 H1292 0.961 . S
C1279 C1276 1.539 . S
C1279 H1293 0.958 . S
C1279 H1294 0.961 . S
C1279 H1295 0.972 . S
H1280 C1264 0.931 . S
H1281 C1269 0.929 . S
H1282 C1270 0.960 1_565 S
H1283 C1270 0.962 . S
H1284 C1270 0.960 . S
H1285 C1271 0.961 . S
H1286 C1271 0.961 1_565 S
H1287 C1271 0.961 . S
H1288 C1272 0.931 . S
H1289 C1277 0.930 . S
H1290 C1278 0.956 . S
H1291 C1278 0.961 1_545 S
H1292 C1278 0.961 . S
H1293 C1279 0.958 . S
H1294 C1279 0.961 . S
H1295 C1279 0.972 . S
C1296 C1297 1.391 . S
C1296 C1298 1.394 . S
C1296 H1312 0.931 . S
C1297 C1296 1.391 . S
C1297 C1301 1.376 . S
C1298 C1296 1.394 . S
C1298 C1299 1.369 . S
C1298 C1302 1.531 . S
C1299 C1298 1.369 . S
C1299 C1300 1.410 . S
C1299 C1307 1.503 . S
C1300 C1299 1.410 . S
C1300 C1301 1.392 . S
C1300 C1303 1.511 1_556 S
C1301 C1297 1.376 . S
C1301 C1300 1.392 . S
C1301 H1313 0.929 . S
C1302 C1298 1.531 . S
C1302 H1314 0.960 . S
C1302 H1315 0.962 . S
C1302 H1316 0.960 . S
C1303 C1300 1.511 1_554 S
C1303 H1317 0.961 . S
C1303 H1318 0.955 1_554 S
C1303 H1319 0.961 . S
C1304 C1305 1.370 . S
C1304 C1306 1.363 . S
C1304 H1320 0.931 . S
C1305 C1304 1.370 . S
C1305 C1309 1.408 . S
C1306 C1304 1.363 . S
C1306 C1307 1.370 . S
C1306 C1310 1.524 . S
C1307 C1299 1.503 . S
C1307 C1306 1.370 . S
C1307 C1308 1.403 . S
C1308 C1307 1.403 . S
C1308 C1309 1.404 . S
C1308 C1311 1.539 . S
C1309 C1305 1.408 . S
C1309 C1308 1.404 . S
C1309 H1321 0.930 . S
C1310 C1306 1.524 . S
C1310 H1322 0.956 . S
C1310 H1323 0.961 . S
C1310 H1324 0.961 . S
C1311 C1308 1.539 . S
C1311 H1325 0.958 . S
C1311 H1326 0.961 . S
C1311 H1327 0.960 . S
H1312 C1296 0.931 . S
H1313 C1301 0.929 . S
H1314 C1302 0.960 . S
H1315 C1302 0.962 . S
H1316 C1302 0.960 . S
H1317 C1303 0.961 . S
H1318 C1303 0.955 1_556 S
H1319 C1303 0.961 . S
H1320 C1304 0.931 . S
H1321 C1309 0.930 . S
H1322 C1310 0.956 . S
H1323 C1310 0.961 . S
H1324 C1310 0.961 . S
H1325 C1311 0.958 . S
H1326 C1311 0.961 . S
H1327 C1311 0.960 . S
C1328 C1329 1.391 . S
C1328 C1330 1.394 . S
C1328 H1344 0.931 . S
C1329 C1328 1.391 . S
C1329 C1333 1.376 . S
C1330 C1328 1.394 . S
C1330 C1331 1.369 . S
C1330 C1334 1.531 . S
C1331 C1330 1.369 . S
C1331 C1332 1.410 . S
C1331 C1339 1.503 1_655 S
C1332 C1331 1.410 . S
C1332 C1333 1.392 . S
C1332 C1335 1.511 . S
C1333 C1329 1.376 . S
C1333 C1332 1.392 . S
C1333 H1345 0.929 . S
C1334 C1330 1.531 . S
C1334 H1346 0.960 1_655 S
C1334 H1347 0.962 . S
C1334 H1348 0.960 . S
C1335 C1332 1.511 . S
C1335 H1349 0.961 . S
C1335 H1350 0.961 1_655 S
C1335 H1351 0.961 . S
C1336 C1337 1.370 . S
C1336 C1338 1.363 . S
C1336 H1352 0.931 . S
C1337 C1336 1.370 . S
C1337 C1341 1.408 . S
C1338 C1336 1.363 . S
C1338 C1339 1.370 . S
C1338 C1342 1.524 . S
C1339 C1331 1.503 1_455 S
C1339 C1338 1.370 . S
C1339 C1340 1.403 . S
C1340 C1339 1.403 . S
C1340 C1341 1.404 . S
C1340 C1343 1.539 . S
C1341 C1337 1.408 . S
C1341 C1340 1.404 . S
C1341 H1353 0.930 . S
C1342 C1338 1.524 . S
C1342 H1354 0.956 . S
C1342 H1355 0.961 1_455 S
C1342 H1356 0.961 . S
C1343 C1340 1.539 . S
C1343 H1357 0.958 . S
C1343 H1358 0.961 . S
C1343 H1359 0.972 . S
H1344 C1328 0.931 . S
H1345 C1333 0.929 . S
H1346 C1334 0.960 1_455 S
H1347 C1334 0.962 . S
H1348 C1334 0.960 . S
H1349 C1335 0.961 . S
H1350 C1335 0.961 1_455 S
H1351 C1335 0.961 . S
H1352 C1336 0.931 . S
H1353 C1341 0.930 . S
H1354 C1342 0.956 . S
H1355 C1342 0.961 1_655 S
H1356 C1342 0.961 . S
H1357 C1343 0.958 . S
H1358 C1343 0.961 . S
H1359 C1343 0.972 . S
C1360 C1361 1.391 . S
C1360 C1362 1.394 . S
C1360 H1376 0.931 . S
C1361 C1360 1.391 . S
C1361 C1365 1.376 . S
C1362 C1360 1.394 . S
C1362 C1363 1.369 . S
C1362 C1366 1.531 . S
C1363 C1362 1.369 . S
C1363 C1364 1.410 . S
C1363 C1371 1.503 1_545 S
C1364 C1363 1.410 . S
C1364 C1365 1.392 . S
C1364 C1367 1.511 . S
C1365 C1361 1.376 . S
C1365 C1364 1.392 . S
C1365 H1377 0.929 . S
C1366 C1362 1.531 . S
C1366 H1378 0.960 1_545 S
C1366 H1379 0.962 . S
C1366 H1380 0.960 . S
C1367 C1364 1.511 . S
C1367 H1381 0.961 . S
C1367 H1382 0.961 1_545 S
C1367 H1383 0.961 1_556 S
C1368 C1369 1.370 . S
C1368 C1370 1.363 . S
C1368 H1384 0.931 . S
C1369 C1368 1.370 . S
C1369 C1373 1.408 . S
C1370 C1368 1.363 . S
C1370 C1371 1.370 . S
C1370 C1374 1.524 . S
C1371 C1363 1.503 1_565 S
C1371 C1370 1.370 . S
C1371 C1372 1.403 . S
C1372 C1371 1.403 . S
C1372 C1373 1.404 . S
C1372 C1375 1.539 . S
C1373 C1369 1.408 . S
C1373 C1372 1.404 . S
C1373 H1385 0.930 . S
C1374 C1370 1.524 . S
C1374 H1386 0.956 . S
C1374 H1387 0.961 1_565 S
C1374 H1388 0.961 . S
C1375 C1372 1.539 . S
C1375 H1389 0.958 . S
C1375 H1390 0.961 1_556 S
C1375 H1391 0.973 . S
H1376 C1360 0.931 . S
H1377 C1365 0.929 . S
H1378 C1366 0.960 1_565 S
H1379 C1366 0.962 . S
H1380 C1366 0.960 . S
H1381 C1367 0.961 . S
H1382 C1367 0.961 1_565 S
H1383 C1367 0.961 1_554 S
H1384 C1368 0.931 . S
H1385 C1373 0.930 . S
H1386 C1374 0.956 . S
H1387 C1374 0.961 1_545 S
H1388 C1374 0.961 . S
H1389 C1375 0.958 . S
H1390 C1375 0.961 1_554 S
H1391 C1375 0.973 . S
C1392 C1393 1.391 . S
C1392 C1394 1.394 . S
C1392 H1408 0.931 . S
C1393 C1392 1.391 . S
C1393 C1397 1.376 . S
C1394 C1392 1.394 . S
C1394 C1395 1.369 . S
C1394 C1398 1.531 . S
C1395 C1394 1.369 . S
C1395 C1396 1.410 . S
C1395 C1403 1.503 . S
C1396 C1395 1.410 . S
C1396 C1397 1.392 . S
C1396 C1399 1.511 . S
C1397 C1393 1.376 . S
C1397 C1396 1.392 . S
C1397 H1409 0.929 . S
C1398 C1394 1.531 . S
C1398 H1410 0.960 . S
C1398 H1411 0.962 . S
C1398 H1412 0.960 . S
C1399 C1396 1.511 . S
C1399 H1413 0.961 . S
C1399 H1414 0.961 . S
C1399 H1415 0.961 . S
C1400 C1401 1.370 . S
C1400 C1402 1.363 . S
C1400 H1416 0.931 . S
C1401 C1400 1.370 . S
C1401 C1405 1.408 . S
C1402 C1400 1.363 . S
C1402 C1403 1.370 . S
C1402 C1406 1.524 . S
C1403 C1395 1.503 . S
C1403 C1402 1.370 . S
C1403 C1404 1.403 . S
C1404 C1403 1.403 . S
C1404 C1405 1.404 . S
C1404 C1407 1.539 . S
C1405 C1401 1.408 . S
C1405 C1404 1.404 . S
C1405 H1417 0.930 . S
C1406 C1402 1.524 . S
C1406 H1418 0.956 . S
C1406 H1419 0.961 . S
C1406 H1420 0.961 . S
C1407 C1404 1.539 . S
C1407 H1421 0.958 . S
C1407 H1422 0.961 . S
C1407 H1423 0.960 . S
H1408 C1392 0.931 . S
H1409 C1397 0.929 . S
H1410 C1398 0.960 . S
H1411 C1398 0.962 . S
H1412 C1398 0.960 . S
H1413 C1399 0.961 . S
H1414 C1399 0.961 . S
H1415 C1399 0.961 . S
H1416 C1400 0.931 . S
H1417 C1405 0.930 . S
H1418 C1406 0.956 . S
H1419 C1406 0.961 . S
H1420 C1406 0.961 . S
H1421 C1407 0.958 . S
H1422 C1407 0.961 . S
H1423 C1407 0.960 . S
C1424 C1425 1.391 . S
C1424 C1426 1.394 . S
C1424 H1440 0.931 . S
C1425 C1424 1.391 . S
C1425 C1429 1.376 . S
C1426 C1424 1.394 . S
C1426 C1427 1.369 . S
C1426 C1430 1.531 . S
C1427 C1426 1.369 . S
C1427 C1428 1.410 . S
C1427 C1435 1.503 1_455 S
C1428 C1427 1.410 . S
C1428 C1429 1.392 . S
C1428 C1431 1.511 . S
C1429 C1425 1.376 . S
C1429 C1428 1.392 . S
C1429 H1441 0.929 . S
C1430 C1426 1.531 . S
C1430 H1442 0.960 1_455 S
C1430 H1443 0.962 . S
C1430 H1444 0.960 . S
C1431 C1428 1.511 . S
C1431 H1445 0.961 . S
C1431 H1446 0.961 1_455 S
C1431 H1447 0.961 . S
C1432 C1433 1.370 . S
C1432 C1434 1.363 . S
C1432 H1448 0.931 . S
C1433 C1432 1.370 . S
C1433 C1437 1.408 . S
C1434 C1432 1.363 . S
C1434 C1435 1.370 . S
C1434 C1438 1.524 . S
C1435 C1427 1.503 1_655 S
C1435 C1434 1.370 . S
C1435 C1436 1.403 . S
C1436 C1435 1.403 . S
C1436 C1437 1.404 . S
C1436 C1439 1.539 . S
C1437 C1433 1.408 . S
C1437 C1436 1.404 . S
C1437 H1449 0.930 . S
C1438 C1434 1.524 . S
C1438 H1450 0.947 1_556 S
C1438 H1451 0.961 1_655 S
C1438 H1452 0.961 1_556 S
C1439 C1436 1.539 . S
C1439 H1453 0.958 . S
C1439 H1454 0.961 . S
C1439 H1455 0.973 . S
H1440 C1424 0.931 . S
H1441 C1429 0.929 . S
H1442 C1430 0.960 1_655 S
H1443 C1430 0.962 . S
H1444 C1430 0.960 . S
H1445 C1431 0.961 . S
H1446 C1431 0.961 1_655 S
H1447 C1431 0.961 . S
H1448 C1432 0.931 . S
H1449 C1437 0.930 . S
H1450 C1438 0.947 1_554 S
H1451 C1438 0.961 1_455 S
H1452 C1438 0.961 1_554 S
H1453 C1439 0.958 . S
H1454 C1439 0.961 . S
H1455 C1439 0.973 . S
C1456 C1457 1.391 . S
C1456 C1458 1.394 . S
C1456 H1472 0.931 . S
C1457 C1456 1.391 . S
C1457 C1461 1.376 . S
C1458 C1456 1.394 . S
C1458 C1459 1.369 . S
C1458 C1462 1.531 . S
C1459 C1458 1.369 . S
C1459 C1460 1.410 . S
C1459 C1467 1.503 1_565 S
C1460 C1459 1.410 . S
C1460 C1461 1.392 . S
C1460 C1463 1.511 . S
C1461 C1457 1.376 . S
C1461 C1460 1.392 . S
C1461 H1473 0.929 . S
C1462 C1458 1.531 . S
C1462 H1474 0.960 1_565 S
C1462 H1475 0.962 . S
C1462 H1476 0.960 . S
C1463 C1460 1.511 . S
C1463 H1477 0.961 . S
C1463 H1478 0.961 1_565 S
C1463 H1479 0.961 . S
C1464 C1465 1.370 . S
C1464 C1466 1.363 . S
C1464 H1480 0.931 . S
C1465 C1464 1.370 . S
C1465 C1469 1.408 . S
C1466 C1464 1.363 . S
C1466 C1467 1.370 . S
C1466 C1470 1.524 . S
C1467 C1459 1.503 1_545 S
C1467 C1466 1.370 . S
C1467 C1468 1.403 . S
C1468 C1467 1.403 . S
C1468 C1469 1.404 . S
C1468 C1471 1.539 . S
C1469 C1465 1.408 . S
C1469 C1468 1.404 . S
C1469 H1481 0.930 . S
C1470 C1466 1.524 . S
C1470 H1482 0.956 . S
C1470 H1483 0.961 1_545 S
C1470 H1484 0.961 . S
C1471 C1468 1.539 . S
C1471 H1485 0.958 . S
C1471 H1486 0.961 . S
C1471 H1487 0.972 . S
H1472 C1456 0.931 . S
H1473 C1461 0.929 . S
H1474 C1462 0.960 1_545 S
H1475 C1462 0.962 . S
H1476 C1462 0.960 . S
H1477 C1463 0.961 . S
H1478 C1463 0.961 1_545 S
H1479 C1463 0.961 . S
H1480 C1464 0.931 . S
H1481 C1469 0.930 . S
H1482 C1470 0.956 . S
H1483 C1470 0.961 1_565 S
H1484 C1470 0.961 . S
H1485 C1471 0.958 . S
H1486 C1471 0.961 . S
H1487 C1471 0.972 . S
C1488 C1489 1.391 . S
C1488 C1490 1.394 1_556 S
C1488 H1504 0.931 1_556 S
C1489 C1488 1.391 . S
C1489 C1493 1.376 . S
C1490 C1488 1.394 1_554 S
C1490 C1491 1.369 1_554 S
C1490 C1494 1.531 . S
C1491 C1490 1.369 1_556 S
C1491 C1492 1.410 . S
C1491 C1499 1.503 1_556 S
C1492 C1491 1.410 . S
C1492 C1493 1.392 . S
C1492 C1495 1.511 . S
C1493 C1489 1.376 . S
C1493 C1492 1.392 . S
C1493 H1505 0.929 . S
C1494 C1490 1.531 . S
C1494 H1506 0.960 . S
C1494 H1507 0.962 . S
C1494 H1508 0.960 . S
C1495 C1492 1.511 . S
C1495 H1509 0.961 . S
C1495 H1510 0.961 . S
C1495 H1511 0.961 . S
C1496 C1497 1.370 . S
C1496 C1498 1.363 . S
C1496 H1512 0.931 . S
C1497 C1496 1.370 . S
C1497 C1501 1.408 . S
C1498 C1496 1.363 . S
C1498 C1499 1.370 . S
C1498 C1502 1.524 1_554 S
C1499 C1491 1.503 1_554 S
C1499 C1498 1.370 . S
C1499 C1500 1.403 . S
C1500 C1499 1.403 . S
C1500 C1501 1.404 . S
C1500 C1503 1.539 . S
C1501 C1497 1.408 . S
C1501 C1500 1.404 . S
C1501 H1513 0.930 . S
C1502 C1498 1.524 1_556 S
C1502 H1514 0.956 1_556 S
C1502 H1515 0.961 . S
C1502 H1516 0.961 . S
C1503 C1500 1.539 . S
C1503 H1517 0.958 . S
C1503 H1518 0.961 . S
C1503 H1519 0.960 . S
H1504 C1488 0.931 1_554 S
H1505 C1493 0.929 . S
H1506 C1494 0.960 . S
H1507 C1494 0.962 . S
H1508 C1494 0.960 . S
H1509 C1495 0.961 . S
H1510 C1495 0.961 . S
H1511 C1495 0.961 . S
H1512 C1496 0.931 . S
H1513 C1501 0.930 . S
H1514 C1502 0.956 1_554 S
H1515 C1502 0.961 . S
H1516 C1502 0.961 . S
H1517 C1503 0.958 . S
H1518 C1503 0.961 . S
H1519 C1503 0.960 . S
C1520 C1521 1.391 . S
C1520 C1522 1.394 . S
C1520 H1536 0.931 . S
C1521 C1520 1.391 . S
C1521 C1525 1.376 . S
C1522 C1520 1.394 . S
C1522 C1523 1.369 . S
C1522 C1526 1.531 . S
C1523 C1522 1.369 . S
C1523 C1524 1.410 . S
C1523 C1531 1.503 . S
C1524 C1523 1.410 . S
C1524 C1525 1.392 . S
C1524 C1527 1.511 . S
C1525 C1521 1.376 . S
C1525 C1524 1.392 . S
C1525 H1537 0.929 . S
C1526 C1522 1.531 . S
C1526 H1538 0.960 . S
C1526 H1539 0.962 . S
C1526 H1540 0.960 . S
C1527 C1524 1.511 . S
C1527 H1541 0.961 . S
C1527 H1542 0.961 . S
C1527 H1543 0.961 . S
C1528 C1529 1.370 . S
C1528 C1530 1.363 . S
C1528 H1544 0.931 . S
C1529 C1528 1.370 . S
C1529 C1533 1.408 . S
C1530 C1528 1.363 . S
C1530 C1531 1.370 . S
C1530 C1534 1.524 . S
C1531 C1523 1.503 . S
C1531 C1530 1.370 . S
C1531 C1532 1.403 . S
C1532 C1531 1.403 . S
C1532 C1533 1.404 . S
C1532 C1535 1.539 . S
C1533 C1529 1.408 . S
C1533 C1532 1.404 . S
C1533 H1545 0.930 . S
C1534 C1530 1.524 . S
C1534 H1546 0.956 . S
C1534 H1547 0.961 . S
C1534 H1548 0.961 . S
C1535 C1532 1.539 . S
C1535 H1549 0.958 . S
C1535 H1550 0.961 . S
C1535 H1551 0.960 . S
H1536 C1520 0.931 . S
H1537 C1525 0.929 . S
H1538 C1526 0.960 . S
H1539 C1526 0.962 . S
H1540 C1526 0.960 . S
H1541 C1527 0.961 . S
H1542 C1527 0.961 . S
H1543 C1527 0.961 . S
H1544 C1528 0.931 . S
H1545 C1533 0.930 . S
H1546 C1534 0.956 . S
H1547 C1534 0.961 . S
H1548 C1534 0.961 . S
H1549 C1535 0.958 . S
H1550 C1535 0.961 . S
H1551 C1535 0.960 . S
C1552 C1553 1.391 . S
C1552 C1554 1.394 . S
C1552 H1568 0.931 . S
C1553 C1552 1.391 . S
C1553 C1557 1.376 . S
C1554 C1552 1.394 . S
C1554 C1555 1.369 . S
C1554 C1558 1.531 . S
C1555 C1554 1.369 . S
C1555 C1556 1.410 1_556 S
C1555 C1563 1.503 1_556 S
C1556 C1555 1.410 1_554 S
C1556 C1557 1.392 1_554 S
C1556 C1559 1.511 . S
C1557 C1553 1.376 . S
C1557 C1556 1.392 1_556 S
C1557 H1569 0.929 1_556 S
C1558 C1554 1.531 . S
C1558 H1570 0.960 . S
C1558 H1571 0.962 . S
C1558 H1572 0.960 . S
C1559 C1556 1.511 . S
C1559 H1573 0.961 . S
C1559 H1574 0.961 . S
C1559 H1575 0.961 . S
C1560 C1561 1.370 . S
C1560 C1562 1.363 . S
C1560 H1576 0.931 . S
C1561 C1560 1.370 . S
C1561 C1565 1.408 . S
C1562 C1560 1.363 . S
C1562 C1563 1.370 . S
C1562 C1566 1.524 1_554 S
C1563 C1555 1.503 1_554 S
C1563 C1562 1.370 . S
C1563 C1564 1.403 . S
C1564 C1563 1.403 . S
C1564 C1565 1.404 . S
C1564 C1567 1.539 . S
C1565 C1561 1.408 . S
C1565 C1564 1.404 . S
C1565 H1577 0.930 . S
C1566 C1562 1.524 1_556 S
C1566 H1578 0.956 . S
C1566 H1579 0.961 . S
C1566 H1580 0.961 . S
C1567 C1564 1.539 . S
C1567 H1581 0.958 . S
C1567 H1582 0.961 . S
C1567 H1583 0.960 . S
H1568 C1552 0.931 . S
H1569 C1557 0.929 1_554 S
H1570 C1558 0.960 . S
H1571 C1558 0.962 . S
H1572 C1558 0.960 . S
H1573 C1559 0.961 . S
H1574 C1559 0.961 . S
H1575 C1559 0.961 . S
H1576 C1560 0.931 . S
H1577 C1565 0.930 . S
H1578 C1566 0.956 . S
H1579 C1566 0.961 . S
H1580 C1566 0.961 . S
H1581 C1567 0.958 . S
H1582 C1567 0.961 . S
H1583 C1567 0.960 . S
C1584 C1585 1.391 . S
C1584 C1586 1.394 . S
C1584 H1600 0.931 . S
C1585 C1584 1.391 . S
C1585 C1589 1.376 . S
C1586 C1584 1.394 . S
C1586 C1587 1.369 . S
C1586 C1590 1.531 . S
C1587 C1586 1.369 . S
C1587 C1588 1.410 . S
C1587 C1595 1.503 . S
C1588 C1587 1.410 . S
C1588 C1589 1.392 . S
C1588 C1591 1.511 . S
C1589 C1585 1.376 . S
C1589 C1588 1.392 . S
C1589 H1601 0.929 . S
C1590 C1586 1.531 . S
C1590 H1602 0.960 . S
C1590 H1603 0.962 . S
C1590 H1604 0.960 . S
C1591 C1588 1.511 . S
C1591 H1605 0.961 . S
C1591 H1606 0.961 . S
C1591 H1607 0.961 . S
C1592 C1593 1.370 . S
C1592 C1594 1.363 . S
C1592 H1608 0.931 . S
C1593 C1592 1.370 . S
C1593 C1597 1.408 . S
C1594 C1592 1.363 . S
C1594 C1595 1.370 . S
C1594 C1598 1.524 . S
C1595 C1587 1.503 . S
C1595 C1594 1.370 . S
C1595 C1596 1.403 . S
C1596 C1595 1.403 . S
C1596 C1597 1.404 . S
C1596 C1599 1.539 . S
C1597 C1593 1.408 . S
C1597 C1596 1.404 . S
C1597 H1609 0.930 . S
C1598 C1594 1.524 . S
C1598 H1610 0.956 . S
C1598 H1611 0.961 . S
C1598 H1612 0.961 . S
C1599 C1596 1.539 . S
C1599 H1613 0.958 . S
C1599 H1614 0.961 . S
C1599 H1615 0.960 . S
H1600 C1584 0.931 . S
H1601 C1589 0.929 . S
H1602 C1590 0.960 . S
H1603 C1590 0.962 . S
H1604 C1590 0.960 . S
H1605 C1591 0.961 . S
H1606 C1591 0.961 . S
H1607 C1591 0.961 . S
H1608 C1592 0.931 . S
H1609 C1597 0.930 . S
H1610 C1598 0.956 . S
H1611 C1598 0.961 . S
H1612 C1598 0.961 . S
H1613 C1599 0.958 . S
H1614 C1599 0.961 . S
H1615 C1599 0.960 . S
C1616 C1617 1.391 . S
C1616 C1618 1.394 . S
C1616 H1632 0.931 . S
C1617 C1616 1.391 . S
C1617 C1621 1.376 . S
C1618 C1616 1.394 . S
C1618 C1619 1.369 . S
C1618 C1622 1.531 . S
C1619 C1618 1.369 . S
C1619 C1620 1.410 . S
C1619 C1627 1.503 1_556 S
C1620 C1619 1.410 . S
C1620 C1621 1.392 . S
C1620 C1623 1.511 1_556 S
C1621 C1617 1.376 . S
C1621 C1620 1.392 . S
C1621 H1633 0.929 . S
C1622 C1618 1.531 . S
C1622 H1634 0.960 . S
C1622 H1635 0.962 . S
C1622 H1636 0.960 . S
C1623 C1620 1.511 1_554 S
C1623 H1637 0.961 . S
C1623 H1638 0.961 . S
C1623 H1639 0.941 1_554 S
C1624 C1625 1.370 . S
C1624 C1626 1.363 . S
C1624 H1640 0.931 . S
C1625 C1624 1.370 . S
C1625 C1629 1.408 . S
C1626 C1624 1.363 . S
C1626 C1627 1.370 . S
C1626 C1630 1.524 . S
C1627 C1619 1.503 1_554 S
C1627 C1626 1.370 . S
C1627 C1628 1.403 1_554 S
C1628 C1627 1.403 1_556 S
C1628 C1629 1.404 1_556 S
C1628 C1631 1.539 . S
C1629 C1625 1.408 . S
C1629 C1628 1.404 1_554 S
C1629 H1641 0.930 1_554 S
C1630 C1626 1.524 . S
C1630 H1642 0.956 . S
C1630 H1643 0.961 . S
C1630 H1644 0.961 . S
C1631 C1628 1.539 . S
C1631 H1645 0.958 . S
C1631 H1646 0.961 . S
C1631 H1647 0.960 . S
H1632 C1616 0.931 . S
H1633 C1621 0.929 . S
H1634 C1622 0.960 . S
H1635 C1622 0.962 . S
H1636 C1622 0.960 . S
H1637 C1623 0.961 . S
H1638 C1623 0.961 . S
H1639 C1623 0.941 1_556 S
H1640 C1624 0.931 . S
H1641 C1629 0.930 1_556 S
H1642 C1630 0.956 . S
H1643 C1630 0.961 . S
H1644 C1630 0.961 . S
H1645 C1631 0.958 . S
H1646 C1631 0.961 . S
H1647 C1631 0.960 . S
C1648 C1649 1.391 . S
C1648 C1650 1.394 . S
C1648 H1664 0.931 . S
C1649 C1648 1.391 . S
C1649 C1653 1.376 . S
C1650 C1648 1.394 . S
C1650 C1651 1.369 . S
C1650 C1654 1.531 . S
C1651 C1650 1.369 . S
C1651 C1652 1.410 . S
C1651 C1659 1.503 . S
C1652 C1651 1.410 . S
C1652 C1653 1.392 . S
C1652 C1655 1.511 . S
C1653 C1649 1.376 . S
C1653 C1652 1.392 . S
C1653 H1665 0.929 . S
C1654 C1650 1.531 . S
C1654 H1666 0.960 . S
C1654 H1667 0.962 . S
C1654 H1668 0.960 . S
C1655 C1652 1.511 . S
C1655 H1669 0.961 . S
C1655 H1670 0.961 . S
C1655 H1671 0.961 . S
C1656 C1657 1.370 . S
C1656 C1658 1.363 . S
C1656 H1672 0.931 . S
C1657 C1656 1.370 . S
C1657 C1661 1.408 . S
C1658 C1656 1.363 . S
C1658 C1659 1.370 . S
C1658 C1662 1.524 . S
C1659 C1651 1.503 . S
C1659 C1658 1.370 . S
C1659 C1660 1.403 . S
C1660 C1659 1.403 . S
C1660 C1661 1.404 . S
C1660 C1663 1.539 . S
C1661 C1657 1.408 . S
C1661 C1660 1.404 . S
C1661 H1673 0.930 . S
C1662 C1658 1.524 . S
C1662 H1674 0.956 . S
C1662 H1675 0.961 . S
C1662 H1676 0.961 . S
C1663 C1660 1.539 . S
C1663 H1677 0.958 . S
C1663 H1678 0.961 . S
C1663 H1679 0.960 . S
H1664 C1648 0.931 . S
H1665 C1653 0.929 . S
H1666 C1654 0.960 . S
H1667 C1654 0.962 . S
H1668 C1654 0.960 . S
H1669 C1655 0.961 . S
H1670 C1655 0.961 . S
H1671 C1655 0.961 . S
H1672 C1656 0.931 . S
H1673 C1661 0.930 . S
H1674 C1662 0.956 . S
H1675 C1662 0.961 . S
H1676 C1662 0.961 . S
H1677 C1663 0.958 . S
H1678 C1663 0.961 . S
H1679 C1663 0.960 . S
C1680 C1681 1.391 . S
C1680 C1682 1.394 . S
C1680 H1696 0.931 . S
C1681 C1680 1.391 . S
C1681 C1685 1.376 . S
C1682 C1680 1.394 . S
C1682 C1683 1.369 . S
C1682 C1686 1.534 . S
C1683 C1682 1.369 . S
C1683 C1684 1.410 . S
C1683 C1691 1.503 1_554 S
C1684 C1683 1.410 . S
C1684 C1685 1.392 . S
C1684 C1687 1.506 1_554 S
C1685 C1681 1.376 . S
C1685 C1684 1.392 . S
C1685 H1697 0.929 . S
C1686 C1682 1.534 . S
C1686 H1698 0.950 1_554 S
C1686 H1699 0.971 . S
C1686 H1700 0.959 1_554 S
C1687 C1684 1.506 1_556 S
C1687 H1701 0.949 1_556 S
C1687 H1702 0.961 . S
C1687 H1703 0.977 . S
C1688 C1689 1.370 . S
C1688 C1690 1.363 1_556 S
C1688 H1704 0.931 1_556 S
C1689 C1688 1.370 . S
C1689 C1693 1.408 . S
C1690 C1688 1.363 1_554 S
C1690 C1691 1.370 1_554 S
C1690 C1694 1.524 . S
C1691 C1683 1.503 1_556 S
C1691 C1690 1.370 1_556 S
C1691 C1692 1.403 . S
C1692 C1691 1.403 . S
C1692 C1693 1.404 . S
C1692 C1695 1.539 . S
C1693 C1689 1.408 . S
C1693 C1692 1.404 . S
C1693 H1705 0.930 . S
C1694 C1690 1.524 . S
C1694 H1706 0.956 . S
C1694 H1707 0.961 . S
C1694 H1708 0.961 . S
C1695 C1692 1.539 . S
C1695 H1709 0.958 . S
C1695 H1710 0.961 . S
C1695 H1711 0.960 . S
H1696 C1680 0.931 . S
H1697 C1685 0.929 . S
H1698 C1686 0.950 1_556 S
H1699 C1686 0.971 . S
H1700 C1686 0.959 1_556 S
H1701 C1687 0.949 1_554 S
H1702 C1687 0.961 . S
H1703 C1687 0.977 . S
H1704 C1688 0.931 1_554 S
H1705 C1693 0.930 . S
H1706 C1694 0.956 . S
H1707 C1694 0.961 . S
H1708 C1694 0.961 . S
H1709 C1695 0.958 . S
H1710 C1695 0.961 . S
H1711 C1695 0.960 . S
C1712 C1713 1.391 . S
C1712 C1714 1.394 . S
C1712 H1728 0.931 . S
C1713 C1712 1.391 . S
C1713 C1717 1.376 . S
C1714 C1712 1.394 . S
C1714 C1715 1.369 . S
C1714 C1718 1.531 . S
C1715 C1714 1.369 . S
C1715 C1716 1.410 . S
C1715 C1723 1.503 . S
C1716 C1715 1.410 . S
C1716 C1717 1.392 . S
C1716 C1719 1.511 . S
C1717 C1713 1.376 . S
C1717 C1716 1.392 . S
C1717 H1729 0.929 . S
C1718 C1714 1.531 . S
C1718 H1730 0.960 . S
C1718 H1731 0.962 . S
C1718 H1732 0.960 . S
C1719 C1716 1.511 . S
C1719 H1733 0.961 . S
C1719 H1734 0.961 . S
C1719 H1735 0.961 . S
C1720 C1721 1.370 . S
C1720 C1722 1.363 . S
C1720 H1736 0.931 . S
C1721 C1720 1.370 . S
C1721 C1725 1.408 . S
C1722 C1720 1.363 . S
C1722 C1723 1.370 . S
C1722 C1726 1.524 . S
C1723 C1715 1.503 . S
C1723 C1722 1.370 . S
C1723 C1724 1.403 . S
C1724 C1723 1.403 . S
C1724 C1725 1.404 . S
C1724 C1727 1.539 . S
C1725 C1721 1.408 . S
C1725 C1724 1.404 . S
C1725 H1737 0.930 . S
C1726 C1722 1.524 . S
C1726 H1738 0.956 . S
C1726 H1739 0.961 . S
C1726 H1740 0.961 . S
C1727 C1724 1.539 . S
C1727 H1741 0.958 . S
C1727 H1742 0.961 . S
C1727 H1743 0.960 . S
H1728 C1712 0.931 . S
H1729 C1717 0.929 . S
H1730 C1718 0.960 . S
H1731 C1718 0.962 . S
H1732 C1718 0.960 . S
H1733 C1719 0.961 . S
H1734 C1719 0.961 . S
H1735 C1719 0.961 . S
H1736 C1720 0.931 . S
H1737 C1725 0.930 . S
H1738 C1726 0.956 . S
H1739 C1726 0.961 . S
H1740 C1726 0.961 . S
H1741 C1727 0.958 . S
H1742 C1727 0.961 . S
H1743 C1727 0.960 . S
C1744 C1745 1.391 . S
C1744 C1746 1.394 1_554 S
C1744 H1760 0.931 1_554 S
C1745 C1744 1.391 . S
C1745 C1749 1.376 . S
C1746 C1744 1.394 1_556 S
C1746 C1747 1.369 1_556 S
C1746 C1750 1.531 . S
C1747 C1746 1.369 1_554 S
C1747 C1748 1.410 . S
C1747 C1755 1.503 1_554 S
C1748 C1747 1.410 . S
C1748 C1749 1.392 . S
C1748 C1751 1.511 . S
C1749 C1745 1.376 . S
C1749 C1748 1.392 . S
C1749 H1761 0.929 . S
C1750 C1746 1.531 . S
C1750 H1762 0.960 . S
C1750 H1763 0.962 . S
C1750 H1764 0.960 . S
C1751 C1748 1.511 . S
C1751 H1765 0.961 . S
C1751 H1766 0.961 . S
C1751 H1767 0.961 . S
C1752 C1753 1.370 . S
C1752 C1754 1.363 . S
C1752 H1768 0.931 . S
C1753 C1752 1.370 . S
C1753 C1757 1.408 . S
C1754 C1752 1.363 . S
C1754 C1755 1.370 . S
C1754 C1758 1.524 . S
C1755 C1747 1.503 1_556 S
C1755 C1754 1.370 . S
C1755 C1756 1.403 . S
C1756 C1755 1.403 . S
C1756 C1757 1.404 . S
C1756 C1759 1.539 . S
C1757 C1753 1.408 . S
C1757 C1756 1.404 . S
C1757 H1769 0.930 . S
C1758 C1754 1.524 . S
C1758 H1770 0.956 . S
C1758 H1771 0.961 1_556 S
C1758 H1772 0.961 . S
C1759 C1756 1.539 . S
C1759 H1773 0.958 . S
C1759 H1774 0.961 . S
C1759 H1775 0.960 1_556 S
H1760 C1744 0.931 1_556 S
H1761 C1749 0.929 . S
H1762 C1750 0.960 . S
H1763 C1750 0.962 . S
H1764 C1750 0.960 . S
H1765 C1751 0.961 . S
H1766 C1751 0.961 . S
H1767 C1751 0.961 . S
H1768 C1752 0.931 . S
H1769 C1757 0.930 . S
H1770 C1758 0.956 . S
H1771 C1758 0.961 1_554 S
H1772 C1758 0.961 . S
H1773 C1759 0.958 . S
H1774 C1759 0.961 . S
H1775 C1759 0.960 1_554 S
C1776 C1777 1.391 . S
C1776 C1778 1.394 . S
C1776 H1792 0.931 . S
C1777 C1776 1.391 . S
C1777 C1781 1.376 . S
C1778 C1776 1.394 . S
C1778 C1779 1.369 . S
C1778 C1782 1.531 . S
C1779 C1778 1.369 . S
C1779 C1780 1.410 . S
C1779 C1787 1.503 . S
C1780 C1779 1.410 . S
C1780 C1781 1.392 . S
C1780 C1783 1.511 . S
C1781 C1777 1.376 . S
C1781 C1780 1.392 . S
C1781 H1793 0.929 . S
C1782 C1778 1.531 . S
C1782 H1794 0.960 . S
C1782 H1795 0.962 . S
C1782 H1796 0.960 . S
C1783 C1780 1.511 . S
C1783 H1797 0.961 . S
C1783 H1798 0.961 . S
C1783 H1799 0.961 . S
C1784 C1785 1.370 . S
C1784 C1786 1.363 . S
C1784 H1800 0.931 . S
C1785 C1784 1.370 . S
C1785 C1789 1.408 . S
C1786 C1784 1.363 . S
C1786 C1787 1.370 . S
C1786 C1790 1.524 . S
C1787 C1779 1.503 . S
C1787 C1786 1.370 . S
C1787 C1788 1.403 . S
C1788 C1787 1.403 . S
C1788 C1789 1.404 . S
C1788 C1791 1.539 . S
C1789 C1785 1.408 . S
C1789 C1788 1.404 . S
C1789 H1801 0.930 . S
C1790 C1786 1.524 . S
C1790 H1802 0.956 . S
C1790 H1803 0.961 . S
C1790 H1804 0.961 . S
C1791 C1788 1.539 . S
C1791 H1805 0.958 . S
C1791 H1806 0.961 . S
C1791 H1807 0.960 . S
H1792 C1776 0.931 . S
H1793 C1781 0.929 . S
H1794 C1782 0.960 . S
H1795 C1782 0.962 . S
H1796 C1782 0.960 . S
H1797 C1783 0.961 . S
H1798 C1783 0.961 . S
H1799 C1783 0.961 . S
H1800 C1784 0.931 . S
H1801 C1789 0.930 . S
H1802 C1790 0.956 . S
H1803 C1790 0.961 . S
H1804 C1790 0.961 . S
H1805 C1791 0.958 . S
H1806 C1791 0.961 . S
H1807 C1791 0.960 . S
C1808 C1809 1.391 . S
C1808 C1810 1.394 1_556 S
C1808 H1824 0.931 . S
C1809 C1808 1.391 . S
C1809 C1813 1.376 . S
C1810 C1808 1.394 1_554 S
C1810 C1811 1.369 1_554 S
C1810 C1814 1.531 . S
C1811 C1810 1.369 1_556 S
C1811 C1812 1.410 . S
C1811 C1819 1.503 1_556 S
C1812 C1811 1.410 . S
C1812 C1813 1.392 . S
C1812 C1815 1.511 . S
C1813 C1809 1.376 . S
C1813 C1812 1.392 . S
C1813 H1825 0.929 . S
C1814 C1810 1.531 . S
C1814 H1826 0.960 . S
C1814 H1827 0.962 . S
C1814 H1828 0.960 . S
C1815 C1812 1.511 . S
C1815 H1829 0.961 . S
C1815 H1830 0.961 . S
C1815 H1831 0.961 . S
C1816 C1817 1.370 . S
C1816 C1818 1.357 1_554 S
C1816 H1832 0.931 . S
C1817 C1816 1.370 . S
C1817 C1821 1.408 . S
C1818 C1816 1.357 1_556 S
C1818 C1819 1.365 1_556 S
C1818 C1822 1.535 . S
C1819 C1811 1.503 1_554 S
C1819 C1818 1.365 1_554 S
C1819 C1820 1.403 . S
C1820 C1819 1.403 . S
C1820 C1821 1.404 . S
C1820 C1823 1.539 . S
C1821 C1817 1.408 . S
C1821 C1820 1.404 . S
C1821 H1833 0.930 . S
C1822 C1818 1.535 . S
C1822 H1834 0.956 . S
C1822 H1835 0.961 . S
C1822 H1836 0.961 . S
C1823 C1820 1.539 . S
C1823 H1837 0.958 . S
C1823 H1838 0.961 . S
C1823 H1839 0.960 . S
H1824 C1808 0.931 . S
H1825 C1813 0.929 . S
H1826 C1814 0.960 . S
H1827 C1814 0.962 . S
H1828 C1814 0.960 . S
H1829 C1815 0.961 . S
H1830 C1815 0.961 . S
H1831 C1815 0.961 . S
H1832 C1816 0.931 . S
H1833 C1821 0.930 . S
H1834 C1822 0.956 . S
H1835 C1822 0.961 . S
H1836 C1822 0.961 . S
H1837 C1823 0.958 . S
H1838 C1823 0.961 . S
H1839 C1823 0.960 . S
C1840 C1841 1.391 . S
C1840 C1842 1.394 . S
C1840 H1856 0.931 . S
C1841 C1840 1.391 . S
C1841 C1845 1.376 . S
C1842 C1840 1.394 . S
C1842 C1843 1.369 . S
C1842 C1846 1.531 . S
C1843 C1842 1.369 . S
C1843 C1844 1.410 . S
C1843 C1851 1.503 . S
C1844 C1843 1.410 . S
C1844 C1845 1.392 . S
C1844 C1847 1.511 . S
C1845 C1841 1.376 . S
C1845 C1844 1.392 . S
C1845 H1857 0.929 . S
C1846 C1842 1.531 . S
C1846 H1858 0.960 . S
C1846 H1859 0.962 . S
C1846 H1860 0.960 . S
C1847 C1844 1.511 . S
C1847 H1861 0.961 . S
C1847 H1862 0.961 . S
C1847 H1863 0.961 . S
C1848 C1849 1.370 . S
C1848 C1850 1.363 . S
C1848 H1864 0.931 . S
C1849 C1848 1.370 . S
C1849 C1853 1.408 . S
C1850 C1848 1.363 . S
C1850 C1851 1.370 . S
C1850 C1854 1.524 . S
C1851 C1843 1.503 . S
C1851 C1850 1.370 . S
C1851 C1852 1.403 . S
C1852 C1851 1.403 . S
C1852 C1853 1.404 . S
C1852 C1855 1.539 . S
C1853 C1849 1.408 . S
C1853 C1852 1.404 . S
C1853 H1865 0.930 . S
C1854 C1850 1.524 . S
C1854 H1866 0.956 . S
C1854 H1867 0.961 . S
C1854 H1868 0.961 . S
C1855 C1852 1.539 . S
C1855 H1869 0.958 . S
C1855 H1870 0.961 . S
C1855 H1871 0.960 . S
H1856 C1840 0.931 . S
H1857 C1845 0.929 . S
H1858 C1846 0.960 . S
H1859 C1846 0.962 . S
H1860 C1846 0.960 . S
H1861 C1847 0.961 . S
H1862 C1847 0.961 . S
H1863 C1847 0.961 . S
H1864 C1848 0.931 . S
H1865 C1853 0.930 . S
H1866 C1854 0.956 . S
H1867 C1854 0.961 . S
H1868 C1854 0.961 . S
H1869 C1855 0.958 . S
H1870 C1855 0.961 . S
H1871 C1855 0.960 . S
C337 C11 1.425 . S
C345 C221 1.442 . S
C369 C25 1.443 . S
C377 C235 1.448 . S
C401 C249 1.457 . S
C409 C39 1.454 . S
C433 C179 1.461 . S
C441 C53 1.459 . S
C465 C193 1.440 . S
C473 C67 1.450 . S
C497 C207 1.436 . S
C505 C81 1.449 . S
C529 C305 1.422 . S
C537 C95 1.441 . S
C561 C109 1.463 . S
C569 C319 1.460 . S
C593 C333 1.440 . S
C601 C123 1.451 . S
C625 C137 1.457 . S
C633 C263 1.454 . S
C657 C277 1.426 . S
C665 C151 1.442 . S
C689 C165 1.475 . S
C697 C291 1.463 . S
C721 C145 1.012 . S
C729 C5 0.993 . S
C753 C159 0.955 . S
C761 C19 0.929 . S
C785 C33 1.043 . S
C793 C89 0.969 . S
C817 C47 0.946 . S
C825 C103 0.995 . S
C849 C117 0.901 . S
C857 C61 0.936 . S
C881 C75 1.042 . S
C889 C131 0.974 . S
C913 C313 1.035 . S
C921 C173 0.965 . S
C945 C187 0.912 . S
C953 C327 0.929 . S
C977 C201 0.956 . S
C985 C257 0.991 . S
C1009 C271 0.964 . S
C1017 C215 0.933 . S
C1041 C229 0.881 . S
C1049 C285 0.955 . S
C1073 C243 1.025 . S
C1081 C299 0.957 . S
C1105 C12 1.179 . S
C1113 C264 1.172 . S
C1137 C278 1.174 . S
C1145 C26 1.172 . S
C1169 C40 1.166 . S
C1177 C292 1.166 . S
C1201 C54 1.161 . S
C1209 C306 1.167 . S
C1233 C320 1.142 . S
C1241 C68 1.158 . S
C1265 C82 1.164 . S
C1273 C334 1.168 . S
C1297 C96 1.183 . S
C1305 C180 1.175 . S
C1329 C110 1.167 . S
C1337 C194 1.169 . S
C1361 C208 1.163 . S
C1369 C124 1.168 . S
C1393 C222 1.146 . S
C1401 C138 1.159 . S
C1425 C152 1.143 . S
C1433 C236 1.159 . S
C1457 C250 1.153 . S
C1465 C166 1.163 . S
C1489 C88 1.534 . S
C1497 C4 1.520 . S
C1521 C18 1.514 . S
C1529 C102 1.504 . S
C1553 C116 1.489 . S
C1561 C32 1.497 . S
C1585 C130 1.511 . S
C1593 C46 1.502 . S
C1617 C144 1.481 . S
C1625 C60 1.507 . S
C1649 C74 1.532 . S
C1657 C158 1.514 . S
C1681 C256 1.519 . S
C1689 C172 1.502 . S
C1713 C186 1.505 . S
C1721 C270 1.499 . S
C1745 C284 1.480 . S
C1753 C200 1.500 . S
C1777 C298 1.506 . S
C1785 C214 1.499 . S
C1809 C228 1.497 . S
C1817 C312 1.497 . S
C1841 C242 1.478 . S
C1849 C326 1.507 . S
