# Generated by pormake.
# Topology ilc, (8)-cn, num edge types: 1
# Building blocks:
#     Node 0, Type 0, BuildingBlock: LIZSOE_clean_sbu_0, # of connection points: 8
#     Node 1, Type 0, BuildingBlock: LIZSOE_clean_sbu_0, # of connection points: 8
#     Node 2, Type 0, BuildingBlock: LIZSOE_clean_sbu_0, # of connection points: 8
#     Edge 3, Type (0, 0), BuildingBlock: CIFDUS_clean_linker_0, # of connection points: 2
#     Edge 4, Type (0, 0), BuildingBlock: CIFDUS_clean_linker_0, # of connection points: 2
#     Edge 5, Type (0, 0), BuildingBlock: CIFDUS_clean_linker_0, # of connection points: 2
#     Edge 6, Type (0, 0), BuildingBlock: CIFDUS_clean_linker_0, # of connection points: 2
#     Edge 7, Type (0, 0), BuildingBlock: CIFDUS_clean_linker_0, # of connection points: 2
#     Edge 8, Type (0, 0), BuildingBlock: CIFDUS_clean_linker_0, # of connection points: 2
#     Edge 9, Type (0, 0), BuildingBlock: CIFDUS_clean_linker_0, # of connection points: 2
#     Edge 10, Type (0, 0), BuildingBlock: CIFDUS_clean_linker_0, # of connection points: 2
#     Edge 11, Type (0, 0), BuildingBlock: CIFDUS_clean_linker_0, # of connection points: 2
#     Edge 12, Type (0, 0), BuildingBlock: CIFDUS_clean_linker_0, # of connection points: 2
#     Edge 13, Type (0, 0), BuildingBlock: CIFDUS_clean_linker_0, # of connection points: 2
#     Edge 14, Type (0, 0), BuildingBlock: CIFDUS_clean_linker_0, # of connection points: 2
# Relax obj value: 0.480
# Max RMSD: 0.202
# Mean RMSD: 0.202
data_MOF--net-ilc--node1-LIZSOE_clean_sbu_0--edge1-CIFDUS_clean_linker_0
_symmetry_space_group_name_H-M    P1
_symmetry_Int_Tables_number       1
_symmetry_cell_setting            triclinic
loop_
_symmetry_equiv_pos_as_xyz
'x, y, z'
_cell_length_a     17.689343
_cell_length_b     17.676176
_cell_length_c     14.272375
_cell_angle_alpha  91.662755
_cell_angle_beta   90.905881
_cell_angle_gamma 119.08877
loop_
_atom_site_label
_atom_site_type_symbol
_atom_site_fract_x
_atom_site_fract_y
_atom_site_fract_z
_atom_type_partial_charge
Co0 Co 0.08667 0.11038 0.93418 0.0
N1 N 0.97996 0.04195 0.8676 0.0
C2 C 0.90367 1.00521 0.91177 0.0
N3 N 0.87949 0.92863 0.78144 0.0
C4 C 0.96142 0.99667 0.78538 0.0
C5 C 0.84224 0.93661 0.85917 0.0
Co6 Co 0.982 1.03065 0.27601 0.0
N7 N 0.9794 0.96803 0.37782 0.0
N8 N 0.89878 0.83375 0.42698 0.0
C9 C 0.88945 0.89133 0.48384 0.0
C10 C 0.93979 0.97324 0.45451 0.0
C11 C 0.95896 0.88333 0.36724 0.0
Co12 Co 0.07945 0.12203 0.09699 0.0
C13 C 0.92012 1.0015 0.21587 0.0
H14 H 0.93754 1.03053 0.47899 0.0
O15 O 0.18881 0.17957 0.99767 0.0
O16 O 0.16349 0.08461 0.15558 0.0
O17 O 1.01242 0.99545 1.03744 0.0
O18 O 1.00224 0.16869 1.03247 0.0
O19 O 0.07766 0.20948 0.91095 0.0
O20 O 0.08361 1.03531 0.27049 0.0
O21 O 0.97594 0.07817 0.18249 0.0
O22 O 0.04915 0.14422 0.33386 0.0
O23 O 0.10478 1.00925 0.93942 0.0
O24 O 0.1491 0.1361 0.84373 0.0
O25 O 0.12474 0.22098 0.20466 0.0
O26 O 0.92981 0.93467 0.19705 0.0
C27 C 1.04225 0.95765 0.98433 0.0
C28 C 0.99516 0.84586 0.29585 0.0
H29 H 1.02784 0.88653 0.23688 0.0
H30 H 1.04428 0.83378 0.33106 0.0
H31 H 0.94188 0.78375 0.26628 0.0
C32 C 0.15221 0.05204 0.23475 0.0
C33 C 1.02174 0.21309 0.95827 0.0
H34 H 0.89456 1.02061 0.98301 0.0
H35 H 0.99067 0.98827 0.6401 0.0
H36 H 0.07661 1.00825 0.72381 0.0
H37 H 0.05245 0.09323 0.6972 0.0
C38 C 1.02355 1.02256 0.70677 0.0
C39 C 0.20882 0.18152 0.90617 0.0
C40 C 0.10383 0.2156 0.29505 0.0
H41 H 0.7792 0.88942 0.88248 0.0
H42 H 0.84593 0.87653 0.54041 0.0
Co43 Co 0.85456 0.47155 0.23185 0.0
N44 N 0.84674 0.43205 0.10618 0.0
C45 C 0.82295 0.46734 1.03719 0.0
N46 N 0.76429 0.32774 1.00162 0.0
C47 C 0.8194 0.34985 1.07584 0.0
C48 C 0.77132 0.403 0.97323 0.0
Co49 Co 0.65521 0.3539 0.58849 0.0
N50 N 0.63823 0.26983 0.67381 0.0
N51 N 0.61903 0.14016 0.71571 0.0
C52 C 0.68886 0.20538 0.76173 0.0
C53 C 0.69931 0.28335 0.73821 0.0
C54 C 0.58797 0.18195 0.66366 0.0
Co55 Co 0.7663 0.46452 0.43156 0.0
C56 C 0.59854 0.35442 0.54678 0.0
H57 H 0.75278 0.3455 0.76083 0.0
O58 O 0.87276 0.51706 0.3461 0.0
O59 O 0.83815 0.42631 0.50592 0.0
O60 O 0.69233 0.34528 0.36787 0.0
O61 O 0.71224 0.51845 0.3402 0.0
O62 O 0.77543 0.51256 0.20442 0.0
O63 O 0.73051 0.30916 0.54059 0.0
O64 O 0.66116 0.4261 0.51092 0.0
O65 O 0.75426 0.45545 0.65974 0.0
O66 O 0.76292 0.35859 0.24427 0.0
O67 O 0.9227 0.42977 0.27766 0.0
O68 O 0.81948 0.55468 0.54406 0.0
O69 O 0.57474 0.27881 0.50701 0.0
C70 C 0.70132 0.3121 0.29308 0.0
C71 C 0.50499 0.13459 0.60534 0.0
H72 H 0.51996 0.12673 0.53168 0.0
H73 H 0.46356 0.06821 0.62865 0.0
H74 H 0.46743 0.16967 0.60874 0.0
C75 C 0.81124 0.35473 0.54171 0.0
C76 C 0.72333 0.52972 0.2495 0.0
H77 H 0.83018 0.53176 1.04105 0.0
H78 H 0.87691 0.26869 1.05749 0.0
H79 H 0.79813 0.23512 0.14585 0.0
H80 H 0.90511 0.32506 0.16732 0.0
C81 C 0.8515 0.29216 0.11527 0.0
C82 C 0.92136 0.50241 0.28357 0.0
C83 C 0.80964 0.53332 0.63387 0.0
H84 H 0.7312 0.40883 0.91892 0.0
H85 H 0.72888 0.19862 0.81349 0.0
Co86 Co 0.50478 0.82048 0.57597 0.0
N87 N 0.50468 0.80052 0.44557 0.0
C88 C 0.52731 0.86518 0.38572 0.0
N89 N 0.53911 0.7618 0.30838 0.0
C90 C 0.51091 0.73755 0.39617 0.0
C91 C 0.54787 0.84144 0.30184 0.0
Co92 Co 0.32538 0.70983 0.96453 0.0
N93 N 0.32123 0.6734 1.07997 0.0
N94 N 0.24842 0.5169 0.22504 0.0
C95 C 0.30221 0.62919 0.31293 0.0
C96 C 0.34759 0.73628 0.20404 0.0
C97 C 0.26619 0.54586 1.08391 0.0
Co98 Co 0.4168 0.78965 0.77735 0.0
C99 C 0.26311 0.75765 0.91238 0.0
H100 H 0.37555 0.8056 0.21603 0.0
O101 O 0.5244 0.85113 0.69509 0.0
O102 O 0.48237 0.74022 0.85611 0.0
O103 O 0.36337 0.67377 0.70639 0.0
O104 O 0.35905 0.84127 0.68567 0.0
O105 O 0.44547 0.88159 0.5592 0.0
O106 O 0.37078 0.6368 0.9244 0.0
O107 O 0.3067 0.73387 0.85309 0.0
O108 O 0.43973 0.80748 0.99127 0.0
O109 O 0.39269 0.71581 0.56523 0.0
O110 O 0.55235 0.75419 0.61312 0.0
O111 O 0.45945 0.89238 0.87217 0.0
O112 O 0.29438 0.787 0.99586 0.0
C113 C 0.34858 0.65685 0.61973 0.0
C114 C 0.22986 0.48013 1.00452 0.0
H115 H 0.22714 0.50938 0.93807 0.0
H116 H 0.26993 0.44801 0.9973 0.0
H117 H 0.16417 0.42915 1.02215 0.0
C118 C 0.44912 0.6696 0.90122 0.0
C119 C 0.38127 0.8774 0.60367 0.0
H120 H 0.53467 0.92824 0.40407 0.0
H121 H 0.54894 0.64271 0.4329 0.0
H122 H 0.43592 0.59856 0.3972 0.0
H123 H 0.47266 0.64666 0.50782 0.0
C124 C 0.49157 0.65224 0.43559 0.0
C125 C 0.56821 0.83301 0.62884 0.0
C126 C 0.46733 0.88311 0.96108 0.0
H127 H 0.56731 0.8793 0.24021 0.0
H128 H 0.30519 0.63396 0.38854 0.0
H129 H 0.97615 0.85985 0.72271 0.0
H130 H 0.71281 0.80995 0.73266 0.0
H131 H 0.66938 0.69391 0.61075 0.0
H132 H 0.7311 0.68807 0.4548 0.0
H133 H 0.98763 0.73654 0.44131 0.0
H134 H 1.01754 0.7834 0.60555 0.0
C135 C 0.90929 0.82397 0.69874 0.0
C136 C 0.8494 0.84872 0.7286 0.0
C137 C 0.88665 0.76213 0.62706 0.0
C138 C 0.76101 0.79525 0.70493 0.0
C139 C 0.73613 0.72867 0.63622 0.0
C140 C 0.7912 0.7023 0.49086 0.0
C141 C 0.86869 0.74312 0.44223 0.0
C142 C 0.80085 0.7215 0.58797 0.0
C143 C 0.93505 0.732 0.48247 0.0
C144 C 0.95209 0.7571 0.57697 0.0
H145 H 0.45639 0.06856 0.78896 0.0
H146 H 0.65058 0.99739 0.74917 0.0
H147 H 0.69605 1.03028 0.91243 0.0
H148 H 0.74961 0.1692 0.99596 0.0
H149 H 0.6004 0.30238 0.99186 0.0
H150 H 0.48037 0.17706 0.9112 0.0
C151 C 0.50913 0.06046 0.81716 0.0
C152 C 0.56781 0.05663 0.75504 0.0
C153 C 0.5502 0.10528 0.90101 0.0
C154 C 0.61598 1.01978 0.79311 0.0
C155 C 0.64452 0.04142 0.88675 0.0
C156 C 0.68921 0.16917 0.98479 0.0
C157 C 0.68596 0.24657 0.99193 0.0
C158 C 0.62382 0.09962 0.9337 0.0
C159 C 0.60629 0.24508 0.97757 0.0
C160 C 0.53734 0.17336 0.93304 0.0
H161 H 0.3213 0.40723 0.26206 0.0
H162 H 0.111 0.48366 0.2366 0.0
H163 H 0.33093 0.6224 0.18669 0.0
H164 H 0.47714 0.75009 0.13062 0.0
H165 H 0.59795 0.64251 0.28605 0.0
H166 H 0.4775 0.49679 0.25779 0.0
C167 C 0.31135 0.46056 0.24253 0.0
C168 C 0.22242 0.44533 0.2483 0.0
C169 C 0.38925 0.54274 0.21815 0.0
C170 C 0.18148 0.51174 0.22416 0.0
C171 C 0.22853 0.61409 0.18494 0.0
C172 C 0.46668 0.69269 0.1657 0.0
C173 C 0.53141 0.70575 0.22982 0.0
C174 C 0.37662 0.62209 0.18896 0.0
C175 C 0.54175 0.63419 0.24645 0.0
C176 C 0.47104 0.55146 0.2354 0.0
H177 H 0.38988 0.91229 0.41685 0.0
H178 H 0.25603 0.91936 0.66474 0.0
H179 H 0.18022 0.97938 0.5726 0.0
H180 H 0.15303 1.0303 0.4227 0.0
H181 H 0.28094 1.01572 0.17347 0.0
H182 H 0.36128 0.96102 0.26693 0.0
C183 C 0.34484 0.92736 0.45213 0.0
C184 C 0.33011 0.91143 0.5496 0.0
C185 C 0.30164 0.96191 0.39842 0.0
C186 C 0.26942 0.93037 0.59113 0.0
C187 C 0.22637 0.96527 0.53812 0.0
C188 C 0.19865 1.01555 0.38801 0.0
C189 C 0.21111 1.02844 0.28992 0.0
C190 C 0.24224 0.98153 0.4419 0.0
C191 C 0.27113 1.00889 0.24806 0.0
C192 C 0.31618 0.97648 0.3017 0.0
H193 H 0.18541 0.5621 0.53027 0.0
H194 H 0.40824 0.54204 0.62052 0.0
H195 H 0.35926 0.4114 0.52109 0.0
H196 H 0.25248 0.29842 0.40855 0.0
H197 H 1.01911 0.30552 0.33497 0.0
H198 H 0.06689 0.43703 0.43555 0.0
C199 C 0.22146 0.52706 0.53135 0.0
C200 C 0.30241 0.56428 0.58103 0.0
C201 C 0.189 0.44634 0.47957 0.0
C202 C 0.34675 0.51642 0.58224 0.0
C203 C 0.31807 0.44031 0.52618 0.0
C204 C 0.21244 0.32913 0.41397 0.0
C205 C 0.13481 0.29505 0.35887 0.0
C206 C 0.23975 0.40455 0.47371 0.0
C207 C 0.08106 0.33256 0.37254 0.0
C208 C 0.10829 0.40784 0.43069 0.0
H209 H 0.66227 0.79222 0.51012 0.0
H210 H 0.65242 1.02254 0.59776 0.0
H211 H 0.76204 0.10306 0.4806 0.0
H212 H 0.86218 0.1009 0.34276 0.0
H213 H 0.78171 0.84477 0.22181 0.0
H214 H 0.70061 0.78087 0.35533 0.0
C215 C 0.68169 0.86009 0.50673 0.0
C216 C 0.64898 0.89896 0.57158 0.0
C217 C 0.72665 0.90086 0.42628 0.0
C218 C 0.67824 0.98836 0.55749 0.0
C219 C 0.739 1.0344 0.48616 0.0
C220 C 0.82323 1.03104 0.34248 0.0
C221 C 0.83629 0.97852 0.27178 0.0
C222 C 0.76328 0.99054 0.41773 0.0
C223 C 0.77958 0.88856 0.27423 0.0
C224 C 0.73232 0.85068 0.3524 0.0
H225 H 0.78701 0.202 0.61784 0.0
H226 H 0.97028 0.47434 0.61875 0.0
H227 H 0.04973 0.4594 0.75235 0.0
H228 H 0.06352 0.36792 0.87633 0.0
H229 H 0.85055 0.11124 0.90346 0.0
H230 H 0.79515 0.11596 0.74806 0.0
C231 C 0.84434 0.25821 0.64713 0.0
C232 C 0.86947 0.33987 0.60954 0.0
C233 C 0.88647 0.25059 0.72939 0.0
C234 C 0.94663 0.41091 0.647 0.0
C235 C 0.99203 0.40262 0.72464 0.0
C236 C 1.00132 0.31492 0.85223 0.0
C237 C 0.96411 0.23684 0.90182 0.0
C238 C 0.96033 0.32345 0.76938 0.0
C239 C 0.88488 0.16939 0.86575 0.0
C240 C 0.85189 0.17285 0.77683 0.0
H241 H 0.76001 0.59607 0.79002 0.0
H242 H 0.98682 0.61553 0.66096 0.0
H243 H 0.0794 0.73717 0.76929 0.0
H244 H 0.0953 0.8588 0.87671 0.0
H245 H 0.87019 0.83851 1.01049 0.0
H246 H 0.77927 0.69997 0.92441 0.0
C247 C 0.82978 0.62574 0.78661 0.0
C248 C 0.86564 0.59867 0.71241 0.0
C249 C 0.88366 0.69739 0.8501 0.0
C250 C 0.9565 0.63611 0.7136 0.0
C251 C 1.00993 0.7062 0.77643 0.0
C252 C 1.02681 0.82291 0.89017 0.0
C253 C 0.99038 0.86213 0.94964 0.0
C254 C 0.97443 0.74093 0.84144 0.0
C255 C 0.90102 0.81236 0.96507 0.0
C256 C 0.84853 0.73218 0.91561 0.0
H257 H 0.59286 0.38392 0.74088 0.0
H258 H 0.43649 0.31246 0.48496 0.0
H259 H 0.30626 0.25792 0.57595 0.0
H260 H 0.23531 0.22107 0.72315 0.0
H261 H 0.38216 0.27113 0.98383 0.0
H262 H 0.51711 0.34793 0.8962 0.0
C263 C 0.53061 0.35964 0.70477 0.0
C264 C 0.52623 0.35546 0.60419 0.0
C265 C 0.45392 0.32421 0.75873 0.0
C266 C 0.44359 0.32017 0.56073 0.0
C267 C 0.36851 0.28725 0.61326 0.0
C268 C 0.29618 0.24779 0.76292 0.0
C269 C 0.29624 0.23838 0.86204 0.0
C270 C 0.37274 0.28753 0.71175 0.0
C271 C 0.37793 0.27654 0.9088 0.0
C272 C 0.45554 0.31992 0.85796 0.0
H273 H 0.57414 0.44692 0.13756 0.0
H274 H 0.78771 0.69956 0.20952 0.0
H275 H 0.73482 0.76302 1.09087 0.0
H276 H 0.61612 0.75197 0.98481 0.0
H277 H 0.39952 0.49913 0.91857 0.0
H278 H 0.46204 0.43357 1.02026 0.0
C279 C 0.6078 0.51645 0.12984 0.0
C280 C 0.68117 0.569 0.18939 0.0
C281 C 0.57605 0.5535 1.06238 0.0
C282 C 0.7275 0.65801 0.1711 0.0
C283 C 0.69782 0.69451 0.10245 0.0
C284 C 0.58397 0.68216 0.98964 0.0
C285 C 0.50182 0.63118 0.94366 0.0
C286 C 0.62044 0.64379 1.04976 0.0
C287 C 0.46156 0.54076 0.9535 0.0
C288 C 0.49786 0.50268 1.01133 0.0
H289 H 0.59728 0.94922 0.09832 0.0
H290 H 0.37928 0.97225 0.99731 0.0
H291 H 0.42241 0.09966 0.1031 0.0
H292 H 0.5395 0.22184 0.20167 0.0
H293 H 0.74652 0.18768 0.31784 0.0
H294 H 0.69045 0.0486 0.23049 0.0
C295 C 0.55815 0.98102 0.10093 0.0
C296 C 0.48832 0.95432 1.03493 0.0
C297 C 0.58244 0.05378 0.16403 0.0
C298 C 0.43594 0.99379 1.04325 0.0
C299 C 0.46033 0.0666 0.10465 0.0
C300 C 0.57046 0.18248 0.21092 0.0
C301 C 0.64862 0.21684 0.26553 0.0
C302 C 0.53642 0.10046 0.16154 0.0
C303 C 0.68693 0.16383 0.27627 0.0
C304 C 0.65517 0.08417 0.22544 0.0
H305 H 0.15248 0.80069 1.00273 0.0
H306 H 0.16085 0.58337 0.86832 0.0
H307 H 0.06345 0.48861 0.98473 0.0
H308 H 1.00636 0.47502 0.1396 0.0
H309 H 0.98096 0.6817 0.27359 0.0
H310 H 0.06454 0.77787 0.14597 0.0
C311 C 0.12923 0.73156 0.99545 0.0
C312 C 0.16827 0.70036 0.92833 0.0
C313 C 0.07811 0.67847 1.06732 0.0
C314 C 0.13548 0.61047 0.91987 0.0
C315 C 0.08187 0.55672 0.98859 0.0
C316 C 1.0193 0.54146 0.14338 0.0
C317 C 0.98827 0.57162 0.21941 0.0
C318 C 0.05916 0.59176 1.0662 0.0
C319 C 1.00476 0.65744 0.21796 0.0
C320 C 0.05085 0.7111 0.14389 0.0
loop_
_geom_bond_atom_site_label_1
_geom_bond_atom_site_label_2
_geom_bond_distance
_geom_bond_site_symmetry_2
_ccdc_geom_bond_type
Co0 N1 2.034 1_455 S
Co0 O15 2.262 . S
Co0 O19 1.958 1_455 S
Co0 O23 1.950 1_445 S
Co0 O24 2.057 . S
N1 Co0 2.034 1_655 S
N1 C2 1.366 . S
N1 C4 1.332 1_645 S
C2 N1 1.366 . S
C2 C5 1.377 . S
C2 H34 0.931 . S
N3 C4 1.346 1_655 S
N3 C5 1.337 1_565 S
C4 N1 1.332 1_465 S
C4 N3 1.346 1_455 S
C4 C38 1.361 . S
C5 C2 1.377 . S
C5 N3 1.337 1_545 S
C5 H41 0.930 . S
Co6 N7 2.034 1_655 S
Co6 O20 1.950 1_645 S
Co6 O21 2.262 1_545 S
Co6 O22 1.958 1_655 S
Co6 O26 2.057 1_545 S
N7 Co6 2.034 1_455 S
N7 C10 1.366 . S
N7 C11 1.332 1_445 S
N8 C9 1.337 1_565 S
N8 C11 1.346 1_455 S
C9 N8 1.337 1_545 S
C9 C10 1.377 . S
C9 H42 0.930 . S
C10 N7 1.366 . S
C10 C9 1.377 . S
C10 H14 0.931 . S
C11 N7 1.332 1_665 S
C11 N8 1.346 1_655 S
C11 C28 1.361 . S
Co12 O15 2.097 1_554 S
Co12 O16 2.065 1_545 S
Co12 O17 2.065 1_444 S
Co12 O18 2.042 1_454 S
Co12 O21 2.097 1_445 S
Co12 O25 2.042 . S
C13 O21 1.253 . S
C13 O26 1.263 . S
H14 C10 0.931 . S
O15 Co0 2.262 . S
O15 Co12 2.097 1_556 S
O15 C39 1.253 . S
O16 Co12 2.065 1_565 S
O16 C32 1.221 . S
O17 Co12 2.065 1_666 S
O17 C27 1.221 . S
O18 Co12 2.042 1_656 S
O18 C33 1.237 . S
O19 Co0 1.958 1_655 S
O19 C33 1.278 . S
O20 Co6 1.950 1_465 S
O20 C32 1.277 . S
O21 Co6 2.262 1_565 S
O21 Co12 2.097 1_665 S
O21 C13 1.253 . S
O22 Co6 1.958 1_455 S
O22 C40 1.278 . S
O23 Co0 1.950 1_665 S
O23 C27 1.277 . S
O24 Co0 2.057 . S
O24 C39 1.263 . S
O25 Co12 2.042 . S
O25 C40 1.237 . S
O26 Co6 2.057 1_565 S
O26 C13 1.263 . S
C27 O17 1.221 . S
C27 O23 1.277 . S
C28 C11 1.361 . S
C28 H29 0.960 . S
C28 H30 0.961 . S
C28 H31 0.961 . S
H29 C28 0.960 . S
H30 C28 0.961 . S
H31 C28 0.961 . S
C32 O16 1.221 . S
C32 O20 1.277 . S
C33 O18 1.237 . S
C33 O19 1.278 . S
H34 C2 0.931 . S
H35 C38 0.961 . S
H36 C38 0.961 . S
H37 C38 0.960 . S
C38 C4 1.361 . S
C38 H35 0.961 . S
C38 H36 0.961 . S
C38 H37 0.960 . S
C39 O15 1.253 . S
C39 O24 1.263 . S
C40 O22 1.278 . S
C40 O25 1.237 . S
H41 C5 0.930 . S
H42 C9 0.930 . S
Co43 N44 2.034 . S
Co43 O58 2.262 . S
Co43 O62 1.958 . S
Co43 O66 1.950 . S
Co43 O67 2.057 . S
N44 Co43 2.034 . S
N44 C45 1.366 1_554 S
N44 C47 1.332 1_554 S
C45 N44 1.366 1_556 S
C45 C48 1.377 . S
C45 H77 0.931 . S
N46 C47 1.346 . S
N46 C48 1.337 . S
C47 N44 1.332 1_556 S
C47 N46 1.346 . S
C47 C81 1.361 . S
C48 C45 1.377 . S
C48 N46 1.337 . S
C48 H84 0.930 . S
Co49 N50 2.034 . S
Co49 O63 1.950 . S
Co49 O64 2.262 . S
Co49 O65 1.958 . S
Co49 O69 2.057 . S
N50 Co49 2.034 . S
N50 C53 1.366 . S
N50 C54 1.332 . S
N51 C52 1.337 . S
N51 C54 1.346 . S
C52 N51 1.337 . S
C52 C53 1.377 . S
C52 H85 0.930 . S
C53 N50 1.366 . S
C53 C52 1.377 . S
C53 H57 0.931 . S
C54 N50 1.332 . S
C54 N51 1.346 . S
C54 C71 1.361 . S
Co55 O58 2.097 . S
Co55 O59 2.065 . S
Co55 O60 2.065 . S
Co55 O61 2.042 . S
Co55 O64 2.097 . S
Co55 O68 2.042 . S
C56 O64 1.253 . S
C56 O69 1.263 . S
H57 C53 0.931 . S
O58 Co43 2.262 . S
O58 Co55 2.097 . S
O58 C82 1.253 . S
O59 Co55 2.065 . S
O59 C75 1.221 . S
O60 Co55 2.065 . S
O60 C70 1.221 . S
O61 Co55 2.042 . S
O61 C76 1.237 . S
O62 Co43 1.958 . S
O62 C76 1.278 . S
O63 Co49 1.950 . S
O63 C75 1.277 . S
O64 Co49 2.262 . S
O64 Co55 2.097 . S
O64 C56 1.253 . S
O65 Co49 1.958 . S
O65 C83 1.278 . S
O66 Co43 1.950 . S
O66 C70 1.277 . S
O67 Co43 2.057 . S
O67 C82 1.263 . S
O68 Co55 2.042 . S
O68 C83 1.237 . S
O69 Co49 2.057 . S
O69 C56 1.263 . S
C70 O60 1.221 . S
C70 O66 1.277 . S
C71 C54 1.361 . S
C71 H72 0.960 . S
C71 H73 0.961 . S
C71 H74 0.961 . S
H72 C71 0.960 . S
H73 C71 0.961 . S
H74 C71 0.961 . S
C75 O59 1.221 . S
C75 O63 1.277 . S
C76 O61 1.237 . S
C76 O62 1.278 . S
H77 C45 0.931 . S
H78 C81 0.961 . S
H79 C81 0.961 . S
H80 C81 0.960 1_554 S
C81 C47 1.361 . S
C81 H78 0.961 . S
C81 H79 0.961 . S
C81 H80 0.960 1_556 S
C82 O58 1.253 . S
C82 O67 1.263 . S
C83 O65 1.278 . S
C83 O68 1.237 . S
H84 C48 0.930 . S
H85 C52 0.930 . S
Co86 N87 2.034 . S
Co86 O101 2.262 . S
Co86 O105 1.958 . S
Co86 O109 1.950 . S
Co86 O110 2.057 . S
N87 Co86 2.034 . S
N87 C88 1.366 . S
N87 C90 1.332 . S
C88 N87 1.366 . S
C88 C91 1.377 . S
C88 H120 0.931 . S
N89 C90 1.346 . S
N89 C91 1.337 . S
C90 N87 1.332 . S
C90 N89 1.346 . S
C90 C124 1.361 . S
C91 C88 1.377 . S
C91 N89 1.337 . S
C91 H127 0.930 . S
Co92 N93 2.034 . S
Co92 O106 1.950 . S
Co92 O107 2.262 . S
Co92 O108 1.958 . S
Co92 O112 2.057 . S
N93 Co92 2.034 . S
N93 C96 1.366 1_556 S
N93 C97 1.332 1_556 S
N94 C95 1.337 . S
N94 C97 1.346 . S
C95 N94 1.337 . S
C95 C96 1.377 . S
C95 H128 0.930 . S
C96 N93 1.366 1_554 S
C96 C95 1.377 . S
C96 H100 0.931 . S
C97 N93 1.332 1_554 S
C97 N94 1.346 . S
C97 C114 1.361 . S
Co98 O101 2.097 . S
Co98 O102 2.065 . S
Co98 O103 2.065 . S
Co98 O104 2.042 . S
Co98 O107 2.097 . S
Co98 O111 2.042 . S
C99 O107 1.253 . S
C99 O112 1.263 . S
H100 C96 0.931 . S
O101 Co86 2.262 . S
O101 Co98 2.097 . S
O101 C125 1.253 . S
O102 Co98 2.065 . S
O102 C118 1.221 . S
O103 Co98 2.065 . S
O103 C113 1.221 . S
O104 Co98 2.042 . S
O104 C119 1.237 . S
O105 Co86 1.958 . S
O105 C119 1.278 . S
O106 Co92 1.950 . S
O106 C118 1.277 . S
O107 Co92 2.262 . S
O107 Co98 2.097 . S
O107 C99 1.253 . S
O108 Co92 1.958 . S
O108 C126 1.278 . S
O109 Co86 1.950 . S
O109 C113 1.277 . S
O110 Co86 2.057 . S
O110 C125 1.263 . S
O111 Co98 2.042 . S
O111 C126 1.237 . S
O112 Co92 2.057 . S
O112 C99 1.263 . S
C113 O103 1.221 . S
C113 O109 1.277 . S
C114 C97 1.361 . S
C114 H115 0.960 1_554 S
C114 H116 0.961 . S
C114 H117 0.961 . S
H115 C114 0.960 1_556 S
H116 C114 0.961 . S
H117 C114 0.961 . S
C118 O102 1.221 . S
C118 O106 1.277 . S
C119 O104 1.237 . S
C119 O105 1.278 . S
H120 C88 0.931 . S
H121 C124 0.961 . S
H122 C124 0.961 . S
H123 C124 0.960 . S
C124 C90 1.361 . S
C124 H121 0.961 . S
C124 H122 0.961 . S
C124 H123 0.960 . S
C125 O101 1.253 . S
C125 O110 1.263 . S
C126 O108 1.278 . S
C126 O111 1.237 . S
H127 C91 0.930 . S
H128 C95 0.930 . S
H129 C135 0.930 1_565 S
H130 C138 0.930 . S
H131 C139 0.930 1_655 S
H132 C140 0.930 . S
H133 C143 0.930 . S
H134 C144 0.930 1_455 S
C135 H129 0.930 1_545 S
C135 C136 1.355 . S
C135 C137 1.415 1_545 S
C136 C135 1.355 . S
C136 C138 1.419 . S
C137 C135 1.415 1_565 S
C137 C142 1.425 1_455 S
C137 C144 1.409 1_455 S
C138 H130 0.930 . S
C138 C136 1.419 . S
C138 C139 1.362 . S
C139 H131 0.930 1_455 S
C139 C138 1.362 . S
C139 C142 1.409 1_445 S
C140 H132 0.930 . S
C140 C141 1.355 . S
C140 C142 1.415 . S
C141 C140 1.355 . S
C141 C143 1.419 . S
C142 C137 1.425 1_655 S
C142 C139 1.409 1_665 S
C142 C140 1.415 . S
C143 H133 0.930 . S
C143 C141 1.419 . S
C143 C144 1.362 . S
C144 H134 0.930 1_655 S
C144 C137 1.409 1_655 S
C144 C143 1.362 . S
H145 C151 0.930 . S
H146 C154 0.930 . S
H147 C155 0.930 . S
H148 C156 0.930 . S
H149 C159 0.930 . S
H150 C160 0.930 . S
C151 H145 0.930 . S
C151 C152 1.355 . S
C151 C153 1.415 . S
C152 C151 1.355 . S
C152 C154 1.419 . S
C153 C151 1.415 . S
C153 C158 1.425 . S
C153 C160 1.409 . S
C154 H146 0.930 . S
C154 C152 1.419 . S
C154 C155 1.362 . S
C155 H147 0.930 . S
C155 C154 1.362 . S
C155 C158 1.409 . S
C156 H148 0.930 . S
C156 C157 1.355 . S
C156 C158 1.415 . S
C157 C156 1.355 . S
C157 C159 1.419 . S
C158 C153 1.425 . S
C158 C155 1.409 . S
C158 C156 1.415 . S
C159 H149 0.930 . S
C159 C157 1.419 . S
C159 C160 1.362 . S
C160 H150 0.930 . S
C160 C153 1.409 . S
C160 C159 1.362 . S
H161 C167 0.930 . S
H162 C170 0.930 1_556 S
H163 C171 0.930 . S
H164 C172 0.930 . S
H165 C175 0.930 . S
H166 C176 0.930 . S
C167 H161 0.930 . S
C167 C168 1.355 . S
C167 C169 1.415 . S
C168 C167 1.355 . S
C168 C170 1.419 . S
C169 C167 1.415 . S
C169 C174 1.425 . S
C169 C176 1.409 . S
C170 H162 0.930 1_554 S
C170 C168 1.419 . S
C170 C171 1.362 . S
C171 H163 0.930 . S
C171 C170 1.362 . S
C171 C174 1.409 . S
C172 H164 0.930 . S
C172 C173 1.355 . S
C172 C174 1.415 . S
C173 C172 1.355 . S
C173 C175 1.419 . S
C174 C169 1.425 . S
C174 C171 1.409 . S
C174 C172 1.415 . S
C175 H165 0.930 . S
C175 C173 1.419 . S
C175 C176 1.362 . S
C176 H166 0.930 . S
C176 C169 1.409 . S
C176 C175 1.362 . S
H177 C183 0.930 . S
H178 C186 0.930 . S
H179 C187 0.930 . S
H180 C188 0.930 . S
H181 C191 0.930 1_655 S
H182 C192 0.928 1_655 S
C183 H177 0.930 . S
C183 C184 1.355 . S
C183 C185 1.415 . S
C184 C183 1.355 . S
C184 C186 1.419 . S
C185 C183 1.415 . S
C185 C190 1.425 . S
C185 C192 1.409 . S
C186 H178 0.930 . S
C186 C184 1.419 . S
C186 C187 1.362 . S
C187 H179 0.930 . S
C187 C186 1.362 . S
C187 C190 1.409 . S
C188 H180 0.930 . S
C188 C189 1.355 . S
C188 C190 1.415 . S
C189 C188 1.355 . S
C189 C191 1.419 . S
C190 C185 1.425 . S
C190 C187 1.409 . S
C190 C188 1.415 . S
C191 H181 0.930 1_455 S
C191 C189 1.419 . S
C191 C192 1.362 . S
C192 H182 0.928 1_455 S
C192 C185 1.409 . S
C192 C191 1.362 . S
H193 C199 0.930 . S
H194 C202 0.930 . S
H195 C203 0.930 . S
H196 C204 0.930 . S
H197 C207 0.930 . S
H198 C208 0.930 . S
C199 H193 0.930 . S
C199 C200 1.355 . S
C199 C201 1.415 . S
C200 C199 1.355 . S
C200 C202 1.419 . S
C201 C199 1.415 . S
C201 C206 1.425 . S
C201 C208 1.409 . S
C202 H194 0.930 . S
C202 C200 1.419 . S
C202 C203 1.362 . S
C203 H195 0.930 . S
C203 C202 1.362 . S
C203 C206 1.409 . S
C204 H196 0.930 . S
C204 C205 1.355 . S
C204 C206 1.415 . S
C205 C204 1.355 . S
C205 C207 1.419 . S
C206 C201 1.425 . S
C206 C203 1.409 . S
C206 C204 1.415 . S
C207 H197 0.930 . S
C207 C205 1.419 . S
C207 C208 1.362 . S
C208 H198 0.930 . S
C208 C201 1.409 . S
C208 C207 1.362 . S
H209 C215 0.930 . S
H210 C218 0.930 . S
H211 C219 0.930 . S
H212 C220 0.930 . S
H213 C223 0.930 . S
H214 C224 0.930 . S
C215 H209 0.930 . S
C215 C216 1.355 . S
C215 C217 1.415 . S
C216 C215 1.355 . S
C216 C218 1.419 . S
C217 C215 1.415 . S
C217 C222 1.425 . S
C217 C224 1.409 . S
C218 H210 0.930 . S
C218 C216 1.419 . S
C218 C219 1.362 . S
C219 H211 0.930 . S
C219 C218 1.362 . S
C219 C222 1.409 . S
C220 H212 0.930 . S
C220 C221 1.355 . S
C220 C222 1.415 . S
C221 C220 1.355 . S
C221 C223 1.419 . S
C222 C217 1.425 . S
C222 C219 1.409 . S
C222 C220 1.415 . S
C223 H213 0.930 . S
C223 C221 1.419 . S
C223 C224 1.362 . S
C224 H214 0.930 . S
C224 C217 1.409 . S
C224 C223 1.362 . S
H225 C231 0.930 . S
H226 C234 0.930 . S
H227 C235 0.930 . S
H228 C236 0.930 . S
H229 C239 0.930 . S
H230 C240 0.930 . S
C231 H225 0.930 . S
C231 C232 1.355 . S
C231 C233 1.415 . S
C232 C231 1.355 . S
C232 C234 1.419 . S
C233 C231 1.415 . S
C233 C238 1.425 . S
C233 C240 1.409 . S
C234 H226 0.930 . S
C234 C232 1.419 . S
C234 C235 1.362 . S
C235 H227 0.930 . S
C235 C234 1.362 . S
C235 C238 1.409 . S
C236 H228 0.930 . S
C236 C237 1.355 . S
C236 C238 1.415 . S
C237 C236 1.355 . S
C237 C239 1.419 . S
C238 C233 1.425 . S
C238 C235 1.409 . S
C238 C236 1.415 . S
C239 H229 0.930 . S
C239 C237 1.419 . S
C239 C240 1.362 . S
C240 H230 0.930 . S
C240 C233 1.409 . S
C240 C239 1.362 . S
H241 C247 0.930 . S
H242 C250 0.930 . S
H243 C251 0.930 . S
H244 C252 0.930 . S
H245 C255 0.930 . S
H246 C256 0.930 . S
C247 H241 0.930 . S
C247 C248 1.355 . S
C247 C249 1.415 . S
C248 C247 1.355 . S
C248 C250 1.419 . S
C249 C247 1.415 . S
C249 C254 1.425 . S
C249 C256 1.409 . S
C250 H242 0.930 . S
C250 C248 1.419 . S
C250 C251 1.362 . S
C251 H243 0.930 . S
C251 C250 1.362 . S
C251 C254 1.409 . S
C252 H244 0.930 . S
C252 C253 1.355 . S
C252 C254 1.415 . S
C253 C252 1.355 . S
C253 C255 1.419 . S
C254 C249 1.425 . S
C254 C251 1.409 . S
C254 C252 1.415 . S
C255 H245 0.930 . S
C255 C253 1.419 . S
C255 C256 1.362 . S
C256 H246 0.930 . S
C256 C249 1.409 . S
C256 C255 1.362 . S
H257 C263 0.930 . S
H258 C266 0.930 . S
H259 C267 0.930 . S
H260 C268 0.930 . S
H261 C271 0.930 . S
H262 C272 0.930 . S
C263 H257 0.930 . S
C263 C264 1.355 . S
C263 C265 1.415 . S
C264 C263 1.355 . S
C264 C266 1.419 . S
C265 C263 1.415 . S
C265 C270 1.425 . S
C265 C272 1.409 . S
C266 H258 0.930 . S
C266 C264 1.419 . S
C266 C267 1.362 . S
C267 H259 0.930 . S
C267 C266 1.362 . S
C267 C270 1.409 . S
C268 H260 0.930 . S
C268 C269 1.355 . S
C268 C270 1.415 . S
C269 C268 1.355 . S
C269 C271 1.419 . S
C270 C265 1.425 . S
C270 C267 1.409 . S
C270 C268 1.415 . S
C271 H261 0.930 . S
C271 C269 1.419 . S
C271 C272 1.362 . S
C272 H262 0.930 . S
C272 C265 1.409 . S
C272 C271 1.362 . S
H273 C279 0.930 . S
H274 C282 0.930 . S
H275 C283 0.930 . S
H276 C284 0.930 . S
H277 C287 0.930 . S
H278 C288 0.930 . S
C279 H273 0.930 . S
C279 C280 1.355 . S
C279 C281 1.415 . S
C280 C279 1.355 . S
C280 C282 1.419 . S
C281 C279 1.415 . S
C281 C286 1.425 1_554 S
C281 C288 1.409 . S
C282 H274 0.930 . S
C282 C280 1.419 . S
C282 C283 1.362 1_554 S
C283 H275 0.930 . S
C283 C282 1.362 1_556 S
C283 C286 1.409 . S
C284 H276 0.930 . S
C284 C285 1.355 . S
C284 C286 1.415 . S
C285 C284 1.355 . S
C285 C287 1.419 . S
C286 C281 1.425 1_556 S
C286 C283 1.409 . S
C286 C284 1.415 . S
C287 H277 0.930 . S
C287 C285 1.419 . S
C287 C288 1.362 1_556 S
C288 H278 0.930 . S
C288 C281 1.409 . S
C288 C287 1.362 1_554 S
H289 C295 0.930 . S
H290 C298 0.930 . S
H291 C299 0.930 . S
H292 C300 0.930 . S
H293 C303 0.930 . S
H294 C304 0.930 . S
C295 H289 0.930 . S
C295 C296 1.355 . S
C295 C297 1.415 1_565 S
C296 C295 1.355 . S
C296 C298 1.419 . S
C297 C295 1.415 1_545 S
C297 C302 1.425 1_556 S
C297 C304 1.409 1_556 S
C298 H290 0.930 . S
C298 C296 1.419 . S
C298 C299 1.362 . S
C299 H291 0.930 . S
C299 C298 1.362 . S
C299 C302 1.409 1_566 S
C300 H292 0.930 . S
C300 C301 1.355 . S
C300 C302 1.415 . S
C301 C300 1.355 . S
C301 C303 1.419 . S
C302 C297 1.425 1_554 S
C302 C299 1.409 1_544 S
C302 C300 1.415 . S
C303 H293 0.930 . S
C303 C301 1.419 . S
C303 C304 1.362 . S
C304 H294 0.930 . S
C304 C297 1.409 1_554 S
C304 C303 1.362 . S
H305 C311 0.930 . S
H306 C314 0.930 . S
H307 C315 0.930 . S
H308 C316 0.930 . S
H309 C319 0.930 . S
H310 C320 0.930 . S
C311 H305 0.930 . S
C311 C312 1.355 . S
C311 C313 1.415 1_455 S
C312 C311 1.355 . S
C312 C314 1.419 . S
C313 C311 1.415 1_655 S
C313 C318 1.425 1_656 S
C313 C320 1.409 . S
C314 H306 0.930 . S
C314 C312 1.419 . S
C314 C315 1.362 1_556 S
C315 H307 0.930 . S
C315 C314 1.362 1_554 S
C315 C318 1.409 . S
C316 H308 0.930 . S
C316 C317 1.355 . S
C316 C318 1.415 1_655 S
C317 C316 1.355 . S
C317 C319 1.419 . S
C318 C313 1.425 1_454 S
C318 C315 1.409 . S
C318 C316 1.415 1_455 S
C319 H309 0.930 . S
C319 C317 1.419 . S
C319 C320 1.362 1_554 S
C320 H310 0.930 . S
C320 C313 1.409 . S
C320 C319 1.362 1_556 S
C136 N3 2.416 1_445 S
C141 N8 2.435 1_655 S
C152 N51 2.435 . S
C157 N46 2.416 . S
C168 N94 2.401 . S
C173 N89 2.412 . S
C184 C119 2.243 . S
C189 C32 2.252 . S
C200 C113 2.302 . S
C205 C40 2.291 . S
C216 C125 2.168 . S
C221 C13 2.172 . S
C232 C75 2.251 . S
C237 C33 2.252 . S
C248 C83 2.255 . S
C253 C27 2.257 . S
C264 C56 2.177 . S
C269 C39 2.172 . S
C280 C76 2.231 . S
C285 C118 2.235 . S
C296 C126 2.243 . S
C301 C70 2.253 . S
C312 C99 2.106 . S
C317 C82 2.104 . S
