# Generated by pormake.
# Topology lcy-a-x, (5)-cn, num edge types: 1
# Building blocks:
#     Node 0, Type 0, BuildingBlock: XOMCOT_clean_sbu_1, # of connection points: 5
#     Node 1, Type 0, BuildingBlock: XOMCOT_clean_sbu_1, # of connection points: 5
#     Node 2, Type 0, BuildingBlock: XOMCOT_clean_sbu_1, # of connection points: 5
#     Node 3, Type 0, BuildingBlock: XOMCOT_clean_sbu_1, # of connection points: 5
#     Node 4, Type 0, BuildingBlock: XOMCOT_clean_sbu_1, # of connection points: 5
#     Node 5, Type 0, BuildingBlock: XOMCOT_clean_sbu_1, # of connection points: 5
#     Node 6, Type 0, BuildingBlock: XOMCOT_clean_sbu_1, # of connection points: 5
#     Node 7, Type 0, BuildingBlock: XOMCOT_clean_sbu_1, # of connection points: 5
#     Node 8, Type 0, BuildingBlock: XOMCOT_clean_sbu_1, # of connection points: 5
#     Node 9, Type 0, BuildingBlock: XOMCOT_clean_sbu_1, # of connection points: 5
#     Node 10, Type 0, BuildingBlock: XOMCOT_clean_sbu_1, # of connection points: 5
#     Node 11, Type 0, BuildingBlock: XOMCOT_clean_sbu_1, # of connection points: 5
#     Node 12, Type 0, BuildingBlock: XOMCOT_clean_sbu_1, # of connection points: 5
#     Node 13, Type 0, BuildingBlock: XOMCOT_clean_sbu_1, # of connection points: 5
#     Node 14, Type 0, BuildingBlock: XOMCOT_clean_sbu_1, # of connection points: 5
#     Node 15, Type 0, BuildingBlock: XOMCOT_clean_sbu_1, # of connection points: 5
#     Node 16, Type 0, BuildingBlock: XOMCOT_clean_sbu_1, # of connection points: 5
#     Node 17, Type 0, BuildingBlock: XOMCOT_clean_sbu_1, # of connection points: 5
#     Node 18, Type 0, BuildingBlock: XOMCOT_clean_sbu_1, # of connection points: 5
#     Node 19, Type 0, BuildingBlock: XOMCOT_clean_sbu_1, # of connection points: 5
#     Node 20, Type 0, BuildingBlock: XOMCOT_clean_sbu_1, # of connection points: 5
#     Node 21, Type 0, BuildingBlock: XOMCOT_clean_sbu_1, # of connection points: 5
#     Node 22, Type 0, BuildingBlock: XOMCOT_clean_sbu_1, # of connection points: 5
#     Node 23, Type 0, BuildingBlock: XOMCOT_clean_sbu_1, # of connection points: 5
#     Edge 24, Type (0, 0), BuildingBlock: UVAHIK_clean_linker_0, # of connection points: 2
#     Edge 25, Type (0, 0), BuildingBlock: UVAHIK_clean_linker_0, # of connection points: 2
#     Edge 26, Type (0, 0), BuildingBlock: UVAHIK_clean_linker_0, # of connection points: 2
#     Edge 27, Type (0, 0), BuildingBlock: UVAHIK_clean_linker_0, # of connection points: 2
#     Edge 28, Type (0, 0), BuildingBlock: UVAHIK_clean_linker_0, # of connection points: 2
#     Edge 29, Type (0, 0), BuildingBlock: UVAHIK_clean_linker_0, # of connection points: 2
#     Edge 30, Type (0, 0), BuildingBlock: UVAHIK_clean_linker_0, # of connection points: 2
#     Edge 31, Type (0, 0), BuildingBlock: UVAHIK_clean_linker_0, # of connection points: 2
#     Edge 32, Type (0, 0), BuildingBlock: UVAHIK_clean_linker_0, # of connection points: 2
#     Edge 33, Type (0, 0), BuildingBlock: UVAHIK_clean_linker_0, # of connection points: 2
#     Edge 34, Type (0, 0), BuildingBlock: UVAHIK_clean_linker_0, # of connection points: 2
#     Edge 35, Type (0, 0), BuildingBlock: UVAHIK_clean_linker_0, # of connection points: 2
#     Edge 36, Type (0, 0), BuildingBlock: UVAHIK_clean_linker_0, # of connection points: 2
#     Edge 37, Type (0, 0), BuildingBlock: UVAHIK_clean_linker_0, # of connection points: 2
#     Edge 38, Type (0, 0), BuildingBlock: UVAHIK_clean_linker_0, # of connection points: 2
#     Edge 39, Type (0, 0), BuildingBlock: UVAHIK_clean_linker_0, # of connection points: 2
#     Edge 40, Type (0, 0), BuildingBlock: UVAHIK_clean_linker_0, # of connection points: 2
#     Edge 41, Type (0, 0), BuildingBlock: UVAHIK_clean_linker_0, # of connection points: 2
#     Edge 42, Type (0, 0), BuildingBlock: UVAHIK_clean_linker_0, # of connection points: 2
#     Edge 43, Type (0, 0), BuildingBlock: UVAHIK_clean_linker_0, # of connection points: 2
#     Edge 44, Type (0, 0), BuildingBlock: UVAHIK_clean_linker_0, # of connection points: 2
#     Edge 45, Type (0, 0), BuildingBlock: UVAHIK_clean_linker_0, # of connection points: 2
#     Edge 46, Type (0, 0), BuildingBlock: UVAHIK_clean_linker_0, # of connection points: 2
#     Edge 47, Type (0, 0), BuildingBlock: UVAHIK_clean_linker_0, # of connection points: 2
#     Edge 48, Type (0, 0), BuildingBlock: UVAHIK_clean_linker_0, # of connection points: 2
#     Edge 49, Type (0, 0), BuildingBlock: UVAHIK_clean_linker_0, # of connection points: 2
#     Edge 50, Type (0, 0), BuildingBlock: UVAHIK_clean_linker_0, # of connection points: 2
#     Edge 51, Type (0, 0), BuildingBlock: UVAHIK_clean_linker_0, # of connection points: 2
#     Edge 52, Type (0, 0), BuildingBlock: UVAHIK_clean_linker_0, # of connection points: 2
#     Edge 53, Type (0, 0), BuildingBlock: UVAHIK_clean_linker_0, # of connection points: 2
#     Edge 54, Type (0, 0), BuildingBlock: UVAHIK_clean_linker_0, # of connection points: 2
#     Edge 55, Type (0, 0), BuildingBlock: UVAHIK_clean_linker_0, # of connection points: 2
#     Edge 56, Type (0, 0), BuildingBlock: UVAHIK_clean_linker_0, # of connection points: 2
#     Edge 57, Type (0, 0), BuildingBlock: UVAHIK_clean_linker_0, # of connection points: 2
#     Edge 58, Type (0, 0), BuildingBlock: UVAHIK_clean_linker_0, # of connection points: 2
#     Edge 59, Type (0, 0), BuildingBlock: UVAHIK_clean_linker_0, # of connection points: 2
#     Edge 60, Type (0, 0), BuildingBlock: UVAHIK_clean_linker_0, # of connection points: 2
#     Edge 61, Type (0, 0), BuildingBlock: UVAHIK_clean_linker_0, # of connection points: 2
#     Edge 62, Type (0, 0), BuildingBlock: UVAHIK_clean_linker_0, # of connection points: 2
#     Edge 63, Type (0, 0), BuildingBlock: UVAHIK_clean_linker_0, # of connection points: 2
#     Edge 64, Type (0, 0), BuildingBlock: UVAHIK_clean_linker_0, # of connection points: 2
#     Edge 65, Type (0, 0), BuildingBlock: UVAHIK_clean_linker_0, # of connection points: 2
#     Edge 66, Type (0, 0), BuildingBlock: UVAHIK_clean_linker_0, # of connection points: 2
#     Edge 67, Type (0, 0), BuildingBlock: UVAHIK_clean_linker_0, # of connection points: 2
#     Edge 68, Type (0, 0), BuildingBlock: UVAHIK_clean_linker_0, # of connection points: 2
#     Edge 69, Type (0, 0), BuildingBlock: UVAHIK_clean_linker_0, # of connection points: 2
#     Edge 70, Type (0, 0), BuildingBlock: UVAHIK_clean_linker_0, # of connection points: 2
#     Edge 71, Type (0, 0), BuildingBlock: UVAHIK_clean_linker_0, # of connection points: 2
#     Edge 72, Type (0, 0), BuildingBlock: UVAHIK_clean_linker_0, # of connection points: 2
#     Edge 73, Type (0, 0), BuildingBlock: UVAHIK_clean_linker_0, # of connection points: 2
#     Edge 74, Type (0, 0), BuildingBlock: UVAHIK_clean_linker_0, # of connection points: 2
#     Edge 75, Type (0, 0), BuildingBlock: UVAHIK_clean_linker_0, # of connection points: 2
#     Edge 76, Type (0, 0), BuildingBlock: UVAHIK_clean_linker_0, # of connection points: 2
#     Edge 77, Type (0, 0), BuildingBlock: UVAHIK_clean_linker_0, # of connection points: 2
#     Edge 78, Type (0, 0), BuildingBlock: UVAHIK_clean_linker_0, # of connection points: 2
#     Edge 79, Type (0, 0), BuildingBlock: UVAHIK_clean_linker_0, # of connection points: 2
#     Edge 80, Type (0, 0), BuildingBlock: UVAHIK_clean_linker_0, # of connection points: 2
#     Edge 81, Type (0, 0), BuildingBlock: UVAHIK_clean_linker_0, # of connection points: 2
#     Edge 82, Type (0, 0), BuildingBlock: UVAHIK_clean_linker_0, # of connection points: 2
#     Edge 83, Type (0, 0), BuildingBlock: UVAHIK_clean_linker_0, # of connection points: 2
# Relax obj value: 0.869
# Max RMSD: 0.219
# Mean RMSD: 0.219
data_MOF--net-lcy-a-x--node1-XOMCOT_clean_sbu_1--edge1-UVAHIK_clean_linker_0
_symmetry_space_group_name_H-M    P1
_symmetry_Int_Tables_number       1
_symmetry_cell_setting            triclinic
loop_
_symmetry_equiv_pos_as_xyz
'x, y, z'
_cell_length_a     72.424089
_cell_length_b     72.420447
_cell_length_c     72.392253
_cell_angle_alpha  90.026526
_cell_angle_beta   89.978064
_cell_angle_gamma 89.996647
loop_
_atom_site_label
_atom_site_type_symbol
_atom_site_fract_x
_atom_site_fract_y
_atom_site_fract_z
_atom_type_partial_charge
C0 C 0.04237 0.01924 0.75212 0.0
C1 C 0.02614 0.01672 0.76181 0.0
N2 N 0.01365 0.02901 0.75552 0.0
N3 N 0.03994 0.03287 0.73968 0.0
C4 C 0.02239 0.03854 0.74212 0.0
H5 H 0.05516 0.0118 0.75416 0.0
Co6 Co 0.05681 0.04328 0.72348 0.0
C7 C 0.03807 0.04377 0.68736 0.0
O8 O 0.05391 0.03935 0.67967 0.0
N9 N 0.07387 0.05485 0.70733 0.0
C10 C 0.09666 0.06453 0.68893 0.0
C11 C 0.09103 0.05091 0.70099 0.0
C12 C 0.0698 0.07122 0.6993 0.0
N13 N 0.08324 0.0773 0.68803 0.0
O14 O 0.05101 0.06679 0.73321 0.0
H15 H 0.09916 0.03898 0.70447 0.0
H16 H 0.05669 0.0782 0.70098 0.0
O17 O 0.03723 0.04618 0.70486 0.0
C18 C 0.06054 0.07372 0.74619 0.0
O19 O 0.07415 0.06407 0.75331 0.0
N20 N 0.06256 0.01946 0.71465 0.0
C21 C 0.07141 0.9838 0.70302 0.0
C22 C 0.05347 0.99073 0.70094 0.0
C23 C 0.04924 0.00836 0.70719 0.0
C24 C 0.07954 0.01234 0.71849 0.0
C25 C 0.08449 0.99473 0.71228 0.0
H26 H 0.03504 0.01279 0.70649 0.0
H27 H 0.08924 0.02027 0.7266 0.0
H28 H 0.01618 0.04961 0.73424 0.0
H29 H 0.02389 0.00699 0.77293 0.0
H30 H 0.10953 0.06494 0.68133 0.0
H31 H 0.04251 0.98235 0.69515 0.0
H32 H 0.09831 0.98971 0.71492 0.0
C33 C 0.29941 0.7949 0.99796 0.0
C34 C 0.30308 0.77755 0.00495 0.0
N35 N 0.29173 0.76534 0.99663 0.0
N36 N 0.28588 0.79356 0.98526 0.0
C37 C 0.2814 0.77548 0.98491 0.0
H38 H 0.30623 0.80763 0.00178 0.0
Co39 Co 0.275 0.81201 0.97119 0.0
C40 C 0.27352 0.79649 0.93348 0.0
O41 O 0.27834 0.81266 0.92676 0.0
N42 N 0.26311 0.83055 0.95698 0.0
C43 C 0.25386 0.85482 0.94036 0.0
C44 C 0.26725 0.84814 0.95213 0.0
C45 C 0.24682 0.82728 0.94846 0.0
N46 N 0.24103 0.84161 0.93814 0.0
O47 O 0.25181 0.80504 0.98111 0.0
H48 H 0.27927 0.85581 0.9563 0.0
H49 H 0.23982 0.81408 0.94891 0.0
O50 O 0.27154 0.79446 0.95091 0.0
C51 C 0.24344 0.81534 0.9926 0.0
O52 O 0.25049 0.83148 0.99692 0.0
N53 N 0.29855 0.81873 0.96249 0.0
C54 C 0.33442 0.82899 0.95285 0.0
C55 C 0.32746 0.81162 0.94795 0.0
C56 C 0.30969 0.80661 0.95324 0.0
C57 C 0.30561 0.83501 0.96872 0.0
C58 C 0.3233 0.8407 0.96359 0.0
H59 H 0.30527 0.79265 0.95051 0.0
H60 H 0.29756 0.84351 0.97799 0.0
H61 H 0.27044 0.76995 0.97641 0.0
H62 H 0.31346 0.77422 0.01516 0.0
H63 H 0.25376 0.86819 0.93368 0.0
H64 H 0.33593 0.80159 0.94078 0.0
H65 H 0.32825 0.85402 0.96823 0.0
C66 C 0.52529 0.05455 0.24825 0.0
C67 C 0.54265 0.05893 0.25486 0.0
N68 N 0.55518 0.04948 0.24487 0.0
N69 N 0.52702 0.04235 0.23428 0.0
C70 C 0.54536 0.03949 0.23264 0.0
H71 H 0.51225 0.05944 0.25365 0.0
Co72 Co 0.50838 0.02965 0.22214 0.0
C73 C 0.52215 0.02592 0.18367 0.0
O74 O 0.5054 0.02895 0.17737 0.0
N75 N 0.48956 0.01582 0.21043 0.0
C76 C 0.46359 0.00251 0.20053 0.0
C77 C 0.47092 0.01712 0.21026 0.0
C78 C 0.49299 -0.00024 0.20152 0.0
N79 N 0.47758 0.9916 0.19505 0.0
O80 O 0.51684 0.00763 0.23318 0.0
H81 H 0.4628 0.02748 0.21715 0.0
H82 H 0.50675 0.99428 0.19957 0.0
O83 O 0.52497 0.02533 0.20111 0.0
C84 C 0.50932 0.00154 0.2478 0.0
O85 O 0.49543 0.01064 0.25511 0.0
N86 N 0.50019 0.05212 0.21169 0.0
C87 C 0.4873 0.08435 0.19504 0.0
C88 C 0.50547 0.07837 0.19222 0.0
C89 C 0.51177 0.06255 0.20104 0.0
C90 C 0.48331 0.05896 0.21643 0.0
C91 C 0.47632 0.07478 0.20784 0.0
H92 H 0.5261 0.05881 0.19933 0.0
H93 H 0.47535 0.05238 0.22715 0.0
H94 H 0.55141 0.02945 0.22341 0.0
H95 H 0.5458 0.0681 0.26624 0.0
H96 H 0.44909 -5e-05 0.19801 0.0
H97 H 0.51496 0.0861 0.18362 0.0
H98 H 0.46254 0.07946 0.21126 0.0
C99 C 0.31519 0.28686 0.50274 0.0
C100 C 0.31624 0.3021 0.51413 0.0
N101 N 0.311 0.31708 0.5044 0.0
N102 N 0.30925 0.29224 0.48595 0.0
C103 C 0.3068 0.31067 0.48739 0.0
H104 H 0.31919 0.2729 0.50622 0.0
Co105 Co 0.30856 0.27823 0.46443 0.0
C106 C 0.27142 0.29462 0.45132 0.0
O107 O 0.26005 0.28089 0.45462 0.0
N108 N 0.30841 0.26443 0.44251 0.0
C109 C 0.30089 0.24898 0.41701 0.0
C110 C 0.29415 0.25786 0.43243 0.0
C111 C 0.32358 0.25902 0.43316 0.0
N112 N 0.31945 0.24975 0.41754 0.0
O113 O 0.32495 0.29543 0.45346 0.0
H114 H 0.27977 0.25928 0.436 0.0
H115 H 0.33747 0.26226 0.43741 0.0
O116 O 0.28858 0.29323 0.45503 0.0
C117 C 0.34196 0.29345 0.45707 0.0
O118 O 0.34723 0.27937 0.46724 0.0
N119 N 0.29305 0.26099 0.47577 0.0
C120 C 0.27013 0.23343 0.48942 0.0
C121 C 0.26595 0.25214 0.49244 0.0
C122 C 0.2778 0.26575 0.48573 0.0
C123 C 0.29839 0.24296 0.47459 0.0
C124 C 0.28695 0.2289 0.48103 0.0
H125 H 0.27434 0.28012 0.48785 0.0
H126 H 0.31128 0.23939 0.46797 0.0
H127 H 0.30318 0.3194 0.47582 0.0
H128 H 0.32095 0.30219 0.52832 0.0
H129 H 0.29277 0.24256 0.40623 0.0
H130 H 0.25317 0.25629 0.49902 0.0
H131 H 0.29096 0.21464 0.47897 0.0
C132 C 0.53549 0.51746 0.31003 0.0
C133 C 0.51972 0.51816 0.29938 0.0
N134 N 0.5053 0.52173 0.31058 0.0
N135 N 0.53095 0.52053 0.32782 0.0
C136 C 0.51249 0.52308 0.32771 0.0
H137 H 0.54923 0.51401 0.30527 0.0
Co138 Co 0.54605 0.51722 0.3482 0.0
C139 C 0.53326 0.54453 0.37597 0.0
O140 O 0.5503 0.54806 0.38109 0.0
N141 N 0.56125 0.5131 0.36923 0.0
C142 C 0.58396 0.50534 0.38858 0.0
C143 C 0.57979 0.5129 0.37164 0.0
C144 C 0.55462 0.50591 0.38516 0.0
N145 N 0.56805 0.50067 0.3969 0.0
O146 O 0.53113 0.49691 0.35516 0.0
H147 H 0.59001 0.51662 0.36151 0.0
H148 H 0.54008 0.50354 0.38769 0.0
O149 O 0.53015 0.53311 0.36287 0.0
C150 C 0.53751 0.48066 0.3536 0.0
O151 O 0.55441 0.47837 0.34738 0.0
N152 N 0.56085 0.53672 0.34015 0.0
C153 C 0.58602 0.56323 0.32887 0.0
C154 C 0.5682 0.5684 0.3344 0.0
C155 C 0.55564 0.55483 0.33975 0.0
C156 C 0.57715 0.53141 0.3324 0.0
C157 C 0.59031 0.54449 0.32729 0.0
H158 H 0.54187 0.55897 0.34363 0.0
H159 H 0.58027 0.51686 0.33101 0.0
H160 H 0.50424 0.52452 0.34008 0.0
H161 H 0.51883 0.51564 0.28466 0.0
H162 H 0.59764 0.50205 0.39362 0.0
H163 H 0.56425 0.58281 0.33523 0.0
H164 H 0.60375 0.54004 0.32247 0.0
C165 C 0.76754 0.29316 0.57396 0.0
C166 C 0.76389 0.27699 0.56452 0.0
N167 N 0.77392 0.26336 0.57226 0.0
N168 N 0.77979 0.28962 0.58751 0.0
C169 C 0.78347 0.27143 0.58605 0.0
H170 H 0.7619 0.30666 0.57096 0.0
Co171 Co 0.79101 0.30613 0.60348 0.0
C172 C 0.79244 0.28704 0.63945 0.0
O173 O 0.78816 0.30279 0.64741 0.0
N174 N 0.80335 0.32288 0.61945 0.0
C175 C 0.81321 0.34513 0.63837 0.0
C176 C 0.79971 0.34004 0.62597 0.0
C177 C 0.81958 0.31837 0.62755 0.0
N178 N 0.82567 0.33142 0.63927 0.0
O179 O 0.81406 0.30004 0.59276 0.0
H180 H 0.78795 0.34843 0.62254 0.0
H181 H 0.82622 0.30509 0.62583 0.0
O182 O 0.79431 0.28636 0.62187 0.0
C183 C 0.82207 0.31157 0.58225 0.0
O184 O 0.81428 0.32766 0.57912 0.0
N185 N 0.7676 0.31215 0.61315 0.0
C186 C 0.73282 0.3217 0.62666 0.0
C187 C 0.73944 0.30361 0.62833 0.0
C188 C 0.7566 0.29901 0.62107 0.0
C189 C 0.76058 0.32924 0.60961 0.0
C190 C 0.74342 0.33453 0.61672 0.0
H191 H 0.76079 0.28472 0.62152 0.0
H192 H 0.76829 0.33879 0.60111 0.0
H193 H 0.79359 0.26437 0.59446 0.0
H194 H 0.7547 0.27542 0.55284 0.0
H195 H 0.81358 0.3577 0.64645 0.0
H196 H 0.73117 0.29285 0.63462 0.0
H197 H 0.73849 0.34844 0.61432 0.0
C198 C 0.0273 0.54422 0.81178 0.0
C199 C 0.04165 0.54193 0.79941 0.0
N200 N 0.05631 0.53523 0.80871 0.0
N201 N 0.03304 0.53908 0.82873 0.0
C202 C 0.05068 0.53362 0.82636 0.0
H203 H 0.01403 0.55043 0.80889 0.0
Co204 Co 0.02189 0.54394 0.8513 0.0
C205 C 0.03216 0.51042 0.8734 0.0
O206 O 0.01508 0.50677 0.87822 0.0
N207 N 0.01092 0.54945 0.87481 0.0
C208 C 0.99472 0.54938 0.90118 0.0
C209 C 0.99676 0.54135 0.88405 0.0
C210 C 0.017 0.56246 0.88682 0.0
N211 N 0.00747 0.56272 0.90278 0.0
O212 O 0.04197 0.55977 0.85662 0.0
H213 H 0.98861 0.5299 0.8791 0.0
H214 H 0.02876 0.57126 0.88451 0.0
O215 O 0.03573 0.52399 0.86273 0.0
C216 C 0.04043 0.57622 0.85083 0.0
O217 O 0.02496 0.58133 0.84284 0.0
N218 N 0.00207 0.52891 0.84467 0.0
C219 C 0.97132 0.50795 0.83564 0.0
C220 C 0.98907 0.50024 0.83477 0.0
C221 C 0.00434 0.51105 0.83916 0.0
C222 C 0.98516 0.53716 0.84359 0.0
C223 C 0.96942 0.52674 0.8397 0.0
H224 H 0.01796 0.505 0.83844 0.0
H225 H 0.98381 0.5517 0.84674 0.0
H226 H 0.05984 0.53029 0.83768 0.0
H227 H 0.04161 0.54576 0.78496 0.0
H228 H 0.98477 0.54558 0.91167 0.0
H229 H 0.99108 0.48579 0.83145 0.0
H230 H 0.95593 0.53318 0.84014 0.0
C231 C 0.78259 0.78638 0.05735 0.0
C232 C 0.78708 0.80267 0.04849 0.0
N233 N 0.78817 0.81618 0.06129 0.0
N234 N 0.78086 0.7897 0.07558 0.0
C235 C 0.78434 0.80789 0.07751 0.0
H236 H 0.78005 0.77317 0.05085 0.0
Co237 Co 0.77231 0.77447 0.09429 0.0
C238 C 0.79783 0.78074 0.12556 0.0
O239 O 0.7983 0.76293 0.12908 0.0
N240 N 0.76301 0.75959 0.11384 0.0
C241 C 0.75089 0.73864 0.13303 0.0
C242 C 0.75967 0.74133 0.11631 0.0
C243 C 0.75615 0.76748 0.12932 0.0
N244 N 0.74857 0.75523 0.14097 0.0
O245 O 0.75384 0.79234 0.09961 0.0
H246 H 0.76257 0.73047 0.10658 0.0
H247 H 0.75633 0.7822 0.13195 0.0
O248 O 0.78851 0.78679 0.11186 0.0
C249 C 0.73704 0.78896 0.09601 0.0
O250 O 0.73269 0.77317 0.08817 0.0
N251 N 0.79017 0.75691 0.08796 0.0
C252 C 0.81476 0.7291 0.07861 0.0
C253 C 0.82128 0.74633 0.08449 0.0
C254 C 0.80871 0.76021 0.08887 0.0
C255 C 0.78379 0.74109 0.08002 0.0
C256 C 0.79583 0.7266 0.0759 0.0
H257 H 0.81392 0.77354 0.09301 0.0
H258 H 0.76918 0.73952 0.07734 0.0
H259 H 0.78287 0.81516 0.09049 0.0
H260 H 0.78889 0.80451 0.03377 0.0
H261 H 0.74573 0.7257 0.13844 0.0
H262 H 0.83593 0.74886 0.08618 0.0
H263 H 0.79044 0.71363 0.07074 0.0
C264 C 0.76409 0.04114 0.05522 0.0
C265 C 0.7746 0.02527 0.05397 0.0
N266 N 0.76314 0.01092 0.05093 0.0
N267 N 0.74617 0.03674 0.05273 0.0
C268 C 0.74608 0.01831 0.05009 0.0
H269 H 0.76908 0.05484 0.05847 0.0
Co270 Co 0.72519 0.05132 0.05559 0.0
C271 C 0.70606 0.0401 0.01966 0.0
O272 O 0.70642 0.05617 0.01129 0.0
N273 N 0.70354 0.06566 0.05884 0.0
C274 C 0.67805 0.0824 0.05434 0.0
C275 C 0.69473 0.07705 0.04692 0.0
C276 C 0.69212 0.06489 0.07358 0.0
N277 N 0.67647 0.07463 0.07113 0.0
O278 O 0.71558 0.03304 0.07176 0.0
H279 H 0.69981 0.08101 0.03349 0.0
H280 H 0.69455 0.05646 0.08558 0.0
O281 O 0.71316 0.03815 0.03566 0.0
C282 C 0.72132 0.033 0.08832 0.0
O283 O 0.73285 0.04594 0.09369 0.0
N284 N 0.73544 0.06934 0.04026 0.0
C285 C 0.74904 0.09793 0.01865 0.0
C286 C 0.74954 0.07964 0.01224 0.0
C287 C 0.74283 0.06547 0.02338 0.0
C288 C 0.73658 0.08673 0.04743 0.0
C289 C 0.74293 0.10137 0.03666 0.0
H290 H 0.74311 0.05144 0.01829 0.0
H291 H 0.73181 0.08938 0.06135 0.0
H292 H 0.73358 0.01033 0.0483 0.0
H293 H 0.78935 0.02424 0.05616 0.0
H294 H 0.66769 0.09087 0.04769 0.0
H295 H 0.75427 0.07638 0.99842 0.0
H296 H 0.74272 0.11527 0.04221 0.0
C297 C 0.28048 0.5075 0.28009 0.0
C298 C 0.29752 0.51544 0.27706 0.0
N299 N 0.31059 0.50337 0.28248 0.0
N300 N 0.28288 0.49059 0.28747 0.0
C301 C 0.30137 0.48846 0.28874 0.0
H302 H 0.26718 0.5139 0.27782 0.0
Co303 Co 0.26435 0.47586 0.29714 0.0
C304 C 0.27802 0.43756 0.2944 0.0
O305 O 0.26131 0.43221 0.28975 0.0
N306 N 0.24541 0.46113 0.30783 0.0
C307 C 0.2203 0.4449 0.31551 0.0
C308 C 0.22778 0.45708 0.30296 0.0
C309 C 0.24795 0.45157 0.32369 0.0
N310 N 0.23304 0.44164 0.32854 0.0
O311 O 0.2723 0.48279 0.32105 0.0
H312 H 0.2205 0.46221 0.29109 0.0
H313 H 0.26087 0.45123 0.3312 0.0
O314 O 0.28113 0.4546 0.2979 0.0
C315 C 0.26277 0.49367 0.33097 0.0
O316 O 0.24666 0.49945 0.32495 0.0
N317 N 0.25679 0.47017 0.27297 0.0
C318 C 0.24382 0.46167 0.23783 0.0
C319 C 0.26153 0.45623 0.24335 0.0
C320 C 0.26795 0.46106 0.26079 0.0
C321 C 0.24063 0.47768 0.26697 0.0
C322 C 0.23355 0.47314 0.24961 0.0
H323 H 0.28198 0.45752 0.26435 0.0
H324 H 0.23294 0.48683 0.27594 0.0
H325 H 0.30798 0.47671 0.29518 0.0
H326 H 0.30009 0.52915 0.27171 0.0
H327 H 0.20664 0.43885 0.31506 0.0
H328 H 0.27052 0.44857 0.23416 0.0
H329 H 0.22012 0.47835 0.2456 0.0
C330 C 0.81645 0.04714 0.51641 0.0
C331 C 0.80708 0.06351 0.51361 0.0
N332 N 0.81599 0.07697 0.52288 0.0
N333 N 0.83111 0.05038 0.52741 0.0
C334 C 0.83039 0.0686 0.53116 0.0
H335 H 0.81262 0.0337 0.51114 0.0
Co336 Co 0.8475 0.0335 0.53739 0.0
C337 C 0.88379 0.05196 0.53605 0.0
O338 O 0.89128 0.03615 0.53117 0.0
N339 N 0.86393 0.01642 0.54851 0.0
C340 C 0.88235 0.99339 0.55743 0.0
C341 C 0.86945 -0.00102 0.54461 0.0
C342 C 0.87322 0.02068 0.56416 0.0
N343 N 0.88464 0.00712 0.5697 0.0
O344 O 0.83882 0.03977 0.56114 0.0
H345 H 0.86481 0.99061 0.53325 0.0
H346 H 0.87234 0.034 0.5709 0.0
O347 O 0.86644 0.05281 0.53925 0.0
C348 C 0.82576 0.03042 0.56816 0.0
O349 O 0.81852 0.01679 0.5586 0.0
N350 N 0.85515 0.02724 0.51334 0.0
C351 C 0.86551 0.01694 0.47771 0.0
C352 C 0.86825 0.03505 0.48395 0.0
C353 C 0.86258 0.04003 0.50161 0.0
C354 C 0.85049 0.01023 0.50682 0.0
C355 C 0.85607 0.00454 0.48925 0.0
H356 H 0.86385 0.05432 0.50564 0.0
H357 H 0.84234 0.00103 0.51529 0.0
H358 H 0.83979 0.07547 0.54053 0.0
H359 H 0.79463 0.06533 0.50554 0.0
H360 H 0.88959 0.98031 0.55761 0.0
H361 H 0.87423 0.0455 0.47508 0.0
H362 H 0.85296 0.99061 0.48479 0.0
C363 C 0.28074 0.54917 0.79585 0.0
C364 C 0.26494 0.53944 0.79159 0.0
N365 N 0.25082 0.55151 0.79019 0.0
N366 N 0.27656 0.56726 0.79709 0.0
C367 C 0.2583 0.56825 0.79354 0.0
H368 H 0.29421 0.54336 0.79862 0.0
Co369 Co 0.29147 0.5863 0.80541 0.0
C370 C 0.28527 0.61723 0.77961 0.0
O371 O 0.30311 0.62051 0.77905 0.0
N372 N 0.30618 0.60609 0.81451 0.0
C373 C 0.32723 0.62536 0.82631 0.0
C374 C 0.32446 0.60856 0.81777 0.0
C375 C 0.29835 0.62167 0.82122 0.0
N376 N 0.31069 0.63338 0.82859 0.0
O377 O 0.27344 0.59193 0.82354 0.0
H378 H 0.33529 0.59878 0.81496 0.0
H379 H 0.28365 0.62434 0.82103 0.0
O380 O 0.27911 0.60353 0.78888 0.0
C381 C 0.27665 0.58871 0.84045 0.0
O382 O 0.29217 0.5805 0.84507 0.0
N383 N 0.30926 0.57979 0.78784 0.0
C384 C 0.33776 0.57059 0.76403 0.0
C385 C 0.32069 0.57636 0.75703 0.0
C386 C 0.30644 0.58066 0.76922 0.0
C387 C 0.32488 0.57182 0.79464 0.0
C388 C 0.33971 0.56778 0.78302 0.0
H389 H 0.29325 0.58481 0.76366 0.0
H390 H 0.32607 0.56921 0.80931 0.0
H391 H 0.25041 0.5809 0.79461 0.0
H392 H 0.26384 0.5246 0.79018 0.0
H393 H 0.34023 0.63079 0.83131 0.0
H394 H 0.31859 0.57811 0.74231 0.0
H395 H 0.35255 0.5627 0.78876 0.0
C396 C 0.2505 0.54286 0.01536 0.0
C397 C 0.26277 0.55743 0.01523 0.0
N398 N 0.2534 0.57308 0.01908 0.0
N399 N 0.23353 0.54929 0.01943 0.0
C400 C 0.23572 0.56767 0.02155 0.0
H401 H 0.25365 0.52859 0.01226 0.0
Co402 Co 0.21116 0.53675 0.01936 0.0
C403 C 0.19665 0.54854 0.05642 0.0
O404 O 0.19373 0.53149 0.06193 0.0
N405 N 0.18825 0.52443 0.01829 0.0
C406 C 0.15807 0.51855 0.01763 0.0
C407 C 0.17177 0.52865 0.02601 0.0
C408 C 0.18396 0.51209 0.00495 0.0
N409 N 0.16575 0.50825 0.0042 0.0
O410 O 0.20142 0.55497 0.00328 0.0
H411 H 0.16923 0.53975 0.03559 0.0
H412 H 0.19389 0.50705 0.99502 0.0
O413 O 0.20305 0.55163 0.04027 0.0
C414 C 0.20213 0.55128 0.98616 0.0
O415 O 0.20941 0.53553 0.98086 0.0
N416 N 0.22126 0.51834 0.03475 0.0
C417 C 0.23197 0.49011 0.0584 0.0
C418 C 0.23552 0.5086 0.06296 0.0
C419 C 0.23031 0.52254 0.05075 0.0
C420 C 0.22011 0.50041 0.02907 0.0
C421 C 0.22496 0.48603 0.04087 0.0
H422 H 0.23268 0.53677 0.05461 0.0
H423 H 0.21505 0.49707 0.01552 0.0
H424 H 0.22431 0.57701 0.0239 0.0
H425 H 0.27738 0.55655 0.01222 0.0
H426 H 0.14339 0.52023 0.01993 0.0
H427 H 0.24122 0.51236 0.07627 0.0
H428 H 0.22275 0.47188 0.03655 0.0
C429 C 0.77819 0.00963 0.25244 0.0
C430 C 0.76306 0.02113 0.25128 0.0
N431 N 0.74836 0.01211 0.25824 0.0
N432 N 0.77296 0.99345 0.26003 0.0
C433 C 0.75473 0.9954 0.2634 0.0
H434 H 0.79193 0.01253 0.24737 0.0
Co435 Co 0.78721 0.97217 0.26142 0.0
C436 C 0.77316 0.9564 0.29779 0.0
O437 O 0.78925 0.95554 0.30605 0.0
N438 N 0.80183 0.95034 0.26224 0.0
C439 C 0.82204 0.92811 0.26935 0.0
C440 C 0.81371 0.94413 0.2753 0.0
C441 C 0.80353 0.93786 0.24844 0.0
N442 N 0.81564 0.9243 0.25237 0.0
O443 O 0.77051 0.96072 0.24476 0.0
H444 H 0.81701 0.95117 0.28801 0.0
H445 H 0.79612 0.93856 0.23558 0.0
O446 O 0.77181 0.96286 0.28143 0.0
C447 C 0.77303 0.96431 0.22779 0.0
O448 O 0.78733 0.97441 0.22299 0.0
N449 N 0.80367 0.98432 0.27698 0.0
C450 C 0.83071 -0.0002 0.29927 0.0
C451 C 0.81208 0.00021 0.30467 0.0
C452 C 0.79867 0.99261 0.29313 0.0
C453 C 0.82132 0.98572 0.27057 0.0
C454 C 0.83519 0.99307 0.28169 0.0
H455 H 0.78438 0.99284 0.29741 0.0
H456 H 0.82479 0.98018 0.25713 0.0
H457 H 0.746 0.98438 0.26835 0.0
H458 H 0.76278 0.03486 0.24536 0.0
H459 H 0.83247 0.92028 0.27666 0.0
H460 H 0.80798 0.00548 0.31805 0.0
H461 H 0.84934 0.99298 0.27683 0.0
C462 C 0.33352 0.53836 0.55608 0.0
C463 C 0.32663 0.5207 0.55807 0.0
N464 N 0.33549 0.50949 0.54608 0.0
N465 N 0.34676 0.53823 0.54301 0.0
C466 C 0.34763 0.52054 0.53721 0.0
H467 H 0.32884 0.55058 0.56329 0.0
Co468 Co 0.35947 0.55801 0.53278 0.0
C469 C 0.39819 0.54554 0.53066 0.0
O470 O 0.40361 0.56207 0.53588 0.0
N471 N 0.37222 0.57795 0.52142 0.0
C472 C 0.38679 0.60367 0.51255 0.0
C473 C 0.37588 0.59574 0.52599 0.0
C474 C 0.38057 0.57581 0.50484 0.0
N475 N 0.3896 0.59105 0.49925 0.0
O476 O 0.35002 0.55104 0.50941 0.0
H477 H 0.3714 0.60277 0.53829 0.0
H478 H 0.3809 0.56285 0.49739 0.0
O479 O 0.38097 0.54215 0.5287 0.0
C480 C 0.3377 0.5605 0.5013 0.0
O481 O 0.332 0.57605 0.50873 0.0
N482 N 0.36784 0.56459 0.55651 0.0
C483 C 0.37925 0.57521 0.59175 0.0
C484 C 0.38421 0.55795 0.58451 0.0
C485 C 0.37804 0.55275 0.56709 0.0
C486 C 0.36118 0.58045 0.5641 0.0
C487 C 0.3672 0.58638 0.58145 0.0
H488 H 0.38118 0.53898 0.56233 0.0
H489 H 0.35115 0.58859 0.55662 0.0
H490 H 0.35682 0.51599 0.52635 0.0
H491 H 0.31549 0.51664 0.56716 0.0
H492 H 0.39241 0.61752 0.51265 0.0
H493 H 0.39232 0.54822 0.59246 0.0
H494 H 0.36237 0.59952 0.5867 0.0
C495 C 0.79585 0.06679 0.80961 0.0
C496 C 0.81268 0.05835 0.81269 0.0
N497 N 0.82539 0.06659 0.80187 0.0
N498 N 0.79807 0.08023 0.79693 0.0
C499 C 0.81611 0.07966 0.79242 0.0
H500 H 0.78283 0.06326 0.81602 0.0
Co501 Co 0.78058 0.09553 0.78627 0.0
C502 C 0.79799 0.13244 0.78572 0.0
O503 O 0.78201 0.13973 0.79033 0.0
N504 N 0.76293 0.11085 0.77445 0.0
C505 C 0.73962 0.12871 0.76509 0.0
C506 C 0.74535 0.1161 0.77813 0.0
C507 C 0.76703 0.11983 0.75858 0.0
N508 N 0.75335 0.13098 0.75283 0.0
O509 O 0.78709 0.0861 0.76288 0.0
H510 H 0.73704 0.11163 0.78961 0.0
H511 H 0.78044 0.11919 0.75199 0.0
O512 O 0.7993 0.11497 0.78342 0.0
C513 C 0.77839 0.0727 0.75568 0.0
O514 O 0.76495 0.06482 0.76498 0.0
N515 N 0.77419 0.10421 0.80998 0.0
C516 C 0.76339 0.11832 0.84409 0.0
C517 C 0.78162 0.12029 0.83794 0.0
C518 C 0.78685 0.11273 0.82109 0.0
C519 C 0.7572 0.09997 0.81683 0.0
C520 C 0.75125 0.10739 0.83364 0.0
H521 H 0.80116 0.11375 0.81704 0.0
H522 H 0.74813 0.09098 0.80911 0.0
H523 H 0.82221 0.08828 0.78184 0.0
H524 H 0.81532 0.04707 0.82213 0.0
H525 H 0.72657 0.136 0.76492 0.0
H526 H 0.79188 0.12738 0.8462 0.0
H527 H 0.73728 0.10474 0.83824 0.0
C528 C 0.02102 0.74096 0.04684 0.0
C529 C 0.018 0.74658 0.02889 0.0
N530 N 0.03096 0.73877 0.01799 0.0
N531 N 0.03574 0.72959 0.04721 0.0
C532 C 0.04154 0.72865 0.02952 0.0
H533 H 0.01306 0.74493 0.05884 0.0
Co534 Co 0.04682 0.71835 0.0674 0.0
C535 C 0.05187 0.67947 0.0556 0.0
O536 O 0.04752 0.67388 0.07232 0.0
N537 N 0.0589 0.70733 0.08785 0.0
C538 C 0.06902 0.69731 0.11518 0.0
C539 C 0.05521 0.70678 0.10618 0.0
C540 C 0.07544 0.69879 0.08636 0.0
N541 N 0.08174 0.69231 0.10262 0.0
O542 O 0.06953 0.72922 0.06029 0.0
H543 H 0.04356 0.71297 0.113 0.0
H544 H 0.08252 0.69687 0.07333 0.0
O545 O 0.0525 0.69677 0.05206 0.0
C546 C 0.07712 0.74201 0.06959 0.0
O547 O 0.06959 0.74745 0.08519 0.0
N548 N 0.02369 0.70832 0.07413 0.0
C549 C 0.98896 0.69498 0.08435 0.0
C550 C 0.99696 0.68991 0.06746 0.0
C551 C 0.01409 0.69701 0.06246 0.0
C552 C 0.01533 0.71488 0.08965 0.0
C553 C 0.99828 0.70792 0.0954 0.0
H554 H 0.01923 0.69385 0.04883 0.0
H555 H 0.02166 0.72595 0.09738 0.0
H556 H 0.0537 0.72106 0.02529 0.0
H557 H 0.00705 0.75563 0.02425 0.0
H558 H 0.06968 0.69444 0.12984 0.0
H559 H 0.98976 0.6811 0.05776 0.0
H560 H 0.99239 0.7129 0.10821 0.0
C561 C 0.56125 0.82046 0.04004 0.0
C562 C 0.56197 0.80895 0.05521 0.0
N563 N 0.55837 0.81904 0.07047 0.0
N564 N 0.55707 0.83767 0.04572 0.0
C565 C 0.55545 0.83637 0.06425 0.0
H566 H 0.56413 0.81666 0.02588 0.0
Co567 Co 0.55697 0.85947 0.03207 0.0
C568 C 0.52008 0.87316 0.04788 0.0
O569 O 0.50995 0.87101 0.03299 0.0
N570 N 0.55758 0.88172 0.01862 0.0
C571 C 0.55161 0.90838 0.00447 0.0
C572 C 0.54402 0.89346 0.01344 0.0
C573 C 0.57319 0.88965 0.01217 0.0
N574 N 0.56999 0.9059 0.0037 0.0
O575 O 0.57422 0.86949 0.04909 0.0
H576 H 0.52952 0.89155 0.01588 0.0
H577 H 0.58681 0.88393 0.01409 0.0
O578 O 0.53725 0.8691 0.04776 0.0
C579 C 0.59085 0.86484 0.04615 0.0
O580 O 0.59465 0.85439 0.03178 0.0
N581 N 0.54075 0.84898 0.0148 0.0
C582 C 0.51675 0.8369 0.98737 0.0
C583 C 0.51312 0.83309 0.00605 0.0
C584 C 0.52553 0.83896 0.01956 0.0
C585 C 0.54559 0.85074 0.99667 0.0
C586 C 0.53364 0.84507 0.9827 0.0
H587 H 0.52238 0.83639 0.03394 0.0
H588 H 0.55853 0.8572 0.99294 0.0
H589 H 0.55327 0.84821 0.07309 0.0
H590 H 0.56525 0.79437 0.05499 0.0
H591 H 0.54422 0.9202 -0.00092 0.0
H592 H 0.50034 0.82662 0.01033 0.0
H593 H 0.53733 0.8476 0.96843 0.0
C594 C 0.51615 0.28692 0.27536 0.0
C595 C 0.52631 0.28281 0.29096 0.0
N596 N 0.51452 0.28057 0.3052 0.0
N597 N 0.49809 0.28728 0.27985 0.0
C598 C 0.49756 0.28331 0.29805 0.0
H599 H 0.5216 0.29044 0.26191 0.0
Co600 Co 0.47848 0.29603 0.26598 0.0
C601 C 0.44714 0.2712 0.27451 0.0
O602 O 0.44178 0.27136 0.25717 0.0
N603 N 0.45814 0.30562 0.25237 0.0
C604 C 0.43817 0.31755 0.23208 0.0
C605 C 0.45462 0.30821 0.23415 0.0
C606 C 0.44346 0.31348 0.26088 0.0
N607 N 0.43137 0.32099 0.24898 0.0
O608 O 0.47461 0.31432 0.28426 0.0
H609 H 0.46345 0.30432 0.22285 0.0
H610 H 0.44173 0.31398 0.27572 0.0
O611 O 0.46167 0.27993 0.27938 0.0
C612 C 0.4786 0.331 0.28073 0.0
O613 O 0.48532 0.33523 0.26441 0.0
N614 N 0.4835 0.27829 0.24793 0.0
C615 C 0.49125 0.25426 0.21916 0.0
C616 C 0.48556 0.24743 0.23633 0.0
C617 C 0.48198 0.25971 0.2507 0.0
C618 C 0.49121 0.28487 0.23207 0.0
C619 C 0.49454 0.27315 0.21713 0.0
H620 H 0.47805 0.25422 0.26399 0.0
H621 H 0.49413 0.29947 0.23079 0.0
H622 H 0.48508 0.28394 0.30626 0.0
H623 H 0.54122 0.28227 0.29191 0.0
H624 H 0.43218 0.32228 0.21922 0.0
H625 H 0.48346 0.23277 0.23847 0.0
H626 H 0.49953 0.27874 0.20418 0.0
C627 C 0.05874 0.27128 0.54142 0.0
C628 C 0.06278 0.28049 0.55761 0.0
N629 N 0.05425 0.27167 0.5716 0.0
N630 N 0.04772 0.25679 0.54529 0.0
C631 C 0.04521 0.25742 0.56374 0.0
H632 H 0.06309 0.27516 0.52766 0.0
Co633 Co 0.03614 0.24126 0.52866 0.0
C634 C 0.03722 0.20436 0.54578 0.0
O635 O 0.04059 0.19747 0.52931 0.0
N636 N 0.02339 0.22583 0.51173 0.0
C637 C 0.0121 0.20951 0.48815 0.0
C638 C 0.02559 0.22175 0.4936 0.0
C639 C 0.00793 0.2165 0.51658 0.0
N640 N 0.00103 0.20627 0.50268 0.0
O641 O 0.01312 0.2508 0.53649 0.0
H642 H 0.03607 0.22714 0.48457 0.0
H643 H 0.00225 0.21662 0.53041 0.0
O644 O 0.03465 0.22177 0.54761 0.0
C645 C 0.00458 0.26181 0.52583 0.0
O646 O 0.01192 0.26613 0.50981 0.0
N647 N 0.0595 0.23271 0.5209 0.0
C648 C 0.09293 0.21861 0.50822 0.0
C649 C 0.0879 0.21682 0.5268 0.0
C650 C 0.07141 0.22443 0.53297 0.0
C651 C 0.06535 0.23686 0.5035 0.0
C652 C 0.08179 0.22944 0.49663 0.0
H653 H 0.06825 0.22358 0.54752 0.0
H654 H 0.05721 0.24591 0.49489 0.0
H655 H 0.03611 0.24818 0.57117 0.0
H656 H 0.07108 0.29285 0.55894 0.0
H657 H 0.01057 0.20347 0.47456 0.0
H658 H 0.09677 0.20982 0.5366 0.0
H659 H 0.08563 0.23204 0.48241 0.0
C660 C 0.05896 0.75907 0.79267 0.0
C661 C 0.04966 0.75874 0.80927 0.0
N662 N 0.06219 0.75859 0.82306 0.0
N663 N 0.07727 0.75929 0.79596 0.0
C664 C 0.07879 0.75889 0.81454 0.0
H665 H 0.05275 0.75889 0.7791 0.0
Co666 Co 0.09637 0.75847 0.77884 0.0
C667 C 0.12348 0.78655 0.79166 0.0
O668 O 0.12769 0.79128 0.77464 0.0
N669 N 0.11611 0.75707 0.7615 0.0
C670 C 0.13366 0.75442 0.7363 0.0
C671 C 0.1167 0.75967 0.74299 0.0
C672 C 0.13313 0.75049 0.7656 0.0
N673 N 0.14394 0.74846 0.75055 0.0
O674 O 0.10623 0.73785 0.79156 0.0
H675 H 0.10553 0.76424 0.73436 0.0
H676 H 0.13719 0.74622 0.77933 0.0
O677 O 0.11113 0.77433 0.79464 0.0
C678 C 0.10516 0.72179 0.78461 0.0
O679 O 0.09728 0.71968 0.76839 0.0
N680 N 0.08563 0.77826 0.76623 0.0
C681 C 0.0709 0.80525 0.74348 0.0
C682 C 0.07806 0.80995 0.76085 0.0
C683 C 0.08515 0.79613 0.77221 0.0
C684 C 0.07633 0.77326 0.75065 0.0
C685 C 0.06939 0.78662 0.73867 0.0
H686 H 0.09037 0.79992 0.78563 0.0
H687 H 0.0754 0.75881 0.74694 0.0
H688 H 0.0919 0.75811 0.82164 0.0
H689 H 0.03482 0.75856 0.81098 0.0
H690 H 0.1378 0.75433 0.72194 0.0
H691 H 0.07894 0.82422 0.76524 0.0
H692 H 0.06343 0.78248 0.72559 0.0
C693 C 0.51875 0.29415 0.53068 0.0
C694 C 0.52108 0.28405 0.51468 0.0
N695 N 0.52557 0.29579 0.50096 0.0
N696 N 0.52172 0.31214 0.52696 0.0
C697 C 0.52585 0.31269 0.50879 0.0
H698 H 0.51441 0.28886 0.54396 0.0
Co699 Co 0.5173 0.33208 0.54234 0.0
C700 C 0.54595 0.35975 0.53277 0.0
O701 O 0.54957 0.36288 0.55029 0.0
N702 N 0.51224 0.35282 0.55758 0.0
C703 C 0.5042 0.37325 0.57929 0.0
C704 C 0.51026 0.35549 0.57601 0.0
C705 C 0.50732 0.36923 0.55017 0.0
N706 N 0.50219 0.38169 0.5629 0.0
O707 O 0.4985 0.33993 0.52593 0.0
H708 H 0.51209 0.34521 0.5866 0.0
H709 H 0.50693 0.37189 0.53546 0.0
O710 O 0.53443 0.34718 0.52826 0.0
C711 C 0.48158 0.33971 0.53048 0.0
O712 O 0.47682 0.33304 0.54668 0.0
N713 N 0.5354 0.32344 0.5585 0.0
C714 C 0.56 0.31215 0.58553 0.0
C715 C 0.56639 0.31705 0.56791 0.0
C716 C 0.55376 0.3224 0.55441 0.0
C717 C 0.52887 0.3162 0.57458 0.0
C718 C 0.54097 0.31107 0.58865 0.0
H719 H 0.5588 0.32601 0.54085 0.0
H720 H 0.51413 0.31519 0.5768 0.0
H721 H 0.52784 0.32538 0.50115 0.0
H722 H 0.51916 0.2693 0.51316 0.0
H723 H 0.50044 0.3791 0.59253 0.0
H724 H 0.58102 0.31754 0.56486 0.0
H725 H 0.53556 0.3067 0.60189 0.0
C726 C 0.0136 0.31076 0.79081 0.0
C727 C 0.02247 0.31596 0.77476 0.0
N728 N 0.01431 0.30721 0.7605 0.0
N729 N -1e-05 0.29879 0.78658 0.0
C730 C 0.00078 0.2969 0.76806 0.0
H731 H 0.01721 0.3149 0.8047 0.0
Co732 Co 0.9856 0.28526 0.80277 0.0
C733 C 0.94852 0.28426 0.78582 0.0
O734 O 0.94138 0.28654 0.80237 0.0
N735 N 0.97142 0.27056 0.81914 0.0
C736 C 0.95511 0.25764 0.84186 0.0
C737 C 0.96693 0.2718 0.83725 0.0
C738 C 0.96295 0.25488 0.81348 0.0
N739 N 0.95263 0.24707 0.82681 0.0
O740 O 0.99651 0.26343 0.79362 0.0
H741 H 0.97146 0.28228 0.84675 0.0
H742 H 0.96332 0.24996 0.79936 0.0
O743 O 0.96607 0.28323 0.78394 0.0
C744 C 0.01073 0.25682 0.80145 0.0
O745 O 0.01783 0.26554 0.8157 0.0
N746 N 0.97544 0.30751 0.81186 0.0
C747 C 0.95854 0.3387 0.82663 0.0
C748 C 0.95682 0.33455 0.80783 0.0
C749 C 0.96587 0.31923 0.8006 0.0
C750 C 0.97944 0.3128 0.82948 0.0
C751 C 0.9707 0.32812 0.83737 0.0
H752 H 0.96499 0.31679 0.78592 0.0
H753 H 0.98929 0.30499 0.83752 0.0
H754 H 0.99232 0.28729 0.76036 0.0
H755 H 0.03422 0.32514 0.77371 0.0
H756 H 0.94847 0.25555 0.85509 0.0
H757 H 0.94873 0.3432 0.79869 0.0
H758 H 0.97326 0.33148 0.85172 0.0
C759 C 0.57766 0.77359 0.29321 0.0
C760 C 0.5716 0.77014 0.27547 0.0
N761 N 0.58004 0.78208 0.26392 0.0
N762 N 0.58992 0.78757 0.29279 0.0
C763 C 0.59097 0.79251 0.27484 0.0
H764 H 0.57341 0.76641 0.3056 0.0
Co765 Co 0.60222 0.79868 0.31237 0.0
C766 C 0.64082 0.80184 0.29964 0.0
O767 O 0.64651 0.79761 0.31635 0.0
N768 N 0.61447 0.81087 0.33209 0.0
C769 C 0.62797 0.82119 0.35786 0.0
C770 C 0.61791 0.80701 0.35008 0.0
C771 C 0.62213 0.82772 0.32963 0.0
N772 N 0.63048 0.83422 0.3449 0.0
O773 O 0.59208 0.82159 0.30515 0.0
H774 H 0.61373 0.79478 0.35741 0.0
H775 H 0.62235 0.83479 0.31646 0.0
O776 O 0.62352 0.80314 0.29634 0.0
C777 C 0.57747 0.82757 0.31277 0.0
O778 O 0.56938 0.81753 0.32554 0.0
N779 N 0.61145 0.77539 0.31934 0.0
C780 C 0.62336 0.74032 0.33002 0.0
C781 C 0.62822 0.7476 0.31275 0.0
C782 C 0.62184 0.76494 0.30755 0.0
C783 C 0.60508 0.76783 0.33534 0.0
C784 C 0.61135 0.75059 0.34129 0.0
H785 H 0.62481 0.76961 0.29371 0.0
H786 H 0.59489 0.77514 0.34345 0.0
H787 H 0.59927 0.80394 0.26999 0.0
H788 H 0.56183 0.75957 0.27145 0.0
H789 H 0.63311 0.82182 0.37188 0.0
H790 H 0.6363 0.73971 0.30294 0.0
H791 H 0.60663 0.74533 0.35446 0.0
C792 C 0.06708 0.95709 0.68137 0.0
C793 C 0.07556 0.9646 0.69719 0.0
C794 C 0.06783 0.93815 0.67791 0.0
C795 C 0.08979 0.8943 0.6914 0.0
H796 H 0.03974 0.87557 0.69538 0.0
C797 C 0.05616 0.83514 0.73483 0.0
C798 C 0.06694 0.81984 0.72988 0.0
C799 C 0.05551 0.85059 0.72337 0.0
C800 C 0.05376 0.88054 0.69382 0.0
H801 H 0.09287 0.95823 0.72082 0.0
H802 H 0.09459 0.92535 0.71447 0.0
H803 H 0.04486 0.90808 0.68799 0.0
H804 H 0.08464 0.8081 0.70878 0.0
H805 H 0.08386 0.83544 0.68889 0.0
H806 H 0.09866 0.86703 0.69843 0.0
C807 C 0.08727 0.93413 0.70482 0.0
C808 C 0.05672 0.89907 0.68951 0.0
C809 C 0.08629 0.95302 0.70846 0.0
C810 C 0.07611 0.81973 0.71278 0.0
C811 C 0.07573 0.83532 0.70146 0.0
C812 C 0.08684 0.8757 0.69544 0.0
C813 C 0.07741 0.92646 0.68999 0.0
C814 C 0.07473 0.90628 0.68918 0.0
C815 C 0.06589 0.85108 0.70697 0.0
C816 C 0.06879 0.86892 0.69759 0.0
H817 H 0.05911 0.96573 0.67212 0.0
H818 H 0.06023 0.93253 0.66631 0.0
H819 H 0.10379 0.89958 0.69117 0.0
H820 H 0.04899 0.83547 0.74796 0.0
H821 H 0.04799 0.86266 0.72802 0.0
C822 C 0.48993 0.81938 0.97417 0.0
C823 C 0.5021 0.83445 0.97329 0.0
C824 C 0.47381 0.81927 0.96361 0.0
C825 C 0.44057 0.82117 0.93824 0.0
H826 H 0.41541 0.86748 0.94791 0.0
C827 C 0.36174 0.8281 0.93145 0.0
C828 C 0.35378 0.83391 0.94822 0.0
C829 C 0.38062 0.83043 0.92823 0.0
C830 C 0.42232 0.85457 0.94483 0.0
H831 H 0.50775 0.86041 0.95938 0.0
H832 H 0.4798 0.86001 0.94076 0.0
H833 H 0.44861 0.86537 0.95251 0.0
H834 H 0.35935 0.84754 0.97436 0.0
H835 H 0.39203 0.85196 0.96855 0.0
H836 H 0.41394 0.81008 0.93184 0.0
C837 C 0.4826 0.84842 0.9498 0.0
C838 C 0.44136 0.85337 0.94729 0.0
C839 C 0.4987 0.84855 0.96037 0.0
C840 C 0.36489 0.84313 0.96119 0.0
C841 C 0.38367 0.84566 0.95786 0.0
C842 C 0.4215 0.8224 0.93569 0.0
C843 C 0.46959 0.83423 0.95197 0.0
C844 C 0.45056 0.83644 0.94482 0.0
C845 C 0.3918 0.83889 0.94159 0.0
C846 C 0.41212 0.83889 0.93979 0.0
H847 H 0.49236 0.80816 0.98375 0.0
H848 H 0.46403 0.80815 0.96566 0.0
H849 H 0.44735 0.80801 0.93604 0.0
H850 H 0.35349 0.82128 0.921 0.0
H851 H 0.38656 0.82522 0.91552 0.0
C852 C 0.47999 0.24263 0.1889 0.0
C853 C 0.49279 0.24156 0.20341 0.0
C854 C 0.47819 0.22795 0.17649 0.0
C855 C 0.49802 0.18254 0.16303 0.0
H856 H 0.44882 0.16403 0.17325 0.0
C857 C 0.48634 0.10558 0.16771 0.0
C858 C 0.48079 0.10147 0.18589 0.0
C859 C 0.48363 0.12321 0.1604 0.0
C860 C 0.46248 0.16908 0.16983 0.0
H861 H 0.51486 0.22554 0.21552 0.0
H862 H 0.51204 0.20004 0.19376 0.0
H863 H 0.45519 0.1969 0.17639 0.0
H864 H 0.46644 0.11211 0.20995 0.0
H865 H 0.46157 0.14268 0.19721 0.0
H866 H 0.50577 0.1545 0.15829 0.0
C867 C 0.50338 0.21209 0.1918 0.0
C868 C 0.46612 0.18793 0.17147 0.0
C869 C 0.50495 0.22658 0.20435 0.0
C870 C 0.47082 0.11475 0.19589 0.0
C871 C 0.46797 0.13231 0.18853 0.0
C872 C 0.49436 0.16371 0.1613 0.0
C873 C 0.48938 0.21221 0.17833 0.0
C874 C 0.48424 0.19458 0.16941 0.0
C875 C 0.47512 0.13697 0.17107 0.0
C876 C 0.47688 0.15668 0.16601 0.0
H877 H 0.47042 0.2541 0.18808 0.0
H878 H 0.46729 0.22835 0.16625 0.0
H879 H 0.51205 0.18739 0.16116 0.0
H880 H 0.49366 0.09545 0.15947 0.0
H881 H 0.48911 0.12639 0.14685 0.0
C882 C 0.12233 0.22002 0.49005 0.0
C883 C 0.1103 0.21011 0.50156 0.0
C884 C 0.13982 0.21306 0.48601 0.0
C885 C 0.17487 0.18592 0.50855 0.0
H886 H 0.20194 0.19841 0.46411 0.0
C887 C 0.24452 0.22023 0.50852 0.0
C888 C 0.25601 0.21908 0.49295 0.0
C889 C 0.22843 0.20971 0.50948 0.0
C890 C 0.19467 0.19427 0.47651 0.0
H891 H 0.10646 0.18439 0.51646 0.0
H892 H 0.13723 0.17239 0.50963 0.0
H893 H 0.16842 0.19751 0.46336 0.0
H894 H 0.26076 0.20454 0.46715 0.0
H895 H 0.23277 0.186 0.46899 0.0
H896 H 0.20112 0.18372 0.52196 0.0
C897 C 0.13317 0.1856 0.50392 0.0
C898 C 0.17543 0.19396 0.47609 0.0
C899 C 0.11563 0.19253 0.50789 0.0
C900 C 0.25217 0.20576 0.47934 0.0
C901 C 0.23607 0.19522 0.48031 0.0
C902 C 0.19414 0.18621 0.50897 0.0
C903 C 0.14563 0.19606 0.49341 0.0
C904 C 0.16537 0.19088 0.49236 0.0
C905 C 0.22354 0.19785 0.49488 0.0
C906 C 0.20417 0.19148 0.49322 0.0
H907 H 0.1187 0.23364 0.48508 0.0
H908 H 0.14921 0.22159 0.47809 0.0
H909 H 0.16749 0.18345 0.52133 0.0
H910 H 0.24734 0.23013 0.51938 0.0
H911 H 0.21907 0.21215 0.5209 0.0
C912 C 0.597 0.59256 0.31468 0.0
C913 C 0.60031 0.57744 0.32628 0.0
C914 C 0.60884 0.60773 0.315 0.0
C915 C 0.63304 0.63307 0.34889 0.0
H916 H 0.64513 0.66471 0.30742 0.0
C917 C 0.6466 0.71455 0.32921 0.0
C918 C 0.62936 0.72138 0.33513 0.0
C919 C 0.6508 0.6958 0.33087 0.0
C920 C 0.64235 0.65591 0.3192 0.0
H921 H 0.61894 0.56563 0.34649 0.0
H922 H 0.63943 0.59256 0.34745 0.0
H923 H 0.63897 0.63196 0.30215 0.0
H924 H 0.60372 0.71398 0.34885 0.0
H925 H 0.61135 0.68158 0.35227 0.0
H926 H 0.63466 0.6574 0.36567 0.0
C927 C 0.6279 0.5925 0.33792 0.0
C928 C 0.63875 0.63723 0.31616 0.0
C929 C 0.61624 0.57716 0.33734 0.0
C930 C 0.61718 0.70936 0.34428 0.0
C931 C 0.62155 0.69072 0.34625 0.0
C932 C 0.63638 0.65181 0.35189 0.0
C933 C 0.62395 0.60812 0.32717 0.0
C934 C 0.63319 0.6259 0.33085 0.0
C935 C 0.63805 0.68367 0.3389 0.0
C936 C 0.64016 0.66351 0.33693 0.0
H937 H 0.58478 0.593 0.30607 0.0
H938 H 0.60535 0.61971 0.30675 0.0
H939 H 0.62866 0.62463 0.36043 0.0
H940 H 0.65654 0.72352 0.32256 0.0
H941 H 0.66365 0.69065 0.32518 0.0
C942 C 0.58891 0.29882 0.5986 0.0
C943 C 0.57321 0.30991 0.60084 0.0
C944 C 0.6033 0.29978 0.61133 0.0
C945 C 0.63152 0.30254 0.64205 0.0
H946 H 0.64846 0.35334 0.64024 0.0
C947 C 0.70767 0.31834 0.65021 0.0
C948 C 0.71413 0.32625 0.63367 0.0
C949 C 0.68897 0.31918 0.6548 0.0
C950 C 0.64378 0.33917 0.64128 0.0
H951 H 0.55953 0.32972 0.61864 0.0
H952 H 0.585 0.33171 0.64079 0.0
H953 H 0.61636 0.3462 0.63297 0.0
H954 H 0.70633 0.34279 0.60993 0.0
H955 H 0.67386 0.34446 0.61805 0.0
H956 H 0.65929 0.29532 0.64882 0.0
C957 C 0.58605 0.32215 0.62932 0.0
C958 C 0.62539 0.33507 0.63725 0.0
C959 C 0.57151 0.32096 0.61671 0.0
C960 C 0.70187 0.33662 0.62281 0.0
C961 C 0.68322 0.33761 0.6275 0.0
C962 C 0.64986 0.30665 0.64623 0.0
C963 C 0.60233 0.31206 0.62636 0.0
C964 C 0.61942 0.31662 0.63652 0.0
C965 C 0.67646 0.32816 0.64306 0.0
C966 C 0.65639 0.32487 0.64478 0.0
H967 H 0.59045 0.29017 0.58648 0.0
H968 H 0.61578 0.29201 0.60858 0.0
H969 H 0.62718 0.28823 0.6417 0.0
H970 H 0.7169 0.31065 0.65911 0.0
H971 H 0.68412 0.31194 0.66697 0.0
C972 C 0.93016 0.35825 0.82911 0.0
C973 C 0.94853 0.35477 0.83435 0.0
C974 C 0.92169 0.37497 0.83362 0.0
C975 C 0.92871 0.41913 0.85938 0.0
H976 H 0.91374 0.44129 0.81299 0.0
C977 C 0.94255 0.49443 0.84876 0.0
C978 C 0.9551 0.49576 0.83403 0.0
C979 C 0.93069 0.47925 0.85002 0.0
C980 C 0.91748 0.43531 0.82619 0.0
H981 H 0.97192 0.36538 0.84968 0.0
H982 H 0.95735 0.39458 0.85738 0.0
H983 H 0.91457 0.40789 0.81586 0.0
H984 H 0.96357 0.4839 0.80795 0.0
H985 H 0.94305 0.45749 0.81003 0.0
H986 H 0.93358 0.44651 0.86903 0.0
C987 C 0.94929 0.38437 0.85 0.0
C988 C 0.91784 0.41613 0.82791 0.0
C989 C 0.95774 0.36764 0.8455 0.0
C990 C 0.95409 0.48302 0.8195 0.0
C991 C 0.94217 0.46797 0.82067 0.0
C992 C 0.92844 0.43831 0.85763 0.0
C993 C 0.93146 0.38852 0.84346 0.0
C994 C 0.92476 0.40787 0.84408 0.0
C995 C 0.9312 0.46532 0.8365 0.0
C996 C 0.92416 0.44652 0.84054 0.0
H997 H 0.9226 0.34834 0.82082 0.0
H998 H 0.90786 0.37765 0.82862 0.0
H999 H 0.93364 0.41313 0.87216 0.0
H1000 H 0.94311 0.50414 0.86014 0.0
H1001 H 0.92224 0.47767 0.86227 0.0
C1002 C 0.95736 0.70004 0.09768 0.0
C1003 C 0.9702 0.68819 0.08921 0.0
C1004 C 0.93895 0.69476 0.09948 0.0
C1005 C 0.90571 0.67081 0.07284 0.0
H1006 H 0.87323 0.686 0.11262 0.0
C1007 C 0.84288 0.71551 0.06443 0.0
C1008 C 0.82782 0.71371 0.07643 0.0
C1009 C 0.85757 0.70312 0.06545 0.0
C1010 C 0.88199 0.68113 0.1015 0.0
H1011 H 0.974 0.66075 0.07764 0.0
H1012 H 0.9415 0.65198 0.07999 0.0
H1013 H 0.90598 0.68122 0.11879 0.0
H1014 H 0.81545 0.69709 0.09798 0.0
H1015 H 0.84153 0.67558 0.10016 0.0
H1016 H 0.88203 0.67247 0.05519 0.0
C1017 C 0.94585 0.66529 0.08527 0.0
C1018 C 0.90074 0.67852 0.10504 0.0
C1019 C 0.96438 0.67043 0.08377 0.0
C1020 C 0.82695 0.69859 0.08852 0.0
C1021 C 0.84182 0.68636 0.08979 0.0
C1022 C 0.88698 0.67363 0.06927 0.0
C1023 C 0.9329 0.67764 0.09265 0.0
C1024 C 0.91289 0.67437 0.09052 0.0
C1025 C 0.85755 0.68897 0.07875 0.0
C1026 C 0.8752 0.67984 0.08336 0.0
H1027 H 0.96117 0.71388 0.10184 0.0
H1028 H 0.92917 0.70468 0.10497 0.0
H1029 H 0.91481 0.66766 0.06139 0.0
H1030 H 0.84378 0.72715 0.05507 0.0
H1031 H 0.86961 0.70563 0.05694 0.0
C1032 C 0.76801 0.11208 0.99361 0.0
C1033 C 0.753 0.11325 0.00578 0.0
C1034 C 0.76903 0.12376 0.97834 0.0
C1035 C 0.73569 0.14239 0.94706 0.0
H1036 H 0.77994 0.15234 0.91866 0.0
C1037 C 0.74652 0.11696 0.8743 0.0
C1038 C 0.75767 0.12678 0.86185 0.0
C1039 C 0.7432 0.12392 0.89195 0.0
C1040 C 0.76733 0.15015 0.92641 0.0
H1041 H 0.72839 0.1288 0.01283 0.0
H1042 H 0.73018 0.14926 0.98609 0.0
H1043 H 0.78167 0.15111 0.95225 0.0
H1044 H 0.77275 0.15235 0.85759 0.0
H1045 H 0.76731 0.16424 0.8887 0.0
H1046 H 0.72162 0.14018 0.92117 0.0
C1047 C 0.74108 0.13924 0.98826 0.0
C1048 C 0.76837 0.14934 0.94565 0.0
C1049 C 0.74011 0.12759 0.0036 0.0
C1050 C 0.76446 0.14425 0.86704 0.0
C1051 C 0.76125 0.15114 0.88477 0.0
C1052 C 0.73467 0.14319 0.92785 0.0
C1053 C 0.75497 0.13673 0.97495 0.0
C1054 C 0.75281 0.14426 0.95605 0.0
C1055 C 0.75102 0.14079 0.89755 0.0
C1056 C 0.75071 0.1459 0.91733 0.0
H1057 H 0.77825 0.10129 0.99516 0.0
H1058 H 0.77988 0.12136 0.96833 0.0
H1059 H 0.72342 0.13844 0.95464 0.0
H1060 H 0.74123 0.10341 0.87083 0.0
H1061 H 0.73551 0.11546 0.9016 0.0
C1062 C 0.24841 0.47541 0.08495 0.0
C1063 C 0.23345 0.4756 0.07265 0.0
C1064 C 0.24769 0.46466 0.1009 0.0
C1065 C 0.21266 0.45164 0.13326 0.0
H1066 H 0.25478 0.43283 0.16037 0.0
C1067 C 0.22756 0.4689 0.20816 0.0
C1068 C 0.23678 0.45612 0.21944 0.0
C1069 C 0.22323 0.46438 0.18994 0.0
C1070 C 0.2427 0.43759 0.15295 0.0
H1071 H 0.20673 0.46354 0.06649 0.0
H1072 H 0.20548 0.44476 0.09444 0.0
H1073 H 0.25644 0.43549 0.12684 0.0
H1074 H 0.24716 0.42805 0.22106 0.0
H1075 H 0.23992 0.42035 0.18903 0.0
H1076 H 0.19936 0.45486 0.15948 0.0
C1077 C 0.21771 0.45294 0.09175 0.0
C1078 C 0.24372 0.43922 0.13378 0.0
C1079 C 0.2185 0.46361 0.07572 0.0
C1080 C 0.24046 0.43834 0.21253 0.0
C1081 C 0.23622 0.43386 0.19427 0.0
C1082 C 0.21167 0.45009 0.15243 0.0
C1083 C 0.23193 0.45402 0.10487 0.0
C1084 C 0.22906 0.44714 0.12388 0.0
C1085 C 0.22807 0.44704 0.18266 0.0
C1086 C 0.22703 0.44394 0.16251 0.0
H1087 H 0.26017 0.48439 0.08278 0.0
H1088 H 0.25881 0.46589 0.11083 0.0
H1089 H 0.20115 0.45787 0.12602 0.0
H1090 H 0.22466 0.48274 0.21301 0.0
H1091 H 0.21717 0.47493 0.18123 0.0
C1092 C 0.85984 0.00055 0.44774 0.0
C1093 C 0.87127 0.01169 0.45875 0.0
C1094 C 0.86408 0.99758 0.4292 0.0
C1095 C 0.88436 0.02208 0.39123 0.0
H1096 H 0.87226 0.977 0.36502 0.0
C1097 C 0.84323 0.01931 0.32489 0.0
C1098 C 0.84535 0.00434 0.31276 0.0
C1099 C 0.85469 0.02102 0.34028 0.0
C1100 C 0.87621 0.98963 0.37201 0.0
H1101 H 0.89691 0.02725 0.45927 0.0
H1102 H 0.90394 0.02251 0.4266 0.0
H1103 H 0.8772 0.97607 0.39825 0.0
H1104 H 0.86216 0.98041 0.30621 0.0
H1105 H 0.88223 0.98349 0.33307 0.0
H1106 H 0.88219 0.03584 0.36514 0.0
C1107 C 0.89171 0.01614 0.43241 0.0
C1108 C 0.87886 0.98909 0.39107 0.0
C1109 C 0.88759 0.01895 0.45104 0.0
C1110 C 0.86022 0.99212 0.31532 0.0
C1111 C 0.87164 0.9938 0.33075 0.0
C1112 C 0.88161 0.02264 0.37215 0.0
C1113 C 0.87975 0.00579 0.42123 0.0
C1114 C 0.88203 0.00545 0.40095 0.0
C1115 C 0.86841 0.00775 0.34383 0.0
C1116 C 0.8766 0.00657 0.36252 0.0
H1117 H 0.84707 0.99493 0.45312 0.0
H1118 H 0.85444 0.98978 0.42082 0.0
H1119 H 0.88677 0.03492 0.39853 0.0
H1120 H 0.83204 0.02906 0.32308 0.0
H1121 H 0.85176 0.03187 0.35016 0.0
C1122 C 0.37317 0.5895 0.62273 0.0
C1123 C 0.38537 0.58052 0.6106 0.0
C1124 C 0.37777 0.59172 0.64129 0.0
C1125 C 0.40034 0.56536 0.67582 0.0
H1126 H 0.38319 0.60519 0.70723 0.0
C1127 C 0.35251 0.55686 0.73625 0.0
C1128 C 0.35361 0.56874 0.75147 0.0
C1129 C 0.36555 0.55803 0.72215 0.0
C1130 C 0.3886 0.59407 0.6988 0.0
H1131 H 0.41277 0.56856 0.6081 0.0
H1132 H 0.42039 0.57173 0.64082 0.0
H1133 H 0.38957 0.61119 0.6747 0.0
H1134 H 0.36954 0.5903 0.76471 0.0
H1135 H 0.39218 0.59277 0.7396 0.0
H1136 H 0.39765 0.54786 0.69951 0.0
C1137 C 0.40732 0.57705 0.63585 0.0
C1138 C 0.39212 0.5975 0.68016 0.0
C1139 C 0.40284 0.57507 0.61719 0.0
C1140 C 0.36859 0.58093 0.75308 0.0
C1141 C 0.38147 0.58236 0.73877 0.0
C1142 C 0.39662 0.56188 0.69441 0.0
C1143 C 0.39456 0.58484 0.64816 0.0
C1144 C 0.39697 0.58294 0.66832 0.0
C1145 C 0.37965 0.57136 0.7229 0.0
C1146 C 0.38968 0.57599 0.70575 0.0
H1147 H 0.35955 0.59372 0.61826 0.0
H1148 H 0.36754 0.59754 0.65054 0.0
H1149 H 0.40401 0.55386 0.66697 0.0
H1150 H 0.34099 0.54743 0.7348 0.0
H1151 H 0.36365 0.54957 0.70995 0.0
C1152 C 0.04753 0.17471 0.55983 0.0
C1153 C 0.04048 0.19265 0.56218 0.0
C1154 C 0.05295 0.16426 0.57502 0.0
C1155 C 0.04626 0.15654 0.62378 0.0
H1156 H 0.09532 0.13508 0.62164 0.0
C1157 C 0.07258 0.10896 0.68172 0.0
C1158 C 0.08201 0.09302 0.67598 0.0
C1159 C 0.06921 0.12334 0.66932 0.0
C1160 C 0.08153 0.14082 0.62241 0.0
H1161 H 0.03285 0.21337 0.58246 0.0
H1162 H 0.04194 0.19468 0.60924 0.0
H1163 H 0.085 0.15563 0.59705 0.0
H1164 H 0.09578 0.07975 0.65302 0.0
H1165 H 0.08958 0.10455 0.63117 0.0
H1166 H 0.04233 0.14108 0.6486 0.0
C1167 C 0.04343 0.18896 0.59549 0.0
C1168 C 0.07569 0.15266 0.60838 0.0
C1169 C 0.03822 0.19959 0.5802 0.0
C1170 C 0.08868 0.092 0.65783 0.0
C1171 C 0.08512 0.10626 0.64534 0.0
C1172 C 0.05201 0.14448 0.63772 0.0
C1173 C 0.05123 0.17137 0.59295 0.0
C1174 C 0.0579 0.16036 0.60878 0.0
C1175 C 0.07502 0.12196 0.65083 0.0
C1176 C 0.06961 0.13621 0.63704 0.0
H1177 H 0.04944 0.16888 0.54618 0.0
H1178 H 0.05865 0.15061 0.57275 0.0
H1179 H 0.03244 0.16225 0.62431 0.0
H1180 H 0.06751 0.11014 0.69575 0.0
H1181 H 0.06178 0.13538 0.67416 0.0
C1182 C 0.20991 0.83109 0.92953 0.0
C1183 C 0.22588 0.84123 0.92533 0.0
C1184 C 0.19643 0.82808 0.91611 0.0
C1185 C 0.18061 0.84171 0.86913 0.0
H1186 H 0.16423 0.79075 0.86723 0.0
C1187 C 0.14733 0.80809 0.80456 0.0
C1188 C 0.13291 0.79543 0.80745 0.0
C1189 C 0.15688 0.81565 0.81955 0.0
C1190 C 0.16841 0.80511 0.8677 0.0
H1191 H 0.23988 0.85698 0.90412 0.0
H1192 H 0.21645 0.85152 0.88048 0.0
H1193 H 0.18371 0.80093 0.89253 0.0
H1194 H 0.11675 0.78133 0.82841 0.0
H1195 H 0.13331 0.79458 0.85446 0.0
H1196 H 0.1656 0.84562 0.84391 0.0
C1197 C 0.21419 0.8461 0.89423 0.0
C1198 C 0.17957 0.81098 0.88226 0.0
C1199 C 0.22762 0.84924 0.90775 0.0
C1200 C 0.1279 0.79091 0.82566 0.0
C1201 C 0.13743 0.79845 0.84061 0.0
C1202 C 0.16945 0.83579 0.8545 0.0
C1203 C 0.19872 0.835 0.89811 0.0
C1204 C 0.18589 0.82931 0.88313 0.0
C1205 C 0.1522 0.81069 0.83773 0.0
C1206 C 0.16333 0.81739 0.85359 0.0
H1207 H 0.20814 0.82503 0.94309 0.0
H1208 H 0.18446 0.81986 0.91969 0.0
H1209 H 0.18511 0.85596 0.86949 0.0
H1210 H 0.15153 0.81188 0.79071 0.0
H1211 H 0.16831 0.82491 0.81687 0.0
C1212 C 0.52213 0.88286 0.08102 0.0
C1213 C 0.51178 0.88134 0.06467 0.0
C1214 C 0.5147 0.89161 0.09653 0.0
C1215 C 0.48143 0.92734 0.10862 0.0
H1216 H 0.49063 0.91092 0.15876 0.0
C1217 C 0.46258 0.97346 0.17029 0.0
C1218 C 0.47675 0.97549 0.18339 0.0
C1219 C 0.46324 0.9592 0.15728 0.0
C1220 C 0.48797 0.9157 0.14484 0.0
H1221 H 0.48527 0.88724 0.05199 0.0
H1222 H 0.47239 0.90263 0.07907 0.0
H1223 H 0.49884 0.89092 0.13285 0.0
H1224 H 0.50189 0.96321 0.19407 0.0
H1225 H 0.50337 0.9388 0.17114 0.0
H1226 H 0.47137 0.95242 0.12043 0.0
C1227 C 0.48627 0.89713 0.07982 0.0
C1228 C 0.49265 0.90425 0.13002 0.0
C1229 C 0.49365 0.88827 0.06434 0.0
C1230 C 0.49097 0.96229 0.18391 0.0
C1231 C 0.49167 0.9481 0.1709 0.0
C1232 C 0.47685 0.93883 0.12341 0.0
C1233 C 0.49681 0.89911 0.09598 0.0
C1234 C 0.4898 0.91013 0.11176 0.0
C1235 C 0.47809 0.94668 0.15711 0.0
C1236 C 0.48046 0.93334 0.14168 0.0
H1237 H 0.53612 0.87764 0.08177 0.0
H1238 H 0.52324 0.89311 0.10871 0.0
H1239 H 0.47927 0.93235 0.09469 0.0
H1240 H 0.45144 0.98339 0.16951 0.0
H1241 H 0.4524 0.95832 0.14702 0.0
C1242 C 0.32728 0.24425 0.38475 0.0
C1243 C 0.33236 0.24413 0.40348 0.0
C1244 C 0.34059 0.24171 0.37098 0.0
C1245 C 0.38944 0.25072 0.36406 0.0
H1246 H 0.38229 0.22584 0.31718 0.0
C1247 C 0.44285 0.25862 0.30636 0.0
C1248 C 0.43566 0.26214 0.2887 0.0
C1249 C 0.43143 0.25196 0.3204 0.0
C1250 C 0.38446 0.23292 0.33017 0.0
H1251 H 0.35502 0.23948 0.42249 0.0
H1252 H 0.37824 0.23519 0.39849 0.0
H1253 H 0.3596 0.22184 0.34189 0.0
H1254 H 0.4111 0.2607 0.27164 0.0
H1255 H 0.39105 0.24967 0.29624 0.0
H1256 H 0.41368 0.26256 0.35229 0.0
C1257 C 0.36405 0.23762 0.39444 0.0
C1258 C 0.3715 0.23057 0.34432 0.0
C1259 C 0.35076 0.24012 0.40817 0.0
C1260 C 0.41704 0.25809 0.28511 0.0
C1261 C 0.40556 0.25164 0.29922 0.0
C1262 C 0.40227 0.25319 0.34993 0.0
C1263 C 0.35921 0.23899 0.37571 0.0
C1264 C 0.37375 0.23966 0.36131 0.0
C1265 C 0.41252 0.24892 0.31715 0.0
C1266 C 0.39982 0.24456 0.3327 0.0
H1267 H 0.31326 0.24739 0.38067 0.0
H1268 H 0.33647 0.24297 0.35666 0.0
H1269 H 0.39139 0.25819 0.37688 0.0
H1270 H 0.45722 0.26137 0.30946 0.0
H1271 H 0.43736 0.24961 0.33393 0.0
C1272 C 0.56444 0.38739 0.52306 0.0
C1273 C 0.55206 0.3731 0.51859 0.0
C1274 C 0.56783 0.40167 0.51048 0.0
C1275 C 0.54418 0.42654 0.47421 0.0
H1276 H 0.59223 0.44416 0.45849 0.0
C1277 C 0.55203 0.47498 0.41238 0.0
C1278 C 0.56603 0.4884 0.41241 0.0
C1279 C 0.55088 0.462 0.42653 0.0
C1280 C 0.57871 0.43964 0.46301 0.0
H1281 H 0.53429 0.36211 0.49705 0.0
H1282 H 0.54009 0.38707 0.47533 0.0
H1283 H 0.59013 0.41872 0.48066 0.0
H1284 H 0.58961 0.49896 0.42741 0.0
H1285 H 0.58736 0.47645 0.45258 0.0
H1286 H 0.53262 0.44746 0.45699 0.0
C1287 C 0.54709 0.38725 0.48856 0.0
C1288 C 0.57755 0.42502 0.4756 0.0
C1289 C 0.54388 0.3729 0.50098 0.0
C1290 C 0.57871 0.48873 0.42708 0.0
C1291 C 0.57747 0.47579 0.44139 0.0
C1292 C 0.54532 0.44126 0.46188 0.0
C1293 C 0.55872 0.40198 0.49338 0.0
C1294 C 0.56026 0.41811 0.48097 0.0
C1295 C 0.5636 0.46217 0.44119 0.0
C1296 C 0.56258 0.44775 0.45578 0.0
H1297 H 0.57098 0.38791 0.5365 0.0
H1298 H 0.57687 0.4129 0.51447 0.0
H1299 H 0.53068 0.4217 0.47847 0.0
H1300 H 0.54235 0.474 0.40103 0.0
H1301 H 0.54031 0.45146 0.42562 0.0
C1302 C 0.94359 0.28495 0.75145 0.0
C1303 C 0.93648 0.28635 0.76947 0.0
C1304 C 0.93235 0.28877 0.73618 0.0
C1305 C 0.88299 0.29557 0.72288 0.0
H1306 H 0.90378 0.32337 0.68208 0.0
C1307 C 0.83766 0.33436 0.67094 0.0
C1308 C 0.84029 0.32909 0.65246 0.0
C1309 C 0.85051 0.32933 0.6844 0.0
C1310 C 0.89787 0.31554 0.69337 0.0
H1311 H 0.91193 0.29253 0.78555 0.0
H1312 H 0.8927 0.29965 0.75924 0.0
H1313 H 0.9239 0.31283 0.70709 0.0
H1314 H 0.85878 0.31547 0.63332 0.0
H1315 H 0.88162 0.30707 0.6569 0.0
H1316 H 0.85687 0.29895 0.70947 0.0
C1317 C 0.90674 0.29518 0.7567 0.0
C1318 C 0.90937 0.30936 0.70762 0.0
C1319 C 0.91786 0.2912 0.77187 0.0
C1320 C 0.85649 0.31962 0.64751 0.0
C1321 C 0.86952 0.31488 0.66093 0.0
C1322 C 0.8715 0.30201 0.70884 0.0
C1323 C 0.91384 0.29418 0.73865 0.0
C1324 C 0.90202 0.29948 0.72268 0.0
C1325 C 0.86635 0.31924 0.67955 0.0
C1326 C 0.8788 0.31221 0.69409 0.0
H1327 H 0.95789 0.28121 0.74915 0.0
H1328 H 0.93822 0.28758 0.72247 0.0
H1329 H 0.87688 0.28759 0.73396 0.0
H1330 H 0.82519 0.34147 0.67512 0.0
H1331 H 0.84786 0.33294 0.69868 0.0
C1332 C 0.04768 0.64736 0.04363 0.0
C1333 C 0.05173 0.66603 0.04021 0.0
C1334 C 0.04453 0.63518 0.02901 0.0
C1335 C 0.05042 0.62857 0.97882 0.0
H1336 H 0.00572 0.59934 0.98309 0.0
C1337 C 0.01859 0.592 0.91603 0.0
C1338 C 0.01141 0.57416 0.91854 0.0
C1339 C 0.02388 0.60267 0.93117 0.0
C1340 C 0.01838 0.60718 0.98176 0.0
H1341 H 0.05677 0.68629 0.0187 0.0
H1342 H 0.05132 0.66499 0.99319 0.0
H1343 H 0.0157 0.61839 0.00898 0.0
H1344 H 0.00387 0.55359 0.93888 0.0
H1345 H 0.01327 0.57217 0.96547 0.0
H1346 H 0.05313 0.61739 0.95162 0.0
C1347 C 0.05056 0.65979 0.0072 0.0
C1348 C 0.02411 0.6181 0.9966 0.0
C1349 C 0.05363 0.67201 0.02183 0.0
C1350 C 0.00918 0.56737 0.93657 0.0
C1351 C 0.01459 0.57802 0.95177 0.0
C1352 C 0.04475 0.61757 0.96401 0.0
C1353 C 0.04548 0.64138 0.01066 0.0
C1354 C 0.0401 0.62902 0.99524 0.0
C1355 C 0.02222 0.59571 0.94922 0.0
C1356 C 0.02856 0.60689 0.96523 0.0
H1357 H 0.04622 0.64225 0.05761 0.0
H1358 H 0.04095 0.62099 0.03208 0.0
H1359 H 0.06291 0.63668 0.97745 0.0
H1360 H 0.02015 0.59771 0.9023 0.0
H1361 H 0.02925 0.61641 0.92872 0.0
C1362 C 0.74024 0.74989 0.17355 0.0
C1363 C 0.7379 0.75969 0.15704 0.0
C1364 C 0.73056 0.75517 0.18943 0.0
C1365 C 0.70366 0.7948 0.20879 0.0
H1366 H 0.68753 0.75817 0.24433 0.0
C1367 C 0.64864 0.80626 0.26623 0.0
C1368 C 0.65386 0.80049 0.28401 0.0
C1369 C 0.66001 0.80261 0.25105 0.0
C1370 C 0.69209 0.76853 0.23455 0.0
H1371 H 0.72314 0.78197 0.1437 0.0
H1372 H 0.70557 0.79066 0.17098 0.0
H1373 H 0.70459 0.74838 0.217 0.0
H1374 H 0.67533 0.78687 0.29991 0.0
H1375 H 0.69492 0.7802 0.27332 0.0
H1376 H 0.69031 0.81479 0.22613 0.0
C1377 C 0.71542 0.77947 0.17213 0.0
C1378 C 0.70195 0.76297 0.21893 0.0
C1379 C 0.72535 0.77443 0.15643 0.0
C1380 C 0.67093 0.79157 0.28641 0.0
C1381 C 0.68211 0.78763 0.27121 0.0
C1382 C 0.69347 0.80029 0.22423 0.0
C1383 C 0.71808 0.77012 0.18895 0.0
C1384 C 0.70786 0.77602 0.20581 0.0
C1385 C 0.6766 0.79285 0.2534 0.0
C1386 C 0.68764 0.7872 0.23722 0.0
H1387 H 0.74996 0.73855 0.17425 0.0
H1388 H 0.73318 0.74777 0.20215 0.0
H1389 H 0.70832 0.80534 0.19927 0.0
H1390 H 0.63555 0.81314 0.26397 0.0
H1391 H 0.65549 0.8067 0.23739 0.0
C1392 C 0.64257 0.07314 0.07481 0.0
C1393 C 0.66032 0.07346 0.08266 0.0
C1394 C 0.62721 0.06861 0.0856 0.0
C1395 C 0.61588 0.04204 0.12715 0.0
H1396 H 0.56803 0.0657 0.12339 0.0
C1397 C 0.55621 0.02729 0.1778 0.0
C1398 C 0.53806 0.02762 0.17096 0.0
C1399 C 0.57105 0.03195 0.1664 0.0
C1400 C 0.58124 0.05876 0.12438 0.0
H1401 H 0.67567 0.07083 0.10821 0.0
H1402 H 0.6489 0.06299 0.12704 0.0
H1403 H 0.59387 0.07739 0.10517 0.0
H1404 H 0.52139 0.03186 0.14641 0.0
H1405 H 0.54733 0.03955 0.12643 0.0
H1406 H 0.60331 0.02335 0.14625 0.0
C1407 C 0.64691 0.06579 0.11248 0.0
C1408 C 0.59604 0.06553 0.11402 0.0
C1409 C 0.66222 0.07034 0.10172 0.0
C1410 C 0.53518 0.03161 0.15218 0.0
C1411 C 0.55003 0.0362 0.14075 0.0
C1412 C 0.60109 0.03524 0.13745 0.0
C1413 C 0.62934 0.06433 0.10442 0.0
C1414 C 0.61355 0.05731 0.1154 0.0
C1415 C 0.56807 0.03689 0.14786 0.0
C1416 C 0.58361 0.04357 0.13626 0.0
H1417 H 0.64069 0.07532 0.06015 0.0
H1418 H 0.61383 0.06755 0.07901 0.0
H1419 H 0.62913 0.03518 0.12822 0.0
H1420 H 0.55896 0.02414 0.19213 0.0
H1421 H 0.58475 0.03242 0.17235 0.0
C1422 C 0.22585 0.41077 0.34062 0.0
C1423 C 0.23193 0.42888 0.34361 0.0
C1424 C 0.22704 0.39766 0.35473 0.0
C1425 C 0.22608 0.37236 0.38783 0.0
H1426 H 0.26904 0.37686 0.41939 0.0
C1427 C 0.24584 0.31519 0.44015 0.0
C1428 C 0.26478 0.31141 0.44183 0.0
C1429 C 0.23981 0.33085 0.43054 0.0
C1430 C 0.25705 0.37526 0.4106 0.0
H1431 H 0.24285 0.44803 0.3637 0.0
H1432 H 0.24391 0.42558 0.38881 0.0
H1433 H 0.26191 0.40127 0.39784 0.0
H1434 H 0.29227 0.32106 0.43477 0.0
H1435 H 0.28188 0.34766 0.41751 0.0
H1436 H 0.22219 0.34559 0.39963 0.0
C1437 C 0.23901 0.42108 0.37542 0.0
C1438 C 0.25271 0.38951 0.39842 0.0
C1439 C 0.23827 0.43402 0.36115 0.0
C1440 C 0.27756 0.32363 0.43386 0.0
C1441 C 0.27157 0.33904 0.42406 0.0
C1442 C 0.23067 0.3579 0.39977 0.0
C1443 C 0.23398 0.40256 0.37226 0.0
C1444 C 0.23735 0.38816 0.3866 0.0
C1445 C 0.25262 0.34289 0.42223 0.0
C1446 C 0.24646 0.359 0.41103 0.0
H1447 H 0.2211 0.40654 0.32708 0.0
H1448 H 0.22332 0.38354 0.35156 0.0
H1449 H 0.2139 0.37093 0.37928 0.0
H1450 H 0.23567 0.30608 0.44625 0.0
H1451 H 0.22512 0.33349 0.42965 0.0
C1452 C 0.89429 0.0187 0.60025 0.0
C1453 C 0.89809 0.0084 0.58425 0.0
C1454 C 0.908 0.02166 0.6135 0.0
C1455 C 0.95495 0.00607 0.62792 0.0
H1456 H 0.9582 0.05528 0.64892 0.0
C1457 C 0.02185 0.03485 0.65834 0.0
C1458 C 0.02095 0.04197 0.67639 0.0
C1459 C 0.00576 0.03082 0.6486 0.0
C1460 C 0.95731 0.04144 0.64331 0.0
H1461 H 0.91906 0.99285 0.56969 0.0
H1462 H 0.94313 0.9983 0.59247 0.0
H1463 H 0.93194 0.04718 0.62937 0.0
H1464 H 0.0024 0.05125 0.69804 0.0
H1465 H 0.9741 0.0446 0.68061 0.0
H1466 H 0.9808 0.00071 0.64121 0.0
C1467 C 0.92947 0.00375 0.59513 0.0
C1468 C 0.94225 0.03672 0.63218 0.0
C1469 C 0.91569 0.00062 0.58201 0.0
C1470 C 0.00354 0.04577 0.68416 0.0
C1471 C 0.98738 0.04196 0.67424 0.0
C1472 C 0.97009 0.01088 0.63881 0.0
C1473 C 0.92589 0.01454 0.61093 0.0
C1474 C 0.94102 0.01906 0.6241 0.0
C1475 C 0.9884 0.03405 0.65654 0.0
C1476 C 0.97155 0.02868 0.64636 0.0
H1477 H 0.88074 0.02465 0.60239 0.0
H1478 H 0.90461 0.02969 0.62565 0.0
H1479 H 0.95428 0.99222 0.62233 0.0
H1480 H 0.03499 0.03178 0.65189 0.0
H1481 H 0.00689 0.02498 0.63486 0.0
C1482 C 0.26701 0.76308 0.92748 0.0
C1483 C 0.27414 0.78006 0.92144 0.0
C1484 C 0.26938 0.74716 0.91682 0.0
C1485 C 0.2843 0.73103 0.86997 0.0
H1486 H 0.29393 0.68532 0.89615 0.0
C1487 C 0.31712 0.66576 0.83689 0.0
C1488 C 0.30647 0.64972 0.83897 0.0
C1489 C 0.31253 0.68177 0.84667 0.0
C1490 C 0.2912 0.69801 0.88871 0.0
H1491 H 0.28908 0.79377 0.89939 0.0
H1492 H 0.29384 0.76608 0.88123 0.0
H1493 H 0.28643 0.71314 0.91356 0.0
H1494 H 0.28316 0.63746 0.85317 0.0
H1495 H 0.27544 0.66533 0.87067 0.0
H1496 H 0.28993 0.71582 0.84517 0.0
C1497 C 0.28591 0.76498 0.89386 0.0
C1498 C 0.28672 0.71393 0.89863 0.0
C1499 C 0.28326 0.78092 0.90435 0.0
C1500 C 0.29143 0.64977 0.85123 0.0
C1501 C 0.28709 0.66561 0.86128 0.0
C1502 C 0.28915 0.71518 0.8601 0.0
C1503 C 0.27921 0.74783 0.90004 0.0
C1504 C 0.28322 0.73068 0.8894 0.0
C1505 C 0.29751 0.68177 0.85897 0.0
C1506 C 0.29262 0.69857 0.8694 0.0
H1507 H 0.25983 0.76203 0.94057 0.0
H1508 H 0.26364 0.7343 0.92185 0.0
H1509 H 0.28133 0.74352 0.86233 0.0
H1510 H 0.32873 0.66595 0.82747 0.0
H1511 H 0.32078 0.69411 0.84479 0.0
C1512 C 0.13801 0.49243 0.99223 0.0
C1513 C 0.15599 0.49916 0.98941 0.0
C1514 C 0.12727 0.48662 0.97729 0.0
C1515 C 0.12234 0.49831 0.92883 0.0
H1516 H 0.0835 0.46149 0.92973 0.0
C1517 C 0.06544 0.50149 0.87497 0.0
C1518 C 0.04756 0.50062 0.88242 0.0
C1519 C 0.08055 0.49518 0.88512 0.0
C1520 C 0.0943 0.47182 0.92925 0.0
H1521 H 0.17722 0.50373 0.96868 0.0
H1522 H 0.15867 0.49328 0.94282 0.0
H1523 H 0.10726 0.46133 0.95374 0.0
H1524 H 0.03129 0.49119 0.90572 0.0
H1525 H 0.05762 0.48083 0.92373 0.0
H1526 H 0.10901 0.50958 0.90519 0.0
C1527 C 0.15277 0.49276 0.95657 0.0
C1528 C 0.10791 0.47169 0.94297 0.0
C1529 C 0.16348 0.4986 0.97149 0.0
C1530 C 0.04492 0.49207 0.89963 0.0
C1531 C 0.06006 0.48601 0.90991 0.0
C1532 C 0.10874 0.49851 0.91524 0.0
C1533 C 0.13432 0.48741 0.95922 0.0
C1534 C 0.12177 0.48527 0.94317 0.0
C1535 C 0.07812 0.48817 0.90309 0.0
C1536 C 0.09423 0.48561 0.91556 0.0
H1537 H 0.13196 0.4924 0.00591 0.0
H1538 H 0.11307 0.48265 0.9798 0.0
H1539 H 0.13263 0.50917 0.92873 0.0
H1540 H 0.06785 0.50769 0.86158 0.0
H1541 H 0.09422 0.49659 0.87923 0.0
C1542 C 0.8073 0.81283 0.13402 0.0
C1543 C 0.80678 0.79392 0.1383 0.0
C1544 C 0.81392 0.82557 0.14688 0.0
C1545 C 0.81735 0.83162 0.19665 0.0
H1546 H 0.84387 0.87613 0.18316 0.0
C1547 C 0.82555 0.89191 0.24796 0.0
C1548 C 0.82066 0.90914 0.24052 0.0
C1549 C 0.82872 0.87679 0.23633 0.0
C1550 C 0.83648 0.86375 0.18715 0.0
H1551 H 0.81361 0.77344 0.15908 0.0
H1552 H 0.82513 0.79577 0.18157 0.0
H1553 H 0.84071 0.85115 0.16071 0.0
H1554 H 0.81649 0.92435 0.21507 0.0
H1555 H 0.82156 0.89807 0.19489 0.0
H1556 H 0.81235 0.84449 0.22275 0.0
C1557 C 0.82029 0.8007 0.16831 0.0
C1558 C 0.83469 0.84947 0.17431 0.0
C1559 C 0.81376 0.78793 0.15539 0.0
C1560 C 0.81987 0.91117 0.22124 0.0
C1561 C 0.82307 0.89614 0.20965 0.0
C1562 C 0.81909 0.84592 0.20947 0.0
C1563 C 0.82009 0.81969 0.16432 0.0
C1564 C 0.82464 0.83349 0.17875 0.0
C1565 C 0.82718 0.87869 0.21705 0.0
C1566 C 0.82818 0.86238 0.20466 0.0
H1567 H 0.8021 0.81789 0.12094 0.0
H1568 H 0.81339 0.84012 0.14346 0.0
H1569 H 0.80936 0.81955 0.20042 0.0
H1570 H 0.82625 0.88994 0.26276 0.0
H1571 H 0.83203 0.86355 0.24243 0.0
C1572 C 0.49933 0.54929 0.38042 0.0
C1573 C 0.51758 0.55336 0.38563 0.0
C1574 C 0.48448 0.55646 0.39038 0.0
C1575 C 0.47078 0.59173 0.42475 0.0
H1576 H 0.43368 0.55546 0.43791 0.0
C1577 C 0.41906 0.60067 0.48515 0.0
C1578 C 0.40173 0.59215 0.4836 0.0
C1579 C 0.43214 0.59878 0.47106 0.0
C1580 C 0.44366 0.56591 0.43409 0.0
H1581 H 0.5345 0.56876 0.40498 0.0
H1582 H 0.5085 0.58113 0.42252 0.0
H1583 H 0.45858 0.54686 0.41724 0.0
H1584 H 0.3838 0.5764 0.46563 0.0
H1585 H 0.40634 0.57352 0.44075 0.0
H1586 H 0.4559 0.61072 0.44193 0.0
C1587 C 0.50573 0.5725 0.41061 0.0
C1588 C 0.45799 0.56094 0.42224 0.0
C1589 C 0.52062 0.56532 0.40063 0.0
C1590 C 0.3972 0.58285 0.46722 0.0
C1591 C 0.41014 0.58113 0.45306 0.0
C1592 C 0.45634 0.59675 0.43659 0.0
C1593 C 0.48751 0.56785 0.4058 0.0
C1594 C 0.47179 0.57373 0.41755 0.0
C1595 C 0.42801 0.58846 0.4551 0.0
C1596 C 0.44268 0.58384 0.4415 0.0
H1597 H 0.49646 0.54024 0.36887 0.0
H1598 H 0.47059 0.55284 0.38618 0.0
H1599 H 0.48115 0.60191 0.42124 0.0
H1600 H 0.4229 0.60778 0.49774 0.0
H1601 H 0.44579 0.60449 0.47315 0.0
C1602 C 0.78642 0.27073 0.66913 0.0
C1603 C 0.79156 0.26986 0.65044 0.0
C1604 C 0.78345 0.25465 0.67924 0.0
C1605 C 0.7726 0.20506 0.67335 0.0
H1606 H 0.78219 0.20435 0.72606 0.0
C1607 C 0.76512 0.1415 0.72268 0.0
C1608 C 0.75507 0.14501 0.73892 0.0
C1609 C 0.76928 0.15586 0.71046 0.0
C1610 C 0.77937 0.20442 0.71136 0.0
H1611 H 0.79834 0.25134 0.62788 0.0
H1612 H 0.79372 0.22311 0.64578 0.0
H1613 H 0.79231 0.23063 0.70772 0.0
H1614 H 0.74105 0.16605 0.7549 0.0
H1615 H 0.74856 0.19123 0.73367 0.0
H1616 H 0.76007 0.17844 0.67719 0.0
C1617 C 0.79153 0.2363 0.65247 0.0
C1618 C 0.78511 0.21948 0.70083 0.0
C1619 C 0.79435 0.25248 0.64226 0.0
C1620 C 0.74863 0.16296 0.74238 0.0
C1621 C 0.75307 0.17735 0.73036 0.0
C1622 C 0.76714 0.1898 0.68389 0.0
C1623 C 0.78578 0.23721 0.67104 0.0
C1624 C 0.78143 0.22021 0.68176 0.0
C1625 C 0.76375 0.17398 0.71451 0.0
C1626 C 0.77015 0.18957 0.70303 0.0
H1627 H 0.78406 0.28387 0.67588 0.0
H1628 H 0.77869 0.25599 0.69335 0.0
H1629 H 0.76935 0.2052 0.65876 0.0
H1630 H 0.77019 0.12774 0.71975 0.0
H1631 H 0.77756 0.15296 0.69833 0.0
C1632 C 0.19213 0.58242 0.06134 0.0
C1633 C 0.19019 0.56422 0.06781 0.0
C1634 C 0.18407 0.59709 0.07088 0.0
C1635 C 0.14453 0.60584 0.10085 0.0
H1636 H 0.16369 0.65584 0.10059 0.0
C1637 C 0.09755 0.66682 0.11887 0.0
C1638 C 0.09764 0.6807 0.10531 0.0
C1639 C 0.11173 0.65375 0.11956 0.0
C1640 C 0.15819 0.64193 0.10084 0.0
H1641 H 0.17937 0.54732 0.09005 0.0
H1642 H 0.16539 0.57302 0.10679 0.0
H1643 H 0.18393 0.63015 0.09227 0.0
H1644 H 0.11344 0.69274 0.08292 0.0
H1645 H 0.13795 0.6698 0.08384 0.0
H1646 H 0.11862 0.61759 0.10861 0.0
C1647 C 0.17289 0.57586 0.09416 0.0
C1648 C 0.16976 0.62724 0.09606 0.0
C1649 C 0.18095 0.56115 0.0846 0.0
C1650 C 0.11282 0.68199 0.09329 0.0
C1651 C 0.127 0.66898 0.094 0.0
C1652 C 0.13299 0.6205 0.10564 0.0
C1653 C 0.17393 0.59393 0.08713 0.0
C1654 C 0.16287 0.60909 0.09542 0.0
C1655 C 0.12632 0.65436 0.10675 0.0
C1656 C 0.13952 0.63877 0.1051 0.0
H1657 H 0.19927 0.5853 0.04851 0.0
H1658 H 0.18499 0.61079 0.06495 0.0
H1659 H 0.13869 0.59208 0.10027 0.0
H1660 H 0.08604 0.66544 0.1283 0.0
H1661 H 0.11094 0.64277 0.12968 0.0
C1662 C 0.6934 0.00809 0.02162 0.0
C1663 C 0.69551 0.02457 0.0116 0.0
C1664 C 0.68174 0.99419 0.01525 0.0
C1665 C 0.64059 0.98809 0.9863 0.0
H1666 H 0.6487 0.93676 -0.00098 0.0
C1667 C 0.60054 0.91257 0.99019 0.0
C1668 C 0.58371 0.91885 0.99751 0.0
C1669 C 0.61481 0.92499 0.98643 0.0
C1670 C 0.64625 0.95093 0.99495 0.0
H1671 H 0.68781 0.03892 0.98646 0.0
H1672 H 0.66761 0.0144 0.97513 0.0
H1673 H 0.67387 0.95866 0.00186 0.0
H1674 H 0.56834 0.94305 0.00597 0.0
H1675 H 0.59329 0.96468 -3e-05 0.0
H1676 H 0.61297 0.98033 0.9793 0.0
C1677 C 0.67473 0.01243 0.98813 0.0
C1678 C 0.66066 0.96357 0.99685 0.0
C1679 C 0.68638 0.02644 0.99457 0.0
C1680 C 0.5811 0.93786 0.00017 0.0
C1681 C 0.59543 0.95026 0.99664 0.0
C1682 C 0.62621 0.9754 0.98419 0.0
C1683 C 0.67196 0.99631 -0.00139 0.0
C1684 C 0.65781 0.98242 0.99324 0.0
C1685 C 0.61264 0.94394 0.99016 0.0
C1686 C 0.62866 0.95678 0.98915 0.0
H1687 H 0.70021 0.00616 0.0348 0.0
H1688 H 0.67975 0.98213 0.02386 0.0
H1689 H 0.63785 0.00251 0.98342 0.0
H1690 H 0.60277 0.89799 0.98774 0.0
H1691 H 0.62771 0.91966 0.98105 0.0
C1692 C 0.41732 0.34502 0.26845 0.0
C1693 C 0.41593 0.33251 0.25368 0.0
C1694 C 0.40245 0.35635 0.27309 0.0
C1695 C 0.35268 0.35903 0.27206 0.0
H1696 H 0.35944 0.41199 0.2762 0.0
C1697 C 0.29114 0.40833 0.28177 0.0
C1698 C 0.29363 0.42466 0.29193 0.0
C1699 C 0.30609 0.39687 0.27778 0.0
C1700 C 0.35735 0.39721 0.27547 0.0
H1701 H 0.39808 0.3219 0.23222 0.0
H1702 H 0.37166 0.34149 0.2407 0.0
H1703 H 0.38549 0.39246 0.26758 0.0
H1704 H 0.31365 0.44151 0.30644 0.0
H1705 H 0.33972 0.42109 0.3002 0.0
H1706 H 0.3248 0.36349 0.28053 0.0
C1707 C 0.38436 0.34257 0.24852 0.0
C1708 C 0.37225 0.38607 0.27038 0.0
C1709 C 0.39941 0.33148 0.24363 0.0
C1710 C 0.31133 0.42903 0.29852 0.0
C1711 C 0.32629 0.4174 0.29477 0.0
C1712 C 0.33785 0.3701 0.27748 0.0
C1713 C 0.38581 0.35514 0.26326 0.0
C1714 C 0.37 0.36691 0.26852 0.0
C1715 C 0.32391 0.40129 0.28411 0.0
C1716 C 0.33994 0.38938 0.27913 0.0
H1717 H 0.43003 0.34622 0.27624 0.0
H1718 H 0.40387 0.36589 0.28454 0.0
H1719 H 0.35071 0.34424 0.27095 0.0
H1720 H 0.27771 0.40465 0.2763 0.0
H1721 H 0.30371 0.38484 0.26924 0.0
C1722 C 0.98745 0.17617 0.49455 0.0
C1723 C 0.98632 0.19302 0.50404 0.0
C1724 C 0.97426 0.16243 0.49746 0.0
C1725 C 0.93968 0.14735 0.53201 0.0
H1726 H 0.92686 0.11247 0.49344 0.0
C1727 C 0.88749 0.08623 0.53997 0.0
C1728 C 0.89468 0.06911 0.53424 0.0
C1729 C 0.89727 0.10255 0.53658 0.0
C1730 C 0.93032 0.12215 0.50432 0.0
H1731 H 0.97004 0.20916 0.52324 0.0
H1732 H 0.94661 0.18538 0.52798 0.0
H1733 H 0.94557 0.13941 0.4859 0.0
H1734 H 0.91792 0.05569 0.52083 0.0
H1735 H 0.93472 0.08413 0.51474 0.0
H1736 H 0.92417 0.12997 0.55034 0.0
C1737 C 0.95798 0.18251 0.5187 0.0
C1738 C 0.94111 0.13752 0.50005 0.0
C1739 C 0.97133 0.19617 0.51594 0.0
C1740 C 0.91197 0.06862 0.52544 0.0
C1741 C 0.92156 0.0849 0.52182 0.0
C1742 C 0.92864 0.13208 0.53622 0.0
C1743 C 0.95948 0.16532 0.50977 0.0
C1744 C 0.94632 0.15009 0.51392 0.0
C1745 C 0.91421 0.10201 0.52714 0.0
C1746 C 0.92424 0.11915 0.52248 0.0
H1747 H -0.00099 0.17329 0.48551 0.0
H1748 H 0.9761 0.14928 0.49059 0.0
H1749 H 0.94358 0.15657 0.54311 0.0
H1750 H 0.8742 0.08704 0.54679 0.0
H1751 H 0.89136 0.11563 0.54082 0.0
C1752 C 0.25309 0.62742 0.77233 0.0
C1753 C 0.27221 0.63057 0.7714 0.0
C1754 C 0.24067 0.64098 0.76655 0.0
C1755 C 0.23729 0.69113 0.76165 0.0
H1756 H 0.19106 0.67947 0.73733 0.0
C1757 C 0.16585 0.7283 0.73383 0.0
C1758 C 0.16118 0.73855 0.74967 0.0
C1759 C 0.18122 0.71666 0.73387 0.0
C1760 C 0.20402 0.68303 0.74388 0.0
H1761 H 0.2933 0.65011 0.76293 0.0
H1762 H 0.27157 0.67373 0.75276 0.0
H1763 H 0.21429 0.65544 0.74126 0.0
H1764 H 0.16971 0.74554 0.7775 0.0
H1765 H 0.19637 0.72499 0.77769 0.0
H1766 H 0.22691 0.71868 0.76448 0.0
C1767 C 0.26622 0.66086 0.75816 0.0
C1768 C 0.21724 0.66921 0.7463 0.0
C1769 C 0.27865 0.64726 0.76388 0.0
C1770 C 0.17279 0.73763 0.76519 0.0
C1771 C 0.18818 0.726 0.76522 0.0
C1772 C 0.22405 0.70495 0.75927 0.0
C1773 C 0.2471 0.65799 0.75976 0.0
C1774 C 0.23388 0.67303 0.75549 0.0
C1775 C 0.19228 0.71504 0.74972 0.0
C1776 C 0.20715 0.70097 0.75063 0.0
H1777 H 0.24767 0.6147 0.77804 0.0
H1778 H 0.22602 0.63841 0.76811 0.0
H1779 H 0.24992 0.69447 0.76893 0.0
H1780 H 0.15718 0.72856 0.72167 0.0
H1781 H 0.18418 0.70857 0.72163 0.0
C1782 C 0.48084 0.40052 0.54452 0.0
C1783 C 0.49339 0.39905 0.55921 0.0
C1784 C 0.47221 0.41726 0.54069 0.0
C1785 C 0.46126 0.46277 0.56143 0.0
H1786 H 0.44893 0.47485 0.51068 0.0
C1787 C 0.42845 0.5321 0.54014 0.0
C1788 C 0.4115 0.53013 0.53088 0.0
C1789 C 0.44008 0.51694 0.54252 0.0
C1790 C 0.45232 0.47161 0.52489 0.0
H1791 H 0.50688 0.41375 0.5814 0.0
H1792 H 0.49228 0.44345 0.57437 0.0
H1793 H 0.46677 0.44706 0.5173 0.0
H1794 H 0.39384 0.511 0.51609 0.0
H1795 H 0.41453 0.48453 0.51984 0.0
H1796 H 0.44705 0.48764 0.56885 0.0
C1797 C 0.48874 0.43155 0.56604 0.0
C1798 C 0.46242 0.45565 0.52874 0.0
C1799 C 0.49717 0.41463 0.57006 0.0
C1800 C 0.40681 0.51291 0.52329 0.0
C1801 C 0.41863 0.4978 0.52539 0.0
C1802 C 0.45145 0.4789 0.55753 0.0
C1803 C 0.47614 0.43306 0.55128 0.0
C1804 C 0.46672 0.45083 0.5471 0.0
C1805 C 0.43515 0.49963 0.53538 0.0
C1806 C 0.44666 0.48328 0.53926 0.0
H1807 H 0.47743 0.38857 0.53619 0.0
H1808 H 0.46221 0.41768 0.52959 0.0
H1809 H 0.46404 0.45941 0.57573 0.0
H1810 H 0.43242 0.54518 0.54623 0.0
H1811 H 0.45282 0.51866 0.55018 0.0
C1812 C 0.81369 0.16211 0.7933 0.0
C1813 C 0.81482 0.14395 0.78661 0.0
C1814 C 0.82962 0.1725 0.79615 0.0
C1815 C 0.87999 0.16742 0.80343 0.0
H1816 H 0.87859 0.22073 0.79848 0.0
C1817 C 0.94234 0.21824 0.81189 0.0
C1818 C 0.93892 0.23301 0.82401 0.0
C1819 C 0.92816 0.20603 0.80711 0.0
C1820 C 0.87912 0.20585 0.79996 0.0
H1821 H 0.83356 0.12267 0.77694 0.0
H1822 H 0.86146 0.14111 0.78132 0.0
H1823 H 0.85224 0.20245 0.78841 0.0
H1824 H 0.91822 0.24641 0.84094 0.0
H1825 H 0.89335 0.22525 0.83237 0.0
H1826 H 0.90723 0.17108 0.81459 0.0
C1827 C 0.84824 0.14714 0.78485 0.0
C1828 C 0.86402 0.19535 0.79427 0.0
C1829 C 0.83224 0.13662 0.78218 0.0
C1830 C 0.92126 0.23501 0.83176 0.0
C1831 C 0.90703 0.22304 0.82673 0.0
C1832 C 0.89527 0.17796 0.80882 0.0
C1833 C 0.84713 0.16513 0.79213 0.0
C1834 C 0.86405 0.17603 0.79633 0.0
C1835 C 0.91029 0.20867 0.81412 0.0
C1836 C 0.89475 0.19727 0.80748 0.0
H1837 H 0.80051 0.16816 0.79698 0.0
H1838 H 0.82816 0.18614 0.80213 0.0
H1839 H 0.88046 0.15262 0.80542 0.0
H1840 H 0.95587 0.21645 0.80578 0.0
H1841 H 0.93095 0.19504 0.79734 0.0
C1842 C 0.65818 0.85077 0.35592 0.0
C1843 C 0.64158 0.85064 0.3459 0.0
C1844 C 0.67055 0.8655 0.35407 0.0
C1845 C 0.6835 0.89903 0.31886 0.0
H1846 H 0.71568 0.91926 0.35657 0.0
C1847 C 0.73902 0.95136 0.29928 0.0
C1848 C 0.75665 0.94847 0.30683 0.0
C1849 C 0.72365 0.94234 0.30656 0.0
C1850 C 0.70684 0.91367 0.34589 0.0
H1851 H 0.62403 0.86647 0.32759 0.0
H1852 H 0.64548 0.89223 0.32448 0.0
H1853 H 0.69074 0.89818 0.36538 0.0
H1854 H 0.77182 0.93441 0.32849 0.0
H1855 H 0.74505 0.91816 0.34083 0.0
H1856 H 0.69979 0.91375 0.29927 0.0
C1857 C 0.6492 0.8808 0.33338 0.0
C1858 C 0.69255 0.90165 0.35094 0.0
C1859 C 0.63692 0.86609 0.33516 0.0
C1860 C 0.75843 0.93694 0.32235 0.0
C1861 C 0.74305 0.9277 0.3295 0.0
C1862 C 0.69775 0.9109 0.31382 0.0
C1863 C 0.66646 0.88033 0.34223 0.0
C1864 C 0.6808 0.89414 0.33744 0.0
C1865 C 0.72555 0.92995 0.32138 0.0
C1866 C 0.70969 0.9183 0.32722 0.0
H1867 H 0.66212 0.83899 0.36423 0.0
H1868 H 0.68378 0.8647 0.361 0.0
H1869 H 0.67498 0.89315 0.30806 0.0
H1870 H 0.7371 0.96025 0.28745 0.0
H1871 H 0.71031 0.94473 0.30024 0.0
C1872 C 0.0673 0.10075 0.76669 0.0
C1873 C 0.05699 0.09283 0.7523 0.0
C1874 C 0.06422 0.11905 0.772 0.0
C1875 C 0.04458 0.16278 0.75491 0.0
H1876 H 0.04034 0.17535 0.80682 0.0
C1877 C 0.01062 0.22982 0.78002 0.0
C1878 C 0.01848 0.23906 0.79517 0.0
C1879 C 0.01731 0.21262 0.77454 0.0
C1880 C 0.04179 0.17212 0.79228 0.0
H1881 H 0.03528 0.09781 0.73222 0.0
H1882 H 0.0298 0.12958 0.74159 0.0
H1883 H 0.04825 0.14382 0.79789 0.0
H1884 H 0.03973 0.23768 0.81624 0.0
H1885 H 0.05149 0.20758 0.80655 0.0
H1886 H 0.03782 0.19097 0.74928 0.0
C1887 C 0.04044 0.12177 0.74863 0.0
C1888 C 0.04629 0.15407 0.78717 0.0
C1889 C 0.04348 0.10351 0.74337 0.0
C1890 C 0.03337 0.23088 0.80454 0.0
C1891 C 0.04004 0.21362 0.79906 0.0
C1892 C 0.04008 0.1808 0.76001 0.0
C1893 C 0.05082 0.12976 0.76293 0.0
C1894 C 0.04742 0.14916 0.76843 0.0
C1895 C 0.03199 0.20427 0.78408 0.0
C1896 C 0.03834 0.18558 0.77873 0.0
H1897 H 0.07784 0.09287 0.7738 0.0
H1898 H 0.0725 0.1249 0.78299 0.0
H1899 H 0.04571 0.15947 0.74036 0.0
H1900 H -0.00089 0.23573 0.77253 0.0
H1901 H 0.01065 0.20565 0.7631 0.0
C1902 C 0.10633 0.75961 0.07488 0.0
C1903 C 0.09411 0.75076 0.06269 0.0
C1904 C 0.12253 0.7677 0.06821 0.0
C1905 C 0.16081 0.77006 0.04896 0.0
H1906 H 0.15836 0.80599 0.00925 0.0
C1907 C 0.22233 0.78999 0.00236 0.0
C1908 C 0.22618 0.80897 0.00124 0.0
C1909 C 0.20622 0.78384 0.01095 0.0
C1910 C 0.15918 0.79605 0.02041 0.0
H1911 H 0.08894 0.74372 0.03402 0.0
H1912 H 0.11704 0.75832 0.02235 0.0
H1913 H 0.12975 0.79344 0.02237 0.0
H1914 H 0.2162 0.8364 0.0079 0.0
H1915 H 0.1876 0.82555 0.02244 0.0
H1916 H 0.19025 0.77214 0.04652 0.0
C1917 C 0.11416 0.7588 0.03703 0.0
C1918 C 0.1429 0.78886 0.02782 0.0
C1919 C 0.09819 0.75037 0.04373 0.0
C1920 C 0.21356 0.8217 0.00865 0.0
C1921 C 0.19723 0.81553 0.01689 0.0
C1922 C 0.17709 0.77697 0.04129 0.0
C1923 C 0.12648 0.76742 0.04923 0.0
C1924 C 0.14362 0.77575 0.04209 0.0
C1925 C 0.19354 0.79656 0.01821 0.0
C1926 C 0.17637 0.78994 0.02691 0.0
H1927 H 0.1035 0.76004 0.08957 0.0
H1928 H 0.13189 0.77431 0.07783 0.0
H1929 H 0.16164 0.75988 0.0599 0.0
H1930 H 0.23189 0.77988 0.99684 0.0
H1931 H 0.20354 0.76914 0.01172 0.0
C1932 C 0.5069 0.97637 0.27139 0.0
C1933 C 0.51612 0.98432 0.25628 0.0
C1934 C 0.51333 0.95994 0.27919 0.0
C1935 C 0.5549 0.931 0.28298 0.0
H1936 H 0.52043 0.89114 0.2925 0.0
C1937 C 0.57899 0.85646 0.29407 0.0
C1938 C 0.57008 0.84584 0.30765 0.0
C1939 C 0.57222 0.87381 0.28927 0.0
C1940 C 0.53019 0.90223 0.29018 0.0
H1941 H 0.53936 0.98137 0.23754 0.0
H1942 H 0.5505 0.95274 0.25111 0.0
H1943 H 0.50891 0.92091 0.28165 0.0
H1944 H 0.54711 0.84511 0.32688 0.0
H1945 H 0.53534 0.87558 0.31856 0.0
H1946 H 0.57619 0.91237 0.29134 0.0
C1947 C 0.53841 0.95927 0.25704 0.0
C1948 C 0.5236 0.91925 0.28397 0.0
C1949 C 0.53194 0.9756 0.24919 0.0
C1950 C 0.55424 0.85294 0.31632 0.0
C1951 C 0.54746 0.87035 0.31151 0.0
C1952 C 0.56148 0.91403 0.28924 0.0
C1953 C 0.52916 0.95126 0.27208 0.0
C1954 C 0.53593 0.9337 0.28003 0.0
C1955 C 0.55641 0.88098 0.29796 0.0
C1956 C 0.54923 0.89937 0.29261 0.0
H1957 H 0.49467 0.98278 0.27715 0.0
H1958 H 0.50601 0.9541 0.29086 0.0
H1959 H 0.56468 0.94202 0.28036 0.0
H1960 H 0.5912 0.85136 0.28709 0.0
H1961 H 0.57924 0.88152 0.27854 0.0
C1962 C 0.47285 0.35554 0.501 0.0
C1963 C 0.4676 0.3475 0.5179 0.0
C1964 C 0.45948 0.36137 0.48838 0.0
C1965 C 0.4083 0.36603 0.48217 0.0
H1966 H 0.41798 0.33883 0.4371 0.0
C1967 C 0.37409 0.30285 0.45025 0.0
C1968 C 0.35543 0.30764 0.45177 0.0
C1969 C 0.38753 0.31653 0.44931 0.0
C1970 C 0.41506 0.3469 0.44936 0.0
H1971 H 0.44434 0.34068 0.53546 0.0
H1972 H 0.42111 0.35021 0.51341 0.0
H1973 H 0.44361 0.34862 0.45628 0.0
H1974 H 0.33585 0.33028 0.4516 0.0
H1975 H 0.35953 0.35441 0.45039 0.0
H1976 H 0.37969 0.36211 0.47649 0.0
C1977 C 0.43548 0.35236 0.50987 0.0
C1978 C 0.4298 0.35265 0.46036 0.0
C1979 C 0.44882 0.34659 0.52247 0.0
C1980 C 0.35023 0.32629 0.45053 0.0
C1981 C 0.36375 0.34007 0.44983 0.0
C1982 C 0.39356 0.36004 0.4713 0.0
C1983 C 0.44062 0.35926 0.49242 0.0
C1984 C 0.42643 0.36075 0.4777 0.0
C1985 C 0.38258 0.33531 0.45013 0.0
C1986 C 0.39684 0.34888 0.45574 0.0
H1987 H 0.48728 0.35677 0.49725 0.0
H1988 H 0.46389 0.36679 0.47515 0.0
H1989 H 0.40533 0.37289 0.49513 0.0
H1990 H 0.37839 0.28853 0.45094 0.0
H1991 H 0.40185 0.31226 0.44974 0.0
C1992 C 0.50681 0.46684 0.36134 0.0
C1993 C 0.52575 0.46458 0.35769 0.0
C1994 C 0.49518 0.45148 0.36224 0.0
C1995 C 0.49496 0.39984 0.36014 0.0
H1996 H 0.45807 0.40795 0.32221 0.0
C1997 C 0.47651 0.3641 0.28972 0.0
C1998 C 0.47547 0.34544 0.29471 0.0
C1999 C 0.47509 0.37781 0.30312 0.0
C2000 C 0.46806 0.40544 0.33307 0.0
H2001 H 0.54767 0.44452 0.35408 0.0
H2002 H 0.5275 0.41789 0.35521 0.0
H2003 H 0.47118 0.43421 0.3384 0.0
H2004 H 0.47103 0.32642 0.31745 0.0
H2005 H 0.46887 0.35054 0.34103 0.0
H2006 H 0.49325 0.3712 0.35332 0.0
C2007 C 0.52151 0.43139 0.35754 0.0
C2008 C 0.47546 0.42049 0.34252 0.0
C2009 C 0.53309 0.44671 0.35661 0.0
C2010 C 0.47203 0.34074 0.31324 0.0
C2011 C 0.47075 0.3545 0.32672 0.0
C2012 C 0.48764 0.38479 0.35059 0.0
C2013 C 0.50231 0.43363 0.35955 0.0
C2014 C 0.48996 0.41792 0.35517 0.0
C2015 C 0.47268 0.37316 0.32183 0.0
C2016 C 0.47511 0.38763 0.33605 0.0
H2017 H 0.5008 0.48049 0.36252 0.0
H2018 H 0.48048 0.45362 0.36403 0.0
H2019 H 0.50579 0.39743 0.37017 0.0
H2020 H 0.47895 0.36813 0.27552 0.0
H2021 H 0.47696 0.39204 0.2989 0.0
C2022 C 0.98032 0.26842 0.54941 0.0
C2023 C 0.98611 0.26863 0.53089 0.0
C2024 C 0.96262 0.2744 0.55413 0.0
C2025 C 0.92823 0.29887 0.55929 0.0
H2026 H 0.88677 0.27535 0.5348 0.0
C2027 C 0.8523 0.32166 0.56912 0.0
C2028 C 0.84046 0.30736 0.57469 0.0
C2029 C 0.87009 0.31767 0.56286 0.0
C2030 C 0.89825 0.28204 0.54166 0.0
H2031 H 0.97802 0.27516 0.50279 0.0
H2032 H 0.94684 0.2852 0.51108 0.0
H2033 H 0.91836 0.26736 0.52565 0.0
H2034 H 0.83765 0.27769 0.57767 0.0
H2035 H 0.86866 0.27071 0.56628 0.0
H2036 H 0.90812 0.31359 0.57527 0.0
C2037 C 0.95611 0.28059 0.52188 0.0
C2038 C 0.91624 0.27757 0.53639 0.0
C2039 C 0.97393 0.27494 0.51719 0.0
C2040 C 0.84653 0.28898 0.5735 0.0
C2041 C 0.86419 0.28498 0.56692 0.0
C2042 C 0.91024 0.30359 0.56433 0.0
C2043 C 0.95033 0.28034 0.54038 0.0
C2044 C 0.93135 0.2858 0.54531 0.0
C2045 C 0.87616 0.2993 0.56174 0.0
C2046 C 0.89513 0.29506 0.55569 0.0
H2047 H 0.98947 0.26366 0.56024 0.0
H2048 H 0.95838 0.27399 0.56848 0.0
H2049 H 0.93972 0.30542 0.56629 0.0
H2050 H 0.84797 0.33596 0.56997 0.0
H2051 H 0.87911 0.32892 0.55886 0.0
C2052 C 0.07402 0.58347 0.85412 0.0
C2053 C 0.0556 0.58949 0.85314 0.0
C2054 C 0.08845 0.59631 0.85385 0.0
C2055 C 0.09838 0.64668 0.85641 0.0
H2056 H 0.12701 0.63809 0.812 0.0
C2057 C 0.10918 0.68779 0.7881 0.0
C2058 C 0.11158 0.70564 0.79521 0.0
C2059 C 0.11237 0.67241 0.79921 0.0
C2060 C 0.11941 0.64066 0.82463 0.0
H2061 H 0.03766 0.61341 0.85262 0.0
H2062 H 0.06262 0.63573 0.85223 0.0
H2063 H 0.11196 0.61223 0.8273 0.0
H2064 H 0.12119 0.72142 0.81883 0.0
H2065 H 0.12678 0.69448 0.83827 0.0
H2066 H 0.10394 0.67529 0.85262 0.0
C2067 C 0.06609 0.62121 0.85324 0.0
C2068 C 0.11094 0.6258 0.83353 0.0
C2069 C 0.05176 0.60843 0.85319 0.0
C2070 C 0.11887 0.7078 0.81308 0.0
C2071 C 0.12212 0.69238 0.82421 0.0
C2072 C 0.10671 0.66154 0.84746 0.0
C2073 C 0.08459 0.6153 0.85298 0.0
C2074 C 0.09916 0.62894 0.84862 0.0
C2075 C 0.11809 0.67456 0.81767 0.0
C2076 C 0.11606 0.65882 0.83064 0.0
H2077 H 0.07729 0.56887 0.8541 0.0
H2078 H 0.10258 0.59141 0.8536 0.0
H2079 H 0.08969 0.64938 0.8683 0.0
H2080 H 0.10381 0.68566 0.7743 0.0
H2081 H 0.1089 0.65895 0.79371 0.0
C2082 C 0.62385 0.8702 0.05308 0.0
C2083 C 0.60557 0.86945 0.05931 0.0
C2084 C 0.63836 0.87054 0.06566 0.0
C2085 C 0.66816 0.87022 0.09405 0.0
H2086 H 0.65956 0.82583 0.12266 0.0
C2087 C 0.72718 0.81992 0.10793 0.0
C2088 C 0.72255 0.80226 0.10128 0.0
C2089 C 0.71338 0.8329 0.11165 0.0
C2090 C 0.6622 0.83842 0.11503 0.0
H2091 H 0.58784 0.87026 0.08342 0.0
H2092 H 0.61339 0.87047 0.10563 0.0
H2093 H 0.63344 0.84393 0.112 0.0
H2094 H 0.69986 0.78396 0.09447 0.0
H2095 H 0.67592 0.80653 0.10056 0.0
H2096 H 0.69683 0.86348 0.09524 0.0
C2097 C 0.61649 0.87086 0.091 0.0
C2098 C 0.64722 0.84897 0.10909 0.0
C2099 C 0.6019 0.87076 0.07832 0.0
C2100 C 0.70389 0.7975 0.09938 0.0
C2101 C 0.69013 0.8104 0.10317 0.0
C2102 C 0.68314 0.85958 0.09984 0.0
C2103 C 0.63487 0.86989 0.08477 0.0
C2104 C 0.65002 0.86411 0.09727 0.0
C2105 C 0.69471 0.82839 0.10891 0.0
C2106 C 0.68016 0.8428 0.10913 0.0
H2107 H 0.62699 0.86942 0.03846 0.0
H2108 H 0.65229 0.86958 0.0603 0.0
H2109 H 0.67073 0.88211 0.08534 0.0
H2110 H 0.74149 0.82391 0.10973 0.0
H2111 H 0.71732 0.84662 0.11612 0.0
C2112 C 0.76558 0.9572 0.19512 0.0
C2113 C 0.76 0.95778 0.21363 0.0
C2114 C 0.75266 0.95446 0.18117 0.0
C2115 C 0.70627 0.96927 0.17368 0.0
H2116 H 0.72184 0.9574 0.12386 0.0
C2117 C 0.71549 0.02274 0.12048 0.0
C2118 C 0.71467 0.01907 0.10151 0.0
C2119 C 0.71101 0.00908 0.13321 0.0
C2120 C 0.71669 0.96041 0.13759 0.0
H2121 H 0.73692 0.95409 0.23236 0.0
H2122 H 0.7141 0.94961 0.2078 0.0
H2123 H 0.73381 0.9396 0.14966 0.0
H2124 H 0.7075 -0.00135 0.0808 0.0
H2125 H 0.70014 0.97436 0.10325 0.0
H2126 H 0.69017 0.99091 0.16169 0.0
C2127 C 0.72849 0.95128 0.20409 0.0
C2128 C 0.7237 0.95028 0.15242 0.0
C2129 C 0.74153 0.95386 0.21812 0.0
C2130 C 0.7083 0.00177 0.09542 0.0
C2131 C 0.70405 0.98792 0.10822 0.0
C2132 C 0.69909 0.97924 0.15885 0.0
C2133 C 0.7338 0.95242 0.18542 0.0
C2134 C 0.72003 0.95591 0.17065 0.0
C2135 C 0.70579 0.99133 0.12725 0.0
C2136 C 0.70573 0.97607 0.14089 0.0
H2137 H 0.7798 0.95988 0.19131 0.0
H2138 H 0.75733 0.95564 0.16701 0.0
H2139 H 0.70285 0.97382 0.18752 0.0
H2140 H 0.72015 0.03603 0.12554 0.0
H2141 H 0.71286 0.01211 0.14774 0.0
C2142 C 0.32142 0.56619 0.47144 0.0
C2143 C 0.32973 0.55383 0.48384 0.0
C2144 C 0.31391 0.55974 0.45487 0.0
C2145 C 0.29302 0.51982 0.43352 0.0
H2146 H 0.30963 0.54027 0.38684 0.0
C2147 C 0.25797 0.50657 0.36261 0.0
C2148 C 0.26999 0.50004 0.34886 0.0
C2149 C 0.26497 0.5129 0.37944 0.0
C2150 C 0.30489 0.53449 0.39981 0.0
H2151 H 0.33652 0.52509 0.48891 0.0
H2152 H 0.32294 0.5138 0.46012 0.0
H2153 H 0.32235 0.5522 0.41587 0.0
H2154 H 0.29867 0.49505 0.34177 0.0
H2155 H 0.3109 0.50662 0.37104 0.0
H2156 H 0.27536 0.50229 0.41745 0.0
C2157 C 0.32243 0.52845 0.46316 0.0
C2158 C 0.31206 0.54135 0.41633 0.0
C2159 C 0.33027 0.53492 0.47952 0.0
C2160 C 0.2891 0.49995 0.35218 0.0
C2161 C 0.2961 0.50663 0.36883 0.0
C2162 C 0.28557 0.51322 0.41701 0.0
C2163 C 0.31428 0.54082 0.45069 0.0
C2164 C 0.30628 0.53396 0.43328 0.0
C2165 C 0.28409 0.51316 0.38256 0.0
C2166 C 0.29157 0.52041 0.40004 0.0
H2167 H 0.32089 0.58083 0.47444 0.0
H2168 H 0.30763 0.56949 0.44543 0.0
H2169 H 0.28835 0.51399 0.44649 0.0
H2170 H 0.24318 0.5067 0.3604 0.0
H2171 H 0.25549 0.51793 0.38987 0.0
C2172 C 0.80517 0.02395 0.59516 0.0
C2173 C 0.81925 0.03453 0.58701 0.0
C2174 C 0.79932 0.0277 0.61317 0.0
C2175 C 0.79928 0.06438 0.64843 0.0
H2176 H 0.79296 0.02411 0.68318 0.0
C2177 C 0.79599 0.07674 0.72637 0.0
C2178 C 0.78253 0.06714 0.73652 0.0
C2179 C 0.79936 0.07227 0.70797 0.0
C2180 C 0.79443 0.03547 0.67356 0.0
H2181 H 0.83824 0.05732 0.5913 0.0
H2182 H 0.82814 0.06375 0.62269 0.0
H2183 H 0.80059 0.01736 0.65099 0.0
H2184 H 0.76227 0.0451 0.73545 0.0
H2185 H 0.76821 0.03728 0.70313 0.0
H2186 H 0.79337 0.0825 0.67097 0.0
C2187 C 0.82144 0.05272 0.61511 0.0
C2188 C 0.79878 0.03161 0.65516 0.0
C2189 C 0.8273 0.04896 0.59716 0.0
C2190 C 0.77274 0.05273 0.72798 0.0
C2191 C 0.77616 0.04822 0.70951 0.0
C2192 C 0.79495 0.06823 0.66678 0.0
C2193 C 0.80741 0.04213 0.62331 0.0
C2194 C 0.80152 0.04606 0.64249 0.0
C2195 C 0.78937 0.0581 0.69929 0.0
C2196 C 0.79277 0.05383 0.6796 0.0
H2197 H 0.79869 0.01274 0.58767 0.0
H2198 H 0.78837 0.01942 0.6191 0.0
H2199 H 0.80095 0.07578 0.63888 0.0
H2200 H 0.80383 0.08789 0.73256 0.0
H2201 H 0.80986 0.0799 0.70053 0.0
C2202 C 0.24724 0.60433 0.84988 0.0
C2203 C 0.26393 0.59567 0.85476 0.0
C2204 C 0.23498 0.61035 0.86354 0.0
C2205 C 0.23072 0.61687 0.91455 0.0
H2206 H 0.18324 0.59318 0.90786 0.0
C2207 C 0.19361 0.55948 0.95409 0.0
C2208 C 0.19721 0.56518 0.97222 0.0
C2209 C 0.19332 0.57229 0.93979 0.0
C2210 C 0.19627 0.60024 0.90993 0.0
H2211 H 0.28131 0.58742 0.87769 0.0
H2212 H 0.25992 0.59743 0.90139 0.0
H2213 H 0.20243 0.59962 0.8811 0.0
H2214 H 0.20103 0.58888 0.99012 0.0
H2215 H 0.20071 0.61144 0.96496 0.0
H2216 H 0.22569 0.61536 0.94348 0.0
C2217 C 0.25631 0.59992 0.88708 0.0
C2218 C 0.20724 0.60407 0.89455 0.0
C2219 C 0.26849 0.59387 0.87348 0.0
C2220 C 0.19843 0.58414 0.97616 0.0
C2221 C 0.19827 0.59703 0.96177 0.0
C2222 C 0.21988 0.6128 0.92994 0.0
C2223 C 0.23926 0.60792 0.8823 0.0
C2224 C 0.22523 0.61095 0.89691 0.0
C2225 C 0.1968 0.59109 0.94331 0.0
C2226 C 0.20331 0.60289 0.92784 0.0
H2227 H 0.24346 0.60612 0.83551 0.0
H2228 H 0.22197 0.61648 0.85943 0.0
H2229 H 0.24428 0.62282 0.9167 0.0
H2230 H 0.19228 0.54495 0.95076 0.0
H2231 H 0.19224 0.56707 0.92581 0.0
C2232 C 0.85726 0.07581 0.79419 0.0
C2233 C 0.8447 0.06216 0.79988 0.0
C2234 C 0.87565 0.07138 0.79067 0.0
C2235 C 0.91216 0.03683 0.79867 0.0
H2236 H 0.93262 0.05779 0.75382 0.0
C2237 C 0.9846 0.0174 0.76943 0.0
C2238 C 0.99505 0.03198 0.76199 0.0
C2239 C 0.96626 0.02026 0.77487 0.0
C2240 C 0.92721 0.05198 0.7665 0.0
H2241 H 0.84182 0.03323 0.807 0.0
H2242 H 0.87415 0.02544 0.80085 0.0
H2243 H 0.90077 0.06432 0.76217 0.0
H2244 H 0.99473 0.06118 0.75538 0.0
H2245 H 0.96296 0.06616 0.76487 0.0
H2246 H 0.93877 0.02455 0.80298 0.0
C2247 C 0.86967 0.03961 0.79918 0.0
C2248 C 0.90894 0.05572 0.77128 0.0
C2249 C 0.85117 0.04407 0.80271 0.0
C2250 C 0.98695 0.04954 0.7606 0.0
C2251 C 0.96871 0.0524 0.76606 0.0
C2252 C 0.93054 0.0331 0.79389 0.0
C2253 C 0.882 0.05316 0.79275 0.0
C2254 C 0.90126 0.0484 0.78753 0.0
C2255 C 0.95804 0.03776 0.77301 0.0
C2256 C 0.93832 0.04085 0.77786 0.0
H2257 H 0.85284 0.08997 0.79234 0.0
H2258 H 0.88491 0.08223 0.78617 0.0
H2259 H 0.90664 0.03105 0.81131 0.0
H2260 H 0.99044 0.00369 0.77057 0.0
H2261 H 0.95837 0.00866 0.78007 0.0
C2262 C 0.28326 0.73406 0.98574 0.0
C2263 C 0.29066 0.74562 -0.0005 0.0
C2264 C 0.28154 0.71508 0.98867 0.0
C2265 C 0.27883 0.68035 0.02599 0.0
H2266 H 0.28513 0.64608 0.98531 0.0
C2267 C 0.25042 0.60596 0.02803 0.0
C2268 C 0.2602 0.59184 0.01893 0.0
C2269 C 0.25616 0.62434 0.02677 0.0
C2270 C 0.28355 0.65538 0.99692 0.0
H2271 H 0.30234 0.74605 0.02707 0.0
H2272 H 0.29976 0.71284 0.03202 0.0
H2273 H 0.29207 0.67862 0.98082 0.0
H2274 H 0.28412 0.58614 0.00179 0.0
H2275 H 0.29441 0.61808 4e-05 0.0
H2276 H 0.27057 0.65704 0.04216 0.0
C2277 C 0.29499 0.71855 0.01905 0.0
C2278 C 0.2873 0.67413 0.99426 0.0
C2279 C 0.29666 0.7376 0.01614 0.0
C2280 C 0.27626 0.59655 0.00905 0.0
C2281 C 0.28205 0.61495 0.00785 0.0
C2282 C 0.27517 0.66157 0.02867 0.0
C2283 C 0.28728 0.70707 0.00539 0.0
C2284 C 0.28469 0.68691 0.00867 0.0
C2285 C 0.27192 0.62912 0.01647 0.0
C2286 C 0.27721 0.64888 0.01409 0.0
H2287 H 0.27878 0.73963 0.97262 0.0
H2288 H 0.27534 0.70675 0.9779 0.0
H2289 H 0.27653 0.68978 0.03737 0.0
H2290 H 0.23819 0.60288 0.03603 0.0
H2291 H 0.24789 0.63485 0.03345 0.0
C2292 C 0.71779 0.01366 0.27317 0.0
C2293 C 0.72941 0.01809 0.25831 0.0
C2294 C 0.69919 0.01887 0.27298 0.0
C2295 C 0.66526 0.04878 0.24753 0.0
H2296 H 0.6296 0.01618 0.27062 0.0
C2297 C 0.58662 0.04778 0.23199 0.0
C2298 C 0.57487 0.04876 0.2474 0.0
C2299 C 0.60568 0.04586 0.2343 0.0
C2300 C 0.63945 0.02549 0.26427 0.0
H2301 H 0.73075 0.03115 0.23149 0.0
H2302 H 0.6982 0.0395 0.23061 0.0
H2303 H 0.66237 0.00891 0.27249 0.0
H2304 H 0.57372 0.04853 0.27726 0.0
H2305 H 0.60718 0.04456 0.28136 0.0
H2306 H 0.64196 0.0647 0.23845 0.0
C2307 C 0.70343 0.03269 0.24283 0.0
C2308 C 0.65829 0.02142 0.26541 0.0
C2309 C 0.72212 0.02783 0.24324 0.0
C2310 C 0.58254 0.04797 0.2652 0.0
C2311 C 0.60159 0.0456 0.26752 0.0
C2312 C 0.64638 0.0526 0.24605 0.0
C2313 C 0.69164 0.02826 0.25769 0.0
C2314 C 0.67152 0.03297 0.257 0.0
C2315 C 0.6133 0.04445 0.25208 0.0
C2316 C 0.63332 0.04097 0.25438 0.0
H2317 H 0.72318 0.00628 0.285 0.0
H2318 H 0.6908 0.01555 0.28489 0.0
H2319 H 0.67491 0.05829 0.24122 0.0
H2320 H 0.581 0.04841 0.21814 0.0
H2321 H 0.61443 0.0449 0.22219 0.0
C2322 C 0.33749 0.48194 0.52579 0.0
C2323 C 0.33206 0.4901 0.54259 0.0
C2324 C 0.33422 0.46323 0.52236 0.0
C2325 C 0.32371 0.41883 0.54573 0.0
H2326 H 0.31119 0.40343 0.496 0.0
C2327 C 0.32474 0.34215 0.52317 0.0
C2328 C 0.3117 0.33616 0.5101 0.0
C2329 C 0.32615 0.36085 0.52784 0.0
C2330 C 0.31445 0.40745 0.51003 0.0
H2331 H 0.3189 0.48467 0.56896 0.0
H2332 H 0.31272 0.45219 0.56275 0.0
H2333 H 0.31512 0.43605 0.50276 0.0
H2334 H 0.28945 0.34506 0.49221 0.0
H2335 H 0.29161 0.3776 0.50058 0.0
H2336 H 0.32257 0.39022 0.55308 0.0
C2337 C 0.31981 0.46025 0.55233 0.0
C2338 C 0.31698 0.4262 0.51386 0.0
C2339 C 0.32317 0.47898 0.55582 0.0
C2340 C 0.29981 0.34926 0.50213 0.0
C2341 C 0.30111 0.36794 0.5069 0.0
C2342 C 0.32107 0.40006 0.54192 0.0
C2343 C 0.32529 0.45212 0.53554 0.0
C2344 C 0.32183 0.43216 0.53172 0.0
C2345 C 0.31445 0.37404 0.51966 0.0
C2346 C 0.31654 0.39409 0.52398 0.0
H2347 H 0.34412 0.48996 0.51509 0.0
H2348 H 0.33891 0.45746 0.50938 0.0
H2349 H 0.32759 0.42284 0.55961 0.0
H2350 H 0.33428 0.33247 0.52937 0.0
H2351 H 0.33679 0.36501 0.53748 0.0
C2352 C 0.47373 0.53378 0.31471 0.0
C2353 C 0.48599 0.52163 0.3059 0.0
C2354 C 0.4548 0.53308 0.31093 0.0
C2355 C 0.42021 0.51259 0.27811 0.0
H2356 H 0.38623 0.52347 0.31808 0.0
C2357 C 0.34257 0.49197 0.2796 0.0
C2358 C 0.3302 0.50642 0.28342 0.0
C2359 C 0.36163 0.49471 0.28118 0.0
C2360 C 0.39559 0.52052 0.30677 0.0
H2361 H 0.48815 0.49911 0.2864 0.0
H2362 H 0.45513 0.49721 0.28033 0.0
H2363 H 0.41933 0.52635 0.32321 0.0
H2364 H 0.32797 0.53497 0.29204 0.0
H2365 H 0.36136 0.53963 0.29533 0.0
H2366 H 0.3962 0.50586 0.26207 0.0
C2367 C 0.46003 0.50782 0.28965 0.0
C2368 C 0.4146 0.52229 0.30963 0.0
C2369 C 0.479 0.50882 0.29315 0.0
C2370 C 0.33723 0.52368 0.28884 0.0
C2371 C 0.35627 0.5263 0.29083 0.0
C2372 C 0.4012 0.51045 0.27541 0.0
C2373 C 0.4476 0.51988 0.29855 0.0
C2374 C 0.42724 0.51836 0.29534 0.0
C2375 C 0.36862 0.51183 0.28703 0.0
C2376 C 0.38873 0.51441 0.28971 0.0
H2377 H 0.47883 0.54389 0.32448 0.0
H2378 H 0.44586 0.54293 0.31775 0.0
H2379 H 0.42935 0.50981 0.26662 0.0
H2380 H 0.33745 0.47858 0.27536 0.0
H2381 H 0.37089 0.48333 0.27827 0.0
C2382 C 0.79212 0.10136 0.52502 0.0
C2383 C 0.81079 0.09607 0.5249 0.0
C2384 C 0.78715 0.11967 0.52879 0.0
C2385 C 0.80556 0.16114 0.55209 0.0
H2386 H 0.76451 0.18618 0.52857 0.0
C2387 C 0.7794 0.23057 0.57958 0.0
C2388 C 0.77531 0.24434 0.56655 0.0
C2389 C 0.7823 0.21235 0.57401 0.0
C2390 C 0.77608 0.17941 0.53518 0.0
H2391 H 0.83889 0.10598 0.52743 0.0
H2392 H 0.83032 0.13787 0.53371 0.0
H2393 H 0.77295 0.15501 0.51869 0.0
H2394 H 0.77051 0.24971 0.53752 0.0
H2395 H 0.7758 0.21784 0.52767 0.0
H2396 H 0.80905 0.18554 0.56826 0.0
C2397 C 0.81945 0.12784 0.53146 0.0
C2398 C 0.7808 0.16148 0.52965 0.0
C2399 C 0.82439 0.10958 0.52782 0.0
C2400 C 0.77352 0.23937 0.54787 0.0
C2401 C 0.77654 0.2211 0.54226 0.0
C2402 C 0.80088 0.179 0.55758 0.0
C2403 C 0.80077 0.13305 0.53241 0.0
C2404 C 0.79564 0.15215 0.53803 0.0
C2405 C 0.7813 0.20745 0.55523 0.0
C2406 C 0.78605 0.18836 0.54925 0.0
H2407 H 0.78134 0.09122 0.52295 0.0
H2408 H 0.77264 0.12318 0.52955 0.0
H2409 H 0.81688 0.15429 0.55906 0.0
H2410 H 0.78048 0.23391 0.59412 0.0
H2411 H 0.78547 0.20212 0.58443 0.0
C2412 C 0.08275 0.54676 0.79044 0.0
C2413 C 0.07512 0.53361 0.80247 0.0
C2414 C 0.10171 0.54675 0.78666 0.0
C2415 C 0.1456 0.53031 0.80728 0.0
H2416 H 0.16673 0.54696 0.76097 0.0
C2417 C 0.22414 0.53076 0.79513 0.0
C2418 C 0.23143 0.54739 0.78826 0.0
C2419 C 0.2051 0.52756 0.79489 0.0
C2420 C 0.161 0.54233 0.77399 0.0
H2421 H 0.08099 0.50948 0.81904 0.0
H2422 H 0.11391 0.50893 0.81197 0.0
H2423 H 0.13325 0.54361 0.76382 0.0
H2424 H 0.22454 0.57327 0.77494 0.0
H2425 H 0.19125 0.56768 0.77452 0.0
H2426 H 0.1733 0.52902 0.81743 0.0
C2427 C 0.10548 0.51969 0.80592 0.0
C2428 C 0.14182 0.54045 0.77566 0.0
C2429 C 0.0866 0.51987 0.80987 0.0
C2430 C 0.21931 0.56042 0.7805 0.0
C2431 C 0.20028 0.55714 0.78011 0.0
C2432 C 0.16472 0.53201 0.80555 0.0
C2433 C 0.1134 0.53344 0.7947 0.0
C2434 C 0.13385 0.53454 0.79239 0.0
C2435 C 0.19294 0.54083 0.78764 0.0
C2436 C 0.17264 0.53816 0.78895 0.0
H2437 H 0.07423 0.55765 0.78474 0.0
H2438 H 0.10729 0.55768 0.77813 0.0
H2439 H 0.14004 0.52616 0.82053 0.0
H2440 H 0.23305 0.52051 0.80133 0.0
H2441 H 0.19986 0.51479 0.80064 0.0
C2442 C 0.78477 0.98522 0.04436 0.0
C2443 C 0.76766 0.99153 0.05104 0.0
C2444 C 0.78908 0.96636 0.0447 0.0
C2445 C 0.77704 0.92344 0.06902 0.0
H2446 H 0.7976 0.89834 0.02637 0.0
C2447 C 0.79712 0.84701 0.07276 0.0
C2448 C 0.79032 0.83578 0.05844 0.0
C2449 C 0.79695 0.86621 0.07112 0.0
C2450 C 0.79187 0.90518 0.03838 0.0
H2451 H 0.74185 0.98303 0.06366 0.0
H2452 H 0.74931 0.9503 0.06418 0.0
H2453 H 0.7918 0.93166 0.02507 0.0
H2454 H 0.77888 0.83598 0.03078 0.0
H2455 H 0.77863 0.86959 0.02788 0.0
H2456 H 0.7767 0.89708 0.08225 0.0
C2457 C 0.75939 0.95987 0.05864 0.0
C2458 C 0.7887 0.92426 0.03769 0.0
C2459 C 0.75503 0.97862 0.05814 0.0
C2460 C 0.78431 0.84421 0.04201 0.0
C2461 C 0.78417 0.86348 0.04036 0.0
C2462 C 0.78033 0.90447 0.06977 0.0
C2463 C 0.77647 0.95351 0.05199 0.0
C2464 C 0.78101 0.93353 0.05293 0.0
C2465 C 0.79001 0.87469 0.05511 0.0
C2466 C 0.78762 0.89507 0.05442 0.0
H2467 H 0.79472 0.99486 0.03875 0.0
H2468 H 0.80239 0.96186 0.03957 0.0
H2469 H 0.77128 0.93023 0.08106 0.0
H2470 H 0.80223 0.84095 0.08543 0.0
H2471 H 0.80192 0.87446 0.08258 0.0
C2472 C 0.07207 0.76332 0.85552 0.0
C2473 C 0.05867 0.7575 0.84269 0.0
C2474 C 0.06884 0.76185 0.87451 0.0
C2475 C 0.03158 0.75705 0.90915 0.0
H2476 H 0.07093 0.7389 0.94059 0.0
C2477 C 0.0266 0.7567 0.98912 0.0
C2478 C 0.0334 0.74099 0.9983 0.0
C2479 C 0.02942 0.759 0.97013 0.0
C2480 C 0.05976 0.74389 0.93199 0.0
H2481 H 0.03134 0.7455 0.84002 0.0
H2482 H 0.02571 0.74308 0.87307 0.0
H2483 H 0.0763 0.7424 0.90752 0.0
H2484 H 0.04798 0.71509 0.99442 0.0
H2485 H 0.05298 0.71918 0.96144 0.0
H2486 H 0.01496 0.75827 0.93361 0.0
C2487 C 0.03864 0.74897 0.8684 0.0
C2488 C 0.06291 0.7461 0.91306 0.0
C2489 C 0.04188 0.75038 0.8494 0.0
C2490 C 0.04289 0.72755 0.98795 0.0
C2491 C 0.04575 0.72988 0.969 0.0
C2492 C 0.02846 0.75493 0.92811 0.0
C2493 C 0.05212 0.75459 0.88118 0.0
C2494 C 0.04884 0.75263 0.90139 0.0
C2495 C 0.03914 0.74568 0.95987 0.0
C2496 C 0.04249 0.74824 0.93974 0.0
H2497 H 0.08502 0.76918 0.85092 0.0
H2498 H 0.0794 0.76658 0.88399 0.0
H2499 H 0.0205 0.76227 0.90057 0.0
H2500 H 0.01942 0.76743 0.99665 0.0
H2501 H 0.02431 0.77142 0.96355 0.0
C2502 C 0.56147 0.77751 0.23547 0.0
C2503 C 0.57767 0.78378 0.24416 0.0
C2504 C 0.55899 0.77972 0.21642 0.0
C2505 C 0.58455 0.78921 0.17285 0.0
H2506 H 0.53643 0.80426 0.15488 0.0
C2507 C 0.55002 0.82336 0.10338 0.0
C2508 C 0.55918 0.81321 0.08955 0.0
C2509 C 0.55165 0.81843 0.12198 0.0
C2510 C 0.54999 0.80016 0.15966 0.0
H2511 H 0.60424 0.79679 0.23932 0.0
H2512 H 0.59972 0.80107 0.20635 0.0
H2513 H 0.54084 0.79847 0.18772 0.0
H2514 H 0.57702 0.78965 0.08463 0.0
H2515 H 0.57947 0.78079 0.11698 0.0
H2516 H 0.59386 0.79155 0.14489 0.0
C2517 C 0.58897 0.79427 0.21421 0.0
C2518 C 0.55246 0.79659 0.17849 0.0
C2519 C 0.59145 0.79204 0.23322 0.0
C2520 C 0.56966 0.79773 0.09482 0.0
C2521 C 0.57126 0.79277 0.11344 0.0
C2522 C 0.58208 0.79281 0.15403 0.0
C2523 C 0.57266 0.78824 0.20555 0.0
C2524 C 0.56982 0.79122 0.18537 0.0
C2525 C 0.56242 0.80317 0.12728 0.0
C2526 C 0.5648 0.79848 0.1472 0.0
H2527 H 0.55051 0.77119 0.24342 0.0
H2528 H 0.54636 0.77469 0.21021 0.0
H2529 H 0.59805 0.78486 0.17759 0.0
H2530 H 0.54162 0.8352 0.09988 0.0
H2531 H 0.54479 0.82688 0.13223 0.0
C2532 C 0.5166 0.27806 0.47319 0.0
C2533 C 0.52748 0.29176 0.48157 0.0
C2534 C 0.51732 0.27528 0.45407 0.0
C2535 C 0.53116 0.2994 0.41086 0.0
H2536 H 0.5228 0.25129 0.38886 0.0
C2537 C 0.53441 0.2877 0.33204 0.0
C2538 C 0.51886 0.27883 0.32454 0.0
C2539 C 0.53735 0.28784 0.35114 0.0
C2540 C 0.52514 0.2648 0.39484 0.0
H2541 H 0.54827 0.31265 0.4767 0.0
H2542 H 0.55007 0.30744 0.44347 0.0
H2543 H 0.52484 0.25418 0.42241 0.0
H2544 H 0.49473 0.26241 0.33104 0.0
H2545 H 0.49999 0.26243 0.36442 0.0
H2546 H 0.5316 0.30994 0.38324 0.0
C2547 C 0.54049 0.29923 0.45148 0.0
C2548 C 0.52622 0.2665 0.41407 0.0
C2549 C 0.53956 0.30217 0.47054 0.0
C2550 C 0.50676 0.26944 0.33647 0.0
C2551 C 0.50984 0.26935 0.35553 0.0
C2552 C 0.53033 0.29765 0.39166 0.0
C2553 C 0.52913 0.28597 0.4429 0.0
C2554 C 0.52903 0.28387 0.42238 0.0
C2555 C 0.52496 0.27888 0.3631 0.0
C2556 C 0.52711 0.28037 0.38345 0.0
H2557 H 0.507 0.26999 0.48131 0.0
H2558 H 0.50814 0.26516 0.44801 0.0
H2559 H 0.53295 0.31306 0.41666 0.0
H2560 H 0.54386 0.2952 0.32321 0.0
H2561 H 0.54918 0.29519 0.35659 0.0
C2562 C 0.00664 0.30481 0.7274 0.0
C2563 C 0.01986 0.30715 0.7414 0.0
C2564 C 0.01204 0.30337 0.70893 0.0
C2565 C 0.0506 0.28822 0.68045 0.0
H2566 H 0.02425 0.31279 0.64081 0.0
C2567 C 0.05333 0.29579 0.59578 0.0
C2568 C 0.05342 0.27704 0.59074 0.0
C2569 C 0.05104 0.30095 0.61427 0.0
C2570 C 0.03186 0.30598 0.65174 0.0
H2571 H 0.04909 0.31003 0.74703 0.0
H2572 H 0.0586 0.30732 0.71467 0.0
H2573 H 0.01653 0.31984 0.67295 0.0
H2574 H 0.05195 0.24904 0.60111 0.0
H2575 H 0.04812 0.25803 0.63342 0.0
H2576 H 0.06559 0.27399 0.65923 0.0
C2577 C 0.04404 0.30669 0.71804 0.0
C2578 C 0.02735 0.30991 0.67011 0.0
C2579 C 0.0386 0.30839 0.73651 0.0
C2580 C 0.05178 0.26358 0.6046 0.0
C2581 C 0.04974 0.26872 0.62309 0.0
C2582 C 0.05494 0.28411 0.66208 0.0
C2583 C 0.03082 0.30399 0.70409 0.0
C2584 C 0.03654 0.30093 0.68464 0.0
C2585 C 0.04908 0.28746 0.62808 0.0
C2586 C 0.04549 0.29281 0.64754 0.0
H2587 H 0.9921 0.30395 0.73078 0.0
H2588 H 0.00156 0.30116 0.69849 0.0
H2589 H 0.05781 0.28098 0.69137 0.0
H2590 H 0.05442 0.30645 0.58536 0.0
H2591 H 0.05067 0.31549 0.61775 0.0
loop_
_geom_bond_atom_site_label_1
_geom_bond_atom_site_label_2
_geom_bond_distance
_geom_bond_site_symmetry_2
_ccdc_geom_bond_type
C0 C1 1.351 1_455 S
C0 N3 1.368 . S
C0 H5 0.931 . S
C1 C0 1.351 1_655 S
C1 N2 1.373 . S
C1 H29 0.930 . S
N2 C1 1.373 . S
N2 C4 1.340 . S
N3 C0 1.368 . S
N3 C4 1.321 1_455 S
N3 Co6 2.135 . S
C4 N2 1.340 . S
C4 N3 1.321 1_655 S
C4 H28 0.930 . S
H5 C0 0.931 . S
Co6 N3 2.135 . S
Co6 N9 2.121 . S
Co6 O14 2.055 . S
Co6 O17 2.039 . S
Co6 N20 2.140 . S
C7 O8 1.227 . S
C7 O17 1.265 . S
O8 C7 1.227 . S
N9 Co6 2.121 . S
N9 C11 1.375 . S
N9 C12 1.313 . S
C10 C11 1.338 . S
C10 N13 1.377 . S
C10 H30 0.930 . S
C11 N9 1.375 . S
C11 C10 1.338 . S
C11 H15 0.931 . S
C12 N9 1.313 . S
C12 N13 1.344 . S
C12 H16 0.930 . S
N13 C10 1.377 . S
N13 C12 1.344 . S
O14 Co6 2.055 . S
O14 C18 1.253 . S
H15 C11 0.931 . S
H16 C12 0.930 . S
O17 Co6 2.039 . S
O17 C7 1.265 . S
C18 O14 1.253 . S
C18 O19 1.227 . S
O19 C18 1.227 . S
N20 Co6 2.140 . S
N20 C23 1.346 . S
N20 C24 1.345 . S
C21 C22 1.387 . S
C21 C25 1.391 1_565 S
C22 C21 1.387 . S
C22 C23 1.369 1_565 S
C22 H31 0.929 . S
C23 N20 1.346 . S
C23 C22 1.369 1_545 S
C23 H26 0.928 . S
C24 N20 1.345 . S
C24 C25 1.371 . S
C24 H27 0.931 . S
C25 C21 1.391 1_545 S
C25 C24 1.371 . S
C25 H32 0.930 . S
H26 C23 0.928 . S
H27 C24 0.931 . S
H28 C4 0.930 . S
H29 C1 0.930 . S
H30 C10 0.930 . S
H31 C22 0.929 . S
H32 C25 0.930 . S
C33 C34 1.351 . S
C33 N36 1.326 1_554 S
C33 H38 0.931 . S
C34 C33 1.351 . S
C34 N35 1.373 . S
C34 H62 0.930 . S
N35 C34 1.373 . S
N35 C37 1.340 1_554 S
N36 C33 1.326 1_556 S
N36 C37 1.323 . S
N36 Co39 2.167 . S
C37 N35 1.340 1_556 S
C37 N36 1.323 . S
C37 H61 0.930 . S
H38 C33 0.931 . S
Co39 N36 2.167 . S
Co39 N42 2.121 . S
Co39 O47 2.055 . S
Co39 O50 2.039 . S
Co39 N53 2.140 . S
C40 O41 1.227 . S
C40 O50 1.265 . S
O41 C40 1.227 . S
N42 Co39 2.121 . S
N42 C44 1.375 . S
N42 C45 1.313 . S
C43 C44 1.338 . S
C43 N46 1.377 . S
C43 H63 0.930 . S
C44 N42 1.375 . S
C44 C43 1.338 . S
C44 H48 0.931 . S
C45 N42 1.313 . S
C45 N46 1.344 . S
C45 H49 0.930 . S
N46 C43 1.377 . S
N46 C45 1.344 . S
O47 Co39 2.055 . S
O47 C51 1.253 . S
H48 C44 0.931 . S
H49 C45 0.930 . S
O50 Co39 2.039 . S
O50 C40 1.265 . S
C51 O47 1.253 . S
C51 O52 1.218 1_556 S
O52 C51 1.218 1_554 S
N53 Co39 2.140 . S
N53 C56 1.346 . S
N53 C57 1.345 . S
C54 C55 1.387 . S
C54 C58 1.391 . S
C55 C54 1.387 . S
C55 C56 1.369 . S
C55 H64 0.929 . S
C56 N53 1.346 . S
C56 C55 1.369 . S
C56 H59 0.928 . S
C57 N53 1.345 . S
C57 C58 1.371 . S
C57 H60 0.931 . S
C58 C54 1.391 . S
C58 C57 1.371 . S
C58 H65 0.930 . S
H59 C56 0.928 . S
H60 C57 0.931 . S
H61 C37 0.930 . S
H62 C34 0.930 . S
H63 C43 0.930 . S
H64 C55 0.929 . S
H65 C58 0.930 . S
C66 C67 1.351 . S
C66 N69 1.368 . S
C66 H71 0.931 . S
C67 C66 1.351 . S
C67 N68 1.373 . S
C67 H95 0.930 . S
N68 C67 1.373 . S
N68 C70 1.340 . S
N69 C66 1.368 . S
N69 C70 1.321 . S
N69 Co72 2.135 . S
C70 N68 1.340 . S
C70 N69 1.321 . S
C70 H94 0.930 . S
H71 C66 0.931 . S
Co72 N69 2.135 . S
Co72 N75 2.121 . S
Co72 O80 2.020 1_545 S
Co72 O83 2.039 . S
Co72 N86 2.140 . S
C73 O74 1.227 . S
C73 O83 1.265 . S
O74 C73 1.227 . S
N75 Co72 2.121 . S
N75 C77 1.375 . S
N75 C78 1.313 . S
C76 C77 1.338 . S
C76 N79 1.377 . S
C76 H96 0.930 . S
C77 N75 1.375 . S
C77 C76 1.338 . S
C77 H81 0.931 . S
C78 N75 1.313 . S
C78 N79 1.344 . S
C78 H82 0.924 1_545 S
N79 C76 1.377 . S
N79 C78 1.344 . S
O80 Co72 2.020 1_565 S
O80 C84 1.257 . S
H81 C77 0.931 . S
H82 C78 0.924 1_565 S
O83 Co72 2.039 . S
O83 C73 1.265 . S
C84 O80 1.257 . S
C84 O85 1.227 1_565 S
O85 C84 1.227 1_545 S
N86 Co72 2.140 . S
N86 C89 1.346 . S
N86 C90 1.345 . S
C87 C88 1.387 . S
C87 C91 1.391 . S
C88 C87 1.387 . S
C88 C89 1.369 . S
C88 H97 0.929 . S
C89 N86 1.346 . S
C89 C88 1.369 . S
C89 H92 0.928 . S
C90 N86 1.345 . S
C90 C91 1.371 . S
C90 H93 0.931 . S
C91 C87 1.391 . S
C91 C90 1.371 . S
C91 H98 0.930 . S
H92 C89 0.928 . S
H93 C90 0.931 . S
H94 C70 0.930 . S
H95 C67 0.930 . S
H96 C76 0.930 . S
H97 C88 0.929 . S
H98 C91 0.930 . S
C99 C100 1.351 . S
C99 N102 1.368 . S
C99 H104 0.931 . S
C100 C99 1.351 . S
C100 N101 1.373 . S
C100 H128 0.930 . S
N101 C100 1.373 . S
N101 C103 1.340 . S
N102 C99 1.368 . S
N102 C103 1.321 . S
N102 Co105 2.135 . S
C103 N101 1.340 . S
C103 N102 1.321 . S
C103 H127 0.930 . S
H104 C99 0.931 . S
Co105 N102 2.135 . S
Co105 N108 2.121 . S
Co105 O113 2.055 . S
Co105 O116 2.039 . S
Co105 N119 2.140 . S
C106 O107 1.227 . S
C106 O116 1.265 . S
O107 C106 1.227 . S
N108 Co105 2.121 . S
N108 C110 1.375 . S
N108 C111 1.313 . S
C109 C110 1.338 . S
C109 N112 1.377 . S
C109 H129 0.930 . S
C110 N108 1.375 . S
C110 C109 1.338 . S
C110 H114 0.931 . S
C111 N108 1.313 . S
C111 N112 1.344 . S
C111 H115 0.930 . S
N112 C109 1.377 . S
N112 C111 1.344 . S
O113 Co105 2.055 . S
O113 C117 1.253 . S
H114 C110 0.931 . S
H115 C111 0.930 . S
O116 Co105 2.039 . S
O116 C106 1.265 . S
C117 O113 1.253 . S
C117 O118 1.227 . S
O118 C117 1.227 . S
N119 Co105 2.140 . S
N119 C122 1.346 . S
N119 C123 1.345 . S
C120 C121 1.387 . S
C120 C124 1.391 . S
C121 C120 1.387 . S
C121 C122 1.369 . S
C121 H130 0.929 . S
C122 N119 1.346 . S
C122 C121 1.369 . S
C122 H125 0.928 . S
C123 N119 1.345 . S
C123 C124 1.371 . S
C123 H126 0.931 . S
C124 C120 1.391 . S
C124 C123 1.371 . S
C124 H131 0.930 . S
H125 C122 0.928 . S
H126 C123 0.931 . S
H127 C103 0.930 . S
H128 C100 0.930 . S
H129 C109 0.930 . S
H130 C121 0.929 . S
H131 C124 0.930 . S
C132 C133 1.351 . S
C132 N135 1.368 . S
C132 H137 0.931 . S
C133 C132 1.351 . S
C133 N134 1.373 . S
C133 H161 0.930 . S
N134 C133 1.373 . S
N134 C136 1.340 . S
N135 C132 1.368 . S
N135 C136 1.321 . S
N135 Co138 2.135 . S
C136 N134 1.340 . S
C136 N135 1.321 . S
C136 H160 0.930 . S
H137 C132 0.931 . S
Co138 N135 2.135 . S
Co138 N141 2.121 . S
Co138 O146 2.055 . S
Co138 O149 2.039 . S
Co138 N152 2.140 . S
C139 O140 1.227 . S
C139 O149 1.265 . S
O140 C139 1.227 . S
N141 Co138 2.121 . S
N141 C143 1.375 . S
N141 C144 1.313 . S
C142 C143 1.338 . S
C142 N145 1.377 . S
C142 H162 0.930 . S
C143 N141 1.375 . S
C143 C142 1.338 . S
C143 H147 0.931 . S
C144 N141 1.313 . S
C144 N145 1.344 . S
C144 H148 0.930 . S
N145 C142 1.377 . S
N145 C144 1.344 . S
O146 Co138 2.055 . S
O146 C150 1.253 . S
H147 C143 0.931 . S
H148 C144 0.930 . S
O149 Co138 2.039 . S
O149 C139 1.265 . S
C150 O146 1.253 . S
C150 O151 1.227 . S
O151 C150 1.227 . S
N152 Co138 2.140 . S
N152 C155 1.346 . S
N152 C156 1.345 . S
C153 C154 1.387 . S
C153 C157 1.391 . S
C154 C153 1.387 . S
C154 C155 1.369 . S
C154 H163 0.929 . S
C155 N152 1.346 . S
C155 C154 1.369 . S
C155 H158 0.928 . S
C156 N152 1.345 . S
C156 C157 1.371 . S
C156 H159 0.931 . S
C157 C153 1.391 . S
C157 C156 1.371 . S
C157 H164 0.930 . S
H158 C155 0.928 . S
H159 C156 0.931 . S
H160 C136 0.930 . S
H161 C133 0.930 . S
H162 C142 0.930 . S
H163 C154 0.929 . S
H164 C157 0.930 . S
C165 C166 1.351 . S
C165 N168 1.368 . S
C165 H170 0.931 . S
C166 C165 1.351 . S
C166 N167 1.373 . S
C166 H194 0.930 . S
N167 C166 1.373 . S
N167 C169 1.340 . S
N168 C165 1.368 . S
N168 C169 1.321 . S
N168 Co171 2.135 . S
C169 N167 1.340 . S
C169 N168 1.321 . S
C169 H193 0.930 . S
H170 C165 0.931 . S
Co171 N168 2.135 . S
Co171 N174 2.121 . S
Co171 O179 2.055 . S
Co171 O182 2.039 . S
Co171 N185 2.140 . S
C172 O173 1.227 . S
C172 O182 1.265 . S
O173 C172 1.227 . S
N174 Co171 2.121 . S
N174 C176 1.375 . S
N174 C177 1.313 . S
C175 C176 1.338 . S
C175 N178 1.377 . S
C175 H195 0.930 . S
C176 N174 1.375 . S
C176 C175 1.338 . S
C176 H180 0.931 . S
C177 N174 1.313 . S
C177 N178 1.344 . S
C177 H181 0.930 . S
N178 C175 1.377 . S
N178 C177 1.344 . S
O179 Co171 2.055 . S
O179 C183 1.253 . S
H180 C176 0.931 . S
H181 C177 0.930 . S
O182 Co171 2.039 . S
O182 C172 1.265 . S
C183 O179 1.253 . S
C183 O184 1.227 . S
O184 C183 1.227 . S
N185 Co171 2.140 . S
N185 C188 1.346 . S
N185 C189 1.345 . S
C186 C187 1.387 . S
C186 C190 1.391 . S
C187 C186 1.387 . S
C187 C188 1.369 . S
C187 H196 0.929 . S
C188 N185 1.346 . S
C188 C187 1.369 . S
C188 H191 0.928 . S
C189 N185 1.345 . S
C189 C190 1.371 . S
C189 H192 0.931 . S
C190 C186 1.391 . S
C190 C189 1.371 . S
C190 H197 0.930 . S
H191 C188 0.928 . S
H192 C189 0.931 . S
H193 C169 0.930 . S
H194 C166 0.930 . S
H195 C175 0.930 . S
H196 C187 0.929 . S
H197 C190 0.930 . S
C198 C199 1.351 . S
C198 N201 1.368 . S
C198 H203 0.931 . S
C199 C198 1.351 . S
C199 N200 1.373 . S
C199 H227 0.930 . S
N200 C199 1.373 . S
N200 C202 1.340 . S
N201 C198 1.368 . S
N201 C202 1.321 . S
N201 Co204 2.135 . S
C202 N200 1.340 . S
C202 N201 1.321 . S
C202 H226 0.930 . S
H203 C198 0.931 . S
Co204 N201 2.135 . S
Co204 N207 2.121 . S
Co204 O212 2.055 . S
Co204 O215 2.039 . S
Co204 N218 2.140 . S
C205 O206 1.227 . S
C205 O215 1.265 . S
O206 C205 1.227 . S
N207 Co204 2.121 . S
N207 C209 1.375 . S
N207 C210 1.313 . S
C208 C209 1.338 . S
C208 N211 1.377 . S
C208 H228 0.930 . S
C209 N207 1.375 . S
C209 C208 1.338 . S
C209 H213 0.931 . S
C210 N207 1.313 . S
C210 N211 1.344 . S
C210 H214 0.930 . S
N211 C208 1.377 . S
N211 C210 1.344 . S
O212 Co204 2.055 . S
O212 C216 1.253 . S
H213 C209 0.931 . S
H214 C210 0.930 . S
O215 Co204 2.039 . S
O215 C205 1.265 . S
C216 O212 1.253 . S
C216 O217 1.227 . S
O217 C216 1.227 . S
N218 Co204 2.140 . S
N218 C221 1.346 . S
N218 C222 1.345 . S
C219 C220 1.387 . S
C219 C223 1.391 . S
C220 C219 1.387 . S
C220 C221 1.369 . S
C220 H229 0.929 . S
C221 N218 1.346 . S
C221 C220 1.369 . S
C221 H224 0.928 . S
C222 N218 1.345 . S
C222 C223 1.371 . S
C222 H225 0.931 . S
C223 C219 1.391 . S
C223 C222 1.371 . S
C223 H230 0.930 1_455 S
H224 C221 0.928 . S
H225 C222 0.931 . S
H226 C202 0.930 . S
H227 C199 0.930 . S
H228 C208 0.930 . S
H229 C220 0.929 . S
H230 C223 0.930 1_655 S
C231 C232 1.351 . S
C231 N234 1.368 . S
C231 H236 0.931 . S
C232 C231 1.351 . S
C232 N233 1.373 . S
C232 H260 0.930 . S
N233 C232 1.373 . S
N233 C235 1.340 . S
N234 C231 1.368 . S
N234 C235 1.321 . S
N234 Co237 2.135 . S
C235 N233 1.340 . S
C235 N234 1.321 . S
C235 H259 0.930 . S
H236 C231 0.931 . S
Co237 N234 2.135 . S
Co237 N240 2.121 . S
Co237 O245 2.055 . S
Co237 O248 2.039 . S
Co237 N251 2.140 . S
C238 O239 1.227 . S
C238 O248 1.265 . S
O239 C238 1.227 . S
N240 Co237 2.121 . S
N240 C242 1.375 . S
N240 C243 1.313 . S
C241 C242 1.338 . S
C241 N244 1.377 . S
C241 H261 0.930 . S
C242 N240 1.375 . S
C242 C241 1.338 . S
C242 H246 0.931 . S
C243 N240 1.313 . S
C243 N244 1.344 . S
C243 H247 0.930 . S
N244 C241 1.377 . S
N244 C243 1.344 . S
O245 Co237 2.055 . S
O245 C249 1.253 . S
H246 C242 0.931 . S
H247 C243 0.930 . S
O248 Co237 2.039 . S
O248 C238 1.265 . S
C249 O245 1.253 . S
C249 O250 1.227 . S
O250 C249 1.227 . S
N251 Co237 2.140 . S
N251 C254 1.346 . S
N251 C255 1.345 . S
C252 C253 1.387 . S
C252 C256 1.391 . S
C253 C252 1.387 . S
C253 C254 1.369 . S
C253 H262 0.929 . S
C254 N251 1.346 . S
C254 C253 1.369 . S
C254 H257 0.928 . S
C255 N251 1.345 . S
C255 C256 1.371 . S
C255 H258 0.931 . S
C256 C252 1.391 . S
C256 C255 1.371 . S
C256 H263 0.930 . S
H257 C254 0.928 . S
H258 C255 0.931 . S
H259 C235 0.930 . S
H260 C232 0.930 . S
H261 C241 0.930 . S
H262 C253 0.929 . S
H263 C256 0.930 . S
C264 C265 1.351 1_545 S
C264 N267 1.368 . S
C264 H269 0.931 . S
C265 C264 1.351 1_565 S
C265 N266 1.373 . S
C265 H293 0.930 . S
N266 C265 1.373 . S
N266 C268 1.340 . S
N267 C264 1.368 . S
N267 C268 1.321 1_545 S
N267 Co270 2.135 . S
C268 N266 1.340 . S
C268 N267 1.321 1_565 S
C268 H292 0.930 . S
H269 C264 0.931 . S
Co270 N267 2.135 . S
Co270 N273 2.121 . S
Co270 O278 2.055 . S
Co270 O281 2.039 . S
Co270 N284 2.140 . S
C271 O272 1.227 . S
C271 O281 1.265 . S
O272 C271 1.227 . S
N273 Co270 2.121 . S
N273 C275 1.375 . S
N273 C276 1.313 . S
C274 C275 1.338 . S
C274 N277 1.377 . S
C274 H294 0.930 . S
C275 N273 1.375 . S
C275 C274 1.338 . S
C275 H279 0.931 . S
C276 N273 1.313 . S
C276 N277 1.344 . S
C276 H280 0.930 . S
N277 C274 1.377 . S
N277 C276 1.344 . S
O278 Co270 2.055 . S
O278 C282 1.253 . S
H279 C275 0.931 . S
H280 C276 0.930 . S
O281 Co270 2.039 . S
O281 C271 1.265 . S
C282 O278 1.253 . S
C282 O283 1.227 . S
O283 C282 1.227 . S
N284 Co270 2.140 . S
N284 C287 1.346 . S
N284 C288 1.345 . S
C285 C286 1.387 . S
C285 C289 1.391 1_556 S
C286 C285 1.387 . S
C286 C287 1.369 1_556 S
C286 H295 0.929 . S
C287 N284 1.346 . S
C287 C286 1.369 1_554 S
C287 H290 0.928 . S
C288 N284 1.345 . S
C288 C289 1.371 . S
C288 H291 0.931 . S
C289 C285 1.391 1_554 S
C289 C288 1.371 . S
C289 H296 0.930 . S
H290 C287 0.928 . S
H291 C288 0.931 . S
H292 C268 0.930 . S
H293 C265 0.930 . S
H294 C274 0.930 . S
H295 C286 0.929 . S
H296 C289 0.930 . S
C297 C298 1.351 . S
C297 N300 1.368 . S
C297 H302 0.931 . S
C298 C297 1.351 . S
C298 N299 1.373 . S
C298 H326 0.930 . S
N299 C298 1.373 . S
N299 C301 1.340 . S
N300 C297 1.368 . S
N300 C301 1.321 . S
N300 Co303 2.135 . S
C301 N299 1.340 . S
C301 N300 1.321 . S
C301 H325 0.930 . S
H302 C297 0.931 . S
Co303 N300 2.135 . S
Co303 N306 2.121 . S
Co303 O311 2.055 . S
Co303 O314 2.039 . S
Co303 N317 2.140 . S
C304 O305 1.227 . S
C304 O314 1.265 . S
O305 C304 1.227 . S
N306 Co303 2.121 . S
N306 C308 1.375 . S
N306 C309 1.313 . S
C307 C308 1.338 . S
C307 N310 1.377 . S
C307 H327 0.930 . S
C308 N306 1.375 . S
C308 C307 1.338 . S
C308 H312 0.931 . S
C309 N306 1.313 . S
C309 N310 1.344 . S
C309 H313 0.930 . S
N310 C307 1.377 . S
N310 C309 1.344 . S
O311 Co303 2.055 . S
O311 C315 1.253 . S
H312 C308 0.931 . S
H313 C309 0.930 . S
O314 Co303 2.039 . S
O314 C304 1.265 . S
C315 O311 1.253 . S
C315 O316 1.227 . S
O316 C315 1.227 . S
N317 Co303 2.140 . S
N317 C320 1.346 . S
N317 C321 1.345 . S
C318 C319 1.387 . S
C318 C322 1.391 . S
C319 C318 1.387 . S
C319 C320 1.369 . S
C319 H328 0.929 . S
C320 N317 1.346 . S
C320 C319 1.369 . S
C320 H323 0.928 . S
C321 N317 1.345 . S
C321 C322 1.371 . S
C321 H324 0.931 . S
C322 C318 1.391 . S
C322 C321 1.371 . S
C322 H329 0.930 . S
H323 C320 0.928 . S
H324 C321 0.931 . S
H325 C301 0.930 . S
H326 C298 0.930 . S
H327 C307 0.930 . S
H328 C319 0.929 . S
H329 C322 0.930 . S
C330 C331 1.351 . S
C330 N333 1.368 . S
C330 H335 0.931 . S
C331 C330 1.351 . S
C331 N332 1.373 . S
C331 H359 0.930 . S
N332 C331 1.373 . S
N332 C334 1.340 . S
N333 C330 1.368 . S
N333 C334 1.321 . S
N333 Co336 2.135 . S
C334 N332 1.340 . S
C334 N333 1.321 . S
C334 H358 0.930 . S
H335 C330 0.931 . S
Co336 N333 2.135 . S
Co336 N339 2.121 . S
Co336 O344 2.055 . S
Co336 O347 2.039 . S
Co336 N350 2.140 . S
C337 O338 1.227 . S
C337 O347 1.265 . S
O338 C337 1.227 . S
N339 Co336 2.121 . S
N339 C341 1.375 . S
N339 C342 1.313 . S
C340 C341 1.338 . S
C340 N343 1.377 . S
C340 H360 0.930 . S
C341 N339 1.375 . S
C341 C340 1.338 . S
C341 H345 0.931 . S
C342 N339 1.313 . S
C342 N343 1.344 . S
C342 H346 0.930 . S
N343 C340 1.377 . S
N343 C342 1.344 . S
O344 Co336 2.055 . S
O344 C348 1.253 . S
H345 C341 0.931 . S
H346 C342 0.930 . S
O347 Co336 2.039 . S
O347 C337 1.265 . S
C348 O344 1.253 . S
C348 O349 1.227 . S
O349 C348 1.227 . S
N350 Co336 2.140 . S
N350 C353 1.346 . S
N350 C354 1.345 . S
C351 C352 1.387 . S
C351 C355 1.391 . S
C352 C351 1.387 . S
C352 C353 1.369 . S
C352 H361 0.929 . S
C353 N350 1.346 . S
C353 C352 1.369 . S
C353 H356 0.928 . S
C354 N350 1.345 . S
C354 C355 1.371 . S
C354 H357 0.931 . S
C355 C351 1.391 . S
C355 C354 1.371 . S
C355 H362 0.930 1_545 S
H356 C353 0.928 . S
H357 C354 0.931 . S
H358 C334 0.930 . S
H359 C331 0.930 . S
H360 C340 0.930 . S
H361 C352 0.929 . S
H362 C355 0.930 1_565 S
C363 C364 1.351 . S
C363 N366 1.368 . S
C363 H368 0.931 . S
C364 C363 1.351 . S
C364 N365 1.373 . S
C364 H392 0.930 . S
N365 C364 1.373 . S
N365 C367 1.340 . S
N366 C363 1.368 . S
N366 C367 1.321 . S
N366 Co369 2.135 . S
C367 N365 1.340 . S
C367 N366 1.321 . S
C367 H391 0.930 . S
H368 C363 0.931 . S
Co369 N366 2.135 . S
Co369 N372 2.121 . S
Co369 O377 2.055 . S
Co369 O380 2.039 . S
Co369 N383 2.140 . S
C370 O371 1.227 . S
C370 O380 1.265 . S
O371 C370 1.227 . S
N372 Co369 2.121 . S
N372 C374 1.375 . S
N372 C375 1.313 . S
C373 C374 1.338 . S
C373 N376 1.377 . S
C373 H393 0.930 . S
C374 N372 1.375 . S
C374 C373 1.338 . S
C374 H378 0.931 . S
C375 N372 1.313 . S
C375 N376 1.344 . S
C375 H379 0.930 . S
N376 C373 1.377 . S
N376 C375 1.344 . S
O377 Co369 2.055 . S
O377 C381 1.253 . S
H378 C374 0.931 . S
H379 C375 0.930 . S
O380 Co369 2.039 . S
O380 C370 1.265 . S
C381 O377 1.253 . S
C381 O382 1.227 . S
O382 C381 1.227 . S
N383 Co369 2.140 . S
N383 C386 1.346 . S
N383 C387 1.345 . S
C384 C385 1.387 . S
C384 C388 1.391 . S
C385 C384 1.387 . S
C385 C386 1.369 . S
C385 H394 0.929 . S
C386 N383 1.346 . S
C386 C385 1.369 . S
C386 H389 0.928 . S
C387 N383 1.345 . S
C387 C388 1.371 . S
C387 H390 0.931 . S
C388 C384 1.391 . S
C388 C387 1.371 . S
C388 H395 0.930 . S
H389 C386 0.928 . S
H390 C387 0.931 . S
H391 C367 0.930 . S
H392 C364 0.930 . S
H393 C373 0.930 . S
H394 C385 0.929 . S
H395 C388 0.930 . S
C396 C397 1.351 . S
C396 N399 1.368 . S
C396 H401 0.931 . S
C397 C396 1.351 . S
C397 N398 1.373 . S
C397 H425 0.930 . S
N398 C397 1.373 . S
N398 C400 1.340 . S
N399 C396 1.368 . S
N399 C400 1.321 . S
N399 Co402 2.135 . S
C400 N398 1.340 . S
C400 N399 1.321 . S
C400 H424 0.930 . S
H401 C396 0.931 . S
Co402 N399 2.135 . S
Co402 N405 2.121 . S
Co402 O410 2.020 1_554 S
Co402 O413 2.039 . S
Co402 N416 2.140 . S
C403 O404 1.227 . S
C403 O413 1.265 . S
O404 C403 1.227 . S
N405 Co402 2.121 . S
N405 C407 1.375 . S
N405 C408 1.313 . S
C406 C407 1.338 . S
C406 N409 1.377 . S
C406 H426 0.930 . S
C407 N405 1.375 . S
C407 C406 1.338 . S
C407 H411 0.931 . S
C408 N405 1.313 . S
C408 N409 1.344 . S
C408 H412 0.924 1_554 S
N409 C406 1.377 . S
N409 C408 1.344 . S
O410 Co402 2.020 1_556 S
O410 C414 1.257 . S
H411 C407 0.931 . S
H412 C408 0.924 1_556 S
O413 Co402 2.039 . S
O413 C403 1.265 . S
C414 O410 1.257 . S
C414 O415 1.227 1_556 S
O415 C414 1.227 1_554 S
N416 Co402 2.140 . S
N416 C419 1.346 . S
N416 C420 1.345 . S
C417 C418 1.387 . S
C417 C421 1.391 . S
C418 C417 1.387 . S
C418 C419 1.369 . S
C418 H427 0.929 . S
C419 N416 1.346 . S
C419 C418 1.369 . S
C419 H422 0.928 . S
C420 N416 1.345 . S
C420 C421 1.371 . S
C420 H423 0.931 . S
C421 C417 1.391 . S
C421 C420 1.371 . S
C421 H428 0.930 . S
H422 C419 0.928 . S
H423 C420 0.931 . S
H424 C400 0.930 . S
H425 C397 0.930 . S
H426 C406 0.930 . S
H427 C418 0.929 . S
H428 C421 0.930 . S
C429 C430 1.351 . S
C429 N432 1.326 1_545 S
C429 H434 0.931 . S
C430 C429 1.351 . S
C430 N431 1.373 . S
C430 H458 0.930 . S
N431 C430 1.373 . S
N431 C433 1.340 1_545 S
N432 C429 1.326 1_565 S
N432 C433 1.323 . S
N432 Co435 2.167 . S
C433 N431 1.340 1_565 S
C433 N432 1.323 . S
C433 H457 0.930 . S
H434 C429 0.931 . S
Co435 N432 2.167 . S
Co435 N438 2.121 . S
Co435 O443 2.055 . S
Co435 O446 2.039 . S
Co435 N449 2.140 . S
C436 O437 1.227 . S
C436 O446 1.265 . S
O437 C436 1.227 . S
N438 Co435 2.121 . S
N438 C440 1.375 . S
N438 C441 1.313 . S
C439 C440 1.338 . S
C439 N442 1.377 . S
C439 H459 0.930 . S
C440 N438 1.375 . S
C440 C439 1.338 . S
C440 H444 0.931 . S
C441 N438 1.313 . S
C441 N442 1.344 . S
C441 H445 0.930 . S
N442 C439 1.377 . S
N442 C441 1.344 . S
O443 Co435 2.055 . S
O443 C447 1.253 . S
H444 C440 0.931 . S
H445 C441 0.930 . S
O446 Co435 2.039 . S
O446 C436 1.265 . S
C447 O443 1.253 . S
C447 O448 1.218 1_565 S
O448 C447 1.218 1_545 S
N449 Co435 2.140 . S
N449 C452 1.346 . S
N449 C453 1.345 . S
C450 C451 1.387 . S
C450 C454 1.391 . S
C451 C450 1.387 . S
C451 C452 1.369 . S
C451 H460 0.929 . S
C452 N449 1.346 . S
C452 C451 1.369 . S
C452 H455 0.928 . S
C453 N449 1.345 . S
C453 C454 1.371 . S
C453 H456 0.931 . S
C454 C450 1.391 . S
C454 C453 1.371 . S
C454 H461 0.930 . S
H455 C452 0.928 . S
H456 C453 0.931 . S
H457 C433 0.930 . S
H458 C430 0.930 . S
H459 C439 0.930 . S
H460 C451 0.929 . S
H461 C454 0.930 . S
C462 C463 1.351 . S
C462 N465 1.368 . S
C462 H467 0.931 . S
C463 C462 1.351 . S
C463 N464 1.373 . S
C463 H491 0.930 . S
N464 C463 1.373 . S
N464 C466 1.340 . S
N465 C462 1.368 . S
N465 C466 1.321 . S
N465 Co468 2.135 . S
C466 N464 1.340 . S
C466 N465 1.321 . S
C466 H490 0.930 . S
H467 C462 0.931 . S
Co468 N465 2.135 . S
Co468 N471 2.121 . S
Co468 O476 2.055 . S
Co468 O479 2.039 . S
Co468 N482 2.140 . S
C469 O470 1.227 . S
C469 O479 1.265 . S
O470 C469 1.227 . S
N471 Co468 2.121 . S
N471 C473 1.375 . S
N471 C474 1.313 . S
C472 C473 1.338 . S
C472 N475 1.377 . S
C472 H492 0.930 . S
C473 N471 1.375 . S
C473 C472 1.338 . S
C473 H477 0.931 . S
C474 N471 1.313 . S
C474 N475 1.344 . S
C474 H478 0.930 . S
N475 C472 1.377 . S
N475 C474 1.344 . S
O476 Co468 2.055 . S
O476 C480 1.253 . S
H477 C473 0.931 . S
H478 C474 0.930 . S
O479 Co468 2.039 . S
O479 C469 1.265 . S
C480 O476 1.253 . S
C480 O481 1.227 . S
O481 C480 1.227 . S
N482 Co468 2.140 . S
N482 C485 1.346 . S
N482 C486 1.345 . S
C483 C484 1.387 . S
C483 C487 1.391 . S
C484 C483 1.387 . S
C484 C485 1.369 . S
C484 H493 0.929 . S
C485 N482 1.346 . S
C485 C484 1.369 . S
C485 H488 0.928 . S
C486 N482 1.345 . S
C486 C487 1.371 . S
C486 H489 0.931 . S
C487 C483 1.391 . S
C487 C486 1.371 . S
C487 H494 0.930 . S
H488 C485 0.928 . S
H489 C486 0.931 . S
H490 C466 0.930 . S
H491 C463 0.930 . S
H492 C472 0.930 . S
H493 C484 0.929 . S
H494 C487 0.930 . S
C495 C496 1.351 . S
C495 N498 1.368 . S
C495 H500 0.931 . S
C496 C495 1.351 . S
C496 N497 1.373 . S
C496 H524 0.930 . S
N497 C496 1.373 . S
N497 C499 1.340 . S
N498 C495 1.368 . S
N498 C499 1.321 . S
N498 Co501 2.135 . S
C499 N497 1.340 . S
C499 N498 1.321 . S
C499 H523 0.930 . S
H500 C495 0.931 . S
Co501 N498 2.135 . S
Co501 N504 2.121 . S
Co501 O509 2.055 . S
Co501 O512 2.039 . S
Co501 N515 2.140 . S
C502 O503 1.227 . S
C502 O512 1.265 . S
O503 C502 1.227 . S
N504 Co501 2.121 . S
N504 C506 1.375 . S
N504 C507 1.313 . S
C505 C506 1.338 . S
C505 N508 1.377 . S
C505 H525 0.930 . S
C506 N504 1.375 . S
C506 C505 1.338 . S
C506 H510 0.931 . S
C507 N504 1.313 . S
C507 N508 1.344 . S
C507 H511 0.930 . S
N508 C505 1.377 . S
N508 C507 1.344 . S
O509 Co501 2.055 . S
O509 C513 1.253 . S
H510 C506 0.931 . S
H511 C507 0.930 . S
O512 Co501 2.039 . S
O512 C502 1.265 . S
C513 O509 1.253 . S
C513 O514 1.227 . S
O514 C513 1.227 . S
N515 Co501 2.140 . S
N515 C518 1.346 . S
N515 C519 1.345 . S
C516 C517 1.387 . S
C516 C520 1.391 . S
C517 C516 1.387 . S
C517 C518 1.369 . S
C517 H526 0.929 . S
C518 N515 1.346 . S
C518 C517 1.369 . S
C518 H521 0.928 . S
C519 N515 1.345 . S
C519 C520 1.371 . S
C519 H522 0.931 . S
C520 C516 1.391 . S
C520 C519 1.371 . S
C520 H527 0.930 . S
H521 C518 0.928 . S
H522 C519 0.931 . S
H523 C499 0.930 . S
H524 C496 0.930 . S
H525 C505 0.930 . S
H526 C517 0.929 . S
H527 C520 0.930 . S
C528 C529 1.351 1_554 S
C528 N531 1.368 . S
C528 H533 0.931 . S
C529 C528 1.351 1_556 S
C529 N530 1.373 . S
C529 H557 0.930 . S
N530 C529 1.373 . S
N530 C532 1.340 . S
N531 C528 1.368 . S
N531 C532 1.321 1_554 S
N531 Co534 2.135 . S
C532 N530 1.340 . S
C532 N531 1.321 1_556 S
C532 H556 0.930 . S
H533 C528 0.931 . S
Co534 N531 2.135 . S
Co534 N537 2.121 . S
Co534 O542 2.055 . S
Co534 O545 2.039 . S
Co534 N548 2.140 . S
C535 O536 1.227 . S
C535 O545 1.265 . S
O536 C535 1.227 . S
N537 Co534 2.121 . S
N537 C539 1.375 . S
N537 C540 1.313 . S
C538 C539 1.338 . S
C538 N541 1.377 . S
C538 H558 0.930 . S
C539 N537 1.375 . S
C539 C538 1.338 . S
C539 H543 0.931 . S
C540 N537 1.313 . S
C540 N541 1.344 . S
C540 H544 0.930 . S
N541 C538 1.377 . S
N541 C540 1.344 . S
O542 Co534 2.055 . S
O542 C546 1.253 . S
H543 C539 0.931 . S
H544 C540 0.930 . S
O545 Co534 2.039 . S
O545 C535 1.265 . S
C546 O542 1.253 . S
C546 O547 1.227 . S
O547 C546 1.227 . S
N548 Co534 2.140 . S
N548 C551 1.346 . S
N548 C552 1.345 . S
C549 C550 1.387 . S
C549 C553 1.391 1_655 S
C550 C549 1.387 . S
C550 C551 1.369 1_655 S
C550 H559 0.929 . S
C551 N548 1.346 . S
C551 C550 1.369 1_455 S
C551 H554 0.928 . S
C552 N548 1.345 . S
C552 C553 1.371 . S
C552 H555 0.931 . S
C553 C549 1.391 1_455 S
C553 C552 1.371 . S
C553 H560 0.930 . S
H554 C551 0.928 . S
H555 C552 0.931 . S
H556 C532 0.930 . S
H557 C529 0.930 . S
H558 C538 0.930 . S
H559 C550 0.929 . S
H560 C553 0.930 . S
C561 C562 1.351 . S
C561 N564 1.368 . S
C561 H566 0.931 . S
C562 C561 1.351 . S
C562 N563 1.373 . S
C562 H590 0.930 . S
N563 C562 1.373 . S
N563 C565 1.340 . S
N564 C561 1.368 . S
N564 C565 1.321 . S
N564 Co567 2.135 . S
C565 N563 1.340 . S
C565 N564 1.321 . S
C565 H589 0.930 . S
H566 C561 0.931 . S
Co567 N564 2.135 . S
Co567 N570 2.121 . S
Co567 O575 2.055 . S
Co567 O578 2.039 . S
Co567 N581 2.140 . S
C568 O569 1.227 . S
C568 O578 1.265 . S
O569 C568 1.227 . S
N570 Co567 2.121 . S
N570 C572 1.375 . S
N570 C573 1.313 . S
C571 C572 1.338 . S
C571 N574 1.377 . S
C571 H591 0.930 . S
C572 N570 1.375 . S
C572 C571 1.338 . S
C572 H576 0.931 . S
C573 N570 1.313 . S
C573 N574 1.344 . S
C573 H577 0.930 . S
N574 C571 1.377 . S
N574 C573 1.344 . S
O575 Co567 2.055 . S
O575 C579 1.253 . S
H576 C572 0.931 . S
H577 C573 0.930 . S
O578 Co567 2.039 . S
O578 C568 1.265 . S
C579 O575 1.253 . S
C579 O580 1.227 . S
O580 C579 1.227 . S
N581 Co567 2.140 . S
N581 C584 1.346 . S
N581 C585 1.345 . S
C582 C583 1.387 . S
C582 C586 1.391 . S
C583 C582 1.387 . S
C583 C584 1.369 . S
C583 H592 0.929 . S
C584 N581 1.346 . S
C584 C583 1.369 . S
C584 H587 0.928 . S
C585 N581 1.345 . S
C585 C586 1.371 . S
C585 H588 0.931 . S
C586 C582 1.391 . S
C586 C585 1.371 . S
C586 H593 0.930 1_554 S
H587 C584 0.928 . S
H588 C585 0.931 . S
H589 C565 0.930 . S
H590 C562 0.930 . S
H591 C571 0.930 . S
H592 C583 0.929 . S
H593 C586 0.930 1_556 S
C594 C595 1.351 . S
C594 N597 1.368 . S
C594 H599 0.931 . S
C595 C594 1.351 . S
C595 N596 1.373 . S
C595 H623 0.930 . S
N596 C595 1.373 . S
N596 C598 1.340 . S
N597 C594 1.368 . S
N597 C598 1.321 . S
N597 Co600 2.135 . S
C598 N596 1.340 . S
C598 N597 1.321 . S
C598 H622 0.930 . S
H599 C594 0.931 . S
Co600 N597 2.135 . S
Co600 N603 2.121 . S
Co600 O608 2.055 . S
Co600 O611 2.039 . S
Co600 N614 2.140 . S
C601 O602 1.227 . S
C601 O611 1.265 . S
O602 C601 1.227 . S
N603 Co600 2.121 . S
N603 C605 1.375 . S
N603 C606 1.313 . S
C604 C605 1.338 . S
C604 N607 1.377 . S
C604 H624 0.930 . S
C605 N603 1.375 . S
C605 C604 1.338 . S
C605 H609 0.931 . S
C606 N603 1.313 . S
C606 N607 1.344 . S
C606 H610 0.930 . S
N607 C604 1.377 . S
N607 C606 1.344 . S
O608 Co600 2.055 . S
O608 C612 1.253 . S
H609 C605 0.931 . S
H610 C606 0.930 . S
O611 Co600 2.039 . S
O611 C601 1.265 . S
C612 O608 1.253 . S
C612 O613 1.227 . S
O613 C612 1.227 . S
N614 Co600 2.140 . S
N614 C617 1.346 . S
N614 C618 1.345 . S
C615 C616 1.387 . S
C615 C619 1.391 . S
C616 C615 1.387 . S
C616 C617 1.369 . S
C616 H625 0.929 . S
C617 N614 1.346 . S
C617 C616 1.369 . S
C617 H620 0.928 . S
C618 N614 1.345 . S
C618 C619 1.371 . S
C618 H621 0.931 . S
C619 C615 1.391 . S
C619 C618 1.371 . S
C619 H626 0.930 . S
H620 C617 0.928 . S
H621 C618 0.931 . S
H622 C598 0.930 . S
H623 C595 0.930 . S
H624 C604 0.930 . S
H625 C616 0.929 . S
H626 C619 0.930 . S
C627 C628 1.351 . S
C627 N630 1.368 . S
C627 H632 0.931 . S
C628 C627 1.351 . S
C628 N629 1.373 . S
C628 H656 0.930 . S
N629 C628 1.373 . S
N629 C631 1.340 . S
N630 C627 1.368 . S
N630 C631 1.321 . S
N630 Co633 2.135 . S
C631 N629 1.340 . S
C631 N630 1.321 . S
C631 H655 0.930 . S
H632 C627 0.931 . S
Co633 N630 2.135 . S
Co633 N636 2.121 . S
Co633 O641 2.020 1_455 S
Co633 O644 2.039 . S
Co633 N647 2.140 . S
C634 O635 1.227 . S
C634 O644 1.265 . S
O635 C634 1.227 . S
N636 Co633 2.121 . S
N636 C638 1.375 . S
N636 C639 1.313 . S
C637 C638 1.338 . S
C637 N640 1.377 . S
C637 H657 0.930 . S
C638 N636 1.375 . S
C638 C637 1.338 . S
C638 H642 0.931 . S
C639 N636 1.313 . S
C639 N640 1.344 . S
C639 H643 0.924 1_455 S
N640 C637 1.377 . S
N640 C639 1.344 . S
O641 Co633 2.020 1_655 S
O641 C645 1.257 . S
H642 C638 0.931 . S
H643 C639 0.924 1_655 S
O644 Co633 2.039 . S
O644 C634 1.265 . S
C645 O641 1.257 . S
C645 O646 1.227 1_655 S
O646 C645 1.227 1_455 S
N647 Co633 2.140 . S
N647 C650 1.346 . S
N647 C651 1.345 . S
C648 C649 1.387 . S
C648 C652 1.391 . S
C649 C648 1.387 . S
C649 C650 1.369 . S
C649 H658 0.929 . S
C650 N647 1.346 . S
C650 C649 1.369 . S
C650 H653 0.928 . S
C651 N647 1.345 . S
C651 C652 1.371 . S
C651 H654 0.931 . S
C652 C648 1.391 . S
C652 C651 1.371 . S
C652 H659 0.930 . S
H653 C650 0.928 . S
H654 C651 0.931 . S
H655 C631 0.930 . S
H656 C628 0.930 . S
H657 C637 0.930 . S
H658 C649 0.929 . S
H659 C652 0.930 . S
C660 C661 1.351 . S
C660 N663 1.368 . S
C660 H665 0.931 . S
C661 C660 1.351 . S
C661 N662 1.373 . S
C661 H689 0.930 . S
N662 C661 1.373 . S
N662 C664 1.340 . S
N663 C660 1.368 . S
N663 C664 1.321 . S
N663 Co666 2.135 . S
C664 N662 1.340 . S
C664 N663 1.321 . S
C664 H688 0.930 . S
H665 C660 0.931 . S
Co666 N663 2.135 . S
Co666 N669 2.121 . S
Co666 O674 2.055 . S
Co666 O677 2.039 . S
Co666 N680 2.140 . S
C667 O668 1.227 . S
C667 O677 1.265 . S
O668 C667 1.227 . S
N669 Co666 2.121 . S
N669 C671 1.375 . S
N669 C672 1.313 . S
C670 C671 1.338 . S
C670 N673 1.377 . S
C670 H690 0.930 . S
C671 N669 1.375 . S
C671 C670 1.338 . S
C671 H675 0.931 . S
C672 N669 1.313 . S
C672 N673 1.344 . S
C672 H676 0.930 . S
N673 C670 1.377 . S
N673 C672 1.344 . S
O674 Co666 2.055 . S
O674 C678 1.253 . S
H675 C671 0.931 . S
H676 C672 0.930 . S
O677 Co666 2.039 . S
O677 C667 1.265 . S
C678 O674 1.253 . S
C678 O679 1.227 . S
O679 C678 1.227 . S
N680 Co666 2.140 . S
N680 C683 1.346 . S
N680 C684 1.345 . S
C681 C682 1.387 . S
C681 C685 1.391 . S
C682 C681 1.387 . S
C682 C683 1.369 . S
C682 H691 0.929 . S
C683 N680 1.346 . S
C683 C682 1.369 . S
C683 H686 0.928 . S
C684 N680 1.345 . S
C684 C685 1.371 . S
C684 H687 0.931 . S
C685 C681 1.391 . S
C685 C684 1.371 . S
C685 H692 0.930 . S
H686 C683 0.928 . S
H687 C684 0.931 . S
H688 C664 0.930 . S
H689 C661 0.930 . S
H690 C670 0.930 . S
H691 C682 0.929 . S
H692 C685 0.930 . S
C693 C694 1.351 . S
C693 N696 1.368 . S
C693 H698 0.931 . S
C694 C693 1.351 . S
C694 N695 1.373 . S
C694 H722 0.930 . S
N695 C694 1.373 . S
N695 C697 1.340 . S
N696 C693 1.368 . S
N696 C697 1.321 . S
N696 Co699 2.135 . S
C697 N695 1.340 . S
C697 N696 1.321 . S
C697 H721 0.930 . S
H698 C693 0.931 . S
Co699 N696 2.135 . S
Co699 N702 2.121 . S
Co699 O707 2.055 . S
Co699 O710 2.039 . S
Co699 N713 2.140 . S
C700 O701 1.227 . S
C700 O710 1.265 . S
O701 C700 1.227 . S
N702 Co699 2.121 . S
N702 C704 1.375 . S
N702 C705 1.313 . S
C703 C704 1.338 . S
C703 N706 1.377 . S
C703 H723 0.930 . S
C704 N702 1.375 . S
C704 C703 1.338 . S
C704 H708 0.931 . S
C705 N702 1.313 . S
C705 N706 1.344 . S
C705 H709 0.930 . S
N706 C703 1.377 . S
N706 C705 1.344 . S
O707 Co699 2.055 . S
O707 C711 1.253 . S
H708 C704 0.931 . S
H709 C705 0.930 . S
O710 Co699 2.039 . S
O710 C700 1.265 . S
C711 O707 1.253 . S
C711 O712 1.227 . S
O712 C711 1.227 . S
N713 Co699 2.140 . S
N713 C716 1.346 . S
N713 C717 1.345 . S
C714 C715 1.387 . S
C714 C718 1.391 . S
C715 C714 1.387 . S
C715 C716 1.369 . S
C715 H724 0.929 . S
C716 N713 1.346 . S
C716 C715 1.369 . S
C716 H719 0.928 . S
C717 N713 1.345 . S
C717 C718 1.371 . S
C717 H720 0.931 . S
C718 C714 1.391 . S
C718 C717 1.371 . S
C718 H725 0.930 . S
H719 C716 0.928 . S
H720 C717 0.931 . S
H721 C697 0.930 . S
H722 C694 0.930 . S
H723 C703 0.930 . S
H724 C715 0.929 . S
H725 C718 0.930 . S
C726 C727 1.351 . S
C726 N729 1.326 1_455 S
C726 H731 0.931 . S
C727 C726 1.351 . S
C727 N728 1.373 . S
C727 H755 0.930 . S
N728 C727 1.373 . S
N728 C730 1.340 1_455 S
N729 C726 1.326 1_655 S
N729 C730 1.323 . S
N729 Co732 2.167 . S
C730 N728 1.340 1_655 S
C730 N729 1.323 . S
C730 H754 0.930 . S
H731 C726 0.931 . S
Co732 N729 2.167 . S
Co732 N735 2.121 . S
Co732 O740 2.055 . S
Co732 O743 2.039 . S
Co732 N746 2.140 . S
C733 O734 1.227 . S
C733 O743 1.265 . S
O734 C733 1.227 . S
N735 Co732 2.121 . S
N735 C737 1.375 . S
N735 C738 1.313 . S
C736 C737 1.338 . S
C736 N739 1.377 . S
C736 H756 0.930 . S
C737 N735 1.375 . S
C737 C736 1.338 . S
C737 H741 0.931 . S
C738 N735 1.313 . S
C738 N739 1.344 . S
C738 H742 0.930 . S
N739 C736 1.377 . S
N739 C738 1.344 . S
O740 Co732 2.055 . S
O740 C744 1.253 . S
H741 C737 0.931 . S
H742 C738 0.930 . S
O743 Co732 2.039 . S
O743 C733 1.265 . S
C744 O740 1.253 . S
C744 O745 1.218 1_655 S
O745 C744 1.218 1_455 S
N746 Co732 2.140 . S
N746 C749 1.346 . S
N746 C750 1.345 . S
C747 C748 1.387 . S
C747 C751 1.391 . S
C748 C747 1.387 . S
C748 C749 1.369 . S
C748 H757 0.929 . S
C749 N746 1.346 . S
C749 C748 1.369 . S
C749 H752 0.928 . S
C750 N746 1.345 . S
C750 C751 1.371 . S
C750 H753 0.931 . S
C751 C747 1.391 . S
C751 C750 1.371 . S
C751 H758 0.930 . S
H752 C749 0.928 . S
H753 C750 0.931 . S
H754 C730 0.930 . S
H755 C727 0.930 . S
H756 C736 0.930 . S
H757 C748 0.929 . S
H758 C751 0.930 . S
C759 C760 1.351 . S
C759 N762 1.368 . S
C759 H764 0.931 . S
C760 C759 1.351 . S
C760 N761 1.373 . S
C760 H788 0.930 . S
N761 C760 1.373 . S
N761 C763 1.340 . S
N762 C759 1.368 . S
N762 C763 1.321 . S
N762 Co765 2.135 . S
C763 N761 1.340 . S
C763 N762 1.321 . S
C763 H787 0.930 . S
H764 C759 0.931 . S
Co765 N762 2.135 . S
Co765 N768 2.121 . S
Co765 O773 2.055 . S
Co765 O776 2.039 . S
Co765 N779 2.140 . S
C766 O767 1.227 . S
C766 O776 1.265 . S
O767 C766 1.227 . S
N768 Co765 2.121 . S
N768 C770 1.375 . S
N768 C771 1.313 . S
C769 C770 1.338 . S
C769 N772 1.377 . S
C769 H789 0.930 . S
C770 N768 1.375 . S
C770 C769 1.338 . S
C770 H774 0.931 . S
C771 N768 1.313 . S
C771 N772 1.344 . S
C771 H775 0.930 . S
N772 C769 1.377 . S
N772 C771 1.344 . S
O773 Co765 2.055 . S
O773 C777 1.253 . S
H774 C770 0.931 . S
H775 C771 0.930 . S
O776 Co765 2.039 . S
O776 C766 1.265 . S
C777 O773 1.253 . S
C777 O778 1.227 . S
O778 C777 1.227 . S
N779 Co765 2.140 . S
N779 C782 1.346 . S
N779 C783 1.345 . S
C780 C781 1.387 . S
C780 C784 1.391 . S
C781 C780 1.387 . S
C781 C782 1.369 . S
C781 H790 0.929 . S
C782 N779 1.346 . S
C782 C781 1.369 . S
C782 H785 0.928 . S
C783 N779 1.345 . S
C783 C784 1.371 . S
C783 H786 0.931 . S
C784 C780 1.391 . S
C784 C783 1.371 . S
C784 H791 0.930 . S
H785 C782 0.928 . S
H786 C783 0.931 . S
H787 C763 0.930 . S
H788 C760 0.930 . S
H789 C769 0.930 . S
H790 C781 0.929 . S
H791 C784 0.930 . S
C792 C793 1.349 . S
C792 C794 1.327 . S
C792 H817 0.950 . S
C793 C792 1.349 . S
C793 C809 1.349 . S
C794 C792 1.327 . S
C794 C813 1.429 . S
C794 H818 0.950 . S
C795 C812 1.574 . S
C795 C814 1.368 . S
C795 H819 0.949 . S
H796 C800 0.949 . S
C797 C798 1.349 . S
C797 C799 1.327 . S
C797 H820 0.950 . S
C798 C797 1.349 . S
C798 C810 1.349 . S
C799 C797 1.327 . S
C799 C815 1.429 . S
C799 H821 0.950 . S
C800 H796 0.949 . S
C800 C808 1.574 . S
C800 C816 1.368 . S
H801 C809 0.950 . S
H802 C807 0.950 . S
H803 C808 0.949 . S
H804 C810 0.950 . S
H805 C811 0.950 . S
H806 C812 0.949 . S
C807 H802 0.950 . S
C807 C809 1.327 . S
C807 C813 1.429 . S
C808 C800 1.574 . S
C808 H803 0.949 . S
C808 C814 1.368 . S
C809 C793 1.349 . S
C809 H801 0.950 . S
C809 C807 1.327 . S
C810 C798 1.349 . S
C810 H804 0.950 . S
C810 C811 1.327 . S
C811 H805 0.950 . S
C811 C810 1.327 . S
C811 C815 1.429 . S
C812 C795 1.574 . S
C812 H806 0.949 . S
C812 C816 1.368 . S
C813 C794 1.429 . S
C813 C807 1.429 . S
C813 C814 1.523 . S
C814 C795 1.368 . S
C814 C808 1.368 . S
C814 C813 1.523 . S
C815 C799 1.429 . S
C815 C811 1.429 . S
C815 C816 1.523 . S
C816 C800 1.368 . S
C816 C812 1.368 . S
C816 C815 1.523 . S
H817 C792 0.950 . S
H818 C794 0.950 . S
H819 C795 0.949 . S
H820 C797 0.950 . S
H821 C799 0.950 . S
C822 C823 1.349 . S
C822 C824 1.327 . S
C822 H847 0.950 . S
C823 C822 1.349 . S
C823 C839 1.349 1_554 S
C824 C822 1.327 . S
C824 C843 1.429 . S
C824 H848 0.950 . S
C825 C842 1.574 . S
C825 C844 1.368 1_556 S
C825 H849 0.949 . S
H826 C830 0.949 . S
C827 C828 1.315 1_556 S
C827 C829 1.327 . S
C827 H850 0.950 . S
C828 C827 1.315 1_554 S
C828 C840 1.385 . S
C829 C827 1.327 . S
C829 C845 1.429 1_556 S
C829 H851 0.950 . S
C830 H826 0.949 . S
C830 C838 1.574 . S
C830 C846 1.368 . S
H831 C839 0.950 . S
H832 C837 0.950 . S
H833 C838 0.949 . S
H834 C840 0.950 . S
H835 C841 0.950 . S
H836 C842 0.949 . S
C837 H832 0.950 . S
C837 C839 1.327 . S
C837 C843 1.429 1_556 S
C838 C830 1.574 . S
C838 H833 0.949 . S
C838 C844 1.368 . S
C839 C823 1.349 1_556 S
C839 H831 0.950 . S
C839 C837 1.327 . S
C840 C828 1.385 . S
C840 H834 0.950 . S
C840 C841 1.327 . S
C841 H835 0.950 . S
C841 C840 1.327 . S
C841 C845 1.429 . S
C842 C825 1.574 . S
C842 H836 0.949 . S
C842 C846 1.368 1_556 S
C843 C824 1.429 . S
C843 C837 1.429 1_554 S
C843 C844 1.523 . S
C844 C825 1.368 1_554 S
C844 C838 1.368 . S
C844 C843 1.523 . S
C845 C829 1.429 1_554 S
C845 C841 1.429 . S
C845 C846 1.523 . S
C846 C830 1.368 . S
C846 C842 1.368 1_554 S
C846 C845 1.523 . S
H847 C822 0.950 . S
H848 C824 0.950 . S
H849 C825 0.949 . S
H850 C827 0.950 . S
H851 C829 0.950 . S
C852 C853 1.349 . S
C852 C854 1.327 . S
C852 H877 0.950 . S
C853 C852 1.349 . S
C853 C869 1.349 . S
C854 C852 1.327 . S
C854 C873 1.429 . S
C854 H878 0.950 . S
C855 C872 1.574 . S
C855 C874 1.368 . S
C855 H879 0.949 . S
H856 C860 0.949 . S
C857 C858 1.349 . S
C857 C859 1.327 . S
C857 H880 0.950 . S
C858 C857 1.349 . S
C858 C870 1.349 . S
C859 C857 1.327 . S
C859 C875 1.429 . S
C859 H881 0.950 . S
C860 H856 0.949 . S
C860 C868 1.574 . S
C860 C876 1.368 . S
H861 C869 0.950 . S
H862 C867 0.950 . S
H863 C868 0.949 . S
H864 C870 0.950 . S
H865 C871 0.950 . S
H866 C872 0.949 . S
C867 H862 0.950 . S
C867 C869 1.327 . S
C867 C873 1.429 . S
C868 C860 1.574 . S
C868 H863 0.949 . S
C868 C874 1.368 . S
C869 C853 1.349 . S
C869 H861 0.950 . S
C869 C867 1.327 . S
C870 C858 1.349 . S
C870 H864 0.950 . S
C870 C871 1.327 . S
C871 H865 0.950 . S
C871 C870 1.327 . S
C871 C875 1.429 . S
C872 C855 1.574 . S
C872 H866 0.949 . S
C872 C876 1.368 . S
C873 C854 1.429 . S
C873 C867 1.429 . S
C873 C874 1.523 . S
C874 C855 1.368 . S
C874 C868 1.368 . S
C874 C873 1.523 . S
C875 C859 1.429 . S
C875 C871 1.429 . S
C875 C876 1.523 . S
C876 C860 1.368 . S
C876 C872 1.368 . S
C876 C875 1.523 . S
H877 C852 0.950 . S
H878 C854 0.950 . S
H879 C855 0.949 . S
H880 C857 0.950 . S
H881 C859 0.950 . S
C882 C883 1.349 . S
C882 C884 1.327 . S
C882 H907 0.950 . S
C883 C882 1.349 . S
C883 C899 1.349 . S
C884 C882 1.327 . S
C884 C903 1.429 . S
C884 H908 0.950 . S
C885 C902 1.574 . S
C885 C904 1.368 . S
C885 H909 0.949 . S
H886 C890 0.949 . S
C887 C888 1.349 . S
C887 C889 1.327 . S
C887 H910 0.950 . S
C888 C887 1.349 . S
C888 C900 1.349 . S
C889 C887 1.327 . S
C889 C905 1.429 . S
C889 H911 0.950 . S
C890 H886 0.949 . S
C890 C898 1.574 . S
C890 C906 1.368 . S
H891 C899 0.950 . S
H892 C897 0.950 . S
H893 C898 0.949 . S
H894 C900 0.950 . S
H895 C901 0.950 . S
H896 C902 0.949 . S
C897 H892 0.950 . S
C897 C899 1.327 . S
C897 C903 1.429 . S
C898 C890 1.574 . S
C898 H893 0.949 . S
C898 C904 1.368 . S
C899 C883 1.349 . S
C899 H891 0.950 . S
C899 C897 1.327 . S
C900 C888 1.349 . S
C900 H894 0.950 . S
C900 C901 1.327 . S
C901 H895 0.950 . S
C901 C900 1.327 . S
C901 C905 1.429 . S
C902 C885 1.574 . S
C902 H896 0.949 . S
C902 C906 1.368 . S
C903 C884 1.429 . S
C903 C897 1.429 . S
C903 C904 1.523 . S
C904 C885 1.368 . S
C904 C898 1.368 . S
C904 C903 1.523 . S
C905 C889 1.429 . S
C905 C901 1.429 . S
C905 C906 1.523 . S
C906 C890 1.368 . S
C906 C902 1.368 . S
C906 C905 1.523 . S
H907 C882 0.950 . S
H908 C884 0.950 . S
H909 C885 0.949 . S
H910 C887 0.950 . S
H911 C889 0.950 . S
C912 C913 1.349 . S
C912 C914 1.327 . S
C912 H937 0.950 . S
C913 C912 1.349 . S
C913 C929 1.349 . S
C914 C912 1.327 . S
C914 C933 1.429 . S
C914 H938 0.950 . S
C915 C932 1.574 . S
C915 C934 1.368 . S
C915 H939 0.949 . S
H916 C920 0.949 . S
C917 C918 1.349 . S
C917 C919 1.327 . S
C917 H940 0.950 . S
C918 C917 1.349 . S
C918 C930 1.349 . S
C919 C917 1.327 . S
C919 C935 1.429 . S
C919 H941 0.950 . S
C920 H916 0.949 . S
C920 C928 1.574 . S
C920 C936 1.368 . S
H921 C929 0.950 . S
H922 C927 0.950 . S
H923 C928 0.949 . S
H924 C930 0.950 . S
H925 C931 0.950 . S
H926 C932 0.949 . S
C927 H922 0.950 . S
C927 C929 1.327 . S
C927 C933 1.429 . S
C928 C920 1.574 . S
C928 H923 0.949 . S
C928 C934 1.368 . S
C929 C913 1.349 . S
C929 H921 0.950 . S
C929 C927 1.327 . S
C930 C918 1.349 . S
C930 H924 0.950 . S
C930 C931 1.327 . S
C931 H925 0.950 . S
C931 C930 1.327 . S
C931 C935 1.429 . S
C932 C915 1.574 . S
C932 H926 0.949 . S
C932 C936 1.368 . S
C933 C914 1.429 . S
C933 C927 1.429 . S
C933 C934 1.523 . S
C934 C915 1.368 . S
C934 C928 1.368 . S
C934 C933 1.523 . S
C935 C919 1.429 . S
C935 C931 1.429 . S
C935 C936 1.523 . S
C936 C920 1.368 . S
C936 C932 1.368 . S
C936 C935 1.523 . S
H937 C912 0.950 . S
H938 C914 0.950 . S
H939 C915 0.949 . S
H940 C917 0.950 . S
H941 C919 0.950 . S
C942 C943 1.349 . S
C942 C944 1.327 . S
C942 H967 0.950 . S
C943 C942 1.349 . S
C943 C959 1.349 . S
C944 C942 1.327 . S
C944 C963 1.429 . S
C944 H968 0.950 . S
C945 C962 1.574 . S
C945 C964 1.368 . S
C945 H969 0.949 . S
H946 C950 0.949 . S
C947 C948 1.349 . S
C947 C949 1.327 . S
C947 H970 0.950 . S
C948 C947 1.349 . S
C948 C960 1.349 . S
C949 C947 1.327 . S
C949 C965 1.429 . S
C949 H971 0.950 . S
C950 H946 0.949 . S
C950 C958 1.574 . S
C950 C966 1.368 . S
H951 C959 0.950 . S
H952 C957 0.950 . S
H953 C958 0.949 . S
H954 C960 0.950 . S
H955 C961 0.950 . S
H956 C962 0.949 . S
C957 H952 0.950 . S
C957 C959 1.327 . S
C957 C963 1.429 . S
C958 C950 1.574 . S
C958 H953 0.949 . S
C958 C964 1.368 . S
C959 C943 1.349 . S
C959 H951 0.950 . S
C959 C957 1.327 . S
C960 C948 1.349 . S
C960 H954 0.950 . S
C960 C961 1.327 . S
C961 H955 0.950 . S
C961 C960 1.327 . S
C961 C965 1.429 . S
C962 C945 1.574 . S
C962 H956 0.949 . S
C962 C966 1.368 . S
C963 C944 1.429 . S
C963 C957 1.429 . S
C963 C964 1.523 . S
C964 C945 1.368 . S
C964 C958 1.368 . S
C964 C963 1.523 . S
C965 C949 1.429 . S
C965 C961 1.429 . S
C965 C966 1.523 . S
C966 C950 1.368 . S
C966 C962 1.368 . S
C966 C965 1.523 . S
H967 C942 0.950 . S
H968 C944 0.950 . S
H969 C945 0.949 . S
H970 C947 0.950 . S
H971 C949 0.950 . S
C972 C973 1.329 1_655 S
C972 C974 1.327 . S
C972 H997 0.950 . S
C973 C972 1.329 1_455 S
C973 C989 1.372 . S
C974 C972 1.327 . S
C974 C993 1.429 1_655 S
C974 H998 0.950 . S
C975 C992 1.574 . S
C975 C994 1.368 . S
C975 H999 0.949 . S
H976 C980 0.949 . S
C977 C978 1.349 . S
C977 C979 1.327 . S
C977 H1000 0.950 . S
C978 C977 1.349 . S
C978 C990 1.349 1_455 S
C979 C977 1.327 . S
C979 C995 1.429 . S
C979 H1001 0.950 . S
C980 H976 0.949 . S
C980 C988 1.574 . S
C980 C996 1.368 1_655 S
H981 C989 0.950 . S
H982 C987 0.950 . S
H983 C988 0.949 . S
H984 C990 0.950 . S
H985 C991 0.950 . S
H986 C992 0.949 . S
C987 H982 0.950 . S
C987 C989 1.327 . S
C987 C993 1.429 . S
C988 C980 1.574 . S
C988 H983 0.949 . S
C988 C994 1.368 1_655 S
C989 C973 1.372 . S
C989 H981 0.950 . S
C989 C987 1.327 . S
C990 C978 1.349 1_655 S
C990 H984 0.950 . S
C990 C991 1.327 . S
C991 H985 0.950 . S
C991 C990 1.327 . S
C991 C995 1.429 1_655 S
C992 C975 1.574 . S
C992 H986 0.949 . S
C992 C996 1.368 . S
C993 C974 1.429 1_455 S
C993 C987 1.429 . S
C993 C994 1.523 . S
C994 C975 1.368 . S
C994 C988 1.368 1_455 S
C994 C993 1.523 . S
C995 C979 1.429 . S
C995 C991 1.429 1_455 S
C995 C996 1.523 . S
C996 C980 1.368 1_455 S
C996 C992 1.368 . S
C996 C995 1.523 . S
H997 C972 0.950 . S
H998 C974 0.950 . S
H999 C975 0.949 . S
H1000 C977 0.950 . S
H1001 C979 0.950 . S
C1002 C1003 1.349 . S
C1002 C1004 1.327 . S
C1002 H1027 0.950 . S
C1003 C1002 1.349 . S
C1003 C1019 1.349 . S
C1004 C1002 1.327 . S
C1004 C1023 1.429 . S
C1004 H1028 0.950 . S
C1005 C1022 1.574 . S
C1005 C1024 1.368 . S
C1005 H1029 0.949 . S
H1006 C1010 0.949 . S
C1007 C1008 1.349 . S
C1007 C1009 1.327 . S
C1007 H1030 0.950 . S
C1008 C1007 1.349 . S
C1008 C1020 1.349 . S
C1009 C1007 1.327 . S
C1009 C1025 1.429 . S
C1009 H1031 0.950 . S
C1010 H1006 0.949 . S
C1010 C1018 1.574 . S
C1010 C1026 1.368 . S
H1011 C1019 0.950 . S
H1012 C1017 0.950 . S
H1013 C1018 0.949 . S
H1014 C1020 0.950 . S
H1015 C1021 0.950 . S
H1016 C1022 0.949 . S
C1017 H1012 0.950 . S
C1017 C1019 1.327 . S
C1017 C1023 1.429 . S
C1018 C1010 1.574 . S
C1018 H1013 0.949 . S
C1018 C1024 1.368 . S
C1019 C1003 1.349 . S
C1019 H1011 0.950 . S
C1019 C1017 1.327 . S
C1020 C1008 1.349 . S
C1020 H1014 0.950 . S
C1020 C1021 1.327 . S
C1021 H1015 0.950 . S
C1021 C1020 1.327 . S
C1021 C1025 1.429 . S
C1022 C1005 1.574 . S
C1022 H1016 0.949 . S
C1022 C1026 1.368 . S
C1023 C1004 1.429 . S
C1023 C1017 1.429 . S
C1023 C1024 1.523 . S
C1024 C1005 1.368 . S
C1024 C1018 1.368 . S
C1024 C1023 1.523 . S
C1025 C1009 1.429 . S
C1025 C1021 1.429 . S
C1025 C1026 1.523 . S
C1026 C1010 1.368 . S
C1026 C1022 1.368 . S
C1026 C1025 1.523 . S
H1027 C1002 0.950 . S
H1028 C1004 0.950 . S
H1029 C1005 0.949 . S
H1030 C1007 0.950 . S
H1031 C1009 0.950 . S
C1032 C1033 1.349 . S
C1032 C1034 1.327 . S
C1032 H1057 0.950 . S
C1033 C1032 1.349 . S
C1033 C1049 1.349 . S
C1034 C1032 1.327 . S
C1034 C1053 1.429 . S
C1034 H1058 0.950 . S
C1035 C1052 1.574 . S
C1035 C1054 1.368 . S
C1035 H1059 0.949 . S
H1036 C1040 0.949 . S
C1037 C1038 1.349 . S
C1037 C1039 1.327 . S
C1037 H1060 0.950 . S
C1038 C1037 1.349 . S
C1038 C1050 1.349 . S
C1039 C1037 1.327 . S
C1039 C1055 1.429 . S
C1039 H1061 0.950 . S
C1040 H1036 0.949 . S
C1040 C1048 1.574 . S
C1040 C1056 1.368 . S
H1041 C1049 0.950 . S
H1042 C1047 0.950 . S
H1043 C1048 0.949 . S
H1044 C1050 0.950 . S
H1045 C1051 0.950 . S
H1046 C1052 0.949 . S
C1047 H1042 0.950 . S
C1047 C1049 1.327 . S
C1047 C1053 1.429 . S
C1048 C1040 1.574 . S
C1048 H1043 0.949 . S
C1048 C1054 1.368 . S
C1049 C1033 1.349 . S
C1049 H1041 0.950 . S
C1049 C1047 1.327 . S
C1050 C1038 1.349 . S
C1050 H1044 0.950 . S
C1050 C1051 1.327 . S
C1051 H1045 0.950 . S
C1051 C1050 1.327 . S
C1051 C1055 1.429 . S
C1052 C1035 1.574 . S
C1052 H1046 0.949 . S
C1052 C1056 1.368 . S
C1053 C1034 1.429 . S
C1053 C1047 1.429 . S
C1053 C1054 1.523 . S
C1054 C1035 1.368 . S
C1054 C1048 1.368 . S
C1054 C1053 1.523 . S
C1055 C1039 1.429 . S
C1055 C1051 1.429 . S
C1055 C1056 1.523 . S
C1056 C1040 1.368 . S
C1056 C1052 1.368 . S
C1056 C1055 1.523 . S
H1057 C1032 0.950 . S
H1058 C1034 0.950 . S
H1059 C1035 0.949 . S
H1060 C1037 0.950 . S
H1061 C1039 0.950 . S
C1062 C1063 1.349 . S
C1062 C1064 1.327 . S
C1062 H1087 0.950 . S
C1063 C1062 1.349 . S
C1063 C1079 1.349 . S
C1064 C1062 1.327 . S
C1064 C1083 1.429 . S
C1064 H1088 0.950 . S
C1065 C1082 1.574 . S
C1065 C1084 1.368 . S
C1065 H1089 0.949 . S
H1066 C1070 0.949 . S
C1067 C1068 1.349 . S
C1067 C1069 1.327 . S
C1067 H1090 0.950 . S
C1068 C1067 1.349 . S
C1068 C1080 1.349 . S
C1069 C1067 1.327 . S
C1069 C1085 1.429 . S
C1069 H1091 0.950 . S
C1070 H1066 0.949 . S
C1070 C1078 1.574 . S
C1070 C1086 1.368 . S
H1071 C1079 0.950 . S
H1072 C1077 0.950 . S
H1073 C1078 0.949 . S
H1074 C1080 0.950 . S
H1075 C1081 0.950 . S
H1076 C1082 0.949 . S
C1077 H1072 0.950 . S
C1077 C1079 1.327 . S
C1077 C1083 1.429 . S
C1078 C1070 1.574 . S
C1078 H1073 0.949 . S
C1078 C1084 1.368 . S
C1079 C1063 1.349 . S
C1079 H1071 0.950 . S
C1079 C1077 1.327 . S
C1080 C1068 1.349 . S
C1080 H1074 0.950 . S
C1080 C1081 1.327 . S
C1081 H1075 0.950 . S
C1081 C1080 1.327 . S
C1081 C1085 1.429 . S
C1082 C1065 1.574 . S
C1082 H1076 0.949 . S
C1082 C1086 1.368 . S
C1083 C1064 1.429 . S
C1083 C1077 1.429 . S
C1083 C1084 1.523 . S
C1084 C1065 1.368 . S
C1084 C1078 1.368 . S
C1084 C1083 1.523 . S
C1085 C1069 1.429 . S
C1085 C1081 1.429 . S
C1085 C1086 1.523 . S
C1086 C1070 1.368 . S
C1086 C1082 1.368 . S
C1086 C1085 1.523 . S
H1087 C1062 0.950 . S
H1088 C1064 0.950 . S
H1089 C1065 0.949 . S
H1090 C1067 0.950 . S
H1091 C1069 0.950 . S
C1092 C1093 1.349 1_565 S
C1092 C1094 1.327 . S
C1092 H1117 0.950 . S
C1093 C1092 1.349 1_545 S
C1093 C1109 1.349 . S
C1094 C1092 1.327 . S
C1094 C1113 1.429 1_565 S
C1094 H1118 0.950 . S
C1095 C1112 1.574 . S
C1095 C1114 1.368 . S
C1095 H1119 0.949 . S
H1096 C1100 0.949 . S
C1097 C1098 1.381 . S
C1097 C1099 1.327 . S
C1097 H1120 0.950 . S
C1098 C1097 1.381 . S
C1098 C1110 1.320 1_545 S
C1099 C1097 1.327 . S
C1099 C1115 1.429 . S
C1099 H1121 0.950 . S
C1100 H1096 0.949 . S
C1100 C1108 1.574 . S
C1100 C1116 1.368 1_565 S
H1101 C1109 0.950 . S
H1102 C1107 0.950 . S
H1103 C1108 0.949 . S
H1104 C1110 0.950 . S
H1105 C1111 0.950 . S
H1106 C1112 0.949 . S
C1107 H1102 0.950 . S
C1107 C1109 1.327 . S
C1107 C1113 1.429 . S
C1108 C1100 1.574 . S
C1108 H1103 0.949 . S
C1108 C1114 1.368 1_565 S
C1109 C1093 1.349 . S
C1109 H1101 0.950 . S
C1109 C1107 1.327 . S
C1110 C1098 1.320 1_565 S
C1110 H1104 0.950 . S
C1110 C1111 1.327 . S
C1111 H1105 0.950 . S
C1111 C1110 1.327 . S
C1111 C1115 1.429 1_565 S
C1112 C1095 1.574 . S
C1112 H1106 0.949 . S
C1112 C1116 1.368 . S
C1113 C1094 1.429 1_545 S
C1113 C1107 1.429 . S
C1113 C1114 1.523 . S
C1114 C1095 1.368 . S
C1114 C1108 1.368 1_545 S
C1114 C1113 1.523 . S
C1115 C1099 1.429 . S
C1115 C1111 1.429 1_545 S
C1115 C1116 1.523 . S
C1116 C1100 1.368 1_545 S
C1116 C1112 1.368 . S
C1116 C1115 1.523 . S
H1117 C1092 0.950 . S
H1118 C1094 0.950 . S
H1119 C1095 0.949 . S
H1120 C1097 0.950 . S
H1121 C1099 0.950 . S
C1122 C1123 1.349 . S
C1122 C1124 1.327 . S
C1122 H1147 0.950 . S
C1123 C1122 1.349 . S
C1123 C1139 1.349 . S
C1124 C1122 1.327 . S
C1124 C1143 1.429 . S
C1124 H1148 0.950 . S
C1125 C1142 1.574 . S
C1125 C1144 1.368 . S
C1125 H1149 0.949 . S
H1126 C1130 0.949 . S
C1127 C1128 1.349 . S
C1127 C1129 1.327 . S
C1127 H1150 0.950 . S
C1128 C1127 1.349 . S
C1128 C1140 1.349 . S
C1129 C1127 1.327 . S
C1129 C1145 1.429 . S
C1129 H1151 0.950 . S
C1130 H1126 0.949 . S
C1130 C1138 1.574 . S
C1130 C1146 1.368 . S
H1131 C1139 0.950 . S
H1132 C1137 0.950 . S
H1133 C1138 0.949 . S
H1134 C1140 0.950 . S
H1135 C1141 0.950 . S
H1136 C1142 0.949 . S
C1137 H1132 0.950 . S
C1137 C1139 1.327 . S
C1137 C1143 1.429 . S
C1138 C1130 1.574 . S
C1138 H1133 0.949 . S
C1138 C1144 1.368 . S
C1139 C1123 1.349 . S
C1139 H1131 0.950 . S
C1139 C1137 1.327 . S
C1140 C1128 1.349 . S
C1140 H1134 0.950 . S
C1140 C1141 1.327 . S
C1141 H1135 0.950 . S
C1141 C1140 1.327 . S
C1141 C1145 1.429 . S
C1142 C1125 1.574 . S
C1142 H1136 0.949 . S
C1142 C1146 1.368 . S
C1143 C1124 1.429 . S
C1143 C1137 1.429 . S
C1143 C1144 1.523 . S
C1144 C1125 1.368 . S
C1144 C1138 1.368 . S
C1144 C1143 1.523 . S
C1145 C1129 1.429 . S
C1145 C1141 1.429 . S
C1145 C1146 1.523 . S
C1146 C1130 1.368 . S
C1146 C1142 1.368 . S
C1146 C1145 1.523 . S
H1147 C1122 0.950 . S
H1148 C1124 0.950 . S
H1149 C1125 0.949 . S
H1150 C1127 0.950 . S
H1151 C1129 0.950 . S
C1152 C1153 1.349 . S
C1152 C1154 1.327 . S
C1152 H1177 0.950 . S
C1153 C1152 1.349 . S
C1153 C1169 1.349 . S
C1154 C1152 1.327 . S
C1154 C1173 1.429 . S
C1154 H1178 0.950 . S
C1155 C1172 1.574 . S
C1155 C1174 1.368 . S
C1155 H1179 0.949 . S
H1156 C1160 0.949 . S
C1157 C1158 1.349 . S
C1157 C1159 1.327 . S
C1157 H1180 0.950 . S
C1158 C1157 1.349 . S
C1158 C1170 1.349 . S
C1159 C1157 1.327 . S
C1159 C1175 1.429 . S
C1159 H1181 0.950 . S
C1160 H1156 0.949 . S
C1160 C1168 1.574 . S
C1160 C1176 1.368 . S
H1161 C1169 0.950 . S
H1162 C1167 0.950 . S
H1163 C1168 0.949 . S
H1164 C1170 0.950 . S
H1165 C1171 0.950 . S
H1166 C1172 0.949 . S
C1167 H1162 0.950 . S
C1167 C1169 1.327 . S
C1167 C1173 1.429 . S
C1168 C1160 1.574 . S
C1168 H1163 0.949 . S
C1168 C1174 1.368 . S
C1169 C1153 1.349 . S
C1169 H1161 0.950 . S
C1169 C1167 1.327 . S
C1170 C1158 1.349 . S
C1170 H1164 0.950 . S
C1170 C1171 1.327 . S
C1171 H1165 0.950 . S
C1171 C1170 1.327 . S
C1171 C1175 1.429 . S
C1172 C1155 1.574 . S
C1172 H1166 0.949 . S
C1172 C1176 1.368 . S
C1173 C1154 1.429 . S
C1173 C1167 1.429 . S
C1173 C1174 1.523 . S
C1174 C1155 1.368 . S
C1174 C1168 1.368 . S
C1174 C1173 1.523 . S
C1175 C1159 1.429 . S
C1175 C1171 1.429 . S
C1175 C1176 1.523 . S
C1176 C1160 1.368 . S
C1176 C1172 1.368 . S
C1176 C1175 1.523 . S
H1177 C1152 0.950 . S
H1178 C1154 0.950 . S
H1179 C1155 0.949 . S
H1180 C1157 0.950 . S
H1181 C1159 0.950 . S
C1182 C1183 1.349 . S
C1182 C1184 1.327 . S
C1182 H1207 0.950 . S
C1183 C1182 1.349 . S
C1183 C1199 1.349 . S
C1184 C1182 1.327 . S
C1184 C1203 1.429 . S
C1184 H1208 0.950 . S
C1185 C1202 1.574 . S
C1185 C1204 1.368 . S
C1185 H1209 0.949 . S
H1186 C1190 0.949 . S
C1187 C1188 1.349 . S
C1187 C1189 1.327 . S
C1187 H1210 0.950 . S
C1188 C1187 1.349 . S
C1188 C1200 1.349 . S
C1189 C1187 1.327 . S
C1189 C1205 1.429 . S
C1189 H1211 0.950 . S
C1190 H1186 0.949 . S
C1190 C1198 1.574 . S
C1190 C1206 1.368 . S
H1191 C1199 0.950 . S
H1192 C1197 0.950 . S
H1193 C1198 0.949 . S
H1194 C1200 0.950 . S
H1195 C1201 0.950 . S
H1196 C1202 0.949 . S
C1197 H1192 0.950 . S
C1197 C1199 1.327 . S
C1197 C1203 1.429 . S
C1198 C1190 1.574 . S
C1198 H1193 0.949 . S
C1198 C1204 1.368 . S
C1199 C1183 1.349 . S
C1199 H1191 0.950 . S
C1199 C1197 1.327 . S
C1200 C1188 1.349 . S
C1200 H1194 0.950 . S
C1200 C1201 1.327 . S
C1201 H1195 0.950 . S
C1201 C1200 1.327 . S
C1201 C1205 1.429 . S
C1202 C1185 1.574 . S
C1202 H1196 0.949 . S
C1202 C1206 1.368 . S
C1203 C1184 1.429 . S
C1203 C1197 1.429 . S
C1203 C1204 1.523 . S
C1204 C1185 1.368 . S
C1204 C1198 1.368 . S
C1204 C1203 1.523 . S
C1205 C1189 1.429 . S
C1205 C1201 1.429 . S
C1205 C1206 1.523 . S
C1206 C1190 1.368 . S
C1206 C1202 1.368 . S
C1206 C1205 1.523 . S
H1207 C1182 0.950 . S
H1208 C1184 0.950 . S
H1209 C1185 0.949 . S
H1210 C1187 0.950 . S
H1211 C1189 0.950 . S
C1212 C1213 1.349 . S
C1212 C1214 1.327 . S
C1212 H1237 0.950 . S
C1213 C1212 1.349 . S
C1213 C1229 1.349 . S
C1214 C1212 1.327 . S
C1214 C1233 1.429 . S
C1214 H1238 0.950 . S
C1215 C1232 1.574 . S
C1215 C1234 1.368 . S
C1215 H1239 0.949 . S
H1216 C1220 0.949 . S
C1217 C1218 1.349 1_565 S
C1217 C1219 1.327 . S
C1217 H1240 0.950 . S
C1218 C1217 1.349 1_545 S
C1218 C1230 1.345 1_545 S
C1219 C1217 1.327 . S
C1219 C1235 1.429 . S
C1219 H1241 0.950 . S
C1220 H1216 0.949 . S
C1220 C1228 1.574 . S
C1220 C1236 1.368 . S
H1221 C1229 0.950 . S
H1222 C1227 0.950 . S
H1223 C1228 0.949 . S
H1224 C1230 0.926 1_545 S
H1225 C1231 0.950 . S
H1226 C1232 0.949 . S
C1227 H1222 0.950 . S
C1227 C1229 1.327 . S
C1227 C1233 1.429 . S
C1228 C1220 1.574 . S
C1228 H1223 0.949 . S
C1228 C1234 1.368 . S
C1229 C1213 1.349 . S
C1229 H1221 0.950 . S
C1229 C1227 1.327 . S
C1230 C1218 1.345 1_565 S
C1230 H1224 0.926 1_565 S
C1230 C1231 1.356 . S
C1231 H1225 0.950 . S
C1231 C1230 1.356 . S
C1231 C1235 1.429 . S
C1232 C1215 1.574 . S
C1232 H1226 0.949 . S
C1232 C1236 1.368 . S
C1233 C1214 1.429 . S
C1233 C1227 1.429 . S
C1233 C1234 1.523 . S
C1234 C1215 1.368 . S
C1234 C1228 1.368 . S
C1234 C1233 1.523 . S
C1235 C1219 1.429 . S
C1235 C1231 1.429 . S
C1235 C1236 1.523 . S
C1236 C1220 1.368 . S
C1236 C1232 1.368 . S
C1236 C1235 1.523 . S
H1237 C1212 0.950 . S
H1238 C1214 0.950 . S
H1239 C1215 0.949 . S
H1240 C1217 0.950 . S
H1241 C1219 0.950 . S
C1242 C1243 1.349 . S
C1242 C1244 1.327 . S
C1242 H1267 0.950 . S
C1243 C1242 1.349 . S
C1243 C1259 1.349 . S
C1244 C1242 1.327 . S
C1244 C1263 1.429 . S
C1244 H1268 0.950 . S
C1245 C1262 1.574 . S
C1245 C1264 1.368 . S
C1245 H1269 0.949 . S
H1246 C1250 0.949 . S
C1247 C1248 1.349 . S
C1247 C1249 1.327 . S
C1247 H1270 0.950 . S
C1248 C1247 1.349 . S
C1248 C1260 1.349 . S
C1249 C1247 1.327 . S
C1249 C1265 1.429 . S
C1249 H1271 0.950 . S
C1250 H1246 0.949 . S
C1250 C1258 1.574 . S
C1250 C1266 1.368 . S
H1251 C1259 0.950 . S
H1252 C1257 0.950 . S
H1253 C1258 0.949 . S
H1254 C1260 0.950 . S
H1255 C1261 0.950 . S
H1256 C1262 0.949 . S
C1257 H1252 0.950 . S
C1257 C1259 1.327 . S
C1257 C1263 1.429 . S
C1258 C1250 1.574 . S
C1258 H1253 0.949 . S
C1258 C1264 1.368 . S
C1259 C1243 1.349 . S
C1259 H1251 0.950 . S
C1259 C1257 1.327 . S
C1260 C1248 1.349 . S
C1260 H1254 0.950 . S
C1260 C1261 1.327 . S
C1261 H1255 0.950 . S
C1261 C1260 1.327 . S
C1261 C1265 1.429 . S
C1262 C1245 1.574 . S
C1262 H1256 0.949 . S
C1262 C1266 1.368 . S
C1263 C1244 1.429 . S
C1263 C1257 1.429 . S
C1263 C1264 1.523 . S
C1264 C1245 1.368 . S
C1264 C1258 1.368 . S
C1264 C1263 1.523 . S
C1265 C1249 1.429 . S
C1265 C1261 1.429 . S
C1265 C1266 1.523 . S
C1266 C1250 1.368 . S
C1266 C1262 1.368 . S
C1266 C1265 1.523 . S
H1267 C1242 0.950 . S
H1268 C1244 0.950 . S
H1269 C1245 0.949 . S
H1270 C1247 0.950 . S
H1271 C1249 0.950 . S
C1272 C1273 1.349 . S
C1272 C1274 1.327 . S
C1272 H1297 0.950 . S
C1273 C1272 1.349 . S
C1273 C1289 1.349 . S
C1274 C1272 1.327 . S
C1274 C1293 1.429 . S
C1274 H1298 0.950 . S
C1275 C1292 1.574 . S
C1275 C1294 1.368 . S
C1275 H1299 0.949 . S
H1276 C1280 0.949 . S
C1277 C1278 1.349 . S
C1277 C1279 1.327 . S
C1277 H1300 0.950 . S
C1278 C1277 1.349 . S
C1278 C1290 1.349 . S
C1279 C1277 1.327 . S
C1279 C1295 1.429 . S
C1279 H1301 0.950 . S
C1280 H1276 0.949 . S
C1280 C1288 1.574 . S
C1280 C1296 1.368 . S
H1281 C1289 0.950 . S
H1282 C1287 0.950 . S
H1283 C1288 0.949 . S
H1284 C1290 0.950 . S
H1285 C1291 0.950 . S
H1286 C1292 0.949 . S
C1287 H1282 0.950 . S
C1287 C1289 1.327 . S
C1287 C1293 1.429 . S
C1288 C1280 1.574 . S
C1288 H1283 0.949 . S
C1288 C1294 1.368 . S
C1289 C1273 1.349 . S
C1289 H1281 0.950 . S
C1289 C1287 1.327 . S
C1290 C1278 1.349 . S
C1290 H1284 0.950 . S
C1290 C1291 1.327 . S
C1291 H1285 0.950 . S
C1291 C1290 1.327 . S
C1291 C1295 1.429 . S
C1292 C1275 1.574 . S
C1292 H1286 0.949 . S
C1292 C1296 1.368 . S
C1293 C1274 1.429 . S
C1293 C1287 1.429 . S
C1293 C1294 1.523 . S
C1294 C1275 1.368 . S
C1294 C1288 1.368 . S
C1294 C1293 1.523 . S
C1295 C1279 1.429 . S
C1295 C1291 1.429 . S
C1295 C1296 1.523 . S
C1296 C1280 1.368 . S
C1296 C1292 1.368 . S
C1296 C1295 1.523 . S
H1297 C1272 0.950 . S
H1298 C1274 0.950 . S
H1299 C1275 0.949 . S
H1300 C1277 0.950 . S
H1301 C1279 0.950 . S
C1302 C1303 1.349 . S
C1302 C1304 1.327 . S
C1302 H1327 0.950 . S
C1303 C1302 1.349 . S
C1303 C1319 1.349 . S
C1304 C1302 1.327 . S
C1304 C1323 1.429 . S
C1304 H1328 0.950 . S
C1305 C1322 1.574 . S
C1305 C1324 1.368 . S
C1305 H1329 0.949 . S
H1306 C1310 0.949 . S
C1307 C1308 1.349 . S
C1307 C1309 1.327 . S
C1307 H1330 0.950 . S
C1308 C1307 1.349 . S
C1308 C1320 1.349 . S
C1309 C1307 1.327 . S
C1309 C1325 1.429 . S
C1309 H1331 0.950 . S
C1310 H1306 0.949 . S
C1310 C1318 1.574 . S
C1310 C1326 1.368 . S
H1311 C1319 0.950 . S
H1312 C1317 0.950 . S
H1313 C1318 0.949 . S
H1314 C1320 0.950 . S
H1315 C1321 0.950 . S
H1316 C1322 0.949 . S
C1317 H1312 0.950 . S
C1317 C1319 1.327 . S
C1317 C1323 1.429 . S
C1318 C1310 1.574 . S
C1318 H1313 0.949 . S
C1318 C1324 1.368 . S
C1319 C1303 1.349 . S
C1319 H1311 0.950 . S
C1319 C1317 1.327 . S
C1320 C1308 1.349 . S
C1320 H1314 0.950 . S
C1320 C1321 1.327 . S
C1321 H1315 0.950 . S
C1321 C1320 1.327 . S
C1321 C1325 1.429 . S
C1322 C1305 1.574 . S
C1322 H1316 0.949 . S
C1322 C1326 1.368 . S
C1323 C1304 1.429 . S
C1323 C1317 1.429 . S
C1323 C1324 1.523 . S
C1324 C1305 1.368 . S
C1324 C1318 1.368 . S
C1324 C1323 1.523 . S
C1325 C1309 1.429 . S
C1325 C1321 1.429 . S
C1325 C1326 1.523 . S
C1326 C1310 1.368 . S
C1326 C1322 1.368 . S
C1326 C1325 1.523 . S
H1327 C1302 0.950 . S
H1328 C1304 0.950 . S
H1329 C1305 0.949 . S
H1330 C1307 0.950 . S
H1331 C1309 0.950 . S
C1332 C1333 1.349 1_554 S
C1332 C1334 1.327 1_554 S
C1332 H1357 0.950 . S
C1333 C1332 1.349 1_556 S
C1333 C1349 1.349 . S
C1334 C1332 1.327 1_556 S
C1334 C1353 1.429 . S
C1334 H1358 0.950 . S
C1335 C1352 1.574 . S
C1335 C1354 1.368 . S
C1335 H1359 0.949 . S
H1336 C1340 0.949 1_655 S
C1337 C1338 1.349 1_455 S
C1337 C1339 1.327 . S
C1337 H1360 0.950 . S
C1338 C1337 1.349 1_655 S
C1338 C1350 1.349 . S
C1339 C1337 1.327 . S
C1339 C1355 1.429 . S
C1339 H1361 0.950 . S
C1340 H1336 0.949 1_455 S
C1340 C1348 1.574 . S
C1340 C1356 1.368 . S
H1341 C1349 0.950 . S
H1342 C1347 0.950 . S
H1343 C1348 0.949 . S
H1344 C1350 0.950 . S
H1345 C1351 0.950 . S
H1346 C1352 0.949 . S
C1347 H1342 0.950 . S
C1347 C1349 1.327 . S
C1347 C1353 1.429 . S
C1348 C1340 1.574 . S
C1348 H1343 0.949 . S
C1348 C1354 1.368 . S
C1349 C1333 1.349 . S
C1349 H1341 0.950 . S
C1349 C1347 1.327 . S
C1350 C1338 1.349 . S
C1350 H1344 0.950 . S
C1350 C1351 1.327 . S
C1351 H1345 0.950 . S
C1351 C1350 1.327 . S
C1351 C1355 1.429 1_655 S
C1352 C1335 1.574 . S
C1352 H1346 0.949 . S
C1352 C1356 1.368 . S
C1353 C1334 1.429 . S
C1353 C1347 1.429 . S
C1353 C1354 1.523 . S
C1354 C1335 1.368 . S
C1354 C1348 1.368 . S
C1354 C1353 1.523 . S
C1355 C1339 1.429 . S
C1355 C1351 1.429 1_455 S
C1355 C1356 1.523 . S
C1356 C1340 1.368 . S
C1356 C1352 1.368 . S
C1356 C1355 1.523 . S
H1357 C1332 0.950 . S
H1358 C1334 0.950 . S
H1359 C1335 0.949 . S
H1360 C1337 0.950 . S
H1361 C1339 0.950 . S
C1362 C1363 1.349 . S
C1362 C1364 1.327 . S
C1362 H1387 0.950 . S
C1363 C1362 1.349 . S
C1363 C1379 1.349 . S
C1364 C1362 1.327 . S
C1364 C1383 1.429 . S
C1364 H1388 0.950 . S
C1365 C1382 1.574 . S
C1365 C1384 1.368 . S
C1365 H1389 0.949 . S
H1366 C1370 0.949 . S
C1367 C1368 1.349 . S
C1367 C1369 1.327 . S
C1367 H1390 0.950 . S
C1368 C1367 1.349 . S
C1368 C1380 1.349 . S
C1369 C1367 1.327 . S
C1369 C1385 1.429 . S
C1369 H1391 0.950 . S
C1370 H1366 0.949 . S
C1370 C1378 1.574 . S
C1370 C1386 1.368 . S
H1371 C1379 0.950 . S
H1372 C1377 0.950 . S
H1373 C1378 0.949 . S
H1374 C1380 0.950 . S
H1375 C1381 0.950 . S
H1376 C1382 0.949 . S
C1377 H1372 0.950 . S
C1377 C1379 1.327 . S
C1377 C1383 1.429 . S
C1378 C1370 1.574 . S
C1378 H1373 0.949 . S
C1378 C1384 1.368 . S
C1379 C1363 1.349 . S
C1379 H1371 0.950 . S
C1379 C1377 1.327 . S
C1380 C1368 1.349 . S
C1380 H1374 0.950 . S
C1380 C1381 1.327 . S
C1381 H1375 0.950 . S
C1381 C1380 1.327 . S
C1381 C1385 1.429 . S
C1382 C1365 1.574 . S
C1382 H1376 0.949 . S
C1382 C1386 1.368 . S
C1383 C1364 1.429 . S
C1383 C1377 1.429 . S
C1383 C1384 1.523 . S
C1384 C1365 1.368 . S
C1384 C1378 1.368 . S
C1384 C1383 1.523 . S
C1385 C1369 1.429 . S
C1385 C1381 1.429 . S
C1385 C1386 1.523 . S
C1386 C1370 1.368 . S
C1386 C1382 1.368 . S
C1386 C1385 1.523 . S
H1387 C1362 0.950 . S
H1388 C1364 0.950 . S
H1389 C1365 0.949 . S
H1390 C1367 0.950 . S
H1391 C1369 0.950 . S
C1392 C1393 1.349 . S
C1392 C1394 1.327 . S
C1392 H1417 0.950 . S
C1393 C1392 1.349 . S
C1393 C1409 1.349 . S
C1394 C1392 1.327 . S
C1394 C1413 1.429 . S
C1394 H1418 0.950 . S
C1395 C1412 1.574 . S
C1395 C1414 1.368 . S
C1395 H1419 0.949 . S
H1396 C1400 0.949 . S
C1397 C1398 1.349 . S
C1397 C1399 1.327 . S
C1397 H1420 0.950 . S
C1398 C1397 1.349 . S
C1398 C1410 1.349 . S
C1399 C1397 1.327 . S
C1399 C1415 1.429 . S
C1399 H1421 0.950 . S
C1400 H1396 0.949 . S
C1400 C1408 1.574 . S
C1400 C1416 1.368 . S
H1401 C1409 0.950 . S
H1402 C1407 0.950 . S
H1403 C1408 0.949 . S
H1404 C1410 0.950 . S
H1405 C1411 0.950 . S
H1406 C1412 0.949 . S
C1407 H1402 0.950 . S
C1407 C1409 1.327 . S
C1407 C1413 1.429 . S
C1408 C1400 1.574 . S
C1408 H1403 0.949 . S
C1408 C1414 1.368 . S
C1409 C1393 1.349 . S
C1409 H1401 0.950 . S
C1409 C1407 1.327 . S
C1410 C1398 1.349 . S
C1410 H1404 0.950 . S
C1410 C1411 1.327 . S
C1411 H1405 0.950 . S
C1411 C1410 1.327 . S
C1411 C1415 1.429 . S
C1412 C1395 1.574 . S
C1412 H1406 0.949 . S
C1412 C1416 1.368 . S
C1413 C1394 1.429 . S
C1413 C1407 1.429 . S
C1413 C1414 1.523 . S
C1414 C1395 1.368 . S
C1414 C1408 1.368 . S
C1414 C1413 1.523 . S
C1415 C1399 1.429 . S
C1415 C1411 1.429 . S
C1415 C1416 1.523 . S
C1416 C1400 1.368 . S
C1416 C1412 1.368 . S
C1416 C1415 1.523 . S
H1417 C1392 0.950 . S
H1418 C1394 0.950 . S
H1419 C1395 0.949 . S
H1420 C1397 0.950 . S
H1421 C1399 0.950 . S
C1422 C1423 1.349 . S
C1422 C1424 1.327 . S
C1422 H1447 0.950 . S
C1423 C1422 1.349 . S
C1423 C1439 1.349 . S
C1424 C1422 1.327 . S
C1424 C1443 1.429 . S
C1424 H1448 0.950 . S
C1425 C1442 1.574 . S
C1425 C1444 1.368 . S
C1425 H1449 0.949 . S
H1426 C1430 0.949 . S
C1427 C1428 1.349 . S
C1427 C1429 1.327 . S
C1427 H1450 0.950 . S
C1428 C1427 1.349 . S
C1428 C1440 1.349 . S
C1429 C1427 1.327 . S
C1429 C1445 1.429 . S
C1429 H1451 0.950 . S
C1430 H1426 0.949 . S
C1430 C1438 1.574 . S
C1430 C1446 1.368 . S
H1431 C1439 0.950 . S
H1432 C1437 0.950 . S
H1433 C1438 0.949 . S
H1434 C1440 0.950 . S
H1435 C1441 0.950 . S
H1436 C1442 0.949 . S
C1437 H1432 0.950 . S
C1437 C1439 1.327 . S
C1437 C1443 1.429 . S
C1438 C1430 1.574 . S
C1438 H1433 0.949 . S
C1438 C1444 1.368 . S
C1439 C1423 1.349 . S
C1439 H1431 0.950 . S
C1439 C1437 1.327 . S
C1440 C1428 1.349 . S
C1440 H1434 0.950 . S
C1440 C1441 1.327 . S
C1441 H1435 0.950 . S
C1441 C1440 1.327 . S
C1441 C1445 1.429 . S
C1442 C1425 1.574 . S
C1442 H1436 0.949 . S
C1442 C1446 1.368 . S
C1443 C1424 1.429 . S
C1443 C1437 1.429 . S
C1443 C1444 1.523 . S
C1444 C1425 1.368 . S
C1444 C1438 1.368 . S
C1444 C1443 1.523 . S
C1445 C1429 1.429 . S
C1445 C1441 1.429 . S
C1445 C1446 1.523 . S
C1446 C1430 1.368 . S
C1446 C1442 1.368 . S
C1446 C1445 1.523 . S
H1447 C1422 0.950 . S
H1448 C1424 0.950 . S
H1449 C1425 0.949 . S
H1450 C1427 0.950 . S
H1451 C1429 0.950 . S
C1452 C1453 1.349 1_545 S
C1452 C1454 1.327 . S
C1452 H1477 0.950 . S
C1453 C1452 1.349 1_565 S
C1453 C1469 1.349 . S
C1454 C1452 1.327 . S
C1454 C1473 1.429 . S
C1454 H1478 0.950 . S
C1455 C1472 1.574 1_565 S
C1455 C1474 1.368 1_565 S
C1455 H1479 0.949 . S
H1456 C1460 0.949 . S
C1457 C1458 1.349 . S
C1457 C1459 1.327 . S
C1457 H1480 0.950 1_655 S
C1458 C1457 1.349 . S
C1458 C1470 1.349 . S
C1459 C1457 1.327 . S
C1459 C1475 1.429 . S
C1459 H1481 0.948 1_545 S
C1460 H1456 0.949 . S
C1460 C1468 1.574 . S
C1460 C1476 1.368 . S
H1461 C1469 0.950 . S
H1462 C1467 0.950 . S
H1463 C1468 0.949 . S
H1464 C1470 0.950 . S
H1465 C1471 0.950 . S
H1466 C1472 0.949 1_565 S
C1467 H1462 0.950 . S
C1467 C1469 1.327 . S
C1467 C1473 1.429 1_565 S
C1468 C1460 1.574 . S
C1468 H1463 0.949 . S
C1468 C1474 1.368 . S
C1469 C1453 1.349 . S
C1469 H1461 0.950 . S
C1469 C1467 1.327 . S
C1470 C1458 1.349 . S
C1470 H1464 0.950 . S
C1470 C1471 1.327 . S
C1471 H1465 0.950 . S
C1471 C1470 1.327 . S
C1471 C1475 1.429 . S
C1472 C1455 1.574 1_545 S
C1472 H1466 0.949 1_545 S
C1472 C1476 1.368 . S
C1473 C1454 1.429 . S
C1473 C1467 1.429 1_545 S
C1473 C1474 1.523 . S
C1474 C1455 1.368 1_545 S
C1474 C1468 1.368 . S
C1474 C1473 1.523 . S
C1475 C1459 1.429 . S
C1475 C1471 1.429 . S
C1475 C1476 1.523 . S
C1476 C1460 1.368 . S
C1476 C1472 1.368 . S
C1476 C1475 1.523 . S
H1477 C1452 0.950 . S
H1478 C1454 0.950 . S
H1479 C1455 0.949 . S
H1480 C1457 0.950 1_455 S
H1481 C1459 0.948 1_565 S
C1482 C1483 1.349 . S
C1482 C1484 1.327 . S
C1482 H1507 0.950 . S
C1483 C1482 1.349 . S
C1483 C1499 1.349 . S
C1484 C1482 1.327 . S
C1484 C1503 1.429 . S
C1484 H1508 0.950 . S
C1485 C1502 1.574 . S
C1485 C1504 1.368 . S
C1485 H1509 0.949 . S
H1486 C1490 0.949 . S
C1487 C1488 1.349 . S
C1487 C1489 1.327 . S
C1487 H1510 0.950 . S
C1488 C1487 1.349 . S
C1488 C1500 1.349 . S
C1489 C1487 1.327 . S
C1489 C1505 1.429 . S
C1489 H1511 0.950 . S
C1490 H1486 0.949 . S
C1490 C1498 1.574 . S
C1490 C1506 1.368 . S
H1491 C1499 0.950 . S
H1492 C1497 0.950 . S
H1493 C1498 0.949 . S
H1494 C1500 0.950 . S
H1495 C1501 0.950 . S
H1496 C1502 0.949 . S
C1497 H1492 0.950 . S
C1497 C1499 1.327 . S
C1497 C1503 1.429 . S
C1498 C1490 1.574 . S
C1498 H1493 0.949 . S
C1498 C1504 1.368 . S
C1499 C1483 1.349 . S
C1499 H1491 0.950 . S
C1499 C1497 1.327 . S
C1500 C1488 1.349 . S
C1500 H1494 0.950 . S
C1500 C1501 1.327 . S
C1501 H1495 0.950 . S
C1501 C1500 1.327 . S
C1501 C1505 1.429 . S
C1502 C1485 1.574 . S
C1502 H1496 0.949 . S
C1502 C1506 1.368 . S
C1503 C1484 1.429 . S
C1503 C1497 1.429 . S
C1503 C1504 1.523 . S
C1504 C1485 1.368 . S
C1504 C1498 1.368 . S
C1504 C1503 1.523 . S
C1505 C1489 1.429 . S
C1505 C1501 1.429 . S
C1505 C1506 1.523 . S
C1506 C1490 1.368 . S
C1506 C1502 1.368 . S
C1506 C1505 1.523 . S
H1507 C1482 0.950 . S
H1508 C1484 0.950 . S
H1509 C1485 0.949 . S
H1510 C1487 0.950 . S
H1511 C1489 0.950 . S
C1512 C1513 1.349 1_556 S
C1512 C1514 1.327 . S
C1512 H1537 0.950 1_556 S
C1513 C1512 1.349 1_554 S
C1513 C1529 1.349 1_554 S
C1514 C1512 1.327 . S
C1514 C1533 1.429 . S
C1514 H1538 0.950 . S
C1515 C1532 1.574 . S
C1515 C1534 1.368 . S
C1515 H1539 0.949 . S
H1516 C1520 0.949 . S
C1517 C1518 1.349 . S
C1517 C1519 1.327 . S
C1517 H1540 0.950 . S
C1518 C1517 1.349 . S
C1518 C1530 1.349 . S
C1519 C1517 1.327 . S
C1519 C1535 1.429 . S
C1519 H1541 0.950 . S
C1520 H1516 0.949 . S
C1520 C1528 1.574 . S
C1520 C1536 1.368 . S
H1521 C1529 0.950 . S
H1522 C1527 0.950 . S
H1523 C1528 0.949 . S
H1524 C1530 0.950 . S
H1525 C1531 0.950 . S
H1526 C1532 0.949 . S
C1527 H1522 0.950 . S
C1527 C1529 1.327 . S
C1527 C1533 1.429 . S
C1528 C1520 1.574 . S
C1528 H1523 0.949 . S
C1528 C1534 1.368 . S
C1529 C1513 1.349 1_556 S
C1529 H1521 0.950 . S
C1529 C1527 1.327 . S
C1530 C1518 1.349 . S
C1530 H1524 0.950 . S
C1530 C1531 1.327 . S
C1531 H1525 0.950 . S
C1531 C1530 1.327 . S
C1531 C1535 1.429 . S
C1532 C1515 1.574 . S
C1532 H1526 0.949 . S
C1532 C1536 1.368 . S
C1533 C1514 1.429 . S
C1533 C1527 1.429 . S
C1533 C1534 1.523 . S
C1534 C1515 1.368 . S
C1534 C1528 1.368 . S
C1534 C1533 1.523 . S
C1535 C1519 1.429 . S
C1535 C1531 1.429 . S
C1535 C1536 1.523 . S
C1536 C1520 1.368 . S
C1536 C1532 1.368 . S
C1536 C1535 1.523 . S
H1537 C1512 0.950 1_554 S
H1538 C1514 0.950 . S
H1539 C1515 0.949 . S
H1540 C1517 0.950 . S
H1541 C1519 0.950 . S
C1542 C1543 1.349 . S
C1542 C1544 1.327 . S
C1542 H1567 0.950 . S
C1543 C1542 1.349 . S
C1543 C1559 1.349 . S
C1544 C1542 1.327 . S
C1544 C1563 1.429 . S
C1544 H1568 0.950 . S
C1545 C1562 1.574 . S
C1545 C1564 1.368 . S
C1545 H1569 0.949 . S
H1546 C1550 0.949 . S
C1547 C1548 1.349 . S
C1547 C1549 1.327 . S
C1547 H1570 0.950 . S
C1548 C1547 1.349 . S
C1548 C1560 1.349 . S
C1549 C1547 1.327 . S
C1549 C1565 1.429 . S
C1549 H1571 0.950 . S
C1550 H1546 0.949 . S
C1550 C1558 1.574 . S
C1550 C1566 1.368 . S
H1551 C1559 0.950 . S
H1552 C1557 0.950 . S
H1553 C1558 0.949 . S
H1554 C1560 0.950 . S
H1555 C1561 0.950 . S
H1556 C1562 0.949 . S
C1557 H1552 0.950 . S
C1557 C1559 1.327 . S
C1557 C1563 1.429 . S
C1558 C1550 1.574 . S
C1558 H1553 0.949 . S
C1558 C1564 1.368 . S
C1559 C1543 1.349 . S
C1559 H1551 0.950 . S
C1559 C1557 1.327 . S
C1560 C1548 1.349 . S
C1560 H1554 0.950 . S
C1560 C1561 1.327 . S
C1561 H1555 0.950 . S
C1561 C1560 1.327 . S
C1561 C1565 1.429 . S
C1562 C1545 1.574 . S
C1562 H1556 0.949 . S
C1562 C1566 1.368 . S
C1563 C1544 1.429 . S
C1563 C1557 1.429 . S
C1563 C1564 1.523 . S
C1564 C1545 1.368 . S
C1564 C1558 1.368 . S
C1564 C1563 1.523 . S
C1565 C1549 1.429 . S
C1565 C1561 1.429 . S
C1565 C1566 1.523 . S
C1566 C1550 1.368 . S
C1566 C1562 1.368 . S
C1566 C1565 1.523 . S
H1567 C1542 0.950 . S
H1568 C1544 0.950 . S
H1569 C1545 0.949 . S
H1570 C1547 0.950 . S
H1571 C1549 0.950 . S
C1572 C1573 1.349 . S
C1572 C1574 1.327 . S
C1572 H1597 0.950 . S
C1573 C1572 1.349 . S
C1573 C1589 1.349 . S
C1574 C1572 1.327 . S
C1574 C1593 1.429 . S
C1574 H1598 0.950 . S
C1575 C1592 1.574 . S
C1575 C1594 1.368 . S
C1575 H1599 0.949 . S
H1576 C1580 0.949 . S
C1577 C1578 1.349 . S
C1577 C1579 1.327 . S
C1577 H1600 0.950 . S
C1578 C1577 1.349 . S
C1578 C1590 1.349 . S
C1579 C1577 1.327 . S
C1579 C1595 1.429 . S
C1579 H1601 0.950 . S
C1580 H1576 0.949 . S
C1580 C1588 1.574 . S
C1580 C1596 1.368 . S
H1581 C1589 0.950 . S
H1582 C1587 0.950 . S
H1583 C1588 0.949 . S
H1584 C1590 0.950 . S
H1585 C1591 0.950 . S
H1586 C1592 0.949 . S
C1587 H1582 0.950 . S
C1587 C1589 1.327 . S
C1587 C1593 1.429 . S
C1588 C1580 1.574 . S
C1588 H1583 0.949 . S
C1588 C1594 1.368 . S
C1589 C1573 1.349 . S
C1589 H1581 0.950 . S
C1589 C1587 1.327 . S
C1590 C1578 1.349 . S
C1590 H1584 0.950 . S
C1590 C1591 1.327 . S
C1591 H1585 0.950 . S
C1591 C1590 1.327 . S
C1591 C1595 1.429 . S
C1592 C1575 1.574 . S
C1592 H1586 0.949 . S
C1592 C1596 1.368 . S
C1593 C1574 1.429 . S
C1593 C1587 1.429 . S
C1593 C1594 1.523 . S
C1594 C1575 1.368 . S
C1594 C1588 1.368 . S
C1594 C1593 1.523 . S
C1595 C1579 1.429 . S
C1595 C1591 1.429 . S
C1595 C1596 1.523 . S
C1596 C1580 1.368 . S
C1596 C1592 1.368 . S
C1596 C1595 1.523 . S
H1597 C1572 0.950 . S
H1598 C1574 0.950 . S
H1599 C1575 0.949 . S
H1600 C1577 0.950 . S
H1601 C1579 0.950 . S
C1602 C1603 1.349 . S
C1602 C1604 1.327 . S
C1602 H1627 0.950 . S
C1603 C1602 1.349 . S
C1603 C1619 1.349 . S
C1604 C1602 1.327 . S
C1604 C1623 1.429 . S
C1604 H1628 0.950 . S
C1605 C1622 1.574 . S
C1605 C1624 1.368 . S
C1605 H1629 0.949 . S
H1606 C1610 0.949 . S
C1607 C1608 1.349 . S
C1607 C1609 1.327 . S
C1607 H1630 0.950 . S
C1608 C1607 1.349 . S
C1608 C1620 1.349 . S
C1609 C1607 1.327 . S
C1609 C1625 1.429 . S
C1609 H1631 0.950 . S
C1610 H1606 0.949 . S
C1610 C1618 1.574 . S
C1610 C1626 1.368 . S
H1611 C1619 0.950 . S
H1612 C1617 0.950 . S
H1613 C1618 0.949 . S
H1614 C1620 0.950 . S
H1615 C1621 0.950 . S
H1616 C1622 0.949 . S
C1617 H1612 0.950 . S
C1617 C1619 1.327 . S
C1617 C1623 1.429 . S
C1618 C1610 1.574 . S
C1618 H1613 0.949 . S
C1618 C1624 1.368 . S
C1619 C1603 1.349 . S
C1619 H1611 0.950 . S
C1619 C1617 1.327 . S
C1620 C1608 1.349 . S
C1620 H1614 0.950 . S
C1620 C1621 1.327 . S
C1621 H1615 0.950 . S
C1621 C1620 1.327 . S
C1621 C1625 1.429 . S
C1622 C1605 1.574 . S
C1622 H1616 0.949 . S
C1622 C1626 1.368 . S
C1623 C1604 1.429 . S
C1623 C1617 1.429 . S
C1623 C1624 1.523 . S
C1624 C1605 1.368 . S
C1624 C1618 1.368 . S
C1624 C1623 1.523 . S
C1625 C1609 1.429 . S
C1625 C1621 1.429 . S
C1625 C1626 1.523 . S
C1626 C1610 1.368 . S
C1626 C1622 1.368 . S
C1626 C1625 1.523 . S
H1627 C1602 0.950 . S
H1628 C1604 0.950 . S
H1629 C1605 0.949 . S
H1630 C1607 0.950 . S
H1631 C1609 0.950 . S
C1632 C1633 1.349 . S
C1632 C1634 1.327 . S
C1632 H1657 0.950 . S
C1633 C1632 1.349 . S
C1633 C1649 1.349 . S
C1634 C1632 1.327 . S
C1634 C1653 1.429 . S
C1634 H1658 0.950 . S
C1635 C1652 1.574 . S
C1635 C1654 1.368 . S
C1635 H1659 0.949 . S
H1636 C1640 0.949 . S
C1637 C1638 1.349 . S
C1637 C1639 1.327 . S
C1637 H1660 0.950 . S
C1638 C1637 1.349 . S
C1638 C1650 1.349 . S
C1639 C1637 1.327 . S
C1639 C1655 1.429 . S
C1639 H1661 0.950 . S
C1640 H1636 0.949 . S
C1640 C1648 1.574 . S
C1640 C1656 1.368 . S
H1641 C1649 0.950 . S
H1642 C1647 0.950 . S
H1643 C1648 0.949 . S
H1644 C1650 0.950 . S
H1645 C1651 0.950 . S
H1646 C1652 0.949 . S
C1647 H1642 0.950 . S
C1647 C1649 1.327 . S
C1647 C1653 1.429 . S
C1648 C1640 1.574 . S
C1648 H1643 0.949 . S
C1648 C1654 1.368 . S
C1649 C1633 1.349 . S
C1649 H1641 0.950 . S
C1649 C1647 1.327 . S
C1650 C1638 1.349 . S
C1650 H1644 0.950 . S
C1650 C1651 1.327 . S
C1651 H1645 0.950 . S
C1651 C1650 1.327 . S
C1651 C1655 1.429 . S
C1652 C1635 1.574 . S
C1652 H1646 0.949 . S
C1652 C1656 1.368 . S
C1653 C1634 1.429 . S
C1653 C1647 1.429 . S
C1653 C1654 1.523 . S
C1654 C1635 1.368 . S
C1654 C1648 1.368 . S
C1654 C1653 1.523 . S
C1655 C1639 1.429 . S
C1655 C1651 1.429 . S
C1655 C1656 1.523 . S
C1656 C1640 1.368 . S
C1656 C1652 1.368 . S
C1656 C1655 1.523 . S
H1657 C1632 0.950 . S
H1658 C1634 0.950 . S
H1659 C1635 0.949 . S
H1660 C1637 0.950 . S
H1661 C1639 0.950 . S
C1662 C1663 1.349 . S
C1662 C1664 1.327 . S
C1662 H1687 0.950 . S
C1663 C1662 1.349 . S
C1663 C1679 1.349 . S
C1664 C1662 1.327 . S
C1664 C1683 1.429 . S
C1664 H1688 0.950 . S
C1665 C1682 1.574 1_554 S
C1665 C1684 1.368 . S
C1665 H1689 0.949 1_554 S
H1666 C1670 0.949 . S
C1667 C1668 1.349 . S
C1667 C1669 1.327 . S
C1667 H1690 0.950 . S
C1668 C1667 1.349 . S
C1668 C1680 1.349 1_556 S
C1669 C1667 1.327 . S
C1669 C1685 1.429 1_556 S
C1669 H1691 0.950 . S
C1670 H1666 0.949 . S
C1670 C1678 1.574 . S
C1670 C1686 1.368 . S
H1671 C1679 0.950 . S
H1672 C1677 0.950 1_556 S
H1673 C1678 0.949 . S
H1674 C1680 0.950 . S
H1675 C1681 0.950 . S
H1676 C1682 0.949 . S
C1677 H1672 0.950 1_554 S
C1677 C1679 1.327 . S
C1677 C1683 1.429 . S
C1678 C1670 1.574 . S
C1678 H1673 0.949 . S
C1678 C1684 1.368 . S
C1679 C1663 1.349 . S
C1679 H1671 0.950 . S
C1679 C1677 1.327 . S
C1680 C1668 1.349 1_554 S
C1680 H1674 0.950 . S
C1680 C1681 1.327 . S
C1681 H1675 0.950 . S
C1681 C1680 1.327 . S
C1681 C1685 1.429 . S
C1682 C1665 1.574 1_556 S
C1682 H1676 0.949 . S
C1682 C1686 1.368 1_556 S
C1683 C1664 1.429 . S
C1683 C1677 1.429 . S
C1683 C1684 1.523 . S
C1684 C1665 1.368 . S
C1684 C1678 1.368 . S
C1684 C1683 1.523 . S
C1685 C1669 1.429 1_554 S
C1685 C1681 1.429 . S
C1685 C1686 1.523 . S
C1686 C1670 1.368 . S
C1686 C1682 1.368 1_554 S
C1686 C1685 1.523 . S
H1687 C1662 0.950 . S
H1688 C1664 0.950 . S
H1689 C1665 0.949 1_556 S
H1690 C1667 0.950 . S
H1691 C1669 0.950 . S
C1692 C1693 1.349 . S
C1692 C1694 1.327 . S
C1692 H1717 0.950 . S
C1693 C1692 1.349 . S
C1693 C1709 1.349 . S
C1694 C1692 1.327 . S
C1694 C1713 1.429 . S
C1694 H1718 0.950 . S
C1695 C1712 1.574 . S
C1695 C1714 1.368 . S
C1695 H1719 0.949 . S
H1696 C1700 0.949 . S
C1697 C1698 1.349 . S
C1697 C1699 1.327 . S
C1697 H1720 0.950 . S
C1698 C1697 1.349 . S
C1698 C1710 1.349 . S
C1699 C1697 1.327 . S
C1699 C1715 1.429 . S
C1699 H1721 0.950 . S
C1700 H1696 0.949 . S
C1700 C1708 1.574 . S
C1700 C1716 1.368 . S
H1701 C1709 0.950 . S
H1702 C1707 0.950 . S
H1703 C1708 0.949 . S
H1704 C1710 0.950 . S
H1705 C1711 0.950 . S
H1706 C1712 0.949 . S
C1707 H1702 0.950 . S
C1707 C1709 1.327 . S
C1707 C1713 1.429 . S
C1708 C1700 1.574 . S
C1708 H1703 0.949 . S
C1708 C1714 1.368 . S
C1709 C1693 1.349 . S
C1709 H1701 0.950 . S
C1709 C1707 1.327 . S
C1710 C1698 1.349 . S
C1710 H1704 0.950 . S
C1710 C1711 1.327 . S
C1711 H1705 0.950 . S
C1711 C1710 1.327 . S
C1711 C1715 1.429 . S
C1712 C1695 1.574 . S
C1712 H1706 0.949 . S
C1712 C1716 1.368 . S
C1713 C1694 1.429 . S
C1713 C1707 1.429 . S
C1713 C1714 1.523 . S
C1714 C1695 1.368 . S
C1714 C1708 1.368 . S
C1714 C1713 1.523 . S
C1715 C1699 1.429 . S
C1715 C1711 1.429 . S
C1715 C1716 1.523 . S
C1716 C1700 1.368 . S
C1716 C1712 1.368 . S
C1716 C1715 1.523 . S
H1717 C1692 0.950 . S
H1718 C1694 0.950 . S
H1719 C1695 0.949 . S
H1720 C1697 0.950 . S
H1721 C1699 0.950 . S
C1722 C1723 1.349 1_655 S
C1722 C1724 1.327 . S
C1722 H1747 0.950 1_655 S
C1723 C1722 1.349 1_455 S
C1723 C1739 1.349 1_455 S
C1724 C1722 1.327 . S
C1724 C1743 1.429 . S
C1724 H1748 0.950 . S
C1725 C1742 1.574 . S
C1725 C1744 1.368 . S
C1725 H1749 0.949 . S
H1726 C1730 0.949 . S
C1727 C1728 1.349 . S
C1727 C1729 1.327 . S
C1727 H1750 0.950 . S
C1728 C1727 1.349 . S
C1728 C1740 1.349 . S
C1729 C1727 1.327 . S
C1729 C1745 1.429 . S
C1729 H1751 0.950 . S
C1730 H1726 0.949 . S
C1730 C1738 1.574 . S
C1730 C1746 1.368 . S
H1731 C1739 0.950 . S
H1732 C1737 0.950 . S
H1733 C1738 0.949 . S
H1734 C1740 0.950 . S
H1735 C1741 0.950 . S
H1736 C1742 0.949 . S
C1737 H1732 0.950 . S
C1737 C1739 1.327 . S
C1737 C1743 1.429 . S
C1738 C1730 1.574 . S
C1738 H1733 0.949 . S
C1738 C1744 1.368 . S
C1739 C1723 1.349 1_655 S
C1739 H1731 0.950 . S
C1739 C1737 1.327 . S
C1740 C1728 1.349 . S
C1740 H1734 0.950 . S
C1740 C1741 1.327 . S
C1741 H1735 0.950 . S
C1741 C1740 1.327 . S
C1741 C1745 1.429 . S
C1742 C1725 1.574 . S
C1742 H1736 0.949 . S
C1742 C1746 1.368 . S
C1743 C1724 1.429 . S
C1743 C1737 1.429 . S
C1743 C1744 1.523 . S
C1744 C1725 1.368 . S
C1744 C1738 1.368 . S
C1744 C1743 1.523 . S
C1745 C1729 1.429 . S
C1745 C1741 1.429 . S
C1745 C1746 1.523 . S
C1746 C1730 1.368 . S
C1746 C1742 1.368 . S
C1746 C1745 1.523 . S
H1747 C1722 0.950 1_455 S
H1748 C1724 0.950 . S
H1749 C1725 0.949 . S
H1750 C1727 0.950 . S
H1751 C1729 0.950 . S
C1752 C1753 1.349 . S
C1752 C1754 1.327 . S
C1752 H1777 0.950 . S
C1753 C1752 1.349 . S
C1753 C1769 1.349 . S
C1754 C1752 1.327 . S
C1754 C1773 1.429 . S
C1754 H1778 0.950 . S
C1755 C1772 1.574 . S
C1755 C1774 1.368 . S
C1755 H1779 0.949 . S
H1756 C1760 0.949 . S
C1757 C1758 1.349 . S
C1757 C1759 1.327 . S
C1757 H1780 0.950 . S
C1758 C1757 1.349 . S
C1758 C1770 1.349 . S
C1759 C1757 1.327 . S
C1759 C1775 1.429 . S
C1759 H1781 0.950 . S
C1760 H1756 0.949 . S
C1760 C1768 1.574 . S
C1760 C1776 1.368 . S
H1761 C1769 0.950 . S
H1762 C1767 0.950 . S
H1763 C1768 0.949 . S
H1764 C1770 0.950 . S
H1765 C1771 0.950 . S
H1766 C1772 0.949 . S
C1767 H1762 0.950 . S
C1767 C1769 1.327 . S
C1767 C1773 1.429 . S
C1768 C1760 1.574 . S
C1768 H1763 0.949 . S
C1768 C1774 1.368 . S
C1769 C1753 1.349 . S
C1769 H1761 0.950 . S
C1769 C1767 1.327 . S
C1770 C1758 1.349 . S
C1770 H1764 0.950 . S
C1770 C1771 1.327 . S
C1771 H1765 0.950 . S
C1771 C1770 1.327 . S
C1771 C1775 1.429 . S
C1772 C1755 1.574 . S
C1772 H1766 0.949 . S
C1772 C1776 1.368 . S
C1773 C1754 1.429 . S
C1773 C1767 1.429 . S
C1773 C1774 1.523 . S
C1774 C1755 1.368 . S
C1774 C1768 1.368 . S
C1774 C1773 1.523 . S
C1775 C1759 1.429 . S
C1775 C1771 1.429 . S
C1775 C1776 1.523 . S
C1776 C1760 1.368 . S
C1776 C1772 1.368 . S
C1776 C1775 1.523 . S
H1777 C1752 0.950 . S
H1778 C1754 0.950 . S
H1779 C1755 0.949 . S
H1780 C1757 0.950 . S
H1781 C1759 0.950 . S
C1782 C1783 1.349 . S
C1782 C1784 1.327 . S
C1782 H1807 0.950 . S
C1783 C1782 1.349 . S
C1783 C1799 1.349 . S
C1784 C1782 1.327 . S
C1784 C1803 1.429 . S
C1784 H1808 0.950 . S
C1785 C1802 1.574 . S
C1785 C1804 1.368 . S
C1785 H1809 0.949 . S
H1786 C1790 0.949 . S
C1787 C1788 1.349 . S
C1787 C1789 1.327 . S
C1787 H1810 0.950 . S
C1788 C1787 1.349 . S
C1788 C1800 1.349 . S
C1789 C1787 1.327 . S
C1789 C1805 1.429 . S
C1789 H1811 0.950 . S
C1790 H1786 0.949 . S
C1790 C1798 1.574 . S
C1790 C1806 1.368 . S
H1791 C1799 0.950 . S
H1792 C1797 0.950 . S
H1793 C1798 0.949 . S
H1794 C1800 0.950 . S
H1795 C1801 0.950 . S
H1796 C1802 0.949 . S
C1797 H1792 0.950 . S
C1797 C1799 1.327 . S
C1797 C1803 1.429 . S
C1798 C1790 1.574 . S
C1798 H1793 0.949 . S
C1798 C1804 1.368 . S
C1799 C1783 1.349 . S
C1799 H1791 0.950 . S
C1799 C1797 1.327 . S
C1800 C1788 1.349 . S
C1800 H1794 0.950 . S
C1800 C1801 1.327 . S
C1801 H1795 0.950 . S
C1801 C1800 1.327 . S
C1801 C1805 1.429 . S
C1802 C1785 1.574 . S
C1802 H1796 0.949 . S
C1802 C1806 1.368 . S
C1803 C1784 1.429 . S
C1803 C1797 1.429 . S
C1803 C1804 1.523 . S
C1804 C1785 1.368 . S
C1804 C1798 1.368 . S
C1804 C1803 1.523 . S
C1805 C1789 1.429 . S
C1805 C1801 1.429 . S
C1805 C1806 1.523 . S
C1806 C1790 1.368 . S
C1806 C1802 1.368 . S
C1806 C1805 1.523 . S
H1807 C1782 0.950 . S
H1808 C1784 0.950 . S
H1809 C1785 0.949 . S
H1810 C1787 0.950 . S
H1811 C1789 0.950 . S
C1812 C1813 1.349 . S
C1812 C1814 1.327 . S
C1812 H1837 0.950 . S
C1813 C1812 1.349 . S
C1813 C1829 1.349 . S
C1814 C1812 1.327 . S
C1814 C1833 1.429 . S
C1814 H1838 0.950 . S
C1815 C1832 1.574 . S
C1815 C1834 1.368 . S
C1815 H1839 0.949 . S
H1816 C1820 0.949 . S
C1817 C1818 1.349 . S
C1817 C1819 1.327 . S
C1817 H1840 0.950 . S
C1818 C1817 1.349 . S
C1818 C1830 1.349 . S
C1819 C1817 1.327 . S
C1819 C1835 1.429 . S
C1819 H1841 0.950 . S
C1820 H1816 0.949 . S
C1820 C1828 1.574 . S
C1820 C1836 1.368 . S
H1821 C1829 0.950 . S
H1822 C1827 0.950 . S
H1823 C1828 0.949 . S
H1824 C1830 0.950 . S
H1825 C1831 0.950 . S
H1826 C1832 0.949 . S
C1827 H1822 0.950 . S
C1827 C1829 1.327 . S
C1827 C1833 1.429 . S
C1828 C1820 1.574 . S
C1828 H1823 0.949 . S
C1828 C1834 1.368 . S
C1829 C1813 1.349 . S
C1829 H1821 0.950 . S
C1829 C1827 1.327 . S
C1830 C1818 1.349 . S
C1830 H1824 0.950 . S
C1830 C1831 1.327 . S
C1831 H1825 0.950 . S
C1831 C1830 1.327 . S
C1831 C1835 1.429 . S
C1832 C1815 1.574 . S
C1832 H1826 0.949 . S
C1832 C1836 1.368 . S
C1833 C1814 1.429 . S
C1833 C1827 1.429 . S
C1833 C1834 1.523 . S
C1834 C1815 1.368 . S
C1834 C1828 1.368 . S
C1834 C1833 1.523 . S
C1835 C1819 1.429 . S
C1835 C1831 1.429 . S
C1835 C1836 1.523 . S
C1836 C1820 1.368 . S
C1836 C1832 1.368 . S
C1836 C1835 1.523 . S
H1837 C1812 0.950 . S
H1838 C1814 0.950 . S
H1839 C1815 0.949 . S
H1840 C1817 0.950 . S
H1841 C1819 0.950 . S
C1842 C1843 1.349 . S
C1842 C1844 1.327 . S
C1842 H1867 0.950 . S
C1843 C1842 1.349 . S
C1843 C1859 1.349 . S
C1844 C1842 1.327 . S
C1844 C1863 1.429 . S
C1844 H1868 0.950 . S
C1845 C1862 1.574 . S
C1845 C1864 1.368 . S
C1845 H1869 0.949 . S
H1846 C1850 0.949 . S
C1847 C1848 1.349 . S
C1847 C1849 1.327 . S
C1847 H1870 0.950 . S
C1848 C1847 1.349 . S
C1848 C1860 1.349 . S
C1849 C1847 1.327 . S
C1849 C1865 1.429 . S
C1849 H1871 0.950 . S
C1850 H1846 0.949 . S
C1850 C1858 1.574 . S
C1850 C1866 1.368 . S
H1851 C1859 0.950 . S
H1852 C1857 0.950 . S
H1853 C1858 0.949 . S
H1854 C1860 0.950 . S
H1855 C1861 0.950 . S
H1856 C1862 0.949 . S
C1857 H1852 0.950 . S
C1857 C1859 1.327 . S
C1857 C1863 1.429 . S
C1858 C1850 1.574 . S
C1858 H1853 0.949 . S
C1858 C1864 1.368 . S
C1859 C1843 1.349 . S
C1859 H1851 0.950 . S
C1859 C1857 1.327 . S
C1860 C1848 1.349 . S
C1860 H1854 0.950 . S
C1860 C1861 1.327 . S
C1861 H1855 0.950 . S
C1861 C1860 1.327 . S
C1861 C1865 1.429 . S
C1862 C1845 1.574 . S
C1862 H1856 0.949 . S
C1862 C1866 1.368 . S
C1863 C1844 1.429 . S
C1863 C1857 1.429 . S
C1863 C1864 1.523 . S
C1864 C1845 1.368 . S
C1864 C1858 1.368 . S
C1864 C1863 1.523 . S
C1865 C1849 1.429 . S
C1865 C1861 1.429 . S
C1865 C1866 1.523 . S
C1866 C1850 1.368 . S
C1866 C1862 1.368 . S
C1866 C1865 1.523 . S
H1867 C1842 0.950 . S
H1868 C1844 0.950 . S
H1869 C1845 0.949 . S
H1870 C1847 0.950 . S
H1871 C1849 0.950 . S
C1872 C1873 1.349 . S
C1872 C1874 1.327 . S
C1872 H1897 0.950 . S
C1873 C1872 1.349 . S
C1873 C1889 1.349 . S
C1874 C1872 1.327 . S
C1874 C1893 1.429 . S
C1874 H1898 0.950 . S
C1875 C1892 1.574 . S
C1875 C1894 1.368 . S
C1875 H1899 0.949 . S
H1876 C1880 0.949 . S
C1877 C1878 1.349 1_655 S
C1877 C1879 1.327 . S
C1877 H1900 0.950 . S
C1878 C1877 1.349 1_455 S
C1878 C1890 1.349 . S
C1879 C1877 1.327 . S
C1879 C1895 1.429 1_655 S
C1879 H1901 0.950 . S
C1880 H1876 0.949 . S
C1880 C1888 1.574 . S
C1880 C1896 1.368 . S
H1881 C1889 0.950 . S
H1882 C1887 0.950 . S
H1883 C1888 0.949 . S
H1884 C1890 0.950 . S
H1885 C1891 0.950 . S
H1886 C1892 0.949 1_655 S
C1887 H1882 0.950 . S
C1887 C1889 1.327 . S
C1887 C1893 1.429 . S
C1888 C1880 1.574 . S
C1888 H1883 0.949 . S
C1888 C1894 1.368 . S
C1889 C1873 1.349 . S
C1889 H1881 0.950 . S
C1889 C1887 1.327 . S
C1890 C1878 1.349 . S
C1890 H1884 0.950 . S
C1890 C1891 1.327 . S
C1891 H1885 0.950 . S
C1891 C1890 1.327 . S
C1891 C1895 1.429 . S
C1892 C1875 1.574 . S
C1892 H1886 0.949 1_455 S
C1892 C1896 1.368 . S
C1893 C1874 1.429 . S
C1893 C1887 1.429 . S
C1893 C1894 1.523 . S
C1894 C1875 1.368 . S
C1894 C1888 1.368 . S
C1894 C1893 1.523 . S
C1895 C1879 1.429 1_455 S
C1895 C1891 1.429 . S
C1895 C1896 1.523 . S
C1896 C1880 1.368 . S
C1896 C1892 1.368 . S
C1896 C1895 1.523 . S
H1897 C1872 0.950 . S
H1898 C1874 0.950 . S
H1899 C1875 0.949 . S
H1900 C1877 0.950 . S
H1901 C1879 0.950 . S
C1902 C1903 1.349 . S
C1902 C1904 1.327 . S
C1902 H1927 0.950 . S
C1903 C1902 1.349 . S
C1903 C1919 1.349 . S
C1904 C1902 1.327 . S
C1904 C1923 1.429 . S
C1904 H1928 0.950 . S
C1905 C1922 1.574 . S
C1905 C1924 1.368 . S
C1905 H1929 0.920 1_554 S
H1906 C1910 0.949 . S
C1907 C1908 1.349 1_556 S
C1907 C1909 1.327 . S
C1907 H1930 0.950 . S
C1908 C1907 1.349 1_554 S
C1908 C1920 1.349 . S
C1909 C1907 1.327 . S
C1909 C1925 1.429 1_556 S
C1909 H1931 0.950 . S
C1910 H1906 0.949 . S
C1910 C1918 1.574 . S
C1910 C1926 1.368 . S
H1911 C1919 0.950 . S
H1912 C1917 0.950 . S
H1913 C1918 0.949 . S
H1914 C1920 0.950 . S
H1915 C1921 0.950 . S
H1916 C1922 0.949 1_556 S
C1917 H1912 0.950 . S
C1917 C1919 1.327 . S
C1917 C1923 1.429 . S
C1918 C1910 1.574 . S
C1918 H1913 0.949 . S
C1918 C1924 1.368 . S
C1919 C1903 1.349 . S
C1919 H1911 0.950 . S
C1919 C1917 1.327 . S
C1920 C1908 1.349 . S
C1920 H1914 0.950 . S
C1920 C1921 1.327 . S
C1921 H1915 0.950 . S
C1921 C1920 1.327 . S
C1921 C1925 1.429 . S
C1922 C1905 1.574 . S
C1922 H1916 0.949 1_554 S
C1922 C1926 1.368 . S
C1923 C1904 1.429 . S
C1923 C1917 1.429 . S
C1923 C1924 1.523 . S
C1924 C1905 1.368 . S
C1924 C1918 1.368 . S
C1924 C1923 1.523 . S
C1925 C1909 1.429 1_554 S
C1925 C1921 1.429 . S
C1925 C1926 1.523 . S
C1926 C1910 1.368 . S
C1926 C1922 1.368 . S
C1926 C1925 1.523 . S
H1927 C1902 0.950 . S
H1928 C1904 0.950 . S
H1929 C1905 0.920 1_556 S
H1930 C1907 0.950 . S
H1931 C1909 0.950 . S
C1932 C1933 1.349 . S
C1932 C1934 1.327 . S
C1932 H1957 0.950 . S
C1933 C1932 1.349 . S
C1933 C1949 1.349 . S
C1934 C1932 1.327 . S
C1934 C1953 1.429 . S
C1934 H1958 0.950 . S
C1935 C1952 1.574 . S
C1935 C1954 1.368 . S
C1935 H1959 0.949 . S
H1936 C1940 0.949 . S
C1937 C1938 1.349 . S
C1937 C1939 1.327 . S
C1937 H1960 0.950 . S
C1938 C1937 1.349 . S
C1938 C1950 1.349 . S
C1939 C1937 1.327 . S
C1939 C1955 1.429 . S
C1939 H1961 0.950 . S
C1940 H1936 0.949 . S
C1940 C1948 1.574 . S
C1940 C1956 1.368 . S
H1941 C1949 0.950 . S
H1942 C1947 0.950 . S
H1943 C1948 0.949 . S
H1944 C1950 0.950 . S
H1945 C1951 0.950 . S
H1946 C1952 0.949 . S
C1947 H1942 0.950 . S
C1947 C1949 1.327 . S
C1947 C1953 1.429 . S
C1948 C1940 1.574 . S
C1948 H1943 0.949 . S
C1948 C1954 1.368 . S
C1949 C1933 1.349 . S
C1949 H1941 0.950 . S
C1949 C1947 1.327 . S
C1950 C1938 1.349 . S
C1950 H1944 0.950 . S
C1950 C1951 1.327 . S
C1951 H1945 0.950 . S
C1951 C1950 1.327 . S
C1951 C1955 1.429 . S
C1952 C1935 1.574 . S
C1952 H1946 0.949 . S
C1952 C1956 1.368 . S
C1953 C1934 1.429 . S
C1953 C1947 1.429 . S
C1953 C1954 1.523 . S
C1954 C1935 1.368 . S
C1954 C1948 1.368 . S
C1954 C1953 1.523 . S
C1955 C1939 1.429 . S
C1955 C1951 1.429 . S
C1955 C1956 1.523 . S
C1956 C1940 1.368 . S
C1956 C1952 1.368 . S
C1956 C1955 1.523 . S
H1957 C1932 0.950 . S
H1958 C1934 0.950 . S
H1959 C1935 0.949 . S
H1960 C1937 0.950 . S
H1961 C1939 0.950 . S
C1962 C1963 1.349 . S
C1962 C1964 1.327 . S
C1962 H1987 0.950 . S
C1963 C1962 1.349 . S
C1963 C1979 1.349 . S
C1964 C1962 1.327 . S
C1964 C1983 1.429 . S
C1964 H1988 0.950 . S
C1965 C1982 1.574 . S
C1965 C1984 1.368 . S
C1965 H1989 0.949 . S
H1966 C1970 0.949 . S
C1967 C1968 1.349 . S
C1967 C1969 1.327 . S
C1967 H1990 0.950 . S
C1968 C1967 1.349 . S
C1968 C1980 1.349 . S
C1969 C1967 1.327 . S
C1969 C1985 1.429 . S
C1969 H1991 0.950 . S
C1970 H1966 0.949 . S
C1970 C1978 1.574 . S
C1970 C1986 1.368 . S
H1971 C1979 0.950 . S
H1972 C1977 0.950 . S
H1973 C1978 0.949 . S
H1974 C1980 0.950 . S
H1975 C1981 0.950 . S
H1976 C1982 0.949 . S
C1977 H1972 0.950 . S
C1977 C1979 1.327 . S
C1977 C1983 1.429 . S
C1978 C1970 1.574 . S
C1978 H1973 0.949 . S
C1978 C1984 1.368 . S
C1979 C1963 1.349 . S
C1979 H1971 0.950 . S
C1979 C1977 1.327 . S
C1980 C1968 1.349 . S
C1980 H1974 0.950 . S
C1980 C1981 1.327 . S
C1981 H1975 0.950 . S
C1981 C1980 1.327 . S
C1981 C1985 1.429 . S
C1982 C1965 1.574 . S
C1982 H1976 0.949 . S
C1982 C1986 1.368 . S
C1983 C1964 1.429 . S
C1983 C1977 1.429 . S
C1983 C1984 1.523 . S
C1984 C1965 1.368 . S
C1984 C1978 1.368 . S
C1984 C1983 1.523 . S
C1985 C1969 1.429 . S
C1985 C1981 1.429 . S
C1985 C1986 1.523 . S
C1986 C1970 1.368 . S
C1986 C1982 1.368 . S
C1986 C1985 1.523 . S
H1987 C1962 0.950 . S
H1988 C1964 0.950 . S
H1989 C1965 0.949 . S
H1990 C1967 0.950 . S
H1991 C1969 0.950 . S
C1992 C1993 1.349 . S
C1992 C1994 1.327 . S
C1992 H2017 0.950 . S
C1993 C1992 1.349 . S
C1993 C2009 1.349 . S
C1994 C1992 1.327 . S
C1994 C2013 1.429 . S
C1994 H2018 0.950 . S
C1995 C2012 1.574 . S
C1995 C2014 1.368 . S
C1995 H2019 0.949 . S
H1996 C2000 0.949 . S
C1997 C1998 1.349 . S
C1997 C1999 1.327 . S
C1997 H2020 0.950 . S
C1998 C1997 1.349 . S
C1998 C2010 1.349 . S
C1999 C1997 1.327 . S
C1999 C2015 1.429 . S
C1999 H2021 0.950 . S
C2000 H1996 0.949 . S
C2000 C2008 1.574 . S
C2000 C2016 1.368 . S
H2001 C2009 0.950 . S
H2002 C2007 0.950 . S
H2003 C2008 0.949 . S
H2004 C2010 0.950 . S
H2005 C2011 0.950 . S
H2006 C2012 0.949 . S
C2007 H2002 0.950 . S
C2007 C2009 1.327 . S
C2007 C2013 1.429 . S
C2008 C2000 1.574 . S
C2008 H2003 0.949 . S
C2008 C2014 1.368 . S
C2009 C1993 1.349 . S
C2009 H2001 0.950 . S
C2009 C2007 1.327 . S
C2010 C1998 1.349 . S
C2010 H2004 0.950 . S
C2010 C2011 1.327 . S
C2011 H2005 0.950 . S
C2011 C2010 1.327 . S
C2011 C2015 1.429 . S
C2012 C1995 1.574 . S
C2012 H2006 0.949 . S
C2012 C2016 1.368 . S
C2013 C1994 1.429 . S
C2013 C2007 1.429 . S
C2013 C2014 1.523 . S
C2014 C1995 1.368 . S
C2014 C2008 1.368 . S
C2014 C2013 1.523 . S
C2015 C1999 1.429 . S
C2015 C2011 1.429 . S
C2015 C2016 1.523 . S
C2016 C2000 1.368 . S
C2016 C2012 1.368 . S
C2016 C2015 1.523 . S
H2017 C1992 0.950 . S
H2018 C1994 0.950 . S
H2019 C1995 0.949 . S
H2020 C1997 0.950 . S
H2021 C1999 0.950 . S
C2022 C2023 1.349 . S
C2022 C2024 1.327 . S
C2022 H2047 0.950 . S
C2023 C2022 1.349 . S
C2023 C2039 1.349 . S
C2024 C2022 1.327 . S
C2024 C2043 1.429 . S
C2024 H2048 0.950 . S
C2025 C2042 1.574 . S
C2025 C2044 1.368 . S
C2025 H2049 0.949 . S
H2026 C2030 0.949 . S
C2027 C2028 1.349 . S
C2027 C2029 1.327 . S
C2027 H2050 0.950 . S
C2028 C2027 1.349 . S
C2028 C2040 1.349 . S
C2029 C2027 1.327 . S
C2029 C2045 1.429 . S
C2029 H2051 0.950 . S
C2030 H2026 0.949 . S
C2030 C2038 1.574 . S
C2030 C2046 1.368 . S
H2031 C2039 0.950 . S
H2032 C2037 0.950 . S
H2033 C2038 0.949 . S
H2034 C2040 0.950 . S
H2035 C2041 0.950 . S
H2036 C2042 0.949 . S
C2037 H2032 0.950 . S
C2037 C2039 1.327 . S
C2037 C2043 1.429 . S
C2038 C2030 1.574 . S
C2038 H2033 0.949 . S
C2038 C2044 1.368 . S
C2039 C2023 1.349 . S
C2039 H2031 0.950 . S
C2039 C2037 1.327 . S
C2040 C2028 1.349 . S
C2040 H2034 0.950 . S
C2040 C2041 1.327 . S
C2041 H2035 0.950 . S
C2041 C2040 1.327 . S
C2041 C2045 1.429 . S
C2042 C2025 1.574 . S
C2042 H2036 0.949 . S
C2042 C2046 1.368 . S
C2043 C2024 1.429 . S
C2043 C2037 1.429 . S
C2043 C2044 1.523 . S
C2044 C2025 1.368 . S
C2044 C2038 1.368 . S
C2044 C2043 1.523 . S
C2045 C2029 1.429 . S
C2045 C2041 1.429 . S
C2045 C2046 1.523 . S
C2046 C2030 1.368 . S
C2046 C2042 1.368 . S
C2046 C2045 1.523 . S
H2047 C2022 0.950 . S
H2048 C2024 0.950 . S
H2049 C2025 0.949 . S
H2050 C2027 0.950 . S
H2051 C2029 0.950 . S
C2052 C2053 1.349 . S
C2052 C2054 1.327 . S
C2052 H2077 0.950 . S
C2053 C2052 1.349 . S
C2053 C2069 1.349 . S
C2054 C2052 1.327 . S
C2054 C2073 1.429 . S
C2054 H2078 0.950 . S
C2055 C2072 1.574 . S
C2055 C2074 1.368 . S
C2055 H2079 0.949 . S
H2056 C2060 0.949 . S
C2057 C2058 1.349 . S
C2057 C2059 1.327 . S
C2057 H2080 0.950 . S
C2058 C2057 1.349 . S
C2058 C2070 1.349 . S
C2059 C2057 1.327 . S
C2059 C2075 1.429 . S
C2059 H2081 0.950 . S
C2060 H2056 0.949 . S
C2060 C2068 1.574 . S
C2060 C2076 1.368 . S
H2061 C2069 0.950 . S
H2062 C2067 0.950 . S
H2063 C2068 0.949 . S
H2064 C2070 0.950 . S
H2065 C2071 0.950 . S
H2066 C2072 0.949 . S
C2067 H2062 0.950 . S
C2067 C2069 1.327 . S
C2067 C2073 1.429 . S
C2068 C2060 1.574 . S
C2068 H2063 0.949 . S
C2068 C2074 1.368 . S
C2069 C2053 1.349 . S
C2069 H2061 0.950 . S
C2069 C2067 1.327 . S
C2070 C2058 1.349 . S
C2070 H2064 0.950 . S
C2070 C2071 1.327 . S
C2071 H2065 0.950 . S
C2071 C2070 1.327 . S
C2071 C2075 1.429 . S
C2072 C2055 1.574 . S
C2072 H2066 0.949 . S
C2072 C2076 1.368 . S
C2073 C2054 1.429 . S
C2073 C2067 1.429 . S
C2073 C2074 1.523 . S
C2074 C2055 1.368 . S
C2074 C2068 1.368 . S
C2074 C2073 1.523 . S
C2075 C2059 1.429 . S
C2075 C2071 1.429 . S
C2075 C2076 1.523 . S
C2076 C2060 1.368 . S
C2076 C2072 1.368 . S
C2076 C2075 1.523 . S
H2077 C2052 0.950 . S
H2078 C2054 0.950 . S
H2079 C2055 0.949 . S
H2080 C2057 0.950 . S
H2081 C2059 0.950 . S
C2082 C2083 1.349 . S
C2082 C2084 1.327 . S
C2082 H2107 0.950 . S
C2083 C2082 1.349 . S
C2083 C2099 1.349 . S
C2084 C2082 1.327 . S
C2084 C2103 1.429 . S
C2084 H2108 0.950 . S
C2085 C2102 1.574 . S
C2085 C2104 1.368 . S
C2085 H2109 0.949 . S
H2086 C2090 0.949 . S
C2087 C2088 1.349 . S
C2087 C2089 1.327 . S
C2087 H2110 0.950 . S
C2088 C2087 1.349 . S
C2088 C2100 1.349 . S
C2089 C2087 1.327 . S
C2089 C2105 1.429 . S
C2089 H2111 0.950 . S
C2090 H2086 0.949 . S
C2090 C2098 1.574 . S
C2090 C2106 1.368 . S
H2091 C2099 0.950 . S
H2092 C2097 0.950 . S
H2093 C2098 0.949 . S
H2094 C2100 0.950 . S
H2095 C2101 0.950 . S
H2096 C2102 0.949 . S
C2097 H2092 0.950 . S
C2097 C2099 1.327 . S
C2097 C2103 1.429 . S
C2098 C2090 1.574 . S
C2098 H2093 0.949 . S
C2098 C2104 1.368 . S
C2099 C2083 1.349 . S
C2099 H2091 0.950 . S
C2099 C2097 1.327 . S
C2100 C2088 1.349 . S
C2100 H2094 0.950 . S
C2100 C2101 1.327 . S
C2101 H2095 0.950 . S
C2101 C2100 1.327 . S
C2101 C2105 1.429 . S
C2102 C2085 1.574 . S
C2102 H2096 0.949 . S
C2102 C2106 1.368 . S
C2103 C2084 1.429 . S
C2103 C2097 1.429 . S
C2103 C2104 1.523 . S
C2104 C2085 1.368 . S
C2104 C2098 1.368 . S
C2104 C2103 1.523 . S
C2105 C2089 1.429 . S
C2105 C2101 1.429 . S
C2105 C2106 1.523 . S
C2106 C2090 1.368 . S
C2106 C2102 1.368 . S
C2106 C2105 1.523 . S
H2107 C2082 0.950 . S
H2108 C2084 0.950 . S
H2109 C2085 0.949 . S
H2110 C2087 0.950 . S
H2111 C2089 0.950 . S
C2112 C2113 1.349 1_565 S
C2112 C2114 1.332 . S
C2112 H2137 0.950 . S
C2113 C2112 1.349 1_545 S
C2113 C2129 1.349 . S
C2114 C2112 1.332 . S
C2114 C2133 1.418 1_565 S
C2114 H2138 0.956 . S
C2115 C2132 1.574 . S
C2115 C2134 1.368 . S
C2115 H2139 0.949 . S
H2116 C2120 0.949 . S
C2117 C2118 1.349 . S
C2117 C2119 1.327 . S
C2117 H2140 0.950 . S
C2118 C2117 1.349 . S
C2118 C2130 1.349 . S
C2119 C2117 1.327 . S
C2119 C2135 1.429 . S
C2119 H2141 0.950 . S
C2120 H2116 0.949 . S
C2120 C2128 1.574 . S
C2120 C2136 1.368 . S
H2121 C2129 0.950 . S
H2122 C2127 0.950 . S
H2123 C2128 0.949 . S
H2124 C2130 0.950 . S
H2125 C2131 0.950 . S
H2126 C2132 0.949 . S
C2127 H2122 0.950 . S
C2127 C2129 1.327 . S
C2127 C2133 1.429 . S
C2128 C2120 1.574 . S
C2128 H2123 0.949 . S
C2128 C2134 1.368 . S
C2129 C2113 1.349 . S
C2129 H2121 0.950 . S
C2129 C2127 1.327 . S
C2130 C2118 1.349 . S
C2130 H2124 0.950 . S
C2130 C2131 1.327 . S
C2131 H2125 0.950 . S
C2131 C2130 1.327 . S
C2131 C2135 1.429 . S
C2132 C2115 1.574 . S
C2132 H2126 0.949 . S
C2132 C2136 1.368 . S
C2133 C2114 1.418 1_545 S
C2133 C2127 1.429 . S
C2133 C2134 1.523 . S
C2134 C2115 1.368 . S
C2134 C2128 1.368 . S
C2134 C2133 1.523 . S
C2135 C2119 1.429 . S
C2135 C2131 1.429 . S
C2135 C2136 1.523 . S
C2136 C2120 1.368 . S
C2136 C2132 1.368 . S
C2136 C2135 1.523 . S
H2137 C2112 0.950 . S
H2138 C2114 0.956 . S
H2139 C2115 0.949 . S
H2140 C2117 0.950 . S
H2141 C2119 0.950 . S
C2142 C2143 1.349 . S
C2142 C2144 1.327 . S
C2142 H2167 0.950 . S
C2143 C2142 1.349 . S
C2143 C2159 1.349 . S
C2144 C2142 1.327 . S
C2144 C2163 1.429 . S
C2144 H2168 0.950 . S
C2145 C2162 1.574 . S
C2145 C2164 1.368 . S
C2145 H2169 0.949 . S
H2146 C2150 0.949 . S
C2147 C2148 1.349 . S
C2147 C2149 1.327 . S
C2147 H2170 0.950 . S
C2148 C2147 1.349 . S
C2148 C2160 1.349 . S
C2149 C2147 1.327 . S
C2149 C2165 1.429 . S
C2149 H2171 0.950 . S
C2150 H2146 0.949 . S
C2150 C2158 1.574 . S
C2150 C2166 1.368 . S
H2151 C2159 0.950 . S
H2152 C2157 0.950 . S
H2153 C2158 0.949 . S
H2154 C2160 0.950 . S
H2155 C2161 0.950 . S
H2156 C2162 0.949 . S
C2157 H2152 0.950 . S
C2157 C2159 1.327 . S
C2157 C2163 1.429 . S
C2158 C2150 1.574 . S
C2158 H2153 0.949 . S
C2158 C2164 1.368 . S
C2159 C2143 1.349 . S
C2159 H2151 0.950 . S
C2159 C2157 1.327 . S
C2160 C2148 1.349 . S
C2160 H2154 0.950 . S
C2160 C2161 1.327 . S
C2161 H2155 0.950 . S
C2161 C2160 1.327 . S
C2161 C2165 1.429 . S
C2162 C2145 1.574 . S
C2162 H2156 0.949 . S
C2162 C2166 1.368 . S
C2163 C2144 1.429 . S
C2163 C2157 1.429 . S
C2163 C2164 1.523 . S
C2164 C2145 1.368 . S
C2164 C2158 1.368 . S
C2164 C2163 1.523 . S
C2165 C2149 1.429 . S
C2165 C2161 1.429 . S
C2165 C2166 1.523 . S
C2166 C2150 1.368 . S
C2166 C2162 1.368 . S
C2166 C2165 1.523 . S
H2167 C2142 0.950 . S
H2168 C2144 0.950 . S
H2169 C2145 0.949 . S
H2170 C2147 0.950 . S
H2171 C2149 0.950 . S
C2172 C2173 1.349 . S
C2172 C2174 1.327 . S
C2172 H2197 0.950 . S
C2173 C2172 1.349 . S
C2173 C2189 1.349 . S
C2174 C2172 1.327 . S
C2174 C2193 1.429 . S
C2174 H2198 0.950 . S
C2175 C2192 1.574 . S
C2175 C2194 1.368 . S
C2175 H2199 0.949 . S
H2176 C2180 0.949 . S
C2177 C2178 1.349 . S
C2177 C2179 1.327 . S
C2177 H2200 0.950 . S
C2178 C2177 1.349 . S
C2178 C2190 1.349 . S
C2179 C2177 1.327 . S
C2179 C2195 1.429 . S
C2179 H2201 0.950 . S
C2180 H2176 0.949 . S
C2180 C2188 1.574 . S
C2180 C2196 1.368 . S
H2181 C2189 0.950 . S
H2182 C2187 0.950 . S
H2183 C2188 0.949 . S
H2184 C2190 0.950 . S
H2185 C2191 0.950 . S
H2186 C2192 0.949 . S
C2187 H2182 0.950 . S
C2187 C2189 1.327 . S
C2187 C2193 1.429 . S
C2188 C2180 1.574 . S
C2188 H2183 0.949 . S
C2188 C2194 1.368 . S
C2189 C2173 1.349 . S
C2189 H2181 0.950 . S
C2189 C2187 1.327 . S
C2190 C2178 1.349 . S
C2190 H2184 0.950 . S
C2190 C2191 1.327 . S
C2191 H2185 0.950 . S
C2191 C2190 1.327 . S
C2191 C2195 1.429 . S
C2192 C2175 1.574 . S
C2192 H2186 0.949 . S
C2192 C2196 1.368 . S
C2193 C2174 1.429 . S
C2193 C2187 1.429 . S
C2193 C2194 1.523 . S
C2194 C2175 1.368 . S
C2194 C2188 1.368 . S
C2194 C2193 1.523 . S
C2195 C2179 1.429 . S
C2195 C2191 1.429 . S
C2195 C2196 1.523 . S
C2196 C2180 1.368 . S
C2196 C2192 1.368 . S
C2196 C2195 1.523 . S
H2197 C2172 0.950 . S
H2198 C2174 0.950 . S
H2199 C2175 0.949 . S
H2200 C2177 0.950 . S
H2201 C2179 0.950 . S
C2202 C2203 1.349 . S
C2202 C2204 1.327 . S
C2202 H2227 0.950 . S
C2203 C2202 1.349 . S
C2203 C2219 1.349 . S
C2204 C2202 1.327 . S
C2204 C2223 1.429 . S
C2204 H2228 0.950 . S
C2205 C2222 1.574 . S
C2205 C2224 1.368 . S
C2205 H2229 0.949 . S
H2206 C2210 0.949 . S
C2207 C2208 1.349 . S
C2207 C2209 1.327 . S
C2207 H2230 0.950 . S
C2208 C2207 1.349 . S
C2208 C2220 1.349 . S
C2209 C2207 1.327 . S
C2209 C2225 1.429 . S
C2209 H2231 0.950 . S
C2210 H2206 0.949 . S
C2210 C2218 1.574 . S
C2210 C2226 1.368 . S
H2211 C2219 0.950 . S
H2212 C2217 0.950 . S
H2213 C2218 0.949 . S
H2214 C2220 0.950 . S
H2215 C2221 0.950 . S
H2216 C2222 0.949 . S
C2217 H2212 0.950 . S
C2217 C2219 1.327 . S
C2217 C2223 1.429 . S
C2218 C2210 1.574 . S
C2218 H2213 0.949 . S
C2218 C2224 1.368 . S
C2219 C2203 1.349 . S
C2219 H2211 0.950 . S
C2219 C2217 1.327 . S
C2220 C2208 1.349 . S
C2220 H2214 0.950 . S
C2220 C2221 1.327 . S
C2221 H2215 0.950 . S
C2221 C2220 1.327 . S
C2221 C2225 1.429 . S
C2222 C2205 1.574 . S
C2222 H2216 0.949 . S
C2222 C2226 1.368 . S
C2223 C2204 1.429 . S
C2223 C2217 1.429 . S
C2223 C2224 1.523 . S
C2224 C2205 1.368 . S
C2224 C2218 1.368 . S
C2224 C2223 1.523 . S
C2225 C2209 1.429 . S
C2225 C2221 1.429 . S
C2225 C2226 1.523 . S
C2226 C2210 1.368 . S
C2226 C2222 1.368 . S
C2226 C2225 1.523 . S
H2227 C2202 0.950 . S
H2228 C2204 0.950 . S
H2229 C2205 0.949 . S
H2230 C2207 0.950 . S
H2231 C2209 0.950 . S
C2232 C2233 1.349 . S
C2232 C2234 1.327 . S
C2232 H2257 0.950 . S
C2233 C2232 1.349 . S
C2233 C2249 1.349 . S
C2234 C2232 1.327 . S
C2234 C2253 1.429 . S
C2234 H2258 0.950 . S
C2235 C2252 1.574 . S
C2235 C2254 1.368 . S
C2235 H2259 0.949 . S
H2236 C2240 0.949 . S
C2237 C2238 1.349 . S
C2237 C2239 1.327 . S
C2237 H2260 0.932 1_545 S
C2238 C2237 1.349 . S
C2238 C2250 1.349 . S
C2239 C2237 1.327 . S
C2239 C2255 1.429 . S
C2239 H2261 0.950 . S
C2240 H2236 0.949 . S
C2240 C2248 1.574 . S
C2240 C2256 1.368 . S
H2241 C2249 0.950 . S
H2242 C2247 0.950 . S
H2243 C2248 0.949 . S
H2244 C2250 0.950 . S
H2245 C2251 0.950 . S
H2246 C2252 0.949 . S
C2247 H2242 0.950 . S
C2247 C2249 1.327 . S
C2247 C2253 1.429 . S
C2248 C2240 1.574 . S
C2248 H2243 0.949 . S
C2248 C2254 1.368 . S
C2249 C2233 1.349 . S
C2249 H2241 0.950 . S
C2249 C2247 1.327 . S
C2250 C2238 1.349 . S
C2250 H2244 0.950 . S
C2250 C2251 1.327 . S
C2251 H2245 0.950 . S
C2251 C2250 1.327 . S
C2251 C2255 1.429 . S
C2252 C2235 1.574 . S
C2252 H2246 0.949 . S
C2252 C2256 1.368 . S
C2253 C2234 1.429 . S
C2253 C2247 1.429 . S
C2253 C2254 1.523 . S
C2254 C2235 1.368 . S
C2254 C2248 1.368 . S
C2254 C2253 1.523 . S
C2255 C2239 1.429 . S
C2255 C2251 1.429 . S
C2255 C2256 1.523 . S
C2256 C2240 1.368 . S
C2256 C2252 1.368 . S
C2256 C2255 1.523 . S
H2257 C2232 0.950 . S
H2258 C2234 0.950 . S
H2259 C2235 0.949 . S
H2260 C2237 0.932 1_565 S
H2261 C2239 0.950 . S
C2262 C2263 1.349 . S
C2262 C2264 1.327 . S
C2262 H2287 0.950 . S
C2263 C2262 1.349 . S
C2263 C2279 1.349 . S
C2264 C2262 1.327 . S
C2264 C2283 1.429 . S
C2264 H2288 0.950 . S
C2265 C2282 1.574 . S
C2265 C2284 1.368 . S
C2265 H2289 0.949 . S
H2266 C2270 0.949 . S
C2267 C2268 1.349 . S
C2267 C2269 1.327 . S
C2267 H2290 0.950 . S
C2268 C2267 1.349 . S
C2268 C2280 1.349 . S
C2269 C2267 1.327 . S
C2269 C2285 1.429 . S
C2269 H2291 0.950 . S
C2270 H2266 0.949 . S
C2270 C2278 1.574 . S
C2270 C2286 1.368 . S
H2271 C2279 0.950 . S
H2272 C2277 0.950 . S
H2273 C2278 0.949 . S
H2274 C2280 0.950 . S
H2275 C2281 0.950 . S
H2276 C2282 0.949 . S
C2277 H2272 0.950 . S
C2277 C2279 1.327 . S
C2277 C2283 1.429 . S
C2278 C2270 1.574 . S
C2278 H2273 0.949 . S
C2278 C2284 1.368 . S
C2279 C2263 1.349 . S
C2279 H2271 0.950 . S
C2279 C2277 1.327 . S
C2280 C2268 1.349 . S
C2280 H2274 0.950 . S
C2280 C2281 1.327 . S
C2281 H2275 0.950 . S
C2281 C2280 1.327 . S
C2281 C2285 1.429 . S
C2282 C2265 1.574 . S
C2282 H2276 0.949 . S
C2282 C2286 1.368 . S
C2283 C2264 1.429 . S
C2283 C2277 1.429 . S
C2283 C2284 1.523 . S
C2284 C2265 1.368 . S
C2284 C2278 1.368 . S
C2284 C2283 1.523 . S
C2285 C2269 1.429 . S
C2285 C2281 1.429 . S
C2285 C2286 1.523 . S
C2286 C2270 1.368 . S
C2286 C2282 1.368 . S
C2286 C2285 1.523 . S
H2287 C2262 0.950 . S
H2288 C2264 0.950 . S
H2289 C2265 0.949 . S
H2290 C2267 0.950 . S
H2291 C2269 0.950 . S
C2292 C2293 1.349 . S
C2292 C2294 1.327 . S
C2292 H2317 0.950 1_545 S
C2293 C2292 1.349 . S
C2293 C2309 1.349 . S
C2294 C2292 1.327 . S
C2294 C2313 1.429 . S
C2294 H2318 0.950 1_545 S
C2295 C2312 1.574 . S
C2295 C2314 1.368 . S
C2295 H2319 0.949 . S
H2296 C2300 0.949 . S
C2297 C2298 1.349 . S
C2297 C2299 1.327 . S
C2297 H2320 0.950 . S
C2298 C2297 1.349 . S
C2298 C2310 1.349 . S
C2299 C2297 1.327 . S
C2299 C2315 1.429 . S
C2299 H2321 0.950 . S
C2300 H2296 0.949 . S
C2300 C2308 1.574 . S
C2300 C2316 1.368 . S
H2301 C2309 0.950 . S
H2302 C2307 0.950 . S
H2303 C2308 0.949 . S
H2304 C2310 0.950 . S
H2305 C2311 0.950 . S
H2306 C2312 0.949 . S
C2307 H2302 0.950 . S
C2307 C2309 1.327 . S
C2307 C2313 1.429 . S
C2308 C2300 1.574 . S
C2308 H2303 0.949 . S
C2308 C2314 1.368 . S
C2309 C2293 1.349 . S
C2309 H2301 0.950 . S
C2309 C2307 1.327 . S
C2310 C2298 1.349 . S
C2310 H2304 0.950 . S
C2310 C2311 1.327 . S
C2311 H2305 0.950 . S
C2311 C2310 1.327 . S
C2311 C2315 1.429 . S
C2312 C2295 1.574 . S
C2312 H2306 0.949 . S
C2312 C2316 1.368 . S
C2313 C2294 1.429 . S
C2313 C2307 1.429 . S
C2313 C2314 1.523 . S
C2314 C2295 1.368 . S
C2314 C2308 1.368 . S
C2314 C2313 1.523 . S
C2315 C2299 1.429 . S
C2315 C2311 1.429 . S
C2315 C2316 1.523 . S
C2316 C2300 1.368 . S
C2316 C2312 1.368 . S
C2316 C2315 1.523 . S
H2317 C2292 0.950 1_565 S
H2318 C2294 0.950 1_565 S
H2319 C2295 0.949 . S
H2320 C2297 0.950 . S
H2321 C2299 0.950 . S
C2322 C2323 1.349 . S
C2322 C2324 1.327 . S
C2322 H2347 0.950 . S
C2323 C2322 1.349 . S
C2323 C2339 1.349 . S
C2324 C2322 1.327 . S
C2324 C2343 1.429 . S
C2324 H2348 0.950 . S
C2325 C2342 1.574 . S
C2325 C2344 1.368 . S
C2325 H2349 0.949 . S
H2326 C2330 0.949 . S
C2327 C2328 1.349 . S
C2327 C2329 1.327 . S
C2327 H2350 0.950 . S
C2328 C2327 1.349 . S
C2328 C2340 1.349 . S
C2329 C2327 1.327 . S
C2329 C2345 1.429 . S
C2329 H2351 0.950 . S
C2330 H2326 0.949 . S
C2330 C2338 1.574 . S
C2330 C2346 1.368 . S
H2331 C2339 0.950 . S
H2332 C2337 0.950 . S
H2333 C2338 0.949 . S
H2334 C2340 0.950 . S
H2335 C2341 0.950 . S
H2336 C2342 0.949 . S
C2337 H2332 0.950 . S
C2337 C2339 1.327 . S
C2337 C2343 1.429 . S
C2338 C2330 1.574 . S
C2338 H2333 0.949 . S
C2338 C2344 1.368 . S
C2339 C2323 1.349 . S
C2339 H2331 0.950 . S
C2339 C2337 1.327 . S
C2340 C2328 1.349 . S
C2340 H2334 0.950 . S
C2340 C2341 1.327 . S
C2341 H2335 0.950 . S
C2341 C2340 1.327 . S
C2341 C2345 1.429 . S
C2342 C2325 1.574 . S
C2342 H2336 0.949 . S
C2342 C2346 1.368 . S
C2343 C2324 1.429 . S
C2343 C2337 1.429 . S
C2343 C2344 1.523 . S
C2344 C2325 1.368 . S
C2344 C2338 1.368 . S
C2344 C2343 1.523 . S
C2345 C2329 1.429 . S
C2345 C2341 1.429 . S
C2345 C2346 1.523 . S
C2346 C2330 1.368 . S
C2346 C2342 1.368 . S
C2346 C2345 1.523 . S
H2347 C2322 0.950 . S
H2348 C2324 0.950 . S
H2349 C2325 0.949 . S
H2350 C2327 0.950 . S
H2351 C2329 0.950 . S
C2352 C2353 1.349 . S
C2352 C2354 1.327 . S
C2352 H2377 0.950 . S
C2353 C2352 1.349 . S
C2353 C2369 1.349 . S
C2354 C2352 1.327 . S
C2354 C2373 1.429 . S
C2354 H2378 0.950 . S
C2355 C2372 1.574 . S
C2355 C2374 1.368 . S
C2355 H2379 0.949 . S
H2356 C2360 0.949 . S
C2357 C2358 1.349 . S
C2357 C2359 1.327 . S
C2357 H2380 0.950 . S
C2358 C2357 1.349 . S
C2358 C2370 1.349 . S
C2359 C2357 1.327 . S
C2359 C2375 1.429 . S
C2359 H2381 0.950 . S
C2360 H2356 0.949 . S
C2360 C2368 1.574 . S
C2360 C2376 1.368 . S
H2361 C2369 0.950 . S
H2362 C2367 0.950 . S
H2363 C2368 0.949 . S
H2364 C2370 0.950 . S
H2365 C2371 0.950 . S
H2366 C2372 0.949 . S
C2367 H2362 0.950 . S
C2367 C2369 1.327 . S
C2367 C2373 1.429 . S
C2368 C2360 1.574 . S
C2368 H2363 0.949 . S
C2368 C2374 1.368 . S
C2369 C2353 1.349 . S
C2369 H2361 0.950 . S
C2369 C2367 1.327 . S
C2370 C2358 1.349 . S
C2370 H2364 0.950 . S
C2370 C2371 1.327 . S
C2371 H2365 0.950 . S
C2371 C2370 1.327 . S
C2371 C2375 1.429 . S
C2372 C2355 1.574 . S
C2372 H2366 0.949 . S
C2372 C2376 1.368 . S
C2373 C2354 1.429 . S
C2373 C2367 1.429 . S
C2373 C2374 1.523 . S
C2374 C2355 1.368 . S
C2374 C2368 1.368 . S
C2374 C2373 1.523 . S
C2375 C2359 1.429 . S
C2375 C2371 1.429 . S
C2375 C2376 1.523 . S
C2376 C2360 1.368 . S
C2376 C2372 1.368 . S
C2376 C2375 1.523 . S
H2377 C2352 0.950 . S
H2378 C2354 0.950 . S
H2379 C2355 0.949 . S
H2380 C2357 0.950 . S
H2381 C2359 0.950 . S
C2382 C2383 1.349 . S
C2382 C2384 1.327 . S
C2382 H2407 0.950 . S
C2383 C2382 1.349 . S
C2383 C2399 1.349 . S
C2384 C2382 1.327 . S
C2384 C2403 1.429 . S
C2384 H2408 0.950 . S
C2385 C2402 1.574 . S
C2385 C2404 1.368 . S
C2385 H2409 0.949 . S
H2386 C2390 0.949 . S
C2387 C2388 1.349 . S
C2387 C2389 1.327 . S
C2387 H2410 0.950 . S
C2388 C2387 1.349 . S
C2388 C2400 1.349 . S
C2389 C2387 1.327 . S
C2389 C2405 1.429 . S
C2389 H2411 0.950 . S
C2390 H2386 0.949 . S
C2390 C2398 1.574 . S
C2390 C2406 1.368 . S
H2391 C2399 0.950 . S
H2392 C2397 0.950 . S
H2393 C2398 0.949 . S
H2394 C2400 0.950 . S
H2395 C2401 0.950 . S
H2396 C2402 0.949 . S
C2397 H2392 0.950 . S
C2397 C2399 1.327 . S
C2397 C2403 1.429 . S
C2398 C2390 1.574 . S
C2398 H2393 0.949 . S
C2398 C2404 1.368 . S
C2399 C2383 1.349 . S
C2399 H2391 0.950 . S
C2399 C2397 1.327 . S
C2400 C2388 1.349 . S
C2400 H2394 0.950 . S
C2400 C2401 1.327 . S
C2401 H2395 0.950 . S
C2401 C2400 1.327 . S
C2401 C2405 1.429 . S
C2402 C2385 1.574 . S
C2402 H2396 0.949 . S
C2402 C2406 1.368 . S
C2403 C2384 1.429 . S
C2403 C2397 1.429 . S
C2403 C2404 1.523 . S
C2404 C2385 1.368 . S
C2404 C2398 1.368 . S
C2404 C2403 1.523 . S
C2405 C2389 1.429 . S
C2405 C2401 1.429 . S
C2405 C2406 1.523 . S
C2406 C2390 1.368 . S
C2406 C2402 1.368 . S
C2406 C2405 1.523 . S
H2407 C2382 0.950 . S
H2408 C2384 0.950 . S
H2409 C2385 0.949 . S
H2410 C2387 0.950 . S
H2411 C2389 0.950 . S
C2412 C2413 1.349 . S
C2412 C2414 1.327 . S
C2412 H2437 0.950 . S
C2413 C2412 1.349 . S
C2413 C2429 1.349 . S
C2414 C2412 1.327 . S
C2414 C2433 1.429 . S
C2414 H2438 0.950 . S
C2415 C2432 1.574 . S
C2415 C2434 1.368 . S
C2415 H2439 0.949 . S
H2416 C2420 0.949 . S
C2417 C2418 1.349 . S
C2417 C2419 1.327 . S
C2417 H2440 0.950 . S
C2418 C2417 1.349 . S
C2418 C2430 1.349 . S
C2419 C2417 1.327 . S
C2419 C2435 1.429 . S
C2419 H2441 0.950 . S
C2420 H2416 0.949 . S
C2420 C2428 1.574 . S
C2420 C2436 1.368 . S
H2421 C2429 0.950 . S
H2422 C2427 0.950 . S
H2423 C2428 0.949 . S
H2424 C2430 0.950 . S
H2425 C2431 0.950 . S
H2426 C2432 0.949 . S
C2427 H2422 0.950 . S
C2427 C2429 1.327 . S
C2427 C2433 1.429 . S
C2428 C2420 1.574 . S
C2428 H2423 0.949 . S
C2428 C2434 1.368 . S
C2429 C2413 1.349 . S
C2429 H2421 0.950 . S
C2429 C2427 1.327 . S
C2430 C2418 1.349 . S
C2430 H2424 0.950 . S
C2430 C2431 1.327 . S
C2431 H2425 0.950 . S
C2431 C2430 1.327 . S
C2431 C2435 1.429 . S
C2432 C2415 1.574 . S
C2432 H2426 0.949 . S
C2432 C2436 1.368 . S
C2433 C2414 1.429 . S
C2433 C2427 1.429 . S
C2433 C2434 1.523 . S
C2434 C2415 1.368 . S
C2434 C2428 1.368 . S
C2434 C2433 1.523 . S
C2435 C2419 1.429 . S
C2435 C2431 1.429 . S
C2435 C2436 1.523 . S
C2436 C2420 1.368 . S
C2436 C2432 1.368 . S
C2436 C2435 1.523 . S
H2437 C2412 0.950 . S
H2438 C2414 0.950 . S
H2439 C2415 0.949 . S
H2440 C2417 0.950 . S
H2441 C2419 0.950 . S
C2442 C2443 1.349 . S
C2442 C2444 1.327 . S
C2442 H2467 0.950 . S
C2443 C2442 1.349 . S
C2443 C2459 1.349 . S
C2444 C2442 1.327 . S
C2444 C2463 1.429 . S
C2444 H2468 0.950 . S
C2445 C2462 1.574 . S
C2445 C2464 1.368 . S
C2445 H2469 0.949 . S
H2446 C2450 0.949 . S
C2447 C2448 1.349 . S
C2447 C2449 1.327 . S
C2447 H2470 0.950 . S
C2448 C2447 1.349 . S
C2448 C2460 1.349 . S
C2449 C2447 1.327 . S
C2449 C2465 1.429 . S
C2449 H2471 0.950 . S
C2450 H2446 0.949 . S
C2450 C2458 1.574 . S
C2450 C2466 1.368 . S
H2451 C2459 0.950 . S
H2452 C2457 0.950 . S
H2453 C2458 0.949 . S
H2454 C2460 0.950 . S
H2455 C2461 0.950 . S
H2456 C2462 0.949 . S
C2457 H2452 0.950 . S
C2457 C2459 1.327 . S
C2457 C2463 1.429 . S
C2458 C2450 1.574 . S
C2458 H2453 0.949 . S
C2458 C2464 1.368 . S
C2459 C2443 1.349 . S
C2459 H2451 0.950 . S
C2459 C2457 1.327 . S
C2460 C2448 1.349 . S
C2460 H2454 0.950 . S
C2460 C2461 1.327 . S
C2461 H2455 0.950 . S
C2461 C2460 1.327 . S
C2461 C2465 1.429 . S
C2462 C2445 1.574 . S
C2462 H2456 0.949 . S
C2462 C2466 1.368 . S
C2463 C2444 1.429 . S
C2463 C2457 1.429 . S
C2463 C2464 1.523 . S
C2464 C2445 1.368 . S
C2464 C2458 1.368 . S
C2464 C2463 1.523 . S
C2465 C2449 1.429 . S
C2465 C2461 1.429 . S
C2465 C2466 1.523 . S
C2466 C2450 1.368 . S
C2466 C2462 1.368 . S
C2466 C2465 1.523 . S
H2467 C2442 0.950 . S
H2468 C2444 0.950 . S
H2469 C2445 0.949 . S
H2470 C2447 0.950 . S
H2471 C2449 0.950 . S
C2472 C2473 1.349 . S
C2472 C2474 1.327 . S
C2472 H2497 0.950 . S
C2473 C2472 1.349 . S
C2473 C2489 1.349 . S
C2474 C2472 1.327 . S
C2474 C2493 1.429 . S
C2474 H2498 0.950 . S
C2475 C2492 1.574 . S
C2475 C2494 1.368 . S
C2475 H2499 0.949 . S
H2476 C2480 0.949 . S
C2477 C2478 1.349 . S
C2477 C2479 1.327 . S
C2477 H2500 0.950 . S
C2478 C2477 1.349 . S
C2478 C2490 1.349 . S
C2479 C2477 1.327 . S
C2479 C2495 1.429 . S
C2479 H2501 0.950 . S
C2480 H2476 0.949 . S
C2480 C2488 1.574 . S
C2480 C2496 1.368 . S
H2481 C2489 0.950 . S
H2482 C2487 0.950 . S
H2483 C2488 0.949 . S
H2484 C2490 0.950 . S
H2485 C2491 0.950 . S
H2486 C2492 0.949 . S
C2487 H2482 0.950 . S
C2487 C2489 1.327 . S
C2487 C2493 1.429 . S
C2488 C2480 1.574 . S
C2488 H2483 0.949 . S
C2488 C2494 1.368 . S
C2489 C2473 1.349 . S
C2489 H2481 0.950 . S
C2489 C2487 1.327 . S
C2490 C2478 1.349 . S
C2490 H2484 0.950 . S
C2490 C2491 1.327 . S
C2491 H2485 0.950 . S
C2491 C2490 1.327 . S
C2491 C2495 1.429 . S
C2492 C2475 1.574 . S
C2492 H2486 0.949 . S
C2492 C2496 1.368 . S
C2493 C2474 1.429 . S
C2493 C2487 1.429 . S
C2493 C2494 1.523 . S
C2494 C2475 1.368 . S
C2494 C2488 1.368 . S
C2494 C2493 1.523 . S
C2495 C2479 1.429 . S
C2495 C2491 1.429 . S
C2495 C2496 1.523 . S
C2496 C2480 1.368 . S
C2496 C2492 1.368 . S
C2496 C2495 1.523 . S
H2497 C2472 0.950 . S
H2498 C2474 0.950 . S
H2499 C2475 0.949 . S
H2500 C2477 0.950 . S
H2501 C2479 0.950 . S
C2502 C2503 1.349 . S
C2502 C2504 1.327 . S
C2502 H2527 0.950 . S
C2503 C2502 1.349 . S
C2503 C2519 1.349 . S
C2504 C2502 1.327 . S
C2504 C2523 1.429 . S
C2504 H2528 0.950 . S
C2505 C2522 1.574 . S
C2505 C2524 1.368 . S
C2505 H2529 0.949 . S
H2506 C2510 0.949 . S
C2507 C2508 1.349 . S
C2507 C2509 1.327 . S
C2507 H2530 0.950 . S
C2508 C2507 1.349 . S
C2508 C2520 1.349 . S
C2509 C2507 1.327 . S
C2509 C2525 1.429 . S
C2509 H2531 0.950 . S
C2510 H2506 0.949 . S
C2510 C2518 1.574 . S
C2510 C2526 1.368 . S
H2511 C2519 0.950 . S
H2512 C2517 0.950 . S
H2513 C2518 0.949 . S
H2514 C2520 0.950 . S
H2515 C2521 0.950 . S
H2516 C2522 0.949 . S
C2517 H2512 0.950 . S
C2517 C2519 1.327 . S
C2517 C2523 1.429 . S
C2518 C2510 1.574 . S
C2518 H2513 0.949 . S
C2518 C2524 1.368 . S
C2519 C2503 1.349 . S
C2519 H2511 0.950 . S
C2519 C2517 1.327 . S
C2520 C2508 1.349 . S
C2520 H2514 0.950 . S
C2520 C2521 1.327 . S
C2521 H2515 0.950 . S
C2521 C2520 1.327 . S
C2521 C2525 1.429 . S
C2522 C2505 1.574 . S
C2522 H2516 0.949 . S
C2522 C2526 1.368 . S
C2523 C2504 1.429 . S
C2523 C2517 1.429 . S
C2523 C2524 1.523 . S
C2524 C2505 1.368 . S
C2524 C2518 1.368 . S
C2524 C2523 1.523 . S
C2525 C2509 1.429 . S
C2525 C2521 1.429 . S
C2525 C2526 1.523 . S
C2526 C2510 1.368 . S
C2526 C2522 1.368 . S
C2526 C2525 1.523 . S
H2527 C2502 0.950 . S
H2528 C2504 0.950 . S
H2529 C2505 0.949 . S
H2530 C2507 0.950 . S
H2531 C2509 0.950 . S
C2532 C2533 1.349 . S
C2532 C2534 1.327 . S
C2532 H2557 0.950 . S
C2533 C2532 1.349 . S
C2533 C2549 1.349 . S
C2534 C2532 1.327 . S
C2534 C2553 1.429 . S
C2534 H2558 0.950 . S
C2535 C2552 1.574 . S
C2535 C2554 1.368 . S
C2535 H2559 0.949 . S
H2536 C2540 0.949 . S
C2537 C2538 1.349 . S
C2537 C2539 1.327 . S
C2537 H2560 0.950 . S
C2538 C2537 1.349 . S
C2538 C2550 1.349 . S
C2539 C2537 1.327 . S
C2539 C2555 1.429 . S
C2539 H2561 0.950 . S
C2540 H2536 0.949 . S
C2540 C2548 1.574 . S
C2540 C2556 1.368 . S
H2541 C2549 0.950 . S
H2542 C2547 0.950 . S
H2543 C2548 0.949 . S
H2544 C2550 0.950 . S
H2545 C2551 0.950 . S
H2546 C2552 0.949 . S
C2547 H2542 0.950 . S
C2547 C2549 1.327 . S
C2547 C2553 1.429 . S
C2548 C2540 1.574 . S
C2548 H2543 0.949 . S
C2548 C2554 1.368 . S
C2549 C2533 1.349 . S
C2549 H2541 0.950 . S
C2549 C2547 1.327 . S
C2550 C2538 1.349 . S
C2550 H2544 0.950 . S
C2550 C2551 1.327 . S
C2551 H2545 0.950 . S
C2551 C2550 1.327 . S
C2551 C2555 1.429 . S
C2552 C2535 1.574 . S
C2552 H2546 0.949 . S
C2552 C2556 1.368 . S
C2553 C2534 1.429 . S
C2553 C2547 1.429 . S
C2553 C2554 1.523 . S
C2554 C2535 1.368 . S
C2554 C2548 1.368 . S
C2554 C2553 1.523 . S
C2555 C2539 1.429 . S
C2555 C2551 1.429 . S
C2555 C2556 1.523 . S
C2556 C2540 1.368 . S
C2556 C2552 1.368 . S
C2556 C2555 1.523 . S
H2557 C2532 0.950 . S
H2558 C2534 0.950 . S
H2559 C2535 0.949 . S
H2560 C2537 0.950 . S
H2561 C2539 0.950 . S
C2562 C2563 1.349 . S
C2562 C2564 1.327 . S
C2562 H2587 0.950 . S
C2563 C2562 1.349 . S
C2563 C2579 1.349 . S
C2564 C2562 1.327 . S
C2564 C2583 1.429 . S
C2564 H2588 0.950 . S
C2565 C2582 1.574 . S
C2565 C2584 1.368 . S
C2565 H2589 0.949 . S
H2566 C2570 0.949 . S
C2567 C2568 1.349 . S
C2567 C2569 1.327 . S
C2567 H2590 0.950 . S
C2568 C2567 1.349 . S
C2568 C2580 1.349 . S
C2569 C2567 1.327 . S
C2569 C2585 1.429 . S
C2569 H2591 0.950 . S
C2570 H2566 0.949 . S
C2570 C2578 1.574 . S
C2570 C2586 1.368 . S
H2571 C2579 0.950 . S
H2572 C2577 0.950 . S
H2573 C2578 0.949 . S
H2574 C2580 0.950 . S
H2575 C2581 0.950 . S
H2576 C2582 0.949 . S
C2577 H2572 0.950 . S
C2577 C2579 1.327 . S
C2577 C2583 1.429 . S
C2578 C2570 1.574 . S
C2578 H2573 0.949 . S
C2578 C2584 1.368 . S
C2579 C2563 1.349 . S
C2579 H2571 0.950 . S
C2579 C2577 1.327 . S
C2580 C2568 1.349 . S
C2580 H2574 0.950 . S
C2580 C2581 1.327 . S
C2581 H2575 0.950 . S
C2581 C2580 1.327 . S
C2581 C2585 1.429 . S
C2582 C2565 1.574 . S
C2582 H2576 0.949 . S
C2582 C2586 1.368 . S
C2583 C2564 1.429 . S
C2583 C2577 1.429 . S
C2583 C2584 1.523 . S
C2584 C2565 1.368 . S
C2584 C2578 1.368 . S
C2584 C2583 1.523 . S
C2585 C2569 1.429 . S
C2585 C2581 1.429 . S
C2585 C2586 1.523 . S
C2586 C2570 1.368 . S
C2586 C2582 1.368 . S
C2586 C2585 1.523 . S
H2587 C2562 0.950 . S
H2588 C2564 0.950 . S
H2589 C2565 0.949 . S
H2590 C2567 0.950 . S
H2591 C2569 0.950 . S
C793 C21 0.536 . S
C798 C681 0.536 . S
C823 C582 0.536 . S
C828 C54 0.520 1_554 S
C853 C615 0.536 . S
C858 C87 0.536 . S
C883 C648 0.536 . S
C888 C120 0.536 . S
C913 C153 0.536 . S
C918 C780 0.536 . S
C943 C714 0.536 . S
C948 C186 0.536 . S
C973 C747 0.520 1_455 S
C978 C219 0.536 . S
C1003 C549 0.536 . S
C1008 C252 0.536 . S
C1033 C285 0.536 . S
C1038 C516 0.536 . S
C1063 C417 0.536 . S
C1068 C318 0.536 . S
C1093 C351 0.536 . S
C1098 C450 0.520 1_545 S
C1123 C483 0.536 . S
C1128 C384 0.536 . S
C1153 C634 1.210 . S
C1158 N13 1.029 . S
C1183 N46 1.029 . S
C1188 C667 1.210 . S
C1213 C568 1.210 . S
C1218 N79 1.029 . S
C1243 N112 1.029 . S
C1248 C601 1.210 . S
C1273 C700 1.210 . S
C1278 N145 1.029 . S
C1303 C733 1.210 . S
C1308 N178 1.029 . S
C1333 C535 1.210 1_556 S
C1338 N211 1.029 1_655 S
C1363 N244 1.029 . S
C1368 C766 1.210 . S
C1393 N277 1.029 . S
C1398 C73 1.210 . S
C1423 N310 1.029 . S
C1428 C106 1.210 . S
C1453 N343 1.029 1_565 S
C1458 C7 1.210 1_655 S
C1483 C40 1.210 . S
C1488 N376 1.029 . S
C1513 N409 1.029 . S
C1518 C205 1.210 . S
C1543 C238 1.210 . S
C1548 N442 1.029 . S
C1573 C139 1.210 . S
C1578 N475 1.029 . S
C1603 C172 1.210 . S
C1608 N508 1.029 . S
C1633 C403 1.210 . S
C1638 N541 1.029 . S
C1663 C271 1.210 1_565 S
C1668 N574 1.029 1_556 S
C1693 N607 1.029 . S
C1698 C304 1.210 . S
C1723 N640 1.029 . S
C1728 C337 1.210 . S
C1753 C370 1.210 . S
C1758 N673 1.029 . S
C1783 N706 1.029 . S
C1788 C469 1.210 . S
C1813 C502 1.210 . S
C1818 N739 1.029 . S
C1843 N772 1.029 . S
C1848 C436 1.210 . S
C1873 C18 0.882 . S
C1878 C744 0.881 1_455 S
C1903 C546 0.882 . S
C1908 C51 0.881 1_554 S
C1933 C84 0.882 . S
C1938 C777 0.882 . S
C1963 C711 0.882 . S
C1968 C117 0.881 . S
C1993 C150 0.882 . S
C1998 C612 0.881 . S
C2023 C645 0.882 . S
C2028 C183 0.882 . S
C2053 C216 0.881 . S
C2058 C678 0.881 . S
C2083 C579 0.881 . S
C2088 C249 0.881 . S
C2113 C447 0.881 1_545 S
C2118 C282 0.882 . S
C2143 C480 0.882 . S
C2148 C315 0.881 . S
C2173 C348 0.881 . S
C2178 C513 0.881 . S
C2203 C381 0.882 . S
C2208 C414 0.882 . S
C2233 N497 0.593 . S
C2238 N2 0.593 . S
C2263 N35 0.593 . S
C2268 N398 0.593 . S
C2293 N431 0.593 . S
C2298 N68 0.593 . S
C2323 N464 0.593 . S
C2328 N101 0.593 . S
C2353 N134 0.593 . S
C2358 N299 0.593 . S
C2383 N332 0.593 . S
C2388 N167 0.593 . S
C2413 N200 0.593 . S
C2418 N365 0.593 . S
C2443 N266 0.593 . S
C2448 N233 0.593 . S
C2473 N662 0.593 . S
C2478 N530 0.593 . S
C2503 N761 0.593 . S
C2508 N563 0.593 . S
C2533 N695 0.593 . S
C2538 N596 0.593 . S
C2563 N728 0.593 . S
C2568 N629 0.593 . S
