# Generated by pormake.
# Topology wjy, (5)-cn, num edge types: 1
# Building blocks:
#     Node 0, Type 0, BuildingBlock: XOMCOT_clean_sbu_0, # of connection points: 5
#     Node 1, Type 0, BuildingBlock: XOMCOT_clean_sbu_0, # of connection points: 5
#     Node 2, Type 0, BuildingBlock: XOMCOT_clean_sbu_0, # of connection points: 5
#     Node 3, Type 0, BuildingBlock: XOMCOT_clean_sbu_0, # of connection points: 5
#     Node 4, Type 0, BuildingBlock: XOMCOT_clean_sbu_0, # of connection points: 5
#     Node 5, Type 0, BuildingBlock: XOMCOT_clean_sbu_0, # of connection points: 5
#     Node 6, Type 0, BuildingBlock: XOMCOT_clean_sbu_0, # of connection points: 5
#     Node 7, Type 0, BuildingBlock: XOMCOT_clean_sbu_0, # of connection points: 5
#     Node 8, Type 0, BuildingBlock: XOMCOT_clean_sbu_0, # of connection points: 5
#     Node 9, Type 0, BuildingBlock: XOMCOT_clean_sbu_0, # of connection points: 5
#     Node 10, Type 0, BuildingBlock: XOMCOT_clean_sbu_0, # of connection points: 5
#     Node 11, Type 0, BuildingBlock: XOMCOT_clean_sbu_0, # of connection points: 5
#     Edge 12, Type (0, 0), BuildingBlock: UVAHIK_clean_linker_0, # of connection points: 2
#     Edge 13, Type (0, 0), BuildingBlock: UVAHIK_clean_linker_0, # of connection points: 2
#     Edge 14, Type (0, 0), BuildingBlock: UVAHIK_clean_linker_0, # of connection points: 2
#     Edge 15, Type (0, 0), BuildingBlock: UVAHIK_clean_linker_0, # of connection points: 2
#     Edge 16, Type (0, 0), BuildingBlock: UVAHIK_clean_linker_0, # of connection points: 2
#     Edge 17, Type (0, 0), BuildingBlock: UVAHIK_clean_linker_0, # of connection points: 2
#     Edge 18, Type (0, 0), BuildingBlock: UVAHIK_clean_linker_0, # of connection points: 2
#     Edge 19, Type (0, 0), BuildingBlock: UVAHIK_clean_linker_0, # of connection points: 2
#     Edge 20, Type (0, 0), BuildingBlock: UVAHIK_clean_linker_0, # of connection points: 2
#     Edge 21, Type (0, 0), BuildingBlock: UVAHIK_clean_linker_0, # of connection points: 2
#     Edge 22, Type (0, 0), BuildingBlock: UVAHIK_clean_linker_0, # of connection points: 2
#     Edge 23, Type (0, 0), BuildingBlock: UVAHIK_clean_linker_0, # of connection points: 2
#     Edge 24, Type (0, 0), BuildingBlock: UVAHIK_clean_linker_0, # of connection points: 2
#     Edge 25, Type (0, 0), BuildingBlock: UVAHIK_clean_linker_0, # of connection points: 2
#     Edge 26, Type (0, 0), BuildingBlock: UVAHIK_clean_linker_0, # of connection points: 2
#     Edge 27, Type (0, 0), BuildingBlock: UVAHIK_clean_linker_0, # of connection points: 2
#     Edge 28, Type (0, 0), BuildingBlock: UVAHIK_clean_linker_0, # of connection points: 2
#     Edge 29, Type (0, 0), BuildingBlock: UVAHIK_clean_linker_0, # of connection points: 2
#     Edge 30, Type (0, 0), BuildingBlock: UVAHIK_clean_linker_0, # of connection points: 2
#     Edge 31, Type (0, 0), BuildingBlock: UVAHIK_clean_linker_0, # of connection points: 2
#     Edge 32, Type (0, 0), BuildingBlock: UVAHIK_clean_linker_0, # of connection points: 2
#     Edge 33, Type (0, 0), BuildingBlock: UVAHIK_clean_linker_0, # of connection points: 2
#     Edge 34, Type (0, 0), BuildingBlock: UVAHIK_clean_linker_0, # of connection points: 2
#     Edge 35, Type (0, 0), BuildingBlock: UVAHIK_clean_linker_0, # of connection points: 2
#     Edge 36, Type (0, 0), BuildingBlock: UVAHIK_clean_linker_0, # of connection points: 2
#     Edge 37, Type (0, 0), BuildingBlock: UVAHIK_clean_linker_0, # of connection points: 2
#     Edge 38, Type (0, 0), BuildingBlock: UVAHIK_clean_linker_0, # of connection points: 2
#     Edge 39, Type (0, 0), BuildingBlock: UVAHIK_clean_linker_0, # of connection points: 2
#     Edge 40, Type (0, 0), BuildingBlock: UVAHIK_clean_linker_0, # of connection points: 2
#     Edge 41, Type (0, 0), BuildingBlock: UVAHIK_clean_linker_0, # of connection points: 2
# Relax obj value: 0.081
# Max RMSD: 0.164
# Mean RMSD: 0.164
data_MOF--net-wjy--node1-XOMCOT_clean_sbu_0--edge1-UVAHIK_clean_linker_0
_symmetry_space_group_name_H-M    P1
_symmetry_Int_Tables_number       1
_symmetry_cell_setting            triclinic
loop_
_symmetry_equiv_pos_as_xyz
'x, y, z'
_cell_length_a     95.621905
_cell_length_b     95.614932
_cell_length_c     22.103106
_cell_angle_alpha  89.993322
_cell_angle_beta   89.999134
_cell_angle_gamma 120.00326
loop_
_atom_site_label
_atom_site_type_symbol
_atom_site_fract_x
_atom_site_fract_y
_atom_site_fract_z
_atom_type_partial_charge
Co0 Co 0.45457 0.10062 0.13018 0.0
C1 C 0.45839 0.10362 0.99725 0.0
C2 C 0.47728 0.10113 0.03935 0.0
C3 C 0.47962 0.10208 0.97773 0.0
N4 N 0.46405 0.10222 0.05148 0.0
N5 N 0.46771 0.10359 0.95136 0.0
H6 H 0.44764 0.10455 0.99159 0.0
H7 H 0.48452 0.09937 0.07274 0.0
C8 C 0.48565 0.12195 0.19964 0.0
O9 O 0.48041 0.13143 0.21986 0.0
N10 N 0.44486 0.09843 0.21003 0.0
C11 C 0.42929 0.09381 0.22198 0.0
C12 C 0.42689 0.09266 0.28343 0.0
C13 C 0.45144 0.09918 0.26499 0.0
N14 N 0.44086 0.09608 0.31063 0.0
C15 C 0.444 0.12392 0.12663 0.0
C16 C 0.47334 0.15005 0.09342 0.0
C17 C 0.46043 0.15248 0.10726 0.0
C18 C 0.44552 0.13915 0.12263 0.0
C19 C 0.47134 0.13458 0.09894 0.0
N20 N 0.45703 0.12191 0.11861 0.0
H21 H 0.43227 0.11376 0.1357 0.0
H22 H 0.48143 0.13287 0.0887 0.0
H23 H 0.42 0.09098 0.18856 0.0
H24 H 0.46346 0.10114 0.27179 0.0
O25 O 0.43339 0.08749 0.09481 0.0
O26 O 0.44869 0.0783 0.13374 0.0
O27 O 0.47669 0.10974 0.16663 0.0
C28 C 0.43537 0.07524 0.10663 0.0
H29 H 0.48902 0.10114 0.95403 0.0
H30 H 0.41566 0.08951 0.30607 0.0
H31 H 0.48496 0.16004 0.08009 0.0
H32 H 0.43508 0.14047 0.13105 0.0
Co33 Co 0.35153 0.45668 0.28556 0.0
C34 C 0.35379 0.46 0.15228 0.0
C35 C 0.37568 0.47746 0.19614 0.0
C36 C 0.37782 0.47948 0.13454 0.0
N37 N 0.36061 0.46532 0.20713 0.0
N38 N 0.36407 0.46849 0.10693 0.0
H39 H 0.34162 0.45008 0.14589 0.0
H40 H 0.38464 0.48412 0.23046 0.0
C41 C 0.3613 0.48653 0.36133 0.0
O42 O 0.34727 0.47955 0.38911 0.0
N43 N 0.34272 0.44789 0.36509 0.0
C44 C 0.32801 0.43536 0.37879 0.0
C45 C 0.32702 0.43283 0.44025 0.0
C46 C 0.35069 0.4523 0.41851 0.0
N47 N 0.34125 0.44357 0.46535 0.0
C48 C 0.31867 0.4462 0.2535 0.0
C49 C 0.32153 0.47639 0.24975 0.0
C50 C 0.30626 0.4627 0.24305 0.0
C51 C 0.30498 0.44747 0.24278 0.0
C52 C 0.33496 0.47455 0.25915 0.0
N53 N 0.33323 0.45955 0.26592 0.0
H54 H 0.31748 0.43439 0.2519 0.0
H55 H 0.3467 0.48527 0.26046 0.0
H56 H 0.31859 0.42819 0.34699 0.0
H57 H 0.36316 0.46175 0.42296 0.0
O58 O 0.34344 0.43509 0.25468 0.0
O59 O 0.36748 0.4502 0.29685 0.0
O60 O 0.36442 0.47912 0.32013 0.0
C61 C 0.35725 0.43669 0.2708 0.0
H62 H 0.38886 0.48806 0.11189 0.0
H63 H 0.3165 0.4239 0.46459 0.0
H64 H 0.32307 0.4884 0.24729 0.0
H65 H 0.29344 0.43661 0.23589 0.0
Co66 Co 0.89135 0.35138 0.45693 0.0
C67 C 0.89058 0.35373 0.32367 0.0
C68 C 0.89504 0.37564 0.36744 0.0
C69 C 0.89513 0.37776 0.30584 0.0
N70 N 0.8921 0.36056 0.37846 0.0
N71 N 0.89235 0.364 0.27833 0.0
H72 H 0.88825 0.34152 0.31729 0.0
H73 H 0.89727 0.38458 0.40174 0.0
C74 C 0.87086 0.36125 0.52968 0.0
O75 O 0.86347 0.34725 0.55757 0.0
N76 N 0.89107 0.3425 0.53662 0.0
C77 C 0.89013 0.32827 0.54988 0.0
C78 C 0.89154 0.32723 0.61134 0.0
C79 C 0.89384 0.3502 0.59042 0.0
N80 N 0.89378 0.34098 0.63696 0.0
C81 C 0.86821 0.31832 0.42892 0.0
C82 C 0.84185 0.32261 0.41673 0.0
C83 C 0.83942 0.3069 0.41554 0.0
C84 C 0.85294 0.30489 0.41955 0.0
C85 C 0.85735 0.33568 0.4259 0.0
N86 N 0.87009 0.33331 0.43688 0.0
H87 H 0.87851 0.31661 0.42944 0.0
H88 H 0.85902 0.34769 0.42394 0.0
H89 H 0.88914 0.31938 0.51772 0.0
H90 H 0.89614 0.36243 0.59532 0.0
O91 O 0.90477 0.3431 0.4266 0.0
O92 O 0.91374 0.36714 0.46904 0.0
O93 O 0.88185 0.36438 0.49049 0.0
C94 C 0.917 0.35686 0.44326 0.0
H95 H 0.89753 0.38877 0.28309 0.0
H96 H 0.89089 0.31704 0.63522 0.0
H97 H 0.83186 0.32479 0.41045 0.0
H98 H 0.85174 0.29303 0.41689 0.0
Co99 Co 0.53595 0.89146 0.62659 0.0
C100 C 0.53289 0.89139 0.49341 0.0
C101 C 0.51571 0.89606 0.53819 0.0
C102 C 0.51388 0.89669 0.47667 0.0
N103 N 0.52758 0.89269 0.54853 0.0
N104 N 0.52473 0.89381 0.44841 0.0
H105 H 0.54282 0.88917 0.48668 0.0
H106 H 0.50902 0.89817 0.57293 0.0
C107 C 0.50558 0.87048 0.69784 0.0
O108 O 0.51213 0.86256 0.72208 0.0
N109 N 0.54457 0.89073 0.70592 0.0
C110 C 0.55813 0.8902 0.71811 0.0
C111 C 0.56039 0.89081 0.77964 0.0
C112 C 0.53934 0.89262 0.76065 0.0
N113 N 0.5485 0.8922 0.80653 0.0
C114 C 0.54535 0.86795 0.59798 0.0
C115 C 0.51452 0.84226 0.58058 0.0
C116 C 0.52754 0.83943 0.58026 0.0
C117 C 0.54318 0.85262 0.58695 0.0
C118 C 0.51728 0.85783 0.59134 0.0
N119 N 0.53242 0.87018 0.60484 0.0
H120 H 0.55746 0.87801 0.60038 0.0
H121 H 0.50717 0.85987 0.5889 0.0
H122 H 0.56642 0.8902 0.68519 0.0
H123 H 0.52902 0.89423 0.76684 0.0
O124 O 0.55765 0.90471 0.5961 0.0
O125 O 0.54294 0.91389 0.64012 0.0
O126 O 0.5135 0.88205 0.66073 0.0
C127 C 0.55637 0.91702 0.61369 0.0
H128 H 0.50519 0.89908 0.45465 0.0
H129 H 0.57035 0.89075 0.80265 0.0
H130 H 0.50231 0.83255 0.57243 0.0
H131 H 0.55366 0.8511 0.58503 0.0
Co132 Co 0.64555 0.54333 0.78892 0.0
C133 C 0.64391 0.5395 0.65589 0.0
C134 C 0.62152 0.52281 0.6988 0.0
C135 C 0.61965 0.5206 0.6372 0.0
N136 N 0.63674 0.53455 0.71039 0.0
N137 N 0.63371 0.53112 0.61025 0.0
H138 H 0.65625 0.54913 0.6499 0.0
H139 H 0.61226 0.51666 0.73261 0.0
C140 C 0.63507 0.51296 0.86303 0.0
O141 O 0.64933 0.5191 0.88874 0.0
N142 N 0.6541 0.55233 0.86859 0.0
C143 C 0.66788 0.56615 0.88145 0.0
C144 C 0.669 0.56858 0.94293 0.0
C145 C 0.64666 0.54705 0.92269 0.0
N146 N 0.65569 0.5565 0.969 0.0
C147 C 0.67872 0.55316 0.76645 0.0
C148 C 0.67473 0.52256 0.75741 0.0
C149 C 0.69041 0.5359 0.75974 0.0
C150 C 0.69228 0.55139 0.7615 0.0
C151 C 0.66148 0.52493 0.76226 0.0
N152 N 0.66367 0.54001 0.77211 0.0
H153 H 0.6804 0.56515 0.76569 0.0
H154 H 0.6495 0.51457 0.75908 0.0
H155 H 0.67639 0.57439 0.84893 0.0
H156 H 0.6347 0.53671 0.92806 0.0
O157 O 0.65409 0.56487 0.75649 0.0
O158 O 0.62985 0.55014 0.79789 0.0
O159 O 0.63217 0.52106 0.82411 0.0
C160 C 0.6403 0.5635 0.77153 0.0
H161 H 0.60859 0.51232 0.61395 0.0
H162 H 0.67893 0.57849 0.96646 0.0
H163 H 0.67268 0.51038 0.75381 0.0
H164 H 0.70413 0.56209 0.75949 0.0
Co165 Co 0.10052 0.64546 0.9644 0.0
C166 C 0.10239 0.64346 0.83119 0.0
C167 C 0.09641 0.62112 0.87523 0.0
C168 C 0.09603 0.61884 0.81372 0.0
N169 N 0.10044 0.63653 0.88608 0.0
N170 N 0.09973 0.63286 0.78602 0.0
H171 H 0.105 0.65575 0.82457 0.0
H172 H 0.09336 0.612 0.90963 0.0
C173 C 0.12204 0.63624 0.03516 0.0
O174 O 0.13019 0.6506 0.06015 0.0
N175 N 0.10008 0.65404 0.04401 0.0
C176 C 0.09815 0.66681 0.05645 0.0
C177 C 0.09706 0.66805 0.118 0.0
C178 C 0.09931 0.64727 0.09857 0.0
N179 N 0.09788 0.65581 0.14449 0.0
C180 C 0.12286 0.67897 0.94296 0.0
C181 C 0.14993 0.67601 0.92727 0.0
C182 C 0.1518 0.69149 0.93169 0.0
C183 C 0.13792 0.69284 0.93692 0.0
C184 C 0.13456 0.66244 0.93324 0.0
N185 N 0.12148 0.6641 0.94602 0.0
H186 H 0.11233 0.68025 0.94515 0.0
H187 H 0.13327 0.65061 0.92879 0.0
H188 H 0.09681 0.67438 0.02353 0.0
H189 H 0.09913 0.63597 0.10472 0.0
O190 O 0.08657 0.65297 0.93266 0.0
O191 O 0.07836 0.62907 0.97525 0.0
O192 O 0.11046 0.63293 0.99856 0.0
C193 C 0.07466 0.63892 0.94866 0.0
H194 H 0.09304 0.60764 0.79116 0.0
H195 H 0.09567 0.67723 0.14135 0.0
H196 H 0.16025 0.67435 0.92125 0.0
H197 H 0.13868 0.70453 0.93682 0.0
Co198 Co 0.88785 0.53494 0.7148 0.0
C199 C 0.8875 0.53184 0.84808 0.0
C200 C 0.89323 0.51537 0.80341 0.0
C201 C 0.89413 0.51375 0.86492 0.0
N202 N 0.88907 0.52668 0.79302 0.0
N203 N 0.89056 0.52412 0.89295 0.0
H204 H 0.88475 0.54141 0.85501 0.0
H205 H 0.8958 0.50901 0.76863 0.0
C206 C 0.86635 0.50452 0.64429 0.0
O207 O 0.85881 0.51127 0.61854 0.0
N208 N 0.88714 0.54338 0.63526 0.0
C209 C 0.88686 0.55703 0.62218 0.0
C210 C 0.88813 0.55941 0.56062 0.0
C211 C 0.88931 0.53809 0.58119 0.0
N212 N 0.88957 0.54744 0.53486 0.0
C213 C 0.86569 0.54576 0.74594 0.0
C214 C 0.8389 0.51557 0.76212 0.0
C215 C 0.83707 0.5292 0.76484 0.0
C216 C 0.85082 0.54448 0.75854 0.0
C217 C 0.85407 0.51744 0.74991 0.0
N218 N 0.86698 0.53233 0.73736 0.0
H219 H 0.87619 0.55762 0.74364 0.0
H220 H 0.85537 0.50687 0.75095 0.0
H221 H 0.88653 0.56527 0.65455 0.0
H222 H 0.8911 0.52784 0.57589 0.0
O223 O 0.90183 0.55667 0.74381 0.0
O224 O 0.91002 0.54111 0.7001 0.0
O225 O 0.87774 0.51231 0.68212 0.0
C226 C 0.91374 0.55479 0.72574 0.0
H227 H 0.89725 0.50561 0.88728 0.0
H228 H 0.88806 0.56926 0.53672 0.0
H229 H 0.82872 0.50358 0.76968 0.0
H230 H 0.85007 0.55539 0.76198 0.0
Co231 Co 0.34891 0.8896 0.86999 0.0
C232 C 0.35228 0.89088 1.00325 0.0
C233 C 0.37429 0.8961 0.95842 0.0
C234 C 0.37691 0.89724 0.0199 0.0
N235 N 0.35886 0.89207 0.94816 0.0
N236 N 0.36307 0.89398 0.04812 0.0
H237 H 0.33995 0.88812 0.0101 0.0
H238 H 0.38307 0.89818 0.92359 0.0
C239 C 0.35854 0.86815 0.80217 0.0
O240 O 0.34462 0.86059 0.77384 0.0
N241 N 0.33922 0.88753 0.79059 0.0
C242 C 0.32424 0.88472 0.77762 0.0
C243 C 0.3226 0.88499 0.71598 0.0
C244 C 0.34669 0.89023 0.73629 0.0
N245 N 0.33666 0.88832 0.68984 0.0
C246 C 0.31647 0.86784 0.9088 0.0
C247 C 0.31977 0.84092 0.92226 0.0
C248 C 0.30441 0.83922 0.92796 0.0
C249 C 0.30296 0.85305 0.92328 0.0
C250 C 0.33298 0.856 0.90816 0.0
N251 N 0.33098 0.86894 0.89666 0.0
H252 H 0.31516 0.87839 0.90689 0.0
H253 H 0.34477 0.85714 0.90708 0.0
H254 H 0.31515 0.88313 0.80992 0.0
H255 H 0.35914 0.89326 0.73095 0.0
O256 O 0.34107 0.90378 0.89551 0.0
O257 O 0.36462 0.91159 0.85087 0.0
O258 O 0.36159 0.87938 0.84011 0.0
C259 C 0.3547 0.91552 0.87538 0.0
H260 H 0.38814 0.90012 0.042 0.0
H261 H 0.31193 0.88324 0.69236 0.0
H262 H 0.32157 0.8307 0.92873 0.0
H263 H 0.2914 0.85241 0.929 0.0
Co264 Co 0.458 0.35059 0.0524 0.0
C265 C 0.46149 0.35326 0.18755 0.0
C266 C 0.47615 0.37574 0.14202 0.0
C267 C 0.47793 0.37848 0.20328 0.0
N268 N 0.46611 0.35986 0.13189 0.0
N269 N 0.46867 0.36433 0.23199 0.0
H270 H 0.45242 0.34091 0.1959 0.0
H271 H 0.48153 0.38482 0.10703 0.0
C272 C 0.49376 0.36684 0.04305 0.0
O273 O 0.49356 0.35951 0.09363 0.0
N274 N 0.44981 0.34179 0.97335 0.0
C275 C 0.43745 0.32688 0.96164 0.0
C276 C 0.43573 0.32487 0.89995 0.0
C277 C 0.4554 0.34873 0.91893 0.0
N278 N 0.44703 0.33859 0.87314 0.0
C279 C 0.45112 0.3204 0.10648 0.0
C280 C 0.4724 0.31584 0.03617 0.0
C281 C 0.46281 0.30393 0.07838 0.0
C282 C 0.45196 0.30632 0.11355 0.0
C283 C 0.47098 0.32958 0.03001 0.0
N284 N 0.46106 0.33219 0.06701 0.0
H285 H 0.44184 0.32137 0.13055 0.0
H286 H 0.47754 0.33782 0.99374 0.0
H287 H 0.43031 0.31803 0.99566 0.0
H288 H 0.46559 0.36078 0.913 0.0
O289 O 0.43616 0.34179 0.08194 0.0
O290 O 0.45101 0.36612 0.04145 0.0
O291 O 0.48049 0.36404 0.01841 0.0
C292 C 0.43749 0.35555 0.0665 0.0
H293 H 0.48535 0.39006 0.22479 0.0
H294 H 0.42678 0.31414 0.87668 0.0
H295 H 0.48079 0.31451 0.00721 0.0
H296 H 0.44371 0.29713 0.14459 0.0
Co297 Co 0.10473 0.45891 0.22628 0.0
C298 C 0.10656 0.46285 0.36141 0.0
C299 C 0.10124 0.47942 0.31608 0.0
C300 C 0.10041 0.48129 0.37736 0.0
N301 N 0.10549 0.46812 0.3057 0.0
N302 N 0.10376 0.47085 0.4058 0.0
H303 H 0.10804 0.45258 0.36998 0.0
H304 H 0.09821 0.48542 0.28132 0.0
C305 C 0.12584 0.4943 0.21008 0.0
O306 O 0.13384 0.49404 0.25804 0.0
N307 N 0.10332 0.44965 0.14734 0.0
C308 C 0.10359 0.43598 0.13549 0.0
C309 C 0.10262 0.43361 0.07386 0.0
C310 C 0.10222 0.45546 0.09304 0.0
N311 N 0.1018 0.44589 0.04726 0.0
C312 C 0.12874 0.45246 0.2777 0.0
C313 C 0.15232 0.46996 0.19269 0.0
C314 C 0.15559 0.46189 0.23838 0.0
C315 C 0.14362 0.45305 0.28135 0.0
C316 C 0.13744 0.46928 0.19139 0.0
N317 N 0.12604 0.46114 0.23495 0.0
H318 H 0.11918 0.44431 0.30718 0.0
H319 H 0.13492 0.47492 0.15389 0.0
H320 H 0.10467 0.42839 0.16931 0.0
H321 H 0.10169 0.46642 0.08712 0.0
O322 O 0.09156 0.43749 0.2596 0.0
O323 O 0.0823 0.45277 0.22128 0.0
O324 O 0.11413 0.48113 0.18944 0.0
C325 C 0.07924 0.43927 0.24688 0.0
H326 H 0.09719 0.48942 0.39921 0.0
H327 H 0.10292 0.42383 0.05037 0.0
H328 H 0.16114 0.47658 0.15776 0.0
H329 H 0.14549 0.44606 0.31571 0.0
Co330 Co 0.64383 0.10491 0.4016 0.0
C331 C 0.64218 0.1068 0.53479 0.0
C332 C 0.61985 0.10128 0.49181 0.0
C333 C 0.61794 0.10156 0.55338 0.0
N334 N 0.63506 0.1047 0.48029 0.0
N335 N 0.63197 0.10499 0.58036 0.0
H336 H 0.6545 0.10946 0.54084 0.0
H337 H 0.61064 0.09833 0.4579 0.0
C338 C 0.63335 0.12527 0.32937 0.0
O339 O 0.64718 0.13296 0.30037 0.0
N340 N 0.65232 0.10466 0.32172 0.0
C341 C 0.66612 0.10468 0.30858 0.0
C342 C 0.66713 0.1033 0.24712 0.0
C343 C 0.6448 0.10246 0.26782 0.0
N344 N 0.65376 0.10199 0.22136 0.0
C345 C 0.6771 0.12769 0.42576 0.0
C346 C 0.67387 0.15476 0.43354 0.0
C347 C 0.68941 0.15672 0.43205 0.0
C348 C 0.69088 0.14286 0.4309 0.0
C349 C 0.66039 0.13929 0.42852 0.0
N350 N 0.66222 0.12615 0.41931 0.0
H351 H 0.67848 0.11719 0.42683 0.0
H352 H 0.64854 0.13799 0.43136 0.0
H353 H 0.67469 0.105 0.3409 0.0
H354 H 0.63284 0.10086 0.26275 0.0
O355 O 0.65203 0.09147 0.43261 0.0
O356 O 0.62784 0.08249 0.39153 0.0
O357 O 0.63074 0.11432 0.36815 0.0
C358 C 0.63813 0.07924 0.41725 0.0
H359 H 0.6069 0.09885 0.57658 0.0
H360 H 0.67704 0.10332 0.22336 0.0
H361 H 0.6721 0.16507 0.43664 0.0
H362 H 0.7026 0.14372 0.43348 0.0
Co363 Co 0.53592 0.64538 0.55302 0.0
C364 C 0.53263 0.64312 0.68641 0.0
C365 C 0.51613 0.62084 0.64228 0.0
C366 C 0.5145 0.61844 0.70379 0.0
N367 N 0.52746 0.63629 0.63151 0.0
N368 N 0.5249 0.63242 0.73149 0.0
H369 H 0.54228 0.65543 0.69309 0.0
H370 H 0.50984 0.61181 0.60779 0.0
C371 C 0.50525 0.63456 0.48036 0.0
O372 O 0.51137 0.64846 0.45195 0.0
N373 N 0.54458 0.65413 0.47325 0.0
C374 C 0.55831 0.668 0.46023 0.0
C375 C 0.56083 0.66901 0.39878 0.0
C376 C 0.53941 0.64657 0.41931 0.0
N377 N 0.54887 0.65558 0.37306 0.0
C378 C 0.54554 0.6784 0.57762 0.0
C379 C 0.51488 0.67423 0.58695 0.0
C380 C 0.52818 0.68996 0.58545 0.0
C381 C 0.5437 0.6919 0.58352 0.0
C382 C 0.51733 0.66105 0.58124 0.0
N383 N 0.53245 0.66334 0.57136 0.0
H384 H 0.55756 0.68015 0.57797 0.0
H385 H 0.50699 0.64904 0.58397 0.0
H386 H 0.56648 0.67661 0.49267 0.0
H387 H 0.52918 0.63453 0.41398 0.0
O388 O 0.5576 0.65413 0.58393 0.0
O389 O 0.54301 0.6299 0.54242 0.0
O390 O 0.51348 0.6319 0.51946 0.0
C391 C 0.55643 0.64048 0.56811 0.0
H392 H 0.5064 0.6072 0.72637 0.0
H393 H 0.57071 0.67889 0.3749 0.0
H394 H 0.50268 0.67211 0.59057 0.0
H395 H 0.55436 0.70376 0.58605 0.0
C396 C 0.46607 0.28175 0.03162 0.0
C397 C 0.46353 0.28879 0.08337 0.0
C398 C 0.46675 0.26754 0.03613 0.0
C399 C 0.45238 0.23126 0.12651 0.0
H400 H 0.48722 0.22776 0.05186 0.0
C401 C 0.45727 0.1742 0.15632 0.0
C402 C 0.46235 0.1688 0.10646 0.0
C403 C 0.4584 0.18931 0.15531 0.0
C404 C 0.47728 0.22844 0.07226 0.0
H405 H 0.45984 0.28632 0.18059 0.0
H406 H 0.46049 0.26117 0.1879 0.0
H407 H 0.48713 0.25321 0.04626 0.0
H408 H 0.47271 0.17489 0.01666 0.0
H409 H 0.47419 0.20115 0.01368 0.0
H410 H 0.44214 0.20643 0.15073 0.0
C411 C 0.46202 0.2668 0.14399 0.0
C412 C 0.4773 0.24305 0.06929 0.0
C413 C 0.46157 0.28115 0.13967 0.0
C414 C 0.46881 0.17887 0.05579 0.0
C415 C 0.46971 0.19392 0.05433 0.0
C416 C 0.45223 0.21659 0.12876 0.0
C417 C 0.46465 0.2599 0.09226 0.0
C418 C 0.46486 0.24457 0.09645 0.0
C419 C 0.46439 0.19928 0.10394 0.0
C420 C 0.46469 0.21499 0.10177 0.0
H421 H 0.46724 0.28702 0.98725 0.0
H422 H 0.46855 0.26232 0.99544 0.0
H423 H 0.44253 0.23208 0.14708 0.0
H424 H 0.45246 0.16672 0.19629 0.0
H425 H 0.45456 0.19317 0.19493 0.0
C426 C 0.17653 0.45794 0.18642 0.0
C427 C 0.1711 0.46202 0.23893 0.0
C428 C 0.19127 0.45823 0.18635 0.0
C429 C 0.23075 0.47735 0.25649 0.0
H430 H 0.23269 0.43974 0.203 0.0
C431 C 0.28853 0.47298 0.28137 0.0
C432 C 0.29163 0.46416 0.23802 0.0
C433 C 0.27405 0.47323 0.28012 0.0
C434 C 0.23247 0.45048 0.21698 0.0
H435 H 0.17668 0.46965 0.33231 0.0
H436 H 0.20278 0.47052 0.3318 0.0
H437 H 0.20688 0.43906 0.20371 0.0
H438 H 0.28249 0.44926 0.15792 0.0
H439 H 0.25751 0.45024 0.1538 0.0
H440 H 0.25634 0.48902 0.268 0.0
C441 C 0.19554 0.467 0.29099 0.0
C442 C 0.21765 0.45001 0.2178 0.0
C443 C 0.18064 0.46641 0.2914 0.0
C444 C 0.28027 0.45602 0.19217 0.0
C445 C 0.26592 0.4565 0.19023 0.0
C446 C 0.24565 0.47794 0.25469 0.0
C447 C 0.20095 0.46287 0.23848 0.0
C448 C 0.21666 0.4634 0.23782 0.0
C449 C 0.26247 0.46486 0.23482 0.0
C450 C 0.2467 0.46447 0.23516 0.0
H451 H 0.16931 0.45442 0.14554 0.0
H452 H 0.19523 0.45506 0.14529 0.0
H453 H 0.23028 0.4879 0.27146 0.0
H454 H 0.29705 0.47919 0.3176 0.0
H455 H 0.27177 0.47958 0.31582 0.0
C456 C 0.70518 0.18587 0.46441 0.0
C457 C 0.70403 0.17301 0.4297 0.0
C458 C 0.71898 0.20119 0.46097 0.0
C459 C 0.7543 0.2263 0.3633 0.0
H460 H 0.77346 0.25021 0.51082 0.0
C461 C 0.81976 0.27934 0.37542 0.0
C462 C 0.8229 0.29269 0.41154 0.0
C463 C 0.80445 0.26556 0.37507 0.0
C464 C 0.76814 0.2438 0.46911 0.0
H465 H 0.7163 0.16626 0.36324 0.0
H466 H 0.7404 0.19276 0.35837 0.0
H467 H 0.74813 0.22458 0.51576 0.0
H468 H 0.81237 0.30213 0.475 0.0
H469 H 0.78557 0.27813 0.47376 0.0
H470 H 0.77446 0.24537 0.31679 0.0
C471 C 0.73063 0.1911 0.38781 0.0
C472 C 0.75362 0.22912 0.47196 0.0
C473 C 0.7169 0.17583 0.39129 0.0
C474 C 0.81029 0.29209 0.44627 0.0
C475 C 0.795 0.27829 0.4461 0.0
C476 C 0.76883 0.24095 0.36047 0.0
C477 C 0.73184 0.20396 0.42253 0.0
C478 C 0.74665 0.22009 0.41917 0.0
C479 C 0.79195 0.2648 0.41098 0.0
C480 C 0.776 0.24977 0.41343 0.0
H481 H 0.69552 0.18406 0.49468 0.0
H482 H 0.71951 0.21089 0.48801 0.0
H483 H 0.74909 0.21978 0.32166 0.0
H484 H 0.82918 0.2795 0.34769 0.0
H485 H 0.80253 0.25532 0.3479 0.0
C486 C 0.53581 0.71732 0.54548 0.0
C487 C 0.52604 0.70429 0.58374 0.0
C488 C 0.5339 0.73083 0.54279 0.0
C489 C 0.51835 0.75302 0.62912 0.0
H490 H 0.52292 0.77445 0.4753 0.0
C491 C 0.51253 0.81008 0.60769 0.0
C492 C 0.52485 0.82281 0.57438 0.0
C493 C 0.51076 0.79467 0.60611 0.0
C494 C 0.52168 0.76863 0.51859 0.0
H495 H 0.50654 0.69525 0.64917 0.0
H496 H 0.50303 0.71886 0.64383 0.0
H497 H 0.5232 0.74909 0.47833 0.0
H498 H 0.54454 0.82923 0.51147 0.0
H499 H 0.54153 0.80235 0.50904 0.0
H500 H 0.51704 0.77268 0.66941 0.0
C501 C 0.51229 0.71863 0.61633 0.0
C502 C 0.52186 0.75412 0.52038 0.0
C503 C 0.5142 0.70505 0.61901 0.0
C504 C 0.53504 0.8197 0.53807 0.0
C505 C 0.53321 0.80427 0.53623 0.0
C506 C 0.51813 0.76751 0.6273 0.0
C507 C 0.52213 0.73166 0.57812 0.0
C508 C 0.52049 0.7463 0.57577 0.0
C509 C 0.52119 0.79165 0.57088 0.0
C510 C 0.52006 0.7756 0.57213 0.0
H511 H 0.54487 0.71703 0.51699 0.0
H512 H 0.54184 0.74075 0.51354 0.0
H513 H 0.51745 0.74739 0.67258 0.0
H514 H 0.50458 0.81214 0.63649 0.0
H515 H 0.5013 0.78514 0.63285 0.0
C516 C 0.71762 0.54358 0.80129 0.0
C517 C 0.70479 0.53386 0.76219 0.0
C518 C 0.7313 0.54197 0.80393 0.0
C519 C 0.74662 0.51435 0.77011 0.0
H520 H 0.78821 0.5538 0.77312 0.0
C521 C 0.80771 0.51616 0.73857 0.0
C522 C 0.82093 0.52759 0.77255 0.0
C523 C 0.79293 0.51581 0.74065 0.0
C524 C 0.7767 0.54266 0.77323 0.0
H525 H 0.69619 0.51463 0.69573 0.0
H526 H 0.72024 0.51182 0.70031 0.0
H527 H 0.76363 0.55535 0.76869 0.0
H528 H 0.82878 0.54692 0.83819 0.0
H529 H 0.80297 0.54623 0.84231 0.0
H530 H 0.75981 0.50168 0.77445 0.0
C531 C 0.71958 0.52061 0.72922 0.0
C532 C 0.76261 0.54356 0.77052 0.0
C533 C 0.70584 0.52224 0.72654 0.0
C534 C 0.81889 0.53818 0.81067 0.0
C535 C 0.80412 0.5378 0.81291 0.0
C536 C 0.76077 0.51345 0.7729 0.0
C537 C 0.73251 0.53058 0.76759 0.0
C538 C 0.74741 0.52943 0.76921 0.0
C539 C 0.79109 0.52687 0.77688 0.0
C540 C 0.77596 0.52762 0.77476 0.0
H541 H 0.71702 0.55237 0.83046 0.0
H542 H 0.74091 0.54959 0.83487 0.0
H543 H 0.73507 0.50326 0.76972 0.0
H544 H 0.80898 0.50795 0.70836 0.0
H545 H 0.78318 0.50734 0.71198 0.0
C546 C 0.27754 0.82104 0.97617 0.0
C547 C 0.2899 0.82311 0.93646 0.0
C548 C 0.26318 0.80625 0.97939 0.0
C549 C 0.24411 0.7629 0.93866 0.0
H550 H 0.2048 0.76528 0.94108 0.0
C551 C 0.18055 0.70764 0.89512 0.0
C552 C 0.16805 0.70616 0.93287 0.0
C553 C 0.19579 0.72157 0.89703 0.0
C554 C 0.21566 0.7644 0.94105 0.0
H555 H 0.29707 0.81118 0.87011 0.0
H556 H 0.27196 0.78538 0.87544 0.0
H557 H 0.23085 0.79003 0.94417 0.0
H558 H 0.16193 0.71789 1.00377 0.0
H559 H 0.18838 0.74213 1.00672 0.0
H560 H 0.2288 0.73719 0.93485 0.0
C561 C 0.27344 0.79512 0.9047 0.0
C562 C 0.2306 0.77858 0.94301 0.0
C563 C 0.28783 0.8099 0.90165 0.0
C564 C 0.17118 0.7188 0.97303 0.0
C565 C 0.18635 0.73268 0.97486 0.0
C566 C 0.22913 0.74868 0.93656 0.0
C567 C 0.26083 0.79322 0.94275 0.0
C568 C 0.245 0.77802 0.942 0.0
C569 C 0.19879 0.73428 0.93667 0.0
C570 C 0.21475 0.74929 0.93793 0.0
H571 H 0.2789 0.83092 1.0043 0.0
H572 H 0.25382 0.80507 0.01012 0.0
H573 H 0.25499 0.76206 0.93835 0.0
H574 H 0.17849 0.69817 0.86338 0.0
H575 H 0.20512 0.72253 0.86665 0.0
C576 C 0.44937 0.09703 0.86379 0.0
C577 C 0.46509 0.10398 0.88735 0.0
C578 C 0.44685 0.09654 0.80128 0.0
C579 C 0.46728 0.0992 0.65526 0.0
H580 H 0.43262 0.10432 0.58841 0.0
C581 C 0.45959 0.10538 0.39824 0.0
C582 C 0.44381 0.0965 0.37494 0.0
C583 C 0.46234 0.10632 0.46067 0.0
C584 C 0.44227 0.10273 0.60648 0.0
H585 H 0.49049 0.11645 0.86415 0.0
H586 H 0.48618 0.11593 0.75534 0.0
H587 H 0.43716 0.10644 0.69742 0.0
H588 H 0.41862 0.08124 0.39982 0.0
H589 H 0.42343 0.08311 0.50829 0.0
H590 H 0.47248 0.09569 0.56404 0.0
C591 C 0.47575 0.11043 0.78483 0.0
C592 C 0.44486 0.10391 0.66899 0.0
C593 C 0.47824 0.11079 0.84722 0.0
C594 C 0.4309 0.08844 0.4158 0.0
C595 C 0.43364 0.08949 0.47814 0.0
C596 C 0.46476 0.09814 0.59273 0.0
C597 C 0.46001 0.10312 0.76094 0.0
C598 C 0.45737 0.10211 0.69425 0.0
C599 C 0.44937 0.09851 0.5013 0.0
C600 C 0.45219 0.09983 0.56767 0.0
H601 H 0.43899 0.0915 0.89354 0.0
H602 H 0.43456 0.09061 0.78458 0.0
H603 H 0.47684 0.09744 0.67308 0.0
H604 H 0.46982 0.11193 0.36846 0.0
H605 H 0.47459 0.11349 0.47722 0.0
C606 C 0.35618 0.46115 0.55217 0.0
C607 C 0.34497 0.44586 0.52919 0.0
C608 C 0.35877 0.46361 0.61459 0.0
C609 C 0.35263 0.44195 0.76059 0.0
H610 H 0.35599 0.48084 0.82914 0.0
C611 C 0.35038 0.45072 0.01898 0.0
C612 C 0.36141 0.46601 0.04252 0.0
C613 C 0.34838 0.44825 0.95638 0.0
C614 C 0.35524 0.46999 0.81072 0.0
H615 H 0.32817 0.42103 0.55398 0.0
H616 H 0.33247 0.42534 0.66247 0.0
H617 H 0.35321 0.47665 0.72004 0.0
H618 H 0.37863 0.49077 0.01839 0.0
H619 H 0.37533 0.48643 0.90962 0.0
H620 H 0.35458 0.43527 0.85137 0.0
C621 C 0.33935 0.43544 0.63237 0.0
C622 C 0.35368 0.4676 0.74807 0.0
C623 C 0.33675 0.433 0.57007 0.0
C624 C 0.37018 0.4788 1.00192 0.0
C625 C 0.36815 0.47635 0.93945 0.0
C626 C 0.35416 0.44434 0.82326 0.0
C627 C 0.35024 0.45082 0.65554 0.0
C628 C 0.35234 0.45354 0.72217 0.0
C629 C 0.35731 0.46102 0.91581 0.0
C630 C 0.35548 0.45838 0.84914 0.0
H631 H 0.36261 0.47136 0.52211 0.0
H632 H 0.3674 0.47556 0.63078 0.0
H633 H 0.35185 0.43109 0.74219 0.0
H634 H 0.34352 0.44057 0.04883 0.0
H635 H 0.33979 0.43633 0.93975 0.0
C636 C 0.89022 0.35516 0.72435 0.0
C637 C 0.89508 0.34458 0.70087 0.0
C638 C 0.89034 0.35765 0.78684 0.0
C639 C 0.88911 0.33816 0.93259 0.0
H640 H 0.90325 0.38059 0.99999 0.0
C641 C 0.89658 0.35046 0.1904 0.0
C642 C 0.89206 0.36127 0.214 0.0
C643 C 0.89696 0.34841 0.12782 0.0
C644 C 0.89907 0.36861 0.9819 0.0
H645 H 0.90459 0.32894 0.72481 0.0
H646 H 0.90477 0.33325 0.83336 0.0
H647 H 0.90423 0.37745 0.89083 0.0
H648 H 0.88384 0.37797 0.19026 0.0
H649 H 0.88434 0.37431 0.08145 0.0
H650 H 0.88382 0.32928 0.02346 0.0
C651 C 0.90056 0.33937 0.80361 0.0
C652 C 0.89966 0.36683 0.91928 0.0
C653 C 0.90046 0.33691 0.74128 0.0
C654 C 0.88766 0.36977 0.17359 0.0
C655 C 0.88798 0.36769 0.11113 0.0
C656 C 0.88847 0.33993 0.99516 0.0
C657 C 0.89531 0.34961 0.82726 0.0
C658 C 0.89471 0.35158 0.89386 0.0
C659 C 0.89276 0.35708 0.08735 0.0
C660 C 0.89345 0.35518 0.02066 0.0
H661 H 0.88582 0.36112 0.69467 0.0
H662 H 0.88609 0.36551 0.80358 0.0
H663 H 0.88495 0.32619 0.91443 0.0
H664 H 0.90024 0.34389 0.22019 0.0
H665 H 0.9009 0.34029 0.11115 0.0
C666 C 0.55178 0.88538 0.91154 0.0
C667 C 0.54602 0.89265 0.87084 0.0
C668 C 0.54947 0.88572 0.9738 0.0
C669 C 0.52447 0.89171 0.08756 0.0
H670 H 0.55878 0.89775 0.19693 0.0
C671 C 0.52224 0.90202 0.34435 0.0
C672 C 0.52729 0.89386 0.38389 0.0
C673 C 0.52455 0.90197 0.28191 0.0
C674 C 0.54901 0.89589 0.16705 0.0
H675 H 0.5333 0.90603 0.86422 0.0
H676 H 0.52935 0.90676 0.97311 0.0
H677 H 0.56278 0.89779 0.08802 0.0
H678 H 0.53869 0.87915 0.38792 0.0
H679 H 0.54282 0.87919 0.27902 0.0
H680 H 0.51076 0.88991 0.16679 0.0
C681 C 0.53549 0.90058 0.95663 0.0
C682 C 0.55129 0.8959 0.10453 0.0
C683 C 0.53777 0.90019 0.89413 0.0
C684 C 0.53483 0.88574 0.35916 0.0
C685 C 0.53719 0.88575 0.29662 0.0
C686 C 0.52221 0.89176 0.15012 0.0
C687 C 0.54136 0.89338 0.9973 0.0
C688 C 0.53903 0.89375 0.06391 0.0
C689 C 0.53203 0.89383 0.25722 0.0
C690 C 0.53444 0.8938 0.19064 0.0
H691 H 0.55787 0.87915 0.89526 0.0
H692 H 0.55385 0.87973 1.00349 0.0
H693 H 0.51466 0.88977 0.05778 0.0
H694 H 0.51669 0.90868 0.36152 0.0
H695 H 0.52068 0.90855 0.253 0.0
C696 C 0.64227 0.53834 0.05625 0.0
C697 C 0.65235 0.55395 0.03305 0.0
C698 C 0.64 0.53578 0.11872 0.0
C699 C 0.65947 0.55392 0.26433 0.0
H700 H 0.61729 0.52504 0.33247 0.0
C701 C 0.64753 0.54878 0.5224 0.0
C702 C 0.63664 0.53347 0.54603 0.0
C703 C 0.64959 0.55118 0.45982 0.0
C704 C 0.62921 0.53298 0.31418 0.0
H705 H 0.66735 0.57917 0.05773 0.0
H706 H 0.66346 0.57466 0.16628 0.0
H707 H 0.6202 0.52933 0.22337 0.0
H708 H 0.6199 0.50855 0.52254 0.0
H709 H 0.62366 0.51264 0.41367 0.0
H710 H 0.66854 0.55748 0.35489 0.0
C711 C 0.65755 0.56437 0.1362 0.0
C712 C 0.63085 0.53545 0.2516 0.0
C713 C 0.65977 0.56695 0.07386 0.0
C714 C 0.62816 0.52055 0.50573 0.0
C715 C 0.63029 0.52291 0.44326 0.0
C716 C 0.65785 0.55138 0.32687 0.0
C717 C 0.64778 0.54874 0.15944 0.0
C718 C 0.64599 0.54599 0.22595 0.0
C719 C 0.6409 0.53829 0.4194 0.0
C720 C 0.64269 0.5409 0.35267 0.0
H721 H 0.63653 0.52802 0.02634 0.0
H722 H 0.63251 0.52356 0.1352 0.0
H723 H 0.67136 0.56192 0.24591 0.0
H724 H 0.65408 0.55902 0.55218 0.0
H725 H 0.65771 0.56323 0.44313 0.0
C726 C 0.10592 0.64532 0.2322 0.0
C727 C 0.09762 0.65277 0.20853 0.0
C728 C 0.10643 0.64323 0.29468 0.0
C729 C 0.10077 0.65863 0.44165 0.0
H730 H 0.09833 0.61971 0.50529 0.0
C731 C 0.10972 0.65082 0.69645 0.0
C732 C 0.09974 0.63548 0.72174 0.0
C733 C 0.10988 0.65318 0.63383 0.0
C734 C 0.09891 0.63061 0.48837 0.0
H735 H 0.08289 0.66334 0.23185 0.0
H736 H 0.08356 0.65951 0.34047 0.0
H737 H 0.09723 0.6229 0.39647 0.0
H738 H 0.08168 0.61073 0.70118 0.0
H739 H 0.08182 0.61483 0.59268 0.0
H740 H 0.10193 0.66611 0.53368 0.0
C741 C 0.09004 0.65565 0.31102 0.0
C742 C 0.09848 0.63253 0.42581 0.0
C743 C 0.0896 0.6578 0.24866 0.0
C744 C 0.08977 0.62262 0.68313 0.0
C745 C 0.08987 0.62498 0.62077 0.0
C746 C 0.10113 0.65668 0.50425 0.0
C747 C 0.09859 0.64848 0.33495 0.0
C748 C 0.09933 0.64654 0.4016 0.0
C749 C 0.1 0.64025 0.59516 0.0
C750 C 0.10011 0.6426 0.52846 0.0
H751 H 0.1124 0.64151 0.20256 0.0
H752 H 0.1133 0.63785 0.31146 0.0
H753 H 0.10169 0.66969 0.42466 0.0
H754 H 0.11763 0.66093 0.72493 0.0
H755 H 0.11797 0.66507 0.61566 0.0
C756 C 0.88036 0.53159 0.98311 0.0
C757 C 0.8907 0.52678 0.95724 0.0
C758 C 0.88028 0.53376 0.04575 0.0
C759 C 0.8927 0.52326 0.19077 0.0
H760 H 0.88674 0.55765 0.25484 0.0
C761 C 0.88399 0.52939 0.44691 0.0
C762 C 0.89071 0.54503 0.47104 0.0
C763 C 0.88412 0.52706 0.38442 0.0
C764 C 0.8886 0.54808 0.23782 0.0
H765 H 0.90946 0.521 0.97662 0.0
H766 H 0.90958 0.52507 0.08527 0.0
H767 H 0.88701 0.55418 0.14594 0.0
H768 H 0.90344 0.57051 0.4488 0.0
H769 H 0.90404 0.56653 0.34023 0.0
H770 H 0.89485 0.51751 0.28259 0.0
C771 C 0.90115 0.52671 0.05768 0.0
C772 C 0.8885 0.54593 0.17519 0.0
C773 C 0.90113 0.52442 0.99525 0.0
C774 C 0.89793 0.5583 0.43149 0.0
C775 C 0.8982 0.556 0.36916 0.0
C776 C 0.8929 0.52547 0.25339 0.0
C777 C 0.89065 0.53131 0.08393 0.0
C778 C 0.89057 0.53351 0.15076 0.0
C779 C 0.89112 0.54034 0.34461 0.0
C780 C 0.89088 0.53793 0.27782 0.0
H781 H 0.87208 0.53334 0.95506 0.0
H782 H 0.87186 0.53708 0.0643 0.0
H783 H 0.8941 0.51341 0.17378 0.0
H784 H 0.87816 0.51892 0.47618 0.0
H785 H 0.87836 0.51482 0.36725 0.0
C786 C 0.32715 0.88046 0.58468 0.0
C787 C 0.33988 0.88908 0.6257 0.0
C788 C 0.33006 0.88114 0.52257 0.0
C789 C 0.3594 0.90581 0.40464 0.0
H790 H 0.33646 0.86673 0.30902 0.0
C791 C 0.37359 0.90301 0.15177 0.0
C792 C 0.36052 0.89392 0.11258 0.0
C793 C 0.37125 0.90264 0.21432 0.0
C794 C 0.34282 0.8778 0.33488 0.0
H795 H 0.36572 0.90519 0.63306 0.0
H796 H 0.37086 0.90624 0.52428 0.0
H797 H 0.33241 0.86557 0.41811 0.0
H798 H 0.3347 0.87736 0.10895 0.0
H799 H 0.33056 0.87694 0.21793 0.0
H800 H 0.36977 0.91805 0.32127 0.0
C801 C 0.35857 0.89906 0.54046 0.0
C802 C 0.34052 0.87713 0.39751 0.0
C803 C 0.35565 0.89834 0.60286 0.0
C804 C 0.34502 0.88459 0.1376 0.0
C805 C 0.34268 0.88421 0.20023 0.0
C806 C 0.36169 0.90649 0.34192 0.0
C807 C 0.34579 0.89044 0.49958 0.0
C808 C 0.34872 0.89113 0.43317 0.0
C809 C 0.35578 0.89317 0.23942 0.0
C810 C 0.35338 0.8925 0.30621 0.0
H811 H 0.31489 0.87302 0.60053 0.0
H812 H 0.31991 0.87449 0.49243 0.0
H813 H 0.36573 0.91686 0.43061 0.0
H814 H 0.38566 0.9105 0.13419 0.0
H815 H 0.38164 0.90958 0.24309 0.0
C816 C 0.46109 0.3464 0.3216 0.0
C817 C 0.46639 0.36176 0.29651 0.0
C818 C 0.45906 0.34398 0.38414 0.0
C819 C 0.45403 0.36223 0.5248 0.0
H820 H 0.46679 0.33405 0.60309 0.0
C821 C 0.45632 0.35719 0.78537 0.0
C822 C 0.44974 0.3415 0.80903 0.0
C823 C 0.45859 0.35988 0.72297 0.0
C824 C 0.46305 0.34185 0.58181 0.0
H825 H 0.47345 0.38658 0.31814 0.0
H826 H 0.47037 0.38247 0.4268 0.0
H827 H 0.47008 0.33819 0.49402 0.0
H828 H 0.44079 0.3164 0.7857 0.0
H829 H 0.44463 0.32106 0.67712 0.0
H830 H 0.44712 0.36597 0.61285 0.0
C831 C 0.46757 0.37222 0.39811 0.0
C832 C 0.46489 0.3442 0.51925 0.0
C833 C 0.46955 0.37462 0.33563 0.0
C834 C 0.44569 0.3286 0.76896 0.0
C835 C 0.44806 0.3313 0.70674 0.0
C836 C 0.45226 0.35995 0.58743 0.0
C837 C 0.46233 0.35687 0.42322 0.0
C838 C 0.46036 0.35438 0.48988 0.0
C839 C 0.45447 0.34695 0.68297 0.0
C840 C 0.4567 0.34969 0.61661 0.0
H841 H 0.45869 0.33624 0.29307 0.0
H842 H 0.45481 0.33195 0.40179 0.0
H843 H 0.45017 0.36996 0.50363 0.0
H844 H 0.45946 0.36736 0.81497 0.0
H845 H 0.46369 0.3721 0.70607 0.0
C846 C 0.09284 0.47053 0.50751 0.0
C847 C 0.10328 0.46805 0.47005 0.0
C848 C 0.09251 0.46802 0.5699 0.0
C849 C 0.1042 0.44799 0.68744 0.0
H850 H 0.09831 0.47662 0.79529 0.0
C851 C 0.09399 0.43525 0.94341 0.0
C852 C 0.1013 0.44845 0.98321 0.0
C853 C 0.09399 0.43767 0.88106 0.0
C854 C 0.10012 0.46859 0.76594 0.0
H855 H 0.12163 0.46111 0.46871 0.0
H856 H 0.12132 0.457 0.57782 0.0
H857 H 0.09937 0.48099 0.68659 0.0
H858 H 0.11439 0.47457 0.98872 0.0
H859 H 0.11468 0.47886 0.87984 0.0
H860 H 0.10552 0.43594 0.76686 0.0
C861 C 0.11311 0.46056 0.55891 0.0
C862 C 0.1005 0.47096 0.7034 0.0
C863 C 0.11334 0.46294 0.49637 0.0
C864 C 0.10848 0.46416 0.95929 0.0
C865 C 0.10862 0.46659 0.89681 0.0
C866 C 0.10393 0.44569 0.74999 0.0
C867 C 0.10271 0.4631 0.59655 0.0
C868 C 0.10249 0.46066 0.66326 0.0
C869 C 0.10144 0.45338 0.85681 0.0
C870 C 0.10183 0.45592 0.79012 0.0
H871 H 0.08473 0.47418 0.4885 0.0
H872 H 0.08408 0.46976 0.59713 0.0
H873 H 0.10557 0.4397 0.65803 0.0
H874 H 0.08813 0.42301 0.96056 0.0
H875 H 0.08804 0.42719 0.85191 0.0
C876 C 0.62648 0.11015 0.6847 0.0
C877 C 0.63486 0.10556 0.64456 0.0
C878 C 0.62854 0.10988 0.74716 0.0
C879 C 0.65583 0.10867 0.86379 0.0
H880 H 0.61815 0.09341 0.96694 0.0
C881 C 0.65755 0.09521 0.11686 0.0
C882 C 0.6503 0.10102 0.15741 0.0
C883 C 0.65529 0.09545 0.05453 0.0
C884 C 0.62881 0.09784 0.93879 0.0
H885 H 0.65207 0.09716 0.6386 0.0
H886 H 0.6556 0.09652 0.74772 0.0
H887 H 0.61533 0.09475 0.85776 0.0
H888 H 0.63468 0.11137 0.16384 0.0
H889 H 0.63059 0.11162 0.05489 0.0
H890 H 0.66926 0.1116 0.9449 0.0
C891 C 0.6476 0.10059 0.7309 0.0
C892 C 0.62722 0.09864 0.87618 0.0
C893 C 0.6456 0.10095 0.6683 0.0
C894 C 0.64031 0.10663 0.13406 0.0
C895 C 0.63799 0.10681 0.07157 0.0
C896 C 0.6574 0.10779 0.92635 0.0
C897 C 0.63899 0.10493 0.77116 0.0
C898 C 0.64071 0.10409 0.83786 0.0
C899 C 0.64566 0.10144 0.03108 0.0
C900 C 0.64391 0.10235 0.96458 0.0
H901 H 0.61833 0.11401 0.66776 0.0
H902 H 0.62199 0.11364 0.77666 0.0
H903 H 0.66653 0.11318 0.83585 0.0
H904 H 0.66505 0.0905 0.13318 0.0
H905 H 0.66109 0.09092 0.02462 0.0
C906 C 0.55971 0.65809 0.26969 0.0
C907 C 0.54645 0.65206 0.30926 0.0
C908 C 0.55738 0.65567 0.20731 0.0
C909 C 0.52674 0.6309 0.09135 0.0
H910 H 0.55546 0.66572 0.98466 0.0
C911 C 0.52552 0.6221 0.83328 0.0
C912 C 0.52775 0.63491 0.79567 0.0
C913 C 0.52793 0.62431 0.89565 0.0
C914 C 0.54722 0.65592 0.01373 0.0
H915 H 0.52034 0.63869 0.31446 0.0
H916 H 0.5162 0.63464 0.20551 0.0
H917 H 0.55903 0.66916 0.09368 0.0
H918 H 0.53427 0.66009 0.79403 0.0
H919 H 0.53822 0.66394 0.90334 0.0
H920 H 0.51458 0.61787 0.01152 0.0
C921 C 0.52844 0.64098 0.22265 0.0
C922 C 0.54942 0.65781 0.07638 0.0
C923 C 0.53079 0.64329 0.28516 0.0
C924 C 0.5326 0.65005 0.82183 0.0
C925 C 0.53488 0.65223 0.88446 0.0
C926 C 0.52448 0.62906 0.02874 0.0
C927 C 0.54171 0.64727 0.18282 0.0
C928 C 0.53926 0.64529 0.11605 0.0
C929 C 0.5325 0.63935 0.92224 0.0
C930 C 0.53474 0.64151 0.98904 0.0
H931 H 0.57192 0.66468 0.287 0.0
H932 H 0.5679 0.66036 0.1783 0.0
H933 H 0.51877 0.62093 0.12032 0.0
H934 H 0.52211 0.61038 0.8144 0.0
H935 H 0.52636 0.61421 0.92294 0.0
C936 C 0.51362 0.1394 0.24213 0.0
C937 C 0.50185 0.12477 0.21618 0.0
C938 C 0.52898 0.1418 0.25625 0.0
C939 C 0.54899 0.11889 0.29389 0.0
H940 H 0.58896 0.15635 0.24213 0.0
C941 C 0.61885 0.13564 0.26455 0.0
C942 C 0.62059 0.12944 0.31988 0.0
C943 C 0.60546 0.13765 0.25464 0.0
C944 C 0.57787 0.14585 0.2568 0.0
H945 H 0.49699 0.10122 0.18474 0.0
H946 H 0.52347 0.10536 0.20981 0.0
H947 H 0.56298 0.15472 0.21985 0.0
H948 H 0.61058 0.12189 0.40991 0.0
H949 H 0.58749 0.12546 0.39288 0.0
H950 H 0.56357 0.10976 0.32966 0.0
C951 C 0.5209 0.11497 0.21929 0.0
C952 C 0.56307 0.14499 0.24459 0.0
C953 C 0.50573 0.11264 0.20472 0.0
C954 C 0.60934 0.12628 0.36622 0.0
C955 C 0.59611 0.12835 0.35652 0.0
C956 C 0.56368 0.11979 0.30643 0.0
C957 C 0.53266 0.1295 0.24541 0.0
C958 C 0.54849 0.13137 0.26235 0.0
C959 C 0.59372 0.13355 0.30008 0.0
C960 C 0.57829 0.13321 0.28775 0.0
H961 H 0.51102 0.149 0.25116 0.0
H962 H 0.53785 0.1531 0.2766 0.0
H963 H 0.53795 0.1083 0.30843 0.0
H964 H 0.62739 0.13822 0.22816 0.0
H965 H 0.60389 0.14164 0.21061 0.0
C966 C 0.37481 0.50969 0.43372 0.0
C967 C 0.37352 0.50337 0.37534 0.0
C968 C 0.38735 0.52525 0.44756 0.0
C969 C 0.41683 0.56434 0.38245 0.0
H970 H 0.44495 0.56643 0.5126 0.0
C971 C 0.4817 0.61839 0.41194 0.0
C972 C 0.4884 0.62187 0.47017 0.0
C973 C 0.4663 0.60503 0.40241 0.0
C974 C 0.4371 0.56628 0.47702 0.0
H975 H 0.3837 0.50854 0.28493 0.0
H976 H 0.40533 0.53579 0.30884 0.0
H977 H 0.41999 0.54137 0.49358 0.0
H978 H 0.48402 0.61503 0.56465 0.0
H979 H 0.45695 0.59243 0.54892 0.0
H980 H 0.43379 0.58927 0.36603 0.0
C981 C 0.39679 0.52871 0.34394 0.0
C982 C 0.4228 0.55183 0.46607 0.0
C983 C 0.38451 0.51308 0.33046 0.0
C984 C 0.47919 0.61241 0.5191 0.0
C985 C 0.4637 0.59936 0.5099 0.0
C986 C 0.43101 0.57892 0.39408 0.0
C987 C 0.39851 0.53483 0.40284 0.0
C988 C 0.41267 0.55066 0.41815 0.0
C989 C 0.45721 0.59515 0.45123 0.0
C990 C 0.44148 0.58003 0.441 0.0
H991 H 0.36651 0.50241 0.46912 0.0
H992 H 0.38845 0.52974 0.49333 0.0
H993 H 0.40915 0.56372 0.34531 0.0
H994 H 0.48866 0.6255 0.37351 0.0
H995 H 0.46184 0.60213 0.35647 0.0
C996 C 0.86525 0.3822 0.48984 0.0
C997 C 0.86572 0.37323 0.53922 0.0
C998 C 0.86161 0.39447 0.49831 0.0
C999 C 0.8471 0.41322 0.61294 0.0
H1000 H 0.87163 0.45112 0.51254 0.0
C1001 C 0.86353 0.47827 0.67567 0.0
C1002 C 0.86166 0.48765 0.63097 0.0
C1003 C 0.86058 0.46277 0.66237 0.0
C1004 C 0.8645 0.44053 0.54022 0.0
H1005 H 0.86242 0.36967 0.63593 0.0
H1006 H 0.85692 0.39178 0.65173 0.0
H1007 H 0.87346 0.42706 0.49417 0.0
H1008 H 0.85485 0.48813 0.53787 0.0
H1009 H 0.85017 0.46103 0.51386 0.0
H1010 H 0.8391 0.42739 0.66145 0.0
C1011 C 0.85881 0.38904 0.60599 0.0
C1012 C 0.86547 0.42665 0.52967 0.0
C1013 C 0.86205 0.37643 0.59718 0.0
C1014 C 0.85631 0.48109 0.57311 0.0
C1015 C 0.85369 0.46566 0.55939 0.0
C1016 C 0.84639 0.42725 0.6242 0.0
C1017 C 0.85882 0.39842 0.55669 0.0
C1018 C 0.8569 0.41282 0.56615 0.0
C1019 C 0.856 0.45647 0.60379 0.0
C1020 C 0.85519 0.44105 0.58819 0.0
H1021 H 0.86777 0.37975 0.44448 0.0
H1022 H 0.86122 0.401 0.45894 0.0
H1023 H 0.84009 0.40277 0.6413 0.0
H1024 H 0.86755 0.48303 0.72078 0.0
H1025 H 0.86259 0.45599 0.69719 0.0
C1026 C 0.37943 0.86281 0.84445 0.0
C1027 C 0.37065 0.86312 0.79417 0.0
C1028 C 0.39213 0.85973 0.83724 0.0
C1029 C 0.41299 0.84724 0.72385 0.0
H1030 H 0.44983 0.87275 0.82787 0.0
C1031 C 0.47936 0.8677 0.66606 0.0
C1032 C 0.48864 0.86564 0.71066 0.0
C1033 C 0.46359 0.86406 0.67845 0.0
C1034 C 0.43955 0.86536 0.79915 0.0
H1035 H 0.36781 0.86007 0.6972 0.0
H1036 H 0.39063 0.85558 0.68361 0.0
H1037 H 0.42482 0.87288 0.84477 0.0
H1038 H 0.48872 0.85789 0.80266 0.0
H1039 H 0.46115 0.85206 0.82523 0.0
H1040 H 0.42843 0.84075 0.67579 0.0
C1041 C 0.38743 0.85713 0.72908 0.0
C1042 C 0.42513 0.86534 0.80888 0.0
C1043 C 0.3744 0.85979 0.73663 0.0
C1044 C 0.48177 0.85954 0.76756 0.0
C1045 C 0.46607 0.85624 0.78044 0.0
C1046 C 0.42757 0.84754 0.71341 0.0
C1047 C 0.39669 0.8574 0.77925 0.0
C1048 C 0.41166 0.8564 0.77105 0.0
C1049 C 0.45692 0.8586 0.73604 0.0
C1050 C 0.441 0.85673 0.75068 0.0
H1051 H 0.37659 0.86514 0.88949 0.0
H1052 H 0.39855 0.85951 0.87723 0.0
H1053 H 0.40285 0.83996 0.69446 0.0
H1054 H 0.48433 0.87224 0.6216 0.0
H1055 H 0.45682 0.86611 0.6437 0.0
C1056 C 0.52374 0.38472 0.05045 0.0
C1057 C 0.50932 0.37952 0.018 0.0
C1058 C 0.53814 0.39799 0.03059 0.0
C1059 C 0.55202 0.43474 0.93979 0.0
H1060 H 0.5942 0.43845 0.95344 0.0
C1061 C 0.60807 0.48904 0.8421 0.0
C1062 C 0.62197 0.49652 0.87851 0.0
C1063 C 0.59511 0.47403 0.85773 0.0
C1064 C 0.5825 0.43761 0.94992 0.0
H1065 H 0.4989 0.38355 0.93731 0.0
H1066 H 0.52407 0.40653 0.90216 0.0
H1067 H 0.56998 0.41306 0.98087 0.0
H1068 H 0.63338 0.49382 0.95895 0.0
H1069 H 0.61047 0.46742 0.98679 0.0
H1070 H 0.5644 0.4592 0.90926 0.0
C1071 C 0.52417 0.40058 0.94374 0.0
C1072 C 0.56865 0.42309 0.9655 0.0
C1073 C 0.50976 0.38736 0.9637 0.0
C1074 C 0.62283 0.48836 0.93003 0.0
C1075 C 0.60975 0.47325 0.94584 0.0
C1076 C 0.5658 0.44917 0.92422 0.0
C1077 C 0.53844 0.40631 0.97777 0.0
C1078 C 0.55324 0.42149 0.96027 0.0
C1079 C 0.59565 0.4661 0.91034 0.0
C1080 C 0.58118 0.45076 0.9287 0.0
H1081 H 0.52381 0.37893 0.09248 0.0
H1082 H 0.54888 0.40214 0.05804 0.0
H1083 H 0.54039 0.43408 0.93675 0.0
H1084 H 0.60709 0.49483 0.80154 0.0
H1085 H 0.58457 0.46868 0.8287 0.0
C1086 C 0.12131 0.51045 0.13149 0.0
C1087 C 0.12904 0.50993 0.18474 0.0
C1088 C 0.12277 0.52499 0.11164 0.0
C1089 C 0.14573 0.56959 0.13264 0.0
H1090 H 0.10547 0.56606 0.07918 0.0
C1091 C 0.13487 0.62416 0.10058 0.0
C1092 C 0.12582 0.62338 0.04928 0.0
C1093 C 0.13702 0.61109 0.11558 0.0
C1094 C 0.11686 0.56725 0.09342 0.0
H1095 H 0.145 0.5244 0.25739 0.0
H1096 H 0.14729 0.54969 0.22336 0.0
H1097 H 0.1062 0.54181 0.10595 0.0
H1098 H 0.11287 0.60877 0.97145 0.0
H1099 H 0.11664 0.58625 0.99735 0.0
H1100 H 0.15623 0.5952 0.12085 0.0
C1101 C 0.14026 0.53892 0.1965 0.0
C1102 C 0.1173 0.55333 0.10852 0.0
C1103 C 0.13888 0.52439 0.21614 0.0
C1104 C 0.11962 0.60965 0.01197 0.0
C1105 C 0.12176 0.59671 0.02682 0.0
C1106 C 0.14526 0.58359 0.11768 0.0
C1107 C 0.13189 0.53931 0.14484 0.0
C1108 C 0.13175 0.55428 0.1279 0.0
C1109 C 0.13013 0.59709 0.07945 0.0
C1110 C 0.13083 0.58251 0.09742 0.0
H1111 H 0.11379 0.49955 0.10587 0.0
H1112 H 0.11647 0.52494 0.07085 0.0
H1113 H 0.15707 0.57073 0.14717 0.0
H1114 H 0.13982 0.63459 0.13012 0.0
H1115 H 0.14352 0.61169 0.15651 0.0
C1116 C 0.41164 0.05596 0.04403 0.0
C1117 C 0.4238 0.05875 0.08603 0.0
C1118 C 0.40215 0.04061 0.01868 0.0
C1119 C 0.37952 0.00443 0.99139 0.0
H1120 H 0.40407 0.98382 0.94562 0.0
C1121 C 0.35127 0.93678 0.92779 0.0
C1122 C 0.35953 0.93259 0.88559 0.0
C1123 C 0.35753 0.95289 0.94518 0.0
C1124 C 0.39704 0.98947 0.95722 0.0
H1125 H 0.43488 0.04752 0.13741 0.0
H1126 H 0.41823 0.0208 0.09406 0.0
H1127 H 0.41774 0.01023 0.99293 0.0
H1128 H 0.38 0.94198 0.82458 0.0
H1129 H 0.39073 0.97008 0.85379 0.0
H1130 H 0.35878 0.98353 0.95512 0.0
C1131 C 0.41625 0.0305 0.07954 0.0
C1132 C 0.40485 0.00452 0.98526 0.0
C1133 C 0.42573 0.04578 0.10462 0.0
C1134 C 0.3735 0.94485 0.85784 0.0
C1135 C 0.37968 0.96093 0.87479 0.0
C1136 C 0.37165 0.98927 0.96327 0.0
C1137 C 0.40469 0.02785 0.03502 0.0
C1138 C 0.39617 0.01208 1.0034 0.0
C1139 C 0.37212 0.96506 0.92035 0.0
C1140 C 0.38034 0.9816 0.94622 0.0
H1141 H 0.40991 0.06576 0.02886 0.0
H1142 H 0.39334 0.03892 0.98439 0.0
H1143 H 0.37253 0.00999 1.00491 0.0
H1144 H 0.34046 0.92755 0.94992 0.0
H1145 H 0.35146 0.95565 0.98057 0.0
C1146 C 0.42559 0.37343 0.05639 0.0
C1147 C 0.4249 0.3596 0.08134 0.0
C1148 C 0.41484 0.3784 0.07544 0.0
C1149 C 0.39226 0.37756 0.20844 0.0
H1150 H 0.37332 0.39546 0.10009 0.0
C1151 C 0.35213 0.41176 0.21555 0.0
C1152 C 0.36159 0.42429 0.25612 0.0
C1153 C 0.35716 0.40104 0.19657 0.0
C1154 C 0.37833 0.3903 0.13092 0.0
H1155 H 0.41211 0.33978 0.14427 0.0
H1156 H 0.39339 0.34861 0.1782 0.0
H1157 H 0.38661 0.38143 0.05836 0.0
H1158 H 0.38333 0.435 0.31076 0.0
H1159 H 0.39205 0.4162 0.278 0.0
H1160 H 0.38446 0.38691 0.28094 0.0
C1161 C 0.40225 0.35557 0.14382 0.0
C1162 C 0.38603 0.38239 0.10702 0.0
C1163 C 0.41289 0.35049 0.12417 0.0
C1164 C 0.37581 0.42548 0.27936 0.0
C1165 C 0.38075 0.41466 0.26089 0.0
C1166 C 0.3847 0.38562 0.23233 0.0
C1167 C 0.4033 0.36972 0.12031 0.0
C1168 C 0.39334 0.37622 0.14551 0.0
C1169 C 0.37165 0.40253 0.21838 0.0
C1170 C 0.37793 0.39233 0.19375 0.0
H1171 H 0.43472 0.38068 0.02324 0.0
H1172 H 0.41604 0.38944 0.05695 0.0
H1173 H 0.3979 0.37303 0.23915 0.0
H1174 H 0.3411 0.41056 0.19685 0.0
H1175 H 0.34986 0.39173 0.16409 0.0
C1176 C 0.0597 0.41467 0.30482 0.0
C1177 C 0.0626 0.42696 0.26327 0.0
C1178 C 0.04395 0.40388 0.32404 0.0
C1179 C 0.00104 0.3876 0.28533 0.0
H1180 H 0.99394 0.38372 0.4588 0.0
C1181 C 0.9467 0.37504 0.45554 0.0
C1182 C 0.93379 0.36117 0.42974 0.0
C1183 C 0.96257 0.38014 0.43819 0.0
C1184 C 0.99576 0.3846 0.41027 0.0
H1185 H 0.05135 0.43724 0.2075 0.0
H1186 H 0.02391 0.41833 0.2405 0.0
H1187 H 0.02151 0.39802 0.41922 0.0
H1188 H 0.92736 0.34141 0.3671 0.0
H1189 H 0.95518 0.35046 0.33618 0.0
H1190 H 0.9753 0.37469 0.27632 0.0
C1191 C 0.03375 0.41702 0.25826 0.0
C1192 C 0.01152 0.39266 0.38763 0.0
C1193 C 0.04947 0.42791 0.23967 0.0
C1194 C 0.93709 0.35215 0.38777 0.0
C1195 C 0.95297 0.35736 0.36987 0.0
C1196 C 0.98529 0.3794 0.30794 0.0
C1197 C 0.03085 0.40506 0.30132 0.0
C1198 C 0.01429 0.3946 0.32496 0.0
C1199 C 0.96585 0.37155 0.39422 0.0
C1200 C 0.98249 0.37818 0.37064 0.0
H1201 H 0.06961 0.41369 0.32382 0.0
H1202 H 0.04203 0.39472 0.35708 0.0
H1203 H 0.00285 0.38881 0.2368 0.0
H1204 H 0.94453 0.38221 0.4881 0.0
H1205 H 0.97223 0.39121 0.45727 0.0
C1206 C 0.56813 0.94678 0.62539 0.0
C1207 C 0.56897 0.93376 0.60005 0.0
C1208 C 0.57901 0.9626 0.60766 0.0
C1209 C 0.60269 0.98497 0.47714 0.0
H1210 H 0.62067 0.02136 0.58765 0.0
C1211 C 0.64288 0.05935 0.47395 0.0
C1212 C 0.63373 0.06249 0.43209 0.0
C1213 C 0.6377 0.04354 0.49281 0.0
C1214 C 0.61594 0.01132 0.55626 0.0
H1215 H 0.58219 0.92707 0.53789 0.0
H1216 H 0.60114 0.95477 0.50641 0.0
H1217 H 0.60696 0.99385 0.62781 0.0
H1218 H 0.61242 0.05157 0.37512 0.0
H1219 H 0.60347 0.02399 0.40756 0.0
H1220 H 0.6112 0.00243 0.4056 0.0
C1221 C 0.59205 0.9527 0.53997 0.0
C1222 C 0.60799 0.9956 0.57924 0.0
C1223 C 0.58126 0.93688 0.55821 0.0
C1224 C 0.6197 0.04951 0.40754 0.0
C1225 C 0.61463 0.03371 0.42583 0.0
C1226 C 0.61051 0.00069 0.45417 0.0
C1227 C 0.59085 0.96569 0.56381 0.0
C1228 C 0.60102 0.98228 0.5399 0.0
C1229 C 0.6234 0.03059 0.46952 0.0
C1230 C 0.61693 0.01401 0.49351 0.0
H1231 H 0.5588 0.94474 0.65782 0.0
H1232 H 0.57769 0.97235 0.62638 0.0
H1233 H 0.59733 0.97494 0.44572 0.0
H1234 H 0.65374 0.06914 0.49369 0.0
H1235 H 0.64473 0.04145 0.52627 0.0
C1236 C 0.58196 0.64671 0.62139 0.0
C1237 C 0.56928 0.63674 0.58216 0.0
C1238 C 0.5932 0.64227 0.63962 0.0
C1239 C 0.60944 0.61538 0.60402 0.0
H1240 H 0.61458 0.61443 0.77782 0.0
C1241 C 0.64512 0.58775 0.71198 0.0
C1242 C 0.63615 0.57595 0.7557 0.0
C1243 C 0.64001 0.59835 0.69201 0.0
C1244 C 0.61337 0.61476 0.72919 0.0
H1245 H 0.55884 0.61475 0.52899 0.0
H1246 H 0.5785 0.60705 0.56055 0.0
H1247 H 0.60005 0.6272 0.73622 0.0
H1248 H 0.61532 0.56646 0.81498 0.0
H1249 H 0.6065 0.58504 0.78063 0.0
H1250 H 0.62222 0.60236 0.59718 0.0
C1251 C 0.57978 0.61829 0.57715 0.0
C1252 C 0.60517 0.62217 0.70535 0.0
C1253 C 0.56846 0.62264 0.5594 0.0
C1254 C 0.62244 0.57542 0.78111 0.0
C1255 C 0.61746 0.58612 0.76173 0.0
C1256 C 0.61777 0.60809 0.62785 0.0
C1257 C 0.59206 0.62789 0.61838 0.0
C1258 C 0.60275 0.62216 0.64264 0.0
C1259 C 0.62599 0.59746 0.7161 0.0
C1260 C 0.61942 0.60733 0.69074 0.0
H1261 H 0.5829 0.65766 0.63961 0.0
H1262 H 0.60262 0.64994 0.67112 0.0
H1263 H 0.60786 0.61532 0.55548 0.0
H1264 H 0.65573 0.5884 0.69155 0.0
H1265 H 0.64684 0.60704 0.65699 0.0
C1266 C 0.04527 0.61913 0.95605 0.0
C1267 C 0.05779 0.63362 0.93232 0.0
C1268 C 0.02958 0.61266 0.93419 0.0
C1269 C 0.0025 0.59573 0.84533 0.0
H1270 H 0.98075 0.61953 0.8048 0.0
C1271 C 0.94323 0.56502 0.71456 0.0
C1272 C 0.93069 0.56692 0.7386 0.0
C1273 C 0.95913 0.57511 0.73314 0.0
C1274 C 0.98669 0.61274 0.81602 0.0
H1275 H 0.06359 0.65322 0.86964 0.0
H1276 H 0.03606 0.64176 0.83069 0.0
H1277 H 0.00738 0.63354 0.85314 0.0
H1278 H 0.92502 0.5814 0.79828 0.0
H1279 H 0.95284 0.59888 0.83163 0.0
H1280 H 0.98187 0.57492 0.80974 0.0
C1281 C 0.03839 0.63548 0.86656 0.0
C1282 C 0.00195 0.62077 0.8433 0.0
C1283 C 0.05415 0.64202 0.88875 0.0
C1284 C 0.93446 0.57966 0.77903 0.0
C1285 C 0.9504 0.58971 0.79794 0.0
C1286 C 0.98736 0.58776 0.8181 0.0
C1287 C 0.02607 0.62048 0.88777 0.0
C1288 C 0.00993 0.61229 0.85869 0.0
C1289 C 0.96282 0.58721 0.77654 0.0
C1290 C 0.97925 0.59614 0.80317 0.0
H1291 H 0.04769 0.61248 0.9902 0.0
H1292 H 0.02025 0.60127 0.95246 0.0
H1293 H 0.00845 0.5889 0.85562 0.0
H1294 H 0.94071 0.55542 0.68276 0.0
H1295 H 0.9685 0.57311 0.71481 0.0
loop_
_geom_bond_atom_site_label_1
_geom_bond_atom_site_label_2
_geom_bond_distance
_geom_bond_site_symmetry_2
_ccdc_geom_bond_type
Co0 N4 2.148 . S
Co0 N10 2.128 . S
Co0 N20 2.194 . S
Co0 O25 2.351 . S
Co0 O26 2.155 . S
Co0 O27 2.096 . S
C1 N4 1.301 1_556 S
C1 N5 1.328 . S
C1 H6 0.930 . S
C2 C3 1.333 1_554 S
C2 N4 1.317 . S
C2 H7 0.930 . S
C3 C2 1.333 1_556 S
C3 N5 1.350 . S
C3 H29 0.931 . S
N4 Co0 2.148 . S
N4 C1 1.301 1_554 S
N4 C2 1.317 . S
N5 C1 1.328 . S
N5 C3 1.350 . S
H6 C1 0.930 . S
H7 C2 0.930 . S
C8 O9 1.224 . S
C8 O27 1.247 . S
O9 C8 1.224 . S
N10 Co0 2.128 . S
N10 C11 1.355 . S
N10 C13 1.311 . S
C11 N10 1.355 . S
C11 C12 1.363 . S
C11 H23 0.929 . S
C12 C11 1.363 . S
C12 N14 1.375 . S
C12 H30 0.931 . S
C13 N10 1.311 . S
C13 N14 1.347 . S
C13 H24 0.929 . S
N14 C12 1.375 . S
N14 C13 1.347 . S
C15 C18 1.365 . S
C15 N20 1.328 . S
C15 H21 0.929 . S
C16 C17 1.362 . S
C16 C19 1.378 . S
C16 H31 0.929 . S
C17 C16 1.362 . S
C17 C18 1.366 . S
C18 C15 1.365 . S
C18 C17 1.366 . S
C18 H32 0.930 . S
C19 C16 1.378 . S
C19 N20 1.315 . S
C19 H22 0.930 . S
N20 Co0 2.194 . S
N20 C15 1.328 . S
N20 C19 1.315 . S
H21 C15 0.929 . S
H22 C19 0.930 . S
H23 C11 0.929 . S
H24 C13 0.929 . S
O25 Co0 2.351 . S
O25 C28 1.244 . S
O26 Co0 2.155 . S
O26 C28 1.240 . S
O27 Co0 2.096 . S
O27 C8 1.247 . S
C28 O25 1.244 . S
C28 O26 1.240 . S
H29 C3 0.931 . S
H30 C12 0.931 . S
H31 C16 0.929 . S
H32 C18 0.930 . S
Co33 N37 2.148 . S
Co33 N43 2.128 . S
Co33 N53 2.194 . S
Co33 O58 2.351 . S
Co33 O59 2.155 . S
Co33 O60 2.096 . S
C34 N37 1.301 . S
C34 N38 1.328 . S
C34 H39 0.930 . S
C35 C36 1.333 . S
C35 N37 1.317 . S
C35 H40 0.930 . S
C36 C35 1.333 . S
C36 N38 1.350 . S
C36 H62 0.931 . S
N37 Co33 2.148 . S
N37 C34 1.301 . S
N37 C35 1.317 . S
N38 C34 1.328 . S
N38 C36 1.350 . S
H39 C34 0.930 . S
H40 C35 0.930 . S
C41 O42 1.224 . S
C41 O60 1.247 . S
O42 C41 1.224 . S
N43 Co33 2.128 . S
N43 C44 1.355 . S
N43 C46 1.311 . S
C44 N43 1.355 . S
C44 C45 1.363 . S
C44 H56 0.929 . S
C45 C44 1.363 . S
C45 N47 1.375 . S
C45 H63 0.931 . S
C46 N43 1.311 . S
C46 N47 1.347 . S
C46 H57 0.929 . S
N47 C45 1.375 . S
N47 C46 1.347 . S
C48 C51 1.365 . S
C48 N53 1.328 . S
C48 H54 0.929 . S
C49 C50 1.362 . S
C49 C52 1.378 . S
C49 H64 0.929 . S
C50 C49 1.362 . S
C50 C51 1.366 . S
C51 C48 1.365 . S
C51 C50 1.366 . S
C51 H65 0.930 . S
C52 C49 1.378 . S
C52 N53 1.315 . S
C52 H55 0.930 . S
N53 Co33 2.194 . S
N53 C48 1.328 . S
N53 C52 1.315 . S
H54 C48 0.929 . S
H55 C52 0.930 . S
H56 C44 0.929 . S
H57 C46 0.929 . S
O58 Co33 2.351 . S
O58 C61 1.244 . S
O59 Co33 2.155 . S
O59 C61 1.240 . S
O60 Co33 2.096 . S
O60 C41 1.247 . S
C61 O58 1.244 . S
C61 O59 1.240 . S
H62 C36 0.931 . S
H63 C45 0.931 . S
H64 C49 0.929 . S
H65 C51 0.930 . S
Co66 N70 2.148 . S
Co66 N76 2.128 . S
Co66 N86 2.194 . S
Co66 O91 2.351 . S
Co66 O92 2.155 . S
Co66 O93 2.096 . S
C67 N70 1.301 . S
C67 N71 1.328 . S
C67 H72 0.930 . S
C68 C69 1.333 . S
C68 N70 1.317 . S
C68 H73 0.930 . S
C69 C68 1.333 . S
C69 N71 1.350 . S
C69 H95 0.931 . S
N70 Co66 2.148 . S
N70 C67 1.301 . S
N70 C68 1.317 . S
N71 C67 1.328 . S
N71 C69 1.350 . S
H72 C67 0.930 . S
H73 C68 0.930 . S
C74 O75 1.224 . S
C74 O93 1.247 . S
O75 C74 1.224 . S
N76 Co66 2.128 . S
N76 C77 1.355 . S
N76 C79 1.311 . S
C77 N76 1.355 . S
C77 C78 1.363 . S
C77 H89 0.929 . S
C78 C77 1.363 . S
C78 N80 1.375 . S
C78 H96 0.931 . S
C79 N76 1.311 . S
C79 N80 1.347 . S
C79 H90 0.929 . S
N80 C78 1.375 . S
N80 C79 1.347 . S
C81 C84 1.365 . S
C81 N86 1.328 . S
C81 H87 0.929 . S
C82 C83 1.362 . S
C82 C85 1.378 . S
C82 H97 0.929 . S
C83 C82 1.362 . S
C83 C84 1.366 . S
C84 C81 1.365 . S
C84 C83 1.366 . S
C84 H98 0.930 . S
C85 C82 1.378 . S
C85 N86 1.315 . S
C85 H88 0.930 . S
N86 Co66 2.194 . S
N86 C81 1.328 . S
N86 C85 1.315 . S
H87 C81 0.929 . S
H88 C85 0.930 . S
H89 C77 0.929 . S
H90 C79 0.929 . S
O91 Co66 2.351 . S
O91 C94 1.244 . S
O92 Co66 2.155 . S
O92 C94 1.240 . S
O93 Co66 2.096 . S
O93 C74 1.247 . S
C94 O91 1.244 . S
C94 O92 1.240 . S
H95 C69 0.931 . S
H96 C78 0.931 . S
H97 C82 0.929 . S
H98 C84 0.930 . S
Co99 N103 2.148 . S
Co99 N109 2.128 . S
Co99 N119 2.194 . S
Co99 O124 2.351 . S
Co99 O125 2.155 . S
Co99 O126 2.096 . S
C100 N103 1.301 . S
C100 N104 1.328 . S
C100 H105 0.930 . S
C101 C102 1.333 . S
C101 N103 1.317 . S
C101 H106 0.930 . S
C102 C101 1.333 . S
C102 N104 1.350 . S
C102 H128 0.931 . S
N103 Co99 2.148 . S
N103 C100 1.301 . S
N103 C101 1.317 . S
N104 C100 1.328 . S
N104 C102 1.350 . S
H105 C100 0.930 . S
H106 C101 0.930 . S
C107 O108 1.224 . S
C107 O126 1.247 . S
O108 C107 1.224 . S
N109 Co99 2.128 . S
N109 C110 1.355 . S
N109 C112 1.311 . S
C110 N109 1.355 . S
C110 C111 1.363 . S
C110 H122 0.929 . S
C111 C110 1.363 . S
C111 N113 1.375 . S
C111 H129 0.931 . S
C112 N109 1.311 . S
C112 N113 1.347 . S
C112 H123 0.929 . S
N113 C111 1.375 . S
N113 C112 1.347 . S
C114 C117 1.365 . S
C114 N119 1.328 . S
C114 H120 0.929 . S
C115 C116 1.362 . S
C115 C118 1.378 . S
C115 H130 0.929 . S
C116 C115 1.362 . S
C116 C117 1.366 . S
C117 C114 1.365 . S
C117 C116 1.366 . S
C117 H131 0.930 . S
C118 C115 1.378 . S
C118 N119 1.315 . S
C118 H121 0.930 . S
N119 Co99 2.194 . S
N119 C114 1.328 . S
N119 C118 1.315 . S
H120 C114 0.929 . S
H121 C118 0.930 . S
H122 C110 0.929 . S
H123 C112 0.929 . S
O124 Co99 2.351 . S
O124 C127 1.244 . S
O125 Co99 2.155 . S
O125 C127 1.240 . S
O126 Co99 2.096 . S
O126 C107 1.247 . S
C127 O124 1.244 . S
C127 O125 1.240 . S
H128 C102 0.931 . S
H129 C111 0.931 . S
H130 C115 0.929 . S
H131 C117 0.930 . S
Co132 N136 2.148 . S
Co132 N142 2.128 . S
Co132 N152 2.194 . S
Co132 O157 2.351 . S
Co132 O158 2.155 . S
Co132 O159 2.096 . S
C133 N136 1.301 . S
C133 N137 1.328 . S
C133 H138 0.930 . S
C134 C135 1.333 . S
C134 N136 1.317 . S
C134 H139 0.930 . S
C135 C134 1.333 . S
C135 N137 1.350 . S
C135 H161 0.931 . S
N136 Co132 2.148 . S
N136 C133 1.301 . S
N136 C134 1.317 . S
N137 C133 1.328 . S
N137 C135 1.350 . S
H138 C133 0.930 . S
H139 C134 0.930 . S
C140 O141 1.224 . S
C140 O159 1.247 . S
O141 C140 1.224 . S
N142 Co132 2.128 . S
N142 C143 1.355 . S
N142 C145 1.311 . S
C143 N142 1.355 . S
C143 C144 1.363 . S
C143 H155 0.929 . S
C144 C143 1.363 . S
C144 N146 1.375 . S
C144 H162 0.931 . S
C145 N142 1.311 . S
C145 N146 1.347 . S
C145 H156 0.929 . S
N146 C144 1.375 . S
N146 C145 1.347 . S
C147 C150 1.365 . S
C147 N152 1.328 . S
C147 H153 0.929 . S
C148 C149 1.362 . S
C148 C151 1.378 . S
C148 H163 0.929 . S
C149 C148 1.362 . S
C149 C150 1.366 . S
C150 C147 1.365 . S
C150 C149 1.366 . S
C150 H164 0.930 . S
C151 C148 1.378 . S
C151 N152 1.315 . S
C151 H154 0.930 . S
N152 Co132 2.194 . S
N152 C147 1.328 . S
N152 C151 1.315 . S
H153 C147 0.929 . S
H154 C151 0.930 . S
H155 C143 0.929 . S
H156 C145 0.929 . S
O157 Co132 2.351 . S
O157 C160 1.244 . S
O158 Co132 2.155 . S
O158 C160 1.240 . S
O159 Co132 2.096 . S
O159 C140 1.247 . S
C160 O157 1.244 . S
C160 O158 1.240 . S
H161 C135 0.931 . S
H162 C144 0.931 . S
H163 C148 0.929 . S
H164 C150 0.930 . S
Co165 N169 2.148 . S
Co165 N175 2.128 1_556 S
Co165 N185 2.194 . S
Co165 O190 2.351 . S
Co165 O191 2.155 . S
Co165 O192 2.096 . S
C166 N169 1.301 . S
C166 N170 1.328 . S
C166 H171 0.930 . S
C167 C168 1.333 . S
C167 N169 1.317 . S
C167 H172 0.930 . S
C168 C167 1.333 . S
C168 N170 1.350 . S
C168 H194 0.931 . S
N169 Co165 2.148 . S
N169 C166 1.301 . S
N169 C167 1.317 . S
N170 C166 1.328 . S
N170 C168 1.350 . S
H171 C166 0.930 . S
H172 C167 0.930 . S
C173 O174 1.224 . S
C173 O192 1.247 . S
O174 C173 1.224 . S
N175 Co165 2.128 1_554 S
N175 C176 1.355 . S
N175 C178 1.311 . S
C176 N175 1.355 . S
C176 C177 1.363 . S
C176 H188 0.929 . S
C177 C176 1.363 . S
C177 N179 1.375 . S
C177 H195 0.931 . S
C178 N175 1.311 . S
C178 N179 1.347 . S
C178 H189 0.929 . S
N179 C177 1.375 . S
N179 C178 1.347 . S
C180 C183 1.365 . S
C180 N185 1.328 . S
C180 H186 0.929 . S
C181 C182 1.362 . S
C181 C184 1.378 . S
C181 H196 0.929 . S
C182 C181 1.362 . S
C182 C183 1.366 . S
C183 C180 1.365 . S
C183 C182 1.366 . S
C183 H197 0.930 . S
C184 C181 1.378 . S
C184 N185 1.315 . S
C184 H187 0.930 . S
N185 Co165 2.194 . S
N185 C180 1.328 . S
N185 C184 1.315 . S
H186 C180 0.929 . S
H187 C184 0.930 . S
H188 C176 0.929 . S
H189 C178 0.929 . S
O190 Co165 2.351 . S
O190 C193 1.244 . S
O191 Co165 2.155 . S
O191 C193 1.240 . S
O192 Co165 2.096 . S
O192 C173 1.247 . S
C193 O190 1.244 . S
C193 O191 1.240 . S
H194 C168 0.931 . S
H195 C177 0.931 . S
H196 C181 0.929 . S
H197 C183 0.930 . S
Co198 N202 2.148 . S
Co198 N208 2.128 . S
Co198 N218 2.194 . S
Co198 O223 2.351 . S
Co198 O224 2.155 . S
Co198 O225 2.096 . S
C199 N202 1.301 . S
C199 N203 1.328 . S
C199 H204 0.930 . S
C200 C201 1.333 . S
C200 N202 1.317 . S
C200 H205 0.930 . S
C201 C200 1.333 . S
C201 N203 1.350 . S
C201 H227 0.931 . S
N202 Co198 2.148 . S
N202 C199 1.301 . S
N202 C200 1.317 . S
N203 C199 1.328 . S
N203 C201 1.350 . S
H204 C199 0.930 . S
H205 C200 0.930 . S
C206 O207 1.224 . S
C206 O225 1.247 . S
O207 C206 1.224 . S
N208 Co198 2.128 . S
N208 C209 1.355 . S
N208 C211 1.311 . S
C209 N208 1.355 . S
C209 C210 1.363 . S
C209 H221 0.929 . S
C210 C209 1.363 . S
C210 N212 1.375 . S
C210 H228 0.931 . S
C211 N208 1.311 . S
C211 N212 1.347 . S
C211 H222 0.929 . S
N212 C210 1.375 . S
N212 C211 1.347 . S
C213 C216 1.365 . S
C213 N218 1.328 . S
C213 H219 0.929 . S
C214 C215 1.362 . S
C214 C217 1.378 . S
C214 H229 0.929 . S
C215 C214 1.362 . S
C215 C216 1.366 . S
C216 C213 1.365 . S
C216 C215 1.366 . S
C216 H230 0.930 . S
C217 C214 1.378 . S
C217 N218 1.315 . S
C217 H220 0.930 . S
N218 Co198 2.194 . S
N218 C213 1.328 . S
N218 C217 1.315 . S
H219 C213 0.929 . S
H220 C217 0.930 . S
H221 C209 0.929 . S
H222 C211 0.929 . S
O223 Co198 2.351 . S
O223 C226 1.244 . S
O224 Co198 2.155 . S
O224 C226 1.240 . S
O225 Co198 2.096 . S
O225 C206 1.247 . S
C226 O223 1.244 . S
C226 O224 1.240 . S
H227 C201 0.931 . S
H228 C210 0.931 . S
H229 C214 0.929 . S
H230 C216 0.930 . S
Co231 N235 2.148 . S
Co231 N241 2.128 . S
Co231 N251 2.194 . S
Co231 O256 2.351 . S
Co231 O257 2.155 . S
Co231 O258 2.096 . S
C232 N235 1.301 1_554 S
C232 N236 1.328 . S
C232 H237 0.930 . S
C233 C234 1.333 1_556 S
C233 N235 1.317 . S
C233 H238 0.930 . S
C234 C233 1.333 1_554 S
C234 N236 1.350 . S
C234 H260 0.931 . S
N235 Co231 2.148 . S
N235 C232 1.301 1_556 S
N235 C233 1.317 . S
N236 C232 1.328 . S
N236 C234 1.350 . S
H237 C232 0.930 . S
H238 C233 0.930 . S
C239 O240 1.224 . S
C239 O258 1.247 . S
O240 C239 1.224 . S
N241 Co231 2.128 . S
N241 C242 1.355 . S
N241 C244 1.311 . S
C242 N241 1.355 . S
C242 C243 1.363 . S
C242 H254 0.929 . S
C243 C242 1.363 . S
C243 N245 1.375 . S
C243 H261 0.931 . S
C244 N241 1.311 . S
C244 N245 1.347 . S
C244 H255 0.929 . S
N245 C243 1.375 . S
N245 C244 1.347 . S
C246 C249 1.365 . S
C246 N251 1.328 . S
C246 H252 0.929 . S
C247 C248 1.362 . S
C247 C250 1.378 . S
C247 H262 0.929 . S
C248 C247 1.362 . S
C248 C249 1.366 . S
C249 C246 1.365 . S
C249 C248 1.366 . S
C249 H263 0.930 . S
C250 C247 1.378 . S
C250 N251 1.315 . S
C250 H253 0.930 . S
N251 Co231 2.194 . S
N251 C246 1.328 . S
N251 C250 1.315 . S
H252 C246 0.929 . S
H253 C250 0.930 . S
H254 C242 0.929 . S
H255 C244 0.929 . S
O256 Co231 2.351 . S
O256 C259 1.244 . S
O257 Co231 2.155 . S
O257 C259 1.240 . S
O258 Co231 2.096 . S
O258 C239 1.247 . S
C259 O256 1.244 . S
C259 O257 1.240 . S
H260 C234 0.931 . S
H261 C243 0.931 . S
H262 C247 0.929 . S
H263 C249 0.930 . S
Co264 N268 2.148 . S
Co264 N274 2.128 1_554 S
Co264 N284 2.194 . S
Co264 O289 2.351 . S
Co264 O290 2.155 . S
Co264 O291 2.096 . S
C265 N268 1.301 . S
C265 N269 1.328 . S
C265 H270 0.930 . S
C266 C267 1.333 . S
C266 N268 1.317 . S
C266 H271 0.930 . S
C267 C266 1.333 . S
C267 N269 1.350 . S
C267 H293 0.931 . S
N268 Co264 2.148 . S
N268 C265 1.301 . S
N268 C266 1.317 . S
N269 C265 1.328 . S
N269 C267 1.350 . S
H270 C265 0.930 . S
H271 C266 0.930 . S
C272 O273 1.224 . S
C272 O291 1.247 . S
O273 C272 1.224 . S
N274 Co264 2.128 1_556 S
N274 C275 1.355 . S
N274 C277 1.311 . S
C275 N274 1.355 . S
C275 C276 1.363 . S
C275 H287 0.929 . S
C276 C275 1.363 . S
C276 N278 1.375 . S
C276 H294 0.931 . S
C277 N274 1.311 . S
C277 N278 1.347 . S
C277 H288 0.929 . S
N278 C276 1.375 . S
N278 C277 1.347 . S
C279 C282 1.365 . S
C279 N284 1.328 . S
C279 H285 0.929 . S
C280 C281 1.362 . S
C280 C283 1.378 . S
C280 H295 0.929 . S
C281 C280 1.362 . S
C281 C282 1.366 . S
C282 C279 1.365 . S
C282 C281 1.366 . S
C282 H296 0.930 . S
C283 C280 1.378 . S
C283 N284 1.315 . S
C283 H286 0.930 . S
N284 Co264 2.194 . S
N284 C279 1.328 . S
N284 C283 1.315 . S
H285 C279 0.929 . S
H286 C283 0.930 . S
H287 C275 0.929 . S
H288 C277 0.929 . S
O289 Co264 2.351 . S
O289 C292 1.244 . S
O290 Co264 2.155 . S
O290 C292 1.240 . S
O291 Co264 2.096 . S
O291 C272 1.247 . S
C292 O289 1.244 . S
C292 O290 1.240 . S
H293 C267 0.931 . S
H294 C276 0.931 . S
H295 C280 0.929 . S
H296 C282 0.930 . S
Co297 N301 2.148 . S
Co297 N307 2.128 . S
Co297 N317 2.194 . S
Co297 O322 2.351 . S
Co297 O323 2.155 . S
Co297 O324 2.096 . S
C298 N301 1.301 . S
C298 N302 1.328 . S
C298 H303 0.930 . S
C299 C300 1.333 . S
C299 N301 1.317 . S
C299 H304 0.930 . S
C300 C299 1.333 . S
C300 N302 1.350 . S
C300 H326 0.931 . S
N301 Co297 2.148 . S
N301 C298 1.301 . S
N301 C299 1.317 . S
N302 C298 1.328 . S
N302 C300 1.350 . S
H303 C298 0.930 . S
H304 C299 0.930 . S
C305 O306 1.224 . S
C305 O324 1.247 . S
O306 C305 1.224 . S
N307 Co297 2.128 . S
N307 C308 1.355 . S
N307 C310 1.311 . S
C308 N307 1.355 . S
C308 C309 1.363 . S
C308 H320 0.929 . S
C309 C308 1.363 . S
C309 N311 1.375 . S
C309 H327 0.931 . S
C310 N307 1.311 . S
C310 N311 1.347 . S
C310 H321 0.929 . S
N311 C309 1.375 . S
N311 C310 1.347 . S
C312 C315 1.365 . S
C312 N317 1.328 . S
C312 H318 0.929 . S
C313 C314 1.362 . S
C313 C316 1.378 . S
C313 H328 0.929 . S
C314 C313 1.362 . S
C314 C315 1.366 . S
C315 C312 1.365 . S
C315 C314 1.366 . S
C315 H329 0.930 . S
C316 C313 1.378 . S
C316 N317 1.315 . S
C316 H319 0.930 . S
N317 Co297 2.194 . S
N317 C312 1.328 . S
N317 C316 1.315 . S
H318 C312 0.929 . S
H319 C316 0.930 . S
H320 C308 0.929 . S
H321 C310 0.929 . S
O322 Co297 2.351 . S
O322 C325 1.244 . S
O323 Co297 2.155 . S
O323 C325 1.240 . S
O324 Co297 2.096 . S
O324 C305 1.247 . S
C325 O322 1.244 . S
C325 O323 1.240 . S
H326 C300 0.931 . S
H327 C309 0.931 . S
H328 C313 0.929 . S
H329 C315 0.930 . S
Co330 N334 2.148 . S
Co330 N340 2.128 . S
Co330 N350 2.194 . S
Co330 O355 2.351 . S
Co330 O356 2.155 . S
Co330 O357 2.096 . S
C331 N334 1.301 . S
C331 N335 1.328 . S
C331 H336 0.930 . S
C332 C333 1.333 . S
C332 N334 1.317 . S
C332 H337 0.930 . S
C333 C332 1.333 . S
C333 N335 1.350 . S
C333 H359 0.931 . S
N334 Co330 2.148 . S
N334 C331 1.301 . S
N334 C332 1.317 . S
N335 C331 1.328 . S
N335 C333 1.350 . S
H336 C331 0.930 . S
H337 C332 0.930 . S
C338 O339 1.224 . S
C338 O357 1.247 . S
O339 C338 1.224 . S
N340 Co330 2.128 . S
N340 C341 1.355 . S
N340 C343 1.311 . S
C341 N340 1.355 . S
C341 C342 1.363 . S
C341 H353 0.929 . S
C342 C341 1.363 . S
C342 N344 1.375 . S
C342 H360 0.931 . S
C343 N340 1.311 . S
C343 N344 1.347 . S
C343 H354 0.929 . S
N344 C342 1.375 . S
N344 C343 1.347 . S
C345 C348 1.365 . S
C345 N350 1.328 . S
C345 H351 0.929 . S
C346 C347 1.362 . S
C346 C349 1.378 . S
C346 H361 0.929 . S
C347 C346 1.362 . S
C347 C348 1.366 . S
C348 C345 1.365 . S
C348 C347 1.366 . S
C348 H362 0.930 . S
C349 C346 1.378 . S
C349 N350 1.315 . S
C349 H352 0.930 . S
N350 Co330 2.194 . S
N350 C345 1.328 . S
N350 C349 1.315 . S
H351 C345 0.929 . S
H352 C349 0.930 . S
H353 C341 0.929 . S
H354 C343 0.929 . S
O355 Co330 2.351 . S
O355 C358 1.244 . S
O356 Co330 2.155 . S
O356 C358 1.240 . S
O357 Co330 2.096 . S
O357 C338 1.247 . S
C358 O355 1.244 . S
C358 O356 1.240 . S
H359 C333 0.931 . S
H360 C342 0.931 . S
H361 C346 0.929 . S
H362 C348 0.930 . S
Co363 N367 2.148 . S
Co363 N373 2.128 . S
Co363 N383 2.194 . S
Co363 O388 2.351 . S
Co363 O389 2.155 . S
Co363 O390 2.096 . S
C364 N367 1.301 . S
C364 N368 1.328 . S
C364 H369 0.930 . S
C365 C366 1.333 . S
C365 N367 1.317 . S
C365 H370 0.930 . S
C366 C365 1.333 . S
C366 N368 1.350 . S
C366 H392 0.931 . S
N367 Co363 2.148 . S
N367 C364 1.301 . S
N367 C365 1.317 . S
N368 C364 1.328 . S
N368 C366 1.350 . S
H369 C364 0.930 . S
H370 C365 0.930 . S
C371 O372 1.224 . S
C371 O390 1.247 . S
O372 C371 1.224 . S
N373 Co363 2.128 . S
N373 C374 1.355 . S
N373 C376 1.311 . S
C374 N373 1.355 . S
C374 C375 1.363 . S
C374 H386 0.929 . S
C375 C374 1.363 . S
C375 N377 1.375 . S
C375 H393 0.931 . S
C376 N373 1.311 . S
C376 N377 1.347 . S
C376 H387 0.929 . S
N377 C375 1.375 . S
N377 C376 1.347 . S
C378 C381 1.365 . S
C378 N383 1.328 . S
C378 H384 0.929 . S
C379 C380 1.362 . S
C379 C382 1.378 . S
C379 H394 0.929 . S
C380 C379 1.362 . S
C380 C381 1.366 . S
C381 C378 1.365 . S
C381 C380 1.366 . S
C381 H395 0.930 . S
C382 C379 1.378 . S
C382 N383 1.315 . S
C382 H385 0.930 . S
N383 Co363 2.194 . S
N383 C378 1.328 . S
N383 C382 1.315 . S
H384 C378 0.929 . S
H385 C382 0.930 . S
H386 C374 0.929 . S
H387 C376 0.929 . S
O388 Co363 2.351 . S
O388 C391 1.244 . S
O389 Co363 2.155 . S
O389 C391 1.240 . S
O390 Co363 2.096 . S
O390 C371 1.247 . S
C391 O388 1.244 . S
C391 O389 1.240 . S
H392 C366 0.931 . S
H393 C375 0.931 . S
H394 C379 0.929 . S
H395 C381 0.930 . S
C396 C397 1.349 . S
C396 C398 1.327 . S
C396 H421 0.950 1_554 S
C397 C396 1.349 . S
C397 C413 1.349 . S
C398 C396 1.327 . S
C398 C417 1.429 . S
C398 H422 0.950 1_554 S
C399 C416 1.574 . S
C399 C418 1.368 . S
C399 H423 0.949 . S
H400 C404 0.949 . S
C401 C402 1.349 . S
C401 C403 1.327 . S
C401 H424 0.950 . S
C402 C401 1.349 . S
C402 C414 1.349 . S
C403 C401 1.327 . S
C403 C419 1.429 . S
C403 H425 0.950 . S
C404 H400 0.949 . S
C404 C412 1.574 . S
C404 C420 1.368 . S
H405 C413 0.950 . S
H406 C411 0.950 . S
H407 C412 0.955 . S
H408 C414 0.950 . S
H409 C415 0.950 . S
H410 C416 0.949 . S
C411 H406 0.950 . S
C411 C413 1.327 . S
C411 C417 1.429 . S
C412 C404 1.574 . S
C412 H407 0.955 . S
C412 C418 1.368 . S
C413 C397 1.349 . S
C413 H405 0.950 . S
C413 C411 1.327 . S
C414 C402 1.349 . S
C414 H408 0.950 . S
C414 C415 1.327 . S
C415 H409 0.950 . S
C415 C414 1.327 . S
C415 C419 1.429 . S
C416 C399 1.574 . S
C416 H410 0.949 . S
C416 C420 1.368 . S
C417 C398 1.429 . S
C417 C411 1.429 . S
C417 C418 1.523 . S
C418 C399 1.368 . S
C418 C412 1.368 . S
C418 C417 1.523 . S
C419 C403 1.429 . S
C419 C415 1.429 . S
C419 C420 1.523 . S
C420 C404 1.368 . S
C420 C416 1.368 . S
C420 C419 1.523 . S
H421 C396 0.950 1_556 S
H422 C398 0.950 1_556 S
H423 C399 0.949 . S
H424 C401 0.950 . S
H425 C403 0.950 . S
C426 C427 1.349 . S
C426 C428 1.327 . S
C426 H451 0.950 . S
C427 C426 1.349 . S
C427 C443 1.349 . S
C428 C426 1.327 . S
C428 C447 1.429 . S
C428 H452 0.950 . S
C429 C446 1.574 . S
C429 C448 1.368 . S
C429 H453 0.949 . S
H430 C434 0.949 . S
C431 C432 1.349 . S
C431 C433 1.327 . S
C431 H454 0.950 . S
C432 C431 1.349 . S
C432 C444 1.349 . S
C433 C431 1.327 . S
C433 C449 1.429 . S
C433 H455 0.950 . S
C434 H430 0.949 . S
C434 C442 1.574 . S
C434 C450 1.368 . S
H435 C443 0.950 . S
H436 C441 0.950 . S
H437 C442 0.949 . S
H438 C444 0.950 . S
H439 C445 0.950 . S
H440 C446 0.949 . S
C441 H436 0.950 . S
C441 C443 1.327 . S
C441 C447 1.429 . S
C442 C434 1.574 . S
C442 H437 0.949 . S
C442 C448 1.368 . S
C443 C427 1.349 . S
C443 H435 0.950 . S
C443 C441 1.327 . S
C444 C432 1.349 . S
C444 H438 0.950 . S
C444 C445 1.327 . S
C445 H439 0.950 . S
C445 C444 1.327 . S
C445 C449 1.429 . S
C446 C429 1.574 . S
C446 H440 0.949 . S
C446 C450 1.368 . S
C447 C428 1.429 . S
C447 C441 1.429 . S
C447 C448 1.523 . S
C448 C429 1.368 . S
C448 C442 1.368 . S
C448 C447 1.523 . S
C449 C433 1.429 . S
C449 C445 1.429 . S
C449 C450 1.523 . S
C450 C434 1.368 . S
C450 C446 1.368 . S
C450 C449 1.523 . S
H451 C426 0.950 . S
H452 C428 0.950 . S
H453 C429 0.949 . S
H454 C431 0.950 . S
H455 C433 0.950 . S
C456 C457 1.349 . S
C456 C458 1.327 . S
C456 H481 0.950 . S
C457 C456 1.349 . S
C457 C473 1.349 . S
C458 C456 1.327 . S
C458 C477 1.429 . S
C458 H482 0.950 . S
C459 C476 1.574 . S
C459 C478 1.368 . S
C459 H483 0.949 . S
H460 C464 0.949 . S
C461 C462 1.349 . S
C461 C463 1.327 . S
C461 H484 0.950 . S
C462 C461 1.349 . S
C462 C474 1.349 . S
C463 C461 1.327 . S
C463 C479 1.429 . S
C463 H485 0.950 . S
C464 H460 0.949 . S
C464 C472 1.574 . S
C464 C480 1.368 . S
H465 C473 0.950 . S
H466 C471 0.950 . S
H467 C472 0.949 . S
H468 C474 0.950 . S
H469 C475 0.950 . S
H470 C476 0.949 . S
C471 H466 0.950 . S
C471 C473 1.327 . S
C471 C477 1.429 . S
C472 C464 1.574 . S
C472 H467 0.949 . S
C472 C478 1.368 . S
C473 C457 1.349 . S
C473 H465 0.950 . S
C473 C471 1.327 . S
C474 C462 1.349 . S
C474 H468 0.950 . S
C474 C475 1.327 . S
C475 H469 0.950 . S
C475 C474 1.327 . S
C475 C479 1.429 . S
C476 C459 1.574 . S
C476 H470 0.949 . S
C476 C480 1.368 . S
C477 C458 1.429 . S
C477 C471 1.429 . S
C477 C478 1.523 . S
C478 C459 1.368 . S
C478 C472 1.368 . S
C478 C477 1.523 . S
C479 C463 1.429 . S
C479 C475 1.429 . S
C479 C480 1.523 . S
C480 C464 1.368 . S
C480 C476 1.368 . S
C480 C479 1.523 . S
H481 C456 0.950 . S
H482 C458 0.950 . S
H483 C459 0.949 . S
H484 C461 0.950 . S
H485 C463 0.950 . S
C486 C487 1.349 . S
C486 C488 1.327 . S
C486 H511 0.950 . S
C487 C486 1.349 . S
C487 C503 1.349 . S
C488 C486 1.327 . S
C488 C507 1.429 . S
C488 H512 0.950 . S
C489 C506 1.574 . S
C489 C508 1.368 . S
C489 H513 0.949 . S
H490 C494 0.949 . S
C491 C492 1.349 . S
C491 C493 1.327 . S
C491 H514 0.950 . S
C492 C491 1.349 . S
C492 C504 1.349 . S
C493 C491 1.327 . S
C493 C509 1.429 . S
C493 H515 0.950 . S
C494 H490 0.949 . S
C494 C502 1.574 . S
C494 C510 1.368 . S
H495 C503 0.950 . S
H496 C501 0.950 . S
H497 C502 0.949 . S
H498 C504 0.950 . S
H499 C505 0.950 . S
H500 C506 0.949 . S
C501 H496 0.950 . S
C501 C503 1.327 . S
C501 C507 1.429 . S
C502 C494 1.574 . S
C502 H497 0.949 . S
C502 C508 1.368 . S
C503 C487 1.349 . S
C503 H495 0.950 . S
C503 C501 1.327 . S
C504 C492 1.349 . S
C504 H498 0.950 . S
C504 C505 1.327 . S
C505 H499 0.950 . S
C505 C504 1.327 . S
C505 C509 1.429 . S
C506 C489 1.574 . S
C506 H500 0.949 . S
C506 C510 1.368 . S
C507 C488 1.429 . S
C507 C501 1.429 . S
C507 C508 1.523 . S
C508 C489 1.368 . S
C508 C502 1.368 . S
C508 C507 1.523 . S
C509 C493 1.429 . S
C509 C505 1.429 . S
C509 C510 1.523 . S
C510 C494 1.368 . S
C510 C506 1.368 . S
C510 C509 1.523 . S
H511 C486 0.950 . S
H512 C488 0.950 . S
H513 C489 0.949 . S
H514 C491 0.950 . S
H515 C493 0.950 . S
C516 C517 1.349 . S
C516 C518 1.327 . S
C516 H541 0.950 . S
C517 C516 1.349 . S
C517 C533 1.349 . S
C518 C516 1.327 . S
C518 C537 1.429 . S
C518 H542 0.950 . S
C519 C536 1.574 . S
C519 C538 1.368 . S
C519 H543 0.949 . S
H520 C524 0.949 . S
C521 C522 1.349 . S
C521 C523 1.327 . S
C521 H544 0.950 . S
C522 C521 1.349 . S
C522 C534 1.349 . S
C523 C521 1.327 . S
C523 C539 1.429 . S
C523 H545 0.950 . S
C524 H520 0.949 . S
C524 C532 1.574 . S
C524 C540 1.368 . S
H525 C533 0.950 . S
H526 C531 0.950 . S
H527 C532 0.949 . S
H528 C534 0.950 . S
H529 C535 0.950 . S
H530 C536 0.949 . S
C531 H526 0.950 . S
C531 C533 1.327 . S
C531 C537 1.429 . S
C532 C524 1.574 . S
C532 H527 0.949 . S
C532 C538 1.368 . S
C533 C517 1.349 . S
C533 H525 0.950 . S
C533 C531 1.327 . S
C534 C522 1.349 . S
C534 H528 0.950 . S
C534 C535 1.327 . S
C535 H529 0.950 . S
C535 C534 1.327 . S
C535 C539 1.429 . S
C536 C519 1.574 . S
C536 H530 0.949 . S
C536 C540 1.368 . S
C537 C518 1.429 . S
C537 C531 1.429 . S
C537 C538 1.523 . S
C538 C519 1.368 . S
C538 C532 1.368 . S
C538 C537 1.523 . S
C539 C523 1.429 . S
C539 C535 1.429 . S
C539 C540 1.523 . S
C540 C524 1.368 . S
C540 C536 1.368 . S
C540 C539 1.523 . S
H541 C516 0.950 . S
H542 C518 0.950 . S
H543 C519 0.949 . S
H544 C521 0.950 . S
H545 C523 0.950 . S
C546 C547 1.349 . S
C546 C548 1.327 . S
C546 H571 0.950 . S
C547 C546 1.349 . S
C547 C563 1.349 . S
C548 C546 1.327 . S
C548 C567 1.429 . S
C548 H572 0.950 . S
C549 C566 1.574 . S
C549 C568 1.368 . S
C549 H573 0.949 . S
H550 C554 0.949 . S
C551 C552 1.349 . S
C551 C553 1.327 . S
C551 H574 0.950 . S
C552 C551 1.349 . S
C552 C564 1.349 . S
C553 C551 1.327 . S
C553 C569 1.429 . S
C553 H575 0.950 . S
C554 H550 0.949 . S
C554 C562 1.574 . S
C554 C570 1.368 . S
H555 C563 0.950 . S
H556 C561 0.950 . S
H557 C562 0.949 . S
H558 C564 0.950 1_554 S
H559 C565 0.950 1_554 S
H560 C566 0.949 . S
C561 H556 0.950 . S
C561 C563 1.327 . S
C561 C567 1.429 . S
C562 C554 1.574 . S
C562 H557 0.949 . S
C562 C568 1.368 . S
C563 C547 1.349 . S
C563 H555 0.950 . S
C563 C561 1.327 . S
C564 C552 1.349 . S
C564 H558 0.950 1_556 S
C564 C565 1.327 . S
C565 H559 0.950 1_556 S
C565 C564 1.327 . S
C565 C569 1.429 . S
C566 C549 1.574 . S
C566 H560 0.949 . S
C566 C570 1.368 . S
C567 C548 1.429 . S
C567 C561 1.429 . S
C567 C568 1.523 . S
C568 C549 1.368 . S
C568 C562 1.368 . S
C568 C567 1.523 . S
C569 C553 1.429 . S
C569 C565 1.429 . S
C569 C570 1.523 . S
C570 C554 1.368 . S
C570 C566 1.368 . S
C570 C569 1.523 . S
H571 C546 0.950 . S
H572 C548 0.950 . S
H573 C549 0.949 . S
H574 C551 0.950 . S
H575 C553 0.950 . S
C576 C577 1.349 . S
C576 C578 1.327 . S
C576 H601 0.950 . S
C577 C576 1.349 . S
C577 C593 1.349 . S
C578 C576 1.327 . S
C578 C597 1.429 . S
C578 H602 0.950 . S
C579 C596 1.574 . S
C579 C598 1.368 . S
C579 H603 0.949 . S
H580 C584 0.949 . S
C581 C582 1.349 . S
C581 C583 1.327 . S
C581 H604 0.950 . S
C582 C581 1.349 . S
C582 C594 1.349 . S
C583 C581 1.327 . S
C583 C599 1.429 . S
C583 H605 0.950 . S
C584 H580 0.949 . S
C584 C592 1.574 . S
C584 C600 1.368 . S
H585 C593 0.950 . S
H586 C591 0.950 . S
H587 C592 0.949 . S
H588 C594 0.950 . S
H589 C595 0.950 . S
H590 C596 0.949 . S
C591 H586 0.950 . S
C591 C593 1.327 . S
C591 C597 1.429 . S
C592 C584 1.574 . S
C592 H587 0.949 . S
C592 C598 1.368 . S
C593 C577 1.349 . S
C593 H585 0.950 . S
C593 C591 1.327 . S
C594 C582 1.349 . S
C594 H588 0.950 . S
C594 C595 1.327 . S
C595 H589 0.950 . S
C595 C594 1.327 . S
C595 C599 1.429 . S
C596 C579 1.574 . S
C596 H590 0.949 . S
C596 C600 1.368 . S
C597 C578 1.429 . S
C597 C591 1.429 . S
C597 C598 1.523 . S
C598 C579 1.368 . S
C598 C592 1.368 . S
C598 C597 1.523 . S
C599 C583 1.429 . S
C599 C595 1.429 . S
C599 C600 1.523 . S
C600 C584 1.368 . S
C600 C596 1.368 . S
C600 C599 1.523 . S
H601 C576 0.950 . S
H602 C578 0.950 . S
H603 C579 0.949 . S
H604 C581 0.950 . S
H605 C583 0.950 . S
C606 C607 1.349 . S
C606 C608 1.327 . S
C606 H631 0.950 . S
C607 C606 1.349 . S
C607 C623 1.349 . S
C608 C606 1.327 . S
C608 C627 1.429 . S
C608 H632 0.950 . S
C609 C626 1.574 . S
C609 C628 1.368 . S
C609 H633 0.949 . S
H610 C614 0.949 . S
C611 C612 1.349 . S
C611 C613 1.327 1_554 S
C611 H634 0.950 . S
C612 C611 1.349 . S
C612 C624 1.349 . S
C613 C611 1.327 1_556 S
C613 C629 1.429 . S
C613 H635 0.950 . S
C614 H610 0.949 . S
C614 C622 1.574 . S
C614 C630 1.368 . S
H615 C623 0.950 . S
H616 C621 0.950 . S
H617 C622 0.949 . S
H618 C624 0.950 . S
H619 C625 0.950 . S
H620 C626 0.949 . S
C621 H616 0.950 . S
C621 C623 1.327 . S
C621 C627 1.429 . S
C622 C614 1.574 . S
C622 H617 0.949 . S
C622 C628 1.368 . S
C623 C607 1.349 . S
C623 H615 0.950 . S
C623 C621 1.327 . S
C624 C612 1.349 . S
C624 H618 0.950 . S
C624 C625 1.327 1_554 S
C625 H619 0.950 . S
C625 C624 1.327 1_556 S
C625 C629 1.429 . S
C626 C609 1.574 . S
C626 H620 0.949 . S
C626 C630 1.368 . S
C627 C608 1.429 . S
C627 C621 1.429 . S
C627 C628 1.523 . S
C628 C609 1.368 . S
C628 C622 1.368 . S
C628 C627 1.523 . S
C629 C613 1.429 . S
C629 C625 1.429 . S
C629 C630 1.523 . S
C630 C614 1.368 . S
C630 C626 1.368 . S
C630 C629 1.523 . S
H631 C606 0.950 . S
H632 C608 0.950 . S
H633 C609 0.949 . S
H634 C611 0.950 . S
H635 C613 0.950 . S
C636 C637 1.349 . S
C636 C638 1.327 . S
C636 H661 0.950 . S
C637 C636 1.349 . S
C637 C653 1.349 . S
C638 C636 1.327 . S
C638 C657 1.429 . S
C638 H662 0.950 . S
C639 C656 1.574 . S
C639 C658 1.368 . S
C639 H663 0.949 . S
H640 C644 0.949 1_554 S
C641 C642 1.349 . S
C641 C643 1.327 . S
C641 H664 0.950 . S
C642 C641 1.349 . S
C642 C654 1.349 . S
C643 C641 1.327 . S
C643 C659 1.429 . S
C643 H665 0.950 . S
C644 H640 0.949 1_556 S
C644 C652 1.574 . S
C644 C660 1.368 1_556 S
H645 C653 0.950 . S
H646 C651 0.950 . S
H647 C652 0.949 . S
H648 C654 0.950 . S
H649 C655 0.950 . S
H650 C656 0.949 1_554 S
C651 H646 0.950 . S
C651 C653 1.327 . S
C651 C657 1.429 . S
C652 C644 1.574 . S
C652 H647 0.949 . S
C652 C658 1.368 . S
C653 C637 1.349 . S
C653 H645 0.950 . S
C653 C651 1.327 . S
C654 C642 1.349 . S
C654 H648 0.950 . S
C654 C655 1.327 . S
C655 H649 0.950 . S
C655 C654 1.327 . S
C655 C659 1.429 . S
C656 C639 1.574 . S
C656 H650 0.949 1_556 S
C656 C660 1.368 1_556 S
C657 C638 1.429 . S
C657 C651 1.429 . S
C657 C658 1.523 . S
C658 C639 1.368 . S
C658 C652 1.368 . S
C658 C657 1.523 . S
C659 C643 1.429 . S
C659 C655 1.429 . S
C659 C660 1.523 . S
C660 C644 1.368 1_554 S
C660 C656 1.368 1_554 S
C660 C659 1.523 . S
H661 C636 0.950 . S
H662 C638 0.950 . S
H663 C639 0.949 . S
H664 C641 0.950 . S
H665 C643 0.950 . S
C666 C667 1.349 . S
C666 C668 1.327 . S
C666 H691 0.950 . S
C667 C666 1.349 . S
C667 C683 1.349 . S
C668 C666 1.327 . S
C668 C687 1.429 . S
C668 H692 0.950 . S
C669 C686 1.574 . S
C669 C688 1.368 . S
C669 H693 0.949 . S
H670 C674 0.949 . S
C671 C672 1.349 . S
C671 C673 1.327 . S
C671 H694 0.950 . S
C672 C671 1.349 . S
C672 C684 1.349 . S
C673 C671 1.327 . S
C673 C689 1.429 . S
C673 H695 0.950 . S
C674 H670 0.949 . S
C674 C682 1.574 . S
C674 C690 1.368 . S
H675 C683 0.950 . S
H676 C681 0.950 . S
H677 C682 0.949 . S
H678 C684 0.950 . S
H679 C685 0.950 . S
H680 C686 0.949 . S
C681 H676 0.950 . S
C681 C683 1.327 . S
C681 C687 1.429 . S
C682 C674 1.574 . S
C682 H677 0.949 . S
C682 C688 1.368 . S
C683 C667 1.349 . S
C683 H675 0.950 . S
C683 C681 1.327 . S
C684 C672 1.349 . S
C684 H678 0.950 . S
C684 C685 1.327 . S
C685 H679 0.950 . S
C685 C684 1.327 . S
C685 C689 1.429 . S
C686 C669 1.574 . S
C686 H680 0.949 . S
C686 C690 1.368 . S
C687 C668 1.429 . S
C687 C681 1.429 . S
C687 C688 1.523 1_556 S
C688 C669 1.368 . S
C688 C682 1.368 . S
C688 C687 1.523 1_554 S
C689 C673 1.429 . S
C689 C685 1.429 . S
C689 C690 1.523 . S
C690 C674 1.368 . S
C690 C686 1.368 . S
C690 C689 1.523 . S
H691 C666 0.950 . S
H692 C668 0.950 . S
H693 C669 0.949 . S
H694 C671 0.950 . S
H695 C673 0.950 . S
C696 C697 1.349 . S
C696 C698 1.327 . S
C696 H721 0.950 . S
C697 C696 1.349 . S
C697 C713 1.349 . S
C698 C696 1.327 . S
C698 C717 1.429 . S
C698 H722 0.950 . S
C699 C716 1.574 . S
C699 C718 1.368 . S
C699 H723 0.949 . S
H700 C704 0.949 . S
C701 C702 1.349 . S
C701 C703 1.327 . S
C701 H724 0.950 . S
C702 C701 1.349 . S
C702 C714 1.349 . S
C703 C701 1.327 . S
C703 C719 1.429 . S
C703 H725 0.950 . S
C704 H700 0.949 . S
C704 C712 1.574 . S
C704 C720 1.368 . S
H705 C713 0.950 . S
H706 C711 0.950 . S
H707 C712 0.949 . S
H708 C714 0.950 . S
H709 C715 0.950 . S
H710 C716 0.949 . S
C711 H706 0.950 . S
C711 C713 1.327 . S
C711 C717 1.429 . S
C712 C704 1.574 . S
C712 H707 0.949 . S
C712 C718 1.368 . S
C713 C697 1.349 . S
C713 H705 0.950 . S
C713 C711 1.327 . S
C714 C702 1.349 . S
C714 H708 0.950 . S
C714 C715 1.327 . S
C715 H709 0.950 . S
C715 C714 1.327 . S
C715 C719 1.429 . S
C716 C699 1.574 . S
C716 H710 0.949 . S
C716 C720 1.368 . S
C717 C698 1.429 . S
C717 C711 1.429 . S
C717 C718 1.523 . S
C718 C699 1.368 . S
C718 C712 1.368 . S
C718 C717 1.523 . S
C719 C703 1.429 . S
C719 C715 1.429 . S
C719 C720 1.523 . S
C720 C704 1.368 . S
C720 C716 1.368 . S
C720 C719 1.523 . S
H721 C696 0.950 . S
H722 C698 0.950 . S
H723 C699 0.949 . S
H724 C701 0.950 . S
H725 C703 0.950 . S
C726 C727 1.349 . S
C726 C728 1.327 . S
C726 H751 0.950 . S
C727 C726 1.349 . S
C727 C743 1.349 . S
C728 C726 1.327 . S
C728 C747 1.429 . S
C728 H752 0.950 . S
C729 C746 1.574 . S
C729 C748 1.368 . S
C729 H753 0.949 . S
H730 C734 0.949 . S
C731 C732 1.349 . S
C731 C733 1.327 . S
C731 H754 0.950 . S
C732 C731 1.349 . S
C732 C744 1.349 . S
C733 C731 1.327 . S
C733 C749 1.429 . S
C733 H755 0.950 . S
C734 H730 0.949 . S
C734 C742 1.574 . S
C734 C750 1.368 . S
H735 C743 0.950 . S
H736 C741 0.950 . S
H737 C742 0.949 . S
H738 C744 0.950 . S
H739 C745 0.950 . S
H740 C746 0.949 . S
C741 H736 0.950 . S
C741 C743 1.327 . S
C741 C747 1.429 . S
C742 C734 1.574 . S
C742 H737 0.949 . S
C742 C748 1.368 . S
C743 C727 1.349 . S
C743 H735 0.950 . S
C743 C741 1.327 . S
C744 C732 1.349 . S
C744 H738 0.950 . S
C744 C745 1.327 . S
C745 H739 0.950 . S
C745 C744 1.327 . S
C745 C749 1.429 . S
C746 C729 1.574 . S
C746 H740 0.949 . S
C746 C750 1.368 . S
C747 C728 1.429 . S
C747 C741 1.429 . S
C747 C748 1.523 . S
C748 C729 1.368 . S
C748 C742 1.368 . S
C748 C747 1.523 . S
C749 C733 1.429 . S
C749 C745 1.429 . S
C749 C750 1.523 . S
C750 C734 1.368 . S
C750 C746 1.368 . S
C750 C749 1.523 . S
H751 C726 0.950 . S
H752 C728 0.950 . S
H753 C729 0.949 . S
H754 C731 0.950 . S
H755 C733 0.950 . S
C756 C757 1.349 . S
C756 C758 1.327 1_556 S
C756 H781 0.950 . S
C757 C756 1.349 . S
C757 C773 1.349 . S
C758 C756 1.327 1_554 S
C758 C777 1.429 . S
C758 H782 0.950 . S
C759 C776 1.574 . S
C759 C778 1.368 . S
C759 H783 0.949 . S
H760 C764 0.949 . S
C761 C762 1.349 . S
C761 C763 1.327 . S
C761 H784 0.950 . S
C762 C761 1.349 . S
C762 C774 1.349 . S
C763 C761 1.327 . S
C763 C779 1.429 . S
C763 H785 0.950 . S
C764 H760 0.949 . S
C764 C772 1.574 . S
C764 C780 1.368 . S
H765 C773 0.950 . S
H766 C771 0.950 . S
H767 C772 0.949 . S
H768 C774 0.950 . S
H769 C775 0.950 . S
H770 C776 0.949 . S
C771 H766 0.950 . S
C771 C773 1.327 1_554 S
C771 C777 1.429 . S
C772 C764 1.574 . S
C772 H767 0.949 . S
C772 C778 1.368 . S
C773 C757 1.349 . S
C773 H765 0.950 . S
C773 C771 1.327 1_556 S
C774 C762 1.349 . S
C774 H768 0.950 . S
C774 C775 1.327 . S
C775 H769 0.950 . S
C775 C774 1.327 . S
C775 C779 1.429 . S
C776 C759 1.574 . S
C776 H770 0.949 . S
C776 C780 1.368 . S
C777 C758 1.429 . S
C777 C771 1.429 . S
C777 C778 1.523 . S
C778 C759 1.368 . S
C778 C772 1.368 . S
C778 C777 1.523 . S
C779 C763 1.429 . S
C779 C775 1.429 . S
C779 C780 1.523 . S
C780 C764 1.368 . S
C780 C776 1.368 . S
C780 C779 1.523 . S
H781 C756 0.950 . S
H782 C758 0.950 . S
H783 C759 0.949 . S
H784 C761 0.950 . S
H785 C763 0.950 . S
C786 C787 1.349 . S
C786 C788 1.327 . S
C786 H811 0.950 . S
C787 C786 1.349 . S
C787 C803 1.349 . S
C788 C786 1.327 . S
C788 C807 1.429 . S
C788 H812 0.950 . S
C789 C806 1.574 . S
C789 C808 1.368 . S
C789 H813 0.949 . S
H790 C794 0.949 . S
C791 C792 1.349 . S
C791 C793 1.327 . S
C791 H814 0.950 . S
C792 C791 1.349 . S
C792 C804 1.349 . S
C793 C791 1.327 . S
C793 C809 1.429 . S
C793 H815 0.950 . S
C794 H790 0.949 . S
C794 C802 1.574 . S
C794 C810 1.368 . S
H795 C803 0.950 . S
H796 C801 0.950 . S
H797 C802 0.949 . S
H798 C804 0.950 . S
H799 C805 0.950 . S
H800 C806 0.949 . S
C801 H796 0.950 . S
C801 C803 1.327 . S
C801 C807 1.429 . S
C802 C794 1.574 . S
C802 H797 0.949 . S
C802 C808 1.368 . S
C803 C787 1.349 . S
C803 H795 0.950 . S
C803 C801 1.327 . S
C804 C792 1.349 . S
C804 H798 0.950 . S
C804 C805 1.327 . S
C805 H799 0.950 . S
C805 C804 1.327 . S
C805 C809 1.429 . S
C806 C789 1.574 . S
C806 H800 0.949 . S
C806 C810 1.368 . S
C807 C788 1.429 . S
C807 C801 1.429 . S
C807 C808 1.523 . S
C808 C789 1.368 . S
C808 C802 1.368 . S
C808 C807 1.523 . S
C809 C793 1.429 . S
C809 C805 1.429 . S
C809 C810 1.523 . S
C810 C794 1.368 . S
C810 C806 1.368 . S
C810 C809 1.523 . S
H811 C786 0.950 . S
H812 C788 0.950 . S
H813 C789 0.949 . S
H814 C791 0.950 . S
H815 C793 0.950 . S
C816 C817 1.349 . S
C816 C818 1.327 . S
C816 H841 0.950 . S
C817 C816 1.349 . S
C817 C833 1.349 . S
C818 C816 1.327 . S
C818 C837 1.429 . S
C818 H842 0.950 . S
C819 C836 1.574 . S
C819 C838 1.368 . S
C819 H843 0.949 . S
H820 C824 0.949 . S
C821 C822 1.349 . S
C821 C823 1.327 . S
C821 H844 0.950 . S
C822 C821 1.349 . S
C822 C834 1.349 . S
C823 C821 1.327 . S
C823 C839 1.429 . S
C823 H845 0.950 . S
C824 H820 0.949 . S
C824 C832 1.574 . S
C824 C840 1.368 . S
H825 C833 0.950 . S
H826 C831 0.950 . S
H827 C832 0.949 . S
H828 C834 0.950 . S
H829 C835 0.950 . S
H830 C836 0.949 . S
C831 H826 0.950 . S
C831 C833 1.327 . S
C831 C837 1.429 . S
C832 C824 1.574 . S
C832 H827 0.949 . S
C832 C838 1.368 . S
C833 C817 1.349 . S
C833 H825 0.950 . S
C833 C831 1.327 . S
C834 C822 1.349 . S
C834 H828 0.950 . S
C834 C835 1.327 . S
C835 H829 0.950 . S
C835 C834 1.327 . S
C835 C839 1.429 . S
C836 C819 1.574 . S
C836 H830 0.949 . S
C836 C840 1.368 . S
C837 C818 1.429 . S
C837 C831 1.429 . S
C837 C838 1.523 . S
C838 C819 1.368 . S
C838 C832 1.368 . S
C838 C837 1.523 . S
C839 C823 1.429 . S
C839 C835 1.429 . S
C839 C840 1.523 . S
C840 C824 1.368 . S
C840 C836 1.368 . S
C840 C839 1.523 . S
H841 C816 0.950 . S
H842 C818 0.950 . S
H843 C819 0.949 . S
H844 C821 0.950 . S
H845 C823 0.950 . S
C846 C847 1.349 . S
C846 C848 1.327 . S
C846 H871 0.950 . S
C847 C846 1.349 . S
C847 C863 1.349 . S
C848 C846 1.327 . S
C848 C867 1.429 . S
C848 H872 0.950 . S
C849 C866 1.574 . S
C849 C868 1.368 . S
C849 H873 0.949 . S
H850 C854 0.949 . S
C851 C852 1.349 . S
C851 C853 1.327 . S
C851 H874 0.950 . S
C852 C851 1.349 . S
C852 C864 1.349 . S
C853 C851 1.327 . S
C853 C869 1.429 . S
C853 H875 0.950 . S
C854 H850 0.949 . S
C854 C862 1.574 . S
C854 C870 1.368 . S
H855 C863 0.950 . S
H856 C861 0.950 . S
H857 C862 0.949 . S
H858 C864 0.950 . S
H859 C865 0.950 . S
H860 C866 0.949 . S
C861 H856 0.950 . S
C861 C863 1.327 . S
C861 C867 1.429 . S
C862 C854 1.574 . S
C862 H857 0.949 . S
C862 C868 1.368 . S
C863 C847 1.349 . S
C863 H855 0.950 . S
C863 C861 1.327 . S
C864 C852 1.349 . S
C864 H858 0.950 . S
C864 C865 1.327 . S
C865 H859 0.950 . S
C865 C864 1.327 . S
C865 C869 1.429 . S
C866 C849 1.574 . S
C866 H860 0.949 . S
C866 C870 1.368 . S
C867 C848 1.429 . S
C867 C861 1.429 . S
C867 C868 1.523 . S
C868 C849 1.368 . S
C868 C862 1.368 . S
C868 C867 1.523 . S
C869 C853 1.429 . S
C869 C865 1.429 . S
C869 C870 1.523 . S
C870 C854 1.368 . S
C870 C866 1.368 . S
C870 C869 1.523 . S
H871 C846 0.950 . S
H872 C848 0.950 . S
H873 C849 0.949 . S
H874 C851 0.950 . S
H875 C853 0.950 . S
C876 C877 1.349 . S
C876 C878 1.327 . S
C876 H901 0.950 . S
C877 C876 1.349 . S
C877 C893 1.349 . S
C878 C876 1.327 . S
C878 C897 1.429 . S
C878 H902 0.950 . S
C879 C896 1.574 . S
C879 C898 1.368 . S
C879 H903 0.949 . S
H880 C884 0.949 . S
C881 C882 1.349 . S
C881 C883 1.327 . S
C881 H904 0.950 . S
C882 C881 1.349 . S
C882 C894 1.349 . S
C883 C881 1.327 . S
C883 C899 1.429 . S
C883 H905 0.950 . S
C884 H880 0.949 . S
C884 C892 1.574 . S
C884 C900 1.368 . S
H885 C893 0.950 . S
H886 C891 0.950 . S
H887 C892 0.949 . S
H888 C894 0.950 . S
H889 C895 0.950 . S
H890 C896 0.949 . S
C891 H886 0.950 . S
C891 C893 1.327 . S
C891 C897 1.429 . S
C892 C884 1.574 . S
C892 H887 0.949 . S
C892 C898 1.368 . S
C893 C877 1.349 . S
C893 H885 0.950 . S
C893 C891 1.327 . S
C894 C882 1.349 . S
C894 H888 0.950 . S
C894 C895 1.327 . S
C895 H889 0.950 . S
C895 C894 1.327 . S
C895 C899 1.429 . S
C896 C879 1.574 . S
C896 H890 0.949 . S
C896 C900 1.368 . S
C897 C878 1.429 . S
C897 C891 1.429 . S
C897 C898 1.523 . S
C898 C879 1.368 . S
C898 C892 1.368 . S
C898 C897 1.523 . S
C899 C883 1.429 . S
C899 C895 1.429 . S
C899 C900 1.523 1_554 S
C900 C884 1.368 . S
C900 C896 1.368 . S
C900 C899 1.523 1_556 S
H901 C876 0.950 . S
H902 C878 0.950 . S
H903 C879 0.949 . S
H904 C881 0.950 . S
H905 C883 0.950 . S
C906 C907 1.349 . S
C906 C908 1.327 . S
C906 H931 0.950 . S
C907 C906 1.349 . S
C907 C923 1.349 . S
C908 C906 1.327 . S
C908 C927 1.429 . S
C908 H932 0.950 . S
C909 C926 1.574 . S
C909 C928 1.368 . S
C909 H933 0.949 . S
H910 C914 0.949 1_556 S
C911 C912 1.349 . S
C911 C913 1.327 . S
C911 H934 0.950 . S
C912 C911 1.349 . S
C912 C924 1.349 . S
C913 C911 1.327 . S
C913 C929 1.429 . S
C913 H935 0.950 . S
C914 H910 0.949 1_554 S
C914 C922 1.574 . S
C914 C930 1.368 1_554 S
H915 C923 0.950 . S
H916 C921 0.950 . S
H917 C922 0.949 . S
H918 C924 0.950 . S
H919 C925 0.950 . S
H920 C926 0.949 1_556 S
C921 H916 0.950 . S
C921 C923 1.327 . S
C921 C927 1.429 . S
C922 C914 1.574 . S
C922 H917 0.949 . S
C922 C928 1.368 . S
C923 C907 1.349 . S
C923 H915 0.950 . S
C923 C921 1.327 . S
C924 C912 1.349 . S
C924 H918 0.950 . S
C924 C925 1.327 . S
C925 H919 0.950 . S
C925 C924 1.327 . S
C925 C929 1.429 . S
C926 C909 1.574 . S
C926 H920 0.949 1_554 S
C926 C930 1.368 1_554 S
C927 C908 1.429 . S
C927 C921 1.429 . S
C927 C928 1.523 . S
C928 C909 1.368 . S
C928 C922 1.368 . S
C928 C927 1.523 . S
C929 C913 1.429 . S
C929 C925 1.429 . S
C929 C930 1.523 . S
C930 C914 1.368 1_556 S
C930 C926 1.368 1_556 S
C930 C929 1.523 . S
H931 C906 0.950 . S
H932 C908 0.950 . S
H933 C909 0.949 . S
H934 C911 0.950 . S
H935 C913 0.950 . S
C936 C937 1.349 . S
C936 C938 1.327 . S
C936 H961 0.950 . S
C937 C936 1.349 . S
C937 C953 1.349 . S
C938 C936 1.327 . S
C938 C957 1.429 . S
C938 H962 0.950 . S
C939 C956 1.574 . S
C939 C958 1.368 . S
C939 H963 0.949 . S
H940 C944 0.949 . S
C941 C942 1.349 . S
C941 C943 1.327 . S
C941 H964 0.950 . S
C942 C941 1.349 . S
C942 C954 1.349 . S
C943 C941 1.327 . S
C943 C959 1.429 . S
C943 H965 0.950 . S
C944 H940 0.949 . S
C944 C952 1.574 . S
C944 C960 1.368 . S
H945 C953 0.950 . S
H946 C951 0.950 . S
H947 C952 0.949 . S
H948 C954 0.950 . S
H949 C955 0.950 . S
H950 C956 0.949 . S
C951 H946 0.950 . S
C951 C953 1.327 . S
C951 C957 1.429 . S
C952 C944 1.574 . S
C952 H947 0.949 . S
C952 C958 1.368 . S
C953 C937 1.349 . S
C953 H945 0.950 . S
C953 C951 1.327 . S
C954 C942 1.349 . S
C954 H948 0.950 . S
C954 C955 1.327 . S
C955 H949 0.950 . S
C955 C954 1.327 . S
C955 C959 1.429 . S
C956 C939 1.574 . S
C956 H950 0.949 . S
C956 C960 1.368 . S
C957 C938 1.429 . S
C957 C951 1.429 . S
C957 C958 1.523 . S
C958 C939 1.368 . S
C958 C952 1.368 . S
C958 C957 1.523 . S
C959 C943 1.429 . S
C959 C955 1.429 . S
C959 C960 1.523 . S
C960 C944 1.368 . S
C960 C956 1.368 . S
C960 C959 1.523 . S
H961 C936 0.950 . S
H962 C938 0.950 . S
H963 C939 0.949 . S
H964 C941 0.950 . S
H965 C943 0.950 . S
C966 C967 1.349 . S
C966 C968 1.327 . S
C966 H991 0.950 . S
C967 C966 1.349 . S
C967 C983 1.349 . S
C968 C966 1.327 . S
C968 C987 1.429 . S
C968 H992 0.950 . S
C969 C986 1.574 . S
C969 C988 1.368 . S
C969 H993 0.949 . S
H970 C974 0.949 . S
C971 C972 1.349 . S
C971 C973 1.327 . S
C971 H994 0.950 . S
C972 C971 1.349 . S
C972 C984 1.349 . S
C973 C971 1.327 . S
C973 C989 1.429 . S
C973 H995 0.950 . S
C974 H970 0.949 . S
C974 C982 1.574 . S
C974 C990 1.368 . S
H975 C983 0.950 . S
H976 C981 0.950 . S
H977 C982 0.949 . S
H978 C984 0.950 . S
H979 C985 0.950 . S
H980 C986 0.949 . S
C981 H976 0.950 . S
C981 C983 1.327 . S
C981 C987 1.429 . S
C982 C974 1.574 . S
C982 H977 0.949 . S
C982 C988 1.368 . S
C983 C967 1.349 . S
C983 H975 0.950 . S
C983 C981 1.327 . S
C984 C972 1.349 . S
C984 H978 0.950 . S
C984 C985 1.327 . S
C985 H979 0.950 . S
C985 C984 1.327 . S
C985 C989 1.429 . S
C986 C969 1.574 . S
C986 H980 0.949 . S
C986 C990 1.368 . S
C987 C968 1.429 . S
C987 C981 1.429 . S
C987 C988 1.523 . S
C988 C969 1.368 . S
C988 C982 1.368 . S
C988 C987 1.523 . S
C989 C973 1.429 . S
C989 C985 1.429 . S
C989 C990 1.523 . S
C990 C974 1.368 . S
C990 C986 1.368 . S
C990 C989 1.523 . S
H991 C966 0.950 . S
H992 C968 0.950 . S
H993 C969 0.949 . S
H994 C971 0.950 . S
H995 C973 0.950 . S
C996 C997 1.349 . S
C996 C998 1.327 . S
C996 H1021 0.950 . S
C997 C996 1.349 . S
C997 C1013 1.349 . S
C998 C996 1.327 . S
C998 C1017 1.429 . S
C998 H1022 0.950 . S
C999 C1016 1.574 . S
C999 C1018 1.368 . S
C999 H1023 0.949 . S
H1000 C1004 0.949 . S
C1001 C1002 1.349 . S
C1001 C1003 1.327 . S
C1001 H1024 0.950 . S
C1002 C1001 1.349 . S
C1002 C1014 1.349 . S
C1003 C1001 1.327 . S
C1003 C1019 1.429 . S
C1003 H1025 0.950 . S
C1004 H1000 0.949 . S
C1004 C1012 1.574 . S
C1004 C1020 1.368 . S
H1005 C1013 0.950 . S
H1006 C1011 0.950 . S
H1007 C1012 0.949 . S
H1008 C1014 0.950 . S
H1009 C1015 0.950 . S
H1010 C1016 0.949 . S
C1011 H1006 0.950 . S
C1011 C1013 1.327 . S
C1011 C1017 1.429 . S
C1012 C1004 1.574 . S
C1012 H1007 0.949 . S
C1012 C1018 1.368 . S
C1013 C997 1.349 . S
C1013 H1005 0.950 . S
C1013 C1011 1.327 . S
C1014 C1002 1.349 . S
C1014 H1008 0.950 . S
C1014 C1015 1.327 . S
C1015 H1009 0.950 . S
C1015 C1014 1.327 . S
C1015 C1019 1.429 . S
C1016 C999 1.574 . S
C1016 H1010 0.949 . S
C1016 C1020 1.368 . S
C1017 C998 1.429 . S
C1017 C1011 1.429 . S
C1017 C1018 1.523 . S
C1018 C999 1.368 . S
C1018 C1012 1.368 . S
C1018 C1017 1.523 . S
C1019 C1003 1.429 . S
C1019 C1015 1.429 . S
C1019 C1020 1.523 . S
C1020 C1004 1.368 . S
C1020 C1016 1.368 . S
C1020 C1019 1.523 . S
H1021 C996 0.950 . S
H1022 C998 0.950 . S
H1023 C999 0.949 . S
H1024 C1001 0.950 . S
H1025 C1003 0.950 . S
C1026 C1027 1.349 . S
C1026 C1028 1.327 . S
C1026 H1051 0.950 . S
C1027 C1026 1.349 . S
C1027 C1043 1.349 . S
C1028 C1026 1.327 . S
C1028 C1047 1.429 . S
C1028 H1052 0.950 . S
C1029 C1046 1.574 . S
C1029 C1048 1.368 . S
C1029 H1053 0.949 . S
H1030 C1034 0.949 . S
C1031 C1032 1.349 . S
C1031 C1033 1.327 . S
C1031 H1054 0.950 . S
C1032 C1031 1.349 . S
C1032 C1044 1.349 . S
C1033 C1031 1.327 . S
C1033 C1049 1.429 . S
C1033 H1055 0.950 . S
C1034 H1030 0.949 . S
C1034 C1042 1.574 . S
C1034 C1050 1.368 . S
H1035 C1043 0.950 . S
H1036 C1041 0.950 . S
H1037 C1042 0.949 . S
H1038 C1044 0.950 . S
H1039 C1045 0.950 . S
H1040 C1046 0.949 . S
C1041 H1036 0.950 . S
C1041 C1043 1.327 . S
C1041 C1047 1.429 . S
C1042 C1034 1.574 . S
C1042 H1037 0.949 . S
C1042 C1048 1.368 . S
C1043 C1027 1.349 . S
C1043 H1035 0.950 . S
C1043 C1041 1.327 . S
C1044 C1032 1.349 . S
C1044 H1038 0.950 . S
C1044 C1045 1.327 . S
C1045 H1039 0.950 . S
C1045 C1044 1.327 . S
C1045 C1049 1.429 . S
C1046 C1029 1.574 . S
C1046 H1040 0.949 . S
C1046 C1050 1.368 . S
C1047 C1028 1.429 . S
C1047 C1041 1.429 . S
C1047 C1048 1.523 . S
C1048 C1029 1.368 . S
C1048 C1042 1.368 . S
C1048 C1047 1.523 . S
C1049 C1033 1.429 . S
C1049 C1045 1.429 . S
C1049 C1050 1.523 . S
C1050 C1034 1.368 . S
C1050 C1046 1.368 . S
C1050 C1049 1.523 . S
H1051 C1026 0.950 . S
H1052 C1028 0.950 . S
H1053 C1029 0.949 . S
H1054 C1031 0.950 . S
H1055 C1033 0.950 . S
C1056 C1057 1.349 1_554 S
C1056 C1058 1.327 . S
C1056 H1081 0.950 . S
C1057 C1056 1.349 1_556 S
C1057 C1073 1.349 . S
C1058 C1056 1.327 . S
C1058 C1077 1.429 1_554 S
C1058 H1082 0.950 . S
C1059 C1076 1.574 . S
C1059 C1078 1.368 . S
C1059 H1083 0.949 . S
H1060 C1064 0.949 . S
C1061 C1062 1.349 . S
C1061 C1063 1.327 . S
C1061 H1084 0.950 . S
C1062 C1061 1.349 . S
C1062 C1074 1.349 . S
C1063 C1061 1.327 . S
C1063 C1079 1.429 . S
C1063 H1085 0.950 . S
C1064 H1060 0.949 . S
C1064 C1072 1.574 . S
C1064 C1080 1.368 . S
H1065 C1073 0.950 . S
H1066 C1071 0.950 . S
H1067 C1072 0.949 1_554 S
H1068 C1074 0.950 . S
H1069 C1075 0.950 . S
H1070 C1076 0.949 . S
C1071 H1066 0.950 . S
C1071 C1073 1.327 . S
C1071 C1077 1.429 . S
C1072 C1064 1.574 . S
C1072 H1067 0.949 1_556 S
C1072 C1078 1.368 . S
C1073 C1057 1.349 . S
C1073 H1065 0.950 . S
C1073 C1071 1.327 . S
C1074 C1062 1.349 . S
C1074 H1068 0.950 . S
C1074 C1075 1.327 . S
C1075 H1069 0.950 . S
C1075 C1074 1.327 . S
C1075 C1079 1.429 . S
C1076 C1059 1.574 . S
C1076 H1070 0.949 . S
C1076 C1080 1.368 . S
C1077 C1058 1.429 1_556 S
C1077 C1071 1.429 . S
C1077 C1078 1.523 . S
C1078 C1059 1.368 . S
C1078 C1072 1.368 . S
C1078 C1077 1.523 . S
C1079 C1063 1.429 . S
C1079 C1075 1.429 . S
C1079 C1080 1.523 . S
C1080 C1064 1.368 . S
C1080 C1076 1.368 . S
C1080 C1079 1.523 . S
H1081 C1056 0.950 . S
H1082 C1058 0.950 . S
H1083 C1059 0.949 . S
H1084 C1061 0.950 . S
H1085 C1063 0.950 . S
C1086 C1087 1.349 . S
C1086 C1088 1.327 . S
C1086 H1111 0.950 . S
C1087 C1086 1.349 . S
C1087 C1103 1.349 . S
C1088 C1086 1.327 . S
C1088 C1107 1.429 . S
C1088 H1112 0.950 . S
C1089 C1106 1.574 . S
C1089 C1108 1.368 . S
C1089 H1113 0.949 . S
H1090 C1094 0.949 1_556 S
C1091 C1092 1.349 . S
C1091 C1093 1.327 . S
C1091 H1114 0.950 . S
C1092 C1091 1.349 . S
C1092 C1104 1.349 1_554 S
C1093 C1091 1.327 . S
C1093 C1109 1.429 . S
C1093 H1115 0.950 . S
C1094 H1090 0.949 1_554 S
C1094 C1102 1.574 . S
C1094 C1110 1.368 . S
H1095 C1103 0.950 . S
H1096 C1101 0.950 . S
H1097 C1102 0.949 . S
H1098 C1104 0.950 . S
H1099 C1105 0.950 . S
H1100 C1106 0.949 . S
C1101 H1096 0.950 . S
C1101 C1103 1.327 . S
C1101 C1107 1.429 . S
C1102 C1094 1.574 . S
C1102 H1097 0.949 . S
C1102 C1108 1.368 . S
C1103 C1087 1.349 . S
C1103 H1095 0.950 . S
C1103 C1101 1.327 . S
C1104 C1092 1.349 1_556 S
C1104 H1098 0.950 . S
C1104 C1105 1.327 . S
C1105 H1099 0.950 . S
C1105 C1104 1.327 . S
C1105 C1109 1.429 1_556 S
C1106 C1089 1.574 . S
C1106 H1100 0.949 . S
C1106 C1110 1.368 . S
C1107 C1088 1.429 . S
C1107 C1101 1.429 . S
C1107 C1108 1.523 . S
C1108 C1089 1.368 . S
C1108 C1102 1.368 . S
C1108 C1107 1.523 . S
C1109 C1093 1.429 . S
C1109 C1105 1.429 1_554 S
C1109 C1110 1.523 . S
C1110 C1094 1.368 . S
C1110 C1106 1.368 . S
C1110 C1109 1.523 . S
H1111 C1086 0.950 . S
H1112 C1088 0.950 . S
H1113 C1089 0.949 . S
H1114 C1091 0.950 . S
H1115 C1093 0.950 . S
C1116 C1117 1.349 . S
C1116 C1118 1.327 . S
C1116 H1141 0.950 . S
C1117 C1116 1.349 . S
C1117 C1133 1.349 . S
C1118 C1116 1.327 . S
C1118 C1137 1.429 . S
C1118 H1142 0.950 1_554 S
C1119 C1136 1.574 1_545 S
C1119 C1138 1.368 . S
C1119 H1143 0.949 . S
H1120 C1124 0.949 . S
C1121 C1122 1.349 . S
C1121 C1123 1.327 . S
C1121 H1144 0.950 . S
C1122 C1121 1.349 . S
C1122 C1134 1.349 . S
C1123 C1121 1.327 . S
C1123 C1139 1.429 . S
C1123 H1145 0.950 1_556 S
C1124 H1120 0.949 . S
C1124 C1132 1.574 1_565 S
C1124 C1140 1.368 . S
H1125 C1133 0.950 . S
H1126 C1131 0.950 . S
H1127 C1132 0.949 . S
H1128 C1134 0.950 . S
H1129 C1135 0.950 . S
H1130 C1136 0.949 . S
C1131 H1126 0.950 . S
C1131 C1133 1.327 . S
C1131 C1137 1.429 . S
C1132 C1124 1.574 1_545 S
C1132 H1127 0.949 . S
C1132 C1138 1.368 1_556 S
C1133 C1117 1.349 . S
C1133 H1125 0.950 . S
C1133 C1131 1.327 . S
C1134 C1122 1.349 . S
C1134 H1128 0.950 . S
C1134 C1135 1.327 . S
C1135 H1129 0.950 . S
C1135 C1134 1.327 . S
C1135 C1139 1.429 . S
C1136 C1119 1.574 1_565 S
C1136 H1130 0.949 . S
C1136 C1140 1.368 1_554 S
C1137 C1118 1.429 . S
C1137 C1131 1.429 . S
C1137 C1138 1.523 . S
C1138 C1119 1.368 . S
C1138 C1132 1.368 1_554 S
C1138 C1137 1.523 . S
C1139 C1123 1.429 . S
C1139 C1135 1.429 . S
C1139 C1140 1.523 . S
C1140 C1124 1.368 . S
C1140 C1136 1.368 1_556 S
C1140 C1139 1.523 . S
H1141 C1116 0.950 . S
H1142 C1118 0.950 1_556 S
H1143 C1119 0.949 . S
H1144 C1121 0.950 . S
H1145 C1123 0.950 1_554 S
C1146 C1147 1.349 . S
C1146 C1148 1.327 . S
C1146 H1171 0.950 . S
C1147 C1146 1.349 . S
C1147 C1163 1.349 . S
C1148 C1146 1.327 . S
C1148 C1167 1.429 . S
C1148 H1172 0.950 . S
C1149 C1166 1.574 . S
C1149 C1168 1.368 . S
C1149 H1173 0.949 . S
H1150 C1154 0.949 . S
C1151 C1152 1.349 . S
C1151 C1153 1.327 . S
C1151 H1174 0.950 . S
C1152 C1151 1.349 . S
C1152 C1164 1.349 . S
C1153 C1151 1.327 . S
C1153 C1169 1.429 . S
C1153 H1175 0.950 . S
C1154 H1150 0.949 . S
C1154 C1162 1.574 . S
C1154 C1170 1.368 . S
H1155 C1163 0.950 . S
H1156 C1161 0.950 . S
H1157 C1162 0.949 . S
H1158 C1164 0.950 . S
H1159 C1165 0.950 . S
H1160 C1166 0.949 . S
C1161 H1156 0.950 . S
C1161 C1163 1.327 . S
C1161 C1167 1.429 . S
C1162 C1154 1.574 . S
C1162 H1157 0.949 . S
C1162 C1168 1.368 . S
C1163 C1147 1.349 . S
C1163 H1155 0.950 . S
C1163 C1161 1.327 . S
C1164 C1152 1.349 . S
C1164 H1158 0.950 . S
C1164 C1165 1.327 . S
C1165 H1159 0.950 . S
C1165 C1164 1.327 . S
C1165 C1169 1.429 . S
C1166 C1149 1.574 . S
C1166 H1160 0.949 . S
C1166 C1170 1.368 . S
C1167 C1148 1.429 . S
C1167 C1161 1.429 . S
C1167 C1168 1.523 . S
C1168 C1149 1.368 . S
C1168 C1162 1.368 . S
C1168 C1167 1.523 . S
C1169 C1153 1.429 . S
C1169 C1165 1.429 . S
C1169 C1170 1.523 . S
C1170 C1154 1.368 . S
C1170 C1166 1.368 . S
C1170 C1169 1.523 . S
H1171 C1146 0.950 . S
H1172 C1148 0.950 . S
H1173 C1149 0.949 . S
H1174 C1151 0.950 . S
H1175 C1153 0.950 . S
C1176 C1177 1.349 . S
C1176 C1178 1.327 . S
C1176 H1201 0.950 . S
C1177 C1176 1.349 . S
C1177 C1193 1.349 . S
C1178 C1176 1.327 . S
C1178 C1197 1.429 . S
C1178 H1202 0.950 . S
C1179 C1196 1.574 1_455 S
C1179 C1198 1.368 . S
C1179 H1203 0.949 . S
H1180 C1184 0.949 . S
C1181 C1182 1.349 . S
C1181 C1183 1.327 . S
C1181 H1204 0.950 . S
C1182 C1181 1.349 . S
C1182 C1194 1.349 . S
C1183 C1181 1.327 . S
C1183 C1199 1.429 . S
C1183 H1205 0.950 . S
C1184 H1180 0.949 . S
C1184 C1192 1.574 1_655 S
C1184 C1200 1.368 . S
H1185 C1193 0.950 . S
H1186 C1191 0.950 . S
H1187 C1192 0.949 . S
H1188 C1194 0.950 . S
H1189 C1195 0.950 . S
H1190 C1196 0.949 . S
C1191 H1186 0.950 . S
C1191 C1193 1.327 . S
C1191 C1197 1.429 . S
C1192 C1184 1.574 1_455 S
C1192 H1187 0.949 . S
C1192 C1198 1.368 . S
C1193 C1177 1.349 . S
C1193 H1185 0.950 . S
C1193 C1191 1.327 . S
C1194 C1182 1.349 . S
C1194 H1188 0.950 . S
C1194 C1195 1.327 . S
C1195 H1189 0.950 . S
C1195 C1194 1.327 . S
C1195 C1199 1.429 . S
C1196 C1179 1.574 1_655 S
C1196 H1190 0.949 . S
C1196 C1200 1.368 . S
C1197 C1178 1.429 . S
C1197 C1191 1.429 . S
C1197 C1198 1.523 . S
C1198 C1179 1.368 . S
C1198 C1192 1.368 . S
C1198 C1197 1.523 . S
C1199 C1183 1.429 . S
C1199 C1195 1.429 . S
C1199 C1200 1.523 . S
C1200 C1184 1.368 . S
C1200 C1196 1.368 . S
C1200 C1199 1.523 . S
H1201 C1176 0.950 . S
H1202 C1178 0.950 . S
H1203 C1179 0.949 . S
H1204 C1181 0.950 . S
H1205 C1183 0.950 . S
C1206 C1207 1.349 . S
C1206 C1208 1.327 . S
C1206 H1231 0.950 . S
C1207 C1206 1.349 . S
C1207 C1223 1.349 . S
C1208 C1206 1.327 . S
C1208 C1227 1.429 . S
C1208 H1232 0.950 . S
C1209 C1226 1.574 1_565 S
C1209 C1228 1.368 . S
C1209 H1233 0.949 . S
H1210 C1214 0.949 . S
C1211 C1212 1.349 . S
C1211 C1213 1.327 . S
C1211 H1234 0.950 . S
C1212 C1211 1.349 . S
C1212 C1224 1.349 . S
C1213 C1211 1.327 . S
C1213 C1229 1.429 . S
C1213 H1235 0.950 . S
C1214 H1210 0.949 . S
C1214 C1222 1.574 1_545 S
C1214 C1230 1.368 . S
H1215 C1223 0.950 . S
H1216 C1221 0.950 . S
H1217 C1222 0.949 . S
H1218 C1224 0.950 . S
H1219 C1225 0.950 . S
H1220 C1226 0.949 . S
C1221 H1216 0.950 . S
C1221 C1223 1.327 . S
C1221 C1227 1.429 . S
C1222 C1214 1.574 1_565 S
C1222 H1217 0.949 . S
C1222 C1228 1.368 . S
C1223 C1207 1.349 . S
C1223 H1215 0.950 . S
C1223 C1221 1.327 . S
C1224 C1212 1.349 . S
C1224 H1218 0.950 . S
C1224 C1225 1.327 . S
C1225 H1219 0.950 . S
C1225 C1224 1.327 . S
C1225 C1229 1.429 . S
C1226 C1209 1.574 1_545 S
C1226 H1220 0.949 . S
C1226 C1230 1.368 . S
C1227 C1208 1.429 . S
C1227 C1221 1.429 . S
C1227 C1228 1.523 . S
C1228 C1209 1.368 . S
C1228 C1222 1.368 . S
C1228 C1227 1.523 . S
C1229 C1213 1.429 . S
C1229 C1225 1.429 . S
C1229 C1230 1.523 . S
C1230 C1214 1.368 . S
C1230 C1226 1.368 . S
C1230 C1229 1.523 . S
H1231 C1206 0.950 . S
H1232 C1208 0.950 . S
H1233 C1209 0.949 . S
H1234 C1211 0.950 . S
H1235 C1213 0.950 . S
C1236 C1237 1.349 . S
C1236 C1238 1.327 . S
C1236 H1261 0.950 . S
C1237 C1236 1.349 . S
C1237 C1253 1.349 . S
C1238 C1236 1.327 . S
C1238 C1257 1.429 . S
C1238 H1262 0.950 . S
C1239 C1256 1.574 . S
C1239 C1258 1.368 . S
C1239 H1263 0.949 . S
H1240 C1244 0.949 . S
C1241 C1242 1.349 . S
C1241 C1243 1.327 . S
C1241 H1264 0.950 . S
C1242 C1241 1.349 . S
C1242 C1254 1.349 . S
C1243 C1241 1.327 . S
C1243 C1259 1.429 . S
C1243 H1265 0.950 . S
C1244 H1240 0.949 . S
C1244 C1252 1.574 . S
C1244 C1260 1.368 . S
H1245 C1253 0.950 . S
H1246 C1251 0.950 . S
H1247 C1252 0.949 . S
H1248 C1254 0.950 . S
H1249 C1255 0.950 . S
H1250 C1256 0.949 . S
C1251 H1246 0.950 . S
C1251 C1253 1.327 . S
C1251 C1257 1.429 . S
C1252 C1244 1.574 . S
C1252 H1247 0.949 . S
C1252 C1258 1.368 . S
C1253 C1237 1.349 . S
C1253 H1245 0.950 . S
C1253 C1251 1.327 . S
C1254 C1242 1.349 . S
C1254 H1248 0.950 . S
C1254 C1255 1.327 . S
C1255 H1249 0.950 . S
C1255 C1254 1.327 . S
C1255 C1259 1.429 . S
C1256 C1239 1.574 . S
C1256 H1250 0.949 . S
C1256 C1260 1.368 . S
C1257 C1238 1.429 . S
C1257 C1251 1.429 . S
C1257 C1258 1.523 . S
C1258 C1239 1.368 . S
C1258 C1252 1.368 . S
C1258 C1257 1.523 . S
C1259 C1243 1.429 . S
C1259 C1255 1.429 . S
C1259 C1260 1.523 . S
C1260 C1244 1.368 . S
C1260 C1256 1.368 . S
C1260 C1259 1.523 . S
H1261 C1236 0.950 . S
H1262 C1238 0.950 . S
H1263 C1239 0.949 . S
H1264 C1241 0.950 . S
H1265 C1243 0.950 . S
C1266 C1267 1.349 . S
C1266 C1268 1.327 . S
C1266 H1291 0.950 . S
C1267 C1266 1.349 . S
C1267 C1283 1.349 . S
C1268 C1266 1.327 . S
C1268 C1287 1.429 . S
C1268 H1292 0.950 . S
C1269 C1286 1.574 1_455 S
C1269 C1288 1.368 . S
C1269 H1293 0.949 . S
H1270 C1274 0.949 . S
C1271 C1272 1.349 . S
C1271 C1273 1.327 . S
C1271 H1294 0.950 . S
C1272 C1271 1.349 . S
C1272 C1284 1.349 . S
C1273 C1271 1.327 . S
C1273 C1289 1.429 . S
C1273 H1295 0.950 . S
C1274 H1270 0.949 . S
C1274 C1282 1.574 1_655 S
C1274 C1290 1.368 . S
H1275 C1283 0.950 . S
H1276 C1281 0.950 . S
H1277 C1282 0.949 . S
H1278 C1284 0.950 . S
H1279 C1285 0.950 . S
H1280 C1286 0.949 . S
C1281 H1276 0.950 . S
C1281 C1283 1.327 . S
C1281 C1287 1.429 . S
C1282 C1274 1.574 1_455 S
C1282 H1277 0.949 . S
C1282 C1288 1.368 . S
C1283 C1267 1.349 . S
C1283 H1275 0.950 . S
C1283 C1281 1.327 . S
C1284 C1272 1.349 . S
C1284 H1278 0.950 . S
C1284 C1285 1.327 . S
C1285 H1279 0.950 . S
C1285 C1284 1.327 . S
C1285 C1289 1.429 . S
C1286 C1269 1.574 1_655 S
C1286 H1280 0.949 . S
C1286 C1290 1.368 . S
C1287 C1268 1.429 . S
C1287 C1281 1.429 . S
C1287 C1288 1.523 . S
C1288 C1269 1.368 . S
C1288 C1282 1.368 . S
C1288 C1287 1.523 . S
C1289 C1273 1.429 . S
C1289 C1285 1.429 . S
C1289 C1290 1.523 . S
C1290 C1274 1.368 . S
C1290 C1286 1.368 . S
C1290 C1289 1.523 . S
H1291 C1266 0.950 . S
H1292 C1268 0.950 . S
H1293 C1269 0.949 . S
H1294 C1271 0.950 . S
H1295 C1273 0.950 . S
C397 C281 1.215 . S
C402 C17 1.215 . S
C427 C314 1.215 . S
C432 C50 1.215 . S
C457 C347 1.215 . S
C462 C83 1.215 . S
C487 C380 1.216 . S
C492 C116 1.216 . S
C517 C149 1.216 . S
C522 C215 1.216 . S
C547 C248 1.215 . S
C552 C182 1.215 . S
C577 N5 1.392 . S
C582 N14 1.388 . S
C607 N47 1.388 . S
C612 N38 1.392 . S
C637 N80 1.388 . S
C642 N71 1.392 . S
C667 N113 1.388 . S
C672 N104 1.392 . S
C697 N146 1.388 1_554 S
C702 N137 1.392 . S
C727 N179 1.388 . S
C732 N170 1.392 . S
C757 N203 1.392 . S
C762 N212 1.388 . S
C787 N245 1.388 . S
C792 N236 1.392 . S
C817 N269 1.392 . S
C822 N278 1.388 . S
C847 N302 1.392 . S
C852 N311 1.388 1_556 S
C877 N335 1.392 . S
C882 N344 1.388 . S
C907 N377 1.388 . S
C912 N368 1.392 . S
C937 C8 1.567 . S
C942 C338 1.567 . S
C967 C41 1.568 . S
C972 C371 1.568 . S
C997 C74 1.567 . S
C1002 C206 1.567 . S
C1027 C239 1.567 . S
C1032 C107 1.567 . S
C1057 C272 1.568 1_556 S
C1062 C140 1.568 . S
C1087 C305 1.568 . S
C1092 C173 1.568 1_554 S
C1117 C28 1.048 . S
C1122 C259 1.048 . S
C1147 C292 1.048 . S
C1152 C61 1.048 . S
C1177 C325 1.048 . S
C1182 C94 1.048 . S
C1207 C127 1.048 . S
C1212 C358 1.048 . S
C1237 C391 1.047 . S
C1242 C160 1.047 . S
C1267 C193 1.048 . S
C1272 C226 1.048 . S
