# Generated by pormake.
# Topology sni, (6)-cn, num edge types: 1
# Building blocks:
#     Node 0, Type 0, BuildingBlock: IZENUY_clean_sbu_0, # of connection points: 6
#     Node 1, Type 0, BuildingBlock: IZENUY_clean_sbu_0, # of connection points: 6
#     Node 2, Type 0, BuildingBlock: IZENUY_clean_sbu_0, # of connection points: 6
#     Node 3, Type 0, BuildingBlock: IZENUY_clean_sbu_0, # of connection points: 6
#     Node 4, Type 0, BuildingBlock: IZENUY_clean_sbu_0, # of connection points: 6
#     Node 5, Type 0, BuildingBlock: IZENUY_clean_sbu_0, # of connection points: 6
#     Node 6, Type 0, BuildingBlock: IZENUY_clean_sbu_0, # of connection points: 6
#     Node 7, Type 0, BuildingBlock: IZENUY_clean_sbu_0, # of connection points: 6
#     Edge 8, Type (0, 0), BuildingBlock: AJUNOK_clean_linker_0, # of connection points: 2
#     Edge 9, Type (0, 0), BuildingBlock: AJUNOK_clean_linker_0, # of connection points: 2
#     Edge 10, Type (0, 0), BuildingBlock: AJUNOK_clean_linker_0, # of connection points: 2
#     Edge 11, Type (0, 0), BuildingBlock: AJUNOK_clean_linker_0, # of connection points: 2
#     Edge 12, Type (0, 0), BuildingBlock: AJUNOK_clean_linker_0, # of connection points: 2
#     Edge 13, Type (0, 0), BuildingBlock: AJUNOK_clean_linker_0, # of connection points: 2
#     Edge 14, Type (0, 0), BuildingBlock: AJUNOK_clean_linker_0, # of connection points: 2
#     Edge 15, Type (0, 0), BuildingBlock: AJUNOK_clean_linker_0, # of connection points: 2
#     Edge 16, Type (0, 0), BuildingBlock: AJUNOK_clean_linker_0, # of connection points: 2
#     Edge 17, Type (0, 0), BuildingBlock: AJUNOK_clean_linker_0, # of connection points: 2
#     Edge 18, Type (0, 0), BuildingBlock: AJUNOK_clean_linker_0, # of connection points: 2
#     Edge 19, Type (0, 0), BuildingBlock: AJUNOK_clean_linker_0, # of connection points: 2
#     Edge 20, Type (0, 0), BuildingBlock: AJUNOK_clean_linker_0, # of connection points: 2
#     Edge 21, Type (0, 0), BuildingBlock: AJUNOK_clean_linker_0, # of connection points: 2
#     Edge 22, Type (0, 0), BuildingBlock: AJUNOK_clean_linker_0, # of connection points: 2
#     Edge 23, Type (0, 0), BuildingBlock: AJUNOK_clean_linker_0, # of connection points: 2
#     Edge 24, Type (0, 0), BuildingBlock: AJUNOK_clean_linker_0, # of connection points: 2
#     Edge 25, Type (0, 0), BuildingBlock: AJUNOK_clean_linker_0, # of connection points: 2
#     Edge 26, Type (0, 0), BuildingBlock: AJUNOK_clean_linker_0, # of connection points: 2
#     Edge 27, Type (0, 0), BuildingBlock: AJUNOK_clean_linker_0, # of connection points: 2
#     Edge 28, Type (0, 0), BuildingBlock: AJUNOK_clean_linker_0, # of connection points: 2
#     Edge 29, Type (0, 0), BuildingBlock: AJUNOK_clean_linker_0, # of connection points: 2
#     Edge 30, Type (0, 0), BuildingBlock: AJUNOK_clean_linker_0, # of connection points: 2
#     Edge 31, Type (0, 0), BuildingBlock: AJUNOK_clean_linker_0, # of connection points: 2
# Relax obj value: 0.128
# Max RMSD: 0.110
# Mean RMSD: 0.110
data_MOF--net-sni--node1-IZENUY_clean_sbu_0--edge1-AJUNOK_clean_linker_0
_symmetry_space_group_name_H-M    P1
_symmetry_Int_Tables_number       1
_symmetry_cell_setting            triclinic
loop_
_symmetry_equiv_pos_as_xyz
'x, y, z'
_cell_length_a     30.164301
_cell_length_b     30.218031
_cell_length_c     15.159654
_cell_angle_alpha  89.88563
_cell_angle_beta   90.066971
_cell_angle_gamma 89.940803
loop_
_atom_site_label
_atom_site_type_symbol
_atom_site_fract_x
_atom_site_fract_y
_atom_site_fract_z
_atom_type_partial_charge
Fe0 Fe 0.65441 0.22515 0.0106 0.0
Fe1 Fe 0.72759 0.15379 0.99833 0.0
O2 O 0.671 0.16893 0.0063 0.0
Fe3 Fe 0.63036 0.12711 0.01086 0.0
O4 O 0.58617 0.16015 0.96015 0.0
O5 O 0.61956 0.2197 0.91275 0.0
O6 O 0.69891 0.24502 0.93681 0.0
C7 C 0.7248 0.22466 0.8847 0.0
C8 C 0.60077 0.18222 0.13883 0.0
O9 O 0.73411 0.18443 0.89687 0.0
C10 C 0.69916 0.08985 0.11191 0.0
O11 O 0.68751 0.23473 0.10781 0.0
O12 O 0.74814 0.20048 0.06509 0.0
O13 O 0.61446 0.14402 0.11976 0.0
O14 O 0.6074 0.21465 0.08673 0.0
C15 C 0.68289 0.09448 0.88223 0.0
O16 O 0.72511 0.12199 0.10068 0.0
O17 O 0.66587 0.08502 0.06251 0.0
C18 C 0.72815 0.22642 0.11742 0.0
O19 O 0.71665 0.10448 0.92862 0.0
O20 O 0.64495 0.10874 0.90231 0.0
C21 C 0.58796 0.19256 0.90751 0.0
Fe22 Fe 0.92174 0.62882 0.003 0.0
Fe23 Fe 0.89541 0.7265 0.00593 0.0
O24 O 0.88007 0.66975 0.00301 0.0
Fe25 Fe 0.82343 0.6537 1.00015 0.0
O26 O 0.82859 0.62158 0.10259 0.0
O27 O 0.88963 0.58747 0.06329 0.0
O28 O 0.94229 0.64723 0.10763 0.0
C29 C 0.95709 0.68549 0.12076 0.0
C30 C 0.86531 0.59326 0.88422 0.0
O31 O 0.94568 0.71774 0.07248 0.0
C32 C 0.82187 0.72554 0.88869 0.0
O33 O 0.96233 0.66179 0.94248 0.0
O34 O 0.92668 0.72192 0.90254 0.0
O35 O 0.83266 0.60423 0.93188 0.0
O36 O 0.90345 0.60833 0.89848 0.0
C37 C 0.82472 0.7258 0.11989 0.0
O38 O 0.84799 0.7454 0.94054 0.0
O39 O 0.81397 0.68469 0.89845 0.0
C40 C 0.95721 0.69389 0.89008 0.0
O41 O 0.86527 0.73484 0.10859 0.0
O42 O 0.80456 0.70018 0.06749 0.0
C43 C 0.85711 0.59147 0.11492 0.0
Fe44 Fe 0.32217 0.89768 0.00521 0.0
Fe45 Fe 0.39399 0.82442 0.99907 0.0
O46 O 0.37849 0.88108 1.00038 0.0
Fe47 Fe 0.42025 0.92188 0.99738 0.0
O48 O 0.40465 0.9412 0.10557 0.0
O49 O 0.33321 0.94656 0.07573 0.0
O50 O 0.31312 0.86721 0.10605 0.0
C51 C 0.32126 0.82685 0.11916 0.0
C52 C 0.35294 0.96185 0.89635 0.0
O53 O 0.34845 0.80595 0.07095 0.0
C54 C 0.45125 0.86522 0.87343 0.0
O55 O 0.30185 0.85152 0.9373 0.0
O56 O 0.3617 0.81394 0.90063 0.0
O57 O 0.38664 0.96435 0.94494 0.0
O58 O 0.32652 0.92985 0.90372 0.0
C59 C 0.45968 0.85694 0.10364 0.0
O60 O 0.44216 0.8333 0.92527 0.0
O61 O 0.43734 0.90388 0.8891 0.0
C62 C 0.32134 0.82334 0.88896 0.0
O63 O 0.42756 0.83044 0.09866 0.0
O64 O 0.46293 0.88832 0.04946 0.0
C65 C 0.36637 0.95517 0.12471 0.0
Fe66 Fe 0.2281 0.39674 0.9965 0.0
Fe67 Fe 0.12999 0.42209 0.00218 0.0
O68 O 0.17167 0.38091 0.00251 0.0
Fe69 Fe 0.15649 0.32446 0.00858 0.0
O70 O 0.18857 0.31626 0.10891 0.0
O71 O 0.24862 0.35071 0.06413 0.0
O72 O 0.2236 0.42897 0.09815 0.0
C73 C 0.19672 0.46064 0.1078 0.0
C74 C 0.22767 0.32475 0.88603 0.0
O75 O 0.16388 0.46485 0.05651 0.0
C76 C 0.0917 0.35498 0.89746 0.0
O77 O 0.2175 0.44549 0.92648 0.0
O78 O 0.1466 0.44021 0.89421 0.0
O79 O 0.20237 0.305 0.93976 0.0
O80 O 0.23632 0.36541 0.89537 0.0
C81 C 0.0992 0.36694 0.1295 0.0
O82 O 0.08735 0.38794 0.94792 0.0
O83 O 0.12368 0.32854 0.9075 0.0
C84 C 0.18507 0.45337 0.87551 0.0
O85 O 0.11186 0.40545 0.11006 0.0
O86 O 0.10786 0.33438 0.07962 0.0
C87 C 0.22944 0.32457 0.117 0.0
Fe88 Fe 0.65208 0.82403 0.50051 0.0
Fe89 Fe 0.72544 0.89524 0.50311 0.0
O90 O 0.66873 0.88028 0.49694 0.0
Fe91 Fe 0.62785 0.9218 0.48689 0.0
O92 O 0.58461 0.89067 0.54427 0.0
O93 O 0.61894 0.83314 0.59946 0.0
O94 O 0.69744 0.80564 0.57261 0.0
C95 C 0.72395 0.82652 0.62201 0.0
C96 C 0.59589 0.86176 0.37093 0.0
O97 O 0.73252 0.86672 0.60755 0.0
C98 C 0.69708 0.95659 0.38296 0.0
O99 O 0.68391 0.81165 0.40274 0.0
O100 O 0.74497 0.84698 0.44017 0.0
O101 O 0.61083 0.90043 0.38094 0.0
O102 O 0.60372 0.8318 0.42751 0.0
C103 C 0.6813 0.95809 0.61204 0.0
O104 O 0.7232 0.92496 0.39825 0.0
O105 O 0.66264 0.96189 0.42861 0.0
C106 C 0.72458 0.81961 0.39136 0.0
O107 O 0.71509 0.9461 0.568 0.0
O108 O 0.64308 0.94457 0.59186 0.0
C109 C 0.58752 0.86074 0.60229 0.0
Fe110 Fe 0.15237 0.72489 0.50095 0.0
Fe111 Fe 0.22687 0.65446 0.50222 0.0
O112 O 0.16982 0.66879 0.50075 0.0
Fe113 Fe 0.1296 0.62639 0.49743 0.0
O114 O 0.11051 0.64527 0.392 0.0
O115 O 0.10385 0.71519 0.42971 0.0
O116 O 0.18311 0.73663 0.40119 0.0
C117 C 0.22378 0.72939 0.38873 0.0
C118 C 0.08923 0.6896 0.60937 0.0
O119 O 0.24499 0.70238 0.43692 0.0
C120 C 0.18607 0.59159 0.61624 0.0
O121 O 0.198 0.74401 0.571 0.0
O122 O 0.23582 0.68388 0.6052 0.0
O123 O 0.08655 0.65763 0.55596 0.0
O124 O 0.11995 0.7176 0.60157 0.0
C125 C 0.19609 0.59204 0.38636 0.0
O126 O 0.21853 0.60382 0.56882 0.0
O127 O 0.14743 0.60571 0.60238 0.0
C128 C 0.22525 0.72368 0.62017 0.0
O129 O 0.22214 0.62418 0.39794 0.0
O130 O 0.16401 0.58594 0.43829 0.0
C131 C 0.09667 0.68377 0.37626 0.0
Fe132 Fe 0.39736 0.22575 0.50448 0.0
Fe133 Fe 0.32513 0.15304 0.50043 0.0
O134 O 0.38164 0.1691 0.50891 0.0
Fe135 Fe 0.42228 0.12761 0.52319 0.0
O136 O 0.46065 0.16108 0.58696 0.0
O137 O 0.42544 0.2233 0.61145 0.0
O138 O 0.34807 0.24534 0.56431 0.0
C139 C 0.31982 0.22498 0.61132 0.0
C140 C 0.46357 0.18097 0.40397 0.0
O141 O 0.31112 0.18463 0.59792 0.0
C142 C 0.36349 0.08837 0.40128 0.0
O143 O 0.3707 0.23361 0.3979 0.0
O144 O 0.30882 0.19878 0.4284 0.0
O145 O 0.44922 0.14276 0.4217 0.0
O146 O 0.44929 0.21509 0.44374 0.0
C147 C 0.35831 0.097 0.63308 0.0
O148 O 0.33607 0.12008 0.40164 0.0
O149 O 0.39225 0.08534 0.46153 0.0
C150 C 0.33056 0.22543 0.38103 0.0
O151 O 0.33032 0.10427 0.57265 0.0
O152 O 0.39758 0.11071 0.62638 0.0
C153 C 0.45491 0.1955 0.63196 0.0
Fe154 Fe 0.89795 0.32247 0.50159 0.0
Fe155 Fe 0.92458 0.41984 0.50833 0.0
O156 O 0.88275 0.37911 0.50476 0.0
Fe157 Fe 0.82623 0.39552 0.50588 0.0
O158 O 0.81546 0.3641 0.60601 0.0
O159 O 0.85019 0.30333 0.56626 0.0
O160 O 0.92842 0.32681 0.60596 0.0
C161 C 0.96017 0.35333 0.61821 0.0
C162 C 0.82776 0.32265 0.38651 0.0
O163 O 0.96565 0.38585 0.56707 0.0
C164 C 0.8604 0.4593 0.39675 0.0
O165 O 0.94852 0.33185 0.43524 0.0
O166 O 0.94549 0.40293 0.40306 0.0
O167 O 0.80757 0.34968 0.43614 0.0
O168 O 0.86835 0.314 0.39837 0.0
C169 C 0.8671 0.45252 0.6291 0.0
O170 O 0.89246 0.46241 0.45016 0.0
O171 O 0.83252 0.42841 0.40511 0.0
C172 C 0.96032 0.36472 0.38852 0.0
O173 O 0.90556 0.43824 0.61399 0.0
O174 O 0.83537 0.44406 0.57691 0.0
C175 C 0.82299 0.32327 0.61593 0.0
C176 C 0.50342 0.21865 0.27998 0.0
C177 C 0.5015 0.18468 0.34334 0.0
C178 C 0.53716 0.21931 0.21609 0.0
C179 C 0.57007 0.18621 0.21444 0.0
H180 H 0.47764 0.24362 0.2773 0.0
H181 H 0.53621 0.24464 0.16547 0.0
S182 S 0.58408 0.09517 0.37725 0.0
N183 N 0.53821 0.12067 0.40783 0.0
N184 N 0.60188 0.12229 0.28962 0.0
C185 C 0.57015 0.15411 0.28188 0.0
C186 C 0.53574 0.15319 0.34582 0.0
C187 C 0.89439 0.54744 0.23168 0.0
C188 C 0.85457 0.55991 0.19012 0.0
C189 C 0.89533 0.51534 0.29823 0.0
C190 C 0.85657 0.4934 0.32578 0.0
H191 H 0.92545 0.5626 0.2123 0.0
H192 H 0.92714 0.5071 0.32724 0.0
S193 S 0.74332 0.51387 0.23844 0.0
N194 N 0.775 0.54837 0.18194 0.0
N195 N 0.77673 0.48695 0.30648 0.0
C196 C 0.81625 0.50554 0.2851 0.0
C197 C 0.81523 0.53914 0.21778 0.0
C198 C 0.56844 0.87663 0.22012 0.0
C199 C 0.56328 0.85415 0.30031 0.0
C200 C 0.53559 0.87508 0.15549 0.0
C201 C 0.49583 0.85148 0.1688 0.0
H202 H 0.59772 0.89649 0.20797 0.0
H203 H 0.54102 0.89385 0.09551 0.0
S204 S 0.46706 0.78535 0.36682 0.0
N205 N 0.51665 0.80573 0.38891 0.0
N206 N 0.45411 0.80343 0.26714 0.0
C207 C 0.49099 0.82721 0.24734 0.0
C208 C 0.52491 0.82844 0.31325 0.0
C209 C 0.20257 0.48168 0.26692 0.0
C210 C 0.2036 0.49427 0.17764 0.0
C211 C 0.20176 0.51362 0.33436 0.0
C212 C 0.20355 0.55924 0.31507 0.0
H213 H 0.2 0.44702 0.2846 0.0
H214 H 0.19872 0.50257 0.40213 0.0
S215 S 0.20884 0.60918 0.09193 0.0
N216 N 0.20713 0.55532 0.07345 0.0
N217 N 0.20805 0.61515 0.20027 0.0
C218 C 0.20666 0.57212 0.22624 0.0
C219 C 0.20601 0.53968 0.1575 0.0
C220 C 0.517 0.88901 0.66684 0.0
C221 C 0.55171 0.85773 0.66941 0.0
C222 C 0.48406 0.88994 0.73141 0.0
C223 C 0.48397 0.8595 0.80148 0.0
H224 H 0.51548 0.91387 0.61534 0.0
H225 H 0.45876 0.91535 0.72701 0.0
S226 S 0.56589 0.76944 0.83774 0.0
N227 N 0.583 0.79436 0.74691 0.0
N228 N 0.52061 0.79598 0.86858 0.0
C229 C 0.51745 0.82695 0.80375 0.0
C230 C 0.55143 0.82615 0.73783 0.0
C231 C 0.22212 0.51835 0.80493 0.0
C232 C 0.19005 0.48453 0.8017 0.0
C233 C 0.22238 0.55231 0.74172 0.0
C234 C 0.1905 0.55318 0.67436 0.0
H235 H 0.24564 0.51987 0.85891 0.0
H236 H 0.24606 0.57906 0.74813 0.0
S237 S 0.10508 0.46815 0.62772 0.0
N238 N 0.12978 0.45091 0.71874 0.0
N239 N 0.13011 0.5148 0.6007 0.0
C240 C 0.16043 0.51796 0.6669 0.0
C241 C 0.16026 0.48353 0.73053 0.0
C242 C 0.48687 0.16546 0.76911 0.0
C243 C 0.48367 0.20102 0.70986 0.0
C244 C 0.5196 0.16423 0.83427 0.0
C245 C 0.55137 0.19818 0.84221 0.0
H246 H 0.46479 0.13737 0.76294 0.0
H247 H 0.52081 0.13532 0.87658 0.0
S248 S 0.55624 0.29973 0.70398 0.0
N249 N 0.51352 0.27195 0.66416 0.0
N250 N 0.57604 0.26972 0.78639 0.0
C251 C 0.54766 0.23486 0.78485 0.0
C252 C 0.51358 0.23628 0.71878 0.0
C253 C 0.89813 0.52681 0.81736 0.0
C254 C 0.86184 0.5557 0.82376 0.0
C255 C 0.89812 0.49217 0.75743 0.0
C256 C 0.86206 0.48533 0.7002 0.0
H257 H 0.92719 0.53118 0.85855 0.0
H258 H 0.9274 0.47141 0.75448 0.0
S259 S 0.75708 0.54965 0.69697 0.0
N260 N 0.78741 0.57366 0.77401 0.0
N261 N 0.78741 0.50842 0.65849 0.0
C262 C 0.82443 0.51266 0.70888 0.0
C263 C 0.82434 0.54793 0.77135 0.0
C264 C 0.99862 0.6569 0.77006 0.0
C265 C 0.988 0.69645 0.81399 0.0
C266 C 0.03079 0.65563 0.70379 0.0
C267 C 0.05462 0.69372 0.67909 0.0
H268 H 0.98212 0.6263 0.78776 0.0
H269 H 0.03769 0.62402 0.67304 0.0
S270 S 0.0393 0.806 0.77362 0.0
N271 N 1.00317 0.77503 0.82758 0.0
N272 N 0.06472 0.77268 0.70359 0.0
C273 C 0.04417 0.73379 0.72202 0.0
C274 C 1.01053 0.73518 0.78902 0.0
C275 C 0.32923 0.0243 0.6854 0.0
C276 C 0.34797 0.06586 0.70429 0.0
C277 C 0.3276 0.99104 0.75017 0.0
C278 C 0.34455 0.99879 0.83512 0.0
H279 H 0.31856 1.01654 0.61894 0.0
H280 H 0.31587 0.95842 0.73204 0.0
S281 S 0.38814 0.1053 0.92094 0.0
N282 N 0.37753 0.11508 0.81583 0.0
N283 N 0.37395 0.05323 0.93812 0.0
C284 C 0.35949 0.04162 0.85635 0.0
C285 C 0.36141 0.07504 0.7906 0.0
C286 C 0.0388 0.34952 0.67062 0.0
C287 C 0.99318 0.34616 0.68955 0.0
C288 C 0.07078 0.34944 0.73826 0.0
C289 C 0.05819 0.34755 0.82742 0.0
H290 H 0.04978 0.35332 0.60298 0.0
H291 H 0.10541 0.35321 0.72087 0.0
S292 S 0.94336 0.33793 0.91226 0.0
N293 N 0.93734 0.33921 0.80389 0.0
N294 N 0.99724 0.34125 0.93114 0.0
C295 C 1.01284 0.34342 0.84722 0.0
C296 C 0.98038 0.34212 0.77825 0.0
C297 C 0.64618 0.03687 0.7919 0.0
C298 C 0.68526 0.05967 0.81387 0.0
C299 C 0.64593 1.00383 0.72821 0.0
C300 C 0.68469 0.99202 0.68234 0.0
H301 H 0.61513 0.04428 0.82459 0.0
H302 H 0.61461 0.98766 0.71473 0.0
S303 S 0.7962 0.04143 0.71511 0.0
N304 N 0.76415 0.06799 0.78576 0.0
N305 N 0.76376 1.00564 0.66406 0.0
C306 C 0.72436 1.01417 0.70392 0.0
C307 C 0.72463 0.04798 0.77004 0.0
C308 C 0.03488 0.329 0.20144 0.0
C309 C 0.06786 0.36198 0.20322 0.0
C310 C 1.00076 0.32854 0.26434 0.0
C311 C 0.99877 0.36117 0.32995 0.0
H312 H 0.03417 0.30479 0.14887 0.0
H313 H 0.97476 0.30397 0.2591 0.0
S314 S 0.08135 0.44951 0.3725 0.0
N315 N 0.0995 0.42419 0.28319 0.0
N316 N 0.03531 0.42354 0.40035 0.0
C317 C 0.03312 0.39235 0.33587 0.0
C318 C 0.06776 0.39269 0.27267 0.0
C319 C 0.70501 0.97821 0.2252 0.0
C320 C 0.7071 0.98987 0.31469 0.0
C321 C 0.70471 1.01091 0.15919 0.0
C322 C 0.70767 0.05616 0.18055 0.0
H323 H 0.70079 0.94389 0.20644 0.0
H324 H 0.7006 1.00084 0.09111 0.0
S325 S 0.7163 0.10339 0.40516 0.0
N326 N 0.71345 0.04937 0.42144 0.0
N327 N 0.71481 0.11067 0.29711 0.0
C328 C 0.71225 0.06799 0.26953 0.0
C329 C 0.71139 0.03483 0.33676 0.0
C330 C 0.99716 0.72166 0.24473 0.0
C331 C 0.99568 0.68954 0.17817 0.0
C332 C 0.03167 0.72151 0.30672 0.0
C333 C 0.06545 0.68937 0.30278 0.0
H334 H 0.97047 0.74545 0.25148 0.0
H335 H 0.03059 0.7451 0.36039 0.0
S336 S 0.08033 0.60403 0.12951 0.0
N337 N 0.03332 0.62898 0.10404 0.0
N338 N 0.09851 0.62901 0.21921 0.0
C339 C 0.06594 0.65952 0.23183 0.0
C340 C 0.03084 0.65948 0.16976 0.0
C341 C 0.33351 1.02328 0.19381 0.0
C342 C 0.36205 0.98646 0.19905 0.0
C343 C 0.33321 0.05576 0.26027 0.0
C344 C 0.36114 0.05227 0.33455 0.0
H345 H 0.31257 0.02792 0.13642 0.0
H346 H 0.31179 0.08428 0.25219 0.0
S347 S 0.43811 0.95869 0.38324 0.0
N348 N 0.41612 0.94635 0.28675 0.0
N349 N 0.41547 1.00625 0.4119 0.0
C350 C 0.38829 1.01422 0.34194 0.0
C351 C 0.38876 0.98164 0.27417 0.0
C352 C 0.82378 0.27474 0.25102 0.0
C353 C 0.80199 0.29785 0.31899 0.0
C354 C 0.79985 0.25131 0.18666 0.0
C355 C 0.75316 0.25 0.18775 0.0
H356 H 0.85963 0.2751 0.24682 0.0
H357 H 0.81814 0.2346 0.13508 0.0
S358 S 0.68017 0.30178 0.35602 0.0
N359 N 0.73083 0.31576 0.38596 0.0
N360 N 0.68618 0.27182 0.26603 0.0
C361 C 0.73102 0.27215 0.25657 0.0
C362 C 0.75531 0.29604 0.32176 0.0
C363 C 0.81921 0.78019 0.24477 0.0
C364 C 0.79887 0.74856 0.19005 0.0
C365 C 0.79505 0.80283 0.30963 0.0
C366 C 0.7495 0.79479 0.32269 0.0
H367 H 0.85408 0.78785 0.23726 0.0
H368 H 0.81234 0.82698 0.34957 0.0
S369 S 0.6804 0.71443 0.19816 0.0
N370 N 0.73026 0.70979 0.15468 0.0
N371 N 0.6851 0.75235 0.27563 0.0
C372 C 0.72878 0.76297 0.26885 0.0
C373 C 0.75336 0.73987 0.20298 0.0
C374 C 0.31238 0.76278 0.22307 0.0
C375 C 0.29605 0.80283 0.18832 0.0
C376 C 0.28892 0.73941 0.28803 0.0
C377 C 0.24788 0.75482 0.31998 0.0
H378 H 0.34374 0.7495 0.20048 0.0
H379 H 0.30293 0.70877 0.31276 0.0
S380 S 0.19021 0.85773 0.2498 0.0
N381 N 0.23602 0.85677 0.19048 0.0
N382 N 0.19196 0.8128 0.31172 0.0
C383 C 0.23105 0.79472 0.2854 0.0
C384 C 0.25513 0.81874 0.21999 0.0
C385 C 0.26063 0.24365 0.29932 0.0
C386 C 0.3065 0.25053 0.31112 0.0
C387 C 0.23615 0.26788 0.23728 0.0
C388 C 0.25633 0.3001 0.18371 0.0
H389 H 0.24309 0.21946 0.33885 0.0
H390 H 0.20101 0.26109 0.2314 0.0
S391 S 0.37578 0.33078 0.187 0.0
N392 N 0.3713 0.29183 0.26288 0.0
N393 N 0.32545 0.33745 0.14628 0.0
C394 C 0.3023 0.30727 0.19428 0.0
C395 C 0.3273 0.28249 0.25773 0.0
C396 C 0.29012 0.73488 0.72137 0.0
C397 C 0.2482 0.74863 0.69113 0.0
C398 C 0.31348 0.75937 0.7847 0.0
C399 C 0.2957 0.79836 0.82145 0.0
H400 H 0.30549 0.70539 0.69472 0.0
H401 H 0.34577 0.74739 0.80514 0.0
S402 S 0.18599 0.84754 0.76753 0.0
N403 N 0.18915 0.80311 0.7047 0.0
N404 N 0.23284 0.84894 0.82382 0.0
C405 C 0.2534 0.81207 0.79286 0.0
C406 C 0.22976 0.7873 0.72778 0.0
C407 C 0.30072 0.29575 0.68942 0.0
C408 C 0.29527 0.24963 0.68084 0.0
C409 C 0.27862 0.31974 0.75525 0.0
C410 C 0.25013 0.29869 0.81565 0.0
H411 H 0.32233 0.31369 0.64497 0.0
H412 H 0.28412 0.35511 0.7588 0.0
S413 S 0.22456 0.17825 0.82249 0.0
N414 N 0.25927 0.18375 0.73925 0.0
N415 N 0.2177 0.22856 0.86225 0.0
C416 C 0.24421 0.25252 0.80764 0.0
C417 C 0.26675 0.22812 0.74061 0.0
C418 C 0.77252 0.31944 0.74793 0.0
C419 C 0.79723 0.2975 0.68234 0.0
C420 C 0.7485 0.2958 0.8119 0.0
C421 C 0.74814 0.24918 0.81308 0.0
H422 H 0.77214 0.35525 0.75075 0.0
H423 H 0.73073 0.31432 0.86173 0.0
S424 S 0.80428 0.17561 0.65154 0.0
N425 N 0.81767 0.22612 0.61993 0.0
N426 N 0.77264 0.18196 0.73928 0.0
C427 C 0.7718 0.22681 0.74648 0.0
C428 C 0.79629 0.25085 0.68154 0.0
C429 C 0.74132 0.75623 0.70423 0.0
C430 C 0.74846 0.80198 0.69224 0.0
C431 C 0.76521 0.73177 0.76722 0.0
C432 C 0.79729 0.75196 0.82125 0.0
H433 H 0.71723 0.73886 0.6642 0.0
H434 H 0.75837 0.69672 0.77342 0.0
S435 S 0.82849 0.87115 0.81734 0.0
N436 N 0.78983 0.86659 0.74092 0.0
N437 N 0.83474 0.82097 0.8585 0.0
C438 C 0.80464 0.79782 0.81027 0.0
C439 C 0.78025 0.8227 0.74622 0.0
loop_
_geom_bond_atom_site_label_1
_geom_bond_atom_site_label_2
_geom_bond_distance
_geom_bond_site_symmetry_2
_ccdc_geom_bond_type
Fe0 O2 1.918 . S
Fe0 O5 1.997 1_554 S
Fe0 O6 2.002 1_554 S
Fe0 O11 1.976 . S
Fe0 O14 1.996 . S
Fe1 O2 1.918 . S
Fe1 O9 1.997 1_554 S
Fe1 O12 1.996 . S
Fe1 O16 1.976 . S
Fe1 O19 2.002 1_554 S
O2 Fe0 1.918 . S
O2 Fe1 1.918 . S
O2 Fe3 1.918 . S
Fe3 O2 1.918 . S
Fe3 O4 2.002 1_554 S
Fe3 O13 1.976 . S
Fe3 O17 1.996 . S
Fe3 O20 1.997 1_554 S
O4 Fe3 2.002 1_556 S
O4 C21 1.295 . S
O5 Fe0 1.997 1_556 S
O5 C21 1.235 . S
O6 Fe0 2.002 1_556 S
O6 C7 1.295 . S
C7 O6 1.295 . S
C7 O9 1.235 . S
C8 O13 1.287 . S
C8 O14 1.255 . S
O9 Fe1 1.997 1_556 S
O9 C7 1.235 . S
C10 O16 1.287 . S
C10 O17 1.255 . S
O11 Fe0 1.976 . S
O11 C18 1.287 . S
O12 Fe1 1.996 . S
O12 C18 1.255 . S
O13 Fe3 1.976 . S
O13 C8 1.287 . S
O14 Fe0 1.996 . S
O14 C8 1.255 . S
C15 O19 1.295 . S
C15 O20 1.235 . S
O16 Fe1 1.976 . S
O16 C10 1.287 . S
O17 Fe3 1.996 . S
O17 C10 1.255 . S
C18 O11 1.287 . S
C18 O12 1.255 . S
O19 Fe1 2.002 1_556 S
O19 C15 1.295 . S
O20 Fe3 1.997 1_556 S
O20 C15 1.235 . S
C21 O4 1.295 . S
C21 O5 1.235 . S
Fe22 O24 1.918 . S
Fe22 O27 1.997 1_556 S
Fe22 O28 2.002 1_556 S
Fe22 O33 1.976 . S
Fe22 O36 1.996 . S
Fe23 O24 1.918 . S
Fe23 O31 1.997 1_556 S
Fe23 O34 1.996 . S
Fe23 O38 1.976 . S
Fe23 O41 2.002 1_556 S
O24 Fe22 1.918 . S
O24 Fe23 1.918 . S
O24 Fe25 1.918 . S
Fe25 O24 1.918 . S
Fe25 O26 2.002 1_556 S
Fe25 O35 1.976 . S
Fe25 O39 1.996 . S
Fe25 O42 1.997 1_556 S
O26 Fe25 2.002 1_554 S
O26 C43 1.295 . S
O27 Fe22 1.997 1_554 S
O27 C43 1.235 . S
O28 Fe22 2.002 1_554 S
O28 C29 1.295 . S
C29 O28 1.295 . S
C29 O31 1.235 . S
C30 O35 1.287 . S
C30 O36 1.255 . S
O31 Fe23 1.997 1_554 S
O31 C29 1.235 . S
C32 O38 1.287 . S
C32 O39 1.255 . S
O33 Fe22 1.976 . S
O33 C40 1.287 . S
O34 Fe23 1.996 . S
O34 C40 1.255 . S
O35 Fe25 1.976 . S
O35 C30 1.287 . S
O36 Fe22 1.996 . S
O36 C30 1.255 . S
C37 O41 1.295 . S
C37 O42 1.235 . S
O38 Fe23 1.976 . S
O38 C32 1.287 . S
O39 Fe25 1.996 . S
O39 C32 1.255 . S
C40 O33 1.287 . S
C40 O34 1.255 . S
O41 Fe23 2.002 1_554 S
O41 C37 1.295 . S
O42 Fe25 1.997 1_554 S
O42 C37 1.235 . S
C43 O26 1.295 . S
C43 O27 1.235 . S
Fe44 O46 1.918 . S
Fe44 O49 1.997 1_556 S
Fe44 O50 2.002 1_556 S
Fe44 O55 1.976 . S
Fe44 O58 1.996 . S
Fe45 O46 1.918 . S
Fe45 O53 1.997 1_556 S
Fe45 O56 1.996 . S
Fe45 O60 1.976 . S
Fe45 O63 2.002 1_556 S
O46 Fe44 1.918 . S
O46 Fe45 1.918 . S
O46 Fe47 1.918 . S
Fe47 O46 1.918 . S
Fe47 O48 2.002 1_556 S
Fe47 O57 1.976 . S
Fe47 O61 1.996 . S
Fe47 O64 1.997 1_556 S
O48 Fe47 2.002 1_554 S
O48 C65 1.295 . S
O49 Fe44 1.997 1_554 S
O49 C65 1.235 . S
O50 Fe44 2.002 1_554 S
O50 C51 1.295 . S
C51 O50 1.295 . S
C51 O53 1.235 . S
C52 O57 1.287 . S
C52 O58 1.255 . S
O53 Fe45 1.997 1_554 S
O53 C51 1.235 . S
C54 O60 1.287 . S
C54 O61 1.255 . S
O55 Fe44 1.976 . S
O55 C62 1.287 . S
O56 Fe45 1.996 . S
O56 C62 1.255 . S
O57 Fe47 1.976 . S
O57 C52 1.287 . S
O58 Fe44 1.996 . S
O58 C52 1.255 . S
C59 O63 1.295 . S
C59 O64 1.235 . S
O60 Fe45 1.976 . S
O60 C54 1.287 . S
O61 Fe47 1.996 . S
O61 C54 1.255 . S
C62 O55 1.287 . S
C62 O56 1.255 . S
O63 Fe45 2.002 1_554 S
O63 C59 1.295 . S
O64 Fe47 1.997 1_554 S
O64 C59 1.235 . S
C65 O48 1.295 . S
C65 O49 1.235 . S
Fe66 O68 1.918 . S
Fe66 O71 1.997 1_556 S
Fe66 O72 2.002 1_556 S
Fe66 O77 1.976 . S
Fe66 O80 1.996 . S
Fe67 O68 1.918 . S
Fe67 O75 1.997 1_556 S
Fe67 O78 1.996 . S
Fe67 O82 1.976 . S
Fe67 O85 2.002 1_556 S
O68 Fe66 1.918 . S
O68 Fe67 1.918 . S
O68 Fe69 1.918 . S
Fe69 O68 1.918 . S
Fe69 O70 2.002 1_556 S
Fe69 O79 1.976 . S
Fe69 O83 1.996 . S
Fe69 O86 1.997 1_556 S
O70 Fe69 2.002 1_554 S
O70 C87 1.295 . S
O71 Fe66 1.997 1_554 S
O71 C87 1.235 . S
O72 Fe66 2.002 1_554 S
O72 C73 1.295 . S
C73 O72 1.295 . S
C73 O75 1.235 . S
C74 O79 1.287 . S
C74 O80 1.255 . S
O75 Fe67 1.997 1_554 S
O75 C73 1.235 . S
C76 O82 1.287 . S
C76 O83 1.255 . S
O77 Fe66 1.976 . S
O77 C84 1.287 . S
O78 Fe67 1.996 . S
O78 C84 1.255 . S
O79 Fe69 1.976 . S
O79 C74 1.287 . S
O80 Fe66 1.996 . S
O80 C74 1.255 . S
C81 O85 1.295 . S
C81 O86 1.235 . S
O82 Fe67 1.976 . S
O82 C76 1.287 . S
O83 Fe69 1.996 . S
O83 C76 1.255 . S
C84 O77 1.287 . S
C84 O78 1.255 . S
O85 Fe67 2.002 1_554 S
O85 C81 1.295 . S
O86 Fe69 1.997 1_554 S
O86 C81 1.235 . S
C87 O70 1.295 . S
C87 O71 1.235 . S
Fe88 O90 1.918 . S
Fe88 O93 1.997 . S
Fe88 O94 2.002 . S
Fe88 O99 1.976 . S
Fe88 O102 1.996 . S
Fe89 O90 1.918 . S
Fe89 O97 1.997 . S
Fe89 O100 1.996 . S
Fe89 O104 1.976 . S
Fe89 O107 2.002 . S
O90 Fe88 1.918 . S
O90 Fe89 1.918 . S
O90 Fe91 1.918 . S
Fe91 O90 1.918 . S
Fe91 O92 2.002 . S
Fe91 O101 1.976 . S
Fe91 O105 1.996 . S
Fe91 O108 1.997 . S
O92 Fe91 2.002 . S
O92 C109 1.295 . S
O93 Fe88 1.997 . S
O93 C109 1.235 . S
O94 Fe88 2.002 . S
O94 C95 1.295 . S
C95 O94 1.295 . S
C95 O97 1.235 . S
C96 O101 1.287 . S
C96 O102 1.255 . S
O97 Fe89 1.997 . S
O97 C95 1.235 . S
C98 O104 1.287 . S
C98 O105 1.255 . S
O99 Fe88 1.976 . S
O99 C106 1.287 . S
O100 Fe89 1.996 . S
O100 C106 1.255 . S
O101 Fe91 1.976 . S
O101 C96 1.287 . S
O102 Fe88 1.996 . S
O102 C96 1.255 . S
C103 O107 1.295 . S
C103 O108 1.235 . S
O104 Fe89 1.976 . S
O104 C98 1.287 . S
O105 Fe91 1.996 . S
O105 C98 1.255 . S
C106 O99 1.287 . S
C106 O100 1.255 . S
O107 Fe89 2.002 . S
O107 C103 1.295 . S
O108 Fe91 1.997 . S
O108 C103 1.235 . S
C109 O92 1.295 . S
C109 O93 1.235 . S
Fe110 O112 1.918 . S
Fe110 O115 1.997 . S
Fe110 O116 2.002 . S
Fe110 O121 1.976 . S
Fe110 O124 1.996 . S
Fe111 O112 1.918 . S
Fe111 O119 1.997 . S
Fe111 O122 1.996 . S
Fe111 O126 1.976 . S
Fe111 O129 2.002 . S
O112 Fe110 1.918 . S
O112 Fe111 1.918 . S
O112 Fe113 1.918 . S
Fe113 O112 1.918 . S
Fe113 O114 2.002 . S
Fe113 O123 1.976 . S
Fe113 O127 1.996 . S
Fe113 O130 1.997 . S
O114 Fe113 2.002 . S
O114 C131 1.295 . S
O115 Fe110 1.997 . S
O115 C131 1.235 . S
O116 Fe110 2.002 . S
O116 C117 1.295 . S
C117 O116 1.295 . S
C117 O119 1.235 . S
C118 O123 1.287 . S
C118 O124 1.255 . S
O119 Fe111 1.997 . S
O119 C117 1.235 . S
C120 O126 1.287 . S
C120 O127 1.255 . S
O121 Fe110 1.976 . S
O121 C128 1.287 . S
O122 Fe111 1.996 . S
O122 C128 1.255 . S
O123 Fe113 1.976 . S
O123 C118 1.287 . S
O124 Fe110 1.996 . S
O124 C118 1.255 . S
C125 O129 1.295 . S
C125 O130 1.235 . S
O126 Fe111 1.976 . S
O126 C120 1.287 . S
O127 Fe113 1.996 . S
O127 C120 1.255 . S
C128 O121 1.287 . S
C128 O122 1.255 . S
O129 Fe111 2.002 . S
O129 C125 1.295 . S
O130 Fe113 1.997 . S
O130 C125 1.235 . S
C131 O114 1.295 . S
C131 O115 1.235 . S
Fe132 O134 1.918 . S
Fe132 O137 1.997 . S
Fe132 O138 2.002 . S
Fe132 O143 1.976 . S
Fe132 O146 1.996 . S
Fe133 O134 1.918 . S
Fe133 O141 1.997 . S
Fe133 O144 1.996 . S
Fe133 O148 1.976 . S
Fe133 O151 2.002 . S
O134 Fe132 1.918 . S
O134 Fe133 1.918 . S
O134 Fe135 1.918 . S
Fe135 O134 1.918 . S
Fe135 O136 2.002 . S
Fe135 O145 1.976 . S
Fe135 O149 1.996 . S
Fe135 O152 1.997 . S
O136 Fe135 2.002 . S
O136 C153 1.295 . S
O137 Fe132 1.997 . S
O137 C153 1.235 . S
O138 Fe132 2.002 . S
O138 C139 1.295 . S
C139 O138 1.295 . S
C139 O141 1.235 . S
C140 O145 1.287 . S
C140 O146 1.255 . S
O141 Fe133 1.997 . S
O141 C139 1.235 . S
C142 O148 1.287 . S
C142 O149 1.255 . S
O143 Fe132 1.976 . S
O143 C150 1.287 . S
O144 Fe133 1.996 . S
O144 C150 1.255 . S
O145 Fe135 1.976 . S
O145 C140 1.287 . S
O146 Fe132 1.996 . S
O146 C140 1.255 . S
C147 O151 1.295 . S
C147 O152 1.235 . S
O148 Fe133 1.976 . S
O148 C142 1.287 . S
O149 Fe135 1.996 . S
O149 C142 1.255 . S
C150 O143 1.287 . S
C150 O144 1.255 . S
O151 Fe133 2.002 . S
O151 C147 1.295 . S
O152 Fe135 1.997 . S
O152 C147 1.235 . S
C153 O136 1.295 . S
C153 O137 1.235 . S
Fe154 O156 1.918 . S
Fe154 O159 1.997 . S
Fe154 O160 2.002 . S
Fe154 O165 1.976 . S
Fe154 O168 1.996 . S
Fe155 O156 1.918 . S
Fe155 O163 1.997 . S
Fe155 O166 1.996 . S
Fe155 O170 1.976 . S
Fe155 O173 2.002 . S
O156 Fe154 1.918 . S
O156 Fe155 1.918 . S
O156 Fe157 1.918 . S
Fe157 O156 1.918 . S
Fe157 O158 2.002 . S
Fe157 O167 1.976 . S
Fe157 O171 1.996 . S
Fe157 O174 1.997 . S
O158 Fe157 2.002 . S
O158 C175 1.295 . S
O159 Fe154 1.997 . S
O159 C175 1.235 . S
O160 Fe154 2.002 . S
O160 C161 1.295 . S
C161 O160 1.295 . S
C161 O163 1.235 . S
C162 O167 1.287 . S
C162 O168 1.255 . S
O163 Fe155 1.997 . S
O163 C161 1.235 . S
C164 O170 1.287 . S
C164 O171 1.255 . S
O165 Fe154 1.976 . S
O165 C172 1.287 . S
O166 Fe155 1.996 . S
O166 C172 1.255 . S
O167 Fe157 1.976 . S
O167 C162 1.287 . S
O168 Fe154 1.996 . S
O168 C162 1.255 . S
C169 O173 1.295 . S
C169 O174 1.235 . S
O170 Fe155 1.976 . S
O170 C164 1.287 . S
O171 Fe157 1.996 . S
O171 C164 1.255 . S
C172 O165 1.287 . S
C172 O166 1.255 . S
O173 Fe155 2.002 . S
O173 C169 1.295 . S
O174 Fe157 1.997 . S
O174 C169 1.235 . S
C175 O158 1.295 . S
C175 O159 1.235 . S
C176 C177 1.369 . S
C176 C178 1.419 . S
C176 H180 0.930 . S
C177 C176 1.369 . S
C177 C186 1.429 . S
C178 C176 1.419 . S
C178 C179 1.363 . S
C178 H181 0.929 . S
C179 C178 1.363 . S
C179 C185 1.428 . S
H180 C176 0.930 . S
H181 C178 0.929 . S
S182 N183 1.613 . S
S182 N184 1.610 . S
N183 S182 1.613 . S
N183 C186 1.350 . S
N184 S182 1.610 . S
N184 C185 1.351 . S
C185 C179 1.428 . S
C185 N184 1.351 . S
C185 C186 1.434 . S
C186 C177 1.429 . S
C186 N183 1.350 . S
C186 C185 1.434 . S
C187 C188 1.369 . S
C187 C189 1.419 . S
C187 H191 0.930 . S
C188 C187 1.369 . S
C188 C197 1.429 . S
C189 C187 1.419 . S
C189 C190 1.363 . S
C189 H192 0.929 . S
C190 C189 1.363 . S
C190 C196 1.428 . S
H191 C187 0.930 . S
H192 C189 0.929 . S
S193 N194 1.613 . S
S193 N195 1.610 . S
N194 S193 1.613 . S
N194 C197 1.350 . S
N195 S193 1.610 . S
N195 C196 1.351 . S
C196 C190 1.428 . S
C196 N195 1.351 . S
C196 C197 1.434 . S
C197 C188 1.429 . S
C197 N194 1.350 . S
C197 C196 1.434 . S
C198 C199 1.369 . S
C198 C200 1.419 . S
C198 H202 0.930 . S
C199 C198 1.369 . S
C199 C208 1.429 . S
C200 C198 1.419 . S
C200 C201 1.363 . S
C200 H203 0.929 . S
C201 C200 1.363 . S
C201 C207 1.428 . S
H202 C198 0.930 . S
H203 C200 0.929 . S
S204 N205 1.613 . S
S204 N206 1.610 . S
N205 S204 1.613 . S
N205 C208 1.350 . S
N206 S204 1.610 . S
N206 C207 1.351 . S
C207 C201 1.428 . S
C207 N206 1.351 . S
C207 C208 1.434 . S
C208 C199 1.429 . S
C208 N205 1.350 . S
C208 C207 1.434 . S
C209 C210 1.369 . S
C209 C211 1.419 . S
C209 H213 0.930 . S
C210 C209 1.369 . S
C210 C219 1.429 . S
C211 C209 1.419 . S
C211 C212 1.363 . S
C211 H214 0.929 . S
C212 C211 1.363 . S
C212 C218 1.428 . S
H213 C209 0.930 . S
H214 C211 0.929 . S
S215 N216 1.613 . S
S215 N217 1.610 . S
N216 S215 1.613 . S
N216 C219 1.350 . S
N217 S215 1.610 . S
N217 C218 1.351 . S
C218 C212 1.428 . S
C218 N217 1.351 . S
C218 C219 1.434 . S
C219 C210 1.429 . S
C219 N216 1.350 . S
C219 C218 1.434 . S
C220 C221 1.369 . S
C220 C222 1.419 . S
C220 H224 0.930 . S
C221 C220 1.369 . S
C221 C230 1.429 . S
C222 C220 1.419 . S
C222 C223 1.363 . S
C222 H225 0.929 . S
C223 C222 1.363 . S
C223 C229 1.428 . S
H224 C220 0.930 . S
H225 C222 0.929 . S
S226 N227 1.613 . S
S226 N228 1.610 . S
N227 S226 1.613 . S
N227 C230 1.350 . S
N228 S226 1.610 . S
N228 C229 1.351 . S
C229 C223 1.428 . S
C229 N228 1.351 . S
C229 C230 1.434 . S
C230 C221 1.429 . S
C230 N227 1.350 . S
C230 C229 1.434 . S
C231 C232 1.369 . S
C231 C233 1.419 . S
C231 H235 0.930 . S
C232 C231 1.369 . S
C232 C241 1.429 . S
C233 C231 1.419 . S
C233 C234 1.363 . S
C233 H236 0.929 . S
C234 C233 1.363 . S
C234 C240 1.428 . S
H235 C231 0.930 . S
H236 C233 0.929 . S
S237 N238 1.613 . S
S237 N239 1.610 . S
N238 S237 1.613 . S
N238 C241 1.350 . S
N239 S237 1.610 . S
N239 C240 1.351 . S
C240 C234 1.428 . S
C240 N239 1.351 . S
C240 C241 1.434 . S
C241 C232 1.429 . S
C241 N238 1.350 . S
C241 C240 1.434 . S
C242 C243 1.369 . S
C242 C244 1.419 . S
C242 H246 0.930 . S
C243 C242 1.369 . S
C243 C252 1.429 . S
C244 C242 1.419 . S
C244 C245 1.363 . S
C244 H247 0.929 . S
C245 C244 1.363 . S
C245 C251 1.428 . S
H246 C242 0.930 . S
H247 C244 0.929 . S
S248 N249 1.613 . S
S248 N250 1.610 . S
N249 S248 1.613 . S
N249 C252 1.350 . S
N250 S248 1.610 . S
N250 C251 1.351 . S
C251 C245 1.428 . S
C251 N250 1.351 . S
C251 C252 1.434 . S
C252 C243 1.429 . S
C252 N249 1.350 . S
C252 C251 1.434 . S
C253 C254 1.369 . S
C253 C255 1.419 . S
C253 H257 0.930 . S
C254 C253 1.369 . S
C254 C263 1.429 . S
C255 C253 1.419 . S
C255 C256 1.363 . S
C255 H258 0.929 . S
C256 C255 1.363 . S
C256 C262 1.428 . S
H257 C253 0.930 . S
H258 C255 0.929 . S
S259 N260 1.613 . S
S259 N261 1.610 . S
N260 S259 1.613 . S
N260 C263 1.350 . S
N261 S259 1.610 . S
N261 C262 1.351 . S
C262 C256 1.428 . S
C262 N261 1.351 . S
C262 C263 1.434 . S
C263 C254 1.429 . S
C263 N260 1.350 . S
C263 C262 1.434 . S
C264 C265 1.369 . S
C264 C266 1.419 1_655 S
C264 H268 0.930 . S
C265 C264 1.369 . S
C265 C274 1.429 . S
C266 C264 1.419 1_455 S
C266 C267 1.363 . S
C266 H269 0.929 . S
C267 C266 1.363 . S
C267 C273 1.428 . S
H268 C264 0.930 . S
H269 C266 0.929 . S
S270 N271 1.613 1_455 S
S270 N272 1.610 . S
N271 S270 1.613 1_655 S
N271 C274 1.350 . S
N272 S270 1.610 . S
N272 C273 1.351 . S
C273 C267 1.428 . S
C273 N272 1.351 . S
C273 C274 1.434 1_455 S
C274 C265 1.429 . S
C274 N271 1.350 . S
C274 C273 1.434 1_655 S
C275 C276 1.369 1_565 S
C275 C277 1.419 . S
C275 H279 0.930 . S
C276 C275 1.369 1_545 S
C276 C285 1.429 . S
C277 C275 1.419 . S
C277 C278 1.363 . S
C277 H280 0.929 . S
C278 C277 1.363 . S
C278 C284 1.428 1_565 S
H279 C275 0.930 . S
H280 C277 0.929 . S
S281 N282 1.613 . S
S281 N283 1.610 . S
N282 S281 1.613 . S
N282 C285 1.350 . S
N283 S281 1.610 . S
N283 C284 1.351 . S
C284 C278 1.428 1_545 S
C284 N283 1.351 . S
C284 C285 1.434 . S
C285 C276 1.429 . S
C285 N282 1.350 . S
C285 C284 1.434 . S
C286 C287 1.352 1_455 S
C286 C288 1.433 . S
C286 H290 0.933 . S
C287 C286 1.352 1_655 S
C287 C296 1.429 . S
C288 C286 1.433 . S
C288 C289 1.363 . S
C288 H291 0.929 . S
C289 C288 1.363 . S
C289 C295 1.428 1_455 S
H290 C286 0.933 . S
H291 C288 0.929 . S
S292 N293 1.613 . S
S292 N294 1.610 . S
N293 S292 1.613 . S
N293 C296 1.350 . S
N294 S292 1.610 . S
N294 C295 1.351 . S
C295 C289 1.428 1_655 S
C295 N294 1.351 . S
C295 C296 1.434 . S
C296 C287 1.429 . S
C296 N293 1.350 . S
C296 C295 1.434 . S
C297 C298 1.369 . S
C297 C299 1.419 1_545 S
C297 H301 0.930 . S
C298 C297 1.369 . S
C298 C307 1.429 . S
C299 C297 1.419 1_565 S
C299 C300 1.363 . S
C299 H302 0.929 . S
C300 C299 1.363 . S
C300 C306 1.428 . S
H301 C297 0.930 . S
H302 C299 0.929 . S
S303 N304 1.613 . S
S303 N305 1.610 1_545 S
N304 S303 1.613 . S
N304 C307 1.350 . S
N305 S303 1.610 1_565 S
N305 C306 1.351 . S
C306 C300 1.428 . S
C306 N305 1.351 . S
C306 C307 1.434 1_565 S
C307 C298 1.429 . S
C307 N304 1.350 . S
C307 C306 1.434 1_545 S
C308 C309 1.369 . S
C308 C310 1.419 1_455 S
C308 H312 0.930 . S
C309 C308 1.369 . S
C309 C318 1.429 . S
C310 C308 1.419 1_655 S
C310 C311 1.363 . S
C310 H313 0.929 . S
C311 C310 1.363 . S
C311 C317 1.428 . S
H312 C308 0.930 . S
H313 C310 0.929 . S
S314 N315 1.613 . S
S314 N316 1.610 1_455 S
N315 S314 1.613 . S
N315 C318 1.350 . S
N316 S314 1.610 1_655 S
N316 C317 1.351 . S
C317 C311 1.428 . S
C317 N316 1.351 . S
C317 C318 1.434 1_655 S
C318 C309 1.429 . S
C318 N315 1.350 . S
C318 C317 1.434 1_455 S
C319 C320 1.369 . S
C319 C321 1.419 . S
C319 H323 0.930 . S
C320 C319 1.369 . S
C320 C329 1.429 1_565 S
C321 C319 1.419 . S
C321 C322 1.363 1_565 S
C321 H324 0.929 . S
C322 C321 1.363 1_545 S
C322 C328 1.428 . S
H323 C319 0.930 . S
H324 C321 0.929 . S
S325 N326 1.613 . S
S325 N327 1.610 . S
N326 S325 1.613 . S
N326 C329 1.350 . S
N327 S325 1.610 . S
N327 C328 1.351 . S
C328 C322 1.428 . S
C328 N327 1.351 . S
C328 C329 1.434 . S
C329 C320 1.429 1_545 S
C329 N326 1.350 . S
C329 C328 1.434 . S
C330 C331 1.369 . S
C330 C332 1.419 1_655 S
C330 H334 0.930 . S
C331 C330 1.369 . S
C331 C340 1.429 . S
C332 C330 1.419 1_455 S
C332 C333 1.363 . S
C332 H335 0.929 . S
C333 C332 1.363 . S
C333 C339 1.428 . S
H334 C330 0.930 . S
H335 C332 0.929 . S
S336 N337 1.613 1_455 S
S336 N338 1.610 . S
N337 S336 1.613 1_655 S
N337 C340 1.350 . S
N338 S336 1.610 . S
N338 C339 1.351 . S
C339 C333 1.428 . S
C339 N338 1.351 . S
C339 C340 1.434 1_455 S
C340 C331 1.429 . S
C340 N337 1.350 . S
C340 C339 1.434 1_655 S
C341 C342 1.369 1_545 S
C341 C343 1.419 . S
C341 H345 0.930 . S
C342 C341 1.369 1_565 S
C342 C351 1.429 . S
C343 C341 1.419 . S
C343 C344 1.363 . S
C343 H346 0.929 . S
C344 C343 1.363 . S
C344 C350 1.428 1_545 S
H345 C341 0.930 . S
H346 C343 0.929 . S
S347 N348 1.613 . S
S347 N349 1.610 . S
N348 S347 1.613 . S
N348 C351 1.350 . S
N349 S347 1.610 . S
N349 C350 1.351 . S
C350 C344 1.428 1_565 S
C350 N349 1.351 . S
C350 C351 1.434 . S
C351 C342 1.429 . S
C351 N348 1.350 . S
C351 C350 1.434 . S
C352 C353 1.369 . S
C352 C354 1.419 . S
C352 H356 0.930 . S
C353 C352 1.369 . S
C353 C362 1.429 . S
C354 C352 1.419 . S
C354 C355 1.363 . S
C354 H357 0.929 . S
C355 C354 1.363 . S
C355 C361 1.428 . S
H356 C352 0.930 . S
H357 C354 0.929 . S
S358 N359 1.613 . S
S358 N360 1.610 . S
N359 S358 1.613 . S
N359 C362 1.350 . S
N360 S358 1.610 . S
N360 C361 1.351 . S
C361 C355 1.428 . S
C361 N360 1.351 . S
C361 C362 1.434 . S
C362 C353 1.429 . S
C362 N359 1.350 . S
C362 C361 1.434 . S
C363 C364 1.369 . S
C363 C365 1.419 . S
C363 H367 0.930 . S
C364 C363 1.369 . S
C364 C373 1.429 . S
C365 C363 1.419 . S
C365 C366 1.363 . S
C365 H368 0.929 . S
C366 C365 1.363 . S
C366 C372 1.428 . S
H367 C363 0.930 . S
H368 C365 0.929 . S
S369 N370 1.613 . S
S369 N371 1.610 . S
N370 S369 1.613 . S
N370 C373 1.350 . S
N371 S369 1.610 . S
N371 C372 1.351 . S
C372 C366 1.428 . S
C372 N371 1.351 . S
C372 C373 1.434 . S
C373 C364 1.429 . S
C373 N370 1.350 . S
C373 C372 1.434 . S
C374 C375 1.369 . S
C374 C376 1.419 . S
C374 H378 0.930 . S
C375 C374 1.369 . S
C375 C384 1.429 . S
C376 C374 1.419 . S
C376 C377 1.363 . S
C376 H379 0.929 . S
C377 C376 1.363 . S
C377 C383 1.428 . S
H378 C374 0.930 . S
H379 C376 0.929 . S
S380 N381 1.613 . S
S380 N382 1.610 . S
N381 S380 1.613 . S
N381 C384 1.350 . S
N382 S380 1.610 . S
N382 C383 1.351 . S
C383 C377 1.428 . S
C383 N382 1.351 . S
C383 C384 1.434 . S
C384 C375 1.429 . S
C384 N381 1.350 . S
C384 C383 1.434 . S
C385 C386 1.369 . S
C385 C387 1.419 . S
C385 H389 0.930 . S
C386 C385 1.369 . S
C386 C395 1.429 . S
C387 C385 1.419 . S
C387 C388 1.363 . S
C387 H390 0.929 . S
C388 C387 1.363 . S
C388 C394 1.428 . S
H389 C385 0.930 . S
H390 C387 0.929 . S
S391 N392 1.613 . S
S391 N393 1.610 . S
N392 S391 1.613 . S
N392 C395 1.350 . S
N393 S391 1.610 . S
N393 C394 1.351 . S
C394 C388 1.428 . S
C394 N393 1.351 . S
C394 C395 1.434 . S
C395 C386 1.429 . S
C395 N392 1.350 . S
C395 C394 1.434 . S
C396 C397 1.369 . S
C396 C398 1.419 . S
C396 H400 0.930 . S
C397 C396 1.369 . S
C397 C406 1.429 . S
C398 C396 1.419 . S
C398 C399 1.363 . S
C398 H401 0.929 . S
C399 C398 1.363 . S
C399 C405 1.428 . S
H400 C396 0.930 . S
H401 C398 0.929 . S
S402 N403 1.613 . S
S402 N404 1.610 . S
N403 S402 1.613 . S
N403 C406 1.350 . S
N404 S402 1.610 . S
N404 C405 1.351 . S
C405 C399 1.428 . S
C405 N404 1.351 . S
C405 C406 1.434 . S
C406 C397 1.429 . S
C406 N403 1.350 . S
C406 C405 1.434 . S
C407 C408 1.369 . S
C407 C409 1.419 . S
C407 H411 0.930 . S
C408 C407 1.369 . S
C408 C417 1.429 . S
C409 C407 1.419 . S
C409 C410 1.363 . S
C409 H412 0.929 . S
C410 C409 1.363 . S
C410 C416 1.428 . S
H411 C407 0.930 . S
H412 C409 0.929 . S
S413 N414 1.613 . S
S413 N415 1.610 . S
N414 S413 1.613 . S
N414 C417 1.350 . S
N415 S413 1.610 . S
N415 C416 1.351 . S
C416 C410 1.428 . S
C416 N415 1.351 . S
C416 C417 1.434 . S
C417 C408 1.429 . S
C417 N414 1.350 . S
C417 C416 1.434 . S
C418 C419 1.369 . S
C418 C420 1.419 . S
C418 H422 0.930 . S
C419 C418 1.369 . S
C419 C428 1.429 . S
C420 C418 1.419 . S
C420 C421 1.363 . S
C420 H423 0.929 . S
C421 C420 1.363 . S
C421 C427 1.428 . S
H422 C418 0.930 . S
H423 C420 0.929 . S
S424 N425 1.613 . S
S424 N426 1.610 . S
N425 S424 1.613 . S
N425 C428 1.350 . S
N426 S424 1.610 . S
N426 C427 1.351 . S
C427 C421 1.428 . S
C427 N426 1.351 . S
C427 C428 1.434 . S
C428 C419 1.429 . S
C428 N425 1.350 . S
C428 C427 1.434 . S
C429 C430 1.369 . S
C429 C431 1.419 . S
C429 H433 0.930 . S
C430 C429 1.369 . S
C430 C439 1.429 . S
C431 C429 1.419 . S
C431 C432 1.363 . S
C431 H434 0.929 . S
C432 C431 1.363 . S
C432 C438 1.428 . S
H433 C429 0.930 . S
H434 C431 0.929 . S
S435 N436 1.613 . S
S435 N437 1.610 . S
N436 S435 1.613 . S
N436 C439 1.350 . S
N437 S435 1.610 . S
N437 C438 1.351 . S
C438 C432 1.428 . S
C438 N437 1.351 . S
C438 C439 1.434 . S
C439 C430 1.429 . S
C439 N436 1.350 . S
C439 C438 1.434 . S
C177 C140 1.436 . S
C179 C8 1.436 . S
C188 C43 1.472 . S
C190 C164 1.480 . S
C199 C96 1.477 . S
C201 C59 1.472 . S
C210 C73 1.512 . S
C212 C125 1.515 . S
C221 C109 1.461 . S
C223 C54 1.469 . S
C232 C84 1.426 . S
C234 C120 1.425 . S
C243 C153 1.503 . S
C245 C21 1.505 . S
C254 C30 1.469 . S
C256 C169 1.462 . S
C265 C40 1.437 . S
C267 C118 1.437 . S
C276 C147 1.473 . S
C278 C52 1.478 . S
C287 C161 1.473 . S
C289 C76 1.477 . S
C298 C15 1.515 . S
C300 C103 1.513 . S
C309 C81 1.463 . S
C311 C172 1.467 . S
C320 C98 1.425 . S
C322 C10 1.426 . S
C331 C29 1.502 . S
C333 C131 1.503 . S
C342 C65 1.464 . S
C344 C142 1.466 . S
C353 C162 1.228 . S
C355 C18 1.227 . S
C364 C37 1.262 . S
C366 C106 1.265 . S
C375 C51 1.303 . S
C377 C117 1.300 . S
C386 C150 1.266 . S
C388 C87 1.263 . S
C397 C128 1.229 . S
C399 C62 1.227 . S
C408 C139 1.264 . S
C410 C74 1.266 . S
C419 C175 1.299 . S
C421 C7 1.302 . S
C430 C95 1.264 . S
C432 C32 1.266 . S
