# Generated by pormake.
# Topology wjt, (5)-cn, num edge types: 1
# Building blocks:
#     Node 0, Type 0, BuildingBlock: XOMCOT_clean_sbu_0, # of connection points: 5
#     Node 1, Type 0, BuildingBlock: XOMCOT_clean_sbu_0, # of connection points: 5
#     Node 2, Type 0, BuildingBlock: XOMCOT_clean_sbu_0, # of connection points: 5
#     Node 3, Type 0, BuildingBlock: XOMCOT_clean_sbu_0, # of connection points: 5
#     Node 4, Type 0, BuildingBlock: XOMCOT_clean_sbu_0, # of connection points: 5
#     Node 5, Type 0, BuildingBlock: XOMCOT_clean_sbu_0, # of connection points: 5
#     Node 6, Type 0, BuildingBlock: XOMCOT_clean_sbu_0, # of connection points: 5
#     Node 7, Type 0, BuildingBlock: XOMCOT_clean_sbu_0, # of connection points: 5
#     Node 8, Type 0, BuildingBlock: XOMCOT_clean_sbu_0, # of connection points: 5
#     Node 9, Type 0, BuildingBlock: XOMCOT_clean_sbu_0, # of connection points: 5
#     Node 10, Type 0, BuildingBlock: XOMCOT_clean_sbu_0, # of connection points: 5
#     Node 11, Type 0, BuildingBlock: XOMCOT_clean_sbu_0, # of connection points: 5
#     Edge 12, Type (0, 0), None
#     Edge 13, Type (0, 0), None
#     Edge 14, Type (0, 0), None
#     Edge 15, Type (0, 0), None
#     Edge 16, Type (0, 0), None
#     Edge 17, Type (0, 0), None
#     Edge 18, Type (0, 0), None
#     Edge 19, Type (0, 0), None
#     Edge 20, Type (0, 0), None
#     Edge 21, Type (0, 0), None
#     Edge 22, Type (0, 0), None
#     Edge 23, Type (0, 0), None
#     Edge 24, Type (0, 0), None
#     Edge 25, Type (0, 0), None
#     Edge 26, Type (0, 0), None
#     Edge 27, Type (0, 0), None
#     Edge 28, Type (0, 0), None
#     Edge 29, Type (0, 0), None
#     Edge 30, Type (0, 0), None
#     Edge 31, Type (0, 0), None
#     Edge 32, Type (0, 0), None
#     Edge 33, Type (0, 0), None
#     Edge 34, Type (0, 0), None
#     Edge 35, Type (0, 0), None
#     Edge 36, Type (0, 0), None
#     Edge 37, Type (0, 0), None
#     Edge 38, Type (0, 0), None
#     Edge 39, Type (0, 0), None
#     Edge 40, Type (0, 0), None
#     Edge 41, Type (0, 0), None
# Relax obj value: 0.248
# Max RMSD: 0.191
# Mean RMSD: 0.191
data_MOF--net-wjt--node1-XOMCOT_clean_sbu_0--edge1-none
_symmetry_space_group_name_H-M    P1
_symmetry_Int_Tables_number       1
_symmetry_cell_setting            triclinic
loop_
_symmetry_equiv_pos_as_xyz
'x, y, z'
_cell_length_a     31.694836
_cell_length_b     31.695282
_cell_length_c     9.232365
_cell_angle_alpha  90.005632
_cell_angle_beta   89.991866
_cell_angle_gamma 120.00182
loop_
_atom_site_label
_atom_site_type_symbol
_atom_site_fract_x
_atom_site_fract_y
_atom_site_fract_z
_atom_type_partial_charge
Co0 Co 0.34262 0.42147 0.21203 0.0
C1 C 0.3518 0.43871 0.51848 0.0
C2 C 0.27807 0.38573 0.46456 0.0
C3 C 0.28471 0.38297 0.61165 0.0
N4 N 0.3204 0.42041 0.40664 0.0
N5 N 0.33141 0.41582 0.64314 0.0
H6 H 0.39032 0.46373 0.50545 0.0
H7 H 0.24663 0.36037 0.40219 0.0
C8 C 0.24657 0.39507 0.05132 0.0
O9 O 0.23065 0.34803 0.05061 0.0
N10 N 0.36565 0.42249 0.01505 0.0
C11 C 0.40782 0.45669 0.95358 0.0
C12 C 0.40192 0.45638 0.80606 0.0
C13 C 0.33616 0.39966 0.90125 0.0
N14 N 0.3563 0.42123 0.77467 0.0
C15 C 0.4285 0.5139 0.25004 0.0
C16 C 0.38425 0.56925 0.28819 0.0
C17 C 0.43415 0.58999 0.31679 0.0
C18 C 0.45627 0.56208 0.29317 0.0
C19 C 0.3574 0.52031 0.24223 0.0
N20 N 0.37959 0.49293 0.22434 0.0
H21 H 0.44666 0.4929 0.24518 0.0
H22 H 0.31844 0.50397 0.2311 0.0
H23 H 0.44024 0.48268 0.00916 0.0
H24 H 0.30002 0.36925 0.90997 0.0
O25 O 0.39224 0.41053 0.29039 0.0
O26 O 0.31958 0.35032 0.2344 0.0
O27 O 0.28478 0.42448 0.12399 0.0
C28 C 0.36195 0.36455 0.29531 0.0
H29 H 0.25851 0.35653 0.68624 0.0
H30 H 0.42802 0.4822 0.73002 0.0
H31 H 0.36584 0.58972 0.30793 0.0
H32 H 0.49469 0.57676 0.31573 0.0
Co33 Co 0.93564 0.3354 0.54528 0.0
C34 C 0.92758 0.34458 0.85173 0.0
C35 C 0.90682 0.27085 0.79778 0.0
C36 C 0.91622 0.27749 0.94487 0.0
N37 N 0.91449 0.31319 0.73988 0.0
N38 N 0.93008 0.32419 0.97638 0.0
H39 H 0.94109 0.3831 0.83872 0.0
H40 H 0.90073 0.23941 0.7354 0.0
C41 C 0.86599 0.23934 0.38457 0.0
O42 O 0.8971 0.22342 0.38385 0.0
N43 N 0.95766 0.35843 0.34831 0.0
C44 C 0.96565 0.4006 0.28686 0.0
C45 C 0.96005 0.3947 0.13933 0.0
C46 C 0.95099 0.32894 0.23449 0.0
N47 N 0.94956 0.34908 0.10792 0.0
C48 C 0.9291 0.42128 0.5833 0.0
C49 C 0.82948 0.37702 0.62148 0.0
C50 C 0.85866 0.42693 0.65008 0.0
C51 C 0.90868 0.44904 0.62645 0.0
C52 C 0.85159 0.35018 0.5755 0.0
N53 N 0.90115 0.37236 0.55759 0.0
H54 H 0.96826 0.43944 0.57845 0.0
H55 H 0.82896 0.31122 0.56436 0.0
H56 H 0.97208 0.43302 0.34245 0.0
H57 H 0.94524 0.29279 0.24319 0.0
O58 O 0.9962 0.38502 0.62365 0.0
O59 O 0.98375 0.31236 0.56764 0.0
O60 O 0.87478 0.27755 0.45723 0.0
C61 C 1.01189 0.35473 0.62856 0.0
H62 H 0.91645 0.25128 0.01945 0.0
H63 H 0.96034 0.4208 0.06331 0.0
H64 H 0.79061 0.35861 0.64122 0.0
H65 H 0.93243 0.48747 0.64901 0.0
Co66 Co 0.61472 0.9284 0.87852 0.0
C67 C 0.59748 0.92034 0.18497 0.0
C68 C 0.65045 0.89958 0.131 0.0
C69 C 0.65321 0.90898 0.27809 0.0
N70 N 0.61578 0.90725 0.07311 0.0
N71 N 0.62036 0.92284 0.30962 0.0
H72 H 0.57247 0.93385 0.17197 0.0
H73 H 0.6758 0.89348 0.06861 0.0
C74 C 0.64112 0.85874 0.7178 0.0
O75 O 0.68815 0.88985 0.71708 0.0
N76 N 0.61371 0.95041 0.68156 0.0
C77 C 0.57952 0.9584 0.62012 0.0
C78 C 0.57983 0.95281 0.47259 0.0
C79 C 0.63652 0.94373 0.56774 0.0
N80 N 0.61496 0.94232 0.44117 0.0
C81 C 0.52229 0.92185 0.91655 0.0
C82 C 0.46694 0.82224 0.95476 0.0
C83 C 0.44621 0.85142 0.98337 0.0
C84 C 0.47411 0.90143 0.95971 0.0
C85 C 0.51588 0.84434 0.90876 0.0
N86 N 0.54326 0.8939 0.89084 0.0
H87 H 0.54329 0.96101 0.91169 0.0
H88 H 0.53222 0.82172 0.89762 0.0
H89 H 0.55354 0.96484 0.67571 0.0
H90 H 0.66693 0.93799 0.57644 0.0
O91 O 0.62566 0.98896 0.9569 0.0
O92 O 0.68587 0.9765 0.90088 0.0
O93 O 0.6117 0.86754 0.79046 0.0
C94 C 0.67164 1.00465 0.96181 0.0
H95 H 0.67964 0.9092 0.35267 0.0
H96 H 0.55402 0.9531 0.39657 0.0
H97 H 0.44648 0.78337 0.97453 0.0
H98 H 0.45944 0.92519 0.98228 0.0
Co99 Co 0.70075 0.60744 0.21172 0.0
C100 C 0.69155 0.5902 0.51816 0.0
C101 C 0.7653 0.64313 0.4642 0.0
C102 C 0.75867 0.6459 0.6113 0.0
N103 N 0.72295 0.60849 0.4063 0.0
N104 N 0.71195 0.61307 0.64282 0.0
H105 H 0.65302 0.5652 0.50514 0.0
H106 H 0.79675 0.66847 0.40183 0.0
C107 C 0.79683 0.63385 0.05113 0.0
O108 O 0.81275 0.68088 0.05045 0.0
N109 N 0.67773 0.60643 0.01476 0.0
C110 C 0.63554 0.57227 0.95331 0.0
C111 C 0.64144 0.57258 0.80578 0.0
C112 C 0.70723 0.62923 0.90095 0.0
N113 N 0.68707 0.60768 0.77437 0.0
C114 C 0.61486 0.51501 0.24967 0.0
C115 C 0.65912 0.45966 0.28792 0.0
C116 C 0.60921 0.43893 0.31652 0.0
C117 C 0.58709 0.46683 0.29283 0.0
C118 C 0.68596 0.5086 0.24191 0.0
N119 N 0.66378 0.53597 0.22398 0.0
H120 H 0.5967 0.53601 0.24483 0.0
H121 H 0.72492 0.52494 0.23078 0.0
H122 H 0.60311 0.54631 0.0089 0.0
H123 H 0.7434 0.65961 0.90965 0.0
O124 O 0.65113 0.61838 0.29009 0.0
O125 O 0.7238 0.67858 0.23412 0.0
O126 O 0.7586 0.60442 0.12369 0.0
C127 C 0.68143 0.66436 0.29502 0.0
H128 H 0.78488 0.67231 0.68589 0.0
H129 H 0.61532 0.54678 0.72974 0.0
H130 H 0.67752 0.4392 0.30771 0.0
H131 H 0.54867 0.45216 0.3154 0.0
Co132 Co 0.10783 0.69354 0.54527 0.0
C133 C 0.11588 0.68435 0.8517 0.0
C134 C 0.13665 0.75808 0.79778 0.0
C135 C 0.12725 0.75145 0.94488 0.0
N136 N 0.12897 0.71575 0.73986 0.0
N137 N 0.11339 0.70474 0.97637 0.0
H138 H 0.10237 0.64583 0.83867 0.0
H139 H 0.14274 0.78953 0.73542 0.0
C140 C 0.17749 0.7896 0.38462 0.0
O141 O 0.14637 0.80551 0.38396 0.0
N142 N 0.08583 0.67051 0.3483 0.0
C143 C 0.07784 0.62833 0.28683 0.0
C144 C 0.08343 0.63424 0.1393 0.0
C145 C 0.0925 0.7 0.2345 0.0
N146 N 0.09392 0.67986 0.10792 0.0
C147 C 0.11437 0.60765 0.58326 0.0
C148 C 0.21398 0.65191 0.6215 0.0
C149 C 0.1848 0.602 0.65009 0.0
C150 C 0.13479 0.57989 0.62642 0.0
C151 C 0.19189 0.67875 0.5755 0.0
N152 N 0.14233 0.65657 0.55757 0.0
H153 H 0.07521 0.58949 0.57839 0.0
H154 H 0.21451 0.71771 0.56437 0.0
H155 H 0.07142 0.59592 0.3424 0.0
H156 H 0.09824 0.73615 0.24323 0.0
O157 O 0.04727 0.64392 0.62362 0.0
O158 O 0.05973 0.71658 0.56763 0.0
O159 O 0.1687 0.75138 0.45723 0.0
C160 C 0.03158 0.67421 0.62852 0.0
H161 H 0.12703 0.77765 0.01948 0.0
H162 H 0.08314 0.60813 0.06325 0.0
H163 H 0.25285 0.67031 0.64127 0.0
H164 H 0.11103 0.54146 0.64898 0.0
Co165 Co 0.42876 0.10059 0.87866 0.0
C166 C 0.446 0.10865 0.1851 0.0
C167 C 0.39302 0.1294 0.13119 0.0
C168 C 0.39027 0.12 0.27828 0.0
N169 N 0.42769 0.12173 0.07326 0.0
N170 N 0.42312 0.10615 0.30977 0.0
H171 H 0.47102 0.09514 0.17206 0.0
H172 H 0.36767 0.13549 0.06883 0.0
C173 C 0.40234 0.17023 0.71801 0.0
O174 O 0.35531 0.13911 0.71735 0.0
N175 N 0.42978 0.07858 0.68168 0.0
C176 C 0.46397 0.0706 0.6202 0.0
C177 C 0.46366 0.07619 0.47267 0.0
C178 C 0.40696 0.08525 0.56789 0.0
N179 N 0.42852 0.08667 0.4413 0.0
C180 C 0.52119 0.10713 0.91662 0.0
C181 C 0.57654 0.20674 0.95487 0.0
C182 C 0.59727 0.17756 0.98344 0.0
C183 C 0.56937 0.12755 0.95977 0.0
C184 C 0.5276 0.18464 0.90888 0.0
N185 N 0.50023 0.13509 0.89095 0.0
H186 H 0.50019 0.06797 0.91175 0.0
H187 H 0.51127 0.20727 0.89777 0.0
H188 H 0.48996 0.06417 0.67576 0.0
H189 H 0.37655 0.09099 0.57662 0.0
O190 O 0.41782 0.04003 0.95701 0.0
O191 O 0.35761 0.05248 0.90104 0.0
O192 O 0.43177 0.16145 0.79063 0.0
C193 C 0.37184 0.02434 0.96193 0.0
H194 H 0.36383 0.11978 0.35289 0.0
H195 H 0.48948 0.0759 0.39663 0.0
H196 H 0.59701 0.24561 0.97465 0.0
H197 H 0.58404 0.10379 0.98231 0.0
Co198 Co 0.62672 0.73521 0.45933 0.0
C199 C 0.61513 0.72544 0.14736 0.0
C200 C 0.66643 0.79897 0.20895 0.0
C201 C 0.67328 0.79305 0.06438 0.0
N202 N 0.63025 0.75642 0.2613 0.0
N203 N 0.64172 0.74645 0.02859 0.0
H204 H 0.58836 0.6871 0.15478 0.0
H205 H 0.69007 0.83021 0.27477 0.0
C206 C 0.62042 0.81245 0.63352 0.0
O207 O 0.57702 0.77779 0.67215 0.0
N208 N 0.62938 0.71529 0.65684 0.0
C209 C 0.60905 0.67034 0.71648 0.0
C210 C 0.6131 0.67541 0.86554 0.0
C211 C 0.6512 0.74624 0.76793 0.0
N212 N 0.63903 0.72343 0.89566 0.0
C213 C 0.53336 0.71872 0.34773 0.0
C214 C 0.48082 0.64011 0.52608 0.0
C215 C 0.46423 0.6383 0.38471 0.0
C216 C 0.48852 0.68023 0.29956 0.0
C217 C 0.52621 0.67875 0.56685 0.0
N218 N 0.55564 0.71315 0.46794 0.0
H219 H 0.55221 0.75 0.27785 0.0
H220 H 0.53787 0.67898 0.67579 0.0
H221 H 0.58823 0.63655 0.65764 0.0
H222 H 0.67405 0.78512 0.75784 0.0
O223 O 0.61781 0.67457 0.38893 0.0
O224 O 0.6905 0.73912 0.41888 0.0
O225 O 0.64533 0.80363 0.53888 0.0
C226 C 0.66427 0.69442 0.37062 0.0
H227 H 0.70155 0.81966 0.99484 0.0
H228 H 0.59605 0.64647 0.9446 0.0
H229 H 0.46152 0.6095 0.59895 0.0
H230 H 0.47581 0.68129 0.19145 0.0
Co231 Co 0.90601 0.6195 0.79274 0.0
C232 C 0.9042 0.60791 0.48077 0.0
C233 C 0.88195 0.65919 0.54239 0.0
C234 C 0.89471 0.66604 0.39782 0.0
N235 N 0.88833 0.62302 0.59472 0.0
N236 N 0.90977 0.63449 0.36202 0.0
H237 H 0.91577 0.58114 0.48818 0.0
H238 H 0.87434 0.68282 0.60822 0.0
C239 C 0.82245 0.61317 0.96689 0.0
O240 O 0.81372 0.56978 1.00551 0.0
N241 N 0.92858 0.62216 0.99025 0.0
C242 C 0.95322 0.60184 0.04988 0.0
C243 C 0.9522 0.60589 0.19894 0.0
C244 C 0.91944 0.64396 0.10135 0.0
N245 N 0.93009 0.6318 0.22907 0.0
C246 C 0.82913 0.52613 0.6811 0.0
C247 C 0.85521 0.47359 0.8594 0.0
C248 C 0.84042 0.457 0.71803 0.0
C249 C 0.82278 0.48129 0.63291 0.0
C250 C 0.86197 0.51898 0.9002 0.0
N251 N 0.857 0.54842 0.80131 0.0
H252 H 0.8167 0.54498 0.61124 0.0
H253 H 0.87341 0.53064 0.00914 0.0
H254 H 0.96621 0.58104 0.99102 0.0
H255 H 0.9034 0.6668 0.09128 0.0
O256 O 0.95774 0.61059 0.72235 0.0
O257 O 0.96587 0.68327 0.75233 0.0
O258 O 0.85619 0.63808 0.87228 0.0
C259 C 0.98435 0.65705 0.70407 0.0
H260 H 0.89637 0.69431 0.32829 0.0
H261 H 0.96411 0.58886 0.27799 0.0
H262 H 0.86653 0.4543 0.93225 0.0
H263 H 0.80901 0.46858 0.5248 0.0
Co264 Co 0.301 0.89878 0.12618 0.0
C265 C 0.31078 0.89696 0.81421 0.0
C266 C 0.23724 0.87471 0.87583 0.0
C267 C 0.24315 0.88748 0.73127 0.0
N268 N 0.27979 0.88109 0.92816 0.0
N269 N 0.28976 0.90253 0.69546 0.0
H270 H 0.34911 0.90853 0.82162 0.0
H271 H 0.206 0.8671 0.94166 0.0
C272 C 0.22378 0.81522 0.30035 0.0
O273 O 0.25845 0.8065 0.33896 0.0
N274 N 0.32091 0.92135 0.32371 0.0
C275 C 0.36587 0.94599 0.38334 0.0
C276 C 0.3608 0.94497 0.5324 0.0
C277 C 0.28996 0.91221 0.43481 0.0
N278 N 0.31277 0.92286 0.56253 0.0
C279 C 0.31748 0.82189 0.01453 0.0
C280 C 0.39612 0.84799 0.19274 0.0
C281 C 0.3979 0.83319 0.05137 0.0
C282 C 0.35596 0.81554 0.96629 0.0
C283 C 0.3575 0.85476 0.23358 0.0
N284 N 0.32308 0.84977 0.13473 0.0
H285 H 0.28619 0.80946 0.9447 0.0
H286 H 0.35729 0.86621 0.34252 0.0
H287 H 0.39966 0.95898 0.32448 0.0
H288 H 0.25108 0.89617 0.42473 0.0
O289 O 0.36163 0.95051 0.05579 0.0
O290 O 0.29708 0.95863 0.08579 0.0
O291 O 0.23259 0.84894 0.20573 0.0
C292 C 0.34178 0.97711 0.03751 0.0
H293 H 0.21654 0.88914 0.66175 0.0
H294 H 0.38974 0.95688 0.61145 0.0
H295 H 0.42675 0.85932 0.26556 0.0
H296 H 0.35488 0.80175 0.85818 0.0
Co297 Co 0.41667 0.29373 0.45956 0.0
C298 C 0.42826 0.3035 0.14758 0.0
C299 C 0.37697 0.22997 0.20918 0.0
C300 C 0.37011 0.23588 0.06463 0.0
N301 N 0.41315 0.27251 0.26152 0.0
N302 N 0.40167 0.28248 0.02883 0.0
H303 H 0.45503 0.34183 0.15501 0.0
H304 H 0.35333 0.19873 0.27501 0.0
C305 C 0.42302 0.21652 0.63372 0.0
O306 O 0.46641 0.2512 0.67234 0.0
N307 N 0.41401 0.31364 0.65709 0.0
C308 C 0.43432 0.35859 0.71675 0.0
C309 C 0.43027 0.35352 0.86581 0.0
C310 C 0.3922 0.28269 0.76818 0.0
N311 N 0.40436 0.3055 0.89591 0.0
C312 C 0.51003 0.31019 0.34788 0.0
C313 C 0.56258 0.38888 0.52596 0.0
C314 C 0.57914 0.39064 0.38457 0.0
C315 C 0.55485 0.34868 0.29957 0.0
C316 C 0.51719 0.35025 0.56688 0.0
N317 N 0.48775 0.3158 0.46808 0.0
H318 H 0.49117 0.27889 0.2781 0.0
H319 H 0.50555 0.35006 0.67582 0.0
H320 H 0.45513 0.39238 0.65791 0.0
H321 H 0.36935 0.24381 0.75808 0.0
O322 O 0.42557 0.35435 0.38918 0.0
O323 O 0.35289 0.2898 0.41917 0.0
O324 O 0.3981 0.22532 0.5391 0.0
C325 C 0.37911 0.3345 0.3709 0.0
H326 H 0.34184 0.20927 0.9951 0.0
H327 H 0.44731 0.38246 0.94487 0.0
H328 H 0.58187 0.41952 0.59873 0.0
H329 H 0.56754 0.34758 0.19145 0.0
Co330 Co 0.13743 0.40944 0.79285 0.0
C331 C 0.13926 0.42104 0.48087 0.0
C332 C 0.16149 0.36974 0.54245 0.0
C333 C 0.14872 0.36288 0.39789 0.0
N334 N 0.15513 0.40592 0.59481 0.0
N335 N 0.13368 0.39445 0.36212 0.0
H336 H 0.1277 0.44781 0.48832 0.0
H337 H 0.16908 0.34609 0.60826 0.0
C338 C 0.22098 0.41576 0.96702 0.0
O339 O 0.2297 0.45915 1.00565 0.0
N340 N 0.11486 0.40678 0.99038 0.0
C341 C 0.09023 0.42711 0.05005 0.0
C342 C 0.09126 0.42306 0.19911 0.0
C343 C 0.12399 0.38496 0.10146 0.0
N344 N 0.11335 0.39713 0.2292 0.0
C345 C 0.21433 0.5028 0.68122 0.0
C346 C 0.18823 0.55535 0.85944 0.0
C347 C 0.20303 0.57193 0.71807 0.0
C348 C 0.22068 0.54763 0.63299 0.0
C349 C 0.18146 0.50996 0.90028 0.0
N350 N 0.18645 0.48052 0.80142 0.0
H351 H 0.22677 0.48395 0.61138 0.0
H352 H 0.17002 0.49831 0.00922 0.0
H353 H 0.07726 0.44792 0.99122 0.0
H354 H 0.14002 0.36211 0.09135 0.0
O355 O 0.08571 0.41834 0.72248 0.0
O356 O 0.07758 0.34566 0.75243 0.0
O357 O 0.18726 0.39085 0.87238 0.0
C358 C 0.05911 0.37189 0.70416 0.0
H359 H 0.14704 0.3346 0.32835 0.0
H360 H 0.07937 0.44011 0.27818 0.0
H361 H 0.17689 0.57464 0.93227 0.0
H362 H 0.23446 0.56033 0.52487 0.0
Co363 Co 0.74248 0.1302 0.1261 0.0
C364 C 0.7327 0.13202 0.81413 0.0
C365 C 0.80623 0.15426 0.8757 0.0
C366 C 0.80032 0.14149 0.73114 0.0
N367 N 0.76369 0.14789 0.92807 0.0
N368 N 0.75372 0.12644 0.69537 0.0
H369 H 0.69437 0.12046 0.82157 0.0
H370 H 0.83747 0.16185 0.94151 0.0
C371 C 0.8197 0.21375 0.30028 0.0
O372 O 0.78503 0.22247 0.33892 0.0
N373 N 0.72256 0.10762 0.32363 0.0
C374 C 0.67761 0.08299 0.38329 0.0
C375 C 0.68268 0.08402 0.53235 0.0
C376 C 0.75351 0.11676 0.4347 0.0
N377 N 0.7307 0.10612 0.56244 0.0
C378 C 0.726 0.20709 0.0145 0.0
C379 C 0.64736 0.18099 0.19277 0.0
C380 C 0.64558 0.19579 0.0514 0.0
C381 C 0.68752 0.21344 0.96631 0.0
C382 C 0.68599 0.17422 0.23358 0.0
N383 N 0.72041 0.17921 0.1347 0.0
H384 H 0.75729 0.21952 0.94465 0.0
H385 H 0.6862 0.16278 0.34251 0.0
H386 H 0.64382 0.07001 0.32446 0.0
H387 H 0.79239 0.13279 0.4246 0.0
O388 O 0.68184 0.07847 0.05572 0.0
O389 O 0.7464 0.07034 0.08566 0.0
O390 O 0.81089 0.18002 0.20563 0.0
C391 C 0.7017 0.05187 0.0374 0.0
H392 H 0.82693 0.13981 0.6616 0.0
H393 H 0.65374 0.07212 0.61142 0.0
H394 H 0.61674 0.16966 0.26561 0.0
H395 H 0.6886 0.22722 0.8582 0.0
loop_
_geom_bond_atom_site_label_1
_geom_bond_atom_site_label_2
_geom_bond_distance
_geom_bond_site_symmetry_2
_ccdc_geom_bond_type
Co0 N4 2.148 . S
Co0 N10 2.128 . S
Co0 N20 2.194 . S
Co0 O25 2.351 . S
Co0 O26 2.155 . S
Co0 O27 2.096 . S
C1 N4 1.301 . S
C1 N5 1.328 . S
C1 H6 0.930 . S
C2 C3 1.333 . S
C2 N4 1.317 . S
C2 H7 0.930 . S
C3 C2 1.333 . S
C3 N5 1.350 . S
C3 H29 0.931 . S
N4 Co0 2.148 . S
N4 C1 1.301 . S
N4 C2 1.317 . S
N5 C1 1.328 . S
N5 C3 1.350 . S
H6 C1 0.930 . S
H7 C2 0.930 . S
C8 O9 1.224 . S
C8 O27 1.247 . S
O9 C8 1.224 . S
N10 Co0 2.128 . S
N10 C11 1.355 1_554 S
N10 C13 1.311 1_554 S
C11 N10 1.355 1_556 S
C11 C12 1.363 . S
C11 H23 0.929 1_556 S
C12 C11 1.363 . S
C12 N14 1.375 . S
C12 H30 0.931 . S
C13 N10 1.311 1_556 S
C13 N14 1.347 . S
C13 H24 0.929 . S
N14 C12 1.375 . S
N14 C13 1.347 . S
C15 C18 1.365 . S
C15 N20 1.328 . S
C15 H21 0.929 . S
C16 C17 1.362 . S
C16 C19 1.378 . S
C16 H31 0.929 . S
C17 C16 1.362 . S
C17 C18 1.366 . S
C18 C15 1.365 . S
C18 C17 1.366 . S
C18 H32 0.930 . S
C19 C16 1.378 . S
C19 N20 1.315 . S
C19 H22 0.930 . S
N20 Co0 2.194 . S
N20 C15 1.328 . S
N20 C19 1.315 . S
H21 C15 0.929 . S
H22 C19 0.930 . S
H23 C11 0.929 1_554 S
H24 C13 0.929 . S
O25 Co0 2.351 . S
O25 C28 1.244 . S
O26 Co0 2.155 . S
O26 C28 1.240 . S
O27 Co0 2.096 . S
O27 C8 1.247 . S
C28 O25 1.244 . S
C28 O26 1.240 . S
H29 C3 0.931 . S
H30 C12 0.931 . S
H31 C16 0.929 . S
H32 C18 0.930 . S
Co33 N37 2.148 . S
Co33 N43 2.128 . S
Co33 N53 2.194 . S
Co33 O58 2.351 . S
Co33 O59 2.155 . S
Co33 O60 2.096 . S
C34 N37 1.301 . S
C34 N38 1.328 1_556 S
C34 H39 0.930 . S
C35 C36 1.333 . S
C35 N37 1.317 . S
C35 H40 0.930 . S
C36 C35 1.333 . S
C36 N38 1.350 1_556 S
C36 H62 0.931 1_556 S
N37 Co33 2.148 . S
N37 C34 1.301 . S
N37 C35 1.317 . S
N38 C34 1.328 1_554 S
N38 C36 1.350 1_554 S
H39 C34 0.930 . S
H40 C35 0.930 . S
C41 O42 1.224 . S
C41 O60 1.247 . S
O42 C41 1.224 . S
N43 Co33 2.128 . S
N43 C44 1.355 . S
N43 C46 1.311 . S
C44 N43 1.355 . S
C44 C45 1.363 . S
C44 H56 0.929 . S
C45 C44 1.363 . S
C45 N47 1.375 . S
C45 H63 0.931 . S
C46 N43 1.311 . S
C46 N47 1.347 . S
C46 H57 0.929 . S
N47 C45 1.375 . S
N47 C46 1.347 . S
C48 C51 1.365 . S
C48 N53 1.328 . S
C48 H54 0.929 . S
C49 C50 1.362 . S
C49 C52 1.378 . S
C49 H64 0.929 . S
C50 C49 1.362 . S
C50 C51 1.366 . S
C51 C48 1.365 . S
C51 C50 1.366 . S
C51 H65 0.930 . S
C52 C49 1.378 . S
C52 N53 1.315 . S
C52 H55 0.930 . S
N53 Co33 2.194 . S
N53 C48 1.328 . S
N53 C52 1.315 . S
H54 C48 0.929 . S
H55 C52 0.930 . S
H56 C44 0.929 . S
H57 C46 0.929 . S
O58 Co33 2.351 . S
O58 C61 1.244 . S
O59 Co33 2.155 . S
O59 C61 1.240 . S
O60 Co33 2.096 . S
O60 C41 1.247 . S
C61 O58 1.244 . S
C61 O59 1.240 . S
H62 C36 0.931 1_554 S
H63 C45 0.931 . S
H64 C49 0.929 . S
H65 C51 0.930 . S
Co66 N70 2.148 1_556 S
Co66 N76 2.128 . S
Co66 N86 2.194 . S
Co66 O91 2.351 . S
Co66 O92 2.155 . S
Co66 O93 2.096 . S
C67 N70 1.301 . S
C67 N71 1.328 . S
C67 H72 0.930 . S
C68 C69 1.333 . S
C68 N70 1.317 . S
C68 H73 0.930 . S
C69 C68 1.333 . S
C69 N71 1.350 . S
C69 H95 0.931 . S
N70 Co66 2.148 1_554 S
N70 C67 1.301 . S
N70 C68 1.317 . S
N71 C67 1.328 . S
N71 C69 1.350 . S
H72 C67 0.930 . S
H73 C68 0.930 . S
C74 O75 1.224 . S
C74 O93 1.247 . S
O75 C74 1.224 . S
N76 Co66 2.128 . S
N76 C77 1.355 . S
N76 C79 1.311 . S
C77 N76 1.355 . S
C77 C78 1.363 . S
C77 H89 0.929 . S
C78 C77 1.363 . S
C78 N80 1.375 . S
C78 H96 0.931 . S
C79 N76 1.311 . S
C79 N80 1.347 . S
C79 H90 0.929 . S
N80 C78 1.375 . S
N80 C79 1.347 . S
C81 C84 1.365 . S
C81 N86 1.328 1_554 S
C81 H87 0.929 . S
C82 C83 1.362 . S
C82 C85 1.378 . S
C82 H97 0.929 . S
C83 C82 1.362 . S
C83 C84 1.366 1_556 S
C84 C81 1.365 . S
C84 C83 1.366 1_554 S
C84 H98 0.930 . S
C85 C82 1.378 . S
C85 N86 1.315 . S
C85 H88 0.930 . S
N86 Co66 2.194 . S
N86 C81 1.328 1_556 S
N86 C85 1.315 . S
H87 C81 0.929 . S
H88 C85 0.930 . S
H89 C77 0.929 . S
H90 C79 0.929 . S
O91 Co66 2.351 . S
O91 C94 1.244 . S
O92 Co66 2.155 . S
O92 C94 1.240 . S
O93 Co66 2.096 . S
O93 C74 1.247 . S
C94 O91 1.244 . S
C94 O92 1.240 . S
H95 C69 0.931 . S
H96 C78 0.931 . S
H97 C82 0.929 . S
H98 C84 0.930 . S
Co99 N103 2.148 . S
Co99 N109 2.128 . S
Co99 N119 2.194 . S
Co99 O124 2.351 . S
Co99 O125 2.155 . S
Co99 O126 2.096 . S
C100 N103 1.301 . S
C100 N104 1.328 . S
C100 H105 0.930 . S
C101 C102 1.333 . S
C101 N103 1.317 . S
C101 H106 0.930 . S
C102 C101 1.333 . S
C102 N104 1.350 . S
C102 H128 0.931 . S
N103 Co99 2.148 . S
N103 C100 1.301 . S
N103 C101 1.317 . S
N104 C100 1.328 . S
N104 C102 1.350 . S
H105 C100 0.930 . S
H106 C101 0.930 . S
C107 O108 1.224 . S
C107 O126 1.247 . S
O108 C107 1.224 . S
N109 Co99 2.128 . S
N109 C110 1.355 1_554 S
N109 C112 1.311 1_554 S
C110 N109 1.355 1_556 S
C110 C111 1.363 . S
C110 H122 0.929 1_556 S
C111 C110 1.363 . S
C111 N113 1.375 . S
C111 H129 0.931 . S
C112 N109 1.311 1_556 S
C112 N113 1.347 . S
C112 H123 0.929 . S
N113 C111 1.375 . S
N113 C112 1.347 . S
C114 C117 1.365 . S
C114 N119 1.328 . S
C114 H120 0.929 . S
C115 C116 1.362 . S
C115 C118 1.378 . S
C115 H130 0.929 . S
C116 C115 1.362 . S
C116 C117 1.366 . S
C117 C114 1.365 . S
C117 C116 1.366 . S
C117 H131 0.930 . S
C118 C115 1.378 . S
C118 N119 1.315 . S
C118 H121 0.930 . S
N119 Co99 2.194 . S
N119 C114 1.328 . S
N119 C118 1.315 . S
H120 C114 0.929 . S
H121 C118 0.930 . S
H122 C110 0.929 1_554 S
H123 C112 0.929 . S
O124 Co99 2.351 . S
O124 C127 1.244 . S
O125 Co99 2.155 . S
O125 C127 1.240 . S
O126 Co99 2.096 . S
O126 C107 1.247 . S
C127 O124 1.244 . S
C127 O125 1.240 . S
H128 C102 0.931 . S
H129 C111 0.931 . S
H130 C115 0.929 . S
H131 C117 0.930 . S
Co132 N136 2.148 . S
Co132 N142 2.128 . S
Co132 N152 2.194 . S
Co132 O157 2.351 . S
Co132 O158 2.155 . S
Co132 O159 2.096 . S
C133 N136 1.301 . S
C133 N137 1.328 1_556 S
C133 H138 0.930 . S
C134 C135 1.333 . S
C134 N136 1.317 . S
C134 H139 0.930 . S
C135 C134 1.333 . S
C135 N137 1.350 1_556 S
C135 H161 0.931 1_556 S
N136 Co132 2.148 . S
N136 C133 1.301 . S
N136 C134 1.317 . S
N137 C133 1.328 1_554 S
N137 C135 1.350 1_554 S
H138 C133 0.930 . S
H139 C134 0.930 . S
C140 O141 1.224 . S
C140 O159 1.247 . S
O141 C140 1.224 . S
N142 Co132 2.128 . S
N142 C143 1.355 . S
N142 C145 1.311 . S
C143 N142 1.355 . S
C143 C144 1.363 . S
C143 H155 0.929 . S
C144 C143 1.363 . S
C144 N146 1.375 . S
C144 H162 0.931 . S
C145 N142 1.311 . S
C145 N146 1.347 . S
C145 H156 0.929 . S
N146 C144 1.375 . S
N146 C145 1.347 . S
C147 C150 1.365 . S
C147 N152 1.328 . S
C147 H153 0.929 . S
C148 C149 1.362 . S
C148 C151 1.378 . S
C148 H163 0.929 . S
C149 C148 1.362 . S
C149 C150 1.366 . S
C150 C147 1.365 . S
C150 C149 1.366 . S
C150 H164 0.930 . S
C151 C148 1.378 . S
C151 N152 1.315 . S
C151 H154 0.930 . S
N152 Co132 2.194 . S
N152 C147 1.328 . S
N152 C151 1.315 . S
H153 C147 0.929 . S
H154 C151 0.930 . S
H155 C143 0.929 . S
H156 C145 0.929 . S
O157 Co132 2.351 . S
O157 C160 1.244 . S
O158 Co132 2.155 . S
O158 C160 1.240 . S
O159 Co132 2.096 . S
O159 C140 1.247 . S
C160 O157 1.244 . S
C160 O158 1.240 . S
H161 C135 0.931 1_554 S
H162 C144 0.931 . S
H163 C148 0.929 . S
H164 C150 0.930 . S
Co165 N169 2.148 1_556 S
Co165 N175 2.128 . S
Co165 N185 2.194 . S
Co165 O190 2.351 . S
Co165 O191 2.155 . S
Co165 O192 2.096 . S
C166 N169 1.301 . S
C166 N170 1.328 . S
C166 H171 0.930 . S
C167 C168 1.333 . S
C167 N169 1.317 . S
C167 H172 0.930 . S
C168 C167 1.333 . S
C168 N170 1.350 . S
C168 H194 0.931 . S
N169 Co165 2.148 1_554 S
N169 C166 1.301 . S
N169 C167 1.317 . S
N170 C166 1.328 . S
N170 C168 1.350 . S
H171 C166 0.930 . S
H172 C167 0.930 . S
C173 O174 1.224 . S
C173 O192 1.247 . S
O174 C173 1.224 . S
N175 Co165 2.128 . S
N175 C176 1.355 . S
N175 C178 1.311 . S
C176 N175 1.355 . S
C176 C177 1.363 . S
C176 H188 0.929 . S
C177 C176 1.363 . S
C177 N179 1.375 . S
C177 H195 0.931 . S
C178 N175 1.311 . S
C178 N179 1.347 . S
C178 H189 0.929 . S
N179 C177 1.375 . S
N179 C178 1.347 . S
C180 C183 1.365 . S
C180 N185 1.328 1_554 S
C180 H186 0.929 . S
C181 C182 1.362 . S
C181 C184 1.378 . S
C181 H196 0.929 . S
C182 C181 1.362 . S
C182 C183 1.366 1_556 S
C183 C180 1.365 . S
C183 C182 1.366 1_554 S
C183 H197 0.930 . S
C184 C181 1.378 . S
C184 N185 1.315 . S
C184 H187 0.930 . S
N185 Co165 2.194 . S
N185 C180 1.328 1_556 S
N185 C184 1.315 . S
H186 C180 0.929 . S
H187 C184 0.930 . S
H188 C176 0.929 . S
H189 C178 0.929 . S
O190 Co165 2.351 . S
O190 C193 1.244 . S
O191 Co165 2.155 . S
O191 C193 1.240 . S
O192 Co165 2.096 . S
O192 C173 1.247 . S
C193 O190 1.244 . S
C193 O191 1.240 . S
H194 C168 0.931 . S
H195 C177 0.931 . S
H196 C181 0.929 . S
H197 C183 0.930 . S
Co198 N202 2.148 . S
Co198 N208 2.128 . S
Co198 N218 2.194 . S
Co198 O223 2.351 . S
Co198 O224 2.155 . S
Co198 O225 2.096 . S
C199 N202 1.301 . S
C199 N203 1.328 1_554 S
C199 H204 0.930 . S
C200 C201 1.333 . S
C200 N202 1.317 . S
C200 H205 0.930 . S
C201 C200 1.333 . S
C201 N203 1.350 1_554 S
C201 H227 0.931 1_554 S
N202 Co198 2.148 . S
N202 C199 1.301 . S
N202 C200 1.317 . S
N203 C199 1.328 1_556 S
N203 C201 1.350 1_556 S
H204 C199 0.930 . S
H205 C200 0.930 . S
C206 O207 1.224 . S
C206 O225 1.247 . S
O207 C206 1.224 . S
N208 Co198 2.128 . S
N208 C209 1.355 . S
N208 C211 1.311 . S
C209 N208 1.355 . S
C209 C210 1.363 . S
C209 H221 0.929 . S
C210 C209 1.363 . S
C210 N212 1.375 . S
C210 H228 0.931 . S
C211 N208 1.311 . S
C211 N212 1.347 . S
C211 H222 0.929 . S
N212 C210 1.375 . S
N212 C211 1.347 . S
C213 C216 1.365 . S
C213 N218 1.328 . S
C213 H219 0.929 . S
C214 C215 1.362 . S
C214 C217 1.378 . S
C214 H229 0.929 . S
C215 C214 1.362 . S
C215 C216 1.366 . S
C216 C213 1.365 . S
C216 C215 1.366 . S
C216 H230 0.930 . S
C217 C214 1.378 . S
C217 N218 1.315 . S
C217 H220 0.930 . S
N218 Co198 2.194 . S
N218 C213 1.328 . S
N218 C217 1.315 . S
H219 C213 0.929 . S
H220 C217 0.930 . S
H221 C209 0.929 . S
H222 C211 0.929 . S
O223 Co198 2.351 . S
O223 C226 1.244 . S
O224 Co198 2.155 . S
O224 C226 1.240 . S
O225 Co198 2.096 . S
O225 C206 1.247 . S
C226 O223 1.244 . S
C226 O224 1.240 . S
H227 C201 0.931 1_556 S
H228 C210 0.931 . S
H229 C214 0.929 . S
H230 C216 0.930 . S
Co231 N235 2.148 . S
Co231 N241 2.128 . S
Co231 N251 2.194 . S
Co231 O256 2.351 . S
Co231 O257 2.155 . S
Co231 O258 2.096 . S
C232 N235 1.301 . S
C232 N236 1.328 . S
C232 H237 0.930 . S
C233 C234 1.333 . S
C233 N235 1.317 . S
C233 H238 0.930 . S
C234 C233 1.333 . S
C234 N236 1.350 . S
C234 H260 0.931 . S
N235 Co231 2.148 . S
N235 C232 1.301 . S
N235 C233 1.317 . S
N236 C232 1.328 . S
N236 C234 1.350 . S
H237 C232 0.930 . S
H238 C233 0.930 . S
C239 O240 1.224 . S
C239 O258 1.247 . S
O240 C239 1.224 . S
N241 Co231 2.128 . S
N241 C242 1.355 1_556 S
N241 C244 1.311 1_556 S
C242 N241 1.355 1_554 S
C242 C243 1.363 . S
C242 H254 0.929 1_554 S
C243 C242 1.363 . S
C243 N245 1.375 . S
C243 H261 0.931 . S
C244 N241 1.311 1_554 S
C244 N245 1.347 . S
C244 H255 0.929 . S
N245 C243 1.375 . S
N245 C244 1.347 . S
C246 C249 1.365 . S
C246 N251 1.328 . S
C246 H252 0.929 . S
C247 C248 1.362 . S
C247 C250 1.378 . S
C247 H262 0.929 . S
C248 C247 1.362 . S
C248 C249 1.366 . S
C249 C246 1.365 . S
C249 C248 1.366 . S
C249 H263 0.930 . S
C250 C247 1.378 . S
C250 N251 1.315 . S
C250 H253 0.930 . S
N251 Co231 2.194 . S
N251 C246 1.328 . S
N251 C250 1.315 . S
H252 C246 0.929 . S
H253 C250 0.930 . S
H254 C242 0.929 1_556 S
H255 C244 0.929 . S
O256 Co231 2.351 . S
O256 C259 1.244 . S
O257 Co231 2.155 . S
O257 C259 1.240 . S
O258 Co231 2.096 . S
O258 C239 1.247 . S
C259 O256 1.244 . S
C259 O257 1.240 . S
H260 C234 0.931 . S
H261 C243 0.931 . S
H262 C247 0.929 . S
H263 C249 0.930 . S
Co264 N268 2.148 1_554 S
Co264 N274 2.128 . S
Co264 N284 2.194 . S
Co264 O289 2.351 . S
Co264 O290 2.155 . S
Co264 O291 2.096 . S
C265 N268 1.301 . S
C265 N269 1.328 . S
C265 H270 0.930 . S
C266 C267 1.333 . S
C266 N268 1.317 . S
C266 H271 0.930 . S
C267 C266 1.333 . S
C267 N269 1.350 . S
C267 H293 0.931 . S
N268 Co264 2.148 1_556 S
N268 C265 1.301 . S
N268 C266 1.317 . S
N269 C265 1.328 . S
N269 C267 1.350 . S
H270 C265 0.930 . S
H271 C266 0.930 . S
C272 O273 1.224 . S
C272 O291 1.247 . S
O273 C272 1.224 . S
N274 Co264 2.128 . S
N274 C275 1.355 . S
N274 C277 1.311 . S
C275 N274 1.355 . S
C275 C276 1.363 . S
C275 H287 0.929 . S
C276 C275 1.363 . S
C276 N278 1.375 . S
C276 H294 0.931 . S
C277 N274 1.311 . S
C277 N278 1.347 . S
C277 H288 0.929 . S
N278 C276 1.375 . S
N278 C277 1.347 . S
C279 C282 1.365 . S
C279 N284 1.328 1_556 S
C279 H285 0.929 . S
C280 C281 1.362 . S
C280 C283 1.378 . S
C280 H295 0.929 . S
C281 C280 1.362 . S
C281 C282 1.366 1_554 S
C282 C279 1.365 . S
C282 C281 1.366 1_556 S
C282 H296 0.930 . S
C283 C280 1.378 . S
C283 N284 1.315 . S
C283 H286 0.930 . S
N284 Co264 2.194 . S
N284 C279 1.328 1_554 S
N284 C283 1.315 . S
H285 C279 0.929 . S
H286 C283 0.930 . S
H287 C275 0.929 . S
H288 C277 0.929 . S
O289 Co264 2.351 . S
O289 C292 1.244 . S
O290 Co264 2.155 . S
O290 C292 1.240 . S
O291 Co264 2.096 . S
O291 C272 1.247 . S
C292 O289 1.244 . S
C292 O290 1.240 . S
H293 C267 0.931 . S
H294 C276 0.931 . S
H295 C280 0.929 . S
H296 C282 0.930 . S
Co297 N301 2.148 . S
Co297 N307 2.128 . S
Co297 N317 2.194 . S
Co297 O322 2.351 . S
Co297 O323 2.155 . S
Co297 O324 2.096 . S
C298 N301 1.301 . S
C298 N302 1.328 1_554 S
C298 H303 0.930 . S
C299 C300 1.333 . S
C299 N301 1.317 . S
C299 H304 0.930 . S
C300 C299 1.333 . S
C300 N302 1.350 1_554 S
C300 H326 0.931 1_554 S
N301 Co297 2.148 . S
N301 C298 1.301 . S
N301 C299 1.317 . S
N302 C298 1.328 1_556 S
N302 C300 1.350 1_556 S
H303 C298 0.930 . S
H304 C299 0.930 . S
C305 O306 1.224 . S
C305 O324 1.247 . S
O306 C305 1.224 . S
N307 Co297 2.128 . S
N307 C308 1.355 . S
N307 C310 1.311 . S
C308 N307 1.355 . S
C308 C309 1.363 . S
C308 H320 0.929 . S
C309 C308 1.363 . S
C309 N311 1.375 . S
C309 H327 0.931 . S
C310 N307 1.311 . S
C310 N311 1.347 . S
C310 H321 0.929 . S
N311 C309 1.375 . S
N311 C310 1.347 . S
C312 C315 1.365 . S
C312 N317 1.328 . S
C312 H318 0.929 . S
C313 C314 1.362 . S
C313 C316 1.378 . S
C313 H328 0.929 . S
C314 C313 1.362 . S
C314 C315 1.366 . S
C315 C312 1.365 . S
C315 C314 1.366 . S
C315 H329 0.930 . S
C316 C313 1.378 . S
C316 N317 1.315 . S
C316 H319 0.930 . S
N317 Co297 2.194 . S
N317 C312 1.328 . S
N317 C316 1.315 . S
H318 C312 0.929 . S
H319 C316 0.930 . S
H320 C308 0.929 . S
H321 C310 0.929 . S
O322 Co297 2.351 . S
O322 C325 1.244 . S
O323 Co297 2.155 . S
O323 C325 1.240 . S
O324 Co297 2.096 . S
O324 C305 1.247 . S
C325 O322 1.244 . S
C325 O323 1.240 . S
H326 C300 0.931 1_556 S
H327 C309 0.931 . S
H328 C313 0.929 . S
H329 C315 0.930 . S
Co330 N334 2.148 . S
Co330 N340 2.128 . S
Co330 N350 2.194 . S
Co330 O355 2.351 . S
Co330 O356 2.155 . S
Co330 O357 2.096 . S
C331 N334 1.301 . S
C331 N335 1.328 . S
C331 H336 0.930 . S
C332 C333 1.333 . S
C332 N334 1.317 . S
C332 H337 0.930 . S
C333 C332 1.333 . S
C333 N335 1.350 . S
C333 H359 0.931 . S
N334 Co330 2.148 . S
N334 C331 1.301 . S
N334 C332 1.317 . S
N335 C331 1.328 . S
N335 C333 1.350 . S
H336 C331 0.930 . S
H337 C332 0.930 . S
C338 O339 1.224 . S
C338 O357 1.247 . S
O339 C338 1.224 . S
N340 Co330 2.128 . S
N340 C341 1.355 1_556 S
N340 C343 1.311 1_556 S
C341 N340 1.355 1_554 S
C341 C342 1.363 . S
C341 H353 0.929 1_554 S
C342 C341 1.363 . S
C342 N344 1.375 . S
C342 H360 0.931 . S
C343 N340 1.311 1_554 S
C343 N344 1.347 . S
C343 H354 0.929 . S
N344 C342 1.375 . S
N344 C343 1.347 . S
C345 C348 1.365 . S
C345 N350 1.328 . S
C345 H351 0.929 . S
C346 C347 1.362 . S
C346 C349 1.378 . S
C346 H361 0.929 . S
C347 C346 1.362 . S
C347 C348 1.366 . S
C348 C345 1.365 . S
C348 C347 1.366 . S
C348 H362 0.930 . S
C349 C346 1.378 . S
C349 N350 1.315 . S
C349 H352 0.930 . S
N350 Co330 2.194 . S
N350 C345 1.328 . S
N350 C349 1.315 . S
H351 C345 0.929 . S
H352 C349 0.930 . S
H353 C341 0.929 1_556 S
H354 C343 0.929 . S
O355 Co330 2.351 . S
O355 C358 1.244 . S
O356 Co330 2.155 . S
O356 C358 1.240 . S
O357 Co330 2.096 . S
O357 C338 1.247 . S
C358 O355 1.244 . S
C358 O356 1.240 . S
H359 C333 0.931 . S
H360 C342 0.931 . S
H361 C346 0.929 . S
H362 C348 0.930 . S
Co363 N367 2.148 1_554 S
Co363 N373 2.128 . S
Co363 N383 2.194 . S
Co363 O388 2.351 . S
Co363 O389 2.155 . S
Co363 O390 2.096 . S
C364 N367 1.301 . S
C364 N368 1.328 . S
C364 H369 0.930 . S
C365 C366 1.333 . S
C365 N367 1.317 . S
C365 H370 0.930 . S
C366 C365 1.333 . S
C366 N368 1.350 . S
C366 H392 0.931 . S
N367 Co363 2.148 1_556 S
N367 C364 1.301 . S
N367 C365 1.317 . S
N368 C364 1.328 . S
N368 C366 1.350 . S
H369 C364 0.930 . S
H370 C365 0.930 . S
C371 O372 1.224 . S
C371 O390 1.247 . S
O372 C371 1.224 . S
N373 Co363 2.128 . S
N373 C374 1.355 . S
N373 C376 1.311 . S
C374 N373 1.355 . S
C374 C375 1.363 . S
C374 H386 0.929 . S
C375 C374 1.363 . S
C375 N377 1.375 . S
C375 H393 0.931 . S
C376 N373 1.311 . S
C376 N377 1.347 . S
C376 H387 0.929 . S
N377 C375 1.375 . S
N377 C376 1.347 . S
C378 C381 1.365 . S
C378 N383 1.328 1_556 S
C378 H384 0.929 . S
C379 C380 1.362 . S
C379 C382 1.378 . S
C379 H394 0.929 . S
C380 C379 1.362 . S
C380 C381 1.366 1_554 S
C381 C378 1.365 . S
C381 C380 1.366 1_556 S
C381 H395 0.930 . S
C382 C379 1.378 . S
C382 N383 1.315 . S
C382 H385 0.930 . S
N383 Co363 2.194 . S
N383 C378 1.328 1_554 S
N383 C382 1.315 . S
H384 C378 0.929 . S
H385 C382 0.930 . S
H386 C374 0.929 . S
H387 C376 0.929 . S
O388 Co363 2.351 . S
O388 C391 1.244 . S
O389 Co363 2.155 . S
O389 C391 1.240 . S
O390 Co363 2.096 . S
O390 C371 1.247 . S
C391 O388 1.244 . S
C391 O389 1.240 . S
H392 C366 0.931 . S
H393 C375 0.931 . S
H394 C379 0.929 . S
H395 C381 0.930 . S
C8 C338 2.519 1_554 S
C371 C41 2.518 . S
C206 C74 2.518 . S
C239 C107 2.519 1_556 S
C140 C272 2.518 . S
C305 C173 2.519 . S
C215 C17 1.707 . S
C248 C50 1.707 . S
C83 C281 1.707 1_556 S
C116 C314 1.707 . S
C347 C149 1.707 . S
C380 C182 1.707 1_554 S
C28 C325 1.735 . S
C358 C61 1.735 1_455 S
C391 C94 1.735 1_544 S
C226 C127 1.735 . S
C160 C259 1.735 1_455 S
C193 C292 1.735 1_546 S
N5 N14 1.994 . S
N47 N38 1.994 . S
N71 N80 1.994 . S
N113 N104 1.994 . S
N146 N137 1.994 . S
N179 N170 1.994 . S
N203 N212 1.994 . S
N245 N236 1.994 . S
N278 N269 1.994 . S
N311 N302 1.994 . S
N335 N344 1.994 . S
N377 N368 1.994 . S
