# Generated by pormake.
# Topology ume, (4)-cn, num edge types: 1
# Building blocks:
#     Node 0, Type 0, BuildingBlock: ICAMEG_clean_sbu_1, # of connection points: 4
#     Node 1, Type 0, BuildingBlock: ICAMEG_clean_sbu_1, # of connection points: 4
#     Node 2, Type 0, BuildingBlock: ICAMEG_clean_sbu_1, # of connection points: 4
#     Node 3, Type 0, BuildingBlock: ICAMEG_clean_sbu_1, # of connection points: 4
#     Node 4, Type 0, BuildingBlock: ICAMEG_clean_sbu_1, # of connection points: 4
#     Node 5, Type 0, BuildingBlock: ICAMEG_clean_sbu_1, # of connection points: 4
#     Node 6, Type 0, BuildingBlock: ICAMEG_clean_sbu_1, # of connection points: 4
#     Node 7, Type 0, BuildingBlock: ICAMEG_clean_sbu_1, # of connection points: 4
#     Node 8, Type 0, BuildingBlock: ICAMEG_clean_sbu_1, # of connection points: 4
#     Node 9, Type 0, BuildingBlock: ICAMEG_clean_sbu_1, # of connection points: 4
#     Node 10, Type 0, BuildingBlock: ICAMEG_clean_sbu_1, # of connection points: 4
#     Node 11, Type 0, BuildingBlock: ICAMEG_clean_sbu_1, # of connection points: 4
#     Node 12, Type 0, BuildingBlock: ICAMEG_clean_sbu_1, # of connection points: 4
#     Node 13, Type 0, BuildingBlock: ICAMEG_clean_sbu_1, # of connection points: 4
#     Node 14, Type 0, BuildingBlock: ICAMEG_clean_sbu_1, # of connection points: 4
#     Node 15, Type 0, BuildingBlock: ICAMEG_clean_sbu_1, # of connection points: 4
#     Edge 16, Type (0, 0), BuildingBlock: UVAHIK_clean_linker_0, # of connection points: 2
#     Edge 17, Type (0, 0), BuildingBlock: UVAHIK_clean_linker_0, # of connection points: 2
#     Edge 18, Type (0, 0), BuildingBlock: UVAHIK_clean_linker_0, # of connection points: 2
#     Edge 19, Type (0, 0), BuildingBlock: UVAHIK_clean_linker_0, # of connection points: 2
#     Edge 20, Type (0, 0), BuildingBlock: UVAHIK_clean_linker_0, # of connection points: 2
#     Edge 21, Type (0, 0), BuildingBlock: UVAHIK_clean_linker_0, # of connection points: 2
#     Edge 22, Type (0, 0), BuildingBlock: UVAHIK_clean_linker_0, # of connection points: 2
#     Edge 23, Type (0, 0), BuildingBlock: UVAHIK_clean_linker_0, # of connection points: 2
#     Edge 24, Type (0, 0), BuildingBlock: UVAHIK_clean_linker_0, # of connection points: 2
#     Edge 25, Type (0, 0), BuildingBlock: UVAHIK_clean_linker_0, # of connection points: 2
#     Edge 26, Type (0, 0), BuildingBlock: UVAHIK_clean_linker_0, # of connection points: 2
#     Edge 27, Type (0, 0), BuildingBlock: UVAHIK_clean_linker_0, # of connection points: 2
#     Edge 28, Type (0, 0), BuildingBlock: UVAHIK_clean_linker_0, # of connection points: 2
#     Edge 29, Type (0, 0), BuildingBlock: UVAHIK_clean_linker_0, # of connection points: 2
#     Edge 30, Type (0, 0), BuildingBlock: UVAHIK_clean_linker_0, # of connection points: 2
#     Edge 31, Type (0, 0), BuildingBlock: UVAHIK_clean_linker_0, # of connection points: 2
#     Edge 32, Type (0, 0), BuildingBlock: UVAHIK_clean_linker_0, # of connection points: 2
#     Edge 33, Type (0, 0), BuildingBlock: UVAHIK_clean_linker_0, # of connection points: 2
#     Edge 34, Type (0, 0), BuildingBlock: UVAHIK_clean_linker_0, # of connection points: 2
#     Edge 35, Type (0, 0), BuildingBlock: UVAHIK_clean_linker_0, # of connection points: 2
#     Edge 36, Type (0, 0), BuildingBlock: UVAHIK_clean_linker_0, # of connection points: 2
#     Edge 37, Type (0, 0), BuildingBlock: UVAHIK_clean_linker_0, # of connection points: 2
#     Edge 38, Type (0, 0), BuildingBlock: UVAHIK_clean_linker_0, # of connection points: 2
#     Edge 39, Type (0, 0), BuildingBlock: UVAHIK_clean_linker_0, # of connection points: 2
#     Edge 40, Type (0, 0), BuildingBlock: UVAHIK_clean_linker_0, # of connection points: 2
#     Edge 41, Type (0, 0), BuildingBlock: UVAHIK_clean_linker_0, # of connection points: 2
#     Edge 42, Type (0, 0), BuildingBlock: UVAHIK_clean_linker_0, # of connection points: 2
#     Edge 43, Type (0, 0), BuildingBlock: UVAHIK_clean_linker_0, # of connection points: 2
#     Edge 44, Type (0, 0), BuildingBlock: UVAHIK_clean_linker_0, # of connection points: 2
#     Edge 45, Type (0, 0), BuildingBlock: UVAHIK_clean_linker_0, # of connection points: 2
#     Edge 46, Type (0, 0), BuildingBlock: UVAHIK_clean_linker_0, # of connection points: 2
#     Edge 47, Type (0, 0), BuildingBlock: UVAHIK_clean_linker_0, # of connection points: 2
# Relax obj value: 0.071
# Max RMSD: 0.098
# Mean RMSD: 0.098
data_MOF--net-ume--node1-ICAMEG_clean_sbu_1--edge1-UVAHIK_clean_linker_0
_symmetry_space_group_name_H-M    P1
_symmetry_Int_Tables_number       1
_symmetry_cell_setting            triclinic
loop_
_symmetry_equiv_pos_as_xyz
'x, y, z'
_cell_length_a     37.714073
_cell_length_b     37.719595
_cell_length_c     153.50867
_cell_angle_alpha  90.000924
_cell_angle_beta   89.961665
_cell_angle_gamma 89.993765
loop_
_atom_site_label
_atom_site_type_symbol
_atom_site_fract_x
_atom_site_fract_y
_atom_site_fract_z
_atom_type_partial_charge
Co0 Co 0.27441 0.11944 0.31313 0.0
Co1 Co 0.24237 0.04374 0.30339 0.0
O2 O 0.24028 0.08056 0.31229 0.0
C3 C 0.27554 0.08506 0.33024 0.0
O4 O 0.27744 0.05497 0.32599 0.0
C5 C 0.16817 0.06917 0.30197 0.0
O6 O 0.17955 0.10193 0.3012 0.0
O7 O 0.24466 0.08013 0.29406 0.0
O8 O 0.27513 0.12497 0.30016 0.0
H9 H 0.28867 0.98551 0.27623 0.0
H10 H 0.20788 0.12193 0.32341 0.0
O11 O 0.27441 0.11435 0.32612 0.0
H12 H 0.20479 0.22793 0.30462 0.0
H13 H 0.32488 0.23033 0.3265 0.0
H14 H 0.33929 0.14023 0.30349 0.0
H15 H 0.25573 0.18697 0.30412 0.0
H16 H 0.28201 0.18125 0.32507 0.0
O17 O 0.18988 0.04363 0.30276 0.0
H18 H 0.28656 0.03122 0.28771 0.0
H19 H 0.20033 0.97825 0.29987 0.0
H20 H 0.38262 0.18901 0.30462 0.0
H21 H 0.15652 0.16233 0.32417 0.0
H22 H 0.37553 0.2345 0.3162 0.0
H23 H 0.15475 0.21575 0.31472 0.0
O24 O 0.31515 0.08604 0.31245 0.0
H25 H 0.19401 0.98889 0.33077 0.0
H26 H 0.28355 0.97817 0.3075 0.0
H27 H 0.28193 0.93374 0.31927 0.0
H28 H 0.23687 0.9389 0.33101 0.0
H29 H 0.19689 0.03303 0.31894 0.0
H30 H 0.20134 0.93211 0.28849 0.0
H31 H 0.24584 0.9355 0.27658 0.0
O32 O 0.29491 0.04235 0.3039 0.0
C33 C 0.26109 0.10964 0.29359 0.0
C34 C 0.26923 0.98367 0.2814 0.0
C35 C 0.22019 0.95373 0.28828 0.0
N36 N 0.24356 0.00724 0.2945 0.0
C37 C 0.26797 0.00942 0.28794 0.0
C38 C 0.21971 0.97997 0.29469 0.0
C39 C 0.24517 0.95564 0.2816 0.0
C40 C 0.20742 0.14527 0.31933 0.0
N41 N 0.23484 0.15219 0.31377 0.0
C42 C 0.17822 0.16799 0.31977 0.0
C43 C 0.17721 0.19793 0.31445 0.0
C44 C 0.20527 0.20477 0.30878 0.0
C45 C 0.23401 0.18144 0.30851 0.0
C46 C 0.3282 0.21072 0.32142 0.0
C47 C 0.33592 0.16006 0.3085 0.0
C48 C 0.30406 0.18285 0.32059 0.0
N49 N 0.308 0.15812 0.31415 0.0
C50 C 0.36059 0.18756 0.30913 0.0
C51 C 0.35661 0.21305 0.31563 0.0
C52 C 0.31972 0.05787 0.30801 0.0
C53 C 0.21371 0.9863 0.32568 0.0
C54 C 0.264 0.98074 0.31261 0.0
C55 C 0.26313 0.95541 0.31924 0.0
C56 C 0.23781 0.9583 0.32582 0.0
N57 N 0.24032 0.00818 0.31252 0.0
C58 C 0.21537 0.01113 0.31894 0.0
Co59 Co 0.86795 0.76504 0.55522 0.0
Co60 Co 0.94341 0.7453 0.54348 0.0
O61 O 0.90851 0.73466 0.55251 0.0
C62 C 0.90534 0.75748 0.57192 0.0
O63 O 0.93455 0.76458 0.5676 0.0
C64 C 0.91947 0.67283 0.53934 0.0
O65 O 0.88663 0.68352 0.54043 0.0
O66 O 0.90526 0.75315 0.53479 0.0
O67 O 0.85946 0.77458 0.54256 0.0
H68 H 0.99472 0.81497 0.5186 0.0
H69 H 0.87136 0.69243 0.56255 0.0
O70 O 0.87573 0.75625 0.56794 0.0
H71 H 0.76204 0.69534 0.54496 0.0
H72 H 0.75732 0.79793 0.57171 0.0
H73 H 0.84166 0.83439 0.54884 0.0
H74 H 0.79979 0.74849 0.54623 0.0
H75 H 0.8083 0.75995 0.56791 0.0
O76 O 0.94512 0.69436 0.54024 0.0
H77 H 0.95131 0.80166 0.53017 0.0
H78 H 0.00963 0.70989 0.53736 0.0
H79 H 0.79088 0.87306 0.55237 0.0
H80 H 0.83426 0.63874 0.5615 0.0
H81 H 0.74828 0.85487 0.56389 0.0
H82 H 0.7792 0.63997 0.55263 0.0
O83 O 0.89888 0.80765 0.55599 0.0
H84 H 0.00441 0.6793 0.56763 0.0
H85 H 0.00824 0.78523 0.54883 0.0
H86 H 0.05455 0.7766 0.55996 0.0
H87 H 0.05283 0.7233 0.56945 0.0
H88 H 0.95842 0.68915 0.55648 0.0
H89 H 0.05353 0.72205 0.52582 0.0
H90 H 0.04629 0.775 0.51636 0.0
O91 O 0.94295 0.79638 0.54656 0.0
C92 C 0.87452 0.76706 0.53534 0.0
C93 C -0.00177 0.79188 0.52269 0.0
C94 C 0.03121 0.7397 0.52674 0.0
N95 N 0.97809 0.7552 0.53447 0.0
C96 C 0.97379 0.78426 0.52927 0.0
C97 C 0.00623 0.73291 0.53325 0.0
C98 C 0.02714 0.76942 0.52144 0.0
C99 C 0.84726 0.69326 0.55875 0.0
N100 N 0.83766 0.72359 0.55449 0.0
C101 C 0.82644 0.66274 0.55815 0.0
C102 C 0.79558 0.66343 0.55316 0.0
C103 C 0.78595 0.69449 0.54885 0.0
C104 C 0.80747 0.72447 0.54958 0.0
C105 C 0.77564 0.80611 0.56666 0.0
C106 C 0.82309 0.8262 0.55381 0.0
C107 C 0.80458 0.78474 0.5645 0.0
N108 N 0.82771 0.79481 0.5581 0.0
C109 C 0.79445 0.84825 0.55581 0.0
C110 C 0.77058 0.83805 0.56227 0.0
C111 C 0.92656 0.81682 0.55179 0.0
C112 C 0.0055 0.70258 0.56352 0.0
C113 C 0.00723 0.76202 0.55295 0.0
C114 C 0.03359 0.75723 0.55923 0.0
C115 C 0.03263 0.72731 0.56455 0.0
N116 N 0.98069 0.73767 0.55199 0.0
C117 C 0.97962 0.70822 0.55717 0.0
Co118 Co 0.22623 0.37846 0.81314 0.0
Co119 Co 0.24519 0.45842 0.80342 0.0
O120 O 0.25419 0.4219 0.81212 0.0
C121 C 0.22268 0.41085 0.83051 0.0
O122 O 0.21415 0.44037 0.82649 0.0
C123 C 0.32149 0.44391 0.80082 0.0
O124 O 0.31419 0.40997 0.80018 0.0
O125 O 0.24653 0.42256 0.79394 0.0
O126 O 0.22359 0.37366 0.80016 0.0
H127 H 0.18636 0.51045 0.77699 0.0
H128 H 0.29449 0.38492 0.82258 0.0
O129 O 0.22837 0.38271 0.82613 0.0
H130 H 0.30879 0.28166 0.80319 0.0
H131 H 0.19513 0.26062 0.8265 0.0
H132 H 0.16306 0.34909 0.8042 0.0
H133 H 0.2525 0.31493 0.80353 0.0
H134 H 0.23014 0.31547 0.82481 0.0
O135 O 0.29697 0.46633 0.80218 0.0
H136 H 0.19714 0.46497 0.78822 0.0
H137 H 0.27623 0.52971 0.79982 0.0
H138 H 0.1275 0.29448 0.8056 0.0
H139 H 0.35115 0.35223 0.82251 0.0
H140 H 0.1435 0.2498 0.81682 0.0
H141 H 0.35858 0.30023 0.81275 0.0
O142 O 0.18093 0.40565 0.81312 0.0
H143 H 0.28921 0.51773 0.83065 0.0
H144 H 0.19542 0.51677 0.80828 0.0
H145 H 0.19225 0.55995 0.82032 0.0
H146 H 0.23939 0.56063 0.83161 0.0
H147 H 0.29119 0.47478 0.81854 0.0
H148 H 0.26649 0.57578 0.78868 0.0
H149 H 0.22118 0.56635 0.77717 0.0
O150 O 0.19323 0.45192 0.80447 0.0
C151 C 0.23421 0.3911 0.79352 0.0
C152 C 0.20609 0.51493 0.78198 0.0
C153 C 0.25109 0.55158 0.78854 0.0
N154 N 0.23704 0.49482 0.79472 0.0
C155 C 0.21224 0.48932 0.78838 0.0
C156 C 0.25653 0.52537 0.79483 0.0
C157 C 0.22566 0.54627 0.78209 0.0
C158 C 0.29743 0.36215 0.81837 0.0
N159 N 0.27017 0.35174 0.81311 0.0
C160 C 0.32961 0.34382 0.81833 0.0
C161 C 0.33378 0.31467 0.81285 0.0
C162 C 0.30586 0.30425 0.80748 0.0
C163 C 0.27408 0.32324 0.80769 0.0
C164 C 0.18795 0.27986 0.82157 0.0
C165 C 0.17031 0.32965 0.80905 0.0
C166 C 0.20763 0.31098 0.8206 0.0
N167 N 0.19882 0.33527 0.81436 0.0
C168 C 0.15002 0.29884 0.80984 0.0
C169 C 0.15899 0.27379 0.81614 0.0
C170 C 0.1716 0.43287 0.80878 0.0
C171 C 0.26857 0.51777 0.82576 0.0
C172 C 0.216 0.51683 0.81318 0.0
C173 C 0.2141 0.54141 0.81997 0.0
C174 C 0.24058 0.54179 0.8263 0.0
N175 N 0.24354 0.49334 0.81269 0.0
C176 C 0.26964 0.49362 0.81886 0.0
Co177 Co 0.62392 0.72512 0.05533 0.0
Co178 Co 0.54663 0.73978 0.04392 0.0
O179 O 0.58084 0.75236 0.05296 0.0
C180 C 0.58709 0.72804 0.07221 0.0
O181 O 0.55831 0.71891 0.06796 0.0
C182 C 0.56305 0.81471 0.04023 0.0
O183 O 0.59687 0.80735 0.04116 0.0
O184 O 0.58495 0.73698 0.0351 0.0
O185 O 0.63237 0.71753 0.04257 0.0
H186 H 0.50128 0.66958 0.01845 0.0
H187 H 0.61514 0.79651 0.0631 0.0
O188 O 0.61626 0.73204 0.06813 0.0
H189 H 0.72331 0.80404 0.04513 0.0
H190 H 0.73782 0.69966 0.07122 0.0
H191 H 0.65539 0.65884 0.0484 0.0
H192 H 0.68997 0.74796 0.0462 0.0
H193 H 0.68372 0.73376 0.06784 0.0
O194 O 0.53976 0.79068 0.04115 0.0
H195 H 0.54373 0.68521 0.03005 0.0
H196 H 0.47683 0.76928 0.03835 0.0
H197 H 0.70935 0.62408 0.05152 0.0
H198 H 0.64782 0.85307 0.06227 0.0
H199 H 0.75099 0.64447 0.063 0.0
H200 H 0.70228 0.85709 0.05322 0.0
O201 O 0.59659 0.68006 0.05596 0.0
H202 H 0.4806 0.79591 0.06879 0.0
H203 H 0.48639 0.6928 0.04909 0.0
H204 H 0.44002 0.69521 0.0604 0.0
H205 H 0.43689 0.74706 0.07035 0.0
H206 H 0.52678 0.79227 0.05744 0.0
H207 H 0.43379 0.75474 0.0268 0.0
H208 H 0.44584 0.70447 0.01677 0.0
O209 O 0.55216 0.68858 0.04649 0.0
C210 C 0.6166 0.72518 0.03545 0.0
C211 C 0.49567 0.69147 0.02279 0.0
C212 C 0.45781 0.7393 0.02747 0.0
N213 N 0.51263 0.72793 0.03491 0.0
C214 C 0.51956 0.70039 0.02939 0.0
C215 C 0.48232 0.74745 0.03399 0.0
C216 C 0.46459 0.71108 0.02185 0.0
C217 C 0.63899 0.79798 0.05921 0.0
N218 N 0.65072 0.76894 0.05474 0.0
C219 C 0.65731 0.83011 0.05874 0.0
C220 C 0.68783 0.83236 0.05365 0.0
C221 C 0.69963 0.80261 0.0491 0.0
C222 C 0.6806 0.77095 0.04972 0.0
C223 C 0.71993 0.69055 0.06619 0.0
C224 C 0.67353 0.66799 0.05337 0.0
C225 C 0.68923 0.70971 0.06426 0.0
N226 N 0.66662 0.69844 0.05788 0.0
C227 C 0.70397 0.64815 0.05512 0.0
C228 C 0.7273 0.65959 0.06157 0.0
C229 C 0.57004 0.66902 0.05161 0.0
C230 C 0.48162 0.77323 0.06448 0.0
C231 C 0.48529 0.71541 0.0534 0.0
C232 C 0.4589 0.71667 0.05979 0.0
C233 C 0.45715 0.74578 0.06536 0.0
N234 N 0.50922 0.74243 0.05259 0.0
C235 C 0.50761 0.77109 0.05801 0.0
Co236 Co 0.26276 0.36626 0.94073 0.0
Co237 Co 0.24509 0.44366 0.95179 0.0
O238 O 0.23475 0.40915 0.94267 0.0
C239 C 0.26243 0.40245 0.92378 0.0
O240 O 0.2711 0.43126 0.92807 0.0
C241 C 0.16951 0.42686 0.95425 0.0
O242 O 0.17754 0.39311 0.95355 0.0
O243 O 0.24588 0.40564 0.96069 0.0
O244 O 0.26826 0.35853 0.95359 0.0
H245 H 0.30898 0.49016 0.97813 0.0
H246 H 0.19274 0.37382 0.93216 0.0
O247 O 0.25794 0.37333 0.92784 0.0
H248 H 0.18307 0.26661 0.95039 0.0
H249 H 0.29208 0.25191 0.92543 0.0
H250 H 0.32817 0.33588 0.9484 0.0
H251 H 0.23896 0.30049 0.94981 0.0
H252 H 0.2569 0.30582 0.92831 0.0
O253 O 0.19353 0.45039 0.95378 0.0
H254 H 0.29629 0.44726 0.96641 0.0
H255 H 0.21396 0.51344 0.95682 0.0
H256 H 0.36396 0.28214 0.9458 0.0
H257 H 0.13642 0.3406 0.9325 0.0
H258 H 0.34595 0.23972 0.93424 0.0
H259 H 0.13132 0.28662 0.94168 0.0
O260 O 0.30752 0.39408 0.94052 0.0
H261 H 0.19496 0.50877 0.92603 0.0
H262 H 0.2931 0.50384 0.94721 0.0
H263 H 0.29337 0.54985 0.9358 0.0
H264 H 0.24403 0.55253 0.92511 0.0
H265 H 0.19592 0.46297 0.93749 0.0
H266 H 0.22559 0.55694 0.96848 0.0
H267 H 0.2735 0.54547 0.97921 0.0
O268 O 0.29693 0.43818 0.94998 0.0
C269 C 0.25864 0.37434 0.96056 0.0
C270 C 0.28812 0.49551 0.97347 0.0
C271 C 0.24128 0.53297 0.96806 0.0
N272 N 0.25463 0.47799 0.9609 0.0
C273 C 0.28087 0.47137 0.96681 0.0
C274 C 0.23478 0.50821 0.96149 0.0
C275 C 0.26817 0.52652 0.97408 0.0
C276 C 0.19082 0.35017 0.93611 0.0
N277 N 0.21914 0.33902 0.94093 0.0
C278 C 0.15882 0.33154 0.9363 0.0
C279 C 0.15596 0.3013 0.94146 0.0
C280 C 0.18498 0.29007 0.94636 0.0
C281 C 0.21653 0.30941 0.94602 0.0
C282 C 0.30015 0.27014 0.9305 0.0
C283 C 0.32004 0.3174 0.94341 0.0
C284 C 0.28037 0.30073 0.93215 0.0
N285 N 0.2903 0.32375 0.93857 0.0
C286 C 0.34047 0.28709 0.94194 0.0
C287 C 0.33037 0.26332 0.93545 0.0
C288 C 0.31757 0.42054 0.94505 0.0
C289 C 0.21655 0.50794 0.93067 0.0
C290 C 0.27157 0.50477 0.94257 0.0
C291 C 0.27183 0.53094 0.93614 0.0
C292 C 0.24412 0.53245 0.93015 0.0
N293 N 0.24445 0.4808 0.94304 0.0
C294 C 0.21715 0.48217 0.9372 0.0
Co295 Co 0.62177 0.76435 0.18254 0.0
Co296 Co 0.54378 0.74772 0.19339 0.0
O297 O 0.57802 0.73742 0.18422 0.0
C298 C 0.58627 0.76732 0.16551 0.0
O299 O 0.55757 0.77663 0.16978 0.0
C300 C 0.55667 0.67112 0.19591 0.0
O301 O 0.5909 0.67748 0.19612 0.0
O302 O 0.58168 0.74565 0.20236 0.0
O303 O 0.62925 0.7679 0.19543 0.0
H304 H 0.49948 0.80872 0.22039 0.0
H305 H 0.61208 0.69554 0.17352 0.0
O306 O 0.61499 0.76134 0.16963 0.0
H307 H 0.71885 0.68063 0.19168 0.0
H308 H 0.73744 0.79205 0.16765 0.0
H309 H 0.65407 0.8276 0.19082 0.0
H310 H 0.68667 0.73755 0.19148 0.0
H311 H 0.68234 0.75828 0.17015 0.0
O312 O 0.53469 0.69624 0.19482 0.0
H313 H 0.54204 0.79634 0.20857 0.0
H314 H 0.47255 0.71884 0.19802 0.0
H315 H 0.709 0.86195 0.18859 0.0
H316 H 0.64361 0.63823 0.17347 0.0
H317 H 0.75112 0.84421 0.17693 0.0
H318 H 0.69737 0.6305 0.18261 0.0
O319 O 0.59543 0.81014 0.18267 0.0
H320 H 0.47704 0.70464 0.16713 0.0
H321 H 0.48587 0.79902 0.18925 0.0
H322 H 0.44006 0.80308 0.17784 0.0
H323 H 0.43542 0.75563 0.16668 0.0
H324 H 0.52269 0.70179 0.1786 0.0
H325 H 0.42935 0.73021 0.20976 0.0
H326 H 0.44265 0.77554 0.22103 0.0
O327 O 0.55151 0.79945 0.19216 0.0
C328 C 0.61329 0.75773 0.20233 0.0
C329 C 0.49332 0.789 0.2155 0.0
C330 C 0.45398 0.74491 0.20954 0.0
N331 N 0.50964 0.75715 0.20256 0.0
C332 C 0.51727 0.78194 0.20878 0.0
C333 C 0.47857 0.73855 0.20291 0.0
C334 C 0.46145 0.77035 0.21586 0.0
C335 C 0.63562 0.69245 0.17746 0.0
N336 N 0.64762 0.7199 0.18245 0.0
C337 C 0.65329 0.65991 0.17743 0.0
C338 C 0.68342 0.65557 0.18257 0.0
C339 C 0.69548 0.68368 0.18766 0.0
C340 C 0.6771 0.71583 0.18753 0.0
C341 C 0.71933 0.8 0.17276 0.0
C342 C 0.67239 0.81959 0.18577 0.0
C343 C 0.68807 0.78102 0.17419 0.0
N344 N 0.66519 0.7908 0.18067 0.0
C345 C 0.70339 0.8392 0.18452 0.0
C346 C 0.727 0.82925 0.17797 0.0
C347 C 0.56972 0.82036 0.18744 0.0
C348 C 0.47873 0.72542 0.17197 0.0
C349 C 0.4841 0.77832 0.1844 0.0
C350 C 0.45804 0.78071 0.17797 0.0
C351 C 0.45543 0.75407 0.17171 0.0
N352 N 0.50687 0.75013 0.18461 0.0
C353 C 0.50442 0.72387 0.17851 0.0
Co354 Co 0.22415 0.11971 0.44059 0.0
Co355 Co 0.25096 0.0438 0.45134 0.0
O356 O 0.25813 0.08148 0.44278 0.0
C357 C 0.23498 0.0854 0.42363 0.0
O358 O 0.23268 0.0551 0.42778 0.0
C359 C 0.32103 0.07385 0.45581 0.0
O360 O 0.30773 0.10577 0.45484 0.0
O361 O 0.23927 0.07913 0.46048 0.0
O362 O 0.21524 0.12544 0.45337 0.0
H363 H 0.18638 0.98067 0.4754 0.0
H364 H 0.29607 0.12351 0.43286 0.0
O365 O 0.23216 0.11457 0.42775 0.0
H366 H 0.28575 0.22951 0.45149 0.0
H367 H 0.18045 0.22946 0.42534 0.0
H368 H 0.15355 0.13916 0.44762 0.0
H369 H 0.23583 0.18762 0.45014 0.0
H370 H 0.22294 0.18135 0.42844 0.0
O371 O 0.30178 0.04656 0.45469 0.0
H372 H 0.19546 0.02753 0.46441 0.0
H373 H 0.29279 0.98031 0.45671 0.0
H374 H 0.11043 0.18698 0.44478 0.0
H375 H 0.34655 0.16483 0.43397 0.0
H376 H 0.12379 0.23256 0.43357 0.0
H377 H 0.34159 0.21824 0.44336 0.0
O378 O 0.18416 0.08555 0.43972 0.0
H379 H 0.32371 0.99453 0.42672 0.0
H380 H 0.21784 0.97653 0.44506 0.0
H381 H 0.23154 0.93356 0.43343 0.0
H382 H 0.28484 0.94241 0.42417 0.0
H383 H 0.30881 0.03708 0.43836 0.0
H384 H 0.28493 0.9331 0.46766 0.0
H385 H 0.23133 0.93302 0.47708 0.0
O386 O 0.20007 0.03969 0.44816 0.0
C387 C 0.22373 0.10916 0.46036 0.0
C388 C 0.20979 0.98036 0.47132 0.0
C389 C 0.26512 0.95368 0.46698 0.0
N390 N 0.24446 0.00649 0.45988 0.0
C391 C 0.21502 0.00676 0.46507 0.0
C392 C 0.26947 0.98052 0.4608 0.0
C393 C 0.23504 0.95365 0.47226 0.0
C394 C 0.2936 0.14687 0.43689 0.0
N395 N 0.263 0.15324 0.44139 0.0
C396 C 0.32232 0.17009 0.43752 0.0
C397 C 0.31954 0.20002 0.4428 0.0
C398 C 0.28822 0.20635 0.44737 0.0
C399 C 0.26007 0.1825 0.4466 0.0
C400 C 0.17437 0.20981 0.43026 0.0
C401 C 0.15964 0.15906 0.44277 0.0
C402 C 0.19829 0.18249 0.43203 0.0
N403 N 0.19085 0.15771 0.43826 0.0
C404 C 0.13508 0.186 0.44117 0.0
C405 C 0.14258 0.21154 0.43488 0.0
C406 C 0.17781 0.05587 0.44336 0.0
C407 C 0.30047 0.99033 0.43073 0.0
C408 C 0.241 0.98066 0.44104 0.0
C409 C 0.24868 0.95617 0.43448 0.0
C410 C 0.27861 0.96113 0.42929 0.0
N411 N 0.26254 0.00927 0.4424 0.0
C412 C 0.29199 0.01425 0.43736 0.0
Co413 Co 0.87876 0.72543 0.68255 0.0
Co414 Co 0.95883 0.74425 0.69223 0.0
O415 O 0.92241 0.75307 0.6835 0.0
C416 C 0.91151 0.72039 0.66524 0.0
O417 O 0.94082 0.7118 0.66934 0.0
C418 C 0.94452 0.82063 0.69464 0.0
O419 O 0.91056 0.81341 0.69529 0.0
O420 O 0.92291 0.74608 0.7017 0.0
O421 O 0.87371 0.72362 0.69553 0.0
H422 H 0.01046 0.68625 0.71882 0.0
H423 H 0.88598 0.79301 0.67283 0.0
O424 O 0.88331 0.72671 0.66955 0.0
H425 H 0.78251 0.80944 0.69207 0.0
H426 H 0.7609 0.69457 0.66918 0.0
H427 H 0.84863 0.66309 0.6917 0.0
H428 H 0.81531 0.75287 0.69199 0.0
H429 H 0.81603 0.72918 0.67079 0.0
O430 O 0.96692 0.79603 0.69334 0.0
H431 H 0.96508 0.69677 0.70755 0.0
H432 H 0.03022 0.77514 0.69577 0.0
H433 H 0.79373 0.62795 0.69038 0.0
H434 H 0.85378 0.84994 0.67265 0.0
H435 H 0.74941 0.64364 0.67905 0.0
H436 H 0.80168 0.85844 0.68234 0.0
O437 O 0.90551 0.6799 0.68277 0.0
H438 H 0.01848 0.78692 0.6649 0.0
H439 H 0.01698 0.69404 0.68751 0.0
H440 H 0.0602 0.69019 0.67549 0.0
H441 H 0.06115 0.73687 0.66408 0.0
H442 H 0.97547 0.78959 0.677 0.0
H443 H 0.07619 0.76565 0.70695 0.0
H444 H 0.06651 0.72083 0.71856 0.0
O445 O 0.95208 0.6923 0.69131 0.0
C446 C 0.89129 0.73419 0.70215 0.0
C447 C 0.01505 0.70576 0.71378 0.0
C448 C 0.05193 0.75035 0.70712 0.0
N449 N 0.99514 0.73628 0.70096 0.0
C450 C 0.9895 0.71177 0.70736 0.0
C451 C 0.02577 0.75564 0.70081 0.0
C452 C 0.04647 0.72519 0.71363 0.0
C453 C 0.86316 0.79642 0.67701 0.0
N454 N 0.85242 0.76959 0.68238 0.0
C455 C 0.84511 0.82875 0.67691 0.0
C456 C 0.81591 0.83352 0.68235 0.0
C457 C 0.80515 0.80605 0.68782 0.0
C458 C 0.82387 0.7741 0.68776 0.0
C459 C 0.77997 0.68752 0.67416 0.0
C460 C 0.82935 0.67021 0.6868 0.0
C461 C 0.81125 0.70697 0.67509 0.0
N462 N 0.83534 0.69834 0.68139 0.0
C463 C 0.79837 0.65016 0.68606 0.0
C464 C 0.77353 0.65896 0.6797 0.0
C465 C 0.93273 0.6706 0.68712 0.0
C466 C 0.0184 0.76648 0.66985 0.0
C467 C 0.01716 0.71442 0.68256 0.0
C468 C 0.04176 0.71214 0.67578 0.0
C469 C 0.04229 0.73836 0.66938 0.0
N470 N 0.9938 0.74209 0.68297 0.0
C471 C 0.99422 0.76793 0.67673 0.0
Co472 Co 0.76592 0.62601 0.80514 0.0
Co473 Co 0.74578 0.55025 0.7936 0.0
O474 O 0.73539 0.58546 0.80256 0.0
C475 C 0.7581 0.58936 0.82193 0.0
O476 O 0.76558 0.56001 0.81772 0.0
C477 C 0.67315 0.57399 0.78957 0.0
O478 O 0.68383 0.60686 0.79057 0.0
O479 O 0.75332 0.58809 0.78481 0.0
O480 O 0.77543 0.63391 0.79245 0.0
H481 H 0.81471 0.49809 0.76869 0.0
H482 H 0.69328 0.62322 0.8125 0.0
O483 O 0.75703 0.6188 0.81788 0.0
H484 H 0.69663 0.73177 0.79461 0.0
H485 H 0.79931 0.73716 0.82131 0.0
H486 H 0.83532 0.65179 0.79864 0.0
H487 H 0.74961 0.69384 0.79597 0.0
H488 H 0.76113 0.68617 0.81767 0.0
O489 O 0.69473 0.54839 0.79047 0.0
H490 H 0.80171 0.54192 0.78018 0.0
H491 H 0.71024 0.48379 0.78771 0.0
H492 H 0.87418 0.70257 0.80202 0.0
H493 H 0.63975 0.66052 0.81137 0.0
H494 H 0.85622 0.74569 0.81343 0.0
H495 H 0.6412 0.71518 0.80235 0.0
O496 O 0.80845 0.59493 0.80597 0.0
H497 H 0.68063 0.49011 0.81804 0.0
H498 H 0.78595 0.48565 0.79902 0.0
H499 H 0.77774 0.43977 0.81028 0.0
H500 H 0.72475 0.44181 0.81988 0.0
H501 H 0.69006 0.53567 0.80675 0.0
H502 H 0.72208 0.43947 0.77625 0.0
H503 H 0.77472 0.44642 0.76667 0.0
O504 O 0.79698 0.55086 0.79656 0.0
C505 C 0.7675 0.61872 0.78527 0.0
C506 C 0.79175 0.49471 0.77284 0.0
C507 C 0.73973 0.46184 0.77708 0.0
N508 N 0.75543 0.51525 0.78465 0.0
C509 C 0.78431 0.51939 0.77937 0.0
C510 C 0.73313 0.48705 0.78354 0.0
C511 C 0.76928 0.46574 0.7717 0.0
C512 C 0.69421 0.64715 0.80863 0.0
N513 N 0.72458 0.65643 0.80434 0.0
C514 C 0.66378 0.66809 0.80799 0.0
C515 C 0.66459 0.69872 0.80292 0.0
C516 C 0.69568 0.70803 0.79856 0.0
C517 C 0.72557 0.6864 0.79934 0.0
C518 C 0.80738 0.71861 0.81631 0.0
C519 C 0.82723 0.67059 0.80357 0.0
C520 C 0.78591 0.68966 0.81424 0.0
N521 N 0.79586 0.66624 0.80789 0.0
C522 C 0.84939 0.69922 0.80548 0.0
C523 C 0.83931 0.72338 0.81189 0.0
C524 C 0.81753 0.56724 0.80176 0.0
C525 C 0.70378 0.48888 0.81388 0.0
C526 C 0.76288 0.48679 0.80319 0.0
C527 C 0.75832 0.46068 0.80954 0.0
C528 C 0.72857 0.46182 0.81492 0.0
N529 N 0.73846 0.51328 0.80221 0.0
C530 C 0.70918 0.51452 0.80745 0.0
Co531 Co 0.37573 0.26417 0.06327 0.0
Co532 Co 0.45245 0.2413 0.05247 0.0
O533 O 0.41708 0.2337 0.06155 0.0
C534 C 0.41195 0.26465 0.08019 0.0
O535 O 0.4411 0.27153 0.07584 0.0
C536 C 0.43213 0.16654 0.04949 0.0
O537 O 0.39863 0.17602 0.04933 0.0
O538 O 0.41484 0.2439 0.04343 0.0
O539 O 0.36826 0.268 0.05041 0.0
H540 H 0.50361 0.30036 0.02596 0.0
H541 H 0.38016 0.19498 0.07237 0.0
O542 O 0.38266 0.26087 0.07617 0.0
H543 H 0.27211 0.18822 0.05438 0.0
H544 H 0.26304 0.30123 0.07831 0.0
H545 H 0.34823 0.32956 0.05494 0.0
H546 H 0.30869 0.24242 0.05446 0.0
H547 H 0.31526 0.26318 0.07577 0.0
O548 O 0.45634 0.18938 0.05074 0.0
H549 H 0.45966 0.29114 0.03765 0.0
H550 H 0.5205 0.20576 0.04774 0.0
H551 H 0.29622 0.36816 0.0572 0.0
H552 H 0.3442 0.14036 0.07254 0.0
H553 H 0.25319 0.35406 0.06896 0.0
H554 H 0.28978 0.13672 0.06348 0.0
O555 O 0.40553 0.30782 0.06305 0.0
H556 H 0.51322 0.1893 0.07864 0.0
H557 H 0.51541 0.28575 0.05696 0.0
H558 H 0.56088 0.28406 0.06849 0.0
H559 H 0.55998 0.23555 0.07943 0.0
H560 H 0.46804 0.1922 0.06705 0.0
H561 H 0.56498 0.21388 0.03612 0.0
H562 H 0.55673 0.26156 0.02515 0.0
O563 O 0.44999 0.29331 0.05403 0.0
C564 C 0.38388 0.25756 0.04348 0.0
C565 C 0.50756 0.27957 0.03072 0.0
C566 C 0.54198 0.23101 0.03642 0.0
N567 N 0.48765 0.24814 0.04341 0.0
C568 C 0.48281 0.27428 0.03736 0.0
C569 C 0.51667 0.22649 0.04297 0.0
C570 C 0.53734 0.25777 0.03026 0.0
C571 C 0.35636 0.1937 0.06847 0.0
N572 N 0.34644 0.22191 0.06345 0.0
C573 C 0.33617 0.16266 0.06856 0.0
C574 C 0.30566 0.16062 0.06347 0.0
C575 C 0.29574 0.1895 0.05836 0.0
C576 C 0.31661 0.22009 0.05842 0.0
C577 C 0.28156 0.30761 0.07316 0.0
C578 C 0.3295 0.32314 0.06004 0.0
C579 C 0.31121 0.28621 0.0717 0.0
N580 N 0.33458 0.29401 0.06517 0.0
C581 C 0.30016 0.34515 0.0613 0.0
C582 C 0.27604 0.33724 0.06791 0.0
C583 C 0.43293 0.31571 0.05858 0.0
C584 C 0.51394 0.21052 0.0739 0.0
C585 C 0.51475 0.26462 0.06171 0.0
C586 C 0.54064 0.26375 0.06821 0.0
C587 C 0.54014 0.23651 0.07434 0.0
N588 N 0.48912 0.23905 0.06132 0.0
C589 C 0.48852 0.21221 0.0673 0.0
Co590 Co 0.72906 0.86512 0.30544 0.0
Co591 Co 0.74036 0.94352 0.29434 0.0
O592 O 0.7533 0.91024 0.30354 0.0
C593 C 0.72632 0.90115 0.3224 0.0
O594 O 0.71523 0.92913 0.31811 0.0
C595 C 0.81722 0.93364 0.29223 0.0
O596 O 0.81189 0.89932 0.2928 0.0
O597 O 0.74378 0.90545 0.28548 0.0
O598 O 0.72428 0.85702 0.29257 0.0
H599 H 0.67433 0.98348 0.26768 0.0
H600 H 0.79813 0.87848 0.31404 0.0
O601 O 0.73318 0.8725 0.31833 0.0
H602 H 0.8169 0.77255 0.29578 0.0
H603 H 0.70933 0.74863 0.32068 0.0
H604 H 0.66644 0.82944 0.29774 0.0
H605 H 0.75836 0.80163 0.29634 0.0
H606 H 0.7399 0.8053 0.31784 0.0
O607 O 0.79128 0.95507 0.29258 0.0
H608 H 0.69014 0.94211 0.2795 0.0
H609 H 0.76517 0.01583 0.28936 0.0
H610 H 0.63525 0.7729 0.30031 0.0
H611 H 0.85704 0.85008 0.31372 0.0
H612 H 0.6567 0.73206 0.31186 0.0
H613 H 0.86672 0.79677 0.30453 0.0
O614 O 0.68218 0.88913 0.30562 0.0
H615 H 0.78224 0.01358 0.32021 0.0
H616 H 0.68646 -0.00116 0.29865 0.0
H617 H 0.681 0.04481 0.30999 0.0
H618 H 0.72913 0.05244 0.32087 0.0
H619 H 0.78647 0.96768 0.30881 0.0
H620 H 0.75037 0.0579 0.27761 0.0
H621 H 0.70454 0.04186 0.26668 0.0
O622 O 0.68907 0.93313 0.29593 0.0
C623 C 0.73319 0.87335 0.28561 0.0
C624 C 0.69426 0.99083 0.27242 0.0
C625 C 0.73696 0.03258 0.27799 0.0
N626 N 0.7283 0.97668 0.28515 0.0
C627 C 0.70324 0.96755 0.27914 0.0
C628 C 0.74527 0.00862 0.28462 0.0
C629 C 0.71124 0.02357 0.27186 0.0
C630 C 0.80205 0.85508 0.31009 0.0
N631 N 0.77481 0.84163 0.30525 0.0
C632 C 0.8355 0.8392 0.30991 0.0
C633 C 0.84094 0.80933 0.30473 0.0
C634 C 0.813 0.79575 0.29982 0.0
C635 C 0.77993 0.81238 0.30015 0.0
C636 C 0.69979 0.76616 0.31562 0.0
C637 C 0.67608 0.81167 0.30273 0.0
C638 C 0.71695 0.79829 0.31399 0.0
N639 N 0.70516 0.82045 0.30757 0.0
C640 C 0.65825 0.77975 0.30418 0.0
C641 C 0.67027 0.75687 0.31066 0.0
C642 C 0.66993 0.91411 0.30092 0.0
C643 C 0.76114 0.0106 0.31549 0.0
C644 C 0.70749 0.00191 0.30337 0.0
C645 C 0.70428 0.02806 0.30977 0.0
C646 C 0.73131 0.03234 0.31586 0.0
N647 N 0.73683 0.98067 0.30305 0.0
C648 C 0.76347 0.98477 0.30899 0.0
Co649 Co 0.11239 0.22657 0.56323 0.0
Co650 Co 0.03301 0.24432 0.55309 0.0
O651 O 0.069 0.25436 0.56186 0.0
C652 C 0.07901 0.22461 0.58052 0.0
O653 O 0.04967 0.21582 0.57646 0.0
C654 C 0.04773 0.3203 0.55001 0.0
O655 O 0.08173 0.31298 0.54955 0.0
O656 O 0.06943 0.24432 0.54372 0.0
O657 O 0.118 0.22246 0.55031 0.0
H658 H 0.9825 0.18219 0.52694 0.0
H659 H 0.10525 0.29579 0.57222 0.0
O660 O 0.10734 0.23006 0.57619 0.0
H661 H 0.20969 0.30818 0.55312 0.0
H662 H 0.22944 0.19715 0.57721 0.0
H663 H 0.14243 0.1625 0.55481 0.0
H664 H 0.17647 0.2519 0.55369 0.0
H665 H 0.17465 0.23187 0.57511 0.0
O666 O 0.02525 0.29591 0.55144 0.0
H667 H 0.02729 0.19431 0.53825 0.0
H668 H 0.96199 0.27499 0.54901 0.0
H669 H 0.197 0.12721 0.55664 0.0
H670 H 0.13787 0.35247 0.5719 0.0
H671 H 0.24095 0.1445 0.56791 0.0
H672 H 0.19046 0.35893 0.56228 0.0
O673 O 0.08528 0.18123 0.5634 0.0
H674 H 0.97212 0.2919 0.57976 0.0
H675 H 0.97425 0.19533 0.55812 0.0
H676 H 0.93031 0.19377 0.57001 0.0
H677 H 0.92905 0.24232 0.58094 0.0
H678 H 0.01584 0.29225 0.56781 0.0
H679 H 0.9166 0.26391 0.53777 0.0
H680 H 0.92667 0.21713 0.52665 0.0
O681 O 0.03938 0.19255 0.55456 0.0
C682 C 0.10092 0.23194 0.54351 0.0
C683 C 0.97774 0.20256 0.53176 0.0
C684 C 0.94078 0.24845 0.53784 0.0
N685 N -0.00287 0.2351 0.54433 0.0
C686 C 0.00297 0.20948 0.5382 0.0
C687 C 0.96661 0.25464 0.54418 0.0
C688 C 0.94644 0.2222 0.5316 0.0
C689 C 0.12828 0.29832 0.56807 0.0
N690 N 0.13905 0.27053 0.56302 0.0
C691 C 0.14656 0.33051 0.5679 0.0
C692 C 0.17604 0.33414 0.56249 0.0
C693 C 0.18684 0.30568 0.55734 0.0
C694 C 0.16788 0.2739 0.55768 0.0
C695 C 0.21052 0.1894 0.57227 0.0
C696 C 0.16155 0.17031 0.55969 0.0
C697 C 0.17943 0.20891 0.57106 0.0
N698 N 0.15554 0.19937 0.56479 0.0
C699 C 0.19234 0.15017 0.56071 0.0
C700 C 0.21697 0.15986 0.56705 0.0
C701 C 0.05825 0.17141 0.55905 0.0
C702 C 0.97234 0.27064 0.57503 0.0
C703 C 0.97394 0.21651 0.56286 0.0
C704 C 0.94894 0.21552 0.56957 0.0
C705 C 0.94822 0.24279 0.57569 0.0
N706 N -0.00248 0.24392 0.56225 0.0
C707 C -0.00307 0.27078 0.56822 0.0
Co708 Co 0.76284 0.88096 0.43303 0.0
Co709 Co 0.75139 0.96225 0.44284 0.0
O710 O 0.73875 0.92662 0.43418 0.0
C711 C 0.76773 0.91294 0.41562 0.0
O712 O 0.7785 0.94186 0.41957 0.0
C713 C 0.67471 0.95312 0.44584 0.0
O714 O 0.6801 0.91876 0.44625 0.0
O715 O 0.74815 0.92656 0.45233 0.0
O716 O 0.76607 0.87586 0.44599 0.0
H717 H 0.81634 0.00924 0.46898 0.0
H718 H 0.69475 0.89321 0.42387 0.0
O719 O 0.7602 0.88537 0.42004 0.0
H720 H 0.67305 0.79156 0.44336 0.0
H721 H 0.78276 0.76091 0.41957 0.0
H722 H 0.82405 0.84634 0.44166 0.0
H723 H 0.73194 0.81989 0.44277 0.0
H724 H 0.75267 0.81853 0.4214 0.0
O725 O 0.70039 0.97413 0.4444 0.0
H726 H 0.801 0.96481 0.45781 0.0
H727 H 0.72647 0.03576 0.44658 0.0
H728 H 0.85472 0.78891 0.44011 0.0
H729 H 0.63552 0.86548 0.4242 0.0
H730 H 0.83408 0.74574 0.42899 0.0
H731 H 0.62437 0.81432 0.43401 0.0
O732 O 0.81024 0.90422 0.43285 0.0
H733 H 0.70959 0.02525 0.4159 0.0
H734 H 0.80529 0.01627 0.43767 0.0
H735 H 0.81077 0.05917 0.42562 0.0
H736 H 0.76268 0.06387 0.41463 0.0
H737 H 0.70533 0.98248 0.42801 0.0
H738 H 0.74081 0.08087 0.45767 0.0
H739 H 0.78614 0.06777 0.46895 0.0
O740 O 0.80266 0.95154 0.44151 0.0
C741 C 0.75773 0.89416 0.45269 0.0
C742 C 0.79665 0.01532 0.46407 0.0
C743 C 0.75423 0.05551 0.45773 0.0
N744 N 0.76317 -0.00217 0.45149 0.0
C745 C 0.78794 0.99031 0.45772 0.0
C746 C 0.74619 0.02984 0.45148 0.0
C747 C 0.77967 0.04814 0.46406 0.0
C748 C 0.69017 0.87076 0.4281 0.0
N749 N 0.71681 0.85806 0.43325 0.0
C750 C 0.65655 0.85526 0.42828 0.0
C751 C 0.6503 0.82658 0.4338 0.0
C752 C 0.6776 0.81381 0.43905 0.0
C753 C 0.71086 0.83001 0.4387 0.0
C754 C 0.79195 0.77946 0.42445 0.0
C755 C 0.81477 0.82758 0.43685 0.0
C756 C 0.77506 0.81214 0.4255 0.0
N757 N 0.78641 0.8356 0.43169 0.0
C758 C 0.83231 0.79516 0.43598 0.0
C759 C 0.82074 0.77096 0.42974 0.0
C760 C 0.82222 0.93049 0.43716 0.0
C761 C 0.73066 0.02353 0.42066 0.0
C762 C 0.78428 0.0181 0.4329 0.0
C763 C 0.7875 0.0425 0.42611 0.0
C764 C 0.76049 0.04515 0.41995 0.0
N765 N 0.75494 -0.00301 0.43356 0.0
C766 C 0.72832 -0.00052 0.42756 0.0
Co767 Co 0.12571 0.26519 0.6906 0.0
Co768 Co 0.05035 0.24458 0.7023 0.0
O769 O 0.08517 0.23466 0.6932 0.0
C770 C 0.08789 0.25914 0.67393 0.0
O771 O 0.05883 0.26589 0.67833 0.0
C772 C 0.07461 0.17195 0.70611 0.0
O773 O 0.10738 0.1828 0.705 0.0
O774 O 0.08854 0.25199 0.711 0.0
O775 O 0.13446 0.27362 0.70331 0.0
H776 H -0.00096 0.31244 0.72749 0.0
H777 H 0.12203 0.19325 0.6829 0.0
O778 O 0.11763 0.25754 0.67784 0.0
H779 H 0.23166 0.19438 0.70038 0.0
H780 H 0.23605 0.29929 0.67415 0.0
H781 H 0.1523 0.3339 0.69733 0.0
H782 H 0.19401 0.24772 0.69943 0.0
H783 H 0.18506 0.2611 0.67782 0.0
O784 O 0.04886 0.19344 0.70534 0.0
H785 H 0.04239 0.30003 0.71584 0.0
H786 H 0.98431 0.20856 0.70832 0.0
H787 H 0.2031 0.37274 0.69394 0.0
H788 H 0.15903 0.1394 0.68362 0.0
H789 H 0.2454 0.35549 0.68227 0.0
H790 H 0.21424 0.13973 0.69244 0.0
O791 O 0.09485 0.30794 0.6901 0.0
H792 H 0.98927 0.17999 0.67793 0.0
H793 H 0.98537 0.2847 0.69714 0.0
H794 H 0.93897 0.27668 0.68601 0.0
H795 H 0.94072 0.22399 0.67631 0.0
H796 H 0.03535 0.18923 0.6891 0.0
H797 H 0.94048 0.21981 0.71993 0.0
H798 H 0.94763 0.27216 0.72959 0.0
O799 O 0.05063 0.29585 0.69943 0.0
C800 C 0.11935 0.26577 0.7105 0.0
C801 C 0.99557 0.28961 0.72331 0.0
C802 C 0.96273 0.23759 0.71907 0.0
N803 N 0.01572 0.25378 0.71137 0.0
C804 C 0.01998 0.2825 0.71669 0.0
C805 C 0.98767 0.23132 0.71252 0.0
C806 C 0.96675 0.26697 0.72449 0.0
C807 C 0.1462 0.1937 0.68667 0.0
N808 N 0.15593 0.22363 0.69108 0.0
C809 C 0.16696 0.16308 0.68709 0.0
C810 C 0.1979 0.16327 0.69205 0.0
C811 C 0.20768 0.19392 0.69652 0.0
C812 C 0.18622 0.22402 0.69596 0.0
C813 C 0.21786 0.30705 0.67927 0.0
C814 C 0.17075 0.32611 0.69229 0.0
C815 C 0.18891 0.28557 0.68136 0.0
N816 N 0.16595 0.29513 0.68783 0.0
C817 C 0.19939 0.34826 0.69038 0.0
C818 C 0.22309 0.33858 0.68382 0.0
C819 C 0.06712 0.31675 0.69433 0.0
C820 C 0.98817 0.20301 0.68213 0.0
C821 C 0.98639 0.26176 0.69293 0.0
C822 C 0.95998 0.25731 0.68665 0.0
C823 C 0.96096 0.22773 0.68122 0.0
N824 N 0.013 0.2374 0.69379 0.0
C825 C 0.0141 0.2083 0.68849 0.0
Co826 Co 0.71765 0.62334 0.93207 0.0
Co827 Co 0.74385 0.54529 0.94167 0.0
O828 O 0.74834 0.58174 0.93276 0.0
C829 C 0.7115 0.5893 0.91496 0.0
O830 O 0.70516 0.55992 0.91927 0.0
C831 C 0.81972 0.56445 0.94285 0.0
O832 O 0.81076 0.59795 0.94364 0.0
O833 O 0.74549 0.58173 0.951 0.0
O834 O 0.71807 0.62884 0.94505 0.0
H835 H 0.6953 0.49126 0.96912 0.0
H836 H 0.78361 0.62024 0.92156 0.0
O837 O 0.71677 0.61817 0.91908 0.0
H838 H 0.79666 0.72547 0.94035 0.0
H839 H 0.67618 0.73812 0.91882 0.0
H840 H 0.65531 0.64966 0.94192 0.0
H841 H 0.74249 0.68894 0.94103 0.0
H842 H 0.71473 0.68552 0.92012 0.0
O843 O 0.79618 0.54061 0.94203 0.0
H844 H 0.70029 0.53666 0.95762 0.0
H845 H 0.78021 0.4763 0.94495 0.0
H846 H 0.6163 0.702 0.9409 0.0
H847 H 0.83811 0.6562 0.92062 0.0
H848 H 0.62664 0.74668 0.92929 0.0
H849 H 0.84491 0.7092 0.93008 0.0
O850 O 0.67417 0.59356 0.93292 0.0
H851 H 0.78388 0.48729 0.91388 0.0
H852 H 0.69669 0.48364 0.93782 0.0
H853 H 0.69289 0.4397 0.92597 0.0
H854 H 0.73672 0.44134 0.91389 0.0
H855 H 0.78652 0.53094 0.92583 0.0
H856 H 0.77625 0.43036 0.95634 0.0
H857 H 0.73346 0.43763 0.96852 0.0
O858 O 0.69143 0.54858 0.94147 0.0
C859 C 0.73139 0.61241 0.95156 0.0
C860 C 0.71396 0.48772 0.96383 0.0
C861 C 0.75943 0.45357 0.95666 0.0
N862 N 0.74027 0.50898 0.95058 0.0
C863 C 0.71684 0.5133 0.95729 0.0
C864 C 0.76158 0.4797 0.95024 0.0
C865 C 0.7354 0.45766 0.96349 0.0
C866 C 0.78625 0.64344 0.92564 0.0
N867 N 0.75982 0.65259 0.9313 0.0
C868 C 0.81722 0.66362 0.92511 0.0
C869 C 0.82104 0.69333 0.93042 0.0
C870 C 0.79399 0.70246 0.93619 0.0
C871 C 0.76341 0.68163 0.93656 0.0
C872 C 0.67145 0.71888 0.92392 0.0
C873 C 0.66011 0.66912 0.93688 0.0
C874 C 0.69314 0.68902 0.92468 0.0
N875 N 0.68744 0.66475 0.93114 0.0
C876 C 0.63787 0.69864 0.93632 0.0
C877 C 0.64367 0.72367 0.9298 0.0
C878 C 0.66764 0.56604 0.93746 0.0
C879 C 0.7647 0.48624 0.91912 0.0
C880 C 0.71581 0.4846 0.93258 0.0
C881 C 0.71358 0.45958 0.92589 0.0
C882 C 0.73819 0.4605 0.91912 0.0
N883 N 0.74187 0.50979 0.93253 0.0
C884 C 0.76616 0.51078 0.92593 0.0
Co885 Co 0.37531 0.22523 0.19039 0.0
Co886 Co 0.45135 0.2466 0.20173 0.0
O887 O 0.41586 0.25605 0.19277 0.0
C888 C 0.41232 0.23058 0.17358 0.0
O889 O 0.44163 0.22414 0.1779 0.0
C890 C 0.42671 0.31909 0.20564 0.0
O891 O 0.39394 0.3081 0.20462 0.0
O892 O 0.41379 0.23893 0.21059 0.0
O893 O 0.36718 0.21753 0.20313 0.0
H894 H 0.5049 0.17953 0.22674 0.0
H895 H 0.37844 0.29679 0.18245 0.0
O896 O 0.38278 0.23224 0.17759 0.0
H897 H 0.26955 0.29621 0.20025 0.0
H898 H 0.26435 0.1899 0.17439 0.0
H899 H 0.34916 0.15689 0.19744 0.0
H900 H 0.30734 0.24296 0.19936 0.0
H901 H 0.3154 0.22842 0.17776 0.0
O902 O 0.45254 0.29776 0.20474 0.0
H903 H 0.46071 0.19138 0.21526 0.0
H904 H 0.51743 0.28331 0.20745 0.0
H905 H 0.29831 0.11773 0.19434 0.0
H906 H 0.34128 0.35055 0.18311 0.0
H907 H 0.25548 0.13418 0.18273 0.0
H908 H 0.28644 0.35049 0.19208 0.0
O909 O 0.40625 0.18248 0.18992 0.0
H910 H 0.51002 0.3115 0.17704 0.0
H911 H 0.51649 0.2072 0.19633 0.0
H912 H 0.56203 0.21558 0.18499 0.0
H913 H 0.55898 0.26806 0.17524 0.0
H914 H 0.46482 0.30191 0.18841 0.0
H915 H 0.56209 0.27262 0.21888 0.0
H916 H 0.55604 0.22032 0.22861 0.0
O917 O 0.45142 0.19534 0.19888 0.0
C918 C 0.38282 0.22544 0.21024 0.0
C919 C 0.50789 0.20234 0.22253 0.0
C920 C 0.53996 0.25462 0.21813 0.0
N921 N 0.48664 0.23784 0.21065 0.0
C922 C 0.483 0.20914 0.21601 0.0
C923 C 0.51455 0.26058 0.21167 0.0
C924 C 0.53655 0.22526 0.22358 0.0
C925 C 0.35444 0.29646 0.1863 0.0
N926 N 0.34499 0.26673 0.19082 0.0
C927 C 0.33358 0.32702 0.18668 0.0
C928 C 0.30285 0.32699 0.19172 0.0
C929 C 0.29337 0.29655 0.19631 0.0
C930 C 0.31491 0.2665 0.1958 0.0
C931 C 0.28278 0.18249 0.17947 0.0
C932 C 0.33049 0.16432 0.19242 0.0
C933 C 0.31177 0.20415 0.1814 0.0
N934 N 0.33503 0.19504 0.18784 0.0
C935 C 0.30182 0.142 0.19068 0.0
C936 C 0.27782 0.15123 0.18416 0.0
C937 C 0.43453 0.17408 0.19397 0.0
C938 C 0.51169 0.28858 0.18125 0.0
C939 C 0.51491 0.23004 0.1921 0.0
C940 C 0.54083 0.2347 0.1857 0.0
C941 C 0.53912 0.26416 0.18024 0.0
N942 N 0.48806 0.25409 0.19305 0.0
C943 C 0.48626 0.28309 0.18773 0.0
C944 C 0.88231 0.92782 0.29493 0.0
C945 C 0.85338 0.94833 0.29217 0.0
C946 C 0.91566 0.9434 0.29593 0.0
C947 C 0.97038 0.01988 0.28972 0.0
H948 H 0.01856 0.00036 0.3115 0.0
C949 C 0.10467 0.08493 0.29879 0.0
C950 C 0.13005 0.06061 0.3018 0.0
C951 C 0.06907 0.07476 0.29805 0.0
C952 C 0.00548 0.00599 0.30538 0.0
H953 H 0.83688 0.00063 0.28786 0.0
H954 H 0.89514 0.02761 0.28954 0.0
H955 H 0.96101 0.97346 0.30866 0.0
H956 H 0.1379 0.00716 0.30674 0.0
H957 H 0.07661 0.98961 0.30537 0.0
H958 H 0.01534 0.05176 0.28636 0.0
C959 C 0.89205 -0.00036 0.29096 0.0
C960 C 0.97266 0.99046 0.30374 0.0
C961 C 0.85871 0.98419 0.29004 0.0
C962 C 0.11908 0.02653 0.30434 0.0
C963 C 0.08379 0.01651 0.30363 0.0
C964 C 0.00342 0.03528 0.29134 0.0
C965 C 0.92062 0.9796 0.2941 0.0
C966 C 0.95507 -0.0032 0.29584 0.0
C967 C 0.05843 0.04029 0.3004 0.0
C968 C 0.02156 0.02795 0.29912 0.0
H969 H 0.87894 0.90015 0.29663 0.0
H970 H 0.93746 0.92729 0.29825 0.0
H971 H 0.95729 0.02519 0.28358 0.0
H972 H 0.11242 0.11137 0.2968 0.0
H973 H 0.04995 0.09369 0.29559 0.0
C974 C 0.96221 0.62523 0.5355 0.0
C975 C 0.92787 0.63505 0.53811 0.0
C976 C 0.97259 0.58984 0.53563 0.0
C977 C 0.95275 0.50855 0.54742 0.0
H978 H 0.01823 0.46623 0.53091 0.0
C979 C -0.00168 0.36394 0.55004 0.0
C980 C 0.03441 0.3566 0.54859 0.0
C981 C 0.9846 0.39745 0.54835 0.0
C982 C 0.00022 0.4779 0.53561 0.0
H983 H 0.87671 0.61542 0.54238 0.0
H984 H 0.89485 0.55311 0.54254 0.0
H985 H 0.99273 0.52449 0.52786 0.0
H986 H 0.08454 0.37881 0.54435 0.0
H987 H 0.0604 0.43796 0.54143 0.0
H988 H 0.96048 0.46225 0.55521 0.0
C989 C 0.91383 0.57302 0.54051 0.0
C990 C 0.98549 0.51109 0.53384 0.0
C991 C 0.90336 0.60857 0.54035 0.0
C992 C 0.05665 0.38371 0.54552 0.0
C993 C 0.04279 0.41741 0.54379 0.0
C994 C 0.96741 0.4754 0.54917 0.0
C995 C 0.94886 0.56347 0.53838 0.0
C996 C 0.9618 0.52686 0.53977 0.0
C997 C 0.00659 0.42449 0.54517 0.0
C998 C 0.99144 0.45984 0.54331 0.0
H999 H 0.98163 0.64506 0.53368 0.0
H1000 H -0.00019 0.58342 0.53403 0.0
H1001 H 0.9352 0.52033 0.5522 0.0
H1002 H 0.9804 0.34369 0.55242 0.0
H1003 H 0.95655 0.402 0.54939 0.0
C1004 C 0.6255 0.53122 0.78581 0.0
C1005 C 0.63533 0.56551 0.78845 0.0
C1006 C 0.59016 0.5207 0.78606 0.0
C1007 C 0.50958 0.53964 0.79821 0.0
H1008 H 0.46645 0.47491 0.78168 0.0
C1009 C 0.36521 0.49323 0.8012 0.0
C1010 C 0.35785 0.4573 0.79954 0.0
C1011 C 0.39866 0.50714 0.79952 0.0
C1012 C 0.47835 0.49269 0.78638 0.0
H1013 H 0.61576 0.61644 0.79289 0.0
H1014 H 0.55353 0.59803 0.79327 0.0
H1015 H 0.52437 0.50081 0.77846 0.0
H1016 H 0.38002 0.4076 0.79499 0.0
H1017 H 0.43905 0.43206 0.7921 0.0
H1018 H 0.46385 0.53125 0.80617 0.0
C1019 C 0.57339 0.57922 0.79111 0.0
C1020 C 0.51135 0.50766 0.78453 0.0
C1021 C 0.6089 0.58984 0.79083 0.0
C1022 C 0.38494 0.43537 0.79632 0.0
C1023 C 0.41856 0.44941 0.79461 0.0
C1024 C 0.47662 0.52472 0.80006 0.0
C1025 C 0.56387 0.54423 0.78896 0.0
C1026 C 0.5274 0.53108 0.79045 0.0
C1027 C 0.42561 0.4855 0.79615 0.0
C1028 C 0.46077 0.50094 0.79419 0.0
H1029 H 0.64531 0.51195 0.78388 0.0
H1030 H 0.58375 0.49351 0.78442 0.0
H1031 H 0.52161 0.55698 0.80299 0.0
H1032 H 0.34497 0.51089 0.8037 0.0
H1033 H 0.40319 0.5351 0.80069 0.0
C1034 C 0.41875 0.10403 0.04488 0.0
C1035 C 0.44298 0.1296 0.04784 0.0
C1036 C 0.43039 0.06975 0.04287 0.0
C1037 C 0.51191 0.02014 0.03733 0.0
H1038 H 0.45995 0.93826 0.04567 0.0
C1039 C 0.57286 0.88036 0.04071 0.0
C1040 C 0.55084 0.85135 0.03885 0.0
C1041 C 0.55918 0.9148 0.04047 0.0
C1042 C 0.47448 0.96085 0.04317 0.0
H1043 H 0.4981 0.13899 0.0513 0.0
H1044 H 0.51797 0.0796 0.04792 0.0
H1045 H 0.43557 -0.00261 0.04789 0.0
H1046 H 0.49809 0.83561 0.03469 0.0
H1047 H 0.47455 0.89551 0.03418 0.0
H1048 H 0.55124 0.9836 0.0328 0.0
C1049 C 0.49028 0.08607 0.04693 0.0
C1050 C 0.46048 0.99468 0.04444 0.0
C1051 C 0.47875 0.12008 0.04893 0.0
C1052 C 0.51559 0.85744 0.03629 0.0
C1053 C 0.50202 0.89171 0.03602 0.0
C1054 C 0.52594 0.98632 0.03608 0.0
C1055 C 0.46639 0.06065 0.04379 0.0
C1056 C 0.47935 0.02467 0.04167 0.0
C1057 C 0.52337 0.92064 0.03833 0.0
C1058 C 0.50759 0.95639 0.03909 0.0
H1059 H 0.39105 0.11063 0.04398 0.0
H1060 H 0.41141 0.05058 0.04045 0.0
H1061 H 0.52675 0.04282 0.035 0.0
H1062 H 0.6001 0.87638 0.04272 0.0
H1063 H 0.57619 0.93666 0.04233 0.0
C1064 C 0.12471 0.47381 0.95702 0.0
C1065 C 0.13236 0.43867 0.95462 0.0
C1066 C 0.09045 0.4871 0.95624 0.0
C1067 C 0.01076 0.47412 0.94331 0.0
H1068 H 0.96741 0.53743 0.96015 0.0
C1069 C 0.86585 0.51806 0.94109 0.0
C1070 C 0.85703 0.55309 0.94335 0.0
C1071 C 0.90015 0.5055 0.94225 0.0
C1072 C 0.97947 0.52023 0.95534 0.0
H1073 H 0.10995 0.38933 0.94992 0.0
H1074 H 0.04962 0.41267 0.94858 0.0
H1075 H 0.02465 0.51018 0.9634 0.0
H1076 H 0.87752 0.60285 0.9483 0.0
H1077 H 0.93813 0.58075 0.95028 0.0
H1078 H 0.96577 0.48423 0.93523 0.0
C1079 C 0.07038 0.42993 0.95099 0.0
C1080 C 0.01205 0.50445 0.95722 0.0
C1081 C 0.10475 0.4165 0.95182 0.0
C1082 C 0.88359 0.57573 0.94652 0.0
C1083 C 0.91812 0.56303 0.94771 0.0
C1084 C 0.97827 0.48994 0.94142 0.0
C1085 C 0.06314 0.46558 0.95301 0.0
C1086 C 0.02791 0.48113 0.95124 0.0
C1087 C 0.92654 0.52763 0.94568 0.0
C1088 C 0.9622 0.51299 0.94743 0.0
H1089 H 0.14546 0.49147 0.95925 0.0
H1090 H 0.08572 0.51472 0.9578 0.0
H1091 H 0.02277 0.4569 0.93849 0.0
H1092 H 0.84604 0.49995 0.93858 0.0
H1093 H 0.90569 0.47801 0.94071 0.0
C1094 C 0.46906 0.36689 0.20953 0.0
C1095 C 0.4348 0.35691 0.20691 0.0
C1096 C 0.4791 0.40236 0.20952 0.0
C1097 C 0.45851 0.48439 0.19813 0.0
H1098 H 0.52465 0.52529 0.21467 0.0
C1099 C 0.50625 0.62864 0.19589 0.0
C1100 C 0.54258 0.63507 0.19723 0.0
C1101 C 0.49187 0.59535 0.19752 0.0
C1102 C 0.50642 0.51404 0.20997 0.0
H1103 H 0.38345 0.3763 0.20273 0.0
H1104 H 0.40101 0.4388 0.20279 0.0
H1105 H 0.49885 0.46706 0.21756 0.0
H1106 H 0.59244 0.61147 0.20119 0.0
H1107 H 0.56712 0.55275 0.20401 0.0
H1108 H 0.46633 0.53115 0.1905 0.0
C1109 C 0.42018 0.41895 0.20474 0.0
C1110 C 0.49153 0.48085 0.21164 0.0
C1111 C 0.41004 0.38328 0.20477 0.0
C1112 C 0.56437 0.60728 0.20011 0.0
C1113 C 0.54986 0.57383 0.20178 0.0
C1114 C 0.4733 0.51758 0.19648 0.0
C1115 C 0.45511 0.42869 0.2069 0.0
C1116 C 0.46774 0.46551 0.20568 0.0
C1117 C 0.51343 0.56767 0.20052 0.0
C1118 C 0.49766 0.53256 0.20234 0.0
H1119 H 0.48867 0.34715 0.21129 0.0
H1120 H 0.50627 0.4089 0.21115 0.0
H1121 H 0.44084 0.47298 0.19333 0.0
H1122 H 0.48867 0.64946 0.19365 0.0
H1123 H 0.46367 0.59146 0.19657 0.0
C1124 C 0.37133 0.03511 0.46005 0.0
C1125 C 0.35923 0.06848 0.45729 0.0
C1126 C 0.4074 0.0275 0.46022 0.0
C1127 C 0.48869 0.05269 0.44904 0.0
H1128 H 0.53156 0.98803 0.46563 0.0
C1129 C 0.63345 0.00476 0.4462 0.0
C1130 C 0.63924 0.96827 0.44746 0.0
C1131 C 0.60059 0.01982 0.44807 0.0
C1132 C 0.51984 0.00596 0.46093 0.0
H1133 H 0.37542 0.12082 0.45302 0.0
H1134 H 0.439 0.10752 0.45337 0.0
H1135 H 0.47261 0.01207 0.46851 0.0
H1136 H 0.61499 0.9189 0.45157 0.0
H1137 H 0.55726 0.94533 0.45481 0.0
H1138 H 0.53572 0.04613 0.44141 0.0
C1139 C 0.42035 0.08716 0.45531 0.0
C1140 C 0.4862 0.01983 0.46259 0.0
C1141 C 0.38405 0.09487 0.45517 0.0
C1142 C 0.61133 0.94707 0.45054 0.0
C1143 C 0.57842 0.96224 0.45246 0.0
C1144 C 0.52241 0.03896 0.44741 0.0
C1145 C 0.43229 0.05308 0.45763 0.0
C1146 C 0.46995 0.04274 0.45657 0.0
C1147 C 0.57282 -0.00122 0.45126 0.0
C1148 C 0.53799 0.01492 0.45326 0.0
H1149 H 0.35282 0.0143 0.46178 0.0
H1150 H 0.4156 0.00089 0.46195 0.0
H1151 H 0.47669 0.06981 0.4442 0.0
H1152 H 0.65441 0.02186 0.44383 0.0
H1153 H 0.59708 0.04807 0.44714 0.0
C1154 C 0.09067 0.10783 0.70466 0.0
C1155 C 0.06637 0.13407 0.70719 0.0
C1156 C 0.08016 0.0723 0.70434 0.0
C1157 C 0.00912 0.00979 0.71103 0.0
H1158 H 0.03166 0.96324 0.68919 0.0
C1159 C 0.93617 0.88402 0.69916 0.0
C1160 C 0.95796 0.85698 0.69587 0.0
C1161 C 0.95032 0.91758 0.70088 0.0
C1162 C 0.02542 0.97575 0.69536 0.0
H1163 H 0.01304 0.14366 0.71198 0.0
H1164 H 0.9948 0.08208 0.71136 0.0
H1165 H 0.05751 0.02089 0.69243 0.0
H1166 H 0.01135 0.84413 0.69155 0.0
H1167 H 0.03575 0.90228 0.69456 0.0
H1168 H 0.97652 0.96476 0.71387 0.0
C1169 C 0.02187 0.08865 0.70964 0.0
C1170 C 0.04041 0.00864 0.69724 0.0
C1171 C 0.03227 0.12401 0.70993 0.0
C1172 C 0.99382 0.86435 0.69412 0.0
C1173 C 0.00783 0.89775 0.69579 0.0
C1174 C 0.99407 0.97687 0.70914 0.0
C1175 C 0.04533 0.06256 0.7066 0.0
C1176 C 0.03222 0.02613 0.70506 0.0
C1177 C 0.98636 0.92462 0.69926 0.0
C1178 C 0.00192 0.95966 0.70126 0.0
H1179 H 0.11712 0.11488 0.70252 0.0
H1180 H 0.09893 0.0526 0.70208 0.0
H1181 H 0.00256 0.02254 0.71714 0.0
H1182 H 0.90846 0.87909 0.70057 0.0
H1183 H 0.93309 0.93802 0.70347 0.0
C1184 C 0.61716 0.94694 0.29546 0.0
C1185 C 0.63198 0.92329 0.30152 0.0
C1186 C 0.58232 0.95843 0.29636 0.0
C1187 C 0.51311 0.97236 0.31259 0.0
H1188 H 0.45333 0.98263 0.29219 0.0
C1189 C 0.38418 0.05606 0.31216 0.0
C1190 C 0.35524 0.04141 0.30766 0.0
C1191 C 0.41749 0.03981 0.31178 0.0
C1192 C 0.46956 0.97966 0.29797 0.0
H1193 H 0.62153 0.89247 0.31318 0.0
H1194 H 0.56012 0.9126 0.31472 0.0
H1195 H 0.51129 0.95495 0.29078 0.0
H1196 H 0.33869 -0.00204 0.29926 0.0
H1197 H 0.39621 0.96977 0.29872 0.0
H1198 H 0.47107 -0.003 0.31978 0.0
C1199 C 0.57584 0.92235 0.30932 0.0
C1200 C 0.50283 0.96406 0.29714 0.0
C1201 C 0.61082 0.91064 0.3084 0.0
C1202 C 0.36029 0.01015 0.30281 0.0
C1203 C 0.39338 0.99398 0.30245 0.0
C1204 C 0.47971 0.98805 0.31342 0.0
C1205 C 0.56143 0.94659 0.30334 0.0
C1206 C 0.52507 0.96055 0.30442 0.0
C1207 C 0.42238 0.00871 0.30687 0.0
C1208 C 0.45771 0.99198 0.3061 0.0
H1209 H 0.63264 0.9572 0.29007 0.0
H1210 H 0.57207 0.97744 0.2917 0.0
H1211 H 0.5299 0.97028 0.31829 0.0
H1212 H 0.38119 0.0801 0.31595 0.0
H1213 H 0.43953 0.05191 0.31518 0.0
C1214 C 0.92716 0.87597 0.55934 0.0
C1215 C 0.9417 0.8525 0.55318 0.0
C1216 C 0.94239 0.90935 0.56067 0.0
C1217 C 0.99637 0.97513 0.54926 0.0
H1218 H 0.00965 0.01708 0.57211 0.0
C1219 C 0.01968 0.12271 0.55361 0.0
C1220 C 0.04748 0.13376 0.55908 0.0
C1221 C 0.00904 0.08751 0.55344 0.0
C1222 C 0.0064 0.00543 0.56571 0.0
H1223 H 0.98393 0.84569 0.54366 0.0
H1224 H 0.01025 0.90337 0.54603 0.0
H1225 H 0.98622 0.95656 0.57087 0.0
H1226 H 0.08555 0.11635 0.56878 0.0
H1227 H 0.06656 0.05407 0.56847 0.0
H1228 H 0.01625 0.02373 0.54407 0.0
C1229 C 0.98696 0.89619 0.54977 0.0
C1230 C 0.99267 0.9711 0.565 0.0
C1231 C 0.97184 0.86302 0.54844 0.0
C1232 C 0.06415 0.10864 0.56448 0.0
C1233 C 0.05322 0.07315 0.56434 0.0
C1234 C 0.00988 0.0093 0.54997 0.0
C1235 C 0.97228 0.9198 0.55584 0.0
C1236 C 0.98736 0.95578 0.55675 0.0
C1237 C 0.02581 0.06234 0.55874 0.0
C1238 C 0.01461 0.02494 0.55818 0.0
H1239 H 0.90404 0.86863 0.56313 0.0
H1240 H 0.93036 0.92725 0.56533 0.0
H1241 H 0.99226 0.96415 0.54282 0.0
H1242 H 0.00604 0.1412 0.54938 0.0
H1243 H 0.98747 0.07996 0.54917 0.0
C1244 C 0.12334 0.47143 0.80309 0.0
C1245 C 0.13399 0.44383 0.80866 0.0
C1246 C 0.08828 0.48258 0.80288 0.0
C1247 C 0.00637 0.48682 0.81529 0.0
H1248 H 0.96481 0.50171 0.79247 0.0
C1249 C 0.87695 0.56665 0.80919 0.0
C1250 C 0.85329 0.55214 0.80308 0.0
C1251 C 0.91042 0.55145 0.81043 0.0
C1252 C 0.97589 0.49742 0.79889 0.0
H1253 H 0.11601 0.40651 0.81848 0.0
H1254 H 0.05402 0.42633 0.8181 0.0
H1255 H 0.02416 0.47704 0.79362 0.0
H1256 H 0.84623 0.51 0.79355 0.0
H1257 H 0.90404 0.48377 0.79577 0.0
H1258 H 0.95779 0.50742 0.82053 0.0
C1259 C 0.07327 0.43917 0.81392 0.0
C1260 C 0.00994 0.48353 0.79955 0.0
C1261 C 0.10861 0.42774 0.81409 0.0
C1262 C 0.86371 0.52207 0.7983 0.0
C1263 C 0.89696 0.50701 0.79954 0.0
C1264 C 0.97217 0.50093 0.81463 0.0
C1265 C 0.06287 0.46651 0.80825 0.0
C1266 C 0.02565 0.47845 0.80773 0.0
C1267 C 0.92076 0.52164 0.80556 0.0
C1268 C 0.95673 0.50648 0.80641 0.0
H1269 H 0.14206 0.4846 0.79882 0.0
H1270 H 0.08106 0.50406 0.79855 0.0
H1271 H 0.01808 0.48334 0.82167 0.0
H1272 H 0.8697 0.58971 0.813 0.0
H1273 H 0.92845 0.56344 0.81507 0.0
C1274 C 0.57157 0.61014 0.0593 0.0
C1275 C 0.55774 0.63213 0.05273 0.0
C1276 C 0.55806 0.57594 0.06051 0.0
C1277 C 0.51074 0.50604 0.0487 0.0
H1278 H 0.48713 0.46906 0.07156 0.0
C1279 C 0.47666 0.36077 0.05361 0.0
C1280 C 0.44666 0.3524 0.05866 0.0
C1281 C 0.49014 0.39498 0.05348 0.0
C1282 C 0.49338 0.47926 0.06515 0.0
H1283 H 0.51899 0.63528 0.04226 0.0
H1284 H 0.4957 0.57624 0.0444 0.0
H1285 H 0.51195 0.52897 0.07019 0.0
H1286 H 0.40764 0.37356 0.06766 0.0
H1287 H 0.43132 0.43415 0.06735 0.0
H1288 H 0.49189 0.45694 0.0436 0.0
C1289 C 0.51708 0.58518 0.04857 0.0
C1290 C 0.50794 0.51323 0.06437 0.0
C1291 C 0.53042 0.61915 0.04738 0.0
C1292 C 0.4307 0.37918 0.06369 0.0
C1293 C 0.44435 0.41372 0.06355 0.0
C1294 C 0.49634 0.47228 0.04947 0.0
C1295 C 0.53074 0.5632 0.05512 0.0
C1296 C 0.51663 0.5269 0.05613 0.0
C1297 C 0.47396 0.42189 0.05836 0.0
C1298 C 0.48767 0.45846 0.05769 0.0
H1299 H 0.5925 0.61944 0.06355 0.0
H1300 H 0.56921 0.55932 0.06556 0.0
H1301 H 0.51746 0.51578 0.04227 0.0
H1302 H 0.48987 0.34094 0.04967 0.0
H1303 H 0.51334 0.4004 0.04954 0.0
C1304 C 0.37731 0.42022 0.93781 0.0
C1305 C 0.35449 0.43315 0.94432 0.0
C1306 C 0.41132 0.43447 0.93683 0.0
C1307 C 0.4794 0.48406 0.94884 0.0
H1308 H 0.51533 0.50888 0.92595 0.0
C1309 C 0.6237 0.52327 0.94346 0.0
C1310 C 0.63099 0.55245 0.93804 0.0
C1311 C 0.58972 0.50926 0.94396 0.0
C1312 C 0.50543 0.50235 0.93238 0.0
H1313 H 0.34979 0.47075 0.955 0.0
H1314 H 0.40858 0.49539 0.95325 0.0
H1315 H 0.45653 0.48185 0.92735 0.0
H1316 H 0.60807 0.58982 0.92889 0.0
H1317 H 0.54803 0.56523 0.92984 0.0
H1318 H 0.52776 0.50491 0.95391 0.0
C1319 C 0.40041 0.47416 0.94895 0.0
C1320 C 0.47209 0.48648 0.93317 0.0
C1321 C 0.36659 0.46007 0.94991 0.0
C1322 C 0.6033 0.56738 0.93313 0.0
C1323 C 0.56906 0.55319 0.93363 0.0
C1324 C 0.51259 0.49981 0.94806 0.0
C1325 C 0.42306 0.46167 0.94238 0.0
C1326 C 0.45879 0.47725 0.94142 0.0
C1327 C 0.56203 0.52407 0.93908 0.0
C1328 C 0.52601 0.50897 0.93982 0.0
H1329 H 0.36874 0.39957 0.93338 0.0
H1330 H 0.42846 0.42414 0.93176 0.0
H1331 H 0.46995 0.47698 0.95528 0.0
H1332 H 0.64428 0.51093 0.94733 0.0
H1333 H 0.58521 0.48648 0.94811 0.0
C1334 C 0.53413 0.8698 0.19364 0.0
C1335 C 0.55947 0.85814 0.18756 0.0
C1336 C 0.52326 0.90495 0.19379 0.0
C1337 C 0.51458 0.98471 0.18072 0.0
H1338 H 0.50583 0.02951 0.20337 0.0
C1339 C 0.43451 0.11375 0.18698 0.0
C1340 C 0.4499 0.13839 0.19272 0.0
C1341 C 0.45004 0.08041 0.18578 0.0
C1342 C 0.50842 0.01756 0.19698 0.0
H1343 H 0.59318 0.87444 0.17682 0.0
H1344 H 0.57391 0.93661 0.17712 0.0
H1345 H 0.53112 0.97045 0.20229 0.0
H1346 H 0.49391 0.14731 0.20162 0.0
H1347 H 0.5208 0.08984 0.19942 0.0
H1348 H 0.49173 0.03215 0.17544 0.0
C1349 C 0.56258 0.91807 0.18173 0.0
C1350 C 0.52267 0.98365 0.19638 0.0
C1351 C 0.57372 0.88264 0.1816 0.0
C1352 C 0.48115 0.12907 0.19717 0.0
C1353 C 0.49659 0.09599 0.19594 0.0
C1354 C 0.50018 0.0188 0.18133 0.0
C1355 C 0.53738 0.92946 0.18788 0.0
C1356 C 0.52546 0.96671 0.18827 0.0
C1357 C 0.48111 0.0712 0.1903 0.0
C1358 C 0.49678 0.03541 0.18949 0.0
H1359 H 0.52244 0.85179 0.19833 0.0
H1360 H 0.5034 0.91288 0.19851 0.0
H1361 H 0.51625 0.97205 0.1744 0.0
H1362 H 0.41051 0.12013 0.18344 0.0
H1363 H 0.43736 0.06161 0.18145 0.0
C1364 C 0.87482 0.96078 0.44349 0.0
C1365 C 0.86073 0.93751 0.43723 0.0
C1366 C 0.91084 0.96848 0.44361 0.0
C1367 C 0.98894 0.9747 0.43006 0.0
H1368 H 0.03751 0.97659 0.45232 0.0
C1369 C 0.11736 0.05433 0.43651 0.0
C1370 C 0.14315 0.03859 0.44187 0.0
C1371 C 0.08461 0.03778 0.43523 0.0
C1372 C 0.02454 0.97579 0.44603 0.0
H1373 H 0.87353 0.90405 0.42617 0.0
H1374 H 0.93712 0.91809 0.42633 0.0
H1375 H 0.97737 0.95351 0.45148 0.0
H1376 H 0.15486 0.99268 0.44995 0.0
H1377 H 0.09807 0.96404 0.44766 0.0
H1378 H 0.03609 -0.00233 0.42465 0.0
C1379 C 0.91988 0.93011 0.43115 0.0
C1380 C 0.99005 0.96279 0.44557 0.0
C1381 C 0.88364 0.922 0.43108 0.0
C1382 C 0.13565 0.00574 0.4458 0.0
C1383 C 0.10303 0.98928 0.44452 0.0
C1384 C 0.02352 0.98793 0.43053 0.0
C1385 C 0.93371 0.95334 0.43744 0.0
C1386 C 0.9717 0.96276 0.43762 0.0
C1387 C 0.07703 0.00527 0.4393 0.0
C1388 C 0.04142 0.98907 0.43856 0.0
H1389 H 0.85805 0.97321 0.44833 0.0
H1390 H 0.92073 0.98686 0.44846 0.0
H1391 H 0.97521 0.97512 0.42386 0.0
H1392 H 0.12228 0.07957 0.43337 0.0
H1393 H 0.06487 0.05092 0.43125 0.0
C1394 C 0.06635 0.37636 0.68701 0.0
C1395 C 0.05199 0.35253 0.69311 0.0
C1396 C 0.051 0.40976 0.68581 0.0
C1397 C 0.99651 0.47485 0.69736 0.0
H1398 H 0.9825 0.51688 0.67455 0.0
C1399 C 0.97069 0.62227 0.693 0.0
C1400 C 0.94334 0.63293 0.68735 0.0
C1401 C 0.9816 0.58714 0.69329 0.0
C1402 C 0.98594 0.50521 0.68094 0.0
H1403 H 0.01003 0.34514 0.70268 0.0
H1404 H 0.98351 0.40288 0.70053 0.0
H1405 H 0.00676 0.45672 0.67573 0.0
H1406 H 0.90616 0.6149 0.67752 0.0
H1407 H 0.92558 0.55282 0.67804 0.0
H1408 H 0.9759 0.52307 0.7026 0.0
C1409 C 0.00674 0.39596 0.69674 0.0
C1410 C 0.00016 0.47108 0.68162 0.0
C1411 C 0.02197 0.36276 0.69794 0.0
C1412 C 0.92721 0.60748 0.68196 0.0
C1413 C 0.93841 0.5721 0.68221 0.0
C1414 C 0.98248 0.50883 0.69668 0.0
C1415 C 0.02118 0.41988 0.69071 0.0
C1416 C 0.00574 0.45572 0.68985 0.0
C1417 C 0.96555 0.5617 0.68794 0.0
C1418 C 0.97745 0.52449 0.68848 0.0
H1419 H 0.08938 0.36925 0.68317 0.0
H1420 H 0.06285 0.42789 0.68117 0.0
H1421 H 0.0008 0.46381 0.70379 0.0
H1422 H 0.98386 0.64104 0.69724 0.0
H1423 H 0.00295 0.57993 0.69767 0.0
C1424 C 0.28702 0.1132 0.34468 0.0
C1425 C 0.27332 0.08489 0.33981 0.0
C1426 C 0.28474 0.11301 0.35376 0.0
C1427 C 0.26364 0.05335 0.37262 0.0
H1428 H 0.25609 0.14299 0.38479 0.0
C1429 C 0.26016 0.05851 0.41014 0.0
C1430 C 0.24073 0.08569 0.41415 0.0
C1431 C 0.26575 0.05885 0.40114 0.0
C1432 C 0.25756 0.1176 0.38152 0.0
H1433 H 0.24581 0.0346 0.34052 0.0
H1434 H 0.23966 0.03517 0.35628 0.0
H1435 H 0.26078 0.14256 0.36909 0.0
H1436 H 0.2113 0.13415 0.41197 0.0
H1437 H 0.21888 0.13369 0.39624 0.0
H1438 H 0.2576 0.02829 0.38498 0.0
C1439 C 0.25374 0.05684 0.35321 0.0
C1440 C 0.26106 0.11738 0.37247 0.0
C1441 C 0.25696 0.05657 0.34415 0.0
C1442 C 0.22668 0.11304 0.40902 0.0
C1443 C 0.23136 0.11287 0.4 0.0
C1444 C 0.25915 0.05354 0.38165 0.0
C1445 C 0.26773 0.08498 0.35817 0.0
C1446 C 0.26425 0.08525 0.36787 0.0
C1447 C 0.25113 0.08585 0.39591 0.0
C1448 C 0.25613 0.08567 0.38626 0.0
H1449 H 0.30003 0.13523 0.34146 0.0
H1450 H 0.29665 0.13478 0.3573 0.0
H1451 H 0.26672 0.02801 0.3694 0.0
H1452 H 0.27159 0.0373 0.41399 0.0
H1453 H 0.28187 0.03804 0.39834 0.0
C1454 C 0.87496 0.74945 0.58628 0.0
C1455 C 0.90654 0.75196 0.58145 0.0
C1456 C 0.87597 0.74542 0.59531 0.0
C1457 C 0.93282 0.71615 0.61337 0.0
H1458 H 0.87017 0.77424 0.62744 0.0
C1459 C 0.94316 0.72175 0.65091 0.0
C1460 C 0.91131 0.72327 0.65565 0.0
C1461 C 0.94296 0.72496 0.64184 0.0
C1462 C 0.88751 0.75747 0.62361 0.0
H1463 H 0.96397 0.7515 0.5823 0.0
H1464 H 0.96567 0.74436 0.59811 0.0
H1465 H 0.86902 0.77983 0.61163 0.0
H1466 H 0.85422 0.72893 0.65459 0.0
H1467 H 0.8538 0.73381 0.63878 0.0
H1468 H 0.95106 0.69349 0.62533 0.0
C1469 C 0.94016 0.74547 0.59488 0.0
C1470 C 0.88689 0.76074 0.61455 0.0
C1471 C 0.93917 0.74975 0.58584 0.0
C1472 C 0.87925 0.72785 0.65113 0.0
C1473 C 0.87903 0.73086 0.64206 0.0
C1474 C 0.93331 0.71272 0.62243 0.0
C1475 C 0.90856 0.74355 0.59971 0.0
C1476 C 0.90948 0.74009 0.60933 0.0
C1477 C 0.91089 0.72959 0.63731 0.0
C1478 C 0.91061 0.73331 0.62766 0.0
H1479 H 0.84937 0.75098 0.5831 0.0
H1480 H 0.85119 0.74356 0.59886 0.0
H1481 H 0.95026 0.69961 0.6095 0.0
H1482 H 0.96834 0.71848 0.6542 0.0
H1483 H 0.96802 0.72438 0.63839 0.0
C1484 C 0.22611 0.44212 0.84487 0.0
C1485 C 0.22629 0.41035 0.84009 0.0
C1486 C 0.23001 0.44162 0.85392 0.0
C1487 C 0.26167 0.38462 0.872 0.0
H1488 H 0.20719 0.44948 0.88633 0.0
C1489 C 0.2541 0.37225 0.90941 0.0
C1490 C 0.25795 0.40371 0.91422 0.0
C1491 C 0.25027 0.37339 0.90036 0.0
C1492 C 0.2228 0.43143 0.8824 0.0
H1493 H 0.2303 0.3531 0.84106 0.0
H1494 H 0.23628 0.35218 0.85685 0.0
H1495 H 0.20016 0.45069 0.87054 0.0
H1496 H 0.26039 0.46108 0.91333 0.0
H1497 H 0.25356 0.463 0.89752 0.0
H1498 H 0.2839 0.36508 0.88389 0.0
C1499 C 0.2339 0.37756 0.85361 0.0
C1500 C 0.21885 0.43216 0.87335 0.0
C1501 C 0.23025 0.37807 0.84455 0.0
C1502 C 0.25758 0.43636 0.90981 0.0
C1503 C 0.25346 0.43749 0.90076 0.0
C1504 C 0.26541 0.38375 0.88104 0.0
C1505 C 0.23396 0.40933 0.8584 0.0
C1506 C 0.23823 0.40874 0.86803 0.0
C1507 C 0.24992 0.40601 0.89595 0.0
C1508 C 0.24601 0.40712 0.88634 0.0
H1509 H 0.22338 0.46745 0.84161 0.0
H1510 H 0.23047 0.46662 0.85739 0.0
H1511 H 0.27751 0.36667 0.8681 0.0
H1512 H 0.25424 0.34666 0.91262 0.0
H1513 H 0.24721 0.34872 0.89683 0.0
C1514 C 0.61754 0.7366 0.08653 0.0
C1515 C 0.58595 0.7329 0.08176 0.0
C1516 C 0.61663 0.74023 0.09557 0.0
C1517 C 0.55955 0.76719 0.11377 0.0
H1518 H 0.62472 0.7113 0.12766 0.0
C1519 C 0.55296 0.76408 0.15142 0.0
C1520 C 0.58534 0.76347 0.15593 0.0
C1521 C 0.55221 0.76005 0.14236 0.0
C1522 C 0.60665 0.72746 0.12388 0.0
H1523 H 0.52858 0.73075 0.08273 0.0
H1524 H 0.52707 0.73732 0.09857 0.0
H1525 H 0.62508 0.70538 0.11186 0.0
H1526 H 0.64237 0.75858 0.15449 0.0
H1527 H 0.64114 0.75239 0.13873 0.0
H1528 H 0.5415 0.78974 0.12577 0.0
C1529 C 0.55249 0.73738 0.09528 0.0
C1530 C 0.60681 0.72398 0.11483 0.0
C1531 C 0.55339 0.73343 0.08622 0.0
C1532 C 0.61695 0.75894 0.15121 0.0
C1533 C 0.61622 0.75517 0.14217 0.0
C1534 C 0.55956 0.77089 0.12283 0.0
C1535 C 0.58412 0.74055 0.10005 0.0
C1536 C 0.58338 0.7439 0.10967 0.0
C1537 C 0.58384 0.75552 0.13763 0.0
C1538 C 0.58322 0.75116 0.128 0.0
H1539 H 0.64306 0.73633 0.08329 0.0
H1540 H 0.64141 0.74305 0.09907 0.0
H1541 H 0.54143 0.78315 0.10995 0.0
H1542 H 0.52812 0.76729 0.15488 0.0
H1543 H 0.52677 0.75996 0.13909 0.0
C1544 C 0.74726 0.62011 0.83613 0.0
C1545 C 0.75119 0.58842 0.83141 0.0
C1546 C 0.74129 0.61935 0.8451 0.0
C1547 C 0.75143 0.56176 0.86441 0.0
H1548 H 0.68731 0.62959 0.87503 0.0
C1549 C 0.71322 0.55622 0.90083 0.0
C1550 C 0.71377 0.58863 0.90535 0.0
C1551 C 0.71637 0.5555 0.89177 0.0
C1552 C 0.70548 0.61066 0.87216 0.0
H1553 H 0.75133 0.53104 0.83239 0.0
H1554 H 0.74037 0.52971 0.84804 0.0
H1555 H 0.69504 0.6293 0.85926 0.0
H1556 H 0.71774 0.64572 0.9039 0.0
H1557 H 0.7232 0.64441 0.88807 0.0
H1558 H 0.76176 0.54311 0.87734 0.0
C1559 C 0.74255 0.55518 0.84483 0.0
C1560 C 0.70997 0.61051 0.86313 0.0
C1561 C 0.74868 0.55593 0.83585 0.0
C1562 C 0.71718 0.62032 0.90061 0.0
C1563 C 0.72011 0.61959 0.89154 0.0
C1564 C 0.7468 0.56181 0.87344 0.0
C1565 C 0.73892 0.58689 0.84957 0.0
C1566 C 0.73319 0.58623 0.85915 0.0
C1567 C 0.71992 0.58717 0.88703 0.0
C1568 C 0.72396 0.58642 0.87742 0.0
H1569 H 0.74918 0.6456 0.83291 0.0
H1570 H 0.73917 0.64428 0.84857 0.0
H1571 H 0.76993 0.54307 0.86158 0.0
H1572 H 0.7107 0.53133 0.9043 0.0
H1573 H 0.7158 0.53014 0.88846 0.0
C1574 C 0.44584 0.23623 0.15955 0.0
C1575 C 0.41332 0.23502 0.16402 0.0
C1576 C 0.44663 0.23961 0.15048 0.0
C1577 C 0.39215 0.22398 0.13101 0.0
H1578 H 0.45714 0.28919 0.11976 0.0
C1579 C 0.3814 0.25753 0.09455 0.0
C1580 C 0.413 0.26111 0.08978 0.0
C1581 C 0.38227 0.25417 0.1036 0.0
C1582 C 0.43916 0.27051 0.12279 0.0
H1583 H 0.35613 0.23681 0.16249 0.0
H1584 H 0.35757 0.24273 0.14669 0.0
H1585 H 0.45731 0.28377 0.13561 0.0
H1586 H 0.47033 0.26368 0.09075 0.0
H1587 H 0.47185 0.25728 0.10656 0.0
H1588 H 0.37409 0.21049 0.11823 0.0
C1589 C 0.38243 0.24074 0.15019 0.0
C1590 C 0.43923 0.26747 0.13187 0.0
C1591 C 0.38164 0.23757 0.15924 0.0
C1592 C 0.4455 0.26119 0.09425 0.0
C1593 C 0.44637 0.25768 0.10331 0.0
C1594 C 0.39218 0.22689 0.12194 0.0
C1595 C 0.41491 0.24163 0.1457 0.0
C1596 C 0.41554 0.24435 0.13607 0.0
C1597 C 0.41475 0.25412 0.10809 0.0
C1598 C 0.4155 0.25038 0.11773 0.0
H1599 H 0.47073 0.23442 0.16304 0.0
H1600 H 0.47204 0.23998 0.14719 0.0
H1601 H 0.37401 0.20548 0.13406 0.0
H1602 H 0.35589 0.25756 0.09131 0.0
H1603 H 0.35739 0.25207 0.10709 0.0
C1604 C 0.73616 0.8718 0.33682 0.0
C1605 C 0.7311 0.90291 0.33195 0.0
C1606 C 0.74051 0.87342 0.34585 0.0
C1607 C 0.72584 0.93254 0.36486 0.0
H1608 H 0.79079 0.86758 0.3762 0.0
C1609 C 0.76508 0.94401 0.40121 0.0
C1610 C 0.76412 0.91234 0.40603 0.0
C1611 C 0.76136 0.94339 0.39215 0.0
C1612 C 0.77239 0.88572 0.37313 0.0
H1613 H 0.72717 0.9602 0.3327 0.0
H1614 H 0.73569 0.96314 0.34841 0.0
H1615 H 0.78421 0.86581 0.36042 0.0
H1616 H 0.75869 0.85518 0.40514 0.0
H1617 H 0.75255 0.85414 0.38931 0.0
H1618 H 0.71457 0.95276 0.37761 0.0
C1619 C 0.73542 0.93737 0.3453 0.0
C1620 C 0.76849 0.88465 0.36408 0.0
C1621 C 0.73072 0.93571 0.33628 0.0
C1622 C 0.75953 0.88004 0.40161 0.0
C1623 C 0.75622 0.8794 0.39255 0.0
C1624 C 0.73002 0.93382 0.3739 0.0
C1625 C 0.74029 0.90623 0.35021 0.0
C1626 C 0.745 0.9079 0.35983 0.0
C1627 C 0.75701 0.91106 0.38773 0.0
C1628 C 0.75318 0.91029 0.37813 0.0
H1629 H 0.73637 0.84608 0.33367 0.0
H1630 H 0.74356 0.84884 0.34941 0.0
H1631 H 0.70707 0.95045 0.36184 0.0
H1632 H 0.76846 0.96934 0.40444 0.0
H1633 H 0.7623 0.96816 0.38859 0.0
C1634 C 0.11773 0.25218 0.65946 0.0
C1635 C 0.08634 0.25434 0.66437 0.0
C1636 C 0.11635 0.24876 0.65041 0.0
C1637 C 0.05868 0.22057 0.6324 0.0
H1638 H 0.12102 0.27904 0.61835 0.0
C1639 C 0.04747 0.22688 0.59488 0.0
C1640 C 0.07927 0.22816 0.59011 0.0
C1641 C 0.04781 0.23023 0.60394 0.0
C1642 C 0.10374 0.26219 0.62217 0.0
H1643 H 0.02888 0.25395 0.66366 0.0
H1644 H 0.02654 0.24789 0.64783 0.0
H1645 H 0.12275 0.28394 0.63416 0.0
H1646 H 0.13639 0.23373 0.59112 0.0
H1647 H 0.13703 0.23888 0.60692 0.0
H1648 H 0.03995 0.19848 0.62041 0.0
C1649 C 0.05218 0.24879 0.651 0.0
C1650 C 0.10471 0.26506 0.63123 0.0
C1651 C 0.05354 0.25245 0.66006 0.0
C1652 C 0.11139 0.23282 0.5946 0.0
C1653 C 0.11174 0.23598 0.60366 0.0
C1654 C 0.05785 0.21755 0.62332 0.0
C1655 C 0.08358 0.24718 0.64608 0.0
C1656 C 0.08225 0.24423 0.63645 0.0
C1657 C 0.07996 0.23479 0.60845 0.0
C1658 C 0.08044 0.23827 0.6181 0.0
H1659 H 0.14344 0.25348 0.66259 0.0
H1660 H 0.14099 0.24713 0.6468 0.0
H1661 H 0.04134 0.2039 0.63625 0.0
H1662 H 0.02225 0.22355 0.5916 0.0
H1663 H 0.0228 0.22972 0.60741 0.0
C1664 C 0.24907 0.11187 0.27751 0.0
C1665 C 0.26588 0.12609 0.2849 0.0
C1666 C 0.25598 0.12567 0.26923 0.0
C1667 C 0.29737 0.20237 0.25771 0.0
H1668 H 0.31098 0.1336 0.23923 0.0
C1669 C 0.37801 0.23025 0.22649 0.0
C1670 C 0.36431 0.21777 0.21855 0.0
C1671 C 0.36145 0.22168 0.23436 0.0
C1672 C 0.30679 0.15318 0.24429 0.0
H1673 H 0.30235 0.16675 0.28938 0.0
H1674 H 0.31506 0.19001 0.27498 0.0
H1675 H 0.28987 0.11392 0.25342 0.0
H1676 H 0.32195 0.18702 0.21265 0.0
H1677 H 0.29339 0.17177 0.22641 0.0
H1678 H 0.31577 0.24136 0.24862 0.0
C1679 C 0.296 0.16867 0.27556 0.0
C1680 C 0.29456 0.14195 0.25243 0.0
C1681 C 0.28888 0.15511 0.28384 0.0
C1682 C 0.3333 0.19703 0.21864 0.0
C1683 C 0.31697 0.18816 0.22652 0.0
C1684 C 0.30994 0.21353 0.2496 0.0
C1685 C 0.28005 0.15381 0.26814 0.0
C1686 C 0.29013 0.16633 0.25928 0.0
C1687 C 0.33104 0.20018 0.23445 0.0
C1688 C 0.31517 0.18896 0.24284 0.0
H1689 H 0.23097 0.0897 0.27809 0.0
H1690 H 0.2427 0.11399 0.26368 0.0
H1691 H 0.29362 0.22199 0.26278 0.0
H1692 H 0.40177 0.24636 0.22667 0.0
H1693 H 0.37306 0.23102 0.24039 0.0
C1694 C 0.74782 0.89409 0.46886 0.0
C1695 C 0.76131 0.8774 0.46137 0.0
C1696 C 0.75381 0.87963 0.47711 0.0
C1697 C 0.78638 0.79814 0.48847 0.0
H1698 H 0.81008 0.86496 0.50676 0.0
C1699 C 0.86768 0.76257 0.51914 0.0
C1700 C 0.85576 0.77603 0.52717 0.0
C1701 C 0.85116 0.77259 0.51138 0.0
C1702 C 0.80306 0.84599 0.50175 0.0
H1703 H 0.79087 0.83182 0.45669 0.0
H1704 H 0.80232 0.8074 0.47102 0.0
H1705 H 0.79005 0.88691 0.49269 0.0
H1706 H 0.81659 0.81002 0.53333 0.0
H1707 H 0.78827 0.82794 0.51973 0.0
H1708 H 0.80118 0.75734 0.49749 0.0
C1709 C 0.78637 0.83119 0.47056 0.0
C1710 C 0.79142 0.85852 0.49368 0.0
C1711 C 0.78 0.84539 0.46231 0.0
C1712 C 0.8265 0.79918 0.52726 0.0
C1713 C 0.81033 0.80956 0.51949 0.0
C1714 C 0.79851 0.78565 0.4965 0.0
C1715 C 0.7738 0.84837 0.47808 0.0
C1716 C 0.78332 0.8348 0.48689 0.0
C1717 C 0.8227 0.7966 0.51147 0.0
C1718 C 0.80731 0.80949 0.50318 0.0
H1719 H 0.73299 0.91861 0.46837 0.0
H1720 H 0.74306 0.89321 0.48274 0.0
H1721 H 0.77972 0.77904 0.48346 0.0
H1722 H 0.89004 0.74459 0.51883 0.0
H1723 H 0.8614 0.76243 0.50527 0.0
C1724 C 0.12549 0.26107 0.72672 0.0
C1725 C 0.13803 0.27427 0.71872 0.0
C1726 C 0.14177 0.27084 0.73453 0.0
C1727 C 0.19107 0.34341 0.74425 0.0
H1728 H 0.21049 0.27639 0.7628 0.0
C1729 C 0.21025 0.34338 0.78381 0.0
C1730 C 0.23035 0.37451 0.78482 0.0
C1731 C 0.20404 0.32926 0.77555 0.0
C1732 C 0.20494 0.29552 0.75772 0.0
H1733 H 0.17814 0.30747 0.71267 0.0
H1734 H 0.20613 0.3249 0.72635 0.0
H1735 H 0.18978 0.25488 0.74869 0.0
H1736 H 0.2611 0.41423 0.77792 0.0
H1737 H 0.25113 0.38898 0.76353 0.0
H1738 H 0.20456 0.3842 0.75331 0.0
C1739 C 0.18372 0.30696 0.72653 0.0
C1740 C 0.19324 0.28314 0.74963 0.0
C1741 C 0.16773 0.29685 0.71871 0.0
C1742 C 0.24521 0.39041 0.77738 0.0
C1743 C 0.2393 0.37604 0.76911 0.0
C1744 C 0.20236 0.35584 0.75236 0.0
C1745 C 0.17067 0.29431 0.73452 0.0
C1746 C 0.1858 0.30701 0.74286 0.0
C1747 C 0.21809 0.34563 0.76807 0.0
C1748 C 0.209 0.3321 0.75924 0.0
H1749 H 0.10277 0.24353 0.72697 0.0
H1750 H 0.13098 0.26093 0.7406 0.0
H1751 H 0.18512 0.36243 0.73917 0.0
H1752 H 0.19831 0.33043 0.78939 0.0
H1753 H 0.18713 0.30616 0.77502 0.0
C1754 C 0.74543 0.61393 0.96754 0.0
C1755 C 0.72836 0.62895 0.96028 0.0
C1756 C 0.7399 0.62772 0.97588 0.0
C1757 C 0.70358 0.64443 0.99295 0.0
H1758 H 0.68433 0.74402 0.99709 0.0
C1759 C 0.66676 0.69831 0.02697 0.0
C1760 C 0.63555 0.71874 0.02715 0.0
C1761 C 0.68311 0.69003 0.01906 0.0
C1762 C 0.68968 0.71615 0.99602 0.0
H1763 H 0.69297 0.67105 0.9561 0.0
H1764 H 0.68253 0.69426 0.97061 0.0
H1765 H 0.70527 0.72489 0.98279 0.0
H1766 H 0.59792 0.74768 0.01915 0.0
H1767 H 0.62673 0.73346 0.00536 0.0
H1768 H 0.6879 0.63582 0.00618 0.0
C1769 C 0.70079 0.67232 0.96987 0.0
C1770 C 0.70153 0.70512 0.98782 0.0
C1771 C 0.7066 0.65879 0.96153 0.0
C1772 C 0.62182 0.73176 0.01925 0.0
C1773 C 0.63844 0.72382 0.01136 0.0
C1774 C 0.69213 0.65554 0.00116 0.0
C1775 C 0.71691 0.65662 0.97718 0.0
C1776 C 0.70794 0.669 0.98613 0.0
C1777 C 0.66889 0.70241 0.01117 0.0
C1778 C 0.68443 0.69139 0.00273 0.0
H1779 H 0.76264 0.59113 0.96681 0.0
H1780 H 0.75333 0.61539 0.98133 0.0
H1781 H 0.70763 0.61636 0.99187 0.0
H1782 H 0.67811 0.6879 0.03293 0.0
H1783 H 0.70672 0.67367 0.01909 0.0
C1784 C 0.38063 0.25094 0.02721 0.0
C1785 C 0.36563 0.26319 0.03505 0.0
C1786 C 0.36464 0.25873 0.01922 0.0
C1787 C 0.30937 0.32624 0.00913 0.0
H1788 H 0.29839 0.2586 0.99031 0.0
C1789 C 0.28809 0.32758 0.96962 0.0
C1790 C 0.26451 0.35633 0.969 0.0
C1791 C 0.29658 0.3131 0.97774 0.0
C1792 C 0.30157 0.27789 0.99547 0.0
H1793 H 0.32123 0.29218 0.04061 0.0
H1794 H 0.29374 0.30594 0.02668 0.0
H1795 H 0.32109 0.23873 0.00441 0.0
H1796 H 0.22961 0.39093 0.97635 0.0
H1797 H 0.24341 0.36492 0.99044 0.0
H1798 H 0.29136 0.36571 0.00023 0.0
C1799 C 0.31794 0.29048 0.02673 0.0
C1800 C 0.31445 0.26646 0.00354 0.0
C1801 C 0.3337 0.28245 0.03472 0.0
C1802 C 0.24825 0.3691 0.97661 0.0
C1803 C 0.25637 0.35432 0.98471 0.0
C1804 C 0.2969 0.33775 0.00106 0.0
C1805 C 0.33353 0.27917 0.01891 0.0
C1806 C 0.31856 0.29058 0.01044 0.0
C1807 C 0.28132 0.32674 0.9854 0.0
C1808 C 0.29294 0.31379 0.99411 0.0
H1809 H 0.40514 0.23595 0.02722 0.0
H1810 H 0.37733 0.24988 0.01327 0.0
H1811 H 0.31283 0.34554 0.01429 0.0
H1812 H 0.30113 0.31712 0.96388 0.0
H1813 H 0.31618 0.29215 0.97801 0.0
C1814 C 0.74537 0.86809 0.26963 0.0
C1815 C 0.72873 0.855 0.27716 0.0
C1816 C 0.73828 0.8531 0.2615 0.0
C1817 C 0.69464 0.77608 0.25051 0.0
H1818 H 0.68444 0.84366 0.23164 0.0
C1819 C 0.61632 0.75022 0.21858 0.0
C1820 C 0.63174 0.76231 0.21078 0.0
C1821 C 0.63228 0.75755 0.2266 0.0
C1822 C 0.68762 0.82438 0.23681 0.0
H1823 H 0.69254 0.81506 0.2821 0.0
H1824 H 0.67916 0.78979 0.26791 0.0
H1825 H 0.70493 0.86391 0.24578 0.0
H1826 H 0.67692 0.79034 0.20531 0.0
H1827 H 0.70432 0.80339 0.2193 0.0
H1828 H 0.67561 0.7369 0.24151 0.0
C1829 C 0.69835 0.81109 0.26827 0.0
C1830 C 0.69955 0.83593 0.24493 0.0
C1831 C 0.70587 0.82573 0.27643 0.0
C1832 C 0.66413 0.78077 0.21117 0.0
C1833 C 0.67984 0.78837 0.21919 0.0
C1834 C 0.68223 0.76462 0.24239 0.0
C1835 C 0.71391 0.82505 0.26067 0.0
C1836 C 0.7031 0.812 0.25191 0.0
C1837 C 0.66377 0.77737 0.22698 0.0
C1838 C 0.67849 0.78872 0.23548 0.0
H1839 H 0.76349 0.89033 0.26999 0.0
H1840 H 0.75152 0.86397 0.25584 0.0
H1841 H 0.69753 0.75678 0.25568 0.0
H1842 H 0.59146 0.73584 0.21852 0.0
H1843 H 0.61924 0.74894 0.23252 0.0
C1844 C 0.1895 0.15327 0.46926 0.0
C1845 C 0.21459 0.12575 0.46881 0.0
C1846 C 0.17967 0.16768 0.47729 0.0
C1847 C 0.18054 0.14635 0.50089 0.0
H1848 H 0.15542 0.24553 0.50346 0.0
C1849 C 0.15005 0.20737 0.53432 0.0
C1850 C 0.11776 0.22593 0.5349 0.0
C1851 C 0.16413 0.19818 0.52622 0.0
C1852 C 0.16228 0.21777 0.50281 0.0
H1853 H 0.25012 0.09284 0.47643 0.0
H1854 H 0.23391 0.11869 0.49038 0.0
H1855 H 0.17644 0.22363 0.48938 0.0
H1856 H 0.07592 0.25087 0.52737 0.0
H1857 H 0.10089 0.23505 0.5132 0.0
H1858 H 0.16679 0.14066 0.51434 0.0
C1859 C 0.22089 0.12841 0.48457 0.0
C1860 C 0.17417 0.20514 0.49475 0.0
C1861 C 0.23037 0.1137 0.47655 0.0
C1862 C 0.10077 0.23649 0.52717 0.0
C1863 C 0.1151 0.22757 0.51905 0.0
C1864 C 0.1691 0.15907 0.50895 0.0
C1865 C 0.19501 0.15521 0.48507 0.0
C1866 C 0.18331 0.16919 0.49368 0.0
C1867 C 0.14649 0.20763 0.51851 0.0
C1868 C 0.15972 0.19483 0.50999 0.0
H1869 H 0.17676 0.16313 0.46342 0.0
H1870 H 0.15933 0.18793 0.47741 0.0
H1871 H 0.1865 0.11838 0.50029 0.0
H1872 H 0.16403 0.19894 0.54012 0.0
H1873 H 0.1886 0.18317 0.52598 0.0
C1874 C 0.8909 0.74528 0.71828 0.0
C1875 C 0.87472 0.7306 0.71086 0.0
C1876 C 0.87671 0.73935 0.72656 0.0
C1877 C 0.857 0.70197 0.74329 0.0
H1878 H 0.75613 0.68963 0.7472 0.0
C1879 C 0.79899 0.66675 0.77703 0.0
C1880 C 0.77622 0.63721 0.77704 0.0
C1881 C 0.809 0.68278 0.7692 0.0
C1882 C 0.78436 0.69301 0.74619 0.0
H1883 H 0.83028 0.69897 0.70634 0.0
H1884 H 0.80632 0.68773 0.72074 0.0
H1885 H 0.77714 0.71079 0.73308 0.0
H1886 H 0.74512 0.60218 0.76882 0.0
H1887 H 0.76237 0.63047 0.75517 0.0
H1888 H 0.86406 0.68422 0.75643 0.0
C1889 C 0.82951 0.70451 0.72018 0.0
C1890 C 0.79646 0.70499 0.7381 0.0
C1891 C 0.84345 0.71076 0.7119 0.0
C1892 C 0.76281 0.62478 0.76905 0.0
C1893 C 0.77249 0.64111 0.76124 0.0
C1894 C 0.84485 0.69042 0.75141 0.0
C1895 C 0.84622 0.71829 0.72764 0.0
C1896 C 0.83299 0.70897 0.73649 0.0
C1897 C 0.79606 0.66992 0.76123 0.0
C1898 C 0.80849 0.68523 0.75288 0.0
H1899 H 0.91484 0.76098 0.71771 0.0
H1900 H 0.88989 0.75098 0.73214 0.0
H1901 H 0.88533 0.7041 0.74227 0.0
H1902 H 0.80978 0.67707 0.78306 0.0
H1903 H 0.82704 0.70512 0.76937 0.0
loop_
_geom_bond_atom_site_label_1
_geom_bond_atom_site_label_2
_geom_bond_distance
_geom_bond_site_symmetry_2
_ccdc_geom_bond_type
Co0 O2 2.143 . S
Co0 O8 2.074 . S
Co0 O11 2.093 . S
Co0 O24 2.097 . S
Co0 N41 2.151 . S
Co0 N49 2.214 . S
Co1 O2 2.160 . S
Co1 O7 2.058 . S
Co1 O17 2.057 . S
Co1 O32 2.037 . S
Co1 N36 2.145 . S
Co1 N57 2.257 . S
O2 Co0 2.143 . S
O2 Co1 2.160 . S
C3 O4 1.278 . S
C3 O11 1.224 . S
O4 C3 1.278 . S
C5 O6 1.245 . S
C5 O17 1.232 . S
O6 C5 1.245 . S
O7 Co1 2.058 . S
O7 C33 1.269 . S
O8 Co0 2.074 . S
O8 C33 1.257 . S
H9 C34 0.930 . S
H10 C40 0.930 . S
O11 Co0 2.093 . S
O11 C3 1.224 . S
H12 C44 0.929 . S
H13 C46 0.930 . S
H14 C47 0.930 . S
H15 C45 0.929 . S
H16 C48 0.928 . S
O17 Co1 2.057 . S
O17 C5 1.232 . S
H18 C37 0.929 . S
H19 C38 0.929 . S
H20 C50 0.931 . S
H21 C42 0.929 . S
H22 C51 0.930 . S
H23 C43 0.931 . S
O24 Co0 2.097 . S
O24 C52 1.214 . S
H25 C53 0.929 . S
H26 C54 0.929 . S
H27 C55 0.930 . S
H28 C56 0.929 . S
H29 C58 0.930 . S
H30 C35 0.930 . S
H31 C39 0.930 . S
O32 Co1 2.037 . S
O32 C52 1.234 . S
C33 O7 1.269 . S
C33 O8 1.257 . S
C34 H9 0.930 . S
C34 C37 1.388 1_565 S
C34 C39 1.417 . S
C35 H30 0.930 . S
C35 C38 1.404 1_565 S
C35 C39 1.353 . S
N36 Co1 2.145 . S
N36 C37 1.397 . S
N36 C38 1.334 . S
C37 H18 0.929 . S
C37 C34 1.388 1_545 S
C37 N36 1.397 . S
C38 H19 0.929 . S
C38 C35 1.404 1_545 S
C38 N36 1.334 . S
C39 H31 0.930 . S
C39 C34 1.417 . S
C39 C35 1.353 . S
C40 H10 0.930 . S
C40 N41 1.330 . S
C40 C42 1.446 . S
N41 Co0 2.151 . S
N41 C40 1.330 . S
N41 C45 1.418 . S
C42 H21 0.929 . S
C42 C40 1.446 . S
C42 C43 1.332 . S
C43 H23 0.931 . S
C43 C42 1.332 . S
C43 C44 1.267 . S
C44 H12 0.929 . S
C44 C43 1.267 . S
C44 C45 1.251 . S
C45 H15 0.929 . S
C45 N41 1.418 . S
C45 C44 1.251 . S
C46 H13 0.930 . S
C46 C48 1.406 . S
C46 C51 1.261 . S
C47 H14 0.930 . S
C47 N49 1.325 . S
C47 C50 1.357 . S
C48 H16 0.928 . S
C48 C46 1.406 . S
C48 N49 1.261 . S
N49 Co0 2.214 . S
N49 C47 1.325 . S
N49 C48 1.261 . S
C50 H20 0.931 . S
C50 C47 1.357 . S
C50 C51 1.312 . S
C51 H22 0.930 . S
C51 C46 1.261 . S
C51 C50 1.312 . S
C52 O24 1.214 . S
C52 O32 1.234 . S
C53 H25 0.929 . S
C53 C56 1.391 1_545 S
C53 C58 1.391 . S
C54 H26 0.929 . S
C54 C55 1.390 1_545 S
C54 N57 1.391 . S
C55 H27 0.930 . S
C55 C54 1.390 1_565 S
C55 C56 1.392 . S
C56 H28 0.929 . S
C56 C53 1.391 1_565 S
C56 C55 1.392 . S
N57 Co1 2.257 . S
N57 C54 1.391 . S
N57 C58 1.388 . S
C58 H29 0.930 . S
C58 C53 1.391 . S
C58 N57 1.388 . S
Co59 O61 2.143 . S
Co59 O67 2.074 . S
Co59 O70 2.093 . S
Co59 O83 2.097 . S
Co59 N100 2.151 . S
Co59 N108 2.214 . S
Co60 O61 2.160 . S
Co60 O66 2.058 . S
Co60 O76 2.057 . S
Co60 O91 2.037 . S
Co60 N95 2.145 . S
Co60 N116 2.257 . S
O61 Co59 2.143 . S
O61 Co60 2.160 . S
C62 O63 1.278 . S
C62 O70 1.224 . S
O63 C62 1.278 . S
C64 O65 1.245 . S
C64 O76 1.232 . S
O65 C64 1.245 . S
O66 Co60 2.058 . S
O66 C92 1.269 . S
O67 Co59 2.074 . S
O67 C92 1.257 . S
H68 C93 0.930 . S
H69 C99 0.930 . S
O70 Co59 2.093 . S
O70 C62 1.224 . S
H71 C103 0.929 . S
H72 C105 0.930 . S
H73 C106 0.930 . S
H74 C104 0.929 . S
H75 C107 0.928 . S
O76 Co60 2.057 . S
O76 C64 1.232 . S
H77 C96 0.929 . S
H78 C97 0.929 . S
H79 C109 0.931 . S
H80 C101 0.929 . S
H81 C110 0.930 . S
H82 C102 0.931 . S
O83 Co59 2.097 . S
O83 C111 1.214 . S
H84 C112 0.929 . S
H85 C113 0.929 . S
H86 C114 0.930 . S
H87 C115 0.929 . S
H88 C117 0.930 . S
H89 C94 0.930 . S
H90 C98 0.930 . S
O91 Co60 2.037 . S
O91 C111 1.234 . S
C92 O66 1.269 . S
C92 O67 1.257 . S
C93 H68 0.930 . S
C93 C96 1.387 1_455 S
C93 C98 1.418 . S
C94 H89 0.930 . S
C94 C97 1.404 1_455 S
C94 C98 1.353 . S
N95 Co60 2.145 . S
N95 C96 1.397 . S
N95 C97 1.334 . S
C96 H77 0.929 . S
C96 C93 1.387 1_655 S
C96 N95 1.397 . S
C97 H78 0.929 . S
C97 C94 1.404 1_655 S
C97 N95 1.334 . S
C98 H90 0.930 . S
C98 C93 1.418 . S
C98 C94 1.353 . S
C99 H69 0.930 . S
C99 N100 1.330 . S
C99 C101 1.446 . S
N100 Co59 2.151 . S
N100 C99 1.330 . S
N100 C104 1.418 . S
C101 H80 0.929 . S
C101 C99 1.446 . S
C101 C102 1.332 . S
C102 H82 0.931 . S
C102 C101 1.332 . S
C102 C103 1.267 . S
C103 H71 0.929 . S
C103 C102 1.267 . S
C103 C104 1.251 . S
C104 H74 0.929 . S
C104 N100 1.418 . S
C104 C103 1.251 . S
C105 H72 0.930 . S
C105 C107 1.406 . S
C105 C110 1.261 . S
C106 H73 0.930 . S
C106 N108 1.325 . S
C106 C109 1.357 . S
C107 H75 0.928 . S
C107 C105 1.406 . S
C107 N108 1.261 . S
N108 Co59 2.214 . S
N108 C106 1.325 . S
N108 C107 1.261 . S
C109 H79 0.931 . S
C109 C106 1.357 . S
C109 C110 1.312 . S
C110 H81 0.930 . S
C110 C105 1.261 . S
C110 C109 1.312 . S
C111 O83 1.214 . S
C111 O91 1.234 . S
C112 H84 0.929 . S
C112 C115 1.391 1_655 S
C112 C117 1.391 . S
C113 H85 0.929 . S
C113 C114 1.390 1_655 S
C113 N116 1.391 . S
C114 H86 0.930 . S
C114 C113 1.390 1_455 S
C114 C115 1.392 . S
C115 H87 0.929 . S
C115 C112 1.391 1_455 S
C115 C114 1.392 . S
N116 Co60 2.257 . S
N116 C113 1.391 . S
N116 C117 1.388 . S
C117 H88 0.930 . S
C117 C112 1.391 . S
C117 N116 1.388 . S
Co118 O120 2.143 . S
Co118 O126 2.074 . S
Co118 O129 2.093 . S
Co118 O142 2.097 . S
Co118 N159 2.151 . S
Co118 N167 2.214 . S
Co119 O120 2.160 . S
Co119 O125 2.058 . S
Co119 O135 2.057 . S
Co119 O150 2.037 . S
Co119 N154 2.145 . S
Co119 N175 2.257 . S
O120 Co118 2.143 . S
O120 Co119 2.160 . S
C121 O122 1.278 . S
C121 O129 1.224 . S
O122 C121 1.278 . S
C123 O124 1.245 . S
C123 O135 1.232 . S
O124 C123 1.245 . S
O125 Co119 2.058 . S
O125 C151 1.269 . S
O126 Co118 2.074 . S
O126 C151 1.257 . S
H127 C152 0.930 . S
H128 C158 0.930 . S
O129 Co118 2.093 . S
O129 C121 1.224 . S
H130 C162 0.929 . S
H131 C164 0.930 . S
H132 C165 0.930 . S
H133 C163 0.929 . S
H134 C166 0.928 . S
O135 Co119 2.057 . S
O135 C123 1.232 . S
H136 C155 0.929 . S
H137 C156 0.929 . S
H138 C168 0.931 . S
H139 C160 0.929 . S
H140 C169 0.930 . S
H141 C161 0.931 . S
O142 Co118 2.097 . S
O142 C170 1.214 . S
H143 C171 0.929 . S
H144 C172 0.929 . S
H145 C173 0.930 . S
H146 C174 0.929 . S
H147 C176 0.930 . S
H148 C153 0.930 . S
H149 C157 0.930 . S
O150 Co119 2.037 . S
O150 C170 1.234 . S
C151 O125 1.269 . S
C151 O126 1.257 . S
C152 H127 0.930 . S
C152 C155 1.388 . S
C152 C157 1.418 . S
C153 H148 0.930 . S
C153 C156 1.404 . S
C153 C157 1.353 . S
N154 Co119 2.145 . S
N154 C155 1.397 . S
N154 C156 1.334 . S
C155 H136 0.929 . S
C155 C152 1.388 . S
C155 N154 1.397 . S
C156 H137 0.929 . S
C156 C153 1.404 . S
C156 N154 1.334 . S
C157 H149 0.930 . S
C157 C152 1.418 . S
C157 C153 1.353 . S
C158 H128 0.930 . S
C158 N159 1.330 . S
C158 C160 1.446 . S
N159 Co118 2.151 . S
N159 C158 1.330 . S
N159 C163 1.418 . S
C160 H139 0.929 . S
C160 C158 1.446 . S
C160 C161 1.332 . S
C161 H141 0.931 . S
C161 C160 1.332 . S
C161 C162 1.267 . S
C162 H130 0.929 . S
C162 C161 1.267 . S
C162 C163 1.251 . S
C163 H133 0.929 . S
C163 N159 1.418 . S
C163 C162 1.251 . S
C164 H131 0.930 . S
C164 C166 1.406 . S
C164 C169 1.261 . S
C165 H132 0.930 . S
C165 N167 1.325 . S
C165 C168 1.357 . S
C166 H134 0.928 . S
C166 C164 1.406 . S
C166 N167 1.261 . S
N167 Co118 2.214 . S
N167 C165 1.325 . S
N167 C166 1.261 . S
C168 H138 0.931 . S
C168 C165 1.357 . S
C168 C169 1.312 . S
C169 H140 0.930 . S
C169 C164 1.261 . S
C169 C168 1.312 . S
C170 O142 1.214 . S
C170 O150 1.234 . S
C171 H143 0.929 . S
C171 C174 1.391 . S
C171 C176 1.391 . S
C172 H144 0.929 . S
C172 C173 1.390 . S
C172 N175 1.391 . S
C173 H145 0.930 . S
C173 C172 1.390 . S
C173 C174 1.392 . S
C174 H146 0.929 . S
C174 C171 1.391 . S
C174 C173 1.392 . S
N175 Co119 2.257 . S
N175 C172 1.391 . S
N175 C176 1.388 . S
C176 H147 0.930 . S
C176 C171 1.391 . S
C176 N175 1.388 . S
Co177 O179 2.143 . S
Co177 O185 2.074 . S
Co177 O188 2.093 . S
Co177 O201 2.097 . S
Co177 N218 2.151 . S
Co177 N226 2.214 . S
Co178 O179 2.160 . S
Co178 O184 2.058 . S
Co178 O194 2.057 . S
Co178 O209 2.037 . S
Co178 N213 2.145 . S
Co178 N234 2.257 . S
O179 Co177 2.143 . S
O179 Co178 2.160 . S
C180 O181 1.278 . S
C180 O188 1.224 . S
O181 C180 1.278 . S
C182 O183 1.245 . S
C182 O194 1.232 . S
O183 C182 1.245 . S
O184 Co178 2.058 . S
O184 C210 1.269 . S
O185 Co177 2.074 . S
O185 C210 1.257 . S
H186 C211 0.930 . S
H187 C217 0.930 . S
O188 Co177 2.093 . S
O188 C180 1.224 . S
H189 C221 0.929 . S
H190 C223 0.930 . S
H191 C224 0.930 . S
H192 C222 0.929 . S
H193 C225 0.928 . S
O194 Co178 2.057 . S
O194 C182 1.232 . S
H195 C214 0.929 . S
H196 C215 0.929 . S
H197 C227 0.931 . S
H198 C219 0.929 . S
H199 C228 0.930 . S
H200 C220 0.931 . S
O201 Co177 2.097 . S
O201 C229 1.214 . S
H202 C230 0.929 . S
H203 C231 0.929 . S
H204 C232 0.930 . S
H205 C233 0.929 . S
H206 C235 0.930 . S
H207 C212 0.930 . S
H208 C216 0.930 . S
O209 Co178 2.037 . S
O209 C229 1.234 . S
C210 O184 1.269 . S
C210 O185 1.257 . S
C211 H186 0.930 . S
C211 C214 1.388 . S
C211 C216 1.418 . S
C212 H207 0.930 . S
C212 C215 1.404 . S
C212 C216 1.353 . S
N213 Co178 2.145 . S
N213 C214 1.397 . S
N213 C215 1.334 . S
C214 H195 0.929 . S
C214 C211 1.388 . S
C214 N213 1.397 . S
C215 H196 0.929 . S
C215 C212 1.404 . S
C215 N213 1.334 . S
C216 H208 0.930 . S
C216 C211 1.418 . S
C216 C212 1.353 . S
C217 H187 0.930 . S
C217 N218 1.330 . S
C217 C219 1.446 . S
N218 Co177 2.151 . S
N218 C217 1.330 . S
N218 C222 1.418 . S
C219 H198 0.929 . S
C219 C217 1.446 . S
C219 C220 1.332 . S
C220 H200 0.931 . S
C220 C219 1.332 . S
C220 C221 1.267 . S
C221 H189 0.929 . S
C221 C220 1.267 . S
C221 C222 1.251 . S
C222 H192 0.929 . S
C222 N218 1.418 . S
C222 C221 1.251 . S
C223 H190 0.930 . S
C223 C225 1.406 . S
C223 C228 1.261 . S
C224 H191 0.930 . S
C224 N226 1.325 . S
C224 C227 1.357 . S
C225 H193 0.928 . S
C225 C223 1.406 . S
C225 N226 1.261 . S
N226 Co177 2.214 . S
N226 C224 1.325 . S
N226 C225 1.261 . S
C227 H197 0.931 . S
C227 C224 1.357 . S
C227 C228 1.312 . S
C228 H199 0.930 . S
C228 C223 1.261 . S
C228 C227 1.312 . S
C229 O201 1.214 . S
C229 O209 1.234 . S
C230 H202 0.929 . S
C230 C233 1.391 . S
C230 C235 1.391 . S
C231 H203 0.929 . S
C231 C232 1.390 . S
C231 N234 1.391 . S
C232 H204 0.930 . S
C232 C231 1.390 . S
C232 C233 1.392 . S
C233 H205 0.929 . S
C233 C230 1.391 . S
C233 C232 1.392 . S
N234 Co178 2.257 . S
N234 C231 1.391 . S
N234 C235 1.388 . S
C235 H206 0.930 . S
C235 C230 1.391 . S
C235 N234 1.388 . S
Co236 O238 2.143 . S
Co236 O244 2.074 . S
Co236 O247 2.093 . S
Co236 O260 2.097 . S
Co236 N277 2.151 . S
Co236 N285 2.214 . S
Co237 O238 2.160 . S
Co237 O243 2.058 . S
Co237 O253 2.057 . S
Co237 O268 2.037 . S
Co237 N272 2.145 . S
Co237 N293 2.257 . S
O238 Co236 2.143 . S
O238 Co237 2.160 . S
C239 O240 1.278 . S
C239 O247 1.224 . S
O240 C239 1.278 . S
C241 O242 1.245 . S
C241 O253 1.232 . S
O242 C241 1.245 . S
O243 Co237 2.058 . S
O243 C269 1.269 . S
O244 Co236 2.074 . S
O244 C269 1.257 . S
H245 C270 0.930 . S
H246 C276 0.930 . S
O247 Co236 2.093 . S
O247 C239 1.224 . S
H248 C280 0.929 . S
H249 C282 0.930 . S
H250 C283 0.930 . S
H251 C281 0.929 . S
H252 C284 0.928 . S
O253 Co237 2.057 . S
O253 C241 1.232 . S
H254 C273 0.929 . S
H255 C274 0.929 . S
H256 C286 0.931 . S
H257 C278 0.929 . S
H258 C287 0.930 . S
H259 C279 0.931 . S
O260 Co236 2.097 . S
O260 C288 1.214 . S
H261 C289 0.929 . S
H262 C290 0.929 . S
H263 C291 0.930 . S
H264 C292 0.929 . S
H265 C294 0.930 . S
H266 C271 0.930 . S
H267 C275 0.930 . S
O268 Co237 2.037 . S
O268 C288 1.234 . S
C269 O243 1.269 . S
C269 O244 1.257 . S
C270 H245 0.930 . S
C270 C273 1.388 . S
C270 C275 1.418 . S
C271 H266 0.930 . S
C271 C274 1.404 . S
C271 C275 1.353 . S
N272 Co237 2.145 . S
N272 C273 1.397 . S
N272 C274 1.334 . S
C273 H254 0.929 . S
C273 C270 1.388 . S
C273 N272 1.397 . S
C274 H255 0.929 . S
C274 C271 1.404 . S
C274 N272 1.334 . S
C275 H267 0.930 . S
C275 C270 1.418 . S
C275 C271 1.353 . S
C276 H246 0.930 . S
C276 N277 1.330 . S
C276 C278 1.446 . S
N277 Co236 2.151 . S
N277 C276 1.330 . S
N277 C281 1.418 . S
C278 H257 0.929 . S
C278 C276 1.446 . S
C278 C279 1.332 . S
C279 H259 0.931 . S
C279 C278 1.332 . S
C279 C280 1.267 . S
C280 H248 0.929 . S
C280 C279 1.267 . S
C280 C281 1.251 . S
C281 H251 0.929 . S
C281 N277 1.418 . S
C281 C280 1.251 . S
C282 H249 0.930 . S
C282 C284 1.406 . S
C282 C287 1.261 . S
C283 H250 0.930 . S
C283 N285 1.325 . S
C283 C286 1.357 . S
C284 H252 0.928 . S
C284 C282 1.406 . S
C284 N285 1.261 . S
N285 Co236 2.214 . S
N285 C283 1.325 . S
N285 C284 1.261 . S
C286 H256 0.931 . S
C286 C283 1.357 . S
C286 C287 1.312 . S
C287 H258 0.930 . S
C287 C282 1.261 . S
C287 C286 1.312 . S
C288 O260 1.214 . S
C288 O268 1.234 . S
C289 H261 0.929 . S
C289 C292 1.391 . S
C289 C294 1.391 . S
C290 H262 0.929 . S
C290 C291 1.390 . S
C290 N293 1.391 . S
C291 H263 0.930 . S
C291 C290 1.390 . S
C291 C292 1.392 . S
C292 H264 0.929 . S
C292 C289 1.391 . S
C292 C291 1.392 . S
N293 Co237 2.257 . S
N293 C290 1.391 . S
N293 C294 1.388 . S
C294 H265 0.930 . S
C294 C289 1.391 . S
C294 N293 1.388 . S
Co295 O297 2.143 . S
Co295 O303 2.074 . S
Co295 O306 2.093 . S
Co295 O319 2.097 . S
Co295 N336 2.151 . S
Co295 N344 2.214 . S
Co296 O297 2.160 . S
Co296 O302 2.058 . S
Co296 O312 2.057 . S
Co296 O327 2.037 . S
Co296 N331 2.145 . S
Co296 N352 2.257 . S
O297 Co295 2.143 . S
O297 Co296 2.160 . S
C298 O299 1.278 . S
C298 O306 1.224 . S
O299 C298 1.278 . S
C300 O301 1.245 . S
C300 O312 1.232 . S
O301 C300 1.245 . S
O302 Co296 2.058 . S
O302 C328 1.269 . S
O303 Co295 2.074 . S
O303 C328 1.257 . S
H304 C329 0.930 . S
H305 C335 0.930 . S
O306 Co295 2.093 . S
O306 C298 1.224 . S
H307 C339 0.929 . S
H308 C341 0.930 . S
H309 C342 0.930 . S
H310 C340 0.929 . S
H311 C343 0.928 . S
O312 Co296 2.057 . S
O312 C300 1.232 . S
H313 C332 0.929 . S
H314 C333 0.929 . S
H315 C345 0.931 . S
H316 C337 0.929 . S
H317 C346 0.930 . S
H318 C338 0.931 . S
O319 Co295 2.097 . S
O319 C347 1.214 . S
H320 C348 0.929 . S
H321 C349 0.929 . S
H322 C350 0.930 . S
H323 C351 0.929 . S
H324 C353 0.930 . S
H325 C330 0.930 . S
H326 C334 0.930 . S
O327 Co296 2.037 . S
O327 C347 1.234 . S
C328 O302 1.269 . S
C328 O303 1.257 . S
C329 H304 0.930 . S
C329 C332 1.388 . S
C329 C334 1.418 . S
C330 H325 0.930 . S
C330 C333 1.404 . S
C330 C334 1.353 . S
N331 Co296 2.145 . S
N331 C332 1.397 . S
N331 C333 1.334 . S
C332 H313 0.929 . S
C332 C329 1.388 . S
C332 N331 1.397 . S
C333 H314 0.929 . S
C333 C330 1.404 . S
C333 N331 1.334 . S
C334 H326 0.930 . S
C334 C329 1.418 . S
C334 C330 1.353 . S
C335 H305 0.930 . S
C335 N336 1.330 . S
C335 C337 1.446 . S
N336 Co295 2.151 . S
N336 C335 1.330 . S
N336 C340 1.418 . S
C337 H316 0.929 . S
C337 C335 1.446 . S
C337 C338 1.332 . S
C338 H318 0.931 . S
C338 C337 1.332 . S
C338 C339 1.267 . S
C339 H307 0.929 . S
C339 C338 1.267 . S
C339 C340 1.251 . S
C340 H310 0.929 . S
C340 N336 1.418 . S
C340 C339 1.251 . S
C341 H308 0.930 . S
C341 C343 1.406 . S
C341 C346 1.261 . S
C342 H309 0.930 . S
C342 N344 1.325 . S
C342 C345 1.357 . S
C343 H311 0.928 . S
C343 C341 1.406 . S
C343 N344 1.261 . S
N344 Co295 2.214 . S
N344 C342 1.325 . S
N344 C343 1.261 . S
C345 H315 0.931 . S
C345 C342 1.357 . S
C345 C346 1.312 . S
C346 H317 0.930 . S
C346 C341 1.261 . S
C346 C345 1.312 . S
C347 O319 1.214 . S
C347 O327 1.234 . S
C348 H320 0.929 . S
C348 C351 1.391 . S
C348 C353 1.391 . S
C349 H321 0.929 . S
C349 C350 1.390 . S
C349 N352 1.391 . S
C350 H322 0.930 . S
C350 C349 1.390 . S
C350 C351 1.392 . S
C351 H323 0.929 . S
C351 C348 1.391 . S
C351 C350 1.392 . S
N352 Co296 2.257 . S
N352 C349 1.391 . S
N352 C353 1.388 . S
C353 H324 0.930 . S
C353 C348 1.391 . S
C353 N352 1.388 . S
Co354 O356 2.143 . S
Co354 O362 2.074 . S
Co354 O365 2.093 . S
Co354 O378 2.097 . S
Co354 N395 2.151 . S
Co354 N403 2.214 . S
Co355 O356 2.160 . S
Co355 O361 2.058 . S
Co355 O371 2.057 . S
Co355 O386 2.037 . S
Co355 N390 2.145 . S
Co355 N411 2.257 . S
O356 Co354 2.143 . S
O356 Co355 2.160 . S
C357 O358 1.278 . S
C357 O365 1.224 . S
O358 C357 1.278 . S
C359 O360 1.245 . S
C359 O371 1.232 . S
O360 C359 1.245 . S
O361 Co355 2.058 . S
O361 C387 1.269 . S
O362 Co354 2.074 . S
O362 C387 1.257 . S
H363 C388 0.930 . S
H364 C394 0.930 . S
O365 Co354 2.093 . S
O365 C357 1.224 . S
H366 C398 0.929 . S
H367 C400 0.930 . S
H368 C401 0.930 . S
H369 C399 0.929 . S
H370 C402 0.928 . S
O371 Co355 2.057 . S
O371 C359 1.232 . S
H372 C391 0.929 . S
H373 C392 0.929 . S
H374 C404 0.931 . S
H375 C396 0.929 . S
H376 C405 0.930 . S
H377 C397 0.931 . S
O378 Co354 2.097 . S
O378 C406 1.214 . S
H379 C407 0.929 . S
H380 C408 0.929 . S
H381 C409 0.930 . S
H382 C410 0.929 . S
H383 C412 0.930 . S
H384 C389 0.930 . S
H385 C393 0.930 . S
O386 Co355 2.037 . S
O386 C406 1.234 . S
C387 O361 1.269 . S
C387 O362 1.257 . S
C388 H363 0.930 . S
C388 C391 1.387 1_565 S
C388 C393 1.418 . S
C389 H384 0.930 . S
C389 C392 1.404 1_565 S
C389 C393 1.353 . S
N390 Co355 2.145 . S
N390 C391 1.397 . S
N390 C392 1.334 . S
C391 H372 0.929 . S
C391 C388 1.387 1_545 S
C391 N390 1.397 . S
C392 H373 0.929 . S
C392 C389 1.404 1_545 S
C392 N390 1.334 . S
C393 H385 0.930 . S
C393 C388 1.418 . S
C393 C389 1.353 . S
C394 H364 0.930 . S
C394 N395 1.330 . S
C394 C396 1.446 . S
N395 Co354 2.151 . S
N395 C394 1.330 . S
N395 C399 1.418 . S
C396 H375 0.929 . S
C396 C394 1.446 . S
C396 C397 1.332 . S
C397 H377 0.931 . S
C397 C396 1.332 . S
C397 C398 1.267 . S
C398 H366 0.929 . S
C398 C397 1.267 . S
C398 C399 1.251 . S
C399 H369 0.929 . S
C399 N395 1.418 . S
C399 C398 1.251 . S
C400 H367 0.930 . S
C400 C402 1.406 . S
C400 C405 1.261 . S
C401 H368 0.930 . S
C401 N403 1.325 . S
C401 C404 1.357 . S
C402 H370 0.928 . S
C402 C400 1.406 . S
C402 N403 1.261 . S
N403 Co354 2.214 . S
N403 C401 1.325 . S
N403 C402 1.261 . S
C404 H374 0.931 . S
C404 C401 1.357 . S
C404 C405 1.312 . S
C405 H376 0.930 . S
C405 C400 1.261 . S
C405 C404 1.312 . S
C406 O378 1.214 . S
C406 O386 1.234 . S
C407 H379 0.929 . S
C407 C410 1.391 1_545 S
C407 C412 1.391 . S
C408 H380 0.929 . S
C408 C409 1.390 1_545 S
C408 N411 1.391 . S
C409 H381 0.930 . S
C409 C408 1.390 1_565 S
C409 C410 1.392 . S
C410 H382 0.929 . S
C410 C407 1.391 1_565 S
C410 C409 1.392 . S
N411 Co355 2.257 . S
N411 C408 1.391 . S
N411 C412 1.388 . S
C412 H383 0.930 . S
C412 C407 1.391 . S
C412 N411 1.388 . S
Co413 O415 2.143 . S
Co413 O421 2.074 . S
Co413 O424 2.093 . S
Co413 O437 2.097 . S
Co413 N454 2.151 . S
Co413 N462 2.214 . S
Co414 O415 2.160 . S
Co414 O420 2.058 . S
Co414 O430 2.057 . S
Co414 O445 2.037 . S
Co414 N449 2.145 . S
Co414 N470 2.257 . S
O415 Co413 2.143 . S
O415 Co414 2.160 . S
C416 O417 1.278 . S
C416 O424 1.224 . S
O417 C416 1.278 . S
C418 O419 1.245 . S
C418 O430 1.232 . S
O419 C418 1.245 . S
O420 Co414 2.058 . S
O420 C446 1.269 . S
O421 Co413 2.074 . S
O421 C446 1.257 . S
H422 C447 0.930 . S
H423 C453 0.930 . S
O424 Co413 2.093 . S
O424 C416 1.224 . S
H425 C457 0.929 . S
H426 C459 0.930 . S
H427 C460 0.930 . S
H428 C458 0.929 . S
H429 C461 0.928 . S
O430 Co414 2.057 . S
O430 C418 1.232 . S
H431 C450 0.929 . S
H432 C451 0.929 . S
H433 C463 0.931 . S
H434 C455 0.929 . S
H435 C464 0.930 . S
H436 C456 0.931 . S
O437 Co413 2.097 . S
O437 C465 1.214 . S
H438 C466 0.929 . S
H439 C467 0.929 . S
H440 C468 0.930 . S
H441 C469 0.929 . S
H442 C471 0.930 . S
H443 C448 0.930 . S
H444 C452 0.930 . S
O445 Co414 2.037 . S
O445 C465 1.234 . S
C446 O420 1.269 . S
C446 O421 1.257 . S
C447 H422 0.930 . S
C447 C450 1.388 1_455 S
C447 C452 1.417 . S
C448 H443 0.930 . S
C448 C451 1.404 1_455 S
C448 C452 1.353 . S
N449 Co414 2.145 . S
N449 C450 1.397 . S
N449 C451 1.334 . S
C450 H431 0.929 . S
C450 C447 1.388 1_655 S
C450 N449 1.397 . S
C451 H432 0.929 . S
C451 C448 1.404 1_655 S
C451 N449 1.334 . S
C452 H444 0.930 . S
C452 C447 1.417 . S
C452 C448 1.353 . S
C453 H423 0.930 . S
C453 N454 1.330 . S
C453 C455 1.446 . S
N454 Co413 2.151 . S
N454 C453 1.330 . S
N454 C458 1.418 . S
C455 H434 0.929 . S
C455 C453 1.446 . S
C455 C456 1.332 . S
C456 H436 0.931 . S
C456 C455 1.332 . S
C456 C457 1.267 . S
C457 H425 0.929 . S
C457 C456 1.267 . S
C457 C458 1.251 . S
C458 H428 0.929 . S
C458 N454 1.418 . S
C458 C457 1.251 . S
C459 H426 0.930 . S
C459 C461 1.406 . S
C459 C464 1.261 . S
C460 H427 0.930 . S
C460 N462 1.325 . S
C460 C463 1.357 . S
C461 H429 0.928 . S
C461 C459 1.406 . S
C461 N462 1.261 . S
N462 Co413 2.214 . S
N462 C460 1.325 . S
N462 C461 1.261 . S
C463 H433 0.931 . S
C463 C460 1.357 . S
C463 C464 1.312 . S
C464 H435 0.930 . S
C464 C459 1.261 . S
C464 C463 1.312 . S
C465 O437 1.214 . S
C465 O445 1.234 . S
C466 H438 0.929 . S
C466 C469 1.391 1_655 S
C466 C471 1.391 . S
C467 H439 0.929 . S
C467 C468 1.390 1_655 S
C467 N470 1.391 . S
C468 H440 0.930 . S
C468 C467 1.390 1_455 S
C468 C469 1.392 . S
C469 H441 0.929 . S
C469 C466 1.391 1_455 S
C469 C468 1.392 . S
N470 Co414 2.257 . S
N470 C467 1.391 . S
N470 C471 1.388 . S
C471 H442 0.930 . S
C471 C466 1.391 . S
C471 N470 1.388 . S
Co472 O474 2.143 . S
Co472 O480 2.074 . S
Co472 O483 2.093 . S
Co472 O496 2.097 . S
Co472 N513 2.151 . S
Co472 N521 2.214 . S
Co473 O474 2.160 . S
Co473 O479 2.058 . S
Co473 O489 2.057 . S
Co473 O504 2.037 . S
Co473 N508 2.145 . S
Co473 N529 2.257 . S
O474 Co472 2.143 . S
O474 Co473 2.160 . S
C475 O476 1.278 . S
C475 O483 1.224 . S
O476 C475 1.278 . S
C477 O478 1.245 . S
C477 O489 1.232 . S
O478 C477 1.245 . S
O479 Co473 2.058 . S
O479 C505 1.269 . S
O480 Co472 2.074 . S
O480 C505 1.257 . S
H481 C506 0.930 . S
H482 C512 0.930 . S
O483 Co472 2.093 . S
O483 C475 1.224 . S
H484 C516 0.929 . S
H485 C518 0.930 . S
H486 C519 0.930 . S
H487 C517 0.929 . S
H488 C520 0.928 . S
O489 Co473 2.057 . S
O489 C477 1.232 . S
H490 C509 0.929 . S
H491 C510 0.929 . S
H492 C522 0.931 . S
H493 C514 0.929 . S
H494 C523 0.930 . S
H495 C515 0.931 . S
O496 Co472 2.097 . S
O496 C524 1.214 . S
H497 C525 0.929 . S
H498 C526 0.929 . S
H499 C527 0.930 . S
H500 C528 0.929 . S
H501 C530 0.930 . S
H502 C507 0.930 . S
H503 C511 0.930 . S
O504 Co473 2.037 . S
O504 C524 1.234 . S
C505 O479 1.269 . S
C505 O480 1.257 . S
C506 H481 0.930 . S
C506 C509 1.388 . S
C506 C511 1.418 . S
C507 H502 0.930 . S
C507 C510 1.404 . S
C507 C511 1.353 . S
N508 Co473 2.145 . S
N508 C509 1.397 . S
N508 C510 1.334 . S
C509 H490 0.929 . S
C509 C506 1.388 . S
C509 N508 1.397 . S
C510 H491 0.929 . S
C510 C507 1.404 . S
C510 N508 1.334 . S
C511 H503 0.930 . S
C511 C506 1.418 . S
C511 C507 1.353 . S
C512 H482 0.930 . S
C512 N513 1.330 . S
C512 C514 1.446 . S
N513 Co472 2.151 . S
N513 C512 1.330 . S
N513 C517 1.418 . S
C514 H493 0.929 . S
C514 C512 1.446 . S
C514 C515 1.332 . S
C515 H495 0.931 . S
C515 C514 1.332 . S
C515 C516 1.267 . S
C516 H484 0.929 . S
C516 C515 1.267 . S
C516 C517 1.251 . S
C517 H487 0.929 . S
C517 N513 1.418 . S
C517 C516 1.251 . S
C518 H485 0.930 . S
C518 C520 1.406 . S
C518 C523 1.261 . S
C519 H486 0.930 . S
C519 N521 1.325 . S
C519 C522 1.357 . S
C520 H488 0.928 . S
C520 C518 1.406 . S
C520 N521 1.261 . S
N521 Co472 2.214 . S
N521 C519 1.325 . S
N521 C520 1.261 . S
C522 H492 0.931 . S
C522 C519 1.357 . S
C522 C523 1.312 . S
C523 H494 0.930 . S
C523 C518 1.261 . S
C523 C522 1.312 . S
C524 O496 1.214 . S
C524 O504 1.234 . S
C525 H497 0.929 . S
C525 C528 1.391 . S
C525 C530 1.391 . S
C526 H498 0.929 . S
C526 C527 1.390 . S
C526 N529 1.391 . S
C527 H499 0.930 . S
C527 C526 1.390 . S
C527 C528 1.392 . S
C528 H500 0.929 . S
C528 C525 1.391 . S
C528 C527 1.392 . S
N529 Co473 2.257 . S
N529 C526 1.391 . S
N529 C530 1.388 . S
C530 H501 0.930 . S
C530 C525 1.391 . S
C530 N529 1.388 . S
Co531 O533 2.143 . S
Co531 O539 2.074 . S
Co531 O542 2.093 . S
Co531 O555 2.097 . S
Co531 N572 2.151 . S
Co531 N580 2.214 . S
Co532 O533 2.160 . S
Co532 O538 2.058 . S
Co532 O548 2.057 . S
Co532 O563 2.037 . S
Co532 N567 2.145 . S
Co532 N588 2.257 . S
O533 Co531 2.143 . S
O533 Co532 2.160 . S
C534 O535 1.278 . S
C534 O542 1.224 . S
O535 C534 1.278 . S
C536 O537 1.245 . S
C536 O548 1.232 . S
O537 C536 1.245 . S
O538 Co532 2.058 . S
O538 C564 1.269 . S
O539 Co531 2.074 . S
O539 C564 1.257 . S
H540 C565 0.930 . S
H541 C571 0.930 . S
O542 Co531 2.093 . S
O542 C534 1.224 . S
H543 C575 0.929 . S
H544 C577 0.930 . S
H545 C578 0.930 . S
H546 C576 0.929 . S
H547 C579 0.928 . S
O548 Co532 2.057 . S
O548 C536 1.232 . S
H549 C568 0.929 . S
H550 C569 0.929 . S
H551 C581 0.931 . S
H552 C573 0.929 . S
H553 C582 0.930 . S
H554 C574 0.931 . S
O555 Co531 2.097 . S
O555 C583 1.214 . S
H556 C584 0.929 . S
H557 C585 0.929 . S
H558 C586 0.930 . S
H559 C587 0.929 . S
H560 C589 0.930 . S
H561 C566 0.930 . S
H562 C570 0.930 . S
O563 Co532 2.037 . S
O563 C583 1.234 . S
C564 O538 1.269 . S
C564 O539 1.257 . S
C565 H540 0.930 . S
C565 C568 1.388 . S
C565 C570 1.418 . S
C566 H561 0.930 . S
C566 C569 1.404 . S
C566 C570 1.353 . S
N567 Co532 2.145 . S
N567 C568 1.397 . S
N567 C569 1.334 . S
C568 H549 0.929 . S
C568 C565 1.388 . S
C568 N567 1.397 . S
C569 H550 0.929 . S
C569 C566 1.404 . S
C569 N567 1.334 . S
C570 H562 0.930 . S
C570 C565 1.418 . S
C570 C566 1.353 . S
C571 H541 0.930 . S
C571 N572 1.330 . S
C571 C573 1.446 . S
N572 Co531 2.151 . S
N572 C571 1.330 . S
N572 C576 1.418 . S
C573 H552 0.929 . S
C573 C571 1.446 . S
C573 C574 1.332 . S
C574 H554 0.931 . S
C574 C573 1.332 . S
C574 C575 1.267 . S
C575 H543 0.929 . S
C575 C574 1.267 . S
C575 C576 1.251 . S
C576 H546 0.929 . S
C576 N572 1.418 . S
C576 C575 1.251 . S
C577 H544 0.930 . S
C577 C579 1.406 . S
C577 C582 1.261 . S
C578 H545 0.930 . S
C578 N580 1.325 . S
C578 C581 1.357 . S
C579 H547 0.928 . S
C579 C577 1.406 . S
C579 N580 1.261 . S
N580 Co531 2.214 . S
N580 C578 1.325 . S
N580 C579 1.261 . S
C581 H551 0.931 . S
C581 C578 1.357 . S
C581 C582 1.312 . S
C582 H553 0.930 . S
C582 C577 1.261 . S
C582 C581 1.312 . S
C583 O555 1.214 . S
C583 O563 1.234 . S
C584 H556 0.929 . S
C584 C587 1.391 . S
C584 C589 1.391 . S
C585 H557 0.929 . S
C585 C586 1.390 . S
C585 N588 1.391 . S
C586 H558 0.930 . S
C586 C585 1.390 . S
C586 C587 1.392 . S
C587 H559 0.929 . S
C587 C584 1.391 . S
C587 C586 1.392 . S
N588 Co532 2.257 . S
N588 C585 1.391 . S
N588 C589 1.388 . S
C589 H560 0.930 . S
C589 C584 1.391 . S
C589 N588 1.388 . S
Co590 O592 2.143 . S
Co590 O598 2.074 . S
Co590 O601 2.093 . S
Co590 O614 2.097 . S
Co590 N631 2.151 . S
Co590 N639 2.214 . S
Co591 O592 2.160 . S
Co591 O597 2.058 . S
Co591 O607 2.057 . S
Co591 O622 2.037 . S
Co591 N626 2.145 . S
Co591 N647 2.257 . S
O592 Co590 2.143 . S
O592 Co591 2.160 . S
C593 O594 1.278 . S
C593 O601 1.224 . S
O594 C593 1.278 . S
C595 O596 1.245 . S
C595 O607 1.232 . S
O596 C595 1.245 . S
O597 Co591 2.058 . S
O597 C623 1.269 . S
O598 Co590 2.074 . S
O598 C623 1.257 . S
H599 C624 0.930 . S
H600 C630 0.930 . S
O601 Co590 2.093 . S
O601 C593 1.224 . S
H602 C634 0.929 . S
H603 C636 0.930 . S
H604 C637 0.930 . S
H605 C635 0.929 . S
H606 C638 0.928 . S
O607 Co591 2.057 . S
O607 C595 1.232 . S
H608 C627 0.929 . S
H609 C628 0.929 . S
H610 C640 0.931 . S
H611 C632 0.929 . S
H612 C641 0.930 . S
H613 C633 0.931 . S
O614 Co590 2.097 . S
O614 C642 1.214 . S
H615 C643 0.929 . S
H616 C644 0.929 . S
H617 C645 0.930 . S
H618 C646 0.929 . S
H619 C648 0.930 . S
H620 C625 0.930 . S
H621 C629 0.930 . S
O622 Co591 2.037 . S
O622 C642 1.234 . S
C623 O597 1.269 . S
C623 O598 1.257 . S
C624 H599 0.930 . S
C624 C627 1.387 1_545 S
C624 C629 1.419 . S
C625 H620 0.930 . S
C625 C628 1.404 1_545 S
C625 C629 1.353 . S
N626 Co591 2.145 . S
N626 C627 1.397 . S
N626 C628 1.334 . S
C627 H608 0.929 . S
C627 C624 1.387 1_565 S
C627 N626 1.397 . S
C628 H609 0.929 . S
C628 C625 1.404 1_565 S
C628 N626 1.334 . S
C629 H621 0.930 . S
C629 C624 1.419 . S
C629 C625 1.353 . S
C630 H600 0.930 . S
C630 N631 1.330 . S
C630 C632 1.446 . S
N631 Co590 2.151 . S
N631 C630 1.330 . S
N631 C635 1.418 . S
C632 H611 0.929 . S
C632 C630 1.446 . S
C632 C633 1.332 . S
C633 H613 0.931 . S
C633 C632 1.332 . S
C633 C634 1.267 . S
C634 H602 0.929 . S
C634 C633 1.267 . S
C634 C635 1.251 . S
C635 H605 0.929 . S
C635 N631 1.418 . S
C635 C634 1.251 . S
C636 H603 0.930 . S
C636 C638 1.406 . S
C636 C641 1.261 . S
C637 H604 0.930 . S
C637 N639 1.325 . S
C637 C640 1.357 . S
C638 H606 0.928 . S
C638 C636 1.406 . S
C638 N639 1.261 . S
N639 Co590 2.214 . S
N639 C637 1.325 . S
N639 C638 1.261 . S
C640 H610 0.931 . S
C640 C637 1.357 . S
C640 C641 1.312 . S
C641 H612 0.930 . S
C641 C636 1.261 . S
C641 C640 1.312 . S
C642 O614 1.214 . S
C642 O622 1.234 . S
C643 H615 0.929 . S
C643 C646 1.391 1_565 S
C643 C648 1.391 . S
C644 H616 0.929 . S
C644 C645 1.390 1_565 S
C644 N647 1.391 . S
C645 H617 0.930 . S
C645 C644 1.390 1_545 S
C645 C646 1.392 . S
C646 H618 0.929 . S
C646 C643 1.391 1_545 S
C646 C645 1.392 . S
N647 Co591 2.257 . S
N647 C644 1.391 . S
N647 C648 1.388 . S
C648 H619 0.930 . S
C648 C643 1.391 . S
C648 N647 1.388 . S
Co649 O651 2.143 . S
Co649 O657 2.074 . S
Co649 O660 2.093 . S
Co649 O673 2.097 . S
Co649 N690 2.151 . S
Co649 N698 2.214 . S
Co650 O651 2.160 . S
Co650 O656 2.058 . S
Co650 O666 2.057 . S
Co650 O681 2.037 . S
Co650 N685 2.145 . S
Co650 N706 2.257 . S
O651 Co649 2.143 . S
O651 Co650 2.160 . S
C652 O653 1.278 . S
C652 O660 1.224 . S
O653 C652 1.278 . S
C654 O655 1.245 . S
C654 O666 1.232 . S
O655 C654 1.245 . S
O656 Co650 2.058 . S
O656 C682 1.269 . S
O657 Co649 2.074 . S
O657 C682 1.257 . S
H658 C683 0.930 . S
H659 C689 0.930 . S
O660 Co649 2.093 . S
O660 C652 1.224 . S
H661 C693 0.929 . S
H662 C695 0.930 . S
H663 C696 0.930 . S
H664 C694 0.929 . S
H665 C697 0.928 . S
O666 Co650 2.057 . S
O666 C654 1.232 . S
H667 C686 0.929 . S
H668 C687 0.929 . S
H669 C699 0.931 . S
H670 C691 0.929 . S
H671 C700 0.930 . S
H672 C692 0.931 . S
O673 Co649 2.097 . S
O673 C701 1.214 . S
H674 C702 0.929 . S
H675 C703 0.929 . S
H676 C704 0.930 . S
H677 C705 0.929 . S
H678 C707 0.930 . S
H679 C684 0.930 . S
H680 C688 0.930 . S
O681 Co650 2.037 . S
O681 C701 1.234 . S
C682 O656 1.269 . S
C682 O657 1.257 . S
C683 H658 0.930 . S
C683 C686 1.387 1_655 S
C683 C688 1.418 . S
C684 H679 0.930 . S
C684 C687 1.404 1_655 S
C684 C688 1.353 . S
N685 Co650 2.145 . S
N685 C686 1.397 . S
N685 C687 1.334 . S
C686 H667 0.929 . S
C686 C683 1.387 1_455 S
C686 N685 1.397 . S
C687 H668 0.929 . S
C687 C684 1.404 1_455 S
C687 N685 1.334 . S
C688 H680 0.930 . S
C688 C683 1.418 . S
C688 C684 1.353 . S
C689 H659 0.930 . S
C689 N690 1.330 . S
C689 C691 1.446 . S
N690 Co649 2.151 . S
N690 C689 1.330 . S
N690 C694 1.418 . S
C691 H670 0.929 . S
C691 C689 1.446 . S
C691 C692 1.332 . S
C692 H672 0.931 . S
C692 C691 1.332 . S
C692 C693 1.267 . S
C693 H661 0.929 . S
C693 C692 1.267 . S
C693 C694 1.251 . S
C694 H664 0.929 . S
C694 N690 1.418 . S
C694 C693 1.251 . S
C695 H662 0.930 . S
C695 C697 1.406 . S
C695 C700 1.261 . S
C696 H663 0.930 . S
C696 N698 1.325 . S
C696 C699 1.357 . S
C697 H665 0.928 . S
C697 C695 1.406 . S
C697 N698 1.261 . S
N698 Co649 2.214 . S
N698 C696 1.325 . S
N698 C697 1.261 . S
C699 H669 0.931 . S
C699 C696 1.357 . S
C699 C700 1.312 . S
C700 H671 0.930 . S
C700 C695 1.261 . S
C700 C699 1.312 . S
C701 O673 1.214 . S
C701 O681 1.234 . S
C702 H674 0.929 . S
C702 C705 1.391 1_455 S
C702 C707 1.391 . S
C703 H675 0.929 . S
C703 C704 1.390 1_455 S
C703 N706 1.391 . S
C704 H676 0.930 . S
C704 C703 1.390 1_655 S
C704 C705 1.392 . S
C705 H677 0.929 . S
C705 C702 1.391 1_655 S
C705 C704 1.392 . S
N706 Co650 2.257 . S
N706 C703 1.391 . S
N706 C707 1.388 . S
C707 H678 0.930 . S
C707 C702 1.391 . S
C707 N706 1.388 . S
Co708 O710 2.143 . S
Co708 O716 2.074 . S
Co708 O719 2.093 . S
Co708 O732 2.097 . S
Co708 N749 2.151 . S
Co708 N757 2.214 . S
Co709 O710 2.160 . S
Co709 O715 2.058 . S
Co709 O725 2.057 . S
Co709 O740 2.037 . S
Co709 N744 2.145 . S
Co709 N765 2.257 . S
O710 Co708 2.143 . S
O710 Co709 2.160 . S
C711 O712 1.278 . S
C711 O719 1.224 . S
O712 C711 1.278 . S
C713 O714 1.245 . S
C713 O725 1.232 . S
O714 C713 1.245 . S
O715 Co709 2.058 . S
O715 C741 1.269 . S
O716 Co708 2.074 . S
O716 C741 1.257 . S
H717 C742 0.930 . S
H718 C748 0.930 . S
O719 Co708 2.093 . S
O719 C711 1.224 . S
H720 C752 0.929 . S
H721 C754 0.930 . S
H722 C755 0.930 . S
H723 C753 0.929 . S
H724 C756 0.928 . S
O725 Co709 2.057 . S
O725 C713 1.232 . S
H726 C745 0.929 . S
H727 C746 0.929 . S
H728 C758 0.931 . S
H729 C750 0.929 . S
H730 C759 0.930 . S
H731 C751 0.931 . S
O732 Co708 2.097 . S
O732 C760 1.214 . S
H733 C761 0.929 . S
H734 C762 0.929 . S
H735 C763 0.930 . S
H736 C764 0.929 . S
H737 C766 0.930 . S
H738 C743 0.930 . S
H739 C747 0.930 . S
O740 Co709 2.037 . S
O740 C760 1.234 . S
C741 O715 1.269 . S
C741 O716 1.257 . S
C742 H717 0.930 . S
C742 C745 1.387 1_545 S
C742 C747 1.418 . S
C743 H738 0.930 . S
C743 C746 1.404 1_545 S
C743 C747 1.353 . S
N744 Co709 2.145 . S
N744 C745 1.397 . S
N744 C746 1.334 . S
C745 H726 0.929 . S
C745 C742 1.387 1_565 S
C745 N744 1.397 . S
C746 H727 0.929 . S
C746 C743 1.404 1_565 S
C746 N744 1.334 . S
C747 H739 0.930 . S
C747 C742 1.418 . S
C747 C743 1.353 . S
C748 H718 0.930 . S
C748 N749 1.330 . S
C748 C750 1.446 . S
N749 Co708 2.151 . S
N749 C748 1.330 . S
N749 C753 1.418 . S
C750 H729 0.929 . S
C750 C748 1.446 . S
C750 C751 1.332 . S
C751 H731 0.931 . S
C751 C750 1.332 . S
C751 C752 1.267 . S
C752 H720 0.929 . S
C752 C751 1.267 . S
C752 C753 1.251 . S
C753 H723 0.929 . S
C753 N749 1.418 . S
C753 C752 1.251 . S
C754 H721 0.930 . S
C754 C756 1.406 . S
C754 C759 1.261 . S
C755 H722 0.930 . S
C755 N757 1.325 . S
C755 C758 1.357 . S
C756 H724 0.928 . S
C756 C754 1.406 . S
C756 N757 1.261 . S
N757 Co708 2.214 . S
N757 C755 1.325 . S
N757 C756 1.261 . S
C758 H728 0.931 . S
C758 C755 1.357 . S
C758 C759 1.312 . S
C759 H730 0.930 . S
C759 C754 1.261 . S
C759 C758 1.312 . S
C760 O732 1.214 . S
C760 O740 1.234 . S
C761 H733 0.929 . S
C761 C764 1.391 1_565 S
C761 C766 1.391 . S
C762 H734 0.929 . S
C762 C763 1.390 1_565 S
C762 N765 1.391 . S
C763 H735 0.930 . S
C763 C762 1.390 1_545 S
C763 C764 1.392 . S
C764 H736 0.929 . S
C764 C761 1.391 1_545 S
C764 C763 1.392 . S
N765 Co709 2.257 . S
N765 C762 1.391 . S
N765 C766 1.388 . S
C766 H737 0.930 . S
C766 C761 1.391 . S
C766 N765 1.388 . S
Co767 O769 2.143 . S
Co767 O775 2.074 . S
Co767 O778 2.093 . S
Co767 O791 2.097 . S
Co767 N808 2.151 . S
Co767 N816 2.214 . S
Co768 O769 2.160 . S
Co768 O774 2.058 . S
Co768 O784 2.057 . S
Co768 O799 2.037 . S
Co768 N803 2.145 . S
Co768 N824 2.257 . S
O769 Co767 2.143 . S
O769 Co768 2.160 . S
C770 O771 1.278 . S
C770 O778 1.224 . S
O771 C770 1.278 . S
C772 O773 1.245 . S
C772 O784 1.232 . S
O773 C772 1.245 . S
O774 Co768 2.058 . S
O774 C800 1.269 . S
O775 Co767 2.074 . S
O775 C800 1.257 . S
H776 C801 0.930 . S
H777 C807 0.930 . S
O778 Co767 2.093 . S
O778 C770 1.224 . S
H779 C811 0.929 . S
H780 C813 0.930 . S
H781 C814 0.930 . S
H782 C812 0.929 . S
H783 C815 0.928 . S
O784 Co768 2.057 . S
O784 C772 1.232 . S
H785 C804 0.929 . S
H786 C805 0.929 . S
H787 C817 0.931 . S
H788 C809 0.929 . S
H789 C818 0.930 . S
H790 C810 0.931 . S
O791 Co767 2.097 . S
O791 C819 1.214 . S
H792 C820 0.929 . S
H793 C821 0.929 . S
H794 C822 0.930 . S
H795 C823 0.929 . S
H796 C825 0.930 . S
H797 C802 0.930 . S
H798 C806 0.930 . S
O799 Co768 2.037 . S
O799 C819 1.234 . S
C800 O774 1.269 . S
C800 O775 1.257 . S
C801 H776 0.930 . S
C801 C804 1.387 1_655 S
C801 C806 1.419 . S
C802 H797 0.930 . S
C802 C805 1.404 1_655 S
C802 C806 1.353 . S
N803 Co768 2.145 . S
N803 C804 1.397 . S
N803 C805 1.334 . S
C804 H785 0.929 . S
C804 C801 1.387 1_455 S
C804 N803 1.397 . S
C805 H786 0.929 . S
C805 C802 1.404 1_455 S
C805 N803 1.334 . S
C806 H798 0.930 . S
C806 C801 1.419 . S
C806 C802 1.353 . S
C807 H777 0.930 . S
C807 N808 1.330 . S
C807 C809 1.446 . S
N808 Co767 2.151 . S
N808 C807 1.330 . S
N808 C812 1.418 . S
C809 H788 0.929 . S
C809 C807 1.446 . S
C809 C810 1.332 . S
C810 H790 0.931 . S
C810 C809 1.332 . S
C810 C811 1.267 . S
C811 H779 0.929 . S
C811 C810 1.267 . S
C811 C812 1.251 . S
C812 H782 0.929 . S
C812 N808 1.418 . S
C812 C811 1.251 . S
C813 H780 0.930 . S
C813 C815 1.406 . S
C813 C818 1.261 . S
C814 H781 0.930 . S
C814 N816 1.325 . S
C814 C817 1.357 . S
C815 H783 0.928 . S
C815 C813 1.406 . S
C815 N816 1.261 . S
N816 Co767 2.214 . S
N816 C814 1.325 . S
N816 C815 1.261 . S
C817 H787 0.931 . S
C817 C814 1.357 . S
C817 C818 1.312 . S
C818 H789 0.930 . S
C818 C813 1.261 . S
C818 C817 1.312 . S
C819 O791 1.214 . S
C819 O799 1.234 . S
C820 H792 0.929 . S
C820 C823 1.391 1_455 S
C820 C825 1.391 . S
C821 H793 0.929 . S
C821 C822 1.390 1_455 S
C821 N824 1.391 . S
C822 H794 0.930 . S
C822 C821 1.390 1_655 S
C822 C823 1.392 . S
C823 H795 0.929 . S
C823 C820 1.391 1_655 S
C823 C822 1.392 . S
N824 Co768 2.257 . S
N824 C821 1.391 . S
N824 C825 1.388 . S
C825 H796 0.930 . S
C825 C820 1.391 . S
C825 N824 1.388 . S
Co826 O828 2.143 . S
Co826 O834 2.074 . S
Co826 O837 2.093 . S
Co826 O850 2.097 . S
Co826 N867 2.151 . S
Co826 N875 2.214 . S
Co827 O828 2.160 . S
Co827 O833 2.058 . S
Co827 O843 2.057 . S
Co827 O858 2.037 . S
Co827 N862 2.145 . S
Co827 N883 2.257 . S
O828 Co826 2.143 . S
O828 Co827 2.160 . S
C829 O830 1.278 . S
C829 O837 1.224 . S
O830 C829 1.278 . S
C831 O832 1.245 . S
C831 O843 1.232 . S
O832 C831 1.245 . S
O833 Co827 2.058 . S
O833 C859 1.269 . S
O834 Co826 2.074 . S
O834 C859 1.257 . S
H835 C860 0.930 . S
H836 C866 0.930 . S
O837 Co826 2.093 . S
O837 C829 1.224 . S
H838 C870 0.929 . S
H839 C872 0.930 . S
H840 C873 0.930 . S
H841 C871 0.929 . S
H842 C874 0.928 . S
O843 Co827 2.057 . S
O843 C831 1.232 . S
H844 C863 0.929 . S
H845 C864 0.929 . S
H846 C876 0.931 . S
H847 C868 0.929 . S
H848 C877 0.930 . S
H849 C869 0.931 . S
O850 Co826 2.097 . S
O850 C878 1.214 . S
H851 C879 0.929 . S
H852 C880 0.929 . S
H853 C881 0.930 . S
H854 C882 0.929 . S
H855 C884 0.930 . S
H856 C861 0.930 . S
H857 C865 0.930 . S
O858 Co827 2.037 . S
O858 C878 1.234 . S
C859 O833 1.269 . S
C859 O834 1.257 . S
C860 H835 0.930 . S
C860 C863 1.388 . S
C860 C865 1.418 . S
C861 H856 0.930 . S
C861 C864 1.404 . S
C861 C865 1.353 . S
N862 Co827 2.145 . S
N862 C863 1.397 . S
N862 C864 1.334 . S
C863 H844 0.929 . S
C863 C860 1.388 . S
C863 N862 1.397 . S
C864 H845 0.929 . S
C864 C861 1.404 . S
C864 N862 1.334 . S
C865 H857 0.930 . S
C865 C860 1.418 . S
C865 C861 1.353 . S
C866 H836 0.930 . S
C866 N867 1.330 . S
C866 C868 1.446 . S
N867 Co826 2.151 . S
N867 C866 1.330 . S
N867 C871 1.418 . S
C868 H847 0.929 . S
C868 C866 1.446 . S
C868 C869 1.332 . S
C869 H849 0.931 . S
C869 C868 1.332 . S
C869 C870 1.267 . S
C870 H838 0.929 . S
C870 C869 1.267 . S
C870 C871 1.251 . S
C871 H841 0.929 . S
C871 N867 1.418 . S
C871 C870 1.251 . S
C872 H839 0.930 . S
C872 C874 1.406 . S
C872 C877 1.261 . S
C873 H840 0.930 . S
C873 N875 1.325 . S
C873 C876 1.357 . S
C874 H842 0.928 . S
C874 C872 1.406 . S
C874 N875 1.261 . S
N875 Co826 2.214 . S
N875 C873 1.325 . S
N875 C874 1.261 . S
C876 H846 0.931 . S
C876 C873 1.357 . S
C876 C877 1.312 . S
C877 H848 0.930 . S
C877 C872 1.261 . S
C877 C876 1.312 . S
C878 O850 1.214 . S
C878 O858 1.234 . S
C879 H851 0.929 . S
C879 C882 1.391 . S
C879 C884 1.391 . S
C880 H852 0.929 . S
C880 C881 1.390 . S
C880 N883 1.391 . S
C881 H853 0.930 . S
C881 C880 1.390 . S
C881 C882 1.392 . S
C882 H854 0.929 . S
C882 C879 1.391 . S
C882 C881 1.392 . S
N883 Co827 2.257 . S
N883 C880 1.391 . S
N883 C884 1.388 . S
C884 H855 0.930 . S
C884 C879 1.391 . S
C884 N883 1.388 . S
Co885 O887 2.143 . S
Co885 O893 2.074 . S
Co885 O896 2.093 . S
Co885 O909 2.097 . S
Co885 N926 2.151 . S
Co885 N934 2.214 . S
Co886 O887 2.160 . S
Co886 O892 2.058 . S
Co886 O902 2.057 . S
Co886 O917 2.037 . S
Co886 N921 2.145 . S
Co886 N942 2.257 . S
O887 Co885 2.143 . S
O887 Co886 2.160 . S
C888 O889 1.278 . S
C888 O896 1.224 . S
O889 C888 1.278 . S
C890 O891 1.245 . S
C890 O902 1.232 . S
O891 C890 1.245 . S
O892 Co886 2.058 . S
O892 C918 1.269 . S
O893 Co885 2.074 . S
O893 C918 1.257 . S
H894 C919 0.930 . S
H895 C925 0.930 . S
O896 Co885 2.093 . S
O896 C888 1.224 . S
H897 C929 0.929 . S
H898 C931 0.930 . S
H899 C932 0.930 . S
H900 C930 0.929 . S
H901 C933 0.928 . S
O902 Co886 2.057 . S
O902 C890 1.232 . S
H903 C922 0.929 . S
H904 C923 0.929 . S
H905 C935 0.931 . S
H906 C927 0.929 . S
H907 C936 0.930 . S
H908 C928 0.931 . S
O909 Co885 2.097 . S
O909 C937 1.214 . S
H910 C938 0.929 . S
H911 C939 0.929 . S
H912 C940 0.930 . S
H913 C941 0.929 . S
H914 C943 0.930 . S
H915 C920 0.930 . S
H916 C924 0.930 . S
O917 Co886 2.037 . S
O917 C937 1.234 . S
C918 O892 1.269 . S
C918 O893 1.257 . S
C919 H894 0.930 . S
C919 C922 1.388 . S
C919 C924 1.418 . S
C920 H915 0.930 . S
C920 C923 1.404 . S
C920 C924 1.353 . S
N921 Co886 2.145 . S
N921 C922 1.397 . S
N921 C923 1.334 . S
C922 H903 0.929 . S
C922 C919 1.388 . S
C922 N921 1.397 . S
C923 H904 0.929 . S
C923 C920 1.404 . S
C923 N921 1.334 . S
C924 H916 0.930 . S
C924 C919 1.418 . S
C924 C920 1.353 . S
C925 H895 0.930 . S
C925 N926 1.330 . S
C925 C927 1.446 . S
N926 Co885 2.151 . S
N926 C925 1.330 . S
N926 C930 1.418 . S
C927 H906 0.929 . S
C927 C925 1.446 . S
C927 C928 1.332 . S
C928 H908 0.931 . S
C928 C927 1.332 . S
C928 C929 1.267 . S
C929 H897 0.929 . S
C929 C928 1.267 . S
C929 C930 1.251 . S
C930 H900 0.929 . S
C930 N926 1.418 . S
C930 C929 1.251 . S
C931 H898 0.930 . S
C931 C933 1.406 . S
C931 C936 1.261 . S
C932 H899 0.930 . S
C932 N934 1.325 . S
C932 C935 1.357 . S
C933 H901 0.928 . S
C933 C931 1.406 . S
C933 N934 1.261 . S
N934 Co885 2.214 . S
N934 C932 1.325 . S
N934 C933 1.261 . S
C935 H905 0.931 . S
C935 C932 1.357 . S
C935 C936 1.312 . S
C936 H907 0.930 . S
C936 C931 1.261 . S
C936 C935 1.312 . S
C937 O909 1.214 . S
C937 O917 1.234 . S
C938 H910 0.929 . S
C938 C941 1.391 . S
C938 C943 1.391 . S
C939 H911 0.929 . S
C939 C940 1.390 . S
C939 N942 1.391 . S
C940 H912 0.930 . S
C940 C939 1.390 . S
C940 C941 1.392 . S
C941 H913 0.929 . S
C941 C938 1.391 . S
C941 C940 1.392 . S
N942 Co886 2.257 . S
N942 C939 1.391 . S
N942 C943 1.388 . S
C943 H914 0.930 . S
C943 C938 1.391 . S
C943 N942 1.388 . S
C944 C945 1.349 . S
C944 C946 1.327 . S
C944 H969 0.950 . S
C945 C944 1.349 . S
C945 C961 1.349 . S
C946 C944 1.327 . S
C946 C965 1.429 . S
C946 H970 0.950 . S
C947 C964 1.574 1_655 S
C947 C966 1.368 1_545 S
C947 H971 0.949 . S
H948 C952 0.949 . S
C949 C950 1.349 . S
C949 C951 1.327 . S
C949 H972 0.950 . S
C950 C949 1.349 . S
C950 C962 1.349 . S
C951 C949 1.327 . S
C951 C967 1.429 . S
C951 H973 0.950 . S
C952 H948 0.949 . S
C952 C960 1.574 1_455 S
C952 C968 1.368 1_565 S
H953 C961 0.950 . S
H954 C959 0.950 . S
H955 C960 0.949 . S
H956 C962 0.950 . S
H957 C963 0.950 . S
H958 C964 0.949 . S
C959 H954 0.950 . S
C959 C961 1.327 . S
C959 C965 1.429 . S
C960 C952 1.574 1_655 S
C960 H955 0.949 . S
C960 C966 1.368 . S
C961 C945 1.349 . S
C961 H953 0.950 . S
C961 C959 1.327 . S
C962 C950 1.349 . S
C962 H956 0.950 . S
C962 C963 1.327 . S
C963 H957 0.950 . S
C963 C962 1.327 . S
C963 C967 1.429 . S
C964 C947 1.574 1_455 S
C964 H958 0.949 . S
C964 C968 1.368 . S
C965 C946 1.429 . S
C965 C959 1.429 . S
C965 C966 1.523 . S
C966 C947 1.368 1_565 S
C966 C960 1.368 . S
C966 C965 1.523 . S
C967 C951 1.429 . S
C967 C963 1.429 . S
C967 C968 1.523 . S
C968 C952 1.368 1_545 S
C968 C964 1.368 . S
C968 C967 1.523 . S
H969 C944 0.950 . S
H970 C946 0.950 . S
H971 C947 0.949 . S
H972 C949 0.950 . S
H973 C951 0.950 . S
C974 C975 1.349 . S
C974 C976 1.327 . S
C974 H999 0.950 . S
C975 C974 1.349 . S
C975 C991 1.349 . S
C976 C974 1.327 . S
C976 C995 1.429 . S
C976 H1000 0.950 . S
C977 C994 1.574 . S
C977 C996 1.368 . S
C977 H1001 0.949 . S
H978 C982 0.949 . S
C979 C980 1.349 . S
C979 C981 1.327 . S
C979 H1002 0.950 . S
C980 C979 1.349 . S
C980 C992 1.349 . S
C981 C979 1.327 . S
C981 C997 1.429 . S
C981 H1003 0.950 . S
C982 H978 0.949 . S
C982 C990 1.574 . S
C982 C998 1.368 . S
H983 C991 0.950 . S
H984 C989 0.950 . S
H985 C990 0.949 . S
H986 C992 0.950 . S
H987 C993 0.950 . S
H988 C994 0.949 . S
C989 H984 0.950 . S
C989 C991 1.327 . S
C989 C995 1.429 . S
C990 C982 1.574 . S
C990 H985 0.949 . S
C990 C996 1.368 1_455 S
C991 C975 1.349 . S
C991 H983 0.950 . S
C991 C989 1.327 . S
C992 C980 1.349 . S
C992 H986 0.950 . S
C992 C993 1.327 . S
C993 H987 0.950 . S
C993 C992 1.327 . S
C993 C997 1.429 . S
C994 C977 1.574 . S
C994 H988 0.949 . S
C994 C998 1.368 1_655 S
C995 C976 1.429 . S
C995 C989 1.429 . S
C995 C996 1.523 . S
C996 C977 1.368 . S
C996 C990 1.368 1_655 S
C996 C995 1.523 . S
C997 C981 1.429 . S
C997 C993 1.429 . S
C997 C998 1.523 . S
C998 C982 1.368 . S
C998 C994 1.368 1_455 S
C998 C997 1.523 . S
H999 C974 0.950 . S
H1000 C976 0.950 . S
H1001 C977 0.949 . S
H1002 C979 0.950 . S
H1003 C981 0.950 . S
C1004 C1005 1.349 . S
C1004 C1006 1.327 . S
C1004 H1029 0.950 . S
C1005 C1004 1.349 . S
C1005 C1021 1.349 . S
C1006 C1004 1.327 . S
C1006 C1025 1.429 . S
C1006 H1030 0.950 . S
C1007 C1024 1.574 . S
C1007 C1026 1.368 . S
C1007 H1031 0.949 . S
H1008 C1012 0.949 . S
C1009 C1010 1.349 . S
C1009 C1011 1.327 . S
C1009 H1032 0.950 . S
C1010 C1009 1.349 . S
C1010 C1022 1.349 . S
C1011 C1009 1.327 . S
C1011 C1027 1.429 . S
C1011 H1033 0.950 . S
C1012 H1008 0.949 . S
C1012 C1020 1.574 . S
C1012 C1028 1.368 . S
H1013 C1021 0.950 . S
H1014 C1019 0.950 . S
H1015 C1020 0.949 . S
H1016 C1022 0.950 . S
H1017 C1023 0.950 . S
H1018 C1024 0.949 . S
C1019 H1014 0.950 . S
C1019 C1021 1.327 . S
C1019 C1025 1.429 . S
C1020 C1012 1.574 . S
C1020 H1015 0.949 . S
C1020 C1026 1.368 . S
C1021 C1005 1.349 . S
C1021 H1013 0.950 . S
C1021 C1019 1.327 . S
C1022 C1010 1.349 . S
C1022 H1016 0.950 . S
C1022 C1023 1.327 . S
C1023 H1017 0.950 . S
C1023 C1022 1.327 . S
C1023 C1027 1.429 . S
C1024 C1007 1.574 . S
C1024 H1018 0.949 . S
C1024 C1028 1.368 . S
C1025 C1006 1.429 . S
C1025 C1019 1.429 . S
C1025 C1026 1.523 . S
C1026 C1007 1.368 . S
C1026 C1020 1.368 . S
C1026 C1025 1.523 . S
C1027 C1011 1.429 . S
C1027 C1023 1.429 . S
C1027 C1028 1.523 . S
C1028 C1012 1.368 . S
C1028 C1024 1.368 . S
C1028 C1027 1.523 . S
H1029 C1004 0.950 . S
H1030 C1006 0.950 . S
H1031 C1007 0.949 . S
H1032 C1009 0.950 . S
H1033 C1011 0.950 . S
C1034 C1035 1.349 . S
C1034 C1036 1.327 . S
C1034 H1059 0.950 . S
C1035 C1034 1.349 . S
C1035 C1051 1.349 . S
C1036 C1034 1.327 . S
C1036 C1055 1.429 . S
C1036 H1060 0.950 . S
C1037 C1054 1.574 1_545 S
C1037 C1056 1.368 . S
C1037 H1061 0.949 . S
H1038 C1042 0.949 . S
C1039 C1040 1.349 . S
C1039 C1041 1.327 . S
C1039 H1062 0.950 . S
C1040 C1039 1.349 . S
C1040 C1052 1.349 . S
C1041 C1039 1.327 . S
C1041 C1057 1.429 . S
C1041 H1063 0.950 . S
C1042 H1038 0.949 . S
C1042 C1050 1.574 1_565 S
C1042 C1058 1.368 . S
H1043 C1051 0.950 . S
H1044 C1049 0.950 . S
H1045 C1050 0.949 . S
H1046 C1052 0.950 . S
H1047 C1053 0.950 . S
H1048 C1054 0.949 . S
C1049 H1044 0.950 . S
C1049 C1051 1.327 . S
C1049 C1055 1.429 . S
C1050 C1042 1.574 1_545 S
C1050 H1045 0.949 . S
C1050 C1056 1.368 . S
C1051 C1035 1.349 . S
C1051 H1043 0.950 . S
C1051 C1049 1.327 . S
C1052 C1040 1.349 . S
C1052 H1046 0.950 . S
C1052 C1053 1.327 . S
C1053 H1047 0.950 . S
C1053 C1052 1.327 . S
C1053 C1057 1.429 . S
C1054 C1037 1.574 1_565 S
C1054 H1048 0.949 . S
C1054 C1058 1.368 . S
C1055 C1036 1.429 . S
C1055 C1049 1.429 . S
C1055 C1056 1.523 . S
C1056 C1037 1.368 . S
C1056 C1050 1.368 . S
C1056 C1055 1.523 . S
C1057 C1041 1.429 . S
C1057 C1053 1.429 . S
C1057 C1058 1.523 . S
C1058 C1042 1.368 . S
C1058 C1054 1.368 . S
C1058 C1057 1.523 . S
H1059 C1034 0.950 . S
H1060 C1036 0.950 . S
H1061 C1037 0.949 . S
H1062 C1039 0.950 . S
H1063 C1041 0.950 . S
C1064 C1065 1.349 . S
C1064 C1066 1.327 . S
C1064 H1089 0.950 . S
C1065 C1064 1.349 . S
C1065 C1081 1.349 . S
C1066 C1064 1.327 . S
C1066 C1085 1.429 . S
C1066 H1090 0.950 . S
C1067 C1084 1.574 1_455 S
C1067 C1086 1.368 . S
C1067 H1091 0.949 . S
H1068 C1072 0.949 . S
C1069 C1070 1.349 . S
C1069 C1071 1.327 . S
C1069 H1092 0.950 . S
C1070 C1069 1.349 . S
C1070 C1082 1.349 . S
C1071 C1069 1.327 . S
C1071 C1087 1.429 . S
C1071 H1093 0.950 . S
C1072 H1068 0.949 . S
C1072 C1080 1.574 1_655 S
C1072 C1088 1.368 . S
H1073 C1081 0.950 . S
H1074 C1079 0.950 . S
H1075 C1080 0.949 . S
H1076 C1082 0.950 . S
H1077 C1083 0.950 . S
H1078 C1084 0.949 . S
C1079 H1074 0.950 . S
C1079 C1081 1.327 . S
C1079 C1085 1.429 . S
C1080 C1072 1.574 1_455 S
C1080 H1075 0.949 . S
C1080 C1086 1.368 . S
C1081 C1065 1.349 . S
C1081 H1073 0.950 . S
C1081 C1079 1.327 . S
C1082 C1070 1.349 . S
C1082 H1076 0.950 . S
C1082 C1083 1.327 . S
C1083 H1077 0.950 . S
C1083 C1082 1.327 . S
C1083 C1087 1.429 . S
C1084 C1067 1.574 1_655 S
C1084 H1078 0.949 . S
C1084 C1088 1.368 . S
C1085 C1066 1.429 . S
C1085 C1079 1.429 . S
C1085 C1086 1.523 . S
C1086 C1067 1.368 . S
C1086 C1080 1.368 . S
C1086 C1085 1.523 . S
C1087 C1071 1.429 . S
C1087 C1083 1.429 . S
C1087 C1088 1.523 . S
C1088 C1072 1.368 . S
C1088 C1084 1.368 . S
C1088 C1087 1.523 . S
H1089 C1064 0.950 . S
H1090 C1066 0.950 . S
H1091 C1067 0.949 . S
H1092 C1069 0.950 . S
H1093 C1071 0.950 . S
C1094 C1095 1.349 . S
C1094 C1096 1.327 . S
C1094 H1119 0.950 . S
C1095 C1094 1.349 . S
C1095 C1111 1.349 . S
C1096 C1094 1.327 . S
C1096 C1115 1.429 . S
C1096 H1120 0.950 . S
C1097 C1114 1.574 . S
C1097 C1116 1.368 . S
C1097 H1121 0.949 . S
H1098 C1102 0.949 . S
C1099 C1100 1.349 . S
C1099 C1101 1.327 . S
C1099 H1122 0.950 . S
C1100 C1099 1.349 . S
C1100 C1112 1.349 . S
C1101 C1099 1.327 . S
C1101 C1117 1.429 . S
C1101 H1123 0.950 . S
C1102 H1098 0.949 . S
C1102 C1110 1.574 . S
C1102 C1118 1.368 . S
H1103 C1111 0.950 . S
H1104 C1109 0.950 . S
H1105 C1110 0.949 . S
H1106 C1112 0.950 . S
H1107 C1113 0.950 . S
H1108 C1114 0.949 . S
C1109 H1104 0.950 . S
C1109 C1111 1.327 . S
C1109 C1115 1.429 . S
C1110 C1102 1.574 . S
C1110 H1105 0.949 . S
C1110 C1116 1.368 . S
C1111 C1095 1.349 . S
C1111 H1103 0.950 . S
C1111 C1109 1.327 . S
C1112 C1100 1.349 . S
C1112 H1106 0.950 . S
C1112 C1113 1.327 . S
C1113 H1107 0.950 . S
C1113 C1112 1.327 . S
C1113 C1117 1.429 . S
C1114 C1097 1.574 . S
C1114 H1108 0.949 . S
C1114 C1118 1.368 . S
C1115 C1096 1.429 . S
C1115 C1109 1.429 . S
C1115 C1116 1.523 . S
C1116 C1097 1.368 . S
C1116 C1110 1.368 . S
C1116 C1115 1.523 . S
C1117 C1101 1.429 . S
C1117 C1113 1.429 . S
C1117 C1118 1.523 . S
C1118 C1102 1.368 . S
C1118 C1114 1.368 . S
C1118 C1117 1.523 . S
H1119 C1094 0.950 . S
H1120 C1096 0.950 . S
H1121 C1097 0.949 . S
H1122 C1099 0.950 . S
H1123 C1101 0.950 . S
C1124 C1125 1.349 . S
C1124 C1126 1.327 . S
C1124 H1149 0.950 . S
C1125 C1124 1.349 . S
C1125 C1141 1.349 . S
C1126 C1124 1.327 . S
C1126 C1145 1.429 . S
C1126 H1150 0.950 . S
C1127 C1144 1.574 . S
C1127 C1146 1.368 . S
C1127 H1151 0.949 . S
H1128 C1132 0.949 . S
C1129 C1130 1.349 . S
C1129 C1131 1.327 . S
C1129 H1152 0.950 . S
C1130 C1129 1.349 . S
C1130 C1142 1.349 . S
C1131 C1129 1.327 . S
C1131 C1147 1.429 . S
C1131 H1153 0.950 . S
C1132 H1128 0.949 . S
C1132 C1140 1.574 . S
C1132 C1148 1.368 . S
H1133 C1141 0.950 . S
H1134 C1139 0.950 . S
H1135 C1140 0.949 . S
H1136 C1142 0.950 . S
H1137 C1143 0.950 . S
H1138 C1144 0.949 . S
C1139 H1134 0.950 . S
C1139 C1141 1.327 . S
C1139 C1145 1.429 . S
C1140 C1132 1.574 . S
C1140 H1135 0.949 . S
C1140 C1146 1.368 1_565 S
C1141 C1125 1.349 . S
C1141 H1133 0.950 . S
C1141 C1139 1.327 . S
C1142 C1130 1.349 . S
C1142 H1136 0.950 . S
C1142 C1143 1.327 . S
C1143 H1137 0.950 . S
C1143 C1142 1.327 . S
C1143 C1147 1.429 . S
C1144 C1127 1.574 . S
C1144 H1138 0.949 . S
C1144 C1148 1.368 1_545 S
C1145 C1126 1.429 . S
C1145 C1139 1.429 . S
C1145 C1146 1.523 . S
C1146 C1127 1.368 . S
C1146 C1140 1.368 1_545 S
C1146 C1145 1.523 . S
C1147 C1131 1.429 . S
C1147 C1143 1.429 . S
C1147 C1148 1.523 . S
C1148 C1132 1.368 . S
C1148 C1144 1.368 1_565 S
C1148 C1147 1.523 . S
H1149 C1124 0.950 . S
H1150 C1126 0.950 . S
H1151 C1127 0.949 . S
H1152 C1129 0.950 . S
H1153 C1131 0.950 . S
C1154 C1155 1.349 . S
C1154 C1156 1.327 . S
C1154 H1179 0.950 . S
C1155 C1154 1.349 . S
C1155 C1171 1.349 . S
C1156 C1154 1.327 . S
C1156 C1175 1.429 . S
C1156 H1180 0.950 . S
C1157 C1174 1.574 1_545 S
C1157 C1176 1.368 1_655 S
C1157 H1181 0.949 . S
H1158 C1162 0.949 . S
C1159 C1160 1.349 . S
C1159 C1161 1.327 . S
C1159 H1182 0.950 . S
C1160 C1159 1.349 . S
C1160 C1172 1.349 . S
C1161 C1159 1.327 . S
C1161 C1177 1.429 . S
C1161 H1183 0.950 . S
C1162 H1158 0.949 . S
C1162 C1170 1.574 1_565 S
C1162 C1178 1.368 1_455 S
H1163 C1171 0.950 . S
H1164 C1169 0.950 . S
H1165 C1170 0.949 . S
H1166 C1172 0.950 . S
H1167 C1173 0.950 . S
H1168 C1174 0.949 . S
C1169 H1164 0.950 . S
C1169 C1171 1.327 . S
C1169 C1175 1.429 . S
C1170 C1162 1.574 1_545 S
C1170 H1165 0.949 . S
C1170 C1176 1.368 . S
C1171 C1155 1.349 . S
C1171 H1163 0.950 . S
C1171 C1169 1.327 . S
C1172 C1160 1.349 . S
C1172 H1166 0.950 . S
C1172 C1173 1.327 . S
C1173 H1167 0.950 . S
C1173 C1172 1.327 . S
C1173 C1177 1.429 . S
C1174 C1157 1.574 1_565 S
C1174 H1168 0.949 . S
C1174 C1178 1.368 . S
C1175 C1156 1.429 . S
C1175 C1169 1.429 . S
C1175 C1176 1.523 . S
C1176 C1157 1.368 1_455 S
C1176 C1170 1.368 . S
C1176 C1175 1.523 . S
C1177 C1161 1.429 . S
C1177 C1173 1.429 . S
C1177 C1178 1.523 . S
C1178 C1162 1.368 1_655 S
C1178 C1174 1.368 . S
C1178 C1177 1.523 . S
H1179 C1154 0.950 . S
H1180 C1156 0.950 . S
H1181 C1157 0.949 . S
H1182 C1159 0.950 . S
H1183 C1161 0.950 . S
C1184 C1185 1.349 . S
C1184 C1186 1.327 . S
C1184 H1209 0.950 . S
C1185 C1184 1.349 . S
C1185 C1201 1.349 . S
C1186 C1184 1.327 . S
C1186 C1205 1.429 . S
C1186 H1210 0.950 . S
C1187 C1204 1.574 . S
C1187 C1206 1.368 1_545 S
C1187 H1211 0.949 . S
H1188 C1192 0.949 . S
C1189 C1190 1.349 . S
C1189 C1191 1.327 . S
C1189 H1212 0.950 . S
C1190 C1189 1.349 . S
C1190 C1202 1.349 . S
C1191 C1189 1.327 . S
C1191 C1207 1.429 . S
C1191 H1213 0.950 . S
C1192 H1188 0.949 . S
C1192 C1200 1.574 . S
C1192 C1208 1.368 1_565 S
H1193 C1201 0.950 . S
H1194 C1199 0.950 . S
H1195 C1200 0.949 . S
H1196 C1202 0.950 . S
H1197 C1203 0.950 . S
H1198 C1204 0.949 . S
C1199 H1194 0.950 . S
C1199 C1201 1.327 . S
C1199 C1205 1.429 . S
C1200 C1192 1.574 . S
C1200 H1195 0.949 . S
C1200 C1206 1.368 . S
C1201 C1185 1.349 . S
C1201 H1193 0.950 . S
C1201 C1199 1.327 . S
C1202 C1190 1.349 . S
C1202 H1196 0.950 . S
C1202 C1203 1.327 . S
C1203 H1197 0.950 . S
C1203 C1202 1.327 . S
C1203 C1207 1.429 . S
C1204 C1187 1.574 . S
C1204 H1198 0.949 . S
C1204 C1208 1.368 . S
C1205 C1186 1.429 . S
C1205 C1199 1.429 . S
C1205 C1206 1.523 . S
C1206 C1187 1.368 1_565 S
C1206 C1200 1.368 . S
C1206 C1205 1.523 . S
C1207 C1191 1.429 . S
C1207 C1203 1.429 . S
C1207 C1208 1.523 . S
C1208 C1192 1.368 1_545 S
C1208 C1204 1.368 . S
C1208 C1207 1.523 . S
H1209 C1184 0.950 . S
H1210 C1186 0.950 . S
H1211 C1187 0.949 . S
H1212 C1189 0.950 . S
H1213 C1191 0.950 . S
C1214 C1215 1.349 . S
C1214 C1216 1.327 . S
C1214 H1239 0.950 . S
C1215 C1214 1.349 . S
C1215 C1231 1.349 . S
C1216 C1214 1.327 . S
C1216 C1235 1.429 . S
C1216 H1240 0.950 . S
C1217 C1234 1.574 1_565 S
C1217 C1236 1.368 . S
C1217 H1241 0.949 . S
H1218 C1222 0.949 . S
C1219 C1220 1.349 . S
C1219 C1221 1.327 . S
C1219 H1242 0.950 . S
C1220 C1219 1.349 . S
C1220 C1232 1.349 . S
C1221 C1219 1.327 . S
C1221 C1237 1.429 . S
C1221 H1243 0.950 . S
C1222 H1218 0.949 . S
C1222 C1230 1.574 1_545 S
C1222 C1238 1.368 . S
H1223 C1231 0.950 . S
H1224 C1229 0.950 . S
H1225 C1230 0.949 . S
H1226 C1232 0.950 . S
H1227 C1233 0.950 . S
H1228 C1234 0.949 . S
C1229 H1224 0.950 . S
C1229 C1231 1.327 . S
C1229 C1235 1.429 . S
C1230 C1222 1.574 1_565 S
C1230 H1225 0.949 . S
C1230 C1236 1.368 1_455 S
C1231 C1215 1.349 . S
C1231 H1223 0.950 . S
C1231 C1229 1.327 . S
C1232 C1220 1.349 . S
C1232 H1226 0.950 . S
C1232 C1233 1.327 . S
C1233 H1227 0.950 . S
C1233 C1232 1.327 . S
C1233 C1237 1.429 . S
C1234 C1217 1.574 1_545 S
C1234 H1228 0.949 . S
C1234 C1238 1.368 1_655 S
C1235 C1216 1.429 . S
C1235 C1229 1.429 . S
C1235 C1236 1.523 . S
C1236 C1217 1.368 . S
C1236 C1230 1.368 1_655 S
C1236 C1235 1.523 . S
C1237 C1221 1.429 . S
C1237 C1233 1.429 . S
C1237 C1238 1.523 . S
C1238 C1222 1.368 . S
C1238 C1234 1.368 1_455 S
C1238 C1237 1.523 . S
H1239 C1214 0.950 . S
H1240 C1216 0.950 . S
H1241 C1217 0.949 . S
H1242 C1219 0.950 . S
H1243 C1221 0.950 . S
C1244 C1245 1.349 . S
C1244 C1246 1.327 . S
C1244 H1269 0.950 . S
C1245 C1244 1.349 . S
C1245 C1261 1.349 . S
C1246 C1244 1.327 . S
C1246 C1265 1.429 . S
C1246 H1270 0.950 . S
C1247 C1264 1.574 1_455 S
C1247 C1266 1.368 . S
C1247 H1271 0.949 . S
H1248 C1252 0.949 . S
C1249 C1250 1.349 . S
C1249 C1251 1.327 . S
C1249 H1272 0.950 . S
C1250 C1249 1.349 . S
C1250 C1262 1.349 . S
C1251 C1249 1.327 . S
C1251 C1267 1.429 . S
C1251 H1273 0.950 . S
C1252 H1248 0.949 . S
C1252 C1260 1.574 1_655 S
C1252 C1268 1.368 . S
H1253 C1261 0.950 . S
H1254 C1259 0.950 . S
H1255 C1260 0.949 . S
H1256 C1262 0.950 . S
H1257 C1263 0.950 . S
H1258 C1264 0.949 . S
C1259 H1254 0.950 . S
C1259 C1261 1.327 . S
C1259 C1265 1.429 . S
C1260 C1252 1.574 1_455 S
C1260 H1255 0.949 . S
C1260 C1266 1.368 . S
C1261 C1245 1.349 . S
C1261 H1253 0.950 . S
C1261 C1259 1.327 . S
C1262 C1250 1.349 . S
C1262 H1256 0.950 . S
C1262 C1263 1.327 . S
C1263 H1257 0.950 . S
C1263 C1262 1.327 . S
C1263 C1267 1.429 . S
C1264 C1247 1.574 1_655 S
C1264 H1258 0.949 . S
C1264 C1268 1.368 . S
C1265 C1246 1.429 . S
C1265 C1259 1.429 . S
C1265 C1266 1.523 . S
C1266 C1247 1.368 . S
C1266 C1260 1.368 . S
C1266 C1265 1.523 . S
C1267 C1251 1.429 . S
C1267 C1263 1.429 . S
C1267 C1268 1.523 . S
C1268 C1252 1.368 . S
C1268 C1264 1.368 . S
C1268 C1267 1.523 . S
H1269 C1244 0.950 . S
H1270 C1246 0.950 . S
H1271 C1247 0.949 . S
H1272 C1249 0.950 . S
H1273 C1251 0.950 . S
C1274 C1275 1.349 . S
C1274 C1276 1.327 . S
C1274 H1299 0.950 . S
C1275 C1274 1.349 . S
C1275 C1291 1.349 . S
C1276 C1274 1.327 . S
C1276 C1295 1.429 . S
C1276 H1300 0.950 . S
C1277 C1294 1.574 . S
C1277 C1296 1.368 . S
C1277 H1301 0.949 . S
H1278 C1282 0.949 . S
C1279 C1280 1.349 . S
C1279 C1281 1.327 . S
C1279 H1302 0.950 . S
C1280 C1279 1.349 . S
C1280 C1292 1.349 . S
C1281 C1279 1.327 . S
C1281 C1297 1.429 . S
C1281 H1303 0.950 . S
C1282 H1278 0.949 . S
C1282 C1290 1.574 . S
C1282 C1298 1.368 . S
H1283 C1291 0.950 . S
H1284 C1289 0.950 . S
H1285 C1290 0.949 . S
H1286 C1292 0.950 . S
H1287 C1293 0.950 . S
H1288 C1294 0.949 . S
C1289 H1284 0.950 . S
C1289 C1291 1.327 . S
C1289 C1295 1.429 . S
C1290 C1282 1.574 . S
C1290 H1285 0.949 . S
C1290 C1296 1.368 . S
C1291 C1275 1.349 . S
C1291 H1283 0.950 . S
C1291 C1289 1.327 . S
C1292 C1280 1.349 . S
C1292 H1286 0.950 . S
C1292 C1293 1.327 . S
C1293 H1287 0.950 . S
C1293 C1292 1.327 . S
C1293 C1297 1.429 . S
C1294 C1277 1.574 . S
C1294 H1288 0.949 . S
C1294 C1298 1.368 . S
C1295 C1276 1.429 . S
C1295 C1289 1.429 . S
C1295 C1296 1.523 . S
C1296 C1277 1.368 . S
C1296 C1290 1.368 . S
C1296 C1295 1.523 . S
C1297 C1281 1.429 . S
C1297 C1293 1.429 . S
C1297 C1298 1.523 . S
C1298 C1282 1.368 . S
C1298 C1294 1.368 . S
C1298 C1297 1.523 . S
H1299 C1274 0.950 . S
H1300 C1276 0.950 . S
H1301 C1277 0.949 . S
H1302 C1279 0.950 . S
H1303 C1281 0.950 . S
C1304 C1305 1.349 . S
C1304 C1306 1.327 . S
C1304 H1329 0.950 . S
C1305 C1304 1.349 . S
C1305 C1321 1.349 . S
C1306 C1304 1.327 . S
C1306 C1325 1.429 . S
C1306 H1330 0.950 . S
C1307 C1324 1.574 . S
C1307 C1326 1.368 . S
C1307 H1331 0.949 . S
H1308 C1312 0.949 . S
C1309 C1310 1.349 . S
C1309 C1311 1.327 . S
C1309 H1332 0.950 . S
C1310 C1309 1.349 . S
C1310 C1322 1.349 . S
C1311 C1309 1.327 . S
C1311 C1327 1.429 . S
C1311 H1333 0.950 . S
C1312 H1308 0.949 . S
C1312 C1320 1.574 . S
C1312 C1328 1.368 . S
H1313 C1321 0.950 . S
H1314 C1319 0.950 . S
H1315 C1320 0.949 . S
H1316 C1322 0.950 . S
H1317 C1323 0.950 . S
H1318 C1324 0.949 . S
C1319 H1314 0.950 . S
C1319 C1321 1.327 . S
C1319 C1325 1.429 . S
C1320 C1312 1.574 . S
C1320 H1315 0.949 . S
C1320 C1326 1.368 . S
C1321 C1305 1.349 . S
C1321 H1313 0.950 . S
C1321 C1319 1.327 . S
C1322 C1310 1.349 . S
C1322 H1316 0.950 . S
C1322 C1323 1.327 . S
C1323 H1317 0.950 . S
C1323 C1322 1.327 . S
C1323 C1327 1.429 . S
C1324 C1307 1.574 . S
C1324 H1318 0.949 . S
C1324 C1328 1.368 . S
C1325 C1306 1.429 . S
C1325 C1319 1.429 . S
C1325 C1326 1.523 . S
C1326 C1307 1.368 . S
C1326 C1320 1.368 . S
C1326 C1325 1.523 . S
C1327 C1311 1.429 . S
C1327 C1323 1.429 . S
C1327 C1328 1.523 . S
C1328 C1312 1.368 . S
C1328 C1324 1.368 . S
C1328 C1327 1.523 . S
H1329 C1304 0.950 . S
H1330 C1306 0.950 . S
H1331 C1307 0.949 . S
H1332 C1309 0.950 . S
H1333 C1311 0.950 . S
C1334 C1335 1.349 . S
C1334 C1336 1.327 . S
C1334 H1359 0.950 . S
C1335 C1334 1.349 . S
C1335 C1351 1.349 . S
C1336 C1334 1.327 . S
C1336 C1355 1.429 . S
C1336 H1360 0.950 . S
C1337 C1354 1.574 1_565 S
C1337 C1356 1.368 . S
C1337 H1361 0.949 . S
H1338 C1342 0.949 . S
C1339 C1340 1.349 . S
C1339 C1341 1.327 . S
C1339 H1362 0.950 . S
C1340 C1339 1.349 . S
C1340 C1352 1.349 . S
C1341 C1339 1.327 . S
C1341 C1357 1.429 . S
C1341 H1363 0.950 . S
C1342 H1338 0.949 . S
C1342 C1350 1.574 1_545 S
C1342 C1358 1.368 . S
H1343 C1351 0.950 . S
H1344 C1349 0.950 . S
H1345 C1350 0.949 . S
H1346 C1352 0.950 . S
H1347 C1353 0.950 . S
H1348 C1354 0.949 . S
C1349 H1344 0.950 . S
C1349 C1351 1.327 . S
C1349 C1355 1.429 . S
C1350 C1342 1.574 1_565 S
C1350 H1345 0.949 . S
C1350 C1356 1.368 . S
C1351 C1335 1.349 . S
C1351 H1343 0.950 . S
C1351 C1349 1.327 . S
C1352 C1340 1.349 . S
C1352 H1346 0.950 . S
C1352 C1353 1.327 . S
C1353 H1347 0.950 . S
C1353 C1352 1.327 . S
C1353 C1357 1.429 . S
C1354 C1337 1.574 1_545 S
C1354 H1348 0.949 . S
C1354 C1358 1.368 . S
C1355 C1336 1.429 . S
C1355 C1349 1.429 . S
C1355 C1356 1.523 . S
C1356 C1337 1.368 . S
C1356 C1350 1.368 . S
C1356 C1355 1.523 . S
C1357 C1341 1.429 . S
C1357 C1353 1.429 . S
C1357 C1358 1.523 . S
C1358 C1342 1.368 . S
C1358 C1354 1.368 . S
C1358 C1357 1.523 . S
H1359 C1334 0.950 . S
H1360 C1336 0.950 . S
H1361 C1337 0.949 . S
H1362 C1339 0.950 . S
H1363 C1341 0.950 . S
C1364 C1365 1.349 . S
C1364 C1366 1.327 . S
C1364 H1389 0.950 . S
C1365 C1364 1.349 . S
C1365 C1381 1.349 . S
C1366 C1364 1.327 . S
C1366 C1385 1.429 . S
C1366 H1390 0.950 . S
C1367 C1384 1.574 1_655 S
C1367 C1386 1.368 1_545 S
C1367 H1391 0.949 . S
H1368 C1372 0.949 . S
C1369 C1370 1.349 . S
C1369 C1371 1.327 . S
C1369 H1392 0.950 . S
C1370 C1369 1.349 . S
C1370 C1382 1.349 . S
C1371 C1369 1.327 . S
C1371 C1387 1.429 . S
C1371 H1393 0.950 . S
C1372 H1368 0.949 . S
C1372 C1380 1.574 1_455 S
C1372 C1388 1.368 1_565 S
H1373 C1381 0.950 . S
H1374 C1379 0.950 . S
H1375 C1380 0.949 . S
H1376 C1382 0.950 . S
H1377 C1383 0.950 . S
H1378 C1384 0.949 . S
C1379 H1374 0.950 . S
C1379 C1381 1.327 . S
C1379 C1385 1.429 . S
C1380 C1372 1.574 1_655 S
C1380 H1375 0.949 . S
C1380 C1386 1.368 . S
C1381 C1365 1.349 . S
C1381 H1373 0.950 . S
C1381 C1379 1.327 . S
C1382 C1370 1.349 . S
C1382 H1376 0.950 . S
C1382 C1383 1.327 . S
C1383 H1377 0.950 . S
C1383 C1382 1.327 . S
C1383 C1387 1.429 . S
C1384 C1367 1.574 1_455 S
C1384 H1378 0.949 . S
C1384 C1388 1.368 . S
C1385 C1366 1.429 . S
C1385 C1379 1.429 . S
C1385 C1386 1.523 . S
C1386 C1367 1.368 1_565 S
C1386 C1380 1.368 . S
C1386 C1385 1.523 . S
C1387 C1371 1.429 . S
C1387 C1383 1.429 . S
C1387 C1388 1.523 . S
C1388 C1372 1.368 1_545 S
C1388 C1384 1.368 . S
C1388 C1387 1.523 . S
H1389 C1364 0.950 . S
H1390 C1366 0.950 . S
H1391 C1367 0.949 . S
H1392 C1369 0.950 . S
H1393 C1371 0.950 . S
C1394 C1395 1.349 . S
C1394 C1396 1.327 . S
C1394 H1419 0.950 . S
C1395 C1394 1.349 . S
C1395 C1411 1.349 . S
C1396 C1394 1.327 . S
C1396 C1415 1.429 . S
C1396 H1420 0.950 . S
C1397 C1414 1.574 . S
C1397 C1416 1.368 . S
C1397 H1421 0.949 . S
H1398 C1402 0.949 . S
C1399 C1400 1.349 . S
C1399 C1401 1.327 . S
C1399 H1422 0.950 . S
C1400 C1399 1.349 . S
C1400 C1412 1.349 . S
C1401 C1399 1.327 . S
C1401 C1417 1.429 . S
C1401 H1423 0.950 . S
C1402 H1398 0.949 . S
C1402 C1410 1.574 . S
C1402 C1418 1.368 . S
H1403 C1411 0.950 . S
H1404 C1409 0.950 . S
H1405 C1410 0.949 . S
H1406 C1412 0.950 . S
H1407 C1413 0.950 . S
H1408 C1414 0.949 . S
C1409 H1404 0.950 . S
C1409 C1411 1.327 . S
C1409 C1415 1.429 . S
C1410 C1402 1.574 . S
C1410 H1405 0.949 . S
C1410 C1416 1.368 1_655 S
C1411 C1395 1.349 . S
C1411 H1403 0.950 . S
C1411 C1409 1.327 . S
C1412 C1400 1.349 . S
C1412 H1406 0.950 . S
C1412 C1413 1.327 . S
C1413 H1407 0.950 . S
C1413 C1412 1.327 . S
C1413 C1417 1.429 . S
C1414 C1397 1.574 . S
C1414 H1408 0.949 . S
C1414 C1418 1.368 1_455 S
C1415 C1396 1.429 . S
C1415 C1409 1.429 . S
C1415 C1416 1.523 . S
C1416 C1397 1.368 . S
C1416 C1410 1.368 1_455 S
C1416 C1415 1.523 . S
C1417 C1401 1.429 . S
C1417 C1413 1.429 . S
C1417 C1418 1.523 . S
C1418 C1402 1.368 . S
C1418 C1414 1.368 1_655 S
C1418 C1417 1.523 . S
H1419 C1394 0.950 . S
H1420 C1396 0.950 . S
H1421 C1397 0.949 . S
H1422 C1399 0.950 . S
H1423 C1401 0.950 . S
C1424 C1425 1.349 . S
C1424 C1426 1.327 . S
C1424 H1449 0.950 . S
C1425 C1424 1.349 . S
C1425 C1441 1.349 . S
C1426 C1424 1.327 . S
C1426 C1445 1.429 . S
C1426 H1450 0.950 . S
C1427 C1444 1.574 . S
C1427 C1446 1.368 . S
C1427 H1451 0.949 . S
H1428 C1432 0.949 . S
C1429 C1430 1.349 . S
C1429 C1431 1.327 . S
C1429 H1452 0.950 . S
C1430 C1429 1.349 . S
C1430 C1442 1.349 . S
C1431 C1429 1.327 . S
C1431 C1447 1.429 . S
C1431 H1453 0.950 . S
C1432 H1428 0.949 . S
C1432 C1440 1.574 . S
C1432 C1448 1.368 . S
H1433 C1441 0.950 . S
H1434 C1439 0.950 . S
H1435 C1440 0.949 . S
H1436 C1442 0.950 . S
H1437 C1443 0.950 . S
H1438 C1444 0.949 . S
C1439 H1434 0.950 . S
C1439 C1441 1.327 . S
C1439 C1445 1.429 . S
C1440 C1432 1.574 . S
C1440 H1435 0.949 . S
C1440 C1446 1.368 . S
C1441 C1425 1.349 . S
C1441 H1433 0.950 . S
C1441 C1439 1.327 . S
C1442 C1430 1.349 . S
C1442 H1436 0.950 . S
C1442 C1443 1.327 . S
C1443 H1437 0.950 . S
C1443 C1442 1.327 . S
C1443 C1447 1.429 . S
C1444 C1427 1.574 . S
C1444 H1438 0.949 . S
C1444 C1448 1.368 . S
C1445 C1426 1.429 . S
C1445 C1439 1.429 . S
C1445 C1446 1.523 . S
C1446 C1427 1.368 . S
C1446 C1440 1.368 . S
C1446 C1445 1.523 . S
C1447 C1431 1.429 . S
C1447 C1443 1.429 . S
C1447 C1448 1.523 . S
C1448 C1432 1.368 . S
C1448 C1444 1.368 . S
C1448 C1447 1.523 . S
H1449 C1424 0.950 . S
H1450 C1426 0.950 . S
H1451 C1427 0.949 . S
H1452 C1429 0.950 . S
H1453 C1431 0.950 . S
C1454 C1455 1.349 . S
C1454 C1456 1.327 . S
C1454 H1479 0.950 . S
C1455 C1454 1.349 . S
C1455 C1471 1.349 . S
C1456 C1454 1.327 . S
C1456 C1475 1.429 . S
C1456 H1480 0.950 . S
C1457 C1474 1.574 . S
C1457 C1476 1.368 . S
C1457 H1481 0.949 . S
H1458 C1462 0.949 . S
C1459 C1460 1.349 . S
C1459 C1461 1.327 . S
C1459 H1482 0.950 . S
C1460 C1459 1.349 . S
C1460 C1472 1.349 . S
C1461 C1459 1.327 . S
C1461 C1477 1.429 . S
C1461 H1483 0.950 . S
C1462 H1458 0.949 . S
C1462 C1470 1.574 . S
C1462 C1478 1.368 . S
H1463 C1471 0.950 . S
H1464 C1469 0.950 . S
H1465 C1470 0.949 . S
H1466 C1472 0.950 . S
H1467 C1473 0.950 . S
H1468 C1474 0.949 . S
C1469 H1464 0.950 . S
C1469 C1471 1.327 . S
C1469 C1475 1.429 . S
C1470 C1462 1.574 . S
C1470 H1465 0.949 . S
C1470 C1476 1.368 . S
C1471 C1455 1.349 . S
C1471 H1463 0.950 . S
C1471 C1469 1.327 . S
C1472 C1460 1.349 . S
C1472 H1466 0.950 . S
C1472 C1473 1.327 . S
C1473 H1467 0.950 . S
C1473 C1472 1.327 . S
C1473 C1477 1.429 . S
C1474 C1457 1.574 . S
C1474 H1468 0.949 . S
C1474 C1478 1.368 . S
C1475 C1456 1.429 . S
C1475 C1469 1.429 . S
C1475 C1476 1.523 . S
C1476 C1457 1.368 . S
C1476 C1470 1.368 . S
C1476 C1475 1.523 . S
C1477 C1461 1.429 . S
C1477 C1473 1.429 . S
C1477 C1478 1.523 . S
C1478 C1462 1.368 . S
C1478 C1474 1.368 . S
C1478 C1477 1.523 . S
H1479 C1454 0.950 . S
H1480 C1456 0.950 . S
H1481 C1457 0.949 . S
H1482 C1459 0.950 . S
H1483 C1461 0.950 . S
C1484 C1485 1.349 . S
C1484 C1486 1.327 . S
C1484 H1509 0.950 . S
C1485 C1484 1.349 . S
C1485 C1501 1.349 . S
C1486 C1484 1.327 . S
C1486 C1505 1.429 . S
C1486 H1510 0.950 . S
C1487 C1504 1.574 . S
C1487 C1506 1.368 . S
C1487 H1511 0.949 . S
H1488 C1492 0.949 . S
C1489 C1490 1.349 . S
C1489 C1491 1.327 . S
C1489 H1512 0.950 . S
C1490 C1489 1.349 . S
C1490 C1502 1.349 . S
C1491 C1489 1.327 . S
C1491 C1507 1.429 . S
C1491 H1513 0.950 . S
C1492 H1488 0.949 . S
C1492 C1500 1.574 . S
C1492 C1508 1.368 . S
H1493 C1501 0.950 . S
H1494 C1499 0.950 . S
H1495 C1500 0.949 . S
H1496 C1502 0.950 . S
H1497 C1503 0.950 . S
H1498 C1504 0.949 . S
C1499 H1494 0.950 . S
C1499 C1501 1.327 . S
C1499 C1505 1.429 . S
C1500 C1492 1.574 . S
C1500 H1495 0.949 . S
C1500 C1506 1.368 . S
C1501 C1485 1.349 . S
C1501 H1493 0.950 . S
C1501 C1499 1.327 . S
C1502 C1490 1.349 . S
C1502 H1496 0.950 . S
C1502 C1503 1.327 . S
C1503 H1497 0.950 . S
C1503 C1502 1.327 . S
C1503 C1507 1.429 . S
C1504 C1487 1.574 . S
C1504 H1498 0.949 . S
C1504 C1508 1.368 . S
C1505 C1486 1.429 . S
C1505 C1499 1.429 . S
C1505 C1506 1.523 . S
C1506 C1487 1.368 . S
C1506 C1500 1.368 . S
C1506 C1505 1.523 . S
C1507 C1491 1.429 . S
C1507 C1503 1.429 . S
C1507 C1508 1.523 . S
C1508 C1492 1.368 . S
C1508 C1504 1.368 . S
C1508 C1507 1.523 . S
H1509 C1484 0.950 . S
H1510 C1486 0.950 . S
H1511 C1487 0.949 . S
H1512 C1489 0.950 . S
H1513 C1491 0.950 . S
C1514 C1515 1.349 . S
C1514 C1516 1.327 . S
C1514 H1539 0.950 . S
C1515 C1514 1.349 . S
C1515 C1531 1.349 . S
C1516 C1514 1.327 . S
C1516 C1535 1.429 . S
C1516 H1540 0.950 . S
C1517 C1534 1.574 . S
C1517 C1536 1.368 . S
C1517 H1541 0.949 . S
H1518 C1522 0.949 . S
C1519 C1520 1.349 . S
C1519 C1521 1.327 . S
C1519 H1542 0.950 . S
C1520 C1519 1.349 . S
C1520 C1532 1.349 . S
C1521 C1519 1.327 . S
C1521 C1537 1.429 . S
C1521 H1543 0.950 . S
C1522 H1518 0.949 . S
C1522 C1530 1.574 . S
C1522 C1538 1.368 . S
H1523 C1531 0.950 . S
H1524 C1529 0.950 . S
H1525 C1530 0.949 . S
H1526 C1532 0.950 . S
H1527 C1533 0.950 . S
H1528 C1534 0.949 . S
C1529 H1524 0.950 . S
C1529 C1531 1.327 . S
C1529 C1535 1.429 . S
C1530 C1522 1.574 . S
C1530 H1525 0.949 . S
C1530 C1536 1.368 . S
C1531 C1515 1.349 . S
C1531 H1523 0.950 . S
C1531 C1529 1.327 . S
C1532 C1520 1.349 . S
C1532 H1526 0.950 . S
C1532 C1533 1.327 . S
C1533 H1527 0.950 . S
C1533 C1532 1.327 . S
C1533 C1537 1.429 . S
C1534 C1517 1.574 . S
C1534 H1528 0.949 . S
C1534 C1538 1.368 . S
C1535 C1516 1.429 . S
C1535 C1529 1.429 . S
C1535 C1536 1.523 . S
C1536 C1517 1.368 . S
C1536 C1530 1.368 . S
C1536 C1535 1.523 . S
C1537 C1521 1.429 . S
C1537 C1533 1.429 . S
C1537 C1538 1.523 . S
C1538 C1522 1.368 . S
C1538 C1534 1.368 . S
C1538 C1537 1.523 . S
H1539 C1514 0.950 . S
H1540 C1516 0.950 . S
H1541 C1517 0.949 . S
H1542 C1519 0.950 . S
H1543 C1521 0.950 . S
C1544 C1545 1.349 . S
C1544 C1546 1.327 . S
C1544 H1569 0.950 . S
C1545 C1544 1.349 . S
C1545 C1561 1.349 . S
C1546 C1544 1.327 . S
C1546 C1565 1.429 . S
C1546 H1570 0.950 . S
C1547 C1564 1.574 . S
C1547 C1566 1.368 . S
C1547 H1571 0.949 . S
H1548 C1552 0.949 . S
C1549 C1550 1.349 . S
C1549 C1551 1.327 . S
C1549 H1572 0.950 . S
C1550 C1549 1.349 . S
C1550 C1562 1.349 . S
C1551 C1549 1.327 . S
C1551 C1567 1.429 . S
C1551 H1573 0.950 . S
C1552 H1548 0.949 . S
C1552 C1560 1.574 . S
C1552 C1568 1.368 . S
H1553 C1561 0.950 . S
H1554 C1559 0.950 . S
H1555 C1560 0.949 . S
H1556 C1562 0.950 . S
H1557 C1563 0.950 . S
H1558 C1564 0.949 . S
C1559 H1554 0.950 . S
C1559 C1561 1.327 . S
C1559 C1565 1.429 . S
C1560 C1552 1.574 . S
C1560 H1555 0.949 . S
C1560 C1566 1.368 . S
C1561 C1545 1.349 . S
C1561 H1553 0.950 . S
C1561 C1559 1.327 . S
C1562 C1550 1.349 . S
C1562 H1556 0.950 . S
C1562 C1563 1.327 . S
C1563 H1557 0.950 . S
C1563 C1562 1.327 . S
C1563 C1567 1.429 . S
C1564 C1547 1.574 . S
C1564 H1558 0.949 . S
C1564 C1568 1.368 . S
C1565 C1546 1.429 . S
C1565 C1559 1.429 . S
C1565 C1566 1.523 . S
C1566 C1547 1.368 . S
C1566 C1560 1.368 . S
C1566 C1565 1.523 . S
C1567 C1551 1.429 . S
C1567 C1563 1.429 . S
C1567 C1568 1.523 . S
C1568 C1552 1.368 . S
C1568 C1564 1.368 . S
C1568 C1567 1.523 . S
H1569 C1544 0.950 . S
H1570 C1546 0.950 . S
H1571 C1547 0.949 . S
H1572 C1549 0.950 . S
H1573 C1551 0.950 . S
C1574 C1575 1.349 . S
C1574 C1576 1.327 . S
C1574 H1599 0.950 . S
C1575 C1574 1.349 . S
C1575 C1591 1.349 . S
C1576 C1574 1.327 . S
C1576 C1595 1.429 . S
C1576 H1600 0.950 . S
C1577 C1594 1.574 . S
C1577 C1596 1.368 . S
C1577 H1601 0.949 . S
H1578 C1582 0.949 . S
C1579 C1580 1.349 . S
C1579 C1581 1.327 . S
C1579 H1602 0.950 . S
C1580 C1579 1.349 . S
C1580 C1592 1.349 . S
C1581 C1579 1.327 . S
C1581 C1597 1.429 . S
C1581 H1603 0.950 . S
C1582 H1578 0.949 . S
C1582 C1590 1.574 . S
C1582 C1598 1.368 . S
H1583 C1591 0.950 . S
H1584 C1589 0.950 . S
H1585 C1590 0.949 . S
H1586 C1592 0.950 . S
H1587 C1593 0.950 . S
H1588 C1594 0.949 . S
C1589 H1584 0.950 . S
C1589 C1591 1.327 . S
C1589 C1595 1.429 . S
C1590 C1582 1.574 . S
C1590 H1585 0.949 . S
C1590 C1596 1.368 . S
C1591 C1575 1.349 . S
C1591 H1583 0.950 . S
C1591 C1589 1.327 . S
C1592 C1580 1.349 . S
C1592 H1586 0.950 . S
C1592 C1593 1.327 . S
C1593 H1587 0.950 . S
C1593 C1592 1.327 . S
C1593 C1597 1.429 . S
C1594 C1577 1.574 . S
C1594 H1588 0.949 . S
C1594 C1598 1.368 . S
C1595 C1576 1.429 . S
C1595 C1589 1.429 . S
C1595 C1596 1.523 . S
C1596 C1577 1.368 . S
C1596 C1590 1.368 . S
C1596 C1595 1.523 . S
C1597 C1581 1.429 . S
C1597 C1593 1.429 . S
C1597 C1598 1.523 . S
C1598 C1582 1.368 . S
C1598 C1594 1.368 . S
C1598 C1597 1.523 . S
H1599 C1574 0.950 . S
H1600 C1576 0.950 . S
H1601 C1577 0.949 . S
H1602 C1579 0.950 . S
H1603 C1581 0.950 . S
C1604 C1605 1.349 . S
C1604 C1606 1.327 . S
C1604 H1629 0.950 . S
C1605 C1604 1.349 . S
C1605 C1621 1.349 . S
C1606 C1604 1.327 . S
C1606 C1625 1.429 . S
C1606 H1630 0.950 . S
C1607 C1624 1.574 . S
C1607 C1626 1.368 . S
C1607 H1631 0.949 . S
H1608 C1612 0.949 . S
C1609 C1610 1.349 . S
C1609 C1611 1.327 . S
C1609 H1632 0.950 . S
C1610 C1609 1.349 . S
C1610 C1622 1.349 . S
C1611 C1609 1.327 . S
C1611 C1627 1.429 . S
C1611 H1633 0.950 . S
C1612 H1608 0.949 . S
C1612 C1620 1.574 . S
C1612 C1628 1.368 . S
H1613 C1621 0.950 . S
H1614 C1619 0.950 . S
H1615 C1620 0.949 . S
H1616 C1622 0.950 . S
H1617 C1623 0.950 . S
H1618 C1624 0.949 . S
C1619 H1614 0.950 . S
C1619 C1621 1.327 . S
C1619 C1625 1.429 . S
C1620 C1612 1.574 . S
C1620 H1615 0.949 . S
C1620 C1626 1.368 . S
C1621 C1605 1.349 . S
C1621 H1613 0.950 . S
C1621 C1619 1.327 . S
C1622 C1610 1.349 . S
C1622 H1616 0.950 . S
C1622 C1623 1.327 . S
C1623 H1617 0.950 . S
C1623 C1622 1.327 . S
C1623 C1627 1.429 . S
C1624 C1607 1.574 . S
C1624 H1618 0.949 . S
C1624 C1628 1.368 . S
C1625 C1606 1.429 . S
C1625 C1619 1.429 . S
C1625 C1626 1.523 . S
C1626 C1607 1.368 . S
C1626 C1620 1.368 . S
C1626 C1625 1.523 . S
C1627 C1611 1.429 . S
C1627 C1623 1.429 . S
C1627 C1628 1.523 . S
C1628 C1612 1.368 . S
C1628 C1624 1.368 . S
C1628 C1627 1.523 . S
H1629 C1604 0.950 . S
H1630 C1606 0.950 . S
H1631 C1607 0.949 . S
H1632 C1609 0.950 . S
H1633 C1611 0.950 . S
C1634 C1635 1.349 . S
C1634 C1636 1.327 . S
C1634 H1659 0.950 . S
C1635 C1634 1.349 . S
C1635 C1651 1.349 . S
C1636 C1634 1.327 . S
C1636 C1655 1.429 . S
C1636 H1660 0.950 . S
C1637 C1654 1.574 . S
C1637 C1656 1.368 . S
C1637 H1661 0.949 . S
H1638 C1642 0.949 . S
C1639 C1640 1.349 . S
C1639 C1641 1.327 . S
C1639 H1662 0.950 . S
C1640 C1639 1.349 . S
C1640 C1652 1.349 . S
C1641 C1639 1.327 . S
C1641 C1657 1.429 . S
C1641 H1663 0.950 . S
C1642 H1638 0.949 . S
C1642 C1650 1.574 . S
C1642 C1658 1.368 . S
H1643 C1651 0.950 . S
H1644 C1649 0.950 . S
H1645 C1650 0.949 . S
H1646 C1652 0.950 . S
H1647 C1653 0.950 . S
H1648 C1654 0.949 . S
C1649 H1644 0.950 . S
C1649 C1651 1.327 . S
C1649 C1655 1.429 . S
C1650 C1642 1.574 . S
C1650 H1645 0.949 . S
C1650 C1656 1.368 . S
C1651 C1635 1.349 . S
C1651 H1643 0.950 . S
C1651 C1649 1.327 . S
C1652 C1640 1.349 . S
C1652 H1646 0.950 . S
C1652 C1653 1.327 . S
C1653 H1647 0.950 . S
C1653 C1652 1.327 . S
C1653 C1657 1.429 . S
C1654 C1637 1.574 . S
C1654 H1648 0.949 . S
C1654 C1658 1.368 . S
C1655 C1636 1.429 . S
C1655 C1649 1.429 . S
C1655 C1656 1.523 . S
C1656 C1637 1.368 . S
C1656 C1650 1.368 . S
C1656 C1655 1.523 . S
C1657 C1641 1.429 . S
C1657 C1653 1.429 . S
C1657 C1658 1.523 . S
C1658 C1642 1.368 . S
C1658 C1654 1.368 . S
C1658 C1657 1.523 . S
H1659 C1634 0.950 . S
H1660 C1636 0.950 . S
H1661 C1637 0.949 . S
H1662 C1639 0.950 . S
H1663 C1641 0.950 . S
C1664 C1665 1.349 . S
C1664 C1666 1.327 . S
C1664 H1689 0.950 . S
C1665 C1664 1.349 . S
C1665 C1681 1.349 . S
C1666 C1664 1.327 . S
C1666 C1685 1.429 . S
C1666 H1690 0.950 . S
C1667 C1684 1.574 . S
C1667 C1686 1.368 . S
C1667 H1691 0.949 . S
H1668 C1672 0.949 . S
C1669 C1670 1.349 . S
C1669 C1671 1.327 . S
C1669 H1692 0.950 . S
C1670 C1669 1.349 . S
C1670 C1682 1.349 . S
C1671 C1669 1.327 . S
C1671 C1687 1.429 . S
C1671 H1693 0.950 . S
C1672 H1668 0.949 . S
C1672 C1680 1.574 . S
C1672 C1688 1.368 . S
H1673 C1681 0.950 . S
H1674 C1679 0.950 . S
H1675 C1680 0.949 . S
H1676 C1682 0.950 . S
H1677 C1683 0.950 . S
H1678 C1684 0.949 . S
C1679 H1674 0.950 . S
C1679 C1681 1.327 . S
C1679 C1685 1.429 . S
C1680 C1672 1.574 . S
C1680 H1675 0.949 . S
C1680 C1686 1.368 . S
C1681 C1665 1.349 . S
C1681 H1673 0.950 . S
C1681 C1679 1.327 . S
C1682 C1670 1.349 . S
C1682 H1676 0.950 . S
C1682 C1683 1.327 . S
C1683 H1677 0.950 . S
C1683 C1682 1.327 . S
C1683 C1687 1.429 . S
C1684 C1667 1.574 . S
C1684 H1678 0.949 . S
C1684 C1688 1.368 . S
C1685 C1666 1.429 . S
C1685 C1679 1.429 . S
C1685 C1686 1.523 . S
C1686 C1667 1.368 . S
C1686 C1680 1.368 . S
C1686 C1685 1.523 . S
C1687 C1671 1.429 . S
C1687 C1683 1.429 . S
C1687 C1688 1.523 . S
C1688 C1672 1.368 . S
C1688 C1684 1.368 . S
C1688 C1687 1.523 . S
H1689 C1664 0.950 . S
H1690 C1666 0.950 . S
H1691 C1667 0.949 . S
H1692 C1669 0.950 . S
H1693 C1671 0.950 . S
C1694 C1695 1.349 . S
C1694 C1696 1.327 . S
C1694 H1719 0.950 . S
C1695 C1694 1.349 . S
C1695 C1711 1.349 . S
C1696 C1694 1.327 . S
C1696 C1715 1.429 . S
C1696 H1720 0.950 . S
C1697 C1714 1.574 . S
C1697 C1716 1.368 . S
C1697 H1721 0.949 . S
H1698 C1702 0.949 . S
C1699 C1700 1.349 . S
C1699 C1701 1.327 . S
C1699 H1722 0.950 . S
C1700 C1699 1.349 . S
C1700 C1712 1.349 . S
C1701 C1699 1.327 . S
C1701 C1717 1.429 . S
C1701 H1723 0.950 . S
C1702 H1698 0.949 . S
C1702 C1710 1.574 . S
C1702 C1718 1.368 . S
H1703 C1711 0.950 . S
H1704 C1709 0.950 . S
H1705 C1710 0.949 . S
H1706 C1712 0.950 . S
H1707 C1713 0.950 . S
H1708 C1714 0.949 . S
C1709 H1704 0.950 . S
C1709 C1711 1.327 . S
C1709 C1715 1.429 . S
C1710 C1702 1.574 . S
C1710 H1705 0.949 . S
C1710 C1716 1.368 . S
C1711 C1695 1.349 . S
C1711 H1703 0.950 . S
C1711 C1709 1.327 . S
C1712 C1700 1.349 . S
C1712 H1706 0.950 . S
C1712 C1713 1.327 . S
C1713 H1707 0.950 . S
C1713 C1712 1.327 . S
C1713 C1717 1.429 . S
C1714 C1697 1.574 . S
C1714 H1708 0.949 . S
C1714 C1718 1.368 . S
C1715 C1696 1.429 . S
C1715 C1709 1.429 . S
C1715 C1716 1.523 . S
C1716 C1697 1.368 . S
C1716 C1710 1.368 . S
C1716 C1715 1.523 . S
C1717 C1701 1.429 . S
C1717 C1713 1.429 . S
C1717 C1718 1.523 . S
C1718 C1702 1.368 . S
C1718 C1714 1.368 . S
C1718 C1717 1.523 . S
H1719 C1694 0.950 . S
H1720 C1696 0.950 . S
H1721 C1697 0.949 . S
H1722 C1699 0.950 . S
H1723 C1701 0.950 . S
C1724 C1725 1.349 . S
C1724 C1726 1.327 . S
C1724 H1749 0.950 . S
C1725 C1724 1.349 . S
C1725 C1741 1.349 . S
C1726 C1724 1.327 . S
C1726 C1745 1.429 . S
C1726 H1750 0.950 . S
C1727 C1744 1.574 . S
C1727 C1746 1.368 . S
C1727 H1751 0.949 . S
H1728 C1732 0.949 . S
C1729 C1730 1.349 . S
C1729 C1731 1.327 . S
C1729 H1752 0.950 . S
C1730 C1729 1.349 . S
C1730 C1742 1.349 . S
C1731 C1729 1.327 . S
C1731 C1747 1.429 . S
C1731 H1753 0.950 . S
C1732 H1728 0.949 . S
C1732 C1740 1.574 . S
C1732 C1748 1.368 . S
H1733 C1741 0.950 . S
H1734 C1739 0.950 . S
H1735 C1740 0.949 . S
H1736 C1742 0.950 . S
H1737 C1743 0.950 . S
H1738 C1744 0.949 . S
C1739 H1734 0.950 . S
C1739 C1741 1.327 . S
C1739 C1745 1.429 . S
C1740 C1732 1.574 . S
C1740 H1735 0.949 . S
C1740 C1746 1.368 . S
C1741 C1725 1.349 . S
C1741 H1733 0.950 . S
C1741 C1739 1.327 . S
C1742 C1730 1.349 . S
C1742 H1736 0.950 . S
C1742 C1743 1.327 . S
C1743 H1737 0.950 . S
C1743 C1742 1.327 . S
C1743 C1747 1.429 . S
C1744 C1727 1.574 . S
C1744 H1738 0.949 . S
C1744 C1748 1.368 . S
C1745 C1726 1.429 . S
C1745 C1739 1.429 . S
C1745 C1746 1.523 . S
C1746 C1727 1.368 . S
C1746 C1740 1.368 . S
C1746 C1745 1.523 . S
C1747 C1731 1.429 . S
C1747 C1743 1.429 . S
C1747 C1748 1.523 . S
C1748 C1732 1.368 . S
C1748 C1744 1.368 . S
C1748 C1747 1.523 . S
H1749 C1724 0.950 . S
H1750 C1726 0.950 . S
H1751 C1727 0.949 . S
H1752 C1729 0.950 . S
H1753 C1731 0.950 . S
C1754 C1755 1.349 . S
C1754 C1756 1.327 . S
C1754 H1779 0.950 . S
C1755 C1754 1.349 . S
C1755 C1771 1.349 . S
C1756 C1754 1.327 . S
C1756 C1775 1.429 . S
C1756 H1780 0.950 . S
C1757 C1774 1.574 1_556 S
C1757 C1776 1.368 . S
C1757 H1781 0.949 . S
H1758 C1762 0.949 . S
C1759 C1760 1.349 . S
C1759 C1761 1.327 . S
C1759 H1782 0.950 . S
C1760 C1759 1.349 . S
C1760 C1772 1.349 . S
C1761 C1759 1.327 . S
C1761 C1777 1.429 . S
C1761 H1783 0.950 . S
C1762 H1758 0.949 . S
C1762 C1770 1.574 1_554 S
C1762 C1778 1.368 . S
H1763 C1771 0.950 . S
H1764 C1769 0.950 . S
H1765 C1770 0.949 . S
H1766 C1772 0.950 . S
H1767 C1773 0.950 . S
H1768 C1774 0.949 . S
C1769 H1764 0.950 . S
C1769 C1771 1.327 . S
C1769 C1775 1.429 . S
C1770 C1762 1.574 1_556 S
C1770 H1765 0.949 . S
C1770 C1776 1.368 . S
C1771 C1755 1.349 . S
C1771 H1763 0.950 . S
C1771 C1769 1.327 . S
C1772 C1760 1.349 . S
C1772 H1766 0.950 . S
C1772 C1773 1.327 . S
C1773 H1767 0.950 . S
C1773 C1772 1.327 . S
C1773 C1777 1.429 . S
C1774 C1757 1.574 1_554 S
C1774 H1768 0.949 . S
C1774 C1778 1.368 . S
C1775 C1756 1.429 . S
C1775 C1769 1.429 . S
C1775 C1776 1.523 . S
C1776 C1757 1.368 . S
C1776 C1770 1.368 . S
C1776 C1775 1.523 . S
C1777 C1761 1.429 . S
C1777 C1773 1.429 . S
C1777 C1778 1.523 . S
C1778 C1762 1.368 . S
C1778 C1774 1.368 . S
C1778 C1777 1.523 . S
H1779 C1754 0.950 . S
H1780 C1756 0.950 . S
H1781 C1757 0.949 . S
H1782 C1759 0.950 . S
H1783 C1761 0.950 . S
C1784 C1785 1.349 . S
C1784 C1786 1.327 . S
C1784 H1809 0.950 . S
C1785 C1784 1.349 . S
C1785 C1801 1.349 . S
C1786 C1784 1.327 . S
C1786 C1805 1.429 . S
C1786 H1810 0.950 . S
C1787 C1804 1.574 1_554 S
C1787 C1806 1.368 . S
C1787 H1811 0.949 . S
H1788 C1792 0.949 . S
C1789 C1790 1.349 . S
C1789 C1791 1.327 . S
C1789 H1812 0.950 . S
C1790 C1789 1.349 . S
C1790 C1802 1.349 . S
C1791 C1789 1.327 . S
C1791 C1807 1.429 . S
C1791 H1813 0.950 . S
C1792 H1788 0.949 . S
C1792 C1800 1.574 1_556 S
C1792 C1808 1.368 . S
H1793 C1801 0.950 . S
H1794 C1799 0.950 . S
H1795 C1800 0.949 . S
H1796 C1802 0.950 . S
H1797 C1803 0.950 . S
H1798 C1804 0.949 . S
C1799 H1794 0.950 . S
C1799 C1801 1.327 . S
C1799 C1805 1.429 . S
C1800 C1792 1.574 1_554 S
C1800 H1795 0.949 . S
C1800 C1806 1.368 . S
C1801 C1785 1.349 . S
C1801 H1793 0.950 . S
C1801 C1799 1.327 . S
C1802 C1790 1.349 . S
C1802 H1796 0.950 . S
C1802 C1803 1.327 . S
C1803 H1797 0.950 . S
C1803 C1802 1.327 . S
C1803 C1807 1.429 . S
C1804 C1787 1.574 1_556 S
C1804 H1798 0.949 . S
C1804 C1808 1.368 . S
C1805 C1786 1.429 . S
C1805 C1799 1.429 . S
C1805 C1806 1.523 . S
C1806 C1787 1.368 . S
C1806 C1800 1.368 . S
C1806 C1805 1.523 . S
C1807 C1791 1.429 . S
C1807 C1803 1.429 . S
C1807 C1808 1.523 . S
C1808 C1792 1.368 . S
C1808 C1804 1.368 . S
C1808 C1807 1.523 . S
H1809 C1784 0.950 . S
H1810 C1786 0.950 . S
H1811 C1787 0.949 . S
H1812 C1789 0.950 . S
H1813 C1791 0.950 . S
C1814 C1815 1.349 . S
C1814 C1816 1.327 . S
C1814 H1839 0.950 . S
C1815 C1814 1.349 . S
C1815 C1831 1.349 . S
C1816 C1814 1.327 . S
C1816 C1835 1.429 . S
C1816 H1840 0.950 . S
C1817 C1834 1.574 . S
C1817 C1836 1.368 . S
C1817 H1841 0.949 . S
H1818 C1822 0.949 . S
C1819 C1820 1.349 . S
C1819 C1821 1.327 . S
C1819 H1842 0.950 . S
C1820 C1819 1.349 . S
C1820 C1832 1.349 . S
C1821 C1819 1.327 . S
C1821 C1837 1.429 . S
C1821 H1843 0.950 . S
C1822 H1818 0.949 . S
C1822 C1830 1.574 . S
C1822 C1838 1.368 . S
H1823 C1831 0.950 . S
H1824 C1829 0.950 . S
H1825 C1830 0.949 . S
H1826 C1832 0.950 . S
H1827 C1833 0.950 . S
H1828 C1834 0.949 . S
C1829 H1824 0.950 . S
C1829 C1831 1.327 . S
C1829 C1835 1.429 . S
C1830 C1822 1.574 . S
C1830 H1825 0.949 . S
C1830 C1836 1.368 . S
C1831 C1815 1.349 . S
C1831 H1823 0.950 . S
C1831 C1829 1.327 . S
C1832 C1820 1.349 . S
C1832 H1826 0.950 . S
C1832 C1833 1.327 . S
C1833 H1827 0.950 . S
C1833 C1832 1.327 . S
C1833 C1837 1.429 . S
C1834 C1817 1.574 . S
C1834 H1828 0.949 . S
C1834 C1838 1.368 . S
C1835 C1816 1.429 . S
C1835 C1829 1.429 . S
C1835 C1836 1.523 . S
C1836 C1817 1.368 . S
C1836 C1830 1.368 . S
C1836 C1835 1.523 . S
C1837 C1821 1.429 . S
C1837 C1833 1.429 . S
C1837 C1838 1.523 . S
C1838 C1822 1.368 . S
C1838 C1834 1.368 . S
C1838 C1837 1.523 . S
H1839 C1814 0.950 . S
H1840 C1816 0.950 . S
H1841 C1817 0.949 . S
H1842 C1819 0.950 . S
H1843 C1821 0.950 . S
C1844 C1845 1.349 . S
C1844 C1846 1.327 . S
C1844 H1869 0.950 . S
C1845 C1844 1.349 . S
C1845 C1861 1.349 . S
C1846 C1844 1.327 . S
C1846 C1865 1.429 . S
C1846 H1870 0.950 . S
C1847 C1864 1.574 . S
C1847 C1866 1.368 . S
C1847 H1871 0.949 . S
H1848 C1852 0.949 . S
C1849 C1850 1.349 . S
C1849 C1851 1.327 . S
C1849 H1872 0.950 . S
C1850 C1849 1.349 . S
C1850 C1862 1.349 . S
C1851 C1849 1.327 . S
C1851 C1867 1.429 . S
C1851 H1873 0.950 . S
C1852 H1848 0.949 . S
C1852 C1860 1.574 . S
C1852 C1868 1.368 . S
H1853 C1861 0.950 . S
H1854 C1859 0.950 . S
H1855 C1860 0.949 . S
H1856 C1862 0.950 . S
H1857 C1863 0.950 . S
H1858 C1864 0.949 . S
C1859 H1854 0.950 . S
C1859 C1861 1.327 . S
C1859 C1865 1.429 . S
C1860 C1852 1.574 . S
C1860 H1855 0.949 . S
C1860 C1866 1.368 . S
C1861 C1845 1.349 . S
C1861 H1853 0.950 . S
C1861 C1859 1.327 . S
C1862 C1850 1.349 . S
C1862 H1856 0.950 . S
C1862 C1863 1.327 . S
C1863 H1857 0.950 . S
C1863 C1862 1.327 . S
C1863 C1867 1.429 . S
C1864 C1847 1.574 . S
C1864 H1858 0.949 . S
C1864 C1868 1.368 . S
C1865 C1846 1.429 . S
C1865 C1859 1.429 . S
C1865 C1866 1.523 . S
C1866 C1847 1.368 . S
C1866 C1860 1.368 . S
C1866 C1865 1.523 . S
C1867 C1851 1.429 . S
C1867 C1863 1.429 . S
C1867 C1868 1.523 . S
C1868 C1852 1.368 . S
C1868 C1864 1.368 . S
C1868 C1867 1.523 . S
H1869 C1844 0.950 . S
H1870 C1846 0.950 . S
H1871 C1847 0.949 . S
H1872 C1849 0.950 . S
H1873 C1851 0.950 . S
C1874 C1875 1.349 . S
C1874 C1876 1.327 . S
C1874 H1899 0.950 . S
C1875 C1874 1.349 . S
C1875 C1891 1.349 . S
C1876 C1874 1.327 . S
C1876 C1895 1.429 . S
C1876 H1900 0.950 . S
C1877 C1894 1.574 . S
C1877 C1896 1.368 . S
C1877 H1901 0.949 . S
H1878 C1882 0.949 . S
C1879 C1880 1.349 . S
C1879 C1881 1.327 . S
C1879 H1902 0.950 . S
C1880 C1879 1.349 . S
C1880 C1892 1.349 . S
C1881 C1879 1.327 . S
C1881 C1897 1.429 . S
C1881 H1903 0.950 . S
C1882 H1878 0.949 . S
C1882 C1890 1.574 . S
C1882 C1898 1.368 . S
H1883 C1891 0.950 . S
H1884 C1889 0.950 . S
H1885 C1890 0.949 . S
H1886 C1892 0.950 . S
H1887 C1893 0.950 . S
H1888 C1894 0.949 . S
C1889 H1884 0.950 . S
C1889 C1891 1.327 . S
C1889 C1895 1.429 . S
C1890 C1882 1.574 . S
C1890 H1885 0.949 . S
C1890 C1896 1.368 . S
C1891 C1875 1.349 . S
C1891 H1883 0.950 . S
C1891 C1889 1.327 . S
C1892 C1880 1.349 . S
C1892 H1886 0.950 . S
C1892 C1893 1.327 . S
C1893 H1887 0.950 . S
C1893 C1892 1.327 . S
C1893 C1897 1.429 . S
C1894 C1877 1.574 . S
C1894 H1888 0.949 . S
C1894 C1898 1.368 . S
C1895 C1876 1.429 . S
C1895 C1889 1.429 . S
C1895 C1896 1.523 . S
C1896 C1877 1.368 . S
C1896 C1890 1.368 . S
C1896 C1895 1.523 . S
C1897 C1881 1.429 . S
C1897 C1893 1.429 . S
C1897 C1898 1.523 . S
C1898 C1882 1.368 . S
C1898 C1894 1.368 . S
C1898 C1897 1.523 . S
H1899 C1874 0.950 . S
H1900 C1876 0.950 . S
H1901 C1877 0.949 . S
H1902 C1879 0.950 . S
H1903 C1881 0.950 . S
C945 C595 1.435 . S
C950 C5 1.435 . S
C975 C64 1.435 . S
C980 C654 1.435 . S
C1005 C477 1.435 . S
C1010 C123 1.435 . S
C1035 C536 1.434 . S
C1040 C182 1.434 . S
C1065 C241 1.434 . S
C1070 C831 1.434 . S
C1095 C890 1.435 . S
C1100 C300 1.435 . S
C1125 C359 1.435 . S
C1130 C713 1.435 . S
C1155 C772 1.435 . S
C1160 C418 1.435 . S
C1185 C642 1.672 . S
C1190 C52 1.672 . S
C1215 C111 1.672 . S
C1220 C701 1.672 . S
C1245 C170 1.673 . S
C1250 C524 1.673 . S
C1275 C229 1.672 . S
C1280 C583 1.672 . S
C1305 C288 1.672 . S
C1310 C878 1.672 . S
C1335 C347 1.673 . S
C1340 C937 1.673 . S
C1365 C760 1.672 . S
C1370 C406 1.672 . S
C1395 C819 1.672 . S
C1400 C465 1.672 . S
C1425 C3 1.353 . S
C1430 C357 1.353 . S
C1455 C62 1.353 . S
C1460 C416 1.353 . S
C1485 C121 1.353 . S
C1490 C239 1.353 . S
C1515 C180 1.353 . S
C1520 C298 1.353 . S
C1545 C475 1.353 . S
C1550 C829 1.353 . S
C1575 C888 1.353 . S
C1580 C534 1.353 . S
C1605 C593 1.353 . S
C1610 C711 1.353 . S
C1635 C770 1.353 . S
C1640 C652 1.353 . S
C1665 C33 1.209 . S
C1670 C918 1.209 . S
C1695 C741 1.209 . S
C1700 C92 1.209 . S
C1725 C800 1.210 . S
C1730 C151 1.210 . S
C1755 C859 1.209 . S
C1760 C210 1.209 . S
C1785 C564 1.210 . S
C1790 C269 1.210 . S
C1815 C623 1.209 . S
C1820 C328 1.209 . S
C1845 C387 1.209 . S
C1850 C682 1.209 . S
C1875 C446 1.209 . S
C1880 C505 1.209 . S
