# Generated by pormake.
# Topology uoy, (4)-cn, num edge types: 1
# Building blocks:
#     Node 0, Type 0, BuildingBlock: ICAMEG_clean_sbu_1, # of connection points: 4
#     Node 1, Type 0, BuildingBlock: ICAMEG_clean_sbu_1, # of connection points: 4
#     Node 2, Type 0, BuildingBlock: ICAMEG_clean_sbu_1, # of connection points: 4
#     Node 3, Type 0, BuildingBlock: ICAMEG_clean_sbu_1, # of connection points: 4
#     Node 4, Type 0, BuildingBlock: ICAMEG_clean_sbu_1, # of connection points: 4
#     Node 5, Type 0, BuildingBlock: ICAMEG_clean_sbu_1, # of connection points: 4
#     Node 6, Type 0, BuildingBlock: ICAMEG_clean_sbu_1, # of connection points: 4
#     Node 7, Type 0, BuildingBlock: ICAMEG_clean_sbu_1, # of connection points: 4
#     Node 8, Type 0, BuildingBlock: ICAMEG_clean_sbu_1, # of connection points: 4
#     Node 9, Type 0, BuildingBlock: ICAMEG_clean_sbu_1, # of connection points: 4
#     Node 10, Type 0, BuildingBlock: ICAMEG_clean_sbu_1, # of connection points: 4
#     Node 11, Type 0, BuildingBlock: ICAMEG_clean_sbu_1, # of connection points: 4
#     Node 12, Type 0, BuildingBlock: ICAMEG_clean_sbu_1, # of connection points: 4
#     Node 13, Type 0, BuildingBlock: ICAMEG_clean_sbu_1, # of connection points: 4
#     Node 14, Type 0, BuildingBlock: ICAMEG_clean_sbu_1, # of connection points: 4
#     Node 15, Type 0, BuildingBlock: ICAMEG_clean_sbu_1, # of connection points: 4
#     Edge 16, Type (0, 0), BuildingBlock: CIFDUS_clean_linker_0, # of connection points: 2
#     Edge 17, Type (0, 0), BuildingBlock: CIFDUS_clean_linker_0, # of connection points: 2
#     Edge 18, Type (0, 0), BuildingBlock: CIFDUS_clean_linker_0, # of connection points: 2
#     Edge 19, Type (0, 0), BuildingBlock: CIFDUS_clean_linker_0, # of connection points: 2
#     Edge 20, Type (0, 0), BuildingBlock: CIFDUS_clean_linker_0, # of connection points: 2
#     Edge 21, Type (0, 0), BuildingBlock: CIFDUS_clean_linker_0, # of connection points: 2
#     Edge 22, Type (0, 0), BuildingBlock: CIFDUS_clean_linker_0, # of connection points: 2
#     Edge 23, Type (0, 0), BuildingBlock: CIFDUS_clean_linker_0, # of connection points: 2
#     Edge 24, Type (0, 0), BuildingBlock: CIFDUS_clean_linker_0, # of connection points: 2
#     Edge 25, Type (0, 0), BuildingBlock: CIFDUS_clean_linker_0, # of connection points: 2
#     Edge 26, Type (0, 0), BuildingBlock: CIFDUS_clean_linker_0, # of connection points: 2
#     Edge 27, Type (0, 0), BuildingBlock: CIFDUS_clean_linker_0, # of connection points: 2
#     Edge 28, Type (0, 0), BuildingBlock: CIFDUS_clean_linker_0, # of connection points: 2
#     Edge 29, Type (0, 0), BuildingBlock: CIFDUS_clean_linker_0, # of connection points: 2
#     Edge 30, Type (0, 0), BuildingBlock: CIFDUS_clean_linker_0, # of connection points: 2
#     Edge 31, Type (0, 0), BuildingBlock: CIFDUS_clean_linker_0, # of connection points: 2
#     Edge 32, Type (0, 0), BuildingBlock: CIFDUS_clean_linker_0, # of connection points: 2
#     Edge 33, Type (0, 0), BuildingBlock: CIFDUS_clean_linker_0, # of connection points: 2
#     Edge 34, Type (0, 0), BuildingBlock: CIFDUS_clean_linker_0, # of connection points: 2
#     Edge 35, Type (0, 0), BuildingBlock: CIFDUS_clean_linker_0, # of connection points: 2
#     Edge 36, Type (0, 0), BuildingBlock: CIFDUS_clean_linker_0, # of connection points: 2
#     Edge 37, Type (0, 0), BuildingBlock: CIFDUS_clean_linker_0, # of connection points: 2
#     Edge 38, Type (0, 0), BuildingBlock: CIFDUS_clean_linker_0, # of connection points: 2
#     Edge 39, Type (0, 0), BuildingBlock: CIFDUS_clean_linker_0, # of connection points: 2
#     Edge 40, Type (0, 0), BuildingBlock: CIFDUS_clean_linker_0, # of connection points: 2
#     Edge 41, Type (0, 0), BuildingBlock: CIFDUS_clean_linker_0, # of connection points: 2
#     Edge 42, Type (0, 0), BuildingBlock: CIFDUS_clean_linker_0, # of connection points: 2
#     Edge 43, Type (0, 0), BuildingBlock: CIFDUS_clean_linker_0, # of connection points: 2
#     Edge 44, Type (0, 0), BuildingBlock: CIFDUS_clean_linker_0, # of connection points: 2
#     Edge 45, Type (0, 0), BuildingBlock: CIFDUS_clean_linker_0, # of connection points: 2
#     Edge 46, Type (0, 0), BuildingBlock: CIFDUS_clean_linker_0, # of connection points: 2
#     Edge 47, Type (0, 0), BuildingBlock: CIFDUS_clean_linker_0, # of connection points: 2
# Relax obj value: 0.022
# Max RMSD: 0.074
# Mean RMSD: 0.074
data_MOF--net-uoy--node1-ICAMEG_clean_sbu_1--edge1-CIFDUS_clean_linker_0
_symmetry_space_group_name_H-M    P1
_symmetry_Int_Tables_number       1
_symmetry_cell_setting            triclinic
loop_
_symmetry_equiv_pos_as_xyz
'x, y, z'
_cell_length_a     25.485398
_cell_length_b     25.504165
_cell_length_c     102.68148
_cell_angle_alpha  89.979309
_cell_angle_beta   89.917124
_cell_angle_gamma 89.829097
loop_
_atom_site_label
_atom_site_type_symbol
_atom_site_fract_x
_atom_site_fract_y
_atom_site_fract_z
_atom_type_partial_charge
Co0 Co 0.29021 0.18048 0.1931 0.0
Co1 Co 0.24274 0.05509 0.1978 0.0
O2 O 0.23783 0.12556 0.19026 0.0
C3 C 0.28424 0.1757 0.1642 0.0
O4 O 0.28863 0.12454 0.16518 0.0
C5 C 0.139 0.03876 0.2103 0.0
O6 O 0.16495 0.02543 0.22085 0.0
O7 O 0.25244 0.08564 0.21564 0.0
O8 O 0.29784 0.15947 0.21174 0.0
H9 H 0.32008 0.91588 0.22667 0.0
H10 H 0.18747 0.20814 0.18146 0.0
O11 O 0.28369 0.20381 0.17445 0.0
H12 H 0.19936 0.31324 0.22165 0.0
H13 H 0.36563 0.36168 0.18802 0.0
H14 H 0.39174 0.18609 0.2071 0.0
H15 H 0.27147 0.25382 0.21528 0.0
H16 H 0.29978 0.29223 0.18479 0.0
O17 O 0.16399 0.05498 0.20028 0.0
H18 H 0.3125 1.0043 0.2171 0.0
H19 H 0.18285 0.9551 0.19426 0.0
H20 H 0.45832 0.25452 0.21068 0.0
H21 H 0.11461 0.26746 0.1874 0.0
H22 H 0.44548 0.34307 0.20109 0.0
H23 H 0.1203 0.32049 0.20763 0.0
O24 O 0.34863 0.13191 0.18828 0.0
H25 H 0.15733 0.04273 0.15384 0.0
H26 H 0.29795 0.9733 0.18194 0.0
H27 H 0.28864 0.93951 0.15958 0.0
H28 H 0.2178 0.97419 0.14537 0.0
H29 H 0.16856 0.07594 0.17621 0.0
H30 H 0.189 0.86619 0.20359 0.0
H31 H 0.25801 0.84611 0.21992 0.0
O32 O 0.32072 0.05336 0.1953 0.0
C33 C 0.27912 0.12514 0.21949 0.0
C34 C 0.28983 0.92415 0.21956 0.0
C35 C 0.21629 0.89625 0.20661 0.0
N36 N 0.24729 0.98491 0.20514 0.0
C37 C 0.28534 0.97414 0.21411 0.0
C38 C 0.21303 0.94666 0.20135 0.0
C39 C 0.25501 0.88502 0.21577 0.0
C40 C 0.19033 0.23134 0.19023 0.0
N41 N 0.23376 0.22775 0.19797 0.0
C42 C 0.14891 0.26474 0.19357 0.0
C43 C 0.1521 0.29444 0.20493 0.0
C44 C 0.19644 0.29038 0.2128 0.0
C45 C 0.23708 0.25655 0.20916 0.0
C46 C 0.37164 0.32327 0.19226 0.0
C47 C 0.38572 0.2246 0.20296 0.0
C48 C 0.33456 0.28374 0.19043 0.0
N49 N 0.34178 0.23521 0.19581 0.0
C50 C 0.42363 0.26316 0.20499 0.0
C51 C 0.41642 0.31281 0.1996 0.0
C52 C 0.35641 0.08354 0.19088 0.0
C53 C 0.18828 0.02723 0.15995 0.0
C54 C 0.26734 0.9889 0.17579 0.0
C55 C 0.26207 0.96942 0.16315 0.0
C56 C 0.22228 0.98884 0.15519 0.0
N57 N 0.23385 0.02655 0.1804 0.0
C58 C 0.1947 0.04572 0.17265 0.0
Co59 Co 0.85186 0.82771 0.44132 0.0
Co60 Co 0.96937 0.7732 0.4507 0.0
O61 O 0.90475 0.77189 0.44013 0.0
C62 C 0.85042 0.79802 0.41241 0.0
O63 O 0.88485 0.75993 0.41353 0.0
C64 C 0.97703 0.66372 0.46108 0.0
O65 O 0.97841 0.68294 0.47294 0.0
O66 O 0.92664 0.77915 0.46717 0.0
O67 O 0.86463 0.83495 0.46029 0.0
H68 H 0.08592 0.83816 0.48664 0.0
H69 H 0.82437 0.72254 0.43046 0.0
O70 O 0.83596 0.82481 0.42224 0.0
H71 H 0.69877 0.75315 0.46616 0.0
H72 H 0.67972 0.9171 0.43151 0.0
H73 H 0.84854 0.93089 0.45464 0.0
H74 H 0.76599 0.81906 0.46091 0.0
H75 H 0.74471 0.84545 0.43031 0.0
O76 O 0.96799 0.69411 0.45143 0.0
H77 H 1.00608 0.83607 0.47312 0.0
H78 H 0.07001 0.71175 0.45054 0.0
H79 H 0.78448 1.00324 0.45619 0.0
H80 H 0.75745 0.65604 0.43525 0.0
H81 H 0.69932 0.99661 0.44457 0.0
H82 H 0.69391 0.67104 0.45323 0.0
O83 O 0.90645 0.88095 0.4376 0.0
H84 H 0.01327 0.6999 0.40655 0.0
H85 H 0.06284 0.82937 0.4399 0.0
H86 H 0.11313 0.82475 0.41943 0.0
H87 H 0.08859 0.75942 0.40259 0.0
H88 H 0.96355 0.70652 0.42709 0.0
H89 H 0.15046 0.71244 0.46383 0.0
H90 H 0.15882 0.77599 0.48203 0.0
O91 O 0.97378 0.85185 0.44968 0.0
C92 C 0.88938 0.81178 0.46937 0.0
C93 C 0.08272 0.81023 0.47874 0.0
C94 C 0.11894 0.73969 0.46595 0.0
N95 N 0.03318 0.7737 0.46108 0.0
C96 C 0.03757 0.80883 0.47106 0.0
C97 C 0.07324 0.73945 0.45846 0.0
C98 C 0.12361 0.77535 0.47615 0.0
C99 C 0.79649 0.73001 0.43812 0.0
N100 N 0.79848 0.77546 0.44513 0.0
C101 C 0.75882 0.6919 0.44087 0.0
C102 C 0.72326 0.70027 0.45098 0.0
C103 C 0.72597 0.74632 0.45823 0.0
C104 C 0.76417 0.78353 0.4552 0.0
C105 C 0.71663 0.9204 0.43665 0.0
C106 C 0.81146 0.92753 0.44962 0.0
C107 C 0.75365 0.87999 0.43598 0.0
N108 N 0.80024 0.88373 0.44251 0.0
C109 C 0.77538 0.96871 0.45051 0.0
C110 C 0.72764 0.96499 0.44398 0.0
C111 C 0.95087 0.88758 0.44305 0.0
C112 C 0.02435 0.72856 0.41381 0.0
C113 C 0.0514 0.80143 0.43257 0.0
C114 C 0.08029 0.7987 0.42102 0.0
C115 C 0.06656 0.762 0.41159 0.0
N116 N 0.01002 0.76852 0.4347 0.0
C117 C 0.99638 0.73244 0.42548 0.0
Co118 Co 0.21517 0.34654 0.69742 0.0
Co119 Co 0.25319 0.47399 0.70366 0.0
O120 O 0.26408 0.4054 0.6954 0.0
C121 C 0.22455 0.35387 0.66861 0.0
O122 O 0.21653 0.4046 0.66963 0.0
C123 C 0.3641 0.44805 0.71088 0.0
O124 O 0.34996 0.39961 0.71339 0.0
O125 O 0.24319 0.43998 0.72108 0.0
O126 O 0.20233 0.36481 0.71604 0.0
H127 H 0.16018 0.60215 0.73287 0.0
H128 H 0.32128 0.3269 0.68663 0.0
O129 O 0.22642 0.32553 0.67881 0.0
H130 H 0.31098 0.21905 0.72642 0.0
H131 H 0.15448 0.16071 0.69077 0.0
H132 H 0.11145 0.33253 0.71009 0.0
H133 H 0.23554 0.27296 0.71949 0.0
H134 H 0.21558 0.23501 0.68861 0.0
O135 O 0.33033 0.48135 0.70701 0.0
H136 H 0.17472 0.51678 0.72216 0.0
H137 H 0.30952 0.57664 0.70292 0.0
H138 H 0.04946 0.25916 0.71259 0.0
H139 H 0.39751 0.27316 0.69315 0.0
H140 H 0.07082 0.17248 0.70288 0.0
H141 H 0.39267 0.21884 0.71319 0.0
O142 O 0.15447 0.39152 0.69225 0.0
H143 H 0.34293 0.49947 0.66055 0.0
H144 H 0.1972 0.55769 0.68868 0.0
H145 H 0.2078 0.5971 0.66691 0.0
H146 H 0.28123 0.56804 0.65268 0.0
H147 H 0.33034 0.46068 0.68233 0.0
H148 H 0.29678 0.66244 0.71354 0.0
H149 H 0.22151 0.6757 0.72859 0.0
O150 O 0.17606 0.47042 0.70031 0.0
C151 C 0.21762 0.39883 0.72427 0.0
C152 C 0.19305 0.59689 0.72631 0.0
C153 C 0.26976 0.6307 0.71547 0.0
N154 N 0.24274 0.54177 0.71187 0.0
C155 C 0.20141 0.54868 0.72019 0.0
C156 C 0.27688 0.58195 0.70953 0.0
C157 C 0.2275 0.63813 0.72391 0.0
C158 C 0.31873 0.30297 0.6953 0.0
N159 N 0.27396 0.30289 0.70263 0.0
C160 C 0.36208 0.27279 0.69897 0.0
C161 C 0.35936 0.24239 0.71023 0.0
C162 C 0.31356 0.24252 0.71766 0.0
C163 C 0.27101 0.27324 0.71371 0.0
C164 C 0.14475 0.19827 0.69505 0.0
C165 C 0.12116 0.29487 0.7059 0.0
C166 C 0.17913 0.24054 0.69384 0.0
N167 N 0.16723 0.28802 0.69928 0.0
C168 C 0.08584 0.2535 0.70732 0.0
C169 C 0.09783 0.20489 0.70186 0.0
C170 C 0.14332 0.43894 0.69515 0.0
C171 C 0.31075 0.51243 0.66665 0.0
C172 C 0.22878 0.54444 0.6825 0.0
C173 C 0.23484 0.56712 0.67021 0.0
C174 C 0.27609 0.55086 0.66224 0.0
N175 N 0.26282 0.50666 0.68675 0.0
C176 C 0.30349 0.4907 0.67901 0.0
Co177 Co 0.68444 0.70156 0.94233 0.0
Co178 Co 0.56124 0.73972 0.95238 0.0
O179 O 0.62602 0.75194 0.94248 0.0
C180 C 0.67074 0.72014 0.91382 0.0
O181 O 0.62028 0.71115 0.91512 0.0
C182 C 0.5892 0.8502 0.95971 0.0
O183 O 0.63841 0.83582 0.96105 0.0
O184 O 0.60262 0.72724 0.96872 0.0
O185 O 0.67144 0.68223 0.96085 0.0
H186 H 0.44624 0.64241 0.98391 0.0
H187 H 0.70311 0.8106 0.93356 0.0
O188 O 0.70055 0.71914 0.92374 0.0
H189 H 0.82201 0.78409 0.97085 0.0
H190 H 0.86692 0.64035 0.93093 0.0
H191 H 0.70014 0.59334 0.95226 0.0
H192 H 0.76464 0.71257 0.96334 0.0
H193 H 0.79339 0.70332 0.93161 0.0
O194 O 0.55474 0.8166 0.9565 0.0
H195 H 0.52672 0.65866 0.97119 0.0
H196 H 0.45846 0.79574 0.9548 0.0
H197 H 0.7728 0.52934 0.95191 0.0
H198 H 0.76026 0.88304 0.94067 0.0
H199 H 0.85696 0.55269 0.94117 0.0
H200 H 0.82015 0.87003 0.95947 0.0
O201 O 0.63654 0.64392 0.93679 0.0
H202 H 0.51712 0.8349 0.91096 0.0
H203 H 0.47226 0.68521 0.93918 0.0
H204 H 0.42371 0.69856 0.91869 0.0
H205 H 0.44599 0.774 0.90443 0.0
H206 H 0.56505 0.8196 0.93147 0.0
H207 H 0.37751 0.78128 0.96746 0.0
H208 H 0.37092 0.704 0.9821 0.0
O209 O 0.56388 0.66289 0.9483 0.0
C210 C 0.64265 0.6975 0.97026 0.0
C211 C 0.4486 0.67617 0.97755 0.0
C212 C 0.41005 0.75415 0.96833 0.0
N213 N 0.49725 0.72797 0.96222 0.0
C214 C 0.49402 0.68552 0.9703 0.0
C215 C 0.45609 0.76224 0.96123 0.0
C216 C 0.40637 0.71077 0.97654 0.0
C217 C 0.72945 0.8045 0.94167 0.0
N218 N 0.73069 0.75736 0.94799 0.0
C219 C 0.76156 0.84572 0.94568 0.0
C220 C 0.79508 0.83842 0.95625 0.0
C221 C 0.79611 0.79022 0.96264 0.0
C222 C 0.76341 0.74992 0.95837 0.0
C223 C 0.83046 0.62971 0.93564 0.0
C224 C 0.73668 0.6039 0.94763 0.0
C225 C 0.78861 0.66516 0.93602 0.0
N226 N 0.7425 0.6521 0.94201 0.0
C227 C 0.77767 0.56744 0.94743 0.0
C228 C 0.82486 0.58055 0.9414 0.0
C229 C 0.59161 0.63165 0.9414 0.0
C230 C 0.50704 0.80188 0.91709 0.0
C231 C 0.48253 0.71772 0.93297 0.0
C232 C 0.45471 0.7253 0.92141 0.0
C233 C 0.46718 0.76767 0.91342 0.0
N234 N 0.52161 0.75139 0.9365 0.0
C235 C 0.53397 0.79308 0.92873 0.0
Co236 Co 0.29494 0.34209 0.07074 0.0
Co237 Co 0.25763 0.46852 0.06284 0.0
O238 O 0.24616 0.40174 0.07195 0.0
C239 C 0.28539 0.35288 0.09962 0.0
O240 O 0.29462 0.40328 0.09838 0.0
C241 C 0.14624 0.44276 0.05582 0.0
O242 O 0.16005 0.3938 0.05378 0.0
O243 O 0.26804 0.43096 0.04584 0.0
O244 O 0.30913 0.3571 0.052 0.0
H245 H 0.35228 0.58954 0.03223 0.0
H246 H 0.18815 0.32523 0.08131 0.0
O247 O 0.2825 0.32397 0.08954 0.0
H248 H 0.20037 0.21095 0.04268 0.0
H249 H 0.35444 0.15688 0.07948 0.0
H250 H 0.39939 0.32509 0.05864 0.0
H251 H 0.27565 0.26514 0.04937 0.0
H252 H 0.29349 0.232 0.08063 0.0
O253 O 0.1804 0.47619 0.05931 0.0
H254 H 0.337 0.50669 0.04402 0.0
H255 H 0.20174 0.57181 0.06212 0.0
H256 H 0.46126 0.25084 0.05713 0.0
H257 H 0.11205 0.27129 0.07504 0.0
H258 H 0.43894 0.16596 0.06761 0.0
H259 H 0.11786 0.21374 0.05558 0.0
O260 O 0.35539 0.38748 0.07567 0.0
H261 H 0.16734 0.50306 0.10552 0.0
H262 H 0.31287 0.55535 0.07671 0.0
H263 H 0.30188 0.59931 0.09792 0.0
H264 H 0.22853 0.57326 0.11249 0.0
H265 H 0.18034 0.45973 0.08428 0.0
H266 H 0.21522 0.65512 0.05042 0.0
H267 H 0.2911 0.66447 0.03539 0.0
O268 O 0.33482 0.46481 0.06644 0.0
C269 C 0.29422 0.38932 0.04327 0.0
C270 C 0.31914 0.58599 0.03878 0.0
C271 C 0.24217 0.62276 0.04897 0.0
N272 N 0.26868 0.53445 0.0538 0.0
C273 C 0.31036 0.53921 0.0455 0.0
C274 C 0.23462 0.57539 0.05553 0.0
C275 C 0.28477 0.62799 0.04054 0.0
C276 C 0.19111 0.29989 0.0729 0.0
N277 N 0.23633 0.29816 0.06575 0.0
C278 C 0.14784 0.26961 0.06937 0.0
C279 C 0.1511 0.23739 0.05843 0.0
C280 C 0.19737 0.23584 0.05119 0.0
C281 C 0.23982 0.26672 0.055 0.0
C282 C 0.36461 0.19365 0.07487 0.0
C283 C 0.38928 0.28824 0.06318 0.0
C284 C 0.33032 0.23639 0.07552 0.0
N285 N 0.34278 0.28289 0.06967 0.0
C286 C 0.42453 0.24635 0.06231 0.0
C287 C 0.412 0.19876 0.0682 0.0
C288 C 0.367 0.43412 0.07218 0.0
C289 C 0.19951 0.5147 0.09927 0.0
C290 C 0.2814 0.54334 0.08306 0.0
C291 C 0.27509 0.56861 0.09502 0.0
C292 C 0.23388 0.55404 0.10318 0.0
N293 N 0.24768 0.50466 0.07931 0.0
C294 C 0.20703 0.49035 0.08723 0.0
Co295 Co 0.6586 0.79369 0.31865 0.0
Co296 Co 0.53331 0.74847 0.31331 0.0
O297 O 0.60305 0.74201 0.32107 0.0
C298 C 0.69092 0.81696 0.34561 0.0
O299 O 0.68102 0.86629 0.34283 0.0
C300 C 0.51686 0.64505 0.30062 0.0
O301 O 0.5025 0.67069 0.29011 0.0
O302 O 0.5652 0.75925 0.29563 0.0
O303 O 0.63727 0.80612 0.30028 0.0
H304 H 0.39676 0.82954 0.28429 0.0
H305 H 0.68519 0.68819 0.3289 0.0
O306 O 0.68154 0.7815 0.33717 0.0
H307 H 0.78758 0.70621 0.28836 0.0
H308 H 0.843 0.86292 0.32286 0.0
H309 H 0.66459 0.89912 0.30659 0.0
H310 H 0.73023 0.77807 0.2959 0.0
H311 H 0.77239 0.79801 0.32576 0.0
O312 O 0.53298 0.67015 0.3106 0.0
H313 H 0.4845 0.82026 0.29414 0.0
H314 H 0.43243 0.68935 0.31619 0.0
H315 H 0.73403 0.96504 0.30346 0.0
H316 H 0.74256 0.61558 0.32178 0.0
H317 H 0.82401 0.94713 0.31163 0.0
H318 H 0.79421 0.62432 0.30137 0.0
O319 O 0.61024 0.8512 0.32426 0.0
H320 H 0.51584 0.65971 0.35681 0.0
H321 H 0.45069 0.8033 0.329 0.0
H322 H 0.41408 0.79211 0.35104 0.0
H323 H 0.44648 0.71969 0.3651 0.0
H324 H 0.55191 0.67282 0.33476 0.0
H325 H 0.34416 0.69719 0.30656 0.0
H326 H 0.32587 0.76771 0.29049 0.0
O327 O 0.53244 0.82614 0.31614 0.0
C328 C 0.60399 0.78797 0.29223 0.0
C329 C 0.40426 0.79864 0.29128 0.0
C330 C 0.37472 0.72439 0.30378 0.0
N331 N 0.46365 0.75429 0.30572 0.0
C332 C 0.45387 0.79318 0.29689 0.0
C333 C 0.42477 0.72016 0.3092 0.0
C334 C 0.36449 0.76394 0.29476 0.0
C335 C 0.70788 0.69247 0.32006 0.0
N336 N 0.70467 0.73751 0.31289 0.0
C337 C 0.74015 0.65114 0.31605 0.0
C338 C 0.76907 0.65605 0.30459 0.0
C339 C 0.76534 0.70197 0.29729 0.0
C340 C 0.73266 0.74247 0.30159 0.0
C341 C 0.80396 0.87118 0.31925 0.0
C342 C 0.70363 0.89101 0.31017 0.0
C343 C 0.76381 0.83459 0.32087 0.0
N344 N 0.71436 0.84475 0.31635 0.0
C345 C 0.7428 0.9285 0.30837 0.0
C346 C 0.79328 0.91842 0.31295 0.0
C347 C 0.56241 0.86034 0.3213 0.0
C348 C 0.50132 0.69135 0.35077 0.0
C349 C 0.4654 0.77206 0.33509 0.0
C350 C 0.4443 0.76572 0.34755 0.0
C351 C 0.46246 0.72505 0.35542 0.0
N352 N 0.50336 0.73872 0.33056 0.0
C353 C 0.52148 0.69888 0.33825 0.0
Co354 Co 0.21375 0.18251 0.57581 0.0
Co355 Co 0.26475 0.0622 0.5679 0.0
O356 O 0.26849 0.12897 0.57727 0.0
C357 C 0.22532 0.17452 0.60461 0.0
O358 O 0.22051 0.12343 0.60357 0.0
C359 C 0.37324 0.05044 0.55686 0.0
O360 O 0.35303 0.04631 0.54515 0.0
O361 O 0.25711 0.10092 0.55088 0.0
O362 O 0.20148 0.16451 0.55719 0.0
H363 H 0.19226 0.93744 0.53468 0.0
H364 H 0.31837 0.21173 0.58598 0.0
O365 O 0.22444 0.20311 0.59446 0.0
H366 H 0.29146 0.32293 0.54724 0.0
H367 H 0.13332 0.36016 0.58396 0.0
H368 H 0.108 0.1867 0.56379 0.0
H369 H 0.22344 0.26025 0.55419 0.0
H370 H 0.20249 0.29259 0.58531 0.0
O371 O 0.34376 0.06209 0.56652 0.0
H372 H 0.19772 0.02066 0.54681 0.0
H373 H 0.32514 0.96108 0.56902 0.0
H374 H 0.038 0.25326 0.5621 0.0
H375 H 0.38725 0.2743 0.57945 0.0
H376 H 0.05042 0.34075 0.57224 0.0
H377 H 0.37399 0.33039 0.55994 0.0
O378 O 0.15929 0.13051 0.58095 0.0
H379 H 0.34167 0.03162 0.61232 0.0
H380 H 0.21037 0.97147 0.58053 0.0
H381 H 0.21663 0.92749 0.60184 0.0
H382 H 0.28287 0.95742 0.61791 0.0
H383 H 0.33335 0.07501 0.59097 0.0
H384 H 0.32121 0.87735 0.55709 0.0
H385 H 0.25436 0.86508 0.53978 0.0
O386 O 0.18612 0.05961 0.56976 0.0
C387 C 0.22375 0.13722 0.54837 0.0
C388 C 0.22162 0.94234 0.54218 0.0
C389 C 0.29399 0.90862 0.55475 0.0
N390 N 0.26184 0.99591 0.55857 0.0
C391 C 0.22493 0.9894 0.54908 0.0
C392 C 0.29609 0.95619 0.56146 0.0
C393 C 0.25647 0.90175 0.54505 0.0
C394 C 0.31221 0.23627 0.57753 0.0
N395 N 0.26685 0.23257 0.57053 0.0
C396 C 0.35139 0.27151 0.57386 0.0
C397 C 0.34395 0.30293 0.5629 0.0
C398 C 0.29766 0.29875 0.55577 0.0
C399 C 0.25935 0.26309 0.55974 0.0
C400 C 0.12745 0.32221 0.57949 0.0
C401 C 0.11384 0.22474 0.56816 0.0
C402 C 0.16643 0.28372 0.58025 0.0
N403 N 0.15942 0.23578 0.57457 0.0
C404 C 0.074 0.26225 0.5672 0.0
C405 C 0.08097 0.3113 0.57291 0.0
C406 C 0.15137 0.08484 0.57625 0.0
C407 C 0.31265 0.01819 0.60541 0.0
C408 C 0.23871 0.98518 0.58752 0.0
C409 C 0.24239 0.95988 0.59954 0.0
C410 C 0.27961 0.97662 0.60854 0.0
N411 N 0.27121 0.02595 0.58449 0.0
C412 C 0.30783 0.04252 0.59328 0.0
Co413 Co 0.83696 0.72905 0.82033 0.0
Co414 Co 0.96455 0.76673 0.81386 0.0
O415 O 0.89615 0.77763 0.82231 0.0
C416 C 0.84529 0.73689 0.84911 0.0
O417 O 0.89607 0.72941 0.84788 0.0
C418 C 0.93917 0.87835 0.80713 0.0
O419 O 0.89032 0.86503 0.80483 0.0
O420 O 0.93001 0.7575 0.79648 0.0
O421 O 0.85475 0.71693 0.80167 0.0
H422 H 0.09149 0.67407 0.78423 0.0
H423 H 0.81791 0.8346 0.83142 0.0
O424 O 0.81646 0.73941 0.83902 0.0
H425 H 0.70909 0.82663 0.7918 0.0
H426 H 0.65087 0.66897 0.8272 0.0
H427 H 0.82227 0.62585 0.80754 0.0
H428 H 0.76294 0.75073 0.79844 0.0
H429 H 0.72552 0.72965 0.82932 0.0
O430 O 0.97237 0.84388 0.81066 0.0
H431 H 1.00643 0.68873 0.79514 0.0
H432 H 0.06765 0.8224 0.81448 0.0
H433 H 0.74854 0.5643 0.80507 0.0
H434 H 0.76424 0.91127 0.8252 0.0
H435 H 0.66206 0.5857 0.81495 0.0
H436 H 0.70944 0.9076 0.80523 0.0
O437 O 0.88182 0.66799 0.82528 0.0
H438 H 0.99136 0.85451 0.85712 0.0
H439 H 0.0488 0.71017 0.82853 0.0
H440 H 0.08882 0.71973 0.85023 0.0
H441 H 0.06015 0.79247 0.8647 0.0
H442 H 0.95194 0.84293 0.83539 0.0
H443 H 0.15315 0.80953 0.80366 0.0
H444 H 0.16557 0.73476 0.78846 0.0
O445 O 0.96065 0.68959 0.81709 0.0
C446 C 0.88866 0.73212 0.79337 0.0
C447 C 0.0866 0.70672 0.79086 0.0
C448 C 0.12118 0.7828 0.80175 0.0
N449 N 0.03211 0.75621 0.80549 0.0
C450 C 0.03856 0.71515 0.79709 0.0
C451 C 0.07259 0.79 0.80781 0.0
C452 C 0.12813 0.74082 0.79322 0.0
C453 C 0.79376 0.83256 0.82279 0.0
N454 N 0.79338 0.78819 0.81534 0.0
C455 C 0.76363 0.87616 0.81929 0.0
C456 C 0.73296 0.8741 0.80807 0.0
C457 C 0.73278 0.82869 0.80052 0.0
C458 C 0.76347 0.78589 0.80432 0.0
C459 C 0.68833 0.65923 0.82284 0.0
C460 C 0.78469 0.6356 0.81181 0.0
C461 C 0.73079 0.69338 0.82403 0.0
N462 N 0.77815 0.68146 0.81849 0.0
C463 C 0.74311 0.60052 0.8104 0.0
C464 C 0.69463 0.61253 0.81596 0.0
C465 C 0.92915 0.6568 0.82225 0.0
C466 C 1.00413 0.82261 0.85092 0.0
C467 C 0.03567 0.7414 0.83482 0.0
C468 C 0.05872 0.7469 0.84707 0.0
C469 C 0.04268 0.78776 0.85517 0.0
N470 N 0.99775 0.77559 0.83073 0.0
C471 C 0.98203 0.81591 0.83859 0.0
Co472 Co 0.79692 0.68245 0.6961 0.0
Co473 Co 0.75861 0.55552 0.70304 0.0
O474 O 0.74805 0.62339 0.69436 0.0
C475 C 0.78883 0.67193 0.66736 0.0
O476 O 0.79588 0.62124 0.66882 0.0
C477 C 0.64769 0.58233 0.71014 0.0
O478 O 0.66191 0.63095 0.71237 0.0
O479 O 0.76838 0.59103 0.72027 0.0
O480 O 0.80879 0.66606 0.71485 0.0
H481 H 0.85078 0.42974 0.733 0.0
H482 H 0.6914 0.70095 0.68493 0.0
O483 O 0.78677 0.70158 0.67731 0.0
H484 H 0.6996 0.81275 0.72405 0.0
H485 H 0.85803 0.86754 0.6884 0.0
H486 H 0.90005 0.69767 0.70889 0.0
H487 H 0.77543 0.75825 0.71763 0.0
H488 H 0.79698 0.79307 0.68659 0.0
O489 O 0.6814 0.54865 0.70641 0.0
H490 H 0.83663 0.5142 0.72181 0.0
H491 H 0.70205 0.45297 0.70285 0.0
H492 H 0.96196 0.77124 0.71106 0.0
H493 H 0.61478 0.75522 0.69093 0.0
H494 H 0.94111 0.85694 0.70076 0.0
H495 H 0.61857 0.81153 0.71063 0.0
O496 O 0.85787 0.63696 0.69136 0.0
H497 H 0.66941 0.52617 0.66008 0.0
H498 H 0.81482 0.47054 0.68854 0.0
H499 H 0.80449 0.42918 0.66701 0.0
H500 H 0.73123 0.45692 0.65261 0.0
H501 H 0.68172 0.56692 0.68164 0.0
H502 H 0.71441 0.36809 0.71395 0.0
H503 H 0.78937 0.35596 0.7291 0.0
O504 O 0.83579 0.55862 0.6997 0.0
C505 C 0.79358 0.63262 0.72325 0.0
C506 C 0.81804 0.4345 0.7264 0.0
C507 C 0.74146 0.39992 0.71572 0.0
N508 N 0.76874 0.48846 0.71164 0.0
C509 C 0.8099 0.48219 0.72001 0.0
C510 C 0.73456 0.44816 0.7095 0.0
C511 C 0.78354 0.39314 0.72421 0.0
C512 C 0.69348 0.72574 0.69345 0.0
N513 N 0.73788 0.72662 0.70088 0.0
C514 C 0.64992 0.75622 0.69682 0.0
C515 C 0.65205 0.78774 0.7079 0.0
C516 C 0.69748 0.78841 0.71543 0.0
C517 C 0.74025 0.75736 0.71177 0.0
C518 C 0.86753 0.83042 0.69295 0.0
C519 C 0.89055 0.73491 0.70444 0.0
C520 C 0.83317 0.78805 0.69192 0.0
N521 N 0.8448 0.74112 0.69769 0.0
C522 C 0.92583 0.7764 0.70568 0.0
C523 C 0.91413 0.82445 0.69989 0.0
C524 C 0.8688 0.58971 0.69449 0.0
C525 C 0.70152 0.51377 0.66626 0.0
C526 C 0.7833 0.48322 0.68228 0.0
C527 C 0.7774 0.45944 0.67013 0.0
C528 C 0.73624 0.47497 0.66207 0.0
N529 N 0.7492 0.52136 0.68632 0.0
C530 C 0.70862 0.53661 0.67849 0.0
Co531 Co 0.35503 0.28124 0.94702 0.0
Co532 Co 0.4825 0.24738 0.95524 0.0
O533 O 0.41643 0.23469 0.94595 0.0
C534 C 0.3315 0.3029 0.91935 0.0
O535 O 0.33799 0.35261 0.92226 0.0
C536 C 0.4568 0.13601 0.96218 0.0
O537 O 0.40765 0.14981 0.96397 0.0
O538 O 0.4438 0.25816 0.97209 0.0
O539 O 0.36798 0.29542 0.96585 0.0
H540 H 0.60052 0.34498 0.98591 0.0
H541 H 0.34216 0.17456 0.93607 0.0
O542 O 0.33994 0.26783 0.928 0.0
H543 H 0.22564 0.18067 0.97442 0.0
H544 H 0.16719 0.33314 0.93835 0.0
H545 H 0.33374 0.38498 0.95897 0.0
H546 H 0.27772 0.25799 0.96815 0.0
H547 H 0.24473 0.27524 0.93719 0.0
O548 O 0.49066 0.17034 0.95901 0.0
H549 H 0.51862 0.32822 0.97385 0.0
H550 H 0.58623 0.19243 0.95664 0.0
H551 H 0.25716 0.44402 0.96039 0.0
H552 H 0.29026 0.09652 0.94191 0.0
H553 H 0.17311 0.41821 0.95002 0.0
H554 H 0.2316 0.09923 0.96123 0.0
O555 O 0.39937 0.34313 0.94253 0.0
H556 H 0.52188 0.1554 0.91306 0.0
H557 H 0.56991 0.30281 0.94163 0.0
H558 H 0.6163 0.29101 0.92075 0.0
H559 H 0.59246 0.21667 0.90631 0.0
H560 H 0.47603 0.16924 0.93396 0.0
H561 H 0.66861 0.20739 0.96862 0.0
H562 H 0.67623 0.28428 0.98333 0.0
O563 O 0.47807 0.32428 0.9513 0.0
C564 C 0.40094 0.28242 0.97459 0.0
C565 C 0.59773 0.31141 0.9795 0.0
C566 C 0.63591 0.23414 0.96982 0.0
N567 N 0.54771 0.25958 0.96449 0.0
C568 C 0.55151 0.3018 0.97262 0.0
C569 C 0.58907 0.22576 0.9631 0.0
C570 C 0.64017 0.27731 0.97806 0.0
C571 C 0.31626 0.17625 0.9444 0.0
N572 N 0.31275 0.22091 0.9517 0.0
C573 C 0.28717 0.13185 0.9477 0.0
C574 C 0.25434 0.13336 0.95856 0.0
C575 C 0.25102 0.17903 0.96597 0.0
C576 C 0.28075 0.22265 0.96239 0.0
C577 C 0.2036 0.34485 0.9429 0.0
C578 C 0.29735 0.3735 0.95442 0.0
C579 C 0.24766 0.31225 0.94227 0.0
N580 N 0.29382 0.32678 0.94798 0.0
C581 C 0.25409 0.40708 0.95526 0.0
C582 C 0.20695 0.39257 0.94945 0.0
C583 C 0.44614 0.35564 0.94569 0.0
C584 C 0.53254 0.18801 0.91925 0.0
C585 C 0.5588 0.27094 0.93532 0.0
C586 C 0.58546 0.26417 0.92355 0.0
C587 C 0.57212 0.22241 0.91547 0.0
N588 N 0.51996 0.23712 0.93896 0.0
C589 C 0.50674 0.19603 0.9311 0.0
Co590 Co 0.6935 0.82734 0.19494 0.0
Co591 Co 0.73749 0.95303 0.20062 0.0
O592 O 0.74545 0.88332 0.19288 0.0
C593 C 0.708 0.83265 0.16634 0.0
O594 O 0.70271 0.88374 0.16727 0.0
C595 C 0.84491 0.92759 0.21092 0.0
O596 O 0.82567 0.88667 0.21704 0.0
O597 O 0.72455 0.92137 0.2182 0.0
O598 O 0.68019 0.84795 0.21336 0.0
H599 H 0.65052 0.08923 0.22872 0.0
H600 H 0.80001 0.80232 0.18507 0.0
O601 O 0.70563 0.80431 0.17652 0.0
H602 H 0.77959 0.69727 0.22508 0.0
H603 H 0.62393 0.64439 0.18879 0.0
H604 H 0.58841 0.81943 0.20725 0.0
H605 H 0.70769 0.75425 0.21739 0.0
H606 H 0.68882 0.71539 0.18658 0.0
O607 O 0.81518 0.95631 0.20396 0.0
H608 H 0.66064 1.00208 0.2186 0.0
H609 H 0.79961 0.05209 0.19943 0.0
H610 H 0.52267 0.74943 0.2098 0.0
H611 H 0.8728 0.74552 0.19236 0.0
H612 H 0.54024 0.66114 0.20053 0.0
H613 H 0.86283 0.69255 0.21251 0.0
O614 O 0.63548 0.87485 0.18922 0.0
H615 H 0.83073 0.97068 0.15772 0.0
H616 H 0.68532 0.0368 0.18488 0.0
H617 H 0.69876 0.07361 0.16293 0.0
H618 H 0.77202 0.04057 0.14918 0.0
H619 H 0.81539 0.93458 0.17967 0.0
H620 H 0.79125 0.13959 0.20945 0.0
H621 H 0.71615 0.15869 0.22416 0.0
O622 O 0.66019 0.95302 0.19716 0.0
C623 C 0.69673 0.88179 0.22148 0.0
C624 C 0.68333 0.08143 0.22229 0.0
C625 C 0.76236 0.10967 0.21149 0.0
N626 N 0.73045 0.02209 0.20837 0.0
C627 C 0.6892 0.0322 0.21651 0.0
C628 C 0.76696 0.05998 0.20588 0.0
C629 C 0.7202 0.12037 0.21974 0.0
C630 C 0.79526 0.77908 0.19379 0.0
N631 N 0.74956 0.78135 0.20074 0.0
C632 C 0.83666 0.74713 0.1979 0.0
C633 C 0.83106 0.71746 0.20921 0.0
C634 C 0.78438 0.72011 0.21627 0.0
C635 C 0.74384 0.75253 0.21188 0.0
C636 C 0.61584 0.68268 0.19289 0.0
C637 C 0.59647 0.78106 0.20324 0.0
C638 C 0.65236 0.72309 0.19163 0.0
N639 N 0.64252 0.77147 0.19683 0.0
C640 C 0.55903 0.7416 0.20469 0.0
C641 C 0.5689 0.69209 0.19948 0.0
C642 C 0.62619 0.92279 0.19202 0.0
C643 C 0.79868 0.98542 0.16361 0.0
C644 C 0.71691 0.0219 0.17892 0.0
C645 C 0.72454 0.04308 0.16652 0.0
C646 C 0.76569 0.02458 0.15882 0.0
N647 N 0.74933 0.98343 0.18354 0.0
C648 C 0.78989 0.96523 0.17607 0.0
Co649 Co 0.21136 0.22303 0.44537 0.0
Co650 Co 0.08815 0.25905 0.45706 0.0
O651 O 0.15027 0.27076 0.44597 0.0
C652 C 0.18346 0.22698 0.41709 0.0
O653 O 0.13438 0.21754 0.4202 0.0
C654 C 0.10679 0.37706 0.45827 0.0
O655 O 0.14712 0.37394 0.45036 0.0
O656 O 0.13348 0.24578 0.47267 0.0
O657 O 0.20787 0.21168 0.46455 0.0
H658 H 0.98331 0.15989 0.49038 0.0
H659 H 0.22082 0.32733 0.4329 0.0
O660 O 0.21776 0.23236 0.426 0.0
H661 H 0.35627 0.32424 0.46714 0.0
H662 H 0.39055 0.16506 0.43029 0.0
H663 H 0.23819 0.12149 0.45785 0.0
H664 H 0.29933 0.24765 0.46355 0.0
H665 H 0.31424 0.22453 0.43142 0.0
O666 O 0.08281 0.33583 0.46199 0.0
H667 H 0.05902 0.17638 0.47599 0.0
H668 H 0.987 0.31586 0.46199 0.0
H669 H 0.31388 0.06114 0.4571 0.0
H670 H 0.2774 0.40461 0.43603 0.0
H671 H 0.39078 0.08276 0.44323 0.0
H672 H 0.3456 0.40342 0.45329 0.0
O673 O 0.16522 0.1608 0.44271 0.0
H674 H 0.03278 0.34713 0.41516 0.0
H675 H 0.99253 0.2072 0.44668 0.0
H676 H 0.93618 0.21878 0.42746 0.0
H677 H 0.95588 0.28943 0.41155 0.0
H678 H 0.08846 0.33366 0.43432 0.0
H679 H 0.9108 0.3011 0.47633 0.0
H680 H 0.9085 0.22253 0.49062 0.0
O681 O 0.08941 0.18296 0.45258 0.0
C682 C 0.17792 0.22308 0.47407 0.0
C683 C 0.98378 0.19419 0.48417 0.0
C684 C 0.94314 0.2735 0.47631 0.0
N685 N 0.02739 0.24686 0.4681 0.0
C686 C 0.02648 0.20366 0.47597 0.0
C687 C 0.98653 0.28175 0.46824 0.0
C688 C 0.94185 0.22939 0.48431 0.0
C689 C 0.25062 0.32642 0.44038 0.0
N690 N 0.25658 0.28311 0.44807 0.0
C691 C 0.28244 0.37035 0.44213 0.0
C692 C 0.32065 0.36968 0.45182 0.0
C693 C 0.3266 0.3253 0.45961 0.0
C694 C 0.29402 0.28213 0.45758 0.0
C695 C 0.35727 0.15519 0.43637 0.0
C696 C 0.27153 0.13126 0.45182 0.0
C697 C 0.31385 0.18862 0.43701 0.0
N698 N 0.27173 0.17651 0.44469 0.0
C699 C 0.31427 0.09689 0.45142 0.0
C700 C 0.35739 0.10903 0.44364 0.0
C701 C 0.11899 0.15023 0.4467 0.0
C702 C 0.0234 0.31659 0.4221 0.0
C703 C 1.00144 0.2382 0.43987 0.0
C704 C 0.9693 0.24452 0.42897 0.0
C705 C 0.98037 0.28413 0.42006 0.0
N706 N 0.04327 0.27063 0.44194 0.0
C707 C 0.05467 0.30908 0.43311 0.0
Co708 Co 0.81895 0.82266 0.57304 0.0
Co709 Co 0.77931 0.94534 0.56232 0.0
O710 O 0.76814 0.88117 0.57262 0.0
C711 C 0.80251 0.84007 0.60158 0.0
O712 O 0.81159 0.8903 0.59992 0.0
C713 C 0.66165 0.92453 0.5604 0.0
O714 O 0.66485 0.88346 0.56805 0.0
O715 O 0.79422 0.90253 0.54638 0.0
O716 O 0.83701 0.83274 0.55434 0.0
H717 H 0.87858 0.05734 0.53051 0.0
H718 H 0.71108 0.80347 0.58273 0.0
O719 O 0.80269 0.80923 0.59185 0.0
H720 H 0.73534 0.68048 0.54616 0.0
H721 H 0.882 0.64266 0.586 0.0
H722 H 0.92581 0.80498 0.56233 0.0
H723 H 0.80669 0.73993 0.55268 0.0
H724 H 0.81868 0.71577 0.58494 0.0
O725 O 0.70273 0.94978 0.5571 0.0
H726 H 0.8626 0.97906 0.54403 0.0
H727 H 0.72053 0.04584 0.55812 0.0
H728 H 0.99017 0.73271 0.56307 0.0
H729 H 0.63885 0.74425 0.57662 0.0
H730 H 0.96844 0.65079 0.57499 0.0
H731 H 0.65071 0.68228 0.55818 0.0
O732 O 0.87693 0.87133 0.57793 0.0
H733 H 0.68749 0.99125 0.60446 0.0
H734 H 0.82732 0.04113 0.57375 0.0
H735 H 0.81298 0.094 0.59347 0.0
H736 H 0.74233 0.06945 0.60898 0.0
H737 H 0.70378 0.93909 0.58482 0.0
H738 H 0.73469 0.12451 0.54462 0.0
H739 H 0.81433 0.13076 0.53074 0.0
O740 O 0.85554 0.94519 0.56714 0.0
C741 C 0.82249 0.8615 0.54488 0.0
C742 C 0.84381 0.05515 0.53655 0.0
C743 C 0.763 0.0928 0.54445 0.0
N744 N 0.7909 0.00797 0.55194 0.0
C745 C 0.83464 0.011 0.54426 0.0
C746 C 0.75509 0.04803 0.55203 0.0
C747 C 0.80772 0.0963 0.53667 0.0
C748 C 0.71662 0.77644 0.57474 0.0
N749 N 0.76298 0.77533 0.56806 0.0
C750 C 0.67554 0.74308 0.5713 0.0
C751 C 0.6822 0.70837 0.56095 0.0
C752 C 0.72965 0.70738 0.55419 0.0
C753 C 0.76984 0.74134 0.5579 0.0
C754 C 0.89199 0.67819 0.5808 0.0
C755 C 0.91606 0.76953 0.56755 0.0
C756 C 0.85637 0.71985 0.58021 0.0
N757 N 0.86862 0.76481 0.57363 0.0
C758 C 0.95267 0.7287 0.56793 0.0
C759 C 0.94046 0.68276 0.57461 0.0
C760 C 0.88745 0.91741 0.57381 0.0
C761 C 0.71804 1.00272 0.59771 0.0
C762 C 0.79646 0.03004 0.5804 0.0
C763 C 0.7885 0.06025 0.59157 0.0
C764 C 0.74889 0.04648 0.60026 0.0
N765 N 0.76561 0.98748 0.57782 0.0
C766 C 0.72715 0.97346 0.58643 0.0
Co767 Co 0.17584 0.31356 0.82181 0.0
Co768 Co 0.04879 0.27146 0.81599 0.0
O769 O 0.11805 0.26331 0.8244 0.0
C770 C 0.18302 0.28598 0.85082 0.0
O771 O 0.14321 0.25351 0.85055 0.0
C772 C 0.07627 0.16039 0.80914 0.0
O773 O 0.12451 0.17476 0.80643 0.0
O774 O 0.0822 0.27991 0.79842 0.0
O775 O 0.15706 0.32167 0.80312 0.0
H776 H 0.91826 0.35746 0.78615 0.0
H777 H 0.19707 0.20735 0.83293 0.0
O778 O 0.19819 0.3096 0.84056 0.0
H779 H 0.30842 0.21968 0.79381 0.0
H780 H 0.35959 0.38271 0.82718 0.0
H781 H 0.18533 0.41516 0.80794 0.0
H782 H 0.25159 0.29357 0.80025 0.0
H783 H 0.28783 0.31926 0.83028 0.0
O784 O 0.04298 0.19392 0.81316 0.0
H785 H 1.0041 0.34627 0.79687 0.0
H786 H 0.94723 0.21327 0.81736 0.0
H787 H 0.25612 0.47935 0.80448 0.0
H788 H 0.2537 0.13291 0.82695 0.0
H789 H 0.34404 0.46332 0.81414 0.0
H790 H 0.30994 0.13866 0.80723 0.0
O791 O 0.12906 0.37341 0.82642 0.0
H792 H 0.02198 0.18406 0.85933 0.0
H793 H 0.96538 0.32888 0.83079 0.0
H794 H 0.92518 0.31933 0.85251 0.0
H795 H 0.95335 0.24633 0.86694 0.0
H796 H 0.06166 0.19567 0.8376 0.0
H797 H 0.861 0.22268 0.80675 0.0
H798 H 0.84599 0.29534 0.79106 0.0
O799 O 0.05049 0.349 0.81871 0.0
C800 C 0.12315 0.30529 0.79502 0.0
C801 C 0.92429 0.3257 0.79299 0.0
C802 C 0.89217 0.25002 0.80453 0.0
N803 N 0.98066 0.27931 0.80777 0.0
C804 C 0.97278 0.31923 0.79911 0.0
C805 C 0.94117 0.24478 0.81048 0.0
C806 C 0.88377 0.29081 0.79574 0.0
C807 C 0.222 0.21076 0.8245 0.0
N808 N 0.22167 0.2554 0.81715 0.0
C809 C 0.25376 0.16819 0.82109 0.0
C810 C 0.28519 0.17138 0.81 0.0
C811 C 0.28435 0.2168 0.80247 0.0
C812 C 0.25204 0.25855 0.80618 0.0
C813 C 0.3215 0.39008 0.82289 0.0
C814 C 0.22356 0.4077 0.8121 0.0
C815 C 0.28066 0.35435 0.82464 0.0
N816 N 0.23251 0.36324 0.81919 0.0
C817 C 0.26346 0.44428 0.81014 0.0
C818 C 0.31275 0.43529 0.81557 0.0
C819 C 0.08137 0.3831 0.82351 0.0
C820 C 0.00942 0.21609 0.85315 0.0
C821 C 0.97841 0.29758 0.83708 0.0
C822 C 0.95522 0.29208 0.84933 0.0
C823 C 0.97097 0.25107 0.85741 0.0
N824 N 0.01623 0.26325 0.83298 0.0
C825 C 0.03168 0.2228 0.84082 0.0
Co826 Co 0.71454 0.67484 0.07313 0.0
Co827 Co 0.7502 0.55093 0.06273 0.0
O828 O 0.76274 0.61463 0.07305 0.0
C829 C 0.72299 0.65758 0.10183 0.0
O830 O 0.71109 0.60796 0.10017 0.0
C831 C 0.86167 0.57833 0.0561 0.0
O832 O 0.84819 0.62792 0.05518 0.0
O833 O 0.73869 0.59352 0.04648 0.0
O834 O 0.69911 0.66539 0.05436 0.0
H835 H 0.65277 0.44018 0.0304 0.0
H836 H 0.82203 0.68785 0.08351 0.0
O837 O 0.72825 0.68764 0.09204 0.0
H838 H 0.80868 0.81317 0.04707 0.0
H839 H 0.65737 0.8577 0.08527 0.0
H840 H 0.60937 0.69602 0.06188 0.0
H841 H 0.73338 0.75763 0.05306 0.0
H842 H 0.71788 0.78214 0.08474 0.0
O843 O 0.82718 0.54394 0.05874 0.0
H844 H 0.66928 0.51902 0.04366 0.0
H845 H 0.80542 0.44792 0.05978 0.0
H846 H 0.54787 0.77081 0.06207 0.0
H847 H 0.89817 0.74307 0.07793 0.0
H848 H 0.57172 0.8524 0.07384 0.0
H849 H 0.89179 0.80617 0.05957 0.0
O850 O 0.65391 0.62855 0.07749 0.0
H851 H 0.84261 0.50331 0.10429 0.0
H852 H 0.69555 0.46016 0.07514 0.0
H853 H 0.70748 0.40983 0.09542 0.0
H854 H 0.78161 0.43126 0.11016 0.0
H855 H 0.82867 0.55303 0.08398 0.0
H856 H 0.79068 0.36857 0.0466 0.0
H857 H 0.71375 0.36425 0.03181 0.0
O858 O 0.67333 0.55406 0.06676 0.0
C859 C 0.71259 0.63601 0.04492 0.0
C860 C 0.68636 0.44154 0.03682 0.0
C861 C 0.76381 0.40139 0.0459 0.0
N862 N 0.73812 0.48803 0.05253 0.0
C863 C 0.69584 0.48603 0.04438 0.0
C864 C 0.77207 0.44653 0.05331 0.0
C865 C 0.72062 0.39898 0.03761 0.0
C866 C 0.81883 0.71559 0.07559 0.0
N867 N 0.77327 0.71964 0.06866 0.0
C868 C 0.86212 0.74659 0.07244 0.0
C869 C 0.85854 0.78192 0.06212 0.0
C870 C 0.81193 0.78583 0.0551 0.0
C871 C 0.76947 0.75415 0.05851 0.0
C872 C 0.6465 0.82235 0.08012 0.0
C873 C 0.62009 0.73139 0.06701 0.0
C874 C 0.68052 0.77934 0.07983 0.0
N875 N 0.66717 0.73461 0.0733 0.0
C876 C 0.58508 0.77362 0.06709 0.0
C877 C 0.59847 0.81937 0.0737 0.0
C878 C 0.64174 0.58315 0.0732 0.0
C879 C 0.81009 0.49367 0.09797 0.0
C880 C 0.72735 0.47016 0.08157 0.0
C881 C 0.7342 0.4413 0.09301 0.0
C882 C 0.77584 0.45328 0.10126 0.0
N883 N 0.76097 0.50984 0.07843 0.0
C884 C 0.80203 0.52164 0.08644 0.0
Co885 Co 0.31099 0.20232 0.31893 0.0
Co886 Co 0.43784 0.24366 0.31278 0.0
O887 O 0.36889 0.25211 0.32089 0.0
C888 C 0.32547 0.20989 0.34745 0.0
O889 O 0.37576 0.20338 0.34515 0.0
C890 C 0.4092 0.3505 0.30306 0.0
O891 O 0.36568 0.33103 0.29826 0.0
O892 O 0.40483 0.23097 0.29541 0.0
O893 O 0.32719 0.19325 0.29996 0.0
H894 H 0.57144 0.15551 0.28412 0.0
H895 H 0.29152 0.30652 0.33081 0.0
O896 O 0.29322 0.21042 0.33797 0.0
H897 H 0.17736 0.2999 0.29211 0.0
H898 H 0.12768 0.13667 0.32699 0.0
H899 H 0.29647 0.1013 0.30511 0.0
H900 H 0.23362 0.22454 0.29785 0.0
H901 H 0.20138 0.19859 0.32908 0.0
O902 O 0.44103 0.32105 0.30923 0.0
H903 H 0.48502 0.16637 0.29464 0.0
H904 H 0.53735 0.30514 0.31338 0.0
H905 H 0.22368 0.03858 0.30266 0.0
H906 H 0.23556 0.38265 0.32548 0.0
H907 H 0.13853 0.0561 0.31366 0.0
H908 H 0.17802 0.37964 0.306 0.0
O909 O 0.35755 0.14145 0.32307 0.0
H910 H 0.45926 0.337 0.35551 0.0
H911 H 0.52231 0.19095 0.32816 0.0
H912 H 0.56058 0.20407 0.34996 0.0
H913 H 0.52905 0.2776 0.36379 0.0
H914 H 0.4217 0.32202 0.3337 0.0
H915 H 0.62415 0.29605 0.30296 0.0
H916 H 0.64172 0.22067 0.28826 0.0
O917 O 0.43756 0.16658 0.31634 0.0
C918 C 0.36268 0.2077 0.29194 0.0
C919 C 0.56432 0.18844 0.29054 0.0
C920 C 0.59388 0.26736 0.30109 0.0
N921 N 0.50627 0.2361 0.30469 0.0
C922 C 0.51551 0.19471 0.29655 0.0
C923 C 0.5446 0.27237 0.30694 0.0
C924 C 0.60372 0.22504 0.29285 0.0
C925 C 0.26626 0.30478 0.32238 0.0
N926 N 0.26557 0.26104 0.31471 0.0
C927 C 0.23481 0.34807 0.31938 0.0
C928 C 0.20258 0.34638 0.30844 0.0
C929 C 0.2022 0.30166 0.30064 0.0
C930 C 0.23422 0.25915 0.30393 0.0
C931 C 0.16457 0.12863 0.32214 0.0
C932 C 0.25945 0.10934 0.30986 0.0
C933 C 0.20648 0.16347 0.32332 0.0
N934 N 0.25308 0.15369 0.31716 0.0
C935 C 0.21842 0.07361 0.30847 0.0
C936 C 0.17067 0.08345 0.31465 0.0
C937 C 0.4059 0.13214 0.32071 0.0
C938 C 0.47335 0.30484 0.34957 0.0
C939 C 0.50813 0.22273 0.33416 0.0
C940 C 0.53011 0.23015 0.34647 0.0
C941 C 0.51245 0.27145 0.35422 0.0
N942 N 0.46968 0.25552 0.32968 0.0
C943 C 0.45235 0.29626 0.3372 0.0
H944 H 0.27764 0.2488 0.10534 0.0
H945 H 0.28582 0.40123 0.12349 0.0
H946 H 0.28473 0.36002 0.145 0.0
H947 H 0.28415 0.28056 0.15866 0.0
H948 H 0.27778 0.12829 0.14037 0.0
H949 H 0.27549 0.16975 0.11893 0.0
C950 C 0.2789 0.2732 0.11398 0.0
C951 C 0.28188 0.32821 0.11274 0.0
C952 C 0.27882 0.24922 0.12632 0.0
C953 C 0.28359 0.3589 0.1241 0.0
C954 C 0.28303 0.33531 0.13643 0.0
C955 C 0.28205 0.25635 0.15 0.0
C956 C 0.28129 0.20122 0.15118 0.0
C957 C 0.28108 0.28048 0.13766 0.0
C958 C 0.27862 0.17069 0.1398 0.0
C959 C 0.27727 0.1944 0.12752 0.0
H960 H 0.8268 0.72987 0.39265 0.0
H961 H 0.81369 0.89189 0.40433 0.0
H962 H 0.76244 0.91163 0.38494 0.0
H963 H 0.71945 0.88311 0.36499 0.0
H964 H 0.72944 0.72101 0.35318 0.0
H965 H 0.78296 0.70103 0.37231 0.0
C966 C 0.81329 0.76955 0.39081 0.0
C967 C 0.82431 0.8094 0.39987 0.0
C968 C 0.78256 0.78054 0.37972 0.0
C969 C 0.80578 0.86051 0.3975 0.0
C970 C 0.77628 0.87186 0.38644 0.0
C971 C 0.73306 0.8433 0.3666 0.0
C972 C 0.7202 0.80368 0.35766 0.0
C973 C 0.76393 0.83213 0.37756 0.0
C974 C 0.73841 0.75232 0.35993 0.0
C975 C 0.76932 0.74088 0.37085 0.0
H976 H 0.22808 0.27911 0.60993 0.0
H977 H 0.23084 0.1273 0.62856 0.0
H978 H 0.23297 0.16954 0.64992 0.0
H979 H 0.23102 0.24933 0.6633 0.0
H980 H 0.22636 0.40107 0.64465 0.0
H981 H 0.2282 0.35887 0.62329 0.0
C982 C 0.22938 0.25511 0.61864 0.0
C983 C 0.22911 0.19995 0.6176 0.0
C984 C 0.23015 0.27964 0.6309 0.0
C985 C 0.23086 0.16972 0.62904 0.0
C986 C 0.23205 0.19388 0.64127 0.0
C987 C 0.23069 0.27332 0.65458 0.0
C988 C 0.22839 0.32844 0.65563 0.0
C989 C 0.23125 0.24879 0.64232 0.0
C990 C 0.22796 0.35867 0.64418 0.0
C991 C 0.22898 0.33454 0.63194 0.0
H992 H 0.74076 0.73756 0.85485 0.0
H993 H 0.89379 0.73981 0.87285 0.0
H994 H 0.85294 0.73748 0.89438 0.0
H995 H 0.77435 0.73114 0.90803 0.0
H996 H 0.62122 0.7262 0.89014 0.0
H997 H 0.66174 0.73359 0.8686 0.0
C998 C 0.76528 0.73792 0.86347 0.0
C999 C 0.82042 0.73871 0.86219 0.0
C1000 C 0.74153 0.73594 0.87584 0.0
C1001 C 0.85137 0.73903 0.87351 0.0
C1002 C 0.82801 0.73768 0.88584 0.0
C1003 C 0.74962 0.73194 0.89945 0.0
C1004 C 0.69466 0.72788 0.90075 0.0
C1005 C 0.7732 0.73554 0.88711 0.0
C1006 C 0.66353 0.7291 0.88947 0.0
C1007 C 0.68671 0.73327 0.87714 0.0
H1008 H 0.7911 0.73724 0.60803 0.0
H1009 H 0.79873 0.89189 0.62501 0.0
H1010 H 0.79267 0.85353 0.64681 0.0
H1011 H 0.78899 0.77589 0.66103 0.0
H1012 H 0.78407 0.62136 0.6439 0.0
H1013 H 0.78525 0.66011 0.62215 0.0
C1014 C 0.79121 0.76278 0.61647 0.0
C1015 C 0.79561 0.81753 0.61483 0.0
C1016 C 0.78839 0.74044 0.62896 0.0
C1017 C 0.79553 0.84971 0.62594 0.0
C1018 C 0.79213 0.82776 0.63842 0.0
C1019 C 0.78782 0.75059 0.65256 0.0
C1020 C 0.78659 0.69563 0.65415 0.0
C1021 C 0.78911 0.77314 0.64005 0.0
C1022 C 0.78522 0.66366 0.64301 0.0
C1023 C 0.78589 0.68582 0.63055 0.0
H1024 H 0.32097 0.36403 0.89791 0.0
H1025 H 0.2828 0.21068 0.91284 0.0
H1026 H 0.2318 0.19206 0.8932 0.0
H1027 H 0.19566 0.22074 0.87189 0.0
H1028 H 0.23757 0.37332 0.85702 0.0
H1029 H 0.28876 0.39088 0.87653 0.0
C1030 C 0.30184 0.32634 0.89685 0.0
C1031 C 0.30573 0.28891 0.90686 0.0
C1032 C 0.2726 0.31593 0.88556 0.0
C1033 C 0.28084 0.24016 0.90526 0.0
C1034 C 0.25129 0.2296 0.89406 0.0
C1035 C 0.21577 0.25788 0.87299 0.0
C1036 C 0.21236 0.2958 0.86305 0.0
C1037 C 0.24634 0.26746 0.88419 0.0
C1038 C 0.23941 0.34344 0.86451 0.0
C1039 C 0.26882 0.35356 0.87567 0.0
H1040 H 0.73501 0.76047 0.10797 0.0
H1041 H 0.7141 0.60806 0.12551 0.0
H1042 H 0.70966 0.64878 0.14708 0.0
H1043 H 0.70756 0.72805 0.16077 0.0
H1044 H 0.72526 0.8803 0.14289 0.0
H1045 H 0.73482 0.83898 0.12157 0.0
C1046 C 0.72978 0.73588 0.11648 0.0
C1047 C 0.72472 0.68113 0.11506 0.0
C1048 C 0.72628 0.7596 0.12878 0.0
C1049 C 0.71806 0.65022 0.12627 0.0
C1050 C 0.71536 0.67352 0.13861 0.0
C1051 C 0.71375 0.75226 0.15223 0.0
C1052 C 0.71546 0.80734 0.15346 0.0
C1053 C 0.71874 0.72825 0.13996 0.0
C1054 C 0.72347 0.83795 0.14225 0.0
C1055 C 0.72904 0.81433 0.13005 0.0
H1056 H 0.28333 0.23311 0.40782 0.0
H1057 H 0.12252 0.22056 0.39509 0.0
H1058 H 0.15196 0.21562 0.37241 0.0
H1059 H 0.22384 0.21195 0.35622 0.0
H1060 H 0.38437 0.22236 0.36936 0.0
H1061 H 0.3544 0.2309 0.39182 0.0
C1062 C 0.25451 0.2296 0.40011 0.0
C1063 C 0.20067 0.22717 0.40322 0.0
C1064 C 0.27173 0.22608 0.38713 0.0
C1065 C 0.16417 0.22249 0.39303 0.0
C1066 C 0.18101 0.21957 0.38004 0.0
C1067 C 0.25228 0.21628 0.36399 0.0
C1068 C 0.30639 0.21628 0.36105 0.0
C1069 C 0.23476 0.22084 0.37698 0.0
C1070 C 0.34257 0.22188 0.37128 0.0
C1071 C 0.32546 0.22688 0.38416 0.0
H1072 H 0.35051 0.19024 0.23063 0.0
H1073 H 0.23094 0.07708 0.2403 0.0
H1074 H 0.246 0.09296 0.26351 0.0
H1075 H 0.29218 0.14014 0.28102 0.0
H1076 H 0.41381 0.25085 0.2711 0.0
H1077 H 0.39866 0.23461 0.24798 0.0
C1078 C 0.3276 0.16888 0.23777 0.0
C1079 C 0.28929 0.13267 0.23365 0.0
C1080 C 0.33679 0.17786 0.25107 0.0
C1081 C 0.26061 0.10514 0.24314 0.0
C1082 C 0.26914 0.11432 0.25642 0.0
C1083 C 0.31542 0.1608 0.27382 0.0
C1084 C 0.35398 0.19696 0.27786 0.0
C1085 C 0.30695 0.15081 0.2605 0.0
C1086 C 0.38395 0.22284 0.26834 0.0
C1087 C 0.37526 0.21363 0.25509 0.0
H1088 H 0.92106 0.76863 0.49285 0.0
H1089 H 0.82063 0.88844 0.47643 0.0
H1090 H 0.79218 0.91439 0.49789 0.0
H1091 H 0.79426 0.90401 0.5215 0.0
H1092 H 0.89183 0.78332 0.5384 0.0
H1093 H 0.92224 0.75749 0.51684 0.0
C1094 C 0.89302 0.80038 0.49398 0.0
C1095 C 0.87338 0.8262 0.48289 0.0
C1096 C 0.87588 0.81533 0.50654 0.0
C1097 C 0.83682 0.86736 0.48464 0.0
C1098 C 0.82024 0.88255 0.497 0.0
C1099 C 0.82216 0.87206 0.52049 0.0
C1100 C 0.84048 0.84592 0.53163 0.0
C1101 C 0.83933 0.85687 0.50803 0.0
C1102 C 0.8767 0.8044 0.53005 0.0
C1103 C 0.89431 0.78945 0.51768 0.0
H1104 H 0.14639 0.32943 0.73395 0.0
H1105 H 0.25884 0.44621 0.74594 0.0
H1106 H 0.23901 0.42733 0.76877 0.0
H1107 H 0.1914 0.37678 0.78519 0.0
H1108 H 0.07668 0.26204 0.77337 0.0
H1109 H 0.09588 0.2813 0.75047 0.0
C1110 C 0.16668 0.35089 0.74153 0.0
C1111 C 0.20447 0.38905 0.73817 0.0
C1112 C 0.15472 0.34017 0.75463 0.0
C1113 C 0.22972 0.41671 0.74819 0.0
C1114 C 0.21844 0.40583 0.76125 0.0
C1115 C 0.17042 0.35581 0.77765 0.0
C1116 C 0.13282 0.31758 0.78106 0.0
C1117 C 0.18127 0.36746 0.76456 0.0
C1118 C 0.10579 0.29151 0.77107 0.0
C1119 C 0.11685 0.30248 0.75798 0.0
H1120 H 0.73359 0.59052 0.02116 0.0
H1121 H 0.65128 0.72053 0.03893 0.0
H1122 H 0.62047 0.74941 0.01781 0.0
H1123 H 0.61732 0.73952 0.99401 0.0
H1124 H 0.70195 0.6117 0.97608 0.0
H1125 H 0.73066 0.58079 0.99731 0.0
C1126 C 0.709 0.62517 0.02042 0.0
C1127 C 0.69511 0.65299 0.03173 0.0
C1128 C 0.69142 0.64231 1.00811 0.0
C1129 C 0.66301 0.69795 0.03048 0.0
C1130 C 0.64508 0.71474 0.01835 0.0
C1131 C 0.64174 0.70474 0.99477 0.0
C1132 C 0.65738 0.67825 0.98342 0.0
C1133 C 0.65904 0.68737 1.00707 0.0
C1134 C 0.68944 0.63333 0.98461 0.0
C1135 C 0.70599 0.61542 0.99679 0.0
H1136 H 0.36813 0.31952 0.035 0.0
H1137 H 0.25402 0.43079 0.02063 0.0
H1138 H 0.27695 0.40707 0.99821 0.0
H1139 H 0.32829 0.35389 0.9828 0.0
H1140 H 0.44484 0.24527 0.99722 0.0
H1141 H 0.42186 0.26904 0.01961 0.0
C1142 C 0.3481 0.33874 0.027 0.0
C1143 C 0.30896 0.37676 0.02957 0.0
C1144 C 0.36188 0.32531 0.01416 0.0
C1145 C 0.28415 0.40147 0.019 0.0
C1146 C 0.2972 0.3878 1.00617 0.0
C1147 C 0.34877 0.33523 0.99081 0.0
C1148 C 0.3881 0.29738 0.98826 0.0
C1149 C 0.33582 0.3496 1.00365 0.0
C1150 C 0.41445 0.27434 0.99884 0.0
C1151 C 0.40125 0.28791 0.01165 0.0
H1152 H 0.66965 0.86188 0.28239 0.0
H1153 H 0.55709 0.7448 0.27064 0.0
H1154 H 0.57533 0.7647 0.24775 0.0
H1155 H 0.62521 0.81305 0.23124 0.0
H1156 H 0.7368 0.93096 0.24307 0.0
H1157 H 0.71657 0.91284 0.26592 0.0
C1158 C 0.64888 0.84058 0.27487 0.0
C1159 C 0.61227 0.80142 0.27829 0.0
C1160 C 0.65945 0.85231 0.26178 0.0
C1161 C 0.58547 0.77495 0.26833 0.0
C1162 C 0.59599 0.78627 0.25524 0.0
C1163 C 0.64518 0.83501 0.23878 0.0
C1164 C 0.6829 0.87317 0.23538 0.0
C1165 C 0.63325 0.82451 0.25187 0.0
C1166 C 0.70775 0.90142 0.24535 0.0
C1167 C 0.69626 0.89098 0.25843 0.0
H1168 H 0.11985 0.21903 0.49646 0.0
H1169 H 0.27477 0.18645 0.4814 0.0
H1170 H 0.30219 0.15357 0.50261 0.0
H1171 H 0.28276 0.13488 0.52585 0.0
H1172 H 0.12732 0.16735 0.54051 0.0
H1173 H 0.09981 0.1983 0.51919 0.0
C1174 C 0.15974 0.20516 0.49781 0.0
C1175 C 0.19512 0.20597 0.48729 0.0
C1176 C 0.17528 0.18551 0.51003 0.0
C1177 C 0.24653 0.18692 0.48928 0.0
C1178 C 0.26234 0.16773 0.50144 0.0
C1179 C 0.24275 0.14801 0.52429 0.0
C1180 C 0.20733 0.14895 0.5348 0.0
C1181 C 0.22707 0.16668 0.51192 0.0
C1182 C 0.15564 0.16662 0.53264 0.0
C1183 C 0.13976 0.18449 0.52043 0.0
H1184 H 0.86482 0.70264 0.73252 0.0
H1185 H 0.75202 0.58729 0.74521 0.0
H1186 H 0.77189 0.60813 0.76794 0.0
H1187 H 0.81985 0.65998 0.78406 0.0
H1188 H 0.93493 0.77315 0.77143 0.0
H1189 H 0.91549 0.75196 0.74869 0.0
C1190 C 0.84445 0.68192 0.74022 0.0
C1191 C 0.80656 0.6436 0.7371 0.0
C1192 C 0.85645 0.69373 0.75324 0.0
C1193 C 0.78122 0.61691 0.74728 0.0
C1194 C 0.79252 0.6289 0.76028 0.0
C1195 C 0.84082 0.68018 0.77638 0.0
C1196 C 0.87862 0.71854 0.77951 0.0
C1197 C 0.82983 0.66742 0.76336 0.0
C1198 C 0.90567 0.74361 0.76934 0.0
C1199 C 0.89448 0.73154 0.75633 0.0
H1200 H 0.08254 0.97112 0.22528 0.0
H1201 H 0.06819 0.07691 0.19266 0.0
H1202 H 0.97617 0.05199 0.19003 0.0
H1203 H 0.90024 0.99899 0.19673 0.0
H1204 H 0.91585 0.89006 0.22868 0.0
H1205 H 1.00696 0.91712 0.23176 0.0
C1206 C 0.05916 0.98921 0.21768 0.0
C1207 C 0.08219 0.02635 0.20927 0.0
C1208 C 1.00658 0.97372 0.21602 0.0
C1209 C 0.05146 0.04853 0.19932 0.0
C1210 C 0.99885 0.03415 0.19779 0.0
C1211 C 0.92351 0.98108 0.20437 0.0
C1212 C 0.90099 0.94249 0.21248 0.0
C1213 C 0.97608 0.99654 0.20602 0.0
C1214 C 0.93204 0.91961 0.22227 0.0
C1215 C 0.98416 0.93525 0.22407 0.0
H1216 H 0.09307 0.45828 0.44164 0.0
H1217 H 0.06416 0.41043 0.48123 0.0
H1218 H 0.02036 0.49437 0.48569 0.0
H1219 H 0.9905 0.58206 0.47824 0.0
H1220 H 0.01335 0.62527 0.43797 0.0
H1221 H 0.05825 0.54265 0.43386 0.0
C1222 C 0.07769 0.46658 0.45128 0.0
C1223 C 0.0829 0.42883 0.46119 0.0
C1224 C 0.05072 0.51395 0.45361 0.0
C1225 C 0.06126 0.43928 0.47351 0.0
C1226 C 0.03601 0.48715 0.47604 0.0
C1227 C 1.00483 0.57315 0.46854 0.0
C1228 C 0.99836 0.61021 0.45846 0.0
C1229 C 0.03035 0.52484 0.46615 0.0
C1230 C 0.01718 0.5977 0.44593 0.0
C1231 C 0.04337 0.55044 0.44357 0.0
H1232 H 0.40217 0.54758 0.71165 0.0
H1233 H 0.45153 0.38555 0.71235 0.0
H1234 H 0.54345 0.41304 0.71253 0.0
H1235 H 0.60964 0.48292 0.71161 0.0
H1236 H 0.5603 0.64497 0.71138 0.0
H1237 H 0.46838 0.61753 0.71195 0.0
C1238 C 0.43298 0.51818 0.71188 0.0
C1239 C 0.41985 0.46446 0.71189 0.0
C1240 C 0.48572 0.53428 0.71204 0.0
C1241 C 0.4604 0.42707 0.71235 0.0
C1242 C 0.513 0.44279 0.7124 0.0
C1243 C 0.57883 0.51234 0.71172 0.0
C1244 C 0.59196 0.56603 0.71135 0.0
C1245 C 0.5261 0.49626 0.71211 0.0
C1246 C 0.55143 0.60347 0.71166 0.0
C1247 C 0.49883 0.58777 0.71195 0.0
H1248 H 0.55643 0.09631 0.96251 0.0
H1249 H 0.39392 0.04918 0.96335 0.0
H1250 H 0.42061 0.95702 0.963 0.0
H1251 H 0.48988 0.8898 0.96161 0.0
H1252 H 0.65245 0.93677 0.96113 0.0
H1253 H 0.62585 0.02891 0.96224 0.0
C1254 C 0.52675 0.06594 0.96268 0.0
C1255 C 0.4731 0.07992 0.9629 0.0
C1256 C 0.5424 0.0129 0.96251 0.0
C1257 C 0.4354 0.0398 0.96321 0.0
C1258 C 0.45066 0.98699 0.96296 0.0
C1259 C 0.51961 0.92011 0.96179 0.0
C1260 C 0.57322 0.90614 0.96121 0.0
C1261 C 0.50402 0.97308 0.96248 0.0
C1262 C 0.611 0.94616 0.96158 0.0
C1263 C 0.59578 0.99895 0.96218 0.0
H1264 H 0.10767 0.54267 0.05548 0.0
H1265 H 0.05884 0.3809 0.05376 0.0
H1266 H 0.9669 0.40871 0.05328 0.0
H1267 H 0.90032 0.47872 0.05417 0.0
H1268 H 0.94921 0.64053 0.05561 0.0
H1269 H 0.04117 0.61282 0.05531 0.0
C1270 C 0.077 0.51338 0.05496 0.0
C1271 C 0.09038 0.45961 0.05474 0.0
C1272 C 0.02416 0.52967 0.05465 0.0
C1273 C 0.0499 0.42244 0.05394 0.0
C1274 C 0.99724 0.43835 0.0537 0.0
C1275 C 0.93101 0.50805 0.05437 0.0
C1276 C 0.91761 0.56176 0.05498 0.0
C1277 C 0.98389 0.49183 0.05418 0.0
C1278 C 0.95815 0.59902 0.05512 0.0
C1279 C 0.01083 0.58317 0.05499 0.0
H1280 H 0.44373 0.58834 0.28748 0.0
H1281 H 0.56393 0.57456 0.31683 0.0
H1282 H 0.54156 0.48226 0.32006 0.0
H1283 H 0.48652 0.40613 0.31496 0.0
H1284 H 0.36301 0.42092 0.28646 0.0
H1285 H 0.38772 0.5122 0.28258 0.0
C1286 C 0.46549 0.56493 0.29446 0.0
C1287 C 0.50591 0.58815 0.3018 0.0
C1288 C 0.45142 0.51221 0.29653 0.0
C1289 C 0.5329 0.55757 0.31101 0.0
C1290 C 0.52 0.50483 0.31289 0.0
C1291 C 0.46496 0.42923 0.30788 0.0
C1292 C 0.42296 0.4065 0.30099 0.0
C1293 C 0.47906 0.48186 0.30578 0.0
C1294 C 0.39533 0.43732 0.29193 0.0
C1295 C 0.40959 0.48952 0.28967 0.0
H1296 H 0.57993 0.93835 0.57687 0.0
H1297 H 0.62824 0.96499 0.53722 0.0
H1298 H 0.54358 1.00701 0.53247 0.0
H1299 H 0.45511 0.03609 0.53972 0.0
H1300 H 0.41178 0.01607 0.58008 0.0
H1301 H 0.49492 0.97254 0.58443 0.0
C1302 C 0.57158 0.95286 0.56716 0.0
C1303 C 0.60964 0.94751 0.55732 0.0
C1304 C 0.52382 0.97888 0.56467 0.0
C1305 C 0.59914 0.96802 0.54489 0.0
C1306 C 0.55086 0.99224 0.5422 0.0
C1307 C 0.46411 0.02264 0.54948 0.0
C1308 C 0.42689 0.02954 0.55952 0.0
C1309 C 0.51282 0.99806 0.55203 0.0
C1310 C 0.4395 0.01191 0.57214 0.0
C1311 C 0.48706 0.98651 0.57465 0.0
H1312 H 0.9765 0.1233 0.80783 0.0
H1313 H 0.13822 0.07258 0.80737 0.0
H1314 H 0.10986 0.98102 0.80634 0.0
H1315 H 0.03918 0.91549 0.80635 0.0
H1316 H 0.8775 0.96647 0.80632 0.0
H1317 H 0.90593 0.05801 0.80669 0.0
C1318 C 1.00566 0.09228 0.8075 0.0
C1319 C 0.05952 0.10488 0.8078 0.0
C1320 C 0.98905 0.03981 0.80681 0.0
C1321 C 0.0966 0.0641 0.80716 0.0
C1322 C 0.08037 0.01171 0.8066 0.0
C1323 C 0.01006 0.94657 0.80638 0.0
C1324 C 0.95616 0.93398 0.8064 0.0
C1325 C 0.02671 0.99912 0.80654 0.0
C1326 C 0.91914 0.9749 0.80629 0.0
C1327 C 0.9354 0.02729 0.80655 0.0
H1328 H 0.59717 0.02548 0.19043 0.0
H1329 H 0.53402 0.86871 0.18925 0.0
H1330 H 0.44504 0.90462 0.18844 0.0
H1331 H 0.3853 0.98044 0.18944 0.0
H1332 H 0.44906 0.13712 0.18921 0.0
H1333 H 0.53789 0.10111 0.1891 0.0
C1334 C 0.56414 0.999 0.18981 0.0
C1335 C 0.57255 0.94434 0.18999 0.0
C1336 C 0.51315 0.01991 0.18916 0.0
C1337 C 0.52894 0.91087 0.18914 0.0
C1338 C 0.47796 0.93141 0.18872 0.0
C1339 C 0.41849 1.00684 0.1892 0.0
C1340 C 0.41021 0.06155 0.18942 0.0
C1341 C 0.46959 0.98586 0.18893 0.0
C1342 C 0.45401 0.09494 0.18905 0.0
C1343 C 0.50492 0.07436 0.18903 0.0
H1344 H 0.05282 0.91292 0.44831 0.0
H1345 H 0.90565 0.98032 0.43574 0.0
H1346 H 0.94558 0.06705 0.4352 0.0
H1347 H 0.02122 0.12414 0.43908 0.0
H1348 H 0.16973 0.0569 0.45027 0.0
H1349 H 0.13076 0.96912 0.45015 0.0
C1350 C 0.02954 0.94631 0.44527 0.0
C1351 C 0.97615 0.93981 0.44209 0.0
C1352 C 0.05308 0.99601 0.44467 0.0
C1353 C 0.94675 0.98392 0.43825 0.0
C1354 C 0.96955 0.03363 0.43793 0.0
C1355 C 0.04505 0.09024 0.44143 0.0
C1356 C 0.098 0.0969 0.44484 0.0
C1357 C 0.02249 0.04016 0.44123 0.0
C1358 C 0.12889 0.05263 0.44759 0.0
C1359 C 0.1065 1.00256 0.44761 0.0
H1360 H 0.11096 0.5404 0.69321 0.0
H1361 H 0.05317 0.3815 0.69277 0.0
H1362 H 0.96303 0.41439 0.69202 0.0
H1363 H 0.90119 0.48809 0.69304 0.0
H1364 H 0.95907 0.64693 0.69206 0.0
H1365 H 0.04922 0.61399 0.6917 0.0
C1366 C 0.07887 0.51281 0.69276 0.0
C1367 C 0.08904 0.45847 0.69315 0.0
C1368 C 0.02726 0.53197 0.69214 0.0
C1369 C 0.04664 0.42346 0.6925 0.0
C1370 C 0.99505 0.44226 0.69212 0.0
C1371 C 0.93332 0.51564 0.69256 0.0
C1372 C 0.92315 0.57 0.69268 0.0
C1373 C 0.98495 0.49643 0.69216 0.0
C1374 C 0.96559 0.60495 0.69199 0.0
C1375 C 0.01719 0.58613 0.69183 0.0
H1376 H 0.54512 0.38895 0.94008 0.0
H1377 H 0.38709 0.44517 0.94591 0.0
H1378 H 0.41791 0.53562 0.94456 0.0
H1379 H 0.49059 0.59818 0.94337 0.0
H1380 H 0.64772 0.54251 0.93571 0.0
H1381 H 0.6163 0.45206 0.93607 0.0
C1382 C 0.51735 0.42088 0.94096 0.0
C1383 C 0.46398 0.41015 0.94334 0.0
C1384 C 0.53521 0.47281 0.93989 0.0
C1385 C 0.42838 0.45218 0.94418 0.0
C1386 C 0.44602 0.50396 0.94344 0.0
C1387 C 0.51798 0.5665 0.94155 0.0
C1388 C 0.57166 0.5774 0.93967 0.0
C1389 C 0.49948 0.51469 0.94152 0.0
C1390 C 0.60631 0.5355 0.93727 0.0
C1391 C 0.58837 0.48367 0.93751 0.0
H1392 H 0.60925 0.48172 0.07419 0.0
H1393 H 0.55167 0.64071 0.07629 0.0
H1394 H 0.46143 0.60845 0.07652 0.0
H1395 H 0.39941 0.53534 0.07457 0.0
H1396 H 0.45715 0.37615 0.07425 0.0
H1397 H 0.54732 0.40834 0.07497 0.0
C1398 C 0.57716 0.5094 0.07486 0.0
C1399 C 0.58743 0.56365 0.07505 0.0
C1400 C 0.52549 0.49052 0.07525 0.0
C1401 C 0.54506 0.59881 0.07607 0.0
C1402 C 0.4934 0.58037 0.07616 0.0
C1403 C 0.43152 0.50756 0.07483 0.0
C1404 C 0.4213 0.45334 0.0742 0.0
C1405 C 0.4832 0.52634 0.07552 0.0
C1406 C 0.4637 0.41803 0.07467 0.0
C1407 C 0.51533 0.43644 0.07505 0.0
H1408 H 0.50758 0.10151 0.32393 0.0
H1409 H 0.35014 0.04059 0.32124 0.0
H1410 H 0.38463 0.95112 0.32165 0.0
H1411 H 0.45969 0.89066 0.32131 0.0
H1412 H 0.61684 0.95147 0.32525 0.0
H1413 H 0.58202 0.04073 0.32588 0.0
C1414 C 0.48066 0.06879 0.32358 0.0
C1415 C 0.42629 0.07799 0.32244 0.0
C1416 C 0.50071 0.01743 0.32398 0.0
C1417 C 0.39211 0.03484 0.32211 0.0
C1418 C 0.41183 0.9836 0.32229 0.0
C1419 C 0.48643 0.92325 0.32248 0.0
C1420 C 0.54097 0.91409 0.32313 0.0
C1421 C 0.46611 0.97448 0.32302 0.0
C1422 C 0.57477 0.95711 0.3247 0.0
C1423 C 0.55489 0.00827 0.32502 0.0
H1424 H 0.9129 0.01873 0.57889 0.0
H1425 H 0.98132 0.86535 0.57381 0.0
H1426 H 0.06915 0.90359 0.57417 0.0
H1427 H 0.12563 0.98139 0.57422 0.0
H1428 H 0.05786 0.13401 0.58136 0.0
H1429 H 0.97028 0.09533 0.58174 0.0
C1430 C 0.94698 0.99363 0.57796 0.0
C1431 C 0.94044 0.93935 0.57607 0.0
C1432 C 0.99735 0.01583 0.57842 0.0
C1433 C 0.98514 0.9072 0.57519 0.0
C1434 C 0.0354 0.92913 0.57533 0.0
C1435 C 0.092 1.00624 0.57609 0.0
C1436 C 0.09863 0.06072 0.57768 0.0
C1437 C 0.04188 0.98352 0.57669 0.0
C1438 C 0.05414 0.09206 0.58006 0.0
C1439 C 1.00396 0.06995 0.58027 0.0
H1440 H 0.03058 0.62471 0.82421 0.0
H1441 H 0.87179 0.56645 0.82449 0.0
H1442 H 0.90502 0.47644 0.8253 0.0
H1443 H 0.97919 0.41484 0.8245 0.0
H1444 H 0.13779 0.47376 0.82573 0.0
H1445 H 0.10433 0.56354 0.82586 0.0
C1446 C 1.00307 0.59256 0.82464 0.0
C1447 C 0.9487 0.60254 0.8242 0.0
C1448 C 0.02242 0.54111 0.82531 0.0
C1449 C 0.91379 0.56005 0.82481 0.0
C1450 C 0.93279 0.50854 0.82522 0.0
C1451 C 1.00656 0.44714 0.82499 0.0
C1452 C 0.06104 0.43732 0.82502 0.0
C1453 C 0.98705 0.49866 0.82528 0.0
C1454 C 0.09574 0.47997 0.82568 0.0
C1455 C 0.07663 0.53138 0.82572 0.0
loop_
_geom_bond_atom_site_label_1
_geom_bond_atom_site_label_2
_geom_bond_distance
_geom_bond_site_symmetry_2
_ccdc_geom_bond_type
Co0 O2 2.143 . S
Co0 O8 2.074 . S
Co0 O11 2.093 . S
Co0 O24 2.097 . S
Co0 N41 2.151 . S
Co0 N49 2.214 . S
Co1 O2 2.160 . S
Co1 O7 2.058 . S
Co1 O17 2.057 . S
Co1 O32 2.037 . S
Co1 N36 2.145 1_545 S
Co1 N57 2.257 . S
O2 Co0 2.143 . S
O2 Co1 2.160 . S
C3 O4 1.278 . S
C3 O11 1.224 . S
O4 C3 1.278 . S
C5 O6 1.245 . S
C5 O17 1.232 . S
O6 C5 1.245 . S
O7 Co1 2.058 . S
O7 C33 1.269 . S
O8 Co0 2.074 . S
O8 C33 1.257 . S
H9 C34 0.930 . S
H10 C40 0.930 . S
O11 Co0 2.093 . S
O11 C3 1.224 . S
H12 C44 0.929 . S
H13 C46 0.930 . S
H14 C47 0.930 . S
H15 C45 0.929 . S
H16 C48 0.928 . S
O17 Co1 2.057 . S
O17 C5 1.232 . S
H18 C37 0.929 . S
H19 C38 0.929 . S
H20 C50 0.931 . S
H21 C42 0.929 . S
H22 C51 0.930 . S
H23 C43 0.931 . S
O24 Co0 2.097 . S
O24 C52 1.214 . S
H25 C53 0.929 . S
H26 C54 0.929 . S
H27 C55 0.930 . S
H28 C56 0.929 . S
H29 C58 0.930 . S
H30 C35 0.930 . S
H31 C39 0.930 . S
O32 Co1 2.037 . S
O32 C52 1.234 . S
C33 O7 1.269 . S
C33 O8 1.257 . S
C34 H9 0.930 . S
C34 C37 1.388 . S
C34 C39 1.418 . S
C35 H30 0.930 . S
C35 C38 1.404 . S
C35 C39 1.353 . S
N36 Co1 2.145 1_565 S
N36 C37 1.397 . S
N36 C38 1.334 . S
C37 H18 0.929 . S
C37 C34 1.388 . S
C37 N36 1.397 . S
C38 H19 0.929 . S
C38 C35 1.404 . S
C38 N36 1.334 . S
C39 H31 0.930 . S
C39 C34 1.418 . S
C39 C35 1.353 . S
C40 H10 0.930 . S
C40 N41 1.330 . S
C40 C42 1.446 . S
N41 Co0 2.151 . S
N41 C40 1.330 . S
N41 C45 1.418 . S
C42 H21 0.929 . S
C42 C40 1.446 . S
C42 C43 1.332 . S
C43 H23 0.931 . S
C43 C42 1.332 . S
C43 C44 1.267 . S
C44 H12 0.929 . S
C44 C43 1.267 . S
C44 C45 1.251 . S
C45 H15 0.929 . S
C45 N41 1.418 . S
C45 C44 1.251 . S
C46 H13 0.930 . S
C46 C48 1.406 . S
C46 C51 1.261 . S
C47 H14 0.930 . S
C47 N49 1.325 . S
C47 C50 1.357 . S
C48 H16 0.928 . S
C48 C46 1.406 . S
C48 N49 1.261 . S
N49 Co0 2.214 . S
N49 C47 1.325 . S
N49 C48 1.261 . S
C50 H20 0.931 . S
C50 C47 1.357 . S
C50 C51 1.312 . S
C51 H22 0.930 . S
C51 C46 1.261 . S
C51 C50 1.312 . S
C52 O24 1.214 . S
C52 O32 1.234 . S
C53 H25 0.929 . S
C53 C56 1.391 . S
C53 C58 1.391 1_565 S
C54 H26 0.929 . S
C54 C55 1.390 . S
C54 N57 1.391 1_565 S
C55 H27 0.930 . S
C55 C54 1.390 . S
C55 C56 1.392 . S
C56 H28 0.929 . S
C56 C53 1.391 . S
C56 C55 1.392 . S
N57 Co1 2.257 . S
N57 C54 1.391 1_545 S
N57 C58 1.388 . S
C58 H29 0.930 . S
C58 C53 1.391 1_545 S
C58 N57 1.388 . S
Co59 O61 2.143 . S
Co59 O67 2.074 . S
Co59 O70 2.093 . S
Co59 O83 2.097 . S
Co59 N100 2.151 . S
Co59 N108 2.214 . S
Co60 O61 2.160 . S
Co60 O66 2.058 . S
Co60 O76 2.057 . S
Co60 O91 2.037 . S
Co60 N95 2.145 1_655 S
Co60 N116 2.257 . S
O61 Co59 2.143 . S
O61 Co60 2.160 . S
C62 O63 1.278 . S
C62 O70 1.224 . S
O63 C62 1.278 . S
C64 O65 1.245 . S
C64 O76 1.232 . S
O65 C64 1.245 . S
O66 Co60 2.058 . S
O66 C92 1.269 . S
O67 Co59 2.074 . S
O67 C92 1.257 . S
H68 C93 0.930 . S
H69 C99 0.930 . S
O70 Co59 2.093 . S
O70 C62 1.224 . S
H71 C103 0.929 . S
H72 C105 0.930 . S
H73 C106 0.930 . S
H74 C104 0.929 . S
H75 C107 0.928 . S
O76 Co60 2.057 . S
O76 C64 1.232 . S
H77 C96 0.929 . S
H78 C97 0.929 . S
H79 C109 0.931 . S
H80 C101 0.929 . S
H81 C110 0.930 . S
H82 C102 0.931 . S
O83 Co59 2.097 . S
O83 C111 1.214 . S
H84 C112 0.929 . S
H85 C113 0.929 . S
H86 C114 0.930 . S
H87 C115 0.929 . S
H88 C117 0.930 . S
H89 C94 0.930 . S
H90 C98 0.930 . S
O91 Co60 2.037 . S
O91 C111 1.234 . S
C92 O66 1.269 . S
C92 O67 1.257 . S
C93 H68 0.930 . S
C93 C96 1.388 . S
C93 C98 1.418 . S
C94 H89 0.930 . S
C94 C97 1.404 . S
C94 C98 1.353 . S
N95 Co60 2.145 1_455 S
N95 C96 1.397 . S
N95 C97 1.334 . S
C96 H77 0.929 . S
C96 C93 1.388 . S
C96 N95 1.397 . S
C97 H78 0.929 . S
C97 C94 1.404 . S
C97 N95 1.334 . S
C98 H90 0.930 . S
C98 C93 1.418 . S
C98 C94 1.353 . S
C99 H69 0.930 . S
C99 N100 1.330 . S
C99 C101 1.446 . S
N100 Co59 2.151 . S
N100 C99 1.330 . S
N100 C104 1.418 . S
C101 H80 0.929 . S
C101 C99 1.446 . S
C101 C102 1.332 . S
C102 H82 0.931 . S
C102 C101 1.332 . S
C102 C103 1.267 . S
C103 H71 0.929 . S
C103 C102 1.267 . S
C103 C104 1.251 . S
C104 H74 0.929 . S
C104 N100 1.418 . S
C104 C103 1.251 . S
C105 H72 0.930 . S
C105 C107 1.406 . S
C105 C110 1.261 . S
C106 H73 0.930 . S
C106 N108 1.325 . S
C106 C109 1.357 . S
C107 H75 0.928 . S
C107 C105 1.406 . S
C107 N108 1.261 . S
N108 Co59 2.214 . S
N108 C106 1.325 . S
N108 C107 1.261 . S
C109 H79 0.931 . S
C109 C106 1.357 . S
C109 C110 1.312 . S
C110 H81 0.930 . S
C110 C105 1.261 . S
C110 C109 1.312 . S
C111 O83 1.214 . S
C111 O91 1.234 . S
C112 H84 0.929 . S
C112 C115 1.391 . S
C112 C117 1.391 1_455 S
C113 H85 0.929 . S
C113 C114 1.390 . S
C113 N116 1.391 1_455 S
C114 H86 0.930 . S
C114 C113 1.390 . S
C114 C115 1.392 . S
C115 H87 0.929 . S
C115 C112 1.391 . S
C115 C114 1.392 . S
N116 Co60 2.257 . S
N116 C113 1.391 1_655 S
N116 C117 1.388 . S
C117 H88 0.930 . S
C117 C112 1.391 1_655 S
C117 N116 1.388 . S
Co118 O120 2.143 . S
Co118 O126 2.074 . S
Co118 O129 2.093 . S
Co118 O142 2.097 . S
Co118 N159 2.151 . S
Co118 N167 2.214 . S
Co119 O120 2.160 . S
Co119 O125 2.058 . S
Co119 O135 2.057 . S
Co119 O150 2.037 . S
Co119 N154 2.145 . S
Co119 N175 2.257 . S
O120 Co118 2.143 . S
O120 Co119 2.160 . S
C121 O122 1.278 . S
C121 O129 1.224 . S
O122 C121 1.278 . S
C123 O124 1.245 . S
C123 O135 1.232 . S
O124 C123 1.245 . S
O125 Co119 2.058 . S
O125 C151 1.269 . S
O126 Co118 2.074 . S
O126 C151 1.257 . S
H127 C152 0.930 . S
H128 C158 0.930 . S
O129 Co118 2.093 . S
O129 C121 1.224 . S
H130 C162 0.929 . S
H131 C164 0.930 . S
H132 C165 0.930 . S
H133 C163 0.929 . S
H134 C166 0.928 . S
O135 Co119 2.057 . S
O135 C123 1.232 . S
H136 C155 0.929 . S
H137 C156 0.929 . S
H138 C168 0.931 . S
H139 C160 0.929 . S
H140 C169 0.930 . S
H141 C161 0.931 . S
O142 Co118 2.097 . S
O142 C170 1.214 . S
H143 C171 0.929 . S
H144 C172 0.929 . S
H145 C173 0.930 . S
H146 C174 0.929 . S
H147 C176 0.930 . S
H148 C153 0.930 . S
H149 C157 0.930 . S
O150 Co119 2.037 . S
O150 C170 1.234 . S
C151 O125 1.269 . S
C151 O126 1.257 . S
C152 H127 0.930 . S
C152 C155 1.388 . S
C152 C157 1.418 . S
C153 H148 0.930 . S
C153 C156 1.404 . S
C153 C157 1.353 . S
N154 Co119 2.145 . S
N154 C155 1.397 . S
N154 C156 1.334 . S
C155 H136 0.929 . S
C155 C152 1.388 . S
C155 N154 1.397 . S
C156 H137 0.929 . S
C156 C153 1.404 . S
C156 N154 1.334 . S
C157 H149 0.930 . S
C157 C152 1.418 . S
C157 C153 1.353 . S
C158 H128 0.930 . S
C158 N159 1.330 . S
C158 C160 1.446 . S
N159 Co118 2.151 . S
N159 C158 1.330 . S
N159 C163 1.418 . S
C160 H139 0.929 . S
C160 C158 1.446 . S
C160 C161 1.332 . S
C161 H141 0.931 . S
C161 C160 1.332 . S
C161 C162 1.267 . S
C162 H130 0.929 . S
C162 C161 1.267 . S
C162 C163 1.251 . S
C163 H133 0.929 . S
C163 N159 1.418 . S
C163 C162 1.251 . S
C164 H131 0.930 . S
C164 C166 1.406 . S
C164 C169 1.261 . S
C165 H132 0.930 . S
C165 N167 1.325 . S
C165 C168 1.357 . S
C166 H134 0.928 . S
C166 C164 1.406 . S
C166 N167 1.261 . S
N167 Co118 2.214 . S
N167 C165 1.325 . S
N167 C166 1.261 . S
C168 H138 0.931 . S
C168 C165 1.357 . S
C168 C169 1.312 . S
C169 H140 0.930 . S
C169 C164 1.261 . S
C169 C168 1.312 . S
C170 O142 1.214 . S
C170 O150 1.234 . S
C171 H143 0.929 . S
C171 C174 1.391 . S
C171 C176 1.391 . S
C172 H144 0.929 . S
C172 C173 1.390 . S
C172 N175 1.391 . S
C173 H145 0.930 . S
C173 C172 1.390 . S
C173 C174 1.392 . S
C174 H146 0.929 . S
C174 C171 1.391 . S
C174 C173 1.392 . S
N175 Co119 2.257 . S
N175 C172 1.391 . S
N175 C176 1.388 . S
C176 H147 0.930 . S
C176 C171 1.391 . S
C176 N175 1.388 . S
Co177 O179 2.143 . S
Co177 O185 2.074 . S
Co177 O188 2.093 . S
Co177 O201 2.097 . S
Co177 N218 2.151 . S
Co177 N226 2.214 . S
Co178 O179 2.160 . S
Co178 O184 2.058 . S
Co178 O194 2.057 . S
Co178 O209 2.037 . S
Co178 N213 2.145 . S
Co178 N234 2.257 . S
O179 Co177 2.143 . S
O179 Co178 2.160 . S
C180 O181 1.278 . S
C180 O188 1.224 . S
O181 C180 1.278 . S
C182 O183 1.245 . S
C182 O194 1.232 . S
O183 C182 1.245 . S
O184 Co178 2.058 . S
O184 C210 1.269 . S
O185 Co177 2.074 . S
O185 C210 1.257 . S
H186 C211 0.930 . S
H187 C217 0.930 . S
O188 Co177 2.093 . S
O188 C180 1.224 . S
H189 C221 0.929 . S
H190 C223 0.930 . S
H191 C224 0.930 . S
H192 C222 0.929 . S
H193 C225 0.928 . S
O194 Co178 2.057 . S
O194 C182 1.232 . S
H195 C214 0.929 . S
H196 C215 0.929 . S
H197 C227 0.931 . S
H198 C219 0.929 . S
H199 C228 0.930 . S
H200 C220 0.931 . S
O201 Co177 2.097 . S
O201 C229 1.214 . S
H202 C230 0.929 . S
H203 C231 0.929 . S
H204 C232 0.930 . S
H205 C233 0.929 . S
H206 C235 0.930 . S
H207 C212 0.930 . S
H208 C216 0.930 . S
O209 Co178 2.037 . S
O209 C229 1.234 . S
C210 O184 1.269 . S
C210 O185 1.257 . S
C211 H186 0.930 . S
C211 C214 1.388 . S
C211 C216 1.418 . S
C212 H207 0.930 . S
C212 C215 1.404 . S
C212 C216 1.353 . S
N213 Co178 2.145 . S
N213 C214 1.397 . S
N213 C215 1.334 . S
C214 H195 0.929 . S
C214 C211 1.388 . S
C214 N213 1.397 . S
C215 H196 0.929 . S
C215 C212 1.404 . S
C215 N213 1.334 . S
C216 H208 0.930 . S
C216 C211 1.418 . S
C216 C212 1.353 . S
C217 H187 0.930 . S
C217 N218 1.330 . S
C217 C219 1.446 . S
N218 Co177 2.151 . S
N218 C217 1.330 . S
N218 C222 1.418 . S
C219 H198 0.929 . S
C219 C217 1.446 . S
C219 C220 1.332 . S
C220 H200 0.931 . S
C220 C219 1.332 . S
C220 C221 1.267 . S
C221 H189 0.929 . S
C221 C220 1.267 . S
C221 C222 1.251 . S
C222 H192 0.929 . S
C222 N218 1.418 . S
C222 C221 1.251 . S
C223 H190 0.930 . S
C223 C225 1.406 . S
C223 C228 1.261 . S
C224 H191 0.930 . S
C224 N226 1.325 . S
C224 C227 1.357 . S
C225 H193 0.928 . S
C225 C223 1.406 . S
C225 N226 1.261 . S
N226 Co177 2.214 . S
N226 C224 1.325 . S
N226 C225 1.261 . S
C227 H197 0.931 . S
C227 C224 1.357 . S
C227 C228 1.312 . S
C228 H199 0.930 . S
C228 C223 1.261 . S
C228 C227 1.312 . S
C229 O201 1.214 . S
C229 O209 1.234 . S
C230 H202 0.929 . S
C230 C233 1.391 . S
C230 C235 1.391 . S
C231 H203 0.929 . S
C231 C232 1.390 . S
C231 N234 1.391 . S
C232 H204 0.930 . S
C232 C231 1.390 . S
C232 C233 1.392 . S
C233 H205 0.929 . S
C233 C230 1.391 . S
C233 C232 1.392 . S
N234 Co178 2.257 . S
N234 C231 1.391 . S
N234 C235 1.388 . S
C235 H206 0.930 . S
C235 C230 1.391 . S
C235 N234 1.388 . S
Co236 O238 2.143 . S
Co236 O244 2.074 . S
Co236 O247 2.093 . S
Co236 O260 2.097 . S
Co236 N277 2.151 . S
Co236 N285 2.214 . S
Co237 O238 2.160 . S
Co237 O243 2.058 . S
Co237 O253 2.057 . S
Co237 O268 2.037 . S
Co237 N272 2.145 . S
Co237 N293 2.257 . S
O238 Co236 2.143 . S
O238 Co237 2.160 . S
C239 O240 1.278 . S
C239 O247 1.224 . S
O240 C239 1.278 . S
C241 O242 1.245 . S
C241 O253 1.232 . S
O242 C241 1.245 . S
O243 Co237 2.058 . S
O243 C269 1.269 . S
O244 Co236 2.074 . S
O244 C269 1.257 . S
H245 C270 0.930 . S
H246 C276 0.930 . S
O247 Co236 2.093 . S
O247 C239 1.224 . S
H248 C280 0.929 . S
H249 C282 0.930 . S
H250 C283 0.930 . S
H251 C281 0.929 . S
H252 C284 0.928 . S
O253 Co237 2.057 . S
O253 C241 1.232 . S
H254 C273 0.929 . S
H255 C274 0.929 . S
H256 C286 0.931 . S
H257 C278 0.929 . S
H258 C287 0.930 . S
H259 C279 0.931 . S
O260 Co236 2.097 . S
O260 C288 1.214 . S
H261 C289 0.929 . S
H262 C290 0.929 . S
H263 C291 0.930 . S
H264 C292 0.929 . S
H265 C294 0.930 . S
H266 C271 0.930 . S
H267 C275 0.930 . S
O268 Co237 2.037 . S
O268 C288 1.234 . S
C269 O243 1.269 . S
C269 O244 1.257 . S
C270 H245 0.930 . S
C270 C273 1.388 . S
C270 C275 1.418 . S
C271 H266 0.930 . S
C271 C274 1.404 . S
C271 C275 1.353 . S
N272 Co237 2.145 . S
N272 C273 1.397 . S
N272 C274 1.334 . S
C273 H254 0.929 . S
C273 C270 1.388 . S
C273 N272 1.397 . S
C274 H255 0.929 . S
C274 C271 1.404 . S
C274 N272 1.334 . S
C275 H267 0.930 . S
C275 C270 1.418 . S
C275 C271 1.353 . S
C276 H246 0.930 . S
C276 N277 1.330 . S
C276 C278 1.446 . S
N277 Co236 2.151 . S
N277 C276 1.330 . S
N277 C281 1.418 . S
C278 H257 0.929 . S
C278 C276 1.446 . S
C278 C279 1.332 . S
C279 H259 0.931 . S
C279 C278 1.332 . S
C279 C280 1.267 . S
C280 H248 0.929 . S
C280 C279 1.267 . S
C280 C281 1.251 . S
C281 H251 0.929 . S
C281 N277 1.418 . S
C281 C280 1.251 . S
C282 H249 0.930 . S
C282 C284 1.406 . S
C282 C287 1.261 . S
C283 H250 0.930 . S
C283 N285 1.325 . S
C283 C286 1.357 . S
C284 H252 0.928 . S
C284 C282 1.406 . S
C284 N285 1.261 . S
N285 Co236 2.214 . S
N285 C283 1.325 . S
N285 C284 1.261 . S
C286 H256 0.931 . S
C286 C283 1.357 . S
C286 C287 1.312 . S
C287 H258 0.930 . S
C287 C282 1.261 . S
C287 C286 1.312 . S
C288 O260 1.214 . S
C288 O268 1.234 . S
C289 H261 0.929 . S
C289 C292 1.391 . S
C289 C294 1.391 . S
C290 H262 0.929 . S
C290 C291 1.390 . S
C290 N293 1.391 . S
C291 H263 0.930 . S
C291 C290 1.390 . S
C291 C292 1.392 . S
C292 H264 0.929 . S
C292 C289 1.391 . S
C292 C291 1.392 . S
N293 Co237 2.257 . S
N293 C290 1.391 . S
N293 C294 1.388 . S
C294 H265 0.930 . S
C294 C289 1.391 . S
C294 N293 1.388 . S
Co295 O297 2.143 . S
Co295 O303 2.074 . S
Co295 O306 2.093 . S
Co295 O319 2.097 . S
Co295 N336 2.151 . S
Co295 N344 2.214 . S
Co296 O297 2.160 . S
Co296 O302 2.058 . S
Co296 O312 2.057 . S
Co296 O327 2.037 . S
Co296 N331 2.145 . S
Co296 N352 2.257 . S
O297 Co295 2.143 . S
O297 Co296 2.160 . S
C298 O299 1.278 . S
C298 O306 1.224 . S
O299 C298 1.278 . S
C300 O301 1.245 . S
C300 O312 1.232 . S
O301 C300 1.245 . S
O302 Co296 2.058 . S
O302 C328 1.269 . S
O303 Co295 2.074 . S
O303 C328 1.257 . S
H304 C329 0.930 . S
H305 C335 0.930 . S
O306 Co295 2.093 . S
O306 C298 1.224 . S
H307 C339 0.929 . S
H308 C341 0.930 . S
H309 C342 0.930 . S
H310 C340 0.929 . S
H311 C343 0.928 . S
O312 Co296 2.057 . S
O312 C300 1.232 . S
H313 C332 0.929 . S
H314 C333 0.929 . S
H315 C345 0.931 . S
H316 C337 0.929 . S
H317 C346 0.930 . S
H318 C338 0.931 . S
O319 Co295 2.097 . S
O319 C347 1.214 . S
H320 C348 0.929 . S
H321 C349 0.929 . S
H322 C350 0.930 . S
H323 C351 0.929 . S
H324 C353 0.930 . S
H325 C330 0.930 . S
H326 C334 0.930 . S
O327 Co296 2.037 . S
O327 C347 1.234 . S
C328 O302 1.269 . S
C328 O303 1.257 . S
C329 H304 0.930 . S
C329 C332 1.388 . S
C329 C334 1.418 . S
C330 H325 0.930 . S
C330 C333 1.404 . S
C330 C334 1.353 . S
N331 Co296 2.145 . S
N331 C332 1.397 . S
N331 C333 1.334 . S
C332 H313 0.929 . S
C332 C329 1.388 . S
C332 N331 1.397 . S
C333 H314 0.929 . S
C333 C330 1.404 . S
C333 N331 1.334 . S
C334 H326 0.930 . S
C334 C329 1.418 . S
C334 C330 1.353 . S
C335 H305 0.930 . S
C335 N336 1.330 . S
C335 C337 1.446 . S
N336 Co295 2.151 . S
N336 C335 1.330 . S
N336 C340 1.418 . S
C337 H316 0.929 . S
C337 C335 1.446 . S
C337 C338 1.332 . S
C338 H318 0.931 . S
C338 C337 1.332 . S
C338 C339 1.267 . S
C339 H307 0.929 . S
C339 C338 1.267 . S
C339 C340 1.251 . S
C340 H310 0.929 . S
C340 N336 1.418 . S
C340 C339 1.251 . S
C341 H308 0.930 . S
C341 C343 1.406 . S
C341 C346 1.261 . S
C342 H309 0.930 . S
C342 N344 1.325 . S
C342 C345 1.357 . S
C343 H311 0.928 . S
C343 C341 1.406 . S
C343 N344 1.261 . S
N344 Co295 2.214 . S
N344 C342 1.325 . S
N344 C343 1.261 . S
C345 H315 0.931 . S
C345 C342 1.357 . S
C345 C346 1.312 . S
C346 H317 0.930 . S
C346 C341 1.261 . S
C346 C345 1.312 . S
C347 O319 1.214 . S
C347 O327 1.234 . S
C348 H320 0.929 . S
C348 C351 1.391 . S
C348 C353 1.391 . S
C349 H321 0.929 . S
C349 C350 1.390 . S
C349 N352 1.391 . S
C350 H322 0.930 . S
C350 C349 1.390 . S
C350 C351 1.392 . S
C351 H323 0.929 . S
C351 C348 1.391 . S
C351 C350 1.392 . S
N352 Co296 2.257 . S
N352 C349 1.391 . S
N352 C353 1.388 . S
C353 H324 0.930 . S
C353 C348 1.391 . S
C353 N352 1.388 . S
Co354 O356 2.143 . S
Co354 O362 2.074 . S
Co354 O365 2.093 . S
Co354 O378 2.097 . S
Co354 N395 2.151 . S
Co354 N403 2.214 . S
Co355 O356 2.160 . S
Co355 O361 2.058 . S
Co355 O371 2.057 . S
Co355 O386 2.037 . S
Co355 N390 2.145 1_545 S
Co355 N411 2.257 . S
O356 Co354 2.143 . S
O356 Co355 2.160 . S
C357 O358 1.278 . S
C357 O365 1.224 . S
O358 C357 1.278 . S
C359 O360 1.245 . S
C359 O371 1.232 . S
O360 C359 1.245 . S
O361 Co355 2.058 . S
O361 C387 1.269 . S
O362 Co354 2.074 . S
O362 C387 1.257 . S
H363 C388 0.930 . S
H364 C394 0.930 . S
O365 Co354 2.093 . S
O365 C357 1.224 . S
H366 C398 0.929 . S
H367 C400 0.930 . S
H368 C401 0.930 . S
H369 C399 0.929 . S
H370 C402 0.928 . S
O371 Co355 2.057 . S
O371 C359 1.232 . S
H372 C391 0.929 . S
H373 C392 0.929 . S
H374 C404 0.931 . S
H375 C396 0.929 . S
H376 C405 0.930 . S
H377 C397 0.931 . S
O378 Co354 2.097 . S
O378 C406 1.214 . S
H379 C407 0.929 . S
H380 C408 0.929 . S
H381 C409 0.930 . S
H382 C410 0.929 . S
H383 C412 0.930 . S
H384 C389 0.930 . S
H385 C393 0.930 . S
O386 Co355 2.037 . S
O386 C406 1.234 . S
C387 O361 1.269 . S
C387 O362 1.257 . S
C388 H363 0.930 . S
C388 C391 1.388 . S
C388 C393 1.418 . S
C389 H384 0.930 . S
C389 C392 1.404 . S
C389 C393 1.353 . S
N390 Co355 2.145 1_565 S
N390 C391 1.397 . S
N390 C392 1.334 . S
C391 H372 0.929 . S
C391 C388 1.388 . S
C391 N390 1.397 . S
C392 H373 0.929 . S
C392 C389 1.404 . S
C392 N390 1.334 . S
C393 H385 0.930 . S
C393 C388 1.418 . S
C393 C389 1.353 . S
C394 H364 0.930 . S
C394 N395 1.330 . S
C394 C396 1.446 . S
N395 Co354 2.151 . S
N395 C394 1.330 . S
N395 C399 1.418 . S
C396 H375 0.929 . S
C396 C394 1.446 . S
C396 C397 1.332 . S
C397 H377 0.931 . S
C397 C396 1.332 . S
C397 C398 1.267 . S
C398 H366 0.929 . S
C398 C397 1.267 . S
C398 C399 1.251 . S
C399 H369 0.929 . S
C399 N395 1.418 . S
C399 C398 1.251 . S
C400 H367 0.930 . S
C400 C402 1.406 . S
C400 C405 1.261 . S
C401 H368 0.930 . S
C401 N403 1.325 . S
C401 C404 1.357 . S
C402 H370 0.928 . S
C402 C400 1.406 . S
C402 N403 1.261 . S
N403 Co354 2.214 . S
N403 C401 1.325 . S
N403 C402 1.261 . S
C404 H374 0.931 . S
C404 C401 1.357 . S
C404 C405 1.312 . S
C405 H376 0.930 . S
C405 C400 1.261 . S
C405 C404 1.312 . S
C406 O378 1.214 . S
C406 O386 1.234 . S
C407 H379 0.929 . S
C407 C410 1.391 . S
C407 C412 1.391 1_565 S
C408 H380 0.929 . S
C408 C409 1.390 . S
C408 N411 1.391 1_565 S
C409 H381 0.930 . S
C409 C408 1.390 . S
C409 C410 1.392 . S
C410 H382 0.929 . S
C410 C407 1.391 . S
C410 C409 1.392 . S
N411 Co355 2.257 . S
N411 C408 1.391 1_545 S
N411 C412 1.388 . S
C412 H383 0.930 . S
C412 C407 1.391 1_545 S
C412 N411 1.388 . S
Co413 O415 2.143 . S
Co413 O421 2.074 . S
Co413 O424 2.093 . S
Co413 O437 2.097 . S
Co413 N454 2.151 . S
Co413 N462 2.214 . S
Co414 O415 2.160 . S
Co414 O420 2.058 . S
Co414 O430 2.057 . S
Co414 O445 2.037 . S
Co414 N449 2.145 1_655 S
Co414 N470 2.257 . S
O415 Co413 2.143 . S
O415 Co414 2.160 . S
C416 O417 1.278 . S
C416 O424 1.224 . S
O417 C416 1.278 . S
C418 O419 1.245 . S
C418 O430 1.232 . S
O419 C418 1.245 . S
O420 Co414 2.058 . S
O420 C446 1.269 . S
O421 Co413 2.074 . S
O421 C446 1.257 . S
H422 C447 0.930 . S
H423 C453 0.930 . S
O424 Co413 2.093 . S
O424 C416 1.224 . S
H425 C457 0.929 . S
H426 C459 0.930 . S
H427 C460 0.930 . S
H428 C458 0.929 . S
H429 C461 0.928 . S
O430 Co414 2.057 . S
O430 C418 1.232 . S
H431 C450 0.929 . S
H432 C451 0.929 . S
H433 C463 0.931 . S
H434 C455 0.929 . S
H435 C464 0.930 . S
H436 C456 0.931 . S
O437 Co413 2.097 . S
O437 C465 1.214 . S
H438 C466 0.929 . S
H439 C467 0.929 . S
H440 C468 0.930 . S
H441 C469 0.929 . S
H442 C471 0.930 . S
H443 C448 0.930 . S
H444 C452 0.930 . S
O445 Co414 2.037 . S
O445 C465 1.234 . S
C446 O420 1.269 . S
C446 O421 1.257 . S
C447 H422 0.930 . S
C447 C450 1.388 . S
C447 C452 1.418 . S
C448 H443 0.930 . S
C448 C451 1.404 . S
C448 C452 1.353 . S
N449 Co414 2.145 1_455 S
N449 C450 1.397 . S
N449 C451 1.334 . S
C450 H431 0.929 . S
C450 C447 1.388 . S
C450 N449 1.397 . S
C451 H432 0.929 . S
C451 C448 1.404 . S
C451 N449 1.334 . S
C452 H444 0.930 . S
C452 C447 1.418 . S
C452 C448 1.353 . S
C453 H423 0.930 . S
C453 N454 1.330 . S
C453 C455 1.446 . S
N454 Co413 2.151 . S
N454 C453 1.330 . S
N454 C458 1.418 . S
C455 H434 0.929 . S
C455 C453 1.446 . S
C455 C456 1.332 . S
C456 H436 0.931 . S
C456 C455 1.332 . S
C456 C457 1.267 . S
C457 H425 0.929 . S
C457 C456 1.267 . S
C457 C458 1.251 . S
C458 H428 0.929 . S
C458 N454 1.418 . S
C458 C457 1.251 . S
C459 H426 0.930 . S
C459 C461 1.406 . S
C459 C464 1.261 . S
C460 H427 0.930 . S
C460 N462 1.325 . S
C460 C463 1.357 . S
C461 H429 0.928 . S
C461 C459 1.406 . S
C461 N462 1.261 . S
N462 Co413 2.214 . S
N462 C460 1.325 . S
N462 C461 1.261 . S
C463 H433 0.931 . S
C463 C460 1.357 . S
C463 C464 1.312 . S
C464 H435 0.930 . S
C464 C459 1.261 . S
C464 C463 1.312 . S
C465 O437 1.214 . S
C465 O445 1.234 . S
C466 H438 0.929 . S
C466 C469 1.391 . S
C466 C471 1.391 1_455 S
C467 H439 0.929 . S
C467 C468 1.390 . S
C467 N470 1.391 1_455 S
C468 H440 0.930 . S
C468 C467 1.390 . S
C468 C469 1.392 . S
C469 H441 0.929 . S
C469 C466 1.391 . S
C469 C468 1.392 . S
N470 Co414 2.257 . S
N470 C467 1.391 1_655 S
N470 C471 1.388 . S
C471 H442 0.930 . S
C471 C466 1.391 1_655 S
C471 N470 1.388 . S
Co472 O474 2.143 . S
Co472 O480 2.074 . S
Co472 O483 2.093 . S
Co472 O496 2.097 . S
Co472 N513 2.151 . S
Co472 N521 2.214 . S
Co473 O474 2.160 . S
Co473 O479 2.058 . S
Co473 O489 2.057 . S
Co473 O504 2.037 . S
Co473 N508 2.145 . S
Co473 N529 2.257 . S
O474 Co472 2.143 . S
O474 Co473 2.160 . S
C475 O476 1.278 . S
C475 O483 1.224 . S
O476 C475 1.278 . S
C477 O478 1.245 . S
C477 O489 1.232 . S
O478 C477 1.245 . S
O479 Co473 2.058 . S
O479 C505 1.269 . S
O480 Co472 2.074 . S
O480 C505 1.257 . S
H481 C506 0.930 . S
H482 C512 0.930 . S
O483 Co472 2.093 . S
O483 C475 1.224 . S
H484 C516 0.929 . S
H485 C518 0.930 . S
H486 C519 0.930 . S
H487 C517 0.929 . S
H488 C520 0.928 . S
O489 Co473 2.057 . S
O489 C477 1.232 . S
H490 C509 0.929 . S
H491 C510 0.929 . S
H492 C522 0.931 . S
H493 C514 0.929 . S
H494 C523 0.930 . S
H495 C515 0.931 . S
O496 Co472 2.097 . S
O496 C524 1.214 . S
H497 C525 0.929 . S
H498 C526 0.929 . S
H499 C527 0.930 . S
H500 C528 0.929 . S
H501 C530 0.930 . S
H502 C507 0.930 . S
H503 C511 0.930 . S
O504 Co473 2.037 . S
O504 C524 1.234 . S
C505 O479 1.269 . S
C505 O480 1.257 . S
C506 H481 0.930 . S
C506 C509 1.388 . S
C506 C511 1.418 . S
C507 H502 0.930 . S
C507 C510 1.404 . S
C507 C511 1.353 . S
N508 Co473 2.145 . S
N508 C509 1.397 . S
N508 C510 1.334 . S
C509 H490 0.929 . S
C509 C506 1.388 . S
C509 N508 1.397 . S
C510 H491 0.929 . S
C510 C507 1.404 . S
C510 N508 1.334 . S
C511 H503 0.930 . S
C511 C506 1.418 . S
C511 C507 1.353 . S
C512 H482 0.930 . S
C512 N513 1.330 . S
C512 C514 1.446 . S
N513 Co472 2.151 . S
N513 C512 1.330 . S
N513 C517 1.418 . S
C514 H493 0.929 . S
C514 C512 1.446 . S
C514 C515 1.332 . S
C515 H495 0.931 . S
C515 C514 1.332 . S
C515 C516 1.267 . S
C516 H484 0.929 . S
C516 C515 1.267 . S
C516 C517 1.251 . S
C517 H487 0.929 . S
C517 N513 1.418 . S
C517 C516 1.251 . S
C518 H485 0.930 . S
C518 C520 1.406 . S
C518 C523 1.261 . S
C519 H486 0.930 . S
C519 N521 1.325 . S
C519 C522 1.357 . S
C520 H488 0.928 . S
C520 C518 1.406 . S
C520 N521 1.261 . S
N521 Co472 2.214 . S
N521 C519 1.325 . S
N521 C520 1.261 . S
C522 H492 0.931 . S
C522 C519 1.357 . S
C522 C523 1.312 . S
C523 H494 0.930 . S
C523 C518 1.261 . S
C523 C522 1.312 . S
C524 O496 1.214 . S
C524 O504 1.234 . S
C525 H497 0.929 . S
C525 C528 1.391 . S
C525 C530 1.391 . S
C526 H498 0.929 . S
C526 C527 1.390 . S
C526 N529 1.391 . S
C527 H499 0.930 . S
C527 C526 1.390 . S
C527 C528 1.392 . S
C528 H500 0.929 . S
C528 C525 1.391 . S
C528 C527 1.392 . S
N529 Co473 2.257 . S
N529 C526 1.391 . S
N529 C530 1.388 . S
C530 H501 0.930 . S
C530 C525 1.391 . S
C530 N529 1.388 . S
Co531 O533 2.143 . S
Co531 O539 2.074 . S
Co531 O542 2.093 . S
Co531 O555 2.097 . S
Co531 N572 2.151 . S
Co531 N580 2.214 . S
Co532 O533 2.160 . S
Co532 O538 2.058 . S
Co532 O548 2.057 . S
Co532 O563 2.037 . S
Co532 N567 2.145 . S
Co532 N588 2.257 . S
O533 Co531 2.143 . S
O533 Co532 2.160 . S
C534 O535 1.278 . S
C534 O542 1.224 . S
O535 C534 1.278 . S
C536 O537 1.245 . S
C536 O548 1.232 . S
O537 C536 1.245 . S
O538 Co532 2.058 . S
O538 C564 1.269 . S
O539 Co531 2.074 . S
O539 C564 1.257 . S
H540 C565 0.930 . S
H541 C571 0.930 . S
O542 Co531 2.093 . S
O542 C534 1.224 . S
H543 C575 0.929 . S
H544 C577 0.930 . S
H545 C578 0.930 . S
H546 C576 0.929 . S
H547 C579 0.928 . S
O548 Co532 2.057 . S
O548 C536 1.232 . S
H549 C568 0.929 . S
H550 C569 0.929 . S
H551 C581 0.931 . S
H552 C573 0.929 . S
H553 C582 0.930 . S
H554 C574 0.931 . S
O555 Co531 2.097 . S
O555 C583 1.214 . S
H556 C584 0.929 . S
H557 C585 0.929 . S
H558 C586 0.930 . S
H559 C587 0.929 . S
H560 C589 0.930 . S
H561 C566 0.930 . S
H562 C570 0.930 . S
O563 Co532 2.037 . S
O563 C583 1.234 . S
C564 O538 1.269 . S
C564 O539 1.257 . S
C565 H540 0.930 . S
C565 C568 1.388 . S
C565 C570 1.418 . S
C566 H561 0.930 . S
C566 C569 1.404 . S
C566 C570 1.353 . S
N567 Co532 2.145 . S
N567 C568 1.397 . S
N567 C569 1.334 . S
C568 H549 0.929 . S
C568 C565 1.388 . S
C568 N567 1.397 . S
C569 H550 0.929 . S
C569 C566 1.404 . S
C569 N567 1.334 . S
C570 H562 0.930 . S
C570 C565 1.418 . S
C570 C566 1.353 . S
C571 H541 0.930 . S
C571 N572 1.330 . S
C571 C573 1.446 . S
N572 Co531 2.151 . S
N572 C571 1.330 . S
N572 C576 1.418 . S
C573 H552 0.929 . S
C573 C571 1.446 . S
C573 C574 1.332 . S
C574 H554 0.931 . S
C574 C573 1.332 . S
C574 C575 1.267 . S
C575 H543 0.929 . S
C575 C574 1.267 . S
C575 C576 1.251 . S
C576 H546 0.929 . S
C576 N572 1.418 . S
C576 C575 1.251 . S
C577 H544 0.930 . S
C577 C579 1.406 . S
C577 C582 1.261 . S
C578 H545 0.930 . S
C578 N580 1.325 . S
C578 C581 1.357 . S
C579 H547 0.928 . S
C579 C577 1.406 . S
C579 N580 1.261 . S
N580 Co531 2.214 . S
N580 C578 1.325 . S
N580 C579 1.261 . S
C581 H551 0.931 . S
C581 C578 1.357 . S
C581 C582 1.312 . S
C582 H553 0.930 . S
C582 C577 1.261 . S
C582 C581 1.312 . S
C583 O555 1.214 . S
C583 O563 1.234 . S
C584 H556 0.929 . S
C584 C587 1.391 . S
C584 C589 1.391 . S
C585 H557 0.929 . S
C585 C586 1.390 . S
C585 N588 1.391 . S
C586 H558 0.930 . S
C586 C585 1.390 . S
C586 C587 1.392 . S
C587 H559 0.929 . S
C587 C584 1.391 . S
C587 C586 1.392 . S
N588 Co532 2.257 . S
N588 C585 1.391 . S
N588 C589 1.388 . S
C589 H560 0.930 . S
C589 C584 1.391 . S
C589 N588 1.388 . S
Co590 O592 2.143 . S
Co590 O598 2.074 . S
Co590 O601 2.093 . S
Co590 O614 2.097 . S
Co590 N631 2.151 . S
Co590 N639 2.214 . S
Co591 O592 2.160 . S
Co591 O597 2.058 . S
Co591 O607 2.057 . S
Co591 O622 2.037 . S
Co591 N626 2.145 1_565 S
Co591 N647 2.257 . S
O592 Co590 2.143 . S
O592 Co591 2.160 . S
C593 O594 1.278 . S
C593 O601 1.224 . S
O594 C593 1.278 . S
C595 O596 1.245 . S
C595 O607 1.232 . S
O596 C595 1.245 . S
O597 Co591 2.058 . S
O597 C623 1.269 . S
O598 Co590 2.074 . S
O598 C623 1.257 . S
H599 C624 0.930 . S
H600 C630 0.930 . S
O601 Co590 2.093 . S
O601 C593 1.224 . S
H602 C634 0.929 . S
H603 C636 0.930 . S
H604 C637 0.930 . S
H605 C635 0.929 . S
H606 C638 0.928 . S
O607 Co591 2.057 . S
O607 C595 1.232 . S
H608 C627 0.929 . S
H609 C628 0.929 . S
H610 C640 0.931 . S
H611 C632 0.929 . S
H612 C641 0.930 . S
H613 C633 0.931 . S
O614 Co590 2.097 . S
O614 C642 1.214 . S
H615 C643 0.929 . S
H616 C644 0.929 . S
H617 C645 0.930 . S
H618 C646 0.929 . S
H619 C648 0.930 . S
H620 C625 0.930 . S
H621 C629 0.930 . S
O622 Co591 2.037 . S
O622 C642 1.234 . S
C623 O597 1.269 . S
C623 O598 1.257 . S
C624 H599 0.930 . S
C624 C627 1.388 . S
C624 C629 1.418 . S
C625 H620 0.930 . S
C625 C628 1.404 . S
C625 C629 1.353 . S
N626 Co591 2.145 1_545 S
N626 C627 1.397 . S
N626 C628 1.334 . S
C627 H608 0.929 . S
C627 C624 1.388 . S
C627 N626 1.397 . S
C628 H609 0.929 . S
C628 C625 1.404 . S
C628 N626 1.334 . S
C629 H621 0.930 . S
C629 C624 1.418 . S
C629 C625 1.353 . S
C630 H600 0.930 . S
C630 N631 1.330 . S
C630 C632 1.446 . S
N631 Co590 2.151 . S
N631 C630 1.330 . S
N631 C635 1.418 . S
C632 H611 0.929 . S
C632 C630 1.446 . S
C632 C633 1.332 . S
C633 H613 0.931 . S
C633 C632 1.332 . S
C633 C634 1.267 . S
C634 H602 0.929 . S
C634 C633 1.267 . S
C634 C635 1.251 . S
C635 H605 0.929 . S
C635 N631 1.418 . S
C635 C634 1.251 . S
C636 H603 0.930 . S
C636 C638 1.406 . S
C636 C641 1.261 . S
C637 H604 0.930 . S
C637 N639 1.325 . S
C637 C640 1.357 . S
C638 H606 0.928 . S
C638 C636 1.406 . S
C638 N639 1.261 . S
N639 Co590 2.214 . S
N639 C637 1.325 . S
N639 C638 1.261 . S
C640 H610 0.931 . S
C640 C637 1.357 . S
C640 C641 1.312 . S
C641 H612 0.930 . S
C641 C636 1.261 . S
C641 C640 1.312 . S
C642 O614 1.214 . S
C642 O622 1.234 . S
C643 H615 0.929 . S
C643 C646 1.391 . S
C643 C648 1.391 1_545 S
C644 H616 0.929 . S
C644 C645 1.390 . S
C644 N647 1.391 1_545 S
C645 H617 0.930 . S
C645 C644 1.390 . S
C645 C646 1.392 . S
C646 H618 0.929 . S
C646 C643 1.391 . S
C646 C645 1.392 . S
N647 Co591 2.257 . S
N647 C644 1.391 1_565 S
N647 C648 1.388 . S
C648 H619 0.930 . S
C648 C643 1.391 1_565 S
C648 N647 1.388 . S
Co649 O651 2.143 . S
Co649 O657 2.074 . S
Co649 O660 2.093 . S
Co649 O673 2.097 . S
Co649 N690 2.151 . S
Co649 N698 2.214 . S
Co650 O651 2.160 . S
Co650 O656 2.058 . S
Co650 O666 2.057 . S
Co650 O681 2.037 . S
Co650 N685 2.145 1_455 S
Co650 N706 2.257 . S
O651 Co649 2.143 . S
O651 Co650 2.160 . S
C652 O653 1.278 . S
C652 O660 1.224 . S
O653 C652 1.278 . S
C654 O655 1.245 . S
C654 O666 1.232 . S
O655 C654 1.245 . S
O656 Co650 2.058 . S
O656 C682 1.269 . S
O657 Co649 2.074 . S
O657 C682 1.257 . S
H658 C683 0.930 . S
H659 C689 0.930 . S
O660 Co649 2.093 . S
O660 C652 1.224 . S
H661 C693 0.929 . S
H662 C695 0.930 . S
H663 C696 0.930 . S
H664 C694 0.929 . S
H665 C697 0.928 . S
O666 Co650 2.057 . S
O666 C654 1.232 . S
H667 C686 0.929 . S
H668 C687 0.929 . S
H669 C699 0.931 . S
H670 C691 0.929 . S
H671 C700 0.930 . S
H672 C692 0.931 . S
O673 Co649 2.097 . S
O673 C701 1.214 . S
H674 C702 0.929 . S
H675 C703 0.929 . S
H676 C704 0.930 . S
H677 C705 0.929 . S
H678 C707 0.930 . S
H679 C684 0.930 . S
H680 C688 0.930 . S
O681 Co650 2.037 . S
O681 C701 1.234 . S
C682 O656 1.269 . S
C682 O657 1.257 . S
C683 H658 0.930 . S
C683 C686 1.388 . S
C683 C688 1.418 . S
C684 H679 0.930 . S
C684 C687 1.404 . S
C684 C688 1.353 . S
N685 Co650 2.145 1_655 S
N685 C686 1.397 . S
N685 C687 1.334 . S
C686 H667 0.929 . S
C686 C683 1.388 . S
C686 N685 1.397 . S
C687 H668 0.929 . S
C687 C684 1.404 . S
C687 N685 1.334 . S
C688 H680 0.930 . S
C688 C683 1.418 . S
C688 C684 1.353 . S
C689 H659 0.930 . S
C689 N690 1.330 . S
C689 C691 1.446 . S
N690 Co649 2.151 . S
N690 C689 1.330 . S
N690 C694 1.418 . S
C691 H670 0.929 . S
C691 C689 1.446 . S
C691 C692 1.332 . S
C692 H672 0.931 . S
C692 C691 1.332 . S
C692 C693 1.267 . S
C693 H661 0.929 . S
C693 C692 1.267 . S
C693 C694 1.251 . S
C694 H664 0.929 . S
C694 N690 1.418 . S
C694 C693 1.251 . S
C695 H662 0.930 . S
C695 C697 1.406 . S
C695 C700 1.261 . S
C696 H663 0.930 . S
C696 N698 1.325 . S
C696 C699 1.357 . S
C697 H665 0.928 . S
C697 C695 1.406 . S
C697 N698 1.261 . S
N698 Co649 2.214 . S
N698 C696 1.325 . S
N698 C697 1.261 . S
C699 H669 0.931 . S
C699 C696 1.357 . S
C699 C700 1.312 . S
C700 H671 0.930 . S
C700 C695 1.261 . S
C700 C699 1.312 . S
C701 O673 1.214 . S
C701 O681 1.234 . S
C702 H674 0.929 . S
C702 C705 1.391 . S
C702 C707 1.391 1_655 S
C703 H675 0.929 . S
C703 C704 1.390 . S
C703 N706 1.391 1_655 S
C704 H676 0.930 . S
C704 C703 1.390 . S
C704 C705 1.392 . S
C705 H677 0.929 . S
C705 C702 1.391 . S
C705 C704 1.392 . S
N706 Co650 2.257 . S
N706 C703 1.391 1_455 S
N706 C707 1.388 . S
C707 H678 0.930 . S
C707 C702 1.391 1_455 S
C707 N706 1.388 . S
Co708 O710 2.143 . S
Co708 O716 2.074 . S
Co708 O719 2.093 . S
Co708 O732 2.097 . S
Co708 N749 2.151 . S
Co708 N757 2.214 . S
Co709 O710 2.160 . S
Co709 O715 2.058 . S
Co709 O725 2.057 . S
Co709 O740 2.037 . S
Co709 N744 2.145 1_565 S
Co709 N765 2.257 . S
O710 Co708 2.143 . S
O710 Co709 2.160 . S
C711 O712 1.278 . S
C711 O719 1.224 . S
O712 C711 1.278 . S
C713 O714 1.245 . S
C713 O725 1.232 . S
O714 C713 1.245 . S
O715 Co709 2.058 . S
O715 C741 1.269 . S
O716 Co708 2.074 . S
O716 C741 1.257 . S
H717 C742 0.930 . S
H718 C748 0.930 . S
O719 Co708 2.093 . S
O719 C711 1.224 . S
H720 C752 0.929 . S
H721 C754 0.930 . S
H722 C755 0.930 . S
H723 C753 0.929 . S
H724 C756 0.928 . S
O725 Co709 2.057 . S
O725 C713 1.232 . S
H726 C745 0.929 . S
H727 C746 0.929 . S
H728 C758 0.931 . S
H729 C750 0.929 . S
H730 C759 0.930 . S
H731 C751 0.931 . S
O732 Co708 2.097 . S
O732 C760 1.214 . S
H733 C761 0.929 . S
H734 C762 0.929 . S
H735 C763 0.930 . S
H736 C764 0.929 . S
H737 C766 0.930 . S
H738 C743 0.930 . S
H739 C747 0.930 . S
O740 Co709 2.037 . S
O740 C760 1.234 . S
C741 O715 1.269 . S
C741 O716 1.257 . S
C742 H717 0.930 . S
C742 C745 1.388 . S
C742 C747 1.418 . S
C743 H738 0.930 . S
C743 C746 1.404 . S
C743 C747 1.353 . S
N744 Co709 2.145 1_545 S
N744 C745 1.397 . S
N744 C746 1.334 . S
C745 H726 0.929 . S
C745 C742 1.388 . S
C745 N744 1.397 . S
C746 H727 0.929 . S
C746 C743 1.404 . S
C746 N744 1.334 . S
C747 H739 0.930 . S
C747 C742 1.418 . S
C747 C743 1.353 . S
C748 H718 0.930 . S
C748 N749 1.330 . S
C748 C750 1.446 . S
N749 Co708 2.151 . S
N749 C748 1.330 . S
N749 C753 1.418 . S
C750 H729 0.929 . S
C750 C748 1.446 . S
C750 C751 1.332 . S
C751 H731 0.931 . S
C751 C750 1.332 . S
C751 C752 1.267 . S
C752 H720 0.929 . S
C752 C751 1.267 . S
C752 C753 1.251 . S
C753 H723 0.929 . S
C753 N749 1.418 . S
C753 C752 1.251 . S
C754 H721 0.930 . S
C754 C756 1.406 . S
C754 C759 1.261 . S
C755 H722 0.930 . S
C755 N757 1.325 . S
C755 C758 1.357 . S
C756 H724 0.928 . S
C756 C754 1.406 . S
C756 N757 1.261 . S
N757 Co708 2.214 . S
N757 C755 1.325 . S
N757 C756 1.261 . S
C758 H728 0.931 . S
C758 C755 1.357 . S
C758 C759 1.312 . S
C759 H730 0.930 . S
C759 C754 1.261 . S
C759 C758 1.312 . S
C760 O732 1.214 . S
C760 O740 1.234 . S
C761 H733 0.929 . S
C761 C764 1.391 . S
C761 C766 1.391 1_545 S
C762 H734 0.929 . S
C762 C763 1.390 . S
C762 N765 1.391 1_545 S
C763 H735 0.930 . S
C763 C762 1.390 . S
C763 C764 1.392 . S
C764 H736 0.929 . S
C764 C761 1.391 . S
C764 C763 1.392 . S
N765 Co709 2.257 . S
N765 C762 1.391 1_565 S
N765 C766 1.388 . S
C766 H737 0.930 . S
C766 C761 1.391 1_565 S
C766 N765 1.388 . S
Co767 O769 2.143 . S
Co767 O775 2.074 . S
Co767 O778 2.093 . S
Co767 O791 2.097 . S
Co767 N808 2.151 . S
Co767 N816 2.214 . S
Co768 O769 2.160 . S
Co768 O774 2.058 . S
Co768 O784 2.057 . S
Co768 O799 2.037 . S
Co768 N803 2.145 1_455 S
Co768 N824 2.257 . S
O769 Co767 2.143 . S
O769 Co768 2.160 . S
C770 O771 1.278 . S
C770 O778 1.224 . S
O771 C770 1.278 . S
C772 O773 1.245 . S
C772 O784 1.232 . S
O773 C772 1.245 . S
O774 Co768 2.058 . S
O774 C800 1.269 . S
O775 Co767 2.074 . S
O775 C800 1.257 . S
H776 C801 0.930 . S
H777 C807 0.930 . S
O778 Co767 2.093 . S
O778 C770 1.224 . S
H779 C811 0.929 . S
H780 C813 0.930 . S
H781 C814 0.930 . S
H782 C812 0.929 . S
H783 C815 0.928 . S
O784 Co768 2.057 . S
O784 C772 1.232 . S
H785 C804 0.929 . S
H786 C805 0.929 . S
H787 C817 0.931 . S
H788 C809 0.929 . S
H789 C818 0.930 . S
H790 C810 0.931 . S
O791 Co767 2.097 . S
O791 C819 1.214 . S
H792 C820 0.929 . S
H793 C821 0.929 . S
H794 C822 0.930 . S
H795 C823 0.929 . S
H796 C825 0.930 . S
H797 C802 0.930 . S
H798 C806 0.930 . S
O799 Co768 2.037 . S
O799 C819 1.234 . S
C800 O774 1.269 . S
C800 O775 1.257 . S
C801 H776 0.930 . S
C801 C804 1.388 . S
C801 C806 1.418 . S
C802 H797 0.930 . S
C802 C805 1.404 . S
C802 C806 1.353 . S
N803 Co768 2.145 1_655 S
N803 C804 1.397 . S
N803 C805 1.334 . S
C804 H785 0.929 . S
C804 C801 1.388 . S
C804 N803 1.397 . S
C805 H786 0.929 . S
C805 C802 1.404 . S
C805 N803 1.334 . S
C806 H798 0.930 . S
C806 C801 1.418 . S
C806 C802 1.353 . S
C807 H777 0.930 . S
C807 N808 1.330 . S
C807 C809 1.446 . S
N808 Co767 2.151 . S
N808 C807 1.330 . S
N808 C812 1.418 . S
C809 H788 0.929 . S
C809 C807 1.446 . S
C809 C810 1.332 . S
C810 H790 0.931 . S
C810 C809 1.332 . S
C810 C811 1.267 . S
C811 H779 0.929 . S
C811 C810 1.267 . S
C811 C812 1.251 . S
C812 H782 0.929 . S
C812 N808 1.418 . S
C812 C811 1.251 . S
C813 H780 0.930 . S
C813 C815 1.406 . S
C813 C818 1.261 . S
C814 H781 0.930 . S
C814 N816 1.325 . S
C814 C817 1.357 . S
C815 H783 0.928 . S
C815 C813 1.406 . S
C815 N816 1.261 . S
N816 Co767 2.214 . S
N816 C814 1.325 . S
N816 C815 1.261 . S
C817 H787 0.931 . S
C817 C814 1.357 . S
C817 C818 1.312 . S
C818 H789 0.930 . S
C818 C813 1.261 . S
C818 C817 1.312 . S
C819 O791 1.214 . S
C819 O799 1.234 . S
C820 H792 0.929 . S
C820 C823 1.391 . S
C820 C825 1.391 1_655 S
C821 H793 0.929 . S
C821 C822 1.390 . S
C821 N824 1.391 1_655 S
C822 H794 0.930 . S
C822 C821 1.390 . S
C822 C823 1.392 . S
C823 H795 0.929 . S
C823 C820 1.391 . S
C823 C822 1.392 . S
N824 Co768 2.257 . S
N824 C821 1.391 1_455 S
N824 C825 1.388 . S
C825 H796 0.930 . S
C825 C820 1.391 1_455 S
C825 N824 1.388 . S
Co826 O828 2.143 . S
Co826 O834 2.074 . S
Co826 O837 2.093 . S
Co826 O850 2.097 . S
Co826 N867 2.151 . S
Co826 N875 2.214 . S
Co827 O828 2.160 . S
Co827 O833 2.058 . S
Co827 O843 2.057 . S
Co827 O858 2.037 . S
Co827 N862 2.145 . S
Co827 N883 2.257 . S
O828 Co826 2.143 . S
O828 Co827 2.160 . S
C829 O830 1.278 . S
C829 O837 1.224 . S
O830 C829 1.278 . S
C831 O832 1.245 . S
C831 O843 1.232 . S
O832 C831 1.245 . S
O833 Co827 2.058 . S
O833 C859 1.269 . S
O834 Co826 2.074 . S
O834 C859 1.257 . S
H835 C860 0.930 . S
H836 C866 0.930 . S
O837 Co826 2.093 . S
O837 C829 1.224 . S
H838 C870 0.929 . S
H839 C872 0.930 . S
H840 C873 0.930 . S
H841 C871 0.929 . S
H842 C874 0.928 . S
O843 Co827 2.057 . S
O843 C831 1.232 . S
H844 C863 0.929 . S
H845 C864 0.929 . S
H846 C876 0.931 . S
H847 C868 0.929 . S
H848 C877 0.930 . S
H849 C869 0.931 . S
O850 Co826 2.097 . S
O850 C878 1.214 . S
H851 C879 0.929 . S
H852 C880 0.929 . S
H853 C881 0.930 . S
H854 C882 0.929 . S
H855 C884 0.930 . S
H856 C861 0.930 . S
H857 C865 0.930 . S
O858 Co827 2.037 . S
O858 C878 1.234 . S
C859 O833 1.269 . S
C859 O834 1.257 . S
C860 H835 0.930 . S
C860 C863 1.388 . S
C860 C865 1.418 . S
C861 H856 0.930 . S
C861 C864 1.404 . S
C861 C865 1.353 . S
N862 Co827 2.145 . S
N862 C863 1.397 . S
N862 C864 1.334 . S
C863 H844 0.929 . S
C863 C860 1.388 . S
C863 N862 1.397 . S
C864 H845 0.929 . S
C864 C861 1.404 . S
C864 N862 1.334 . S
C865 H857 0.930 . S
C865 C860 1.418 . S
C865 C861 1.353 . S
C866 H836 0.930 . S
C866 N867 1.330 . S
C866 C868 1.446 . S
N867 Co826 2.151 . S
N867 C866 1.330 . S
N867 C871 1.418 . S
C868 H847 0.929 . S
C868 C866 1.446 . S
C868 C869 1.332 . S
C869 H849 0.931 . S
C869 C868 1.332 . S
C869 C870 1.267 . S
C870 H838 0.929 . S
C870 C869 1.267 . S
C870 C871 1.251 . S
C871 H841 0.929 . S
C871 N867 1.418 . S
C871 C870 1.251 . S
C872 H839 0.930 . S
C872 C874 1.406 . S
C872 C877 1.261 . S
C873 H840 0.930 . S
C873 N875 1.325 . S
C873 C876 1.357 . S
C874 H842 0.928 . S
C874 C872 1.406 . S
C874 N875 1.261 . S
N875 Co826 2.214 . S
N875 C873 1.325 . S
N875 C874 1.261 . S
C876 H846 0.931 . S
C876 C873 1.357 . S
C876 C877 1.312 . S
C877 H848 0.930 . S
C877 C872 1.261 . S
C877 C876 1.312 . S
C878 O850 1.214 . S
C878 O858 1.234 . S
C879 H851 0.929 . S
C879 C882 1.391 . S
C879 C884 1.391 . S
C880 H852 0.929 . S
C880 C881 1.390 . S
C880 N883 1.391 . S
C881 H853 0.930 . S
C881 C880 1.390 . S
C881 C882 1.392 . S
C882 H854 0.929 . S
C882 C879 1.391 . S
C882 C881 1.392 . S
N883 Co827 2.257 . S
N883 C880 1.391 . S
N883 C884 1.388 . S
C884 H855 0.930 . S
C884 C879 1.391 . S
C884 N883 1.388 . S
Co885 O887 2.143 . S
Co885 O893 2.074 . S
Co885 O896 2.093 . S
Co885 O909 2.097 . S
Co885 N926 2.151 . S
Co885 N934 2.214 . S
Co886 O887 2.160 . S
Co886 O892 2.058 . S
Co886 O902 2.057 . S
Co886 O917 2.037 . S
Co886 N921 2.145 . S
Co886 N942 2.257 . S
O887 Co885 2.143 . S
O887 Co886 2.160 . S
C888 O889 1.278 . S
C888 O896 1.224 . S
O889 C888 1.278 . S
C890 O891 1.245 . S
C890 O902 1.232 . S
O891 C890 1.245 . S
O892 Co886 2.058 . S
O892 C918 1.269 . S
O893 Co885 2.074 . S
O893 C918 1.257 . S
H894 C919 0.930 . S
H895 C925 0.930 . S
O896 Co885 2.093 . S
O896 C888 1.224 . S
H897 C929 0.929 . S
H898 C931 0.930 . S
H899 C932 0.930 . S
H900 C930 0.929 . S
H901 C933 0.928 . S
O902 Co886 2.057 . S
O902 C890 1.232 . S
H903 C922 0.929 . S
H904 C923 0.929 . S
H905 C935 0.931 . S
H906 C927 0.929 . S
H907 C936 0.930 . S
H908 C928 0.931 . S
O909 Co885 2.097 . S
O909 C937 1.214 . S
H910 C938 0.929 . S
H911 C939 0.929 . S
H912 C940 0.930 . S
H913 C941 0.929 . S
H914 C943 0.930 . S
H915 C920 0.930 . S
H916 C924 0.930 . S
O917 Co886 2.037 . S
O917 C937 1.234 . S
C918 O892 1.269 . S
C918 O893 1.257 . S
C919 H894 0.930 . S
C919 C922 1.388 . S
C919 C924 1.418 . S
C920 H915 0.930 . S
C920 C923 1.404 . S
C920 C924 1.353 . S
N921 Co886 2.145 . S
N921 C922 1.397 . S
N921 C923 1.334 . S
C922 H903 0.929 . S
C922 C919 1.388 . S
C922 N921 1.397 . S
C923 H904 0.929 . S
C923 C920 1.404 . S
C923 N921 1.334 . S
C924 H916 0.930 . S
C924 C919 1.418 . S
C924 C920 1.353 . S
C925 H895 0.930 . S
C925 N926 1.330 . S
C925 C927 1.446 . S
N926 Co885 2.151 . S
N926 C925 1.330 . S
N926 C930 1.418 . S
C927 H906 0.929 . S
C927 C925 1.446 . S
C927 C928 1.332 . S
C928 H908 0.931 . S
C928 C927 1.332 . S
C928 C929 1.267 . S
C929 H897 0.929 . S
C929 C928 1.267 . S
C929 C930 1.251 . S
C930 H900 0.929 . S
C930 N926 1.418 . S
C930 C929 1.251 . S
C931 H898 0.930 . S
C931 C933 1.406 . S
C931 C936 1.261 . S
C932 H899 0.930 . S
C932 N934 1.325 . S
C932 C935 1.357 . S
C933 H901 0.928 . S
C933 C931 1.406 . S
C933 N934 1.261 . S
N934 Co885 2.214 . S
N934 C932 1.325 . S
N934 C933 1.261 . S
C935 H905 0.931 . S
C935 C932 1.357 . S
C935 C936 1.312 . S
C936 H907 0.930 . S
C936 C931 1.261 . S
C936 C935 1.312 . S
C937 O909 1.214 . S
C937 O917 1.234 . S
C938 H910 0.929 . S
C938 C941 1.391 . S
C938 C943 1.391 . S
C939 H911 0.929 . S
C939 C940 1.390 . S
C939 N942 1.391 . S
C940 H912 0.930 . S
C940 C939 1.390 . S
C940 C941 1.392 . S
C941 H913 0.929 . S
C941 C938 1.391 . S
C941 C940 1.392 . S
N942 Co886 2.257 . S
N942 C939 1.391 . S
N942 C943 1.388 . S
C943 H914 0.930 . S
C943 C938 1.391 . S
C943 N942 1.388 . S
H944 C950 0.930 . S
H945 C953 0.930 . S
H946 C954 0.930 . S
H947 C955 0.930 . S
H948 C958 0.930 . S
H949 C959 0.930 . S
C950 H944 0.930 . S
C950 C951 1.355 . S
C950 C952 1.415 . S
C951 C950 1.355 . S
C951 C953 1.419 . S
C952 C950 1.415 . S
C952 C957 1.425 . S
C952 C959 1.409 . S
C953 H945 0.930 . S
C953 C951 1.419 . S
C953 C954 1.362 . S
C954 H946 0.930 . S
C954 C953 1.362 . S
C954 C957 1.409 . S
C955 H947 0.930 . S
C955 C956 1.355 . S
C955 C957 1.415 . S
C956 C955 1.355 . S
C956 C958 1.419 . S
C957 C952 1.425 . S
C957 C954 1.409 . S
C957 C955 1.415 . S
C958 H948 0.930 . S
C958 C956 1.419 . S
C958 C959 1.362 . S
C959 H949 0.930 . S
C959 C952 1.409 . S
C959 C958 1.362 . S
H960 C966 0.930 . S
H961 C969 0.930 . S
H962 C970 0.930 . S
H963 C971 0.930 . S
H964 C974 0.930 . S
H965 C975 0.930 . S
C966 H960 0.930 . S
C966 C967 1.355 . S
C966 C968 1.415 . S
C967 C966 1.355 . S
C967 C969 1.419 . S
C968 C966 1.415 . S
C968 C973 1.425 . S
C968 C975 1.409 . S
C969 H961 0.930 . S
C969 C967 1.419 . S
C969 C970 1.362 . S
C970 H962 0.930 . S
C970 C969 1.362 . S
C970 C973 1.409 . S
C971 H963 0.930 . S
C971 C972 1.355 . S
C971 C973 1.415 . S
C972 C971 1.355 . S
C972 C974 1.419 . S
C973 C968 1.425 . S
C973 C970 1.409 . S
C973 C971 1.415 . S
C974 H964 0.930 . S
C974 C972 1.419 . S
C974 C975 1.362 . S
C975 H965 0.930 . S
C975 C968 1.409 . S
C975 C974 1.362 . S
H976 C982 0.930 . S
H977 C985 0.930 . S
H978 C986 0.930 . S
H979 C987 0.930 . S
H980 C990 0.930 . S
H981 C991 0.930 . S
C982 H976 0.930 . S
C982 C983 1.355 . S
C982 C984 1.415 . S
C983 C982 1.355 . S
C983 C985 1.419 . S
C984 C982 1.415 . S
C984 C989 1.425 . S
C984 C991 1.409 . S
C985 H977 0.930 . S
C985 C983 1.419 . S
C985 C986 1.362 . S
C986 H978 0.930 . S
C986 C985 1.362 . S
C986 C989 1.409 . S
C987 H979 0.930 . S
C987 C988 1.355 . S
C987 C989 1.415 . S
C988 C987 1.355 . S
C988 C990 1.419 . S
C989 C984 1.425 . S
C989 C986 1.409 . S
C989 C987 1.415 . S
C990 H980 0.930 . S
C990 C988 1.419 . S
C990 C991 1.362 . S
C991 H981 0.930 . S
C991 C984 1.409 . S
C991 C990 1.362 . S
H992 C998 0.930 . S
H993 C1001 0.930 . S
H994 C1002 0.930 . S
H995 C1003 0.930 . S
H996 C1006 0.930 . S
H997 C1007 0.930 . S
C998 H992 0.930 . S
C998 C999 1.355 . S
C998 C1000 1.415 . S
C999 C998 1.355 . S
C999 C1001 1.419 . S
C1000 C998 1.415 . S
C1000 C1005 1.425 . S
C1000 C1007 1.409 . S
C1001 H993 0.930 . S
C1001 C999 1.419 . S
C1001 C1002 1.362 . S
C1002 H994 0.930 . S
C1002 C1001 1.362 . S
C1002 C1005 1.409 . S
C1003 H995 0.930 . S
C1003 C1004 1.355 . S
C1003 C1005 1.415 . S
C1004 C1003 1.355 . S
C1004 C1006 1.419 . S
C1005 C1000 1.425 . S
C1005 C1002 1.409 . S
C1005 C1003 1.415 . S
C1006 H996 0.930 . S
C1006 C1004 1.419 . S
C1006 C1007 1.362 . S
C1007 H997 0.930 . S
C1007 C1000 1.409 . S
C1007 C1006 1.362 . S
H1008 C1014 0.930 . S
H1009 C1017 0.930 . S
H1010 C1018 0.930 . S
H1011 C1019 0.930 . S
H1012 C1022 0.930 . S
H1013 C1023 0.930 . S
C1014 H1008 0.930 . S
C1014 C1015 1.355 . S
C1014 C1016 1.415 . S
C1015 C1014 1.355 . S
C1015 C1017 1.419 . S
C1016 C1014 1.415 . S
C1016 C1021 1.425 . S
C1016 C1023 1.409 . S
C1017 H1009 0.930 . S
C1017 C1015 1.419 . S
C1017 C1018 1.362 . S
C1018 H1010 0.930 . S
C1018 C1017 1.362 . S
C1018 C1021 1.409 . S
C1019 H1011 0.930 . S
C1019 C1020 1.355 . S
C1019 C1021 1.415 . S
C1020 C1019 1.355 . S
C1020 C1022 1.419 . S
C1021 C1016 1.425 . S
C1021 C1018 1.409 . S
C1021 C1019 1.415 . S
C1022 H1012 0.930 . S
C1022 C1020 1.419 . S
C1022 C1023 1.362 . S
C1023 H1013 0.930 . S
C1023 C1016 1.409 . S
C1023 C1022 1.362 . S
H1024 C1030 0.930 . S
H1025 C1033 0.930 . S
H1026 C1034 0.930 . S
H1027 C1035 0.930 . S
H1028 C1038 0.930 . S
H1029 C1039 0.930 . S
C1030 H1024 0.930 . S
C1030 C1031 1.355 . S
C1030 C1032 1.415 . S
C1031 C1030 1.355 . S
C1031 C1033 1.419 . S
C1032 C1030 1.415 . S
C1032 C1037 1.425 . S
C1032 C1039 1.409 . S
C1033 H1025 0.930 . S
C1033 C1031 1.419 . S
C1033 C1034 1.362 . S
C1034 H1026 0.930 . S
C1034 C1033 1.362 . S
C1034 C1037 1.409 . S
C1035 H1027 0.930 . S
C1035 C1036 1.355 . S
C1035 C1037 1.415 . S
C1036 C1035 1.355 . S
C1036 C1038 1.419 . S
C1037 C1032 1.425 . S
C1037 C1034 1.409 . S
C1037 C1035 1.415 . S
C1038 H1028 0.930 . S
C1038 C1036 1.419 . S
C1038 C1039 1.362 . S
C1039 H1029 0.930 . S
C1039 C1032 1.409 . S
C1039 C1038 1.362 . S
H1040 C1046 0.930 . S
H1041 C1049 0.930 . S
H1042 C1050 0.930 . S
H1043 C1051 0.930 . S
H1044 C1054 0.930 . S
H1045 C1055 0.930 . S
C1046 H1040 0.930 . S
C1046 C1047 1.355 . S
C1046 C1048 1.415 . S
C1047 C1046 1.355 . S
C1047 C1049 1.419 . S
C1048 C1046 1.415 . S
C1048 C1053 1.425 . S
C1048 C1055 1.409 . S
C1049 H1041 0.930 . S
C1049 C1047 1.419 . S
C1049 C1050 1.362 . S
C1050 H1042 0.930 . S
C1050 C1049 1.362 . S
C1050 C1053 1.409 . S
C1051 H1043 0.930 . S
C1051 C1052 1.355 . S
C1051 C1053 1.415 . S
C1052 C1051 1.355 . S
C1052 C1054 1.419 . S
C1053 C1048 1.425 . S
C1053 C1050 1.409 . S
C1053 C1051 1.415 . S
C1054 H1044 0.930 . S
C1054 C1052 1.419 . S
C1054 C1055 1.362 . S
C1055 H1045 0.930 . S
C1055 C1048 1.409 . S
C1055 C1054 1.362 . S
H1056 C1062 0.930 . S
H1057 C1065 0.930 . S
H1058 C1066 0.930 . S
H1059 C1067 0.930 . S
H1060 C1070 0.930 . S
H1061 C1071 0.930 . S
C1062 H1056 0.930 . S
C1062 C1063 1.355 . S
C1062 C1064 1.415 . S
C1063 C1062 1.355 . S
C1063 C1065 1.419 . S
C1064 C1062 1.415 . S
C1064 C1069 1.425 . S
C1064 C1071 1.409 . S
C1065 H1057 0.930 . S
C1065 C1063 1.419 . S
C1065 C1066 1.362 . S
C1066 H1058 0.930 . S
C1066 C1065 1.362 . S
C1066 C1069 1.409 . S
C1067 H1059 0.930 . S
C1067 C1068 1.355 . S
C1067 C1069 1.415 . S
C1068 C1067 1.355 . S
C1068 C1070 1.419 . S
C1069 C1064 1.425 . S
C1069 C1066 1.409 . S
C1069 C1067 1.415 . S
C1070 H1060 0.930 . S
C1070 C1068 1.419 . S
C1070 C1071 1.362 . S
C1071 H1061 0.930 . S
C1071 C1064 1.409 . S
C1071 C1070 1.362 . S
H1072 C1078 0.930 . S
H1073 C1081 0.930 . S
H1074 C1082 0.930 . S
H1075 C1083 0.930 . S
H1076 C1086 0.930 . S
H1077 C1087 0.930 . S
C1078 H1072 0.930 . S
C1078 C1079 1.355 . S
C1078 C1080 1.415 . S
C1079 C1078 1.355 . S
C1079 C1081 1.419 . S
C1080 C1078 1.415 . S
C1080 C1085 1.425 . S
C1080 C1087 1.409 . S
C1081 H1073 0.930 . S
C1081 C1079 1.419 . S
C1081 C1082 1.362 . S
C1082 H1074 0.930 . S
C1082 C1081 1.362 . S
C1082 C1085 1.409 . S
C1083 H1075 0.930 . S
C1083 C1084 1.355 . S
C1083 C1085 1.415 . S
C1084 C1083 1.355 . S
C1084 C1086 1.419 . S
C1085 C1080 1.425 . S
C1085 C1082 1.409 . S
C1085 C1083 1.415 . S
C1086 H1076 0.930 . S
C1086 C1084 1.419 . S
C1086 C1087 1.362 . S
C1087 H1077 0.930 . S
C1087 C1080 1.409 . S
C1087 C1086 1.362 . S
H1088 C1094 0.930 . S
H1089 C1097 0.930 . S
H1090 C1098 0.930 . S
H1091 C1099 0.930 . S
H1092 C1102 0.930 . S
H1093 C1103 0.930 . S
C1094 H1088 0.930 . S
C1094 C1095 1.355 . S
C1094 C1096 1.415 . S
C1095 C1094 1.355 . S
C1095 C1097 1.419 . S
C1096 C1094 1.415 . S
C1096 C1101 1.425 . S
C1096 C1103 1.409 . S
C1097 H1089 0.930 . S
C1097 C1095 1.419 . S
C1097 C1098 1.362 . S
C1098 H1090 0.930 . S
C1098 C1097 1.362 . S
C1098 C1101 1.409 . S
C1099 H1091 0.930 . S
C1099 C1100 1.355 . S
C1099 C1101 1.415 . S
C1100 C1099 1.355 . S
C1100 C1102 1.419 . S
C1101 C1096 1.425 . S
C1101 C1098 1.409 . S
C1101 C1099 1.415 . S
C1102 H1092 0.930 . S
C1102 C1100 1.419 . S
C1102 C1103 1.362 . S
C1103 H1093 0.930 . S
C1103 C1096 1.409 . S
C1103 C1102 1.362 . S
H1104 C1110 0.930 . S
H1105 C1113 0.930 . S
H1106 C1114 0.930 . S
H1107 C1115 0.930 . S
H1108 C1118 0.930 . S
H1109 C1119 0.930 . S
C1110 H1104 0.930 . S
C1110 C1111 1.355 . S
C1110 C1112 1.415 . S
C1111 C1110 1.355 . S
C1111 C1113 1.419 . S
C1112 C1110 1.415 . S
C1112 C1117 1.425 . S
C1112 C1119 1.409 . S
C1113 H1105 0.930 . S
C1113 C1111 1.419 . S
C1113 C1114 1.362 . S
C1114 H1106 0.930 . S
C1114 C1113 1.362 . S
C1114 C1117 1.409 . S
C1115 H1107 0.930 . S
C1115 C1116 1.355 . S
C1115 C1117 1.415 . S
C1116 C1115 1.355 . S
C1116 C1118 1.419 . S
C1117 C1112 1.425 . S
C1117 C1114 1.409 . S
C1117 C1115 1.415 . S
C1118 H1108 0.930 . S
C1118 C1116 1.419 . S
C1118 C1119 1.362 . S
C1119 H1109 0.930 . S
C1119 C1112 1.409 . S
C1119 C1118 1.362 . S
H1120 C1126 0.930 . S
H1121 C1129 0.930 . S
H1122 C1130 0.930 . S
H1123 C1131 0.930 . S
H1124 C1134 0.930 . S
H1125 C1135 0.930 . S
C1126 H1120 0.930 . S
C1126 C1127 1.355 . S
C1126 C1128 1.415 . S
C1127 C1126 1.355 . S
C1127 C1129 1.419 . S
C1128 C1126 1.415 . S
C1128 C1133 1.425 1_554 S
C1128 C1135 1.409 1_554 S
C1129 H1121 0.930 . S
C1129 C1127 1.419 . S
C1129 C1130 1.362 . S
C1130 H1122 0.930 . S
C1130 C1129 1.362 . S
C1130 C1133 1.409 1_554 S
C1131 H1123 0.930 . S
C1131 C1132 1.355 . S
C1131 C1133 1.415 . S
C1132 C1131 1.355 . S
C1132 C1134 1.419 . S
C1133 C1128 1.425 1_556 S
C1133 C1130 1.409 1_556 S
C1133 C1131 1.415 . S
C1134 H1124 0.930 . S
C1134 C1132 1.419 . S
C1134 C1135 1.362 . S
C1135 H1125 0.930 . S
C1135 C1128 1.409 1_556 S
C1135 C1134 1.362 . S
H1136 C1142 0.930 . S
H1137 C1145 0.930 . S
H1138 C1146 0.930 . S
H1139 C1147 0.930 . S
H1140 C1150 0.930 . S
H1141 C1151 0.930 . S
C1142 H1136 0.930 . S
C1142 C1143 1.355 . S
C1142 C1144 1.415 . S
C1143 C1142 1.355 . S
C1143 C1145 1.419 . S
C1144 C1142 1.415 . S
C1144 C1149 1.425 1_554 S
C1144 C1151 1.409 1_554 S
C1145 H1137 0.930 . S
C1145 C1143 1.419 . S
C1145 C1146 1.362 . S
C1146 H1138 0.930 . S
C1146 C1145 1.362 . S
C1146 C1149 1.409 1_554 S
C1147 H1139 0.930 . S
C1147 C1148 1.355 . S
C1147 C1149 1.415 . S
C1148 C1147 1.355 . S
C1148 C1150 1.419 . S
C1149 C1144 1.425 1_556 S
C1149 C1146 1.409 1_556 S
C1149 C1147 1.415 . S
C1150 H1140 0.930 . S
C1150 C1148 1.419 . S
C1150 C1151 1.362 . S
C1151 H1141 0.930 . S
C1151 C1144 1.409 1_556 S
C1151 C1150 1.362 . S
H1152 C1158 0.930 . S
H1153 C1161 0.930 . S
H1154 C1162 0.930 . S
H1155 C1163 0.930 . S
H1156 C1166 0.930 . S
H1157 C1167 0.930 . S
C1158 H1152 0.930 . S
C1158 C1159 1.355 . S
C1158 C1160 1.415 . S
C1159 C1158 1.355 . S
C1159 C1161 1.419 . S
C1160 C1158 1.415 . S
C1160 C1165 1.425 . S
C1160 C1167 1.409 . S
C1161 H1153 0.930 . S
C1161 C1159 1.419 . S
C1161 C1162 1.362 . S
C1162 H1154 0.930 . S
C1162 C1161 1.362 . S
C1162 C1165 1.409 . S
C1163 H1155 0.930 . S
C1163 C1164 1.355 . S
C1163 C1165 1.415 . S
C1164 C1163 1.355 . S
C1164 C1166 1.419 . S
C1165 C1160 1.425 . S
C1165 C1162 1.409 . S
C1165 C1163 1.415 . S
C1166 H1156 0.930 . S
C1166 C1164 1.419 . S
C1166 C1167 1.362 . S
C1167 H1157 0.930 . S
C1167 C1160 1.409 . S
C1167 C1166 1.362 . S
H1168 C1174 0.930 . S
H1169 C1177 0.930 . S
H1170 C1178 0.930 . S
H1171 C1179 0.930 . S
H1172 C1182 0.930 . S
H1173 C1183 0.930 . S
C1174 H1168 0.930 . S
C1174 C1175 1.355 . S
C1174 C1176 1.415 . S
C1175 C1174 1.355 . S
C1175 C1177 1.419 . S
C1176 C1174 1.415 . S
C1176 C1181 1.425 . S
C1176 C1183 1.409 . S
C1177 H1169 0.930 . S
C1177 C1175 1.419 . S
C1177 C1178 1.362 . S
C1178 H1170 0.930 . S
C1178 C1177 1.362 . S
C1178 C1181 1.409 . S
C1179 H1171 0.930 . S
C1179 C1180 1.355 . S
C1179 C1181 1.415 . S
C1180 C1179 1.355 . S
C1180 C1182 1.419 . S
C1181 C1176 1.425 . S
C1181 C1178 1.409 . S
C1181 C1179 1.415 . S
C1182 H1172 0.930 . S
C1182 C1180 1.419 . S
C1182 C1183 1.362 . S
C1183 H1173 0.930 . S
C1183 C1176 1.409 . S
C1183 C1182 1.362 . S
H1184 C1190 0.930 . S
H1185 C1193 0.930 . S
H1186 C1194 0.930 . S
H1187 C1195 0.930 . S
H1188 C1198 0.930 . S
H1189 C1199 0.930 . S
C1190 H1184 0.930 . S
C1190 C1191 1.355 . S
C1190 C1192 1.415 . S
C1191 C1190 1.355 . S
C1191 C1193 1.419 . S
C1192 C1190 1.415 . S
C1192 C1197 1.425 . S
C1192 C1199 1.409 . S
C1193 H1185 0.930 . S
C1193 C1191 1.419 . S
C1193 C1194 1.362 . S
C1194 H1186 0.930 . S
C1194 C1193 1.362 . S
C1194 C1197 1.409 . S
C1195 H1187 0.930 . S
C1195 C1196 1.355 . S
C1195 C1197 1.415 . S
C1196 C1195 1.355 . S
C1196 C1198 1.419 . S
C1197 C1192 1.425 . S
C1197 C1194 1.409 . S
C1197 C1195 1.415 . S
C1198 H1188 0.930 . S
C1198 C1196 1.419 . S
C1198 C1199 1.362 . S
C1199 H1189 0.930 . S
C1199 C1192 1.409 . S
C1199 C1198 1.362 . S
H1200 C1206 0.930 . S
H1201 C1209 0.930 . S
H1202 C1210 0.930 . S
H1203 C1211 0.930 . S
H1204 C1214 0.930 . S
H1205 C1215 0.930 . S
C1206 H1200 0.930 . S
C1206 C1207 1.355 . S
C1206 C1208 1.415 1_455 S
C1207 C1206 1.355 . S
C1207 C1209 1.419 1_545 S
C1208 C1206 1.415 1_655 S
C1208 C1213 1.425 1_645 S
C1208 C1215 1.409 . S
C1209 H1201 0.930 . S
C1209 C1207 1.419 1_565 S
C1209 C1210 1.362 . S
C1210 H1202 0.930 . S
C1210 C1209 1.362 . S
C1210 C1213 1.409 . S
C1211 H1203 0.930 . S
C1211 C1212 1.355 . S
C1211 C1213 1.415 1_655 S
C1212 C1211 1.355 . S
C1212 C1214 1.419 1_565 S
C1213 C1208 1.425 1_465 S
C1213 C1210 1.409 . S
C1213 C1211 1.415 1_455 S
C1214 H1204 0.930 . S
C1214 C1212 1.419 1_545 S
C1214 C1215 1.362 . S
C1215 H1205 0.930 . S
C1215 C1208 1.409 . S
C1215 C1214 1.362 . S
H1216 C1222 0.930 . S
H1217 C1225 0.930 . S
H1218 C1226 0.930 . S
H1219 C1227 0.930 . S
H1220 C1230 0.930 . S
H1221 C1231 0.930 . S
C1222 H1216 0.930 . S
C1222 C1223 1.355 . S
C1222 C1224 1.415 . S
C1223 C1222 1.355 . S
C1223 C1225 1.419 1_455 S
C1224 C1222 1.415 . S
C1224 C1229 1.425 1_455 S
C1224 C1231 1.409 . S
C1225 H1217 0.930 . S
C1225 C1223 1.419 1_655 S
C1225 C1226 1.362 . S
C1226 H1218 0.930 . S
C1226 C1225 1.362 . S
C1226 C1229 1.409 . S
C1227 H1219 0.930 . S
C1227 C1228 1.355 . S
C1227 C1229 1.415 . S
C1228 C1227 1.355 . S
C1228 C1230 1.419 1_655 S
C1229 C1224 1.425 1_655 S
C1229 C1226 1.409 . S
C1229 C1227 1.415 . S
C1230 H1220 0.930 . S
C1230 C1228 1.419 1_455 S
C1230 C1231 1.362 . S
C1231 H1221 0.930 . S
C1231 C1224 1.409 . S
C1231 C1230 1.362 . S
H1232 C1238 0.930 . S
H1233 C1241 0.930 . S
H1234 C1242 0.930 . S
H1235 C1243 0.930 . S
H1236 C1246 0.930 . S
H1237 C1247 0.930 . S
C1238 H1232 0.930 . S
C1238 C1239 1.355 . S
C1238 C1240 1.415 . S
C1239 C1238 1.355 . S
C1239 C1241 1.419 . S
C1240 C1238 1.415 . S
C1240 C1245 1.425 . S
C1240 C1247 1.409 . S
C1241 H1233 0.930 . S
C1241 C1239 1.419 . S
C1241 C1242 1.362 . S
C1242 H1234 0.930 . S
C1242 C1241 1.362 . S
C1242 C1245 1.409 . S
C1243 H1235 0.930 . S
C1243 C1244 1.355 . S
C1243 C1245 1.415 . S
C1244 C1243 1.355 . S
C1244 C1246 1.419 . S
C1245 C1240 1.425 . S
C1245 C1242 1.409 . S
C1245 C1243 1.415 . S
C1246 H1236 0.930 . S
C1246 C1244 1.419 . S
C1246 C1247 1.362 . S
C1247 H1237 0.930 . S
C1247 C1240 1.409 . S
C1247 C1246 1.362 . S
H1248 C1254 0.930 . S
H1249 C1257 0.930 . S
H1250 C1258 0.930 . S
H1251 C1259 0.930 . S
H1252 C1262 0.930 . S
H1253 C1263 0.930 . S
C1254 H1248 0.930 . S
C1254 C1255 1.355 . S
C1254 C1256 1.415 . S
C1255 C1254 1.355 . S
C1255 C1257 1.419 . S
C1256 C1254 1.415 . S
C1256 C1261 1.425 1_545 S
C1256 C1263 1.409 . S
C1257 H1249 0.930 . S
C1257 C1255 1.419 . S
C1257 C1258 1.362 1_545 S
C1258 H1250 0.930 . S
C1258 C1257 1.362 1_565 S
C1258 C1261 1.409 . S
C1259 H1251 0.930 . S
C1259 C1260 1.355 . S
C1259 C1261 1.415 . S
C1260 C1259 1.355 . S
C1260 C1262 1.419 . S
C1261 C1256 1.425 1_565 S
C1261 C1258 1.409 . S
C1261 C1259 1.415 . S
C1262 H1252 0.930 . S
C1262 C1260 1.419 . S
C1262 C1263 1.362 1_565 S
C1263 H1253 0.930 . S
C1263 C1256 1.409 . S
C1263 C1262 1.362 1_545 S
H1264 C1270 0.930 . S
H1265 C1273 0.930 . S
H1266 C1274 0.930 . S
H1267 C1275 0.930 . S
H1268 C1278 0.930 . S
H1269 C1279 0.930 . S
C1270 H1264 0.930 . S
C1270 C1271 1.355 . S
C1270 C1272 1.415 . S
C1271 C1270 1.355 . S
C1271 C1273 1.419 . S
C1272 C1270 1.415 . S
C1272 C1277 1.425 1_455 S
C1272 C1279 1.409 1_455 S
C1273 H1265 0.930 . S
C1273 C1271 1.419 . S
C1273 C1274 1.362 . S
C1274 H1266 0.930 . S
C1274 C1273 1.362 . S
C1274 C1277 1.409 1_455 S
C1275 H1267 0.930 . S
C1275 C1276 1.355 . S
C1275 C1277 1.415 . S
C1276 C1275 1.355 . S
C1276 C1278 1.419 . S
C1277 C1272 1.425 1_655 S
C1277 C1274 1.409 1_655 S
C1277 C1275 1.415 . S
C1278 H1268 0.930 . S
C1278 C1276 1.419 . S
C1278 C1279 1.362 . S
C1279 H1269 0.930 . S
C1279 C1272 1.409 1_655 S
C1279 C1278 1.362 . S
H1280 C1286 0.930 . S
H1281 C1289 0.930 . S
H1282 C1290 0.930 . S
H1283 C1291 0.930 . S
H1284 C1294 0.930 . S
H1285 C1295 0.930 . S
C1286 H1280 0.930 . S
C1286 C1287 1.355 . S
C1286 C1288 1.415 . S
C1287 C1286 1.355 . S
C1287 C1289 1.419 . S
C1288 C1286 1.415 . S
C1288 C1293 1.425 . S
C1288 C1295 1.409 . S
C1289 H1281 0.930 . S
C1289 C1287 1.419 . S
C1289 C1290 1.362 . S
C1290 H1282 0.930 . S
C1290 C1289 1.362 . S
C1290 C1293 1.409 . S
C1291 H1283 0.930 . S
C1291 C1292 1.355 . S
C1291 C1293 1.415 . S
C1292 C1291 1.355 . S
C1292 C1294 1.419 . S
C1293 C1288 1.425 . S
C1293 C1290 1.409 . S
C1293 C1291 1.415 . S
C1294 H1284 0.930 . S
C1294 C1292 1.419 . S
C1294 C1295 1.362 . S
C1295 H1285 0.930 . S
C1295 C1288 1.409 . S
C1295 C1294 1.362 . S
H1296 C1302 0.930 . S
H1297 C1305 0.930 . S
H1298 C1306 0.930 . S
H1299 C1307 0.930 . S
H1300 C1310 0.930 . S
H1301 C1311 0.930 . S
C1302 H1296 0.930 . S
C1302 C1303 1.355 . S
C1302 C1304 1.415 . S
C1303 C1302 1.355 . S
C1303 C1305 1.419 1_565 S
C1304 C1302 1.415 . S
C1304 C1309 1.425 1_565 S
C1304 C1311 1.409 . S
C1305 H1297 0.930 . S
C1305 C1303 1.419 1_545 S
C1305 C1306 1.362 . S
C1306 H1298 0.930 . S
C1306 C1305 1.362 . S
C1306 C1309 1.409 . S
C1307 H1299 0.930 . S
C1307 C1308 1.355 . S
C1307 C1309 1.415 . S
C1308 C1307 1.355 . S
C1308 C1310 1.419 1_545 S
C1309 C1304 1.425 1_545 S
C1309 C1306 1.409 . S
C1309 C1307 1.415 . S
C1310 H1300 0.930 . S
C1310 C1308 1.419 1_565 S
C1310 C1311 1.362 . S
C1311 H1301 0.930 . S
C1311 C1304 1.409 . S
C1311 C1310 1.362 . S
H1312 C1318 0.930 1_655 S
H1313 C1321 0.930 . S
H1314 C1322 0.930 1_565 S
H1315 C1323 0.930 1_455 S
H1316 C1326 0.930 . S
H1317 C1327 0.930 1_545 S
C1318 H1312 0.930 1_455 S
C1318 C1319 1.355 . S
C1318 C1320 1.415 1_455 S
C1319 C1318 1.355 . S
C1319 C1321 1.419 . S
C1320 C1318 1.415 1_655 S
C1320 C1325 1.425 1_645 S
C1320 C1327 1.409 1_545 S
C1321 H1313 0.930 . S
C1321 C1319 1.419 . S
C1321 C1322 1.362 . S
C1322 H1314 0.930 1_545 S
C1322 C1321 1.362 . S
C1322 C1325 1.409 1_545 S
C1323 H1315 0.930 1_655 S
C1323 C1324 1.355 . S
C1323 C1325 1.415 1_655 S
C1324 C1323 1.355 . S
C1324 C1326 1.419 . S
C1325 C1320 1.425 1_465 S
C1325 C1322 1.409 1_565 S
C1325 C1323 1.415 1_455 S
C1326 H1316 0.930 . S
C1326 C1324 1.419 . S
C1326 C1327 1.362 . S
C1327 H1317 0.930 1_565 S
C1327 C1320 1.409 1_565 S
C1327 C1326 1.362 . S
H1328 C1334 0.930 1_545 S
H1329 C1337 0.930 . S
H1330 C1338 0.930 . S
H1331 C1339 0.930 1_565 S
H1332 C1342 0.930 . S
H1333 C1343 0.930 . S
C1334 H1328 0.930 1_565 S
C1334 C1335 1.355 . S
C1334 C1336 1.415 1_565 S
C1335 C1334 1.355 . S
C1335 C1337 1.419 . S
C1336 C1334 1.415 1_545 S
C1336 C1341 1.425 1_545 S
C1336 C1343 1.409 . S
C1337 H1329 0.930 . S
C1337 C1335 1.419 . S
C1337 C1338 1.362 . S
C1338 H1330 0.930 . S
C1338 C1337 1.362 . S
C1338 C1341 1.409 . S
C1339 H1331 0.930 1_545 S
C1339 C1340 1.355 . S
C1339 C1341 1.415 1_545 S
C1340 C1339 1.355 . S
C1340 C1342 1.419 . S
C1341 C1336 1.425 1_565 S
C1341 C1338 1.409 . S
C1341 C1339 1.415 1_565 S
C1342 H1332 0.930 . S
C1342 C1340 1.419 . S
C1342 C1343 1.362 . S
C1343 H1333 0.930 . S
C1343 C1336 1.409 . S
C1343 C1342 1.362 . S
H1344 C1350 0.930 1_455 S
H1345 C1353 0.930 . S
H1346 C1354 0.930 . S
H1347 C1355 0.930 1_655 S
H1348 C1358 0.930 . S
H1349 C1359 0.930 . S
C1350 H1344 0.930 1_655 S
C1350 C1351 1.355 . S
C1350 C1352 1.415 1_655 S
C1351 C1350 1.355 . S
C1351 C1353 1.419 . S
C1352 C1350 1.415 1_455 S
C1352 C1357 1.425 1_465 S
C1352 C1359 1.409 . S
C1353 H1345 0.930 . S
C1353 C1351 1.419 . S
C1353 C1354 1.362 1_565 S
C1354 H1346 0.930 . S
C1354 C1353 1.362 1_545 S
C1354 C1357 1.409 . S
C1355 H1347 0.930 1_455 S
C1355 C1356 1.355 . S
C1355 C1357 1.415 1_455 S
C1356 C1355 1.355 . S
C1356 C1358 1.419 . S
C1357 C1352 1.425 1_645 S
C1357 C1354 1.409 . S
C1357 C1355 1.415 1_655 S
C1358 H1348 0.930 . S
C1358 C1356 1.419 . S
C1358 C1359 1.362 1_545 S
C1359 H1349 0.930 . S
C1359 C1352 1.409 . S
C1359 C1358 1.362 1_565 S
H1360 C1366 0.930 . S
H1361 C1369 0.930 . S
H1362 C1370 0.930 . S
H1363 C1371 0.930 . S
H1364 C1374 0.930 . S
H1365 C1375 0.930 . S
C1366 H1360 0.930 . S
C1366 C1367 1.355 . S
C1366 C1368 1.415 . S
C1367 C1366 1.355 . S
C1367 C1369 1.419 . S
C1368 C1366 1.415 . S
C1368 C1373 1.425 1_455 S
C1368 C1375 1.409 . S
C1369 H1361 0.930 . S
C1369 C1367 1.419 . S
C1369 C1370 1.362 1_455 S
C1370 H1362 0.930 . S
C1370 C1369 1.362 1_655 S
C1370 C1373 1.409 . S
C1371 H1363 0.930 . S
C1371 C1372 1.355 . S
C1371 C1373 1.415 . S
C1372 C1371 1.355 . S
C1372 C1374 1.419 . S
C1373 C1368 1.425 1_655 S
C1373 C1370 1.409 . S
C1373 C1371 1.415 . S
C1374 H1364 0.930 . S
C1374 C1372 1.419 . S
C1374 C1375 1.362 1_655 S
C1375 H1365 0.930 . S
C1375 C1368 1.409 . S
C1375 C1374 1.362 1_455 S
H1376 C1382 0.930 . S
H1377 C1385 0.930 . S
H1378 C1386 0.930 . S
H1379 C1387 0.930 . S
H1380 C1390 0.930 . S
H1381 C1391 0.930 . S
C1382 H1376 0.930 . S
C1382 C1383 1.355 . S
C1382 C1384 1.415 . S
C1383 C1382 1.355 . S
C1383 C1385 1.419 . S
C1384 C1382 1.415 . S
C1384 C1389 1.425 . S
C1384 C1391 1.409 . S
C1385 H1377 0.930 . S
C1385 C1383 1.419 . S
C1385 C1386 1.362 . S
C1386 H1378 0.930 . S
C1386 C1385 1.362 . S
C1386 C1389 1.409 . S
C1387 H1379 0.930 . S
C1387 C1388 1.355 . S
C1387 C1389 1.415 . S
C1388 C1387 1.355 . S
C1388 C1390 1.419 . S
C1389 C1384 1.425 . S
C1389 C1386 1.409 . S
C1389 C1387 1.415 . S
C1390 H1380 0.930 . S
C1390 C1388 1.419 . S
C1390 C1391 1.362 . S
C1391 H1381 0.930 . S
C1391 C1384 1.409 . S
C1391 C1390 1.362 . S
H1392 C1398 0.930 . S
H1393 C1401 0.930 . S
H1394 C1402 0.930 . S
H1395 C1403 0.930 . S
H1396 C1406 0.930 . S
H1397 C1407 0.930 . S
C1398 H1392 0.930 . S
C1398 C1399 1.355 . S
C1398 C1400 1.415 . S
C1399 C1398 1.355 . S
C1399 C1401 1.419 . S
C1400 C1398 1.415 . S
C1400 C1405 1.425 . S
C1400 C1407 1.409 . S
C1401 H1393 0.930 . S
C1401 C1399 1.419 . S
C1401 C1402 1.362 . S
C1402 H1394 0.930 . S
C1402 C1401 1.362 . S
C1402 C1405 1.409 . S
C1403 H1395 0.930 . S
C1403 C1404 1.355 . S
C1403 C1405 1.415 . S
C1404 C1403 1.355 . S
C1404 C1406 1.419 . S
C1405 C1400 1.425 . S
C1405 C1402 1.409 . S
C1405 C1403 1.415 . S
C1406 H1396 0.930 . S
C1406 C1404 1.419 . S
C1406 C1407 1.362 . S
C1407 H1397 0.930 . S
C1407 C1400 1.409 . S
C1407 C1406 1.362 . S
H1408 C1414 0.930 . S
H1409 C1417 0.930 . S
H1410 C1418 0.930 . S
H1411 C1419 0.930 . S
H1412 C1422 0.930 . S
H1413 C1423 0.930 . S
C1414 H1408 0.930 . S
C1414 C1415 1.355 . S
C1414 C1416 1.415 1_545 S
C1415 C1414 1.355 . S
C1415 C1417 1.419 . S
C1416 C1414 1.415 1_565 S
C1416 C1421 1.425 1_565 S
C1416 C1423 1.409 . S
C1417 H1409 0.930 . S
C1417 C1415 1.419 . S
C1417 C1418 1.362 . S
C1418 H1410 0.930 . S
C1418 C1417 1.362 . S
C1418 C1421 1.409 . S
C1419 H1411 0.930 . S
C1419 C1420 1.355 . S
C1419 C1421 1.415 1_565 S
C1420 C1419 1.355 . S
C1420 C1422 1.419 . S
C1421 C1416 1.425 1_545 S
C1421 C1418 1.409 . S
C1421 C1419 1.415 1_545 S
C1422 H1412 0.930 . S
C1422 C1420 1.419 . S
C1422 C1423 1.362 . S
C1423 H1413 0.930 . S
C1423 C1416 1.409 . S
C1423 C1422 1.362 . S
H1424 C1430 0.930 . S
H1425 C1433 0.930 . S
H1426 C1434 0.930 . S
H1427 C1435 0.930 . S
H1428 C1438 0.930 . S
H1429 C1439 0.930 . S
C1430 H1424 0.930 . S
C1430 C1431 1.355 . S
C1430 C1432 1.415 1_655 S
C1431 C1430 1.355 . S
C1431 C1433 1.419 1_565 S
C1432 C1430 1.415 1_455 S
C1432 C1437 1.425 1_465 S
C1432 C1439 1.409 . S
C1433 H1425 0.930 . S
C1433 C1431 1.419 1_545 S
C1433 C1434 1.362 . S
C1434 H1426 0.930 . S
C1434 C1433 1.362 . S
C1434 C1437 1.409 . S
C1435 H1427 0.930 . S
C1435 C1436 1.355 . S
C1435 C1437 1.415 1_455 S
C1436 C1435 1.355 . S
C1436 C1438 1.419 1_545 S
C1437 C1432 1.425 1_645 S
C1437 C1434 1.409 . S
C1437 C1435 1.415 1_655 S
C1438 H1428 0.930 . S
C1438 C1436 1.419 1_565 S
C1438 C1439 1.362 . S
C1439 H1429 0.930 . S
C1439 C1432 1.409 . S
C1439 C1438 1.362 . S
H1440 C1446 0.930 1_455 S
H1441 C1449 0.930 . S
H1442 C1450 0.930 . S
H1443 C1451 0.930 1_655 S
H1444 C1454 0.930 . S
H1445 C1455 0.930 . S
C1446 H1440 0.930 1_655 S
C1446 C1447 1.355 . S
C1446 C1448 1.415 1_655 S
C1447 C1446 1.355 . S
C1447 C1449 1.419 . S
C1448 C1446 1.415 1_455 S
C1448 C1453 1.425 1_455 S
C1448 C1455 1.409 . S
C1449 H1441 0.930 . S
C1449 C1447 1.419 . S
C1449 C1450 1.362 . S
C1450 H1442 0.930 . S
C1450 C1449 1.362 . S
C1450 C1453 1.409 . S
C1451 H1443 0.930 1_455 S
C1451 C1452 1.355 . S
C1451 C1453 1.415 1_455 S
C1452 C1451 1.355 . S
C1452 C1454 1.419 . S
C1453 C1448 1.425 1_655 S
C1453 C1450 1.409 . S
C1453 C1451 1.415 1_655 S
C1454 H1444 0.930 . S
C1454 C1452 1.419 . S
C1454 C1455 1.362 . S
C1455 H1445 0.930 . S
C1455 C1448 1.409 . S
C1455 C1454 1.362 . S
C951 C239 1.543 . S
C956 C3 1.515 . S
C967 C62 1.516 . S
C972 C298 1.543 . S
C983 C357 1.523 . S
C988 C121 1.534 . S
C999 C416 1.535 . S
C1004 C180 1.523 . S
C1015 C711 1.526 . S
C1020 C475 1.531 . S
C1031 C534 1.531 . S
C1036 C770 1.529 . S
C1047 C829 1.541 . S
C1052 C593 1.518 . S
C1063 C652 1.543 . S
C1068 C888 1.515 . S
C1079 C33 1.556 . S
C1084 C918 1.564 . S
C1095 C92 1.548 . S
C1100 C741 1.545 . S
C1111 C151 1.545 . S
C1116 C800 1.553 . S
C1127 C859 1.546 . S
C1132 C210 1.556 . S
C1143 C269 1.545 . S
C1148 C564 1.553 . S
C1159 C328 1.563 . S
C1164 C623 1.559 . S
C1175 C682 1.556 . S
C1180 C387 1.545 . S
C1191 C505 1.551 . S
C1196 C446 1.562 . S
C1207 C5 1.615 . S
C1212 C595 1.615 . S
C1223 C654 1.619 . S
C1228 C64 1.620 . S
C1239 C123 1.632 . S
C1244 C477 1.630 . S
C1255 C536 1.632 . S
C1260 C182 1.631 . S
C1271 C241 1.623 . S
C1276 C831 1.625 . S
C1287 C300 1.615 . S
C1292 C890 1.615 . S
C1303 C713 1.615 . S
C1308 C359 1.616 . S
C1319 C772 1.628 . S
C1324 C418 1.627 . S
C1335 C642 1.479 . S
C1340 C52 1.480 . S
C1351 C111 1.479 . S
C1356 C701 1.474 . S
C1367 C170 1.480 . S
C1372 C524 1.479 . S
C1383 C583 1.454 . S
C1388 C229 1.455 . S
C1399 C878 1.458 . S
C1404 C288 1.455 . S
C1415 C937 1.454 . S
C1420 C347 1.455 . S
C1431 C760 1.455 . S
C1436 C406 1.457 . S
C1447 C465 1.480 . S
C1452 C819 1.477 . S
