# Generated by pormake.
# Topology sma, (6)-cn, num edge types: 1
# Building blocks:
#     Node 0, Type 0, BuildingBlock: VOLQOD_clean_sbu_1, # of connection points: 6
#     Node 1, Type 0, BuildingBlock: VOLQOD_clean_sbu_1, # of connection points: 6
#     Node 2, Type 0, BuildingBlock: VOLQOD_clean_sbu_1, # of connection points: 6
#     Edge 3, Type (0, 0), BuildingBlock: UVAHIK_clean_linker_0, # of connection points: 2
#     Edge 4, Type (0, 0), BuildingBlock: UVAHIK_clean_linker_0, # of connection points: 2
#     Edge 5, Type (0, 0), BuildingBlock: UVAHIK_clean_linker_0, # of connection points: 2
#     Edge 6, Type (0, 0), BuildingBlock: UVAHIK_clean_linker_0, # of connection points: 2
#     Edge 7, Type (0, 0), BuildingBlock: UVAHIK_clean_linker_0, # of connection points: 2
#     Edge 8, Type (0, 0), BuildingBlock: UVAHIK_clean_linker_0, # of connection points: 2
#     Edge 9, Type (0, 0), BuildingBlock: UVAHIK_clean_linker_0, # of connection points: 2
#     Edge 10, Type (0, 0), BuildingBlock: UVAHIK_clean_linker_0, # of connection points: 2
#     Edge 11, Type (0, 0), BuildingBlock: UVAHIK_clean_linker_0, # of connection points: 2
# Relax obj value: 0.285
# Max RMSD: 0.234
# Mean RMSD: 0.234
data_MOF--net-sma--node1-VOLQOD_clean_sbu_1--edge1-UVAHIK_clean_linker_0
_symmetry_space_group_name_H-M    P1
_symmetry_Int_Tables_number       1
_symmetry_cell_setting            triclinic
loop_
_symmetry_equiv_pos_as_xyz
'x, y, z'
_cell_length_a     38.593685
_cell_length_b     38.816243
_cell_length_c     21.044868
_cell_angle_alpha  90.276637
_cell_angle_beta   89.898503
_cell_angle_gamma 119.89931
loop_
_atom_site_label
_atom_site_type_symbol
_atom_site_fract_x
_atom_site_fract_y
_atom_site_fract_z
_atom_type_partial_charge
O0 O 0.02312 0.55359 0.01915 0.0
Zn1 Zn 0.02178 0.57512 0.10475 0.0
O2 O 0.01109 0.5346 0.16519 0.0
Zn3 Zn 0.05629 0.54948 0.21756 0.0
Zn4 Zn -0.00258 0.48518 0.1251 0.0
Zn5 Zn 0.96876 0.52832 0.21865 0.0
O6 O 0.03688 0.53342 0.30652 0.0
O7 O 0.99034 0.55118 0.30333 0.0
O8 O 0.07095 0.62722 0.12918 0.0
O9 O 0.08953 0.60819 0.21602 0.0
O10 O 0.08918 0.52612 0.18429 0.0
O11 O 0.04578 0.47909 0.11965 0.0
O12 O 0.95414 0.43882 0.17364 0.0
O13 O 0.97534 0.58468 0.0998 0.0
O14 O 0.93375 0.47107 0.23702 0.0
O15 O 0.93639 0.55029 0.18016 0.0
C16 C 0.00068 0.51828 -0.00171 0.0
C17 C 0.01185 0.54072 0.33439 0.0
C18 C 0.08034 0.49798 0.1447 0.0
C19 C 0.09318 0.63528 0.17817 0.0
C20 C 0.93171 0.43897 0.21804 0.0
C21 C 0.94342 0.57252 0.13198 0.0
O22 O 0.9832 0.4885 0.03534 0.0
O23 O 0.5234 0.0535 0.32975 0.0
Zn24 Zn 0.49975 0.04421 0.41718 0.0
O25 O 0.52575 0.02429 0.47315 0.0
Zn26 Zn 0.55196 0.06204 0.54058 0.0
Zn27 Zn 0.56575 0.01913 0.42673 0.0
Zn28 Zn 0.48739 0.97226 0.50587 0.0
O29 O 0.53355 0.03518 0.62369 0.0
O30 O 0.48153 0.97578 0.59978 0.0
O31 O 0.49871 0.09206 0.45365 0.0
O32 O 0.53459 0.10241 0.54108 0.0
O33 O 0.61196 0.09145 0.53219 0.0
O34 O 0.62015 0.06441 0.44452 0.0
O35 O 0.56602 0.96937 0.44873 0.0
O36 O 0.44281 0.00217 0.40366 0.0
O37 O 0.50686 0.93315 0.49443 0.0
O38 O 0.43388 0.95138 0.46347 0.0
C39 C 0.54025 0.0362 0.30284 0.0
C40 C 0.50367 0.00217 0.64004 0.0
C41 C 0.63444 0.08985 0.48927 0.0
C42 C 0.51374 0.11116 0.50506 0.0
C43 C 0.53967 0.93711 0.47374 0.0
C44 C 0.42079 0.96701 0.42403 0.0
O45 O 0.55484 0.01864 0.33467 0.0
O46 O 0.46428 0.49126 0.64863 0.0
Zn47 Zn 0.44983 0.47799 0.73936 0.0
O48 O 0.49666 0.51182 0.78791 0.0
Zn49 Zn 0.49141 0.55354 0.82665 0.0
Zn50 Zn 0.54367 0.53493 0.73593 0.0
Zn51 Zn 0.50134 0.4805 0.85284 0.0
O52 O 0.5027 0.55557 0.91897 0.0
O53 O 0.48187 0.49137 0.9342 0.0
O54 O 0.40293 0.48439 0.76607 0.0
O55 O 0.43462 0.5404 0.82186 0.0
O56 O 0.52573 0.60628 0.78527 0.0
O57 O 0.56193 0.59225 0.71942 0.0
O58 O 0.58914 0.53227 0.77837 0.0
O59 O 0.43579 0.42124 0.74772 0.0
O60 O 0.55912 0.4982 0.86541 0.0
O61 O 0.47309 0.42247 0.82865 0.0
C62 C 0.49681 0.50006 0.62005 0.0
C63 C 0.49045 0.52558 0.95524 0.0
C64 C 0.55222 0.61665 0.7422 0.0
C65 C 0.4026 0.51197 0.79874 0.0
C66 C 0.59045 0.5178 0.83199 0.0
C67 C 0.44797 0.40362 0.78461 0.0
O68 O 0.52939 0.5106 0.64975 0.0
C69 C 0.15242 0.52127 0.12457 0.0
C70 C 0.1122 0.49137 0.11896 0.0
C71 C 0.1817 0.51966 0.08779 0.0
C72 C 0.2079 0.45755 -0.00823 0.0
H73 H 0.26762 0.55319 0.89172 0.0
C74 C 0.32806 0.47305 0.8124 0.0
C75 C 0.36434 0.50912 0.81745 0.0
C76 C 0.29346 0.46879 0.84135 0.0
C77 C 0.25143 0.52636 0.91953 0.0
H78 H 0.0717 0.4345 0.07507 0.0
H79 H 0.12327 0.43143 0.01183 0.0
H80 H 0.21707 0.54841 0.96617 0.0
H81 H 0.39208 0.56977 0.85277 0.0
H82 H 0.33251 0.56224 0.90356 0.0
H83 H 0.24331 0.43604 0.94698 0.0
C84 C 0.13185 0.4563 0.04394 0.0
C85 C 0.22257 0.5237 0.96219 0.0
C86 C 0.10242 0.45813 0.0801 0.0
C87 C 0.3647 0.54148 0.84826 0.0
C88 C 0.33033 0.53723 0.87712 0.0
C89 C 0.23727 0.46042 0.94962 0.0
C90 C 0.17138 0.48787 0.04557 0.0
C91 C 0.20106 0.4896 -0.00056 0.0
C92 C 0.29456 0.50056 0.87557 0.0
C93 C 0.25987 0.49519 0.91386 0.0
H94 H 0.16098 0.54724 0.15405 0.0
H95 H 0.2122 0.54407 0.09042 0.0
H96 H 0.19146 0.43088 0.01986 0.0
H97 H 0.32681 0.44757 0.78889 0.0
H98 H 0.26616 0.44034 0.83844 0.0
C99 C 0.69147 0.15501 0.52542 0.0
C100 C 0.67677 0.12142 0.4857 0.0
C101 C 0.72773 0.18902 0.51145 0.0
C102 C 0.81573 0.23197 0.40308 0.0
H103 H 0.79218 0.31787 0.39155 0.0
C104 C 0.89825 0.36492 0.23182 0.0
C105 C 0.90579 0.40229 0.25368 0.0
C106 C 0.87526 0.33092 0.2683 0.0
C107 C 0.79974 0.29458 0.3954 0.0
H108 H 0.69095 0.09529 0.40539 0.0
H109 H 0.75359 0.15469 0.38053 0.0
H110 H 0.74694 0.25807 0.44849 0.0
H111 H 0.89627 0.43345 0.33192 0.0
H112 H 0.85713 0.37472 0.39525 0.0
H113 H 0.8682 0.26852 0.34812 0.0
C114 C 0.73727 0.15494 0.4223 0.0
C115 C 0.77385 0.26029 0.42841 0.0
C116 C 0.7011 0.12094 0.43629 0.0
C117 C 0.89039 0.40504 0.31289 0.0
C118 C 0.86792 0.37132 0.34941 0.0
C119 C 0.84187 0.26653 0.37013 0.0
C120 C 0.74978 0.18995 0.4576 0.0
C121 C 0.78114 0.22834 0.43174 0.0
C122 C 0.85978 0.33383 0.32742 0.0
C123 C 0.83375 0.29793 0.36515 0.0
H124 H 0.67375 0.15612 0.5645 0.0
H125 H 0.73718 0.21543 0.54027 0.0
H126 H 0.8221 0.20779 0.40506 0.0
H127 H 0.90995 0.36194 0.18659 0.0
H128 H 0.86907 0.30233 0.24975 0.0
C129 C 0.58883 0.91359 0.48641 0.0
C130 C 0.54886 0.90498 0.48427 0.0
C131 C 0.59795 0.88449 0.50463 0.0
C132 C 0.55805 0.77779 0.52194 0.0
H133 H 0.62311 0.80451 0.67439 0.0
C134 C 0.56392 0.68603 0.74272 0.0
C135 C 0.56809 0.65599 0.71241 0.0
C136 C 0.57236 0.72053 0.71 0.0
C137 C 0.60542 0.7969 0.63131 0.0
H138 H 0.48709 0.85869 0.49579 0.0
H139 H 0.5031 0.80754 0.52624 0.0
H140 H 0.61561 0.85605 0.61991 0.0
H141 H 0.58666 0.63951 0.62537 0.0
H142 H 0.60054 0.69955 0.56793 0.0
H143 H 0.54681 0.71841 0.53438 0.0
C144 C 0.52726 0.83692 0.51435 0.0
C145 C 0.60126 0.82629 0.60008 0.0
C146 C 0.51813 0.86618 0.49729 0.0
C147 C 0.58318 0.66216 0.65007 0.0
C148 C 0.59098 0.69637 0.61704 0.0
C149 C 0.56276 0.74858 0.55251 0.0
C150 C 0.56725 0.84614 0.51967 0.0
C151 C 0.57661 0.81665 0.54625 0.0
C152 C 0.58456 0.72527 0.6462 0.0
C153 C 0.58556 0.75767 0.60843 0.0
H154 H 0.61317 0.94328 0.47681 0.0
H155 H 0.62898 0.89215 0.50832 0.0
H156 H 0.53896 0.7698 0.48043 0.0
H157 H 0.55252 0.68216 0.7908 0.0
H158 H 0.56693 0.74234 0.73332 0.0
C159 C 0.66541 0.55213 0.82769 0.0
C160 C 0.62939 0.52665 0.85903 0.0
C161 C 0.70212 0.56343 0.85681 0.0
C162 C 0.74654 0.57224 0.01507 0.0
H163 H 0.83221 0.5694 0.9232 0.0
C164 C 0.87415 0.56234 0.13716 0.0
C165 C 0.91197 0.58034 0.10819 0.0
C166 C 0.84239 0.56383 0.10834 0.0
C167 C 0.80892 0.57118 0.94925 0.0
H168 H 0.60379 0.49202 0.94465 0.0
H169 H 0.66758 0.51139 -0.00529 0.0
H170 H 0.7711 0.55483 0.86728 0.0
H171 H 0.94686 0.61673 0.02879 0.0
H172 H 0.89146 0.61965 -0.02096 0.0
H173 H 0.78397 0.58776 0.09735 0.0
C174 C 0.66747 0.52324 0.94825 0.0
C175 C 0.77388 0.56269 0.9172 0.0
C176 C 0.6309 0.51186 0.9192 0.0
C177 C 0.918 0.60218 0.05209 0.0
C178 C 0.88623 0.60369 0.02332 0.0
C179 C 0.78158 0.58081 0.04708 0.0
C180 C 0.70343 0.54959 0.91784 0.0
C181 C 0.74201 0.56226 0.95014 0.0
C182 C 0.84782 0.58345 0.05008 0.0
C183 C 0.81282 0.57954 0.01481 0.0
H184 H 0.6653 0.56413 0.78138 0.0
H185 H 0.72943 0.58382 0.83232 0.0
H186 H 0.72272 0.5729 0.04136 0.0
H187 H 0.86848 0.54537 0.18045 0.0
H188 H 0.8131 0.54769 0.12999 0.0
C189 C 0.36917 0.95443 0.34145 0.0
C190 C 0.38003 0.94304 0.39806 0.0
C191 C 0.33214 0.92962 0.31313 0.0
C192 C 0.23243 0.84303 0.34229 0.0
H193 H 0.24071 0.81091 0.1706 0.0
C194 C 0.13883 0.68551 0.25634 0.0
C195 C 0.12188 0.67696 0.19523 0.0
C196 C 0.16449 0.72445 0.27514 0.0
C197 C 0.23757 0.82026 0.21781 0.0
H198 H 0.35985 0.89787 0.47108 0.0
H199 H 0.2952 0.85477 0.42192 0.0
H200 H 0.29718 0.86986 0.21747 0.0
H201 H 0.11889 0.70277 0.10562 0.0
H202 H 0.16525 0.77167 0.13854 0.0
H203 H 0.17376 0.79216 0.34402 0.0
C204 C 0.31527 0.88286 0.39949 0.0
C205 C 0.26986 0.85394 0.24469 0.0
C206 C 0.35242 0.90736 0.42736 0.0
C207 C 0.13154 0.70846 0.15298 0.0
C208 C 0.15788 0.74776 0.17175 0.0
C209 C 0.20021 0.80953 0.31543 0.0
C210 C 0.30512 0.89335 0.34146 0.0
C211 C 0.26819 0.86439 0.30823 0.0
C212 C 0.17419 0.75598 0.23332 0.0
C213 C 0.2033 0.79672 0.2542 0.0
H214 H 0.38985 0.98178 0.31767 0.0
H215 H 0.32495 0.93836 0.26845 0.0
H216 H 0.23019 0.85094 0.39096 0.0
H217 H 0.13204 0.6621 0.29032 0.0
H218 H 0.17736 0.72984 0.32237 0.0
C219 C 0.45921 0.34588 0.79713 0.0
C220 C 0.43808 0.36255 0.76863 0.0
C221 C 0.45745 0.31184 0.77137 0.0
C222 C 0.44337 0.26477 0.61554 0.0
H223 H 0.45806 0.18763 0.7103 0.0
C224 C 0.47309 0.14541 0.49874 0.0
C225 C 0.50336 0.14097 0.52805 0.0
C226 C 0.45951 0.1693 0.52679 0.0
C227 C 0.45403 0.20905 0.68323 0.0
H228 H 0.39512 0.35404 0.69501 0.0
H229 H 0.39164 0.29429 0.65084 0.0
H230 H 0.43976 0.23137 0.76644 0.0
H231 H 0.5446 0.15995 0.60783 0.0
H232 H 0.52119 0.20157 0.65591 0.0
H233 H 0.45856 0.24294 0.53251 0.0
C234 C 0.41041 0.30819 0.69197 0.0
C235 C 0.44349 0.23401 0.71535 0.0
C236 C 0.41222 0.34229 0.71763 0.0
C237 C 0.52096 0.16233 0.58421 0.0
C238 C 0.50733 0.18593 0.61218 0.0
C239 C 0.45376 0.23966 0.58337 0.0
C240 C 0.43437 0.29365 0.71682 0.0
C241 C 0.43908 0.26287 0.6821 0.0
C242 C 0.47586 0.18893 0.58466 0.0
C243 C 0.4603 0.21235 0.61718 0.0
H244 H 0.47931 0.36061 0.83657 0.0
H245 H 0.47642 0.30151 0.7916 0.0
H246 H 0.44075 0.28704 0.58853 0.0
H247 H 0.45886 0.1293 0.45555 0.0
H248 H 0.4353 0.17128 0.50446 0.0
C249 C 0.9732 0.47367 0.90356 0.0
C250 C 0.99343 0.5122 0.92968 0.0
C251 C 0.96566 0.4683 0.83845 0.0
C252 C 0.98392 0.47359 0.69556 0.0
H253 H 0.95224 0.54144 0.60855 0.0
C254 C 0.02991 0.52641 0.44072 0.0
C255 C 0.0033 0.53151 0.40199 0.0
C256 C 0.02034 0.51541 0.50401 0.0
C257 C 0.96028 0.52162 0.63194 0.0
H258 H 0.02143 0.5752 0.90848 0.0
H259 H 0.00853 0.56575 0.79528 0.0
H260 H 0.94833 0.53702 0.72367 0.0
H261 H 0.94518 0.52765 0.39795 0.0
H262 H 0.92845 0.50814 0.50814 0.0
H263 H -0.00317 0.45896 0.60369 0.0
C264 C -0.00191 0.53977 0.82512 0.0
C265 C 0.95834 0.51938 0.69777 0.0
C266 C 0.00586 0.54515 0.88981 0.0
C267 C 0.96671 0.5248 0.42713 0.0
C268 C 0.95697 0.51339 0.49006 0.0
C269 C 0.98576 0.47573 0.62948 0.0
C270 C 0.97787 0.50136 0.79901 0.0
C271 C 0.97171 0.49668 0.73006 0.0
C272 C 0.98383 0.50895 0.52921 0.0
C273 C 0.97539 0.50096 0.59741 0.0
H274 H 0.9633 0.44772 0.93328 0.0
H275 H 0.95015 0.43844 0.819 0.0
H276 H -0.00562 0.45588 0.71969 0.0
H277 H 0.05819 0.53119 0.4223 0.0
H278 H 0.04194 0.51293 0.53355 0.0
C279 C 0.54043 -0.00027 0.20563 0.0
C280 C 0.53713 0.03093 0.23353 0.0
C281 C 0.53076 0.98998 0.14195 0.0
C282 C 0.47434 0.00325 0.01174 0.0
H283 H 0.53611 0.97194 0.90505 0.0
C284 C 0.49796 0.02682 0.74542 0.0
C285 C 0.49415 -0.00465 0.70752 0.0
C286 C 0.49297 0.02225 0.81076 0.0
C287 C 0.51805 0.97969 0.93481 0.0
H288 H 0.52359 0.07797 0.21605 0.0
H289 H 0.50863 0.06224 0.10376 0.0
H290 H 0.5523 0.9851 0.01751 0.0
H291 H 0.48068 0.93408 0.7064 0.0
H292 H 0.4738 0.92664 0.82253 0.0
H293 H 0.4422 0.00065 0.92729 0.0
C294 C 0.51704 0.04423 0.13178 0.0
C295 C 0.52735 0.98738 -0.00094 0.0
C296 C 0.52611 0.05361 0.1958 0.0
C297 C 0.48367 0.95863 0.73521 0.0
C298 C 0.47971 0.95437 0.80109 0.0
C299 C 0.46552 -0.00382 0.94726 0.0
C300 C 0.51824 0.01165 0.10467 0.0
C301 C 0.50625 0.00023 0.03782 0.0
C302 C 0.48499 0.98644 0.8391 0.0
C303 C 0.48793 0.98525 0.9083 0.0
H304 H 0.54853 0.98147 0.23365 0.0
H305 H 0.53173 0.96457 0.12266 0.0
H306 H 0.45681 0.01201 0.04077 0.0
H307 H 0.5057 0.05526 0.72461 0.0
H308 H 0.49763 0.04746 0.8395 0.0
C309 C 0.46348 0.48038 0.51505 0.0
C310 C 0.49797 0.50374 0.55103 0.0
C311 C 0.46294 0.48783 0.45062 0.0
C312 C 0.52874 0.53993 0.31506 0.0
H313 H 0.42969 0.5251 0.24287 0.0
C314 C 0.51307 0.56747 0.05252 0.0
C315 C 0.48741 0.53082 0.02334 0.0
C316 C 0.51296 0.57118 0.11831 0.0
C317 C 0.45758 0.52985 0.26295 0.0
H318 H 0.559 0.5528 0.54891 0.0
H319 H 0.55771 0.56673 0.43678 0.0
H320 H 0.43404 0.51698 0.35709 0.0
H321 H 0.43964 0.47031 0.03831 0.0
H322 H 0.43898 0.47712 0.15367 0.0
H323 H 0.5521 0.55291 0.22059 0.0
C324 C 0.53146 0.54198 0.45755 0.0
C325 C 0.46 0.52471 0.32783 0.0
C326 C 0.53225 0.53397 0.52167 0.0
C327 C 0.45997 0.49869 0.06009 0.0
C328 C 0.45928 0.50267 0.12564 0.0
C329 C 0.52652 0.54583 0.25047 0.0
C330 C 0.4966 0.51934 0.42162 0.0
C331 C 0.49523 0.52852 0.35414 0.0
C332 C 0.4865 0.53857 0.15504 0.0
C333 C 0.49064 0.5398 0.22402 0.0
H334 H 0.43678 0.45681 0.53698 0.0
H335 H 0.43602 0.46912 0.42374 0.0
H336 H 0.55613 0.54266 0.33369 0.0
H337 H 0.53446 0.59263 0.02487 0.0
H338 H 0.53427 0.59897 0.14069 0.0
loop_
_geom_bond_atom_site_label_1
_geom_bond_atom_site_label_2
_geom_bond_distance
_geom_bond_site_symmetry_2
_ccdc_geom_bond_type
O0 Zn1 1.953 . S
O0 C16 1.225 1_554 S
Zn1 O0 1.953 . S
Zn1 O2 1.949 . S
Zn1 O8 1.919 . S
Zn1 O13 1.924 1_455 S
O2 Zn1 1.949 . S
O2 Zn3 1.923 . S
O2 Zn4 1.950 . S
O2 Zn5 1.945 1_455 S
Zn3 O2 1.923 . S
Zn3 O6 1.933 . S
Zn3 O9 1.941 . S
Zn3 O10 1.965 . S
Zn4 O2 1.950 . S
Zn4 O11 1.938 . S
Zn4 O12 1.906 1_455 S
Zn4 O22 1.953 . S
Zn5 O2 1.945 1_655 S
Zn5 O7 1.932 . S
Zn5 O14 1.977 . S
Zn5 O15 1.910 . S
O6 Zn3 1.933 . S
O6 C17 1.226 . S
O7 Zn5 1.932 . S
O7 C17 1.307 1_655 S
O8 Zn1 1.919 . S
O8 C19 1.253 . S
O9 Zn3 1.941 . S
O9 C19 1.283 . S
O10 Zn3 1.965 . S
O10 C18 1.303 . S
O11 Zn4 1.938 . S
O11 C18 1.247 . S
O12 Zn4 1.906 1_655 S
O12 C20 1.304 . S
O13 Zn1 1.924 1_655 S
O13 C21 1.311 . S
O14 Zn5 1.977 . S
O14 C20 1.272 . S
O15 Zn5 1.910 . S
O15 C21 1.231 . S
C16 O0 1.225 1_556 S
C16 O22 1.298 1_556 S
C17 O6 1.226 . S
C17 O7 1.307 1_455 S
C18 O10 1.303 . S
C18 O11 1.247 . S
C19 O8 1.253 . S
C19 O9 1.283 . S
C20 O12 1.304 . S
C20 O14 1.272 . S
C21 O13 1.311 . S
C21 O15 1.231 . S
O22 Zn4 1.953 . S
O22 C16 1.298 1_554 S
O23 Zn24 1.953 . S
O23 C39 1.225 . S
Zn24 O23 1.953 . S
Zn24 O25 1.949 . S
Zn24 O31 1.919 . S
Zn24 O36 1.924 1_545 S
O25 Zn24 1.949 . S
O25 Zn26 1.923 . S
O25 Zn27 1.950 . S
O25 Zn28 1.945 1_545 S
Zn26 O25 1.923 . S
Zn26 O29 1.933 . S
Zn26 O32 1.941 . S
Zn26 O33 1.965 . S
Zn27 O25 1.950 . S
Zn27 O34 1.938 . S
Zn27 O35 1.906 1_545 S
Zn27 O45 1.953 . S
Zn28 O25 1.945 1_565 S
Zn28 O30 1.932 . S
Zn28 O37 1.977 . S
Zn28 O38 1.910 . S
O29 Zn26 1.933 . S
O29 C40 1.226 . S
O30 Zn28 1.932 . S
O30 C40 1.307 1_565 S
O31 Zn24 1.919 . S
O31 C42 1.253 . S
O32 Zn26 1.941 . S
O32 C42 1.283 . S
O33 Zn26 1.965 . S
O33 C41 1.303 . S
O34 Zn27 1.938 . S
O34 C41 1.247 . S
O35 Zn27 1.906 1_565 S
O35 C43 1.304 . S
O36 Zn24 1.924 1_565 S
O36 C44 1.311 . S
O37 Zn28 1.977 . S
O37 C43 1.272 . S
O38 Zn28 1.910 . S
O38 C44 1.231 . S
C39 O23 1.225 . S
C39 O45 1.298 . S
C40 O29 1.226 . S
C40 O30 1.307 1_545 S
C41 O33 1.303 . S
C41 O34 1.247 . S
C42 O31 1.253 . S
C42 O32 1.283 . S
C43 O35 1.304 . S
C43 O37 1.272 . S
C44 O36 1.311 . S
C44 O38 1.231 . S
O45 Zn27 1.953 . S
O45 C39 1.298 . S
O46 Zn47 1.953 . S
O46 C62 1.225 . S
Zn47 O46 1.953 . S
Zn47 O48 1.949 . S
Zn47 O54 1.919 . S
Zn47 O59 1.924 . S
O48 Zn47 1.949 . S
O48 Zn49 1.923 . S
O48 Zn50 1.950 . S
O48 Zn51 1.945 . S
Zn49 O48 1.923 . S
Zn49 O52 1.933 . S
Zn49 O55 1.941 . S
Zn49 O56 1.965 . S
Zn50 O48 1.950 . S
Zn50 O57 1.938 . S
Zn50 O58 1.906 . S
Zn50 O68 1.953 . S
Zn51 O48 1.945 . S
Zn51 O53 1.932 . S
Zn51 O60 1.977 . S
Zn51 O61 1.910 . S
O52 Zn49 1.933 . S
O52 C63 1.226 1_556 S
O53 Zn51 1.932 . S
O53 C63 1.307 1_556 S
O54 Zn47 1.919 . S
O54 C65 1.253 . S
O55 Zn49 1.941 . S
O55 C65 1.283 . S
O56 Zn49 1.965 . S
O56 C64 1.303 . S
O57 Zn50 1.938 . S
O57 C64 1.247 . S
O58 Zn50 1.906 . S
O58 C66 1.304 . S
O59 Zn47 1.924 . S
O59 C67 1.311 . S
O60 Zn51 1.977 . S
O60 C66 1.272 . S
O61 Zn51 1.910 . S
O61 C67 1.231 . S
C62 O46 1.225 . S
C62 O68 1.298 . S
C63 O52 1.226 1_554 S
C63 O53 1.307 1_554 S
C64 O56 1.303 . S
C64 O57 1.247 . S
C65 O54 1.253 . S
C65 O55 1.283 . S
C66 O58 1.304 . S
C66 O60 1.272 . S
C67 O59 1.311 . S
C67 O61 1.231 . S
O68 Zn50 1.953 . S
O68 C62 1.298 . S
C69 C70 1.349 . S
C69 C71 1.327 . S
C69 H94 0.950 . S
C70 C69 1.349 . S
C70 C86 1.349 . S
C71 C69 1.327 . S
C71 C90 1.429 . S
C71 H95 0.950 . S
C72 C89 1.574 . S
C72 C91 1.368 1_556 S
C72 H96 0.949 . S
H73 C77 0.949 . S
C74 C75 1.349 . S
C74 C76 1.327 . S
C74 H97 0.950 . S
C75 C74 1.349 . S
C75 C87 1.349 . S
C76 C74 1.327 . S
C76 C92 1.429 . S
C76 H98 0.950 . S
C77 H73 0.949 . S
C77 C85 1.574 . S
C77 C93 1.368 1_554 S
H78 C86 0.950 . S
H79 C84 0.950 . S
H80 C85 0.949 . S
H81 C87 0.950 . S
H82 C88 0.950 . S
H83 C89 0.949 . S
C84 H79 0.950 . S
C84 C86 1.327 . S
C84 C90 1.429 . S
C85 C77 1.574 . S
C85 H80 0.949 . S
C85 C91 1.368 . S
C86 C70 1.349 . S
C86 H78 0.950 . S
C86 C84 1.327 . S
C87 C75 1.349 . S
C87 H81 0.950 . S
C87 C88 1.327 . S
C88 H82 0.950 . S
C88 C87 1.327 . S
C88 C92 1.429 . S
C89 C72 1.574 . S
C89 H83 0.949 . S
C89 C93 1.368 . S
C90 C71 1.429 . S
C90 C84 1.429 . S
C90 C91 1.523 . S
C91 C72 1.368 1_554 S
C91 C85 1.368 . S
C91 C90 1.523 . S
C92 C76 1.429 . S
C92 C88 1.429 . S
C92 C93 1.523 . S
C93 C77 1.368 1_556 S
C93 C89 1.368 . S
C93 C92 1.523 . S
H94 C69 0.950 . S
H95 C71 0.950 . S
H96 C72 0.949 . S
H97 C74 0.950 . S
H98 C76 0.950 . S
C99 C100 1.349 . S
C99 C101 1.327 . S
C99 H124 0.950 . S
C100 C99 1.349 . S
C100 C116 1.349 . S
C101 C99 1.327 . S
C101 C120 1.429 . S
C101 H125 0.950 . S
C102 C119 1.574 . S
C102 C121 1.368 . S
C102 H126 0.949 . S
H103 C107 0.949 . S
C104 C105 1.349 . S
C104 C106 1.327 . S
C104 H127 0.950 . S
C105 C104 1.349 . S
C105 C117 1.349 . S
C106 C104 1.327 . S
C106 C122 1.429 . S
C106 H128 0.950 . S
C107 H103 0.949 . S
C107 C115 1.574 . S
C107 C123 1.368 . S
H108 C116 0.950 . S
H109 C114 0.950 . S
H110 C115 0.949 . S
H111 C117 0.950 . S
H112 C118 0.950 . S
H113 C119 0.949 . S
C114 H109 0.950 . S
C114 C116 1.327 . S
C114 C120 1.429 . S
C115 C107 1.574 . S
C115 H110 0.949 . S
C115 C121 1.368 . S
C116 C100 1.349 . S
C116 H108 0.950 . S
C116 C114 1.327 . S
C117 C105 1.349 . S
C117 H111 0.950 . S
C117 C118 1.327 . S
C118 H112 0.950 . S
C118 C117 1.327 . S
C118 C122 1.429 . S
C119 C102 1.574 . S
C119 H113 0.949 . S
C119 C123 1.368 . S
C120 C101 1.429 . S
C120 C114 1.429 . S
C120 C121 1.523 . S
C121 C102 1.368 . S
C121 C115 1.368 . S
C121 C120 1.523 . S
C122 C106 1.429 . S
C122 C118 1.429 . S
C122 C123 1.523 . S
C123 C107 1.368 . S
C123 C119 1.368 . S
C123 C122 1.523 . S
H124 C99 0.950 . S
H125 C101 0.950 . S
H126 C102 0.949 . S
H127 C104 0.950 . S
H128 C106 0.950 . S
C129 C130 1.349 . S
C129 C131 1.327 . S
C129 H154 0.950 . S
C130 C129 1.349 . S
C130 C146 1.349 . S
C131 C129 1.327 . S
C131 C150 1.429 . S
C131 H155 0.950 . S
C132 C149 1.574 . S
C132 C151 1.368 . S
C132 H156 0.949 . S
H133 C137 0.949 . S
C134 C135 1.349 . S
C134 C136 1.327 . S
C134 H157 0.950 . S
C135 C134 1.349 . S
C135 C147 1.349 . S
C136 C134 1.327 . S
C136 C152 1.429 . S
C136 H158 0.950 . S
C137 H133 0.949 . S
C137 C145 1.574 . S
C137 C153 1.368 . S
H138 C146 0.950 . S
H139 C144 0.950 . S
H140 C145 0.949 . S
H141 C147 0.950 . S
H142 C148 0.950 . S
H143 C149 0.949 . S
C144 H139 0.950 . S
C144 C146 1.327 . S
C144 C150 1.429 . S
C145 C137 1.574 . S
C145 H140 0.949 . S
C145 C151 1.368 . S
C146 C130 1.349 . S
C146 H138 0.950 . S
C146 C144 1.327 . S
C147 C135 1.349 . S
C147 H141 0.950 . S
C147 C148 1.327 . S
C148 H142 0.950 . S
C148 C147 1.327 . S
C148 C152 1.429 . S
C149 C132 1.574 . S
C149 H143 0.949 . S
C149 C153 1.368 . S
C150 C131 1.429 . S
C150 C144 1.429 . S
C150 C151 1.523 . S
C151 C132 1.368 . S
C151 C145 1.368 . S
C151 C150 1.523 . S
C152 C136 1.429 . S
C152 C148 1.429 . S
C152 C153 1.523 . S
C153 C137 1.368 . S
C153 C149 1.368 . S
C153 C152 1.523 . S
H154 C129 0.950 . S
H155 C131 0.950 . S
H156 C132 0.949 . S
H157 C134 0.950 . S
H158 C136 0.950 . S
C159 C160 1.349 . S
C159 C161 1.327 . S
C159 H184 0.950 . S
C160 C159 1.349 . S
C160 C176 1.349 . S
C161 C159 1.327 . S
C161 C180 1.429 . S
C161 H185 0.950 . S
C162 C179 1.574 . S
C162 C181 1.368 1_554 S
C162 H186 0.949 . S
H163 C167 0.949 . S
C164 C165 1.349 . S
C164 C166 1.327 . S
C164 H187 0.950 . S
C165 C164 1.349 . S
C165 C177 1.349 . S
C166 C164 1.327 . S
C166 C182 1.429 . S
C166 H188 0.950 . S
C167 H163 0.949 . S
C167 C175 1.574 . S
C167 C183 1.368 1_556 S
H168 C176 0.950 . S
H169 C174 0.950 . S
H170 C175 0.949 . S
H171 C177 0.950 . S
H172 C178 0.950 . S
H173 C179 0.949 . S
C174 H169 0.950 . S
C174 C176 1.327 . S
C174 C180 1.429 . S
C175 C167 1.574 . S
C175 H170 0.949 . S
C175 C181 1.368 . S
C176 C160 1.349 . S
C176 H168 0.950 . S
C176 C174 1.327 . S
C177 C165 1.349 . S
C177 H171 0.950 . S
C177 C178 1.327 . S
C178 H172 0.950 . S
C178 C177 1.327 . S
C178 C182 1.429 . S
C179 C162 1.574 . S
C179 H173 0.949 . S
C179 C183 1.368 . S
C180 C161 1.429 . S
C180 C174 1.429 . S
C180 C181 1.523 . S
C181 C162 1.368 1_556 S
C181 C175 1.368 . S
C181 C180 1.523 . S
C182 C166 1.429 . S
C182 C178 1.429 . S
C182 C183 1.523 . S
C183 C167 1.368 1_554 S
C183 C179 1.368 . S
C183 C182 1.523 . S
H184 C159 0.950 . S
H185 C161 0.950 . S
H186 C162 0.949 . S
H187 C164 0.950 . S
H188 C166 0.950 . S
C189 C190 1.349 . S
C189 C191 1.327 . S
C189 H214 0.950 . S
C190 C189 1.349 . S
C190 C206 1.349 . S
C191 C189 1.327 . S
C191 C210 1.429 . S
C191 H215 0.950 . S
C192 C209 1.574 . S
C192 C211 1.368 . S
C192 H216 0.949 . S
H193 C197 0.949 . S
C194 C195 1.349 . S
C194 C196 1.327 . S
C194 H217 0.950 . S
C195 C194 1.349 . S
C195 C207 1.349 . S
C196 C194 1.327 . S
C196 C212 1.429 . S
C196 H218 0.950 . S
C197 H193 0.949 . S
C197 C205 1.574 . S
C197 C213 1.368 . S
H198 C206 0.950 . S
H199 C204 0.950 . S
H200 C205 0.949 . S
H201 C207 0.950 . S
H202 C208 0.950 . S
H203 C209 0.949 . S
C204 H199 0.950 . S
C204 C206 1.327 . S
C204 C210 1.429 . S
C205 C197 1.574 . S
C205 H200 0.949 . S
C205 C211 1.368 . S
C206 C190 1.349 . S
C206 H198 0.950 . S
C206 C204 1.327 . S
C207 C195 1.349 . S
C207 H201 0.950 . S
C207 C208 1.327 . S
C208 H202 0.950 . S
C208 C207 1.327 . S
C208 C212 1.429 . S
C209 C192 1.574 . S
C209 H203 0.949 . S
C209 C213 1.368 . S
C210 C191 1.429 . S
C210 C204 1.429 . S
C210 C211 1.523 . S
C211 C192 1.368 . S
C211 C205 1.368 . S
C211 C210 1.523 . S
C212 C196 1.429 . S
C212 C208 1.429 . S
C212 C213 1.523 . S
C213 C197 1.368 . S
C213 C209 1.368 . S
C213 C212 1.523 . S
H214 C189 0.950 . S
H215 C191 0.950 . S
H216 C192 0.949 . S
H217 C194 0.950 . S
H218 C196 0.950 . S
C219 C220 1.349 . S
C219 C221 1.327 . S
C219 H244 0.950 . S
C220 C219 1.349 . S
C220 C236 1.349 . S
C221 C219 1.327 . S
C221 C240 1.429 . S
C221 H245 0.950 . S
C222 C239 1.574 . S
C222 C241 1.368 . S
C222 H246 0.949 . S
H223 C227 0.949 . S
C224 C225 1.349 . S
C224 C226 1.327 . S
C224 H247 0.950 . S
C225 C224 1.349 . S
C225 C237 1.349 . S
C226 C224 1.327 . S
C226 C242 1.429 . S
C226 H248 0.950 . S
C227 H223 0.949 . S
C227 C235 1.574 . S
C227 C243 1.368 . S
H228 C236 0.950 . S
H229 C234 0.950 . S
H230 C235 0.949 . S
H231 C237 0.950 . S
H232 C238 0.950 . S
H233 C239 0.949 . S
C234 H229 0.950 . S
C234 C236 1.327 . S
C234 C240 1.429 . S
C235 C227 1.574 . S
C235 H230 0.949 . S
C235 C241 1.368 . S
C236 C220 1.349 . S
C236 H228 0.950 . S
C236 C234 1.327 . S
C237 C225 1.349 . S
C237 H231 0.950 . S
C237 C238 1.327 . S
C238 H232 0.950 . S
C238 C237 1.327 . S
C238 C242 1.429 . S
C239 C222 1.574 . S
C239 H233 0.949 . S
C239 C243 1.368 . S
C240 C221 1.429 . S
C240 C234 1.429 . S
C240 C241 1.523 . S
C241 C222 1.368 . S
C241 C235 1.368 . S
C241 C240 1.523 . S
C242 C226 1.429 . S
C242 C238 1.429 . S
C242 C243 1.523 . S
C243 C227 1.368 . S
C243 C239 1.368 . S
C243 C242 1.523 . S
H244 C219 0.950 . S
H245 C221 0.950 . S
H246 C222 0.949 . S
H247 C224 0.950 . S
H248 C226 0.950 . S
C249 C250 1.349 1_655 S
C249 C251 1.327 . S
C249 H274 0.950 . S
C250 C249 1.349 1_455 S
C250 C266 1.349 . S
C251 C249 1.327 . S
C251 C270 1.429 1_655 S
C251 H275 0.950 . S
C252 C269 1.574 . S
C252 C271 1.368 . S
C252 H276 0.949 . S
H253 C257 0.949 . S
C254 C255 1.349 . S
C254 C256 1.327 . S
C254 H277 0.950 . S
C255 C254 1.349 . S
C255 C267 1.349 1_455 S
C256 C254 1.327 . S
C256 C272 1.429 . S
C256 H278 0.950 . S
C257 H253 0.949 . S
C257 C265 1.574 . S
C257 C273 1.368 1_655 S
H258 C266 0.950 . S
H259 C264 0.950 . S
H260 C265 0.949 . S
H261 C267 0.950 . S
H262 C268 0.950 . S
H263 C269 0.949 . S
C264 H259 0.950 . S
C264 C266 1.327 . S
C264 C270 1.429 . S
C265 C257 1.574 . S
C265 H260 0.949 . S
C265 C271 1.368 1_655 S
C266 C250 1.349 . S
C266 H258 0.950 . S
C266 C264 1.327 . S
C267 C255 1.349 1_655 S
C267 H261 0.950 . S
C267 C268 1.327 . S
C268 H262 0.950 . S
C268 C267 1.327 . S
C268 C272 1.429 1_655 S
C269 C252 1.574 . S
C269 H263 0.949 . S
C269 C273 1.368 . S
C270 C251 1.429 1_455 S
C270 C264 1.429 . S
C270 C271 1.523 . S
C271 C252 1.368 . S
C271 C265 1.368 1_455 S
C271 C270 1.523 . S
C272 C256 1.429 . S
C272 C268 1.429 1_455 S
C272 C273 1.523 . S
C273 C257 1.368 1_455 S
C273 C269 1.368 . S
C273 C272 1.523 . S
H274 C249 0.950 . S
H275 C251 0.950 . S
H276 C252 0.949 . S
H277 C254 0.950 . S
H278 C256 0.950 . S
C279 C280 1.352 . S
C279 C281 1.327 1_545 S
C279 H304 0.946 1_545 S
C280 C279 1.352 . S
C280 C296 1.349 . S
C281 C279 1.327 1_565 S
C281 C300 1.423 1_565 S
C281 H305 0.955 . S
C282 C299 1.574 1_554 S
C282 C301 1.368 . S
C282 H306 0.949 . S
H283 C287 0.949 . S
C284 C285 1.349 . S
C284 C286 1.327 . S
C284 H307 0.950 . S
C285 C284 1.349 . S
C285 C297 1.345 1_545 S
C286 C284 1.327 . S
C286 C302 1.429 . S
C286 H308 0.950 . S
C287 H283 0.949 . S
C287 C295 1.574 1_556 S
C287 C303 1.368 1_565 S
H288 C296 0.950 . S
H289 C294 0.950 . S
H290 C295 0.949 . S
H291 C297 0.954 . S
H292 C298 0.950 . S
H293 C299 0.949 . S
C294 H289 0.950 . S
C294 C296 1.327 . S
C294 C300 1.429 . S
C295 C287 1.574 1_554 S
C295 H290 0.949 . S
C295 C301 1.368 1_565 S
C296 C280 1.349 . S
C296 H288 0.950 . S
C296 C294 1.327 . S
C297 C285 1.345 1_565 S
C297 H291 0.954 . S
C297 C298 1.327 . S
C298 H292 0.950 . S
C298 C297 1.327 . S
C298 C302 1.429 1_565 S
C299 C282 1.574 1_556 S
C299 H293 0.949 . S
C299 C303 1.368 . S
C300 C281 1.423 1_545 S
C300 C294 1.429 . S
C300 C301 1.523 . S
C301 C282 1.368 . S
C301 C295 1.368 1_545 S
C301 C300 1.523 . S
C302 C286 1.429 . S
C302 C298 1.429 1_545 S
C302 C303 1.523 . S
C303 C287 1.368 1_545 S
C303 C299 1.368 . S
C303 C302 1.523 . S
H304 C279 0.946 1_565 S
H305 C281 0.955 . S
H306 C282 0.949 . S
H307 C284 0.950 . S
H308 C286 0.950 . S
C309 C310 1.349 . S
C309 C311 1.327 . S
C309 H334 0.950 . S
C310 C309 1.349 . S
C310 C326 1.349 . S
C311 C309 1.327 . S
C311 C330 1.429 . S
C311 H335 0.950 . S
C312 C329 1.574 . S
C312 C331 1.368 . S
C312 H336 0.949 . S
H313 C317 0.949 . S
C314 C315 1.349 . S
C314 C316 1.327 . S
C314 H337 0.950 . S
C315 C314 1.349 . S
C315 C327 1.349 . S
C316 C314 1.327 . S
C316 C332 1.429 . S
C316 H338 0.950 . S
C317 H313 0.949 . S
C317 C325 1.574 . S
C317 C333 1.368 . S
H318 C326 0.950 . S
H319 C324 0.950 . S
H320 C325 0.949 . S
H321 C327 0.950 . S
H322 C328 0.950 . S
H323 C329 0.949 . S
C324 H319 0.950 . S
C324 C326 1.327 . S
C324 C330 1.429 . S
C325 C317 1.574 . S
C325 H320 0.949 . S
C325 C331 1.368 . S
C326 C310 1.349 . S
C326 H318 0.950 . S
C326 C324 1.327 . S
C327 C315 1.349 . S
C327 H321 0.950 . S
C327 C328 1.327 . S
C328 H322 0.950 . S
C328 C327 1.327 . S
C328 C332 1.429 . S
C329 C312 1.574 . S
C329 H323 0.949 . S
C329 C333 1.368 . S
C330 C311 1.429 . S
C330 C324 1.429 . S
C330 C331 1.523 . S
C331 C312 1.368 . S
C331 C325 1.368 . S
C331 C330 1.523 . S
C332 C316 1.429 . S
C332 C328 1.429 . S
C332 C333 1.523 . S
C333 C317 1.368 . S
C333 C329 1.368 . S
C333 C332 1.523 . S
H334 C309 0.950 . S
H335 C311 0.950 . S
H336 C312 0.949 . S
H337 C314 0.950 . S
H338 C316 0.950 . S
C70 C18 1.322 . S
C75 C65 1.301 . S
C100 C41 1.299 . S
C105 C20 1.272 . S
C130 C43 1.234 . S
C135 C64 1.261 . S
C160 C66 1.194 . S
C165 C21 1.220 . S
C190 C44 1.243 . S
C195 C19 1.224 . S
C220 C67 1.281 . S
C225 C42 1.262 . S
C250 C16 0.828 . S
C255 C17 0.828 . S
C280 C39 0.828 . S
C285 C40 0.828 . S
C310 C62 0.828 . S
C315 C63 0.828 . S
