# Generated by pormake.
# Topology wht, (6)-cn, num edge types: 1
# Building blocks:
#     Node 0, Type 0, BuildingBlock: OJICUG_clean_sbu_0, # of connection points: 6
#     Node 1, Type 0, BuildingBlock: OJICUG_clean_sbu_0, # of connection points: 6
#     Node 2, Type 0, BuildingBlock: OJICUG_clean_sbu_0, # of connection points: 6
#     Node 3, Type 0, BuildingBlock: OJICUG_clean_sbu_0, # of connection points: 6
#     Node 4, Type 0, BuildingBlock: OJICUG_clean_sbu_0, # of connection points: 6
#     Node 5, Type 0, BuildingBlock: OJICUG_clean_sbu_0, # of connection points: 6
#     Node 6, Type 0, BuildingBlock: OJICUG_clean_sbu_0, # of connection points: 6
#     Node 7, Type 0, BuildingBlock: OJICUG_clean_sbu_0, # of connection points: 6
#     Edge 8, Type (0, 0), BuildingBlock: OJICUG_clean_linker_0, # of connection points: 2
#     Edge 9, Type (0, 0), BuildingBlock: OJICUG_clean_linker_0, # of connection points: 2
#     Edge 10, Type (0, 0), BuildingBlock: OJICUG_clean_linker_0, # of connection points: 2
#     Edge 11, Type (0, 0), BuildingBlock: OJICUG_clean_linker_0, # of connection points: 2
#     Edge 12, Type (0, 0), BuildingBlock: OJICUG_clean_linker_0, # of connection points: 2
#     Edge 13, Type (0, 0), BuildingBlock: OJICUG_clean_linker_0, # of connection points: 2
#     Edge 14, Type (0, 0), BuildingBlock: OJICUG_clean_linker_0, # of connection points: 2
#     Edge 15, Type (0, 0), BuildingBlock: OJICUG_clean_linker_0, # of connection points: 2
#     Edge 16, Type (0, 0), BuildingBlock: OJICUG_clean_linker_0, # of connection points: 2
#     Edge 17, Type (0, 0), BuildingBlock: OJICUG_clean_linker_0, # of connection points: 2
#     Edge 18, Type (0, 0), BuildingBlock: OJICUG_clean_linker_0, # of connection points: 2
#     Edge 19, Type (0, 0), BuildingBlock: OJICUG_clean_linker_0, # of connection points: 2
#     Edge 20, Type (0, 0), BuildingBlock: OJICUG_clean_linker_0, # of connection points: 2
#     Edge 21, Type (0, 0), BuildingBlock: OJICUG_clean_linker_0, # of connection points: 2
#     Edge 22, Type (0, 0), BuildingBlock: OJICUG_clean_linker_0, # of connection points: 2
#     Edge 23, Type (0, 0), BuildingBlock: OJICUG_clean_linker_0, # of connection points: 2
#     Edge 24, Type (0, 0), BuildingBlock: OJICUG_clean_linker_0, # of connection points: 2
#     Edge 25, Type (0, 0), BuildingBlock: OJICUG_clean_linker_0, # of connection points: 2
#     Edge 26, Type (0, 0), BuildingBlock: OJICUG_clean_linker_0, # of connection points: 2
#     Edge 27, Type (0, 0), BuildingBlock: OJICUG_clean_linker_0, # of connection points: 2
#     Edge 28, Type (0, 0), BuildingBlock: OJICUG_clean_linker_0, # of connection points: 2
#     Edge 29, Type (0, 0), BuildingBlock: OJICUG_clean_linker_0, # of connection points: 2
#     Edge 30, Type (0, 0), BuildingBlock: OJICUG_clean_linker_0, # of connection points: 2
#     Edge 31, Type (0, 0), BuildingBlock: OJICUG_clean_linker_0, # of connection points: 2
# Relax obj value: 0.284
# Max RMSD: 0.260
# Mean RMSD: 0.260
data_MOF--net-wht--node1-OJICUG_clean_sbu_0--edge1-OJICUG_clean_linker_0
_symmetry_space_group_name_H-M    P1
_symmetry_Int_Tables_number       1
_symmetry_cell_setting            triclinic
loop_
_symmetry_equiv_pos_as_xyz
'x, y, z'
_cell_length_a     20.253166
_cell_length_b     20.194471
_cell_length_c     37.641809
_cell_angle_alpha  90.498985
_cell_angle_beta   90.111338
_cell_angle_gamma 89.736352
loop_
_atom_site_label
_atom_site_type_symbol
_atom_site_fract_x
_atom_site_fract_y
_atom_site_fract_z
_atom_type_partial_charge
Sc0 Sc 0.02238 0.15842 0.11849 0.0
Sc1 Sc 0.16709 0.22808 0.14928 0.0
Sc2 Sc 0.01646 0.31064 0.16139 0.0
O3 O 0.06862 0.23283 0.14391 0.0
C4 C 0.93026 0.27575 0.09485 0.0
C5 C 0.13642 0.19102 0.06843 0.0
C6 C 0.14467 0.37689 0.1265 0.0
C7 C 0.15002 0.08338 0.14931 0.0
C8 C 0.93834 0.1777 0.18622 0.0
C9 C 0.12443 0.29744 0.22254 0.0
O10 O 0.93797 0.21444 0.10037 0.0
O11 O 0.17699 0.19196 0.09454 0.0
O12 O 0.0857 0.38219 0.1385 0.0
O13 O 0.10132 0.08715 0.12807 0.0
O14 O 0.94572 0.24101 0.18528 0.0
O15 O 0.16645 0.26702 0.20314 0.0
O16 O 0.96952 0.13705 0.16601 0.0
O17 O 0.16274 0.13063 0.17029 0.0
O18 O 0.06728 0.31351 0.21146 0.0
O19 O 0.07421 0.18609 0.07206 0.0
O20 O 0.96199 0.31884 0.11245 0.0
O21 O 0.17825 0.32407 0.12869 0.0
Sc22 Sc 0.17339 0.53496 0.4111 0.0
Sc23 Sc 0.26434 0.68059 0.40018 0.0
Sc24 Sc 0.32914 0.52946 0.37288 0.0
O25 O 0.25513 0.58168 0.39528 0.0
C26 C 0.29865 0.45063 0.44127 0.0
C27 C 0.18902 0.6443 0.47196 0.0
C28 C 0.4082 0.65207 0.40723 0.0
C29 C 0.11729 0.66614 0.37329 0.0
C30 C 0.20858 0.44167 0.34701 0.0
C31 C 0.30916 0.64435 0.32066 0.0
O32 O 0.23623 0.46177 0.43862 0.0
O33 O 0.2223 0.68459 0.45333 0.0
O34 O 0.40385 0.60222 0.38653 0.0
O35 O 0.10785 0.60741 0.38489 0.0
O36 O 0.26995 0.4491 0.35222 0.0
O37 O 0.30502 0.68637 0.34626 0.0
O38 O 0.16601 0.47615 0.36351 0.0
O39 O 0.17137 0.6963 0.3771 0.0
O40 O 0.31167 0.58202 0.32503 0.0
O41 O 0.16988 0.58855 0.46021 0.0
O42 O 0.34202 0.47674 0.42129 0.0
O43 O 0.35885 0.67366 0.42408 0.0
Sc44 Sc 0.94124 0.8259 0.61827 0.0
Sc45 Sc 0.80359 0.72905 0.63141 0.0
Sc46 Sc 0.95756 0.67683 0.66132 0.0
O47 O 0.9003 0.74467 0.63783 0.0
C48 C 0.04773 0.71618 0.59855 0.0
C49 C 0.84807 0.78551 0.55649 0.0
C50 C 0.85362 0.58788 0.61806 0.0
C51 C 0.79781 0.87799 0.644 0.0
C52 C 0.01523 0.81573 0.68944 0.0
C53 C 0.83567 0.67638 0.71079 0.0
O54 O 0.03328 0.77694 0.60383 0.0
O55 O 0.80206 0.77036 0.57804 0.0
O56 O 0.89781 0.59267 0.6422 0.0
O57 O 0.85346 0.8852 0.62871 0.0
O58 O 0.02159 0.753 0.68529 0.0
O59 O 0.79593 0.68443 0.68456 0.0
O60 O 0.9783 0.85066 0.66962 0.0
O61 O 0.77652 0.82225 0.65389 0.0
O62 O 0.8979 0.6819 0.70773 0.0
O63 O 0.90587 0.80082 0.56659 0.0
O64 O 0.01836 0.6698 0.61476 0.0
O65 O 0.82386 0.63766 0.6059 0.0
Sc66 Sc 0.65079 0.44092 0.86283 0.0
Sc67 Sc 0.7382 0.30474 0.89087 0.0
Sc68 Sc 0.80066 0.4644 0.9054 0.0
O69 O 0.73048 0.40341 0.88712 0.0
C70 C 0.75522 0.54621 0.83926 0.0
C71 C 0.69605 0.33289 0.81068 0.0
C72 C 0.88208 0.34599 0.86789 0.0
C73 C 0.59196 0.30604 0.89386 0.0
C74 C 0.65962 0.52404 0.93225 0.0
C75 C 0.80054 0.35353 0.96497 0.0
O76 O 0.69541 0.53153 0.84479 0.0
O77 O 0.70251 0.29183 0.8362 0.0
O78 O 0.88076 0.4041 0.88186 0.0
O79 O 0.59021 0.35452 0.8726 0.0
O80 O 0.72301 0.52719 0.93003 0.0
O81 O 0.77711 0.30874 0.94453 0.0
O82 O 0.6242 0.48797 0.91173 0.0
O83 O 0.64195 0.29537 0.91299 0.0
O84 O 0.80896 0.41293 0.95502 0.0
O85 O 0.68334 0.39405 0.81534 0.0
O86 O 0.80175 0.52032 0.857 0.0
O87 O 0.83373 0.30666 0.86914 0.0
Sc88 Sc 0.51708 0.17492 0.57274 0.0
Sc89 Sc 0.67094 0.2503 0.5848 0.0
Sc90 Sc 0.5295 0.32645 0.61609 0.0
O91 O 0.5724 0.25019 0.59031 0.0
C92 C 0.44304 0.31119 0.54846 0.0
C93 C 0.62477 0.18317 0.51151 0.0
C94 C 0.65868 0.396 0.58432 0.0
C95 C 0.64264 0.10289 0.60771 0.0
C96 C 0.43431 0.21302 0.64018 0.0
C97 C 0.64378 0.28859 0.66569 0.0
O98 O 0.44847 0.24764 0.54923 0.0
O99 O 0.66799 0.21135 0.53102 0.0
O100 O 0.61027 0.39427 0.60571 0.0
O101 O 0.58376 0.10014 0.59534 0.0
O102 O 0.44423 0.27404 0.63507 0.0
O103 O 0.68363 0.28614 0.63939 0.0
O104 O 0.46315 0.16885 0.62178 0.0
O105 O 0.67823 0.15406 0.60561 0.0
O106 O 0.58175 0.29658 0.66234 0.0
O107 O 0.56703 0.16994 0.52249 0.0
O108 O 0.47578 0.35022 0.56881 0.0
O109 O 0.67047 0.34783 0.56371 0.0
Sc110 Sc 0.15035 0.04765 0.86643 0.0
Sc111 Sc 0.25434 0.17814 0.84736 0.0
Sc112 Sc 0.29918 0.01611 0.82408 0.0
O113 O 0.23402 0.08091 0.8451 0.0
C114 C 0.25313 0.93757 0.89089 0.0
C115 C 0.19509 0.14982 0.92345 0.0
C116 C 0.39231 0.12014 0.8644 0.0
C117 C 0.10591 0.1896 0.8346 0.0
C118 C 0.15785 0.96137 0.798 0.0
C119 C 0.30792 0.13213 0.77008 0.0
O120 O 0.19375 0.95676 0.88645 0.0
O121 O 0.21385 0.19097 0.9002 0.0
O122 O 0.38562 0.07129 0.84298 0.0
O123 O 0.09553 0.13612 0.85146 0.0
O124 O 0.22045 0.95477 0.80115 0.0
O125 O 0.2982 0.17568 0.79441 0.0
O126 O 0.12426 0.00118 0.81723 0.0
O127 O 0.16271 0.2071 0.82442 0.0
O128 O 0.30207 0.07029 0.77544 0.0
O129 O 0.17599 0.09159 0.91613 0.0
O130 O 0.30051 0.95969 0.87234 0.0
O131 O 0.34518 0.15807 0.87286 0.0
Sc132 Sc 0.45288 0.80573 0.06908 0.0
Sc133 Sc 0.30024 0.74791 0.09754 0.0
Sc134 Sc 0.44202 0.65687 0.1127 0.0
O135 O 0.39795 0.73634 0.09232 0.0
C136 C 0.51576 0.66771 0.04154 0.0
C137 C 0.33141 0.80249 0.01859 0.0
C138 C 0.30124 0.59892 0.08684 0.0
C139 C 0.34432 0.89126 0.11178 0.0
C140 C 0.5447 0.76932 0.13205 0.0
C141 C 0.34613 0.69509 0.17333 0.0
O142 O 0.51931 0.73079 0.04513 0.0
O143 O 0.2914 0.79181 0.04428 0.0
O144 O 0.35658 0.59444 0.1029 0.0
O145 O 0.39044 0.88809 0.08867 0.0
O146 O 0.53238 0.70822 0.12692 0.0
O147 O 0.29984 0.70718 0.15117 0.0
O148 O 0.51351 0.81466 0.11575 0.0
O149 O 0.31405 0.84084 0.12245 0.0
O150 O 0.40512 0.68272 0.16397 0.0
O151 O 0.39376 0.79981 0.02231 0.0
O152 O 0.48041 0.63205 0.06161 0.0
O153 O 0.27891 0.65325 0.07519 0.0
Sc154 Sc 0.67157 0.94985 0.32054 0.0
Sc155 Sc 0.76327 0.80317 0.32953 0.0
Sc156 Sc 0.82784 0.95281 0.3589 0.0
O157 O 0.7538 0.902 0.33576 0.0
C158 C 0.79594 0.0359 0.29187 0.0
C159 C 0.68686 0.84276 0.25837 0.0
C160 C 0.90726 0.83145 0.3228 0.0
C161 C 0.61638 0.81751 0.35676 0.0
C162 C 0.70692 0.03997 0.38603 0.0
C163 C 0.80948 0.83497 0.40933 0.0
O164 O 0.73374 0.02383 0.29388 0.0
O165 O 0.72109 0.80194 0.27641 0.0
O166 O 0.90291 0.88089 0.34379 0.0
O167 O 0.60668 0.8769 0.34609 0.0
O168 O 0.7683 0.03168 0.38117 0.0
O169 O 0.80404 0.79426 0.38325 0.0
O170 O 0.66431 0.00717 0.36874 0.0
O171 O 0.67038 0.78708 0.35229 0.0
O172 O 0.81215 0.89745 0.40587 0.0
O173 O 0.66733 0.89803 0.27082 0.0
O174 O 0.83955 0.009 0.31164 0.0
O175 O 0.85784 0.81018 0.30593 0.0
C176 C 0.85237 0.0953 0.20271 0.0
C177 C 0.89263 0.14912 0.2124 0.0
H178 H 0.78754 0.01861 0.22057 0.0
C179 C 0.89358 0.17066 0.24794 0.0
H180 H 0.85082 0.07787 0.17542 0.0
C181 C 0.85866 0.13581 0.27378 0.0
C182 C 0.82047 0.08051 0.26423 0.0
H183 H 0.92461 0.21167 0.25608 0.0
H184 H 0.8635 0.1504 0.30143 0.0
C185 C 0.81584 0.06179 0.22838 0.0
C186 C 0.32874 0.43502 0.50455 0.0
C187 C 0.32364 0.40868 0.4701 0.0
H188 H 0.37127 0.4248 0.5564 0.0
C189 C 0.35338 0.34735 0.46225 0.0
H190 H 0.30716 0.48287 0.5109 0.0
C191 C 0.38923 0.3135 0.48836 0.0
C192 C 0.39766 0.34168 0.52233 0.0
H193 H 0.35096 0.32689 0.43558 0.0
H194 H 0.4134 0.26724 0.48137 0.0
C195 C 0.36592 0.4021 0.53037 0.0
C196 C 0.02662 0.91023 0.73188 0.0
C197 C 0.05192 0.85048 0.71805 0.0
H198 H 0.0398 -0.00867 0.76785 0.0
C199 C 0.11254 0.82647 0.73103 0.0
H200 H 0.97988 0.92994 0.7226 0.0
C201 C 0.14775 0.86255 0.75683 0.0
C202 C 0.12212 0.92237 0.77059 0.0
H203 H 0.13333 0.78069 0.72074 0.0
H204 H 0.19466 0.84342 0.76618 0.0
C205 C 0.06093 0.94537 0.75796 0.0
C206 C 0.52918 0.57339 -0.00084 0.0
C207 C 0.55336 0.63337 0.01302 0.0
H208 H 0.54342 0.49267 0.96304 0.0
C209 C 0.61361 0.65784 0.00012 0.0
H210 H 0.48284 0.55323 0.00838 0.0
C211 C 0.64938 0.6221 0.97426 0.0
C212 C 0.62453 0.56228 0.96032 0.0
H213 H 0.63361 0.70378 0.01047 0.0
H214 H 0.69583 0.64163 0.96485 0.0
C215 C 0.56391 0.5387 0.97302 0.0
C216 C 0.21205 0.32456 0.26765 0.0
C217 C 0.145 0.32296 0.25795 0.0
H218 H 0.28485 0.36311 0.30342 0.0
C219 C 0.09849 0.3538 0.28045 0.0
H220 H 0.24923 0.30123 0.25104 0.0
C221 C 0.11891 0.38946 0.31043 0.0
C222 C 0.18636 0.39522 0.31869 0.0
H223 H 0.04632 0.35301 0.27406 0.0
H224 H 0.08185 0.4149 0.32622 0.0
C225 C 0.23251 0.36037 0.29767 0.0
C226 C 0.12152 0.74823 0.54786 0.0
C227 C 0.09551 0.69894 0.57005 0.0
H228 H 0.17242 0.76972 0.49939 0.0
C229 C 0.1097 0.63226 0.56221 0.0
H230 H 0.11194 0.80017 0.5532 0.0
C231 C 0.14426 0.61502 0.53146 0.0
C232 C 0.16568 0.66398 0.5078 0.0
H233 H 0.09126 0.59298 0.57885 0.0
H234 H 0.15152 0.56295 0.52538 0.0
C235 C 0.15645 0.73089 0.51704 0.0
C236 C 0.83542 0.61549 0.80564 0.0
C237 C 0.7716 0.58959 0.80893 0.0
H238 H 0.90497 0.66446 0.77269 0.0
C239 C 0.72608 0.59962 0.7811 0.0
H240 H 0.87152 0.60926 0.82664 0.0
C241 C 0.74546 0.63094 0.7497 0.0
C242 C 0.81063 0.65321 0.74564 0.0
H243 H 0.67644 0.58016 0.78274 0.0
H244 H 0.7103 0.63487 0.7281 0.0
C245 C 0.85456 0.64716 0.77453 0.0
C246 C 0.85635 0.24944 0.04299 0.0
C247 C 0.88795 0.29682 0.06469 0.0
H248 H 0.80359 0.22998 -0.00524 0.0
C249 C 0.88395 0.36388 0.05516 0.0
H250 H 0.85804 0.19735 0.04956 0.0
C251 C 0.85266 0.38261 0.02365 0.0
C252 C 0.82457 0.33477 0.00084 0.0
H253 H 0.90735 0.4018 0.07128 0.0
H254 H 0.8528 0.43448 0.01655 0.0
C255 C 0.82503 0.26818 0.01147 0.0
C256 C 0.71116 0.15598 0.4658 0.0
C257 C 0.64443 0.15716 0.47605 0.0
H258 H 0.78328 0.11836 0.42934 0.0
C259 C 0.59764 0.12598 0.45392 0.0
H260 H 0.74856 0.17963 0.48206 0.0
C261 C 0.61757 0.09066 0.42368 0.0
C262 C 0.6848 0.08558 0.41482 0.0
H263 H 0.5457 0.12634 0.46074 0.0
H264 H 0.58041 0.06501 0.40815 0.0
C265 C 0.73112 0.12053 0.43557 0.0
C266 C 0.35008 0.10647 0.70877 0.0
C267 C 0.33201 0.15366 0.73478 0.0
H268 H 0.39592 0.08803 0.65847 0.0
C269 C 0.34164 0.22111 0.72755 0.0
H270 H 0.34306 0.05406 0.71322 0.0
C271 C 0.37168 0.24061 0.69592 0.0
C272 C 0.39312 0.19312 0.67083 0.0
H273 H 0.32801 0.25888 0.74681 0.0
H274 H 0.38055 0.29286 0.69189 0.0
C275 C 0.38041 0.12594 0.67724 0.0
C276 C 0.24176 0.8509 0.97991 0.0
C277 C 0.30627 0.82598 0.98373 0.0
H278 H 0.17402 0.90542 0.94741 0.0
C279 C 0.34992 0.83073 0.95476 0.0
H280 H 0.20688 0.84815 0.00162 0.0
C281 C 0.33137 0.86381 0.92388 0.0
C282 C 0.26846 0.89269 0.92092 0.0
H283 H 0.39978 0.81134 0.95645 0.0
H284 H 0.36739 0.86892 0.90285 0.0
C285 C 0.223 0.88383 0.94879 0.0
C286 C 0.60213 0.85496 0.16923 0.0
C287 C 0.59218 0.78798 0.16046 0.0
H288 H 0.64084 0.92469 0.20671 0.0
C289 C 0.62236 0.7392 0.18164 0.0
H290 H 0.58032 0.89391 0.15339 0.0
C291 C 0.6574 0.75696 0.21236 0.0
C292 C 0.66264 0.8238 0.22256 0.0
H293 H 0.61617 0.68708 0.17556 0.0
H294 H 0.67683 0.71818 0.22916 0.0
C295 C 0.63683 0.87262 0.19991 0.0
C296 C 0.14388 0.21854 0.97035 0.0
C297 C 0.19077 0.1709 0.9604 0.0
H298 H 0.08936 0.26171 0.0134 0.0
C299 C 0.22627 0.13631 0.9864 0.0
H300 H 0.11578 0.24507 0.95043 0.0
C301 C 0.21259 0.147 0.02228 0.0
C302 C 0.16162 0.1905 0.03213 0.0
H303 H 0.26243 0.09905 0.97886 0.0
H304 H 0.23842 0.11796 0.04202 0.0
C305 C 0.12873 0.2277 0.00612 0.0
C306 C 0.37706 0.71498 0.23653 0.0
C307 C 0.3311 0.69135 0.21143 0.0
H308 H 0.40467 0.72029 0.2916 0.0
C309 C 0.27417 0.65892 0.22308 0.0
H310 H 0.42127 0.74033 0.22802 0.0
C311 C 0.26565 0.64627 0.25919 0.0
C312 C 0.31283 0.6678 0.28406 0.0
H313 H 0.2384 0.63996 0.20417 0.0
H314 H 0.22334 0.61779 0.26763 0.0
C315 C 0.36752 0.704 0.27273 0.0
C316 C 0.87483 0.78384 0.45745 0.0
C317 C 0.81475 0.80976 0.44543 0.0
H318 H 0.93247 0.75609 0.50268 0.0
C319 C 0.76326 0.82179 0.46955 0.0
H320 H 0.91525 0.77521 0.43913 0.0
C321 C 0.77255 0.81017 0.50574 0.0
C322 C 0.83415 0.78827 0.51817 0.0
H323 H 0.71684 0.8427 0.46054 0.0
H324 H 0.73304 0.822 0.52412 0.0
C325 C 0.88467 0.7736 0.49368 0.0
C326 C 0.71799 0.33407 0.71215 0.0
C327 C 0.66989 0.28818 0.70186 0.0
H328 H 0.76348 0.38481 0.7559 0.0
C329 C 0.63957 0.24851 0.72751 0.0
H330 H 0.742 0.36486 0.69267 0.0
C331 C 0.65366 0.25806 0.76345 0.0
C332 C 0.69622 0.30906 0.77393 0.0
H333 H 0.60253 0.21252 0.71983 0.0
H334 H 0.62723 0.22948 0.78297 0.0
C335 C 0.73025 0.3453 0.74813 0.0
C336 C 0.21557 0.02077 0.10407 0.0
C337 C 0.20446 0.03738 0.13997 0.0
H338 H 0.27326 0.96483 0.0667 0.0
C339 C 0.24919 0.01468 0.16573 0.0
H340 H 0.18283 0.03866 0.08345 0.0
C341 C 0.30097 0.97197 0.156 0.0
C342 C 0.31049 0.95374 0.12022 0.0
H343 H 0.24247 0.02771 0.19347 0.0
H344 H 0.33128 0.95015 0.1766 0.0
C345 C 0.26854 0.98014 0.09426 0.0
C346 C 0.45351 0.7655 0.39806 0.0
C347 C 0.46432 0.69686 0.40203 0.0
H348 H 0.49262 0.85806 0.37983 0.0
C349 C 0.52615 0.67021 0.39389 0.0
H350 H 0.40552 0.78709 0.40361 0.0
C351 C 0.57543 0.71045 0.38047 0.0
C352 C 0.5639 0.77847 0.37417 0.0
H353 H 0.53548 0.61756 0.39641 0.0
H354 H 0.62198 0.68699 0.37368 0.0
C355 C 0.50287 0.80601 0.38397 0.0
C356 C 0.73729 0.05263 0.64023 0.0
C357 C 0.67499 0.04451 0.62387 0.0
H358 H 0.82511 0.00578 0.65947 0.0
C359 C 0.64885 0.98054 0.62057 0.0
H360 H 0.75858 0.10126 0.64416 0.0
C361 C 0.68693 0.92562 0.63055 0.0
C362 C 0.75167 0.93421 0.64349 0.0
H363 H 0.60097 0.97266 0.60842 0.0
H364 H 0.66781 0.87641 0.62547 0.0
C365 C 0.77552 -0.00192 0.64942 0.0
C366 C 0.48897 0.18079 0.84441 0.0
C367 C 0.45734 0.14787 0.87213 0.0
H368 H 0.55327 0.25957 0.82996 0.0
C369 C 0.47422 0.16346 0.9075 0.0
H370 H 0.4751 0.17123 0.81701 0.0
C371 C 0.51984 0.21365 0.91497 0.0
C372 C 0.54656 0.25064 0.88716 0.0
H373 H 0.44866 0.14004 0.92927 0.0
H374 H 0.53118 0.22612 0.94235 0.0
C375 C 0.53228 0.23248 0.85187 0.0
C376 C 0.80942 0.5054 0.5752 0.0
C377 C 0.81991 0.5252 0.61068 0.0
H378 H 0.74988 0.44856 0.53883 0.0
C379 C 0.7789 0.50019 0.63726 0.0
H380 H 0.83907 0.52607 0.55412 0.0
C381 C 0.7257 0.45963 0.62831 0.0
C382 C 0.71351 0.44163 0.5927 0.0
H383 H 0.7844 0.51667 0.66459 0.0
H384 H 0.69354 0.44296 0.64935 0.0
C385 C 0.75744 0.46272 0.56636 0.0
C386 C 0.0608 0.29957 0.8524 0.0
C387 C 0.05267 0.23902 0.83407 0.0
H388 H 0.01235 0.38209 0.87797 0.0
C389 C -0.00967 0.22135 0.82152 0.0
H390 H 0.10884 0.3136 0.86263 0.0
C391 C 0.93591 0.26108 0.82942 0.0
C392 C 0.94235 0.31787 0.85132 0.0
H393 H 0.98315 0.17499 0.80735 0.0
H394 H 0.88782 0.24432 0.82054 0.0
C395 C 0.00576 0.33875 0.86121 0.0
C396 C 0.18993 0.55152 0.09892 0.0
C397 C 0.25631 0.5421 0.08881 0.0
H398 H 0.10201 0.50661 0.11945 0.0
C399 C 0.28222 0.47799 0.08712 0.0
H400 H 0.16909 0.60093 0.1008 0.0
C401 C 0.24401 0.42448 0.09737 0.0
C402 C 0.17929 0.43387 0.11047 0.0
H403 H 0.33312 0.46953 0.0794 0.0
H404 H 0.26689 0.37591 0.09658 0.0
C405 C 0.15171 0.49774 0.10991 0.0
C406 C 0.95315 0.71802 0.33244 0.0
C407 C 0.96373 0.78642 0.32774 0.0
H408 H -0.00707 0.62579 0.35134 0.0
C409 C 0.02578 0.81282 0.33517 0.0
H410 H 0.90499 0.69667 0.32749 0.0
C411 C 0.07556 0.77261 0.3486 0.0
C412 C 0.06432 0.70492 0.35568 0.0
H413 H 0.0349 0.86531 0.33212 0.0
H414 H 0.12228 0.79592 0.35483 0.0
C415 C 0.00301 0.67757 0.34658 0.0
loop_
_geom_bond_atom_site_label_1
_geom_bond_atom_site_label_2
_geom_bond_distance
_geom_bond_site_symmetry_2
_ccdc_geom_bond_type
Sc0 O3 2.025 . S
Sc0 O10 2.105 1_455 S
Sc0 O13 2.105 . S
Sc0 O16 2.105 1_455 S
Sc0 O19 2.105 . S
Sc1 O3 2.025 . S
Sc1 O11 2.105 . S
Sc1 O15 2.105 . S
Sc1 O17 2.105 . S
Sc1 O21 2.105 . S
Sc2 O3 2.025 . S
Sc2 O12 2.105 . S
Sc2 O14 2.105 1_455 S
Sc2 O18 2.105 . S
Sc2 O20 2.105 1_455 S
O3 Sc0 2.025 . S
O3 Sc1 2.025 . S
O3 Sc2 2.025 . S
C4 O10 1.268 . S
C4 O20 1.268 . S
C5 O11 1.268 . S
C5 O19 1.268 . S
C6 O12 1.268 . S
C6 O21 1.268 . S
C7 O13 1.268 . S
C7 O17 1.268 . S
C8 O14 1.268 . S
C8 O16 1.268 . S
C9 O15 1.268 . S
C9 O18 1.268 . S
O10 Sc0 2.105 1_655 S
O10 C4 1.268 . S
O11 Sc1 2.105 . S
O11 C5 1.268 . S
O12 Sc2 2.105 . S
O12 C6 1.268 . S
O13 Sc0 2.105 . S
O13 C7 1.268 . S
O14 Sc2 2.105 1_655 S
O14 C8 1.268 . S
O15 Sc1 2.105 . S
O15 C9 1.268 . S
O16 Sc0 2.105 1_655 S
O16 C8 1.268 . S
O17 Sc1 2.105 . S
O17 C7 1.268 . S
O18 Sc2 2.105 . S
O18 C9 1.268 . S
O19 Sc0 2.105 . S
O19 C5 1.268 . S
O20 Sc2 2.105 1_655 S
O20 C4 1.268 . S
O21 Sc1 2.105 . S
O21 C6 1.268 . S
Sc22 O25 2.025 . S
Sc22 O32 2.105 . S
Sc22 O35 2.105 . S
Sc22 O38 2.105 . S
Sc22 O41 2.105 . S
Sc23 O25 2.025 . S
Sc23 O33 2.105 . S
Sc23 O37 2.105 . S
Sc23 O39 2.105 . S
Sc23 O43 2.105 . S
Sc24 O25 2.025 . S
Sc24 O34 2.105 . S
Sc24 O36 2.105 . S
Sc24 O40 2.105 . S
Sc24 O42 2.105 . S
O25 Sc22 2.025 . S
O25 Sc23 2.025 . S
O25 Sc24 2.025 . S
C26 O32 1.268 . S
C26 O42 1.268 . S
C27 O33 1.268 . S
C27 O41 1.268 . S
C28 O34 1.268 . S
C28 O43 1.268 . S
C29 O35 1.268 . S
C29 O39 1.268 . S
C30 O36 1.268 . S
C30 O38 1.268 . S
C31 O37 1.268 . S
C31 O40 1.268 . S
O32 Sc22 2.105 . S
O32 C26 1.268 . S
O33 Sc23 2.105 . S
O33 C27 1.268 . S
O34 Sc24 2.105 . S
O34 C28 1.268 . S
O35 Sc22 2.105 . S
O35 C29 1.268 . S
O36 Sc24 2.105 . S
O36 C30 1.268 . S
O37 Sc23 2.105 . S
O37 C31 1.268 . S
O38 Sc22 2.105 . S
O38 C30 1.268 . S
O39 Sc23 2.105 . S
O39 C29 1.268 . S
O40 Sc24 2.105 . S
O40 C31 1.268 . S
O41 Sc22 2.105 . S
O41 C27 1.268 . S
O42 Sc24 2.105 . S
O42 C26 1.268 . S
O43 Sc23 2.105 . S
O43 C28 1.268 . S
Sc44 O47 2.025 . S
Sc44 O54 2.105 1_655 S
Sc44 O57 2.105 . S
Sc44 O60 2.105 1_655 S
Sc44 O63 2.105 . S
Sc45 O47 2.025 . S
Sc45 O55 2.105 . S
Sc45 O59 2.105 . S
Sc45 O61 2.105 . S
Sc45 O65 2.105 . S
Sc46 O47 2.025 . S
Sc46 O56 2.105 . S
Sc46 O58 2.105 1_655 S
Sc46 O62 2.105 . S
Sc46 O64 2.105 1_655 S
O47 Sc44 2.025 . S
O47 Sc45 2.025 . S
O47 Sc46 2.025 . S
C48 O54 1.268 . S
C48 O64 1.268 . S
C49 O55 1.268 . S
C49 O63 1.268 . S
C50 O56 1.268 . S
C50 O65 1.268 . S
C51 O57 1.268 . S
C51 O61 1.268 . S
C52 O58 1.268 . S
C52 O60 1.268 . S
C53 O59 1.268 . S
C53 O62 1.268 . S
O54 Sc44 2.105 1_455 S
O54 C48 1.268 . S
O55 Sc45 2.105 . S
O55 C49 1.268 . S
O56 Sc46 2.105 . S
O56 C50 1.268 . S
O57 Sc44 2.105 . S
O57 C51 1.268 . S
O58 Sc46 2.105 1_455 S
O58 C52 1.268 . S
O59 Sc45 2.105 . S
O59 C53 1.268 . S
O60 Sc44 2.105 1_455 S
O60 C52 1.268 . S
O61 Sc45 2.105 . S
O61 C51 1.268 . S
O62 Sc46 2.105 . S
O62 C53 1.268 . S
O63 Sc44 2.105 . S
O63 C49 1.268 . S
O64 Sc46 2.105 1_455 S
O64 C48 1.268 . S
O65 Sc45 2.105 . S
O65 C50 1.268 . S
Sc66 O69 2.025 . S
Sc66 O76 2.105 . S
Sc66 O79 2.105 . S
Sc66 O82 2.105 . S
Sc66 O85 2.105 . S
Sc67 O69 2.025 . S
Sc67 O77 2.105 . S
Sc67 O81 2.105 . S
Sc67 O83 2.105 . S
Sc67 O87 2.105 . S
Sc68 O69 2.025 . S
Sc68 O78 2.105 . S
Sc68 O80 2.105 . S
Sc68 O84 2.105 . S
Sc68 O86 2.105 . S
O69 Sc66 2.025 . S
O69 Sc67 2.025 . S
O69 Sc68 2.025 . S
C70 O76 1.268 . S
C70 O86 1.268 . S
C71 O77 1.268 . S
C71 O85 1.268 . S
C72 O78 1.268 . S
C72 O87 1.268 . S
C73 O79 1.268 . S
C73 O83 1.268 . S
C74 O80 1.268 . S
C74 O82 1.268 . S
C75 O81 1.268 . S
C75 O84 1.268 . S
O76 Sc66 2.105 . S
O76 C70 1.268 . S
O77 Sc67 2.105 . S
O77 C71 1.268 . S
O78 Sc68 2.105 . S
O78 C72 1.268 . S
O79 Sc66 2.105 . S
O79 C73 1.268 . S
O80 Sc68 2.105 . S
O80 C74 1.268 . S
O81 Sc67 2.105 . S
O81 C75 1.268 . S
O82 Sc66 2.105 . S
O82 C74 1.268 . S
O83 Sc67 2.105 . S
O83 C73 1.268 . S
O84 Sc68 2.105 . S
O84 C75 1.268 . S
O85 Sc66 2.105 . S
O85 C71 1.268 . S
O86 Sc68 2.105 . S
O86 C70 1.268 . S
O87 Sc67 2.105 . S
O87 C72 1.268 . S
Sc88 O91 2.025 . S
Sc88 O98 2.105 . S
Sc88 O101 2.105 . S
Sc88 O104 2.105 . S
Sc88 O107 2.105 . S
Sc89 O91 2.025 . S
Sc89 O99 2.105 . S
Sc89 O103 2.105 . S
Sc89 O105 2.105 . S
Sc89 O109 2.105 . S
Sc90 O91 2.025 . S
Sc90 O100 2.105 . S
Sc90 O102 2.105 . S
Sc90 O106 2.105 . S
Sc90 O108 2.105 . S
O91 Sc88 2.025 . S
O91 Sc89 2.025 . S
O91 Sc90 2.025 . S
C92 O98 1.268 . S
C92 O108 1.268 . S
C93 O99 1.268 . S
C93 O107 1.268 . S
C94 O100 1.268 . S
C94 O109 1.268 . S
C95 O101 1.268 . S
C95 O105 1.268 . S
C96 O102 1.268 . S
C96 O104 1.268 . S
C97 O103 1.268 . S
C97 O106 1.268 . S
O98 Sc88 2.105 . S
O98 C92 1.268 . S
O99 Sc89 2.105 . S
O99 C93 1.268 . S
O100 Sc90 2.105 . S
O100 C94 1.268 . S
O101 Sc88 2.105 . S
O101 C95 1.268 . S
O102 Sc90 2.105 . S
O102 C96 1.268 . S
O103 Sc89 2.105 . S
O103 C97 1.268 . S
O104 Sc88 2.105 . S
O104 C96 1.268 . S
O105 Sc89 2.105 . S
O105 C95 1.268 . S
O106 Sc90 2.105 . S
O106 C97 1.268 . S
O107 Sc88 2.105 . S
O107 C93 1.268 . S
O108 Sc90 2.105 . S
O108 C92 1.268 . S
O109 Sc89 2.105 . S
O109 C94 1.268 . S
Sc110 O113 2.025 . S
Sc110 O120 2.105 1_545 S
Sc110 O123 2.105 . S
Sc110 O126 2.105 1_545 S
Sc110 O129 2.105 . S
Sc111 O113 2.025 . S
Sc111 O121 2.105 . S
Sc111 O125 2.105 . S
Sc111 O127 2.105 . S
Sc111 O131 2.105 . S
Sc112 O113 2.025 . S
Sc112 O122 2.105 . S
Sc112 O124 2.105 1_545 S
Sc112 O128 2.105 . S
Sc112 O130 2.105 1_545 S
O113 Sc110 2.025 . S
O113 Sc111 2.025 . S
O113 Sc112 2.025 . S
C114 O120 1.268 . S
C114 O130 1.268 . S
C115 O121 1.268 . S
C115 O129 1.268 . S
C116 O122 1.268 . S
C116 O131 1.268 . S
C117 O123 1.268 . S
C117 O127 1.268 . S
C118 O124 1.268 . S
C118 O126 1.268 . S
C119 O125 1.268 . S
C119 O128 1.268 . S
O120 Sc110 2.105 1_565 S
O120 C114 1.268 . S
O121 Sc111 2.105 . S
O121 C115 1.268 . S
O122 Sc112 2.105 . S
O122 C116 1.268 . S
O123 Sc110 2.105 . S
O123 C117 1.268 . S
O124 Sc112 2.105 1_565 S
O124 C118 1.268 . S
O125 Sc111 2.105 . S
O125 C119 1.268 . S
O126 Sc110 2.105 1_565 S
O126 C118 1.268 . S
O127 Sc111 2.105 . S
O127 C117 1.268 . S
O128 Sc112 2.105 . S
O128 C119 1.268 . S
O129 Sc110 2.105 . S
O129 C115 1.268 . S
O130 Sc112 2.105 1_565 S
O130 C114 1.268 . S
O131 Sc111 2.105 . S
O131 C116 1.268 . S
Sc132 O135 2.025 . S
Sc132 O142 2.105 . S
Sc132 O145 2.105 . S
Sc132 O148 2.105 . S
Sc132 O151 2.105 . S
Sc133 O135 2.025 . S
Sc133 O143 2.105 . S
Sc133 O147 2.105 . S
Sc133 O149 2.105 . S
Sc133 O153 2.105 . S
Sc134 O135 2.025 . S
Sc134 O144 2.105 . S
Sc134 O146 2.105 . S
Sc134 O150 2.105 . S
Sc134 O152 2.105 . S
O135 Sc132 2.025 . S
O135 Sc133 2.025 . S
O135 Sc134 2.025 . S
C136 O142 1.268 . S
C136 O152 1.268 . S
C137 O143 1.268 . S
C137 O151 1.268 . S
C138 O144 1.268 . S
C138 O153 1.268 . S
C139 O145 1.268 . S
C139 O149 1.268 . S
C140 O146 1.268 . S
C140 O148 1.268 . S
C141 O147 1.268 . S
C141 O150 1.268 . S
O142 Sc132 2.105 . S
O142 C136 1.268 . S
O143 Sc133 2.105 . S
O143 C137 1.268 . S
O144 Sc134 2.105 . S
O144 C138 1.268 . S
O145 Sc132 2.105 . S
O145 C139 1.268 . S
O146 Sc134 2.105 . S
O146 C140 1.268 . S
O147 Sc133 2.105 . S
O147 C141 1.268 . S
O148 Sc132 2.105 . S
O148 C140 1.268 . S
O149 Sc133 2.105 . S
O149 C139 1.268 . S
O150 Sc134 2.105 . S
O150 C141 1.268 . S
O151 Sc132 2.105 . S
O151 C137 1.268 . S
O152 Sc134 2.105 . S
O152 C136 1.268 . S
O153 Sc133 2.105 . S
O153 C138 1.268 . S
Sc154 O157 2.025 . S
Sc154 O164 2.105 1_565 S
Sc154 O167 2.105 . S
Sc154 O170 2.105 1_565 S
Sc154 O173 2.105 . S
Sc155 O157 2.025 . S
Sc155 O165 2.105 . S
Sc155 O169 2.105 . S
Sc155 O171 2.105 . S
Sc155 O175 2.105 . S
Sc156 O157 2.025 . S
Sc156 O166 2.105 . S
Sc156 O168 2.105 1_565 S
Sc156 O172 2.105 . S
Sc156 O174 2.105 1_565 S
O157 Sc154 2.025 . S
O157 Sc155 2.025 . S
O157 Sc156 2.025 . S
C158 O164 1.268 . S
C158 O174 1.268 . S
C159 O165 1.268 . S
C159 O173 1.268 . S
C160 O166 1.268 . S
C160 O175 1.268 . S
C161 O167 1.268 . S
C161 O171 1.268 . S
C162 O168 1.268 . S
C162 O170 1.268 . S
C163 O169 1.268 . S
C163 O172 1.268 . S
O164 Sc154 2.105 1_545 S
O164 C158 1.268 . S
O165 Sc155 2.105 . S
O165 C159 1.268 . S
O166 Sc156 2.105 . S
O166 C160 1.268 . S
O167 Sc154 2.105 . S
O167 C161 1.268 . S
O168 Sc156 2.105 1_545 S
O168 C162 1.268 . S
O169 Sc155 2.105 . S
O169 C163 1.268 . S
O170 Sc154 2.105 1_545 S
O170 C162 1.268 . S
O171 Sc155 2.105 . S
O171 C161 1.268 . S
O172 Sc156 2.105 . S
O172 C163 1.268 . S
O173 Sc154 2.105 . S
O173 C159 1.268 . S
O174 Sc156 2.105 1_545 S
O174 C158 1.268 . S
O175 Sc155 2.105 . S
O175 C160 1.268 . S
C176 C177 1.387 . S
C176 H180 0.950 . S
C176 C185 1.390 . S
C177 C176 1.387 . S
C177 C179 1.387 . S
H178 C185 0.950 . S
C179 C177 1.387 . S
C179 C181 1.390 . S
C179 H183 0.950 . S
H180 C176 0.950 . S
C181 C179 1.390 . S
C181 C182 1.387 . S
C181 H184 0.950 . S
C182 C181 1.387 . S
C182 C185 1.387 . S
H183 C179 0.950 . S
H184 C181 0.950 . S
C185 C176 1.390 . S
C185 H178 0.950 . S
C185 C182 1.387 . S
C186 C187 1.387 . S
C186 H190 0.950 . S
C186 C195 1.390 . S
C187 C186 1.387 . S
C187 C189 1.387 . S
H188 C195 0.950 . S
C189 C187 1.387 . S
C189 C191 1.390 . S
C189 H193 0.950 . S
H190 C186 0.950 . S
C191 C189 1.390 . S
C191 C192 1.387 . S
C191 H194 0.950 . S
C192 C191 1.387 . S
C192 C195 1.387 . S
H193 C189 0.950 . S
H194 C191 0.950 . S
C195 C186 1.390 . S
C195 H188 0.950 . S
C195 C192 1.387 . S
C196 C197 1.387 . S
C196 H200 0.950 . S
C196 C205 1.390 . S
C197 C196 1.387 . S
C197 C199 1.387 . S
H198 C205 0.950 1_545 S
C199 C197 1.387 . S
C199 C201 1.390 . S
C199 H203 0.950 . S
H200 C196 0.950 . S
C201 C199 1.390 . S
C201 C202 1.387 . S
C201 H204 0.950 . S
C202 C201 1.387 . S
C202 C205 1.387 . S
H203 C199 0.950 . S
H204 C201 0.950 . S
C205 C196 1.390 . S
C205 H198 0.950 1_565 S
C205 C202 1.387 . S
C206 C207 1.387 . S
C206 H210 0.950 . S
C206 C215 1.390 1_554 S
C207 C206 1.387 . S
C207 C209 1.387 . S
H208 C215 0.950 . S
C209 C207 1.387 . S
C209 C211 1.390 1_554 S
C209 H213 0.950 . S
H210 C206 0.950 . S
C211 C209 1.390 1_556 S
C211 C212 1.387 . S
C211 H214 0.950 . S
C212 C211 1.387 . S
C212 C215 1.387 . S
H213 C209 0.950 . S
H214 C211 0.950 . S
C215 C206 1.390 1_556 S
C215 H208 0.950 . S
C215 C212 1.387 . S
C216 C217 1.387 . S
C216 H220 0.950 . S
C216 C225 1.390 . S
C217 C216 1.387 . S
C217 C219 1.387 . S
H218 C225 0.950 . S
C219 C217 1.387 . S
C219 C221 1.390 . S
C219 H223 0.950 . S
H220 C216 0.950 . S
C221 C219 1.390 . S
C221 C222 1.387 . S
C221 H224 0.950 . S
C222 C221 1.387 . S
C222 C225 1.387 . S
H223 C219 0.950 . S
H224 C221 0.950 . S
C225 C216 1.390 . S
C225 H218 0.950 . S
C225 C222 1.387 . S
C226 C227 1.387 . S
C226 H230 0.950 . S
C226 C235 1.390 . S
C227 C226 1.387 . S
C227 C229 1.387 . S
H228 C235 0.950 . S
C229 C227 1.387 . S
C229 C231 1.390 . S
C229 H233 0.950 . S
H230 C226 0.950 . S
C231 C229 1.390 . S
C231 C232 1.387 . S
C231 H234 0.950 . S
C232 C231 1.387 . S
C232 C235 1.387 . S
H233 C229 0.950 . S
H234 C231 0.950 . S
C235 C226 1.390 . S
C235 H228 0.950 . S
C235 C232 1.387 . S
C236 C237 1.387 . S
C236 H240 0.950 . S
C236 C245 1.390 . S
C237 C236 1.387 . S
C237 C239 1.387 . S
H238 C245 0.950 . S
C239 C237 1.387 . S
C239 C241 1.390 . S
C239 H243 0.950 . S
H240 C236 0.950 . S
C241 C239 1.390 . S
C241 C242 1.387 . S
C241 H244 0.950 . S
C242 C241 1.387 . S
C242 C245 1.387 . S
H243 C239 0.950 . S
H244 C241 0.950 . S
C245 C236 1.390 . S
C245 H238 0.950 . S
C245 C242 1.387 . S
C246 C247 1.387 . S
C246 H250 0.950 . S
C246 C255 1.390 . S
C247 C246 1.387 . S
C247 C249 1.387 . S
H248 C255 0.950 1_556 S
C249 C247 1.387 . S
C249 C251 1.390 . S
C249 H253 0.950 . S
H250 C246 0.950 . S
C251 C249 1.390 . S
C251 C252 1.387 . S
C251 H254 0.950 . S
C252 C251 1.387 . S
C252 C255 1.387 . S
H253 C249 0.950 . S
H254 C251 0.950 . S
C255 C246 1.390 . S
C255 H248 0.950 1_554 S
C255 C252 1.387 . S
C256 C257 1.387 . S
C256 H260 0.950 . S
C256 C265 1.390 . S
C257 C256 1.387 . S
C257 C259 1.387 . S
H258 C265 0.950 . S
C259 C257 1.387 . S
C259 C261 1.390 . S
C259 H263 0.950 . S
H260 C256 0.950 . S
C261 C259 1.390 . S
C261 C262 1.387 . S
C261 H264 0.950 . S
C262 C261 1.387 . S
C262 C265 1.387 . S
H263 C259 0.950 . S
H264 C261 0.950 . S
C265 C256 1.390 . S
C265 H258 0.950 . S
C265 C262 1.387 . S
C266 C267 1.387 . S
C266 H270 0.950 . S
C266 C275 1.390 . S
C267 C266 1.387 . S
C267 C269 1.387 . S
H268 C275 0.950 . S
C269 C267 1.387 . S
C269 C271 1.390 . S
C269 H273 0.950 . S
H270 C266 0.950 . S
C271 C269 1.390 . S
C271 C272 1.387 . S
C271 H274 0.950 . S
C272 C271 1.387 . S
C272 C275 1.387 . S
H273 C269 0.950 . S
H274 C271 0.950 . S
C275 C266 1.390 . S
C275 H268 0.950 . S
C275 C272 1.387 . S
C276 C277 1.387 . S
C276 H280 0.950 . S
C276 C285 1.390 . S
C277 C276 1.387 . S
C277 C279 1.387 . S
H278 C285 0.950 . S
C279 C277 1.387 . S
C279 C281 1.390 . S
C279 H283 0.950 1_556 S
H280 C276 0.950 . S
C281 C279 1.390 . S
C281 C282 1.387 . S
C281 H284 0.950 . S
C282 C281 1.387 . S
C282 C285 1.387 . S
H283 C279 0.950 1_554 S
H284 C281 0.950 . S
C285 C276 1.390 . S
C285 H278 0.950 . S
C285 C282 1.387 . S
C286 C287 1.387 . S
C286 H290 0.950 . S
C286 C295 1.390 . S
C287 C286 1.387 . S
C287 C289 1.387 . S
H288 C295 0.950 . S
C289 C287 1.387 . S
C289 C291 1.390 . S
C289 H293 0.950 . S
H290 C286 0.950 . S
C291 C289 1.390 . S
C291 C292 1.387 . S
C291 H294 0.950 . S
C292 C291 1.387 . S
C292 C295 1.387 . S
H293 C289 0.950 . S
H294 C291 0.950 . S
C295 C286 1.390 . S
C295 H288 0.950 . S
C295 C292 1.387 . S
C296 C297 1.387 . S
C296 H300 0.950 . S
C296 C305 1.390 1_556 S
C297 C296 1.387 . S
C297 C299 1.387 . S
H298 C305 0.950 . S
C299 C297 1.387 . S
C299 C301 1.390 1_556 S
C299 H303 0.950 . S
H300 C296 0.950 . S
C301 C299 1.390 1_554 S
C301 C302 1.387 . S
C301 H304 0.950 . S
C302 C301 1.387 . S
C302 C305 1.387 . S
H303 C299 0.950 . S
H304 C301 0.950 . S
C305 C296 1.390 1_554 S
C305 H298 0.950 . S
C305 C302 1.387 . S
C306 C307 1.387 . S
C306 H310 0.950 . S
C306 C315 1.390 . S
C307 C306 1.387 . S
C307 C309 1.387 . S
H308 C315 0.950 . S
C309 C307 1.387 . S
C309 C311 1.390 . S
C309 H313 0.950 . S
H310 C306 0.950 . S
C311 C309 1.390 . S
C311 C312 1.387 . S
C311 H314 0.950 . S
C312 C311 1.387 . S
C312 C315 1.387 . S
H313 C309 0.950 . S
H314 C311 0.950 . S
C315 C306 1.390 . S
C315 H308 0.950 . S
C315 C312 1.387 . S
C316 C317 1.387 . S
C316 H320 0.950 . S
C316 C325 1.390 . S
C317 C316 1.387 . S
C317 C319 1.387 . S
H318 C325 0.950 . S
C319 C317 1.387 . S
C319 C321 1.390 . S
C319 H323 0.950 . S
H320 C316 0.950 . S
C321 C319 1.390 . S
C321 C322 1.387 . S
C321 H324 0.950 . S
C322 C321 1.387 . S
C322 C325 1.387 . S
H323 C319 0.950 . S
H324 C321 0.950 . S
C325 C316 1.390 . S
C325 H318 0.950 . S
C325 C322 1.387 . S
C326 C327 1.387 . S
C326 H330 0.950 . S
C326 C335 1.390 . S
C327 C326 1.387 . S
C327 C329 1.387 . S
H328 C335 0.950 . S
C329 C327 1.387 . S
C329 C331 1.390 . S
C329 H333 0.950 . S
H330 C326 0.950 . S
C331 C329 1.390 . S
C331 C332 1.387 . S
C331 H334 0.950 . S
C332 C331 1.387 . S
C332 C335 1.387 . S
H333 C329 0.950 . S
H334 C331 0.950 . S
C335 C326 1.390 . S
C335 H328 0.950 . S
C335 C332 1.387 . S
C336 C337 1.387 . S
C336 H340 0.950 . S
C336 C345 1.390 1_545 S
C337 C336 1.387 . S
C337 C339 1.387 . S
H338 C345 0.950 . S
C339 C337 1.387 . S
C339 C341 1.390 1_545 S
C339 H343 0.950 . S
H340 C336 0.950 . S
C341 C339 1.390 1_565 S
C341 C342 1.387 . S
C341 H344 0.950 . S
C342 C341 1.387 . S
C342 C345 1.387 . S
H343 C339 0.950 . S
H344 C341 0.950 . S
C345 C336 1.390 1_565 S
C345 H338 0.950 . S
C345 C342 1.387 . S
C346 C347 1.387 . S
C346 H350 0.950 . S
C346 C355 1.390 . S
C347 C346 1.387 . S
C347 C349 1.387 . S
H348 C355 0.950 . S
C349 C347 1.387 . S
C349 C351 1.390 . S
C349 H353 0.950 . S
H350 C346 0.950 . S
C351 C349 1.390 . S
C351 C352 1.387 . S
C351 H354 0.950 . S
C352 C351 1.387 . S
C352 C355 1.387 . S
H353 C349 0.950 . S
H354 C351 0.950 . S
C355 C346 1.390 . S
C355 H348 0.950 . S
C355 C352 1.387 . S
C356 C357 1.387 . S
C356 H360 0.950 . S
C356 C365 1.390 . S
C357 C356 1.387 . S
C357 C359 1.387 1_545 S
H358 C365 0.950 . S
C359 C357 1.387 1_565 S
C359 C361 1.390 . S
C359 H363 0.950 . S
H360 C356 0.950 . S
C361 C359 1.390 . S
C361 C362 1.387 . S
C361 H364 0.950 . S
C362 C361 1.387 . S
C362 C365 1.387 1_565 S
H363 C359 0.950 . S
H364 C361 0.950 . S
C365 C356 1.390 . S
C365 H358 0.950 . S
C365 C362 1.387 1_545 S
C366 C367 1.387 . S
C366 H370 0.950 . S
C366 C375 1.390 . S
C367 C366 1.387 . S
C367 C369 1.387 . S
H368 C375 0.950 . S
C369 C367 1.387 . S
C369 C371 1.390 . S
C369 H373 0.950 . S
H370 C366 0.950 . S
C371 C369 1.390 . S
C371 C372 1.387 . S
C371 H374 0.950 . S
C372 C371 1.387 . S
C372 C375 1.387 . S
H373 C369 0.950 . S
H374 C371 0.950 . S
C375 C366 1.390 . S
C375 H368 0.950 . S
C375 C372 1.387 . S
C376 C377 1.387 . S
C376 H380 0.950 . S
C376 C385 1.390 . S
C377 C376 1.387 . S
C377 C379 1.387 . S
H378 C385 0.950 . S
C379 C377 1.387 . S
C379 C381 1.390 . S
C379 H383 0.950 . S
H380 C376 0.950 . S
C381 C379 1.390 . S
C381 C382 1.387 . S
C381 H384 0.950 . S
C382 C381 1.387 . S
C382 C385 1.387 . S
H383 C379 0.950 . S
H384 C381 0.950 . S
C385 C376 1.390 . S
C385 H378 0.950 . S
C385 C382 1.387 . S
C386 C387 1.387 . S
C386 H390 0.950 . S
C386 C395 1.390 1_455 S
C387 C386 1.387 . S
C387 C389 1.387 . S
H388 C395 0.950 . S
C389 C387 1.387 . S
C389 C391 1.390 1_455 S
C389 H393 0.950 . S
H390 C386 0.950 . S
C391 C389 1.390 1_655 S
C391 C392 1.387 . S
C391 H394 0.950 . S
C392 C391 1.387 . S
C392 C395 1.387 . S
H393 C389 0.950 . S
H394 C391 0.950 . S
C395 C386 1.390 1_655 S
C395 H388 0.950 . S
C395 C392 1.387 . S
C396 C397 1.387 . S
C396 H400 0.950 . S
C396 C405 1.390 . S
C397 C396 1.387 . S
C397 C399 1.387 . S
H398 C405 0.950 . S
C399 C397 1.387 . S
C399 C401 1.390 . S
C399 H403 0.950 . S
H400 C396 0.950 . S
C401 C399 1.390 . S
C401 C402 1.387 . S
C401 H404 0.950 . S
C402 C401 1.387 . S
C402 C405 1.387 . S
H403 C399 0.950 . S
H404 C401 0.950 . S
C405 C396 1.390 . S
C405 H398 0.950 . S
C405 C402 1.387 . S
C406 C407 1.387 . S
C406 H410 0.950 . S
C406 C415 1.390 . S
C407 C406 1.387 . S
C407 C409 1.387 1_655 S
H408 C415 0.950 . S
C409 C407 1.387 1_455 S
C409 C411 1.390 . S
C409 H413 0.950 . S
H410 C406 0.950 . S
C411 C409 1.390 . S
C411 C412 1.387 . S
C411 H414 0.950 . S
C412 C411 1.387 . S
C412 C415 1.387 1_455 S
H413 C409 0.950 . S
H414 C411 0.950 . S
C415 C406 1.390 . S
C415 H408 0.950 . S
C415 C412 1.387 1_655 S
C177 C8 1.671 . S
C182 C158 1.671 . S
C187 C26 1.671 . S
C192 C92 1.671 . S
C197 C52 1.671 . S
C202 C118 1.671 . S
C207 C136 1.671 . S
C212 C74 1.671 . S
C217 C9 1.448 . S
C222 C30 1.529 . S
C227 C48 1.529 . S
C232 C27 1.449 . S
C237 C70 1.530 . S
C242 C53 1.446 . S
C247 C4 1.529 . S
C252 C75 1.449 1_554 S
C257 C93 1.449 . S
C262 C162 1.529 . S
C267 C119 1.445 . S
C272 C96 1.529 . S
C277 C137 1.448 1_556 S
C282 C114 1.529 . S
C287 C140 1.529 . S
C292 C159 1.445 . S
C297 C115 0.960 . S
C302 C5 0.958 . S
C307 C141 0.960 . S
C312 C31 0.961 . S
C317 C163 0.961 . S
C322 C49 0.959 . S
C327 C97 0.960 . S
C332 C71 0.958 . S
C337 C7 1.479 . S
C342 C139 1.540 . S
C347 C28 1.476 . S
C352 C161 1.537 . S
C357 C95 1.537 . S
C362 C51 1.478 . S
C367 C116 1.540 . S
C372 C73 1.478 . S
C377 C50 1.538 . S
C382 C94 1.475 . S
C387 C117 1.479 . S
C392 C72 1.540 . S
C397 C138 1.475 . S
C402 C6 1.538 . S
C407 C160 1.475 . S
C412 C29 1.539 . S
