# Generated by pormake.
# Topology rob, (6)-cn, num edge types: 1
# Building blocks:
#     Node 0, Type 0, BuildingBlock: KUMJIN_clean_sbu_0, # of connection points: 6
#     Node 1, Type 0, BuildingBlock: KUMJIN_clean_sbu_0, # of connection points: 6
#     Node 2, Type 0, BuildingBlock: KUMJIN_clean_sbu_0, # of connection points: 6
#     Node 3, Type 0, BuildingBlock: KUMJIN_clean_sbu_0, # of connection points: 6
#     Edge 4, Type (0, 0), BuildingBlock: OJICUG_clean_linker_0, # of connection points: 2
#     Edge 5, Type (0, 0), BuildingBlock: OJICUG_clean_linker_0, # of connection points: 2
#     Edge 6, Type (0, 0), BuildingBlock: OJICUG_clean_linker_0, # of connection points: 2
#     Edge 7, Type (0, 0), BuildingBlock: OJICUG_clean_linker_0, # of connection points: 2
#     Edge 8, Type (0, 0), BuildingBlock: OJICUG_clean_linker_0, # of connection points: 2
#     Edge 9, Type (0, 0), BuildingBlock: OJICUG_clean_linker_0, # of connection points: 2
#     Edge 10, Type (0, 0), BuildingBlock: OJICUG_clean_linker_0, # of connection points: 2
#     Edge 11, Type (0, 0), BuildingBlock: OJICUG_clean_linker_0, # of connection points: 2
#     Edge 12, Type (0, 0), BuildingBlock: OJICUG_clean_linker_0, # of connection points: 2
#     Edge 13, Type (0, 0), BuildingBlock: OJICUG_clean_linker_0, # of connection points: 2
#     Edge 14, Type (0, 0), BuildingBlock: OJICUG_clean_linker_0, # of connection points: 2
#     Edge 15, Type (0, 0), BuildingBlock: OJICUG_clean_linker_0, # of connection points: 2
# Relax obj value: 0.040
# Max RMSD: 0.177
# Mean RMSD: 0.177
data_MOF--net-rob--node1-KUMJIN_clean_sbu_0--edge1-OJICUG_clean_linker_0
_symmetry_space_group_name_H-M    P1
_symmetry_Int_Tables_number       1
_symmetry_cell_setting            triclinic
loop_
_symmetry_equiv_pos_as_xyz
'x, y, z'
_cell_length_a     12.974045
_cell_length_b     19.05143
_cell_length_c     26.61589
_cell_angle_alpha  116.78667
_cell_angle_beta   90.002003
_cell_angle_gamma 89.995962
loop_
_atom_site_label
_atom_site_type_symbol
_atom_site_fract_x
_atom_site_fract_y
_atom_site_fract_z
_atom_type_partial_charge
Eu0 Eu 0.15125 0.30001 0.06267 0.0
C1 C 0.47958 0.02189 0.96313 0.0
C2 C 0.63852 0.07819 0.01236 0.0
C3 C 0.61832 0.93672 0.96292 0.0
C4 C 0.5372 0.08723 0.99705 0.0
C5 C 0.51845 0.94581 0.94682 0.0
C6 C 0.67916 0.00263 0.99394 0.0
C7 C 0.3602 0.8931 0.89586 0.0
N8 N 0.385 0.03259 0.9465 0.0
C9 C 0.32704 0.96973 0.91109 0.0
C10 C 0.45613 0.88122 0.91434 0.0
Eu11 Eu 0.33686 0.16289 0.97059 0.0
N12 N 0.49419 0.15937 0.01527 0.0
C13 C 0.54888 0.22505 0.04983 0.0
C14 C 0.69503 0.14512 0.04697 0.0
C15 C 0.6494 0.21886 0.06632 0.0
H16 H 0.25504 0.97901 0.89457 0.0
H17 H 0.69205 0.27118 0.09343 0.0
H18 H 0.75644 -0.00531 1.00478 0.0
H19 H 0.31285 0.84343 0.86918 0.0
H20 H 0.5171 0.28317 0.0647 0.0
H21 H 0.79612 0.19135 0.93981 0.0
H22 H 0.77303 0.14039 0.05971 0.0
H23 H 0.23288 0.48398 0.13852 0.0
H24 H 0.97115 0.17955 0.96851 0.0
H25 H 0.17474 0.61949 0.16395 0.0
H26 H 0.64878 0.87928 0.95231 0.0
H27 H 0.71479 0.32204 0.97363 0.0
H28 H 0.731 0.46774 0.02871 0.0
H29 H 0.48173 0.82219 0.90288 0.0
H30 H 0.8384 0.5833 0.08124 0.0
N31 N 0.9938 0.30337 0.01802 0.0
C32 C 0.93923 0.23763 0.98342 0.0
C33 C 0.79285 0.3174 0.98635 0.0
C34 C 0.84923 0.38438 0.02097 0.0
C35 C 0.83867 0.24371 0.96694 0.0
C36 C 0.95062 0.37546 0.03626 0.0
H37 H 0.00557 0.64056 0.13045 0.0
N38 N 0.10286 0.43026 0.0867 0.0
C39 C 0.12743 0.56977 0.1373 0.0
C40 C 0.00815 0.44085 0.07016 0.0
C41 C 0.16079 0.49318 0.12204 0.0
C42 C 0.03135 0.58155 0.11893 0.0
C43 C 0.96909 0.5169 0.08651 0.0
O44 O 0.13938 0.36052 0.1533 0.0
O45 O 0.28026 0.2223 0.05891 0.0
O46 O 0.22574 0.08892 0.99565 0.0
O47 O 0.08855 0.17566 0.03383 0.0
O48 O 0.29398 0.33854 0.11637 0.0
O49 O 0.03698 0.26084 0.10711 0.0
O50 O 0.34883 0.10256 0.87993 0.0
O51 O 0.208 0.24057 0.97442 0.0
O52 O 0.26235 0.37397 0.03761 0.0
O53 O 0.39958 0.28727 0.9995 0.0
O54 O 0.19402 0.1245 0.9169 0.0
O55 O 0.45139 0.20207 0.9263 0.0
C56 C 0.33021 0.26917 0.1019 0.0
C57 C 0.02541 0.32653 0.21073 0.0
C58 C 0.90217 0.30275 0.27032 0.0
C59 C 0.95421 0.27595 0.2182 0.0
C60 C 0.9102 0.3825 0.3092 0.0
C61 C 0.05395 0.39519 0.25774 0.0
C62 C 0.99016 0.42716 0.3045 0.0
C63 C 0.12918 0.10454 0.01464 0.0
C64 C 0.06874 0.31373 0.15593 0.0
C65 C 0.86909 0.52589 0.07051 0.0
C66 C 0.80837 0.4599 0.03948 0.0
C67 C 0.15787 0.19391 0.93144 0.0
C68 C 0.46317 0.13674 0.82272 0.0
C69 C 0.53457 0.18737 0.81545 0.0
C70 C 0.58682 0.16075 0.76341 0.0
C71 C 0.57892 0.08102 0.72443 0.0
C72 C 0.43473 0.06821 0.77558 0.0
C73 C 0.49885 0.03629 0.72896 0.0
C74 C 0.35894 0.35837 0.01867 0.0
C75 C 0.41964 0.14933 0.87743 0.0
H76 H 0.94211 0.21677 0.18545 0.0
H77 H 0.8648 0.40712 0.34732 0.0
H78 H 0.12366 0.42476 0.25669 0.0
H79 H 0.00519 0.48482 0.3383 0.0
H80 H 0.54661 0.24649 0.84829 0.0
H81 H 0.62446 0.05651 0.68636 0.0
H82 H 0.36479 0.03873 0.7764 0.0
H83 H 0.48394 0.97867 0.69509 0.0
Eu84 Eu 0.65047 0.79946 0.06259 0.0
C85 C 0.98399 0.52438 0.96365 0.0
C86 C 0.14208 0.58256 0.0131 0.0
C87 C 0.125 0.44085 0.96336 0.0
C88 C 0.04036 0.59038 0.99767 0.0
C89 C 0.02455 0.44879 0.94737 0.0
C90 C 0.18454 0.50751 0.99452 0.0
C91 C 0.8667 0.39421 0.89656 0.0
N92 N 0.8888 0.53393 0.94708 0.0
C93 C 0.83183 0.47041 0.91174 0.0
C94 C 0.96319 0.38353 0.91508 0.0
Eu95 Eu 0.83775 0.66353 0.97095 0.0
N96 N -0.0044 0.66195 0.016 0.0
C97 C 0.04895 0.72826 0.05083 0.0
C98 C 0.19719 0.65014 0.04795 0.0
C99 C 0.14979 0.72329 0.06745 0.0
H100 H 0.75925 0.4788 0.89529 0.0
H101 H 0.19134 0.7761 0.09475 0.0
H102 H 0.26229 0.5005 1.00527 0.0
H103 H 0.82014 0.34396 0.86997 0.0
H104 H 0.01583 0.78599 0.06584 0.0
H105 H 0.29691 0.68686 0.93873 0.0
H106 H 0.27546 0.64637 0.06077 0.0
H107 H 0.72893 -0.01579 0.13821 0.0
H108 H 0.47237 0.67699 0.9677 0.0
H109 H 0.66802 0.11903 0.16351 0.0
H110 H 0.15709 0.38374 0.95237 0.0
H111 H 0.21278 0.81659 0.97267 0.0
H112 H 0.22592 0.96246 0.02816 0.0
H113 H 0.98992 0.3249 0.90386 0.0
H114 H 0.33107 0.07924 0.0811 0.0
N115 N 0.49254 0.80103 0.01758 0.0
C116 C 0.43925 0.73471 0.98271 0.0
C117 C 0.29102 0.81282 0.98553 0.0
C118 C 0.3461 0.8804 0.0204 0.0
C119 C 0.33843 0.73967 0.96605 0.0
C120 C 0.44779 0.8726 0.03587 0.0
H121 H 0.49821 0.13808 0.12964 0.0
N122 N 0.59934 0.92905 0.08646 0.0
C123 C 0.62144 0.06878 0.13694 0.0
C124 C 0.50414 0.9386 0.0699 0.0
C125 C 0.65632 -0.00741 0.12177 0.0
C126 C 0.52495 0.07946 0.11842 0.0
C127 C 0.46359 0.01419 0.08614 0.0
O128 O 0.63831 0.86031 0.15317 0.0
O129 O 0.78022 0.72246 0.05908 0.0
O130 O 0.72703 0.58875 0.9955 0.0
O131 O 0.58919 0.67481 0.03379 0.0
O132 O 0.79287 0.83882 0.11651 0.0
O133 O 0.53764 0.7594 0.10715 0.0
O134 O 0.84992 0.60279 0.88034 0.0
O135 O 0.70815 0.7405 0.97453 0.0
O136 O 0.76112 0.87423 0.03798 0.0
O137 O 0.899 0.7882 0.99975 0.0
O138 O 0.69524 0.62431 0.91703 0.0
O139 O 0.95081 0.70352 0.92649 0.0
C140 C 0.82965 0.76963 0.10216 0.0
C141 C 0.52634 0.8252 0.21075 0.0
C142 C 0.40282 0.80211 0.27051 0.0
C143 C 0.45393 0.77528 0.21813 0.0
C144 C 0.41299 0.88148 0.30981 0.0
C145 C 0.55702 0.89285 0.25797 0.0
C146 C 0.49405 0.92521 0.30505 0.0
C147 C 0.63041 0.60389 0.01449 0.0
C148 C 0.56892 0.81276 0.15591 0.0
C149 C 0.36316 0.02212 0.07013 0.0
C150 C 0.30365 0.95546 0.03894 0.0
C151 C 0.65854 0.69355 0.93145 0.0
C152 C 0.96224 0.638 0.82293 0.0
C153 C 0.03484 0.68794 0.81573 0.0
C154 C 0.08606 0.66129 0.76341 0.0
C155 C 0.07589 0.58199 0.72397 0.0
C156 C 0.93157 0.5705 0.7756 0.0
C157 C -0.00529 0.53822 0.72858 0.0
C158 C 0.85775 0.85911 0.01901 0.0
C159 C 0.91949 0.65029 0.87769 0.0
H160 H 0.44013 0.71657 0.18509 0.0
H161 H 0.3683 0.90626 0.34818 0.0
H162 H 0.62763 0.92152 0.25683 0.0
H163 H 0.51046 -0.01755 0.33899 0.0
H164 H 0.04867 0.74658 0.84887 0.0
H165 H 0.12063 0.55734 0.68562 0.0
H166 H 0.8608 0.54189 0.77657 0.0
H167 H 0.97831 0.48106 0.69456 0.0
Eu168 Eu 0.15018 0.66432 0.47145 0.0
C169 C 0.48453 0.93887 0.57003 0.0
C170 C 0.64241 0.88034 0.52047 0.0
C171 C 0.62584 0.02209 0.57021 0.0
C172 C 0.54067 0.87275 0.536 0.0
C173 C 0.52534 0.01436 0.58624 0.0
C174 C 0.68513 0.9553 0.539 0.0
C175 C 0.36762 0.0693 0.63709 0.0
N176 N 0.38929 0.92953 0.58666 0.0
C177 C 0.3325 -0.00681 0.62197 0.0
C178 C 0.46417 0.07976 0.61851 0.0
Eu179 Eu 0.33785 0.80006 0.56294 0.0
N180 N 0.49568 0.80127 0.51773 0.0
C181 C 0.54879 0.73484 0.48287 0.0
C182 C 0.69727 0.81263 0.48559 0.0
C183 C 0.64963 0.73959 0.46615 0.0
H184 H 0.25986 -0.01503 0.63846 0.0
H185 H 0.69098 0.68668 0.43883 0.0
H186 H 0.76291 0.96213 0.52819 0.0
H187 H 0.3212 0.11966 0.66365 0.0
H188 H 0.51549 0.67718 0.46792 0.0
H189 H 0.79721 0.77819 0.59569 0.0
H190 H 0.77554 0.81624 0.47269 0.0
H191 H 0.22779 0.4793 0.39606 0.0
H192 H 0.97278 0.78744 0.5666 0.0
H193 H 0.16595 0.34471 0.37076 0.0
H194 H 0.65817 0.07914 0.58121 0.0
H195 H 0.71218 0.64879 0.56169 0.0
H196 H 0.72424 0.50291 0.50593 0.0
H197 H 0.49108 0.13831 0.62966 0.0
H198 H 0.82859 0.38569 0.45277 0.0
N199 N 0.9922 0.66333 0.51665 0.0
C200 C 0.93929 0.72983 0.55159 0.0
C201 C 0.7905 0.65228 0.5488 0.0
C202 C 0.84516 0.5845 0.51385 0.0
C203 C 0.83841 0.72523 0.56831 0.0
C204 C 0.94697 0.59193 0.49835 0.0
H205 H -0.00424 0.32629 0.40455 0.0
N206 N 0.09832 0.53493 0.44776 0.0
C207 C 0.11963 0.39513 0.39731 0.0
C208 C 0.00295 0.52573 0.4643 0.0
C209 C 0.15503 0.47119 0.41249 0.0
C210 C 0.02291 0.38481 0.41578 0.0
C211 C 0.96186 0.45029 0.44802 0.0
O212 O 0.13784 0.60328 0.38089 0.0
O213 O 0.28007 0.74114 0.47487 0.0
O214 O 0.22712 0.87495 0.53846 0.0
O215 O 0.08919 0.789 0.50014 0.0
O216 O 0.29242 0.62476 0.41741 0.0
O217 O 0.03762 0.70451 0.42685 0.0
O218 O 0.35027 0.8609 0.65354 0.0
O219 O 0.20814 0.72324 0.55945 0.0
O220 O 0.26087 0.58941 0.4959 0.0
O221 O 0.39883 0.67534 0.53419 0.0
O222 O 0.19551 0.83944 0.61699 0.0
O223 O 0.45082 0.75994 0.60737 0.0
C224 C 0.32937 0.6939 0.43174 0.0
C225 C 0.02621 0.63852 0.32326 0.0
C226 C 0.90272 0.66155 0.26347 0.0
C227 C 0.95371 0.68839 0.31587 0.0
C228 C 0.91309 0.58223 0.22413 0.0
C229 C 0.05708 0.57095 0.27604 0.0
C230 C -0.00575 0.53857 0.22891 0.0
C231 C 0.13051 0.85988 0.51945 0.0
C232 C 0.06872 0.65097 0.37811 0.0
C233 C 0.86121 0.44271 0.46394 0.0
C234 C 0.80213 0.5096 0.49521 0.0
C235 C 0.15867 0.77025 0.60257 0.0
C236 C 0.46252 0.82557 0.71093 0.0
C237 C 0.53509 0.77559 0.71812 0.0
C238 C 0.5864 0.80225 0.77042 0.0
C239 C 0.57638 0.88159 0.80981 0.0
C240 C 0.43197 0.89312 0.75826 0.0
C241 C 0.49523 0.92541 0.80522 0.0
C242 C 0.3575 0.60446 0.51488 0.0
C243 C 0.4197 0.81329 0.65617 0.0
H244 H 0.93976 0.74706 0.34894 0.0
H245 H 0.86848 0.55744 0.18574 0.0
H246 H 0.12771 0.54231 0.27723 0.0
H247 H 0.01082 0.48139 0.19495 0.0
H248 H 0.54882 0.71693 0.68499 0.0
H249 H 0.62118 0.90625 0.84814 0.0
H250 H 0.36119 0.92174 0.75732 0.0
H251 H 0.47892 -0.01739 0.83923 0.0
Eu252 Eu 0.65127 0.16349 0.47097 0.0
C253 C 0.97945 0.44172 0.5705 0.0
C254 C 0.13841 0.38542 0.52129 0.0
C255 C 0.11826 0.5269 0.57081 0.0
C256 C 0.03709 0.37639 0.53659 0.0
C257 C 0.01835 0.51781 0.58686 0.0
C258 C 0.17908 0.46097 0.53977 0.0
C259 C 0.86008 0.57052 0.63779 0.0
N260 N 0.88487 0.43103 0.58713 0.0
C261 C 0.8269 0.49388 0.62253 0.0
C262 C 0.95604 0.5824 0.61936 0.0
Eu263 Eu 0.83681 0.30072 0.56308 0.0
N264 N 0.99409 0.30425 0.51838 0.0
C265 C 0.04881 0.23856 0.48383 0.0
C266 C 0.19492 0.3185 0.48668 0.0
C267 C 0.14931 0.24475 0.46732 0.0
H268 H 0.75491 0.48461 0.63905 0.0
H269 H 0.19197 0.19244 0.44023 0.0
H270 H 0.25639 0.4689 0.52894 0.0
H271 H 0.81273 0.62019 0.66449 0.0
H272 H 0.01706 0.18044 0.46899 0.0
H273 H 0.29616 0.27212 0.59387 0.0
H274 H 0.27293 0.32323 0.47394 0.0
H275 H 0.73299 0.97953 0.39516 0.0
H276 H 0.47109 0.28396 0.56507 0.0
H277 H 0.67497 0.84402 0.3698 0.0
H278 H 0.14877 0.58434 0.5815 0.0
H279 H 0.215 0.14141 0.56019 0.0
H280 H 0.23134 -0.00429 0.50522 0.0
H281 H 0.98168 0.64144 0.63087 0.0
H282 H 0.33878 0.88016 0.45267 0.0
N283 N 0.49386 0.16012 0.51565 0.0
C284 C 0.43925 0.22586 0.55023 0.0
C285 C 0.29301 0.14606 0.54743 0.0
C286 C 0.34944 0.07908 0.51282 0.0
C287 C 0.33874 0.21977 0.56676 0.0
C288 C 0.45077 0.08802 0.49749 0.0
H289 H 0.50589 0.82293 0.40338 0.0
N290 N 0.60298 0.03324 0.447 0.0
C291 C 0.62764 0.89373 0.39645 0.0
C292 C 0.50833 0.02264 0.4636 0.0
C293 C 0.66093 0.97033 0.41166 0.0
C294 C 0.53161 0.88194 0.41486 0.0
C295 C 0.46934 0.94659 0.4473 0.0
O296 O 0.6394 0.10297 0.38034 0.0
O297 O 0.78024 0.24123 0.47476 0.0
O298 O 0.72557 0.37465 0.53805 0.0
O299 O 0.5885 0.28783 0.49977 0.0
O300 O 0.79402 0.125 0.41729 0.0
O301 O 0.537 0.20266 0.42653 0.0
O302 O 0.8487 0.36104 0.65374 0.0
O303 O 0.70799 0.22301 0.55923 0.0
O304 O 0.76246 0.0896 0.49606 0.0
O305 O 0.8996 0.17638 0.53423 0.0
O306 O 0.69394 0.33907 0.61675 0.0
O307 O 0.95136 0.26159 0.60739 0.0
C308 C 0.83023 0.19437 0.43178 0.0
C309 C 0.52543 0.137 0.32292 0.0
C310 C 0.40212 0.16078 0.26334 0.0
C311 C 0.45413 0.18756 0.31546 0.0
C312 C 0.41026 0.08105 0.22442 0.0
C313 C 0.55405 0.0684 0.27588 0.0
C314 C 0.49026 0.03641 0.22913 0.0
C315 C 0.62905 0.35897 0.51902 0.0
C316 C 0.56877 0.14977 0.37771 0.0
C317 C 0.3694 0.93758 0.46335 0.0
C318 C 0.30866 0.00356 0.49438 0.0
C319 C 0.65782 0.26965 0.60219 0.0
C320 C 0.96303 0.32689 0.71097 0.0
C321 C 0.0345 0.27629 0.71824 0.0
C322 C 0.08664 0.30289 0.77031 0.0
C323 C 0.07854 0.38256 0.80934 0.0
C324 C 0.93443 0.39534 0.75813 0.0
C325 C -0.00158 0.42725 0.8048 0.0
C326 C 0.85901 0.10525 0.51505 0.0
C327 C 0.91953 0.3143 0.65626 0.0
H328 H 0.44194 0.2467 0.34824 0.0
H329 H 0.36489 0.05644 0.18629 0.0
H330 H 0.62386 0.0389 0.2769 0.0
H331 H 0.50534 0.97876 0.19533 0.0
H332 H 0.0467 0.21721 0.68537 0.0
H333 H 0.12399 0.40707 0.84744 0.0
H334 H 0.86446 0.42479 0.75728 0.0
H335 H 0.98337 0.48483 0.83869 0.0
C336 C 0.49262 0.55733 0.06015 0.0
C337 C 0.56251 0.54011 0.01544 0.0
H338 H 0.37598 0.51506 0.09718 0.0
C339 C 0.56323 0.46273 0.97171 0.0
H340 H 0.48949 0.61591 0.09466 0.0
C341 C 0.49748 0.40464 0.97317 0.0
C342 C 0.42739 0.42192 0.01781 0.0
H343 H 0.61438 0.44691 0.93619 0.0
H344 H 0.5006 0.34603 0.93869 0.0
C345 C 0.42699 0.49923 0.06163 0.0
C346 C 0.42487 0.46335 0.47199 0.0
C347 C 0.4253 0.54065 0.51584 0.0
H348 H 0.48786 0.34673 0.43884 0.0
C349 C 0.49486 0.55777 0.56067 0.0
H350 H 0.37392 0.44761 0.4364 0.0
C351 C 0.56053 0.49968 0.56214 0.0
C352 C 0.56052 0.42249 0.51817 0.0
H353 H 0.49768 0.61628 0.59529 0.0
H354 H 0.61127 0.51543 0.59779 0.0
C355 C 0.4907 0.40527 0.47342 0.0
C356 C 0.06127 0.96365 0.97183 0.0
C357 C 0.06072 0.04102 0.01555 0.0
H358 H -0.00109 0.84694 0.93892 0.0
C359 C 0.99048 0.0584 0.06014 0.0
H360 H 0.1124 0.94774 0.93631 0.0
C361 C 0.92473 0.00033 0.06164 0.0
C362 C 0.92562 0.92287 0.01802 0.0
H363 H 0.9872 0.11706 0.09455 0.0
H364 H 0.87345 0.01622 0.09711 0.0
C365 C -0.00434 0.90557 0.97336 0.0
C366 C -0.00262 0.05906 0.5607 0.0
C367 C 0.9275 0.04175 0.51597 0.0
H368 H 0.11418 0.01683 0.59779 0.0
C369 C 0.92738 0.9645 0.47209 0.0
H370 H 0.00028 0.11764 0.59521 0.0
C371 C 0.99305 0.90644 0.47362 0.0
C372 C 0.0627 0.92366 0.51843 0.0
H373 H 0.87657 0.94867 0.43645 0.0
H374 H 0.99014 0.84789 0.43905 0.0
C375 C 0.06319 0.00101 0.5622 0.0
C376 C 0.4355 0.26427 0.23316 0.0
C377 C 0.36415 0.21394 0.24058 0.0
H378 H 0.48212 0.31942 0.18171 0.0
C379 C 0.27457 0.19254 0.20747 0.0
H380 H 0.50565 0.28147 0.25787 0.0
C381 C 0.26494 0.20988 0.16213 0.0
C382 C 0.34288 0.25116 0.14997 0.0
H383 H 0.21801 0.15424 0.21241 0.0
H384 H 0.1987 0.18725 0.13484 0.0
C385 C 0.42406 0.28367 0.18844 0.0
C386 C 0.27466 0.77091 0.32628 0.0
C387 C 0.36404 0.74894 0.29303 0.0
H388 H 0.19887 0.77682 0.39909 0.0
C389 C 0.43486 0.69822 0.30035 0.0
H390 H 0.21863 0.80966 0.32147 0.0
C391 C 0.4232 0.67893 0.3451 0.0
C392 C 0.34226 0.71184 0.38365 0.0
H393 H 0.5049 0.68065 0.27556 0.0
H394 H 0.48089 0.64286 0.35175 0.0
C395 C 0.26478 0.75362 0.37162 0.0
C396 C 0.56525 0.67879 0.84472 0.0
C397 C 0.64605 0.71159 0.88338 0.0
H398 H 0.48396 0.6807 0.77514 0.0
C399 C 0.72379 0.75328 0.87145 0.0
H400 H 0.50739 0.64275 0.85128 0.0
C401 C 0.71425 0.77067 0.82614 0.0
C402 C 0.62494 0.74889 0.79283 0.0
H403 H 0.78963 0.77635 0.89898 0.0
H404 H 0.77046 0.80939 0.82144 0.0
C405 C 0.55393 0.69816 0.8 0.0
C406 C 0.5643 0.28394 0.68876 0.0
C407 C 0.64538 0.25151 0.65021 0.0
H408 H 0.48297 0.28155 0.75818 0.0
C409 C 0.72346 0.21021 0.66226 0.0
H410 H 0.50615 0.31971 0.68212 0.0
C411 C 0.71407 0.19278 0.70757 0.0
C412 C 0.62456 0.21407 0.74073 0.0
H413 H 0.78967 0.18768 0.63493 0.0
H414 H 0.77076 0.15449 0.71243 0.0
C415 C 0.55309 0.26443 0.73344 0.0
C416 C 0.92332 0.78463 0.18885 0.0
C417 C 0.84242 0.75172 0.15027 0.0
H418 H 0.00487 0.78298 0.25844 0.0
C419 C 0.76487 0.70999 0.1623 0.0
H420 H 0.98105 0.82067 0.1822 0.0
C421 C 0.77463 0.69277 0.20768 0.0
C422 C 0.86398 0.71473 0.24095 0.0
H423 H 0.69898 0.68681 0.13482 0.0
H424 H 0.71856 0.65403 0.21247 0.0
C425 C 0.93485 0.76541 0.23364 0.0
C426 C 0.76506 0.25373 0.37158 0.0
C427 C 0.84297 0.21242 0.38374 0.0
H428 H 0.71809 0.30931 0.32128 0.0
C429 C 0.9242 0.17994 0.34529 0.0
H430 H 0.69878 0.27633 0.39885 0.0
C431 C 0.93564 0.19933 0.30057 0.0
C432 C 0.86425 0.24961 0.29312 0.0
H433 H 0.98225 0.14418 0.35203 0.0
H434 H 0.00583 0.18214 0.27588 0.0
C435 C 0.77467 0.27102 0.32622 0.0
C436 C 0.05308 0.19916 0.80022 0.0
C437 C 0.12452 0.24954 0.79293 0.0
H438 H 0.00619 0.14385 0.85152 0.0
C439 C 0.21405 0.2708 0.82607 0.0
H440 H 0.98296 0.18205 0.77547 0.0
C441 C 0.22351 0.25332 0.87135 0.0
C442 C 0.14543 0.21204 0.88342 0.0
H443 H 0.27069 0.30912 0.82122 0.0
H444 H 0.28972 0.27586 0.89868 0.0
C445 C 0.06433 0.17962 0.84488 0.0
C446 C 0.22374 0.71036 0.6625 0.0
C447 C 0.14608 0.75215 0.6506 0.0
H448 H 0.27022 0.65407 0.71242 0.0
C449 C 0.06524 0.78492 0.68924 0.0
H450 H 0.28961 0.6873 0.63498 0.0
C451 C 0.05381 0.76545 0.7339 0.0
C452 C 0.12476 0.71466 0.74105 0.0
H453 H 0.00743 0.82103 0.6827 0.0
H454 H 0.98382 0.78292 0.75875 0.0
C455 C 0.21409 0.69288 0.70776 0.0
loop_
_geom_bond_atom_site_label_1
_geom_bond_atom_site_label_2
_geom_bond_distance
_geom_bond_site_symmetry_2
_ccdc_geom_bond_type
Eu0 N31 2.657 1_455 S
Eu0 N38 2.609 . S
Eu0 O44 2.558 . S
Eu0 O45 2.612 . S
Eu0 O47 2.339 . S
Eu0 O48 2.563 . S
Eu0 O49 2.419 . S
Eu0 O51 2.380 1_554 S
Eu0 O52 2.432 . S
Eu0 C64 2.848 . S
C1 C4 1.429 . S
C1 C5 1.411 1_545 S
C1 N8 1.377 . S
C2 C4 1.420 1_554 S
C2 C6 1.423 . S
C2 C14 1.392 . S
C3 C5 1.420 . S
C3 C6 1.351 1_566 S
C3 H26 0.931 . S
C4 C1 1.429 . S
C4 C2 1.420 1_556 S
C4 N12 1.362 . S
C5 C1 1.411 1_565 S
C5 C3 1.420 . S
C5 C10 1.395 . S
C6 C2 1.423 . S
C6 C3 1.351 1_544 S
C6 H18 0.930 . S
C7 C9 1.400 . S
C7 C10 1.386 . S
C7 H19 0.930 . S
N8 C1 1.377 . S
N8 C9 1.321 1_545 S
N8 Eu11 2.609 . S
C9 C7 1.400 . S
C9 N8 1.321 1_565 S
C9 H16 0.930 . S
C10 C5 1.395 . S
C10 C7 1.386 . S
C10 H29 0.930 . S
Eu11 N8 2.609 . S
Eu11 N12 2.657 . S
Eu11 O45 2.380 1_556 S
Eu11 O46 2.432 . S
Eu11 O50 2.558 . S
Eu11 O51 2.612 . S
Eu11 O53 2.339 . S
Eu11 O54 2.563 . S
Eu11 O55 2.419 . S
Eu11 C75 2.848 . S
N12 C4 1.362 . S
N12 Eu11 2.657 . S
N12 C13 1.334 1_556 S
C13 N12 1.334 1_554 S
C13 C15 1.413 . S
C13 H20 0.929 . S
C14 C2 1.392 . S
C14 C15 1.367 . S
C14 H22 0.930 . S
C15 C13 1.413 . S
C15 C14 1.367 . S
C15 H17 0.930 . S
H16 C9 0.930 . S
H17 C15 0.930 . S
H18 C6 0.930 . S
H19 C7 0.930 . S
H20 C13 0.929 . S
H21 C35 0.930 . S
H22 C14 0.930 . S
H23 C41 0.930 . S
H24 C32 0.929 . S
H25 C39 0.930 . S
H26 C3 0.931 . S
H27 C33 0.930 . S
H28 C66 0.930 1_556 S
H29 C10 0.930 . S
H30 C65 0.931 . S
N31 Eu0 2.657 1_655 S
N31 C32 1.334 1_554 S
N31 C36 1.362 . S
C32 H24 0.929 . S
C32 N31 1.334 1_556 S
C32 C35 1.413 . S
C33 H27 0.930 . S
C33 C34 1.395 . S
C33 C35 1.367 . S
C34 C33 1.395 . S
C34 C36 1.410 1_556 S
C34 C66 1.429 1_556 S
C35 H21 0.930 . S
C35 C32 1.413 . S
C35 C33 1.367 . S
C36 N31 1.362 . S
C36 C34 1.410 1_554 S
C36 C40 1.429 . S
H37 C42 0.930 . S
N38 Eu0 2.609 . S
N38 C40 1.377 1_455 S
N38 C41 1.321 . S
C39 H25 0.930 . S
C39 C41 1.400 . S
C39 C42 1.386 1_455 S
C40 C36 1.429 . S
C40 N38 1.377 1_655 S
C40 C43 1.411 . S
C41 H23 0.930 . S
C41 N38 1.321 . S
C41 C39 1.400 . S
C42 H37 0.930 . S
C42 C39 1.386 1_655 S
C42 C43 1.395 . S
C43 C40 1.411 . S
C43 C42 1.395 . S
C43 C65 1.420 . S
O44 Eu0 2.558 . S
O44 C64 1.257 . S
O45 Eu0 2.612 . S
O45 Eu11 2.380 1_554 S
O45 C56 1.276 . S
O46 Eu11 2.432 . S
O46 C63 1.264 . S
O47 Eu0 2.339 . S
O47 C63 1.254 1_554 S
O48 Eu0 2.563 . S
O48 C56 1.235 . S
O49 Eu0 2.419 . S
O49 C64 1.249 . S
O50 Eu11 2.558 . S
O50 C75 1.257 . S
O51 Eu0 2.380 1_556 S
O51 Eu11 2.612 . S
O51 C67 1.276 . S
O52 Eu0 2.432 . S
O52 C74 1.264 . S
O53 Eu11 2.339 . S
O53 C74 1.254 1_556 S
O54 Eu11 2.563 . S
O54 C67 1.235 . S
O55 Eu11 2.419 . S
O55 C75 1.249 . S
C56 O45 1.276 . S
C56 O48 1.235 . S
C57 C59 1.393 1_455 S
C57 C61 1.395 1_455 S
C57 C64 1.492 . S
C58 C59 1.392 . S
C58 C60 1.386 . S
C59 C57 1.393 1_655 S
C59 C58 1.392 . S
C59 H76 0.930 . S
C60 C58 1.386 . S
C60 C62 1.395 . S
C60 H77 0.930 . S
C61 C57 1.395 1_655 S
C61 C62 1.379 . S
C61 H78 0.930 1_655 S
C62 C60 1.395 . S
C62 C61 1.379 . S
C62 H79 0.930 . S
C63 O46 1.264 . S
C63 O47 1.254 1_556 S
C64 Eu0 2.848 . S
C64 O44 1.257 . S
C64 O49 1.249 . S
C64 C57 1.492 . S
C65 H30 0.931 . S
C65 C43 1.420 . S
C65 C66 1.351 . S
C66 H28 0.930 1_554 S
C66 C34 1.429 1_554 S
C66 C65 1.351 . S
C67 O51 1.276 . S
C67 O54 1.235 . S
C68 C69 1.393 . S
C68 C72 1.395 1_545 S
C68 C75 1.492 . S
C69 C68 1.393 . S
C69 C70 1.392 . S
C69 H80 0.930 . S
C70 C69 1.392 . S
C70 C71 1.386 . S
C71 C70 1.386 . S
C71 C73 1.395 1_545 S
C71 H81 0.930 . S
C72 C68 1.395 1_565 S
C72 C73 1.379 . S
C72 H82 0.930 . S
C73 C71 1.395 1_565 S
C73 C72 1.379 . S
C73 H83 0.930 . S
C74 O52 1.264 . S
C74 O53 1.254 1_554 S
C75 Eu11 2.848 . S
C75 O50 1.257 . S
C75 O55 1.249 . S
C75 C68 1.492 . S
H76 C59 0.930 . S
H77 C60 0.930 . S
H78 C61 0.930 1_455 S
H79 C62 0.930 . S
H80 C69 0.930 . S
H81 C71 0.930 . S
H82 C72 0.930 . S
H83 C73 0.930 . S
Eu84 N115 2.657 . S
Eu84 N122 2.609 . S
Eu84 O128 2.558 . S
Eu84 O129 2.612 . S
Eu84 O131 2.339 . S
Eu84 O132 2.563 . S
Eu84 O133 2.419 . S
Eu84 O135 2.380 1_554 S
Eu84 O136 2.432 . S
Eu84 C148 2.848 . S
C85 C88 1.429 . S
C85 C89 1.411 . S
C85 N92 1.377 1_455 S
C86 C88 1.420 1_554 S
C86 C90 1.423 . S
C86 C98 1.392 . S
C87 C89 1.420 . S
C87 C90 1.351 1_556 S
C87 H110 0.931 . S
C88 C85 1.429 . S
C88 C86 1.420 1_556 S
C88 N96 1.362 . S
C89 C85 1.411 . S
C89 C87 1.420 . S
C89 C94 1.395 . S
C90 C86 1.423 . S
C90 C87 1.351 1_554 S
C90 H102 0.930 . S
C91 C93 1.400 . S
C91 C94 1.386 1_655 S
C91 H103 0.930 . S
N92 C85 1.377 1_655 S
N92 C93 1.321 . S
N92 Eu95 2.609 . S
C93 C91 1.400 . S
C93 N92 1.321 . S
C93 H100 0.930 . S
C94 C89 1.395 . S
C94 C91 1.386 1_455 S
C94 H113 0.930 . S
Eu95 N92 2.609 . S
Eu95 N96 2.657 1_655 S
Eu95 O129 2.380 1_556 S
Eu95 O130 2.432 . S
Eu95 O134 2.558 . S
Eu95 O135 2.612 . S
Eu95 O137 2.339 . S
Eu95 O138 2.563 . S
Eu95 O139 2.419 . S
Eu95 C159 2.848 . S
N96 C88 1.362 . S
N96 Eu95 2.657 1_455 S
N96 C97 1.334 1_556 S
C97 N96 1.334 1_554 S
C97 C99 1.413 . S
C97 H104 0.929 . S
C98 C86 1.392 . S
C98 C99 1.367 . S
C98 H106 0.930 . S
C99 C97 1.413 . S
C99 C98 1.367 . S
C99 H101 0.930 . S
H100 C93 0.930 . S
H101 C99 0.930 . S
H102 C90 0.930 . S
H103 C91 0.930 . S
H104 C97 0.929 . S
H105 C119 0.930 . S
H106 C98 0.930 . S
H107 C125 0.930 . S
H108 C116 0.929 . S
H109 C123 0.930 . S
H110 C87 0.931 . S
H111 C117 0.930 . S
H112 C150 0.930 1_556 S
H113 C94 0.930 . S
H114 C149 0.931 . S
N115 Eu84 2.657 . S
N115 C116 1.334 1_554 S
N115 C120 1.362 . S
C116 H108 0.929 . S
C116 N115 1.334 1_556 S
C116 C119 1.413 . S
C117 H111 0.930 . S
C117 C118 1.395 . S
C117 C119 1.367 . S
C118 C117 1.395 . S
C118 C120 1.410 1_556 S
C118 C150 1.429 1_556 S
C119 H105 0.930 . S
C119 C116 1.413 . S
C119 C117 1.367 . S
C120 N115 1.362 . S
C120 C118 1.410 1_554 S
C120 C124 1.429 . S
H121 C126 0.930 . S
N122 Eu84 2.609 . S
N122 C124 1.377 . S
N122 C125 1.321 1_565 S
C123 H109 0.930 . S
C123 C125 1.400 . S
C123 C126 1.386 . S
C124 C120 1.429 . S
C124 N122 1.377 . S
C124 C127 1.411 1_565 S
C125 H107 0.930 . S
C125 N122 1.321 1_545 S
C125 C123 1.400 . S
C126 H121 0.930 . S
C126 C123 1.386 . S
C126 C127 1.395 . S
C127 C124 1.411 1_545 S
C127 C126 1.395 . S
C127 C149 1.420 . S
O128 Eu84 2.558 . S
O128 C148 1.257 . S
O129 Eu84 2.612 . S
O129 Eu95 2.380 1_554 S
O129 C140 1.276 . S
O130 Eu95 2.432 . S
O130 C147 1.264 . S
O131 Eu84 2.339 . S
O131 C147 1.254 1_554 S
O132 Eu84 2.563 . S
O132 C140 1.235 . S
O133 Eu84 2.419 . S
O133 C148 1.249 . S
O134 Eu95 2.558 . S
O134 C159 1.257 . S
O135 Eu84 2.380 1_556 S
O135 Eu95 2.612 . S
O135 C151 1.276 . S
O136 Eu84 2.432 . S
O136 C158 1.264 . S
O137 Eu95 2.339 . S
O137 C158 1.254 1_556 S
O138 Eu95 2.563 . S
O138 C151 1.235 . S
O139 Eu95 2.419 . S
O139 C159 1.249 . S
C140 O129 1.276 . S
C140 O132 1.235 . S
C141 C143 1.393 . S
C141 C145 1.395 1_565 S
C141 C148 1.492 . S
C142 C143 1.392 . S
C142 C144 1.386 . S
C143 C141 1.393 . S
C143 C142 1.392 . S
C143 H160 0.930 . S
C144 C142 1.386 . S
C144 C146 1.395 1_565 S
C144 H161 0.930 . S
C145 C141 1.395 1_545 S
C145 C146 1.379 . S
C145 H162 0.930 . S
C146 C144 1.395 1_545 S
C146 C145 1.379 . S
C146 H163 0.930 . S
C147 O130 1.264 . S
C147 O131 1.254 1_556 S
C148 Eu84 2.848 . S
C148 O128 1.257 . S
C148 O133 1.249 . S
C148 C141 1.492 . S
C149 H114 0.931 . S
C149 C127 1.420 . S
C149 C150 1.351 1_545 S
C150 H112 0.930 1_554 S
C150 C118 1.429 1_554 S
C150 C149 1.351 1_565 S
C151 O135 1.276 . S
C151 O138 1.235 . S
C152 C153 1.393 1_655 S
C152 C156 1.395 1_655 S
C152 C159 1.492 . S
C153 C152 1.393 1_455 S
C153 C154 1.392 . S
C153 H164 0.930 . S
C154 C153 1.392 . S
C154 C155 1.386 . S
C155 C154 1.386 . S
C155 C157 1.395 . S
C155 H165 0.930 . S
C156 C152 1.395 1_455 S
C156 C157 1.379 . S
C156 H166 0.930 1_455 S
C157 C155 1.395 . S
C157 C156 1.379 . S
C157 H167 0.930 . S
C158 O136 1.264 . S
C158 O137 1.254 1_554 S
C159 Eu95 2.848 . S
C159 O134 1.257 . S
C159 O139 1.249 . S
C159 C152 1.492 . S
H160 C143 0.930 . S
H161 C144 0.930 . S
H162 C145 0.930 . S
H163 C146 0.930 . S
H164 C153 0.930 . S
H165 C155 0.930 . S
H166 C156 0.930 1_655 S
H167 C157 0.930 . S
Eu168 N199 2.657 1_455 S
Eu168 N206 2.609 . S
Eu168 O212 2.558 . S
Eu168 O213 2.612 . S
Eu168 O215 2.339 . S
Eu168 O216 2.563 . S
Eu168 O217 2.419 . S
Eu168 O219 2.380 . S
Eu168 O220 2.432 . S
Eu168 C232 2.848 . S
C169 C172 1.429 . S
C169 C173 1.411 1_565 S
C169 N176 1.377 . S
C170 C172 1.420 . S
C170 C174 1.423 . S
C170 C182 1.392 . S
C171 C173 1.420 . S
C171 C174 1.351 1_545 S
C171 H194 0.931 . S
C172 C169 1.429 . S
C172 C170 1.420 . S
C172 N180 1.362 . S
C173 C169 1.411 1_545 S
C173 C171 1.420 . S
C173 C178 1.395 . S
C174 C170 1.423 . S
C174 C171 1.351 1_565 S
C174 H186 0.930 . S
C175 C177 1.400 . S
C175 C178 1.386 . S
C175 H187 0.930 . S
N176 C169 1.377 . S
N176 C177 1.321 1_565 S
N176 Eu179 2.609 . S
C177 C175 1.400 . S
C177 N176 1.321 1_545 S
C177 H184 0.930 . S
C178 C173 1.395 . S
C178 C175 1.386 . S
C178 H197 0.930 . S
Eu179 N176 2.609 . S
Eu179 N180 2.657 . S
Eu179 O213 2.380 . S
Eu179 O214 2.432 . S
Eu179 O218 2.558 . S
Eu179 O219 2.612 . S
Eu179 O221 2.339 . S
Eu179 O222 2.563 . S
Eu179 O223 2.419 . S
Eu179 C243 2.848 . S
N180 C172 1.362 . S
N180 Eu179 2.657 . S
N180 C181 1.334 . S
C181 N180 1.334 . S
C181 C183 1.413 . S
C181 H188 0.929 . S
C182 C170 1.392 . S
C182 C183 1.367 . S
C182 H190 0.930 . S
C183 C181 1.413 . S
C183 C182 1.367 . S
C183 H185 0.930 . S
H184 C177 0.930 . S
H185 C183 0.930 . S
H186 C174 0.930 . S
H187 C175 0.930 . S
H188 C181 0.929 . S
H189 C203 0.930 . S
H190 C182 0.930 . S
H191 C209 0.930 . S
H192 C200 0.929 . S
H193 C207 0.930 . S
H194 C171 0.931 . S
H195 C201 0.930 . S
H196 C234 0.930 . S
H197 C178 0.930 . S
H198 C233 0.931 . S
N199 Eu168 2.657 1_655 S
N199 C200 1.334 . S
N199 C204 1.362 . S
C200 H192 0.929 . S
C200 N199 1.334 . S
C200 C203 1.413 . S
C201 H195 0.930 . S
C201 C202 1.392 . S
C201 C203 1.367 . S
C202 C201 1.392 . S
C202 C204 1.420 . S
C202 C234 1.423 . S
C203 H189 0.930 . S
C203 C200 1.413 . S
C203 C201 1.367 . S
C204 N199 1.362 . S
C204 C202 1.420 . S
C204 C208 1.429 . S
H205 C210 0.930 . S
N206 Eu168 2.609 . S
N206 C208 1.377 1_455 S
N206 C209 1.321 . S
C207 H193 0.930 . S
C207 C209 1.400 . S
C207 C210 1.386 1_455 S
C208 C204 1.429 . S
C208 N206 1.377 1_655 S
C208 C211 1.411 . S
C209 H191 0.930 . S
C209 N206 1.321 . S
C209 C207 1.400 . S
C210 H205 0.930 . S
C210 C207 1.386 1_655 S
C210 C211 1.395 . S
C211 C208 1.411 . S
C211 C210 1.395 . S
C211 C233 1.420 . S
O212 Eu168 2.558 . S
O212 C232 1.257 . S
O213 Eu168 2.612 . S
O213 Eu179 2.380 . S
O213 C224 1.276 . S
O214 Eu179 2.432 . S
O214 C231 1.264 . S
O215 Eu168 2.339 . S
O215 C231 1.254 . S
O216 Eu168 2.563 . S
O216 C224 1.235 . S
O217 Eu168 2.419 . S
O217 C232 1.249 . S
O218 Eu179 2.558 . S
O218 C243 1.257 . S
O219 Eu168 2.380 . S
O219 Eu179 2.612 . S
O219 C235 1.276 . S
O220 Eu168 2.432 . S
O220 C242 1.264 . S
O221 Eu179 2.339 . S
O221 C242 1.254 . S
O222 Eu179 2.563 . S
O222 C235 1.235 . S
O223 Eu179 2.419 . S
O223 C243 1.249 . S
C224 O213 1.276 . S
C224 O216 1.235 . S
C225 C227 1.393 1_455 S
C225 C229 1.395 1_455 S
C225 C232 1.492 . S
C226 C227 1.392 . S
C226 C228 1.386 . S
C227 C225 1.393 1_655 S
C227 C226 1.392 . S
C227 H244 0.930 . S
C228 C226 1.386 . S
C228 C230 1.395 . S
C228 H245 0.930 . S
C229 C225 1.395 1_655 S
C229 C230 1.379 . S
C229 H246 0.930 1_655 S
C230 C228 1.395 . S
C230 C229 1.379 . S
C230 H247 0.930 . S
C231 O214 1.264 . S
C231 O215 1.254 . S
C232 Eu168 2.848 . S
C232 O212 1.257 . S
C232 O217 1.249 . S
C232 C225 1.492 . S
C233 H198 0.931 . S
C233 C211 1.420 . S
C233 C234 1.351 . S
C234 H196 0.930 . S
C234 C202 1.423 . S
C234 C233 1.351 . S
C235 O219 1.276 . S
C235 O222 1.235 . S
C236 C237 1.393 . S
C236 C240 1.395 1_565 S
C236 C243 1.492 . S
C237 C236 1.393 . S
C237 C238 1.392 . S
C237 H248 0.930 . S
C238 C237 1.392 . S
C238 C239 1.386 . S
C239 C238 1.386 . S
C239 C241 1.395 1_565 S
C239 H249 0.930 . S
C240 C236 1.395 1_545 S
C240 C241 1.379 . S
C240 H250 0.930 . S
C241 C239 1.395 1_545 S
C241 C240 1.379 . S
C241 H251 0.930 . S
C242 O220 1.264 . S
C242 O221 1.254 . S
C243 Eu179 2.848 . S
C243 O218 1.257 . S
C243 O223 1.249 . S
C243 C236 1.492 . S
H244 C227 0.930 . S
H245 C228 0.930 . S
H246 C229 0.930 1_455 S
H247 C230 0.930 . S
H248 C237 0.930 . S
H249 C239 0.930 . S
H250 C240 0.930 . S
H251 C241 0.930 . S
Eu252 N283 2.657 . S
Eu252 N290 2.609 . S
Eu252 O296 2.558 . S
Eu252 O297 2.612 . S
Eu252 O299 2.339 . S
Eu252 O300 2.563 . S
Eu252 O301 2.419 . S
Eu252 O303 2.380 . S
Eu252 O304 2.432 . S
Eu252 C316 2.848 . S
C253 C256 1.429 . S
C253 C257 1.411 . S
C253 N260 1.377 1_455 S
C254 C256 1.420 . S
C254 C258 1.423 . S
C254 C266 1.392 . S
C255 C257 1.420 . S
C255 C258 1.351 . S
C255 H278 0.931 . S
C256 C253 1.429 . S
C256 C254 1.420 . S
C256 N264 1.362 . S
C257 C253 1.411 . S
C257 C255 1.420 . S
C257 C262 1.395 . S
C258 C254 1.423 . S
C258 C255 1.351 . S
C258 H270 0.930 . S
C259 C261 1.400 . S
C259 C262 1.386 1_655 S
C259 H271 0.930 . S
N260 C253 1.377 1_655 S
N260 C261 1.321 . S
N260 Eu263 2.609 . S
C261 C259 1.400 . S
C261 N260 1.321 . S
C261 H268 0.930 . S
C262 C257 1.395 . S
C262 C259 1.386 1_455 S
C262 H281 0.930 . S
Eu263 N260 2.609 . S
Eu263 N264 2.657 1_655 S
Eu263 O297 2.380 . S
Eu263 O298 2.432 . S
Eu263 O302 2.558 . S
Eu263 O303 2.612 . S
Eu263 O305 2.339 . S
Eu263 O306 2.563 . S
Eu263 O307 2.419 . S
Eu263 C327 2.848 . S
N264 C256 1.362 . S
N264 Eu263 2.657 1_455 S
N264 C265 1.334 . S
C265 N264 1.334 . S
C265 C267 1.413 . S
C265 H272 0.929 . S
C266 C254 1.392 . S
C266 C267 1.367 . S
C266 H274 0.930 . S
C267 C265 1.413 . S
C267 C266 1.367 . S
C267 H269 0.930 . S
H268 C261 0.930 . S
H269 C267 0.930 . S
H270 C258 0.930 . S
H271 C259 0.930 . S
H272 C265 0.929 . S
H273 C287 0.930 . S
H274 C266 0.930 . S
H275 C293 0.930 . S
H276 C284 0.929 . S
H277 C291 0.930 . S
H278 C255 0.931 . S
H279 C285 0.930 . S
H280 C318 0.930 . S
H281 C262 0.930 . S
H282 C317 0.931 . S
N283 Eu252 2.657 . S
N283 C284 1.334 . S
N283 C288 1.362 . S
C284 H276 0.929 . S
C284 N283 1.334 . S
C284 C287 1.413 . S
C285 H279 0.930 . S
C285 C286 1.392 . S
C285 C287 1.367 . S
C286 C285 1.392 . S
C286 C288 1.420 . S
C286 C318 1.423 . S
C287 H273 0.930 . S
C287 C284 1.413 . S
C287 C285 1.367 . S
C288 N283 1.362 . S
C288 C286 1.420 . S
C288 C292 1.429 . S
H289 C294 0.930 . S
N290 Eu252 2.609 . S
N290 C292 1.377 . S
N290 C293 1.321 1_545 S
C291 H277 0.930 . S
C291 C293 1.400 . S
C291 C294 1.386 . S
C292 C288 1.429 . S
C292 N290 1.377 . S
C292 C295 1.411 1_545 S
C293 H275 0.930 . S
C293 N290 1.321 1_565 S
C293 C291 1.400 . S
C294 H289 0.930 . S
C294 C291 1.386 . S
C294 C295 1.395 . S
C295 C292 1.411 1_565 S
C295 C294 1.395 . S
C295 C317 1.420 . S
O296 Eu252 2.558 . S
O296 C316 1.257 . S
O297 Eu252 2.612 . S
O297 Eu263 2.380 . S
O297 C308 1.276 . S
O298 Eu263 2.432 . S
O298 C315 1.264 . S
O299 Eu252 2.339 . S
O299 C315 1.254 . S
O300 Eu252 2.563 . S
O300 C308 1.235 . S
O301 Eu252 2.419 . S
O301 C316 1.249 . S
O302 Eu263 2.558 . S
O302 C327 1.257 . S
O303 Eu252 2.380 . S
O303 Eu263 2.612 . S
O303 C319 1.276 . S
O304 Eu252 2.432 . S
O304 C326 1.264 . S
O305 Eu263 2.339 . S
O305 C326 1.254 . S
O306 Eu263 2.563 . S
O306 C319 1.235 . S
O307 Eu263 2.419 . S
O307 C327 1.249 . S
C308 O297 1.276 . S
C308 O300 1.235 . S
C309 C311 1.393 . S
C309 C313 1.395 1_545 S
C309 C316 1.492 . S
C310 C311 1.392 . S
C310 C312 1.386 . S
C311 C309 1.393 . S
C311 C310 1.392 . S
C311 H328 0.930 . S
C312 C310 1.386 . S
C312 C314 1.395 1_545 S
C312 H329 0.930 . S
C313 C309 1.395 1_565 S
C313 C314 1.379 . S
C313 H330 0.930 . S
C314 C312 1.395 1_565 S
C314 C313 1.379 . S
C314 H331 0.930 . S
C315 O298 1.264 . S
C315 O299 1.254 . S
C316 Eu252 2.848 . S
C316 O296 1.257 . S
C316 O301 1.249 . S
C316 C309 1.492 . S
C317 H282 0.931 . S
C317 C295 1.420 . S
C317 C318 1.351 1_565 S
C318 H280 0.930 . S
C318 C286 1.423 . S
C318 C317 1.351 1_545 S
C319 O303 1.276 . S
C319 O306 1.235 . S
C320 C321 1.393 1_655 S
C320 C324 1.395 1_655 S
C320 C327 1.492 . S
C321 C320 1.393 1_455 S
C321 C322 1.392 . S
C321 H332 0.930 . S
C322 C321 1.392 . S
C322 C323 1.386 . S
C323 C322 1.386 . S
C323 C325 1.395 . S
C323 H333 0.930 . S
C324 C320 1.395 1_455 S
C324 C325 1.379 . S
C324 H334 0.930 1_455 S
C325 C323 1.395 . S
C325 C324 1.379 . S
C325 H335 0.930 . S
C326 O304 1.264 . S
C326 O305 1.254 . S
C327 Eu263 2.848 . S
C327 O302 1.257 . S
C327 O307 1.249 . S
C327 C320 1.492 . S
H328 C311 0.930 . S
H329 C312 0.930 . S
H330 C313 0.930 . S
H331 C314 0.930 . S
H332 C321 0.930 . S
H333 C323 0.930 . S
H334 C324 0.930 1_655 S
H335 C325 0.930 . S
C336 C337 1.387 . S
C336 H340 0.950 . S
C336 C345 1.390 . S
C337 C336 1.387 . S
C337 C339 1.387 1_554 S
H338 C345 0.950 . S
C339 C337 1.387 1_556 S
C339 C341 1.390 . S
C339 H343 0.950 . S
H340 C336 0.950 . S
C341 C339 1.390 . S
C341 C342 1.387 1_556 S
C341 H344 0.950 . S
C342 C341 1.387 1_554 S
C342 C345 1.387 . S
H343 C339 0.950 . S
H344 C341 0.950 . S
C345 C336 1.390 . S
C345 H338 0.950 . S
C345 C342 1.387 . S
C346 C347 1.387 . S
C346 H350 0.950 . S
C346 C355 1.390 . S
C347 C346 1.387 . S
C347 C349 1.387 . S
H348 C355 0.950 . S
C349 C347 1.387 . S
C349 C351 1.390 . S
C349 H353 0.950 . S
H350 C346 0.950 . S
C351 C349 1.390 . S
C351 C352 1.387 . S
C351 H354 0.950 . S
C352 C351 1.387 . S
C352 C355 1.387 . S
H353 C349 0.950 . S
H354 C351 0.950 . S
C355 C346 1.390 . S
C355 H348 0.950 . S
C355 C352 1.387 . S
C356 C357 1.387 1_566 S
C356 H360 0.950 . S
C356 C365 1.390 1_455 S
C357 C356 1.387 1_544 S
C357 C359 1.387 . S
H358 C365 0.950 . S
C359 C357 1.387 . S
C359 C361 1.390 1_455 S
C359 H363 0.950 . S
H360 C356 0.950 . S
C361 C359 1.390 1_655 S
C361 C362 1.387 1_545 S
C361 H364 0.950 . S
C362 C361 1.387 1_565 S
C362 C365 1.387 1_554 S
H363 C359 0.950 . S
H364 C361 0.950 . S
C365 C356 1.390 1_655 S
C365 H358 0.950 . S
C365 C362 1.387 1_556 S
C366 C367 1.387 . S
C366 H370 0.950 . S
C366 C375 1.390 1_655 S
C367 C366 1.387 . S
C367 C369 1.387 1_545 S
H368 C375 0.950 . S
C369 C367 1.387 1_565 S
C369 C371 1.390 1_655 S
C369 H373 0.950 . S
H370 C366 0.950 . S
C371 C369 1.390 1_455 S
C371 C372 1.387 . S
C371 H374 0.950 . S
C372 C371 1.387 . S
C372 C375 1.387 1_565 S
H373 C369 0.950 . S
H374 C371 0.950 . S
C375 C366 1.390 1_455 S
C375 H368 0.950 . S
C375 C372 1.387 1_545 S
C376 C377 1.387 . S
C376 H380 0.950 . S
C376 C385 1.390 . S
C377 C376 1.387 . S
C377 C379 1.387 . S
H378 C385 0.950 . S
C379 C377 1.387 . S
C379 C381 1.390 . S
C379 H383 0.950 . S
H380 C376 0.950 . S
C381 C379 1.390 . S
C381 C382 1.387 . S
C381 H384 0.950 . S
C382 C381 1.387 . S
C382 C385 1.387 . S
H383 C379 0.950 . S
H384 C381 0.950 . S
C385 C376 1.390 . S
C385 H378 0.950 . S
C385 C382 1.387 . S
C386 C387 1.387 . S
C386 H390 0.950 . S
C386 C395 1.390 . S
C387 C386 1.387 . S
C387 C389 1.387 . S
H388 C395 0.950 . S
C389 C387 1.387 . S
C389 C391 1.390 . S
C389 H393 0.950 . S
H390 C386 0.950 . S
C391 C389 1.390 . S
C391 C392 1.387 . S
C391 H394 0.950 . S
C392 C391 1.387 . S
C392 C395 1.387 . S
H393 C389 0.950 . S
H394 C391 0.950 . S
C395 C386 1.390 . S
C395 H388 0.950 . S
C395 C392 1.387 . S
C396 C397 1.387 . S
C396 H400 0.950 . S
C396 C405 1.390 . S
C397 C396 1.387 . S
C397 C399 1.387 . S
H398 C405 0.950 . S
C399 C397 1.387 . S
C399 C401 1.390 . S
C399 H403 0.950 . S
H400 C396 0.950 . S
C401 C399 1.390 . S
C401 C402 1.387 . S
C401 H404 0.950 . S
C402 C401 1.387 . S
C402 C405 1.387 . S
H403 C399 0.950 . S
H404 C401 0.950 . S
C405 C396 1.390 . S
C405 H398 0.950 . S
C405 C402 1.387 . S
C406 C407 1.387 . S
C406 H410 0.950 . S
C406 C415 1.390 . S
C407 C406 1.387 . S
C407 C409 1.387 . S
H408 C415 0.950 . S
C409 C407 1.387 . S
C409 C411 1.390 . S
C409 H413 0.950 . S
H410 C406 0.950 . S
C411 C409 1.390 . S
C411 C412 1.387 . S
C411 H414 0.950 . S
C412 C411 1.387 . S
C412 C415 1.387 . S
H413 C409 0.950 . S
H414 C411 0.950 . S
C415 C406 1.390 . S
C415 H408 0.950 . S
C415 C412 1.387 . S
C416 C417 1.387 . S
C416 H420 0.950 . S
C416 C425 1.390 . S
C417 C416 1.387 . S
C417 C419 1.387 . S
H418 C425 0.950 . S
C419 C417 1.387 . S
C419 C421 1.390 . S
C419 H423 0.950 . S
H420 C416 0.950 . S
C421 C419 1.390 . S
C421 C422 1.387 . S
C421 H424 0.950 . S
C422 C421 1.387 . S
C422 C425 1.387 . S
H423 C419 0.950 . S
H424 C421 0.950 . S
C425 C416 1.390 . S
C425 H418 0.950 . S
C425 C422 1.387 . S
C426 C427 1.387 . S
C426 H430 0.950 . S
C426 C435 1.390 . S
C427 C426 1.387 . S
C427 C429 1.387 . S
H428 C435 0.950 . S
C429 C427 1.387 . S
C429 C431 1.390 . S
C429 H433 0.950 1_655 S
H430 C426 0.950 . S
C431 C429 1.390 . S
C431 C432 1.387 . S
C431 H434 0.950 1_655 S
C432 C431 1.387 . S
C432 C435 1.387 . S
H433 C429 0.950 1_455 S
H434 C431 0.950 1_455 S
C435 C426 1.390 . S
C435 H428 0.950 . S
C435 C432 1.387 . S
C436 C437 1.387 . S
C436 H440 0.950 1_455 S
C436 C445 1.390 . S
C437 C436 1.387 . S
C437 C439 1.387 . S
H438 C445 0.950 1_655 S
C439 C437 1.387 . S
C439 C441 1.390 . S
C439 H443 0.950 . S
H440 C436 0.950 1_655 S
C441 C439 1.390 . S
C441 C442 1.387 . S
C441 H444 0.950 . S
C442 C441 1.387 . S
C442 C445 1.387 . S
H443 C439 0.950 . S
H444 C441 0.950 . S
C445 C436 1.390 . S
C445 H438 0.950 1_455 S
C445 C442 1.387 . S
C446 C447 1.387 . S
C446 H450 0.950 . S
C446 C455 1.390 . S
C447 C446 1.387 . S
C447 C449 1.387 . S
H448 C455 0.950 . S
C449 C447 1.387 . S
C449 C451 1.390 . S
C449 H453 0.950 . S
H450 C446 0.950 . S
C451 C449 1.390 . S
C451 C452 1.387 . S
C451 H454 0.950 . S
C452 C451 1.387 . S
C452 C455 1.387 . S
H453 C449 0.950 . S
H454 C451 0.950 . S
C455 C446 1.390 . S
C455 H448 0.950 . S
C455 C452 1.387 . S
C337 C147 1.525 1_554 S
C342 C74 1.525 . S
C347 C242 1.525 . S
C352 C315 1.525 . S
C357 C63 1.522 1_554 S
C362 C158 1.522 . S
C367 C326 1.522 . S
C372 C231 1.522 . S
C377 C310 1.404 . S
C382 C56 1.358 . S
C387 C142 1.402 . S
C392 C224 1.354 . S
C397 C151 1.354 . S
C402 C238 1.402 . S
C407 C319 1.354 . S
C412 C70 1.401 . S
C417 C140 1.358 . S
C422 C226 1.403 . S
C427 C308 1.355 . S
C432 C58 1.401 . S
C437 C322 1.401 . S
C442 C67 1.355 . S
C447 C235 1.357 . S
C452 C154 1.402 . S
