# Generated by pormake.
# Topology wfa, (4)-cn, num edge types: 1
# Building blocks:
#     Node 0, Type 0, BuildingBlock: ESEHIV_clean_sbu_0, # of connection points: 4
#     Node 1, Type 0, BuildingBlock: ESEHIV_clean_sbu_0, # of connection points: 4
#     Node 2, Type 0, BuildingBlock: ESEHIV_clean_sbu_0, # of connection points: 4
#     Node 3, Type 0, BuildingBlock: ESEHIV_clean_sbu_0, # of connection points: 4
#     Node 4, Type 0, BuildingBlock: ESEHIV_clean_sbu_0, # of connection points: 4
#     Node 5, Type 0, BuildingBlock: ESEHIV_clean_sbu_0, # of connection points: 4
#     Node 6, Type 0, BuildingBlock: ESEHIV_clean_sbu_0, # of connection points: 4
#     Node 7, Type 0, BuildingBlock: ESEHIV_clean_sbu_0, # of connection points: 4
#     Node 8, Type 0, BuildingBlock: ESEHIV_clean_sbu_0, # of connection points: 4
#     Node 9, Type 0, BuildingBlock: ESEHIV_clean_sbu_0, # of connection points: 4
#     Node 10, Type 0, BuildingBlock: ESEHIV_clean_sbu_0, # of connection points: 4
#     Node 11, Type 0, BuildingBlock: ESEHIV_clean_sbu_0, # of connection points: 4
#     Node 12, Type 0, BuildingBlock: ESEHIV_clean_sbu_0, # of connection points: 4
#     Node 13, Type 0, BuildingBlock: ESEHIV_clean_sbu_0, # of connection points: 4
#     Node 14, Type 0, BuildingBlock: ESEHIV_clean_sbu_0, # of connection points: 4
#     Node 15, Type 0, BuildingBlock: ESEHIV_clean_sbu_0, # of connection points: 4
#     Edge 16, Type (0, 0), BuildingBlock: ZUJKAS_clean_linker_0, # of connection points: 2
#     Edge 17, Type (0, 0), BuildingBlock: ZUJKAS_clean_linker_0, # of connection points: 2
#     Edge 18, Type (0, 0), BuildingBlock: ZUJKAS_clean_linker_0, # of connection points: 2
#     Edge 19, Type (0, 0), BuildingBlock: ZUJKAS_clean_linker_0, # of connection points: 2
#     Edge 20, Type (0, 0), BuildingBlock: ZUJKAS_clean_linker_0, # of connection points: 2
#     Edge 21, Type (0, 0), BuildingBlock: ZUJKAS_clean_linker_0, # of connection points: 2
#     Edge 22, Type (0, 0), BuildingBlock: ZUJKAS_clean_linker_0, # of connection points: 2
#     Edge 23, Type (0, 0), BuildingBlock: ZUJKAS_clean_linker_0, # of connection points: 2
#     Edge 24, Type (0, 0), BuildingBlock: ZUJKAS_clean_linker_0, # of connection points: 2
#     Edge 25, Type (0, 0), BuildingBlock: ZUJKAS_clean_linker_0, # of connection points: 2
#     Edge 26, Type (0, 0), BuildingBlock: ZUJKAS_clean_linker_0, # of connection points: 2
#     Edge 27, Type (0, 0), BuildingBlock: ZUJKAS_clean_linker_0, # of connection points: 2
#     Edge 28, Type (0, 0), BuildingBlock: ZUJKAS_clean_linker_0, # of connection points: 2
#     Edge 29, Type (0, 0), BuildingBlock: ZUJKAS_clean_linker_0, # of connection points: 2
#     Edge 30, Type (0, 0), BuildingBlock: ZUJKAS_clean_linker_0, # of connection points: 2
#     Edge 31, Type (0, 0), BuildingBlock: ZUJKAS_clean_linker_0, # of connection points: 2
#     Edge 32, Type (0, 0), BuildingBlock: ZUJKAS_clean_linker_0, # of connection points: 2
#     Edge 33, Type (0, 0), BuildingBlock: ZUJKAS_clean_linker_0, # of connection points: 2
#     Edge 34, Type (0, 0), BuildingBlock: ZUJKAS_clean_linker_0, # of connection points: 2
#     Edge 35, Type (0, 0), BuildingBlock: ZUJKAS_clean_linker_0, # of connection points: 2
#     Edge 36, Type (0, 0), BuildingBlock: ZUJKAS_clean_linker_0, # of connection points: 2
#     Edge 37, Type (0, 0), BuildingBlock: ZUJKAS_clean_linker_0, # of connection points: 2
#     Edge 38, Type (0, 0), BuildingBlock: ZUJKAS_clean_linker_0, # of connection points: 2
#     Edge 39, Type (0, 0), BuildingBlock: ZUJKAS_clean_linker_0, # of connection points: 2
#     Edge 40, Type (0, 0), BuildingBlock: ZUJKAS_clean_linker_0, # of connection points: 2
#     Edge 41, Type (0, 0), BuildingBlock: ZUJKAS_clean_linker_0, # of connection points: 2
#     Edge 42, Type (0, 0), BuildingBlock: ZUJKAS_clean_linker_0, # of connection points: 2
#     Edge 43, Type (0, 0), BuildingBlock: ZUJKAS_clean_linker_0, # of connection points: 2
#     Edge 44, Type (0, 0), BuildingBlock: ZUJKAS_clean_linker_0, # of connection points: 2
#     Edge 45, Type (0, 0), BuildingBlock: ZUJKAS_clean_linker_0, # of connection points: 2
#     Edge 46, Type (0, 0), BuildingBlock: ZUJKAS_clean_linker_0, # of connection points: 2
#     Edge 47, Type (0, 0), BuildingBlock: ZUJKAS_clean_linker_0, # of connection points: 2
# Relax obj value: 0.135
# Max RMSD: 0.160
# Mean RMSD: 0.152
data_MOF--net-wfa--node1-ESEHIV_clean_sbu_0--edge1-ZUJKAS_clean_linker_0
_symmetry_space_group_name_H-M    P1
_symmetry_Int_Tables_number       1
_symmetry_cell_setting            triclinic
loop_
_symmetry_equiv_pos_as_xyz
'x, y, z'
_cell_length_a     67.748526
_cell_length_b     67.848437
_cell_length_c     29.258204
_cell_angle_alpha  88.460816
_cell_angle_beta   88.617049
_cell_angle_gamma 88.764966
loop_
_atom_site_label
_atom_site_type_symbol
_atom_site_fract_x
_atom_site_fract_y
_atom_site_fract_z
_atom_type_partial_charge
Cu0 Cu 0.64414 0.0243 0.03112 0.0
N1 N 0.63866 0.05112 0.03848 0.0
N2 N 0.62207 0.07841 0.05878 0.0
C3 C 0.62077 0.05944 0.04681 0.0
C4 C 0.64153 0.08229 0.05718 0.0
C5 C 0.65173 0.06545 0.04423 0.0
O6 O 0.61877 1.01063 0.03465 0.0
C7 C 0.66405 0.02287 0.11629 0.0
O8 O 0.65046 0.03602 0.12792 0.0
H9 H 0.60716 0.05139 0.0476 0.0
H10 H 0.6676 0.06338 0.04218 0.0
N11 N 0.65512 0.02107 0.97239 0.0
N12 N 0.67511 0.02249 0.91018 0.0
C13 C 0.67278 0.02686 0.95498 0.0
C14 C 0.64597 1.01289 0.93762 0.0
C15 C 0.65817 1.01373 0.8994 0.0
C16 C 0.60691 1.01116 0.06916 0.0
O17 O 0.61266 0.01938 0.1066 0.0
H18 H 0.68363 0.03411 0.97484 0.0
H19 H 0.63126 1.00698 0.93981 0.0
O20 O 0.66339 0.01526 0.07692 0.0
H21 H 0.64796 0.09597 0.06701 0.0
H22 H 0.65453 1.00866 0.86595 0.0
Cu23 Cu 0.53133 0.66025 0.04198 0.0
N24 N 0.5057 0.65191 0.05617 0.0
N25 N 0.48121 0.63211 0.07918 0.0
C26 C 0.50008 0.63314 0.06361 0.0
C27 C 0.47459 0.651 0.08093 0.0
C28 C 0.48971 0.66317 0.06652 0.0
O29 O 0.54804 0.63625 0.03994 0.0
C30 C 0.53256 0.67915 0.12813 0.0
O31 O 0.52178 0.66423 0.14234 0.0
H32 H 0.50993 0.6205 0.05998 0.0
H33 H 0.48937 0.67912 0.06558 0.0
N34 N 0.53161 0.67189 0.98304 0.0
N35 N 0.53371 0.69318 0.92314 0.0
C36 C 0.53392 0.69091 0.96935 0.0
C37 C 0.52976 0.66188 0.94442 0.0
C38 C 0.53104 0.67488 0.90759 0.0
C39 C 0.5499 0.62421 0.07386 0.0
O40 O 0.54269 0.62929 0.11401 0.0
H41 H 0.53602 0.70275 0.99272 0.0
H42 H 0.52764 0.64615 0.94322 0.0
O43 O 0.53895 0.67972 0.0867 0.0
H44 H 0.46005 0.65572 0.09289 0.0
H45 H 0.52981 0.67112 0.87208 0.0
Cu46 Cu 0.85685 0.52172 0.03409 0.0
N47 N 0.86612 0.53966 0.07558 0.0
N48 N 0.8845 0.54063 0.13844 0.0
C49 C 0.884 0.53624 0.09369 0.0
C50 C 0.86642 0.54851 0.14797 0.0
C51 C 0.85514 0.54781 0.10934 0.0
O52 O 0.88114 0.50763 0.01395 0.0
C53 C 0.82 0.5134 0.07517 0.0
O54 O 0.81475 0.52862 0.04927 0.0
H55 H 0.89547 0.52797 0.07615 0.0
H56 H 0.83929 0.54998 0.10853 0.0
N57 N 0.84391 0.53346 0.98362 0.0
N58 N 0.82362 0.53699 0.92425 0.0
C59 C 0.832 0.52428 0.95491 0.0
C60 C 0.84314 0.55261 0.9706 0.0
C61 C 0.83073 0.55483 0.93397 0.0
C62 C 0.89239 0.51654 0.98478 0.0
O63 O 0.88549 0.5325 0.96378 0.0
H64 H 0.82926 0.50863 0.95721 0.0
H65 H 0.85068 0.56421 0.98734 0.0
O66 O 0.83772 0.50661 0.07182 0.0
H67 H 0.86077 0.55189 0.18183 0.0
H68 H 0.82672 0.56864 0.91696 0.0
Cu69 Cu 0.04446 0.85902 0.02711 0.0
N70 N 0.02344 0.86646 0.0654 0.0
N71 N 1.01182 0.87923 0.13059 0.0
C72 C 0.02596 0.8799 0.09742 0.0
C73 C 0.99967 0.86482 0.11856 0.0
C74 C 1.00688 0.85695 0.07813 0.0
O75 O 0.05801 0.88404 0.01348 0.0
C76 C 0.0507 0.82254 0.07003 0.0
O77 O 0.03482 0.81912 0.04688 0.0
H78 H 0.03931 0.8883 0.09925 0.0
H79 H 1.00153 0.84405 0.06181 0.0
N80 N 0.03593 0.84738 0.97349 0.0
N81 N 0.03453 0.82736 0.91381 0.0
C82 C 0.04555 0.83356 0.94847 0.0
C83 C 0.01823 0.84996 0.95409 0.0
C84 C 0.01736 0.83776 0.91731 0.0
C85 C 0.04813 0.89731 0.99151 0.0
O86 O 0.03096 0.89261 0.9755 0.0
H87 H 0.06023 0.82798 0.95606 0.0
H88 H 1.00658 0.8597 0.96657 0.0
O89 O 0.05881 0.83931 0.06469 0.0
H90 H 0.98737 0.85936 0.13913 0.0
H91 H 1.00473 0.8362 0.89583 0.0
Cu92 Cu 0.14463 1.00609 0.49935 0.0
N93 N 0.13952 0.97945 0.49223 0.0
N94 N 0.12329 0.953 0.47123 0.0
C95 C 0.12184 0.97207 0.48278 0.0
C96 C 0.14264 0.94805 0.4742 0.0
C97 C 0.15261 0.96439 0.48758 0.0
O98 O 0.11893 0.02008 0.49577 0.0
C99 C 0.16591 1.00667 0.41371 0.0
O100 O 0.15341 0.99303 0.40342 0.0
H101 H 0.10838 0.98088 0.48085 0.0
H102 H 0.16841 0.96561 0.49065 0.0
N103 N 0.15476 1.00915 0.55773 0.0
N104 N 0.17441 1.00829 0.61849 0.0
C105 C 0.17288 1.00436 0.5735 0.0
C106 C 0.14448 0.01621 0.59379 0.0
C107 C 0.15647 0.01571 0.63111 0.0
C108 C 0.10886 0.02085 0.45945 0.0
O109 O 0.11695 1.01418 0.42151 0.0
H110 H 0.18465 0.99819 0.55233 0.0
H111 H 0.1292 0.02113 0.59306 0.0
O112 O 0.16418 0.01474 0.45259 0.0
H113 H 0.14922 0.93398 0.46508 0.0
H114 H 0.15206 0.02008 0.66521 0.0
Cu115 Cu 0.53515 0.16825 0.50456 0.0
N116 N 0.51436 0.16392 0.46594 0.0
N117 N 0.50328 0.15413 0.39905 0.0
C118 C 0.51657 0.15103 0.43215 0.0
C119 C 0.492 0.16961 0.41294 0.0
C120 C 0.49889 0.17564 0.45439 0.0
O121 O 0.54672 0.14182 0.51739 0.0
C122 C 0.54532 0.20415 0.46344 0.0
O123 O 0.53023 0.20996 0.48906 0.0
H124 H 0.52934 0.14123 0.42915 0.0
H125 H 0.49427 0.18878 0.47223 0.0
N126 N 0.52655 0.18025 0.55888 0.0
N127 N 0.52538 0.19992 0.61933 0.0
C128 C 0.53646 0.1931 0.58378 0.0
C129 C 0.50866 0.17882 0.57944 0.0
C130 C 0.5079 0.19086 0.61669 0.0
C131 C 0.53445 0.12887 0.53174 0.0
O132 O 0.51613 0.13464 0.54037 0.0
H133 H 0.55138 0.19758 0.57542 0.0
H134 H 0.4968 0.17003 0.56744 0.0
O135 O 0.55145 0.18626 0.46715 0.0
H136 H 0.48068 0.17702 0.39299 0.0
H137 H 0.49518 0.19326 0.63909 0.0
Cu138 Cu 0.35905 0.50966 0.44726 0.0
N139 N 0.37073 0.49115 0.40854 0.0
N140 N 0.38974 0.48586 0.34615 0.0
C141 C 0.38733 0.49589 0.38507 0.0
C142 C 0.37411 0.47383 0.34557 0.0
C143 C 0.36238 0.47713 0.38415 0.0
O144 O 0.3821 0.52468 0.46541 0.0
C145 C 0.32307 0.51367 0.40442 0.0
O146 O 0.32074 0.4971 0.42795 0.0
H147 H 0.3958 0.50868 0.39264 0.0
H148 H 0.34775 0.47151 0.39075 0.0
N149 N 0.34614 0.49871 0.49935 0.0
N150 N 0.32525 0.49617 0.55975 0.0
C151 C 0.33267 0.50813 0.52615 0.0
C152 C 0.34725 0.48013 0.51643 0.0
C153 C 0.33449 0.47854 0.55382 0.0
C154 C 0.3935 0.51605 0.49429 0.0
O155 O 0.38731 0.49999 0.51562 0.0
H156 H 0.32832 0.52344 0.52077 0.0
H157 H 0.3565 0.4685 0.50228 0.0
O158 O 0.33907 0.52306 0.40882 0.0
H159 H 0.37039 0.46475 0.3173 0.0
H160 H 0.33182 0.46529 0.57423 0.0
Cu161 Cu 0.02191 0.36569 0.47512 0.0
N162 N 0.99804 0.37766 0.45732 0.0
N163 N 0.97686 0.40008 0.42787 0.0
C164 C 0.99602 0.39515 0.43475 0.0
C165 C 0.96646 0.3851 0.44699 0.0
C166 C 0.97954 0.37137 0.4653 0.0
O167 O 0.03995 0.38811 0.47786 0.0
C168 C 0.01749 0.33239 0.42169 0.0
O169 O 1.00123 0.33156 0.44698 0.0
H170 H 1.00839 0.404 0.42336 0.0
H171 H 0.9758 0.35788 0.48371 0.0
N172 N 0.01775 0.35304 0.53276 0.0
N173 N 0.01764 0.33144 0.59245 0.0
C174 C 0.02554 0.33601 0.55047 0.0
C175 C 1.00457 0.35932 0.56452 0.0
C176 C 1.00453 0.34623 0.60115 0.0
C177 C 0.04151 0.3981 0.51399 0.0
O178 O 0.03339 0.39145 0.55238 0.0
H179 H 0.03636 0.32697 0.53248 0.0
H180 H 0.99552 0.37259 0.56113 0.0
O181 O 0.02957 0.34612 0.42882 0.0
H182 H 0.95052 0.3843 0.44848 0.0
H183 H 0.99558 0.34766 0.63205 0.0
Cu184 Cu 0.36225 1.01421 0.98491 0.0
N185 N 0.37305 0.03124 0.94057 0.0
N186 N 0.39018 0.03656 0.87529 0.0
C187 C 0.38791 0.02498 0.91309 0.0
C188 C 0.3762 0.05096 0.8794 0.0
C189 C 0.36562 0.04764 0.91988 0.0
O190 O 0.38547 0.9989 1.00584 0.0
C191 C 0.32676 1.00985 0.94234 0.0
O192 O 0.32467 0.02771 0.95823 0.0
H193 H 0.3954 1.01087 0.91823 0.0
H194 H 0.35245 0.05556 0.93119 0.0
N195 N 0.34952 0.0274 0.03355 0.0
N196 N 0.32815 0.03365 0.09143 0.0
C197 C 0.33529 0.02008 0.06187 0.0
C198 C 0.35145 0.04626 0.04547 0.0
C199 C 0.33839 0.05012 0.08122 0.0
C200 C 0.39726 1.00761 0.0317 0.0
O201 O 0.39175 0.02475 0.0481 0.0
H202 H 0.33014 1.00513 0.06029 0.0
H203 H 0.36137 0.05659 0.02869 0.0
O204 O 0.34245 0.9999 0.95169 0.0
H205 H 0.37296 0.06224 0.85366 0.0
H206 H 0.33618 0.06419 0.09737 0.0
Cu207 Cu 0.53947 0.38452 0.99693 0.0
N208 N 0.51882 0.39882 0.96939 0.0
N209 N 0.50666 0.42435 0.92812 0.0
C210 C 0.51953 0.41836 0.96027 0.0
C211 C 0.49717 0.40794 0.91688 0.0
C212 C 0.50464 0.39221 0.94257 0.0
O213 O 0.5589 0.40484 1.00744 0.0
C214 C 0.53767 0.34882 0.95219 0.0
O215 O 0.52231 0.34722 0.98019 0.0
H216 H 0.53096 0.4276 0.97252 0.0
H217 H 0.50138 0.37685 0.93841 0.0
N218 N 0.53112 0.37215 0.0521 0.0
N219 N 0.52985 0.35114 0.11267 0.0
C220 C 0.54081 0.35796 0.07646 0.0
C221 C 0.51347 0.37443 0.07343 0.0
C222 C 0.51264 0.36158 0.11068 0.0
C223 C 0.55671 0.41548 0.04262 0.0
O224 O 0.54418 0.40989 0.07512 0.0
H225 H 0.55549 0.35263 0.06722 0.0
H226 H 0.50183 0.3844 0.06196 0.0
O227 O 0.54817 0.36419 0.95391 0.0
H228 H 0.48686 0.40707 0.88935 0.0
H229 H 0.5 0.3597 0.13353 0.0
Cu230 Cu 0.14211 0.50255 0.95849 0.0
N231 N 0.1337 0.48123 0.92522 0.0
N232 N 0.11572 0.47029 0.86828 0.0
C233 C 0.11605 0.48183 0.90494 0.0
C234 C 0.13389 0.46185 0.86538 0.0
C235 C 0.14491 0.46845 0.90086 0.0
O236 O 0.11722 0.5171 0.97151 0.0
C237 C 0.17857 0.50772 0.91453 0.0
O238 O 0.18265 0.49261 0.94193 0.0
H239 H 0.10476 0.49291 0.91207 0.0
H240 H 0.16062 0.46615 0.9046 0.0
N241 N 0.15478 0.4947 0.01296 0.0
N242 N 0.17577 0.49439 0.07136 0.0
C243 C 0.16791 0.50507 0.03617 0.0
C244 C 0.15419 0.47692 0.0343 0.0
C245 C 0.16698 0.47671 0.07028 0.0
C246 C 0.10536 0.50918 1.00093 0.0
O247 O 0.11192 0.4942 0.02602 0.0
H248 H 0.17226 0.51983 0.02598 0.0
H249 H 0.14537 0.46482 0.02376 0.0
O250 O 0.16133 0.51571 0.91713 0.0
H251 H 0.13949 0.45344 0.83675 0.0
H252 H 0.16965 0.46433 0.09354 0.0
Cu253 Cu 0.026 0.14322 0.9846 0.0
N254 N 0.99996 0.13533 0.98046 0.0
N255 N 0.97484 0.11739 0.95785 0.0
C256 C 0.99449 0.12022 0.95512 0.0
C257 C 0.96763 0.13143 0.98602 0.0
C258 C 0.98322 0.14245 1.00008 0.0
O259 O 0.0406 0.11809 0.97514 0.0
C260 C 0.04371 0.17511 0.92981 0.0
O261 O 0.05769 0.17516 0.96015 0.0
H262 H 1.00478 0.11171 0.93433 0.0
H263 H 0.98242 0.15475 0.02288 0.0
N264 N 0.02942 0.15388 0.0429 0.0
N265 N 0.03234 0.17439 0.10138 0.0
C266 C 0.03079 0.17289 0.05544 0.0
C267 C 0.02958 0.14322 0.08232 0.0
C268 C 0.03158 0.1557 0.11814 0.0
C269 C 0.05308 0.10913 1.00073 0.0
O270 O 0.06042 0.11837 0.0351 0.0
H271 H 0.03056 0.18534 0.03153 0.0
H272 H 0.02796 0.1274 0.08491 0.0
O273 O 0.02995 0.16265 0.93447 0.0
H274 H 0.95227 0.1335 0.99607 0.0
H275 H 0.03183 0.15138 0.15401 0.0
Cu276 Cu 0.86068 0.01901 0.52448 0.0
N277 N 0.87021 1.00181 0.56985 0.0
N278 N 0.88501 0.99734 0.63699 0.0
C279 C 0.88476 1.00744 0.59673 0.0
C280 C 0.87011 0.98449 0.63513 0.0
C281 C 0.861 0.98726 0.59353 0.0
O282 O 0.88442 0.03324 0.50397 0.0
C283 C 0.82413 0.02591 0.56597 0.0
O284 O 0.82154 1.00845 0.54902 0.0
H285 H 0.89322 0.02057 0.58953 0.0
H286 H 0.8474 0.98069 0.58363 0.0
N287 N 0.84894 1.00602 0.47616 0.0
N288 N 0.82826 0.99978 0.41971 0.0
C289 C 0.83466 1.01338 0.44868 0.0
C290 C 0.85167 0.98714 0.46421 0.0
C291 C 0.83906 0.98328 0.42934 0.0
C292 C 0.8966 0.02474 0.4765 0.0
O293 O 0.89127 1.00851 0.45719 0.0
H294 H 0.82885 0.02832 0.45061 0.0
H295 H 0.8618 0.97677 0.48051 0.0
O296 O 0.84041 0.03456 0.55724 0.0
H297 H 0.86511 0.975 0.6632 0.0
H298 H 0.83747 0.96918 0.41353 0.0
Cu299 Cu 0.53115 0.88168 0.52919 0.0
N300 N 0.50485 0.88877 0.54156 0.0
N301 N 0.47923 0.90709 0.56667 0.0
C302 C 0.49842 0.90688 0.55335 0.0
C303 C 0.47329 0.88834 0.56277 0.0
C304 C 0.48914 0.87707 0.54708 0.0
O305 O 0.54511 0.90681 0.52612 0.0
C306 C 0.53289 0.86308 0.61758 0.0
O307 O 0.52115 0.87787 0.62916 0.0
H308 H 0.50794 0.91942 0.5549 0.0
H309 H 0.48947 0.86132 0.54213 0.0
N310 N 0.53305 0.87027 0.47139 0.0
N311 N 0.53555 0.84897 0.41393 0.0
C312 C 0.53426 0.85108 0.45993 0.0
C313 C 0.53346 0.88055 0.43151 0.0
C314 C 0.53499 0.86757 0.3962 0.0
C315 C 0.54988 0.91666 0.56055 0.0
O316 O 0.54827 0.90852 0.60165 0.0
H317 H 0.53441 0.83899 0.48481 0.0
H318 H 0.53261 0.89647 0.42839 0.0
O319 O 0.53976 0.8625 0.5766 0.0
H320 H 0.45872 0.88304 0.57189 0.0
H321 H 0.53531 0.87158 0.36016 0.0
Cu322 Cu 0.64014 0.52985 0.53959 0.0
N323 N 0.62718 0.54955 0.57256 0.0
N324 N 0.60411 0.5524 0.62839 0.0
C325 C 0.62205 0.54493 0.61613 0.0
C326 C 0.59826 0.56329 0.59168 0.0
C327 C 0.61245 0.56141 0.55722 0.0
O328 O 0.61752 0.51358 0.52539 0.0
C329 C 0.67362 0.53077 0.58976 0.0
O330 O 0.67282 0.54837 0.56993 0.0
H331 H 0.6299 0.53364 0.63563 0.0
H332 H 0.61045 0.56557 0.52167 0.0
N333 N 0.65349 0.53901 0.48632 0.0
N334 N 0.67513 0.53957 0.42688 0.0
C335 C 0.66648 0.52845 0.46061 0.0
C336 C 0.65388 0.55746 0.46848 0.0
C337 C 0.66712 0.55785 0.4319 0.0
C338 C 0.6066 0.51986 0.49283 0.0
O339 O 0.61359 0.53344 0.46436 0.0
H340 H 0.66967 0.51297 0.46725 0.0
H341 H 0.64558 0.56988 0.482 0.0
O342 O 0.66014 0.51863 0.58099 0.0
H343 H 0.58363 0.56973 0.58758 0.0
H344 H 0.67096 0.57085 0.41172 0.0
Cu345 Cu 0.04731 0.64086 0.5365 0.0
N346 N 0.0256 0.62884 0.56556 0.0
N347 N 1.01301 0.60406 0.60827 0.0
C348 C 0.02464 0.60915 0.57208 0.0
C349 C 1.00583 0.62126 0.62457 0.0
C350 C 1.01354 0.63652 0.59805 0.0
O351 O 0.06582 0.61842 0.52796 0.0
C352 C 0.04614 0.67711 0.57995 0.0
O353 O 0.03113 0.67964 0.55263 0.0
H354 H 0.03451 0.59882 0.55519 0.0
H355 H 1.01242 0.652 0.60577 0.0
N356 N 0.04028 0.65308 0.48051 0.0
N357 N 0.03931 0.67432 0.42041 0.0
C358 C 0.0495 0.6679 0.45742 0.0
C359 C 0.02382 0.64995 0.45725 0.0
C360 C 0.0232 0.66293 0.42025 0.0
C361 C 0.06435 0.60747 0.4934 0.0
O362 O 0.05386 0.61402 0.45881 0.0
H363 H 0.06296 0.67436 0.46868 0.0
H364 H 1.01285 0.63919 0.46707 0.0
O365 O 0.05621 0.661 0.57811 0.0
H366 H 0.99746 0.62278 0.65632 0.0
H367 H 1.01166 0.66393 0.39529 0.0
H368 H 0.51659 0.11775 0.37812 0.0
H369 H 0.52933 0.1076 0.30378 0.0
H370 H 0.5066 0.16167 0.24211 0.0
H371 H 0.49499 0.17252 0.31748 0.0
H372 H 0.51788 0.10088 0.22134 0.0
H373 H 0.56403 0.16787 0.2144 0.0
H374 H 0.54908 0.16132 0.26395 0.0
H375 H 0.53785 0.17242 0.21415 0.0
C376 C 0.51409 0.12739 0.34864 0.0
C377 C 0.50533 0.14617 0.35395 0.0
C378 C 0.52128 0.12153 0.306 0.0
C379 C 0.51959 0.13418 0.26749 0.0
C380 C 0.50874 0.15197 0.27163 0.0
H381 H 0.58417 0.08148 0.03233 0.0
H382 H 0.55664 0.09774 0.0736 0.0
C383 C 0.5018 0.15802 0.31466 0.0
C384 C 0.53106 0.12934 0.22512 0.0
H385 H 0.57065 0.14426 0.15945 0.0
C386 C 0.52925 0.11046 0.20729 0.0
C387 C 0.54601 0.14183 0.20704 0.0
C388 C 0.54954 0.16192 0.22598 0.0
C389 C 0.54276 0.10318 0.17436 0.0
C390 C 0.55803 0.1155 0.15719 0.0
C391 C 0.55896 0.13486 0.17264 0.0
C392 C 0.57465 0.10787 0.1281 0.0
C393 C 0.54136 0.08192 0.16101 0.0
C394 C 0.59409 0.10924 0.14326 0.0
C395 C 0.60982 0.1005 0.11904 0.0
C396 C 0.6064 0.09 0.07943 0.0
C397 C 0.5871 0.08935 0.06306 0.0
C398 C 0.57138 0.09847 0.08683 0.0
H399 H 0.53168 0.07336 0.18507 0.0
H400 H 0.53501 0.08131 0.1265 0.0
H401 H 0.55617 0.07458 0.15999 0.0
H402 H 0.59705 0.11641 0.17495 0.0
H403 H 0.6245 0.10104 0.13268 0.0
H404 H 0.38152 0.48621 0.25546 0.0
H405 H 0.39907 0.50486 0.19504 0.0
H406 H 0.44286 0.52054 0.2916 0.0
H407 H 0.42604 0.50109 0.35111 0.0
H408 H 0.40184 0.54269 0.19501 0.0
H409 H 0.47797 0.51307 0.18335 0.0
H410 H 0.45847 0.49965 0.21253 0.0
H411 H 0.47183 0.51807 0.24181 0.0
C412 C 0.39537 0.49287 0.2633 0.0
C413 C 0.4023 0.49228 0.30827 0.0
C414 C 0.4053 0.50373 0.22878 0.0
C415 C 0.42237 0.51414 0.2385 0.0
C416 C 0.43003 0.51237 0.28264 0.0
H417 H 0.45399 0.62962 0.14827 0.0
H418 H 0.43908 0.59978 0.1805 0.0
C419 C 0.42025 0.50138 0.31691 0.0
C420 C 0.4305 0.52904 0.20515 0.0
H421 H 0.47374 0.54803 0.16295 0.0
C422 C 0.41753 0.54358 0.18726 0.0
C423 C 0.45092 0.53018 0.19416 0.0
C424 C 0.46552 0.51424 0.20862 0.0
C425 C 0.42451 0.55975 0.16115 0.0
C426 C 0.4451 0.56186 0.15389 0.0
C427 C 0.45798 0.5467 0.16927 0.0
C428 C 0.45362 0.58008 0.13269 0.0
C429 C 0.40968 0.57448 0.14196 0.0
C430 C 0.46721 0.579 0.09578 0.0
C431 C 0.47598 0.5961 0.07763 0.0
C432 C 0.4713 0.61464 0.09597 0.0
C433 C 0.45758 0.61568 0.13267 0.0
C434 C 0.44899 0.59858 0.15108 0.0
H435 H 0.39535 0.56742 0.13593 0.0
H436 H 0.40685 0.58627 0.16699 0.0
H437 H 0.4151 0.58134 0.10927 0.0
H438 H 0.47112 0.56491 0.08112 0.0
H439 H 0.48644 0.59482 0.04926 0.0
H440 H 0.88954 0.55154 0.22646 0.0
H441 H 0.90891 0.53374 0.28479 0.0
H442 H 0.92911 0.49215 0.18424 0.0
H443 H 0.91019 0.50936 0.12673 0.0
H444 H 0.90372 0.49645 0.31487 0.0
H445 H 0.97987 0.50173 0.24618 0.0
H446 H 0.96004 0.51747 0.22531 0.0
H447 H 0.96409 0.49315 0.20301 0.0
C448 C 0.89835 0.53879 0.2166 0.0
C449 C 0.89813 0.53211 0.17142 0.0
C450 C 0.90947 0.52865 0.25 0.0
C451 C 0.92076 0.51176 0.23881 0.0
C452 C 0.92105 0.50547 0.19359 0.0
H453 H 0.94291 0.4036 0.38119 0.0
H454 H 0.92991 0.43296 0.34134 0.0
C455 C 0.91003 0.5155 0.16038 0.0
C456 C 0.9306 0.49929 0.27457 0.0
H457 H 0.97306 0.47274 0.29457 0.0
C458 C 0.91901 0.49159 0.31099 0.0
C459 C 0.95065 0.49315 0.27024 0.0
C460 C 0.9644 0.50201 0.23432 0.0
C461 C 0.92652 0.47696 0.34113 0.0
C462 C 0.94598 0.46943 0.33396 0.0
C463 C 0.95801 0.47815 0.2996 0.0
C464 C 0.95373 0.45179 0.35969 0.0
C465 C 0.91338 0.46955 0.37997 0.0
C466 C 0.97181 0.4523 0.38211 0.0
C467 C 0.97942 0.43538 0.40451 0.0
C468 C 0.96909 0.41759 0.40494 0.0
C469 C 0.95104 0.41713 0.38231 0.0
C470 C 0.94354 0.43397 0.35966 0.0
H471 H 0.90246 0.48109 0.39061 0.0
H472 H 0.90502 0.45677 0.3685 0.0
H473 H 0.9221 0.4648 0.41014 0.0
H474 H 0.98004 0.46581 0.38234 0.0
H475 H 0.99328 0.43628 0.42189 0.0
H476 H 0.02718 0.91458 0.14672 0.0
H477 H 0.0385 0.92558 0.21997 0.0
H478 H 1.01097 0.87576 0.28815 0.0
H479 H 1.00057 0.86403 0.21417 0.0
H480 H 0.02439 0.93561 0.30158 0.0
H481 H 0.0677 0.86521 0.31836 0.0
H482 H 0.05455 0.87195 0.26733 0.0
H483 H 0.04139 0.8628 0.31738 0.0
C484 C 0.02331 0.90609 0.17738 0.0
C485 C 1.01346 0.88817 0.17446 0.0
C486 C 0.02969 0.91245 0.21934 0.0
C487 C 0.02616 0.90116 0.25946 0.0
C488 C 1.01442 0.88438 0.25743 0.0
H489 H 0.08448 0.95284 0.49461 0.0
H490 H 0.05802 0.9381 0.45197 0.0
C491 C 1.00822 0.87784 0.21516 0.0
C492 C 0.03663 0.90609 0.30162 0.0
H493 H 0.07356 0.88943 0.37113 0.0
C494 C 0.03495 0.92545 0.31732 0.0
C495 C 0.05054 0.89282 0.32185 0.0
C496 C 0.05384 0.87209 0.30528 0.0
C497 C 0.04757 0.93229 0.35059 0.0
C498 C 0.06183 0.91915 0.36992 0.0
C499 C 0.06264 0.89946 0.35629 0.0
C500 C 0.07762 0.92602 0.39976 0.0
C501 C 0.04634 0.95384 0.36224 0.0
C502 C 0.09751 0.92306 0.38639 0.0
C503 C 0.1126 0.93098 0.41139 0.0
C504 C 0.1081 0.9422 0.45001 0.0
C505 C 0.08827 0.9444 0.46465 0.0
C506 C 0.07317 0.93615 0.44009 0.0
H507 H 0.03774 0.96272 0.33687 0.0
H508 H 0.03884 0.95541 0.39613 0.0
H509 H 0.06129 0.96013 0.36394 0.0
H510 H 0.10136 0.91527 0.35547 0.0
H511 H 0.12771 0.92923 0.39904 0.0
H512 H 0.42507 0.01672 0.87362 0.0
H513 H 0.4406 1.00081 0.80799 0.0
H514 H 0.39711 0.02801 0.71982 0.0
H515 H 0.38093 0.0433 0.78616 0.0
H516 H 0.399 0.98992 0.70762 0.0
H517 H 0.47539 0.01608 0.70215 0.0
H518 H 0.46935 1.00686 0.75856 0.0
H519 H 0.45611 0.02808 0.73552 0.0
C520 C 0.41903 0.01963 0.84012 0.0
C521 C 0.40166 0.03113 0.83522 0.0
C522 C 0.42807 1.01069 0.80243 0.0
C523 C 0.42019 1.01333 0.7587 0.0
C524 C 0.40353 0.02581 0.75318 0.0
H525 H 0.48353 0.94594 0.54643 0.0
H526 H 0.46763 0.97367 0.5858 0.0
C527 C 0.39437 0.0347 0.79108 0.0
C528 C 0.42786 1.00105 0.72054 0.0
H529 H 0.47066 0.9836 0.67101 0.0
C530 C 0.41464 0.98885 0.69893 0.0
C531 C 0.44819 0.99981 0.70836 0.0
C532 C 0.463 1.0136 0.72707 0.0
C533 C 0.42132 0.97464 0.66782 0.0
C534 C 0.44185 0.97213 0.65907 0.0
C535 C 0.45494 0.98519 0.67832 0.0
C536 C 0.45016 0.9554 0.63236 0.0
C537 C 0.40626 0.96237 0.64503 0.0
C538 C 0.44563 0.93588 0.6452 0.0
C539 C 0.45455 0.92004 0.62246 0.0
C540 C 0.46852 0.92337 0.58696 0.0
C541 C 0.4729 0.94292 0.57381 0.0
C542 C 0.4638 0.95877 0.59624 0.0
H543 H 0.39198 0.97059 0.64171 0.0
H544 H 0.41146 0.95786 0.61051 0.0
H545 H 0.40346 0.94891 0.66637 0.0
H546 H 0.43566 0.93283 0.67388 0.0
H547 H 0.45116 0.90518 0.63401 0.0
H548 H 0.60632 0.51586 0.66884 0.0
H549 H 0.58421 0.50189 0.72634 0.0
H550 H 0.5496 0.55595 0.72722 0.0
H551 H 0.57224 0.5705 0.66902 0.0
H552 H 0.57478 0.5157 0.81467 0.0
H553 H 0.50906 0.51194 0.7046 0.0
H554 H 0.53361 0.51542 0.6808 0.0
H555 H 0.52091 0.5353 0.70897 0.0
C556 C 0.5944 0.52516 0.68167 0.0
C557 C 0.59138 0.54458 0.66462 0.0
C558 C 0.58157 0.51697 0.71444 0.0
C559 C 0.56524 0.52782 0.73101 0.0
C560 C 0.56205 0.54725 0.71454 0.0
H561 H 0.51047 0.4608 0.96103 0.0
H562 H 0.52021 0.49044 0.91694 0.0
C563 C 0.57501 0.55555 0.68148 0.0
C564 C 0.55184 0.51821 0.7653 0.0
H565 H 0.50745 0.49541 0.77606 0.0
C566 C 0.55989 0.51156 0.8068 0.0
C567 C 0.53251 0.51275 0.75454 0.0
C568 C 0.52341 0.51908 0.70978 0.0
C569 C 0.54971 0.49854 0.83655 0.0
C570 C 0.53057 0.49247 0.82519 0.0
C571 C 0.52204 0.50011 0.78488 0.0
C572 C 0.52043 0.47633 0.85137 0.0
C573 C 0.56028 0.49035 0.87803 0.0
C574 C 0.51567 0.45904 0.82897 0.0
C575 C 0.50949 0.44235 0.854 0.0
C576 C 0.50817 0.44256 0.90195 0.0
C577 C 0.5115 0.46028 0.92408 0.0
C578 C 0.51727 0.47712 0.89895 0.0
H579 H 0.5764 0.49304 0.87591 0.0
H580 H 0.55427 0.49766 0.90899 0.0
H581 H 0.55815 0.47423 0.88238 0.0
H582 H 0.5179 0.45804 0.79231 0.0
H583 H 0.50722 0.42886 0.83609 0.0
H584 H 1.01033 0.5675 0.57521 0.0
H585 H 0.02 0.5364 0.61433 0.0
H586 H 0.03328 0.56872 0.73457 0.0
H587 H 0.02229 0.59923 0.69673 0.0
H588 H 0.05326 0.52488 0.63857 0.0
H589 H 1.00905 0.52388 0.79772 0.0
H590 H 1.00333 0.5409 0.75128 0.0
H591 H 0.02086 0.54718 0.79393 0.0
C592 C 1.01456 0.56769 0.61065 0.0
C593 C 0.01512 0.58564 0.63337 0.0
C594 C 0.02027 0.54999 0.63286 0.0
C595 C 0.02709 0.54999 0.67792 0.0
C596 C 0.02732 0.56798 0.70069 0.0
H597 H 0.12417 0.48993 0.79009 0.0
H598 H 0.10027 0.50471 0.73777 0.0
C599 C 0.02109 0.58553 0.67896 0.0
C600 C 0.03615 0.53187 0.69944 0.0
H601 H 0.04242 0.50905 0.80343 0.0
C602 C 0.05048 0.5211 0.67434 0.0
C603 C 0.03223 0.52621 0.74567 0.0
C604 C 0.01533 0.53505 0.77333 0.0
C605 C 0.06206 0.50611 0.69516 0.0
C606 C 0.06002 0.50245 0.74296 0.0
C607 C 0.04453 0.51203 0.76706 0.0
C608 C 0.07482 0.49056 0.76962 0.0
C609 C 0.07644 0.4946 0.66548 0.0
C610 C 0.06875 0.4777 0.80565 0.0
C611 C 0.08248 0.4698 0.83655 0.0
C612 C 0.10256 0.47412 0.83124 0.0
C613 C 0.10882 0.4859 0.79379 0.0
C614 C 0.0951 0.49427 0.76372 0.0
H615 H 0.07031 0.49255 0.63108 0.0
H616 H 0.09021 0.50303 0.6604 0.0
H617 H 0.08009 0.47987 0.68083 0.0
H618 H 0.05326 0.47461 0.81134 0.0
H619 H 0.07735 0.4611 0.86588 0.0
H620 H 0.93657 0.1197 0.93204 0.0
H621 H 0.91932 0.09595 0.88661 0.0
H622 H 0.97164 0.05865 0.8827 0.0
H623 H 0.9887 0.08189 0.9292 0.0
H624 H 0.9299 0.08557 0.80015 0.0
H625 H 0.92916 0.01881 0.91316 0.0
H626 H 0.93433 0.04297 0.93382 0.0
H627 H 0.95338 0.02872 0.90522 0.0
C628 C 0.94426 0.10624 0.92239 0.0
C629 C 0.96408 0.1028 0.93409 0.0
C630 C 0.93441 0.09272 0.89623 0.0
C631 C 0.9441 0.07539 0.88167 0.0
C632 C 0.96371 0.0717 0.89424 0.0
H633 H 0.92177 1.01154 0.639 0.0
H634 H 0.93613 0.02906 0.70186 0.0
C635 C 0.97356 0.08519 0.92031 0.0
C636 C 0.93439 0.06207 0.84998 0.0
H637 H 0.9228 1.01396 0.83386 0.0
C638 C 0.92817 0.06996 0.80777 0.0
C639 C 0.93197 0.04171 0.86003 0.0
C640 C 0.93738 0.03257 0.90571 0.0
C641 C 0.92021 0.05798 0.7748 0.0
C642 C 0.91872 0.03747 0.78391 0.0
C643 C 0.92426 0.02963 0.8267 0.0
C644 C 0.91151 0.0241 0.74892 0.0
C645 C 0.91344 0.06741 0.73039 0.0
C646 C 0.89345 0.01454 0.75547 0.0
C647 C 0.88528 1.00439 0.71962 0.0
C648 C 0.89508 1.00367 0.67671 0.0
C649 C 0.91383 1.01204 0.67153 0.0
C650 C 0.92199 0.0221 0.70732 0.0
H651 H 0.91095 0.08357 0.73333 0.0
H652 H 0.92496 0.06498 0.70341 0.0
H653 H 0.89957 0.06077 0.71926 0.0
H654 H 0.88517 0.01585 0.78744 0.0
H655 H 0.87074 0.99826 0.72456 0.0
H656 H 0.68451 1.00445 0.83045 0.0
H657 H 0.7113 1.01225 0.77658 0.0
H658 H 0.73117 0.05699 0.86541 0.0
H659 H 0.70388 0.04969 0.91951 0.0
H660 H 0.71885 0.05383 0.73622 0.0
H661 H 0.78089 0.01863 0.83257 0.0
H662 H 0.75578 1.01067 0.84153 0.0
H663 H 0.76296 0.03404 0.86202 0.0
C664 C 0.69436 0.0161 0.83869 0.0
C665 C 0.69175 0.02654 0.87947 0.0
C666 C 0.7098 0.02045 0.8078 0.0
C667 C 0.72322 0.03518 0.81696 0.0
C668 C 0.72101 0.04548 0.85782 0.0
H669 H 0.82913 0.05096 0.63739 0.0
H670 H 0.80504 0.05803 0.69956 0.0
C671 C 0.70542 0.04121 0.88881 0.0
C672 C 0.73918 0.03976 0.78282 0.0
H673 H 0.78779 0.02981 0.75728 0.0
C674 C 0.73401 0.04888 0.74107 0.0
C675 C 0.75896 0.0335 0.78938 0.0
C676 C 0.76516 0.02361 0.83367 0.0
C677 C 0.74792 0.05115 0.70499 0.0
C678 C 0.76742 0.04365 0.71035 0.0
C679 C 0.77286 0.03554 0.75307 0.0
C680 C 0.78147 0.04169 0.67065 0.0
C681 C 0.74145 0.06122 0.66109 0.0
C682 C 0.7762 0.03038 0.63357 0.0
C683 C 0.78983 0.02638 0.59834 0.0
C684 C 0.80914 0.03351 0.59924 0.0
C685 C 0.81428 0.0455 0.63542 0.0
C686 C 0.80058 0.04941 0.67109 0.0
H687 H 0.72927 0.07208 0.66757 0.0
H688 H 0.75387 0.06891 0.64336 0.0
H689 H 0.73585 0.05001 0.63798 0.0
H690 H 0.76176 0.02387 0.63279 0.0
H691 H 0.78542 0.01702 0.5711 0.0
H692 H 0.523 0.86178 0.70861 0.0
H693 H 0.5257 0.83384 0.76252 0.0
H694 H 0.55233 0.79843 0.6565 0.0
H695 H 0.55002 0.82655 0.60236 0.0
H696 H 0.50805 0.79875 0.75806 0.0
H697 H 0.58914 0.78631 0.76079 0.0
H698 H 0.57799 0.80849 0.73655 0.0
H699 H 0.57931 0.78625 0.70438 0.0
C700 C 0.5297 0.84815 0.69678 0.0
C701 C 0.53634 0.84648 0.65104 0.0
C702 C 0.5312 0.83213 0.72774 0.0
C703 C 0.5394 0.81401 0.71392 0.0
C704 C 0.54634 0.81235 0.66843 0.0
H705 H 0.5476 0.69638 0.83551 0.0
H706 H 0.54908 0.72614 0.78691 0.0
C707 C 0.54494 0.82844 0.63738 0.0
C708 C 0.53952 0.79665 0.74648 0.0
H709 H 0.5694 0.76135 0.79639 0.0
C710 C 0.52151 0.79069 0.76669 0.0
C711 C 0.55705 0.78605 0.75782 0.0
C712 C 0.577 0.79218 0.73912 0.0
C713 C 0.52046 0.77425 0.79696 0.0
C714 C 0.53795 0.76356 0.80804 0.0
C715 C 0.55599 0.76955 0.78802 0.0
C716 C 0.53769 0.74568 0.83888 0.0
C717 C 0.50052 0.7681 0.81577 0.0
C718 C 0.53114 0.74673 0.88476 0.0
C719 C 0.53018 0.72962 0.91278 0.0
C720 C 0.53574 0.71109 0.89547 0.0
C721 C 0.54281 0.71026 0.84986 0.0
C722 C 0.54382 0.72733 0.82202 0.0
H723 H 0.48825 0.77494 0.79596 0.0
H724 H 0.49916 0.75182 0.81556 0.0
H725 H 0.49879 0.77284 0.85167 0.0
H726 H 0.52665 0.76077 0.89885 0.0
H727 H 0.52465 0.73085 0.94761 0.0
H728 H 0.79747 0.50698 0.92597 0.0
H729 H 0.77257 0.50055 0.86916 0.0
H730 H 0.79145 0.5513 0.78924 0.0
H731 H 0.81661 0.55756 0.84519 0.0
H732 H 0.74112 0.52506 0.84035 0.0
H733 H 0.79153 0.50815 0.69431 0.0
H734 H 0.79978 0.50837 0.75252 0.0
H735 H 0.79678 0.53111 0.7201 0.0
C736 C 0.79656 0.51661 0.89598 0.0
C737 C 0.8092 0.53277 0.8902 0.0
C738 C 0.78219 0.51297 0.86363 0.0
C739 C 0.78027 0.52525 0.8245 0.0
C740 C 0.79284 0.54138 0.81866 0.0
H741 H 0.70679 0.55161 0.60071 0.0
H742 H 0.73188 0.547 0.65818 0.0
C743 C 0.80713 0.54507 0.85101 0.0
C744 C 0.76473 0.52176 0.79045 0.0
H745 H 0.75789 0.51579 0.67629 0.0
C746 C 0.74476 0.52271 0.80459 0.0
C747 C 0.76945 0.51857 0.7438 0.0
C748 C 0.79055 0.51628 0.72678 0.0
C749 C 0.72945 0.52173 0.77296 0.0
C750 C 0.73421 0.51939 0.72598 0.0
C751 C 0.75418 0.5176 0.71223 0.0
C752 C 0.71896 0.52103 0.68996 0.0
C753 C 0.70834 0.52425 0.78974 0.0
C754 C 0.70337 0.5077 0.68779 0.0
C755 C 0.68879 0.5103 0.65448 0.0
C756 C 0.68958 0.5263 0.6229 0.0
C757 C 0.70555 0.53919 0.62457 0.0
C758 C 0.72002 0.53656 0.65747 0.0
H759 H 0.70734 0.5293 0.82555 0.0
H760 H 0.70025 0.53506 0.76755 0.0
H761 H 0.70082 0.50992 0.78834 0.0
H762 H 0.70239 0.49539 0.71199 0.0
H763 H 0.67672 0.5001 0.65414 0.0
H764 H 0.02006 0.82402 0.82876 0.0
H765 H 0.02681 0.79758 0.77519 0.0
H766 H 0.06712 0.7698 0.87003 0.0
H767 H 0.06007 0.79604 0.92447 0.0
H768 H 0.06282 0.78512 0.73408 0.0
H769 H 0.02966 0.72501 0.84167 0.0
H770 H 0.02525 0.75075 0.8533 0.0
H771 H 0.04834 0.739 0.86792 0.0
C772 C 0.03025 0.81224 0.83852 0.0
C773 C 0.03938 0.81216 0.88126 0.0
C774 C 0.0342 0.79716 0.80764 0.0
C775 C 0.04726 0.78151 0.81873 0.0
C776 C 0.05673 0.78153 0.86095 0.0
H777 H 0.06984 0.67468 0.65573 0.0
H778 H 0.07319 0.69969 0.71438 0.0
C779 C 0.05284 0.79668 0.89188 0.0
C780 C 0.05081 0.76532 0.78579 0.0
H781 H 0.04297 0.71635 0.76974 0.0
C782 C 0.05861 0.77005 0.74204 0.0
C783 C 0.04548 0.7456 0.79617 0.0
C784 C 0.03658 0.73969 0.84215 0.0
C785 C 0.06084 0.75576 0.70823 0.0
C786 C 0.05475 0.73622 0.71796 0.0
C787 C 0.04766 0.73129 0.76223 0.0
C788 C 0.05387 0.72128 0.68156 0.0
C789 C 0.06961 0.76179 0.6622 0.0
C790 C 0.04188 0.72501 0.64374 0.0
C791 C 0.03994 0.71084 0.61046 0.0
C792 C 0.04987 0.69244 0.61406 0.0
C793 C 0.06212 0.68873 0.65168 0.0
C794 C 0.06398 0.70299 0.6853 0.0
H795 H 0.07926 0.77473 0.66481 0.0
H796 H 0.07837 0.7495 0.64688 0.0
H797 H 0.05751 0.76601 0.63875 0.0
H798 H 0.03358 0.73878 0.64044 0.0
H799 H 0.03033 0.71425 0.58214 0.0
H800 H 0.2061 0.9832 0.60562 0.0
H801 H 0.23369 0.97718 0.65744 0.0
H802 H 0.20858 0.0199 0.74964 0.0
H803 H 0.1814 0.02631 0.69818 0.0
H804 H 0.26144 1.00505 0.69324 0.0
H805 H 0.21621 0.96919 0.83062 0.0
H806 H 0.20808 0.97194 0.77239 0.0
H807 H 0.20594 0.99233 0.81033 0.0
C808 C 0.2065 0.99144 0.6367 0.0
C809 C 0.19123 1.00508 0.64776 0.0
C810 C 0.22226 0.9879 0.66642 0.0
C811 C 0.22299 0.99779 0.7079 0.0
C812 C 0.2081 1.01173 0.71839 0.0
H813 H 0.28889 0.02295 0.93638 0.0
H814 H 0.26517 0.01607 0.87802 0.0
C815 C 0.19247 0.01534 0.6888 0.0
C816 C 0.23928 0.99395 0.7405 0.0
H817 H 0.24755 0.98121 0.85231 0.0
C818 C 0.25855 0.99945 0.72777 0.0
C819 C 0.23551 0.98655 0.78547 0.0
C820 C 0.21535 0.97947 0.8005 0.0
C821 C 0.27381 0.99903 0.75974 0.0
C822 C 0.26973 0.99264 0.80545 0.0
C823 C 0.25071 0.98613 0.81737 0.0
C824 C 0.28408 0.99508 0.84265 0.0
C825 C 0.29384 1.00657 0.74514 0.0
C826 C 0.30251 0.98509 0.84324 0.0
C827 C 0.31623 0.98896 0.8771 0.0
C828 C 0.31171 1.00293 0.91067 0.0
C829 C 0.29292 1.01219 0.91091 0.0
C830 C 0.2793 1.00826 0.87751 0.0
H831 H 0.29374 1.01369 0.7105 0.0
H832 H 0.29896 0.0174 0.76983 0.0
H833 H 0.30467 0.99408 0.7446 0.0
H834 H 0.30643 0.9746 0.81712 0.0
H835 H 0.3306 0.98165 0.87588 0.0
H836 H 0.51048 0.20409 0.70549 0.0
H837 H 0.51763 0.22997 0.75877 0.0
H838 H 0.5593 0.255 0.66109 0.0
H839 H 0.55186 0.22938 0.607 0.0
H840 H 0.55394 0.24 0.79702 0.0
H841 H 0.52247 0.30213 0.69214 0.0
H842 H 0.51752 0.27669 0.68105 0.0
H843 H 0.54092 0.2869 0.66434 0.0
C844 C 0.52106 0.21515 0.6951 0.0
C845 C 0.53046 0.21467 0.65169 0.0
C846 C 0.52524 0.22989 0.72577 0.0
C847 C 0.5388 0.24461 0.71376 0.0
C848 C 0.54855 0.24399 0.67088 0.0
H849 H 0.56222 0.34988 0.87528 0.0
H850 H 0.56578 0.32468 0.81644 0.0
C851 C 0.54442 0.22918 0.64015 0.0
C852 C 0.54254 0.26054 0.74637 0.0
H853 H 0.53552 0.30994 0.76306 0.0
C854 C 0.55006 0.25531 0.78943 0.0
C855 C 0.53763 0.28057 0.7364 0.0
C856 C 0.52905 0.28701 0.69115 0.0
C857 C 0.55239 0.26945 0.82306 0.0
C858 C 0.5467 0.28933 0.81381 0.0
C859 C 0.53991 0.29472 0.77014 0.0
C860 C 0.54576 0.30425 0.85032 0.0
C861 C 0.56079 0.2629 0.86841 0.0
C862 C 0.53332 0.30122 0.88875 0.0
C863 C 0.53125 0.3155 0.92209 0.0
C864 C 0.54151 0.33331 0.91792 0.0
C865 C 0.55423 0.33629 0.87972 0.0
C866 C 0.55622 0.32193 0.84602 0.0
H867 H 0.57021 0.24938 0.86505 0.0
H868 H 0.56968 0.27465 0.88305 0.0
H869 H 0.54849 0.2594 0.89281 0.0
H870 H 0.52477 0.28793 0.89246 0.0
H871 H 0.52129 0.31266 0.95092 0.0
H872 H 0.32085 0.47993 0.64499 0.0
H873 H 0.29485 0.48741 0.70195 0.0
H874 H 0.26929 0.53068 0.60919 0.0
H875 H 0.29521 0.52321 0.55185 0.0
H876 H 0.28405 0.52824 0.73813 0.0
H877 H 0.22359 0.491 0.65037 0.0
H878 H 0.24928 0.48456 0.6398 0.0
H879 H 0.23929 0.50737 0.61724 0.0
C880 C 0.30966 0.49097 0.63657 0.0
C881 C 0.31013 0.50092 0.59374 0.0
C882 C 0.29487 0.4953 0.66926 0.0
C883 C 0.28007 0.50951 0.65971 0.0
C884 C 0.28051 0.51959 0.61717 0.0
H885 H 0.17316 0.52915 0.83377 0.0
H886 H 0.19746 0.53352 0.7705 0.0
C887 C 0.29542 0.51539 0.58456 0.0
C888 C 0.26422 0.51364 0.69445 0.0
H889 H 0.2159 0.50444 0.72193 0.0
C890 C 0.2691 0.52321 0.73444 0.0
C891 C 0.24466 0.50733 0.68932 0.0
C892 C 0.23874 0.49691 0.64704 0.0
C893 C 0.25506 0.52619 0.76995 0.0
C894 C 0.23574 0.51889 0.76601 0.0
C895 C 0.23066 0.51005 0.72511 0.0
C896 C 0.22137 0.51832 0.80551 0.0
C897 C 0.26115 0.53707 0.81146 0.0
C898 C 0.22668 0.50848 0.84631 0.0
C899 C 0.21295 0.50607 0.88226 0.0
C900 C 0.19341 0.51326 0.87839 0.0
C901 C 0.18813 0.52362 0.83805 0.0
C902 C 0.20198 0.52601 0.80179 0.0
H903 H 0.27297 0.54771 0.80251 0.0
H904 H 0.24847 0.54521 0.82734 0.0
H905 H 0.26714 0.52633 0.8371 0.0
H906 H 0.24131 0.50195 0.84984 0.0
H907 H 0.21757 0.49796 0.9127 0.0
H908 H 0.99339 0.31564 0.65842 0.0
H909 H 1.00086 0.28873 0.7123 0.0
H910 H 0.05837 0.28082 0.64856 0.0
H911 H 0.05112 0.30822 0.59441 0.0
H912 H 0.03749 0.2446 0.66929 0.0
H913 H 0.03936 0.2927 0.81928 0.0
H914 H 0.01747 0.29592 0.78625 0.0
H915 H 0.04104 0.30225 0.76114 0.0
C916 C 1.00775 0.30843 0.65589 0.0
C917 C 0.02177 0.31448 0.62229 0.0
C918 C 1.01196 0.29292 0.68683 0.0
C919 C 0.03031 0.28297 0.68518 0.0
C920 C 0.04414 0.28839 0.65074 0.0
H921 H 0.06921 0.20552 0.91243 0.0
H922 H 0.06767 0.23088 0.85136 0.0
C923 C 0.03995 0.30402 0.61966 0.0
C924 C 0.03484 0.26704 0.71979 0.0
H925 H 0.03792 0.25814 0.83507 0.0
C926 C 0.03776 0.24757 0.7055 0.0
C927 C 0.03544 0.2709 0.76707 0.0
C928 C 0.03335 0.29159 0.78446 0.0
C929 C 0.04055 0.23182 0.7373 0.0
C930 C 0.04021 0.23558 0.78475 0.0
C931 C 0.038 0.25515 0.79883 0.0
C932 C 0.04172 0.21947 0.82045 0.0
C933 C 0.04392 0.2113 0.71974 0.0
C934 C 0.0276 0.20459 0.8238 0.0
C935 C 0.02843 0.19006 0.85876 0.0
C936 C 0.04336 0.19008 0.89145 0.0
C937 C 0.05754 0.20495 0.88787 0.0
C938 C 0.05667 0.2195 0.85293 0.0
H939 H 0.04942 0.21161 0.68364 0.0
H940 H 0.05469 0.20281 0.74096 0.0
H941 H 0.02974 0.2034 0.72119 0.0
H942 H 0.01565 0.20444 0.7999 0.0
H943 H 0.01717 0.17895 0.86047 0.0
H944 H 0.17373 0.99091 0.33016 0.0
H945 H 0.20163 0.99714 0.278 0.0
H946 H 0.22359 0.03966 0.37007 0.0
H947 H 0.19576 0.0332 0.42324 0.0
H948 H 0.2132 0.0306 0.23259 0.0
H949 H 0.27201 1.00441 0.34988 0.0
H950 H 0.2462 0.99998 0.36163 0.0
H951 H 0.25626 0.0237 0.37203 0.0
C952 C 0.18445 1.00162 0.33951 0.0
C953 C 0.18249 1.01148 0.38117 0.0
C954 C 0.20044 1.00517 0.3095 0.0
C955 C 0.21496 0.01863 0.32028 0.0
C956 C 0.21285 0.02887 0.36137 0.0
H957 H 0.32229 0.05413 0.16937 0.0
H958 H 0.29476 0.05122 0.22474 0.0
C959 C 0.19683 0.02528 0.3916 0.0
C960 C 0.23208 0.02189 0.28806 0.0
H961 H 0.28246 0.01805 0.2783 0.0
C962 C 0.22834 0.02785 0.24265 0.0
C963 C 0.25189 0.01833 0.30105 0.0
C964 C 0.25691 1.01108 0.34866 0.0
C965 C 0.24375 0.03037 0.21006 0.0
C966 C 0.26351 0.02657 0.2229 0.0
C967 C 0.26732 0.02093 0.26844 0.0
C968 C 0.28037 0.02813 0.18938 0.0
C969 C 0.23876 0.03731 0.16221 0.0
C970 C 0.28167 0.01591 0.15137 0.0
C971 C 0.2974 0.01755 0.11957 0.0
C972 C 0.31223 0.03146 0.12505 0.0
C973 C 0.31103 0.04347 0.16361 0.0
C974 C 0.29534 0.04174 0.1955 0.0
H975 H 0.22383 0.04439 0.16097 0.0
H976 H 0.24976 0.04796 0.14844 0.0
H977 H 0.23894 0.02445 0.13953 0.0
H978 H 0.27049 1.00506 0.14626 0.0
H979 H 0.2977 1.00816 0.09025 0.0
H980 H 0.5562 0.19464 0.37571 0.0
H981 H 0.55923 0.2177 0.30966 0.0
H982 H 0.55126 0.26677 0.39932 0.0
H983 H 0.5479 0.2439 0.46495 0.0
H984 H 0.52651 0.24623 0.28974 0.0
H985 H 0.59834 0.28252 0.30979 0.0
H986 H 0.59316 0.25831 0.33396 0.0
H987 H 0.58344 0.27996 0.36126 0.0
C988 C 0.5558 0.21035 0.38143 0.0
C989 C 0.55199 0.2175 0.42552 0.0
C990 C 0.55737 0.2235 0.34366 0.0
C991 C 0.55561 0.24397 0.3496 0.0
C992 C 0.55294 0.25108 0.39395 0.0
H993 H 0.51241 0.34365 0.19606 0.0
H994 H 0.51974 0.31643 0.24941 0.0
C995 C 0.55103 0.23799 0.43145 0.0
C996 C 0.55421 0.25793 0.30966 0.0
H997 H 0.57536 0.29879 0.26002 0.0
C998 C 0.53735 0.25752 0.28275 0.0
C999 C 0.56833 0.27267 0.30058 0.0
C1000 C 0.58695 0.2734 0.32761 0.0
C1001 C 0.53383 0.27198 0.24839 0.0
C1002 C 0.5475 0.28725 0.24071 0.0
C1003 C 0.56482 0.28715 0.26616 0.0
C1004 C 0.54347 0.30395 0.20805 0.0
C1005 C 0.51529 0.27106 0.22105 0.0
C1006 C 0.55459 0.3062 0.16724 0.0
C1007 C 0.55029 0.32171 0.13609 0.0
C1008 C 0.53486 0.33544 0.14533 0.0
C1009 C 0.5241 0.33328 0.18696 0.0
C1010 C 0.52832 0.31772 0.21779 0.0
H1011 H 0.50848 0.25632 0.22413 0.0
H1012 H 0.50437 0.28217 0.23382 0.0
H1013 H 0.51846 0.27458 0.18435 0.0
H1014 H 0.56639 0.29575 0.15911 0.0
H1015 H 0.55885 0.32265 0.10448 0.0
H1016 H 0.28457 0.5039 0.40732 0.0
H1017 H 0.26082 0.50697 0.34633 0.0
H1018 H 0.3031 0.53886 0.26213 0.0
H1019 H 0.32732 0.53552 0.32355 0.0
H1020 H 0.24327 0.53769 0.29832 0.0
H1021 H 0.29086 0.49181 0.18356 0.0
H1022 H 0.29591 0.49427 0.24336 0.0
H1023 H 0.30155 0.51397 0.20326 0.0
C1024 C 0.2888 0.51185 0.37611 0.0
C1025 C 0.30793 0.51934 0.37022 0.0
C1026 C 0.27514 0.51361 0.34119 0.0
C1027 C 0.28021 0.5228 0.29916 0.0
C1028 C 0.29893 0.53136 0.29393 0.0
H1029 H 0.18658 0.53165 0.09185 0.0
H1030 H 0.21257 0.54092 0.1434 0.0
C1031 C 0.3127 0.52967 0.32923 0.0
C1032 C 0.2661 0.52212 0.26074 0.0
H1033 H 0.25931 0.50074 0.15783 0.0
C1034 C 0.24685 0.52987 0.26726 0.0
C1035 C 0.27067 0.51165 0.22045 0.0
C1036 C 0.29079 0.50229 0.21211 0.0
C1037 C 0.23196 0.52696 0.23546 0.0
C1038 C 0.23645 0.51624 0.1955 0.0
C1039 C 0.25585 0.50902 0.18831 0.0
C1040 C 0.22095 0.51094 0.1627 0.0
C1041 C 0.2113 0.53453 0.24615 0.0
C1042 C 0.21727 0.49102 0.15519 0.0
C1043 C 0.20257 0.48565 0.12535 0.0
C1044 C 0.19111 0.50008 0.10196 0.0
C1045 C 0.19504 0.52008 0.109 0.0
C1046 C 0.20982 0.52544 0.13893 0.0
H1047 H 0.20937 0.53861 0.28253 0.0
H1048 H 0.20818 0.54787 0.22454 0.0
H1049 H 0.20024 0.5233 0.23856 0.0
H1050 H 0.22569 0.47952 0.17284 0.0
H1051 H 0.20038 0.47013 0.12042 0.0
H1052 H 0.05228 0.17797 0.17952 0.0
H1053 H 0.05206 0.2062 0.22962 0.0
H1054 H 1.01494 0.23894 0.13562 0.0
H1055 H 0.01551 0.21066 0.08462 0.0
H1056 H 0.04252 0.26268 0.17219 0.0
H1057 H 1.00549 0.21966 0.31167 0.0
H1058 H 0.02847 0.20852 0.29336 0.0
H1059 H 1.00831 0.21068 0.25441 0.0
C1060 C 0.04409 0.19118 0.16941 0.0
C1061 C 0.03367 0.19192 0.12833 0.0
C1062 C 0.04392 0.20734 0.19821 0.0
C1063 C 0.03302 0.2246 0.18725 0.0
C1064 C 0.02334 0.22577 0.14517 0.0
H1065 H 0.99073 0.30736 0.38894 0.0
H1066 H 0.99535 0.28274 0.33058 0.0
C1067 C 0.0237 0.2096 0.11594 0.0
C1068 C 0.03123 0.241 0.22052 0.0
H1069 H 0.01739 0.25088 0.33092 0.0
C1070 C 0.03697 0.26012 0.20687 0.0
C1071 C 0.02373 0.23784 0.26573 0.0
C1072 C 0.01595 0.21812 0.28209 0.0
C1073 C 0.03563 0.276 0.23717 0.0
C1074 C 0.02872 0.27265 0.28282 0.0
C1075 C 0.0229 0.25354 0.29623 0.0
C1076 C 0.02618 0.28878 0.31675 0.0
C1077 C 0.04109 0.29629 0.21951 0.0
C1078 C 0.04194 0.30069 0.32884 0.0
C1079 C 0.03925 0.31513 0.36232 0.0
C1080 C 0.02084 0.31772 0.38495 0.0
C1081 C 1.00517 0.30578 0.37262 0.0
C1082 C 1.00779 0.29161 0.33905 0.0
H1083 H 0.04087 0.29739 0.18156 0.0
H1084 H 0.03088 0.30774 0.23359 0.0
H1085 H 0.05627 0.29949 0.23018 0.0
H1086 H 0.05643 0.29858 0.31311 0.0
H1087 H 0.05166 0.32396 0.3711 0.0
H1088 H 0.69625 0.99784 0.10323 0.0
H1089 H 0.72421 0.9921 0.15417 0.0
H1090 H 0.69786 0.03261 0.25011 0.0
H1091 H 0.66988 0.0381 0.20026 0.0
H1092 H 0.75103 0.01814 0.18414 0.0
H1093 H 0.71038 0.98608 0.33363 0.0
H1094 H 0.69953 0.98896 0.27807 0.0
H1095 H 0.70021 1.00955 0.31554 0.0
C1096 C 0.69629 1.00533 0.13545 0.0
C1097 C 0.68067 0.01832 0.14767 0.0
C1098 C 0.71233 1.00208 0.16451 0.0
C1099 C 0.71305 1.01165 0.2065 0.0
C1100 C 0.69749 0.02463 0.21859 0.0
H1101 H 0.79633 0.02476 0.42411 0.0
H1102 H 0.76904 0.02745 0.37077 0.0
C1103 C 0.68149 0.02784 0.18975 0.0
C1104 C 0.73035 1.00879 0.23695 0.0
H1105 H 0.74305 0.9969 0.34698 0.0
C1106 C 0.7493 1.01328 0.2196 0.0
C1107 C 0.72818 1.00247 0.28336 0.0
C1108 C 0.70851 0.9963 0.30365 0.0
C1109 C 0.76595 1.01223 0.24761 0.0
C1110 C 0.76368 1.00633 0.29419 0.0
C1111 C 0.7448 1.00157 0.31139 0.0
C1112 C 0.78068 1.00503 0.32574 0.0
C1113 C 0.78577 0.01802 0.22746 0.0
C1114 C 0.79632 0.99147 0.31843 0.0
C1115 C 0.81198 0.98991 0.34889 0.0
C1116 C 0.81239 1.00188 0.38745 0.0
C1117 C 0.79671 0.01551 0.39454 0.0
C1118 C 0.781 0.01697 0.36419 0.0
H1119 H 0.7843 0.02645 0.19459 0.0
H1120 H 0.79386 0.02706 0.25162 0.0
H1121 H 0.79478 1.0045 0.22084 0.0
H1122 H 0.7963 0.98188 0.28943 0.0
H1123 H 0.82381 0.97935 0.34212 0.0
H1124 H 0.55118 0.84448 0.32832 0.0
H1125 H 0.55174 0.81485 0.28294 0.0
H1126 H 0.52466 0.78238 0.39559 0.0
H1127 H 0.52344 0.81226 0.44096 0.0
H1128 H 0.56944 0.77831 0.29662 0.0
H1129 H 0.48802 0.77145 0.29123 0.0
H1130 H 0.49957 0.79338 0.31042 0.0
H1131 H 0.49764 0.77201 0.34782 0.0
C1132 C 0.54513 0.83114 0.34349 0.0
C1133 C 0.53698 0.83096 0.38829 0.0
C1134 C 0.54562 0.8141 0.31749 0.0
C1135 C 0.53793 0.7964 0.33538 0.0
C1136 C 0.53032 0.79594 0.38057 0.0
H1137 H 0.52175 0.68129 0.21848 0.0
H1138 H 0.52432 0.7092 0.26874 0.0
C1139 C 0.52982 0.81303 0.40672 0.0
C1140 C 0.53784 0.77859 0.30642 0.0
H1141 H 0.50731 0.74585 0.25829 0.0
C1142 C 0.55585 0.77122 0.28823 0.0
C1143 C 0.52012 0.76932 0.29524 0.0
C1144 C 0.50021 0.77701 0.31179 0.0
C1145 C 0.55664 0.75475 0.25984 0.0
C1146 C 0.5389 0.74554 0.24854 0.0
C1147 C 0.52092 0.75286 0.2669 0.0
C1148 C 0.53857 0.72822 0.21806 0.0
C1149 C 0.57651 0.74713 0.24298 0.0
C1150 C 0.54579 0.72946 0.17259 0.0
C1151 C 0.54441 0.7134 0.14358 0.0
C1152 C 0.53562 0.69579 0.15933 0.0
C1153 C 0.52863 0.69456 0.20503 0.0
C1154 C 0.53005 0.71057 0.23392 0.0
H1155 H 0.58866 0.75224 0.26429 0.0
H1156 H 0.57701 0.73076 0.24293 0.0
H1157 H 0.57924 0.75268 0.20743 0.0
H1158 H 0.55206 0.74303 0.15912 0.0
H1159 H 0.54978 0.71496 0.10853 0.0
H1160 H 0.69846 0.50608 0.42931 0.0
H1161 H 0.72446 0.4966 0.37439 0.0
H1162 H 0.71313 0.54978 0.29481 0.0
H1163 H 0.6868 0.55922 0.34853 0.0
H1164 H 0.72181 0.49186 0.27491 0.0
H1165 H 0.7737 0.54989 0.32119 0.0
H1166 H 0.75337 0.54233 0.35825 0.0
H1167 H 0.749 0.55863 0.30998 0.0
C1168 C 0.70125 0.51576 0.40003 0.0
C1169 C 0.69038 0.53358 0.39398 0.0
C1170 C 0.71626 0.5103 0.36868 0.0
C1171 C 0.72094 0.5226 0.33083 0.0
C1172 C 0.71002 0.54021 0.32422 0.0
H1173 H 0.78009 0.5132 0.07344 0.0
H1174 H 0.75705 0.51151 0.13883 0.0
C1175 C 0.69493 0.54562 0.35526 0.0
C1176 C 0.73712 0.51711 0.29787 0.0
H1177 H 0.78115 0.53294 0.25246 0.0
C1178 C 0.7349 0.50069 0.27033 0.0
C1179 C 0.75434 0.52845 0.29232 0.0
C1180 C 0.75792 0.54572 0.32222 0.0
C1181 C 0.74898 0.49593 0.23594 0.0
C1182 C 0.76568 0.50791 0.22878 0.0
C1183 C 0.76835 0.52375 0.25781 0.0
C1184 C 0.77955 0.50553 0.18886 0.0
C1185 C 0.74574 0.47824 0.20712 0.0
C1186 C 0.79994 0.50237 0.1949 0.0
C1187 C 0.8132 0.5031 0.15721 0.0
C1188 C 0.80629 0.5074 0.11304 0.0
C1189 C 0.78583 0.50967 0.10699 0.0
C1190 C 0.77262 0.50868 0.1444 0.0
H1191 H 0.73593 0.46746 0.22501 0.0
H1192 H 0.73858 0.48316 0.17494 0.0
H1193 H 0.75997 0.47072 0.19808 0.0
H1194 H 0.80565 0.50009 0.22894 0.0
H1195 H 0.8289 0.50169 0.16306 0.0
H1196 H 0.07065 0.82842 0.14955 0.0
H1197 H 0.07521 0.80446 0.21336 0.0
H1198 H 0.04816 0.75976 0.13529 0.0
H1199 H 0.04371 0.78335 0.07199 0.0
H1200 H 0.04468 0.78545 0.26095 0.0
H1201 H 0.09588 0.72993 0.18609 0.0
H1202 H 0.09269 0.75444 0.16131 0.0
H1203 H 0.0754 0.7355 0.14984 0.0
C1204 C 0.06621 0.81333 0.1456 0.0
C1205 C 0.05689 0.80777 0.1056 0.0
C1206 C 0.06869 0.79968 0.18219 0.0
C1207 C 0.06223 0.78019 0.17904 0.0
C1208 C 0.05364 0.77453 0.13838 0.0
H1209 H 1.01356 0.69681 0.37065 0.0
H1210 H 0.02128 0.72339 0.31586 0.0
C1211 C 0.05102 0.78812 0.1022 0.0
C1212 C 0.06261 0.76613 0.21915 0.0
H1213 H 0.07566 0.71876 0.25036 0.0
C1214 C 0.05176 0.771 0.25893 0.0
C1215 C 0.07199 0.7473 0.21694 0.0
C1216 C 0.08482 0.74154 0.17641 0.0
C1217 C 0.04911 0.75722 0.29528 0.0
C1218 C 0.05731 0.73792 0.29162 0.0
C1219 C 0.06913 0.73343 0.25303 0.0
C1220 C 0.05281 0.72191 0.32606 0.0
C1221 C 0.03731 0.76339 0.33707 0.0
C1222 C 0.06797 0.7118 0.34953 0.0
C1223 C 0.06359 0.69636 0.38085 0.0
C1224 C 0.04396 0.69052 0.38889 0.0
C1225 C 0.02886 0.70068 0.36513 0.0
C1226 C 0.03323 0.71612 0.3341 0.0
H1227 H 0.03741 0.77964 0.34096 0.0
H1228 H 0.02174 0.75903 0.33357 0.0
H1229 H 0.04314 0.75616 0.36861 0.0
H1230 H 0.08322 0.71587 0.34362 0.0
H1231 H 0.07561 0.68878 0.39809 0.0
H1232 H 0.4216 0.01643 0.10035 0.0
H1233 H 0.4573 1.01099 0.10355 0.0
H1234 H 0.45649 0.97908 0.97823 0.0
H1235 H 0.4205 0.98449 0.9748 0.0
H1236 H 0.48215 0.97558 0.10235 0.0
H1237 H 0.49495 0.02549 0.95083 0.0
H1238 H 0.47162 0.02505 0.98194 0.0
H1239 H 0.47838 1.00544 0.94433 0.0
C1240 C 0.42892 1.00792 0.07384 0.0
C1241 C 0.41815 1.00089 0.03732 0.0
C1242 C 0.44938 1.00485 0.07571 0.0
C1243 C 0.45968 0.99489 0.04083 0.0
C1244 C 0.4489 0.98702 1.00529 0.0
H1245 H 0.58902 0.99456 0.99623 0.0
H1246 H 0.55385 0.98782 0.98824 0.0
C1247 C 0.4283 0.98993 1.00363 0.0
C1248 C 0.48173 0.9938 0.04105 0.0
H1249 H 0.52294 1.01299 0.98839 0.0
C1250 C 0.49109 0.98359 0.07716 0.0
C1251 C 0.49345 1.0042 1.00816 0.0
C1252 C 0.4842 0.0158 0.96919 0.0
C1253 C 0.51176 0.98371 0.08161 0.0
C1254 C 0.52344 0.99483 0.04985 0.0
C1255 C 0.5141 1.00451 0.01287 0.0
C1256 C 0.5451 0.99758 0.05573 0.0
C1257 C 0.52083 0.9718 0.12031 0.0
C1258 C 0.55207 1.00534 0.09624 0.0
C1259 C 0.57217 1.00904 0.10104 0.0
C1260 C 0.58589 1.00535 0.0652 0.0
C1261 C 0.57895 0.99747 0.02469 0.0
C1262 C 0.55879 0.99366 0.02 0.0
H1263 H 0.51145 0.95917 0.13093 0.0
H1264 H 0.53577 0.96603 0.11066 0.0
H1265 H 0.52211 0.9813 0.15033 0.0
H1266 H 0.54187 1.00908 0.12387 0.0
H1267 H 0.57685 0.01534 0.13253 0.0
H1268 H 0.56969 0.43846 0.96926 0.0
H1269 H 0.57489 0.47417 0.96807 0.0
H1270 H 0.56374 0.47505 0.11366 0.0
H1271 H 0.55876 0.43955 0.11523 0.0
H1272 H 0.5458 0.50185 0.99427 0.0
H1273 H 0.6121 0.50956 0.09843 0.0
H1274 H 0.6057 0.48648 0.07381 0.0
H1275 H 0.59382 0.49433 0.12612 0.0
C1276 C 0.56895 0.44615 1.00123 0.0
C1277 C 0.56388 0.43607 0.04242 0.0
C1278 C 0.57175 0.46662 1.00041 0.0
C1279 C 0.56984 0.47735 0.0408 0.0
C1280 C 0.56567 0.46713 0.08216 0.0
H1281 H 0.5528 0.5942 0.13786 0.0
H1282 H 0.55939 0.55924 0.12512 0.0
C1283 C 0.56275 0.44678 0.08297 0.0
C1284 C 0.57029 0.49934 0.03963 0.0
H1285 H 0.59127 0.53846 0.08983 0.0
C1286 C 0.55599 0.50991 0.01441 0.0
C1287 C 0.5835 0.50987 0.06617 0.0
C1288 C 0.59977 0.49949 0.09232 0.0
C1289 C 0.55389 0.53056 0.01681 0.0
C1290 C 0.56667 0.54104 0.04466 0.0
C1291 C 0.58142 0.53051 0.06861 0.0
C1292 C 0.56411 0.56268 0.05197 0.0
C1293 C 0.53732 0.54082 0.99135 0.0
C1294 C 0.56512 0.57649 0.01532 0.0
C1295 C 0.56131 0.59662 0.02251 0.0
C1296 C 0.55653 0.60339 0.0666 0.0
C1297 C 0.55639 0.5896 0.10344 0.0
C1298 C 0.56016 0.56953 0.0962 0.0
H1299 H 0.52622 0.53026 0.98009 0.0
H1300 H 0.52971 0.55199 0.01296 0.0
H1301 H 0.54349 0.54849 0.96041 0.0
H1302 H 0.56859 0.57169 0.98101 0.0
H1303 H 0.5616 0.60678 0.99333 0.0
H1304 H 0.91577 0.49497 0.04492 0.0
H1305 H 0.95204 0.494 0.04623 0.0
H1306 H 0.9544 0.52787 0.91954 0.0
H1307 H 0.91838 0.5292 0.91843 0.0
H1308 H 0.98197 0.48087 0.98596 0.0
H1309 H 0.98553 0.5619 1.00326 0.0
H1310 H 0.96278 0.5487 0.01063 0.0
H1311 H 0.97236 0.55464 0.95416 0.0
C1312 C 0.92401 0.5019 0.01694 0.0
C1313 C 0.91409 0.5123 0.98176 0.0
C1314 C 0.94478 0.50144 0.01785 0.0
C1315 C 0.95603 0.51135 0.98363 0.0
C1316 C 0.94613 0.52062 0.94706 0.0
H1317 H 0.08324 0.52876 0.93492 0.0
H1318 H 0.04701 0.52985 0.93008 0.0
C1319 C 0.92547 0.52119 0.94627 0.0
C1320 C 0.97801 0.51241 0.98642 0.0
H1321 H 0.01604 0.5448 0.99065 0.0
C1322 C 0.98938 0.49485 0.9872 0.0
C1323 C 0.98782 0.53066 0.98789 0.0
C1324 C 0.97652 0.55005 0.98938 0.0
C1325 C 1.01016 0.49504 0.98869 0.0
C1326 C 0.01993 0.51327 0.99027 0.0
C1327 C 1.0086 0.53084 0.98927 0.0
C1328 C 0.04183 0.51426 0.99462 0.0
C1329 C 0.02153 0.47568 0.98777 0.0
C1330 C 0.05098 0.5059 0.03326 0.0
C1331 C 0.07157 0.50538 0.03623 0.0
C1332 C 0.08364 0.51331 1.00073 0.0
C1333 C 0.07444 0.52266 0.96305 0.0
C1334 C 0.05372 0.52316 0.9601 0.0
H1335 H 1.01252 0.46368 0.97459 0.0
H1336 H 0.03518 0.47697 0.9662 0.0
H1337 H 0.02588 0.4714 0.02304 0.0
H1338 H 0.04217 0.49936 0.06085 0.0
H1339 H 0.07807 0.49816 0.06589 0.0
H1340 H 0.0368 0.08412 0.94018 0.0
H1341 H 0.04037 0.04818 0.93811 0.0
H1342 H 0.0816 0.04887 0.04792 0.0
H1343 H 0.07791 0.08479 0.05071 0.0
H1344 H 0.07243 0.02281 0.9237 0.0
H1345 H 0.04085 1.01045 0.09874 0.0
H1346 H 0.03924 0.03405 0.069 0.0
H1347 H 0.06182 0.02621 0.09567 0.0
C1348 C 0.04679 0.0767 0.96367 0.0
C1349 C 0.05699 0.08749 0.99578 0.0
C1350 C 0.04879 0.05607 0.96248 0.0
C1351 C 0.06095 0.04564 0.99347 0.0
C1352 C 0.07175 0.05643 0.02435 0.0
H1353 H 0.07489 0.91676 0.04335 0.0
H1354 H 0.08064 0.9525 0.04315 0.0
C1355 C 0.06975 0.07706 0.02562 0.0
C1356 C 0.06204 0.02355 0.99374 0.0
H1357 H 0.05248 0.98228 0.06001 0.0
C1358 C 0.06812 1.01398 0.95359 0.0
C1359 C 0.05651 1.01187 0.03273 0.0
C1360 C 0.04907 0.02111 0.07639 0.0
C1361 C 0.06874 0.99324 0.9513 0.0
C1362 C 0.06279 0.98158 0.98995 0.0
C1363 C 0.05715 0.99112 0.03042 0.0
C1364 C 0.06078 0.95967 0.988 0.0
C1365 C 0.07587 0.984 0.90741 0.0
C1366 C 0.04779 0.95169 0.95709 0.0
C1367 C 0.04451 0.93139 0.95716 0.0
C1368 C 0.05407 0.91839 0.98824 0.0
C1369 C 0.06747 0.92627 0.01856 0.0
C1370 C 0.07067 0.94673 0.01866 0.0
H1371 H 0.08567 0.99403 0.88716 0.0
H1372 H 0.08398 0.96987 0.91421 0.0
H1373 H 0.06296 0.98096 0.88625 0.0
H1374 H 0.03963 0.96126 0.93375 0.0
H1375 H 0.03401 0.92593 0.93346 0.0
H1376 H 0.08586 0.03247 0.53347 0.0
H1377 H 0.04975 0.03671 0.53738 0.0
H1378 H 0.04684 0.02426 0.3941 0.0
H1379 H 0.08272 0.02005 0.38975 0.0
H1380 H 0.02223 0.06235 0.48215 0.0
H1381 H 1.01162 0.98213 0.46155 0.0
H1382 H 0.03483 0.99203 0.47822 0.0
H1383 H 0.02767 0.9937 0.41953 0.0
C1384 C 0.07757 0.0309 0.50263 0.0
C1385 C 0.08728 0.02583 0.46133 0.0
C1386 C 0.05691 0.03332 0.50495 0.0
C1387 C 0.04554 0.03055 0.46618 0.0
C1388 C 0.05526 0.02624 0.42461 0.0
H1389 H 0.92238 0.01739 0.40611 0.0
H1390 H 0.95817 0.021 0.4042 0.0
C1391 C 0.07584 0.02391 0.42218 0.0
C1392 C 0.02352 0.03129 0.46924 0.0
H1393 H 0.98305 1.00268 0.45898 0.0
C1394 C 1.01362 0.04931 0.47734 0.0
C1395 C 1.01229 1.01427 0.46292 0.0
C1396 C 0.02207 0.99438 0.45543 0.0
C1397 C 0.99279 0.05089 0.4778 0.0
C1398 C 0.98153 0.03387 0.47112 0.0
C1399 C 0.99155 0.0158 0.46385 0.0
C1400 C 0.9594 0.03427 0.4705 0.0
C1401 C 0.98314 0.07093 0.48382 0.0
C1402 C 0.94786 0.041 0.50786 0.0
C1403 C 0.92719 0.03928 0.50861 0.0
C1404 C 0.91769 0.03043 0.47238 0.0
C1405 C 0.9292 0.02432 0.4345 0.0
C1406 C 0.94973 0.02629 0.43349 0.0
H1407 H 0.99352 0.08298 0.47504 0.0
H1408 H 0.96994 0.07284 0.46225 0.0
H1409 H 0.97838 0.07245 0.52013 0.0
H1410 H 0.95485 0.04678 0.5374 0.0
H1411 H 0.91882 0.04379 0.53869 0.0
H1412 H 0.56528 0.94112 0.62306 0.0
H1413 H 0.56733 0.97709 0.61822 0.0
H1414 H 0.54382 0.97724 0.48257 0.0
H1415 H 0.54242 0.94122 0.48654 0.0
H1416 H 0.57153 1.00458 0.48717 0.0
H1417 H 0.51982 1.01239 0.63554 0.0
H1418 H 0.54176 0.99843 0.64923 0.0
H1419 H 0.52476 0.98905 0.60916 0.0
C1420 C 0.56079 0.94878 0.59192 0.0
C1421 C 0.55358 0.93822 0.55531 0.0
C1422 C 0.5618 0.96941 0.58935 0.0
C1423 C 0.55521 0.98006 0.55052 0.0
C1424 C 0.54888 0.96948 0.51307 0.0
H1425 H 0.50889 0.09871 0.54197 0.0
H1426 H 0.51589 0.06351 0.54569 0.0
C1427 C 0.54812 0.94881 0.51537 0.0
C1428 C 0.55413 1.00215 0.54951 0.0
H1429 H 0.53399 0.04161 0.60566 0.0
C1430 C 0.56335 1.01269 0.51313 0.0
C1431 C 0.54321 1.01284 0.58296 0.0
C1432 C 0.53166 1.00262 0.62115 0.0
C1433 C 0.56184 0.03345 0.5091 0.0
C1434 C 0.55125 0.04414 0.54309 0.0
C1435 C 0.54229 0.03357 0.57975 0.0
C1436 C 0.54764 0.06602 0.5396 0.0
C1437 C 0.57092 0.0436 0.46744 0.0
C1438 C 0.56313 0.07954 0.53489 0.0
C1439 C 0.5591 0.10001 0.53208 0.0
C1440 C 0.53953 0.10735 0.53482 0.0
C1441 C 0.52418 0.09374 0.54003 0.0
C1442 C 0.52817 0.07346 0.54219 0.0
H1443 H 0.57397 0.03316 0.4394 0.0
H1444 H 0.56112 0.0557 0.45442 0.0
H1445 H 0.58516 0.05003 0.4767 0.0
H1446 H 0.57834 0.07433 0.53388 0.0
H1447 H 0.57128 0.11005 0.52826 0.0
H1448 H 0.58123 0.5282 0.4239 0.0
H1449 H 0.54528 0.52797 0.42685 0.0
H1450 H 0.54649 0.50282 0.56371 0.0
H1451 H 0.58274 0.50362 0.56149 0.0
H1452 H 0.5182 0.50053 0.43684 0.0
H1453 H 0.511 0.55002 0.58452 0.0
H1454 H 0.53431 0.54539 0.5553 0.0
H1455 H 0.52471 0.52764 0.59637 0.0
C1456 C 0.57393 0.5224 0.45457 0.0
C1457 C 0.58499 0.51598 0.49251 0.0
C1458 C 0.55326 0.52231 0.45621 0.0
C1459 C 0.54297 0.51585 0.49587 0.0
C1460 C 0.55397 0.50842 0.53308 0.0
H1461 H 0.41802 0.50619 0.5638 0.0
H1462 H 0.454 0.50749 0.56371 0.0
C1463 C 0.57475 0.50856 0.53152 0.0
C1464 C 0.52083 0.51727 0.4978 0.0
H1465 H 0.48136 0.53727 0.55704 0.0
C1466 C 0.51019 0.50863 0.46309 0.0
C1467 C 0.51022 0.52791 0.53187 0.0
C1468 C 0.52062 0.53843 0.56889 0.0
C1469 C 0.48942 0.51005 0.46186 0.0
C1470 C 0.47883 0.52068 0.49589 0.0
C1471 C 0.48942 0.52924 0.53074 0.0
C1472 C 0.45672 0.52208 0.49732 0.0
C1473 C 0.47895 0.49968 0.42471 0.0
C1474 C 0.44601 0.53062 0.46085 0.0
C1475 C 0.42525 0.53003 0.46094 0.0
C1476 C 0.4148 0.52085 0.49752 0.0
C1477 C 0.42555 0.51335 0.53501 0.0
C1478 C 0.44619 0.51404 0.535 0.0
H1479 H 0.48868 0.4885 0.4079 0.0
H1480 H 0.46556 0.49228 0.43864 0.0
H1481 H 0.47427 0.51068 0.39816 0.0
H1482 H 0.45374 0.53728 0.43172 0.0
H1483 H 0.4175 0.53583 0.43139 0.0
H1484 H 0.07221 0.58458 0.57043 0.0
H1485 H 0.07356 0.54844 0.57649 0.0
H1486 H 0.06769 0.54539 0.43048 0.0
H1487 H 0.06648 0.58132 0.42415 0.0
H1488 H 0.04376 0.52435 0.55304 0.0
H1489 H 0.11095 0.50445 0.45207 0.0
H1490 H 0.10613 0.5291 0.47192 0.0
H1491 H 0.09462 0.52086 0.42122 0.0
C1492 C 0.07186 0.57624 0.53943 0.0
C1493 C 0.06937 0.58595 0.49672 0.0
C1494 C 0.07247 0.55553 0.54299 0.0
C1495 C 0.07096 0.54407 0.50388 0.0
C1496 C 0.06933 0.55377 0.46109 0.0
H1497 H 0.04794 0.42261 0.43865 0.0
H1498 H 0.05622 0.45767 0.43818 0.0
C1499 C 0.06857 0.57441 0.45754 0.0
C1500 C 0.06919 0.52213 0.50795 0.0
H1501 H 0.08779 0.47865 0.46643 0.0
C1502 C 0.05358 0.51434 0.53469 0.0
C1503 C 0.08185 0.509 0.48362 0.0
C1504 C 0.09944 0.51625 0.45595 0.0
C1505 C 0.04986 0.49398 0.53659 0.0
C1506 C 0.06233 0.48084 0.51161 0.0
C1507 C 0.07815 0.48862 0.48544 0.0
C1508 C 0.05893 0.4591 0.51159 0.0
C1509 C 0.03211 0.4869 0.56403 0.0
C1510 C 0.0584 0.44792 0.55271 0.0
C1511 C 0.0536 0.42793 0.55305 0.0
C1512 C 0.0495 0.41845 0.51219 0.0
C1513 C 0.05111 0.42936 0.47072 0.0
C1514 C 0.05576 0.44946 0.47045 0.0
H1515 H 0.02125 0.49906 0.57051 0.0
H1516 H 0.02458 0.47502 0.54627 0.0
H1517 H 0.03698 0.48094 0.59769 0.0
H1518 H 0.06135 0.45476 0.5848 0.0
H1519 H 0.05266 0.41999 0.58562 0.0
loop_
_geom_bond_atom_site_label_1
_geom_bond_atom_site_label_2
_geom_bond_distance
_geom_bond_site_symmetry_2
_ccdc_geom_bond_type
Cu0 N1 1.999 . S
Cu0 O6 1.974 . S
Cu0 N11 1.985 1_545 S
Cu0 O20 1.959 . S
N1 Cu0 1.999 . S
N1 C3 1.263 . S
N1 C5 1.389 . S
N2 C3 1.358 . S
N2 C4 1.400 . S
C3 N1 1.263 . S
C3 N2 1.358 . S
C3 H9 0.930 . S
C4 N2 1.400 . S
C4 C5 1.351 . S
C4 H21 0.930 . S
C5 N1 1.389 . S
C5 C4 1.351 . S
C5 H10 0.930 . S
O6 Cu0 1.974 . S
O6 C16 1.282 1_545 S
C7 O8 1.261 . S
C7 O20 1.251 1_565 S
O8 C7 1.261 . S
H9 C3 0.930 . S
H10 C5 0.930 . S
N11 Cu0 1.985 1_565 S
N11 C13 1.335 1_554 S
N11 C14 1.390 1_554 S
N12 C13 1.345 . S
N12 C15 1.336 . S
C13 N11 1.335 1_556 S
C13 N12 1.345 . S
C13 H18 0.930 1_566 S
C14 N11 1.390 1_556 S
C14 C15 1.346 . S
C14 H19 0.930 . S
C15 N12 1.336 . S
C15 C14 1.346 . S
C15 H22 0.929 . S
C16 O6 1.282 1_565 S
C16 O17 1.216 . S
O17 C16 1.216 . S
H18 C13 0.930 1_544 S
H19 C14 0.930 . S
O20 Cu0 1.959 . S
O20 C7 1.251 1_545 S
H21 C4 0.930 . S
H22 C15 0.929 . S
Cu23 N24 1.999 . S
Cu23 O29 1.974 . S
Cu23 N34 1.985 . S
Cu23 O43 1.959 . S
N24 Cu23 1.999 . S
N24 C26 1.263 . S
N24 C28 1.389 . S
N25 C26 1.358 . S
N25 C27 1.400 . S
C26 N24 1.263 . S
C26 N25 1.358 . S
C26 H32 0.930 . S
C27 N25 1.400 . S
C27 C28 1.351 . S
C27 H44 0.930 . S
C28 N24 1.389 . S
C28 C27 1.351 . S
C28 H33 0.930 . S
O29 Cu23 1.974 . S
O29 C39 1.282 . S
C30 O31 1.261 . S
C30 O43 1.251 . S
O31 C30 1.261 . S
H32 C26 0.930 . S
H33 C28 0.930 . S
N34 Cu23 1.985 . S
N34 C36 1.335 . S
N34 C37 1.390 1_554 S
N35 C36 1.345 1_556 S
N35 C38 1.336 . S
C36 N34 1.335 . S
C36 N35 1.345 1_554 S
C36 H41 0.930 . S
C37 N34 1.390 1_556 S
C37 C38 1.346 . S
C37 H42 0.930 . S
C38 N35 1.336 . S
C38 C37 1.346 . S
C38 H45 0.929 . S
C39 O29 1.282 . S
C39 O40 1.216 . S
O40 C39 1.216 . S
H41 C36 0.930 . S
H42 C37 0.930 . S
O43 Cu23 1.959 . S
O43 C30 1.251 . S
H44 C27 0.930 . S
H45 C38 0.929 . S
Cu46 N47 1.999 . S
Cu46 O52 1.974 . S
Cu46 N57 1.985 . S
Cu46 O66 1.959 . S
N47 Cu46 1.999 . S
N47 C49 1.263 . S
N47 C51 1.389 . S
N48 C49 1.358 . S
N48 C50 1.400 . S
C49 N47 1.263 . S
C49 N48 1.358 . S
C49 H55 0.930 . S
C50 N48 1.400 . S
C50 C51 1.351 . S
C50 H67 0.930 . S
C51 N47 1.389 . S
C51 C50 1.351 . S
C51 H56 0.930 . S
O52 Cu46 1.974 . S
O52 C62 1.282 . S
C53 O54 1.261 . S
C53 O66 1.251 . S
O54 C53 1.261 . S
H55 C49 0.930 . S
H56 C51 0.930 . S
N57 Cu46 1.985 . S
N57 C59 1.335 . S
N57 C60 1.390 1_554 S
N58 C59 1.345 1_556 S
N58 C61 1.336 . S
C59 N57 1.335 . S
C59 N58 1.345 1_554 S
C59 H64 0.930 . S
C60 N57 1.390 1_556 S
C60 C61 1.346 . S
C60 H65 0.930 . S
C61 N58 1.336 . S
C61 C60 1.346 . S
C61 H68 0.929 . S
C62 O52 1.282 . S
C62 O63 1.216 . S
O63 C62 1.216 . S
H64 C59 0.930 . S
H65 C60 0.930 . S
O66 Cu46 1.959 . S
O66 C53 1.251 . S
H67 C50 0.930 . S
H68 C61 0.929 . S
Cu69 N70 1.999 . S
Cu69 O75 1.974 . S
Cu69 N80 1.993 1_455 S
Cu69 O89 1.959 . S
N70 Cu69 1.999 . S
N70 C72 1.263 . S
N70 C74 1.389 . S
N71 C72 1.358 . S
N71 C73 1.400 . S
C72 N70 1.263 . S
C72 N71 1.358 . S
C72 H78 0.930 . S
C73 N71 1.400 . S
C73 C74 1.351 . S
C73 H90 0.930 . S
C74 N70 1.389 . S
C74 C73 1.351 . S
C74 H79 0.930 . S
O75 Cu69 1.974 . S
O75 C85 1.282 1_455 S
C76 O77 1.261 . S
C76 O89 1.251 1_655 S
O77 C76 1.261 . S
H78 C72 0.930 . S
H79 C74 0.930 . S
N80 Cu69 1.993 1_655 S
N80 C82 1.333 1_554 S
N80 C83 1.382 1_554 S
N81 C82 1.345 . S
N81 C84 1.336 . S
C82 N80 1.333 1_556 S
C82 N81 1.345 . S
C82 H87 0.930 1_656 S
C83 N80 1.382 1_556 S
C83 C84 1.346 . S
C83 H88 0.930 . S
C84 N81 1.336 . S
C84 C83 1.346 . S
C84 H91 0.929 . S
C85 O75 1.282 1_655 S
C85 O86 1.216 . S
O86 C85 1.216 . S
H87 C82 0.930 1_454 S
H88 C83 0.930 . S
O89 Cu69 1.959 . S
O89 C76 1.251 1_455 S
H90 C73 0.930 . S
H91 C84 0.929 . S
Cu92 N93 1.999 . S
Cu92 O98 1.974 . S
Cu92 N103 1.985 1_565 S
Cu92 O112 1.959 . S
N93 Cu92 1.999 . S
N93 C95 1.263 . S
N93 C97 1.389 . S
N94 C95 1.358 . S
N94 C96 1.400 . S
C95 N93 1.263 . S
C95 N94 1.358 . S
C95 H101 0.930 . S
C96 N94 1.400 . S
C96 C97 1.351 . S
C96 H113 0.930 . S
C97 N93 1.389 . S
C97 C96 1.351 . S
C97 H102 0.930 . S
O98 Cu92 1.974 . S
O98 C108 1.282 1_565 S
C99 O100 1.261 . S
C99 O112 1.251 1_545 S
O100 C99 1.261 . S
H101 C95 0.930 . S
H102 C97 0.930 . S
N103 Cu92 1.985 1_545 S
N103 C105 1.335 . S
N103 C106 1.390 . S
N104 C105 1.345 . S
N104 C107 1.336 . S
C105 N103 1.335 . S
C105 N104 1.345 . S
C105 H110 0.930 1_545 S
C106 N103 1.390 . S
C106 C107 1.346 . S
C106 H111 0.930 . S
C107 N104 1.336 . S
C107 C106 1.346 . S
C107 H114 0.929 . S
C108 O98 1.282 1_545 S
C108 O109 1.216 . S
O109 C108 1.216 . S
H110 C105 0.930 1_565 S
H111 C106 0.930 . S
O112 Cu92 1.959 . S
O112 C99 1.251 1_565 S
H113 C96 0.930 . S
H114 C107 0.929 . S
Cu115 N116 1.999 . S
Cu115 O121 1.974 . S
Cu115 N126 1.985 . S
Cu115 O135 1.959 . S
N116 Cu115 1.999 . S
N116 C118 1.263 . S
N116 C120 1.389 . S
N117 C118 1.358 . S
N117 C119 1.400 . S
C118 N116 1.263 . S
C118 N117 1.358 . S
C118 H124 0.930 . S
C119 N117 1.400 . S
C119 C120 1.351 . S
C119 H136 0.930 . S
C120 N116 1.389 . S
C120 C119 1.351 . S
C120 H125 0.930 . S
O121 Cu115 1.974 . S
O121 C131 1.282 . S
C122 O123 1.261 . S
C122 O135 1.251 . S
O123 C122 1.261 . S
H124 C118 0.930 . S
H125 C120 0.930 . S
N126 Cu115 1.985 . S
N126 C128 1.335 . S
N126 C129 1.390 . S
N127 C128 1.345 . S
N127 C130 1.336 . S
C128 N126 1.335 . S
C128 N127 1.345 . S
C128 H133 0.930 . S
C129 N126 1.390 . S
C129 C130 1.346 . S
C129 H134 0.930 . S
C130 N127 1.336 . S
C130 C129 1.346 . S
C130 H137 0.929 . S
C131 O121 1.282 . S
C131 O132 1.216 . S
O132 C131 1.216 . S
H133 C128 0.930 . S
H134 C129 0.930 . S
O135 Cu115 1.959 . S
O135 C122 1.251 . S
H136 C119 0.930 . S
H137 C130 0.929 . S
Cu138 N139 1.999 . S
Cu138 O144 1.974 . S
Cu138 N149 1.985 . S
Cu138 O158 1.959 . S
N139 Cu138 1.999 . S
N139 C141 1.263 . S
N139 C143 1.389 . S
N140 C141 1.358 . S
N140 C142 1.400 . S
C141 N139 1.263 . S
C141 N140 1.358 . S
C141 H147 0.930 . S
C142 N140 1.400 . S
C142 C143 1.351 . S
C142 H159 0.930 . S
C143 N139 1.389 . S
C143 C142 1.351 . S
C143 H148 0.930 . S
O144 Cu138 1.974 . S
O144 C154 1.282 . S
C145 O146 1.261 . S
C145 O158 1.251 . S
O146 C145 1.261 . S
H147 C141 0.930 . S
H148 C143 0.930 . S
N149 Cu138 1.985 . S
N149 C151 1.335 . S
N149 C152 1.390 . S
N150 C151 1.345 . S
N150 C153 1.336 . S
C151 N149 1.335 . S
C151 N150 1.345 . S
C151 H156 0.930 . S
C152 N149 1.390 . S
C152 C153 1.346 . S
C152 H157 0.930 . S
C153 N150 1.336 . S
C153 C152 1.346 . S
C153 H160 0.929 . S
C154 O144 1.282 . S
C154 O155 1.216 . S
O155 C154 1.216 . S
H156 C151 0.930 . S
H157 C152 0.930 . S
O158 Cu138 1.959 . S
O158 C145 1.251 . S
H159 C142 0.930 . S
H160 C153 0.929 . S
Cu161 N162 1.999 . S
Cu161 O167 1.974 . S
Cu161 N172 1.985 1_655 S
Cu161 O181 1.959 . S
N162 Cu161 1.999 . S
N162 C164 1.263 . S
N162 C166 1.389 . S
N163 C164 1.358 . S
N163 C165 1.400 . S
C164 N162 1.263 . S
C164 N163 1.358 . S
C164 H170 0.930 . S
C165 N163 1.400 . S
C165 C166 1.351 . S
C165 H182 0.930 . S
C166 N162 1.389 . S
C166 C165 1.351 . S
C166 H171 0.930 . S
O167 Cu161 1.974 . S
O167 C177 1.282 1_655 S
C168 O169 1.261 . S
C168 O181 1.251 1_455 S
O169 C168 1.261 . S
H170 C164 0.930 . S
H171 C166 0.930 . S
N172 Cu161 1.985 1_455 S
N172 C174 1.335 . S
N172 C175 1.390 . S
N173 C174 1.345 . S
N173 C176 1.336 . S
C174 N172 1.335 . S
C174 N173 1.345 . S
C174 H179 0.930 1_455 S
C175 N172 1.390 . S
C175 C176 1.346 . S
C175 H180 0.930 . S
C176 N173 1.336 . S
C176 C175 1.346 . S
C176 H183 0.929 . S
C177 O167 1.282 1_455 S
C177 O178 1.216 . S
O178 C177 1.216 . S
H179 C174 0.930 1_655 S
H180 C175 0.930 . S
O181 Cu161 1.959 . S
O181 C168 1.251 1_655 S
H182 C165 0.930 . S
H183 C176 0.929 . S
Cu184 N185 1.999 . S
Cu184 O190 1.974 . S
Cu184 N195 1.985 1_565 S
Cu184 O204 1.959 . S
N185 Cu184 1.999 . S
N185 C187 1.263 . S
N185 C189 1.389 . S
N186 C187 1.358 . S
N186 C188 1.400 . S
C187 N185 1.263 . S
C187 N186 1.358 . S
C187 H193 0.930 . S
C188 N186 1.400 . S
C188 C189 1.351 . S
C188 H205 0.930 . S
C189 N185 1.389 . S
C189 C188 1.351 . S
C189 H194 0.930 . S
O190 Cu184 1.974 . S
O190 C200 1.282 1_565 S
C191 O192 1.261 . S
C191 O204 1.251 1_545 S
O192 C191 1.261 . S
H193 C187 0.930 . S
H194 C189 0.930 . S
N195 Cu184 1.985 1_545 S
N195 C197 1.335 1_556 S
N195 C198 1.390 1_556 S
N196 C197 1.345 . S
N196 C199 1.336 . S
C197 N195 1.335 1_554 S
C197 N196 1.345 . S
C197 H202 0.930 1_544 S
C198 N195 1.390 1_554 S
C198 C199 1.346 . S
C198 H203 0.930 . S
C199 N196 1.336 . S
C199 C198 1.346 . S
C199 H206 0.929 . S
C200 O190 1.282 1_545 S
C200 O201 1.216 . S
O201 C200 1.216 . S
H202 C197 0.930 1_566 S
H203 C198 0.930 . S
O204 Cu184 1.959 . S
O204 C191 1.251 1_565 S
H205 C188 0.930 . S
H206 C199 0.929 . S
Cu207 N208 1.999 . S
Cu207 O213 1.974 . S
Cu207 N218 1.985 . S
Cu207 O227 1.959 . S
N208 Cu207 1.999 . S
N208 C210 1.263 . S
N208 C212 1.389 . S
N209 C210 1.358 . S
N209 C211 1.400 . S
C210 N208 1.263 . S
C210 N209 1.358 . S
C210 H216 0.930 . S
C211 N209 1.400 . S
C211 C212 1.351 . S
C211 H228 0.930 . S
C212 N208 1.389 . S
C212 C211 1.351 . S
C212 H217 0.930 . S
O213 Cu207 1.974 . S
O213 C223 1.282 . S
C214 O215 1.261 . S
C214 O227 1.251 . S
O215 C214 1.261 . S
H216 C210 0.930 . S
H217 C212 0.930 . S
N218 Cu207 1.985 . S
N218 C220 1.335 . S
N218 C221 1.390 1_556 S
N219 C220 1.345 1_554 S
N219 C222 1.336 . S
C220 N218 1.335 . S
C220 N219 1.345 1_556 S
C220 H225 0.930 . S
C221 N218 1.390 1_554 S
C221 C222 1.346 . S
C221 H226 0.930 . S
C222 N219 1.336 . S
C222 C221 1.346 . S
C222 H229 0.929 . S
C223 O213 1.282 . S
C223 O224 1.216 . S
O224 C223 1.216 . S
H225 C220 0.930 . S
H226 C221 0.930 . S
O227 Cu207 1.959 . S
O227 C214 1.251 . S
H228 C211 0.930 . S
H229 C222 0.929 . S
Cu230 N231 1.999 . S
Cu230 O236 1.974 . S
Cu230 N241 1.985 . S
Cu230 O250 1.959 . S
N231 Cu230 1.999 . S
N231 C233 1.263 . S
N231 C235 1.389 . S
N232 C233 1.358 . S
N232 C234 1.400 . S
C233 N231 1.263 . S
C233 N232 1.358 . S
C233 H239 0.930 . S
C234 N232 1.400 . S
C234 C235 1.351 . S
C234 H251 0.930 . S
C235 N231 1.389 . S
C235 C234 1.351 . S
C235 H240 0.930 . S
O236 Cu230 1.974 . S
O236 C246 1.282 . S
C237 O238 1.261 . S
C237 O250 1.251 . S
O238 C237 1.261 . S
H239 C233 0.930 . S
H240 C235 0.930 . S
N241 Cu230 1.985 . S
N241 C243 1.335 . S
N241 C244 1.390 1_556 S
N242 C243 1.345 1_554 S
N242 C245 1.336 . S
C243 N241 1.335 . S
C243 N242 1.345 1_556 S
C243 H248 0.930 . S
C244 N241 1.390 1_554 S
C244 C245 1.346 . S
C244 H249 0.930 . S
C245 N242 1.336 . S
C245 C244 1.346 . S
C245 H252 0.929 . S
C246 O236 1.282 . S
C246 O247 1.216 . S
O247 C246 1.216 . S
H248 C243 0.930 . S
H249 C244 0.930 . S
O250 Cu230 1.959 . S
O250 C237 1.251 . S
H251 C234 0.930 . S
H252 C245 0.929 . S
Cu253 N254 1.999 . S
Cu253 O259 1.974 . S
Cu253 N264 1.993 1_655 S
Cu253 O273 1.959 . S
N254 Cu253 1.999 . S
N254 C256 1.263 . S
N254 C258 1.389 . S
N255 C256 1.358 . S
N255 C257 1.400 . S
C256 N254 1.263 . S
C256 N255 1.358 . S
C256 H262 0.930 . S
C257 N255 1.400 . S
C257 C258 1.351 . S
C257 H274 0.930 . S
C258 N254 1.389 . S
C258 C257 1.351 . S
C258 H263 0.930 . S
O259 Cu253 1.974 . S
O259 C269 1.282 1_655 S
C260 O261 1.261 . S
C260 O273 1.251 1_455 S
O261 C260 1.261 . S
H262 C256 0.930 . S
H263 C258 0.930 . S
N264 Cu253 1.993 1_455 S
N264 C266 1.333 1_556 S
N264 C267 1.382 1_556 S
N265 C266 1.345 . S
N265 C268 1.336 . S
C266 N264 1.333 1_554 S
C266 N265 1.345 . S
C266 H271 0.930 1_454 S
C267 N264 1.382 1_554 S
C267 C268 1.346 . S
C267 H272 0.930 . S
C268 N265 1.336 . S
C268 C267 1.346 . S
C268 H275 0.929 . S
C269 O259 1.282 1_455 S
C269 O270 1.216 . S
O270 C269 1.216 . S
H271 C266 0.930 1_656 S
H272 C267 0.930 . S
O273 Cu253 1.959 . S
O273 C260 1.251 1_655 S
H274 C257 0.930 . S
H275 C268 0.929 . S
Cu276 N277 1.999 . S
Cu276 O282 1.974 . S
Cu276 N287 1.985 1_545 S
Cu276 O296 1.959 . S
N277 Cu276 1.999 . S
N277 C279 1.263 . S
N277 C281 1.389 . S
N278 C279 1.358 . S
N278 C280 1.400 . S
C279 N277 1.263 . S
C279 N278 1.358 . S
C279 H285 0.930 . S
C280 N278 1.400 . S
C280 C281 1.351 . S
C280 H297 0.930 . S
C281 N277 1.389 . S
C281 C280 1.351 . S
C281 H286 0.930 . S
O282 Cu276 1.974 . S
O282 C292 1.282 1_545 S
C283 O284 1.261 . S
C283 O296 1.251 1_565 S
O284 C283 1.261 . S
H285 C279 0.930 . S
H286 C281 0.930 . S
N287 Cu276 1.985 1_565 S
N287 C289 1.335 . S
N287 C290 1.390 . S
N288 C289 1.345 . S
N288 C291 1.336 . S
C289 N287 1.335 . S
C289 N288 1.345 . S
C289 H294 0.930 1_565 S
C290 N287 1.390 . S
C290 C291 1.346 . S
C290 H295 0.930 . S
C291 N288 1.336 . S
C291 C290 1.346 . S
C291 H298 0.929 . S
C292 O282 1.282 1_565 S
C292 O293 1.216 . S
O293 C292 1.216 . S
H294 C289 0.930 1_545 S
H295 C290 0.930 . S
O296 Cu276 1.959 . S
O296 C283 1.251 1_545 S
H297 C280 0.930 . S
H298 C291 0.929 . S
Cu299 N300 1.999 . S
Cu299 O305 1.974 . S
Cu299 N310 1.985 . S
Cu299 O319 1.959 . S
N300 Cu299 1.999 . S
N300 C302 1.263 . S
N300 C304 1.389 . S
N301 C302 1.358 . S
N301 C303 1.400 . S
C302 N300 1.263 . S
C302 N301 1.358 . S
C302 H308 0.930 . S
C303 N301 1.400 . S
C303 C304 1.351 . S
C303 H320 0.930 . S
C304 N300 1.389 . S
C304 C303 1.351 . S
C304 H309 0.930 . S
O305 Cu299 1.974 . S
O305 C315 1.282 . S
C306 O307 1.261 . S
C306 O319 1.251 . S
O307 C306 1.261 . S
H308 C302 0.930 . S
H309 C304 0.930 . S
N310 Cu299 1.985 . S
N310 C312 1.335 . S
N310 C313 1.390 . S
N311 C312 1.345 . S
N311 C314 1.336 . S
C312 N310 1.335 . S
C312 N311 1.345 . S
C312 H317 0.930 . S
C313 N310 1.390 . S
C313 C314 1.346 . S
C313 H318 0.930 . S
C314 N311 1.336 . S
C314 C313 1.346 . S
C314 H321 0.929 . S
C315 O305 1.282 . S
C315 O316 1.216 . S
O316 C315 1.216 . S
H317 C312 0.930 . S
H318 C313 0.930 . S
O319 Cu299 1.959 . S
O319 C306 1.251 . S
H320 C303 0.930 . S
H321 C314 0.929 . S
Cu322 N323 1.999 . S
Cu322 O328 1.974 . S
Cu322 N333 1.985 . S
Cu322 O342 1.959 . S
N323 Cu322 1.999 . S
N323 C325 1.263 . S
N323 C327 1.389 . S
N324 C325 1.358 . S
N324 C326 1.400 . S
C325 N323 1.263 . S
C325 N324 1.358 . S
C325 H331 0.930 . S
C326 N324 1.400 . S
C326 C327 1.351 . S
C326 H343 0.930 . S
C327 N323 1.389 . S
C327 C326 1.351 . S
C327 H332 0.930 . S
O328 Cu322 1.974 . S
O328 C338 1.282 . S
C329 O330 1.261 . S
C329 O342 1.251 . S
O330 C329 1.261 . S
H331 C325 0.930 . S
H332 C327 0.930 . S
N333 Cu322 1.985 . S
N333 C335 1.335 . S
N333 C336 1.390 . S
N334 C335 1.345 . S
N334 C337 1.336 . S
C335 N333 1.335 . S
C335 N334 1.345 . S
C335 H340 0.930 . S
C336 N333 1.390 . S
C336 C337 1.346 . S
C336 H341 0.930 . S
C337 N334 1.336 . S
C337 C336 1.346 . S
C337 H344 0.929 . S
C338 O328 1.282 . S
C338 O339 1.216 . S
O339 C338 1.216 . S
H340 C335 0.930 . S
H341 C336 0.930 . S
O342 Cu322 1.959 . S
O342 C329 1.251 . S
H343 C326 0.930 . S
H344 C337 0.929 . S
Cu345 N346 1.999 . S
Cu345 O351 1.974 . S
Cu345 N356 1.985 1_455 S
Cu345 O365 1.959 . S
N346 Cu345 1.999 . S
N346 C348 1.263 . S
N346 C350 1.389 . S
N347 C348 1.358 . S
N347 C349 1.400 . S
C348 N346 1.263 . S
C348 N347 1.358 . S
C348 H354 0.930 . S
C349 N347 1.400 . S
C349 C350 1.351 . S
C349 H366 0.930 . S
C350 N346 1.389 . S
C350 C349 1.351 . S
C350 H355 0.930 . S
O351 Cu345 1.974 . S
O351 C361 1.282 1_455 S
C352 O353 1.261 . S
C352 O365 1.251 1_655 S
O353 C352 1.261 . S
H354 C348 0.930 . S
H355 C350 0.930 . S
N356 Cu345 1.985 1_655 S
N356 C358 1.335 . S
N356 C359 1.390 . S
N357 C358 1.345 . S
N357 C360 1.336 . S
C358 N356 1.335 . S
C358 N357 1.345 . S
C358 H363 0.930 1_655 S
C359 N356 1.390 . S
C359 C360 1.346 . S
C359 H364 0.930 . S
C360 N357 1.336 . S
C360 C359 1.346 . S
C360 H367 0.929 . S
C361 O351 1.282 1_655 S
C361 O362 1.216 . S
O362 C361 1.216 . S
H363 C358 0.930 1_455 S
H364 C359 0.930 . S
O365 Cu345 1.959 . S
O365 C352 1.251 1_455 S
H366 C349 0.930 . S
H367 C360 0.929 . S
H368 C376 0.929 . S
H369 C378 0.930 . S
H370 C380 0.930 . S
H371 C383 0.929 . S
H372 C386 0.930 . S
H373 C388 0.960 . S
H374 C388 0.960 . S
H375 C388 0.960 . S
C376 H368 0.929 . S
C376 C377 1.377 . S
C376 C378 1.384 . S
C377 C376 1.377 . S
C377 C383 1.390 . S
C378 H369 0.930 . S
C378 C376 1.384 . S
C378 C379 1.372 . S
C379 C378 1.372 . S
C379 C380 1.400 . S
C379 C384 1.490 . S
C380 H370 0.930 . S
C380 C379 1.400 . S
C380 C383 1.386 . S
H381 C397 0.930 . S
H382 C398 0.931 . S
C383 H371 0.929 . S
C383 C377 1.390 . S
C383 C380 1.386 . S
C384 C379 1.490 . S
C384 C386 1.395 . S
C384 C387 1.403 . S
H385 C391 0.930 . S
C386 H372 0.930 . S
C386 C384 1.395 . S
C386 C389 1.403 . S
C387 C384 1.403 . S
C387 C388 1.524 . S
C387 C391 1.400 . S
C388 H373 0.960 . S
C388 H374 0.960 . S
C388 H375 0.960 . S
C388 C387 1.524 . S
C389 C386 1.403 . S
C389 C390 1.392 . S
C389 C393 1.495 . S
C390 C389 1.392 . S
C390 C391 1.385 . S
C390 C392 1.478 . S
C391 H385 0.930 . S
C391 C387 1.400 . S
C391 C390 1.385 . S
C392 C390 1.478 . S
C392 C394 1.381 . S
C392 C398 1.383 . S
C393 C389 1.495 . S
C393 H399 0.959 . S
C393 H400 0.961 . S
C393 H401 0.960 . S
C394 C392 1.381 . S
C394 C395 1.394 . S
C394 H402 0.930 . S
C395 C394 1.394 . S
C395 C396 1.383 . S
C395 H403 0.929 . S
C396 C395 1.383 . S
C396 C397 1.377 . S
C397 H381 0.930 . S
C397 C396 1.377 . S
C397 C398 1.379 . S
C398 H382 0.931 . S
C398 C392 1.383 . S
C398 C397 1.379 . S
H399 C393 0.959 . S
H400 C393 0.961 . S
H401 C393 0.960 . S
H402 C394 0.930 . S
H403 C395 0.929 . S
H404 C412 0.929 . S
H405 C414 0.930 . S
H406 C416 0.930 . S
H407 C419 0.929 . S
H408 C422 0.930 . S
H409 C424 0.960 . S
H410 C424 0.960 . S
H411 C424 0.960 . S
C412 H404 0.929 . S
C412 C413 1.377 . S
C412 C414 1.384 . S
C413 C412 1.377 . S
C413 C419 1.390 . S
C414 H405 0.930 . S
C414 C412 1.384 . S
C414 C415 1.372 . S
C415 C414 1.372 . S
C415 C416 1.400 . S
C415 C420 1.490 . S
C416 H406 0.930 . S
C416 C415 1.400 . S
C416 C419 1.386 . S
H417 C433 0.930 . S
H418 C434 0.931 . S
C419 H407 0.929 . S
C419 C413 1.390 . S
C419 C416 1.386 . S
C420 C415 1.490 . S
C420 C422 1.395 . S
C420 C423 1.403 . S
H421 C427 0.930 . S
C422 H408 0.930 . S
C422 C420 1.395 . S
C422 C425 1.403 . S
C423 C420 1.403 . S
C423 C424 1.524 . S
C423 C427 1.400 . S
C424 H409 0.960 . S
C424 H410 0.960 . S
C424 H411 0.960 . S
C424 C423 1.524 . S
C425 C422 1.403 . S
C425 C426 1.392 . S
C425 C429 1.495 . S
C426 C425 1.392 . S
C426 C427 1.385 . S
C426 C428 1.478 . S
C427 H421 0.930 . S
C427 C423 1.400 . S
C427 C426 1.385 . S
C428 C426 1.478 . S
C428 C430 1.381 . S
C428 C434 1.383 . S
C429 C425 1.495 . S
C429 H435 0.959 . S
C429 H436 0.961 . S
C429 H437 0.960 . S
C430 C428 1.381 . S
C430 C431 1.394 . S
C430 H438 0.930 . S
C431 C430 1.394 . S
C431 C432 1.383 . S
C431 H439 0.929 . S
C432 C431 1.383 . S
C432 C433 1.377 . S
C433 H417 0.930 . S
C433 C432 1.377 . S
C433 C434 1.379 . S
C434 H418 0.931 . S
C434 C428 1.383 . S
C434 C433 1.379 . S
H435 C429 0.959 . S
H436 C429 0.961 . S
H437 C429 0.960 . S
H438 C430 0.930 . S
H439 C431 0.929 . S
H440 C448 0.929 . S
H441 C450 0.930 . S
H442 C452 0.930 . S
H443 C455 0.929 . S
H444 C458 0.930 . S
H445 C460 0.960 . S
H446 C460 0.960 . S
H447 C460 0.960 . S
C448 H440 0.929 . S
C448 C449 1.377 . S
C448 C450 1.384 . S
C449 C448 1.377 . S
C449 C455 1.390 . S
C450 H441 0.930 . S
C450 C448 1.384 . S
C450 C451 1.372 . S
C451 C450 1.372 . S
C451 C452 1.400 . S
C451 C456 1.490 . S
C452 H442 0.930 . S
C452 C451 1.400 . S
C452 C455 1.386 . S
H453 C469 0.930 . S
H454 C470 0.931 . S
C455 H443 0.929 . S
C455 C449 1.390 . S
C455 C452 1.386 . S
C456 C451 1.490 . S
C456 C458 1.395 . S
C456 C459 1.403 . S
H457 C463 0.930 . S
C458 H444 0.930 . S
C458 C456 1.395 . S
C458 C461 1.403 . S
C459 C456 1.403 . S
C459 C460 1.524 . S
C459 C463 1.400 . S
C460 H445 0.960 . S
C460 H446 0.960 . S
C460 H447 0.960 . S
C460 C459 1.524 . S
C461 C458 1.403 . S
C461 C462 1.392 . S
C461 C465 1.495 . S
C462 C461 1.392 . S
C462 C463 1.385 . S
C462 C464 1.478 . S
C463 H457 0.930 . S
C463 C459 1.400 . S
C463 C462 1.385 . S
C464 C462 1.478 . S
C464 C466 1.381 . S
C464 C470 1.383 . S
C465 C461 1.495 . S
C465 H471 0.959 . S
C465 H472 0.961 . S
C465 H473 0.960 . S
C466 C464 1.381 . S
C466 C467 1.394 . S
C466 H474 0.930 . S
C467 C466 1.394 . S
C467 C468 1.383 . S
C467 H475 0.929 . S
C468 C467 1.383 . S
C468 C469 1.377 . S
C469 H453 0.930 . S
C469 C468 1.377 . S
C469 C470 1.379 . S
C470 H454 0.931 . S
C470 C464 1.383 . S
C470 C469 1.379 . S
H471 C465 0.959 . S
H472 C465 0.961 . S
H473 C465 0.960 . S
H474 C466 0.930 . S
H475 C467 0.929 . S
H476 C484 0.929 . S
H477 C486 0.930 . S
H478 C488 0.930 . S
H479 C491 0.976 . S
H480 C494 0.930 . S
H481 C496 0.960 . S
H482 C496 0.960 . S
H483 C496 0.960 . S
C484 H476 0.929 . S
C484 C485 1.377 . S
C484 C486 1.384 . S
C485 C484 1.377 . S
C485 C491 1.390 . S
C486 H477 0.930 . S
C486 C484 1.384 . S
C486 C487 1.372 . S
C487 C486 1.372 . S
C487 C488 1.400 . S
C487 C492 1.490 . S
C488 H478 0.930 . S
C488 C487 1.400 . S
C488 C491 1.386 . S
H489 C505 0.930 . S
H490 C506 0.931 . S
C491 H479 0.976 . S
C491 C485 1.390 . S
C491 C488 1.386 . S
C492 C487 1.490 . S
C492 C494 1.395 . S
C492 C495 1.403 . S
H493 C499 0.930 . S
C494 H480 0.930 . S
C494 C492 1.395 . S
C494 C497 1.403 . S
C495 C492 1.403 . S
C495 C496 1.524 . S
C495 C499 1.400 . S
C496 H481 0.960 . S
C496 H482 0.960 . S
C496 H483 0.960 . S
C496 C495 1.524 . S
C497 C494 1.403 . S
C497 C498 1.392 . S
C497 C501 1.495 . S
C498 C497 1.392 . S
C498 C499 1.385 . S
C498 C500 1.478 . S
C499 H493 0.930 . S
C499 C495 1.400 . S
C499 C498 1.385 . S
C500 C498 1.478 . S
C500 C502 1.381 . S
C500 C506 1.383 . S
C501 C497 1.495 . S
C501 H507 0.959 . S
C501 H508 0.961 . S
C501 H509 0.960 . S
C502 C500 1.381 . S
C502 C503 1.394 . S
C502 H510 0.930 . S
C503 C502 1.394 . S
C503 C504 1.383 . S
C503 H511 0.929 . S
C504 C503 1.383 . S
C504 C505 1.377 . S
C505 H489 0.930 . S
C505 C504 1.377 . S
C505 C506 1.379 . S
C506 H490 0.931 . S
C506 C500 1.383 . S
C506 C505 1.379 . S
H507 C501 0.959 . S
H508 C501 0.961 . S
H509 C501 0.960 . S
H510 C502 0.930 . S
H511 C503 0.929 . S
H512 C520 0.929 . S
H513 C522 0.930 . S
H514 C524 0.930 . S
H515 C527 0.929 1_545 S
H516 C530 0.930 . S
H517 C532 0.960 . S
H518 C532 0.960 . S
H519 C532 0.960 . S
C520 H512 0.929 . S
C520 C521 1.377 . S
C520 C522 1.384 . S
C521 C520 1.377 . S
C521 C527 1.390 . S
C522 H513 0.930 . S
C522 C520 1.384 . S
C522 C523 1.372 . S
C523 C522 1.372 . S
C523 C524 1.400 . S
C523 C528 1.490 . S
C524 H514 0.930 . S
C524 C523 1.400 . S
C524 C527 1.386 . S
H525 C541 0.930 . S
H526 C542 0.931 . S
C527 H515 0.929 1_565 S
C527 C521 1.390 . S
C527 C524 1.386 . S
C528 C523 1.490 . S
C528 C530 1.395 . S
C528 C531 1.403 . S
H529 C535 0.930 . S
C530 H516 0.930 . S
C530 C528 1.395 . S
C530 C533 1.403 . S
C531 C528 1.403 . S
C531 C532 1.524 . S
C531 C535 1.400 . S
C532 H517 0.960 . S
C532 H518 0.960 . S
C532 H519 0.960 . S
C532 C531 1.524 . S
C533 C530 1.403 . S
C533 C534 1.392 . S
C533 C537 1.495 . S
C534 C533 1.392 . S
C534 C535 1.385 . S
C534 C536 1.478 . S
C535 H529 0.930 . S
C535 C531 1.400 . S
C535 C534 1.385 . S
C536 C534 1.478 . S
C536 C538 1.381 . S
C536 C542 1.383 . S
C537 C533 1.495 . S
C537 H543 0.959 . S
C537 H544 0.961 . S
C537 H545 0.960 . S
C538 C536 1.381 . S
C538 C539 1.394 . S
C538 H546 0.930 . S
C539 C538 1.394 . S
C539 C540 1.383 . S
C539 H547 0.929 . S
C540 C539 1.383 . S
C540 C541 1.377 . S
C541 H525 0.930 . S
C541 C540 1.377 . S
C541 C542 1.379 . S
C542 H526 0.931 . S
C542 C536 1.383 . S
C542 C541 1.379 . S
H543 C537 0.959 . S
H544 C537 0.961 . S
H545 C537 0.960 . S
H546 C538 0.930 . S
H547 C539 0.929 . S
H548 C556 0.929 . S
H549 C558 0.930 . S
H550 C560 0.930 . S
H551 C563 0.929 . S
H552 C566 0.930 . S
H553 C568 0.960 . S
H554 C568 0.960 . S
H555 C568 0.960 . S
C556 H548 0.929 . S
C556 C557 1.377 . S
C556 C558 1.384 . S
C557 C556 1.377 . S
C557 C563 1.390 . S
C558 H549 0.930 . S
C558 C556 1.384 . S
C558 C559 1.372 . S
C559 C558 1.372 . S
C559 C560 1.400 . S
C559 C564 1.490 . S
C560 H550 0.930 . S
C560 C559 1.400 . S
C560 C563 1.386 . S
H561 C577 0.930 . S
H562 C578 0.931 . S
C563 H551 0.929 . S
C563 C557 1.390 . S
C563 C560 1.386 . S
C564 C559 1.490 . S
C564 C566 1.395 . S
C564 C567 1.403 . S
H565 C571 0.930 . S
C566 H552 0.930 . S
C566 C564 1.395 . S
C566 C569 1.403 . S
C567 C564 1.403 . S
C567 C568 1.524 . S
C567 C571 1.400 . S
C568 H553 0.960 . S
C568 H554 0.960 . S
C568 H555 0.960 . S
C568 C567 1.524 . S
C569 C566 1.403 . S
C569 C570 1.392 . S
C569 C573 1.495 . S
C570 C569 1.392 . S
C570 C571 1.385 . S
C570 C572 1.478 . S
C571 H565 0.930 . S
C571 C567 1.400 . S
C571 C570 1.385 . S
C572 C570 1.478 . S
C572 C574 1.381 . S
C572 C578 1.383 . S
C573 C569 1.495 . S
C573 H579 0.959 . S
C573 H580 0.961 . S
C573 H581 0.960 . S
C574 C572 1.381 . S
C574 C575 1.394 . S
C574 H582 0.930 . S
C575 C574 1.394 . S
C575 C576 1.383 . S
C575 H583 0.929 . S
C576 C575 1.383 . S
C576 C577 1.377 . S
C577 H561 0.930 . S
C577 C576 1.377 . S
C577 C578 1.379 . S
C578 H562 0.931 . S
C578 C572 1.383 . S
C578 C577 1.379 . S
H579 C573 0.959 . S
H580 C573 0.961 . S
H581 C573 0.960 . S
H582 C574 0.930 . S
H583 C575 0.929 . S
H584 C592 0.899 1_655 S
H585 C594 0.930 . S
H586 C596 0.930 . S
H587 C599 0.929 . S
H588 C602 0.930 . S
H589 C604 0.960 . S
H590 C604 0.960 . S
H591 C604 0.960 . S
C592 H584 0.899 1_455 S
C592 C593 1.377 . S
C592 C594 1.384 . S
C593 C592 1.377 . S
C593 C599 1.390 . S
C594 H585 0.930 . S
C594 C592 1.384 . S
C594 C595 1.372 . S
C595 C594 1.372 . S
C595 C596 1.400 . S
C595 C600 1.490 . S
C596 H586 0.930 . S
C596 C595 1.400 . S
C596 C599 1.386 . S
H597 C613 0.930 . S
H598 C614 0.931 . S
C599 H587 0.929 . S
C599 C593 1.390 . S
C599 C596 1.386 . S
C600 C595 1.490 . S
C600 C602 1.395 . S
C600 C603 1.403 . S
H601 C607 0.930 . S
C602 H588 0.930 . S
C602 C600 1.395 . S
C602 C605 1.403 . S
C603 C600 1.403 . S
C603 C604 1.524 . S
C603 C607 1.400 . S
C604 H589 0.960 . S
C604 H590 0.960 . S
C604 H591 0.960 . S
C604 C603 1.524 . S
C605 C602 1.403 . S
C605 C606 1.392 . S
C605 C609 1.495 . S
C606 C605 1.392 . S
C606 C607 1.385 . S
C606 C608 1.478 . S
C607 H601 0.930 . S
C607 C603 1.400 . S
C607 C606 1.385 . S
C608 C606 1.478 . S
C608 C610 1.381 . S
C608 C614 1.383 . S
C609 C605 1.495 . S
C609 H615 0.959 . S
C609 H616 0.961 . S
C609 H617 0.960 . S
C610 C608 1.381 . S
C610 C611 1.394 . S
C610 H618 0.930 . S
C611 C610 1.394 . S
C611 C612 1.383 . S
C611 H619 0.929 . S
C612 C611 1.383 . S
C612 C613 1.377 . S
C613 H597 0.930 . S
C613 C612 1.377 . S
C613 C614 1.379 . S
C614 H598 0.931 . S
C614 C608 1.383 . S
C614 C613 1.379 . S
H615 C609 0.959 . S
H616 C609 0.961 . S
H617 C609 0.960 . S
H618 C610 0.930 . S
H619 C611 0.929 . S
H620 C628 0.929 . S
H621 C630 0.930 . S
H622 C632 0.930 . S
H623 C635 0.929 . S
H624 C638 0.930 . S
H625 C640 0.960 . S
H626 C640 0.960 . S
H627 C640 0.960 . S
C628 H620 0.929 . S
C628 C629 1.377 . S
C628 C630 1.384 . S
C629 C628 1.377 . S
C629 C635 1.390 . S
C630 H621 0.930 . S
C630 C628 1.384 . S
C630 C631 1.372 . S
C631 C630 1.372 . S
C631 C632 1.400 . S
C631 C636 1.490 . S
C632 H622 0.930 . S
C632 C631 1.400 . S
C632 C635 1.386 . S
H633 C649 0.930 1_565 S
H634 C650 0.931 . S
C635 H623 0.929 . S
C635 C629 1.390 . S
C635 C632 1.386 . S
C636 C631 1.490 . S
C636 C638 1.395 . S
C636 C639 1.403 . S
H637 C643 0.930 . S
C638 H624 0.930 . S
C638 C636 1.395 . S
C638 C641 1.403 . S
C639 C636 1.403 . S
C639 C640 1.524 . S
C639 C643 1.400 . S
C640 H625 0.960 . S
C640 H626 0.960 . S
C640 H627 0.960 . S
C640 C639 1.524 . S
C641 C638 1.403 . S
C641 C642 1.392 . S
C641 C645 1.495 . S
C642 C641 1.392 . S
C642 C643 1.385 . S
C642 C644 1.478 . S
C643 H637 0.930 . S
C643 C639 1.400 . S
C643 C642 1.385 . S
C644 C642 1.478 . S
C644 C646 1.381 . S
C644 C650 1.383 . S
C645 C641 1.495 . S
C645 H651 0.959 . S
C645 H652 0.961 . S
C645 H653 0.960 . S
C646 C644 1.381 . S
C646 C647 1.394 . S
C646 H654 0.930 . S
C647 C646 1.394 . S
C647 C648 1.383 . S
C647 H655 0.929 . S
C648 C647 1.383 . S
C648 C649 1.377 . S
C649 H633 0.930 1_545 S
C649 C648 1.377 . S
C649 C650 1.379 . S
C650 H634 0.931 . S
C650 C644 1.383 . S
C650 C649 1.379 . S
H651 C645 0.959 . S
H652 C645 0.961 . S
H653 C645 0.960 . S
H654 C646 0.930 . S
H655 C647 0.929 . S
H656 C664 0.929 . S
H657 C666 0.930 . S
H658 C668 0.901 1_545 S
H659 C671 0.929 1_545 S
H660 C674 0.930 . S
H661 C676 0.960 . S
H662 C676 0.960 . S
H663 C676 0.960 . S
C664 H656 0.929 . S
C664 C665 1.377 . S
C664 C666 1.384 . S
C665 C664 1.377 . S
C665 C671 1.390 . S
C666 H657 0.930 . S
C666 C664 1.384 . S
C666 C667 1.372 . S
C667 C666 1.372 . S
C667 C668 1.428 . S
C667 C672 1.490 . S
C668 H658 0.901 1_565 S
C668 C667 1.428 . S
C668 C671 1.388 . S
H669 C685 0.930 . S
H670 C686 0.931 . S
C671 H659 0.929 1_565 S
C671 C665 1.390 . S
C671 C668 1.388 . S
C672 C667 1.490 . S
C672 C674 1.395 . S
C672 C675 1.403 . S
H673 C679 0.930 . S
C674 H660 0.930 . S
C674 C672 1.395 . S
C674 C677 1.403 . S
C675 C672 1.403 . S
C675 C676 1.524 . S
C675 C679 1.400 . S
C676 H661 0.960 . S
C676 H662 0.960 . S
C676 H663 0.960 . S
C676 C675 1.524 . S
C677 C674 1.403 . S
C677 C678 1.392 . S
C677 C681 1.495 1_565 S
C678 C677 1.392 . S
C678 C679 1.385 . S
C678 C680 1.478 . S
C679 H673 0.930 . S
C679 C675 1.400 . S
C679 C678 1.385 . S
C680 C678 1.478 . S
C680 C682 1.381 . S
C680 C686 1.383 1_565 S
C681 C677 1.495 1_545 S
C681 H687 0.959 . S
C681 H688 0.961 . S
C681 H689 0.960 1_545 S
C682 C680 1.381 . S
C682 C683 1.394 . S
C682 H690 0.930 . S
C683 C682 1.394 . S
C683 C684 1.383 . S
C683 H691 0.929 . S
C684 C683 1.383 . S
C684 C685 1.377 1_565 S
C685 H669 0.930 . S
C685 C684 1.377 1_545 S
C685 C686 1.379 . S
C686 H670 0.931 . S
C686 C680 1.383 1_545 S
C686 C685 1.379 . S
H687 C681 0.959 . S
H688 C681 0.961 . S
H689 C681 0.960 1_565 S
H690 C682 0.930 . S
H691 C683 0.929 . S
H692 C700 0.929 . S
H693 C702 0.930 . S
H694 C704 0.930 . S
H695 C707 0.929 . S
H696 C710 0.930 . S
H697 C712 0.960 . S
H698 C712 0.960 . S
H699 C712 0.960 . S
C700 H692 0.929 . S
C700 C701 1.377 . S
C700 C702 1.384 . S
C701 C700 1.377 . S
C701 C707 1.390 . S
C702 H693 0.930 . S
C702 C700 1.384 . S
C702 C703 1.372 . S
C703 C702 1.372 . S
C703 C704 1.400 . S
C703 C708 1.490 . S
C704 H694 0.930 . S
C704 C703 1.400 . S
C704 C707 1.386 . S
H705 C721 0.930 . S
H706 C722 0.931 . S
C707 H695 0.929 . S
C707 C701 1.390 . S
C707 C704 1.386 . S
C708 C703 1.490 . S
C708 C710 1.395 . S
C708 C711 1.403 . S
H709 C715 0.930 . S
C710 H696 0.930 . S
C710 C708 1.395 . S
C710 C713 1.403 . S
C711 C708 1.403 . S
C711 C712 1.524 . S
C711 C715 1.400 . S
C712 H697 0.960 . S
C712 H698 0.960 . S
C712 H699 0.960 . S
C712 C711 1.524 . S
C713 C710 1.403 . S
C713 C714 1.392 . S
C713 C717 1.495 . S
C714 C713 1.392 . S
C714 C715 1.385 . S
C714 C716 1.478 . S
C715 H709 0.930 . S
C715 C711 1.400 . S
C715 C714 1.385 . S
C716 C714 1.478 . S
C716 C718 1.381 . S
C716 C722 1.383 . S
C717 C713 1.495 . S
C717 H723 0.959 . S
C717 H724 0.961 . S
C717 H725 0.960 . S
C718 C716 1.381 . S
C718 C719 1.394 . S
C718 H726 0.930 . S
C719 C718 1.394 . S
C719 C720 1.383 . S
C719 H727 0.929 . S
C720 C719 1.383 . S
C720 C721 1.377 . S
C721 H705 0.930 . S
C721 C720 1.377 . S
C721 C722 1.379 . S
C722 H706 0.931 . S
C722 C716 1.383 . S
C722 C721 1.379 . S
H723 C717 0.959 . S
H724 C717 0.961 . S
H725 C717 0.960 . S
H726 C718 0.930 . S
H727 C719 0.929 . S
H728 C736 0.929 . S
H729 C738 0.930 . S
H730 C740 0.930 . S
H731 C743 0.929 . S
H732 C746 0.930 . S
H733 C748 0.960 . S
H734 C748 0.960 . S
H735 C748 0.960 . S
C736 H728 0.929 . S
C736 C737 1.377 . S
C736 C738 1.384 . S
C737 C736 1.377 . S
C737 C743 1.390 . S
C738 H729 0.930 . S
C738 C736 1.384 . S
C738 C739 1.372 . S
C739 C738 1.372 . S
C739 C740 1.400 . S
C739 C744 1.490 . S
C740 H730 0.930 . S
C740 C739 1.400 . S
C740 C743 1.386 . S
H741 C757 0.930 . S
H742 C758 0.931 . S
C743 H731 0.929 . S
C743 C737 1.390 . S
C743 C740 1.386 . S
C744 C739 1.490 . S
C744 C746 1.395 . S
C744 C747 1.403 . S
H745 C751 0.930 . S
C746 H732 0.930 . S
C746 C744 1.395 . S
C746 C749 1.403 . S
C747 C744 1.403 . S
C747 C748 1.524 . S
C747 C751 1.400 . S
C748 H733 0.960 . S
C748 H734 0.960 . S
C748 H735 0.960 . S
C748 C747 1.524 . S
C749 C746 1.403 . S
C749 C750 1.392 . S
C749 C753 1.495 . S
C750 C749 1.392 . S
C750 C751 1.385 . S
C750 C752 1.478 . S
C751 H745 0.930 . S
C751 C747 1.400 . S
C751 C750 1.385 . S
C752 C750 1.478 . S
C752 C754 1.381 . S
C752 C758 1.383 . S
C753 C749 1.495 . S
C753 H759 0.959 . S
C753 H760 0.961 . S
C753 H761 0.960 . S
C754 C752 1.381 . S
C754 C755 1.394 . S
C754 H762 0.930 . S
C755 C754 1.394 . S
C755 C756 1.383 . S
C755 H763 0.929 . S
C756 C755 1.383 . S
C756 C757 1.377 . S
C757 H741 0.930 . S
C757 C756 1.377 . S
C757 C758 1.379 . S
C758 H742 0.931 . S
C758 C752 1.383 . S
C758 C757 1.379 . S
H759 C753 0.959 . S
H760 C753 0.961 . S
H761 C753 0.960 . S
H762 C754 0.930 . S
H763 C755 0.929 . S
H764 C772 0.929 . S
H765 C774 0.930 . S
H766 C776 0.930 . S
H767 C779 0.929 . S
H768 C782 0.930 . S
H769 C784 0.960 . S
H770 C784 0.960 . S
H771 C784 0.960 . S
C772 H764 0.929 . S
C772 C773 1.377 . S
C772 C774 1.384 . S
C773 C772 1.377 . S
C773 C779 1.390 . S
C774 H765 0.930 . S
C774 C772 1.384 . S
C774 C775 1.372 . S
C775 C774 1.372 . S
C775 C776 1.400 . S
C775 C780 1.490 . S
C776 H766 0.930 . S
C776 C775 1.400 . S
C776 C779 1.386 . S
H777 C793 0.928 1_455 S
H778 C794 0.931 1_455 S
C779 H767 0.929 . S
C779 C773 1.390 . S
C779 C776 1.386 . S
C780 C775 1.490 . S
C780 C782 1.395 1_655 S
C780 C783 1.403 . S
H781 C787 0.930 . S
C782 H768 0.930 . S
C782 C780 1.395 1_455 S
C782 C785 1.403 . S
C783 C780 1.403 . S
C783 C784 1.524 . S
C783 C787 1.400 . S
C784 H769 0.960 . S
C784 H770 0.960 . S
C784 H771 0.960 . S
C784 C783 1.524 . S
C785 C782 1.403 . S
C785 C786 1.392 1_455 S
C785 C789 1.495 . S
C786 C785 1.392 1_655 S
C786 C787 1.385 . S
C786 C788 1.478 . S
C787 H781 0.930 . S
C787 C783 1.400 . S
C787 C786 1.385 . S
C788 C786 1.478 . S
C788 C790 1.381 . S
C788 C794 1.383 . S
C789 C785 1.495 . S
C789 H795 0.959 . S
C789 H796 0.961 . S
C789 H797 0.960 . S
C790 C788 1.381 . S
C790 C791 1.394 . S
C790 H798 0.930 . S
C791 C790 1.394 . S
C791 C792 1.383 . S
C791 H799 0.929 . S
C792 C791 1.383 . S
C792 C793 1.377 . S
C793 H777 0.928 1_655 S
C793 C792 1.377 . S
C793 C794 1.379 . S
C794 H778 0.931 1_655 S
C794 C788 1.383 . S
C794 C793 1.379 . S
H795 C789 0.959 . S
H796 C789 0.961 . S
H797 C789 0.960 . S
H798 C790 0.930 . S
H799 C791 0.929 . S
H800 C808 0.919 1_565 S
H801 C810 0.930 . S
H802 C812 0.930 . S
H803 C815 0.929 . S
H804 C818 0.930 . S
H805 C820 0.960 . S
H806 C820 0.960 1_565 S
H807 C820 0.960 . S
C808 H800 0.919 1_545 S
C808 C809 1.388 . S
C808 C810 1.383 1_545 S
C809 C808 1.388 . S
C809 C815 1.390 . S
C810 H801 0.930 . S
C810 C808 1.383 1_565 S
C810 C811 1.372 1_565 S
C811 C810 1.372 1_545 S
C811 C812 1.400 . S
C811 C816 1.490 . S
C812 H802 0.930 . S
C812 C811 1.400 . S
C812 C815 1.386 . S
H813 C829 0.930 . S
H814 C830 0.931 . S
C815 H803 0.929 . S
C815 C809 1.390 . S
C815 C812 1.386 . S
C816 C811 1.490 . S
C816 C818 1.395 . S
C816 C819 1.403 . S
H817 C823 0.930 . S
C818 H804 0.930 . S
C818 C816 1.395 . S
C818 C821 1.403 . S
C819 C816 1.403 . S
C819 C820 1.524 . S
C819 C823 1.400 . S
C820 H805 0.960 . S
C820 H806 0.960 1_545 S
C820 H807 0.960 . S
C820 C819 1.524 . S
C821 C818 1.403 . S
C821 C822 1.392 . S
C821 C825 1.495 . S
C822 C821 1.392 . S
C822 C823 1.385 . S
C822 C824 1.478 . S
C823 H817 0.930 . S
C823 C819 1.400 . S
C823 C822 1.385 . S
C824 C822 1.478 . S
C824 C826 1.381 1_545 S
C824 C830 1.383 . S
C825 C821 1.495 . S
C825 H831 0.959 . S
C825 H832 0.961 . S
C825 H833 0.960 . S
C826 C824 1.381 1_565 S
C826 C827 1.394 . S
C826 H834 0.930 . S
C827 C826 1.394 . S
C827 C828 1.383 1_565 S
C827 H835 0.929 . S
C828 C827 1.383 1_545 S
C828 C829 1.377 . S
C829 H813 0.930 . S
C829 C828 1.377 . S
C829 C830 1.379 . S
C830 H814 0.931 . S
C830 C824 1.383 . S
C830 C829 1.379 . S
H831 C825 0.959 . S
H832 C825 0.961 . S
H833 C825 0.960 . S
H834 C826 0.930 . S
H835 C827 0.929 . S
H836 C844 0.929 . S
H837 C846 0.930 . S
H838 C848 0.930 . S
H839 C851 0.929 . S
H840 C854 0.930 . S
H841 C856 0.960 . S
H842 C856 0.960 . S
H843 C856 0.960 . S
C844 H836 0.929 . S
C844 C845 1.377 . S
C844 C846 1.384 . S
C845 C844 1.377 . S
C845 C851 1.390 . S
C846 H837 0.930 . S
C846 C844 1.384 . S
C846 C847 1.372 . S
C847 C846 1.372 . S
C847 C848 1.400 . S
C847 C852 1.490 . S
C848 H838 0.930 . S
C848 C847 1.400 . S
C848 C851 1.386 . S
H849 C865 0.930 . S
H850 C866 0.931 . S
C851 H839 0.929 . S
C851 C845 1.390 . S
C851 C848 1.386 . S
C852 C847 1.490 . S
C852 C854 1.395 . S
C852 C855 1.403 . S
H853 C859 0.930 . S
C854 H840 0.930 . S
C854 C852 1.395 . S
C854 C857 1.403 . S
C855 C852 1.403 . S
C855 C856 1.524 . S
C855 C859 1.400 . S
C856 H841 0.960 . S
C856 H842 0.960 . S
C856 H843 0.960 . S
C856 C855 1.524 . S
C857 C854 1.403 . S
C857 C858 1.392 . S
C857 C861 1.495 . S
C858 C857 1.392 . S
C858 C859 1.385 . S
C858 C860 1.478 . S
C859 H853 0.930 . S
C859 C855 1.400 . S
C859 C858 1.385 . S
C860 C858 1.478 . S
C860 C862 1.381 . S
C860 C866 1.383 . S
C861 C857 1.495 . S
C861 H867 0.959 . S
C861 H868 0.961 . S
C861 H869 0.960 . S
C862 C860 1.381 . S
C862 C863 1.394 . S
C862 H870 0.930 . S
C863 C862 1.394 . S
C863 C864 1.383 . S
C863 H871 0.929 . S
C864 C863 1.383 . S
C864 C865 1.377 . S
C865 H849 0.930 . S
C865 C864 1.377 . S
C865 C866 1.379 . S
C866 H850 0.931 . S
C866 C860 1.383 . S
C866 C865 1.379 . S
H867 C861 0.959 . S
H868 C861 0.961 . S
H869 C861 0.960 . S
H870 C862 0.930 . S
H871 C863 0.929 . S
H872 C880 0.929 . S
H873 C882 0.930 . S
H874 C884 0.930 . S
H875 C887 0.929 . S
H876 C890 0.930 . S
H877 C892 0.960 . S
H878 C892 0.960 . S
H879 C892 0.960 . S
C880 H872 0.929 . S
C880 C881 1.377 . S
C880 C882 1.384 . S
C881 C880 1.377 . S
C881 C887 1.390 . S
C882 H873 0.930 . S
C882 C880 1.384 . S
C882 C883 1.372 . S
C883 C882 1.372 . S
C883 C884 1.400 . S
C883 C888 1.490 . S
C884 H874 0.930 . S
C884 C883 1.400 . S
C884 C887 1.386 . S
H885 C901 0.930 . S
H886 C902 0.931 . S
C887 H875 0.929 . S
C887 C881 1.390 . S
C887 C884 1.386 . S
C888 C883 1.490 . S
C888 C890 1.395 . S
C888 C891 1.403 . S
H889 C895 0.930 . S
C890 H876 0.930 . S
C890 C888 1.395 . S
C890 C893 1.403 . S
C891 C888 1.403 . S
C891 C892 1.524 . S
C891 C895 1.400 . S
C892 H877 0.960 . S
C892 H878 0.960 . S
C892 H879 0.960 . S
C892 C891 1.524 . S
C893 C890 1.403 . S
C893 C894 1.392 . S
C893 C897 1.495 . S
C894 C893 1.392 . S
C894 C895 1.385 . S
C894 C896 1.478 . S
C895 H889 0.930 . S
C895 C891 1.400 . S
C895 C894 1.385 . S
C896 C894 1.478 . S
C896 C898 1.381 . S
C896 C902 1.383 . S
C897 C893 1.495 . S
C897 H903 0.959 . S
C897 H904 0.961 . S
C897 H905 0.960 . S
C898 C896 1.381 . S
C898 C899 1.394 . S
C898 H906 0.930 . S
C899 C898 1.394 . S
C899 C900 1.383 . S
C899 H907 0.929 . S
C900 C899 1.383 . S
C900 C901 1.377 . S
C901 H885 0.930 . S
C901 C900 1.377 . S
C901 C902 1.379 . S
C902 H886 0.931 . S
C902 C896 1.383 . S
C902 C901 1.379 . S
H903 C897 0.959 . S
H904 C897 0.961 . S
H905 C897 0.960 . S
H906 C898 0.930 . S
H907 C899 0.929 . S
H908 C916 0.929 . S
H909 C918 0.930 . S
H910 C920 0.930 . S
H911 C923 0.929 . S
H912 C926 0.930 . S
H913 C928 0.960 . S
H914 C928 0.960 1_655 S
H915 C928 0.960 . S
C916 H908 0.929 . S
C916 C917 1.377 1_655 S
C916 C918 1.384 . S
C917 C916 1.377 1_455 S
C917 C923 1.390 . S
C918 H909 0.930 . S
C918 C916 1.384 . S
C918 C919 1.372 1_655 S
C919 C918 1.372 1_455 S
C919 C920 1.400 . S
C919 C924 1.490 . S
C920 H910 0.930 . S
C920 C919 1.400 . S
C920 C923 1.386 . S
H921 C937 0.930 . S
H922 C938 0.931 . S
C923 H911 0.929 . S
C923 C917 1.390 . S
C923 C920 1.386 . S
C924 C919 1.490 . S
C924 C926 1.395 . S
C924 C927 1.403 . S
H925 C931 0.930 . S
C926 H912 0.930 . S
C926 C924 1.395 . S
C926 C929 1.403 . S
C927 C924 1.403 . S
C927 C928 1.524 . S
C927 C931 1.400 . S
C928 H913 0.960 . S
C928 H914 0.960 1_455 S
C928 H915 0.960 . S
C928 C927 1.524 . S
C929 C926 1.403 . S
C929 C930 1.392 . S
C929 C933 1.495 . S
C930 C929 1.392 . S
C930 C931 1.385 . S
C930 C932 1.478 . S
C931 H925 0.930 . S
C931 C927 1.400 . S
C931 C930 1.385 . S
C932 C930 1.478 . S
C932 C934 1.381 1_455 S
C932 C938 1.383 . S
C933 C929 1.495 . S
C933 H939 0.959 . S
C933 H940 0.961 . S
C933 H941 0.960 1_455 S
C934 C932 1.381 1_655 S
C934 C935 1.394 . S
C934 H942 0.930 . S
C935 C934 1.394 . S
C935 C936 1.383 1_655 S
C935 H943 0.929 . S
C936 C935 1.383 1_455 S
C936 C937 1.377 . S
C937 H921 0.930 . S
C937 C936 1.377 . S
C937 C938 1.379 . S
C938 H922 0.931 . S
C938 C932 1.383 . S
C938 C937 1.379 . S
H939 C933 0.959 . S
H940 C933 0.961 . S
H941 C933 0.960 1_655 S
H942 C934 0.930 . S
H943 C935 0.929 . S
H944 C952 0.929 . S
H945 C954 0.930 . S
H946 C956 0.927 1_565 S
H947 C959 0.929 1_565 S
H948 C962 0.930 . S
H949 C964 0.960 . S
H950 C964 0.960 . S
H951 C964 0.960 . S
C952 H944 0.929 . S
C952 C953 1.377 . S
C952 C954 1.384 . S
C953 C952 1.377 . S
C953 C959 1.390 . S
C954 H945 0.930 . S
C954 C952 1.384 . S
C954 C955 1.372 . S
C955 C954 1.372 . S
C955 C956 1.400 . S
C955 C960 1.490 . S
C956 H946 0.927 1_545 S
C956 C955 1.400 . S
C956 C959 1.386 . S
H957 C973 0.930 . S
H958 C974 0.931 . S
C959 H947 0.929 1_545 S
C959 C953 1.390 . S
C959 C956 1.386 . S
C960 C955 1.490 . S
C960 C962 1.395 . S
C960 C963 1.403 1_545 S
H961 C967 0.930 . S
C962 H948 0.930 . S
C962 C960 1.395 . S
C962 C965 1.403 . S
C963 C960 1.403 1_565 S
C963 C964 1.524 . S
C963 C967 1.400 . S
C964 H949 0.960 . S
C964 H950 0.960 . S
C964 H951 0.960 . S
C964 C963 1.524 . S
C965 C962 1.403 . S
C965 C966 1.392 . S
C965 C969 1.495 . S
C966 C965 1.392 . S
C966 C967 1.385 1_545 S
C966 C968 1.478 . S
C967 H961 0.930 . S
C967 C963 1.400 . S
C967 C966 1.385 1_565 S
C968 C966 1.478 . S
C968 C970 1.381 . S
C968 C974 1.383 . S
C969 C965 1.495 . S
C969 H975 0.959 . S
C969 H976 0.961 . S
C969 H977 0.960 . S
C970 C968 1.381 . S
C970 C971 1.394 . S
C970 H978 0.930 . S
C971 C970 1.394 . S
C971 C972 1.383 . S
C971 H979 0.929 . S
C972 C971 1.383 . S
C972 C973 1.377 . S
C973 H957 0.930 . S
C973 C972 1.377 . S
C973 C974 1.379 . S
C974 H958 0.931 . S
C974 C968 1.383 . S
C974 C973 1.379 . S
H975 C969 0.959 . S
H976 C969 0.961 . S
H977 C969 0.960 . S
H978 C970 0.930 . S
H979 C971 0.929 . S
H980 C988 0.929 . S
H981 C990 0.930 . S
H982 C992 0.930 . S
H983 C995 0.929 . S
H984 C998 0.930 . S
H985 C1000 0.960 . S
H986 C1000 0.960 . S
H987 C1000 0.960 . S
C988 H980 0.929 . S
C988 C989 1.377 . S
C988 C990 1.384 . S
C989 C988 1.377 . S
C989 C995 1.390 . S
C990 H981 0.930 . S
C990 C988 1.384 . S
C990 C991 1.372 . S
C991 C990 1.372 . S
C991 C992 1.400 . S
C991 C996 1.490 . S
C992 H982 0.930 . S
C992 C991 1.400 . S
C992 C995 1.386 . S
H993 C1009 0.930 . S
H994 C1010 0.931 . S
C995 H983 0.929 . S
C995 C989 1.390 . S
C995 C992 1.386 . S
C996 C991 1.490 . S
C996 C998 1.395 . S
C996 C999 1.403 . S
H997 C1003 0.930 . S
C998 H984 0.930 . S
C998 C996 1.395 . S
C998 C1001 1.403 . S
C999 C996 1.403 . S
C999 C1000 1.524 . S
C999 C1003 1.400 . S
C1000 H985 0.960 . S
C1000 H986 0.960 . S
C1000 H987 0.960 . S
C1000 C999 1.524 . S
C1001 C998 1.403 . S
C1001 C1002 1.392 . S
C1001 C1005 1.495 . S
C1002 C1001 1.392 . S
C1002 C1003 1.385 . S
C1002 C1004 1.478 . S
C1003 H997 0.930 . S
C1003 C999 1.400 . S
C1003 C1002 1.385 . S
C1004 C1002 1.478 . S
C1004 C1006 1.381 . S
C1004 C1010 1.383 . S
C1005 C1001 1.495 . S
C1005 H1011 0.959 . S
C1005 H1012 0.961 . S
C1005 H1013 0.960 . S
C1006 C1004 1.381 . S
C1006 C1007 1.394 . S
C1006 H1014 0.930 . S
C1007 C1006 1.394 . S
C1007 C1008 1.383 . S
C1007 H1015 0.929 . S
C1008 C1007 1.383 . S
C1008 C1009 1.377 . S
C1009 H993 0.930 . S
C1009 C1008 1.377 . S
C1009 C1010 1.379 . S
C1010 H994 0.931 . S
C1010 C1004 1.383 . S
C1010 C1009 1.379 . S
H1011 C1005 0.959 . S
H1012 C1005 0.961 . S
H1013 C1005 0.960 . S
H1014 C1006 0.930 . S
H1015 C1007 0.929 . S
H1016 C1024 0.929 . S
H1017 C1026 0.930 . S
H1018 C1028 0.930 . S
H1019 C1031 0.929 . S
H1020 C1034 0.930 . S
H1021 C1036 0.960 . S
H1022 C1036 0.960 . S
H1023 C1036 0.960 . S
C1024 H1016 0.929 . S
C1024 C1025 1.377 . S
C1024 C1026 1.384 . S
C1025 C1024 1.377 . S
C1025 C1031 1.390 . S
C1026 H1017 0.930 . S
C1026 C1024 1.384 . S
C1026 C1027 1.372 . S
C1027 C1026 1.372 . S
C1027 C1028 1.400 . S
C1027 C1032 1.490 . S
C1028 H1018 0.930 . S
C1028 C1027 1.400 . S
C1028 C1031 1.386 . S
H1029 C1045 0.930 . S
H1030 C1046 0.931 . S
C1031 H1019 0.929 . S
C1031 C1025 1.390 . S
C1031 C1028 1.386 . S
C1032 C1027 1.490 . S
C1032 C1034 1.395 . S
C1032 C1035 1.403 . S
H1033 C1039 0.930 . S
C1034 H1020 0.930 . S
C1034 C1032 1.395 . S
C1034 C1037 1.403 . S
C1035 C1032 1.403 . S
C1035 C1036 1.524 . S
C1035 C1039 1.400 . S
C1036 H1021 0.960 . S
C1036 H1022 0.960 . S
C1036 H1023 0.960 . S
C1036 C1035 1.524 . S
C1037 C1034 1.403 . S
C1037 C1038 1.392 . S
C1037 C1041 1.495 . S
C1038 C1037 1.392 . S
C1038 C1039 1.385 . S
C1038 C1040 1.478 . S
C1039 H1033 0.930 . S
C1039 C1035 1.400 . S
C1039 C1038 1.385 . S
C1040 C1038 1.478 . S
C1040 C1042 1.381 . S
C1040 C1046 1.383 . S
C1041 C1037 1.495 . S
C1041 H1047 0.959 . S
C1041 H1048 0.961 . S
C1041 H1049 0.960 . S
C1042 C1040 1.381 . S
C1042 C1043 1.394 . S
C1042 H1050 0.930 . S
C1043 C1042 1.394 . S
C1043 C1044 1.383 . S
C1043 H1051 0.929 . S
C1044 C1043 1.383 . S
C1044 C1045 1.377 . S
C1045 H1029 0.930 . S
C1045 C1044 1.377 . S
C1045 C1046 1.379 . S
C1046 H1030 0.931 . S
C1046 C1040 1.383 . S
C1046 C1045 1.379 . S
H1047 C1041 0.959 . S
H1048 C1041 0.961 . S
H1049 C1041 0.960 . S
H1050 C1042 0.930 . S
H1051 C1043 0.929 . S
H1052 C1060 0.929 . S
H1053 C1062 0.930 . S
H1054 C1064 0.930 . S
H1055 C1067 0.929 . S
H1056 C1070 0.930 . S
H1057 C1072 0.960 . S
H1058 C1072 0.960 1_455 S
H1059 C1072 0.960 . S
C1060 H1052 0.929 . S
C1060 C1061 1.377 . S
C1060 C1062 1.384 . S
C1061 C1060 1.377 . S
C1061 C1067 1.390 1_455 S
C1062 H1053 0.930 . S
C1062 C1060 1.384 . S
C1062 C1063 1.372 . S
C1063 C1062 1.372 . S
C1063 C1064 1.400 1_455 S
C1063 C1068 1.490 . S
C1064 H1054 0.930 . S
C1064 C1063 1.400 1_655 S
C1064 C1067 1.386 . S
H1065 C1081 0.930 . S
H1066 C1082 0.931 . S
C1067 H1055 0.929 . S
C1067 C1061 1.390 1_655 S
C1067 C1064 1.386 . S
C1068 C1063 1.490 . S
C1068 C1070 1.395 . S
C1068 C1071 1.403 . S
H1069 C1075 0.930 1_655 S
C1070 H1056 0.930 . S
C1070 C1068 1.395 . S
C1070 C1073 1.403 . S
C1071 C1068 1.403 . S
C1071 C1072 1.524 1_455 S
C1071 C1075 1.400 . S
C1072 H1057 0.960 . S
C1072 H1058 0.960 1_655 S
C1072 H1059 0.960 . S
C1072 C1071 1.524 1_655 S
C1073 C1070 1.403 . S
C1073 C1074 1.392 . S
C1073 C1077 1.495 . S
C1074 C1073 1.392 . S
C1074 C1075 1.385 . S
C1074 C1076 1.478 . S
C1075 H1069 0.930 1_455 S
C1075 C1071 1.400 . S
C1075 C1074 1.385 . S
C1076 C1074 1.478 . S
C1076 C1078 1.381 . S
C1076 C1082 1.383 1_455 S
C1077 C1073 1.495 . S
C1077 H1083 0.959 . S
C1077 H1084 0.961 . S
C1077 H1085 0.960 . S
C1078 C1076 1.381 . S
C1078 C1079 1.394 . S
C1078 H1086 0.930 . S
C1079 C1078 1.394 . S
C1079 C1080 1.383 . S
C1079 H1087 0.929 . S
C1080 C1079 1.383 . S
C1080 C1081 1.377 1_455 S
C1081 H1065 0.930 . S
C1081 C1080 1.377 1_655 S
C1081 C1082 1.379 . S
C1082 H1066 0.931 . S
C1082 C1076 1.383 1_655 S
C1082 C1081 1.379 . S
H1083 C1077 0.959 . S
H1084 C1077 0.961 . S
H1085 C1077 0.960 . S
H1086 C1078 0.930 . S
H1087 C1079 0.929 . S
H1088 C1096 0.929 . S
H1089 C1098 0.930 . S
H1090 C1100 0.930 . S
H1091 C1103 0.929 . S
H1092 C1106 0.930 . S
H1093 C1108 0.960 . S
H1094 C1108 0.960 . S
H1095 C1108 0.960 . S
C1096 H1088 0.929 . S
C1096 C1097 1.377 . S
C1096 C1098 1.384 . S
C1097 C1096 1.377 . S
C1097 C1103 1.390 . S
C1098 H1089 0.930 . S
C1098 C1096 1.384 . S
C1098 C1099 1.372 . S
C1099 C1098 1.372 . S
C1099 C1100 1.400 . S
C1099 C1104 1.490 . S
C1100 H1090 0.930 . S
C1100 C1099 1.400 . S
C1100 C1103 1.386 . S
H1101 C1117 0.930 . S
H1102 C1118 0.931 . S
C1103 H1091 0.929 . S
C1103 C1097 1.390 . S
C1103 C1100 1.386 . S
C1104 C1099 1.490 . S
C1104 C1106 1.395 1_565 S
C1104 C1107 1.403 . S
H1105 C1111 0.930 . S
C1106 H1092 0.930 . S
C1106 C1104 1.395 1_545 S
C1106 C1109 1.403 . S
C1107 C1104 1.403 . S
C1107 C1108 1.524 . S
C1107 C1111 1.400 . S
C1108 H1093 0.960 . S
C1108 H1094 0.960 . S
C1108 H1095 0.960 . S
C1108 C1107 1.524 . S
C1109 C1106 1.403 . S
C1109 C1110 1.392 1_545 S
C1109 C1113 1.495 . S
C1110 C1109 1.392 1_565 S
C1110 C1111 1.385 . S
C1110 C1112 1.478 . S
C1111 H1105 0.930 . S
C1111 C1107 1.400 . S
C1111 C1110 1.385 . S
C1112 C1110 1.478 . S
C1112 C1114 1.381 . S
C1112 C1118 1.383 . S
C1113 C1109 1.495 . S
C1113 H1119 0.959 . S
C1113 H1120 0.961 . S
C1113 H1121 0.960 . S
C1114 C1112 1.381 . S
C1114 C1115 1.394 . S
C1114 H1122 0.930 . S
C1115 C1114 1.394 . S
C1115 C1116 1.383 . S
C1115 H1123 0.929 . S
C1116 C1115 1.383 . S
C1116 C1117 1.377 . S
C1117 H1101 0.930 . S
C1117 C1116 1.377 . S
C1117 C1118 1.379 . S
C1118 H1102 0.931 . S
C1118 C1112 1.383 . S
C1118 C1117 1.379 . S
H1119 C1113 0.959 . S
H1120 C1113 0.961 . S
H1121 C1113 0.960 . S
H1122 C1114 0.930 . S
H1123 C1115 0.929 . S
H1124 C1132 0.929 . S
H1125 C1134 0.930 . S
H1126 C1136 0.930 . S
H1127 C1139 0.929 . S
H1128 C1142 0.930 . S
H1129 C1144 0.960 . S
H1130 C1144 0.960 . S
H1131 C1144 0.960 . S
C1132 H1124 0.929 . S
C1132 C1133 1.377 . S
C1132 C1134 1.384 . S
C1133 C1132 1.377 . S
C1133 C1139 1.390 . S
C1134 H1125 0.930 . S
C1134 C1132 1.384 . S
C1134 C1135 1.372 . S
C1135 C1134 1.372 . S
C1135 C1136 1.400 . S
C1135 C1140 1.490 . S
C1136 H1126 0.930 . S
C1136 C1135 1.400 . S
C1136 C1139 1.386 . S
H1137 C1153 0.930 . S
H1138 C1154 0.931 . S
C1139 H1127 0.929 . S
C1139 C1133 1.390 . S
C1139 C1136 1.386 . S
C1140 C1135 1.490 . S
C1140 C1142 1.395 . S
C1140 C1143 1.403 . S
H1141 C1147 0.930 . S
C1142 H1128 0.930 . S
C1142 C1140 1.395 . S
C1142 C1145 1.403 . S
C1143 C1140 1.403 . S
C1143 C1144 1.524 . S
C1143 C1147 1.400 . S
C1144 H1129 0.960 . S
C1144 H1130 0.960 . S
C1144 H1131 0.960 . S
C1144 C1143 1.524 . S
C1145 C1142 1.403 . S
C1145 C1146 1.392 . S
C1145 C1149 1.495 . S
C1146 C1145 1.392 . S
C1146 C1147 1.385 . S
C1146 C1148 1.478 . S
C1147 H1141 0.930 . S
C1147 C1143 1.400 . S
C1147 C1146 1.385 . S
C1148 C1146 1.478 . S
C1148 C1150 1.381 . S
C1148 C1154 1.383 . S
C1149 C1145 1.495 . S
C1149 H1155 0.959 . S
C1149 H1156 0.961 . S
C1149 H1157 0.960 . S
C1150 C1148 1.381 . S
C1150 C1151 1.394 . S
C1150 H1158 0.930 . S
C1151 C1150 1.394 . S
C1151 C1152 1.383 . S
C1151 H1159 0.929 . S
C1152 C1151 1.383 . S
C1152 C1153 1.377 . S
C1153 H1137 0.930 . S
C1153 C1152 1.377 . S
C1153 C1154 1.379 . S
C1154 H1138 0.931 . S
C1154 C1148 1.383 . S
C1154 C1153 1.379 . S
H1155 C1149 0.959 . S
H1156 C1149 0.961 . S
H1157 C1149 0.960 . S
H1158 C1150 0.930 . S
H1159 C1151 0.929 . S
H1160 C1168 0.929 . S
H1161 C1170 0.930 . S
H1162 C1172 0.930 . S
H1163 C1175 0.929 . S
H1164 C1178 0.930 . S
H1165 C1180 0.960 . S
H1166 C1180 0.960 . S
H1167 C1180 0.960 . S
C1168 H1160 0.929 . S
C1168 C1169 1.377 . S
C1168 C1170 1.384 . S
C1169 C1168 1.377 . S
C1169 C1175 1.390 . S
C1170 H1161 0.930 . S
C1170 C1168 1.384 . S
C1170 C1171 1.372 . S
C1171 C1170 1.372 . S
C1171 C1172 1.400 . S
C1171 C1176 1.490 . S
C1172 H1162 0.930 . S
C1172 C1171 1.400 . S
C1172 C1175 1.386 . S
H1173 C1189 0.930 . S
H1174 C1190 0.931 . S
C1175 H1163 0.929 . S
C1175 C1169 1.390 . S
C1175 C1172 1.386 . S
C1176 C1171 1.490 . S
C1176 C1178 1.395 . S
C1176 C1179 1.403 . S
H1177 C1183 0.930 . S
C1178 H1164 0.930 . S
C1178 C1176 1.395 . S
C1178 C1181 1.403 . S
C1179 C1176 1.403 . S
C1179 C1180 1.524 . S
C1179 C1183 1.400 . S
C1180 H1165 0.960 . S
C1180 H1166 0.960 . S
C1180 H1167 0.960 . S
C1180 C1179 1.524 . S
C1181 C1178 1.403 . S
C1181 C1182 1.392 . S
C1181 C1185 1.495 . S
C1182 C1181 1.392 . S
C1182 C1183 1.385 . S
C1182 C1184 1.478 . S
C1183 H1177 0.930 . S
C1183 C1179 1.400 . S
C1183 C1182 1.385 . S
C1184 C1182 1.478 . S
C1184 C1186 1.381 . S
C1184 C1190 1.383 . S
C1185 C1181 1.495 . S
C1185 H1191 0.959 . S
C1185 H1192 0.961 . S
C1185 H1193 0.960 . S
C1186 C1184 1.381 . S
C1186 C1187 1.394 . S
C1186 H1194 0.930 . S
C1187 C1186 1.394 . S
C1187 C1188 1.383 . S
C1187 H1195 0.929 . S
C1188 C1187 1.383 . S
C1188 C1189 1.377 . S
C1189 H1173 0.930 . S
C1189 C1188 1.377 . S
C1189 C1190 1.379 . S
C1190 H1174 0.931 . S
C1190 C1184 1.383 . S
C1190 C1189 1.379 . S
H1191 C1185 0.959 . S
H1192 C1185 0.961 . S
H1193 C1185 0.960 . S
H1194 C1186 0.930 . S
H1195 C1187 0.929 . S
H1196 C1204 0.929 . S
H1197 C1206 0.930 . S
H1198 C1208 0.930 . S
H1199 C1211 0.929 . S
H1200 C1214 0.930 . S
H1201 C1216 0.960 . S
H1202 C1216 0.960 . S
H1203 C1216 0.960 . S
C1204 H1196 0.929 . S
C1204 C1205 1.377 . S
C1204 C1206 1.384 . S
C1205 C1204 1.377 . S
C1205 C1211 1.390 . S
C1206 H1197 0.930 . S
C1206 C1204 1.384 . S
C1206 C1207 1.372 . S
C1207 C1206 1.372 . S
C1207 C1208 1.400 . S
C1207 C1212 1.490 . S
C1208 H1198 0.930 . S
C1208 C1207 1.400 . S
C1208 C1211 1.386 . S
H1209 C1225 0.930 . S
H1210 C1226 0.931 . S
C1211 H1199 0.929 . S
C1211 C1205 1.390 . S
C1211 C1208 1.386 . S
C1212 C1207 1.490 . S
C1212 C1214 1.395 . S
C1212 C1215 1.403 1_655 S
H1213 C1219 0.930 . S
C1214 H1200 0.930 . S
C1214 C1212 1.395 . S
C1214 C1217 1.403 . S
C1215 C1212 1.403 1_455 S
C1215 C1216 1.524 . S
C1215 C1219 1.400 . S
C1216 H1201 0.960 . S
C1216 H1202 0.960 . S
C1216 H1203 0.960 . S
C1216 C1215 1.524 . S
C1217 C1214 1.403 . S
C1217 C1218 1.392 . S
C1217 C1221 1.495 . S
C1218 C1217 1.392 . S
C1218 C1219 1.385 1_655 S
C1218 C1220 1.478 . S
C1219 H1213 0.930 . S
C1219 C1215 1.400 . S
C1219 C1218 1.385 1_455 S
C1220 C1218 1.478 . S
C1220 C1222 1.381 . S
C1220 C1226 1.383 . S
C1221 C1217 1.495 . S
C1221 H1227 0.959 . S
C1221 H1228 0.961 . S
C1221 H1229 0.960 . S
C1222 C1220 1.381 . S
C1222 C1223 1.394 . S
C1222 H1230 0.930 . S
C1223 C1222 1.394 . S
C1223 C1224 1.383 . S
C1223 H1231 0.929 . S
C1224 C1223 1.383 . S
C1224 C1225 1.377 . S
C1225 H1209 0.930 . S
C1225 C1224 1.377 . S
C1225 C1226 1.379 . S
C1226 H1210 0.931 . S
C1226 C1220 1.383 . S
C1226 C1225 1.379 . S
H1227 C1221 0.959 . S
H1228 C1221 0.961 . S
H1229 C1221 0.960 . S
H1230 C1222 0.930 . S
H1231 C1223 0.929 . S
H1232 C1240 0.928 1_565 S
H1233 C1242 0.930 . S
H1234 C1244 0.930 . S
H1235 C1247 0.929 . S
H1236 C1250 0.930 . S
H1237 C1252 0.960 . S
H1238 C1252 0.959 1_554 S
H1239 C1252 0.960 . S
C1240 H1232 0.928 1_545 S
C1240 C1241 1.377 1_554 S
C1240 C1242 1.384 1_545 S
C1241 C1240 1.377 1_556 S
C1241 C1247 1.390 . S
C1242 H1233 0.930 . S
C1242 C1240 1.384 1_565 S
C1242 C1243 1.372 1_564 S
C1243 C1242 1.372 1_546 S
C1243 C1244 1.400 . S
C1243 C1248 1.491 1_556 S
C1244 H1234 0.930 . S
C1244 C1243 1.400 . S
C1244 C1247 1.386 . S
H1245 C1261 0.930 . S
H1246 C1262 0.931 . S
C1247 H1235 0.929 . S
C1247 C1241 1.390 . S
C1247 C1244 1.386 . S
C1248 C1243 1.491 1_554 S
C1248 C1250 1.372 1_545 S
C1248 C1251 1.425 1_554 S
H1249 C1255 0.930 . S
C1250 H1236 0.930 . S
C1250 C1248 1.372 1_565 S
C1250 C1253 1.403 . S
C1251 C1248 1.425 1_556 S
C1251 C1252 1.524 . S
C1251 C1255 1.400 . S
C1252 H1237 0.960 . S
C1252 H1238 0.959 1_556 S
C1252 H1239 0.960 . S
C1252 C1251 1.524 . S
C1253 C1250 1.403 . S
C1253 C1254 1.392 . S
C1253 C1257 1.495 . S
C1254 C1253 1.392 . S
C1254 C1255 1.385 1_564 S
C1254 C1256 1.478 . S
C1255 H1249 0.930 . S
C1255 C1251 1.400 . S
C1255 C1254 1.385 1_546 S
C1256 C1254 1.478 . S
C1256 C1258 1.381 . S
C1256 C1262 1.383 1_554 S
C1257 C1253 1.495 . S
C1257 H1263 0.959 . S
C1257 H1264 0.961 . S
C1257 H1265 0.960 . S
C1258 C1256 1.381 . S
C1258 C1259 1.394 . S
C1258 H1266 0.930 . S
C1259 C1258 1.394 . S
C1259 C1260 1.383 . S
C1259 H1267 0.929 . S
C1260 C1259 1.383 . S
C1260 C1261 1.377 1_554 S
C1261 H1245 0.930 . S
C1261 C1260 1.377 1_556 S
C1261 C1262 1.379 . S
C1262 H1246 0.931 . S
C1262 C1256 1.383 1_556 S
C1262 C1261 1.379 . S
H1263 C1257 0.959 . S
H1264 C1257 0.961 . S
H1265 C1257 0.960 . S
H1266 C1258 0.930 . S
H1267 C1259 0.929 . S
H1268 C1276 0.929 . S
H1269 C1278 0.930 . S
H1270 C1280 0.930 . S
H1271 C1283 0.929 . S
H1272 C1286 0.930 . S
H1273 C1288 0.960 . S
H1274 C1288 0.960 1_556 S
H1275 C1288 0.960 . S
C1276 H1268 0.929 . S
C1276 C1277 1.377 . S
C1276 C1278 1.384 . S
C1277 C1276 1.377 . S
C1277 C1283 1.390 1_556 S
C1278 H1269 0.930 . S
C1278 C1276 1.384 . S
C1278 C1279 1.372 . S
C1279 C1278 1.372 . S
C1279 C1280 1.400 1_556 S
C1279 C1284 1.490 . S
C1280 H1270 0.930 . S
C1280 C1279 1.400 1_554 S
C1280 C1283 1.386 . S
H1281 C1297 0.930 . S
H1282 C1298 0.931 . S
C1283 H1271 0.929 . S
C1283 C1277 1.390 1_554 S
C1283 C1280 1.386 . S
C1284 C1279 1.490 . S
C1284 C1286 1.395 . S
C1284 C1287 1.403 1_556 S
H1285 C1291 0.930 . S
C1286 H1272 0.930 . S
C1286 C1284 1.395 . S
C1286 C1289 1.403 . S
C1287 C1284 1.403 1_554 S
C1287 C1288 1.524 . S
C1287 C1291 1.400 . S
C1288 H1273 0.960 . S
C1288 H1274 0.960 1_554 S
C1288 H1275 0.960 . S
C1288 C1287 1.524 . S
C1289 C1286 1.403 . S
C1289 C1290 1.387 1_556 S
C1289 C1293 1.495 . S
C1290 C1289 1.387 1_554 S
C1290 C1291 1.388 . S
C1290 C1292 1.481 . S
C1291 H1285 0.930 . S
C1291 C1287 1.400 . S
C1291 C1290 1.388 . S
C1292 C1290 1.481 . S
C1292 C1294 1.381 1_554 S
C1292 C1298 1.383 . S
C1293 C1289 1.495 . S
C1293 H1299 0.959 . S
C1293 H1300 0.961 1_556 S
C1293 H1301 0.960 . S
C1294 C1292 1.381 1_556 S
C1294 C1295 1.394 . S
C1294 H1302 0.930 . S
C1295 C1294 1.394 . S
C1295 C1296 1.383 1_556 S
C1295 H1303 0.929 . S
C1296 C1295 1.383 1_554 S
C1296 C1297 1.377 . S
C1297 H1281 0.930 . S
C1297 C1296 1.377 . S
C1297 C1298 1.379 . S
C1298 H1282 0.931 . S
C1298 C1292 1.383 . S
C1298 C1297 1.379 . S
H1299 C1293 0.959 . S
H1300 C1293 0.961 1_554 S
H1301 C1293 0.960 . S
H1302 C1294 0.930 . S
H1303 C1295 0.929 . S
H1304 C1312 0.929 . S
H1305 C1314 0.930 . S
H1306 C1316 0.930 . S
H1307 C1319 0.929 . S
H1308 C1322 0.930 . S
H1309 C1324 0.960 . S
H1310 C1324 0.960 1_654 S
H1311 C1324 0.960 1_655 S
C1312 H1304 0.929 . S
C1312 C1313 1.377 . S
C1312 C1314 1.384 . S
C1313 C1312 1.377 . S
C1313 C1319 1.390 1_554 S
C1314 H1305 0.930 . S
C1314 C1312 1.384 . S
C1314 C1315 1.372 . S
C1315 C1314 1.372 . S
C1315 C1316 1.400 1_554 S
C1315 C1320 1.490 . S
C1316 H1306 0.930 . S
C1316 C1315 1.400 1_556 S
C1316 C1319 1.386 . S
H1317 C1333 0.930 . S
H1318 C1334 0.931 . S
C1319 H1307 0.929 . S
C1319 C1313 1.390 1_556 S
C1319 C1316 1.386 . S
C1320 C1315 1.490 . S
C1320 C1322 1.395 . S
C1320 C1323 1.403 1_554 S
H1321 C1327 0.930 . S
C1322 H1308 0.930 . S
C1322 C1320 1.395 . S
C1322 C1325 1.403 . S
C1323 C1320 1.403 1_556 S
C1323 C1324 1.524 1_655 S
C1323 C1327 1.400 1_655 S
C1324 H1309 0.960 . S
C1324 H1310 0.960 1_456 S
C1324 H1311 0.960 1_455 S
C1324 C1323 1.524 1_455 S
C1325 C1322 1.403 . S
C1325 C1326 1.393 1_655 S
C1325 C1329 1.495 . S
C1326 C1325 1.393 1_455 S
C1326 C1327 1.385 1_554 S
C1326 C1328 1.477 1_554 S
C1327 H1321 0.930 . S
C1327 C1323 1.400 1_455 S
C1327 C1326 1.385 1_556 S
C1328 C1326 1.477 1_556 S
C1328 C1330 1.381 1_556 S
C1328 C1334 1.383 . S
C1329 C1325 1.495 . S
C1329 H1335 0.959 . S
C1329 H1336 0.961 1_654 S
C1329 H1337 0.960 1_655 S
C1330 C1328 1.381 1_554 S
C1330 C1331 1.394 . S
C1330 H1338 0.930 . S
C1331 C1330 1.394 . S
C1331 C1332 1.383 1_554 S
C1331 H1339 0.929 . S
C1332 C1331 1.383 1_556 S
C1332 C1333 1.377 . S
C1333 H1317 0.930 . S
C1333 C1332 1.377 . S
C1333 C1334 1.379 . S
C1334 H1318 0.931 . S
C1334 C1328 1.383 . S
C1334 C1333 1.379 . S
H1335 C1329 0.959 . S
H1336 C1329 0.961 1_456 S
H1337 C1329 0.960 1_455 S
H1338 C1330 0.930 . S
H1339 C1331 0.929 . S
H1340 C1348 0.929 . S
H1341 C1350 0.930 . S
H1342 C1352 0.930 . S
H1343 C1355 0.929 . S
H1344 C1358 0.930 . S
H1345 C1360 0.960 . S
H1346 C1360 0.970 . S
H1347 C1360 0.960 . S
C1348 H1340 0.929 . S
C1348 C1349 1.377 1_655 S
C1348 C1350 1.384 . S
C1349 C1348 1.377 1_455 S
C1349 C1355 1.390 1_556 S
C1350 H1341 0.930 . S
C1350 C1348 1.384 . S
C1350 C1351 1.372 1_655 S
C1351 C1350 1.372 1_455 S
C1351 C1352 1.400 1_556 S
C1351 C1356 1.489 1_455 S
C1352 H1342 0.930 . S
C1352 C1351 1.400 1_554 S
C1352 C1355 1.386 . S
H1353 C1369 0.930 . S
H1354 C1370 0.931 . S
C1355 H1343 0.929 . S
C1355 C1349 1.390 1_554 S
C1355 C1352 1.386 . S
C1356 C1351 1.489 1_655 S
C1356 C1358 1.399 . S
C1356 C1359 1.399 1_656 S
H1357 C1363 0.930 . S
C1358 H1344 0.930 . S
C1358 C1356 1.399 . S
C1358 C1361 1.403 1_545 S
C1359 C1356 1.399 1_454 S
C1359 C1360 1.524 . S
C1359 C1363 1.400 1_545 S
C1360 H1345 0.960 . S
C1360 H1346 0.970 . S
C1360 H1347 0.960 . S
C1360 C1359 1.524 . S
C1361 C1358 1.403 1_565 S
C1361 C1362 1.392 . S
C1361 C1365 1.495 . S
C1362 C1361 1.392 . S
C1362 C1363 1.385 1_656 S
C1362 C1364 1.478 . S
C1363 H1357 0.930 . S
C1363 C1359 1.400 1_565 S
C1363 C1362 1.385 1_454 S
C1364 C1362 1.478 . S
C1364 C1366 1.381 . S
C1364 C1370 1.383 1_655 S
C1365 C1361 1.495 . S
C1365 H1371 0.959 . S
C1365 H1372 0.961 . S
C1365 H1373 0.960 . S
C1366 C1364 1.381 . S
C1366 C1367 1.394 . S
C1366 H1374 0.930 . S
C1367 C1366 1.394 . S
C1367 C1368 1.383 1_556 S
C1367 H1375 0.929 . S
C1368 C1367 1.383 1_554 S
C1368 C1369 1.377 1_655 S
C1369 H1353 0.930 . S
C1369 C1368 1.377 1_455 S
C1369 C1370 1.379 1_554 S
C1370 H1354 0.931 . S
C1370 C1364 1.383 1_455 S
C1370 C1369 1.379 1_556 S
H1371 C1365 0.959 . S
H1372 C1365 0.961 . S
H1373 C1365 0.960 . S
H1374 C1366 0.930 . S
H1375 C1367 0.929 . S
H1376 C1384 0.929 . S
H1377 C1386 0.930 . S
H1378 C1388 0.930 . S
H1379 C1391 0.929 . S
H1380 C1394 0.930 . S
H1381 C1396 0.960 . S
H1382 C1396 0.960 . S
H1383 C1396 0.960 . S
C1384 H1376 0.929 . S
C1384 C1385 1.377 1_565 S
C1384 C1386 1.384 . S
C1385 C1384 1.377 1_545 S
C1385 C1391 1.390 . S
C1386 H1377 0.930 . S
C1386 C1384 1.384 . S
C1386 C1387 1.372 1_565 S
C1387 C1386 1.372 1_545 S
C1387 C1388 1.400 . S
C1387 C1392 1.494 . S
C1388 H1378 0.930 . S
C1388 C1387 1.400 . S
C1388 C1391 1.386 . S
H1389 C1405 0.930 . S
H1390 C1406 0.931 . S
C1391 H1379 0.929 . S
C1391 C1385 1.390 . S
C1391 C1388 1.386 . S
C1392 C1387 1.494 . S
C1392 C1394 1.427 . S
C1392 C1395 1.369 1_545 S
H1393 C1399 0.930 . S
C1394 H1380 0.930 . S
C1394 C1392 1.427 . S
C1394 C1397 1.403 1_455 S
C1395 C1392 1.369 1_565 S
C1395 C1396 1.524 . S
C1395 C1399 1.400 1_455 S
C1396 H1381 0.960 . S
C1396 H1382 0.960 . S
C1396 H1383 0.960 . S
C1396 C1395 1.524 . S
C1397 C1394 1.403 1_655 S
C1397 C1398 1.424 . S
C1397 C1401 1.495 . S
C1398 C1397 1.424 . S
C1398 C1399 1.356 1_545 S
C1398 C1400 1.475 . S
C1399 H1393 0.930 . S
C1399 C1395 1.400 1_655 S
C1399 C1398 1.356 1_565 S
C1400 C1398 1.475 . S
C1400 C1402 1.381 1_545 S
C1400 C1406 1.383 . S
C1401 C1397 1.495 . S
C1401 H1407 0.959 . S
C1401 H1408 0.961 . S
C1401 H1409 0.960 . S
C1402 C1400 1.381 1_565 S
C1402 C1403 1.394 . S
C1402 H1410 0.930 . S
C1403 C1402 1.394 . S
C1403 C1404 1.383 . S
C1403 H1411 0.929 . S
C1404 C1403 1.383 . S
C1404 C1405 1.377 1_565 S
C1405 H1389 0.930 . S
C1405 C1404 1.377 1_545 S
C1405 C1406 1.379 . S
C1406 H1390 0.931 . S
C1406 C1400 1.383 . S
C1406 C1405 1.379 . S
H1407 C1401 0.959 . S
H1408 C1401 0.961 . S
H1409 C1401 0.960 . S
H1410 C1402 0.930 . S
H1411 C1403 0.929 . S
H1412 C1420 0.929 . S
H1413 C1422 0.930 . S
H1414 C1424 0.930 . S
H1415 C1427 0.929 . S
H1416 C1430 0.938 . S
H1417 C1432 0.960 . S
H1418 C1432 0.960 . S
H1419 C1432 0.960 . S
C1420 H1412 0.929 . S
C1420 C1421 1.377 . S
C1420 C1422 1.384 . S
C1421 C1420 1.377 . S
C1421 C1427 1.390 . S
C1422 H1413 0.930 . S
C1422 C1420 1.384 . S
C1422 C1423 1.372 . S
C1423 C1422 1.372 . S
C1423 C1424 1.400 . S
C1423 C1428 1.490 . S
C1424 H1414 0.930 . S
C1424 C1423 1.400 . S
C1424 C1427 1.386 . S
H1425 C1441 0.930 . S
H1426 C1442 0.931 . S
C1427 H1415 0.929 . S
C1427 C1421 1.390 . S
C1427 C1424 1.386 . S
C1428 C1423 1.490 . S
C1428 C1430 1.439 . S
C1428 C1431 1.403 . S
H1429 C1435 0.930 . S
C1430 H1416 0.938 . S
C1430 C1428 1.439 . S
C1430 C1433 1.354 1_565 S
C1431 C1428 1.403 . S
C1431 C1432 1.524 . S
C1431 C1435 1.400 1_565 S
C1432 H1417 0.960 . S
C1432 H1418 0.960 . S
C1432 H1419 0.960 . S
C1432 C1431 1.524 . S
C1433 C1430 1.354 1_545 S
C1433 C1434 1.392 . S
C1433 C1437 1.495 . S
C1434 C1433 1.392 . S
C1434 C1435 1.385 . S
C1434 C1436 1.478 . S
C1435 H1429 0.930 . S
C1435 C1431 1.400 1_545 S
C1435 C1434 1.385 . S
C1436 C1434 1.478 . S
C1436 C1438 1.381 . S
C1436 C1442 1.383 . S
C1437 C1433 1.495 . S
C1437 H1443 0.959 . S
C1437 H1444 0.961 . S
C1437 H1445 0.960 . S
C1438 C1436 1.381 . S
C1438 C1439 1.394 . S
C1438 H1446 0.930 . S
C1439 C1438 1.394 . S
C1439 C1440 1.383 . S
C1439 H1447 0.929 . S
C1440 C1439 1.383 . S
C1440 C1441 1.377 . S
C1441 H1425 0.930 . S
C1441 C1440 1.377 . S
C1441 C1442 1.379 . S
C1442 H1426 0.931 . S
C1442 C1436 1.383 . S
C1442 C1441 1.379 . S
H1443 C1437 0.959 . S
H1444 C1437 0.961 . S
H1445 C1437 0.960 . S
H1446 C1438 0.930 . S
H1447 C1439 0.929 . S
H1448 C1456 0.929 . S
H1449 C1458 0.930 . S
H1450 C1460 0.930 . S
H1451 C1463 0.929 . S
H1452 C1466 0.930 . S
H1453 C1468 0.960 . S
H1454 C1468 0.960 . S
H1455 C1468 0.960 . S
C1456 H1448 0.929 . S
C1456 C1457 1.377 . S
C1456 C1458 1.384 . S
C1457 C1456 1.377 . S
C1457 C1463 1.390 . S
C1458 H1449 0.930 . S
C1458 C1456 1.384 . S
C1458 C1459 1.372 . S
C1459 C1458 1.372 . S
C1459 C1460 1.400 . S
C1459 C1464 1.490 . S
C1460 H1450 0.930 . S
C1460 C1459 1.400 . S
C1460 C1463 1.386 . S
H1461 C1477 0.930 . S
H1462 C1478 0.931 . S
C1463 H1451 0.929 . S
C1463 C1457 1.390 . S
C1463 C1460 1.386 . S
C1464 C1459 1.490 . S
C1464 C1466 1.395 . S
C1464 C1467 1.403 . S
H1465 C1471 0.930 . S
C1466 H1452 0.930 . S
C1466 C1464 1.395 . S
C1466 C1469 1.403 . S
C1467 C1464 1.403 . S
C1467 C1468 1.524 . S
C1467 C1471 1.400 . S
C1468 H1453 0.960 . S
C1468 H1454 0.960 . S
C1468 H1455 0.960 . S
C1468 C1467 1.524 . S
C1469 C1466 1.403 . S
C1469 C1470 1.392 . S
C1469 C1473 1.495 . S
C1470 C1469 1.392 . S
C1470 C1471 1.385 . S
C1470 C1472 1.478 . S
C1471 H1465 0.930 . S
C1471 C1467 1.400 . S
C1471 C1470 1.385 . S
C1472 C1470 1.478 . S
C1472 C1474 1.381 . S
C1472 C1478 1.383 . S
C1473 C1469 1.495 . S
C1473 H1479 0.959 . S
C1473 H1480 0.961 . S
C1473 H1481 0.960 . S
C1474 C1472 1.381 . S
C1474 C1475 1.394 . S
C1474 H1482 0.930 . S
C1475 C1474 1.394 . S
C1475 C1476 1.383 . S
C1475 H1483 0.929 . S
C1476 C1475 1.383 . S
C1476 C1477 1.377 . S
C1477 H1461 0.930 . S
C1477 C1476 1.377 . S
C1477 C1478 1.379 . S
C1478 H1462 0.931 . S
C1478 C1472 1.383 . S
C1478 C1477 1.379 . S
H1479 C1473 0.959 . S
H1480 C1473 0.961 . S
H1481 C1473 0.960 . S
H1482 C1474 0.930 . S
H1483 C1475 0.929 . S
H1484 C1492 0.932 . S
H1485 C1494 0.930 . S
H1486 C1496 0.930 . S
H1487 C1499 0.929 . S
H1488 C1502 0.930 . S
H1489 C1504 0.960 . S
H1490 C1504 0.960 . S
H1491 C1504 0.960 . S
C1492 H1484 0.932 . S
C1492 C1493 1.374 1_455 S
C1492 C1494 1.384 . S
C1493 C1492 1.374 1_655 S
C1493 C1499 1.390 . S
C1494 H1485 0.930 . S
C1494 C1492 1.384 . S
C1494 C1495 1.372 1_455 S
C1495 C1494 1.372 1_655 S
C1495 C1496 1.400 . S
C1495 C1500 1.490 . S
C1496 H1486 0.930 . S
C1496 C1495 1.400 . S
C1496 C1499 1.386 . S
H1497 C1513 0.930 . S
H1498 C1514 0.931 . S
C1499 H1487 0.929 . S
C1499 C1493 1.390 . S
C1499 C1496 1.386 . S
C1500 C1495 1.490 . S
C1500 C1502 1.395 . S
C1500 C1503 1.403 1_655 S
H1501 C1507 0.930 . S
C1502 H1488 0.930 . S
C1502 C1500 1.395 . S
C1502 C1505 1.403 . S
C1503 C1500 1.403 1_455 S
C1503 C1504 1.524 . S
C1503 C1507 1.400 . S
C1504 H1489 0.960 . S
C1504 H1490 0.960 . S
C1504 H1491 0.960 . S
C1504 C1503 1.524 . S
C1505 C1502 1.403 . S
C1505 C1506 1.421 . S
C1505 C1509 1.495 . S
C1506 C1505 1.421 . S
C1506 C1507 1.358 1_655 S
C1506 C1508 1.477 1_655 S
C1507 H1501 0.930 . S
C1507 C1503 1.400 . S
C1507 C1506 1.358 1_455 S
C1508 C1506 1.477 1_455 S
C1508 C1510 1.386 . S
C1508 C1514 1.379 1_455 S
C1509 C1505 1.495 . S
C1509 H1515 0.959 . S
C1509 H1516 0.961 . S
C1509 H1517 0.960 . S
C1510 C1508 1.386 . S
C1510 C1511 1.394 . S
C1510 H1518 0.930 . S
C1511 C1510 1.394 . S
C1511 C1512 1.383 . S
C1511 H1519 0.929 . S
C1512 C1511 1.383 . S
C1512 C1513 1.377 1_455 S
C1513 H1497 0.930 . S
C1513 C1512 1.377 1_655 S
C1513 C1514 1.379 . S
C1514 H1498 0.931 . S
C1514 C1508 1.379 1_655 S
C1514 C1513 1.379 . S
H1515 C1509 0.959 . S
H1516 C1509 0.961 . S
H1517 C1509 0.960 . S
H1518 C1510 0.930 . S
H1519 C1511 0.929 . S
C377 N117 0.532 . S
C396 N2 0.503 . S
C413 N140 0.735 . S
C432 N25 0.667 . S
C449 N48 0.573 . S
C468 N163 0.372 . S
C485 N71 0.640 . S
C504 N94 0.725 . S
C521 N186 0.417 . S
C540 N301 0.459 . S
C557 N324 0.708 . S
C576 N209 0.690 . S
C593 N347 0.442 . S
C612 N232 0.606 . S
C629 N255 0.640 . S
C648 N278 0.668 . S
C665 N12 1.768 . S
C684 C283 1.792 . S
C701 C306 2.204 . S
C720 N35 2.162 . S
C737 N58 2.465 . S
C756 C329 2.494 . S
C773 N81 1.989 . S
C792 C352 2.007 . S
C809 N104 1.987 . S
C828 C191 1.988 . S
C845 N127 2.471 . S
C864 C214 2.508 . S
C881 N150 2.179 . S
C900 C237 2.212 . S
C917 N173 1.764 . S
C936 C260 1.759 . S
C953 C99 1.777 . S
C972 N196 1.772 . S
C989 C122 2.203 . S
C1008 N219 2.179 . S
C1025 C145 2.507 . S
C1044 N242 2.452 . S
C1061 N265 1.988 . S
C1080 C168 1.989 . S
C1097 C7 2.005 . S
C1116 N288 1.973 . S
C1133 N311 2.465 . S
C1152 C30 2.507 . S
C1169 N334 2.178 . S
C1188 C53 2.204 . S
C1205 C76 1.777 . S
C1224 N357 1.773 . S
C1241 C200 1.397 . S
C1260 C16 1.381 . S
C1277 C223 1.965 . S
C1296 C39 1.960 . S
C1313 C62 2.514 . S
C1332 C246 2.516 . S
C1349 C269 1.861 . S
C1368 C85 1.868 . S
C1385 C108 1.860 . S
C1404 C292 1.844 . S
C1421 C315 2.514 . S
C1440 C131 2.504 . S
C1457 C338 1.965 . S
C1476 C154 1.952 . S
C1493 C361 1.394 . S
C1512 C177 1.409 . S
