# Generated by pormake.
# Topology wme, (6)-cn, num edge types: 1
# Building blocks:
#     Node 0, Type 0, BuildingBlock: BETGAK_clean_sbu_0, # of connection points: 6
#     Node 1, Type 0, BuildingBlock: BETGAK_clean_sbu_0, # of connection points: 6
#     Node 2, Type 0, BuildingBlock: BETGAK_clean_sbu_0, # of connection points: 6
#     Node 3, Type 0, BuildingBlock: BETGAK_clean_sbu_0, # of connection points: 6
#     Node 4, Type 0, BuildingBlock: BETGAK_clean_sbu_0, # of connection points: 6
#     Node 5, Type 0, BuildingBlock: BETGAK_clean_sbu_0, # of connection points: 6
#     Node 6, Type 0, BuildingBlock: BETGAK_clean_sbu_0, # of connection points: 6
#     Node 7, Type 0, BuildingBlock: BETGAK_clean_sbu_0, # of connection points: 6
#     Node 8, Type 0, BuildingBlock: BETGAK_clean_sbu_0, # of connection points: 6
#     Node 9, Type 0, BuildingBlock: BETGAK_clean_sbu_0, # of connection points: 6
#     Node 10, Type 0, BuildingBlock: BETGAK_clean_sbu_0, # of connection points: 6
#     Node 11, Type 0, BuildingBlock: BETGAK_clean_sbu_0, # of connection points: 6
#     Edge 12, Type (0, 0), BuildingBlock: EZIPEK_clean_linker_0, # of connection points: 2
#     Edge 13, Type (0, 0), BuildingBlock: EZIPEK_clean_linker_0, # of connection points: 2
#     Edge 14, Type (0, 0), BuildingBlock: EZIPEK_clean_linker_0, # of connection points: 2
#     Edge 15, Type (0, 0), BuildingBlock: EZIPEK_clean_linker_0, # of connection points: 2
#     Edge 16, Type (0, 0), BuildingBlock: EZIPEK_clean_linker_0, # of connection points: 2
#     Edge 17, Type (0, 0), BuildingBlock: EZIPEK_clean_linker_0, # of connection points: 2
#     Edge 18, Type (0, 0), BuildingBlock: EZIPEK_clean_linker_0, # of connection points: 2
#     Edge 19, Type (0, 0), BuildingBlock: EZIPEK_clean_linker_0, # of connection points: 2
#     Edge 20, Type (0, 0), BuildingBlock: EZIPEK_clean_linker_0, # of connection points: 2
#     Edge 21, Type (0, 0), BuildingBlock: EZIPEK_clean_linker_0, # of connection points: 2
#     Edge 22, Type (0, 0), BuildingBlock: EZIPEK_clean_linker_0, # of connection points: 2
#     Edge 23, Type (0, 0), BuildingBlock: EZIPEK_clean_linker_0, # of connection points: 2
#     Edge 24, Type (0, 0), BuildingBlock: EZIPEK_clean_linker_0, # of connection points: 2
#     Edge 25, Type (0, 0), BuildingBlock: EZIPEK_clean_linker_0, # of connection points: 2
#     Edge 26, Type (0, 0), BuildingBlock: EZIPEK_clean_linker_0, # of connection points: 2
#     Edge 27, Type (0, 0), BuildingBlock: EZIPEK_clean_linker_0, # of connection points: 2
#     Edge 28, Type (0, 0), BuildingBlock: EZIPEK_clean_linker_0, # of connection points: 2
#     Edge 29, Type (0, 0), BuildingBlock: EZIPEK_clean_linker_0, # of connection points: 2
#     Edge 30, Type (0, 0), BuildingBlock: EZIPEK_clean_linker_0, # of connection points: 2
#     Edge 31, Type (0, 0), BuildingBlock: EZIPEK_clean_linker_0, # of connection points: 2
#     Edge 32, Type (0, 0), BuildingBlock: EZIPEK_clean_linker_0, # of connection points: 2
#     Edge 33, Type (0, 0), BuildingBlock: EZIPEK_clean_linker_0, # of connection points: 2
#     Edge 34, Type (0, 0), BuildingBlock: EZIPEK_clean_linker_0, # of connection points: 2
#     Edge 35, Type (0, 0), BuildingBlock: EZIPEK_clean_linker_0, # of connection points: 2
#     Edge 36, Type (0, 0), BuildingBlock: EZIPEK_clean_linker_0, # of connection points: 2
#     Edge 37, Type (0, 0), BuildingBlock: EZIPEK_clean_linker_0, # of connection points: 2
#     Edge 38, Type (0, 0), BuildingBlock: EZIPEK_clean_linker_0, # of connection points: 2
#     Edge 39, Type (0, 0), BuildingBlock: EZIPEK_clean_linker_0, # of connection points: 2
#     Edge 40, Type (0, 0), BuildingBlock: EZIPEK_clean_linker_0, # of connection points: 2
#     Edge 41, Type (0, 0), BuildingBlock: EZIPEK_clean_linker_0, # of connection points: 2
#     Edge 42, Type (0, 0), BuildingBlock: EZIPEK_clean_linker_0, # of connection points: 2
#     Edge 43, Type (0, 0), BuildingBlock: EZIPEK_clean_linker_0, # of connection points: 2
#     Edge 44, Type (0, 0), BuildingBlock: EZIPEK_clean_linker_0, # of connection points: 2
#     Edge 45, Type (0, 0), BuildingBlock: EZIPEK_clean_linker_0, # of connection points: 2
#     Edge 46, Type (0, 0), BuildingBlock: EZIPEK_clean_linker_0, # of connection points: 2
#     Edge 47, Type (0, 0), BuildingBlock: EZIPEK_clean_linker_0, # of connection points: 2
# Relax obj value: 0.113
# Max RMSD: 0.229
# Mean RMSD: 0.229
data_MOF--net-wme--node1-BETGAK_clean_sbu_0--edge1-EZIPEK_clean_linker_0
_symmetry_space_group_name_H-M    P1
_symmetry_Int_Tables_number       1
_symmetry_cell_setting            triclinic
loop_
_symmetry_equiv_pos_as_xyz
'x, y, z'
_cell_length_a     31.927429
_cell_length_b     31.876964
_cell_length_c     37.050527
_cell_angle_alpha  90.568488
_cell_angle_beta   89.761931
_cell_angle_gamma 119.80301
loop_
_atom_site_label
_atom_site_type_symbol
_atom_site_fract_x
_atom_site_fract_y
_atom_site_fract_z
_atom_type_partial_charge
La0 La 0.25246 0.38658 0.12132 0.0
La1 La 0.2989 0.33153 0.14835 0.0
C2 C 0.22267 0.44658 0.1213 0.0
C3 C 0.20446 0.48151 0.12517 0.0
C4 C 0.19665 0.50333 0.09532 0.0
C5 C 0.18445 0.53988 0.1001 0.0
C6 C 0.1828 0.55846 0.1349 0.0
C7 C 0.18246 0.52997 0.16417 0.0
C8 C 0.19492 0.49373 0.15957 0.0
C9 C 0.28657 0.349 0.07022 0.0
C10 C 0.36572 0.44445 0.13712 0.0
C11 C 0.32112 0.26597 0.15379 0.0
C12 C 0.29426 0.21276 0.1479 0.0
C13 C 0.30165 0.18262 0.17125 0.0
C14 C 0.27691 0.13234 0.16596 0.0
C15 C 0.24432 0.11121 0.13714 0.0
C16 C 0.2364 0.14119 0.11394 0.0
C17 C 0.26111 0.1915 0.11927 0.0
C18 C 0.2707 0.36973 0.20055 0.0
C19 C 0.18467 0.27837 0.12905 0.0
O20 O 0.21958 0.42097 0.09237 0.0
O21 O 0.24306 0.43856 0.14884 0.0
O22 O 0.24958 0.35536 0.06582 0.0
O23 O 0.30398 0.36763 0.10036 0.0
O24 O 0.32496 0.44523 0.13403 0.0
O25 O 0.36553 0.40262 0.14057 0.0
O26 O 0.30739 0.28247 0.18112 0.0
O27 O 0.32977 0.29279 0.12519 0.0
O28 O 0.30959 0.36628 0.20127 0.0
O29 O 0.2483 0.35014 0.17132 0.0
O30 O 0.22493 0.27563 0.13006 0.0
O31 O 0.18661 0.32043 0.13091 0.0
H32 H 0.2005 0.49264 0.06822 0.0
H33 H 0.17634 0.55308 0.07593 0.0
H34 H 0.17215 0.5345 0.19102 0.0
H35 H 0.19697 0.4751 0.18323 0.0
H36 H 0.32678 0.19802 0.19356 0.0
H37 H 0.28346 0.10987 0.1842 0.0
H38 H 0.21134 0.12566 0.09161 0.0
H39 H 0.25442 0.21372 0.10091 0.0
La40 La 0.89683 0.24486 0.62121 0.0
La41 La 0.99853 0.28144 0.64832 0.0
C42 C 0.80622 0.20827 0.6185 0.0
C43 C 0.75396 0.19348 0.61654 0.0
C44 C 0.71819 0.14435 0.61687 0.0
C45 C 0.66902 0.13049 0.6206 0.0
C46 C 0.65438 0.16546 0.6234 0.0
C47 C 0.69021 0.21458 0.6219 0.0
C48 C 0.73931 0.22839 0.61886 0.0
C49 C 0.96687 0.27441 0.57019 0.0
C50 C 0.9601 0.35656 0.63382 0.0
C51 C 0.08842 0.31459 0.65125 0.0
C52 C 0.11768 0.29062 0.64828 0.0
C53 C 0.0963 0.24041 0.65298 0.0
C54 C 0.1237 0.21744 0.6492 0.0
C55 C 0.17304 0.24436 0.64099 0.0
C56 C 0.19446 0.29455 0.6362 0.0
C57 C 0.16689 0.3175 0.6397 0.0
C58 C 0.93284 0.24692 0.70033 0.0
C59 C 0.93084 0.16948 0.6398 0.0
O60 O 0.82953 0.19565 0.59552 0.0
O61 O 0.83425 0.2419 0.64143 0.0
O62 O 0.92683 0.27562 0.56696 0.0
O63 O 0.96271 0.25245 0.59923 0.0
O64 O 0.91743 0.32021 0.6249 0.0
O65 O 0.99678 0.35017 0.64334 0.0
O66 O 0.06077 0.30388 0.67978 0.0
O67 O 0.06563 0.31408 0.62182 0.0
O68 O 0.97345 0.24702 0.70017 0.0
O69 O 0.93245 0.2709 0.67303 0.0
O70 O 0.97615 0.20517 0.63855 0.0
O71 O 0.89424 0.17769 0.63751 0.0
H72 H 0.7284 0.11665 0.61576 0.0
H73 H 0.64242 0.09241 0.62195 0.0
H74 H 0.68021 0.24238 0.62409 0.0
H75 H 0.766 0.26651 0.61911 0.0
H76 H 0.05847 0.21892 0.65971 0.0
H77 H 0.10655 0.17872 0.65297 0.0
H78 H 0.23249 0.31589 0.6298 0.0
H79 H 0.18396 0.35617 0.63573 0.0
La80 La 0.69831 0.88218 0.11295 0.0
La81 La 0.75834 0.98322 0.1426 0.0
C82 C 0.63605 0.79329 0.11127 0.0
C83 C 0.59833 0.74097 0.1134 0.0
C84 C 0.59144 0.70805 0.08534 0.0
C85 C 0.5574 0.65852 0.08881 0.0
C86 C 0.52936 0.6408 0.12036 0.0
C87 C 0.53647 0.67363 0.14841 0.0
C88 C 0.57052 0.7229 0.14504 0.0
C89 C 0.74299 0.95255 0.06364 0.0
C90 C 0.64735 0.94555 0.13174 0.0
C91 C 0.82697 0.06927 0.14527 0.0
C92 C 0.88022 0.09203 0.14253 0.0
C93 C 0.90987 0.12939 0.16652 0.0
C94 C 0.96022 0.15306 0.16303 0.0
C95 C 0.98179 0.13976 0.13547 0.0
C96 C 0.95233 0.10149 0.11204 0.0
C97 C 0.90199 0.07781 0.11554 0.0
C98 C 0.71421 0.91773 0.1932 0.0
C99 C 0.80494 0.91313 0.13187 0.0
O100 O 0.66347 0.81503 0.08327 0.0
O101 O 0.64275 0.82235 0.13843 0.0
O102 O 0.73284 0.90788 0.05891 0.0
O103 O 0.72346 0.95377 0.09292 0.0
O104 O 0.64319 0.90343 0.12207 0.0
O105 O 0.68994 0.98423 0.13915 0.0
O106 O 0.8067 0.0435 0.17406 0.0
O107 O 0.80242 0.04832 0.11591 0.0
O108 O 0.72276 0.96218 0.19497 0.0
O109 O 0.73269 0.91289 0.16405 0.0
O110 O 0.81192 0.95761 0.13705 0.0
O111 O 0.76175 0.87659 0.1244 0.0
H112 H 0.6125 0.7205 0.06081 0.0
H113 H 0.55238 0.63406 0.06664 0.0
H114 H 0.51516 0.66116 0.17284 0.0
H115 H 0.57499 0.7469 0.16742 0.0
H116 H 0.89403 0.14095 0.18754 0.0
H117 H 0.98236 0.18272 0.1812 0.0
H118 H 0.96826 0.09091 0.09046 0.0
H119 H 0.88011 0.0491 0.09663 0.0
La120 La 0.8486 0.67502 0.60806 0.0
La121 La 0.81596 0.74104 0.64417 0.0
C122 C 0.86453 0.60606 0.59323 0.0
C123 C 0.89356 0.58226 0.60069 0.0
C124 C 0.89458 0.5506 0.5745 0.0
C125 C 0.91362 0.52045 0.5825 0.0
C126 C 0.93229 0.52127 0.61693 0.0
C127 C 0.93383 0.55494 0.64264 0.0
C128 C 0.91432 0.58492 0.6347 0.0
C129 C 0.81262 0.71665 0.56301 0.0
C130 C 0.73984 0.62803 0.63723 0.0
C131 C 0.79953 0.81065 0.64321 0.0
C132 C 0.82104 0.86234 0.65311 0.0
C133 C 0.87137 0.89239 0.65603 0.0
C134 C 0.89197 0.94287 0.65647 0.0
C135 C 0.86256 0.96404 0.65412 0.0
C136 C 0.81219 0.93395 0.65321 0.0
C137 C 0.79166 0.88357 0.65261 0.0
C138 C 0.85335 0.71197 0.69535 0.0
C139 C 0.92862 0.77978 0.62703 0.0
O140 O 0.88392 0.64677 0.5755 0.0
O141 O 0.83594 0.60523 0.61886 0.0
O142 O 0.84638 0.70666 0.5552 0.0
O143 O 0.79979 0.7012 0.59459 0.0
O144 O 0.7748 0.62234 0.62302 0.0
O145 O 0.74608 0.67164 0.64612 0.0
O146 O 0.78276 0.77765 0.66858 0.0
O147 O 0.82285 0.80149 0.61797 0.0
O148 O 0.83426 0.73922 0.70064 0.0
O149 O 0.85005 0.70161 0.66176 0.0
O150 O 0.89364 0.79003 0.63289 0.0
O151 O 0.91939 0.73541 0.62003 0.0
H152 H 0.87846 0.54747 0.54822 0.0
H153 H 0.91196 0.49497 0.5622 0.0
H154 H 0.94807 0.55637 0.66939 0.0
H155 H 0.91371 0.60871 0.65552 0.0
H156 H 0.89488 0.87693 0.65597 0.0
H157 H 0.93088 0.96541 0.65713 0.0
H158 H 0.78889 0.94953 0.65134 0.0
H159 H 0.75289 0.86121 0.64972 0.0
La160 La 0.20788 0.83145 0.12574 0.0
La161 La 0.10607 0.79526 0.15248 0.0
C162 C 0.29701 0.85985 0.12203 0.0
C163 C 0.35025 0.87837 0.12164 0.0
C164 C 0.37149 0.86091 0.09669 0.0
C165 C 0.42118 0.87643 0.09838 0.0
C166 C 0.45069 0.90971 0.12504 0.0
C167 C 0.42973 0.9279 0.14944 0.0
C168 C 0.38024 0.91245 0.14779 0.0
C169 C 0.13764 0.80052 0.07407 0.0
C170 C 0.14812 0.72199 0.14913 0.0
C171 C 1.01654 0.76442 0.15561 0.0
C172 C 0.98617 0.78715 0.1601 0.0
C173 C 1.00196 0.83033 0.1799 0.0
C174 C 0.97647 0.85572 0.17804 0.0
C175 C 0.93552 0.83878 0.15576 0.0
C176 C 0.91954 0.79533 0.13651 0.0
C177 C 0.94449 0.76974 0.13877 0.0
C178 C 0.17377 0.84475 0.20217 0.0
C179 C 0.171 0.90505 0.12987 0.0
O180 O 0.26592 0.82897 0.09864 0.0
O181 O 0.27753 0.87475 0.14644 0.0
O182 O 0.18197 0.83565 0.07059 0.0
O183 O 0.13637 0.78464 0.10513 0.0
O184 O 0.19027 0.75886 0.13986 0.0
O185 O 0.10937 0.72681 0.15563 0.0
O186 O 1.04162 0.76303 0.18322 0.0
O187 O 1.04209 0.77788 0.12608 0.0
O188 O 0.13278 0.84337 0.19929 0.0
O189 O 0.17407 0.81589 0.17845 0.0
O190 O 0.12676 0.86729 0.13061 0.0
O191 O 0.20912 0.89962 0.13148 0.0
H192 H 0.34955 0.83458 0.07631 0.0
H193 H 0.43646 0.86176 0.07932 0.0
H194 H 0.4516 0.95346 0.17027 0.0
H195 H 0.36532 0.92671 0.16751 0.0
H196 H 1.0345 0.84497 0.19602 0.0
H197 H 0.98904 0.88886 0.19348 0.0
H198 H 0.88771 0.78128 0.11958 0.0
H199 H 0.93208 0.73703 0.12281 0.0
La200 La 0.4118 0.19775 0.61517 0.0
La201 La 0.34653 0.09968 0.64699 0.0
C202 C 0.4605 0.28791 0.60143 0.0
C203 C 0.5023 0.33602 0.6122 0.0
C204 C 0.53701 0.36405 0.58615 0.0
C205 C 0.57306 0.41188 0.59375 0.0
C206 C 0.57543 0.43322 0.62764 0.0
C207 C 0.54124 0.40515 0.65401 0.0
C208 C 0.50508 0.35719 0.64639 0.0
C209 C 0.36742 0.123 0.56749 0.0
C210 C 0.46095 0.13875 0.63747 0.0
C211 C 0.28907 1.00987 0.65377 0.0
C212 C 0.23608 0.97829 0.64896 0.0
C213 C 0.21161 0.93387 0.66692 0.0
C214 C 0.16157 0.90372 0.66267 0.0
C215 C 0.13496 0.91734 0.64029 0.0
C216 C 0.15938 0.96187 0.62237 0.0
C217 C 0.20941 0.99209 0.62674 0.0
C218 C 0.38074 0.17049 0.69605 0.0
C219 C 0.30249 0.16661 0.63154 0.0
O220 O 0.46875 0.25536 0.58645 0.0
O221 O 0.42309 0.26809 0.62279 0.0
O222 O 0.40847 0.16185 0.56227 0.0
O223 O 0.35159 0.13071 0.59633 0.0
O224 O 0.46724 0.18261 0.63345 0.0
O225 O 0.41678 0.10044 0.64119 0.0
O226 O 0.30302 0.0408 0.68067 0.0
O227 O 0.31416 1.0296 0.62455 0.0
O228 O 0.33998 0.13048 0.69767 0.0
O229 O 0.40409 0.16778 0.6689 0.0
O230 O 0.29269 0.12134 0.63523 0.0
O231 O 0.34679 0.20213 0.62582 0.0
H232 H 0.53551 0.3493 0.5594 0.0
H233 H 0.59889 0.43254 0.57294 0.0
H234 H 0.54222 0.42059 0.68037 0.0
H235 H 0.47872 0.3371 0.66706 0.0
H236 H 0.23125 0.92245 0.68427 0.0
H237 H 0.14355 0.86963 0.67681 0.0
H238 H 0.13968 0.97323 0.60504 0.0
H239 H 0.22725 1.02628 0.6128 0.0
La240 La 0.68979 0.82756 0.4072 0.0
La241 La 0.75096 0.79019 0.37571 0.0
C242 C 0.6253 0.85093 0.40846 0.0
C243 C 0.5863 0.86365 0.40765 0.0
C244 C 0.58255 0.8928 0.43476 0.0
C245 C 0.54657 0.90586 0.43299 0.0
C246 C 0.5135 0.8899 0.40413 0.0
C247 C 0.51742 0.86108 0.37694 0.0
C248 C 0.55346 0.84822 0.37861 0.0
C249 C 0.72918 0.79505 0.45648 0.0
C250 C 0.6383 0.71568 0.38375 0.0
C251 C 0.81952 0.77242 0.36934 0.0
C252 C 0.87179 0.80033 0.37767 0.0
C253 C 0.90487 0.7952 0.35566 0.0
C254 C 0.95421 0.81998 0.36407 0.0
C255 C 0.97128 0.85032 0.39463 0.0
C256 C 0.93841 0.85643 0.41622 0.0
C257 C 0.88907 0.83157 0.40785 0.0
C258 C 0.71085 0.81722 0.32588 0.0
C259 C 0.79712 0.90433 0.39715 0.0
O260 O 0.65408 0.85884 0.43608 0.0
O261 O 0.63243 0.82888 0.38113 0.0
O262 O 0.71705 0.82799 0.46238 0.0
O263 O 0.71392 0.77924 0.42509 0.0
O264 O 0.63551 0.75188 0.39901 0.0
O265 O 0.68066 0.72135 0.37253 0.0
O266 O 0.80428 0.78826 0.34293 0.0
O267 O 0.79044 0.7598 0.39703 0.0
O268 O 0.71825 0.78074 0.3229 0.0
O269 O 0.72752 0.83797 0.35628 0.0
O270 O 0.80412 0.86727 0.38971 0.0
O271 O 0.75356 0.8975 0.40305 0.0
H272 H 0.60748 0.9056 0.4573 0.0
H273 H 0.54397 0.92778 0.45444 0.0
H274 H 0.49208 0.84793 0.35465 0.0
H275 H 0.55538 0.8259 0.35716 0.0
H276 H 0.89245 0.77147 0.33225 0.0
H277 H 0.97902 0.81476 0.34713 0.0
H278 H 0.95086 0.87962 0.43992 0.0
H279 H 0.86433 0.83614 0.42531 0.0
La280 La 0.90545 0.67977 0.91386 0.0
La281 La 0.99875 0.73936 0.8828 0.0
C282 C 0.82124 0.61469 0.93371 0.0
C283 C 0.7713 0.57863 0.92168 0.0
C284 C 0.74669 0.53435 0.93991 0.0
C285 C 0.69845 0.50063 0.93168 0.0
C286 C 0.67339 0.5101 0.90483 0.0
C287 C 0.69812 0.55403 0.88596 0.0
C288 C 0.7465 0.58812 0.89446 0.0
C289 C 0.98049 0.7209 0.96258 0.0
C290 C 0.95892 0.62766 0.88522 0.0
C291 C 0.08445 0.8098 0.87848 0.0
C292 C 0.11046 0.86365 0.87894 0.0
C293 C 0.11591 0.89116 0.848 0.0
C294 C 0.14345 0.94195 0.84951 0.0
C295 C 0.16634 0.96593 0.88185 0.0
C296 C 0.1599 0.93851 0.91278 0.0
C297 C 0.13237 0.88815 0.91135 0.0
C298 C 0.9353 0.69744 0.8307 0.0
C299 C 0.92777 0.78284 0.89774 0.0
O300 O 0.83527 0.66064 0.93166 0.0
O301 O 0.85627 0.60643 0.92558 0.0
O302 O 0.93812 0.71618 0.96676 0.0
O303 O 0.97826 0.7022 0.9323 0.0
O304 O 0.91696 0.62607 0.88575 0.0
O305 O 0.99938 0.67018 0.8876 0.0
O306 O 0.05923 0.78554 0.85021 0.0
O307 O 0.06168 0.79022 0.9082 0.0
O308 O 0.97888 0.70404 0.83082 0.0
O309 O 0.92744 0.71319 0.86045 0.0
O310 O 0.97275 0.79164 0.89403 0.0
O311 O 0.89234 0.73816 0.90074 0.0
H312 H 0.76464 0.5261 0.96114 0.0
H313 H 0.68046 0.46711 0.94653 0.0
H314 H 0.67973 0.5622 0.86504 0.0
H315 H 0.76423 0.62204 0.88012 0.0
H316 H 0.09967 0.87355 0.82262 0.0
H317 H 0.14815 0.9625 0.82524 0.0
H318 H 0.1773 0.95609 0.93792 0.0
H319 H 0.12893 0.86824 0.93571 0.0
La320 La 0.23851 0.87014 0.42761 0.0
La321 La 0.28344 0.97108 0.39901 0.0
C322 C 0.20224 0.78105 0.44264 0.0
C323 C 0.19641 0.73294 0.43292 0.0
C324 C 0.17162 0.69467 0.45711 0.0
C325 C 0.16297 0.648 0.44885 0.0
C326 C 0.17894 0.63817 0.41611 0.0
C327 C 0.20359 0.6764 0.39161 0.0
C328 C 0.21206 0.72337 0.39986 0.0
C329 C 0.27079 0.94403 0.47675 0.0
C330 C 0.34625 0.91835 0.40153 0.0
C331 C 0.3218 0.06153 0.39521 0.0
C332 C 0.30103 0.09387 0.39169 0.0
C333 C 0.26326 0.08366 0.3674 0.0
C334 C 0.24036 0.11159 0.36785 0.0
C335 C 0.25454 0.14984 0.39278 0.0
C336 C 0.29236 0.16016 0.41683 0.0
C337 C 0.31535 0.13248 0.41628 0.0
C338 C 0.23246 0.90384 0.34892 0.0
C339 C 0.17236 0.9138 0.41662 0.0
O340 O 0.24371 0.81506 0.45534 0.0
O341 O 0.18199 0.7985 0.42154 0.0
O342 O 0.23294 0.90189 0.48103 0.0
O343 O 0.28855 0.9411 0.44749 0.0
O344 O 0.30546 0.87743 0.40676 0.0
O345 O 0.34719 0.96055 0.39853 0.0
O346 O 0.31905 1.03414 0.36749 0.0
O347 O 0.31077 0.03779 0.42556 0.0
O348 O 0.23727 0.94653 0.35152 0.0
O349 O 0.25821 0.90062 0.37366 0.0
O350 O 0.21212 0.95656 0.41892 0.0
O351 O 0.17485 0.87401 0.41412 0.0
H352 H 0.15872 0.70087 0.48259 0.0
H353 H 0.14433 0.6195 0.46836 0.0
H354 H 0.21677 0.67 0.36635 0.0
H355 H 0.23082 0.7521 0.38056 0.0
H356 H 0.25093 0.0537 0.34852 0.0
H357 H 0.21147 0.10328 0.34889 0.0
H358 H 0.30409 0.18971 0.43607 0.0
H359 H 0.34377 0.14059 0.43567 0.0
La360 La 0.41941 0.23969 0.91948 0.0
La361 La 0.3622 0.28243 0.88911 0.0
C362 C 0.476 0.20744 0.93523 0.0
C363 C 0.51895 0.20281 0.92449 0.0
C364 C 0.55245 0.20751 0.95107 0.0
C365 C 0.58916 0.19648 0.94338 0.0
C366 C 0.5935 0.18034 0.90882 0.0
C367 C 0.56069 0.17652 0.88192 0.0
C368 C 0.52389 0.18754 0.88964 0.0
C369 C 0.36849 0.26201 0.96788 0.0
C370 C 0.47622 0.35033 0.89472 0.0
C371 C 0.3057 0.31628 0.88708 0.0
C372 C 0.25195 0.29136 0.88836 0.0
C373 C 0.22622 0.30775 0.86769 0.0
C374 C 0.17565 0.28531 0.8703 0.0
C375 C 0.14991 0.24611 0.89367 0.0
C376 C 0.17551 0.22925 0.91391 0.0
C377 C 0.22587 0.2516 0.91132 0.0
C378 C 0.38766 0.23943 0.83832 0.0
C379 C 0.31206 0.16932 0.89853 0.0
O380 O 0.48202 0.24901 0.94687 0.0
O381 O 0.43671 0.18418 0.91593 0.0
O382 O 0.37713 0.22658 0.97105 0.0
O383 O 0.39128 0.28385 0.94025 0.0
O384 O 0.47829 0.31185 0.90564 0.0
O385 O 0.43448 0.34793 0.8861 0.0
O386 O 0.32578 0.31002 0.8581 0.0
O387 O 0.32635 0.3131 0.91654 0.0
O388 O 0.34832 0.24191 0.83901 0.0
O389 O 0.4131 0.26297 0.86554 0.0
O390 O 0.3061 0.2075 0.90098 0.0
O391 O 0.35576 0.17478 0.89977 0.0
H392 H 0.54934 0.2184 0.97829 0.0
H393 H 0.61384 0.19983 0.96466 0.0
H394 H 0.5631 0.16425 0.85503 0.0
H395 H 0.49864 0.18295 0.86853 0.0
H396 H 0.24526 0.33824 0.84985 0.0
H397 H 0.1566 0.29887 0.8544 0.0
H398 H 0.15653 0.1991 0.93206 0.0
H399 H 0.24447 0.23812 0.92778 0.0
La400 La 0.21236 0.39162 0.42211 0.0
La401 La 0.11614 0.33309 0.39026 0.0
C402 C 0.29861 0.45555 0.4387 0.0
C403 C 0.34946 0.48288 0.42549 0.0
C404 C 0.38726 0.50303 0.45084 0.0
C405 C 0.43492 0.53528 0.44016 0.0
C406 C 0.44606 0.54826 0.40378 0.0
C407 C 0.40864 0.52632 0.37807 0.0
C408 C 0.36083 0.4941 0.38881 0.0
C409 C 0.13737 0.35068 0.47029 0.0
C410 C 0.15774 0.44527 0.39747 0.0
C411 C 1.02945 0.2651 0.38513 0.0
C412 C 1.00293 0.21109 0.387 0.0
C413 C 0.99791 0.18208 0.35657 0.0
C414 C 0.9694 0.13145 0.35817 0.0
C415 C 0.94515 0.10868 0.39015 0.0
C416 C 0.95127 0.13741 0.42081 0.0
C417 C 0.97969 0.18792 0.41925 0.0
C418 C 0.18276 0.3757 0.33927 0.0
C419 C 0.18506 0.287 0.40351 0.0
O420 O 0.27971 0.40964 0.44597 0.0
O421 O 0.26723 0.46448 0.42333 0.0
O422 O 0.18076 0.35886 0.47609 0.0
O423 O 0.13981 0.36924 0.44019 0.0
O424 O 0.19965 0.44667 0.39844 0.0
O425 O 0.11687 0.4028 0.39742 0.0
O426 O 0.05713 0.28598 0.3572 0.0
O427 O 1.04946 0.28831 0.41508 0.0
O428 O 0.13874 0.36808 0.33809 0.0
O429 O 0.18784 0.35825 0.36881 0.0
O430 O 0.14019 0.27931 0.40122 0.0
O431 O 0.22157 0.33138 0.40618 0.0
H432 H 0.37959 0.49538 0.47929 0.0
H433 H 0.46282 0.55171 0.46057 0.0
H434 H 0.41611 0.53577 0.34985 0.0
H435 H 0.33253 0.47936 0.36865 0.0
H436 H 1.01499 0.19848 0.33126 0.0
H437 H 0.96486 0.11007 0.33407 0.0
H438 H 0.93259 0.12081 0.44564 0.0
H439 H 0.9824 0.20897 0.44317 0.0
La440 La 0.86393 0.2016 0.92294 0.0
La441 La 0.83128 0.10586 0.88845 0.0
C442 C 0.90552 0.29099 0.94016 0.0
C443 C 0.91096 0.33824 0.92914 0.0
C444 C 0.93414 0.37785 0.95263 0.0
C445 C 0.94073 0.42326 0.94331 0.0
C446 C 0.92168 0.4307 0.91096 0.0
C447 C 0.90407 0.39168 0.88562 0.0
C448 C 0.89745 0.34594 0.89496 0.0
C449 C 0.83004 0.12542 0.96866 0.0
C450 C 0.7574 0.14762 0.89663 0.0
C451 C 0.79899 1.0163 0.87956 0.0
C452 C 0.82122 0.98478 0.88235 0.0
C453 C 0.85345 0.98549 0.8559 0.0
C454 C 0.87369 0.95535 0.85872 0.0
C455 C 0.86222 0.92375 0.88797 0.0
C456 C 0.83054 0.92329 0.91461 0.0
C457 C 0.81025 0.95341 0.91182 0.0
C458 C 0.86961 0.17759 0.84116 0.0
C459 C 0.94236 0.17071 0.90467 0.0
O460 O 0.86393 0.25832 0.95314 0.0
O461 O 0.92395 0.27159 0.91886 0.0
O462 O 0.82725 0.16416 0.97388 0.0
O463 O 0.8555 0.13346 0.9408 0.0
O464 O 0.79563 0.19039 0.9027 0.0
O465 O 0.7623 0.10853 0.89227 0.0
O466 O 0.81321 0.04725 0.85304 0.0
O467 O 0.79449 1.03548 0.9097 0.0
O468 O 0.87036 0.1374 0.83904 0.0
O469 O 0.84316 0.17481 0.86799 0.0
O470 O 0.90679 0.12591 0.89909 0.0
O471 O 0.93341 0.20598 0.91238 0.0
H472 H 0.94794 0.37391 0.9783 0.0
H473 H 0.9614 0.45263 0.96197 0.0
H474 H 0.89653 0.39549 0.85798 0.0
H475 H 0.88259 0.31684 0.87518 0.0
H476 H 0.86292 1.00912 0.83285 0.0
H477 H 0.89788 0.9562 0.83778 0.0
H478 H 0.821 0.8991 0.93733 0.0
H479 H 0.78568 0.95195 0.93268 0.0
C480 C 0.21272 0.98618 0.10018 0.0
C481 C 0.17987 0.95573 0.12686 0.0
C482 C 0.17995 1.02682 0.15385 0.0
C483 C 0.21912 0.0576 0.13127 0.0
N484 N 0.27487 0.06698 0.08375 0.0
N485 N 0.13248 0.94751 0.18014 0.0
C486 C 0.23574 0.03737 0.10436 0.0
C487 C 0.16286 0.97603 0.15365 0.0
N488 N 0.22099 0.96588 0.0703 0.0
N489 N 0.15868 0.04619 0.17517 0.0
H490 H 0.11727 0.91018 0.18026 0.0
H491 H 0.1242 0.96108 0.20308 0.0
H492 H 0.17052 0.08315 0.17605 0.0
H493 H 0.12681 1.02543 0.1894 0.0
H494 H 0.24103 0.98577 0.0482 0.0
H495 H 0.2033 0.92858 0.06595 0.0
H496 H 0.29222 0.0543 0.0667 0.0
H497 H 0.29229 0.1046 0.08558 0.0
C498 C 0.25406 0.19914 0.60146 0.0
C499 C 0.26327 0.17899 0.63248 0.0
C500 C 0.21355 0.20207 0.66914 0.0
C501 C 0.20252 0.22005 0.63784 0.0
N502 N 0.20309 0.22584 0.57302 0.0
N503 N 0.24328 0.15185 0.69402 0.0
C504 C 0.22002 0.21557 0.60359 0.0
C505 C 0.24001 0.17715 0.66567 0.0
N506 N 0.27857 0.20353 0.5701 0.0
N507 N 0.20098 0.21104 0.70248 0.0
H508 H 0.2626 0.13354 0.6928 0.0
H509 H 0.22308 0.14509 0.71756 0.0
H510 H 0.18207 0.22961 0.70629 0.0
H511 H 0.21293 0.20394 0.72654 0.0
H512 H 0.2779 0.22322 0.54806 0.0
H513 H 0.30211 0.19002 0.56676 0.0
H514 H 0.21048 0.21846 0.54706 0.0
H515 H 0.17797 0.23771 0.57357 0.0
C516 C 0.06738 0.16093 0.14998 0.0
C517 C 1.0349 0.16914 0.12925 0.0
C518 C 0.10343 0.23708 0.09951 0.0
C519 C 0.13559 0.23473 0.12483 0.0
N520 N 0.14831 0.19289 0.17395 0.0
N521 N 1.02133 0.21581 0.08476 0.0
C522 C 0.1178 0.19564 0.14957 0.0
C523 C 1.05278 0.20703 0.10378 0.0
N524 N 1.04989 0.11964 0.1698 0.0
N525 N 0.12152 0.26776 0.0709 0.0
H526 H 0.98393 0.194 0.08631 0.0
H527 H 1.03209 0.24658 0.06927 0.0
H528 H 0.15835 0.29029 0.0668 0.0
H529 H 0.10053 0.26746 0.04935 0.0
H530 H 0.07174 0.10866 0.18261 0.0
H531 H 1.0132 0.09407 0.17089 0.0
H532 H 0.13662 0.16954 0.19582 0.0
H533 H 0.18555 0.21527 0.17334 0.0
C534 C 0.88201 1.03622 0.61563 0.0
C535 C 0.88431 1.01748 0.64974 0.0
C536 C 0.92806 0.10019 0.67454 0.0
C537 C 0.91966 0.11817 0.64198 0.0
N538 N 0.88648 0.10307 0.58177 0.0
N539 N 0.90492 1.0307 0.71289 0.0
C540 C 0.89603 0.08605 0.61258 0.0
C541 C 0.90644 0.04927 0.67949 0.0
N542 N 0.86785 1.00663 0.58586 0.0
N543 N 0.95689 0.13167 0.70071 0.0
H544 H 0.88964 0.99373 0.71752 0.0
H545 H 0.91521 0.05143 0.73648 0.0
H546 H 0.97331 0.16896 0.69814 0.0
H547 H 0.96832 0.1211 0.72341 0.0
H548 H 0.87024 1.01899 0.55961 0.0
H549 H 0.85772 0.9701 0.58695 0.0
H550 H 0.86396 0.08073 0.5613 0.0
H551 H 0.89898 0.13967 0.57738 0.0
C552 C 0.92095 0.90414 0.13058 0.0
C553 C 0.90681 0.86417 0.15395 0.0
C554 C 0.83258 0.86554 0.16895 0.0
C555 C 0.84321 0.90099 0.1419 0.0
N556 N 0.89782 0.95492 0.09718 0.0
N557 N 0.84936 0.80613 0.19532 0.0
C558 C 0.88795 0.92118 0.12319 0.0
C559 C 0.86288 0.84505 0.17334 0.0
N560 N 0.96589 0.92556 0.11538 0.0
N561 N 0.79417 0.85255 0.19148 0.0
H562 H 0.87202 0.79235 0.20152 0.0
H563 H 0.81483 0.78575 0.20601 0.0
H564 H 0.77075 0.86605 0.18906 0.0
H565 H 0.78783 0.83189 0.21457 0.0
H566 H 0.98072 0.95759 0.10093 0.0
H567 H 0.99004 0.91294 0.11929 0.0
H568 H 0.9269 0.9674 0.07951 0.0
H569 H 0.87536 0.96917 0.09211 0.0
C570 C 0.99972 0.84534 0.66204 0.0
C571 C 0.98049 0.8189 0.62934 0.0
C572 C 0.06269 0.85653 0.60393 0.0
C573 C 0.08148 0.88486 0.63583 0.0
N574 N 0.06682 0.9133 0.69234 0.0
N575 N 0.99244 0.80729 0.56656 0.0
C576 C 1.04959 0.88139 0.66398 0.0
C577 C 1.0117 0.82684 0.59953 0.0
N578 N 0.9711 0.83436 0.69196 0.0
N579 N 0.09365 0.85658 0.57832 0.0
H580 H 0.95535 0.78631 0.56212 0.0
H581 H 1.0127 0.81567 0.54293 0.0
H582 H 0.13105 0.87832 0.58018 0.0
H583 H 0.08254 0.83223 0.55675 0.0
H584 H 0.98438 0.84791 0.71764 0.0
H585 H 0.93456 0.80858 0.69191 0.0
H586 H 1.04467 0.91625 0.7117 0.0
H587 H 0.10304 0.93987 0.6948 0.0
C588 C 0.10827 0.92991 0.39012 0.0
C589 C 0.12296 0.90817 0.41695 0.0
C590 C 1.03794 0.85237 0.43208 0.0
C591 C 1.0233 0.87341 0.4049 0.0
N592 N 1.04346 0.93955 0.36469 0.0
N593 N 0.10253 0.8594 0.47034 0.0
C594 C 0.05824 0.9147 0.38613 0.0
C595 C 0.08788 0.87288 0.44018 0.0
N596 N 0.14147 0.96291 0.36702 0.0
N597 N 1.00434 0.81133 0.449 0.0
H598 H 0.13879 0.87433 0.47732 0.0
H599 H 0.07895 0.83728 0.4902 0.0
H600 H 0.96735 0.7955 0.44429 0.0
H601 H 1.0132 0.79091 0.46581 0.0
H602 H 0.13231 0.97498 0.34396 0.0
H603 H 0.17841 0.97676 0.36978 0.0
H604 H 0.06703 0.97277 0.35316 0.0
H605 H 1.00713 0.92901 0.36106 0.0
C606 C 0.24507 0.03897 0.86484 0.0
C607 C 0.20036 1.01931 0.88313 0.0
C608 C 0.22591 0.09927 0.91067 0.0
C609 C 0.27005 0.11935 0.89091 0.0
N610 N 0.3098 0.11033 0.83836 0.0
N611 N 0.14355 1.0328 0.917 0.0
C612 C 0.27614 0.08971 0.86486 0.0
C613 C 0.18932 0.05018 0.90406 0.0
N614 N 0.25902 1.00934 0.84834 0.0
N615 N 0.21931 0.126 0.93669 0.0
H616 H 0.11611 0.99728 0.91248 0.0
H617 H 0.13165 0.05456 0.92921 0.0
H618 H 0.24377 0.16221 0.94152 0.0
H619 H 0.19082 0.11147 0.955 0.0
H620 H 0.29363 1.02203 0.83799 0.0
H621 H 0.23791 0.97175 0.84802 0.0
H622 H 0.31325 0.09087 0.8169 0.0
H623 H 0.32887 0.14746 0.83504 0.0
C624 C 0.23032 0.25254 0.37032 0.0
C625 C 0.19632 0.24701 0.39754 0.0
C626 C 0.19317 0.17153 0.41648 0.0
C627 C 0.23187 0.18113 0.39265 0.0
N628 N 0.29024 0.23272 0.34877 0.0
N629 N 0.14689 0.20227 0.44802 0.0
C630 C 0.25101 0.22201 0.36994 0.0
C631 C 0.17759 0.20635 0.42074 0.0
N632 N 0.24175 0.28612 0.34392 0.0
N633 N 0.17112 0.12889 0.43482 0.0
H634 H 0.13385 0.22619 0.45145 0.0
H635 H 0.13655 0.17701 0.46857 0.0
H636 H 0.18228 0.10325 0.43277 0.0
H637 H 0.13962 0.11716 0.44975 0.0
H638 H 0.26163 0.28819 0.32098 0.0
H639 H 0.22732 0.30897 0.34305 0.0
H640 H 0.30987 0.26534 0.33526 0.0
H641 H 0.30546 0.21045 0.34664 0.0
C642 C 0.06524 0.19166 0.87017 0.0
C643 C 0.09618 0.22318 0.89754 0.0
C644 C 1.02499 0.20895 0.93301 0.0
C645 C 0.9943 0.18307 0.90349 0.0
N646 N 0.98631 0.15356 0.84211 0.0
N647 N 0.10593 0.26592 0.95372 0.0
C648 C 1.01464 0.17494 0.87169 0.0
C649 C 0.07613 0.23271 0.92872 0.0
N650 N 0.08413 0.1768 0.84303 0.0
N651 N 1.00514 0.20959 0.96564 0.0
H652 H 0.14347 0.28388 0.95173 0.0
H653 H 0.09354 0.2786 0.97486 0.0
H654 H 0.96797 0.1919 0.97001 0.0
H655 H 1.02524 0.22335 0.98922 0.0
H656 H 0.06305 0.14966 0.82453 0.0
H657 H 0.12093 0.1886 0.84085 0.0
H658 H 1.00004 0.1526 0.81676 0.0
H659 H 0.94918 0.13948 0.84209 0.0
C660 C 0.91887 1.02246 0.40885 0.0
C661 C 0.90901 0.05559 0.3905 0.0
C662 C 0.83037 0.98816 0.37163 0.0
C663 C 0.83744 0.95569 0.39361 0.0
N664 N 0.88634 0.94397 0.43733 0.0
N665 N 0.85148 0.07091 0.35989 0.0
C666 C 0.88137 0.97329 0.41315 0.0
C667 C 0.86373 0.03863 0.37335 0.0
N668 N 0.9643 0.03787 0.42173 0.0
N669 N 0.79257 0.97083 0.34792 0.0
H670 H 0.87455 0.10824 0.36053 0.0
H671 H 0.81678 0.06098 0.35112 0.0
H672 H 0.76711 0.93437 0.34521 0.0
H673 H 0.78923 0.99205 0.3282 0.0
H674 H 0.97534 1.01462 0.432 0.0
H675 H 0.99221 0.07354 0.41932 0.0
H676 H 0.91543 0.95595 0.45498 0.0
H677 H 0.85922 0.90855 0.44207 0.0
C678 C 0.93252 0.8613 0.91857 0.0
C679 C 0.91551 0.82218 0.8935 0.0
C680 C 0.86244 0.84862 0.86605 0.0
C681 C 0.88138 0.88931 0.88966 0.0
N682 N 0.9405 0.93926 0.93417 0.0
N683 N 0.87357 0.78602 0.8378 0.0
C684 C 0.9183 0.89711 0.91468 0.0
C685 C 0.88315 0.81804 0.86562 0.0
N686 N 0.96052 0.86313 0.94701 0.0
N687 N 0.82339 0.83804 0.84486 0.0
H688 H 0.88936 0.7643 0.8358 0.0
H689 H 0.85426 0.78469 0.81482 0.0
H690 H 0.80702 0.85934 0.84433 0.0
H691 H 0.80454 0.80588 0.83023 0.0
H692 H 0.96959 0.88747 0.96846 0.0
H693 H 0.97189 0.83792 0.95058 0.0
H694 H 0.97102 0.94957 0.95001 0.0
H695 H 0.93076 0.96592 0.9322 0.0
C696 C 0.1516 0.65214 0.17757 0.0
C697 C 0.1458 0.67388 0.1463 0.0
C698 C 0.17918 0.63229 0.11005 0.0
C699 C 0.17739 0.6039 0.14004 0.0
N700 N 0.19788 0.61905 0.20334 0.0
N701 N 0.14773 0.6785 0.08139 0.0
C702 C 0.17267 0.62164 0.17466 0.0
C703 C 0.15682 0.66122 0.11216 0.0
N704 N 0.13861 0.66194 0.21032 0.0
N705 N 0.21075 0.64011 0.08256 0.0
H706 H 0.13207 0.70041 0.08177 0.0
H707 H 0.15166 0.66714 0.05572 0.0
H708 H 0.23659 0.62925 0.0842 0.0
H709 H 0.21679 0.664 0.06155 0.0
H710 H 0.13812 0.64391 0.23379 0.0
H711 H 0.12393 0.68464 0.21308 0.0
H712 H 0.19886 0.63433 0.22854 0.0
H713 H 0.22487 0.60996 0.19995 0.0
C714 C 0.58882 0.16611 0.6621 0.0
C715 C 0.60215 0.15135 0.62973 0.0
C716 C 0.51692 0.11188 0.61013 0.0
C717 C 0.50597 0.13466 0.63889 0.0
N718 N 0.53251 0.1848 0.69244 0.0
N719 N 0.57886 0.1139 0.5708 0.0
C720 C 0.54225 0.16197 0.66502 0.0
C721 C 0.56602 0.12464 0.60335 0.0
N722 N 0.62021 0.18275 0.69058 0.0
N723 N 0.48052 0.07806 0.58917 0.0
H724 H 0.6143 0.12352 0.56432 0.0
H725 H 0.55517 0.09939 0.54906 0.0
H726 H 0.44439 0.0675 0.59362 0.0
H727 H 0.48562 0.05699 0.56991 0.0
H728 H 0.61103 0.18962 0.71608 0.0
H729 H 0.65393 0.18499 0.6898 0.0
H730 H 0.55891 0.21024 0.70955 0.0
H731 H 0.49819 0.18009 0.69695 0.0
C732 C 0.4929 0.55684 0.14808 0.0
C733 C 0.4898 0.58882 0.12306 0.0
C734 C 0.4116 0.52235 0.10234 0.0
C735 C 0.41124 0.49204 0.13071 0.0
N736 N 0.44998 0.48392 0.18382 0.0
N737 N 0.44111 0.60393 0.08138 0.0
C738 C 0.45173 0.51005 0.1543 0.0
C739 C 0.44784 0.572 0.1015 0.0
N740 N 0.5355 0.5709 0.16555 0.0
N741 N 0.37798 0.50371 0.0753 0.0
H742 H 0.46615 0.64076 0.0802 0.0
H743 H 0.40855 0.59479 0.06871 0.0
H744 H 0.35047 0.46786 0.07397 0.0
H745 H 0.38032 0.52277 0.05198 0.0
H746 H 0.54178 0.54771 0.18131 0.0
H747 H 0.56606 0.60466 0.16166 0.0
H748 H 0.47597 0.49741 0.20415 0.0
H749 H 0.42049 0.45019 0.18966 0.0
C750 C 0.98674 0.48454 0.60982 0.0
C751 C 0.94614 0.4839 0.62647 0.0
C752 C 0.92865 0.40917 0.65775 0.0
C753 C 0.96337 0.40513 0.63623 0.0
N754 N 1.02659 0.43936 0.59183 0.0
N755 N 0.87503 0.44205 0.66375 0.0
C756 C 0.99333 0.44334 0.61265 0.0
C757 C 0.91655 0.4456 0.65018 0.0
N758 N 1.01928 0.52486 0.59169 0.0
N759 N 0.90743 0.37809 0.68581 0.0
H760 H 0.86399 0.46714 0.65851 0.0
H761 H 0.84927 0.41193 0.67764 0.0
H762 H 0.91635 0.35172 0.69244 0.0
H763 H 0.88522 0.38181 0.70471 0.0
H764 H 1.05189 0.52974 0.58167 0.0
H765 H 1.01549 0.55541 0.5894 0.0
H766 H 1.04538 0.46271 0.57082 0.0
H767 H 1.03379 0.41103 0.59452 0.0
C768 C 0.58765 0.96967 0.10783 0.0
C769 C 0.6012 0.94718 0.13467 0.0
C770 C 0.51729 0.90274 0.1562 0.0
C771 C 0.50301 0.92386 0.12873 0.0
N772 N 0.52542 0.98407 0.08268 0.0
N773 N 0.58313 0.90742 0.1918 0.0
C774 C 0.53858 0.95949 0.10582 0.0
C775 C 0.56714 0.9182 0.16108 0.0
N776 N 0.62169 1.00031 0.08412 0.0
N777 N 0.48307 0.8666 0.17691 0.0
H778 H 0.61988 0.92173 0.19693 0.0
H779 H 0.56105 0.88976 0.21374 0.0
H780 H 0.44623 0.85433 0.1744 0.0
H781 H 0.49084 0.84615 0.19456 0.0
H782 H 0.61411 1.01412 0.06131 0.0
H783 H 0.65821 1.01156 0.08728 0.0
H784 H 0.54965 1.01325 0.06727 0.0
H785 H 0.48995 0.97707 0.08043 0.0
C786 C 0.692 0.54414 0.66217 0.0
C787 C 0.69243 0.58195 0.64175 0.0
C788 C 0.61092 0.52373 0.61909 0.0
C789 C 0.61392 0.48491 0.63514 0.0
N790 N 0.65935 0.45784 0.67005 0.0
N791 N 0.65343 0.60673 0.59815 0.0
C792 C 0.65477 0.49514 0.65658 0.0
C793 C 0.65182 0.57163 0.61991 0.0
N794 N 0.72753 0.55532 0.68711 0.0
N795 N 0.56863 0.51481 0.60333 0.0
H796 H 0.68214 0.64209 0.59837 0.0
H797 H 0.62788 0.60013 0.57826 0.0
H798 H 0.53826 0.48036 0.60217 0.0
H799 H 0.56222 0.54197 0.59436 0.0
H800 H 0.72701 0.53068 0.7056 0.0
H801 H 0.75553 0.59057 0.69149 0.0
H802 H 0.69075 0.46237 0.68211 0.0
H803 H 0.63295 0.42164 0.66682 0.0
C804 C 0.42774 0.93591 0.37569 0.0
C805 C 0.39182 0.91556 0.40299 0.0
C806 C 0.43433 0.87622 0.42913 0.0
C807 C 0.47228 0.89985 0.40392 0.0
N808 N 0.50934 0.95872 0.35685 0.0
N809 N 0.36837 0.87603 0.46108 0.0
C810 C 0.47027 0.93175 0.37828 0.0
C811 C 0.39737 0.88861 0.43127 0.0
N812 N 0.42025 0.9569 0.34631 0.0
N813 N 0.43227 0.84022 0.45017 0.0
H814 H 0.34105 0.88447 0.46455 0.0
H815 H 0.37462 0.86151 0.48415 0.0
H816 H 0.4582 0.82943 0.44934 0.0
H817 H 0.40236 0.8178 0.46587 0.0
H818 H 0.44257 0.96764 0.32371 0.0
H819 H 0.38938 0.95978 0.34306 0.0
H820 H 0.51216 0.98621 0.34028 0.0
H821 H 0.54078 0.9564 0.35796 0.0
C822 C 0.58353 0.47749 0.91421 0.0
C823 C 0.62132 0.4735 0.89696 0.0
C824 C 0.56053 0.39614 0.86945 0.0
C825 C 0.52374 0.39653 0.89096 0.0
N826 N 0.49997 0.43757 0.93431 0.0
N827 N 0.64628 0.42866 0.85844 0.0
C828 C 0.53502 0.43766 0.91298 0.0
C829 C 0.60983 0.43285 0.87439 0.0
N830 N 0.59412 0.51947 0.93188 0.0
N831 N 0.54789 0.36107 0.84351 0.0
H832 H 0.68239 0.45578 0.85992 0.0
H833 H 0.64122 0.39739 0.84541 0.0
H834 H 0.51208 0.33467 0.83864 0.0
H835 H 0.57188 0.36074 0.82455 0.0
H836 H 0.56808 0.52714 0.94177 0.0
H837 H 0.62919 0.54851 0.93433 0.0
H838 H 0.50671 0.46312 0.95447 0.0
H839 H 0.46398 0.41032 0.93315 0.0
C840 C 0.20041 0.57417 0.431 0.0
C841 C 0.17328 0.58879 0.40964 0.0
C842 C 0.13517 0.50892 0.37879 0.0
C843 C 0.15901 0.49294 0.40271 0.0
N844 N 0.20533 0.50807 0.45775 0.0
N845 N 0.10955 0.56773 0.36643 0.0
C846 C 0.18904 0.52497 0.43054 0.0
C847 C 0.1391 0.55544 0.3844 0.0
N848 N 0.23838 0.60774 0.45108 0.0
N849 N 0.11051 0.48074 0.34981 0.0
H850 H 0.11193 0.60141 0.3695 0.0
H851 H 0.0805 0.54344 0.35063 0.0
H852 H 0.10703 0.44689 0.34488 0.0
H853 H 0.09678 0.49242 0.32921 0.0
H854 H 0.2629 0.6003 0.46392 0.0
H855 H 0.24844 0.64428 0.45187 0.0
H856 H 0.2226 0.5284 0.48071 0.0
H857 H 0.19722 0.47225 0.45958 0.0
C858 C 0.66803 0.11514 0.91318 0.0
C859 C 0.70966 0.14671 0.89267 0.0
C860 C 0.67323 0.19786 0.88024 0.0
C861 C 0.63209 0.16701 0.90118 0.0
N862 N 0.58505 0.09012 0.93008 0.0
N863 N 0.74302 0.20768 0.84678 0.0
C864 C 0.62792 0.12369 0.9153 0.0
C865 C 0.7093 0.18477 0.87311 0.0
N866 N 0.66725 0.07806 0.93182 0.0
N867 N 0.67911 0.24094 0.86841 0.0
H868 H 0.76852 0.1976 0.83985 0.0
H869 H 0.74229 0.2326 0.82919 0.0
H870 H 0.65367 0.25187 0.87288 0.0
H871 H 0.71092 0.26754 0.85675 0.0
H872 H 0.64147 0.05818 0.95126 0.0
H873 H 0.69358 0.06812 0.92898 0.0
H874 H 0.57745 0.05562 0.93748 0.0
H875 H 0.55528 0.09523 0.9321 0.0
C876 C 0.50196 0.63425 0.38395 0.0
C877 C 0.49561 0.58851 0.39349 0.0
C878 C 0.58431 0.62261 0.39042 0.0
C879 C 0.5905 0.66857 0.38048 0.0
N880 N 0.55235 0.7111 0.35554 0.0
N881 N 0.52944 0.53618 0.3981 0.0
C882 C 0.54833 0.67193 0.37332 0.0
C883 C 0.53648 0.58184 0.39434 0.0
N884 N 0.46421 0.64294 0.38685 0.0
N885 N 0.6236 0.61777 0.39744 0.0
H886 H 0.49521 0.50598 0.40111 0.0
H887 H 0.55677 0.5276 0.39514 0.0
H888 H 0.65869 0.64411 0.39139 0.0
H889 H 0.62151 0.58783 0.4102 0.0
H890 H 0.46825 0.67732 0.38457 0.0
H891 H 0.42968 0.6169 0.39492 0.0
H892 H 0.52273 0.71321 0.34616 0.0
H893 H 0.58523 0.7392 0.34667 0.0
C894 C 0.95815 0.56437 0.92534 0.0
C895 C 0.95737 0.58014 0.88979 0.0
C896 C 0.91698 0.49484 0.86956 0.0
C897 C 0.92497 0.48011 0.90392 0.0
N898 N 0.91752 0.49782 0.96621 0.0
N899 N 0.93918 0.56009 0.82701 0.0
C900 C 0.93601 0.51406 0.93265 0.0
C901 C 0.93819 0.54522 0.86156 0.0
N902 N 0.97923 0.59727 0.95265 0.0
N903 N 0.88072 0.46213 0.84801 0.0
H904 H 0.95401 0.59655 0.82049 0.0
H905 H 0.92961 0.53671 0.80484 0.0
H906 H 0.8541 0.42913 0.85821 0.0
H907 H 0.87109 0.4711 0.82365 0.0
H908 H 0.98434 0.58762 0.97839 0.0
H909 H 0.99594 0.63434 0.94859 0.0
H910 H 0.92016 0.52073 0.98743 0.0
H911 H 0.8934 0.46135 0.97105 0.0
C912 C 0.1886 0.32978 0.28465 0.0
C913 C 0.20661 0.37411 0.30432 0.0
C914 C 0.26248 0.41633 0.25373 0.0
C915 C 0.24674 0.37149 0.23536 0.0
N916 N 0.20225 0.28444 0.23764 0.0
N917 N 0.26433 0.45887 0.30935 0.0
C918 C 0.21163 0.32795 0.25194 0.0
C919 C 0.24465 0.41719 0.28929 0.0
N920 N 0.14918 0.28901 0.29718 0.0
N921 N 0.29377 0.45831 0.23672 0.0
H922 H 0.25159 0.46076 0.33494 0.0
H923 H 0.29531 0.49056 0.30201 0.0
H924 H 0.30791 0.45887 0.21117 0.0
H925 H 0.30312 0.49255 0.24657 0.0
H926 H 0.13036 0.25747 0.28186 0.0
H927 H 0.13339 0.28735 0.32217 0.0
H928 H 0.18148 0.25157 0.25059 0.0
H929 H 0.21903 0.28135 0.21442 0.0
C930 C 0.93378 0.26865 0.7657 0.0
C931 C 0.90673 0.24046 0.73561 0.0
C932 C 0.84475 0.18356 0.7777 0.0
C933 C 0.87684 0.20603 0.80722 0.0
N934 N 0.9523 0.27075 0.8294 0.0
N935 N 0.8342 0.17286 0.71257 0.0
C936 C 0.92102 0.24948 0.80133 0.0
C937 C 0.86095 0.19897 0.74155 0.0
N938 N 0.97214 0.31372 0.75992 0.0
N939 N 0.79899 0.14695 0.78438 0.0
H940 H 0.84401 0.18512 0.68629 0.0
H941 H 0.80344 0.13895 0.71437 0.0
H942 H 0.78662 0.13509 0.81048 0.0
H943 H 0.7722 0.13127 0.76476 0.0
H944 H 0.99133 0.33808 0.78058 0.0
H945 H 0.98149 0.32837 0.73409 0.0
H946 H 0.98756 0.29901 0.82641 0.0
H947 H 0.9435 0.25807 0.85565 0.0
C948 C 0.75557 0.9092 0.2486 0.0
C949 C 0.71306 0.89181 0.22719 0.0
C950 C 0.66977 0.82466 0.26983 0.0
C951 C 0.71143 0.84353 0.29224 0.0
N952 N 0.79805 0.89326 0.29575 0.0
N953 N 0.62814 0.83647 0.21963 0.0
C954 C 0.75543 0.88323 0.27983 0.0
C955 C 0.66978 0.85041 0.23842 0.0
N956 N 0.79642 0.95087 0.23918 0.0
N957 N 0.6313 0.78018 0.27713 0.0
H958 H 0.6272 0.85344 0.19606 0.0
H959 H 0.5941 0.8106 0.22859 0.0
H960 H 0.63144 0.75909 0.29833 0.0
H961 H 0.6016 0.76176 0.26017 0.0
H962 H 0.82595 0.96941 0.25631 0.0
H963 H 0.80005 0.96873 0.21499 0.0
H964 H 0.83186 0.91761 0.28546 0.0
H965 H 0.80016 0.87389 0.31745 0.0
C966 C 0.84044 0.67391 0.75713 0.0
C967 C 0.87054 0.69413 0.72625 0.0
C968 C 0.94126 0.72146 0.76486 0.0
C969 C 0.91193 0.69714 0.79529 0.0
N970 N 0.83233 0.64231 0.81789 0.0
N971 N 0.94821 0.71925 0.70012 0.0
C972 C 0.86101 0.6708 0.79068 0.0
C973 C 0.92042 0.71163 0.72991 0.0
N974 N 0.79228 0.65848 0.75464 0.0
N975 N 0.98803 0.7573 0.7692 0.0
H976 H 0.93246 0.7068 0.67496 0.0
H977 H 0.9849 0.73032 0.70152 0.0
H978 H 1.00287 0.77164 0.79438 0.0
H979 H 1.00927 0.77786 0.7477 0.0
H980 H 0.76949 0.64875 0.77696 0.0
H981 H 0.77568 0.65768 0.73025 0.0
H982 H 0.79548 0.61854 0.81478 0.0
H983 H 0.8461 0.63952 0.84267 0.0
C984 C 0.17107 0.82072 0.26727 0.0
C985 C 0.19674 0.85322 0.2388 0.0
C986 C 0.25572 0.9089 0.28337 0.0
C987 C 0.22502 0.88103 0.31203 0.0
N988 N 0.15349 0.80965 0.33153 0.0
N989 N 0.26301 0.92952 0.21989 0.0
C990 C 0.18311 0.83623 0.30405 0.0
C991 C 0.23941 0.89734 0.24686 0.0
N992 N 0.13498 0.77505 0.25905 0.0
N993 N 0.3007 0.94644 0.29118 0.0
H994 H 0.25265 0.92184 0.19294 0.0
H995 H 0.29081 0.96475 0.22445 0.0
H996 H 0.31376 0.95518 0.31755 0.0
H997 H 0.32662 0.96556 0.27161 0.0
H998 H 0.11771 0.74802 0.27814 0.0
H999 H 0.12519 0.76284 0.23255 0.0
H1000 H 0.11932 0.77977 0.32768 0.0
H1001 H 0.16246 0.81915 0.35851 0.0
C1002 C 0.40472 0.26071 0.77277 0.0
C1003 C 0.40666 0.23376 0.80227 0.0
C1004 C 0.41424 0.17836 0.75906 0.0
C1005 C 0.40183 0.19936 0.73019 0.0
N1006 N 0.38549 0.26117 0.70965 0.0
N1007 N 0.42208 0.17234 0.82408 0.0
C1008 C 0.3983 0.24145 0.73698 0.0
C1009 C 0.41529 0.19483 0.79546 0.0
N1010 N 0.40916 0.305 0.77924 0.0
N1011 N 0.42346 0.14167 0.75155 0.0
H1012 H 0.4248 0.18558 0.85024 0.0
H1013 H 0.42413 0.14085 0.82238 0.0
H1014 H 0.42182 0.12849 0.7254 0.0
H1015 H 0.43535 0.12601 0.77044 0.0
H1016 H 0.4122 0.32868 0.75892 0.0
H1017 H 0.41504 0.32002 0.80517 0.0
H1018 H 0.37614 0.28788 0.71345 0.0
H1019 H 0.3817 0.24868 0.6832 0.0
C1020 C 0.30122 0.25507 1.01054 0.0
C1021 C 0.34905 0.28271 0.99687 0.0
C1022 C 0.35784 0.35214 0.03426 0.0
C1023 C 0.30777 0.32655 0.04391 0.0
N1024 N 0.23108 0.25316 0.03816 0.0
N1025 N 0.42406 0.35816 0.99761 0.0
C1026 C 0.27934 0.278 0.03092 0.0
C1027 C 0.37747 0.33142 1.00927 0.0
N1028 N 0.27715 0.20613 1.00555 0.0
N1029 N 0.38748 0.39632 0.04955 0.0
H1030 H 0.44226 0.34316 0.98409 0.0
H1031 H 0.44463 0.39552 1.00058 0.0
H1032 H 0.37489 0.41466 0.06535 0.0
H1033 H 0.42498 0.41388 0.04844 0.0
H1034 H 0.24437 0.18289 0.01786 0.0
H1035 H 0.29248 0.18815 0.99218 0.0
H1036 H 0.20716 0.22036 0.02583 0.0
H1037 H 0.21434 0.26679 0.05484 0.0
C1038 C 0.06885 0.35768 0.50246 0.0
C1039 C 0.09472 0.33212 0.497 0.0
C1040 C 1.03558 0.26806 0.53791 0.0
C1041 C 1.01012 0.29393 0.54394 0.0
N1042 N 1.00022 0.36157 0.52731 0.0
N1043 N 0.10701 0.26695 0.51606 0.0
C1044 C 1.02611 0.33805 0.52476 0.0
C1045 C 0.07938 0.28869 0.51682 0.0
N1046 N 0.08778 0.40337 0.4891 0.0
N1047 N 1.01556 0.22142 0.54952 0.0
H1048 H 0.13737 0.27857 0.49982 0.0
H1049 H 0.10224 0.23972 0.53373 0.0
H1050 H 0.9821 0.20322 0.56214 0.0
H1051 H 1.02887 0.19846 0.54279 0.0
H1052 H 0.07518 0.42699 0.4955 0.0
H1053 H 0.11965 0.42023 0.47449 0.0
H1054 H 1.00383 0.38816 0.50946 0.0
H1055 H 0.97342 0.35359 0.54639 0.0
C1056 C 0.81223 1.01269 0.02284 0.0
C1057 C 0.76423 0.99336 0.03602 0.0
C1058 C 0.75846 0.05839 1.00391 0.0
C1059 C 0.80731 0.07943 0.9917 0.0
N1060 N 0.88268 0.07913 0.99445 0.0
N1061 N 0.68741 0.98808 0.02756 0.0
C1062 C 0.83443 0.05667 1.00202 0.0
C1063 C 0.73638 1.01384 0.02358 0.0
N1064 N 0.83628 0.9881 0.02936 0.0
N1065 N 0.73271 0.08128 0.99755 0.0
H1066 H 0.66974 0.95478 0.04053 0.0
H1067 H 0.66394 0.9969 1.01463 0.0
H1068 H 0.74462 0.1112 0.98099 0.0
H1069 H 0.70021 0.07201 1.01043 0.0
H1070 H 0.86905 0.99629 0.01753 0.0
H1071 H 0.8213 0.95646 0.04437 0.0
H1072 H 0.90609 0.06822 1.0045 0.0
H1073 H 0.90076 0.11166 0.98068 0.0
C1074 C 0.76213 0.75731 0.54713 0.0
C1075 C 0.78495 0.73062 0.53612 0.0
C1076 C 0.75253 0.73097 0.4756 0.0
C1077 C 0.7465 0.77148 0.48459 0.0
N1078 N 0.75539 0.8272 0.5336 0.0
N1079 N 0.7975 0.68951 0.48511 0.0
C1080 C 0.75472 0.7863 0.52162 0.0
C1081 C 0.78012 0.71778 0.49869 0.0
N1082 N 0.74184 0.75102 0.58034 0.0
N1083 N 0.72656 0.70037 0.44821 0.0
H1084 H 0.81061 0.67184 0.50093 0.0
H1085 H 0.79892 0.68423 0.45738 0.0
H1086 H 0.69834 0.70206 0.43589 0.0
H1087 H 0.72732 0.6687 0.4423 0.0
H1088 H 0.72139 0.76706 0.5878 0.0
H1089 H 0.74079 0.72585 0.59842 0.0
H1090 H 0.76286 0.83838 0.56055 0.0
H1091 H 0.75475 0.85268 0.51674 0.0
C1092 C 0.07025 0.75421 0.98164 0.0
C1093 C 1.02061 0.73526 0.99121 0.0
C1094 C 1.04955 0.7399 0.05366 0.0
C1095 C 0.09818 0.77555 0.04471 0.0
N1096 N 0.15234 0.81518 0.99398 0.0
N1097 N 0.96477 0.70777 0.0418 0.0
C1098 C 0.10768 0.78324 1.00691 0.0
C1099 C 1.01082 0.72873 0.02895 0.0
N1100 N 0.08258 0.73917 0.95098 0.0
N1101 N 1.04026 0.7107 0.08269 0.0
H1102 H 0.93418 0.69229 0.02559 0.0
H1103 H 0.95763 0.70665 0.0694 0.0
H1104 H 0.06728 0.71064 0.09797 0.0
H1105 H 1.00597 0.68179 0.08822 0.0
H1106 H 0.11816 0.74872 0.94492 0.0
H1107 H 0.05718 0.71269 0.9342 0.0
H1108 H 0.15853 0.82231 0.96645 0.0
H1109 H 0.18238 0.83634 1.00982 0.0
C1110 C 0.26697 1.00685 0.51936 0.0
C1111 C 0.29408 0.98765 0.50247 0.0
C1112 C 0.36935 0.05813 0.52626 0.0
C1113 C 0.34244 0.0773 0.54373 0.0
N1114 N 0.26594 0.07498 0.54857 0.0
N1115 N 0.37011 0.98915 0.49894 0.0
C1116 C 0.29118 0.05251 0.53848 0.0
C1117 C 0.34501 1.01209 0.50811 0.0
N1118 N 0.21774 0.98136 0.51742 0.0
N1119 N 0.41864 0.08407 0.52597 0.0
H1120 H 0.35362 0.9544 0.48814 0.0
H1121 H 0.4059 1.0016 0.50616 0.0
H1122 H 0.43916 0.11515 0.54121 0.0
H1123 H 0.43969 0.07625 0.50866 0.0
H1124 H 0.19526 0.98887 0.53329 0.0
H1125 H 0.19888 0.95032 0.50169 0.0
H1126 H 0.22983 0.06218 0.54233 0.0
H1127 H 0.28216 0.10944 0.55993 0.0
loop_
_geom_bond_atom_site_label_1
_geom_bond_atom_site_label_2
_geom_bond_distance
_geom_bond_site_symmetry_2
_ccdc_geom_bond_type
La0 C2 2.928 . S
La0 O20 2.521 . S
La0 O21 2.628 . S
La0 O22 2.554 . S
La0 O23 2.757 . S
La0 O24 2.470 . S
La0 O29 2.482 . S
La0 O31 2.503 . S
La1 C11 2.928 . S
La1 O23 2.482 . S
La1 O25 2.503 . S
La1 O26 2.521 . S
La1 O27 2.628 . S
La1 O28 2.554 . S
La1 O29 2.757 . S
La1 O30 2.470 . S
C2 La0 2.928 . S
C2 C3 1.503 . S
C2 O20 1.261 . S
C2 O21 1.243 . S
C3 C2 1.503 . S
C3 C4 1.394 . S
C3 C8 1.373 . S
C4 C3 1.394 . S
C4 C5 1.380 . S
C4 H32 0.930 . S
C5 C4 1.380 . S
C5 C6 1.376 . S
C5 H33 0.930 . S
C6 C5 1.376 . S
C6 C7 1.370 . S
C7 C6 1.370 . S
C7 C8 1.396 . S
C7 H34 0.929 . S
C8 C3 1.373 . S
C8 C7 1.396 . S
C8 H35 0.929 . S
C9 O22 1.240 . S
C9 O23 1.289 . S
C10 O24 1.258 . S
C10 O25 1.256 . S
C11 La1 2.928 . S
C11 C12 1.503 . S
C11 O26 1.261 . S
C11 O27 1.243 . S
C12 C11 1.503 . S
C12 C13 1.394 . S
C12 C17 1.373 . S
C13 C12 1.394 . S
C13 C14 1.380 . S
C13 H36 0.930 . S
C14 C13 1.380 . S
C14 C15 1.376 . S
C14 H37 0.930 . S
C15 C14 1.376 . S
C15 C16 1.370 . S
C16 C15 1.370 . S
C16 C17 1.396 . S
C16 H38 0.929 . S
C17 C12 1.373 . S
C17 C16 1.396 . S
C17 H39 0.929 . S
C18 O28 1.240 . S
C18 O29 1.289 . S
C19 O30 1.258 . S
C19 O31 1.256 . S
O20 La0 2.521 . S
O20 C2 1.261 . S
O21 La0 2.628 . S
O21 C2 1.243 . S
O22 La0 2.554 . S
O22 C9 1.240 . S
O23 La0 2.757 . S
O23 La1 2.482 . S
O23 C9 1.289 . S
O24 La0 2.470 . S
O24 C10 1.258 . S
O25 La1 2.503 . S
O25 C10 1.256 . S
O26 La1 2.521 . S
O26 C11 1.261 . S
O27 La1 2.628 . S
O27 C11 1.243 . S
O28 La1 2.554 . S
O28 C18 1.240 . S
O29 La0 2.482 . S
O29 La1 2.757 . S
O29 C18 1.289 . S
O30 La1 2.470 . S
O30 C19 1.258 . S
O31 La0 2.503 . S
O31 C19 1.256 . S
H32 C4 0.930 . S
H33 C5 0.930 . S
H34 C7 0.929 . S
H35 C8 0.929 . S
H36 C13 0.930 . S
H37 C14 0.930 . S
H38 C16 0.929 . S
H39 C17 0.929 . S
La40 C42 2.928 . S
La40 O60 2.521 . S
La40 O61 2.628 . S
La40 O62 2.554 . S
La40 O63 2.757 . S
La40 O64 2.470 . S
La40 O69 2.482 . S
La40 O71 2.503 . S
La41 C51 2.929 1_655 S
La41 O63 2.482 . S
La41 O65 2.503 . S
La41 O66 2.521 . S
La41 O67 2.628 . S
La41 O68 2.554 . S
La41 O69 2.757 . S
La41 O70 2.470 . S
C42 La40 2.928 . S
C42 C43 1.503 . S
C42 O60 1.261 . S
C42 O61 1.243 . S
C43 C42 1.503 . S
C43 C44 1.394 . S
C43 C48 1.373 . S
C44 C43 1.394 . S
C44 C45 1.380 . S
C44 H72 0.930 . S
C45 C44 1.380 . S
C45 C46 1.376 . S
C45 H73 0.930 . S
C46 C45 1.376 . S
C46 C47 1.370 . S
C47 C46 1.370 . S
C47 C48 1.396 . S
C47 H74 0.929 . S
C48 C43 1.373 . S
C48 C47 1.396 . S
C48 H75 0.929 . S
C49 O62 1.240 . S
C49 O63 1.289 . S
C50 O64 1.258 . S
C50 O65 1.256 . S
C51 La41 2.929 1_455 S
C51 C52 1.502 . S
C51 O66 1.261 1_455 S
C51 O67 1.243 1_455 S
C52 C51 1.502 . S
C52 C53 1.394 . S
C52 C57 1.373 . S
C53 C52 1.394 . S
C53 C54 1.380 . S
C53 H76 0.930 . S
C54 C53 1.380 . S
C54 C55 1.376 . S
C54 H77 0.930 . S
C55 C54 1.376 . S
C55 C56 1.370 . S
C56 C55 1.370 . S
C56 C57 1.396 . S
C56 H78 0.929 . S
C57 C52 1.373 . S
C57 C56 1.396 . S
C57 H79 0.929 . S
C58 O68 1.240 . S
C58 O69 1.289 . S
C59 O70 1.258 . S
C59 O71 1.256 . S
O60 La40 2.521 . S
O60 C42 1.261 . S
O61 La40 2.628 . S
O61 C42 1.243 . S
O62 La40 2.554 . S
O62 C49 1.240 . S
O63 La40 2.757 . S
O63 La41 2.482 . S
O63 C49 1.289 . S
O64 La40 2.470 . S
O64 C50 1.258 . S
O65 La41 2.503 . S
O65 C50 1.256 . S
O66 La41 2.521 . S
O66 C51 1.261 1_655 S
O67 La41 2.628 . S
O67 C51 1.243 1_655 S
O68 La41 2.554 . S
O68 C58 1.240 . S
O69 La40 2.482 . S
O69 La41 2.757 . S
O69 C58 1.289 . S
O70 La41 2.470 . S
O70 C59 1.258 . S
O71 La40 2.503 . S
O71 C59 1.256 . S
H72 C44 0.930 . S
H73 C45 0.930 . S
H74 C47 0.929 . S
H75 C48 0.929 . S
H76 C53 0.930 . S
H77 C54 0.930 . S
H78 C56 0.929 . S
H79 C57 0.929 . S
La80 C82 2.928 . S
La80 O100 2.521 . S
La80 O101 2.628 . S
La80 O102 2.554 . S
La80 O103 2.757 . S
La80 O104 2.470 . S
La80 O109 2.482 . S
La80 O111 2.503 . S
La81 C91 2.929 1_565 S
La81 O103 2.482 . S
La81 O105 2.503 . S
La81 O106 2.521 . S
La81 O107 2.628 . S
La81 O108 2.554 . S
La81 O109 2.757 . S
La81 O110 2.470 . S
C82 La80 2.928 . S
C82 C83 1.503 . S
C82 O100 1.261 . S
C82 O101 1.243 . S
C83 C82 1.503 . S
C83 C84 1.394 . S
C83 C88 1.373 . S
C84 C83 1.394 . S
C84 C85 1.380 . S
C84 H112 0.930 . S
C85 C84 1.380 . S
C85 C86 1.376 . S
C85 H113 0.930 . S
C86 C85 1.376 . S
C86 C87 1.370 . S
C87 C86 1.370 . S
C87 C88 1.396 . S
C87 H114 0.929 . S
C88 C83 1.373 . S
C88 C87 1.396 . S
C88 H115 0.929 . S
C89 O102 1.240 . S
C89 O103 1.289 . S
C90 O104 1.258 . S
C90 O105 1.256 . S
C91 La81 2.929 1_545 S
C91 C92 1.503 . S
C91 O106 1.261 1_545 S
C91 O107 1.243 1_545 S
C92 C91 1.503 . S
C92 C93 1.394 . S
C92 C97 1.373 . S
C93 C92 1.394 . S
C93 C94 1.380 . S
C93 H116 0.930 . S
C94 C93 1.380 . S
C94 C95 1.376 . S
C94 H117 0.930 . S
C95 C94 1.376 . S
C95 C96 1.370 . S
C96 C95 1.370 . S
C96 C97 1.396 . S
C96 H118 0.929 . S
C97 C92 1.373 . S
C97 C96 1.396 . S
C97 H119 0.929 . S
C98 O108 1.240 . S
C98 O109 1.289 . S
C99 O110 1.258 . S
C99 O111 1.256 . S
O100 La80 2.521 . S
O100 C82 1.261 . S
O101 La80 2.628 . S
O101 C82 1.243 . S
O102 La80 2.554 . S
O102 C89 1.240 . S
O103 La80 2.757 . S
O103 La81 2.482 . S
O103 C89 1.289 . S
O104 La80 2.470 . S
O104 C90 1.258 . S
O105 La81 2.503 . S
O105 C90 1.256 . S
O106 La81 2.521 . S
O106 C91 1.261 1_565 S
O107 La81 2.628 . S
O107 C91 1.243 1_565 S
O108 La81 2.554 . S
O108 C98 1.240 . S
O109 La80 2.482 . S
O109 La81 2.757 . S
O109 C98 1.289 . S
O110 La81 2.470 . S
O110 C99 1.258 . S
O111 La80 2.503 . S
O111 C99 1.256 . S
H112 C84 0.930 . S
H113 C85 0.930 . S
H114 C87 0.929 . S
H115 C88 0.929 . S
H116 C93 0.930 . S
H117 C94 0.930 . S
H118 C96 0.929 . S
H119 C97 0.929 . S
La120 C122 2.928 . S
La120 O140 2.521 . S
La120 O141 2.628 . S
La120 O142 2.554 . S
La120 O143 2.757 . S
La120 O144 2.470 . S
La120 O149 2.482 . S
La120 O151 2.503 . S
La121 C131 2.928 . S
La121 O143 2.482 . S
La121 O145 2.503 . S
La121 O146 2.521 . S
La121 O147 2.628 . S
La121 O148 2.554 . S
La121 O149 2.757 . S
La121 O150 2.470 . S
C122 La120 2.928 . S
C122 C123 1.503 . S
C122 O140 1.261 . S
C122 O141 1.243 . S
C123 C122 1.503 . S
C123 C124 1.394 . S
C123 C128 1.373 . S
C124 C123 1.394 . S
C124 C125 1.380 . S
C124 H152 0.930 . S
C125 C124 1.380 . S
C125 C126 1.376 . S
C125 H153 0.930 . S
C126 C125 1.376 . S
C126 C127 1.370 . S
C127 C126 1.370 . S
C127 C128 1.396 . S
C127 H154 0.929 . S
C128 C123 1.373 . S
C128 C127 1.396 . S
C128 H155 0.929 . S
C129 O142 1.240 . S
C129 O143 1.289 . S
C130 O144 1.258 . S
C130 O145 1.256 . S
C131 La121 2.928 . S
C131 C132 1.503 . S
C131 O146 1.261 . S
C131 O147 1.243 . S
C132 C131 1.503 . S
C132 C133 1.394 . S
C132 C137 1.373 . S
C133 C132 1.394 . S
C133 C134 1.380 . S
C133 H156 0.930 . S
C134 C133 1.380 . S
C134 C135 1.376 . S
C134 H157 0.930 . S
C135 C134 1.376 . S
C135 C136 1.370 . S
C136 C135 1.370 . S
C136 C137 1.396 . S
C136 H158 0.929 . S
C137 C132 1.373 . S
C137 C136 1.396 . S
C137 H159 0.929 . S
C138 O148 1.240 . S
C138 O149 1.289 . S
C139 O150 1.258 . S
C139 O151 1.256 . S
O140 La120 2.521 . S
O140 C122 1.261 . S
O141 La120 2.628 . S
O141 C122 1.243 . S
O142 La120 2.554 . S
O142 C129 1.240 . S
O143 La120 2.757 . S
O143 La121 2.482 . S
O143 C129 1.289 . S
O144 La120 2.470 . S
O144 C130 1.258 . S
O145 La121 2.503 . S
O145 C130 1.256 . S
O146 La121 2.521 . S
O146 C131 1.261 . S
O147 La121 2.628 . S
O147 C131 1.243 . S
O148 La121 2.554 . S
O148 C138 1.240 . S
O149 La120 2.482 . S
O149 La121 2.757 . S
O149 C138 1.289 . S
O150 La121 2.470 . S
O150 C139 1.258 . S
O151 La120 2.503 . S
O151 C139 1.256 . S
H152 C124 0.930 . S
H153 C125 0.930 . S
H154 C127 0.929 . S
H155 C128 0.929 . S
H156 C133 0.930 . S
H157 C134 0.930 . S
H158 C136 0.929 . S
H159 C137 0.929 . S
La160 C162 2.928 . S
La160 O180 2.521 . S
La160 O181 2.628 . S
La160 O182 2.554 . S
La160 O183 2.757 . S
La160 O184 2.470 . S
La160 O189 2.482 . S
La160 O191 2.503 . S
La161 C171 2.929 1_455 S
La161 O183 2.482 . S
La161 O185 2.503 . S
La161 O186 2.521 . S
La161 O187 2.628 . S
La161 O188 2.554 . S
La161 O189 2.757 . S
La161 O190 2.470 . S
C162 La160 2.928 . S
C162 C163 1.503 . S
C162 O180 1.261 . S
C162 O181 1.243 . S
C163 C162 1.503 . S
C163 C164 1.394 . S
C163 C168 1.373 . S
C164 C163 1.394 . S
C164 C165 1.380 . S
C164 H192 0.930 . S
C165 C164 1.380 . S
C165 C166 1.376 . S
C165 H193 0.930 . S
C166 C165 1.376 . S
C166 C167 1.370 . S
C167 C166 1.370 . S
C167 C168 1.396 . S
C167 H194 0.929 . S
C168 C163 1.373 . S
C168 C167 1.396 . S
C168 H195 0.929 . S
C169 O182 1.240 . S
C169 O183 1.289 . S
C170 O184 1.258 . S
C170 O185 1.256 . S
C171 La161 2.929 1_655 S
C171 C172 1.502 . S
C171 O186 1.261 1_655 S
C171 O187 1.243 1_655 S
C172 C171 1.502 . S
C172 C173 1.394 . S
C172 C177 1.373 . S
C173 C172 1.394 . S
C173 C174 1.380 . S
C173 H196 0.930 . S
C174 C173 1.380 . S
C174 C175 1.376 . S
C174 H197 0.930 . S
C175 C174 1.376 . S
C175 C176 1.370 . S
C176 C175 1.370 . S
C176 C177 1.396 . S
C176 H198 0.929 . S
C177 C172 1.373 . S
C177 C176 1.396 . S
C177 H199 0.929 . S
C178 O188 1.240 . S
C178 O189 1.289 . S
C179 O190 1.258 . S
C179 O191 1.256 . S
O180 La160 2.521 . S
O180 C162 1.261 . S
O181 La160 2.628 . S
O181 C162 1.243 . S
O182 La160 2.554 . S
O182 C169 1.240 . S
O183 La160 2.757 . S
O183 La161 2.482 . S
O183 C169 1.289 . S
O184 La160 2.470 . S
O184 C170 1.258 . S
O185 La161 2.503 . S
O185 C170 1.256 . S
O186 La161 2.521 . S
O186 C171 1.261 1_455 S
O187 La161 2.628 . S
O187 C171 1.243 1_455 S
O188 La161 2.554 . S
O188 C178 1.240 . S
O189 La160 2.482 . S
O189 La161 2.757 . S
O189 C178 1.289 . S
O190 La161 2.470 . S
O190 C179 1.258 . S
O191 La160 2.503 . S
O191 C179 1.256 . S
H192 C164 0.930 . S
H193 C165 0.930 . S
H194 C167 0.929 . S
H195 C168 0.929 . S
H196 C173 0.930 . S
H197 C174 0.930 . S
H198 C176 0.929 . S
H199 C177 0.929 . S
La200 C202 2.928 . S
La200 O220 2.521 . S
La200 O221 2.628 . S
La200 O222 2.554 . S
La200 O223 2.757 . S
La200 O224 2.470 . S
La200 O229 2.482 . S
La200 O231 2.503 . S
La201 C211 2.929 1_545 S
La201 O223 2.482 . S
La201 O225 2.503 . S
La201 O226 2.521 . S
La201 O227 2.628 . S
La201 O228 2.554 . S
La201 O229 2.757 . S
La201 O230 2.470 . S
C202 La200 2.928 . S
C202 C203 1.503 . S
C202 O220 1.261 . S
C202 O221 1.243 . S
C203 C202 1.503 . S
C203 C204 1.394 . S
C203 C208 1.373 . S
C204 C203 1.394 . S
C204 C205 1.380 . S
C204 H232 0.930 . S
C205 C204 1.380 . S
C205 C206 1.376 . S
C205 H233 0.930 . S
C206 C205 1.376 . S
C206 C207 1.370 . S
C207 C206 1.370 . S
C207 C208 1.396 . S
C207 H234 0.929 . S
C208 C203 1.373 . S
C208 C207 1.396 . S
C208 H235 0.929 . S
C209 O222 1.240 . S
C209 O223 1.289 . S
C210 O224 1.258 . S
C210 O225 1.256 . S
C211 La201 2.929 1_565 S
C211 C212 1.503 . S
C211 O226 1.261 1_565 S
C211 O227 1.243 1_565 S
C212 C211 1.503 . S
C212 C213 1.394 . S
C212 C217 1.373 . S
C213 C212 1.394 . S
C213 C214 1.380 . S
C213 H236 0.930 . S
C214 C213 1.380 . S
C214 C215 1.376 . S
C214 H237 0.930 . S
C215 C214 1.376 . S
C215 C216 1.370 . S
C216 C215 1.370 . S
C216 C217 1.396 . S
C216 H238 0.929 . S
C217 C212 1.373 . S
C217 C216 1.396 . S
C217 H239 0.929 . S
C218 O228 1.240 . S
C218 O229 1.289 . S
C219 O230 1.258 . S
C219 O231 1.256 . S
O220 La200 2.521 . S
O220 C202 1.261 . S
O221 La200 2.628 . S
O221 C202 1.243 . S
O222 La200 2.554 . S
O222 C209 1.240 . S
O223 La200 2.757 . S
O223 La201 2.482 . S
O223 C209 1.289 . S
O224 La200 2.470 . S
O224 C210 1.258 . S
O225 La201 2.503 . S
O225 C210 1.256 . S
O226 La201 2.521 . S
O226 C211 1.261 1_545 S
O227 La201 2.628 . S
O227 C211 1.243 1_545 S
O228 La201 2.554 . S
O228 C218 1.240 . S
O229 La200 2.482 . S
O229 La201 2.757 . S
O229 C218 1.289 . S
O230 La201 2.470 . S
O230 C219 1.258 . S
O231 La200 2.503 . S
O231 C219 1.256 . S
H232 C204 0.930 . S
H233 C205 0.930 . S
H234 C207 0.929 . S
H235 C208 0.929 . S
H236 C213 0.930 . S
H237 C214 0.930 . S
H238 C216 0.929 . S
H239 C217 0.929 . S
La240 C242 2.928 . S
La240 O260 2.521 . S
La240 O261 2.628 . S
La240 O262 2.554 . S
La240 O263 2.757 . S
La240 O264 2.470 . S
La240 O269 2.482 . S
La240 O271 2.503 . S
La241 C251 2.928 . S
La241 O263 2.482 . S
La241 O265 2.503 . S
La241 O266 2.521 . S
La241 O267 2.628 . S
La241 O268 2.554 . S
La241 O269 2.757 . S
La241 O270 2.470 . S
C242 La240 2.928 . S
C242 C243 1.503 . S
C242 O260 1.261 . S
C242 O261 1.243 . S
C243 C242 1.503 . S
C243 C244 1.394 . S
C243 C248 1.373 . S
C244 C243 1.394 . S
C244 C245 1.380 . S
C244 H272 0.930 . S
C245 C244 1.380 . S
C245 C246 1.376 . S
C245 H273 0.930 . S
C246 C245 1.376 . S
C246 C247 1.370 . S
C247 C246 1.370 . S
C247 C248 1.396 . S
C247 H274 0.929 . S
C248 C243 1.373 . S
C248 C247 1.396 . S
C248 H275 0.929 . S
C249 O262 1.240 . S
C249 O263 1.289 . S
C250 O264 1.258 . S
C250 O265 1.256 . S
C251 La241 2.928 . S
C251 C252 1.503 . S
C251 O266 1.261 . S
C251 O267 1.243 . S
C252 C251 1.503 . S
C252 C253 1.394 . S
C252 C257 1.373 . S
C253 C252 1.394 . S
C253 C254 1.380 . S
C253 H276 0.930 . S
C254 C253 1.380 . S
C254 C255 1.376 . S
C254 H277 0.930 . S
C255 C254 1.376 . S
C255 C256 1.370 . S
C256 C255 1.370 . S
C256 C257 1.396 . S
C256 H278 0.929 . S
C257 C252 1.373 . S
C257 C256 1.396 . S
C257 H279 0.929 . S
C258 O268 1.240 . S
C258 O269 1.289 . S
C259 O270 1.258 . S
C259 O271 1.256 . S
O260 La240 2.521 . S
O260 C242 1.261 . S
O261 La240 2.628 . S
O261 C242 1.243 . S
O262 La240 2.554 . S
O262 C249 1.240 . S
O263 La240 2.757 . S
O263 La241 2.482 . S
O263 C249 1.289 . S
O264 La240 2.470 . S
O264 C250 1.258 . S
O265 La241 2.503 . S
O265 C250 1.256 . S
O266 La241 2.521 . S
O266 C251 1.261 . S
O267 La241 2.628 . S
O267 C251 1.243 . S
O268 La241 2.554 . S
O268 C258 1.240 . S
O269 La240 2.482 . S
O269 La241 2.757 . S
O269 C258 1.289 . S
O270 La241 2.470 . S
O270 C259 1.258 . S
O271 La240 2.503 . S
O271 C259 1.256 . S
H272 C244 0.930 . S
H273 C245 0.930 . S
H274 C247 0.929 . S
H275 C248 0.929 . S
H276 C253 0.930 . S
H277 C254 0.930 . S
H278 C256 0.929 . S
H279 C257 0.929 . S
La280 C282 2.928 . S
La280 O300 2.521 . S
La280 O301 2.628 . S
La280 O302 2.554 . S
La280 O303 2.757 . S
La280 O304 2.470 . S
La280 O309 2.482 . S
La280 O311 2.503 . S
La281 C291 2.929 1_655 S
La281 O303 2.482 . S
La281 O305 2.503 . S
La281 O306 2.521 . S
La281 O307 2.628 . S
La281 O308 2.554 . S
La281 O309 2.757 . S
La281 O310 2.470 . S
C282 La280 2.928 . S
C282 C283 1.503 . S
C282 O300 1.261 . S
C282 O301 1.243 . S
C283 C282 1.503 . S
C283 C284 1.394 . S
C283 C288 1.373 . S
C284 C283 1.394 . S
C284 C285 1.380 . S
C284 H312 0.930 . S
C285 C284 1.380 . S
C285 C286 1.376 . S
C285 H313 0.930 . S
C286 C285 1.376 . S
C286 C287 1.370 . S
C287 C286 1.370 . S
C287 C288 1.396 . S
C287 H314 0.929 . S
C288 C283 1.373 . S
C288 C287 1.396 . S
C288 H315 0.929 . S
C289 O302 1.240 . S
C289 O303 1.289 . S
C290 O304 1.258 . S
C290 O305 1.256 . S
C291 La281 2.929 1_455 S
C291 C292 1.503 . S
C291 O306 1.261 1_455 S
C291 O307 1.243 1_455 S
C292 C291 1.503 . S
C292 C293 1.394 . S
C292 C297 1.373 . S
C293 C292 1.394 . S
C293 C294 1.380 . S
C293 H316 0.930 . S
C294 C293 1.380 . S
C294 C295 1.376 . S
C294 H317 0.930 . S
C295 C294 1.376 . S
C295 C296 1.370 . S
C296 C295 1.370 . S
C296 C297 1.396 . S
C296 H318 0.929 . S
C297 C292 1.373 . S
C297 C296 1.396 . S
C297 H319 0.929 . S
C298 O308 1.240 . S
C298 O309 1.289 . S
C299 O310 1.258 . S
C299 O311 1.256 . S
O300 La280 2.521 . S
O300 C282 1.261 . S
O301 La280 2.628 . S
O301 C282 1.243 . S
O302 La280 2.554 . S
O302 C289 1.240 . S
O303 La280 2.757 . S
O303 La281 2.482 . S
O303 C289 1.289 . S
O304 La280 2.470 . S
O304 C290 1.258 . S
O305 La281 2.503 . S
O305 C290 1.256 . S
O306 La281 2.521 . S
O306 C291 1.261 1_655 S
O307 La281 2.628 . S
O307 C291 1.243 1_655 S
O308 La281 2.554 . S
O308 C298 1.240 . S
O309 La280 2.482 . S
O309 La281 2.757 . S
O309 C298 1.289 . S
O310 La281 2.470 . S
O310 C299 1.258 . S
O311 La280 2.503 . S
O311 C299 1.256 . S
H312 C284 0.930 . S
H313 C285 0.930 . S
H314 C287 0.929 . S
H315 C288 0.929 . S
H316 C293 0.930 . S
H317 C294 0.930 . S
H318 C296 0.929 . S
H319 C297 0.929 . S
La320 C322 2.928 . S
La320 O340 2.521 . S
La320 O341 2.628 . S
La320 O342 2.554 . S
La320 O343 2.757 . S
La320 O344 2.470 . S
La320 O349 2.482 . S
La320 O351 2.503 . S
La321 C331 2.929 1_565 S
La321 O343 2.482 . S
La321 O345 2.503 . S
La321 O346 2.521 . S
La321 O347 2.628 . S
La321 O348 2.554 . S
La321 O349 2.757 . S
La321 O350 2.470 . S
C322 La320 2.928 . S
C322 C323 1.503 . S
C322 O340 1.261 . S
C322 O341 1.243 . S
C323 C322 1.503 . S
C323 C324 1.394 . S
C323 C328 1.373 . S
C324 C323 1.394 . S
C324 C325 1.380 . S
C324 H352 0.930 . S
C325 C324 1.380 . S
C325 C326 1.376 . S
C325 H353 0.930 . S
C326 C325 1.376 . S
C326 C327 1.370 . S
C327 C326 1.370 . S
C327 C328 1.396 . S
C327 H354 0.929 . S
C328 C323 1.373 . S
C328 C327 1.396 . S
C328 H355 0.929 . S
C329 O342 1.240 . S
C329 O343 1.289 . S
C330 O344 1.258 . S
C330 O345 1.256 . S
C331 La321 2.929 1_545 S
C331 C332 1.502 . S
C331 O346 1.261 1_545 S
C331 O347 1.243 1_545 S
C332 C331 1.502 . S
C332 C333 1.394 . S
C332 C337 1.373 . S
C333 C332 1.394 . S
C333 C334 1.380 . S
C333 H356 0.930 . S
C334 C333 1.380 . S
C334 C335 1.376 . S
C334 H357 0.930 . S
C335 C334 1.376 . S
C335 C336 1.370 . S
C336 C335 1.370 . S
C336 C337 1.396 . S
C336 H358 0.929 . S
C337 C332 1.373 . S
C337 C336 1.396 . S
C337 H359 0.929 . S
C338 O348 1.240 . S
C338 O349 1.289 . S
C339 O350 1.258 . S
C339 O351 1.256 . S
O340 La320 2.521 . S
O340 C322 1.261 . S
O341 La320 2.628 . S
O341 C322 1.243 . S
O342 La320 2.554 . S
O342 C329 1.240 . S
O343 La320 2.757 . S
O343 La321 2.482 . S
O343 C329 1.289 . S
O344 La320 2.470 . S
O344 C330 1.258 . S
O345 La321 2.503 . S
O345 C330 1.256 . S
O346 La321 2.521 . S
O346 C331 1.261 1_565 S
O347 La321 2.628 . S
O347 C331 1.243 1_565 S
O348 La321 2.554 . S
O348 C338 1.240 . S
O349 La320 2.482 . S
O349 La321 2.757 . S
O349 C338 1.289 . S
O350 La321 2.470 . S
O350 C339 1.258 . S
O351 La320 2.503 . S
O351 C339 1.256 . S
H352 C324 0.930 . S
H353 C325 0.930 . S
H354 C327 0.929 . S
H355 C328 0.929 . S
H356 C333 0.930 . S
H357 C334 0.930 . S
H358 C336 0.929 . S
H359 C337 0.929 . S
La360 C362 2.928 . S
La360 O380 2.521 . S
La360 O381 2.628 . S
La360 O382 2.554 . S
La360 O383 2.757 . S
La360 O384 2.470 . S
La360 O389 2.482 . S
La360 O391 2.503 . S
La361 C371 2.928 . S
La361 O383 2.482 . S
La361 O385 2.503 . S
La361 O386 2.521 . S
La361 O387 2.628 . S
La361 O388 2.554 . S
La361 O389 2.757 . S
La361 O390 2.470 . S
C362 La360 2.928 . S
C362 C363 1.503 . S
C362 O380 1.261 . S
C362 O381 1.243 . S
C363 C362 1.503 . S
C363 C364 1.394 . S
C363 C368 1.373 . S
C364 C363 1.394 . S
C364 C365 1.380 . S
C364 H392 0.930 . S
C365 C364 1.380 . S
C365 C366 1.376 . S
C365 H393 0.930 . S
C366 C365 1.376 . S
C366 C367 1.370 . S
C367 C366 1.370 . S
C367 C368 1.396 . S
C367 H394 0.929 . S
C368 C363 1.373 . S
C368 C367 1.396 . S
C368 H395 0.929 . S
C369 O382 1.240 . S
C369 O383 1.289 . S
C370 O384 1.258 . S
C370 O385 1.256 . S
C371 La361 2.928 . S
C371 C372 1.503 . S
C371 O386 1.261 . S
C371 O387 1.243 . S
C372 C371 1.503 . S
C372 C373 1.394 . S
C372 C377 1.373 . S
C373 C372 1.394 . S
C373 C374 1.380 . S
C373 H396 0.930 . S
C374 C373 1.380 . S
C374 C375 1.376 . S
C374 H397 0.930 . S
C375 C374 1.376 . S
C375 C376 1.370 . S
C376 C375 1.370 . S
C376 C377 1.396 . S
C376 H398 0.929 . S
C377 C372 1.373 . S
C377 C376 1.396 . S
C377 H399 0.929 . S
C378 O388 1.240 . S
C378 O389 1.289 . S
C379 O390 1.258 . S
C379 O391 1.256 . S
O380 La360 2.521 . S
O380 C362 1.261 . S
O381 La360 2.628 . S
O381 C362 1.243 . S
O382 La360 2.554 . S
O382 C369 1.240 . S
O383 La360 2.757 . S
O383 La361 2.482 . S
O383 C369 1.289 . S
O384 La360 2.470 . S
O384 C370 1.258 . S
O385 La361 2.503 . S
O385 C370 1.256 . S
O386 La361 2.521 . S
O386 C371 1.261 . S
O387 La361 2.628 . S
O387 C371 1.243 . S
O388 La361 2.554 . S
O388 C378 1.240 . S
O389 La360 2.482 . S
O389 La361 2.757 . S
O389 C378 1.289 . S
O390 La361 2.470 . S
O390 C379 1.258 . S
O391 La360 2.503 . S
O391 C379 1.256 . S
H392 C364 0.930 . S
H393 C365 0.930 . S
H394 C367 0.929 . S
H395 C368 0.929 . S
H396 C373 0.930 . S
H397 C374 0.930 . S
H398 C376 0.929 . S
H399 C377 0.929 . S
La400 C402 2.928 . S
La400 O420 2.521 . S
La400 O421 2.628 . S
La400 O422 2.554 . S
La400 O423 2.757 . S
La400 O424 2.470 . S
La400 O429 2.482 . S
La400 O431 2.503 . S
La401 C411 2.929 1_455 S
La401 O423 2.482 . S
La401 O425 2.503 . S
La401 O426 2.521 . S
La401 O427 2.628 . S
La401 O428 2.554 . S
La401 O429 2.757 . S
La401 O430 2.470 . S
C402 La400 2.928 . S
C402 C403 1.503 . S
C402 O420 1.261 . S
C402 O421 1.243 . S
C403 C402 1.503 . S
C403 C404 1.394 . S
C403 C408 1.373 . S
C404 C403 1.394 . S
C404 C405 1.380 . S
C404 H432 0.930 . S
C405 C404 1.380 . S
C405 C406 1.376 . S
C405 H433 0.930 . S
C406 C405 1.376 . S
C406 C407 1.370 . S
C407 C406 1.370 . S
C407 C408 1.396 . S
C407 H434 0.929 . S
C408 C403 1.373 . S
C408 C407 1.396 . S
C408 H435 0.929 . S
C409 O422 1.240 . S
C409 O423 1.289 . S
C410 O424 1.258 . S
C410 O425 1.256 . S
C411 La401 2.929 1_655 S
C411 C412 1.503 . S
C411 O426 1.261 1_655 S
C411 O427 1.243 1_655 S
C412 C411 1.503 . S
C412 C413 1.394 . S
C412 C417 1.373 . S
C413 C412 1.394 . S
C413 C414 1.380 . S
C413 H436 0.930 . S
C414 C413 1.380 . S
C414 C415 1.376 . S
C414 H437 0.930 . S
C415 C414 1.376 . S
C415 C416 1.370 . S
C416 C415 1.370 . S
C416 C417 1.396 . S
C416 H438 0.929 . S
C417 C412 1.373 . S
C417 C416 1.396 . S
C417 H439 0.929 . S
C418 O428 1.240 . S
C418 O429 1.289 . S
C419 O430 1.258 . S
C419 O431 1.256 . S
O420 La400 2.521 . S
O420 C402 1.261 . S
O421 La400 2.628 . S
O421 C402 1.243 . S
O422 La400 2.554 . S
O422 C409 1.240 . S
O423 La400 2.757 . S
O423 La401 2.482 . S
O423 C409 1.289 . S
O424 La400 2.470 . S
O424 C410 1.258 . S
O425 La401 2.503 . S
O425 C410 1.256 . S
O426 La401 2.521 . S
O426 C411 1.261 1_455 S
O427 La401 2.628 . S
O427 C411 1.243 1_455 S
O428 La401 2.554 . S
O428 C418 1.240 . S
O429 La400 2.482 . S
O429 La401 2.757 . S
O429 C418 1.289 . S
O430 La401 2.470 . S
O430 C419 1.258 . S
O431 La400 2.503 . S
O431 C419 1.256 . S
H432 C404 0.930 . S
H433 C405 0.930 . S
H434 C407 0.929 . S
H435 C408 0.929 . S
H436 C413 0.930 . S
H437 C414 0.930 . S
H438 C416 0.929 . S
H439 C417 0.929 . S
La440 C442 2.928 . S
La440 O460 2.521 . S
La440 O461 2.628 . S
La440 O462 2.554 . S
La440 O463 2.757 . S
La440 O464 2.470 . S
La440 O469 2.482 . S
La440 O471 2.503 . S
La441 C451 2.929 1_545 S
La441 O463 2.482 . S
La441 O465 2.503 . S
La441 O466 2.521 . S
La441 O467 2.628 . S
La441 O468 2.554 . S
La441 O469 2.757 . S
La441 O470 2.470 . S
C442 La440 2.928 . S
C442 C443 1.503 . S
C442 O460 1.261 . S
C442 O461 1.243 . S
C443 C442 1.503 . S
C443 C444 1.394 . S
C443 C448 1.373 . S
C444 C443 1.394 . S
C444 C445 1.380 . S
C444 H472 0.930 . S
C445 C444 1.380 . S
C445 C446 1.376 . S
C445 H473 0.930 . S
C446 C445 1.376 . S
C446 C447 1.370 . S
C447 C446 1.370 . S
C447 C448 1.396 . S
C447 H474 0.929 . S
C448 C443 1.373 . S
C448 C447 1.396 . S
C448 H475 0.929 . S
C449 O462 1.240 . S
C449 O463 1.289 . S
C450 O464 1.258 . S
C450 O465 1.256 . S
C451 La441 2.929 1_565 S
C451 C452 1.502 . S
C451 O466 1.261 1_565 S
C451 O467 1.243 1_565 S
C452 C451 1.502 . S
C452 C453 1.394 . S
C452 C457 1.373 . S
C453 C452 1.394 . S
C453 C454 1.380 . S
C453 H476 0.930 . S
C454 C453 1.380 . S
C454 C455 1.376 . S
C454 H477 0.930 . S
C455 C454 1.376 . S
C455 C456 1.370 . S
C456 C455 1.370 . S
C456 C457 1.396 . S
C456 H478 0.929 . S
C457 C452 1.373 . S
C457 C456 1.396 . S
C457 H479 0.929 . S
C458 O468 1.240 . S
C458 O469 1.289 . S
C459 O470 1.258 . S
C459 O471 1.256 . S
O460 La440 2.521 . S
O460 C442 1.261 . S
O461 La440 2.628 . S
O461 C442 1.243 . S
O462 La440 2.554 . S
O462 C449 1.240 . S
O463 La440 2.757 . S
O463 La441 2.482 . S
O463 C449 1.289 . S
O464 La440 2.470 . S
O464 C450 1.258 . S
O465 La441 2.503 . S
O465 C450 1.256 . S
O466 La441 2.521 . S
O466 C451 1.261 1_545 S
O467 La441 2.628 . S
O467 C451 1.243 1_545 S
O468 La441 2.554 . S
O468 C458 1.240 . S
O469 La440 2.482 . S
O469 La441 2.757 . S
O469 C458 1.289 . S
O470 La441 2.470 . S
O470 C459 1.258 . S
O471 La440 2.503 . S
O471 C459 1.256 . S
H472 C444 0.930 . S
H473 C445 0.930 . S
H474 C447 0.929 . S
H475 C448 0.929 . S
H476 C453 0.930 . S
H477 C454 0.930 . S
H478 C456 0.929 . S
H479 C457 0.929 . S
C480 C481 1.363 . S
C480 C486 1.379 1_565 S
C480 N488 1.356 . S
C481 C480 1.363 . S
C481 C487 1.363 . S
C482 C483 1.363 1_565 S
C482 C487 1.379 . S
C482 N489 1.356 . S
C483 C482 1.363 1_545 S
C483 C486 1.363 . S
N484 C486 1.356 . S
N484 H496 0.984 . S
N484 H497 0.985 . S
N485 C487 1.356 . S
N485 H490 0.984 . S
N485 H491 0.985 . S
C486 C480 1.379 1_545 S
C486 C483 1.363 . S
C486 N484 1.356 . S
C487 C481 1.363 . S
C487 C482 1.379 . S
C487 N485 1.356 . S
N488 C480 1.356 . S
N488 H494 0.984 . S
N488 H495 0.984 . S
N489 C482 1.356 . S
N489 H492 0.984 1_565 S
N489 H493 0.985 . S
H490 N485 0.984 . S
H491 N485 0.985 . S
H492 N489 0.984 1_545 S
H493 N489 0.985 . S
H494 N488 0.984 . S
H495 N488 0.984 . S
H496 N484 0.984 . S
H497 N484 0.985 . S
C498 C499 1.363 . S
C498 C504 1.379 . S
C498 N506 1.356 . S
C499 C498 1.363 . S
C499 C505 1.363 . S
C500 C501 1.363 . S
C500 C505 1.379 . S
C500 N507 1.356 . S
C501 C500 1.363 . S
C501 C504 1.363 . S
N502 C504 1.356 . S
N502 H514 0.984 . S
N502 H515 0.985 . S
N503 C505 1.356 . S
N503 H508 0.984 . S
N503 H509 0.985 . S
C504 C498 1.379 . S
C504 C501 1.363 . S
C504 N502 1.356 . S
C505 C499 1.363 . S
C505 C500 1.379 . S
C505 N503 1.356 . S
N506 C498 1.356 . S
N506 H512 0.984 . S
N506 H513 0.984 . S
N507 C500 1.356 . S
N507 H510 0.984 . S
N507 H511 0.985 . S
H508 N503 0.984 . S
H509 N503 0.985 . S
H510 N507 0.984 . S
H511 N507 0.985 . S
H512 N506 0.984 . S
H513 N506 0.984 . S
H514 N502 0.984 . S
H515 N502 0.985 . S
C516 C517 1.363 1_455 S
C516 C522 1.379 . S
C516 N524 1.357 . S
C517 C516 1.363 1_655 S
C517 C523 1.363 . S
C518 C519 1.363 . S
C518 C523 1.379 1_455 S
C518 N525 1.356 . S
C519 C518 1.363 . S
C519 C522 1.363 . S
N520 C522 1.356 . S
N520 H532 0.984 . S
N520 H533 0.985 . S
N521 C523 1.356 . S
N521 H526 0.984 . S
N521 H527 0.985 . S
C522 C516 1.379 . S
C522 C519 1.363 . S
C522 N520 1.356 . S
C523 C517 1.363 . S
C523 C518 1.379 1_655 S
C523 N521 1.356 . S
N524 C516 1.357 . S
N524 H530 0.986 . S
N524 H531 0.982 1_455 S
N525 C518 1.356 . S
N525 H528 0.984 . S
N525 H529 0.985 . S
H526 N521 0.984 . S
H527 N521 0.985 . S
H528 N525 0.984 . S
H529 N525 0.985 . S
H530 N524 0.986 . S
H531 N524 0.982 1_655 S
H532 N520 0.984 . S
H533 N520 0.985 . S
C534 C535 1.363 . S
C534 C540 1.379 1_565 S
C534 N542 1.356 . S
C535 C534 1.363 . S
C535 C541 1.363 1_565 S
C536 C537 1.363 . S
C536 C541 1.379 . S
C536 N543 1.356 . S
C537 C536 1.363 . S
C537 C540 1.363 . S
N538 C540 1.356 . S
N538 H550 0.984 . S
N538 H551 0.985 . S
N539 C541 1.356 1_565 S
N539 H544 0.984 . S
N539 H545 0.984 . S
C540 C534 1.379 1_545 S
C540 C537 1.363 . S
C540 N538 1.356 . S
C541 C535 1.363 1_545 S
C541 C536 1.379 . S
C541 N539 1.356 1_545 S
N542 C534 1.356 . S
N542 H548 0.984 . S
N542 H549 0.984 . S
N543 C536 1.356 . S
N543 H546 0.984 . S
N543 H547 0.985 . S
H544 N539 0.984 . S
H545 N539 0.984 . S
H546 N543 0.984 . S
H547 N543 0.985 . S
H548 N542 0.984 . S
H549 N542 0.984 . S
H550 N538 0.984 . S
H551 N538 0.985 . S
C552 C553 1.363 . S
C552 C558 1.379 . S
C552 N560 1.356 . S
C553 C552 1.363 . S
C553 C559 1.363 . S
C554 C555 1.363 . S
C554 C559 1.379 . S
C554 N561 1.356 . S
C555 C554 1.363 . S
C555 C558 1.363 . S
N556 C558 1.356 . S
N556 H568 0.984 . S
N556 H569 0.985 . S
N557 C559 1.356 . S
N557 H562 0.984 . S
N557 H563 0.985 . S
C558 C552 1.379 . S
C558 C555 1.363 . S
C558 N556 1.356 . S
C559 C553 1.363 . S
C559 C554 1.379 . S
C559 N557 1.356 . S
N560 C552 1.356 . S
N560 H566 0.984 . S
N560 H567 0.984 . S
N561 C554 1.356 . S
N561 H564 0.984 . S
N561 H565 0.985 . S
H562 N557 0.984 . S
H563 N557 0.985 . S
H564 N561 0.984 . S
H565 N561 0.985 . S
H566 N560 0.984 . S
H567 N560 0.984 . S
H568 N556 0.984 . S
H569 N556 0.985 . S
C570 C571 1.363 . S
C570 C576 1.379 . S
C570 N578 1.356 . S
C571 C570 1.363 . S
C571 C577 1.363 . S
C572 C573 1.363 . S
C572 C577 1.379 1_455 S
C572 N579 1.356 . S
C573 C572 1.363 . S
C573 C576 1.363 1_455 S
N574 C576 1.356 . S
N574 H586 0.984 . S
N574 H587 0.985 1_655 S
N575 C577 1.356 . S
N575 H580 0.984 . S
N575 H581 0.985 . S
C576 C570 1.379 . S
C576 C573 1.363 1_655 S
C576 N574 1.356 . S
C577 C571 1.363 . S
C577 C572 1.379 1_655 S
C577 N575 1.356 . S
N578 C570 1.356 . S
N578 H584 0.984 . S
N578 H585 0.984 . S
N579 C572 1.356 . S
N579 H582 0.984 . S
N579 H583 0.985 . S
H580 N575 0.984 . S
H581 N575 0.985 . S
H582 N579 0.984 . S
H583 N579 0.985 . S
H584 N578 0.984 . S
H585 N578 0.984 . S
H586 N574 0.984 . S
H587 N574 0.985 1_455 S
C588 C589 1.363 . S
C588 C594 1.379 . S
C588 N596 1.356 . S
C589 C588 1.363 . S
C589 C595 1.363 . S
C590 C591 1.363 . S
C590 C595 1.379 1_655 S
C590 N597 1.356 . S
C591 C590 1.363 . S
C591 C594 1.363 1_655 S
N592 C594 1.356 1_655 S
N592 H604 0.984 1_655 S
N592 H605 0.985 . S
N593 C595 1.356 . S
N593 H598 0.984 . S
N593 H599 0.985 . S
C594 C588 1.379 . S
C594 C591 1.363 1_455 S
C594 N592 1.356 1_455 S
C595 C589 1.363 . S
C595 C590 1.379 1_455 S
C595 N593 1.356 . S
N596 C588 1.356 . S
N596 H602 0.984 . S
N596 H603 0.984 . S
N597 C590 1.356 . S
N597 H600 0.984 . S
N597 H601 0.985 . S
H598 N593 0.984 . S
H599 N593 0.985 . S
H600 N597 0.984 . S
H601 N597 0.985 . S
H602 N596 0.984 . S
H603 N596 0.984 . S
H604 N592 0.984 1_455 S
H605 N592 0.985 . S
C606 C607 1.363 1_545 S
C606 C612 1.379 . S
C606 N614 1.356 1_545 S
C607 C606 1.363 1_565 S
C607 C613 1.363 . S
C608 C609 1.363 . S
C608 C613 1.379 1_545 S
C608 N615 1.356 . S
C609 C608 1.363 . S
C609 C612 1.363 . S
N610 C612 1.356 . S
N610 H622 0.984 . S
N610 H623 0.985 . S
N611 C613 1.356 . S
N611 H616 0.984 . S
N611 H617 0.985 . S
C612 C606 1.379 . S
C612 C609 1.363 . S
C612 N610 1.356 . S
C613 C607 1.363 . S
C613 C608 1.379 1_565 S
C613 N611 1.356 . S
N614 C606 1.356 1_565 S
N614 H620 0.984 . S
N614 H621 0.984 . S
N615 C608 1.356 . S
N615 H618 0.984 . S
N615 H619 0.985 . S
H616 N611 0.984 . S
H617 N611 0.985 . S
H618 N615 0.984 . S
H619 N615 0.985 . S
H620 N614 0.984 . S
H621 N614 0.984 . S
H622 N610 0.984 . S
H623 N610 0.985 . S
C624 C625 1.363 . S
C624 C630 1.379 . S
C624 N632 1.356 . S
C625 C624 1.363 . S
C625 C631 1.363 . S
C626 C627 1.363 . S
C626 C631 1.379 . S
C626 N633 1.356 . S
C627 C626 1.363 . S
C627 C630 1.363 . S
N628 C630 1.356 . S
N628 H640 0.984 . S
N628 H641 0.985 . S
N629 C631 1.356 . S
N629 H634 0.984 . S
N629 H635 0.985 . S
C630 C624 1.379 . S
C630 C627 1.363 . S
C630 N628 1.356 . S
C631 C625 1.363 . S
C631 C626 1.379 . S
C631 N629 1.356 . S
N632 C624 1.356 . S
N632 H638 0.984 . S
N632 H639 0.984 . S
N633 C626 1.356 . S
N633 H636 0.984 . S
N633 H637 0.985 . S
H634 N629 0.984 . S
H635 N629 0.985 . S
H636 N633 0.984 . S
H637 N633 0.985 . S
H638 N632 0.984 . S
H639 N632 0.984 . S
H640 N628 0.984 . S
H641 N628 0.985 . S
C642 C643 1.363 1_655 S
C642 C648 1.379 . S
C642 N650 1.356 . S
C643 C642 1.363 1_455 S
C643 C649 1.363 . S
C644 C645 1.363 . S
C644 C649 1.379 1_655 S
C644 N651 1.356 . S
C645 C644 1.363 . S
C645 C648 1.363 . S
N646 C648 1.356 . S
N646 H658 0.984 . S
N646 H659 0.985 . S
N647 C649 1.356 . S
N647 H652 0.984 . S
N647 H653 0.985 . S
C648 C642 1.379 . S
C648 C645 1.363 . S
C648 N646 1.356 . S
C649 C643 1.363 . S
C649 C644 1.379 1_455 S
C649 N647 1.356 . S
N650 C642 1.356 . S
N650 H656 0.984 . S
N650 H657 0.984 1_655 S
N651 C644 1.356 . S
N651 H654 0.984 . S
N651 H655 0.985 . S
H652 N647 0.984 . S
H653 N647 0.985 . S
H654 N651 0.984 . S
H655 N651 0.985 . S
H656 N650 0.984 . S
H657 N650 0.984 1_455 S
H658 N646 0.984 . S
H659 N646 0.985 . S
C660 C661 1.363 1_565 S
C660 C666 1.379 . S
C660 N668 1.356 1_565 S
C661 C660 1.363 1_545 S
C661 C667 1.363 1_545 S
C662 C663 1.363 . S
C662 C667 1.379 . S
C662 N669 1.356 . S
C663 C662 1.363 . S
C663 C666 1.363 . S
N664 C666 1.356 . S
N664 H676 0.984 . S
N664 H677 0.985 . S
N665 C667 1.356 1_545 S
N665 H670 0.984 . S
N665 H671 0.985 . S
C666 C660 1.379 . S
C666 C663 1.363 . S
C666 N664 1.356 . S
C667 C661 1.363 1_565 S
C667 C662 1.379 . S
C667 N665 1.356 1_565 S
N668 C660 1.356 1_545 S
N668 H674 0.984 . S
N668 H675 0.984 . S
N669 C662 1.356 . S
N669 H672 0.984 . S
N669 H673 0.985 . S
H670 N665 0.984 . S
H671 N665 0.985 . S
H672 N669 0.984 . S
H673 N669 0.985 . S
H674 N668 0.984 . S
H675 N668 0.984 . S
H676 N664 0.984 . S
H677 N664 0.985 . S
C678 C679 1.363 . S
C678 C684 1.379 . S
C678 N686 1.356 . S
C679 C678 1.363 . S
C679 C685 1.363 . S
C680 C681 1.363 . S
C680 C685 1.379 . S
C680 N687 1.356 . S
C681 C680 1.363 . S
C681 C684 1.363 . S
N682 C684 1.356 . S
N682 H694 0.984 . S
N682 H695 0.985 . S
N683 C685 1.356 . S
N683 H688 0.984 . S
N683 H689 0.985 . S
C684 C678 1.379 . S
C684 C681 1.363 . S
C684 N682 1.356 . S
C685 C679 1.363 . S
C685 C680 1.379 . S
C685 N683 1.356 . S
N686 C678 1.356 . S
N686 H692 0.984 . S
N686 H693 0.984 . S
N687 C680 1.356 . S
N687 H690 0.984 . S
N687 H691 0.985 . S
H688 N683 0.984 . S
H689 N683 0.985 . S
H690 N687 0.984 . S
H691 N687 0.985 . S
H692 N686 0.984 . S
H693 N686 0.984 . S
H694 N682 0.984 . S
H695 N682 0.985 . S
C696 C697 1.363 . S
C696 C702 1.379 . S
C696 N704 1.356 . S
C697 C696 1.363 . S
C697 C703 1.363 . S
C698 C699 1.363 . S
C698 C703 1.379 . S
C698 N705 1.356 . S
C699 C698 1.363 . S
C699 C702 1.363 . S
N700 C702 1.356 . S
N700 H712 0.984 . S
N700 H713 0.985 . S
N701 C703 1.356 . S
N701 H706 0.984 . S
N701 H707 0.985 . S
C702 C696 1.379 . S
C702 C699 1.363 . S
C702 N700 1.356 . S
C703 C697 1.363 . S
C703 C698 1.379 . S
C703 N701 1.356 . S
N704 C696 1.356 . S
N704 H710 0.984 . S
N704 H711 0.984 . S
N705 C698 1.356 . S
N705 H708 0.984 . S
N705 H709 0.985 . S
H706 N701 0.984 . S
H707 N701 0.985 . S
H708 N705 0.984 . S
H709 N705 0.985 . S
H710 N704 0.984 . S
H711 N704 0.984 . S
H712 N700 0.984 . S
H713 N700 0.985 . S
C714 C715 1.363 . S
C714 C720 1.379 . S
C714 N722 1.356 . S
C715 C714 1.363 . S
C715 C721 1.363 . S
C716 C717 1.363 . S
C716 C721 1.379 . S
C716 N723 1.356 . S
C717 C716 1.363 . S
C717 C720 1.363 . S
N718 C720 1.356 . S
N718 H730 0.984 . S
N718 H731 0.985 . S
N719 C721 1.356 . S
N719 H724 0.984 . S
N719 H725 0.985 . S
C720 C714 1.379 . S
C720 C717 1.363 . S
C720 N718 1.356 . S
C721 C715 1.363 . S
C721 C716 1.379 . S
C721 N719 1.356 . S
N722 C714 1.356 . S
N722 H728 0.984 . S
N722 H729 0.984 . S
N723 C716 1.356 . S
N723 H726 0.984 . S
N723 H727 0.985 . S
H724 N719 0.984 . S
H725 N719 0.985 . S
H726 N723 0.984 . S
H727 N723 0.985 . S
H728 N722 0.984 . S
H729 N722 0.984 . S
H730 N718 0.984 . S
H731 N718 0.985 . S
C732 C733 1.363 . S
C732 C738 1.379 . S
C732 N740 1.356 . S
C733 C732 1.363 . S
C733 C739 1.363 . S
C734 C735 1.363 . S
C734 C739 1.379 . S
C734 N741 1.356 . S
C735 C734 1.363 . S
C735 C738 1.363 . S
N736 C738 1.356 . S
N736 H748 0.984 . S
N736 H749 0.985 . S
N737 C739 1.356 . S
N737 H742 0.984 . S
N737 H743 0.985 . S
C738 C732 1.379 . S
C738 C735 1.363 . S
C738 N736 1.356 . S
C739 C733 1.363 . S
C739 C734 1.379 . S
C739 N737 1.356 . S
N740 C732 1.356 . S
N740 H746 0.984 . S
N740 H747 0.984 . S
N741 C734 1.356 . S
N741 H744 0.984 . S
N741 H745 0.985 . S
H742 N737 0.984 . S
H743 N737 0.985 . S
H744 N741 0.984 . S
H745 N741 0.985 . S
H746 N740 0.984 . S
H747 N740 0.984 . S
H748 N736 0.984 . S
H749 N736 0.985 . S
C750 C751 1.363 . S
C750 C756 1.379 . S
C750 N758 1.356 . S
C751 C750 1.363 . S
C751 C757 1.363 . S
C752 C753 1.363 . S
C752 C757 1.379 . S
C752 N759 1.356 . S
C753 C752 1.363 . S
C753 C756 1.363 . S
N754 C756 1.356 . S
N754 H766 0.984 . S
N754 H767 0.985 . S
N755 C757 1.356 . S
N755 H760 0.984 . S
N755 H761 0.985 . S
C756 C750 1.379 . S
C756 C753 1.363 . S
C756 N754 1.356 . S
C757 C751 1.363 . S
C757 C752 1.379 . S
C757 N755 1.356 . S
N758 C750 1.356 . S
N758 H764 0.984 . S
N758 H765 0.984 . S
N759 C752 1.356 . S
N759 H762 0.984 . S
N759 H763 0.985 . S
H760 N755 0.984 . S
H761 N755 0.985 . S
H762 N759 0.984 . S
H763 N759 0.985 . S
H764 N758 0.984 . S
H765 N758 0.984 . S
H766 N754 0.984 . S
H767 N754 0.985 . S
C768 C769 1.363 . S
C768 C774 1.379 . S
C768 N776 1.356 . S
C769 C768 1.363 . S
C769 C775 1.363 . S
C770 C771 1.363 . S
C770 C775 1.379 . S
C770 N777 1.356 . S
C771 C770 1.363 . S
C771 C774 1.363 . S
N772 C774 1.356 . S
N772 H784 0.984 . S
N772 H785 0.985 . S
N773 C775 1.356 . S
N773 H778 0.984 . S
N773 H779 0.985 . S
C774 C768 1.379 . S
C774 C771 1.363 . S
C774 N772 1.356 . S
C775 C769 1.363 . S
C775 C770 1.379 . S
C775 N773 1.356 . S
N776 C768 1.356 . S
N776 H782 0.984 . S
N776 H783 0.984 . S
N777 C770 1.356 . S
N777 H780 0.984 . S
N777 H781 0.985 . S
H778 N773 0.984 . S
H779 N773 0.985 . S
H780 N777 0.984 . S
H781 N777 0.985 . S
H782 N776 0.984 . S
H783 N776 0.984 . S
H784 N772 0.984 . S
H785 N772 0.985 . S
C786 C787 1.363 . S
C786 C792 1.379 . S
C786 N794 1.356 . S
C787 C786 1.363 . S
C787 C793 1.363 . S
C788 C789 1.363 . S
C788 C793 1.379 . S
C788 N795 1.356 . S
C789 C788 1.363 . S
C789 C792 1.363 . S
N790 C792 1.356 . S
N790 H802 0.984 . S
N790 H803 0.985 . S
N791 C793 1.356 . S
N791 H796 0.984 . S
N791 H797 0.985 . S
C792 C786 1.379 . S
C792 C789 1.363 . S
C792 N790 1.356 . S
C793 C787 1.363 . S
C793 C788 1.379 . S
C793 N791 1.356 . S
N794 C786 1.356 . S
N794 H800 0.984 . S
N794 H801 0.984 . S
N795 C788 1.356 . S
N795 H798 0.984 . S
N795 H799 0.985 . S
H796 N791 0.984 . S
H797 N791 0.985 . S
H798 N795 0.984 . S
H799 N795 0.985 . S
H800 N794 0.984 . S
H801 N794 0.984 . S
H802 N790 0.984 . S
H803 N790 0.985 . S
C804 C805 1.363 . S
C804 C810 1.379 . S
C804 N812 1.356 . S
C805 C804 1.363 . S
C805 C811 1.363 . S
C806 C807 1.363 . S
C806 C811 1.379 . S
C806 N813 1.356 . S
C807 C806 1.363 . S
C807 C810 1.363 . S
N808 C810 1.356 . S
N808 H820 0.984 . S
N808 H821 0.985 . S
N809 C811 1.356 . S
N809 H814 0.984 . S
N809 H815 0.985 . S
C810 C804 1.379 . S
C810 C807 1.363 . S
C810 N808 1.356 . S
C811 C805 1.363 . S
C811 C806 1.379 . S
C811 N809 1.356 . S
N812 C804 1.356 . S
N812 H818 0.984 . S
N812 H819 0.984 . S
N813 C806 1.356 . S
N813 H816 0.984 . S
N813 H817 0.985 . S
H814 N809 0.984 . S
H815 N809 0.985 . S
H816 N813 0.984 . S
H817 N813 0.985 . S
H818 N812 0.984 . S
H819 N812 0.984 . S
H820 N808 0.984 . S
H821 N808 0.985 . S
C822 C823 1.363 . S
C822 C828 1.379 . S
C822 N830 1.356 . S
C823 C822 1.363 . S
C823 C829 1.363 . S
C824 C825 1.363 . S
C824 C829 1.379 . S
C824 N831 1.356 . S
C825 C824 1.363 . S
C825 C828 1.363 . S
N826 C828 1.356 . S
N826 H838 0.984 . S
N826 H839 0.985 . S
N827 C829 1.356 . S
N827 H832 0.984 . S
N827 H833 0.985 . S
C828 C822 1.379 . S
C828 C825 1.363 . S
C828 N826 1.356 . S
C829 C823 1.363 . S
C829 C824 1.379 . S
C829 N827 1.356 . S
N830 C822 1.356 . S
N830 H836 0.984 . S
N830 H837 0.984 . S
N831 C824 1.356 . S
N831 H834 0.984 . S
N831 H835 0.985 . S
H832 N827 0.984 . S
H833 N827 0.985 . S
H834 N831 0.984 . S
H835 N831 0.985 . S
H836 N830 0.984 . S
H837 N830 0.984 . S
H838 N826 0.984 . S
H839 N826 0.985 . S
C840 C841 1.363 . S
C840 C846 1.379 . S
C840 N848 1.356 . S
C841 C840 1.363 . S
C841 C847 1.363 . S
C842 C843 1.363 . S
C842 C847 1.379 . S
C842 N849 1.356 . S
C843 C842 1.363 . S
C843 C846 1.363 . S
N844 C846 1.356 . S
N844 H856 0.984 . S
N844 H857 0.985 . S
N845 C847 1.356 . S
N845 H850 0.984 . S
N845 H851 0.985 . S
C846 C840 1.379 . S
C846 C843 1.363 . S
C846 N844 1.356 . S
C847 C841 1.363 . S
C847 C842 1.379 . S
C847 N845 1.356 . S
N848 C840 1.356 . S
N848 H854 0.984 . S
N848 H855 0.984 . S
N849 C842 1.356 . S
N849 H852 0.984 . S
N849 H853 0.985 . S
H850 N845 0.984 . S
H851 N845 0.985 . S
H852 N849 0.984 . S
H853 N849 0.985 . S
H854 N848 0.984 . S
H855 N848 0.984 . S
H856 N844 0.984 . S
H857 N844 0.985 . S
C858 C859 1.363 . S
C858 C864 1.379 . S
C858 N866 1.356 . S
C859 C858 1.363 . S
C859 C865 1.363 . S
C860 C861 1.363 . S
C860 C865 1.379 . S
C860 N867 1.356 . S
C861 C860 1.363 . S
C861 C864 1.363 . S
N862 C864 1.356 . S
N862 H874 0.984 . S
N862 H875 0.985 . S
N863 C865 1.356 . S
N863 H868 0.984 . S
N863 H869 0.985 . S
C864 C858 1.379 . S
C864 C861 1.363 . S
C864 N862 1.356 . S
C865 C859 1.363 . S
C865 C860 1.379 . S
C865 N863 1.356 . S
N866 C858 1.356 . S
N866 H872 0.984 . S
N866 H873 0.984 . S
N867 C860 1.356 . S
N867 H870 0.984 . S
N867 H871 0.985 . S
H868 N863 0.984 . S
H869 N863 0.985 . S
H870 N867 0.984 . S
H871 N867 0.985 . S
H872 N866 0.984 . S
H873 N866 0.984 . S
H874 N862 0.984 . S
H875 N862 0.985 . S
C876 C877 1.363 . S
C876 C882 1.379 . S
C876 N884 1.356 . S
C877 C876 1.363 . S
C877 C883 1.363 . S
C878 C879 1.363 . S
C878 C883 1.379 . S
C878 N885 1.356 . S
C879 C878 1.363 . S
C879 C882 1.363 . S
N880 C882 1.356 . S
N880 H892 0.984 . S
N880 H893 0.985 . S
N881 C883 1.356 . S
N881 H886 0.984 . S
N881 H887 0.985 . S
C882 C876 1.379 . S
C882 C879 1.363 . S
C882 N880 1.356 . S
C883 C877 1.363 . S
C883 C878 1.379 . S
C883 N881 1.356 . S
N884 C876 1.356 . S
N884 H890 0.984 . S
N884 H891 0.984 . S
N885 C878 1.356 . S
N885 H888 0.984 . S
N885 H889 0.985 . S
H886 N881 0.984 . S
H887 N881 0.985 . S
H888 N885 0.984 . S
H889 N885 0.985 . S
H890 N884 0.984 . S
H891 N884 0.984 . S
H892 N880 0.984 . S
H893 N880 0.985 . S
C894 C895 1.363 . S
C894 C900 1.379 . S
C894 N902 1.356 . S
C895 C894 1.363 . S
C895 C901 1.363 . S
C896 C897 1.363 . S
C896 C901 1.379 . S
C896 N903 1.356 . S
C897 C896 1.363 . S
C897 C900 1.363 . S
N898 C900 1.356 . S
N898 H910 0.984 . S
N898 H911 0.985 . S
N899 C901 1.356 . S
N899 H904 0.984 . S
N899 H905 0.985 . S
C900 C894 1.379 . S
C900 C897 1.363 . S
C900 N898 1.356 . S
C901 C895 1.363 . S
C901 C896 1.379 . S
C901 N899 1.356 . S
N902 C894 1.356 . S
N902 H908 0.984 . S
N902 H909 0.984 . S
N903 C896 1.356 . S
N903 H906 0.984 . S
N903 H907 0.985 . S
H904 N899 0.984 . S
H905 N899 0.985 . S
H906 N903 0.984 . S
H907 N903 0.985 . S
H908 N902 0.984 . S
H909 N902 0.984 . S
H910 N898 0.984 . S
H911 N898 0.985 . S
C912 C913 1.363 . S
C912 C918 1.379 . S
C912 N920 1.356 . S
C913 C912 1.363 . S
C913 C919 1.363 . S
C914 C915 1.363 . S
C914 C919 1.379 . S
C914 N921 1.356 . S
C915 C914 1.363 . S
C915 C918 1.363 . S
N916 C918 1.356 . S
N916 H928 0.984 . S
N916 H929 0.985 . S
N917 C919 1.356 . S
N917 H922 0.984 . S
N917 H923 0.985 . S
C918 C912 1.379 . S
C918 C915 1.363 . S
C918 N916 1.356 . S
C919 C913 1.363 . S
C919 C914 1.379 . S
C919 N917 1.356 . S
N920 C912 1.356 . S
N920 H926 0.984 . S
N920 H927 0.984 . S
N921 C914 1.356 . S
N921 H924 0.984 . S
N921 H925 0.985 . S
H922 N917 0.984 . S
H923 N917 0.985 . S
H924 N921 0.984 . S
H925 N921 0.985 . S
H926 N920 0.984 . S
H927 N920 0.984 . S
H928 N916 0.984 . S
H929 N916 0.985 . S
C930 C931 1.363 . S
C930 C936 1.379 . S
C930 N938 1.356 . S
C931 C930 1.363 . S
C931 C937 1.363 . S
C932 C933 1.363 . S
C932 C937 1.379 . S
C932 N939 1.356 . S
C933 C932 1.363 . S
C933 C936 1.363 . S
N934 C936 1.356 . S
N934 H946 0.984 . S
N934 H947 0.985 . S
N935 C937 1.356 . S
N935 H940 0.984 . S
N935 H941 0.985 . S
C936 C930 1.379 . S
C936 C933 1.363 . S
C936 N934 1.356 . S
C937 C931 1.363 . S
C937 C932 1.379 . S
C937 N935 1.356 . S
N938 C930 1.356 . S
N938 H944 0.984 . S
N938 H945 0.984 . S
N939 C932 1.356 . S
N939 H942 0.984 . S
N939 H943 0.985 . S
H940 N935 0.984 . S
H941 N935 0.985 . S
H942 N939 0.984 . S
H943 N939 0.985 . S
H944 N938 0.984 . S
H945 N938 0.984 . S
H946 N934 0.984 . S
H947 N934 0.985 . S
C948 C949 1.363 . S
C948 C954 1.379 . S
C948 N956 1.356 . S
C949 C948 1.363 . S
C949 C955 1.363 . S
C950 C951 1.363 . S
C950 C955 1.379 . S
C950 N957 1.356 . S
C951 C950 1.363 . S
C951 C954 1.363 . S
N952 C954 1.356 . S
N952 H964 0.984 . S
N952 H965 0.985 . S
N953 C955 1.356 . S
N953 H958 0.984 . S
N953 H959 0.985 . S
C954 C948 1.379 . S
C954 C951 1.363 . S
C954 N952 1.356 . S
C955 C949 1.363 . S
C955 C950 1.379 . S
C955 N953 1.356 . S
N956 C948 1.356 . S
N956 H962 0.984 . S
N956 H963 0.984 . S
N957 C950 1.356 . S
N957 H960 0.984 . S
N957 H961 0.985 . S
H958 N953 0.984 . S
H959 N953 0.985 . S
H960 N957 0.984 . S
H961 N957 0.985 . S
H962 N956 0.984 . S
H963 N956 0.984 . S
H964 N952 0.984 . S
H965 N952 0.985 . S
C966 C967 1.363 . S
C966 C972 1.379 . S
C966 N974 1.356 . S
C967 C966 1.363 . S
C967 C973 1.363 . S
C968 C969 1.363 . S
C968 C973 1.379 . S
C968 N975 1.356 . S
C969 C968 1.363 . S
C969 C972 1.363 . S
N970 C972 1.356 . S
N970 H982 0.984 . S
N970 H983 0.985 . S
N971 C973 1.356 . S
N971 H976 0.984 . S
N971 H977 0.985 . S
C972 C966 1.379 . S
C972 C969 1.363 . S
C972 N970 1.356 . S
C973 C967 1.363 . S
C973 C968 1.379 . S
C973 N971 1.356 . S
N974 C966 1.356 . S
N974 H980 0.984 . S
N974 H981 0.984 . S
N975 C968 1.356 . S
N975 H978 0.984 . S
N975 H979 0.985 . S
H976 N971 0.984 . S
H977 N971 0.985 . S
H978 N975 0.984 . S
H979 N975 0.985 . S
H980 N974 0.984 . S
H981 N974 0.984 . S
H982 N970 0.984 . S
H983 N970 0.985 . S
C984 C985 1.363 . S
C984 C990 1.379 . S
C984 N992 1.356 . S
C985 C984 1.363 . S
C985 C991 1.363 . S
C986 C987 1.363 . S
C986 C991 1.379 . S
C986 N993 1.356 . S
C987 C986 1.363 . S
C987 C990 1.363 . S
N988 C990 1.356 . S
N988 H1000 0.984 . S
N988 H1001 0.985 . S
N989 C991 1.356 . S
N989 H994 0.984 . S
N989 H995 0.985 . S
C990 C984 1.379 . S
C990 C987 1.363 . S
C990 N988 1.356 . S
C991 C985 1.363 . S
C991 C986 1.379 . S
C991 N989 1.356 . S
N992 C984 1.356 . S
N992 H998 0.984 . S
N992 H999 0.984 . S
N993 C986 1.356 . S
N993 H996 0.984 . S
N993 H997 0.985 . S
H994 N989 0.984 . S
H995 N989 0.985 . S
H996 N993 0.984 . S
H997 N993 0.985 . S
H998 N992 0.984 . S
H999 N992 0.984 . S
H1000 N988 0.984 . S
H1001 N988 0.985 . S
C1002 C1003 1.363 . S
C1002 C1008 1.379 . S
C1002 N1010 1.356 . S
C1003 C1002 1.363 . S
C1003 C1009 1.363 . S
C1004 C1005 1.363 . S
C1004 C1009 1.379 . S
C1004 N1011 1.356 . S
C1005 C1004 1.363 . S
C1005 C1008 1.363 . S
N1006 C1008 1.356 . S
N1006 H1018 0.984 . S
N1006 H1019 0.985 . S
N1007 C1009 1.356 . S
N1007 H1012 0.984 . S
N1007 H1013 0.985 . S
C1008 C1002 1.379 . S
C1008 C1005 1.363 . S
C1008 N1006 1.356 . S
C1009 C1003 1.363 . S
C1009 C1004 1.379 . S
C1009 N1007 1.356 . S
N1010 C1002 1.356 . S
N1010 H1016 0.984 . S
N1010 H1017 0.984 . S
N1011 C1004 1.356 . S
N1011 H1014 0.984 . S
N1011 H1015 0.985 . S
H1012 N1007 0.984 . S
H1013 N1007 0.985 . S
H1014 N1011 0.984 . S
H1015 N1011 0.985 . S
H1016 N1010 0.984 . S
H1017 N1010 0.984 . S
H1018 N1006 0.984 . S
H1019 N1006 0.985 . S
C1020 C1021 1.363 1_554 S
C1020 C1026 1.379 . S
C1020 N1028 1.356 . S
C1021 C1020 1.363 1_556 S
C1021 C1027 1.363 . S
C1022 C1023 1.363 1_556 S
C1022 C1027 1.379 . S
C1022 N1029 1.356 . S
C1023 C1022 1.363 1_554 S
C1023 C1026 1.363 . S
N1024 C1026 1.356 . S
N1024 H1036 0.984 . S
N1024 H1037 0.985 . S
N1025 C1027 1.356 . S
N1025 H1030 0.984 . S
N1025 H1031 0.985 . S
C1026 C1020 1.379 . S
C1026 C1023 1.363 . S
C1026 N1024 1.356 . S
C1027 C1021 1.363 . S
C1027 C1022 1.379 . S
C1027 N1025 1.356 . S
N1028 C1020 1.356 . S
N1028 H1034 0.984 . S
N1028 H1035 0.984 . S
N1029 C1022 1.356 . S
N1029 H1032 0.984 . S
N1029 H1033 0.985 . S
H1030 N1025 0.984 . S
H1031 N1025 0.985 . S
H1032 N1029 0.984 . S
H1033 N1029 0.985 . S
H1034 N1028 0.984 . S
H1035 N1028 0.984 . S
H1036 N1024 0.984 . S
H1037 N1024 0.985 . S
C1038 C1039 1.363 . S
C1038 C1044 1.379 1_455 S
C1038 N1046 1.356 . S
C1039 C1038 1.363 . S
C1039 C1045 1.363 . S
C1040 C1041 1.363 . S
C1040 C1045 1.379 1_655 S
C1040 N1047 1.356 . S
C1041 C1040 1.363 . S
C1041 C1044 1.363 . S
N1042 C1044 1.356 . S
N1042 H1054 0.984 . S
N1042 H1055 0.985 . S
N1043 C1045 1.356 . S
N1043 H1048 0.984 . S
N1043 H1049 0.985 . S
C1044 C1038 1.379 1_655 S
C1044 C1041 1.363 . S
C1044 N1042 1.356 . S
C1045 C1039 1.363 . S
C1045 C1040 1.379 1_455 S
C1045 N1043 1.356 . S
N1046 C1038 1.356 . S
N1046 H1052 0.984 . S
N1046 H1053 0.984 . S
N1047 C1040 1.356 . S
N1047 H1050 0.984 . S
N1047 H1051 0.985 . S
H1048 N1043 0.984 . S
H1049 N1043 0.985 . S
H1050 N1047 0.984 . S
H1051 N1047 0.985 . S
H1052 N1046 0.984 . S
H1053 N1046 0.984 . S
H1054 N1042 0.984 . S
H1055 N1042 0.985 . S
C1056 C1057 1.363 1_556 S
C1056 C1062 1.379 1_565 S
C1056 N1064 1.356 . S
C1057 C1056 1.363 1_554 S
C1057 C1063 1.363 . S
C1058 C1059 1.363 1_554 S
C1058 C1063 1.379 1_545 S
C1058 N1065 1.356 . S
C1059 C1058 1.363 1_556 S
C1059 C1062 1.363 . S
N1060 C1062 1.356 . S
N1060 H1072 0.984 . S
N1060 H1073 0.985 . S
N1061 C1063 1.356 . S
N1061 H1066 0.984 . S
N1061 H1067 0.985 . S
C1062 C1056 1.379 1_545 S
C1062 C1059 1.363 . S
C1062 N1060 1.356 . S
C1063 C1057 1.363 . S
C1063 C1058 1.379 1_565 S
C1063 N1061 1.356 . S
N1064 C1056 1.356 . S
N1064 H1070 0.984 . S
N1064 H1071 0.984 . S
N1065 C1058 1.356 . S
N1065 H1068 0.984 . S
N1065 H1069 0.985 . S
H1066 N1061 0.984 . S
H1067 N1061 0.985 . S
H1068 N1065 0.984 . S
H1069 N1065 0.985 . S
H1070 N1064 0.984 . S
H1071 N1064 0.984 . S
H1072 N1060 0.984 . S
H1073 N1060 0.985 . S
C1074 C1075 1.363 . S
C1074 C1080 1.379 . S
C1074 N1082 1.356 . S
C1075 C1074 1.363 . S
C1075 C1081 1.363 . S
C1076 C1077 1.363 . S
C1076 C1081 1.379 . S
C1076 N1083 1.356 . S
C1077 C1076 1.363 . S
C1077 C1080 1.363 . S
N1078 C1080 1.356 . S
N1078 H1090 0.984 . S
N1078 H1091 0.985 . S
N1079 C1081 1.356 . S
N1079 H1084 0.984 . S
N1079 H1085 0.985 . S
C1080 C1074 1.379 . S
C1080 C1077 1.363 . S
C1080 N1078 1.356 . S
C1081 C1075 1.363 . S
C1081 C1076 1.379 . S
C1081 N1079 1.356 . S
N1082 C1074 1.356 . S
N1082 H1088 0.984 . S
N1082 H1089 0.984 . S
N1083 C1076 1.356 . S
N1083 H1086 0.984 . S
N1083 H1087 0.985 . S
H1084 N1079 0.984 . S
H1085 N1079 0.985 . S
H1086 N1083 0.984 . S
H1087 N1083 0.985 . S
H1088 N1082 0.984 . S
H1089 N1082 0.984 . S
H1090 N1078 0.984 . S
H1091 N1078 0.985 . S
C1092 C1093 1.363 . S
C1092 C1098 1.379 1_655 S
C1092 N1100 1.356 . S
C1093 C1092 1.363 . S
C1093 C1099 1.363 1_556 S
C1094 C1095 1.363 . S
C1094 C1099 1.379 1_455 S
C1094 N1101 1.356 . S
C1095 C1094 1.363 . S
C1095 C1098 1.363 1_554 S
N1096 C1098 1.356 . S
N1096 H1108 0.984 . S
N1096 H1109 0.985 . S
N1097 C1099 1.356 . S
N1097 H1102 0.984 . S
N1097 H1103 0.985 . S
C1098 C1092 1.379 1_455 S
C1098 C1095 1.363 1_556 S
C1098 N1096 1.356 . S
C1099 C1093 1.363 1_554 S
C1099 C1094 1.379 1_655 S
C1099 N1097 1.356 . S
N1100 C1092 1.356 . S
N1100 H1106 0.984 . S
N1100 H1107 0.984 . S
N1101 C1094 1.356 . S
N1101 H1104 0.984 . S
N1101 H1105 0.985 . S
H1102 N1097 0.984 . S
H1103 N1097 0.985 . S
H1104 N1101 0.984 . S
H1105 N1101 0.985 . S
H1106 N1100 0.984 . S
H1107 N1100 0.984 . S
H1108 N1096 0.984 . S
H1109 N1096 0.985 . S
C1110 C1111 1.363 . S
C1110 C1116 1.379 1_565 S
C1110 N1118 1.356 . S
C1111 C1110 1.363 . S
C1111 C1117 1.363 . S
C1112 C1113 1.363 . S
C1112 C1117 1.379 1_545 S
C1112 N1119 1.356 . S
C1113 C1112 1.363 . S
C1113 C1116 1.363 . S
N1114 C1116 1.356 . S
N1114 H1126 0.984 . S
N1114 H1127 0.985 . S
N1115 C1117 1.356 . S
N1115 H1120 0.984 . S
N1115 H1121 0.985 . S
C1116 C1110 1.379 1_545 S
C1116 C1113 1.363 . S
C1116 N1114 1.356 . S
C1117 C1111 1.363 . S
C1117 C1112 1.379 1_565 S
C1117 N1115 1.356 . S
N1118 C1110 1.356 . S
N1118 H1124 0.984 . S
N1118 H1125 0.984 . S
N1119 C1112 1.356 . S
N1119 H1122 0.984 . S
N1119 H1123 0.985 . S
H1120 N1115 0.984 . S
H1121 N1115 0.985 . S
H1122 N1119 0.984 . S
H1123 N1119 0.985 . S
H1124 N1118 0.984 . S
H1125 N1118 0.984 . S
H1126 N1114 0.984 . S
H1127 N1114 0.985 . S
C481 C179 1.382 . S
C483 C15 1.468 . S
C499 C219 1.382 . S
C501 C55 1.468 . S
C517 C95 1.468 . S
C519 C19 1.382 . S
C535 C135 1.468 . S
C537 C59 1.382 . S
C553 C175 1.468 . S
C555 C99 1.382 . S
C571 C139 1.382 . S
C573 C215 1.468 . S
C589 C339 1.382 . S
C591 C255 1.468 . S
C607 C295 1.468 . S
C609 C379 1.382 . S
C625 C419 1.382 . S
C627 C335 1.468 . S
C643 C375 1.468 . S
C645 C459 1.382 . S
C661 C415 1.468 . S
C663 C259 1.382 . S
C679 C299 1.382 . S
C681 C455 1.468 . S
C697 C170 1.857 . S
C699 C6 1.848 . S
C715 C46 1.848 . S
C717 C210 1.857 . S
C733 C86 1.848 . S
C735 C10 1.858 . S
C751 C126 1.848 . S
C753 C50 1.857 . S
C769 C90 1.857 . S
C771 C166 1.848 . S
C787 C130 1.858 . S
C789 C206 1.848 . S
C805 C330 1.857 . S
C807 C246 1.848 . S
C823 C286 1.848 . S
C825 C370 1.858 . S
C841 C326 1.848 . S
C843 C410 1.858 . S
C859 C450 1.857 . S
C861 C366 1.848 . S
C877 C406 1.848 . S
C879 C250 1.858 . S
C895 C290 1.858 . S
C897 C446 1.848 . S
C913 C418 1.589 . S
C915 C18 1.589 . S
C931 C58 1.589 . S
C933 C458 1.589 . S
C949 C98 1.589 . S
C951 C258 1.589 . S
C967 C138 1.589 . S
C969 C298 1.589 . S
C985 C178 1.589 . S
C987 C338 1.589 . S
C1003 C378 1.589 . S
C1005 C218 1.589 . S
C1021 C369 2.474 . S
C1023 C9 2.474 . S
C1039 C409 2.474 . S
C1041 C49 2.474 . S
C1057 C89 2.474 . S
C1059 C449 2.474 . S
C1075 C129 2.474 . S
C1077 C249 2.474 . S
C1093 C289 2.474 . S
C1095 C169 2.474 . S
C1111 C329 2.474 . S
C1113 C209 2.474 . S
