# Generated by pormake.
# Topology upc, (4)-cn, num edge types: 1
# Building blocks:
#     Node 0, Type 0, BuildingBlock: ICAMEG_clean_sbu_1, # of connection points: 4
#     Node 1, Type 0, BuildingBlock: ICAMEG_clean_sbu_1, # of connection points: 4
#     Node 2, Type 0, BuildingBlock: ICAMEG_clean_sbu_1, # of connection points: 4
#     Node 3, Type 0, BuildingBlock: ICAMEG_clean_sbu_1, # of connection points: 4
#     Node 4, Type 0, BuildingBlock: ICAMEG_clean_sbu_1, # of connection points: 4
#     Node 5, Type 0, BuildingBlock: ICAMEG_clean_sbu_1, # of connection points: 4
#     Node 6, Type 0, BuildingBlock: ICAMEG_clean_sbu_1, # of connection points: 4
#     Node 7, Type 0, BuildingBlock: ICAMEG_clean_sbu_1, # of connection points: 4
#     Node 8, Type 0, BuildingBlock: ICAMEG_clean_sbu_1, # of connection points: 4
#     Node 9, Type 0, BuildingBlock: ICAMEG_clean_sbu_1, # of connection points: 4
#     Node 10, Type 0, BuildingBlock: ICAMEG_clean_sbu_1, # of connection points: 4
#     Node 11, Type 0, BuildingBlock: ICAMEG_clean_sbu_1, # of connection points: 4
#     Node 12, Type 0, BuildingBlock: ICAMEG_clean_sbu_1, # of connection points: 4
#     Node 13, Type 0, BuildingBlock: ICAMEG_clean_sbu_1, # of connection points: 4
#     Node 14, Type 0, BuildingBlock: ICAMEG_clean_sbu_1, # of connection points: 4
#     Node 15, Type 0, BuildingBlock: ICAMEG_clean_sbu_1, # of connection points: 4
#     Edge 16, Type (0, 0), BuildingBlock: MIFKUJ_clean_linker_0, # of connection points: 2
#     Edge 17, Type (0, 0), BuildingBlock: MIFKUJ_clean_linker_0, # of connection points: 2
#     Edge 18, Type (0, 0), BuildingBlock: MIFKUJ_clean_linker_0, # of connection points: 2
#     Edge 19, Type (0, 0), BuildingBlock: MIFKUJ_clean_linker_0, # of connection points: 2
#     Edge 20, Type (0, 0), BuildingBlock: MIFKUJ_clean_linker_0, # of connection points: 2
#     Edge 21, Type (0, 0), BuildingBlock: MIFKUJ_clean_linker_0, # of connection points: 2
#     Edge 22, Type (0, 0), BuildingBlock: MIFKUJ_clean_linker_0, # of connection points: 2
#     Edge 23, Type (0, 0), BuildingBlock: MIFKUJ_clean_linker_0, # of connection points: 2
#     Edge 24, Type (0, 0), BuildingBlock: MIFKUJ_clean_linker_0, # of connection points: 2
#     Edge 25, Type (0, 0), BuildingBlock: MIFKUJ_clean_linker_0, # of connection points: 2
#     Edge 26, Type (0, 0), BuildingBlock: MIFKUJ_clean_linker_0, # of connection points: 2
#     Edge 27, Type (0, 0), BuildingBlock: MIFKUJ_clean_linker_0, # of connection points: 2
#     Edge 28, Type (0, 0), BuildingBlock: MIFKUJ_clean_linker_0, # of connection points: 2
#     Edge 29, Type (0, 0), BuildingBlock: MIFKUJ_clean_linker_0, # of connection points: 2
#     Edge 30, Type (0, 0), BuildingBlock: MIFKUJ_clean_linker_0, # of connection points: 2
#     Edge 31, Type (0, 0), BuildingBlock: MIFKUJ_clean_linker_0, # of connection points: 2
#     Edge 32, Type (0, 0), BuildingBlock: MIFKUJ_clean_linker_0, # of connection points: 2
#     Edge 33, Type (0, 0), BuildingBlock: MIFKUJ_clean_linker_0, # of connection points: 2
#     Edge 34, Type (0, 0), BuildingBlock: MIFKUJ_clean_linker_0, # of connection points: 2
#     Edge 35, Type (0, 0), BuildingBlock: MIFKUJ_clean_linker_0, # of connection points: 2
#     Edge 36, Type (0, 0), BuildingBlock: MIFKUJ_clean_linker_0, # of connection points: 2
#     Edge 37, Type (0, 0), BuildingBlock: MIFKUJ_clean_linker_0, # of connection points: 2
#     Edge 38, Type (0, 0), BuildingBlock: MIFKUJ_clean_linker_0, # of connection points: 2
#     Edge 39, Type (0, 0), BuildingBlock: MIFKUJ_clean_linker_0, # of connection points: 2
#     Edge 40, Type (0, 0), BuildingBlock: MIFKUJ_clean_linker_0, # of connection points: 2
#     Edge 41, Type (0, 0), BuildingBlock: MIFKUJ_clean_linker_0, # of connection points: 2
#     Edge 42, Type (0, 0), BuildingBlock: MIFKUJ_clean_linker_0, # of connection points: 2
#     Edge 43, Type (0, 0), BuildingBlock: MIFKUJ_clean_linker_0, # of connection points: 2
#     Edge 44, Type (0, 0), BuildingBlock: MIFKUJ_clean_linker_0, # of connection points: 2
#     Edge 45, Type (0, 0), BuildingBlock: MIFKUJ_clean_linker_0, # of connection points: 2
#     Edge 46, Type (0, 0), BuildingBlock: MIFKUJ_clean_linker_0, # of connection points: 2
#     Edge 47, Type (0, 0), BuildingBlock: MIFKUJ_clean_linker_0, # of connection points: 2
# Relax obj value: 0.215
# Max RMSD: 0.207
# Mean RMSD: 0.207
data_MOF--net-upc--node1-ICAMEG_clean_sbu_1--edge1-MIFKUJ_clean_linker_0
_symmetry_space_group_name_H-M    P1
_symmetry_Int_Tables_number       1
_symmetry_cell_setting            triclinic
loop_
_symmetry_equiv_pos_as_xyz
'x, y, z'
_cell_length_a     45.523548
_cell_length_b     45.516683
_cell_length_c     60.564658
_cell_angle_alpha  90.03821
_cell_angle_beta   90.014303
_cell_angle_gamma 90.001602
loop_
_atom_site_label
_atom_site_type_symbol
_atom_site_fract_x
_atom_site_fract_y
_atom_site_fract_z
_atom_type_partial_charge
Co0 Co 0.1273 0.60913 0.13975 0.0
Co1 Co 0.07607 0.64892 0.11002 0.0
O2 O 0.09072 0.61285 0.12338 0.0
C3 C 0.08164 0.59273 0.17167 0.0
O4 O 0.06756 0.61614 0.16478 0.0
C5 C 0.08102 0.6056 0.07379 0.0
O6 O 0.10777 0.60041 0.08089 0.0
O7 O 0.11561 0.6588 0.09763 0.0
O8 O 0.14863 0.63286 0.11723 0.0
H9 H 0.07724 0.75645 0.09135 0.0
H10 H 0.09283 0.55591 0.12863 0.0
O11 O 0.10623 0.58579 0.16302 0.0
H12 H 0.18899 0.54211 0.09261 0.0
H13 H 0.20153 0.5544 0.18556 0.0
H14 H 0.17639 0.64929 0.15113 0.0
H15 H 0.17911 0.58635 0.11497 0.0
H16 H 0.15574 0.55997 0.16415 0.0
O17 O 0.06576 0.62589 0.08272 0.0
H18 H 0.09561 0.71104 0.10877 0.0
H19 H 0.02432 0.66276 0.08172 0.0
H20 H 0.22251 0.64464 0.17223 0.0
H21 H 0.1018 0.51128 0.1065 0.0
H22 H 0.23532 0.59692 0.18962 0.0
H23 H 0.15014 0.50422 0.08824 0.0
O24 O 0.1192 0.64572 0.15664 0.0
H25 H 0.99076 0.58297 0.12804 0.0
H26 H 0.03103 0.68314 0.13476 0.0
H27 H 0.98305 0.67163 0.15157 0.0
H28 H 0.9626 0.62123 0.14823 0.0
H29 H 0.0388 0.59535 0.11172 0.0
H30 H 0.00528 0.7076 0.06388 0.0
H31 H 0.03176 0.75489 0.06871 0.0
O32 O 0.08576 0.6718 0.13743 0.0
C33 C 0.14201 0.65164 0.10241 0.0
C34 C 0.06547 0.73599 0.08917 0.0
C35 C 0.0251 0.70857 0.07372 0.0
N36 N 0.06097 0.68434 0.09635 0.0
C37 C 0.07572 0.71023 0.09904 0.0
C38 C 0.03603 0.68324 0.08381 0.0
C39 C 0.03996 0.7351 0.07645 0.0
C40 C 0.11403 0.55283 0.12093 0.0
N41 N 0.13548 0.57361 0.12318 0.0
C42 C 0.11893 0.52758 0.10834 0.0
C43 C 0.14605 0.52366 0.09807 0.0
C44 C 0.16785 0.54492 0.1005 0.0
C45 C 0.16213 0.56993 0.11316 0.0
C46 C 0.19621 0.57529 0.17802 0.0
C47 C 0.18191 0.6284 0.15853 0.0
C48 C 0.1703 0.57859 0.16592 0.0
N49 N 0.16353 0.60486 0.15627 0.0
C50 C 0.20801 0.62592 0.17051 0.0
C51 C 0.21517 0.59915 0.18029 0.0
C52 C 0.10288 0.66823 0.15395 0.0
C53 C 0.99942 0.60503 0.12957 0.0
C54 C 0.02233 0.66114 0.13332 0.0
C55 C 0.99511 0.65477 0.14282 0.0
C56 C 0.98364 0.62649 0.14092 0.0
N57 N 0.0377 0.63997 0.12224 0.0
C58 C 0.02656 0.6122 0.12029 0.0
Co59 Co 0.89613 0.11922 0.14037 0.0
Co60 Co 0.85246 0.06997 0.11191 0.0
O61 O 0.89013 0.08356 0.12327 0.0
C62 C 0.91596 0.07184 0.16954 0.0
O63 O 0.89185 0.05828 0.16347 0.0
C64 C 0.89198 0.07529 0.07353 0.0
O65 O 0.89767 0.10202 0.08045 0.0
O66 O 0.84231 0.10994 0.10067 0.0
O67 O 0.86952 0.14185 0.12036 0.0
H68 H 0.74343 0.07387 0.09936 0.0
H69 H 0.94757 0.08548 0.12444 0.0
O70 O 0.92225 0.09683 0.16125 0.0
H71 H 0.95671 0.18341 0.09035 0.0
H72 H 0.95692 0.19098 0.18408 0.0
H73 H 0.85778 0.16741 0.15642 0.0
H74 H 0.91561 0.17232 0.11556 0.0
H75 H 0.94839 0.1464 0.16176 0.0
O76 O 0.8725 0.05993 0.08331 0.0
H77 H 0.79087 0.09093 0.11433 0.0
H78 H 0.83466 0.01913 0.08393 0.0
H79 H 0.86535 0.21233 0.17851 0.0
H80 H 0.98908 0.09563 0.09938 0.0
H81 H 0.91522 0.22435 0.19251 0.0
H82 H 0.99377 0.14488 0.0821 0.0
O83 O 0.86211 0.11001 0.1596 0.0
H84 H 0.91783 0.9825 0.12451 0.0
H85 H 0.82013 0.02541 0.13854 0.0
H86 H 0.83222 0.97674 0.15391 0.0
H87 H 0.88137 0.95495 0.1469 0.0
H88 H 0.90497 0.03124 0.10966 0.0
H89 H 0.78772 0.00139 0.06849 0.0
H90 H 0.74167 0.02878 0.07625 0.0
O91 O 0.83257 0.0794 0.14064 0.0
C92 C 0.84964 0.13606 0.10612 0.0
C93 C 0.76334 0.06169 0.09591 0.0
C94 C 0.7882 0.02104 0.07856 0.0
N95 N 0.81544 0.05594 0.10011 0.0
C96 C 0.79024 0.0712 0.10439 0.0
C97 C 0.81472 0.03123 0.08729 0.0
C98 C 0.76237 0.03641 0.08293 0.0
C99 C 0.94966 0.10705 0.11715 0.0
N100 N 0.92932 0.12833 0.12154 0.0
C101 C 0.97313 0.11263 0.10292 0.0
C102 C 0.97572 0.14026 0.09319 0.0
C103 C 0.95492 0.16188 0.0978 0.0
C104 C 0.93169 0.15547 0.11207 0.0
C105 C 0.93511 0.18602 0.17803 0.0
C106 C 0.87958 0.17261 0.16232 0.0
C107 C 0.93014 0.1608 0.16542 0.0
N108 N 0.90268 0.15449 0.15763 0.0
C109 C 0.88372 0.19802 0.17488 0.0
C110 C 0.9117 0.20473 0.18275 0.0
C111 C 0.8388 0.09465 0.15775 0.0
C112 C 0.89631 0.99172 0.12762 0.0
C113 C 0.84158 0.01611 0.13543 0.0
C114 C 0.84828 0.98851 0.14415 0.0
C115 C 0.87586 0.9763 0.1402 0.0
N116 N 0.86175 0.03111 0.12309 0.0
C117 C 0.88884 0.01926 0.11915 0.0
Co118 Co 0.3914 0.89855 0.13498 0.0
Co119 Co 0.43935 0.85533 0.10488 0.0
O120 O 0.42683 0.89257 0.11761 0.0
C121 C 0.44025 0.9146 0.16402 0.0
O122 O 0.45294 0.89079 0.15644 0.0
C123 C 0.43433 0.8973 0.06808 0.0
O124 O 0.40783 0.90297 0.07549 0.0
O125 O 0.39906 0.847 0.09359 0.0
O126 O 0.36787 0.87439 0.11381 0.0
H127 H 0.43204 0.74741 0.08837 0.0
H128 H 0.42716 0.94983 0.12137 0.0
O129 O 0.41484 0.92197 0.15703 0.0
H130 H 0.32967 0.96543 0.08784 0.0
H131 H 0.32208 0.95835 0.18157 0.0
H132 H 0.34181 0.86081 0.14933 0.0
H133 H 0.33917 0.92198 0.11113 0.0
H134 H 0.36622 0.95 0.15875 0.0
O135 O 0.44951 0.87693 0.07696 0.0
H136 H 0.41656 0.79433 0.10514 0.0
H137 H 0.48933 0.83788 0.07594 0.0
H138 H 0.29732 0.86822 0.17187 0.0
H139 H 0.41862 0.99362 0.09824 0.0
H140 H 0.28722 0.91729 0.18818 0.0
H141 H 0.3696 0.00158 0.08125 0.0
O142 O 0.39903 0.86274 0.15253 0.0
H143 H 0.52859 0.91764 0.11917 0.0
H144 H 0.48356 0.82012 0.12969 0.0
H145 H 0.53277 0.82995 0.14505 0.0
H146 H 0.55561 0.87901 0.13981 0.0
H147 H 0.47932 0.90698 0.10431 0.0
H148 H 0.50551 0.79147 0.05871 0.0
H149 H 0.47682 0.7458 0.06497 0.0
O150 O 0.42963 0.83384 0.13297 0.0
C151 C 0.37316 0.85496 0.09909 0.0
C152 C 0.44479 0.76714 0.08559 0.0
C153 C 0.48599 0.79188 0.06891 0.0
N154 N 0.45218 0.81873 0.09166 0.0
C155 C 0.43618 0.79375 0.09509 0.0
C156 C 0.4767 0.8181 0.07867 0.0
C157 C 0.46989 0.76626 0.07244 0.0
C158 C 0.40568 0.95334 0.11422 0.0
N159 N 0.38363 0.93352 0.1177 0.0
C160 C 0.40101 0.97809 0.10107 0.0
C161 C 0.37351 0.98252 0.09151 0.0
C162 C 0.35111 0.96223 0.09519 0.0
C163 C 0.35661 0.93768 0.10837 0.0
C164 C 0.32619 0.9369 0.17449 0.0
C165 C 0.33743 0.88229 0.1562 0.0
C166 C 0.35115 0.93204 0.16158 0.0
N167 N 0.35638 0.90504 0.15252 0.0
C168 C 0.31226 0.88632 0.16903 0.0
C169 C 0.30664 0.91385 0.17819 0.0
C170 C 0.41371 0.83916 0.14991 0.0
C171 C 0.51891 0.89615 0.12151 0.0
C172 C 0.49332 0.84154 0.1274 0.0
C173 C 0.52122 0.84696 0.13609 0.0
C174 C 0.53404 0.87448 0.13312 0.0
N175 N 0.4786 0.8629 0.11605 0.0
C176 C 0.49105 0.88993 0.11304 0.0
Co177 Co 0.59764 0.38703 0.13465 0.0
Co178 Co 0.64337 0.43294 0.10516 0.0
O179 O 0.60511 0.42177 0.11688 0.0
C180 C 0.57736 0.43606 0.16205 0.0
O181 O 0.60218 0.44874 0.15652 0.0
C182 C 0.60329 0.42988 0.06719 0.0
O183 O 0.5972 0.40315 0.07391 0.0
O184 O 0.65042 0.39267 0.09345 0.0
O185 O 0.6247 0.36289 0.11588 0.0
H186 H 0.75145 0.42156 0.09081 0.0
H187 H 0.54762 0.42093 0.1165 0.0
O188 O 0.57102 0.4108 0.15423 0.0
H189 H 0.53802 0.32158 0.08481 0.0
H190 H 0.53386 0.31826 0.17858 0.0
H191 H 0.63454 0.33924 0.15302 0.0
H192 H 0.57821 0.33311 0.11076 0.0
H193 H 0.54401 0.3616 0.15533 0.0
O194 O 0.62325 0.44466 0.07696 0.0
H195 H 0.70333 0.40751 0.10622 0.0
H196 H 0.66397 0.48303 0.07759 0.0
H197 H 0.62535 0.29555 0.17608 0.0
H198 H 0.5071 0.41034 0.09064 0.0
H199 H 0.57469 0.28483 0.18902 0.0
H200 H 0.50215 0.36039 0.07457 0.0
O201 O 0.63098 0.39667 0.15441 0.0
H202 H 0.58474 0.5247 0.11929 0.0
H203 H 0.67917 0.47442 0.13215 0.0
H204 H 0.67077 0.52342 0.14834 0.0
H205 H 0.6233 0.54892 0.14192 0.0
H206 H 0.59385 0.47551 0.10369 0.0
H207 H 0.71166 0.49782 0.06172 0.0
H208 H 0.75584 0.46704 0.06838 0.0
O209 O 0.66344 0.42156 0.13348 0.0
C210 C 0.6434 0.36718 0.10048 0.0
C211 C 0.73239 0.43522 0.08785 0.0
C212 C 0.71004 0.478 0.0715 0.0
N213 N 0.68095 0.44457 0.09295 0.0
C214 C 0.7051 0.42742 0.09659 0.0
C215 C 0.6831 0.46949 0.08049 0.0
C216 C 0.73482 0.46072 0.07525 0.0
C217 C 0.54541 0.39905 0.10976 0.0
N218 N 0.56512 0.37761 0.11523 0.0
C219 C 0.52249 0.39322 0.09507 0.0
C220 C 0.51977 0.3652 0.08602 0.0
C221 C 0.53991 0.34342 0.09174 0.0
C222 C 0.56262 0.35007 0.10642 0.0
C223 C 0.556 0.32265 0.17299 0.0
C224 C 0.6124 0.33459 0.15845 0.0
C225 C 0.56188 0.34716 0.15985 0.0
N226 N 0.58977 0.35273 0.15264 0.0
C227 C 0.60735 0.30988 0.17156 0.0
C228 C 0.57893 0.3039 0.17884 0.0
C229 C 0.65581 0.40901 0.15147 0.0
C230 C 0.60556 0.51386 0.12214 0.0
C231 C 0.65842 0.48534 0.1293 0.0
C232 C 0.65382 0.51311 0.13848 0.0
C233 C 0.62719 0.52741 0.13486 0.0
N234 N 0.63709 0.47215 0.11687 0.0
C235 C 0.61092 0.48606 0.11323 0.0
Co236 Co 0.11825 0.89836 0.36879 0.0
Co237 Co 0.06729 0.85607 0.39665 0.0
O238 O 0.08187 0.89312 0.38505 0.0
C239 C 0.07163 0.91716 0.33851 0.0
O240 O 0.05815 0.89296 0.34446 0.0
C241 C 0.07262 0.89618 0.43477 0.0
O242 O 0.09974 0.90096 0.42836 0.0
O243 O 0.10689 0.84533 0.40855 0.0
O244 O 0.13981 0.87304 0.39021 0.0
H245 H 0.0687 0.74731 0.41062 0.0
H246 H 0.0832 0.95008 0.38262 0.0
O247 O 0.09668 0.92339 0.34672 0.0
H248 H 0.17953 0.96203 0.41878 0.0
H249 H 0.19138 0.95708 0.32487 0.0
H250 H 0.16776 0.85961 0.35564 0.0
H251 H 0.17005 0.91974 0.39426 0.0
H252 H 0.14597 0.94951 0.34638 0.0
O253 O 0.05703 0.87697 0.42486 0.0
H254 H 0.0871 0.79406 0.39535 0.0
H255 H 0.01539 0.83994 0.42404 0.0
H256 H 0.21353 0.86632 0.33443 0.0
H257 H 0.09169 0.99264 0.40702 0.0
H258 H 0.22553 0.91528 0.31883 0.0
H259 H 0.14014 0.99878 0.42533 0.0
O260 O 0.11043 0.86307 0.35034 0.0
H261 H 0.98209 0.92359 0.38187 0.0
H262 H 0.02234 0.82421 0.36999 0.0
H263 H 0.97444 0.83734 0.35368 0.0
H264 H 0.95402 0.88734 0.35959 0.0
H265 H 0.02997 0.90966 0.39767 0.0
H266 H 0.99629 0.79372 0.43974 0.0
H267 H 0.02297 0.74696 0.43299 0.0
O268 O 0.07698 0.83538 0.36827 0.0
C269 C 0.13327 0.85307 0.40419 0.0
C270 C 0.05683 0.76752 0.41362 0.0
C271 C 0.01621 0.79358 0.42999 0.0
N272 N 0.05222 0.81963 0.40868 0.0
C273 C 0.0671 0.79404 0.40497 0.0
C274 C 0.02716 0.81969 0.42111 0.0
C275 C 0.03119 0.76735 0.42619 0.0
C276 C 0.10444 0.95277 0.39035 0.0
N277 N 0.12618 0.93258 0.38691 0.0
C278 C 0.10908 0.97685 0.40421 0.0
C279 C 0.13624 0.98025 0.41452 0.0
C280 C 0.15835 0.95962 0.41086 0.0
C281 C 0.15287 0.93574 0.39696 0.0
C282 C 0.18639 0.93563 0.3316 0.0
C283 C 0.17294 0.88106 0.34905 0.0
C284 C 0.1607 0.93121 0.34376 0.0
N285 N 0.15433 0.90421 0.35237 0.0
C286 C 0.19883 0.88468 0.33699 0.0
C287 C 0.20555 0.91217 0.32823 0.0
C288 C 0.09425 0.8403 0.35204 0.0
C289 C 0.99071 0.90169 0.37923 0.0
C290 C 0.0136 0.84601 0.37262 0.0
C291 C 0.98645 0.85331 0.36338 0.0
C292 C 0.975 0.88136 0.36671 0.0
N293 N 0.0289 0.86607 0.38487 0.0
C294 C 0.01777 0.89362 0.38824 0.0
Co295 Co 0.61079 0.11035 0.36802 0.0
Co296 Co 0.65017 0.06221 0.40083 0.0
O297 O 0.61424 0.07552 0.38645 0.0
C298 C 0.5953 0.06099 0.33887 0.0
O299 O 0.61765 0.04718 0.34774 0.0
C300 C 0.60639 0.07108 0.43626 0.0
O301 O 0.60116 0.09696 0.42756 0.0
O302 O 0.66018 0.10296 0.41069 0.0
O303 O 0.63349 0.13404 0.38987 0.0
H304 H 0.75763 0.06475 0.41972 0.0
H305 H 0.55759 0.07639 0.37991 0.0
O306 O 0.58865 0.08685 0.34532 0.0
H307 H 0.54134 0.17573 0.41005 0.0
H308 H 0.55783 0.17887 0.31639 0.0
H309 H 0.651 0.15865 0.35504 0.0
H310 H 0.58652 0.16421 0.38927 0.0
H311 H 0.56253 0.13577 0.34084 0.0
O312 O 0.62696 0.05509 0.42853 0.0
H313 H 0.71242 0.08146 0.40112 0.0
H314 H 0.66356 0.01364 0.43225 0.0
H315 H 0.6472 0.20207 0.33091 0.0
H316 H 0.51208 0.08694 0.40056 0.0
H317 H 0.60036 0.2124 0.31134 0.0
H318 H 0.50378 0.13691 0.41584 0.0
O319 O 0.64794 0.10109 0.35248 0.0
H320 H 0.58383 0.97545 0.38833 0.0
H321 H 0.68406 0.0145 0.37872 0.0
H322 H 0.67228 0.96479 0.36508 0.0
H323 H 0.62185 0.94495 0.36989 0.0
H324 H 0.59646 0.02507 0.40154 0.0
H325 H 0.70821 0.9963 0.45131 0.0
H326 H 0.75569 0.02186 0.44504 0.0
O327 O 0.67338 0.06874 0.37313 0.0
C328 C 0.65266 0.12885 0.40475 0.0
C329 C 0.73708 0.05338 0.42256 0.0
C330 C 0.70934 0.015 0.44032 0.0
N331 N 0.68542 0.04848 0.41554 0.0
C332 C 0.71143 0.06271 0.41204 0.0
C333 C 0.68412 0.02497 0.42953 0.0
C334 C 0.73597 0.02934 0.43678 0.0
C335 C 0.55397 0.09826 0.38632 0.0
N336 N 0.57456 0.11971 0.38328 0.0
C337 C 0.52823 0.10407 0.39807 0.0
C338 C 0.52361 0.1321 0.40667 0.0
C339 C 0.54469 0.15389 0.40344 0.0
C340 C 0.57022 0.14725 0.39167 0.0
C341 C 0.57833 0.17464 0.32486 0.0
C342 C 0.63047 0.16311 0.34673 0.0
C343 C 0.58113 0.15026 0.33869 0.0
N344 N 0.60694 0.14483 0.34947 0.0
C345 C 0.62848 0.18769 0.33303 0.0
C346 C 0.6022 0.19344 0.32204 0.0
C347 C 0.67028 0.0849 0.35606 0.0
C348 C 0.60591 0.98379 0.38622 0.0
C349 C 0.66206 0.00603 0.38084 0.0
C350 C 0.65553 0.97785 0.37312 0.0
C351 C 0.62724 0.96672 0.37584 0.0
N352 N 0.64103 0.02264 0.39102 0.0
C353 C 0.61324 0.01185 0.39375 0.0
Co354 Co 0.3832 0.60978 0.36616 0.0
Co355 Co 0.43559 0.65185 0.39281 0.0
O356 O 0.42001 0.61473 0.38201 0.0
C357 C 0.42903 0.58925 0.33583 0.0
O358 O 0.44311 0.61315 0.34167 0.0
C359 C 0.43009 0.61271 0.43135 0.0
O360 O 0.40299 0.60802 0.42486 0.0
O361 O 0.3965 0.66376 0.40484 0.0
O362 O 0.3624 0.63632 0.38744 0.0
H363 H 0.43711 0.76119 0.40423 0.0
H364 H 0.4171 0.55751 0.38038 0.0
O365 O 0.40393 0.58364 0.34425 0.0
H366 H 0.32114 0.5491 0.41759 0.0
H367 H 0.30797 0.55124 0.32407 0.0
H368 H 0.33448 0.64918 0.35269 0.0
H369 H 0.33136 0.59053 0.39249 0.0
H370 H 0.354 0.55853 0.34491 0.0
O371 O 0.44586 0.63166 0.42133 0.0
H372 H 0.41747 0.71432 0.39005 0.0
H373 H 0.48791 0.66778 0.41989 0.0
H374 H 0.28813 0.64286 0.33211 0.0
H375 H 0.40779 0.51566 0.40529 0.0
H376 H 0.27464 0.59359 0.31763 0.0
H377 H 0.35954 0.51133 0.42414 0.0
O378 O 0.39162 0.6442 0.347 0.0
H379 H 0.51943 0.58248 0.37844 0.0
H380 H 0.48082 0.68222 0.36556 0.0
H381 H 0.52834 0.66792 0.34922 0.0
H382 H 0.54794 0.61773 0.35564 0.0
H383 H 0.47189 0.59759 0.39427 0.0
H384 H 0.5082 0.71413 0.43455 0.0
H385 H 0.4828 0.76127 0.42667 0.0
O386 O 0.42585 0.67176 0.36414 0.0
C387 C 0.36984 0.65655 0.40099 0.0
C388 C 0.44842 0.7408 0.40774 0.0
C389 C 0.48829 0.71438 0.42479 0.0
N390 N 0.45159 0.68839 0.40407 0.0
C391 C 0.43743 0.71421 0.39971 0.0
C392 C 0.47664 0.6882 0.4165 0.0
C393 C 0.47403 0.74082 0.42035 0.0
C394 C 0.39595 0.55559 0.38835 0.0
N395 N 0.37473 0.57632 0.3849 0.0
C396 C 0.39084 0.53191 0.4025 0.0
C397 C 0.36378 0.52953 0.4131 0.0
C398 C 0.34223 0.55072 0.40945 0.0
C399 C 0.34815 0.57414 0.39523 0.0
C400 C 0.31358 0.5728 0.33034 0.0
C401 C 0.32864 0.62764 0.34658 0.0
C402 C 0.33962 0.57706 0.34211 0.0
N403 N 0.34676 0.6042 0.35015 0.0
C404 C 0.30242 0.62421 0.33488 0.0
C405 C 0.29488 0.59657 0.32674 0.0
C406 C 0.40839 0.66662 0.34804 0.0
C407 C 0.51115 0.60444 0.37557 0.0
C408 C 0.48916 0.66032 0.36837 0.0
C409 C 0.51612 0.65237 0.35912 0.0
C410 C 0.52712 0.62421 0.36275 0.0
N411 N 0.47361 0.6408 0.3809 0.0
C412 C 0.48429 0.61317 0.38457 0.0
Co413 Co 0.89757 0.38867 0.36239 0.0
Co414 Co 0.85215 0.43736 0.38982 0.0
O415 O 0.8905 0.42338 0.38028 0.0
C416 C 0.92178 0.43775 0.33706 0.0
O417 O 0.8971 0.45117 0.34185 0.0
C418 C 0.88814 0.42953 0.42989 0.0
O419 O 0.8934 0.40277 0.42281 0.0
O420 O 0.84014 0.39714 0.39929 0.0
O421 O 0.86846 0.36548 0.38007 0.0
H422 H 0.74201 0.43662 0.39576 0.0
H423 H 0.94757 0.4203 0.38282 0.0
O424 O 0.92635 0.41174 0.34413 0.0
H425 H 0.9516 0.31991 0.41324 0.0
H426 H 0.96108 0.31851 0.31941 0.0
H427 H 0.85996 0.34266 0.34232 0.0
H428 H 0.91355 0.33354 0.38608 0.0
H429 H 0.95132 0.3615 0.34316 0.0
O430 O 0.86979 0.4457 0.41962 0.0
H431 H 0.79025 0.41903 0.38281 0.0
H432 H 0.83305 0.48688 0.41863 0.0
H433 H 0.8687 0.29943 0.31862 0.0
H434 H 0.98604 0.40761 0.40987 0.0
H435 H 0.91957 0.28711 0.30703 0.0
H436 H 0.98817 0.35711 0.42531 0.0
O437 O 0.86591 0.39987 0.3415 0.0
H438 H 0.92052 0.52358 0.38264 0.0
H439 H 0.82332 0.48378 0.36277 0.0
H440 H 0.83783 0.53281 0.34931 0.0
H441 H 0.88677 0.55301 0.35925 0.0
H442 H 0.90521 0.47472 0.39576 0.0
H443 H 0.78528 0.50515 0.43207 0.0
H444 H 0.73931 0.47999 0.4206 0.0
O445 O 0.83475 0.42947 0.35992 0.0
C446 C 0.84747 0.37116 0.39343 0.0
C447 C 0.76188 0.44777 0.40088 0.0
C448 C 0.78617 0.4862 0.42129 0.0
N449 N 0.81443 0.45184 0.4 0.0
C450 C 0.78926 0.4379 0.39359 0.0
C451 C 0.81316 0.47569 0.41369 0.0
C452 C 0.76038 0.47209 0.41483 0.0
C453 C 0.94856 0.39819 0.38929 0.0
N454 N 0.92846 0.37763 0.3828 0.0
C455 C 0.97032 0.39117 0.40466 0.0
C456 C 0.97146 0.36285 0.41335 0.0
C457 C 0.95093 0.34197 0.4066 0.0
C458 C 0.92942 0.34981 0.39124 0.0
C459 C 0.93882 0.32359 0.32442 0.0
C460 C 0.88218 0.3373 0.33748 0.0
C461 C 0.93318 0.34791 0.33785 0.0
N462 N 0.90515 0.35437 0.34429 0.0
C463 C 0.88698 0.31285 0.32401 0.0
C464 C 0.91553 0.30598 0.31748 0.0
C465 C 0.84251 0.4152 0.34269 0.0
C466 C 0.89908 0.51512 0.37834 0.0
C467 C 0.84462 0.49246 0.36722 0.0
C468 C 0.85271 0.52024 0.35956 0.0
C469 C 0.88016 0.53157 0.36515 0.0
N470 N 0.86329 0.47646 0.38018 0.0
C471 C 0.89022 0.48748 0.38578 0.0
Co472 Co 0.88811 0.39427 0.86609 0.0
Co473 Co 0.93941 0.35375 0.89516 0.0
O474 O 0.92485 0.39007 0.8822 0.0
C475 C 0.93432 0.41107 0.83482 0.0
O476 O 0.94778 0.38719 0.84149 0.0
C477 C 0.93564 0.3968 0.9316 0.0
O478 O 0.90876 0.4021 0.92486 0.0
O479 O 0.90011 0.34447 0.90805 0.0
O480 O 0.86684 0.3704 0.88865 0.0
H481 H 0.9371 0.24613 0.91343 0.0
H482 H 0.92313 0.44706 0.87753 0.0
O483 O 0.90935 0.41783 0.84293 0.0
H484 H 0.82729 0.46114 0.91396 0.0
H485 H 0.81388 0.44989 0.82088 0.0
H486 H 0.83853 0.35464 0.85494 0.0
H487 H 0.83668 0.41713 0.89123 0.0
H488 H 0.85986 0.44383 0.842 0.0
O489 O 0.95065 0.37653 0.92239 0.0
H490 H 0.91897 0.29193 0.89647 0.0
H491 H 0.99161 0.33897 0.92272 0.0
H492 H 0.79226 0.35977 0.83414 0.0
H493 H 0.91465 0.49144 0.90005 0.0
H494 H 0.77968 0.40768 0.81692 0.0
H495 H 0.86647 0.49864 0.9185 0.0
O496 O 0.89565 0.35787 0.84886 0.0
H497 H 0.02508 0.4187 0.87614 0.0
H498 H 0.98338 0.31908 0.86967 0.0
H499 H 0.03106 0.33009 0.85221 0.0
H500 H 0.05221 0.38023 0.85539 0.0
H501 H 0.97734 0.40681 0.89315 0.0
H502 H 0.01043 0.29371 0.94012 0.0
H503 H 0.98314 0.24685 0.93544 0.0
O504 O 0.92874 0.33106 0.86781 0.0
C505 C 0.87367 0.35177 0.90355 0.0
C506 C 0.94923 0.26639 0.91553 0.0
C507 C 0.99036 0.29311 0.93054 0.0
N508 N 0.95431 0.31803 0.90851 0.0
C509 C 0.93912 0.29238 0.90592 0.0
C510 C 0.97956 0.31868 0.92071 0.0
C511 C 0.97505 0.26682 0.9279 0.0
C512 C 0.902 0.4502 0.88532 0.0
N513 N 0.88036 0.42963 0.88297 0.0
C514 C 0.89737 0.47531 0.89813 0.0
C515 C 0.87035 0.47931 0.90851 0.0
C516 C 0.84836 0.45826 0.90598 0.0
C517 C 0.85381 0.43339 0.8931 0.0
C518 C 0.81909 0.42892 0.82834 0.0
C519 C 0.83313 0.37561 0.84762 0.0
C520 C 0.84511 0.42536 0.84027 0.0
N521 N 0.85175 0.39898 0.84981 0.0
C522 C 0.80693 0.37836 0.83581 0.0
C523 C 0.7999 0.40523 0.82613 0.0
C524 C 0.9115 0.33501 0.8514 0.0
C525 C 0.01612 0.39675 0.87467 0.0
C526 C 0.99241 0.34095 0.87107 0.0
C527 C 0.01945 0.34705 0.8612 0.0
C528 C 0.03131 0.37517 0.86301 0.0
N529 N 0.9776 0.36225 0.88245 0.0
C530 C 0.98915 0.38985 0.88435 0.0
Co531 Co 0.09457 0.88174 0.86441 0.0
Co532 Co 0.13843 0.92937 0.8941 0.0
O533 O 0.10073 0.91695 0.88206 0.0
C534 C 0.07402 0.93 0.83658 0.0
O535 O 0.09845 0.94321 0.84238 0.0
C536 C 0.09761 0.92594 0.93176 0.0
O537 O 0.09169 0.89914 0.92509 0.0
O538 O 0.14638 0.88938 0.906 0.0
O539 O 0.12147 0.85855 0.88382 0.0
H540 H 0.24653 0.92077 0.90949 0.0
H541 H 0.04323 0.91474 0.8814 0.0
O542 O 0.06807 0.90461 0.84426 0.0
H543 H 0.0349 0.81565 0.91366 0.0
H544 H 0.03349 0.81101 0.81998 0.0
H545 H 0.13294 0.83436 0.84712 0.0
H546 H 0.07565 0.82776 0.8884 0.0
H547 H 0.04211 0.85493 0.84301 0.0
O548 O 0.11763 0.94074 0.92211 0.0
H549 H 0.19904 0.90555 0.89356 0.0
H550 H 0.15734 0.98011 0.92181 0.0
H551 H 0.12529 0.7901 0.82431 0.0
H552 H 0.00208 0.90357 0.90652 0.0
H553 H 0.07526 0.77819 0.81057 0.0
H554 H 0.99778 0.85373 0.92289 0.0
O555 O 0.12831 0.89175 0.84512 0.0
H556 H 0.07717 0.01911 0.87914 0.0
H557 H 0.17356 0.97203 0.8677 0.0
H558 H 0.16402 0.02085 0.85157 0.0
H559 H 0.11554 0.04471 0.85725 0.0
H560 H 0.08751 0.97023 0.89481 0.0
H561 H 0.20439 0.99609 0.93815 0.0
H562 H 0.24941 0.96637 0.93195 0.0
O563 O 0.15924 0.9186 0.86596 0.0
C564 C 0.13984 0.8636 0.89931 0.0
C565 C 0.22709 0.93397 0.91223 0.0
C566 C 0.20342 0.97622 0.92835 0.0
N567 N 0.17552 0.94206 0.90662 0.0
C568 C 0.20015 0.92551 0.90321 0.0
C569 C 0.17685 0.96704 0.9191 0.0
C570 C 0.22868 0.95954 0.92486 0.0
C571 C 0.04131 0.89292 0.88827 0.0
N572 N 0.06169 0.87188 0.88334 0.0
C573 C 0.01804 0.88676 0.90256 0.0
C574 C 0.01568 0.85881 0.91177 0.0
C575 C 0.03651 0.83744 0.90661 0.0
C576 C 0.05955 0.84442 0.89231 0.0
C577 C 0.05538 0.81592 0.82592 0.0
C578 C 0.11108 0.82919 0.84134 0.0
C579 C 0.06039 0.84077 0.83893 0.0
N580 N 0.08794 0.847 0.84657 0.0
C581 C 0.10689 0.80416 0.82837 0.0
C582 C 0.07882 0.79751 0.82065 0.0
C583 C 0.15254 0.90528 0.84806 0.0
C584 C 0.09842 0.00898 0.87661 0.0
C585 C 0.15239 0.98226 0.87025 0.0
C586 C 0.14714 0.00993 0.86109 0.0
C587 C 0.11994 0.02331 0.8643 0.0
N588 N 0.13118 0.96834 0.88231 0.0
C589 C 0.10446 0.98136 0.88555 0.0
Co590 Co 0.6188 0.11696 0.8641 0.0
Co591 Co 0.56785 0.15535 0.89523 0.0
O592 O 0.58315 0.11953 0.88179 0.0
C593 C 0.57098 0.09837 0.83457 0.0
O594 O 0.55564 0.11987 0.84322 0.0
C595 C 0.57704 0.11298 0.93156 0.0
O596 O 0.6033 0.10821 0.92336 0.0
O597 O 0.60783 0.16732 0.90571 0.0
O598 O 0.64074 0.14105 0.88618 0.0
H599 H 0.56554 0.26344 0.91201 0.0
H600 H 0.58648 0.06276 0.87601 0.0
O601 O 0.5971 0.09335 0.84121 0.0
H602 H 0.68506 0.05118 0.90861 0.0
H603 H 0.69177 0.06489 0.81546 0.0
H604 H 0.66597 0.15864 0.85143 0.0
H605 H 0.67267 0.09534 0.88692 0.0
H606 H 0.64717 0.06889 0.83842 0.0
O607 O 0.56073 0.13289 0.92325 0.0
H608 H 0.58455 0.21829 0.89456 0.0
H609 H 0.51781 0.16787 0.92557 0.0
H610 H 0.7109 0.15556 0.82879 0.0
H611 H 0.59794 0.01818 0.8975 0.0
H612 H 0.72403 0.10842 0.81061 0.0
H613 H 0.64752 0.01224 0.91404 0.0
O614 O 0.6086 0.15324 0.84763 0.0
H615 H 0.48431 0.08511 0.88229 0.0
H616 H 0.51945 0.18665 0.8719 0.0
H617 H 0.47079 0.17243 0.85753 0.0
H618 H 0.45292 0.12134 0.8627 0.0
H619 H 0.53294 0.10016 0.89617 0.0
H620 H 0.49818 0.21242 0.94348 0.0
H621 H 0.52204 0.26066 0.93668 0.0
O622 O 0.57417 0.17761 0.86712 0.0
C623 C 0.6342 0.16032 0.9007 0.0
C624 C 0.55491 0.24256 0.91507 0.0
C625 C 0.51713 0.21392 0.93276 0.0
N626 N 0.55224 0.19052 0.90898 0.0
C627 C 0.56554 0.21694 0.90519 0.0
C628 C 0.5284 0.18876 0.92263 0.0
C629 C 0.53052 0.24098 0.92893 0.0
C630 C 0.60819 0.06017 0.88297 0.0
N631 N 0.62893 0.08153 0.88013 0.0
C632 C 0.61451 0.03495 0.89519 0.0
C633 C 0.64232 0.03165 0.9045 0.0
C634 C 0.66339 0.0535 0.90147 0.0
C635 C 0.65625 0.07847 0.8892 0.0
C636 C 0.68631 0.08553 0.82334 0.0
C637 C 0.67166 0.138 0.8437 0.0
C638 C 0.66107 0.08794 0.83632 0.0
N639 N 0.65413 0.1139 0.84639 0.0
C640 C 0.69707 0.13641 0.83084 0.0
C641 C 0.70441 0.10996 0.82063 0.0
C642 C 0.59088 0.17463 0.85033 0.0
C643 C 0.49182 0.10747 0.87998 0.0
C644 C 0.51186 0.16436 0.87417 0.0
C645 C 0.48425 0.15645 0.86604 0.0
C646 C 0.47424 0.12779 0.86897 0.0
N647 N 0.52901 0.1443 0.88493 0.0
C648 C 0.5193 0.11616 0.8879 0.0
Co649 Co 0.38725 0.60715 0.86082 0.0
Co650 Co 0.34529 0.56442 0.89583 0.0
O651 O 0.38213 0.57503 0.8816 0.0
C652 C 0.40629 0.55468 0.8366 0.0
O653 O 0.38224 0.54223 0.84402 0.0
C654 C 0.3882 0.57432 0.93156 0.0
O655 O 0.39362 0.59985 0.92234 0.0
O656 O 0.33744 0.60622 0.90408 0.0
O657 O 0.36165 0.63345 0.87892 0.0
H658 H 0.23779 0.57346 0.91339 0.0
H659 H 0.43941 0.57648 0.8789 0.0
O660 O 0.41236 0.58107 0.84199 0.0
H661 H 0.45035 0.67993 0.90167 0.0
H662 H 0.44568 0.66867 0.80758 0.0
H663 H 0.3479 0.65098 0.83988 0.0
H664 H 0.408 0.66433 0.87906 0.0
H665 H 0.43861 0.63013 0.83572 0.0
O666 O 0.36769 0.5581 0.924 0.0
H667 H 0.28417 0.58703 0.89491 0.0
H668 H 0.32895 0.5187 0.92876 0.0
H669 H 0.35394 0.68977 0.81185 0.0
H670 H 0.48207 0.59113 0.90147 0.0
H671 H 0.40314 0.69881 0.79548 0.0
H672 H 0.48772 0.64316 0.91305 0.0
O673 O 0.3522 0.59476 0.8439 0.0
H674 H 0.40711 0.47351 0.88763 0.0
H675 H 0.30945 0.51722 0.87483 0.0
H676 H 0.31888 0.46616 0.86319 0.0
H677 H 0.36799 0.44397 0.86959 0.0
H678 H 0.39687 0.52457 0.8988 0.0
H679 H 0.28319 0.50482 0.94792 0.0
H680 H 0.23716 0.53226 0.94019 0.0
O681 O 0.32288 0.57005 0.86751 0.0
C682 C 0.34386 0.63081 0.89511 0.0
C683 C 0.25771 0.56141 0.9169 0.0
C684 C 0.28319 0.52285 0.93628 0.0
N685 N 0.30916 0.55351 0.91063 0.0
C686 C 0.28399 0.56887 0.90641 0.0
C687 C 0.30904 0.53086 0.92543 0.0
C688 C 0.25737 0.53825 0.93194 0.0
C689 C 0.44189 0.59923 0.88367 0.0
N690 N 0.42137 0.61957 0.87756 0.0
C691 C 0.46603 0.60736 0.89653 0.0
C692 C 0.46914 0.63656 0.90306 0.0
C693 C 0.44816 0.6572 0.89669 0.0
C694 C 0.42424 0.64824 0.88391 0.0
C695 C 0.42417 0.66506 0.81468 0.0
C696 C 0.36942 0.65504 0.83305 0.0
C697 C 0.42004 0.6433 0.83063 0.0
N698 N 0.39294 0.63864 0.83968 0.0
C699 C 0.37269 0.67694 0.8171 0.0
C700 C 0.40029 0.68197 0.8079 0.0
C701 C 0.32841 0.58151 0.84871 0.0
C702 C 0.38558 0.4829 0.88482 0.0
C703 C 0.3309 0.50774 0.87766 0.0
C704 C 0.33609 0.4788 0.87106 0.0
C705 C 0.36364 0.46635 0.87467 0.0
N706 N 0.35253 0.52384 0.88761 0.0
C707 C 0.3796 0.51177 0.89122 0.0
Co708 Co 0.88464 0.10553 0.63272 0.0
Co709 Co 0.93575 0.15076 0.60782 0.0
O710 O 0.92105 0.11262 0.61693 0.0
C711 C 0.93101 0.08429 0.66221 0.0
O712 O 0.94499 0.10845 0.65687 0.0
C713 C 0.92931 0.11522 0.56733 0.0
O714 O 0.9022 0.1102 0.57364 0.0
O715 O 0.89608 0.16332 0.59726 0.0
O716 O 0.86286 0.13287 0.61274 0.0
H717 H 0.93612 0.26094 0.60262 0.0
H718 H 0.9202 0.05563 0.61617 0.0
O719 O 0.90615 0.07861 0.65347 0.0
H720 H 0.82448 0.04695 0.57859 0.0
H721 H 0.81214 0.0411 0.67238 0.0
H722 H 0.83535 0.14235 0.64919 0.0
H723 H 0.83326 0.08647 0.60573 0.0
H724 H 0.857 0.05162 0.65096 0.0
O725 O 0.94524 0.13326 0.57816 0.0
H726 H 0.91734 0.21265 0.61451 0.0
H727 H 0.98678 0.16976 0.58054 0.0
H728 H 0.7907 0.13283 0.67122 0.0
H729 H 0.91242 0.01583 0.58914 0.0
H730 H 0.77862 0.08196 0.68262 0.0
H731 H 0.86428 0.01135 0.5701 0.0
O732 O 0.89223 0.13892 0.6533 0.0
H733 H 0.02106 0.0815 0.61646 0.0
H734 H 0.98151 0.17901 0.63587 0.0
H735 H 0.0299 0.16395 0.65029 0.0
H736 H 0.05 0.11488 0.64055 0.0
H737 H 0.97264 0.09725 0.60267 0.0
H738 H 0.0062 0.21758 0.56811 0.0
H739 H 0.98087 0.26361 0.57924 0.0
O740 O 0.9267 0.16775 0.63763 0.0
C741 C 0.86968 0.15481 0.60062 0.0
C742 C 0.94737 0.24104 0.59768 0.0
C743 C 0.98668 0.2167 0.57829 0.0
N744 N 0.95097 0.18844 0.59825 0.0
C745 C 0.93686 0.21364 0.6044 0.0
C746 C 0.97552 0.18969 0.5853 0.0
C747 C 0.97247 0.24252 0.58455 0.0
C748 C 0.89909 0.05363 0.60812 0.0
N749 N 0.87714 0.07323 0.61261 0.0
C750 C 0.89486 0.03112 0.59277 0.0
C751 C 0.86786 0.02866 0.58207 0.0
C752 C 0.84553 0.04864 0.58681 0.0
C753 C 0.85061 0.07097 0.60218 0.0
C754 C 0.81702 0.06338 0.66733 0.0
C755 C 0.83025 0.12011 0.65414 0.0
C756 C 0.84236 0.06946 0.65518 0.0
N757 N 0.84861 0.09753 0.64867 0.0
C758 C 0.8049 0.11488 0.66653 0.0
C759 C 0.79822 0.0863 0.67306 0.0
C760 C 0.90908 0.16136 0.65335 0.0
C761 C 0.01257 0.10295 0.62078 0.0
C762 C 0.99006 0.15759 0.63164 0.0
C763 C 0.01751 0.14921 0.6398 0.0
C764 C 0.02878 0.12168 0.63432 0.0
N765 N 0.97429 0.13911 0.61837 0.0
C766 C 0.98521 0.11207 0.61293 0.0
Co767 Co 0.39816 0.88684 0.64018 0.0
Co768 Co 0.35247 0.93248 0.6103 0.0
O769 O 0.39098 0.92059 0.62124 0.0
C770 C 0.42264 0.93751 0.66384 0.0
O771 O 0.39903 0.95167 0.6575 0.0
C772 C 0.39079 0.92619 0.5714 0.0
O773 O 0.39678 0.89973 0.57874 0.0
O774 O 0.34346 0.89175 0.60025 0.0
O775 O 0.36947 0.86247 0.62289 0.0
H776 H 0.24334 0.92434 0.59954 0.0
H777 H 0.44839 0.91765 0.61953 0.0
O778 O 0.42649 0.91076 0.65828 0.0
H779 H 0.45322 0.81601 0.59153 0.0
H780 H 0.46153 0.81876 0.68508 0.0
H781 H 0.36055 0.84155 0.66106 0.0
H782 H 0.41462 0.83071 0.61792 0.0
H783 H 0.45181 0.86088 0.66051 0.0
O784 O 0.37139 0.94173 0.58113 0.0
H785 H 0.29175 0.90944 0.61403 0.0
H786 H 0.33218 0.98152 0.58154 0.0
H787 H 0.36929 0.79907 0.68548 0.0
H788 H 0.48743 0.90389 0.59323 0.0
H789 H 0.42009 0.78746 0.69766 0.0
H790 H 0.48995 0.85276 0.57901 0.0
O791 O 0.36637 0.89913 0.66046 0.0
H792 H 0.41493 0.02295 0.61884 0.0
H793 H 0.3198 0.97701 0.63681 0.0
H794 H 0.3308 0.02675 0.6507 0.0
H795 H 0.37867 0.05005 0.64172 0.0
H796 H 0.40324 0.97317 0.60549 0.0
H797 H 0.28424 0.99711 0.56656 0.0
H798 H 0.23938 0.96849 0.57563 0.0
O799 O 0.33353 0.9237 0.63964 0.0
C800 C 0.35024 0.86645 0.60779 0.0
C801 C 0.26271 0.93706 0.59554 0.0
C802 C 0.28567 0.97787 0.577 0.0
N803 N 0.31469 0.94474 0.59878 0.0
C804 C 0.29016 0.92877 0.60375 0.0
C805 C 0.31276 0.96891 0.58549 0.0
C806 C 0.26051 0.96181 0.5821 0.0
C807 C 0.44957 0.89528 0.6136 0.0
N808 N 0.4294 0.87496 0.62034 0.0
C809 C 0.47164 0.88765 0.59864 0.0
C810 C 0.473 0.85897 0.59063 0.0
C811 C 0.45238 0.83834 0.59764 0.0
C812 C 0.43056 0.84679 0.61256 0.0
C813 C 0.43931 0.82355 0.67985 0.0
C814 C 0.38274 0.83649 0.66617 0.0
C815 C 0.43367 0.84739 0.66597 0.0
N816 N 0.40568 0.85346 0.65921 0.0
C817 C 0.38754 0.81247 0.68005 0.0
C818 C 0.41605 0.80599 0.68689 0.0
C819 C 0.34187 0.91221 0.65787 0.0
C820 C 0.39395 0.01309 0.62276 0.0
C821 C 0.3407 0.98697 0.63285 0.0
C822 C 0.34677 0.01518 0.64072 0.0
C823 C 0.37362 0.02825 0.63565 0.0
N824 N 0.36079 0.97219 0.62027 0.0
C825 C 0.38711 0.98495 0.61514 0.0
Co826 Co 0.60933 0.38731 0.63518 0.0
Co827 Co 0.55985 0.34914 0.60268 0.0
O828 O 0.57391 0.38456 0.61735 0.0
C829 C 0.56164 0.40202 0.66584 0.0
O830 O 0.54804 0.37902 0.65772 0.0
C831 C 0.56827 0.39369 0.56782 0.0
O832 O 0.59455 0.39806 0.57611 0.0
O833 O 0.60016 0.33909 0.59194 0.0
O834 O 0.63213 0.36462 0.61285 0.0
H835 H 0.56096 0.24226 0.58187 0.0
H836 H 0.57581 0.4412 0.62428 0.0
O837 O 0.58669 0.40949 0.65828 0.0
H838 H 0.67449 0.45643 0.59272 0.0
H839 H 0.67952 0.43887 0.68638 0.0
H840 H 0.65745 0.34638 0.64732 0.0
H841 H 0.66289 0.41111 0.61329 0.0
H842 H 0.63596 0.43498 0.6623 0.0
O843 O 0.55207 0.37326 0.57551 0.0
H844 H 0.57859 0.28678 0.60099 0.0
H845 H 0.51021 0.33706 0.5719 0.0
H846 H 0.70135 0.34938 0.67108 0.0
H847 H 0.58647 0.48689 0.60389 0.0
H848 H 0.71258 0.39587 0.69086 0.0
H849 H 0.63609 0.49467 0.58789 0.0
O850 O 0.60006 0.34994 0.65051 0.0
H851 H 0.47398 0.41561 0.61797 0.0
H852 H 0.51267 0.31486 0.62498 0.0
H853 H 0.46353 0.32647 0.63974 0.0
H854 H 0.44387 0.37716 0.63624 0.0
H855 H 0.52311 0.40313 0.60366 0.0
H856 H 0.49194 0.29314 0.55234 0.0
H857 H 0.51733 0.24529 0.55734 0.0
O858 O 0.56702 0.32518 0.62993 0.0
C859 C 0.62629 0.34603 0.59769 0.0
C860 C 0.54967 0.26297 0.5796 0.0
C861 C 0.51096 0.29153 0.563 0.0
N862 N 0.54536 0.31443 0.58764 0.0
C863 C 0.55951 0.28823 0.59043 0.0
C864 C 0.52145 0.31634 0.57407 0.0
C865 C 0.5252 0.26469 0.56582 0.0
C866 C 0.59754 0.44458 0.61755 0.0
N867 N 0.61876 0.42363 0.62007 0.0
C868 C 0.60341 0.47043 0.60595 0.0
C869 C 0.63125 0.47477 0.59695 0.0
C870 C 0.6528 0.45331 0.59964 0.0
C871 C 0.6461 0.4277 0.61129 0.0
C872 C 0.67489 0.41852 0.67781 0.0
C873 C 0.66234 0.36677 0.6557 0.0
C874 C 0.65026 0.41617 0.66418 0.0
N875 N 0.64431 0.39055 0.65329 0.0
C876 C 0.68717 0.3683 0.66921 0.0
C877 C 0.69343 0.39438 0.68032 0.0
C878 C 0.58358 0.32781 0.64684 0.0
C879 C 0.48227 0.39342 0.61954 0.0
C880 C 0.50429 0.33698 0.62344 0.0
C881 C 0.47643 0.34341 0.63179 0.0
C882 C 0.4654 0.37185 0.62981 0.0
N883 N 0.5207 0.35824 0.61337 0.0
C884 C 0.51004 0.38619 0.61138 0.0
Co885 Co 0.10604 0.6137 0.63453 0.0
Co886 Co 0.14613 0.56402 0.60358 0.0
O887 O 0.10986 0.57815 0.61695 0.0
C888 C 0.08841 0.56614 0.66451 0.0
O889 O 0.11188 0.55236 0.65738 0.0
C890 C 0.10376 0.57159 0.56711 0.0
O891 O 0.09889 0.59806 0.57491 0.0
O892 O 0.15661 0.60414 0.59267 0.0
O893 O 0.13057 0.63618 0.6131 0.0
H894 H 0.25402 0.56561 0.58623 0.0
H895 H 0.05289 0.5804 0.62144 0.0
O896 O 0.08191 0.59138 0.65674 0.0
H897 H 0.04075 0.67881 0.58868 0.0
H898 H 0.05096 0.68559 0.6822 0.0
H899 H 0.14641 0.66165 0.64816 0.0
H900 H 0.08432 0.66719 0.6113 0.0
H901 H 0.05659 0.64111 0.65926 0.0
O902 O 0.12369 0.55558 0.57571 0.0
H903 H 0.20833 0.5833 0.60363 0.0
H904 H 0.16031 0.51373 0.57389 0.0
H905 H 0.14166 0.70646 0.67079 0.0
H906 H 0.00897 0.59107 0.59896 0.0
H907 H 0.09368 0.71866 0.68801 0.0
H908 H 0.00274 0.64056 0.58236 0.0
O909 O 0.1421 0.60427 0.65157 0.0
H910 H 0.07901 0.4782 0.61726 0.0
H911 H 0.17916 0.51723 0.62743 0.0
H912 H 0.16673 0.4683 0.64223 0.0
H913 H 0.11635 0.44846 0.63713 0.0
H914 H 0.09224 0.52714 0.60304 0.0
H915 H 0.20546 0.49538 0.55605 0.0
H916 H 0.25275 0.52133 0.56224 0.0
O917 O 0.16847 0.57188 0.63156 0.0
C918 C 0.14964 0.6303 0.59829 0.0
C919 C 0.23356 0.55405 0.58346 0.0
C920 C 0.2063 0.51467 0.56649 0.0
N921 N 0.18175 0.54945 0.58989 0.0
C922 C 0.20764 0.56392 0.59331 0.0
C923 C 0.1808 0.5252 0.57659 0.0
C924 C 0.23283 0.52923 0.56998 0.0
C925 C 0.05016 0.60208 0.61446 0.0
N926 N 0.07102 0.62321 0.61779 0.0
C927 C 0.02531 0.60795 0.60167 0.0
C928 C 0.02186 0.63571 0.59233 0.0
C929 C 0.0432 0.65718 0.59586 0.0
C930 C 0.06782 0.65048 0.60867 0.0
C931 C 0.07196 0.68053 0.67475 0.0
C932 C 0.12539 0.66691 0.65546 0.0
C933 C 0.0753 0.65536 0.66179 0.0
N934 N 0.10172 0.64893 0.65225 0.0
C935 C 0.12287 0.69226 0.66832 0.0
C936 C 0.09595 0.69908 0.678 0.0
C937 C 0.16462 0.58806 0.64858 0.0
C938 C 0.10105 0.48657 0.61956 0.0
C939 C 0.15716 0.5088 0.62526 0.0
C940 C 0.15027 0.48105 0.6336 0.0
C941 C 0.122 0.46992 0.63072 0.0
N942 N 0.1365 0.52502 0.61434 0.0
C943 C 0.10873 0.51424 0.61145 0.0
H944 H 0.13923 0.70386 0.07983 0.0
H945 H 0.18012 0.7366 0.07128 0.0
H946 H 0.24137 0.6709 0.09398 0.0
H947 H 0.20063 0.63836 0.10313 0.0
H948 H 0.25188 0.71988 0.11403 0.0
H949 H 0.23676 0.69305 0.03861 0.0
H950 H 0.20887 0.68506 0.00422 0.0
H951 H 0.18679 0.77671 0.0019 0.0
H952 H 0.21415 0.78519 0.03647 0.0
H953 H 0.37393 0.81171 0.06737 0.0
H954 H 0.33487 0.77623 0.0596 0.0
H955 H 0.27688 0.82279 0.10362 0.0
H956 H 0.31529 0.85872 0.11115 0.0
H957 H 0.2695 0.78003 0.047 0.0
H958 H 0.25846 0.76776 0.14098 0.0
H959 H 0.28853 0.77524 0.17445 0.0
H960 H 0.36691 0.7573 0.13743 0.0
H961 H 0.33729 0.74921 0.10385 0.0
C962 C 0.1614 0.69602 0.08248 0.0
C963 C 0.16655 0.66854 0.0924 0.0
C964 C 0.18485 0.71481 0.07752 0.0
C965 C 0.21392 0.70631 0.08204 0.0
C966 C 0.21916 0.67808 0.09049 0.0
C967 C 0.19578 0.65942 0.09564 0.0
C968 C 0.23845 0.72786 0.08036 0.0
C969 C 0.25578 0.73274 0.09924 0.0
C970 C 0.2438 0.74474 0.06109 0.0
C971 C 0.22732 0.7397 0.04027 0.0
C972 C 0.22576 0.71146 0.03088 0.0
C973 C 0.21007 0.70686 0.01133 0.0
C974 C 0.19598 0.73035 1.00093 0.0
C975 C 0.19767 0.75853 0.01 0.0
C976 C 0.21329 0.76325 0.02956 0.0
C977 C 0.3526 0.81499 0.07489 0.0
C978 C 0.34799 0.83788 0.0902 0.0
C979 C 0.33029 0.79469 0.07036 0.0
C980 C 0.3032 0.79677 0.08124 0.0
C981 C 0.29774 0.82081 0.09514 0.0
C982 C 0.31983 0.84131 0.09945 0.0
C983 C 0.28215 0.772 0.08067 0.0
C984 C 0.26556 0.76674 0.06156 0.0
C985 C 0.2777 0.75434 0.09955 0.0
C986 C 0.29564 0.75822 0.11985 0.0
C987 C 0.28209 0.76527 0.14001 0.0
C988 C 0.29906 0.76963 0.159 0.0
C989 C 0.32961 0.7669 0.15803 0.0
C990 C 0.34326 0.75957 0.13812 0.0
C991 C 0.32638 0.75512 0.11911 0.0
H992 H 0.3427 0.77032 0.17274 0.0
H993 H 0.18379 0.72676 0.98582 0.0
H994 H 0.79845 0.13365 0.0822 0.0
H995 H 0.76487 0.17403 0.07437 0.0
H996 H 0.82663 0.23541 0.10253 0.0
H997 H 0.86007 0.19506 0.11096 0.0
H998 H 0.7756 0.24379 0.12019 0.0
H999 H 0.80911 0.23729 0.0453 0.0
H1000 H 0.82204 0.21188 0.01063 0.0
H1001 H 0.73381 0.17946 0.005 0.0
H1002 H 0.72019 0.20515 0.03943 0.0
H1003 H 0.68746 0.36636 0.06939 0.0
H1004 H 0.72261 0.32666 0.06279 0.0
H1005 H 0.6743 0.27059 0.10712 0.0
H1006 H 0.63891 0.3098 0.11371 0.0
H1007 H 0.7214 0.26345 0.05058 0.0
H1008 H 0.72507 0.24907 0.14493 0.0
H1009 H 0.71409 0.27818 0.17835 0.0
H1010 H 0.73484 0.35768 0.14355 0.0
H1011 H 0.74631 0.32904 0.11009 0.0
C1012 C 0.80526 0.15578 0.08631 0.0
C1013 C 0.83196 0.16097 0.0974 0.0
C1014 C 0.78599 0.17896 0.08173 0.0
C1015 C 0.79314 0.20788 0.08782 0.0
C1016 C 0.8205 0.2133 0.09776 0.0
C1017 C 0.83968 0.19015 0.1025 0.0
C1018 C 0.77104 0.2319 0.08585 0.0
C1019 C 0.76399 0.2481 0.10489 0.0
C1020 C 0.75588 0.23792 0.06591 0.0
C1021 C 0.7637 0.223 0.04497 0.0
C1022 C 0.79247 0.22476 0.03664 0.0
C1023 C 0.79987 0.21043 0.01699 0.0
C1024 C 0.77871 0.19417 0.00558 0.0
C1025 C 0.75009 0.19227 0.01377 0.0
C1026 C 0.74247 0.20685 0.03328 0.0
C1027 C 0.68376 0.34533 0.07726 0.0
C1028 C 0.66056 0.34154 0.09241 0.0
C1029 C 0.70386 0.32262 0.07337 0.0
C1030 C 0.70122 0.29587 0.08468 0.0
C1031 C 0.67678 0.29117 0.09833 0.0
C1032 C 0.65659 0.31372 0.10211 0.0
C1033 C 0.72594 0.27466 0.08496 0.0
C1034 C 0.7333 0.25908 0.06575 0.0
C1035 C 0.74199 0.26964 0.1046 0.0
C1036 C 0.73628 0.28691 0.12496 0.0
C1037 C 0.72746 0.27274 0.14447 0.0
C1038 C 0.7211 0.28917 0.16341 0.0
C1039 C 0.72364 0.31978 0.16306 0.0
C1040 C 0.73274 0.334 0.1438 0.0
C1041 C 0.73916 0.31768 0.12485 0.0
H1042 H 0.71863 0.33248 0.1777 0.0
H1043 H 0.7845 0.183 0.99041 0.0
H1044 H 0.19202 0.86546 0.40221 0.0
H1045 H 0.23252 0.83229 0.41051 0.0
H1046 H 0.17147 0.76812 0.43565 0.0
H1047 H 0.13055 0.80131 0.42754 0.0
H1048 H 0.22636 0.76814 0.4585 0.0
H1049 H 0.18876 0.761 0.38499 0.0
H1050 H 0.17174 0.78059 0.34929 0.0
H1051 H 0.25719 0.81715 0.33723 0.0
H1052 H 0.27465 0.798 0.37306 0.0
H1053 H 0.31146 0.64268 0.40573 0.0
H1054 H 0.27148 0.67606 0.41608 0.0
H1055 H 0.33418 0.74533 0.42733 0.0
H1056 H 0.3743 0.71202 0.41798 0.0
H1057 H 0.27753 0.74139 0.38897 0.0
H1058 H 0.3141 0.74214 0.46522 0.0
H1059 H 0.32607 0.71988 0.50111 0.0
H1060 H 0.23674 0.69135 0.50836 0.0
H1061 H 0.22453 0.71221 0.47192 0.0
C1062 C 0.18711 0.84462 0.41001 0.0
C1063 C 0.15788 0.83591 0.41384 0.0
C1064 C 0.21037 0.82567 0.41477 0.0
C1065 C 0.20496 0.79756 0.42334 0.0
C1066 C 0.17611 0.78972 0.429 0.0
C1067 C 0.15273 0.80873 0.42428 0.0
C1068 C 0.22877 0.77526 0.42342 0.0
C1069 C 0.23751 0.76211 0.44333 0.0
C1070 C 0.24306 0.76726 0.40356 0.0
C1071 C 0.23294 0.7783 0.38178 0.0
C1072 C 0.20388 0.77336 0.37478 0.0
C1073 C 0.19415 0.78437 0.35453 0.0
C1074 C 0.21334 0.80017 0.34102 0.0
C1075 C 0.24235 0.8049 0.34772 0.0
C1076 C 0.25219 0.79394 0.36799 0.0
C1077 C 0.31684 0.66474 0.41112 0.0
C1078 C 0.34615 0.67463 0.411 0.0
C1079 C 0.29396 0.68372 0.41712 0.0
C1080 C 0.29994 0.71297 0.42292 0.0
C1081 C 0.32918 0.72261 0.42353 0.0
C1082 C 0.3521 0.70351 0.41804 0.0
C1083 C 0.27571 0.73463 0.42413 0.0
C1084 C 0.26662 0.74749 0.40423 0.0
C1085 C 0.26082 0.74173 0.44397 0.0
C1086 C 0.2686 0.72808 0.46545 0.0
C1087 C 0.29721 0.73028 0.47404 0.0
C1088 C 0.30401 0.71804 0.49459 0.0
C1089 C 0.28222 0.70405 0.50696 0.0
C1090 C 0.25364 0.70206 0.49872 0.0
C1091 C 0.24682 0.71397 0.47806 0.0
H1092 H 0.28744 0.69495 0.52299 0.0
H1093 H 0.20575 0.80871 0.32535 0.0
H1094 H 0.7886 0.372 0.40057 0.0
H1095 H 0.75631 0.33059 0.40753 0.0
H1096 H 0.83134 0.2727 0.41049 0.0
H1097 H 0.86368 0.31412 0.40154 0.0
H1098 H 0.79138 0.24701 0.38858 0.0
H1099 H 0.78807 0.29813 0.4585 0.0
H1100 H 0.78249 0.34373 0.48012 0.0
H1101 H 0.69386 0.35297 0.4569 0.0
H1102 H 0.69905 0.30773 0.43482 0.0
H1103 H 0.7061 0.12787 0.42558 0.0
H1104 H 0.73959 0.16928 0.43051 0.0
H1105 H 0.6727 0.22873 0.40731 0.0
H1106 H 0.63911 0.18742 0.40191 0.0
H1107 H 0.71018 0.25154 0.4432 0.0
H1108 H 0.715 0.20894 0.37013 0.0
H1109 H 0.71899 0.16748 0.34416 0.0
H1110 H 0.8025 0.14398 0.37203 0.0
H1111 H 0.79893 0.18544 0.39826 0.0
C1112 C 0.79832 0.35057 0.403 0.0
C1113 C 0.82874 0.34642 0.40073 0.0
C1114 C 0.77977 0.32678 0.40715 0.0
C1115 C 0.79127 0.29841 0.41023 0.0
C1116 C 0.82182 0.29431 0.40835 0.0
C1117 C 0.84033 0.31802 0.40338 0.0
C1118 C 0.77127 0.27295 0.41431 0.0
C1119 C 0.77417 0.24785 0.40095 0.0
C1120 C 0.74807 0.27408 0.42999 0.0
C1121 C 0.74404 0.29966 0.44487 0.0
C1122 C 0.76736 0.30984 0.45806 0.0
C1123 C 0.76432 0.33571 0.4703 0.0
C1124 C 0.73794 0.35139 0.46967 0.0
C1125 C 0.71433 0.3409 0.45723 0.0
C1126 C 0.71729 0.31511 0.44489 0.0
C1127 C 0.69813 0.14979 0.42209 0.0
C1128 C 0.66996 0.15421 0.41308 0.0
C1129 C 0.71738 0.17345 0.42489 0.0
C1130 C 0.7087 0.20199 0.41906 0.0
C1131 C 0.6798 0.20686 0.41192 0.0
C1132 C 0.66065 0.18317 0.40881 0.0
C1133 C 0.73071 0.22595 0.41764 0.0
C1134 C 0.728 0.25064 0.43133 0.0
C1135 C 0.75399 0.22462 0.40222 0.0
C1136 C 0.75656 0.20004 0.38628 0.0
C1137 C 0.73413 0.19481 0.3708 0.0
C1138 C 0.73632 0.17132 0.35603 0.0
C1139 C 0.76089 0.15294 0.35652 0.0
C1140 C 0.78344 0.15818 0.3717 0.0
C1141 C 0.78138 0.18172 0.38649 0.0
H1142 H 0.7625 0.13471 0.34509 0.0
H1143 H 0.73571 0.3716 0.47894 0.0
H1144 H 0.87719 0.30027 0.92682 0.0
H1145 H 0.83658 0.26747 0.93614 0.0
H1146 H 0.77453 0.33218 0.9134 0.0
H1147 H 0.81493 0.36509 0.90363 0.0
H1148 H 0.75991 0.29061 0.95576 0.0
H1149 H 0.78327 0.29308 0.87455 0.0
H1150 H 0.82233 0.29399 0.84626 0.0
H1151 H 0.86041 0.21607 0.87418 0.0
H1152 H 0.82138 0.21463 0.90245 0.0
H1153 H 0.63235 0.21586 0.91795 0.0
H1154 H 0.67397 0.24727 0.92716 0.0
H1155 H 0.7333 0.17505 0.91506 0.0
H1156 H 0.69178 0.14399 0.90474 0.0
H1157 H 0.75286 0.21847 0.89449 0.0
H1158 H 0.7186 0.20726 0.96791 0.0
H1159 H 0.68433 0.20736 0.99942 0.0
H1160 H 0.67173 0.30028 0.99211 0.0
H1161 H 0.7052 0.30067 0.96014 0.0
C1162 C 0.85493 0.308 0.92441 0.0
C1163 C 0.84939 0.33521 0.91417 0.0
C1164 C 0.83174 0.28921 0.92984 0.0
C1165 C 0.80264 0.29747 0.92546 0.0
C1166 C 0.79686 0.32557 0.91708 0.0
C1167 C 0.82004 0.34426 0.91138 0.0
C1168 C 0.77907 0.27508 0.92554 0.0
C1169 C 0.75801 0.27485 0.9424 0.0
C1170 C 0.77741 0.25412 0.90844 0.0
C1171 C 0.79942 0.25365 0.89046 0.0
C1172 C 0.79984 0.276 0.87446 0.0
C1173 C 0.82198 0.27663 0.85846 0.0
C1174 C 0.84378 0.25501 0.85833 0.0
C1175 C 0.84338 0.23265 0.87415 0.0
C1176 C 0.82119 0.23183 0.8901 0.0
C1177 C 0.65419 0.20645 0.91771 0.0
C1178 C 0.65871 0.17742 0.91049 0.0
C1179 C 0.67808 0.22447 0.92309 0.0
C1180 C 0.70698 0.21364 0.92194 0.0
C1181 C 0.71132 0.1841 0.91596 0.0
C1182 C 0.68752 0.16627 0.91015 0.0
C1183 C 0.73266 0.23373 0.92474 0.0
C1184 C 0.75439 0.23374 0.9082 0.0
C1185 C 0.73496 0.25416 0.94243 0.0
C1186 C 0.71431 0.25392 0.96145 0.0
C1187 C 0.70827 0.22767 0.97283 0.0
C1188 C 0.689 0.22765 0.9908 0.0
C1189 C 0.67591 0.2538 0.99778 0.0
C1190 C 0.68191 0.28002 0.9867 0.0
C1191 C 0.701 0.28015 0.96862 0.0
H1192 H 0.66113 0.25374 0.01177 0.0
H1193 H 0.86101 0.25561 0.84603 0.0
H1194 H 0.31522 0.64075 0.93443 0.0
H1195 H 0.28304 0.68217 0.94348 0.0
H1196 H 0.3012 0.72066 0.87977 0.0
H1197 H 0.33488 0.68094 0.87153 0.0
H1198 H 0.29426 0.76232 0.90487 0.0
H1199 H 0.23645 0.67466 0.89269 0.0
H1200 H 0.22105 0.62349 0.89945 0.0
H1201 H 0.20025 0.64508 0.96672 0.0
H1202 H 0.21578 0.69635 0.9603 0.0
H1203 H 0.13477 0.80551 0.88807 0.0
H1204 H 0.16995 0.76653 0.89566 0.0
H1205 H 0.21917 0.82499 0.9378 0.0
H1206 H 0.18444 0.86451 0.92989 0.0
H1207 H 0.19325 0.73636 0.92869 0.0
H1208 H 0.29196 0.81666 0.92552 0.0
H1209 H 0.3032 0.86609 0.91099 0.0
H1210 H 0.23678 0.85584 0.86123 0.0
H1211 H 0.2257 0.80613 0.87508 0.0
C1212 C 0.31275 0.6584 0.92258 0.0
C1213 C 0.32743 0.65734 0.90216 0.0
C1214 C 0.29411 0.68196 0.92766 0.0
C1215 C 0.28887 0.7043 0.91207 0.0
C1216 C 0.30466 0.70386 0.89216 0.0
C1217 C 0.32393 0.6809 0.88739 0.0
C1218 C 0.26581 0.72718 0.91559 0.0
C1219 C 0.27229 0.75657 0.91029 0.0
C1220 C 0.23682 0.71992 0.92226 0.0
C1221 C 0.22744 0.68919 0.9261 0.0
C1222 C 0.22869 0.66842 0.90894 0.0
C1223 C 0.21995 0.63941 0.9127 0.0
C1224 C 0.20975 0.63099 0.93352 0.0
C1225 C 0.20818 0.6516 0.9506 0.0
C1226 C 0.21689 0.68064 0.94691 0.0
C1227 C 0.15271 0.81004 0.89933 0.0
C1228 C 0.15705 0.83842 0.90799 0.0
C1229 C 0.17277 0.78758 0.90374 0.0
C1230 C 0.19752 0.79299 0.91694 0.0
C1231 C 0.20048 0.82048 0.92725 0.0
C1232 C 0.18051 0.84305 0.92275 0.0
C1233 C 0.22173 0.77111 0.91762 0.0
C1234 C 0.21544 0.74207 0.92373 0.0
C1235 C 0.25047 0.77835 0.91051 0.0
C1236 C 0.25775 0.80784 0.90157 0.0
C1237 C 0.2799 0.8249 0.9114 0.0
C1238 C 0.28625 0.85295 0.90326 0.0
C1239 C 0.27066 0.86411 0.88524 0.0
C1240 C 0.2488 0.84719 0.87522 0.0
C1241 C 0.24252 0.81907 0.88318 0.0
H1242 H 0.27554 0.88585 0.87901 0.0
H1243 H 0.203 0.60852 0.93642 0.0
H1244 H 0.68507 0.35817 0.60092 0.0
H1245 H 0.72577 0.32484 0.59305 0.0
H1246 H 0.66502 0.26098 0.56698 0.0
H1247 H 0.62408 0.29423 0.5746 0.0
H1248 H 0.7019 0.24055 0.60184 0.0
H1249 H 0.71017 0.29415 0.53363 0.0
H1250 H 0.71368 0.34062 0.5131 0.0
H1251 H 0.79672 0.35906 0.54377 0.0
H1252 H 0.79306 0.31328 0.56532 0.0
H1253 H 0.81434 0.13719 0.58888 0.0
H1254 H 0.77255 0.16859 0.57954 0.0
H1255 H 0.82796 0.24523 0.58523 0.0
H1256 H 0.87003 0.21379 0.59296 0.0
H1257 H 0.79096 0.25729 0.55639 0.0
H1258 H 0.7807 0.21892 0.62935 0.0
H1259 H 0.77753 0.1818 0.65881 0.0
H1260 H 0.70282 0.14267 0.62693 0.0
H1261 H 0.70553 0.17979 0.59727 0.0
C1262 C 0.68035 0.33736 0.59299 0.0
C1263 C 0.6512 0.32886 0.58853 0.0
C1264 C 0.7037 0.31833 0.5885 0.0
C1265 C 0.69839 0.29042 0.5795 0.0
C1266 C 0.66954 0.28244 0.57396 0.0
C1267 C 0.64618 0.30158 0.57822 0.0
C1268 C 0.72256 0.26864 0.5779 0.0
C1269 C 0.72109 0.24378 0.59148 0.0
C1270 C 0.74813 0.27371 0.5652 0.0
C1271 C 0.7512 0.30033 0.55125 0.0
C1272 C 0.72911 0.30816 0.53611 0.0
C1273 C 0.7311 0.33445 0.52433 0.0
C1274 C 0.75542 0.35281 0.52713 0.0
C1275 C 0.77787 0.34484 0.54165 0.0
C1276 C 0.7758 0.31875 0.55371 0.0
C1277 C 0.81767 0.1607 0.58767 0.0
C1278 C 0.84543 0.17303 0.59181 0.0
C1279 C 0.79371 0.1787 0.58254 0.0
C1280 C 0.79672 0.20949 0.58234 0.0
C1281 C 0.82484 0.22164 0.58532 0.0
C1282 C 0.84897 0.20359 0.58979 0.0
C1283 C 0.77051 0.22909 0.58053 0.0
C1284 C 0.77157 0.25361 0.5664 0.0
C1285 C 0.74498 0.22453 0.5935 0.0
C1286 C 0.74356 0.20184 0.61099 0.0
C1287 C 0.76375 0.20224 0.62854 0.0
C1288 C 0.76199 0.18124 0.6453 0.0
C1289 C 0.74008 0.15973 0.64468 0.0
C1290 C 0.71982 0.15929 0.62735 0.0
C1291 C 0.72141 0.18034 0.61059 0.0
H1292 H 0.7387 0.14349 0.65769 0.0
H1293 H 0.7569 0.37321 0.51802 0.0
H1294 H 0.1994 0.62802 0.57251 0.0
H1295 H 0.23458 0.66791 0.56654 0.0
H1296 H 0.17577 0.72856 0.59867 0.0
H1297 H 0.14052 0.68913 0.60473 0.0
H1298 H 0.23602 0.72777 0.54887 0.0
H1299 H 0.21573 0.76026 0.63931 0.0
H1300 H 0.19633 0.73785 0.67343 0.0
H1301 H 0.22491 0.6528 0.65147 0.0
H1302 H 0.24489 0.67477 0.61744 0.0
H1303 H 0.30319 0.86536 0.57927 0.0
H1304 H 0.27137 0.82363 0.57068 0.0
H1305 H 0.32656 0.76708 0.60994 0.0
H1306 H 0.35828 0.8086 0.61883 0.0
H1307 H 0.27126 0.76199 0.62207 0.0
H1308 H 0.32313 0.76302 0.55366 0.0
H1309 H 0.34246 0.78387 0.51906 0.0
H1310 H 0.25459 0.79815 0.49568 0.0
H1311 H 0.23467 0.77832 0.53045 0.0
C1312 C 0.19349 0.65001 0.57772 0.0
C1313 C 0.1673 0.65516 0.58951 0.0
C1314 C 0.21365 0.67281 0.57422 0.0
C1315 C 0.20797 0.70103 0.5825 0.0
C1316 C 0.18068 0.70684 0.59234 0.0
C1317 C 0.16055 0.68417 0.59582 0.0
C1318 C 0.23187 0.72312 0.58406 0.0
C1319 C 0.24378 0.73542 0.5648 0.0
C1320 C 0.24243 0.73241 0.60489 0.0
C1321 C 0.23159 0.71916 0.62576 0.0
C1322 C 0.21807 0.73682 0.64186 0.0
C1323 C 0.20694 0.72418 0.66117 0.0
C1324 C 0.20933 0.69391 0.6646 0.0
C1325 C 0.22299 0.67623 0.64878 0.0
C1326 C 0.23422 0.68877 0.62948 0.0
C1327 C 0.30892 0.84395 0.58578 0.0
C1328 C 0.3333 0.84049 0.5999 0.0
C1329 C 0.29069 0.82005 0.58077 0.0
C1330 C 0.29653 0.79214 0.58963 0.0
C1331 C 0.32152 0.78839 0.60295 0.0
C1332 C 0.33971 0.81223 0.60799 0.0
C1333 C 0.27527 0.76753 0.58683 0.0
C1334 C 0.26374 0.75457 0.60601 0.0
C1335 C 0.2654 0.75758 0.56587 0.0
C1336 C 0.27739 0.7696 0.54491 0.0
C1337 C 0.30789 0.77105 0.54133 0.0
C1338 C 0.31897 0.78273 0.52167 0.0
C1339 C 0.29977 0.79262 0.50529 0.0
C1340 C 0.26944 0.79073 0.50848 0.0
C1341 C 0.25825 0.77932 0.52818 0.0
H1342 H 0.30838 0.80145 0.49002 0.0
H1343 H 0.20061 0.68419 0.67953 0.0
H1344 H 0.91997 0.49414 0.32225 0.0
H1345 H 0.95333 0.51795 0.29644 0.0
H1346 H 0.00624 0.43939 0.29371 0.0
H1347 H 0.9725 0.41505 0.31941 0.0
H1348 H 0.01061 0.53121 0.29742 0.0
H1349 H 0.03223 0.43259 0.24028 0.0
H1350 H 0.00892 0.38578 0.22945 0.0
H1351 H 0.92381 0.42188 0.24353 0.0
H1352 H 0.94658 0.46899 0.25413 0.0
H1353 H 0.10169 0.54022 0.18796 0.0
H1354 H 0.0812 0.51182 0.21873 0.0
H1355 H 0.01372 0.57723 0.22758 0.0
H1356 H 0.03374 0.60557 0.19689 0.0
H1357 H 0.02416 0.48856 0.2227 0.0
H1358 H 0.00248 0.58476 0.28412 0.0
H1359 H 0.02512 0.63142 0.29592 0.0
H1360 H 0.1091 0.60162 0.27274 0.0
H1361 H 0.08712 0.55458 0.26115 0.0
C1362 C 0.93873 0.48188 0.31625 0.0
C1363 C 0.94342 0.45258 0.3227 0.0
C1364 C 0.95789 0.49561 0.30157 0.0
C1365 C 0.98209 0.48037 0.29297 0.0
C1366 C 0.98746 0.45142 0.29994 0.0
C1367 C 0.96824 0.4376 0.31467 0.0
C1368 C 0.0008 0.49467 0.27608 0.0
C1369 C 0.01346 0.522 0.28103 0.0
C1370 C 0.00516 0.48221 0.25491 0.0
C1371 C 0.99117 0.45415 0.24827 0.0
C1372 C 0.00854 0.43053 0.241 0.0
C1373 C 0.99542 0.40396 0.2349 0.0
C1374 C 0.96491 0.40082 0.23589 0.0
C1375 C 0.94744 0.42429 0.24286 0.0
C1376 C 0.96045 0.45092 0.24894 0.0
C1377 C 0.0825 0.54856 0.19648 0.0
C1378 C 0.06936 0.57516 0.19 0.0
C1379 C 0.07087 0.53232 0.21403 0.0
C1380 C 0.04623 0.54268 0.22558 0.0
C1381 C 0.03305 0.56914 0.21909 0.0
C1382 C 0.04442 0.58519 0.20144 0.0
C1383 C 0.03335 0.52546 0.24389 0.0
C1384 C 0.02173 0.4976 0.23918 0.0
C1385 C 0.02975 0.53758 0.26524 0.0
C1386 C 0.04306 0.56616 0.27161 0.0
C1387 C 0.0258 0.5881 0.2816 0.0
C1388 C 0.03854 0.61458 0.28833 0.0
C1389 C 0.06856 0.61941 0.28519 0.0
C1390 C 0.08587 0.59782 0.27521 0.0
C1391 C 0.07325 0.57127 0.26849 0.0
H1392 H 0.07835 0.63997 0.29033 0.0
H1393 H 0.9548 0.38022 0.23119 0.0
H1394 H 0.96916 0.09144 0.1851 0.0
H1395 H 0.9985 0.07017 0.21509 0.0
H1396 H 0.93374 0.00193 0.22357 0.0
H1397 H 0.90441 0.02288 0.19385 0.0
H1398 H 0.95059 0.02695 0.26306 0.0
H1399 H 0.99628 0.98758 0.1971 0.0
H1400 H 0.02104 0.99126 0.16099 0.0
H1401 H 0.09122 0.04046 0.19065 0.0
H1402 H 0.06664 0.03741 0.2269 0.0
H1403 H 0.01735 0.91133 0.32014 0.0
H1404 H 0.99406 0.94298 0.2929 0.0
H1405 H 0.07014 0.99949 0.29279 0.0
H1406 H 0.09399 0.96749 0.32001 0.0
H1407 H 0.05111 0.98793 0.25116 0.0
H1408 H 0.00837 0.02087 0.31837 0.0
H1409 H 0.98376 0.0161 0.35444 0.0
H1410 H 0.90775 0.97935 0.3228 0.0
H1411 H 0.93209 0.98337 0.28657 0.0
C1412 C 0.96126 0.07184 0.19331 0.0
C1413 C 0.93451 0.0588 0.18703 0.0
C1414 C 0.97803 0.05973 0.21042 0.0
C1415 C 0.96828 0.03446 0.22152 0.0
C1416 C 0.94161 0.02149 0.21527 0.0
C1417 C 0.92495 0.03344 0.19817 0.0
C1418 C 0.98568 0.02121 0.23964 0.0
C1419 C 0.97248 0.01823 0.26045 0.0
C1420 C 0.01464 0.01082 0.2364 0.0
C1421 C 0.02945 0.01259 0.21464 0.0
C1422 C 0.01686 0.99941 0.19588 0.0
C1423 C 0.03088 0.00134 0.1754 0.0
C1424 C 0.05764 0.01617 0.17351 0.0
C1425 C 0.07046 0.02903 0.19213 0.0
C1426 C 0.0565 0.0272 0.21264 0.0
C1427 C 0.02921 0.93049 0.3144 0.0
C1428 C 0.05754 0.93691 0.32227 0.0
C1429 C 0.01575 0.94867 0.29889 0.0
C1430 C 0.03019 0.97382 0.29103 0.0
C1431 C 0.05858 0.98025 0.29872 0.0
C1432 C 0.07212 0.96201 0.3143 0.0
C1433 C 0.01563 0.99281 0.27442 0.0
C1434 C 0.02937 0.99699 0.25391 0.0
C1435 C 0.98712 0.00433 0.27795 0.0
C1436 C 0.9722 0.0022 0.29973 0.0
C1437 C 0.98649 0.01156 0.3191 0.0
C1438 C 0.97258 0.009 0.33959 0.0
C1439 C 0.94424 0.99736 0.34092 0.0
C1440 C 0.92972 0.98833 0.32175 0.0
C1441 C 0.94356 0.99076 0.30122 0.0
H1442 H 0.93351 0.9954 0.35679 0.0
H1443 H 0.06847 0.01763 0.15765 0.0
H1444 H 0.59348 0.00265 0.32886 0.0
H1445 H 0.56653 0.97886 0.29882 0.0
H1446 H 0.53255 0.06294 0.27823 0.0
H1447 H 0.55926 0.08695 0.30842 0.0
H1448 H 0.50684 0.9771 0.29021 0.0
H1449 H 0.53202 0.06344 0.22343 0.0
H1450 H 0.5723 0.09571 0.21084 0.0
H1451 H 0.63564 0.03706 0.23941 0.0
H1452 H 0.59572 0.00488 0.25258 0.0
H1453 H 0.41574 0.95128 0.1948 0.0
H1454 H 0.44126 0.97692 0.22496 0.0
H1455 H 0.52406 0.94258 0.20193 0.0
H1456 H 0.49882 0.91655 0.17216 0.0
H1457 H 0.5252 0.00317 0.21187 0.0
H1458 H 0.49776 0.91089 0.24328 0.0
H1459 H 0.46462 0.87055 0.25414 0.0
H1460 H 0.41517 0.92998 0.29477 0.0
H1461 H 0.44784 0.97079 0.28393 0.0
C1462 C 0.58023 0.01609 0.31796 0.0
C1463 C 0.57841 0.04666 0.32101 0.0
C1464 C 0.56479 0.00244 0.30086 0.0
C1465 C 0.54766 0.01915 0.28628 0.0
C1466 C 0.54581 0.04969 0.28925 0.0
C1467 C 0.56093 0.06333 0.30656 0.0
C1468 C 0.53162 0.00457 0.26801 0.0
C1469 C 0.51065 0.98296 0.27309 0.0
C1470 C 0.53707 0.01171 0.24569 0.0
C1471 C 0.56093 0.03198 0.23914 0.0
C1472 C 0.55455 0.05763 0.22718 0.0
C1473 C 0.5773 0.07591 0.21998 0.0
C1474 C 0.60651 0.06847 0.22436 0.0
C1475 C 0.61301 0.04289 0.23614 0.0
C1476 C 0.59033 0.02478 0.24365 0.0
C1477 C 0.4394 0.94943 0.19611 0.0
C1478 C 0.45532 0.93192 0.1812 0.0
C1479 C 0.45389 0.96392 0.21337 0.0
C1480 C 0.48448 0.96147 0.21567 0.0
C1481 C 0.50044 0.94469 0.20041 0.0
C1482 C 0.48598 0.92981 0.18347 0.0
C1483 C 0.50004 0.97613 0.23406 0.0
C1484 C 0.52093 0.99773 0.22901 0.0
C1485 C 0.49509 0.96831 0.25635 0.0
C1486 C 0.475 0.94399 0.26254 0.0
C1487 C 0.47959 0.91545 0.2543 0.0
C1488 C 0.46096 0.89247 0.26052 0.0
C1489 C 0.43775 0.89771 0.27508 0.0
C1490 C 0.43313 0.92596 0.28346 0.0
C1491 C 0.4517 0.94902 0.27729 0.0
H1492 H 0.42341 0.87987 0.27992 0.0
H1493 H 0.62411 0.08251 0.21862 0.0
H1494 H 0.58625 0.48837 0.1829 0.0
H1495 H 0.55747 0.5097 0.21281 0.0
H1496 H 0.49653 0.43732 0.20925 0.0
H1497 H 0.52533 0.41561 0.17912 0.0
H1498 H 0.46924 0.49297 0.2147 0.0
H1499 H 0.54638 0.43601 0.24711 0.0
H1500 H 0.59758 0.41991 0.25248 0.0
H1501 H 0.62122 0.50646 0.27441 0.0
H1502 H 0.57048 0.52339 0.26836 0.0
H1503 H 0.40597 0.53876 0.31778 0.0
H1504 H 0.42801 0.50782 0.28901 0.0
H1505 H 0.50359 0.56498 0.28706 0.0
H1506 H 0.4822 0.59541 0.31589 0.0
H1507 H 0.52053 0.50971 0.28592 0.0
H1508 H 0.44804 0.56881 0.2482 0.0
H1509 H 0.3982 0.58793 0.24125 0.0
H1510 H 0.36709 0.50034 0.22906 0.0
H1511 H 0.41671 0.48066 0.23623 0.0
C1512 C 0.56662 0.47701 0.18831 0.0
C1513 C 0.55825 0.45011 0.17876 0.0
C1514 C 0.55023 0.48924 0.20545 0.0
C1515 C 0.52515 0.47485 0.21344 0.0
C1516 C 0.51592 0.44867 0.20335 0.0
C1517 C 0.53242 0.43629 0.18619 0.0
C1518 C 0.50941 0.48682 0.23289 0.0
C1519 C 0.48022 0.49615 0.23042 0.0
C1520 C 0.524 0.49133 0.25326 0.0
C1521 C 0.55459 0.48106 0.25707 0.0
C1522 C 0.56256 0.45172 0.25282 0.0
C1523 C 0.59155 0.44245 0.25595 0.0
C1524 C 0.61271 0.46219 0.26364 0.0
C1525 C 0.6049 0.49122 0.26827 0.0
C1526 C 0.57602 0.50069 0.26497 0.0
C1527 C 0.42735 0.5446 0.31127 0.0
C1528 C 0.44224 0.56964 0.31904 0.0
C1529 C 0.43986 0.52699 0.29478 0.0
C1530 C 0.46734 0.53425 0.28572 0.0
C1531 C 0.48239 0.5589 0.2938 0.0
C1532 C 0.47002 0.57638 0.31025 0.0
C1533 C 0.4806 0.5167 0.26758 0.0
C1534 C 0.50935 0.50618 0.27031 0.0
C1535 C 0.46576 0.51143 0.2474 0.0
C1536 C 0.43598 0.52323 0.24302 0.0
C1537 C 0.43051 0.55361 0.24421 0.0
C1538 C 0.40232 0.56455 0.2402 0.0
C1539 C 0.37947 0.54535 0.23479 0.0
C1540 C 0.38479 0.51518 0.23331 0.0
C1541 C 0.41294 0.50412 0.23733 0.0
H1542 H 0.35766 0.55387 0.23169 0.0
H1543 H 0.63513 0.45495 0.26609 0.0
H1544 H 0.03565 0.58535 0.68106 0.0
H1545 H 0.00699 0.56338 0.71115 0.0
H1546 H 0.07205 0.4952 0.71814 0.0
H1547 H 0.10054 0.51658 0.68804 0.0
H1548 H 0.98386 0.50479 0.7143 0.0
H1549 H 0.08065 0.48459 0.77519 0.0
H1550 H 0.12706 0.50781 0.78692 0.0
H1551 H 0.09597 0.59152 0.76415 0.0
H1552 H 0.04918 0.56895 0.75264 0.0
H1553 H 0.98936 0.40534 0.81775 0.0
H1554 H 0.01275 0.43542 0.78952 0.0
H1555 H 0.93527 0.48974 0.7856 0.0
H1556 H 0.91143 0.45942 0.81385 0.0
H1557 H 0.02687 0.49273 0.78903 0.0
H1558 H 0.92821 0.51259 0.73115 0.0
H1559 H 0.88159 0.48873 0.72057 0.0
H1560 H 0.91761 0.40433 0.73699 0.0
H1561 H 0.96452 0.42763 0.74738 0.0
C1562 C 0.04381 0.56564 0.68898 0.0
C1563 C 0.07043 0.55278 0.68221 0.0
C1564 C 0.02741 0.55314 0.70613 0.0
C1565 C 0.03765 0.52792 0.71701 0.0
C1566 C 0.06402 0.51491 0.71014 0.0
C1567 C 0.08018 0.52711 0.69285 0.0
C1568 C 0.02072 0.51464 0.73533 0.0
C1569 C 0.99298 0.50263 0.73077 0.0
C1570 C 0.03298 0.51132 0.75665 0.0
C1571 C 0.06145 0.52498 0.76288 0.0
C1572 C 0.08367 0.50797 0.77273 0.0
C1573 C 0.11001 0.52104 0.77943 0.0
C1574 C 0.11439 0.55115 0.7764 0.0
C1575 C 0.09251 0.56821 0.76653 0.0
C1576 C 0.06611 0.55526 0.75985 0.0
C1577 C 0.97719 0.42364 0.8109 0.0
C1578 C 0.94844 0.42989 0.81797 0.0
C1579 C 0.99068 0.4409 0.79481 0.0
C1580 C 0.97571 0.46469 0.78534 0.0
C1581 C 0.9471 0.47127 0.79252 0.0
C1582 C 0.93356 0.454 0.80871 0.0
C1583 C 0.99026 0.48237 0.76791 0.0
C1584 C 0.01759 0.49517 0.77263 0.0
C1585 C 0.97774 0.48621 0.74671 0.0
C1586 C 0.94972 0.47193 0.74031 0.0
C1587 C 0.92618 0.48894 0.73246 0.0
C1588 C 0.89971 0.47551 0.72649 0.0
C1589 C 0.8966 0.44505 0.72819 0.0
C1590 C 0.91999 0.42793 0.73578 0.0
C1591 C 0.94651 0.44125 0.74174 0.0
H1592 H 0.87609 0.4347 0.72358 0.0
H1593 H 0.13483 0.5612 0.78153 0.0
H1594 H 0.07897 0.98499 0.81939 0.0
H1595 H 0.04868 0.00756 0.79095 0.0
H1596 H 0.99442 0.92993 0.78825 0.0
H1597 H 0.02506 0.90681 0.81667 0.0
H1598 H 0.00954 0.94901 0.74716 0.0
H1599 H 0.96784 0.99121 0.8118 0.0
H1600 H 0.96774 0.0159 0.84804 0.0
H1601 H 0.00767 0.09223 0.81921 0.0
H1602 H 0.00843 0.06785 0.78284 0.0
H1603 H 0.91032 0.03085 0.67637 0.0
H1604 H 0.92953 0.00102 0.7069 0.0
H1605 H 0.99783 0.06501 0.71804 0.0
H1606 H 0.97914 0.09467 0.68766 0.0
H1607 H 0.96754 0.04885 0.75645 0.0
H1608 H 0.01465 0.0039 0.69324 0.0
H1609 H 0.0152 0.97924 0.65698 0.0
H1610 H 0.96441 0.90801 0.68347 0.0
H1611 H 0.96317 0.9325 0.71983 0.0
C1612 C 0.06051 0.9727 0.81288 0.0
C1613 C 0.05441 0.94409 0.82029 0.0
C1614 C 0.04312 0.98572 0.79668 0.0
C1615 C 0.01911 0.97055 0.78766 0.0
C1616 C 0.01281 0.94202 0.79506 0.0
C1617 C 0.03025 0.92892 0.81135 0.0
C1618 C 0.0014 0.98444 0.77 0.0
C1619 C 0.99976 0.97055 0.74932 0.0
C1620 C 0.98898 0.0127 0.77276 0.0
C1621 C 0.98834 0.0276 0.79459 0.0
C1622 C 0.97678 0.01319 0.8132 0.0
C1623 C 0.97658 0.02714 0.83377 0.0
C1624 C 0.98773 0.0556 0.83593 0.0
C1625 C 0.99904 0.07019 0.81751 0.0
C1626 C 0.99932 0.05632 0.7969 0.0
C1627 C 0.92955 0.03842 0.68525 0.0
C1628 C 0.94318 0.06513 0.67963 0.0
C1629 C 0.94046 0.02139 0.70265 0.0
C1630 C 0.965 0.03093 0.71471 0.0
C1631 C 0.97876 0.05739 0.70898 0.0
C1632 C 0.96809 0.07423 0.69153 0.0
C1633 C 0.97643 0.01376 0.73356 0.0
C1634 C 0.97684 0.02706 0.75445 0.0
C1635 C 0.98763 0.98499 0.73098 0.0
C1636 C 0.98848 0.97021 0.70917 0.0
C1637 C 0.00335 0.98311 0.69128 0.0
C1638 C 0.00384 0.96915 0.67072 0.0
C1639 C 0.98977 0.94212 0.6679 0.0
C1640 C 0.97525 0.92897 0.68566 0.0
C1641 C 0.97465 0.94289 0.70625 0.0
H1642 H 0.99018 0.93133 0.65197 0.0
H1643 H 0.98757 0.06636 0.85187 0.0
H1644 H 0.51324 0.08579 0.82862 0.0
H1645 H 0.49105 0.05674 0.79912 0.0
H1646 H 0.57667 0.04379 0.76996 0.0
H1647 H 0.59908 0.07119 0.8004 0.0
H1648 H 0.48482 0.06343 0.75895 0.0
H1649 H 0.57997 0.98232 0.73964 0.0
H1650 H 0.6205 0.95735 0.75913 0.0
H1651 H 0.57318 0.96396 0.82026 0.0
H1652 H 0.53223 0.98862 0.80109 0.0
H1653 H 0.44272 0.99347 0.6613 0.0
H1654 H 0.47262 0.01965 0.68851 0.0
H1655 H 0.47609 0.94134 0.72871 0.0
H1656 H 0.44831 0.91458 0.70051 0.0
H1657 H 0.52361 0.96701 0.73431 0.0
H1658 H 0.42445 0.00126 0.73647 0.0
H1659 H 0.37849 0.02177 0.72139 0.0
H1660 H 0.42368 0.10109 0.70357 0.0
H1661 H 0.47003 0.08088 0.71825 0.0
C1662 C 0.52732 0.07644 0.81602 0.0
C1663 C 0.55787 0.08042 0.81687 0.0
C1664 C 0.51462 0.05995 0.79908 0.0
C1665 C 0.53213 0.04765 0.78234 0.0
C1666 C 0.56269 0.05223 0.78295 0.0
C1667 C 0.5755 0.068 0.80029 0.0
C1668 C 0.51818 0.03053 0.76415 0.0
C1669 C 0.49333 0.04231 0.75363 0.0
C1670 C 0.52882 0.0027 0.75732 0.0
C1671 C 0.5532 0.9876 0.76895 0.0
C1672 C 0.57818 0.97835 0.75722 0.0
C1673 C 0.60123 0.96427 0.76822 0.0
C1674 C 0.59946 0.95917 0.79093 0.0
C1675 C 0.57458 0.96803 0.80268 0.0
C1676 C 0.55146 0.98208 0.79177 0.0
C1677 C 0.45041 0.98181 0.67579 0.0
C1678 C 0.44322 0.95215 0.67897 0.0
C1679 C 0.46724 0.99681 0.69144 0.0
C1680 C 0.47588 0.98283 0.71111 0.0
C1681 C 0.46966 0.95275 0.71379 0.0
C1682 C 0.45375 0.93745 0.69771 0.0
C1683 C 0.49009 0.99977 0.72929 0.0
C1684 C 0.51509 0.98808 0.73968 0.0
C1685 C 0.47869 0.02701 0.7368 0.0
C1686 C 0.45077 0.03943 0.72825 0.0
C1687 C 0.42461 0.02302 0.72923 0.0
C1688 C 0.39849 0.03459 0.72075 0.0
C1689 C 0.39818 0.06268 0.71146 0.0
C1690 C 0.42397 0.07931 0.71072 0.0
C1691 C 0.45017 0.06782 0.71913 0.0
H1692 H 0.37795 0.07158 0.70488 0.0
H1693 H 0.61734 0.94829 0.79941 0.0
H1694 H 0.5782 0.45544 0.68265 0.0
H1695 H 0.55557 0.48213 0.71349 0.0
H1696 H 0.49277 0.41207 0.72175 0.0
H1697 H 0.51489 0.38548 0.69095 0.0
H1698 H 0.4954 0.50066 0.71699 0.0
H1699 H 0.48264 0.40182 0.77444 0.0
H1700 H 0.50888 0.35631 0.78467 0.0
H1701 H 0.59136 0.39739 0.7696 0.0
H1702 H 0.56557 0.4428 0.75874 0.0
H1703 H 0.40135 0.49755 0.82325 0.0
H1704 H 0.43092 0.47209 0.79552 0.0
H1705 H 0.48405 0.54975 0.78709 0.0
H1706 H 0.45444 0.57552 0.81462 0.0
H1707 H 0.48908 0.45858 0.79246 0.0
H1708 H 0.49968 0.55742 0.73301 0.0
H1709 H 0.47187 0.60205 0.72299 0.0
H1710 H 0.3913 0.55991 0.74185 0.0
H1711 H 0.41859 0.5151 0.7519 0.0
C1712 C 0.55958 0.44575 0.69105 0.0
C1713 C 0.54824 0.41843 0.68432 0.0
C1714 C 0.54671 0.461 0.70863 0.0
C1715 C 0.5227 0.44891 0.71995 0.0
C1716 C 0.51149 0.4216 0.71334 0.0
C1717 C 0.52404 0.40655 0.69564 0.0
C1718 C 0.50854 0.46509 0.73826 0.0
C1719 C 0.4945 0.49181 0.73361 0.0
C1720 C 0.50662 0.45301 0.7597 0.0
C1721 C 0.52218 0.42558 0.7657 0.0
C1722 C 0.50637 0.40105 0.77324 0.0
C1723 C 0.52115 0.37524 0.77904 0.0
C1724 C 0.55177 0.3739 0.77766 0.0
C1725 C 0.56765 0.39834 0.77045 0.0
C1726 C 0.55295 0.42404 0.76431 0.0
C1727 C 0.41941 0.5092 0.81557 0.0
C1728 C 0.4254 0.53864 0.821 0.0
C1729 C 0.43635 0.49456 0.7998 0.0
C1730 C 0.45943 0.50915 0.78908 0.0
C1731 C 0.46606 0.53824 0.79496 0.0
C1732 C 0.44918 0.55288 0.81076 0.0
C1733 C 0.47596 0.49425 0.77124 0.0
C1734 C 0.49026 0.46767 0.77592 0.0
C1735 C 0.47785 0.50632 0.74976 0.0
C1736 C 0.46123 0.53306 0.74342 0.0
C1737 C 0.47602 0.5577 0.73497 0.0
C1738 C 0.46035 0.58304 0.72933 0.0
C1739 C 0.42985 0.58389 0.73191 0.0
C1740 C 0.41494 0.55934 0.74003 0.0
C1741 C 0.4305 0.53399 0.74574 0.0
H1742 H 0.41776 0.60353 0.72757 0.0
H1743 H 0.56319 0.35394 0.78221 0.0
H1744 H 0.14758 0.68269 0.18179 0.0
H1745 H 0.14511 0.71423 0.2145 0.0
H1746 H 0.05435 0.73356 0.20029 0.0
H1747 H 0.05682 0.70258 0.16721 0.0
H1748 H 0.12491 0.77697 0.22015 0.0
H1749 H 0.02134 0.72322 0.25459 0.0
H1750 H 0.99234 0.67803 0.24894 0.0
H1751 H 0.07072 0.63094 0.2316 0.0
H1752 H 0.1003 0.67543 0.23804 0.0
H1753 H 0.0474 0.81338 0.33249 0.0
H1754 H 0.04767 0.78503 0.29804 0.0
H1755 H 0.1423 0.79107 0.29587 0.0
H1756 H 0.14177 0.82111 0.32929 0.0
H1757 H 0.06689 0.73665 0.28258 0.0
H1758 H 0.16843 0.79697 0.24551 0.0
H1759 H 0.19248 0.84542 0.24838 0.0
H1760 H 0.11059 0.88464 0.26761 0.0
H1761 H 0.08598 0.83655 0.26453 0.0
C1762 C 0.12724 0.69407 0.18542 0.0
C1763 C 0.10235 0.69011 0.17199 0.0
C1764 C 0.12592 0.71215 0.20403 0.0
C1765 C 0.09952 0.72601 0.20982 0.0
C1766 C 0.07491 0.72299 0.19605 0.0
C1767 C 0.07638 0.70536 0.17714 0.0
C1768 C 0.09725 0.74164 0.23118 0.0
C1769 C 0.11248 0.76812 0.2339 0.0
C1770 C 0.08015 0.73043 0.24876 0.0
C1771 C 0.06296 0.70286 0.24642 0.0
C1772 C 0.03242 0.70315 0.24978 0.0
C1773 C 0.01587 0.67764 0.24645 0.0
C1774 C 0.02964 0.65171 0.23971 0.0
C1775 C 0.06003 0.6511 0.23661 0.0
C1776 C 0.07672 0.67643 0.24021 0.0
C1777 C 0.06821 0.80834 0.3247 0.0
C1778 C 0.09454 0.81958 0.33335 0.0
C1779 C 0.06838 0.79216 0.30503 0.0
C1780 C 0.09494 0.78654 0.29393 0.0
C1781 C 0.12141 0.79596 0.3036 0.0
C1782 C 0.12116 0.81288 0.32282 0.0
C1783 C 0.09501 0.77205 0.27186 0.0
C1784 C 0.07931 0.74573 0.26891 0.0
C1785 C 0.11102 0.78386 0.25381 0.0
C1786 C 0.12544 0.81308 0.25496 0.0
C1787 C 0.15552 0.81597 0.25019 0.0
C1788 C 0.16926 0.84336 0.2519 0.0
C1789 C 0.15309 0.86807 0.25824 0.0
C1790 C 0.12311 0.86547 0.26276 0.0
C1791 C 0.10926 0.83816 0.26103 0.0
H1792 H 0.16379 0.88922 0.25963 0.0
H1793 H 0.01676 0.63204 0.23708 0.0
H1794 H 0.84594 0.12193 0.19757 0.0
H1795 H 0.81738 0.11497 0.23106 0.0
H1796 H 0.75944 0.0556 0.19665 0.0
H1797 H 0.78798 0.06245 0.1627 0.0
H1798 H 0.72952 0.09385 0.22407 0.0
H1799 H 0.80903 0.02731 0.22888 0.0
H1800 H 0.86057 0.01091 0.22692 0.0
H1801 H 0.88323 0.06911 0.28005 0.0
H1802 H 0.83195 0.08642 0.28202 0.0
H1803 H 0.70444 0.03828 0.34333 0.0
H1804 H 0.73485 0.03531 0.3099 0.0
H1805 H 0.71796 0.12694 0.29677 0.0
H1806 H 0.68646 0.12952 0.32922 0.0
H1807 H 0.78247 0.06174 0.29161 0.0
H1808 H 0.70074 0.13594 0.24303 0.0
H1809 H 0.64913 0.15155 0.24696 0.0
H1810 H 0.62908 0.07178 0.28159 0.0
H1811 H 0.68017 0.05503 0.27695 0.0
C1812 C 0.82703 0.10751 0.19693 0.0
C1813 C 0.81946 0.09253 0.1774 0.0
C1814 C 0.81079 0.10348 0.21619 0.0
C1815 C 0.78665 0.08436 0.21643 0.0
C1816 C 0.77817 0.07029 0.19681 0.0
C1817 C 0.79451 0.07424 0.17744 0.0
C1818 C 0.77079 0.07902 0.2374 0.0
C1819 C 0.74099 0.08661 0.23879 0.0
C1820 C 0.78568 0.06882 0.25647 0.0
C1821 C 0.8166 0.05833 0.2555 0.0
C1822 C 0.82503 0.03682 0.24004 0.0
C1823 C 0.85421 0.02734 0.23892 0.0
C1824 C 0.87515 0.03898 0.25334 0.0
C1825 C 0.86696 0.06013 0.26889 0.0
C1826 C 0.83783 0.06978 0.27002 0.0
C1827 C 0.7077 0.05786 0.33348 0.0
C1828 C 0.69282 0.08403 0.33862 0.0
C1829 C 0.72509 0.05616 0.31444 0.0
C1830 C 0.72802 0.08072 0.30058 0.0
C1831 C 0.71538 0.10753 0.30694 0.0
C1832 C 0.69748 0.10902 0.32552 0.0
C1833 C 0.74166 0.07795 0.27846 0.0
C1834 C 0.77093 0.06864 0.27683 0.0
C1835 C 0.72608 0.08592 0.25907 0.0
C1836 C 0.69449 0.09437 0.25983 0.0
C1837 C 0.68524 0.12148 0.25113 0.0
C1838 C 0.65605 0.13055 0.25352 0.0
C1839 C 0.6359 0.11276 0.26465 0.0
C1840 C 0.64475 0.08562 0.27308 0.0
C1841 C 0.67377 0.07622 0.2704 0.0
H1842 H 0.61338 0.11992 0.26663 0.0
H1843 H 0.89768 0.03156 0.2525 0.0
H1844 H 0.45261 0.70348 0.33467 0.0
H1845 H 0.45491 0.73203 0.30056 0.0
H1846 H 0.36726 0.70357 0.2837 0.0
H1847 H 0.36536 0.67408 0.31725 0.0
H1848 H 0.39818 0.6992 0.24923 0.0
H1849 H 0.38521 0.77464 0.30288 0.0
H1850 H 0.39467 0.805 0.33583 0.0
H1851 H 0.47849 0.83039 0.30954 0.0
H1852 H 0.46983 0.79966 0.27662 0.0
H1853 H 0.37148 0.83345 0.18136 0.0
H1854 H 0.37269 0.80264 0.21428 0.0
H1855 H 0.45599 0.76673 0.1939 0.0
H1856 H 0.45482 0.79727 0.1605 0.0
H1857 H 0.42924 0.80356 0.24584 0.0
H1858 H 0.43923 0.71372 0.19475 0.0
H1859 H 0.42119 0.69009 0.16061 0.0
H1860 H 0.33217 0.70053 0.18275 0.0
H1861 H 0.34979 0.72451 0.21689 0.0
C1862 C 0.43373 0.70355 0.32381 0.0
C1863 C 0.40884 0.68645 0.32866 0.0
C1864 C 0.43503 0.71996 0.3043 0.0
C1865 C 0.4112 0.72014 0.28952 0.0
C1866 C 0.38605 0.70366 0.29469 0.0
C1867 C 0.38493 0.68689 0.31396 0.0
C1868 C 0.41267 0.73667 0.26835 0.0
C1869 C 0.4051 0.72199 0.24867 0.0
C1870 C 0.42143 0.76657 0.26733 0.0
C1871 C 0.42705 0.78443 0.28742 0.0
C1872 C 0.40585 0.78634 0.30425 0.0
C1873 C 0.41104 0.80369 0.32291 0.0
C1874 C 0.43722 0.81951 0.32482 0.0
C1875 C 0.45827 0.81802 0.30808 0.0
C1876 C 0.45325 0.80061 0.28943 0.0
C1877 C 0.38997 0.81881 0.1837 0.0
C1878 C 0.41318 0.81794 0.16837 0.0
C1879 C 0.39059 0.80126 0.20253 0.0
C1880 C 0.41442 0.78258 0.20644 0.0
C1881 C 0.43731 0.78096 0.19099 0.0
C1882 C 0.43658 0.79834 0.17193 0.0
C1883 C 0.41557 0.76576 0.22723 0.0
C1884 C 0.42314 0.78054 0.2467 0.0
C1885 C 0.40621 0.73632 0.22822 0.0
C1886 C 0.39578 0.72086 0.20824 0.0
C1887 C 0.41583 0.71095 0.19228 0.0
C1888 C 0.40569 0.69754 0.17295 0.0
C1889 C 0.37555 0.69382 0.16951 0.0
C1890 C 0.35551 0.70337 0.18545 0.0
C1891 C 0.36555 0.71685 0.20479 0.0
H1892 H 0.36773 0.68354 0.1545 0.0
H1893 H 0.44115 0.83299 0.33925 0.0
H1894 H 0.64155 0.40921 0.19504 0.0
H1895 H 0.67487 0.41174 0.22666 0.0
H1896 H 0.74926 0.41255 0.18261 0.0
H1897 H 0.71591 0.41105 0.15069 0.0
H1898 H 0.74935 0.37001 0.22206 0.0
H1899 H 0.73721 0.4712 0.20099 0.0
H1900 H 0.70823 0.51503 0.19124 0.0
H1901 H 0.6678 0.51411 0.25524 0.0
H1902 H 0.69571 0.46956 0.26511 0.0
H1903 H 0.85836 0.40265 0.30033 0.0
H1904 H 0.82764 0.40348 0.26743 0.0
H1905 H 0.75359 0.43146 0.30663 0.0
H1906 H 0.78462 0.43171 0.33968 0.0
H1907 H 0.75358 0.45964 0.26872 0.0
H1908 H 0.76272 0.35899 0.29011 0.0
H1909 H 0.78925 0.31396 0.30078 0.0
H1910 H 0.83256 0.31243 0.23782 0.0
H1911 H 0.80665 0.35777 0.2269 0.0
C1912 C 0.66501 0.40983 0.19206 0.0
C1913 C 0.67619 0.40987 0.17041 0.0
C1914 C 0.68396 0.41133 0.21013 0.0
C1915 C 0.71441 0.41234 0.20689 0.0
C1916 C 0.72576 0.41177 0.18535 0.0
C1917 C 0.70674 0.41102 0.1672 0.0
C1918 C 0.73423 0.41444 0.22614 0.0
C1919 C 0.75072 0.38971 0.2321 0.0
C1920 C 0.73507 0.43989 0.23952 0.0
C1921 C 0.71829 0.46676 0.23368 0.0
C1922 C 0.72181 0.48005 0.21288 0.0
C1923 C 0.70556 0.50504 0.20733 0.0
C1924 C 0.68602 0.51722 0.22257 0.0
C1925 C 0.68274 0.50448 0.2434 0.0
C1926 C 0.69875 0.47934 0.24897 0.0
C1927 C 0.83554 0.40902 0.30201 0.0
C1928 C 0.82384 0.41676 0.32271 0.0
C1929 C 0.81797 0.40941 0.28315 0.0
C1930 C 0.78812 0.41688 0.2846 0.0
C1931 C 0.77653 0.42546 0.30512 0.0
C1932 C 0.79426 0.42551 0.32401 0.0
C1933 C 0.76899 0.41517 0.26474 0.0
C1934 C 0.75243 0.43992 0.25869 0.0
C1935 C 0.76775 0.38955 0.25143 0.0
C1936 C 0.78295 0.36195 0.25777 0.0
C1937 C 0.77803 0.34916 0.27859 0.0
C1938 C 0.79296 0.32357 0.28468 0.0
C1939 C 0.81264 0.31039 0.27001 0.0
C1940 C 0.81734 0.3227 0.24918 0.0
C1941 C 0.80253 0.34833 0.24302 0.0
H1942 H 0.82421 0.29061 0.27478 0.0
H1943 H 0.67352 0.53663 0.21828 0.0
H1944 H 0.8635 0.17213 0.68139 0.0
H1945 H 0.86417 0.20112 0.71536 0.0
H1946 H 0.95636 0.21926 0.70555 0.0
H1947 H 0.95525 0.19171 0.67095 0.0
H1948 H 0.8889 0.19479 0.75205 0.0
H1949 H 0.97765 0.28203 0.72988 0.0
H1950 H 0.99557 0.30902 0.69723 0.0
H1951 H 0.91194 0.29768 0.66554 0.0
H1952 H 0.89339 0.27102 0.69811 0.0
H1953 H 0.95647 0.29975 0.83732 0.0
H1954 H 0.95693 0.26789 0.80461 0.0
H1955 H 0.86599 0.28853 0.79234 0.0
H1956 H 0.86558 0.32113 0.82453 0.0
H1957 H 0.93391 0.29372 0.75794 0.0
H1958 H 0.84232 0.2127 0.77791 0.0
H1959 H 0.81989 0.18742 0.80976 0.0
H1960 H 0.90216 0.1906 0.84436 0.0
H1961 H 0.92513 0.21562 0.81264 0.0
C1962 C 0.88381 0.18263 0.68637 0.0
C1963 C 0.90926 0.1799 0.67341 0.0
C1964 C 0.88422 0.19909 0.70586 0.0
C1965 C 0.91022 0.21278 0.71303 0.0
C1966 C 0.93577 0.20971 0.70017 0.0
C1967 C 0.93518 0.19385 0.68039 0.0
C1968 C 0.91068 0.22956 0.73419 0.0
C1969 C 0.89849 0.21655 0.75316 0.0
C1970 C 0.92344 0.25791 0.73594 0.0
C1971 C 0.93427 0.27423 0.71635 0.0
C1972 C 0.96306 0.28539 0.71598 0.0
C1973 C 0.97333 0.30063 0.69748 0.0
C1974 C 0.95494 0.30497 0.67929 0.0
C1975 C 0.9262 0.2942 0.6796 0.0
C1976 C 0.91581 0.279 0.69807 0.0
C1977 C 0.93647 0.29717 0.82785 0.0
C1978 C 0.91101 0.31299 0.83344 0.0
C1979 C 0.93682 0.2791 0.80914 0.0
C1980 C 0.91149 0.27593 0.79616 0.0
C1981 C 0.88571 0.2907 0.80222 0.0
C1982 C 0.88555 0.3093 0.82058 0.0
C1983 C 0.91232 0.25877 0.77543 0.0
C1984 C 0.92455 0.27186 0.75662 0.0
C1985 C 0.89896 0.2309 0.77369 0.0
C1986 C 0.88533 0.21628 0.79299 0.0
C1987 C 0.8556 0.20799 0.79232 0.0
C1988 C 0.84281 0.19368 0.81033 0.0
C1989 C 0.8596 0.18736 0.82904 0.0
C1990 C 0.88918 0.19551 0.82985 0.0
C1991 C 0.90206 0.20988 0.8119 0.0
H1992 H 0.84968 0.17618 0.84293 0.0
H1993 H 0.96294 0.31673 0.66498 0.0
H1994 H 0.28175 0.91225 0.65909 0.0
H1995 H 0.25038 0.91267 0.69193 0.0
H1996 H 0.32731 0.91911 0.73341 0.0
H1997 H 0.3586 0.91689 0.70075 0.0
H1998 H 0.29361 0.88295 0.75139 0.0
H1999 H 0.27768 0.97895 0.72221 0.0
H2000 H 0.26545 0.01612 0.69407 0.0
H2001 H 0.17886 0.97971 0.6876 0.0
H2002 H 0.19071 0.94203 0.71547 0.0
H2003 H 0.2107 0.92153 0.84833 0.0
H2004 H 0.24391 0.925 0.81655 0.0
H2005 H 0.17414 0.89652 0.77339 0.0
H2006 H 0.14093 0.89284 0.80485 0.0
H2007 H 0.20522 0.9461 0.75772 0.0
H2008 H 0.22471 0.84901 0.78782 0.0
H2009 H 0.23853 0.81517 0.81788 0.0
H2010 H 0.3214 0.85922 0.8249 0.0
H2011 H 0.3079 0.89361 0.79508 0.0
C2012 C 0.29186 0.91391 0.67523 0.0
C2013 C 0.32255 0.91446 0.67739 0.0
C2014 C 0.27395 0.91432 0.69403 0.0
C2015 C 0.28637 0.91634 0.71528 0.0
C2016 C 0.31709 0.9174 0.71731 0.0
C2017 C 0.33497 0.91622 0.6986 0.0
C2018 C 0.26756 0.91645 0.73544 0.0
C2019 C 0.27458 0.89716 0.75282 0.0
C2020 C 0.24248 0.93473 0.73746 0.0
C2021 C 0.23519 0.95749 0.72079 0.0
C2022 C 0.2561 0.97875 0.71468 0.0
C2023 C 0.24922 0.99992 0.69879 0.0
C2024 C 0.22142 1.00023 0.68901 0.0
C2025 C 0.2004 0.97942 0.69516 0.0
C2026 C 0.20718 0.95816 0.71102 0.0
C2027 C 0.20245 0.91598 0.83208 0.0
C2028 C 0.17318 0.90681 0.82917 0.0
C2029 C 0.22145 0.91794 0.81396 0.0
C2030 C 0.21144 0.91099 0.79265 0.0
C2031 C 0.18225 0.90206 0.7897 0.0
C2032 C 0.16337 0.89978 0.80776 0.0
C2033 C 0.23134 0.91262 0.77332 0.0
C2034 C 0.22445 0.93216 0.75617 0.0
C2035 C 0.25686 0.89509 0.77173 0.0
C2036 C 0.2652 0.87402 0.78934 0.0
C2037 C 0.24581 0.85158 0.79585 0.0
C2038 C 0.2536 0.83227 0.81282 0.0
C2039 C 0.28083 0.83504 0.82328 0.0
C2040 C 0.30033 0.85709 0.81677 0.0
C2041 C 0.29264 0.87647 0.79982 0.0
H2042 H 0.2868 0.8201 0.83644 0.0
H2043 H 0.21614 0.01664 0.67671 0.0
H2044 H 0.54053 0.19934 0.8346 0.0
H2045 H 0.5347 0.22657 0.7999 0.0
H2046 H 0.62836 0.22334 0.78955 0.0
H2047 H 0.63423 0.1954 0.82383 0.0
H2048 H 0.59675 0.28076 0.77962 0.0
H2049 H 0.59619 0.17473 0.76607 0.0
H2050 H 0.57712 0.1248 0.77267 0.0
H2051 H 0.49108 0.15239 0.75234 0.0
H2052 H 0.50956 0.20272 0.74605 0.0
H2053 H 0.62868 0.3069 0.67127 0.0
H2054 H 0.62527 0.27859 0.70537 0.0
H2055 H 0.53135 0.27198 0.6972 0.0
H2056 H 0.53484 0.29958 0.66245 0.0
H2057 H 0.55564 0.22217 0.71761 0.0
H2058 H 0.55631 0.32625 0.72651 0.0
H2059 H 0.57538 0.37557 0.71783 0.0
H2060 H 0.65827 0.35325 0.74714 0.0
H2061 H 0.63997 0.30345 0.7555 0.0
C2062 C 0.5599 0.20509 0.82519 0.0
C2063 C 0.58783 0.19535 0.83183 0.0
C2064 C 0.55653 0.22048 0.80537 0.0
C2065 C 0.58111 0.2268 0.79225 0.0
C2066 C 0.60918 0.21869 0.79955 0.0
C2067 C 0.61249 0.20272 0.81905 0.0
C2068 C 0.57757 0.23946 0.76998 0.0
C2069 C 0.58779 0.26802 0.76605 0.0
C2070 C 0.56515 0.22296 0.75249 0.0
C2071 C 0.55417 0.19259 0.75588 0.0
C2072 C 0.57314 0.17024 0.76323 0.0
C2073 C 0.56245 0.14185 0.76689 0.0
C2074 C 0.53288 0.13545 0.76301 0.0
C2075 C 0.51397 0.15741 0.75539 0.0
C2076 C 0.52454 0.18587 0.75178 0.0
C2077 C 0.60742 0.2987 0.67643 0.0
C2078 C 0.58198 0.30561 0.66443 0.0
C2079 C 0.60547 0.28258 0.6959 0.0
C2080 C 0.57797 0.27386 0.70406 0.0
C2081 C 0.55275 0.27865 0.69121 0.0
C2082 C 0.55477 0.29437 0.67139 0.0
C2083 C 0.57558 0.26322 0.72709 0.0
C2084 C 0.56413 0.23514 0.73121 0.0
C2085 C 0.58647 0.28033 0.74487 0.0
C2086 C 0.59683 0.31099 0.74148 0.0
C2087 C 0.57864 0.33181 0.73106 0.0
C2088 C 0.58936 0.35979 0.72606 0.0
C2089 C 0.61809 0.36746 0.73176 0.0
C2090 C 0.63605 0.34723 0.74267 0.0
C2091 C 0.62551 0.31911 0.74755 0.0
H2092 H 0.62635 0.38914 0.72787 0.0
H2093 H 0.52465 0.11346 0.76583 0.0
H2094 H 0.30765 0.53184 0.82906 0.0
H2095 H 0.28018 0.52944 0.79409 0.0
H2096 H 0.273 0.62401 0.79389 0.0
H2097 H 0.30132 0.62637 0.82813 0.0
H2098 H 0.22814 0.54612 0.77701 0.0
H2099 H 0.2872 0.65097 0.74401 0.0
H2100 H 0.33377 0.67734 0.75047 0.0
H2101 H 0.37443 0.5973 0.77213 0.0
H2102 H 0.32839 0.57027 0.76524 0.0
H2103 H 0.17827 0.63127 0.67784 0.0
H2104 H 0.20912 0.62729 0.71076 0.0
H2105 H 0.22932 0.53742 0.69409 0.0
H2106 H 0.19911 0.54151 0.66069 0.0
H2107 H 0.27114 0.60779 0.71759 0.0
H2108 H 0.21749 0.50128 0.74713 0.0
H2109 H 0.17304 0.47192 0.7395 0.0
H2110 H 0.12559 0.55046 0.72311 0.0
H2111 H 0.16928 0.58031 0.73149 0.0
C2112 C 0.2995 0.55195 0.82172 0.0
C2113 C 0.30655 0.57929 0.83102 0.0
C2114 C 0.28392 0.5506 0.80178 0.0
C2115 C 0.27519 0.5766 0.79111 0.0
C2116 C 0.28016 0.60373 0.80153 0.0
C2117 C 0.29614 0.60508 0.82112 0.0
C2118 C 0.26311 0.57589 0.76833 0.0
C2119 C 0.2378 0.55925 0.76395 0.0
C2120 C 0.27588 0.59284 0.75119 0.0
C2121 C 0.30419 0.60864 0.75426 0.0
C2122 C 0.30615 0.63892 0.74992 0.0
C2123 C 0.33247 0.65399 0.75367 0.0
C2124 C 0.35703 0.639 0.76171 0.0
C2125 C 0.3554 0.60887 0.76588 0.0
C2126 C 0.3292 0.59366 0.76202 0.0
C2127 C 0.18976 0.61084 0.68095 0.0
C2128 C 0.18621 0.58666 0.66675 0.0
C2129 C 0.20745 0.60866 0.69969 0.0
C2130 C 0.22127 0.58203 0.70487 0.0
C2131 C 0.21877 0.55815 0.69031 0.0
C2132 C 0.20156 0.56054 0.67125 0.0
C2133 C 0.23591 0.57864 0.72652 0.0
C2134 C 0.26174 0.59446 0.73064 0.0
C2135 C 0.22399 0.56046 0.74323 0.0
C2136 C 0.19689 0.54297 0.73954 0.0
C2137 C 0.19749 0.51229 0.74207 0.0
C2138 C 0.17241 0.49556 0.73763 0.0
C2139 C 0.14659 0.50928 0.73061 0.0
C2140 C 0.14568 0.5398 0.72831 0.0
C2141 C 0.17057 0.55665 0.73302 0.0
H2142 H 0.12725 0.49627 0.72714 0.0
H2143 H 0.37733 0.65073 0.76469 0.0
H2144 H 0.10486 0.55649 0.05471 0.0
H2145 H 0.08069 0.52136 0.03013 0.0
H2146 H 0.00145 0.57326 0.03207 0.0
H2147 H 0.02556 0.6087 0.05636 0.0
H2148 H 0.03393 0.48721 0.03738 0.0
H2149 H 0.96401 0.56588 0.98371 0.0
H2150 H 0.96648 0.61622 0.96875 0.0
H2151 H 0.06071 0.61326 0.97093 0.0
H2152 H 0.05882 0.56278 0.98561 0.0
H2153 H 0.91231 0.44593 0.95093 0.0
H2154 H 0.93695 0.4809 0.97535 0.0
H2155 H 0.01594 0.42869 0.97277 0.0
H2156 H 0.99137 0.3934 0.94857 0.0
H2157 H 0.98388 0.51481 0.96765 0.0
H2158 H 0.05379 0.43605 0.02117 0.0
H2159 H 0.05128 0.38571 0.03615 0.0
H2160 H 0.95704 0.38889 0.03426 0.0
H2161 H 0.95898 0.43936 0.01957 0.0
C2162 C 0.08242 0.56069 0.04966 0.0
C2163 C 0.06724 0.58557 0.05742 0.0
C2164 C 0.06856 0.54045 0.0357 0.0
C2165 C 0.03929 0.5447 0.02909 0.0
C2166 C 0.02418 0.56968 0.03663 0.0
C2167 C 0.03801 0.58994 0.05058 0.0
C2168 C 0.02428 0.52256 0.01489 0.0
C2169 C 0.02337 0.49318 0.02196 0.0
C2170 C 0.00981 0.5304 0.99504 0.0
C2171 C 0.01123 0.56066 0.98599 0.0
C2172 C 0.98525 0.57594 0.98093 0.0
C2173 C 0.98655 0.6045 0.9725 0.0
C2174 C 0.01373 0.61797 0.96896 0.0
C2175 C 0.03967 0.60285 0.97376 0.0
C2176 C 0.03849 0.57428 0.98217 0.0
C2177 C 0.93481 0.44162 0.95579 0.0
C2178 C 0.94979 0.41671 0.94788 0.0
C2179 C 0.94893 0.46178 0.96966 0.0
C2180 C 0.97826 0.4574 0.97604 0.0
C2181 C 0.99318 0.43237 0.96836 0.0
C2182 C 0.97909 0.4122 0.95448 0.0
C2183 C 0.99351 0.47948 0.99016 0.0
C2184 C 0.99446 0.50884 0.98306 0.0
C2185 C 0.00801 0.47162 0.00998 0.0
C2186 C 0.00657 0.44137 0.01904 0.0
C2187 C 0.03254 0.42603 0.02402 0.0
C2188 C 0.03121 0.39748 0.03246 0.0
C2189 C 0.00402 0.38408 0.03608 0.0
C2190 C 0.97809 0.39925 0.03136 0.0
C2191 C 0.9793 0.42782 0.02294 0.0
H2192 H 0.00305 0.36196 0.0426 0.0
H2193 H 0.01469 0.64008 0.96245 0.0
H2194 H 0.10136 0.9822 0.94762 0.0
H2195 H 0.06652 0.00759 0.97164 0.0
H2196 H 0.01488 0.92843 0.97681 0.0
H2197 H 0.04939 0.90296 0.95252 0.0
H2198 H 0.9806 0.97462 0.96811 0.0
H2199 H 0.05721 0.95314 0.02006 0.0
H2200 H 0.10794 0.9525 0.03431 0.0
H2201 H 0.11019 0.0468 0.03333 0.0
H2202 H 0.05957 0.048 0.01878 0.0
H2203 H 0.88842 0.01944 0.05688 0.0
H2204 H 0.92324 0.99484 0.03242 0.0
H2205 H 0.97424 0.07448 0.02794 0.0
H2206 H 0.93973 0.09918 0.0527 0.0
H2207 H 0.00893 0.02852 0.03606 0.0
H2208 H 0.93225 0.05008 0.9844 0.0
H2209 H 0.88155 0.05081 0.97009 0.0
H2210 H 0.87945 0.9565 0.97045 0.0
H2211 H 0.93003 0.95521 0.98505 0.0
C2212 C 0.08282 0.97004 0.95409 0.0
C2213 C 0.07828 0.94047 0.9482 0.0
C2214 C 0.0629 0.98461 0.96787 0.0
C2215 C 0.03814 0.96989 0.97618 0.0
C2216 C 0.03381 0.94025 0.97061 0.0
C2217 C 0.05369 0.92567 0.95682 0.0
C2218 C 0.0162 0.98569 0.99003 0.0
C2219 C 0.98673 0.98605 0.98315 0.0
C2220 C 0.02428 0.00131 0.00932 0.0
C2221 C 0.0547 1.00065 0.01812 0.0
C2222 C 0.0686 0.97374 0.02271 0.0
C2223 C 0.09732 0.97327 0.03088 0.0
C2224 C 0.11231 0.99959 0.03467 0.0
C2225 C 0.09857 0.02643 0.03036 0.0
C2226 C 0.06985 0.02702 0.02217 0.0
C2227 C 0.9068 0.03189 0.05046 0.0
C2228 C 0.91117 0.06136 0.0567 0.0
C2229 C 0.92671 0.01777 0.03642 0.0
C2230 C 0.9513 0.03284 0.02818 0.0
C2231 C 0.95544 0.0624 0.03408 0.0
C2232 C 0.93555 0.07655 0.04813 0.0
C2233 C 0.97331 0.01741 0.01417 0.0
C2234 C 0.0028 0.01712 0.02102 0.0
C2235 C 0.96525 0.00186 0.99484 0.0
C2236 C 0.93484 0.00256 0.98602 0.0
C2237 C 0.9209 0.0295 0.9816 0.0
C2238 C 0.89219 0.03001 0.9734 0.0
C2239 C 0.87726 0.00372 0.96942 0.0
C2240 C 0.89103 0.97685 0.97357 0.0
C2241 C 0.91973 0.97621 0.98179 0.0
H2242 H 0.85504 0.00416 0.96307 0.0
H2243 H 0.13454 0.99918 0.04099 0.0
H2244 H 0.4111 0.94729 0.05012 0.0
H2245 H 0.4359 0.9833 0.02674 0.0
H2246 H 0.5142 0.92994 0.02698 0.0
H2247 H 0.48949 0.89364 0.05018 0.0
H2248 H 0.4836 0.0157 0.03614 0.0
H2249 H 0.55158 0.94046 0.9785 0.0
H2250 H 0.54814 0.89148 0.96121 0.0
H2251 H 0.45399 0.89586 0.96392 0.0
H2252 H 0.45686 0.945 0.98093 0.0
H2253 H 0.60224 0.06331 0.94874 0.0
H2254 H 0.57923 0.02669 0.97271 0.0
H2255 H 0.4999 0.07847 0.97452 0.0
H2256 H 0.52282 0.11533 0.95093 0.0
H2257 H 0.53215 0.99317 0.9648 0.0
H2258 H 0.46412 0.06799 0.02297 0.0
H2259 H 0.46743 0.11703 0.04016 0.0
H2260 H 0.56155 0.1136 0.03636 0.0
H2261 H 0.55883 0.06439 0.01944 0.0
C2262 C 0.43344 0.94293 0.04492 0.0
C2263 C 0.44825 0.91747 0.05195 0.0
C2264 C 0.44765 0.96367 0.03166 0.0
C2265 C 0.47688 0.95931 0.02501 0.0
C2266 C 0.49153 0.93363 0.03164 0.0
C2267 C 0.47735 0.91289 0.04494 0.0
C2268 C 0.49235 0.98219 0.01189 0.0
C2269 C 0.49387 0.01086 0.02039 0.0
C2270 C 0.50648 0.97572 0.99165 0.0
C2271 C 0.50448 0.94628 0.98123 0.0
C2272 C 0.53015 0.931 0.97534 0.0
C2273 C 0.5283 0.90321 0.9656 0.0
C2274 C 0.50087 0.89052 0.96155 0.0
C2275 C 0.47523 0.90565 0.96716 0.0
C2276 C 0.47696 0.93346 0.97688 0.0
C2277 C 0.58007 0.06718 0.95456 0.0
C2278 C 0.56445 0.09238 0.948 0.0
C2279 C 0.56688 0.04611 0.96814 0.0
C2280 C 0.53789 0.04986 0.97556 0.0
C2281 C 0.52244 0.07525 0.96933 0.0
C2282 C 0.53559 0.09633 0.95578 0.0
C2283 C 0.52331 0.02673 0.989 0.0
C2284 C 0.52195 0.998 0.98058 0.0
C2285 C 0.50932 0.03314 0.00932 0.0
C2286 C 0.51123 0.06261 0.01973 0.0
C2287 C 0.48553 0.07765 0.02588 0.0
C2288 C 0.4873 0.10549 0.03556 0.0
C2289 C 0.51468 0.11846 0.03928 0.0
C2290 C 0.54035 0.10358 0.03339 0.0
C2291 C 0.5387 0.07573 0.02372 0.0
H2292 H 0.516 0.14002 0.04677 0.0
H2293 H 0.49948 0.869 0.95401 0.0
H2294 H 0.43875 0.59932 0.94741 0.0
H2295 H 0.47578 0.57648 0.97108 0.0
H2296 H 0.42222 0.49862 0.97621 0.0
H2297 H 0.3849 0.5214 0.95283 0.0
H2298 H 0.44731 0.51144 0.01527 0.0
H2299 H 0.47883 0.50217 0.9399 0.0
H2300 H 0.49168 0.52008 0.90272 0.0
H2301 H 0.56089 0.57277 0.93019 0.0
H2302 H 0.54812 0.55554 0.96761 0.0
H2303 H 0.55341 0.40788 0.04828 0.0
H2304 H 0.51794 0.43404 0.02532 0.0
H2305 H 0.5729 0.51119 0.02659 0.0
H2306 H 0.60864 0.48516 0.04964 0.0
H2307 H 0.54806 0.50055 0.98501 0.0
H2308 H 0.51711 0.5081 0.06048 0.0
H2309 H 0.50458 0.48884 0.09733 0.0
H2310 H 0.43426 0.43823 0.06926 0.0
H2311 H 0.44671 0.45678 0.03214 0.0
C2312 C 0.4346 0.57752 0.95385 0.0
C2313 C 0.40887 0.56216 0.94814 0.0
C2314 C 0.45591 0.56441 0.96727 0.0
C2315 C 0.45201 0.53564 0.97514 0.0
C2316 C 0.42576 0.52079 0.97029 0.0
C2317 C 0.40443 0.53387 0.95689 0.0
C2318 C 0.4757 0.5205 0.98765 0.0
C2319 C 0.46924 0.50883 0.00854 0.0
C2320 C 0.50452 0.51752 0.97908 0.0
C2321 C 0.51234 0.52778 0.95658 0.0
C2322 C 0.49665 0.51774 0.93803 0.0
C2323 C 0.50395 0.52773 0.91691 0.0
C2324 C 0.52709 0.54754 0.9141 0.0
C2325 C 0.54297 0.55741 0.9324 0.0
C2326 C 0.53572 0.54754 0.95357 0.0
C2327 C 0.55824 0.43027 0.04344 0.0
C2328 C 0.58384 0.44446 0.0509 0.0
C2329 C 0.53784 0.44524 0.03038 0.0
C2330 C 0.54259 0.47468 0.0245 0.0
C2331 C 0.56878 0.48849 0.031 0.0
C2332 C 0.58916 0.47358 0.04418 0.0
C2333 C 0.51956 0.49138 0.0125 0.0
C2334 C 0.52615 0.50332 0.99174 0.0
C2335 C 0.49083 0.49452 0.02115 0.0
C2336 C 0.48299 0.48366 0.0435 0.0
C2337 C 0.49909 0.49271 0.06213 0.0
C2338 C 0.49199 0.48195 0.08307 0.0
C2339 C 0.46862 0.46235 0.08563 0.0
C2340 C 0.45233 0.45345 0.06725 0.0
C2341 C 0.45939 0.46409 0.04626 0.0
H2342 H 0.46317 0.45401 0.10185 0.0
H2343 H 0.5327 0.55526 0.89773 0.0
H2344 H 0.01479 0.89812 0.44707 0.0
H2345 H 0.99059 0.93546 0.46966 0.0
H2346 H 0.07396 0.97776 0.4811 0.0
H2347 H 0.09845 0.94053 0.45845 0.0
H2348 H 0.03768 0.97542 0.51909 0.0
H2349 H 0.032 0.00407 0.44275 0.0
H2350 H 0.02064 0.99548 0.40347 0.0
H2351 H 0.92966 0.98279 0.41951 0.0
H2352 H 0.94057 0.99073 0.45899 0.0
H2353 H 0.98702 0.11361 0.55462 0.0
H2354 H 0.01084 0.07685 0.5313 0.0
H2355 H 0.92707 0.0358 0.51901 0.0
H2356 H 0.90295 0.07247 0.54236 0.0
H2357 H 0.96325 0.03737 0.48133 0.0
H2358 H 0.96807 0.00818 0.55712 0.0
H2359 H 0.97865 0.01504 0.5967 0.0
H2360 H 0.07013 0.02724 0.58206 0.0
H2361 H 0.05999 0.02106 0.5423 0.0
C2362 C 0.02811 0.91506 0.45466 0.0
C2363 C 0.05859 0.91635 0.45087 0.0
C2364 C 0.0142 0.93647 0.4675 0.0
C2365 C 0.03044 0.95956 0.47684 0.0
C2366 C 0.06103 0.96013 0.47402 0.0
C2367 C 0.07497 0.93883 0.46105 0.0
C2368 C 0.01527 0.98399 0.48846 0.0
C2369 C 0.0217 0.98921 0.51078 0.0
C2370 C 0.99395 0.00156 0.47769 0.0
C2371 C 0.98715 0.99773 0.45387 0.0
C2372 C 0.00959 0.99928 0.43793 0.0
C2373 C 0.00324 0.99453 0.41563 0.0
C2374 C 0.97446 0.98852 0.40901 0.0
C2375 C 0.95195 0.98741 0.42467 0.0
C2376 C 0.9582 0.99205 0.44702 0.0
C2377 C 0.97352 0.09713 0.54665 0.0
C2378 C 0.94305 0.09595 0.55047 0.0
C2379 C 0.98722 0.07605 0.53337 0.0
C2380 C 0.97077 0.05339 0.52363 0.0
C2381 C 0.94017 0.05309 0.52637 0.0
C2382 C 0.92644 0.07408 0.53976 0.0
C2383 C 0.98579 0.0289 0.51195 0.0
C2384 C 0.97929 0.02364 0.48963 0.0
C2385 C 0.00695 0.01116 0.52274 0.0
C2386 C 0.01323 0.01443 0.54669 0.0
C2387 C 0.99041 0.01255 0.56231 0.0
C2388 C 0.99633 0.0163 0.58478 0.0
C2389 C 0.02505 0.02159 0.59189 0.0
C2390 C 0.0479 0.02314 0.57653 0.0
C2391 C 0.04208 0.01952 0.55401 0.0
H2392 H 0.0296 0.02442 0.6093 0.0
H2393 H 0.96959 0.98476 0.39174 0.0
H2394 H 0.60979 0.01767 0.45681 0.0
H2395 H 0.57248 0.99413 0.47972 0.0
H2396 H 0.51803 0.07139 0.47488 0.0
H2397 H 0.5554 0.0953 0.45206 0.0
H2398 H 0.51693 0.0475 0.51662 0.0
H2399 H 0.50554 0.01397 0.44192 0.0
H2400 H 0.52271 0.99257 0.40681 0.0
H2401 H 0.54481 0.9123 0.4401 0.0
H2402 H 0.52834 0.93344 0.47552 0.0
H2403 H 0.3854 0.98066 0.55259 0.0
H2404 H 0.42083 0.00567 0.52881 0.0
H2405 H 0.47594 0.92858 0.52915 0.0
H2406 H 0.44034 0.90318 0.55251 0.0
H2407 H 0.47587 0.95329 0.48913 0.0
H2408 H 0.48867 0.98661 0.56378 0.0
H2409 H 0.4727 0.00785 0.59927 0.0
H2410 H 0.44899 0.08809 0.56657 0.0
H2411 H 0.46426 0.06712 0.53079 0.0
C2412 C 0.59009 0.02987 0.46085 0.0
C2413 C 0.58557 0.05836 0.45249 0.0
C2414 C 0.56869 0.0163 0.47388 0.0
C2415 C 0.54224 0.03081 0.47871 0.0
C2416 C 0.53823 0.05975 0.4713 0.0
C2417 C 0.55965 0.07339 0.45826 0.0
C2418 C 0.51828 0.01526 0.49063 0.0
C2419 C 0.50766 0.02711 0.51047 0.0
C2420 C 0.50656 0.98836 0.4828 0.0
C2421 C 0.51592 0.97539 0.46142 0.0
C2422 C 0.51424 0.99182 0.44179 0.0
C2423 C 0.52384 0.97974 0.42183 0.0
C2424 C 0.53487 0.95111 0.42123 0.0
C2425 C 0.53628 0.93449 0.44059 0.0
C2426 C 0.52681 0.94651 0.46061 0.0
C2427 C 0.40482 0.96884 0.54733 0.0
C2428 C 0.41008 0.93995 0.55458 0.0
C2429 C 0.42517 0.98325 0.53383 0.0
C2430 C 0.45136 0.96922 0.52753 0.0
C2431 C 0.45597 0.93991 0.53385 0.0
C2432 C 0.43555 0.92541 0.54724 0.0
C2433 C 0.47455 0.98545 0.51521 0.0
C2434 C 0.48504 0.97373 0.49527 0.0
C2435 C 0.48623 0.01242 0.52301 0.0
C2436 C 0.47736 0.02519 0.54456 0.0
C2437 C 0.47986 0.00871 0.56412 0.0
C2438 C 0.47094 0.0207 0.5843 0.0
C2439 C 0.45982 0.04929 0.58516 0.0
C2440 C 0.45759 0.06594 0.56586 0.0
C2441 C 0.46637 0.05401 0.54563 0.0
H2442 H 0.45298 0.05857 0.6008 0.0
H2443 H 0.54227 0.94177 0.40576 0.0
H2444 H 0.51379 0.39277 0.54869 0.0
H2445 H 0.49137 0.43057 0.52554 0.0
H2446 H 0.57115 0.48153 0.52864 0.0
H2447 H 0.59389 0.4437 0.55161 0.0
H2448 H 0.47999 0.48697 0.53568 0.0
H2449 H 0.57787 0.52182 0.48104 0.0
H2450 H 0.62265 0.50027 0.46476 0.0
H2451 H 0.58237 0.41497 0.46498 0.0
H2452 H 0.53724 0.43606 0.48098 0.0
H2453 H 0.48558 0.6157 0.44881 0.0
H2454 H 0.50959 0.5799 0.47293 0.0
H2455 H 0.43031 0.52799 0.47404 0.0
H2456 H 0.40599 0.56392 0.45043 0.0
H2457 H 0.52227 0.52423 0.46562 0.0
H2458 H 0.42475 0.4898 0.52155 0.0
H2459 H 0.3804 0.51179 0.53814 0.0
H2460 H 0.42053 0.5971 0.53586 0.0
H2461 H 0.46525 0.57559 0.51954 0.0
C2462 C 0.52676 0.41181 0.5442 0.0
C2463 C 0.55572 0.4151 0.55194 0.0
C2464 C 0.51382 0.4335 0.53106 0.0
C2465 C 0.52957 0.45886 0.52525 0.0
C2466 C 0.55867 0.46198 0.53263 0.0
C2467 C 0.57165 0.4403 0.54579 0.0
C2468 C 0.51516 0.48245 0.51215 0.0
C2469 C 0.48903 0.49485 0.5202 0.0
C2470 C 0.52741 0.49339 0.49231 0.0
C2471 C 0.55431 0.48049 0.48244 0.0
C2472 C 0.57855 0.49848 0.47754 0.0
C2473 C 0.60399 0.48634 0.46837 0.0
C2474 C 0.60539 0.45625 0.46391 0.0
C2475 C 0.5813 0.43825 0.46853 0.0
C2476 C 0.5558 0.45028 0.47768 0.0
C2477 C 0.47309 0.59692 0.4545 0.0
C2478 C 0.44378 0.59282 0.44779 0.0
C2479 C 0.48692 0.57636 0.46818 0.0
C2480 C 0.47175 0.55131 0.47548 0.0
C2481 C 0.44236 0.54738 0.46902 0.0
C2482 C 0.42847 0.56799 0.45546 0.0
C2483 C 0.48695 0.52866 0.48907 0.0
C2484 C 0.51325 0.51644 0.48112 0.0
C2485 C 0.47492 0.51796 0.50907 0.0
C2486 C 0.44824 0.53109 0.51912 0.0
C2487 C 0.42415 0.51324 0.52467 0.0
C2488 C 0.39894 0.52562 0.53401 0.0
C2489 C 0.39761 0.55583 0.53798 0.0
C2490 C 0.42154 0.57372 0.5327 0.0
C2491 C 0.44681 0.56144 0.52337 0.0
H2492 H 0.37807 0.56538 0.5452 0.0
H2493 H 0.62511 0.44689 0.45683 0.0
H2494 H 0.8845 0.48464 0.44791 0.0
H2495 H 0.92024 0.50875 0.47197 0.0
H2496 H 0.97188 0.42934 0.47383 0.0
H2497 H 0.93595 0.40485 0.45013 0.0
H2498 H 0.97161 0.45539 0.51355 0.0
H2499 H 0.98855 0.48551 0.43869 0.0
H2500 H 0.97564 0.50634 0.40239 0.0
H2501 H 0.95421 0.58871 0.433 0.0
H2502 H 0.96645 0.56819 0.46956 0.0
H2503 H 0.10624 0.51692 0.54833 0.0
H2504 H 0.06923 0.49336 0.52508 0.0
H2505 H 0.01717 0.5725 0.5263 0.0
H2506 H 0.05424 0.59641 0.54938 0.0
H2507 H 0.01732 0.54699 0.48537 0.0
H2508 H 0.00129 0.51663 0.56033 0.0
H2509 H 0.01651 0.4961 0.59621 0.0
H2510 H 0.03757 0.41402 0.56503 0.0
H2511 H 0.02304 0.43426 0.52885 0.0
C2512 C 0.9032 0.47211 0.45372 0.0
C2513 C 0.9074 0.44282 0.44697 0.0
C2514 C 0.92374 0.48602 0.46737 0.0
C2515 C 0.94908 0.47106 0.47437 0.0
C2516 C 0.95258 0.44139 0.46858 0.0
C2517 C 0.93197 0.4274 0.45501 0.0
C2518 C 0.97254 0.48667 0.48688 0.0
C2519 C 0.9818 0.47524 0.50727 0.0
C2520 C 0.98558 0.51288 0.47889 0.0
C2521 C 0.97816 0.52522 0.4569 0.0
C2522 C 0.98084 0.50798 0.43771 0.0
C2523 C 0.97368 0.51975 0.41708 0.0
C2524 C 0.96412 0.54883 0.4154 0.0
C2525 C 0.96162 0.56618 0.43434 0.0
C2526 C 0.96866 0.5545 0.45502 0.0
C2527 C 0.08713 0.5295 0.54343 0.0
C2528 C 0.08319 0.55855 0.55081 0.0
C2529 C 0.0659 0.51592 0.53021 0.0
C2530 C 0.04018 0.531 0.52425 0.0
C2531 C 0.03679 0.56041 0.53076 0.0
C2532 C 0.05804 0.57405 0.54396 0.0
C2533 C 0.01633 0.51571 0.51198 0.0
C2534 C 0.00703 0.52719 0.49166 0.0
C2535 C 0.00332 0.48953 0.52 0.0
C2536 C 0.0113 0.47705 0.54184 0.0
C2537 C 0.00932 0.49425 0.56109 0.0
C2538 C 0.01783 0.48267 0.58149 0.0
C2539 C 0.02805 0.45379 0.58289 0.0
C2540 C 0.02968 0.4364 0.56391 0.0
C2541 C 0.0213 0.44791 0.54345 0.0
H2542 H 0.03465 0.44486 0.59869 0.0
H2543 H 0.95871 0.55796 0.39941 0.0
loop_
_geom_bond_atom_site_label_1
_geom_bond_atom_site_label_2
_geom_bond_distance
_geom_bond_site_symmetry_2
_ccdc_geom_bond_type
Co0 O2 2.143 . S
Co0 O8 2.074 . S
Co0 O11 2.093 . S
Co0 O24 2.097 . S
Co0 N41 2.151 . S
Co0 N49 2.214 . S
Co1 O2 2.160 . S
Co1 O7 2.058 . S
Co1 O17 2.057 . S
Co1 O32 2.037 . S
Co1 N36 2.145 . S
Co1 N57 2.257 1_455 S
O2 Co0 2.143 . S
O2 Co1 2.160 . S
C3 O4 1.278 . S
C3 O11 1.224 . S
O4 C3 1.278 . S
C5 O6 1.245 . S
C5 O17 1.232 . S
O6 C5 1.245 . S
O7 Co1 2.058 . S
O7 C33 1.269 . S
O8 Co0 2.074 . S
O8 C33 1.257 . S
H9 C34 0.930 . S
H10 C40 0.930 . S
O11 Co0 2.093 . S
O11 C3 1.224 . S
H12 C44 0.929 . S
H13 C46 0.930 . S
H14 C47 0.930 . S
H15 C45 0.929 . S
H16 C48 0.928 . S
O17 Co1 2.057 . S
O17 C5 1.232 . S
H18 C37 0.929 . S
H19 C38 0.929 . S
H20 C50 0.931 . S
H21 C42 0.929 . S
H22 C51 0.930 . S
H23 C43 0.931 . S
O24 Co0 2.097 . S
O24 C52 1.214 . S
H25 C53 0.929 . S
H26 C54 0.929 . S
H27 C55 0.930 . S
H28 C56 0.929 . S
H29 C58 0.930 . S
H30 C35 0.930 . S
H31 C39 0.930 . S
O32 Co1 2.037 . S
O32 C52 1.234 . S
C33 O7 1.269 . S
C33 O8 1.257 . S
C34 H9 0.930 . S
C34 C37 1.388 . S
C34 C39 1.418 . S
C35 H30 0.930 . S
C35 C38 1.404 . S
C35 C39 1.353 . S
N36 Co1 2.145 . S
N36 C37 1.397 . S
N36 C38 1.334 . S
C37 H18 0.929 . S
C37 C34 1.388 . S
C37 N36 1.397 . S
C38 H19 0.929 . S
C38 C35 1.404 . S
C38 N36 1.334 . S
C39 H31 0.930 . S
C39 C34 1.418 . S
C39 C35 1.353 . S
C40 H10 0.930 . S
C40 N41 1.330 . S
C40 C42 1.446 . S
N41 Co0 2.151 . S
N41 C40 1.330 . S
N41 C45 1.418 . S
C42 H21 0.929 . S
C42 C40 1.446 . S
C42 C43 1.332 . S
C43 H23 0.931 . S
C43 C42 1.332 . S
C43 C44 1.267 . S
C44 H12 0.929 . S
C44 C43 1.267 . S
C44 C45 1.251 . S
C45 H15 0.929 . S
C45 N41 1.418 . S
C45 C44 1.251 . S
C46 H13 0.930 . S
C46 C48 1.406 . S
C46 C51 1.261 . S
C47 H14 0.930 . S
C47 N49 1.325 . S
C47 C50 1.357 . S
C48 H16 0.928 . S
C48 C46 1.406 . S
C48 N49 1.261 . S
N49 Co0 2.214 . S
N49 C47 1.325 . S
N49 C48 1.261 . S
C50 H20 0.931 . S
C50 C47 1.357 . S
C50 C51 1.312 . S
C51 H22 0.930 . S
C51 C46 1.261 . S
C51 C50 1.312 . S
C52 O24 1.214 . S
C52 O32 1.234 . S
C53 H25 0.929 . S
C53 C56 1.391 . S
C53 C58 1.391 . S
C54 H26 0.929 . S
C54 C55 1.390 . S
C54 N57 1.391 . S
C55 H27 0.930 . S
C55 C54 1.390 . S
C55 C56 1.392 . S
C56 H28 0.929 . S
C56 C53 1.391 . S
C56 C55 1.392 . S
N57 Co1 2.257 1_655 S
N57 C54 1.391 . S
N57 C58 1.388 . S
C58 H29 0.930 . S
C58 C53 1.391 . S
C58 N57 1.388 . S
Co59 O61 2.143 . S
Co59 O67 2.074 . S
Co59 O70 2.093 . S
Co59 O83 2.097 . S
Co59 N100 2.151 . S
Co59 N108 2.214 . S
Co60 O61 2.160 . S
Co60 O66 2.058 . S
Co60 O76 2.057 . S
Co60 O91 2.037 . S
Co60 N95 2.145 . S
Co60 N116 2.257 1_545 S
O61 Co59 2.143 . S
O61 Co60 2.160 . S
C62 O63 1.278 . S
C62 O70 1.224 . S
O63 C62 1.278 . S
C64 O65 1.245 . S
C64 O76 1.232 . S
O65 C64 1.245 . S
O66 Co60 2.058 . S
O66 C92 1.269 . S
O67 Co59 2.074 . S
O67 C92 1.257 . S
H68 C93 0.930 . S
H69 C99 0.930 . S
O70 Co59 2.093 . S
O70 C62 1.224 . S
H71 C103 0.929 . S
H72 C105 0.930 . S
H73 C106 0.930 . S
H74 C104 0.929 . S
H75 C107 0.928 . S
O76 Co60 2.057 . S
O76 C64 1.232 . S
H77 C96 0.929 . S
H78 C97 0.929 . S
H79 C109 0.931 . S
H80 C101 0.929 . S
H81 C110 0.930 . S
H82 C102 0.931 . S
O83 Co59 2.097 . S
O83 C111 1.214 . S
H84 C112 0.929 . S
H85 C113 0.929 . S
H86 C114 0.930 . S
H87 C115 0.929 . S
H88 C117 0.930 . S
H89 C94 0.930 . S
H90 C98 0.930 . S
O91 Co60 2.037 . S
O91 C111 1.234 . S
C92 O66 1.269 . S
C92 O67 1.257 . S
C93 H68 0.930 . S
C93 C96 1.388 . S
C93 C98 1.418 . S
C94 H89 0.930 . S
C94 C97 1.404 . S
C94 C98 1.353 . S
N95 Co60 2.145 . S
N95 C96 1.397 . S
N95 C97 1.334 . S
C96 H77 0.929 . S
C96 C93 1.388 . S
C96 N95 1.397 . S
C97 H78 0.929 . S
C97 C94 1.404 . S
C97 N95 1.334 . S
C98 H90 0.930 . S
C98 C93 1.418 . S
C98 C94 1.353 . S
C99 H69 0.930 . S
C99 N100 1.330 . S
C99 C101 1.446 . S
N100 Co59 2.151 . S
N100 C99 1.330 . S
N100 C104 1.418 . S
C101 H80 0.929 . S
C101 C99 1.446 . S
C101 C102 1.332 . S
C102 H82 0.931 . S
C102 C101 1.332 . S
C102 C103 1.267 . S
C103 H71 0.929 . S
C103 C102 1.267 . S
C103 C104 1.251 . S
C104 H74 0.929 . S
C104 N100 1.418 . S
C104 C103 1.251 . S
C105 H72 0.930 . S
C105 C107 1.406 . S
C105 C110 1.261 . S
C106 H73 0.930 . S
C106 N108 1.325 . S
C106 C109 1.357 . S
C107 H75 0.928 . S
C107 C105 1.406 . S
C107 N108 1.261 . S
N108 Co59 2.214 . S
N108 C106 1.325 . S
N108 C107 1.261 . S
C109 H79 0.931 . S
C109 C106 1.357 . S
C109 C110 1.312 . S
C110 H81 0.930 . S
C110 C105 1.261 . S
C110 C109 1.312 . S
C111 O83 1.214 . S
C111 O91 1.234 . S
C112 H84 0.929 . S
C112 C115 1.391 . S
C112 C117 1.391 . S
C113 H85 0.929 . S
C113 C114 1.390 . S
C113 N116 1.391 . S
C114 H86 0.930 . S
C114 C113 1.390 . S
C114 C115 1.392 . S
C115 H87 0.929 . S
C115 C112 1.391 . S
C115 C114 1.392 . S
N116 Co60 2.257 1_565 S
N116 C113 1.391 . S
N116 C117 1.388 . S
C117 H88 0.930 . S
C117 C112 1.391 . S
C117 N116 1.388 . S
Co118 O120 2.143 . S
Co118 O126 2.074 . S
Co118 O129 2.093 . S
Co118 O142 2.097 . S
Co118 N159 2.151 . S
Co118 N167 2.214 . S
Co119 O120 2.160 . S
Co119 O125 2.058 . S
Co119 O135 2.057 . S
Co119 O150 2.037 . S
Co119 N154 2.145 . S
Co119 N175 2.257 . S
O120 Co118 2.143 . S
O120 Co119 2.160 . S
C121 O122 1.278 . S
C121 O129 1.224 . S
O122 C121 1.278 . S
C123 O124 1.245 . S
C123 O135 1.232 . S
O124 C123 1.245 . S
O125 Co119 2.058 . S
O125 C151 1.269 . S
O126 Co118 2.074 . S
O126 C151 1.257 . S
H127 C152 0.930 . S
H128 C158 0.930 . S
O129 Co118 2.093 . S
O129 C121 1.224 . S
H130 C162 0.929 . S
H131 C164 0.930 . S
H132 C165 0.930 . S
H133 C163 0.929 . S
H134 C166 0.928 . S
O135 Co119 2.057 . S
O135 C123 1.232 . S
H136 C155 0.929 . S
H137 C156 0.929 . S
H138 C168 0.931 . S
H139 C160 0.929 . S
H140 C169 0.930 . S
H141 C161 0.931 . S
O142 Co118 2.097 . S
O142 C170 1.214 . S
H143 C171 0.929 . S
H144 C172 0.929 . S
H145 C173 0.930 . S
H146 C174 0.929 . S
H147 C176 0.930 . S
H148 C153 0.930 . S
H149 C157 0.930 . S
O150 Co119 2.037 . S
O150 C170 1.234 . S
C151 O125 1.269 . S
C151 O126 1.257 . S
C152 H127 0.930 . S
C152 C155 1.388 . S
C152 C157 1.418 . S
C153 H148 0.930 . S
C153 C156 1.404 . S
C153 C157 1.353 . S
N154 Co119 2.145 . S
N154 C155 1.397 . S
N154 C156 1.334 . S
C155 H136 0.929 . S
C155 C152 1.388 . S
C155 N154 1.397 . S
C156 H137 0.929 . S
C156 C153 1.404 . S
C156 N154 1.334 . S
C157 H149 0.930 . S
C157 C152 1.418 . S
C157 C153 1.353 . S
C158 H128 0.930 . S
C158 N159 1.330 . S
C158 C160 1.446 . S
N159 Co118 2.151 . S
N159 C158 1.330 . S
N159 C163 1.418 . S
C160 H139 0.929 . S
C160 C158 1.446 . S
C160 C161 1.332 . S
C161 H141 0.931 . S
C161 C160 1.332 . S
C161 C162 1.267 . S
C162 H130 0.929 . S
C162 C161 1.267 . S
C162 C163 1.251 . S
C163 H133 0.929 . S
C163 N159 1.418 . S
C163 C162 1.251 . S
C164 H131 0.930 . S
C164 C166 1.406 . S
C164 C169 1.261 . S
C165 H132 0.930 . S
C165 N167 1.325 . S
C165 C168 1.357 . S
C166 H134 0.928 . S
C166 C164 1.406 . S
C166 N167 1.261 . S
N167 Co118 2.214 . S
N167 C165 1.325 . S
N167 C166 1.261 . S
C168 H138 0.931 . S
C168 C165 1.357 . S
C168 C169 1.312 . S
C169 H140 0.930 . S
C169 C164 1.261 . S
C169 C168 1.312 . S
C170 O142 1.214 . S
C170 O150 1.234 . S
C171 H143 0.929 . S
C171 C174 1.391 . S
C171 C176 1.391 . S
C172 H144 0.929 . S
C172 C173 1.390 . S
C172 N175 1.391 . S
C173 H145 0.930 . S
C173 C172 1.390 . S
C173 C174 1.392 . S
C174 H146 0.929 . S
C174 C171 1.391 . S
C174 C173 1.392 . S
N175 Co119 2.257 . S
N175 C172 1.391 . S
N175 C176 1.388 . S
C176 H147 0.930 . S
C176 C171 1.391 . S
C176 N175 1.388 . S
Co177 O179 2.143 . S
Co177 O185 2.074 . S
Co177 O188 2.093 . S
Co177 O201 2.097 . S
Co177 N218 2.151 . S
Co177 N226 2.214 . S
Co178 O179 2.160 . S
Co178 O184 2.058 . S
Co178 O194 2.057 . S
Co178 O209 2.037 . S
Co178 N213 2.145 . S
Co178 N234 2.257 . S
O179 Co177 2.143 . S
O179 Co178 2.160 . S
C180 O181 1.278 . S
C180 O188 1.224 . S
O181 C180 1.278 . S
C182 O183 1.245 . S
C182 O194 1.232 . S
O183 C182 1.245 . S
O184 Co178 2.058 . S
O184 C210 1.269 . S
O185 Co177 2.074 . S
O185 C210 1.257 . S
H186 C211 0.930 . S
H187 C217 0.930 . S
O188 Co177 2.093 . S
O188 C180 1.224 . S
H189 C221 0.929 . S
H190 C223 0.930 . S
H191 C224 0.930 . S
H192 C222 0.929 . S
H193 C225 0.928 . S
O194 Co178 2.057 . S
O194 C182 1.232 . S
H195 C214 0.929 . S
H196 C215 0.929 . S
H197 C227 0.931 . S
H198 C219 0.929 . S
H199 C228 0.930 . S
H200 C220 0.931 . S
O201 Co177 2.097 . S
O201 C229 1.214 . S
H202 C230 0.929 . S
H203 C231 0.929 . S
H204 C232 0.930 . S
H205 C233 0.929 . S
H206 C235 0.930 . S
H207 C212 0.930 . S
H208 C216 0.930 . S
O209 Co178 2.037 . S
O209 C229 1.234 . S
C210 O184 1.269 . S
C210 O185 1.257 . S
C211 H186 0.930 . S
C211 C214 1.388 . S
C211 C216 1.418 . S
C212 H207 0.930 . S
C212 C215 1.404 . S
C212 C216 1.353 . S
N213 Co178 2.145 . S
N213 C214 1.397 . S
N213 C215 1.334 . S
C214 H195 0.929 . S
C214 C211 1.388 . S
C214 N213 1.397 . S
C215 H196 0.929 . S
C215 C212 1.404 . S
C215 N213 1.334 . S
C216 H208 0.930 . S
C216 C211 1.418 . S
C216 C212 1.353 . S
C217 H187 0.930 . S
C217 N218 1.330 . S
C217 C219 1.446 . S
N218 Co177 2.151 . S
N218 C217 1.330 . S
N218 C222 1.418 . S
C219 H198 0.929 . S
C219 C217 1.446 . S
C219 C220 1.332 . S
C220 H200 0.931 . S
C220 C219 1.332 . S
C220 C221 1.267 . S
C221 H189 0.929 . S
C221 C220 1.267 . S
C221 C222 1.251 . S
C222 H192 0.929 . S
C222 N218 1.418 . S
C222 C221 1.251 . S
C223 H190 0.930 . S
C223 C225 1.406 . S
C223 C228 1.261 . S
C224 H191 0.930 . S
C224 N226 1.325 . S
C224 C227 1.357 . S
C225 H193 0.928 . S
C225 C223 1.406 . S
C225 N226 1.261 . S
N226 Co177 2.214 . S
N226 C224 1.325 . S
N226 C225 1.261 . S
C227 H197 0.931 . S
C227 C224 1.357 . S
C227 C228 1.312 . S
C228 H199 0.930 . S
C228 C223 1.261 . S
C228 C227 1.312 . S
C229 O201 1.214 . S
C229 O209 1.234 . S
C230 H202 0.929 . S
C230 C233 1.391 . S
C230 C235 1.391 . S
C231 H203 0.929 . S
C231 C232 1.390 . S
C231 N234 1.391 . S
C232 H204 0.930 . S
C232 C231 1.390 . S
C232 C233 1.392 . S
C233 H205 0.929 . S
C233 C230 1.391 . S
C233 C232 1.392 . S
N234 Co178 2.257 . S
N234 C231 1.391 . S
N234 C235 1.388 . S
C235 H206 0.930 . S
C235 C230 1.391 . S
C235 N234 1.388 . S
Co236 O238 2.143 . S
Co236 O244 2.074 . S
Co236 O247 2.093 . S
Co236 O260 2.097 . S
Co236 N277 2.151 . S
Co236 N285 2.214 . S
Co237 O238 2.160 . S
Co237 O243 2.058 . S
Co237 O253 2.057 . S
Co237 O268 2.037 . S
Co237 N272 2.145 . S
Co237 N293 2.257 1_455 S
O238 Co236 2.143 . S
O238 Co237 2.160 . S
C239 O240 1.278 . S
C239 O247 1.224 . S
O240 C239 1.278 . S
C241 O242 1.245 . S
C241 O253 1.232 . S
O242 C241 1.245 . S
O243 Co237 2.058 . S
O243 C269 1.269 . S
O244 Co236 2.074 . S
O244 C269 1.257 . S
H245 C270 0.930 . S
H246 C276 0.930 . S
O247 Co236 2.093 . S
O247 C239 1.224 . S
H248 C280 0.929 . S
H249 C282 0.930 . S
H250 C283 0.930 . S
H251 C281 0.929 . S
H252 C284 0.928 . S
O253 Co237 2.057 . S
O253 C241 1.232 . S
H254 C273 0.929 . S
H255 C274 0.929 . S
H256 C286 0.931 . S
H257 C278 0.929 . S
H258 C287 0.930 . S
H259 C279 0.931 . S
O260 Co236 2.097 . S
O260 C288 1.214 . S
H261 C289 0.929 . S
H262 C290 0.929 . S
H263 C291 0.930 . S
H264 C292 0.929 . S
H265 C294 0.930 . S
H266 C271 0.930 . S
H267 C275 0.930 . S
O268 Co237 2.037 . S
O268 C288 1.234 . S
C269 O243 1.269 . S
C269 O244 1.257 . S
C270 H245 0.930 . S
C270 C273 1.388 . S
C270 C275 1.418 . S
C271 H266 0.930 . S
C271 C274 1.404 . S
C271 C275 1.353 . S
N272 Co237 2.145 . S
N272 C273 1.397 . S
N272 C274 1.334 . S
C273 H254 0.929 . S
C273 C270 1.388 . S
C273 N272 1.397 . S
C274 H255 0.929 . S
C274 C271 1.404 . S
C274 N272 1.334 . S
C275 H267 0.930 . S
C275 C270 1.418 . S
C275 C271 1.353 . S
C276 H246 0.930 . S
C276 N277 1.330 . S
C276 C278 1.446 . S
N277 Co236 2.151 . S
N277 C276 1.330 . S
N277 C281 1.418 . S
C278 H257 0.929 . S
C278 C276 1.446 . S
C278 C279 1.332 . S
C279 H259 0.931 . S
C279 C278 1.332 . S
C279 C280 1.267 . S
C280 H248 0.929 . S
C280 C279 1.267 . S
C280 C281 1.251 . S
C281 H251 0.929 . S
C281 N277 1.418 . S
C281 C280 1.251 . S
C282 H249 0.930 . S
C282 C284 1.406 . S
C282 C287 1.261 . S
C283 H250 0.930 . S
C283 N285 1.325 . S
C283 C286 1.357 . S
C284 H252 0.928 . S
C284 C282 1.406 . S
C284 N285 1.261 . S
N285 Co236 2.214 . S
N285 C283 1.325 . S
N285 C284 1.261 . S
C286 H256 0.931 . S
C286 C283 1.357 . S
C286 C287 1.312 . S
C287 H258 0.930 . S
C287 C282 1.261 . S
C287 C286 1.312 . S
C288 O260 1.214 . S
C288 O268 1.234 . S
C289 H261 0.929 . S
C289 C292 1.391 . S
C289 C294 1.391 . S
C290 H262 0.929 . S
C290 C291 1.390 . S
C290 N293 1.391 . S
C291 H263 0.930 . S
C291 C290 1.390 . S
C291 C292 1.392 . S
C292 H264 0.929 . S
C292 C289 1.391 . S
C292 C291 1.392 . S
N293 Co237 2.257 1_655 S
N293 C290 1.391 . S
N293 C294 1.388 . S
C294 H265 0.930 . S
C294 C289 1.391 . S
C294 N293 1.388 . S
Co295 O297 2.143 . S
Co295 O303 2.074 . S
Co295 O306 2.093 . S
Co295 O319 2.097 . S
Co295 N336 2.151 . S
Co295 N344 2.214 . S
Co296 O297 2.160 . S
Co296 O302 2.058 . S
Co296 O312 2.057 . S
Co296 O327 2.037 . S
Co296 N331 2.145 . S
Co296 N352 2.257 1_545 S
O297 Co295 2.143 . S
O297 Co296 2.160 . S
C298 O299 1.278 . S
C298 O306 1.224 . S
O299 C298 1.278 . S
C300 O301 1.245 . S
C300 O312 1.232 . S
O301 C300 1.245 . S
O302 Co296 2.058 . S
O302 C328 1.269 . S
O303 Co295 2.074 . S
O303 C328 1.257 . S
H304 C329 0.930 . S
H305 C335 0.930 . S
O306 Co295 2.093 . S
O306 C298 1.224 . S
H307 C339 0.929 . S
H308 C341 0.930 . S
H309 C342 0.930 . S
H310 C340 0.929 . S
H311 C343 0.928 . S
O312 Co296 2.057 . S
O312 C300 1.232 . S
H313 C332 0.929 . S
H314 C333 0.929 . S
H315 C345 0.931 . S
H316 C337 0.929 . S
H317 C346 0.930 . S
H318 C338 0.931 . S
O319 Co295 2.097 . S
O319 C347 1.214 . S
H320 C348 0.929 . S
H321 C349 0.929 . S
H322 C350 0.930 . S
H323 C351 0.929 . S
H324 C353 0.930 . S
H325 C330 0.930 . S
H326 C334 0.930 . S
O327 Co296 2.037 . S
O327 C347 1.234 . S
C328 O302 1.269 . S
C328 O303 1.257 . S
C329 H304 0.930 . S
C329 C332 1.388 . S
C329 C334 1.418 . S
C330 H325 0.930 . S
C330 C333 1.404 . S
C330 C334 1.353 . S
N331 Co296 2.145 . S
N331 C332 1.397 . S
N331 C333 1.334 . S
C332 H313 0.929 . S
C332 C329 1.388 . S
C332 N331 1.397 . S
C333 H314 0.929 . S
C333 C330 1.404 . S
C333 N331 1.334 . S
C334 H326 0.930 . S
C334 C329 1.418 . S
C334 C330 1.353 . S
C335 H305 0.930 . S
C335 N336 1.330 . S
C335 C337 1.446 . S
N336 Co295 2.151 . S
N336 C335 1.330 . S
N336 C340 1.418 . S
C337 H316 0.929 . S
C337 C335 1.446 . S
C337 C338 1.332 . S
C338 H318 0.931 . S
C338 C337 1.332 . S
C338 C339 1.267 . S
C339 H307 0.929 . S
C339 C338 1.267 . S
C339 C340 1.251 . S
C340 H310 0.929 . S
C340 N336 1.418 . S
C340 C339 1.251 . S
C341 H308 0.930 . S
C341 C343 1.406 . S
C341 C346 1.261 . S
C342 H309 0.930 . S
C342 N344 1.325 . S
C342 C345 1.357 . S
C343 H311 0.928 . S
C343 C341 1.406 . S
C343 N344 1.261 . S
N344 Co295 2.214 . S
N344 C342 1.325 . S
N344 C343 1.261 . S
C345 H315 0.931 . S
C345 C342 1.357 . S
C345 C346 1.312 . S
C346 H317 0.930 . S
C346 C341 1.261 . S
C346 C345 1.312 . S
C347 O319 1.214 . S
C347 O327 1.234 . S
C348 H320 0.929 . S
C348 C351 1.391 . S
C348 C353 1.391 . S
C349 H321 0.929 . S
C349 C350 1.390 . S
C349 N352 1.391 . S
C350 H322 0.930 . S
C350 C349 1.390 . S
C350 C351 1.392 . S
C351 H323 0.929 . S
C351 C348 1.391 . S
C351 C350 1.392 . S
N352 Co296 2.257 1_565 S
N352 C349 1.391 . S
N352 C353 1.388 . S
C353 H324 0.930 . S
C353 C348 1.391 . S
C353 N352 1.388 . S
Co354 O356 2.143 . S
Co354 O362 2.074 . S
Co354 O365 2.093 . S
Co354 O378 2.097 . S
Co354 N395 2.151 . S
Co354 N403 2.214 . S
Co355 O356 2.160 . S
Co355 O361 2.058 . S
Co355 O371 2.057 . S
Co355 O386 2.037 . S
Co355 N390 2.145 . S
Co355 N411 2.257 . S
O356 Co354 2.143 . S
O356 Co355 2.160 . S
C357 O358 1.278 . S
C357 O365 1.224 . S
O358 C357 1.278 . S
C359 O360 1.245 . S
C359 O371 1.232 . S
O360 C359 1.245 . S
O361 Co355 2.058 . S
O361 C387 1.269 . S
O362 Co354 2.074 . S
O362 C387 1.257 . S
H363 C388 0.930 . S
H364 C394 0.930 . S
O365 Co354 2.093 . S
O365 C357 1.224 . S
H366 C398 0.929 . S
H367 C400 0.930 . S
H368 C401 0.930 . S
H369 C399 0.929 . S
H370 C402 0.928 . S
O371 Co355 2.057 . S
O371 C359 1.232 . S
H372 C391 0.929 . S
H373 C392 0.929 . S
H374 C404 0.931 . S
H375 C396 0.929 . S
H376 C405 0.930 . S
H377 C397 0.931 . S
O378 Co354 2.097 . S
O378 C406 1.214 . S
H379 C407 0.929 . S
H380 C408 0.929 . S
H381 C409 0.930 . S
H382 C410 0.929 . S
H383 C412 0.930 . S
H384 C389 0.930 . S
H385 C393 0.930 . S
O386 Co355 2.037 . S
O386 C406 1.234 . S
C387 O361 1.269 . S
C387 O362 1.257 . S
C388 H363 0.930 . S
C388 C391 1.388 . S
C388 C393 1.418 . S
C389 H384 0.930 . S
C389 C392 1.404 . S
C389 C393 1.353 . S
N390 Co355 2.145 . S
N390 C391 1.397 . S
N390 C392 1.334 . S
C391 H372 0.929 . S
C391 C388 1.388 . S
C391 N390 1.397 . S
C392 H373 0.929 . S
C392 C389 1.404 . S
C392 N390 1.334 . S
C393 H385 0.930 . S
C393 C388 1.418 . S
C393 C389 1.353 . S
C394 H364 0.930 . S
C394 N395 1.330 . S
C394 C396 1.446 . S
N395 Co354 2.151 . S
N395 C394 1.330 . S
N395 C399 1.418 . S
C396 H375 0.929 . S
C396 C394 1.446 . S
C396 C397 1.332 . S
C397 H377 0.931 . S
C397 C396 1.332 . S
C397 C398 1.267 . S
C398 H366 0.929 . S
C398 C397 1.267 . S
C398 C399 1.251 . S
C399 H369 0.929 . S
C399 N395 1.418 . S
C399 C398 1.251 . S
C400 H367 0.930 . S
C400 C402 1.406 . S
C400 C405 1.261 . S
C401 H368 0.930 . S
C401 N403 1.325 . S
C401 C404 1.357 . S
C402 H370 0.928 . S
C402 C400 1.406 . S
C402 N403 1.261 . S
N403 Co354 2.214 . S
N403 C401 1.325 . S
N403 C402 1.261 . S
C404 H374 0.931 . S
C404 C401 1.357 . S
C404 C405 1.312 . S
C405 H376 0.930 . S
C405 C400 1.261 . S
C405 C404 1.312 . S
C406 O378 1.214 . S
C406 O386 1.234 . S
C407 H379 0.929 . S
C407 C410 1.391 . S
C407 C412 1.391 . S
C408 H380 0.929 . S
C408 C409 1.390 . S
C408 N411 1.391 . S
C409 H381 0.930 . S
C409 C408 1.390 . S
C409 C410 1.392 . S
C410 H382 0.929 . S
C410 C407 1.391 . S
C410 C409 1.392 . S
N411 Co355 2.257 . S
N411 C408 1.391 . S
N411 C412 1.388 . S
C412 H383 0.930 . S
C412 C407 1.391 . S
C412 N411 1.388 . S
Co413 O415 2.143 . S
Co413 O421 2.074 . S
Co413 O424 2.093 . S
Co413 O437 2.097 . S
Co413 N454 2.151 . S
Co413 N462 2.214 . S
Co414 O415 2.160 . S
Co414 O420 2.058 . S
Co414 O430 2.057 . S
Co414 O445 2.037 . S
Co414 N449 2.145 . S
Co414 N470 2.257 . S
O415 Co413 2.143 . S
O415 Co414 2.160 . S
C416 O417 1.278 . S
C416 O424 1.224 . S
O417 C416 1.278 . S
C418 O419 1.245 . S
C418 O430 1.232 . S
O419 C418 1.245 . S
O420 Co414 2.058 . S
O420 C446 1.269 . S
O421 Co413 2.074 . S
O421 C446 1.257 . S
H422 C447 0.930 . S
H423 C453 0.930 . S
O424 Co413 2.093 . S
O424 C416 1.224 . S
H425 C457 0.929 . S
H426 C459 0.930 . S
H427 C460 0.930 . S
H428 C458 0.929 . S
H429 C461 0.928 . S
O430 Co414 2.057 . S
O430 C418 1.232 . S
H431 C450 0.929 . S
H432 C451 0.929 . S
H433 C463 0.931 . S
H434 C455 0.929 . S
H435 C464 0.930 . S
H436 C456 0.931 . S
O437 Co413 2.097 . S
O437 C465 1.214 . S
H438 C466 0.929 . S
H439 C467 0.929 . S
H440 C468 0.930 . S
H441 C469 0.929 . S
H442 C471 0.930 . S
H443 C448 0.930 . S
H444 C452 0.930 . S
O445 Co414 2.037 . S
O445 C465 1.234 . S
C446 O420 1.269 . S
C446 O421 1.257 . S
C447 H422 0.930 . S
C447 C450 1.388 . S
C447 C452 1.418 . S
C448 H443 0.930 . S
C448 C451 1.404 . S
C448 C452 1.353 . S
N449 Co414 2.145 . S
N449 C450 1.397 . S
N449 C451 1.334 . S
C450 H431 0.929 . S
C450 C447 1.388 . S
C450 N449 1.397 . S
C451 H432 0.929 . S
C451 C448 1.404 . S
C451 N449 1.334 . S
C452 H444 0.930 . S
C452 C447 1.418 . S
C452 C448 1.353 . S
C453 H423 0.930 . S
C453 N454 1.330 . S
C453 C455 1.446 . S
N454 Co413 2.151 . S
N454 C453 1.330 . S
N454 C458 1.418 . S
C455 H434 0.929 . S
C455 C453 1.446 . S
C455 C456 1.332 . S
C456 H436 0.931 . S
C456 C455 1.332 . S
C456 C457 1.267 . S
C457 H425 0.929 . S
C457 C456 1.267 . S
C457 C458 1.251 . S
C458 H428 0.929 . S
C458 N454 1.418 . S
C458 C457 1.251 . S
C459 H426 0.930 . S
C459 C461 1.406 . S
C459 C464 1.261 . S
C460 H427 0.930 . S
C460 N462 1.325 . S
C460 C463 1.357 . S
C461 H429 0.928 . S
C461 C459 1.406 . S
C461 N462 1.261 . S
N462 Co413 2.214 . S
N462 C460 1.325 . S
N462 C461 1.261 . S
C463 H433 0.931 . S
C463 C460 1.357 . S
C463 C464 1.312 . S
C464 H435 0.930 . S
C464 C459 1.261 . S
C464 C463 1.312 . S
C465 O437 1.214 . S
C465 O445 1.234 . S
C466 H438 0.929 . S
C466 C469 1.391 . S
C466 C471 1.391 . S
C467 H439 0.929 . S
C467 C468 1.390 . S
C467 N470 1.391 . S
C468 H440 0.930 . S
C468 C467 1.390 . S
C468 C469 1.392 . S
C469 H441 0.929 . S
C469 C466 1.391 . S
C469 C468 1.392 . S
N470 Co414 2.257 . S
N470 C467 1.391 . S
N470 C471 1.388 . S
C471 H442 0.930 . S
C471 C466 1.391 . S
C471 N470 1.388 . S
Co472 O474 2.143 . S
Co472 O480 2.074 . S
Co472 O483 2.093 . S
Co472 O496 2.097 . S
Co472 N513 2.151 . S
Co472 N521 2.214 . S
Co473 O474 2.160 . S
Co473 O479 2.058 . S
Co473 O489 2.057 . S
Co473 O504 2.037 . S
Co473 N508 2.145 . S
Co473 N529 2.257 1_655 S
O474 Co472 2.143 . S
O474 Co473 2.160 . S
C475 O476 1.278 . S
C475 O483 1.224 . S
O476 C475 1.278 . S
C477 O478 1.245 . S
C477 O489 1.232 . S
O478 C477 1.245 . S
O479 Co473 2.058 . S
O479 C505 1.269 . S
O480 Co472 2.074 . S
O480 C505 1.257 . S
H481 C506 0.930 . S
H482 C512 0.930 . S
O483 Co472 2.093 . S
O483 C475 1.224 . S
H484 C516 0.929 . S
H485 C518 0.930 . S
H486 C519 0.930 . S
H487 C517 0.929 . S
H488 C520 0.928 . S
O489 Co473 2.057 . S
O489 C477 1.232 . S
H490 C509 0.929 . S
H491 C510 0.929 . S
H492 C522 0.931 . S
H493 C514 0.929 . S
H494 C523 0.930 . S
H495 C515 0.931 . S
O496 Co472 2.097 . S
O496 C524 1.214 . S
H497 C525 0.929 . S
H498 C526 0.929 . S
H499 C527 0.930 . S
H500 C528 0.929 . S
H501 C530 0.930 . S
H502 C507 0.930 . S
H503 C511 0.930 . S
O504 Co473 2.037 . S
O504 C524 1.234 . S
C505 O479 1.269 . S
C505 O480 1.257 . S
C506 H481 0.930 . S
C506 C509 1.388 . S
C506 C511 1.418 . S
C507 H502 0.930 . S
C507 C510 1.404 . S
C507 C511 1.353 . S
N508 Co473 2.145 . S
N508 C509 1.397 . S
N508 C510 1.334 . S
C509 H490 0.929 . S
C509 C506 1.388 . S
C509 N508 1.397 . S
C510 H491 0.929 . S
C510 C507 1.404 . S
C510 N508 1.334 . S
C511 H503 0.930 . S
C511 C506 1.418 . S
C511 C507 1.353 . S
C512 H482 0.930 . S
C512 N513 1.330 . S
C512 C514 1.446 . S
N513 Co472 2.151 . S
N513 C512 1.330 . S
N513 C517 1.418 . S
C514 H493 0.929 . S
C514 C512 1.446 . S
C514 C515 1.332 . S
C515 H495 0.931 . S
C515 C514 1.332 . S
C515 C516 1.267 . S
C516 H484 0.929 . S
C516 C515 1.267 . S
C516 C517 1.251 . S
C517 H487 0.929 . S
C517 N513 1.418 . S
C517 C516 1.251 . S
C518 H485 0.930 . S
C518 C520 1.406 . S
C518 C523 1.261 . S
C519 H486 0.930 . S
C519 N521 1.325 . S
C519 C522 1.357 . S
C520 H488 0.928 . S
C520 C518 1.406 . S
C520 N521 1.261 . S
N521 Co472 2.214 . S
N521 C519 1.325 . S
N521 C520 1.261 . S
C522 H492 0.931 . S
C522 C519 1.357 . S
C522 C523 1.312 . S
C523 H494 0.930 . S
C523 C518 1.261 . S
C523 C522 1.312 . S
C524 O496 1.214 . S
C524 O504 1.234 . S
C525 H497 0.929 . S
C525 C528 1.391 . S
C525 C530 1.391 . S
C526 H498 0.929 . S
C526 C527 1.390 . S
C526 N529 1.391 . S
C527 H499 0.930 . S
C527 C526 1.390 . S
C527 C528 1.392 . S
C528 H500 0.929 . S
C528 C525 1.391 . S
C528 C527 1.392 . S
N529 Co473 2.257 1_455 S
N529 C526 1.391 . S
N529 C530 1.388 . S
C530 H501 0.930 . S
C530 C525 1.391 . S
C530 N529 1.388 . S
Co531 O533 2.143 . S
Co531 O539 2.074 . S
Co531 O542 2.093 . S
Co531 O555 2.097 . S
Co531 N572 2.151 . S
Co531 N580 2.214 . S
Co532 O533 2.160 . S
Co532 O538 2.058 . S
Co532 O548 2.057 . S
Co532 O563 2.037 . S
Co532 N567 2.145 . S
Co532 N588 2.257 1_565 S
O533 Co531 2.143 . S
O533 Co532 2.160 . S
C534 O535 1.278 . S
C534 O542 1.224 . S
O535 C534 1.278 . S
C536 O537 1.245 . S
C536 O548 1.232 . S
O537 C536 1.245 . S
O538 Co532 2.058 . S
O538 C564 1.269 . S
O539 Co531 2.074 . S
O539 C564 1.257 . S
H540 C565 0.930 . S
H541 C571 0.930 . S
O542 Co531 2.093 . S
O542 C534 1.224 . S
H543 C575 0.929 . S
H544 C577 0.930 . S
H545 C578 0.930 . S
H546 C576 0.929 . S
H547 C579 0.928 . S
O548 Co532 2.057 . S
O548 C536 1.232 . S
H549 C568 0.929 . S
H550 C569 0.929 . S
H551 C581 0.931 . S
H552 C573 0.929 . S
H553 C582 0.930 . S
H554 C574 0.931 . S
O555 Co531 2.097 . S
O555 C583 1.214 . S
H556 C584 0.929 . S
H557 C585 0.929 . S
H558 C586 0.930 . S
H559 C587 0.929 . S
H560 C589 0.930 . S
H561 C566 0.930 . S
H562 C570 0.930 . S
O563 Co532 2.037 . S
O563 C583 1.234 . S
C564 O538 1.269 . S
C564 O539 1.257 . S
C565 H540 0.930 . S
C565 C568 1.388 . S
C565 C570 1.418 . S
C566 H561 0.930 . S
C566 C569 1.404 . S
C566 C570 1.353 . S
N567 Co532 2.145 . S
N567 C568 1.397 . S
N567 C569 1.334 . S
C568 H549 0.929 . S
C568 C565 1.388 . S
C568 N567 1.397 . S
C569 H550 0.929 . S
C569 C566 1.404 . S
C569 N567 1.334 . S
C570 H562 0.930 . S
C570 C565 1.418 . S
C570 C566 1.353 . S
C571 H541 0.930 . S
C571 N572 1.330 . S
C571 C573 1.446 . S
N572 Co531 2.151 . S
N572 C571 1.330 . S
N572 C576 1.418 . S
C573 H552 0.929 . S
C573 C571 1.446 . S
C573 C574 1.332 . S
C574 H554 0.931 . S
C574 C573 1.332 . S
C574 C575 1.267 . S
C575 H543 0.929 . S
C575 C574 1.267 . S
C575 C576 1.251 . S
C576 H546 0.929 . S
C576 N572 1.418 . S
C576 C575 1.251 . S
C577 H544 0.930 . S
C577 C579 1.406 . S
C577 C582 1.261 . S
C578 H545 0.930 . S
C578 N580 1.325 . S
C578 C581 1.357 . S
C579 H547 0.928 . S
C579 C577 1.406 . S
C579 N580 1.261 . S
N580 Co531 2.214 . S
N580 C578 1.325 . S
N580 C579 1.261 . S
C581 H551 0.931 . S
C581 C578 1.357 . S
C581 C582 1.312 . S
C582 H553 0.930 . S
C582 C577 1.261 . S
C582 C581 1.312 . S
C583 O555 1.214 . S
C583 O563 1.234 . S
C584 H556 0.929 . S
C584 C587 1.391 . S
C584 C589 1.391 . S
C585 H557 0.929 . S
C585 C586 1.390 . S
C585 N588 1.391 . S
C586 H558 0.930 . S
C586 C585 1.390 . S
C586 C587 1.392 . S
C587 H559 0.929 . S
C587 C584 1.391 . S
C587 C586 1.392 . S
N588 Co532 2.257 1_545 S
N588 C585 1.391 . S
N588 C589 1.388 . S
C589 H560 0.930 . S
C589 C584 1.391 . S
C589 N588 1.388 . S
Co590 O592 2.143 . S
Co590 O598 2.074 . S
Co590 O601 2.093 . S
Co590 O614 2.097 . S
Co590 N631 2.151 . S
Co590 N639 2.214 . S
Co591 O592 2.160 . S
Co591 O597 2.058 . S
Co591 O607 2.057 . S
Co591 O622 2.037 . S
Co591 N626 2.145 . S
Co591 N647 2.257 . S
O592 Co590 2.143 . S
O592 Co591 2.160 . S
C593 O594 1.278 . S
C593 O601 1.224 . S
O594 C593 1.278 . S
C595 O596 1.245 . S
C595 O607 1.232 . S
O596 C595 1.245 . S
O597 Co591 2.058 . S
O597 C623 1.269 . S
O598 Co590 2.074 . S
O598 C623 1.257 . S
H599 C624 0.930 . S
H600 C630 0.930 . S
O601 Co590 2.093 . S
O601 C593 1.224 . S
H602 C634 0.929 . S
H603 C636 0.930 . S
H604 C637 0.930 . S
H605 C635 0.929 . S
H606 C638 0.928 . S
O607 Co591 2.057 . S
O607 C595 1.232 . S
H608 C627 0.929 . S
H609 C628 0.929 . S
H610 C640 0.931 . S
H611 C632 0.929 . S
H612 C641 0.930 . S
H613 C633 0.931 . S
O614 Co590 2.097 . S
O614 C642 1.214 . S
H615 C643 0.929 . S
H616 C644 0.929 . S
H617 C645 0.930 . S
H618 C646 0.929 . S
H619 C648 0.930 . S
H620 C625 0.930 . S
H621 C629 0.930 . S
O622 Co591 2.037 . S
O622 C642 1.234 . S
C623 O597 1.269 . S
C623 O598 1.257 . S
C624 H599 0.930 . S
C624 C627 1.388 . S
C624 C629 1.418 . S
C625 H620 0.930 . S
C625 C628 1.404 . S
C625 C629 1.353 . S
N626 Co591 2.145 . S
N626 C627 1.397 . S
N626 C628 1.334 . S
C627 H608 0.929 . S
C627 C624 1.388 . S
C627 N626 1.397 . S
C628 H609 0.929 . S
C628 C625 1.404 . S
C628 N626 1.334 . S
C629 H621 0.930 . S
C629 C624 1.418 . S
C629 C625 1.353 . S
C630 H600 0.930 . S
C630 N631 1.330 . S
C630 C632 1.446 . S
N631 Co590 2.151 . S
N631 C630 1.330 . S
N631 C635 1.418 . S
C632 H611 0.929 . S
C632 C630 1.446 . S
C632 C633 1.332 . S
C633 H613 0.931 . S
C633 C632 1.332 . S
C633 C634 1.267 . S
C634 H602 0.929 . S
C634 C633 1.267 . S
C634 C635 1.251 . S
C635 H605 0.929 . S
C635 N631 1.418 . S
C635 C634 1.251 . S
C636 H603 0.930 . S
C636 C638 1.406 . S
C636 C641 1.261 . S
C637 H604 0.930 . S
C637 N639 1.325 . S
C637 C640 1.357 . S
C638 H606 0.928 . S
C638 C636 1.406 . S
C638 N639 1.261 . S
N639 Co590 2.214 . S
N639 C637 1.325 . S
N639 C638 1.261 . S
C640 H610 0.931 . S
C640 C637 1.357 . S
C640 C641 1.312 . S
C641 H612 0.930 . S
C641 C636 1.261 . S
C641 C640 1.312 . S
C642 O614 1.214 . S
C642 O622 1.234 . S
C643 H615 0.929 . S
C643 C646 1.391 . S
C643 C648 1.391 . S
C644 H616 0.929 . S
C644 C645 1.390 . S
C644 N647 1.391 . S
C645 H617 0.930 . S
C645 C644 1.390 . S
C645 C646 1.392 . S
C646 H618 0.929 . S
C646 C643 1.391 . S
C646 C645 1.392 . S
N647 Co591 2.257 . S
N647 C644 1.391 . S
N647 C648 1.388 . S
C648 H619 0.930 . S
C648 C643 1.391 . S
C648 N647 1.388 . S
Co649 O651 2.143 . S
Co649 O657 2.074 . S
Co649 O660 2.093 . S
Co649 O673 2.097 . S
Co649 N690 2.151 . S
Co649 N698 2.214 . S
Co650 O651 2.160 . S
Co650 O656 2.058 . S
Co650 O666 2.057 . S
Co650 O681 2.037 . S
Co650 N685 2.145 . S
Co650 N706 2.257 . S
O651 Co649 2.143 . S
O651 Co650 2.160 . S
C652 O653 1.278 . S
C652 O660 1.224 . S
O653 C652 1.278 . S
C654 O655 1.245 . S
C654 O666 1.232 . S
O655 C654 1.245 . S
O656 Co650 2.058 . S
O656 C682 1.269 . S
O657 Co649 2.074 . S
O657 C682 1.257 . S
H658 C683 0.930 . S
H659 C689 0.930 . S
O660 Co649 2.093 . S
O660 C652 1.224 . S
H661 C693 0.929 . S
H662 C695 0.930 . S
H663 C696 0.930 . S
H664 C694 0.929 . S
H665 C697 0.928 . S
O666 Co650 2.057 . S
O666 C654 1.232 . S
H667 C686 0.929 . S
H668 C687 0.929 . S
H669 C699 0.931 . S
H670 C691 0.929 . S
H671 C700 0.930 . S
H672 C692 0.931 . S
O673 Co649 2.097 . S
O673 C701 1.214 . S
H674 C702 0.929 . S
H675 C703 0.929 . S
H676 C704 0.930 . S
H677 C705 0.929 . S
H678 C707 0.930 . S
H679 C684 0.930 . S
H680 C688 0.930 . S
O681 Co650 2.037 . S
O681 C701 1.234 . S
C682 O656 1.269 . S
C682 O657 1.257 . S
C683 H658 0.930 . S
C683 C686 1.388 . S
C683 C688 1.418 . S
C684 H679 0.930 . S
C684 C687 1.404 . S
C684 C688 1.353 . S
N685 Co650 2.145 . S
N685 C686 1.397 . S
N685 C687 1.334 . S
C686 H667 0.929 . S
C686 C683 1.388 . S
C686 N685 1.397 . S
C687 H668 0.929 . S
C687 C684 1.404 . S
C687 N685 1.334 . S
C688 H680 0.930 . S
C688 C683 1.418 . S
C688 C684 1.353 . S
C689 H659 0.930 . S
C689 N690 1.330 . S
C689 C691 1.446 . S
N690 Co649 2.151 . S
N690 C689 1.330 . S
N690 C694 1.418 . S
C691 H670 0.929 . S
C691 C689 1.446 . S
C691 C692 1.332 . S
C692 H672 0.931 . S
C692 C691 1.332 . S
C692 C693 1.267 . S
C693 H661 0.929 . S
C693 C692 1.267 . S
C693 C694 1.251 . S
C694 H664 0.929 . S
C694 N690 1.418 . S
C694 C693 1.251 . S
C695 H662 0.930 . S
C695 C697 1.406 . S
C695 C700 1.261 . S
C696 H663 0.930 . S
C696 N698 1.325 . S
C696 C699 1.357 . S
C697 H665 0.928 . S
C697 C695 1.406 . S
C697 N698 1.261 . S
N698 Co649 2.214 . S
N698 C696 1.325 . S
N698 C697 1.261 . S
C699 H669 0.931 . S
C699 C696 1.357 . S
C699 C700 1.312 . S
C700 H671 0.930 . S
C700 C695 1.261 . S
C700 C699 1.312 . S
C701 O673 1.214 . S
C701 O681 1.234 . S
C702 H674 0.929 . S
C702 C705 1.391 . S
C702 C707 1.391 . S
C703 H675 0.929 . S
C703 C704 1.390 . S
C703 N706 1.391 . S
C704 H676 0.930 . S
C704 C703 1.390 . S
C704 C705 1.392 . S
C705 H677 0.929 . S
C705 C702 1.391 . S
C705 C704 1.392 . S
N706 Co650 2.257 . S
N706 C703 1.391 . S
N706 C707 1.388 . S
C707 H678 0.930 . S
C707 C702 1.391 . S
C707 N706 1.388 . S
Co708 O710 2.143 . S
Co708 O716 2.074 . S
Co708 O719 2.093 . S
Co708 O732 2.097 . S
Co708 N749 2.151 . S
Co708 N757 2.214 . S
Co709 O710 2.160 . S
Co709 O715 2.058 . S
Co709 O725 2.057 . S
Co709 O740 2.037 . S
Co709 N744 2.145 . S
Co709 N765 2.257 1_655 S
O710 Co708 2.143 . S
O710 Co709 2.160 . S
C711 O712 1.278 . S
C711 O719 1.224 . S
O712 C711 1.278 . S
C713 O714 1.245 . S
C713 O725 1.232 . S
O714 C713 1.245 . S
O715 Co709 2.058 . S
O715 C741 1.269 . S
O716 Co708 2.074 . S
O716 C741 1.257 . S
H717 C742 0.930 . S
H718 C748 0.930 . S
O719 Co708 2.093 . S
O719 C711 1.224 . S
H720 C752 0.929 . S
H721 C754 0.930 . S
H722 C755 0.930 . S
H723 C753 0.929 . S
H724 C756 0.928 . S
O725 Co709 2.057 . S
O725 C713 1.232 . S
H726 C745 0.929 . S
H727 C746 0.929 . S
H728 C758 0.931 . S
H729 C750 0.929 . S
H730 C759 0.930 . S
H731 C751 0.931 . S
O732 Co708 2.097 . S
O732 C760 1.214 . S
H733 C761 0.929 . S
H734 C762 0.929 . S
H735 C763 0.930 . S
H736 C764 0.929 . S
H737 C766 0.930 . S
H738 C743 0.930 . S
H739 C747 0.930 . S
O740 Co709 2.037 . S
O740 C760 1.234 . S
C741 O715 1.269 . S
C741 O716 1.257 . S
C742 H717 0.930 . S
C742 C745 1.388 . S
C742 C747 1.418 . S
C743 H738 0.930 . S
C743 C746 1.404 . S
C743 C747 1.353 . S
N744 Co709 2.145 . S
N744 C745 1.397 . S
N744 C746 1.334 . S
C745 H726 0.929 . S
C745 C742 1.388 . S
C745 N744 1.397 . S
C746 H727 0.929 . S
C746 C743 1.404 . S
C746 N744 1.334 . S
C747 H739 0.930 . S
C747 C742 1.418 . S
C747 C743 1.353 . S
C748 H718 0.930 . S
C748 N749 1.330 . S
C748 C750 1.446 . S
N749 Co708 2.151 . S
N749 C748 1.330 . S
N749 C753 1.418 . S
C750 H729 0.929 . S
C750 C748 1.446 . S
C750 C751 1.332 . S
C751 H731 0.931 . S
C751 C750 1.332 . S
C751 C752 1.267 . S
C752 H720 0.929 . S
C752 C751 1.267 . S
C752 C753 1.251 . S
C753 H723 0.929 . S
C753 N749 1.418 . S
C753 C752 1.251 . S
C754 H721 0.930 . S
C754 C756 1.406 . S
C754 C759 1.261 . S
C755 H722 0.930 . S
C755 N757 1.325 . S
C755 C758 1.357 . S
C756 H724 0.928 . S
C756 C754 1.406 . S
C756 N757 1.261 . S
N757 Co708 2.214 . S
N757 C755 1.325 . S
N757 C756 1.261 . S
C758 H728 0.931 . S
C758 C755 1.357 . S
C758 C759 1.312 . S
C759 H730 0.930 . S
C759 C754 1.261 . S
C759 C758 1.312 . S
C760 O732 1.214 . S
C760 O740 1.234 . S
C761 H733 0.929 . S
C761 C764 1.391 . S
C761 C766 1.391 . S
C762 H734 0.929 . S
C762 C763 1.390 . S
C762 N765 1.391 . S
C763 H735 0.930 . S
C763 C762 1.390 . S
C763 C764 1.392 . S
C764 H736 0.929 . S
C764 C761 1.391 . S
C764 C763 1.392 . S
N765 Co709 2.257 1_455 S
N765 C762 1.391 . S
N765 C766 1.388 . S
C766 H737 0.930 . S
C766 C761 1.391 . S
C766 N765 1.388 . S
Co767 O769 2.143 . S
Co767 O775 2.074 . S
Co767 O778 2.093 . S
Co767 O791 2.097 . S
Co767 N808 2.151 . S
Co767 N816 2.214 . S
Co768 O769 2.160 . S
Co768 O774 2.058 . S
Co768 O784 2.057 . S
Co768 O799 2.037 . S
Co768 N803 2.145 . S
Co768 N824 2.257 1_565 S
O769 Co767 2.143 . S
O769 Co768 2.160 . S
C770 O771 1.278 . S
C770 O778 1.224 . S
O771 C770 1.278 . S
C772 O773 1.245 . S
C772 O784 1.232 . S
O773 C772 1.245 . S
O774 Co768 2.058 . S
O774 C800 1.269 . S
O775 Co767 2.074 . S
O775 C800 1.257 . S
H776 C801 0.930 . S
H777 C807 0.930 . S
O778 Co767 2.093 . S
O778 C770 1.224 . S
H779 C811 0.929 . S
H780 C813 0.930 . S
H781 C814 0.930 . S
H782 C812 0.929 . S
H783 C815 0.928 . S
O784 Co768 2.057 . S
O784 C772 1.232 . S
H785 C804 0.929 . S
H786 C805 0.929 . S
H787 C817 0.931 . S
H788 C809 0.929 . S
H789 C818 0.930 . S
H790 C810 0.931 . S
O791 Co767 2.097 . S
O791 C819 1.214 . S
H792 C820 0.929 . S
H793 C821 0.929 . S
H794 C822 0.930 . S
H795 C823 0.929 . S
H796 C825 0.930 . S
H797 C802 0.930 . S
H798 C806 0.930 . S
O799 Co768 2.037 . S
O799 C819 1.234 . S
C800 O774 1.269 . S
C800 O775 1.257 . S
C801 H776 0.930 . S
C801 C804 1.388 . S
C801 C806 1.418 . S
C802 H797 0.930 . S
C802 C805 1.404 . S
C802 C806 1.353 . S
N803 Co768 2.145 . S
N803 C804 1.397 . S
N803 C805 1.334 . S
C804 H785 0.929 . S
C804 C801 1.388 . S
C804 N803 1.397 . S
C805 H786 0.929 . S
C805 C802 1.404 . S
C805 N803 1.334 . S
C806 H798 0.930 . S
C806 C801 1.418 . S
C806 C802 1.353 . S
C807 H777 0.930 . S
C807 N808 1.330 . S
C807 C809 1.446 . S
N808 Co767 2.151 . S
N808 C807 1.330 . S
N808 C812 1.418 . S
C809 H788 0.929 . S
C809 C807 1.446 . S
C809 C810 1.332 . S
C810 H790 0.931 . S
C810 C809 1.332 . S
C810 C811 1.267 . S
C811 H779 0.929 . S
C811 C810 1.267 . S
C811 C812 1.251 . S
C812 H782 0.929 . S
C812 N808 1.418 . S
C812 C811 1.251 . S
C813 H780 0.930 . S
C813 C815 1.406 . S
C813 C818 1.261 . S
C814 H781 0.930 . S
C814 N816 1.325 . S
C814 C817 1.357 . S
C815 H783 0.928 . S
C815 C813 1.406 . S
C815 N816 1.261 . S
N816 Co767 2.214 . S
N816 C814 1.325 . S
N816 C815 1.261 . S
C817 H787 0.931 . S
C817 C814 1.357 . S
C817 C818 1.312 . S
C818 H789 0.930 . S
C818 C813 1.261 . S
C818 C817 1.312 . S
C819 O791 1.214 . S
C819 O799 1.234 . S
C820 H792 0.929 . S
C820 C823 1.391 . S
C820 C825 1.391 . S
C821 H793 0.929 . S
C821 C822 1.390 . S
C821 N824 1.391 . S
C822 H794 0.930 . S
C822 C821 1.390 . S
C822 C823 1.392 . S
C823 H795 0.929 . S
C823 C820 1.391 . S
C823 C822 1.392 . S
N824 Co768 2.257 1_545 S
N824 C821 1.391 . S
N824 C825 1.388 . S
C825 H796 0.930 . S
C825 C820 1.391 . S
C825 N824 1.388 . S
Co826 O828 2.143 . S
Co826 O834 2.074 . S
Co826 O837 2.093 . S
Co826 O850 2.097 . S
Co826 N867 2.151 . S
Co826 N875 2.214 . S
Co827 O828 2.160 . S
Co827 O833 2.058 . S
Co827 O843 2.057 . S
Co827 O858 2.037 . S
Co827 N862 2.145 . S
Co827 N883 2.257 . S
O828 Co826 2.143 . S
O828 Co827 2.160 . S
C829 O830 1.278 . S
C829 O837 1.224 . S
O830 C829 1.278 . S
C831 O832 1.245 . S
C831 O843 1.232 . S
O832 C831 1.245 . S
O833 Co827 2.058 . S
O833 C859 1.269 . S
O834 Co826 2.074 . S
O834 C859 1.257 . S
H835 C860 0.930 . S
H836 C866 0.930 . S
O837 Co826 2.093 . S
O837 C829 1.224 . S
H838 C870 0.929 . S
H839 C872 0.930 . S
H840 C873 0.930 . S
H841 C871 0.929 . S
H842 C874 0.928 . S
O843 Co827 2.057 . S
O843 C831 1.232 . S
H844 C863 0.929 . S
H845 C864 0.929 . S
H846 C876 0.931 . S
H847 C868 0.929 . S
H848 C877 0.930 . S
H849 C869 0.931 . S
O850 Co826 2.097 . S
O850 C878 1.214 . S
H851 C879 0.929 . S
H852 C880 0.929 . S
H853 C881 0.930 . S
H854 C882 0.929 . S
H855 C884 0.930 . S
H856 C861 0.930 . S
H857 C865 0.930 . S
O858 Co827 2.037 . S
O858 C878 1.234 . S
C859 O833 1.269 . S
C859 O834 1.257 . S
C860 H835 0.930 . S
C860 C863 1.388 . S
C860 C865 1.418 . S
C861 H856 0.930 . S
C861 C864 1.404 . S
C861 C865 1.353 . S
N862 Co827 2.145 . S
N862 C863 1.397 . S
N862 C864 1.334 . S
C863 H844 0.929 . S
C863 C860 1.388 . S
C863 N862 1.397 . S
C864 H845 0.929 . S
C864 C861 1.404 . S
C864 N862 1.334 . S
C865 H857 0.930 . S
C865 C860 1.418 . S
C865 C861 1.353 . S
C866 H836 0.930 . S
C866 N867 1.330 . S
C866 C868 1.446 . S
N867 Co826 2.151 . S
N867 C866 1.330 . S
N867 C871 1.418 . S
C868 H847 0.929 . S
C868 C866 1.446 . S
C868 C869 1.332 . S
C869 H849 0.931 . S
C869 C868 1.332 . S
C869 C870 1.267 . S
C870 H838 0.929 . S
C870 C869 1.267 . S
C870 C871 1.251 . S
C871 H841 0.929 . S
C871 N867 1.418 . S
C871 C870 1.251 . S
C872 H839 0.930 . S
C872 C874 1.406 . S
C872 C877 1.261 . S
C873 H840 0.930 . S
C873 N875 1.325 . S
C873 C876 1.357 . S
C874 H842 0.928 . S
C874 C872 1.406 . S
C874 N875 1.261 . S
N875 Co826 2.214 . S
N875 C873 1.325 . S
N875 C874 1.261 . S
C876 H846 0.931 . S
C876 C873 1.357 . S
C876 C877 1.312 . S
C877 H848 0.930 . S
C877 C872 1.261 . S
C877 C876 1.312 . S
C878 O850 1.214 . S
C878 O858 1.234 . S
C879 H851 0.929 . S
C879 C882 1.391 . S
C879 C884 1.391 . S
C880 H852 0.929 . S
C880 C881 1.390 . S
C880 N883 1.391 . S
C881 H853 0.930 . S
C881 C880 1.390 . S
C881 C882 1.392 . S
C882 H854 0.929 . S
C882 C879 1.391 . S
C882 C881 1.392 . S
N883 Co827 2.257 . S
N883 C880 1.391 . S
N883 C884 1.388 . S
C884 H855 0.930 . S
C884 C879 1.391 . S
C884 N883 1.388 . S
Co885 O887 2.143 . S
Co885 O893 2.074 . S
Co885 O896 2.093 . S
Co885 O909 2.097 . S
Co885 N926 2.151 . S
Co885 N934 2.214 . S
Co886 O887 2.160 . S
Co886 O892 2.058 . S
Co886 O902 2.057 . S
Co886 O917 2.037 . S
Co886 N921 2.145 . S
Co886 N942 2.257 . S
O887 Co885 2.143 . S
O887 Co886 2.160 . S
C888 O889 1.278 . S
C888 O896 1.224 . S
O889 C888 1.278 . S
C890 O891 1.245 . S
C890 O902 1.232 . S
O891 C890 1.245 . S
O892 Co886 2.058 . S
O892 C918 1.269 . S
O893 Co885 2.074 . S
O893 C918 1.257 . S
H894 C919 0.930 . S
H895 C925 0.930 . S
O896 Co885 2.093 . S
O896 C888 1.224 . S
H897 C929 0.929 . S
H898 C931 0.930 . S
H899 C932 0.930 . S
H900 C930 0.929 . S
H901 C933 0.928 . S
O902 Co886 2.057 . S
O902 C890 1.232 . S
H903 C922 0.929 . S
H904 C923 0.929 . S
H905 C935 0.931 . S
H906 C927 0.929 . S
H907 C936 0.930 . S
H908 C928 0.931 . S
O909 Co885 2.097 . S
O909 C937 1.214 . S
H910 C938 0.929 . S
H911 C939 0.929 . S
H912 C940 0.930 . S
H913 C941 0.929 . S
H914 C943 0.930 . S
H915 C920 0.930 . S
H916 C924 0.930 . S
O917 Co886 2.037 . S
O917 C937 1.234 . S
C918 O892 1.269 . S
C918 O893 1.257 . S
C919 H894 0.930 . S
C919 C922 1.388 . S
C919 C924 1.418 . S
C920 H915 0.930 . S
C920 C923 1.404 . S
C920 C924 1.353 . S
N921 Co886 2.145 . S
N921 C922 1.397 . S
N921 C923 1.334 . S
C922 H903 0.929 . S
C922 C919 1.388 . S
C922 N921 1.397 . S
C923 H904 0.929 . S
C923 C920 1.404 . S
C923 N921 1.334 . S
C924 H916 0.930 . S
C924 C919 1.418 . S
C924 C920 1.353 . S
C925 H895 0.930 . S
C925 N926 1.330 . S
C925 C927 1.446 . S
N926 Co885 2.151 . S
N926 C925 1.330 . S
N926 C930 1.418 . S
C927 H906 0.929 . S
C927 C925 1.446 . S
C927 C928 1.332 . S
C928 H908 0.931 . S
C928 C927 1.332 . S
C928 C929 1.267 . S
C929 H897 0.929 . S
C929 C928 1.267 . S
C929 C930 1.251 . S
C930 H900 0.929 . S
C930 N926 1.418 . S
C930 C929 1.251 . S
C931 H898 0.930 . S
C931 C933 1.406 . S
C931 C936 1.261 . S
C932 H899 0.930 . S
C932 N934 1.325 . S
C932 C935 1.357 . S
C933 H901 0.928 . S
C933 C931 1.406 . S
C933 N934 1.261 . S
N934 Co885 2.214 . S
N934 C932 1.325 . S
N934 C933 1.261 . S
C935 H905 0.931 . S
C935 C932 1.357 . S
C935 C936 1.312 . S
C936 H907 0.930 . S
C936 C931 1.261 . S
C936 C935 1.312 . S
C937 O909 1.214 . S
C937 O917 1.234 . S
C938 H910 0.929 . S
C938 C941 1.391 . S
C938 C943 1.391 . S
C939 H911 0.929 . S
C939 C940 1.390 . S
C939 N942 1.391 . S
C940 H912 0.930 . S
C940 C939 1.390 . S
C940 C941 1.392 . S
C941 H913 0.929 . S
C941 C938 1.391 . S
C941 C940 1.392 . S
N942 Co886 2.257 . S
N942 C939 1.391 . S
N942 C943 1.388 . S
C943 H914 0.930 . S
C943 C938 1.391 . S
C943 N942 1.388 . S
H944 C962 0.951 . S
H945 C964 0.951 . S
H946 C966 0.950 . S
H947 C967 0.950 . S
H948 C969 0.950 . S
H949 C972 0.950 . S
H950 C973 0.950 . S
H951 C975 0.950 . S
H952 C976 0.950 . S
H953 C977 0.951 . S
H954 C979 0.951 . S
H955 C981 0.950 . S
H956 C982 0.950 . S
H957 C984 0.950 . S
H958 C987 0.950 . S
H959 C988 0.950 . S
H960 C990 0.950 . S
H961 C991 0.950 . S
C962 H944 0.951 . S
C962 C963 1.366 . S
C962 C964 1.388 . S
C963 C962 1.366 . S
C963 C967 1.385 . S
C964 H945 0.951 . S
C964 C962 1.388 . S
C964 C965 1.366 . S
C965 C964 1.366 . S
C965 C966 1.414 . S
C965 C968 1.499 . S
C966 H946 0.950 . S
C966 C965 1.414 . S
C966 C967 1.374 . S
C967 H947 0.950 . S
C967 C963 1.385 . S
C967 C966 1.374 . S
C968 C965 1.499 . S
C968 C969 1.373 . S
C968 C970 1.389 . S
C969 H948 0.950 . S
C969 C968 1.373 . S
C969 C985 1.377 . S
C970 C968 1.389 . S
C970 C971 1.524 . S
C970 C984 1.377 . S
C971 C970 1.524 . S
C971 C972 1.397 . S
C971 C976 1.363 . S
C972 H949 0.950 . S
C972 C971 1.397 . S
C972 C973 1.334 . S
C973 H950 0.950 . S
C973 C972 1.334 . S
C973 C974 1.287 . S
C974 C973 1.287 . S
C974 C975 1.524 . S
C974 H993 0.913 . S
C975 H951 0.950 . S
C975 C974 1.524 . S
C975 C976 1.415 . S
C976 H952 0.950 . S
C976 C971 1.363 . S
C976 C975 1.415 . S
C977 H953 0.951 . S
C977 C978 1.366 . S
C977 C979 1.388 . S
C978 C977 1.366 . S
C978 C982 1.385 . S
C979 H954 0.951 . S
C979 C977 1.388 . S
C979 C980 1.366 . S
C980 C979 1.366 . S
C980 C981 1.414 . S
C980 C983 1.499 . S
C981 H955 0.950 . S
C981 C980 1.414 . S
C981 C982 1.374 . S
C982 H956 0.950 . S
C982 C978 1.385 . S
C982 C981 1.374 . S
C983 C980 1.499 . S
C983 C984 1.373 . S
C983 C985 1.389 . S
C984 H957 0.950 . S
C984 C970 1.377 . S
C984 C983 1.373 . S
C985 C969 1.377 . S
C985 C983 1.389 . S
C985 C986 1.524 . S
C986 C985 1.524 . S
C986 C987 1.397 . S
C986 C991 1.363 . S
C987 H958 0.950 . S
C987 C986 1.397 . S
C987 C988 1.334 . S
C988 H959 0.950 . S
C988 C987 1.334 . S
C988 C989 1.287 . S
C989 C988 1.287 . S
C989 C990 1.524 . S
C989 H992 0.999 . S
C990 H960 0.950 . S
C990 C989 1.524 . S
C990 C991 1.415 . S
C991 H961 0.950 . S
C991 C986 1.363 . S
C991 C990 1.415 . S
H992 C989 0.999 . S
H993 C974 0.913 . S
H994 C1012 0.951 . S
H995 C1014 0.951 . S
H996 C1016 0.950 . S
H997 C1017 0.950 . S
H998 C1019 0.950 . S
H999 C1022 0.950 . S
H1000 C1023 0.950 . S
H1001 C1025 0.950 . S
H1002 C1026 0.950 . S
H1003 C1027 0.951 . S
H1004 C1029 0.951 . S
H1005 C1031 0.950 . S
H1006 C1032 0.950 . S
H1007 C1034 0.950 . S
H1008 C1037 0.950 . S
H1009 C1038 0.950 . S
H1010 C1040 0.950 . S
H1011 C1041 0.950 . S
C1012 H994 0.951 . S
C1012 C1013 1.366 . S
C1012 C1014 1.388 . S
C1013 C1012 1.366 . S
C1013 C1017 1.385 . S
C1014 H995 0.951 . S
C1014 C1012 1.388 . S
C1014 C1015 1.366 . S
C1015 C1014 1.366 . S
C1015 C1016 1.414 . S
C1015 C1018 1.499 . S
C1016 H996 0.950 . S
C1016 C1015 1.414 . S
C1016 C1017 1.374 . S
C1017 H997 0.950 . S
C1017 C1013 1.385 . S
C1017 C1016 1.374 . S
C1018 C1015 1.499 . S
C1018 C1019 1.373 . S
C1018 C1020 1.389 . S
C1019 H998 0.950 . S
C1019 C1018 1.373 . S
C1019 C1035 1.377 . S
C1020 C1018 1.389 . S
C1020 C1021 1.524 . S
C1020 C1034 1.377 . S
C1021 C1020 1.524 . S
C1021 C1022 1.397 . S
C1021 C1026 1.363 . S
C1022 H999 0.950 . S
C1022 C1021 1.397 . S
C1022 C1023 1.334 . S
C1023 H1000 0.950 . S
C1023 C1022 1.334 . S
C1023 C1024 1.287 . S
C1024 C1023 1.287 . S
C1024 C1025 1.524 . S
C1024 H1043 0.913 . S
C1025 H1001 0.950 . S
C1025 C1024 1.524 . S
C1025 C1026 1.415 . S
C1026 H1002 0.950 . S
C1026 C1021 1.363 . S
C1026 C1025 1.415 . S
C1027 H1003 0.951 . S
C1027 C1028 1.366 . S
C1027 C1029 1.388 . S
C1028 C1027 1.366 . S
C1028 C1032 1.385 . S
C1029 H1004 0.951 . S
C1029 C1027 1.388 . S
C1029 C1030 1.366 . S
C1030 C1029 1.366 . S
C1030 C1031 1.414 . S
C1030 C1033 1.499 . S
C1031 H1005 0.950 . S
C1031 C1030 1.414 . S
C1031 C1032 1.374 . S
C1032 H1006 0.950 . S
C1032 C1028 1.385 . S
C1032 C1031 1.374 . S
C1033 C1030 1.499 . S
C1033 C1034 1.373 . S
C1033 C1035 1.389 . S
C1034 H1007 0.950 . S
C1034 C1020 1.377 . S
C1034 C1033 1.373 . S
C1035 C1019 1.377 . S
C1035 C1033 1.389 . S
C1035 C1036 1.524 . S
C1036 C1035 1.524 . S
C1036 C1037 1.397 . S
C1036 C1041 1.363 . S
C1037 H1008 0.950 . S
C1037 C1036 1.397 . S
C1037 C1038 1.334 . S
C1038 H1009 0.950 . S
C1038 C1037 1.334 . S
C1038 C1039 1.287 . S
C1039 C1038 1.287 . S
C1039 C1040 1.524 . S
C1039 H1042 0.999 . S
C1040 H1010 0.950 . S
C1040 C1039 1.524 . S
C1040 C1041 1.415 . S
C1041 H1011 0.950 . S
C1041 C1036 1.363 . S
C1041 C1040 1.415 . S
H1042 C1039 0.999 . S
H1043 C1024 0.913 . S
H1044 C1062 0.951 . S
H1045 C1064 0.951 . S
H1046 C1066 0.950 . S
H1047 C1067 0.950 . S
H1048 C1069 0.950 . S
H1049 C1072 0.950 . S
H1050 C1073 0.950 . S
H1051 C1075 0.950 . S
H1052 C1076 0.950 . S
H1053 C1077 0.951 . S
H1054 C1079 0.951 . S
H1055 C1081 0.950 . S
H1056 C1082 0.950 . S
H1057 C1084 0.950 . S
H1058 C1087 0.950 . S
H1059 C1088 0.950 . S
H1060 C1090 0.950 . S
H1061 C1091 0.950 . S
C1062 H1044 0.951 . S
C1062 C1063 1.366 . S
C1062 C1064 1.388 . S
C1063 C1062 1.366 . S
C1063 C1067 1.385 . S
C1064 H1045 0.951 . S
C1064 C1062 1.388 . S
C1064 C1065 1.366 . S
C1065 C1064 1.366 . S
C1065 C1066 1.414 . S
C1065 C1068 1.499 . S
C1066 H1046 0.950 . S
C1066 C1065 1.414 . S
C1066 C1067 1.374 . S
C1067 H1047 0.950 . S
C1067 C1063 1.385 . S
C1067 C1066 1.374 . S
C1068 C1065 1.499 . S
C1068 C1069 1.373 . S
C1068 C1070 1.389 . S
C1069 H1048 0.950 . S
C1069 C1068 1.373 . S
C1069 C1085 1.377 . S
C1070 C1068 1.389 . S
C1070 C1071 1.524 . S
C1070 C1084 1.377 . S
C1071 C1070 1.524 . S
C1071 C1072 1.397 . S
C1071 C1076 1.363 . S
C1072 H1049 0.950 . S
C1072 C1071 1.397 . S
C1072 C1073 1.334 . S
C1073 H1050 0.950 . S
C1073 C1072 1.334 . S
C1073 C1074 1.287 . S
C1074 C1073 1.287 . S
C1074 C1075 1.524 . S
C1074 H1093 0.913 . S
C1075 H1051 0.950 . S
C1075 C1074 1.524 . S
C1075 C1076 1.415 . S
C1076 H1052 0.950 . S
C1076 C1071 1.363 . S
C1076 C1075 1.415 . S
C1077 H1053 0.951 . S
C1077 C1078 1.366 . S
C1077 C1079 1.388 . S
C1078 C1077 1.366 . S
C1078 C1082 1.385 . S
C1079 H1054 0.951 . S
C1079 C1077 1.388 . S
C1079 C1080 1.366 . S
C1080 C1079 1.366 . S
C1080 C1081 1.414 . S
C1080 C1083 1.499 . S
C1081 H1055 0.950 . S
C1081 C1080 1.414 . S
C1081 C1082 1.374 . S
C1082 H1056 0.950 . S
C1082 C1078 1.385 . S
C1082 C1081 1.374 . S
C1083 C1080 1.499 . S
C1083 C1084 1.373 . S
C1083 C1085 1.389 . S
C1084 H1057 0.950 . S
C1084 C1070 1.377 . S
C1084 C1083 1.373 . S
C1085 C1069 1.377 . S
C1085 C1083 1.389 . S
C1085 C1086 1.524 . S
C1086 C1085 1.524 . S
C1086 C1087 1.397 . S
C1086 C1091 1.363 . S
C1087 H1058 0.950 . S
C1087 C1086 1.397 . S
C1087 C1088 1.334 . S
C1088 H1059 0.950 . S
C1088 C1087 1.334 . S
C1088 C1089 1.287 . S
C1089 C1088 1.287 . S
C1089 C1090 1.524 . S
C1089 H1092 0.999 . S
C1090 H1060 0.950 . S
C1090 C1089 1.524 . S
C1090 C1091 1.415 . S
C1091 H1061 0.950 . S
C1091 C1086 1.363 . S
C1091 C1090 1.415 . S
H1092 C1089 0.999 . S
H1093 C1074 0.913 . S
H1094 C1112 0.951 . S
H1095 C1114 0.951 . S
H1096 C1116 0.950 . S
H1097 C1117 0.950 . S
H1098 C1119 0.950 . S
H1099 C1122 0.950 . S
H1100 C1123 0.950 . S
H1101 C1125 0.950 . S
H1102 C1126 0.950 . S
H1103 C1127 0.951 . S
H1104 C1129 0.951 . S
H1105 C1131 0.950 . S
H1106 C1132 0.950 . S
H1107 C1134 0.950 . S
H1108 C1137 0.950 . S
H1109 C1138 0.950 . S
H1110 C1140 0.950 . S
H1111 C1141 0.950 . S
C1112 H1094 0.951 . S
C1112 C1113 1.366 . S
C1112 C1114 1.388 . S
C1113 C1112 1.366 . S
C1113 C1117 1.385 . S
C1114 H1095 0.951 . S
C1114 C1112 1.388 . S
C1114 C1115 1.366 . S
C1115 C1114 1.366 . S
C1115 C1116 1.414 . S
C1115 C1118 1.499 . S
C1116 H1096 0.950 . S
C1116 C1115 1.414 . S
C1116 C1117 1.374 . S
C1117 H1097 0.950 . S
C1117 C1113 1.385 . S
C1117 C1116 1.374 . S
C1118 C1115 1.499 . S
C1118 C1119 1.373 . S
C1118 C1120 1.389 . S
C1119 H1098 0.950 . S
C1119 C1118 1.373 . S
C1119 C1135 1.377 . S
C1120 C1118 1.389 . S
C1120 C1121 1.524 . S
C1120 C1134 1.377 . S
C1121 C1120 1.524 . S
C1121 C1122 1.397 . S
C1121 C1126 1.363 . S
C1122 H1099 0.950 . S
C1122 C1121 1.397 . S
C1122 C1123 1.334 . S
C1123 H1100 0.950 . S
C1123 C1122 1.334 . S
C1123 C1124 1.287 . S
C1124 C1123 1.287 . S
C1124 C1125 1.524 . S
C1124 H1143 0.913 . S
C1125 H1101 0.950 . S
C1125 C1124 1.524 . S
C1125 C1126 1.415 . S
C1126 H1102 0.950 . S
C1126 C1121 1.363 . S
C1126 C1125 1.415 . S
C1127 H1103 0.951 . S
C1127 C1128 1.366 . S
C1127 C1129 1.388 . S
C1128 C1127 1.366 . S
C1128 C1132 1.385 . S
C1129 H1104 0.951 . S
C1129 C1127 1.388 . S
C1129 C1130 1.366 . S
C1130 C1129 1.366 . S
C1130 C1131 1.414 . S
C1130 C1133 1.499 . S
C1131 H1105 0.950 . S
C1131 C1130 1.414 . S
C1131 C1132 1.374 . S
C1132 H1106 0.950 . S
C1132 C1128 1.385 . S
C1132 C1131 1.374 . S
C1133 C1130 1.499 . S
C1133 C1134 1.373 . S
C1133 C1135 1.389 . S
C1134 H1107 0.950 . S
C1134 C1120 1.377 . S
C1134 C1133 1.373 . S
C1135 C1119 1.377 . S
C1135 C1133 1.389 . S
C1135 C1136 1.524 . S
C1136 C1135 1.524 . S
C1136 C1137 1.397 . S
C1136 C1141 1.363 . S
C1137 H1108 0.950 . S
C1137 C1136 1.397 . S
C1137 C1138 1.334 . S
C1138 H1109 0.950 . S
C1138 C1137 1.334 . S
C1138 C1139 1.287 . S
C1139 C1138 1.287 . S
C1139 C1140 1.524 . S
C1139 H1142 0.999 . S
C1140 H1110 0.950 . S
C1140 C1139 1.524 . S
C1140 C1141 1.415 . S
C1141 H1111 0.950 . S
C1141 C1136 1.363 . S
C1141 C1140 1.415 . S
H1142 C1139 0.999 . S
H1143 C1124 0.913 . S
H1144 C1162 0.951 . S
H1145 C1164 0.951 . S
H1146 C1166 0.950 . S
H1147 C1167 0.950 . S
H1148 C1169 0.950 . S
H1149 C1172 0.950 . S
H1150 C1173 0.950 . S
H1151 C1175 0.950 . S
H1152 C1176 0.950 . S
H1153 C1177 0.951 . S
H1154 C1179 0.951 . S
H1155 C1181 0.950 . S
H1156 C1182 0.950 . S
H1157 C1184 0.950 . S
H1158 C1187 0.950 . S
H1159 C1188 0.950 . S
H1160 C1190 0.950 . S
H1161 C1191 0.950 . S
C1162 H1144 0.951 . S
C1162 C1163 1.366 . S
C1162 C1164 1.388 . S
C1163 C1162 1.366 . S
C1163 C1167 1.385 . S
C1164 H1145 0.951 . S
C1164 C1162 1.388 . S
C1164 C1165 1.366 . S
C1165 C1164 1.366 . S
C1165 C1166 1.414 . S
C1165 C1168 1.499 . S
C1166 H1146 0.950 . S
C1166 C1165 1.414 . S
C1166 C1167 1.374 . S
C1167 H1147 0.950 . S
C1167 C1163 1.385 . S
C1167 C1166 1.374 . S
C1168 C1165 1.499 . S
C1168 C1169 1.373 . S
C1168 C1170 1.389 . S
C1169 H1148 0.950 . S
C1169 C1168 1.373 . S
C1169 C1185 1.377 . S
C1170 C1168 1.389 . S
C1170 C1171 1.524 . S
C1170 C1184 1.377 . S
C1171 C1170 1.524 . S
C1171 C1172 1.397 . S
C1171 C1176 1.363 . S
C1172 H1149 0.950 . S
C1172 C1171 1.397 . S
C1172 C1173 1.334 . S
C1173 H1150 0.950 . S
C1173 C1172 1.334 . S
C1173 C1174 1.287 . S
C1174 C1173 1.287 . S
C1174 C1175 1.524 . S
C1174 H1193 0.913 . S
C1175 H1151 0.950 . S
C1175 C1174 1.524 . S
C1175 C1176 1.415 . S
C1176 H1152 0.950 . S
C1176 C1171 1.363 . S
C1176 C1175 1.415 . S
C1177 H1153 0.951 . S
C1177 C1178 1.366 . S
C1177 C1179 1.388 . S
C1178 C1177 1.366 . S
C1178 C1182 1.385 . S
C1179 H1154 0.951 . S
C1179 C1177 1.388 . S
C1179 C1180 1.366 . S
C1180 C1179 1.366 . S
C1180 C1181 1.414 . S
C1180 C1183 1.499 . S
C1181 H1155 0.950 . S
C1181 C1180 1.414 . S
C1181 C1182 1.374 . S
C1182 H1156 0.950 . S
C1182 C1178 1.385 . S
C1182 C1181 1.374 . S
C1183 C1180 1.499 . S
C1183 C1184 1.373 . S
C1183 C1185 1.389 . S
C1184 H1157 0.950 . S
C1184 C1170 1.377 . S
C1184 C1183 1.373 . S
C1185 C1169 1.377 . S
C1185 C1183 1.389 . S
C1185 C1186 1.524 . S
C1186 C1185 1.524 . S
C1186 C1187 1.397 . S
C1186 C1191 1.363 . S
C1187 H1158 0.950 . S
C1187 C1186 1.397 . S
C1187 C1188 1.334 . S
C1188 H1159 0.950 . S
C1188 C1187 1.334 . S
C1188 C1189 1.287 . S
C1189 C1188 1.287 . S
C1189 C1190 1.524 . S
C1189 H1192 0.999 . S
C1190 H1160 0.950 . S
C1190 C1189 1.524 . S
C1190 C1191 1.415 . S
C1191 H1161 0.950 . S
C1191 C1186 1.363 . S
C1191 C1190 1.415 . S
H1192 C1189 0.999 . S
H1193 C1174 0.913 . S
H1194 C1212 0.951 . S
H1195 C1214 0.951 . S
H1196 C1216 0.950 . S
H1197 C1217 0.950 . S
H1198 C1219 0.950 . S
H1199 C1222 0.950 . S
H1200 C1223 0.950 . S
H1201 C1225 0.950 . S
H1202 C1226 0.950 . S
H1203 C1227 0.951 . S
H1204 C1229 0.951 . S
H1205 C1231 0.950 . S
H1206 C1232 0.950 . S
H1207 C1234 0.950 . S
H1208 C1237 0.950 . S
H1209 C1238 0.950 . S
H1210 C1240 0.950 . S
H1211 C1241 0.950 . S
C1212 H1194 0.951 . S
C1212 C1213 1.366 . S
C1212 C1214 1.388 . S
C1213 C1212 1.366 . S
C1213 C1217 1.385 . S
C1214 H1195 0.951 . S
C1214 C1212 1.388 . S
C1214 C1215 1.366 . S
C1215 C1214 1.366 . S
C1215 C1216 1.414 . S
C1215 C1218 1.499 . S
C1216 H1196 0.950 . S
C1216 C1215 1.414 . S
C1216 C1217 1.374 . S
C1217 H1197 0.950 . S
C1217 C1213 1.385 . S
C1217 C1216 1.374 . S
C1218 C1215 1.499 . S
C1218 C1219 1.373 . S
C1218 C1220 1.389 . S
C1219 H1198 0.950 . S
C1219 C1218 1.373 . S
C1219 C1235 1.377 . S
C1220 C1218 1.389 . S
C1220 C1221 1.524 . S
C1220 C1234 1.377 . S
C1221 C1220 1.524 . S
C1221 C1222 1.397 . S
C1221 C1226 1.363 . S
C1222 H1199 0.950 . S
C1222 C1221 1.397 . S
C1222 C1223 1.334 . S
C1223 H1200 0.950 . S
C1223 C1222 1.334 . S
C1223 C1224 1.287 . S
C1224 C1223 1.287 . S
C1224 C1225 1.524 . S
C1224 H1243 0.913 . S
C1225 H1201 0.950 . S
C1225 C1224 1.524 . S
C1225 C1226 1.415 . S
C1226 H1202 0.950 . S
C1226 C1221 1.363 . S
C1226 C1225 1.415 . S
C1227 H1203 0.951 . S
C1227 C1228 1.366 . S
C1227 C1229 1.388 . S
C1228 C1227 1.366 . S
C1228 C1232 1.385 . S
C1229 H1204 0.951 . S
C1229 C1227 1.388 . S
C1229 C1230 1.366 . S
C1230 C1229 1.366 . S
C1230 C1231 1.414 . S
C1230 C1233 1.499 . S
C1231 H1205 0.950 . S
C1231 C1230 1.414 . S
C1231 C1232 1.374 . S
C1232 H1206 0.950 . S
C1232 C1228 1.385 . S
C1232 C1231 1.374 . S
C1233 C1230 1.499 . S
C1233 C1234 1.373 . S
C1233 C1235 1.389 . S
C1234 H1207 0.950 . S
C1234 C1220 1.377 . S
C1234 C1233 1.373 . S
C1235 C1219 1.377 . S
C1235 C1233 1.389 . S
C1235 C1236 1.524 . S
C1236 C1235 1.524 . S
C1236 C1237 1.397 . S
C1236 C1241 1.363 . S
C1237 H1208 0.950 . S
C1237 C1236 1.397 . S
C1237 C1238 1.334 . S
C1238 H1209 0.950 . S
C1238 C1237 1.334 . S
C1238 C1239 1.287 . S
C1239 C1238 1.287 . S
C1239 C1240 1.524 . S
C1239 H1242 0.999 . S
C1240 H1210 0.950 . S
C1240 C1239 1.524 . S
C1240 C1241 1.415 . S
C1241 H1211 0.950 . S
C1241 C1236 1.363 . S
C1241 C1240 1.415 . S
H1242 C1239 0.999 . S
H1243 C1224 0.913 . S
H1244 C1262 0.951 . S
H1245 C1264 0.951 . S
H1246 C1266 0.950 . S
H1247 C1267 0.950 . S
H1248 C1269 0.950 . S
H1249 C1272 0.950 . S
H1250 C1273 0.950 . S
H1251 C1275 0.950 . S
H1252 C1276 0.950 . S
H1253 C1277 0.951 . S
H1254 C1279 0.951 . S
H1255 C1281 0.950 . S
H1256 C1282 0.950 . S
H1257 C1284 0.950 . S
H1258 C1287 0.950 . S
H1259 C1288 0.950 . S
H1260 C1290 0.950 . S
H1261 C1291 0.950 . S
C1262 H1244 0.951 . S
C1262 C1263 1.366 . S
C1262 C1264 1.388 . S
C1263 C1262 1.366 . S
C1263 C1267 1.385 . S
C1264 H1245 0.951 . S
C1264 C1262 1.388 . S
C1264 C1265 1.366 . S
C1265 C1264 1.366 . S
C1265 C1266 1.414 . S
C1265 C1268 1.499 . S
C1266 H1246 0.950 . S
C1266 C1265 1.414 . S
C1266 C1267 1.374 . S
C1267 H1247 0.950 . S
C1267 C1263 1.385 . S
C1267 C1266 1.374 . S
C1268 C1265 1.499 . S
C1268 C1269 1.373 . S
C1268 C1270 1.389 . S
C1269 H1248 0.950 . S
C1269 C1268 1.373 . S
C1269 C1285 1.377 . S
C1270 C1268 1.389 . S
C1270 C1271 1.524 . S
C1270 C1284 1.377 . S
C1271 C1270 1.524 . S
C1271 C1272 1.397 . S
C1271 C1276 1.363 . S
C1272 H1249 0.950 . S
C1272 C1271 1.397 . S
C1272 C1273 1.334 . S
C1273 H1250 0.950 . S
C1273 C1272 1.334 . S
C1273 C1274 1.287 . S
C1274 C1273 1.287 . S
C1274 C1275 1.524 . S
C1274 H1293 0.913 . S
C1275 H1251 0.950 . S
C1275 C1274 1.524 . S
C1275 C1276 1.415 . S
C1276 H1252 0.950 . S
C1276 C1271 1.363 . S
C1276 C1275 1.415 . S
C1277 H1253 0.951 . S
C1277 C1278 1.366 . S
C1277 C1279 1.388 . S
C1278 C1277 1.366 . S
C1278 C1282 1.385 . S
C1279 H1254 0.951 . S
C1279 C1277 1.388 . S
C1279 C1280 1.366 . S
C1280 C1279 1.366 . S
C1280 C1281 1.414 . S
C1280 C1283 1.499 . S
C1281 H1255 0.950 . S
C1281 C1280 1.414 . S
C1281 C1282 1.374 . S
C1282 H1256 0.950 . S
C1282 C1278 1.385 . S
C1282 C1281 1.374 . S
C1283 C1280 1.499 . S
C1283 C1284 1.373 . S
C1283 C1285 1.389 . S
C1284 H1257 0.950 . S
C1284 C1270 1.377 . S
C1284 C1283 1.373 . S
C1285 C1269 1.377 . S
C1285 C1283 1.389 . S
C1285 C1286 1.524 . S
C1286 C1285 1.524 . S
C1286 C1287 1.397 . S
C1286 C1291 1.363 . S
C1287 H1258 0.950 . S
C1287 C1286 1.397 . S
C1287 C1288 1.334 . S
C1288 H1259 0.950 . S
C1288 C1287 1.334 . S
C1288 C1289 1.287 . S
C1289 C1288 1.287 . S
C1289 C1290 1.524 . S
C1289 H1292 0.999 . S
C1290 H1260 0.950 . S
C1290 C1289 1.524 . S
C1290 C1291 1.415 . S
C1291 H1261 0.950 . S
C1291 C1286 1.363 . S
C1291 C1290 1.415 . S
H1292 C1289 0.999 . S
H1293 C1274 0.913 . S
H1294 C1312 0.951 . S
H1295 C1314 0.951 . S
H1296 C1316 0.950 . S
H1297 C1317 0.950 . S
H1298 C1319 0.950 . S
H1299 C1322 0.950 . S
H1300 C1323 0.950 . S
H1301 C1325 0.950 . S
H1302 C1326 0.950 . S
H1303 C1327 0.951 . S
H1304 C1329 0.951 . S
H1305 C1331 0.950 . S
H1306 C1332 0.950 . S
H1307 C1334 0.950 . S
H1308 C1337 0.950 . S
H1309 C1338 0.950 . S
H1310 C1340 0.950 . S
H1311 C1341 0.950 . S
C1312 H1294 0.951 . S
C1312 C1313 1.366 . S
C1312 C1314 1.388 . S
C1313 C1312 1.366 . S
C1313 C1317 1.385 . S
C1314 H1295 0.951 . S
C1314 C1312 1.388 . S
C1314 C1315 1.366 . S
C1315 C1314 1.366 . S
C1315 C1316 1.414 . S
C1315 C1318 1.499 . S
C1316 H1296 0.950 . S
C1316 C1315 1.414 . S
C1316 C1317 1.374 . S
C1317 H1297 0.950 . S
C1317 C1313 1.385 . S
C1317 C1316 1.374 . S
C1318 C1315 1.499 . S
C1318 C1319 1.373 . S
C1318 C1320 1.389 . S
C1319 H1298 0.950 . S
C1319 C1318 1.373 . S
C1319 C1335 1.377 . S
C1320 C1318 1.389 . S
C1320 C1321 1.524 . S
C1320 C1334 1.377 . S
C1321 C1320 1.524 . S
C1321 C1322 1.397 . S
C1321 C1326 1.363 . S
C1322 H1299 0.950 . S
C1322 C1321 1.397 . S
C1322 C1323 1.334 . S
C1323 H1300 0.950 . S
C1323 C1322 1.334 . S
C1323 C1324 1.287 . S
C1324 C1323 1.287 . S
C1324 C1325 1.524 . S
C1324 H1343 0.913 . S
C1325 H1301 0.950 . S
C1325 C1324 1.524 . S
C1325 C1326 1.415 . S
C1326 H1302 0.950 . S
C1326 C1321 1.363 . S
C1326 C1325 1.415 . S
C1327 H1303 0.951 . S
C1327 C1328 1.366 . S
C1327 C1329 1.388 . S
C1328 C1327 1.366 . S
C1328 C1332 1.385 . S
C1329 H1304 0.951 . S
C1329 C1327 1.388 . S
C1329 C1330 1.366 . S
C1330 C1329 1.366 . S
C1330 C1331 1.414 . S
C1330 C1333 1.499 . S
C1331 H1305 0.950 . S
C1331 C1330 1.414 . S
C1331 C1332 1.374 . S
C1332 H1306 0.950 . S
C1332 C1328 1.385 . S
C1332 C1331 1.374 . S
C1333 C1330 1.499 . S
C1333 C1334 1.373 . S
C1333 C1335 1.389 . S
C1334 H1307 0.950 . S
C1334 C1320 1.377 . S
C1334 C1333 1.373 . S
C1335 C1319 1.377 . S
C1335 C1333 1.389 . S
C1335 C1336 1.524 . S
C1336 C1335 1.524 . S
C1336 C1337 1.397 . S
C1336 C1341 1.363 . S
C1337 H1308 0.950 . S
C1337 C1336 1.397 . S
C1337 C1338 1.334 . S
C1338 H1309 0.950 . S
C1338 C1337 1.334 . S
C1338 C1339 1.287 . S
C1339 C1338 1.287 . S
C1339 C1340 1.524 . S
C1339 H1342 0.999 . S
C1340 H1310 0.950 . S
C1340 C1339 1.524 . S
C1340 C1341 1.415 . S
C1341 H1311 0.950 . S
C1341 C1336 1.363 . S
C1341 C1340 1.415 . S
H1342 C1339 0.999 . S
H1343 C1324 0.913 . S
H1344 C1362 0.951 . S
H1345 C1364 0.951 . S
H1346 C1366 0.950 . S
H1347 C1367 0.950 . S
H1348 C1369 0.950 . S
H1349 C1372 0.950 . S
H1350 C1373 0.950 . S
H1351 C1375 0.950 . S
H1352 C1376 0.950 . S
H1353 C1377 0.951 . S
H1354 C1379 0.951 . S
H1355 C1381 0.950 . S
H1356 C1382 0.950 . S
H1357 C1384 0.950 . S
H1358 C1387 0.950 . S
H1359 C1388 0.950 . S
H1360 C1390 0.950 1_455 S
H1361 C1391 0.941 1_455 S
C1362 H1344 0.951 . S
C1362 C1363 1.366 . S
C1362 C1364 1.388 . S
C1363 C1362 1.366 . S
C1363 C1367 1.385 . S
C1364 H1345 0.951 . S
C1364 C1362 1.388 . S
C1364 C1365 1.366 . S
C1365 C1364 1.366 . S
C1365 C1366 1.414 . S
C1365 C1368 1.499 . S
C1366 H1346 0.950 . S
C1366 C1365 1.414 . S
C1366 C1367 1.374 . S
C1367 H1347 0.950 . S
C1367 C1363 1.385 . S
C1367 C1366 1.374 . S
C1368 C1365 1.499 . S
C1368 C1369 1.373 . S
C1368 C1370 1.389 . S
C1369 H1348 0.950 . S
C1369 C1368 1.373 . S
C1369 C1385 1.377 . S
C1370 C1368 1.389 . S
C1370 C1371 1.524 . S
C1370 C1384 1.377 . S
C1371 C1370 1.524 . S
C1371 C1372 1.397 . S
C1371 C1376 1.363 . S
C1372 H1349 0.950 . S
C1372 C1371 1.397 . S
C1372 C1373 1.334 . S
C1373 H1350 0.950 . S
C1373 C1372 1.334 . S
C1373 C1374 1.287 . S
C1374 C1373 1.287 . S
C1374 C1375 1.524 . S
C1374 H1393 0.913 . S
C1375 H1351 0.950 . S
C1375 C1374 1.524 . S
C1375 C1376 1.415 . S
C1376 H1352 0.950 . S
C1376 C1371 1.363 . S
C1376 C1375 1.415 . S
C1377 H1353 0.951 . S
C1377 C1378 1.366 . S
C1377 C1379 1.388 . S
C1378 C1377 1.366 . S
C1378 C1382 1.385 1_455 S
C1379 H1354 0.951 . S
C1379 C1377 1.388 . S
C1379 C1380 1.366 1_455 S
C1380 C1379 1.366 1_655 S
C1380 C1381 1.414 . S
C1380 C1383 1.499 . S
C1381 H1355 0.950 . S
C1381 C1380 1.414 . S
C1381 C1382 1.374 . S
C1382 H1356 0.950 . S
C1382 C1378 1.385 1_655 S
C1382 C1381 1.374 . S
C1383 C1380 1.499 . S
C1383 C1384 1.373 . S
C1383 C1385 1.389 . S
C1384 H1357 0.950 . S
C1384 C1370 1.377 . S
C1384 C1383 1.373 . S
C1385 C1369 1.377 . S
C1385 C1383 1.389 . S
C1385 C1386 1.524 . S
C1386 C1385 1.524 . S
C1386 C1387 1.397 . S
C1386 C1391 1.363 . S
C1387 H1358 0.950 . S
C1387 C1386 1.397 . S
C1387 C1388 1.334 . S
C1388 H1359 0.950 . S
C1388 C1387 1.334 . S
C1388 C1389 1.287 . S
C1389 C1388 1.287 . S
C1389 C1390 1.524 . S
C1389 H1392 0.999 . S
C1390 H1360 0.950 1_655 S
C1390 C1389 1.524 . S
C1390 C1391 1.415 . S
C1391 H1361 0.941 1_655 S
C1391 C1386 1.363 . S
C1391 C1390 1.415 . S
H1392 C1389 0.999 . S
H1393 C1374 0.913 . S
H1394 C1412 0.951 . S
H1395 C1414 0.951 . S
H1396 C1416 0.950 . S
H1397 C1417 0.950 . S
H1398 C1419 0.950 . S
H1399 C1422 0.950 1_655 S
H1400 C1423 0.950 . S
H1401 C1425 0.950 . S
H1402 C1426 0.950 . S
H1403 C1427 0.951 . S
H1404 C1429 0.951 . S
H1405 C1431 0.950 . S
H1406 C1432 0.950 . S
H1407 C1434 0.950 1_455 S
H1408 C1437 0.950 . S
H1409 C1438 0.950 . S
H1410 C1440 0.950 . S
H1411 C1441 0.950 . S
C1412 H1394 0.951 . S
C1412 C1413 1.366 . S
C1412 C1414 1.388 . S
C1413 C1412 1.366 . S
C1413 C1417 1.385 1_545 S
C1414 H1395 0.951 . S
C1414 C1412 1.388 . S
C1414 C1415 1.366 1_545 S
C1415 C1414 1.366 1_565 S
C1415 C1416 1.414 . S
C1415 C1418 1.499 . S
C1416 H1396 0.950 . S
C1416 C1415 1.414 . S
C1416 C1417 1.374 . S
C1417 H1397 0.950 . S
C1417 C1413 1.385 1_565 S
C1417 C1416 1.374 . S
C1418 C1415 1.499 . S
C1418 C1419 1.373 . S
C1418 C1420 1.389 . S
C1419 H1398 0.950 . S
C1419 C1418 1.373 . S
C1419 C1435 1.377 . S
C1420 C1418 1.389 . S
C1420 C1421 1.524 1_655 S
C1420 C1434 1.377 . S
C1421 C1420 1.524 1_455 S
C1421 C1422 1.397 . S
C1421 C1426 1.363 1_565 S
C1422 H1399 0.950 1_455 S
C1422 C1421 1.397 . S
C1422 C1423 1.334 . S
C1423 H1400 0.950 . S
C1423 C1422 1.334 . S
C1423 C1424 1.291 . S
C1424 C1423 1.291 . S
C1424 C1425 1.521 1_565 S
C1424 H1443 0.911 1_565 S
C1425 H1401 0.950 . S
C1425 C1424 1.521 1_545 S
C1425 C1426 1.415 . S
C1426 H1402 0.950 . S
C1426 C1421 1.363 1_545 S
C1426 C1425 1.415 . S
C1427 H1403 0.951 . S
C1427 C1428 1.366 1_655 S
C1427 C1429 1.388 . S
C1428 C1427 1.366 1_455 S
C1428 C1432 1.385 . S
C1429 H1404 0.951 . S
C1429 C1427 1.388 . S
C1429 C1430 1.366 . S
C1430 C1429 1.366 . S
C1430 C1431 1.414 1_655 S
C1430 C1433 1.499 . S
C1431 H1405 0.950 . S
C1431 C1430 1.414 1_455 S
C1431 C1432 1.374 . S
C1432 H1406 0.950 . S
C1432 C1428 1.385 . S
C1432 C1431 1.374 . S
C1433 C1430 1.499 . S
C1433 C1434 1.373 . S
C1433 C1435 1.389 . S
C1434 H1407 0.950 1_655 S
C1434 C1420 1.377 . S
C1434 C1433 1.373 . S
C1435 C1419 1.377 . S
C1435 C1433 1.389 . S
C1435 C1436 1.524 . S
C1436 C1435 1.524 . S
C1436 C1437 1.397 . S
C1436 C1441 1.363 . S
C1437 H1408 0.950 . S
C1437 C1436 1.397 . S
C1437 C1438 1.334 . S
C1438 H1409 0.950 . S
C1438 C1437 1.334 . S
C1438 C1439 1.287 . S
C1439 C1438 1.287 . S
C1439 C1440 1.524 . S
C1439 H1442 0.999 . S
C1440 H1410 0.950 . S
C1440 C1439 1.524 . S
C1440 C1441 1.415 . S
C1441 H1411 0.950 . S
C1441 C1436 1.363 . S
C1441 C1440 1.415 . S
H1442 C1439 0.999 . S
H1443 C1424 0.911 1_545 S
H1444 C1462 0.951 . S
H1445 C1464 0.951 . S
H1446 C1466 0.950 . S
H1447 C1467 0.949 1_565 S
H1448 C1469 0.950 . S
H1449 C1472 0.950 . S
H1450 C1473 0.950 . S
H1451 C1475 0.950 . S
H1452 C1476 0.950 . S
H1453 C1477 0.951 . S
H1454 C1479 0.951 . S
H1455 C1481 0.950 . S
H1456 C1482 0.950 . S
H1457 C1484 0.950 . S
H1458 C1487 0.950 . S
H1459 C1488 0.950 . S
H1460 C1490 0.950 . S
H1461 C1491 0.950 . S
C1462 H1444 0.951 . S
C1462 C1463 1.366 . S
C1462 C1464 1.388 . S
C1463 C1462 1.366 . S
C1463 C1467 1.385 . S
C1464 H1445 0.951 . S
C1464 C1462 1.388 . S
C1464 C1465 1.366 1_545 S
C1465 C1464 1.366 1_565 S
C1465 C1466 1.414 . S
C1465 C1468 1.499 . S
C1466 H1446 0.950 . S
C1466 C1465 1.414 . S
C1466 C1467 1.374 1_565 S
C1467 H1447 0.949 1_545 S
C1467 C1463 1.385 . S
C1467 C1466 1.374 1_545 S
C1468 C1465 1.499 . S
C1468 C1469 1.373 . S
C1468 C1470 1.389 . S
C1469 H1448 0.950 . S
C1469 C1468 1.373 . S
C1469 C1485 1.377 . S
C1470 C1468 1.389 . S
C1470 C1471 1.524 1_565 S
C1470 C1484 1.377 . S
C1471 C1470 1.524 1_545 S
C1471 C1472 1.397 . S
C1471 C1476 1.363 . S
C1472 H1449 0.950 . S
C1472 C1471 1.397 . S
C1472 C1473 1.334 . S
C1473 H1450 0.950 . S
C1473 C1472 1.334 . S
C1473 C1474 1.287 . S
C1474 C1473 1.287 . S
C1474 C1475 1.524 . S
C1474 H1493 0.913 . S
C1475 H1451 0.950 . S
C1475 C1474 1.524 . S
C1475 C1476 1.415 . S
C1476 H1452 0.950 . S
C1476 C1471 1.363 . S
C1476 C1475 1.415 . S
C1477 H1453 0.951 . S
C1477 C1478 1.366 . S
C1477 C1479 1.388 . S
C1478 C1477 1.366 . S
C1478 C1482 1.385 . S
C1479 H1454 0.951 . S
C1479 C1477 1.388 . S
C1479 C1480 1.366 . S
C1480 C1479 1.366 . S
C1480 C1481 1.414 . S
C1480 C1483 1.499 . S
C1481 H1455 0.950 . S
C1481 C1480 1.414 . S
C1481 C1482 1.374 . S
C1482 H1456 0.950 . S
C1482 C1478 1.385 . S
C1482 C1481 1.374 . S
C1483 C1480 1.499 . S
C1483 C1484 1.373 . S
C1483 C1485 1.389 . S
C1484 H1457 0.950 . S
C1484 C1470 1.377 . S
C1484 C1483 1.373 . S
C1485 C1469 1.377 . S
C1485 C1483 1.389 . S
C1485 C1486 1.524 . S
C1486 C1485 1.524 . S
C1486 C1487 1.397 . S
C1486 C1491 1.363 . S
C1487 H1458 0.950 . S
C1487 C1486 1.397 . S
C1487 C1488 1.334 . S
C1488 H1459 0.950 . S
C1488 C1487 1.334 . S
C1488 C1489 1.287 . S
C1489 C1488 1.287 . S
C1489 C1490 1.524 . S
C1489 H1492 0.999 . S
C1490 H1460 0.950 . S
C1490 C1489 1.524 . S
C1490 C1491 1.415 . S
C1491 H1461 0.950 . S
C1491 C1486 1.363 . S
C1491 C1490 1.415 . S
H1492 C1489 0.999 . S
H1493 C1474 0.913 . S
H1494 C1512 0.951 . S
H1495 C1514 0.951 . S
H1496 C1516 0.950 . S
H1497 C1517 0.950 . S
H1498 C1519 0.950 . S
H1499 C1522 0.950 . S
H1500 C1523 0.950 . S
H1501 C1525 0.950 . S
H1502 C1526 0.950 . S
H1503 C1527 0.951 . S
H1504 C1529 0.951 . S
H1505 C1531 0.950 . S
H1506 C1532 0.950 . S
H1507 C1534 0.950 . S
H1508 C1537 0.950 . S
H1509 C1538 0.950 . S
H1510 C1540 0.950 . S
H1511 C1541 0.950 . S
C1512 H1494 0.951 . S
C1512 C1513 1.366 . S
C1512 C1514 1.388 . S
C1513 C1512 1.366 . S
C1513 C1517 1.385 . S
C1514 H1495 0.951 . S
C1514 C1512 1.388 . S
C1514 C1515 1.366 . S
C1515 C1514 1.366 . S
C1515 C1516 1.414 . S
C1515 C1518 1.499 . S
C1516 H1496 0.950 . S
C1516 C1515 1.414 . S
C1516 C1517 1.374 . S
C1517 H1497 0.950 . S
C1517 C1513 1.385 . S
C1517 C1516 1.374 . S
C1518 C1515 1.499 . S
C1518 C1519 1.373 . S
C1518 C1520 1.389 . S
C1519 H1498 0.950 . S
C1519 C1518 1.373 . S
C1519 C1535 1.377 . S
C1520 C1518 1.389 . S
C1520 C1521 1.524 . S
C1520 C1534 1.377 . S
C1521 C1520 1.524 . S
C1521 C1522 1.397 . S
C1521 C1526 1.363 . S
C1522 H1499 0.950 . S
C1522 C1521 1.397 . S
C1522 C1523 1.334 . S
C1523 H1500 0.950 . S
C1523 C1522 1.334 . S
C1523 C1524 1.287 . S
C1524 C1523 1.287 . S
C1524 C1525 1.524 . S
C1524 H1543 0.913 . S
C1525 H1501 0.950 . S
C1525 C1524 1.524 . S
C1525 C1526 1.415 . S
C1526 H1502 0.950 . S
C1526 C1521 1.363 . S
C1526 C1525 1.415 . S
C1527 H1503 0.951 . S
C1527 C1528 1.366 . S
C1527 C1529 1.388 . S
C1528 C1527 1.366 . S
C1528 C1532 1.385 . S
C1529 H1504 0.951 . S
C1529 C1527 1.388 . S
C1529 C1530 1.366 . S
C1530 C1529 1.366 . S
C1530 C1531 1.414 . S
C1530 C1533 1.499 . S
C1531 H1505 0.950 . S
C1531 C1530 1.414 . S
C1531 C1532 1.374 . S
C1532 H1506 0.950 . S
C1532 C1528 1.385 . S
C1532 C1531 1.374 . S
C1533 C1530 1.499 . S
C1533 C1534 1.373 . S
C1533 C1535 1.389 . S
C1534 H1507 0.950 . S
C1534 C1520 1.377 . S
C1534 C1533 1.373 . S
C1535 C1519 1.377 . S
C1535 C1533 1.389 . S
C1535 C1536 1.524 . S
C1536 C1535 1.524 . S
C1536 C1537 1.397 . S
C1536 C1541 1.363 . S
C1537 H1508 0.950 . S
C1537 C1536 1.397 . S
C1537 C1538 1.334 . S
C1538 H1509 0.950 . S
C1538 C1537 1.334 . S
C1538 C1539 1.287 . S
C1539 C1538 1.287 . S
C1539 C1540 1.524 . S
C1539 H1542 0.999 . S
C1540 H1510 0.950 . S
C1540 C1539 1.524 . S
C1540 C1541 1.415 . S
C1541 H1511 0.950 . S
C1541 C1536 1.363 . S
C1541 C1540 1.415 . S
H1542 C1539 0.999 . S
H1543 C1524 0.913 . S
H1544 C1562 0.951 . S
H1545 C1564 0.951 . S
H1546 C1566 0.950 . S
H1547 C1567 0.950 . S
H1548 C1569 0.950 . S
H1549 C1572 0.950 . S
H1550 C1573 0.950 . S
H1551 C1575 0.950 . S
H1552 C1576 0.950 . S
H1553 C1577 0.951 . S
H1554 C1579 0.951 . S
H1555 C1581 0.950 . S
H1556 C1582 0.950 . S
H1557 C1584 0.950 . S
H1558 C1587 0.950 . S
H1559 C1588 0.950 . S
H1560 C1590 0.950 . S
H1561 C1591 0.950 . S
C1562 H1544 0.951 . S
C1562 C1563 1.366 . S
C1562 C1564 1.388 . S
C1563 C1562 1.366 . S
C1563 C1567 1.385 . S
C1564 H1545 0.951 . S
C1564 C1562 1.388 . S
C1564 C1565 1.366 . S
C1565 C1564 1.366 . S
C1565 C1566 1.414 . S
C1565 C1568 1.499 . S
C1566 H1546 0.950 . S
C1566 C1565 1.414 . S
C1566 C1567 1.374 . S
C1567 H1547 0.950 . S
C1567 C1563 1.385 . S
C1567 C1566 1.374 . S
C1568 C1565 1.499 . S
C1568 C1569 1.373 . S
C1568 C1570 1.389 . S
C1569 H1548 0.950 . S
C1569 C1568 1.373 . S
C1569 C1585 1.377 . S
C1570 C1568 1.389 . S
C1570 C1571 1.524 . S
C1570 C1584 1.377 . S
C1571 C1570 1.524 . S
C1571 C1572 1.397 . S
C1571 C1576 1.363 . S
C1572 H1549 0.950 . S
C1572 C1571 1.397 . S
C1572 C1573 1.334 . S
C1573 H1550 0.950 . S
C1573 C1572 1.334 . S
C1573 C1574 1.287 . S
C1574 C1573 1.287 . S
C1574 C1575 1.524 . S
C1574 H1593 0.913 . S
C1575 H1551 0.950 . S
C1575 C1574 1.524 . S
C1575 C1576 1.415 . S
C1576 H1552 0.950 . S
C1576 C1571 1.363 . S
C1576 C1575 1.415 . S
C1577 H1553 0.951 . S
C1577 C1578 1.366 . S
C1577 C1579 1.388 . S
C1578 C1577 1.366 . S
C1578 C1582 1.385 . S
C1579 H1554 0.951 . S
C1579 C1577 1.388 . S
C1579 C1580 1.366 1_655 S
C1580 C1579 1.366 1_455 S
C1580 C1581 1.414 . S
C1580 C1583 1.499 . S
C1581 H1555 0.950 . S
C1581 C1580 1.414 . S
C1581 C1582 1.374 1_455 S
C1582 H1556 0.950 . S
C1582 C1578 1.385 . S
C1582 C1581 1.374 1_655 S
C1583 C1580 1.499 . S
C1583 C1584 1.373 . S
C1583 C1585 1.389 . S
C1584 H1557 0.950 . S
C1584 C1570 1.377 . S
C1584 C1583 1.373 . S
C1585 C1569 1.377 . S
C1585 C1583 1.389 . S
C1585 C1586 1.524 1_455 S
C1586 C1585 1.524 1_655 S
C1586 C1587 1.397 . S
C1586 C1591 1.363 . S
C1587 H1558 0.950 . S
C1587 C1586 1.397 . S
C1587 C1588 1.334 . S
C1588 H1559 0.950 . S
C1588 C1587 1.334 . S
C1588 C1589 1.287 . S
C1589 C1588 1.287 . S
C1589 C1590 1.524 . S
C1589 H1592 0.999 . S
C1590 H1560 0.950 . S
C1590 C1589 1.524 . S
C1590 C1591 1.415 . S
C1591 H1561 0.950 . S
C1591 C1586 1.363 . S
C1591 C1590 1.415 . S
H1592 C1589 0.999 . S
H1593 C1574 0.913 . S
H1594 C1612 0.951 . S
H1595 C1614 0.951 . S
H1596 C1616 0.950 . S
H1597 C1617 0.950 . S
H1598 C1619 0.950 . S
H1599 C1622 0.950 1_565 S
H1600 C1623 0.965 . S
H1601 C1625 0.950 . S
H1602 C1626 0.950 1_455 S
H1603 C1627 0.951 . S
H1604 C1629 0.951 . S
H1605 C1631 0.950 . S
H1606 C1632 0.950 . S
H1607 C1634 0.950 1_655 S
H1608 C1637 0.950 . S
H1609 C1638 0.950 . S
H1610 C1640 0.950 . S
H1611 C1641 0.950 1_565 S
C1612 H1594 0.951 . S
C1612 C1613 1.366 1_545 S
C1612 C1614 1.388 . S
C1613 C1612 1.366 1_565 S
C1613 C1617 1.385 . S
C1614 H1595 0.951 . S
C1614 C1612 1.388 . S
C1614 C1615 1.366 . S
C1615 C1614 1.366 . S
C1615 C1616 1.414 1_545 S
C1615 C1618 1.499 . S
C1616 H1596 0.950 . S
C1616 C1615 1.414 1_565 S
C1616 C1617 1.374 . S
C1617 H1597 0.950 . S
C1617 C1613 1.385 . S
C1617 C1616 1.374 . S
C1618 C1615 1.499 . S
C1618 C1619 1.373 . S
C1618 C1620 1.389 . S
C1619 H1598 0.950 . S
C1619 C1618 1.373 . S
C1619 C1635 1.377 . S
C1620 C1618 1.389 . S
C1620 C1621 1.524 . S
C1620 C1634 1.377 . S
C1621 C1620 1.524 . S
C1621 C1622 1.397 1_455 S
C1621 C1626 1.363 1_455 S
C1622 H1599 0.950 1_545 S
C1622 C1621 1.397 1_655 S
C1622 C1623 1.334 . S
C1623 H1600 0.965 . S
C1623 C1622 1.334 . S
C1623 C1624 1.287 . S
C1624 C1623 1.287 . S
C1624 C1625 1.524 . S
C1624 H1643 0.913 . S
C1625 H1601 0.950 . S
C1625 C1624 1.524 . S
C1625 C1626 1.415 . S
C1626 H1602 0.950 1_655 S
C1626 C1621 1.363 1_655 S
C1626 C1625 1.415 . S
C1627 H1603 0.951 . S
C1627 C1628 1.366 . S
C1627 C1629 1.388 1_655 S
C1628 C1627 1.366 . S
C1628 C1632 1.385 . S
C1629 H1604 0.951 . S
C1629 C1627 1.388 1_455 S
C1629 C1630 1.366 . S
C1630 C1629 1.366 . S
C1630 C1631 1.414 . S
C1630 C1633 1.499 . S
C1631 H1605 0.950 . S
C1631 C1630 1.414 . S
C1631 C1632 1.374 1_455 S
C1632 H1606 0.950 . S
C1632 C1628 1.385 . S
C1632 C1631 1.374 1_655 S
C1633 C1630 1.499 . S
C1633 C1634 1.373 . S
C1633 C1635 1.389 . S
C1634 H1607 0.950 1_455 S
C1634 C1620 1.377 . S
C1634 C1633 1.373 . S
C1635 C1619 1.377 . S
C1635 C1633 1.389 . S
C1635 C1636 1.524 . S
C1636 C1635 1.524 . S
C1636 C1637 1.397 . S
C1636 C1641 1.363 . S
C1637 H1608 0.950 . S
C1637 C1636 1.397 . S
C1637 C1638 1.334 . S
C1638 H1609 0.950 . S
C1638 C1637 1.334 . S
C1638 C1639 1.287 . S
C1639 C1638 1.287 . S
C1639 C1640 1.524 1_545 S
C1639 H1642 0.999 . S
C1640 H1610 0.950 . S
C1640 C1639 1.524 1_565 S
C1640 C1641 1.415 1_565 S
C1641 H1611 0.950 1_545 S
C1641 C1636 1.363 . S
C1641 C1640 1.415 1_545 S
H1642 C1639 0.999 . S
H1643 C1624 0.913 . S
H1644 C1662 0.951 . S
H1645 C1664 0.951 . S
H1646 C1666 0.950 . S
H1647 C1667 0.950 . S
H1648 C1669 0.950 . S
H1649 C1672 0.950 1_545 S
H1650 C1673 0.950 . S
H1651 C1675 0.950 . S
H1652 C1676 0.950 . S
H1653 C1677 0.951 . S
H1654 C1679 0.951 . S
H1655 C1681 0.950 . S
H1656 C1682 0.950 . S
H1657 C1684 0.950 1_565 S
H1658 C1687 0.950 . S
H1659 C1688 0.950 . S
H1660 C1690 0.950 . S
H1661 C1691 0.950 . S
C1662 H1644 0.951 . S
C1662 C1663 1.366 . S
C1662 C1664 1.388 . S
C1663 C1662 1.366 . S
C1663 C1667 1.385 . S
C1664 H1645 0.951 . S
C1664 C1662 1.388 . S
C1664 C1665 1.366 . S
C1665 C1664 1.366 . S
C1665 C1666 1.414 . S
C1665 C1668 1.499 . S
C1666 H1646 0.950 . S
C1666 C1665 1.414 . S
C1666 C1667 1.374 . S
C1667 H1647 0.950 . S
C1667 C1663 1.385 . S
C1667 C1666 1.374 . S
C1668 C1665 1.499 . S
C1668 C1669 1.373 . S
C1668 C1670 1.389 . S
C1669 H1648 0.950 . S
C1669 C1668 1.373 . S
C1669 C1685 1.377 . S
C1670 C1668 1.389 . S
C1670 C1671 1.524 1_545 S
C1670 C1684 1.377 . S
C1671 C1670 1.524 1_565 S
C1671 C1672 1.397 . S
C1671 C1676 1.363 . S
C1672 H1649 0.950 1_565 S
C1672 C1671 1.397 . S
C1672 C1673 1.334 . S
C1673 H1650 0.950 . S
C1673 C1672 1.334 . S
C1673 C1674 1.287 . S
C1674 C1673 1.287 . S
C1674 C1675 1.524 . S
C1674 H1693 0.913 . S
C1675 H1651 0.950 . S
C1675 C1674 1.524 . S
C1675 C1676 1.415 . S
C1676 H1652 0.950 . S
C1676 C1671 1.363 . S
C1676 C1675 1.415 . S
C1677 H1653 0.951 . S
C1677 C1678 1.366 1_545 S
C1677 C1679 1.388 . S
C1678 C1677 1.366 1_565 S
C1678 C1682 1.385 . S
C1679 H1654 0.951 . S
C1679 C1677 1.388 . S
C1679 C1680 1.366 . S
C1680 C1679 1.366 . S
C1680 C1681 1.414 1_545 S
C1680 C1683 1.499 . S
C1681 H1655 0.950 . S
C1681 C1680 1.414 1_565 S
C1681 C1682 1.374 . S
C1682 H1656 0.950 . S
C1682 C1678 1.385 . S
C1682 C1681 1.374 . S
C1683 C1680 1.499 . S
C1683 C1684 1.373 . S
C1683 C1685 1.389 . S
C1684 H1657 0.950 1_545 S
C1684 C1670 1.377 . S
C1684 C1683 1.373 . S
C1685 C1669 1.377 . S
C1685 C1683 1.389 . S
C1685 C1686 1.524 . S
C1686 C1685 1.524 . S
C1686 C1687 1.397 . S
C1686 C1691 1.363 . S
C1687 H1658 0.950 . S
C1687 C1686 1.397 . S
C1687 C1688 1.334 . S
C1688 H1659 0.950 . S
C1688 C1687 1.334 . S
C1688 C1689 1.287 . S
C1689 C1688 1.287 . S
C1689 C1690 1.524 . S
C1689 H1692 0.999 . S
C1690 H1660 0.950 . S
C1690 C1689 1.524 . S
C1690 C1691 1.415 . S
C1691 H1661 0.950 . S
C1691 C1686 1.363 . S
C1691 C1690 1.415 . S
H1692 C1689 0.999 . S
H1693 C1674 0.913 . S
H1694 C1712 0.951 . S
H1695 C1714 0.951 . S
H1696 C1716 0.950 . S
H1697 C1717 0.950 . S
H1698 C1719 0.950 . S
H1699 C1722 0.950 . S
H1700 C1723 0.950 . S
H1701 C1725 0.950 . S
H1702 C1726 0.950 . S
H1703 C1727 0.951 . S
H1704 C1729 0.951 . S
H1705 C1731 0.950 . S
H1706 C1732 0.950 . S
H1707 C1734 0.950 . S
H1708 C1737 0.950 . S
H1709 C1738 0.950 . S
H1710 C1740 0.950 . S
H1711 C1741 0.950 . S
C1712 H1694 0.951 . S
C1712 C1713 1.366 . S
C1712 C1714 1.388 . S
C1713 C1712 1.366 . S
C1713 C1717 1.385 . S
C1714 H1695 0.951 . S
C1714 C1712 1.388 . S
C1714 C1715 1.366 . S
C1715 C1714 1.366 . S
C1715 C1716 1.414 . S
C1715 C1718 1.499 . S
C1716 H1696 0.950 . S
C1716 C1715 1.414 . S
C1716 C1717 1.374 . S
C1717 H1697 0.950 . S
C1717 C1713 1.385 . S
C1717 C1716 1.374 . S
C1718 C1715 1.499 . S
C1718 C1719 1.373 . S
C1718 C1720 1.389 . S
C1719 H1698 0.950 . S
C1719 C1718 1.373 . S
C1719 C1735 1.377 . S
C1720 C1718 1.389 . S
C1720 C1721 1.524 . S
C1720 C1734 1.377 . S
C1721 C1720 1.524 . S
C1721 C1722 1.397 . S
C1721 C1726 1.363 . S
C1722 H1699 0.950 . S
C1722 C1721 1.397 . S
C1722 C1723 1.334 . S
C1723 H1700 0.950 . S
C1723 C1722 1.334 . S
C1723 C1724 1.287 . S
C1724 C1723 1.287 . S
C1724 C1725 1.524 . S
C1724 H1743 0.913 . S
C1725 H1701 0.950 . S
C1725 C1724 1.524 . S
C1725 C1726 1.415 . S
C1726 H1702 0.950 . S
C1726 C1721 1.363 . S
C1726 C1725 1.415 . S
C1727 H1703 0.951 . S
C1727 C1728 1.366 . S
C1727 C1729 1.388 . S
C1728 C1727 1.366 . S
C1728 C1732 1.385 . S
C1729 H1704 0.951 . S
C1729 C1727 1.388 . S
C1729 C1730 1.366 . S
C1730 C1729 1.366 . S
C1730 C1731 1.414 . S
C1730 C1733 1.499 . S
C1731 H1705 0.950 . S
C1731 C1730 1.414 . S
C1731 C1732 1.374 . S
C1732 H1706 0.950 . S
C1732 C1728 1.385 . S
C1732 C1731 1.374 . S
C1733 C1730 1.499 . S
C1733 C1734 1.373 . S
C1733 C1735 1.389 . S
C1734 H1707 0.950 . S
C1734 C1720 1.377 . S
C1734 C1733 1.373 . S
C1735 C1719 1.377 . S
C1735 C1733 1.389 . S
C1735 C1736 1.524 . S
C1736 C1735 1.524 . S
C1736 C1737 1.397 . S
C1736 C1741 1.363 . S
C1737 H1708 0.950 . S
C1737 C1736 1.397 . S
C1737 C1738 1.334 . S
C1738 H1709 0.950 . S
C1738 C1737 1.334 . S
C1738 C1739 1.287 . S
C1739 C1738 1.287 . S
C1739 C1740 1.524 . S
C1739 H1742 0.999 . S
C1740 H1710 0.950 . S
C1740 C1739 1.524 . S
C1740 C1741 1.415 . S
C1741 H1711 0.950 . S
C1741 C1736 1.363 . S
C1741 C1740 1.415 . S
H1742 C1739 0.999 . S
H1743 C1724 0.913 . S
H1744 C1762 0.951 . S
H1745 C1764 0.951 . S
H1746 C1766 0.950 . S
H1747 C1767 0.950 . S
H1748 C1769 0.950 . S
H1749 C1772 0.950 . S
H1750 C1773 0.950 . S
H1751 C1775 0.950 . S
H1752 C1776 0.950 . S
H1753 C1777 0.951 . S
H1754 C1779 0.951 . S
H1755 C1781 0.950 . S
H1756 C1782 0.950 . S
H1757 C1784 0.950 . S
H1758 C1787 0.950 . S
H1759 C1788 0.950 . S
H1760 C1790 0.950 . S
H1761 C1791 0.950 . S
C1762 H1744 0.951 . S
C1762 C1763 1.366 . S
C1762 C1764 1.388 . S
C1763 C1762 1.366 . S
C1763 C1767 1.385 . S
C1764 H1745 0.951 . S
C1764 C1762 1.388 . S
C1764 C1765 1.366 . S
C1765 C1764 1.366 . S
C1765 C1766 1.414 . S
C1765 C1768 1.499 . S
C1766 H1746 0.950 . S
C1766 C1765 1.414 . S
C1766 C1767 1.374 . S
C1767 H1747 0.950 . S
C1767 C1763 1.385 . S
C1767 C1766 1.374 . S
C1768 C1765 1.499 . S
C1768 C1769 1.373 . S
C1768 C1770 1.389 . S
C1769 H1748 0.950 . S
C1769 C1768 1.373 . S
C1769 C1785 1.377 . S
C1770 C1768 1.389 . S
C1770 C1771 1.524 . S
C1770 C1784 1.377 . S
C1771 C1770 1.524 . S
C1771 C1772 1.397 1_455 S
C1771 C1776 1.363 . S
C1772 H1749 0.950 . S
C1772 C1771 1.397 1_655 S
C1772 C1773 1.334 . S
C1773 H1750 0.950 . S
C1773 C1772 1.334 . S
C1773 C1774 1.287 . S
C1774 C1773 1.287 . S
C1774 C1775 1.524 . S
C1774 H1793 0.913 . S
C1775 H1751 0.950 . S
C1775 C1774 1.524 . S
C1775 C1776 1.415 1_655 S
C1776 H1752 0.950 . S
C1776 C1771 1.363 . S
C1776 C1775 1.415 1_455 S
C1777 H1753 0.951 . S
C1777 C1778 1.366 . S
C1777 C1779 1.388 . S
C1778 C1777 1.366 . S
C1778 C1782 1.385 . S
C1779 H1754 0.951 . S
C1779 C1777 1.388 . S
C1779 C1780 1.366 . S
C1780 C1779 1.366 . S
C1780 C1781 1.414 . S
C1780 C1783 1.499 . S
C1781 H1755 0.950 . S
C1781 C1780 1.414 . S
C1781 C1782 1.374 . S
C1782 H1756 0.950 . S
C1782 C1778 1.385 . S
C1782 C1781 1.374 . S
C1783 C1780 1.499 . S
C1783 C1784 1.373 . S
C1783 C1785 1.389 . S
C1784 H1757 0.950 . S
C1784 C1770 1.377 . S
C1784 C1783 1.373 . S
C1785 C1769 1.377 . S
C1785 C1783 1.389 . S
C1785 C1786 1.524 . S
C1786 C1785 1.524 . S
C1786 C1787 1.397 . S
C1786 C1791 1.363 . S
C1787 H1758 0.950 . S
C1787 C1786 1.397 . S
C1787 C1788 1.334 . S
C1788 H1759 0.950 . S
C1788 C1787 1.334 . S
C1788 C1789 1.287 . S
C1789 C1788 1.287 . S
C1789 C1790 1.524 . S
C1789 H1792 0.999 . S
C1790 H1760 0.950 . S
C1790 C1789 1.524 . S
C1790 C1791 1.415 . S
C1791 H1761 0.950 . S
C1791 C1786 1.363 . S
C1791 C1790 1.415 . S
H1792 C1789 0.999 . S
H1793 C1774 0.913 . S
H1794 C1812 0.951 . S
H1795 C1814 0.951 . S
H1796 C1816 0.950 . S
H1797 C1817 0.950 . S
H1798 C1819 0.950 . S
H1799 C1822 0.950 . S
H1800 C1823 0.950 . S
H1801 C1825 0.950 . S
H1802 C1826 0.950 1_545 S
H1803 C1827 0.951 . S
H1804 C1829 0.951 . S
H1805 C1831 0.950 . S
H1806 C1832 0.950 . S
H1807 C1834 0.950 . S
H1808 C1837 0.950 . S
H1809 C1838 0.950 . S
H1810 C1840 0.950 . S
H1811 C1841 0.950 . S
C1812 H1794 0.951 . S
C1812 C1813 1.366 . S
C1812 C1814 1.388 . S
C1813 C1812 1.366 . S
C1813 C1817 1.385 . S
C1814 H1795 0.951 . S
C1814 C1812 1.388 . S
C1814 C1815 1.366 . S
C1815 C1814 1.366 . S
C1815 C1816 1.414 . S
C1815 C1818 1.499 . S
C1816 H1796 0.950 . S
C1816 C1815 1.414 . S
C1816 C1817 1.374 . S
C1817 H1797 0.950 . S
C1817 C1813 1.385 . S
C1817 C1816 1.374 . S
C1818 C1815 1.499 . S
C1818 C1819 1.373 . S
C1818 C1820 1.389 . S
C1819 H1798 0.950 . S
C1819 C1818 1.373 . S
C1819 C1835 1.377 . S
C1820 C1818 1.389 . S
C1820 C1821 1.538 . S
C1820 C1834 1.377 . S
C1821 C1820 1.538 . S
C1821 C1822 1.386 1_545 S
C1821 C1826 1.359 1_545 S
C1822 H1799 0.950 . S
C1822 C1821 1.386 1_565 S
C1822 C1823 1.334 . S
C1823 H1800 0.950 . S
C1823 C1822 1.334 . S
C1823 C1824 1.287 . S
C1824 C1823 1.287 . S
C1824 C1825 1.524 . S
C1824 H1843 0.913 . S
C1825 H1801 0.950 . S
C1825 C1824 1.524 . S
C1825 C1826 1.415 . S
C1826 H1802 0.950 1_565 S
C1826 C1821 1.359 1_565 S
C1826 C1825 1.415 . S
C1827 H1803 0.951 . S
C1827 C1828 1.366 . S
C1827 C1829 1.388 . S
C1828 C1827 1.366 . S
C1828 C1832 1.385 . S
C1829 H1804 0.951 . S
C1829 C1827 1.388 . S
C1829 C1830 1.366 . S
C1830 C1829 1.366 . S
C1830 C1831 1.414 . S
C1830 C1833 1.499 . S
C1831 H1805 0.950 . S
C1831 C1830 1.414 . S
C1831 C1832 1.374 . S
C1832 H1806 0.950 . S
C1832 C1828 1.385 . S
C1832 C1831 1.374 . S
C1833 C1830 1.499 . S
C1833 C1834 1.373 . S
C1833 C1835 1.389 . S
C1834 H1807 0.950 . S
C1834 C1820 1.377 . S
C1834 C1833 1.373 . S
C1835 C1819 1.377 . S
C1835 C1833 1.389 . S
C1835 C1836 1.524 . S
C1836 C1835 1.524 . S
C1836 C1837 1.397 . S
C1836 C1841 1.363 . S
C1837 H1808 0.950 . S
C1837 C1836 1.397 . S
C1837 C1838 1.334 . S
C1838 H1809 0.950 . S
C1838 C1837 1.334 . S
C1838 C1839 1.287 . S
C1839 C1838 1.287 . S
C1839 C1840 1.524 . S
C1839 H1842 0.999 . S
C1840 H1810 0.950 . S
C1840 C1839 1.524 . S
C1840 C1841 1.415 . S
C1841 H1811 0.950 . S
C1841 C1836 1.363 . S
C1841 C1840 1.415 . S
H1842 C1839 0.999 . S
H1843 C1824 0.913 . S
H1844 C1862 0.951 . S
H1845 C1864 0.951 . S
H1846 C1866 0.950 . S
H1847 C1867 0.950 . S
H1848 C1869 0.950 . S
H1849 C1872 0.950 . S
H1850 C1873 0.950 . S
H1851 C1875 0.950 . S
H1852 C1876 0.950 . S
H1853 C1877 0.951 . S
H1854 C1879 0.951 . S
H1855 C1881 0.950 . S
H1856 C1882 0.950 . S
H1857 C1884 0.950 . S
H1858 C1887 0.950 . S
H1859 C1888 0.950 . S
H1860 C1890 0.950 . S
H1861 C1891 0.950 . S
C1862 H1844 0.951 . S
C1862 C1863 1.366 . S
C1862 C1864 1.388 . S
C1863 C1862 1.366 . S
C1863 C1867 1.385 . S
C1864 H1845 0.951 . S
C1864 C1862 1.388 . S
C1864 C1865 1.366 . S
C1865 C1864 1.366 . S
C1865 C1866 1.414 . S
C1865 C1868 1.499 . S
C1866 H1846 0.950 . S
C1866 C1865 1.414 . S
C1866 C1867 1.374 . S
C1867 H1847 0.950 . S
C1867 C1863 1.385 . S
C1867 C1866 1.374 . S
C1868 C1865 1.499 . S
C1868 C1869 1.373 . S
C1868 C1870 1.389 . S
C1869 H1848 0.950 . S
C1869 C1868 1.373 . S
C1869 C1885 1.377 . S
C1870 C1868 1.389 . S
C1870 C1871 1.524 . S
C1870 C1884 1.377 . S
C1871 C1870 1.524 . S
C1871 C1872 1.397 . S
C1871 C1876 1.363 . S
C1872 H1849 0.950 . S
C1872 C1871 1.397 . S
C1872 C1873 1.334 . S
C1873 H1850 0.950 . S
C1873 C1872 1.334 . S
C1873 C1874 1.287 . S
C1874 C1873 1.287 . S
C1874 C1875 1.524 . S
C1874 H1893 0.913 . S
C1875 H1851 0.950 . S
C1875 C1874 1.524 . S
C1875 C1876 1.415 . S
C1876 H1852 0.950 . S
C1876 C1871 1.363 . S
C1876 C1875 1.415 . S
C1877 H1853 0.951 . S
C1877 C1878 1.366 . S
C1877 C1879 1.388 . S
C1878 C1877 1.366 . S
C1878 C1882 1.385 . S
C1879 H1854 0.951 . S
C1879 C1877 1.388 . S
C1879 C1880 1.366 . S
C1880 C1879 1.366 . S
C1880 C1881 1.414 . S
C1880 C1883 1.499 . S
C1881 H1855 0.950 . S
C1881 C1880 1.414 . S
C1881 C1882 1.374 . S
C1882 H1856 0.950 . S
C1882 C1878 1.385 . S
C1882 C1881 1.374 . S
C1883 C1880 1.499 . S
C1883 C1884 1.373 . S
C1883 C1885 1.389 . S
C1884 H1857 0.950 . S
C1884 C1870 1.377 . S
C1884 C1883 1.373 . S
C1885 C1869 1.377 . S
C1885 C1883 1.389 . S
C1885 C1886 1.524 . S
C1886 C1885 1.524 . S
C1886 C1887 1.397 . S
C1886 C1891 1.363 . S
C1887 H1858 0.950 . S
C1887 C1886 1.397 . S
C1887 C1888 1.334 . S
C1888 H1859 0.950 . S
C1888 C1887 1.334 . S
C1888 C1889 1.287 . S
C1889 C1888 1.287 . S
C1889 C1890 1.524 . S
C1889 H1892 0.999 . S
C1890 H1860 0.950 . S
C1890 C1889 1.524 . S
C1890 C1891 1.415 . S
C1891 H1861 0.950 . S
C1891 C1886 1.363 . S
C1891 C1890 1.415 . S
H1892 C1889 0.999 . S
H1893 C1874 0.913 . S
H1894 C1912 0.951 . S
H1895 C1914 0.951 . S
H1896 C1916 0.950 . S
H1897 C1917 0.950 . S
H1898 C1919 0.950 . S
H1899 C1922 0.950 . S
H1900 C1923 0.950 . S
H1901 C1925 0.950 . S
H1902 C1926 0.950 . S
H1903 C1927 0.951 . S
H1904 C1929 0.951 . S
H1905 C1931 0.950 . S
H1906 C1932 0.950 . S
H1907 C1934 0.950 . S
H1908 C1937 0.950 . S
H1909 C1938 0.950 . S
H1910 C1940 0.950 . S
H1911 C1941 0.950 . S
C1912 H1894 0.951 . S
C1912 C1913 1.366 . S
C1912 C1914 1.388 . S
C1913 C1912 1.366 . S
C1913 C1917 1.385 . S
C1914 H1895 0.951 . S
C1914 C1912 1.388 . S
C1914 C1915 1.366 . S
C1915 C1914 1.366 . S
C1915 C1916 1.414 . S
C1915 C1918 1.499 . S
C1916 H1896 0.950 . S
C1916 C1915 1.414 . S
C1916 C1917 1.374 . S
C1917 H1897 0.950 . S
C1917 C1913 1.385 . S
C1917 C1916 1.374 . S
C1918 C1915 1.499 . S
C1918 C1919 1.373 . S
C1918 C1920 1.389 . S
C1919 H1898 0.950 . S
C1919 C1918 1.373 . S
C1919 C1935 1.377 . S
C1920 C1918 1.389 . S
C1920 C1921 1.524 . S
C1920 C1934 1.377 . S
C1921 C1920 1.524 . S
C1921 C1922 1.397 . S
C1921 C1926 1.363 . S
C1922 H1899 0.950 . S
C1922 C1921 1.397 . S
C1922 C1923 1.334 . S
C1923 H1900 0.950 . S
C1923 C1922 1.334 . S
C1923 C1924 1.287 . S
C1924 C1923 1.287 . S
C1924 C1925 1.524 . S
C1924 H1943 0.913 . S
C1925 H1901 0.950 . S
C1925 C1924 1.524 . S
C1925 C1926 1.415 . S
C1926 H1902 0.950 . S
C1926 C1921 1.363 . S
C1926 C1925 1.415 . S
C1927 H1903 0.951 . S
C1927 C1928 1.366 . S
C1927 C1929 1.388 . S
C1928 C1927 1.366 . S
C1928 C1932 1.385 . S
C1929 H1904 0.951 . S
C1929 C1927 1.388 . S
C1929 C1930 1.366 . S
C1930 C1929 1.366 . S
C1930 C1931 1.414 . S
C1930 C1933 1.499 . S
C1931 H1905 0.950 . S
C1931 C1930 1.414 . S
C1931 C1932 1.374 . S
C1932 H1906 0.950 . S
C1932 C1928 1.385 . S
C1932 C1931 1.374 . S
C1933 C1930 1.499 . S
C1933 C1934 1.373 . S
C1933 C1935 1.389 . S
C1934 H1907 0.950 . S
C1934 C1920 1.377 . S
C1934 C1933 1.373 . S
C1935 C1919 1.377 . S
C1935 C1933 1.389 . S
C1935 C1936 1.524 . S
C1936 C1935 1.524 . S
C1936 C1937 1.397 . S
C1936 C1941 1.363 . S
C1937 H1908 0.950 . S
C1937 C1936 1.397 . S
C1937 C1938 1.334 . S
C1938 H1909 0.950 . S
C1938 C1937 1.334 . S
C1938 C1939 1.287 . S
C1939 C1938 1.287 . S
C1939 C1940 1.524 . S
C1939 H1942 0.999 . S
C1940 H1910 0.950 . S
C1940 C1939 1.524 . S
C1940 C1941 1.415 . S
C1941 H1911 0.950 . S
C1941 C1936 1.363 . S
C1941 C1940 1.415 . S
H1942 C1939 0.999 . S
H1943 C1924 0.913 . S
H1944 C1962 0.951 . S
H1945 C1964 0.951 . S
H1946 C1966 0.950 . S
H1947 C1967 0.950 . S
H1948 C1969 0.950 . S
H1949 C1972 0.950 1_455 S
H1950 C1973 0.980 . S
H1951 C1975 0.950 . S
H1952 C1976 0.950 . S
H1953 C1977 0.951 . S
H1954 C1979 0.951 . S
H1955 C1981 0.950 . S
H1956 C1982 0.950 . S
H1957 C1984 0.950 . S
H1958 C1987 0.950 . S
H1959 C1988 0.950 . S
H1960 C1990 0.950 . S
H1961 C1991 0.950 . S
C1962 H1944 0.951 . S
C1962 C1963 1.366 . S
C1962 C1964 1.388 . S
C1963 C1962 1.366 . S
C1963 C1967 1.385 . S
C1964 H1945 0.951 . S
C1964 C1962 1.388 . S
C1964 C1965 1.366 . S
C1965 C1964 1.366 . S
C1965 C1966 1.414 . S
C1965 C1968 1.499 . S
C1966 H1946 0.950 . S
C1966 C1965 1.414 . S
C1966 C1967 1.374 . S
C1967 H1947 0.950 . S
C1967 C1963 1.385 . S
C1967 C1966 1.374 . S
C1968 C1965 1.499 . S
C1968 C1969 1.373 . S
C1968 C1970 1.389 . S
C1969 H1948 0.950 . S
C1969 C1968 1.373 . S
C1969 C1985 1.377 . S
C1970 C1968 1.389 . S
C1970 C1971 1.524 . S
C1970 C1984 1.377 . S
C1971 C1970 1.524 . S
C1971 C1972 1.397 . S
C1971 C1976 1.363 . S
C1972 H1949 0.950 1_655 S
C1972 C1971 1.397 . S
C1972 C1973 1.322 1_655 S
C1973 H1950 0.980 . S
C1973 C1972 1.322 1_455 S
C1973 C1974 1.269 1_455 S
C1974 C1973 1.269 1_655 S
C1974 C1975 1.524 . S
C1974 H1993 0.913 . S
C1975 H1951 0.950 . S
C1975 C1974 1.524 . S
C1975 C1976 1.415 . S
C1976 H1952 0.950 . S
C1976 C1971 1.363 . S
C1976 C1975 1.415 . S
C1977 H1953 0.951 . S
C1977 C1978 1.366 . S
C1977 C1979 1.388 . S
C1978 C1977 1.366 . S
C1978 C1982 1.385 . S
C1979 H1954 0.951 . S
C1979 C1977 1.388 . S
C1979 C1980 1.366 . S
C1980 C1979 1.366 . S
C1980 C1981 1.414 . S
C1980 C1983 1.499 . S
C1981 H1955 0.950 . S
C1981 C1980 1.414 . S
C1981 C1982 1.374 . S
C1982 H1956 0.950 . S
C1982 C1978 1.385 . S
C1982 C1981 1.374 . S
C1983 C1980 1.499 . S
C1983 C1984 1.373 . S
C1983 C1985 1.389 . S
C1984 H1957 0.950 . S
C1984 C1970 1.377 . S
C1984 C1983 1.373 . S
C1985 C1969 1.377 . S
C1985 C1983 1.389 . S
C1985 C1986 1.524 . S
C1986 C1985 1.524 . S
C1986 C1987 1.397 . S
C1986 C1991 1.363 . S
C1987 H1958 0.950 . S
C1987 C1986 1.397 . S
C1987 C1988 1.334 . S
C1988 H1959 0.950 . S
C1988 C1987 1.334 . S
C1988 C1989 1.287 . S
C1989 C1988 1.287 . S
C1989 C1990 1.524 . S
C1989 H1992 0.999 . S
C1990 H1960 0.950 . S
C1990 C1989 1.524 . S
C1990 C1991 1.415 . S
C1991 H1961 0.950 . S
C1991 C1986 1.363 . S
C1991 C1990 1.415 . S
H1992 C1989 0.999 . S
H1993 C1974 0.913 . S
H1994 C2012 0.951 . S
H1995 C2014 0.951 . S
H1996 C2016 0.950 . S
H1997 C2017 0.950 . S
H1998 C2019 0.950 . S
H1999 C2022 0.950 . S
H2000 C2023 0.950 . S
H2001 C2025 0.950 . S
H2002 C2026 0.950 . S
H2003 C2027 0.951 . S
H2004 C2029 0.951 . S
H2005 C2031 0.950 . S
H2006 C2032 0.950 . S
H2007 C2034 0.950 . S
H2008 C2037 0.950 . S
H2009 C2038 0.950 . S
H2010 C2040 0.950 . S
H2011 C2041 0.950 . S
C2012 H1994 0.951 . S
C2012 C2013 1.366 . S
C2012 C2014 1.388 . S
C2013 C2012 1.366 . S
C2013 C2017 1.385 . S
C2014 H1995 0.951 . S
C2014 C2012 1.388 . S
C2014 C2015 1.366 . S
C2015 C2014 1.366 . S
C2015 C2016 1.414 . S
C2015 C2018 1.499 . S
C2016 H1996 0.950 . S
C2016 C2015 1.414 . S
C2016 C2017 1.374 . S
C2017 H1997 0.950 . S
C2017 C2013 1.385 . S
C2017 C2016 1.374 . S
C2018 C2015 1.499 . S
C2018 C2019 1.373 . S
C2018 C2020 1.389 . S
C2019 H1998 0.950 . S
C2019 C2018 1.373 . S
C2019 C2035 1.377 . S
C2020 C2018 1.389 . S
C2020 C2021 1.524 . S
C2020 C2034 1.377 . S
C2021 C2020 1.524 . S
C2021 C2022 1.397 1_565 S
C2021 C2026 1.363 . S
C2022 H1999 0.950 . S
C2022 C2021 1.397 1_545 S
C2022 C2023 1.334 . S
C2023 H2000 0.950 . S
C2023 C2022 1.334 . S
C2023 C2024 1.287 . S
C2024 C2023 1.287 . S
C2024 C2025 1.524 1_545 S
C2024 H2043 0.913 . S
C2025 H2001 0.950 . S
C2025 C2024 1.524 1_565 S
C2025 C2026 1.415 . S
C2026 H2002 0.950 . S
C2026 C2021 1.363 . S
C2026 C2025 1.415 . S
C2027 H2003 0.951 . S
C2027 C2028 1.366 . S
C2027 C2029 1.388 . S
C2028 C2027 1.366 . S
C2028 C2032 1.385 . S
C2029 H2004 0.951 . S
C2029 C2027 1.388 . S
C2029 C2030 1.366 . S
C2030 C2029 1.366 . S
C2030 C2031 1.414 . S
C2030 C2033 1.499 . S
C2031 H2005 0.950 . S
C2031 C2030 1.414 . S
C2031 C2032 1.374 . S
C2032 H2006 0.950 . S
C2032 C2028 1.385 . S
C2032 C2031 1.374 . S
C2033 C2030 1.499 . S
C2033 C2034 1.373 . S
C2033 C2035 1.389 . S
C2034 H2007 0.950 . S
C2034 C2020 1.377 . S
C2034 C2033 1.373 . S
C2035 C2019 1.377 . S
C2035 C2033 1.389 . S
C2035 C2036 1.524 . S
C2036 C2035 1.524 . S
C2036 C2037 1.397 . S
C2036 C2041 1.363 . S
C2037 H2008 0.950 . S
C2037 C2036 1.397 . S
C2037 C2038 1.334 . S
C2038 H2009 0.950 . S
C2038 C2037 1.334 . S
C2038 C2039 1.287 . S
C2039 C2038 1.287 . S
C2039 C2040 1.524 . S
C2039 H2042 0.999 . S
C2040 H2010 0.950 . S
C2040 C2039 1.524 . S
C2040 C2041 1.415 . S
C2041 H2011 0.950 . S
C2041 C2036 1.363 . S
C2041 C2040 1.415 . S
H2042 C2039 0.999 . S
H2043 C2024 0.913 . S
H2044 C2062 0.951 . S
H2045 C2064 0.951 . S
H2046 C2066 0.950 . S
H2047 C2067 0.950 . S
H2048 C2069 0.950 . S
H2049 C2072 0.950 . S
H2050 C2073 0.950 . S
H2051 C2075 0.950 . S
H2052 C2076 0.950 . S
H2053 C2077 0.951 . S
H2054 C2079 0.951 . S
H2055 C2081 0.950 . S
H2056 C2082 0.950 . S
H2057 C2084 0.950 . S
H2058 C2087 0.950 . S
H2059 C2088 0.950 . S
H2060 C2090 0.950 . S
H2061 C2091 0.950 . S
C2062 H2044 0.951 . S
C2062 C2063 1.366 . S
C2062 C2064 1.388 . S
C2063 C2062 1.366 . S
C2063 C2067 1.385 . S
C2064 H2045 0.951 . S
C2064 C2062 1.388 . S
C2064 C2065 1.366 . S
C2065 C2064 1.366 . S
C2065 C2066 1.414 . S
C2065 C2068 1.499 . S
C2066 H2046 0.950 . S
C2066 C2065 1.414 . S
C2066 C2067 1.374 . S
C2067 H2047 0.950 . S
C2067 C2063 1.385 . S
C2067 C2066 1.374 . S
C2068 C2065 1.499 . S
C2068 C2069 1.373 . S
C2068 C2070 1.389 . S
C2069 H2048 0.950 . S
C2069 C2068 1.373 . S
C2069 C2085 1.377 . S
C2070 C2068 1.389 . S
C2070 C2071 1.524 . S
C2070 C2084 1.377 . S
C2071 C2070 1.524 . S
C2071 C2072 1.397 . S
C2071 C2076 1.363 . S
C2072 H2049 0.950 . S
C2072 C2071 1.397 . S
C2072 C2073 1.334 . S
C2073 H2050 0.950 . S
C2073 C2072 1.334 . S
C2073 C2074 1.287 . S
C2074 C2073 1.287 . S
C2074 C2075 1.524 . S
C2074 H2093 0.913 . S
C2075 H2051 0.950 . S
C2075 C2074 1.524 . S
C2075 C2076 1.415 . S
C2076 H2052 0.950 . S
C2076 C2071 1.363 . S
C2076 C2075 1.415 . S
C2077 H2053 0.951 . S
C2077 C2078 1.366 . S
C2077 C2079 1.388 . S
C2078 C2077 1.366 . S
C2078 C2082 1.385 . S
C2079 H2054 0.951 . S
C2079 C2077 1.388 . S
C2079 C2080 1.366 . S
C2080 C2079 1.366 . S
C2080 C2081 1.414 . S
C2080 C2083 1.499 . S
C2081 H2055 0.950 . S
C2081 C2080 1.414 . S
C2081 C2082 1.374 . S
C2082 H2056 0.950 . S
C2082 C2078 1.385 . S
C2082 C2081 1.374 . S
C2083 C2080 1.499 . S
C2083 C2084 1.373 . S
C2083 C2085 1.389 . S
C2084 H2057 0.950 . S
C2084 C2070 1.377 . S
C2084 C2083 1.373 . S
C2085 C2069 1.377 . S
C2085 C2083 1.389 . S
C2085 C2086 1.524 . S
C2086 C2085 1.524 . S
C2086 C2087 1.397 . S
C2086 C2091 1.363 . S
C2087 H2058 0.950 . S
C2087 C2086 1.397 . S
C2087 C2088 1.334 . S
C2088 H2059 0.950 . S
C2088 C2087 1.334 . S
C2088 C2089 1.287 . S
C2089 C2088 1.287 . S
C2089 C2090 1.524 . S
C2089 H2092 0.999 . S
C2090 H2060 0.950 . S
C2090 C2089 1.524 . S
C2090 C2091 1.415 . S
C2091 H2061 0.950 . S
C2091 C2086 1.363 . S
C2091 C2090 1.415 . S
H2092 C2089 0.999 . S
H2093 C2074 0.913 . S
H2094 C2112 0.951 . S
H2095 C2114 0.951 . S
H2096 C2116 0.950 . S
H2097 C2117 0.950 . S
H2098 C2119 0.950 . S
H2099 C2122 0.950 . S
H2100 C2123 0.950 . S
H2101 C2125 0.950 . S
H2102 C2126 0.950 . S
H2103 C2127 0.951 . S
H2104 C2129 0.951 . S
H2105 C2131 0.950 . S
H2106 C2132 0.950 . S
H2107 C2134 0.950 . S
H2108 C2137 0.950 . S
H2109 C2138 0.950 . S
H2110 C2140 0.950 . S
H2111 C2141 0.950 . S
C2112 H2094 0.951 . S
C2112 C2113 1.366 . S
C2112 C2114 1.388 . S
C2113 C2112 1.366 . S
C2113 C2117 1.385 . S
C2114 H2095 0.951 . S
C2114 C2112 1.388 . S
C2114 C2115 1.366 . S
C2115 C2114 1.366 . S
C2115 C2116 1.414 . S
C2115 C2118 1.499 . S
C2116 H2096 0.950 . S
C2116 C2115 1.414 . S
C2116 C2117 1.374 . S
C2117 H2097 0.950 . S
C2117 C2113 1.385 . S
C2117 C2116 1.374 . S
C2118 C2115 1.499 . S
C2118 C2119 1.373 . S
C2118 C2120 1.389 . S
C2119 H2098 0.950 . S
C2119 C2118 1.373 . S
C2119 C2135 1.377 . S
C2120 C2118 1.389 . S
C2120 C2121 1.524 . S
C2120 C2134 1.377 . S
C2121 C2120 1.524 . S
C2121 C2122 1.397 . S
C2121 C2126 1.363 . S
C2122 H2099 0.950 . S
C2122 C2121 1.397 . S
C2122 C2123 1.334 . S
C2123 H2100 0.950 . S
C2123 C2122 1.334 . S
C2123 C2124 1.287 . S
C2124 C2123 1.287 . S
C2124 C2125 1.524 . S
C2124 H2143 0.913 . S
C2125 H2101 0.950 . S
C2125 C2124 1.524 . S
C2125 C2126 1.415 . S
C2126 H2102 0.950 . S
C2126 C2121 1.363 . S
C2126 C2125 1.415 . S
C2127 H2103 0.951 . S
C2127 C2128 1.366 . S
C2127 C2129 1.388 . S
C2128 C2127 1.366 . S
C2128 C2132 1.385 . S
C2129 H2104 0.951 . S
C2129 C2127 1.388 . S
C2129 C2130 1.366 . S
C2130 C2129 1.366 . S
C2130 C2131 1.414 . S
C2130 C2133 1.499 . S
C2131 H2105 0.950 . S
C2131 C2130 1.414 . S
C2131 C2132 1.374 . S
C2132 H2106 0.950 . S
C2132 C2128 1.385 . S
C2132 C2131 1.374 . S
C2133 C2130 1.499 . S
C2133 C2134 1.373 . S
C2133 C2135 1.389 . S
C2134 H2107 0.950 . S
C2134 C2120 1.377 . S
C2134 C2133 1.373 . S
C2135 C2119 1.377 . S
C2135 C2133 1.389 . S
C2135 C2136 1.524 . S
C2136 C2135 1.524 . S
C2136 C2137 1.397 . S
C2136 C2141 1.363 . S
C2137 H2108 0.950 . S
C2137 C2136 1.397 . S
C2137 C2138 1.334 . S
C2138 H2109 0.950 . S
C2138 C2137 1.334 . S
C2138 C2139 1.287 . S
C2139 C2138 1.287 . S
C2139 C2140 1.524 . S
C2139 H2142 0.999 . S
C2140 H2110 0.950 . S
C2140 C2139 1.524 . S
C2140 C2141 1.415 . S
C2141 H2111 0.950 . S
C2141 C2136 1.363 . S
C2141 C2140 1.415 . S
H2142 C2139 0.999 . S
H2143 C2124 0.913 . S
H2144 C2162 0.951 . S
H2145 C2164 0.951 . S
H2146 C2166 0.950 . S
H2147 C2167 0.950 1_655 S
H2148 C2169 0.950 . S
H2149 C2172 0.950 . S
H2150 C2173 0.950 . S
H2151 C2175 0.950 . S
H2152 C2176 0.950 . S
H2153 C2177 0.951 . S
H2154 C2179 0.951 . S
H2155 C2181 0.950 . S
H2156 C2182 0.950 1_455 S
H2157 C2184 0.950 . S
H2158 C2187 0.950 . S
H2159 C2188 0.950 . S
H2160 C2190 0.950 . S
H2161 C2191 0.950 . S
C2162 H2144 0.951 . S
C2162 C2163 1.366 . S
C2162 C2164 1.388 . S
C2163 C2162 1.366 . S
C2163 C2167 1.385 . S
C2164 H2145 0.951 . S
C2164 C2162 1.388 . S
C2164 C2165 1.366 . S
C2165 C2164 1.366 . S
C2165 C2166 1.414 1_455 S
C2165 C2168 1.499 . S
C2166 H2146 0.950 . S
C2166 C2165 1.414 1_655 S
C2166 C2167 1.374 1_655 S
C2167 H2147 0.950 1_455 S
C2167 C2163 1.385 . S
C2167 C2166 1.374 1_455 S
C2168 C2165 1.499 . S
C2168 C2169 1.373 1_455 S
C2168 C2170 1.389 1_554 S
C2169 H2148 0.950 . S
C2169 C2168 1.373 1_655 S
C2169 C2185 1.377 . S
C2170 C2168 1.389 1_556 S
C2170 C2171 1.524 . S
C2170 C2184 1.377 . S
C2171 C2170 1.524 . S
C2171 C2172 1.397 1_455 S
C2171 C2176 1.363 . S
C2172 H2149 0.950 . S
C2172 C2171 1.397 1_655 S
C2172 C2173 1.334 . S
C2173 H2150 0.950 . S
C2173 C2172 1.334 . S
C2173 C2174 1.287 1_655 S
C2174 C2173 1.287 1_455 S
C2174 C2175 1.524 . S
C2174 H2193 0.913 . S
C2175 H2151 0.950 . S
C2175 C2174 1.524 . S
C2175 C2176 1.415 . S
C2176 H2152 0.950 . S
C2176 C2171 1.363 . S
C2176 C2175 1.415 . S
C2177 H2153 0.951 . S
C2177 C2178 1.366 . S
C2177 C2179 1.388 . S
C2178 C2177 1.366 . S
C2178 C2182 1.385 . S
C2179 H2154 0.951 . S
C2179 C2177 1.388 . S
C2179 C2180 1.366 . S
C2180 C2179 1.366 . S
C2180 C2181 1.414 1_655 S
C2180 C2183 1.499 . S
C2181 H2155 0.950 . S
C2181 C2180 1.414 1_455 S
C2181 C2182 1.374 1_455 S
C2182 H2156 0.950 1_655 S
C2182 C2178 1.385 . S
C2182 C2181 1.374 1_655 S
C2183 C2180 1.499 . S
C2183 C2184 1.373 1_655 S
C2183 C2185 1.389 1_556 S
C2184 H2157 0.950 . S
C2184 C2170 1.377 . S
C2184 C2183 1.373 1_455 S
C2185 C2169 1.377 . S
C2185 C2183 1.389 1_554 S
C2185 C2186 1.524 . S
C2186 C2185 1.524 . S
C2186 C2187 1.397 1_655 S
C2186 C2191 1.363 . S
C2187 H2158 0.950 . S
C2187 C2186 1.397 1_455 S
C2187 C2188 1.334 . S
C2188 H2159 0.950 . S
C2188 C2187 1.334 . S
C2188 C2189 1.287 1_455 S
C2189 C2188 1.287 1_655 S
C2189 C2190 1.524 . S
C2189 H2192 0.999 . S
C2190 H2160 0.950 . S
C2190 C2189 1.524 . S
C2190 C2191 1.415 . S
C2191 H2161 0.950 . S
C2191 C2186 1.363 . S
C2191 C2190 1.415 . S
H2192 C2189 0.999 . S
H2193 C2174 0.913 . S
H2194 C2212 0.951 1_545 S
H2195 C2214 0.951 . S
H2196 C2216 0.950 . S
H2197 C2217 0.950 . S
H2198 C2219 0.950 . S
H2199 C2222 0.950 1_565 S
H2200 C2223 0.950 . S
H2201 C2225 0.950 . S
H2202 C2226 0.950 . S
H2203 C2227 0.951 1_565 S
H2204 C2229 0.951 . S
H2205 C2231 0.950 . S
H2206 C2232 0.950 . S
H2207 C2234 0.950 . S
H2208 C2237 0.950 1_545 S
H2209 C2238 0.950 . S
H2210 C2240 0.950 . S
H2211 C2241 0.950 . S
C2212 H2194 0.951 1_565 S
C2212 C2213 1.366 . S
C2212 C2214 1.388 1_565 S
C2213 C2212 1.366 . S
C2213 C2217 1.385 . S
C2214 H2195 0.951 . S
C2214 C2212 1.388 1_545 S
C2214 C2215 1.366 1_545 S
C2215 C2214 1.366 1_565 S
C2215 C2216 1.414 . S
C2215 C2218 1.499 . S
C2216 H2196 0.950 . S
C2216 C2215 1.414 . S
C2216 C2217 1.374 . S
C2217 H2197 0.950 . S
C2217 C2213 1.385 . S
C2217 C2216 1.374 . S
C2218 C2215 1.499 . S
C2218 C2219 1.373 1_455 S
C2218 C2220 1.389 1_566 S
C2219 H2198 0.950 . S
C2219 C2218 1.373 1_655 S
C2219 C2235 1.377 . S
C2220 C2218 1.389 1_544 S
C2220 C2221 1.524 . S
C2220 C2234 1.377 . S
C2221 C2220 1.524 . S
C2221 C2222 1.397 . S
C2221 C2226 1.363 . S
C2222 H2199 0.950 1_545 S
C2222 C2221 1.397 . S
C2222 C2223 1.334 . S
C2223 H2200 0.950 . S
C2223 C2222 1.334 . S
C2223 C2224 1.287 . S
C2224 C2223 1.287 . S
C2224 C2225 1.524 . S
C2224 H2243 0.913 . S
C2225 H2201 0.950 . S
C2225 C2224 1.524 . S
C2225 C2226 1.415 . S
C2226 H2202 0.950 . S
C2226 C2221 1.363 . S
C2226 C2225 1.415 . S
C2227 H2203 0.951 1_545 S
C2227 C2228 1.366 . S
C2227 C2229 1.388 1_545 S
C2228 C2227 1.366 . S
C2228 C2232 1.385 . S
C2229 H2204 0.951 . S
C2229 C2227 1.388 1_565 S
C2229 C2230 1.366 1_565 S
C2230 C2229 1.366 1_545 S
C2230 C2231 1.414 . S
C2230 C2233 1.499 . S
C2231 H2205 0.950 . S
C2231 C2230 1.414 . S
C2231 C2232 1.374 . S
C2232 H2206 0.950 . S
C2232 C2228 1.385 . S
C2232 C2231 1.374 . S
C2233 C2230 1.499 . S
C2233 C2234 1.373 1_655 S
C2233 C2235 1.389 1_544 S
C2234 H2207 0.950 . S
C2234 C2220 1.377 . S
C2234 C2233 1.373 1_455 S
C2235 C2219 1.377 . S
C2235 C2233 1.389 1_566 S
C2235 C2236 1.524 . S
C2236 C2235 1.524 . S
C2236 C2237 1.397 . S
C2236 C2241 1.363 . S
C2237 H2208 0.950 1_565 S
C2237 C2236 1.397 . S
C2237 C2238 1.334 . S
C2238 H2209 0.950 . S
C2238 C2237 1.334 . S
C2238 C2239 1.287 . S
C2239 C2238 1.287 . S
C2239 C2240 1.524 . S
C2239 H2242 0.999 . S
C2240 H2210 0.950 . S
C2240 C2239 1.524 . S
C2240 C2241 1.415 . S
C2241 H2211 0.950 . S
C2241 C2236 1.363 . S
C2241 C2240 1.415 . S
H2242 C2239 0.999 . S
H2243 C2224 0.913 . S
H2244 C2262 0.951 . S
H2245 C2264 0.951 . S
H2246 C2266 0.950 . S
H2247 C2267 0.950 . S
H2248 C2269 0.950 . S
H2249 C2272 0.963 . S
H2250 C2273 0.950 . S
H2251 C2275 0.950 . S
H2252 C2276 0.950 . S
H2253 C2277 0.951 . S
H2254 C2279 0.951 . S
H2255 C2281 0.950 . S
H2256 C2282 0.950 . S
H2257 C2284 0.950 . S
H2258 C2287 0.963 . S
H2259 C2288 0.950 . S
H2260 C2290 0.950 . S
H2261 C2291 0.950 . S
C2262 H2244 0.951 . S
C2262 C2263 1.366 . S
C2262 C2264 1.388 . S
C2263 C2262 1.366 . S
C2263 C2267 1.385 . S
C2264 H2245 0.951 . S
C2264 C2262 1.388 . S
C2264 C2265 1.366 . S
C2265 C2264 1.366 . S
C2265 C2266 1.414 . S
C2265 C2268 1.499 . S
C2266 H2246 0.950 . S
C2266 C2265 1.414 . S
C2266 C2267 1.374 . S
C2267 H2247 0.950 . S
C2267 C2263 1.385 . S
C2267 C2266 1.374 . S
C2268 C2265 1.499 . S
C2268 C2269 1.373 1_565 S
C2268 C2270 1.389 1_554 S
C2269 H2248 0.950 . S
C2269 C2268 1.373 1_545 S
C2269 C2285 1.377 . S
C2270 C2268 1.389 1_556 S
C2270 C2271 1.524 . S
C2270 C2284 1.377 . S
C2271 C2270 1.524 . S
C2271 C2272 1.397 . S
C2271 C2276 1.363 . S
C2272 H2249 0.963 . S
C2272 C2271 1.397 . S
C2272 C2273 1.334 . S
C2273 H2250 0.950 . S
C2273 C2272 1.334 . S
C2273 C2274 1.287 . S
C2274 C2273 1.287 . S
C2274 C2275 1.524 . S
C2274 H2293 0.913 . S
C2275 H2251 0.950 . S
C2275 C2274 1.524 . S
C2275 C2276 1.415 . S
C2276 H2252 0.950 . S
C2276 C2271 1.363 . S
C2276 C2275 1.415 . S
C2277 H2253 0.951 . S
C2277 C2278 1.366 . S
C2277 C2279 1.388 . S
C2278 C2277 1.366 . S
C2278 C2282 1.385 . S
C2279 H2254 0.951 . S
C2279 C2277 1.388 . S
C2279 C2280 1.366 . S
C2280 C2279 1.366 . S
C2280 C2281 1.414 . S
C2280 C2283 1.499 . S
C2281 H2255 0.950 . S
C2281 C2280 1.414 . S
C2281 C2282 1.374 . S
C2282 H2256 0.950 . S
C2282 C2278 1.385 . S
C2282 C2281 1.374 . S
C2283 C2280 1.499 . S
C2283 C2284 1.373 1_545 S
C2283 C2285 1.389 1_556 S
C2284 H2257 0.950 . S
C2284 C2270 1.377 . S
C2284 C2283 1.373 1_565 S
C2285 C2269 1.377 . S
C2285 C2283 1.389 1_554 S
C2285 C2286 1.524 . S
C2286 C2285 1.524 . S
C2286 C2287 1.397 . S
C2286 C2291 1.363 . S
C2287 H2258 0.963 . S
C2287 C2286 1.397 . S
C2287 C2288 1.334 . S
C2288 H2259 0.950 . S
C2288 C2287 1.334 . S
C2288 C2289 1.287 . S
C2289 C2288 1.287 . S
C2289 C2290 1.524 . S
C2289 H2292 0.999 . S
C2290 H2260 0.950 . S
C2290 C2289 1.524 . S
C2290 C2291 1.415 . S
C2291 H2261 0.950 . S
C2291 C2286 1.363 . S
C2291 C2290 1.415 . S
H2292 C2289 0.999 . S
H2293 C2274 0.913 . S
H2294 C2312 0.951 . S
H2295 C2314 0.951 . S
H2296 C2316 0.950 . S
H2297 C2317 0.950 . S
H2298 C2319 0.950 . S
H2299 C2322 0.950 . S
H2300 C2323 0.950 . S
H2301 C2325 0.950 . S
H2302 C2326 0.950 . S
H2303 C2327 0.951 . S
H2304 C2329 0.951 . S
H2305 C2331 0.950 . S
H2306 C2332 0.950 . S
H2307 C2334 0.950 . S
H2308 C2337 0.950 . S
H2309 C2338 0.950 . S
H2310 C2340 0.950 . S
H2311 C2341 0.950 . S
C2312 H2294 0.951 . S
C2312 C2313 1.366 . S
C2312 C2314 1.388 . S
C2313 C2312 1.366 . S
C2313 C2317 1.385 . S
C2314 H2295 0.951 . S
C2314 C2312 1.388 . S
C2314 C2315 1.366 . S
C2315 C2314 1.366 . S
C2315 C2316 1.414 . S
C2315 C2318 1.499 . S
C2316 H2296 0.950 . S
C2316 C2315 1.414 . S
C2316 C2317 1.374 . S
C2317 H2297 0.950 . S
C2317 C2313 1.385 . S
C2317 C2316 1.374 . S
C2318 C2315 1.499 . S
C2318 C2319 1.381 . S
C2318 C2320 1.389 . S
C2319 H2298 0.950 . S
C2319 C2318 1.381 . S
C2319 C2335 1.369 1_556 S
C2320 C2318 1.389 . S
C2320 C2321 1.524 . S
C2320 C2334 1.369 1_556 S
C2321 C2320 1.524 . S
C2321 C2322 1.397 . S
C2321 C2326 1.363 . S
C2322 H2299 0.950 . S
C2322 C2321 1.397 . S
C2322 C2323 1.334 . S
C2323 H2300 0.950 . S
C2323 C2322 1.334 . S
C2323 C2324 1.287 . S
C2324 C2323 1.287 . S
C2324 C2325 1.524 . S
C2324 H2343 0.913 . S
C2325 H2301 0.950 . S
C2325 C2324 1.524 . S
C2325 C2326 1.415 . S
C2326 H2302 0.950 . S
C2326 C2321 1.363 . S
C2326 C2325 1.415 . S
C2327 H2303 0.951 . S
C2327 C2328 1.366 . S
C2327 C2329 1.388 . S
C2328 C2327 1.366 . S
C2328 C2332 1.385 . S
C2329 H2304 0.951 . S
C2329 C2327 1.388 . S
C2329 C2330 1.366 . S
C2330 C2329 1.366 . S
C2330 C2331 1.414 . S
C2330 C2333 1.499 . S
C2331 H2305 0.950 . S
C2331 C2330 1.414 . S
C2331 C2332 1.374 . S
C2332 H2306 0.950 . S
C2332 C2328 1.385 . S
C2332 C2331 1.374 . S
C2333 C2330 1.499 . S
C2333 C2334 1.381 . S
C2333 C2335 1.389 . S
C2334 H2307 0.950 . S
C2334 C2320 1.369 1_554 S
C2334 C2333 1.381 . S
C2335 C2319 1.369 1_554 S
C2335 C2333 1.389 . S
C2335 C2336 1.524 . S
C2336 C2335 1.524 . S
C2336 C2337 1.397 . S
C2336 C2341 1.363 . S
C2337 H2308 0.950 . S
C2337 C2336 1.397 . S
C2337 C2338 1.334 . S
C2338 H2309 0.950 . S
C2338 C2337 1.334 . S
C2338 C2339 1.287 . S
C2339 C2338 1.287 . S
C2339 C2340 1.524 . S
C2339 H2342 0.999 . S
C2340 H2310 0.950 . S
C2340 C2339 1.524 . S
C2340 C2341 1.415 . S
C2341 H2311 0.950 . S
C2341 C2336 1.363 . S
C2341 C2340 1.415 . S
H2342 C2339 0.999 . S
H2343 C2324 0.913 . S
H2344 C2362 0.951 1_655 S
H2345 C2364 0.951 . S
H2346 C2366 0.950 . S
H2347 C2367 0.950 . S
H2348 C2369 0.950 . S
H2349 C2372 0.950 1_455 S
H2350 C2373 0.950 . S
H2351 C2375 0.950 . S
H2352 C2376 0.950 . S
H2353 C2377 0.951 1_455 S
H2354 C2379 0.951 . S
H2355 C2381 0.950 . S
H2356 C2382 0.950 . S
H2357 C2384 0.950 . S
H2358 C2387 0.950 1_655 S
H2359 C2388 0.950 . S
H2360 C2390 0.950 . S
H2361 C2391 0.950 . S
C2362 H2344 0.951 1_455 S
C2362 C2363 1.366 . S
C2362 C2364 1.388 1_455 S
C2363 C2362 1.366 . S
C2363 C2367 1.385 . S
C2364 H2345 0.951 . S
C2364 C2362 1.388 1_655 S
C2364 C2365 1.366 1_655 S
C2365 C2364 1.366 1_455 S
C2365 C2366 1.414 . S
C2365 C2368 1.499 . S
C2366 H2346 0.950 . S
C2366 C2365 1.414 . S
C2366 C2367 1.374 . S
C2367 H2347 0.950 . S
C2367 C2363 1.385 . S
C2367 C2366 1.374 . S
C2368 C2365 1.499 . S
C2368 C2369 1.373 . S
C2368 C2370 1.389 1_455 S
C2369 H2348 0.950 . S
C2369 C2368 1.373 . S
C2369 C2385 1.377 1_565 S
C2370 C2368 1.389 1_655 S
C2370 C2371 1.525 1_565 S
C2370 C2384 1.377 1_565 S
C2371 C2370 1.525 1_545 S
C2371 C2372 1.396 . S
C2371 C2376 1.362 . S
C2372 H2349 0.950 1_655 S
C2372 C2371 1.396 . S
C2372 C2373 1.334 . S
C2373 H2350 0.950 . S
C2373 C2372 1.334 . S
C2373 C2374 1.287 . S
C2374 C2373 1.287 . S
C2374 C2375 1.524 . S
C2374 H2393 0.913 . S
C2375 H2351 0.950 . S
C2375 C2374 1.524 . S
C2375 C2376 1.415 . S
C2376 H2352 0.950 . S
C2376 C2371 1.362 . S
C2376 C2375 1.415 . S
C2377 H2353 0.951 1_655 S
C2377 C2378 1.366 . S
C2377 C2379 1.388 1_655 S
C2378 C2377 1.366 . S
C2378 C2382 1.385 . S
C2379 H2354 0.951 . S
C2379 C2377 1.388 1_455 S
C2379 C2380 1.366 1_455 S
C2380 C2379 1.366 1_655 S
C2380 C2381 1.414 . S
C2380 C2383 1.499 . S
C2381 H2355 0.950 . S
C2381 C2380 1.414 . S
C2381 C2382 1.374 . S
C2382 H2356 0.950 . S
C2382 C2378 1.385 . S
C2382 C2381 1.374 . S
C2383 C2380 1.499 . S
C2383 C2384 1.373 . S
C2383 C2385 1.389 1_655 S
C2384 H2357 0.950 . S
C2384 C2370 1.377 1_545 S
C2384 C2383 1.373 . S
C2385 C2369 1.377 1_545 S
C2385 C2383 1.389 1_455 S
C2385 C2386 1.525 1_545 S
C2386 C2385 1.525 1_565 S
C2386 C2387 1.396 . S
C2386 C2391 1.362 . S
C2387 H2358 0.950 1_455 S
C2387 C2386 1.396 . S
C2387 C2388 1.334 . S
C2388 H2359 0.950 . S
C2388 C2387 1.334 . S
C2388 C2389 1.287 . S
C2389 C2388 1.287 . S
C2389 C2390 1.524 . S
C2389 H2392 0.999 . S
C2390 H2360 0.950 . S
C2390 C2389 1.524 . S
C2390 C2391 1.415 . S
C2391 H2361 0.950 . S
C2391 C2386 1.362 . S
C2391 C2390 1.415 . S
H2392 C2389 0.999 . S
H2393 C2374 0.913 . S
H2394 C2412 0.951 . S
H2395 C2414 0.951 . S
H2396 C2416 0.950 . S
H2397 C2417 0.950 . S
H2398 C2419 0.950 . S
H2399 C2422 0.950 . S
H2400 C2423 0.950 . S
H2401 C2425 0.950 . S
H2402 C2426 0.950 . S
H2403 C2427 0.951 . S
H2404 C2429 0.951 . S
H2405 C2431 0.950 . S
H2406 C2432 0.950 . S
H2407 C2434 0.950 . S
H2408 C2437 0.950 . S
H2409 C2438 0.950 . S
H2410 C2440 0.950 . S
H2411 C2441 0.950 . S
C2412 H2394 0.951 . S
C2412 C2413 1.366 . S
C2412 C2414 1.388 . S
C2413 C2412 1.366 . S
C2413 C2417 1.385 . S
C2414 H2395 0.951 . S
C2414 C2412 1.388 . S
C2414 C2415 1.366 . S
C2415 C2414 1.366 . S
C2415 C2416 1.414 . S
C2415 C2418 1.499 . S
C2416 H2396 0.950 . S
C2416 C2415 1.414 . S
C2416 C2417 1.374 . S
C2417 H2397 0.950 . S
C2417 C2413 1.385 . S
C2417 C2416 1.374 . S
C2418 C2415 1.499 . S
C2418 C2419 1.373 . S
C2418 C2420 1.389 1_545 S
C2419 H2398 0.950 . S
C2419 C2418 1.373 . S
C2419 C2435 1.377 . S
C2420 C2418 1.389 1_565 S
C2420 C2421 1.524 . S
C2420 C2434 1.377 . S
C2421 C2420 1.524 . S
C2421 C2422 1.397 . S
C2421 C2426 1.363 . S
C2422 H2399 0.950 . S
C2422 C2421 1.397 . S
C2422 C2423 1.334 . S
C2423 H2400 0.950 . S
C2423 C2422 1.334 . S
C2423 C2424 1.287 . S
C2424 C2423 1.287 . S
C2424 C2425 1.524 . S
C2424 H2443 0.913 . S
C2425 H2401 0.950 . S
C2425 C2424 1.524 . S
C2425 C2426 1.415 . S
C2426 H2402 0.950 . S
C2426 C2421 1.363 . S
C2426 C2425 1.415 . S
C2427 H2403 0.951 . S
C2427 C2428 1.366 . S
C2427 C2429 1.388 . S
C2428 C2427 1.366 . S
C2428 C2432 1.385 . S
C2429 H2404 0.951 . S
C2429 C2427 1.388 . S
C2429 C2430 1.366 . S
C2430 C2429 1.366 . S
C2430 C2431 1.414 . S
C2430 C2433 1.499 . S
C2431 H2405 0.950 . S
C2431 C2430 1.414 . S
C2431 C2432 1.374 . S
C2432 H2406 0.950 . S
C2432 C2428 1.385 . S
C2432 C2431 1.374 . S
C2433 C2430 1.499 . S
C2433 C2434 1.373 . S
C2433 C2435 1.389 1_565 S
C2434 H2407 0.950 . S
C2434 C2420 1.377 . S
C2434 C2433 1.373 . S
C2435 C2419 1.377 . S
C2435 C2433 1.389 1_545 S
C2435 C2436 1.524 . S
C2436 C2435 1.524 . S
C2436 C2437 1.397 . S
C2436 C2441 1.363 . S
C2437 H2408 0.950 . S
C2437 C2436 1.397 . S
C2437 C2438 1.334 . S
C2438 H2409 0.950 . S
C2438 C2437 1.334 . S
C2438 C2439 1.287 . S
C2439 C2438 1.287 . S
C2439 C2440 1.524 . S
C2439 H2442 0.999 . S
C2440 H2410 0.950 . S
C2440 C2439 1.524 . S
C2440 C2441 1.415 . S
C2441 H2411 0.950 . S
C2441 C2436 1.363 . S
C2441 C2440 1.415 . S
H2442 C2439 0.999 . S
H2443 C2424 0.913 . S
H2444 C2462 0.951 . S
H2445 C2464 0.951 . S
H2446 C2466 0.950 . S
H2447 C2467 0.950 . S
H2448 C2469 0.950 . S
H2449 C2472 0.950 . S
H2450 C2473 0.950 . S
H2451 C2475 0.950 . S
H2452 C2476 0.950 . S
H2453 C2477 0.951 . S
H2454 C2479 0.951 . S
H2455 C2481 0.950 . S
H2456 C2482 0.950 . S
H2457 C2484 0.950 . S
H2458 C2487 0.950 . S
H2459 C2488 0.950 . S
H2460 C2490 0.950 . S
H2461 C2491 0.950 . S
C2462 H2444 0.951 . S
C2462 C2463 1.366 . S
C2462 C2464 1.388 . S
C2463 C2462 1.366 . S
C2463 C2467 1.385 . S
C2464 H2445 0.951 . S
C2464 C2462 1.388 . S
C2464 C2465 1.366 . S
C2465 C2464 1.366 . S
C2465 C2466 1.414 . S
C2465 C2468 1.499 . S
C2466 H2446 0.950 . S
C2466 C2465 1.414 . S
C2466 C2467 1.374 . S
C2467 H2447 0.950 . S
C2467 C2463 1.385 . S
C2467 C2466 1.374 . S
C2468 C2465 1.499 . S
C2468 C2469 1.373 . S
C2468 C2470 1.389 . S
C2469 H2448 0.950 . S
C2469 C2468 1.373 . S
C2469 C2485 1.377 . S
C2470 C2468 1.389 . S
C2470 C2471 1.524 . S
C2470 C2484 1.377 . S
C2471 C2470 1.524 . S
C2471 C2472 1.397 . S
C2471 C2476 1.363 . S
C2472 H2449 0.950 . S
C2472 C2471 1.397 . S
C2472 C2473 1.334 . S
C2473 H2450 0.950 . S
C2473 C2472 1.334 . S
C2473 C2474 1.287 . S
C2474 C2473 1.287 . S
C2474 C2475 1.524 . S
C2474 H2493 0.913 . S
C2475 H2451 0.950 . S
C2475 C2474 1.524 . S
C2475 C2476 1.415 . S
C2476 H2452 0.950 . S
C2476 C2471 1.363 . S
C2476 C2475 1.415 . S
C2477 H2453 0.951 . S
C2477 C2478 1.366 . S
C2477 C2479 1.388 . S
C2478 C2477 1.366 . S
C2478 C2482 1.385 . S
C2479 H2454 0.951 . S
C2479 C2477 1.388 . S
C2479 C2480 1.366 . S
C2480 C2479 1.366 . S
C2480 C2481 1.414 . S
C2480 C2483 1.499 . S
C2481 H2455 0.950 . S
C2481 C2480 1.414 . S
C2481 C2482 1.374 . S
C2482 H2456 0.950 . S
C2482 C2478 1.385 . S
C2482 C2481 1.374 . S
C2483 C2480 1.499 . S
C2483 C2484 1.373 . S
C2483 C2485 1.389 . S
C2484 H2457 0.950 . S
C2484 C2470 1.377 . S
C2484 C2483 1.373 . S
C2485 C2469 1.377 . S
C2485 C2483 1.389 . S
C2485 C2486 1.524 . S
C2486 C2485 1.524 . S
C2486 C2487 1.397 . S
C2486 C2491 1.363 . S
C2487 H2458 0.950 . S
C2487 C2486 1.397 . S
C2487 C2488 1.334 . S
C2488 H2459 0.950 . S
C2488 C2487 1.334 . S
C2488 C2489 1.287 . S
C2489 C2488 1.287 . S
C2489 C2490 1.524 . S
C2489 H2492 0.999 . S
C2490 H2460 0.950 . S
C2490 C2489 1.524 . S
C2490 C2491 1.415 . S
C2491 H2461 0.950 . S
C2491 C2486 1.363 . S
C2491 C2490 1.415 . S
H2492 C2489 0.999 . S
H2493 C2474 0.913 . S
H2494 C2512 0.951 . S
H2495 C2514 0.951 . S
H2496 C2516 0.950 . S
H2497 C2517 0.950 . S
H2498 C2519 0.950 . S
H2499 C2522 0.950 . S
H2500 C2523 0.950 . S
H2501 C2525 0.950 . S
H2502 C2526 0.950 . S
H2503 C2527 0.951 . S
H2504 C2529 0.951 . S
H2505 C2531 0.950 . S
H2506 C2532 0.950 . S
H2507 C2534 0.950 . S
H2508 C2537 0.950 . S
H2509 C2538 0.950 . S
H2510 C2540 0.950 . S
H2511 C2541 0.950 . S
C2512 H2494 0.951 . S
C2512 C2513 1.366 . S
C2512 C2514 1.388 . S
C2513 C2512 1.366 . S
C2513 C2517 1.385 . S
C2514 H2495 0.951 . S
C2514 C2512 1.388 . S
C2514 C2515 1.366 . S
C2515 C2514 1.366 . S
C2515 C2516 1.414 . S
C2515 C2518 1.499 . S
C2516 H2496 0.950 . S
C2516 C2515 1.414 . S
C2516 C2517 1.374 . S
C2517 H2497 0.950 . S
C2517 C2513 1.385 . S
C2517 C2516 1.374 . S
C2518 C2515 1.499 . S
C2518 C2519 1.373 . S
C2518 C2520 1.389 . S
C2519 H2498 0.950 . S
C2519 C2518 1.373 . S
C2519 C2535 1.377 1_655 S
C2520 C2518 1.389 . S
C2520 C2521 1.524 . S
C2520 C2534 1.377 1_655 S
C2521 C2520 1.524 . S
C2521 C2522 1.397 . S
C2521 C2526 1.363 . S
C2522 H2499 0.950 . S
C2522 C2521 1.397 . S
C2522 C2523 1.334 . S
C2523 H2500 0.950 . S
C2523 C2522 1.334 . S
C2523 C2524 1.287 . S
C2524 C2523 1.287 . S
C2524 C2525 1.524 . S
C2524 H2543 0.913 . S
C2525 H2501 0.950 . S
C2525 C2524 1.524 . S
C2525 C2526 1.415 . S
C2526 H2502 0.950 . S
C2526 C2521 1.363 . S
C2526 C2525 1.415 . S
C2527 H2503 0.951 . S
C2527 C2528 1.366 . S
C2527 C2529 1.388 . S
C2528 C2527 1.366 . S
C2528 C2532 1.385 . S
C2529 H2504 0.951 . S
C2529 C2527 1.388 . S
C2529 C2530 1.366 . S
C2530 C2529 1.366 . S
C2530 C2531 1.414 . S
C2530 C2533 1.499 . S
C2531 H2505 0.950 . S
C2531 C2530 1.414 . S
C2531 C2532 1.374 . S
C2532 H2506 0.950 . S
C2532 C2528 1.385 . S
C2532 C2531 1.374 . S
C2533 C2530 1.499 . S
C2533 C2534 1.373 . S
C2533 C2535 1.389 . S
C2534 H2507 0.950 . S
C2534 C2520 1.377 1_455 S
C2534 C2533 1.373 . S
C2535 C2519 1.377 1_455 S
C2535 C2533 1.389 . S
C2535 C2536 1.524 . S
C2536 C2535 1.524 . S
C2536 C2537 1.397 . S
C2536 C2541 1.363 . S
C2537 H2508 0.950 . S
C2537 C2536 1.397 . S
C2537 C2538 1.334 . S
C2538 H2509 0.950 . S
C2538 C2537 1.334 . S
C2538 C2539 1.287 . S
C2539 C2538 1.287 . S
C2539 C2540 1.524 . S
C2539 H2542 0.999 . S
C2540 H2510 0.950 . S
C2540 C2539 1.524 . S
C2540 C2541 1.415 . S
C2541 H2511 0.950 . S
C2541 C2536 1.363 . S
C2541 C2540 1.415 . S
H2542 C2539 0.999 . S
H2543 C2524 0.913 . S
C963 C33 1.695 . S
C978 C151 1.696 . S
C1013 C92 1.696 . S
C1028 C210 1.696 . S
C1063 C269 1.696 . S
C1078 C387 1.695 . S
C1113 C446 1.696 . S
C1128 C328 1.696 . S
C1163 C505 1.696 . S
C1178 C623 1.696 . S
C1213 C682 1.696 . S
C1228 C564 1.696 . S
C1263 C859 1.695 . S
C1278 C741 1.696 . S
C1313 C918 1.696 . S
C1328 C800 1.695 . S
C1363 C416 0.715 . S
C1378 C3 0.716 . S
C1413 C62 0.713 . S
C1428 C239 0.714 . S
C1463 C298 0.715 . S
C1478 C121 0.716 . S
C1513 C180 0.716 . S
C1528 C357 0.714 . S
C1563 C888 0.716 . S
C1578 C475 0.715 . S
C1613 C534 0.713 . S
C1628 C711 0.714 . S
C1663 C593 0.714 . S
C1678 C770 0.715 . S
C1713 C829 0.716 . S
C1728 C652 0.715 . S
C1763 C52 0.694 . S
C1778 C288 0.694 . S
C1813 C111 0.693 . S
C1828 C347 0.694 . S
C1863 C406 0.692 . S
C1878 C170 0.692 . S
C1913 C229 0.693 . S
C1928 C465 0.693 . S
C1963 C760 0.692 . S
C1978 C524 0.692 . S
C2013 C819 0.692 . S
C2028 C583 0.692 . S
C2063 C642 0.694 . S
C2078 C878 0.695 . S
C2113 C701 0.694 . S
C2128 C937 0.694 . S
C2163 C5 1.825 . S
C2178 C477 1.825 . S
C2213 C536 1.825 . S
C2228 C64 1.825 . S
C2263 C123 1.825 . S
C2278 C595 1.825 . S
C2313 C654 1.825 . S
C2328 C182 1.825 . S
C2363 C241 1.825 . S
C2378 C713 1.825 . S
C2413 C300 1.825 . S
C2428 C772 1.825 . S
C2463 C831 1.825 . S
C2478 C359 1.825 . S
C2513 C418 1.825 . S
C2528 C890 1.825 . S
