# Generated by pormake.
# Topology can, (4)-cn, num edge types: 1
# Building blocks:
#     Node 0, Type 0, BuildingBlock: UXUYUI_clean_sbu_0, # of connection points: 4
#     Node 1, Type 0, BuildingBlock: UXUYUI_clean_sbu_0, # of connection points: 4
#     Node 2, Type 0, BuildingBlock: UXUYUI_clean_sbu_0, # of connection points: 4
#     Node 3, Type 0, BuildingBlock: UXUYUI_clean_sbu_0, # of connection points: 4
#     Node 4, Type 0, BuildingBlock: UXUYUI_clean_sbu_0, # of connection points: 4
#     Node 5, Type 0, BuildingBlock: UXUYUI_clean_sbu_0, # of connection points: 4
#     Node 6, Type 0, BuildingBlock: UXUYUI_clean_sbu_0, # of connection points: 4
#     Node 7, Type 0, BuildingBlock: UXUYUI_clean_sbu_0, # of connection points: 4
#     Node 8, Type 0, BuildingBlock: UXUYUI_clean_sbu_0, # of connection points: 4
#     Node 9, Type 0, BuildingBlock: UXUYUI_clean_sbu_0, # of connection points: 4
#     Node 10, Type 0, BuildingBlock: UXUYUI_clean_sbu_0, # of connection points: 4
#     Node 11, Type 0, BuildingBlock: UXUYUI_clean_sbu_0, # of connection points: 4
#     Edge 12, Type (0, 0), BuildingBlock: KIFKEQ_clean_linker_1, # of connection points: 2
#     Edge 13, Type (0, 0), BuildingBlock: KIFKEQ_clean_linker_1, # of connection points: 2
#     Edge 14, Type (0, 0), BuildingBlock: KIFKEQ_clean_linker_1, # of connection points: 2
#     Edge 15, Type (0, 0), BuildingBlock: KIFKEQ_clean_linker_1, # of connection points: 2
#     Edge 16, Type (0, 0), BuildingBlock: KIFKEQ_clean_linker_1, # of connection points: 2
#     Edge 17, Type (0, 0), BuildingBlock: KIFKEQ_clean_linker_1, # of connection points: 2
#     Edge 18, Type (0, 0), BuildingBlock: KIFKEQ_clean_linker_1, # of connection points: 2
#     Edge 19, Type (0, 0), BuildingBlock: KIFKEQ_clean_linker_1, # of connection points: 2
#     Edge 20, Type (0, 0), BuildingBlock: KIFKEQ_clean_linker_1, # of connection points: 2
#     Edge 21, Type (0, 0), BuildingBlock: KIFKEQ_clean_linker_1, # of connection points: 2
#     Edge 22, Type (0, 0), BuildingBlock: KIFKEQ_clean_linker_1, # of connection points: 2
#     Edge 23, Type (0, 0), BuildingBlock: KIFKEQ_clean_linker_1, # of connection points: 2
#     Edge 24, Type (0, 0), BuildingBlock: KIFKEQ_clean_linker_1, # of connection points: 2
#     Edge 25, Type (0, 0), BuildingBlock: KIFKEQ_clean_linker_1, # of connection points: 2
#     Edge 26, Type (0, 0), BuildingBlock: KIFKEQ_clean_linker_1, # of connection points: 2
#     Edge 27, Type (0, 0), BuildingBlock: KIFKEQ_clean_linker_1, # of connection points: 2
#     Edge 28, Type (0, 0), BuildingBlock: KIFKEQ_clean_linker_1, # of connection points: 2
#     Edge 29, Type (0, 0), BuildingBlock: KIFKEQ_clean_linker_1, # of connection points: 2
#     Edge 30, Type (0, 0), BuildingBlock: KIFKEQ_clean_linker_1, # of connection points: 2
#     Edge 31, Type (0, 0), BuildingBlock: KIFKEQ_clean_linker_1, # of connection points: 2
#     Edge 32, Type (0, 0), BuildingBlock: KIFKEQ_clean_linker_1, # of connection points: 2
#     Edge 33, Type (0, 0), BuildingBlock: KIFKEQ_clean_linker_1, # of connection points: 2
#     Edge 34, Type (0, 0), BuildingBlock: KIFKEQ_clean_linker_1, # of connection points: 2
#     Edge 35, Type (0, 0), BuildingBlock: KIFKEQ_clean_linker_1, # of connection points: 2
# Relax obj value: 0.136
# Max RMSD: 0.111
# Mean RMSD: 0.111
data_MOF--net-can--node1-UXUYUI_clean_sbu_0--edge1-KIFKEQ_clean_linker_1
_symmetry_space_group_name_H-M    P1
_symmetry_Int_Tables_number       1
_symmetry_cell_setting            triclinic
loop_
_symmetry_equiv_pos_as_xyz
'x, y, z'
_cell_length_a     87.330008
_cell_length_b     87.31843
_cell_length_c     38.193229
_cell_angle_alpha  90.017655
_cell_angle_beta   89.996136
_cell_angle_gamma 119.99984
loop_
_atom_site_label
_atom_site_type_symbol
_atom_site_fract_x
_atom_site_fract_y
_atom_site_fract_z
_atom_type_partial_charge
Li0 Li 0.08136 0.42949 0.25146 0.0
Li1 Li 0.06567 0.40107 0.28477 0.0
Li2 Li 0.09429 0.41071 0.25237 0.0
Li3 Li 0.06726 0.40115 0.22059 0.0
C4 C 0.09631 0.43652 0.31424 0.0
N5 N 0.10907 0.46638 0.35564 0.0
C6 C 0.08701 0.43643 0.3441 0.0
C7 C 0.11217 0.45175 0.30559 0.0
C8 C 0.09367 0.45167 0.36467 0.0
C9 C 0.11838 0.46673 0.3268 0.0
C10 C 0.04185 0.40858 0.23175 0.0
C11 C 0.01249 0.38926 0.2095 0.0
N12 N 0.01384 0.40266 0.18917 0.0
C13 C 0.04291 0.4222 0.21077 0.0
C14 C 0.02649 0.392 0.23129 0.0
C15 C 0.02861 0.41893 0.18939 0.0
C16 C 0.09452 0.46417 0.22426 0.0
N17 N 0.08524 0.45299 0.25083 0.0
C18 C 0.07951 0.47465 0.27617 0.0
C19 C 0.07763 0.45782 0.27634 0.0
C20 C 0.0889 0.48644 0.24894 0.0
C21 C 0.09646 0.48104 0.22272 0.0
H22 H 0.10012 0.45985 0.20391 0.0
H23 H 0.06988 0.44847 0.29656 0.0
C24 C 0.05838 0.38457 0.35178 0.0
N25 N 0.05222 0.39082 0.32604 0.0
C26 C 0.04891 0.37823 0.38305 0.0
C27 C 0.02683 0.38452 0.3602 0.0
C28 C 0.03676 0.39084 0.3296 0.0
C29 C 0.03298 0.37832 0.38773 0.0
H30 H 0.07083 0.3849 0.34831 0.0
H31 H 0.03225 0.39601 0.30881 0.0
C32 C 0.10472 0.42617 0.19115 0.0
N33 N 0.13399 0.43341 0.15132 0.0
C34 C 0.10321 0.41498 0.16355 0.0
C35 C 0.12107 0.4411 0.19835 0.0
C36 C 0.11817 0.41886 0.14373 0.0
C37 C 0.13573 0.4445 0.17797 0.0
C38 C 0.06204 0.3691 0.24839 0.0
C39 C 0.06848 0.35996 0.22889 0.0
C40 C 0.04498 0.3599 0.26242 0.0
C41 C 0.05768 0.34179 0.22354 0.0
C42 C 0.03461 0.34173 0.25652 0.0
N43 N 0.04111 0.33313 0.23735 0.0
C44 C 0.12849 0.42008 0.27797 0.0
C45 C 0.11873 0.40041 0.2297 0.0
C46 C 0.14453 0.42017 0.27872 0.0
N47 N 0.11603 0.41036 0.25357 0.0
C48 C 0.13455 0.40009 0.22951 0.0
C49 C 0.14774 0.41007 0.25424 0.0
H50 H 0.12596 0.42772 0.29695 0.0
H51 H 0.10867 0.39287 0.21049 0.0
C52 C 0.05708 0.40313 0.15295 0.0
N53 N 0.05454 0.3909 0.17774 0.0
C54 C 0.04797 0.39798 0.12122 0.0
C55 C 0.0341 0.36758 0.14035 0.0
C56 C 0.04328 0.37336 0.17203 0.0
C57 C 0.03628 0.38 0.11466 0.0
H58 H 0.06601 0.417 0.15813 0.0
H59 H 0.04107 0.3638 0.19201 0.0
O60 O 0.08987 0.42181 0.29348 0.0
O61 O 0.05593 0.41136 0.25201 0.0
O62 O 0.09029 0.42244 0.2112 0.0
O63 O 0.07255 0.38685 0.25434 0.0
H64 H 0.07471 0.42478 0.35118 0.0
H65 H 0.11951 0.45206 0.28254 0.0
H66 H 0.08657 0.45182 0.38776 0.0
H67 H 0.13057 0.47864 0.32029 0.0
H68 H 0.00058 0.37645 0.20867 0.0
H69 H 0.05473 0.43508 0.21064 0.0
H70 H 0.02548 0.38129 0.24721 0.0
H71 H 0.02929 0.42931 0.17286 0.0
H72 H 0.07322 0.47823 0.29651 0.0
H73 H 0.10377 0.48977 0.20126 0.0
H74 H 0.05428 0.37378 0.40366 0.0
H75 H 0.0145 0.38458 0.36228 0.0
H76 H 0.09069 0.40328 0.15778 0.0
H77 H 0.12246 0.44988 0.21961 0.0
H78 H 0.11723 0.41027 0.12242 0.0
H79 H 0.14849 0.45596 0.18338 0.0
H80 H 0.08163 0.3668 0.21791 0.0
H81 H 0.03969 0.36668 0.27738 0.0
H82 H 0.06248 0.33458 0.20841 0.0
H83 H 0.02136 0.33447 0.26712 0.0
H84 H 0.15422 0.42787 0.29855 0.0
H85 H 0.13653 0.3923 0.20986 0.0
H86 H 0.05011 0.40796 0.10195 0.0
H87 H 0.02503 0.3536 0.13637 0.0
Li88 Li 0.65073 0.08026 0.74805 0.0
Li89 Li 0.66581 0.06539 0.78016 0.0
Li90 Li 0.68277 0.09293 0.74829 0.0
Li91 Li 0.66539 0.06646 0.7161 0.0
C92 C 0.67673 0.10407 0.80691 0.0
N93 N 0.69778 0.13601 0.84008 0.0
C94 C 0.6885 0.10539 0.83309 0.0
C95 C 0.67553 0.11894 0.79781 0.0
C96 C 0.69906 0.12167 0.84951 0.0
C97 C 0.68632 0.13498 0.81483 0.0
C98 C 0.63533 0.03875 0.73318 0.0
C99 C 0.63159 0.01012 0.71944 0.0
N100 N 0.61732 0.00654 0.69934 0.0
C101 C 0.6206 0.03478 0.71252 0.0
C102 C 0.64086 0.02632 0.73681 0.0
C103 C 0.61168 0.01843 0.69558 0.0
C104 C 0.62113 0.0805 0.71938 0.0
N105 N 0.63111 0.08392 0.74874 0.0
C106 C 0.61222 0.09154 0.78022 0.0
C107 C 0.62703 0.08941 0.7788 0.0
C108 C 0.60141 0.0878 0.7505 0.0
C109 C 0.60613 0.08233 0.71969 0.0
H110 H 0.62472 0.07613 0.69586 0.0
H111 H 0.63522 0.092 0.80176 0.0
C112 C 0.67791 0.05559 0.84097 0.0
N113 N 0.66369 0.0517 0.82045 0.0
C114 C 0.67579 0.046 0.87171 0.0
C115 C 0.6446 0.02821 0.85875 0.0
C116 C 0.64726 0.03831 0.82868 0.0
C117 C 0.65893 0.03212 0.88088 0.0
H118 H 0.69084 0.0663 0.8337 0.0
H119 H 0.63616 0.03563 0.81212 0.0
C120 C 0.66922 0.10185 0.68441 0.0
N121 N 0.67346 0.127 0.63549 0.0
C122 C 0.67681 0.10243 0.65184 0.0
C123 C 0.66356 0.11391 0.69187 0.0
C124 C 0.6789 0.11528 0.62753 0.0
C125 C 0.66589 0.12656 0.66686 0.0
C126 C 0.70002 0.07408 0.72893 0.0
C127 C 0.7055 0.08502 0.69948 0.0
C128 C 0.70934 0.06567 0.73917 0.0
C129 C 0.72021 0.08735 0.68062 0.0
C130 C 0.72399 0.06831 0.71961 0.0
N131 N 0.72907 0.079 0.69098 0.0
C132 C 0.71831 0.11503 0.76861 0.0
C133 C 0.70728 0.1296 0.73312 0.0
C134 C 0.73478 0.13045 0.77088 0.0
N135 N 0.70498 0.11484 0.74982 0.0
C136 C 0.72356 0.14524 0.73442 0.0
C137 C 0.7376 0.14579 0.7534 0.0
H138 H 0.71612 0.10317 0.78193 0.0
H139 H 0.69652 0.12937 0.71899 0.0
C140 C 0.65209 0.05479 0.64915 0.0
N141 N 0.66284 0.05381 0.67365 0.0
C142 C 0.64908 0.04584 0.6174 0.0
C143 C 0.66831 0.035 0.6365 0.0
C144 C 0.67084 0.04407 0.6681 0.0
C145 C 0.65731 0.03583 0.61054 0.0
H146 H 0.6457 0.06242 0.65452 0.0
H147 H 0.67912 0.04327 0.6882 0.0
O148 O 0.66671 0.08841 0.78971 0.0
O149 O 0.64462 0.0549 0.74904 0.0
O150 O 0.66677 0.08915 0.70833 0.0
O151 O 0.68563 0.07154 0.74782 0.0
H152 H 0.68962 0.09403 0.84038 0.0
H153 H 0.66651 0.11815 0.77757 0.0
H154 H 0.70833 0.12292 0.86965 0.0
H155 H 0.68562 0.14663 0.80788 0.0
H156 H 0.63578 0.00042 0.72182 0.0
H157 H 0.61619 0.04428 0.70938 0.0
H158 H 0.65235 0.02928 0.75247 0.0
H159 H 0.6003 0.0152 0.67936 0.0
H160 H 0.6093 0.09605 0.80437 0.0
H161 H 0.5981 0.07906 0.69628 0.0
H162 H 0.68717 0.04935 0.88807 0.0
H163 H 0.63136 0.01777 0.86516 0.0
H164 H 0.68095 0.093 0.64526 0.0
H165 H 0.65755 0.11361 0.71679 0.0
H166 H 0.6848 0.11591 0.60228 0.0
H167 H 0.66166 0.13604 0.67238 0.0
H168 H 0.69854 0.09174 0.69144 0.0
H169 H 0.70526 0.05717 0.76197 0.0
H170 H 0.7246 0.0958 0.65778 0.0
H171 H 0.73131 0.06187 0.72719 0.0
H172 H 0.74528 0.13029 0.78568 0.0
H173 H 0.72509 0.15686 0.72106 0.0
H174 H 0.64016 0.04657 0.59866 0.0
H175 H 0.67504 0.02757 0.63238 0.0
Li176 Li 0.60029 0.66478 0.28575 0.0
Li177 Li 0.57231 0.65181 0.25259 0.0
Li178 Li 0.60196 0.66593 0.2226 0.0
Li179 Li 0.59219 0.68443 0.25155 0.0
C180 C 0.59228 0.63167 0.26941 0.0
N181 N 0.59592 0.60607 0.3048 0.0
C182 C 0.57745 0.61697 0.28352 0.0
C183 C 0.60894 0.63323 0.27293 0.0
C184 C 0.57957 0.60419 0.3014 0.0
C185 C 0.61052 0.62019 0.29104 0.0
C186 C 0.5668 0.66838 0.3125 0.0
C187 C 0.54224 0.67347 0.31956 0.0
N188 N 0.5402 0.66758 0.35314 0.0
C189 C 0.56458 0.66257 0.34722 0.0
C190 C 0.55563 0.67403 0.29867 0.0
C191 C 0.55101 0.66219 0.36728 0.0
C192 C 0.62709 0.67357 0.33766 0.0
N193 N 0.61006 0.66207 0.32847 0.0
C194 C 0.60549 0.6456 0.38118 0.0
C195 C 0.59926 0.64835 0.34956 0.0
C196 C 0.62299 0.65728 0.39167 0.0
C197 C 0.63386 0.67141 0.36933 0.0
H198 H 0.63535 0.68451 0.32061 0.0
H199 H 0.58573 0.6395 0.34182 0.0
C200 C 0.54332 0.62368 0.21949 0.0
N201 N 0.54863 0.63242 0.25053 0.0
C202 C 0.52664 0.6086 0.2164 0.0
C203 C 0.52107 0.61196 0.2771 0.0
C204 C 0.53792 0.62686 0.27912 0.0
C205 C 0.51532 0.60253 0.24553 0.0
H206 H 0.5522 0.6283 0.19728 0.0
H207 H 0.54255 0.63362 0.3038 0.0
C208 C 0.63179 0.69405 0.24031 0.0
N209 N 0.66411 0.71032 0.2066 0.0
C210 C 0.63713 0.70955 0.22116 0.0
C211 C 0.64298 0.68696 0.2427 0.0
C212 C 0.65351 0.71755 0.20422 0.0
C213 C 0.65924 0.69533 0.22535 0.0
C214 C 0.57071 0.67239 0.19083 0.0
C215 C 0.57727 0.68104 0.15888 0.0
C216 C 0.55355 0.66774 0.20104 0.0
C217 C 0.56676 0.68536 0.13823 0.0
C218 C 0.54344 0.67226 0.17965 0.0
N219 N 0.55021 0.68093 0.14897 0.0
C220 C 0.61528 0.64936 0.17819 0.0
C221 C 0.61984 0.67687 0.1572 0.0
C222 C 0.62275 0.64696 0.14784 0.0
N223 N 0.61388 0.66408 0.18221 0.0
C224 C 0.62724 0.67492 0.12625 0.0
C225 C 0.62861 0.65972 0.12115 0.0
H226 H 0.61021 0.63926 0.19817 0.0
H227 H 0.61862 0.68846 0.16104 0.0
C228 C 0.59072 0.7133 0.28176 0.0
N229 N 0.5931 0.7068 0.25114 0.0
C230 C 0.59093 0.72939 0.28238 0.0
C231 C 0.59711 0.7324 0.22031 0.0
C232 C 0.59648 0.71609 0.22079 0.0
C233 C 0.59413 0.73913 0.25134 0.0
H234 H 0.58867 0.70599 0.30579 0.0
H235 H 0.59889 0.71095 0.19701 0.0
O236 O 0.59049 0.64443 0.25216 0.0
O237 O 0.57998 0.66873 0.29246 0.0
O238 O 0.61567 0.68585 0.25654 0.0
O239 O 0.58081 0.66796 0.21126 0.0
H240 H 0.56445 0.61547 0.28096 0.0
H241 H 0.62054 0.64443 0.26199 0.0
H242 H 0.56822 0.5928 0.31263 0.0
H243 H 0.62334 0.6213 0.29415 0.0
H244 H 0.53352 0.67781 0.30913 0.0
H245 H 0.5732 0.65836 0.35859 0.0
H246 H 0.55748 0.6791 0.27231 0.0
H247 H 0.54909 0.65763 0.39411 0.0
H248 H 0.59668 0.63435 0.39711 0.0
H249 H 0.64735 0.68089 0.37647 0.0
H250 H 0.52267 0.60174 0.19154 0.0
H251 H 0.51286 0.60752 0.30033 0.0
H252 H 0.6287 0.71528 0.21921 0.0
H253 H 0.63912 0.67508 0.25767 0.0
H254 H 0.65776 0.72949 0.18913 0.0
H255 H 0.66798 0.68992 0.2268 0.0
H256 H 0.59038 0.68452 0.15019 0.0
H257 H 0.54797 0.66056 0.22502 0.0
H258 H 0.57176 0.69219 0.11362 0.0
H259 H 0.53017 0.66879 0.18737 0.0
H260 H 0.62335 0.63494 0.14475 0.0
H261 H 0.63174 0.68514 0.10643 0.0
H262 H 0.58888 0.73431 0.30695 0.0
H263 H 0.59969 0.73958 0.19587 0.0
Li264 Li 0.9188 0.57019 0.75036 0.0
Li265 Li 0.93404 0.59886 0.78071 0.0
Li266 Li 0.90655 0.59041 0.74573 0.0
Li267 Li 0.93488 0.59913 0.71766 0.0
C268 C 0.89573 0.56652 0.80762 0.0
N269 N 0.86765 0.54149 0.84658 0.0
C270 C 0.89775 0.56473 0.84344 0.0
C271 C 0.87934 0.55575 0.79179 0.0
C272 C 0.88343 0.55194 0.86264 0.0
C273 C 0.86533 0.54314 0.81187 0.0
C274 C 0.95887 0.59052 0.7682 0.0
C275 C 0.98834 0.60963 0.79018 0.0
N276 N 0.98772 0.59564 0.80717 0.0
C277 C 0.95857 0.5763 0.78565 0.0
C278 C 0.97393 0.60729 0.77024 0.0
C279 C 0.97328 0.57917 0.80528 0.0
C280 C 0.91716 0.53976 0.72199 0.0
N281 N 0.91412 0.5464 0.75168 0.0
C282 C 0.90689 0.51993 0.78295 0.0
C283 C 0.90908 0.53688 0.78186 0.0
C284 C 0.91019 0.51277 0.75284 0.0
C285 C 0.91525 0.52289 0.72195 0.0
H286 H 0.92143 0.54775 0.69851 0.0
H287 H 0.90717 0.54256 0.80537 0.0
C288 C 0.95428 0.62687 0.82953 0.0
N289 N 0.94649 0.60922 0.8231 0.0
C290 C 0.96348 0.63388 0.86086 0.0
C291 C 0.95642 0.60444 0.87812 0.0
C292 C 0.94736 0.59802 0.84665 0.0
C293 C 0.9646 0.62259 0.88572 0.0
H294 H 0.95332 0.63547 0.81042 0.0
H295 H 0.94109 0.58406 0.84079 0.0
C296 C 0.89767 0.5675 0.68576 0.0
N297 N 0.87008 0.54628 0.64133 0.0
C298 C 0.89658 0.57358 0.65251 0.0
C299 C 0.88492 0.55044 0.69602 0.0
C300 C 0.88247 0.56272 0.63055 0.0
C301 C 0.87103 0.53996 0.67331 0.0
C302 C 0.93608 0.62931 0.73091 0.0
C303 C 0.92527 0.63376 0.71163 0.0
C304 C 0.95437 0.64077 0.73128 0.0
C305 C 0.93298 0.64953 0.69258 0.0
C306 C 0.96157 0.6564 0.71185 0.0
N307 N 0.95082 0.66042 0.69304 0.0
C308 C 0.87773 0.59193 0.77499 0.0
C309 C 0.87795 0.59216 0.71297 0.0
C310 C 0.86187 0.59216 0.7755 0.0
N311 N 0.88524 0.59157 0.74404 0.0
C312 C 0.86216 0.59259 0.71224 0.0
C313 C 0.85381 0.59237 0.74382 0.0
H314 H 0.88403 0.59194 0.79937 0.0
H315 H 0.88442 0.59242 0.68873 0.0
C316 C 0.96475 0.61074 0.67365 0.0
N317 N 0.94888 0.60999 0.67691 0.0
C318 C 0.97481 0.61757 0.64326 0.0
C319 C 0.95203 0.62273 0.62007 0.0
C320 C 0.9425 0.61597 0.65106 0.0
C321 C 0.96835 0.62345 0.61578 0.0
H322 H 0.96943 0.60569 0.69432 0.0
H323 H 0.92988 0.61528 0.65431 0.0
O324 O 0.90967 0.57897 0.78844 0.0
O325 O 0.94447 0.58804 0.74938 0.0
O326 O 0.91155 0.57793 0.70744 0.0
O327 O 0.9288 0.61381 0.74932 0.0
H328 H 0.91023 0.57309 0.85633 0.0
H329 H 0.87732 0.55734 0.76447 0.0
H330 H 0.88485 0.55035 0.89032 0.0
H331 H 0.85258 0.53474 0.79989 0.0
H332 H 1.00002 0.62256 0.7922 0.0
H333 H 0.94708 0.56322 0.78431 0.0
H334 H 0.97441 0.61842 0.75681 0.0
H335 H 0.97318 0.56831 0.81909 0.0
H336 H 0.9028 0.51258 0.80726 0.0
H337 H 0.91825 0.51809 0.69826 0.0
H338 H 0.96943 0.64793 0.86575 0.0
H339 H 0.95719 0.59526 0.89611 0.0
H340 H 0.90642 0.5866 0.64379 0.0
H341 H 0.88579 0.54519 0.72106 0.0
H342 H 0.8814 0.56736 0.60491 0.0
H343 H 0.86105 0.52676 0.68103 0.0
H344 H 0.91109 0.62509 0.71119 0.0
H345 H 0.96291 0.63757 0.74619 0.0
H346 H 0.92478 0.6531 0.67739 0.0
H347 H 0.97571 0.66533 0.7117 0.0
H348 H 0.85604 0.59233 0.80043 0.0
H349 H 0.85641 0.59279 0.68725 0.0
H350 H 0.98723 0.6177 0.64081 0.0
H351 H 0.94667 0.62728 0.59963 0.0
Li352 Li 0.33535 0.93394 0.28575 0.0
Li353 Li 0.34876 0.91905 0.255 0.0
Li354 Li 0.33533 0.93486 0.22242 0.0
Li355 Li 0.31612 0.90651 0.25218 0.0
C356 C 0.36765 0.95945 0.27163 0.0
N357 N 0.39025 0.98935 0.30926 0.0
C358 C 0.38035 0.95933 0.29369 0.0
C359 C 0.36656 0.97481 0.26835 0.0
C360 C 0.39163 0.97458 0.31259 0.0
C361 C 0.37808 0.98978 0.2877 0.0
C362 C 0.32973 0.89445 0.30776 0.0
C363 C 0.32428 0.86471 0.30025 0.0
N364 N 0.32641 0.86367 0.33528 0.0
C365 C 0.33179 0.89307 0.34371 0.0
C366 C 0.3259 0.88016 0.28586 0.0
C367 C 0.3301 0.87741 0.35711 0.0
C368 C 0.33036 0.95676 0.3329 0.0
N369 N 0.33793 0.94658 0.32811 0.0
C370 C 0.35127 0.95438 0.38477 0.0
C371 C 0.34812 0.94515 0.35332 0.0
C372 C 0.34375 0.96513 0.39053 0.0
C373 C 0.33313 0.96622 0.36407 0.0
H374 H 0.3222 0.95757 0.31256 0.0
H375 H 0.35404 0.93702 0.3487 0.0
C376 C 0.37693 0.91767 0.22372 0.0
N377 N 0.36799 0.91467 0.25438 0.0
C378 C 0.39205 0.91611 0.22192 0.0
C379 C 0.38839 0.90821 0.28325 0.0
C380 C 0.37339 0.91004 0.28391 0.0
C381 C 0.39805 0.91146 0.25203 0.0
H382 H 0.37245 0.92157 0.20078 0.0
H383 H 0.36638 0.90825 0.30823 0.0
C384 C 0.30551 0.93543 0.2395 0.0
N385 N 0.28636 0.94899 0.20794 0.0
C386 C 0.28891 0.92404 0.22504 0.0
C387 C 0.31231 0.9537 0.23816 0.0
C388 C 0.27944 0.93116 0.20916 0.0
C389 C 0.30245 0.9603 0.222 0.0
C390 C 0.32948 0.90027 0.18571 0.0
C391 C 0.32085 0.90174 0.15619 0.0
C392 C 0.3349 0.88767 0.18614 0.0
C393 C 0.31746 0.89036 0.12787 0.0
C394 C 0.33128 0.87654 0.1573 0.0
N395 N 0.32269 0.87808 0.12901 0.0
C396 C 0.35608 0.95997 0.17245 0.0
C397 C 0.3255 0.94672 0.15985 0.0
C398 C 0.36034 0.96966 0.14137 0.0
N399 N 0.33891 0.9487 0.18102 0.0
C400 C 0.32916 0.9563 0.12865 0.0
C401 C 0.34679 0.96778 0.11886 0.0
H402 H 0.36652 0.96115 0.18945 0.0
H403 H 0.31197 0.93732 0.16652 0.0
C404 C 0.28624 0.87724 0.28224 0.0
N405 N 0.29378 0.88497 0.25121 0.0
C406 C 0.27024 0.86124 0.2829 0.0
C407 C 0.26969 0.86173 0.21969 0.0
C408 C 0.28573 0.87767 0.22027 0.0
C409 C 0.26178 0.85321 0.25131 0.0
H410 H 0.2927 0.88347 0.30655 0.0
H411 H 0.29168 0.88422 0.19599 0.0
O412 O 0.3562 0.94453 0.2536 0.0
O413 O 0.33149 0.90976 0.29425 0.0
O414 O 0.31493 0.92869 0.25526 0.0
O415 O 0.33316 0.91151 0.21349 0.0
H416 H 0.38134 0.94752 0.29651 0.0
H417 H 0.35689 0.97513 0.25115 0.0
H418 H 0.40144 0.97465 0.32997 0.0
H419 H 0.37732 0.00175 0.28559 0.0
H420 H 0.32128 0.85354 0.28358 0.0
H421 H 0.33471 0.904 0.36106 0.0
H422 H 0.32399 0.88092 0.25814 0.0
H423 H 0.33171 0.87617 0.38486 0.0
H424 H 0.35978 0.95334 0.40409 0.0
H425 H 0.32689 0.97416 0.36752 0.0
H426 H 0.39905 0.91861 0.19728 0.0
H427 H 0.39274 0.9049 0.30718 0.0
H428 H 0.2834 0.90987 0.22605 0.0
H429 H 0.32514 0.9627 0.24916 0.0
H430 H 0.2666 0.9225 0.19777 0.0
H431 H 0.3076 0.97442 0.22058 0.0
H432 H 0.31655 0.91138 0.15535 0.0
H433 H 0.34193 0.88654 0.20839 0.0
H434 H 0.31065 0.89127 0.105 0.0
H435 H 0.33536 0.8667 0.15735 0.0
H436 H 0.37411 0.97845 0.13491 0.0
H437 H 0.31834 0.95429 0.11178 0.0
H438 H 0.26447 0.85532 0.30791 0.0
H439 H 0.26369 0.85601 0.19471 0.0
Li440 Li 0.42856 0.35029 0.75002 0.0
Li441 Li 0.39896 0.3346 0.78304 0.0
Li442 Li 0.41004 0.31803 0.74931 0.0
Li443 Li 0.40035 0.33541 0.71956 0.0
C444 C 0.43019 0.3261 0.80485 0.0
N445 N 0.44746 0.30942 0.83151 0.0
C446 C 0.42298 0.31446 0.83307 0.0
C447 C 0.44619 0.32928 0.7902 0.0
C448 C 0.43191 0.30615 0.84618 0.0
C449 C 0.45472 0.32072 0.80406 0.0
C450 C 0.40465 0.36674 0.73445 0.0
C451 C 0.38275 0.37391 0.71464 0.0
N452 N 0.39544 0.3878 0.69624 0.0
C453 C 0.4175 0.38118 0.7156 0.0
C454 C 0.38716 0.36316 0.73423 0.0
C455 C 0.41258 0.39165 0.69637 0.0
C456 C 0.45987 0.37823 0.72109 0.0
N457 N 0.45181 0.36996 0.75135 0.0
C458 C 0.47665 0.39072 0.78492 0.0
C459 C 0.45983 0.37578 0.78289 0.0
C460 C 0.4852 0.39992 0.75419 0.0
C461 C 0.4766 0.39336 0.72191 0.0
H462 H 0.45309 0.37329 0.69639 0.0
H463 H 0.45309 0.36886 0.80652 0.0
C464 C 0.38113 0.32205 0.84787 0.0
N465 N 0.38754 0.33563 0.82457 0.0
C466 C 0.37388 0.32334 0.87962 0.0
C467 C 0.37931 0.35224 0.86202 0.0
C468 C 0.38666 0.35049 0.83088 0.0
C469 C 0.37302 0.33866 0.88707 0.0
H470 H 0.38189 0.31033 0.84199 0.0
H471 H 0.39199 0.36114 0.81201 0.0
C472 C 0.42099 0.3255 0.67933 0.0
N473 N 0.41857 0.30777 0.61783 0.0
C474 C 0.40508 0.3105 0.67005 0.0
C475 C 0.43566 0.33152 0.65732 0.0
C476 C 0.40412 0.30171 0.63886 0.0
C477 C 0.43418 0.32237 0.62634 0.0
C478 C 0.36827 0.30527 0.74574 0.0
C479 C 0.36065 0.28906 0.72817 0.0
C480 C 0.35744 0.31143 0.7591 0.0
C481 C 0.34234 0.27949 0.7235 0.0
C482 C 0.33918 0.30147 0.75392 0.0
N483 N 0.33207 0.28585 0.73633 0.0
C484 C 0.39771 0.28267 0.76804 0.0
C485 C 0.42344 0.29501 0.73266 0.0
C486 C 0.39736 0.26652 0.7694 0.0
N487 N 0.41057 0.29645 0.74976 0.0
C488 C 0.42353 0.27906 0.73311 0.0
C489 C 0.41034 0.26449 0.75161 0.0
H490 H 0.38776 0.28429 0.78173 0.0
H491 H 0.43364 0.30624 0.71865 0.0
C492 C 0.40201 0.34941 0.65352 0.0
N493 N 0.39003 0.33793 0.67689 0.0
C494 C 0.3965 0.35275 0.62159 0.0
C495 C 0.36629 0.33223 0.63789 0.0
C496 C 0.37241 0.32937 0.66969 0.0
C497 C 0.37841 0.34407 0.61327 0.0
H498 H 0.41595 0.35614 0.6599 0.0
H499 H 0.36303 0.32034 0.6884 0.0
O500 O 0.42141 0.33396 0.79092 0.0
O501 O 0.40915 0.35607 0.75267 0.0
O502 O 0.42224 0.3344 0.70964 0.0
O503 O 0.38616 0.3147 0.75088 0.0
H504 H 0.41057 0.31178 0.84459 0.0
H505 H 0.45182 0.33807 0.76802 0.0
H506 H 0.42647 0.29707 0.86796 0.0
H507 H 0.46706 0.32298 0.79286 0.0
H508 H 0.36923 0.37119 0.714 0.0
H509 H 0.4311 0.38421 0.71558 0.0
H510 H 0.37705 0.35209 0.74872 0.0
H511 H 0.42237 0.40279 0.68149 0.0
H512 H 0.48284 0.39501 0.81033 0.0
H513 H 0.48249 0.40009 0.69757 0.0
H514 H 0.36906 0.31254 0.89819 0.0
H515 H 0.37909 0.36434 0.86695 0.0
H516 H 0.39361 0.30576 0.68667 0.0
H517 H 0.44807 0.34315 0.66415 0.0
H518 H 0.39188 0.29008 0.63136 0.0
H519 H 0.44544 0.32687 0.60906 0.0
H520 H 0.36877 0.28386 0.71835 0.0
H521 H 0.36302 0.32376 0.7733 0.0
H522 H 0.33628 0.26697 0.7098 0.0
H523 H 0.33065 0.30614 0.76394 0.0
H524 H 0.38714 0.25582 0.78456 0.0
H525 H 0.4337 0.27811 0.7187 0.0
H526 H 0.40634 0.36224 0.60385 0.0
H527 H 0.35224 0.32508 0.63252 0.0
Li528 Li 0.6006 0.93594 0.27909 0.0
Li529 Li 0.5918 0.90785 0.25032 0.0
Li530 Li 0.59974 0.9355 0.21585 0.0
Li531 Li 0.57134 0.91991 0.24768 0.0
C532 C 0.63094 0.93834 0.26329 0.0
N533 N 0.66275 0.95481 0.29883 0.0
C534 C 0.63616 0.92838 0.28343 0.0
C535 C 0.642 0.95664 0.26084 0.0
C536 C 0.65227 0.93696 0.30129 0.0
C537 C 0.658 0.96474 0.27912 0.0
C538 C 0.56932 0.89783 0.30971 0.0
C539 C 0.54215 0.87035 0.31921 0.0
N540 N 0.54844 0.86848 0.35053 0.0
C541 C 0.57538 0.89576 0.34227 0.0
C542 C 0.55245 0.88513 0.29833 0.0
C543 C 0.56469 0.88078 0.3624 0.0
C544 C 0.61322 0.96589 0.32337 0.0
N545 N 0.61187 0.94977 0.31984 0.0
C546 C 0.62451 0.95233 0.37661 0.0
C547 C 0.61751 0.94297 0.34551 0.0
C548 C 0.62583 0.96891 0.38119 0.0
C549 C 0.6203 0.97579 0.35387 0.0
H550 H 0.60842 0.97091 0.30285 0.0
H551 H 0.61635 0.93016 0.34204 0.0
C552 C 0.59172 0.8781 0.22062 0.0
N553 N 0.5932 0.88666 0.25126 0.0
C554 C 0.59218 0.86234 0.22031 0.0
C555 C 0.59678 0.865 0.28287 0.0
C556 C 0.59596 0.88057 0.28201 0.0
C557 C 0.59468 0.8555 0.25177 0.0
H558 H 0.59006 0.88344 0.19632 0.0
H559 H 0.59778 0.88794 0.30585 0.0
C560 C 0.59086 0.9601 0.2312 0.0
N561 N 0.59439 0.98924 0.19554 0.0
C562 C 0.57604 0.95978 0.21653 0.0
C563 C 0.60745 0.97533 0.22808 0.0
C564 C 0.5781 0.97462 0.19852 0.0
C565 C 0.60897 0.98989 0.20984 0.0
C566 C 0.5674 0.89804 0.18773 0.0
C567 C 0.56581 0.90158 0.15263 0.0
C568 C 0.55633 0.8811 0.2011 0.0
C569 C 0.55295 0.8882 0.1317 0.0
C570 C 0.54366 0.86807 0.17934 0.0
N571 N 0.54222 0.87186 0.14538 0.0
C572 C 0.62687 0.9539 0.1646 0.0
C573 C 0.59889 0.95072 0.15177 0.0
C574 C 0.63372 0.96284 0.13296 0.0
N575 N 0.60973 0.94807 0.17331 0.0
C576 C 0.60519 0.9597 0.12018 0.0
C577 C 0.6228 0.9658 0.11015 0.0
H578 H 0.63517 0.95145 0.18202 0.0
H579 H 0.58526 0.94578 0.15911 0.0
C580 C 0.54143 0.91847 0.27811 0.0
N581 N 0.54748 0.91513 0.24793 0.0
C582 C 0.52459 0.91663 0.27942 0.0
C583 C 0.52039 0.90757 0.21876 0.0
C584 C 0.53734 0.90975 0.21855 0.0
C585 C 0.51386 0.91127 0.24934 0.0
H586 H 0.54988 0.92298 0.30096 0.0
H587 H 0.5425 0.90757 0.19461 0.0
O588 O 0.61506 0.93021 0.24615 0.0
O589 O 0.57961 0.91251 0.28977 0.0
O590 O 0.58913 0.94561 0.24857 0.0
O591 O 0.57987 0.91106 0.20861 0.0
H592 H 0.62781 0.9142 0.28547 0.0
H593 H 0.63824 0.96451 0.24512 0.0
H594 H 0.65643 0.92943 0.31716 0.0
H595 H 0.66663 0.97891 0.27764 0.0
H596 H 0.52911 0.86041 0.31059 0.0
H597 H 0.58825 0.90553 0.35186 0.0
H598 H 0.54725 0.88671 0.27383 0.0
H599 H 0.56931 0.87896 0.38749 0.0
H600 H 0.62877 0.94663 0.39693 0.0
H601 H 0.62089 0.98842 0.35652 0.0
H602 H 0.59033 0.85551 0.19566 0.0
H603 H 0.59926 0.86062 0.30765 0.0
H604 H 0.56309 0.94817 0.21877 0.0
H605 H 0.61904 0.97587 0.23943 0.0
H606 H 0.56676 0.97451 0.18688 0.0
H607 H 0.62175 0.00171 0.20704 0.0
H608 H 0.57437 0.91451 0.14162 0.0
H609 H 0.55771 0.87792 0.22779 0.0
H610 H 0.55153 0.89079 0.10455 0.0
H611 H 0.53503 0.85491 0.1894 0.0
H612 H 0.6473 0.96708 0.1262 0.0
H613 H 0.59632 0.96189 0.1039 0.0
H614 H 0.5203 0.91992 0.30344 0.0
H615 H 0.51256 0.9032 0.19505 0.0
Li616 Li 0.66673 0.60091 0.78643 0.0
Li617 Li 0.68334 0.59087 0.75422 0.0
Li618 Li 0.66651 0.60153 0.72232 0.0
Li619 Li 0.65125 0.57208 0.75597 0.0
C620 C 0.70144 0.62718 0.77195 0.0
N621 N 0.73108 0.65124 0.80857 0.0
C622 C 0.70693 0.62182 0.80154 0.0
C623 C 0.71104 0.64476 0.7609 0.0
C624 C 0.72194 0.63418 0.81972 0.0
C625 C 0.72598 0.65674 0.77979 0.0
C626 C 0.66985 0.56926 0.81945 0.0
C627 C 0.66575 0.54109 0.83842 0.0
N628 N 0.67352 0.54847 0.86953 0.0
C629 C 0.67764 0.57651 0.85175 0.0
C630 C 0.66371 0.55136 0.81282 0.0
C631 C 0.67944 0.5658 0.87666 0.0
C632 C 0.65376 0.60004 0.85312 0.0
N633 N 0.66476 0.61155 0.82861 0.0
C634 C 0.67111 0.6361 0.86572 0.0
C635 C 0.67331 0.62932 0.83412 0.0
C636 C 0.6599 0.62448 0.89172 0.0
C637 C 0.65108 0.60622 0.88488 0.0
H638 H 0.64693 0.58599 0.84778 0.0
H639 H 0.68178 0.63823 0.814 0.0
C640 C 0.71858 0.60324 0.7328 0.0
N641 N 0.70525 0.5906 0.75245 0.0
C642 C 0.73486 0.60386 0.73055 0.0
C643 C 0.72343 0.57846 0.76876 0.0
C644 C 0.70736 0.57824 0.77001 0.0
C645 C 0.73747 0.59143 0.74894 0.0
H646 H 0.71655 0.61286 0.71886 0.0
H647 H 0.69658 0.5681 0.78484 0.0
C648 C 0.63709 0.59955 0.76925 0.0
N649 N 0.62051 0.61574 0.8012 0.0
C650 C 0.62217 0.58967 0.79009 0.0
C651 C 0.64355 0.61763 0.76449 0.0
C652 C 0.61398 0.59811 0.80606 0.0
C653 C 0.63498 0.62557 0.7809 0.0
C654 C 0.67646 0.57304 0.69635 0.0
C655 C 0.6879 0.58309 0.66938 0.0
C656 C 0.67534 0.55709 0.70616 0.0
C657 C 0.69819 0.57708 0.65286 0.0
C658 C 0.68585 0.55154 0.68901 0.0
N659 N 0.69698 0.56157 0.66296 0.0
C660 C 0.67839 0.62302 0.66094 0.0
C661 C 0.64777 0.60963 0.67351 0.0
C662 C 0.67616 0.63033 0.63009 0.0
N663 N 0.66424 0.61277 0.68168 0.0
C664 C 0.64499 0.61689 0.64332 0.0
C665 C 0.65926 0.62726 0.62101 0.0
H666 H 0.69136 0.62531 0.66814 0.0
H667 H 0.63672 0.60127 0.69027 0.0
C668 C 0.62124 0.54381 0.78673 0.0
N669 N 0.63125 0.54905 0.75719 0.0
C670 C 0.6059 0.52727 0.78812 0.0
C671 C 0.61178 0.52163 0.72904 0.0
C672 C 0.62691 0.53837 0.72865 0.0
C673 C 0.60096 0.51599 0.75893 0.0
H674 H 0.62513 0.55258 0.80908 0.0
H675 H 0.63507 0.54296 0.70544 0.0
O676 O 0.68676 0.61536 0.7537 0.0
O677 O 0.66771 0.57947 0.79494 0.0
O678 O 0.64568 0.5917 0.75434 0.0
O679 O 0.66672 0.57899 0.71363 0.0
H680 H 0.69975 0.60825 0.81023 0.0
H681 H 0.70696 0.6491 0.73798 0.0
H682 H 0.72634 0.63019 0.84266 0.0
H683 H 0.73353 0.67041 0.77158 0.0
H684 H 0.66115 0.52726 0.83355 0.0
H685 H 0.68219 0.59025 0.85765 0.0
H686 H 0.65756 0.54547 0.7881 0.0
H687 H 0.68549 0.57126 0.90172 0.0
H688 H 0.67827 0.65026 0.86985 0.0
H689 H 0.64199 0.59675 0.90365 0.0
H690 H 0.74537 0.61413 0.71509 0.0
H691 H 0.7248 0.56845 0.78286 0.0
H692 H 0.61704 0.57568 0.79409 0.0
H693 H 0.6552 0.62548 0.74869 0.0
H694 H 0.60246 0.59066 0.82239 0.0
H695 H 0.63989 0.63958 0.77764 0.0
H696 H 0.68896 0.59548 0.66155 0.0
H697 H 0.6666 0.54919 0.72705 0.0
H698 H 0.70718 0.58477 0.63209 0.0
H699 H 0.68521 0.53928 0.69649 0.0
H700 H 0.68749 0.63832 0.61358 0.0
H701 H 0.63172 0.61402 0.63699 0.0
H702 H 0.59799 0.52333 0.81177 0.0
H703 H 0.60832 0.51338 0.7059 0.0
Li704 Li 0.09314 0.68245 0.24832 0.0
Li705 Li 0.06584 0.66503 0.27976 0.0
Li706 Li 0.0794 0.65067 0.24711 0.0
Li707 Li 0.06449 0.66462 0.21553 0.0
C708 C 0.10306 0.67609 0.3088 0.0
N709 N 0.13247 0.69711 0.34919 0.0
C710 C 0.10175 0.68543 0.33728 0.0
C711 C 0.11928 0.67733 0.301 0.0
C712 C 0.11679 0.696 0.35737 0.0
C713 C 0.13401 0.68807 0.32168 0.0
C714 C 0.06168 0.69299 0.25182 0.0
C715 C 0.03414 0.69276 0.24417 0.0
N716 N 0.04134 0.70889 0.25979 0.0
C717 C 0.06883 0.70962 0.26761 0.0
C718 C 0.04421 0.68452 0.23987 0.0
C719 C 0.05832 0.71741 0.27149 0.0
C720 C 0.12759 0.70727 0.22389 0.0
N721 N 0.11508 0.70429 0.24831 0.0
C722 C 0.1337 0.73268 0.27395 0.0
C723 C 0.11779 0.71663 0.27296 0.0
C724 C 0.14694 0.73614 0.24916 0.0
C725 C 0.1437 0.72316 0.22386 0.0
H726 H 0.12507 0.69732 0.20439 0.0
H727 H 0.10759 0.71397 0.29197 0.0
C728 C 0.05471 0.65184 0.34675 0.0
N729 N 0.05332 0.66261 0.32282 0.0
C730 C 0.04588 0.64836 0.37876 0.0
C731 C 0.03462 0.66747 0.36158 0.0
C732 C 0.04353 0.67044 0.3297 0.0
C733 C 0.03564 0.65622 0.38664 0.0
H734 H 0.06257 0.64577 0.34073 0.0
H735 H 0.04251 0.67897 0.31067 0.0
C736 C 0.09458 0.65941 0.18443 0.0
N737 N 0.10683 0.64258 0.14092 0.0
C738 C 0.0852 0.65085 0.15415 0.0
C739 C 0.11026 0.65953 0.19244 0.0
C740 C 0.0916 0.6424 0.13252 0.0
C741 C 0.1162 0.6509 0.17017 0.0
C742 C 0.04013 0.63229 0.26713 0.0
C743 C 0.04137 0.6194 0.28661 0.0
C744 C 0.02471 0.63337 0.26885 0.0
C745 C 0.02718 0.60788 0.30774 0.0
C746 C 0.01083 0.62163 0.29035 0.0
N747 N 0.01235 0.60924 0.3092 0.0
C748 C 0.0921 0.62827 0.27153 0.0
C749 C 0.07509 0.61884 0.2195 0.0
C750 C 0.0939 0.61323 0.27139 0.0
N751 N 0.08284 0.63077 0.24578 0.0
C752 C 0.07679 0.6038 0.21799 0.0
C753 C 0.08616 0.60068 0.24436 0.0
H754 H 0.09778 0.63776 0.29259 0.0
H755 H 0.06747 0.62097 0.19978 0.0
C756 C 0.05825 0.67563 0.14969 0.0
N757 N 0.05133 0.66277 0.17452 0.0
C758 C 0.04902 0.67371 0.11856 0.0
C759 C 0.02561 0.64555 0.13963 0.0
C760 C 0.03535 0.64793 0.17012 0.0
C761 C 0.03248 0.65846 0.11321 0.0
H762 H 0.07107 0.68723 0.15387 0.0
H763 H 0.0303 0.63781 0.1901 0.0
O764 O 0.08857 0.66592 0.28844 0.0
O765 O 0.07188 0.68528 0.24749 0.0
O766 O 0.0884 0.66756 0.20619 0.0
O767 O 0.05407 0.644 0.24701 0.0
H768 H 0.08934 0.68473 0.34354 0.0
H769 H 0.12051 0.6702 0.27904 0.0
H770 H 0.116 0.70338 0.37937 0.0
H771 H 0.14667 0.68925 0.31582 0.0
H772 H 0.02058 0.68631 0.23518 0.0
H773 H 0.08235 0.71644 0.27681 0.0
H774 H 0.0384 0.67166 0.22773 0.0
H775 H 0.06368 0.73025 0.28375 0.0
H776 H 0.13549 0.74238 0.29362 0.0
H777 H 0.15358 0.72518 0.20445 0.0
H778 H 0.04688 0.63935 0.39685 0.0
H779 H 0.02713 0.67406 0.36659 0.0
H780 H 0.07303 0.6506 0.14756 0.0
H781 H 0.11765 0.66604 0.2158 0.0
H782 H 0.08444 0.63566 0.10909 0.0
H783 H 0.12825 0.65078 0.17617 0.0
H784 H 0.05322 0.61842 0.28581 0.0
H785 H 0.02351 0.64326 0.25404 0.0
H786 H 0.028 0.59791 0.32311 0.0
H787 H 0.99887 0.6224 0.29211 0.0
H788 H 0.10091 0.6113 0.29273 0.0
H789 H 0.0708 0.59472 0.19632 0.0
H790 H 0.05473 0.684 0.0989 0.0
H791 H 0.01306 0.63347 0.13634 0.0
Li792 Li 0.40922 0.09421 0.75389 0.0
Li793 Li 0.4001 0.06586 0.78365 0.0
Li794 Li 0.42938 0.08167 0.75127 0.0
Li795 Li 0.40114 0.06687 0.72041 0.0
C796 C 0.42831 0.10003 0.82118 0.0
N797 N 0.44268 0.12125 0.87952 0.0
C798 C 0.41754 0.09855 0.84955 0.0
C799 C 0.44644 0.11217 0.82269 0.0
C800 C 0.42503 0.10944 0.87873 0.0
C801 C 0.45343 0.12281 0.85235 0.0
C802 C 0.36971 0.06522 0.76655 0.0
C803 C 0.3419 0.04026 0.78429 0.0
N804 N 0.33699 0.05152 0.7981 0.0
C805 C 0.36437 0.07655 0.78077 0.0
C806 C 0.35837 0.04693 0.76814 0.0
C807 C 0.34778 0.06937 0.79665 0.0
C808 C 0.40907 0.12365 0.72353 0.0
N809 N 0.40841 0.11577 0.75465 0.0
C810 C 0.40704 0.13885 0.78573 0.0
C811 C 0.40718 0.12292 0.78542 0.0
C812 C 0.40821 0.14753 0.75405 0.0
C813 C 0.40915 0.13968 0.72263 0.0
H814 H 0.40961 0.11752 0.69932 0.0
H815 H 0.40619 0.11624 0.80974 0.0
C816 C 0.39611 0.04096 0.83366 0.0
N817 N 0.3899 0.05197 0.82504 0.0
C818 C 0.39078 0.03123 0.86469 0.0
C819 C 0.37241 0.04399 0.87728 0.0
C820 C 0.37824 0.05363 0.84612 0.0
C821 C 0.37889 0.03279 0.88712 0.0
H822 H 0.40553 0.04002 0.81673 0.0
H823 H 0.37383 0.0628 0.83941 0.0
C824 C 0.43515 0.10665 0.69956 0.0
N825 N 0.46266 0.13806 0.67434 0.0
C826 C 0.43863 0.10891 0.66365 0.0
C827 C 0.44561 0.12038 0.72262 0.0
C828 C 0.45262 0.12488 0.65141 0.0
C829 C 0.45946 0.13615 0.70937 0.0
C830 C 0.40793 0.04143 0.73404 0.0
C831 C 0.42069 0.04184 0.71136 0.0
C832 C 0.39159 0.02594 0.73737 0.0
C833 C 0.41677 0.02675 0.69194 0.0
C834 C 0.38818 0.01113 0.71747 0.0
N835 N 0.40072 0.01185 0.69533 0.0
C836 C 0.45878 0.08263 0.7825 0.0
C837 C 0.46311 0.09091 0.72264 0.0
C838 C 0.47545 0.08414 0.78422 0.0
N839 N 0.45297 0.08599 0.75204 0.0
C840 C 0.47992 0.09269 0.72324 0.0
C841 C 0.4862 0.08909 0.75424 0.0
H842 H 0.4503 0.07849 0.80532 0.0
H843 H 0.45799 0.09298 0.69846 0.0
C844 C 0.37344 0.04348 0.67365 0.0
N845 N 0.39114 0.05429 0.67795 0.0
C846 C 0.36683 0.03401 0.64247 0.0
C847 C 0.39677 0.04715 0.62073 0.0
C848 C 0.40277 0.05636 0.65222 0.0
C849 C 0.37857 0.03574 0.6155 0.0
H850 H 0.36446 0.04215 0.6944 0.0
H851 H 0.41679 0.06496 0.65648 0.0
O852 O 0.42126 0.08925 0.79261 0.0
O853 O 0.38587 0.07203 0.75078 0.0
O854 O 0.42154 0.09105 0.71191 0.0
O855 O 0.41134 0.05621 0.75252 0.0
H856 H 0.4035 0.08932 0.84882 0.0
H857 H 0.45507 0.11334 0.80129 0.0
H858 H 0.41681 0.10851 0.90074 0.0
H859 H 0.46743 0.13228 0.85381 0.0
H860 H 0.33303 0.02613 0.78591 0.0
H861 H 0.37293 0.09074 0.77956 0.0
H862 H 0.36233 0.03797 0.75741 0.0
H863 H 0.34348 0.07798 0.80784 0.0
H864 H 0.40631 0.14445 0.81056 0.0
H865 H 0.40974 0.14577 0.69758 0.0
H866 H 0.396 0.02263 0.87118 0.0
H867 H 0.36342 0.04576 0.89408 0.0
H868 H 0.43062 0.09842 0.64542 0.0
H869 H 0.44294 0.11893 0.75036 0.0
H870 H 0.45548 0.1268 0.62369 0.0
H871 H 0.46764 0.1469 0.72695 0.0
H872 H 0.43339 0.05375 0.70847 0.0
H873 H 0.38164 0.0254 0.75499 0.0
H874 H 0.42646 0.02691 0.67407 0.0
H875 H 0.37555 0.99908 0.71961 0.0
H876 H 0.47983 0.08135 0.8087 0.0
H877 H 0.48765 0.09624 0.69939 0.0
H878 H 0.35269 0.02553 0.63944 0.0
H879 H 0.40634 0.04869 0.60099 0.0
Li880 Li 0.33658 0.40099 0.28026 0.0
Li881 Li 0.31747 0.41003 0.25096 0.0
Li882 Li 0.33622 0.40068 0.21705 0.0
Li883 Li 0.35003 0.42965 0.24647 0.0
C884 C 0.30735 0.37098 0.26727 0.0
N885 N 0.29048 0.3401 0.30576 0.0
C886 C 0.2923 0.36704 0.28683 0.0
C887 C 0.3137 0.35912 0.26693 0.0
C888 C 0.28398 0.35137 0.30619 0.0
C889 C 0.30503 0.34362 0.28668 0.0
C890 C 0.33181 0.43359 0.30966 0.0
C891 C 0.33254 0.46132 0.3186 0.0
N892 N 0.32592 0.45603 0.35139 0.0
C893 C 0.32529 0.42858 0.34368 0.0
C894 C 0.3357 0.45021 0.2972 0.0
C895 C 0.32228 0.44004 0.36427 0.0
C896 C 0.35404 0.38894 0.32535 0.0
N897 N 0.33926 0.39026 0.32168 0.0
C898 C 0.32928 0.37799 0.37873 0.0
C899 C 0.3269 0.38485 0.34747 0.0
C900 C 0.34452 0.37664 0.3834 0.0
C901 C 0.3569 0.38205 0.35604 0.0
H902 H 0.36381 0.39359 0.30474 0.0
H903 H 0.31527 0.38606 0.34396 0.0
C904 C 0.28721 0.40883 0.2215 0.0
N905 N 0.29528 0.40944 0.25232 0.0
C906 C 0.27118 0.40877 0.22122 0.0
C907 C 0.27172 0.40932 0.28446 0.0
C908 C 0.28776 0.40943 0.28349 0.0
C909 C 0.26324 0.4091 0.25302 0.0
H910 H 0.2933 0.40853 0.19705 0.0
H911 H 0.29408 0.40927 0.30765 0.0
C912 C 0.36942 0.4086 0.23147 0.0
N913 N 0.39355 0.40279 0.19571 0.0
C914 C 0.38403 0.42267 0.21524 0.0
C915 C 0.36721 0.39162 0.22988 0.0
C916 C 0.39606 0.41945 0.19722 0.0
C917 C 0.37951 0.38894 0.21155 0.0
C918 C 0.33154 0.43308 0.18699 0.0
C919 C 0.33642 0.43433 0.15178 0.0
C920 C 0.32571 0.44423 0.20008 0.0
C921 C 0.33574 0.44699 0.13048 0.0
C922 C 0.32519 0.45669 0.17794 0.0
N923 N 0.33021 0.45783 0.1439 0.0
C924 C 0.32706 0.37213 0.16897 0.0
C925 C 0.35146 0.39989 0.15312 0.0
C926 C 0.3293 0.36433 0.13884 0.0
N927 N 0.33818 0.38959 0.17557 0.0
C928 C 0.35434 0.39261 0.12309 0.0
C929 C 0.34323 0.3746 0.11571 0.0
H930 H 0.31653 0.36426 0.18716 0.0
H931 H 0.35996 0.41378 0.15876 0.0
C932 C 0.3787 0.46009 0.27487 0.0
N933 N 0.3694 0.45329 0.24482 0.0
C934 C 0.39377 0.47688 0.275 0.0
C935 C 0.38929 0.47944 0.21333 0.0
C936 C 0.3744 0.46256 0.21435 0.0
C937 C 0.39934 0.48678 0.24385 0.0
H938 H 0.37457 0.4523 0.29861 0.0
H939 H 0.36711 0.45675 0.1906 0.0
O940 O 0.31583 0.38637 0.24856 0.0
O941 O 0.33491 0.42253 0.28925 0.0
O942 O 0.35734 0.41146 0.24875 0.0
O943 O 0.33219 0.42077 0.2082 0.0
H944 H 0.28717 0.37602 0.28726 0.0
H945 H 0.32526 0.36192 0.25174 0.0
H946 H 0.27237 0.3482 0.32161 0.0
H947 H 0.30987 0.33438 0.28684 0.0
H948 H 0.33544 0.47418 0.30919 0.0
H949 H 0.32244 0.41591 0.35403 0.0
H950 H 0.34131 0.45462 0.27148 0.0
H951 H 0.31709 0.43624 0.39051 0.0
H952 H 0.31934 0.37383 0.39905 0.0
H953 H 0.36896 0.38148 0.35875 0.0
H954 H 0.26521 0.40871 0.19633 0.0
H955 H 0.2659 0.40915 0.3096 0.0
H956 H 0.386 0.43591 0.21631 0.0
H957 H 0.35603 0.3806 0.2424 0.0
H958 H 0.40737 0.43019 0.18436 0.0
H959 H 0.37788 0.37583 0.20988 0.0
H960 H 0.34074 0.42568 0.14101 0.0
H961 H 0.32133 0.4431 0.22687 0.0
H962 H 0.33959 0.44817 0.10325 0.0
H963 H 0.32072 0.46541 0.18779 0.0
H964 H 0.32047 0.35038 0.13401 0.0
H965 H 0.36506 0.40104 0.10564 0.0
H966 H 0.40123 0.4818 0.29903 0.0
H967 H 0.39293 0.48659 0.18878 0.0
Li968 Li 0.90679 0.31563 0.75633 0.0
Li969 Li 0.93532 0.3354 0.78344 0.0
Li970 Li 0.91862 0.34805 0.75259 0.0
Li971 Li 0.9338 0.33508 0.72048 0.0
C972 C 0.89806 0.32914 0.81703 0.0
N973 N 0.87038 0.32221 0.86171 0.0
C974 C 0.89711 0.3219 0.85016 0.0
C975 C 0.88511 0.33322 0.80704 0.0
C976 C 0.88296 0.31837 0.87225 0.0
C977 C 0.87118 0.32953 0.82987 0.0
C978 C 0.93692 0.30694 0.76932 0.0
C979 C 0.96287 0.30585 0.7869 0.0
N980 N 0.95256 0.29131 0.80666 0.0
C981 C 0.92656 0.29192 0.78959 0.0
C982 C 0.9552 0.3139 0.76772 0.0
C983 C 0.93472 0.28422 0.80834 0.0
C984 C 0.87798 0.28517 0.72741 0.0
N985 N 0.88569 0.293 0.75826 0.0
C986 C 0.86319 0.26854 0.79029 0.0
C987 C 0.87878 0.28492 0.78937 0.0
C988 C 0.85464 0.26032 0.75884 0.0
C989 C 0.86232 0.26887 0.72709 0.0
H990 H 0.88391 0.29169 0.70298 0.0
H991 H 0.88545 0.29107 0.81349 0.0
C992 C 0.96584 0.35392 0.82539 0.0
N993 N 0.9499 0.33882 0.8234 0.0
C994 C 0.97625 0.35773 0.8554 0.0
C995 C 0.95373 0.33031 0.88082 0.0
C996 C 0.94386 0.32693 0.85008 0.0
C997 C 0.97008 0.34605 0.88406 0.0
H998 H 0.97032 0.36323 0.80398 0.0
H999 H 0.93117 0.31499 0.84785 0.0
C1000 C 0.89516 0.32913 0.69587 0.0
N1001 N 0.86685 0.32668 0.65869 0.0
C1002 C 0.89707 0.33387 0.6605 0.0
C1003 C 0.87875 0.32284 0.7121 0.0
C1004 C 0.88263 0.33264 0.64222 0.0
C1005 C 0.86462 0.32177 0.69293 0.0
C1006 C 0.95843 0.36839 0.73301 0.0
C1007 C 0.9578 0.38248 0.71708 0.0
C1008 C 0.9735 0.36681 0.72914 0.0
C1009 C 0.97219 0.39463 0.69715 0.0
C1010 C 0.9876 0.37921 0.70895 0.0
N1011 N 0.98666 0.39275 0.69348 0.0
C1012 C 0.91739 0.37637 0.78349 0.0
C1013 C 0.90836 0.37198 0.72406 0.0
C1014 C 0.91567 0.39141 0.78535 0.0
N1015 N 0.91381 0.36706 0.75314 0.0
C1016 C 0.90635 0.38687 0.72481 0.0
C1017 C 0.91024 0.39692 0.75563 0.0
H1018 H 0.9219 0.37226 0.80609 0.0
H1019 H 0.9061 0.36472 0.69995 0.0
C1020 C 0.9538 0.32792 0.66983 0.0
N1021 N 0.94591 0.33757 0.67743 0.0
C1022 C 0.96293 0.3306 0.63823 0.0
C1023 C 0.95556 0.35303 0.62309 0.0
C1024 C 0.94658 0.34988 0.65478 0.0
C1025 C 0.96387 0.34331 0.61432 0.0
H1026 H 0.95301 0.31816 0.68828 0.0
H1027 H 0.94029 0.35744 0.66161 0.0
O1028 O 0.91196 0.33285 0.79523 0.0
O1029 O 0.92919 0.31483 0.75124 0.0
O1030 O 0.90922 0.33031 0.71415 0.0
O1031 O 0.94433 0.35617 0.75212 0.0
H1032 H 0.90709 0.31889 0.85869 0.0
H1033 H 0.88584 0.33937 0.78211 0.0
H1034 H 0.88201 0.31262 0.8978 0.0
H1035 H 0.86105 0.33256 0.82233 0.0
H1036 H 0.97703 0.31117 0.78609 0.0
H1037 H 0.91239 0.28632 0.79102 0.0
H1038 H 0.9634 0.32547 0.75206 0.0
H1039 H 0.92688 0.27265 0.82429 0.0
H1040 H 0.85804 0.26229 0.81536 0.0
H1041 H 0.85618 0.2632 0.70219 0.0
H1042 H 0.9889 0.36984 0.85622 0.0
H1043 H 0.94828 0.32096 0.90219 0.0
H1044 H 0.90955 0.3385 0.64725 0.0
H1045 H 0.87681 0.3185 0.73899 0.0
H1046 H 0.88397 0.33637 0.61491 0.0
H1047 H 0.85186 0.31693 0.70524 0.0
H1048 H 0.9463 0.38397 0.71985 0.0
H1049 H 0.97423 0.35602 0.74131 0.0
H1050 H 0.97185 0.40554 0.68453 0.0
H1051 H 0.99928 0.37806 0.70552 0.0
H1052 H 0.91868 0.39872 0.8097 0.0
H1053 H 0.90241 0.39084 0.70116 0.0
H1054 H 0.969 0.3227 0.63243 0.0
H1055 H 0.95621 0.3632 0.6059 0.0
H1056 H 0.01748 0.39358 0.08419 0.0
H1057 H 0.03232 0.35368 0.07031 0.0
H1058 H 0.0013 0.38485 0.02911 0.0
H1059 H 0.01671 0.34529 0.01432 0.0
H1060 H 0.97349 0.32386 0.9307 0.0
H1061 H 0.98869 0.33147 0.98688 0.0
H1062 H 0.00581 0.38657 0.96852 0.0
H1063 H 0.98956 0.37884 0.9139 0.0
C1064 C 0.0174 0.38303 0.06908 0.0
C1065 C 0.02621 0.37436 0.08138 0.0
C1066 C 0.0082 0.37807 0.03739 0.0
C1067 C 0.00779 0.36445 0.01691 0.0
C1068 C 0.01651 0.35567 0.0295 0.0
C1069 C 0.02552 0.3605 0.0615 0.0
C1070 C 0.98031 0.33757 0.93882 0.0
C1071 C 0.98021 0.35069 0.91758 0.0
C1072 C 0.98926 0.34199 0.97091 0.0
C1073 C 0.99847 0.35966 0.98247 0.0
C1074 C 0.99862 0.37278 0.96092 0.0
C1075 C 0.98952 0.36836 0.92911 0.0
H1076 H 0.64934 0.00409 0.39082 0.0
H1077 H 0.61644 0.95573 0.4474 0.0
H1078 H 0.65851 0.02034 0.44595 0.0
H1079 H 0.62512 0.97196 0.50249 0.0
H1080 H 0.65383 0.00317 0.59879 0.0
H1081 H 0.64819 0.98738 0.54347 0.0
H1082 H 0.64708 0.03055 0.49048 0.0
H1083 H 0.65387 0.04678 0.54522 0.0
C1084 C 0.64404 0.99696 0.41509 0.0
C1085 C 0.63216 0.97865 0.41479 0.0
C1086 C 0.64922 0.00626 0.44672 0.0
C1087 C 0.64249 0.99752 0.47881 0.0
C1088 C 0.63082 0.97913 0.47844 0.0
C1089 C 0.62579 0.9698 0.44683 0.0
C1090 C 0.65271 0.00945 0.57524 0.0
C1091 C 0.65426 0.02626 0.57663 0.0
C1092 C 0.64923 1.00026 0.54352 0.0
C1093 C 0.64708 0.00761 0.51238 0.0
C1094 C 0.64886 0.02452 0.51374 0.0
C1095 C 0.65248 0.03375 0.54536 0.0
H1096 H 0.61993 0.66435 0.05489 0.0
H1097 H 0.65213 0.64806 0.11163 0.0
H1098 H 0.62887 0.65711 0.99977 0.0
H1099 H 0.66154 0.64126 0.05648 0.0
H1100 H 0.65628 0.61002 0.95696 0.0
H1101 H 0.64984 0.61971 0.01177 0.0
H1102 H 0.6521 0.66459 0.95906 0.0
H1103 H 0.65744 0.65424 0.90364 0.0
C1104 C 0.6292 0.65953 0.0555 0.0
C1105 C 0.63527 0.6567 0.08757 0.0
C1106 C 0.63438 0.65541 0.02388 0.0
C1107 C 0.64588 0.6485 0.02355 0.0
C1108 C 0.65238 0.6462 0.05569 0.0
C1109 C 0.64705 0.65016 0.08732 0.0
C1110 C 0.65524 0.62187 0.95691 0.0
C1111 C 0.65721 0.63122 0.92568 0.0
C1112 C 0.65182 0.6276 0.98856 0.0
C1113 C 0.65043 0.64296 0.98999 0.0
C1114 C 0.65283 0.65257 0.95892 0.0
C1115 C 0.65614 0.64676 0.92716 0.0
H1116 H 0.00292 0.65239 0.39909 0.0
H1117 H 0.04648 0.65173 0.4514 0.0
H1118 H 0.98714 0.64617 0.45442 0.0
H1119 H 0.03019 0.6443 0.50618 0.0
H1120 H 0.00372 0.64624 0.60658 0.0
H1121 H 0.02009 0.65536 0.55158 0.0
H1122 H 0.97162 0.62287 0.49455 0.0
H1123 H 0.95529 0.61427 0.54948 0.0
C1124 C 0.00919 0.65098 0.42236 0.0
C1125 C 0.02601 0.65256 0.42061 0.0
C1126 C 1.0 0.64714 0.45409 0.0
C1127 C 0.00731 0.64463 0.4849 0.0
C1128 C 0.02419 0.64635 0.48318 0.0
C1129 C 0.03345 0.65035 0.45154 0.0
C1130 C 0.9966 0.64112 0.58222 0.0
C1131 C 0.97824 0.62956 0.58231 0.0
C1132 C 0.00598 0.64627 0.55067 0.0
C1133 C 0.99723 0.63982 0.51847 0.0
C1134 C 0.9788 0.62838 0.51868 0.0
C1135 C 0.96941 0.62339 0.5502 0.0
H1136 H 0.34588 0.01417 0.91628 0.0
H1137 H 0.40062 0.03018 0.93498 0.0
H1138 H 0.33775 0.99825 0.97194 0.0
H1139 H 0.39268 0.01479 0.9909 0.0
H1140 H 0.37131 0.97079 0.07106 0.0
H1141 H 0.37855 0.98613 0.01508 0.0
H1142 H 0.33946 0.00178 0.03387 0.0
H1143 H 0.3319 0.9859 0.08957 0.0
C1144 C 0.35618 0.0144 0.93247 0.0
C1145 C 0.37386 0.02329 0.92115 0.0
C1146 C 0.35155 0.00534 0.96444 0.0
C1147 C 0.36453 0.00513 0.98599 0.0
C1148 C 0.38225 0.01428 0.97475 0.0
C1149 C 0.38683 0.02316 0.94269 0.0
C1150 C 0.36434 0.97759 0.06329 0.0
C1151 C 0.35112 0.97723 0.08479 0.0
C1152 C 0.36851 0.98645 0.03121 0.0
C1153 C 0.3597 0.99535 0.01991 0.0
C1154 C 0.34638 0.99489 0.04142 0.0
C1155 C 0.34208 0.98586 0.07341 0.0
H1156 H 0.34005 0.38553 0.44969 0.0
H1157 H 0.35677 0.35359 0.39315 0.0
H1158 H 0.34732 0.37668 0.50487 0.0
H1159 H 0.36372 0.34439 0.44836 0.0
H1160 H 0.3941 0.34912 0.5489 0.0
H1161 H 0.3851 0.35625 0.49393 0.0
H1162 H 0.3393 0.35286 0.54482 0.0
H1163 H 0.34889 0.34675 0.60037 0.0
C1164 C 0.345 0.37637 0.44911 0.0
C1165 C 0.34789 0.37031 0.41706 0.0
C1166 C 0.34915 0.37126 0.48077 0.0
C1167 C 0.35618 0.35985 0.48117 0.0
C1168 C 0.35866 0.35346 0.44907 0.0
C1169 C 0.35463 0.35868 0.41741 0.0
C1170 C 0.3822 0.35006 0.54852 0.0
C1171 C 0.37231 0.34747 0.57924 0.0
C1172 C 0.37688 0.3539 0.51679 0.0
C1173 C 0.36144 0.35512 0.51481 0.0
C1174 C 0.35138 0.35224 0.54541 0.0
C1175 C 0.35676 0.3485 0.57722 0.0
H1176 H 0.95501 0.60751 0.95062 0.0
H1177 H 0.99593 0.65338 0.8972 0.0
H1178 H 0.97151 0.61762 0.005 0.0
H1179 H 0.01209 0.66401 0.95223 0.0
H1180 H 0.04558 0.66403 0.04651 0.0
H1181 H 0.02904 0.65683 0.99173 0.0
H1182 H 0.98064 0.63942 0.04988 0.0
H1183 H 0.99718 0.64631 0.10458 0.0
C1184 C 0.96751 0.61981 0.95049 0.0
C1185 C 0.9742 0.62954 0.9194 0.0
C1186 C 0.97688 0.62576 0.98186 0.0
C1187 C 0.99316 0.64166 0.9831 0.0
C1188 C 0.99969 0.6516 0.95217 0.0
C1189 C 0.99032 0.64561 0.92068 0.0
C1190 C 0.03144 0.6589 0.04752 0.0
C1191 C 0.02266 0.65561 0.07986 0.0
C1192 C 0.02195 0.6548 0.01612 0.0
C1193 C 0.00346 0.64741 0.01633 0.0
C1194 C 0.9948 0.64474 0.04871 0.0
C1195 C 0.00428 0.64873 0.08008 0.0
H1196 H 0.35004 0.99897 0.39938 0.0
H1197 H 0.34539 0.95426 0.45701 0.0
H1198 H 0.35677 0.01587 0.45362 0.0
H1199 H 0.35291 0.9714 0.51089 0.0
H1200 H 0.39018 0.04702 0.54873 0.0
H1201 H 0.38078 0.02984 0.49484 0.0
H1202 H 0.34215 0.98437 0.55288 0.0
H1203 H 0.35212 0.00134 0.60706 0.0
C1204 C 0.35034 0.9927 0.42363 0.0
C1205 C 0.34723 0.97526 0.42376 0.0
C1206 C 0.35441 0.00247 0.45469 0.0
C1207 C 0.35547 0.99504 0.48665 0.0
C1208 C 0.35204 0.9775 0.48686 0.0
C1209 C 0.34795 0.96773 0.45584 0.0
C1210 C 0.37975 0.03332 0.55005 0.0
C1211 C 0.372 0.02554 0.58231 0.0
C1212 C 0.37419 0.02353 0.51905 0.0
C1213 C 0.36071 0.0057 0.51947 0.0
C1214 C 0.35271 0.99801 0.55163 0.0
C1215 C 0.35829 0.00781 0.58267 0.0
H1216 H 0.38158 0.33222 0.95202 0.0
H1217 H 0.34994 0.35058 0.8996 0.0
H1218 H 0.37299 0.33861 0.00873 0.0
H1219 H 0.34143 0.35705 0.9563 0.0
H1220 H 0.31899 0.35337 0.06676 0.0
H1221 H 0.32464 0.34226 0.01215 0.0
H1222 H 0.38008 0.36727 0.03844 0.0
H1223 H 0.37443 0.37828 0.09287 0.0
C1224 C 0.37257 0.33735 0.95266 0.0
C1225 C 0.36647 0.34096 0.92141 0.0
C1226 C 0.36777 0.34113 0.98507 0.0
C1227 C 0.3566 0.34839 0.98691 0.0
C1228 C 0.34995 0.35135 0.9557 0.0
C1229 C 0.35493 0.34778 0.92327 0.0
C1230 C 0.33232 0.35627 0.061 0.0
C1231 C 0.34629 0.36675 0.08391 0.0
C1232 C 0.33557 0.35003 0.0297 0.0
C1233 C 0.3528 0.35392 0.02105 0.0
C1234 C 0.36665 0.36393 0.04454 0.0
C1235 C 0.36345 0.37036 0.07553 0.0
H1236 H 0.99544 0.3445 0.60168 0.0
H1237 H 0.95415 0.34965 0.55032 0.0
H1238 H 0.01209 0.35204 0.54681 0.0
H1239 H 0.97089 0.35743 0.49592 0.0
H1240 H 0.01587 0.39303 0.42167 0.0
H1241 H 0.99893 0.38332 0.47566 0.0
H1242 H 0.01093 0.34116 0.48505 0.0
H1243 H 0.0277 0.35066 0.43032 0.0
C1244 C 0.9898 0.34701 0.57864 0.0
C1245 C 0.97353 0.34666 0.58054 0.0
C1246 C 0.99936 0.35136 0.54725 0.0
C1247 C 0.99289 0.35552 0.51718 0.0
C1248 C 0.97639 0.35464 0.51883 0.0
C1249 C 0.96682 0.35021 0.55005 0.0
C1250 C 0.01473 0.38153 0.43487 0.0
C1251 C 0.02302 0.37252 0.42133 0.0
C1252 C 0.00505 0.376 0.46592 0.0
C1253 C 0.00347 0.36139 0.48445 0.0
C1254 C 0.012 0.35254 0.47142 0.0
C1255 C 0.02163 0.35801 0.44012 0.0
H1256 H 0.67036 0.04529 0.94654 0.0
H1257 H 0.64074 0.99635 0.88965 0.0
H1258 H 0.66281 0.02894 0.0016 0.0
H1259 H 0.6337 0.97986 0.94439 0.0
H1260 H 0.60512 0.95846 0.04768 0.0
H1261 H 0.61517 0.97438 0.99286 0.0
H1262 H 0.66626 0.00918 0.03903 0.0
H1263 H 0.65573 0.9939 0.09484 0.0
C1264 C 0.66254 0.03099 0.94582 0.0
C1265 C 0.65601 0.02209 0.9139 0.0
C1266 C 0.65824 0.02158 0.97737 0.0
C1267 C 0.64747 0.00304 0.97762 0.0
C1268 C 0.64163 0.99414 0.94539 0.0
C1269 C 0.64574 0.00356 0.91396 0.0
C1270 C 0.61844 0.96963 0.04637 0.0
C1271 C 0.62952 0.97497 0.07595 0.0
C1272 C 0.62434 0.97861 0.01462 0.0
C1273 C 0.64158 0.9931 0.0113 0.0
C1274 C 0.65282 0.99824 0.04066 0.0
C1275 C 0.64686 0.98931 0.0726 0.0
H1276 H 0.60506 0.64636 0.45378 0.0
H1277 H 0.65602 0.66249 0.40727 0.0
H1278 H 0.6151 0.64048 0.50863 0.0
H1279 H 0.6665 0.65767 0.4631 0.0
H1280 H 0.67078 0.62563 0.55535 0.0
H1281 H 0.66315 0.63433 0.50025 0.0
H1282 H 0.63355 0.65378 0.55733 0.0
H1283 H 0.64073 0.64449 0.61212 0.0
C1284 C 0.61845 0.64872 0.45524 0.0
C1285 C 0.62965 0.65474 0.42586 0.0
C1286 C 0.62433 0.64561 0.487 0.0
C1287 C 0.64166 0.64864 0.4905 0.0
C1288 C 0.653 0.65499 0.46132 0.0
C1289 C 0.64706 0.65798 0.42937 0.0
C1290 C 0.66284 0.63198 0.55604 0.0
C1291 C 0.65622 0.63426 0.58794 0.0
C1292 C 0.65848 0.63702 0.52448 0.0
C1293 C 0.64757 0.64462 0.52419 0.0
C1294 C 0.64161 0.64757 0.55638 0.0
C1295 C 0.64579 0.64234 0.58783 0.0
H1296 H 0.11394 0.59647 0.26591 0.0
H1297 H 0.06117 0.56743 0.22254 0.0
H1298 H 0.11548 0.56931 0.26679 0.0
H1299 H 0.0632 0.54063 0.22204 0.0
H1300 H 0.08194 0.50134 0.19294 0.0
H1301 H 0.08212 0.52945 0.19102 0.0
H1302 H 0.09858 0.53907 0.2992 0.0
H1303 H 0.09829 0.51088 0.3012 0.0
C1304 C 0.10265 0.58436 0.25666 0.0
C1305 C 0.08743 0.58426 0.24411 0.0
C1306 C 0.10361 0.56884 0.25701 0.0
C1307 C 0.0895 0.55293 0.24433 0.0
C1308 C 0.07437 0.55279 0.2315 0.0
C1309 C 0.07329 0.56822 0.23164 0.0
C1310 C 0.08577 0.50956 0.21617 0.0
C1311 C 0.09009 0.50396 0.24723 0.0
C1312 C 0.08576 0.52556 0.21513 0.0
C1313 C 0.09033 0.53638 0.24498 0.0
C1314 C 0.0951 0.53101 0.27578 0.0
C1315 C 0.09484 0.51487 0.27698 0.0
H1316 H 0.51761 0.11433 0.72602 0.0
H1317 H 0.49383 0.06519 0.78351 0.0
H1318 H 0.54588 0.11495 0.72608 0.0
H1319 H 0.52188 0.06557 0.78306 0.0
H1320 H 0.57794 0.07885 0.8048 0.0
H1321 H 0.55096 0.08044 0.80692 0.0
H1322 H 0.56012 0.10021 0.70078 0.0
H1323 H 0.5877 0.09961 0.69938 0.0
C1324 C 0.51842 0.10362 0.73852 0.0
C1325 C 0.50352 0.08975 0.75487 0.0
C1326 C 0.53459 0.10394 0.73849 0.0
C1327 C 0.5362 0.09031 0.7546 0.0
C1328 C 0.52126 0.07646 0.77099 0.0
C1329 C 0.50514 0.07622 0.77122 0.0
C1330 C 0.5744 0.08385 0.7821 0.0
C1331 C 0.58505 0.08911 0.75191 0.0
C1332 C 0.55876 0.08451 0.78314 0.0
C1333 C 0.55326 0.09034 0.75395 0.0
C1334 C 0.56401 0.09581 0.72389 0.0
C1335 C 0.57972 0.09523 0.72291 0.0
H1336 H 0.50795 0.571 0.21666 0.0
H1337 H 0.48348 0.59679 0.2702 0.0
H1338 H 0.47974 0.54346 0.21566 0.0
H1339 H 0.45505 0.56936 0.26843 0.0
H1340 H 0.41218 0.51272 0.2942 0.0
H1341 H 0.43994 0.54068 0.29383 0.0
H1342 H 0.45123 0.52905 0.19014 0.0
H1343 H 0.42407 0.50063 0.19145 0.0
C1344 C 0.49645 0.57083 0.22772 0.0
C1345 C 0.49791 0.58604 0.24349 0.0
C1346 C 0.48024 0.55505 0.2271 0.0
C1347 C 0.46505 0.55414 0.24195 0.0
C1348 C 0.46651 0.56947 0.25728 0.0
C1349 C 0.48277 0.58521 0.25819 0.0
C1350 C 0.42066 0.51604 0.27145 0.0
C1351 C 0.41585 0.50433 0.24292 0.0
C1352 C 0.4365 0.53222 0.27103 0.0
C1353 C 0.44789 0.53717 0.24196 0.0
C1354 C 0.44293 0.5256 0.21319 0.0
C1355 C 0.42718 0.50937 0.21373 0.0
H1356 H 0.8979 0.48703 0.70206 0.0
H1357 H 0.92013 0.49869 0.80632 0.0
H1358 H 0.89763 0.459 0.70312 0.0
H1359 H 0.91888 0.47028 0.80815 0.0
H1360 H 0.93434 0.42873 0.78359 0.0
H1361 H 0.93367 0.45625 0.78323 0.0
H1362 H 0.88352 0.43012 0.72897 0.0
H1363 H 0.88443 0.40262 0.72879 0.0
C1364 C 0.90266 0.4836 0.72527 0.0
C1365 C 0.90909 0.49519 0.75405 0.0
C1366 C 0.90229 0.46741 0.72606 0.0
C1367 C 0.90827 0.46236 0.7557 0.0
C1368 C 0.9144 0.47382 0.78468 0.0
C1369 C 0.91488 0.49004 0.78382 0.0
C1370 C 0.92308 0.42882 0.77192 0.0
C1371 C 0.90941 0.41349 0.75632 0.0
C1372 C 0.92267 0.4446 0.77175 0.0
C1373 C 0.90851 0.44543 0.75616 0.0
C1374 C 0.89476 0.43004 0.74075 0.0
C1375 C 0.89524 0.41426 0.74072 0.0
H1376 H 0.40436 0.88641 0.2808 0.0
H1377 H 0.42938 0.9351 0.22182 0.0
H1378 H 0.43188 0.88554 0.27969 0.0
H1379 H 0.45693 0.93451 0.2213 0.0
H1380 H 0.49876 0.92043 0.19653 0.0
H1381 H 0.47041 0.91927 0.1965 0.0
H1382 H 0.46127 0.89993 0.30296 0.0
H1383 H 0.48922 0.90002 0.30223 0.0
C1384 C 0.41578 0.89697 0.26778 0.0
C1385 C 0.41468 0.91076 0.25122 0.0
C1386 C 0.43157 0.89652 0.26723 0.0
C1387 C 0.44665 0.90993 0.25031 0.0
C1388 C 0.44551 0.92375 0.23393 0.0
C1389 C 0.42972 0.92412 0.23427 0.0
C1390 C 0.49059 0.9156 0.21975 0.0
C1391 C 0.49632 0.91028 0.24936 0.0
C1392 C 0.47441 0.9152 0.21992 0.0
C1393 C 0.46356 0.90963 0.24982 0.0
C1394 C 0.46919 0.90414 0.27935 0.0
C1395 C 0.48535 0.90442 0.27909 0.0
H1396 H 0.59596 0.48391 0.73759 0.0
H1397 H 0.56842 0.5091 0.78077 0.0
H1398 H 0.56846 0.45551 0.73771 0.0
H1399 H 0.54084 0.48095 0.7799 0.0
H1400 H 0.49717 0.42587 0.80436 0.0
H1401 H 0.52546 0.45306 0.80699 0.0
H1402 H 0.54077 0.4396 0.70921 0.0
H1403 H 0.51295 0.41175 0.70788 0.0
C1404 C 0.58397 0.48336 0.74688 0.0
C1405 C 0.58433 0.49868 0.75929 0.0
C1406 C 0.56819 0.46712 0.74683 0.0
C1407 C 0.55236 0.46587 0.75883 0.0
C1408 C 0.55279 0.48127 0.77114 0.0
C1409 C 0.56859 0.49745 0.77155 0.0
C1410 C 0.50667 0.42849 0.78373 0.0
C1411 C 0.50269 0.41651 0.75591 0.0
C1412 C 0.52285 0.44429 0.78495 0.0
C1413 C 0.53542 0.44867 0.75818 0.0
C1414 C 0.53152 0.43663 0.7305 0.0
C1415 C 0.5154 0.42073 0.72947 0.0
H1416 H 0.18119 0.43807 0.26372 0.0
H1417 H 0.15265 0.38172 0.24529 0.0
H1418 H 0.209 0.43785 0.26349 0.0
H1419 H 0.18042 0.38145 0.24527 0.0
H1420 H 0.23439 0.39061 0.21052 0.0
H1421 H 0.20678 0.39117 0.21054 0.0
H1422 H 0.22562 0.42776 0.29743 0.0
H1423 H 0.25355 0.42782 0.29639 0.0
C1424 C 0.18084 0.42561 0.25996 0.0
C1425 C 0.16469 0.40992 0.25448 0.0
C1426 C 0.19679 0.42547 0.25985 0.0
C1427 C 0.19697 0.40963 0.25433 0.0
C1428 C 0.1808 0.39393 0.249 0.0
C1429 C 0.16487 0.39408 0.24904 0.0
C1430 C 0.23274 0.39893 0.22939 0.0
C1431 C 0.24624 0.40919 0.25341 0.0
C1432 C 0.2168 0.39908 0.22969 0.0
C1433 C 0.21395 0.40948 0.25403 0.0
C1434 C 0.22744 0.41974 0.27808 0.0
C1435 C 0.24338 0.4196 0.27776 0.0
H1436 H 0.82699 0.24882 0.80514 0.0
H1437 H 0.84403 0.23257 0.71308 0.0
H1438 H 0.79914 0.22081 0.80457 0.0
H1439 H 0.81601 0.20479 0.71219 0.0
H1440 H 0.75581 0.16781 0.69923 0.0
H1441 H 0.78428 0.19519 0.70133 0.0
H1442 H 0.78746 0.18831 0.81255 0.0
H1443 H 0.7588 0.16099 0.81053 0.0
C1444 C 0.82491 0.23924 0.78499 0.0
C1445 C 0.8378 0.24304 0.75908 0.0
C1446 C 0.80892 0.2232 0.78465 0.0
C1447 C 0.80536 0.21064 0.75826 0.0
C1448 C 0.81826 0.21433 0.73256 0.0
C1449 C 0.83431 0.23029 0.73304 0.0
C1450 C 0.76255 0.17219 0.72415 0.0
C1451 C 0.75506 0.16228 0.75473 0.0
C1452 C 0.77892 0.18777 0.7253 0.0
C1453 C 0.78811 0.19389 0.7571 0.0
C1454 C 0.78062 0.18399 0.78771 0.0
C1455 C 0.76431 0.16829 0.7865 0.0
H1456 H 0.61922 0.77056 0.22357 0.0
H1457 H 0.56964 0.7462 0.27938 0.0
H1458 H 0.61993 0.79883 0.22463 0.0
H1459 H 0.56979 0.77418 0.27917 0.0
H1460 H 0.58232 0.82986 0.30277 0.0
H1461 H 0.58306 0.80246 0.30348 0.0
H1462 H 0.60725 0.81453 0.20092 0.0
H1463 H 0.60788 0.84262 0.20152 0.0
C1464 C 0.60837 0.77126 0.23571 0.0
C1465 C 0.5944 0.75624 0.25145 0.0
C1466 C 0.6087 0.78743 0.23621 0.0
C1467 C 0.59491 0.7889 0.25197 0.0
C1468 C 0.58085 0.77374 0.26743 0.0
C1469 C 0.58068 0.75765 0.26741 0.0
C1470 C 0.58812 0.82688 0.28062 0.0
C1471 C 0.59505 0.83859 0.2521 0.0
C1472 C 0.58827 0.81094 0.28076 0.0
C1473 C 0.59512 0.80611 0.25216 0.0
C1474 C 0.60206 0.81782 0.22365 0.0
C1475 C 0.60215 0.83388 0.22373 0.0
H1476 H 0.84454 0.61263 0.70431 0.0
H1477 H 0.82456 0.57184 0.78333 0.0
H1478 H 0.81668 0.61281 0.70535 0.0
H1479 H 0.79658 0.57164 0.78387 0.0
H1480 H 0.75579 0.5883 0.80364 0.0
H1481 H 0.78394 0.58887 0.80206 0.0
H1482 H 0.78617 0.59604 0.6898 0.0
H1483 H 0.75815 0.59589 0.69168 0.0
C1484 C 0.83411 0.60358 0.72164 0.0
C1485 C 0.83676 0.59228 0.74386 0.0
C1486 C 0.81812 0.60363 0.7222 0.0
C1487 C 0.80435 0.59228 0.74479 0.0
C1488 C 0.80698 0.58084 0.76667 0.0
C1489 C 0.82301 0.5809 0.76632 0.0
C1490 C 0.76228 0.58992 0.77862 0.0
C1491 C 0.75474 0.592 0.74778 0.0
C1492 C 0.7784 0.5902 0.77766 0.0
C1493 C 0.78734 0.59239 0.74576 0.0
C1494 C 0.77982 0.59457 0.7149 0.0
C1495 C 0.76373 0.59445 0.71593 0.0
H1496 H 0.23263 0.84337 0.21016 0.0
H1497 H 0.25268 0.82421 0.29238 0.0
H1498 H 0.20503 0.81515 0.20974 0.0
H1499 H 0.2251 0.79595 0.29188 0.0
H1500 H 0.16665 0.75457 0.30609 0.0
H1501 H 0.19409 0.78292 0.3068 0.0
H1502 H 0.19351 0.78445 0.19376 0.0
H1503 H 0.1657 0.75646 0.19312 0.0
C1504 C 0.2312 0.83308 0.22795 0.0
C1505 C 0.24487 0.83606 0.25129 0.0
C1506 C 0.21538 0.81689 0.2277 0.0
C1507 C 0.21284 0.80325 0.25074 0.0
C1508 C 0.2265 0.80625 0.27415 0.0
C1509 C 0.24231 0.82245 0.27443 0.0
C1510 C 0.17229 0.76103 0.2814 0.0
C1511 C 0.16393 0.75324 0.24955 0.0
C1512 C 0.18814 0.7772 0.28179 0.0
C1513 C 0.19603 0.78598 0.25034 0.0
C1514 C 0.1877 0.77815 0.21849 0.0
C1515 C 0.17186 0.76198 0.2181 0.0
H1516 H 0.43856 0.25885 0.75513 0.0
H1517 H 0.38147 0.23104 0.74942 0.0
H1518 H 0.43801 0.23066 0.75543 0.0
H1519 H 0.38099 0.2029 0.75053 0.0
H1520 H 0.3874 0.15676 0.79175 0.0
H1521 H 0.38806 0.18507 0.79157 0.0
H1522 H 0.43012 0.20526 0.71512 0.0
H1523 H 0.42967 0.17706 0.71573 0.0
C1524 C 0.4259 0.24677 0.75369 0.0
C1525 C 0.41006 0.24728 0.75222 0.0
C1526 C 0.4256 0.2306 0.75396 0.0
C1527 C 0.40946 0.21457 0.75304 0.0
C1528 C 0.39363 0.21504 0.75175 0.0
C1529 C 0.39392 0.23119 0.75121 0.0
C1530 C 0.39686 0.16729 0.77508 0.0
C1531 C 0.40849 0.16468 0.75376 0.0
C1532 C 0.39713 0.18344 0.77475 0.0
C1533 C 0.40914 0.19739 0.75333 0.0
C1534 C 0.42082 0.19481 0.73212 0.0
C1535 C 0.42044 0.17861 0.73222 0.0
loop_
_geom_bond_atom_site_label_1
_geom_bond_atom_site_label_2
_geom_bond_distance
_geom_bond_site_symmetry_2
_ccdc_geom_bond_type
Li0 N17 1.990 . S
Li0 O60 1.956 . S
Li0 O61 1.970 . S
Li0 O62 1.961 . S
Li1 N25 1.990 . S
Li1 O60 1.970 . S
Li1 O61 1.956 . S
Li1 O63 1.961 . S
Li2 N47 1.990 . S
Li2 O60 1.961 . S
Li2 O62 1.956 . S
Li2 O63 1.970 . S
Li3 N53 1.990 . S
Li3 O61 1.961 . S
Li3 O62 1.970 . S
Li3 O63 1.956 . S
C4 C6 1.348 . S
C4 C7 1.356 . S
C4 O60 1.325 . S
N5 C8 1.314 . S
N5 C9 1.279 . S
C6 C4 1.348 . S
C6 C8 1.353 . S
C6 H64 0.929 . S
C7 C4 1.356 . S
C7 C9 1.358 . S
C7 H65 0.930 . S
C8 N5 1.314 . S
C8 C6 1.353 . S
C8 H66 0.930 . S
C9 N5 1.279 . S
C9 C7 1.358 . S
C9 H67 0.930 . S
C10 C13 1.348 . S
C10 C14 1.356 . S
C10 O61 1.325 . S
C11 N12 1.279 . S
C11 C14 1.358 . S
C11 H68 0.930 . S
N12 C11 1.279 . S
N12 C15 1.314 . S
C13 C10 1.348 . S
C13 C15 1.353 . S
C13 H69 0.929 . S
C14 C10 1.356 . S
C14 C11 1.358 . S
C14 H70 0.930 . S
C15 N12 1.314 . S
C15 C13 1.353 . S
C15 H71 0.930 . S
C16 N17 1.314 . S
C16 C21 1.353 . S
C16 H22 0.930 . S
N17 Li0 1.990 . S
N17 C16 1.314 . S
N17 C19 1.279 . S
C18 C19 1.358 . S
C18 C20 1.356 . S
C18 H72 0.930 . S
C19 N17 1.279 . S
C19 C18 1.358 . S
C19 H23 0.930 . S
C20 C18 1.356 . S
C20 C21 1.348 . S
C21 C16 1.353 . S
C21 C20 1.348 . S
C21 H73 0.929 . S
H22 C16 0.930 . S
H23 C19 0.930 . S
C24 N25 1.314 . S
C24 C26 1.353 . S
C24 H30 0.930 . S
N25 Li1 1.990 . S
N25 C24 1.314 . S
N25 C28 1.279 . S
C26 C24 1.353 . S
C26 C29 1.348 . S
C26 H74 0.929 . S
C27 C28 1.358 . S
C27 C29 1.356 . S
C27 H75 0.930 . S
C28 N25 1.279 . S
C28 C27 1.358 . S
C28 H31 0.930 . S
C29 C26 1.348 . S
C29 C27 1.356 . S
H30 C24 0.930 . S
H31 C28 0.930 . S
C32 C34 1.348 . S
C32 C35 1.356 . S
C32 O62 1.325 . S
N33 C36 1.314 . S
N33 C37 1.279 . S
C34 C32 1.348 . S
C34 C36 1.353 . S
C34 H76 0.929 . S
C35 C32 1.356 . S
C35 C37 1.358 . S
C35 H77 0.930 . S
C36 N33 1.314 . S
C36 C34 1.353 . S
C36 H78 0.930 . S
C37 N33 1.279 . S
C37 C35 1.358 . S
C37 H79 0.930 . S
C38 C39 1.348 . S
C38 C40 1.356 . S
C38 O63 1.325 . S
C39 C38 1.348 . S
C39 C41 1.353 . S
C39 H80 0.929 . S
C40 C38 1.356 . S
C40 C42 1.358 . S
C40 H81 0.930 . S
C41 C39 1.353 . S
C41 N43 1.314 . S
C41 H82 0.930 . S
C42 C40 1.358 . S
C42 N43 1.279 . S
C42 H83 0.930 . S
N43 C41 1.314 . S
N43 C42 1.279 . S
C44 C46 1.353 . S
C44 N47 1.314 . S
C44 H50 0.930 . S
C45 N47 1.279 . S
C45 C48 1.358 . S
C45 H51 0.930 . S
C46 C44 1.353 . S
C46 C49 1.348 . S
C46 H84 0.929 . S
N47 Li2 1.990 . S
N47 C44 1.314 . S
N47 C45 1.279 . S
C48 C45 1.358 . S
C48 C49 1.356 . S
C48 H85 0.930 . S
C49 C46 1.348 . S
C49 C48 1.356 . S
H50 C44 0.930 . S
H51 C45 0.930 . S
C52 N53 1.314 . S
C52 C54 1.353 . S
C52 H58 0.930 . S
N53 Li3 1.990 . S
N53 C52 1.314 . S
N53 C56 1.279 . S
C54 C52 1.353 . S
C54 C57 1.348 . S
C54 H86 0.929 . S
C55 C56 1.358 . S
C55 C57 1.356 . S
C55 H87 0.930 . S
C56 N53 1.279 . S
C56 C55 1.358 . S
C56 H59 0.930 . S
C57 C54 1.348 . S
C57 C55 1.356 . S
H58 C52 0.930 . S
H59 C56 0.930 . S
O60 Li0 1.956 . S
O60 Li1 1.970 . S
O60 Li2 1.961 . S
O60 C4 1.325 . S
O61 Li0 1.970 . S
O61 Li1 1.956 . S
O61 Li3 1.961 . S
O61 C10 1.325 . S
O62 Li0 1.961 . S
O62 Li2 1.956 . S
O62 Li3 1.970 . S
O62 C32 1.325 . S
O63 Li1 1.961 . S
O63 Li2 1.970 . S
O63 Li3 1.956 . S
O63 C38 1.325 . S
H64 C6 0.929 . S
H65 C7 0.930 . S
H66 C8 0.930 . S
H67 C9 0.930 . S
H68 C11 0.930 . S
H69 C13 0.929 . S
H70 C14 0.930 . S
H71 C15 0.930 . S
H72 C18 0.930 . S
H73 C21 0.929 . S
H74 C26 0.929 . S
H75 C27 0.930 . S
H76 C34 0.929 . S
H77 C35 0.930 . S
H78 C36 0.930 . S
H79 C37 0.930 . S
H80 C39 0.929 . S
H81 C40 0.930 . S
H82 C41 0.930 . S
H83 C42 0.930 . S
H84 C46 0.929 . S
H85 C48 0.930 . S
H86 C54 0.929 . S
H87 C55 0.930 . S
Li88 N105 1.990 . S
Li88 O148 1.956 . S
Li88 O149 1.970 . S
Li88 O150 1.961 . S
Li89 N113 1.990 . S
Li89 O148 1.970 . S
Li89 O149 1.956 . S
Li89 O151 1.961 . S
Li90 N135 1.990 . S
Li90 O148 1.961 . S
Li90 O150 1.956 . S
Li90 O151 1.970 . S
Li91 N141 1.990 . S
Li91 O149 1.961 . S
Li91 O150 1.970 . S
Li91 O151 1.956 . S
C92 C94 1.348 . S
C92 C95 1.356 . S
C92 O148 1.325 . S
N93 C96 1.314 . S
N93 C97 1.279 . S
C94 C92 1.348 . S
C94 C96 1.353 . S
C94 H152 0.929 . S
C95 C92 1.356 . S
C95 C97 1.358 . S
C95 H153 0.930 . S
C96 N93 1.314 . S
C96 C94 1.353 . S
C96 H154 0.930 . S
C97 N93 1.279 . S
C97 C95 1.358 . S
C97 H155 0.930 . S
C98 C101 1.348 . S
C98 C102 1.356 . S
C98 O149 1.325 . S
C99 N100 1.279 . S
C99 C102 1.358 . S
C99 H156 0.930 . S
N100 C99 1.279 . S
N100 C103 1.314 . S
C101 C98 1.348 . S
C101 C103 1.353 . S
C101 H157 0.929 . S
C102 C98 1.356 . S
C102 C99 1.358 . S
C102 H158 0.930 . S
C103 N100 1.314 . S
C103 C101 1.353 . S
C103 H159 0.930 . S
C104 N105 1.314 . S
C104 C109 1.353 . S
C104 H110 0.930 . S
N105 Li88 1.990 . S
N105 C104 1.314 . S
N105 C107 1.279 . S
C106 C107 1.358 . S
C106 C108 1.356 . S
C106 H160 0.930 . S
C107 N105 1.279 . S
C107 C106 1.358 . S
C107 H111 0.930 . S
C108 C106 1.356 . S
C108 C109 1.348 . S
C109 C104 1.353 . S
C109 C108 1.348 . S
C109 H161 0.929 . S
H110 C104 0.930 . S
H111 C107 0.930 . S
C112 N113 1.314 . S
C112 C114 1.353 . S
C112 H118 0.930 . S
N113 Li89 1.990 . S
N113 C112 1.314 . S
N113 C116 1.279 . S
C114 C112 1.353 . S
C114 C117 1.348 . S
C114 H162 0.929 . S
C115 C116 1.358 . S
C115 C117 1.356 . S
C115 H163 0.930 . S
C116 N113 1.279 . S
C116 C115 1.358 . S
C116 H119 0.930 . S
C117 C114 1.348 . S
C117 C115 1.356 . S
H118 C112 0.930 . S
H119 C116 0.930 . S
C120 C122 1.348 . S
C120 C123 1.356 . S
C120 O150 1.325 . S
N121 C124 1.314 . S
N121 C125 1.279 . S
C122 C120 1.348 . S
C122 C124 1.353 . S
C122 H164 0.929 . S
C123 C120 1.356 . S
C123 C125 1.358 . S
C123 H165 0.930 . S
C124 N121 1.314 . S
C124 C122 1.353 . S
C124 H166 0.930 . S
C125 N121 1.279 . S
C125 C123 1.358 . S
C125 H167 0.930 . S
C126 C127 1.348 . S
C126 C128 1.356 . S
C126 O151 1.325 . S
C127 C126 1.348 . S
C127 C129 1.353 . S
C127 H168 0.929 . S
C128 C126 1.356 . S
C128 C130 1.358 . S
C128 H169 0.930 . S
C129 C127 1.353 . S
C129 N131 1.314 . S
C129 H170 0.930 . S
C130 C128 1.358 . S
C130 N131 1.279 . S
C130 H171 0.930 . S
N131 C129 1.314 . S
N131 C130 1.279 . S
C132 C134 1.353 . S
C132 N135 1.314 . S
C132 H138 0.930 . S
C133 N135 1.279 . S
C133 C136 1.358 . S
C133 H139 0.930 . S
C134 C132 1.353 . S
C134 C137 1.348 . S
C134 H172 0.929 . S
N135 Li90 1.990 . S
N135 C132 1.314 . S
N135 C133 1.279 . S
C136 C133 1.358 . S
C136 C137 1.356 . S
C136 H173 0.930 . S
C137 C134 1.348 . S
C137 C136 1.356 . S
H138 C132 0.930 . S
H139 C133 0.930 . S
C140 N141 1.314 . S
C140 C142 1.353 . S
C140 H146 0.930 . S
N141 Li91 1.990 . S
N141 C140 1.314 . S
N141 C144 1.279 . S
C142 C140 1.353 . S
C142 C145 1.348 . S
C142 H174 0.929 . S
C143 C144 1.358 . S
C143 C145 1.356 . S
C143 H175 0.930 . S
C144 N141 1.279 . S
C144 C143 1.358 . S
C144 H147 0.930 . S
C145 C142 1.348 . S
C145 C143 1.356 . S
H146 C140 0.930 . S
H147 C144 0.930 . S
O148 Li88 1.956 . S
O148 Li89 1.970 . S
O148 Li90 1.961 . S
O148 C92 1.325 . S
O149 Li88 1.970 . S
O149 Li89 1.956 . S
O149 Li91 1.961 . S
O149 C98 1.325 . S
O150 Li88 1.961 . S
O150 Li90 1.956 . S
O150 Li91 1.970 . S
O150 C120 1.325 . S
O151 Li89 1.961 . S
O151 Li90 1.970 . S
O151 Li91 1.956 . S
O151 C126 1.325 . S
H152 C94 0.929 . S
H153 C95 0.930 . S
H154 C96 0.930 . S
H155 C97 0.930 . S
H156 C99 0.930 . S
H157 C101 0.929 . S
H158 C102 0.930 . S
H159 C103 0.930 . S
H160 C106 0.930 . S
H161 C109 0.929 . S
H162 C114 0.929 . S
H163 C115 0.930 . S
H164 C122 0.929 . S
H165 C123 0.930 . S
H166 C124 0.930 . S
H167 C125 0.930 . S
H168 C127 0.929 . S
H169 C128 0.930 . S
H170 C129 0.930 . S
H171 C130 0.930 . S
H172 C134 0.929 . S
H173 C136 0.930 . S
H174 C142 0.929 . S
H175 C143 0.930 . S
Li176 N193 1.990 . S
Li176 O236 1.956 . S
Li176 O237 1.970 . S
Li176 O238 1.961 . S
Li177 N201 1.990 . S
Li177 O236 1.970 . S
Li177 O237 1.956 . S
Li177 O239 1.961 . S
Li178 N223 1.990 . S
Li178 O236 1.961 . S
Li178 O238 1.956 . S
Li178 O239 1.970 . S
Li179 N229 1.990 . S
Li179 O237 1.961 . S
Li179 O238 1.970 . S
Li179 O239 1.956 . S
C180 C182 1.348 . S
C180 C183 1.356 . S
C180 O236 1.325 . S
N181 C184 1.314 . S
N181 C185 1.279 . S
C182 C180 1.348 . S
C182 C184 1.353 . S
C182 H240 0.929 . S
C183 C180 1.356 . S
C183 C185 1.358 . S
C183 H241 0.930 . S
C184 N181 1.314 . S
C184 C182 1.353 . S
C184 H242 0.930 . S
C185 N181 1.279 . S
C185 C183 1.358 . S
C185 H243 0.930 . S
C186 C189 1.348 . S
C186 C190 1.356 . S
C186 O237 1.325 . S
C187 N188 1.279 . S
C187 C190 1.358 . S
C187 H244 0.930 . S
N188 C187 1.279 . S
N188 C191 1.314 . S
C189 C186 1.348 . S
C189 C191 1.353 . S
C189 H245 0.929 . S
C190 C186 1.356 . S
C190 C187 1.358 . S
C190 H246 0.930 . S
C191 N188 1.314 . S
C191 C189 1.353 . S
C191 H247 0.930 . S
C192 N193 1.314 . S
C192 C197 1.353 . S
C192 H198 0.930 . S
N193 Li176 1.990 . S
N193 C192 1.314 . S
N193 C195 1.279 . S
C194 C195 1.358 . S
C194 C196 1.356 . S
C194 H248 0.930 . S
C195 N193 1.279 . S
C195 C194 1.358 . S
C195 H199 0.930 . S
C196 C194 1.356 . S
C196 C197 1.348 . S
C197 C192 1.353 . S
C197 C196 1.348 . S
C197 H249 0.929 . S
H198 C192 0.930 . S
H199 C195 0.930 . S
C200 N201 1.314 . S
C200 C202 1.353 . S
C200 H206 0.930 . S
N201 Li177 1.990 . S
N201 C200 1.314 . S
N201 C204 1.279 . S
C202 C200 1.353 . S
C202 C205 1.348 . S
C202 H250 0.929 . S
C203 C204 1.358 . S
C203 C205 1.356 . S
C203 H251 0.930 . S
C204 N201 1.279 . S
C204 C203 1.358 . S
C204 H207 0.930 . S
C205 C202 1.348 . S
C205 C203 1.356 . S
H206 C200 0.930 . S
H207 C204 0.930 . S
C208 C210 1.348 . S
C208 C211 1.356 . S
C208 O238 1.325 . S
N209 C212 1.314 . S
N209 C213 1.279 . S
C210 C208 1.348 . S
C210 C212 1.353 . S
C210 H252 0.929 . S
C211 C208 1.356 . S
C211 C213 1.358 . S
C211 H253 0.930 . S
C212 N209 1.314 . S
C212 C210 1.353 . S
C212 H254 0.930 . S
C213 N209 1.279 . S
C213 C211 1.358 . S
C213 H255 0.930 . S
C214 C215 1.348 . S
C214 C216 1.356 . S
C214 O239 1.325 . S
C215 C214 1.348 . S
C215 C217 1.353 . S
C215 H256 0.929 . S
C216 C214 1.356 . S
C216 C218 1.358 . S
C216 H257 0.930 . S
C217 C215 1.353 . S
C217 N219 1.314 . S
C217 H258 0.930 . S
C218 C216 1.358 . S
C218 N219 1.279 . S
C218 H259 0.930 . S
N219 C217 1.314 . S
N219 C218 1.279 . S
C220 C222 1.353 . S
C220 N223 1.314 . S
C220 H226 0.930 . S
C221 N223 1.279 . S
C221 C224 1.358 . S
C221 H227 0.930 . S
C222 C220 1.353 . S
C222 C225 1.348 . S
C222 H260 0.929 . S
N223 Li178 1.990 . S
N223 C220 1.314 . S
N223 C221 1.279 . S
C224 C221 1.358 . S
C224 C225 1.356 . S
C224 H261 0.930 . S
C225 C222 1.348 . S
C225 C224 1.356 . S
H226 C220 0.930 . S
H227 C221 0.930 . S
C228 N229 1.314 . S
C228 C230 1.353 . S
C228 H234 0.930 . S
N229 Li179 1.990 . S
N229 C228 1.314 . S
N229 C232 1.279 . S
C230 C228 1.353 . S
C230 C233 1.348 . S
C230 H262 0.929 . S
C231 C232 1.358 . S
C231 C233 1.356 . S
C231 H263 0.930 . S
C232 N229 1.279 . S
C232 C231 1.358 . S
C232 H235 0.930 . S
C233 C230 1.348 . S
C233 C231 1.356 . S
H234 C228 0.930 . S
H235 C232 0.930 . S
O236 Li176 1.956 . S
O236 Li177 1.970 . S
O236 Li178 1.961 . S
O236 C180 1.325 . S
O237 Li176 1.970 . S
O237 Li177 1.956 . S
O237 Li179 1.961 . S
O237 C186 1.325 . S
O238 Li176 1.961 . S
O238 Li178 1.956 . S
O238 Li179 1.970 . S
O238 C208 1.325 . S
O239 Li177 1.961 . S
O239 Li178 1.970 . S
O239 Li179 1.956 . S
O239 C214 1.325 . S
H240 C182 0.929 . S
H241 C183 0.930 . S
H242 C184 0.930 . S
H243 C185 0.930 . S
H244 C187 0.930 . S
H245 C189 0.929 . S
H246 C190 0.930 . S
H247 C191 0.930 . S
H248 C194 0.930 . S
H249 C197 0.929 . S
H250 C202 0.929 . S
H251 C203 0.930 . S
H252 C210 0.929 . S
H253 C211 0.930 . S
H254 C212 0.930 . S
H255 C213 0.930 . S
H256 C215 0.929 . S
H257 C216 0.930 . S
H258 C217 0.930 . S
H259 C218 0.930 . S
H260 C222 0.929 . S
H261 C224 0.930 . S
H262 C230 0.929 . S
H263 C231 0.930 . S
Li264 N281 1.990 . S
Li264 O324 1.956 . S
Li264 O325 1.970 . S
Li264 O326 1.961 . S
Li265 N289 1.990 . S
Li265 O324 1.970 . S
Li265 O325 1.956 . S
Li265 O327 1.961 . S
Li266 N311 1.990 . S
Li266 O324 1.961 . S
Li266 O326 1.956 . S
Li266 O327 1.970 . S
Li267 N317 1.990 . S
Li267 O325 1.961 . S
Li267 O326 1.970 . S
Li267 O327 1.956 . S
C268 C270 1.348 . S
C268 C271 1.356 . S
C268 O324 1.325 . S
N269 C272 1.314 . S
N269 C273 1.279 . S
C270 C268 1.348 . S
C270 C272 1.353 . S
C270 H328 0.929 . S
C271 C268 1.356 . S
C271 C273 1.358 . S
C271 H329 0.930 . S
C272 N269 1.314 . S
C272 C270 1.353 . S
C272 H330 0.930 . S
C273 N269 1.279 . S
C273 C271 1.358 . S
C273 H331 0.930 . S
C274 C277 1.348 . S
C274 C278 1.356 . S
C274 O325 1.325 . S
C275 N276 1.279 . S
C275 C278 1.358 . S
C275 H332 0.930 . S
N276 C275 1.279 . S
N276 C279 1.314 . S
C277 C274 1.348 . S
C277 C279 1.353 . S
C277 H333 0.929 . S
C278 C274 1.356 . S
C278 C275 1.358 . S
C278 H334 0.930 . S
C279 N276 1.314 . S
C279 C277 1.353 . S
C279 H335 0.930 . S
C280 N281 1.314 . S
C280 C285 1.353 . S
C280 H286 0.930 . S
N281 Li264 1.990 . S
N281 C280 1.314 . S
N281 C283 1.279 . S
C282 C283 1.358 . S
C282 C284 1.356 . S
C282 H336 0.930 . S
C283 N281 1.279 . S
C283 C282 1.358 . S
C283 H287 0.930 . S
C284 C282 1.356 . S
C284 C285 1.348 . S
C285 C280 1.353 . S
C285 C284 1.348 . S
C285 H337 0.929 . S
H286 C280 0.930 . S
H287 C283 0.930 . S
C288 N289 1.314 . S
C288 C290 1.353 . S
C288 H294 0.930 . S
N289 Li265 1.990 . S
N289 C288 1.314 . S
N289 C292 1.279 . S
C290 C288 1.353 . S
C290 C293 1.348 . S
C290 H338 0.929 . S
C291 C292 1.358 . S
C291 C293 1.356 . S
C291 H339 0.930 . S
C292 N289 1.279 . S
C292 C291 1.358 . S
C292 H295 0.930 . S
C293 C290 1.348 . S
C293 C291 1.356 . S
H294 C288 0.930 . S
H295 C292 0.930 . S
C296 C298 1.348 . S
C296 C299 1.356 . S
C296 O326 1.325 . S
N297 C300 1.314 . S
N297 C301 1.279 . S
C298 C296 1.348 . S
C298 C300 1.353 . S
C298 H340 0.929 . S
C299 C296 1.356 . S
C299 C301 1.358 . S
C299 H341 0.930 . S
C300 N297 1.314 . S
C300 C298 1.353 . S
C300 H342 0.930 . S
C301 N297 1.279 . S
C301 C299 1.358 . S
C301 H343 0.930 . S
C302 C303 1.348 . S
C302 C304 1.356 . S
C302 O327 1.325 . S
C303 C302 1.348 . S
C303 C305 1.353 . S
C303 H344 0.929 . S
C304 C302 1.356 . S
C304 C306 1.358 . S
C304 H345 0.930 . S
C305 C303 1.353 . S
C305 N307 1.314 . S
C305 H346 0.930 . S
C306 C304 1.358 . S
C306 N307 1.279 . S
C306 H347 0.930 . S
N307 C305 1.314 . S
N307 C306 1.279 . S
C308 C310 1.353 . S
C308 N311 1.314 . S
C308 H314 0.930 . S
C309 N311 1.279 . S
C309 C312 1.358 . S
C309 H315 0.930 . S
C310 C308 1.353 . S
C310 C313 1.348 . S
C310 H348 0.929 . S
N311 Li266 1.990 . S
N311 C308 1.314 . S
N311 C309 1.279 . S
C312 C309 1.358 . S
C312 C313 1.356 . S
C312 H349 0.930 . S
C313 C310 1.348 . S
C313 C312 1.356 . S
H314 C308 0.930 . S
H315 C309 0.930 . S
C316 N317 1.314 . S
C316 C318 1.353 . S
C316 H322 0.930 . S
N317 Li267 1.990 . S
N317 C316 1.314 . S
N317 C320 1.279 . S
C318 C316 1.353 . S
C318 C321 1.348 . S
C318 H350 0.929 . S
C319 C320 1.358 . S
C319 C321 1.356 . S
C319 H351 0.930 . S
C320 N317 1.279 . S
C320 C319 1.358 . S
C320 H323 0.930 . S
C321 C318 1.348 . S
C321 C319 1.356 . S
H322 C316 0.930 . S
H323 C320 0.930 . S
O324 Li264 1.956 . S
O324 Li265 1.970 . S
O324 Li266 1.961 . S
O324 C268 1.325 . S
O325 Li264 1.970 . S
O325 Li265 1.956 . S
O325 Li267 1.961 . S
O325 C274 1.325 . S
O326 Li264 1.961 . S
O326 Li266 1.956 . S
O326 Li267 1.970 . S
O326 C296 1.325 . S
O327 Li265 1.961 . S
O327 Li266 1.970 . S
O327 Li267 1.956 . S
O327 C302 1.325 . S
H328 C270 0.929 . S
H329 C271 0.930 . S
H330 C272 0.930 . S
H331 C273 0.930 . S
H332 C275 0.930 . S
H333 C277 0.929 . S
H334 C278 0.930 . S
H335 C279 0.930 . S
H336 C282 0.930 . S
H337 C285 0.929 . S
H338 C290 0.929 . S
H339 C291 0.930 . S
H340 C298 0.929 . S
H341 C299 0.930 . S
H342 C300 0.930 . S
H343 C301 0.930 . S
H344 C303 0.929 . S
H345 C304 0.930 . S
H346 C305 0.930 . S
H347 C306 0.930 . S
H348 C310 0.929 . S
H349 C312 0.930 . S
H350 C318 0.929 . S
H351 C319 0.930 . S
Li352 N369 1.990 . S
Li352 O412 1.956 . S
Li352 O413 1.970 . S
Li352 O414 1.961 . S
Li353 N377 1.990 . S
Li353 O412 1.970 . S
Li353 O413 1.956 . S
Li353 O415 1.961 . S
Li354 N399 1.990 . S
Li354 O412 1.961 . S
Li354 O414 1.956 . S
Li354 O415 1.970 . S
Li355 N405 1.990 . S
Li355 O413 1.961 . S
Li355 O414 1.970 . S
Li355 O415 1.956 . S
C356 C358 1.348 . S
C356 C359 1.356 . S
C356 O412 1.325 . S
N357 C360 1.314 . S
N357 C361 1.279 . S
C358 C356 1.348 . S
C358 C360 1.353 . S
C358 H416 0.929 . S
C359 C356 1.356 . S
C359 C361 1.358 . S
C359 H417 0.930 . S
C360 N357 1.314 . S
C360 C358 1.353 . S
C360 H418 0.930 . S
C361 N357 1.279 . S
C361 C359 1.358 . S
C361 H419 0.930 . S
C362 C365 1.348 . S
C362 C366 1.356 . S
C362 O413 1.325 . S
C363 N364 1.279 . S
C363 C366 1.358 . S
C363 H420 0.930 . S
N364 C363 1.279 . S
N364 C367 1.314 . S
C365 C362 1.348 . S
C365 C367 1.353 . S
C365 H421 0.929 . S
C366 C362 1.356 . S
C366 C363 1.358 . S
C366 H422 0.930 . S
C367 N364 1.314 . S
C367 C365 1.353 . S
C367 H423 0.930 . S
C368 N369 1.314 . S
C368 C373 1.353 . S
C368 H374 0.930 . S
N369 Li352 1.990 . S
N369 C368 1.314 . S
N369 C371 1.279 . S
C370 C371 1.358 . S
C370 C372 1.356 . S
C370 H424 0.930 . S
C371 N369 1.279 . S
C371 C370 1.358 . S
C371 H375 0.930 . S
C372 C370 1.356 . S
C372 C373 1.348 . S
C373 C368 1.353 . S
C373 C372 1.348 . S
C373 H425 0.929 . S
H374 C368 0.930 . S
H375 C371 0.930 . S
C376 N377 1.314 . S
C376 C378 1.353 . S
C376 H382 0.930 . S
N377 Li353 1.990 . S
N377 C376 1.314 . S
N377 C380 1.279 . S
C378 C376 1.353 . S
C378 C381 1.348 . S
C378 H426 0.929 . S
C379 C380 1.358 . S
C379 C381 1.356 . S
C379 H427 0.930 . S
C380 N377 1.279 . S
C380 C379 1.358 . S
C380 H383 0.930 . S
C381 C378 1.348 . S
C381 C379 1.356 . S
H382 C376 0.930 . S
H383 C380 0.930 . S
C384 C386 1.348 . S
C384 C387 1.356 . S
C384 O414 1.325 . S
N385 C388 1.314 . S
N385 C389 1.279 . S
C386 C384 1.348 . S
C386 C388 1.353 . S
C386 H428 0.929 . S
C387 C384 1.356 . S
C387 C389 1.358 . S
C387 H429 0.930 . S
C388 N385 1.314 . S
C388 C386 1.353 . S
C388 H430 0.930 . S
C389 N385 1.279 . S
C389 C387 1.358 . S
C389 H431 0.930 . S
C390 C391 1.348 . S
C390 C392 1.356 . S
C390 O415 1.325 . S
C391 C390 1.348 . S
C391 C393 1.353 . S
C391 H432 0.929 . S
C392 C390 1.356 . S
C392 C394 1.358 . S
C392 H433 0.930 . S
C393 C391 1.353 . S
C393 N395 1.314 . S
C393 H434 0.930 . S
C394 C392 1.358 . S
C394 N395 1.279 . S
C394 H435 0.930 . S
N395 C393 1.314 . S
N395 C394 1.279 . S
C396 C398 1.353 . S
C396 N399 1.314 . S
C396 H402 0.930 . S
C397 N399 1.279 . S
C397 C400 1.358 . S
C397 H403 0.930 . S
C398 C396 1.353 . S
C398 C401 1.348 . S
C398 H436 0.929 . S
N399 Li354 1.990 . S
N399 C396 1.314 . S
N399 C397 1.279 . S
C400 C397 1.358 . S
C400 C401 1.356 . S
C400 H437 0.930 . S
C401 C398 1.348 . S
C401 C400 1.356 . S
H402 C396 0.930 . S
H403 C397 0.930 . S
C404 N405 1.314 . S
C404 C406 1.353 . S
C404 H410 0.930 . S
N405 Li355 1.990 . S
N405 C404 1.314 . S
N405 C408 1.279 . S
C406 C404 1.353 . S
C406 C409 1.348 . S
C406 H438 0.929 . S
C407 C408 1.358 . S
C407 C409 1.356 . S
C407 H439 0.930 . S
C408 N405 1.279 . S
C408 C407 1.358 . S
C408 H411 0.930 . S
C409 C406 1.348 . S
C409 C407 1.356 . S
H410 C404 0.930 . S
H411 C408 0.930 . S
O412 Li352 1.956 . S
O412 Li353 1.970 . S
O412 Li354 1.961 . S
O412 C356 1.325 . S
O413 Li352 1.970 . S
O413 Li353 1.956 . S
O413 Li355 1.961 . S
O413 C362 1.325 . S
O414 Li352 1.961 . S
O414 Li354 1.956 . S
O414 Li355 1.970 . S
O414 C384 1.325 . S
O415 Li353 1.961 . S
O415 Li354 1.970 . S
O415 Li355 1.956 . S
O415 C390 1.325 . S
H416 C358 0.929 . S
H417 C359 0.930 . S
H418 C360 0.930 . S
H419 C361 0.930 . S
H420 C363 0.930 . S
H421 C365 0.929 . S
H422 C366 0.930 . S
H423 C367 0.930 . S
H424 C370 0.930 . S
H425 C373 0.929 . S
H426 C378 0.929 . S
H427 C379 0.930 . S
H428 C386 0.929 . S
H429 C387 0.930 . S
H430 C388 0.930 . S
H431 C389 0.930 . S
H432 C391 0.929 . S
H433 C392 0.930 . S
H434 C393 0.930 . S
H435 C394 0.930 . S
H436 C398 0.929 . S
H437 C400 0.930 . S
H438 C406 0.929 . S
H439 C407 0.930 . S
Li440 N457 1.990 . S
Li440 O500 1.956 . S
Li440 O501 1.970 . S
Li440 O502 1.961 . S
Li441 N465 1.990 . S
Li441 O500 1.970 . S
Li441 O501 1.956 . S
Li441 O503 1.961 . S
Li442 N487 1.990 . S
Li442 O500 1.961 . S
Li442 O502 1.956 . S
Li442 O503 1.970 . S
Li443 N493 1.990 . S
Li443 O501 1.961 . S
Li443 O502 1.970 . S
Li443 O503 1.956 . S
C444 C446 1.348 . S
C444 C447 1.356 . S
C444 O500 1.325 . S
N445 C448 1.314 . S
N445 C449 1.279 . S
C446 C444 1.348 . S
C446 C448 1.353 . S
C446 H504 0.929 . S
C447 C444 1.356 . S
C447 C449 1.358 . S
C447 H505 0.930 . S
C448 N445 1.314 . S
C448 C446 1.353 . S
C448 H506 0.930 . S
C449 N445 1.279 . S
C449 C447 1.358 . S
C449 H507 0.930 . S
C450 C453 1.348 . S
C450 C454 1.356 . S
C450 O501 1.325 . S
C451 N452 1.279 . S
C451 C454 1.358 . S
C451 H508 0.930 . S
N452 C451 1.279 . S
N452 C455 1.314 . S
C453 C450 1.348 . S
C453 C455 1.353 . S
C453 H509 0.929 . S
C454 C450 1.356 . S
C454 C451 1.358 . S
C454 H510 0.930 . S
C455 N452 1.314 . S
C455 C453 1.353 . S
C455 H511 0.930 . S
C456 N457 1.314 . S
C456 C461 1.353 . S
C456 H462 0.930 . S
N457 Li440 1.990 . S
N457 C456 1.314 . S
N457 C459 1.279 . S
C458 C459 1.358 . S
C458 C460 1.356 . S
C458 H512 0.930 . S
C459 N457 1.279 . S
C459 C458 1.358 . S
C459 H463 0.930 . S
C460 C458 1.356 . S
C460 C461 1.348 . S
C461 C456 1.353 . S
C461 C460 1.348 . S
C461 H513 0.929 . S
H462 C456 0.930 . S
H463 C459 0.930 . S
C464 N465 1.314 . S
C464 C466 1.353 . S
C464 H470 0.930 . S
N465 Li441 1.990 . S
N465 C464 1.314 . S
N465 C468 1.279 . S
C466 C464 1.353 . S
C466 C469 1.348 . S
C466 H514 0.929 . S
C467 C468 1.358 . S
C467 C469 1.356 . S
C467 H515 0.930 . S
C468 N465 1.279 . S
C468 C467 1.358 . S
C468 H471 0.930 . S
C469 C466 1.348 . S
C469 C467 1.356 . S
H470 C464 0.930 . S
H471 C468 0.930 . S
C472 C474 1.348 . S
C472 C475 1.356 . S
C472 O502 1.325 . S
N473 C476 1.314 . S
N473 C477 1.279 . S
C474 C472 1.348 . S
C474 C476 1.353 . S
C474 H516 0.929 . S
C475 C472 1.356 . S
C475 C477 1.358 . S
C475 H517 0.930 . S
C476 N473 1.314 . S
C476 C474 1.353 . S
C476 H518 0.930 . S
C477 N473 1.279 . S
C477 C475 1.358 . S
C477 H519 0.930 . S
C478 C479 1.348 . S
C478 C480 1.356 . S
C478 O503 1.325 . S
C479 C478 1.348 . S
C479 C481 1.353 . S
C479 H520 0.929 . S
C480 C478 1.356 . S
C480 C482 1.358 . S
C480 H521 0.930 . S
C481 C479 1.353 . S
C481 N483 1.314 . S
C481 H522 0.930 . S
C482 C480 1.358 . S
C482 N483 1.279 . S
C482 H523 0.930 . S
N483 C481 1.314 . S
N483 C482 1.279 . S
C484 C486 1.353 . S
C484 N487 1.314 . S
C484 H490 0.930 . S
C485 N487 1.279 . S
C485 C488 1.358 . S
C485 H491 0.930 . S
C486 C484 1.353 . S
C486 C489 1.348 . S
C486 H524 0.929 . S
N487 Li442 1.990 . S
N487 C484 1.314 . S
N487 C485 1.279 . S
C488 C485 1.358 . S
C488 C489 1.356 . S
C488 H525 0.930 . S
C489 C486 1.348 . S
C489 C488 1.356 . S
H490 C484 0.930 . S
H491 C485 0.930 . S
C492 N493 1.314 . S
C492 C494 1.353 . S
C492 H498 0.930 . S
N493 Li443 1.990 . S
N493 C492 1.314 . S
N493 C496 1.279 . S
C494 C492 1.353 . S
C494 C497 1.348 . S
C494 H526 0.929 . S
C495 C496 1.358 . S
C495 C497 1.356 . S
C495 H527 0.930 . S
C496 N493 1.279 . S
C496 C495 1.358 . S
C496 H499 0.930 . S
C497 C494 1.348 . S
C497 C495 1.356 . S
H498 C492 0.930 . S
H499 C496 0.930 . S
O500 Li440 1.956 . S
O500 Li441 1.970 . S
O500 Li442 1.961 . S
O500 C444 1.325 . S
O501 Li440 1.970 . S
O501 Li441 1.956 . S
O501 Li443 1.961 . S
O501 C450 1.325 . S
O502 Li440 1.961 . S
O502 Li442 1.956 . S
O502 Li443 1.970 . S
O502 C472 1.325 . S
O503 Li441 1.961 . S
O503 Li442 1.970 . S
O503 Li443 1.956 . S
O503 C478 1.325 . S
H504 C446 0.929 . S
H505 C447 0.930 . S
H506 C448 0.930 . S
H507 C449 0.930 . S
H508 C451 0.930 . S
H509 C453 0.929 . S
H510 C454 0.930 . S
H511 C455 0.930 . S
H512 C458 0.930 . S
H513 C461 0.929 . S
H514 C466 0.929 . S
H515 C467 0.930 . S
H516 C474 0.929 . S
H517 C475 0.930 . S
H518 C476 0.930 . S
H519 C477 0.930 . S
H520 C479 0.929 . S
H521 C480 0.930 . S
H522 C481 0.930 . S
H523 C482 0.930 . S
H524 C486 0.929 . S
H525 C488 0.930 . S
H526 C494 0.929 . S
H527 C495 0.930 . S
Li528 N545 1.990 . S
Li528 O588 1.956 . S
Li528 O589 1.970 . S
Li528 O590 1.961 . S
Li529 N553 1.990 . S
Li529 O588 1.970 . S
Li529 O589 1.956 . S
Li529 O591 1.961 . S
Li530 N575 1.990 . S
Li530 O588 1.961 . S
Li530 O590 1.956 . S
Li530 O591 1.970 . S
Li531 N581 1.990 . S
Li531 O589 1.961 . S
Li531 O590 1.970 . S
Li531 O591 1.956 . S
C532 C534 1.348 . S
C532 C535 1.356 . S
C532 O588 1.325 . S
N533 C536 1.314 . S
N533 C537 1.279 . S
C534 C532 1.348 . S
C534 C536 1.353 . S
C534 H592 0.929 . S
C535 C532 1.356 . S
C535 C537 1.358 . S
C535 H593 0.930 . S
C536 N533 1.314 . S
C536 C534 1.353 . S
C536 H594 0.930 . S
C537 N533 1.279 . S
C537 C535 1.358 . S
C537 H595 0.930 . S
C538 C541 1.348 . S
C538 C542 1.356 . S
C538 O589 1.325 . S
C539 N540 1.279 . S
C539 C542 1.358 . S
C539 H596 0.930 . S
N540 C539 1.279 . S
N540 C543 1.314 . S
C541 C538 1.348 . S
C541 C543 1.353 . S
C541 H597 0.929 . S
C542 C538 1.356 . S
C542 C539 1.358 . S
C542 H598 0.930 . S
C543 N540 1.314 . S
C543 C541 1.353 . S
C543 H599 0.930 . S
C544 N545 1.314 . S
C544 C549 1.353 . S
C544 H550 0.930 . S
N545 Li528 1.990 . S
N545 C544 1.314 . S
N545 C547 1.279 . S
C546 C547 1.358 . S
C546 C548 1.356 . S
C546 H600 0.930 . S
C547 N545 1.279 . S
C547 C546 1.358 . S
C547 H551 0.930 . S
C548 C546 1.356 . S
C548 C549 1.348 . S
C549 C544 1.353 . S
C549 C548 1.348 . S
C549 H601 0.929 . S
H550 C544 0.930 . S
H551 C547 0.930 . S
C552 N553 1.314 . S
C552 C554 1.353 . S
C552 H558 0.930 . S
N553 Li529 1.990 . S
N553 C552 1.314 . S
N553 C556 1.279 . S
C554 C552 1.353 . S
C554 C557 1.348 . S
C554 H602 0.929 . S
C555 C556 1.358 . S
C555 C557 1.356 . S
C555 H603 0.930 . S
C556 N553 1.279 . S
C556 C555 1.358 . S
C556 H559 0.930 . S
C557 C554 1.348 . S
C557 C555 1.356 . S
H558 C552 0.930 . S
H559 C556 0.930 . S
C560 C562 1.348 . S
C560 C563 1.356 . S
C560 O590 1.325 . S
N561 C564 1.314 . S
N561 C565 1.279 . S
C562 C560 1.348 . S
C562 C564 1.353 . S
C562 H604 0.929 . S
C563 C560 1.356 . S
C563 C565 1.358 . S
C563 H605 0.930 . S
C564 N561 1.314 . S
C564 C562 1.353 . S
C564 H606 0.930 . S
C565 N561 1.279 . S
C565 C563 1.358 . S
C565 H607 0.930 . S
C566 C567 1.348 . S
C566 C568 1.356 . S
C566 O591 1.325 . S
C567 C566 1.348 . S
C567 C569 1.353 . S
C567 H608 0.929 . S
C568 C566 1.356 . S
C568 C570 1.358 . S
C568 H609 0.930 . S
C569 C567 1.353 . S
C569 N571 1.314 . S
C569 H610 0.930 . S
C570 C568 1.358 . S
C570 N571 1.279 . S
C570 H611 0.930 . S
N571 C569 1.314 . S
N571 C570 1.279 . S
C572 C574 1.353 . S
C572 N575 1.314 . S
C572 H578 0.930 . S
C573 N575 1.279 . S
C573 C576 1.358 . S
C573 H579 0.930 . S
C574 C572 1.353 . S
C574 C577 1.348 . S
C574 H612 0.929 . S
N575 Li530 1.990 . S
N575 C572 1.314 . S
N575 C573 1.279 . S
C576 C573 1.358 . S
C576 C577 1.356 . S
C576 H613 0.930 . S
C577 C574 1.348 . S
C577 C576 1.356 . S
H578 C572 0.930 . S
H579 C573 0.930 . S
C580 N581 1.314 . S
C580 C582 1.353 . S
C580 H586 0.930 . S
N581 Li531 1.990 . S
N581 C580 1.314 . S
N581 C584 1.279 . S
C582 C580 1.353 . S
C582 C585 1.348 . S
C582 H614 0.929 . S
C583 C584 1.358 . S
C583 C585 1.356 . S
C583 H615 0.930 . S
C584 N581 1.279 . S
C584 C583 1.358 . S
C584 H587 0.930 . S
C585 C582 1.348 . S
C585 C583 1.356 . S
H586 C580 0.930 . S
H587 C584 0.930 . S
O588 Li528 1.956 . S
O588 Li529 1.970 . S
O588 Li530 1.961 . S
O588 C532 1.325 . S
O589 Li528 1.970 . S
O589 Li529 1.956 . S
O589 Li531 1.961 . S
O589 C538 1.325 . S
O590 Li528 1.961 . S
O590 Li530 1.956 . S
O590 Li531 1.970 . S
O590 C560 1.325 . S
O591 Li529 1.961 . S
O591 Li530 1.970 . S
O591 Li531 1.956 . S
O591 C566 1.325 . S
H592 C534 0.929 . S
H593 C535 0.930 . S
H594 C536 0.930 . S
H595 C537 0.930 . S
H596 C539 0.930 . S
H597 C541 0.929 . S
H598 C542 0.930 . S
H599 C543 0.930 . S
H600 C546 0.930 . S
H601 C549 0.929 . S
H602 C554 0.929 . S
H603 C555 0.930 . S
H604 C562 0.929 . S
H605 C563 0.930 . S
H606 C564 0.930 . S
H607 C565 0.930 . S
H608 C567 0.929 . S
H609 C568 0.930 . S
H610 C569 0.930 . S
H611 C570 0.930 . S
H612 C574 0.929 . S
H613 C576 0.930 . S
H614 C582 0.929 . S
H615 C583 0.930 . S
Li616 N633 1.990 . S
Li616 O676 1.956 . S
Li616 O677 1.970 . S
Li616 O678 1.961 . S
Li617 N641 1.990 . S
Li617 O676 1.970 . S
Li617 O677 1.956 . S
Li617 O679 1.961 . S
Li618 N663 1.990 . S
Li618 O676 1.961 . S
Li618 O678 1.956 . S
Li618 O679 1.970 . S
Li619 N669 1.990 . S
Li619 O677 1.961 . S
Li619 O678 1.970 . S
Li619 O679 1.956 . S
C620 C622 1.348 . S
C620 C623 1.356 . S
C620 O676 1.325 . S
N621 C624 1.314 . S
N621 C625 1.279 . S
C622 C620 1.348 . S
C622 C624 1.353 . S
C622 H680 0.929 . S
C623 C620 1.356 . S
C623 C625 1.358 . S
C623 H681 0.930 . S
C624 N621 1.314 . S
C624 C622 1.353 . S
C624 H682 0.930 . S
C625 N621 1.279 . S
C625 C623 1.358 . S
C625 H683 0.930 . S
C626 C629 1.348 . S
C626 C630 1.356 . S
C626 O677 1.325 . S
C627 N628 1.279 . S
C627 C630 1.358 . S
C627 H684 0.930 . S
N628 C627 1.279 . S
N628 C631 1.314 . S
C629 C626 1.348 . S
C629 C631 1.353 . S
C629 H685 0.929 . S
C630 C626 1.356 . S
C630 C627 1.358 . S
C630 H686 0.930 . S
C631 N628 1.314 . S
C631 C629 1.353 . S
C631 H687 0.930 . S
C632 N633 1.314 . S
C632 C637 1.353 . S
C632 H638 0.930 . S
N633 Li616 1.990 . S
N633 C632 1.314 . S
N633 C635 1.279 . S
C634 C635 1.358 . S
C634 C636 1.356 . S
C634 H688 0.930 . S
C635 N633 1.279 . S
C635 C634 1.358 . S
C635 H639 0.930 . S
C636 C634 1.356 . S
C636 C637 1.348 . S
C637 C632 1.353 . S
C637 C636 1.348 . S
C637 H689 0.929 . S
H638 C632 0.930 . S
H639 C635 0.930 . S
C640 N641 1.314 . S
C640 C642 1.353 . S
C640 H646 0.930 . S
N641 Li617 1.990 . S
N641 C640 1.314 . S
N641 C644 1.279 . S
C642 C640 1.353 . S
C642 C645 1.348 . S
C642 H690 0.929 . S
C643 C644 1.358 . S
C643 C645 1.356 . S
C643 H691 0.930 . S
C644 N641 1.279 . S
C644 C643 1.358 . S
C644 H647 0.930 . S
C645 C642 1.348 . S
C645 C643 1.356 . S
H646 C640 0.930 . S
H647 C644 0.930 . S
C648 C650 1.348 . S
C648 C651 1.356 . S
C648 O678 1.325 . S
N649 C652 1.314 . S
N649 C653 1.279 . S
C650 C648 1.348 . S
C650 C652 1.353 . S
C650 H692 0.929 . S
C651 C648 1.356 . S
C651 C653 1.358 . S
C651 H693 0.930 . S
C652 N649 1.314 . S
C652 C650 1.353 . S
C652 H694 0.930 . S
C653 N649 1.279 . S
C653 C651 1.358 . S
C653 H695 0.930 . S
C654 C655 1.348 . S
C654 C656 1.356 . S
C654 O679 1.325 . S
C655 C654 1.348 . S
C655 C657 1.353 . S
C655 H696 0.929 . S
C656 C654 1.356 . S
C656 C658 1.358 . S
C656 H697 0.930 . S
C657 C655 1.353 . S
C657 N659 1.314 . S
C657 H698 0.930 . S
C658 C656 1.358 . S
C658 N659 1.279 . S
C658 H699 0.930 . S
N659 C657 1.314 . S
N659 C658 1.279 . S
C660 C662 1.353 . S
C660 N663 1.314 . S
C660 H666 0.930 . S
C661 N663 1.279 . S
C661 C664 1.358 . S
C661 H667 0.930 . S
C662 C660 1.353 . S
C662 C665 1.348 . S
C662 H700 0.929 . S
N663 Li618 1.990 . S
N663 C660 1.314 . S
N663 C661 1.279 . S
C664 C661 1.358 . S
C664 C665 1.356 . S
C664 H701 0.930 . S
C665 C662 1.348 . S
C665 C664 1.356 . S
H666 C660 0.930 . S
H667 C661 0.930 . S
C668 N669 1.314 . S
C668 C670 1.353 . S
C668 H674 0.930 . S
N669 Li619 1.990 . S
N669 C668 1.314 . S
N669 C672 1.279 . S
C670 C668 1.353 . S
C670 C673 1.348 . S
C670 H702 0.929 . S
C671 C672 1.358 . S
C671 C673 1.356 . S
C671 H703 0.930 . S
C672 N669 1.279 . S
C672 C671 1.358 . S
C672 H675 0.930 . S
C673 C670 1.348 . S
C673 C671 1.356 . S
H674 C668 0.930 . S
H675 C672 0.930 . S
O676 Li616 1.956 . S
O676 Li617 1.970 . S
O676 Li618 1.961 . S
O676 C620 1.325 . S
O677 Li616 1.970 . S
O677 Li617 1.956 . S
O677 Li619 1.961 . S
O677 C626 1.325 . S
O678 Li616 1.961 . S
O678 Li618 1.956 . S
O678 Li619 1.970 . S
O678 C648 1.325 . S
O679 Li617 1.961 . S
O679 Li618 1.970 . S
O679 Li619 1.956 . S
O679 C654 1.325 . S
H680 C622 0.929 . S
H681 C623 0.930 . S
H682 C624 0.930 . S
H683 C625 0.930 . S
H684 C627 0.930 . S
H685 C629 0.929 . S
H686 C630 0.930 . S
H687 C631 0.930 . S
H688 C634 0.930 . S
H689 C637 0.929 . S
H690 C642 0.929 . S
H691 C643 0.930 . S
H692 C650 0.929 . S
H693 C651 0.930 . S
H694 C652 0.930 . S
H695 C653 0.930 . S
H696 C655 0.929 . S
H697 C656 0.930 . S
H698 C657 0.930 . S
H699 C658 0.930 . S
H700 C662 0.929 . S
H701 C664 0.930 . S
H702 C670 0.929 . S
H703 C671 0.930 . S
Li704 N721 1.990 . S
Li704 O764 1.956 . S
Li704 O765 1.970 . S
Li704 O766 1.961 . S
Li705 N729 1.990 . S
Li705 O764 1.970 . S
Li705 O765 1.956 . S
Li705 O767 1.961 . S
Li706 N751 1.990 . S
Li706 O764 1.961 . S
Li706 O766 1.956 . S
Li706 O767 1.970 . S
Li707 N757 1.990 . S
Li707 O765 1.961 . S
Li707 O766 1.970 . S
Li707 O767 1.956 . S
C708 C710 1.348 . S
C708 C711 1.356 . S
C708 O764 1.325 . S
N709 C712 1.314 . S
N709 C713 1.279 . S
C710 C708 1.348 . S
C710 C712 1.353 . S
C710 H768 0.929 . S
C711 C708 1.356 . S
C711 C713 1.358 . S
C711 H769 0.930 . S
C712 N709 1.314 . S
C712 C710 1.353 . S
C712 H770 0.930 . S
C713 N709 1.279 . S
C713 C711 1.358 . S
C713 H771 0.930 . S
C714 C717 1.348 . S
C714 C718 1.356 . S
C714 O765 1.325 . S
C715 N716 1.279 . S
C715 C718 1.358 . S
C715 H772 0.930 . S
N716 C715 1.279 . S
N716 C719 1.314 . S
C717 C714 1.348 . S
C717 C719 1.353 . S
C717 H773 0.929 . S
C718 C714 1.356 . S
C718 C715 1.358 . S
C718 H774 0.930 . S
C719 N716 1.314 . S
C719 C717 1.353 . S
C719 H775 0.930 . S
C720 N721 1.314 . S
C720 C725 1.353 . S
C720 H726 0.930 . S
N721 Li704 1.990 . S
N721 C720 1.314 . S
N721 C723 1.279 . S
C722 C723 1.358 . S
C722 C724 1.356 . S
C722 H776 0.930 . S
C723 N721 1.279 . S
C723 C722 1.358 . S
C723 H727 0.930 . S
C724 C722 1.356 . S
C724 C725 1.348 . S
C725 C720 1.353 . S
C725 C724 1.348 . S
C725 H777 0.929 . S
H726 C720 0.930 . S
H727 C723 0.930 . S
C728 N729 1.314 . S
C728 C730 1.353 . S
C728 H734 0.930 . S
N729 Li705 1.990 . S
N729 C728 1.314 . S
N729 C732 1.279 . S
C730 C728 1.353 . S
C730 C733 1.348 . S
C730 H778 0.929 . S
C731 C732 1.358 . S
C731 C733 1.356 . S
C731 H779 0.930 . S
C732 N729 1.279 . S
C732 C731 1.358 . S
C732 H735 0.930 . S
C733 C730 1.348 . S
C733 C731 1.356 . S
H734 C728 0.930 . S
H735 C732 0.930 . S
C736 C738 1.348 . S
C736 C739 1.356 . S
C736 O766 1.325 . S
N737 C740 1.314 . S
N737 C741 1.279 . S
C738 C736 1.348 . S
C738 C740 1.353 . S
C738 H780 0.929 . S
C739 C736 1.356 . S
C739 C741 1.358 . S
C739 H781 0.930 . S
C740 N737 1.314 . S
C740 C738 1.353 . S
C740 H782 0.930 . S
C741 N737 1.279 . S
C741 C739 1.358 . S
C741 H783 0.930 . S
C742 C743 1.348 . S
C742 C744 1.356 . S
C742 O767 1.325 . S
C743 C742 1.348 . S
C743 C745 1.353 . S
C743 H784 0.929 . S
C744 C742 1.356 . S
C744 C746 1.358 . S
C744 H785 0.930 . S
C745 C743 1.353 . S
C745 N747 1.314 . S
C745 H786 0.930 . S
C746 C744 1.358 . S
C746 N747 1.279 . S
C746 H787 0.930 . S
N747 C745 1.314 . S
N747 C746 1.279 . S
C748 C750 1.353 . S
C748 N751 1.314 . S
C748 H754 0.930 . S
C749 N751 1.279 . S
C749 C752 1.358 . S
C749 H755 0.930 . S
C750 C748 1.353 . S
C750 C753 1.348 . S
C750 H788 0.929 . S
N751 Li706 1.990 . S
N751 C748 1.314 . S
N751 C749 1.279 . S
C752 C749 1.358 . S
C752 C753 1.356 . S
C752 H789 0.930 . S
C753 C750 1.348 . S
C753 C752 1.356 . S
H754 C748 0.930 . S
H755 C749 0.930 . S
C756 N757 1.314 . S
C756 C758 1.353 . S
C756 H762 0.930 . S
N757 Li707 1.990 . S
N757 C756 1.314 . S
N757 C760 1.279 . S
C758 C756 1.353 . S
C758 C761 1.348 . S
C758 H790 0.929 . S
C759 C760 1.358 . S
C759 C761 1.356 . S
C759 H791 0.930 . S
C760 N757 1.279 . S
C760 C759 1.358 . S
C760 H763 0.930 . S
C761 C758 1.348 . S
C761 C759 1.356 . S
H762 C756 0.930 . S
H763 C760 0.930 . S
O764 Li704 1.956 . S
O764 Li705 1.970 . S
O764 Li706 1.961 . S
O764 C708 1.325 . S
O765 Li704 1.970 . S
O765 Li705 1.956 . S
O765 Li707 1.961 . S
O765 C714 1.325 . S
O766 Li704 1.961 . S
O766 Li706 1.956 . S
O766 Li707 1.970 . S
O766 C736 1.325 . S
O767 Li705 1.961 . S
O767 Li706 1.970 . S
O767 Li707 1.956 . S
O767 C742 1.325 . S
H768 C710 0.929 . S
H769 C711 0.930 . S
H770 C712 0.930 . S
H771 C713 0.930 . S
H772 C715 0.930 . S
H773 C717 0.929 . S
H774 C718 0.930 . S
H775 C719 0.930 . S
H776 C722 0.930 . S
H777 C725 0.929 . S
H778 C730 0.929 . S
H779 C731 0.930 . S
H780 C738 0.929 . S
H781 C739 0.930 . S
H782 C740 0.930 . S
H783 C741 0.930 . S
H784 C743 0.929 . S
H785 C744 0.930 . S
H786 C745 0.930 . S
H787 C746 0.930 . S
H788 C750 0.929 . S
H789 C752 0.930 . S
H790 C758 0.929 . S
H791 C759 0.930 . S
Li792 N809 1.990 . S
Li792 O852 1.956 . S
Li792 O853 1.970 . S
Li792 O854 1.961 . S
Li793 N817 1.990 . S
Li793 O852 1.970 . S
Li793 O853 1.956 . S
Li793 O855 1.961 . S
Li794 N839 1.990 . S
Li794 O852 1.961 . S
Li794 O854 1.956 . S
Li794 O855 1.970 . S
Li795 N845 1.990 . S
Li795 O853 1.961 . S
Li795 O854 1.970 . S
Li795 O855 1.956 . S
C796 C798 1.348 . S
C796 C799 1.356 . S
C796 O852 1.325 . S
N797 C800 1.314 . S
N797 C801 1.279 . S
C798 C796 1.348 . S
C798 C800 1.353 . S
C798 H856 0.929 . S
C799 C796 1.356 . S
C799 C801 1.358 . S
C799 H857 0.930 . S
C800 N797 1.314 . S
C800 C798 1.353 . S
C800 H858 0.930 . S
C801 N797 1.279 . S
C801 C799 1.358 . S
C801 H859 0.930 . S
C802 C805 1.348 . S
C802 C806 1.356 . S
C802 O853 1.325 . S
C803 N804 1.279 . S
C803 C806 1.358 . S
C803 H860 0.930 . S
N804 C803 1.279 . S
N804 C807 1.314 . S
C805 C802 1.348 . S
C805 C807 1.353 . S
C805 H861 0.929 . S
C806 C802 1.356 . S
C806 C803 1.358 . S
C806 H862 0.930 . S
C807 N804 1.314 . S
C807 C805 1.353 . S
C807 H863 0.930 . S
C808 N809 1.314 . S
C808 C813 1.353 . S
C808 H814 0.930 . S
N809 Li792 1.990 . S
N809 C808 1.314 . S
N809 C811 1.279 . S
C810 C811 1.358 . S
C810 C812 1.356 . S
C810 H864 0.930 . S
C811 N809 1.279 . S
C811 C810 1.358 . S
C811 H815 0.930 . S
C812 C810 1.356 . S
C812 C813 1.348 . S
C813 C808 1.353 . S
C813 C812 1.348 . S
C813 H865 0.929 . S
H814 C808 0.930 . S
H815 C811 0.930 . S
C816 N817 1.314 . S
C816 C818 1.353 . S
C816 H822 0.930 . S
N817 Li793 1.990 . S
N817 C816 1.314 . S
N817 C820 1.279 . S
C818 C816 1.353 . S
C818 C821 1.348 . S
C818 H866 0.929 . S
C819 C820 1.358 . S
C819 C821 1.356 . S
C819 H867 0.930 . S
C820 N817 1.279 . S
C820 C819 1.358 . S
C820 H823 0.930 . S
C821 C818 1.348 . S
C821 C819 1.356 . S
H822 C816 0.930 . S
H823 C820 0.930 . S
C824 C826 1.348 . S
C824 C827 1.356 . S
C824 O854 1.325 . S
N825 C828 1.314 . S
N825 C829 1.279 . S
C826 C824 1.348 . S
C826 C828 1.353 . S
C826 H868 0.929 . S
C827 C824 1.356 . S
C827 C829 1.358 . S
C827 H869 0.930 . S
C828 N825 1.314 . S
C828 C826 1.353 . S
C828 H870 0.930 . S
C829 N825 1.279 . S
C829 C827 1.358 . S
C829 H871 0.930 . S
C830 C831 1.348 . S
C830 C832 1.356 . S
C830 O855 1.325 . S
C831 C830 1.348 . S
C831 C833 1.353 . S
C831 H872 0.929 . S
C832 C830 1.356 . S
C832 C834 1.358 . S
C832 H873 0.930 . S
C833 C831 1.353 . S
C833 N835 1.314 . S
C833 H874 0.930 . S
C834 C832 1.358 . S
C834 N835 1.279 . S
C834 H875 0.930 . S
N835 C833 1.314 . S
N835 C834 1.279 . S
C836 C838 1.353 . S
C836 N839 1.314 . S
C836 H842 0.930 . S
C837 N839 1.279 . S
C837 C840 1.358 . S
C837 H843 0.930 . S
C838 C836 1.353 . S
C838 C841 1.348 . S
C838 H876 0.929 . S
N839 Li794 1.990 . S
N839 C836 1.314 . S
N839 C837 1.279 . S
C840 C837 1.358 . S
C840 C841 1.356 . S
C840 H877 0.930 . S
C841 C838 1.348 . S
C841 C840 1.356 . S
H842 C836 0.930 . S
H843 C837 0.930 . S
C844 N845 1.314 . S
C844 C846 1.353 . S
C844 H850 0.930 . S
N845 Li795 1.990 . S
N845 C844 1.314 . S
N845 C848 1.279 . S
C846 C844 1.353 . S
C846 C849 1.348 . S
C846 H878 0.929 . S
C847 C848 1.358 . S
C847 C849 1.356 . S
C847 H879 0.930 . S
C848 N845 1.279 . S
C848 C847 1.358 . S
C848 H851 0.930 . S
C849 C846 1.348 . S
C849 C847 1.356 . S
H850 C844 0.930 . S
H851 C848 0.930 . S
O852 Li792 1.956 . S
O852 Li793 1.970 . S
O852 Li794 1.961 . S
O852 C796 1.325 . S
O853 Li792 1.970 . S
O853 Li793 1.956 . S
O853 Li795 1.961 . S
O853 C802 1.325 . S
O854 Li792 1.961 . S
O854 Li794 1.956 . S
O854 Li795 1.970 . S
O854 C824 1.325 . S
O855 Li793 1.961 . S
O855 Li794 1.970 . S
O855 Li795 1.956 . S
O855 C830 1.325 . S
H856 C798 0.929 . S
H857 C799 0.930 . S
H858 C800 0.930 . S
H859 C801 0.930 . S
H860 C803 0.930 . S
H861 C805 0.929 . S
H862 C806 0.930 . S
H863 C807 0.930 . S
H864 C810 0.930 . S
H865 C813 0.929 . S
H866 C818 0.929 . S
H867 C819 0.930 . S
H868 C826 0.929 . S
H869 C827 0.930 . S
H870 C828 0.930 . S
H871 C829 0.930 . S
H872 C831 0.929 . S
H873 C832 0.930 . S
H874 C833 0.930 . S
H875 C834 0.930 . S
H876 C838 0.929 . S
H877 C840 0.930 . S
H878 C846 0.929 . S
H879 C847 0.930 . S
Li880 N897 1.990 . S
Li880 O940 1.956 . S
Li880 O941 1.970 . S
Li880 O942 1.961 . S
Li881 N905 1.990 . S
Li881 O940 1.970 . S
Li881 O941 1.956 . S
Li881 O943 1.961 . S
Li882 N927 1.990 . S
Li882 O940 1.961 . S
Li882 O942 1.956 . S
Li882 O943 1.970 . S
Li883 N933 1.990 . S
Li883 O941 1.961 . S
Li883 O942 1.970 . S
Li883 O943 1.956 . S
C884 C886 1.348 . S
C884 C887 1.356 . S
C884 O940 1.325 . S
N885 C888 1.314 . S
N885 C889 1.279 . S
C886 C884 1.348 . S
C886 C888 1.353 . S
C886 H944 0.929 . S
C887 C884 1.356 . S
C887 C889 1.358 . S
C887 H945 0.930 . S
C888 N885 1.314 . S
C888 C886 1.353 . S
C888 H946 0.930 . S
C889 N885 1.279 . S
C889 C887 1.358 . S
C889 H947 0.930 . S
C890 C893 1.348 . S
C890 C894 1.356 . S
C890 O941 1.325 . S
C891 N892 1.279 . S
C891 C894 1.358 . S
C891 H948 0.930 . S
N892 C891 1.279 . S
N892 C895 1.314 . S
C893 C890 1.348 . S
C893 C895 1.353 . S
C893 H949 0.929 . S
C894 C890 1.356 . S
C894 C891 1.358 . S
C894 H950 0.930 . S
C895 N892 1.314 . S
C895 C893 1.353 . S
C895 H951 0.930 . S
C896 N897 1.314 . S
C896 C901 1.353 . S
C896 H902 0.930 . S
N897 Li880 1.990 . S
N897 C896 1.314 . S
N897 C899 1.279 . S
C898 C899 1.358 . S
C898 C900 1.356 . S
C898 H952 0.930 . S
C899 N897 1.279 . S
C899 C898 1.358 . S
C899 H903 0.930 . S
C900 C898 1.356 . S
C900 C901 1.348 . S
C901 C896 1.353 . S
C901 C900 1.348 . S
C901 H953 0.929 . S
H902 C896 0.930 . S
H903 C899 0.930 . S
C904 N905 1.314 . S
C904 C906 1.353 . S
C904 H910 0.930 . S
N905 Li881 1.990 . S
N905 C904 1.314 . S
N905 C908 1.279 . S
C906 C904 1.353 . S
C906 C909 1.348 . S
C906 H954 0.929 . S
C907 C908 1.358 . S
C907 C909 1.356 . S
C907 H955 0.930 . S
C908 N905 1.279 . S
C908 C907 1.358 . S
C908 H911 0.930 . S
C909 C906 1.348 . S
C909 C907 1.356 . S
H910 C904 0.930 . S
H911 C908 0.930 . S
C912 C914 1.348 . S
C912 C915 1.356 . S
C912 O942 1.325 . S
N913 C916 1.314 . S
N913 C917 1.279 . S
C914 C912 1.348 . S
C914 C916 1.353 . S
C914 H956 0.929 . S
C915 C912 1.356 . S
C915 C917 1.358 . S
C915 H957 0.930 . S
C916 N913 1.314 . S
C916 C914 1.353 . S
C916 H958 0.930 . S
C917 N913 1.279 . S
C917 C915 1.358 . S
C917 H959 0.930 . S
C918 C919 1.348 . S
C918 C920 1.356 . S
C918 O943 1.325 . S
C919 C918 1.348 . S
C919 C921 1.353 . S
C919 H960 0.929 . S
C920 C918 1.356 . S
C920 C922 1.358 . S
C920 H961 0.930 . S
C921 C919 1.353 . S
C921 N923 1.314 . S
C921 H962 0.930 . S
C922 C920 1.358 . S
C922 N923 1.279 . S
C922 H963 0.930 . S
N923 C921 1.314 . S
N923 C922 1.279 . S
C924 C926 1.353 . S
C924 N927 1.314 . S
C924 H930 0.930 . S
C925 N927 1.279 . S
C925 C928 1.358 . S
C925 H931 0.930 . S
C926 C924 1.353 . S
C926 C929 1.348 . S
C926 H964 0.929 . S
N927 Li882 1.990 . S
N927 C924 1.314 . S
N927 C925 1.279 . S
C928 C925 1.358 . S
C928 C929 1.356 . S
C928 H965 0.930 . S
C929 C926 1.348 . S
C929 C928 1.356 . S
H930 C924 0.930 . S
H931 C925 0.930 . S
C932 N933 1.314 . S
C932 C934 1.353 . S
C932 H938 0.930 . S
N933 Li883 1.990 . S
N933 C932 1.314 . S
N933 C936 1.279 . S
C934 C932 1.353 . S
C934 C937 1.348 . S
C934 H966 0.929 . S
C935 C936 1.358 . S
C935 C937 1.356 . S
C935 H967 0.930 . S
C936 N933 1.279 . S
C936 C935 1.358 . S
C936 H939 0.930 . S
C937 C934 1.348 . S
C937 C935 1.356 . S
H938 C932 0.930 . S
H939 C936 0.930 . S
O940 Li880 1.956 . S
O940 Li881 1.970 . S
O940 Li882 1.961 . S
O940 C884 1.325 . S
O941 Li880 1.970 . S
O941 Li881 1.956 . S
O941 Li883 1.961 . S
O941 C890 1.325 . S
O942 Li880 1.961 . S
O942 Li882 1.956 . S
O942 Li883 1.970 . S
O942 C912 1.325 . S
O943 Li881 1.961 . S
O943 Li882 1.970 . S
O943 Li883 1.956 . S
O943 C918 1.325 . S
H944 C886 0.929 . S
H945 C887 0.930 . S
H946 C888 0.930 . S
H947 C889 0.930 . S
H948 C891 0.930 . S
H949 C893 0.929 . S
H950 C894 0.930 . S
H951 C895 0.930 . S
H952 C898 0.930 . S
H953 C901 0.929 . S
H954 C906 0.929 . S
H955 C907 0.930 . S
H956 C914 0.929 . S
H957 C915 0.930 . S
H958 C916 0.930 . S
H959 C917 0.930 . S
H960 C919 0.929 . S
H961 C920 0.930 . S
H962 C921 0.930 . S
H963 C922 0.930 . S
H964 C926 0.929 . S
H965 C928 0.930 . S
H966 C934 0.929 . S
H967 C935 0.930 . S
Li968 N985 1.990 . S
Li968 O1028 1.956 . S
Li968 O1029 1.970 . S
Li968 O1030 1.961 . S
Li969 N993 1.990 . S
Li969 O1028 1.970 . S
Li969 O1029 1.956 . S
Li969 O1031 1.961 . S
Li970 N1015 1.990 . S
Li970 O1028 1.961 . S
Li970 O1030 1.956 . S
Li970 O1031 1.970 . S
Li971 N1021 1.990 . S
Li971 O1029 1.961 . S
Li971 O1030 1.970 . S
Li971 O1031 1.956 . S
C972 C974 1.348 . S
C972 C975 1.356 . S
C972 O1028 1.325 . S
N973 C976 1.314 . S
N973 C977 1.279 . S
C974 C972 1.348 . S
C974 C976 1.353 . S
C974 H1032 0.929 . S
C975 C972 1.356 . S
C975 C977 1.358 . S
C975 H1033 0.930 . S
C976 N973 1.314 . S
C976 C974 1.353 . S
C976 H1034 0.930 . S
C977 N973 1.279 . S
C977 C975 1.358 . S
C977 H1035 0.930 . S
C978 C981 1.348 . S
C978 C982 1.356 . S
C978 O1029 1.325 . S
C979 N980 1.279 . S
C979 C982 1.358 . S
C979 H1036 0.930 . S
N980 C979 1.279 . S
N980 C983 1.314 . S
C981 C978 1.348 . S
C981 C983 1.353 . S
C981 H1037 0.929 . S
C982 C978 1.356 . S
C982 C979 1.358 . S
C982 H1038 0.930 . S
C983 N980 1.314 . S
C983 C981 1.353 . S
C983 H1039 0.930 . S
C984 N985 1.314 . S
C984 C989 1.353 . S
C984 H990 0.930 . S
N985 Li968 1.990 . S
N985 C984 1.314 . S
N985 C987 1.279 . S
C986 C987 1.358 . S
C986 C988 1.356 . S
C986 H1040 0.930 . S
C987 N985 1.279 . S
C987 C986 1.358 . S
C987 H991 0.930 . S
C988 C986 1.356 . S
C988 C989 1.348 . S
C989 C984 1.353 . S
C989 C988 1.348 . S
C989 H1041 0.929 . S
H990 C984 0.930 . S
H991 C987 0.930 . S
C992 N993 1.314 . S
C992 C994 1.353 . S
C992 H998 0.930 . S
N993 Li969 1.990 . S
N993 C992 1.314 . S
N993 C996 1.279 . S
C994 C992 1.353 . S
C994 C997 1.348 . S
C994 H1042 0.929 . S
C995 C996 1.358 . S
C995 C997 1.356 . S
C995 H1043 0.930 . S
C996 N993 1.279 . S
C996 C995 1.358 . S
C996 H999 0.930 . S
C997 C994 1.348 . S
C997 C995 1.356 . S
H998 C992 0.930 . S
H999 C996 0.930 . S
C1000 C1002 1.348 . S
C1000 C1003 1.356 . S
C1000 O1030 1.325 . S
N1001 C1004 1.314 . S
N1001 C1005 1.279 . S
C1002 C1000 1.348 . S
C1002 C1004 1.353 . S
C1002 H1044 0.929 . S
C1003 C1000 1.356 . S
C1003 C1005 1.358 . S
C1003 H1045 0.930 . S
C1004 N1001 1.314 . S
C1004 C1002 1.353 . S
C1004 H1046 0.930 . S
C1005 N1001 1.279 . S
C1005 C1003 1.358 . S
C1005 H1047 0.930 . S
C1006 C1007 1.348 . S
C1006 C1008 1.356 . S
C1006 O1031 1.325 . S
C1007 C1006 1.348 . S
C1007 C1009 1.353 . S
C1007 H1048 0.929 . S
C1008 C1006 1.356 . S
C1008 C1010 1.358 . S
C1008 H1049 0.930 . S
C1009 C1007 1.353 . S
C1009 N1011 1.314 . S
C1009 H1050 0.930 . S
C1010 C1008 1.358 . S
C1010 N1011 1.279 . S
C1010 H1051 0.930 . S
N1011 C1009 1.314 . S
N1011 C1010 1.279 . S
C1012 C1014 1.353 . S
C1012 N1015 1.314 . S
C1012 H1018 0.930 . S
C1013 N1015 1.279 . S
C1013 C1016 1.358 . S
C1013 H1019 0.930 . S
C1014 C1012 1.353 . S
C1014 C1017 1.348 . S
C1014 H1052 0.929 . S
N1015 Li970 1.990 . S
N1015 C1012 1.314 . S
N1015 C1013 1.279 . S
C1016 C1013 1.358 . S
C1016 C1017 1.356 . S
C1016 H1053 0.930 . S
C1017 C1014 1.348 . S
C1017 C1016 1.356 . S
H1018 C1012 0.930 . S
H1019 C1013 0.930 . S
C1020 N1021 1.314 . S
C1020 C1022 1.353 . S
C1020 H1026 0.930 . S
N1021 Li971 1.990 . S
N1021 C1020 1.314 . S
N1021 C1024 1.279 . S
C1022 C1020 1.353 . S
C1022 C1025 1.348 . S
C1022 H1054 0.929 . S
C1023 C1024 1.358 . S
C1023 C1025 1.356 . S
C1023 H1055 0.930 . S
C1024 N1021 1.279 . S
C1024 C1023 1.358 . S
C1024 H1027 0.930 . S
C1025 C1022 1.348 . S
C1025 C1023 1.356 . S
H1026 C1020 0.930 . S
H1027 C1024 0.930 . S
O1028 Li968 1.956 . S
O1028 Li969 1.970 . S
O1028 Li970 1.961 . S
O1028 C972 1.325 . S
O1029 Li968 1.970 . S
O1029 Li969 1.956 . S
O1029 Li971 1.961 . S
O1029 C978 1.325 . S
O1030 Li968 1.961 . S
O1030 Li970 1.956 . S
O1030 Li971 1.970 . S
O1030 C1000 1.325 . S
O1031 Li969 1.961 . S
O1031 Li970 1.970 . S
O1031 Li971 1.956 . S
O1031 C1006 1.325 . S
H1032 C974 0.929 . S
H1033 C975 0.930 . S
H1034 C976 0.930 . S
H1035 C977 0.930 . S
H1036 C979 0.930 . S
H1037 C981 0.929 . S
H1038 C982 0.930 . S
H1039 C983 0.930 . S
H1040 C986 0.930 . S
H1041 C989 0.929 . S
H1042 C994 0.929 . S
H1043 C995 0.930 . S
H1044 C1002 0.929 . S
H1045 C1003 0.930 . S
H1046 C1004 0.930 . S
H1047 C1005 0.930 . S
H1048 C1007 0.929 . S
H1049 C1008 0.930 . S
H1050 C1009 0.930 . S
H1051 C1010 0.930 . S
H1052 C1014 0.929 . S
H1053 C1016 0.930 . S
H1054 C1022 0.929 . S
H1055 C1023 0.930 . S
H1056 C1064 0.950 . S
H1057 C1069 0.950 . S
H1058 C1066 0.914 1_655 S
H1059 C1068 0.950 . S
H1060 C1070 0.950 . S
H1061 C1072 0.914 1_455 S
H1062 C1074 0.950 . S
H1063 C1075 0.950 . S
C1064 H1056 0.950 . S
C1064 C1065 1.386 . S
C1064 C1066 1.408 . S
C1065 C1064 1.386 . S
C1065 C1069 1.393 . S
C1066 H1058 0.914 1_455 S
C1066 C1064 1.408 . S
C1066 C1067 1.420 . S
C1067 C1066 1.420 . S
C1067 C1068 1.398 . S
C1067 C1073 1.491 1_454 S
C1068 H1059 0.950 . S
C1068 C1067 1.398 . S
C1068 C1069 1.391 . S
C1069 H1057 0.950 . S
C1069 C1065 1.393 . S
C1069 C1068 1.391 . S
C1070 H1060 0.950 . S
C1070 C1071 1.386 . S
C1070 C1072 1.408 . S
C1071 C1070 1.386 . S
C1071 C1075 1.393 . S
C1072 H1061 0.914 1_655 S
C1072 C1070 1.408 . S
C1072 C1073 1.420 . S
C1073 C1067 1.491 1_656 S
C1073 C1072 1.420 . S
C1073 C1074 1.398 . S
C1074 H1062 0.950 . S
C1074 C1073 1.398 . S
C1074 C1075 1.391 . S
C1075 H1063 0.950 . S
C1075 C1071 1.393 . S
C1075 C1074 1.391 . S
H1076 C1084 0.950 . S
H1077 C1089 0.950 . S
H1078 C1086 0.944 . S
H1079 C1088 0.950 . S
H1080 C1090 0.950 . S
H1081 C1092 0.944 . S
H1082 C1094 0.950 . S
H1083 C1095 0.950 . S
C1084 H1076 0.950 . S
C1084 C1085 1.386 . S
C1084 C1086 1.394 1_565 S
C1085 C1084 1.386 . S
C1085 C1089 1.393 . S
C1086 H1078 0.944 . S
C1086 C1084 1.394 1_545 S
C1086 C1087 1.403 1_545 S
C1087 C1086 1.403 1_565 S
C1087 C1088 1.398 . S
C1087 C1093 1.491 1_565 S
C1088 H1079 0.950 . S
C1088 C1087 1.398 . S
C1088 C1089 1.391 . S
C1089 H1077 0.950 . S
C1089 C1085 1.393 . S
C1089 C1088 1.391 . S
C1090 H1080 0.950 . S
C1090 C1091 1.386 . S
C1090 C1092 1.394 1_545 S
C1091 C1090 1.386 . S
C1091 C1095 1.393 . S
C1092 H1081 0.944 . S
C1092 C1090 1.394 1_565 S
C1092 C1093 1.403 1_565 S
C1093 C1087 1.491 1_545 S
C1093 C1092 1.403 1_545 S
C1093 C1094 1.398 . S
C1094 H1082 0.950 . S
C1094 C1093 1.398 . S
C1094 C1095 1.391 . S
C1095 H1083 0.950 . S
C1095 C1091 1.393 . S
C1095 C1094 1.391 . S
H1096 C1104 0.950 . S
H1097 C1109 0.950 . S
H1098 C1106 0.950 . S
H1099 C1108 0.950 . S
H1100 C1110 0.950 . S
H1101 C1112 0.950 . S
H1102 C1114 0.950 . S
H1103 C1115 0.950 . S
C1104 H1096 0.950 . S
C1104 C1105 1.386 . S
C1104 C1106 1.391 . S
C1105 C1104 1.386 . S
C1105 C1109 1.393 . S
C1106 H1098 0.950 . S
C1106 C1104 1.391 . S
C1106 C1107 1.400 . S
C1107 C1106 1.400 . S
C1107 C1108 1.398 . S
C1107 C1113 1.491 1_554 S
C1108 H1099 0.950 . S
C1108 C1107 1.398 . S
C1108 C1109 1.391 . S
C1109 H1097 0.950 . S
C1109 C1105 1.393 . S
C1109 C1108 1.391 . S
C1110 H1100 0.950 . S
C1110 C1111 1.386 . S
C1110 C1112 1.391 . S
C1111 C1110 1.386 . S
C1111 C1115 1.393 . S
C1112 H1101 0.950 . S
C1112 C1110 1.391 . S
C1112 C1113 1.400 . S
C1113 C1107 1.491 1_556 S
C1113 C1112 1.400 . S
C1113 C1114 1.398 . S
C1114 H1102 0.950 . S
C1114 C1113 1.398 . S
C1114 C1115 1.391 . S
C1115 H1103 0.950 . S
C1115 C1111 1.393 . S
C1115 C1114 1.391 . S
H1116 C1124 0.950 . S
H1117 C1129 0.950 . S
H1118 C1126 0.950 1_655 S
H1119 C1128 0.950 . S
H1120 C1130 0.950 . S
H1121 C1132 0.950 1_455 S
H1122 C1134 0.950 . S
H1123 C1135 0.950 . S
C1124 H1116 0.950 . S
C1124 C1125 1.386 . S
C1124 C1126 1.391 . S
C1125 C1124 1.386 . S
C1125 C1129 1.393 . S
C1126 H1118 0.950 1_455 S
C1126 C1124 1.391 . S
C1126 C1127 1.400 . S
C1127 C1126 1.400 . S
C1127 C1128 1.398 . S
C1127 C1133 1.491 1_455 S
C1128 H1119 0.950 . S
C1128 C1127 1.398 . S
C1128 C1129 1.391 . S
C1129 H1117 0.950 . S
C1129 C1125 1.393 . S
C1129 C1128 1.391 . S
C1130 H1120 0.950 . S
C1130 C1131 1.386 . S
C1130 C1132 1.391 . S
C1131 C1130 1.386 . S
C1131 C1135 1.393 . S
C1132 H1121 0.950 1_655 S
C1132 C1130 1.391 . S
C1132 C1133 1.400 . S
C1133 C1127 1.491 1_655 S
C1133 C1132 1.400 . S
C1133 C1134 1.398 . S
C1134 H1122 0.950 . S
C1134 C1133 1.398 . S
C1134 C1135 1.391 . S
C1135 H1123 0.950 . S
C1135 C1131 1.393 . S
C1135 C1134 1.391 . S
H1136 C1144 0.950 . S
H1137 C1149 0.950 . S
H1138 C1146 0.950 . S
H1139 C1148 0.950 . S
H1140 C1150 0.950 . S
H1141 C1152 0.950 . S
H1142 C1154 0.950 . S
H1143 C1155 0.950 . S
C1144 H1136 0.950 . S
C1144 C1145 1.386 . S
C1144 C1146 1.391 . S
C1145 C1144 1.386 . S
C1145 C1149 1.393 . S
C1146 H1138 0.950 . S
C1146 C1144 1.391 . S
C1146 C1147 1.400 . S
C1147 C1146 1.400 . S
C1147 C1148 1.398 . S
C1147 C1153 1.491 1_546 S
C1148 H1139 0.950 . S
C1148 C1147 1.398 . S
C1148 C1149 1.391 . S
C1149 H1137 0.950 . S
C1149 C1145 1.393 . S
C1149 C1148 1.391 . S
C1150 H1140 0.950 . S
C1150 C1151 1.386 . S
C1150 C1152 1.391 . S
C1151 C1150 1.386 . S
C1151 C1155 1.393 . S
C1152 H1141 0.950 . S
C1152 C1150 1.391 . S
C1152 C1153 1.400 . S
C1153 C1147 1.491 1_564 S
C1153 C1152 1.400 . S
C1153 C1154 1.398 . S
C1154 H1142 0.950 . S
C1154 C1153 1.398 . S
C1154 C1155 1.391 . S
C1155 H1143 0.950 . S
C1155 C1151 1.393 . S
C1155 C1154 1.391 . S
H1156 C1164 0.950 . S
H1157 C1169 0.950 . S
H1158 C1166 0.950 . S
H1159 C1168 0.950 . S
H1160 C1170 0.950 . S
H1161 C1172 0.950 . S
H1162 C1174 0.950 . S
H1163 C1175 0.950 . S
C1164 H1156 0.950 . S
C1164 C1165 1.386 . S
C1164 C1166 1.391 . S
C1165 C1164 1.386 . S
C1165 C1169 1.393 . S
C1166 H1158 0.950 . S
C1166 C1164 1.391 . S
C1166 C1167 1.400 . S
C1167 C1166 1.400 . S
C1167 C1168 1.398 . S
C1167 C1173 1.491 . S
C1168 H1159 0.950 . S
C1168 C1167 1.398 . S
C1168 C1169 1.391 . S
C1169 H1157 0.950 . S
C1169 C1165 1.393 . S
C1169 C1168 1.391 . S
C1170 H1160 0.950 . S
C1170 C1171 1.386 . S
C1170 C1172 1.391 . S
C1171 C1170 1.386 . S
C1171 C1175 1.393 . S
C1172 H1161 0.950 . S
C1172 C1170 1.391 . S
C1172 C1173 1.400 . S
C1173 C1167 1.491 . S
C1173 C1172 1.400 . S
C1173 C1174 1.398 . S
C1174 H1162 0.950 . S
C1174 C1173 1.398 . S
C1174 C1175 1.391 . S
C1175 H1163 0.950 . S
C1175 C1171 1.393 . S
C1175 C1174 1.391 . S
H1176 C1184 0.950 . S
H1177 C1189 0.950 . S
H1178 C1186 0.950 . S
H1179 C1188 0.930 1_455 S
H1180 C1190 0.950 . S
H1181 C1192 0.950 . S
H1182 C1194 0.930 1_655 S
H1183 C1195 0.950 . S
C1184 H1176 0.950 . S
C1184 C1185 1.386 . S
C1184 C1186 1.391 . S
C1185 C1184 1.386 . S
C1185 C1189 1.393 . S
C1186 H1178 0.950 . S
C1186 C1184 1.391 . S
C1186 C1187 1.400 . S
C1187 C1186 1.400 . S
C1187 C1188 1.390 . S
C1187 C1193 1.491 1_656 S
C1188 H1179 0.930 1_655 S
C1188 C1187 1.390 . S
C1188 C1189 1.424 . S
C1189 H1177 0.950 . S
C1189 C1185 1.393 . S
C1189 C1188 1.424 . S
C1190 H1180 0.950 . S
C1190 C1191 1.386 . S
C1190 C1192 1.391 . S
C1191 C1190 1.386 . S
C1191 C1195 1.393 . S
C1192 H1181 0.950 . S
C1192 C1190 1.391 . S
C1192 C1193 1.400 . S
C1193 C1187 1.491 1_454 S
C1193 C1192 1.400 . S
C1193 C1194 1.390 . S
C1194 H1182 0.930 1_455 S
C1194 C1193 1.390 . S
C1194 C1195 1.424 . S
C1195 H1183 0.950 . S
C1195 C1191 1.393 . S
C1195 C1194 1.424 . S
H1196 C1204 0.950 . S
H1197 C1209 0.950 . S
H1198 C1206 0.950 . S
H1199 C1208 0.950 . S
H1200 C1210 0.950 . S
H1201 C1212 0.950 . S
H1202 C1214 0.950 . S
H1203 C1215 0.950 . S
C1204 H1196 0.950 . S
C1204 C1205 1.386 . S
C1204 C1206 1.391 . S
C1205 C1204 1.386 . S
C1205 C1209 1.393 . S
C1206 H1198 0.950 . S
C1206 C1204 1.391 . S
C1206 C1207 1.400 . S
C1207 C1206 1.400 . S
C1207 C1208 1.398 . S
C1207 C1213 1.491 1_565 S
C1208 H1199 0.950 . S
C1208 C1207 1.398 . S
C1208 C1209 1.391 . S
C1209 H1197 0.950 . S
C1209 C1205 1.393 . S
C1209 C1208 1.391 . S
C1210 H1200 0.950 . S
C1210 C1211 1.386 . S
C1210 C1212 1.391 . S
C1211 C1210 1.386 . S
C1211 C1215 1.393 . S
C1212 H1201 0.950 . S
C1212 C1210 1.391 . S
C1212 C1213 1.400 . S
C1213 C1207 1.491 1_545 S
C1213 C1212 1.400 . S
C1213 C1214 1.398 . S
C1214 H1202 0.950 . S
C1214 C1213 1.398 . S
C1214 C1215 1.391 . S
C1215 H1203 0.950 . S
C1215 C1211 1.393 . S
C1215 C1214 1.391 . S
H1216 C1224 0.950 . S
H1217 C1229 0.950 . S
H1218 C1226 0.950 1_554 S
H1219 C1228 0.950 . S
H1220 C1230 0.950 . S
H1221 C1232 0.950 1_556 S
H1222 C1234 0.950 . S
H1223 C1235 0.950 . S
C1224 H1216 0.950 . S
C1224 C1225 1.386 . S
C1224 C1226 1.391 . S
C1225 C1224 1.386 . S
C1225 C1229 1.393 . S
C1226 H1218 0.950 1_556 S
C1226 C1224 1.391 . S
C1226 C1227 1.400 . S
C1227 C1226 1.400 . S
C1227 C1228 1.398 . S
C1227 C1233 1.491 1_556 S
C1228 H1219 0.950 . S
C1228 C1227 1.398 . S
C1228 C1229 1.391 . S
C1229 H1217 0.950 . S
C1229 C1225 1.393 . S
C1229 C1228 1.391 . S
C1230 H1220 0.950 . S
C1230 C1231 1.386 . S
C1230 C1232 1.391 . S
C1231 C1230 1.386 . S
C1231 C1235 1.393 . S
C1232 H1221 0.950 1_554 S
C1232 C1230 1.391 . S
C1232 C1233 1.400 . S
C1233 C1227 1.491 1_554 S
C1233 C1232 1.400 . S
C1233 C1234 1.398 . S
C1234 H1222 0.950 . S
C1234 C1233 1.398 . S
C1234 C1235 1.391 . S
C1235 H1223 0.950 . S
C1235 C1231 1.393 . S
C1235 C1234 1.391 . S
H1236 C1244 0.950 . S
H1237 C1249 0.950 . S
H1238 C1246 0.950 1_455 S
H1239 C1248 0.950 . S
H1240 C1250 0.950 . S
H1241 C1252 0.950 1_655 S
H1242 C1254 0.950 . S
H1243 C1255 0.950 . S
C1244 H1236 0.950 . S
C1244 C1245 1.386 . S
C1244 C1246 1.391 . S
C1245 C1244 1.386 . S
C1245 C1249 1.393 . S
C1246 H1238 0.950 1_655 S
C1246 C1244 1.391 . S
C1246 C1247 1.400 . S
C1247 C1246 1.400 . S
C1247 C1248 1.398 . S
C1247 C1253 1.491 1_655 S
C1248 H1239 0.950 . S
C1248 C1247 1.398 . S
C1248 C1249 1.391 . S
C1249 H1237 0.950 . S
C1249 C1245 1.393 . S
C1249 C1248 1.391 . S
C1250 H1240 0.950 . S
C1250 C1251 1.386 . S
C1250 C1252 1.391 . S
C1251 C1250 1.386 . S
C1251 C1255 1.393 . S
C1252 H1241 0.950 1_455 S
C1252 C1250 1.391 . S
C1252 C1253 1.400 . S
C1253 C1247 1.491 1_455 S
C1253 C1252 1.400 . S
C1253 C1254 1.398 . S
C1254 H1242 0.950 . S
C1254 C1253 1.398 . S
C1254 C1255 1.391 . S
C1255 H1243 0.950 . S
C1255 C1251 1.393 . S
C1255 C1254 1.391 . S
H1256 C1264 0.950 . S
H1257 C1269 0.950 . S
H1258 C1266 0.950 . S
H1259 C1268 0.959 . S
H1260 C1270 0.950 . S
H1261 C1272 0.950 . S
H1262 C1274 0.959 . S
H1263 C1275 0.950 . S
C1264 H1256 0.950 . S
C1264 C1265 1.386 . S
C1264 C1266 1.391 . S
C1265 C1264 1.386 . S
C1265 C1269 1.393 . S
C1266 H1258 0.950 . S
C1266 C1264 1.391 . S
C1266 C1267 1.400 . S
C1267 C1266 1.400 . S
C1267 C1268 1.399 1_545 S
C1267 C1273 1.491 1_546 S
C1268 H1259 0.959 . S
C1268 C1267 1.399 1_565 S
C1268 C1269 1.381 1_565 S
C1269 H1257 0.950 . S
C1269 C1265 1.393 . S
C1269 C1268 1.381 1_545 S
C1270 H1260 0.950 . S
C1270 C1271 1.386 . S
C1270 C1272 1.391 . S
C1271 C1270 1.386 . S
C1271 C1275 1.393 . S
C1272 H1261 0.950 . S
C1272 C1270 1.391 . S
C1272 C1273 1.400 . S
C1273 C1267 1.491 1_564 S
C1273 C1272 1.400 . S
C1273 C1274 1.399 1_565 S
C1274 H1262 0.959 . S
C1274 C1273 1.399 1_545 S
C1274 C1275 1.381 1_545 S
C1275 H1263 0.950 . S
C1275 C1271 1.393 . S
C1275 C1274 1.381 1_565 S
H1276 C1284 0.950 . S
H1277 C1289 0.950 . S
H1278 C1286 0.950 . S
H1279 C1288 0.950 . S
H1280 C1290 0.950 . S
H1281 C1292 0.950 . S
H1282 C1294 0.950 . S
H1283 C1295 0.950 . S
C1284 H1276 0.950 . S
C1284 C1285 1.386 . S
C1284 C1286 1.391 . S
C1285 C1284 1.386 . S
C1285 C1289 1.393 . S
C1286 H1278 0.950 . S
C1286 C1284 1.391 . S
C1286 C1287 1.400 . S
C1287 C1286 1.400 . S
C1287 C1288 1.398 . S
C1287 C1293 1.491 . S
C1288 H1279 0.950 . S
C1288 C1287 1.398 . S
C1288 C1289 1.391 . S
C1289 H1277 0.950 . S
C1289 C1285 1.393 . S
C1289 C1288 1.391 . S
C1290 H1280 0.950 . S
C1290 C1291 1.386 . S
C1290 C1292 1.391 . S
C1291 C1290 1.386 . S
C1291 C1295 1.393 . S
C1292 H1281 0.950 . S
C1292 C1290 1.391 . S
C1292 C1293 1.400 . S
C1293 C1287 1.491 . S
C1293 C1292 1.400 . S
C1293 C1294 1.398 . S
C1294 H1282 0.950 . S
C1294 C1293 1.398 . S
C1294 C1295 1.391 . S
C1295 H1283 0.950 . S
C1295 C1291 1.393 . S
C1295 C1294 1.391 . S
H1296 C1304 0.950 . S
H1297 C1309 0.950 . S
H1298 C1306 0.950 . S
H1299 C1308 0.950 . S
H1300 C1310 0.950 . S
H1301 C1312 0.950 . S
H1302 C1314 0.950 . S
H1303 C1315 0.950 . S
C1304 H1296 0.950 . S
C1304 C1305 1.386 . S
C1304 C1306 1.391 . S
C1305 C1304 1.386 . S
C1305 C1309 1.393 . S
C1306 H1298 0.950 . S
C1306 C1304 1.391 . S
C1306 C1307 1.400 . S
C1307 C1306 1.400 . S
C1307 C1308 1.398 . S
C1307 C1313 1.491 . S
C1308 H1299 0.950 . S
C1308 C1307 1.398 . S
C1308 C1309 1.391 . S
C1309 H1297 0.950 . S
C1309 C1305 1.393 . S
C1309 C1308 1.391 . S
C1310 H1300 0.950 . S
C1310 C1311 1.386 . S
C1310 C1312 1.391 . S
C1311 C1310 1.386 . S
C1311 C1315 1.393 . S
C1312 H1301 0.950 . S
C1312 C1310 1.391 . S
C1312 C1313 1.400 . S
C1313 C1307 1.491 . S
C1313 C1312 1.400 . S
C1313 C1314 1.398 . S
C1314 H1302 0.950 . S
C1314 C1313 1.398 . S
C1314 C1315 1.391 . S
C1315 H1303 0.950 . S
C1315 C1311 1.393 . S
C1315 C1314 1.391 . S
H1316 C1324 0.950 . S
H1317 C1329 0.950 . S
H1318 C1326 0.950 . S
H1319 C1328 0.950 . S
H1320 C1330 0.950 . S
H1321 C1332 0.950 . S
H1322 C1334 0.950 . S
H1323 C1335 0.950 . S
C1324 H1316 0.950 . S
C1324 C1325 1.386 . S
C1324 C1326 1.391 . S
C1325 C1324 1.386 . S
C1325 C1329 1.393 . S
C1326 H1318 0.950 . S
C1326 C1324 1.391 . S
C1326 C1327 1.400 . S
C1327 C1326 1.400 . S
C1327 C1328 1.398 . S
C1327 C1333 1.491 . S
C1328 H1319 0.950 . S
C1328 C1327 1.398 . S
C1328 C1329 1.391 . S
C1329 H1317 0.950 . S
C1329 C1325 1.393 . S
C1329 C1328 1.391 . S
C1330 H1320 0.950 . S
C1330 C1331 1.386 . S
C1330 C1332 1.391 . S
C1331 C1330 1.386 . S
C1331 C1335 1.393 . S
C1332 H1321 0.950 . S
C1332 C1330 1.391 . S
C1332 C1333 1.400 . S
C1333 C1327 1.491 . S
C1333 C1332 1.400 . S
C1333 C1334 1.398 . S
C1334 H1322 0.950 . S
C1334 C1333 1.398 . S
C1334 C1335 1.391 . S
C1335 H1323 0.950 . S
C1335 C1331 1.393 . S
C1335 C1334 1.391 . S
H1336 C1344 0.950 . S
H1337 C1349 0.950 . S
H1338 C1346 0.950 . S
H1339 C1348 0.950 . S
H1340 C1350 0.950 . S
H1341 C1352 0.950 . S
H1342 C1354 0.950 . S
H1343 C1355 0.950 . S
C1344 H1336 0.950 . S
C1344 C1345 1.386 . S
C1344 C1346 1.391 . S
C1345 C1344 1.386 . S
C1345 C1349 1.393 . S
C1346 H1338 0.950 . S
C1346 C1344 1.391 . S
C1346 C1347 1.400 . S
C1347 C1346 1.400 . S
C1347 C1348 1.398 . S
C1347 C1353 1.491 . S
C1348 H1339 0.950 . S
C1348 C1347 1.398 . S
C1348 C1349 1.391 . S
C1349 H1337 0.950 . S
C1349 C1345 1.393 . S
C1349 C1348 1.391 . S
C1350 H1340 0.950 . S
C1350 C1351 1.386 . S
C1350 C1352 1.391 . S
C1351 C1350 1.386 . S
C1351 C1355 1.393 . S
C1352 H1341 0.950 . S
C1352 C1350 1.391 . S
C1352 C1353 1.400 . S
C1353 C1347 1.491 . S
C1353 C1352 1.400 . S
C1353 C1354 1.398 . S
C1354 H1342 0.950 . S
C1354 C1353 1.398 . S
C1354 C1355 1.391 . S
C1355 H1343 0.950 . S
C1355 C1351 1.393 . S
C1355 C1354 1.391 . S
H1356 C1364 0.950 . S
H1357 C1369 0.950 . S
H1358 C1366 0.950 . S
H1359 C1368 0.950 . S
H1360 C1370 0.950 . S
H1361 C1372 0.950 . S
H1362 C1374 0.950 . S
H1363 C1375 0.950 . S
C1364 H1356 0.950 . S
C1364 C1365 1.386 . S
C1364 C1366 1.391 . S
C1365 C1364 1.386 . S
C1365 C1369 1.393 . S
C1366 H1358 0.950 . S
C1366 C1364 1.391 . S
C1366 C1367 1.400 . S
C1367 C1366 1.400 . S
C1367 C1368 1.398 . S
C1367 C1373 1.491 . S
C1368 H1359 0.950 . S
C1368 C1367 1.398 . S
C1368 C1369 1.391 . S
C1369 H1357 0.950 . S
C1369 C1365 1.393 . S
C1369 C1368 1.391 . S
C1370 H1360 0.950 . S
C1370 C1371 1.386 . S
C1370 C1372 1.391 . S
C1371 C1370 1.386 . S
C1371 C1375 1.393 . S
C1372 H1361 0.950 . S
C1372 C1370 1.391 . S
C1372 C1373 1.400 . S
C1373 C1367 1.491 . S
C1373 C1372 1.400 . S
C1373 C1374 1.398 . S
C1374 H1362 0.950 . S
C1374 C1373 1.398 . S
C1374 C1375 1.391 . S
C1375 H1363 0.950 . S
C1375 C1371 1.393 . S
C1375 C1374 1.391 . S
H1376 C1384 0.950 . S
H1377 C1389 0.950 . S
H1378 C1386 0.950 . S
H1379 C1388 0.950 . S
H1380 C1390 0.950 . S
H1381 C1392 0.950 . S
H1382 C1394 0.950 . S
H1383 C1395 0.950 . S
C1384 H1376 0.950 . S
C1384 C1385 1.386 . S
C1384 C1386 1.391 . S
C1385 C1384 1.386 . S
C1385 C1389 1.393 . S
C1386 H1378 0.950 . S
C1386 C1384 1.391 . S
C1386 C1387 1.400 . S
C1387 C1386 1.400 . S
C1387 C1388 1.398 . S
C1387 C1393 1.491 . S
C1388 H1379 0.950 . S
C1388 C1387 1.398 . S
C1388 C1389 1.391 . S
C1389 H1377 0.950 . S
C1389 C1385 1.393 . S
C1389 C1388 1.391 . S
C1390 H1380 0.950 . S
C1390 C1391 1.386 . S
C1390 C1392 1.391 . S
C1391 C1390 1.386 . S
C1391 C1395 1.393 . S
C1392 H1381 0.950 . S
C1392 C1390 1.391 . S
C1392 C1393 1.400 . S
C1393 C1387 1.491 . S
C1393 C1392 1.400 . S
C1393 C1394 1.398 . S
C1394 H1382 0.950 . S
C1394 C1393 1.398 . S
C1394 C1395 1.391 . S
C1395 H1383 0.950 . S
C1395 C1391 1.393 . S
C1395 C1394 1.391 . S
H1396 C1404 0.950 . S
H1397 C1409 0.950 . S
H1398 C1406 0.950 . S
H1399 C1408 0.950 . S
H1400 C1410 0.950 . S
H1401 C1412 0.950 . S
H1402 C1414 0.950 . S
H1403 C1415 0.950 . S
C1404 H1396 0.950 . S
C1404 C1405 1.386 . S
C1404 C1406 1.391 . S
C1405 C1404 1.386 . S
C1405 C1409 1.393 . S
C1406 H1398 0.950 . S
C1406 C1404 1.391 . S
C1406 C1407 1.400 . S
C1407 C1406 1.400 . S
C1407 C1408 1.398 . S
C1407 C1413 1.491 . S
C1408 H1399 0.950 . S
C1408 C1407 1.398 . S
C1408 C1409 1.391 . S
C1409 H1397 0.950 . S
C1409 C1405 1.393 . S
C1409 C1408 1.391 . S
C1410 H1400 0.950 . S
C1410 C1411 1.386 . S
C1410 C1412 1.391 . S
C1411 C1410 1.386 . S
C1411 C1415 1.393 . S
C1412 H1401 0.950 . S
C1412 C1410 1.391 . S
C1412 C1413 1.400 . S
C1413 C1407 1.491 . S
C1413 C1412 1.400 . S
C1413 C1414 1.398 . S
C1414 H1402 0.950 . S
C1414 C1413 1.398 . S
C1414 C1415 1.391 . S
C1415 H1403 0.950 . S
C1415 C1411 1.393 . S
C1415 C1414 1.391 . S
H1416 C1424 0.950 . S
H1417 C1429 0.950 . S
H1418 C1426 0.950 . S
H1419 C1428 0.950 . S
H1420 C1430 0.950 . S
H1421 C1432 0.950 . S
H1422 C1434 0.950 . S
H1423 C1435 0.950 . S
C1424 H1416 0.950 . S
C1424 C1425 1.386 . S
C1424 C1426 1.391 . S
C1425 C1424 1.386 . S
C1425 C1429 1.393 . S
C1426 H1418 0.950 . S
C1426 C1424 1.391 . S
C1426 C1427 1.400 . S
C1427 C1426 1.400 . S
C1427 C1428 1.398 . S
C1427 C1433 1.491 . S
C1428 H1419 0.950 . S
C1428 C1427 1.398 . S
C1428 C1429 1.391 . S
C1429 H1417 0.950 . S
C1429 C1425 1.393 . S
C1429 C1428 1.391 . S
C1430 H1420 0.950 . S
C1430 C1431 1.386 . S
C1430 C1432 1.391 . S
C1431 C1430 1.386 . S
C1431 C1435 1.393 . S
C1432 H1421 0.950 . S
C1432 C1430 1.391 . S
C1432 C1433 1.400 . S
C1433 C1427 1.491 . S
C1433 C1432 1.400 . S
C1433 C1434 1.398 . S
C1434 H1422 0.950 . S
C1434 C1433 1.398 . S
C1434 C1435 1.391 . S
C1435 H1423 0.950 . S
C1435 C1431 1.393 . S
C1435 C1434 1.391 . S
H1436 C1444 0.950 . S
H1437 C1449 0.950 . S
H1438 C1446 0.950 . S
H1439 C1448 0.950 . S
H1440 C1450 0.950 . S
H1441 C1452 0.950 . S
H1442 C1454 0.950 . S
H1443 C1455 0.950 . S
C1444 H1436 0.950 . S
C1444 C1445 1.386 . S
C1444 C1446 1.391 . S
C1445 C1444 1.386 . S
C1445 C1449 1.393 . S
C1446 H1438 0.950 . S
C1446 C1444 1.391 . S
C1446 C1447 1.400 . S
C1447 C1446 1.400 . S
C1447 C1448 1.398 . S
C1447 C1453 1.491 . S
C1448 H1439 0.950 . S
C1448 C1447 1.398 . S
C1448 C1449 1.391 . S
C1449 H1437 0.950 . S
C1449 C1445 1.393 . S
C1449 C1448 1.391 . S
C1450 H1440 0.950 . S
C1450 C1451 1.386 . S
C1450 C1452 1.391 . S
C1451 C1450 1.386 . S
C1451 C1455 1.393 . S
C1452 H1441 0.950 . S
C1452 C1450 1.391 . S
C1452 C1453 1.400 . S
C1453 C1447 1.491 . S
C1453 C1452 1.400 . S
C1453 C1454 1.398 . S
C1454 H1442 0.950 . S
C1454 C1453 1.398 . S
C1454 C1455 1.391 . S
C1455 H1443 0.950 . S
C1455 C1451 1.393 . S
C1455 C1454 1.391 . S
H1456 C1464 0.950 . S
H1457 C1469 0.950 . S
H1458 C1466 0.950 . S
H1459 C1468 0.950 . S
H1460 C1470 0.950 . S
H1461 C1472 0.950 . S
H1462 C1474 0.950 . S
H1463 C1475 0.950 . S
C1464 H1456 0.950 . S
C1464 C1465 1.386 . S
C1464 C1466 1.391 . S
C1465 C1464 1.386 . S
C1465 C1469 1.393 . S
C1466 H1458 0.950 . S
C1466 C1464 1.391 . S
C1466 C1467 1.400 . S
C1467 C1466 1.400 . S
C1467 C1468 1.398 . S
C1467 C1473 1.491 . S
C1468 H1459 0.950 . S
C1468 C1467 1.398 . S
C1468 C1469 1.391 . S
C1469 H1457 0.950 . S
C1469 C1465 1.393 . S
C1469 C1468 1.391 . S
C1470 H1460 0.950 . S
C1470 C1471 1.386 . S
C1470 C1472 1.391 . S
C1471 C1470 1.386 . S
C1471 C1475 1.393 . S
C1472 H1461 0.950 . S
C1472 C1470 1.391 . S
C1472 C1473 1.400 . S
C1473 C1467 1.491 . S
C1473 C1472 1.400 . S
C1473 C1474 1.398 . S
C1474 H1462 0.950 . S
C1474 C1473 1.398 . S
C1474 C1475 1.391 . S
C1475 H1463 0.950 . S
C1475 C1471 1.393 . S
C1475 C1474 1.391 . S
H1476 C1484 0.950 . S
H1477 C1489 0.950 . S
H1478 C1486 0.950 . S
H1479 C1488 0.950 . S
H1480 C1490 0.950 . S
H1481 C1492 0.950 . S
H1482 C1494 0.950 . S
H1483 C1495 0.950 . S
C1484 H1476 0.950 . S
C1484 C1485 1.386 . S
C1484 C1486 1.391 . S
C1485 C1484 1.386 . S
C1485 C1489 1.393 . S
C1486 H1478 0.950 . S
C1486 C1484 1.391 . S
C1486 C1487 1.400 . S
C1487 C1486 1.400 . S
C1487 C1488 1.398 . S
C1487 C1493 1.491 . S
C1488 H1479 0.950 . S
C1488 C1487 1.398 . S
C1488 C1489 1.391 . S
C1489 H1477 0.950 . S
C1489 C1485 1.393 . S
C1489 C1488 1.391 . S
C1490 H1480 0.950 . S
C1490 C1491 1.386 . S
C1490 C1492 1.391 . S
C1491 C1490 1.386 . S
C1491 C1495 1.393 . S
C1492 H1481 0.950 . S
C1492 C1490 1.391 . S
C1492 C1493 1.400 . S
C1493 C1487 1.491 . S
C1493 C1492 1.400 . S
C1493 C1494 1.398 . S
C1494 H1482 0.950 . S
C1494 C1493 1.398 . S
C1494 C1495 1.391 . S
C1495 H1483 0.950 . S
C1495 C1491 1.393 . S
C1495 C1494 1.391 . S
H1496 C1504 0.950 . S
H1497 C1509 0.950 . S
H1498 C1506 0.950 . S
H1499 C1508 0.950 . S
H1500 C1510 0.950 . S
H1501 C1512 0.950 . S
H1502 C1514 0.950 . S
H1503 C1515 0.950 . S
C1504 H1496 0.950 . S
C1504 C1505 1.386 . S
C1504 C1506 1.391 . S
C1505 C1504 1.386 . S
C1505 C1509 1.393 . S
C1506 H1498 0.950 . S
C1506 C1504 1.391 . S
C1506 C1507 1.400 . S
C1507 C1506 1.400 . S
C1507 C1508 1.398 . S
C1507 C1513 1.491 . S
C1508 H1499 0.950 . S
C1508 C1507 1.398 . S
C1508 C1509 1.391 . S
C1509 H1497 0.950 . S
C1509 C1505 1.393 . S
C1509 C1508 1.391 . S
C1510 H1500 0.950 . S
C1510 C1511 1.386 . S
C1510 C1512 1.391 . S
C1511 C1510 1.386 . S
C1511 C1515 1.393 . S
C1512 H1501 0.950 . S
C1512 C1510 1.391 . S
C1512 C1513 1.400 . S
C1513 C1507 1.491 . S
C1513 C1512 1.400 . S
C1513 C1514 1.398 . S
C1514 H1502 0.950 . S
C1514 C1513 1.398 . S
C1514 C1515 1.391 . S
C1515 H1503 0.950 . S
C1515 C1511 1.393 . S
C1515 C1514 1.391 . S
H1516 C1524 0.950 . S
H1517 C1529 0.950 . S
H1518 C1526 0.950 . S
H1519 C1528 0.950 . S
H1520 C1530 0.950 . S
H1521 C1532 0.950 . S
H1522 C1534 0.950 . S
H1523 C1535 0.950 . S
C1524 H1516 0.950 . S
C1524 C1525 1.386 . S
C1524 C1526 1.391 . S
C1525 C1524 1.386 . S
C1525 C1529 1.393 . S
C1526 H1518 0.950 . S
C1526 C1524 1.391 . S
C1526 C1527 1.400 . S
C1527 C1526 1.400 . S
C1527 C1528 1.398 . S
C1527 C1533 1.491 . S
C1528 H1519 0.950 . S
C1528 C1527 1.398 . S
C1528 C1529 1.391 . S
C1529 H1517 0.950 . S
C1529 C1525 1.393 . S
C1529 C1528 1.391 . S
C1530 H1520 0.950 . S
C1530 C1531 1.386 . S
C1530 C1532 1.391 . S
C1531 C1530 1.386 . S
C1531 C1535 1.393 . S
C1532 H1521 0.950 . S
C1532 C1530 1.391 . S
C1532 C1533 1.400 . S
C1533 C1527 1.491 . S
C1533 C1532 1.400 . S
C1533 C1534 1.398 . S
C1534 H1522 0.950 . S
C1534 C1533 1.398 . S
C1534 C1535 1.391 . S
C1535 H1523 0.950 . S
C1535 C1531 1.393 . S
C1535 C1534 1.391 . S
C1065 C57 1.445 . S
C1071 C997 1.452 . S
C1085 C548 1.445 . S
C1091 C145 1.452 . S
C1105 C225 1.451 . S
C1111 C636 1.446 . S
C1125 C733 1.445 . S
C1131 C321 1.452 . S
C1145 C821 1.448 . S
C1151 C401 1.449 . S
C1165 C900 1.449 . S
C1171 C497 1.448 . S
C1185 C293 1.446 . S
C1191 C761 1.452 . S
C1205 C372 1.449 . S
C1211 C849 1.450 . S
C1225 C469 1.444 . S
C1231 C929 1.455 . S
C1245 C1025 1.452 . S
C1251 C29 1.447 . S
C1265 C117 1.444 . S
C1271 C577 1.455 . S
C1285 C196 1.444 . S
C1291 C665 1.454 . S
C1305 C753 1.451 . S
C1311 C20 1.455 . S
C1325 C841 1.456 . S
C1331 C108 1.450 . S
C1345 C205 1.450 . S
C1351 C937 1.454 . S
C1365 C284 1.450 . S
C1371 C1017 1.455 . S
C1385 C381 1.456 . S
C1391 C585 1.449 . S
C1405 C673 1.455 . S
C1411 C460 1.451 . S
C1425 C49 1.029 . S
C1431 C909 1.027 . S
C1445 C988 1.027 . S
C1451 C137 1.029 . S
C1465 C233 1.025 . S
C1471 C557 1.029 . S
C1485 C313 1.025 . S
C1491 C645 1.030 . S
C1505 C409 1.025 . S
C1511 C724 1.029 . S
C1525 C489 1.027 . S
C1531 C812 1.029 . S
