# Generated by pormake.
# Topology zfb, (5)-cn, num edge types: 1
# Building blocks:
#     Node 0, Type 0, BuildingBlock: BEQFEK_clean_sbu_0, # of connection points: 5
#     Node 1, Type 0, BuildingBlock: BEQFEK_clean_sbu_0, # of connection points: 5
#     Node 2, Type 0, BuildingBlock: BEQFEK_clean_sbu_0, # of connection points: 5
#     Node 3, Type 0, BuildingBlock: BEQFEK_clean_sbu_0, # of connection points: 5
#     Node 4, Type 0, BuildingBlock: BEQFEK_clean_sbu_0, # of connection points: 5
#     Node 5, Type 0, BuildingBlock: BEQFEK_clean_sbu_0, # of connection points: 5
#     Node 6, Type 0, BuildingBlock: BEQFEK_clean_sbu_0, # of connection points: 5
#     Node 7, Type 0, BuildingBlock: BEQFEK_clean_sbu_0, # of connection points: 5
#     Edge 8, Type (0, 0), BuildingBlock: EZIPEK_clean_linker_0, # of connection points: 2
#     Edge 9, Type (0, 0), BuildingBlock: EZIPEK_clean_linker_0, # of connection points: 2
#     Edge 10, Type (0, 0), BuildingBlock: EZIPEK_clean_linker_0, # of connection points: 2
#     Edge 11, Type (0, 0), BuildingBlock: EZIPEK_clean_linker_0, # of connection points: 2
#     Edge 12, Type (0, 0), BuildingBlock: EZIPEK_clean_linker_0, # of connection points: 2
#     Edge 13, Type (0, 0), BuildingBlock: EZIPEK_clean_linker_0, # of connection points: 2
#     Edge 14, Type (0, 0), BuildingBlock: EZIPEK_clean_linker_0, # of connection points: 2
#     Edge 15, Type (0, 0), BuildingBlock: EZIPEK_clean_linker_0, # of connection points: 2
#     Edge 16, Type (0, 0), BuildingBlock: EZIPEK_clean_linker_0, # of connection points: 2
#     Edge 17, Type (0, 0), BuildingBlock: EZIPEK_clean_linker_0, # of connection points: 2
#     Edge 18, Type (0, 0), BuildingBlock: EZIPEK_clean_linker_0, # of connection points: 2
#     Edge 19, Type (0, 0), BuildingBlock: EZIPEK_clean_linker_0, # of connection points: 2
#     Edge 20, Type (0, 0), BuildingBlock: EZIPEK_clean_linker_0, # of connection points: 2
#     Edge 21, Type (0, 0), BuildingBlock: EZIPEK_clean_linker_0, # of connection points: 2
#     Edge 22, Type (0, 0), BuildingBlock: EZIPEK_clean_linker_0, # of connection points: 2
#     Edge 23, Type (0, 0), BuildingBlock: EZIPEK_clean_linker_0, # of connection points: 2
#     Edge 24, Type (0, 0), BuildingBlock: EZIPEK_clean_linker_0, # of connection points: 2
#     Edge 25, Type (0, 0), BuildingBlock: EZIPEK_clean_linker_0, # of connection points: 2
#     Edge 26, Type (0, 0), BuildingBlock: EZIPEK_clean_linker_0, # of connection points: 2
#     Edge 27, Type (0, 0), BuildingBlock: EZIPEK_clean_linker_0, # of connection points: 2
# Relax obj value: 0.107
# Max RMSD: 0.134
# Mean RMSD: 0.134
data_MOF--net-zfb--node1-BEQFEK_clean_sbu_0--edge1-EZIPEK_clean_linker_0
_symmetry_space_group_name_H-M    P1
_symmetry_Int_Tables_number       1
_symmetry_cell_setting            triclinic
loop_
_symmetry_equiv_pos_as_xyz
'x, y, z'
_cell_length_a     22.897969
_cell_length_b     22.852822
_cell_length_c     30.783098
_cell_angle_alpha  89.849926
_cell_angle_beta   90.220499
_cell_angle_gamma 89.947418
loop_
_atom_site_label
_atom_site_type_symbol
_atom_site_fract_x
_atom_site_fract_y
_atom_site_fract_z
_atom_type_partial_charge
Co0 Co 0.21166 0.36753 0.10488 0.0
Co1 Co 0.18928 0.38197 0.00441 0.0
C2 C 0.10329 0.42496 0.06271 0.0
O3 O 0.137 0.41127 0.09428 0.0
O4 O 0.11386 0.40997 0.02373 0.0
C5 C 0.1691 0.33585 0.19012 0.0
O6 O 0.11873 0.33328 0.16974 0.0
C7 C 0.15628 0.3934 0.91232 0.0
C8 C 0.23758 0.3633 0.88082 0.0
C9 C 0.18107 0.38163 0.87229 0.0
N10 N 0.19601 0.38095 0.94321 0.0
N11 N 0.24478 0.36403 0.92415 0.0
C12 C 0.09603 0.41553 0.92126 0.0
H13 H 0.0988 0.45536 0.94171 0.0
H14 H 0.07158 0.38197 0.93988 0.0
H15 H 0.07219 0.42586 0.89072 0.0
C16 C 0.22128 0.24127 0.07635 0.0
N17 N 0.21565 0.29932 0.06853 0.0
N18 N 0.20343 0.30654 0.02704 0.0
C19 C 0.1987 0.25384 0.0078 0.0
C20 C 0.21007 0.21073 0.03822 0.0
C21 C 0.23617 0.21486 0.1193 0.0
H22 H 0.19581 0.19664 0.1338 0.0
H23 H 0.26727 0.17805 0.11493 0.0
H24 H 0.25545 0.24804 0.14127 0.0
O25 O 0.2713 0.42908 0.09167 0.0
O26 O 0.24161 0.44453 0.02406 0.0
H27 H 0.21713 0.24999 0.93994 0.0
H28 H 0.16168 0.19956 0.95733 0.0
C29 C 0.17926 0.24439 0.96189 0.0
H30 H 0.1452 0.27679 0.95299 0.0
H31 H 0.28255 0.3516 0.94088 0.0
O32 O 0.21511 0.3482 0.16883 0.0
C33 C 0.27031 0.46037 0.05729 0.0
Co34 Co 0.62479 0.19961 0.60733 0.0
Co35 Co 0.60674 0.19627 0.5048 0.0
C36 C 0.57093 0.09791 0.56237 0.0
O37 O 0.59134 0.12166 0.59657 0.0
O38 O 0.57531 0.12128 0.52493 0.0
C39 C 0.66227 0.15884 0.69236 0.0
O40 O 0.67685 0.11181 0.67043 0.0
C41 C 0.62148 0.159 0.4137 0.0
C42 C 0.5942 0.2391 0.37863 0.0
C43 C 0.6152 0.18293 0.37255 0.0
N44 N 0.60527 0.1994 0.44294 0.0
N45 N 0.58822 0.24684 0.4217 0.0
C46 C 0.64467 0.0997 0.42505 0.0
H47 H 0.65876 0.09817 0.45958 0.0
H48 H 0.68165 0.08818 0.40347 0.0
H49 H 0.60968 0.06683 0.42001 0.0
C50 C 0.74885 0.2149 0.57822 0.0
N51 N 0.69102 0.21049 0.57007 0.0
N52 N 0.68299 0.20938 0.52762 0.0
C53 C 0.7353 0.21353 0.50777 0.0
C54 C 0.7787 0.21584 0.53903 0.0
C55 C 0.77498 0.21935 0.62258 0.0
H56 H 0.75395 0.25612 0.63997 0.0
H57 H 0.76622 0.17849 0.64085 0.0
H58 H 0.82285 0.22666 0.62123 0.0
O59 O 0.55722 0.25365 0.59513 0.0
O60 O 0.54799 0.25258 0.52363 0.0
H61 H 0.71032 0.24715 0.44548 0.0
H62 H 0.78791 0.23546 0.45187 0.0
C63 C 0.74399 0.21801 0.45978 0.0
H64 H 0.74001 0.17396 0.44518 0.0
H65 H 0.57384 0.28511 0.4367 0.0
O66 O 0.64282 0.20328 0.67173 0.0
C67 C 0.53014 0.26895 0.56063 0.0
Co68 Co 0.79889 0.62471 0.1135 0.0
Co69 Co 0.81899 0.60212 0.0123 0.0
C70 C 0.91395 0.58265 0.07443 0.0
O71 O 0.88108 0.59775 0.10579 0.0
O72 O 0.89645 0.5845 0.03506 0.0
C73 C 0.83296 0.658 0.20131 0.0
O74 O 0.88561 0.65652 0.18464 0.0
C75 C 0.8501 0.60631 0.91789 0.0
C76 C 0.76576 0.57811 0.88972 0.0
C77 C 0.82097 0.59761 0.87881 0.0
N78 N 0.81305 0.59405 0.95055 0.0
N79 N 0.76326 0.57601 0.93331 0.0
C80 C 0.91128 0.62785 0.92373 0.0
H81 H 0.94222 0.59425 0.91172 0.0
H82 H 0.92087 0.63662 0.95845 0.0
H83 H 0.91805 0.66803 0.90404 0.0
C84 C 0.77555 0.74528 0.0782 0.0
N85 N 0.78419 0.68721 0.0727 0.0
N86 N 0.79498 0.67752 0.0313 0.0
C87 C 0.79504 0.72894 0.00974 0.0
C88 C 0.78271 0.77379 0.03848 0.0
C89 C 0.76542 0.77343 0.12117 0.0
H90 H 0.73549 0.74594 0.14078 0.0
H91 H 0.80777 0.77669 0.13861 0.0
H92 H 0.74688 0.81803 0.11718 0.0
O93 O 0.75157 0.55156 0.10347 0.0
O94 O 0.77231 0.53712 0.03407 0.0
H95 H 0.7871 0.70737 0.94282 0.0
H96 H 0.81063 0.78159 0.9519 0.0
C97 C 0.81411 0.73589 0.96368 0.0
H98 H 0.86034 0.72247 0.9612 0.0
H99 H 0.72669 0.56411 0.95142 0.0
O100 O 0.78895 0.64842 0.17676 0.0
C101 C 0.74925 0.52027 0.06924 0.0
Co102 Co 0.36924 0.79365 0.60996 0.0
Co103 Co 0.37843 0.80416 0.50837 0.0
C104 C 0.41772 0.89972 0.56012 0.0
O105 O 0.40722 0.86979 0.59428 0.0
O106 O 0.40344 0.88244 0.52233 0.0
C107 C 0.32632 0.83838 0.69133 0.0
O108 O 0.30101 0.87734 0.66603 0.0
C109 C 0.37775 0.83125 0.41495 0.0
C110 C 0.35194 0.74562 0.38766 0.0
C111 C 0.36328 0.80322 0.37655 0.0
N112 N 0.3734 0.79225 0.44752 0.0
N113 N 0.35906 0.74096 0.43091 0.0
C114 C 0.39397 0.89412 0.42087 0.0
H115 H 0.43602 0.89686 0.43879 0.0
H116 H 0.36022 0.91613 0.44082 0.0
H117 H 0.39807 0.91706 0.38921 0.0
C118 C 0.24192 0.77806 0.58536 0.0
N119 N 0.29949 0.78282 0.576 0.0
N120 N 0.30477 0.79062 0.53383 0.0
C121 C 0.25133 0.79392 0.51558 0.0
C122 C 0.20965 0.78571 0.54732 0.0
C123 C 0.21791 0.76682 0.6296 0.0
H124 H 0.24931 0.74026 0.64871 0.0
H125 H 0.21066 0.80906 0.64635 0.0
H126 H 0.17534 0.74376 0.62739 0.0
O127 O 0.43253 0.73541 0.59902 0.0
O128 O 0.44471 0.75664 0.52937 0.0
H129 H 0.24757 0.77328 0.448 0.0
H130 H 0.19436 0.82661 0.46468 0.0
C131 C 0.23996 0.81135 0.46948 0.0
H132 H 0.27022 0.84701 0.46035 0.0
H133 H 0.35216 0.70323 0.44935 0.0
O134 O 0.35502 0.79681 0.6741 0.0
C135 C 0.46272 0.73318 0.56436 0.0
Co136 Co 0.69998 0.12204 0.9696 0.0
Co137 Co 0.69466 0.1002 0.07185 0.0
C138 C 0.59363 0.07456 0.01594 0.0
O139 O 0.62137 0.08931 0.98179 0.0
O140 O 0.61533 0.07941 0.05388 0.0
C141 C 0.65806 0.14665 0.88173 0.0
O142 O 0.60671 0.13779 0.89939 0.0
C143 C 0.66513 0.10968 0.16506 0.0
C144 C 0.74744 0.07941 0.19546 0.0
C145 C 0.69244 0.10105 0.2048 0.0
N146 N 0.70259 0.09458 0.13347 0.0
N147 N 0.75133 0.07562 0.15194 0.0
C148 C 0.6053 0.13398 0.15738 0.0
H149 H 0.60038 0.1493 0.12332 0.0
H150 H 0.59653 0.17044 0.18022 0.0
H151 H 0.57261 0.09918 0.16363 0.0
C152 C 0.72185 0.24403 1.00198 0.0
N153 N 0.71555 0.18589 0.00862 0.0
N154 N 0.71472 0.17596 0.05083 0.0
C155 C 0.72112 0.22719 0.07203 0.0
C156 C 0.72497 0.27214 0.04194 0.0
C157 C 0.72177 0.27238 0.9583 0.0
H158 H 0.75116 0.2478 0.93633 0.0
H159 H 0.67685 0.27058 0.94474 0.0
H160 H 0.73593 0.31875 0.96022 0.0
O161 O 0.753 0.05264 0.97817 0.0
O162 O 0.74241 0.03632 0.04859 0.0
H163 H 0.74976 0.20021 0.13505 0.0
H164 H 0.73566 0.27767 0.13066 0.0
C165 C 0.7208 0.23369 0.12033 0.0
H166 H 0.67581 0.22732 0.13241 0.0
H167 H 0.78791 0.06155 0.13475 0.0
O168 O 0.70367 0.14483 0.90568 0.0
C169 C 0.76171 0.02094 0.01174 0.0
Co170 Co 0.86826 0.71381 0.47396 0.0
Co171 Co 0.88351 0.69054 0.57485 0.0
C172 C 0.92534 0.60502 0.51466 0.0
O173 O 0.91216 0.63946 0.48346 0.0
O174 O 0.91029 0.615 0.55373 0.0
C175 C 0.8284 0.67288 0.39016 0.0
O176 O 0.81353 0.62659 0.41296 0.0
C177 C 0.8772 0.65413 0.66726 0.0
C178 C 0.89982 0.73741 0.69957 0.0
C179 C 0.88447 0.67985 0.70762 0.0
N180 N 0.88743 0.69482 0.63659 0.0
N181 N 0.90177 0.7442 0.65619 0.0
C182 C 0.85899 0.59251 0.65829 0.0
H183 H 0.84631 0.58711 0.62371 0.0
H184 H 0.82211 0.58011 0.67973 0.0
H185 H 0.89599 0.56269 0.66572 0.0
C186 C 0.74279 0.72273 0.50281 0.0
N187 N 0.80062 0.71711 0.5109 0.0
N188 N 0.80794 0.70775 0.55284 0.0
C189 C 0.75538 0.70682 0.57241 0.0
C190 C 0.71226 0.71559 0.54143 0.0
C191 C 0.71721 0.73534 0.45913 0.0
H192 H 0.71971 0.69541 0.43886 0.0
H193 H 0.67084 0.74911 0.46163 0.0
H194 H 0.74302 0.77035 0.44327 0.0
O195 O 0.92938 0.77367 0.48745 0.0
O196 O 0.9458 0.74247 0.55457 0.0
H197 H 0.77422 0.72643 0.6387 0.0
H198 H 0.70012 0.70228 0.62943 0.0
C199 C 0.74633 0.69609 0.61983 0.0
H200 H 0.75925 0.65062 0.62772 0.0
H201 H 0.91175 0.78299 0.63988 0.0
O202 O 0.84941 0.71721 0.40979 0.0
C203 C 0.96109 0.77192 0.5216 0.0
Co204 Co 0.29007 0.86937 0.96807 0.0
Co205 Co 0.30284 0.87935 0.06973 0.0
C206 C 0.39544 0.92188 0.01693 0.0
O207 O 0.36486 0.91045 0.98326 0.0
O208 O 0.38004 0.90664 0.05495 0.0
C209 C 0.32968 0.87145 0.87881 0.0
O210 O 0.37327 0.90153 0.89524 0.0
C211 C 0.33121 0.87814 0.16303 0.0
C212 C 0.24571 0.85336 0.19071 0.0
C213 C 0.30347 0.86389 0.20155 0.0
N214 N 0.29185 0.87443 0.13065 0.0
N215 N 0.24067 0.86068 0.14751 0.0
C216 C 0.39409 0.89359 0.15678 0.0
H217 H 0.3971 0.93616 0.1395 0.0
H218 H 0.41516 0.86006 0.13606 0.0
H219 H 0.41762 0.89652 0.18828 0.0
C220 C 0.27777 0.74179 0.99312 0.0
N221 N 0.28197 0.79956 1.00243 0.0
N222 N 0.29021 0.80509 0.04454 0.0
C223 C 0.29388 0.75162 0.06285 0.0
C224 C 0.2858 0.70963 0.03119 0.0
C225 C 0.26776 0.71733 0.9488 0.0
H226 H 0.24734 0.75051 0.92722 0.0
H227 H 0.31026 0.70364 0.93498 0.0
H228 H 0.23954 0.67793 0.95073 0.0
O229 O 0.23008 0.93072 0.97968 0.0
O230 O 0.25363 0.94436 0.0488 0.0
H231 H 0.27321 0.74895 0.13041 0.0
H232 H 0.32571 0.69467 0.11408 0.0
C233 C 0.31108 0.7405 0.10901 0.0
H234 H 0.34708 0.77047 0.11795 0.0
H235 H 0.20272 0.85432 0.12925 0.0
O236 O 0.28981 0.85224 0.90388 0.0
C237 C 0.22853 0.9614 0.01417 0.0
Co238 Co 0.12746 0.30334 0.46439 0.0
Co239 Co 0.11627 0.32138 0.56534 0.0
C240 C 0.08683 0.41596 0.50341 0.0
O241 O 0.10353 0.3862 0.47077 0.0
O242 O 0.09125 0.39719 0.54231 0.0
C243 C 0.16813 0.33254 0.37906 0.0
O244 O 0.18923 0.37809 0.39981 0.0
C245 C 0.1142 0.36117 0.65671 0.0
C246 C 0.13681 0.2779 0.68963 0.0
C247 C 0.12526 0.33642 0.69709 0.0
N248 N 0.12059 0.31917 0.62663 0.0
N249 N 0.13314 0.26945 0.64659 0.0
C250 C 0.09801 0.42316 0.64663 0.0
H251 H 0.05647 0.42386 0.62793 0.0
H252 H 0.13215 0.44294 0.62575 0.0
H253 H 0.09307 0.44936 0.67671 0.0
C254 C 0.25256 0.28025 0.49297 0.0
N255 N 0.19503 0.28896 0.50097 0.0
N256 N 0.18934 0.30187 0.54237 0.0
C257 C 0.24234 0.30488 0.56124 0.0
C258 C 0.28435 0.29042 0.53101 0.0
C259 C 0.27688 0.26457 0.44962 0.0
H260 H 0.24972 0.22959 0.43502 0.0
H261 H 0.27525 0.30338 0.42799 0.0
H262 H 0.32284 0.24951 0.45247 0.0
O263 O 0.05209 0.26208 0.48037 0.0
O264 O 0.05273 0.26689 0.55224 0.0
H265 H 0.2461 0.29422 0.63025 0.0
H266 H 0.2991 0.34478 0.60927 0.0
C267 C 0.25352 0.32899 0.60572 0.0
H268 H 0.22349 0.36598 0.61209 0.0
H269 H 0.14036 0.22989 0.6306 0.0
O270 O 0.14278 0.29231 0.40063 0.0
C271 C 0.02791 0.25246 0.517 0.0
C272 C 0.1702 0.04791 0.03985 0.0
C273 C 0.21384 0.02482 0.01208 0.0
C274 C 0.25664 0.12288 0.00432 0.0
C275 C 0.21149 0.1464 0.03031 0.0
N276 N 0.11886 0.13391 0.06604 0.0
N277 N 0.29107 0.04295 0.96007 0.0
C278 C 0.16625 0.10966 0.04609 0.0
C279 C 0.2542 0.06325 0.99148 0.0
N280 N 0.1334 0.01052 0.06099 0.0
N281 N 0.30378 0.15678 0.9938 0.0
H282 H 0.2926 0.99964 0.94994 0.0
H283 H 0.31667 0.07031 0.94088 0.0
H284 H 0.30778 0.20047 1.00306 0.0
H285 H 0.3416 0.14026 0.97967 0.0
H286 H 0.1054 0.02353 0.08573 0.0
H287 H 0.13292 0.9656 0.05493 0.0
H288 H 0.08171 0.11025 0.07439 0.0
H289 H 0.11475 0.17879 0.0713 0.0
C290 C 0.93914 0.18655 0.5109 0.0
C291 C 0.96356 0.24242 0.51919 0.0
C292 C 0.86559 0.28148 0.53511 0.0
C293 C 0.84231 0.2245 0.53165 0.0
N294 N 0.85564 0.12147 0.51877 0.0
N295 N 0.9504 0.34232 0.54379 0.0
C296 C 0.87868 0.1766 0.51995 0.0
C297 C 0.92681 0.28959 0.53253 0.0
N298 N 0.97373 0.14328 0.49444 0.0
N299 N 0.8289 0.32846 0.53926 0.0
H300 H 0.99395 0.3527 0.5391 0.0
H301 H 0.92738 0.37496 0.55995 0.0
H302 H 0.78369 0.32451 0.54194 0.0
H303 H 0.84255 0.37172 0.53614 0.0
H304 H 0.95797 0.10311 0.48376 0.0
H305 H 0.01823 0.14914 0.48872 0.0
H306 H 0.88043 0.08373 0.5147 0.0
H307 H 0.81159 0.113 0.52463 0.0
C308 C 0.82129 0.93714 0.0411 0.0
C309 C 0.78343 0.95934 0.00828 0.0
C310 C 0.74568 0.86052 0.99576 0.0
C311 C 0.78344 0.838 0.02848 0.0
N312 N 0.87018 0.85237 0.07197 0.0
N313 N 0.72978 0.93695 0.94254 0.0
C314 C 0.8253 0.87554 0.04814 0.0
C315 C 0.7524 0.91936 0.98155 0.0
N316 N 0.85292 0.97524 0.06587 0.0
N317 N 0.70229 0.82619 0.97895 0.0
H318 H 0.73718 0.97823 0.92939 0.0
H319 H 0.71049 0.90819 0.92057 0.0
H320 H 0.69406 0.78379 0.9899 0.0
H321 H 0.67132 0.84128 0.95675 0.0
H322 H 0.8754 0.96282 0.09391 0.0
H323 H 0.8547 0.01995 0.05892 0.0
H324 H 0.90486 0.87717 0.08382 0.0
H325 H 0.8759 0.80745 0.07627 0.0
C326 C 0.04759 0.82839 0.54937 0.0
C327 C 0.0242 0.78689 0.51984 0.0
C328 C 0.12093 0.74155 0.51291 0.0
C329 C 0.14513 0.78511 0.54026 0.0
N330 N 0.13396 0.87727 0.57734 0.0
N331 N 0.04184 0.71264 0.46549 0.0
C332 C 0.10919 0.83078 0.55645 0.0
C333 C 0.06209 0.74673 0.49871 0.0
N334 N 0.01064 0.86462 0.57134 0.0
N335 N 0.15344 0.6935 0.50215 0.0
H336 H 0.99919 0.7144 0.45385 0.0
H337 H 0.06893 0.68681 0.44633 0.0
H338 H 0.19616 0.68706 0.51303 0.0
H339 H 0.13628 0.65716 0.48626 0.0
H340 H 0.02389 0.89089 0.59716 0.0
H341 H 0.96587 0.86616 0.56484 0.0
H342 H 0.11075 0.91462 0.58606 0.0
H343 H 0.17879 0.88065 0.58287 0.0
C344 C 0.77984 0.41814 0.08553 0.0
C345 C 0.73496 0.45695 0.07162 0.0
C346 C 0.67966 0.3733 0.04293 0.0
C347 C 0.72825 0.33613 0.05142 0.0
N348 N 0.82822 0.32499 0.07489 0.0
N349 N 0.64402 0.4729 0.03415 0.0
C350 C 0.77924 0.35902 0.07133 0.0
C351 C 0.6852 0.43483 0.0496 0.0
N352 N 0.82354 0.43791 0.11204 0.0
N353 N 0.62781 0.34968 0.02962 0.0
H354 H 0.64546 0.51769 0.04068 0.0
H355 H 0.61032 0.4606 0.01328 0.0
H356 H 0.62208 0.30493 0.02458 0.0
H357 H 0.58928 0.37368 0.02698 0.0
H358 H 0.85404 0.41042 0.1268 0.0
H359 H 0.82599 0.48097 0.12286 0.0
H360 H 0.86876 0.34111 0.08453 0.0
H361 H 0.82984 0.28166 0.0644 0.0
C362 C 0.54992 0.67457 0.54029 0.0
C363 C 0.52635 0.71981 0.56643 0.0
C364 C 0.62381 0.76411 0.57294 0.0
C365 C 0.64792 0.71721 0.54895 0.0
N366 N 0.63632 0.62206 0.51642 0.0
N367 N 0.54343 0.80093 0.61547 0.0
C368 C 0.61165 0.67064 0.53455 0.0
C369 C 0.56423 0.76202 0.58559 0.0
N370 N 0.51306 0.6361 0.52024 0.0
N371 N 0.6572 0.81227 0.58184 0.0
H372 H 0.50005 0.80294 0.62515 0.0
H373 H 0.57037 0.8281 0.63381 0.0
H374 H 0.70083 0.81594 0.57262 0.0
H375 H 0.64036 0.85094 0.59454 0.0
H376 H 0.52646 0.60659 0.49656 0.0
H377 H 0.46817 0.63572 0.526 0.0
H378 H 0.61302 0.58416 0.5093 0.0
H379 H 0.68117 0.61786 0.51152 0.0
C380 C 0.32748 0.54687 0.02993 0.0
C381 C 0.2852 0.52372 0.05885 0.0
C382 C 0.24049 0.62107 0.0652 0.0
C383 C 0.28474 0.64498 0.03843 0.0
N384 N 0.37749 0.63309 1.00267 0.0
N385 N 0.20977 0.542 0.11205 0.0
C386 C 0.33043 0.60859 0.02288 0.0
C387 C 0.24484 0.56202 0.07938 0.0
N388 N 0.36399 0.50959 0.00852 0.0
N389 N 0.19258 0.65405 0.07539 0.0
H390 H 0.2107 0.49922 0.12359 0.0
H391 H 0.18377 0.56936 0.13087 0.0
H392 H 0.18684 0.69699 0.06462 0.0
H393 H 0.15571 0.63711 0.09061 0.0
H394 H 0.39096 0.52266 0.98312 0.0
H395 H 0.3651 0.46474 0.01503 0.0
H396 H 0.41481 0.60959 0.99445 0.0
H397 H 0.38127 0.67799 0.99727 0.0
C398 C 0.38658 0.3305 0.51899 0.0
C399 C 0.34874 0.28951 0.53931 0.0
C400 C 0.42806 0.26229 0.58899 0.0
C401 C 0.46891 0.29197 0.56239 0.0
N402 N 0.48662 0.35918 0.50363 0.0
N403 N 0.33697 0.20929 0.58977 0.0
C404 C 0.44781 0.32791 0.52793 0.0
C405 C 0.37058 0.25332 0.57319 0.0
N406 N 0.36403 0.37314 0.49264 0.0
N407 N 0.44307 0.24423 0.62981 0.0
H408 H 0.29523 0.1998 0.57807 0.0
H409 H 0.35301 0.17858 0.6119 0.0
H410 H 0.48225 0.25603 0.64464 0.0
H411 H 0.41321 0.22544 0.65117 0.0
H412 H 0.38875 0.40749 0.48021 0.0
H413 H 0.31949 0.37713 0.48615 0.0
H414 H 0.47552 0.38021 0.47469 0.0
H415 H 0.53069 0.36235 0.51217 0.0
C416 C 0.01351 0.4595 0.10087 0.0
C417 C 0.05828 0.4698 0.07031 0.0
C418 C 0.01764 0.56664 0.05394 0.0
C419 C 0.97138 0.55484 0.08303 0.0
N420 N 0.94203 0.50315 0.14814 0.0
N421 N 0.11319 0.53955 0.0274 0.0
C422 C 0.97457 0.50554 0.11114 0.0
C423 C 0.06361 0.52544 0.04974 0.0
N424 N 0.00647 0.40511 0.11864 0.0
N425 N 0.0168 0.61709 0.02999 0.0
H426 H 0.14853 0.51125 0.02425 0.0
H427 H 0.12179 0.58107 0.01505 0.0
H428 H 0.98684 0.65059 0.03593 0.0
H429 H 0.04425 0.62508 0.00376 0.0
H430 H 0.97058 0.39369 0.13757 0.0
H431 H 0.03348 0.36984 0.11107 0.0
H432 H 0.94618 0.46979 0.17109 0.0
H433 H 0.91729 0.53818 0.15914 0.0
C434 C 0.43984 0.00152 0.58431 0.0
C435 C 0.4579 0.94956 0.56346 0.0
C436 C 0.55229 0.99335 0.545 0.0
C437 C 0.53475 0.0451 0.56645 0.0
N438 N 0.46537 0.09776 0.61092 0.0
N439 N 0.53416 0.89083 0.53124 0.0
C440 C 0.47979 0.04878 0.58783 0.0
C441 C 0.51495 0.944 0.54578 0.0
N442 N 0.38351 0.00663 0.59855 0.0
N443 N 0.60444 0.99174 0.52345 0.0
H444 H 0.50834 0.85338 0.53117 0.0
H445 H 0.57712 0.88223 0.5224 0.0
H446 H 0.63525 0.02525 0.52528 0.0
H447 H 0.61628 0.9586 0.50208 0.0
H448 H 0.36512 0.04549 0.60954 0.0
H449 H 0.35332 0.97256 0.59671 0.0
H450 H 0.42987 0.10008 0.63184 0.0
H451 H 0.49052 0.13564 0.6113 0.0
C452 C 0.49794 0.94261 0.99506 0.0
C453 C 0.44474 0.96252 0.01272 0.0
C454 C 0.48621 0.06038 0.02379 0.0
C455 C 0.54113 0.03822 0.01112 0.0
N456 N 0.60215 0.95656 0.99075 0.0
N457 N 0.38687 0.03914 0.04548 0.0
C458 C 0.54773 0.97908 0.99785 0.0
C459 C 0.43835 0.02122 0.02743 0.0
N460 N 0.50098 0.88881 0.97582 0.0
N461 N 0.47985 0.11895 0.03148 0.0
H462 H 0.34974 0.0129 0.04665 0.0
H463 H 0.38145 0.07896 0.06129 0.0
H464 H 0.51455 0.14837 0.02919 0.0
H465 H 0.43979 0.13924 0.03671 0.0
H466 H 0.53686 0.87477 0.95793 0.0
H467 H 0.46584 0.85982 0.97479 0.0
H468 H 0.61006 0.91206 0.98706 0.0
H469 H 0.64015 0.98144 0.99243 0.0
C470 C 0.9548 0.51083 0.47986 0.0
C471 C 0.96904 0.55905 0.50658 0.0
C472 C 0.06831 0.52094 0.51704 0.0
C473 C 0.05101 0.46867 0.49638 0.0
N474 N 0.97702 0.41148 0.45912 0.0
N475 N 0.03967 0.61279 0.54952 0.0
C476 C 0.99454 0.46333 0.4771 0.0
C477 C 0.02608 0.56511 0.52467 0.0
N478 N 0.90293 0.50999 0.45769 0.0
N479 N 0.1256 0.52828 0.52859 0.0
H480 H 0.012 0.64858 0.55313 0.0
H481 H 0.07757 0.61633 0.56806 0.0
H482 H 0.15735 0.49657 0.52246 0.0
H483 H 0.1429 0.56711 0.54059 0.0
H484 H 0.89334 0.48004 0.43325 0.0
H485 H 0.87067 0.54174 0.46155 0.0
H486 H 0.934 0.40244 0.45041 0.0
H487 H 0.00408 0.37527 0.45554 0.0
C488 C 0.15198 0.38471 0.26173 0.0
C489 C 0.17019 0.33453 0.23841 0.0
C490 C 0.19064 0.28364 0.30723 0.0
C491 C 0.16778 0.33206 0.33057 0.0
N492 N 0.11327 0.4227 0.32904 0.0
N493 N 0.19596 0.23238 0.23855 0.0
C494 C 0.14488 0.3811 0.30756 0.0
C495 C 0.18644 0.28285 0.26105 0.0
N496 N 0.1422 0.43623 0.24019 0.0
N497 N 0.21837 0.23937 0.32892 0.0
H498 H 0.19271 0.23036 0.20488 0.0
H499 H 0.20166 0.19172 0.25335 0.0
H500 H 0.22254 0.23833 0.36257 0.0
H501 H 0.24159 0.2063 0.31341 0.0
H502 H 0.13526 0.47586 0.25601 0.0
H503 H 0.14603 0.44048 0.20656 0.0
H504 H 0.09061 0.45616 0.31328 0.0
H505 H 0.10413 0.42031 0.36216 0.0
C506 C 0.64102 0.10245 0.80815 0.0
C507 C 0.66259 0.1497 0.83335 0.0
C508 C 0.68962 0.2012 0.76602 0.0
C509 C 0.66183 0.15692 0.74099 0.0
N510 N 0.59813 0.07256 0.73989 0.0
N511 N 0.69858 0.24865 0.83607 0.0
C512 C 0.63404 0.10941 0.76251 0.0
C513 C 0.68464 0.20035 0.81223 0.0
N514 N 0.62872 0.05005 0.82758 0.0
N515 N 0.72255 0.24297 0.74593 0.0
H516 H 0.69479 0.24971 0.86972 0.0
H517 H 0.70868 0.28905 0.82228 0.0
H518 H 0.72772 0.24483 0.7124 0.0
H519 H 0.74891 0.27246 0.7627 0.0
H520 H 0.61867 0.01237 0.8101 0.0
H521 H 0.63462 0.04253 0.86076 0.0
H522 H 0.5724 0.04083 0.75484 0.0
H523 H 0.58867 0.07789 0.70696 0.0
C524 C 0.85822 0.62339 0.32076 0.0
C525 C 0.82814 0.66983 0.34166 0.0
C526 C 0.80092 0.70995 0.27001 0.0
C527 C 0.8267 0.66073 0.24954 0.0
N528 N 0.86726 0.56375 0.25627 0.0
N529 N 0.76261 0.75225 0.33622 0.0
C530 C 0.85156 0.61541 0.27523 0.0
C531 C 0.7972 0.7118 0.31628 0.0
N532 N 0.89572 0.58855 0.34394 0.0
N533 N 0.78185 0.75594 0.24539 0.0
H534 H 0.75894 0.75507 0.36982 0.0
H535 H 0.7339 0.7797 0.31954 0.0
H536 H 0.78301 0.75551 0.21163 0.0
H537 H 0.76903 0.79596 0.25836 0.0
H538 H 0.92323 0.55798 0.3295 0.0
H539 H 0.90423 0.59437 0.37694 0.0
H540 H 0.88025 0.527 0.27395 0.0
H541 H 0.86111 0.55553 0.22327 0.0
C542 C 0.32139 0.80538 0.81335 0.0
C543 C 0.32631 0.86249 0.83096 0.0
C544 C 0.33888 0.90207 0.75749 0.0
C545 C 0.32618 0.84623 0.73949 0.0
N546 N 0.29396 0.74669 0.75134 0.0
N547 N 0.32601 0.96691 0.81864 0.0
C548 C 0.31414 0.79836 0.76771 0.0
C549 C 0.33093 0.91138 0.80268 0.0
N550 N 0.3267 0.75759 0.8398 0.0
N551 N 0.36192 0.94546 0.73216 0.0
H552 H 0.31807 0.97575 0.85132 0.0
H553 H 0.32343 0.00376 0.79869 0.0
H554 H 0.37268 0.93966 0.69959 0.0
H555 H 0.37694 0.98497 0.74482 0.0
H556 H 0.32923 0.71492 0.82811 0.0
H557 H 0.33505 0.761 0.87297 0.0
H558 H 0.27882 0.71269 0.77089 0.0
H559 H 0.28683 0.73984 0.71835 0.0
C560 C 0.80743 0.66523 0.8155 0.0
C561 C 0.83841 0.61807 0.835 0.0
C562 C 0.9022 0.61253 0.77129 0.0
C563 C 0.86764 0.65602 0.75053 0.0
N564 N 0.77915 0.71353 0.74885 0.0
N565 N 0.90876 0.53998 0.82883 0.0
C566 C 0.81784 0.67936 0.77146 0.0
C567 C 0.8841 0.58972 0.81217 0.0
N568 N 0.7696 0.69828 0.83942 0.0
N569 N 0.95313 0.59441 0.75262 0.0
H570 H 0.89624 0.52196 0.85854 0.0
H571 H 0.93804 0.514 0.81169 0.0
H572 H 0.96745 0.60998 0.72261 0.0
H573 H 0.98329 0.56745 0.7683 0.0
H574 H 0.75131 0.73723 0.82809 0.0
H575 H 0.7607 0.69025 0.872 0.0
H576 H 0.73879 0.72623 0.7612 0.0
H577 H 0.78445 0.72425 0.7162 0.0
C578 C 0.31252 0.87047 0.32336 0.0
C579 C 0.35633 0.82803 0.33237 0.0
C580 C 0.37012 0.81216 0.25467 0.0
C581 C 0.32843 0.85671 0.24567 0.0
N582 N 0.2735 0.93969 0.27115 0.0
N583 N 0.43834 0.77171 0.30698 0.0
C584 C 0.3043 0.88981 0.28001 0.0
C585 C 0.3891 0.80342 0.29806 0.0
N586 N 0.27589 0.88934 0.35532 0.0
N587 N 0.38858 0.77537 0.22264 0.0
H588 H 0.4539 0.76539 0.33856 0.0
H589 H 0.4668 0.75721 0.28295 0.0
H590 H 0.37432 0.77851 0.19064 0.0
H591 H 0.41391 0.7383 0.22869 0.0
H592 H 0.23936 0.91535 0.34921 0.0
H593 H 0.2785 0.87469 0.38726 0.0
H594 H 0.2594 0.96834 0.29523 0.0
H595 H 0.26761 0.95552 0.2396 0.0
C596 C 0.09102 0.34006 0.77319 0.0
C597 C 0.12747 0.36363 0.74055 0.0
C598 C 0.18147 0.41763 0.79604 0.0
C599 C 0.15435 0.38316 0.82849 0.0
N600 N 0.08621 0.30623 0.84736 0.0
N601 N 0.21121 0.42241 0.72094 0.0
C602 C 0.10891 0.34373 0.81719 0.0
C603 C 0.17306 0.40287 0.75175 0.0
N604 N 0.04002 0.31306 0.76186 0.0
N605 N 0.2158 0.46388 0.80772 0.0
H606 H 0.20769 0.41177 0.68819 0.0
H607 H 0.2491 0.44554 0.72846 0.0
H608 H 0.22202 0.4759 0.8401 0.0
H609 H 0.23277 0.49357 0.78534 0.0
H610 H 0.00929 0.29921 0.78455 0.0
H611 H 0.02592 0.31035 0.72963 0.0
H612 H 0.05768 0.2724 0.83939 0.0
H613 H 0.09959 0.30527 0.87969 0.0
C614 C 0.70035 0.16944 0.26787 0.0
C615 C 0.67241 0.12092 0.24804 0.0
C616 C 0.60508 0.11354 0.30962 0.0
C617 C 0.63621 0.159 0.33077 0.0
N618 N 0.72108 0.22138 0.33442 0.0
N619 N 0.6043 0.04076 0.25229 0.0
C620 C 0.6861 0.18434 0.31118 0.0
C621 C 0.62641 0.09118 0.26955 0.0
N622 N 0.73876 0.20298 0.24478 0.0
N623 N 0.55419 0.09314 0.32707 0.0
H624 H 0.61874 0.02339 0.22292 0.0
H625 H 0.57504 0.01372 0.26858 0.0
H626 H 0.53772 0.10805 0.3566 0.0
H627 H 0.52613 0.06466 0.31092 0.0
H628 H 0.75508 0.24275 0.25595 0.0
H629 H 0.7502 0.19419 0.21275 0.0
H630 H 0.76155 0.2359 0.32346 0.0
H631 H 0.71253 0.23318 0.36643 0.0
loop_
_geom_bond_atom_site_label_1
_geom_bond_atom_site_label_2
_geom_bond_distance
_geom_bond_site_symmetry_2
_ccdc_geom_bond_type
Co0 O3 1.970 . S
Co0 N17 1.989 . S
Co0 O25 1.967 . S
Co0 O32 1.920 . S
Co1 O4 1.966 1_556 S
Co1 N10 2.022 . S
Co1 N18 1.993 1_556 S
Co1 O26 1.941 1_556 S
C2 O3 1.258 . S
C2 O4 1.263 . S
O3 Co0 1.970 . S
O3 C2 1.258 . S
O4 Co1 1.966 1_554 S
O4 C2 1.263 . S
C5 O6 1.235 . S
C5 O32 1.289 . S
O6 C5 1.235 . S
C7 C9 1.400 . S
C7 N10 1.351 . S
C7 C12 1.501 . S
C8 C9 1.387 . S
C8 N11 1.341 . S
C9 C7 1.400 . S
C9 C8 1.387 . S
N10 Co1 2.022 . S
N10 C7 1.351 . S
N10 N11 1.365 . S
N11 C8 1.341 . S
N11 N10 1.365 . S
N11 H31 0.862 . S
C12 C7 1.501 . S
C12 H13 0.961 . S
C12 H14 0.961 . S
C12 H15 0.960 . S
H13 C12 0.961 . S
H14 C12 0.961 . S
H15 C12 0.960 . S
C16 N17 1.342 . S
C16 C20 1.401 . S
C16 C21 1.499 . S
N17 Co0 1.989 . S
N17 C16 1.342 . S
N17 N18 1.388 . S
N18 Co1 1.993 1_554 S
N18 N17 1.388 . S
N18 C19 1.346 . S
C19 N18 1.346 . S
C19 C20 1.396 . S
C19 C29 1.510 1_554 S
C20 C16 1.401 . S
C20 C19 1.396 . S
C21 C16 1.499 . S
C21 H22 0.959 . S
C21 H23 0.960 . S
C21 H24 0.961 . S
H22 C21 0.959 . S
H23 C21 0.960 . S
H24 C21 0.961 . S
O25 Co0 1.967 . S
O25 C33 1.258 . S
O26 Co1 1.941 1_554 S
O26 C33 1.266 . S
H27 C29 0.959 . S
H28 C29 0.961 . S
C29 C19 1.510 1_556 S
C29 H27 0.959 . S
C29 H28 0.961 . S
C29 H30 0.960 . S
H30 C29 0.960 . S
H31 N11 0.862 . S
O32 Co0 1.920 . S
O32 C5 1.289 . S
C33 O25 1.258 . S
C33 O26 1.266 . S
Co34 O37 1.970 . S
Co34 N51 1.989 . S
Co34 O59 1.967 . S
Co34 O66 1.920 . S
Co35 O38 1.966 . S
Co35 N44 2.022 . S
Co35 N52 1.993 . S
Co35 O60 1.941 . S
C36 O37 1.258 . S
C36 O38 1.263 . S
O37 Co34 1.970 . S
O37 C36 1.258 . S
O38 Co35 1.966 . S
O38 C36 1.263 . S
C39 O40 1.235 . S
C39 O66 1.289 . S
O40 C39 1.235 . S
C41 C43 1.400 . S
C41 N44 1.351 . S
C41 C46 1.501 . S
C42 C43 1.387 . S
C42 N45 1.341 . S
C43 C41 1.400 . S
C43 C42 1.387 . S
N44 Co35 2.022 . S
N44 C41 1.351 . S
N44 N45 1.365 . S
N45 C42 1.341 . S
N45 N44 1.365 . S
N45 H65 0.862 . S
C46 C41 1.501 . S
C46 H47 0.961 . S
C46 H48 0.961 . S
C46 H49 0.960 . S
H47 C46 0.961 . S
H48 C46 0.961 . S
H49 C46 0.960 . S
C50 N51 1.342 . S
C50 C54 1.401 . S
C50 C55 1.499 . S
N51 Co34 1.989 . S
N51 C50 1.342 . S
N51 N52 1.388 . S
N52 Co35 1.993 . S
N52 N51 1.388 . S
N52 C53 1.346 . S
C53 N52 1.346 . S
C53 C54 1.396 . S
C53 C63 1.510 . S
C54 C50 1.401 . S
C54 C53 1.396 . S
C55 C50 1.499 . S
C55 H56 0.959 . S
C55 H57 0.960 . S
C55 H58 0.961 . S
H56 C55 0.959 . S
H57 C55 0.960 . S
H58 C55 0.961 . S
O59 Co34 1.967 . S
O59 C67 1.258 . S
O60 Co35 1.941 . S
O60 C67 1.266 . S
H61 C63 0.959 . S
H62 C63 0.961 . S
C63 C53 1.510 . S
C63 H61 0.959 . S
C63 H62 0.961 . S
C63 H64 0.960 . S
H64 C63 0.960 . S
H65 N45 0.862 . S
O66 Co34 1.920 . S
O66 C39 1.289 . S
C67 O59 1.258 . S
C67 O60 1.266 . S
Co68 O71 1.970 . S
Co68 N85 1.989 . S
Co68 O93 1.967 . S
Co68 O100 1.920 . S
Co69 O72 1.966 1_556 S
Co69 N78 2.022 . S
Co69 N86 1.993 1_556 S
Co69 O94 1.941 1_556 S
C70 O71 1.258 . S
C70 O72 1.263 . S
O71 Co68 1.970 . S
O71 C70 1.258 . S
O72 Co69 1.966 1_554 S
O72 C70 1.263 . S
C73 O74 1.235 . S
C73 O100 1.289 . S
O74 C73 1.235 . S
C75 C77 1.400 . S
C75 N78 1.351 . S
C75 C80 1.501 . S
C76 C77 1.387 . S
C76 N79 1.341 . S
C77 C75 1.400 . S
C77 C76 1.387 . S
N78 Co69 2.022 . S
N78 C75 1.351 . S
N78 N79 1.365 . S
N79 C76 1.341 . S
N79 N78 1.365 . S
N79 H99 0.862 . S
C80 C75 1.501 . S
C80 H81 0.961 . S
C80 H82 0.961 . S
C80 H83 0.960 . S
H81 C80 0.961 . S
H82 C80 0.961 . S
H83 C80 0.960 . S
C84 N85 1.342 . S
C84 C88 1.401 . S
C84 C89 1.499 . S
N85 Co68 1.989 . S
N85 C84 1.342 . S
N85 N86 1.388 . S
N86 Co69 1.993 1_554 S
N86 N85 1.388 . S
N86 C87 1.346 . S
C87 N86 1.346 . S
C87 C88 1.396 . S
C87 C97 1.510 1_554 S
C88 C84 1.401 . S
C88 C87 1.396 . S
C89 C84 1.499 . S
C89 H90 0.959 . S
C89 H91 0.960 . S
C89 H92 0.961 . S
H90 C89 0.959 . S
H91 C89 0.960 . S
H92 C89 0.961 . S
O93 Co68 1.967 . S
O93 C101 1.258 . S
O94 Co69 1.941 1_554 S
O94 C101 1.266 . S
H95 C97 0.959 . S
H96 C97 0.961 . S
C97 C87 1.510 1_556 S
C97 H95 0.959 . S
C97 H96 0.961 . S
C97 H98 0.960 . S
H98 C97 0.960 . S
H99 N79 0.862 . S
O100 Co68 1.920 . S
O100 C73 1.289 . S
C101 O93 1.258 . S
C101 O94 1.266 . S
Co102 O105 1.970 . S
Co102 N119 1.989 . S
Co102 O127 1.967 . S
Co102 O134 1.920 . S
Co103 O106 1.966 . S
Co103 N112 2.022 . S
Co103 N120 1.993 . S
Co103 O128 1.941 . S
C104 O105 1.258 . S
C104 O106 1.263 . S
O105 Co102 1.970 . S
O105 C104 1.258 . S
O106 Co103 1.966 . S
O106 C104 1.263 . S
C107 O108 1.235 . S
C107 O134 1.289 . S
O108 C107 1.235 . S
C109 C111 1.400 . S
C109 N112 1.351 . S
C109 C114 1.501 . S
C110 C111 1.387 . S
C110 N113 1.341 . S
C111 C109 1.400 . S
C111 C110 1.387 . S
N112 Co103 2.022 . S
N112 C109 1.351 . S
N112 N113 1.365 . S
N113 C110 1.341 . S
N113 N112 1.365 . S
N113 H133 0.862 . S
C114 C109 1.501 . S
C114 H115 0.961 . S
C114 H116 0.961 . S
C114 H117 0.960 . S
H115 C114 0.961 . S
H116 C114 0.961 . S
H117 C114 0.960 . S
C118 N119 1.342 . S
C118 C122 1.401 . S
C118 C123 1.499 . S
N119 Co102 1.989 . S
N119 C118 1.342 . S
N119 N120 1.388 . S
N120 Co103 1.993 . S
N120 N119 1.388 . S
N120 C121 1.346 . S
C121 N120 1.346 . S
C121 C122 1.396 . S
C121 C131 1.510 . S
C122 C118 1.401 . S
C122 C121 1.396 . S
C123 C118 1.499 . S
C123 H124 0.959 . S
C123 H125 0.960 . S
C123 H126 0.961 . S
H124 C123 0.959 . S
H125 C123 0.960 . S
H126 C123 0.961 . S
O127 Co102 1.967 . S
O127 C135 1.258 . S
O128 Co103 1.941 . S
O128 C135 1.266 . S
H129 C131 0.959 . S
H130 C131 0.961 . S
C131 C121 1.510 . S
C131 H129 0.959 . S
C131 H130 0.961 . S
C131 H132 0.960 . S
H132 C131 0.960 . S
H133 N113 0.862 . S
O134 Co102 1.920 . S
O134 C107 1.289 . S
C135 O127 1.258 . S
C135 O128 1.266 . S
Co136 O139 1.970 . S
Co136 N153 1.989 1_556 S
Co136 O161 1.967 . S
Co136 O168 1.920 . S
Co137 O140 1.966 . S
Co137 N146 2.022 . S
Co137 N154 1.993 . S
Co137 O162 1.941 . S
C138 O139 1.258 1_554 S
C138 O140 1.263 . S
O139 Co136 1.970 . S
O139 C138 1.258 1_556 S
O140 Co137 1.966 . S
O140 C138 1.263 . S
C141 O142 1.235 . S
C141 O168 1.289 . S
O142 C141 1.235 . S
C143 C145 1.400 . S
C143 N146 1.351 . S
C143 C148 1.501 . S
C144 C145 1.387 . S
C144 N147 1.341 . S
C145 C143 1.400 . S
C145 C144 1.387 . S
N146 Co137 2.022 . S
N146 C143 1.351 . S
N146 N147 1.365 . S
N147 C144 1.341 . S
N147 N146 1.365 . S
N147 H167 0.862 . S
C148 C143 1.501 . S
C148 H149 0.961 . S
C148 H150 0.961 . S
C148 H151 0.960 . S
H149 C148 0.961 . S
H150 C148 0.961 . S
H151 C148 0.960 . S
C152 N153 1.342 1_556 S
C152 C156 1.401 1_556 S
C152 C157 1.499 . S
N153 Co136 1.989 1_554 S
N153 C152 1.342 1_554 S
N153 N154 1.388 . S
N154 Co137 1.993 . S
N154 N153 1.388 . S
N154 C155 1.346 . S
C155 N154 1.346 . S
C155 C156 1.396 . S
C155 C165 1.510 . S
C156 C152 1.401 1_554 S
C156 C155 1.396 . S
C157 C152 1.499 . S
C157 H158 0.959 . S
C157 H159 0.960 . S
C157 H160 0.961 . S
H158 C157 0.959 . S
H159 C157 0.960 . S
H160 C157 0.961 . S
O161 Co136 1.967 . S
O161 C169 1.258 1_556 S
O162 Co137 1.941 . S
O162 C169 1.266 . S
H163 C165 0.959 . S
H164 C165 0.961 . S
C165 C155 1.510 . S
C165 H163 0.959 . S
C165 H164 0.961 . S
C165 H166 0.960 . S
H166 C165 0.960 . S
H167 N147 0.862 . S
O168 Co136 1.920 . S
O168 C141 1.289 . S
C169 O161 1.258 1_554 S
C169 O162 1.266 . S
Co170 O173 1.970 . S
Co170 N187 1.989 . S
Co170 O195 1.967 . S
Co170 O202 1.920 . S
Co171 O174 1.966 . S
Co171 N180 2.022 . S
Co171 N188 1.993 . S
Co171 O196 1.941 . S
C172 O173 1.258 . S
C172 O174 1.263 . S
O173 Co170 1.970 . S
O173 C172 1.258 . S
O174 Co171 1.966 . S
O174 C172 1.263 . S
C175 O176 1.235 . S
C175 O202 1.289 . S
O176 C175 1.235 . S
C177 C179 1.400 . S
C177 N180 1.351 . S
C177 C182 1.501 . S
C178 C179 1.387 . S
C178 N181 1.341 . S
C179 C177 1.400 . S
C179 C178 1.387 . S
N180 Co171 2.022 . S
N180 C177 1.351 . S
N180 N181 1.365 . S
N181 C178 1.341 . S
N181 N180 1.365 . S
N181 H201 0.862 . S
C182 C177 1.501 . S
C182 H183 0.961 . S
C182 H184 0.961 . S
C182 H185 0.960 . S
H183 C182 0.961 . S
H184 C182 0.961 . S
H185 C182 0.960 . S
C186 N187 1.342 . S
C186 C190 1.401 . S
C186 C191 1.499 . S
N187 Co170 1.989 . S
N187 C186 1.342 . S
N187 N188 1.388 . S
N188 Co171 1.993 . S
N188 N187 1.388 . S
N188 C189 1.346 . S
C189 N188 1.346 . S
C189 C190 1.396 . S
C189 C199 1.510 . S
C190 C186 1.401 . S
C190 C189 1.396 . S
C191 C186 1.499 . S
C191 H192 0.959 . S
C191 H193 0.960 . S
C191 H194 0.961 . S
H192 C191 0.959 . S
H193 C191 0.960 . S
H194 C191 0.961 . S
O195 Co170 1.967 . S
O195 C203 1.258 . S
O196 Co171 1.941 . S
O196 C203 1.266 . S
H197 C199 0.959 . S
H198 C199 0.961 . S
C199 C189 1.510 . S
C199 H197 0.959 . S
C199 H198 0.961 . S
C199 H200 0.960 . S
H200 C199 0.960 . S
H201 N181 0.862 . S
O202 Co170 1.920 . S
O202 C175 1.289 . S
C203 O195 1.258 . S
C203 O196 1.266 . S
Co204 O207 1.970 . S
Co204 N221 1.989 1_556 S
Co204 O229 1.967 . S
Co204 O236 1.920 . S
Co205 O208 1.966 . S
Co205 N214 2.022 . S
Co205 N222 1.993 . S
Co205 O230 1.941 . S
C206 O207 1.258 1_554 S
C206 O208 1.263 . S
O207 Co204 1.970 . S
O207 C206 1.258 1_556 S
O208 Co205 1.966 . S
O208 C206 1.263 . S
C209 O210 1.235 . S
C209 O236 1.289 . S
O210 C209 1.235 . S
C211 C213 1.400 . S
C211 N214 1.351 . S
C211 C216 1.501 . S
C212 C213 1.387 . S
C212 N215 1.341 . S
C213 C211 1.400 . S
C213 C212 1.387 . S
N214 Co205 2.022 . S
N214 C211 1.351 . S
N214 N215 1.365 . S
N215 C212 1.341 . S
N215 N214 1.365 . S
N215 H235 0.862 . S
C216 C211 1.501 . S
C216 H217 0.961 . S
C216 H218 0.961 . S
C216 H219 0.960 . S
H217 C216 0.961 . S
H218 C216 0.961 . S
H219 C216 0.960 . S
C220 N221 1.342 1_556 S
C220 C224 1.401 1_556 S
C220 C225 1.499 . S
N221 Co204 1.989 1_554 S
N221 C220 1.342 1_554 S
N221 N222 1.388 . S
N222 Co205 1.993 . S
N222 N221 1.388 . S
N222 C223 1.346 . S
C223 N222 1.346 . S
C223 C224 1.396 . S
C223 C233 1.510 . S
C224 C220 1.401 1_554 S
C224 C223 1.396 . S
C225 C220 1.499 . S
C225 H226 0.959 . S
C225 H227 0.960 . S
C225 H228 0.961 . S
H226 C225 0.959 . S
H227 C225 0.960 . S
H228 C225 0.961 . S
O229 Co204 1.967 . S
O229 C237 1.258 1_556 S
O230 Co205 1.941 . S
O230 C237 1.266 . S
H231 C233 0.959 . S
H232 C233 0.961 . S
C233 C223 1.510 . S
C233 H231 0.959 . S
C233 H232 0.961 . S
C233 H234 0.960 . S
H234 C233 0.960 . S
H235 N215 0.862 . S
O236 Co204 1.920 . S
O236 C209 1.289 . S
C237 O229 1.258 1_554 S
C237 O230 1.266 . S
Co238 O241 1.970 . S
Co238 N255 1.989 . S
Co238 O263 1.967 . S
Co238 O270 1.920 . S
Co239 O242 1.966 . S
Co239 N248 2.022 . S
Co239 N256 1.993 . S
Co239 O264 1.941 . S
C240 O241 1.258 . S
C240 O242 1.263 . S
O241 Co238 1.970 . S
O241 C240 1.258 . S
O242 Co239 1.966 . S
O242 C240 1.263 . S
C243 O244 1.235 . S
C243 O270 1.289 . S
O244 C243 1.235 . S
C245 C247 1.400 . S
C245 N248 1.351 . S
C245 C250 1.501 . S
C246 C247 1.387 . S
C246 N249 1.341 . S
C247 C245 1.400 . S
C247 C246 1.387 . S
N248 Co239 2.022 . S
N248 C245 1.351 . S
N248 N249 1.365 . S
N249 C246 1.341 . S
N249 N248 1.365 . S
N249 H269 0.862 . S
C250 C245 1.501 . S
C250 H251 0.961 . S
C250 H252 0.961 . S
C250 H253 0.960 . S
H251 C250 0.961 . S
H252 C250 0.961 . S
H253 C250 0.960 . S
C254 N255 1.342 . S
C254 C258 1.401 . S
C254 C259 1.499 . S
N255 Co238 1.989 . S
N255 C254 1.342 . S
N255 N256 1.388 . S
N256 Co239 1.993 . S
N256 N255 1.388 . S
N256 C257 1.346 . S
C257 N256 1.346 . S
C257 C258 1.396 . S
C257 C267 1.510 . S
C258 C254 1.401 . S
C258 C257 1.396 . S
C259 C254 1.499 . S
C259 H260 0.959 . S
C259 H261 0.960 . S
C259 H262 0.961 . S
H260 C259 0.959 . S
H261 C259 0.960 . S
H262 C259 0.961 . S
O263 Co238 1.967 . S
O263 C271 1.258 . S
O264 Co239 1.941 . S
O264 C271 1.266 . S
H265 C267 0.959 . S
H266 C267 0.961 . S
C267 C257 1.510 . S
C267 H265 0.959 . S
C267 H266 0.961 . S
C267 H268 0.960 . S
H268 C267 0.960 . S
H269 N249 0.862 . S
O270 Co238 1.920 . S
O270 C243 1.289 . S
C271 O263 1.258 . S
C271 O264 1.266 . S
C272 C273 1.363 . S
C272 C278 1.379 . S
C272 N280 1.356 . S
C273 C272 1.363 . S
C273 C279 1.363 . S
C274 C275 1.363 . S
C274 C279 1.379 . S
C274 N281 1.356 . S
C275 C274 1.363 . S
C275 C278 1.363 . S
N276 C278 1.356 . S
N276 H288 0.984 . S
N276 H289 0.985 . S
N277 C279 1.356 1_556 S
N277 H282 0.984 . S
N277 H283 0.985 . S
C278 C272 1.379 . S
C278 C275 1.363 . S
C278 N276 1.356 . S
C279 C273 1.363 . S
C279 C274 1.379 . S
C279 N277 1.356 1_554 S
N280 C272 1.356 . S
N280 H286 0.984 . S
N280 H287 0.984 1_545 S
N281 C274 1.356 . S
N281 H284 0.984 . S
N281 H285 0.985 1_554 S
H282 N277 0.984 . S
H283 N277 0.985 . S
H284 N281 0.984 . S
H285 N281 0.985 1_556 S
H286 N280 0.984 . S
H287 N280 0.984 1_565 S
H288 N276 0.984 . S
H289 N276 0.985 . S
C290 C291 1.363 . S
C290 C296 1.379 . S
C290 N298 1.356 . S
C291 C290 1.363 . S
C291 C297 1.363 . S
C292 C293 1.363 . S
C292 C297 1.379 . S
C292 N299 1.356 . S
C293 C292 1.363 . S
C293 C296 1.363 . S
N294 C296 1.356 . S
N294 H306 0.984 . S
N294 H307 0.985 . S
N295 C297 1.356 . S
N295 H300 0.984 1_655 S
N295 H301 0.985 . S
C296 C290 1.379 . S
C296 C293 1.363 . S
C296 N294 1.356 . S
C297 C291 1.363 . S
C297 C292 1.379 . S
C297 N295 1.356 . S
N298 C290 1.356 . S
N298 H304 0.984 . S
N298 H305 0.984 . S
N299 C292 1.356 . S
N299 H302 0.984 . S
N299 H303 0.985 . S
H300 N295 0.984 1_455 S
H301 N295 0.985 . S
H302 N299 0.984 . S
H303 N299 0.985 . S
H304 N298 0.984 . S
H305 N298 0.984 . S
H306 N294 0.984 . S
H307 N294 0.985 . S
C308 C309 1.363 . S
C308 C314 1.379 . S
C308 N316 1.356 . S
C309 C308 1.363 . S
C309 C315 1.363 1_554 S
C310 C311 1.363 . S
C310 C315 1.379 1_554 S
C310 N317 1.356 1_554 S
C311 C310 1.363 . S
C311 C314 1.363 . S
N312 C314 1.356 . S
N312 H324 0.984 . S
N312 H325 0.985 . S
N313 C315 1.356 . S
N313 H318 0.984 . S
N313 H319 0.985 . S
C314 C308 1.379 . S
C314 C311 1.363 . S
C314 N312 1.356 . S
C315 C309 1.363 1_556 S
C315 C310 1.379 1_556 S
C315 N313 1.356 . S
N316 C308 1.356 . S
N316 H322 0.984 . S
N316 H323 0.984 1_565 S
N317 C310 1.356 1_556 S
N317 H320 0.984 . S
N317 H321 0.985 . S
H318 N313 0.984 . S
H319 N313 0.985 . S
H320 N317 0.984 . S
H321 N317 0.985 . S
H322 N316 0.984 . S
H323 N316 0.984 1_545 S
H324 N312 0.984 . S
H325 N312 0.985 . S
C326 C327 1.363 . S
C326 C332 1.379 . S
C326 N334 1.356 . S
C327 C326 1.363 . S
C327 C333 1.363 . S
C328 C329 1.363 . S
C328 C333 1.379 . S
C328 N335 1.356 . S
C329 C328 1.363 . S
C329 C332 1.363 . S
N330 C332 1.356 . S
N330 H342 0.984 . S
N330 H343 0.985 . S
N331 C333 1.356 . S
N331 H336 0.984 1_455 S
N331 H337 0.985 . S
C332 C326 1.379 . S
C332 C329 1.363 . S
C332 N330 1.356 . S
C333 C327 1.363 . S
C333 C328 1.379 . S
C333 N331 1.356 . S
N334 C326 1.356 . S
N334 H340 0.984 . S
N334 H341 0.984 . S
N335 C328 1.356 . S
N335 H338 0.984 . S
N335 H339 0.985 . S
H336 N331 0.984 1_655 S
H337 N331 0.985 . S
H338 N335 0.984 . S
H339 N335 0.985 . S
H340 N334 0.984 . S
H341 N334 0.984 . S
H342 N330 0.984 . S
H343 N330 0.985 . S
C344 C345 1.363 . S
C344 C350 1.379 . S
C344 N352 1.356 . S
C345 C344 1.363 . S
C345 C351 1.363 . S
C346 C347 1.363 . S
C346 C351 1.379 . S
C346 N353 1.356 1_554 S
C347 C346 1.363 . S
C347 C350 1.363 . S
N348 C350 1.356 . S
N348 H360 0.984 . S
N348 H361 0.985 . S
N349 C351 1.356 . S
N349 H354 0.984 . S
N349 H355 0.985 1_554 S
C350 C344 1.379 . S
C350 C347 1.363 . S
C350 N348 1.356 . S
C351 C345 1.363 . S
C351 C346 1.379 . S
C351 N349 1.356 . S
N352 C344 1.356 . S
N352 H358 0.984 . S
N352 H359 0.984 . S
N353 C346 1.356 1_556 S
N353 H356 0.984 . S
N353 H357 0.985 . S
H354 N349 0.984 . S
H355 N349 0.985 1_556 S
H356 N353 0.984 . S
H357 N353 0.985 . S
H358 N352 0.984 . S
H359 N352 0.984 . S
H360 N348 0.984 . S
H361 N348 0.985 . S
C362 C363 1.363 . S
C362 C368 1.379 . S
C362 N370 1.356 . S
C363 C362 1.363 . S
C363 C369 1.363 . S
C364 C365 1.363 . S
C364 C369 1.379 . S
C364 N371 1.356 . S
C365 C364 1.363 . S
C365 C368 1.363 . S
N366 C368 1.356 . S
N366 H378 0.984 . S
N366 H379 0.985 . S
N367 C369 1.356 . S
N367 H372 0.984 . S
N367 H373 0.985 . S
C368 C362 1.379 . S
C368 C365 1.363 . S
C368 N366 1.356 . S
C369 C363 1.363 . S
C369 C364 1.379 . S
C369 N367 1.356 . S
N370 C362 1.356 . S
N370 H376 0.984 . S
N370 H377 0.984 . S
N371 C364 1.356 . S
N371 H374 0.984 . S
N371 H375 0.985 . S
H372 N367 0.984 . S
H373 N367 0.985 . S
H374 N371 0.984 . S
H375 N371 0.985 . S
H376 N370 0.984 . S
H377 N370 0.984 . S
H378 N366 0.984 . S
H379 N366 0.985 . S
C380 C381 1.363 . S
C380 C386 1.376 1_554 S
C380 N388 1.356 1_554 S
C381 C380 1.363 . S
C381 C387 1.363 . S
C382 C383 1.363 . S
C382 C387 1.379 . S
C382 N389 1.356 . S
C383 C382 1.363 . S
C383 C386 1.351 1_554 S
N384 C386 1.369 . S
N384 H396 0.984 . S
N384 H397 0.985 . S
N385 C387 1.356 . S
N385 H390 0.984 . S
N385 H391 0.985 . S
C386 C380 1.376 1_556 S
C386 C383 1.351 1_556 S
C386 N384 1.369 . S
C387 C381 1.363 . S
C387 C382 1.379 . S
C387 N385 1.356 . S
N388 C380 1.356 1_556 S
N388 H394 0.984 . S
N388 H395 0.984 . S
N389 C382 1.356 . S
N389 H392 0.984 . S
N389 H393 0.985 . S
H390 N385 0.984 . S
H391 N385 0.985 . S
H392 N389 0.984 . S
H393 N389 0.985 . S
H394 N388 0.984 . S
H395 N388 0.984 . S
H396 N384 0.984 . S
H397 N384 0.985 . S
C398 C399 1.363 . S
C398 C404 1.379 . S
C398 N406 1.356 . S
C399 C398 1.363 . S
C399 C405 1.363 . S
C400 C401 1.363 . S
C400 C405 1.379 . S
C400 N407 1.356 . S
C401 C400 1.363 . S
C401 C404 1.363 . S
N402 C404 1.356 . S
N402 H414 0.984 . S
N402 H415 0.985 . S
N403 C405 1.356 . S
N403 H408 0.984 . S
N403 H409 0.985 . S
C404 C398 1.379 . S
C404 C401 1.363 . S
C404 N402 1.356 . S
C405 C399 1.363 . S
C405 C400 1.379 . S
C405 N403 1.356 . S
N406 C398 1.356 . S
N406 H412 0.984 . S
N406 H413 0.984 . S
N407 C400 1.356 . S
N407 H410 0.984 . S
N407 H411 0.985 . S
H408 N403 0.984 . S
H409 N403 0.985 . S
H410 N407 0.984 . S
H411 N407 0.985 . S
H412 N406 0.984 . S
H413 N406 0.984 . S
H414 N402 0.984 . S
H415 N402 0.985 . S
C416 C417 1.363 1_655 S
C416 C422 1.379 . S
C416 N424 1.356 1_655 S
C417 C416 1.363 1_455 S
C417 C423 1.363 . S
C418 C419 1.363 1_455 S
C418 C423 1.379 . S
C418 N425 1.356 1_454 S
C419 C418 1.363 1_655 S
C419 C422 1.363 . S
N420 C422 1.356 . S
N420 H432 0.984 . S
N420 H433 0.985 . S
N421 C423 1.356 1_556 S
N421 H426 0.984 . S
N421 H427 0.985 . S
C422 C416 1.379 . S
C422 C419 1.363 . S
C422 N420 1.356 . S
C423 C417 1.363 . S
C423 C418 1.379 . S
C423 N421 1.356 1_554 S
N424 C416 1.356 1_455 S
N424 H430 0.984 1_455 S
N424 H431 0.984 . S
N425 C418 1.356 1_656 S
N425 H428 0.984 . S
N425 H429 0.985 1_655 S
H426 N421 0.984 . S
H427 N421 0.985 . S
H428 N425 0.984 . S
H429 N425 0.985 1_455 S
H430 N424 0.984 1_655 S
H431 N424 0.984 . S
H432 N420 0.984 . S
H433 N420 0.985 . S
C434 C435 1.363 1_545 S
C434 C440 1.379 . S
C434 N442 1.356 1_545 S
C435 C434 1.363 1_565 S
C435 C441 1.363 . S
C436 C437 1.363 1_565 S
C436 C441 1.379 . S
C436 N443 1.356 1_565 S
C437 C436 1.363 1_545 S
C437 C440 1.363 . S
N438 C440 1.356 . S
N438 H450 0.984 . S
N438 H451 0.985 . S
N439 C441 1.356 . S
N439 H444 0.984 . S
N439 H445 0.985 . S
C440 C434 1.379 . S
C440 C437 1.363 . S
C440 N438 1.356 . S
C441 C435 1.363 . S
C441 C436 1.379 . S
C441 N439 1.356 . S
N442 C434 1.356 1_565 S
N442 H448 0.984 1_565 S
N442 H449 0.984 . S
N443 C436 1.356 1_545 S
N443 H446 0.984 . S
N443 H447 0.985 1_545 S
H444 N439 0.984 . S
H445 N439 0.985 . S
H446 N443 0.984 . S
H447 N443 0.985 1_565 S
H448 N442 0.984 1_545 S
H449 N442 0.984 . S
H450 N438 0.984 . S
H451 N438 0.985 . S
C452 C453 1.363 1_556 S
C452 C458 1.379 1_565 S
C452 N460 1.356 . S
C453 C452 1.363 1_554 S
C453 C459 1.363 . S
C454 C455 1.363 . S
C454 C459 1.379 1_545 S
C454 N461 1.356 . S
C455 C454 1.363 . S
C455 C458 1.363 1_554 S
N456 C458 1.356 . S
N456 H468 0.980 1_545 S
N456 H469 0.985 . S
N457 C459 1.356 . S
N457 H462 0.984 . S
N457 H463 0.980 1_565 S
C458 C452 1.379 1_545 S
C458 C455 1.363 1_556 S
C458 N456 1.356 . S
C459 C453 1.363 . S
C459 C454 1.379 1_565 S
C459 N457 1.356 . S
N460 C452 1.356 . S
N460 H466 0.984 . S
N460 H467 0.984 . S
N461 C454 1.356 . S
N461 H464 0.984 . S
N461 H465 0.985 . S
H462 N457 0.984 . S
H463 N457 0.980 1_545 S
H464 N461 0.984 . S
H465 N461 0.985 . S
H466 N460 0.984 . S
H467 N460 0.984 . S
H468 N456 0.980 1_565 S
H469 N456 0.985 . S
C470 C471 1.363 . S
C470 C476 1.379 1_655 S
C470 N478 1.356 . S
C471 C470 1.363 . S
C471 C477 1.363 . S
C472 C473 1.363 . S
C472 C477 1.379 1_455 S
C472 N479 1.356 . S
C473 C472 1.363 . S
C473 C476 1.363 . S
N474 C476 1.356 . S
N474 H486 0.981 1_455 S
N474 H487 0.985 . S
N475 C477 1.356 . S
N475 H480 0.984 . S
N475 H481 0.981 1_655 S
C476 C470 1.379 1_455 S
C476 C473 1.363 . S
C476 N474 1.356 . S
C477 C471 1.363 . S
C477 C472 1.379 1_655 S
C477 N475 1.356 . S
N478 C470 1.356 . S
N478 H484 0.984 . S
N478 H485 0.984 . S
N479 C472 1.356 . S
N479 H482 0.984 . S
N479 H483 0.985 . S
H480 N475 0.984 . S
H481 N475 0.981 1_455 S
H482 N479 0.984 . S
H483 N479 0.985 . S
H484 N478 0.984 . S
H485 N478 0.984 . S
H486 N474 0.981 1_655 S
H487 N474 0.985 . S
C488 C489 1.363 . S
C488 C494 1.379 . S
C488 N496 1.356 . S
C489 C488 1.363 . S
C489 C495 1.363 . S
C490 C491 1.363 . S
C490 C495 1.379 . S
C490 N497 1.356 . S
C491 C490 1.363 . S
C491 C494 1.363 . S
N492 C494 1.356 . S
N492 H504 0.984 . S
N492 H505 0.985 . S
N493 C495 1.356 . S
N493 H498 0.984 . S
N493 H499 0.985 . S
C494 C488 1.379 . S
C494 C491 1.363 . S
C494 N492 1.356 . S
C495 C489 1.363 . S
C495 C490 1.379 . S
C495 N493 1.356 . S
N496 C488 1.356 . S
N496 H502 0.984 . S
N496 H503 0.984 . S
N497 C490 1.356 . S
N497 H500 0.984 . S
N497 H501 0.985 . S
H498 N493 0.984 . S
H499 N493 0.985 . S
H500 N497 0.984 . S
H501 N497 0.985 . S
H502 N496 0.984 . S
H503 N496 0.984 . S
H504 N492 0.984 . S
H505 N492 0.985 . S
C506 C507 1.363 . S
C506 C512 1.379 . S
C506 N514 1.356 . S
C507 C506 1.363 . S
C507 C513 1.363 . S
C508 C509 1.363 . S
C508 C513 1.379 . S
C508 N515 1.356 . S
C509 C508 1.363 . S
C509 C512 1.363 . S
N510 C512 1.356 . S
N510 H522 0.984 . S
N510 H523 0.985 . S
N511 C513 1.356 . S
N511 H516 0.984 . S
N511 H517 0.985 . S
C512 C506 1.379 . S
C512 C509 1.363 . S
C512 N510 1.356 . S
C513 C507 1.363 . S
C513 C508 1.379 . S
C513 N511 1.356 . S
N514 C506 1.356 . S
N514 H520 0.984 . S
N514 H521 0.984 . S
N515 C508 1.356 . S
N515 H518 0.984 . S
N515 H519 0.985 . S
H516 N511 0.984 . S
H517 N511 0.985 . S
H518 N515 0.984 . S
H519 N515 0.985 . S
H520 N514 0.984 . S
H521 N514 0.984 . S
H522 N510 0.984 . S
H523 N510 0.985 . S
C524 C525 1.363 . S
C524 C530 1.379 . S
C524 N532 1.356 . S
C525 C524 1.363 . S
C525 C531 1.363 . S
C526 C527 1.363 . S
C526 C531 1.379 . S
C526 N533 1.356 . S
C527 C526 1.363 . S
C527 C530 1.363 . S
N528 C530 1.356 . S
N528 H540 0.984 . S
N528 H541 0.985 . S
N529 C531 1.356 . S
N529 H534 0.984 . S
N529 H535 0.985 . S
C530 C524 1.379 . S
C530 C527 1.363 . S
C530 N528 1.356 . S
C531 C525 1.363 . S
C531 C526 1.379 . S
C531 N529 1.356 . S
N532 C524 1.356 . S
N532 H538 0.984 . S
N532 H539 0.984 . S
N533 C526 1.356 . S
N533 H536 0.984 . S
N533 H537 0.985 . S
H534 N529 0.984 . S
H535 N529 0.985 . S
H536 N533 0.984 . S
H537 N533 0.985 . S
H538 N532 0.984 . S
H539 N532 0.984 . S
H540 N528 0.984 . S
H541 N528 0.985 . S
C542 C543 1.363 . S
C542 C548 1.379 . S
C542 N550 1.356 . S
C543 C542 1.363 . S
C543 C549 1.363 . S
C544 C545 1.363 . S
C544 C549 1.379 . S
C544 N551 1.356 . S
C545 C544 1.363 . S
C545 C548 1.363 . S
N546 C548 1.356 . S
N546 H558 0.984 . S
N546 H559 0.985 . S
N547 C549 1.356 . S
N547 H552 0.984 . S
N547 H553 0.985 . S
C548 C542 1.379 . S
C548 C545 1.363 . S
C548 N546 1.356 . S
C549 C543 1.363 . S
C549 C544 1.379 . S
C549 N547 1.356 . S
N550 C542 1.356 . S
N550 H556 0.984 . S
N550 H557 0.984 . S
N551 C544 1.356 . S
N551 H554 0.984 . S
N551 H555 0.985 . S
H552 N547 0.984 . S
H553 N547 0.985 . S
H554 N551 0.984 . S
H555 N551 0.985 . S
H556 N550 0.984 . S
H557 N550 0.984 . S
H558 N546 0.984 . S
H559 N546 0.985 . S
C560 C561 1.363 . S
C560 C566 1.379 . S
C560 N568 1.356 . S
C561 C560 1.363 . S
C561 C567 1.363 . S
C562 C563 1.363 . S
C562 C567 1.379 . S
C562 N569 1.356 . S
C563 C562 1.363 . S
C563 C566 1.363 . S
N564 C566 1.356 . S
N564 H576 0.984 . S
N564 H577 0.985 . S
N565 C567 1.356 . S
N565 H570 0.984 . S
N565 H571 0.985 . S
C566 C560 1.379 . S
C566 C563 1.363 . S
C566 N564 1.356 . S
C567 C561 1.363 . S
C567 C562 1.379 . S
C567 N565 1.356 . S
N568 C560 1.356 . S
N568 H574 0.984 . S
N568 H575 0.984 . S
N569 C562 1.356 . S
N569 H572 0.984 . S
N569 H573 0.985 . S
H570 N565 0.984 . S
H571 N565 0.985 . S
H572 N569 0.984 . S
H573 N569 0.985 . S
H574 N568 0.984 . S
H575 N568 0.984 . S
H576 N564 0.984 . S
H577 N564 0.985 . S
C578 C579 1.363 . S
C578 C584 1.379 . S
C578 N586 1.356 . S
C579 C578 1.363 . S
C579 C585 1.363 . S
C580 C581 1.363 . S
C580 C585 1.379 . S
C580 N587 1.356 . S
C581 C580 1.363 . S
C581 C584 1.363 . S
N582 C584 1.356 . S
N582 H594 0.984 . S
N582 H595 0.985 . S
N583 C585 1.356 . S
N583 H588 0.984 . S
N583 H589 0.985 . S
C584 C578 1.379 . S
C584 C581 1.363 . S
C584 N582 1.356 . S
C585 C579 1.363 . S
C585 C580 1.379 . S
C585 N583 1.356 . S
N586 C578 1.356 . S
N586 H592 0.984 . S
N586 H593 0.984 . S
N587 C580 1.356 . S
N587 H590 0.984 . S
N587 H591 0.985 . S
H588 N583 0.984 . S
H589 N583 0.985 . S
H590 N587 0.984 . S
H591 N587 0.985 . S
H592 N586 0.984 . S
H593 N586 0.984 . S
H594 N582 0.984 . S
H595 N582 0.985 . S
C596 C597 1.363 . S
C596 C602 1.379 . S
C596 N604 1.356 . S
C597 C596 1.363 . S
C597 C603 1.363 . S
C598 C599 1.363 . S
C598 C603 1.379 . S
C598 N605 1.356 . S
C599 C598 1.363 . S
C599 C602 1.363 . S
N600 C602 1.356 . S
N600 H612 0.984 . S
N600 H613 0.985 . S
N601 C603 1.356 . S
N601 H606 0.984 . S
N601 H607 0.985 . S
C602 C596 1.379 . S
C602 C599 1.363 . S
C602 N600 1.356 . S
C603 C597 1.363 . S
C603 C598 1.379 . S
C603 N601 1.356 . S
N604 C596 1.356 . S
N604 H610 0.984 . S
N604 H611 0.984 . S
N605 C598 1.356 . S
N605 H608 0.984 . S
N605 H609 0.985 . S
H606 N601 0.984 . S
H607 N601 0.985 . S
H608 N605 0.984 . S
H609 N605 0.985 . S
H610 N604 0.984 . S
H611 N604 0.984 . S
H612 N600 0.984 . S
H613 N600 0.985 . S
C614 C615 1.363 . S
C614 C620 1.379 . S
C614 N622 1.356 . S
C615 C614 1.363 . S
C615 C621 1.363 . S
C616 C617 1.363 . S
C616 C621 1.379 . S
C616 N623 1.356 . S
C617 C616 1.363 . S
C617 C620 1.363 . S
N618 C620 1.356 . S
N618 H630 0.984 . S
N618 H631 0.985 . S
N619 C621 1.356 . S
N619 H624 0.984 . S
N619 H625 0.985 . S
C620 C614 1.379 . S
C620 C617 1.363 . S
C620 N618 1.356 . S
C621 C615 1.363 . S
C621 C616 1.379 . S
C621 N619 1.356 . S
N622 C614 1.356 . S
N622 H628 0.984 . S
N622 H629 0.984 . S
N623 C616 1.356 . S
N623 H626 0.984 . S
N623 H627 0.985 . S
H624 N619 0.984 . S
H625 N619 0.985 . S
H626 N623 0.984 . S
H627 N623 0.985 . S
H628 N622 0.984 . S
H629 N622 0.984 . S
H630 N618 0.984 . S
H631 N618 0.985 . S
C273 C237 1.568 1_545 S
C275 C20 1.609 . S
C291 C271 1.568 1_655 S
C293 C54 1.609 . S
C309 C169 1.568 1_565 S
C311 C88 1.609 . S
C327 C203 1.568 1_455 S
C329 C122 1.609 . S
C345 C101 1.568 . S
C347 C156 1.609 . S
C363 C135 1.568 . S
C365 C190 1.609 . S
C381 C33 1.568 . S
C383 C224 1.609 . S
C399 C258 1.609 . S
C401 C67 1.568 . S
C417 C2 0.758 . S
C419 C70 0.758 . S
C435 C104 0.758 . S
C437 C36 0.758 . S
C453 C206 0.758 . S
C455 C138 0.758 . S
C471 C172 0.758 . S
C473 C240 0.758 . S
C489 C5 1.753 . S
C491 C243 1.753 . S
C507 C141 1.753 . S
C509 C39 1.753 . S
C525 C175 1.753 . S
C527 C73 1.753 . S
C543 C209 1.753 . S
C545 C107 1.753 . S
C561 C77 1.159 . S
C563 C179 1.159 . S
C579 C111 1.159 . S
C581 C213 1.159 . S
C597 C247 1.159 . S
C599 C9 1.159 . S
C615 C145 1.159 . S
C617 C43 1.159 . S
