# Generated by pormake.
# Topology fci, (5)-cn, num edge types: 1
# Building blocks:
#     Node 0, Type 0, BuildingBlock: BEQFEK_clean_sbu_0, # of connection points: 5
#     Node 1, Type 0, BuildingBlock: BEQFEK_clean_sbu_0, # of connection points: 5
#     Node 2, Type 0, BuildingBlock: BEQFEK_clean_sbu_0, # of connection points: 5
#     Node 3, Type 0, BuildingBlock: BEQFEK_clean_sbu_0, # of connection points: 5
#     Node 4, Type 0, BuildingBlock: BEQFEK_clean_sbu_0, # of connection points: 5
#     Node 5, Type 0, BuildingBlock: BEQFEK_clean_sbu_0, # of connection points: 5
#     Node 6, Type 0, BuildingBlock: BEQFEK_clean_sbu_0, # of connection points: 5
#     Node 7, Type 0, BuildingBlock: BEQFEK_clean_sbu_0, # of connection points: 5
#     Node 8, Type 0, BuildingBlock: BEQFEK_clean_sbu_0, # of connection points: 5
#     Node 9, Type 0, BuildingBlock: BEQFEK_clean_sbu_0, # of connection points: 5
#     Node 10, Type 0, BuildingBlock: BEQFEK_clean_sbu_0, # of connection points: 5
#     Node 11, Type 0, BuildingBlock: BEQFEK_clean_sbu_0, # of connection points: 5
#     Node 12, Type 0, BuildingBlock: BEQFEK_clean_sbu_0, # of connection points: 5
#     Node 13, Type 0, BuildingBlock: BEQFEK_clean_sbu_0, # of connection points: 5
#     Node 14, Type 0, BuildingBlock: BEQFEK_clean_sbu_0, # of connection points: 5
#     Node 15, Type 0, BuildingBlock: BEQFEK_clean_sbu_0, # of connection points: 5
#     Node 16, Type 0, BuildingBlock: BEQFEK_clean_sbu_0, # of connection points: 5
#     Node 17, Type 0, BuildingBlock: BEQFEK_clean_sbu_0, # of connection points: 5
#     Node 18, Type 0, BuildingBlock: BEQFEK_clean_sbu_0, # of connection points: 5
#     Node 19, Type 0, BuildingBlock: BEQFEK_clean_sbu_0, # of connection points: 5
#     Node 20, Type 0, BuildingBlock: BEQFEK_clean_sbu_0, # of connection points: 5
#     Node 21, Type 0, BuildingBlock: BEQFEK_clean_sbu_0, # of connection points: 5
#     Node 22, Type 0, BuildingBlock: BEQFEK_clean_sbu_0, # of connection points: 5
#     Node 23, Type 0, BuildingBlock: BEQFEK_clean_sbu_0, # of connection points: 5
#     Edge 24, Type (0, 0), BuildingBlock: AJUNOK_clean_linker_0, # of connection points: 2
#     Edge 25, Type (0, 0), BuildingBlock: AJUNOK_clean_linker_0, # of connection points: 2
#     Edge 26, Type (0, 0), BuildingBlock: AJUNOK_clean_linker_0, # of connection points: 2
#     Edge 27, Type (0, 0), BuildingBlock: AJUNOK_clean_linker_0, # of connection points: 2
#     Edge 28, Type (0, 0), BuildingBlock: AJUNOK_clean_linker_0, # of connection points: 2
#     Edge 29, Type (0, 0), BuildingBlock: AJUNOK_clean_linker_0, # of connection points: 2
#     Edge 30, Type (0, 0), BuildingBlock: AJUNOK_clean_linker_0, # of connection points: 2
#     Edge 31, Type (0, 0), BuildingBlock: AJUNOK_clean_linker_0, # of connection points: 2
#     Edge 32, Type (0, 0), BuildingBlock: AJUNOK_clean_linker_0, # of connection points: 2
#     Edge 33, Type (0, 0), BuildingBlock: AJUNOK_clean_linker_0, # of connection points: 2
#     Edge 34, Type (0, 0), BuildingBlock: AJUNOK_clean_linker_0, # of connection points: 2
#     Edge 35, Type (0, 0), BuildingBlock: AJUNOK_clean_linker_0, # of connection points: 2
#     Edge 36, Type (0, 0), BuildingBlock: AJUNOK_clean_linker_0, # of connection points: 2
#     Edge 37, Type (0, 0), BuildingBlock: AJUNOK_clean_linker_0, # of connection points: 2
#     Edge 38, Type (0, 0), BuildingBlock: AJUNOK_clean_linker_0, # of connection points: 2
#     Edge 39, Type (0, 0), BuildingBlock: AJUNOK_clean_linker_0, # of connection points: 2
#     Edge 40, Type (0, 0), BuildingBlock: AJUNOK_clean_linker_0, # of connection points: 2
#     Edge 41, Type (0, 0), BuildingBlock: AJUNOK_clean_linker_0, # of connection points: 2
#     Edge 42, Type (0, 0), BuildingBlock: AJUNOK_clean_linker_0, # of connection points: 2
#     Edge 43, Type (0, 0), BuildingBlock: AJUNOK_clean_linker_0, # of connection points: 2
#     Edge 44, Type (0, 0), BuildingBlock: AJUNOK_clean_linker_0, # of connection points: 2
#     Edge 45, Type (0, 0), BuildingBlock: AJUNOK_clean_linker_0, # of connection points: 2
#     Edge 46, Type (0, 0), BuildingBlock: AJUNOK_clean_linker_0, # of connection points: 2
#     Edge 47, Type (0, 0), BuildingBlock: AJUNOK_clean_linker_0, # of connection points: 2
#     Edge 48, Type (0, 0), BuildingBlock: AJUNOK_clean_linker_0, # of connection points: 2
#     Edge 49, Type (0, 0), BuildingBlock: AJUNOK_clean_linker_0, # of connection points: 2
#     Edge 50, Type (0, 0), BuildingBlock: AJUNOK_clean_linker_0, # of connection points: 2
#     Edge 51, Type (0, 0), BuildingBlock: AJUNOK_clean_linker_0, # of connection points: 2
#     Edge 52, Type (0, 0), BuildingBlock: AJUNOK_clean_linker_0, # of connection points: 2
#     Edge 53, Type (0, 0), BuildingBlock: AJUNOK_clean_linker_0, # of connection points: 2
#     Edge 54, Type (0, 0), BuildingBlock: AJUNOK_clean_linker_0, # of connection points: 2
#     Edge 55, Type (0, 0), BuildingBlock: AJUNOK_clean_linker_0, # of connection points: 2
#     Edge 56, Type (0, 0), BuildingBlock: AJUNOK_clean_linker_0, # of connection points: 2
#     Edge 57, Type (0, 0), BuildingBlock: AJUNOK_clean_linker_0, # of connection points: 2
#     Edge 58, Type (0, 0), BuildingBlock: AJUNOK_clean_linker_0, # of connection points: 2
#     Edge 59, Type (0, 0), BuildingBlock: AJUNOK_clean_linker_0, # of connection points: 2
#     Edge 60, Type (0, 0), BuildingBlock: AJUNOK_clean_linker_0, # of connection points: 2
#     Edge 61, Type (0, 0), BuildingBlock: AJUNOK_clean_linker_0, # of connection points: 2
#     Edge 62, Type (0, 0), BuildingBlock: AJUNOK_clean_linker_0, # of connection points: 2
#     Edge 63, Type (0, 0), BuildingBlock: AJUNOK_clean_linker_0, # of connection points: 2
#     Edge 64, Type (0, 0), BuildingBlock: AJUNOK_clean_linker_0, # of connection points: 2
#     Edge 65, Type (0, 0), BuildingBlock: AJUNOK_clean_linker_0, # of connection points: 2
#     Edge 66, Type (0, 0), BuildingBlock: AJUNOK_clean_linker_0, # of connection points: 2
#     Edge 67, Type (0, 0), BuildingBlock: AJUNOK_clean_linker_0, # of connection points: 2
#     Edge 68, Type (0, 0), BuildingBlock: AJUNOK_clean_linker_0, # of connection points: 2
#     Edge 69, Type (0, 0), BuildingBlock: AJUNOK_clean_linker_0, # of connection points: 2
#     Edge 70, Type (0, 0), BuildingBlock: AJUNOK_clean_linker_0, # of connection points: 2
#     Edge 71, Type (0, 0), BuildingBlock: AJUNOK_clean_linker_0, # of connection points: 2
#     Edge 72, Type (0, 0), BuildingBlock: AJUNOK_clean_linker_0, # of connection points: 2
#     Edge 73, Type (0, 0), BuildingBlock: AJUNOK_clean_linker_0, # of connection points: 2
#     Edge 74, Type (0, 0), BuildingBlock: AJUNOK_clean_linker_0, # of connection points: 2
#     Edge 75, Type (0, 0), BuildingBlock: AJUNOK_clean_linker_0, # of connection points: 2
#     Edge 76, Type (0, 0), BuildingBlock: AJUNOK_clean_linker_0, # of connection points: 2
#     Edge 77, Type (0, 0), BuildingBlock: AJUNOK_clean_linker_0, # of connection points: 2
#     Edge 78, Type (0, 0), BuildingBlock: AJUNOK_clean_linker_0, # of connection points: 2
#     Edge 79, Type (0, 0), BuildingBlock: AJUNOK_clean_linker_0, # of connection points: 2
#     Edge 80, Type (0, 0), BuildingBlock: AJUNOK_clean_linker_0, # of connection points: 2
#     Edge 81, Type (0, 0), BuildingBlock: AJUNOK_clean_linker_0, # of connection points: 2
#     Edge 82, Type (0, 0), BuildingBlock: AJUNOK_clean_linker_0, # of connection points: 2
#     Edge 83, Type (0, 0), BuildingBlock: AJUNOK_clean_linker_0, # of connection points: 2
# Relax obj value: 0.902
# Max RMSD: 0.349
# Mean RMSD: 0.317
data_MOF--net-fci--node1-BEQFEK_clean_sbu_0--edge1-AJUNOK_clean_linker_0
_symmetry_space_group_name_H-M    P1
_symmetry_Int_Tables_number       1
_symmetry_cell_setting            triclinic
loop_
_symmetry_equiv_pos_as_xyz
'x, y, z'
_cell_length_a     42.669684
_cell_length_b     42.659992
_cell_length_c     42.676678
_cell_angle_alpha  89.307554
_cell_angle_beta   89.278726
_cell_angle_gamma 89.261594
loop_
_atom_site_label
_atom_site_type_symbol
_atom_site_fract_x
_atom_site_fract_y
_atom_site_fract_z
_atom_type_partial_charge
Co0 Co 0.16204 0.19898 0.5839 0.0
Co1 Co 0.21589 0.16726 0.54419 0.0
C2 C 0.18416 0.13451 0.59875 0.0
O3 O 0.16785 0.15878 0.60424 0.0
O4 O 0.20294 0.13329 0.57536 0.0
C5 C 0.1118 0.20642 0.62707 0.0
O6 O 0.10878 0.17631 0.622 0.0
C7 C 0.28268 0.15664 0.54431 0.0
C8 C 0.29457 0.15102 0.49443 0.0
C9 C 0.30804 0.15636 0.52343 0.0
N10 N 0.25599 0.15394 0.52816 0.0
N11 N 0.26329 0.14913 0.49848 0.0
C12 C 0.28323 0.1635 0.57867 0.0
H13 H 0.25916 0.1645 0.58874 0.0
H14 H 0.29526 0.18588 0.58293 0.0
H15 H 0.2965 0.14461 0.59095 0.0
C16 C 0.20965 0.24742 0.59184 0.0
N17 N 0.20041 0.21943 0.58137 0.0
N18 N 0.22174 0.20801 0.562 0.0
C19 C 0.24425 0.22968 0.55774 0.0
C20 C 0.23792 0.25472 0.57732 0.0
C21 C 0.19141 0.26669 0.61496 0.0
H22 H 0.18075 0.25121 0.63313 0.0
H23 H 0.20651 0.28408 0.62638 0.0
H24 H 0.17218 0.27928 0.60262 0.0
O25 O 0.14551 0.19468 0.54081 0.0
O26 O 0.18355 0.17339 0.51098 0.0
H27 H 0.26997 0.25406 0.52146 0.0
H28 H 0.29085 0.22244 0.53956 0.0
C29 C 0.26751 0.22992 0.53112 0.0
H30 H 0.26003 0.21427 0.51217 0.0
H31 H 0.24692 0.14763 0.4806 0.0
O32 O 0.13206 0.22185 0.61134 0.0
C33 C 0.15601 0.18517 0.51436 0.0
Co34 Co 0.5321 0.40349 0.31995 0.0
Co35 Co 0.55729 0.4582 0.27779 0.0
C36 C 0.59324 0.43196 0.33296 0.0
O37 O 0.57132 0.41321 0.33935 0.0
O38 O 0.59227 0.44978 0.30885 0.0
C39 C 0.52949 0.35334 0.3627 0.0
O40 O 0.55937 0.35154 0.35511 0.0
C41 C 0.56265 0.52491 0.27966 0.0
C42 C 0.5647 0.53972 0.23015 0.0
C43 C 0.56077 0.55129 0.26035 0.0
N44 N 0.56599 0.49928 0.26179 0.0
N45 N 0.56843 0.50833 0.23221 0.0
C46 C 0.55635 0.52347 0.3143 0.0
H47 H 0.55655 0.49897 0.32317 0.0
H48 H 0.53342 0.53473 0.31998 0.0
H49 H 0.57478 0.53647 0.3266 0.0
C50 C 0.47891 0.44612 0.32871 0.0
N51 N 0.50771 0.4396 0.31738 0.0
N52 N 0.5161 0.4612 0.29687 0.0
C53 C 0.49172 0.48139 0.29308 0.0
C54 C 0.46759 0.47271 0.31338 0.0
C55 C 0.46339 0.42763 0.35446 0.0
H56 H 0.45307 0.40624 0.34452 0.0
H57 H 0.48105 0.42015 0.37198 0.0
H58 H 0.44468 0.44153 0.36635 0.0
O59 O 0.53623 0.38701 0.2771 0.0
O60 O 0.55434 0.42458 0.24498 0.0
H61 H 0.46503 0.5077 0.25906 0.0
H62 H 0.49563 0.52893 0.27713 0.0
C63 C 0.48943 0.50579 0.26767 0.0
H64 H 0.50531 0.49993 0.24781 0.0
H65 H 0.5698 0.493 0.2133 0.0
O66 O 0.51193 0.37268 0.34813 0.0
C67 C 0.54396 0.39684 0.24974 0.0
Co68 Co 0.33874 0.79898 0.0868 0.0
Co69 Co 0.28412 0.82684 0.04624 0.0
C70 C 0.31431 0.86261 0.09889 0.0
O71 O 0.3316 0.83925 0.10541 0.0
O72 O 0.29567 0.8623 0.07575 0.0
C73 C 0.38735 0.79179 0.13091 0.0
O74 O 0.38934 0.82233 0.12727 0.0
C75 C 0.21765 0.83541 0.05091 0.0
C76 C 0.20153 0.83014 0.00254 0.0
C77 C 0.19086 0.83039 0.03348 0.0
N78 N 0.2427 0.83642 0.03151 0.0
N79 N 0.2328 0.83447 0.00242 0.0
C80 C 0.22003 0.83728 0.08584 0.0
H81 H 0.23637 0.85616 0.09204 0.0
H82 H 0.22976 0.81498 0.0954 0.0
H83 H 0.19678 0.84212 0.09684 0.0
C84 C 0.2939 0.74856 0.09779 0.0
N85 N 0.30147 0.77703 0.08637 0.0
N86 N 0.28055 0.78639 0.06591 0.0
C87 C 0.26035 0.7628 0.06161 0.0
C88 C 0.26753 0.73847 0.08226 0.0
C89 C 0.31159 0.73192 0.12324 0.0
H90 H 0.31992 0.74912 0.14046 0.0
H91 H 0.29675 0.71433 0.13548 0.0
H92 H 0.33244 0.71993 0.1129 0.0
O93 O 0.35494 0.80261 0.04309 0.0
O94 O 0.3165 0.82117 0.01247 0.0
H95 H 0.23811 0.73557 0.02619 0.0
H96 H 0.21555 0.76814 0.04013 0.0
C97 C 0.2395 0.76029 0.03384 0.0
H98 H 0.24854 0.77479 0.01409 0.0
H99 H 0.24758 0.8328 0.98283 0.0
O100 O 0.36877 0.77666 0.11386 0.0
C101 C 0.34446 0.81071 0.01624 0.0
Co102 Co 0.9598 0.60286 0.81492 0.0
Co103 Co 0.94305 0.54393 0.77486 0.0
C104 C 0.89941 0.57078 0.82461 0.0
O105 O 0.91902 0.5915 0.83148 0.0
O106 O 0.9046 0.55172 0.80238 0.0
C107 C 0.95912 0.64986 0.86192 0.0
O108 O 0.92872 0.64568 0.86117 0.0
C109 C 0.93639 0.47763 0.78338 0.0
C110 C 0.95433 0.45768 0.73929 0.0
C111 C 0.94677 0.44969 0.77014 0.0
N112 N 0.93941 0.50101 0.76211 0.0
N113 N 0.94901 0.48873 0.73534 0.0
C114 C 0.9238 0.48245 0.81592 0.0
H115 H 0.9391 0.49871 0.82865 0.0
H116 H 0.92148 0.45995 0.82901 0.0
H117 H 0.90019 0.49348 0.81457 0.0
C118 C 0.01357 0.56345 0.83198 0.0
N119 N 0.98632 0.56816 0.8171 0.0
N120 N 0.98166 0.54511 0.79763 0.0
C121 C 0.00719 0.52605 0.79801 0.0
C122 C 0.02772 0.53656 0.82038 0.0
C123 C 0.02647 0.58514 0.85579 0.0
H124 H 0.03249 0.60769 0.84412 0.0
H125 H 0.00836 0.59003 0.87404 0.0
H126 H 0.04788 0.57529 0.86688 0.0
O127 O 0.95939 0.61653 0.77055 0.0
O128 O 0.94733 0.57618 0.74006 0.0
H129 H 0.00427 0.50788 0.7516 0.0
H130 H 0.03961 0.49687 0.77167 0.0
C131 C 0.01407 0.50099 0.77461 0.0
H132 H 0.00365 0.47874 0.78251 0.0
H133 H 0.9549 0.50186 0.71537 0.0
O134 O 0.97664 0.63566 0.84226 0.0
C135 C 0.95518 0.60483 0.74354 0.0
Co136 Co 0.65287 0.30289 0.4109 0.0
Co137 Co 0.70767 0.32704 0.45297 0.0
C138 C 0.6699 0.36997 0.41088 0.0
O139 O 0.65322 0.34726 0.40274 0.0
O140 O 0.69212 0.36648 0.43037 0.0
C141 C 0.61637 0.29708 0.35628 0.0
O142 O 0.62667 0.32554 0.35087 0.0
C143 C 0.77393 0.34033 0.45105 0.0
C144 C 0.78932 0.32635 0.49822 0.0
C145 C 0.80084 0.33325 0.46828 0.0
N146 N 0.74841 0.33597 0.46941 0.0
N147 N 0.75782 0.32885 0.49797 0.0
C148 C 0.77179 0.34984 0.41724 0.0
H149 H 0.76709 0.32901 0.40282 0.0
H150 H 0.79377 0.36106 0.40899 0.0
H151 H 0.75193 0.36653 0.41399 0.0
C152 C 0.70162 0.26059 0.38804 0.0
N153 N 0.69252 0.28574 0.4047 0.0
N154 N 0.7143 0.29262 0.42495 0.0
C155 C 0.73727 0.27064 0.42292 0.0
C156 C 0.73028 0.25046 0.39903 0.0
C157 C 0.68225 0.24529 0.36371 0.0
H158 H 0.66209 0.23352 0.37527 0.0
H159 H 0.67308 0.26336 0.34721 0.0
H160 H 0.6961 0.22768 0.35031 0.0
O161 O 0.64069 0.29339 0.45421 0.0
O162 O 0.67694 0.31181 0.48624 0.0
H163 H 0.7663 0.2389 0.44985 0.0
H164 H 0.78381 0.27537 0.43966 0.0
C165 C 0.76162 0.26445 0.44721 0.0
H166 H 0.75387 0.27374 0.47015 0.0
H167 H 0.7428 0.32255 0.51644 0.0
O168 O 0.62356 0.28328 0.38179 0.0
C169 C 0.65132 0.29732 0.48162 0.0
Co170 Co 0.45473 0.90062 0.17841 0.0
Co171 Co 0.43258 0.95697 0.22066 0.0
C172 C 0.39032 0.92742 0.17342 0.0
O173 O 0.41194 0.90854 0.16549 0.0
O174 O 0.39415 0.94711 0.19513 0.0
C175 C 0.46534 0.87775 0.11946 0.0
O176 O 0.4486 0.9033 0.11422 0.0
C177 C 0.42053 0.02308 0.21623 0.0
C178 C 0.43617 0.04114 0.26134 0.0
C179 C 0.42884 0.05069 0.23096 0.0
N180 N 0.42481 0.99869 0.23607 0.0
N181 N 0.43278 0.00977 0.26356 0.0
C182 C 0.41081 0.01931 0.18288 0.0
H183 H 0.42945 0.00656 0.16967 0.0
H184 H 0.40569 0.04228 0.17145 0.0
H185 H 0.3893 0.00508 0.18224 0.0
C186 C 0.50793 0.94145 0.16556 0.0
N187 N 0.47884 0.9368 0.1772 0.0
N188 N 0.47129 0.95946 0.19666 0.0
C189 C 0.49615 0.97873 0.19869 0.0
C190 C 0.51974 0.96814 0.17876 0.0
C191 C 0.52594 0.91854 0.14576 0.0
H192 H 0.52433 0.89472 0.15626 0.0
H193 H 0.51575 0.91825 0.122 0.0
H194 H 0.55104 0.92478 0.14356 0.0
O195 O 0.45644 0.88485 0.22188 0.0
O196 O 0.44034 0.92332 0.25379 0.0
H197 H 0.4906 0.99682 0.24499 0.0
H198 H 0.52306 0.01346 0.22327 0.0
C199 C 0.49884 0.00477 0.22154 0.0
H200 H 0.48435 0.02466 0.21354 0.0
H201 H 0.43923 0.9958 0.28271 0.0
O202 O 0.47167 0.87028 0.14764 0.0
C203 C 0.451 0.89542 0.24935 0.0
Co204 Co 0.83636 0.69145 0.90876 0.0
Co205 Co 0.78531 0.66272 0.9537 0.0
C206 C 0.81927 0.62446 0.90499 0.0
O207 O 0.83508 0.64819 0.89739 0.0
O208 O 0.79865 0.62554 0.9268 0.0
C209 C 0.87311 0.6992 0.85326 0.0
O210 O 0.86484 0.6701 0.84867 0.0
C211 C 0.71888 0.65134 0.95906 0.0
C212 C 0.71042 0.65103 0.00998 0.0
C213 C 0.6949 0.65264 0.98147 0.0
N214 N 0.74668 0.65075 0.97361 0.0
N215 N 0.74147 0.64914 0.00411 0.0
C216 C 0.71575 0.6552 0.92427 0.0
H217 H 0.70181 0.67657 0.91847 0.0
H218 H 0.70328 0.63475 0.91491 0.0
H219 H 0.73905 0.65623 0.91256 0.0
C220 C 0.78712 0.73676 0.89518 0.0
N221 N 0.79647 0.70933 0.90795 0.0
N222 N 0.77657 0.70068 0.93007 0.0
C223 C 0.75476 0.72374 0.93338 0.0
C224 C 0.76053 0.74704 0.91116 0.0
C225 C 0.80413 0.75301 0.86887 0.0
H226 H 0.82516 0.76461 0.87814 0.0
H227 H 0.81212 0.73556 0.85134 0.0
H228 H 0.78894 0.77084 0.85724 0.0
O229 O 0.85215 0.69674 0.95136 0.0
O230 O 0.81833 0.67447 0.98489 0.0
H231 H 0.7405 0.71188 0.98068 0.0
H232 H 0.73118 0.75151 0.96847 0.0
C233 C 0.7327 0.72676 0.96076 0.0
H234 H 0.70892 0.71995 0.95358 0.0
H235 H 0.75902 0.64991 0.02091 0.0
O236 O 0.86405 0.71291 0.87813 0.0
C237 C 0.84351 0.68968 0.97926 0.0
Co238 Co 0.03836 0.09288 0.67636 0.0
Co239 Co 0.06096 0.03675 0.71912 0.0
C240 C 0.10385 0.06814 0.6724 0.0
O241 O 0.08217 0.08696 0.66449 0.0
O242 O 0.09962 0.04744 0.69362 0.0
C243 C 0.03045 0.11878 0.61772 0.0
O244 O 0.05006 0.09538 0.6126 0.0
C245 C 0.06959 0.97014 0.71611 0.0
C246 C 0.06568 0.95411 0.76511 0.0
C247 C 0.06604 0.9432 0.73444 0.0
N248 N 0.06973 0.99532 0.73482 0.0
N249 N 0.06875 0.98552 0.76423 0.0
C250 C 0.06768 0.9726 0.68108 0.0
H251 H 0.06744 0.99738 0.67305 0.0
H252 H 0.04651 0.96066 0.67261 0.0
H253 H 0.08855 0.96098 0.67044 0.0
C254 C 0.98862 0.04872 0.66097 0.0
N255 N 0.01597 0.05558 0.67463 0.0
N256 N 0.02311 0.03356 0.69525 0.0
C257 C 0.99953 0.01272 0.69637 0.0
C258 C 0.97748 0.0212 0.67423 0.0
C259 C 0.97324 0.06848 0.63617 0.0
H260 H 0.96841 0.09229 0.64536 0.0
H261 H 0.98932 0.07056 0.6157 0.0
H262 H 0.95107 0.05827 0.62807 0.0
O263 O 0.03462 0.10767 0.71995 0.0
O264 O 0.052 0.06945 0.75198 0.0
H265 H 0.00817 0.99415 0.74267 0.0
H266 H 0.96984 0.98598 0.7275 0.0
C267 C 0.99508 0.98824 0.72135 0.0
H268 H 0.00321 0.96532 0.71235 0.0
H269 H 0.06707 0.00034 0.78351 0.0
O270 O 0.02098 0.1235 0.64566 0.0
C271 C 0.04011 0.09688 0.74744 0.0
Co272 Co 0.5797 0.15164 0.19123 0.0
Co273 Co 0.53879 0.20777 0.16427 0.0
C274 C 0.58605 0.17359 0.12474 0.0
O275 O 0.59136 0.15535 0.14759 0.0
O276 O 0.56639 0.19615 0.12694 0.0
C277 C 0.63799 0.12212 0.19689 0.0
O278 O 0.64342 0.14254 0.17431 0.0
C279 C 0.53753 0.27536 0.15781 0.0
C280 C 0.48718 0.28644 0.15558 0.0
C281 C 0.51616 0.30023 0.16029 0.0
N282 N 0.52172 0.24851 0.15435 0.0
N283 N 0.49169 0.25546 0.15158 0.0
C284 C 0.57233 0.27629 0.16214 0.0
H285 H 0.58292 0.25248 0.16056 0.0
H286 H 0.57807 0.28679 0.18498 0.0
H287 H 0.58289 0.29112 0.14339 0.0
C288 C 0.59384 0.19812 0.23893 0.0
N289 N 0.58126 0.19034 0.21136 0.0
N290 N 0.56072 0.21197 0.20289 0.0
C291 C 0.55789 0.23304 0.22616 0.0
C292 C 0.57934 0.22548 0.24915 0.0
C293 C 0.61874 0.17929 0.2552 0.0
H294 H 0.63739 0.17274 0.23811 0.0
H295 H 0.62938 0.19254 0.27448 0.0
H296 H 0.60841 0.15739 0.2648 0.0
O297 O 0.53598 0.13681 0.19412 0.0
O298 O 0.50599 0.17515 0.17329 0.0
H299 H 0.52273 0.25555 0.25492 0.0
H300 H 0.53885 0.27983 0.22473 0.0
C301 C 0.53102 0.2557 0.23015 0.0
H302 H 0.5112 0.24951 0.21502 0.0
H303 H 0.47404 0.23884 0.14997 0.0
O304 O 0.61084 0.12156 0.20967 0.0
C305 C 0.50926 0.14808 0.1863 0.0
Co306 Co 0.59483 0.81238 0.94632 0.0
Co307 Co 0.53663 0.77056 0.9315 0.0
C308 C 0.56614 0.8137 0.88338 0.0
O309 O 0.58675 0.82166 0.90264 0.0
O310 O 0.54511 0.79402 0.89079 0.0
C311 C 0.62346 0.87018 0.94875 0.0
O312 O 0.60151 0.87551 0.92801 0.0
C313 C 0.47032 0.77837 0.92635 0.0
C314 C 0.45102 0.73353 0.94297 0.0
C315 C 0.44262 0.76451 0.93637 0.0
N316 N 0.49393 0.75724 0.9284 0.0
N317 N 0.48206 0.73004 0.93723 0.0
C318 C 0.47487 0.81197 0.91686 0.0
H319 H 0.48797 0.82429 0.93519 0.0
H320 H 0.45211 0.82415 0.91286 0.0
H321 H 0.48891 0.81315 0.89488 0.0
C322 C 0.55309 0.83395 0.99734 0.0
N323 N 0.55867 0.81768 0.97093 0.0
N324 N 0.53653 0.79687 0.96756 0.0
C325 C 0.51737 0.79789 0.99297 0.0
C326 C 0.52678 0.82186 0.01196 0.0
C327 C 0.57384 0.85877 0.00984 0.0
H328 H 0.5978 0.84902 0.01311 0.0
H329 H 0.5751 0.87849 0.99273 0.0
H330 H 0.56493 0.8678 0.0326 0.0
O331 O 0.60854 0.76838 0.95218 0.0
O332 O 0.56917 0.7367 0.93986 0.0
H333 H 0.50132 0.75042 0.99178 0.0
H334 H 0.49285 0.77044 0.02795 0.0
C335 C 0.49432 0.77319 0.00209 0.0
H336 H 0.47078 0.78012 0.99397 0.0
H337 H 0.49547 0.71004 0.94237 0.0
O338 O 0.62673 0.84257 0.95993 0.0
C339 C 0.5972 0.74098 0.94932 0.0
Co340 Co 0.90979 0.84499 0.68808 0.0
Co341 Co 0.95531 0.79386 0.66041 0.0
C342 C 0.90361 0.82431 0.62269 0.0
O343 O 0.89565 0.84089 0.64585 0.0
O344 O 0.92683 0.80528 0.62394 0.0
C345 C 0.86159 0.89098 0.69438 0.0
O346 O 0.86592 0.89432 0.66402 0.0
C347 C 0.96037 0.72694 0.65216 0.0
C348 C 0.01125 0.71857 0.64964 0.0
C349 C 0.98293 0.70308 0.65394 0.0
N350 N 0.97482 0.75472 0.64937 0.0
N351 N 0.00522 0.74949 0.64645 0.0
C352 C 0.92561 0.72401 0.65663 0.0
H353 H 0.91382 0.74731 0.65551 0.0
H354 H 0.92001 0.71229 0.6793 0.0
H355 H 0.91618 0.70944 0.63767 0.0
C356 C 0.89774 0.79673 0.73489 0.0
N357 N 0.91055 0.80598 0.70749 0.0
N358 N 0.93291 0.78621 0.69908 0.0
C359 C 0.93645 0.7647 0.72231 0.0
C360 C 0.91395 0.77039 0.74529 0.0
C361 C 0.87084 0.81327 0.7507 0.0
H362 H 0.87966 0.83405 0.76307 0.0
H363 H 0.85377 0.82155 0.73292 0.0
H364 H 0.85881 0.79766 0.76787 0.0
O365 O 0.95223 0.86163 0.69133 0.0
O366 O 0.98645 0.82747 0.67056 0.0
H367 H 0.97192 0.74248 0.75056 0.0
H368 H 0.9574 0.71884 0.71993 0.0
C369 C 0.96414 0.74303 0.72582 0.0
H370 H 0.98392 0.75064 0.71063 0.0
H371 H 0.022 0.76708 0.6453 0.0
O372 O 0.8794 0.87254 0.70979 0.0
C373 C 0.9803 0.85317 0.68474 0.0
Co374 Co 0.9026 0.18369 0.44444 0.0
Co375 Co 0.96429 0.2197 0.42529 0.0
C376 C 0.93397 0.17326 0.38246 0.0
O377 O 0.91239 0.16858 0.40247 0.0
O378 O 0.95576 0.1926 0.38747 0.0
C379 C 0.87642 0.12686 0.45605 0.0
O380 O 0.90217 0.12031 0.44012 0.0
C381 C 0.03098 0.20936 0.42235 0.0
C382 C 0.05087 0.25558 0.43168 0.0
C383 C 0.05883 0.2239 0.43008 0.0
N384 N 0.00776 0.23101 0.42105 0.0
N385 N 0.02003 0.25885 0.42549 0.0
C386 C 0.02582 0.17501 0.41805 0.0
H387 H 0.01346 0.16517 0.43888 0.0
H388 H 0.04834 0.16219 0.41434 0.0
H389 H 0.01077 0.17139 0.39748 0.0
C390 C 0.94057 0.16734 0.5001 0.0
N391 N 0.93708 0.18025 0.47127 0.0
N392 N 0.96142 0.19789 0.46471 0.0
C393 C 0.98015 0.198 0.48998 0.0
C394 C 0.96802 0.17809 0.51259 0.0
C395 C 0.91779 0.14595 0.51618 0.0
H396 H 0.89373 0.15587 0.51457 0.0
H397 H 0.91865 0.12281 0.50466 0.0
H398 H 0.92352 0.14238 0.54126 0.0
O399 O 0.89026 0.2287 0.4426 0.0
O400 O 0.93323 0.25571 0.4287 0.0
H401 H 0.00105 0.24305 0.48245 0.0
H402 H 0.00719 0.22621 0.52087 0.0
C403 C 0.00561 0.22093 0.49553 0.0
H404 H 0.02834 0.21071 0.48823 0.0
H405 H 0.00696 0.2796 0.42727 0.0
O406 O 0.86942 0.15552 0.46084 0.0
C407 C 0.90415 0.25453 0.43659 0.0
Co408 Co 0.08885 0.33278 0.80503 0.0
Co409 Co 0.04389 0.28218 0.83346 0.0
C410 C 0.0951 0.31191 0.87109 0.0
O411 O 0.10259 0.32855 0.84761 0.0
O412 O 0.07264 0.29253 0.86995 0.0
C413 C 0.14767 0.3569 0.7922 0.0
O414 O 0.15408 0.3377 0.8156 0.0
C415 C 0.0375 0.21532 0.84044 0.0
C416 C 0.98649 0.20938 0.8443 0.0
C417 C 0.0143 0.19279 0.83878 0.0
N418 N 0.02388 0.24362 0.84454 0.0
N419 N 0.99344 0.23977 0.84825 0.0
C420 C 0.07188 0.21084 0.83403 0.0
H421 H 0.08443 0.23335 0.83567 0.0
H422 H 0.07588 0.20055 0.81055 0.0
H423 H 0.08178 0.19427 0.85163 0.0
C424 C 0.09818 0.28621 0.75656 0.0
N425 N 0.08723 0.2942 0.78508 0.0
N426 N 0.06463 0.27522 0.79369 0.0
C427 C 0.05895 0.25583 0.76957 0.0
C428 C 0.08024 0.26202 0.7455 0.0
C429 C 0.12523 0.30167 0.74022 0.0
H430 H 0.14453 0.30469 0.75697 0.0
H431 H 0.13425 0.28751 0.72034 0.0
H432 H 0.11773 0.32509 0.73136 0.0
O433 O 0.04657 0.35215 0.80463 0.0
O434 O 0.01321 0.31744 0.82569 0.0
H435 H 0.02113 0.2377 0.7426 0.0
H436 H 0.03673 0.21119 0.77125 0.0
C437 C 0.03038 0.23608 0.76677 0.0
H438 H 0.01182 0.24368 0.7835 0.0
H439 H 0.97716 0.25813 0.85032 0.0
O440 O 0.11953 0.3596 0.78309 0.0
C441 C 0.01898 0.34413 0.81304 0.0
Co442 Co 0.40865 0.31513 0.5481 0.0
Co443 Co 0.46546 0.27252 0.56906 0.0
C444 C 0.43757 0.32173 0.61081 0.0
O445 O 0.41697 0.32784 0.59055 0.0
O446 O 0.45854 0.3008 0.60627 0.0
C447 C 0.37557 0.37243 0.54309 0.0
O448 O 0.3955 0.37923 0.56509 0.0
C449 C 0.53266 0.27184 0.57216 0.0
C450 C 0.54535 0.22173 0.57129 0.0
C451 C 0.55815 0.25152 0.56844 0.0
N452 N 0.50638 0.25496 0.57529 0.0
N453 N 0.5142 0.22494 0.57602 0.0
C454 C 0.53251 0.30685 0.56835 0.0
H455 H 0.50839 0.31665 0.57004 0.0
H456 H 0.54327 0.31372 0.54552 0.0
H457 H 0.54658 0.31721 0.58718 0.0
C458 C 0.45103 0.32955 0.49546 0.0
N459 N 0.44532 0.31632 0.52368 0.0
N460 N 0.46732 0.29539 0.52996 0.0
C461 C 0.48684 0.29333 0.50487 0.0
C462 C 0.4776 0.31543 0.48259 0.0
C463 C 0.43075 0.35451 0.48094 0.0
H464 H 0.42435 0.37222 0.49876 0.0
H465 H 0.44281 0.36645 0.46106 0.0
H466 H 0.40887 0.34383 0.47253 0.0
O467 O 0.39367 0.27176 0.5466 0.0
O468 O 0.43186 0.23995 0.56408 0.0
H469 H 0.51056 0.26063 0.47428 0.0
H470 H 0.53357 0.27421 0.50594 0.0
C471 C 0.50973 0.26694 0.49944 0.0
H472 H 0.5031 0.24602 0.51354 0.0
H473 H 0.49812 0.20671 0.577 0.0
O474 O 0.37669 0.34518 0.53124 0.0
C475 C 0.40437 0.24437 0.55299 0.0
Co476 Co 0.40681 0.65821 0.30767 0.0
Co477 Co 0.45353 0.70777 0.33344 0.0
C478 C 0.40435 0.67716 0.37413 0.0
O479 O 0.39557 0.66137 0.3511 0.0
O480 O 0.42703 0.69617 0.37173 0.0
C481 C 0.35071 0.6234 0.30189 0.0
O482 O 0.34593 0.63272 0.33078 0.0
C483 C 0.45862 0.77451 0.34223 0.0
C484 C 0.50949 0.78198 0.34138 0.0
C485 C 0.48089 0.79801 0.33961 0.0
N486 N 0.47334 0.74643 0.3437 0.0
N487 N 0.5038 0.75111 0.3446 0.0
C488 C 0.42385 0.7782 0.33872 0.0
H489 H 0.41218 0.75514 0.33948 0.0
H490 H 0.41827 0.79078 0.31653 0.0
H491 H 0.41426 0.79227 0.35837 0.0
C492 C 0.39506 0.70629 0.26089 0.0
N493 N 0.40696 0.6975 0.28867 0.0
N494 N 0.42981 0.71628 0.29612 0.0
C495 C 0.43439 0.73666 0.27206 0.0
C496 C 0.41232 0.73123 0.24927 0.0
C497 C 0.36877 0.68986 0.24532 0.0
H498 H 0.37778 0.66779 0.23483 0.0
H499 H 0.35052 0.68366 0.263 0.0
H500 H 0.35812 0.70476 0.22669 0.0
O501 O 0.44915 0.6406 0.3016 0.0
O502 O 0.48417 0.67337 0.32113 0.0
H503 H 0.48219 0.74796 0.28267 0.0
H504 H 0.47082 0.75642 0.24287 0.0
C505 C 0.4628 0.75653 0.26772 0.0
H506 H 0.45665 0.78107 0.27361 0.0
H507 H 0.52072 0.73322 0.34422 0.0
O508 O 0.37581 0.63115 0.28758 0.0
C509 C 0.47743 0.64814 0.30682 0.0
Co510 Co 0.08382 0.67641 0.04479 0.0
Co511 Co 0.02658 0.71848 0.06679 0.0
C512 C 0.0535 0.6665 0.1071 0.0
O513 O 0.07326 0.65944 0.08595 0.0
O514 O 0.03443 0.68939 0.10366 0.0
C515 C 0.10923 0.61805 0.03193 0.0
O516 O 0.08437 0.61122 0.04899 0.0
C517 C 0.95968 0.71593 0.07115 0.0
C518 C 0.94423 0.76531 0.07019 0.0
C519 C 0.93315 0.73486 0.06788 0.0
N520 N 0.98492 0.73419 0.07409 0.0
N521 N 0.97543 0.76374 0.07479 0.0
C522 C 0.96193 0.68127 0.06588 0.0
H523 H 0.98662 0.67294 0.06597 0.0
H524 H 0.95096 0.67518 0.04334 0.0
H525 H 0.94918 0.66879 0.08496 0.0
C526 C 0.04373 0.66852 0.98951 0.0
N527 N 0.04866 0.67893 0.01874 0.0
N528 N 0.02634 0.69905 0.02642 0.0
C529 C 0.0075 0.70336 0.00149 0.0
C530 C 0.01754 0.68386 0.97761 0.0
C531 C 0.06319 0.64367 0.97381 0.0
H532 H 0.0876 0.65189 0.97077 0.0
H533 H 0.06346 0.62235 0.98884 0.0
H534 H 0.05374 0.6371 0.95078 0.0
O535 O 0.10022 0.71964 0.04971 0.0
O536 O 0.06002 0.7509 0.06426 0.0
H537 H 0.98843 0.74855 0.01397 0.0
H538 H 0.98224 0.7376 0.97384 0.0
C539 C 0.98322 0.72877 0.9984 0.0
H540 H 0.95996 0.71908 0.00439 0.0
H541 H 0.99046 0.78283 0.07535 0.0
O542 O 0.11544 0.64675 0.02661 0.0
C543 C 0.08893 0.7466 0.05689 0.0
Co544 Co 0.18485 0.58163 0.16155 0.0
Co545 Co 0.15759 0.54134 0.21752 0.0
C546 C 0.12088 0.5938 0.18555 0.0
O547 O 0.14395 0.60039 0.16787 0.0
O548 O 0.12202 0.57098 0.20508 0.0
C549 C 0.19478 0.62906 0.11468 0.0
O550 O 0.16402 0.63084 0.11482 0.0
C551 C 0.14963 0.54226 0.28488 0.0
C552 C 0.14679 0.49227 0.29752 0.0
C553 C 0.15091 0.52174 0.31047 0.0
N554 N 0.14668 0.52561 0.25849 0.0
N555 N 0.14359 0.49581 0.26632 0.0
C556 C 0.15553 0.57684 0.28487 0.0
H557 H 0.17739 0.58204 0.2975 0.0
H558 H 0.13589 0.58887 0.29725 0.0
H559 H 0.15683 0.58644 0.26064 0.0
C560 C 0.23426 0.59311 0.20629 0.0
N561 N 0.20651 0.5808 0.19899 0.0
N562 N 0.19766 0.56095 0.22104 0.0
C563 C 0.22091 0.55836 0.24215 0.0
C564 C 0.24443 0.57904 0.23379 0.0
C565 C 0.25003 0.61849 0.18762 0.0
H566 H 0.23226 0.63555 0.17885 0.0
H567 H 0.26732 0.63106 0.20186 0.0
H568 H 0.26227 0.60797 0.16712 0.0
O569 O 0.18139 0.53817 0.14631 0.0
O570 O 0.16341 0.50769 0.18548 0.0
H571 H 0.20766 0.5136 0.26192 0.0
H572 H 0.24792 0.52425 0.26802 0.0
C573 C 0.22344 0.5333 0.26687 0.0
H574 H 0.21766 0.54334 0.29005 0.0
H575 H 0.14241 0.47763 0.25023 0.0
O576 O 0.20827 0.60802 0.13116 0.0
C577 C 0.17347 0.51142 0.15733 0.0
Co578 Co 0.68635 0.90948 0.83383 0.0
Co579 Co 0.65672 0.95164 0.78082 0.0
C580 C 0.6237 0.89562 0.80895 0.0
O581 O 0.6469 0.88999 0.82631 0.0
O582 O 0.62294 0.91945 0.79067 0.0
C583 C 0.69431 0.86182 0.88023 0.0
O584 O 0.66357 0.86348 0.88162 0.0
C585 C 0.64866 0.95587 0.71379 0.0
C586 C 0.64374 0.00659 0.70509 0.0
C587 C 0.64882 0.97829 0.68979 0.0
N588 N 0.64528 0.97039 0.74147 0.0
N589 N 0.64098 0.00063 0.73606 0.0
C590 C 0.65628 0.92158 0.71105 0.0
H591 H 0.67816 0.91791 0.69718 0.0
H592 H 0.63702 0.90992 0.69869 0.0
H593 H 0.65854 0.91033 0.73446 0.0
C594 C 0.73693 0.90279 0.78735 0.0
N595 N 0.70828 0.91317 0.79599 0.0
N596 N 0.69787 0.9336 0.77517 0.0
C597 C 0.72084 0.93867 0.75372 0.0
C598 C 0.74585 0.91861 0.76018 0.0
C599 C 0.75523 0.8784 0.80511 0.0
H600 H 0.76654 0.88949 0.82538 0.0
H601 H 0.73925 0.86001 0.8142 0.0
H602 H 0.77356 0.86731 0.7901 0.0
O603 O 0.68126 0.95175 0.85202 0.0
O604 O 0.66125 0.98329 0.81487 0.0
H605 H 0.70603 0.9853 0.74005 0.0
H606 H 0.74608 0.97534 0.72965 0.0
C607 C 0.72186 0.96628 0.73172 0.0
H608 H 0.71478 0.95907 0.70808 0.0
H609 H 0.63921 0.01748 0.75355 0.0
O610 O 0.70916 0.88096 0.86266 0.0
C611 C 0.67208 0.97875 0.8424 0.0
Co612 Co 0.81292 0.9575 0.5927 0.0
Co613 Co 0.77378 0.94006 0.53313 0.0
C614 C 0.81927 0.89493 0.56333 0.0
O615 O 0.82491 0.9145 0.58442 0.0
O616 O 0.8 0.90116 0.54164 0.0
C617 C 0.86997 0.96074 0.62306 0.0
O618 O 0.87656 0.94113 0.60039 0.0
C619 C 0.78257 0.93098 0.4673 0.0
C620 C 0.73999 0.95122 0.44632 0.0
C621 C 0.77052 0.94176 0.439 0.0
N622 N 0.76115 0.93571 0.49025 0.0
N623 N 0.73516 0.94659 0.47735 0.0
C624 C 0.8142 0.91641 0.47281 0.0
H625 H 0.81115 0.89292 0.48373 0.0
H626 H 0.82749 0.93087 0.4894 0.0
H627 H 0.82763 0.91331 0.4506 0.0
C628 C 0.83206 0.00996 0.55202 0.0
N629 N 0.81722 0.98262 0.55682 0.0
N630 N 0.79779 0.97792 0.53369 0.0
C631 C 0.79834 0.00335 0.5145 0.0
C632 C 0.82037 0.02401 0.52522 0.0
C633 C 0.85536 0.02355 0.57378 0.0
H634 H 0.84445 0.0263 0.59732 0.0
H635 H 0.87574 0.00732 0.57591 0.0
H636 H 0.86362 0.04676 0.56532 0.0
O637 O 0.76851 0.96039 0.60564 0.0
O638 O 0.739 0.94565 0.56542 0.0
H639 H 0.7519 0.00184 0.49626 0.0
H640 H 0.77387 0.03553 0.48345 0.0
C641 C 0.77542 0.01012 0.48901 0.0
H642 H 0.78295 0.99811 0.46745 0.0
H643 H 0.71537 0.95393 0.49001 0.0
O644 O 0.84224 0.97197 0.6253 0.0
C645 C 0.74179 0.95534 0.5936 0.0
Co646 Co 0.80964 0.08471 0.32874 0.0
Co647 Co 0.8383 0.04265 0.27568 0.0
C648 C 0.8755 0.09287 0.30686 0.0
O649 O 0.8523 0.09838 0.32462 0.0
O650 O 0.87436 0.07203 0.28577 0.0
C651 C 0.7978 0.14343 0.35079 0.0
O652 O 0.81739 0.14855 0.32738 0.0
C653 C 0.84398 0.03903 0.20829 0.0
C654 C 0.84847 0.98839 0.20024 0.0
C655 C 0.8421 0.0167 0.18484 0.0
N656 N 0.84881 0.02437 0.23597 0.0
N657 N 0.85291 0.99417 0.2308 0.0
C658 C 0.83746 0.07355 0.20533 0.0
H659 H 0.83902 0.08513 0.22837 0.0
H660 H 0.81401 0.07798 0.19517 0.0
H661 H 0.8551 0.08419 0.18928 0.0
C662 C 0.76035 0.09521 0.28264 0.0
N663 N 0.78898 0.08426 0.29041 0.0
N664 N 0.7982 0.06294 0.27023 0.0
C665 C 0.77449 0.05796 0.25021 0.0
C666 C 0.75023 0.07886 0.25689 0.0
C667 C 0.74292 0.12042 0.30001 0.0
H668 H 0.73646 0.1117 0.32379 0.0
H669 H 0.75823 0.14097 0.30239 0.0
H670 H 0.72148 0.12836 0.28771 0.0
O671 O 0.8093 0.04191 0.34639 0.0
O672 O 0.8312 0.01061 0.31015 0.0
H673 H 0.74739 0.02101 0.23048 0.0
H674 H 0.77751 0.03593 0.20534 0.0
C675 C 0.77182 0.02968 0.22997 0.0
H676 H 0.7878 0.01065 0.23806 0.0
H677 H 0.85563 0.97722 0.24843 0.0
O678 O 0.78928 0.11549 0.35663 0.0
C679 C 0.81825 0.0149 0.33704 0.0
Co680 Co 0.67761 0.03253 0.08769 0.0
Co681 Co 0.71744 0.0578 0.03087 0.0
C682 C 0.66558 0.09588 0.06297 0.0
O683 O 0.65893 0.07354 0.08155 0.0
O684 O 0.68818 0.09373 0.04332 0.0
C685 C 0.6392 0.02074 0.14321 0.0
O686 O 0.65008 0.04664 0.15503 0.0
C687 C 0.70512 0.06735 0.9662 0.0
C688 C 0.74981 0.05706 0.94212 0.0
C689 C 0.71779 0.06036 0.93693 0.0
N690 N 0.72801 0.06659 0.98765 0.0
N691 N 0.75498 0.06166 0.9729 0.0
C692 C 0.67111 0.07233 0.97424 0.0
H693 H 0.66256 0.05278 0.98927 0.0
H694 H 0.6566 0.07432 0.9529 0.0
H695 H 0.66821 0.09429 0.98761 0.0
C696 C 0.66393 0.98271 0.04372 0.0
N697 N 0.67707 0.01015 0.05087 0.0
N698 N 0.69758 0.01784 0.02905 0.0
C699 C 0.6997 0.99416 0.00837 0.0
C700 C 0.67804 0.97165 0.01669 0.0
C701 C 0.63895 0.96694 0.06285 0.0
H702 H 0.64924 0.95787 0.08497 0.0
H703 H 0.62028 0.98422 0.06889 0.0
H704 H 0.62864 0.94708 0.05014 0.0
O705 O 0.72187 0.03387 0.10121 0.0
O706 O 0.75234 0.05221 0.06209 0.0
H707 H 0.74627 0.00327 0.9912 0.0
H708 H 0.73168 0.9649 0.98221 0.0
C709 C 0.72526 0.99009 0.98444 0.0
H710 H 0.71713 0.99826 0.9613 0.0
H711 H 0.77632 0.05795 0.98415 0.0
O712 O 0.64995 0.0107 0.11733 0.0
C713 C 0.74883 0.04099 0.08996 0.0
Co714 Co 0.31401 0.41456 0.64981 0.0
Co715 Co 0.33425 0.45436 0.70806 0.0
C716 C 0.37876 0.41063 0.6743 0.0
O717 O 0.35787 0.40452 0.65458 0.0
O718 O 0.37354 0.42936 0.69685 0.0
C719 C 0.31169 0.36266 0.60836 0.0
O720 O 0.34168 0.36038 0.61456 0.0
C721 C 0.34446 0.45183 0.77508 0.0
C722 C 0.32578 0.49748 0.79047 0.0
C723 C 0.33441 0.46791 0.80186 0.0
N724 N 0.33986 0.47028 0.74966 0.0
N725 N 0.32993 0.49803 0.75915 0.0
C726 C 0.35974 0.42014 0.773 0.0
H727 H 0.34312 0.40326 0.76301 0.0
H728 H 0.36819 0.41186 0.7962 0.0
H729 H 0.38016 0.42134 0.75673 0.0
C730 C 0.26689 0.392 0.69428 0.0
N731 N 0.29302 0.40827 0.68776 0.0
N732 N 0.29869 0.42749 0.71084 0.0
C733 C 0.27509 0.4252 0.73204 0.0
C734 C 0.25476 0.40239 0.72246 0.0
C735 C 0.25343 0.36774 0.67347 0.0
H736 H 0.27238 0.35174 0.66515 0.0
H737 H 0.23525 0.3538 0.68592 0.0
H738 H 0.24279 0.37946 0.65276 0.0
O739 O 0.30637 0.45822 0.63785 0.0
O740 O 0.32247 0.48852 0.67673 0.0
H741 H 0.24266 0.44979 0.76257 0.0
H742 H 0.27987 0.44044 0.77912 0.0
C743 C 0.26819 0.44825 0.75741 0.0
H744 H 0.27639 0.47179 0.75027 0.0
H745 H 0.32298 0.51623 0.74412 0.0
O746 O 0.29602 0.3859 0.61881 0.0
C747 C 0.31001 0.48511 0.64986 0.0
Co748 Co 0.31346 0.53934 0.40826 0.0
Co749 Co 0.27276 0.56343 0.4645 0.0
C750 C 0.32558 0.60112 0.43569 0.0
O751 O 0.33234 0.57938 0.41677 0.0
O752 O 0.30221 0.59917 0.45441 0.0
C753 C 0.35535 0.53513 0.35642 0.0
O754 O 0.35232 0.56579 0.35649 0.0
C755 C 0.27678 0.57082 0.53088 0.0
C756 C 0.22776 0.57156 0.54738 0.0
C757 C 0.25845 0.56908 0.55804 0.0
N758 N 0.25794 0.57249 0.50588 0.0
N759 N 0.2286 0.57417 0.51588 0.0
C760 C 0.31167 0.56654 0.52818 0.0
H761 H 0.31945 0.56543 0.50337 0.0
H762 H 0.31937 0.54491 0.54068 0.0
H763 H 0.32327 0.58672 0.53909 0.0
C764 C 0.32727 0.48751 0.45165 0.0
N765 N 0.31334 0.51509 0.44463 0.0
N766 N 0.29373 0.52305 0.46723 0.0
C767 C 0.29328 0.49954 0.48877 0.0
C768 C 0.31504 0.47669 0.47992 0.0
C769 C 0.35241 0.47253 0.4319 0.0
H770 H 0.36805 0.49077 0.42193 0.0
H771 H 0.3666 0.45542 0.44564 0.0
H772 H 0.34141 0.4602 0.41219 0.0
O773 O 0.26991 0.5424 0.39375 0.0
O774 O 0.2387 0.55963 0.43236 0.0
H775 H 0.26348 0.47144 0.51856 0.0
H776 H 0.27934 0.50499 0.53693 0.0
C777 C 0.26955 0.49645 0.51477 0.0
H778 H 0.24801 0.51009 0.50922 0.0
H779 H 0.20918 0.57439 0.50125 0.0
O780 O 0.33956 0.51884 0.37592 0.0
C781 C 0.24274 0.5496 0.40442 0.0
Co782 Co 0.18401 0.45017 0.90222 0.0
Co783 Co 0.21817 0.43033 0.96474 0.0
C784 C 0.17217 0.38823 0.93317 0.0
O785 O 0.16836 0.40833 0.91153 0.0
O786 O 0.19091 0.39297 0.95549 0.0
C787 C 0.12722 0.46305 0.87766 0.0
O788 O 0.12143 0.44727 0.90363 0.0
C789 C 0.20573 0.42282 0.03048 0.0
C790 C 0.24884 0.43855 0.05278 0.0
C791 C 0.21743 0.43233 0.05907 0.0
N792 N 0.22838 0.4252 0.00835 0.0
N793 N 0.25455 0.43339 0.02207 0.0
C794 C 0.17337 0.41161 0.02387 0.0
H795 H 0.1619 0.42761 0.00667 0.0
H796 H 0.15894 0.40955 0.04559 0.0
H797 H 0.17503 0.38809 0.01316 0.0
C798 C 0.16777 0.50606 0.93972 0.0
N799 N 0.18051 0.47713 0.93667 0.0
N800 N 0.19665 0.47015 0.96193 0.0
C801 C 0.1956 0.49521 0.98111 0.0
C802 C 0.17647 0.51815 0.96807 0.0
C803 C 0.14951 0.52358 0.91528 0.0
H804 H 0.16013 0.51992 0.89179 0.0
H805 H 0.12505 0.51524 0.91565 0.0
H806 H 0.1489 0.54911 0.92007 0.0
O807 O 0.22897 0.44741 0.89047 0.0
O808 O 0.25471 0.43289 0.93408 0.0
H809 H 0.24066 0.48996 0.00215 0.0
H810 H 0.22018 0.52563 0.01233 0.0
C811 C 0.21735 0.50031 0.00771 0.0
H812 H 0.20801 0.48937 0.02925 0.0
H813 H 0.27533 0.43858 0.01008 0.0
O814 O 0.15568 0.46678 0.86922 0.0
C815 C 0.25432 0.4407 0.90494 0.0
C816 C 0.26329 0.33888 0.58692 0.0
C817 C 0.2948 0.33543 0.59601 0.0
C818 C 0.24512 0.31275 0.58009 0.0
C819 C 0.25779 0.28229 0.58223 0.0
H820 H 0.25228 0.36189 0.58596 0.0
H821 H 0.22085 0.31634 0.57366 0.0
S822 S 0.3387 0.26015 0.60502 0.0
N823 N 0.33793 0.2988 0.60604 0.0
N824 N 0.3034 0.24989 0.59401 0.0
C825 C 0.28937 0.27847 0.5904 0.0
C826 C 0.308 0.305 0.59706 0.0
C827 C 0.4097 0.53687 0.33475 0.0
C828 C 0.38173 0.52025 0.33943 0.0
C829 C 0.43718 0.52151 0.32479 0.0
C830 C 0.43741 0.48921 0.31877 0.0
H831 H 0.41095 0.56142 0.34077 0.0
H832 H 0.45871 0.53467 0.32351 0.0
S833 S 0.36881 0.43679 0.32086 0.0
N834 N 0.35491 0.47082 0.33326 0.0
N835 N 0.40636 0.44232 0.31302 0.0
C836 C 0.409 0.47302 0.32054 0.0
C837 C 0.38116 0.48847 0.33126 0.0
C838 C 0.21681 0.7115 0.09086 0.0
C839 C 0.24954 0.70938 0.0872 0.0
C840 C 0.19902 0.68497 0.09786 0.0
C841 C 0.21337 0.65534 0.1018 0.0
H842 H 0.20495 0.73405 0.08947 0.0
H843 H 0.17403 0.68809 0.10171 0.0
S844 S 0.29781 0.63657 0.08977 0.0
N845 N 0.29514 0.67485 0.0839 0.0
N846 N 0.2619 0.62492 0.0983 0.0
C847 C 0.24593 0.65263 0.09658 0.0
C848 C 0.26398 0.67968 0.08902 0.0
C849 C 0.10514 0.49342 0.8321 0.0
C850 C 0.10155 0.48111 0.86267 0.0
C851 C 0.08129 0.51169 0.81832 0.0
C852 C 0.05338 0.51837 0.83486 0.0
H853 H 0.12645 0.4889 0.81875 0.0
H854 H 0.08478 0.52082 0.79476 0.0
S855 S 0.03299 0.49374 0.91599 0.0
N856 N 0.06802 0.47823 0.90937 0.0
N857 N 0.02366 0.5125 0.88332 0.0
C858 C 0.04969 0.50674 0.86546 0.0
C859 C 0.07363 0.48802 0.87939 0.0
C860 C 0.73623 0.19284 0.3921 0.0
C861 C 0.74863 0.22303 0.38902 0.0
C862 C 0.753 0.16674 0.38103 0.0
C863 C 0.78243 0.17028 0.36625 0.0
H864 H 0.71328 0.18951 0.40269 0.0
H865 H 0.74231 0.14389 0.38299 0.0
S866 S 0.82496 0.24481 0.35367 0.0
N867 N 0.79193 0.25526 0.37144 0.0
N868 N 0.82368 0.20635 0.35045 0.0
C869 C 0.79534 0.20042 0.36401 0.0
C870 C 0.77835 0.22682 0.37548 0.0
C871 C 0.585 0.00529 0.13204 0.0
C872 C 0.60895 0.00845 0.15406 0.0
C873 C 0.55612 0.99264 0.14062 0.0
C874 C 0.55022 0.98255 0.17147 0.0
H875 H 0.58857 0.01285 0.10794 0.0
H876 H 0.53828 0.99056 0.12293 0.0
S877 S 0.60563 0.98458 0.23764 0.0
N878 N 0.62513 0.00055 0.20791 0.0
N879 N 0.57094 0.97523 0.22395 0.0
C880 C 0.57396 0.9854 0.19379 0.0
C881 C 0.60332 0.99888 0.18511 0.0
C882 C 0.69481 0.80555 0.89668 0.0
C883 C 0.71083 0.83405 0.89315 0.0
C884 C 0.711 0.77758 0.90356 0.0
C885 C 0.74364 0.77729 0.9074 0.0
H886 H 0.66986 0.80446 0.89248 0.0
H887 H 0.69809 0.75588 0.90458 0.0
S888 S 0.79539 0.84644 0.9068 0.0
N889 N 0.76048 0.86082 0.89781 0.0
N890 N 0.79064 0.80838 0.91211 0.0
C891 C 0.75952 0.80592 0.90641 0.0
C892 C 0.74316 0.83431 0.89893 0.0
C893 C 0.89324 0.00352 0.65455 0.0
C894 C 0.89593 0.97349 0.64141 0.0
C895 C 0.91954 0.01848 0.66648 0.0
C896 C 0.94922 0.00383 0.66571 0.0
H897 H 0.87112 0.01624 0.65412 0.0
H898 H 0.91691 0.04208 0.67532 0.0
S899 S 0.96801 0.92387 0.63766 0.0
N900 N 0.93008 0.92836 0.63159 0.0
N901 N 0.97943 0.95688 0.65346 0.0
C902 C 0.95181 0.97309 0.65467 0.0
C903 C 0.92515 0.95782 0.6426 0.0
C904 C 0.59243 0.27556 0.27443 0.0
C905 C 0.58547 0.24362 0.27755 0.0
C906 C 0.60072 0.29311 0.30042 0.0
C907 C 0.60239 0.2793 0.3305 0.0
H908 H 0.59258 0.28682 0.25152 0.0
H909 H 0.60702 0.31739 0.29657 0.0
S910 S 0.58106 0.19746 0.35146 0.0
N911 N 0.57672 0.19969 0.3131 0.0
N912 N 0.59274 0.23243 0.36224 0.0
C913 C 0.59349 0.24775 0.33414 0.0
C914 C 0.58499 0.22993 0.30756 0.0
C915 C 0.48961 0.8594 0.0361 0.0
C916 C 0.51038 0.83403 0.03974 0.0
C917 C 0.47447 0.87263 0.06204 0.0
C918 C 0.47973 0.86101 0.09261 0.0
H919 H 0.48534 0.86933 0.01302 0.0
H920 H 0.459 0.89256 0.058 0.0
S921 S 0.53119 0.79335 0.11378 0.0
N922 N 0.53489 0.79666 0.0753 0.0
N923 N 0.50644 0.82143 0.12457 0.0
C924 C 0.5 0.83493 0.09635 0.0
C925 C 0.51539 0.82147 0.06975 0.0
C926 C 0.90298 0.71983 0.77206 0.0
C927 C 0.90834 0.75207 0.77416 0.0
C928 C 0.89325 0.70251 0.79833 0.0
C929 C 0.88846 0.71694 0.82755 0.0
H930 H 0.90485 0.70821 0.74966 0.0
H931 H 0.88815 0.67794 0.79525 0.0
S932 S 0.90522 0.79985 0.84603 0.0
N933 N 0.9128 0.79698 0.80813 0.0
N934 N 0.89391 0.76468 0.85771 0.0
C935 C 0.89606 0.74879 0.83034 0.0
C936 C 0.90612 0.76633 0.80354 0.0
C937 C 0.97587 0.17152 0.57031 0.0
C938 C 0.98504 0.16477 0.53943 0.0
C939 C 0.99139 0.15737 0.59572 0.0
C940 C 0.01638 0.13595 0.59088 0.0
H941 H 0.95639 0.18746 0.57477 0.0
H942 H 0.98324 0.1627 0.61922 0.0
S943 S 0.04867 0.11094 0.51365 0.0
N944 N 0.0201 0.13585 0.50499 0.0
N945 N 0.04966 0.10939 0.55228 0.0
C946 C 0.02598 0.12967 0.55982 0.0
C947 C 0.01017 0.14405 0.53419 0.0
C948 C 0.09302 0.2016 0.68245 0.0
C949 C 0.09757 0.22037 0.65542 0.0
C950 C 0.08557 0.21515 0.71142 0.0
C951 C 0.08213 0.24777 0.71411 0.0
H952 H 0.09721 0.17651 0.68172 0.0
H953 H 0.08428 0.20019 0.73209 0.0
S954 S 0.0848 0.30627 0.6492 0.0
N955 N 0.09391 0.27263 0.63241 0.0
N956 N 0.07833 0.29788 0.68659 0.0
C957 C 0.08361 0.2664 0.68676 0.0
C958 C 0.09181 0.25273 0.65744 0.0
C959 C 0.47332 0.32266 0.42457 0.0
C960 C 0.49199 0.32146 0.45146 0.0
C961 C 0.48598 0.33161 0.39543 0.0
C962 C 0.51788 0.33894 0.39212 0.0
H963 H 0.44857 0.31745 0.42624 0.0
H964 H 0.47054 0.33355 0.37551 0.0
S965 S 0.57676 0.33863 0.4554 0.0
N966 N 0.54385 0.32801 0.47304 0.0
N967 N 0.56807 0.34361 0.41807 0.0
C968 C 0.53712 0.33635 0.41858 0.0
C969 C 0.52407 0.32784 0.44834 0.0
C970 C 0.40776 0.7792 0.21587 0.0
C971 C 0.41032 0.74641 0.21812 0.0
C972 C 0.40261 0.79406 0.18693 0.0
C973 C 0.39963 0.77651 0.15943 0.0
H974 H 0.40836 0.79333 0.23678 0.0
H975 H 0.3991 0.81927 0.18649 0.0
S976 S 0.41079 0.69055 0.15227 0.0
N977 N 0.41471 0.6973 0.19003 0.0
N978 N 0.40367 0.72506 0.13571 0.0
C979 C 0.40436 0.74389 0.16115 0.0
C980 C 0.41004 0.72886 0.19052 0.0
C981 C 0.95601 0.66482 0.91812 0.0
C982 C 0.97322 0.66401 0.88976 0.0
C983 C 0.97041 0.67232 0.94629 0.0
C984 C 0.0024 0.67956 0.94704 0.0
H985 H 0.93166 0.65794 0.91897 0.0
H986 H 0.95673 0.67109 0.96782 0.0
S987 S 0.05627 0.68683 0.87864 0.0
N988 N 0.023 0.67494 0.86369 0.0
N989 N 0.0497 0.69016 0.91669 0.0
C990 C 0.01925 0.68133 0.91863 0.0
C991 C 0.00474 0.67328 0.88995 0.0
C992 C 0.29559 0.60506 0.29967 0.0
C993 C 0.32524 0.60786 0.28509 0.0
C994 C 0.26981 0.59443 0.28315 0.0
C995 C 0.2728 0.58609 0.25156 0.0
H996 H 0.29184 0.61229 0.32368 0.0
H997 H 0.24711 0.59409 0.2948 0.0
S998 S 0.34594 0.58407 0.20392 0.0
N999 N 0.35664 0.59801 0.23804 0.0
N1000 N 0.30801 0.57743 0.20729 0.0
C1001 C 0.30255 0.58669 0.23725 0.0
C1002 C 0.32886 0.59769 0.25396 0.0
C1003 C 0.80431 0.91534 0.75793 0.0
C1004 C 0.77553 0.91528 0.74231 0.0
C1005 C 0.83242 0.90894 0.74186 0.0
C1006 C 0.83271 0.90292 0.70954 0.0
H1007 H 0.80502 0.91957 0.78288 0.0
H1008 H 0.854 0.90791 0.75497 0.0
S1009 S 0.76348 0.90052 0.65792 0.0
N1010 N 0.74887 0.90872 0.6929 0.0
N1011 N 0.80182 0.89806 0.66232 0.0
C1012 C 0.8042 0.90426 0.69338 0.0
C1013 C 0.77554 0.91014 0.70988 0.0
C1014 C 0.86266 0.04745 0.49337 0.0
C1015 C 0.83343 0.05103 0.50815 0.0
C1016 C 0.87572 0.07193 0.47587 0.0
C1017 C 0.86028 0.10121 0.47306 0.0
H1018 H 0.87545 0.0254 0.49519 0.0
H1019 H 0.89846 0.06788 0.465 0.0
S1020 S 0.78323 0.12244 0.50864 0.0
N1021 N 0.7893 0.08562 0.5197 0.0
N1022 N 0.81409 0.13235 0.48709 0.0
C1023 C 0.83101 0.10518 0.48815 0.0
C1024 C 0.81753 0.07991 0.50571 0.0
C1025 C 0.69176 0.08424 0.25641 0.0
C1026 C 0.72051 0.08336 0.23995 0.0
C1027 C 0.66424 0.09468 0.24175 0.0
C1028 C 0.66474 0.10436 0.21015 0.0
H1029 H 0.69087 0.0784 0.28118 0.0
H1030 H 0.64301 0.097 0.25577 0.0
S1031 S 0.73303 0.10049 0.15543 0.0
N1032 N 0.74711 0.08911 0.18962 0.0
N1033 N 0.69536 0.1076 0.16167 0.0
C1034 C 0.69278 0.10059 0.19276 0.0
C1035 C 0.72072 0.09025 0.20776 0.0
C1036 C 0.6657 0.89143 0.9825 0.0
C1037 C 0.63968 0.89681 0.96304 0.0
C1038 C 0.67901 0.916 0.99918 0.0
C1039 C 0.66656 0.9465 0.9969 0.0
H1040 H 0.6754 0.868 0.98543 0.0
H1041 H 0.69851 0.91101 0.01455 0.0
S1042 S 0.59905 0.97338 0.94972 0.0
N1043 N 0.60254 0.93559 0.94237 0.0
N1044 N 0.62745 0.98121 0.97419 0.0
C1045 C 0.6412 0.95242 0.97719 0.0
C1046 C 0.62779 0.92769 0.96004 0.0
C1047 C 0.20391 0.37006 0.78719 0.0
C1048 C 0.17372 0.37113 0.77432 0.0
C1049 C 0.22985 0.38033 0.76999 0.0
C1050 C 0.22663 0.39186 0.73938 0.0
H1051 H 0.20772 0.36082 0.81061 0.0
H1052 H 0.25277 0.37877 0.78042 0.0
S1053 S 0.15296 0.40181 0.69534 0.0
N1054 N 0.142 0.38627 0.72932 0.0
N1055 N 0.19136 0.40568 0.69711 0.0
C1056 C 0.19673 0.39394 0.72631 0.0
C1057 C 0.17007 0.38362 0.74385 0.0
C1058 C 0.32778 0.41944 0.4843 0.0
C1059 C 0.32584 0.44909 0.49822 0.0
C1060 C 0.34237 0.39407 0.49971 0.0
C1061 C 0.35563 0.39764 0.52948 0.0
H1062 H 0.31895 0.41615 0.46089 0.0
H1063 H 0.34455 0.37198 0.48756 0.0
S1064 S 0.35431 0.47023 0.57675 0.0
N1065 N 0.33682 0.48034 0.54383 0.0
N1066 N 0.36335 0.43269 0.57333 0.0
C1067 C 0.35212 0.42682 0.54433 0.0
C1068 C 0.33742 0.45257 0.52855 0.0
C1069 C 0.17507 0.57144 0.99262 0.0
C1070 C 0.15994 0.54363 0.98474 0.0
C1071 C 0.15855 0.59576 0.0078 0.0
C1072 C 0.12661 0.59266 0.01579 0.0
H1073 H 0.19961 0.57454 0.98671 0.0
H1074 H 0.17088 0.61693 0.01356 0.0
S1075 S 0.07642 0.5246 0.99855 0.0
N1076 N 0.11143 0.51461 0.98488 0.0
N1077 N 0.08041 0.55982 0.01346 0.0
C1078 C 0.11137 0.56488 0.00772 0.0
C1079 C 0.12804 0.5405 0.9921 0.0
C1080 C 0.13703 0.0668 0.62463 0.0
C1081 C 0.13448 0.07255 0.65697 0.0
C1082 C 0.15825 0.08352 0.60558 0.0
C1083 C 0.17699 0.10686 0.61836 0.0
H1084 H 0.12009 0.05202 0.61346 0.0
H1085 H 0.1568 0.08121 0.58038 0.0
S1086 S 0.18261 0.12693 0.70227 0.0
N1087 N 0.15554 0.09962 0.70146 0.0
N1088 N 0.19498 0.13152 0.66568 0.0
C1089 C 0.17734 0.10991 0.65111 0.0
C1090 C 0.15606 0.09265 0.67047 0.0
C1091 C 0.64918 0.41934 0.34344 0.0
C1092 C 0.62019 0.43111 0.35423 0.0
C1093 C 0.66983 0.40408 0.36424 0.0
C1094 C 0.66193 0.40027 0.39622 0.0
H1095 H 0.65406 0.41815 0.3185 0.0
H1096 H 0.68974 0.39135 0.35449 0.0
S1097 S 0.59207 0.43326 0.43665 0.0
N1098 N 0.58736 0.44318 0.39946 0.0
N1099 N 0.62609 0.41444 0.4383 0.0
C1100 C 0.6354 0.4162 0.40776 0.0
C1101 C 0.6144 0.43156 0.38672 0.0
C1102 C 0.36019 0.9299 0.12445 0.0
C1103 C 0.36035 0.9244 0.15705 0.0
C1104 C 0.33993 0.91353 0.10496 0.0
C1105 C 0.31962 0.89084 0.11753 0.0
H1106 H 0.37839 0.94399 0.1136 0.0
H1107 H 0.34341 0.91539 0.07981 0.0
S1108 S 0.30714 0.87218 0.20172 0.0
N1109 N 0.3351 0.89863 0.20132 0.0
N1110 N 0.29734 0.86749 0.16475 0.0
C1111 C 0.31668 0.88838 0.15032 0.0
C1112 C 0.33708 0.90523 0.17014 0.0
C1113 C 0.82154 0.59667 0.85512 0.0
C1114 C 0.82714 0.59582 0.88761 0.0
C1115 C 0.84325 0.58369 0.83372 0.0
C1116 C 0.87092 0.56925 0.84437 0.0
H1117 H 0.80284 0.61144 0.84598 0.0
H1118 H 0.84035 0.58859 0.80895 0.0
S1119 S 0.89274 0.55461 0.927 0.0
N1120 N 0.85928 0.57443 0.92929 0.0
N1121 N 0.89992 0.54977 0.88923 0.0
C1122 C 0.87425 0.56409 0.87674 0.0
C1123 C 0.8522 0.57729 0.89842 0.0
C1124 C 0.65716 0.15043 0.0811 0.0
C1125 C 0.64585 0.12436 0.06522 0.0
C1126 C 0.63632 0.1713 0.09619 0.0
C1127 C 0.60369 0.16658 0.09582 0.0
H1128 H 0.68206 0.15253 0.08518 0.0
H1129 H 0.64593 0.18855 0.11169 0.0
S1130 S 0.56264 0.10516 0.05242 0.0
N1131 N 0.60023 0.09773 0.04585 0.0
N1132 N 0.5612 0.1369 0.07422 0.0
C1133 C 0.59223 0.14315 0.07645 0.0
C1134 C 0.61335 0.12189 0.06124 0.0
C1135 C 0.55711 0.86158 0.85205 0.0
C1136 C 0.56684 0.82991 0.85282 0.0
C1137 C 0.5721 0.88342 0.83222 0.0
C1138 C 0.59725 0.87406 0.81281 0.0
H1139 H 0.54101 0.8703 0.86986 0.0
H1140 H 0.56712 0.90814 0.83558 0.0
S1141 S 0.62647 0.79287 0.80124 0.0
N1142 N 0.59896 0.78952 0.82861 0.0
N1143 N 0.62698 0.83038 0.79119 0.0
C1144 C 0.60359 0.8418 0.8099 0.0
C1145 C 0.58845 0.81968 0.8301 0.0
C1146 C 0.8523 0.82239 0.59768 0.0
C1147 C 0.88453 0.82871 0.59451 0.0
C1148 C 0.8298 0.84117 0.58244 0.0
C1149 C 0.839 0.86646 0.56331 0.0
H1150 H 0.84431 0.8059 0.61547 0.0
H1151 H 0.80535 0.83853 0.58902 0.0
S1152 S 0.92031 0.8884 0.54227 0.0
N1153 N 0.9244 0.85854 0.56695 0.0
N1154 N 0.88217 0.89339 0.53768 0.0
C1155 C 0.87105 0.8698 0.55622 0.0
C1156 C 0.89392 0.85091 0.57197 0.0
C1157 C 0.93842 0.12203 0.35625 0.0
C1158 C 0.93287 0.15455 0.35365 0.0
C1159 C 0.92405 0.10098 0.33598 0.0
C1160 C 0.90344 0.11182 0.31268 0.0
H1161 H 0.95086 0.1126 0.37632 0.0
H1162 H 0.92561 0.07613 0.34142 0.0
S1163 S 0.8855 0.19488 0.29301 0.0
N1164 N 0.9091 0.1967 0.32331 0.0
N1165 N 0.88208 0.15724 0.28525 0.0
C1166 C 0.90111 0.14437 0.30737 0.0
C1167 C 0.91572 0.16577 0.32798 0.0
C1168 C 0.14471 0.31353 0.89977 0.0
C1169 C 0.11202 0.31871 0.90008 0.0
C1170 C 0.16491 0.33382 0.91528 0.0
C1171 C 0.15297 0.35981 0.93163 0.0
H1172 H 0.15496 0.29634 0.88406 0.0
H1173 H 0.18993 0.33141 0.91116 0.0
S1174 S 0.06921 0.38055 0.94384 0.0
N1175 N 0.06867 0.34904 0.92172 0.0
N1176 N 0.10653 0.38707 0.95091 0.0
C1177 C 0.12031 0.36278 0.93544 0.0
C1178 C 0.0998 0.3421 0.91974 0.0
C1179 C 0.42934 0.39804 0.64913 0.0
C1180 C 0.40707 0.39077 0.67249 0.0
C1181 C 0.4446 0.37414 0.63228 0.0
C1182 C 0.43769 0.3424 0.6381 0.0
H1183 H 0.4316 0.42202 0.6408 0.0
H1184 H 0.4583 0.38067 0.61171 0.0
S1185 S 0.38617 0.31139 0.7011 0.0
N1186 N 0.38338 0.34987 0.70448 0.0
N1187 N 0.41136 0.305 0.6721 0.0
C1188 C 0.41913 0.33491 0.66433 0.0
C1189 C 0.40401 0.35921 0.68182 0.0
C1190 C 0.39886 0.64563 0.42201 0.0
C1191 C 0.38761 0.67084 0.40375 0.0
C1192 C 0.37799 0.62486 0.43676 0.0
C1193 C 0.34536 0.62911 0.43415 0.0
H1194 H 0.4235 0.63917 0.42098 0.0
H1195 H 0.38736 0.60343 0.44709 0.0
S1196 S 0.30463 0.69552 0.39508 0.0
N1197 N 0.34225 0.70205 0.38857 0.0
N1198 N 0.30302 0.66326 0.41682 0.0
C1199 C 0.33407 0.6568 0.42016 0.0
C1200 C 0.35532 0.6778 0.40494 0.0
C1201 C 0.05366 0.61676 0.13715 0.0
C1202 C 0.05655 0.64957 0.13713 0.0
C1203 C 0.07075 0.59781 0.15812 0.0
C1204 C 0.09168 0.6112 0.17914 0.0
H1205 H 0.04118 0.60555 0.11846 0.0
H1206 H 0.07099 0.57267 0.15473 0.0
S1207 S 0.10315 0.69591 0.19199 0.0
N1208 N 0.07769 0.69467 0.1632 0.0
N1209 N 0.11055 0.65904 0.20202 0.0
C1210 C 0.09148 0.64395 0.18206 0.0
C1211 C 0.0737 0.66322 0.16109 0.0
C1212 C 0.35467 0.17093 0.55623 0.0
C1213 C 0.33795 0.1735 0.52793 0.0
C1214 C 0.3779 0.1927 0.56385 0.0
C1215 C 0.38505 0.21768 0.54335 0.0
H1216 H 0.34883 0.15286 0.57323 0.0
H1217 H 0.38888 0.19106 0.58656 0.0
S1218 S 0.35257 0.23191 0.46418 0.0
N1219 N 0.33369 0.201 0.47772 0.0
N1220 N 0.37708 0.2413 0.49201 0.0
C1221 C 0.37061 0.21883 0.51397 0.0
C1222 C 0.34725 0.1968 0.50616 0.0
C1223 C 0.55023 0.59646 0.29694 0.0
C1224 C 0.54407 0.58099 0.26865 0.0
C1225 C 0.52964 0.61969 0.30876 0.0
C1226 C 0.50221 0.62803 0.29263 0.0
H1227 H 0.57039 0.58967 0.31071 0.0
H1228 H 0.5343 0.62985 0.33134 0.0
S1229 S 0.47811 0.59879 0.21505 0.0
N1230 N 0.51046 0.57886 0.2231 0.0
N1231 N 0.47231 0.62242 0.24493 0.0
C1232 C 0.4973 0.61471 0.2631 0.0
C1233 C 0.51816 0.59132 0.25111 0.0
C1234 C 0.13772 0.77153 0.07393 0.0
C1235 C 0.11058 0.77319 0.05583 0.0
C1236 C 0.16242 0.79221 0.06858 0.0
C1237 C 0.16138 0.81497 0.04431 0.0
H1238 H 0.14058 0.75296 0.09127 0.0
H1239 H 0.18339 0.78818 0.08196 0.0
S1240 S 0.09407 0.83023 0.99188 0.0
N1241 N 0.08262 0.80064 0.01442 0.0
N1242 N 0.12959 0.83921 0.0036 0.0
C1243 C 0.13349 0.81792 0.0272 0.0
C1244 C 0.10797 0.79712 0.03313 0.0
C1245 C 0.97429 0.36543 0.78197 0.0
C1246 C 0.99383 0.36746 0.80809 0.0
C1247 C 0.95715 0.39175 0.77124 0.0
C1248 C 0.95886 0.42087 0.78635 0.0
H1249 H 0.97407 0.34412 0.76843 0.0
H1250 H 0.94382 0.38976 0.74992 0.0
S1251 S 0.00635 0.43699 0.85689 0.0
N1252 N 0.01312 0.39964 0.84966 0.0
N1253 N 0.98153 0.44914 0.82991 0.0
C1254 C 0.97719 0.42239 0.81367 0.0
C1255 C 0.99454 0.39564 0.8244 0.0
C1256 C 0.83645 0.30982 0.42639 0.0
C1257 C 0.83252 0.32242 0.45671 0.0
C1258 C 0.8623 0.29072 0.41863 0.0
C1259 C 0.88534 0.28342 0.44063 0.0
H1260 H 0.81831 0.3116 0.40917 0.0
H1261 H 0.86297 0.27946 0.39607 0.0
S1262 S 0.89021 0.31464 0.52092 0.0
N1263 N 0.8573 0.32988 0.50713 0.0
N1264 N 0.90538 0.29319 0.49241 0.0
C1265 C 0.88373 0.29821 0.46976 0.0
C1266 C 0.85749 0.31792 0.47776 0.0
C1267 C 0.45843 0.07727 0.18681 0.0
C1268 C 0.44202 0.0795 0.21571 0.0
C1269 C 0.47798 0.1012 0.17589 0.0
C1270 C 0.48183 0.12852 0.19315 0.0
H1271 H 0.45892 0.05584 0.17364 0.0
H1272 H 0.49198 0.0973 0.15488 0.0
S1273 S 0.44273 0.14793 0.26852 0.0
N1274 N 0.42954 0.11279 0.26011 0.0
N1275 N 0.46653 0.15786 0.23931 0.0
C1276 C 0.46424 0.13227 0.22088 0.0
C1277 C 0.44431 0.10775 0.2322 0.0
C1278 C 0.63659 0.71925 0.98593 0.0
C1279 C 0.61717 0.71444 0.96009 0.0
C1280 C 0.65967 0.69741 0.99441 0.0
C1281 C 0.66476 0.66993 0.9771 0.0
H1282 H 0.63483 0.74081 0.99905 0.0
H1283 H 0.67518 0.70343 0.01325 0.0
S1284 S 0.61645 0.64342 0.91103 0.0
N1285 N 0.60154 0.67822 0.91986 0.0
N1286 N 0.64523 0.63676 0.9359 0.0
C1287 C 0.64374 0.66344 0.95289 0.0
C1288 C 0.61985 0.68578 0.94436 0.0
C1289 C 0.02034 0.90813 0.73963 0.0
C1290 C 0.04889 0.91491 0.72442 0.0
C1291 C 0.99907 0.88755 0.72671 0.0
C1292 C 0.0055 0.87222 0.69827 0.0
H1293 H 0.01319 0.92052 0.7606 0.0
H1294 H 0.97689 0.88427 0.7389 0.0
S1295 S 0.07959 0.87679 0.65239 0.0
N1296 N 0.08462 0.90103 0.68179 0.0
N1297 N 0.04425 0.86196 0.65739 0.0
C1298 C 0.03506 0.8765 0.68415 0.0
C1299 C 0.05684 0.89791 0.69727 0.0
C1300 C 0.54896 0.34659 0.17641 0.0
C1301 C 0.52079 0.32955 0.17854 0.0
C1302 C 0.55617 0.36977 0.19844 0.0
C1303 C 0.53535 0.37665 0.22325 0.0
H1304 H 0.56606 0.34138 0.15824 0.0
H1305 H 0.57866 0.38119 0.19693 0.0
S1306 S 0.45621 0.3435 0.23633 0.0
N1307 N 0.47037 0.32475 0.20559 0.0
N1308 N 0.48374 0.36816 0.24614 0.0
C1309 C 0.50612 0.36183 0.22403 0.0
C1310 C 0.4988 0.33845 0.20182 0.0
C1311 C 0.41814 0.80808 0.96776 0.0
C1312 C 0.41451 0.78062 0.95006 0.0
C1313 C 0.39402 0.81956 0.98713 0.0
C1314 C 0.36507 0.80453 0.9891 0.0
H1315 H 0.44052 0.81952 0.96901 0.0
H1316 H 0.39877 0.83915 0.00223 0.0
S1317 S 0.3421 0.73384 0.94586 0.0
N1318 N 0.37868 0.74004 0.93444 0.0
N1319 N 0.33301 0.7622 0.97053 0.0
C1320 C 0.36016 0.77849 0.97004 0.0
C1321 C 0.38497 0.76639 0.95064 0.0
C1322 C 0.94481 0.63081 0.69111 0.0
C1323 C 0.96478 0.62448 0.71637 0.0
C1324 C 0.95205 0.65455 0.66897 0.0
C1325 C 0.9793 0.67279 0.6716 0.0
H1326 H 0.92276 0.61869 0.68945 0.0
H1327 H 0.9355 0.65946 0.65053 0.0
S1328 S 0.04181 0.66056 0.73067 0.0
N1329 N 0.0149 0.63462 0.74019 0.0
N1330 N 0.02835 0.67914 0.69942 0.0
C1331 C 0.00073 0.66429 0.6952 0.0
C1332 C 0.99339 0.6403 0.71748 0.0
C1333 C 0.08324 0.18345 0.46603 0.0
C1334 C 0.08683 0.20944 0.44554 0.0
C1335 C 0.10693 0.17411 0.48664 0.0
C1336 C 0.13552 0.18977 0.48715 0.0
H1337 H 0.06117 0.1716 0.46832 0.0
H1338 H 0.10222 0.15564 0.50362 0.0
S1339 S 0.15869 0.25691 0.43658 0.0
N1340 N 0.12256 0.24918 0.42579 0.0
N1341 N 0.16745 0.23093 0.46424 0.0
C1342 C 0.14055 0.21427 0.46549 0.0
C1343 C 0.11614 0.22424 0.44477 0.0
C1344 C 0.04269 0.14283 0.82327 0.0
C1345 C 0.01688 0.16358 0.82003 0.0
C1346 C 0.0494 0.11975 0.80072 0.0
C1347 C 0.03053 0.11682 0.77417 0.0
H1348 H 0.05856 0.14524 0.84264 0.0
H1349 H 0.07036 0.10538 0.80318 0.0
S1350 S 0.95729 0.16141 0.75731 0.0
N1351 N 0.97025 0.17664 0.78996 0.0
N1352 N 0.9827 0.13345 0.74814 0.0
C1353 C 0.00327 0.13556 0.77211 0.0
C1354 C 0.99638 0.15879 0.79497 0.0
C1355 C 0.60405 0.28697 0.55696 0.0
C1356 C 0.58765 0.25915 0.55104 0.0
C1357 C 0.62661 0.29857 0.53555 0.0
C1358 C 0.63353 0.28254 0.50771 0.0
H1359 H 0.59837 0.30067 0.57746 0.0
H1360 H 0.63715 0.32105 0.53985 0.0
S1361 S 0.60206 0.20578 0.48407 0.0
N1362 N 0.58352 0.21387 0.51719 0.0
N1363 N 0.62604 0.23525 0.47769 0.0
C1364 C 0.61966 0.25325 0.50315 0.0
C1365 C 0.5968 0.24155 0.52471 0.0
C1366 C 0.49421 0.83154 0.29361 0.0
C1367 C 0.4765 0.82765 0.32135 0.0
C1368 C 0.48624 0.8544 0.27137 0.0
C1369 C 0.46048 0.87484 0.27593 0.0
H1370 H 0.51313 0.81536 0.28783 0.0
H1371 H 0.49991 0.85533 0.24981 0.0
S1372 S 0.41032 0.87873 0.34731 0.0
N1373 N 0.43487 0.84926 0.35437 0.0
N1374 N 0.41976 0.89253 0.31213 0.0
C1375 C 0.4442 0.8732 0.30471 0.0
C1376 C 0.45223 0.84953 0.3275 0.0
C1377 C 0.89972 0.74202 0.02119 0.0
C1378 C 0.90517 0.72619 0.04968 0.0
C1379 C 0.87906 0.73026 0.99926 0.0
C1380 C 0.86245 0.7024 0.00499 0.0
H1381 H 0.9131 0.76257 0.01472 0.0
H1382 H 0.87674 0.74282 0.97717 0.0
S1383 S 0.86404 0.65516 0.07842 0.0
N1384 N 0.88925 0.68352 0.08437 0.0
N1385 N 0.85 0.66133 0.04292 0.0
C1386 C 0.86565 0.68768 0.03443 0.0
C1387 C 0.8871 0.69959 0.05682 0.0
C1388 C 0.19611 0.50737 0.34388 0.0
C1389 C 0.16976 0.52686 0.33902 0.0
C1390 C 0.21869 0.51472 0.36586 0.0
C1391 C 0.21586 0.54164 0.38446 0.0
H1392 H 0.20052 0.48721 0.32919 0.0
H1393 H 0.23911 0.49945 0.36767 0.0
S1394 S 0.14886 0.59772 0.38474 0.0
N1395 N 0.14015 0.57232 0.35731 0.0
N1396 N 0.18294 0.58609 0.39911 0.0
C1397 C 0.18854 0.56014 0.38171 0.0
C1398 C 0.16545 0.55279 0.35885 0.0
C1399 C 0.71575 0.98951 0.63273 0.0
C1400 C 0.71399 0.96334 0.61314 0.0
C1401 C 0.69281 0.99562 0.6555 0.0
C1402 C 0.66726 0.9755 0.66012 0.0
H1403 H 0.73581 0.00482 0.63132 0.0
H1404 H 0.6965 0.01502 0.67112 0.0
S1405 S 0.64898 0.9067 0.61158 0.0
N1406 N 0.68274 0.91927 0.59712 0.0
N1407 N 0.63919 0.93082 0.64021 0.0
C1408 C 0.6638 0.95066 0.63905 0.0
C1409 C 0.68726 0.94455 0.61548 0.0
C1410 C 0.78585 0.97021 0.35569 0.0
C1411 C 0.81271 0.98856 0.35883 0.0
C1412 C 0.77376 0.95291 0.38129 0.0
C1413 C 0.78816 0.95333 0.41081 0.0
H1414 H 0.77269 0.97128 0.33415 0.0
H1415 H 0.75189 0.94068 0.37848 0.0
S1416 S 0.86038 0.99714 0.42979 0.0
N1417 N 0.85439 0.00503 0.39243 0.0
N1418 N 0.83196 0.9734 0.44068 0.0
C1419 C 0.81627 0.97031 0.41342 0.0
C1420 C 0.82845 0.98771 0.38735 0.0
C1421 C 0.80111 0.05339 0.11383 0.0
C1422 C 0.77626 0.03265 0.1095 0.0
C1423 C 0.82405 0.0471 0.13668 0.0
C1424 C 0.82286 0.01991 0.15587 0.0
H1425 H 0.80191 0.07528 0.10074 0.0
H1426 H 0.84213 0.06422 0.14002 0.0
S1427 S 0.76504 0.95584 0.14952 0.0
N1428 N 0.75406 0.98208 0.12306 0.0
N1429 N 0.79644 0.97039 0.16581 0.0
C1430 C 0.79947 0.99788 0.14964 0.0
C1431 C 0.77628 0.00431 0.12663 0.0
C1432 C 0.67755 0.02322 0.91736 0.0
C1433 C 0.70115 0.04529 0.91064 0.0
C1434 C 0.66628 0.00341 0.89431 0.0
C1435 C 0.67746 0.0053 0.86336 0.0
H1436 H 0.6694 0.01919 0.94111 0.0
H1437 H 0.65007 0.98516 0.90112 0.0
S1438 S 0.73716 0.06033 0.83252 0.0
N1439 N 0.73405 0.06877 0.87014 0.0
N1440 N 0.71199 0.03199 0.82641 0.0
C1441 C 0.69945 0.02849 0.85564 0.0
C1442 C 0.71152 0.04831 0.87938 0.0
C1443 C 0.29871 0.47145 0.88327 0.0
C1444 C 0.28354 0.4426 0.88635 0.0
C1445 C 0.31848 0.47781 0.85745 0.0
C1446 C 0.32323 0.45586 0.83326 0.0
H1447 H 0.29319 0.49017 0.89946 0.0
H1448 H 0.3279 0.50119 0.85508 0.0
S1449 S 0.29204 0.37449 0.83424 0.0
N1450 N 0.27767 0.39032 0.86647 0.0
N1451 N 0.31332 0.40201 0.81722 0.0
C1452 C 0.31028 0.4257 0.83798 0.0
C1453 C 0.29067 0.41923 0.86466 0.0
C1454 C 0.31106 0.53808 0.62317 0.0
C1455 C 0.29452 0.5116 0.63345 0.0
C1456 C 0.29791 0.55893 0.60093 0.0
C1457 C 0.26814 0.55355 0.58799 0.0
H1458 H 0.33491 0.54153 0.63066 0.0
H1459 H 0.31191 0.57831 0.59255 0.0
S1460 S 0.2134 0.49058 0.6127 0.0
N1461 N 0.24522 0.48388 0.63341 0.0
N1462 N 0.22086 0.52219 0.59138 0.0
C1463 C 0.25031 0.5289 0.60086 0.0
C1464 C 0.26354 0.50802 0.62349 0.0
C1465 C 0.21349 0.44416 0.11631 0.0
C1466 C 0.19984 0.44569 0.08641 0.0
C1467 C 0.20246 0.46316 0.14093 0.0
C1468 C 0.17759 0.48455 0.13632 0.0
H1469 H 0.23414 0.42964 0.12013 0.0
H1470 H 0.21513 0.46302 0.16277 0.0
S1471 S 0.1319 0.49668 0.0641 0.0
N1472 N 0.15816 0.46952 0.05492 0.0
N1473 N 0.13813 0.50488 0.10113 0.0
C1474 C 0.16237 0.48488 0.10751 0.0
C1475 C 0.17327 0.4655 0.08253 0.0
loop_
_geom_bond_atom_site_label_1
_geom_bond_atom_site_label_2
_geom_bond_distance
_geom_bond_site_symmetry_2
_ccdc_geom_bond_type
Co0 O3 1.970 . S
Co0 N17 1.989 . S
Co0 O25 1.967 . S
Co0 O32 1.920 . S
Co1 O4 1.966 . S
Co1 N10 2.022 . S
Co1 N18 1.993 . S
Co1 O26 1.941 . S
C2 O3 1.258 . S
C2 O4 1.263 . S
O3 Co0 1.970 . S
O3 C2 1.258 . S
O4 Co1 1.966 . S
O4 C2 1.263 . S
C5 O6 1.235 . S
C5 O32 1.289 . S
O6 C5 1.235 . S
C7 C9 1.400 . S
C7 N10 1.351 . S
C7 C12 1.501 . S
C8 C9 1.387 . S
C8 N11 1.341 . S
C9 C7 1.400 . S
C9 C8 1.387 . S
N10 Co1 2.022 . S
N10 C7 1.351 . S
N10 N11 1.365 . S
N11 C8 1.341 . S
N11 N10 1.365 . S
N11 H31 0.862 . S
C12 C7 1.501 . S
C12 H13 0.961 . S
C12 H14 0.961 . S
C12 H15 0.960 . S
H13 C12 0.961 . S
H14 C12 0.961 . S
H15 C12 0.960 . S
C16 N17 1.342 . S
C16 C20 1.401 . S
C16 C21 1.499 . S
N17 Co0 1.989 . S
N17 C16 1.342 . S
N17 N18 1.388 . S
N18 Co1 1.993 . S
N18 N17 1.388 . S
N18 C19 1.346 . S
C19 N18 1.346 . S
C19 C20 1.396 . S
C19 C29 1.510 . S
C20 C16 1.401 . S
C20 C19 1.396 . S
C21 C16 1.499 . S
C21 H22 0.959 . S
C21 H23 0.960 . S
C21 H24 0.961 . S
H22 C21 0.959 . S
H23 C21 0.960 . S
H24 C21 0.961 . S
O25 Co0 1.967 . S
O25 C33 1.258 . S
O26 Co1 1.941 . S
O26 C33 1.266 . S
H27 C29 0.959 . S
H28 C29 0.961 . S
C29 C19 1.510 . S
C29 H27 0.959 . S
C29 H28 0.961 . S
C29 H30 0.960 . S
H30 C29 0.960 . S
H31 N11 0.862 . S
O32 Co0 1.920 . S
O32 C5 1.289 . S
C33 O25 1.258 . S
C33 O26 1.266 . S
Co34 O37 1.970 . S
Co34 N51 1.989 . S
Co34 O59 1.967 . S
Co34 O66 1.920 . S
Co35 O38 1.966 . S
Co35 N44 2.022 . S
Co35 N52 1.993 . S
Co35 O60 1.941 . S
C36 O37 1.258 . S
C36 O38 1.263 . S
O37 Co34 1.970 . S
O37 C36 1.258 . S
O38 Co35 1.966 . S
O38 C36 1.263 . S
C39 O40 1.235 . S
C39 O66 1.289 . S
O40 C39 1.235 . S
C41 C43 1.400 . S
C41 N44 1.351 . S
C41 C46 1.501 . S
C42 C43 1.387 . S
C42 N45 1.341 . S
C43 C41 1.400 . S
C43 C42 1.387 . S
N44 Co35 2.022 . S
N44 C41 1.351 . S
N44 N45 1.365 . S
N45 C42 1.341 . S
N45 N44 1.365 . S
N45 H65 0.862 . S
C46 C41 1.501 . S
C46 H47 0.961 . S
C46 H48 0.961 . S
C46 H49 0.960 . S
H47 C46 0.961 . S
H48 C46 0.961 . S
H49 C46 0.960 . S
C50 N51 1.342 . S
C50 C54 1.401 . S
C50 C55 1.499 . S
N51 Co34 1.989 . S
N51 C50 1.342 . S
N51 N52 1.388 . S
N52 Co35 1.993 . S
N52 N51 1.388 . S
N52 C53 1.346 . S
C53 N52 1.346 . S
C53 C54 1.396 . S
C53 C63 1.510 . S
C54 C50 1.401 . S
C54 C53 1.396 . S
C55 C50 1.499 . S
C55 H56 0.959 . S
C55 H57 0.960 . S
C55 H58 0.961 . S
H56 C55 0.959 . S
H57 C55 0.960 . S
H58 C55 0.961 . S
O59 Co34 1.967 . S
O59 C67 1.258 . S
O60 Co35 1.941 . S
O60 C67 1.266 . S
H61 C63 0.959 . S
H62 C63 0.961 . S
C63 C53 1.510 . S
C63 H61 0.959 . S
C63 H62 0.961 . S
C63 H64 0.960 . S
H64 C63 0.960 . S
H65 N45 0.862 . S
O66 Co34 1.920 . S
O66 C39 1.289 . S
C67 O59 1.258 . S
C67 O60 1.266 . S
Co68 O71 1.970 . S
Co68 N85 1.989 . S
Co68 O93 1.967 . S
Co68 O100 1.920 . S
Co69 O72 1.966 . S
Co69 N78 2.022 . S
Co69 N86 1.993 . S
Co69 O94 1.941 . S
C70 O71 1.258 . S
C70 O72 1.263 . S
O71 Co68 1.970 . S
O71 C70 1.258 . S
O72 Co69 1.966 . S
O72 C70 1.263 . S
C73 O74 1.235 . S
C73 O100 1.289 . S
O74 C73 1.235 . S
C75 C77 1.400 . S
C75 N78 1.351 . S
C75 C80 1.501 . S
C76 C77 1.387 1_556 S
C76 N79 1.341 1_556 S
C77 C75 1.400 . S
C77 C76 1.387 1_554 S
N78 Co69 2.022 . S
N78 C75 1.351 . S
N78 N79 1.365 . S
N79 C76 1.341 1_554 S
N79 N78 1.365 . S
N79 H99 0.862 . S
C80 C75 1.501 . S
C80 H81 0.961 . S
C80 H82 0.961 . S
C80 H83 0.960 . S
H81 C80 0.961 . S
H82 C80 0.961 . S
H83 C80 0.960 . S
C84 N85 1.342 . S
C84 C88 1.401 . S
C84 C89 1.499 . S
N85 Co68 1.989 . S
N85 C84 1.342 . S
N85 N86 1.388 . S
N86 Co69 1.993 . S
N86 N85 1.388 . S
N86 C87 1.346 . S
C87 N86 1.346 . S
C87 C88 1.396 . S
C87 C97 1.510 . S
C88 C84 1.401 . S
C88 C87 1.396 . S
C89 C84 1.499 . S
C89 H90 0.959 . S
C89 H91 0.960 . S
C89 H92 0.961 . S
H90 C89 0.959 . S
H91 C89 0.960 . S
H92 C89 0.961 . S
O93 Co68 1.967 . S
O93 C101 1.258 . S
O94 Co69 1.941 . S
O94 C101 1.266 . S
H95 C97 0.959 . S
H96 C97 0.961 . S
C97 C87 1.510 . S
C97 H95 0.959 . S
C97 H96 0.961 . S
C97 H98 0.960 . S
H98 C97 0.960 . S
H99 N79 0.862 . S
O100 Co68 1.920 . S
O100 C73 1.289 . S
C101 O93 1.258 . S
C101 O94 1.266 . S
Co102 O105 1.995 . S
Co102 N119 1.970 1_655 S
Co102 O127 1.971 . S
Co102 O134 1.914 1_655 S
Co103 O106 1.966 . S
Co103 N112 2.022 . S
Co103 N120 1.993 1_655 S
Co103 O128 1.941 . S
C104 O105 1.258 . S
C104 O106 1.263 . S
O105 Co102 1.995 . S
O105 C104 1.258 . S
O106 Co103 1.966 . S
O106 C104 1.263 . S
C107 O108 1.235 . S
C107 O134 1.289 . S
O108 C107 1.235 . S
C109 C111 1.400 . S
C109 N112 1.351 . S
C109 C114 1.501 . S
C110 C111 1.387 1_455 S
C110 N113 1.341 . S
C111 C109 1.400 . S
C111 C110 1.387 1_655 S
N112 Co103 2.022 . S
N112 C109 1.351 . S
N112 N113 1.365 1_655 S
N113 C110 1.341 . S
N113 N112 1.365 1_455 S
N113 H133 0.862 . S
C114 C109 1.501 . S
C114 H115 0.961 . S
C114 H116 0.961 . S
C114 H117 0.960 . S
H115 C114 0.961 . S
H116 C114 0.961 . S
H117 C114 0.960 . S
C118 N119 1.342 . S
C118 C122 1.401 . S
C118 C123 1.499 . S
N119 Co102 1.970 1_455 S
N119 C118 1.342 . S
N119 N120 1.388 . S
N120 Co103 1.993 1_455 S
N120 N119 1.388 . S
N120 C121 1.346 . S
C121 N120 1.346 . S
C121 C122 1.396 . S
C121 C131 1.510 . S
C122 C118 1.401 . S
C122 C121 1.396 . S
C123 C118 1.499 . S
C123 H124 0.959 . S
C123 H125 0.960 . S
C123 H126 0.961 . S
H124 C123 0.959 . S
H125 C123 0.960 . S
H126 C123 0.961 . S
O127 Co102 1.971 . S
O127 C135 1.258 . S
O128 Co103 1.941 . S
O128 C135 1.266 . S
H129 C131 0.959 . S
H130 C131 0.961 . S
C131 C121 1.510 . S
C131 H129 0.959 . S
C131 H130 0.961 . S
C131 H132 0.960 . S
H132 C131 0.960 . S
H133 N113 0.862 . S
O134 Co102 1.914 1_455 S
O134 C107 1.289 . S
C135 O127 1.258 . S
C135 O128 1.266 . S
Co136 O139 1.970 . S
Co136 N153 1.989 . S
Co136 O161 1.967 . S
Co136 O168 1.920 . S
Co137 O140 1.966 . S
Co137 N146 2.022 . S
Co137 N154 1.993 . S
Co137 O162 1.941 . S
C138 O139 1.258 . S
C138 O140 1.263 . S
O139 Co136 1.970 . S
O139 C138 1.258 . S
O140 Co137 1.966 . S
O140 C138 1.263 . S
C141 O142 1.235 . S
C141 O168 1.289 . S
O142 C141 1.235 . S
C143 C145 1.400 . S
C143 N146 1.351 . S
C143 C148 1.501 . S
C144 C145 1.387 . S
C144 N147 1.341 . S
C145 C143 1.400 . S
C145 C144 1.387 . S
N146 Co137 2.022 . S
N146 C143 1.351 . S
N146 N147 1.365 . S
N147 C144 1.341 . S
N147 N146 1.365 . S
N147 H167 0.862 . S
C148 C143 1.501 . S
C148 H149 0.961 . S
C148 H150 0.961 . S
C148 H151 0.960 . S
H149 C148 0.961 . S
H150 C148 0.961 . S
H151 C148 0.960 . S
C152 N153 1.342 . S
C152 C156 1.401 . S
C152 C157 1.499 . S
N153 Co136 1.989 . S
N153 C152 1.342 . S
N153 N154 1.388 . S
N154 Co137 1.993 . S
N154 N153 1.388 . S
N154 C155 1.346 . S
C155 N154 1.346 . S
C155 C156 1.396 . S
C155 C165 1.510 . S
C156 C152 1.401 . S
C156 C155 1.396 . S
C157 C152 1.499 . S
C157 H158 0.959 . S
C157 H159 0.960 . S
C157 H160 0.961 . S
H158 C157 0.959 . S
H159 C157 0.960 . S
H160 C157 0.961 . S
O161 Co136 1.967 . S
O161 C169 1.258 . S
O162 Co137 1.941 . S
O162 C169 1.266 . S
H163 C165 0.959 . S
H164 C165 0.961 . S
C165 C155 1.510 . S
C165 H163 0.959 . S
C165 H164 0.961 . S
C165 H166 0.960 . S
H166 C165 0.960 . S
H167 N147 0.862 . S
O168 Co136 1.920 . S
O168 C141 1.289 . S
C169 O161 1.258 . S
C169 O162 1.266 . S
Co170 O173 1.970 . S
Co170 N187 1.989 . S
Co170 O195 1.967 . S
Co170 O202 1.920 . S
Co171 O174 1.966 . S
Co171 N180 2.022 1_565 S
Co171 N188 1.993 . S
Co171 O196 1.941 . S
C172 O173 1.258 . S
C172 O174 1.263 . S
O173 Co170 1.970 . S
O173 C172 1.258 . S
O174 Co171 1.966 . S
O174 C172 1.263 . S
C175 O176 1.235 . S
C175 O202 1.289 . S
O176 C175 1.235 . S
C177 C179 1.400 . S
C177 N180 1.351 . S
C177 C182 1.501 . S
C178 C179 1.387 . S
C178 N181 1.341 . S
C179 C177 1.400 . S
C179 C178 1.387 . S
N180 Co171 2.022 1_545 S
N180 C177 1.351 . S
N180 N181 1.365 . S
N181 C178 1.341 . S
N181 N180 1.365 . S
N181 H201 0.862 . S
C182 C177 1.501 . S
C182 H183 0.961 . S
C182 H184 0.961 . S
C182 H185 0.960 . S
H183 C182 0.961 . S
H184 C182 0.961 . S
H185 C182 0.960 . S
C186 N187 1.342 . S
C186 C190 1.401 . S
C186 C191 1.499 . S
N187 Co170 1.989 . S
N187 C186 1.342 . S
N187 N188 1.388 . S
N188 Co171 1.993 . S
N188 N187 1.388 . S
N188 C189 1.346 . S
C189 N188 1.346 . S
C189 C190 1.396 . S
C189 C199 1.510 1_565 S
C190 C186 1.401 . S
C190 C189 1.396 . S
C191 C186 1.499 . S
C191 H192 0.959 . S
C191 H193 0.960 . S
C191 H194 0.961 . S
H192 C191 0.959 . S
H193 C191 0.960 . S
H194 C191 0.961 . S
O195 Co170 1.967 . S
O195 C203 1.258 . S
O196 Co171 1.941 . S
O196 C203 1.266 . S
H197 C199 0.959 . S
H198 C199 0.961 . S
C199 C189 1.510 1_545 S
C199 H197 0.959 . S
C199 H198 0.961 . S
C199 H200 0.960 . S
H200 C199 0.960 . S
H201 N181 0.862 . S
O202 Co170 1.920 . S
O202 C175 1.289 . S
C203 O195 1.258 . S
C203 O196 1.266 . S
Co204 O207 1.970 . S
Co204 N221 1.989 . S
Co204 O229 1.967 . S
Co204 O236 1.920 . S
Co205 O208 1.966 . S
Co205 N214 2.022 . S
Co205 N222 1.993 . S
Co205 O230 1.941 . S
C206 O207 1.258 . S
C206 O208 1.263 . S
O207 Co204 1.970 . S
O207 C206 1.258 . S
O208 Co205 1.966 . S
O208 C206 1.263 . S
C209 O210 1.235 . S
C209 O236 1.289 . S
O210 C209 1.235 . S
C211 C213 1.400 . S
C211 N214 1.351 . S
C211 C216 1.501 . S
C212 C213 1.387 . S
C212 N215 1.341 . S
C213 C211 1.400 . S
C213 C212 1.387 . S
N214 Co205 2.022 . S
N214 C211 1.351 . S
N214 N215 1.365 . S
N215 C212 1.341 . S
N215 N214 1.365 . S
N215 H235 0.862 . S
C216 C211 1.501 . S
C216 H217 0.961 . S
C216 H218 0.961 . S
C216 H219 0.960 . S
H217 C216 0.961 . S
H218 C216 0.961 . S
H219 C216 0.960 . S
C220 N221 1.342 . S
C220 C224 1.401 . S
C220 C225 1.499 . S
N221 Co204 1.989 . S
N221 C220 1.342 . S
N221 N222 1.388 . S
N222 Co205 1.993 . S
N222 N221 1.388 . S
N222 C223 1.346 . S
C223 N222 1.346 . S
C223 C224 1.396 . S
C223 C233 1.510 . S
C224 C220 1.401 . S
C224 C223 1.396 . S
C225 C220 1.499 . S
C225 H226 0.959 . S
C225 H227 0.960 . S
C225 H228 0.961 . S
H226 C225 0.959 . S
H227 C225 0.960 . S
H228 C225 0.961 . S
O229 Co204 1.967 . S
O229 C237 1.258 . S
O230 Co205 1.941 . S
O230 C237 1.266 . S
H231 C233 0.959 . S
H232 C233 0.961 . S
C233 C223 1.510 . S
C233 H231 0.959 . S
C233 H232 0.961 . S
C233 H234 0.960 . S
H234 C233 0.960 . S
H235 N215 0.862 . S
O236 Co204 1.920 . S
O236 C209 1.289 . S
C237 O229 1.258 . S
C237 O230 1.266 . S
Co238 O241 1.970 . S
Co238 N255 1.989 1_455 S
Co238 O263 1.967 . S
Co238 O270 1.920 1_455 S
Co239 O242 1.966 . S
Co239 N248 2.022 1_545 S
Co239 N256 1.993 1_455 S
Co239 O264 1.941 . S
C240 O241 1.258 . S
C240 O242 1.263 . S
O241 Co238 1.970 . S
O241 C240 1.258 . S
O242 Co239 1.966 . S
O242 C240 1.263 . S
C243 O244 1.235 . S
C243 O270 1.289 . S
O244 C243 1.235 . S
C245 C247 1.400 . S
C245 N248 1.351 . S
C245 C250 1.501 . S
C246 C247 1.387 1_655 S
C246 N249 1.341 . S
C247 C245 1.400 . S
C247 C246 1.387 1_455 S
N248 Co239 2.022 1_565 S
N248 C245 1.351 . S
N248 N249 1.365 1_455 S
N249 C246 1.341 . S
N249 N248 1.365 1_655 S
N249 H269 0.862 . S
C250 C245 1.501 . S
C250 H251 0.961 . S
C250 H252 0.961 . S
C250 H253 0.960 . S
H251 C250 0.961 . S
H252 C250 0.961 . S
H253 C250 0.960 . S
C254 N255 1.342 . S
C254 C258 1.401 . S
C254 C259 1.499 . S
N255 Co238 1.989 1_655 S
N255 C254 1.342 . S
N255 N256 1.388 . S
N256 Co239 1.993 1_655 S
N256 N255 1.388 . S
N256 C257 1.346 . S
C257 N256 1.346 . S
C257 C258 1.396 . S
C257 C267 1.510 1_545 S
C258 C254 1.401 . S
C258 C257 1.396 . S
C259 C254 1.499 . S
C259 H260 0.959 . S
C259 H261 0.960 . S
C259 H262 0.961 . S
H260 C259 0.959 . S
H261 C259 0.960 . S
H262 C259 0.961 . S
O263 Co238 1.967 . S
O263 C271 1.258 . S
O264 Co239 1.941 . S
O264 C271 1.266 . S
H265 C267 0.959 . S
H266 C267 0.961 . S
C267 C257 1.510 1_565 S
C267 H265 0.959 . S
C267 H266 0.961 . S
C267 H268 0.960 . S
H268 C267 0.960 . S
H269 N249 0.862 . S
O270 Co238 1.920 1_655 S
O270 C243 1.289 . S
C271 O263 1.258 . S
C271 O264 1.266 . S
Co272 O275 1.970 . S
Co272 N289 1.989 . S
Co272 O297 1.967 . S
Co272 O304 1.920 . S
Co273 O276 1.966 . S
Co273 N282 2.022 . S
Co273 N290 1.993 . S
Co273 O298 1.941 . S
C274 O275 1.258 . S
C274 O276 1.263 . S
O275 Co272 1.970 . S
O275 C274 1.258 . S
O276 Co273 1.966 . S
O276 C274 1.263 . S
C277 O278 1.235 . S
C277 O304 1.289 . S
O278 C277 1.235 . S
C279 C281 1.400 . S
C279 N282 1.351 . S
C279 C284 1.501 . S
C280 C281 1.387 . S
C280 N283 1.341 . S
C281 C279 1.400 . S
C281 C280 1.387 . S
N282 Co273 2.022 . S
N282 C279 1.351 . S
N282 N283 1.365 . S
N283 C280 1.341 . S
N283 N282 1.365 . S
N283 H303 0.862 . S
C284 C279 1.501 . S
C284 H285 0.961 . S
C284 H286 0.961 . S
C284 H287 0.960 . S
H285 C284 0.961 . S
H286 C284 0.961 . S
H287 C284 0.960 . S
C288 N289 1.342 . S
C288 C292 1.401 . S
C288 C293 1.499 . S
N289 Co272 1.989 . S
N289 C288 1.342 . S
N289 N290 1.388 . S
N290 Co273 1.993 . S
N290 N289 1.388 . S
N290 C291 1.346 . S
C291 N290 1.346 . S
C291 C292 1.396 . S
C291 C301 1.510 . S
C292 C288 1.401 . S
C292 C291 1.396 . S
C293 C288 1.499 . S
C293 H294 0.959 . S
C293 H295 0.960 . S
C293 H296 0.961 . S
H294 C293 0.959 . S
H295 C293 0.960 . S
H296 C293 0.961 . S
O297 Co272 1.967 . S
O297 C305 1.258 . S
O298 Co273 1.941 . S
O298 C305 1.266 . S
H299 C301 0.959 . S
H300 C301 0.961 . S
C301 C291 1.510 . S
C301 H299 0.959 . S
C301 H300 0.961 . S
C301 H302 0.960 . S
H302 C301 0.960 . S
H303 N283 0.862 . S
O304 Co272 1.920 . S
O304 C277 1.289 . S
C305 O297 1.258 . S
C305 O298 1.266 . S
Co306 O309 1.995 . S
Co306 N323 1.970 1_556 S
Co306 O331 1.971 . S
Co306 O338 1.914 1_556 S
Co307 O310 1.966 . S
Co307 N316 2.022 . S
Co307 N324 1.993 1_556 S
Co307 O332 1.941 . S
C308 O309 1.258 . S
C308 O310 1.263 . S
O309 Co306 1.995 . S
O309 C308 1.258 . S
O310 Co307 1.966 . S
O310 C308 1.263 . S
C311 O312 1.235 . S
C311 O338 1.289 . S
O312 C311 1.235 . S
C313 C315 1.400 . S
C313 N316 1.351 . S
C313 C318 1.501 . S
C314 C315 1.387 1_554 S
C314 N317 1.341 . S
C315 C313 1.400 . S
C315 C314 1.387 1_556 S
N316 Co307 2.022 . S
N316 C313 1.351 . S
N316 N317 1.365 1_556 S
N317 C314 1.341 . S
N317 N316 1.365 1_554 S
N317 H337 0.862 . S
C318 C313 1.501 . S
C318 H319 0.961 . S
C318 H320 0.961 . S
C318 H321 0.960 . S
H319 C318 0.961 . S
H320 C318 0.961 . S
H321 C318 0.960 . S
C322 N323 1.342 . S
C322 C326 1.401 . S
C322 C327 1.499 . S
N323 Co306 1.970 1_554 S
N323 C322 1.342 . S
N323 N324 1.388 . S
N324 Co307 1.993 1_554 S
N324 N323 1.388 . S
N324 C325 1.346 . S
C325 N324 1.346 . S
C325 C326 1.396 . S
C325 C335 1.510 . S
C326 C322 1.401 . S
C326 C325 1.396 . S
C327 C322 1.499 . S
C327 H328 0.959 . S
C327 H329 0.960 . S
C327 H330 0.961 . S
H328 C327 0.959 . S
H329 C327 0.960 . S
H330 C327 0.961 . S
O331 Co306 1.971 . S
O331 C339 1.258 . S
O332 Co307 1.941 . S
O332 C339 1.266 . S
H333 C335 0.959 . S
H334 C335 0.961 . S
C335 C325 1.510 . S
C335 H333 0.959 . S
C335 H334 0.961 . S
C335 H336 0.960 . S
H336 C335 0.960 . S
H337 N317 0.862 . S
O338 Co306 1.914 1_554 S
O338 C311 1.289 . S
C339 O331 1.258 . S
C339 O332 1.266 . S
Co340 O343 1.970 . S
Co340 N357 1.989 . S
Co340 O365 1.967 . S
Co340 O372 1.920 . S
Co341 O344 1.966 . S
Co341 N350 2.022 . S
Co341 N358 1.993 . S
Co341 O366 1.941 . S
C342 O343 1.258 . S
C342 O344 1.263 . S
O343 Co340 1.970 . S
O343 C342 1.258 . S
O344 Co341 1.966 . S
O344 C342 1.263 . S
C345 O346 1.235 . S
C345 O372 1.289 . S
O346 C345 1.235 . S
C347 C349 1.400 . S
C347 N350 1.351 . S
C347 C352 1.501 . S
C348 C349 1.387 . S
C348 N351 1.341 . S
C349 C347 1.400 . S
C349 C348 1.387 . S
N350 Co341 2.022 . S
N350 C347 1.351 . S
N350 N351 1.365 . S
N351 C348 1.341 . S
N351 N350 1.365 . S
N351 H371 0.862 . S
C352 C347 1.501 . S
C352 H353 0.961 . S
C352 H354 0.961 . S
C352 H355 0.960 . S
H353 C352 0.961 . S
H354 C352 0.961 . S
H355 C352 0.960 . S
C356 N357 1.342 . S
C356 C360 1.401 . S
C356 C361 1.499 . S
N357 Co340 1.989 . S
N357 C356 1.342 . S
N357 N358 1.388 . S
N358 Co341 1.993 . S
N358 N357 1.388 . S
N358 C359 1.346 . S
C359 N358 1.346 . S
C359 C360 1.396 . S
C359 C369 1.510 . S
C360 C356 1.401 . S
C360 C359 1.396 . S
C361 C356 1.499 . S
C361 H362 0.959 . S
C361 H363 0.960 . S
C361 H364 0.961 . S
H362 C361 0.959 . S
H363 C361 0.960 . S
H364 C361 0.961 . S
O365 Co340 1.967 . S
O365 C373 1.258 . S
O366 Co341 1.941 . S
O366 C373 1.266 . S
H367 C369 0.959 . S
H368 C369 0.961 . S
C369 C359 1.510 . S
C369 H367 0.959 . S
C369 H368 0.961 . S
C369 H370 0.960 . S
H370 C369 0.960 . S
H371 N351 0.862 . S
O372 Co340 1.920 . S
O372 C345 1.289 . S
C373 O365 1.258 . S
C373 O366 1.266 . S
Co374 O377 1.970 . S
Co374 N391 1.989 . S
Co374 O399 1.967 . S
Co374 O406 1.920 . S
Co375 O378 1.966 . S
Co375 N384 2.022 1_655 S
Co375 N392 1.993 . S
Co375 O400 1.941 . S
C376 O377 1.258 . S
C376 O378 1.263 . S
O377 Co374 1.970 . S
O377 C376 1.258 . S
O378 Co375 1.966 . S
O378 C376 1.263 . S
C379 O380 1.235 . S
C379 O406 1.289 . S
O380 C379 1.235 . S
C381 C383 1.400 . S
C381 N384 1.351 . S
C381 C386 1.501 . S
C382 C383 1.387 . S
C382 N385 1.341 . S
C383 C381 1.400 . S
C383 C382 1.387 . S
N384 Co375 2.022 1_455 S
N384 C381 1.351 . S
N384 N385 1.365 . S
N385 C382 1.341 . S
N385 N384 1.365 . S
N385 H405 0.862 . S
C386 C381 1.501 . S
C386 H387 0.961 . S
C386 H388 0.961 . S
C386 H389 0.960 . S
H387 C386 0.961 . S
H388 C386 0.961 . S
H389 C386 0.960 . S
C390 N391 1.342 . S
C390 C394 1.401 . S
C390 C395 1.499 . S
N391 Co374 1.989 . S
N391 C390 1.342 . S
N391 N392 1.388 . S
N392 Co375 1.993 . S
N392 N391 1.388 . S
N392 C393 1.346 . S
C393 N392 1.346 . S
C393 C394 1.396 . S
C393 C403 1.510 1_655 S
C394 C390 1.401 . S
C394 C393 1.396 . S
C395 C390 1.499 . S
C395 H396 0.959 . S
C395 H397 0.960 . S
C395 H398 0.961 . S
H396 C395 0.959 . S
H397 C395 0.960 . S
H398 C395 0.961 . S
O399 Co374 1.967 . S
O399 C407 1.258 . S
O400 Co375 1.941 . S
O400 C407 1.266 . S
H401 C403 0.959 . S
H402 C403 0.961 . S
C403 C393 1.510 1_455 S
C403 H401 0.959 . S
C403 H402 0.961 . S
C403 H404 0.960 . S
H404 C403 0.960 . S
H405 N385 0.862 . S
O406 Co374 1.920 . S
O406 C379 1.289 . S
C407 O399 1.258 . S
C407 O400 1.266 . S
Co408 O411 1.970 . S
Co408 N425 1.989 . S
Co408 O433 1.967 . S
Co408 O440 1.920 . S
Co409 O412 1.966 . S
Co409 N418 2.022 . S
Co409 N426 1.993 . S
Co409 O434 1.941 . S
C410 O411 1.258 . S
C410 O412 1.263 . S
O411 Co408 1.970 . S
O411 C410 1.258 . S
O412 Co409 1.966 . S
O412 C410 1.263 . S
C413 O414 1.235 . S
C413 O440 1.289 . S
O414 C413 1.235 . S
C415 C417 1.400 . S
C415 N418 1.351 . S
C415 C420 1.501 . S
C416 C417 1.387 1_655 S
C416 N419 1.341 1_655 S
C417 C415 1.400 . S
C417 C416 1.387 1_455 S
N418 Co409 2.022 . S
N418 C415 1.351 . S
N418 N419 1.365 . S
N419 C416 1.341 1_455 S
N419 N418 1.365 . S
N419 H439 0.862 . S
C420 C415 1.501 . S
C420 H421 0.961 . S
C420 H422 0.961 . S
C420 H423 0.960 . S
H421 C420 0.961 . S
H422 C420 0.961 . S
H423 C420 0.960 . S
C424 N425 1.342 . S
C424 C428 1.401 . S
C424 C429 1.499 . S
N425 Co408 1.989 . S
N425 C424 1.342 . S
N425 N426 1.388 . S
N426 Co409 1.993 . S
N426 N425 1.388 . S
N426 C427 1.346 . S
C427 N426 1.346 . S
C427 C428 1.396 . S
C427 C437 1.510 . S
C428 C424 1.401 . S
C428 C427 1.396 . S
C429 C424 1.499 . S
C429 H430 0.959 . S
C429 H431 0.960 . S
C429 H432 0.961 . S
H430 C429 0.959 . S
H431 C429 0.960 . S
H432 C429 0.961 . S
O433 Co408 1.967 . S
O433 C441 1.258 . S
O434 Co409 1.941 . S
O434 C441 1.266 . S
H435 C437 0.959 . S
H436 C437 0.961 . S
C437 C427 1.510 . S
C437 H435 0.959 . S
C437 H436 0.961 . S
C437 H438 0.960 . S
H438 C437 0.960 . S
H439 N419 0.862 . S
O440 Co408 1.920 . S
O440 C413 1.289 . S
C441 O433 1.258 . S
C441 O434 1.266 . S
Co442 O445 1.970 . S
Co442 N459 1.989 . S
Co442 O467 1.967 . S
Co442 O474 1.920 . S
Co443 O446 1.966 . S
Co443 N452 2.022 . S
Co443 N460 1.993 . S
Co443 O468 1.941 . S
C444 O445 1.258 . S
C444 O446 1.263 . S
O445 Co442 1.970 . S
O445 C444 1.258 . S
O446 Co443 1.966 . S
O446 C444 1.263 . S
C447 O448 1.235 . S
C447 O474 1.289 . S
O448 C447 1.235 . S
C449 C451 1.400 . S
C449 N452 1.351 . S
C449 C454 1.501 . S
C450 C451 1.387 . S
C450 N453 1.341 . S
C451 C449 1.400 . S
C451 C450 1.387 . S
N452 Co443 2.022 . S
N452 C449 1.351 . S
N452 N453 1.365 . S
N453 C450 1.341 . S
N453 N452 1.365 . S
N453 H473 0.862 . S
C454 C449 1.501 . S
C454 H455 0.961 . S
C454 H456 0.961 . S
C454 H457 0.960 . S
H455 C454 0.961 . S
H456 C454 0.961 . S
H457 C454 0.960 . S
C458 N459 1.342 . S
C458 C462 1.401 . S
C458 C463 1.499 . S
N459 Co442 1.989 . S
N459 C458 1.342 . S
N459 N460 1.388 . S
N460 Co443 1.993 . S
N460 N459 1.388 . S
N460 C461 1.346 . S
C461 N460 1.346 . S
C461 C462 1.396 . S
C461 C471 1.510 . S
C462 C458 1.401 . S
C462 C461 1.396 . S
C463 C458 1.499 . S
C463 H464 0.959 . S
C463 H465 0.960 . S
C463 H466 0.961 . S
H464 C463 0.959 . S
H465 C463 0.960 . S
H466 C463 0.961 . S
O467 Co442 1.967 . S
O467 C475 1.258 . S
O468 Co443 1.941 . S
O468 C475 1.266 . S
H469 C471 0.959 . S
H470 C471 0.961 . S
C471 C461 1.510 . S
C471 H469 0.959 . S
C471 H470 0.961 . S
C471 H472 0.960 . S
H472 C471 0.960 . S
H473 N453 0.862 . S
O474 Co442 1.920 . S
O474 C447 1.289 . S
C475 O467 1.258 . S
C475 O468 1.266 . S
Co476 O479 1.970 . S
Co476 N493 1.989 . S
Co476 O501 1.967 . S
Co476 O508 1.920 . S
Co477 O480 1.966 . S
Co477 N486 2.022 . S
Co477 N494 1.993 . S
Co477 O502 1.941 . S
C478 O479 1.258 . S
C478 O480 1.263 . S
O479 Co476 1.970 . S
O479 C478 1.258 . S
O480 Co477 1.966 . S
O480 C478 1.263 . S
C481 O482 1.235 . S
C481 O508 1.289 . S
O482 C481 1.235 . S
C483 C485 1.400 . S
C483 N486 1.351 . S
C483 C488 1.501 . S
C484 C485 1.387 . S
C484 N487 1.341 . S
C485 C483 1.400 . S
C485 C484 1.387 . S
N486 Co477 2.022 . S
N486 C483 1.351 . S
N486 N487 1.365 . S
N487 C484 1.341 . S
N487 N486 1.365 . S
N487 H507 0.862 . S
C488 C483 1.501 . S
C488 H489 0.961 . S
C488 H490 0.961 . S
C488 H491 0.960 . S
H489 C488 0.961 . S
H490 C488 0.961 . S
H491 C488 0.960 . S
C492 N493 1.342 . S
C492 C496 1.401 . S
C492 C497 1.499 . S
N493 Co476 1.989 . S
N493 C492 1.342 . S
N493 N494 1.388 . S
N494 Co477 1.993 . S
N494 N493 1.388 . S
N494 C495 1.346 . S
C495 N494 1.346 . S
C495 C496 1.396 . S
C495 C505 1.510 . S
C496 C492 1.401 . S
C496 C495 1.396 . S
C497 C492 1.499 . S
C497 H498 0.959 . S
C497 H499 0.960 . S
C497 H500 0.961 . S
H498 C497 0.959 . S
H499 C497 0.960 . S
H500 C497 0.961 . S
O501 Co476 1.967 . S
O501 C509 1.258 . S
O502 Co477 1.941 . S
O502 C509 1.266 . S
H503 C505 0.959 . S
H504 C505 0.961 . S
C505 C495 1.510 . S
C505 H503 0.959 . S
C505 H504 0.961 . S
C505 H506 0.960 . S
H506 C505 0.960 . S
H507 N487 0.862 . S
O508 Co476 1.920 . S
O508 C481 1.289 . S
C509 O501 1.258 . S
C509 O502 1.266 . S
Co510 O513 1.970 . S
Co510 N527 1.989 1_554 S
Co510 O535 1.967 . S
Co510 O542 1.920 1_554 S
Co511 O514 1.966 . S
Co511 N520 2.022 1_455 S
Co511 N528 1.993 1_554 S
Co511 O536 1.941 . S
C512 O513 1.258 . S
C512 O514 1.263 . S
O513 Co510 1.970 . S
O513 C512 1.258 . S
O514 Co511 1.966 . S
O514 C512 1.263 . S
C515 O516 1.235 . S
C515 O542 1.289 . S
O516 C515 1.235 . S
C517 C519 1.400 . S
C517 N520 1.351 . S
C517 C522 1.501 . S
C518 C519 1.387 1_556 S
C518 N521 1.341 . S
C519 C517 1.400 . S
C519 C518 1.387 1_554 S
N520 Co511 2.022 1_655 S
N520 C517 1.351 . S
N520 N521 1.365 1_554 S
N521 C518 1.341 . S
N521 N520 1.365 1_556 S
N521 H541 0.862 . S
C522 C517 1.501 . S
C522 H523 0.961 . S
C522 H524 0.961 . S
C522 H525 0.960 . S
H523 C522 0.961 . S
H524 C522 0.961 . S
H525 C522 0.960 . S
C526 N527 1.342 . S
C526 C530 1.401 . S
C526 C531 1.499 . S
N527 Co510 1.989 1_556 S
N527 C526 1.342 . S
N527 N528 1.388 . S
N528 Co511 1.993 1_556 S
N528 N527 1.388 . S
N528 C529 1.346 . S
C529 N528 1.346 . S
C529 C530 1.396 . S
C529 C539 1.510 1_455 S
C530 C526 1.401 . S
C530 C529 1.396 . S
C531 C526 1.499 . S
C531 H532 0.959 . S
C531 H533 0.960 . S
C531 H534 0.961 . S
H532 C531 0.959 . S
H533 C531 0.960 . S
H534 C531 0.961 . S
O535 Co510 1.967 . S
O535 C543 1.258 . S
O536 Co511 1.941 . S
O536 C543 1.266 . S
H537 C539 0.959 . S
H538 C539 0.961 . S
C539 C529 1.510 1_655 S
C539 H537 0.959 . S
C539 H538 0.961 . S
C539 H540 0.960 . S
H540 C539 0.960 . S
H541 N521 0.862 . S
O542 Co510 1.920 1_556 S
O542 C515 1.289 . S
C543 O535 1.258 . S
C543 O536 1.266 . S
Co544 O547 1.970 . S
Co544 N561 1.989 . S
Co544 O569 1.967 . S
Co544 O576 1.920 . S
Co545 O548 1.966 . S
Co545 N554 2.022 . S
Co545 N562 1.993 . S
Co545 O570 1.941 . S
C546 O547 1.258 . S
C546 O548 1.263 . S
O547 Co544 1.970 . S
O547 C546 1.258 . S
O548 Co545 1.966 . S
O548 C546 1.263 . S
C549 O550 1.235 . S
C549 O576 1.289 . S
O550 C549 1.235 . S
C551 C553 1.400 . S
C551 N554 1.351 . S
C551 C556 1.501 . S
C552 C553 1.387 . S
C552 N555 1.341 . S
C553 C551 1.400 . S
C553 C552 1.387 . S
N554 Co545 2.022 . S
N554 C551 1.351 . S
N554 N555 1.365 . S
N555 C552 1.341 . S
N555 N554 1.365 . S
N555 H575 0.862 . S
C556 C551 1.501 . S
C556 H557 0.961 . S
C556 H558 0.961 . S
C556 H559 0.960 . S
H557 C556 0.961 . S
H558 C556 0.961 . S
H559 C556 0.960 . S
C560 N561 1.342 . S
C560 C564 1.401 . S
C560 C565 1.499 . S
N561 Co544 1.989 . S
N561 C560 1.342 . S
N561 N562 1.388 . S
N562 Co545 1.993 . S
N562 N561 1.388 . S
N562 C563 1.346 . S
C563 N562 1.346 . S
C563 C564 1.396 . S
C563 C573 1.510 . S
C564 C560 1.401 . S
C564 C563 1.396 . S
C565 C560 1.499 . S
C565 H566 0.959 . S
C565 H567 0.960 . S
C565 H568 0.961 . S
H566 C565 0.959 . S
H567 C565 0.960 . S
H568 C565 0.961 . S
O569 Co544 1.967 . S
O569 C577 1.258 . S
O570 Co545 1.941 . S
O570 C577 1.266 . S
H571 C573 0.959 . S
H572 C573 0.961 . S
C573 C563 1.510 . S
C573 H571 0.959 . S
C573 H572 0.961 . S
C573 H574 0.960 . S
H574 C573 0.960 . S
H575 N555 0.862 . S
O576 Co544 1.920 . S
O576 C549 1.289 . S
C577 O569 1.258 . S
C577 O570 1.266 . S
Co578 O581 1.970 . S
Co578 N595 1.989 . S
Co578 O603 1.967 . S
Co578 O610 1.920 . S
Co579 O582 1.966 . S
Co579 N588 2.022 . S
Co579 N596 1.993 . S
Co579 O604 1.941 . S
C580 O581 1.258 . S
C580 O582 1.263 . S
O581 Co578 1.970 . S
O581 C580 1.258 . S
O582 Co579 1.966 . S
O582 C580 1.263 . S
C583 O584 1.235 . S
C583 O610 1.289 . S
O584 C583 1.235 . S
C585 C587 1.400 . S
C585 N588 1.351 . S
C585 C590 1.501 . S
C586 C587 1.387 . S
C586 N589 1.341 . S
C587 C585 1.400 . S
C587 C586 1.387 . S
N588 Co579 2.022 . S
N588 C585 1.351 . S
N588 N589 1.365 . S
N589 C586 1.341 . S
N589 N588 1.365 . S
N589 H609 0.862 . S
C590 C585 1.501 . S
C590 H591 0.961 . S
C590 H592 0.961 . S
C590 H593 0.960 . S
H591 C590 0.961 . S
H592 C590 0.961 . S
H593 C590 0.960 . S
C594 N595 1.342 . S
C594 C598 1.401 . S
C594 C599 1.499 . S
N595 Co578 1.989 . S
N595 C594 1.342 . S
N595 N596 1.388 . S
N596 Co579 1.993 . S
N596 N595 1.388 . S
N596 C597 1.346 . S
C597 N596 1.346 . S
C597 C598 1.396 . S
C597 C607 1.510 . S
C598 C594 1.401 . S
C598 C597 1.396 . S
C599 C594 1.499 . S
C599 H600 0.959 . S
C599 H601 0.960 . S
C599 H602 0.961 . S
H600 C599 0.959 . S
H601 C599 0.960 . S
H602 C599 0.961 . S
O603 Co578 1.967 . S
O603 C611 1.258 . S
O604 Co579 1.941 . S
O604 C611 1.266 . S
H605 C607 0.959 . S
H606 C607 0.961 . S
C607 C597 1.510 . S
C607 H605 0.959 . S
C607 H606 0.961 . S
C607 H608 0.960 . S
H608 C607 0.960 . S
H609 N589 0.862 . S
O610 Co578 1.920 . S
O610 C583 1.289 . S
C611 O603 1.258 . S
C611 O604 1.266 . S
Co612 O615 1.995 . S
Co612 N629 1.970 1_565 S
Co612 O637 1.971 . S
Co612 O644 1.914 1_565 S
Co613 O616 1.966 . S
Co613 N622 2.022 . S
Co613 N630 1.993 1_565 S
Co613 O638 1.941 . S
C614 O615 1.258 . S
C614 O616 1.263 . S
O615 Co612 1.995 . S
O615 C614 1.258 . S
O616 Co613 1.966 . S
O616 C614 1.263 . S
C617 O618 1.235 . S
C617 O644 1.289 . S
O618 C617 1.235 . S
C619 C621 1.400 . S
C619 N622 1.351 . S
C619 C624 1.501 . S
C620 C621 1.387 1_545 S
C620 N623 1.341 . S
C621 C619 1.400 . S
C621 C620 1.387 1_565 S
N622 Co613 2.022 . S
N622 C619 1.351 . S
N622 N623 1.365 1_565 S
N623 C620 1.341 . S
N623 N622 1.365 1_545 S
N623 H643 0.862 . S
C624 C619 1.501 . S
C624 H625 0.961 . S
C624 H626 0.961 . S
C624 H627 0.960 . S
H625 C624 0.961 . S
H626 C624 0.961 . S
H627 C624 0.960 . S
C628 N629 1.342 . S
C628 C632 1.401 . S
C628 C633 1.499 . S
N629 Co612 1.970 1_545 S
N629 C628 1.342 . S
N629 N630 1.388 . S
N630 Co613 1.993 1_545 S
N630 N629 1.388 . S
N630 C631 1.346 . S
C631 N630 1.346 . S
C631 C632 1.396 . S
C631 C641 1.510 . S
C632 C628 1.401 . S
C632 C631 1.396 . S
C633 C628 1.499 . S
C633 H634 0.959 . S
C633 H635 0.960 . S
C633 H636 0.961 . S
H634 C633 0.959 . S
H635 C633 0.960 . S
H636 C633 0.961 . S
O637 Co612 1.971 . S
O637 C645 1.258 . S
O638 Co613 1.941 . S
O638 C645 1.266 . S
H639 C641 0.959 . S
H640 C641 0.961 . S
C641 C631 1.510 . S
C641 H639 0.959 . S
C641 H640 0.961 . S
C641 H642 0.960 . S
H642 C641 0.960 . S
H643 N623 0.862 . S
O644 Co612 1.914 1_545 S
O644 C617 1.289 . S
C645 O637 1.258 . S
C645 O638 1.266 . S
Co646 O649 1.970 . S
Co646 N663 1.989 . S
Co646 O671 1.967 . S
Co646 O678 1.920 . S
Co647 O650 1.966 . S
Co647 N656 2.022 . S
Co647 N664 1.993 . S
Co647 O672 1.941 . S
C648 O649 1.258 . S
C648 O650 1.263 . S
O649 Co646 1.970 . S
O649 C648 1.258 . S
O650 Co647 1.966 . S
O650 C648 1.263 . S
C651 O652 1.235 . S
C651 O678 1.289 . S
O652 C651 1.235 . S
C653 C655 1.400 . S
C653 N656 1.351 . S
C653 C658 1.501 . S
C654 C655 1.387 1_565 S
C654 N657 1.341 1_565 S
C655 C653 1.400 . S
C655 C654 1.387 1_545 S
N656 Co647 2.022 . S
N656 C653 1.351 . S
N656 N657 1.365 . S
N657 C654 1.341 1_545 S
N657 N656 1.365 . S
N657 H677 0.862 . S
C658 C653 1.501 . S
C658 H659 0.961 . S
C658 H660 0.961 . S
C658 H661 0.960 . S
H659 C658 0.961 . S
H660 C658 0.961 . S
H661 C658 0.960 . S
C662 N663 1.342 . S
C662 C666 1.401 . S
C662 C667 1.499 . S
N663 Co646 1.989 . S
N663 C662 1.342 . S
N663 N664 1.388 . S
N664 Co647 1.993 . S
N664 N663 1.388 . S
N664 C665 1.346 . S
C665 N664 1.346 . S
C665 C666 1.396 . S
C665 C675 1.510 . S
C666 C662 1.401 . S
C666 C665 1.396 . S
C667 C662 1.499 . S
C667 H668 0.959 . S
C667 H669 0.960 . S
C667 H670 0.961 . S
H668 C667 0.959 . S
H669 C667 0.960 . S
H670 C667 0.961 . S
O671 Co646 1.967 . S
O671 C679 1.258 . S
O672 Co647 1.941 . S
O672 C679 1.266 . S
H673 C675 0.959 . S
H674 C675 0.961 . S
C675 C665 1.510 . S
C675 H673 0.959 . S
C675 H674 0.961 . S
C675 H676 0.960 . S
H676 C675 0.960 . S
H677 N657 0.862 . S
O678 Co646 1.920 . S
O678 C651 1.289 . S
C679 O671 1.258 . S
C679 O672 1.266 . S
Co680 O683 1.970 . S
Co680 N697 1.989 1_545 S
Co680 O705 1.967 . S
Co680 O712 1.920 1_545 S
Co681 O684 1.966 . S
Co681 N690 2.022 1_554 S
Co681 N698 1.993 1_545 S
Co681 O706 1.941 . S
C682 O683 1.258 . S
C682 O684 1.263 . S
O683 Co680 1.970 . S
O683 C682 1.258 . S
O684 Co681 1.966 . S
O684 C682 1.263 . S
C685 O686 1.235 . S
C685 O712 1.289 . S
O686 C685 1.235 . S
C687 C689 1.400 . S
C687 N690 1.351 . S
C687 C692 1.501 . S
C688 C689 1.387 1_565 S
C688 N691 1.341 . S
C689 C687 1.400 . S
C689 C688 1.387 1_545 S
N690 Co681 2.022 1_556 S
N690 C687 1.351 . S
N690 N691 1.365 1_545 S
N691 C688 1.341 . S
N691 N690 1.365 1_565 S
N691 H711 0.862 . S
C692 C687 1.501 . S
C692 H693 0.961 . S
C692 H694 0.961 . S
C692 H695 0.960 . S
H693 C692 0.961 . S
H694 C692 0.961 . S
H695 C692 0.960 . S
C696 N697 1.342 . S
C696 C700 1.401 . S
C696 C701 1.499 . S
N697 Co680 1.989 1_565 S
N697 C696 1.342 . S
N697 N698 1.388 . S
N698 Co681 1.993 1_565 S
N698 N697 1.388 . S
N698 C699 1.346 . S
C699 N698 1.346 . S
C699 C700 1.396 . S
C699 C709 1.510 1_554 S
C700 C696 1.401 . S
C700 C699 1.396 . S
C701 C696 1.499 . S
C701 H702 0.959 . S
C701 H703 0.960 . S
C701 H704 0.961 . S
H702 C701 0.959 . S
H703 C701 0.960 . S
H704 C701 0.961 . S
O705 Co680 1.967 . S
O705 C713 1.258 . S
O706 Co681 1.941 . S
O706 C713 1.266 . S
H707 C709 0.959 . S
H708 C709 0.961 . S
C709 C699 1.510 1_556 S
C709 H707 0.959 . S
C709 H708 0.961 . S
C709 H710 0.960 . S
H710 C709 0.960 . S
H711 N691 0.862 . S
O712 Co680 1.920 1_565 S
O712 C685 1.289 . S
C713 O705 1.258 . S
C713 O706 1.266 . S
Co714 O717 1.970 . S
Co714 N731 1.989 . S
Co714 O739 1.967 . S
Co714 O746 1.920 . S
Co715 O718 1.966 . S
Co715 N724 2.022 . S
Co715 N732 1.993 . S
Co715 O740 1.941 . S
C716 O717 1.258 . S
C716 O718 1.263 . S
O717 Co714 1.970 . S
O717 C716 1.258 . S
O718 Co715 1.966 . S
O718 C716 1.263 . S
C719 O720 1.235 . S
C719 O746 1.289 . S
O720 C719 1.235 . S
C721 C723 1.400 . S
C721 N724 1.351 . S
C721 C726 1.501 . S
C722 C723 1.387 . S
C722 N725 1.341 . S
C723 C721 1.400 . S
C723 C722 1.387 . S
N724 Co715 2.022 . S
N724 C721 1.351 . S
N724 N725 1.365 . S
N725 C722 1.341 . S
N725 N724 1.365 . S
N725 H745 0.862 . S
C726 C721 1.501 . S
C726 H727 0.961 . S
C726 H728 0.961 . S
C726 H729 0.960 . S
H727 C726 0.961 . S
H728 C726 0.961 . S
H729 C726 0.960 . S
C730 N731 1.342 . S
C730 C734 1.401 . S
C730 C735 1.499 . S
N731 Co714 1.989 . S
N731 C730 1.342 . S
N731 N732 1.388 . S
N732 Co715 1.993 . S
N732 N731 1.388 . S
N732 C733 1.346 . S
C733 N732 1.346 . S
C733 C734 1.396 . S
C733 C743 1.510 . S
C734 C730 1.401 . S
C734 C733 1.396 . S
C735 C730 1.499 . S
C735 H736 0.959 . S
C735 H737 0.960 . S
C735 H738 0.961 . S
H736 C735 0.959 . S
H737 C735 0.960 . S
H738 C735 0.961 . S
O739 Co714 1.967 . S
O739 C747 1.258 . S
O740 Co715 1.941 . S
O740 C747 1.266 . S
H741 C743 0.959 . S
H742 C743 0.961 . S
C743 C733 1.510 . S
C743 H741 0.959 . S
C743 H742 0.961 . S
C743 H744 0.960 . S
H744 C743 0.960 . S
H745 N725 0.862 . S
O746 Co714 1.920 . S
O746 C719 1.289 . S
C747 O739 1.258 . S
C747 O740 1.266 . S
Co748 O751 1.970 . S
Co748 N765 1.989 . S
Co748 O773 1.967 . S
Co748 O780 1.920 . S
Co749 O752 1.966 . S
Co749 N758 2.022 . S
Co749 N766 1.993 . S
Co749 O774 1.941 . S
C750 O751 1.258 . S
C750 O752 1.263 . S
O751 Co748 1.970 . S
O751 C750 1.258 . S
O752 Co749 1.966 . S
O752 C750 1.263 . S
C753 O754 1.235 . S
C753 O780 1.289 . S
O754 C753 1.235 . S
C755 C757 1.400 . S
C755 N758 1.351 . S
C755 C760 1.501 . S
C756 C757 1.387 . S
C756 N759 1.341 . S
C757 C755 1.400 . S
C757 C756 1.387 . S
N758 Co749 2.022 . S
N758 C755 1.351 . S
N758 N759 1.365 . S
N759 C756 1.341 . S
N759 N758 1.365 . S
N759 H779 0.862 . S
C760 C755 1.501 . S
C760 H761 0.961 . S
C760 H762 0.961 . S
C760 H763 0.960 . S
H761 C760 0.961 . S
H762 C760 0.961 . S
H763 C760 0.960 . S
C764 N765 1.342 . S
C764 C768 1.401 . S
C764 C769 1.499 . S
N765 Co748 1.989 . S
N765 C764 1.342 . S
N765 N766 1.388 . S
N766 Co749 1.993 . S
N766 N765 1.388 . S
N766 C767 1.346 . S
C767 N766 1.346 . S
C767 C768 1.396 . S
C767 C777 1.510 . S
C768 C764 1.401 . S
C768 C767 1.396 . S
C769 C764 1.499 . S
C769 H770 0.959 . S
C769 H771 0.960 . S
C769 H772 0.961 . S
H770 C769 0.959 . S
H771 C769 0.960 . S
H772 C769 0.961 . S
O773 Co748 1.967 . S
O773 C781 1.258 . S
O774 Co749 1.941 . S
O774 C781 1.266 . S
H775 C777 0.959 . S
H776 C777 0.961 . S
C777 C767 1.510 . S
C777 H775 0.959 . S
C777 H776 0.961 . S
C777 H778 0.960 . S
H778 C777 0.960 . S
H779 N759 0.862 . S
O780 Co748 1.920 . S
O780 C753 1.289 . S
C781 O773 1.258 . S
C781 O774 1.266 . S
Co782 O785 1.970 . S
Co782 N799 1.989 . S
Co782 O807 1.967 . S
Co782 O814 1.920 . S
Co783 O786 1.966 . S
Co783 N792 2.022 1_556 S
Co783 N800 1.993 . S
Co783 O808 1.941 . S
C784 O785 1.258 . S
C784 O786 1.263 . S
O785 Co782 1.970 . S
O785 C784 1.258 . S
O786 Co783 1.966 . S
O786 C784 1.263 . S
C787 O788 1.235 . S
C787 O814 1.289 . S
O788 C787 1.235 . S
C789 C791 1.400 . S
C789 N792 1.351 . S
C789 C794 1.501 . S
C790 C791 1.387 . S
C790 N793 1.341 . S
C791 C789 1.400 . S
C791 C790 1.387 . S
N792 Co783 2.022 1_554 S
N792 C789 1.351 . S
N792 N793 1.365 . S
N793 C790 1.341 . S
N793 N792 1.365 . S
N793 H813 0.862 . S
C794 C789 1.501 . S
C794 H795 0.961 . S
C794 H796 0.961 . S
C794 H797 0.960 . S
H795 C794 0.961 . S
H796 C794 0.961 . S
H797 C794 0.960 . S
C798 N799 1.342 . S
C798 C802 1.401 . S
C798 C803 1.499 . S
N799 Co782 1.989 . S
N799 C798 1.342 . S
N799 N800 1.388 . S
N800 Co783 1.993 . S
N800 N799 1.388 . S
N800 C801 1.346 . S
C801 N800 1.346 . S
C801 C802 1.396 . S
C801 C811 1.510 1_556 S
C802 C798 1.401 . S
C802 C801 1.396 . S
C803 C798 1.499 . S
C803 H804 0.959 . S
C803 H805 0.960 . S
C803 H806 0.961 . S
H804 C803 0.959 . S
H805 C803 0.960 . S
H806 C803 0.961 . S
O807 Co782 1.967 . S
O807 C815 1.258 . S
O808 Co783 1.941 . S
O808 C815 1.266 . S
H809 C811 0.959 . S
H810 C811 0.961 . S
C811 C801 1.510 1_554 S
C811 H809 0.959 . S
C811 H810 0.961 . S
C811 H812 0.960 . S
H812 C811 0.960 . S
H813 N793 0.862 . S
O814 Co782 1.920 . S
O814 C787 1.289 . S
C815 O807 1.258 . S
C815 O808 1.266 . S
C816 C817 1.369 . S
C816 C818 1.419 . S
C816 H820 0.930 . S
C817 C816 1.369 . S
C817 C826 1.429 . S
C818 C816 1.419 . S
C818 C819 1.363 . S
C818 H821 0.929 . S
C819 C818 1.363 . S
C819 C825 1.428 . S
H820 C816 0.930 . S
H821 C818 0.929 . S
S822 N823 1.613 . S
S822 N824 1.610 . S
N823 S822 1.613 . S
N823 C826 1.350 . S
N824 S822 1.610 . S
N824 C825 1.351 . S
C825 C819 1.428 . S
C825 N824 1.351 . S
C825 C826 1.434 . S
C826 C817 1.429 . S
C826 N823 1.350 . S
C826 C825 1.434 . S
C827 C828 1.369 . S
C827 C829 1.419 . S
C827 H831 0.930 . S
C828 C827 1.369 . S
C828 C837 1.429 . S
C829 C827 1.419 . S
C829 C830 1.363 . S
C829 H832 0.929 . S
C830 C829 1.363 . S
C830 C836 1.428 . S
H831 C827 0.930 . S
H832 C829 0.929 . S
S833 N834 1.613 . S
S833 N835 1.610 . S
N834 S833 1.613 . S
N834 C837 1.350 . S
N835 S833 1.610 . S
N835 C836 1.351 . S
C836 C830 1.428 . S
C836 N835 1.351 . S
C836 C837 1.434 . S
C837 C828 1.429 . S
C837 N834 1.350 . S
C837 C836 1.434 . S
C838 C839 1.369 . S
C838 C840 1.419 . S
C838 H842 0.930 . S
C839 C838 1.369 . S
C839 C848 1.429 . S
C840 C838 1.419 . S
C840 C841 1.363 . S
C840 H843 0.929 . S
C841 C840 1.363 . S
C841 C847 1.428 . S
H842 C838 0.930 . S
H843 C840 0.929 . S
S844 N845 1.613 . S
S844 N846 1.610 . S
N845 S844 1.613 . S
N845 C848 1.350 . S
N846 S844 1.610 . S
N846 C847 1.351 . S
C847 C841 1.428 . S
C847 N846 1.351 . S
C847 C848 1.434 . S
C848 C839 1.429 . S
C848 N845 1.350 . S
C848 C847 1.434 . S
C849 C850 1.369 . S
C849 C851 1.419 . S
C849 H853 0.930 . S
C850 C849 1.369 . S
C850 C859 1.429 . S
C851 C849 1.419 . S
C851 C852 1.363 . S
C851 H854 0.929 . S
C852 C851 1.363 . S
C852 C858 1.428 . S
H853 C849 0.930 . S
H854 C851 0.929 . S
S855 N856 1.613 . S
S855 N857 1.610 . S
N856 S855 1.613 . S
N856 C859 1.350 . S
N857 S855 1.610 . S
N857 C858 1.351 . S
C858 C852 1.428 . S
C858 N857 1.351 . S
C858 C859 1.434 . S
C859 C850 1.429 . S
C859 N856 1.350 . S
C859 C858 1.434 . S
C860 C861 1.369 . S
C860 C862 1.419 . S
C860 H864 0.930 . S
C861 C860 1.369 . S
C861 C870 1.429 . S
C862 C860 1.419 . S
C862 C863 1.363 . S
C862 H865 0.929 . S
C863 C862 1.363 . S
C863 C869 1.428 . S
H864 C860 0.930 . S
H865 C862 0.929 . S
S866 N867 1.613 . S
S866 N868 1.610 . S
N867 S866 1.613 . S
N867 C870 1.350 . S
N868 S866 1.610 . S
N868 C869 1.351 . S
C869 C863 1.428 . S
C869 N868 1.351 . S
C869 C870 1.434 . S
C870 C861 1.429 . S
C870 N867 1.350 . S
C870 C869 1.434 . S
C871 C872 1.369 . S
C871 C873 1.419 . S
C871 H875 0.930 . S
C872 C871 1.369 . S
C872 C881 1.429 1_565 S
C873 C871 1.419 . S
C873 C874 1.363 . S
C873 H876 0.929 . S
C874 C873 1.363 . S
C874 C880 1.428 1_565 S
H875 C871 0.930 . S
H876 C873 0.929 . S
S877 N878 1.613 . S
S877 N879 1.610 . S
N878 S877 1.613 . S
N878 C881 1.350 . S
N879 S877 1.610 . S
N879 C880 1.351 . S
C880 C874 1.428 1_545 S
C880 N879 1.351 . S
C880 C881 1.434 . S
C881 C872 1.429 1_545 S
C881 N878 1.350 . S
C881 C880 1.434 . S
C882 C883 1.369 . S
C882 C884 1.419 . S
C882 H886 0.930 . S
C883 C882 1.369 . S
C883 C892 1.429 . S
C884 C882 1.419 . S
C884 C885 1.363 . S
C884 H887 0.929 . S
C885 C884 1.363 . S
C885 C891 1.428 . S
H886 C882 0.930 . S
H887 C884 0.929 . S
S888 N889 1.613 . S
S888 N890 1.610 . S
N889 S888 1.613 . S
N889 C892 1.350 . S
N890 S888 1.610 . S
N890 C891 1.351 . S
C891 C885 1.428 . S
C891 N890 1.351 . S
C891 C892 1.434 . S
C892 C883 1.429 . S
C892 N889 1.350 . S
C892 C891 1.434 . S
C893 C894 1.369 . S
C893 C895 1.419 . S
C893 H897 0.930 . S
C894 C893 1.369 . S
C894 C903 1.429 . S
C895 C893 1.419 . S
C895 C896 1.363 . S
C895 H898 0.929 . S
C896 C895 1.363 . S
C896 C902 1.428 . S
H897 C893 0.930 . S
H898 C895 0.929 . S
S899 N900 1.613 . S
S899 N901 1.610 . S
N900 S899 1.613 . S
N900 C903 1.350 . S
N901 S899 1.610 . S
N901 C902 1.351 . S
C902 C896 1.428 . S
C902 N901 1.351 . S
C902 C903 1.434 . S
C903 C894 1.429 . S
C903 N900 1.350 . S
C903 C902 1.434 . S
C904 C905 1.369 . S
C904 C906 1.419 . S
C904 H908 0.930 . S
C905 C904 1.369 . S
C905 C914 1.429 . S
C906 C904 1.419 . S
C906 C907 1.363 . S
C906 H909 0.929 . S
C907 C906 1.363 . S
C907 C913 1.428 . S
H908 C904 0.930 . S
H909 C906 0.929 . S
S910 N911 1.613 . S
S910 N912 1.610 . S
N911 S910 1.613 . S
N911 C914 1.350 . S
N912 S910 1.610 . S
N912 C913 1.351 . S
C913 C907 1.428 . S
C913 N912 1.351 . S
C913 C914 1.434 . S
C914 C905 1.429 . S
C914 N911 1.350 . S
C914 C913 1.434 . S
C915 C916 1.369 . S
C915 C917 1.419 . S
C915 H919 0.930 . S
C916 C915 1.369 . S
C916 C925 1.429 . S
C917 C915 1.419 . S
C917 C918 1.363 . S
C917 H920 0.929 . S
C918 C917 1.363 . S
C918 C924 1.428 . S
H919 C915 0.930 . S
H920 C917 0.929 . S
S921 N922 1.613 . S
S921 N923 1.610 . S
N922 S921 1.613 . S
N922 C925 1.350 . S
N923 S921 1.610 . S
N923 C924 1.351 . S
C924 C918 1.428 . S
C924 N923 1.351 . S
C924 C925 1.434 . S
C925 C916 1.429 . S
C925 N922 1.350 . S
C925 C924 1.434 . S
C926 C927 1.369 . S
C926 C928 1.419 . S
C926 H930 0.930 . S
C927 C926 1.369 . S
C927 C936 1.429 . S
C928 C926 1.419 . S
C928 C929 1.363 . S
C928 H931 0.929 . S
C929 C928 1.363 . S
C929 C935 1.428 . S
H930 C926 0.930 . S
H931 C928 0.929 . S
S932 N933 1.613 . S
S932 N934 1.610 . S
N933 S932 1.613 . S
N933 C936 1.350 . S
N934 S932 1.610 . S
N934 C935 1.351 . S
C935 C929 1.428 . S
C935 N934 1.351 . S
C935 C936 1.434 . S
C936 C927 1.429 . S
C936 N933 1.350 . S
C936 C935 1.434 . S
C937 C938 1.369 . S
C937 C939 1.419 . S
C937 H941 0.930 . S
C938 C937 1.369 . S
C938 C947 1.429 . S
C939 C937 1.419 . S
C939 C940 1.363 . S
C939 H942 0.929 . S
C940 C939 1.363 . S
C940 C946 1.428 . S
H941 C937 0.930 . S
H942 C939 0.929 . S
S943 N944 1.613 . S
S943 N945 1.610 . S
N944 S943 1.613 . S
N944 C947 1.350 . S
N945 S943 1.610 . S
N945 C946 1.351 . S
C946 C940 1.428 . S
C946 N945 1.351 . S
C946 C947 1.434 . S
C947 C938 1.429 . S
C947 N944 1.350 . S
C947 C946 1.434 . S
C948 C949 1.369 . S
C948 C950 1.419 . S
C948 H952 0.930 . S
C949 C948 1.369 . S
C949 C958 1.429 . S
C950 C948 1.419 . S
C950 C951 1.363 . S
C950 H953 0.929 . S
C951 C950 1.363 . S
C951 C957 1.428 . S
H952 C948 0.930 . S
H953 C950 0.929 . S
S954 N955 1.613 . S
S954 N956 1.610 . S
N955 S954 1.613 . S
N955 C958 1.350 . S
N956 S954 1.610 . S
N956 C957 1.351 . S
C957 C951 1.428 . S
C957 N956 1.351 . S
C957 C958 1.434 . S
C958 C949 1.429 . S
C958 N955 1.350 . S
C958 C957 1.434 . S
C959 C960 1.369 . S
C959 C961 1.419 . S
C959 H963 0.930 . S
C960 C959 1.369 . S
C960 C969 1.429 . S
C961 C959 1.419 . S
C961 C962 1.363 . S
C961 H964 0.929 . S
C962 C961 1.363 . S
C962 C968 1.428 . S
H963 C959 0.930 . S
H964 C961 0.929 . S
S965 N966 1.613 . S
S965 N967 1.610 . S
N966 S965 1.613 . S
N966 C969 1.350 . S
N967 S965 1.610 . S
N967 C968 1.351 . S
C968 C962 1.428 . S
C968 N967 1.351 . S
C968 C969 1.434 . S
C969 C960 1.429 . S
C969 N966 1.350 . S
C969 C968 1.434 . S
C970 C971 1.369 . S
C970 C972 1.419 . S
C970 H974 0.930 . S
C971 C970 1.369 . S
C971 C980 1.429 . S
C972 C970 1.419 . S
C972 C973 1.363 . S
C972 H975 0.929 . S
C973 C972 1.363 . S
C973 C979 1.428 . S
H974 C970 0.930 . S
H975 C972 0.929 . S
S976 N977 1.613 . S
S976 N978 1.610 . S
N977 S976 1.613 . S
N977 C980 1.350 . S
N978 S976 1.610 . S
N978 C979 1.351 . S
C979 C973 1.428 . S
C979 N978 1.351 . S
C979 C980 1.434 . S
C980 C971 1.429 . S
C980 N977 1.350 . S
C980 C979 1.434 . S
C981 C982 1.369 . S
C981 C983 1.419 . S
C981 H985 0.930 1_455 S
C982 C981 1.369 . S
C982 C991 1.429 . S
C983 C981 1.419 . S
C983 C984 1.363 . S
C983 H986 0.931 . S
C984 C983 1.363 . S
C984 C990 1.428 . S
H985 C981 0.930 1_655 S
H986 C983 0.931 . S
S987 N988 1.613 . S
S987 N989 1.610 . S
N988 S987 1.613 . S
N988 C991 1.350 . S
N989 S987 1.610 . S
N989 C990 1.351 . S
C990 C984 1.428 . S
C990 N989 1.351 . S
C990 C991 1.434 . S
C991 C982 1.429 . S
C991 N988 1.350 . S
C991 C990 1.434 . S
C992 C993 1.369 . S
C992 C994 1.419 . S
C992 H996 0.930 . S
C993 C992 1.369 . S
C993 C1002 1.429 . S
C994 C992 1.419 . S
C994 C995 1.363 . S
C994 H997 0.929 . S
C995 C994 1.363 . S
C995 C1001 1.428 . S
H996 C992 0.930 . S
H997 C994 0.929 . S
S998 N999 1.613 . S
S998 N1000 1.610 . S
N999 S998 1.613 . S
N999 C1002 1.350 . S
N1000 S998 1.610 . S
N1000 C1001 1.351 . S
C1001 C995 1.428 . S
C1001 N1000 1.351 . S
C1001 C1002 1.434 . S
C1002 C993 1.429 . S
C1002 N999 1.350 . S
C1002 C1001 1.434 . S
C1003 C1004 1.369 . S
C1003 C1005 1.419 . S
C1003 H1007 0.930 . S
C1004 C1003 1.369 . S
C1004 C1013 1.429 . S
C1005 C1003 1.419 . S
C1005 C1006 1.363 . S
C1005 H1008 0.929 . S
C1006 C1005 1.363 . S
C1006 C1012 1.428 . S
H1007 C1003 0.930 . S
H1008 C1005 0.929 . S
S1009 N1010 1.613 . S
S1009 N1011 1.610 . S
N1010 S1009 1.613 . S
N1010 C1013 1.350 . S
N1011 S1009 1.610 . S
N1011 C1012 1.351 . S
C1012 C1006 1.428 . S
C1012 N1011 1.351 . S
C1012 C1013 1.434 . S
C1013 C1004 1.429 . S
C1013 N1010 1.350 . S
C1013 C1012 1.434 . S
C1014 C1015 1.369 . S
C1014 C1016 1.419 . S
C1014 H1018 0.930 . S
C1015 C1014 1.369 . S
C1015 C1024 1.429 . S
C1016 C1014 1.419 . S
C1016 C1017 1.363 . S
C1016 H1019 0.929 . S
C1017 C1016 1.363 . S
C1017 C1023 1.428 . S
H1018 C1014 0.930 . S
H1019 C1016 0.929 . S
S1020 N1021 1.613 . S
S1020 N1022 1.610 . S
N1021 S1020 1.613 . S
N1021 C1024 1.350 . S
N1022 S1020 1.610 . S
N1022 C1023 1.351 . S
C1023 C1017 1.428 . S
C1023 N1022 1.351 . S
C1023 C1024 1.434 . S
C1024 C1015 1.429 . S
C1024 N1021 1.350 . S
C1024 C1023 1.434 . S
C1025 C1026 1.369 . S
C1025 C1027 1.419 . S
C1025 H1029 0.930 . S
C1026 C1025 1.369 . S
C1026 C1035 1.429 . S
C1027 C1025 1.419 . S
C1027 C1028 1.363 . S
C1027 H1030 0.929 . S
C1028 C1027 1.363 . S
C1028 C1034 1.428 . S
H1029 C1025 0.930 . S
H1030 C1027 0.929 . S
S1031 N1032 1.613 . S
S1031 N1033 1.610 . S
N1032 S1031 1.613 . S
N1032 C1035 1.350 . S
N1033 S1031 1.610 . S
N1033 C1034 1.351 . S
C1034 C1028 1.428 . S
C1034 N1033 1.351 . S
C1034 C1035 1.434 . S
C1035 C1026 1.429 . S
C1035 N1032 1.350 . S
C1035 C1034 1.434 . S
C1036 C1037 1.369 1_556 S
C1036 C1038 1.419 1_556 S
C1036 H1040 0.930 . S
C1037 C1036 1.369 1_554 S
C1037 C1046 1.429 . S
C1038 C1036 1.419 1_554 S
C1038 C1039 1.363 . S
C1038 H1041 0.929 1_554 S
C1039 C1038 1.363 . S
C1039 C1045 1.428 . S
H1040 C1036 0.930 . S
H1041 C1038 0.929 1_556 S
S1042 N1043 1.613 . S
S1042 N1044 1.610 . S
N1043 S1042 1.613 . S
N1043 C1046 1.350 . S
N1044 S1042 1.610 . S
N1044 C1045 1.351 . S
C1045 C1039 1.428 . S
C1045 N1044 1.351 . S
C1045 C1046 1.434 . S
C1046 C1037 1.429 . S
C1046 N1043 1.350 . S
C1046 C1045 1.434 . S
C1047 C1048 1.369 . S
C1047 C1049 1.419 . S
C1047 H1051 0.930 . S
C1048 C1047 1.369 . S
C1048 C1057 1.429 . S
C1049 C1047 1.419 . S
C1049 C1050 1.363 . S
C1049 H1052 0.929 . S
C1050 C1049 1.363 . S
C1050 C1056 1.428 . S
H1051 C1047 0.930 . S
H1052 C1049 0.929 . S
S1053 N1054 1.613 . S
S1053 N1055 1.610 . S
N1054 S1053 1.613 . S
N1054 C1057 1.350 . S
N1055 S1053 1.610 . S
N1055 C1056 1.351 . S
C1056 C1050 1.428 . S
C1056 N1055 1.351 . S
C1056 C1057 1.434 . S
C1057 C1048 1.429 . S
C1057 N1054 1.350 . S
C1057 C1056 1.434 . S
C1058 C1059 1.369 . S
C1058 C1060 1.419 . S
C1058 H1062 0.930 . S
C1059 C1058 1.369 . S
C1059 C1068 1.429 . S
C1060 C1058 1.419 . S
C1060 C1061 1.363 . S
C1060 H1063 0.929 . S
C1061 C1060 1.363 . S
C1061 C1067 1.428 . S
H1062 C1058 0.930 . S
H1063 C1060 0.929 . S
S1064 N1065 1.613 . S
S1064 N1066 1.610 . S
N1065 S1064 1.613 . S
N1065 C1068 1.350 . S
N1066 S1064 1.610 . S
N1066 C1067 1.351 . S
C1067 C1061 1.428 . S
C1067 N1066 1.351 . S
C1067 C1068 1.434 . S
C1068 C1059 1.429 . S
C1068 N1065 1.350 . S
C1068 C1067 1.434 . S
C1069 C1070 1.369 . S
C1069 C1071 1.419 . S
C1069 H1073 0.930 . S
C1070 C1069 1.369 . S
C1070 C1079 1.429 . S
C1071 C1069 1.419 . S
C1071 C1072 1.363 . S
C1071 H1074 0.929 . S
C1072 C1071 1.363 . S
C1072 C1078 1.428 1_556 S
H1073 C1069 0.930 . S
H1074 C1071 0.929 . S
S1075 N1076 1.613 . S
S1075 N1077 1.610 . S
N1076 S1075 1.613 . S
N1076 C1079 1.350 1_554 S
N1077 S1075 1.610 . S
N1077 C1078 1.351 . S
C1078 C1072 1.428 1_554 S
C1078 N1077 1.351 . S
C1078 C1079 1.434 1_554 S
C1079 C1070 1.429 . S
C1079 N1076 1.350 1_556 S
C1079 C1078 1.434 1_556 S
C1080 C1081 1.369 . S
C1080 C1082 1.419 . S
C1080 H1084 0.930 . S
C1081 C1080 1.369 . S
C1081 C1090 1.429 . S
C1082 C1080 1.419 . S
C1082 C1083 1.363 . S
C1082 H1085 0.929 . S
C1083 C1082 1.363 . S
C1083 C1089 1.428 . S
H1084 C1080 0.930 . S
H1085 C1082 0.929 . S
S1086 N1087 1.613 1_565 S
S1086 N1088 1.610 1_565 S
N1087 S1086 1.613 1_545 S
N1087 C1090 1.350 . S
N1088 S1086 1.610 1_545 S
N1088 C1089 1.351 . S
C1089 C1083 1.428 . S
C1089 N1088 1.351 . S
C1089 C1090 1.434 . S
C1090 C1081 1.429 . S
C1090 N1087 1.350 . S
C1090 C1089 1.434 . S
C1091 C1092 1.369 . S
C1091 C1093 1.419 . S
C1091 H1095 0.930 . S
C1092 C1091 1.369 . S
C1092 C1101 1.429 . S
C1093 C1091 1.419 . S
C1093 C1094 1.363 . S
C1093 H1096 0.929 . S
C1094 C1093 1.363 . S
C1094 C1100 1.428 . S
H1095 C1091 0.930 . S
H1096 C1093 0.929 . S
S1097 N1098 1.613 . S
S1097 N1099 1.610 . S
N1098 S1097 1.613 . S
N1098 C1101 1.350 . S
N1099 S1097 1.610 . S
N1099 C1100 1.351 . S
C1100 C1094 1.428 . S
C1100 N1099 1.351 . S
C1100 C1101 1.434 . S
C1101 C1092 1.429 . S
C1101 N1098 1.350 . S
C1101 C1100 1.434 . S
C1102 C1103 1.369 . S
C1102 C1104 1.419 . S
C1102 H1106 0.930 . S
C1103 C1102 1.369 . S
C1103 C1112 1.429 . S
C1104 C1102 1.419 . S
C1104 C1105 1.363 . S
C1104 H1107 0.929 . S
C1105 C1104 1.363 . S
C1105 C1111 1.428 . S
H1106 C1102 0.930 . S
H1107 C1104 0.929 . S
S1108 N1109 1.613 . S
S1108 N1110 1.610 . S
N1109 S1108 1.613 . S
N1109 C1112 1.350 . S
N1110 S1108 1.610 . S
N1110 C1111 1.351 . S
C1111 C1105 1.428 . S
C1111 N1110 1.351 . S
C1111 C1112 1.434 . S
C1112 C1103 1.429 . S
C1112 N1109 1.350 . S
C1112 C1111 1.434 . S
C1113 C1114 1.369 . S
C1113 C1115 1.419 . S
C1113 H1117 0.930 . S
C1114 C1113 1.369 . S
C1114 C1123 1.429 . S
C1115 C1113 1.419 . S
C1115 C1116 1.363 . S
C1115 H1118 0.929 . S
C1116 C1115 1.363 . S
C1116 C1122 1.428 . S
H1117 C1113 0.930 . S
H1118 C1115 0.929 . S
S1119 N1120 1.613 . S
S1119 N1121 1.610 . S
N1120 S1119 1.613 . S
N1120 C1123 1.350 . S
N1121 S1119 1.610 . S
N1121 C1122 1.351 . S
C1122 C1116 1.428 . S
C1122 N1121 1.351 . S
C1122 C1123 1.434 . S
C1123 C1114 1.429 . S
C1123 N1120 1.350 . S
C1123 C1122 1.434 . S
C1124 C1125 1.369 . S
C1124 C1126 1.419 . S
C1124 H1128 0.930 . S
C1125 C1124 1.369 . S
C1125 C1134 1.429 . S
C1126 C1124 1.419 . S
C1126 C1127 1.363 . S
C1126 H1129 0.929 . S
C1127 C1126 1.363 . S
C1127 C1133 1.428 . S
H1128 C1124 0.930 . S
H1129 C1126 0.929 . S
S1130 N1131 1.613 . S
S1130 N1132 1.610 . S
N1131 S1130 1.613 . S
N1131 C1134 1.350 . S
N1132 S1130 1.610 . S
N1132 C1133 1.351 . S
C1133 C1127 1.428 . S
C1133 N1132 1.351 . S
C1133 C1134 1.434 . S
C1134 C1125 1.429 . S
C1134 N1131 1.350 . S
C1134 C1133 1.434 . S
C1135 C1136 1.369 . S
C1135 C1137 1.419 . S
C1135 H1139 0.930 . S
C1136 C1135 1.369 . S
C1136 C1145 1.429 . S
C1137 C1135 1.419 . S
C1137 C1138 1.363 . S
C1137 H1140 0.929 . S
C1138 C1137 1.363 . S
C1138 C1144 1.428 . S
H1139 C1135 0.930 . S
H1140 C1137 0.929 . S
S1141 N1142 1.613 . S
S1141 N1143 1.610 . S
N1142 S1141 1.613 . S
N1142 C1145 1.350 . S
N1143 S1141 1.610 . S
N1143 C1144 1.351 . S
C1144 C1138 1.428 . S
C1144 N1143 1.351 . S
C1144 C1145 1.434 . S
C1145 C1136 1.429 . S
C1145 N1142 1.350 . S
C1145 C1144 1.434 . S
C1146 C1147 1.369 . S
C1146 C1148 1.419 . S
C1146 H1150 0.930 . S
C1147 C1146 1.369 . S
C1147 C1156 1.429 . S
C1148 C1146 1.419 . S
C1148 C1149 1.363 . S
C1148 H1151 0.929 . S
C1149 C1148 1.363 . S
C1149 C1155 1.428 . S
H1150 C1146 0.930 . S
H1151 C1148 0.929 . S
S1152 N1153 1.613 . S
S1152 N1154 1.610 . S
N1153 S1152 1.613 . S
N1153 C1156 1.350 . S
N1154 S1152 1.610 . S
N1154 C1155 1.351 . S
C1155 C1149 1.428 . S
C1155 N1154 1.351 . S
C1155 C1156 1.434 . S
C1156 C1147 1.429 . S
C1156 N1153 1.350 . S
C1156 C1155 1.434 . S
C1157 C1158 1.369 . S
C1157 C1159 1.419 . S
C1157 H1161 0.930 . S
C1158 C1157 1.369 . S
C1158 C1167 1.429 . S
C1159 C1157 1.419 . S
C1159 C1160 1.363 . S
C1159 H1162 0.929 . S
C1160 C1159 1.363 . S
C1160 C1166 1.428 . S
H1161 C1157 0.930 . S
H1162 C1159 0.929 . S
S1163 N1164 1.613 1_455 S
S1163 N1165 1.610 1_455 S
N1164 S1163 1.613 1_655 S
N1164 C1167 1.350 . S
N1165 S1163 1.610 1_655 S
N1165 C1166 1.351 . S
C1166 C1160 1.428 . S
C1166 N1165 1.351 . S
C1166 C1167 1.434 . S
C1167 C1158 1.429 . S
C1167 N1164 1.350 . S
C1167 C1166 1.434 . S
C1168 C1169 1.369 . S
C1168 C1170 1.419 . S
C1168 H1172 0.930 . S
C1169 C1168 1.369 . S
C1169 C1178 1.429 . S
C1170 C1168 1.419 . S
C1170 C1171 1.363 . S
C1170 H1173 0.929 . S
C1171 C1170 1.363 . S
C1171 C1177 1.428 . S
H1172 C1168 0.930 . S
H1173 C1170 0.929 . S
S1174 N1175 1.613 . S
S1174 N1176 1.610 . S
N1175 S1174 1.613 . S
N1175 C1178 1.350 . S
N1176 S1174 1.610 . S
N1176 C1177 1.351 . S
C1177 C1171 1.428 . S
C1177 N1176 1.351 . S
C1177 C1178 1.434 . S
C1178 C1169 1.429 . S
C1178 N1175 1.350 . S
C1178 C1177 1.434 . S
C1179 C1180 1.369 . S
C1179 C1181 1.419 . S
C1179 H1183 0.930 . S
C1180 C1179 1.369 . S
C1180 C1189 1.429 . S
C1181 C1179 1.419 . S
C1181 C1182 1.363 . S
C1181 H1184 0.929 . S
C1182 C1181 1.363 . S
C1182 C1188 1.428 . S
H1183 C1179 0.930 . S
H1184 C1181 0.929 . S
S1185 N1186 1.613 . S
S1185 N1187 1.610 . S
N1186 S1185 1.613 . S
N1186 C1189 1.350 . S
N1187 S1185 1.610 . S
N1187 C1188 1.351 . S
C1188 C1182 1.428 . S
C1188 N1187 1.351 . S
C1188 C1189 1.434 . S
C1189 C1180 1.429 . S
C1189 N1186 1.350 . S
C1189 C1188 1.434 . S
C1190 C1191 1.369 . S
C1190 C1192 1.419 . S
C1190 H1194 0.930 . S
C1191 C1190 1.369 . S
C1191 C1200 1.429 . S
C1192 C1190 1.419 . S
C1192 C1193 1.363 . S
C1192 H1195 0.929 . S
C1193 C1192 1.363 . S
C1193 C1199 1.428 . S
H1194 C1190 0.930 . S
H1195 C1192 0.929 . S
S1196 N1197 1.613 . S
S1196 N1198 1.610 . S
N1197 S1196 1.613 . S
N1197 C1200 1.350 . S
N1198 S1196 1.610 . S
N1198 C1199 1.351 . S
C1199 C1193 1.428 . S
C1199 N1198 1.351 . S
C1199 C1200 1.434 . S
C1200 C1191 1.429 . S
C1200 N1197 1.350 . S
C1200 C1199 1.434 . S
C1201 C1202 1.369 . S
C1201 C1203 1.419 . S
C1201 H1205 0.930 . S
C1202 C1201 1.369 . S
C1202 C1211 1.429 . S
C1203 C1201 1.419 . S
C1203 C1204 1.363 . S
C1203 H1206 0.929 . S
C1204 C1203 1.363 . S
C1204 C1210 1.428 . S
H1205 C1201 0.930 . S
H1206 C1203 0.929 . S
S1207 N1208 1.613 . S
S1207 N1209 1.610 . S
N1208 S1207 1.613 . S
N1208 C1211 1.350 . S
N1209 S1207 1.610 . S
N1209 C1210 1.351 . S
C1210 C1204 1.428 . S
C1210 N1209 1.351 . S
C1210 C1211 1.434 . S
C1211 C1202 1.429 . S
C1211 N1208 1.350 . S
C1211 C1210 1.434 . S
C1212 C1213 1.369 . S
C1212 C1214 1.419 . S
C1212 H1216 0.930 . S
C1213 C1212 1.369 . S
C1213 C1222 1.429 . S
C1214 C1212 1.419 . S
C1214 C1215 1.363 . S
C1214 H1217 0.929 . S
C1215 C1214 1.363 . S
C1215 C1221 1.428 . S
H1216 C1212 0.930 . S
H1217 C1214 0.929 . S
S1218 N1219 1.613 . S
S1218 N1220 1.610 . S
N1219 S1218 1.613 . S
N1219 C1222 1.350 . S
N1220 S1218 1.610 . S
N1220 C1221 1.351 . S
C1221 C1215 1.428 . S
C1221 N1220 1.351 . S
C1221 C1222 1.434 . S
C1222 C1213 1.429 . S
C1222 N1219 1.350 . S
C1222 C1221 1.434 . S
C1223 C1224 1.369 . S
C1223 C1225 1.419 . S
C1223 H1227 0.930 . S
C1224 C1223 1.369 . S
C1224 C1233 1.429 . S
C1225 C1223 1.419 . S
C1225 C1226 1.363 . S
C1225 H1228 0.929 . S
C1226 C1225 1.363 . S
C1226 C1232 1.428 . S
H1227 C1223 0.930 . S
H1228 C1225 0.929 . S
S1229 N1230 1.613 . S
S1229 N1231 1.610 . S
N1230 S1229 1.613 . S
N1230 C1233 1.350 . S
N1231 S1229 1.610 . S
N1231 C1232 1.351 . S
C1232 C1226 1.428 . S
C1232 N1231 1.351 . S
C1232 C1233 1.434 . S
C1233 C1224 1.429 . S
C1233 N1230 1.350 . S
C1233 C1232 1.434 . S
C1234 C1235 1.369 . S
C1234 C1236 1.419 . S
C1234 H1238 0.930 . S
C1235 C1234 1.369 . S
C1235 C1244 1.429 1_554 S
C1236 C1234 1.419 . S
C1236 C1237 1.363 . S
C1236 H1239 0.929 . S
C1237 C1236 1.363 . S
C1237 C1243 1.428 1_554 S
H1238 C1234 0.930 . S
H1239 C1236 0.929 . S
S1240 N1241 1.613 . S
S1240 N1242 1.610 . S
N1241 S1240 1.613 . S
N1241 C1244 1.350 . S
N1242 S1240 1.610 . S
N1242 C1243 1.351 . S
C1243 C1237 1.428 1_556 S
C1243 N1242 1.351 . S
C1243 C1244 1.434 . S
C1244 C1235 1.429 1_556 S
C1244 N1241 1.350 . S
C1244 C1243 1.434 . S
C1245 C1246 1.369 . S
C1245 C1247 1.417 1_455 S
C1245 H1249 0.930 . S
C1246 C1245 1.369 . S
C1246 C1255 1.429 . S
C1247 C1245 1.417 1_655 S
C1247 C1248 1.363 . S
C1247 H1250 0.931 . S
C1248 C1247 1.363 . S
C1248 C1254 1.428 1_655 S
H1249 C1245 0.930 . S
H1250 C1247 0.931 . S
S1251 N1252 1.613 . S
S1251 N1253 1.610 . S
N1252 S1251 1.613 . S
N1252 C1255 1.350 . S
N1253 S1251 1.610 . S
N1253 C1254 1.351 . S
C1254 C1248 1.428 1_455 S
C1254 N1253 1.351 . S
C1254 C1255 1.434 . S
C1255 C1246 1.429 . S
C1255 N1252 1.350 . S
C1255 C1254 1.434 . S
C1256 C1257 1.369 . S
C1256 C1258 1.419 . S
C1256 H1260 0.930 . S
C1257 C1256 1.369 . S
C1257 C1266 1.429 . S
C1258 C1256 1.419 . S
C1258 C1259 1.363 . S
C1258 H1261 0.929 . S
C1259 C1258 1.363 . S
C1259 C1265 1.428 . S
H1260 C1256 0.930 . S
H1261 C1258 0.929 . S
S1262 N1263 1.613 . S
S1262 N1264 1.610 . S
N1263 S1262 1.613 . S
N1263 C1266 1.350 . S
N1264 S1262 1.610 . S
N1264 C1265 1.351 . S
C1265 C1259 1.428 . S
C1265 N1264 1.351 . S
C1265 C1266 1.434 . S
C1266 C1257 1.429 . S
C1266 N1263 1.350 . S
C1266 C1265 1.434 . S
C1267 C1268 1.369 . S
C1267 C1269 1.419 . S
C1267 H1271 0.930 . S
C1268 C1267 1.369 . S
C1268 C1277 1.429 . S
C1269 C1267 1.419 . S
C1269 C1270 1.363 . S
C1269 H1272 0.929 . S
C1270 C1269 1.363 . S
C1270 C1276 1.428 . S
H1271 C1267 0.930 . S
H1272 C1269 0.929 . S
S1273 N1274 1.613 . S
S1273 N1275 1.610 . S
N1274 S1273 1.613 . S
N1274 C1277 1.350 . S
N1275 S1273 1.610 . S
N1275 C1276 1.351 . S
C1276 C1270 1.428 . S
C1276 N1275 1.351 . S
C1276 C1277 1.434 . S
C1277 C1268 1.429 . S
C1277 N1274 1.350 . S
C1277 C1276 1.434 . S
C1278 C1279 1.369 1_554 S
C1278 C1280 1.419 . S
C1278 H1282 0.930 . S
C1279 C1278 1.369 1_556 S
C1279 C1288 1.429 . S
C1280 C1278 1.419 . S
C1280 C1281 1.363 1_554 S
C1280 H1283 0.929 . S
C1281 C1280 1.363 1_556 S
C1281 C1287 1.428 . S
H1282 C1278 0.930 . S
H1283 C1280 0.929 . S
S1284 N1285 1.613 . S
S1284 N1286 1.610 . S
N1285 S1284 1.613 . S
N1285 C1288 1.350 . S
N1286 S1284 1.610 . S
N1286 C1287 1.351 . S
C1287 C1281 1.428 . S
C1287 N1286 1.351 . S
C1287 C1288 1.434 . S
C1288 C1279 1.429 . S
C1288 N1285 1.350 . S
C1288 C1287 1.434 . S
C1289 C1290 1.369 . S
C1289 C1291 1.419 . S
C1289 H1293 0.930 . S
C1290 C1289 1.369 . S
C1290 C1299 1.429 1_655 S
C1291 C1289 1.419 . S
C1291 C1292 1.363 . S
C1291 H1294 0.929 . S
C1292 C1291 1.363 . S
C1292 C1298 1.428 . S
H1293 C1289 0.930 . S
H1294 C1291 0.929 . S
S1295 N1296 1.613 . S
S1295 N1297 1.610 . S
N1296 S1295 1.613 . S
N1296 C1299 1.350 . S
N1297 S1295 1.610 . S
N1297 C1298 1.351 1_455 S
C1298 C1292 1.428 . S
C1298 N1297 1.351 1_655 S
C1298 C1299 1.434 1_655 S
C1299 C1290 1.429 1_455 S
C1299 N1296 1.350 . S
C1299 C1298 1.434 1_455 S
C1300 C1301 1.369 . S
C1300 C1302 1.419 . S
C1300 H1304 0.930 . S
C1301 C1300 1.369 . S
C1301 C1310 1.429 . S
C1302 C1300 1.419 . S
C1302 C1303 1.363 . S
C1302 H1305 0.929 . S
C1303 C1302 1.363 . S
C1303 C1309 1.428 . S
H1304 C1300 0.930 . S
H1305 C1302 0.929 . S
S1306 N1307 1.613 . S
S1306 N1308 1.610 . S
N1307 S1306 1.613 . S
N1307 C1310 1.350 . S
N1308 S1306 1.610 . S
N1308 C1309 1.351 . S
C1309 C1303 1.428 . S
C1309 N1308 1.351 . S
C1309 C1310 1.434 . S
C1310 C1301 1.429 . S
C1310 N1307 1.350 . S
C1310 C1309 1.434 . S
C1311 C1312 1.369 1_554 S
C1311 C1313 1.419 . S
C1311 H1315 0.930 1_554 S
C1312 C1311 1.369 1_556 S
C1312 C1321 1.429 1_556 S
C1313 C1311 1.419 . S
C1313 C1314 1.363 . S
C1313 H1316 0.929 . S
C1314 C1313 1.363 . S
C1314 C1320 1.428 . S
H1315 C1311 0.930 1_556 S
H1316 C1313 0.929 . S
S1317 N1318 1.613 . S
S1317 N1319 1.610 . S
N1318 S1317 1.613 . S
N1318 C1321 1.350 . S
N1319 S1317 1.610 . S
N1319 C1320 1.351 . S
C1320 C1314 1.428 . S
C1320 N1319 1.351 . S
C1320 C1321 1.434 . S
C1321 C1312 1.429 1_554 S
C1321 N1318 1.350 . S
C1321 C1320 1.434 . S
C1322 C1323 1.369 1_455 S
C1322 C1324 1.419 . S
C1322 H1326 0.930 . S
C1323 C1322 1.369 1_655 S
C1323 C1332 1.429 . S
C1324 C1322 1.419 . S
C1324 C1325 1.363 1_455 S
C1324 H1327 0.929 . S
C1325 C1324 1.363 1_655 S
C1325 C1331 1.428 . S
H1326 C1322 0.930 . S
H1327 C1324 0.929 . S
S1328 N1329 1.613 . S
S1328 N1330 1.610 . S
N1329 S1328 1.613 . S
N1329 C1332 1.350 . S
N1330 S1328 1.610 . S
N1330 C1331 1.351 . S
C1331 C1325 1.428 . S
C1331 N1330 1.351 . S
C1331 C1332 1.434 . S
C1332 C1323 1.429 . S
C1332 N1329 1.350 . S
C1332 C1331 1.434 . S
C1333 C1334 1.369 . S
C1333 C1335 1.419 . S
C1333 H1337 0.930 . S
C1334 C1333 1.369 . S
C1334 C1343 1.429 . S
C1335 C1333 1.419 . S
C1335 C1336 1.363 . S
C1335 H1338 0.929 . S
C1336 C1335 1.363 . S
C1336 C1342 1.428 . S
H1337 C1333 0.930 . S
H1338 C1335 0.929 . S
S1339 N1340 1.613 . S
S1339 N1341 1.610 . S
N1340 S1339 1.613 . S
N1340 C1343 1.350 . S
N1341 S1339 1.610 . S
N1341 C1342 1.351 . S
C1342 C1336 1.428 . S
C1342 N1341 1.351 . S
C1342 C1343 1.434 . S
C1343 C1334 1.429 . S
C1343 N1340 1.350 . S
C1343 C1342 1.434 . S
C1344 C1345 1.369 . S
C1344 C1346 1.419 . S
C1344 H1348 0.930 . S
C1345 C1344 1.369 . S
C1345 C1354 1.429 1_455 S
C1346 C1344 1.419 . S
C1346 C1347 1.363 . S
C1346 H1349 0.929 . S
C1347 C1346 1.363 . S
C1347 C1353 1.421 1_455 S
H1348 C1344 0.930 . S
H1349 C1346 0.929 . S
S1350 N1351 1.613 . S
S1350 N1352 1.610 . S
N1351 S1350 1.613 . S
N1351 C1354 1.350 . S
N1352 S1350 1.610 . S
N1352 C1353 1.359 . S
C1353 C1347 1.421 1_655 S
C1353 N1352 1.359 . S
C1353 C1354 1.436 . S
C1354 C1345 1.429 1_655 S
C1354 N1351 1.350 . S
C1354 C1353 1.436 . S
C1355 C1356 1.369 . S
C1355 C1357 1.419 . S
C1355 H1359 0.930 . S
C1356 C1355 1.369 . S
C1356 C1365 1.429 . S
C1357 C1355 1.419 . S
C1357 C1358 1.363 . S
C1357 H1360 0.929 . S
C1358 C1357 1.363 . S
C1358 C1364 1.428 . S
H1359 C1355 0.930 . S
H1360 C1357 0.929 . S
S1361 N1362 1.613 . S
S1361 N1363 1.610 . S
N1362 S1361 1.613 . S
N1362 C1365 1.350 . S
N1363 S1361 1.610 . S
N1363 C1364 1.351 . S
C1364 C1358 1.428 . S
C1364 N1363 1.351 . S
C1364 C1365 1.434 . S
C1365 C1356 1.429 . S
C1365 N1362 1.350 . S
C1365 C1364 1.434 . S
C1366 C1367 1.369 . S
C1366 C1368 1.419 . S
C1366 H1370 0.930 . S
C1367 C1366 1.369 . S
C1367 C1376 1.429 . S
C1368 C1366 1.419 . S
C1368 C1369 1.363 . S
C1368 H1371 0.929 . S
C1369 C1368 1.363 . S
C1369 C1375 1.428 . S
H1370 C1366 0.930 . S
H1371 C1368 0.929 . S
S1372 N1373 1.613 . S
S1372 N1374 1.610 . S
N1373 S1372 1.613 . S
N1373 C1376 1.350 . S
N1374 S1372 1.610 . S
N1374 C1375 1.351 . S
C1375 C1369 1.428 . S
C1375 N1374 1.351 . S
C1375 C1376 1.434 . S
C1376 C1367 1.429 . S
C1376 N1373 1.350 . S
C1376 C1375 1.434 . S
C1377 C1378 1.369 . S
C1377 C1379 1.419 . S
C1377 H1381 0.930 . S
C1378 C1377 1.369 . S
C1378 C1387 1.429 1_556 S
C1379 C1377 1.419 . S
C1379 C1380 1.363 . S
C1379 H1382 0.929 . S
C1380 C1379 1.363 . S
C1380 C1386 1.428 . S
H1381 C1377 0.930 . S
H1382 C1379 0.929 . S
S1383 N1384 1.613 . S
S1383 N1385 1.610 . S
N1384 S1383 1.613 . S
N1384 C1387 1.350 . S
N1385 S1383 1.610 . S
N1385 C1386 1.351 1_554 S
C1386 C1380 1.428 . S
C1386 N1385 1.351 1_556 S
C1386 C1387 1.434 1_556 S
C1387 C1378 1.429 1_554 S
C1387 N1384 1.350 . S
C1387 C1386 1.434 1_554 S
C1388 C1389 1.369 . S
C1388 C1390 1.419 . S
C1388 H1392 0.930 . S
C1389 C1388 1.369 . S
C1389 C1398 1.429 . S
C1390 C1388 1.419 . S
C1390 C1391 1.363 . S
C1390 H1393 0.929 . S
C1391 C1390 1.363 . S
C1391 C1397 1.428 . S
H1392 C1388 0.930 . S
H1393 C1390 0.929 . S
S1394 N1395 1.613 . S
S1394 N1396 1.610 . S
N1395 S1394 1.613 . S
N1395 C1398 1.350 . S
N1396 S1394 1.610 . S
N1396 C1397 1.351 . S
C1397 C1391 1.428 . S
C1397 N1396 1.351 . S
C1397 C1398 1.434 . S
C1398 C1389 1.429 . S
C1398 N1395 1.350 . S
C1398 C1397 1.434 . S
C1399 C1400 1.369 1_545 S
C1399 C1401 1.419 . S
C1399 H1403 0.930 . S
C1400 C1399 1.369 1_565 S
C1400 C1409 1.429 . S
C1401 C1399 1.419 . S
C1401 C1402 1.363 1_545 S
C1401 H1404 0.929 . S
C1402 C1401 1.363 1_565 S
C1402 C1408 1.428 . S
H1403 C1399 0.930 . S
H1404 C1401 0.929 . S
S1405 N1406 1.613 . S
S1405 N1407 1.610 . S
N1406 S1405 1.613 . S
N1406 C1409 1.350 . S
N1407 S1405 1.610 . S
N1407 C1408 1.351 . S
C1408 C1402 1.428 . S
C1408 N1407 1.351 . S
C1408 C1409 1.434 . S
C1409 C1400 1.429 . S
C1409 N1406 1.350 . S
C1409 C1408 1.434 . S
C1410 C1411 1.369 . S
C1410 C1412 1.419 . S
C1410 H1414 0.930 . S
C1411 C1410 1.369 . S
C1411 C1420 1.429 . S
C1412 C1410 1.419 . S
C1412 C1413 1.363 1_545 S
C1412 H1415 0.929 . S
C1413 C1412 1.363 1_565 S
C1413 C1419 1.428 . S
H1414 C1410 0.930 . S
H1415 C1412 0.929 . S
S1416 N1417 1.613 . S
S1416 N1418 1.610 . S
N1417 S1416 1.613 . S
N1417 C1420 1.350 1_565 S
N1418 S1416 1.610 . S
N1418 C1419 1.351 . S
C1419 C1413 1.428 . S
C1419 N1418 1.351 . S
C1419 C1420 1.434 1_565 S
C1420 C1411 1.429 . S
C1420 N1417 1.350 1_545 S
C1420 C1419 1.434 1_545 S
C1421 C1422 1.369 . S
C1421 C1423 1.419 . S
C1421 H1425 0.930 . S
C1422 C1421 1.369 . S
C1422 C1431 1.429 . S
C1423 C1421 1.419 . S
C1423 C1424 1.363 . S
C1423 H1426 0.929 . S
C1424 C1423 1.363 . S
C1424 C1430 1.427 1_545 S
H1425 C1421 0.930 . S
H1426 C1423 0.929 . S
S1427 N1428 1.615 . S
S1427 N1429 1.610 . S
N1428 S1427 1.615 . S
N1428 C1431 1.349 1_565 S
N1429 S1427 1.610 . S
N1429 C1430 1.353 . S
C1430 C1424 1.427 1_565 S
C1430 N1429 1.353 . S
C1430 C1431 1.433 1_565 S
C1431 C1422 1.429 . S
C1431 N1428 1.349 1_545 S
C1431 C1430 1.433 1_545 S
C1432 C1433 1.369 . S
C1432 C1434 1.419 . S
C1432 H1436 0.930 . S
C1433 C1432 1.369 . S
C1433 C1442 1.429 . S
C1434 C1432 1.419 . S
C1434 C1435 1.363 . S
C1434 H1437 0.929 . S
C1435 C1434 1.363 . S
C1435 C1441 1.428 . S
H1436 C1432 0.930 . S
H1437 C1434 0.929 . S
S1438 N1439 1.613 . S
S1438 N1440 1.610 1_545 S
N1439 S1438 1.613 . S
N1439 C1442 1.350 1_545 S
N1440 S1438 1.610 1_565 S
N1440 C1441 1.351 . S
C1441 C1435 1.428 . S
C1441 N1440 1.351 . S
C1441 C1442 1.434 . S
C1442 C1433 1.429 . S
C1442 N1439 1.350 1_565 S
C1442 C1441 1.434 . S
C1443 C1444 1.369 . S
C1443 C1445 1.419 . S
C1443 H1447 0.930 . S
C1444 C1443 1.369 . S
C1444 C1453 1.429 . S
C1445 C1443 1.419 . S
C1445 C1446 1.363 . S
C1445 H1448 0.929 . S
C1446 C1445 1.363 . S
C1446 C1452 1.428 . S
H1447 C1443 0.930 . S
H1448 C1445 0.929 . S
S1449 N1450 1.613 . S
S1449 N1451 1.610 . S
N1450 S1449 1.613 . S
N1450 C1453 1.350 . S
N1451 S1449 1.610 . S
N1451 C1452 1.351 . S
C1452 C1446 1.428 . S
C1452 N1451 1.351 . S
C1452 C1453 1.434 . S
C1453 C1444 1.429 . S
C1453 N1450 1.350 . S
C1453 C1452 1.434 . S
C1454 C1455 1.369 . S
C1454 C1456 1.419 . S
C1454 H1458 0.930 . S
C1455 C1454 1.369 . S
C1455 C1464 1.429 . S
C1456 C1454 1.419 . S
C1456 C1457 1.363 . S
C1456 H1459 0.929 . S
C1457 C1456 1.363 . S
C1457 C1463 1.428 . S
H1458 C1454 0.930 . S
H1459 C1456 0.929 . S
S1460 N1461 1.613 . S
S1460 N1462 1.610 . S
N1461 S1460 1.613 . S
N1461 C1464 1.350 . S
N1462 S1460 1.610 . S
N1462 C1463 1.351 . S
C1463 C1457 1.428 . S
C1463 N1462 1.351 . S
C1463 C1464 1.434 . S
C1464 C1455 1.429 . S
C1464 N1461 1.350 . S
C1464 C1463 1.434 . S
C1465 C1466 1.369 . S
C1465 C1467 1.419 . S
C1465 H1469 0.930 . S
C1466 C1465 1.369 . S
C1466 C1475 1.429 . S
C1467 C1465 1.419 . S
C1467 C1468 1.363 . S
C1467 H1470 0.929 . S
C1468 C1467 1.363 . S
C1468 C1474 1.428 . S
H1469 C1465 0.930 . S
H1470 C1467 0.929 . S
S1471 N1472 1.613 . S
S1471 N1473 1.610 . S
N1472 S1471 1.613 . S
N1472 C1475 1.350 . S
N1473 S1471 1.610 . S
N1473 C1474 1.351 . S
C1474 C1468 1.428 . S
C1474 N1473 1.351 . S
C1474 C1475 1.434 . S
C1475 C1466 1.429 . S
C1475 N1472 1.350 . S
C1475 C1474 1.434 . S
C817 C719 0.973 . S
C819 C20 0.990 . S
C828 C753 0.906 . S
C830 C54 0.929 . S
C839 C88 0.996 . S
C841 C549 0.972 . S
C850 C787 0.907 . S
C852 C122 0.914 . S
C861 C156 0.921 . S
C863 C651 0.903 . S
C872 C685 0.913 . S
C874 C190 0.940 . S
C883 C583 0.919 . S
C885 C224 0.929 . S
C894 C617 0.799 . S
C896 C258 0.814 . S
C905 C292 0.988 . S
C907 C141 0.968 . S
C916 C326 0.925 . S
C918 C175 0.915 . S
C927 C360 0.929 . S
C929 C209 0.917 . S
C938 C394 0.935 . S
C940 C243 0.898 . S
C949 C5 0.972 . S
C951 C428 0.996 . S
C960 C462 0.924 . S
C962 C39 0.898 . S
C971 C496 0.924 . S
C973 C73 0.912 . S
C982 C107 0.813 . S
C984 C530 0.819 . S
C993 C481 0.972 . S
C995 C564 0.989 . S
C1004 C598 0.927 . S
C1006 C345 0.908 . S
C1015 C632 0.920 . S
C1017 C379 0.911 . S
C1026 C666 0.996 . S
C1028 C277 0.968 . S
C1037 C311 0.800 . S
C1039 C700 0.814 . S
C1048 C413 0.903 . S
C1050 C734 0.921 . S
C1059 C768 0.924 . S
C1061 C447 0.900 . S
C1070 C802 0.935 . S
C1072 C515 0.898 . S
C1081 C240 2.346 . S
C1083 C2 2.077 . S
C1092 C36 2.135 . S
C1094 C138 1.925 . S
C1103 C172 2.283 . S
C1105 C70 2.055 . S
C1114 C206 2.070 . S
C1116 C104 2.348 . S
C1125 C682 2.341 . S
C1127 C274 2.073 . S
C1136 C308 2.349 . S
C1138 C580 2.074 . S
C1147 C342 2.070 . S
C1149 C614 2.348 . S
C1158 C376 2.283 . S
C1160 C648 2.056 . S
C1169 C410 2.047 . S
C1171 C784 2.278 . S
C1180 C716 1.926 . S
C1182 C444 2.136 . S
C1191 C478 1.918 . S
C1193 C750 2.135 . S
C1202 C512 2.346 . S
C1204 C546 2.072 . S
C1213 C9 1.583 . S
C1215 C475 2.100 . S
C1224 C43 1.882 . S
C1226 C509 2.159 . S
C1235 C543 1.890 . S
C1237 C77 1.410 . S
C1246 C441 2.022 . S
C1248 C111 1.805 . S
C1257 C145 1.437 . S
C1259 C407 1.871 . S
C1268 C179 1.878 . S
C1270 C305 2.141 . S
C1279 C339 1.958 . S
C1281 C213 1.488 . S
C1290 C247 1.854 1_655 S
C1292 C373 2.080 . S
C1301 C281 1.580 . S
C1303 C67 2.101 . S
C1312 C315 1.815 . S
C1314 C101 2.014 . S
C1323 C135 1.958 . S
C1325 C349 1.481 . S
C1334 C383 1.881 . S
C1336 C33 2.142 . S
C1345 C417 1.408 . S
C1347 C271 1.890 . S
C1356 C451 1.882 . S
C1358 C169 2.159 . S
C1367 C485 1.435 . S
C1369 C203 1.872 . S
C1378 C519 1.856 1_556 S
C1380 C237 2.079 . S
C1389 C553 1.583 . S
C1391 C781 2.101 . S
C1400 C645 1.958 . S
C1402 C587 1.485 . S
C1411 C679 2.021 . S
C1413 C621 1.810 . S
C1422 C713 1.891 . S
C1424 C655 1.407 . S
C1433 C689 1.860 1_565 S
C1435 C611 2.077 . S
C1444 C815 1.872 . S
C1446 C723 1.426 . S
C1455 C747 2.161 . S
C1457 C757 1.880 . S
C1466 C791 1.869 . S
C1468 C577 2.145 . S
