# Generated by pormake.
# Topology sxf, (6)-cn, num edge types: 1
# Building blocks:
#     Node 0, Type 0, BuildingBlock: IZENUY_clean_sbu_0, # of connection points: 6
#     Node 1, Type 0, BuildingBlock: IZENUY_clean_sbu_0, # of connection points: 6
#     Node 2, Type 0, BuildingBlock: IZENUY_clean_sbu_0, # of connection points: 6
#     Node 3, Type 0, BuildingBlock: IZENUY_clean_sbu_0, # of connection points: 6
#     Node 4, Type 0, BuildingBlock: IZENUY_clean_sbu_0, # of connection points: 6
#     Node 5, Type 0, BuildingBlock: IZENUY_clean_sbu_0, # of connection points: 6
#     Node 6, Type 0, BuildingBlock: IZENUY_clean_sbu_0, # of connection points: 6
#     Node 7, Type 0, BuildingBlock: IZENUY_clean_sbu_0, # of connection points: 6
#     Node 8, Type 0, BuildingBlock: IZENUY_clean_sbu_0, # of connection points: 6
#     Node 9, Type 0, BuildingBlock: IZENUY_clean_sbu_0, # of connection points: 6
#     Node 10, Type 0, BuildingBlock: IZENUY_clean_sbu_0, # of connection points: 6
#     Node 11, Type 0, BuildingBlock: IZENUY_clean_sbu_0, # of connection points: 6
#     Node 12, Type 0, BuildingBlock: IZENUY_clean_sbu_0, # of connection points: 6
#     Node 13, Type 0, BuildingBlock: IZENUY_clean_sbu_0, # of connection points: 6
#     Node 14, Type 0, BuildingBlock: IZENUY_clean_sbu_0, # of connection points: 6
#     Node 15, Type 0, BuildingBlock: IZENUY_clean_sbu_0, # of connection points: 6
#     Node 16, Type 0, BuildingBlock: IZENUY_clean_sbu_0, # of connection points: 6
#     Node 17, Type 0, BuildingBlock: IZENUY_clean_sbu_0, # of connection points: 6
#     Node 18, Type 0, BuildingBlock: IZENUY_clean_sbu_0, # of connection points: 6
#     Node 19, Type 0, BuildingBlock: IZENUY_clean_sbu_0, # of connection points: 6
#     Node 20, Type 0, BuildingBlock: IZENUY_clean_sbu_0, # of connection points: 6
#     Node 21, Type 0, BuildingBlock: IZENUY_clean_sbu_0, # of connection points: 6
#     Node 22, Type 0, BuildingBlock: IZENUY_clean_sbu_0, # of connection points: 6
#     Node 23, Type 0, BuildingBlock: IZENUY_clean_sbu_0, # of connection points: 6
#     Edge 24, Type (0, 0), BuildingBlock: XUDNAN_clean_linker_2, # of connection points: 2
#     Edge 25, Type (0, 0), BuildingBlock: XUDNAN_clean_linker_2, # of connection points: 2
#     Edge 26, Type (0, 0), BuildingBlock: XUDNAN_clean_linker_2, # of connection points: 2
#     Edge 27, Type (0, 0), BuildingBlock: XUDNAN_clean_linker_2, # of connection points: 2
#     Edge 28, Type (0, 0), BuildingBlock: XUDNAN_clean_linker_2, # of connection points: 2
#     Edge 29, Type (0, 0), BuildingBlock: XUDNAN_clean_linker_2, # of connection points: 2
#     Edge 30, Type (0, 0), BuildingBlock: XUDNAN_clean_linker_2, # of connection points: 2
#     Edge 31, Type (0, 0), BuildingBlock: XUDNAN_clean_linker_2, # of connection points: 2
#     Edge 32, Type (0, 0), BuildingBlock: XUDNAN_clean_linker_2, # of connection points: 2
#     Edge 33, Type (0, 0), BuildingBlock: XUDNAN_clean_linker_2, # of connection points: 2
#     Edge 34, Type (0, 0), BuildingBlock: XUDNAN_clean_linker_2, # of connection points: 2
#     Edge 35, Type (0, 0), BuildingBlock: XUDNAN_clean_linker_2, # of connection points: 2
#     Edge 36, Type (0, 0), BuildingBlock: XUDNAN_clean_linker_2, # of connection points: 2
#     Edge 37, Type (0, 0), BuildingBlock: XUDNAN_clean_linker_2, # of connection points: 2
#     Edge 38, Type (0, 0), BuildingBlock: XUDNAN_clean_linker_2, # of connection points: 2
#     Edge 39, Type (0, 0), BuildingBlock: XUDNAN_clean_linker_2, # of connection points: 2
#     Edge 40, Type (0, 0), BuildingBlock: XUDNAN_clean_linker_2, # of connection points: 2
#     Edge 41, Type (0, 0), BuildingBlock: XUDNAN_clean_linker_2, # of connection points: 2
#     Edge 42, Type (0, 0), BuildingBlock: XUDNAN_clean_linker_2, # of connection points: 2
#     Edge 43, Type (0, 0), BuildingBlock: XUDNAN_clean_linker_2, # of connection points: 2
#     Edge 44, Type (0, 0), BuildingBlock: XUDNAN_clean_linker_2, # of connection points: 2
#     Edge 45, Type (0, 0), BuildingBlock: XUDNAN_clean_linker_2, # of connection points: 2
#     Edge 46, Type (0, 0), BuildingBlock: XUDNAN_clean_linker_2, # of connection points: 2
#     Edge 47, Type (0, 0), BuildingBlock: XUDNAN_clean_linker_2, # of connection points: 2
#     Edge 48, Type (0, 0), BuildingBlock: XUDNAN_clean_linker_2, # of connection points: 2
#     Edge 49, Type (0, 0), BuildingBlock: XUDNAN_clean_linker_2, # of connection points: 2
#     Edge 50, Type (0, 0), BuildingBlock: XUDNAN_clean_linker_2, # of connection points: 2
#     Edge 51, Type (0, 0), BuildingBlock: XUDNAN_clean_linker_2, # of connection points: 2
#     Edge 52, Type (0, 0), BuildingBlock: XUDNAN_clean_linker_2, # of connection points: 2
#     Edge 53, Type (0, 0), BuildingBlock: XUDNAN_clean_linker_2, # of connection points: 2
#     Edge 54, Type (0, 0), BuildingBlock: XUDNAN_clean_linker_2, # of connection points: 2
#     Edge 55, Type (0, 0), BuildingBlock: XUDNAN_clean_linker_2, # of connection points: 2
#     Edge 56, Type (0, 0), BuildingBlock: XUDNAN_clean_linker_2, # of connection points: 2
#     Edge 57, Type (0, 0), BuildingBlock: XUDNAN_clean_linker_2, # of connection points: 2
#     Edge 58, Type (0, 0), BuildingBlock: XUDNAN_clean_linker_2, # of connection points: 2
#     Edge 59, Type (0, 0), BuildingBlock: XUDNAN_clean_linker_2, # of connection points: 2
#     Edge 60, Type (0, 0), BuildingBlock: XUDNAN_clean_linker_2, # of connection points: 2
#     Edge 61, Type (0, 0), BuildingBlock: XUDNAN_clean_linker_2, # of connection points: 2
#     Edge 62, Type (0, 0), BuildingBlock: XUDNAN_clean_linker_2, # of connection points: 2
#     Edge 63, Type (0, 0), BuildingBlock: XUDNAN_clean_linker_2, # of connection points: 2
#     Edge 64, Type (0, 0), BuildingBlock: XUDNAN_clean_linker_2, # of connection points: 2
#     Edge 65, Type (0, 0), BuildingBlock: XUDNAN_clean_linker_2, # of connection points: 2
#     Edge 66, Type (0, 0), BuildingBlock: XUDNAN_clean_linker_2, # of connection points: 2
#     Edge 67, Type (0, 0), BuildingBlock: XUDNAN_clean_linker_2, # of connection points: 2
#     Edge 68, Type (0, 0), BuildingBlock: XUDNAN_clean_linker_2, # of connection points: 2
#     Edge 69, Type (0, 0), BuildingBlock: XUDNAN_clean_linker_2, # of connection points: 2
#     Edge 70, Type (0, 0), BuildingBlock: XUDNAN_clean_linker_2, # of connection points: 2
#     Edge 71, Type (0, 0), BuildingBlock: XUDNAN_clean_linker_2, # of connection points: 2
#     Edge 72, Type (0, 0), BuildingBlock: XUDNAN_clean_linker_2, # of connection points: 2
#     Edge 73, Type (0, 0), BuildingBlock: XUDNAN_clean_linker_2, # of connection points: 2
#     Edge 74, Type (0, 0), BuildingBlock: XUDNAN_clean_linker_2, # of connection points: 2
#     Edge 75, Type (0, 0), BuildingBlock: XUDNAN_clean_linker_2, # of connection points: 2
#     Edge 76, Type (0, 0), BuildingBlock: XUDNAN_clean_linker_2, # of connection points: 2
#     Edge 77, Type (0, 0), BuildingBlock: XUDNAN_clean_linker_2, # of connection points: 2
#     Edge 78, Type (0, 0), BuildingBlock: XUDNAN_clean_linker_2, # of connection points: 2
#     Edge 79, Type (0, 0), BuildingBlock: XUDNAN_clean_linker_2, # of connection points: 2
#     Edge 80, Type (0, 0), BuildingBlock: XUDNAN_clean_linker_2, # of connection points: 2
#     Edge 81, Type (0, 0), BuildingBlock: XUDNAN_clean_linker_2, # of connection points: 2
#     Edge 82, Type (0, 0), BuildingBlock: XUDNAN_clean_linker_2, # of connection points: 2
#     Edge 83, Type (0, 0), BuildingBlock: XUDNAN_clean_linker_2, # of connection points: 2
#     Edge 84, Type (0, 0), BuildingBlock: XUDNAN_clean_linker_2, # of connection points: 2
#     Edge 85, Type (0, 0), BuildingBlock: XUDNAN_clean_linker_2, # of connection points: 2
#     Edge 86, Type (0, 0), BuildingBlock: XUDNAN_clean_linker_2, # of connection points: 2
#     Edge 87, Type (0, 0), BuildingBlock: XUDNAN_clean_linker_2, # of connection points: 2
#     Edge 88, Type (0, 0), BuildingBlock: XUDNAN_clean_linker_2, # of connection points: 2
#     Edge 89, Type (0, 0), BuildingBlock: XUDNAN_clean_linker_2, # of connection points: 2
#     Edge 90, Type (0, 0), BuildingBlock: XUDNAN_clean_linker_2, # of connection points: 2
#     Edge 91, Type (0, 0), BuildingBlock: XUDNAN_clean_linker_2, # of connection points: 2
#     Edge 92, Type (0, 0), BuildingBlock: XUDNAN_clean_linker_2, # of connection points: 2
#     Edge 93, Type (0, 0), BuildingBlock: XUDNAN_clean_linker_2, # of connection points: 2
#     Edge 94, Type (0, 0), BuildingBlock: XUDNAN_clean_linker_2, # of connection points: 2
#     Edge 95, Type (0, 0), BuildingBlock: XUDNAN_clean_linker_2, # of connection points: 2
# Relax obj value: 0.435
# Max RMSD: 0.176
# Mean RMSD: 0.176
data_MOF--net-sxf--node1-IZENUY_clean_sbu_0--edge1-XUDNAN_clean_linker_2
_symmetry_space_group_name_H-M    P1
_symmetry_Int_Tables_number       1
_symmetry_cell_setting            triclinic
loop_
_symmetry_equiv_pos_as_xyz
'x, y, z'
_cell_length_a     45.809576
_cell_length_b     45.671515
_cell_length_c     45.7309
_cell_angle_alpha  90.093987
_cell_angle_beta   90.006852
_cell_angle_gamma 89.84623
loop_
_atom_site_label
_atom_site_type_symbol
_atom_site_fract_x
_atom_site_fract_y
_atom_site_fract_z
_atom_type_partial_charge
Fe0 Fe 0.03898 0.45517 0.24593 0.0
Fe1 Fe 0.07262 0.40514 0.21529 0.0
O2 O 0.05228 0.43814 0.21373 0.0
Fe3 Fe 0.04462 0.45406 0.17949 0.0
O4 O 0.06506 0.4863 0.18919 0.0
O5 O 0.04289 0.49278 0.23142 0.0
O6 O 0.07528 0.45884 0.26042 0.0
C7 C 0.09326 0.4382 0.26372 0.0
C8 C 0.99244 0.46374 0.21028 0.0
O9 O 0.09072 0.41421 0.24999 0.0
C10 C 0.03351 0.39654 0.16856 0.0
O11 O 0.0331 0.4208 0.26586 0.0
O12 O 0.04307 0.38661 0.23342 0.0
O13 O 0.0102 0.47115 0.19058 0.0
O14 O 0.00134 0.45229 0.23363 0.0
C15 C 0.10206 0.43323 0.17202 0.0
O16 O 0.05749 0.3904 0.18107 0.0
O17 O 0.02374 0.42239 0.16857 0.0
C18 C 0.03034 0.39492 0.25633 0.0
O19 O 0.10384 0.4213 0.19678 0.0
O20 O 0.0775 0.4403 0.16161 0.0
C21 C 0.05885 0.50229 0.21081 0.0
Fe22 Fe 0.46617 0.53389 0.74668 0.0
Fe23 Fe 0.42995 0.58865 0.73146 0.0
O24 O 0.45393 0.55996 0.72083 0.0
Fe25 Fe 0.46547 0.55757 0.68415 0.0
O26 O 0.44906 0.52183 0.67975 0.0
O27 O 0.46664 0.5032 0.72065 0.0
O28 O 0.42916 0.52329 0.75454 0.0
C29 C 0.40901 0.54012 0.76269 0.0
C30 C 0.51611 0.54004 0.71531 0.0
O31 O 0.41133 0.56757 0.76023 0.0
C32 C 0.46897 0.61632 0.69227 0.0
O33 O 0.4674 0.56024 0.77707 0.0
O34 O 0.45662 0.60266 0.75681 0.0
O35 O 0.50074 0.54107 0.69242 0.0
O36 O 0.50451 0.54221 0.74019 0.0
C37 C 0.40626 0.57353 0.67913 0.0
O38 O 0.44429 0.61526 0.70481 0.0
O39 O 0.48275 0.59304 0.68664 0.0
C40 C 0.46883 0.58797 0.77667 0.0
O41 O 0.4019 0.57595 0.70627 0.0
O42 O 0.43194 0.5733 0.66895 0.0
C43 C 0.45444 0.50012 0.69595 0.0
Fe44 Fe 0.56317 0.07986 0.7774 0.0
Fe45 Fe 0.5423 0.02404 0.80755 0.0
O46 O 0.54797 0.04422 0.77555 0.0
Fe47 Fe 0.53817 0.02832 0.74152 0.0
O48 O 0.57571 0.02934 0.72995 0.0
O49 O 0.58324 0.07558 0.74238 0.0
O50 O 0.5961 0.06715 0.7956 0.0
C51 C 0.59618 0.05211 0.81866 0.0
C52 C 0.52278 0.08797 0.73449 0.0
O53 O 0.57343 0.03912 0.82716 0.0
C54 C 0.49133 0.01416 0.77482 0.0
O55 O 0.54561 0.0899 0.81285 0.0
O56 O 0.51829 0.05146 0.82165 0.0
O57 O 0.53011 0.06355 0.72348 0.0
O58 O 0.53145 0.09524 0.75959 0.0
C59 C 0.56084 0.97987 0.77314 0.0
O60 O 0.50944 0.00556 0.79393 0.0
O61 O 0.4999 0.02684 0.75192 0.0
C62 C 0.52466 0.07777 0.82646 0.0
O63 O 0.56646 0.99546 0.79505 0.0
O64 O 0.54443 0.98985 0.7531 0.0
C65 C 0.59086 0.05235 0.72891 0.0
Fe66 Fe 0.96208 0.93041 0.31576 0.0
Fe67 Fe 0.97388 0.95402 0.25454 0.0
O68 O 0.9561 0.9287 0.27775 0.0
Fe69 Fe 0.93218 0.90177 0.26344 0.0
O70 O 0.9015 0.91571 0.28495 0.0
O71 O 0.92633 0.91598 0.3259 0.0
O72 O 0.94605 0.96663 0.31737 0.0
C73 C 0.95481 0.98806 0.30242 0.0
C74 C 0.9646 0.87176 0.30687 0.0
O75 O 0.97219 0.98451 0.28109 0.0
C76 C 0.97763 0.90007 0.22435 0.0
O77 O -0.00091 0.9451 0.31322 0.0
O78 O 0.00977 0.94272 0.26661 0.0
O79 O 0.94169 0.87409 0.29138 0.0
O80 O 0.97809 0.89423 0.31545 0.0
C81 C 0.91945 0.95211 0.22998 0.0
O82 O 0.97845 0.92783 0.22428 0.0
O83 O 0.96107 0.88631 0.24148 0.0
C84 C 0.0176 0.94293 0.29291 0.0
O85 O 0.93951 0.96725 0.241 0.0
O86 O 0.91888 0.92456 0.23296 0.0
C87 C 0.90224 0.91696 0.3125 0.0
Fe88 Fe 0.22051 0.0643 0.40935 0.0
Fe89 Fe 0.17893 0.04075 0.45552 0.0
O90 O 0.21474 0.04747 0.44363 0.0
Fe91 Fe 0.24449 0.03671 0.46593 0.0
O92 O 0.25713 0.07394 0.46814 0.0
O93 O 0.25394 0.08343 0.42101 0.0
O94 O 0.2002 0.0969 0.42005 0.0
C95 C 0.1738 0.09573 0.42767 0.0
C96 C 0.26225 0.02153 0.40903 0.0
O97 O 0.16276 0.07191 0.4363 0.0
C98 C 0.20833 0.98992 0.47161 0.0
O99 O 0.1883 0.04749 0.39174 0.0
O100 O 0.17267 0.01659 0.42505 0.0
O101 O 0.26898 0.02823 0.43505 0.0
O102 O 0.24056 0.03285 0.39656 0.0
C103 C 0.20322 0.06008 0.506 0.0
O104 O 0.18826 0.00821 0.47667 0.0
O105 O 0.23346 0.9985 0.46466 0.0
C106 C 0.17561 0.02383 0.39869 0.0
O107 O 0.18407 0.06447 0.48664 0.0
O108 O 0.22505 0.04362 0.50074 0.0
C109 C 0.26319 0.08972 0.44641 0.0
Fe110 Fe 0.3145 0.96331 0.94063 0.0
Fe111 Fe 0.24923 0.96514 0.95543 0.0
O112 O 0.27821 0.95422 0.93197 0.0
Fe113 Fe 0.27102 0.93399 0.89959 0.0
O114 O 0.29281 0.9029 0.91224 0.0
O115 O 0.3303 0.93032 0.9243 0.0
O116 O 0.31271 0.94351 0.97475 0.0
C117 C 0.29443 0.94836 0.99483 0.0
C118 C 0.31591 0.97249 0.88196 0.0
O119 O 0.27049 0.96133 0.98946 0.0
C120 C 0.22797 0.9753 0.89824 0.0
O121 O 0.30545 0.99781 0.95858 0.0
O122 O 0.25826 0.00388 0.95256 0.0
O123 O 0.30182 0.94892 0.8787 0.0
O124 O 0.31857 0.98378 0.90699 0.0
C125 C 0.23109 0.91041 0.94004 0.0
O126 O 0.2231 0.97097 0.92521 0.0
O127 O 0.24943 0.96379 0.88534 0.0
C128 C 0.28322 0.01423 0.95778 0.0
O129 O 0.23814 0.92744 0.9605 0.0
O130 O 0.23861 0.91555 0.91399 0.0
C131 C 0.3195 0.90545 0.91872 0.0
Fe132 Fe 0.72643 0.43411 0.58952 0.0
Fe133 Fe 0.67947 0.46121 0.55069 0.0
O134 O 0.71664 0.45518 0.55847 0.0
Fe135 Fe 0.74353 0.47044 0.53523 0.0
O136 O 0.76946 0.43998 0.5397 0.0
O137 O 0.7462 0.40814 0.56739 0.0
O138 O 0.69483 0.40916 0.58658 0.0
C139 C 0.67873 0.40339 0.56469 0.0
C140 C 0.76711 0.4804 0.58947 0.0
O141 O 0.6738 0.42251 0.5454 0.0
C142 C 0.70101 0.51563 0.54061 0.0
O143 O 0.70738 0.4589 0.61432 0.0
O144 O 0.66712 0.45923 0.58861 0.0
O145 O 0.75912 0.49084 0.56527 0.0
O146 O 0.75961 0.45497 0.59738 0.0
C147 C 0.70365 0.45407 0.49443 0.0
O148 O 0.68365 0.50028 0.55555 0.0
O149 O 0.72216 0.50378 0.52698 0.0
C150 C 0.68052 0.46424 0.6122 0.0
O151 O 0.68429 0.46431 0.51125 0.0
O152 O 0.72952 0.45106 0.50328 0.0
C153 C 0.76604 0.41423 0.54937 0.0
Fe154 Fe 0.77614 0.57366 0.0994 0.0
Fe155 Fe 0.8179 0.54566 0.05576 0.0
O156 O 0.78195 0.55411 0.06641 0.0
Fe157 Fe 0.75217 0.54302 0.04431 0.0
O158 O 0.73998 0.58041 0.04044 0.0
O159 O 0.7428 0.59233 0.08689 0.0
O160 O 0.79678 0.60502 0.08622 0.0
C161 C 0.82322 0.60278 0.07885 0.0
C162 C 0.73394 0.5318 0.10225 0.0
O163 O 0.83421 0.57806 0.07279 0.0
C164 C 0.78711 0.49477 0.03958 0.0
O165 O 0.80821 0.55814 0.11824 0.0
O166 O 0.82338 0.52375 0.08827 0.0
O167 O 0.72764 0.53631 0.07561 0.0
O168 O 0.75571 0.54355 0.1142 0.0
C169 C 0.79474 0.56257 0.00351 0.0
O170 O 0.80854 0.51186 0.03675 0.0
O171 O 0.76226 0.5045 0.04637 0.0
C172 C 0.82084 0.53384 0.11379 0.0
O173 O 0.814 0.56693 0.02276 0.0
O174 O 0.77186 0.54803 0.00939 0.0
C175 C 0.73359 0.59728 0.06129 0.0
Fe176 Fe 0.40047 0.22857 0.07268 0.0
Fe177 Fe 0.43744 0.17594 0.0552 0.0
O178 O 0.4301 0.21355 0.05258 0.0
Fe179 Fe 0.45204 0.23603 0.02991 0.0
O180 O 0.44843 0.26826 0.0539 0.0
O181 O 0.42525 0.25193 0.09295 0.0
O182 O 0.4027 0.20203 0.10314 0.0
C183 C 0.42443 0.18727 0.11195 0.0
C184 C 0.39803 0.25868 0.01895 0.0
O185 O 0.44351 0.17871 0.09413 0.0
C186 C 0.44695 0.18347 0.99691 0.0
O187 O 0.37423 0.20597 0.0529 0.0
O188 O 0.3991 0.16538 0.05972 0.0
O189 O 0.42038 0.24646 0.00833 0.0
O190 O 0.39279 0.25768 0.04611 0.0
C191 C 0.4937 0.20108 0.05482 0.0
O192 O 0.4322 0.1711 0.01653 0.0
O193 O 0.45969 0.20756 0.00204 0.0
C194 C 0.37625 0.17846 0.05112 0.0
O195 O 0.47675 0.17965 0.05089 0.0
O196 O 0.48525 0.22696 0.05001 0.0
C197 C 0.44224 0.27007 0.08092 0.0
Fe198 Fe 0.94254 0.24837 0.96828 0.0
Fe199 Fe 0.89878 0.27642 0.92562 0.0
O200 O 0.92737 0.2798 0.9515 0.0
Fe201 Fe 0.94063 0.31469 0.96106 0.0
O202 O 0.97796 0.30232 0.96778 0.0
O203 O 0.97866 0.25639 0.95329 0.0
O204 O 0.93634 0.22442 0.93688 0.0
C205 C 0.93266 0.22986 0.91003 0.0
C206 C 0.94091 0.28947 0.01469 0.0
O207 O 0.92137 0.25372 0.90176 0.0
C208 C 0.88026 0.32356 0.95797 0.0
O209 O 0.9075 0.2388 0.98407 0.0
O210 O 0.88267 0.24438 0.94321 0.0
O211 O 0.93051 0.30956 -0.00104 0.0
O212 O 0.95131 0.26656 0.00301 0.0
C213 C 0.93382 0.32218 0.90256 0.0
O214 O 0.87407 0.29855 0.94803 0.0
O215 O 0.90589 0.33336 0.95606 0.0
C216 C 0.88436 0.23555 0.9694 0.0
O217 O 0.90998 0.3082 0.90377 0.0
O218 O 0.95137 0.32211 0.92381 0.0
C219 C 0.99174 0.2802 0.95841 0.0
Fe220 Fe 0.52196 0.75677 0.47585 0.0
Fe221 Fe 0.57059 0.72529 0.44079 0.0
O222 O 0.54083 0.72429 0.46563 0.0
Fe223 Fe 0.52966 0.6909 0.48073 0.0
O224 O 0.49106 0.70129 0.48314 0.0
O225 O 0.48789 0.74337 0.46019 0.0
O226 O 0.52858 0.77575 0.44105 0.0
C227 C 0.53431 0.76571 0.41586 0.0
C228 C 0.52482 0.72512 0.5288 0.0
O229 O 0.54798 0.74191 0.41289 0.0
C230 C 0.59102 0.68506 0.48012 0.0
O231 O 0.55487 0.77118 0.49174 0.0
O232 O 0.58377 0.76116 0.4543 0.0
O233 O 0.53757 0.70371 0.51709 0.0
O234 O 0.51207 0.74402 0.51298 0.0
C235 C 0.53961 0.67337 0.42472 0.0
O236 O 0.59563 0.70874 0.46685 0.0
O237 O 0.5658 0.67408 0.48092 0.0
C238 C 0.57907 0.77352 0.47882 0.0
O239 O 0.5624 0.68921 0.4235 0.0
O240 O 0.52158 0.67649 0.44525 0.0
C241 C 0.47677 0.71927 0.46767 0.0
Fe242 Fe 0.04616 0.81339 0.52424 0.0
Fe243 Fe 0.03166 0.74829 0.52912 0.0
O244 O 0.05558 0.77783 0.53599 0.0
Fe245 Fe 0.08889 0.77188 0.55477 0.0
O246 O 0.07809 0.79681 0.5841 0.0
O247 O 0.06447 0.83217 0.55454 0.0
O248 O 0.01331 0.81358 0.54621 0.0
C249 C 0.99342 0.79466 0.54425 0.0
C250 C 0.10404 0.81325 0.51122 0.0
O251 O -0.00195 0.7702 0.53204 0.0
C252 C 0.08788 0.72381 0.51949 0.0
O253 O 0.02601 0.80115 0.49196 0.0
O254 O 0.03373 0.75367 0.48976 0.0
O255 O 0.10889 0.80081 0.53549 0.0
O256 O 0.07838 0.81544 0.50146 0.0
C257 C 0.04918 0.73511 0.58432 0.0
O258 O 0.06095 0.72107 0.5252 0.0
O259 O 0.10156 0.74666 0.52671 0.0
C260 C 0.02692 0.77747 0.47762 0.0
O261 O 0.02801 0.74117 0.56782 0.0
O262 O 0.07503 0.74174 0.57729 0.0
C263 C 0.07114 0.82326 0.57986 0.0
Fe264 Fe 0.92713 0.60197 0.77292 0.0
Fe265 Fe 0.95793 0.56191 0.81643 0.0
O266 O 0.94759 0.56968 0.7801 0.0
Fe267 Fe 0.95777 0.54558 0.75147 0.0
O268 O 0.92019 0.5408 0.7404 0.0
O269 O 0.90738 0.58709 0.74154 0.0
O270 O 0.89723 0.58965 0.79618 0.0
C271 C 0.90091 0.58444 0.82303 0.0
C272 C 0.96734 0.60238 0.7287 0.0
O273 O 0.92623 0.57982 0.83308 0.0
C274 C 0.00689 0.5413 0.78456 0.0
O275 O 0.94368 0.6232 0.80279 0.0
O276 O 0.97943 0.59509 0.81806 0.0
O277 O 0.96402 0.57507 0.72503 0.0
O278 O 0.9555 0.61599 0.74959 0.0
C279 C 0.94111 0.50776 0.7981 0.0
O280 O 0.99114 0.54213 0.80712 0.0
O281 O 0.99655 0.54797 0.75999 0.0
C282 C 0.96853 0.6202 0.81454 0.0
O283 O 0.93738 0.5282 0.8164 0.0
O284 O 0.95326 0.51228 0.77357 0.0
C285 C 0.90292 0.56107 0.7334 0.0
Fe286 Fe 0.53165 0.46225 0.25147 0.0
Fe287 Fe 0.56371 0.40506 0.26769 0.0
O288 O 0.54227 0.43579 0.27777 0.0
Fe289 Fe 0.53152 0.43995 0.31443 0.0
O290 O 0.55091 0.47424 0.31723 0.0
O291 O 0.53245 0.49354 0.27746 0.0
O292 O 0.56935 0.47023 0.24257 0.0
C293 C 0.58764 0.45119 0.23444 0.0
C294 C 0.48155 0.45897 0.28326 0.0
O295 O 0.58323 0.42418 0.23859 0.0
C296 C 0.52365 0.38138 0.30838 0.0
O297 O 0.52871 0.43547 0.22142 0.0
O298 O 0.5356 0.39277 0.24283 0.0
O299 O 0.497 0.45843 0.30613 0.0
O300 O 0.49298 0.45607 0.25836 0.0
C301 C 0.58951 0.42074 0.31898 0.0
O302 O 0.54791 0.38025 0.2951 0.0
O303 O 0.51169 0.40575 0.31353 0.0
C304 C 0.5252 0.40791 0.22222 0.0
O305 O 0.59322 0.41589 0.29209 0.0
O306 O 0.56408 0.42248 0.32956 0.0
C307 C 0.54465 0.49649 0.30226 0.0
Fe308 Fe 0.42984 0.91791 0.22344 0.0
Fe309 Fe 0.45983 0.96707 0.18996 0.0
O310 O 0.45041 0.95062 0.22353 0.0
Fe311 Fe 0.46192 0.96714 0.25683 0.0
O312 O 0.42485 0.97102 0.26928 0.0
O313 O 0.40958 0.92688 0.25699 0.0
O314 O 0.39988 0.93449 0.203 0.0
C315 C 0.40334 0.94519 0.17787 0.0
C316 C 0.46905 0.90631 0.26728 0.0
O317 O 0.42818 0.9538 0.16974 0.0
C318 C 0.51035 0.97437 0.22344 0.0
O319 O 0.44717 0.90327 0.19011 0.0
O320 O 0.48109 0.93557 0.1791 0.0
O321 O 0.4665 0.9323 0.27676 0.0
O322 O 0.45795 0.89878 0.24328 0.0
C323 C 0.44407 0.01502 0.22133 0.0
O324 O 0.49369 0.98324 0.20333 0.0
O325 O 0.50014 0.96403 0.24673 0.0
C326 C 0.4711 0.9099 0.17777 0.0
O327 O 0.43885 -0.00076 0.1993 0.0
O328 O 0.45901 0.00509 0.24261 0.0
C329 C 0.40651 0.9506 0.27113 0.0
Fe330 Fe 0.05697 0.09477 0.72596 0.0
Fe331 Fe 0.03139 0.05525 0.67864 0.0
O332 O 0.03835 0.06234 0.71592 0.0
Fe333 Fe 0.02636 0.03728 0.74291 0.0
O334 O 0.06321 0.03186 0.75635 0.0
O335 O 0.07477 0.07859 0.75798 0.0
O336 O 0.08909 0.08421 0.70504 0.0
C337 C 0.08816 0.07928 0.67795 0.0
C338 C 0.01426 0.09301 0.76762 0.0
O339 O 0.06422 0.07371 0.66536 0.0
C340 C 0.97966 0.03723 0.70586 0.0
O341 O 0.04234 0.11697 0.69566 0.0
O342 O 0.00976 0.08824 0.67542 0.0
O343 O 0.01873 0.06572 0.77043 0.0
O344 O 0.0262 0.10728 0.74733 0.0
C345 C 0.04706 0.00067 0.69665 0.0
O346 O -0.00273 0.03554 0.68474 0.0
O347 O 0.98852 0.0413 0.73157 0.0
C348 C 0.01958 0.11354 0.68026 0.0
O349 O 0.05248 0.02187 0.67987 0.0
O350 O 0.03202 0.00442 0.71975 0.0
C351 C 0.07984 0.05219 0.76473 0.0
Fe352 Fe 0.76974 0.93859 0.58025 0.0
Fe353 Fe 0.81054 0.96601 0.53535 0.0
O354 O 0.77486 0.95785 0.54698 0.0
Fe355 Fe 0.74465 0.96922 0.52542 0.0
O356 O 0.73215 0.93181 0.52146 0.0
O357 O 0.73668 0.9197 0.56783 0.0
O358 O 0.79057 0.90716 0.56727 0.0
C359 C 0.81639 0.90903 0.55792 0.0
C360 C 0.72682 0.98033 0.58373 0.0
O361 O 0.82728 0.9336 0.55163 0.0
C362 C 0.77981 0.01716 0.52193 0.0
O363 O 0.80193 0.9545 0.59862 0.0
O364 O 0.817 0.98793 0.56762 0.0
O365 O 0.72066 0.97611 0.55701 0.0
O366 O 0.74881 0.96849 0.5954 0.0
C367 C 0.78623 0.94931 0.48367 0.0
O368 O 0.80067 -0.00016 0.51677 0.0
O369 O 0.7549 0.00754 0.52819 0.0
C370 C 0.81501 0.97835 0.59334 0.0
O371 O 0.8057 0.94464 0.50259 0.0
O372 O 0.76371 0.96439 0.48996 0.0
C373 C 0.72681 0.91472 0.54241 0.0
Fe374 Fe 0.74503 0.02735 0.0419 0.0
Fe375 Fe 0.72096 0.06454 0.09298 0.0
O376 O 0.71532 0.04043 0.06308 0.0
Fe377 Fe 0.6795 0.02969 0.05405 0.0
O378 O 0.68209 0.04712 0.01862 0.0
O379 O 0.7244 0.02699 0.00724 0.0
O380 O 0.75511 0.06422 0.03241 0.0
C381 C 0.75948 0.08502 0.04989 0.0
C382 C 0.71214 0.97813 0.04271 0.0
O383 O 0.75214 0.08352 0.07647 0.0
C384 C 0.67801 0.02477 0.11324 0.0
O385 O 0.77088 0.0261 0.0728 0.0
O386 O 0.74425 0.03856 0.11099 0.0
O387 O 0.69012 0.99433 0.03866 0.0
O388 O 0.73643 0.98912 0.04954 0.0
C389 C 0.67149 0.08866 0.07087 0.0
O390 O 0.69084 0.04934 0.11494 0.0
O391 O 0.67543 0.0118 0.08898 0.0
C392 C 0.76678 0.02712 0.1002 0.0
O393 O 0.69793 0.09275 0.07694 0.0
O394 O 0.66175 0.06301 0.06764 0.0
C395 C 0.70169 0.04125 0.0001 0.0
Fe396 Fe 0.25231 0.52106 0.4622 0.0
Fe397 Fe 0.26838 0.56018 0.40953 0.0
O398 O 0.27883 0.53742 0.43916 0.0
Fe399 Fe 0.3162 0.53078 0.44532 0.0
O400 O 0.31408 0.54764 0.4809 0.0
O401 O 0.27478 0.5241 0.49561 0.0
O402 O 0.23705 0.55614 0.47181 0.0
C403 C 0.2275 0.57476 0.45398 0.0
C404 C 0.29119 0.47589 0.4577 0.0
O405 O 0.23524 0.57449 0.4274 0.0
C406 C 0.31413 0.52602 0.3862 0.0
O407 O 0.22569 0.51554 0.4326 0.0
O408 O 0.24888 0.53027 0.39296 0.0
O409 O 0.31153 0.49422 0.46067 0.0
O410 O 0.26525 0.48427 0.45443 0.0
C411 C 0.31502 0.59057 0.42942 0.0
O412 O 0.29943 0.54958 0.38592 0.0
O413 O 0.31997 0.51342 0.40996 0.0
C414 C 0.23002 0.51455 0.40526 0.0
O415 O 0.28792 0.59147 0.42461 0.0
O416 O 0.32818 0.56623 0.4312 0.0
C417 C 0.29691 0.53996 0.50104 0.0
Fe418 Fe 0.21407 0.41292 0.89629 0.0
Fe419 Fe 0.1733 0.44705 0.93656 0.0
O420 O 0.20904 0.43801 0.92543 0.0
Fe421 Fe 0.23941 0.45429 0.94314 0.0
O422 O 0.26301 0.4218 0.9391 0.0
O423 O 0.23453 0.38825 0.91931 0.0
O424 O 0.18148 0.39094 0.9048 0.0
C425 C 0.16721 0.38835 0.92842 0.0
C426 C 0.257 0.45573 0.88582 0.0
O427 O 0.16584 0.40937 0.94634 0.0
C428 C 0.19835 0.50099 0.93862 0.0
O429 O 0.19419 0.43639 0.87103 0.0
O430 O 0.15686 0.44234 0.90039 0.0
O431 O 0.25235 0.47014 0.90896 0.0
O432 O 0.24737 0.43 0.88292 0.0
C433 C 0.20419 0.44477 0.99009 0.0
O434 O 0.17886 0.48514 0.92731 0.0
O435 O 0.22076 0.48962 0.95045 0.0
C436 C 0.16824 0.44439 0.87531 0.0
O437 O 0.18293 0.4536 0.97482 0.0
O438 O 0.22864 0.43956 0.97853 0.0
C439 C 0.25704 0.39523 0.93354 0.0
Fe440 Fe 0.59018 0.76895 0.92971 0.0
Fe441 Fe 0.55222 0.81992 0.95082 0.0
O442 O 0.5597 0.78204 0.94965 0.0
Fe443 Fe 0.53696 0.75722 0.96862 0.0
O444 O 0.54238 0.72728 0.94257 0.0
O445 O 0.56684 0.74704 0.90617 0.0
O446 O 0.58889 0.79793 0.90168 0.0
C447 C 0.56764 0.81375 0.89361 0.0
C448 C 0.59073 0.73464 0.98082 0.0
O449 O 0.54814 0.82133 0.91147 0.0
C450 C 0.54095 0.80496 0.00748 0.0
O451 O 0.61514 0.78971 0.95253 0.0
O452 O 0.5907 0.83104 0.94909 0.0
O453 O 0.56735 0.74506 0.99109 0.0
O454 O 0.59711 0.73793 0.9541 0.0
C455 C 0.49641 0.7943 0.94501 0.0
O456 O 0.55556 0.82088 0.99039 0.0
O457 O 0.52768 0.78263 0.99807 0.0
C458 C 0.61344 0.81697 0.95633 0.0
O459 O 0.51262 0.81539 0.95264 0.0
O460 O 0.50504 0.7681 0.94739 0.0
C461 C 0.55016 0.72742 0.91603 0.0
Fe462 Fe 0.04454 0.7465 0.03632 0.0
Fe463 Fe 0.10015 0.71783 0.06133 0.0
O464 O 0.065 0.71488 0.04516 0.0
Fe465 Fe 0.04996 0.68023 0.03776 0.0
O466 O 0.01961 0.68716 0.06199 0.0
O467 O 0.00847 0.72967 0.0428 0.0
O468 O 0.04397 0.75747 0.07406 0.0
C469 C 0.06626 0.76158 0.08961 0.0
C470 C 0.03397 0.71335 0.98848 0.0
O471 O 0.09107 0.75146 0.08225 0.0
C472 C 0.10616 0.67184 0.0198 0.0
O473 O 0.0765 0.76909 0.02824 0.0
O474 O 0.11382 0.7387 0.03075 0.0
O475 O 0.02919 0.69212 0.00553 0.0
O476 O 0.04428 0.73702 0.99789 0.0
C477 C 0.07732 0.67231 0.0923 0.0
O478 O 0.11508 0.6847 0.04283 0.0
O479 O 0.07947 0.67167 0.01316 0.0
C480 C 0.10213 0.76169 0.02105 0.0
O481 O 0.08893 0.69724 0.09325 0.0
O482 O 0.06783 0.66193 0.06849 0.0
C483 C 0.00166 0.70778 0.05839 0.0
Fe484 Fe 0.45916 0.30654 0.527 0.0
Fe485 Fe 0.47021 0.24071 0.52751 0.0
O486 O 0.44901 0.27131 0.53863 0.0
Fe487 Fe 0.41762 0.26677 0.56075 0.0
O488 O 0.42252 0.30163 0.5807 0.0
O489 O 0.46433 0.31874 0.56411 0.0
O490 O 0.49829 0.29846 0.52569 0.0
C491 C 0.51327 0.27954 0.53922 0.0
C492 C 0.39804 0.30844 0.52265 0.0
O493 O 0.5026 0.25496 0.54562 0.0
C494 C 0.41453 0.22074 0.51971 0.0
O495 O 0.45408 0.29627 0.4894 0.0
O496 O 0.4808 0.25647 0.49175 0.0
O497 O 0.3938 0.28356 0.53364 0.0
O498 O 0.42217 0.32127 0.52595 0.0
C499 C 0.45476 0.22738 0.58609 0.0
O500 O 0.43933 0.22519 0.50876 0.0
O501 O 0.40762 0.23129 0.54445 0.0
C502 C 0.46793 0.27606 0.47682 0.0
O503 O 0.46314 0.21929 0.5609 0.0
O504 O 0.43895 0.24976 0.58925 0.0
C505 C 0.44456 0.31828 0.58329 0.0
Fe506 Fe 0.90428 0.22634 0.42562 0.0
Fe507 Fe 0.94618 0.18436 0.45635 0.0
O508 O 0.93629 0.22023 0.44661 0.0
Fe509 Fe 0.95828 0.25 0.45805 0.0
O510 O 0.95034 0.27229 0.42549 0.0
O511 O 0.92553 0.24267 0.3968 0.0
O512 O 0.90672 0.19139 0.40516 0.0
C513 C 0.92836 0.17453 0.40062 0.0
C514 C 0.90362 0.27168 0.46743 0.0
O515 O 0.94919 0.17356 0.41852 0.0
C516 C 0.95812 0.21268 0.50734 0.0
O517 O 0.88109 0.2102 0.45336 0.0
O518 O 0.90864 0.17119 0.45918 0.0
O519 O 0.92809 0.26532 0.47823 0.0
O520 O 0.89609 0.26221 0.44247 0.0
C521 C -4e-05 0.21056 0.44193 0.0
O522 O 0.94367 0.19301 0.4947 0.0
O523 O 0.97003 0.23294 0.49268 0.0
C524 C 0.88504 0.18496 0.4637 0.0
O525 O 0.98546 0.1912 0.45529 0.0
O526 O 0.99 0.23609 0.43862 0.0
C527 C 0.94213 0.26436 0.40019 0.0
H528 H 0.09168 0.47251 0.3123 0.0
H529 H 0.14678 0.41161 0.26452 0.0
H530 H 0.18682 0.42054 0.29977 0.0
H531 H 0.14405 0.52434 0.32738 0.0
H532 H 0.13126 0.53305 0.36365 0.0
H533 H 0.10616 0.51934 0.33673 0.0
H534 H 0.09161 0.47708 0.37155 0.0
H535 H 0.11669 0.49072 0.39869 0.0
H536 H 0.11951 0.45337 0.38619 0.0
H537 H 0.22242 0.44176 0.33519 0.0
H538 H 0.25048 0.47137 0.37074 0.0
H539 H 0.17116 0.51561 0.39763 0.0
C540 C 0.11206 0.46076 0.30949 0.0
C541 C 0.11637 0.44152 0.28571 0.0
C542 C 0.14316 0.42637 0.28274 0.0
C543 C 0.16592 0.43126 0.30263 0.0
C544 C 0.16111 0.45081 0.32559 0.0
C545 C 0.13469 0.46497 0.32939 0.0
C546 C 0.13553 0.48599 0.35495 0.0
C547 C 0.12887 0.51753 0.34507 0.0
C548 C 0.1146 0.47619 0.37929 0.0
C549 C 0.167 0.48249 0.36418 0.0
C550 C 0.18135 0.46197 0.34704 0.0
C551 C 0.2113 0.45724 0.34928 0.0
C552 C 0.22702 0.47414 0.36934 0.0
C553 C 0.21262 0.4951 0.38698 0.0
C554 C 0.18227 0.49899 0.38484 0.0
H555 H 0.29032 0.50642 0.88571 0.0
H556 H 0.26629 0.43126 0.83249 0.0
H557 H 0.29946 0.44764 0.79391 0.0
H558 H 0.29852 0.55825 0.82358 0.0
H559 H 0.32948 0.57631 0.83987 0.0
H560 H 0.30175 0.56039 0.86282 0.0
H561 H 0.34121 0.52947 0.88923 0.0
H562 H 0.369 0.54522 0.86636 0.0
H563 H 0.36486 0.50602 0.86803 0.0
H564 H 0.33845 0.46782 0.76374 0.0
H565 H 0.38061 0.49307 0.74187 0.0
H566 H 0.37897 0.55711 0.81201 0.0
C567 C 0.29175 0.4937 0.86576 0.0
C568 C 0.27579 0.46744 0.8623 0.0
C569 C 0.27839 0.45132 0.83588 0.0
C570 C 0.29709 0.4605 0.81367 0.0
C571 C 0.3129 0.48604 0.81795 0.0
C572 C 0.31035 0.50265 0.8431 0.0
C573 C 0.33113 0.52849 0.84237 0.0
C574 C 0.3142 0.55759 0.84214 0.0
C575 C 0.35283 0.5272 0.86802 0.0
C576 C 0.34627 0.5231 0.81332 0.0
C577 C 0.3352 0.4985 0.79966 0.0
C578 C 0.34698 0.48746 0.77384 0.0
C579 C 0.37094 0.50182 0.76168 0.0
C580 C 0.38261 0.52707 0.77517 0.0
C581 C 0.36989 0.53817 0.80105 0.0
H582 H 0.63739 0.01621 0.72767 0.0
H583 H 0.59592 0.08755 0.68117 0.0
H584 H 0.62909 0.07924 0.63904 0.0
H585 H 0.71325 0.02939 0.69831 0.0
H586 H 0.72071 0.99063 0.69724 0.0
H587 H 0.69669 0.00542 0.7248 0.0
H588 H 0.65642 0.96925 0.70829 0.0
H589 H 0.67995 0.9548 0.68029 0.0
H590 H 0.64459 0.96929 0.67068 0.0
H591 H 0.66057 0.05679 0.59921 0.0
H592 H 0.69304 0.02706 0.56745 0.0
H593 H 0.71582 0.97268 0.6417 0.0
C594 C 0.6362 0.03079 0.70903 0.0
C595 C 0.61467 0.05277 0.70756 0.0
C596 C 0.6129 0.07107 0.68274 0.0
C597 C 0.63146 0.06633 0.65872 0.0
C598 C 0.65188 0.04364 0.66037 0.0
C599 C 0.65489 0.02672 0.68527 0.0
C600 C 0.67734 0.00275 0.6811 0.0
C601 C 0.70355 0.00733 0.70157 0.0
C602 C 0.66374 0.97224 0.68533 0.0
C603 C 0.68561 0.00793 0.64956 0.0
C604 C 0.67071 0.03154 0.63788 0.0
C605 C 0.6729 0.03874 0.60832 0.0
C606 C 0.69112 0.02161 0.59042 0.0
C607 C 0.70705 0.99783 0.60226 0.0
C608 C 0.70429 0.99109 0.63222 0.0
H609 H 0.88774 0.93147 0.18298 0.0
H610 H 0.90029 0.00732 0.23897 0.0
H611 H 0.86347 0.03456 0.21077 0.0
H612 H 0.8792 0.97263 0.11589 0.0
H613 H 0.85172 0.94875 0.10088 0.0
H614 H 0.87869 0.93443 0.12577 0.0
H615 H 0.83768 0.9151 0.15958 0.0
H616 H 0.8106 0.92922 0.13473 0.0
H617 H 0.81003 0.94005 0.17265 0.0
H618 H 0.82504 0.05313 0.17856 0.0
H619 H 0.78678 0.0631 0.14202 0.0
H620 H 0.80015 0.977 0.10403 0.0
C621 C 0.88253 0.95375 0.18929 0.0
C622 C 0.89677 0.96737 0.21309 0.0
C623 C 0.88973 0.99661 0.22065 0.0
C624 C 0.86884 0.01224 0.20484 0.0
C625 C 0.85545 0.99842 0.18132 0.0
C626 C 0.86198 0.96995 0.17335 0.0
C627 C 0.84451 0.96076 0.14669 0.0
C628 C 0.86474 0.95373 0.12077 0.0
C629 C 0.82452 0.93474 0.15385 0.0
C630 C 0.827 0.98845 0.14123 0.0
C631 C 0.83369 0.00975 0.16167 0.0
C632 C 0.81973 0.03679 0.16226 0.0
C633 C 0.79807 0.04221 0.14152 0.0
C634 C 0.79086 0.02085 0.12032 0.0
C635 C 0.80571 0.99375 0.11985 0.0
H636 H 0.36572 0.1931 0.54062 0.0
H637 H 0.41573 0.20826 0.46144 0.0
H638 H 0.37995 0.17964 0.43312 0.0
H639 H 0.34784 0.11921 0.52458 0.0
H640 H 0.31179 0.12129 0.54025 0.0
H641 H 0.34032 0.14464 0.55384 0.0
H642 H 0.30799 0.1902 0.54364 0.0
H643 H 0.27943 0.16694 0.52977 0.0
H644 H 0.29367 0.19604 0.50739 0.0
H645 H 0.33924 0.14881 0.4135 0.0
H646 H 0.29893 0.1139 0.40496 0.0
H647 H 0.27665 0.11782 0.49716 0.0
C648 C 0.36904 0.19052 0.51731 0.0
C649 C 0.39345 0.20286 0.50323 0.0
C650 C 0.39724 0.19879 0.47272 0.0
C651 C 0.37694 0.18279 0.45639 0.0
C652 C 0.35307 0.17093 0.47092 0.0
C653 C 0.34917 0.17435 0.50072 0.0
C654 C 0.32262 0.1579 0.51131 0.0
C655 C 0.33116 0.13436 0.53381 0.0
C656 C 0.29956 0.17904 0.52376 0.0
C657 C 0.3125 0.14436 0.48287 0.0
C658 C 0.33004 0.15253 0.45974 0.0
C659 C 0.32526 0.1423 0.43141 0.0
C660 C 0.30229 0.12261 0.42674 0.0
C661 C 0.28482 0.11315 0.45042 0.0
C662 C 0.28974 0.12463 0.47867 0.0
H663 H 0.22785 0.87666 0.98909 0.0
H664 H 0.18795 0.89074 0.90421 0.0
H665 H 0.1514 0.85255 0.91504 0.0
H666 H 0.21793 0.79699 0.98908 0.0
H667 H 0.211 0.79559 0.02785 0.0
H668 H 0.23437 0.8236 0.01309 0.0
H669 H 0.20197 0.86355 0.03712 0.0
H670 H 0.17847 0.83572 0.05186 0.0
H671 H 0.16339 0.86437 0.02936 0.0
H672 H 0.11654 0.81676 0.93709 0.0
H673 H 0.08846 0.78154 0.96709 0.0
H674 H 0.15365 0.78732 0.0355 0.0
C675 C 0.21149 0.8715 0.97278 0.0
C676 C 0.21048 0.88657 0.94592 0.0
C677 C 0.18905 0.87923 0.92488 0.0
C678 C 0.16821 0.85768 0.93086 0.0
C679 C 0.16961 0.84335 0.95767 0.0
C680 C 0.19098 0.84956 0.97809 0.0
C681 C 0.18774 0.83077 0.00511 0.0
C682 C 0.21434 0.81053 0.009 0.0
C683 C 0.18258 0.84974 0.03247 0.0
C684 C 0.16075 0.81357 0.99699 0.0
C685 C 0.15051 0.82133 0.96962 0.0
C686 C 0.12463 0.81005 0.95828 0.0
C687 C 0.10882 0.79024 0.9754 0.0
C688 C 0.11935 0.78167 0.00314 0.0
C689 C 0.14568 0.79322 0.01399 0.0
H690 H 0.86749 0.31518 0.44688 0.0
H691 H 0.89598 0.27119 0.52596 0.0
H692 H 0.8634 0.30273 0.55534 0.0
H693 H 0.86519 0.38738 0.47912 0.0
H694 H 0.8336 0.39906 0.45869 0.0
H695 H 0.85804 0.3721 0.44346 0.0
H696 H 0.81479 0.33626 0.4367 0.0
H697 H 0.79021 0.36314 0.45187 0.0
H698 H 0.79233 0.32708 0.46772 0.0
H699 H 0.8267 0.33705 0.57579 0.0
H700 H 0.79076 0.37588 0.58707 0.0
H701 H 0.78913 0.40119 0.4957 0.0
C702 C 0.86663 0.31218 0.47035 0.0
C703 C 0.88397 0.29076 0.48428 0.0
C704 C 0.88281 0.28761 0.51502 0.0
C705 C 0.86435 0.3053 0.53184 0.0
C706 C 0.84763 0.32635 0.51757 0.0
C707 C 0.84882 0.33021 0.48761 0.0
C708 C 0.8295 0.35546 0.47808 0.0
C709 C 0.84767 0.37995 0.46401 0.0
C710 C 0.80527 0.34484 0.45737 0.0
C711 C 0.81717 0.36495 0.50734 0.0
C712 C 0.82765 0.34755 0.52973 0.0
C713 C 0.81853 0.35106 0.55855 0.0
C714 C 0.79813 0.37304 0.56472 0.0
C715 C 0.78758 0.3915 0.54226 0.0
C716 C 0.79732 0.38755 0.51326 0.0
H717 H 0.71828 0.62059 0.00878 0.0
H718 H 0.70071 0.62726 0.10183 0.0
H719 H 0.66236 0.66423 0.09185 0.0
H720 H 0.70744 0.69758 0.99209 0.0
H721 H 0.69095 0.68977 0.95716 0.0
H722 H 0.71771 0.66505 0.97217 0.0
H723 H 0.68086 0.62226 0.9676 0.0
H724 H 0.65392 0.64687 0.95282 0.0
H725 H 0.64556 0.62541 0.98477 0.0
H726 H 0.62354 0.69829 0.07077 0.0
H727 H 0.59009 0.72861 0.04073 0.0
H728 H 0.63482 0.6992 0.96225 0.0
C729 C 0.70654 0.62995 0.02713 0.0
C730 C 0.71235 0.62101 0.05605 0.0
C731 C 0.69664 0.63391 0.07947 0.0
C732 C 0.67479 0.65483 0.07402 0.0
C733 C 0.66924 0.66272 0.04511 0.0
C734 C 0.68495 0.65087 0.02213 0.0
C735 C 0.67473 0.66257 0.99303 0.0
C736 C 0.69916 0.67977 0.97772 0.0
C737 C 0.66307 0.6378 0.97342 0.0
C738 C 0.65047 0.68258 0.00311 0.0
C739 C 0.6475 0.68245 0.03318 0.0
C740 C 0.62583 0.69873 0.04722 0.0
C741 C 0.60687 0.71575 0.03001 0.0
C742 C 0.6099 0.7163 -0.00081 0.0
C743 C 0.63202 0.69945 0.98577 0.0
H744 H 0.45154 0.27317 0.1399 0.0
H745 H 0.45779 0.32369 0.05986 0.0
H746 H 0.47725 0.36563 0.08784 0.0
H747 H 0.43165 0.33332 0.18856 0.0
H748 H 0.45368 0.31977 0.21829 0.0
H749 H 0.43811 0.29455 0.19231 0.0
H750 H 0.4896 0.27354 0.18141 0.0
H751 H 0.50531 0.29868 0.20731 0.0
H752 H 0.51832 0.29795 0.17012 0.0
H753 H 0.49664 0.40175 0.12437 0.0
H754 H 0.51783 0.42833 0.16641 0.0
H755 H 0.50122 0.35322 0.22199 0.0
C756 C 0.45664 0.29322 0.12837 0.0
C757 C 0.45298 0.29535 0.09781 0.0
C758 C 0.46046 0.32166 0.08331 0.0
C759 C 0.47138 0.34562 0.09901 0.0
C760 C 0.47494 0.34276 0.1291 0.0
C761 C 0.468 0.31717 0.14362 0.0
C762 C 0.47563 0.31914 0.17575 0.0
C763 C 0.44813 0.31655 0.19485 0.0
C764 C 0.49858 0.29596 0.18413 0.0
C765 C 0.48816 0.34973 0.17697 0.0
C766 C 0.48719 0.36315 0.14994 0.0
C767 C 0.49753 0.39149 0.14566 0.0
C768 C 0.50947 0.40642 0.16965 0.0
C769 C 0.51131 0.39275 0.19737 0.0
C770 C 0.50031 0.36413 0.201 0.0
H771 H 0.95516 0.23318 0.85429 0.0
H772 H 0.92287 0.17239 0.91944 0.0
H773 H 0.93639 0.13085 0.88781 0.0
H774 H 0.93476 0.18893 0.78863 0.0
H775 H 0.96766 0.19862 0.76938 0.0
H776 H 0.95173 0.2239 0.79518 0.0
H777 H 0.00081 0.22612 0.82325 0.0
H778 H 0.01681 0.20072 0.79772 0.0
H779 H 0.01719 0.19265 0.83628 0.0
H780 H 0.95733 0.09603 0.85217 0.0
H781 H 0.98467 0.06959 0.81393 0.0
H782 H 0.00465 0.15236 0.77175 0.0
C783 C 0.95026 0.21113 0.8614 0.0
C784 C 0.93785 0.20588 0.88913 0.0
C785 C 0.93241 0.17677 0.89822 0.0
C786 C 0.93988 0.15305 0.88039 0.0
C787 C 0.95285 0.15879 0.85354 0.0
C788 C 0.95796 0.18703 0.84393 0.0
C789 C 0.97454 0.18683 0.81524 0.0
C790 C 0.95606 0.20037 0.79065 0.0
C791 C 0.00409 0.2025 0.81833 0.0
C792 C 0.97853 0.15416 0.81077 0.0
C793 C 0.96552 0.13843 0.83295 0.0
C794 C 0.96736 0.10803 0.83444 0.0
C795 C 0.98305 0.09322 0.81268 0.0
C796 C 0.99685 0.10885 0.78984 0.0
C797 C 0.99424 0.13973 0.78882 0.0
H798 H 0.4762 0.90508 0.32713 0.0
H799 H 0.49288 0.85535 0.24784 0.0
H800 H 0.51283 0.8148 0.27721 0.0
H801 H 0.54063 0.87995 0.36785 0.0
H802 H 0.52128 0.87808 0.40211 0.0
H803 H 0.51033 0.90426 0.37477 0.0
H804 H 0.45778 0.88342 0.37589 0.0
H805 H 0.46861 0.85706 0.40306 0.0
H806 H 0.45214 0.8449 0.36938 0.0
H807 H 0.52883 0.77882 0.31475 0.0
H808 H 0.54027 0.74952 0.35851 0.0
H809 H 0.5123 0.82179 0.41382 0.0
C810 C 0.48453 0.88586 0.31598 0.0
C811 C 0.48308 0.88338 0.28522 0.0
C812 C 0.49371 0.85767 0.27141 0.0
C813 C 0.50515 0.83454 0.28787 0.0
C814 C 0.50573 0.83737 0.31815 0.0
C815 C 0.49579 0.86234 0.33214 0.0
C816 C 0.49766 0.85906 0.36507 0.0
C817 C 0.51874 0.88168 0.37822 0.0
C818 C 0.46724 0.86123 0.37917 0.0
C819 C 0.50993 0.82829 0.3673 0.0
C820 C 0.51459 0.81629 0.33996 0.0
C821 C 0.52544 0.78801 0.33631 0.0
C822 C 0.53184 0.77153 0.36133 0.0
C823 C 0.52724 0.78332 0.38964 0.0
C824 C 0.51608 0.8121 0.39252 0.0
H825 H 0.0023 0.73361 0.62078 0.0
H826 H 0.08453 0.69043 0.60147 0.0
H827 H 0.07305 0.65196 0.63762 0.0
H828 H 0.00347 0.71739 0.70014 0.0
H829 H 0.96445 0.7126 0.70154 0.0
H830 H 0.98021 0.73754 0.6755 0.0
H831 H 0.95382 0.71014 0.6335 0.0
H832 H 0.93833 0.68485 0.6593 0.0
H833 H 0.95962 0.67133 0.62897 0.0
H834 H 0.04964 0.6152 0.67069 0.0
H835 H 0.0191 0.58619 0.70463 0.0
H836 H 0.95431 0.65556 0.70544 0.0
C837 C 0.01806 0.71631 0.62464 0.0
C838 C 0.04423 0.7148 0.60855 0.0
C839 C 0.06448 0.69198 0.61394 0.0
C840 C 0.05808 0.67001 0.63424 0.0
C841 C 0.03171 0.6717 0.64929 0.0
C842 C 0.01235 0.69463 0.6453 0.0
C843 C 0.98548 0.69122 0.66415 0.0
C844 C 0.98329 0.71617 0.68667 0.0
C845 C 0.95768 0.68926 0.64535 0.0
C846 C 0.99235 0.66232 0.67868 0.0
C847 C 0.01899 0.65128 0.66962 0.0
C848 C 0.02902 0.62384 0.67843 0.0
C849 C 0.01151 0.60747 0.69741 0.0
C850 C 0.98467 0.61892 0.70759 0.0
C851 C 0.97502 0.64665 0.69818 0.0
H852 H 0.88036 0.50771 0.71844 0.0
H853 H 0.87293 0.60072 0.70014 0.0
H854 H 0.83688 0.59019 0.66147 0.0
H855 H 0.87615 0.48287 0.64557 0.0
H856 H 0.85455 0.451 0.65378 0.0
H857 H 0.87875 0.46583 0.68101 0.0
H858 H 0.83564 0.47075 0.71742 0.0
H859 H 0.81133 0.45565 0.6904 0.0
H860 H 0.80339 0.49073 0.7067 0.0
H861 H 0.80462 0.56932 0.62249 0.0
H862 H 0.77464 0.53971 0.58872 0.0
H863 H 0.80195 0.46064 0.63381 0.0
C864 C 0.87096 0.52588 0.70648 0.0
C865 C 0.87949 0.555 0.7122 0.0
C866 C 0.8666 0.57823 0.69619 0.0
C867 C 0.8462 0.57248 0.67412 0.0
C868 C 0.83872 0.54347 0.66866 0.0
C869 C 0.85036 0.52059 0.68464 0.0
C870 C 0.83873 0.4914 0.67433 0.0
C871 C 0.86353 0.47162 0.663 0.0
C872 C 0.82123 0.47625 0.69866 0.0
C873 C 0.8191 0.50142 0.64972 0.0
C874 C 0.8195 0.53151 0.6467 0.0
C875 C 0.80388 0.54576 0.62479 0.0
C876 C 0.7871 0.52876 0.60563 0.0
C877 C 0.78596 0.49794 0.60874 0.0
C878 C 0.80223 0.48419 0.63107 0.0
H879 H 0.59154 0.49617 0.19503 0.0
H880 H 0.64066 0.42486 0.23404 0.0
H881 H 0.68297 0.43682 0.20286 0.0
H882 H 0.61842 0.48491 0.1219 0.0
H883 H 0.61969 0.52334 0.1131 0.0
H884 H 0.59348 0.51011 0.13928 0.0
H885 H 0.61301 0.54664 0.17801 0.0
H886 H 0.63905 0.5602 0.15186 0.0
H887 H 0.65139 0.54671 0.18677 0.0
H888 H 0.72016 0.45738 0.16933 0.0
H889 H 0.75012 0.48482 0.13375 0.0
H890 H 0.67593 0.54019 0.11326 0.0
C891 C 0.61136 0.48336 0.19717 0.0
C892 C 0.61311 0.45978 0.217 0.0
C893 C 0.63907 0.44304 0.21892 0.0
C894 C 0.66312 0.44964 0.20134 0.0
C895 C 0.66061 0.47272 0.18167 0.0
C896 C 0.63541 0.48926 0.17932 0.0
C897 C 0.63831 0.5124 0.15582 0.0
C898 C 0.61616 0.50738 0.13106 0.0
C899 C 0.63527 0.54331 0.1689 0.0
C900 C 0.66921 0.50647 0.1456 0.0
C901 C 0.68167 0.48357 0.16098 0.0
C902 C 0.71057 0.47504 0.15681 0.0
C903 C 0.72734 0.49063 0.13663 0.0
C904 C 0.71494 0.51398 0.12061 0.0
C905 C 0.68548 0.52181 0.1248 0.0
H906 H 0.40477 0.98581 0.31924 0.0
H907 H 0.3539 0.92237 0.27034 0.0
H908 H 0.31263 0.92965 0.30452 0.0
H909 H 0.37661 0.96553 0.39221 0.0
H910 H 0.37705 0.00293 0.40485 0.0
H911 H 0.40333 0.99074 0.37811 0.0
H912 H 0.38693 0.03222 0.34306 0.0
H913 H 0.36073 0.04455 0.36966 0.0
H914 H 0.34894 0.03531 0.33319 0.0
H915 H 0.27533 0.94873 0.33956 0.0
H916 H 0.24502 0.97673 0.37461 0.0
H917 H 0.32128 0.02505 0.40286 0.0
C918 C 0.38504 0.97323 0.31588 0.0
C919 C 0.38235 0.95365 0.29212 0.0
C920 C 0.35633 0.93742 0.2885 0.0
C921 C 0.33287 0.94136 0.3078 0.0
C922 C 0.33615 0.96111 0.33085 0.0
C923 C 0.3617 0.97651 0.33517 0.0
C924 C 0.35923 0.99737 0.36079 0.0
C925 C 0.38031 0.9886 0.38545 0.0
C926 C 0.36424 0.02924 0.35108 0.0
C927 C 0.32785 0.99221 0.36951 0.0
C928 C 0.31497 0.97109 0.35204 0.0
C929 C 0.28532 0.96473 0.35386 0.0
C930 C 0.26832 0.98072 0.3737 0.0
C931 C 0.28115 0.00245 0.39158 0.0
C932 C 0.31132 0.00784 0.38997 0.0
H933 H 0.17262 0.9609 0.88173 0.0
H934 H 0.23884 0.02802 0.87446 0.0
H935 H 0.20701 0.05614 0.84086 0.0
H936 H 0.15277 0.96169 0.80701 0.0
H937 H 0.11441 0.95545 0.81308 0.0
H938 H 0.14082 0.94211 0.83903 0.0
H939 H 0.11464 0.97036 0.88068 0.0
H940 H 0.08797 0.98359 0.85489 0.0
H941 H 0.10829 0.00915 0.87695 0.0
H942 H 0.16917 0.07586 0.80717 0.0
H943 H 0.128 0.08572 0.77385 0.0
H944 H 0.08722 0.00425 0.8004 0.0
C945 C 0.17994 0.98186 0.8735 0.0
C946 C 0.20768 0.99286 0.88088 0.0
C947 C 0.21732 0.01973 0.86917 0.0
C948 C 0.19947 0.03574 0.85015 0.0
C949 C 0.17229 0.02422 0.84285 0.0
C950 C 0.16255 0.99787 0.85403 0.0
C951 C 0.13331 0.9895 0.841 0.0
C952 C 0.13548 0.96047 0.82402 0.0
C953 C 0.10965 0.98808 0.8648 0.0
C954 C 0.1283 0.01513 0.82061 0.0
C955 C 0.15091 0.03503 0.82231 0.0
C956 C 0.15128 0.0605 0.80567 0.0
C957 C 0.1278 0.0659 0.78683 0.0
C958 C 0.10447 0.04573 0.78453 0.0
C959 C 0.10485 0.01996 0.80158 0.0
H960 H 0.70642 0.89217 0.49042 0.0
H961 H 0.70011 0.88226 0.5847 0.0
H962 H 0.6635 0.84349 0.57806 0.0
H963 H 0.63154 0.88257 0.47467 0.0
H964 H 0.63721 0.86185 0.44156 0.0
H965 H 0.66422 0.88786 0.45338 0.0
H966 H 0.70379 0.84723 0.45254 0.0
H967 H 0.67689 0.82107 0.44061 0.0
H968 H 0.6981 0.81407 0.47308 0.0
H969 H 0.62499 0.80931 0.56192 0.0
H970 H 0.58838 0.77885 0.53686 0.0
H971 H 0.62068 0.80837 0.45273 0.0
C972 C 0.6975 0.88168 0.50965 0.0
C973 C 0.70608 0.89035 0.53809 0.0
C974 C 0.69396 0.876 0.5627 0.0
C975 C 0.67313 0.85395 0.55917 0.0
C976 C 0.6649 0.8462 0.53091 0.0
C977 C 0.67687 0.85933 0.50653 0.0
C978 C 0.6637 0.84711 0.47864 0.0
C979 C 0.64825 0.87129 0.46104 0.0
C980 C 0.68702 0.83144 0.46013 0.0
C981 C 0.642 0.82555 0.49124 0.0
C982 C 0.64312 0.8255 0.52146 0.0
C983 C 0.62414 0.80883 0.53828 0.0
C984 C 0.60335 0.79175 0.52386 0.0
C985 C 0.60188 0.79125 0.49293 0.0
C986 C 0.62168 0.8081 0.47639 0.0
H987 H 0.88348 0.2016 0.01915 0.0
H988 H 0.82988 0.23082 0.94636 0.0
H989 H 0.78994 0.19926 0.96311 0.0
H990 H 0.86347 0.12882 0.01628 0.0
H991 H 0.86266 0.12273 0.05521 0.0
H992 H 0.88584 0.15068 0.04026 0.0
H993 H 0.86134 0.18947 0.07367 0.0
H994 H 0.83811 0.16156 0.08887 0.0
H995 H 0.82223 0.19392 0.07283 0.0
H996 H 0.75893 0.16038 0.98268 0.0
H997 H 0.73727 0.11681 0.00596 0.0
H998 H 0.80919 0.11315 0.06742 0.0
C999 C 0.86311 0.20182 0.00714 0.0
C1000 C 0.85984 0.21855 0.98138 0.0
C1001 C 0.83297 0.21803 0.96605 0.0
C1002 C 0.81005 0.20033 0.97547 0.0
C1003 C 0.81421 0.18352 0.00045 0.0
C1004 C 0.83989 0.18424 0.0163 0.0
C1005 C 0.83933 0.16221 0.04104 0.0
C1006 C 0.8643 0.13979 0.03799 0.0
C1007 C 0.8403 0.17772 0.07087 0.0
C1008 C 0.80985 0.14822 0.03576 0.0
C1009 C 0.79568 0.16114 0.01237 0.0
C1010 C 0.76943 0.15046 0.00142 0.0
C1011 C 0.75744 0.12569 0.01455 0.0
C1012 C 0.77163 0.11213 0.03838 0.0
C1013 C 0.79781 0.12373 0.04954 0.0
H1014 H 0.13953 0.72226 0.4886 0.0
H1015 H 0.07318 0.66686 0.52751 0.0
H1016 H 0.10109 0.62304 0.51315 0.0
H1017 H 0.15417 0.67354 0.42605 0.0
H1018 H 0.19272 0.68131 0.42572 0.0
H1019 H 0.16722 0.70868 0.43832 0.0
H1020 H 0.19525 0.71237 0.48739 0.0
H1021 H 0.22076 0.68498 0.47499 0.0
H1022 H 0.20119 0.67977 0.50877 0.0
H1023 H 0.13748 0.58577 0.499 0.0
H1024 H 0.17908 0.5561 0.48152 0.0
H1025 H 0.22075 0.63429 0.44795 0.0
C1026 C 0.13086 0.70086 0.49386 0.0
C1027 C 0.10422 0.69791 0.50916 0.0
C1028 C 0.09342 0.66962 0.5156 0.0
C1029 C 0.10915 0.64459 0.50762 0.0
C1030 C 0.13538 0.64819 0.49276 0.0
C1031 C 0.14604 0.6755 0.4855 0.0
C1032 C 0.17485 0.67294 0.4693 0.0
C1033 C 0.17206 0.68482 0.43798 0.0
C1034 C 0.19946 0.68843 0.48613 0.0
C1035 C 0.17899 0.63998 0.46933 0.0
C1036 C 0.15595 0.62625 0.48315 0.0
C1037 C 0.15544 0.59614 0.4877 0.0
C1038 C 0.17915 0.57954 0.47785 0.0
C1039 C 0.20277 0.59301 0.46326 0.0
C1040 C 0.20261 0.62356 0.45865 0.0
H1041 H 0.37079 0.30963 0.03364 0.0
H1042 H 0.38265 0.24817 0.96221 0.0
H1043 H 0.3479 0.27686 0.93203 0.0
H1044 H 0.29541 0.32346 0.02401 0.0
H1045 H 0.29765 0.36199 0.0323 0.0
H1046 H 0.32364 0.33688 0.04798 0.0
H1047 H 0.36626 0.36714 0.02636 0.0
H1048 H 0.34041 0.39248 0.01077 0.0
H1049 H 0.367 0.37471 0.98769 0.0
H1050 H 0.30864 0.30988 0.9117 0.0
H1051 H 0.27221 0.34825 0.9001 0.0
H1052 H 0.28957 0.39043 0.98329 0.0
C1053 C 0.36613 0.30232 0.01159 0.0
C1054 C 0.37909 0.27667 0.00018 0.0
C1055 C 0.37289 0.26787 0.97118 0.0
C1056 C 0.35316 0.28392 0.954 0.0
C1057 C 0.34043 0.30897 0.96605 0.0
C1058 C 0.3471 0.31843 0.99398 0.0
C1059 C 0.33097 0.34639 0.00158 0.0
C1060 C 0.31072 0.34189 0.02803 0.0
C1061 C 0.35244 0.37168 0.00691 0.0
C1062 C 0.31371 0.35093 0.97377 0.0
C1063 C 0.31922 0.32893 0.95367 0.0
C1064 C 0.30449 0.32746 0.92706 0.0
C1065 C 0.28378 0.3492 0.92074 0.0
C1066 C 0.27844 0.37229 0.94073 0.0
C1067 C 0.29368 0.37321 0.96749 0.0
H1068 H 0.48659 0.645 0.77712 0.0
H1069 H 0.48474 0.56615 0.83008 0.0
H1070 H 0.50889 0.59282 0.87033 0.0
H1071 H 0.55769 0.67084 0.80251 0.0
H1072 H 0.54678 0.70878 0.80186 0.0
H1073 H 0.53063 0.68314 0.77664 0.0
H1074 H 0.47905 0.69761 0.79503 0.0
H1075 H 0.495 0.72331 0.82021 0.0
H1076 H 0.47086 0.69522 0.83352 0.0
H1077 H 0.52915 0.6286 0.90577 0.0
H1078 H 0.54582 0.67127 0.93427 0.0
H1079 H 0.53678 0.72648 0.85767 0.0
C1080 C 0.49133 0.6333 0.79716 0.0
C1081 C 0.48365 0.60356 0.80061 0.0
C1082 C 0.49045 0.58893 0.82702 0.0
C1083 C 0.50419 0.60386 0.84994 0.0
C1084 C 0.51131 0.6332 0.84586 0.0
C1085 C 0.50533 0.64774 0.82009 0.0
C1086 C 0.51459 0.6795 0.82161 0.0
C1087 C 0.53887 0.68593 0.79933 0.0
C1088 C 0.48831 0.70012 0.81735 0.0
C1089 C 0.52603 0.68076 0.85261 0.0
C1090 C 0.52398 0.65375 0.86612 0.0
C1091 C 0.53128 0.64975 0.89535 0.0
C1092 C 0.54058 0.67409 0.91134 0.0
C1093 C 0.54269 0.70195 0.89798 0.0
C1094 C 0.53583 0.70524 0.86813 0.0
H1095 H 0.96947 0.84401 0.20558 0.0
H1096 H 0.02834 0.91786 0.19796 0.0
H1097 H 0.06138 0.88795 0.16705 0.0
H1098 H 0.02417 0.78673 0.20777 0.0
H1099 H 0.00277 0.76187 0.18594 0.0
H1100 H 0.98487 0.7885 0.20893 0.0
H1101 H 0.95648 0.80877 0.16419 0.0
H1102 H 0.97386 0.78187 0.14128 0.0
H1103 H 0.97642 0.82017 0.13221 0.0
H1104 H 0.08766 0.84948 0.13628 0.0
H1105 H 0.10075 0.80872 0.10269 0.0
H1106 H 0.02337 0.76172 0.1298 0.0
C1107 C 0.98936 0.85391 0.19751 0.0
C1108 C 0.99642 0.8832 0.20419 0.0
C1109 C 0.02246 0.89547 0.19291 0.0
C1110 C 0.04148 0.87856 0.17564 0.0
C1111 C 0.03402 0.84955 0.16978 0.0
C1112 C 0.00832 0.83753 0.18005 0.0
C1113 C 0.00408 0.80665 0.16903 0.0
C1114 C 0.00398 0.78464 0.19444 0.0
C1115 C 0.97607 0.80424 0.15057 0.0
C1116 C 0.03115 0.80327 0.15047 0.0
C1117 C 0.04857 0.82792 0.15163 0.0
C1118 C 0.07429 0.83 0.13537 0.0
C1119 C 0.08171 0.80673 0.11659 0.0
C1120 C 0.06313 0.7822 0.11405 0.0
C1121 C 0.03805 0.78019 0.13173 0.0
H1122 H 0.52 0.0911 0.67455 0.0
H1123 H 0.49215 0.13538 0.75391 0.0
H1124 H 0.47032 0.17489 0.72433 0.0
H1125 H 0.54085 0.15505 0.63659 0.0
H1126 H 0.52853 0.14263 0.60127 0.0
H1127 H 0.53987 0.11644 0.6284 0.0
H1128 H 0.48993 0.09022 0.62438 0.0
H1129 H 0.47849 0.11623 0.59707 0.0
H1130 H 0.45677 0.11096 0.62948 0.0
H1131 H 0.45366 0.21054 0.68672 0.0
H1132 H 0.44275 0.24029 0.64322 0.0
H1133 H 0.4823 0.17364 0.58793 0.0
C1134 C 0.50881 0.10883 0.68566 0.0
C1135 C 0.5076 0.11011 0.71652 0.0
C1136 C 0.49331 0.13398 0.73029 0.0
C1137 C 0.48081 0.15649 0.71369 0.0
C1138 C 0.48289 0.15487 0.68336 0.0
C1139 C 0.49646 0.13168 0.66941 0.0
C1140 C 0.4969 0.13608 0.63657 0.0
C1141 C 0.52841 0.13765 0.62504 0.0
C1142 C 0.47948 0.11194 0.62096 0.0
C1143 C 0.48167 0.16548 0.6343 0.0
C1144 C 0.47364 0.1758 0.66155 0.0
C1145 C 0.45967 0.20264 0.66522 0.0
C1146 C 0.45359 0.21939 0.64033 0.0
C1147 C 0.46158 0.20931 0.61208 0.0
C1148 C 0.47587 0.18197 0.60916 0.0
H1149 H 0.96766 0.31858 0.39922 0.0
H1150 H 0.93687 0.24848 0.34286 0.0
H1151 H 0.95396 0.27569 0.29966 0.0
H1152 H 0.94844 0.37867 0.34983 0.0
H1153 H 0.98032 0.3997 0.35932 0.0
H1154 H 0.96423 0.37541 0.38579 0.0
H1155 H 0.014 0.349 0.39207 0.0
H1156 H 0.0302 0.37311 0.36558 0.0
H1157 H 0.03212 0.33402 0.36038 0.0
H1158 H 0.97767 0.30824 0.26323 0.0
H1159 H 0.00464 0.34559 0.23528 0.0
H1160 H 0.01838 0.39544 0.31501 0.0
C1161 C 0.96426 0.30907 0.37778 0.0
C1162 C 0.95093 0.28144 0.37438 0.0
C1163 C 0.94689 0.26972 0.34596 0.0
C1164 C 0.95653 0.28497 0.3213 0.0
C1165 C 0.96984 0.31201 0.32544 0.0
C1166 C 0.97348 0.32412 0.3529 0.0
C1167 C 0.9891 0.35322 0.35133 0.0
C1168 C 0.96933 0.37823 0.36221 0.0
C1169 C 0.01807 0.35226 0.36834 0.0
C1170 C 0.99423 0.35524 0.31873 0.0
C1171 C 0.98293 0.33123 0.30423 0.0
C1172 C 0.98631 0.32734 0.27424 0.0
C1173 C 0.00176 0.34855 0.25862 0.0
C1174 C 0.01343 0.37336 0.27305 0.0
C1175 C 0.00933 0.37686 0.30342 0.0
H1176 H 0.16857 0.47911 0.02224 0.0
H1177 H 0.23014 0.40733 0.02966 0.0
H1178 H 0.21626 0.40116 0.08184 0.0
H1179 H 0.1765 0.50802 0.0983 0.0
H1180 H 0.13805 0.51631 0.10059 0.0
H1181 H 0.15657 0.51847 0.06595 0.0
H1182 H 0.11962 0.48275 0.0428 0.0
H1183 H 0.10052 0.48053 0.07696 0.0
H1184 H 0.11364 0.44757 0.05959 0.0
H1185 H 0.18895 0.39813 0.13088 0.0
H1186 H 0.15165 0.39855 0.17033 0.0
H1187 H 0.10931 0.47273 0.12915 0.0
C1188 C 0.17971 0.46254 0.03504 0.0
C1189 C 0.20032 0.44362 0.02208 0.0
C1190 C 0.21443 0.42219 0.0394 0.0
C1191 C 0.20667 0.41858 0.06899 0.0
C1192 C 0.18528 0.437 0.08084 0.0
C1193 C 0.17238 0.45886 0.06433 0.0
C1194 C 0.14788 0.47383 0.08061 0.0
C1195 C 0.15522 0.50607 0.08675 0.0
C1196 C 0.11872 0.47096 0.06401 0.0
C1197 C 0.14791 0.45615 0.1084 0.0
C1198 C 0.16987 0.43531 0.10861 0.0
C1199 C 0.1721 0.41478 0.13116 0.0
C1200 C 0.15091 0.41519 0.15351 0.0
C1201 C 0.12769 0.43568 0.15267 0.0
C1202 C 0.12692 0.45689 0.13037 0.0
H1203 H 0.34369 0.57174 0.51933 0.0
H1204 H 0.26876 0.52379 0.55188 0.0
H1205 H 0.28532 0.53282 0.60266 0.0
H1206 H 0.39364 0.54293 0.56757 0.0
H1207 H 0.41457 0.57607 0.57144 0.0
H1208 H 0.39439 0.56945 0.53842 0.0
H1209 H 0.3672 0.61888 0.54501 0.0
H1210 H 0.38732 0.62568 0.57819 0.0
H1211 H 0.34797 0.62624 0.57864 0.0
H1212 H 0.31333 0.54328 0.64992 0.0
H1213 H 0.35097 0.55192 0.68803 0.0
H1214 H 0.40688 0.59189 0.62293 0.0
C1215 C 0.33036 0.56351 0.53705 0.0
C1216 C 0.3049 0.54705 0.53159 0.0
C1217 C 0.28833 0.53653 0.55553 0.0
C1218 C 0.2975 0.54165 0.58444 0.0
C1219 C 0.32313 0.55749 0.58895 0.0
C1220 C 0.33921 0.56829 0.5658 0.0
C1221 C 0.36726 0.58229 0.57592 0.0
C1222 C 0.39402 0.56674 0.56256 0.0
C1223 C 0.36743 0.61523 0.56903 0.0
C1224 C 0.36502 0.57689 0.60837 0.0
C1225 C 0.33924 0.56306 0.61573 0.0
C1226 C 0.33339 0.55446 0.64443 0.0
C1227 C 0.35478 0.55951 0.66593 0.0
C1228 C 0.38172 0.57256 0.65833 0.0
C1229 C 0.38643 0.58191 0.62936 0.0
H1230 H 0.60955 0.01091 0.85863 0.0
H1231 H 0.6387 0.09443 0.82467 0.0
H1232 H 0.67457 0.09807 0.86518 0.0
H1233 H 0.60817 0.02976 0.92979 0.0
H1234 H 0.62082 0.99527 0.94412 0.0
H1235 H 0.60215 0.99634 0.90963 0.0
H1236 H 0.64566 0.97102 0.88382 0.0
H1237 H 0.66443 0.96909 0.91825 0.0
H1238 H 0.68183 0.9861 0.88744 0.0
H1239 H 0.70156 0.0956 0.91398 0.0
H1240 H 0.71781 0.08662 0.96504 0.0
H1241 H 0.66922 0.00555 0.96636 0.0
C1242 C 0.624 0.02966 0.85925 0.0
C1243 C 0.62142 0.05241 0.83864 0.0
C1244 C 0.6406 0.07661 0.84015 0.0
C1245 C 0.66094 0.07886 0.86311 0.0
C1246 C 0.66194 0.05653 0.88393 0.0
C1247 C 0.64415 0.03222 0.88185 0.0
C1248 C 0.64728 0.01239 0.908 0.0
C1249 C 0.61787 0.00823 0.9238 0.0
C1250 C 0.66061 0.98291 0.8988 0.0
C1251 C 0.6684 0.03003 0.92615 0.0
C1252 C 0.67719 0.05515 0.91174 0.0
C1253 C 0.69525 0.07575 0.92518 0.0
C1254 C 0.70428 0.07059 0.9541 0.0
C1255 C 0.69487 0.04531 0.96911 0.0
C1256 C 0.67704 0.02473 0.95492 0.0
H1257 H 0.82743 0.91066 0.4655 0.0
H1258 H 0.76079 0.96973 0.43277 0.0
H1259 H 0.77845 0.96115 0.38221 0.0
H1260 H 0.88272 0.93619 0.42212 0.0
H1261 H 0.89999 0.90089 0.41823 0.0
H1262 H 0.87801 0.90867 0.44981 0.0
H1263 H 0.8465 0.86216 0.43723 0.0
H1264 H 0.86885 0.8558 0.4054 0.0
H1265 H 0.82985 0.85943 0.40165 0.0
H1266 H 0.80918 0.95196 0.33609 0.0
H1267 H 0.8496 0.94392 0.30067 0.0
H1268 H 0.89523 0.8917 0.36524 0.0
C1269 C 0.81597 0.92126 0.44768 0.0
C1270 C 0.79275 0.94088 0.45307 0.0
C1271 C 0.77851 0.95441 0.42912 0.0
C1272 C 0.7884 0.94965 0.40033 0.0
C1273 C 0.81226 0.93103 0.39594 0.0
C1274 C 0.82561 0.91688 0.4191 0.0
C1275 C 0.85281 0.90077 0.40964 0.0
C1276 C 0.87996 0.91231 0.4259 0.0
C1277 C 0.84929 0.86757 0.41372 0.0
C1278 C 0.85347 0.90887 0.37768 0.0
C1279 C 0.82974 0.92591 0.36983 0.0
C1280 C 0.82749 0.93812 0.34188 0.0
C1281 C 0.85044 0.9334 0.32187 0.0
C1282 C 0.87536 0.9171 0.33026 0.0
C1283 C 0.87629 0.90405 0.35815 0.0
H1284 H 0.11826 0.09234 0.40901 0.0
H1285 H 0.18441 0.1546 0.43543 0.0
H1286 H 0.14738 0.19449 0.43399 0.0
H1287 H 0.07598 0.14363 0.36134 0.0
H1288 H 0.04153 0.12842 0.3723 0.0
H1289 H 0.07339 0.10524 0.37014 0.0
H1290 H 0.06742 0.08906 0.42363 0.0
H1291 H 0.03487 0.11074 0.4266 0.0
H1292 H 0.06438 0.11632 0.45205 0.0
H1293 H 0.1007 0.22545 0.43736 0.0
H1294 H 0.05013 0.24348 0.44576 0.0
H1295 H 0.01621 0.15974 0.41734 0.0
C1296 C 0.12513 0.11452 0.4138 0.0
C1297 C 0.15399 0.12057 0.42243 0.0
C1298 C 0.16233 0.14973 0.42853 0.0
C1299 C 0.14146 0.17243 0.42773 0.0
C1300 C 0.11273 0.16547 0.42015 0.0
C1301 C 0.1048 0.13717 0.41286 0.0
C1302 C 0.07233 0.13435 0.40828 0.0
C1303 C 0.06543 0.12748 0.3761 0.0
C1304 C 0.059 0.11128 0.42888 0.0
C1305 C 0.06277 0.16494 0.41624 0.0
C1306 C 0.08625 0.18298 0.42219 0.0
C1307 C 0.08223 0.21166 0.43218 0.0
C1308 C 0.05353 0.22175 0.43687 0.0
C1309 C 0.02956 0.20286 0.43218 0.0
C1310 C 0.0343 0.17455 0.42098 0.0
H1311 H 0.37577 0.9081 0.90206 0.0
H1312 H 0.30977 0.84701 0.93128 0.0
H1313 H 0.34771 0.80808 0.93501 0.0
H1314 H 0.42201 0.85486 0.861 0.0
H1315 H 0.45485 0.87323 0.87251 0.0
H1316 H 0.42164 0.89383 0.86731 0.0
H1317 H 0.42567 0.91378 0.92025 0.0
H1318 H 0.45863 0.89318 0.92574 0.0
H1319 H 0.42823 0.88836 0.95027 0.0
H1320 H 0.39534 0.77819 0.94206 0.0
H1321 H 0.44614 0.76142 0.95168 0.0
H1322 H 0.47889 0.84364 0.91799 0.0
C1323 C 0.36909 0.88633 0.90859 0.0
C1324 C 0.33993 0.88047 0.91642 0.0
C1325 C 0.33202 0.85179 0.9249 0.0
C1326 C 0.35344 0.82963 0.9271 0.0
C1327 C 0.38238 0.83656 0.92024 0.0
C1328 C 0.38997 0.86426 0.91076 0.0
C1329 C 0.42255 0.86754 0.90731 0.0
C1330 C 0.43073 0.87266 0.87512 0.0
C1331 C 0.43444 0.89215 0.92708 0.0
C1332 C 0.43247 0.83778 0.91755 0.0
C1333 C 0.40919 0.81984 0.92445 0.0
C1334 C 0.41363 0.79195 0.93625 0.0
C1335 C 0.4425 0.78257 0.94162 0.0
C1336 C 0.46632 0.80132 0.93566 0.0
C1337 C 0.46107 0.82885 0.92281 0.0
H1338 H 0.54915 0.31019 0.50422 0.0
H1339 H 0.54602 0.26528 0.58748 0.0
H1340 H 0.59418 0.28643 0.60058 0.0
H1341 H 0.63122 0.3067 0.49396 0.0
H1342 H 0.63114 0.34263 0.4777 0.0
H1343 H 0.60026 0.31873 0.47278 0.0
H1344 H 0.56616 0.3592 0.49337 0.0
H1345 H 0.59681 0.38298 0.49866 0.0
H1346 H 0.5734 0.37429 0.5291 0.0
H1347 H 0.63738 0.32049 0.60792 0.0
H1348 H 0.67189 0.3621 0.60808 0.0
H1349 H 0.64616 0.38331 0.51927 0.0
C1350 C 0.55912 0.30401 0.5248 0.0
C1351 C 0.54415 0.28616 0.54488 0.0
C1352 C 0.55751 0.27866 0.57171 0.0
C1353 C 0.58476 0.29061 0.57928 0.0
C1354 C 0.59841 0.30937 0.55943 0.0
C1355 C 0.58618 0.31549 0.53245 0.0
C1356 C 0.60311 0.33868 0.51624 0.0
C1357 C 0.61728 0.32591 0.48854 0.0
C1358 C 0.58371 0.36534 0.50896 0.0
C1359 C 0.62579 0.34607 0.53898 0.0
C1360 C 0.62321 0.32866 0.56356 0.0
C1361 C 0.64004 0.33373 0.5885 0.0
C1362 C 0.65953 0.35746 0.58843 0.0
C1363 C 0.66168 0.37597 0.56369 0.0
C1364 C 0.64516 0.36951 0.53848 0.0
H1365 H 0.87637 0.60198 0.10382 0.0
H1366 H 0.8154 0.65902 0.05912 0.0
H1367 H 0.85359 0.69748 0.05624 0.0
H1368 H 0.91485 0.66119 0.14481 0.0
H1369 H 0.95002 0.64405 0.14117 0.0
H1370 H 0.91768 0.6218 0.14407 0.0
H1371 H 0.92806 0.59512 0.09523 0.0
H1372 H 0.96182 0.61478 0.09304 0.0
H1373 H 0.9362 0.61635 0.06314 0.0
H1374 H 0.90141 0.72498 0.04994 0.0
H1375 H 0.95288 0.73931 0.04232 0.0
H1376 H 0.98106 0.6646 0.09364 0.0
C1377 C 0.87082 0.62294 0.09423 0.0
C1378 C 0.84314 0.62778 0.08174 0.0
C1379 C 0.83651 0.65523 0.06912 0.0
C1380 C 0.85805 0.67708 0.0674 0.0
C1381 C 0.88565 0.6712 0.07908 0.0
C1382 C 0.89179 0.6449 0.09276 0.0
C1383 C 0.92353 0.64263 0.10138 0.0
C1384 C 0.9267 0.64238 0.13484 0.0
C1385 C 0.93825 0.61565 0.08736 0.0
C1386 C 0.93492 0.67078 0.08855 0.0
C1387 C 0.91279 0.68734 0.07624 0.0
C1388 C 0.91878 0.71257 0.06016 0.0
C1389 C 0.94811 0.72052 0.05589 0.0
C1390 C 0.971 0.70305 0.06737 0.0
C1391 C 0.96409 0.67855 0.08477 0.0
H1392 H 0.3998 0.04053 0.19122 0.0
H1393 H 0.47593 0.06059 0.24369 0.0
H1394 H 0.47242 0.11248 0.22872 0.0
H1395 H 0.41772 0.07922 0.13287 0.0
H1396 H 0.38179 0.09233 0.1234 0.0
H1397 H 0.38573 0.05911 0.14387 0.0
H1398 H 0.35262 0.08014 0.1848 0.0
H1399 H 0.34841 0.11357 0.16427 0.0
H1400 H 0.36152 0.11481 0.20141 0.0
H1401 H 0.4687 0.15753 0.19795 0.0
H1402 H 0.46252 0.19267 0.15721 0.0
H1403 H 0.38663 0.14513 0.12742 0.0
C1404 C 0.41498 0.05615 0.2005 0.0
C1405 C 0.43806 0.04669 0.21865 0.0
C1406 C 0.45784 0.0675 0.23007 0.0
C1407 C 0.456 0.09702 0.22164 0.0
C1408 C 0.43381 0.10541 0.20244 0.0
C1409 C 0.41317 0.08565 0.1926 0.0
C1410 C 0.39368 0.0991 0.16946 0.0
C1411 C 0.39484 0.0814 0.14072 0.0
C1412 C 0.36219 0.10209 0.18067 0.0
C1413 C 0.40788 0.12878 0.16618 0.0
C1414 C 0.43075 0.13225 0.1857 0.0
C1415 C 0.4501 0.15571 0.18348 0.0
C1416 C 0.44646 0.17558 0.16036 0.0
C1417 C 0.42342 0.17207 0.14014 0.0
C1418 C 0.40343 0.14898 0.14364 0.0
H1419 H 0.95114 0.48649 0.85246 0.0
H1420 H 0.92393 0.46059 0.76539 0.0
H1421 H 0.92103 0.40886 0.78172 0.0
H1422 H -0.00251 0.42491 0.86513 0.0
H1423 H 0.98868 0.42228 0.90343 0.0
H1424 H 0.98706 0.45723 0.88535 0.0
H1425 H 0.93331 0.46411 0.90141 0.0
H1426 H 0.93482 0.4295 0.92012 0.0
H1427 H 0.90701 0.43604 0.89301 0.0
H1428 H 0.91867 0.36032 0.80913 0.0
H1429 H 0.91934 0.3191 0.84449 0.0
H1430 H 0.95315 0.37731 0.91126 0.0
C1431 C 0.94412 0.46999 0.83695 0.0
C1432 C 0.93716 0.47739 0.80787 0.0
C1433 C 0.92899 0.45519 0.78789 0.0
C1434 C 0.9274 0.42586 0.79694 0.0
C1435 C 0.93471 0.41923 0.8258 0.0
C1436 C 0.94313 0.44071 0.84539 0.0
C1437 C 0.95069 0.42801 0.8749 0.0
C1438 C 0.98291 0.43343 0.88262 0.0
C1439 C 0.93023 0.44013 0.89876 0.0
C1440 C 0.945 0.39601 0.86902 0.0
C1441 C 0.93548 0.39129 0.84072 0.0
C1442 C 0.92664 0.36366 0.83116 0.0
C1443 C 0.92715 0.34043 0.85126 0.0
C1444 C 0.93703 0.345 0.88021 0.0
C1445 C 0.94648 0.37302 0.88893 0.0
H1446 H 0.57383 0.55024 0.30143 0.0
H1447 H 0.50391 0.50186 0.34316 0.0
H1448 H 0.494 0.54348 0.37547 0.0
H1449 H 0.59963 0.5822 0.36807 0.0
H1450 H 0.60913 0.61727 0.35282 0.0
H1451 H 0.60973 0.58503 0.33008 0.0
H1452 H 0.57424 0.60992 0.29368 0.0
H1453 H 0.57356 0.6423 0.31629 0.0
H1454 H 0.53993 0.62425 0.30677 0.0
H1455 H 0.49084 0.58735 0.40312 0.0
H1456 H 0.49855 0.63158 0.43125 0.0
H1457 H 0.57159 0.65519 0.3753 0.0
C1458 C 0.55596 0.54898 0.31686 0.0
C1459 C 0.53891 0.52325 0.31924 0.0
C1460 C 0.51653 0.52168 0.34041 0.0
C1461 C 0.51064 0.54522 0.3588 0.0
C1462 C 0.52733 0.57032 0.35588 0.0
C1463 C 0.54981 0.57255 0.3359 0.0
C1464 C 0.56587 0.60149 0.34003 0.0
C1465 C 0.598 0.59617 0.34824 0.0
C1466 C 0.56324 0.62063 0.31255 0.0
C1467 C 0.54886 0.61471 0.36554 0.0
C1468 C 0.52655 0.59618 0.37369 0.0
C1469 C 0.50805 0.60227 0.39685 0.0
C1470 C 0.51253 0.62786 0.4126 0.0
C1471 C 0.53529 0.64758 0.40531 0.0
C1472 C 0.55375 0.64089 0.38124 0.0
H1473 H 0.06612 0.98461 0.6424 0.0
H1474 H 0.04375 0.94875 0.72729 0.0
H1475 H 0.05236 0.89867 0.70807 0.0
H1476 H 0.02911 0.93239 0.60151 0.0
H1477 H 0.05528 0.93149 0.57209 0.0
H1478 H 0.05105 0.96414 0.5937 0.0
H1479 H 0.1063 0.96325 0.60606 0.0
H1480 H 0.11069 0.93055 0.58439 0.0
H1481 H 0.12215 0.93087 0.6221 0.0
H1482 H 0.06059 0.85193 0.67775 0.0
H1483 H 0.06461 0.81393 0.63904 0.0
H1484 H 0.07941 0.88188 0.57463 0.0
C1485 C 0.06357 0.96636 0.65725 0.0
C1486 C 0.05447 0.97068 0.68647 0.0
C1487 C 0.05085 0.946 0.70486 0.0
C1488 C 0.05577 0.91749 0.69415 0.0
C1489 C 0.06424 0.91406 0.665 0.0
C1490 C 0.06803 0.93794 0.64688 0.0
C1491 C 0.07471 0.92869 0.61584 0.0
C1492 C 0.05113 0.93983 0.59455 0.0
C1493 C 0.10528 0.93894 0.60656 0.0
C1494 C 0.0736 0.89581 0.61909 0.0
C1495 C 0.06802 0.8876 0.64762 0.0
C1496 C 0.06517 0.85817 0.6554 0.0
C1497 C 0.06757 0.83673 0.63334 0.0
C1498 C 0.07226 0.84497 0.60388 0.0
C1499 C 0.07576 0.87487 0.59696 0.0
H1500 H 0.90461 0.6041 0.87858 0.0
H1501 H 0.84319 0.56947 0.81539 0.0
H1502 H 0.80556 0.56617 0.85439 0.0
H1503 H 0.88792 0.55866 0.9344 0.0
H1504 H 0.89225 0.58528 0.96321 0.0
H1505 H 0.91185 0.58952 0.92951 0.0
H1506 H 0.88932 0.64143 0.92283 0.0
H1507 H 0.86993 0.63718 0.95683 0.0
H1508 H 0.85026 0.64593 0.92382 0.0
H1509 H 0.77796 0.55918 0.90247 0.0
H1510 H 0.76268 0.55098 0.95373 0.0
H1511 H 0.84271 0.59175 0.9839 0.0
C1512 C 0.88298 0.59658 0.87273 0.0
C1513 C 0.87667 0.58703 0.84408 0.0
C1514 C 0.84825 0.57715 0.83723 0.0
C1515 C 0.82684 0.57519 0.85924 0.0
C1516 C 0.83418 0.58382 0.88764 0.0
C1517 C 0.86151 0.59483 0.89419 0.0
C1518 C 0.86517 0.60031 0.92656 0.0
C1519 C 0.89079 0.58237 0.93913 0.0
C1520 C 0.86888 0.63317 0.93288 0.0
C1521 C 0.83616 0.5893 0.93757 0.0
C1522 C 0.81833 0.58022 0.91493 0.0
C1523 C 0.79152 0.56681 0.92029 0.0
C1524 C 0.78305 0.56217 0.94949 0.0
C1525 C 0.80148 0.57071 0.97289 0.0
C1526 C 0.82796 0.58512 0.96661 0.0
H1527 H 0.59007 0.45549 0.36614 0.0
H1528 H 0.6445 0.39506 0.31726 0.0
H1529 H 0.68327 0.39986 0.35521 0.0
H1530 H 0.64876 0.50311 0.3921 0.0
H1531 H 0.63075 0.50892 0.42668 0.0
H1532 H 0.60947 0.50235 0.3942 0.0
H1533 H 0.58384 0.45875 0.41987 0.0
H1534 H 0.60503 0.46514 0.4523 0.0
H1535 H 0.6057 0.42962 0.43508 0.0
H1536 H 0.71371 0.40833 0.40279 0.0
H1537 H 0.73203 0.42016 0.45268 0.0
H1538 H 0.65631 0.47566 0.46675 0.0
C1539 C 0.61027 0.44343 0.36318 0.0
C1540 C 0.61431 0.42469 0.33908 0.0
C1541 C 0.64111 0.40956 0.33572 0.0
C1542 C 0.66315 0.41218 0.35713 0.0
C1543 C 0.65805 0.43046 0.38118 0.0
C1544 C 0.63227 0.44607 0.38388 0.0
C1545 C 0.6309 0.46326 0.41195 0.0
C1546 C 0.62993 0.49637 0.40586 0.0
C1547 C 0.60484 0.45359 0.4309 0.0
C1548 C 0.65955 0.45428 0.42535 0.0
C1549 C 0.67525 0.43556 0.40747 0.0
C1550 C 0.70171 0.42331 0.41669 0.0
C1551 C 0.71198 0.43013 0.44499 0.0
C1552 C 0.69555 0.44875 0.46359 0.0
C1553 C 0.66941 0.46128 0.45318 0.0
H1554 H 0.34893 0.93465 0.01451 0.0
H1555 H 0.26071 0.95179 0.0447 0.0
H1556 H 0.27785 0.94873 0.09601 0.0
H1557 H 0.37145 0.88493 0.07346 0.0
H1558 H 0.40778 0.89997 0.07433 0.0
H1559 H 0.38749 0.89952 0.04058 0.0
H1560 H 0.3947 0.9556 0.0356 0.0
H1561 H 0.41476 0.95625 0.06938 0.0
H1562 H 0.38313 0.97938 0.06493 0.0
H1563 H 0.30635 0.94692 0.14464 0.0
H1564 H 0.34338 0.94864 0.18447 0.0
H1565 H 0.41187 0.93534 0.12034 0.0
C1566 C 0.33296 0.93709 0.03181 0.0
C1567 C 0.30342 0.94324 0.02554 0.0
C1568 C 0.28346 0.9469 0.04898 0.0
C1569 C 0.29299 0.94515 0.07818 0.0
C1570 C 0.32252 0.9398 0.08353 0.0
C1571 C 0.34212 0.9358 0.06085 0.0
C1572 C 0.37305 0.93293 0.07187 0.0
C1573 C 0.38567 0.90253 0.06463 0.0
C1574 C 0.39253 0.95751 0.05973 0.0
C1575 C 0.36798 0.93648 0.10428 0.0
C1576 C 0.33874 0.93993 0.11087 0.0
C1577 C 0.32928 0.94411 0.13966 0.0
C1578 C 0.35036 0.94505 0.16212 0.0
C1579 C 0.38039 0.94245 0.15538 0.0
C1580 C 0.38905 0.93777 0.12614 0.0
H1581 H 0.15816 0.09458 0.5238 0.0
H1582 H 0.23249 0.04563 0.55669 0.0
H1583 H 0.21528 0.05396 0.60729 0.0
H1584 H 0.15015 0.14694 0.58741 0.0
H1585 H 0.11094 0.14511 0.58477 0.0
H1586 H 0.13302 0.14179 0.55229 0.0
H1587 H 0.10804 0.09236 0.54024 0.0
H1588 H 0.08612 0.09539 0.57259 0.0
H1589 H 0.10862 0.06342 0.56702 0.0
H1590 H 0.18507 0.06 0.65338 0.0
H1591 H 0.14436 0.06163 0.68923 0.0
H1592 H 0.08978 0.10464 0.6249 0.0
C1593 C 0.1714 0.08637 0.54163 0.0
C1594 C 0.19663 0.06941 0.53628 0.0
C1595 C 0.21313 0.05883 0.56026 0.0
C1596 C 0.20357 0.06354 0.58909 0.0
C1597 C 0.1777 0.07915 0.5935 0.0
C1598 C 0.16204 0.09064 0.57031 0.0
C1599 C 0.13291 0.10277 0.58002 0.0
C1600 C 0.1317 0.13614 0.57589 0.0
C1601 C 0.10746 0.08755 0.56404 0.0
C1602 C 0.13379 0.09479 0.61201 0.0
C1603 C 0.16007 0.08198 0.61974 0.0
C1604 C 0.16467 0.07056 0.64771 0.0
C1605 C 0.14153 0.07156 0.66792 0.0
C1606 C 0.11416 0.08325 0.65962 0.0
C1607 C 0.11064 0.09572 0.63171 0.0
H1608 H 0.96375 0.83379 0.512 0.0
H1609 H 0.95572 0.77663 0.58695 0.0
H1610 H 0.90542 0.79542 0.59573 0.0
H1611 H 0.92951 0.89459 0.53964 0.0
H1612 H 0.91091 0.9045 0.50632 0.0
H1613 H 0.94436 0.88398 0.50465 0.0
H1614 H 0.91831 0.84375 0.47438 0.0
H1615 H 0.88455 0.86394 0.4763 0.0
H1616 H 0.88599 0.82658 0.48865 0.0
H1617 H 0.85772 0.82475 0.59857 0.0
H1618 H 0.81856 0.86242 0.59606 0.0
H1619 H 0.85875 0.89871 0.51843 0.0
C1620 C 0.95116 0.82509 0.53005 0.0
C1621 C 0.96325 0.80413 0.54902 0.0
C1622 C 0.94648 0.79283 0.57232 0.0
C1623 C 0.91798 0.80326 0.57732 0.0
C1624 C 0.90665 0.82437 0.55835 0.0
C1625 C 0.92272 0.83485 0.53498 0.0
C1626 C 0.90637 0.85827 0.51843 0.0
C1627 C 0.92382 0.88703 0.51723 0.0
C1628 C 0.89834 0.84749 0.48761 0.0
C1629 C 0.87952 0.86105 0.53736 0.0
C1630 C 0.8795 0.84081 0.55981 0.0
C1631 C 0.85735 0.8404 0.58082 0.0
C1632 C 0.83517 0.86173 0.57921 0.0
C1633 C 0.83583 0.88333 0.55709 0.0
C1634 C 0.85782 0.88237 0.53557 0.0
H1635 H 0.61562 0.08617 0.08929 0.0
H1636 H 0.68004 0.14607 0.05457 0.0
H1637 H 0.6423 0.18527 0.05232 0.0
H1638 H 0.5585 0.10661 0.04567 0.0
H1639 H 0.53083 0.10267 0.0734 0.0
H1640 H 0.56378 0.08141 0.07554 0.0
H1641 H 0.5736 0.1018 0.12759 0.0
H1642 H 0.54057 0.12325 0.12559 0.0
H1643 H 0.57489 0.14084 0.13335 0.0
H1644 H 0.59476 0.21557 0.04809 0.0
H1645 H 0.5436 0.23311 0.04272 0.0
H1646 H 0.51284 0.15281 0.08249 0.0
C1647 C 0.62193 0.10767 0.0816 0.0
C1648 C 0.65056 0.11319 0.07192 0.0
C1649 C 0.65812 0.14158 0.06219 0.0
C1650 C 0.63687 0.16389 0.06089 0.0
C1651 C 0.6085 0.15747 0.07008 0.0
C1652 C 0.60128 0.13005 0.08064 0.0
C1653 C 0.56921 0.12767 0.08753 0.0
C1654 C 0.55475 0.10317 0.06945 0.0
C1655 C 0.56429 0.12313 0.12047 0.0
C1656 C 0.55905 0.15758 0.07797 0.0
C1657 C 0.58185 0.17479 0.06828 0.0
C1658 C 0.57686 0.20245 0.05615 0.0
C1659 C 0.5478 0.21229 0.05324 0.0
C1660 C 0.52435 0.19426 0.06213 0.0
C1661 C 0.53033 0.1671 0.07548 0.0
H1662 H 0.46603 0.66879 0.44082 0.0
H1663 H 0.42315 0.74761 0.47095 0.0
H1664 H 0.37487 0.72551 0.45876 0.0
H1665 H 0.41511 0.65072 0.38041 0.0
H1666 H 0.41914 0.61212 0.38759 0.0
H1667 H 0.44902 0.63669 0.39466 0.0
H1668 H 0.45105 0.61781 0.44854 0.0
H1669 H 0.4211 0.59372 0.44115 0.0
H1670 H 0.41861 0.6198 0.47068 0.0
H1671 H 0.33109 0.69018 0.44931 0.0
H1672 H 0.29812 0.64742 0.44273 0.0
H1673 H 0.37256 0.59413 0.41784 0.0
C1674 C 0.44658 0.68171 0.44414 0.0
C1675 C 0.44814 0.70976 0.45664 0.0
C1676 C 0.42224 0.7261 0.46101 0.0
C1677 C 0.39485 0.71367 0.4542 0.0
C1678 C 0.39414 0.68527 0.4426 0.0
C1679 C 0.41959 0.66983 0.43723 0.0
C1680 C 0.41375 0.63905 0.42693 0.0
C1681 C 0.42491 0.63438 0.39553 0.0
C1682 C 0.42689 0.6163 0.44808 0.0
C1683 C 0.38094 0.63898 0.42811 0.0
C1684 C 0.36968 0.66569 0.43696 0.0
C1685 C 0.33975 0.6694 0.44185 0.0
C1686 C 0.32119 0.64507 0.43806 0.0
C1687 C 0.33283 0.61749 0.42985 0.0
C1688 C 0.36293 0.61489 0.42416 0.0
H1689 H 0.02719 0.31306 0.99199 0.0
H1690 H 0.02734 0.25581 0.91639 0.0
H1691 H 0.07772 0.27184 0.90461 0.0
H1692 H 0.05679 0.37084 0.95924 0.0
H1693 H 0.07834 0.38364 0.98965 0.0
H1694 H 0.0461 0.36243 0.99623 0.0
H1695 H 0.07616 0.32462 0.02588 0.0
H1696 H 0.10862 0.34601 0.0198 0.0
H1697 H 0.10795 0.30786 0.00965 0.0
H1698 H 0.12344 0.30177 0.89598 0.0
H1699 H 0.1605 0.34076 0.89214 0.0
H1700 H 0.12942 0.37839 0.97363 0.0
C1701 C 0.03828 0.30303 0.97358 0.0
C1702 C 0.02361 0.28312 0.95514 0.0
C1703 C 0.03849 0.27072 0.93102 0.0
C1704 C 0.06703 0.27982 0.92417 0.0
C1705 C 0.08031 0.30084 0.942 0.0
C1706 C 0.06651 0.31184 0.96657 0.0
C1707 C 0.08347 0.33675 0.98018 0.0
C1708 C 0.06508 0.36506 0.98136 0.0
C1709 C 0.09473 0.32829 0.01068 0.0
C1710 C 0.10824 0.33927 0.95857 0.0
C1711 C 0.10645 0.31808 0.93698 0.0
C1712 C 0.12541 0.31799 0.91313 0.0
C1713 C 0.14633 0.34034 0.91109 0.0
C1714 C 0.14792 0.36268 0.93261 0.0
C1715 C 0.12904 0.36152 0.95697 0.0
H1716 H 0.60739 0.854 0.87706 0.0
H1717 H 0.5287 0.81004 0.84897 0.0
H1718 H 0.52583 0.8425 0.8057 0.0
H1719 H 0.5814 0.92151 0.86533 0.0
H1720 H 0.61489 0.93833 0.8535 0.0
H1721 H 0.61613 0.90685 0.87688 0.0
H1722 H 0.64848 0.87935 0.83944 0.0
H1723 H 0.64778 0.91097 0.81588 0.0
H1724 H 0.6365 0.87579 0.80205 0.0
H1725 H 0.52667 0.8845 0.77091 0.0
H1726 H 0.52731 0.93505 0.75185 0.0
H1727 H 0.60405 0.95348 0.80408 0.0
C1728 C 0.59045 0.85042 0.86091 0.0
C1729 C 0.5688 0.82909 0.8655 0.0
C1730 C 0.54585 0.82588 0.84515 0.0
C1731 C 0.54416 0.84412 0.82053 0.0
C1732 C 0.56544 0.86564 0.81688 0.0
C1733 C 0.58811 0.86895 0.83666 0.0
C1734 C 0.60478 0.89698 0.83118 0.0
C1735 C 0.60423 0.91707 0.85833 0.0
C1736 C 0.63625 0.89037 0.82155 0.0
C1737 C 0.5871 0.90968 0.80623 0.0
C1738 C 0.56513 0.89085 0.79758 0.0
C1739 C 0.54416 0.89917 0.77702 0.0
C1740 C 0.54478 0.9279 0.76615 0.0
C1741 C 0.56584 0.94807 0.77639 0.0
C1742 C 0.588 0.93832 0.79556 0.0
H1743 H 0.03545 0.63316 0.10588 0.0
H1744 H 0.11681 0.66963 0.13748 0.0
H1745 H 0.11682 0.63403 0.1784 0.0
H1746 H 0.00429 0.61655 0.1794 0.0
H1747 H 0.98756 0.58323 0.1667 0.0
H1748 H 0.99177 0.61373 0.14213 0.0
H1749 H 0.01967 0.58187 0.10507 0.0
H1750 H 0.01506 0.55078 0.12853 0.0
H1751 H 0.05117 0.56134 0.117 0.0
H1752 H 0.11227 0.58849 0.20971 0.0
H1753 H 0.10251 0.53869 0.22917 0.0
H1754 H 0.02265 0.53494 0.17892 0.0
C1755 C 0.05297 0.63399 0.12178 0.0
C1756 C 0.07623 0.65384 0.11859 0.0
C1757 C 0.09875 0.65455 0.13974 0.0
C1758 C 0.09887 0.63449 0.16303 0.0
C1759 C 0.07588 0.61459 0.16514 0.0
C1760 C 0.0531 0.6146 0.14527 0.0
C1761 C 0.03212 0.58979 0.15079 0.0
C1762 C 0.00215 0.60153 0.16036 0.0
C1763 C 0.02939 0.56977 0.12376 0.0
C1764 C 0.04753 0.57463 0.17572 0.0
C1765 C 0.07254 0.58937 0.1841 0.0
C1766 C 0.09224 0.57729 0.20409 0.0
C1767 C 0.08657 0.54914 0.21511 0.0
C1768 C 0.06142 0.5338 0.2061 0.0
C1769 C 0.04138 0.54699 0.18691 0.0
H1770 H 0.46819 0.48036 0.64161 0.0
H1771 H 0.43194 0.45317 0.72474 0.0
H1772 H 0.42551 0.4028 0.70538 0.0
H1773 H 0.42338 0.43635 0.59474 0.0
H1774 H 0.45266 0.42794 0.56975 0.0
H1775 H 0.45307 0.46174 0.59005 0.0
H1776 H 0.50415 0.44861 0.61005 0.0
H1777 H 0.50396 0.4143 0.59064 0.0
H1778 H 0.5095 0.41481 0.62967 0.0
H1779 H 0.42085 0.35601 0.67544 0.0
H1780 H 0.42225 0.31576 0.63889 0.0
H1781 H 0.4659 0.37336 0.57767 0.0
C1782 C 0.45863 0.46381 0.65558 0.0
C1783 C 0.4501 0.47045 0.68442 0.0
C1784 C 0.43841 0.44827 0.70247 0.0
C1785 C 0.43468 0.41973 0.69167 0.0
C1786 C 0.4434 0.41378 0.66305 0.0
C1787 C 0.45549 0.43515 0.64542 0.0
C1788 C 0.46426 0.42296 0.61597 0.0
C1789 C 0.44732 0.43815 0.59117 0.0
C1790 C 0.49744 0.42529 0.61134 0.0
C1791 C 0.45484 0.39148 0.61957 0.0
C1792 C 0.44255 0.38659 0.64671 0.0
C1793 C 0.4308 0.35947 0.65427 0.0
C1794 C 0.43162 0.33681 0.63345 0.0
C1795 C 0.44459 0.3414 0.60577 0.0
C1796 C 0.45646 0.36904 0.59895 0.0
H1797 H 0.98952 0.03308 0.32031 0.0
H1798 H 0.89952 0.00867 0.30495 0.0
H1799 H 0.8832 0.0576 0.32193 0.0
H1800 H 0.97549 0.06714 0.38651 0.0
H1801 H 0.0017 0.09617 0.38311 0.0
H1802 H 0.00783 0.06194 0.3646 0.0
H1803 H 0.01235 0.08776 0.3151 0.0
H1804 H 0.00662 0.12294 0.33212 0.0
H1805 H 0.98347 0.11148 0.30245 0.0
H1806 H 0.8766 0.10775 0.34359 0.0
H1807 H 0.87957 0.15262 0.37372 0.0
H1808 H 0.97375 0.14298 0.37789 0.0
C1809 C 0.96648 0.03847 0.3199 0.0
C1810 C 0.94567 0.01765 0.31095 0.0
C1811 C 0.91563 0.02471 0.31156 0.0
C1812 C 0.90624 0.05241 0.32097 0.0
C1813 C 0.92722 0.07254 0.33002 0.0
C1814 C 0.95671 0.06578 0.3299 0.0
C1815 C 0.97443 0.08978 0.34421 0.0
C1816 C 0.99083 0.07805 0.37118 0.0
C1817 C 0.99547 0.10381 0.32216 0.0
C1818 C 0.9503 0.11083 0.35283 0.0
C1819 C 0.92331 0.10083 0.34387 0.0
C1820 C 0.89764 0.11595 0.3505 0.0
C1821 C 0.89954 0.1415 0.36751 0.0
C1822 C 0.92687 0.15129 0.37811 0.0
C1823 C 0.95256 0.13609 0.36998 0.0
H1824 H 0.98529 0.40344 0.13392 0.0
H1825 H 0.04647 0.33803 0.1657 0.0
H1826 H 0.02163 0.30037 0.13615 0.0
H1827 H 0.92108 0.35316 0.1287 0.0
H1828 H 0.90794 0.37009 0.09573 0.0
H1829 H 0.92696 0.39169 0.12266 0.0
H1830 H 0.96485 0.40851 0.08442 0.0
H1831 H 0.94566 0.38826 0.05683 0.0
H1832 H 0.98398 0.38145 0.06291 0.0
H1833 H 0.99509 0.27175 0.09856 0.0
H1834 H 0.97199 0.25539 0.05283 0.0
H1835 H 0.92785 0.33932 0.04542 0.0
C1836 C 0.99316 0.38109 0.13511 0.0
C1837 C 0.01788 0.37368 0.15202 0.0
C1838 C 0.02763 0.34424 0.1528 0.0
C1839 C 0.01347 0.32263 0.13634 0.0
C1840 C 0.98944 0.33078 0.11951 0.0
C1841 C 0.97934 0.35931 0.1188 0.0
C1842 C 0.95519 0.36304 0.09655 0.0
C1843 C 0.92607 0.36992 0.11182 0.0
C1844 C 0.96291 0.38669 0.07384 0.0
C1845 C 0.95491 0.33271 0.08322 0.0
C1846 C 0.97406 0.31414 0.0975 0.0
C1847 C 0.97965 0.28587 0.08749 0.0
C1848 C 0.96642 0.27679 0.06143 0.0
C1849 C 0.94829 0.29617 0.04542 0.0
C1850 C 0.94144 0.32394 0.05726 0.0
H1851 H 0.55473 0.69254 0.56809 0.0
H1852 H 0.48139 0.7522 0.56059 0.0
H1853 H 0.46513 0.73812 0.61012 0.0
H1854 H 0.51707 0.63708 0.59347 0.0
H1855 H 0.5445 0.62254 0.61775 0.0
H1856 H 0.5552 0.64403 0.58684 0.0
H1857 H 0.58314 0.67942 0.62134 0.0
H1858 H 0.57215 0.65792 0.65247 0.0
H1859 H 0.56419 0.69658 0.65141 0.0
H1860 H 0.45027 0.70885 0.65371 0.0
H1861 H 0.4383 0.66778 0.68651 0.0
H1862 H 0.52081 0.62628 0.66484 0.0
C1863 C 0.53593 0.70357 0.57738 0.0
C1864 C 0.51928 0.72339 0.56056 0.0
C1865 C 0.49463 0.73716 0.57323 0.0
C1866 C 0.48526 0.72927 0.60138 0.0
C1867 C 0.50106 0.70799 0.61661 0.0
C1868 C 0.5262 0.69567 0.60514 0.0
C1869 C 0.53642 0.66973 0.62299 0.0
C1870 C 0.53837 0.64172 0.60415 0.0
C1871 C 0.56571 0.67633 0.63795 0.0
C1872 C 0.51196 0.66797 0.64506 0.0
C1873 C 0.49222 0.6907 0.64167 0.0
C1874 C 0.46597 0.69143 0.65711 0.0
C1875 C 0.4593 0.66792 0.67565 0.0
C1876 C 0.4786 0.64377 0.67816 0.0
C1877 C 0.50573 0.64454 0.66358 0.0
H1878 H 0.48194 0.19834 0.94903 0.0
H1879 H 0.4268 0.12942 0.98393 0.0
H1880 H 0.43763 0.0988 0.94201 0.0
H1881 H 0.46634 0.18309 0.86988 0.0
H1882 H 0.50352 0.18942 0.8587 0.0
H1883 H 0.48865 0.20881 0.88972 0.0
H1884 H 0.53107 0.18966 0.9219 0.0
H1885 H 0.54595 0.17007 0.89108 0.0
H1886 H 0.53754 0.15079 0.92438 0.0
H1887 H 0.4584 0.07272 0.90256 0.0
H1888 H 0.48629 0.05189 0.86281 0.0
H1889 H 0.52872 0.1356 0.84774 0.0
C1890 C 0.47167 0.17708 0.94739 0.0
C1891 C 0.45266 0.16679 0.96964 0.0
C1892 C 0.44044 0.13847 0.96702 0.0
C1893 C 0.4467 0.12062 0.94324 0.0
C1894 C 0.46558 0.1311 0.92207 0.0
C1895 C 0.47796 0.15857 0.92351 0.0
C1896 C 0.49925 0.16284 0.89822 0.0
C1897 C 0.48881 0.18751 0.87792 0.0
C1898 C 0.53029 0.16868 0.90959 0.0
C1899 C 0.49728 0.13311 0.88316 0.0
C1900 C 0.47752 0.11554 0.89761 0.0
C1901 C 0.47316 0.0865 0.8903 0.0
C1902 C 0.48905 0.07493 0.86722 0.0
C1903 C 0.50879 0.09231 0.85084 0.0
C1904 C 0.51318 0.12193 0.85915 0.0
H1905 H 0.97739 0.80337 0.45979 0.0
H1906 H 0.05181 0.75396 0.42836 0.0
H1907 H 0.03724 0.76475 0.37718 0.0
H1908 H 0.92605 0.78542 0.39727 0.0
H1909 H 0.91096 0.82187 0.39815 0.0
H1910 H 0.92347 0.80494 0.43148 0.0
H1911 H 0.95851 0.84891 0.4415 0.0
H1912 H 0.94464 0.86597 0.40905 0.0
H1913 H 0.98334 0.86002 0.41316 0.0
H1914 H 0.02175 0.79161 0.33156 0.0
H1915 H 0.00483 0.8289 0.29591 0.0
H1916 H 0.93848 0.8574 0.35686 0.0
C1917 C 0.98993 0.79392 0.44201 0.0
C1918 C 0.01554 0.7778 0.44765 0.0
C1919 C 0.03185 0.76602 0.4242 0.0
C1920 C 0.02371 0.77208 0.39517 0.0
C1921 C -0.00112 0.78925 0.39027 0.0
C1922 C 0.98189 0.79945 0.41316 0.0
C1923 C 0.95844 0.82028 0.40276 0.0
C1924 C 0.92792 0.80734 0.40771 0.0
C1925 C 0.96142 0.85055 0.41748 0.0
C1926 C 0.96579 0.82163 0.37062 0.0
C1927 C 0.98902 0.80343 0.36362 0.0
C1928 C 0.0028 0.80496 0.33641 0.0
C1929 C 0.99311 0.82609 0.31628 0.0
C1930 C 0.96977 0.84498 0.32354 0.0
C1931 C 0.95544 0.84209 0.35053 0.0
H1932 H 0.14196 0.04261 0.35319 0.0
H1933 H 0.17486 0.96482 0.39628 0.0
H1934 H 0.1438 0.93394 0.36487 0.0
H1935 H 0.07149 0.02167 0.35367 0.0
H1936 H 0.0611 0.03697 0.31889 0.0
H1937 H 0.0911 0.05243 0.33884 0.0
H1938 H 0.1251 0.04449 0.29418 0.0
H1939 H 0.09504 0.02903 0.27395 0.0
H1940 H 0.12844 0.00852 0.27821 0.0
H1941 H 0.10308 0.91275 0.33728 0.0
H1942 H 0.05479 0.90276 0.31517 0.0
H1943 H 0.04733 0.99366 0.28967 0.0
C1944 C 0.14345 0.01901 0.35496 0.0
C1945 C 0.16097 0.00588 0.37659 0.0
C1946 C 0.16166 0.97507 0.37947 0.0
C1947 C 0.14425 0.9574 0.36165 0.0
C1948 C 0.12624 0.97095 0.34119 0.0
C1949 C 0.12574 0.00107 0.33763 0.0
C1950 C 0.10113 0.01039 0.31757 0.0
C1951 C 0.07997 0.03159 0.33318 0.0
C1952 C 0.11316 0.0239 0.28929 0.0
C1953 C 0.08704 0.98102 0.31166 0.0
C1954 C 0.10226 0.95848 0.32498 0.0
C1955 C 0.09149 0.92995 0.32586 0.0
C1956 C 0.06416 0.92444 0.31334 0.0
C1957 C 0.04824 0.94732 0.30012 0.0
C1958 C 0.05997 0.97573 0.29867 0.0
H1959 H 0.46492 0.03152 0.82375 0.0
H1960 H 0.4479 0.98942 0.74088 0.0
H1961 H 0.3968 0.97969 0.75676 0.0
H1962 H 0.4283 0.98398 0.86768 0.0
H1963 H 0.41479 0.01132 0.89278 0.0
H1964 H 0.44784 0.01775 0.87284 0.0
H1965 H 0.42563 0.06625 0.85159 0.0
H1966 H 0.39303 0.05948 0.87255 0.0
H1967 H 0.39072 0.06501 0.83359 0.0
H1968 H 0.35062 0.96782 0.786 0.0
H1969 H 0.31373 0.95687 0.82393 0.0
H1970 H 0.36154 0.01037 0.88596 0.0
C1971 C 0.45025 0.02088 0.80876 0.0
C1972 C 0.46009 0.01116 0.78132 0.0
C1973 C 0.44048 0.99717 0.76201 0.0
C1974 C 0.41154 0.99163 0.77087 0.0
C1975 C 0.40272 0.00102 0.79866 0.0
C1976 C 0.42152 0.01586 0.81704 0.0
C1977 C 0.40795 0.02206 0.84649 0.0
C1978 C 0.42577 0.00793 0.87138 0.0
C1979 C 0.4041 0.05516 0.85135 0.0
C1980 C 0.37892 0.00715 0.84255 0.0
C1981 C 0.37605 0.99529 0.81482 0.0
C1982 C 0.35235 0.97765 0.80747 0.0
C1983 C 0.33156 0.97149 0.82919 0.0
C1984 C 0.33466 0.98295 0.85786 0.0
C1985 C 0.35818 0.00175 0.86415 0.0
H1986 H 0.62572 0.44732 0.62447 0.0
H1987 H 0.69586 0.50196 0.6567 0.0
H1988 H 0.66233 0.5229 0.6941 0.0
H1989 H 0.57332 0.49854 0.62624 0.0
H1990 H 0.54382 0.47498 0.63719 0.0
H1991 H 0.57439 0.45998 0.6177 0.0
H1992 H 0.58381 0.42258 0.6591 0.0
H1993 H 0.55268 0.43689 0.67859 0.0
H1994 H 0.58784 0.43523 0.69625 0.0
H1995 H 0.61792 0.54378 0.72183 0.0
H1996 H 0.56848 0.56129 0.73655 0.0
H1997 H 0.52951 0.49161 0.68567 0.0
C1998 C 0.63428 0.46308 0.63997 0.0
C1999 C 0.66323 0.4731 0.63787 0.0
C2000 C 0.67372 0.49384 0.6583 0.0
C2001 C 0.65483 0.50581 0.67953 0.0
C2002 C 0.62588 0.49621 0.68025 0.0
C2003 C 0.61593 0.47488 0.66119 0.0
C2004 C 0.58346 0.4703 0.66379 0.0
C2005 C 0.56787 0.47633 0.6345 0.0
C2006 C 0.57655 0.43942 0.67513 0.0
C2007 C 0.57625 0.4933 0.68632 0.0
C2008 C 0.60084 0.50787 0.69609 0.0
C2009 C 0.59865 0.53203 0.71485 0.0
C2010 C 0.57062 0.54182 0.72315 0.0
C2011 C 0.54552 0.5276 0.71225 0.0
C2012 C 0.54853 0.50263 0.69445 0.0
H2013 H 0.9718 0.51573 0.19159 0.0
H2014 H 0.94455 0.42937 0.21916 0.0
H2015 H 0.89395 0.4405 0.2031 0.0
H2016 H 0.90221 0.55501 0.21084 0.0
H2017 H 0.90517 0.57835 0.17925 0.0
H2018 H 0.93768 0.5652 0.1972 0.0
H2019 H 0.95626 0.54324 0.14822 0.0
H2020 H 0.92401 0.55658 0.1303 0.0
H2021 H 0.93324 0.51826 0.12829 0.0
H2022 H 0.84993 0.45752 0.17444 0.0
H2023 H 0.81457 0.48111 0.14065 0.0
H2024 H 0.86979 0.55765 0.13581 0.0
C2025 C 0.95489 0.49958 0.19512 0.0
C2026 C 0.96168 0.47183 0.20665 0.0
C2027 C 0.93939 0.45092 0.21071 0.0
C2028 C 0.91073 0.45706 0.20159 0.0
C2029 C 0.90489 0.48441 0.18926 0.0
C2030 C 0.92627 0.50558 0.1867 0.0
C2031 C 0.91529 0.53229 0.17061 0.0
C2032 C 0.91507 0.55931 0.19069 0.0
C2033 C 0.93328 0.53789 0.14272 0.0
C2034 C 0.88468 0.52247 0.16336 0.0
C2035 C 0.879 0.49478 0.17425 0.0
C2036 C 0.85367 0.47959 0.16675 0.0
C2037 C 0.83381 0.493 0.14755 0.0
C2038 C 0.83936 0.52133 0.1366 0.0
C2039 C 0.86475 0.53639 0.14495 0.0
H2040 H 0.38658 0.13873 0.00981 0.0
H2041 H 0.3159 0.17822 0.05843 0.0
H2042 H 0.281 0.14369 0.03463 0.0
H2043 H 0.34368 0.12526 0.94102 0.0
H2044 H 0.3647 0.09251 0.93429 0.0
H2045 H 0.38109 0.12322 0.95272 0.0
H2046 H 0.39503 0.08786 0.9958 0.0
H2047 H 0.3776 0.05806 0.97723 0.0
H2048 H 0.36643 0.06774 0.01379 0.0
H2049 H 0.25582 0.09889 0.0092 0.0
H2050 H 0.2439 0.05127 0.9856 0.0
H2051 H 0.33214 0.04599 0.95191 0.0
C2052 C 0.36372 0.14062 0.01491 0.0
C2053 C 0.35392 0.16094 0.03583 0.0
C2054 C 0.32376 0.16275 0.04227 0.0
C2055 C 0.30389 0.14329 0.0288 0.0
C2056 C 0.31461 0.12302 0.00839 0.0
C2057 C 0.3439 0.12221 0.00115 0.0
C2058 C 0.35089 0.09798 0.97983 0.0
C2059 C 0.36067 0.11047 0.95022 0.0
C2060 C 0.37381 0.07668 0.99243 0.0
C2061 C 0.32134 0.08388 0.97737 0.0
C2062 C 0.30037 0.09862 0.9935 0.0
C2063 C 0.272 0.08765 0.99607 0.0
C2064 C 0.26536 0.06067 0.98251 0.0
C2065 C 0.28714 0.04503 0.96693 0.0
C2066 C 0.31501 0.05748 0.96361 0.0
H2067 H 0.89102 0.36577 0.99732 0.0
H2068 H 0.82001 0.32455 0.95016 0.0
H2069 H 0.78543 0.361 0.97145 0.0
H2070 H 0.85032 0.38613 0.06321 0.0
H2071 H 0.87021 0.41997 0.06668 0.0
H2072 H 0.88746 0.38841 0.0504 0.0
H2073 H 0.89945 0.41862 0.0042 0.0
H2074 H 0.88216 0.45021 0.02003 0.0
H2075 H 0.87031 0.43685 0.98488 0.0
H2076 H 0.76025 0.40675 0.9943 0.0
H2077 H 0.74807 0.45582 0.01468 0.0
H2078 H 0.83693 0.46437 0.04595 0.0
C2079 C 0.86813 0.36408 0.99162 0.0
C2080 C 0.85816 0.34259 0.97189 0.0
C2081 C 0.82802 0.34093 0.96529 0.0
C2082 C 0.80831 0.36149 0.97731 0.0
C2083 C 0.8192 0.38302 0.99617 0.0
C2084 C 0.84849 0.38408 0.00335 0.0
C2085 C 0.85575 0.41022 0.02208 0.0
C2086 C 0.86654 0.4006 0.05242 0.0
C2087 C 0.87822 0.43014 0.00687 0.0
C2088 C 0.82615 0.4245 0.02377 0.0
C2089 C 0.80507 0.40855 0.00911 0.0
C2090 C 0.77653 0.41909 0.00619 0.0
C2091 C 0.76976 0.44689 0.01787 0.0
C2092 C 0.79163 0.46375 0.0318 0.0
C2093 C 0.81978 0.4519 0.03543 0.0
H2094 H 0.58801 0.64446 0.5231 0.0
H2095 H 0.6487 0.68562 0.46325 0.0
H2096 H 0.68694 0.65012 0.478 0.0
H2097 H 0.64341 0.62377 0.58051 0.0
H2098 H 0.6245 0.59 0.58785 0.0
H2099 H 0.60432 0.62197 0.57656 0.0
H2100 H 0.58192 0.59218 0.53381 0.0
H2101 H 0.60231 0.56038 0.54468 0.0
H2102 H 0.60583 0.57431 0.50799 0.0
H2103 H 0.7153 0.60502 0.49308 0.0
H2104 H 0.73177 0.55576 0.50823 0.0
H2105 H 0.6523 0.54523 0.5588 0.0
C2106 C 0.60959 0.64648 0.51364 0.0
C2107 C 0.61546 0.66765 0.49199 0.0
C2108 C 0.64387 0.66965 0.48004 0.0
C2109 C 0.66568 0.64959 0.4883 0.0
C2110 C 0.65879 0.62818 0.50893 0.0
C2111 C 0.63152 0.62689 0.5218 0.0
C2112 C 0.62855 0.60038 0.54131 0.0
C2113 C 0.625 0.60959 0.57347 0.0
C2114 C 0.60317 0.58066 0.53132 0.0
C2115 C 0.65781 0.58594 0.53615 0.0
C2116 C 0.6752 0.60249 0.51783 0.0
C2117 C 0.70213 0.5922 0.50793 0.0
C2118 C 0.71125 0.56413 0.51657 0.0
C2119 C 0.69336 0.5466 0.53475 0.0
C2120 C 0.66668 0.55813 0.54517 0.0
H2121 H 0.09673 0.8604 0.47575 0.0
H2122 H 0.16316 0.8087 0.51944 0.0
H2123 H 0.20018 0.84583 0.50662 0.0
H2124 H 0.14478 0.89502 0.41775 0.0
H2125 H 0.12532 0.92914 0.42166 0.0
H2126 H 0.10653 0.89495 0.42703 0.0
H2127 H 0.0901 0.91313 0.47831 0.0
H2128 H 0.10951 0.94682 0.47329 0.0
H2129 H 0.11736 0.92413 0.50455 0.0
H2130 H 0.22813 0.89237 0.49588 0.0
H2131 H 0.24336 0.9442 0.48972 0.0
H2132 H 0.15716 0.96543 0.45679 0.0
C2133 C 0.11929 0.8562 0.48151 0.0
C2134 C 0.12716 0.83157 0.49831 0.0
C2135 C 0.15675 0.82738 0.50633 0.0
C2136 C 0.17793 0.84829 0.49906 0.0
C2137 C 0.16911 0.87318 0.48378 0.0
C2138 C 0.14045 0.87706 0.47493 0.0
C2139 C 0.1353 0.90751 0.46314 0.0
C2140 C 0.12754 0.90658 0.43045 0.0
C2141 C 0.1117 0.92383 0.4809 0.0
C2142 C 0.16512 0.92057 0.46795 0.0
C2143 C 0.18467 0.90037 0.47907 0.0
C2144 C 0.21311 0.90825 0.48679 0.0
C2145 C 0.22156 0.93764 0.48335 0.0
C2146 C 0.20127 0.95862 0.47314 0.0
C2147 C 0.17301 0.94977 0.46489 0.0
H2148 H 0.9432 0.64043 0.86317 0.0
H2149 H 0.01955 0.65026 0.80849 0.0
H2150 H 0.04093 0.68461 0.84475 0.0
H2151 H 0.94264 0.71514 0.89858 0.0
H2152 H 0.93251 0.69938 0.93322 0.0
H2153 H 0.92039 0.68268 0.89961 0.0
H2154 H 0.94363 0.6332 0.91599 0.0
H2155 H 0.95539 0.65013 0.9494 0.0
H2156 H 0.98166 0.63229 0.92598 0.0
H2157 H 0.05626 0.71247 0.88957 0.0
H2158 H 0.06708 0.72618 0.94093 0.0
H2159 H 0.98272 0.69304 0.96762 0.0
C2160 C 0.96387 0.65086 0.85844 0.0
C2161 C 0.97956 0.64371 0.83302 0.0
C2162 C 0.00715 0.65629 0.82776 0.0
C2163 C 0.01928 0.67582 0.84811 0.0
C2164 C 0.00357 0.68194 0.87358 0.0
C2165 C 0.97652 0.66956 0.87886 0.0
C2166 C 0.96645 0.67497 0.90985 0.0
C2167 C 0.93886 0.6942 0.91033 0.0
C2168 C 0.96152 0.64594 0.92626 0.0
C2169 C 0.99253 0.69131 0.92162 0.0
C2170 C 0.01327 0.69609 0.90017 0.0
C2171 C 0.04001 0.70926 0.90643 0.0
C2172 C 0.04597 0.71699 0.93552 0.0
C2173 C 0.02559 0.71063 0.95778 0.0
C2174 C -0.00159 0.69826 0.9507 0.0
H2175 H 0.47365 0.37661 0.34037 0.0
H2176 H 0.54993 0.32743 0.31259 0.0
H2177 H 0.53735 0.28818 0.34729 0.0
H2178 H 0.48326 0.36642 0.41081 0.0
H2179 H 0.44571 0.36298 0.42181 0.0
H2180 H 0.45465 0.38312 0.38942 0.0
H2181 H 0.42112 0.35057 0.35787 0.0
H2182 H 0.41078 0.3305 0.39016 0.0
H2183 H 0.42523 0.31131 0.35884 0.0
H2184 H 0.52339 0.2606 0.3925 0.0
H2185 H 0.50844 0.24708 0.44268 0.0
H2186 H 0.4407 0.3136 0.43986 0.0
C2187 C 0.48708 0.35707 0.34071 0.0
C2188 C 0.5128 0.35515 0.32384 0.0
C2189 C 0.53004 0.32938 0.32524 0.0
C2190 C 0.52301 0.30689 0.34485 0.0
C2191 C 0.49839 0.31026 0.36247 0.0
C2192 C 0.48038 0.33453 0.36015 0.0
C2193 C 0.45793 0.33533 0.38435 0.0
C2194 C 0.46057 0.36361 0.40265 0.0
C2195 C 0.42693 0.3317 0.37206 0.0
C2196 C 0.46718 0.30871 0.40161 0.0
C2197 C 0.49018 0.29412 0.38847 0.0
C2198 C 0.50482 0.27128 0.40257 0.0
C2199 C 0.49623 0.26376 0.43109 0.0
C2200 C 0.47346 0.27931 0.44517 0.0
C2201 C 0.45809 0.30115 0.42963 0.0
H2202 H 0.54873 0.85963 0.03137 0.0
H2203 H 0.52018 0.77146 0.05194 0.0
H2204 H 0.50483 0.78793 0.10087 0.0
H2205 H 0.57345 0.87967 0.1073 0.0
H2206 H 0.5603 0.91657 0.10263 0.0
H2207 H 0.57348 0.89629 0.07155 0.0
H2208 H 0.52404 0.90645 0.04547 0.0
H2209 H 0.51086 0.9259 0.07704 0.0
H2210 H 0.49054 0.89527 0.06284 0.0
H2211 H 0.4857 0.81484 0.14381 0.0
H2212 H 0.46574 0.8505 0.17921 0.0
H2213 H 0.50774 0.92111 0.13185 0.0
C2214 C 0.54003 0.84364 0.04649 0.0
C2215 C 0.53562 0.8143 0.03789 0.0
C2216 C 0.52365 0.79411 0.05806 0.0
C2217 C 0.515 0.8032 0.08596 0.0
C2218 C 0.5187 0.83248 0.09344 0.0
C2219 C 0.53117 0.85238 0.07445 0.0
C2220 C 0.53022 0.88307 0.08692 0.0
C2221 C 0.56122 0.89455 0.09245 0.0
C2222 C 0.51288 0.90388 0.06687 0.0
C2223 C 0.5142 0.87746 0.11532 0.0
C2224 C 0.50802 0.84807 0.11877 0.0
C2225 C 0.49092 0.83784 0.14176 0.0
C2226 C 0.47953 0.85823 0.16161 0.0
C2227 C 0.48532 0.88846 0.15831 0.0
C2228 C 0.50339 0.89805 0.13521 0.0
H2229 H 0.93452 0.1726 0.5444 0.0
H2230 H -0.00238 0.24323 0.54085 0.0
H2231 H 0.01405 0.23076 0.59078 0.0
H2232 H 0.91958 0.17632 0.62596 0.0
H2233 H 0.91698 0.13698 0.6277 0.0
H2234 H 0.90562 0.15608 0.59513 0.0
H2235 H 0.94071 0.12372 0.56445 0.0
H2236 H 0.95238 0.10497 0.59686 0.0
H2237 H 0.97895 0.12258 0.5738 0.0
H2238 H 0.02958 0.20508 0.63656 0.0
H2239 H 0.04353 0.16812 0.67331 0.0
H2240 H 0.9705 0.11404 0.6464 0.0
C2241 C 0.95121 0.18606 0.55441 0.0
C2242 C 0.96485 0.20885 0.53871 0.0
C2243 C 0.98677 0.22574 0.55251 0.0
C2244 C 0.99615 0.21888 0.58092 0.0
C2245 C 0.98308 0.19539 0.59529 0.0
C2246 C 0.96082 0.17944 0.58257 0.0
C2247 C 0.95299 0.1529 0.60066 0.0
C2248 C 0.92195 0.15576 0.61311 0.0
C2249 C 0.9565 0.12439 0.58288 0.0
C2250 C 0.97564 0.15528 0.62457 0.0
C2251 C 0.99226 0.18035 0.62162 0.0
C2252 C 0.01632 0.18573 0.63949 0.0
C2253 C 0.02411 0.16456 0.66029 0.0
C2254 C 0.00814 0.13815 0.66267 0.0
C2255 C 0.98303 0.13408 0.64524 0.0
H2256 H 0.84906 0.95256 0.63488 0.0
H2257 H 0.82094 0.03684 0.6017 0.0
H2258 H 0.8545 0.0617 0.63595 0.0
H2259 H 0.8656 0.97554 0.71251 0.0
H2260 H 0.89783 0.95286 0.71362 0.0
H2261 H 0.86689 0.94192 0.69184 0.0
H2262 H 0.90008 0.93834 0.64606 0.0
H2263 H 0.931 0.94915 0.66764 0.0
H2264 H 0.92142 0.96967 0.63538 0.0
H2265 H 0.89528 0.077 0.66797 0.0
H2266 H 0.94353 0.08149 0.69178 0.0
H2267 H 0.94766 0.9874 0.70209 0.0
C2268 C 0.84922 0.97626 0.63577 0.0
C2269 C 0.83207 0.99293 0.61631 0.0
C2270 C 0.83369 0.02384 0.61688 0.0
C2271 C 0.85252 0.03809 0.63635 0.0
C2272 C 0.86975 0.02106 0.65487 0.0
C2273 C 0.86845 0.99079 0.6546 0.0
C2274 C 0.89261 0.97752 0.67297 0.0
C2275 C 0.87997 0.96098 0.6993 0.0
C2276 C 0.91244 0.95752 0.6544 0.0
C2277 C 0.90839 0.00498 0.68264 0.0
C2278 C 0.89431 0.02989 0.67268 0.0
C2279 C 0.9061 0.05775 0.67654 0.0
C2280 C 0.93338 0.06014 0.69015 0.0
C2281 C 0.94853 0.03484 0.6994 0.0
C2282 C 0.93574 0.00703 0.69615 0.0
H2283 H 0.63844 0.98043 0.11335 0.0
H2284 H 0.67859 0.04525 0.16985 0.0
H2285 H 0.64475 0.0315 0.20961 0.0
H2286 H 0.57024 0.99817 0.13092 0.0
H2287 H 0.55458 0.9621 0.12945 0.0
H2288 H 0.58635 0.9703 0.10803 0.0
H2289 H 0.61496 0.92789 0.13157 0.0
H2290 H 0.58365 0.91836 0.15348 0.0
H2291 H 0.61818 0.92574 0.1708 0.0
H2292 H 0.6011 0.01665 0.23998 0.0
H2293 H 0.5508 0.00426 0.25611 0.0
H2294 H 0.53948 0.95094 0.17867 0.0
C2295 C 0.6409 0.99106 0.13439 0.0
C2296 C 0.66124 0.0138 0.13854 0.0
C2297 C 0.66321 0.02765 0.16621 0.0
C2298 C 0.6442 0.01985 0.18899 0.0
C2299 C 0.62356 0.99807 0.18375 0.0
C2300 C 0.62197 0.98381 0.15706 0.0
C2301 C 0.59516 0.9648 0.15496 0.0
C2302 C 0.57545 0.97442 0.12934 0.0
C2303 C 0.6035 0.93227 0.15255 0.0
C2304 C 0.58123 0.97144 0.1841 0.0
C2305 C 0.59815 0.99007 0.20085 0.0
C2306 C 0.58802 0.00149 0.22738 0.0
C2307 C 0.55958 0.99434 0.23644 0.0
C2308 C 0.5418 0.97648 0.21863 0.0
C2309 C 0.55306 0.96426 0.19277 0.0
H2310 H 0.46387 0.5099 0.30694 0.0
H2311 H 0.43159 0.42996 0.2679 0.0
H2312 H 0.38123 0.44318 0.28331 0.0
H2313 H 0.42384 0.50628 0.36896 0.0
H2314 H 0.41755 0.54512 0.37274 0.0
H2315 H 0.44896 0.53209 0.35323 0.0
H2316 H 0.43354 0.56224 0.30795 0.0
H2317 H 0.40175 0.57518 0.32734 0.0
H2318 H 0.3977 0.55709 0.2925 0.0
H2319 H 0.33728 0.46 0.31236 0.0
H2320 H 0.30333 0.48036 0.34952 0.0
H2321 H 0.36418 0.55031 0.3676 0.0
C2322 C 0.44598 0.49573 0.30082 0.0
C2323 C 0.45125 0.46911 0.28613 0.0
C2324 C 0.42766 0.45071 0.27872 0.0
C2325 C 0.39911 0.45806 0.28746 0.0
C2326 C 0.39473 0.48406 0.30306 0.0
C2327 C 0.41755 0.50287 0.30918 0.0
C2328 C 0.40806 0.5277 0.32896 0.0
C2329 C 0.42561 0.52776 0.35769 0.0
C2330 C 0.41039 0.55731 0.31323 0.0
C2331 C 0.37662 0.51938 0.33416 0.0
C2332 C 0.36915 0.49426 0.3189 0.0
C2333 C 0.34253 0.48021 0.32356 0.0
C2334 C 0.3234 0.49183 0.34463 0.0
C2335 C 0.33101 0.51728 0.36045 0.0
C2336 C 0.35756 0.53151 0.35474 0.0
H2337 H 0.11042 0.43575 0.86935 0.0
H2338 H 0.18436 0.47737 0.82773 0.0
H2339 H 0.15072 0.50242 0.79319 0.0
H2340 H 0.06373 0.42825 0.80226 0.0
H2341 H 0.03112 0.43633 0.82279 0.0
H2342 H 0.06107 0.41735 0.84004 0.0
H2343 H 0.06257 0.45634 0.88076 0.0
H2344 H 0.03314 0.47623 0.86411 0.0
H2345 H 0.06726 0.49436 0.87127 0.0
H2346 H 0.10739 0.52929 0.7691 0.0
H2347 H 0.0599 0.55372 0.75823 0.0
H2348 H 0.01636 0.4933 0.81657 0.0
C2349 C 0.11962 0.4494 0.85234 0.0
C2350 C 0.14983 0.45467 0.85102 0.0
C2351 C 0.16118 0.47284 0.82874 0.0
C2352 C 0.14224 0.48714 0.80912 0.0
C2353 C 0.11223 0.48243 0.81185 0.0
C2354 C 0.10117 0.46348 0.83268 0.0
C2355 C 0.0683 0.46429 0.83371 0.0
C2356 C 0.0553 0.4348 0.82413 0.0
C2357 C 0.0572 0.47335 0.86426 0.0
C2358 C 0.06247 0.48774 0.81133 0.0
C2359 C 0.08781 0.49773 0.79838 0.0
C2360 C 0.08741 0.52119 0.77871 0.0
C2361 C 0.06047 0.53495 0.77267 0.0
C2362 C 0.03476 0.52542 0.78679 0.0
C2363 C 0.03583 0.50109 0.80561 0.0
H2364 H 0.6331 0.86996 0.93906 0.0
H2365 H 0.64848 0.80098 0.00208 0.0
H2366 H 0.6838 0.83279 0.02823 0.0
H2367 H 0.7094 0.89828 0.93917 0.0
H2368 H 0.69864 0.93601 0.93659 0.0
H2369 H 0.67695 0.90804 0.91907 0.0
H2370 H 0.63075 0.92331 0.94574 0.0
H2371 H 0.64912 0.95248 0.96452 0.0
H2372 H 0.63018 0.92504 0.98514 0.0
H2373 H 0.70985 0.87636 0.05242 0.0
H2374 H 0.72451 0.92574 0.07027 0.0
H2375 H 0.69393 0.96374 0.98928 0.0
C2376 C 0.64467 0.86124 0.95781 0.0
C2377 C 0.63832 0.83317 0.9686 0.0
C2378 C 0.65348 0.82243 0.99335 0.0
C2379 C 0.67352 0.84033 0.0083 0.0
C2380 C 0.67864 0.86849 0.99763 0.0
C2381 C 0.66505 0.8785 0.97249 0.0
C2382 C 0.67196 0.9102 0.96669 0.0
C2383 C 0.69027 0.91332 0.9387 0.0
C2384 C 0.64386 0.92882 0.96543 0.0
C2385 C 0.68993 0.91718 0.99342 0.0
C2386 C 0.69414 0.8929 0.01094 0.0
C2387 C 0.70741 0.89529 0.03843 0.0
C2388 C 0.71577 0.9233 0.0484 0.0
C2389 C 0.71049 0.94823 0.03091 0.0
C2390 C 0.69844 0.94484 0.00282 0.0
H2391 H 0.20648 0.53388 0.98807 0.0
H2392 H 0.17269 0.53759 0.89966 0.0
H2393 H 0.15293 0.58701 0.90927 0.0
H2394 H 0.14636 0.56207 0.02057 0.0
H2395 H 0.16434 0.58325 0.04855 0.0
H2396 H 0.18227 0.55177 0.03312 0.0
H2397 H 0.22672 0.58316 0.01887 0.0
H2398 H 0.20926 0.61497 0.03451 0.0
H2399 H 0.2215 0.6156 0.99706 0.0
H2400 H 0.13008 0.63115 0.93008 0.0
H2401 H 0.1042 0.66691 0.96107 0.0
H2402 H 0.15118 0.63542 0.03714 0.0
C2403 C 0.19607 0.54576 0.97042 0.0
C2404 C 0.19163 0.53233 0.9429 0.0
C2405 C 0.17666 0.54778 0.9207 0.0
C2406 C 0.16547 0.57587 0.92596 0.0
C2407 C 0.16929 0.58819 0.95361 0.0
C2408 C 0.18432 0.57375 0.97551 0.0
C2409 C 0.18169 0.59009 0.00439 0.0
C2410 C 0.1678 0.57065 0.02804 0.0
C2411 C 0.21158 0.60164 0.01428 0.0
C2412 C 0.16158 0.61506 0.99563 0.0
C2413 C 0.15535 0.61384 0.96604 0.0
C2414 C 0.13528 0.63274 0.95311 0.0
C2415 C 0.12063 0.65292 0.97091 0.0
C2416 C 0.12599 0.65412 0.00137 0.0
C2417 C 0.14732 0.63548 0.01377 0.0
H2418 H 0.40428 0.35005 0.4815 0.0
H2419 H 0.33864 0.30418 0.53182 0.0
H2420 H 0.3008 0.33829 0.51301 0.0
H2421 H 0.38243 0.41788 0.49709 0.0
H2422 H 0.38982 0.43389 0.46186 0.0
H2423 H 0.40981 0.40215 0.47342 0.0
H2424 H 0.39353 0.37391 0.4269 0.0
H2425 H 0.37404 0.40603 0.41486 0.0
H2426 H 0.35531 0.37152 0.41807 0.0
H2427 H 0.27228 0.3828 0.49527 0.0
H2428 H 0.25651 0.43286 0.48131 0.0
H2429 H 0.34186 0.44895 0.44392 0.0
C2430 C 0.38178 0.34668 0.48795 0.0
C2431 C 0.37428 0.32469 0.50816 0.0
C2432 C 0.34471 0.32085 0.51616 0.0
C2433 C 0.32314 0.34009 0.50555 0.0
C2434 C 0.33156 0.36249 0.48657 0.0
C2435 C 0.36021 0.36548 0.47754 0.0
C2436 C 0.36467 0.39306 0.45996 0.0
C2437 C 0.38804 0.4129 0.47394 0.0
C2438 C 0.37233 0.38569 0.42805 0.0
C2439 C 0.33457 0.40632 0.46222 0.0
C2440 C 0.31541 0.38809 0.47681 0.0
C2441 C 0.28694 0.39695 0.48333 0.0
C2442 C 0.27816 0.42538 0.47534 0.0
C2443 C 0.29807 0.44462 0.46166 0.0
C2444 C 0.32624 0.43459 0.45435 0.0
H2445 H 0.89069 0.14388 0.50535 0.0
H2446 H 0.82597 0.19006 0.45389 0.0
H2447 H 0.78779 0.1562 0.47191 0.0
H2448 H 0.86966 0.07687 0.48859 0.0
H2449 H 0.87635 0.06015 0.52365 0.0
H2450 H 0.89632 0.09217 0.51326 0.0
H2451 H 0.87889 0.11894 0.56001 0.0
H2452 H 0.85878 0.08686 0.57084 0.0
H2453 H 0.84041 0.12168 0.56783 0.0
H2454 H 0.75946 0.11119 0.48741 0.0
H2455 H 0.74444 0.06017 0.49864 0.0
H2456 H 0.82844 0.04447 0.5392 0.0
C2457 C 0.86827 0.14743 0.49867 0.0
C2458 C 0.86112 0.16934 0.47827 0.0
C2459 C 0.83171 0.17344 0.46976 0.0
C2460 C 0.80994 0.15436 0.47994 0.0
C2461 C 0.818 0.1319 0.49903 0.0
C2462 C 0.84649 0.12879 0.50869 0.0
C2463 C 0.85077 0.10087 0.52577 0.0
C2464 C 0.87465 0.08139 0.51196 0.0
C2465 C 0.8576 0.10749 0.55803 0.0
C2466 C 0.82084 0.08761 0.5224 0.0
C2467 C 0.80185 0.10604 0.50771 0.0
C2468 C 0.7739 0.09689 0.49955 0.0
C2469 C 0.76554 0.06796 0.50592 0.0
C2470 C 0.78544 0.04867 0.51959 0.0
C2471 C 0.81289 0.05897 0.52872 0.0
loop_
_geom_bond_atom_site_label_1
_geom_bond_atom_site_label_2
_geom_bond_distance
_geom_bond_site_symmetry_2
_ccdc_geom_bond_type
Fe0 O2 1.918 . S
Fe0 O5 1.997 . S
Fe0 O6 2.002 . S
Fe0 O11 1.976 . S
Fe0 O14 1.996 1_455 S
Fe1 O2 1.918 . S
Fe1 O9 1.997 . S
Fe1 O12 1.996 . S
Fe1 O16 1.976 . S
Fe1 O19 2.002 . S
O2 Fe0 1.918 . S
O2 Fe1 1.918 . S
O2 Fe3 1.918 . S
Fe3 O2 1.918 . S
Fe3 O4 2.002 . S
Fe3 O13 1.976 1_455 S
Fe3 O17 1.996 . S
Fe3 O20 1.997 . S
O4 Fe3 2.002 . S
O4 C21 1.295 . S
O5 Fe0 1.997 . S
O5 C21 1.235 . S
O6 Fe0 2.002 . S
O6 C7 1.295 . S
C7 O6 1.295 . S
C7 O9 1.235 . S
C8 O13 1.287 . S
C8 O14 1.255 . S
O9 Fe1 1.997 . S
O9 C7 1.235 . S
C10 O16 1.287 . S
C10 O17 1.255 . S
O11 Fe0 1.976 . S
O11 C18 1.287 . S
O12 Fe1 1.996 . S
O12 C18 1.255 . S
O13 Fe3 1.976 1_655 S
O13 C8 1.287 . S
O14 Fe0 1.996 1_655 S
O14 C8 1.255 . S
C15 O19 1.295 . S
C15 O20 1.235 . S
O16 Fe1 1.976 . S
O16 C10 1.287 . S
O17 Fe3 1.996 . S
O17 C10 1.255 . S
C18 O11 1.287 . S
C18 O12 1.255 . S
O19 Fe1 2.002 . S
O19 C15 1.295 . S
O20 Fe3 1.997 . S
O20 C15 1.235 . S
C21 O4 1.295 . S
C21 O5 1.235 . S
Fe22 O24 1.918 . S
Fe22 O27 1.997 . S
Fe22 O28 2.002 . S
Fe22 O33 1.976 . S
Fe22 O36 1.996 . S
Fe23 O24 1.918 . S
Fe23 O31 1.997 . S
Fe23 O34 1.996 . S
Fe23 O38 1.976 . S
Fe23 O41 2.002 . S
O24 Fe22 1.918 . S
O24 Fe23 1.918 . S
O24 Fe25 1.918 . S
Fe25 O24 1.918 . S
Fe25 O26 2.002 . S
Fe25 O35 1.976 . S
Fe25 O39 1.996 . S
Fe25 O42 1.997 . S
O26 Fe25 2.002 . S
O26 C43 1.295 . S
O27 Fe22 1.997 . S
O27 C43 1.235 . S
O28 Fe22 2.002 . S
O28 C29 1.295 . S
C29 O28 1.295 . S
C29 O31 1.235 . S
C30 O35 1.287 . S
C30 O36 1.255 . S
O31 Fe23 1.997 . S
O31 C29 1.235 . S
C32 O38 1.287 . S
C32 O39 1.255 . S
O33 Fe22 1.976 . S
O33 C40 1.287 . S
O34 Fe23 1.996 . S
O34 C40 1.255 . S
O35 Fe25 1.976 . S
O35 C30 1.287 . S
O36 Fe22 1.996 . S
O36 C30 1.255 . S
C37 O41 1.295 . S
C37 O42 1.235 . S
O38 Fe23 1.976 . S
O38 C32 1.287 . S
O39 Fe25 1.996 . S
O39 C32 1.255 . S
C40 O33 1.287 . S
C40 O34 1.255 . S
O41 Fe23 2.002 . S
O41 C37 1.295 . S
O42 Fe25 1.997 . S
O42 C37 1.235 . S
C43 O26 1.295 . S
C43 O27 1.235 . S
Fe44 O46 1.918 . S
Fe44 O49 1.997 . S
Fe44 O50 2.002 . S
Fe44 O55 1.976 . S
Fe44 O58 1.996 . S
Fe45 O46 1.918 . S
Fe45 O53 1.997 . S
Fe45 O56 1.996 . S
Fe45 O60 1.976 . S
Fe45 O63 2.002 . S
O46 Fe44 1.918 . S
O46 Fe45 1.918 . S
O46 Fe47 1.918 . S
Fe47 O46 1.918 . S
Fe47 O48 2.002 . S
Fe47 O57 1.976 . S
Fe47 O61 1.996 . S
Fe47 O64 1.982 1_545 S
O48 Fe47 2.002 . S
O48 C65 1.295 . S
O49 Fe44 1.997 . S
O49 C65 1.235 . S
O50 Fe44 2.002 . S
O50 C51 1.295 . S
C51 O50 1.295 . S
C51 O53 1.235 . S
C52 O57 1.287 . S
C52 O58 1.255 . S
O53 Fe45 1.997 . S
O53 C51 1.235 . S
C54 O60 1.287 . S
C54 O61 1.255 . S
O55 Fe44 1.976 . S
O55 C62 1.287 . S
O56 Fe45 1.996 . S
O56 C62 1.255 . S
O57 Fe47 1.976 . S
O57 C52 1.287 . S
O58 Fe44 1.996 . S
O58 C52 1.255 . S
C59 O63 1.295 1_565 S
C59 O64 1.241 . S
O60 Fe45 1.976 . S
O60 C54 1.287 . S
O61 Fe47 1.996 . S
O61 C54 1.255 . S
C62 O55 1.287 . S
C62 O56 1.255 . S
O63 Fe45 2.002 . S
O63 C59 1.295 1_545 S
O64 Fe47 1.982 1_565 S
O64 C59 1.241 . S
C65 O48 1.295 . S
C65 O49 1.235 . S
Fe66 O68 1.918 . S
Fe66 O71 1.997 . S
Fe66 O72 2.002 . S
Fe66 O77 1.976 1_655 S
Fe66 O80 1.996 . S
Fe67 O68 1.918 . S
Fe67 O75 1.982 1_565 S
Fe67 O78 1.996 1_655 S
Fe67 O82 1.976 . S
Fe67 O85 2.002 . S
O68 Fe66 1.918 . S
O68 Fe67 1.918 . S
O68 Fe69 1.918 . S
Fe69 O68 1.918 . S
Fe69 O70 2.002 . S
Fe69 O79 1.976 . S
Fe69 O83 1.996 . S
Fe69 O86 1.997 . S
O70 Fe69 2.002 . S
O70 C87 1.295 . S
O71 Fe66 1.997 . S
O71 C87 1.235 . S
O72 Fe66 2.002 . S
O72 C73 1.295 1_565 S
C73 O72 1.295 1_545 S
C73 O75 1.241 . S
C74 O79 1.287 . S
C74 O80 1.255 . S
O75 Fe67 1.982 1_545 S
O75 C73 1.241 . S
C76 O82 1.287 . S
C76 O83 1.255 . S
O77 Fe66 1.976 1_455 S
O77 C84 1.287 . S
O78 Fe67 1.996 1_455 S
O78 C84 1.255 . S
O79 Fe69 1.976 . S
O79 C74 1.287 . S
O80 Fe66 1.996 . S
O80 C74 1.255 . S
C81 O85 1.295 . S
C81 O86 1.235 . S
O82 Fe67 1.976 . S
O82 C76 1.287 . S
O83 Fe69 1.996 . S
O83 C76 1.255 . S
C84 O77 1.287 . S
C84 O78 1.255 . S
O85 Fe67 2.002 . S
O85 C81 1.295 . S
O86 Fe69 1.997 . S
O86 C81 1.235 . S
C87 O70 1.295 . S
C87 O71 1.235 . S
Fe88 O90 1.918 . S
Fe88 O93 1.997 . S
Fe88 O94 2.002 . S
Fe88 O99 1.976 . S
Fe88 O102 1.996 . S
Fe89 O90 1.918 . S
Fe89 O97 1.997 . S
Fe89 O100 1.996 . S
Fe89 O104 1.976 1_545 S
Fe89 O107 2.002 . S
O90 Fe88 1.918 . S
O90 Fe89 1.918 . S
O90 Fe91 1.918 . S
Fe91 O90 1.918 . S
Fe91 O92 2.002 . S
Fe91 O101 1.976 . S
Fe91 O105 1.996 1_545 S
Fe91 O108 1.997 . S
O92 Fe91 2.002 . S
O92 C109 1.295 . S
O93 Fe88 1.997 . S
O93 C109 1.235 . S
O94 Fe88 2.002 . S
O94 C95 1.295 . S
C95 O94 1.295 . S
C95 O97 1.235 . S
C96 O101 1.287 . S
C96 O102 1.255 . S
O97 Fe89 1.997 . S
O97 C95 1.235 . S
C98 O104 1.287 . S
C98 O105 1.255 . S
O99 Fe88 1.976 . S
O99 C106 1.287 . S
O100 Fe89 1.996 . S
O100 C106 1.255 . S
O101 Fe91 1.976 . S
O101 C96 1.287 . S
O102 Fe88 1.996 . S
O102 C96 1.255 . S
C103 O107 1.295 . S
C103 O108 1.235 . S
O104 Fe89 1.976 1_565 S
O104 C98 1.287 . S
O105 Fe91 1.996 1_565 S
O105 C98 1.255 . S
C106 O99 1.287 . S
C106 O100 1.255 . S
O107 Fe89 2.002 . S
O107 C103 1.295 . S
O108 Fe91 1.997 . S
O108 C103 1.235 . S
C109 O92 1.295 . S
C109 O93 1.235 . S
Fe110 O112 1.918 . S
Fe110 O115 1.997 . S
Fe110 O116 2.002 . S
Fe110 O121 1.976 1_565 S
Fe110 O124 1.996 . S
Fe111 O112 1.918 . S
Fe111 O119 1.982 1_556 S
Fe111 O122 1.996 1_565 S
Fe111 O126 1.976 . S
Fe111 O129 2.002 . S
O112 Fe110 1.918 . S
O112 Fe111 1.918 . S
O112 Fe113 1.918 . S
Fe113 O112 1.918 . S
Fe113 O114 2.002 . S
Fe113 O123 1.976 . S
Fe113 O127 1.996 . S
Fe113 O130 1.997 . S
O114 Fe113 2.002 . S
O114 C131 1.295 . S
O115 Fe110 1.997 . S
O115 C131 1.235 . S
O116 Fe110 2.002 . S
O116 C117 1.295 1_556 S
C117 O116 1.295 1_554 S
C117 O119 1.241 . S
C118 O123 1.287 . S
C118 O124 1.255 . S
O119 Fe111 1.982 1_554 S
O119 C117 1.241 . S
C120 O126 1.287 . S
C120 O127 1.255 . S
O121 Fe110 1.976 1_545 S
O121 C128 1.287 . S
O122 Fe111 1.996 1_545 S
O122 C128 1.255 . S
O123 Fe113 1.976 . S
O123 C118 1.287 . S
O124 Fe110 1.996 . S
O124 C118 1.255 . S
C125 O129 1.295 . S
C125 O130 1.235 . S
O126 Fe111 1.976 . S
O126 C120 1.287 . S
O127 Fe113 1.996 . S
O127 C120 1.255 . S
C128 O121 1.287 . S
C128 O122 1.255 . S
O129 Fe111 2.002 . S
O129 C125 1.295 . S
O130 Fe113 1.997 . S
O130 C125 1.235 . S
C131 O114 1.295 . S
C131 O115 1.235 . S
Fe132 O134 1.918 . S
Fe132 O137 1.997 . S
Fe132 O138 2.002 . S
Fe132 O143 1.976 . S
Fe132 O146 1.996 . S
Fe133 O134 1.918 . S
Fe133 O141 1.997 . S
Fe133 O144 1.996 . S
Fe133 O148 1.976 . S
Fe133 O151 2.002 . S
O134 Fe132 1.918 . S
O134 Fe133 1.918 . S
O134 Fe135 1.918 . S
Fe135 O134 1.918 . S
Fe135 O136 2.002 . S
Fe135 O145 1.976 . S
Fe135 O149 1.996 . S
Fe135 O152 1.997 . S
O136 Fe135 2.002 . S
O136 C153 1.295 . S
O137 Fe132 1.997 . S
O137 C153 1.235 . S
O138 Fe132 2.002 . S
O138 C139 1.295 . S
C139 O138 1.295 . S
C139 O141 1.235 . S
C140 O145 1.287 . S
C140 O146 1.255 . S
O141 Fe133 1.997 . S
O141 C139 1.235 . S
C142 O148 1.287 . S
C142 O149 1.255 . S
O143 Fe132 1.976 . S
O143 C150 1.287 . S
O144 Fe133 1.996 . S
O144 C150 1.255 . S
O145 Fe135 1.976 . S
O145 C140 1.287 . S
O146 Fe132 1.996 . S
O146 C140 1.255 . S
C147 O151 1.295 . S
C147 O152 1.235 . S
O148 Fe133 1.976 . S
O148 C142 1.287 . S
O149 Fe135 1.996 . S
O149 C142 1.255 . S
C150 O143 1.287 . S
C150 O144 1.255 . S
O151 Fe133 2.002 . S
O151 C147 1.295 . S
O152 Fe135 1.997 . S
O152 C147 1.235 . S
C153 O136 1.295 . S
C153 O137 1.235 . S
Fe154 O156 1.918 . S
Fe154 O159 1.997 . S
Fe154 O160 2.002 . S
Fe154 O165 1.976 . S
Fe154 O168 1.996 . S
Fe155 O156 1.918 . S
Fe155 O163 1.997 . S
Fe155 O166 1.996 . S
Fe155 O170 1.976 . S
Fe155 O173 2.002 . S
O156 Fe154 1.918 . S
O156 Fe155 1.918 . S
O156 Fe157 1.918 . S
Fe157 O156 1.918 . S
Fe157 O158 2.002 . S
Fe157 O167 1.976 . S
Fe157 O171 1.996 . S
Fe157 O174 1.982 1_554 S
O158 Fe157 2.002 . S
O158 C175 1.295 . S
O159 Fe154 1.997 . S
O159 C175 1.235 . S
O160 Fe154 2.002 . S
O160 C161 1.295 . S
C161 O160 1.295 . S
C161 O163 1.235 . S
C162 O167 1.287 . S
C162 O168 1.255 . S
O163 Fe155 1.997 . S
O163 C161 1.235 . S
C164 O170 1.287 . S
C164 O171 1.255 . S
O165 Fe154 1.976 . S
O165 C172 1.287 . S
O166 Fe155 1.996 . S
O166 C172 1.255 . S
O167 Fe157 1.976 . S
O167 C162 1.287 . S
O168 Fe154 1.996 . S
O168 C162 1.255 . S
C169 O173 1.295 1_556 S
C169 O174 1.241 . S
O170 Fe155 1.976 . S
O170 C164 1.287 . S
O171 Fe157 1.996 . S
O171 C164 1.255 . S
C172 O165 1.287 . S
C172 O166 1.255 . S
O173 Fe155 2.002 . S
O173 C169 1.295 1_554 S
O174 Fe157 1.982 1_556 S
O174 C169 1.241 . S
C175 O158 1.295 . S
C175 O159 1.235 . S
Fe176 O178 1.918 . S
Fe176 O181 1.997 . S
Fe176 O182 2.002 . S
Fe176 O187 1.976 . S
Fe176 O190 1.996 . S
Fe177 O178 1.918 . S
Fe177 O185 1.997 . S
Fe177 O188 1.996 . S
Fe177 O192 1.976 1_554 S
Fe177 O195 2.002 . S
O178 Fe176 1.918 . S
O178 Fe177 1.918 . S
O178 Fe179 1.918 . S
Fe179 O178 1.918 . S
Fe179 O180 2.002 . S
Fe179 O189 1.976 . S
Fe179 O193 1.996 1_554 S
Fe179 O196 1.997 . S
O180 Fe179 2.002 . S
O180 C197 1.295 . S
O181 Fe176 1.997 . S
O181 C197 1.235 . S
O182 Fe176 2.002 . S
O182 C183 1.295 . S
C183 O182 1.295 . S
C183 O185 1.235 . S
C184 O189 1.287 . S
C184 O190 1.255 . S
O185 Fe177 1.997 . S
O185 C183 1.235 . S
C186 O192 1.287 . S
C186 O193 1.255 . S
O187 Fe176 1.976 . S
O187 C194 1.287 . S
O188 Fe177 1.996 . S
O188 C194 1.255 . S
O189 Fe179 1.976 . S
O189 C184 1.287 . S
O190 Fe176 1.996 . S
O190 C184 1.255 . S
C191 O195 1.295 . S
C191 O196 1.235 . S
O192 Fe177 1.976 1_556 S
O192 C186 1.287 . S
O193 Fe179 1.996 1_556 S
O193 C186 1.255 . S
C194 O187 1.287 . S
C194 O188 1.255 . S
O195 Fe177 2.002 . S
O195 C191 1.295 . S
O196 Fe179 1.997 . S
O196 C191 1.235 . S
C197 O180 1.295 . S
C197 O181 1.235 . S
Fe198 O200 1.918 . S
Fe198 O203 1.982 1_655 S
Fe198 O204 2.002 . S
Fe198 O209 1.976 . S
Fe198 O212 1.996 1_556 S
Fe199 O200 1.918 . S
Fe199 O207 1.997 . S
Fe199 O210 1.996 . S
Fe199 O214 1.976 . S
Fe199 O217 2.002 . S
O200 Fe198 1.918 . S
O200 Fe199 1.918 . S
O200 Fe201 1.918 . S
Fe201 O200 1.918 . S
Fe201 O202 2.002 . S
Fe201 O211 1.976 1_556 S
Fe201 O215 1.996 . S
Fe201 O218 1.997 . S
O202 Fe201 2.002 . S
O202 C219 1.295 1_655 S
O203 Fe198 1.982 1_455 S
O203 C219 1.241 . S
O204 Fe198 2.002 . S
O204 C205 1.295 . S
C205 O204 1.295 . S
C205 O207 1.235 . S
C206 O211 1.287 . S
C206 O212 1.255 . S
O207 Fe199 1.997 . S
O207 C205 1.235 . S
C208 O214 1.287 . S
C208 O215 1.255 . S
O209 Fe198 1.976 . S
O209 C216 1.287 . S
O210 Fe199 1.996 . S
O210 C216 1.255 . S
O211 Fe201 1.976 1_554 S
O211 C206 1.287 . S
O212 Fe198 1.996 1_554 S
O212 C206 1.255 . S
C213 O217 1.295 . S
C213 O218 1.235 . S
O214 Fe199 1.976 . S
O214 C208 1.287 . S
O215 Fe201 1.996 . S
O215 C208 1.255 . S
C216 O209 1.287 . S
C216 O210 1.255 . S
O217 Fe199 2.002 . S
O217 C213 1.295 . S
O218 Fe201 1.997 . S
O218 C213 1.235 . S
C219 O202 1.295 1_455 S
C219 O203 1.241 . S
Fe220 O222 1.918 . S
Fe220 O225 1.997 . S
Fe220 O226 2.002 . S
Fe220 O231 1.976 . S
Fe220 O234 1.996 . S
Fe221 O222 1.918 . S
Fe221 O229 1.997 . S
Fe221 O232 1.996 . S
Fe221 O236 1.976 . S
Fe221 O239 2.002 . S
O222 Fe220 1.918 . S
O222 Fe221 1.918 . S
O222 Fe223 1.918 . S
Fe223 O222 1.918 . S
Fe223 O224 2.002 . S
Fe223 O233 1.976 . S
Fe223 O237 1.996 . S
Fe223 O240 1.997 . S
O224 Fe223 2.002 . S
O224 C241 1.295 . S
O225 Fe220 1.997 . S
O225 C241 1.235 . S
O226 Fe220 2.002 . S
O226 C227 1.295 . S
C227 O226 1.295 . S
C227 O229 1.235 . S
C228 O233 1.287 . S
C228 O234 1.255 . S
O229 Fe221 1.997 . S
O229 C227 1.235 . S
C230 O236 1.287 . S
C230 O237 1.255 . S
O231 Fe220 1.976 . S
O231 C238 1.287 . S
O232 Fe221 1.996 . S
O232 C238 1.255 . S
O233 Fe223 1.976 . S
O233 C228 1.287 . S
O234 Fe220 1.996 . S
O234 C228 1.255 . S
C235 O239 1.295 . S
C235 O240 1.235 . S
O236 Fe221 1.976 . S
O236 C230 1.287 . S
O237 Fe223 1.996 . S
O237 C230 1.255 . S
C238 O231 1.287 . S
C238 O232 1.255 . S
O239 Fe221 2.002 . S
O239 C235 1.295 . S
O240 Fe223 1.997 . S
O240 C235 1.235 . S
C241 O224 1.295 . S
C241 O225 1.235 . S
Fe242 O244 1.918 . S
Fe242 O247 1.997 . S
Fe242 O248 2.002 . S
Fe242 O253 1.976 . S
Fe242 O256 1.996 . S
Fe243 O244 1.918 . S
Fe243 O251 1.982 1_455 S
Fe243 O254 1.996 . S
Fe243 O258 1.976 . S
Fe243 O261 2.002 . S
O244 Fe242 1.918 . S
O244 Fe243 1.918 . S
O244 Fe245 1.918 . S
Fe245 O244 1.918 . S
Fe245 O246 2.002 . S
Fe245 O255 1.976 . S
Fe245 O259 1.996 . S
Fe245 O262 1.997 . S
O246 Fe245 2.002 . S
O246 C263 1.295 . S
O247 Fe242 1.997 . S
O247 C263 1.235 . S
O248 Fe242 2.002 . S
O248 C249 1.295 1_455 S
C249 O248 1.295 1_655 S
C249 O251 1.241 . S
C250 O255 1.287 . S
C250 O256 1.255 . S
O251 Fe243 1.982 1_655 S
O251 C249 1.241 . S
C252 O258 1.287 . S
C252 O259 1.255 . S
O253 Fe242 1.976 . S
O253 C260 1.287 . S
O254 Fe243 1.996 . S
O254 C260 1.255 . S
O255 Fe245 1.976 . S
O255 C250 1.287 . S
O256 Fe242 1.996 . S
O256 C250 1.255 . S
C257 O261 1.295 . S
C257 O262 1.235 . S
O258 Fe243 1.976 . S
O258 C252 1.287 . S
O259 Fe245 1.996 . S
O259 C252 1.255 . S
C260 O253 1.287 . S
C260 O254 1.255 . S
O261 Fe243 2.002 . S
O261 C257 1.295 . S
O262 Fe245 1.997 . S
O262 C257 1.235 . S
C263 O246 1.295 . S
C263 O247 1.235 . S
Fe264 O266 1.918 . S
Fe264 O269 1.997 . S
Fe264 O270 2.002 . S
Fe264 O275 1.976 . S
Fe264 O278 1.996 . S
Fe265 O266 1.918 . S
Fe265 O273 1.997 . S
Fe265 O276 1.996 . S
Fe265 O280 1.976 1_655 S
Fe265 O283 2.002 . S
O266 Fe264 1.918 . S
O266 Fe265 1.918 . S
O266 Fe267 1.918 . S
Fe267 O266 1.918 . S
Fe267 O268 2.002 . S
Fe267 O277 1.976 . S
Fe267 O281 1.996 1_655 S
Fe267 O284 1.997 . S
O268 Fe267 2.002 . S
O268 C285 1.295 . S
O269 Fe264 1.997 . S
O269 C285 1.235 . S
O270 Fe264 2.002 . S
O270 C271 1.295 . S
C271 O270 1.295 . S
C271 O273 1.235 . S
C272 O277 1.287 . S
C272 O278 1.255 . S
O273 Fe265 1.997 . S
O273 C271 1.235 . S
C274 O280 1.287 . S
C274 O281 1.255 . S
O275 Fe264 1.976 . S
O275 C282 1.287 . S
O276 Fe265 1.996 . S
O276 C282 1.255 . S
O277 Fe267 1.976 . S
O277 C272 1.287 . S
O278 Fe264 1.996 . S
O278 C272 1.255 . S
C279 O283 1.295 . S
C279 O284 1.235 . S
O280 Fe265 1.976 1_455 S
O280 C274 1.287 . S
O281 Fe267 1.996 1_455 S
O281 C274 1.255 . S
C282 O275 1.287 . S
C282 O276 1.255 . S
O283 Fe265 2.002 . S
O283 C279 1.295 . S
O284 Fe267 1.997 . S
O284 C279 1.235 . S
C285 O268 1.295 . S
C285 O269 1.235 . S
Fe286 O288 1.918 . S
Fe286 O291 1.997 . S
Fe286 O292 2.002 . S
Fe286 O297 1.976 . S
Fe286 O300 1.996 . S
Fe287 O288 1.918 . S
Fe287 O295 1.997 . S
Fe287 O298 1.996 . S
Fe287 O302 1.976 . S
Fe287 O305 2.002 . S
O288 Fe286 1.918 . S
O288 Fe287 1.918 . S
O288 Fe289 1.918 . S
Fe289 O288 1.918 . S
Fe289 O290 2.002 . S
Fe289 O299 1.976 . S
Fe289 O303 1.996 . S
Fe289 O306 1.997 . S
O290 Fe289 2.002 . S
O290 C307 1.295 . S
O291 Fe286 1.997 . S
O291 C307 1.235 . S
O292 Fe286 2.002 . S
O292 C293 1.295 . S
C293 O292 1.295 . S
C293 O295 1.235 . S
C294 O299 1.287 . S
C294 O300 1.255 . S
O295 Fe287 1.997 . S
O295 C293 1.235 . S
C296 O302 1.287 . S
C296 O303 1.255 . S
O297 Fe286 1.976 . S
O297 C304 1.287 . S
O298 Fe287 1.996 . S
O298 C304 1.255 . S
O299 Fe289 1.976 . S
O299 C294 1.287 . S
O300 Fe286 1.996 . S
O300 C294 1.255 . S
C301 O305 1.295 . S
C301 O306 1.235 . S
O302 Fe287 1.976 . S
O302 C296 1.287 . S
O303 Fe289 1.996 . S
O303 C296 1.255 . S
C304 O297 1.287 . S
C304 O298 1.255 . S
O305 Fe287 2.002 . S
O305 C301 1.295 . S
O306 Fe289 1.997 . S
O306 C301 1.235 . S
C307 O290 1.295 . S
C307 O291 1.235 . S
Fe308 O310 1.918 . S
Fe308 O313 1.997 . S
Fe308 O314 2.002 . S
Fe308 O319 1.976 . S
Fe308 O322 1.996 . S
Fe309 O310 1.918 . S
Fe309 O317 1.997 . S
Fe309 O320 1.996 . S
Fe309 O324 1.976 . S
Fe309 O327 2.002 . S
O310 Fe308 1.918 . S
O310 Fe309 1.918 . S
O310 Fe311 1.918 . S
Fe311 O310 1.918 . S
Fe311 O312 2.002 . S
Fe311 O321 1.976 . S
Fe311 O325 1.996 . S
Fe311 O328 1.982 1_565 S
O312 Fe311 2.002 . S
O312 C329 1.295 . S
O313 Fe308 1.997 . S
O313 C329 1.235 . S
O314 Fe308 2.002 . S
O314 C315 1.295 . S
C315 O314 1.295 . S
C315 O317 1.235 . S
C316 O321 1.287 . S
C316 O322 1.255 . S
O317 Fe309 1.997 . S
O317 C315 1.235 . S
C318 O324 1.287 . S
C318 O325 1.255 . S
O319 Fe308 1.976 . S
O319 C326 1.287 . S
O320 Fe309 1.996 . S
O320 C326 1.255 . S
O321 Fe311 1.976 . S
O321 C316 1.287 . S
O322 Fe308 1.996 . S
O322 C316 1.255 . S
C323 O327 1.295 1_545 S
C323 O328 1.241 . S
O324 Fe309 1.976 . S
O324 C318 1.287 . S
O325 Fe311 1.996 . S
O325 C318 1.255 . S
C326 O319 1.287 . S
C326 O320 1.255 . S
O327 Fe309 2.002 . S
O327 C323 1.295 1_565 S
O328 Fe311 1.982 1_545 S
O328 C323 1.241 . S
C329 O312 1.295 . S
C329 O313 1.235 . S
Fe330 O332 1.918 . S
Fe330 O335 1.997 . S
Fe330 O336 2.002 . S
Fe330 O341 1.976 . S
Fe330 O344 1.996 . S
Fe331 O332 1.918 . S
Fe331 O339 1.997 . S
Fe331 O342 1.996 . S
Fe331 O346 1.976 1_455 S
Fe331 O349 2.002 . S
O332 Fe330 1.918 . S
O332 Fe331 1.918 . S
O332 Fe333 1.918 . S
Fe333 O332 1.918 . S
Fe333 O334 2.002 . S
Fe333 O343 1.976 . S
Fe333 O347 1.996 1_455 S
Fe333 O350 1.982 1_545 S
O334 Fe333 2.002 . S
O334 C351 1.295 . S
O335 Fe330 1.997 . S
O335 C351 1.235 . S
O336 Fe330 2.002 . S
O336 C337 1.295 . S
C337 O336 1.295 . S
C337 O339 1.235 . S
C338 O343 1.287 . S
C338 O344 1.255 . S
O339 Fe331 1.997 . S
O339 C337 1.235 . S
C340 O346 1.287 . S
C340 O347 1.255 . S
O341 Fe330 1.976 . S
O341 C348 1.287 . S
O342 Fe331 1.996 . S
O342 C348 1.255 . S
O343 Fe333 1.976 . S
O343 C338 1.287 . S
O344 Fe330 1.996 . S
O344 C338 1.255 . S
C345 O349 1.295 1_565 S
C345 O350 1.241 . S
O346 Fe331 1.976 1_655 S
O346 C340 1.287 . S
O347 Fe333 1.996 1_655 S
O347 C340 1.255 . S
C348 O341 1.287 . S
C348 O342 1.255 . S
O349 Fe331 2.002 . S
O349 C345 1.295 1_545 S
O350 Fe333 1.982 1_565 S
O350 C345 1.241 . S
C351 O334 1.295 . S
C351 O335 1.235 . S
Fe352 O354 1.918 . S
Fe352 O357 1.997 . S
Fe352 O358 2.002 . S
Fe352 O363 1.976 . S
Fe352 O366 1.996 . S
Fe353 O354 1.918 . S
Fe353 O361 1.997 . S
Fe353 O364 1.996 . S
Fe353 O368 1.976 1_565 S
Fe353 O371 2.002 . S
O354 Fe352 1.918 . S
O354 Fe353 1.918 . S
O354 Fe355 1.918 . S
Fe355 O354 1.918 . S
Fe355 O356 2.002 . S
Fe355 O365 1.976 . S
Fe355 O369 1.996 1_565 S
Fe355 O372 1.997 . S
O356 Fe355 2.002 . S
O356 C373 1.295 . S
O357 Fe352 1.997 . S
O357 C373 1.235 . S
O358 Fe352 2.002 . S
O358 C359 1.295 . S
C359 O358 1.295 . S
C359 O361 1.235 . S
C360 O365 1.287 . S
C360 O366 1.255 . S
O361 Fe353 1.997 . S
O361 C359 1.235 . S
C362 O368 1.287 . S
C362 O369 1.255 . S
O363 Fe352 1.976 . S
O363 C370 1.287 . S
O364 Fe353 1.996 . S
O364 C370 1.255 . S
O365 Fe355 1.976 . S
O365 C360 1.287 . S
O366 Fe352 1.996 . S
O366 C360 1.255 . S
C367 O371 1.295 . S
C367 O372 1.235 . S
O368 Fe353 1.976 1_545 S
O368 C362 1.287 . S
O369 Fe355 1.996 1_545 S
O369 C362 1.255 . S
C370 O363 1.287 . S
C370 O364 1.255 . S
O371 Fe353 2.002 . S
O371 C367 1.295 . S
O372 Fe355 1.997 . S
O372 C367 1.235 . S
C373 O356 1.295 . S
C373 O357 1.235 . S
Fe374 O376 1.918 . S
Fe374 O379 1.982 1_554 S
Fe374 O380 2.002 . S
Fe374 O385 1.976 . S
Fe374 O388 1.996 1_545 S
Fe375 O376 1.918 . S
Fe375 O383 1.997 . S
Fe375 O386 1.996 . S
Fe375 O390 1.976 . S
Fe375 O393 2.002 . S
O376 Fe374 1.918 . S
O376 Fe375 1.918 . S
O376 Fe377 1.918 . S
Fe377 O376 1.918 . S
Fe377 O378 2.002 . S
Fe377 O387 1.976 1_545 S
Fe377 O391 1.996 . S
Fe377 O394 1.997 . S
O378 Fe377 2.002 . S
O378 C395 1.295 1_554 S
O379 Fe374 1.982 1_556 S
O379 C395 1.241 . S
O380 Fe374 2.002 . S
O380 C381 1.295 . S
C381 O380 1.295 . S
C381 O383 1.235 . S
C382 O387 1.287 . S
C382 O388 1.255 . S
O383 Fe375 1.997 . S
O383 C381 1.235 . S
C384 O390 1.287 . S
C384 O391 1.255 . S
O385 Fe374 1.976 . S
O385 C392 1.287 . S
O386 Fe375 1.996 . S
O386 C392 1.255 . S
O387 Fe377 1.976 1_565 S
O387 C382 1.287 . S
O388 Fe374 1.996 1_565 S
O388 C382 1.255 . S
C389 O393 1.295 . S
C389 O394 1.235 . S
O390 Fe375 1.976 . S
O390 C384 1.287 . S
O391 Fe377 1.996 . S
O391 C384 1.255 . S
C392 O385 1.287 . S
C392 O386 1.255 . S
O393 Fe375 2.002 . S
O393 C389 1.295 . S
O394 Fe377 1.997 . S
O394 C389 1.235 . S
C395 O378 1.295 1_556 S
C395 O379 1.241 . S
Fe396 O398 1.918 . S
Fe396 O401 1.997 . S
Fe396 O402 2.002 . S
Fe396 O407 1.976 . S
Fe396 O410 1.996 . S
Fe397 O398 1.918 . S
Fe397 O405 1.997 . S
Fe397 O408 1.996 . S
Fe397 O412 1.976 . S
Fe397 O415 2.002 . S
O398 Fe396 1.918 . S
O398 Fe397 1.918 . S
O398 Fe399 1.918 . S
Fe399 O398 1.918 . S
Fe399 O400 2.002 . S
Fe399 O409 1.976 . S
Fe399 O413 1.996 . S
Fe399 O416 1.997 . S
O400 Fe399 2.002 . S
O400 C417 1.295 . S
O401 Fe396 1.997 . S
O401 C417 1.235 . S
O402 Fe396 2.002 . S
O402 C403 1.295 . S
C403 O402 1.295 . S
C403 O405 1.235 . S
C404 O409 1.287 . S
C404 O410 1.255 . S
O405 Fe397 1.997 . S
O405 C403 1.235 . S
C406 O412 1.287 . S
C406 O413 1.255 . S
O407 Fe396 1.976 . S
O407 C414 1.287 . S
O408 Fe397 1.996 . S
O408 C414 1.255 . S
O409 Fe399 1.976 . S
O409 C404 1.287 . S
O410 Fe396 1.996 . S
O410 C404 1.255 . S
C411 O415 1.295 . S
C411 O416 1.235 . S
O412 Fe397 1.976 . S
O412 C406 1.287 . S
O413 Fe399 1.996 . S
O413 C406 1.255 . S
C414 O407 1.287 . S
C414 O408 1.255 . S
O415 Fe397 2.002 . S
O415 C411 1.295 . S
O416 Fe399 1.997 . S
O416 C411 1.235 . S
C417 O400 1.295 . S
C417 O401 1.235 . S
Fe418 O420 1.918 . S
Fe418 O423 1.997 . S
Fe418 O424 2.002 . S
Fe418 O429 1.976 . S
Fe418 O432 1.996 . S
Fe419 O420 1.918 . S
Fe419 O427 1.997 . S
Fe419 O430 1.996 . S
Fe419 O434 1.976 . S
Fe419 O437 2.002 . S
O420 Fe418 1.918 . S
O420 Fe419 1.918 . S
O420 Fe421 1.918 . S
Fe421 O420 1.918 . S
Fe421 O422 2.002 . S
Fe421 O431 1.976 . S
Fe421 O435 1.996 . S
Fe421 O438 1.982 1_556 S
O422 Fe421 2.002 . S
O422 C439 1.295 . S
O423 Fe418 1.997 . S
O423 C439 1.235 . S
O424 Fe418 2.002 . S
O424 C425 1.295 . S
C425 O424 1.295 . S
C425 O427 1.235 . S
C426 O431 1.287 . S
C426 O432 1.255 . S
O427 Fe419 1.997 . S
O427 C425 1.235 . S
C428 O434 1.287 . S
C428 O435 1.255 . S
O429 Fe418 1.976 . S
O429 C436 1.287 . S
O430 Fe419 1.996 . S
O430 C436 1.255 . S
O431 Fe421 1.976 . S
O431 C426 1.287 . S
O432 Fe418 1.996 . S
O432 C426 1.255 . S
C433 O437 1.295 1_554 S
C433 O438 1.241 . S
O434 Fe419 1.976 . S
O434 C428 1.287 . S
O435 Fe421 1.996 . S
O435 C428 1.255 . S
C436 O429 1.287 . S
C436 O430 1.255 . S
O437 Fe419 2.002 . S
O437 C433 1.295 1_556 S
O438 Fe421 1.982 1_554 S
O438 C433 1.241 . S
C439 O422 1.295 . S
C439 O423 1.235 . S
Fe440 O442 1.918 . S
Fe440 O445 1.997 . S
Fe440 O446 2.002 . S
Fe440 O451 1.976 . S
Fe440 O454 1.996 . S
Fe441 O442 1.918 . S
Fe441 O449 1.997 . S
Fe441 O452 1.996 . S
Fe441 O456 1.976 1_556 S
Fe441 O459 2.002 . S
O442 Fe440 1.918 . S
O442 Fe441 1.918 . S
O442 Fe443 1.918 . S
Fe443 O442 1.918 . S
Fe443 O444 2.002 . S
Fe443 O453 1.976 . S
Fe443 O457 1.996 1_556 S
Fe443 O460 1.997 . S
O444 Fe443 2.002 . S
O444 C461 1.295 . S
O445 Fe440 1.997 . S
O445 C461 1.235 . S
O446 Fe440 2.002 . S
O446 C447 1.295 . S
C447 O446 1.295 . S
C447 O449 1.235 . S
C448 O453 1.287 . S
C448 O454 1.255 . S
O449 Fe441 1.997 . S
O449 C447 1.235 . S
C450 O456 1.287 . S
C450 O457 1.255 . S
O451 Fe440 1.976 . S
O451 C458 1.287 . S
O452 Fe441 1.996 . S
O452 C458 1.255 . S
O453 Fe443 1.976 . S
O453 C448 1.287 . S
O454 Fe440 1.996 . S
O454 C448 1.255 . S
C455 O459 1.295 . S
C455 O460 1.235 . S
O456 Fe441 1.976 1_554 S
O456 C450 1.287 . S
O457 Fe443 1.996 1_554 S
O457 C450 1.255 . S
C458 O451 1.287 . S
C458 O452 1.255 . S
O459 Fe441 2.002 . S
O459 C455 1.295 . S
O460 Fe443 1.997 . S
O460 C455 1.235 . S
C461 O444 1.295 . S
C461 O445 1.235 . S
Fe462 O464 1.918 . S
Fe462 O467 1.982 1_455 S
Fe462 O468 2.002 . S
Fe462 O473 1.976 . S
Fe462 O476 1.996 1_554 S
Fe463 O464 1.918 . S
Fe463 O471 1.997 . S
Fe463 O474 1.996 . S
Fe463 O478 1.976 . S
Fe463 O481 2.002 . S
O464 Fe462 1.918 . S
O464 Fe463 1.918 . S
O464 Fe465 1.918 . S
Fe465 O464 1.918 . S
Fe465 O466 2.002 . S
Fe465 O475 1.976 1_554 S
Fe465 O479 1.996 . S
Fe465 O482 1.997 . S
O466 Fe465 2.002 . S
O466 C483 1.295 1_455 S
O467 Fe462 1.982 1_655 S
O467 C483 1.241 . S
O468 Fe462 2.002 . S
O468 C469 1.295 . S
C469 O468 1.295 . S
C469 O471 1.235 . S
C470 O475 1.287 . S
C470 O476 1.255 . S
O471 Fe463 1.997 . S
O471 C469 1.235 . S
C472 O478 1.287 . S
C472 O479 1.255 . S
O473 Fe462 1.976 . S
O473 C480 1.287 . S
O474 Fe463 1.996 . S
O474 C480 1.255 . S
O475 Fe465 1.976 1_556 S
O475 C470 1.287 . S
O476 Fe462 1.996 1_556 S
O476 C470 1.255 . S
C477 O481 1.295 . S
C477 O482 1.235 . S
O478 Fe463 1.976 . S
O478 C472 1.287 . S
O479 Fe465 1.996 . S
O479 C472 1.255 . S
C480 O473 1.287 . S
C480 O474 1.255 . S
O481 Fe463 2.002 . S
O481 C477 1.295 . S
O482 Fe465 1.997 . S
O482 C477 1.235 . S
C483 O466 1.295 1_655 S
C483 O467 1.241 . S
Fe484 O486 1.918 . S
Fe484 O489 1.997 . S
Fe484 O490 2.002 . S
Fe484 O495 1.976 . S
Fe484 O498 1.996 . S
Fe485 O486 1.918 . S
Fe485 O493 1.997 . S
Fe485 O496 1.996 . S
Fe485 O500 1.976 . S
Fe485 O503 2.002 . S
O486 Fe484 1.918 . S
O486 Fe485 1.918 . S
O486 Fe487 1.918 . S
Fe487 O486 1.918 . S
Fe487 O488 2.002 . S
Fe487 O497 1.976 . S
Fe487 O501 1.996 . S
Fe487 O504 1.997 . S
O488 Fe487 2.002 . S
O488 C505 1.295 . S
O489 Fe484 1.997 . S
O489 C505 1.235 . S
O490 Fe484 2.002 . S
O490 C491 1.295 . S
C491 O490 1.295 . S
C491 O493 1.235 . S
C492 O497 1.287 . S
C492 O498 1.255 . S
O493 Fe485 1.997 . S
O493 C491 1.235 . S
C494 O500 1.287 . S
C494 O501 1.255 . S
O495 Fe484 1.976 . S
O495 C502 1.287 . S
O496 Fe485 1.996 . S
O496 C502 1.255 . S
O497 Fe487 1.976 . S
O497 C492 1.287 . S
O498 Fe484 1.996 . S
O498 C492 1.255 . S
C499 O503 1.295 . S
C499 O504 1.235 . S
O500 Fe485 1.976 . S
O500 C494 1.287 . S
O501 Fe487 1.996 . S
O501 C494 1.255 . S
C502 O495 1.287 . S
C502 O496 1.255 . S
O503 Fe485 2.002 . S
O503 C499 1.295 . S
O504 Fe487 1.997 . S
O504 C499 1.235 . S
C505 O488 1.295 . S
C505 O489 1.235 . S
Fe506 O508 1.918 . S
Fe506 O511 1.997 . S
Fe506 O512 2.002 . S
Fe506 O517 1.976 . S
Fe506 O520 1.996 . S
Fe507 O508 1.918 . S
Fe507 O515 1.997 . S
Fe507 O518 1.996 . S
Fe507 O522 1.976 . S
Fe507 O525 2.002 . S
O508 Fe506 1.918 . S
O508 Fe507 1.918 . S
O508 Fe509 1.918 . S
Fe509 O508 1.918 . S
Fe509 O510 2.002 . S
Fe509 O519 1.976 . S
Fe509 O523 1.996 . S
Fe509 O526 1.982 1_655 S
O510 Fe509 2.002 . S
O510 C527 1.295 . S
O511 Fe506 1.997 . S
O511 C527 1.235 . S
O512 Fe506 2.002 . S
O512 C513 1.295 . S
C513 O512 1.295 . S
C513 O515 1.235 . S
C514 O519 1.287 . S
C514 O520 1.255 . S
O515 Fe507 1.997 . S
O515 C513 1.235 . S
C516 O522 1.287 . S
C516 O523 1.255 . S
O517 Fe506 1.976 . S
O517 C524 1.287 . S
O518 Fe507 1.996 . S
O518 C524 1.255 . S
O519 Fe509 1.976 . S
O519 C514 1.287 . S
O520 Fe506 1.996 . S
O520 C514 1.255 . S
C521 O525 1.295 1_455 S
C521 O526 1.241 . S
O522 Fe507 1.976 . S
O522 C516 1.287 . S
O523 Fe509 1.996 . S
O523 C516 1.255 . S
C524 O517 1.287 . S
C524 O518 1.255 . S
O525 Fe507 2.002 . S
O525 C521 1.295 1_655 S
O526 Fe509 1.982 1_455 S
O526 C521 1.241 . S
C527 O510 1.295 . S
C527 O511 1.235 . S
H528 C540 0.930 . S
H529 C542 0.930 . S
H530 C543 0.930 . S
H531 C547 0.959 . S
H532 C547 0.959 . S
H533 C547 0.961 . S
H534 C548 0.960 . S
H535 C548 0.961 . S
H536 C548 0.959 . S
H537 C551 0.929 . S
H538 C552 0.931 . S
H539 C554 0.930 . S
C540 H528 0.930 . S
C540 C541 1.399 . S
C540 C545 1.399 . S
C541 C540 1.399 . S
C541 C542 1.376 . S
C542 H529 0.930 . S
C542 C541 1.376 . S
C542 C543 1.388 . S
C543 H530 0.930 . S
C543 C542 1.388 . S
C543 C544 1.390 . S
C544 C543 1.390 . S
C544 C545 1.394 . S
C544 C550 1.465 . S
C545 C540 1.399 . S
C545 C544 1.394 . S
C545 C546 1.516 . S
C546 C545 1.516 . S
C546 C547 1.502 . S
C546 C548 1.561 . S
C546 C549 1.526 . S
C547 H531 0.959 . S
C547 H532 0.959 . S
C547 H533 0.961 . S
C547 C546 1.502 . S
C548 H534 0.960 . S
C548 H535 0.961 . S
C548 H536 0.959 . S
C548 C546 1.561 . S
C549 C546 1.526 . S
C549 C550 1.396 . S
C549 C554 1.390 . S
C550 C544 1.465 . S
C550 C549 1.396 . S
C550 C551 1.399 . S
C551 H537 0.929 . S
C551 C550 1.399 . S
C551 C552 1.385 . S
C552 H538 0.931 . S
C552 C551 1.385 . S
C552 C553 1.389 . S
C553 C552 1.389 . S
C553 C554 1.387 . S
C554 H539 0.930 . S
C554 C549 1.390 . S
C554 C553 1.387 . S
H555 C567 0.930 . S
H556 C569 0.930 . S
H557 C570 0.930 . S
H558 C574 0.959 . S
H559 C574 0.959 . S
H560 C574 0.961 . S
H561 C575 0.960 . S
H562 C575 0.961 . S
H563 C575 0.959 . S
H564 C578 0.929 . S
H565 C579 0.931 . S
H566 C581 0.930 . S
C567 H555 0.930 . S
C567 C568 1.399 . S
C567 C572 1.399 . S
C568 C567 1.399 . S
C568 C569 1.376 . S
C569 H556 0.930 . S
C569 C568 1.376 . S
C569 C570 1.388 . S
C570 H557 0.930 . S
C570 C569 1.388 . S
C570 C571 1.390 . S
C571 C570 1.390 . S
C571 C572 1.394 . S
C571 C577 1.465 . S
C572 C567 1.399 . S
C572 C571 1.394 . S
C572 C573 1.516 . S
C573 C572 1.516 . S
C573 C574 1.502 . S
C573 C575 1.561 . S
C573 C576 1.526 . S
C574 H558 0.959 . S
C574 H559 0.959 . S
C574 H560 0.961 . S
C574 C573 1.502 . S
C575 H561 0.960 . S
C575 H562 0.961 . S
C575 H563 0.959 . S
C575 C573 1.561 . S
C576 C573 1.526 . S
C576 C577 1.396 . S
C576 C581 1.390 . S
C577 C571 1.465 . S
C577 C576 1.396 . S
C577 C578 1.399 . S
C578 H564 0.929 . S
C578 C577 1.399 . S
C578 C579 1.385 . S
C579 H565 0.931 . S
C579 C578 1.385 . S
C579 C580 1.389 . S
C580 C579 1.389 . S
C580 C581 1.387 . S
C581 H566 0.930 . S
C581 C576 1.390 . S
C581 C580 1.387 . S
H582 C594 0.930 . S
H583 C596 0.930 . S
H584 C597 0.930 . S
H585 C601 0.959 . S
H586 C601 0.959 . S
H587 C601 0.961 . S
H588 C602 0.960 . S
H589 C602 0.961 . S
H590 C602 0.959 . S
H591 C605 0.929 . S
H592 C606 0.931 . S
H593 C608 0.930 . S
C594 H582 0.930 . S
C594 C595 1.399 . S
C594 C599 1.399 . S
C595 C594 1.399 . S
C595 C596 1.376 . S
C596 H583 0.930 . S
C596 C595 1.376 . S
C596 C597 1.388 . S
C597 H584 0.930 . S
C597 C596 1.388 . S
C597 C598 1.390 . S
C598 C597 1.390 . S
C598 C599 1.394 . S
C598 C604 1.465 . S
C599 C594 1.399 . S
C599 C598 1.394 . S
C599 C600 1.516 1_545 S
C600 C599 1.516 1_565 S
C600 C601 1.502 . S
C600 C602 1.561 . S
C600 C603 1.526 . S
C601 H585 0.959 . S
C601 H586 0.959 . S
C601 H587 0.961 . S
C601 C600 1.502 . S
C602 H588 0.960 . S
C602 H589 0.961 . S
C602 H590 0.959 . S
C602 C600 1.561 . S
C603 C600 1.526 . S
C603 C604 1.396 1_565 S
C603 C608 1.390 . S
C604 C598 1.465 . S
C604 C603 1.396 1_545 S
C604 C605 1.399 . S
C605 H591 0.929 . S
C605 C604 1.399 . S
C605 C606 1.385 . S
C606 H592 0.931 . S
C606 C605 1.385 . S
C606 C607 1.389 1_545 S
C607 C606 1.389 1_565 S
C607 C608 1.387 . S
C608 H593 0.930 . S
C608 C603 1.390 . S
C608 C607 1.387 . S
H609 C621 0.930 . S
H610 C623 0.930 . S
H611 C624 0.930 . S
H612 C628 0.959 . S
H613 C628 0.959 . S
H614 C628 0.961 . S
H615 C629 0.960 . S
H616 C629 0.961 . S
H617 C629 0.959 . S
H618 C632 0.929 . S
H619 C633 0.931 . S
H620 C635 0.930 . S
C621 H609 0.930 . S
C621 C622 1.399 . S
C621 C626 1.399 . S
C622 C621 1.399 . S
C622 C623 1.376 . S
C623 H610 0.930 . S
C623 C622 1.376 . S
C623 C624 1.388 1_565 S
C624 H611 0.930 . S
C624 C623 1.388 1_545 S
C624 C625 1.390 1_545 S
C625 C624 1.390 1_565 S
C625 C626 1.394 . S
C625 C631 1.465 1_565 S
C626 C621 1.399 . S
C626 C625 1.394 . S
C626 C627 1.516 . S
C627 C626 1.516 . S
C627 C628 1.502 . S
C627 C629 1.561 . S
C627 C630 1.526 . S
C628 H612 0.959 . S
C628 H613 0.959 . S
C628 H614 0.961 . S
C628 C627 1.502 . S
C629 H615 0.960 . S
C629 H616 0.961 . S
C629 H617 0.959 . S
C629 C627 1.561 . S
C630 C627 1.526 . S
C630 C631 1.396 1_565 S
C630 C635 1.390 . S
C631 C625 1.465 1_545 S
C631 C630 1.396 1_545 S
C631 C632 1.399 . S
C632 H618 0.929 . S
C632 C631 1.399 . S
C632 C633 1.385 . S
C633 H619 0.931 . S
C633 C632 1.385 . S
C633 C634 1.389 . S
C634 C633 1.389 . S
C634 C635 1.387 1_545 S
C635 H620 0.930 . S
C635 C630 1.390 . S
C635 C634 1.387 1_565 S
H636 C648 0.930 . S
H637 C650 0.930 . S
H638 C651 0.930 . S
H639 C655 0.959 . S
H640 C655 0.959 . S
H641 C655 0.961 . S
H642 C656 0.960 . S
H643 C656 0.961 . S
H644 C656 0.959 . S
H645 C659 0.929 . S
H646 C660 0.931 . S
H647 C662 0.930 . S
C648 H636 0.930 . S
C648 C649 1.399 . S
C648 C653 1.399 . S
C649 C648 1.399 . S
C649 C650 1.376 . S
C650 H637 0.930 . S
C650 C649 1.376 . S
C650 C651 1.388 . S
C651 H638 0.930 . S
C651 C650 1.388 . S
C651 C652 1.390 . S
C652 C651 1.390 . S
C652 C653 1.394 . S
C652 C658 1.465 . S
C653 C648 1.399 . S
C653 C652 1.394 . S
C653 C654 1.516 . S
C654 C653 1.516 . S
C654 C655 1.502 . S
C654 C656 1.561 . S
C654 C657 1.526 . S
C655 H639 0.959 . S
C655 H640 0.959 . S
C655 H641 0.961 . S
C655 C654 1.502 . S
C656 H642 0.960 . S
C656 H643 0.961 . S
C656 H644 0.959 . S
C656 C654 1.561 . S
C657 C654 1.526 . S
C657 C658 1.396 . S
C657 C662 1.390 . S
C658 C652 1.465 . S
C658 C657 1.396 . S
C658 C659 1.399 . S
C659 H645 0.929 . S
C659 C658 1.399 . S
C659 C660 1.385 . S
C660 H646 0.931 . S
C660 C659 1.385 . S
C660 C661 1.389 . S
C661 C660 1.389 . S
C661 C662 1.387 . S
C662 H647 0.930 . S
C662 C657 1.390 . S
C662 C661 1.387 . S
H663 C675 0.930 . S
H664 C677 0.930 . S
H665 C678 0.930 1_554 S
H666 C682 0.959 . S
H667 C682 0.959 . S
H668 C682 0.961 . S
H669 C683 0.960 . S
H670 C683 0.961 . S
H671 C683 0.959 1_554 S
H672 C686 0.929 . S
H673 C687 0.931 . S
H674 C689 0.945 . S
C675 H663 0.930 . S
C675 C676 1.399 . S
C675 C680 1.399 . S
C676 C675 1.399 . S
C676 C677 1.376 . S
C677 H664 0.930 . S
C677 C676 1.376 . S
C677 C678 1.388 . S
C678 H665 0.930 1_556 S
C678 C677 1.388 . S
C678 C679 1.390 . S
C679 C678 1.390 . S
C679 C680 1.394 . S
C679 C685 1.465 1_556 S
C680 C675 1.399 . S
C680 C679 1.394 . S
C680 C681 1.516 . S
C681 C680 1.516 . S
C681 C682 1.502 . S
C681 C683 1.561 . S
C681 C684 1.526 . S
C682 H666 0.959 . S
C682 H667 0.959 . S
C682 H668 0.961 . S
C682 C681 1.502 . S
C683 H669 0.960 . S
C683 H670 0.961 . S
C683 H671 0.959 1_556 S
C683 C681 1.561 . S
C684 C681 1.526 . S
C684 C685 1.396 1_556 S
C684 C689 1.399 . S
C685 C679 1.465 1_554 S
C685 C684 1.396 1_554 S
C685 C686 1.399 . S
C686 H672 0.929 . S
C686 C685 1.399 . S
C686 C687 1.385 . S
C687 H673 0.931 . S
C687 C686 1.385 . S
C687 C688 1.389 . S
C688 C687 1.389 . S
C688 C689 1.363 1_554 S
C689 H674 0.945 . S
C689 C684 1.399 . S
C689 C688 1.363 1_556 S
H690 C702 0.930 . S
H691 C704 0.930 . S
H692 C705 0.930 . S
H693 C709 0.959 . S
H694 C709 0.959 . S
H695 C709 0.961 . S
H696 C710 0.960 . S
H697 C710 0.961 . S
H698 C710 0.959 . S
H699 C713 0.929 . S
H700 C714 0.931 . S
H701 C716 0.930 . S
C702 H690 0.930 . S
C702 C703 1.399 . S
C702 C707 1.399 . S
C703 C702 1.399 . S
C703 C704 1.376 . S
C704 H691 0.930 . S
C704 C703 1.376 . S
C704 C705 1.388 . S
C705 H692 0.930 . S
C705 C704 1.388 . S
C705 C706 1.390 . S
C706 C705 1.390 . S
C706 C707 1.394 . S
C706 C712 1.465 . S
C707 C702 1.399 . S
C707 C706 1.394 . S
C707 C708 1.516 . S
C708 C707 1.516 . S
C708 C709 1.502 . S
C708 C710 1.561 . S
C708 C711 1.526 . S
C709 H693 0.959 . S
C709 H694 0.959 . S
C709 H695 0.961 . S
C709 C708 1.502 . S
C710 H696 0.960 . S
C710 H697 0.961 . S
C710 H698 0.959 . S
C710 C708 1.561 . S
C711 C708 1.526 . S
C711 C712 1.396 . S
C711 C716 1.390 . S
C712 C706 1.465 . S
C712 C711 1.396 . S
C712 C713 1.399 . S
C713 H699 0.929 . S
C713 C712 1.399 . S
C713 C714 1.385 . S
C714 H700 0.931 . S
C714 C713 1.385 . S
C714 C715 1.389 . S
C715 C714 1.389 . S
C715 C716 1.387 . S
C716 H701 0.930 . S
C716 C711 1.390 . S
C716 C715 1.387 . S
H717 C729 0.930 . S
H718 C731 0.930 . S
H719 C732 0.930 1_556 S
H720 C736 0.959 . S
H721 C736 0.959 . S
H722 C736 0.961 . S
H723 C737 0.960 . S
H724 C737 0.961 . S
H725 C737 0.959 . S
H726 C740 0.929 . S
H727 C741 0.931 . S
H728 C743 0.930 . S
C729 H717 0.930 . S
C729 C730 1.399 . S
C729 C734 1.399 . S
C730 C729 1.399 . S
C730 C731 1.376 . S
C731 H718 0.930 . S
C731 C730 1.376 . S
C731 C732 1.388 . S
C732 H719 0.930 1_554 S
C732 C731 1.388 . S
C732 C733 1.390 . S
C733 C732 1.390 . S
C733 C734 1.394 . S
C733 C739 1.478 . S
C734 C729 1.399 . S
C734 C733 1.394 . S
C734 C735 1.516 . S
C735 C734 1.516 . S
C735 C736 1.502 . S
C735 C737 1.561 . S
C735 C738 1.526 . S
C736 H720 0.959 . S
C736 H721 0.959 . S
C736 H722 0.961 . S
C736 C735 1.502 . S
C737 H723 0.960 . S
C737 H724 0.961 . S
C737 H725 0.959 . S
C737 C735 1.561 . S
C738 C735 1.526 . S
C738 C739 1.408 . S
C738 C743 1.390 . S
C739 C733 1.478 . S
C739 C738 1.408 . S
C739 C740 1.378 1_554 S
C740 H726 0.929 . S
C740 C739 1.378 1_556 S
C740 C741 1.385 . S
C741 H727 0.931 . S
C741 C740 1.385 . S
C741 C742 1.389 . S
C742 C741 1.389 . S
C742 C743 1.387 1_556 S
C743 H728 0.930 . S
C743 C738 1.390 . S
C743 C742 1.387 1_554 S
H744 C756 0.930 . S
H745 C758 0.930 . S
H746 C759 0.930 . S
H747 C763 0.959 . S
H748 C763 0.959 . S
H749 C763 0.961 . S
H750 C764 0.960 . S
H751 C764 0.961 . S
H752 C764 0.959 . S
H753 C767 0.929 . S
H754 C768 0.931 . S
H755 C770 0.930 . S
C756 H744 0.930 . S
C756 C757 1.399 . S
C756 C761 1.399 . S
C757 C756 1.399 . S
C757 C758 1.376 . S
C758 H745 0.930 . S
C758 C757 1.376 . S
C758 C759 1.388 . S
C759 H746 0.930 . S
C759 C758 1.388 . S
C759 C760 1.390 . S
C760 C759 1.390 . S
C760 C761 1.394 . S
C760 C766 1.465 . S
C761 C756 1.399 . S
C761 C760 1.394 . S
C761 C762 1.516 . S
C762 C761 1.516 . S
C762 C763 1.502 . S
C762 C764 1.561 . S
C762 C765 1.526 . S
C763 H747 0.959 . S
C763 H748 0.959 . S
C763 H749 0.961 . S
C763 C762 1.502 . S
C764 H750 0.960 . S
C764 H751 0.961 . S
C764 H752 0.959 . S
C764 C762 1.561 . S
C765 C762 1.526 . S
C765 C766 1.396 . S
C765 C770 1.390 . S
C766 C760 1.465 . S
C766 C765 1.396 . S
C766 C767 1.399 . S
C767 H753 0.929 . S
C767 C766 1.399 . S
C767 C768 1.385 . S
C768 H754 0.931 . S
C768 C767 1.385 . S
C768 C769 1.389 . S
C769 C768 1.389 . S
C769 C770 1.387 . S
C770 H755 0.930 . S
C770 C765 1.390 . S
C770 C769 1.387 . S
H771 C783 0.930 . S
H772 C785 0.930 . S
H773 C786 0.930 . S
H774 C790 0.959 1_655 S
H775 C790 0.959 . S
H776 C790 0.961 . S
H777 C791 0.960 . S
H778 C791 0.961 . S
H779 C791 0.959 . S
H780 C794 0.929 . S
H781 C795 0.931 . S
H782 C797 0.930 . S
C783 H771 0.930 . S
C783 C784 1.399 . S
C783 C788 1.399 . S
C784 C783 1.399 . S
C784 C785 1.376 . S
C785 H772 0.930 . S
C785 C784 1.376 . S
C785 C786 1.388 . S
C786 H773 0.930 . S
C786 C785 1.388 . S
C786 C787 1.390 . S
C787 C786 1.390 . S
C787 C788 1.394 . S
C787 C793 1.465 . S
C788 C783 1.399 . S
C788 C787 1.394 . S
C788 C789 1.516 1_655 S
C789 C788 1.516 1_455 S
C789 C790 1.502 . S
C789 C791 1.561 . S
C789 C792 1.526 . S
C790 H774 0.959 1_455 S
C790 H775 0.959 . S
C790 H776 0.961 . S
C790 C789 1.502 . S
C791 H777 0.960 . S
C791 H778 0.961 . S
C791 H779 0.959 . S
C791 C789 1.561 . S
C792 C789 1.526 . S
C792 C793 1.396 1_455 S
C792 C797 1.390 . S
C793 C787 1.465 . S
C793 C792 1.396 1_655 S
C793 C794 1.399 . S
C794 H780 0.929 . S
C794 C793 1.399 . S
C794 C795 1.385 . S
C795 H781 0.931 . S
C795 C794 1.385 . S
C795 C796 1.389 1_655 S
C796 C795 1.389 1_455 S
C796 C797 1.387 . S
C797 H782 0.930 . S
C797 C792 1.390 . S
C797 C796 1.387 . S
H798 C810 0.930 . S
H799 C812 0.930 . S
H800 C813 0.930 . S
H801 C817 0.959 . S
H802 C817 0.959 . S
H803 C817 0.961 . S
H804 C818 0.960 . S
H805 C818 0.961 . S
H806 C818 0.959 . S
H807 C821 0.929 . S
H808 C822 0.931 . S
H809 C824 0.930 . S
C810 H798 0.930 . S
C810 C811 1.399 . S
C810 C815 1.399 . S
C811 C810 1.399 . S
C811 C812 1.376 . S
C812 H799 0.930 . S
C812 C811 1.376 . S
C812 C813 1.388 . S
C813 H800 0.930 . S
C813 C812 1.388 . S
C813 C814 1.390 . S
C814 C813 1.390 . S
C814 C815 1.394 . S
C814 C820 1.465 . S
C815 C810 1.399 . S
C815 C814 1.394 . S
C815 C816 1.516 . S
C816 C815 1.516 . S
C816 C817 1.502 . S
C816 C818 1.561 . S
C816 C819 1.526 . S
C817 H801 0.959 . S
C817 H802 0.959 . S
C817 H803 0.961 . S
C817 C816 1.502 . S
C818 H804 0.960 . S
C818 H805 0.961 . S
C818 H806 0.959 . S
C818 C816 1.561 . S
C819 C816 1.526 . S
C819 C820 1.396 . S
C819 C824 1.390 . S
C820 C814 1.465 . S
C820 C819 1.396 . S
C820 C821 1.399 . S
C821 H807 0.929 . S
C821 C820 1.399 . S
C821 C822 1.385 . S
C822 H808 0.931 . S
C822 C821 1.385 . S
C822 C823 1.389 . S
C823 C822 1.389 . S
C823 C824 1.387 . S
C824 H809 0.930 . S
C824 C819 1.390 . S
C824 C823 1.387 . S
H825 C837 0.930 . S
H826 C839 0.930 . S
H827 C840 0.930 . S
H828 C844 0.959 1_455 S
H829 C844 0.959 . S
H830 C844 0.961 . S
H831 C845 0.960 . S
H832 C845 0.961 . S
H833 C845 0.959 . S
H834 C848 0.929 . S
H835 C849 0.931 . S
H836 C851 0.930 . S
C837 H825 0.930 . S
C837 C838 1.399 . S
C837 C842 1.399 . S
C838 C837 1.399 . S
C838 C839 1.376 . S
C839 H826 0.930 . S
C839 C838 1.376 . S
C839 C840 1.388 . S
C840 H827 0.930 . S
C840 C839 1.388 . S
C840 C841 1.390 . S
C841 C840 1.390 . S
C841 C842 1.394 . S
C841 C847 1.465 . S
C842 C837 1.399 . S
C842 C841 1.394 . S
C842 C843 1.516 1_455 S
C843 C842 1.516 1_655 S
C843 C844 1.502 . S
C843 C845 1.561 . S
C843 C846 1.526 . S
C844 H828 0.959 1_655 S
C844 H829 0.959 . S
C844 H830 0.961 . S
C844 C843 1.502 . S
C845 H831 0.960 . S
C845 H832 0.961 . S
C845 H833 0.959 . S
C845 C843 1.561 . S
C846 C843 1.526 . S
C846 C847 1.396 1_655 S
C846 C851 1.390 . S
C847 C841 1.465 . S
C847 C846 1.396 1_455 S
C847 C848 1.399 . S
C848 H834 0.929 . S
C848 C847 1.399 . S
C848 C849 1.385 . S
C849 H835 0.931 . S
C849 C848 1.385 . S
C849 C850 1.389 1_455 S
C850 C849 1.389 1_655 S
C850 C851 1.387 . S
C851 H836 0.930 . S
C851 C846 1.390 . S
C851 C850 1.387 . S
H852 C864 0.930 . S
H853 C866 0.930 . S
H854 C867 0.930 . S
H855 C871 0.959 . S
H856 C871 0.959 . S
H857 C871 0.961 . S
H858 C872 0.960 . S
H859 C872 0.961 . S
H860 C872 0.959 . S
H861 C875 0.929 . S
H862 C876 0.931 . S
H863 C878 0.930 . S
C864 H852 0.930 . S
C864 C865 1.399 . S
C864 C869 1.399 . S
C865 C864 1.399 . S
C865 C866 1.376 . S
C866 H853 0.930 . S
C866 C865 1.376 . S
C866 C867 1.388 . S
C867 H854 0.930 . S
C867 C866 1.388 . S
C867 C868 1.390 . S
C868 C867 1.390 . S
C868 C869 1.394 . S
C868 C874 1.465 . S
C869 C864 1.399 . S
C869 C868 1.394 . S
C869 C870 1.516 . S
C870 C869 1.516 . S
C870 C871 1.502 . S
C870 C872 1.561 . S
C870 C873 1.526 . S
C871 H855 0.959 . S
C871 H856 0.959 . S
C871 H857 0.961 . S
C871 C870 1.502 . S
C872 H858 0.960 . S
C872 H859 0.961 . S
C872 H860 0.959 . S
C872 C870 1.561 . S
C873 C870 1.526 . S
C873 C874 1.396 . S
C873 C878 1.390 . S
C874 C868 1.465 . S
C874 C873 1.396 . S
C874 C875 1.399 . S
C875 H861 0.929 . S
C875 C874 1.399 . S
C875 C876 1.385 . S
C876 H862 0.931 . S
C876 C875 1.385 . S
C876 C877 1.389 . S
C877 C876 1.389 . S
C877 C878 1.387 . S
C878 H863 0.930 . S
C878 C873 1.390 . S
C878 C877 1.387 . S
H879 C891 0.930 . S
H880 C893 0.930 . S
H881 C894 0.930 . S
H882 C898 0.959 . S
H883 C898 0.959 . S
H884 C898 0.961 . S
H885 C899 0.960 . S
H886 C899 0.961 . S
H887 C899 0.959 . S
H888 C902 0.929 . S
H889 C903 0.931 . S
H890 C905 0.930 . S
C891 H879 0.930 . S
C891 C892 1.399 . S
C891 C896 1.399 . S
C892 C891 1.399 . S
C892 C893 1.376 . S
C893 H880 0.930 . S
C893 C892 1.376 . S
C893 C894 1.388 . S
C894 H881 0.930 . S
C894 C893 1.388 . S
C894 C895 1.390 . S
C895 C894 1.390 . S
C895 C896 1.394 . S
C895 C901 1.465 . S
C896 C891 1.399 . S
C896 C895 1.394 . S
C896 C897 1.516 . S
C897 C896 1.516 . S
C897 C898 1.502 . S
C897 C899 1.561 . S
C897 C900 1.526 . S
C898 H882 0.959 . S
C898 H883 0.959 . S
C898 H884 0.961 . S
C898 C897 1.502 . S
C899 H885 0.960 . S
C899 H886 0.961 . S
C899 H887 0.959 . S
C899 C897 1.561 . S
C900 C897 1.526 . S
C900 C901 1.396 . S
C900 C905 1.390 . S
C901 C895 1.465 . S
C901 C900 1.396 . S
C901 C902 1.399 . S
C902 H888 0.929 . S
C902 C901 1.399 . S
C902 C903 1.385 . S
C903 H889 0.931 . S
C903 C902 1.385 . S
C903 C904 1.389 . S
C904 C903 1.389 . S
C904 C905 1.387 . S
C905 H890 0.930 . S
C905 C900 1.390 . S
C905 C904 1.387 . S
H906 C918 0.930 . S
H907 C920 0.930 . S
H908 C921 0.930 . S
H909 C925 0.959 . S
H910 C925 0.959 . S
H911 C925 0.961 . S
H912 C926 0.960 . S
H913 C926 0.961 . S
H914 C926 0.959 . S
H915 C929 0.929 . S
H916 C930 0.931 . S
H917 C932 0.930 . S
C918 H906 0.930 . S
C918 C919 1.399 . S
C918 C923 1.399 . S
C919 C918 1.399 . S
C919 C920 1.376 . S
C920 H907 0.930 . S
C920 C919 1.376 . S
C920 C921 1.388 . S
C921 H908 0.930 . S
C921 C920 1.388 . S
C921 C922 1.390 . S
C922 C921 1.390 . S
C922 C923 1.394 . S
C922 C928 1.465 . S
C923 C918 1.399 . S
C923 C922 1.394 . S
C923 C924 1.516 . S
C924 C923 1.516 . S
C924 C925 1.502 . S
C924 C926 1.561 1_565 S
C924 C927 1.526 1_565 S
C925 H909 0.959 . S
C925 H910 0.959 . S
C925 H911 0.961 . S
C925 C924 1.502 . S
C926 H912 0.960 . S
C926 H913 0.961 . S
C926 H914 0.959 . S
C926 C924 1.561 1_545 S
C927 C924 1.526 1_545 S
C927 C928 1.396 1_545 S
C927 C932 1.390 . S
C928 C922 1.465 . S
C928 C927 1.396 1_565 S
C928 C929 1.399 . S
C929 H915 0.929 . S
C929 C928 1.399 . S
C929 C930 1.385 1_565 S
C930 H916 0.931 . S
C930 C929 1.385 1_545 S
C930 C931 1.389 . S
C931 C930 1.389 . S
C931 C932 1.387 . S
C932 H917 0.930 . S
C932 C927 1.390 . S
C932 C931 1.387 . S
H933 C945 0.930 . S
H934 C947 0.930 . S
H935 C948 0.930 . S
H936 C952 0.959 . S
H937 C952 0.959 . S
H938 C952 0.961 . S
H939 C953 0.960 . S
H940 C953 0.961 . S
H941 C953 0.959 . S
H942 C956 0.929 . S
H943 C957 0.931 . S
H944 C959 0.930 . S
C945 H933 0.930 . S
C945 C946 1.399 . S
C945 C950 1.399 . S
C946 C945 1.399 . S
C946 C947 1.376 1_565 S
C947 H934 0.930 . S
C947 C946 1.376 1_545 S
C947 C948 1.388 . S
C948 H935 0.930 . S
C948 C947 1.388 . S
C948 C949 1.390 . S
C949 C948 1.390 . S
C949 C950 1.394 1_545 S
C949 C955 1.465 . S
C950 C945 1.399 . S
C950 C949 1.394 1_565 S
C950 C951 1.516 . S
C951 C950 1.516 . S
C951 C952 1.502 . S
C951 C953 1.561 . S
C951 C954 1.526 1_565 S
C952 H936 0.959 . S
C952 H937 0.959 . S
C952 H938 0.961 . S
C952 C951 1.502 . S
C953 H939 0.960 . S
C953 H940 0.961 . S
C953 H941 0.959 . S
C953 C951 1.561 . S
C954 C951 1.526 1_545 S
C954 C955 1.396 . S
C954 C959 1.390 . S
C955 C949 1.465 . S
C955 C954 1.396 . S
C955 C956 1.399 . S
C956 H942 0.929 . S
C956 C955 1.399 . S
C956 C957 1.385 . S
C957 H943 0.931 . S
C957 C956 1.385 . S
C957 C958 1.389 . S
C958 C957 1.389 . S
C958 C959 1.387 . S
C959 H944 0.930 . S
C959 C954 1.390 . S
C959 C958 1.387 . S
H960 C972 0.930 . S
H961 C974 0.930 . S
H962 C975 0.930 . S
H963 C979 0.959 . S
H964 C979 0.959 . S
H965 C979 0.961 . S
H966 C980 0.960 . S
H967 C980 0.961 . S
H968 C980 0.959 . S
H969 C983 0.929 . S
H970 C984 0.931 . S
H971 C986 0.930 . S
C972 H960 0.930 . S
C972 C973 1.399 . S
C972 C977 1.399 . S
C973 C972 1.399 . S
C973 C974 1.376 . S
C974 H961 0.930 . S
C974 C973 1.376 . S
C974 C975 1.388 . S
C975 H962 0.930 . S
C975 C974 1.388 . S
C975 C976 1.390 . S
C976 C975 1.390 . S
C976 C977 1.394 . S
C976 C982 1.465 . S
C977 C972 1.399 . S
C977 C976 1.394 . S
C977 C978 1.516 . S
C978 C977 1.516 . S
C978 C979 1.502 . S
C978 C980 1.561 . S
C978 C981 1.526 . S
C979 H963 0.959 . S
C979 H964 0.959 . S
C979 H965 0.961 . S
C979 C978 1.502 . S
C980 H966 0.960 . S
C980 H967 0.961 . S
C980 H968 0.959 . S
C980 C978 1.561 . S
C981 C978 1.526 . S
C981 C982 1.396 . S
C981 C986 1.390 . S
C982 C976 1.465 . S
C982 C981 1.396 . S
C982 C983 1.399 . S
C983 H969 0.929 . S
C983 C982 1.399 . S
C983 C984 1.385 . S
C984 H970 0.931 . S
C984 C983 1.385 . S
C984 C985 1.389 . S
C985 C984 1.389 . S
C985 C986 1.387 . S
C986 H971 0.930 . S
C986 C981 1.390 . S
C986 C985 1.387 . S
H987 C999 0.930 . S
H988 C1001 0.930 . S
H989 C1002 0.930 . S
H990 C1006 0.959 . S
H991 C1006 0.959 . S
H992 C1006 0.961 . S
H993 C1007 0.960 . S
H994 C1007 0.961 . S
H995 C1007 0.959 . S
H996 C1010 0.929 . S
H997 C1011 0.931 . S
H998 C1013 0.930 . S
C999 H987 0.930 . S
C999 C1000 1.399 1_554 S
C999 C1004 1.399 . S
C1000 C999 1.399 1_556 S
C1000 C1001 1.376 . S
C1001 H988 0.930 . S
C1001 C1000 1.376 . S
C1001 C1002 1.388 . S
C1002 H989 0.930 . S
C1002 C1001 1.388 . S
C1002 C1003 1.390 . S
C1003 C1002 1.390 . S
C1003 C1004 1.394 1_556 S
C1003 C1009 1.465 1_556 S
C1004 C999 1.399 . S
C1004 C1003 1.394 1_554 S
C1004 C1005 1.516 . S
C1005 C1004 1.516 . S
C1005 C1006 1.502 . S
C1005 C1007 1.561 . S
C1005 C1008 1.526 . S
C1006 H990 0.959 . S
C1006 H991 0.959 . S
C1006 H992 0.961 . S
C1006 C1005 1.502 . S
C1007 H993 0.960 . S
C1007 H994 0.961 . S
C1007 H995 0.959 . S
C1007 C1005 1.561 . S
C1008 C1005 1.526 . S
C1008 C1009 1.396 . S
C1008 C1013 1.390 . S
C1009 C1003 1.465 1_554 S
C1009 C1008 1.396 . S
C1009 C1010 1.399 1_554 S
C1010 H996 0.929 . S
C1010 C1009 1.399 1_556 S
C1010 C1011 1.385 1_556 S
C1011 H997 0.931 . S
C1011 C1010 1.385 1_554 S
C1011 C1012 1.389 . S
C1012 C1011 1.389 . S
C1012 C1013 1.387 . S
C1013 H998 0.930 . S
C1013 C1008 1.390 . S
C1013 C1012 1.387 . S
H1014 C1026 0.930 . S
H1015 C1028 0.930 . S
H1016 C1029 0.930 . S
H1017 C1033 0.959 . S
H1018 C1033 0.959 . S
H1019 C1033 0.961 . S
H1020 C1034 0.960 . S
H1021 C1034 0.961 . S
H1022 C1034 0.959 . S
H1023 C1037 0.929 . S
H1024 C1038 0.931 . S
H1025 C1040 0.930 . S
C1026 H1014 0.930 . S
C1026 C1027 1.399 . S
C1026 C1031 1.399 . S
C1027 C1026 1.399 . S
C1027 C1028 1.376 . S
C1028 H1015 0.930 . S
C1028 C1027 1.376 . S
C1028 C1029 1.388 . S
C1029 H1016 0.930 . S
C1029 C1028 1.388 . S
C1029 C1030 1.390 . S
C1030 C1029 1.390 . S
C1030 C1031 1.394 . S
C1030 C1036 1.465 . S
C1031 C1026 1.399 . S
C1031 C1030 1.394 . S
C1031 C1032 1.516 . S
C1032 C1031 1.516 . S
C1032 C1033 1.502 . S
C1032 C1034 1.561 . S
C1032 C1035 1.526 . S
C1033 H1017 0.959 . S
C1033 H1018 0.959 . S
C1033 H1019 0.961 . S
C1033 C1032 1.502 . S
C1034 H1020 0.960 . S
C1034 H1021 0.961 . S
C1034 H1022 0.959 . S
C1034 C1032 1.561 . S
C1035 C1032 1.526 . S
C1035 C1036 1.396 . S
C1035 C1040 1.390 . S
C1036 C1030 1.465 . S
C1036 C1035 1.396 . S
C1036 C1037 1.399 . S
C1037 H1023 0.929 . S
C1037 C1036 1.399 . S
C1037 C1038 1.385 . S
C1038 H1024 0.931 . S
C1038 C1037 1.385 . S
C1038 C1039 1.389 . S
C1039 C1038 1.389 . S
C1039 C1040 1.387 . S
C1040 H1025 0.930 . S
C1040 C1035 1.390 . S
C1040 C1039 1.387 . S
H1041 C1053 0.930 . S
H1042 C1055 0.930 . S
H1043 C1056 0.930 . S
H1044 C1060 0.959 . S
H1045 C1060 0.959 . S
H1046 C1060 0.961 . S
H1047 C1061 0.960 . S
H1048 C1061 0.961 . S
H1049 C1061 0.959 . S
H1050 C1064 0.929 . S
H1051 C1065 0.931 . S
H1052 C1067 0.930 . S
C1053 H1041 0.930 . S
C1053 C1054 1.399 . S
C1053 C1058 1.399 . S
C1054 C1053 1.399 . S
C1054 C1055 1.376 1_554 S
C1055 H1042 0.930 . S
C1055 C1054 1.376 1_556 S
C1055 C1056 1.388 . S
C1056 H1043 0.930 . S
C1056 C1055 1.388 . S
C1056 C1057 1.390 . S
C1057 C1056 1.390 . S
C1057 C1058 1.394 1_556 S
C1057 C1063 1.465 . S
C1058 C1053 1.399 . S
C1058 C1057 1.394 1_554 S
C1058 C1059 1.516 . S
C1059 C1058 1.516 . S
C1059 C1060 1.502 . S
C1059 C1061 1.561 . S
C1059 C1062 1.526 1_554 S
C1060 H1044 0.959 . S
C1060 H1045 0.959 . S
C1060 H1046 0.961 . S
C1060 C1059 1.502 . S
C1061 H1047 0.960 . S
C1061 H1048 0.961 . S
C1061 H1049 0.959 . S
C1061 C1059 1.561 . S
C1062 C1059 1.526 1_556 S
C1062 C1063 1.396 . S
C1062 C1067 1.390 . S
C1063 C1057 1.465 . S
C1063 C1062 1.396 . S
C1063 C1064 1.399 . S
C1064 H1050 0.929 . S
C1064 C1063 1.399 . S
C1064 C1065 1.385 . S
C1065 H1051 0.931 . S
C1065 C1064 1.385 . S
C1065 C1066 1.389 . S
C1066 C1065 1.389 . S
C1066 C1067 1.387 . S
C1067 H1052 0.930 . S
C1067 C1062 1.390 . S
C1067 C1066 1.387 . S
H1068 C1080 0.930 . S
H1069 C1082 0.930 . S
H1070 C1083 0.930 . S
H1071 C1087 0.959 . S
H1072 C1087 0.959 . S
H1073 C1087 0.961 . S
H1074 C1088 0.960 . S
H1075 C1088 0.961 . S
H1076 C1088 0.959 . S
H1077 C1091 0.929 . S
H1078 C1092 0.931 . S
H1079 C1094 0.930 . S
C1080 H1068 0.930 . S
C1080 C1081 1.399 . S
C1080 C1085 1.399 . S
C1081 C1080 1.399 . S
C1081 C1082 1.376 . S
C1082 H1069 0.930 . S
C1082 C1081 1.376 . S
C1082 C1083 1.388 . S
C1083 H1070 0.930 . S
C1083 C1082 1.388 . S
C1083 C1084 1.390 . S
C1084 C1083 1.390 . S
C1084 C1085 1.394 . S
C1084 C1090 1.465 . S
C1085 C1080 1.399 . S
C1085 C1084 1.394 . S
C1085 C1086 1.516 . S
C1086 C1085 1.516 . S
C1086 C1087 1.502 . S
C1086 C1088 1.561 . S
C1086 C1089 1.526 . S
C1087 H1071 0.959 . S
C1087 H1072 0.959 . S
C1087 H1073 0.961 . S
C1087 C1086 1.502 . S
C1088 H1074 0.960 . S
C1088 H1075 0.961 . S
C1088 H1076 0.959 . S
C1088 C1086 1.561 . S
C1089 C1086 1.526 . S
C1089 C1090 1.396 . S
C1089 C1094 1.390 . S
C1090 C1084 1.465 . S
C1090 C1089 1.396 . S
C1090 C1091 1.399 . S
C1091 H1077 0.929 . S
C1091 C1090 1.399 . S
C1091 C1092 1.385 . S
C1092 H1078 0.931 . S
C1092 C1091 1.385 . S
C1092 C1093 1.389 . S
C1093 C1092 1.389 . S
C1093 C1094 1.387 . S
C1094 H1079 0.930 . S
C1094 C1089 1.390 . S
C1094 C1093 1.387 . S
H1095 C1107 0.930 . S
H1096 C1109 0.930 . S
H1097 C1110 0.930 . S
H1098 C1114 0.959 1_455 S
H1099 C1114 0.959 . S
H1100 C1114 0.961 . S
H1101 C1115 0.960 . S
H1102 C1115 0.961 . S
H1103 C1115 0.959 . S
H1104 C1118 0.929 . S
H1105 C1119 0.931 . S
H1106 C1121 0.930 . S
C1107 H1095 0.930 . S
C1107 C1108 1.399 . S
C1107 C1112 1.399 . S
C1108 C1107 1.399 . S
C1108 C1109 1.376 1_655 S
C1109 H1096 0.930 . S
C1109 C1108 1.376 1_455 S
C1109 C1110 1.388 . S
C1110 H1097 0.930 . S
C1110 C1109 1.388 . S
C1110 C1111 1.390 . S
C1111 C1110 1.390 . S
C1111 C1112 1.394 1_455 S
C1111 C1117 1.465 . S
C1112 C1107 1.399 . S
C1112 C1111 1.394 1_655 S
C1112 C1113 1.516 . S
C1113 C1112 1.516 . S
C1113 C1114 1.502 . S
C1113 C1115 1.561 . S
C1113 C1116 1.526 1_655 S
C1114 H1098 0.959 1_655 S
C1114 H1099 0.959 . S
C1114 H1100 0.961 . S
C1114 C1113 1.502 . S
C1115 H1101 0.960 . S
C1115 H1102 0.961 . S
C1115 H1103 0.959 . S
C1115 C1113 1.561 . S
C1116 C1113 1.526 1_455 S
C1116 C1117 1.396 . S
C1116 C1121 1.390 . S
C1117 C1111 1.465 . S
C1117 C1116 1.396 . S
C1117 C1118 1.399 . S
C1118 H1104 0.929 . S
C1118 C1117 1.399 . S
C1118 C1119 1.385 . S
C1119 H1105 0.931 . S
C1119 C1118 1.385 . S
C1119 C1120 1.389 . S
C1120 C1119 1.389 . S
C1120 C1121 1.387 . S
C1121 H1106 0.930 . S
C1121 C1116 1.390 . S
C1121 C1120 1.387 . S
H1122 C1134 0.930 . S
H1123 C1136 0.930 . S
H1124 C1137 0.930 . S
H1125 C1141 0.959 . S
H1126 C1141 0.959 . S
H1127 C1141 0.961 . S
H1128 C1142 0.960 . S
H1129 C1142 0.961 . S
H1130 C1142 0.959 . S
H1131 C1145 0.929 . S
H1132 C1146 0.931 . S
H1133 C1148 0.930 . S
C1134 H1122 0.930 . S
C1134 C1135 1.399 . S
C1134 C1139 1.399 . S
C1135 C1134 1.399 . S
C1135 C1136 1.376 . S
C1136 H1123 0.930 . S
C1136 C1135 1.376 . S
C1136 C1137 1.388 . S
C1137 H1124 0.930 . S
C1137 C1136 1.388 . S
C1137 C1138 1.390 . S
C1138 C1137 1.390 . S
C1138 C1139 1.394 . S
C1138 C1144 1.465 . S
C1139 C1134 1.399 . S
C1139 C1138 1.394 . S
C1139 C1140 1.516 . S
C1140 C1139 1.516 . S
C1140 C1141 1.502 . S
C1140 C1142 1.561 . S
C1140 C1143 1.526 . S
C1141 H1125 0.959 . S
C1141 H1126 0.959 . S
C1141 H1127 0.961 . S
C1141 C1140 1.502 . S
C1142 H1128 0.960 . S
C1142 H1129 0.961 . S
C1142 H1130 0.959 . S
C1142 C1140 1.561 . S
C1143 C1140 1.526 . S
C1143 C1144 1.396 . S
C1143 C1148 1.390 . S
C1144 C1138 1.465 . S
C1144 C1143 1.396 . S
C1144 C1145 1.399 . S
C1145 H1131 0.929 . S
C1145 C1144 1.399 . S
C1145 C1146 1.385 . S
C1146 H1132 0.931 . S
C1146 C1145 1.385 . S
C1146 C1147 1.389 . S
C1147 C1146 1.389 . S
C1147 C1148 1.387 . S
C1148 H1133 0.930 . S
C1148 C1143 1.390 . S
C1148 C1147 1.387 . S
H1149 C1161 0.930 . S
H1150 C1163 0.930 . S
H1151 C1164 0.930 1_455 S
H1152 C1168 0.959 . S
H1153 C1168 0.959 . S
H1154 C1168 0.961 . S
H1155 C1169 0.960 . S
H1156 C1169 0.961 . S
H1157 C1169 0.959 1_455 S
H1158 C1172 0.929 . S
H1159 C1173 0.931 . S
H1160 C1175 0.930 . S
C1161 H1149 0.930 . S
C1161 C1162 1.399 . S
C1161 C1166 1.399 . S
C1162 C1161 1.399 . S
C1162 C1163 1.376 . S
C1163 H1150 0.930 . S
C1163 C1162 1.376 . S
C1163 C1164 1.388 . S
C1164 H1151 0.930 1_655 S
C1164 C1163 1.388 . S
C1164 C1165 1.390 . S
C1165 C1164 1.390 . S
C1165 C1166 1.394 . S
C1165 C1171 1.465 1_655 S
C1166 C1161 1.399 . S
C1166 C1165 1.394 . S
C1166 C1167 1.516 . S
C1167 C1166 1.516 . S
C1167 C1168 1.502 . S
C1167 C1169 1.561 . S
C1167 C1170 1.526 . S
C1168 H1152 0.959 . S
C1168 H1153 0.959 . S
C1168 H1154 0.961 . S
C1168 C1167 1.502 . S
C1169 H1155 0.960 . S
C1169 H1156 0.961 . S
C1169 H1157 0.959 1_655 S
C1169 C1167 1.561 . S
C1170 C1167 1.526 . S
C1170 C1171 1.396 1_655 S
C1170 C1175 1.390 . S
C1171 C1165 1.465 1_455 S
C1171 C1170 1.396 1_455 S
C1171 C1172 1.399 . S
C1172 H1158 0.929 . S
C1172 C1171 1.399 . S
C1172 C1173 1.385 . S
C1173 H1159 0.931 . S
C1173 C1172 1.385 . S
C1173 C1174 1.389 . S
C1174 C1173 1.389 . S
C1174 C1175 1.387 1_455 S
C1175 H1160 0.930 . S
C1175 C1170 1.390 . S
C1175 C1174 1.387 1_655 S
H1176 C1188 0.930 . S
H1177 C1190 0.930 . S
H1178 C1191 0.930 . S
H1179 C1195 0.959 . S
H1180 C1195 0.959 . S
H1181 C1195 0.961 . S
H1182 C1196 0.960 . S
H1183 C1196 0.961 . S
H1184 C1196 0.959 . S
H1185 C1199 0.929 . S
H1186 C1200 0.931 . S
H1187 C1202 0.930 . S
C1188 H1176 0.930 . S
C1188 C1189 1.399 . S
C1188 C1193 1.399 . S
C1189 C1188 1.399 . S
C1189 C1190 1.376 . S
C1190 H1177 0.930 . S
C1190 C1189 1.376 . S
C1190 C1191 1.388 . S
C1191 H1178 0.930 . S
C1191 C1190 1.388 . S
C1191 C1192 1.390 . S
C1192 C1191 1.390 . S
C1192 C1193 1.394 . S
C1192 C1198 1.465 . S
C1193 C1188 1.399 . S
C1193 C1192 1.394 . S
C1193 C1194 1.516 . S
C1194 C1193 1.516 . S
C1194 C1195 1.502 . S
C1194 C1196 1.561 . S
C1194 C1197 1.526 . S
C1195 H1179 0.959 . S
C1195 H1180 0.959 . S
C1195 H1181 0.961 . S
C1195 C1194 1.502 . S
C1196 H1182 0.960 . S
C1196 H1183 0.961 . S
C1196 H1184 0.959 . S
C1196 C1194 1.561 . S
C1197 C1194 1.526 . S
C1197 C1198 1.396 . S
C1197 C1202 1.390 . S
C1198 C1192 1.465 . S
C1198 C1197 1.396 . S
C1198 C1199 1.399 . S
C1199 H1185 0.929 . S
C1199 C1198 1.399 . S
C1199 C1200 1.385 . S
C1200 H1186 0.931 . S
C1200 C1199 1.385 . S
C1200 C1201 1.389 . S
C1201 C1200 1.389 . S
C1201 C1202 1.387 . S
C1202 H1187 0.930 . S
C1202 C1197 1.390 . S
C1202 C1201 1.387 . S
H1203 C1215 0.930 . S
H1204 C1217 0.930 . S
H1205 C1218 0.930 . S
H1206 C1222 0.959 . S
H1207 C1222 0.959 . S
H1208 C1222 0.961 . S
H1209 C1223 0.960 . S
H1210 C1223 0.961 . S
H1211 C1223 0.959 . S
H1212 C1226 0.929 . S
H1213 C1227 0.931 . S
H1214 C1229 0.930 . S
C1215 H1203 0.930 . S
C1215 C1216 1.399 . S
C1215 C1220 1.399 . S
C1216 C1215 1.399 . S
C1216 C1217 1.376 . S
C1217 H1204 0.930 . S
C1217 C1216 1.376 . S
C1217 C1218 1.388 . S
C1218 H1205 0.930 . S
C1218 C1217 1.388 . S
C1218 C1219 1.390 . S
C1219 C1218 1.390 . S
C1219 C1220 1.394 . S
C1219 C1225 1.465 . S
C1220 C1215 1.399 . S
C1220 C1219 1.394 . S
C1220 C1221 1.516 . S
C1221 C1220 1.516 . S
C1221 C1222 1.502 . S
C1221 C1223 1.561 . S
C1221 C1224 1.526 . S
C1222 H1206 0.959 . S
C1222 H1207 0.959 . S
C1222 H1208 0.961 . S
C1222 C1221 1.502 . S
C1223 H1209 0.960 . S
C1223 H1210 0.961 . S
C1223 H1211 0.959 . S
C1223 C1221 1.561 . S
C1224 C1221 1.526 . S
C1224 C1225 1.396 . S
C1224 C1229 1.390 . S
C1225 C1219 1.465 . S
C1225 C1224 1.396 . S
C1225 C1226 1.399 . S
C1226 H1212 0.929 . S
C1226 C1225 1.399 . S
C1226 C1227 1.385 . S
C1227 H1213 0.931 . S
C1227 C1226 1.385 . S
C1227 C1228 1.389 . S
C1228 C1227 1.389 . S
C1228 C1229 1.387 . S
C1229 H1214 0.930 . S
C1229 C1224 1.390 . S
C1229 C1228 1.387 . S
H1230 C1242 0.930 . S
H1231 C1244 0.930 . S
H1232 C1245 0.930 . S
H1233 C1249 0.959 . S
H1234 C1249 0.959 1_565 S
H1235 C1249 0.961 1_565 S
H1236 C1250 0.960 1_565 S
H1237 C1250 0.961 1_565 S
H1238 C1250 0.959 . S
H1239 C1253 0.929 . S
H1240 C1254 0.931 . S
H1241 C1256 0.930 . S
C1242 H1230 0.930 . S
C1242 C1243 1.399 . S
C1242 C1247 1.399 . S
C1243 C1242 1.399 . S
C1243 C1244 1.376 . S
C1244 H1231 0.930 . S
C1244 C1243 1.376 . S
C1244 C1245 1.388 . S
C1245 H1232 0.930 . S
C1245 C1244 1.388 . S
C1245 C1246 1.390 . S
C1246 C1245 1.390 . S
C1246 C1247 1.394 . S
C1246 C1252 1.465 . S
C1247 C1242 1.399 . S
C1247 C1246 1.394 . S
C1247 C1248 1.516 . S
C1248 C1247 1.516 . S
C1248 C1249 1.502 . S
C1248 C1250 1.561 . S
C1248 C1251 1.526 . S
C1249 H1233 0.959 . S
C1249 H1234 0.959 1_545 S
C1249 H1235 0.961 1_545 S
C1249 C1248 1.502 . S
C1250 H1236 0.960 1_545 S
C1250 H1237 0.961 1_545 S
C1250 H1238 0.959 . S
C1250 C1248 1.561 . S
C1251 C1248 1.526 . S
C1251 C1252 1.396 . S
C1251 C1256 1.390 . S
C1252 C1246 1.465 . S
C1252 C1251 1.396 . S
C1252 C1253 1.399 . S
C1253 H1239 0.929 . S
C1253 C1252 1.399 . S
C1253 C1254 1.385 . S
C1254 H1240 0.931 . S
C1254 C1253 1.385 . S
C1254 C1255 1.389 . S
C1255 C1254 1.389 . S
C1255 C1256 1.387 . S
C1256 H1241 0.930 . S
C1256 C1251 1.390 . S
C1256 C1255 1.387 . S
H1257 C1269 0.930 . S
H1258 C1271 0.930 . S
H1259 C1272 0.930 . S
H1260 C1276 0.959 . S
H1261 C1276 0.959 . S
H1262 C1276 0.961 . S
H1263 C1277 0.960 . S
H1264 C1277 0.961 . S
H1265 C1277 0.959 . S
H1266 C1280 0.929 . S
H1267 C1281 0.931 . S
H1268 C1283 0.930 . S
C1269 H1257 0.930 . S
C1269 C1270 1.399 . S
C1269 C1274 1.399 . S
C1270 C1269 1.399 . S
C1270 C1271 1.376 . S
C1271 H1258 0.930 . S
C1271 C1270 1.376 . S
C1271 C1272 1.388 . S
C1272 H1259 0.930 . S
C1272 C1271 1.388 . S
C1272 C1273 1.390 . S
C1273 C1272 1.390 . S
C1273 C1274 1.394 . S
C1273 C1279 1.465 . S
C1274 C1269 1.399 . S
C1274 C1273 1.394 . S
C1274 C1275 1.516 . S
C1275 C1274 1.516 . S
C1275 C1276 1.502 . S
C1275 C1277 1.561 . S
C1275 C1278 1.526 . S
C1276 H1260 0.959 . S
C1276 H1261 0.959 . S
C1276 H1262 0.961 . S
C1276 C1275 1.502 . S
C1277 H1263 0.960 . S
C1277 H1264 0.961 . S
C1277 H1265 0.959 . S
C1277 C1275 1.561 . S
C1278 C1275 1.526 . S
C1278 C1279 1.396 . S
C1278 C1283 1.390 . S
C1279 C1273 1.465 . S
C1279 C1278 1.396 . S
C1279 C1280 1.399 . S
C1280 H1266 0.929 . S
C1280 C1279 1.399 . S
C1280 C1281 1.385 . S
C1281 H1267 0.931 . S
C1281 C1280 1.385 . S
C1281 C1282 1.389 . S
C1282 C1281 1.389 . S
C1282 C1283 1.387 . S
C1283 H1268 0.930 . S
C1283 C1278 1.390 . S
C1283 C1282 1.387 . S
H1284 C1296 0.930 . S
H1285 C1298 0.930 . S
H1286 C1299 0.930 . S
H1287 C1303 0.959 . S
H1288 C1303 0.959 . S
H1289 C1303 0.961 . S
H1290 C1304 0.960 . S
H1291 C1304 0.961 . S
H1292 C1304 0.959 . S
H1293 C1307 0.929 . S
H1294 C1308 0.931 . S
H1295 C1310 0.930 . S
C1296 H1284 0.930 . S
C1296 C1297 1.399 . S
C1296 C1301 1.399 . S
C1297 C1296 1.399 . S
C1297 C1298 1.376 . S
C1298 H1285 0.930 . S
C1298 C1297 1.376 . S
C1298 C1299 1.388 . S
C1299 H1286 0.930 . S
C1299 C1298 1.388 . S
C1299 C1300 1.390 . S
C1300 C1299 1.390 . S
C1300 C1301 1.394 . S
C1300 C1306 1.465 . S
C1301 C1296 1.399 . S
C1301 C1300 1.394 . S
C1301 C1302 1.516 . S
C1302 C1301 1.516 . S
C1302 C1303 1.502 . S
C1302 C1304 1.561 . S
C1302 C1305 1.526 . S
C1303 H1287 0.959 . S
C1303 H1288 0.959 . S
C1303 H1289 0.961 . S
C1303 C1302 1.502 . S
C1304 H1290 0.960 . S
C1304 H1291 0.961 . S
C1304 H1292 0.959 . S
C1304 C1302 1.561 . S
C1305 C1302 1.526 . S
C1305 C1306 1.396 . S
C1305 C1310 1.390 . S
C1306 C1300 1.465 . S
C1306 C1305 1.396 . S
C1306 C1307 1.399 . S
C1307 H1293 0.929 . S
C1307 C1306 1.399 . S
C1307 C1308 1.385 . S
C1308 H1294 0.931 . S
C1308 C1307 1.385 . S
C1308 C1309 1.389 . S
C1309 C1308 1.389 . S
C1309 C1310 1.387 . S
C1310 H1295 0.930 . S
C1310 C1305 1.390 . S
C1310 C1309 1.387 . S
H1311 C1323 0.930 . S
H1312 C1325 0.930 . S
H1313 C1326 0.930 . S
H1314 C1330 0.959 . S
H1315 C1330 0.959 . S
H1316 C1330 0.961 . S
H1317 C1331 0.960 . S
H1318 C1331 0.961 . S
H1319 C1331 0.959 . S
H1320 C1334 0.929 . S
H1321 C1335 0.931 . S
H1322 C1337 0.930 . S
C1323 H1311 0.930 . S
C1323 C1324 1.399 . S
C1323 C1328 1.399 . S
C1324 C1323 1.399 . S
C1324 C1325 1.376 . S
C1325 H1312 0.930 . S
C1325 C1324 1.376 . S
C1325 C1326 1.388 . S
C1326 H1313 0.930 . S
C1326 C1325 1.388 . S
C1326 C1327 1.390 . S
C1327 C1326 1.390 . S
C1327 C1328 1.394 . S
C1327 C1333 1.465 . S
C1328 C1323 1.399 . S
C1328 C1327 1.394 . S
C1328 C1329 1.516 . S
C1329 C1328 1.516 . S
C1329 C1330 1.502 . S
C1329 C1331 1.561 . S
C1329 C1332 1.526 . S
C1330 H1314 0.959 . S
C1330 H1315 0.959 . S
C1330 H1316 0.961 . S
C1330 C1329 1.502 . S
C1331 H1317 0.960 . S
C1331 H1318 0.961 . S
C1331 H1319 0.959 . S
C1331 C1329 1.561 . S
C1332 C1329 1.526 . S
C1332 C1333 1.396 . S
C1332 C1337 1.390 . S
C1333 C1327 1.465 . S
C1333 C1332 1.396 . S
C1333 C1334 1.399 . S
C1334 H1320 0.929 . S
C1334 C1333 1.399 . S
C1334 C1335 1.385 . S
C1335 H1321 0.931 . S
C1335 C1334 1.385 . S
C1335 C1336 1.389 . S
C1336 C1335 1.389 . S
C1336 C1337 1.387 . S
C1337 H1322 0.930 . S
C1337 C1332 1.390 . S
C1337 C1336 1.387 . S
H1338 C1350 0.930 . S
H1339 C1352 0.930 . S
H1340 C1353 0.930 . S
H1341 C1357 0.959 . S
H1342 C1357 0.959 . S
H1343 C1357 0.961 . S
H1344 C1358 0.960 . S
H1345 C1358 0.961 . S
H1346 C1358 0.959 . S
H1347 C1361 0.929 . S
H1348 C1362 0.931 . S
H1349 C1364 0.930 . S
C1350 H1338 0.930 . S
C1350 C1351 1.399 . S
C1350 C1355 1.399 . S
C1351 C1350 1.399 . S
C1351 C1352 1.376 . S
C1352 H1339 0.930 . S
C1352 C1351 1.376 . S
C1352 C1353 1.388 . S
C1353 H1340 0.930 . S
C1353 C1352 1.388 . S
C1353 C1354 1.390 . S
C1354 C1353 1.390 . S
C1354 C1355 1.394 . S
C1354 C1360 1.465 . S
C1355 C1350 1.399 . S
C1355 C1354 1.394 . S
C1355 C1356 1.516 . S
C1356 C1355 1.516 . S
C1356 C1357 1.502 . S
C1356 C1358 1.561 . S
C1356 C1359 1.526 . S
C1357 H1341 0.959 . S
C1357 H1342 0.959 . S
C1357 H1343 0.961 . S
C1357 C1356 1.502 . S
C1358 H1344 0.960 . S
C1358 H1345 0.961 . S
C1358 H1346 0.959 . S
C1358 C1356 1.561 . S
C1359 C1356 1.526 . S
C1359 C1360 1.396 . S
C1359 C1364 1.390 . S
C1360 C1354 1.465 . S
C1360 C1359 1.396 . S
C1360 C1361 1.399 . S
C1361 H1347 0.929 . S
C1361 C1360 1.399 . S
C1361 C1362 1.385 . S
C1362 H1348 0.931 . S
C1362 C1361 1.385 . S
C1362 C1363 1.389 . S
C1363 C1362 1.389 . S
C1363 C1364 1.387 . S
C1364 H1349 0.930 . S
C1364 C1359 1.390 . S
C1364 C1363 1.387 . S
H1365 C1377 0.930 . S
H1366 C1379 0.930 . S
H1367 C1380 0.930 . S
H1368 C1384 0.959 . S
H1369 C1384 0.959 . S
H1370 C1384 0.961 . S
H1371 C1385 0.960 . S
H1372 C1385 0.961 . S
H1373 C1385 0.959 . S
H1374 C1388 0.929 . S
H1375 C1389 0.931 . S
H1376 C1391 0.930 . S
C1377 H1365 0.930 . S
C1377 C1378 1.399 . S
C1377 C1382 1.399 . S
C1378 C1377 1.399 . S
C1378 C1379 1.376 . S
C1379 H1366 0.930 . S
C1379 C1378 1.376 . S
C1379 C1380 1.388 . S
C1380 H1367 0.930 . S
C1380 C1379 1.388 . S
C1380 C1381 1.390 . S
C1381 C1380 1.390 . S
C1381 C1382 1.394 . S
C1381 C1387 1.465 . S
C1382 C1377 1.399 . S
C1382 C1381 1.394 . S
C1382 C1383 1.516 . S
C1383 C1382 1.516 . S
C1383 C1384 1.502 . S
C1383 C1385 1.561 . S
C1383 C1386 1.526 . S
C1384 H1368 0.959 . S
C1384 H1369 0.959 . S
C1384 H1370 0.961 . S
C1384 C1383 1.502 . S
C1385 H1371 0.960 . S
C1385 H1372 0.961 . S
C1385 H1373 0.959 . S
C1385 C1383 1.561 . S
C1386 C1383 1.526 . S
C1386 C1387 1.396 . S
C1386 C1391 1.390 . S
C1387 C1381 1.465 . S
C1387 C1386 1.396 . S
C1387 C1388 1.399 . S
C1388 H1374 0.929 . S
C1388 C1387 1.399 . S
C1388 C1389 1.385 . S
C1389 H1375 0.931 . S
C1389 C1388 1.385 . S
C1389 C1390 1.389 . S
C1390 C1389 1.389 . S
C1390 C1391 1.387 . S
C1391 H1376 0.930 . S
C1391 C1386 1.390 . S
C1391 C1390 1.387 . S
H1392 C1404 0.930 . S
H1393 C1406 0.930 . S
H1394 C1407 0.930 . S
H1395 C1411 0.959 . S
H1396 C1411 0.959 . S
H1397 C1411 0.961 . S
H1398 C1412 0.960 . S
H1399 C1412 0.961 . S
H1400 C1412 0.959 . S
H1401 C1415 0.929 . S
H1402 C1416 0.931 . S
H1403 C1418 0.930 . S
C1404 H1392 0.930 . S
C1404 C1405 1.399 . S
C1404 C1409 1.399 . S
C1405 C1404 1.399 . S
C1405 C1406 1.376 . S
C1406 H1393 0.930 . S
C1406 C1405 1.376 . S
C1406 C1407 1.388 . S
C1407 H1394 0.930 . S
C1407 C1406 1.388 . S
C1407 C1408 1.390 . S
C1408 C1407 1.390 . S
C1408 C1409 1.394 . S
C1408 C1414 1.465 . S
C1409 C1404 1.399 . S
C1409 C1408 1.394 . S
C1409 C1410 1.516 . S
C1410 C1409 1.516 . S
C1410 C1411 1.502 . S
C1410 C1412 1.561 . S
C1410 C1413 1.526 . S
C1411 H1395 0.959 . S
C1411 H1396 0.959 . S
C1411 H1397 0.961 . S
C1411 C1410 1.502 . S
C1412 H1398 0.960 . S
C1412 H1399 0.961 . S
C1412 H1400 0.959 . S
C1412 C1410 1.561 . S
C1413 C1410 1.526 . S
C1413 C1414 1.396 . S
C1413 C1418 1.390 . S
C1414 C1408 1.465 . S
C1414 C1413 1.396 . S
C1414 C1415 1.399 . S
C1415 H1401 0.929 . S
C1415 C1414 1.399 . S
C1415 C1416 1.385 . S
C1416 H1402 0.931 . S
C1416 C1415 1.385 . S
C1416 C1417 1.389 . S
C1417 C1416 1.389 . S
C1417 C1418 1.387 . S
C1418 H1403 0.930 . S
C1418 C1413 1.390 . S
C1418 C1417 1.387 . S
H1419 C1431 0.930 . S
H1420 C1433 0.930 . S
H1421 C1434 0.930 . S
H1422 C1438 0.959 . S
H1423 C1438 0.959 . S
H1424 C1438 0.976 . S
H1425 C1439 0.960 . S
H1426 C1439 0.961 . S
H1427 C1439 0.959 . S
H1428 C1442 0.929 . S
H1429 C1443 0.931 . S
H1430 C1445 0.930 . S
C1431 H1419 0.930 . S
C1431 C1432 1.399 . S
C1431 C1436 1.399 . S
C1432 C1431 1.399 . S
C1432 C1433 1.376 . S
C1433 H1420 0.930 . S
C1433 C1432 1.376 . S
C1433 C1434 1.388 . S
C1434 H1421 0.930 . S
C1434 C1433 1.388 . S
C1434 C1435 1.390 . S
C1435 C1434 1.390 . S
C1435 C1436 1.394 . S
C1435 C1441 1.465 . S
C1436 C1431 1.399 . S
C1436 C1435 1.394 . S
C1436 C1437 1.516 . S
C1437 C1436 1.516 . S
C1437 C1438 1.502 . S
C1437 C1439 1.561 . S
C1437 C1440 1.526 . S
C1438 H1422 0.959 . S
C1438 H1423 0.959 . S
C1438 H1424 0.976 . S
C1438 C1437 1.502 . S
C1439 H1425 0.960 . S
C1439 H1426 0.961 . S
C1439 H1427 0.959 . S
C1439 C1437 1.561 . S
C1440 C1437 1.526 . S
C1440 C1441 1.396 . S
C1440 C1445 1.390 . S
C1441 C1435 1.465 . S
C1441 C1440 1.396 . S
C1441 C1442 1.399 . S
C1442 H1428 0.929 . S
C1442 C1441 1.399 . S
C1442 C1443 1.385 . S
C1443 H1429 0.931 . S
C1443 C1442 1.385 . S
C1443 C1444 1.389 . S
C1444 C1443 1.389 . S
C1444 C1445 1.387 . S
C1445 H1430 0.930 . S
C1445 C1440 1.390 . S
C1445 C1444 1.387 . S
H1446 C1458 0.930 . S
H1447 C1460 0.930 . S
H1448 C1461 0.930 . S
H1449 C1465 0.959 . S
H1450 C1465 0.959 . S
H1451 C1465 0.961 . S
H1452 C1466 0.960 . S
H1453 C1466 0.961 . S
H1454 C1466 0.959 . S
H1455 C1469 0.929 . S
H1456 C1470 0.931 . S
H1457 C1472 0.930 . S
C1458 H1446 0.930 . S
C1458 C1459 1.399 . S
C1458 C1463 1.399 . S
C1459 C1458 1.399 . S
C1459 C1460 1.376 . S
C1460 H1447 0.930 . S
C1460 C1459 1.376 . S
C1460 C1461 1.388 . S
C1461 H1448 0.930 . S
C1461 C1460 1.388 . S
C1461 C1462 1.390 . S
C1462 C1461 1.390 . S
C1462 C1463 1.394 . S
C1462 C1468 1.465 . S
C1463 C1458 1.399 . S
C1463 C1462 1.394 . S
C1463 C1464 1.516 . S
C1464 C1463 1.516 . S
C1464 C1465 1.502 . S
C1464 C1466 1.561 . S
C1464 C1467 1.526 . S
C1465 H1449 0.959 . S
C1465 H1450 0.959 . S
C1465 H1451 0.961 . S
C1465 C1464 1.502 . S
C1466 H1452 0.960 . S
C1466 H1453 0.961 . S
C1466 H1454 0.959 . S
C1466 C1464 1.561 . S
C1467 C1464 1.526 . S
C1467 C1468 1.396 . S
C1467 C1472 1.390 . S
C1468 C1462 1.465 . S
C1468 C1467 1.396 . S
C1468 C1469 1.399 . S
C1469 H1455 0.929 . S
C1469 C1468 1.399 . S
C1469 C1470 1.385 . S
C1470 H1456 0.931 . S
C1470 C1469 1.385 . S
C1470 C1471 1.389 . S
C1471 C1470 1.389 . S
C1471 C1472 1.387 . S
C1472 H1457 0.930 . S
C1472 C1467 1.390 . S
C1472 C1471 1.387 . S
H1473 C1485 0.930 . S
H1474 C1487 0.930 . S
H1475 C1488 0.930 . S
H1476 C1492 0.959 . S
H1477 C1492 0.959 . S
H1478 C1492 0.961 . S
H1479 C1493 0.960 . S
H1480 C1493 0.961 . S
H1481 C1493 0.959 . S
H1482 C1496 0.929 . S
H1483 C1497 0.931 . S
H1484 C1499 0.930 . S
C1485 H1473 0.930 . S
C1485 C1486 1.399 . S
C1485 C1490 1.399 . S
C1486 C1485 1.399 . S
C1486 C1487 1.376 . S
C1487 H1474 0.930 . S
C1487 C1486 1.376 . S
C1487 C1488 1.388 . S
C1488 H1475 0.930 . S
C1488 C1487 1.388 . S
C1488 C1489 1.390 . S
C1489 C1488 1.390 . S
C1489 C1490 1.394 . S
C1489 C1495 1.465 . S
C1490 C1485 1.399 . S
C1490 C1489 1.394 . S
C1490 C1491 1.516 . S
C1491 C1490 1.516 . S
C1491 C1492 1.502 . S
C1491 C1493 1.561 . S
C1491 C1494 1.526 . S
C1492 H1476 0.959 . S
C1492 H1477 0.959 . S
C1492 H1478 0.961 . S
C1492 C1491 1.502 . S
C1493 H1479 0.960 . S
C1493 H1480 0.961 . S
C1493 H1481 0.959 . S
C1493 C1491 1.561 . S
C1494 C1491 1.526 . S
C1494 C1495 1.396 . S
C1494 C1499 1.390 . S
C1495 C1489 1.465 . S
C1495 C1494 1.396 . S
C1495 C1496 1.399 . S
C1496 H1482 0.929 . S
C1496 C1495 1.399 . S
C1496 C1497 1.385 . S
C1497 H1483 0.931 . S
C1497 C1496 1.385 . S
C1497 C1498 1.389 . S
C1498 C1497 1.389 . S
C1498 C1499 1.387 . S
C1499 H1484 0.930 . S
C1499 C1494 1.390 . S
C1499 C1498 1.387 . S
H1500 C1512 0.930 . S
H1501 C1514 0.930 . S
H1502 C1515 0.930 . S
H1503 C1519 0.959 . S
H1504 C1519 0.959 . S
H1505 C1519 0.961 . S
H1506 C1520 0.960 . S
H1507 C1520 0.961 . S
H1508 C1520 0.959 . S
H1509 C1523 0.929 . S
H1510 C1524 0.931 . S
H1511 C1526 0.930 . S
C1512 H1500 0.930 . S
C1512 C1513 1.399 . S
C1512 C1517 1.399 . S
C1513 C1512 1.399 . S
C1513 C1514 1.376 . S
C1514 H1501 0.930 . S
C1514 C1513 1.376 . S
C1514 C1515 1.388 . S
C1515 H1502 0.930 . S
C1515 C1514 1.388 . S
C1515 C1516 1.390 . S
C1516 C1515 1.390 . S
C1516 C1517 1.394 . S
C1516 C1522 1.465 . S
C1517 C1512 1.399 . S
C1517 C1516 1.394 . S
C1517 C1518 1.516 . S
C1518 C1517 1.516 . S
C1518 C1519 1.502 . S
C1518 C1520 1.561 . S
C1518 C1521 1.526 . S
C1519 H1503 0.959 . S
C1519 H1504 0.959 . S
C1519 H1505 0.961 . S
C1519 C1518 1.502 . S
C1520 H1506 0.960 . S
C1520 H1507 0.961 . S
C1520 H1508 0.959 . S
C1520 C1518 1.561 . S
C1521 C1518 1.526 . S
C1521 C1522 1.396 . S
C1521 C1526 1.390 . S
C1522 C1516 1.465 . S
C1522 C1521 1.396 . S
C1522 C1523 1.399 . S
C1523 H1509 0.929 . S
C1523 C1522 1.399 . S
C1523 C1524 1.385 . S
C1524 H1510 0.931 . S
C1524 C1523 1.385 . S
C1524 C1525 1.389 . S
C1525 C1524 1.389 . S
C1525 C1526 1.387 . S
C1526 H1511 0.930 . S
C1526 C1521 1.390 . S
C1526 C1525 1.387 . S
H1527 C1539 0.930 . S
H1528 C1541 0.930 . S
H1529 C1542 0.930 . S
H1530 C1546 0.959 . S
H1531 C1546 0.959 . S
H1532 C1546 0.961 . S
H1533 C1547 0.960 . S
H1534 C1547 0.961 . S
H1535 C1547 0.959 . S
H1536 C1550 0.929 . S
H1537 C1551 0.931 . S
H1538 C1553 0.930 . S
C1539 H1527 0.930 . S
C1539 C1540 1.399 . S
C1539 C1544 1.399 . S
C1540 C1539 1.399 . S
C1540 C1541 1.376 . S
C1541 H1528 0.930 . S
C1541 C1540 1.376 . S
C1541 C1542 1.388 . S
C1542 H1529 0.930 . S
C1542 C1541 1.388 . S
C1542 C1543 1.390 . S
C1543 C1542 1.390 . S
C1543 C1544 1.394 . S
C1543 C1549 1.465 . S
C1544 C1539 1.399 . S
C1544 C1543 1.394 . S
C1544 C1545 1.516 . S
C1545 C1544 1.516 . S
C1545 C1546 1.502 . S
C1545 C1547 1.561 . S
C1545 C1548 1.526 . S
C1546 H1530 0.959 . S
C1546 H1531 0.959 . S
C1546 H1532 0.961 . S
C1546 C1545 1.502 . S
C1547 H1533 0.960 . S
C1547 H1534 0.961 . S
C1547 H1535 0.959 . S
C1547 C1545 1.561 . S
C1548 C1545 1.526 . S
C1548 C1549 1.396 . S
C1548 C1553 1.390 . S
C1549 C1543 1.465 . S
C1549 C1548 1.396 . S
C1549 C1550 1.399 . S
C1550 H1536 0.929 . S
C1550 C1549 1.399 . S
C1550 C1551 1.385 . S
C1551 H1537 0.931 . S
C1551 C1550 1.385 . S
C1551 C1552 1.389 . S
C1552 C1551 1.389 . S
C1552 C1553 1.387 . S
C1553 H1538 0.930 . S
C1553 C1548 1.390 . S
C1553 C1552 1.387 . S
H1554 C1566 0.930 . S
H1555 C1568 0.930 . S
H1556 C1569 0.930 . S
H1557 C1573 0.959 . S
H1558 C1573 0.959 . S
H1559 C1573 0.961 . S
H1560 C1574 0.960 . S
H1561 C1574 0.961 . S
H1562 C1574 0.959 . S
H1563 C1577 0.929 . S
H1564 C1578 0.931 . S
H1565 C1580 0.930 . S
C1566 H1554 0.930 . S
C1566 C1567 1.399 . S
C1566 C1571 1.399 . S
C1567 C1566 1.399 . S
C1567 C1568 1.376 . S
C1568 H1555 0.930 . S
C1568 C1567 1.376 . S
C1568 C1569 1.388 . S
C1569 H1556 0.930 . S
C1569 C1568 1.388 . S
C1569 C1570 1.390 . S
C1570 C1569 1.390 . S
C1570 C1571 1.394 . S
C1570 C1576 1.465 . S
C1571 C1566 1.399 . S
C1571 C1570 1.394 . S
C1571 C1572 1.516 . S
C1572 C1571 1.516 . S
C1572 C1573 1.502 . S
C1572 C1574 1.561 . S
C1572 C1575 1.526 . S
C1573 H1557 0.959 . S
C1573 H1558 0.959 . S
C1573 H1559 0.961 . S
C1573 C1572 1.502 . S
C1574 H1560 0.960 . S
C1574 H1561 0.961 . S
C1574 H1562 0.959 . S
C1574 C1572 1.561 . S
C1575 C1572 1.526 . S
C1575 C1576 1.396 . S
C1575 C1580 1.390 . S
C1576 C1570 1.465 . S
C1576 C1575 1.396 . S
C1576 C1577 1.399 . S
C1577 H1563 0.929 . S
C1577 C1576 1.399 . S
C1577 C1578 1.385 . S
C1578 H1564 0.931 . S
C1578 C1577 1.385 . S
C1578 C1579 1.389 . S
C1579 C1578 1.389 . S
C1579 C1580 1.387 . S
C1580 H1565 0.930 . S
C1580 C1575 1.390 . S
C1580 C1579 1.387 . S
H1581 C1593 0.930 . S
H1582 C1595 0.930 . S
H1583 C1596 0.930 . S
H1584 C1600 0.959 . S
H1585 C1600 0.959 . S
H1586 C1600 0.961 . S
H1587 C1601 0.960 . S
H1588 C1601 0.961 . S
H1589 C1601 0.959 . S
H1590 C1604 0.929 . S
H1591 C1605 0.931 . S
H1592 C1607 0.930 . S
C1593 H1581 0.930 . S
C1593 C1594 1.399 . S
C1593 C1598 1.399 . S
C1594 C1593 1.399 . S
C1594 C1595 1.376 . S
C1595 H1582 0.930 . S
C1595 C1594 1.376 . S
C1595 C1596 1.388 . S
C1596 H1583 0.930 . S
C1596 C1595 1.388 . S
C1596 C1597 1.390 . S
C1597 C1596 1.390 . S
C1597 C1598 1.394 . S
C1597 C1603 1.465 . S
C1598 C1593 1.399 . S
C1598 C1597 1.394 . S
C1598 C1599 1.516 . S
C1599 C1598 1.516 . S
C1599 C1600 1.502 . S
C1599 C1601 1.561 . S
C1599 C1602 1.526 . S
C1600 H1584 0.959 . S
C1600 H1585 0.959 . S
C1600 H1586 0.961 . S
C1600 C1599 1.502 . S
C1601 H1587 0.960 . S
C1601 H1588 0.961 . S
C1601 H1589 0.959 . S
C1601 C1599 1.561 . S
C1602 C1599 1.526 . S
C1602 C1603 1.396 . S
C1602 C1607 1.390 . S
C1603 C1597 1.465 . S
C1603 C1602 1.396 . S
C1603 C1604 1.399 . S
C1604 H1590 0.929 . S
C1604 C1603 1.399 . S
C1604 C1605 1.385 . S
C1605 H1591 0.931 . S
C1605 C1604 1.385 . S
C1605 C1606 1.389 . S
C1606 C1605 1.389 . S
C1606 C1607 1.387 . S
C1607 H1592 0.930 . S
C1607 C1602 1.390 . S
C1607 C1606 1.387 . S
H1608 C1620 0.930 . S
H1609 C1622 0.930 . S
H1610 C1623 0.930 . S
H1611 C1627 0.959 . S
H1612 C1627 0.959 . S
H1613 C1627 0.961 . S
H1614 C1628 0.960 . S
H1615 C1628 0.961 . S
H1616 C1628 0.959 . S
H1617 C1631 0.929 . S
H1618 C1632 0.931 . S
H1619 C1634 0.930 . S
C1620 H1608 0.930 . S
C1620 C1621 1.399 . S
C1620 C1625 1.399 . S
C1621 C1620 1.399 . S
C1621 C1622 1.376 . S
C1622 H1609 0.930 . S
C1622 C1621 1.376 . S
C1622 C1623 1.388 . S
C1623 H1610 0.930 . S
C1623 C1622 1.388 . S
C1623 C1624 1.390 . S
C1624 C1623 1.390 . S
C1624 C1625 1.394 . S
C1624 C1630 1.465 . S
C1625 C1620 1.399 . S
C1625 C1624 1.394 . S
C1625 C1626 1.516 . S
C1626 C1625 1.516 . S
C1626 C1627 1.502 . S
C1626 C1628 1.561 . S
C1626 C1629 1.526 . S
C1627 H1611 0.959 . S
C1627 H1612 0.959 . S
C1627 H1613 0.961 . S
C1627 C1626 1.502 . S
C1628 H1614 0.960 . S
C1628 H1615 0.961 . S
C1628 H1616 0.959 . S
C1628 C1626 1.561 . S
C1629 C1626 1.526 . S
C1629 C1630 1.396 . S
C1629 C1634 1.390 . S
C1630 C1624 1.465 . S
C1630 C1629 1.396 . S
C1630 C1631 1.399 . S
C1631 H1617 0.929 . S
C1631 C1630 1.399 . S
C1631 C1632 1.385 . S
C1632 H1618 0.931 . S
C1632 C1631 1.385 . S
C1632 C1633 1.389 . S
C1633 C1632 1.389 . S
C1633 C1634 1.387 . S
C1634 H1619 0.930 . S
C1634 C1629 1.390 . S
C1634 C1633 1.387 . S
H1635 C1647 0.930 . S
H1636 C1649 0.930 . S
H1637 C1650 0.930 . S
H1638 C1654 0.959 . S
H1639 C1654 0.959 . S
H1640 C1654 0.961 . S
H1641 C1655 0.960 . S
H1642 C1655 0.961 . S
H1643 C1655 0.959 . S
H1644 C1658 0.929 . S
H1645 C1659 0.931 . S
H1646 C1661 0.930 . S
C1647 H1635 0.930 . S
C1647 C1648 1.399 . S
C1647 C1652 1.399 . S
C1648 C1647 1.399 . S
C1648 C1649 1.376 . S
C1649 H1636 0.930 . S
C1649 C1648 1.376 . S
C1649 C1650 1.388 . S
C1650 H1637 0.930 . S
C1650 C1649 1.388 . S
C1650 C1651 1.390 . S
C1651 C1650 1.390 . S
C1651 C1652 1.394 . S
C1651 C1657 1.465 . S
C1652 C1647 1.399 . S
C1652 C1651 1.394 . S
C1652 C1653 1.516 . S
C1653 C1652 1.516 . S
C1653 C1654 1.502 . S
C1653 C1655 1.561 . S
C1653 C1656 1.526 . S
C1654 H1638 0.959 . S
C1654 H1639 0.959 . S
C1654 H1640 0.961 . S
C1654 C1653 1.502 . S
C1655 H1641 0.960 . S
C1655 H1642 0.961 . S
C1655 H1643 0.959 . S
C1655 C1653 1.561 . S
C1656 C1653 1.526 . S
C1656 C1657 1.396 . S
C1656 C1661 1.390 . S
C1657 C1651 1.465 . S
C1657 C1656 1.396 . S
C1657 C1658 1.399 . S
C1658 H1644 0.929 . S
C1658 C1657 1.399 . S
C1658 C1659 1.385 . S
C1659 H1645 0.931 . S
C1659 C1658 1.385 . S
C1659 C1660 1.389 . S
C1660 C1659 1.389 . S
C1660 C1661 1.387 . S
C1661 H1646 0.930 . S
C1661 C1656 1.390 . S
C1661 C1660 1.387 . S
H1662 C1674 0.930 . S
H1663 C1676 0.930 . S
H1664 C1677 0.930 . S
H1665 C1681 0.959 . S
H1666 C1681 0.959 . S
H1667 C1681 0.961 . S
H1668 C1682 0.960 . S
H1669 C1682 0.961 . S
H1670 C1682 0.959 . S
H1671 C1685 0.929 . S
H1672 C1686 0.931 . S
H1673 C1688 0.930 . S
C1674 H1662 0.930 . S
C1674 C1675 1.399 . S
C1674 C1679 1.399 . S
C1675 C1674 1.399 . S
C1675 C1676 1.376 . S
C1676 H1663 0.930 . S
C1676 C1675 1.376 . S
C1676 C1677 1.388 . S
C1677 H1664 0.930 . S
C1677 C1676 1.388 . S
C1677 C1678 1.390 . S
C1678 C1677 1.390 . S
C1678 C1679 1.394 . S
C1678 C1684 1.465 . S
C1679 C1674 1.399 . S
C1679 C1678 1.394 . S
C1679 C1680 1.516 . S
C1680 C1679 1.516 . S
C1680 C1681 1.502 . S
C1680 C1682 1.561 . S
C1680 C1683 1.526 . S
C1681 H1665 0.959 . S
C1681 H1666 0.959 . S
C1681 H1667 0.961 . S
C1681 C1680 1.502 . S
C1682 H1668 0.960 . S
C1682 H1669 0.961 . S
C1682 H1670 0.959 . S
C1682 C1680 1.561 . S
C1683 C1680 1.526 . S
C1683 C1684 1.396 . S
C1683 C1688 1.390 . S
C1684 C1678 1.465 . S
C1684 C1683 1.396 . S
C1684 C1685 1.399 . S
C1685 H1671 0.929 . S
C1685 C1684 1.399 . S
C1685 C1686 1.385 . S
C1686 H1672 0.931 . S
C1686 C1685 1.385 . S
C1686 C1687 1.389 . S
C1687 C1686 1.389 . S
C1687 C1688 1.387 . S
C1688 H1673 0.930 . S
C1688 C1683 1.390 . S
C1688 C1687 1.387 . S
H1689 C1701 0.930 . S
H1690 C1703 0.930 . S
H1691 C1704 0.930 . S
H1692 C1708 0.973 . S
H1693 C1708 0.959 . S
H1694 C1708 0.961 1_554 S
H1695 C1709 0.960 . S
H1696 C1709 0.961 . S
H1697 C1709 0.959 . S
H1698 C1712 0.929 . S
H1699 C1713 0.931 . S
H1700 C1715 0.930 . S
C1701 H1689 0.930 . S
C1701 C1702 1.399 . S
C1701 C1706 1.399 . S
C1702 C1701 1.399 . S
C1702 C1703 1.376 . S
C1703 H1690 0.930 . S
C1703 C1702 1.376 . S
C1703 C1704 1.388 . S
C1704 H1691 0.930 . S
C1704 C1703 1.388 . S
C1704 C1705 1.390 . S
C1705 C1704 1.390 . S
C1705 C1706 1.394 . S
C1705 C1711 1.465 . S
C1706 C1701 1.399 . S
C1706 C1705 1.394 . S
C1706 C1707 1.516 . S
C1707 C1706 1.516 . S
C1707 C1708 1.502 . S
C1707 C1709 1.561 . S
C1707 C1710 1.526 . S
C1708 H1692 0.973 . S
C1708 H1693 0.959 . S
C1708 H1694 0.961 1_556 S
C1708 C1707 1.502 . S
C1709 H1695 0.960 . S
C1709 H1696 0.961 . S
C1709 H1697 0.959 . S
C1709 C1707 1.561 . S
C1710 C1707 1.526 . S
C1710 C1711 1.396 . S
C1710 C1715 1.390 . S
C1711 C1705 1.465 . S
C1711 C1710 1.396 . S
C1711 C1712 1.399 . S
C1712 H1698 0.929 . S
C1712 C1711 1.399 . S
C1712 C1713 1.385 . S
C1713 H1699 0.931 . S
C1713 C1712 1.385 . S
C1713 C1714 1.389 . S
C1714 C1713 1.389 . S
C1714 C1715 1.387 . S
C1715 H1700 0.930 . S
C1715 C1710 1.390 . S
C1715 C1714 1.387 . S
H1716 C1728 0.930 . S
H1717 C1730 0.930 . S
H1718 C1731 0.930 . S
H1719 C1735 0.959 . S
H1720 C1735 0.959 . S
H1721 C1735 0.961 . S
H1722 C1736 0.960 . S
H1723 C1736 0.961 . S
H1724 C1736 0.959 . S
H1725 C1739 0.929 . S
H1726 C1740 0.931 . S
H1727 C1742 0.930 . S
C1728 H1716 0.930 . S
C1728 C1729 1.399 . S
C1728 C1733 1.399 . S
C1729 C1728 1.399 . S
C1729 C1730 1.376 . S
C1730 H1717 0.930 . S
C1730 C1729 1.376 . S
C1730 C1731 1.388 . S
C1731 H1718 0.930 . S
C1731 C1730 1.388 . S
C1731 C1732 1.390 . S
C1732 C1731 1.390 . S
C1732 C1733 1.394 . S
C1732 C1738 1.465 . S
C1733 C1728 1.399 . S
C1733 C1732 1.394 . S
C1733 C1734 1.516 . S
C1734 C1733 1.516 . S
C1734 C1735 1.502 . S
C1734 C1736 1.561 . S
C1734 C1737 1.526 . S
C1735 H1719 0.959 . S
C1735 H1720 0.959 . S
C1735 H1721 0.961 . S
C1735 C1734 1.502 . S
C1736 H1722 0.960 . S
C1736 H1723 0.961 . S
C1736 H1724 0.959 . S
C1736 C1734 1.561 . S
C1737 C1734 1.526 . S
C1737 C1738 1.396 . S
C1737 C1742 1.390 . S
C1738 C1732 1.465 . S
C1738 C1737 1.396 . S
C1738 C1739 1.399 . S
C1739 H1725 0.929 . S
C1739 C1738 1.399 . S
C1739 C1740 1.385 . S
C1740 H1726 0.931 . S
C1740 C1739 1.385 . S
C1740 C1741 1.389 . S
C1741 C1740 1.389 . S
C1741 C1742 1.387 . S
C1742 H1727 0.930 . S
C1742 C1737 1.390 . S
C1742 C1741 1.387 . S
H1743 C1755 0.930 . S
H1744 C1757 0.930 . S
H1745 C1758 0.930 . S
H1746 C1762 0.959 . S
H1747 C1762 0.959 . S
H1748 C1762 0.961 . S
H1749 C1763 0.960 . S
H1750 C1763 0.961 . S
H1751 C1763 0.959 . S
H1752 C1766 0.929 . S
H1753 C1767 0.931 . S
H1754 C1769 0.930 . S
C1755 H1743 0.930 . S
C1755 C1756 1.399 . S
C1755 C1760 1.399 . S
C1756 C1755 1.399 . S
C1756 C1757 1.376 . S
C1757 H1744 0.930 . S
C1757 C1756 1.376 . S
C1757 C1758 1.388 . S
C1758 H1745 0.930 . S
C1758 C1757 1.388 . S
C1758 C1759 1.390 . S
C1759 C1758 1.390 . S
C1759 C1760 1.394 . S
C1759 C1765 1.465 . S
C1760 C1755 1.399 . S
C1760 C1759 1.394 . S
C1760 C1761 1.516 . S
C1761 C1760 1.516 . S
C1761 C1762 1.502 . S
C1761 C1763 1.561 . S
C1761 C1764 1.526 . S
C1762 H1746 0.959 . S
C1762 H1747 0.959 . S
C1762 H1748 0.961 . S
C1762 C1761 1.502 . S
C1763 H1749 0.960 . S
C1763 H1750 0.961 . S
C1763 H1751 0.959 . S
C1763 C1761 1.561 . S
C1764 C1761 1.526 . S
C1764 C1765 1.396 . S
C1764 C1769 1.390 . S
C1765 C1759 1.465 . S
C1765 C1764 1.396 . S
C1765 C1766 1.399 . S
C1766 H1752 0.929 . S
C1766 C1765 1.399 . S
C1766 C1767 1.385 . S
C1767 H1753 0.931 . S
C1767 C1766 1.385 . S
C1767 C1768 1.389 . S
C1768 C1767 1.389 . S
C1768 C1769 1.387 . S
C1769 H1754 0.930 . S
C1769 C1764 1.390 . S
C1769 C1768 1.387 . S
H1770 C1782 0.930 . S
H1771 C1784 0.930 . S
H1772 C1785 0.930 . S
H1773 C1789 0.959 . S
H1774 C1789 0.959 . S
H1775 C1789 0.961 . S
H1776 C1790 0.960 . S
H1777 C1790 0.961 . S
H1778 C1790 0.959 . S
H1779 C1793 0.929 . S
H1780 C1794 0.931 . S
H1781 C1796 0.930 . S
C1782 H1770 0.930 . S
C1782 C1783 1.399 . S
C1782 C1787 1.399 . S
C1783 C1782 1.399 . S
C1783 C1784 1.376 . S
C1784 H1771 0.930 . S
C1784 C1783 1.376 . S
C1784 C1785 1.388 . S
C1785 H1772 0.930 . S
C1785 C1784 1.388 . S
C1785 C1786 1.390 . S
C1786 C1785 1.390 . S
C1786 C1787 1.394 . S
C1786 C1792 1.465 . S
C1787 C1782 1.399 . S
C1787 C1786 1.394 . S
C1787 C1788 1.516 . S
C1788 C1787 1.516 . S
C1788 C1789 1.502 . S
C1788 C1790 1.561 . S
C1788 C1791 1.526 . S
C1789 H1773 0.959 . S
C1789 H1774 0.959 . S
C1789 H1775 0.961 . S
C1789 C1788 1.502 . S
C1790 H1776 0.960 . S
C1790 H1777 0.961 . S
C1790 H1778 0.959 . S
C1790 C1788 1.561 . S
C1791 C1788 1.526 . S
C1791 C1792 1.396 . S
C1791 C1796 1.390 . S
C1792 C1786 1.465 . S
C1792 C1791 1.396 . S
C1792 C1793 1.399 . S
C1793 H1779 0.929 . S
C1793 C1792 1.399 . S
C1793 C1794 1.385 . S
C1794 H1780 0.931 . S
C1794 C1793 1.385 . S
C1794 C1795 1.389 . S
C1795 C1794 1.389 . S
C1795 C1796 1.387 . S
C1796 H1781 0.930 . S
C1796 C1791 1.390 . S
C1796 C1795 1.387 . S
H1797 C1809 0.930 . S
H1798 C1811 0.930 . S
H1799 C1812 0.930 . S
H1800 C1816 0.959 . S
H1801 C1816 0.959 . S
H1802 C1816 0.961 . S
H1803 C1817 0.960 . S
H1804 C1817 0.961 . S
H1805 C1817 0.959 . S
H1806 C1820 0.929 . S
H1807 C1821 0.931 . S
H1808 C1823 0.930 . S
C1809 H1797 0.930 . S
C1809 C1810 1.399 . S
C1809 C1814 1.399 . S
C1810 C1809 1.399 . S
C1810 C1811 1.376 . S
C1811 H1798 0.930 . S
C1811 C1810 1.376 . S
C1811 C1812 1.388 . S
C1812 H1799 0.930 . S
C1812 C1811 1.388 . S
C1812 C1813 1.390 . S
C1813 C1812 1.390 . S
C1813 C1814 1.394 . S
C1813 C1819 1.465 . S
C1814 C1809 1.399 . S
C1814 C1813 1.394 . S
C1814 C1815 1.516 . S
C1815 C1814 1.516 . S
C1815 C1816 1.502 . S
C1815 C1817 1.561 . S
C1815 C1818 1.526 . S
C1816 H1800 0.959 . S
C1816 H1801 0.959 . S
C1816 H1802 0.961 . S
C1816 C1815 1.502 . S
C1817 H1803 0.960 . S
C1817 H1804 0.961 . S
C1817 H1805 0.959 . S
C1817 C1815 1.561 . S
C1818 C1815 1.526 . S
C1818 C1819 1.396 . S
C1818 C1823 1.390 . S
C1819 C1813 1.465 . S
C1819 C1818 1.396 . S
C1819 C1820 1.399 . S
C1820 H1806 0.929 . S
C1820 C1819 1.399 . S
C1820 C1821 1.385 . S
C1821 H1807 0.931 . S
C1821 C1820 1.385 . S
C1821 C1822 1.389 . S
C1822 C1821 1.389 . S
C1822 C1823 1.387 . S
C1823 H1808 0.930 . S
C1823 C1818 1.390 . S
C1823 C1822 1.387 . S
H1824 C1836 0.930 . S
H1825 C1838 0.930 . S
H1826 C1839 0.930 . S
H1827 C1843 0.959 . S
H1828 C1843 0.959 . S
H1829 C1843 0.961 . S
H1830 C1844 0.960 . S
H1831 C1844 0.961 . S
H1832 C1844 0.959 . S
H1833 C1847 0.929 . S
H1834 C1848 0.931 . S
H1835 C1850 0.930 . S
C1836 H1824 0.930 . S
C1836 C1837 1.399 . S
C1836 C1841 1.399 . S
C1837 C1836 1.399 . S
C1837 C1838 1.376 . S
C1838 H1825 0.930 . S
C1838 C1837 1.376 . S
C1838 C1839 1.388 . S
C1839 H1826 0.930 . S
C1839 C1838 1.388 . S
C1839 C1840 1.390 . S
C1840 C1839 1.390 . S
C1840 C1841 1.394 . S
C1840 C1846 1.465 1_455 S
C1841 C1836 1.399 . S
C1841 C1840 1.394 . S
C1841 C1842 1.516 . S
C1842 C1841 1.516 . S
C1842 C1843 1.502 1_455 S
C1842 C1844 1.561 . S
C1842 C1845 1.526 1_455 S
C1843 H1827 0.959 . S
C1843 H1828 0.959 . S
C1843 H1829 0.961 . S
C1843 C1842 1.502 1_655 S
C1844 H1830 0.960 . S
C1844 H1831 0.961 . S
C1844 H1832 0.959 . S
C1844 C1842 1.561 . S
C1845 C1842 1.526 1_655 S
C1845 C1846 1.396 . S
C1845 C1850 1.390 . S
C1846 C1840 1.465 1_655 S
C1846 C1845 1.396 . S
C1846 C1847 1.399 . S
C1847 H1833 0.929 . S
C1847 C1846 1.399 . S
C1847 C1848 1.385 . S
C1848 H1834 0.931 . S
C1848 C1847 1.385 . S
C1848 C1849 1.389 . S
C1849 C1848 1.389 . S
C1849 C1850 1.387 . S
C1850 H1835 0.930 . S
C1850 C1845 1.390 . S
C1850 C1849 1.387 . S
H1851 C1863 0.930 . S
H1852 C1865 0.930 . S
H1853 C1866 0.930 . S
H1854 C1870 0.959 . S
H1855 C1870 0.959 . S
H1856 C1870 0.961 . S
H1857 C1871 0.960 . S
H1858 C1871 0.961 . S
H1859 C1871 0.959 . S
H1860 C1874 0.929 . S
H1861 C1875 0.931 . S
H1862 C1877 0.930 . S
C1863 H1851 0.930 . S
C1863 C1864 1.399 . S
C1863 C1868 1.399 . S
C1864 C1863 1.399 . S
C1864 C1865 1.376 . S
C1865 H1852 0.930 . S
C1865 C1864 1.376 . S
C1865 C1866 1.388 . S
C1866 H1853 0.930 . S
C1866 C1865 1.388 . S
C1866 C1867 1.390 . S
C1867 C1866 1.390 . S
C1867 C1868 1.394 . S
C1867 C1873 1.465 . S
C1868 C1863 1.399 . S
C1868 C1867 1.394 . S
C1868 C1869 1.516 . S
C1869 C1868 1.516 . S
C1869 C1870 1.502 . S
C1869 C1871 1.561 . S
C1869 C1872 1.526 . S
C1870 H1854 0.959 . S
C1870 H1855 0.959 . S
C1870 H1856 0.961 . S
C1870 C1869 1.502 . S
C1871 H1857 0.960 . S
C1871 H1858 0.961 . S
C1871 H1859 0.959 . S
C1871 C1869 1.561 . S
C1872 C1869 1.526 . S
C1872 C1873 1.396 . S
C1872 C1877 1.390 . S
C1873 C1867 1.465 . S
C1873 C1872 1.396 . S
C1873 C1874 1.399 . S
C1874 H1860 0.929 . S
C1874 C1873 1.399 . S
C1874 C1875 1.385 . S
C1875 H1861 0.931 . S
C1875 C1874 1.385 . S
C1875 C1876 1.389 . S
C1876 C1875 1.389 . S
C1876 C1877 1.387 . S
C1877 H1862 0.930 . S
C1877 C1872 1.390 . S
C1877 C1876 1.387 . S
H1878 C1890 0.930 . S
H1879 C1892 0.930 . S
H1880 C1893 0.930 . S
H1881 C1897 0.959 . S
H1882 C1897 0.959 . S
H1883 C1897 0.961 . S
H1884 C1898 0.960 . S
H1885 C1898 0.961 . S
H1886 C1898 0.959 . S
H1887 C1901 0.929 . S
H1888 C1902 0.931 . S
H1889 C1904 0.930 . S
C1890 H1878 0.930 . S
C1890 C1891 1.399 . S
C1890 C1895 1.399 . S
C1891 C1890 1.399 . S
C1891 C1892 1.376 . S
C1892 H1879 0.930 . S
C1892 C1891 1.376 . S
C1892 C1893 1.388 . S
C1893 H1880 0.930 . S
C1893 C1892 1.388 . S
C1893 C1894 1.390 . S
C1894 C1893 1.390 . S
C1894 C1895 1.394 . S
C1894 C1900 1.465 . S
C1895 C1890 1.399 . S
C1895 C1894 1.394 . S
C1895 C1896 1.516 . S
C1896 C1895 1.516 . S
C1896 C1897 1.502 . S
C1896 C1898 1.561 . S
C1896 C1899 1.526 . S
C1897 H1881 0.959 . S
C1897 H1882 0.959 . S
C1897 H1883 0.961 . S
C1897 C1896 1.502 . S
C1898 H1884 0.960 . S
C1898 H1885 0.961 . S
C1898 H1886 0.959 . S
C1898 C1896 1.561 . S
C1899 C1896 1.526 . S
C1899 C1900 1.396 . S
C1899 C1904 1.390 . S
C1900 C1894 1.465 . S
C1900 C1899 1.396 . S
C1900 C1901 1.399 . S
C1901 H1887 0.929 . S
C1901 C1900 1.399 . S
C1901 C1902 1.385 . S
C1902 H1888 0.931 . S
C1902 C1901 1.385 . S
C1902 C1903 1.389 . S
C1903 C1902 1.389 . S
C1903 C1904 1.387 . S
C1904 H1889 0.930 . S
C1904 C1899 1.390 . S
C1904 C1903 1.387 . S
H1905 C1917 0.930 . S
H1906 C1919 0.930 . S
H1907 C1920 0.930 . S
H1908 C1924 0.959 . S
H1909 C1924 0.959 . S
H1910 C1924 0.961 . S
H1911 C1925 0.960 . S
H1912 C1925 0.961 . S
H1913 C1925 0.959 . S
H1914 C1928 0.929 . S
H1915 C1929 0.931 . S
H1916 C1931 0.930 . S
C1917 H1905 0.930 . S
C1917 C1918 1.399 . S
C1917 C1922 1.399 . S
C1918 C1917 1.399 . S
C1918 C1919 1.376 . S
C1919 H1906 0.930 . S
C1919 C1918 1.376 . S
C1919 C1920 1.388 . S
C1920 H1907 0.930 . S
C1920 C1919 1.388 . S
C1920 C1921 1.390 . S
C1921 C1920 1.390 . S
C1921 C1922 1.394 . S
C1921 C1927 1.465 . S
C1922 C1917 1.399 . S
C1922 C1921 1.394 . S
C1922 C1923 1.516 1_455 S
C1923 C1922 1.516 1_655 S
C1923 C1924 1.502 . S
C1923 C1925 1.561 1_655 S
C1923 C1926 1.526 . S
C1924 H1908 0.959 . S
C1924 H1909 0.959 . S
C1924 H1910 0.961 . S
C1924 C1923 1.502 . S
C1925 H1911 0.960 . S
C1925 H1912 0.961 . S
C1925 H1913 0.959 . S
C1925 C1923 1.561 1_455 S
C1926 C1923 1.526 . S
C1926 C1927 1.396 1_655 S
C1926 C1931 1.390 . S
C1927 C1921 1.465 . S
C1927 C1926 1.396 1_455 S
C1927 C1928 1.399 . S
C1928 H1914 0.929 . S
C1928 C1927 1.399 . S
C1928 C1929 1.385 1_455 S
C1929 H1915 0.931 . S
C1929 C1928 1.385 1_655 S
C1929 C1930 1.389 . S
C1930 C1929 1.389 . S
C1930 C1931 1.387 . S
C1931 H1916 0.930 . S
C1931 C1926 1.390 . S
C1931 C1930 1.387 . S
H1932 C1944 0.930 . S
H1933 C1946 0.930 . S
H1934 C1947 0.930 . S
H1935 C1951 0.959 . S
H1936 C1951 0.959 . S
H1937 C1951 0.961 . S
H1938 C1952 0.960 . S
H1939 C1952 0.961 . S
H1940 C1952 0.959 . S
H1941 C1955 0.929 . S
H1942 C1956 0.931 . S
H1943 C1958 0.930 . S
C1944 H1932 0.930 . S
C1944 C1945 1.399 . S
C1944 C1949 1.399 . S
C1945 C1944 1.399 . S
C1945 C1946 1.376 . S
C1946 H1933 0.930 . S
C1946 C1945 1.376 . S
C1946 C1947 1.388 1_545 S
C1947 H1934 0.930 . S
C1947 C1946 1.388 1_565 S
C1947 C1948 1.390 . S
C1948 C1947 1.390 . S
C1948 C1949 1.394 1_565 S
C1948 C1954 1.465 . S
C1949 C1944 1.399 . S
C1949 C1948 1.394 1_545 S
C1949 C1950 1.516 . S
C1950 C1949 1.516 . S
C1950 C1951 1.502 . S
C1950 C1952 1.561 1_545 S
C1950 C1953 1.526 1_545 S
C1951 H1935 0.959 . S
C1951 H1936 0.959 . S
C1951 H1937 0.961 . S
C1951 C1950 1.502 . S
C1952 H1938 0.960 . S
C1952 H1939 0.961 . S
C1952 H1940 0.959 . S
C1952 C1950 1.561 1_565 S
C1953 C1950 1.526 1_565 S
C1953 C1954 1.396 . S
C1953 C1958 1.390 . S
C1954 C1948 1.465 . S
C1954 C1953 1.396 . S
C1954 C1955 1.399 . S
C1955 H1941 0.929 . S
C1955 C1954 1.399 . S
C1955 C1956 1.385 . S
C1956 H1942 0.931 . S
C1956 C1955 1.385 . S
C1956 C1957 1.389 . S
C1957 C1956 1.389 . S
C1957 C1958 1.387 . S
C1958 H1943 0.930 . S
C1958 C1953 1.390 . S
C1958 C1957 1.387 . S
H1959 C1971 0.930 . S
H1960 C1973 0.930 . S
H1961 C1974 0.930 . S
H1962 C1978 0.959 . S
H1963 C1978 0.959 . S
H1964 C1978 0.961 . S
H1965 C1979 0.960 . S
H1966 C1979 0.961 . S
H1967 C1979 0.959 . S
H1968 C1982 0.929 . S
H1969 C1983 0.931 . S
H1970 C1985 0.930 1_545 S
C1971 H1959 0.930 . S
C1971 C1972 1.399 . S
C1971 C1976 1.399 . S
C1972 C1971 1.399 . S
C1972 C1973 1.376 . S
C1973 H1960 0.930 . S
C1973 C1972 1.376 . S
C1973 C1974 1.388 1_545 S
C1974 H1961 0.930 . S
C1974 C1973 1.388 1_565 S
C1974 C1975 1.390 1_565 S
C1975 C1974 1.390 1_545 S
C1975 C1976 1.393 . S
C1975 C1981 1.466 1_545 S
C1976 C1971 1.399 . S
C1976 C1975 1.393 . S
C1976 C1977 1.516 . S
C1977 C1976 1.516 . S
C1977 C1978 1.502 . S
C1977 C1979 1.561 . S
C1977 C1980 1.526 . S
C1978 H1962 0.959 . S
C1978 H1963 0.959 . S
C1978 H1964 0.961 . S
C1978 C1977 1.502 . S
C1979 H1965 0.960 . S
C1979 H1966 0.961 . S
C1979 H1967 0.959 . S
C1979 C1977 1.561 . S
C1980 C1977 1.526 . S
C1980 C1981 1.396 1_545 S
C1980 C1985 1.390 1_545 S
C1981 C1975 1.466 1_565 S
C1981 C1980 1.396 1_565 S
C1981 C1982 1.399 . S
C1982 H1968 0.929 . S
C1982 C1981 1.399 . S
C1982 C1983 1.385 . S
C1983 H1969 0.931 . S
C1983 C1982 1.385 . S
C1983 C1984 1.389 . S
C1984 C1983 1.389 . S
C1984 C1985 1.387 . S
C1985 H1970 0.930 1_565 S
C1985 C1980 1.390 1_565 S
C1985 C1984 1.387 . S
H1986 C1998 0.930 . S
H1987 C2000 0.930 . S
H1988 C2001 0.930 . S
H1989 C2005 0.959 . S
H1990 C2005 0.959 . S
H1991 C2005 0.961 . S
H1992 C2006 0.960 . S
H1993 C2006 0.961 . S
H1994 C2006 0.959 . S
H1995 C2009 0.929 . S
H1996 C2010 0.931 . S
H1997 C2012 0.930 . S
C1998 H1986 0.930 . S
C1998 C1999 1.399 . S
C1998 C2003 1.399 . S
C1999 C1998 1.399 . S
C1999 C2000 1.376 . S
C2000 H1987 0.930 . S
C2000 C1999 1.376 . S
C2000 C2001 1.388 . S
C2001 H1988 0.930 . S
C2001 C2000 1.388 . S
C2001 C2002 1.390 . S
C2002 C2001 1.390 . S
C2002 C2003 1.394 . S
C2002 C2008 1.465 . S
C2003 C1998 1.399 . S
C2003 C2002 1.394 . S
C2003 C2004 1.516 . S
C2004 C2003 1.516 . S
C2004 C2005 1.502 . S
C2004 C2006 1.561 . S
C2004 C2007 1.526 . S
C2005 H1989 0.959 . S
C2005 H1990 0.959 . S
C2005 H1991 0.961 . S
C2005 C2004 1.502 . S
C2006 H1992 0.960 . S
C2006 H1993 0.961 . S
C2006 H1994 0.959 . S
C2006 C2004 1.561 . S
C2007 C2004 1.526 . S
C2007 C2008 1.396 . S
C2007 C2012 1.390 . S
C2008 C2002 1.465 . S
C2008 C2007 1.396 . S
C2008 C2009 1.399 . S
C2009 H1995 0.929 . S
C2009 C2008 1.399 . S
C2009 C2010 1.385 . S
C2010 H1996 0.931 . S
C2010 C2009 1.385 . S
C2010 C2011 1.389 . S
C2011 C2010 1.389 . S
C2011 C2012 1.387 . S
C2012 H1997 0.930 . S
C2012 C2007 1.390 . S
C2012 C2011 1.387 . S
H2013 C2025 0.930 . S
H2014 C2027 0.930 . S
H2015 C2028 0.930 . S
H2016 C2032 0.959 . S
H2017 C2032 0.959 . S
H2018 C2032 0.961 . S
H2019 C2033 0.960 . S
H2020 C2033 0.961 . S
H2021 C2033 0.959 . S
H2022 C2036 0.929 . S
H2023 C2037 0.931 . S
H2024 C2039 0.930 . S
C2025 H2013 0.930 . S
C2025 C2026 1.399 . S
C2025 C2030 1.399 . S
C2026 C2025 1.399 . S
C2026 C2027 1.376 . S
C2027 H2014 0.930 . S
C2027 C2026 1.376 . S
C2027 C2028 1.388 . S
C2028 H2015 0.930 . S
C2028 C2027 1.388 . S
C2028 C2029 1.390 . S
C2029 C2028 1.390 . S
C2029 C2030 1.394 . S
C2029 C2035 1.465 . S
C2030 C2025 1.399 . S
C2030 C2029 1.394 . S
C2030 C2031 1.516 . S
C2031 C2030 1.516 . S
C2031 C2032 1.502 . S
C2031 C2033 1.561 . S
C2031 C2034 1.526 . S
C2032 H2016 0.959 . S
C2032 H2017 0.959 . S
C2032 H2018 0.961 . S
C2032 C2031 1.502 . S
C2033 H2019 0.960 . S
C2033 H2020 0.961 . S
C2033 H2021 0.959 . S
C2033 C2031 1.561 . S
C2034 C2031 1.526 . S
C2034 C2035 1.396 . S
C2034 C2039 1.390 . S
C2035 C2029 1.465 . S
C2035 C2034 1.396 . S
C2035 C2036 1.399 . S
C2036 H2022 0.929 . S
C2036 C2035 1.399 . S
C2036 C2037 1.385 . S
C2037 H2023 0.931 . S
C2037 C2036 1.385 . S
C2037 C2038 1.389 . S
C2038 C2037 1.389 . S
C2038 C2039 1.387 . S
C2039 H2024 0.930 . S
C2039 C2034 1.390 . S
C2039 C2038 1.387 . S
H2040 C2052 0.951 . S
H2041 C2054 0.930 . S
H2042 C2055 0.930 . S
H2043 C2059 0.959 . S
H2044 C2059 0.959 . S
H2045 C2059 0.961 . S
H2046 C2060 0.960 . S
H2047 C2060 0.961 . S
H2048 C2060 0.959 . S
H2049 C2063 0.929 . S
H2050 C2064 0.931 . S
H2051 C2066 0.930 . S
C2052 H2040 0.951 . S
C2052 C2053 1.372 1_556 S
C2052 C2057 1.405 . S
C2053 C2052 1.372 1_554 S
C2053 C2054 1.376 . S
C2054 H2041 0.930 . S
C2054 C2053 1.376 . S
C2054 C2055 1.388 . S
C2055 H2042 0.930 . S
C2055 C2054 1.388 . S
C2055 C2056 1.390 . S
C2056 C2055 1.390 . S
C2056 C2057 1.394 1_554 S
C2056 C2062 1.465 . S
C2057 C2052 1.405 . S
C2057 C2056 1.394 1_556 S
C2057 C2058 1.516 . S
C2058 C2057 1.516 . S
C2058 C2059 1.502 . S
C2058 C2060 1.561 . S
C2058 C2061 1.526 . S
C2059 H2043 0.959 . S
C2059 H2044 0.959 . S
C2059 H2045 0.961 . S
C2059 C2058 1.502 . S
C2060 H2046 0.960 . S
C2060 H2047 0.961 . S
C2060 H2048 0.959 . S
C2060 C2058 1.561 . S
C2061 C2058 1.526 . S
C2061 C2062 1.396 1_556 S
C2061 C2066 1.390 . S
C2062 C2056 1.465 . S
C2062 C2061 1.396 1_554 S
C2062 C2063 1.399 . S
C2063 H2049 0.929 . S
C2063 C2062 1.399 . S
C2063 C2064 1.385 . S
C2064 H2050 0.931 . S
C2064 C2063 1.385 . S
C2064 C2065 1.389 1_554 S
C2065 C2064 1.389 1_556 S
C2065 C2066 1.387 . S
C2066 H2051 0.930 . S
C2066 C2061 1.390 . S
C2066 C2065 1.387 . S
H2067 C2079 0.930 . S
H2068 C2081 0.930 . S
H2069 C2082 0.930 . S
H2070 C2086 0.959 . S
H2071 C2086 0.959 . S
H2072 C2086 0.961 . S
H2073 C2087 0.960 . S
H2074 C2087 0.961 . S
H2075 C2087 0.959 . S
H2076 C2090 0.929 . S
H2077 C2091 0.931 . S
H2078 C2093 0.930 . S
C2079 H2067 0.930 . S
C2079 C2080 1.399 1_554 S
C2079 C2084 1.399 . S
C2080 C2079 1.399 1_556 S
C2080 C2081 1.376 . S
C2081 H2068 0.930 . S
C2081 C2080 1.376 . S
C2081 C2082 1.388 . S
C2082 H2069 0.930 . S
C2082 C2081 1.388 . S
C2082 C2083 1.390 . S
C2083 C2082 1.390 . S
C2083 C2084 1.394 1_556 S
C2083 C2089 1.465 . S
C2084 C2079 1.399 . S
C2084 C2083 1.394 1_554 S
C2084 C2085 1.516 . S
C2085 C2084 1.516 . S
C2085 C2086 1.502 . S
C2085 C2087 1.561 . S
C2085 C2088 1.526 . S
C2086 H2070 0.959 . S
C2086 H2071 0.959 . S
C2086 H2072 0.961 . S
C2086 C2085 1.502 . S
C2087 H2073 0.960 . S
C2087 H2074 0.961 . S
C2087 H2075 0.959 . S
C2087 C2085 1.561 . S
C2088 C2085 1.526 . S
C2088 C2089 1.396 1_554 S
C2088 C2093 1.390 . S
C2089 C2083 1.465 . S
C2089 C2088 1.396 1_556 S
C2089 C2090 1.399 . S
C2090 H2076 0.929 . S
C2090 C2089 1.399 . S
C2090 C2091 1.385 . S
C2091 H2077 0.931 . S
C2091 C2090 1.385 . S
C2091 C2092 1.389 1_556 S
C2092 C2091 1.389 1_554 S
C2092 C2093 1.387 . S
C2093 H2078 0.930 . S
C2093 C2088 1.390 . S
C2093 C2092 1.387 . S
H2094 C2106 0.930 . S
H2095 C2108 0.930 . S
H2096 C2109 0.930 . S
H2097 C2113 0.959 . S
H2098 C2113 0.959 . S
H2099 C2113 0.961 . S
H2100 C2114 0.960 . S
H2101 C2114 0.961 . S
H2102 C2114 0.959 . S
H2103 C2117 0.929 . S
H2104 C2118 0.931 . S
H2105 C2120 0.930 . S
C2106 H2094 0.930 . S
C2106 C2107 1.399 . S
C2106 C2111 1.399 . S
C2107 C2106 1.399 . S
C2107 C2108 1.376 . S
C2108 H2095 0.930 . S
C2108 C2107 1.376 . S
C2108 C2109 1.388 . S
C2109 H2096 0.930 . S
C2109 C2108 1.388 . S
C2109 C2110 1.390 . S
C2110 C2109 1.390 . S
C2110 C2111 1.394 . S
C2110 C2116 1.465 . S
C2111 C2106 1.399 . S
C2111 C2110 1.394 . S
C2111 C2112 1.516 . S
C2112 C2111 1.516 . S
C2112 C2113 1.502 . S
C2112 C2114 1.561 . S
C2112 C2115 1.526 . S
C2113 H2097 0.959 . S
C2113 H2098 0.959 . S
C2113 H2099 0.961 . S
C2113 C2112 1.502 . S
C2114 H2100 0.960 . S
C2114 H2101 0.961 . S
C2114 H2102 0.959 . S
C2114 C2112 1.561 . S
C2115 C2112 1.526 . S
C2115 C2116 1.396 . S
C2115 C2120 1.390 . S
C2116 C2110 1.465 . S
C2116 C2115 1.396 . S
C2116 C2117 1.399 . S
C2117 H2103 0.929 . S
C2117 C2116 1.399 . S
C2117 C2118 1.385 . S
C2118 H2104 0.931 . S
C2118 C2117 1.385 . S
C2118 C2119 1.389 . S
C2119 C2118 1.389 . S
C2119 C2120 1.387 . S
C2120 H2105 0.930 . S
C2120 C2115 1.390 . S
C2120 C2119 1.387 . S
H2121 C2133 0.930 . S
H2122 C2135 0.930 . S
H2123 C2136 0.930 . S
H2124 C2140 0.959 . S
H2125 C2140 0.959 . S
H2126 C2140 0.961 . S
H2127 C2141 0.960 . S
H2128 C2141 0.961 . S
H2129 C2141 0.959 . S
H2130 C2144 0.929 . S
H2131 C2145 0.931 . S
H2132 C2147 0.930 . S
C2133 H2121 0.930 . S
C2133 C2134 1.399 . S
C2133 C2138 1.399 . S
C2134 C2133 1.399 . S
C2134 C2135 1.376 . S
C2135 H2122 0.930 . S
C2135 C2134 1.376 . S
C2135 C2136 1.388 . S
C2136 H2123 0.930 . S
C2136 C2135 1.388 . S
C2136 C2137 1.390 . S
C2137 C2136 1.390 . S
C2137 C2138 1.394 . S
C2137 C2143 1.465 . S
C2138 C2133 1.399 . S
C2138 C2137 1.394 . S
C2138 C2139 1.516 . S
C2139 C2138 1.516 . S
C2139 C2140 1.502 . S
C2139 C2141 1.561 . S
C2139 C2142 1.526 . S
C2140 H2124 0.959 . S
C2140 H2125 0.959 . S
C2140 H2126 0.961 . S
C2140 C2139 1.502 . S
C2141 H2127 0.960 . S
C2141 H2128 0.961 . S
C2141 H2129 0.959 . S
C2141 C2139 1.561 . S
C2142 C2139 1.526 . S
C2142 C2143 1.396 . S
C2142 C2147 1.390 . S
C2143 C2137 1.465 . S
C2143 C2142 1.396 . S
C2143 C2144 1.399 . S
C2144 H2130 0.929 . S
C2144 C2143 1.399 . S
C2144 C2145 1.385 . S
C2145 H2131 0.931 . S
C2145 C2144 1.385 . S
C2145 C2146 1.389 . S
C2146 C2145 1.389 . S
C2146 C2147 1.387 . S
C2147 H2132 0.930 . S
C2147 C2142 1.390 . S
C2147 C2146 1.387 . S
H2148 C2160 0.930 . S
H2149 C2162 0.930 . S
H2150 C2163 0.930 1_455 S
H2151 C2167 0.959 . S
H2152 C2167 0.959 . S
H2153 C2167 0.961 1_655 S
H2154 C2168 0.960 . S
H2155 C2168 0.961 . S
H2156 C2168 0.959 . S
H2157 C2171 0.929 . S
H2158 C2172 0.931 . S
H2159 C2174 0.930 . S
C2160 H2148 0.930 . S
C2160 C2161 1.399 . S
C2160 C2165 1.399 . S
C2161 C2160 1.399 . S
C2161 C2162 1.376 . S
C2162 H2149 0.930 . S
C2162 C2161 1.376 . S
C2162 C2163 1.388 . S
C2163 H2150 0.930 1_655 S
C2163 C2162 1.388 . S
C2163 C2164 1.390 . S
C2164 C2163 1.390 . S
C2164 C2165 1.394 . S
C2164 C2170 1.465 1_655 S
C2165 C2160 1.399 . S
C2165 C2164 1.394 . S
C2165 C2166 1.516 . S
C2166 C2165 1.516 . S
C2166 C2167 1.502 1_655 S
C2166 C2168 1.561 . S
C2166 C2169 1.526 1_655 S
C2167 H2151 0.959 . S
C2167 H2152 0.959 . S
C2167 H2153 0.961 1_455 S
C2167 C2166 1.502 1_455 S
C2168 H2154 0.960 . S
C2168 H2155 0.961 . S
C2168 H2156 0.959 . S
C2168 C2166 1.561 . S
C2169 C2166 1.526 1_455 S
C2169 C2170 1.396 . S
C2169 C2174 1.390 . S
C2170 C2164 1.465 1_455 S
C2170 C2169 1.396 . S
C2170 C2171 1.399 . S
C2171 H2157 0.929 . S
C2171 C2170 1.399 . S
C2171 C2172 1.385 . S
C2172 H2158 0.931 . S
C2172 C2171 1.385 . S
C2172 C2173 1.389 . S
C2173 C2172 1.389 . S
C2173 C2174 1.387 . S
C2174 H2159 0.930 . S
C2174 C2169 1.390 . S
C2174 C2173 1.387 . S
H2175 C2187 0.930 . S
H2176 C2189 0.930 . S
H2177 C2190 0.930 . S
H2178 C2194 0.959 . S
H2179 C2194 0.959 . S
H2180 C2194 0.961 . S
H2181 C2195 0.960 . S
H2182 C2195 0.961 . S
H2183 C2195 0.959 . S
H2184 C2198 0.929 . S
H2185 C2199 0.931 . S
H2186 C2201 0.930 . S
C2187 H2175 0.930 . S
C2187 C2188 1.399 . S
C2187 C2192 1.399 . S
C2188 C2187 1.399 . S
C2188 C2189 1.376 . S
C2189 H2176 0.930 . S
C2189 C2188 1.376 . S
C2189 C2190 1.388 . S
C2190 H2177 0.930 . S
C2190 C2189 1.388 . S
C2190 C2191 1.390 . S
C2191 C2190 1.390 . S
C2191 C2192 1.394 . S
C2191 C2197 1.465 . S
C2192 C2187 1.399 . S
C2192 C2191 1.394 . S
C2192 C2193 1.516 . S
C2193 C2192 1.516 . S
C2193 C2194 1.502 . S
C2193 C2195 1.561 . S
C2193 C2196 1.526 . S
C2194 H2178 0.959 . S
C2194 H2179 0.959 . S
C2194 H2180 0.961 . S
C2194 C2193 1.502 . S
C2195 H2181 0.960 . S
C2195 H2182 0.961 . S
C2195 H2183 0.959 . S
C2195 C2193 1.561 . S
C2196 C2193 1.526 . S
C2196 C2197 1.396 . S
C2196 C2201 1.390 . S
C2197 C2191 1.465 . S
C2197 C2196 1.396 . S
C2197 C2198 1.399 . S
C2198 H2184 0.929 . S
C2198 C2197 1.399 . S
C2198 C2199 1.385 . S
C2199 H2185 0.931 . S
C2199 C2198 1.385 . S
C2199 C2200 1.389 . S
C2200 C2199 1.389 . S
C2200 C2201 1.387 . S
C2201 H2186 0.930 . S
C2201 C2196 1.390 . S
C2201 C2200 1.387 . S
H2202 C2214 0.930 . S
H2203 C2216 0.930 . S
H2204 C2217 0.930 . S
H2205 C2221 0.959 . S
H2206 C2221 0.959 . S
H2207 C2221 0.961 . S
H2208 C2222 0.960 . S
H2209 C2222 0.961 . S
H2210 C2222 0.959 . S
H2211 C2225 0.929 . S
H2212 C2226 0.931 . S
H2213 C2228 0.930 . S
C2214 H2202 0.930 . S
C2214 C2215 1.399 . S
C2214 C2219 1.399 . S
C2215 C2214 1.399 . S
C2215 C2216 1.376 . S
C2216 H2203 0.930 . S
C2216 C2215 1.376 . S
C2216 C2217 1.388 . S
C2217 H2204 0.930 . S
C2217 C2216 1.388 . S
C2217 C2218 1.390 . S
C2218 C2217 1.390 . S
C2218 C2219 1.394 . S
C2218 C2224 1.465 . S
C2219 C2214 1.399 . S
C2219 C2218 1.394 . S
C2219 C2220 1.516 . S
C2220 C2219 1.516 . S
C2220 C2221 1.502 . S
C2220 C2222 1.561 . S
C2220 C2223 1.526 . S
C2221 H2205 0.959 . S
C2221 H2206 0.959 . S
C2221 H2207 0.961 . S
C2221 C2220 1.502 . S
C2222 H2208 0.960 . S
C2222 H2209 0.961 . S
C2222 H2210 0.959 . S
C2222 C2220 1.561 . S
C2223 C2220 1.526 . S
C2223 C2224 1.396 . S
C2223 C2228 1.390 . S
C2224 C2218 1.465 . S
C2224 C2223 1.396 . S
C2224 C2225 1.399 . S
C2225 H2211 0.929 . S
C2225 C2224 1.399 . S
C2225 C2226 1.385 . S
C2226 H2212 0.931 . S
C2226 C2225 1.385 . S
C2226 C2227 1.389 . S
C2227 C2226 1.389 . S
C2227 C2228 1.387 . S
C2228 H2213 0.930 . S
C2228 C2223 1.390 . S
C2228 C2227 1.387 . S
H2229 C2241 0.930 . S
H2230 C2243 0.930 . S
H2231 C2244 0.930 . S
H2232 C2248 0.959 . S
H2233 C2248 0.959 . S
H2234 C2248 0.961 . S
H2235 C2249 0.959 1_655 S
H2236 C2249 0.961 . S
H2237 C2249 0.962 . S
H2238 C2252 0.929 . S
H2239 C2253 0.931 . S
H2240 C2255 0.930 . S
C2241 H2229 0.930 . S
C2241 C2242 1.399 . S
C2241 C2246 1.399 . S
C2242 C2241 1.399 . S
C2242 C2243 1.376 . S
C2243 H2230 0.930 . S
C2243 C2242 1.376 . S
C2243 C2244 1.388 1_655 S
C2244 H2231 0.930 . S
C2244 C2243 1.388 1_455 S
C2244 C2245 1.390 . S
C2245 C2244 1.390 . S
C2245 C2246 1.394 1_455 S
C2245 C2251 1.465 . S
C2246 C2241 1.399 . S
C2246 C2245 1.394 1_655 S
C2246 C2247 1.516 . S
C2247 C2246 1.516 . S
C2247 C2248 1.502 . S
C2247 C2249 1.560 1_655 S
C2247 C2250 1.526 1_655 S
C2248 H2232 0.959 . S
C2248 H2233 0.959 . S
C2248 H2234 0.961 . S
C2248 C2247 1.502 . S
C2249 H2235 0.959 1_455 S
C2249 H2236 0.961 . S
C2249 H2237 0.962 . S
C2249 C2247 1.560 1_455 S
C2250 C2247 1.526 1_455 S
C2250 C2251 1.396 . S
C2250 C2255 1.390 . S
C2251 C2245 1.465 . S
C2251 C2250 1.396 . S
C2251 C2252 1.399 . S
C2252 H2238 0.929 . S
C2252 C2251 1.399 . S
C2252 C2253 1.385 . S
C2253 H2239 0.931 . S
C2253 C2252 1.385 . S
C2253 C2254 1.389 . S
C2254 C2253 1.389 . S
C2254 C2255 1.387 . S
C2255 H2240 0.930 . S
C2255 C2250 1.390 . S
C2255 C2254 1.387 . S
H2256 C2268 0.930 . S
H2257 C2270 0.930 . S
H2258 C2271 0.930 . S
H2259 C2275 0.959 . S
H2260 C2275 0.959 . S
H2261 C2275 0.961 . S
H2262 C2276 0.960 . S
H2263 C2276 0.961 . S
H2264 C2276 0.959 . S
H2265 C2279 0.929 . S
H2266 C2280 0.931 . S
H2267 C2282 0.930 . S
C2268 H2256 0.930 . S
C2268 C2269 1.399 . S
C2268 C2273 1.399 . S
C2269 C2268 1.399 . S
C2269 C2270 1.376 . S
C2270 H2257 0.930 . S
C2270 C2269 1.376 . S
C2270 C2271 1.388 . S
C2271 H2258 0.930 . S
C2271 C2270 1.388 . S
C2271 C2272 1.390 . S
C2272 C2271 1.390 . S
C2272 C2273 1.394 . S
C2272 C2278 1.465 1_565 S
C2273 C2268 1.399 . S
C2273 C2272 1.394 . S
C2273 C2274 1.516 . S
C2274 C2273 1.516 . S
C2274 C2275 1.502 1_565 S
C2274 C2276 1.561 . S
C2274 C2277 1.526 1_565 S
C2275 H2259 0.959 . S
C2275 H2260 0.959 . S
C2275 H2261 0.961 . S
C2275 C2274 1.502 1_545 S
C2276 H2262 0.960 . S
C2276 H2263 0.961 . S
C2276 H2264 0.959 . S
C2276 C2274 1.561 . S
C2277 C2274 1.526 1_545 S
C2277 C2278 1.396 . S
C2277 C2282 1.390 . S
C2278 C2272 1.465 1_545 S
C2278 C2277 1.396 . S
C2278 C2279 1.399 . S
C2279 H2265 0.929 . S
C2279 C2278 1.399 . S
C2279 C2280 1.385 . S
C2280 H2266 0.931 . S
C2280 C2279 1.385 . S
C2280 C2281 1.389 . S
C2281 C2280 1.389 . S
C2281 C2282 1.387 . S
C2282 H2267 0.930 . S
C2282 C2277 1.390 . S
C2282 C2281 1.387 . S
H2283 C2295 0.930 . S
H2284 C2297 0.930 . S
H2285 C2298 0.930 . S
H2286 C2302 0.959 1_545 S
H2287 C2302 0.959 . S
H2288 C2302 0.961 1_545 S
H2289 C2303 0.960 . S
H2290 C2303 0.961 . S
H2291 C2303 0.959 . S
H2292 C2306 0.930 1_545 S
H2293 C2307 0.931 . S
H2294 C2309 0.930 . S
C2295 H2283 0.930 . S
C2295 C2296 1.399 . S
C2295 C2300 1.405 . S
C2296 C2295 1.399 . S
C2296 C2297 1.376 . S
C2297 H2284 0.930 . S
C2297 C2296 1.376 . S
C2297 C2298 1.388 . S
C2298 H2285 0.930 . S
C2298 C2297 1.388 . S
C2298 C2299 1.390 . S
C2299 C2298 1.390 . S
C2299 C2300 1.396 . S
C2299 C2305 1.465 1_545 S
C2300 C2295 1.405 . S
C2300 C2299 1.396 . S
C2300 C2301 1.508 1_545 S
C2301 C2300 1.508 1_565 S
C2301 C2302 1.502 . S
C2301 C2303 1.561 . S
C2301 C2304 1.526 . S
C2302 H2286 0.959 1_565 S
C2302 H2287 0.959 . S
C2302 H2288 0.961 1_565 S
C2302 C2301 1.502 . S
C2303 H2289 0.960 . S
C2303 H2290 0.961 . S
C2303 H2291 0.959 . S
C2303 C2301 1.561 . S
C2304 C2301 1.526 . S
C2304 C2305 1.396 . S
C2304 C2309 1.390 . S
C2305 C2299 1.465 1_565 S
C2305 C2304 1.396 . S
C2305 C2306 1.399 . S
C2306 H2292 0.930 1_565 S
C2306 C2305 1.399 . S
C2306 C2307 1.385 . S
C2307 H2293 0.931 . S
C2307 C2306 1.385 . S
C2307 C2308 1.389 . S
C2308 C2307 1.389 . S
C2308 C2309 1.387 . S
C2309 H2294 0.930 . S
C2309 C2304 1.390 . S
C2309 C2308 1.387 . S
H2310 C2322 0.930 . S
H2311 C2324 0.930 . S
H2312 C2325 0.930 . S
H2313 C2329 0.959 . S
H2314 C2329 0.959 . S
H2315 C2329 0.961 . S
H2316 C2330 0.960 . S
H2317 C2330 0.961 . S
H2318 C2330 0.959 . S
H2319 C2333 0.929 . S
H2320 C2334 0.931 . S
H2321 C2336 0.930 . S
C2322 H2310 0.930 . S
C2322 C2323 1.399 . S
C2322 C2327 1.399 . S
C2323 C2322 1.399 . S
C2323 C2324 1.376 . S
C2324 H2311 0.930 . S
C2324 C2323 1.376 . S
C2324 C2325 1.388 . S
C2325 H2312 0.930 . S
C2325 C2324 1.388 . S
C2325 C2326 1.390 . S
C2326 C2325 1.390 . S
C2326 C2327 1.394 . S
C2326 C2332 1.465 . S
C2327 C2322 1.399 . S
C2327 C2326 1.394 . S
C2327 C2328 1.516 . S
C2328 C2327 1.516 . S
C2328 C2329 1.502 . S
C2328 C2330 1.561 . S
C2328 C2331 1.526 . S
C2329 H2313 0.959 . S
C2329 H2314 0.959 . S
C2329 H2315 0.961 . S
C2329 C2328 1.502 . S
C2330 H2316 0.960 . S
C2330 H2317 0.961 . S
C2330 H2318 0.959 . S
C2330 C2328 1.561 . S
C2331 C2328 1.526 . S
C2331 C2332 1.396 . S
C2331 C2336 1.390 . S
C2332 C2326 1.465 . S
C2332 C2331 1.396 . S
C2332 C2333 1.399 . S
C2333 H2319 0.929 . S
C2333 C2332 1.399 . S
C2333 C2334 1.385 . S
C2334 H2320 0.931 . S
C2334 C2333 1.385 . S
C2334 C2335 1.389 . S
C2335 C2334 1.389 . S
C2335 C2336 1.387 . S
C2336 H2321 0.930 . S
C2336 C2331 1.390 . S
C2336 C2335 1.387 . S
H2337 C2349 0.930 . S
H2338 C2351 0.930 . S
H2339 C2352 0.930 . S
H2340 C2356 0.959 . S
H2341 C2356 0.959 . S
H2342 C2356 0.961 . S
H2343 C2357 0.960 . S
H2344 C2357 0.961 . S
H2345 C2357 0.959 . S
H2346 C2360 0.929 . S
H2347 C2361 0.931 . S
H2348 C2363 0.930 . S
C2349 H2337 0.930 . S
C2349 C2350 1.399 . S
C2349 C2354 1.399 . S
C2350 C2349 1.399 . S
C2350 C2351 1.376 . S
C2351 H2338 0.930 . S
C2351 C2350 1.376 . S
C2351 C2352 1.388 . S
C2352 H2339 0.930 . S
C2352 C2351 1.388 . S
C2352 C2353 1.390 . S
C2353 C2352 1.390 . S
C2353 C2354 1.394 . S
C2353 C2359 1.465 . S
C2354 C2349 1.399 . S
C2354 C2353 1.394 . S
C2354 C2355 1.516 . S
C2355 C2354 1.516 . S
C2355 C2356 1.502 . S
C2355 C2357 1.561 . S
C2355 C2358 1.526 . S
C2356 H2340 0.959 . S
C2356 H2341 0.959 . S
C2356 H2342 0.961 . S
C2356 C2355 1.502 . S
C2357 H2343 0.960 . S
C2357 H2344 0.961 . S
C2357 H2345 0.959 . S
C2357 C2355 1.561 . S
C2358 C2355 1.526 . S
C2358 C2359 1.396 . S
C2358 C2363 1.390 . S
C2359 C2353 1.465 . S
C2359 C2358 1.396 . S
C2359 C2360 1.399 . S
C2360 H2346 0.929 . S
C2360 C2359 1.399 . S
C2360 C2361 1.385 . S
C2361 H2347 0.931 . S
C2361 C2360 1.385 . S
C2361 C2362 1.389 . S
C2362 C2361 1.389 . S
C2362 C2363 1.387 . S
C2363 H2348 0.930 . S
C2363 C2358 1.390 . S
C2363 C2362 1.387 . S
H2364 C2376 0.930 . S
H2365 C2378 0.930 . S
H2366 C2379 0.930 . S
H2367 C2383 0.959 . S
H2368 C2383 0.959 . S
H2369 C2383 0.961 . S
H2370 C2384 0.960 . S
H2371 C2384 0.961 . S
H2372 C2384 0.959 . S
H2373 C2387 0.929 . S
H2374 C2388 0.931 . S
H2375 C2390 0.930 1_556 S
C2376 H2364 0.930 . S
C2376 C2377 1.399 . S
C2376 C2381 1.399 . S
C2377 C2376 1.399 . S
C2377 C2378 1.376 1_556 S
C2378 H2365 0.930 . S
C2378 C2377 1.376 1_554 S
C2378 C2379 1.388 . S
C2379 H2366 0.930 . S
C2379 C2378 1.388 . S
C2379 C2380 1.390 . S
C2380 C2379 1.390 . S
C2380 C2381 1.394 1_554 S
C2380 C2386 1.465 . S
C2381 C2376 1.399 . S
C2381 C2380 1.394 1_556 S
C2381 C2382 1.516 . S
C2382 C2381 1.516 . S
C2382 C2383 1.502 . S
C2382 C2384 1.561 . S
C2382 C2385 1.547 . S
C2383 H2367 0.959 . S
C2383 H2368 0.959 . S
C2383 H2369 0.961 . S
C2383 C2382 1.502 . S
C2384 H2370 0.960 . S
C2384 H2371 0.961 . S
C2384 H2372 0.959 . S
C2384 C2382 1.561 . S
C2385 C2382 1.547 . S
C2385 C2386 1.379 1_556 S
C2385 C2390 1.384 1_556 S
C2386 C2380 1.465 . S
C2386 C2385 1.379 1_554 S
C2386 C2387 1.399 . S
C2387 H2373 0.929 . S
C2387 C2386 1.399 . S
C2387 C2388 1.385 . S
C2388 H2374 0.931 . S
C2388 C2387 1.385 . S
C2388 C2389 1.389 . S
C2389 C2388 1.389 . S
C2389 C2390 1.387 . S
C2390 H2375 0.930 1_554 S
C2390 C2385 1.384 1_554 S
C2390 C2389 1.387 . S
H2391 C2403 0.931 . S
H2392 C2405 0.930 . S
H2393 C2406 0.930 . S
H2394 C2410 0.959 . S
H2395 C2410 0.959 . S
H2396 C2410 0.961 . S
H2397 C2411 0.960 . S
H2398 C2411 0.961 . S
H2399 C2411 0.959 . S
H2400 C2414 0.929 . S
H2401 C2415 0.931 1_556 S
H2402 C2417 0.930 . S
C2403 H2391 0.931 . S
C2403 C2404 1.399 . S
C2403 C2408 1.399 . S
C2404 C2403 1.399 . S
C2404 C2405 1.376 . S
C2405 H2392 0.930 . S
C2405 C2404 1.376 . S
C2405 C2406 1.388 . S
C2406 H2393 0.930 . S
C2406 C2405 1.388 . S
C2406 C2407 1.390 . S
C2407 C2406 1.390 . S
C2407 C2408 1.394 . S
C2407 C2413 1.465 . S
C2408 C2403 1.399 . S
C2408 C2407 1.394 . S
C2408 C2409 1.516 1_556 S
C2409 C2408 1.516 1_554 S
C2409 C2410 1.502 . S
C2409 C2411 1.561 . S
C2409 C2412 1.526 . S
C2410 H2394 0.959 . S
C2410 H2395 0.959 . S
C2410 H2396 0.961 . S
C2410 C2409 1.502 . S
C2411 H2397 0.960 . S
C2411 H2398 0.961 . S
C2411 H2399 0.959 . S
C2411 C2409 1.561 . S
C2412 C2409 1.526 . S
C2412 C2413 1.396 1_554 S
C2412 C2417 1.390 . S
C2413 C2407 1.465 . S
C2413 C2412 1.396 1_556 S
C2413 C2414 1.399 . S
C2414 H2400 0.929 . S
C2414 C2413 1.399 . S
C2414 C2415 1.385 1_556 S
C2415 H2401 0.931 1_554 S
C2415 C2414 1.385 1_554 S
C2415 C2416 1.389 . S
C2416 C2415 1.389 . S
C2416 C2417 1.387 . S
C2417 H2402 0.930 . S
C2417 C2412 1.390 . S
C2417 C2416 1.387 . S
H2418 C2430 0.930 . S
H2419 C2432 0.930 . S
H2420 C2433 0.930 . S
H2421 C2437 0.959 . S
H2422 C2437 0.959 . S
H2423 C2437 0.961 . S
H2424 C2438 0.960 . S
H2425 C2438 0.961 . S
H2426 C2438 0.959 . S
H2427 C2441 0.929 . S
H2428 C2442 0.931 . S
H2429 C2444 0.930 . S
C2430 H2418 0.930 . S
C2430 C2431 1.399 . S
C2430 C2435 1.399 . S
C2431 C2430 1.399 . S
C2431 C2432 1.376 . S
C2432 H2419 0.930 . S
C2432 C2431 1.376 . S
C2432 C2433 1.388 . S
C2433 H2420 0.930 . S
C2433 C2432 1.388 . S
C2433 C2434 1.390 . S
C2434 C2433 1.390 . S
C2434 C2435 1.394 . S
C2434 C2440 1.465 . S
C2435 C2430 1.399 . S
C2435 C2434 1.394 . S
C2435 C2436 1.516 . S
C2436 C2435 1.516 . S
C2436 C2437 1.502 . S
C2436 C2438 1.561 . S
C2436 C2439 1.526 . S
C2437 H2421 0.959 . S
C2437 H2422 0.959 . S
C2437 H2423 0.961 . S
C2437 C2436 1.502 . S
C2438 H2424 0.960 . S
C2438 H2425 0.961 . S
C2438 H2426 0.959 . S
C2438 C2436 1.561 . S
C2439 C2436 1.526 . S
C2439 C2440 1.396 . S
C2439 C2444 1.390 . S
C2440 C2434 1.465 . S
C2440 C2439 1.396 . S
C2440 C2441 1.399 . S
C2441 H2427 0.929 . S
C2441 C2440 1.399 . S
C2441 C2442 1.385 . S
C2442 H2428 0.931 . S
C2442 C2441 1.385 . S
C2442 C2443 1.389 . S
C2443 C2442 1.389 . S
C2443 C2444 1.387 . S
C2444 H2429 0.930 . S
C2444 C2439 1.390 . S
C2444 C2443 1.387 . S
H2445 C2457 0.930 . S
H2446 C2459 0.930 . S
H2447 C2460 0.930 . S
H2448 C2464 0.959 . S
H2449 C2464 0.959 . S
H2450 C2464 0.961 . S
H2451 C2465 0.960 . S
H2452 C2465 0.961 . S
H2453 C2465 0.959 . S
H2454 C2468 0.929 . S
H2455 C2469 0.931 . S
H2456 C2471 0.930 . S
C2457 H2445 0.930 . S
C2457 C2458 1.399 . S
C2457 C2462 1.399 . S
C2458 C2457 1.399 . S
C2458 C2459 1.376 . S
C2459 H2446 0.930 . S
C2459 C2458 1.376 . S
C2459 C2460 1.388 . S
C2460 H2447 0.930 . S
C2460 C2459 1.388 . S
C2460 C2461 1.390 . S
C2461 C2460 1.390 . S
C2461 C2462 1.394 . S
C2461 C2467 1.465 . S
C2462 C2457 1.399 . S
C2462 C2461 1.394 . S
C2462 C2463 1.516 . S
C2463 C2462 1.516 . S
C2463 C2464 1.502 . S
C2463 C2465 1.561 . S
C2463 C2466 1.526 . S
C2464 H2448 0.959 . S
C2464 H2449 0.959 . S
C2464 H2450 0.961 . S
C2464 C2463 1.502 . S
C2465 H2451 0.960 . S
C2465 H2452 0.961 . S
C2465 H2453 0.959 . S
C2465 C2463 1.561 . S
C2466 C2463 1.526 . S
C2466 C2467 1.396 . S
C2466 C2471 1.390 . S
C2467 C2461 1.465 . S
C2467 C2466 1.396 . S
C2467 C2468 1.399 . S
C2468 H2454 0.929 . S
C2468 C2467 1.399 . S
C2468 C2469 1.385 . S
C2469 H2455 0.931 . S
C2469 C2468 1.385 . S
C2469 C2470 1.389 . S
C2470 C2469 1.389 . S
C2470 C2471 1.387 . S
C2471 H2456 0.930 . S
C2471 C2466 1.390 . S
C2471 C2470 1.387 . S
C541 C7 1.188 . S
C553 C414 1.171 . S
C568 C426 1.187 . S
C580 C29 1.163 . S
C595 C65 1.167 . S
C607 C360 1.193 . S
C622 C81 1.187 . S
C634 C392 1.172 . S
C649 C494 1.170 . S
C661 C109 1.200 . S
C676 C125 1.156 . S
C688 C480 1.192 . S
C703 C514 1.169 . S
C715 C153 1.200 . S
C730 C175 1.196 . S
C742 C448 1.168 . S
C757 C197 1.157 . S
C769 C304 1.191 . S
C784 C205 1.159 . S
C796 C338 1.197 . S
C811 C316 1.169 . S
C823 C227 1.200 . S
C838 C257 1.157 . S
C850 C272 1.197 . S
C865 C285 1.199 . S
C877 C140 1.180 . S
C892 C293 1.188 . S
C904 C162 1.167 . S
C919 C329 1.195 . S
C931 C96 1.167 . S
C946 C120 1.187 . S
C958 C351 1.191 . S
C973 C373 1.171 . S
C985 C238 1.197 . S
C1000 C216 1.171 . S
C1012 C381 1.172 . S
C1027 C252 1.175 . S
C1039 C403 1.165 . S
C1054 C184 1.193 . S
C1066 C439 1.182 . S
C1081 C40 1.190 . S
C1093 C461 1.153 . S
C1108 C76 1.198 . S
C1120 C469 1.168 . S
C1135 C52 1.172 . S
C1147 C499 1.201 . S
C1162 C527 1.176 . S
C1174 C18 1.170 . S
C1189 C433 1.061 . S
C1201 C15 1.050 . S
C1216 C417 1.073 . S
C1228 C37 1.086 . S
C1243 C51 1.083 . S
C1255 C395 1.091 . S
C1270 C367 1.027 . S
C1282 C87 1.046 . S
C1297 C95 1.028 . S
C1309 C521 1.014 . S
C1324 C131 1.058 . S
C1336 C455 1.040 . S
C1351 C491 1.007 . S
C1363 C139 1.017 . S
C1378 C161 1.022 . S
C1390 C483 1.010 . S
C1405 C323 1.096 . S
C1417 C183 1.101 . S
C1432 C279 1.095 . S
C1444 C213 1.086 . S
C1459 C307 1.008 . S
C1471 C235 1.021 . S
C1486 C345 1.011 . S
C1498 C263 1.025 . S
C1513 C271 1.090 . S
C1525 C169 1.048 . S
C1540 C301 1.014 . S
C1552 C147 1.021 . S
C1567 C117 1.009 . S
C1579 C315 1.025 . S
C1594 C103 1.015 . S
C1606 C337 1.057 . S
C1621 C249 1.084 . S
C1633 C359 1.047 . S
C1648 C389 1.053 . S
C1660 C191 1.014 . S
C1675 C241 1.008 . S
C1687 C411 1.043 . S
C1702 C219 1.062 . S
C1714 C425 1.027 . S
C1729 C447 1.103 . S
C1741 C59 1.089 . S
C1756 C477 1.081 . S
C1768 C21 1.102 . S
C1783 C43 1.098 . S
C1795 C505 1.098 . S
C1810 C73 1.021 . S
C1822 C513 1.015 . S
C1837 C10 1.084 . S
C1849 C206 1.082 . S
C1864 C228 0.998 . S
C1876 C32 0.995 . S
C1891 C186 0.999 . S
C1903 C62 0.997 . S
C1918 C260 1.081 . S
C1930 C74 1.078 . S
C1945 C106 1.005 . S
C1957 C84 1.013 . S
C1972 C54 1.074 . S
C1984 C118 1.075 . S
C1999 C150 1.085 . S
C2011 C30 1.084 . S
C2026 C8 1.000 . S
C2038 C172 0.995 . S
C2053 C194 1.011 . S
C2065 C128 1.012 . S
C2080 C208 1.026 . S
C2092 C164 1.026 . S
C2107 C230 1.070 . S
C2119 C142 1.067 . S
C2134 C250 1.085 . S
C2146 C98 1.083 . S
C2161 C282 0.993 . S
C2173 C470 1.004 . S
C2188 C296 1.002 . S
C2200 C502 0.999 . S
C2215 C450 1.072 . S
C2227 C326 1.085 . S
C2242 C516 1.053 . S
C2254 C348 1.077 . S
C2269 C370 0.996 . S
C2281 C340 1.001 . S
C2296 C384 1.085 . S
C2308 C318 1.079 . S
C2323 C294 1.085 . S
C2335 C406 1.069 . S
C2350 C436 0.994 . S
C2362 C274 1.004 . S
C2377 C458 1.003 . S
C2389 C382 1.035 . S
C2404 C428 1.085 . S
C2416 C472 1.075 . S
C2431 C492 1.061 . S
C2443 C404 1.033 . S
C2458 C524 1.074 . S
C2470 C362 1.047 . S
