# Generated by pormake.
# Topology vcu, (8)-cn, num edge types: 1
# Building blocks:
#     Node 0, Type 0, BuildingBlock: TAGTUT_clean_sbu_3, # of connection points: 8
#     Node 1, Type 0, BuildingBlock: TAGTUT_clean_sbu_3, # of connection points: 8
#     Node 2, Type 0, BuildingBlock: TAGTUT_clean_sbu_3, # of connection points: 8
#     Node 3, Type 0, BuildingBlock: TAGTUT_clean_sbu_3, # of connection points: 8
#     Node 4, Type 0, BuildingBlock: TAGTUT_clean_sbu_3, # of connection points: 8
#     Node 5, Type 0, BuildingBlock: TAGTUT_clean_sbu_3, # of connection points: 8
#     Node 6, Type 0, BuildingBlock: TAGTUT_clean_sbu_3, # of connection points: 8
#     Node 7, Type 0, BuildingBlock: TAGTUT_clean_sbu_3, # of connection points: 8
#     Edge 8, Type (0, 0), None
#     Edge 9, Type (0, 0), None
#     Edge 10, Type (0, 0), None
#     Edge 11, Type (0, 0), None
#     Edge 12, Type (0, 0), None
#     Edge 13, Type (0, 0), None
#     Edge 14, Type (0, 0), None
#     Edge 15, Type (0, 0), None
#     Edge 16, Type (0, 0), None
#     Edge 17, Type (0, 0), None
#     Edge 18, Type (0, 0), None
#     Edge 19, Type (0, 0), None
#     Edge 20, Type (0, 0), None
#     Edge 21, Type (0, 0), None
#     Edge 22, Type (0, 0), None
#     Edge 23, Type (0, 0), None
#     Edge 24, Type (0, 0), None
#     Edge 25, Type (0, 0), None
#     Edge 26, Type (0, 0), None
#     Edge 27, Type (0, 0), None
#     Edge 28, Type (0, 0), None
#     Edge 29, Type (0, 0), None
#     Edge 30, Type (0, 0), None
#     Edge 31, Type (0, 0), None
#     Edge 32, Type (0, 0), None
#     Edge 33, Type (0, 0), None
#     Edge 34, Type (0, 0), None
#     Edge 35, Type (0, 0), None
#     Edge 36, Type (0, 0), None
#     Edge 37, Type (0, 0), None
#     Edge 38, Type (0, 0), None
#     Edge 39, Type (0, 0), None
# Relax obj value: 0.214
# Max RMSD: 0.293
# Mean RMSD: 0.291
data_MOF--net-vcu--node1-TAGTUT_clean_sbu_3--edge1-none
_symmetry_space_group_name_H-M    P1
_symmetry_Int_Tables_number       1
_symmetry_cell_setting            triclinic
loop_
_symmetry_equiv_pos_as_xyz
'x, y, z'
_cell_length_a     11.019696
_cell_length_b     17.002608
_cell_length_c     26.937199
_cell_angle_alpha  93.253457
_cell_angle_beta   89.861722
_cell_angle_gamma 89.812462
loop_
_atom_site_label
_atom_site_type_symbol
_atom_site_fract_x
_atom_site_fract_y
_atom_site_fract_z
_atom_type_partial_charge
C0 C 0.46638 0.36568 0.22506 0.0
C1 C 0.80769 0.35589 0.28254 0.0
C2 C 0.73343 0.19029 0.39451 0.0
Mg3 Mg 0.20193 0.3753 0.25289 0.0
Mg4 Mg 0.11673 0.45256 0.35996 0.0
O5 O 0.20184 0.37171 0.32648 0.0
Mg6 Mg 0.37494 0.35226 0.3421 0.0
O7 O 0.54543 0.31865 0.35093 0.0
Mg8 Mg 0.58469 0.23585 0.29517 0.0
Mg9 Mg 0.68576 0.36626 0.37057 0.0
C10 C 0.20702 0.33456 0.43881 0.0
O11 O 0.41071 0.45801 0.40482 0.0
O12 O 0.00178 0.34546 0.25659 0.0
O13 O 0.61006 0.4466 0.42287 0.0
O14 O 0.14729 0.51753 0.25683 0.0
O15 O 0.94943 0.42711 0.32174 0.0
O16 O 0.17197 0.56579 0.33445 0.0
O17 O 0.37788 0.22588 0.30837 0.0
O18 O 0.23795 0.23343 0.25063 0.0
C19 C 0.30982 0.19216 0.27648 0.0
C20 C 0.92226 0.37809 0.28549 0.0
O21 O 0.29629 0.30942 0.41138 0.0
O22 O 0.78221 0.28205 0.27999 0.0
O23 O 0.14156 0.39543 0.43045 0.0
O24 O 0.65344 0.1679 0.36208 0.0
O25 O 0.73234 0.40427 0.30201 0.0
O26 O 0.7717 0.26164 0.39857 0.0
O27 O 0.40924 0.40034 0.26135 0.0
O28 O 0.53068 0.30543 0.23165 0.0
C29 C 0.14963 0.57736 0.28888 0.0
C30 C 0.50221 0.4669 0.43522 0.0
C31 C -0.02538 0.9822 0.91293 0.0
C32 C 0.29738 0.84542 0.7869 0.0
C33 C 0.47498 0.07419 0.80604 0.0
Mg34 Mg 0.82339 0.12087 0.90412 0.0
Mg35 Mg 0.79274 0.23047 0.80973 0.0
O36 O 0.90252 0.18206 0.85257 0.0
Mg37 Mg 0.02908 0.10324 0.8276 0.0
O38 O 0.15234 0.01828 0.80811 0.0
Mg39 Mg 0.23868 -0.00134 0.87171 0.0
Mg40 Mg 0.2516 0.00878 0.75083 0.0
C41 C 0.0555 0.27374 0.77539 0.0
O42 O 0.94355 0.0809 0.7469 0.0
O43 O 0.73098 0.2301 0.93051 0.0
O44 O 0.11252 0.04597 0.7024 0.0
O45 O 0.65091 0.09199 0.85582 0.0
O46 O 0.70155 0.30616 0.86598 0.0
O47 O 0.64905 0.15027 0.78377 0.0
O48 O 0.14527 0.12043 0.8977 0.0
O49 O -0.00539 0.15187 -0.04929 0.0
C50 C 0.10757 0.14006 -0.05847 0.0
C51 C 0.69084 0.29207 0.91201 0.0
O52 O 0.10918 0.21514 0.79485 0.0
O53 O 0.29224 0.87625 0.83182 0.0
O54 O 0.94112 0.27518 0.76566 0.0
O55 O 0.4176 0.05209 0.844 0.0
O56 O 0.2856 0.88577 0.74876 0.0
O57 O 0.42527 0.0706 0.76317 0.0
O58 O 0.92734 0.01529 0.87588 0.0
O59 O 0.07576 0.94682 0.90771 0.0
C60 C 0.59975 0.10528 0.81438 0.0
C61 C 0.00049 0.06656 0.70506 0.0
C62 C 0.81735 0.27954 0.60873 0.0
C63 C 0.4455 0.10341 0.57722 0.0
C64 C 0.6531 0.89917 0.58859 0.0
Mg65 Mg 0.08584 0.22683 0.58595 0.0
Mg66 Mg 0.14328 0.10478 0.48907 0.0
O67 O 0.05502 0.12658 0.54434 0.0
Mg68 Mg 0.88021 0.11783 0.54373 0.0
O69 O 0.70797 0.11274 0.55315 0.0
Mg70 Mg 0.69753 0.10017 0.62731 0.0
Mg71 Mg 0.65991 0.02519 0.51392 0.0
C72 C -0.02112 0.98452 0.45513 0.0
O73 O 0.84004 0.16579 0.46807 0.0
O74 O 0.28234 0.18252 0.59476 0.0
O75 O 0.6971 0.07837 0.44196 0.0
O76 O 0.14009 0.29393 0.51678 0.0
O77 O 0.29304 0.09866 0.52758 0.0
O78 O 0.15113 0.20715 0.45086 0.0
O79 O 0.901 0.07214 0.62589 0.0
O80 O 0.03406 0.16328 0.65235 0.0
C81 C -0.0364 0.10651 0.66092 0.0
C82 C 0.33618 0.12841 0.56777 0.0
O83 O 0.88992 0.00355 0.48497 0.0
O84 O 0.50321 0.12919 0.61578 0.0
O85 O 0.0852 -0.00941 0.47181 0.0
O86 O 0.64232 0.95947 0.61981 0.0
O87 O 0.49161 0.05757 0.54259 0.0
O88 O 0.68961 0.90957 0.54427 0.0
O89 O 0.88355 0.24395 0.57631 0.0
O90 O 0.74045 0.24035 0.63354 0.0
C91 C 0.15899 0.27677 0.47063 0.0
C92 C 0.76373 0.13917 0.43524 0.0
C93 C 0.60715 0.33593 -0.05632 0.0
C94 C 0.19062 0.18391 -0.02674 0.0
C95 C 0.09868 0.37078 0.07074 0.0
Mg96 Mg 0.73716 0.47694 0.01353 0.0
Mg97 Mg 0.74989 0.46697 0.13451 0.0
O98 O 0.65077 0.4572 0.07731 0.0
Mg99 Mg 0.52822 0.37235 0.05782 0.0
O100 O 0.40201 0.29379 0.03276 0.0
Mg101 Mg 0.32291 0.35495 -0.01891 0.0
Mg102 Mg 0.29184 0.24535 0.0754 0.0
C103 C 0.50247 0.40658 0.18114 0.0
O104 O 0.60822 0.26004 0.09002 0.0
O105 O 0.79019 0.59902 0.05339 0.0
O106 O 0.43973 0.20194 0.12009 0.0
O107 O 0.91609 0.42326 0.04106 0.0
O108 O 0.7823 0.59015 0.13651 0.0
O109 O 0.92412 0.40581 0.12203 0.0
O110 O 0.42624 0.46048 0.00918 0.0
O111 O 0.57439 0.52964 -0.02206 0.0
C112 C 0.4743 0.49369 -0.02774 0.0
C113 C 0.79468 0.63016 0.09823 0.0
O114 O 0.44481 0.39343 0.13943 0.0
O115 O 0.23081 0.24579 -0.04524 0.0
O116 O 0.614 0.42756 0.18361 0.0
O117 O 0.15009 0.38407 0.0293 0.0
O118 O 0.20135 0.16964 0.01925 0.0
O119 O 0.14792 0.3258 0.10136 0.0
O120 O 0.64406 0.35549 -0.01248 0.0
O121 O 0.49455 0.32362 0.93453 0.0
C122 C -0.02633 0.40171 0.07906 0.0
C123 C 0.55386 0.20201 0.10967 0.0
C124 C 0.62446 0.62946 0.44308 0.0
C125 C 0.20533 0.79166 0.4676 0.0
C126 C 0.11669 0.63015 0.56938 0.0
Mg127 Mg 0.75249 0.50413 0.52108 0.0
Mg128 Mg 0.77006 0.54154 0.64086 0.0
O129 O 0.67993 0.55232 0.58242 0.0
Mg130 Mg 0.54868 0.62745 0.55766 0.0
O131 O 0.41838 0.69578 0.52938 0.0
Mg132 Mg 0.33868 0.6212 0.47922 0.0
Mg133 Mg 0.31412 0.75916 0.57106 0.0
C134 C 0.5047 0.59875 0.67756 0.0
O135 O 0.63337 0.75572 0.58334 0.0
O136 O 0.8167 0.39257 0.56128 0.0
O137 O 0.46806 0.83184 0.60226 0.0
O138 O 0.93541 0.56843 0.54044 0.0
O139 O 0.78316 0.41236 0.64289 0.0
O140 O 0.94648 0.59815 0.62253 0.0
O141 O 0.43642 0.52566 0.51534 0.0
O142 O 0.57481 0.43664 0.51269 0.0
C143 C 0.48888 0.46948 0.4907 0.0
C144 C 0.80752 0.36639 0.60498 0.0
O145 O 0.46084 0.61383 0.63467 0.0
O146 O 0.24659 0.72608 0.44911 0.0
O147 O 0.61775 0.5853 0.68615 0.0
O148 O 0.16728 0.60715 0.52821 0.0
O149 O 0.21777 0.81549 0.51317 0.0
O150 O 0.16649 0.68297 0.59872 0.0
O151 O 0.66012 0.61967 0.48736 0.0
O152 O 0.51164 0.63711 0.43278 0.0
C153 C -0.00712 0.5979 0.57863 0.0
C154 C 0.58418 0.8237 0.5965 0.0
C155 C 0.79194 0.83748 0.93801 0.0
C156 C 0.21015 0.68535 -0.02454 0.0
C157 C 0.29958 0.87336 0.06633 0.0
Mg158 Mg 0.66098 0.97866 0.00914 0.0
Mg159 Mg 0.65736 0.95379 0.13078 0.0
O160 O 0.75095 0.95761 0.07161 0.0
Mg161 Mg 0.87028 0.87354 0.04875 0.0
O162 O -0.00574 0.79432 0.02455 0.0
Mg163 Mg 0.07744 0.85626 -0.02466 0.0
Mg164 Mg 0.10104 0.75415 0.07246 0.0
C165 C 0.91603 0.88926 0.16553 0.0
O166 O 0.7892 0.7645 0.08279 0.0
O167 O 0.60977 0.09726 0.05358 0.0
O168 O 0.95583 0.71161 0.11753 0.0
O169 O 0.48288 0.92574 0.03723 0.0
O170 O 0.6204 0.07911 0.13611 0.0
O171 O 0.47959 0.89737 0.11656 0.0
O172 O -0.02835 0.96218 0.00159 0.0
O173 O 0.82193 0.03064 -0.02907 0.0
C174 C 0.92318 -0.00456 -0.03504 0.0
C175 C 0.60534 0.12339 0.0996 0.0
O176 O -0.03631 0.89341 0.12218 0.0
O177 O 0.17083 0.74508 -0.04614 0.0
O178 O 0.8027 0.90225 0.17507 0.0
O179 O 0.25007 0.88536 0.02433 0.0
O180 O 0.19591 0.67464 0.02168 0.0
O181 O 0.24627 0.83228 0.09794 0.0
O182 O 0.7538 0.85804 -0.01856 0.0
O183 O 0.90513 0.82505 0.92891 0.0
C184 C 0.42656 0.90076 0.07456 0.0
C185 C 0.84324 0.70935 0.10531 0.0
C186 C 0.11947 0.83041 0.43722 0.0
C187 C 0.70683 0.66985 0.41185 0.0
C188 C 0.60851 0.84003 0.31379 0.0
Mg189 Mg 0.24292 0.96595 0.36518 0.0
Mg190 Mg 0.26139 0.93113 0.24444 0.0
O191 O 0.16723 0.92442 0.30262 0.0
Mg192 Mg 0.04082 0.84534 0.32497 0.0
O193 O 0.91262 0.77321 0.3507 0.0
Mg194 Mg 0.83261 0.84331 0.40306 0.0
Mg195 Mg 0.80882 0.71069 0.30869 0.0
C196 C -0.0019 0.87671 0.20655 0.0
O197 O 0.12802 0.71995 0.29489 0.0
O198 O 0.30053 0.07999 0.32493 0.0
O199 O -0.0348 0.64372 0.2737 0.0
O200 O 0.42661 0.90297 0.34273 0.0
O201 O 0.27725 0.05964 0.24252 0.0
O202 O 0.43747 0.8723 0.26105 0.0
O203 O 0.9279 0.94465 0.37068 0.0
O204 O 0.06543 0.03345 0.38409 0.0
C205 C -0.02567 -0.00272 0.4004 0.0
C206 C 0.29571 0.10583 0.28084 0.0
O207 O 0.95271 0.86268 0.24933 0.0
O208 O 0.74462 0.73588 0.43044 0.0
O209 O 0.11168 0.88826 0.19814 0.0
O210 O 0.65904 0.86153 0.3552 0.0
O211 O 0.71792 0.6479 0.36583 0.0
O212 O 0.65864 0.78796 0.28374 0.0
O213 O 0.15431 0.84643 0.39392 0.0
O214 O 0.00705 0.82075 0.44756 0.0
C215 C 0.48451 0.87308 0.30469 0.0
C216 C 0.08101 0.65247 0.27975 0.0
C217 C 0.4251 0.48004 0.91992 0.0
C218 C 0.10865 0.35184 0.78504 0.0
C219 C 0.93027 0.57467 0.80986 0.0
Mg220 Mg 0.57924 0.61899 0.90926 0.0
Mg221 Mg 0.60308 0.72108 0.81209 0.0
O222 O 0.49615 0.6808 0.85999 0.0
Mg223 Mg 0.37329 0.60164 0.83571 0.0
O224 O 0.25508 0.51748 0.81268 0.0
Mg225 Mg 0.16422 0.49665 0.87522 0.0
Mg226 Mg 0.16231 0.52131 0.75338 0.0
C227 C 0.34576 0.766 0.77945 0.0
O228 O 0.4681 0.58223 0.76201 0.0
O229 O 0.67124 0.73031 0.93053 0.0
O230 O 0.30838 0.57299 0.70888 0.0
O231 O 0.75291 0.58981 0.86014 0.0
O232 O 0.69609 0.8009 0.86275 0.0
O233 O 0.74954 0.64319 0.7866 0.0
O234 O 0.2553 0.61723 0.90304 0.0
O235 O 0.40598 0.65064 -0.04455 0.0
C236 C 0.29304 0.63804 -0.0536 0.0
C237 C 0.70986 0.79018 0.90896 0.0
O238 O 0.29171 0.71088 0.80187 0.0
O239 O 0.11324 0.37819 0.83101 0.0
O240 O 0.45823 0.76319 0.76685 0.0
O241 O -0.01366 0.54968 0.84717 0.0
O242 O 0.12452 0.39584 0.74841 0.0
O243 O -0.01618 0.57808 0.76784 0.0
O244 O 0.4744 0.51294 0.88325 0.0
O245 O 0.32482 0.44433 0.91357 0.0
C246 C 0.80286 0.60199 0.81814 0.0
C247 C 0.42136 0.58649 0.71856 0.0
loop_
_geom_bond_atom_site_label_1
_geom_bond_atom_site_label_2
_geom_bond_distance
_geom_bond_site_symmetry_2
_ccdc_geom_bond_type
C0 O27 1.312 . S
C0 O28 1.208 . S
C1 O22 1.331 . S
C1 O25 1.244 . S
C2 O24 1.264 . S
C2 O26 1.273 . S
Mg3 O5 1.936 . S
Mg3 O12 2.081 1_455 S
Mg3 O14 2.023 . S
Mg3 O18 2.031 . S
Mg3 O27 2.291 . S
Mg4 O5 1.963 . S
Mg4 O15 1.942 1_455 S
Mg4 O16 1.955 . S
Mg4 O23 1.986 . S
O5 Mg3 1.936 . S
O5 Mg4 1.963 . S
O5 Mg6 1.915 . S
Mg6 O5 1.915 . S
Mg6 O7 1.915 . S
Mg6 O11 2.013 . S
Mg6 O17 2.114 . S
Mg6 O21 2.013 . S
Mg6 O27 2.114 . S
O7 Mg6 1.915 . S
O7 Mg8 1.936 . S
O7 Mg9 1.963 . S
Mg8 O7 1.936 . S
Mg8 O17 2.291 . S
Mg8 O22 2.081 . S
Mg8 O24 2.023 . S
Mg8 O28 2.031 . S
Mg9 O7 1.963 . S
Mg9 O13 1.986 . S
Mg9 O25 1.942 . S
Mg9 O26 1.955 . S
C10 O21 1.191 . S
C10 O23 1.307 . S
O11 Mg6 2.013 . S
O11 C30 1.191 . S
O12 Mg3 2.081 1_655 S
O12 C20 1.331 . S
O13 Mg9 1.986 . S
O13 C30 1.307 . S
O14 Mg3 2.023 . S
O14 C29 1.264 . S
O15 Mg4 1.942 1_655 S
O15 C20 1.244 . S
O16 Mg4 1.955 . S
O16 C29 1.273 . S
O17 Mg6 2.114 . S
O17 Mg8 2.291 . S
O17 C19 1.312 . S
O18 Mg3 2.031 . S
O18 C19 1.208 . S
C19 O17 1.312 . S
C19 O18 1.208 . S
C20 O12 1.331 . S
C20 O15 1.244 . S
O21 Mg6 2.013 . S
O21 C10 1.191 . S
O22 C1 1.331 . S
O22 Mg8 2.081 . S
O23 Mg4 1.986 . S
O23 C10 1.307 . S
O24 C2 1.264 . S
O24 Mg8 2.023 . S
O25 C1 1.244 . S
O25 Mg9 1.942 . S
O26 C2 1.273 . S
O26 Mg9 1.955 . S
O27 C0 1.312 . S
O27 Mg3 2.291 . S
O27 Mg6 2.114 . S
O28 C0 1.208 . S
O28 Mg8 2.031 . S
C29 O14 1.264 . S
C29 O16 1.273 . S
C30 O11 1.191 . S
C30 O13 1.307 . S
C31 O58 1.312 1_465 S
C31 O59 1.208 . S
C32 O53 1.331 . S
C32 O56 1.244 . S
C33 O55 1.264 . S
C33 O57 1.273 . S
Mg34 O36 1.936 . S
Mg34 O43 2.081 1_556 S
Mg34 O45 2.023 . S
Mg34 O49 2.031 1_656 S
Mg34 O58 2.291 . S
Mg35 O36 1.963 . S
Mg35 O46 1.942 . S
Mg35 O47 1.955 . S
Mg35 O54 1.986 1_655 S
O36 Mg34 1.936 . S
O36 Mg35 1.963 . S
O36 Mg37 1.915 1_655 S
Mg37 O36 1.915 1_455 S
Mg37 O38 1.915 . S
Mg37 O42 2.013 1_455 S
Mg37 O48 2.114 . S
Mg37 O52 2.013 . S
Mg37 O58 2.114 1_455 S
O38 Mg37 1.915 . S
O38 Mg39 1.936 . S
O38 Mg40 1.963 . S
Mg39 O38 1.936 . S
Mg39 O48 2.291 . S
Mg39 O53 2.081 1_545 S
Mg39 O55 2.023 . S
Mg39 O59 2.031 1_545 S
Mg40 O38 1.963 . S
Mg40 O44 1.986 . S
Mg40 O56 1.942 1_545 S
Mg40 O57 1.955 . S
C41 O52 1.191 . S
C41 O54 1.307 . S
O42 Mg37 2.013 1_655 S
O42 C61 1.191 1_655 S
O43 Mg34 2.081 1_554 S
O43 C51 1.331 1_554 S
O44 Mg40 1.986 . S
O44 C61 1.307 . S
O45 Mg34 2.023 . S
O45 C60 1.264 . S
O46 Mg35 1.942 . S
O46 C51 1.244 . S
O47 Mg35 1.955 . S
O47 C60 1.273 . S
O48 Mg37 2.114 . S
O48 Mg39 2.291 . S
O48 C50 1.312 1_556 S
O49 Mg34 2.031 1_454 S
O49 C50 1.208 . S
C50 O48 1.312 1_554 S
C50 O49 1.208 . S
C51 O43 1.331 1_556 S
C51 O46 1.244 . S
O52 Mg37 2.013 . S
O52 C41 1.191 . S
O53 C32 1.331 . S
O53 Mg39 2.081 1_565 S
O54 Mg35 1.986 1_455 S
O54 C41 1.307 . S
O55 C33 1.264 . S
O55 Mg39 2.023 . S
O56 C32 1.244 . S
O56 Mg40 1.942 1_565 S
O57 C33 1.273 . S
O57 Mg40 1.955 . S
O58 C31 1.312 1_645 S
O58 Mg34 2.291 . S
O58 Mg37 2.114 1_655 S
O59 C31 1.208 . S
O59 Mg39 2.031 1_565 S
C60 O45 1.264 . S
C60 O47 1.273 . S
C61 O42 1.191 1_455 S
C61 O44 1.307 . S
C62 O89 1.312 . S
C62 O90 1.208 . S
C63 O84 1.331 . S
C63 O87 1.244 . S
C64 O86 1.264 . S
C64 O88 1.273 . S
Mg65 O67 1.936 . S
Mg65 O74 2.081 . S
Mg65 O76 2.023 . S
Mg65 O80 2.031 . S
Mg65 O89 2.291 1_455 S
Mg66 O67 1.963 . S
Mg66 O77 1.942 . S
Mg66 O78 1.955 . S
Mg66 O85 1.986 . S
O67 Mg65 1.936 . S
O67 Mg66 1.963 . S
O67 Mg68 1.915 1_455 S
Mg68 O67 1.915 1_655 S
Mg68 O69 1.915 . S
Mg68 O73 2.013 . S
Mg68 O79 2.114 . S
Mg68 O83 2.013 . S
Mg68 O89 2.114 . S
O69 Mg68 1.915 . S
O69 Mg70 1.936 . S
O69 Mg71 1.963 . S
Mg70 O69 1.936 . S
Mg70 O79 2.291 . S
Mg70 O84 2.081 . S
Mg70 O86 2.023 1_545 S
Mg70 O90 2.031 . S
Mg71 O69 1.963 . S
Mg71 O75 1.986 . S
Mg71 O87 1.942 . S
Mg71 O88 1.955 1_545 S
C72 O83 1.191 1_465 S
C72 O85 1.307 1_565 S
O73 Mg68 2.013 . S
O73 C92 1.191 . S
O74 Mg65 2.081 . S
O74 C82 1.331 . S
O75 Mg71 1.986 . S
O75 C92 1.307 . S
O76 Mg65 2.023 . S
O76 C91 1.264 . S
O77 Mg66 1.942 . S
O77 C82 1.244 . S
O78 Mg66 1.955 . S
O78 C91 1.273 . S
O79 Mg68 2.114 . S
O79 Mg70 2.291 . S
O79 C81 1.312 1_655 S
O80 Mg65 2.031 . S
O80 C81 1.208 . S
C81 O79 1.312 1_455 S
C81 O80 1.208 . S
C82 O74 1.331 . S
C82 O77 1.244 . S
O83 Mg68 2.013 . S
O83 C72 1.191 1_645 S
O84 C63 1.331 . S
O84 Mg70 2.081 . S
O85 Mg66 1.986 . S
O85 C72 1.307 1_545 S
O86 C64 1.264 . S
O86 Mg70 2.023 1_565 S
O87 C63 1.244 . S
O87 Mg71 1.942 . S
O88 C64 1.273 . S
O88 Mg71 1.955 1_565 S
O89 C62 1.312 . S
O89 Mg65 2.291 1_655 S
O89 Mg68 2.114 . S
O90 C62 1.208 . S
O90 Mg70 2.031 . S
C91 O76 1.264 . S
C91 O78 1.273 . S
C92 O73 1.191 . S
C92 O75 1.307 . S
C93 O120 1.312 1_556 S
C93 O121 1.208 . S
C94 O115 1.331 1_554 S
C94 O118 1.244 . S
C95 O117 1.264 . S
C95 O119 1.273 . S
Mg96 O98 1.936 . S
Mg96 O105 2.081 . S
Mg96 O107 2.023 . S
Mg96 O111 2.031 . S
Mg96 O120 2.291 . S
Mg97 O98 1.963 . S
Mg97 O108 1.942 . S
Mg97 O109 1.955 . S
Mg97 O116 1.986 . S
O98 Mg96 1.936 . S
O98 Mg97 1.963 . S
O98 Mg99 1.915 . S
Mg99 O98 1.915 . S
Mg99 O100 1.915 . S
Mg99 O104 2.013 . S
Mg99 O110 2.114 . S
Mg99 O114 2.013 . S
Mg99 O120 2.114 . S
O100 Mg99 1.915 . S
O100 Mg101 1.936 . S
O100 Mg102 1.963 . S
Mg101 O100 1.936 . S
Mg101 O110 2.291 . S
Mg101 O115 2.081 1_554 S
Mg101 O117 2.023 . S
Mg101 O121 2.031 1_554 S
Mg102 O100 1.963 . S
Mg102 O106 1.986 . S
Mg102 O118 1.942 . S
Mg102 O119 1.955 . S
C103 O114 1.191 . S
C103 O116 1.307 . S
O104 Mg99 2.013 . S
O104 C123 1.191 . S
O105 Mg96 2.081 . S
O105 C113 1.331 . S
O106 Mg102 1.986 . S
O106 C123 1.307 . S
O107 Mg96 2.023 . S
O107 C122 1.264 1_655 S
O108 Mg97 1.942 . S
O108 C113 1.244 . S
O109 Mg97 1.955 . S
O109 C122 1.273 1_655 S
O110 Mg99 2.114 . S
O110 Mg101 2.291 . S
O110 C112 1.312 . S
O111 Mg96 2.031 . S
O111 C112 1.208 . S
C112 O110 1.312 . S
C112 O111 1.208 . S
C113 O105 1.331 . S
C113 O108 1.244 . S
O114 Mg99 2.013 . S
O114 C103 1.191 . S
O115 C94 1.331 1_556 S
O115 Mg101 2.081 1_556 S
O116 Mg97 1.986 . S
O116 C103 1.307 . S
O117 C95 1.264 . S
O117 Mg101 2.023 . S
O118 C94 1.244 . S
O118 Mg102 1.942 . S
O119 C95 1.273 . S
O119 Mg102 1.955 . S
O120 C93 1.312 1_554 S
O120 Mg96 2.291 . S
O120 Mg99 2.114 . S
O121 C93 1.208 . S
O121 Mg101 2.031 1_556 S
C122 O107 1.264 1_455 S
C122 O109 1.273 1_455 S
C123 O104 1.191 . S
C123 O106 1.307 . S
C124 O151 1.312 . S
C124 O152 1.208 . S
C125 O146 1.331 . S
C125 O149 1.244 . S
C126 O148 1.264 . S
C126 O150 1.273 . S
Mg127 O129 1.936 . S
Mg127 O136 2.081 . S
Mg127 O138 2.023 . S
Mg127 O142 2.031 . S
Mg127 O151 2.291 . S
Mg128 O129 1.963 . S
Mg128 O139 1.942 . S
Mg128 O140 1.955 . S
Mg128 O147 1.986 . S
O129 Mg127 1.936 . S
O129 Mg128 1.963 . S
O129 Mg130 1.915 . S
Mg130 O129 1.915 . S
Mg130 O131 1.915 . S
Mg130 O135 2.013 . S
Mg130 O141 2.114 . S
Mg130 O145 2.013 . S
Mg130 O151 2.114 . S
O131 Mg130 1.915 . S
O131 Mg132 1.936 . S
O131 Mg133 1.963 . S
Mg132 O131 1.936 . S
Mg132 O141 2.291 . S
Mg132 O146 2.081 . S
Mg132 O148 2.023 . S
Mg132 O152 2.031 . S
Mg133 O131 1.963 . S
Mg133 O137 1.986 . S
Mg133 O149 1.942 . S
Mg133 O150 1.955 . S
C134 O145 1.191 . S
C134 O147 1.307 . S
O135 Mg130 2.013 . S
O135 C154 1.191 . S
O136 Mg127 2.081 . S
O136 C144 1.331 . S
O137 Mg133 1.986 . S
O137 C154 1.307 . S
O138 Mg127 2.023 . S
O138 C153 1.264 1_655 S
O139 Mg128 1.942 . S
O139 C144 1.244 . S
O140 Mg128 1.955 . S
O140 C153 1.273 1_655 S
O141 Mg130 2.114 . S
O141 Mg132 2.291 . S
O141 C143 1.312 . S
O142 Mg127 2.031 . S
O142 C143 1.208 . S
C143 O141 1.312 . S
C143 O142 1.208 . S
C144 O136 1.331 . S
C144 O139 1.244 . S
O145 Mg130 2.013 . S
O145 C134 1.191 . S
O146 C125 1.331 . S
O146 Mg132 2.081 . S
O147 Mg128 1.986 . S
O147 C134 1.307 . S
O148 C126 1.264 . S
O148 Mg132 2.023 . S
O149 C125 1.244 . S
O149 Mg133 1.942 . S
O150 C126 1.273 . S
O150 Mg133 1.955 . S
O151 C124 1.312 . S
O151 Mg127 2.291 . S
O151 Mg130 2.114 . S
O152 C124 1.208 . S
O152 Mg132 2.031 . S
C153 O138 1.264 1_455 S
C153 O140 1.273 1_455 S
C154 O135 1.191 . S
C154 O137 1.307 . S
C155 O182 1.312 1_556 S
C155 O183 1.208 . S
C156 O177 1.331 1_554 S
C156 O180 1.244 . S
C157 O179 1.264 . S
C157 O181 1.273 . S
Mg158 O160 1.936 . S
Mg158 O167 2.081 1_565 S
Mg158 O169 2.023 . S
Mg158 O173 2.031 1_565 S
Mg158 O182 2.291 . S
Mg159 O160 1.963 . S
Mg159 O170 1.942 1_565 S
Mg159 O171 1.955 . S
Mg159 O178 1.986 . S
O160 Mg158 1.936 . S
O160 Mg159 1.963 . S
O160 Mg161 1.915 . S
Mg161 O160 1.915 . S
Mg161 O162 1.915 1_655 S
Mg161 O166 2.013 . S
Mg161 O172 2.114 1_655 S
Mg161 O176 2.013 1_655 S
Mg161 O182 2.114 . S
O162 Mg161 1.915 1_455 S
O162 Mg163 1.936 . S
O162 Mg164 1.963 . S
Mg163 O162 1.936 . S
Mg163 O172 2.291 . S
Mg163 O177 2.081 1_554 S
Mg163 O179 2.023 . S
Mg163 O183 2.031 1_454 S
Mg164 O162 1.963 . S
Mg164 O168 1.986 1_455 S
Mg164 O180 1.942 . S
Mg164 O181 1.955 . S
C165 O176 1.191 1_655 S
C165 O178 1.307 . S
O166 Mg161 2.013 . S
O166 C185 1.191 . S
O167 Mg158 2.081 1_545 S
O167 C175 1.331 . S
O168 Mg164 1.986 1_655 S
O168 C185 1.307 . S
O169 Mg158 2.023 . S
O169 C184 1.264 . S
O170 Mg159 1.942 1_545 S
O170 C175 1.244 . S
O171 Mg159 1.955 . S
O171 C184 1.273 . S
O172 Mg161 2.114 1_455 S
O172 Mg163 2.291 . S
O172 C174 1.312 1_465 S
O173 Mg158 2.031 1_545 S
O173 C174 1.208 . S
C174 O172 1.312 1_645 S
C174 O173 1.208 . S
C175 O167 1.331 . S
C175 O170 1.244 . S
O176 Mg161 2.013 1_455 S
O176 C165 1.191 1_455 S
O177 C156 1.331 1_556 S
O177 Mg163 2.081 1_556 S
O178 Mg159 1.986 . S
O178 C165 1.307 . S
O179 C157 1.264 . S
O179 Mg163 2.023 . S
O180 C156 1.244 . S
O180 Mg164 1.942 . S
O181 C157 1.273 . S
O181 Mg164 1.955 . S
O182 C155 1.312 1_554 S
O182 Mg158 2.291 . S
O182 Mg161 2.114 . S
O183 C155 1.208 . S
O183 Mg163 2.031 1_656 S
C184 O169 1.264 . S
C184 O171 1.273 . S
C185 O166 1.191 . S
C185 O168 1.307 . S
C186 O213 1.312 . S
C186 O214 1.208 . S
C187 O208 1.331 . S
C187 O211 1.244 . S
C188 O210 1.264 . S
C188 O212 1.273 . S
Mg189 O191 1.936 . S
Mg189 O198 2.081 1_565 S
Mg189 O200 2.023 . S
Mg189 O204 2.031 1_565 S
Mg189 O213 2.291 . S
Mg190 O191 1.963 . S
Mg190 O201 1.942 1_565 S
Mg190 O202 1.955 . S
Mg190 O209 1.986 . S
O191 Mg189 1.936 . S
O191 Mg190 1.963 . S
O191 Mg192 1.915 . S
Mg192 O191 1.915 . S
Mg192 O193 1.915 1_455 S
Mg192 O197 2.013 . S
Mg192 O203 2.114 1_455 S
Mg192 O207 2.013 1_455 S
Mg192 O213 2.114 . S
O193 Mg192 1.915 1_655 S
O193 Mg194 1.936 . S
O193 Mg195 1.963 . S
Mg194 O193 1.936 . S
Mg194 O203 2.291 . S
Mg194 O208 2.081 . S
Mg194 O210 2.023 . S
Mg194 O214 2.031 1_655 S
Mg195 O193 1.963 . S
Mg195 O199 1.986 1_655 S
Mg195 O211 1.942 . S
Mg195 O212 1.955 . S
C196 O207 1.191 1_455 S
C196 O209 1.307 . S
O197 Mg192 2.013 . S
O197 C216 1.191 . S
O198 Mg189 2.081 1_545 S
O198 C206 1.331 . S
O199 Mg195 1.986 1_455 S
O199 C216 1.307 . S
O200 Mg189 2.023 . S
O200 C215 1.264 . S
O201 Mg190 1.942 1_545 S
O201 C206 1.244 . S
O202 Mg190 1.955 . S
O202 C215 1.273 . S
O203 Mg192 2.114 1_655 S
O203 Mg194 2.291 . S
O203 C205 1.312 1_665 S
O204 Mg189 2.031 1_545 S
O204 C205 1.208 . S
C205 O203 1.312 1_445 S
C205 O204 1.208 . S
C206 O198 1.331 . S
C206 O201 1.244 . S
O207 Mg192 2.013 1_655 S
O207 C196 1.191 1_655 S
O208 C187 1.331 . S
O208 Mg194 2.081 . S
O209 Mg190 1.986 . S
O209 C196 1.307 . S
O210 C188 1.264 . S
O210 Mg194 2.023 . S
O211 C187 1.244 . S
O211 Mg195 1.942 . S
O212 C188 1.273 . S
O212 Mg195 1.955 . S
O213 C186 1.312 . S
O213 Mg189 2.291 . S
O213 Mg192 2.114 . S
O214 C186 1.208 . S
O214 Mg194 2.031 1_455 S
C215 O200 1.264 . S
C215 O202 1.273 . S
C216 O197 1.191 . S
C216 O199 1.307 . S
C217 O244 1.312 . S
C217 O245 1.208 . S
C218 O239 1.331 . S
C218 O242 1.244 . S
C219 O241 1.264 1_655 S
C219 O243 1.273 1_655 S
Mg220 O222 1.936 . S
Mg220 O229 2.081 1_556 S
Mg220 O231 2.023 . S
Mg220 O235 2.031 1_556 S
Mg220 O244 2.291 . S
Mg221 O222 1.963 . S
Mg221 O232 1.942 . S
Mg221 O233 1.955 . S
Mg221 O240 1.986 . S
O222 Mg220 1.936 . S
O222 Mg221 1.963 . S
O222 Mg223 1.915 . S
Mg223 O222 1.915 . S
Mg223 O224 1.915 . S
Mg223 O228 2.013 . S
Mg223 O234 2.114 . S
Mg223 O238 2.013 . S
Mg223 O244 2.114 . S
O224 Mg223 1.915 . S
O224 Mg225 1.936 . S
O224 Mg226 1.963 . S
Mg225 O224 1.936 . S
Mg225 O234 2.291 . S
Mg225 O239 2.081 . S
Mg225 O241 2.023 . S
Mg225 O245 2.031 . S
Mg226 O224 1.963 . S
Mg226 O230 1.986 . S
Mg226 O242 1.942 . S
Mg226 O243 1.955 . S
C227 O238 1.191 . S
C227 O240 1.307 . S
O228 Mg223 2.013 . S
O228 C247 1.191 . S
O229 Mg220 2.081 1_554 S
O229 C237 1.331 1_554 S
O230 Mg226 1.986 . S
O230 C247 1.307 . S
O231 Mg220 2.023 . S
O231 C246 1.264 . S
O232 Mg221 1.942 . S
O232 C237 1.244 . S
O233 Mg221 1.955 . S
O233 C246 1.273 . S
O234 Mg223 2.114 . S
O234 Mg225 2.291 . S
O234 C236 1.312 1_556 S
O235 Mg220 2.031 1_554 S
O235 C236 1.208 . S
C236 O234 1.312 1_554 S
C236 O235 1.208 . S
C237 O229 1.331 1_556 S
C237 O232 1.244 . S
O238 Mg223 2.013 . S
O238 C227 1.191 . S
O239 C218 1.331 . S
O239 Mg225 2.081 . S
O240 Mg221 1.986 . S
O240 C227 1.307 . S
O241 C219 1.264 1_455 S
O241 Mg225 2.023 . S
O242 C218 1.244 . S
O242 Mg226 1.942 . S
O243 C219 1.273 1_455 S
O243 Mg226 1.955 . S
O244 C217 1.312 . S
O244 Mg220 2.291 . S
O244 Mg223 2.114 . S
O245 C217 1.208 . S
O245 Mg225 2.031 . S
C246 O231 1.264 . S
C246 O233 1.273 . S
C247 O228 1.191 . S
C247 O230 1.307 . S
C20 C1 1.042 . S
C33 C60 1.755 . S
C82 C63 1.042 . S
C122 C95 1.755 . S
C126 C153 1.751 . S
C184 C157 1.759 . S
C188 C215 1.751 . S
C219 C246 1.759 . S
C103 C0 1.564 . S
C61 C81 1.564 . S
C134 C247 1.292 . S
C165 C196 1.292 1_655 S
C92 C2 1.438 . S
C93 C51 1.557 . S
C91 C10 1.438 . S
C94 C50 1.557 . S
C186 C125 1.550 . S
C156 C236 1.538 . S
C187 C124 1.550 . S
C237 C155 1.538 . S
C206 C19 2.444 . S
C41 C218 1.978 . S
C144 C62 2.444 . S
C175 C123 1.978 . S
C154 C64 2.372 . S
C113 C185 1.990 . S
C29 C216 2.372 . S
C227 C32 1.990 . S
C143 C30 2.219 . S
C174 C31 2.457 1_644 S
C72 C205 2.219 1_565 S
C112 C217 2.457 1_554 S
