# Generated by pormake.
# Topology uni, (4)-cn, num edge types: 1
# Building blocks:
#     Node 0, Type 0, BuildingBlock: NAHDIM_clean_sbu_0, # of connection points: 4
#     Node 1, Type 0, BuildingBlock: NAHDIM_clean_sbu_0, # of connection points: 4
#     Node 2, Type 0, BuildingBlock: NAHDIM_clean_sbu_0, # of connection points: 4
#     Node 3, Type 0, BuildingBlock: NAHDIM_clean_sbu_0, # of connection points: 4
#     Node 4, Type 0, BuildingBlock: NAHDIM_clean_sbu_0, # of connection points: 4
#     Node 5, Type 0, BuildingBlock: NAHDIM_clean_sbu_0, # of connection points: 4
#     Edge 6, Type (0, 0), BuildingBlock: KIFKEQ_clean_linker_1, # of connection points: 2
#     Edge 7, Type (0, 0), BuildingBlock: KIFKEQ_clean_linker_1, # of connection points: 2
#     Edge 8, Type (0, 0), BuildingBlock: KIFKEQ_clean_linker_1, # of connection points: 2
#     Edge 9, Type (0, 0), BuildingBlock: KIFKEQ_clean_linker_1, # of connection points: 2
#     Edge 10, Type (0, 0), BuildingBlock: KIFKEQ_clean_linker_1, # of connection points: 2
#     Edge 11, Type (0, 0), BuildingBlock: KIFKEQ_clean_linker_1, # of connection points: 2
#     Edge 12, Type (0, 0), BuildingBlock: KIFKEQ_clean_linker_1, # of connection points: 2
#     Edge 13, Type (0, 0), BuildingBlock: KIFKEQ_clean_linker_1, # of connection points: 2
#     Edge 14, Type (0, 0), BuildingBlock: KIFKEQ_clean_linker_1, # of connection points: 2
#     Edge 15, Type (0, 0), BuildingBlock: KIFKEQ_clean_linker_1, # of connection points: 2
#     Edge 16, Type (0, 0), BuildingBlock: KIFKEQ_clean_linker_1, # of connection points: 2
#     Edge 17, Type (0, 0), BuildingBlock: KIFKEQ_clean_linker_1, # of connection points: 2
# Relax obj value: 0.045
# Max RMSD: 0.077
# Mean RMSD: 0.077
data_MOF--net-uni--node1-NAHDIM_clean_sbu_0--edge1-KIFKEQ_clean_linker_1
_symmetry_space_group_name_H-M    P1
_symmetry_Int_Tables_number       1
_symmetry_cell_setting            triclinic
loop_
_symmetry_equiv_pos_as_xyz
'x, y, z'
_cell_length_a     39.68809
_cell_length_b     39.711957
_cell_length_c     23.736459
_cell_angle_alpha  90.051845
_cell_angle_beta   90.005058
_cell_angle_gamma 120.04281
loop_
_atom_site_label
_atom_site_type_symbol
_atom_site_fract_x
_atom_site_fract_y
_atom_site_fract_z
_atom_type_partial_charge
C0 C 0.66563 0.96442 0.09399 0.0
O1 O 0.69466 -0.00163 0.10957 0.0
O2 O 0.69075 0.05638 0.02891 0.0
Zn3 Zn 0.63698 0.01152 0.04395 0.0
O4 O 0.61098 0.02343 0.10756 0.0
C5 C 0.60056 0.03036 0.95757 0.0
O6 O 0.61674 0.06285 0.98679 0.0
O7 O 0.6383 0.96311 0.06442 0.0
C8 C 0.57418 0.00258 0.11097 0.0
O9 O 0.5555 0.97525 0.07313 0.0
C10 C 0.70944 0.08391 0.06371 0.0
O11 O 0.69393 0.0829 0.11302 0.0
O12 O 0.60525 0.00249 0.97376 0.0
C13 C 0.72442 0.66747 0.2843 0.0
O14 O 0.7082 0.68167 0.31781 0.0
O15 O 0.66469 0.702 0.21085 0.0
Zn16 Zn 0.65615 0.6479 0.22243 0.0
O17 O 0.62204 0.62126 0.28969 0.0
C18 C 0.60775 0.62058 0.12387 0.0
O19 O 0.59954 0.64736 0.13974 0.0
O20 O 0.70759 0.6516 0.23824 0.0
C21 C 0.58507 0.60173 0.28894 0.0
O22 O 0.56641 0.59924 0.24204 0.0
C23 C 0.64163 0.71286 0.22955 0.0
O24 O 0.61126 0.68847 0.25938 0.0
O25 O 0.63191 0.61554 0.15258 0.0
C26 C 0.0837 0.72561 0.44777 0.0
O27 O 0.05505 0.7066 0.48356 0.0
O28 O 0.98882 0.6631 0.36984 0.0
Zn29 Zn 0.03595 0.6578 0.38394 0.0
O30 O 0.02935 0.62378 0.45082 0.0
C31 C 0.01566 0.60712 0.28992 0.0
O32 O 0.98087 0.59671 0.30963 0.0
O33 O 0.0821 0.71057 0.39982 0.0
C34 C 0.00041 0.59032 0.46098 0.0
O35 O 0.97045 0.57541 0.4266 0.0
C36 C 0.96396 0.6596 0.40649 0.0
O37 O 0.96841 0.65231 0.45909 0.0
O38 O 0.04533 0.63405 0.3148 0.0
C39 C 0.37611 0.09028 0.5884 0.0
O40 O 0.34897 0.0571 0.60946 0.0
O41 O 0.34698 0.99643 0.53089 0.0
Zn42 Zn 0.40187 0.04046 0.54289 0.0
O43 O 0.42619 0.0316 0.61167 0.0
C44 C 0.42454 0.01353 0.44689 0.0
O45 O 0.39555 0.98045 0.46518 0.0
O46 O 0.40181 0.09042 0.55629 0.0
C47 C 0.44545 0.01391 0.61178 0.0
O48 O 0.44945 -0.00111 0.56468 0.0
C49 C 0.32921 0.9684 0.56517 0.0
O50 O 0.34624 0.96838 0.61261 0.0
O51 O 0.43346 0.04464 0.47374 0.0
C52 C 0.31502 0.38165 0.76592 0.0
O53 O 0.31998 0.35341 0.78516 0.0
O54 O 0.38198 0.35492 0.70936 0.0
Zn55 Zn 0.39214 0.40955 0.72213 0.0
O56 O 0.42594 0.43487 0.7903 0.0
C57 C 0.44119 0.43644 0.62378 0.0
O58 O 0.44857 0.40897 0.63886 0.0
O59 O 0.34168 0.40839 0.7364 0.0
C60 C 0.46292 0.45442 0.78955 0.0
O61 O 0.48148 0.45752 0.74231 0.0
C62 C 0.40538 0.34382 0.7256 0.0
O63 O 0.4368 0.36813 0.7537 0.0
O64 O 0.41762 0.44209 0.65299 0.0
C65 C 0.95728 0.32432 0.94616 0.0
O66 O 0.98718 0.34132 0.98055 0.0
O67 O 0.05171 0.38389 0.87129 0.0
Zn68 Zn 0.0061 0.39231 0.88381 0.0
O69 O 0.01444 0.42624 0.95159 0.0
C70 C 0.02511 0.4375 0.78166 0.0
O71 O 0.05958 0.44178 0.79168 0.0
O72 O 0.95853 0.34066 0.89956 0.0
C73 C 0.03069 0.46312 0.94997 0.0
O74 O 0.04446 0.48127 0.90194 0.0
C75 C 0.086 0.40815 0.88757 0.0
O76 O 0.0922 0.43958 0.91469 0.0
O77 O -0.00278 0.417 0.81509 0.0
H78 H 0.60393 0.05019 0.20321 0.0
H79 H 0.49558 0.96627 0.12501 0.0
H80 H 0.56791 0.05469 0.28356 0.0
H81 H 0.45972 0.97144 0.20439 0.0
H82 H 0.41326 0.95155 0.38358 0.0
H83 H 0.44984 0.95134 0.30177 0.0
H84 H 0.52257 0.07623 0.31347 0.0
H85 H 0.48626 0.0764 0.39663 0.0
C86 C 0.57244 0.03303 0.20289 0.0
C87 C 0.55263 0.00759 0.158 0.0
C88 C 0.5518 0.03576 0.24878 0.0
C89 C 0.51097 0.01316 0.2506 0.0
C90 C 0.49121 0.98867 0.20483 0.0
C91 C 0.51178 0.98585 0.15916 0.0
C92 C 0.43699 0.97904 0.36879 0.0
C93 C 0.4468 0.01401 0.39662 0.0
C94 C 0.45783 0.97893 0.32157 0.0
C95 C 0.48897 0.0138 0.30083 0.0
C96 C 0.49892 0.04885 0.3287 0.0
C97 C 0.47801 0.04896 0.37612 0.0
H98 H 0.61519 0.59198 0.38685 0.0
H99 H 0.50624 0.56253 0.30584 0.0
H100 H 0.57975 0.55313 0.46837 0.0
H101 H 0.47082 0.52356 0.38775 0.0
H102 H 0.42659 0.48957 0.57227 0.0
H103 H 0.46112 0.53137 0.49203 0.0
H104 H 0.53583 0.48142 0.48472 0.0
H105 H 0.50156 0.43977 0.56455 0.0
C106 C 0.58369 0.57743 0.38655 0.0
C107 C 0.56351 0.58016 0.33972 0.0
C108 C 0.56343 0.55503 0.43314 0.0
C109 C 0.52256 0.53515 0.43416 0.0
C110 C 0.50234 0.53876 0.38813 0.0
C111 C 0.52262 0.56091 0.3412 0.0
C112 C 0.45037 0.48752 0.55348 0.0
C113 C 0.46139 0.4614 0.57478 0.0
C114 C 0.46999 0.51131 0.50747 0.0
C115 C 0.50124 0.50973 0.48242 0.0
C116 C 0.51215 0.48358 0.50368 0.0
C117 C 0.49234 0.45956 0.54919 0.0
H118 H 0.07927 0.48403 0.70443 0.0
H119 H 0.95862 0.43767 0.75045 0.0
H120 H 0.0715 0.52007 0.62765 0.0
H121 H 0.95106 0.4744 0.67375 0.0
H122 H 0.9462 0.5161 0.49229 0.0
H123 H 0.95077 0.478 0.56966 0.0
H124 H 0.06188 0.5758 0.61748 0.0
H125 H 0.05769 0.61357 0.54005 0.0
C126 C 0.05105 0.4815 0.6982 0.0
C127 C 0.01961 0.45808 0.73373 0.0
C128 C 0.04668 0.50238 0.65435 0.0
C129 C 0.01076 0.50037 0.64494 0.0
C130 C 0.97904 0.47636 0.67975 0.0
C131 C 0.98343 0.45546 0.72379 0.0
C132 C 0.97149 0.5295 0.5195 0.0
C133 C 0.0017 0.56777 0.50973 0.0
C134 C 0.97403 0.50772 0.56393 0.0
C135 C 0.00686 0.52378 0.59934 0.0
C136 C 0.03656 0.56234 0.59029 0.0
C137 C 0.03402 0.58407 0.54606 0.0
H138 H 0.58548 0.08463 0.91273 0.0
H139 H 0.56194 0.96689 0.88855 0.0
H140 H 0.5465 0.07833 0.83008 0.0
H141 H 0.52225 0.96039 0.80614 0.0
H142 H 0.49312 0.98314 0.62564 0.0
H143 H 0.5296 0.98561 0.70982 0.0
H144 H 0.47879 0.04391 0.79989 0.0
H145 H 0.44292 0.04211 0.71569 0.0
C146 C 0.57186 0.05733 0.88992 0.0
C147 C 0.57682 0.02627 0.90723 0.0
C148 C 0.54928 0.05363 0.84272 0.0
C149 C 0.5311 0.01878 0.81172 0.0
C150 C 0.53616 0.98772 0.82888 0.0
C151 C 0.55876 0.99141 0.87621 0.0
C152 C 0.48955 0.99626 0.66351 0.0
C153 C 0.46534 0.01269 0.66381 0.0
C154 C 0.51032 -0.00249 0.71182 0.0
C155 C 0.50731 0.01524 0.76139 0.0
C156 C 0.48227 0.03068 0.76207 0.0
C157 C 0.46153 0.02943 0.71386 0.0
H158 H 0.62322 0.56827 0.07136 0.0
H159 H 0.54642 0.616 0.06573 0.0
H160 H 0.58844 0.52598 0.9915 0.0
H161 H 0.51192 0.57388 0.9863 0.0
H162 H 0.43308 0.46322 0.88849 0.0
H163 H 0.46879 0.50214 0.96997 0.0
H164 H 0.5775 0.53307 0.88763 0.0
H165 H 0.54182 0.49403 0.80581 0.0
C166 C 0.599 0.56978 0.05309 0.0
C167 C 0.58755 0.59546 0.07489 0.0
C168 C 0.57922 0.54569 0.00731 0.0
C169 C 0.54737 0.54652 0.98298 0.0
C170 C 0.53604 0.57226 0.00471 0.0
C171 C 0.556 0.59657 0.04998 0.0
C172 C 0.46459 0.47805 0.88782 0.0
C173 C 0.48462 0.47571 0.84051 0.0
C174 C 0.48501 0.5005 0.93439 0.0
C175 C 0.52589 0.52084 0.9349 0.0
C176 C 0.54598 0.51753 0.88844 0.0
C177 C 0.52553 0.49533 0.84154 0.0
H178 H 0.06678 0.54214 0.96387 0.0
H179 H -0.00241 0.43352 0.05212 0.0
H180 H 0.06521 0.57773 0.04702 0.0
H181 H -0.00376 0.4691 0.13489 0.0
H182 H 0.95873 0.54268 0.23748 0.0
H183 H 0.96496 0.50871 0.15638 0.0
H184 H 0.08811 0.59153 0.14856 0.0
H185 H 0.08196 0.62588 0.23011 0.0
C186 C 0.0515 0.52588 0.00106 0.0
C187 C 0.03208 0.48499 0.00124 0.0
C188 C 0.05079 0.54628 0.04871 0.0
C189 C 0.03037 0.52615 0.09722 0.0
C190 C 0.01176 0.48535 0.0978 0.0
C191 C 0.01271 0.465 0.05044 0.0
C192 C 0.98718 0.55375 0.21857 0.0
C193 C 0.01987 0.58697 0.2403 0.0
C194 C 0.99076 0.53411 0.1723 0.0
C195 C 0.02705 0.54735 0.14638 0.0
C196 C 0.05975 0.58081 0.1676 0.0
C197 C 0.05624 0.60034 0.21437 0.0
H198 H 0.59118 0.73984 0.24596 0.0
H199 H 0.70408 0.7725 0.17621 0.0
H200 H 0.59811 0.80133 0.21386 0.0
H201 H 0.71085 0.83398 0.14401 0.0
H202 H 0.72203 0.95612 0.14777 0.0
H203 H 0.71734 0.89609 0.18295 0.0
H204 H 0.59977 0.83058 0.1195 0.0
H205 H 0.60429 0.89038 0.08444 0.0
C206 C 0.61758 0.76022 0.22414 0.0
C207 C 0.64701 0.75122 0.21345 0.0
C208 C 0.62142 0.79531 0.20544 0.0
C209 C 0.6549 0.82229 0.17613 0.0
C210 C 0.68482 0.8138 0.16678 0.0
C211 C 0.68084 0.77854 0.18503 0.0
C212 C 0.69523 0.92889 0.14119 0.0
C213 C 0.66353 0.92802 0.11336 0.0
C214 C 0.69262 0.89455 0.16117 0.0
C215 C 0.65812 0.85873 0.15423 0.0
C216 C 0.62654 0.85784 0.12609 0.0
C217 C 0.62927 0.89208 0.10566 0.0
H218 H 0.90292 0.65006 0.47187 0.0
H219 H 0.94756 0.67594 0.30176 0.0
H220 H 0.8456 0.65298 0.44199 0.0
H221 H 0.89081 0.67967 0.27231 0.0
H222 H 0.76354 0.63754 0.2276 0.0
H223 H 0.82169 0.63652 0.25781 0.0
H224 H 0.82582 0.69869 0.40953 0.0
H225 H 0.76718 0.69902 0.37991 0.0
C226 C 0.90066 0.65663 0.42824 0.0
C227 C 0.92975 0.66264 0.3892 0.0
C228 C 0.86791 0.65852 0.41117 0.0
C229 C 0.8636 0.66646 0.35472 0.0
C230 C 0.89295 0.6729 0.3159 0.0
C231 C 0.92561 0.67098 0.33291 0.0
C232 C 0.77692 0.65111 0.26731 0.0
C233 C 0.76069 0.66831 0.30137 0.0
C234 C 0.81037 0.65069 0.28451 0.0
C235 C 0.82839 0.66751 0.33612 0.0
C236 C 0.81235 0.68502 0.36992 0.0
C237 C 0.77888 0.68543 0.35273 0.0
H238 H 0.09698 0.76341 0.54856 0.0
H239 H 0.14818 0.77234 0.38459 0.0
H240 H 0.15459 0.82365 0.57741 0.0
H241 H 0.20604 0.8323 0.41385 0.0
H242 H 0.28869 0.95729 0.46723 0.0
H243 H 0.22788 0.90013 0.43898 0.0
H244 H 0.22305 0.84578 0.59866 0.0
H245 H 0.28358 0.90317 0.62737 0.0
C246 C 0.12047 0.77825 0.5186 0.0
C247 C 0.11803 0.76301 0.4643 0.0
C248 C 0.15357 0.81266 0.53529 0.0
C249 C 0.18491 0.83267 0.498 0.0
C250 C 0.18219 0.81779 0.44336 0.0
C251 C 0.14913 0.78331 0.4267 0.0
C252 C 0.27452 0.93329 0.49654 0.0
C253 C 0.29105 0.93474 0.54953 0.0
C254 C 0.2398 0.90044 0.48016 0.0
C255 C 0.22076 0.86836 0.51645 0.0
C256 C 0.23682 0.87018 0.56995 0.0
C257 C 0.27161 0.903 0.58629 0.0
H258 H 0.45671 0.31727 0.73379 0.0
H259 H 0.3406 0.2838 0.67692 0.0
H260 H 0.44841 0.25569 0.69929 0.0
H261 H 0.33243 0.22215 0.6424 0.0
H262 H 0.32217 0.09991 0.64679 0.0
H263 H 0.32819 0.16075 0.68087 0.0
H264 H 0.4417 0.22492 0.60389 0.0
H265 H 0.43582 0.16422 0.56977 0.0
C266 C 0.42933 0.29669 0.71428 0.0
C267 C 0.39934 0.30545 0.70799 0.0
C268 C 0.42472 0.26157 0.69415 0.0
C269 C 0.38989 0.2343 0.66782 0.0
C270 C 0.35952 0.2426 0.66274 0.0
C271 C 0.36427 0.27792 0.68235 0.0
C272 C 0.34831 0.12701 0.63682 0.0
C273 C 0.37857 0.12724 0.60571 0.0
C274 C 0.35167 0.16182 0.65619 0.0
C275 C 0.38552 0.19749 0.64534 0.0
C276 C 0.4155 0.19777 0.61349 0.0
C277 C 0.41198 0.16304 0.59362 0.0
H278 H 0.08315 0.34414 0.83934 0.0
H279 H 0.16356 0.45984 0.90021 0.0
H280 H 0.1379 0.33665 0.80916 0.0
H281 H 0.2181 0.45219 0.87018 0.0
H282 H 0.30141 0.44166 0.74736 0.0
H283 H 0.24551 0.44685 0.77771 0.0
H284 H 0.19388 0.33216 0.85109 0.0
H285 H 0.24982 0.32679 0.82061 0.0
C286 C 0.11247 0.36788 0.84656 0.0
C287 C 0.11901 0.40264 0.87203 0.0
C288 C 0.14378 0.3635 0.82947 0.0
C289 C 0.18222 0.39393 0.83702 0.0
C290 C 0.18875 0.42845 0.86316 0.0
C291 C 0.1575 0.43271 0.88069 0.0
C292 C 0.27807 0.41743 0.76969 0.0
C293 C 0.28011 0.38384 0.7817 0.0
C294 C 0.24619 0.42054 0.7874 0.0
C295 C 0.2155 0.39002 0.81709 0.0
C296 C 0.21706 0.35606 0.82804 0.0
C297 C 0.24915 0.35307 0.81075 0.0
H298 H 0.89076 0.2812 0.88487 0.0
H299 H 0.94422 0.28446 0.04498 0.0
H300 H 0.83192 0.22217 0.91391 0.0
H301 H 0.88557 0.22513 0.0736 0.0
H302 H 0.7572 0.14777 0.12734 0.0
H303 H 0.81794 0.20486 0.09854 0.0
H304 H 0.8083 0.15335 0.93468 0.0
H305 H 0.74734 0.09653 0.96306 0.0
C306 C 0.89007 0.26919 0.92609 0.0
C307 C 0.92214 0.2876 0.96265 0.0
C308 C 0.85643 0.23524 0.94261 0.0
C309 C 0.85408 0.21901 0.99609 0.0
C310 C 0.88631 0.2372 0.0324 0.0
C311 C 0.92 0.27107 0.01583 0.0
C312 C 0.76812 0.14853 0.08527 0.0
C313 C 0.74734 0.11765 0.04745 0.0
C314 C 0.80303 0.18117 0.06887 0.0
C315 C 0.81785 0.18367 0.01426 0.0
C316 C 0.79736 0.15252 0.97677 0.0
C317 C 0.76254 0.11985 0.9932 0.0
loop_
_geom_bond_atom_site_label_1
_geom_bond_atom_site_label_2
_geom_bond_distance
_geom_bond_site_symmetry_2
_ccdc_geom_bond_type
C0 O1 1.160 . S
C0 O7 1.185 . S
O1 C0 1.160 . S
O2 Zn3 1.899 . S
O2 C10 1.284 . S
Zn3 O2 1.899 . S
Zn3 O4 2.032 . S
Zn3 O7 2.086 1_545 S
Zn3 O12 1.980 1_544 S
O4 Zn3 2.032 . S
O4 C8 1.278 . S
C5 O6 1.203 . S
C5 O12 1.249 1_545 S
O6 C5 1.203 . S
O7 C0 1.185 . S
O7 Zn3 2.086 1_565 S
C8 O4 1.278 . S
C8 O9 1.211 . S
O9 C8 1.211 . S
C10 O2 1.284 . S
C10 O11 1.273 . S
O11 C10 1.273 . S
O12 Zn3 1.980 1_566 S
O12 C5 1.249 1_565 S
C13 O14 1.160 . S
C13 O20 1.185 . S
O14 C13 1.160 . S
O15 Zn16 1.899 . S
O15 C23 1.284 . S
Zn16 O15 1.899 . S
Zn16 O17 2.032 . S
Zn16 O20 2.086 . S
Zn16 O25 1.977 . S
O17 Zn16 2.032 . S
O17 C21 1.278 . S
C18 O19 1.203 . S
C18 O25 1.267 . S
O19 C18 1.203 . S
O20 C13 1.185 . S
O20 Zn16 2.086 . S
C21 O17 1.278 . S
C21 O22 1.211 . S
O22 C21 1.211 . S
C23 O15 1.284 . S
C23 O24 1.273 . S
O24 C23 1.273 . S
O25 Zn16 1.977 . S
O25 C18 1.267 . S
C26 O27 1.160 . S
C26 O33 1.185 . S
O27 C26 1.160 . S
O28 Zn29 1.899 . S
O28 C36 1.284 1_455 S
Zn29 O28 1.899 . S
Zn29 O30 2.032 . S
Zn29 O33 2.086 . S
Zn29 O38 1.977 . S
O30 Zn29 2.032 . S
O30 C34 1.278 . S
C31 O32 1.203 1_455 S
C31 O38 1.267 . S
O32 C31 1.203 1_655 S
O33 C26 1.185 . S
O33 Zn29 2.086 . S
C34 O30 1.278 . S
C34 O35 1.211 . S
O35 C34 1.211 . S
C36 O28 1.284 1_655 S
C36 O37 1.273 . S
O37 C36 1.273 . S
O38 Zn29 1.977 . S
O38 C31 1.267 . S
C39 O40 1.160 . S
C39 O46 1.185 . S
O40 C39 1.160 . S
O41 Zn42 1.899 . S
O41 C49 1.284 1_545 S
Zn42 O41 1.899 . S
Zn42 O43 2.032 . S
Zn42 O46 2.086 . S
Zn42 O51 1.977 . S
O43 Zn42 2.032 . S
O43 C47 1.278 . S
C44 O45 1.203 1_545 S
C44 O51 1.267 . S
O45 C44 1.203 1_565 S
O46 C39 1.185 . S
O46 Zn42 2.086 . S
C47 O43 1.278 . S
C47 O48 1.211 . S
O48 C47 1.211 . S
C49 O41 1.284 1_565 S
C49 O50 1.273 . S
O50 C49 1.273 . S
O51 Zn42 1.977 . S
O51 C44 1.267 . S
C52 O53 1.160 . S
C52 O59 1.185 . S
O53 C52 1.160 . S
O54 Zn55 1.899 . S
O54 C62 1.284 . S
Zn55 O54 1.899 . S
Zn55 O56 2.032 . S
Zn55 O59 2.086 . S
Zn55 O64 1.977 . S
O56 Zn55 2.032 . S
O56 C60 1.278 . S
C57 O58 1.203 . S
C57 O64 1.267 . S
O58 C57 1.203 . S
O59 C52 1.185 . S
O59 Zn55 2.086 . S
C60 O56 1.278 . S
C60 O61 1.211 . S
O61 C60 1.211 . S
C62 O54 1.284 . S
C62 O63 1.273 . S
O63 C62 1.273 . S
O64 Zn55 1.977 . S
O64 C57 1.267 . S
C65 O66 1.160 . S
C65 O72 1.185 . S
O66 C65 1.160 . S
O67 Zn68 1.899 . S
O67 C75 1.284 . S
Zn68 O67 1.899 . S
Zn68 O69 2.032 . S
Zn68 O72 2.086 1_455 S
Zn68 O77 1.977 1_455 S
O69 Zn68 2.032 . S
O69 C73 1.278 . S
C70 O71 1.203 . S
C70 O77 1.267 1_455 S
O71 C70 1.203 . S
O72 C65 1.185 . S
O72 Zn68 2.086 1_655 S
C73 O69 1.278 . S
C73 O74 1.211 . S
O74 C73 1.211 . S
C75 O67 1.284 . S
C75 O76 1.273 . S
O76 C75 1.273 . S
O77 Zn68 1.977 1_655 S
O77 C70 1.267 1_655 S
H78 C86 0.950 . S
H79 C91 0.950 1_565 S
H80 C88 0.950 . S
H81 C90 0.950 1_565 S
H82 C92 0.950 1_565 S
H83 C94 0.950 1_565 S
H84 C96 0.950 . S
H85 C97 0.950 . S
C86 H78 0.950 . S
C86 C87 1.386 . S
C86 C88 1.391 . S
C87 C86 1.386 . S
C87 C91 1.393 . S
C88 H80 0.950 . S
C88 C86 1.391 . S
C88 C89 1.400 . S
C89 C88 1.400 . S
C89 C90 1.398 . S
C89 C95 1.491 . S
C90 H81 0.950 1_545 S
C90 C89 1.398 . S
C90 C91 1.391 . S
C91 H79 0.950 1_545 S
C91 C87 1.393 . S
C91 C90 1.391 . S
C92 H82 0.950 1_545 S
C92 C93 1.386 . S
C92 C94 1.391 . S
C93 C92 1.386 . S
C93 C97 1.393 . S
C94 H83 0.950 1_545 S
C94 C92 1.391 . S
C94 C95 1.400 . S
C95 C89 1.491 . S
C95 C94 1.400 . S
C95 C96 1.398 . S
C96 H84 0.950 . S
C96 C95 1.398 . S
C96 C97 1.391 . S
C97 H85 0.950 . S
C97 C93 1.393 . S
C97 C96 1.391 . S
H98 C106 0.950 . S
H99 C111 0.950 . S
H100 C108 0.950 . S
H101 C110 0.950 . S
H102 C112 0.950 . S
H103 C114 0.950 . S
H104 C116 0.950 . S
H105 C117 0.950 . S
C106 H98 0.950 . S
C106 C107 1.386 . S
C106 C108 1.391 . S
C107 C106 1.386 . S
C107 C111 1.393 . S
C108 H100 0.950 . S
C108 C106 1.391 . S
C108 C109 1.400 . S
C109 C108 1.400 . S
C109 C110 1.398 . S
C109 C115 1.491 . S
C110 H101 0.950 . S
C110 C109 1.398 . S
C110 C111 1.391 . S
C111 H99 0.950 . S
C111 C107 1.393 . S
C111 C110 1.391 . S
C112 H102 0.950 . S
C112 C113 1.386 . S
C112 C114 1.391 . S
C113 C112 1.386 . S
C113 C117 1.393 . S
C114 H103 0.950 . S
C114 C112 1.391 . S
C114 C115 1.400 . S
C115 C109 1.491 . S
C115 C114 1.400 . S
C115 C116 1.398 . S
C116 H104 0.950 . S
C116 C115 1.398 . S
C116 C117 1.391 . S
C117 H105 0.950 . S
C117 C113 1.393 . S
C117 C116 1.391 . S
H118 C126 0.950 . S
H119 C131 0.950 . S
H120 C128 0.950 . S
H121 C130 0.950 . S
H122 C132 0.950 . S
H123 C134 0.950 . S
H124 C136 0.950 . S
H125 C137 0.950 . S
C126 H118 0.950 . S
C126 C127 1.386 . S
C126 C128 1.391 . S
C127 C126 1.386 . S
C127 C131 1.393 1_455 S
C128 H120 0.950 . S
C128 C126 1.391 . S
C128 C129 1.400 . S
C129 C128 1.400 . S
C129 C130 1.398 1_455 S
C129 C135 1.491 . S
C130 H121 0.950 . S
C130 C129 1.398 1_655 S
C130 C131 1.391 . S
C131 H119 0.950 . S
C131 C127 1.393 1_655 S
C131 C130 1.391 . S
C132 H122 0.950 . S
C132 C133 1.386 1_655 S
C132 C134 1.391 . S
C133 C132 1.386 1_455 S
C133 C137 1.393 . S
C134 H123 0.950 . S
C134 C132 1.391 . S
C134 C135 1.400 1_655 S
C135 C129 1.491 . S
C135 C134 1.400 1_455 S
C135 C136 1.398 . S
C136 H124 0.950 . S
C136 C135 1.398 . S
C136 C137 1.391 . S
C137 H125 0.950 . S
C137 C133 1.393 . S
C137 C136 1.391 . S
H138 C146 0.950 . S
H139 C151 0.950 . S
H140 C148 0.950 . S
H141 C150 0.950 . S
H142 C152 0.950 . S
H143 C154 0.950 . S
H144 C156 0.950 . S
H145 C157 0.950 . S
C146 H138 0.950 . S
C146 C147 1.386 . S
C146 C148 1.391 . S
C147 C146 1.386 . S
C147 C151 1.393 1_545 S
C148 H140 0.950 . S
C148 C146 1.391 . S
C148 C149 1.400 . S
C149 C148 1.400 . S
C149 C150 1.398 1_545 S
C149 C155 1.491 . S
C150 H141 0.950 . S
C150 C149 1.398 1_565 S
C150 C151 1.391 . S
C151 H139 0.950 . S
C151 C147 1.393 1_565 S
C151 C150 1.391 . S
C152 H142 0.950 . S
C152 C153 1.386 1_565 S
C152 C154 1.391 . S
C153 C152 1.386 1_545 S
C153 C157 1.393 . S
C154 H143 0.950 . S
C154 C152 1.391 . S
C154 C155 1.400 1_565 S
C155 C149 1.491 . S
C155 C154 1.400 1_545 S
C155 C156 1.398 . S
C156 H144 0.950 . S
C156 C155 1.398 . S
C156 C157 1.391 . S
C157 H145 0.950 . S
C157 C153 1.393 . S
C157 C156 1.391 . S
H158 C166 0.950 . S
H159 C171 0.950 . S
H160 C168 0.950 . S
H161 C170 0.950 . S
H162 C172 0.950 . S
H163 C174 0.950 . S
H164 C176 0.950 . S
H165 C177 0.950 . S
C166 H158 0.950 . S
C166 C167 1.386 . S
C166 C168 1.391 1_554 S
C167 C166 1.386 . S
C167 C171 1.393 . S
C168 H160 0.950 . S
C168 C166 1.391 1_556 S
C168 C169 1.400 . S
C169 C168 1.400 . S
C169 C170 1.398 1_556 S
C169 C175 1.491 . S
C170 H161 0.950 . S
C170 C169 1.398 1_554 S
C170 C171 1.391 . S
C171 H159 0.950 . S
C171 C167 1.393 . S
C171 C170 1.391 . S
C172 H162 0.950 . S
C172 C173 1.386 . S
C172 C174 1.391 . S
C173 C172 1.386 . S
C173 C177 1.393 . S
C174 H163 0.950 . S
C174 C172 1.391 . S
C174 C175 1.400 . S
C175 C169 1.491 . S
C175 C174 1.400 . S
C175 C176 1.398 . S
C176 H164 0.950 . S
C176 C175 1.398 . S
C176 C177 1.391 . S
C177 H165 0.950 . S
C177 C173 1.393 . S
C177 C176 1.391 . S
H178 C186 0.950 . S
H179 C191 0.950 . S
H180 C188 0.950 . S
H181 C190 0.950 . S
H182 C192 0.950 . S
H183 C194 0.950 . S
H184 C196 0.950 . S
H185 C197 0.950 . S
C186 H178 0.950 . S
C186 C187 1.386 . S
C186 C188 1.391 . S
C187 C186 1.386 . S
C187 C191 1.393 1_455 S
C188 H180 0.950 . S
C188 C186 1.391 . S
C188 C189 1.400 . S
C189 C188 1.400 . S
C189 C190 1.398 1_455 S
C189 C195 1.491 . S
C190 H181 0.950 . S
C190 C189 1.398 1_655 S
C190 C191 1.391 . S
C191 H179 0.950 . S
C191 C187 1.393 1_655 S
C191 C190 1.391 . S
C192 H182 0.950 . S
C192 C193 1.386 1_655 S
C192 C194 1.391 . S
C193 C192 1.386 1_455 S
C193 C197 1.393 . S
C194 H183 0.950 . S
C194 C192 1.391 . S
C194 C195 1.400 1_655 S
C195 C189 1.491 . S
C195 C194 1.400 1_455 S
C195 C196 1.398 . S
C196 H184 0.950 . S
C196 C195 1.398 . S
C196 C197 1.391 . S
C197 H185 0.950 . S
C197 C193 1.393 . S
C197 C196 1.391 . S
H198 C206 0.950 . S
H199 C211 0.950 . S
H200 C208 0.950 . S
H201 C210 0.950 . S
H202 C212 0.950 . S
H203 C214 0.950 . S
H204 C216 0.950 . S
H205 C217 0.950 . S
C206 H198 0.950 . S
C206 C207 1.386 . S
C206 C208 1.391 . S
C207 C206 1.386 . S
C207 C211 1.393 . S
C208 H200 0.950 . S
C208 C206 1.391 . S
C208 C209 1.400 . S
C209 C208 1.400 . S
C209 C210 1.398 . S
C209 C215 1.491 . S
C210 H201 0.950 . S
C210 C209 1.398 . S
C210 C211 1.391 . S
C211 H199 0.950 . S
C211 C207 1.393 . S
C211 C210 1.391 . S
C212 H202 0.950 . S
C212 C213 1.386 . S
C212 C214 1.391 . S
C213 C212 1.386 . S
C213 C217 1.393 . S
C214 H203 0.950 . S
C214 C212 1.391 . S
C214 C215 1.400 . S
C215 C209 1.491 . S
C215 C214 1.400 . S
C215 C216 1.398 . S
C216 H204 0.950 . S
C216 C215 1.398 . S
C216 C217 1.391 . S
C217 H205 0.950 . S
C217 C213 1.393 . S
C217 C216 1.391 . S
H218 C226 0.950 . S
H219 C231 0.950 . S
H220 C228 0.950 . S
H221 C230 0.950 . S
H222 C232 0.950 . S
H223 C234 0.950 . S
H224 C236 0.950 . S
H225 C237 0.950 . S
C226 H218 0.950 . S
C226 C227 1.386 . S
C226 C228 1.391 . S
C227 C226 1.386 . S
C227 C231 1.393 . S
C228 H220 0.950 . S
C228 C226 1.391 . S
C228 C229 1.400 . S
C229 C228 1.400 . S
C229 C230 1.398 . S
C229 C235 1.491 . S
C230 H221 0.950 . S
C230 C229 1.398 . S
C230 C231 1.391 . S
C231 H219 0.950 . S
C231 C227 1.393 . S
C231 C230 1.391 . S
C232 H222 0.950 . S
C232 C233 1.386 . S
C232 C234 1.391 . S
C233 C232 1.386 . S
C233 C237 1.393 . S
C234 H223 0.950 . S
C234 C232 1.391 . S
C234 C235 1.400 . S
C235 C229 1.491 . S
C235 C234 1.400 . S
C235 C236 1.398 . S
C236 H224 0.950 . S
C236 C235 1.398 . S
C236 C237 1.391 . S
C237 H225 0.950 . S
C237 C233 1.393 . S
C237 C236 1.391 . S
H238 C246 0.950 . S
H239 C251 0.950 . S
H240 C248 0.950 . S
H241 C250 0.950 . S
H242 C252 0.950 . S
H243 C254 0.950 . S
H244 C256 0.950 . S
H245 C257 0.950 . S
C246 H238 0.950 . S
C246 C247 1.386 . S
C246 C248 1.391 . S
C247 C246 1.386 . S
C247 C251 1.393 . S
C248 H240 0.950 . S
C248 C246 1.391 . S
C248 C249 1.400 . S
C249 C248 1.400 . S
C249 C250 1.398 . S
C249 C255 1.491 . S
C250 H241 0.950 . S
C250 C249 1.398 . S
C250 C251 1.391 . S
C251 H239 0.950 . S
C251 C247 1.393 . S
C251 C250 1.391 . S
C252 H242 0.950 . S
C252 C253 1.386 . S
C252 C254 1.391 . S
C253 C252 1.386 . S
C253 C257 1.393 . S
C254 H243 0.950 . S
C254 C252 1.391 . S
C254 C255 1.400 . S
C255 C249 1.491 . S
C255 C254 1.400 . S
C255 C256 1.398 . S
C256 H244 0.950 . S
C256 C255 1.398 . S
C256 C257 1.391 . S
C257 H245 0.950 . S
C257 C253 1.393 . S
C257 C256 1.391 . S
H258 C266 0.950 . S
H259 C271 0.950 . S
H260 C268 0.950 . S
H261 C270 0.950 . S
H262 C272 0.950 . S
H263 C274 0.950 . S
H264 C276 0.950 . S
H265 C277 0.950 . S
C266 H258 0.950 . S
C266 C267 1.386 . S
C266 C268 1.391 . S
C267 C266 1.386 . S
C267 C271 1.393 . S
C268 H260 0.950 . S
C268 C266 1.391 . S
C268 C269 1.400 . S
C269 C268 1.400 . S
C269 C270 1.398 . S
C269 C275 1.491 . S
C270 H261 0.950 . S
C270 C269 1.398 . S
C270 C271 1.391 . S
C271 H259 0.950 . S
C271 C267 1.393 . S
C271 C270 1.391 . S
C272 H262 0.950 . S
C272 C273 1.386 . S
C272 C274 1.391 . S
C273 C272 1.386 . S
C273 C277 1.393 . S
C274 H263 0.950 . S
C274 C272 1.391 . S
C274 C275 1.400 . S
C275 C269 1.491 . S
C275 C274 1.400 . S
C275 C276 1.398 . S
C276 H264 0.950 . S
C276 C275 1.398 . S
C276 C277 1.391 . S
C277 H265 0.950 . S
C277 C273 1.393 . S
C277 C276 1.391 . S
H278 C286 0.950 . S
H279 C291 0.950 . S
H280 C288 0.950 . S
H281 C290 0.950 . S
H282 C292 0.950 . S
H283 C294 0.950 . S
H284 C296 0.950 . S
H285 C297 0.950 . S
C286 H278 0.950 . S
C286 C287 1.386 . S
C286 C288 1.391 . S
C287 C286 1.386 . S
C287 C291 1.393 . S
C288 H280 0.950 . S
C288 C286 1.391 . S
C288 C289 1.400 . S
C289 C288 1.400 . S
C289 C290 1.398 . S
C289 C295 1.491 . S
C290 H281 0.950 . S
C290 C289 1.398 . S
C290 C291 1.391 . S
C291 H279 0.950 . S
C291 C287 1.393 . S
C291 C290 1.391 . S
C292 H282 0.950 . S
C292 C293 1.386 . S
C292 C294 1.391 . S
C293 C292 1.386 . S
C293 C297 1.393 . S
C294 H283 0.950 . S
C294 C292 1.391 . S
C294 C295 1.400 . S
C295 C289 1.491 . S
C295 C294 1.400 . S
C295 C296 1.398 . S
C296 H284 0.950 . S
C296 C295 1.398 . S
C296 C297 1.391 . S
C297 H285 0.950 . S
C297 C293 1.393 . S
C297 C296 1.391 . S
H298 C306 0.950 . S
H299 C311 0.950 1_554 S
H300 C308 0.950 . S
H301 C310 0.950 . S
H302 C312 0.950 . S
H303 C314 0.950 . S
H304 C316 0.950 . S
H305 C317 0.950 . S
C306 H298 0.950 . S
C306 C307 1.386 . S
C306 C308 1.391 . S
C307 C306 1.386 . S
C307 C311 1.393 . S
C308 H300 0.950 . S
C308 C306 1.391 . S
C308 C309 1.400 . S
C309 C308 1.400 . S
C309 C310 1.398 1_556 S
C309 C315 1.491 . S
C310 H301 0.950 . S
C310 C309 1.398 1_554 S
C310 C311 1.391 1_554 S
C311 H299 0.950 1_556 S
C311 C307 1.393 . S
C311 C310 1.391 1_556 S
C312 H302 0.950 . S
C312 C313 1.386 . S
C312 C314 1.391 . S
C313 C312 1.386 . S
C313 C317 1.393 1_554 S
C314 H303 0.950 . S
C314 C312 1.391 . S
C314 C315 1.400 1_554 S
C315 C309 1.491 . S
C315 C314 1.400 1_556 S
C315 C316 1.398 . S
C316 H304 0.950 . S
C316 C315 1.398 . S
C316 C317 1.391 . S
C317 H305 0.950 . S
C317 C313 1.393 1_556 S
C317 C316 1.391 . S
C87 C8 1.372 . S
C93 C44 1.380 . S
C107 C21 1.391 . S
C113 C57 1.382 . S
C127 C70 1.394 . S
C133 C34 1.393 . S
C147 C5 1.393 . S
C153 C47 1.393 . S
C167 C18 1.397 . S
C173 C60 1.375 . S
C187 C73 1.369 1_554 S
C193 C31 1.387 . S
C207 C23 1.412 . S
C213 C0 1.410 . S
C227 C36 1.417 . S
C233 C13 1.413 . S
C247 C26 1.413 . S
C253 C49 1.416 . S
C267 C62 1.407 . S
C273 C39 1.405 . S
C287 C75 1.412 . S
C293 C52 1.403 . S
C307 C65 1.398 . S
C313 C10 1.407 . S
