# Generated by pormake.
# Topology umu, (4)-cn, num edge types: 1
# Building blocks:
#     Node 0, Type 0, BuildingBlock: QUQFOY_clean_sbu_1, # of connection points: 4
#     Node 1, Type 0, BuildingBlock: QUQFOY_clean_sbu_1, # of connection points: 4
#     Node 2, Type 0, BuildingBlock: QUQFOY_clean_sbu_1, # of connection points: 4
#     Node 3, Type 0, BuildingBlock: QUQFOY_clean_sbu_1, # of connection points: 4
#     Node 4, Type 0, BuildingBlock: QUQFOY_clean_sbu_1, # of connection points: 4
#     Node 5, Type 0, BuildingBlock: QUQFOY_clean_sbu_1, # of connection points: 4
#     Node 6, Type 0, BuildingBlock: QUQFOY_clean_sbu_1, # of connection points: 4
#     Node 7, Type 0, BuildingBlock: QUQFOY_clean_sbu_1, # of connection points: 4
#     Node 8, Type 0, BuildingBlock: QUQFOY_clean_sbu_1, # of connection points: 4
#     Node 9, Type 0, BuildingBlock: QUQFOY_clean_sbu_1, # of connection points: 4
#     Node 10, Type 0, BuildingBlock: QUQFOY_clean_sbu_1, # of connection points: 4
#     Node 11, Type 0, BuildingBlock: QUQFOY_clean_sbu_1, # of connection points: 4
#     Node 12, Type 0, BuildingBlock: QUQFOY_clean_sbu_1, # of connection points: 4
#     Node 13, Type 0, BuildingBlock: QUQFOY_clean_sbu_1, # of connection points: 4
#     Node 14, Type 0, BuildingBlock: QUQFOY_clean_sbu_1, # of connection points: 4
#     Node 15, Type 0, BuildingBlock: QUQFOY_clean_sbu_1, # of connection points: 4
#     Node 16, Type 0, BuildingBlock: QUQFOY_clean_sbu_1, # of connection points: 4
#     Node 17, Type 0, BuildingBlock: QUQFOY_clean_sbu_1, # of connection points: 4
#     Node 18, Type 0, BuildingBlock: QUQFOY_clean_sbu_1, # of connection points: 4
#     Node 19, Type 0, BuildingBlock: QUQFOY_clean_sbu_1, # of connection points: 4
#     Node 20, Type 0, BuildingBlock: QUQFOY_clean_sbu_1, # of connection points: 4
#     Node 21, Type 0, BuildingBlock: QUQFOY_clean_sbu_1, # of connection points: 4
#     Node 22, Type 0, BuildingBlock: QUQFOY_clean_sbu_1, # of connection points: 4
#     Node 23, Type 0, BuildingBlock: QUQFOY_clean_sbu_1, # of connection points: 4
#     Node 24, Type 0, BuildingBlock: QUQFOY_clean_sbu_1, # of connection points: 4
#     Node 25, Type 0, BuildingBlock: QUQFOY_clean_sbu_1, # of connection points: 4
#     Node 26, Type 0, BuildingBlock: QUQFOY_clean_sbu_1, # of connection points: 4
#     Node 27, Type 0, BuildingBlock: QUQFOY_clean_sbu_1, # of connection points: 4
#     Node 28, Type 0, BuildingBlock: QUQFOY_clean_sbu_1, # of connection points: 4
#     Node 29, Type 0, BuildingBlock: QUQFOY_clean_sbu_1, # of connection points: 4
#     Node 30, Type 0, BuildingBlock: QUQFOY_clean_sbu_1, # of connection points: 4
#     Node 31, Type 0, BuildingBlock: QUQFOY_clean_sbu_1, # of connection points: 4
#     Edge 32, Type (0, 0), BuildingBlock: KIFKEQ_clean_linker_1, # of connection points: 2
#     Edge 33, Type (0, 0), BuildingBlock: KIFKEQ_clean_linker_1, # of connection points: 2
#     Edge 34, Type (0, 0), BuildingBlock: KIFKEQ_clean_linker_1, # of connection points: 2
#     Edge 35, Type (0, 0), BuildingBlock: KIFKEQ_clean_linker_1, # of connection points: 2
#     Edge 36, Type (0, 0), BuildingBlock: KIFKEQ_clean_linker_1, # of connection points: 2
#     Edge 37, Type (0, 0), BuildingBlock: KIFKEQ_clean_linker_1, # of connection points: 2
#     Edge 38, Type (0, 0), BuildingBlock: KIFKEQ_clean_linker_1, # of connection points: 2
#     Edge 39, Type (0, 0), BuildingBlock: KIFKEQ_clean_linker_1, # of connection points: 2
#     Edge 40, Type (0, 0), BuildingBlock: KIFKEQ_clean_linker_1, # of connection points: 2
#     Edge 41, Type (0, 0), BuildingBlock: KIFKEQ_clean_linker_1, # of connection points: 2
#     Edge 42, Type (0, 0), BuildingBlock: KIFKEQ_clean_linker_1, # of connection points: 2
#     Edge 43, Type (0, 0), BuildingBlock: KIFKEQ_clean_linker_1, # of connection points: 2
#     Edge 44, Type (0, 0), BuildingBlock: KIFKEQ_clean_linker_1, # of connection points: 2
#     Edge 45, Type (0, 0), BuildingBlock: KIFKEQ_clean_linker_1, # of connection points: 2
#     Edge 46, Type (0, 0), BuildingBlock: KIFKEQ_clean_linker_1, # of connection points: 2
#     Edge 47, Type (0, 0), BuildingBlock: KIFKEQ_clean_linker_1, # of connection points: 2
#     Edge 48, Type (0, 0), BuildingBlock: KIFKEQ_clean_linker_1, # of connection points: 2
#     Edge 49, Type (0, 0), BuildingBlock: KIFKEQ_clean_linker_1, # of connection points: 2
#     Edge 50, Type (0, 0), BuildingBlock: KIFKEQ_clean_linker_1, # of connection points: 2
#     Edge 51, Type (0, 0), BuildingBlock: KIFKEQ_clean_linker_1, # of connection points: 2
#     Edge 52, Type (0, 0), BuildingBlock: KIFKEQ_clean_linker_1, # of connection points: 2
#     Edge 53, Type (0, 0), BuildingBlock: KIFKEQ_clean_linker_1, # of connection points: 2
#     Edge 54, Type (0, 0), BuildingBlock: KIFKEQ_clean_linker_1, # of connection points: 2
#     Edge 55, Type (0, 0), BuildingBlock: KIFKEQ_clean_linker_1, # of connection points: 2
#     Edge 56, Type (0, 0), BuildingBlock: KIFKEQ_clean_linker_1, # of connection points: 2
#     Edge 57, Type (0, 0), BuildingBlock: KIFKEQ_clean_linker_1, # of connection points: 2
#     Edge 58, Type (0, 0), BuildingBlock: KIFKEQ_clean_linker_1, # of connection points: 2
#     Edge 59, Type (0, 0), BuildingBlock: KIFKEQ_clean_linker_1, # of connection points: 2
#     Edge 60, Type (0, 0), BuildingBlock: KIFKEQ_clean_linker_1, # of connection points: 2
#     Edge 61, Type (0, 0), BuildingBlock: KIFKEQ_clean_linker_1, # of connection points: 2
#     Edge 62, Type (0, 0), BuildingBlock: KIFKEQ_clean_linker_1, # of connection points: 2
#     Edge 63, Type (0, 0), BuildingBlock: KIFKEQ_clean_linker_1, # of connection points: 2
#     Edge 64, Type (0, 0), BuildingBlock: KIFKEQ_clean_linker_1, # of connection points: 2
#     Edge 65, Type (0, 0), BuildingBlock: KIFKEQ_clean_linker_1, # of connection points: 2
#     Edge 66, Type (0, 0), BuildingBlock: KIFKEQ_clean_linker_1, # of connection points: 2
#     Edge 67, Type (0, 0), BuildingBlock: KIFKEQ_clean_linker_1, # of connection points: 2
#     Edge 68, Type (0, 0), BuildingBlock: KIFKEQ_clean_linker_1, # of connection points: 2
#     Edge 69, Type (0, 0), BuildingBlock: KIFKEQ_clean_linker_1, # of connection points: 2
#     Edge 70, Type (0, 0), BuildingBlock: KIFKEQ_clean_linker_1, # of connection points: 2
#     Edge 71, Type (0, 0), BuildingBlock: KIFKEQ_clean_linker_1, # of connection points: 2
#     Edge 72, Type (0, 0), BuildingBlock: KIFKEQ_clean_linker_1, # of connection points: 2
#     Edge 73, Type (0, 0), BuildingBlock: KIFKEQ_clean_linker_1, # of connection points: 2
#     Edge 74, Type (0, 0), BuildingBlock: KIFKEQ_clean_linker_1, # of connection points: 2
#     Edge 75, Type (0, 0), BuildingBlock: KIFKEQ_clean_linker_1, # of connection points: 2
#     Edge 76, Type (0, 0), BuildingBlock: KIFKEQ_clean_linker_1, # of connection points: 2
#     Edge 77, Type (0, 0), BuildingBlock: KIFKEQ_clean_linker_1, # of connection points: 2
#     Edge 78, Type (0, 0), BuildingBlock: KIFKEQ_clean_linker_1, # of connection points: 2
#     Edge 79, Type (0, 0), BuildingBlock: KIFKEQ_clean_linker_1, # of connection points: 2
#     Edge 80, Type (0, 0), BuildingBlock: KIFKEQ_clean_linker_1, # of connection points: 2
#     Edge 81, Type (0, 0), BuildingBlock: KIFKEQ_clean_linker_1, # of connection points: 2
#     Edge 82, Type (0, 0), BuildingBlock: KIFKEQ_clean_linker_1, # of connection points: 2
#     Edge 83, Type (0, 0), BuildingBlock: KIFKEQ_clean_linker_1, # of connection points: 2
#     Edge 84, Type (0, 0), BuildingBlock: KIFKEQ_clean_linker_1, # of connection points: 2
#     Edge 85, Type (0, 0), BuildingBlock: KIFKEQ_clean_linker_1, # of connection points: 2
#     Edge 86, Type (0, 0), BuildingBlock: KIFKEQ_clean_linker_1, # of connection points: 2
#     Edge 87, Type (0, 0), BuildingBlock: KIFKEQ_clean_linker_1, # of connection points: 2
#     Edge 88, Type (0, 0), BuildingBlock: KIFKEQ_clean_linker_1, # of connection points: 2
#     Edge 89, Type (0, 0), BuildingBlock: KIFKEQ_clean_linker_1, # of connection points: 2
#     Edge 90, Type (0, 0), BuildingBlock: KIFKEQ_clean_linker_1, # of connection points: 2
#     Edge 91, Type (0, 0), BuildingBlock: KIFKEQ_clean_linker_1, # of connection points: 2
#     Edge 92, Type (0, 0), BuildingBlock: KIFKEQ_clean_linker_1, # of connection points: 2
#     Edge 93, Type (0, 0), BuildingBlock: KIFKEQ_clean_linker_1, # of connection points: 2
#     Edge 94, Type (0, 0), BuildingBlock: KIFKEQ_clean_linker_1, # of connection points: 2
#     Edge 95, Type (0, 0), BuildingBlock: KIFKEQ_clean_linker_1, # of connection points: 2
# Relax obj value: 0.033
# Max RMSD: 0.063
# Mean RMSD: 0.063
data_MOF--net-umu--node1-QUQFOY_clean_sbu_1--edge1-KIFKEQ_clean_linker_1
_symmetry_space_group_name_H-M    P1
_symmetry_Int_Tables_number       1
_symmetry_cell_setting            triclinic
loop_
_symmetry_equiv_pos_as_xyz
'x, y, z'
_cell_length_a     87.487225
_cell_length_b     87.48764
_cell_length_c     28.504791
_cell_angle_alpha  89.981989
_cell_angle_beta   89.990298
_cell_angle_gamma 90.02395
loop_
_atom_site_label
_atom_site_type_symbol
_atom_site_fract_x
_atom_site_fract_y
_atom_site_fract_z
_atom_type_partial_charge
O0 O 0.20939 0.15899 0.0128 0.0
Cd1 Cd 0.19385 0.16471 0.0636 0.0
Cd2 Cd 0.22315 0.1647 0.11471 0.0
O3 O 0.23135 0.15697 0.05057 0.0
O4 O 0.17507 0.16411 0.02425 0.0
O5 O 0.17892 0.14827 0.08328 0.0
C6 C 0.17063 0.15244 0.04806 0.0
C7 C 0.23203 0.15442 0.18568 0.0
C8 C 0.22357 0.15597 0.01298 0.0
C9 C 0.20438 0.19403 0.109 0.0
O10 O 0.21678 0.18735 0.11998 0.0
O11 O 0.19365 0.18682 0.08859 0.0
O12 O 0.24057 0.16294 0.15972 0.0
O13 O 0.21856 0.15104 0.1702 0.0
O14 O 0.08836 0.96089 0.25606 0.0
Cd15 Cd 0.08492 0.94656 0.31217 0.0
Cd16 Cd 0.08503 0.97559 0.35587 0.0
O17 O 0.0932 0.98281 0.29142 0.0
O18 O 0.08646 0.92644 0.28 0.0
O19 O 0.10344 0.93441 0.33185 0.0
C20 C 0.09925 0.92435 0.3013 0.0
C21 C 0.09542 0.98425 0.42677 0.0
C22 C 0.09251 0.97478 0.25428 0.0
C23 C 0.05582 0.95712 0.35626 0.0
O24 O 0.06214 0.97014 0.36016 0.0
O25 O 0.06346 0.94564 0.34224 0.0
O26 O 0.08743 0.99309 0.40019 0.0
O27 O 0.09824 0.97058 0.41186 0.0
O28 O 0.28519 0.84274 0.52247 0.0
Cd29 Cd 0.30145 0.838 0.57192 0.0
Cd30 Cd 0.27234 0.83759 0.62545 0.0
O31 O 0.26355 0.84508 0.56165 0.0
O32 O 0.31962 0.83853 0.52978 0.0
O33 O 0.31656 0.85473 0.58822 0.0
C34 C 0.32437 0.85035 0.55222 0.0
C35 C 0.26308 0.8474 0.69675 0.0
C36 C 0.27099 0.84564 0.52332 0.0
C37 C 0.29188 0.80863 0.61853 0.0
O38 O 0.27939 0.81507 0.63008 0.0
O39 O 0.30237 0.81605 0.59771 0.0
O40 O 0.25491 0.83855 0.67075 0.0
O41 O 0.27639 0.85133 0.68122 0.0
O42 O 0.40813 0.03855 0.76365 0.0
Cd43 Cd 0.41354 0.05427 0.81428 0.0
Cd44 Cd 0.41336 0.02512 0.86639 0.0
O45 O 0.40613 0.01669 0.80199 0.0
O46 O 0.41282 0.07301 0.77471 0.0
O47 O 0.39692 0.06903 0.83352 0.0
C48 C 0.40108 0.07735 0.79831 0.0
C49 C 0.40286 0.01614 0.93695 0.0
C50 C 0.40524 0.02435 0.76413 0.0
C51 C 0.44264 0.04407 0.86164 0.0
O52 O 0.43591 0.03172 0.87288 0.0
O53 O 0.43556 0.05466 0.84018 0.0
O54 O 0.4116 0.0077 0.9114 0.0
O55 O 0.39939 0.02955 0.92123 0.0
O56 O 0.20852 0.83575 0.20329 0.0
Cd57 Cd 0.19443 0.8347 0.14581 0.0
Cd58 Cd 0.22251 0.83693 0.10352 0.0
O59 O 0.22877 0.84557 0.16865 0.0
O60 O 0.17402 0.83643 0.17607 0.0
O61 O 0.18355 0.85428 0.12958 0.0
C62 C 0.17288 0.84984 0.15784 0.0
C63 C 0.23097 0.8477 0.0328 0.0
C64 C 0.22155 0.84207 0.2059 0.0
C65 C 0.20536 0.80706 0.09818 0.0
O66 O 0.21831 0.81368 0.09853 0.0
O67 O 0.1934 0.81435 0.10984 0.0
O68 O 0.24011 0.84028 0.06001 0.0
O69 O 0.2171 0.8498 0.0471 0.0
O70 O 0.40806 0.96215 0.44608 0.0
Cd71 Cd 0.41331 0.94612 0.39623 0.0
Cd72 Cd 0.41355 0.97525 0.34313 0.0
O73 O 0.40642 0.98396 0.40728 0.0
O74 O 0.41245 0.92766 0.43706 0.0
O75 O 0.39649 0.93137 0.37828 0.0
C76 C 0.4006 0.92329 0.41404 0.0
C77 C 0.40318 0.98431 0.27247 0.0
C78 C 0.40538 0.97639 0.44527 0.0
C79 C 0.44253 0.95582 0.34829 0.0
O80 O 0.43598 0.96825 0.33687 0.0
O81 O 0.4353 0.94537 0.36999 0.0
O82 O 0.41211 0.99262 0.2978 0.0
O83 O 0.39948 0.97098 0.2884 0.0
O84 O 0.28567 0.15734 0.69611 0.0
Cd85 Cd 0.30196 0.16351 0.64808 0.0
Cd86 Cd 0.2729 0.16411 0.59313 0.0
O87 O 0.26396 0.15656 0.65655 0.0
O88 O 0.32003 0.16287 0.69051 0.0
O89 O 0.31751 0.14747 0.62978 0.0
C90 C 0.32512 0.15152 0.66654 0.0
C91 C 0.26391 0.15427 0.52163 0.0
C92 C 0.27139 0.15487 0.69456 0.0
C93 C 0.29218 0.19313 0.60225 0.0
O94 O 0.27998 0.18657 0.58868 0.0
O95 O 0.30241 0.18581 0.62459 0.0
O96 O 0.25562 0.16308 0.54738 0.0
O97 O 0.2772 0.1504 0.53751 0.0
O98 O 0.09214 0.03646 0.93813 0.0
Cd99 Cd 0.08562 0.05323 0.89212 0.0
Cd100 Cd 0.08453 0.02456 0.83462 0.0
O101 O 0.092 0.01501 0.89712 0.0
O102 O 0.0862 0.07077 0.93664 0.0
O103 O 0.10136 0.06926 0.87506 0.0
C104 C 0.09734 0.07636 0.9128 0.0
C105 C 0.09425 0.01575 0.76281 0.0
C106 C 0.09421 0.02214 0.9354 0.0
C107 C 0.05572 0.04392 0.84648 0.0
O108 O 0.06215 0.03188 0.83118 0.0
O109 O 0.06319 0.05382 0.86974 0.0
O110 O 0.08524 0.00751 0.78809 0.0
O111 O 0.0983 0.02891 0.77918 0.0
O112 O 0.78369 0.84161 0.18548 0.0
Cd113 Cd 0.80014 0.83728 0.13619 0.0
Cd114 Cd 0.7711 0.83676 0.08207 0.0
O115 O 0.76207 0.84372 0.14609 0.0
O116 O 0.8182 0.83776 0.17874 0.0
O117 O 0.81513 0.85421 0.12093 0.0
C118 C 0.82291 0.84971 0.15685 0.0
C119 C 0.76187 0.84691 0.0112 0.0
C120 C 0.76944 0.84425 0.18455 0.0
C121 C 0.79105 0.80806 0.08775 0.0
O122 O 0.7785 0.81438 0.07627 0.0
O123 O 0.80138 0.8155 0.10926 0.0
O124 O 0.75376 0.83778 0.0365 0.0
O125 O 0.7751 0.85091 0.0272 0.0
O126 O 0.90619 0.03729 0.94846 0.0
Cd127 Cd 0.91165 0.05291 0.8973 0.0
Cd128 Cd 0.91182 0.02347 0.84776 0.0
O129 O 0.90362 0.01533 0.9111 0.0
O130 O 0.91142 0.07149 0.93757 0.0
O131 O 0.89518 0.06806 0.87939 0.0
C132 C 0.89964 0.07613 0.91475 0.0
C133 C 0.90189 0.01484 0.77609 0.0
C134 C 0.9029 0.02316 0.94859 0.0
C135 C 0.94107 0.04218 0.85316 0.0
O136 O 0.93458 0.02947 0.84474 0.0
O137 O 0.9336 0.05328 0.87057 0.0
O138 O 0.91013 0.00615 0.80241 0.0
O139 O 0.89863 0.02834 0.79152 0.0
O140 O 0.70934 0.16107 0.69731 0.0
Cd141 Cd 0.69354 0.16446 0.64551 0.0
Cd142 Cd 0.72265 0.16416 0.59447 0.0
O143 O 0.73087 0.15673 0.65927 0.0
O144 O 0.67487 0.16352 0.68536 0.0
O145 O 0.67958 0.14677 0.6294 0.0
C146 C 0.67112 0.15113 0.66402 0.0
C147 C 0.7321 0.15422 0.5235 0.0
C148 C 0.72337 0.15745 0.69749 0.0
C149 C 0.70314 0.19326 0.59728 0.0
O150 O 0.71584 0.18677 0.58853 0.0
O151 O 0.69229 0.18597 0.61673 0.0
O152 O 0.74032 0.16287 0.54999 0.0
O153 O 0.71867 0.15046 0.53851 0.0
O154 O 0.58462 0.96034 0.4511 0.0
Cd155 Cd 0.58472 0.94666 0.39265 0.0
Cd156 Cd 0.58637 0.97427 0.35145 0.0
O157 O 0.59459 0.98059 0.41692 0.0
O158 O 0.58848 0.92596 0.41908 0.0
O159 O 0.60546 0.93846 0.37593 0.0
C160 C 0.60205 0.92681 0.40178 0.0
C161 C 0.5973 0.98294 0.28131 0.0
C162 C 0.59086 0.97341 0.45403 0.0
C163 C 0.55693 0.95658 0.34469 0.0
O164 O 0.56325 0.96967 0.34565 0.0
O165 O 0.56454 0.94478 0.35593 0.0
O166 O 0.5896 0.99194 0.30822 0.0
O167 O 0.59958 0.9691 0.29563 0.0
O168 O 0.78819 0.16208 0.01433 0.0
Cd169 Cd 0.80376 0.16568 0.0666 0.0
Cd170 Cd 0.77473 0.16504 0.11712 0.0
O171 O 0.76668 0.15747 0.05223 0.0
O172 O 0.82264 0.16478 0.02773 0.0
O173 O 0.81773 0.14814 0.08391 0.0
C174 C 0.82636 0.15249 0.04966 0.0
C175 C 0.76545 0.15484 0.18799 0.0
C176 C 0.7742 0.15827 0.01406 0.0
C177 C 0.79382 0.19439 0.11438 0.0
O178 O 0.7812 0.18775 0.12321 0.0
O179 O 0.80475 0.18722 0.09495 0.0
O180 O 0.75709 0.16337 0.1616 0.0
O181 O 0.77894 0.15135 0.17294 0.0
O182 O 0.58984 0.03644 0.77267 0.0
Cd183 Cd 0.58609 0.05218 0.82478 0.0
Cd184 Cd 0.58642 0.02314 0.87395 0.0
O185 O 0.59434 0.01489 0.81037 0.0
O186 O 0.58634 0.07081 0.78461 0.0
O187 O 0.60339 0.06673 0.84016 0.0
C188 C 0.59864 0.07501 0.80561 0.0
C189 C 0.59658 0.01443 0.94529 0.0
C190 C 0.59367 0.02245 0.77233 0.0
C191 C 0.55713 0.04189 0.8708 0.0
O192 O 0.56359 0.02905 0.87755 0.0
O193 O 0.56461 0.05314 0.85434 0.0
O194 O 0.58819 0.0058 0.91923 0.0
O195 O 0.59984 0.02793 0.9298 0.0
O196 O 0.70723 0.83455 0.50638 0.0
Cd197 Cd 0.69376 0.83527 0.5653 0.0
Cd198 Cd 0.72126 0.8373 0.60556 0.0
O199 O 0.72721 0.8454 0.53947 0.0
O200 O 0.67301 0.83943 0.53996 0.0
O201 O 0.68627 0.85631 0.58135 0.0
C202 C 0.67437 0.85308 0.5564 0.0
C203 C 0.7299 0.8484 0.67549 0.0
C204 C 0.72011 0.84115 0.50274 0.0
C205 C 0.70372 0.80789 0.61478 0.0
O206 O 0.71682 0.81416 0.61239 0.0
O207 O 0.69186 0.81547 0.60387 0.0
O208 O 0.73897 0.84084 0.64843 0.0
O209 O 0.71602 0.85052 0.6613 0.0
O210 O 0.90569 0.96139 0.26594 0.0
Cd211 Cd 0.9116 0.9452 0.31461 0.0
Cd212 Cd 0.91224 0.97424 0.36858 0.0
O213 O 0.90461 0.98313 0.30528 0.0
O214 O 0.91071 0.92698 0.27287 0.0
O215 O 0.89518 0.93006 0.33305 0.0
C216 C 0.89913 0.92227 0.29656 0.0
C217 C 0.90234 0.9832 0.43996 0.0
C218 C 0.90309 0.97565 0.26731 0.0
C219 C 0.94123 0.95496 0.36014 0.0
O220 O 0.93472 0.96726 0.37289 0.0
O221 O 0.93386 0.94459 0.33854 0.0
O222 O 0.91114 0.99152 0.41424 0.0
O223 O 0.89853 0.96989 0.42413 0.0
O224 O 0.71038 0.66081 0.51871 0.0
Cd225 Cd 0.6946 0.66454 0.57059 0.0
Cd226 Cd 0.72324 0.66517 0.62246 0.0
O227 O 0.73207 0.6587 0.55795 0.0
O228 O 0.67534 0.66286 0.53367 0.0
O229 O 0.68186 0.64617 0.58823 0.0
C230 C 0.6726 0.65025 0.55524 0.0
C231 C 0.73238 0.65433 0.69225 0.0
C232 C 0.72464 0.6582 0.51963 0.0
C233 C 0.70334 0.69369 0.62002 0.0
O234 O 0.71605 0.68747 0.63012 0.0
O235 O 0.69295 0.68621 0.59891 0.0
O236 O 0.74059 0.66356 0.66764 0.0
O237 O 0.71909 0.65061 0.67604 0.0
O238 O 0.5899 0.46304 0.76513 0.0
Cd239 Cd 0.58618 0.44772 0.81859 0.0
Cd240 Cd 0.58581 0.47652 0.86687 0.0
O241 O 0.59345 0.48476 0.80311 0.0
O242 O 0.58751 0.4282 0.7829 0.0
O243 O 0.60447 0.43491 0.83641 0.0
C244 C 0.60019 0.42548 0.80416 0.0
C245 C 0.59605 0.4853 0.93788 0.0
C246 C 0.59336 0.47713 0.76517 0.0
C247 C 0.55688 0.45748 0.86418 0.0
O248 O 0.56311 0.47041 0.87096 0.0
O249 O 0.56457 0.44638 0.84771 0.0
O250 O 0.58757 0.49389 0.91193 0.0
O251 O 0.59936 0.47182 0.9224 0.0
O252 O 0.78463 0.34378 0.02112 0.0
Cd253 Cd 0.80076 0.3384 0.07098 0.0
Cd254 Cd 0.77166 0.33798 0.1229 0.0
O255 O 0.76288 0.3457 0.06008 0.0
O256 O 0.81905 0.33875 0.02931 0.0
O257 O 0.81599 0.35495 0.08776 0.0
C258 C 0.82383 0.35053 0.05186 0.0
C259 C 0.76307 0.34805 0.19434 0.0
C260 C 0.77042 0.34667 0.0221 0.0
C261 C 0.79057 0.30892 0.11652 0.0
O262 O 0.77792 0.31533 0.12613 0.0
O263 O 0.80145 0.31644 0.09788 0.0
O264 O 0.7545 0.33946 0.16876 0.0
O265 O 0.77646 0.35152 0.17838 0.0
O266 O 0.90717 0.53952 0.26395 0.0
Cd267 Cd 0.91108 0.55519 0.31597 0.0
Cd268 Cd 0.91178 0.52632 0.36738 0.0
O269 O 0.90484 0.51778 0.3028 0.0
O270 O 0.90938 0.5745 0.27931 0.0
O271 O 0.89283 0.56798 0.33429 0.0
C272 C 0.89685 0.57727 0.30128 0.0
C273 C 0.90158 0.51691 0.43785 0.0
C274 C 0.90436 0.5253 0.26461 0.0
C275 C 0.94035 0.54625 0.36405 0.0
O276 O 0.93413 0.53352 0.37399 0.0
O277 O 0.93283 0.55674 0.34355 0.0
O278 O 0.91054 0.50877 0.41211 0.0
O279 O 0.8977 0.53024 0.42235 0.0
O280 O 0.70952 0.34001 0.70113 0.0
Cd281 Cd 0.69502 0.33663 0.64535 0.0
Cd282 Cd 0.72384 0.33696 0.60066 0.0
O283 O 0.73131 0.34483 0.66499 0.0
O284 O 0.67491 0.33826 0.67763 0.0
O285 O 0.68302 0.35527 0.62599 0.0
C286 C 0.67293 0.35111 0.65654 0.0
C287 C 0.73232 0.34778 0.53024 0.0
C288 C 0.72343 0.34412 0.70238 0.0
C289 C 0.70549 0.3077 0.59978 0.0
O290 O 0.71847 0.31409 0.59557 0.0
O291 O 0.69405 0.31524 0.61461 0.0
O292 O 0.74122 0.3396 0.55611 0.0
O293 O 0.71868 0.35049 0.54558 0.0
O294 O 0.90738 0.46259 0.94666 0.0
Cd295 Cd 0.91228 0.44673 0.89569 0.0
Cd296 Cd 0.91253 0.47592 0.84483 0.0
O297 O 0.90483 0.4844 0.90834 0.0
O298 O 0.91159 0.42813 0.93595 0.0
O299 O 0.8953 0.43209 0.87818 0.0
C300 C 0.8996 0.42387 0.91343 0.0
C301 C 0.90243 0.48466 0.77342 0.0
C302 C 0.90427 0.47676 0.94626 0.0
C303 C 0.94161 0.45687 0.84983 0.0
O304 O 0.93517 0.46957 0.84099 0.0
O305 O 0.93413 0.44591 0.86817 0.0
O306 O 0.91096 0.49322 0.79928 0.0
O307 O 0.899 0.47123 0.78915 0.0
O308 O 0.78634 0.66231 0.19834 0.0
Cd309 Cd 0.80089 0.66516 0.14239 0.0
Cd310 Cd 0.77214 0.6644 0.09736 0.0
O311 O 0.76461 0.65708 0.16235 0.0
O312 O 0.82102 0.66367 0.17467 0.0
O313 O 0.81282 0.64636 0.12418 0.0
C314 C 0.82295 0.65069 0.15433 0.0
C315 C 0.76356 0.65332 0.02737 0.0
C316 C 0.77243 0.65821 0.1998 0.0
C317 C 0.79043 0.6937 0.0948 0.0
O318 O 0.77749 0.68723 0.09083 0.0
O319 O 0.80189 0.68633 0.11026 0.0
O320 O 0.7547 0.66158 0.05308 0.0
O321 O 0.7772 0.65062 0.04273 0.0
O322 O 0.58921 0.53912 0.44603 0.0
Cd323 Cd 0.58547 0.55428 0.39218 0.0
Cd324 Cd 0.58523 0.5255 0.34439 0.0
O325 O 0.59292 0.51739 0.40825 0.0
O326 O 0.58696 0.57395 0.42702 0.0
O327 O 0.60383 0.56689 0.37363 0.0
C328 C 0.59963 0.57649 0.40554 0.0
C329 C 0.59562 0.51679 0.27351 0.0
C330 C 0.59277 0.52505 0.44613 0.0
C331 C 0.5562 0.54436 0.3468 0.0
O332 O 0.5625 0.53146 0.34013 0.0
O333 O 0.56384 0.55551 0.36318 0.0
O334 O 0.58717 0.50814 0.29938 0.0
O335 O 0.5988 0.5303 0.28899 0.0
O336 O 0.28426 0.34377 0.69086 0.0
Cd337 Cd 0.30045 0.33761 0.64208 0.0
Cd338 Cd 0.27146 0.33698 0.5893 0.0
O339 O 0.26254 0.34507 0.65151 0.0
O340 O 0.31857 0.33798 0.68433 0.0
O341 O 0.31608 0.35367 0.62429 0.0
C342 C 0.3237 0.34941 0.66081 0.0
C343 C 0.26315 0.34699 0.51746 0.0
C344 C 0.27004 0.34656 0.6894 0.0
C345 C 0.29014 0.30783 0.59834 0.0
O346 O 0.27764 0.31429 0.58717 0.0
O347 O 0.3009 0.31538 0.61744 0.0
O348 O 0.25447 0.33845 0.54286 0.0
O349 O 0.27652 0.35038 0.5337 0.0
O350 O 0.40666 0.53869 0.44632 0.0
Cd351 Cd 0.41218 0.5551 0.39791 0.0
Cd352 Cd 0.41295 0.52592 0.34295 0.0
O353 O 0.40573 0.51697 0.40683 0.0
O354 O 0.41138 0.57317 0.44032 0.0
O355 O 0.39568 0.57027 0.38049 0.0
C356 C 0.39976 0.57798 0.41703 0.0
C357 C 0.4032 0.51661 0.27163 0.0
C358 C 0.40428 0.5244 0.44496 0.0
C359 C 0.44168 0.54579 0.35059 0.0
O360 O 0.43526 0.53343 0.33777 0.0
O361 O 0.43431 0.55597 0.37297 0.0
O362 O 0.41216 0.50852 0.2975 0.0
O363 O 0.3991 0.52984 0.28734 0.0
O364 O 0.21061 0.65935 0.19741 0.0
Cd365 Cd 0.19527 0.66353 0.14464 0.0
Cd366 Cd 0.22413 0.66365 0.09471 0.0
O367 O 0.23241 0.6565 0.15923 0.0
O368 O 0.17577 0.66219 0.18047 0.0
O369 O 0.18225 0.64547 0.12595 0.0
C370 C 0.1729 0.64967 0.15855 0.0
C371 C 0.23314 0.65298 0.02459 0.0
C372 C 0.22476 0.65619 0.19718 0.0
C373 C 0.20499 0.69264 0.09693 0.0
O374 O 0.21767 0.6862 0.08786 0.0
O375 O 0.19423 0.68527 0.11665 0.0
O376 O 0.24159 0.66175 0.05003 0.0
O377 O 0.21969 0.64958 0.04021 0.0
O378 O 0.08989 0.46394 0.94222 0.0
Cd379 Cd 0.08568 0.44762 0.8924 0.0
Cd380 Cd 0.08426 0.47615 0.83793 0.0
O381 O 0.09093 0.48547 0.90168 0.0
O382 O 0.08732 0.42887 0.93175 0.0
O383 O 0.10371 0.43433 0.87529 0.0
C384 C 0.09971 0.42559 0.90968 0.0
C385 C 0.09434 0.48541 0.7671 0.0
C386 C 0.09208 0.47826 0.94029 0.0
C387 C 0.05606 0.45574 0.84436 0.0
O388 O 0.06208 0.46835 0.8321 0.0
O389 O 0.06376 0.44571 0.86633 0.0
O390 O 0.08505 0.49341 0.79212 0.0
O391 O 0.09853 0.47228 0.78336 0.0
O392 O 0.28606 0.65948 0.51674 0.0
Cd393 Cd 0.30155 0.66479 0.56849 0.0
Cd394 Cd 0.27236 0.66449 0.61777 0.0
O395 O 0.26418 0.65655 0.55434 0.0
O396 O 0.32038 0.66445 0.5293 0.0
O397 O 0.3164 0.64813 0.58699 0.0
C398 C 0.32474 0.65256 0.55218 0.0
C399 C 0.26403 0.65394 0.68888 0.0
C400 C 0.27196 0.65607 0.51671 0.0
C401 C 0.29062 0.69398 0.61345 0.0
O402 O 0.27798 0.68732 0.62166 0.0
O403 O 0.3018 0.68668 0.59586 0.0
O404 O 0.25518 0.66225 0.6633 0.0
O405 O 0.27756 0.65101 0.67303 0.0
O406 O 0.0865 0.5404 0.26056 0.0
Cd407 Cd 0.08359 0.55489 0.31654 0.0
Cd408 Cd 0.08383 0.52605 0.36126 0.0
O409 O 0.09147 0.5186 0.29649 0.0
O410 O 0.08536 0.575 0.28433 0.0
O411 O 0.10245 0.56666 0.33533 0.0
C412 C 0.0983 0.57683 0.30503 0.0
C413 C 0.09453 0.51734 0.43171 0.0
C414 C 0.09055 0.52647 0.25908 0.0
C415 C 0.05471 0.54468 0.36258 0.0
O416 O 0.06101 0.53165 0.36667 0.0
O417 O 0.06231 0.55608 0.34773 0.0
O418 O 0.0863 0.50856 0.40562 0.0
O419 O 0.0974 0.53097 0.41653 0.0
O420 O 0.20961 0.34137 0.01074 0.0
Cd421 Cd 0.1954 0.33772 0.06708 0.0
Cd422 Cd 0.22427 0.33804 0.11045 0.0
O423 O 0.23148 0.3463 0.04628 0.0
O424 O 0.17513 0.33931 0.03585 0.0
O425 O 0.18338 0.35621 0.08759 0.0
C426 C 0.17316 0.35207 0.05746 0.0
C427 C 0.23272 0.3486 0.18122 0.0
C428 C 0.22348 0.34562 0.00912 0.0
C429 C 0.20624 0.30864 0.11062 0.0
O430 O 0.2192 0.31509 0.11452 0.0
O431 O 0.19467 0.31619 0.09683 0.0
O432 O 0.24168 0.34068 0.15482 0.0
O433 O 0.21902 0.35122 0.16621 0.0
O434 O 0.4077 0.46132 0.76208 0.0
Cd435 Cd 0.41305 0.44536 0.81198 0.0
Cd436 Cd 0.41343 0.47457 0.86501 0.0
O437 O 0.4061 0.48315 0.80075 0.0
O438 O 0.41211 0.42683 0.77153 0.0
O439 O 0.39634 0.4306 0.83076 0.0
C440 C 0.40037 0.42245 0.79508 0.0
C441 C 0.40341 0.48379 0.93604 0.0
C442 C 0.405 0.47556 0.76281 0.0
C443 C 0.4424 0.45508 0.85892 0.0
O444 O 0.43587 0.46749 0.87069 0.0
O445 O 0.43512 0.44466 0.83731 0.0
O446 O 0.41222 0.49204 0.91012 0.0
O447 O 0.39959 0.47045 0.92049 0.0
H448 H 0.12038 0.09229 0.86959 0.0
H449 H 0.09412 0.09012 0.99789 0.0
H450 H 0.13647 0.1122 0.90416 0.0
H451 H 0.11025 0.10988 0.03227 0.0
H452 H 0.15766 0.12741 0.09022 0.0
H453 H 0.1383 0.11039 0.05692 0.0
H454 H 0.13483 0.13951 0.93513 0.0
H455 H 0.15402 0.15656 0.96826 0.0
C456 C 0.11791 0.0962 0.90484 0.0
C457 C 0.106 0.08961 0.93098 0.0
C458 C 0.12709 0.10761 0.92459 0.0
C459 C 0.12464 0.1125 0.971 0.0
C460 C 0.11248 0.10621 0.99662 0.0
C461 C 0.10319 0.09497 0.97673 0.0
C462 C 0.15256 0.13032 0.05676 0.0
C463 C 0.15742 0.14329 0.03185 0.0
C464 C 0.14148 0.12059 0.03772 0.0
C465 C 0.13519 0.12359 0.99325 0.0
C466 C 0.13963 0.13685 0.96919 0.0
C467 C 0.15055 0.14665 0.98841 0.0
H468 H 0.09147 0.89857 0.25342 0.0
H469 H 0.13015 0.92224 0.31339 0.0
H470 H 0.10873 0.8802 0.21667 0.0
H471 H 0.14742 0.90388 0.27623 0.0
H472 H 0.17232 0.881 0.15182 0.0
H473 H 0.1542 0.89833 0.18978 0.0
H474 H 0.1281 0.85965 0.23916 0.0
H475 H 0.14624 0.84232 0.20161 0.0
C476 C 0.10364 0.89969 0.25939 0.0
C477 C 0.10947 0.91183 0.28631 0.0
C478 C 0.11351 0.88919 0.23828 0.0
C479 C 0.1294 0.89076 0.24309 0.0
C480 C 0.13521 0.90256 0.27141 0.0
C481 C 0.12533 0.91294 0.29315 0.0
C482 C 0.16257 0.87621 0.17006 0.0
C483 C 0.16069 0.86031 0.17372 0.0
C484 C 0.15232 0.88611 0.19226 0.0
C485 C 0.13988 0.8803 0.2179 0.0
C486 C 0.1376 0.86442 0.21967 0.0
C487 C 0.14796 0.85452 0.19809 0.0
H488 H 0.37586 0.90976 0.37195 0.0
H489 H 0.40389 0.90804 0.49669 0.0
H490 H 0.35864 0.89075 0.40638 0.0
H491 H 0.38663 0.88923 0.53098 0.0
H492 H 0.33898 0.87458 0.59375 0.0
H493 H 0.35876 0.89084 0.55904 0.0
H494 H 0.3587 0.86284 0.4344 0.0
H495 H 0.33911 0.84652 0.46896 0.0
C496 C 0.37847 0.90518 0.40633 0.0
C497 C 0.39122 0.91042 0.43156 0.0
C498 C 0.36863 0.8943 0.42602 0.0
C499 C 0.37127 0.88863 0.4715 0.0
C500 C 0.38425 0.89354 0.4961 0.0
C501 C 0.39418 0.90423 0.47622 0.0
C502 C 0.34335 0.87177 0.55925 0.0
C503 C 0.33747 0.85928 0.53414 0.0
C504 C 0.35468 0.88105 0.53943 0.0
C505 C 0.36017 0.87812 0.49392 0.0
C506 C 0.35456 0.86543 0.46933 0.0
C507 C 0.34341 0.85604 0.48934 0.0
H508 H 0.37637 0.09059 0.84136 0.0
H509 H 0.40474 0.09355 0.71751 0.0
H510 H 0.35937 0.11006 0.8086 0.0
H511 H 0.3877 0.11284 0.68489 0.0
H512 H 0.34016 0.12805 0.62256 0.0
H513 H 0.36001 0.1116 0.65592 0.0
H514 H 0.35941 0.13818 0.78348 0.0
H515 H 0.33974 0.15467 0.75028 0.0
C516 C 0.3791 0.09554 0.80756 0.0
C517 C 0.39187 0.0905 0.78204 0.0
C518 C 0.36939 0.10669 0.78884 0.0
C519 C 0.37218 0.11285 0.74405 0.0
C520 C 0.3852 0.10816 0.71924 0.0
C521 C 0.395 0.09718 0.73816 0.0
C522 C 0.34444 0.13052 0.6574 0.0
C523 C 0.33837 0.14264 0.68376 0.0
C524 C 0.3558 0.12113 0.67647 0.0
C525 C 0.36115 0.12358 0.7224 0.0
C526 C 0.35538 0.13595 0.74819 0.0
C527 C 0.34419 0.14544 0.72897 0.0
H528 H 0.83754 0.87408 0.11618 0.0
H529 H 0.83756 0.84562 0.24017 0.0
H530 H 0.85734 0.89018 0.15138 0.0
H531 H 0.85718 0.86178 0.27522 0.0
H532 H 0.87455 0.90846 0.33884 0.0
H533 H 0.85733 0.88953 0.30415 0.0
H534 H 0.88515 0.88844 0.17913 0.0
H535 H 0.90241 0.90719 0.21364 0.0
C536 C 0.84189 0.87116 0.15061 0.0
C537 C 0.83598 0.85859 0.17534 0.0
C538 C 0.85323 0.88034 0.17072 0.0
C539 C 0.85871 0.87724 0.21613 0.0
C540 C 0.85305 0.86449 0.24037 0.0
C541 C 0.84189 0.8552 0.22008 0.0
C542 C 0.87713 0.90398 0.30431 0.0
C543 C 0.88982 0.90935 0.279 0.0
C544 C 0.86729 0.89315 0.28448 0.0
C545 C 0.86986 0.88764 0.23879 0.0
C546 C 0.88281 0.89264 0.21416 0.0
C547 C 0.89274 0.90329 0.23416 0.0
H548 H 0.87568 0.09076 0.87186 0.0
H549 H 0.90323 0.09106 0.99774 0.0
H550 H 0.85926 0.11056 0.90574 0.0
H551 H 0.88673 0.11062 0.0315 0.0
H552 H 0.8392 0.12733 0.09145 0.0
H553 H 0.85833 0.11012 0.05768 0.0
H554 H 0.86107 0.13866 0.93445 0.0
H555 H 0.84218 0.15595 0.96815 0.0
C556 C 0.87835 0.09518 0.9064 0.0
C557 C 0.89074 0.08934 0.93208 0.0
C558 C 0.86897 0.1065 0.92575 0.0
C559 C 0.8717 0.11201 0.97135 0.0
C560 C 0.88431 0.10646 0.99648 0.0
C561 C 0.8938 0.09534 0.97692 0.0
C562 C 0.84407 0.13005 0.05752 0.0
C563 C 0.83918 0.14299 0.03252 0.0
C564 C 0.85501 0.12022 0.03823 0.0
C565 C 0.86106 0.12305 0.99334 0.0
C566 C 0.85647 0.13617 0.96891 0.0
C567 C 0.84573 0.14611 0.98844 0.0
H568 H 0.65613 0.15442 0.74703 0.0
H569 H 0.65798 0.12594 0.62328 0.0
H570 H 0.63763 0.13703 0.78231 0.0
H571 H 0.63921 0.10863 0.65865 0.0
H572 H 0.59452 0.08994 0.72284 0.0
H573 H 0.61094 0.1093 0.68751 0.0
H574 H 0.63973 0.10875 0.81042 0.0
H575 H 0.6234 0.08913 0.84584 0.0
C576 C 0.65241 0.14458 0.72699 0.0
C577 C 0.65853 0.14154 0.68229 0.0
C578 C 0.6419 0.13458 0.74744 0.0
C579 C 0.63708 0.12147 0.72332 0.0
C580 C 0.64271 0.11872 0.67788 0.0
C581 C 0.65344 0.1286 0.65767 0.0
C582 C 0.60424 0.09406 0.74269 0.0
C583 C 0.60767 0.088 0.7872 0.0
C584 C 0.61368 0.10506 0.72222 0.0
C585 C 0.62662 0.11043 0.74612 0.0
C586 C 0.62977 0.10482 0.79136 0.0
C587 C 0.62044 0.09361 0.81159 0.0
H588 H 0.59973 0.89588 0.4077 0.0
H589 H 0.63027 0.93354 0.43415 0.0
H590 H 0.61756 0.87844 0.44542 0.0
H591 H 0.64747 0.91666 0.47626 0.0
H592 H 0.68178 0.88089 0.52212 0.0
H593 H 0.66521 0.89838 0.47998 0.0
H594 H 0.62627 0.86984 0.51441 0.0
H595 H 0.64335 0.85168 0.55217 0.0
C596 C 0.61037 0.90035 0.42147 0.0
C597 C 0.61379 0.91594 0.4175 0.0
C598 C 0.62051 0.89044 0.44409 0.0
C599 C 0.634 0.89602 0.4652 0.0
C600 C 0.63746 0.91169 0.46008 0.0
C601 C 0.62758 0.92146 0.43585 0.0
C602 C 0.66961 0.87857 0.52119 0.0
C603 C 0.66377 0.86505 0.54057 0.0
C604 C 0.66002 0.88861 0.49695 0.0
C605 C 0.64423 0.88562 0.49283 0.0
C606 C 0.63836 0.87242 0.51495 0.0
C607 C 0.64807 0.8621 0.53759 0.0
H608 H 0.64731 0.65822 0.50522 0.0
H609 H 0.67052 0.6193 0.56532 0.0
H610 H 0.62918 0.64107 0.46649 0.0
H611 H 0.65252 0.60216 0.5258 0.0
H612 H 0.63063 0.5784 0.39664 0.0
H613 H 0.64762 0.59666 0.43559 0.0
H614 H 0.60849 0.62069 0.4908 0.0
H615 H 0.59148 0.60231 0.45264 0.0
C616 C 0.64839 0.64602 0.51069 0.0
C617 C 0.66029 0.64008 0.53838 0.0
C618 C 0.63805 0.63623 0.48844 0.0
C619 C 0.63962 0.62033 0.49271 0.0
C620 C 0.65122 0.61439 0.52153 0.0
C621 C 0.66139 0.62419 0.54455 0.0
C622 C 0.62566 0.58775 0.41633 0.0
C623 C 0.60974 0.58896 0.42158 0.0
C624 C 0.63537 0.59807 0.43904 0.0
C625 C 0.62933 0.60993 0.4666 0.0
C626 C 0.61341 0.61162 0.46982 0.0
C627 C 0.60371 0.60113 0.4479 0.0
H628 H 0.59184 0.40018 0.75473 0.0
H629 H 0.6311 0.42297 0.81435 0.0
H630 H 0.60871 0.38176 0.71628 0.0
H631 H 0.64797 0.40465 0.77522 0.0
H632 H 0.67174 0.38215 0.64777 0.0
H633 H 0.6537 0.39949 0.68614 0.0
H634 H 0.6285 0.36082 0.73974 0.0
H635 H 0.64663 0.34347 0.70205 0.0
C636 C 0.60406 0.40111 0.76018 0.0
C637 C 0.61017 0.41298 0.78762 0.0
C638 C 0.61369 0.3906 0.73809 0.0
C639 C 0.62962 0.39194 0.7423 0.0
C640 C 0.63572 0.40351 0.77094 0.0
C641 C 0.62607 0.41386 0.79376 0.0
C642 C 0.66218 0.37736 0.66694 0.0
C643 C 0.66058 0.36146 0.6719 0.0
C644 C 0.65199 0.38727 0.68935 0.0
C645 C 0.63986 0.38146 0.71635 0.0
C646 C 0.63778 0.36558 0.71919 0.0
C647 C 0.64812 0.35567 0.69753 0.0
H648 H 0.90317 0.40847 0.99571 0.0
H649 H 0.87475 0.41035 0.87181 0.0
H650 H 0.88608 0.38953 0.03012 0.0
H651 H 0.85772 0.3912 0.90634 0.0
H652 H 0.83856 0.34675 0.96855 0.0
H653 H 0.85805 0.36317 0.93391 0.0
H654 H 0.8582 0.39103 0.05883 0.0
H655 H 0.83851 0.37468 0.0936 0.0
C656 C 0.89341 0.40467 0.97545 0.0
C657 C 0.8903 0.41094 0.93099 0.0
C658 C 0.88358 0.3939 0.99539 0.0
C659 C 0.87055 0.38899 0.97104 0.0
C660 C 0.86775 0.39475 0.92576 0.0
C661 C 0.87748 0.40571 0.90603 0.0
C662 C 0.84287 0.35626 0.98899 0.0
C663 C 0.83696 0.35944 0.03387 0.0
C664 C 0.85395 0.3657 0.96893 0.0
C665 C 0.85955 0.37839 0.99356 0.0
C666 C 0.85412 0.38125 0.03918 0.0
C667 C 0.84285 0.37191 0.05905 0.0
H668 H 0.84934 0.65865 0.19882 0.0
H669 H 0.82424 0.61962 0.14704 0.0
H670 H 0.86773 0.64154 0.23641 0.0
H671 H 0.84254 0.60253 0.18534 0.0
H672 H 0.86599 0.57966 0.31323 0.0
H673 H 0.84878 0.59775 0.27447 0.0
H674 H 0.88754 0.62062 0.21235 0.0
H675 H 0.90475 0.60242 0.25041 0.0
C676 C 0.8479 0.64642 0.19486 0.0
C677 C 0.83538 0.64046 0.16992 0.0
C678 C 0.85839 0.63666 0.21646 0.0
C679 C 0.8564 0.62075 0.21427 0.0
C680 C 0.84419 0.61477 0.18803 0.0
C681 C 0.83384 0.62454 0.16567 0.0
C682 C 0.87084 0.58871 0.29201 0.0
C683 C 0.8867 0.58964 0.28486 0.0
C684 C 0.861 0.59894 0.26941 0.0
C685 C 0.86686 0.61043 0.24001 0.0
C686 C 0.88275 0.61184 0.23477 0.0
C687 C 0.89257 0.60145 0.25663 0.0
H688 H 0.33881 0.37305 0.61776 0.0
H689 H 0.33842 0.34576 0.7442 0.0
H690 H 0.3588 0.38922 0.65162 0.0
H691 H 0.35822 0.36199 0.77791 0.0
H692 H 0.37563 0.40914 0.83785 0.0
H693 H 0.35843 0.38996 0.8044 0.0
H694 H 0.38652 0.38768 0.68009 0.0
H695 H 0.40376 0.40668 0.7134 0.0
C696 C 0.34312 0.37038 0.65242 0.0
C697 C 0.33702 0.35815 0.67827 0.0
C698 C 0.35457 0.37961 0.67177 0.0
C699 C 0.35996 0.37689 0.71751 0.0
C700 C 0.35416 0.36442 0.74279 0.0
C701 C 0.34289 0.35508 0.72327 0.0
C702 C 0.37827 0.40435 0.80376 0.0
C703 C 0.39103 0.40946 0.77829 0.0
C704 C 0.36844 0.39337 0.78464 0.0
C705 C 0.37111 0.38745 0.7395 0.0
C706 C 0.38412 0.39219 0.71472 0.0
C707 C 0.39403 0.40299 0.73402 0.0
H708 H 0.34075 0.65659 0.47121 0.0
H709 H 0.33826 0.62781 0.59426 0.0
H710 H 0.36014 0.63983 0.43778 0.0
H711 H 0.35785 0.6111 0.56071 0.0
H712 H 0.40281 0.59244 0.50107 0.0
H713 H 0.38603 0.6117 0.5351 0.0
H714 H 0.35912 0.6121 0.4082 0.0
H715 H 0.37585 0.59264 0.37401 0.0
C716 C 0.34451 0.64683 0.49152 0.0
C717 C 0.33793 0.64351 0.53542 0.0
C718 C 0.35554 0.63719 0.47213 0.0
C719 C 0.3604 0.62414 0.49649 0.0
C720 C 0.35435 0.62115 0.54128 0.0
C721 C 0.34313 0.6307 0.56046 0.0
C722 C 0.39344 0.59675 0.48008 0.0
C723 C 0.39064 0.59099 0.43479 0.0
C724 C 0.38379 0.60771 0.49978 0.0
C725 C 0.37125 0.61331 0.47441 0.0
C726 C 0.36878 0.60802 0.42842 0.0
C727 C 0.37833 0.59688 0.40889 0.0
H728 H 0.12937 0.57778 0.31292 0.0
H729 H 0.09073 0.60328 0.26029 0.0
H730 H 0.14674 0.59584 0.27467 0.0
H731 H 0.10812 0.62143 0.22273 0.0
H732 H 0.14772 0.65795 0.20864 0.0
H733 H 0.12923 0.64102 0.24664 0.0
H734 H 0.15174 0.6019 0.18561 0.0
H735 H 0.17012 0.61883 0.14692 0.0
C736 C 0.1246 0.58742 0.29412 0.0
C737 C 0.1087 0.58914 0.28961 0.0
C738 C 0.13452 0.59763 0.27178 0.0
C739 C 0.12873 0.60988 0.2453 0.0
C740 C 0.11286 0.61206 0.24287 0.0
C741 C 0.10293 0.6017 0.26446 0.0
C742 C 0.14854 0.64575 0.20262 0.0
C743 C 0.16034 0.6397 0.17475 0.0
C744 C 0.13799 0.63609 0.22446 0.0
C745 C 0.13922 0.62018 0.21953 0.0
C746 C 0.1507 0.61413 0.19043 0.0
C747 C 0.16108 0.62382 0.16787 0.0
H748 H 0.13049 0.42256 0.89731 0.0
H749 H 0.09152 0.40118 0.96341 0.0
H750 H 0.14748 0.40452 0.9372 0.0
H751 H 0.10851 0.38301 1.00254 0.0
H752 H 0.14639 0.34424 0.01505 0.0
H753 H 0.12797 0.36147 0.97805 0.0
H754 H 0.15379 0.40032 0.02727 0.0
H755 H 0.1721 0.38312 0.06507 0.0
C756 C 0.12554 0.41382 0.91954 0.0
C757 C 0.10969 0.41325 0.92722 0.0
C758 C 0.13526 0.40363 0.94276 0.0
C759 C 0.12927 0.39253 0.97332 0.0
C760 C 0.11339 0.39149 0.97924 0.0
C761 C 0.10369 0.40186 0.95676 0.0
C762 C 0.14795 0.35647 0.01882 0.0
C763 C 0.16065 0.36235 0.043 0.0
C764 C 0.13744 0.36629 0.99756 0.0
C765 C 0.13962 0.38217 0.9993 0.0
C766 C 0.15199 0.38809 0.02497 0.0
C767 C 0.16234 0.37826 0.04704 0.0
H768 H 0.25383 0.15839 0.98914 0.0
H769 H 0.20979 0.14505 0.93427 0.0
H770 H 0.26494 0.15557 0.91116 0.0
H771 H 0.22094 0.14166 0.85683 0.0
H772 H 0.24138 0.15969 0.71766 0.0
H773 H 0.2299 0.15749 0.79536 0.0
H774 H 0.27224 0.13905 0.84938 0.0
H775 H 0.28381 0.14183 0.77226 0.0
C776 C 0.24661 0.15451 0.96066 0.0
C777 C 0.23093 0.15211 0.96776 0.0
C778 C 0.25297 0.15283 0.91589 0.0
C779 C 0.2438 0.14852 0.87741 0.0
C780 C 0.22827 0.14534 0.88527 0.0
C781 C 0.2219 0.14719 0.9298 0.0
C782 C 0.24812 0.15492 0.74598 0.0
C783 C 0.26352 0.15109 0.73898 0.0
C784 C 0.24155 0.15361 0.7906 0.0
C785 C 0.25021 0.14827 0.82897 0.0
C786 C 0.26534 0.14357 0.82106 0.0
C787 C 0.27194 0.14506 0.77671 0.0
H788 H 0.0925 0.00501 0.22949 0.0
H789 H 0.10034 0.95972 0.17428 0.0
H790 H 0.09548 0.01565 0.15104 0.0
H791 H 0.10401 0.97035 0.09623 0.0
H792 H 0.08721 0.9926 0.95831 0.0
H793 H 0.08907 0.98086 0.03566 0.0
H794 H 0.1119 0.02125 0.08809 0.0
H795 H 0.10936 0.03316 0.01136 0.0
C796 C 0.09517 0.99737 0.20073 0.0
C797 C 0.09602 0.98154 0.20797 0.0
C798 C 0.09697 0.00346 0.15569 0.0
C799 C 0.0999 0.99385 0.11701 0.0
C800 C 0.10143 0.97807 0.12485 0.0
C801 C 0.09941 0.97198 0.1697 0.0
C802 C 0.09288 -0.00119 0.98618 0.0
C803 C 0.09799 0.01383 0.97898 0.0
C804 C 0.09399 0.9921 0.03061 0.0
C805 C 0.10044 0.00019 0.06852 0.0
C806 C 0.10648 0.01483 0.0602 0.0
C807 C 0.10516 0.02161 0.01608 0.0
H808 H 0.2469 0.85914 0.22802 0.0
H809 H 0.21108 0.8318 0.29021 0.0
H810 H 0.25791 0.8633 0.30569 0.0
H811 H 0.22233 0.83542 0.3671 0.0
H812 H 0.24029 0.85029 0.50659 0.0
H813 H 0.22772 0.85228 0.43023 0.0
H814 H 0.27164 0.84893 0.36151 0.0
H815 H 0.28412 0.84759 0.43697 0.0
C816 C 0.2414 0.854 0.2582 0.0
C817 C 0.22819 0.84505 0.25282 0.0
C818 C 0.24772 0.85635 0.30275 0.0
C819 C 0.24105 0.84966 0.34283 0.0
C820 C 0.22765 0.84099 0.33735 0.0
C821 C 0.22128 0.83877 0.29301 0.0
C822 C 0.24725 0.85025 0.47515 0.0
C823 C 0.26319 0.84861 0.47801 0.0
C824 C 0.24005 0.85128 0.43134 0.0
C825 C 0.24864 0.85062 0.38953 0.0
C826 C 0.26462 0.84968 0.39272 0.0
C827 C 0.27179 0.84875 0.43627 0.0
H828 H 0.39404 0.03765 0.68507 0.0
H829 H 0.40874 0.99417 0.74078 0.0
H830 H 0.3912 0.02631 0.6077 0.0
H831 H 0.40652 0.98289 0.66287 0.0
H832 H 0.39343 0.96343 0.52381 0.0
H833 H 0.39051 0.97488 0.60099 0.0
H834 H 0.40725 0.01787 0.54641 0.0
H835 H 0.40955 0.00649 0.46861 0.0
C836 C 0.3966 0.02562 0.68078 0.0
C837 C 0.40172 0.01681 0.71896 0.0
C838 C 0.39508 0.01914 0.63629 0.0
C839 C 0.39882 0.00373 0.62867 0.0
C840 C 0.40335 0.99476 0.66737 0.0
C841 C 0.40468 0.00121 0.71211 0.0
C842 C 0.39629 0.9754 0.52818 0.0
C843 C 0.40183 0.98405 0.49021 0.0
C844 C 0.39472 0.98194 0.57257 0.0
C845 C 0.39884 0.99725 0.58031 0.0
C846 C 0.4038 0.00608 0.54179 0.0
C847 C 0.40517 -0.00043 0.49713 0.0
H848 H 0.73859 0.8478 0.20125 0.0
H849 H 0.78248 0.8467 0.27086 0.0
H850 H 0.72595 0.84955 0.27762 0.0
H851 H 0.76996 0.84785 0.34631 0.0
H852 H 0.70998 0.82959 0.41951 0.0
H853 H 0.72113 0.83283 0.34214 0.0
H854 H 0.7558 0.8624 0.40084 0.0
H855 H 0.74492 0.85867 0.47883 0.0
C856 C 0.74554 0.84805 0.23268 0.0
C857 C 0.76154 0.84697 0.22982 0.0
C858 C 0.73831 0.84894 0.27648 0.0
C859 C 0.74692 0.84873 0.31827 0.0
C860 C 0.76293 0.84826 0.31508 0.0
C861 C 0.77012 0.84745 0.27155 0.0
C862 C 0.71996 0.83684 0.41597 0.0
C863 C 0.72667 0.84374 0.45549 0.0
C864 C 0.72627 0.83883 0.37139 0.0
C865 C 0.73939 0.84787 0.36507 0.0
C866 C 0.74584 0.85515 0.40447 0.0
C867 C 0.7396 0.85304 0.44921 0.0
H868 H 0.89231 0.03705 0.02755 0.0
H869 H 0.90531 0.99295 0.97249 0.0
H870 H 0.88919 0.02595 0.10522 0.0
H871 H 0.90283 0.98191 0.0506 0.0
H872 H 0.88994 0.96306 0.1901 0.0
H873 H 0.88675 0.97458 0.11307 0.0
H874 H 0.90517 0.01707 0.16612 0.0
H875 H 0.90774 0.00565 0.24378 0.0
C876 C 0.89442 0.02494 0.03204 0.0
C877 C 0.89916 0.01588 0.99398 0.0
C878 C 0.89274 0.0186 0.07668 0.0
C879 C 0.89594 0.00307 0.08452 0.0
C880 C 0.90007 0.99387 0.04593 0.0
C881 C 0.90156 0.00019 1.00107 0.0
C882 C 0.89308 0.97495 0.18545 0.0
C883 C 0.89921 0.98344 0.22288 0.0
C884 C 0.89136 0.98152 0.14115 0.0
C885 C 0.89592 0.99669 0.13299 0.0
C886 C 0.90139 0.0054 0.17109 0.0
C887 C 0.90291 -0.00114 0.21567 0.0
H888 H 0.74535 0.14704 0.99581 0.0
H889 H 0.78644 0.16315 0.9276 0.0
H890 H 0.73328 0.14383 0.91909 0.0
H891 H 0.7743 0.1606 0.85189 0.0
H892 H 0.71088 0.16156 0.784 0.0
H893 H 0.72311 0.15945 0.85969 0.0
H894 H 0.76482 0.14457 0.79241 0.0
H895 H 0.75264 0.14736 0.71569 0.0
C896 C 0.7518 0.14988 0.96456 0.0
C897 C 0.76682 0.15544 0.96801 0.0
C898 C 0.74488 0.14811 0.92054 0.0
C899 C 0.75277 0.15202 0.87905 0.0
C900 C 0.76791 0.1572 0.88272 0.0
C901 C 0.77485 0.15881 0.92646 0.0
C902 C 0.72265 0.15773 0.78511 0.0
C903 C 0.73083 0.15478 0.74353 0.0
C904 C 0.72964 0.15637 0.82885 0.0
C905 C 0.74499 0.15186 0.83248 0.0
C906 C 0.75305 0.14834 0.79098 0.0
C907 C 0.74606 0.14986 0.74695 0.0
H908 H 0.5931 0.03582 0.6861 0.0
H909 H 0.60027 0.99225 0.75424 0.0
H910 H 0.59451 0.02358 0.61014 0.0
H911 H 0.60221 0.97998 0.67741 0.0
H912 H 0.60632 -0.00023 0.47587 0.0
H913 H 0.60999 0.01099 0.55344 0.0
H914 H 0.58481 0.97358 0.61555 0.0
H915 H 0.5816 0.96217 0.53861 0.0
C916 C 0.59523 0.02363 0.68493 0.0
C917 C 0.59639 0.01498 0.72642 0.0
C918 C 0.59618 0.01662 0.64113 0.0
C919 C 0.59841 0.00077 0.63752 0.0
C920 C 0.60024 0.99218 0.67897 0.0
C921 C 0.59923 -0.00078 0.72299 0.0
C922 C 0.60167 0.99391 0.50615 0.0
C923 C 0.59357 0.98014 0.50095 0.0
C924 C 0.60374 0.00035 0.55062 0.0
C925 C 0.59766 0.99322 0.59082 0.0
C926 C 0.58987 0.97928 0.58558 0.0
C927 C 0.58789 0.97281 0.54127 0.0
H928 H 0.75436 0.66432 0.49637 0.0
H929 H 0.71246 0.64537 0.44143 0.0
H930 H 0.76596 0.6625 0.4188 0.0
H931 H 0.72421 0.64274 0.36456 0.0
H932 H 0.74222 0.66013 0.22349 0.0
H933 H 0.73117 0.65826 0.30168 0.0
H934 H 0.7757 0.64732 0.35844 0.0
H935 H 0.78679 0.65 0.2806 0.0
C936 C 0.74777 0.65942 0.46791 0.0
C937 C 0.73248 0.65514 0.47475 0.0
C938 C 0.75442 0.65831 0.42338 0.0
C939 C 0.74598 0.65262 0.385 0.0
C940 C 0.73094 0.64757 0.39278 0.0
C941 C 0.72423 0.64896 0.43698 0.0
C942 C 0.74959 0.65717 0.25266 0.0
C943 C 0.76536 0.65535 0.24603 0.0
C944 C 0.74326 0.65602 0.29758 0.0
C945 C 0.75254 0.65272 0.33673 0.0
C946 C 0.76824 0.65023 0.3295 0.0
C947 C 0.77459 0.65166 0.28477 0.0
H948 H 0.60358 0.53851 0.52539 0.0
H949 H 0.58922 0.49496 0.46943 0.0
H950 H 0.60666 0.52707 0.6026 0.0
H951 H 0.59148 0.48361 0.54715 0.0
H952 H 0.60428 0.46386 0.68575 0.0
H953 H 0.60705 0.47536 0.6085 0.0
H954 H 0.59138 0.51858 0.66436 0.0
H955 H 0.58944 0.50719 0.7421 0.0
C956 C 0.6011 0.52645 0.52968 0.0
C957 C 0.59607 0.51763 0.49151 0.0
C958 C 0.60275 0.51991 0.57405 0.0
C959 C 0.59914 0.50444 0.58153 0.0
C960 C 0.59459 0.49551 0.54281 0.0
C961 C 0.59321 0.502 0.49819 0.0
C962 C 0.60164 0.47589 0.68154 0.0
C963 C 0.59656 0.48463 0.71982 0.0
C964 C 0.60311 0.48246 0.63715 0.0
C965 C 0.59925 0.49787 0.62977 0.0
C966 C 0.59467 0.50674 0.66861 0.0
C967 C 0.59348 0.50021 0.71325 0.0
H968 H 0.70887 0.35348 0.7816 0.0
H969 H 0.75358 0.34257 0.72698 0.0
H970 H 0.71975 0.3573 0.85923 0.0
H971 H 0.76443 0.34557 0.8051 0.0
H972 H 0.78282 0.35946 0.94394 0.0
H973 H 0.77124 0.36179 0.86667 0.0
H974 H 0.72922 0.34267 0.9212 0.0
H975 H 0.74064 0.34115 0.99894 0.0
C976 C 0.72105 0.35189 0.78628 0.0
C977 C 0.73038 0.34762 0.74834 0.0
C978 C 0.72729 0.35399 0.83088 0.0
C979 C 0.74296 0.3516 0.83883 0.0
C980 C 0.75235 0.34776 0.80039 0.0
C981 C 0.74614 0.34593 0.75555 0.0
C982 C 0.77101 0.35602 0.93948 0.0
C983 C 0.76264 0.35004 0.97734 0.0
C984 C 0.76441 0.35722 0.89507 0.0
C985 C 0.74935 0.35219 0.88726 0.0
C986 C 0.74077 0.34684 0.92578 0.0
C987 C 0.74732 0.3459 0.97045 0.0
H988 H 0.90866 0.49519 0.24179 0.0
H989 H 0.89289 0.53819 0.18537 0.0
H990 H 0.90649 0.48365 0.16421 0.0
H991 H 0.89002 0.52657 0.10843 0.0
H992 H 0.90777 0.50695 0.96901 0.0
H993 H 0.90573 0.51838 0.04669 0.0
H994 H 0.89066 0.47502 0.10311 0.0
H995 H 0.89339 0.46351 0.0259 0.0
C996 C 0.9044 0.50207 0.21301 0.0
C997 C 0.90111 0.51761 0.21953 0.0
C998 C 0.90308 0.49546 0.16848 0.0
C999 C 0.89821 0.50421 0.1297 0.0
C1000 C 0.89417 0.51957 0.13704 0.0
C1001 C 0.89572 0.52621 0.18128 0.0
C1002 C 0.90382 0.49994 0.99792 0.0
C1003 C 0.90088 0.48432 0.99146 0.0
C1004 C 0.90258 0.50649 0.04254 0.0
C1005 C 0.89816 0.49759 0.08152 0.0
C1006 C 0.89446 0.48214 0.07431 0.0
C1007 C 0.89591 0.47556 0.02992 0.0
H1008 H 0.24032 0.34095 0.71313 0.0
H1009 H 0.28223 0.36052 0.7659 0.0
H1010 H 0.22891 0.34313 0.79076 0.0
H1011 H 0.27065 0.36349 0.84298 0.0
H1012 H 0.25362 0.34466 0.98414 0.0
H1013 H 0.26427 0.34751 0.90574 0.0
H1014 H 0.21929 0.35814 0.85184 0.0
H1015 H 0.20861 0.3545 0.92986 0.0
C1016 C 0.24693 0.34613 0.74106 0.0
C1017 C 0.26219 0.3504 0.73367 0.0
C1018 C 0.24039 0.34744 0.78565 0.0
C1019 C 0.24892 0.35331 0.82355 0.0
C1020 C 0.26387 0.35852 0.8151 0.0
C1021 C 0.27047 0.35695 0.7708 0.0
C1022 C 0.24607 0.34777 0.95559 0.0
C1023 C 0.23028 0.34918 0.96299 0.0
C1024 C 0.25217 0.34951 0.91057 0.0
C1025 C 0.24264 0.35297 0.87212 0.0
C1026 C 0.22694 0.35513 0.88023 0.0
C1027 C 0.22082 0.35313 0.92505 0.0
H1028 H 0.39207 0.5369 0.52381 0.0
H1029 H 0.40884 0.49427 0.46749 0.0
H1030 H 0.38946 0.52522 0.60079 0.0
H1031 H 0.40679 0.48265 0.54507 0.0
H1032 H 0.39382 0.46237 0.68354 0.0
H1033 H 0.39081 0.47386 0.60644 0.0
H1034 H 0.40585 0.51729 0.66222 0.0
H1035 H 0.4083 0.50584 0.73991 0.0
C1036 C 0.39512 0.52497 0.52786 0.0
C1037 C 0.40077 0.51652 0.48963 0.0
C1038 C 0.39373 0.51831 0.57214 0.0
C1039 C 0.39812 0.50305 0.57951 0.0
C1040 C 0.40314 0.49439 0.54073 0.0
C1041 C 0.40436 0.50104 0.49618 0.0
C1042 C 0.39629 0.47444 0.67948 0.0
C1043 C 0.40141 0.48319 0.71778 0.0
C1044 C 0.39467 0.481 0.63512 0.0
C1045 C 0.39827 0.49646 0.62775 0.0
C1046 C 0.4028 0.50538 0.66656 0.0
C1047 C 0.40426 0.49883 0.71117 0.0
H1048 H 0.28559 0.64503 0.43793 0.0
H1049 H 0.24187 0.65928 0.49292 0.0
H1050 H 0.27438 0.64205 0.36036 0.0
H1051 H 0.23074 0.65704 0.41492 0.0
H1052 H 0.21147 0.64457 0.27558 0.0
H1053 H 0.22279 0.64143 0.35288 0.0
H1054 H 0.26602 0.65782 0.29894 0.0
H1055 H 0.25479 0.66021 0.22104 0.0
C1056 C 0.27353 0.64746 0.4334 0.0
C1057 C 0.26461 0.65248 0.4714 0.0
C1058 C 0.26713 0.64587 0.38883 0.0
C1059 C 0.25169 0.6495 0.38099 0.0
C1060 C 0.24262 0.65394 0.41955 0.0
C1061 C 0.24899 0.6553 0.46435 0.0
C1062 C 0.22346 0.64731 0.28018 0.0
C1063 C 0.23224 0.65275 0.2424 0.0
C1064 C 0.22993 0.64561 0.3246 0.0
C1065 C 0.24528 0.64957 0.33256 0.0
C1066 C 0.25421 0.65446 0.29419 0.0
C1067 C 0.24778 0.65591 0.24948 0.0
H1068 H 0.08964 0.49619 0.23538 0.0
H1069 H 0.09834 0.54108 0.17823 0.0
H1070 H 0.09206 0.4852 0.15726 0.0
H1071 H 0.10151 0.53008 0.10048 0.0
H1072 H 0.08504 0.50784 0.96276 0.0
H1073 H 0.08658 0.51967 0.04008 0.0
H1074 H 0.10818 0.47891 0.09468 0.0
H1075 H 0.1059 0.46692 0.01807 0.0
C1076 C 0.09238 0.50366 0.20624 0.0
C1077 C 0.09366 0.51949 0.21286 0.0
C1078 C 0.09386 0.49737 0.16137 0.0
C1079 C 0.09691 0.50675 0.12224 0.0
C1080 C 0.09882 0.52253 0.12943 0.0
C1081 C 0.0971 0.52883 0.17412 0.0
C1082 C 0.09032 0.50154 0.9912 0.0
C1083 C 0.0952 0.48643 0.98458 0.0
C1084 C 0.09125 0.50831 0.03558 0.0
C1085 C 0.09733 0.50018 0.07402 0.0
C1086 C 0.10304 0.48538 0.0664 0.0
C1087 C 0.10186 0.47854 0.02234 0.0
H1088 H 0.22148 0.21182 0.16766 0.0
H1089 H 0.18392 0.21382 0.06948 0.0
H1090 H 0.22062 0.23949 0.17617 0.0
H1091 H 0.18346 0.24153 0.07636 0.0
H1092 H 0.18019 0.29123 0.11501 0.0
H1093 H 0.17842 0.2635 0.12257 0.0
H1094 H 0.2277 0.26073 0.13038 0.0
H1095 H 0.2294 0.28832 0.12477 0.0
C1096 C 0.213 0.21817 0.14798 0.0
C1097 C 0.20286 0.21064 0.11758 0.0
C1098 C 0.21256 0.23406 0.15264 0.0
C1099 C 0.2021 0.24282 0.12651 0.0
C1100 C 0.19156 0.23519 0.09748 0.0
C1101 C 0.19187 0.21928 0.09329 0.0
C1102 C 0.19062 0.28469 0.11895 0.0
C1103 C 0.20493 0.29199 0.11908 0.0
C1104 C 0.18962 0.26878 0.12299 0.0
C1105 C 0.20291 0.25982 0.12685 0.0
C1106 C 0.21718 0.26722 0.12828 0.0
C1107 C 0.21817 0.28309 0.12472 0.0
H1108 H 0.03542 0.97997 0.37374 0.0
H1109 H 0.03856 0.93092 0.35848 0.0
H1110 H 0.00788 0.97803 0.3806 0.0
H1111 H 0.01088 0.9289 0.36716 0.0
H1112 H 0.95933 0.9711 0.4204 0.0
H1113 H 0.98704 0.97017 0.42728 0.0
H1114 H 0.98854 0.93445 0.3226 0.0
H1115 H 0.96078 0.93497 0.31721 0.0
C1116 C 0.03026 0.96872 0.37269 0.0
C1117 C 0.03921 0.95561 0.36522 0.0
C1118 C 0.01441 0.96759 0.37698 0.0
C1119 C 0.00709 0.9533 0.3744 0.0
C1120 C 0.0161 0.94011 0.36858 0.0
C1121 C 0.03198 0.94126 0.36388 0.0
C1122 C 0.96557 0.96291 0.3993 0.0
C1123 C 0.95787 0.95321 0.36793 0.0
C1124 C 0.98148 0.96243 0.40304 0.0
C1125 C 0.99009 0.95239 0.37502 0.0
C1126 C 0.98231 0.94223 0.3451 0.0
C1127 C 0.96637 0.94258 0.34179 0.0
H1128 H 0.27567 0.79033 0.67822 0.0
H1129 H 0.31202 0.78931 0.5757 0.0
H1130 H 0.27678 0.7626 0.68463 0.0
H1131 H 0.31267 0.76158 0.58034 0.0
H1132 H 0.31658 0.71156 0.61394 0.0
H1133 H 0.31834 0.73923 0.62312 0.0
H1134 H 0.26924 0.74164 0.63895 0.0
H1135 H 0.2676 0.71409 0.63191 0.0
C1136 C 0.28394 0.78418 0.65717 0.0
C1137 C 0.29367 0.792 0.6262 0.0
C1138 C 0.28451 0.76826 0.66059 0.0
C1139 C 0.29467 0.75976 0.63254 0.0
C1140 C 0.30482 0.76768 0.60293 0.0
C1141 C 0.3044 0.78362 0.60005 0.0
C1142 C 0.3062 0.71801 0.61992 0.0
C1143 C 0.29195 0.71062 0.62204 0.0
C1144 C 0.30719 0.73389 0.62492 0.0
C1145 C 0.29393 0.74275 0.63161 0.0
C1146 C 0.27974 0.73525 0.63475 0.0
C1147 C 0.27878 0.71939 0.63033 0.0
H1148 H 0.45986 0.02773 0.92376 0.0
H1149 H 0.46282 0.06394 0.8211 0.0
H1150 H 0.48745 0.02863 0.93433 0.0
H1151 H 0.49047 0.0644 0.83001 0.0
H1152 H 0.53984 0.06802 0.87104 0.0
H1153 H 0.51209 0.06998 0.87682 0.0
H1154 H 0.50906 0.02088 0.89158 0.0
H1155 H 0.53667 0.01903 0.88781 0.0
C1156 C 0.46641 0.03592 0.90352 0.0
C1157 C 0.45918 0.04567 0.8713 0.0
C1158 C 0.48226 0.03638 0.90937 0.0
C1159 C 0.49127 0.04645 0.8826 0.0
C1160 C 0.48393 0.05662 0.85167 0.0
C1161 C 0.46805 0.0563 0.84632 0.0
C1162 C 0.53323 0.05768 0.87617 0.0
C1163 C 0.54047 0.04336 0.87874 0.0
C1164 C 0.51731 0.05879 0.87918 0.0
C1165 C 0.50827 0.04559 0.88435 0.0
C1166 C 0.5156 0.03134 0.88838 0.0
C1167 C 0.53149 0.03025 0.8859 0.0
H1168 H 0.17966 0.78947 0.08725 0.0
H1169 H 0.229 0.78708 0.08664 0.0
H1170 H 0.17832 0.76179 0.07809 0.0
H1171 H 0.22768 0.75949 0.07931 0.0
H1172 H 0.22267 0.71061 0.04038 0.0
H1173 H 0.2216 0.73827 0.03165 0.0
H1174 H 0.18273 0.73981 0.12523 0.0
H1175 H 0.18345 0.71211 0.13239 0.0
C1176 C 0.19022 0.78306 0.08489 0.0
C1177 C 0.20444 0.79049 0.08795 0.0
C1178 C 0.18945 0.76717 0.07994 0.0
C1179 C 0.20288 0.75835 0.07828 0.0
C1180 C 0.21709 0.76588 0.07973 0.0
C1181 C 0.21785 0.78174 0.08427 0.0
C1182 C 0.21376 0.71684 0.05857 0.0
C1183 C 0.20323 0.70917 0.08743 0.0
C1184 C 0.2132 0.73272 0.05379 0.0
C1185 C 0.20221 0.74134 0.07822 0.0
C1186 C 0.19126 0.73357 0.10546 0.0
C1187 C 0.19171 0.71766 0.1098 0.0
H1188 H 0.46229 0.93509 0.38689 0.0
H1189 H 0.46018 0.97246 0.28797 0.0
H1190 H 0.48996 0.93426 0.37833 0.0
H1191 H 0.48779 0.97125 0.27798 0.0
H1192 H 0.53679 0.97985 0.32962 0.0
H1193 H 0.5092 0.97829 0.3237 0.0
H1194 H 0.51172 0.92899 0.33051 0.0
H1195 H 0.53946 0.9306 0.33815 0.0
C1196 C 0.4677 0.94292 0.36257 0.0
C1197 C 0.45906 0.95397 0.33859 0.0
C1198 C 0.48359 0.94239 0.35741 0.0
C1199 C 0.49117 0.9528 0.32779 0.0
C1200 C 0.48239 0.96329 0.30191 0.0
C1201 C 0.46654 0.96394 0.30746 0.0
C1202 C 0.53152 0.96865 0.32929 0.0
C1203 C 0.54035 0.95536 0.33479 0.0
C1204 C 0.51564 0.96774 0.32556 0.0
C1205 C 0.50817 0.95351 0.32681 0.0
C1206 C 0.51707 0.94016 0.33022 0.0
C1207 C 0.53298 0.94107 0.33427 0.0
H1208 H 0.27732 0.2109 0.53817 0.0
H1209 H 0.311 0.21291 0.64879 0.0
H1210 H 0.27842 0.23858 0.53017 0.0
H1211 H 0.3116 0.24064 0.64245 0.0
H1212 H 0.31613 0.29044 0.60533 0.0
H1213 H 0.31822 0.26271 0.59921 0.0
H1214 H 0.26965 0.25979 0.57246 0.0
H1215 H 0.26773 0.28739 0.57653 0.0
C1216 C 0.28499 0.21727 0.56073 0.0
C1217 C 0.29398 0.20974 0.59436 0.0
C1218 C 0.28556 0.23316 0.55637 0.0
C1219 C 0.29494 0.24193 0.5861 0.0
C1220 C 0.30436 0.2343 0.61855 0.0
C1221 C 0.30397 0.21838 0.6224 0.0
C1222 C 0.30595 0.28386 0.5976 0.0
C1223 C 0.29176 0.29113 0.59154 0.0
C1224 C 0.30712 0.26795 0.59437 0.0
C1225 C 0.2941 0.25894 0.5855 0.0
C1226 C 0.28 0.2663 0.57846 0.0
C1227 C 0.27886 0.28218 0.58113 0.0
H1228 H 0.9613 0.01961 0.83095 0.0
H1229 H 0.95855 0.0682 0.85703 0.0
H1230 H 0.98885 0.02152 0.824 0.0
H1231 H 0.98622 0.07024 0.84821 0.0
H1232 H 0.03645 0.06293 0.89433 0.0
H1233 H 0.00867 0.06362 0.89038 0.0
H1234 H 0.00956 0.03028 0.77845 0.0
H1235 H 0.0373 0.02914 0.78386 0.0
C1236 C 0.96655 0.03077 0.83441 0.0
C1237 C 0.95771 0.04373 0.84485 0.0
C1238 C 0.98239 0.03189 0.83006 0.0
C1239 C 0.98982 0.04604 0.83552 0.0
C1240 C 0.98092 0.05911 0.84451 0.0
C1241 C 0.96504 0.05796 0.84931 0.0
C1242 C 0.03072 0.05589 0.86849 0.0
C1243 C 0.03906 0.04584 0.8398 0.0
C1244 C 0.01477 0.05634 0.86603 0.0
C1245 C 0.00682 0.04688 0.83443 0.0
C1246 C 0.01526 0.03745 0.804 0.0
C1247 C 0.03118 0.03686 0.80688 0.0
H1248 H 0.81647 0.71117 0.09088 0.0
H1249 H 0.76739 0.71372 0.07567 0.0
H1250 H 0.81821 0.7388 0.08026 0.0
H1251 H 0.76904 0.7412 0.06706 0.0
H1252 H 0.77502 0.78979 0.02757 0.0
H1253 H 0.77642 0.76209 0.0204 0.0
H1254 H 0.8126 0.76116 0.1237 0.0
H1255 H 0.81164 0.78886 0.12919 0.0
C1256 C 0.80607 0.7176 0.08506 0.0
C1257 C 0.79179 0.71023 0.08437 0.0
C1258 C 0.80705 0.73346 0.07925 0.0
C1259 C 0.79377 0.7423 0.07302 0.0
C1260 C 0.77955 0.73481 0.07094 0.0
C1261 C 0.77859 0.71899 0.07627 0.0
C1262 C 0.78342 0.78367 0.04821 0.0
C1263 C 0.79312 0.79151 0.07927 0.0
C1264 C 0.78417 0.76777 0.04434 0.0
C1265 C 0.79447 0.75931 0.07198 0.0
C1266 C 0.80464 0.76725 0.10146 0.0
C1267 C 0.80403 0.78317 0.10483 0.0
H1268 H 0.72035 0.21109 0.53891 0.0
H1269 H 0.6823 0.2129 0.63532 0.0
H1270 H 0.71951 0.23878 0.53072 0.0
H1271 H 0.68188 0.24061 0.62898 0.0
H1272 H 0.67928 0.29056 0.59412 0.0
H1273 H 0.67726 0.26292 0.58459 0.0
H1274 H 0.72653 0.25976 0.57706 0.0
H1275 H 0.72846 0.28727 0.58448 0.0
C1276 C 0.71175 0.21741 0.5582 0.0
C1277 C 0.70148 0.20982 0.58808 0.0
C1278 C 0.71133 0.2333 0.55377 0.0
C1279 C 0.70078 0.24202 0.57973 0.0
C1280 C 0.69006 0.23433 0.60801 0.0
C1281 C 0.69035 0.2184 0.61189 0.0
C1282 C 0.68965 0.28395 0.58981 0.0
C1283 C 0.70403 0.29113 0.59028 0.0
C1284 C 0.68851 0.26809 0.58462 0.0
C1285 C 0.70173 0.25903 0.58027 0.0
C1286 C 0.71606 0.26631 0.57946 0.0
C1287 C 0.71719 0.28215 0.5841 0.0
H1288 H 0.76795 0.2883 0.13396 0.0
H1289 H 0.81688 0.29187 0.11665 0.0
H1290 H 0.77007 0.26076 0.13959 0.0
H1291 H 0.81916 0.2642 0.12463 0.0
H1292 H 0.81395 0.21434 0.07434 0.0
H1293 H 0.81415 0.24202 0.08107 0.0
H1294 H 0.77769 0.23958 0.18333 0.0
H1295 H 0.777 0.2119 0.17456 0.0
C1296 C 0.77923 0.28322 0.1323 0.0
C1297 C 0.79224 0.29229 0.12452 0.0
C1298 C 0.78047 0.26737 0.13591 0.0
C1299 C 0.7948 0.26015 0.13256 0.0
C1300 C 0.8079 0.2693 0.12652 0.0
C1301 C 0.80662 0.28518 0.12222 0.0
C1302 C 0.8061 0.21971 0.09869 0.0
C1303 C 0.79533 0.21096 0.12351 0.0
C1304 C 0.80627 0.23562 0.10279 0.0
C1305 C 0.79583 0.24314 0.1324 0.0
C1306 C 0.78564 0.23426 0.15924 0.0
C1307 C 0.7853 0.21837 0.15451 0.0
H1308 H 0.72001 0.71176 0.679 0.0
H1309 H 0.68197 0.71295 0.58247 0.0
H1310 H 0.71868 0.73942 0.68731 0.0
H1311 H 0.68099 0.74067 0.58931 0.0
H1312 H 0.67774 0.79058 0.62467 0.0
H1313 H 0.67611 0.76294 0.63529 0.0
H1314 H 0.72544 0.76032 0.63894 0.0
H1315 H 0.72704 0.78782 0.63005 0.0
C1316 C 0.71129 0.71793 0.65978 0.0
C1317 C 0.7012 0.71018 0.62968 0.0
C1318 C 0.71057 0.7338 0.66434 0.0
C1319 C 0.69988 0.74234 0.63844 0.0
C1320 C 0.68929 0.73449 0.61015 0.0
C1321 C 0.68989 0.71858 0.60602 0.0
C1322 C 0.68822 0.78411 0.62848 0.0
C1323 C 0.70252 0.79141 0.62621 0.0
C1324 C 0.68729 0.76825 0.63427 0.0
C1325 C 0.70063 0.75935 0.6377 0.0
C1326 C 0.71489 0.76677 0.63715 0.0
C1327 C 0.71582 0.78259 0.63169 0.0
H1328 H 0.5363 0.47994 0.88402 0.0
H1329 H 0.53973 0.43119 0.86202 0.0
H1330 H 0.50875 0.47784 0.88869 0.0
H1331 H 0.51201 0.42896 0.8687 0.0
H1332 H 0.45987 0.4706 0.92228 0.0
H1333 H 0.48749 0.46951 0.93181 0.0
H1334 H 0.49002 0.43491 0.82379 0.0
H1335 H 0.46232 0.43552 0.81595 0.0
C1336 C 0.5312 0.4687 0.8811 0.0
C1337 C 0.54024 0.45575 0.8723 0.0
C1338 C 0.51533 0.46747 0.88414 0.0
C1339 C 0.50807 0.45322 0.87903 0.0
C1340 C 0.51717 0.44015 0.87203 0.0
C1341 C 0.53308 0.44141 0.86849 0.0
C1342 C 0.46632 0.46262 0.90102 0.0
C1343 C 0.45894 0.45325 0.86804 0.0
C1344 C 0.48218 0.46205 0.90626 0.0
C1345 C 0.49107 0.45229 0.87809 0.0
C1346 C 0.48358 0.44245 0.84648 0.0
C1347 C 0.46768 0.44286 0.84175 0.0
H1348 H 0.95821 0.53025 0.42521 0.0
H1349 H 0.95982 0.56681 0.32345 0.0
H1350 H 0.98587 0.53147 0.43356 0.0
H1351 H 0.98755 0.56759 0.33012 0.0
H1352 H 0.03753 0.57091 0.36543 0.0
H1353 H 0.00986 0.57296 0.37446 0.0
H1354 H 0.0068 0.52382 0.38762 0.0
H1355 H 0.03431 0.52186 0.38055 0.0
C1356 C 0.96448 0.5386 0.40479 0.0
C1357 C 0.95685 0.54832 0.37332 0.0
C1358 C 0.98036 0.53925 0.40934 0.0
C1359 C 0.98902 0.54945 0.38196 0.0
C1360 C 0.98129 0.55968 0.35213 0.0
C1361 C 0.96537 0.55919 0.3481 0.0
C1362 C 0.03094 0.56058 0.3709 0.0
C1363 C 0.03814 0.54622 0.37206 0.0
C1364 C 0.01506 0.56174 0.37579 0.0
C1365 C 0.00603 0.54856 0.38158 0.0
C1366 C 0.01334 0.53426 0.38407 0.0
C1367 C 0.02917 0.53312 0.37965 0.0
H1368 H 0.96189 0.4793 0.82677 0.0
H1369 H 0.95898 0.43076 0.85355 0.0
H1370 H 0.98938 0.4773 0.81938 0.0
H1371 H 0.98663 0.42861 0.84415 0.0
H1372 H 0.03695 0.43605 0.89022 0.0
H1373 H 0.0092 0.43503 0.88544 0.0
H1374 H 0.01008 0.46869 0.77433 0.0
H1375 H 0.03778 0.4702 0.78081 0.0
C1376 C 0.96709 0.46812 0.83024 0.0
C1377 C 0.95822 0.4552 0.84106 0.0
C1378 C 0.98292 0.46695 0.82561 0.0
C1379 C 0.99031 0.45278 0.83109 0.0
C1380 C 0.98137 0.43975 0.8404 0.0
C1381 C 0.9655 0.44096 0.84554 0.0
C1382 C 0.03122 0.44306 0.86431 0.0
C1383 C 0.03953 0.45335 0.83632 0.0
C1384 C 0.01528 0.44243 0.86138 0.0
C1385 C 0.00731 0.45194 0.82992 0.0
C1386 C 0.01577 0.46151 0.79986 0.0
C1387 C 0.03167 0.46231 0.80331 0.0
H1388 H 0.45938 0.53082 0.28656 0.0
H1389 H 0.46139 0.56526 0.39496 0.0
H1390 H 0.48701 0.53218 0.27757 0.0
H1391 H 0.4891 0.56614 0.38756 0.0
H1392 H 0.53886 0.5705 0.34996 0.0
H1393 H 0.51112 0.57254 0.34308 0.0
H1394 H 0.50824 0.52374 0.32081 0.0
H1395 H 0.5358 0.52183 0.32576 0.0
C1396 C 0.46573 0.53872 0.30838 0.0
C1397 C 0.45822 0.54782 0.34179 0.0
C1398 C 0.4816 0.53944 0.30344 0.0
C1399 C 0.49037 0.5491 0.33231 0.0
C1400 C 0.48275 0.55868 0.36435 0.0
C1401 C 0.46685 0.55812 0.36882 0.0
C1402 C 0.53229 0.56026 0.34295 0.0
C1403 C 0.53956 0.54599 0.3386 0.0
C1404 C 0.51637 0.56141 0.33931 0.0
C1405 C 0.50737 0.5483 0.33159 0.0
C1406 C 0.51474 0.53414 0.32593 0.0
C1407 C 0.53061 0.53301 0.32912 0.0
H1408 H 0.21518 0.14109 0.25587 0.0
H1409 H 0.26042 0.15792 0.22383 0.0
H1410 H 0.22276 0.13739 0.33767 0.0
H1411 H 0.2679 0.15442 0.30532 0.0
H1412 H 0.28043 0.14035 0.45178 0.0
H1413 H 0.27279 0.13669 0.36999 0.0
H1414 H 0.22821 0.15522 0.40156 0.0
H1415 H 0.23574 0.15868 0.483 0.0
C1416 C 0.22681 0.14375 0.26605 0.0
C1417 C 0.23715 0.14992 0.23337 0.0
C1418 C 0.23113 0.14172 0.313 0.0
C1419 C 0.24591 0.14572 0.32821 0.0
C1420 C 0.25647 0.15108 0.29486 0.0
C1421 C 0.25214 0.15318 0.24809 0.0
C1422 C 0.26891 0.14336 0.44142 0.0
C1423 C 0.25874 0.14991 0.47387 0.0
C1424 C 0.26456 0.14135 0.39448 0.0
C1425 C 0.24992 0.14576 0.37907 0.0
C1426 C 0.23952 0.15155 0.41219 0.0
C1427 C 0.24388 0.15363 0.45893 0.0
H1428 H 0.09256 0.01274 0.46467 0.0
H1429 H 0.10797 0.96707 0.49751 0.0
H1430 H 0.09573 0.0201 0.54636 0.0
H1431 H 0.11137 0.97454 0.57949 0.0
H1432 H 0.10891 0.03213 0.69402 0.0
H1433 H 0.11298 0.02454 0.61236 0.0
H1434 H 0.09326 0.98031 0.64209 0.0
H1435 H 0.08941 0.98778 0.72337 0.0
C1436 C 0.09693 0.00434 0.48915 0.0
C1437 C 0.09986 0.98927 0.4746 0.0
C1438 C 0.09885 0.0086 0.53605 0.0
C1439 C 0.10369 0.99789 0.56966 0.0
C1440 C 0.10742 0.98302 0.55462 0.0
C1441 C 0.10556 0.97876 0.50757 0.0
C1442 C 0.10571 0.02069 0.68327 0.0
C1443 C 0.09872 0.01061 0.71513 0.0
C1444 C 0.10796 0.01637 0.63642 0.0
C1445 C 0.10336 0.00184 0.62053 0.0
C1446 C 0.0971 0.99152 0.6531 0.0
C1447 C 0.09479 0.99586 0.69974 0.0
H1448 H 0.2596 0.84564 0.99528 0.0
H1449 H 0.21356 0.85962 0.96154 0.0
H1450 H 0.26701 0.84891 0.91367 0.0
H1451 H 0.22107 0.86318 0.87966 0.0
H1452 H 0.23508 0.84207 0.73558 0.0
H1453 H 0.22739 0.84559 0.8168 0.0
H1454 H 0.27122 0.86599 0.84771 0.0
H1455 H 0.27905 0.8622 0.76617 0.0
C1456 C 0.25112 0.84973 0.97062 0.0
C1457 C 0.23594 0.85222 0.98494 0.0
C1458 C 0.25541 0.8517 0.92374 0.0
C1459 C 0.24462 0.85619 0.88987 0.0
C1460 C 0.22962 0.85948 0.90468 0.0
C1461 C 0.22533 0.85755 0.9517 0.0
C1462 C 0.24302 0.84752 0.75945 0.0
C1463 C 0.25774 0.85172 0.7444 0.0
C1464 C 0.23855 0.84965 0.80609 0.0
C1465 C 0.2487 0.856 0.83902 0.0
C1466 C 0.26318 0.86087 0.82344 0.0
C1467 C 0.26764 0.85879 0.77662 0.0
H1468 H 0.4064 0.98778 0.9752 0.0
H1469 H 0.3893 0.03292 1.00682 0.0
H1470 H 0.40287 0.98031 0.05668 0.0
H1471 H 0.38558 0.02536 0.08864 0.0
H1472 H 0.38908 0.96774 0.20311 0.0
H1473 H 0.38517 0.97535 0.12141 0.0
H1474 H 0.40349 0.02006 0.15253 0.0
H1475 H 0.4072 0.01256 0.23389 0.0
C1476 C 0.40159 0.99603 0.99936 0.0
C1477 C 0.39827 0.011 0.98454 0.0
C1478 C 0.39947 0.99171 0.04613 0.0
C1479 C 0.39404 0.00226 0.07938 0.0
C1480 C 0.38996 0.01701 0.06405 0.0
C1481 C 0.392 0.02132 0.01709 0.0
C1482 C 0.39198 0.97929 0.19268 0.0
C1483 C 0.39857 0.98949 0.22496 0.0
C1484 C 0.38983 0.98362 0.1458 0.0
C1485 C 0.39412 0.99829 0.13026 0.0
C1486 C 0.39991 0.00874 0.16325 0.0
C1487 C 0.40213 0.00439 0.20995 0.0
H1488 H 0.77787 0.86211 0.94263 0.0
H1489 H 0.73391 0.84174 0.97194 0.0
H1490 H 0.7701 0.86631 0.86121 0.0
H1491 H 0.72628 0.84569 0.89086 0.0
H1492 H 0.71252 0.8603 0.74681 0.0
H1493 H 0.72001 0.86365 0.82877 0.0
H1494 H 0.76596 0.84947 0.79449 0.0
H1495 H 0.75857 0.8464 0.7128 0.0
C1496 C 0.76648 0.85875 0.93194 0.0
C1497 C 0.75656 0.85149 0.96375 0.0
C1498 C 0.76205 0.86107 0.88519 0.0
C1499 C 0.74759 0.85625 0.86929 0.0
C1500 C 0.73743 0.84971 0.90183 0.0
C1501 C 0.74186 0.84734 0.94839 0.0
C1502 C 0.72429 0.85823 0.7566 0.0
C1503 C 0.7349 0.85296 0.72327 0.0
C1504 C 0.72857 0.86003 0.80367 0.0
C1505 C 0.74356 0.85668 0.81843 0.0
C1506 C 0.75436 0.85229 0.78446 0.0
C1507 C 0.75008 0.85044 0.73753 0.0
H1508 H 0.90536 0.9865 0.73772 0.0
H1509 H 0.88893 0.03187 0.70567 0.0
H1510 H 0.90203 0.97911 0.65612 0.0
H1511 H 0.88538 0.02437 0.62374 0.0
H1512 H 0.90681 0.01134 0.47869 0.0
H1513 H 0.90324 0.01886 0.56008 0.0
H1514 H 0.88441 0.97435 0.59123 0.0
H1515 H 0.8882 0.96672 0.5095 0.0
C1516 C 0.90075 0.99482 0.71343 0.0
C1517 C 0.89755 0.00982 0.72818 0.0
C1518 C 0.89874 0.99054 0.66659 0.0
C1519 C 0.89353 0.00117 0.63321 0.0
C1520 C 0.8896 0.01597 0.64843 0.0
C1521 C 0.89155 0.02023 0.69545 0.0
C1522 C 0.90168 0.00322 0.50265 0.0
C1523 C 0.89792 0.98837 0.48764 0.0
C1524 C 0.89953 0.00757 0.54937 0.0
C1525 C 0.89362 0.99718 0.58236 0.0
C1526 C 0.88917 0.98257 0.56684 0.0
C1527 C 0.89125 0.97822 0.51994 0.0
H1528 H 0.78195 0.14149 0.25899 0.0
H1529 H 0.73698 0.15864 0.22537 0.0
H1530 H 0.77402 0.13786 0.34054 0.0
H1531 H 0.72916 0.15521 0.3066 0.0
H1532 H 0.71583 0.14073 0.45228 0.0
H1533 H 0.7238 0.1374 0.37067 0.0
H1534 H 0.76839 0.15544 0.40492 0.0
H1535 H 0.76051 0.15857 0.48621 0.0
C1536 C 0.77031 0.14425 0.26877 0.0
C1537 C 0.76014 0.15046 0.23567 0.0
C1538 C 0.76579 0.14227 0.3156 0.0
C1539 C 0.75098 0.14635 0.33031 0.0
C1540 C 0.7406 0.1518 0.29657 0.0
C1541 C 0.74513 0.15386 0.24992 0.0
C1542 C 0.72742 0.1437 0.44255 0.0
C1543 C 0.73749 0.15001 0.47576 0.0
C1544 C 0.73196 0.14189 0.39569 0.0
C1545 C 0.74671 0.14626 0.38105 0.0
C1546 C 0.757 0.15181 0.41489 0.0
C1547 C 0.75244 0.1537 0.46158 0.0
H1548 H 0.61012 0.96582 0.21086 0.0
H1549 H 0.59454 0.01145 0.2434 0.0
H1550 H 0.61375 0.97333 0.12902 0.0
H1551 H 0.59785 0.01883 0.16181 0.0
H1552 H 0.61073 0.03108 0.01446 0.0
H1553 H 0.61479 0.02352 0.09612 0.0
H1554 H 0.59617 0.97887 0.06573 0.0
H1555 H 0.5924 0.98629 0.98441 0.0
C1556 C 0.60771 0.97751 0.20077 0.0
C1557 C 0.60191 0.98799 0.23364 0.0
C1558 C 0.60969 0.98179 0.15377 0.0
C1559 C 0.60594 0.99665 0.13861 0.0
C1560 C 0.60099 0.00734 0.17215 0.0
C1561 C 0.599 0.00307 0.21903 0.0
C1562 C 0.60778 0.01956 0.02506 0.0
C1563 C 0.60112 0.00933 0.99297 0.0
C1564 C 0.61002 0.01525 0.07194 0.0
C1565 C 0.6057 0.00061 0.0877 0.0
C1566 C 0.59979 0.99017 0.05489 0.0
C1567 C 0.59753 0.99447 1.00818 0.0
H1568 H 0.73511 0.65578 0.98907 0.0
H1569 H 0.78088 0.64037 0.95764 0.0
H1570 H 0.72789 0.65222 0.90745 0.0
H1571 H 0.77356 0.63656 0.87569 0.0
H1572 H 0.76048 0.65859 0.7314 0.0
H1573 H 0.76792 0.65448 0.81258 0.0
H1574 H 0.72359 0.63491 0.84174 0.0
H1575 H 0.71602 0.63926 0.76023 0.0
C1576 C 0.74356 0.6513 0.96493 0.0
C1577 C 0.75862 0.64851 0.97982 0.0
C1578 C 0.73938 0.64916 0.91806 0.0
C1579 C 0.75017 0.64421 0.88482 0.0
C1580 C 0.76502 0.64058 0.90027 0.0
C1581 C 0.76919 0.64267 0.9473 0.0
C1582 C 0.75239 0.65316 0.75485 0.0
C1583 C 0.73759 0.6494 0.7394 0.0
C1584 C 0.7567 0.6507 0.80145 0.0
C1585 C 0.74632 0.64446 0.83387 0.0
C1586 C 0.73179 0.63992 0.81781 0.0
C1587 C 0.72749 0.64233 0.77103 0.0
H1588 H 0.60934 0.53364 0.20404 0.0
H1589 H 0.59206 0.48849 0.23494 0.0
H1590 H 0.61332 0.52612 0.12233 0.0
H1591 H 0.59578 0.48109 0.15355 0.0
H1592 H 0.6097 0.46852 1.00759 0.0
H1593 H 0.61347 0.47605 0.08939 0.0
H1594 H 0.59581 0.521 0.05783 0.0
H1595 H 0.5923 0.51358 0.97636 0.0
C1596 C 0.60663 0.52204 0.19363 0.0
C1597 C 0.60026 0.51171 0.22594 0.0
C1598 C 0.60882 0.51776 0.14674 0.0
C1599 C 0.60476 0.50303 0.13122 0.0
C1600 C 0.59919 0.49247 0.16425 0.0
C1601 C 0.59695 0.49676 0.21097 0.0
C1602 C 0.60692 0.4801 0.01796 0.0
C1603 C 0.60057 0.4904 0.98552 0.0
C1604 C 0.60899 0.48439 0.0649 0.0
C1605 C 0.60482 0.4991 0.08034 0.0
C1606 C 0.59929 0.50964 0.0472 0.0
C1607 C 0.59717 0.50534 1.00044 0.0
H1608 H 0.76067 0.34491 0.49149 0.0
H1609 H 0.71513 0.36117 0.46102 0.0
H1610 H 0.76787 0.34866 0.40994 0.0
H1611 H 0.72244 0.3652 0.37917 0.0
H1612 H 0.73498 0.34393 0.23372 0.0
H1613 H 0.72772 0.3476 0.31521 0.0
H1614 H 0.77245 0.36614 0.34504 0.0
H1615 H 0.77984 0.36219 0.26319 0.0
C1616 C 0.75227 0.3496 0.46758 0.0
C1617 C 0.73727 0.35258 0.4827 0.0
C1618 C 0.75645 0.35186 0.42076 0.0
C1619 C 0.74571 0.35712 0.38782 0.0
C1620 C 0.73093 0.36092 0.40351 0.0
C1621 C 0.72676 0.35871 0.45048 0.0
C1622 C 0.74321 0.34902 0.25741 0.0
C1623 C 0.75805 0.35261 0.24202 0.0
C1624 C 0.739 0.35124 0.30419 0.0
C1625 C 0.74952 0.35708 0.33685 0.0
C1626 C 0.76413 0.36143 0.32091 0.0
C1627 C 0.76834 0.35925 0.27395 0.0
H1628 H 0.88907 0.46776 0.70342 0.0
H1629 H 0.90591 0.51301 0.73505 0.0
H1630 H 0.88515 0.47536 0.62171 0.0
H1631 H 0.90219 0.52051 0.65367 0.0
H1632 H 0.90601 0.48862 0.47573 0.0
H1633 H 0.90275 0.48094 0.55714 0.0
H1634 H 0.88414 0.5254 0.58979 0.0
H1635 H 0.8876 0.53319 0.50806 0.0
C1636 C 0.89169 0.47939 0.69316 0.0
C1637 C 0.89791 0.48974 0.72571 0.0
C1638 C 0.88954 0.48372 0.64627 0.0
C1639 C 0.89345 0.49852 0.63099 0.0
C1640 C 0.8989 0.50908 0.6642 0.0
C1641 C 0.90113 0.50473 0.7109 0.0
C1642 C 0.90097 0.49669 0.50003 0.0
C1643 C 0.89719 0.51157 0.48542 0.0
C1644 C 0.89901 0.49224 0.54676 0.0
C1645 C 0.89328 0.50258 0.58017 0.0
C1646 C 0.88877 0.51722 0.56506 0.0
C1647 C 0.89065 0.52165 0.51815 0.0
H1648 H 0.21545 0.36148 0.25115 0.0
H1649 H 0.26109 0.34567 0.21977 0.0
H1650 H 0.22273 0.36499 0.33323 0.0
H1651 H 0.26824 0.34889 0.30155 0.0
H1652 H 0.28002 0.36144 0.44938 0.0
H1653 H 0.27272 0.36584 0.36767 0.0
H1654 H 0.22801 0.347 0.396 0.0
H1655 H 0.23518 0.34287 0.47736 0.0
C1656 C 0.2271 0.35901 0.26155 0.0
C1657 C 0.23764 0.35315 0.22899 0.0
C1658 C 0.23124 0.36092 0.30866 0.0
C1659 C 0.24603 0.35708 0.32415 0.0
C1660 C 0.25681 0.3521 0.2909 0.0
C1661 C 0.25266 0.35015 0.24394 0.0
C1662 C 0.26855 0.35851 0.43831 0.0
C1663 C 0.25824 0.35168 0.46979 0.0
C1664 C 0.26439 0.36095 0.39143 0.0
C1665 C 0.24981 0.35668 0.37512 0.0
C1666 C 0.23927 0.35059 0.40733 0.0
C1667 C 0.24343 0.34812 0.45403 0.0
H1668 H 0.38997 0.46724 1.00674 0.0
H1669 H 0.40736 0.51219 0.97371 0.0
H1670 H 0.38642 0.47505 0.08843 0.0
H1671 H 0.40396 0.5199 0.05507 0.0
H1672 H 0.40771 0.48833 0.23377 0.0
H1673 H 0.40439 0.48058 0.15242 0.0
H1674 H 0.38598 0.52509 0.11935 0.0
H1675 H 0.38945 0.53293 0.20104 0.0
C1676 C 0.39278 0.47886 0.01668 0.0
C1677 C 0.39905 0.48905 0.98373 0.0
C1678 C 0.39084 0.4833 0.06356 0.0
C1679 C 0.395 0.49807 0.07844 0.0
C1680 C 0.40049 0.50849 0.04485 0.0
C1681 C 0.40253 0.50403 0.99816 0.0
C1682 C 0.40271 0.49641 0.20938 0.0
C1683 C 0.39895 0.5113 0.22389 0.0
C1684 C 0.40072 0.49192 0.16269 0.0
C1685 C 0.395 0.50223 0.12919 0.0
C1686 C 0.39058 0.51692 0.14415 0.0
C1687 C 0.39248 0.52138 0.19103 0.0
H1688 H 0.2165 0.63885 0.95545 0.0
H1689 H 0.26137 0.65693 0.9859 0.0
H1690 H 0.22398 0.63511 0.8736 0.0
H1691 H 0.26873 0.65344 0.90438 0.0
H1692 H 0.28126 0.64039 0.75775 0.0
H1693 H 0.27398 0.63612 0.83955 0.0
H1694 H 0.2286 0.65294 0.80957 0.0
H1695 H 0.23577 0.65695 0.72811 0.0
C1696 C 0.22804 0.64177 0.94492 0.0
C1697 C 0.23829 0.64832 0.97712 0.0
C1698 C 0.2323 0.63972 0.89795 0.0
C1699 C 0.24692 0.6441 0.88225 0.0
C1700 C 0.25743 0.6498 0.9152 0.0
C1701 C 0.25317 0.65189 0.962 0.0
C1702 C 0.26965 0.64288 0.76846 0.0
C1703 C 0.25914 0.64914 0.73649 0.0
C1704 C 0.2655 0.64052 0.8154 0.0
C1705 C 0.25074 0.6443 0.83129 0.0
C1706 C 0.24001 0.64975 0.79859 0.0
C1707 C 0.24417 0.65215 0.75182 0.0
H1708 H 0.10734 0.53451 0.50203 0.0
H1709 H 0.09192 0.48881 0.46956 0.0
H1710 H 0.11109 0.527 0.58385 0.0
H1711 H 0.09546 0.4814 0.55109 0.0
H1712 H 0.10913 0.46928 0.69811 0.0
H1713 H 0.11304 0.47701 0.61648 0.0
H1714 H 0.09315 0.52108 0.64701 0.0
H1715 H 0.08945 0.51347 0.72826 0.0
C1716 C 0.10501 0.5228 0.51212 0.0
C1717 C 0.0992 0.5123 0.47932 0.0
C1718 C 0.10707 0.51852 0.55908 0.0
C1719 C 0.10345 0.50363 0.57419 0.0
C1720 C 0.0985 0.49292 0.54071 0.0
C1721 C 0.09637 0.49721 0.49391 0.0
C1722 C 0.10588 0.48072 0.68756 0.0
C1723 C 0.09886 0.49071 0.71963 0.0
C1724 C 0.10803 0.48512 0.64072 0.0
C1725 C 0.10331 0.49963 0.62505 0.0
C1726 C 0.09707 0.50988 0.65784 0.0
C1727 C 0.09485 0.50547 0.70448 0.0
loop_
_geom_bond_atom_site_label_1
_geom_bond_atom_site_label_2
_geom_bond_distance
_geom_bond_site_symmetry_2
_ccdc_geom_bond_type
O0 Cd1 2.223 1_556 S
O0 C8 1.315 . S
Cd1 O0 2.223 1_554 S
Cd1 O4 2.297 1_554 S
Cd1 O5 2.439 . S
Cd1 O11 2.240 . S
Cd2 O3 2.240 . S
Cd2 O10 2.223 . S
Cd2 O12 2.297 . S
Cd2 O13 2.439 . S
O3 Cd2 2.240 . S
O3 C8 1.279 1_554 S
O4 Cd1 2.297 1_556 S
O4 C6 1.247 1_556 S
O5 Cd1 2.439 . S
O5 C6 1.208 . S
C6 O4 1.247 1_554 S
C6 O5 1.208 . S
C7 O12 1.247 . S
C7 O13 1.208 . S
C8 O0 1.315 . S
C8 O3 1.279 1_556 S
C9 O10 1.315 . S
C9 O11 1.279 . S
O10 Cd2 2.223 . S
O10 C9 1.315 . S
O11 Cd1 2.240 . S
O11 C9 1.279 . S
O12 Cd2 2.297 . S
O12 C7 1.247 . S
O13 Cd2 2.439 . S
O13 C7 1.208 . S
O14 Cd15 2.223 . S
O14 C22 1.315 . S
Cd15 O14 2.223 . S
Cd15 O18 2.297 . S
Cd15 O19 2.439 . S
Cd15 O25 2.240 . S
Cd16 O17 2.240 . S
Cd16 O24 2.223 . S
Cd16 O26 2.297 . S
Cd16 O27 2.439 . S
O17 Cd16 2.240 . S
O17 C22 1.279 . S
O18 Cd15 2.297 . S
O18 C20 1.247 . S
O19 Cd15 2.439 . S
O19 C20 1.208 . S
C20 O18 1.247 . S
C20 O19 1.208 . S
C21 O26 1.247 . S
C21 O27 1.208 . S
C22 O14 1.315 . S
C22 O17 1.279 . S
C23 O24 1.315 . S
C23 O25 1.279 . S
O24 Cd16 2.223 . S
O24 C23 1.315 . S
O25 Cd15 2.240 . S
O25 C23 1.279 . S
O26 Cd16 2.297 . S
O26 C21 1.247 . S
O27 Cd16 2.439 . S
O27 C21 1.208 . S
O28 Cd29 2.223 . S
O28 C36 1.315 . S
Cd29 O28 2.223 . S
Cd29 O32 2.297 . S
Cd29 O33 2.439 . S
Cd29 O39 2.240 . S
Cd30 O31 2.240 . S
Cd30 O38 2.223 . S
Cd30 O40 2.297 . S
Cd30 O41 2.439 . S
O31 Cd30 2.240 . S
O31 C36 1.279 . S
O32 Cd29 2.297 . S
O32 C34 1.247 . S
O33 Cd29 2.439 . S
O33 C34 1.208 . S
C34 O32 1.247 . S
C34 O33 1.208 . S
C35 O40 1.247 . S
C35 O41 1.208 . S
C36 O28 1.315 . S
C36 O31 1.279 . S
C37 O38 1.315 . S
C37 O39 1.279 . S
O38 Cd30 2.223 . S
O38 C37 1.315 . S
O39 Cd29 2.240 . S
O39 C37 1.279 . S
O40 Cd30 2.297 . S
O40 C35 1.247 . S
O41 Cd30 2.439 . S
O41 C35 1.208 . S
O42 Cd43 2.223 . S
O42 C50 1.315 . S
Cd43 O42 2.223 . S
Cd43 O46 2.297 . S
Cd43 O47 2.439 . S
Cd43 O53 2.240 . S
Cd44 O45 2.240 . S
Cd44 O52 2.223 . S
Cd44 O54 2.297 . S
Cd44 O55 2.439 . S
O45 Cd44 2.240 . S
O45 C50 1.279 . S
O46 Cd43 2.297 . S
O46 C48 1.247 . S
O47 Cd43 2.439 . S
O47 C48 1.208 . S
C48 O46 1.247 . S
C48 O47 1.208 . S
C49 O54 1.247 . S
C49 O55 1.208 . S
C50 O42 1.315 . S
C50 O45 1.279 . S
C51 O52 1.315 . S
C51 O53 1.279 . S
O52 Cd44 2.223 . S
O52 C51 1.315 . S
O53 Cd43 2.240 . S
O53 C51 1.279 . S
O54 Cd44 2.297 . S
O54 C49 1.247 . S
O55 Cd44 2.439 . S
O55 C49 1.208 . S
O56 Cd57 2.223 . S
O56 C64 1.315 . S
Cd57 O56 2.223 . S
Cd57 O60 2.297 . S
Cd57 O61 2.439 . S
Cd57 O67 2.240 . S
Cd58 O59 2.240 . S
Cd58 O66 2.223 . S
Cd58 O68 2.297 . S
Cd58 O69 2.439 . S
O59 Cd58 2.240 . S
O59 C64 1.279 . S
O60 Cd57 2.297 . S
O60 C62 1.247 . S
O61 Cd57 2.439 . S
O61 C62 1.208 . S
C62 O60 1.247 . S
C62 O61 1.208 . S
C63 O68 1.247 . S
C63 O69 1.208 . S
C64 O56 1.315 . S
C64 O59 1.279 . S
C65 O66 1.315 . S
C65 O67 1.279 . S
O66 Cd58 2.223 . S
O66 C65 1.315 . S
O67 Cd57 2.240 . S
O67 C65 1.279 . S
O68 Cd58 2.297 . S
O68 C63 1.247 . S
O69 Cd58 2.439 . S
O69 C63 1.208 . S
O70 Cd71 2.223 . S
O70 C78 1.315 . S
Cd71 O70 2.223 . S
Cd71 O74 2.297 . S
Cd71 O75 2.439 . S
Cd71 O81 2.240 . S
Cd72 O73 2.240 . S
Cd72 O80 2.223 . S
Cd72 O82 2.297 . S
Cd72 O83 2.439 . S
O73 Cd72 2.240 . S
O73 C78 1.279 . S
O74 Cd71 2.297 . S
O74 C76 1.247 . S
O75 Cd71 2.439 . S
O75 C76 1.208 . S
C76 O74 1.247 . S
C76 O75 1.208 . S
C77 O82 1.247 . S
C77 O83 1.208 . S
C78 O70 1.315 . S
C78 O73 1.279 . S
C79 O80 1.315 . S
C79 O81 1.279 . S
O80 Cd72 2.223 . S
O80 C79 1.315 . S
O81 Cd71 2.240 . S
O81 C79 1.279 . S
O82 Cd72 2.297 . S
O82 C77 1.247 . S
O83 Cd72 2.439 . S
O83 C77 1.208 . S
O84 Cd85 2.223 . S
O84 C92 1.315 . S
Cd85 O84 2.223 . S
Cd85 O88 2.297 . S
Cd85 O89 2.439 . S
Cd85 O95 2.240 . S
Cd86 O87 2.240 . S
Cd86 O94 2.223 . S
Cd86 O96 2.297 . S
Cd86 O97 2.439 . S
O87 Cd86 2.240 . S
O87 C92 1.279 . S
O88 Cd85 2.297 . S
O88 C90 1.247 . S
O89 Cd85 2.439 . S
O89 C90 1.208 . S
C90 O88 1.247 . S
C90 O89 1.208 . S
C91 O96 1.247 . S
C91 O97 1.208 . S
C92 O84 1.315 . S
C92 O87 1.279 . S
C93 O94 1.315 . S
C93 O95 1.279 . S
O94 Cd86 2.223 . S
O94 C93 1.315 . S
O95 Cd85 2.240 . S
O95 C93 1.279 . S
O96 Cd86 2.297 . S
O96 C91 1.247 . S
O97 Cd86 2.439 . S
O97 C91 1.208 . S
O98 Cd99 2.223 . S
O98 C106 1.315 . S
Cd99 O98 2.223 . S
Cd99 O102 2.297 . S
Cd99 O103 2.439 . S
Cd99 O109 2.240 . S
Cd100 O101 2.240 . S
Cd100 O108 2.223 . S
Cd100 O110 2.297 . S
Cd100 O111 2.439 . S
O101 Cd100 2.240 . S
O101 C106 1.279 . S
O102 Cd99 2.297 . S
O102 C104 1.247 . S
O103 Cd99 2.439 . S
O103 C104 1.208 . S
C104 O102 1.247 . S
C104 O103 1.208 . S
C105 O110 1.247 . S
C105 O111 1.208 . S
C106 O98 1.315 . S
C106 O101 1.279 . S
C107 O108 1.315 . S
C107 O109 1.279 . S
O108 Cd100 2.223 . S
O108 C107 1.315 . S
O109 Cd99 2.240 . S
O109 C107 1.279 . S
O110 Cd100 2.297 . S
O110 C105 1.247 . S
O111 Cd100 2.439 . S
O111 C105 1.208 . S
O112 Cd113 2.223 . S
O112 C120 1.315 . S
Cd113 O112 2.223 . S
Cd113 O116 2.297 . S
Cd113 O117 2.439 . S
Cd113 O123 2.240 . S
Cd114 O115 2.240 . S
Cd114 O122 2.223 . S
Cd114 O124 2.297 . S
Cd114 O125 2.439 . S
O115 Cd114 2.240 . S
O115 C120 1.279 . S
O116 Cd113 2.297 . S
O116 C118 1.247 . S
O117 Cd113 2.439 . S
O117 C118 1.208 . S
C118 O116 1.247 . S
C118 O117 1.208 . S
C119 O124 1.247 . S
C119 O125 1.208 . S
C120 O112 1.315 . S
C120 O115 1.279 . S
C121 O122 1.315 . S
C121 O123 1.279 . S
O122 Cd114 2.223 . S
O122 C121 1.315 . S
O123 Cd113 2.240 . S
O123 C121 1.279 . S
O124 Cd114 2.297 . S
O124 C119 1.247 . S
O125 Cd114 2.439 . S
O125 C119 1.208 . S
O126 Cd127 2.223 . S
O126 C134 1.315 . S
Cd127 O126 2.223 . S
Cd127 O130 2.297 . S
Cd127 O131 2.439 . S
Cd127 O137 2.240 . S
Cd128 O129 2.240 . S
Cd128 O136 2.223 . S
Cd128 O138 2.297 . S
Cd128 O139 2.439 . S
O129 Cd128 2.240 . S
O129 C134 1.279 . S
O130 Cd127 2.297 . S
O130 C132 1.247 . S
O131 Cd127 2.439 . S
O131 C132 1.208 . S
C132 O130 1.247 . S
C132 O131 1.208 . S
C133 O138 1.247 . S
C133 O139 1.208 . S
C134 O126 1.315 . S
C134 O129 1.279 . S
C135 O136 1.315 . S
C135 O137 1.279 . S
O136 Cd128 2.223 . S
O136 C135 1.315 . S
O137 Cd127 2.240 . S
O137 C135 1.279 . S
O138 Cd128 2.297 . S
O138 C133 1.247 . S
O139 Cd128 2.439 . S
O139 C133 1.208 . S
O140 Cd141 2.223 . S
O140 C148 1.315 . S
Cd141 O140 2.223 . S
Cd141 O144 2.297 . S
Cd141 O145 2.439 . S
Cd141 O151 2.240 . S
Cd142 O143 2.240 . S
Cd142 O150 2.223 . S
Cd142 O152 2.297 . S
Cd142 O153 2.439 . S
O143 Cd142 2.240 . S
O143 C148 1.279 . S
O144 Cd141 2.297 . S
O144 C146 1.247 . S
O145 Cd141 2.439 . S
O145 C146 1.208 . S
C146 O144 1.247 . S
C146 O145 1.208 . S
C147 O152 1.247 . S
C147 O153 1.208 . S
C148 O140 1.315 . S
C148 O143 1.279 . S
C149 O150 1.315 . S
C149 O151 1.279 . S
O150 Cd142 2.223 . S
O150 C149 1.315 . S
O151 Cd141 2.240 . S
O151 C149 1.279 . S
O152 Cd142 2.297 . S
O152 C147 1.247 . S
O153 Cd142 2.439 . S
O153 C147 1.208 . S
O154 Cd155 2.223 . S
O154 C162 1.315 . S
Cd155 O154 2.223 . S
Cd155 O158 2.297 . S
Cd155 O159 2.439 . S
Cd155 O165 2.240 . S
Cd156 O157 2.240 . S
Cd156 O164 2.223 . S
Cd156 O166 2.297 . S
Cd156 O167 2.439 . S
O157 Cd156 2.240 . S
O157 C162 1.279 . S
O158 Cd155 2.297 . S
O158 C160 1.247 . S
O159 Cd155 2.439 . S
O159 C160 1.208 . S
C160 O158 1.247 . S
C160 O159 1.208 . S
C161 O166 1.247 . S
C161 O167 1.208 . S
C162 O154 1.315 . S
C162 O157 1.279 . S
C163 O164 1.315 . S
C163 O165 1.279 . S
O164 Cd156 2.223 . S
O164 C163 1.315 . S
O165 Cd155 2.240 . S
O165 C163 1.279 . S
O166 Cd156 2.297 . S
O166 C161 1.247 . S
O167 Cd156 2.439 . S
O167 C161 1.208 . S
O168 Cd169 2.223 1_556 S
O168 C176 1.315 . S
Cd169 O168 2.223 1_554 S
Cd169 O172 2.297 1_554 S
Cd169 O173 2.439 . S
Cd169 O179 2.240 . S
Cd170 O171 2.240 . S
Cd170 O178 2.223 . S
Cd170 O180 2.297 . S
Cd170 O181 2.439 . S
O171 Cd170 2.240 . S
O171 C176 1.279 1_554 S
O172 Cd169 2.297 1_556 S
O172 C174 1.247 1_556 S
O173 Cd169 2.439 . S
O173 C174 1.208 . S
C174 O172 1.247 1_554 S
C174 O173 1.208 . S
C175 O180 1.247 . S
C175 O181 1.208 . S
C176 O168 1.315 . S
C176 O171 1.279 1_556 S
C177 O178 1.315 . S
C177 O179 1.279 . S
O178 Cd170 2.223 . S
O178 C177 1.315 . S
O179 Cd169 2.240 . S
O179 C177 1.279 . S
O180 Cd170 2.297 . S
O180 C175 1.247 . S
O181 Cd170 2.439 . S
O181 C175 1.208 . S
O182 Cd183 2.223 . S
O182 C190 1.315 . S
Cd183 O182 2.223 . S
Cd183 O186 2.297 . S
Cd183 O187 2.439 . S
Cd183 O193 2.240 . S
Cd184 O185 2.240 . S
Cd184 O192 2.223 . S
Cd184 O194 2.297 . S
Cd184 O195 2.439 . S
O185 Cd184 2.240 . S
O185 C190 1.279 . S
O186 Cd183 2.297 . S
O186 C188 1.247 . S
O187 Cd183 2.439 . S
O187 C188 1.208 . S
C188 O186 1.247 . S
C188 O187 1.208 . S
C189 O194 1.247 . S
C189 O195 1.208 . S
C190 O182 1.315 . S
C190 O185 1.279 . S
C191 O192 1.315 . S
C191 O193 1.279 . S
O192 Cd184 2.223 . S
O192 C191 1.315 . S
O193 Cd183 2.240 . S
O193 C191 1.279 . S
O194 Cd184 2.297 . S
O194 C189 1.247 . S
O195 Cd184 2.439 . S
O195 C189 1.208 . S
O196 Cd197 2.223 . S
O196 C204 1.315 . S
Cd197 O196 2.223 . S
Cd197 O200 2.297 . S
Cd197 O201 2.439 . S
Cd197 O207 2.240 . S
Cd198 O199 2.240 . S
Cd198 O206 2.223 . S
Cd198 O208 2.297 . S
Cd198 O209 2.439 . S
O199 Cd198 2.240 . S
O199 C204 1.279 . S
O200 Cd197 2.297 . S
O200 C202 1.247 . S
O201 Cd197 2.439 . S
O201 C202 1.208 . S
C202 O200 1.247 . S
C202 O201 1.208 . S
C203 O208 1.247 . S
C203 O209 1.208 . S
C204 O196 1.315 . S
C204 O199 1.279 . S
C205 O206 1.315 . S
C205 O207 1.279 . S
O206 Cd198 2.223 . S
O206 C205 1.315 . S
O207 Cd197 2.240 . S
O207 C205 1.279 . S
O208 Cd198 2.297 . S
O208 C203 1.247 . S
O209 Cd198 2.439 . S
O209 C203 1.208 . S
O210 Cd211 2.223 . S
O210 C218 1.315 . S
Cd211 O210 2.223 . S
Cd211 O214 2.297 . S
Cd211 O215 2.439 . S
Cd211 O221 2.240 . S
Cd212 O213 2.240 . S
Cd212 O220 2.223 . S
Cd212 O222 2.297 . S
Cd212 O223 2.439 . S
O213 Cd212 2.240 . S
O213 C218 1.279 . S
O214 Cd211 2.297 . S
O214 C216 1.247 . S
O215 Cd211 2.439 . S
O215 C216 1.208 . S
C216 O214 1.247 . S
C216 O215 1.208 . S
C217 O222 1.247 . S
C217 O223 1.208 . S
C218 O210 1.315 . S
C218 O213 1.279 . S
C219 O220 1.315 . S
C219 O221 1.279 . S
O220 Cd212 2.223 . S
O220 C219 1.315 . S
O221 Cd211 2.240 . S
O221 C219 1.279 . S
O222 Cd212 2.297 . S
O222 C217 1.247 . S
O223 Cd212 2.439 . S
O223 C217 1.208 . S
O224 Cd225 2.223 . S
O224 C232 1.315 . S
Cd225 O224 2.223 . S
Cd225 O228 2.297 . S
Cd225 O229 2.439 . S
Cd225 O235 2.240 . S
Cd226 O227 2.240 . S
Cd226 O234 2.223 . S
Cd226 O236 2.297 . S
Cd226 O237 2.439 . S
O227 Cd226 2.240 . S
O227 C232 1.279 . S
O228 Cd225 2.297 . S
O228 C230 1.247 . S
O229 Cd225 2.439 . S
O229 C230 1.208 . S
C230 O228 1.247 . S
C230 O229 1.208 . S
C231 O236 1.247 . S
C231 O237 1.208 . S
C232 O224 1.315 . S
C232 O227 1.279 . S
C233 O234 1.315 . S
C233 O235 1.279 . S
O234 Cd226 2.223 . S
O234 C233 1.315 . S
O235 Cd225 2.240 . S
O235 C233 1.279 . S
O236 Cd226 2.297 . S
O236 C231 1.247 . S
O237 Cd226 2.439 . S
O237 C231 1.208 . S
O238 Cd239 2.223 . S
O238 C246 1.315 . S
Cd239 O238 2.223 . S
Cd239 O242 2.297 . S
Cd239 O243 2.439 . S
Cd239 O249 2.240 . S
Cd240 O241 2.240 . S
Cd240 O248 2.223 . S
Cd240 O250 2.297 . S
Cd240 O251 2.439 . S
O241 Cd240 2.240 . S
O241 C246 1.279 . S
O242 Cd239 2.297 . S
O242 C244 1.247 . S
O243 Cd239 2.439 . S
O243 C244 1.208 . S
C244 O242 1.247 . S
C244 O243 1.208 . S
C245 O250 1.247 . S
C245 O251 1.208 . S
C246 O238 1.315 . S
C246 O241 1.279 . S
C247 O248 1.315 . S
C247 O249 1.279 . S
O248 Cd240 2.223 . S
O248 C247 1.315 . S
O249 Cd239 2.240 . S
O249 C247 1.279 . S
O250 Cd240 2.297 . S
O250 C245 1.247 . S
O251 Cd240 2.439 . S
O251 C245 1.208 . S
O252 Cd253 2.223 1_556 S
O252 C260 1.315 . S
Cd253 O252 2.223 1_554 S
Cd253 O256 2.297 1_554 S
Cd253 O257 2.439 . S
Cd253 O263 2.240 . S
Cd254 O255 2.240 . S
Cd254 O262 2.223 . S
Cd254 O264 2.297 . S
Cd254 O265 2.439 . S
O255 Cd254 2.240 . S
O255 C260 1.279 1_554 S
O256 Cd253 2.297 1_556 S
O256 C258 1.247 1_556 S
O257 Cd253 2.439 . S
O257 C258 1.208 . S
C258 O256 1.247 1_554 S
C258 O257 1.208 . S
C259 O264 1.247 . S
C259 O265 1.208 . S
C260 O252 1.315 . S
C260 O255 1.279 1_556 S
C261 O262 1.315 . S
C261 O263 1.279 . S
O262 Cd254 2.223 . S
O262 C261 1.315 . S
O263 Cd253 2.240 . S
O263 C261 1.279 . S
O264 Cd254 2.297 . S
O264 C259 1.247 . S
O265 Cd254 2.439 . S
O265 C259 1.208 . S
O266 Cd267 2.223 . S
O266 C274 1.315 . S
Cd267 O266 2.223 . S
Cd267 O270 2.297 . S
Cd267 O271 2.439 . S
Cd267 O277 2.240 . S
Cd268 O269 2.240 . S
Cd268 O276 2.223 . S
Cd268 O278 2.297 . S
Cd268 O279 2.439 . S
O269 Cd268 2.240 . S
O269 C274 1.279 . S
O270 Cd267 2.297 . S
O270 C272 1.247 . S
O271 Cd267 2.439 . S
O271 C272 1.208 . S
C272 O270 1.247 . S
C272 O271 1.208 . S
C273 O278 1.247 . S
C273 O279 1.208 . S
C274 O266 1.315 . S
C274 O269 1.279 . S
C275 O276 1.315 . S
C275 O277 1.279 . S
O276 Cd268 2.223 . S
O276 C275 1.315 . S
O277 Cd267 2.240 . S
O277 C275 1.279 . S
O278 Cd268 2.297 . S
O278 C273 1.247 . S
O279 Cd268 2.439 . S
O279 C273 1.208 . S
O280 Cd281 2.223 . S
O280 C288 1.315 . S
Cd281 O280 2.223 . S
Cd281 O284 2.297 . S
Cd281 O285 2.439 . S
Cd281 O291 2.240 . S
Cd282 O283 2.240 . S
Cd282 O290 2.223 . S
Cd282 O292 2.297 . S
Cd282 O293 2.439 . S
O283 Cd282 2.240 . S
O283 C288 1.279 . S
O284 Cd281 2.297 . S
O284 C286 1.247 . S
O285 Cd281 2.439 . S
O285 C286 1.208 . S
C286 O284 1.247 . S
C286 O285 1.208 . S
C287 O292 1.247 . S
C287 O293 1.208 . S
C288 O280 1.315 . S
C288 O283 1.279 . S
C289 O290 1.315 . S
C289 O291 1.279 . S
O290 Cd282 2.223 . S
O290 C289 1.315 . S
O291 Cd281 2.240 . S
O291 C289 1.279 . S
O292 Cd282 2.297 . S
O292 C287 1.247 . S
O293 Cd282 2.439 . S
O293 C287 1.208 . S
O294 Cd295 2.223 . S
O294 C302 1.315 . S
Cd295 O294 2.223 . S
Cd295 O298 2.297 . S
Cd295 O299 2.439 . S
Cd295 O305 2.240 . S
Cd296 O297 2.240 . S
Cd296 O304 2.223 . S
Cd296 O306 2.297 . S
Cd296 O307 2.439 . S
O297 Cd296 2.240 . S
O297 C302 1.279 . S
O298 Cd295 2.297 . S
O298 C300 1.247 . S
O299 Cd295 2.439 . S
O299 C300 1.208 . S
C300 O298 1.247 . S
C300 O299 1.208 . S
C301 O306 1.247 . S
C301 O307 1.208 . S
C302 O294 1.315 . S
C302 O297 1.279 . S
C303 O304 1.315 . S
C303 O305 1.279 . S
O304 Cd296 2.223 . S
O304 C303 1.315 . S
O305 Cd295 2.240 . S
O305 C303 1.279 . S
O306 Cd296 2.297 . S
O306 C301 1.247 . S
O307 Cd296 2.439 . S
O307 C301 1.208 . S
O308 Cd309 2.223 . S
O308 C316 1.315 . S
Cd309 O308 2.223 . S
Cd309 O312 2.297 . S
Cd309 O313 2.439 . S
Cd309 O319 2.240 . S
Cd310 O311 2.240 . S
Cd310 O318 2.223 . S
Cd310 O320 2.297 . S
Cd310 O321 2.439 . S
O311 Cd310 2.240 . S
O311 C316 1.279 . S
O312 Cd309 2.297 . S
O312 C314 1.247 . S
O313 Cd309 2.439 . S
O313 C314 1.208 . S
C314 O312 1.247 . S
C314 O313 1.208 . S
C315 O320 1.247 . S
C315 O321 1.208 . S
C316 O308 1.315 . S
C316 O311 1.279 . S
C317 O318 1.315 . S
C317 O319 1.279 . S
O318 Cd310 2.223 . S
O318 C317 1.315 . S
O319 Cd309 2.240 . S
O319 C317 1.279 . S
O320 Cd310 2.297 . S
O320 C315 1.247 . S
O321 Cd310 2.439 . S
O321 C315 1.208 . S
O322 Cd323 2.223 . S
O322 C330 1.315 . S
Cd323 O322 2.223 . S
Cd323 O326 2.297 . S
Cd323 O327 2.439 . S
Cd323 O333 2.240 . S
Cd324 O325 2.240 . S
Cd324 O332 2.223 . S
Cd324 O334 2.297 . S
Cd324 O335 2.439 . S
O325 Cd324 2.240 . S
O325 C330 1.279 . S
O326 Cd323 2.297 . S
O326 C328 1.247 . S
O327 Cd323 2.439 . S
O327 C328 1.208 . S
C328 O326 1.247 . S
C328 O327 1.208 . S
C329 O334 1.247 . S
C329 O335 1.208 . S
C330 O322 1.315 . S
C330 O325 1.279 . S
C331 O332 1.315 . S
C331 O333 1.279 . S
O332 Cd324 2.223 . S
O332 C331 1.315 . S
O333 Cd323 2.240 . S
O333 C331 1.279 . S
O334 Cd324 2.297 . S
O334 C329 1.247 . S
O335 Cd324 2.439 . S
O335 C329 1.208 . S
O336 Cd337 2.223 . S
O336 C344 1.315 . S
Cd337 O336 2.223 . S
Cd337 O340 2.297 . S
Cd337 O341 2.439 . S
Cd337 O347 2.240 . S
Cd338 O339 2.240 . S
Cd338 O346 2.223 . S
Cd338 O348 2.297 . S
Cd338 O349 2.439 . S
O339 Cd338 2.240 . S
O339 C344 1.279 . S
O340 Cd337 2.297 . S
O340 C342 1.247 . S
O341 Cd337 2.439 . S
O341 C342 1.208 . S
C342 O340 1.247 . S
C342 O341 1.208 . S
C343 O348 1.247 . S
C343 O349 1.208 . S
C344 O336 1.315 . S
C344 O339 1.279 . S
C345 O346 1.315 . S
C345 O347 1.279 . S
O346 Cd338 2.223 . S
O346 C345 1.315 . S
O347 Cd337 2.240 . S
O347 C345 1.279 . S
O348 Cd338 2.297 . S
O348 C343 1.247 . S
O349 Cd338 2.439 . S
O349 C343 1.208 . S
O350 Cd351 2.223 . S
O350 C358 1.315 . S
Cd351 O350 2.223 . S
Cd351 O354 2.297 . S
Cd351 O355 2.439 . S
Cd351 O361 2.240 . S
Cd352 O353 2.240 . S
Cd352 O360 2.223 . S
Cd352 O362 2.297 . S
Cd352 O363 2.439 . S
O353 Cd352 2.240 . S
O353 C358 1.279 . S
O354 Cd351 2.297 . S
O354 C356 1.247 . S
O355 Cd351 2.439 . S
O355 C356 1.208 . S
C356 O354 1.247 . S
C356 O355 1.208 . S
C357 O362 1.247 . S
C357 O363 1.208 . S
C358 O350 1.315 . S
C358 O353 1.279 . S
C359 O360 1.315 . S
C359 O361 1.279 . S
O360 Cd352 2.223 . S
O360 C359 1.315 . S
O361 Cd351 2.240 . S
O361 C359 1.279 . S
O362 Cd352 2.297 . S
O362 C357 1.247 . S
O363 Cd352 2.439 . S
O363 C357 1.208 . S
O364 Cd365 2.223 . S
O364 C372 1.315 . S
Cd365 O364 2.223 . S
Cd365 O368 2.297 . S
Cd365 O369 2.439 . S
Cd365 O375 2.240 . S
Cd366 O367 2.240 . S
Cd366 O374 2.223 . S
Cd366 O376 2.297 . S
Cd366 O377 2.439 . S
O367 Cd366 2.240 . S
O367 C372 1.279 . S
O368 Cd365 2.297 . S
O368 C370 1.247 . S
O369 Cd365 2.439 . S
O369 C370 1.208 . S
C370 O368 1.247 . S
C370 O369 1.208 . S
C371 O376 1.247 . S
C371 O377 1.208 . S
C372 O364 1.315 . S
C372 O367 1.279 . S
C373 O374 1.315 . S
C373 O375 1.279 . S
O374 Cd366 2.223 . S
O374 C373 1.315 . S
O375 Cd365 2.240 . S
O375 C373 1.279 . S
O376 Cd366 2.297 . S
O376 C371 1.247 . S
O377 Cd366 2.439 . S
O377 C371 1.208 . S
O378 Cd379 2.223 . S
O378 C386 1.315 . S
Cd379 O378 2.223 . S
Cd379 O382 2.297 . S
Cd379 O383 2.439 . S
Cd379 O389 2.240 . S
Cd380 O381 2.240 . S
Cd380 O388 2.223 . S
Cd380 O390 2.297 . S
Cd380 O391 2.439 . S
O381 Cd380 2.240 . S
O381 C386 1.279 . S
O382 Cd379 2.297 . S
O382 C384 1.247 . S
O383 Cd379 2.439 . S
O383 C384 1.208 . S
C384 O382 1.247 . S
C384 O383 1.208 . S
C385 O390 1.247 . S
C385 O391 1.208 . S
C386 O378 1.315 . S
C386 O381 1.279 . S
C387 O388 1.315 . S
C387 O389 1.279 . S
O388 Cd380 2.223 . S
O388 C387 1.315 . S
O389 Cd379 2.240 . S
O389 C387 1.279 . S
O390 Cd380 2.297 . S
O390 C385 1.247 . S
O391 Cd380 2.439 . S
O391 C385 1.208 . S
O392 Cd393 2.223 . S
O392 C400 1.315 . S
Cd393 O392 2.223 . S
Cd393 O396 2.297 . S
Cd393 O397 2.439 . S
Cd393 O403 2.240 . S
Cd394 O395 2.240 . S
Cd394 O402 2.223 . S
Cd394 O404 2.297 . S
Cd394 O405 2.439 . S
O395 Cd394 2.240 . S
O395 C400 1.279 . S
O396 Cd393 2.297 . S
O396 C398 1.247 . S
O397 Cd393 2.439 . S
O397 C398 1.208 . S
C398 O396 1.247 . S
C398 O397 1.208 . S
C399 O404 1.247 . S
C399 O405 1.208 . S
C400 O392 1.315 . S
C400 O395 1.279 . S
C401 O402 1.315 . S
C401 O403 1.279 . S
O402 Cd394 2.223 . S
O402 C401 1.315 . S
O403 Cd393 2.240 . S
O403 C401 1.279 . S
O404 Cd394 2.297 . S
O404 C399 1.247 . S
O405 Cd394 2.439 . S
O405 C399 1.208 . S
O406 Cd407 2.223 . S
O406 C414 1.315 . S
Cd407 O406 2.223 . S
Cd407 O410 2.297 . S
Cd407 O411 2.439 . S
Cd407 O417 2.240 . S
Cd408 O409 2.240 . S
Cd408 O416 2.223 . S
Cd408 O418 2.297 . S
Cd408 O419 2.439 . S
O409 Cd408 2.240 . S
O409 C414 1.279 . S
O410 Cd407 2.297 . S
O410 C412 1.247 . S
O411 Cd407 2.439 . S
O411 C412 1.208 . S
C412 O410 1.247 . S
C412 O411 1.208 . S
C413 O418 1.247 . S
C413 O419 1.208 . S
C414 O406 1.315 . S
C414 O409 1.279 . S
C415 O416 1.315 . S
C415 O417 1.279 . S
O416 Cd408 2.223 . S
O416 C415 1.315 . S
O417 Cd407 2.240 . S
O417 C415 1.279 . S
O418 Cd408 2.297 . S
O418 C413 1.247 . S
O419 Cd408 2.439 . S
O419 C413 1.208 . S
O420 Cd421 2.223 1_556 S
O420 C428 1.315 . S
Cd421 O420 2.223 1_554 S
Cd421 O424 2.297 1_554 S
Cd421 O425 2.439 . S
Cd421 O431 2.240 . S
Cd422 O423 2.240 . S
Cd422 O430 2.223 . S
Cd422 O432 2.297 . S
Cd422 O433 2.439 . S
O423 Cd422 2.240 . S
O423 C428 1.279 1_554 S
O424 Cd421 2.297 1_556 S
O424 C426 1.247 1_556 S
O425 Cd421 2.439 . S
O425 C426 1.208 . S
C426 O424 1.247 1_554 S
C426 O425 1.208 . S
C427 O432 1.247 . S
C427 O433 1.208 . S
C428 O420 1.315 . S
C428 O423 1.279 1_556 S
C429 O430 1.315 . S
C429 O431 1.279 . S
O430 Cd422 2.223 . S
O430 C429 1.315 . S
O431 Cd421 2.240 . S
O431 C429 1.279 . S
O432 Cd422 2.297 . S
O432 C427 1.247 . S
O433 Cd422 2.439 . S
O433 C427 1.208 . S
O434 Cd435 2.223 . S
O434 C442 1.315 . S
Cd435 O434 2.223 . S
Cd435 O438 2.297 . S
Cd435 O439 2.439 . S
Cd435 O445 2.240 . S
Cd436 O437 2.240 . S
Cd436 O444 2.223 . S
Cd436 O446 2.297 . S
Cd436 O447 2.439 . S
O437 Cd436 2.240 . S
O437 C442 1.279 . S
O438 Cd435 2.297 . S
O438 C440 1.247 . S
O439 Cd435 2.439 . S
O439 C440 1.208 . S
C440 O438 1.247 . S
C440 O439 1.208 . S
C441 O446 1.247 . S
C441 O447 1.208 . S
C442 O434 1.315 . S
C442 O437 1.279 . S
C443 O444 1.315 . S
C443 O445 1.279 . S
O444 Cd436 2.223 . S
O444 C443 1.315 . S
O445 Cd435 2.240 . S
O445 C443 1.279 . S
O446 Cd436 2.297 . S
O446 C441 1.247 . S
O447 Cd436 2.439 . S
O447 C441 1.208 . S
H448 C456 0.950 . S
H449 C461 0.950 . S
H450 C458 0.950 . S
H451 C460 0.950 1_554 S
H452 C462 0.950 . S
H453 C464 0.950 . S
H454 C466 0.950 . S
H455 C467 0.950 . S
C456 H448 0.950 . S
C456 C457 1.386 . S
C456 C458 1.391 . S
C457 C456 1.386 . S
C457 C461 1.393 . S
C458 H450 0.950 . S
C458 C456 1.391 . S
C458 C459 1.400 . S
C459 C458 1.400 . S
C459 C460 1.398 . S
C459 C465 1.491 . S
C460 H451 0.950 1_556 S
C460 C459 1.398 . S
C460 C461 1.391 . S
C461 H449 0.950 . S
C461 C457 1.393 . S
C461 C460 1.391 . S
C462 H452 0.950 . S
C462 C463 1.386 . S
C462 C464 1.391 . S
C463 C462 1.386 . S
C463 C467 1.393 1_554 S
C464 H453 0.950 . S
C464 C462 1.391 . S
C464 C465 1.400 1_554 S
C465 C459 1.491 . S
C465 C464 1.400 1_556 S
C465 C466 1.398 . S
C466 H454 0.950 . S
C466 C465 1.398 . S
C466 C467 1.391 . S
C467 H455 0.950 . S
C467 C463 1.393 1_556 S
C467 C466 1.391 . S
H468 C476 0.950 . S
H469 C481 0.950 . S
H470 C478 0.950 . S
H471 C480 0.950 . S
H472 C482 0.950 . S
H473 C484 0.950 . S
H474 C486 0.950 . S
H475 C487 0.950 . S
C476 H468 0.950 . S
C476 C477 1.386 . S
C476 C478 1.391 . S
C477 C476 1.386 . S
C477 C481 1.393 . S
C478 H470 0.950 . S
C478 C476 1.391 . S
C478 C479 1.400 . S
C479 C478 1.400 . S
C479 C480 1.398 . S
C479 C485 1.491 . S
C480 H471 0.950 . S
C480 C479 1.398 . S
C480 C481 1.391 . S
C481 H469 0.950 . S
C481 C477 1.393 . S
C481 C480 1.391 . S
C482 H472 0.950 . S
C482 C483 1.386 . S
C482 C484 1.391 . S
C483 C482 1.386 . S
C483 C487 1.393 . S
C484 H473 0.950 . S
C484 C482 1.391 . S
C484 C485 1.400 . S
C485 C479 1.491 . S
C485 C484 1.400 . S
C485 C486 1.398 . S
C486 H474 0.950 . S
C486 C485 1.398 . S
C486 C487 1.391 . S
C487 H475 0.950 . S
C487 C483 1.393 . S
C487 C486 1.391 . S
H488 C496 0.950 . S
H489 C501 0.950 . S
H490 C498 0.950 . S
H491 C500 0.950 . S
H492 C502 0.950 . S
H493 C504 0.950 . S
H494 C506 0.950 . S
H495 C507 0.950 . S
C496 H488 0.950 . S
C496 C497 1.386 . S
C496 C498 1.391 . S
C497 C496 1.386 . S
C497 C501 1.393 . S
C498 H490 0.950 . S
C498 C496 1.391 . S
C498 C499 1.400 . S
C499 C498 1.400 . S
C499 C500 1.398 . S
C499 C505 1.491 . S
C500 H491 0.950 . S
C500 C499 1.398 . S
C500 C501 1.391 . S
C501 H489 0.950 . S
C501 C497 1.393 . S
C501 C500 1.391 . S
C502 H492 0.950 . S
C502 C503 1.386 . S
C502 C504 1.391 . S
C503 C502 1.386 . S
C503 C507 1.393 . S
C504 H493 0.950 . S
C504 C502 1.391 . S
C504 C505 1.400 . S
C505 C499 1.491 . S
C505 C504 1.400 . S
C505 C506 1.398 . S
C506 H494 0.950 . S
C506 C505 1.398 . S
C506 C507 1.391 . S
C507 H495 0.950 . S
C507 C503 1.393 . S
C507 C506 1.391 . S
H508 C516 0.950 . S
H509 C521 0.950 . S
H510 C518 0.950 . S
H511 C520 0.950 . S
H512 C522 0.950 . S
H513 C524 0.950 . S
H514 C526 0.950 . S
H515 C527 0.950 . S
C516 H508 0.950 . S
C516 C517 1.386 . S
C516 C518 1.391 . S
C517 C516 1.386 . S
C517 C521 1.393 . S
C518 H510 0.950 . S
C518 C516 1.391 . S
C518 C519 1.400 . S
C519 C518 1.400 . S
C519 C520 1.398 . S
C519 C525 1.491 . S
C520 H511 0.950 . S
C520 C519 1.398 . S
C520 C521 1.391 . S
C521 H509 0.950 . S
C521 C517 1.393 . S
C521 C520 1.391 . S
C522 H512 0.950 . S
C522 C523 1.386 . S
C522 C524 1.391 . S
C523 C522 1.386 . S
C523 C527 1.393 . S
C524 H513 0.950 . S
C524 C522 1.391 . S
C524 C525 1.400 . S
C525 C519 1.491 . S
C525 C524 1.400 . S
C525 C526 1.398 . S
C526 H514 0.950 . S
C526 C525 1.398 . S
C526 C527 1.391 . S
C527 H515 0.950 . S
C527 C523 1.393 . S
C527 C526 1.391 . S
H528 C536 0.950 . S
H529 C541 0.950 . S
H530 C538 0.950 . S
H531 C540 0.950 . S
H532 C542 0.950 . S
H533 C544 0.950 . S
H534 C546 0.950 . S
H535 C547 0.950 . S
C536 H528 0.950 . S
C536 C537 1.386 . S
C536 C538 1.391 . S
C537 C536 1.386 . S
C537 C541 1.393 . S
C538 H530 0.950 . S
C538 C536 1.391 . S
C538 C539 1.400 . S
C539 C538 1.400 . S
C539 C540 1.398 . S
C539 C545 1.491 . S
C540 H531 0.950 . S
C540 C539 1.398 . S
C540 C541 1.391 . S
C541 H529 0.950 . S
C541 C537 1.393 . S
C541 C540 1.391 . S
C542 H532 0.950 . S
C542 C543 1.386 . S
C542 C544 1.391 . S
C543 C542 1.386 . S
C543 C547 1.393 . S
C544 H533 0.950 . S
C544 C542 1.391 . S
C544 C545 1.400 . S
C545 C539 1.491 . S
C545 C544 1.400 . S
C545 C546 1.398 . S
C546 H534 0.950 . S
C546 C545 1.398 . S
C546 C547 1.391 . S
C547 H535 0.950 . S
C547 C543 1.393 . S
C547 C546 1.391 . S
H548 C556 0.950 . S
H549 C561 0.950 . S
H550 C558 0.950 . S
H551 C560 0.950 1_554 S
H552 C562 0.950 . S
H553 C564 0.950 . S
H554 C566 0.950 . S
H555 C567 0.950 . S
C556 H548 0.950 . S
C556 C557 1.386 . S
C556 C558 1.391 . S
C557 C556 1.386 . S
C557 C561 1.393 . S
C558 H550 0.950 . S
C558 C556 1.391 . S
C558 C559 1.400 . S
C559 C558 1.400 . S
C559 C560 1.398 . S
C559 C565 1.491 . S
C560 H551 0.950 1_556 S
C560 C559 1.398 . S
C560 C561 1.391 . S
C561 H549 0.950 . S
C561 C557 1.393 . S
C561 C560 1.391 . S
C562 H552 0.950 . S
C562 C563 1.386 . S
C562 C564 1.391 . S
C563 C562 1.386 . S
C563 C567 1.393 1_554 S
C564 H553 0.950 . S
C564 C562 1.391 . S
C564 C565 1.400 1_554 S
C565 C559 1.491 . S
C565 C564 1.400 1_556 S
C565 C566 1.398 . S
C566 H554 0.950 . S
C566 C565 1.398 . S
C566 C567 1.391 . S
C567 H555 0.950 . S
C567 C563 1.393 1_556 S
C567 C566 1.391 . S
H568 C576 0.950 . S
H569 C581 0.950 . S
H570 C578 0.950 . S
H571 C580 0.950 . S
H572 C582 0.950 . S
H573 C584 0.950 . S
H574 C586 0.950 . S
H575 C587 0.950 . S
C576 H568 0.950 . S
C576 C577 1.386 . S
C576 C578 1.391 . S
C577 C576 1.386 . S
C577 C581 1.393 . S
C578 H570 0.950 . S
C578 C576 1.391 . S
C578 C579 1.400 . S
C579 C578 1.400 . S
C579 C580 1.398 . S
C579 C585 1.491 . S
C580 H571 0.950 . S
C580 C579 1.398 . S
C580 C581 1.391 . S
C581 H569 0.950 . S
C581 C577 1.393 . S
C581 C580 1.391 . S
C582 H572 0.950 . S
C582 C583 1.386 . S
C582 C584 1.391 . S
C583 C582 1.386 . S
C583 C587 1.393 . S
C584 H573 0.950 . S
C584 C582 1.391 . S
C584 C585 1.400 . S
C585 C579 1.491 . S
C585 C584 1.400 . S
C585 C586 1.398 . S
C586 H574 0.950 . S
C586 C585 1.398 . S
C586 C587 1.391 . S
C587 H575 0.950 . S
C587 C583 1.393 . S
C587 C586 1.391 . S
H588 C596 0.950 . S
H589 C601 0.950 . S
H590 C598 0.950 . S
H591 C600 0.950 . S
H592 C602 0.950 . S
H593 C604 0.950 . S
H594 C606 0.950 . S
H595 C607 0.950 . S
C596 H588 0.950 . S
C596 C597 1.386 . S
C596 C598 1.391 . S
C597 C596 1.386 . S
C597 C601 1.393 . S
C598 H590 0.950 . S
C598 C596 1.391 . S
C598 C599 1.400 . S
C599 C598 1.400 . S
C599 C600 1.398 . S
C599 C605 1.491 . S
C600 H591 0.950 . S
C600 C599 1.398 . S
C600 C601 1.391 . S
C601 H589 0.950 . S
C601 C597 1.393 . S
C601 C600 1.391 . S
C602 H592 0.950 . S
C602 C603 1.386 . S
C602 C604 1.391 . S
C603 C602 1.386 . S
C603 C607 1.393 . S
C604 H593 0.950 . S
C604 C602 1.391 . S
C604 C605 1.400 . S
C605 C599 1.491 . S
C605 C604 1.400 . S
C605 C606 1.398 . S
C606 H594 0.950 . S
C606 C605 1.398 . S
C606 C607 1.391 . S
C607 H595 0.950 . S
C607 C603 1.393 . S
C607 C606 1.391 . S
H608 C616 0.950 . S
H609 C621 0.950 . S
H610 C618 0.950 . S
H611 C620 0.950 . S
H612 C622 0.950 . S
H613 C624 0.950 . S
H614 C626 0.950 . S
H615 C627 0.950 . S
C616 H608 0.950 . S
C616 C617 1.386 . S
C616 C618 1.391 . S
C617 C616 1.386 . S
C617 C621 1.393 . S
C618 H610 0.950 . S
C618 C616 1.391 . S
C618 C619 1.400 . S
C619 C618 1.400 . S
C619 C620 1.398 . S
C619 C625 1.491 . S
C620 H611 0.950 . S
C620 C619 1.398 . S
C620 C621 1.391 . S
C621 H609 0.950 . S
C621 C617 1.393 . S
C621 C620 1.391 . S
C622 H612 0.950 . S
C622 C623 1.386 . S
C622 C624 1.391 . S
C623 C622 1.386 . S
C623 C627 1.393 . S
C624 H613 0.950 . S
C624 C622 1.391 . S
C624 C625 1.400 . S
C625 C619 1.491 . S
C625 C624 1.400 . S
C625 C626 1.398 . S
C626 H614 0.950 . S
C626 C625 1.398 . S
C626 C627 1.391 . S
C627 H615 0.950 . S
C627 C623 1.393 . S
C627 C626 1.391 . S
H628 C636 0.950 . S
H629 C641 0.950 . S
H630 C638 0.950 . S
H631 C640 0.950 . S
H632 C642 0.950 . S
H633 C644 0.950 . S
H634 C646 0.950 . S
H635 C647 0.950 . S
C636 H628 0.950 . S
C636 C637 1.386 . S
C636 C638 1.391 . S
C637 C636 1.386 . S
C637 C641 1.393 . S
C638 H630 0.950 . S
C638 C636 1.391 . S
C638 C639 1.400 . S
C639 C638 1.400 . S
C639 C640 1.398 . S
C639 C645 1.491 . S
C640 H631 0.950 . S
C640 C639 1.398 . S
C640 C641 1.391 . S
C641 H629 0.950 . S
C641 C637 1.393 . S
C641 C640 1.391 . S
C642 H632 0.950 . S
C642 C643 1.386 . S
C642 C644 1.391 . S
C643 C642 1.386 . S
C643 C647 1.393 . S
C644 H633 0.950 . S
C644 C642 1.391 . S
C644 C645 1.400 . S
C645 C639 1.491 . S
C645 C644 1.400 . S
C645 C646 1.398 . S
C646 H634 0.950 . S
C646 C645 1.398 . S
C646 C647 1.391 . S
C647 H635 0.950 . S
C647 C643 1.393 . S
C647 C646 1.391 . S
H648 C656 0.950 . S
H649 C661 0.950 . S
H650 C658 0.950 1_554 S
H651 C660 0.950 . S
H652 C662 0.950 . S
H653 C664 0.950 . S
H654 C666 0.950 . S
H655 C667 0.950 . S
C656 H648 0.950 . S
C656 C657 1.386 . S
C656 C658 1.391 . S
C657 C656 1.386 . S
C657 C661 1.393 . S
C658 H650 0.950 1_556 S
C658 C656 1.391 . S
C658 C659 1.400 . S
C659 C658 1.400 . S
C659 C660 1.398 . S
C659 C665 1.491 . S
C660 H651 0.950 . S
C660 C659 1.398 . S
C660 C661 1.391 . S
C661 H649 0.950 . S
C661 C657 1.393 . S
C661 C660 1.391 . S
C662 H652 0.950 . S
C662 C663 1.386 1_556 S
C662 C664 1.391 . S
C663 C662 1.386 1_554 S
C663 C667 1.393 . S
C664 H653 0.950 . S
C664 C662 1.391 . S
C664 C665 1.400 . S
C665 C659 1.491 . S
C665 C664 1.400 . S
C665 C666 1.398 1_556 S
C666 H654 0.950 . S
C666 C665 1.398 1_554 S
C666 C667 1.391 . S
C667 H655 0.950 . S
C667 C663 1.393 . S
C667 C666 1.391 . S
H668 C676 0.950 . S
H669 C681 0.950 . S
H670 C678 0.950 . S
H671 C680 0.950 . S
H672 C682 0.950 . S
H673 C684 0.950 . S
H674 C686 0.950 . S
H675 C687 0.950 . S
C676 H668 0.950 . S
C676 C677 1.386 . S
C676 C678 1.391 . S
C677 C676 1.386 . S
C677 C681 1.393 . S
C678 H670 0.950 . S
C678 C676 1.391 . S
C678 C679 1.400 . S
C679 C678 1.400 . S
C679 C680 1.398 . S
C679 C685 1.491 . S
C680 H671 0.950 . S
C680 C679 1.398 . S
C680 C681 1.391 . S
C681 H669 0.950 . S
C681 C677 1.393 . S
C681 C680 1.391 . S
C682 H672 0.950 . S
C682 C683 1.386 . S
C682 C684 1.391 . S
C683 C682 1.386 . S
C683 C687 1.393 . S
C684 H673 0.950 . S
C684 C682 1.391 . S
C684 C685 1.400 . S
C685 C679 1.491 . S
C685 C684 1.400 . S
C685 C686 1.398 . S
C686 H674 0.950 . S
C686 C685 1.398 . S
C686 C687 1.391 . S
C687 H675 0.950 . S
C687 C683 1.393 . S
C687 C686 1.391 . S
H688 C696 0.950 . S
H689 C701 0.950 . S
H690 C698 0.950 . S
H691 C700 0.950 . S
H692 C702 0.950 . S
H693 C704 0.950 . S
H694 C706 0.950 . S
H695 C707 0.950 . S
C696 H688 0.950 . S
C696 C697 1.386 . S
C696 C698 1.391 . S
C697 C696 1.386 . S
C697 C701 1.393 . S
C698 H690 0.950 . S
C698 C696 1.391 . S
C698 C699 1.400 . S
C699 C698 1.400 . S
C699 C700 1.398 . S
C699 C705 1.491 . S
C700 H691 0.950 . S
C700 C699 1.398 . S
C700 C701 1.391 . S
C701 H689 0.950 . S
C701 C697 1.393 . S
C701 C700 1.391 . S
C702 H692 0.950 . S
C702 C703 1.386 . S
C702 C704 1.391 . S
C703 C702 1.386 . S
C703 C707 1.393 . S
C704 H693 0.950 . S
C704 C702 1.391 . S
C704 C705 1.400 . S
C705 C699 1.491 . S
C705 C704 1.400 . S
C705 C706 1.398 . S
C706 H694 0.950 . S
C706 C705 1.398 . S
C706 C707 1.391 . S
C707 H695 0.950 . S
C707 C703 1.393 . S
C707 C706 1.391 . S
H708 C716 0.950 . S
H709 C721 0.950 . S
H710 C718 0.950 . S
H711 C720 0.950 . S
H712 C722 0.950 . S
H713 C724 0.950 . S
H714 C726 0.950 . S
H715 C727 0.950 . S
C716 H708 0.950 . S
C716 C717 1.386 . S
C716 C718 1.391 . S
C717 C716 1.386 . S
C717 C721 1.393 . S
C718 H710 0.950 . S
C718 C716 1.391 . S
C718 C719 1.400 . S
C719 C718 1.400 . S
C719 C720 1.398 . S
C719 C725 1.491 . S
C720 H711 0.950 . S
C720 C719 1.398 . S
C720 C721 1.391 . S
C721 H709 0.950 . S
C721 C717 1.393 . S
C721 C720 1.391 . S
C722 H712 0.950 . S
C722 C723 1.386 . S
C722 C724 1.391 . S
C723 C722 1.386 . S
C723 C727 1.393 . S
C724 H713 0.950 . S
C724 C722 1.391 . S
C724 C725 1.400 . S
C725 C719 1.491 . S
C725 C724 1.400 . S
C725 C726 1.398 . S
C726 H714 0.950 . S
C726 C725 1.398 . S
C726 C727 1.391 . S
C727 H715 0.950 . S
C727 C723 1.393 . S
C727 C726 1.391 . S
H728 C736 0.950 . S
H729 C741 0.950 . S
H730 C738 0.950 . S
H731 C740 0.950 . S
H732 C742 0.950 . S
H733 C744 0.950 . S
H734 C746 0.950 . S
H735 C747 0.950 . S
C736 H728 0.950 . S
C736 C737 1.386 . S
C736 C738 1.391 . S
C737 C736 1.386 . S
C737 C741 1.393 . S
C738 H730 0.950 . S
C738 C736 1.391 . S
C738 C739 1.400 . S
C739 C738 1.400 . S
C739 C740 1.398 . S
C739 C745 1.491 . S
C740 H731 0.950 . S
C740 C739 1.398 . S
C740 C741 1.391 . S
C741 H729 0.950 . S
C741 C737 1.393 . S
C741 C740 1.391 . S
C742 H732 0.950 . S
C742 C743 1.386 . S
C742 C744 1.391 . S
C743 C742 1.386 . S
C743 C747 1.393 . S
C744 H733 0.950 . S
C744 C742 1.391 . S
C744 C745 1.400 . S
C745 C739 1.491 . S
C745 C744 1.400 . S
C745 C746 1.398 . S
C746 H734 0.950 . S
C746 C745 1.398 . S
C746 C747 1.391 . S
C747 H735 0.950 . S
C747 C743 1.393 . S
C747 C746 1.391 . S
H748 C756 0.950 . S
H749 C761 0.950 . S
H750 C758 0.950 . S
H751 C760 0.950 . S
H752 C762 0.950 . S
H753 C764 0.950 . S
H754 C766 0.950 . S
H755 C767 0.950 . S
C756 H748 0.950 . S
C756 C757 1.386 . S
C756 C758 1.391 . S
C757 C756 1.386 . S
C757 C761 1.393 . S
C758 H750 0.950 . S
C758 C756 1.391 . S
C758 C759 1.400 . S
C759 C758 1.400 . S
C759 C760 1.398 . S
C759 C765 1.491 . S
C760 H751 0.950 . S
C760 C759 1.398 . S
C760 C761 1.391 . S
C761 H749 0.950 . S
C761 C757 1.393 . S
C761 C760 1.391 . S
C762 H752 0.950 . S
C762 C763 1.386 . S
C762 C764 1.391 . S
C763 C762 1.386 . S
C763 C767 1.393 1_554 S
C764 H753 0.950 . S
C764 C762 1.391 . S
C764 C765 1.400 1_554 S
C765 C759 1.491 . S
C765 C764 1.400 1_556 S
C765 C766 1.398 . S
C766 H754 0.950 . S
C766 C765 1.398 . S
C766 C767 1.391 . S
C767 H755 0.950 . S
C767 C763 1.393 1_556 S
C767 C766 1.391 . S
H768 C776 0.950 . S
H769 C781 0.950 . S
H770 C778 0.950 . S
H771 C780 0.950 . S
H772 C782 0.950 . S
H773 C784 0.950 . S
H774 C786 0.950 . S
H775 C787 0.950 . S
C776 H768 0.950 . S
C776 C777 1.386 . S
C776 C778 1.391 . S
C777 C776 1.386 . S
C777 C781 1.393 . S
C778 H770 0.950 . S
C778 C776 1.391 . S
C778 C779 1.400 . S
C779 C778 1.400 . S
C779 C780 1.398 . S
C779 C785 1.491 . S
C780 H771 0.950 . S
C780 C779 1.398 . S
C780 C781 1.391 . S
C781 H769 0.950 . S
C781 C777 1.393 . S
C781 C780 1.391 . S
C782 H772 0.950 . S
C782 C783 1.386 . S
C782 C784 1.391 . S
C783 C782 1.386 . S
C783 C787 1.393 . S
C784 H773 0.950 . S
C784 C782 1.391 . S
C784 C785 1.400 . S
C785 C779 1.491 . S
C785 C784 1.400 . S
C785 C786 1.398 . S
C786 H774 0.950 . S
C786 C785 1.398 . S
C786 C787 1.391 . S
C787 H775 0.950 . S
C787 C783 1.393 . S
C787 C786 1.391 . S
H788 C796 0.950 . S
H789 C801 0.950 . S
H790 C798 0.950 . S
H791 C800 0.950 . S
H792 C802 0.950 1_565 S
H793 C804 0.950 . S
H794 C806 0.950 . S
H795 C807 0.950 . S
C796 H788 0.950 . S
C796 C797 1.386 1_545 S
C796 C798 1.391 . S
C797 C796 1.386 1_565 S
C797 C801 1.393 . S
C798 H790 0.950 . S
C798 C796 1.391 . S
C798 C799 1.400 1_545 S
C799 C798 1.400 1_565 S
C799 C800 1.398 . S
C799 C805 1.491 1_565 S
C800 H791 0.950 . S
C800 C799 1.398 . S
C800 C801 1.391 . S
C801 H789 0.950 . S
C801 C797 1.393 . S
C801 C800 1.391 . S
C802 H792 0.950 1_545 S
C802 C803 1.386 . S
C802 C804 1.391 1_546 S
C803 C802 1.386 . S
C803 C807 1.393 1_556 S
C804 H793 0.950 . S
C804 C802 1.391 1_564 S
C804 C805 1.400 1_565 S
C805 C799 1.491 1_545 S
C805 C804 1.400 1_545 S
C805 C806 1.398 . S
C806 H794 0.950 . S
C806 C805 1.398 . S
C806 C807 1.391 . S
C807 H795 0.950 . S
C807 C803 1.393 1_554 S
C807 C806 1.391 . S
H808 C816 0.950 . S
H809 C821 0.950 . S
H810 C818 0.950 . S
H811 C820 0.950 . S
H812 C822 0.950 . S
H813 C824 0.950 . S
H814 C826 0.950 . S
H815 C827 0.950 . S
C816 H808 0.950 . S
C816 C817 1.386 . S
C816 C818 1.391 . S
C817 C816 1.386 . S
C817 C821 1.393 . S
C818 H810 0.950 . S
C818 C816 1.391 . S
C818 C819 1.400 . S
C819 C818 1.400 . S
C819 C820 1.398 . S
C819 C825 1.491 . S
C820 H811 0.950 . S
C820 C819 1.398 . S
C820 C821 1.391 . S
C821 H809 0.950 . S
C821 C817 1.393 . S
C821 C820 1.391 . S
C822 H812 0.950 . S
C822 C823 1.386 . S
C822 C824 1.391 . S
C823 C822 1.386 . S
C823 C827 1.393 . S
C824 H813 0.950 . S
C824 C822 1.391 . S
C824 C825 1.400 . S
C825 C819 1.491 . S
C825 C824 1.400 . S
C825 C826 1.398 . S
C826 H814 0.950 . S
C826 C825 1.398 . S
C826 C827 1.391 . S
C827 H815 0.950 . S
C827 C823 1.393 . S
C827 C826 1.391 . S
H828 C836 0.950 . S
H829 C841 0.950 1_565 S
H830 C838 0.950 . S
H831 C840 0.950 . S
H832 C842 0.950 . S
H833 C844 0.950 . S
H834 C846 0.950 . S
H835 C847 0.950 . S
C836 H828 0.950 . S
C836 C837 1.386 . S
C836 C838 1.391 . S
C837 C836 1.386 . S
C837 C841 1.393 . S
C838 H830 0.950 . S
C838 C836 1.391 . S
C838 C839 1.400 . S
C839 C838 1.400 . S
C839 C840 1.398 1_545 S
C839 C845 1.467 1_545 S
C840 H831 0.950 . S
C840 C839 1.398 1_565 S
C840 C841 1.391 1_565 S
C841 H829 0.950 1_545 S
C841 C837 1.393 . S
C841 C840 1.391 1_545 S
C842 H832 0.950 . S
C842 C843 1.386 . S
C842 C844 1.391 . S
C843 C842 1.386 . S
C843 C847 1.393 1_565 S
C844 H833 0.950 . S
C844 C842 1.391 . S
C844 C845 1.467 . S
C845 C839 1.467 1_565 S
C845 C844 1.467 . S
C845 C846 1.360 1_565 S
C846 H834 0.950 . S
C846 C845 1.360 1_545 S
C846 C847 1.391 . S
C847 H835 0.950 . S
C847 C843 1.393 1_545 S
C847 C846 1.391 . S
H848 C856 0.950 . S
H849 C861 0.950 . S
H850 C858 0.950 . S
H851 C860 0.950 . S
H852 C862 0.950 . S
H853 C864 0.950 . S
H854 C866 0.950 . S
H855 C867 0.950 . S
C856 H848 0.950 . S
C856 C857 1.386 . S
C856 C858 1.391 . S
C857 C856 1.386 . S
C857 C861 1.393 . S
C858 H850 0.950 . S
C858 C856 1.391 . S
C858 C859 1.400 . S
C859 C858 1.400 . S
C859 C860 1.398 . S
C859 C865 1.491 . S
C860 H851 0.950 . S
C860 C859 1.398 . S
C860 C861 1.391 . S
C861 H849 0.950 . S
C861 C857 1.393 . S
C861 C860 1.391 . S
C862 H852 0.950 . S
C862 C863 1.386 . S
C862 C864 1.391 . S
C863 C862 1.386 . S
C863 C867 1.393 . S
C864 H853 0.950 . S
C864 C862 1.391 . S
C864 C865 1.400 . S
C865 C859 1.491 . S
C865 C864 1.400 . S
C865 C866 1.398 . S
C866 H854 0.950 . S
C866 C865 1.398 . S
C866 C867 1.391 . S
C867 H855 0.950 . S
C867 C863 1.393 . S
C867 C866 1.391 . S
H868 C876 0.950 . S
H869 C881 0.950 . S
H870 C878 0.950 . S
H871 C880 0.973 . S
H872 C882 0.950 . S
H873 C884 0.950 . S
H874 C886 0.950 . S
H875 C887 0.950 1_545 S
C876 H868 0.950 . S
C876 C877 1.386 1_554 S
C876 C878 1.391 . S
C877 C876 1.386 1_556 S
C877 C881 1.393 . S
C878 H870 0.950 . S
C878 C876 1.391 . S
C878 C879 1.400 . S
C879 C878 1.400 . S
C879 C880 1.388 1_545 S
C879 C885 1.470 1_545 S
C880 H871 0.973 . S
C880 C879 1.388 1_565 S
C880 C881 1.379 1_564 S
C881 H869 0.950 . S
C881 C877 1.393 . S
C881 C880 1.379 1_546 S
C882 H872 0.950 . S
C882 C883 1.386 . S
C882 C884 1.391 . S
C883 C882 1.386 . S
C883 C887 1.393 . S
C884 H873 0.950 . S
C884 C882 1.391 . S
C884 C885 1.444 . S
C885 C879 1.470 1_565 S
C885 C884 1.444 . S
C885 C886 1.378 1_565 S
C886 H874 0.950 . S
C886 C885 1.378 1_545 S
C886 C887 1.391 1_545 S
C887 H875 0.950 1_565 S
C887 C883 1.393 . S
C887 C886 1.391 1_565 S
H888 C896 0.950 . S
H889 C901 0.950 . S
H890 C898 0.950 . S
H891 C900 0.950 . S
H892 C902 0.950 . S
H893 C904 0.950 . S
H894 C906 0.950 . S
H895 C907 0.950 . S
C896 H888 0.950 . S
C896 C897 1.386 . S
C896 C898 1.391 . S
C897 C896 1.386 . S
C897 C901 1.393 . S
C898 H890 0.950 . S
C898 C896 1.391 . S
C898 C899 1.400 . S
C899 C898 1.400 . S
C899 C900 1.398 . S
C899 C905 1.491 . S
C900 H891 0.950 . S
C900 C899 1.398 . S
C900 C901 1.391 . S
C901 H889 0.950 . S
C901 C897 1.393 . S
C901 C900 1.391 . S
C902 H892 0.950 . S
C902 C903 1.386 . S
C902 C904 1.391 . S
C903 C902 1.386 . S
C903 C907 1.393 . S
C904 H893 0.950 . S
C904 C902 1.391 . S
C904 C905 1.400 . S
C905 C899 1.491 . S
C905 C904 1.400 . S
C905 C906 1.398 . S
C906 H894 0.950 . S
C906 C905 1.398 . S
C906 C907 1.391 . S
C907 H895 0.950 . S
C907 C903 1.393 . S
C907 C906 1.391 . S
H908 C916 0.950 . S
H909 C921 0.950 . S
H910 C918 0.950 . S
H911 C920 0.950 . S
H912 C922 0.950 . S
H913 C924 0.950 1_545 S
H914 C926 0.950 . S
H915 C927 0.950 . S
C916 H908 0.950 . S
C916 C917 1.386 . S
C916 C918 1.391 . S
C917 C916 1.386 . S
C917 C921 1.393 . S
C918 H910 0.950 . S
C918 C916 1.391 . S
C918 C919 1.400 . S
C919 C918 1.400 . S
C919 C920 1.398 . S
C919 C925 1.491 1_545 S
C920 H911 0.950 . S
C920 C919 1.398 . S
C920 C921 1.391 . S
C921 H909 0.950 . S
C921 C917 1.393 . S
C921 C920 1.391 . S
C922 H912 0.950 . S
C922 C923 1.386 . S
C922 C924 1.391 . S
C923 C922 1.386 . S
C923 C927 1.393 . S
C924 H913 0.950 1_565 S
C924 C922 1.391 . S
C924 C925 1.400 . S
C925 C919 1.491 1_565 S
C925 C924 1.400 . S
C925 C926 1.398 . S
C926 H914 0.950 . S
C926 C925 1.398 . S
C926 C927 1.391 . S
C927 H915 0.950 . S
C927 C923 1.393 . S
C927 C926 1.391 . S
H928 C936 0.950 . S
H929 C941 0.950 . S
H930 C938 0.950 . S
H931 C940 0.950 . S
H932 C942 0.950 . S
H933 C944 0.950 . S
H934 C946 0.950 . S
H935 C947 0.950 . S
C936 H928 0.950 . S
C936 C937 1.386 . S
C936 C938 1.391 . S
C937 C936 1.386 . S
C937 C941 1.393 . S
C938 H930 0.950 . S
C938 C936 1.391 . S
C938 C939 1.400 . S
C939 C938 1.400 . S
C939 C940 1.398 . S
C939 C945 1.491 . S
C940 H931 0.950 . S
C940 C939 1.398 . S
C940 C941 1.391 . S
C941 H929 0.950 . S
C941 C937 1.393 . S
C941 C940 1.391 . S
C942 H932 0.950 . S
C942 C943 1.386 . S
C942 C944 1.391 . S
C943 C942 1.386 . S
C943 C947 1.393 . S
C944 H933 0.950 . S
C944 C942 1.391 . S
C944 C945 1.400 . S
C945 C939 1.491 . S
C945 C944 1.400 . S
C945 C946 1.398 . S
C946 H934 0.950 . S
C946 C945 1.398 . S
C946 C947 1.391 . S
C947 H935 0.950 . S
C947 C943 1.393 . S
C947 C946 1.391 . S
H948 C956 0.950 . S
H949 C961 0.950 . S
H950 C958 0.950 . S
H951 C960 0.950 . S
H952 C962 0.950 . S
H953 C964 0.950 . S
H954 C966 0.950 . S
H955 C967 0.950 . S
C956 H948 0.950 . S
C956 C957 1.386 . S
C956 C958 1.391 . S
C957 C956 1.386 . S
C957 C961 1.393 . S
C958 H950 0.950 . S
C958 C956 1.391 . S
C958 C959 1.400 . S
C959 C958 1.400 . S
C959 C960 1.398 . S
C959 C965 1.491 . S
C960 H951 0.950 . S
C960 C959 1.398 . S
C960 C961 1.391 . S
C961 H949 0.950 . S
C961 C957 1.393 . S
C961 C960 1.391 . S
C962 H952 0.950 . S
C962 C963 1.386 . S
C962 C964 1.391 . S
C963 C962 1.386 . S
C963 C967 1.393 . S
C964 H953 0.950 . S
C964 C962 1.391 . S
C964 C965 1.400 . S
C965 C959 1.491 . S
C965 C964 1.400 . S
C965 C966 1.398 . S
C966 H954 0.950 . S
C966 C965 1.398 . S
C966 C967 1.391 . S
C967 H955 0.950 . S
C967 C963 1.393 . S
C967 C966 1.391 . S
H968 C976 0.950 . S
H969 C981 0.950 . S
H970 C978 0.950 . S
H971 C980 0.950 . S
H972 C982 0.950 . S
H973 C984 0.950 . S
H974 C986 0.950 . S
H975 C987 0.950 . S
C976 H968 0.950 . S
C976 C977 1.386 . S
C976 C978 1.391 . S
C977 C976 1.386 . S
C977 C981 1.393 . S
C978 H970 0.950 . S
C978 C976 1.391 . S
C978 C979 1.400 . S
C979 C978 1.400 . S
C979 C980 1.398 . S
C979 C985 1.491 . S
C980 H971 0.950 . S
C980 C979 1.398 . S
C980 C981 1.391 . S
C981 H969 0.950 . S
C981 C977 1.393 . S
C981 C980 1.391 . S
C982 H972 0.950 . S
C982 C983 1.386 . S
C982 C984 1.391 . S
C983 C982 1.386 . S
C983 C987 1.393 . S
C984 H973 0.950 . S
C984 C982 1.391 . S
C984 C985 1.400 . S
C985 C979 1.491 . S
C985 C984 1.400 . S
C985 C986 1.398 . S
C986 H974 0.950 . S
C986 C985 1.398 . S
C986 C987 1.391 . S
C987 H975 0.950 . S
C987 C983 1.393 . S
C987 C986 1.391 . S
H988 C996 0.950 . S
H989 C1001 0.950 . S
H990 C998 0.950 . S
H991 C1000 0.950 . S
H992 C1002 0.950 . S
H993 C1004 0.950 . S
H994 C1006 0.950 . S
H995 C1007 0.950 . S
C996 H988 0.950 . S
C996 C997 1.386 . S
C996 C998 1.391 . S
C997 C996 1.386 . S
C997 C1001 1.393 . S
C998 H990 0.950 . S
C998 C996 1.391 . S
C998 C999 1.400 . S
C999 C998 1.400 . S
C999 C1000 1.398 . S
C999 C1005 1.491 . S
C1000 H991 0.950 . S
C1000 C999 1.398 . S
C1000 C1001 1.391 . S
C1001 H989 0.950 . S
C1001 C997 1.393 . S
C1001 C1000 1.391 . S
C1002 H992 0.950 . S
C1002 C1003 1.386 . S
C1002 C1004 1.391 1_556 S
C1003 C1002 1.386 . S
C1003 C1007 1.393 1_556 S
C1004 H993 0.950 . S
C1004 C1002 1.391 1_554 S
C1004 C1005 1.400 . S
C1005 C999 1.491 . S
C1005 C1004 1.400 . S
C1005 C1006 1.398 . S
C1006 H994 0.950 . S
C1006 C1005 1.398 . S
C1006 C1007 1.391 . S
C1007 H995 0.950 . S
C1007 C1003 1.393 1_554 S
C1007 C1006 1.391 . S
H1008 C1016 0.950 . S
H1009 C1021 0.950 . S
H1010 C1018 0.950 . S
H1011 C1020 0.950 . S
H1012 C1022 0.950 . S
H1013 C1024 0.950 . S
H1014 C1026 0.950 . S
H1015 C1027 0.950 . S
C1016 H1008 0.950 . S
C1016 C1017 1.386 . S
C1016 C1018 1.391 . S
C1017 C1016 1.386 . S
C1017 C1021 1.393 . S
C1018 H1010 0.950 . S
C1018 C1016 1.391 . S
C1018 C1019 1.400 . S
C1019 C1018 1.400 . S
C1019 C1020 1.398 . S
C1019 C1025 1.491 . S
C1020 H1011 0.950 . S
C1020 C1019 1.398 . S
C1020 C1021 1.391 . S
C1021 H1009 0.950 . S
C1021 C1017 1.393 . S
C1021 C1020 1.391 . S
C1022 H1012 0.950 . S
C1022 C1023 1.386 . S
C1022 C1024 1.391 . S
C1023 C1022 1.386 . S
C1023 C1027 1.393 . S
C1024 H1013 0.950 . S
C1024 C1022 1.391 . S
C1024 C1025 1.400 . S
C1025 C1019 1.491 . S
C1025 C1024 1.400 . S
C1025 C1026 1.398 . S
C1026 H1014 0.950 . S
C1026 C1025 1.398 . S
C1026 C1027 1.391 . S
C1027 H1015 0.950 . S
C1027 C1023 1.393 . S
C1027 C1026 1.391 . S
H1028 C1036 0.950 . S
H1029 C1041 0.950 . S
H1030 C1038 0.950 . S
H1031 C1040 0.950 . S
H1032 C1042 0.950 . S
H1033 C1044 0.950 . S
H1034 C1046 0.950 . S
H1035 C1047 0.950 . S
C1036 H1028 0.950 . S
C1036 C1037 1.386 . S
C1036 C1038 1.391 . S
C1037 C1036 1.386 . S
C1037 C1041 1.393 . S
C1038 H1030 0.950 . S
C1038 C1036 1.391 . S
C1038 C1039 1.400 . S
C1039 C1038 1.400 . S
C1039 C1040 1.398 . S
C1039 C1045 1.491 . S
C1040 H1031 0.950 . S
C1040 C1039 1.398 . S
C1040 C1041 1.391 . S
C1041 H1029 0.950 . S
C1041 C1037 1.393 . S
C1041 C1040 1.391 . S
C1042 H1032 0.950 . S
C1042 C1043 1.386 . S
C1042 C1044 1.391 . S
C1043 C1042 1.386 . S
C1043 C1047 1.393 . S
C1044 H1033 0.950 . S
C1044 C1042 1.391 . S
C1044 C1045 1.400 . S
C1045 C1039 1.491 . S
C1045 C1044 1.400 . S
C1045 C1046 1.398 . S
C1046 H1034 0.950 . S
C1046 C1045 1.398 . S
C1046 C1047 1.391 . S
C1047 H1035 0.950 . S
C1047 C1043 1.393 . S
C1047 C1046 1.391 . S
H1048 C1056 0.950 . S
H1049 C1061 0.950 . S
H1050 C1058 0.950 . S
H1051 C1060 0.950 . S
H1052 C1062 0.950 . S
H1053 C1064 0.950 . S
H1054 C1066 0.950 . S
H1055 C1067 0.950 . S
C1056 H1048 0.950 . S
C1056 C1057 1.386 . S
C1056 C1058 1.391 . S
C1057 C1056 1.386 . S
C1057 C1061 1.393 . S
C1058 H1050 0.950 . S
C1058 C1056 1.391 . S
C1058 C1059 1.400 . S
C1059 C1058 1.400 . S
C1059 C1060 1.398 . S
C1059 C1065 1.491 . S
C1060 H1051 0.950 . S
C1060 C1059 1.398 . S
C1060 C1061 1.391 . S
C1061 H1049 0.950 . S
C1061 C1057 1.393 . S
C1061 C1060 1.391 . S
C1062 H1052 0.950 . S
C1062 C1063 1.386 . S
C1062 C1064 1.391 . S
C1063 C1062 1.386 . S
C1063 C1067 1.393 . S
C1064 H1053 0.950 . S
C1064 C1062 1.391 . S
C1064 C1065 1.400 . S
C1065 C1059 1.491 . S
C1065 C1064 1.400 . S
C1065 C1066 1.398 . S
C1066 H1054 0.950 . S
C1066 C1065 1.398 . S
C1066 C1067 1.391 . S
C1067 H1055 0.950 . S
C1067 C1063 1.393 . S
C1067 C1066 1.391 . S
H1068 C1076 0.950 . S
H1069 C1081 0.950 . S
H1070 C1078 0.950 . S
H1071 C1080 0.950 . S
H1072 C1082 0.950 . S
H1073 C1084 0.950 . S
H1074 C1086 0.950 . S
H1075 C1087 0.950 . S
C1076 H1068 0.950 . S
C1076 C1077 1.386 . S
C1076 C1078 1.391 . S
C1077 C1076 1.386 . S
C1077 C1081 1.393 . S
C1078 H1070 0.950 . S
C1078 C1076 1.391 . S
C1078 C1079 1.400 . S
C1079 C1078 1.400 . S
C1079 C1080 1.398 . S
C1079 C1085 1.491 . S
C1080 H1071 0.950 . S
C1080 C1079 1.398 . S
C1080 C1081 1.391 . S
C1081 H1069 0.950 . S
C1081 C1077 1.393 . S
C1081 C1080 1.391 . S
C1082 H1072 0.950 . S
C1082 C1083 1.386 . S
C1082 C1084 1.391 1_556 S
C1083 C1082 1.386 . S
C1083 C1087 1.393 1_556 S
C1084 H1073 0.950 . S
C1084 C1082 1.391 1_554 S
C1084 C1085 1.400 . S
C1085 C1079 1.491 . S
C1085 C1084 1.400 . S
C1085 C1086 1.398 . S
C1086 H1074 0.950 . S
C1086 C1085 1.398 . S
C1086 C1087 1.391 . S
C1087 H1075 0.950 . S
C1087 C1083 1.393 1_554 S
C1087 C1086 1.391 . S
H1088 C1096 0.950 . S
H1089 C1101 0.950 . S
H1090 C1098 0.950 . S
H1091 C1100 0.950 . S
H1092 C1102 0.950 . S
H1093 C1104 0.950 . S
H1094 C1106 0.950 . S
H1095 C1107 0.950 . S
C1096 H1088 0.950 . S
C1096 C1097 1.386 . S
C1096 C1098 1.391 . S
C1097 C1096 1.386 . S
C1097 C1101 1.393 . S
C1098 H1090 0.950 . S
C1098 C1096 1.391 . S
C1098 C1099 1.400 . S
C1099 C1098 1.400 . S
C1099 C1100 1.398 . S
C1099 C1105 1.491 . S
C1100 H1091 0.950 . S
C1100 C1099 1.398 . S
C1100 C1101 1.391 . S
C1101 H1089 0.950 . S
C1101 C1097 1.393 . S
C1101 C1100 1.391 . S
C1102 H1092 0.950 . S
C1102 C1103 1.386 . S
C1102 C1104 1.391 . S
C1103 C1102 1.386 . S
C1103 C1107 1.393 . S
C1104 H1093 0.950 . S
C1104 C1102 1.391 . S
C1104 C1105 1.400 . S
C1105 C1099 1.491 . S
C1105 C1104 1.400 . S
C1105 C1106 1.398 . S
C1106 H1094 0.950 . S
C1106 C1105 1.398 . S
C1106 C1107 1.391 . S
C1107 H1095 0.950 . S
C1107 C1103 1.393 . S
C1107 C1106 1.391 . S
H1108 C1116 0.950 . S
H1109 C1121 0.950 . S
H1110 C1118 0.950 . S
H1111 C1120 0.950 . S
H1112 C1122 0.950 . S
H1113 C1124 0.950 . S
H1114 C1126 0.950 . S
H1115 C1127 0.950 . S
C1116 H1108 0.950 . S
C1116 C1117 1.386 . S
C1116 C1118 1.391 . S
C1117 C1116 1.386 . S
C1117 C1121 1.393 . S
C1118 H1110 0.950 . S
C1118 C1116 1.391 . S
C1118 C1119 1.400 . S
C1119 C1118 1.400 . S
C1119 C1120 1.398 . S
C1119 C1125 1.491 1_455 S
C1120 H1111 0.950 . S
C1120 C1119 1.398 . S
C1120 C1121 1.391 . S
C1121 H1109 0.950 . S
C1121 C1117 1.393 . S
C1121 C1120 1.391 . S
C1122 H1112 0.950 . S
C1122 C1123 1.386 . S
C1122 C1124 1.391 . S
C1123 C1122 1.386 . S
C1123 C1127 1.393 . S
C1124 H1113 0.950 . S
C1124 C1122 1.391 . S
C1124 C1125 1.400 . S
C1125 C1119 1.491 1_655 S
C1125 C1124 1.400 . S
C1125 C1126 1.398 . S
C1126 H1114 0.950 . S
C1126 C1125 1.398 . S
C1126 C1127 1.391 . S
C1127 H1115 0.950 . S
C1127 C1123 1.393 . S
C1127 C1126 1.391 . S
H1128 C1136 0.950 . S
H1129 C1141 0.950 . S
H1130 C1138 0.950 . S
H1131 C1140 0.950 . S
H1132 C1142 0.950 . S
H1133 C1144 0.950 . S
H1134 C1146 0.950 . S
H1135 C1147 0.950 . S
C1136 H1128 0.950 . S
C1136 C1137 1.386 . S
C1136 C1138 1.391 . S
C1137 C1136 1.386 . S
C1137 C1141 1.393 . S
C1138 H1130 0.950 . S
C1138 C1136 1.391 . S
C1138 C1139 1.400 . S
C1139 C1138 1.400 . S
C1139 C1140 1.398 . S
C1139 C1145 1.491 . S
C1140 H1131 0.950 . S
C1140 C1139 1.398 . S
C1140 C1141 1.391 . S
C1141 H1129 0.950 . S
C1141 C1137 1.393 . S
C1141 C1140 1.391 . S
C1142 H1132 0.950 . S
C1142 C1143 1.386 . S
C1142 C1144 1.391 . S
C1143 C1142 1.386 . S
C1143 C1147 1.393 . S
C1144 H1133 0.950 . S
C1144 C1142 1.391 . S
C1144 C1145 1.400 . S
C1145 C1139 1.491 . S
C1145 C1144 1.400 . S
C1145 C1146 1.398 . S
C1146 H1134 0.950 . S
C1146 C1145 1.398 . S
C1146 C1147 1.391 . S
C1147 H1135 0.950 . S
C1147 C1143 1.393 . S
C1147 C1146 1.391 . S
H1148 C1156 0.950 . S
H1149 C1161 0.950 . S
H1150 C1158 0.950 . S
H1151 C1160 0.950 . S
H1152 C1162 0.950 . S
H1153 C1164 0.950 . S
H1154 C1166 0.950 . S
H1155 C1167 0.950 . S
C1156 H1148 0.950 . S
C1156 C1157 1.386 . S
C1156 C1158 1.391 . S
C1157 C1156 1.386 . S
C1157 C1161 1.393 . S
C1158 H1150 0.950 . S
C1158 C1156 1.391 . S
C1158 C1159 1.400 . S
C1159 C1158 1.400 . S
C1159 C1160 1.398 . S
C1159 C1165 1.491 . S
C1160 H1151 0.950 . S
C1160 C1159 1.398 . S
C1160 C1161 1.391 . S
C1161 H1149 0.950 . S
C1161 C1157 1.393 . S
C1161 C1160 1.391 . S
C1162 H1152 0.950 . S
C1162 C1163 1.386 . S
C1162 C1164 1.391 . S
C1163 C1162 1.386 . S
C1163 C1167 1.393 . S
C1164 H1153 0.950 . S
C1164 C1162 1.391 . S
C1164 C1165 1.400 . S
C1165 C1159 1.491 . S
C1165 C1164 1.400 . S
C1165 C1166 1.398 . S
C1166 H1154 0.950 . S
C1166 C1165 1.398 . S
C1166 C1167 1.391 . S
C1167 H1155 0.950 . S
C1167 C1163 1.393 . S
C1167 C1166 1.391 . S
H1168 C1176 0.950 . S
H1169 C1181 0.950 . S
H1170 C1178 0.950 . S
H1171 C1180 0.950 . S
H1172 C1182 0.950 . S
H1173 C1184 0.950 . S
H1174 C1186 0.950 . S
H1175 C1187 0.950 . S
C1176 H1168 0.950 . S
C1176 C1177 1.386 . S
C1176 C1178 1.391 . S
C1177 C1176 1.386 . S
C1177 C1181 1.393 . S
C1178 H1170 0.950 . S
C1178 C1176 1.391 . S
C1178 C1179 1.400 . S
C1179 C1178 1.400 . S
C1179 C1180 1.398 . S
C1179 C1185 1.491 . S
C1180 H1171 0.950 . S
C1180 C1179 1.398 . S
C1180 C1181 1.391 . S
C1181 H1169 0.950 . S
C1181 C1177 1.393 . S
C1181 C1180 1.391 . S
C1182 H1172 0.950 . S
C1182 C1183 1.386 . S
C1182 C1184 1.391 . S
C1183 C1182 1.386 . S
C1183 C1187 1.393 . S
C1184 H1173 0.950 . S
C1184 C1182 1.391 . S
C1184 C1185 1.400 . S
C1185 C1179 1.491 . S
C1185 C1184 1.400 . S
C1185 C1186 1.398 . S
C1186 H1174 0.950 . S
C1186 C1185 1.398 . S
C1186 C1187 1.391 . S
C1187 H1175 0.950 . S
C1187 C1183 1.393 . S
C1187 C1186 1.391 . S
H1188 C1196 0.950 . S
H1189 C1201 0.950 . S
H1190 C1198 0.950 . S
H1191 C1200 0.950 . S
H1192 C1202 0.950 . S
H1193 C1204 0.950 . S
H1194 C1206 0.950 . S
H1195 C1207 0.950 . S
C1196 H1188 0.950 . S
C1196 C1197 1.386 . S
C1196 C1198 1.391 . S
C1197 C1196 1.386 . S
C1197 C1201 1.393 . S
C1198 H1190 0.950 . S
C1198 C1196 1.391 . S
C1198 C1199 1.400 . S
C1199 C1198 1.400 . S
C1199 C1200 1.398 . S
C1199 C1205 1.491 . S
C1200 H1191 0.950 . S
C1200 C1199 1.398 . S
C1200 C1201 1.391 . S
C1201 H1189 0.950 . S
C1201 C1197 1.393 . S
C1201 C1200 1.391 . S
C1202 H1192 0.950 . S
C1202 C1203 1.386 . S
C1202 C1204 1.391 . S
C1203 C1202 1.386 . S
C1203 C1207 1.393 . S
C1204 H1193 0.950 . S
C1204 C1202 1.391 . S
C1204 C1205 1.400 . S
C1205 C1199 1.491 . S
C1205 C1204 1.400 . S
C1205 C1206 1.398 . S
C1206 H1194 0.950 . S
C1206 C1205 1.398 . S
C1206 C1207 1.391 . S
C1207 H1195 0.950 . S
C1207 C1203 1.393 . S
C1207 C1206 1.391 . S
H1208 C1216 0.950 . S
H1209 C1221 0.950 . S
H1210 C1218 0.950 . S
H1211 C1220 0.950 . S
H1212 C1222 0.950 . S
H1213 C1224 0.950 . S
H1214 C1226 0.950 . S
H1215 C1227 0.950 . S
C1216 H1208 0.950 . S
C1216 C1217 1.386 . S
C1216 C1218 1.391 . S
C1217 C1216 1.386 . S
C1217 C1221 1.393 . S
C1218 H1210 0.950 . S
C1218 C1216 1.391 . S
C1218 C1219 1.400 . S
C1219 C1218 1.400 . S
C1219 C1220 1.398 . S
C1219 C1225 1.491 . S
C1220 H1211 0.950 . S
C1220 C1219 1.398 . S
C1220 C1221 1.391 . S
C1221 H1209 0.950 . S
C1221 C1217 1.393 . S
C1221 C1220 1.391 . S
C1222 H1212 0.950 . S
C1222 C1223 1.386 . S
C1222 C1224 1.391 . S
C1223 C1222 1.386 . S
C1223 C1227 1.393 . S
C1224 H1213 0.950 . S
C1224 C1222 1.391 . S
C1224 C1225 1.400 . S
C1225 C1219 1.491 . S
C1225 C1224 1.400 . S
C1225 C1226 1.398 . S
C1226 H1214 0.950 . S
C1226 C1225 1.398 . S
C1226 C1227 1.391 . S
C1227 H1215 0.950 . S
C1227 C1223 1.393 . S
C1227 C1226 1.391 . S
H1228 C1236 0.950 . S
H1229 C1241 0.950 . S
H1230 C1238 0.950 . S
H1231 C1240 0.950 . S
H1232 C1242 0.950 . S
H1233 C1244 0.950 . S
H1234 C1246 0.950 . S
H1235 C1247 0.950 . S
C1236 H1228 0.950 . S
C1236 C1237 1.386 . S
C1236 C1238 1.391 . S
C1237 C1236 1.386 . S
C1237 C1241 1.393 . S
C1238 H1230 0.950 . S
C1238 C1236 1.391 . S
C1238 C1239 1.400 . S
C1239 C1238 1.400 . S
C1239 C1240 1.398 . S
C1239 C1245 1.491 1_655 S
C1240 H1231 0.950 . S
C1240 C1239 1.398 . S
C1240 C1241 1.391 . S
C1241 H1229 0.950 . S
C1241 C1237 1.393 . S
C1241 C1240 1.391 . S
C1242 H1232 0.950 . S
C1242 C1243 1.386 . S
C1242 C1244 1.391 . S
C1243 C1242 1.386 . S
C1243 C1247 1.393 . S
C1244 H1233 0.950 . S
C1244 C1242 1.391 . S
C1244 C1245 1.400 . S
C1245 C1239 1.491 1_455 S
C1245 C1244 1.400 . S
C1245 C1246 1.398 . S
C1246 H1234 0.950 . S
C1246 C1245 1.398 . S
C1246 C1247 1.391 . S
C1247 H1235 0.950 . S
C1247 C1243 1.393 . S
C1247 C1246 1.391 . S
H1248 C1256 0.950 . S
H1249 C1261 0.950 . S
H1250 C1258 0.950 . S
H1251 C1260 0.950 . S
H1252 C1262 0.950 . S
H1253 C1264 0.950 . S
H1254 C1266 0.950 . S
H1255 C1267 0.950 . S
C1256 H1248 0.950 . S
C1256 C1257 1.386 . S
C1256 C1258 1.391 . S
C1257 C1256 1.386 . S
C1257 C1261 1.393 . S
C1258 H1250 0.950 . S
C1258 C1256 1.391 . S
C1258 C1259 1.400 . S
C1259 C1258 1.400 . S
C1259 C1260 1.398 . S
C1259 C1265 1.491 . S
C1260 H1251 0.950 . S
C1260 C1259 1.398 . S
C1260 C1261 1.391 . S
C1261 H1249 0.950 . S
C1261 C1257 1.393 . S
C1261 C1260 1.391 . S
C1262 H1252 0.950 . S
C1262 C1263 1.386 . S
C1262 C1264 1.391 . S
C1263 C1262 1.386 . S
C1263 C1267 1.393 . S
C1264 H1253 0.950 . S
C1264 C1262 1.391 . S
C1264 C1265 1.400 . S
C1265 C1259 1.491 . S
C1265 C1264 1.400 . S
C1265 C1266 1.398 . S
C1266 H1254 0.950 . S
C1266 C1265 1.398 . S
C1266 C1267 1.391 . S
C1267 H1255 0.950 . S
C1267 C1263 1.393 . S
C1267 C1266 1.391 . S
H1268 C1276 0.950 . S
H1269 C1281 0.950 . S
H1270 C1278 0.950 . S
H1271 C1280 0.950 . S
H1272 C1282 0.950 . S
H1273 C1284 0.950 . S
H1274 C1286 0.950 . S
H1275 C1287 0.950 . S
C1276 H1268 0.950 . S
C1276 C1277 1.386 . S
C1276 C1278 1.391 . S
C1277 C1276 1.386 . S
C1277 C1281 1.393 . S
C1278 H1270 0.950 . S
C1278 C1276 1.391 . S
C1278 C1279 1.400 . S
C1279 C1278 1.400 . S
C1279 C1280 1.398 . S
C1279 C1285 1.491 . S
C1280 H1271 0.950 . S
C1280 C1279 1.398 . S
C1280 C1281 1.391 . S
C1281 H1269 0.950 . S
C1281 C1277 1.393 . S
C1281 C1280 1.391 . S
C1282 H1272 0.950 . S
C1282 C1283 1.386 . S
C1282 C1284 1.391 . S
C1283 C1282 1.386 . S
C1283 C1287 1.393 . S
C1284 H1273 0.950 . S
C1284 C1282 1.391 . S
C1284 C1285 1.400 . S
C1285 C1279 1.491 . S
C1285 C1284 1.400 . S
C1285 C1286 1.398 . S
C1286 H1274 0.950 . S
C1286 C1285 1.398 . S
C1286 C1287 1.391 . S
C1287 H1275 0.950 . S
C1287 C1283 1.393 . S
C1287 C1286 1.391 . S
H1288 C1296 0.950 . S
H1289 C1301 0.950 . S
H1290 C1298 0.950 . S
H1291 C1300 0.950 . S
H1292 C1302 0.950 . S
H1293 C1304 0.950 . S
H1294 C1306 0.950 . S
H1295 C1307 0.950 . S
C1296 H1288 0.950 . S
C1296 C1297 1.386 . S
C1296 C1298 1.391 . S
C1297 C1296 1.386 . S
C1297 C1301 1.393 . S
C1298 H1290 0.950 . S
C1298 C1296 1.391 . S
C1298 C1299 1.400 . S
C1299 C1298 1.400 . S
C1299 C1300 1.398 . S
C1299 C1305 1.491 . S
C1300 H1291 0.950 . S
C1300 C1299 1.398 . S
C1300 C1301 1.391 . S
C1301 H1289 0.950 . S
C1301 C1297 1.393 . S
C1301 C1300 1.391 . S
C1302 H1292 0.950 . S
C1302 C1303 1.386 . S
C1302 C1304 1.391 . S
C1303 C1302 1.386 . S
C1303 C1307 1.393 . S
C1304 H1293 0.950 . S
C1304 C1302 1.391 . S
C1304 C1305 1.400 . S
C1305 C1299 1.491 . S
C1305 C1304 1.400 . S
C1305 C1306 1.398 . S
C1306 H1294 0.950 . S
C1306 C1305 1.398 . S
C1306 C1307 1.391 . S
C1307 H1295 0.950 . S
C1307 C1303 1.393 . S
C1307 C1306 1.391 . S
H1308 C1316 0.950 . S
H1309 C1321 0.950 . S
H1310 C1318 0.950 . S
H1311 C1320 0.950 . S
H1312 C1322 0.950 . S
H1313 C1324 0.950 . S
H1314 C1326 0.950 . S
H1315 C1327 0.950 . S
C1316 H1308 0.950 . S
C1316 C1317 1.386 . S
C1316 C1318 1.391 . S
C1317 C1316 1.386 . S
C1317 C1321 1.393 . S
C1318 H1310 0.950 . S
C1318 C1316 1.391 . S
C1318 C1319 1.400 . S
C1319 C1318 1.400 . S
C1319 C1320 1.398 . S
C1319 C1325 1.491 . S
C1320 H1311 0.950 . S
C1320 C1319 1.398 . S
C1320 C1321 1.391 . S
C1321 H1309 0.950 . S
C1321 C1317 1.393 . S
C1321 C1320 1.391 . S
C1322 H1312 0.950 . S
C1322 C1323 1.386 . S
C1322 C1324 1.391 . S
C1323 C1322 1.386 . S
C1323 C1327 1.393 . S
C1324 H1313 0.950 . S
C1324 C1322 1.391 . S
C1324 C1325 1.400 . S
C1325 C1319 1.491 . S
C1325 C1324 1.400 . S
C1325 C1326 1.398 . S
C1326 H1314 0.950 . S
C1326 C1325 1.398 . S
C1326 C1327 1.391 . S
C1327 H1315 0.950 . S
C1327 C1323 1.393 . S
C1327 C1326 1.391 . S
H1328 C1336 0.950 . S
H1329 C1341 0.950 . S
H1330 C1338 0.950 . S
H1331 C1340 0.950 . S
H1332 C1342 0.950 . S
H1333 C1344 0.950 . S
H1334 C1346 0.950 . S
H1335 C1347 0.950 . S
C1336 H1328 0.950 . S
C1336 C1337 1.386 . S
C1336 C1338 1.391 . S
C1337 C1336 1.386 . S
C1337 C1341 1.393 . S
C1338 H1330 0.950 . S
C1338 C1336 1.391 . S
C1338 C1339 1.400 . S
C1339 C1338 1.400 . S
C1339 C1340 1.398 . S
C1339 C1345 1.491 . S
C1340 H1331 0.950 . S
C1340 C1339 1.398 . S
C1340 C1341 1.391 . S
C1341 H1329 0.950 . S
C1341 C1337 1.393 . S
C1341 C1340 1.391 . S
C1342 H1332 0.950 . S
C1342 C1343 1.386 . S
C1342 C1344 1.391 . S
C1343 C1342 1.386 . S
C1343 C1347 1.393 . S
C1344 H1333 0.950 . S
C1344 C1342 1.391 . S
C1344 C1345 1.400 . S
C1345 C1339 1.491 . S
C1345 C1344 1.400 . S
C1345 C1346 1.398 . S
C1346 H1334 0.950 . S
C1346 C1345 1.398 . S
C1346 C1347 1.391 . S
C1347 H1335 0.950 . S
C1347 C1343 1.393 . S
C1347 C1346 1.391 . S
H1348 C1356 0.950 . S
H1349 C1361 0.950 . S
H1350 C1358 0.950 . S
H1351 C1360 0.950 . S
H1352 C1362 0.950 . S
H1353 C1364 0.950 . S
H1354 C1366 0.950 . S
H1355 C1367 0.950 . S
C1356 H1348 0.950 . S
C1356 C1357 1.386 . S
C1356 C1358 1.391 . S
C1357 C1356 1.386 . S
C1357 C1361 1.393 . S
C1358 H1350 0.950 . S
C1358 C1356 1.391 . S
C1358 C1359 1.400 . S
C1359 C1358 1.400 . S
C1359 C1360 1.398 . S
C1359 C1365 1.491 1_655 S
C1360 H1351 0.950 . S
C1360 C1359 1.398 . S
C1360 C1361 1.391 . S
C1361 H1349 0.950 . S
C1361 C1357 1.393 . S
C1361 C1360 1.391 . S
C1362 H1352 0.950 . S
C1362 C1363 1.386 . S
C1362 C1364 1.391 . S
C1363 C1362 1.386 . S
C1363 C1367 1.393 . S
C1364 H1353 0.950 . S
C1364 C1362 1.391 . S
C1364 C1365 1.400 . S
C1365 C1359 1.491 1_455 S
C1365 C1364 1.400 . S
C1365 C1366 1.398 . S
C1366 H1354 0.950 . S
C1366 C1365 1.398 . S
C1366 C1367 1.391 . S
C1367 H1355 0.950 . S
C1367 C1363 1.393 . S
C1367 C1366 1.391 . S
H1368 C1376 0.950 . S
H1369 C1381 0.950 . S
H1370 C1378 0.950 . S
H1371 C1380 0.950 . S
H1372 C1382 0.950 . S
H1373 C1384 0.950 . S
H1374 C1386 0.950 . S
H1375 C1387 0.950 . S
C1376 H1368 0.950 . S
C1376 C1377 1.386 . S
C1376 C1378 1.391 . S
C1377 C1376 1.386 . S
C1377 C1381 1.393 . S
C1378 H1370 0.950 . S
C1378 C1376 1.391 . S
C1378 C1379 1.400 . S
C1379 C1378 1.400 . S
C1379 C1380 1.398 . S
C1379 C1385 1.491 1_655 S
C1380 H1371 0.950 . S
C1380 C1379 1.398 . S
C1380 C1381 1.391 . S
C1381 H1369 0.950 . S
C1381 C1377 1.393 . S
C1381 C1380 1.391 . S
C1382 H1372 0.950 . S
C1382 C1383 1.386 . S
C1382 C1384 1.391 . S
C1383 C1382 1.386 . S
C1383 C1387 1.393 . S
C1384 H1373 0.950 . S
C1384 C1382 1.391 . S
C1384 C1385 1.400 . S
C1385 C1379 1.491 1_455 S
C1385 C1384 1.400 . S
C1385 C1386 1.398 . S
C1386 H1374 0.950 . S
C1386 C1385 1.398 . S
C1386 C1387 1.391 . S
C1387 H1375 0.950 . S
C1387 C1383 1.393 . S
C1387 C1386 1.391 . S
H1388 C1396 0.950 . S
H1389 C1401 0.950 . S
H1390 C1398 0.950 . S
H1391 C1400 0.950 . S
H1392 C1402 0.950 . S
H1393 C1404 0.950 . S
H1394 C1406 0.950 . S
H1395 C1407 0.950 . S
C1396 H1388 0.950 . S
C1396 C1397 1.386 . S
C1396 C1398 1.391 . S
C1397 C1396 1.386 . S
C1397 C1401 1.393 . S
C1398 H1390 0.950 . S
C1398 C1396 1.391 . S
C1398 C1399 1.400 . S
C1399 C1398 1.400 . S
C1399 C1400 1.398 . S
C1399 C1405 1.491 . S
C1400 H1391 0.950 . S
C1400 C1399 1.398 . S
C1400 C1401 1.391 . S
C1401 H1389 0.950 . S
C1401 C1397 1.393 . S
C1401 C1400 1.391 . S
C1402 H1392 0.950 . S
C1402 C1403 1.386 . S
C1402 C1404 1.391 . S
C1403 C1402 1.386 . S
C1403 C1407 1.393 . S
C1404 H1393 0.950 . S
C1404 C1402 1.391 . S
C1404 C1405 1.400 . S
C1405 C1399 1.491 . S
C1405 C1404 1.400 . S
C1405 C1406 1.398 . S
C1406 H1394 0.950 . S
C1406 C1405 1.398 . S
C1406 C1407 1.391 . S
C1407 H1395 0.950 . S
C1407 C1403 1.393 . S
C1407 C1406 1.391 . S
H1408 C1416 0.950 . S
H1409 C1421 0.950 . S
H1410 C1418 0.950 . S
H1411 C1420 0.950 . S
H1412 C1422 0.950 . S
H1413 C1424 0.950 . S
H1414 C1426 0.950 . S
H1415 C1427 0.950 . S
C1416 H1408 0.950 . S
C1416 C1417 1.386 . S
C1416 C1418 1.391 . S
C1417 C1416 1.386 . S
C1417 C1421 1.393 . S
C1418 H1410 0.950 . S
C1418 C1416 1.391 . S
C1418 C1419 1.400 . S
C1419 C1418 1.400 . S
C1419 C1420 1.398 . S
C1419 C1425 1.491 . S
C1420 H1411 0.950 . S
C1420 C1419 1.398 . S
C1420 C1421 1.391 . S
C1421 H1409 0.950 . S
C1421 C1417 1.393 . S
C1421 C1420 1.391 . S
C1422 H1412 0.950 . S
C1422 C1423 1.386 . S
C1422 C1424 1.391 . S
C1423 C1422 1.386 . S
C1423 C1427 1.393 . S
C1424 H1413 0.950 . S
C1424 C1422 1.391 . S
C1424 C1425 1.400 . S
C1425 C1419 1.491 . S
C1425 C1424 1.400 . S
C1425 C1426 1.398 . S
C1426 H1414 0.950 . S
C1426 C1425 1.398 . S
C1426 C1427 1.391 . S
C1427 H1415 0.950 . S
C1427 C1423 1.393 . S
C1427 C1426 1.391 . S
H1428 C1436 0.950 . S
H1429 C1441 0.950 . S
H1430 C1438 0.950 . S
H1431 C1440 0.966 . S
H1432 C1442 0.950 . S
H1433 C1444 0.950 . S
H1434 C1446 0.950 . S
H1435 C1447 0.950 . S
C1436 H1428 0.950 . S
C1436 C1437 1.386 . S
C1436 C1438 1.391 . S
C1437 C1436 1.386 . S
C1437 C1441 1.393 . S
C1438 H1430 0.950 . S
C1438 C1436 1.391 . S
C1438 C1439 1.400 . S
C1439 C1438 1.400 . S
C1439 C1440 1.398 . S
C1439 C1445 1.491 1_565 S
C1440 H1431 0.966 . S
C1440 C1439 1.398 . S
C1440 C1441 1.391 . S
C1441 H1429 0.950 . S
C1441 C1437 1.393 . S
C1441 C1440 1.391 . S
C1442 H1432 0.950 . S
C1442 C1443 1.386 . S
C1442 C1444 1.391 . S
C1443 C1442 1.386 . S
C1443 C1447 1.393 . S
C1444 H1433 0.950 . S
C1444 C1442 1.391 . S
C1444 C1445 1.400 . S
C1445 C1439 1.491 1_545 S
C1445 C1444 1.400 . S
C1445 C1446 1.398 . S
C1446 H1434 0.950 . S
C1446 C1445 1.398 . S
C1446 C1447 1.391 . S
C1447 H1435 0.950 . S
C1447 C1443 1.393 . S
C1447 C1446 1.391 . S
H1448 C1456 0.950 . S
H1449 C1461 0.950 . S
H1450 C1458 0.950 . S
H1451 C1460 0.950 . S
H1452 C1462 0.950 . S
H1453 C1464 0.950 . S
H1454 C1466 0.950 . S
H1455 C1467 0.950 . S
C1456 H1448 0.950 . S
C1456 C1457 1.386 . S
C1456 C1458 1.391 . S
C1457 C1456 1.386 . S
C1457 C1461 1.393 . S
C1458 H1450 0.950 . S
C1458 C1456 1.391 . S
C1458 C1459 1.400 . S
C1459 C1458 1.400 . S
C1459 C1460 1.398 . S
C1459 C1465 1.491 . S
C1460 H1451 0.950 . S
C1460 C1459 1.398 . S
C1460 C1461 1.391 . S
C1461 H1449 0.950 . S
C1461 C1457 1.393 . S
C1461 C1460 1.391 . S
C1462 H1452 0.950 . S
C1462 C1463 1.386 . S
C1462 C1464 1.391 . S
C1463 C1462 1.386 . S
C1463 C1467 1.393 . S
C1464 H1453 0.950 . S
C1464 C1462 1.391 . S
C1464 C1465 1.400 . S
C1465 C1459 1.491 . S
C1465 C1464 1.400 . S
C1465 C1466 1.398 . S
C1466 H1454 0.950 . S
C1466 C1465 1.398 . S
C1466 C1467 1.391 . S
C1467 H1455 0.950 . S
C1467 C1463 1.393 . S
C1467 C1466 1.391 . S
H1468 C1476 0.950 1_556 S
H1469 C1481 0.950 1_556 S
H1470 C1478 0.950 . S
H1471 C1480 0.950 . S
H1472 C1482 0.950 . S
H1473 C1484 0.950 . S
H1474 C1486 0.950 1_545 S
H1475 C1487 0.950 . S
C1476 H1468 0.950 1_554 S
C1476 C1477 1.386 1_554 S
C1476 C1478 1.391 . S
C1477 C1476 1.386 1_556 S
C1477 C1481 1.393 1_556 S
C1478 H1470 0.950 . S
C1478 C1476 1.391 . S
C1478 C1479 1.400 . S
C1479 C1478 1.400 . S
C1479 C1480 1.398 . S
C1479 C1485 1.491 1_545 S
C1480 H1471 0.950 . S
C1480 C1479 1.398 . S
C1480 C1481 1.391 . S
C1481 H1469 0.950 1_554 S
C1481 C1477 1.393 1_554 S
C1481 C1480 1.391 . S
C1482 H1472 0.950 . S
C1482 C1483 1.386 . S
C1482 C1484 1.391 . S
C1483 C1482 1.386 . S
C1483 C1487 1.393 . S
C1484 H1473 0.950 . S
C1484 C1482 1.391 . S
C1484 C1485 1.400 . S
C1485 C1479 1.491 1_565 S
C1485 C1484 1.400 . S
C1485 C1486 1.398 . S
C1486 H1474 0.950 1_565 S
C1486 C1485 1.398 . S
C1486 C1487 1.391 . S
C1487 H1475 0.950 . S
C1487 C1483 1.393 . S
C1487 C1486 1.391 . S
H1488 C1496 0.950 . S
H1489 C1501 0.950 . S
H1490 C1498 0.950 . S
H1491 C1500 0.950 . S
H1492 C1502 0.950 . S
H1493 C1504 0.950 . S
H1494 C1506 0.950 . S
H1495 C1507 0.950 . S
C1496 H1488 0.950 . S
C1496 C1497 1.386 . S
C1496 C1498 1.391 . S
C1497 C1496 1.386 . S
C1497 C1501 1.393 . S
C1498 H1490 0.950 . S
C1498 C1496 1.391 . S
C1498 C1499 1.400 . S
C1499 C1498 1.400 . S
C1499 C1500 1.398 . S
C1499 C1505 1.491 . S
C1500 H1491 0.950 . S
C1500 C1499 1.398 . S
C1500 C1501 1.391 . S
C1501 H1489 0.950 . S
C1501 C1497 1.393 . S
C1501 C1500 1.391 . S
C1502 H1492 0.950 . S
C1502 C1503 1.386 . S
C1502 C1504 1.391 . S
C1503 C1502 1.386 . S
C1503 C1507 1.393 . S
C1504 H1493 0.950 . S
C1504 C1502 1.391 . S
C1504 C1505 1.400 . S
C1505 C1499 1.491 . S
C1505 C1504 1.400 . S
C1505 C1506 1.398 . S
C1506 H1494 0.950 . S
C1506 C1505 1.398 . S
C1506 C1507 1.391 . S
C1507 H1495 0.950 . S
C1507 C1503 1.393 . S
C1507 C1506 1.391 . S
H1508 C1516 0.950 1_565 S
H1509 C1521 0.950 . S
H1510 C1518 0.950 . S
H1511 C1520 0.950 . S
H1512 C1522 0.950 . S
H1513 C1524 0.950 . S
H1514 C1526 0.950 . S
H1515 C1527 0.950 . S
C1516 H1508 0.950 1_545 S
C1516 C1517 1.386 . S
C1516 C1518 1.391 1_545 S
C1517 C1516 1.386 . S
C1517 C1521 1.393 . S
C1518 H1510 0.950 . S
C1518 C1516 1.391 1_565 S
C1518 C1519 1.400 1_565 S
C1519 C1518 1.400 1_545 S
C1519 C1520 1.398 . S
C1519 C1525 1.464 1_545 S
C1520 H1511 0.950 . S
C1520 C1519 1.398 . S
C1520 C1521 1.391 . S
C1521 H1509 0.950 . S
C1521 C1517 1.393 . S
C1521 C1520 1.391 . S
C1522 H1512 0.950 . S
C1522 C1523 1.386 1_545 S
C1522 C1524 1.391 . S
C1523 C1522 1.386 1_565 S
C1523 C1527 1.393 . S
C1524 H1513 0.950 . S
C1524 C1522 1.391 . S
C1524 C1525 1.364 1_545 S
C1525 C1519 1.464 1_565 S
C1525 C1524 1.364 1_565 S
C1525 C1526 1.466 . S
C1526 H1514 0.950 . S
C1526 C1525 1.466 . S
C1526 C1527 1.391 . S
C1527 H1515 0.950 . S
C1527 C1523 1.393 . S
C1527 C1526 1.391 . S
H1528 C1536 0.950 . S
H1529 C1541 0.950 . S
H1530 C1538 0.950 . S
H1531 C1540 0.950 . S
H1532 C1542 0.950 . S
H1533 C1544 0.950 . S
H1534 C1546 0.950 . S
H1535 C1547 0.950 . S
C1536 H1528 0.950 . S
C1536 C1537 1.386 . S
C1536 C1538 1.391 . S
C1537 C1536 1.386 . S
C1537 C1541 1.393 . S
C1538 H1530 0.950 . S
C1538 C1536 1.391 . S
C1538 C1539 1.400 . S
C1539 C1538 1.400 . S
C1539 C1540 1.398 . S
C1539 C1545 1.491 . S
C1540 H1531 0.950 . S
C1540 C1539 1.398 . S
C1540 C1541 1.391 . S
C1541 H1529 0.950 . S
C1541 C1537 1.393 . S
C1541 C1540 1.391 . S
C1542 H1532 0.950 . S
C1542 C1543 1.386 . S
C1542 C1544 1.391 . S
C1543 C1542 1.386 . S
C1543 C1547 1.393 . S
C1544 H1533 0.950 . S
C1544 C1542 1.391 . S
C1544 C1545 1.400 . S
C1545 C1539 1.491 . S
C1545 C1544 1.400 . S
C1545 C1546 1.398 . S
C1546 H1534 0.950 . S
C1546 C1545 1.398 . S
C1546 C1547 1.391 . S
C1547 H1535 0.950 . S
C1547 C1543 1.393 . S
C1547 C1546 1.391 . S
H1548 C1556 0.950 . S
H1549 C1561 0.950 . S
H1550 C1558 0.950 . S
H1551 C1560 0.950 . S
H1552 C1562 0.950 . S
H1553 C1564 0.950 . S
H1554 C1566 0.950 . S
H1555 C1567 0.950 1_565 S
C1556 H1548 0.950 . S
C1556 C1557 1.386 . S
C1556 C1558 1.391 . S
C1557 C1556 1.386 . S
C1557 C1561 1.393 1_565 S
C1558 H1550 0.950 . S
C1558 C1556 1.391 . S
C1558 C1559 1.442 . S
C1559 C1558 1.442 . S
C1559 C1560 1.374 1_565 S
C1559 C1565 1.476 1_565 S
C1560 H1551 0.950 . S
C1560 C1559 1.374 1_545 S
C1560 C1561 1.391 . S
C1561 H1549 0.950 . S
C1561 C1557 1.393 1_545 S
C1561 C1560 1.391 . S
C1562 H1552 0.950 . S
C1562 C1563 1.386 1_554 S
C1562 C1564 1.391 . S
C1563 C1562 1.386 1_556 S
C1563 C1567 1.393 . S
C1564 H1553 0.950 . S
C1564 C1562 1.391 . S
C1564 C1565 1.400 . S
C1565 C1559 1.476 1_545 S
C1565 C1564 1.400 . S
C1565 C1566 1.398 1_545 S
C1566 H1554 0.950 . S
C1566 C1565 1.398 1_565 S
C1566 C1567 1.391 1_564 S
C1567 H1555 0.950 1_545 S
C1567 C1563 1.393 . S
C1567 C1566 1.391 1_546 S
H1568 C1576 0.950 . S
H1569 C1581 0.950 . S
H1570 C1578 0.950 . S
H1571 C1580 0.950 . S
H1572 C1582 0.950 . S
H1573 C1584 0.950 . S
H1574 C1586 0.950 . S
H1575 C1587 0.950 . S
C1576 H1568 0.950 . S
C1576 C1577 1.386 . S
C1576 C1578 1.391 . S
C1577 C1576 1.386 . S
C1577 C1581 1.393 . S
C1578 H1570 0.950 . S
C1578 C1576 1.391 . S
C1578 C1579 1.400 . S
C1579 C1578 1.400 . S
C1579 C1580 1.398 . S
C1579 C1585 1.491 . S
C1580 H1571 0.950 . S
C1580 C1579 1.398 . S
C1580 C1581 1.391 . S
C1581 H1569 0.950 . S
C1581 C1577 1.393 . S
C1581 C1580 1.391 . S
C1582 H1572 0.950 . S
C1582 C1583 1.386 . S
C1582 C1584 1.391 . S
C1583 C1582 1.386 . S
C1583 C1587 1.393 . S
C1584 H1573 0.950 . S
C1584 C1582 1.391 . S
C1584 C1585 1.400 . S
C1585 C1579 1.491 . S
C1585 C1584 1.400 . S
C1585 C1586 1.398 . S
C1586 H1574 0.950 . S
C1586 C1585 1.398 . S
C1586 C1587 1.391 . S
C1587 H1575 0.950 . S
C1587 C1583 1.393 . S
C1587 C1586 1.391 . S
H1588 C1596 0.950 . S
H1589 C1601 0.950 . S
H1590 C1598 0.950 . S
H1591 C1600 0.950 . S
H1592 C1602 0.950 . S
H1593 C1604 0.950 . S
H1594 C1606 0.950 . S
H1595 C1607 0.950 . S
C1596 H1588 0.950 . S
C1596 C1597 1.386 . S
C1596 C1598 1.391 . S
C1597 C1596 1.386 . S
C1597 C1601 1.393 . S
C1598 H1590 0.950 . S
C1598 C1596 1.391 . S
C1598 C1599 1.400 . S
C1599 C1598 1.400 . S
C1599 C1600 1.398 . S
C1599 C1605 1.491 . S
C1600 H1591 0.950 . S
C1600 C1599 1.398 . S
C1600 C1601 1.391 . S
C1601 H1589 0.950 . S
C1601 C1597 1.393 . S
C1601 C1600 1.391 . S
C1602 H1592 0.950 . S
C1602 C1603 1.386 1_554 S
C1602 C1604 1.391 . S
C1603 C1602 1.386 1_556 S
C1603 C1607 1.393 . S
C1604 H1593 0.950 . S
C1604 C1602 1.391 . S
C1604 C1605 1.400 . S
C1605 C1599 1.491 . S
C1605 C1604 1.400 . S
C1605 C1606 1.398 . S
C1606 H1594 0.950 . S
C1606 C1605 1.398 . S
C1606 C1607 1.391 1_554 S
C1607 H1595 0.950 . S
C1607 C1603 1.393 . S
C1607 C1606 1.391 1_556 S
H1608 C1616 0.950 . S
H1609 C1621 0.950 . S
H1610 C1618 0.950 . S
H1611 C1620 0.950 . S
H1612 C1622 0.950 . S
H1613 C1624 0.950 . S
H1614 C1626 0.950 . S
H1615 C1627 0.950 . S
C1616 H1608 0.950 . S
C1616 C1617 1.386 . S
C1616 C1618 1.391 . S
C1617 C1616 1.386 . S
C1617 C1621 1.393 . S
C1618 H1610 0.950 . S
C1618 C1616 1.391 . S
C1618 C1619 1.400 . S
C1619 C1618 1.400 . S
C1619 C1620 1.398 . S
C1619 C1625 1.491 . S
C1620 H1611 0.950 . S
C1620 C1619 1.398 . S
C1620 C1621 1.391 . S
C1621 H1609 0.950 . S
C1621 C1617 1.393 . S
C1621 C1620 1.391 . S
C1622 H1612 0.950 . S
C1622 C1623 1.386 . S
C1622 C1624 1.391 . S
C1623 C1622 1.386 . S
C1623 C1627 1.393 . S
C1624 H1613 0.950 . S
C1624 C1622 1.391 . S
C1624 C1625 1.400 . S
C1625 C1619 1.491 . S
C1625 C1624 1.400 . S
C1625 C1626 1.398 . S
C1626 H1614 0.950 . S
C1626 C1625 1.398 . S
C1626 C1627 1.391 . S
C1627 H1615 0.950 . S
C1627 C1623 1.393 . S
C1627 C1626 1.391 . S
H1628 C1636 0.950 . S
H1629 C1641 0.950 . S
H1630 C1638 0.950 . S
H1631 C1640 0.950 . S
H1632 C1642 0.950 . S
H1633 C1644 0.950 . S
H1634 C1646 0.950 . S
H1635 C1647 0.950 . S
C1636 H1628 0.950 . S
C1636 C1637 1.386 . S
C1636 C1638 1.391 . S
C1637 C1636 1.386 . S
C1637 C1641 1.393 . S
C1638 H1630 0.950 . S
C1638 C1636 1.391 . S
C1638 C1639 1.400 . S
C1639 C1638 1.400 . S
C1639 C1640 1.398 . S
C1639 C1645 1.491 . S
C1640 H1631 0.950 . S
C1640 C1639 1.398 . S
C1640 C1641 1.391 . S
C1641 H1629 0.950 . S
C1641 C1637 1.393 . S
C1641 C1640 1.391 . S
C1642 H1632 0.950 . S
C1642 C1643 1.386 . S
C1642 C1644 1.391 . S
C1643 C1642 1.386 . S
C1643 C1647 1.393 . S
C1644 H1633 0.950 . S
C1644 C1642 1.391 . S
C1644 C1645 1.400 . S
C1645 C1639 1.491 . S
C1645 C1644 1.400 . S
C1645 C1646 1.398 . S
C1646 H1634 0.950 . S
C1646 C1645 1.398 . S
C1646 C1647 1.391 . S
C1647 H1635 0.950 . S
C1647 C1643 1.393 . S
C1647 C1646 1.391 . S
H1648 C1656 0.950 . S
H1649 C1661 0.950 . S
H1650 C1658 0.950 . S
H1651 C1660 0.950 . S
H1652 C1662 0.950 . S
H1653 C1664 0.950 . S
H1654 C1666 0.950 . S
H1655 C1667 0.950 . S
C1656 H1648 0.950 . S
C1656 C1657 1.386 . S
C1656 C1658 1.391 . S
C1657 C1656 1.386 . S
C1657 C1661 1.393 . S
C1658 H1650 0.950 . S
C1658 C1656 1.391 . S
C1658 C1659 1.400 . S
C1659 C1658 1.400 . S
C1659 C1660 1.398 . S
C1659 C1665 1.491 . S
C1660 H1651 0.950 . S
C1660 C1659 1.398 . S
C1660 C1661 1.391 . S
C1661 H1649 0.950 . S
C1661 C1657 1.393 . S
C1661 C1660 1.391 . S
C1662 H1652 0.950 . S
C1662 C1663 1.386 . S
C1662 C1664 1.391 . S
C1663 C1662 1.386 . S
C1663 C1667 1.393 . S
C1664 H1653 0.950 . S
C1664 C1662 1.391 . S
C1664 C1665 1.400 . S
C1665 C1659 1.491 . S
C1665 C1664 1.400 . S
C1665 C1666 1.398 . S
C1666 H1654 0.950 . S
C1666 C1665 1.398 . S
C1666 C1667 1.391 . S
C1667 H1655 0.950 . S
C1667 C1663 1.393 . S
C1667 C1666 1.391 . S
H1668 C1676 0.956 . S
H1669 C1681 0.950 1_556 S
H1670 C1678 0.950 . S
H1671 C1680 0.950 . S
H1672 C1682 0.950 . S
H1673 C1684 0.950 . S
H1674 C1686 0.950 . S
H1675 C1687 0.950 . S
C1676 H1668 0.956 . S
C1676 C1677 1.390 . S
C1676 C1678 1.380 1_556 S
C1677 C1676 1.390 . S
C1677 C1681 1.393 1_556 S
C1678 H1670 0.950 . S
C1678 C1676 1.380 1_554 S
C1678 C1679 1.400 . S
C1679 C1678 1.400 . S
C1679 C1680 1.398 . S
C1679 C1685 1.491 . S
C1680 H1671 0.950 . S
C1680 C1679 1.398 . S
C1680 C1681 1.391 . S
C1681 H1669 0.950 1_554 S
C1681 C1677 1.393 1_554 S
C1681 C1680 1.391 . S
C1682 H1672 0.950 . S
C1682 C1683 1.386 . S
C1682 C1684 1.391 . S
C1683 C1682 1.386 . S
C1683 C1687 1.393 . S
C1684 H1673 0.950 . S
C1684 C1682 1.391 . S
C1684 C1685 1.400 . S
C1685 C1679 1.491 . S
C1685 C1684 1.400 . S
C1685 C1686 1.398 . S
C1686 H1674 0.950 . S
C1686 C1685 1.398 . S
C1686 C1687 1.391 . S
C1687 H1675 0.950 . S
C1687 C1683 1.393 . S
C1687 C1686 1.391 . S
H1688 C1696 0.950 . S
H1689 C1701 0.950 . S
H1690 C1698 0.950 . S
H1691 C1700 0.950 . S
H1692 C1702 0.950 . S
H1693 C1704 0.950 . S
H1694 C1706 0.950 . S
H1695 C1707 0.950 . S
C1696 H1688 0.950 . S
C1696 C1697 1.386 . S
C1696 C1698 1.391 . S
C1697 C1696 1.386 . S
C1697 C1701 1.393 . S
C1698 H1690 0.950 . S
C1698 C1696 1.391 . S
C1698 C1699 1.400 . S
C1699 C1698 1.400 . S
C1699 C1700 1.398 . S
C1699 C1705 1.491 . S
C1700 H1691 0.950 . S
C1700 C1699 1.398 . S
C1700 C1701 1.391 . S
C1701 H1689 0.950 . S
C1701 C1697 1.393 . S
C1701 C1700 1.391 . S
C1702 H1692 0.950 . S
C1702 C1703 1.386 . S
C1702 C1704 1.391 . S
C1703 C1702 1.386 . S
C1703 C1707 1.393 . S
C1704 H1693 0.950 . S
C1704 C1702 1.391 . S
C1704 C1705 1.400 . S
C1705 C1699 1.491 . S
C1705 C1704 1.400 . S
C1705 C1706 1.398 . S
C1706 H1694 0.950 . S
C1706 C1705 1.398 . S
C1706 C1707 1.391 . S
C1707 H1695 0.950 . S
C1707 C1703 1.393 . S
C1707 C1706 1.391 . S
H1708 C1716 0.950 . S
H1709 C1721 0.950 . S
H1710 C1718 0.950 . S
H1711 C1720 0.950 . S
H1712 C1722 0.950 . S
H1713 C1724 0.950 . S
H1714 C1726 0.950 . S
H1715 C1727 0.950 . S
C1716 H1708 0.950 . S
C1716 C1717 1.386 . S
C1716 C1718 1.391 . S
C1717 C1716 1.386 . S
C1717 C1721 1.393 . S
C1718 H1710 0.950 . S
C1718 C1716 1.391 . S
C1718 C1719 1.400 . S
C1719 C1718 1.400 . S
C1719 C1720 1.398 . S
C1719 C1725 1.491 . S
C1720 H1711 0.950 . S
C1720 C1719 1.398 . S
C1720 C1721 1.391 . S
C1721 H1709 0.950 . S
C1721 C1717 1.393 . S
C1721 C1720 1.391 . S
C1722 H1712 0.950 . S
C1722 C1723 1.386 . S
C1722 C1724 1.391 . S
C1723 C1722 1.386 . S
C1723 C1727 1.393 . S
C1724 H1713 0.950 . S
C1724 C1722 1.391 . S
C1724 C1725 1.400 . S
C1725 C1719 1.491 . S
C1725 C1724 1.400 . S
C1725 C1726 1.398 . S
C1726 H1714 0.950 . S
C1726 C1725 1.398 . S
C1726 C1727 1.391 . S
C1727 H1715 0.950 . S
C1727 C1723 1.393 . S
C1727 C1726 1.391 . S
C457 C104 1.507 . S
C463 C6 1.523 . S
C477 C20 1.513 . S
C483 C62 1.504 . S
C497 C76 1.503 . S
C503 C34 1.514 . S
C517 C48 1.511 . S
C523 C90 1.526 . S
C537 C118 1.528 . S
C543 C216 1.518 . S
C557 C132 1.527 . S
C563 C174 1.512 . S
C577 C146 1.504 . S
C583 C188 1.512 . S
C597 C160 1.524 . S
C603 C202 1.525 . S
C617 C230 1.516 . S
C623 C328 1.504 . S
C637 C244 1.507 . S
C643 C286 1.506 . S
C657 C300 1.525 . S
C663 C258 1.509 . S
C677 C314 1.511 . S
C683 C272 1.504 . S
C697 C342 1.523 . S
C703 C440 1.507 . S
C717 C398 1.514 . S
C723 C356 1.527 . S
C737 C412 1.504 . S
C743 C370 1.512 . S
C757 C384 1.512 . S
C763 C426 1.504 . S
C777 C8 0.935 . S
C783 C92 0.936 . S
C797 C22 0.945 . S
C803 C106 0.947 . S
C817 C64 0.936 . S
C823 C36 0.937 . S
C837 C50 0.960 . S
C843 C78 0.958 . S
C857 C120 0.966 . S
C863 C204 0.965 . S
C877 C134 0.964 . S
C883 C218 0.965 . S
C897 C176 0.967 . S
C903 C148 0.967 . S
C917 C190 0.935 . S
C923 C162 0.935 . S
C937 C232 0.943 . S
C943 C316 0.944 . S
C957 C330 0.949 . S
C963 C246 0.947 . S
C977 C288 0.954 . S
C983 C260 0.953 . S
C997 C274 0.955 . S
C1003 C302 0.957 . S
C1017 C344 0.948 . S
C1023 C428 0.946 . S
C1037 C358 0.966 . S
C1043 C442 0.966 . S
C1057 C400 0.956 . S
C1063 C372 0.958 . S
C1077 C414 0.949 . S
C1083 C386 0.947 . S
C1097 C9 1.569 . S
C1103 C429 1.553 . S
C1117 C23 1.568 . S
C1123 C219 1.554 . S
C1137 C37 1.566 . S
C1143 C401 1.556 . S
C1157 C51 1.568 . S
C1163 C191 1.554 . S
C1177 C65 1.553 . S
C1183 C373 1.569 . S
C1197 C79 1.557 . S
C1203 C163 1.566 . S
C1217 C93 1.563 . S
C1223 C345 1.560 . S
C1237 C135 1.558 . S
C1243 C107 1.565 . S
C1257 C317 1.559 . S
C1263 C121 1.563 . S
C1277 C149 1.563 . S
C1283 C289 1.559 . S
C1297 C261 1.564 . S
C1303 C177 1.559 . S
C1317 C233 1.566 . S
C1323 C205 1.557 . S
C1337 C247 1.569 . S
C1343 C443 1.554 . S
C1357 C275 1.569 . S
C1363 C415 1.554 . S
C1377 C303 1.556 . S
C1383 C387 1.567 . S
C1397 C359 1.561 . S
C1403 C331 1.562 . S
C1417 C7 1.550 . S
C1423 C91 1.542 . S
C1437 C21 1.554 . S
C1443 C105 1.552 . S
C1457 C63 1.541 1_556 S
C1463 C35 1.549 . S
C1477 C49 1.554 . S
C1483 C77 1.551 . S
C1497 C119 1.546 1_556 S
C1503 C203 1.552 . S
C1517 C133 1.553 . S
C1523 C217 1.547 . S
C1537 C175 1.543 . S
C1543 C147 1.550 . S
C1557 C161 1.535 . S
C1563 C189 1.541 . S
C1577 C315 1.542 1_556 S
C1583 C231 1.550 . S
C1597 C329 1.549 . S
C1603 C245 1.541 . S
C1617 C287 1.537 . S
C1623 C259 1.545 . S
C1637 C301 1.535 . S
C1643 C273 1.533 . S
C1657 C427 1.537 . S
C1663 C343 1.545 . S
C1677 C441 1.554 . S
C1683 C357 1.552 . S
C1697 C371 1.544 1_556 S
C1703 C399 1.551 . S
C1717 C413 1.545 . S
C1723 C385 1.552 . S
