# Generated by pormake.
# Topology wkj, (6)-cn, num edge types: 1
# Building blocks:
#     Node 0, Type 0, BuildingBlock: CUWYAW_clean_sbu_0, # of connection points: 6
#     Node 1, Type 0, BuildingBlock: CUWYAW_clean_sbu_0, # of connection points: 6
#     Node 2, Type 0, BuildingBlock: CUWYAW_clean_sbu_0, # of connection points: 6
#     Node 3, Type 0, BuildingBlock: CUWYAW_clean_sbu_0, # of connection points: 6
#     Node 4, Type 0, BuildingBlock: CUWYAW_clean_sbu_0, # of connection points: 6
#     Node 5, Type 0, BuildingBlock: CUWYAW_clean_sbu_0, # of connection points: 6
#     Node 6, Type 0, BuildingBlock: CUWYAW_clean_sbu_0, # of connection points: 6
#     Node 7, Type 0, BuildingBlock: CUWYAW_clean_sbu_0, # of connection points: 6
#     Node 8, Type 0, BuildingBlock: CUWYAW_clean_sbu_0, # of connection points: 6
#     Node 9, Type 0, BuildingBlock: CUWYAW_clean_sbu_0, # of connection points: 6
#     Node 10, Type 0, BuildingBlock: CUWYAW_clean_sbu_0, # of connection points: 6
#     Node 11, Type 0, BuildingBlock: CUWYAW_clean_sbu_0, # of connection points: 6
#     Edge 12, Type (0, 0), BuildingBlock: UVAHIK_clean_linker_0, # of connection points: 2
#     Edge 13, Type (0, 0), BuildingBlock: UVAHIK_clean_linker_0, # of connection points: 2
#     Edge 14, Type (0, 0), BuildingBlock: UVAHIK_clean_linker_0, # of connection points: 2
#     Edge 15, Type (0, 0), BuildingBlock: UVAHIK_clean_linker_0, # of connection points: 2
#     Edge 16, Type (0, 0), BuildingBlock: UVAHIK_clean_linker_0, # of connection points: 2
#     Edge 17, Type (0, 0), BuildingBlock: UVAHIK_clean_linker_0, # of connection points: 2
#     Edge 18, Type (0, 0), BuildingBlock: UVAHIK_clean_linker_0, # of connection points: 2
#     Edge 19, Type (0, 0), BuildingBlock: UVAHIK_clean_linker_0, # of connection points: 2
#     Edge 20, Type (0, 0), BuildingBlock: UVAHIK_clean_linker_0, # of connection points: 2
#     Edge 21, Type (0, 0), BuildingBlock: UVAHIK_clean_linker_0, # of connection points: 2
#     Edge 22, Type (0, 0), BuildingBlock: UVAHIK_clean_linker_0, # of connection points: 2
#     Edge 23, Type (0, 0), BuildingBlock: UVAHIK_clean_linker_0, # of connection points: 2
#     Edge 24, Type (0, 0), BuildingBlock: UVAHIK_clean_linker_0, # of connection points: 2
#     Edge 25, Type (0, 0), BuildingBlock: UVAHIK_clean_linker_0, # of connection points: 2
#     Edge 26, Type (0, 0), BuildingBlock: UVAHIK_clean_linker_0, # of connection points: 2
#     Edge 27, Type (0, 0), BuildingBlock: UVAHIK_clean_linker_0, # of connection points: 2
#     Edge 28, Type (0, 0), BuildingBlock: UVAHIK_clean_linker_0, # of connection points: 2
#     Edge 29, Type (0, 0), BuildingBlock: UVAHIK_clean_linker_0, # of connection points: 2
#     Edge 30, Type (0, 0), BuildingBlock: UVAHIK_clean_linker_0, # of connection points: 2
#     Edge 31, Type (0, 0), BuildingBlock: UVAHIK_clean_linker_0, # of connection points: 2
#     Edge 32, Type (0, 0), BuildingBlock: UVAHIK_clean_linker_0, # of connection points: 2
#     Edge 33, Type (0, 0), BuildingBlock: UVAHIK_clean_linker_0, # of connection points: 2
#     Edge 34, Type (0, 0), BuildingBlock: UVAHIK_clean_linker_0, # of connection points: 2
#     Edge 35, Type (0, 0), BuildingBlock: UVAHIK_clean_linker_0, # of connection points: 2
#     Edge 36, Type (0, 0), BuildingBlock: UVAHIK_clean_linker_0, # of connection points: 2
#     Edge 37, Type (0, 0), BuildingBlock: UVAHIK_clean_linker_0, # of connection points: 2
#     Edge 38, Type (0, 0), BuildingBlock: UVAHIK_clean_linker_0, # of connection points: 2
#     Edge 39, Type (0, 0), BuildingBlock: UVAHIK_clean_linker_0, # of connection points: 2
#     Edge 40, Type (0, 0), BuildingBlock: UVAHIK_clean_linker_0, # of connection points: 2
#     Edge 41, Type (0, 0), BuildingBlock: UVAHIK_clean_linker_0, # of connection points: 2
#     Edge 42, Type (0, 0), BuildingBlock: UVAHIK_clean_linker_0, # of connection points: 2
#     Edge 43, Type (0, 0), BuildingBlock: UVAHIK_clean_linker_0, # of connection points: 2
#     Edge 44, Type (0, 0), BuildingBlock: UVAHIK_clean_linker_0, # of connection points: 2
#     Edge 45, Type (0, 0), BuildingBlock: UVAHIK_clean_linker_0, # of connection points: 2
#     Edge 46, Type (0, 0), BuildingBlock: UVAHIK_clean_linker_0, # of connection points: 2
#     Edge 47, Type (0, 0), BuildingBlock: UVAHIK_clean_linker_0, # of connection points: 2
# Relax obj value: 0.607
# Max RMSD: 0.182
# Mean RMSD: 0.182
data_MOF--net-wkj--node1-CUWYAW_clean_sbu_0--edge1-UVAHIK_clean_linker_0
_symmetry_space_group_name_H-M    P1
_symmetry_Int_Tables_number       1
_symmetry_cell_setting            triclinic
loop_
_symmetry_equiv_pos_as_xyz
'x, y, z'
_cell_length_a     61.558483
_cell_length_b     61.656901
_cell_length_c     38.404146
_cell_angle_alpha  90.115318
_cell_angle_beta   89.707577
_cell_angle_gamma 120.12173
loop_
_atom_site_label
_atom_site_type_symbol
_atom_site_fract_x
_atom_site_fract_y
_atom_site_fract_z
_atom_type_partial_charge
C0 C 0.57065 0.1308 0.31117 0.0
Eu1 Eu 0.52267 0.10371 0.32238 0.0
C2 C 0.58464 0.15028 0.28489 0.0
C3 C 0.57587 0.14693 0.25057 0.0
C4 C 0.58519 0.16725 0.22784 0.0
C5 C 0.60318 0.19143 0.23906 0.0
C6 C 0.61307 0.19451 0.27277 0.0
C7 C 0.60381 0.17405 0.29554 0.0
C8 C 0.49093 0.0557 0.34422 0.0
C9 C 0.48335 0.07738 0.26095 0.0
C10 C 0.42559 0.07673 0.35122 0.0
Eu11 Eu 0.47354 0.09397 0.34151 0.0
C12 C 0.40719 0.06724 0.37956 0.0
C13 C 0.38161 0.05634 0.37184 0.0
C14 C 0.36373 0.04686 0.39853 0.0
C15 C 0.37127 0.04829 0.43333 0.0
C16 C 0.39702 0.05945 0.44092 0.0
C17 C 0.41487 0.06881 0.41419 0.0
C18 C 0.50383 0.14322 0.32418 0.0
C19 C 0.5125 0.10452 0.40784 0.0
O20 O 0.55848 0.1369 0.33343 0.0
O21 O 0.55722 0.10758 0.30022 0.0
O22 O 0.50891 0.06118 0.32178 0.0
O23 O 0.49352 0.07559 0.35612 0.0
O24 O 0.5076 0.09093 0.26769 0.0
O25 O 0.467 0.07524 0.28574 0.0
O26 O 0.435 0.0627 0.34222 0.0
O27 O 0.44256 0.10046 0.35265 0.0
O28 O 0.49001 0.13495 0.35186 0.0
O29 O 0.50254 0.12471 0.30727 0.0
O30 O 0.48845 0.09578 0.39881 0.0
O31 O 0.52917 0.11022 0.38222 0.0
H32 H 0.5609 0.1289 0.24174 0.0
H33 H 0.5777 0.16413 0.20169 0.0
H34 H 0.62698 0.21289 0.28208 0.0
H35 H 0.61056 0.17708 0.32211 0.0
H36 H 0.37547 0.05505 0.34514 0.0
H37 H 0.34403 0.03845 0.39199 0.0
H38 H 0.40335 0.06041 0.46744 0.0
H39 H 0.4346 0.07707 0.42048 0.0
C40 C 0.44843 0.56927 0.64629 0.0
Eu41 Eu 0.4266 0.52129 0.65726 0.0
C42 C 0.44348 0.58346 0.61988 0.0
C43 C 0.43858 0.57494 0.58536 0.0
C44 C 0.42789 0.58435 0.56241 0.0
C45 C 0.4215 0.6022 0.57359 0.0
C46 C 0.42788 0.61191 0.60747 0.0
C47 C 0.43878 0.60256 0.63047 0.0
C48 C 0.44255 0.48929 0.67843 0.0
C49 C 0.41361 0.48232 0.59518 0.0
C50 C 0.35613 0.42446 0.68481 0.0
Eu51 Eu 0.38708 0.47234 0.67562 0.0
C52 C 0.34767 0.40477 0.71167 0.0
C53 C 0.3321 0.40361 0.73936 0.0
C54 C 0.32399 0.38458 0.7642 0.0
C55 C 0.3313 0.36639 0.76184 0.0
C56 C 0.34646 0.36729 0.73379 0.0
C57 C 0.35446 0.38624 0.70885 0.0
C58 C 0.36813 0.50254 0.65824 0.0
C59 C 0.41491 0.51099 0.74235 0.0
O60 O 0.42987 0.55733 0.66827 0.0
O61 O 0.45795 0.55555 0.63557 0.0
O62 O 0.45514 0.5072 0.65607 0.0
O63 O 0.42543 0.49206 0.69077 0.0
O64 O 0.42416 0.5065 0.60219 0.0
O65 O 0.39945 0.46591 0.61986 0.0
O66 O 0.37906 0.43367 0.6731 0.0
O67 O 0.3498 0.44161 0.68867 0.0
O68 O 0.36242 0.4887 0.68578 0.0
O69 O 0.38552 0.50136 0.64149 0.0
O70 O 0.40063 0.48687 0.73294 0.0
O71 O 0.42523 0.52788 0.71697 0.0
H72 H 0.44176 0.56005 0.57654 0.0
H73 H 0.42384 0.57701 0.53613 0.0
H74 H 0.42326 0.62571 0.61676 0.0
H75 H 0.44212 0.60914 0.65716 0.0
H76 H 0.32632 0.41747 0.74207 0.0
H77 H 0.3126 0.38453 0.78583 0.0
H78 H 0.35222 0.35339 0.73123 0.0
H79 H 0.36608 0.38646 0.68741 0.0
C80 C 0.88778 0.44541 0.97648 0.0
Eu81 Eu 0.91291 0.42252 0.98696 0.0
C82 C 0.86878 0.44155 0.95036 0.0
C83 C 0.87212 0.43715 0.91545 0.0
C84 C 0.85201 0.42788 0.89242 0.0
C85 C 0.82804 0.42241 0.90394 0.0
C86 C 0.82508 0.42828 0.93835 0.0
C87 C 0.84534 0.43777 0.9614 0.0
C88 C 0.96039 0.437 1.00923 0.0
C89 C 0.93853 0.40862 0.92547 0.0
C90 C 0.93538 0.34918 1.01506 0.0
Eu91 Eu 0.9205 0.38163 1.00552 0.0
C92 C 0.9399 0.33659 1.04403 0.0
C93 C 0.95589 0.32681 1.03908 0.0
C94 C 0.96116 0.31556 1.06676 0.0
C95 C 0.95038 0.31384 0.0997 0.0
C96 C 0.93392 0.32322 0.10432 0.0
C97 C 0.9288 0.33462 1.0767 0.0
C98 C 0.87171 0.3648 0.98826 0.0
C99 C 0.91033 0.41028 1.07216 0.0
O100 O 0.88051 0.42654 0.99793 0.0
O101 O 0.91099 0.45435 0.96563 0.0
O102 O 0.95581 0.45012 0.98697 0.0
O103 O 0.94 0.42002 1.02066 0.0
O104 O 0.92523 0.41955 0.93221 0.0
O105 O 0.94032 0.39431 0.95025 0.0
O106 O 0.95074 0.37329 1.01239 0.0
O107 O 0.91206 0.34298 1.00974 0.0
O108 O 0.87914 0.35875 1.01619 0.0
O109 O 0.8908 0.38146 0.97144 0.0
O110 O 0.91789 0.39403 1.06306 0.0
O111 O 0.90593 0.42218 1.0467 0.0
H112 H 0.88992 0.43967 0.90627 0.0
H113 H 0.85506 0.42421 0.86578 0.0
H114 H 0.80687 0.42431 0.94795 0.0
H115 H 0.84232 0.44078 0.98838 0.0
H116 H 0.96456 0.3282 1.01394 0.0
H117 H 0.97388 0.30846 1.06253 0.0
H118 H 0.92572 0.32255 0.1296 0.0
H119 H 0.91652 0.34225 1.08096 0.0
C120 C 0.44691 0.88422 0.31043 0.0
Eu121 Eu 0.49482 0.90991 0.32205 0.0
C122 C 0.43299 0.8653 0.28338 0.0
C123 C 0.43853 0.87127 0.248 0.0
C124 C 0.43078 0.85225 0.22329 0.0
C125 C 0.41764 0.8269 0.23346 0.0
C126 C 0.4102 0.82095 0.26838 0.0
C127 C 0.41777 0.84003 0.29314 0.0
C128 C 0.52769 0.9574 0.34459 0.0
C129 C 0.53442 0.9354 0.26047 0.0
C130 C 0.59061 0.93252 0.35007 0.0
Eu131 Eu 0.54314 0.91755 0.3406 0.0
C132 C 0.60843 0.94011 0.3788 0.0
C133 C 0.63275 0.9445 0.37256 0.0
C134 C 0.65003 0.95193 0.39974 0.0
C135 C 0.64313 0.95501 0.43354 0.0
C136 C 0.61858 0.9504 0.43959 0.0
C137 C 0.60135 0.94295 0.41243 0.0
C138 C 0.51134 0.86886 0.32237 0.0
C139 C 0.50415 0.90772 0.40727 0.0
O140 O 0.45837 0.87736 0.33264 0.0
O141 O 0.46095 0.90762 0.30039 0.0
O142 O 0.50999 0.95267 0.32224 0.0
O143 O 0.52436 0.93712 0.35602 0.0
O144 O 0.51014 0.92243 0.26738 0.0
O145 O 0.55051 0.93696 0.2851 0.0
O146 O 0.58217 0.94763 0.34272 0.0
O147 O 0.57295 0.90903 0.34984 0.0
O148 O 0.52469 0.87617 0.35039 0.0
O149 O 0.51386 0.88799 0.3059 0.0
O150 O 0.52809 0.91564 0.39811 0.0
O151 O 0.48777 0.90288 0.38175 0.0
H152 H 0.45015 0.89052 0.23955 0.0
H153 H 0.43612 0.85742 0.19634 0.0
H154 H 0.39997 0.8016 0.27695 0.0
H155 H 0.41329 0.83497 0.32031 0.0
H156 H 0.63838 0.94225 0.34664 0.0
H157 H 0.66872 0.95519 0.39435 0.0
H158 H 0.61282 0.95307 0.46517 0.0
H159 H 0.58259 0.93961 0.41759 0.0
C160 C 0.57027 0.44503 0.64381 0.0
Eu161 Eu 0.5916 0.49296 0.6547 0.0
C162 C 0.57564 0.43091 0.6176 0.0
C163 C 0.58102 0.4395 0.58312 0.0
C164 C 0.59185 0.42997 0.56034 0.0
C165 C 0.59791 0.41196 0.57167 0.0
C166 C 0.59115 0.40229 0.60557 0.0
C167 C 0.58011 0.41174 0.62839 0.0
C168 C 0.57581 0.52486 0.67778 0.0
C169 C 0.60463 0.53226 0.59308 0.0
C170 C 0.66282 0.58975 0.68245 0.0
Eu171 Eu 0.63155 0.54198 0.67309 0.0
C172 C 0.67348 0.60762 0.71112 0.0
C173 C 0.68985 0.63301 0.70378 0.0
C174 C 0.69975 0.65044 0.73082 0.0
C175 C 0.69343 0.64263 0.76558 0.0
C176 C 0.67723 0.61702 0.77277 0.0
C177 C 0.6673 0.59964 0.74571 0.0
C178 C 0.64995 0.5113 0.6559 0.0
C179 C 0.60326 0.50292 0.73994 0.0
O180 O 0.58857 0.45708 0.66591 0.0
O181 O 0.56069 0.45859 0.63285 0.0
O182 O 0.56297 0.50692 0.6556 0.0
O183 O 0.59325 0.52214 0.68867 0.0
O184 O 0.59372 0.50804 0.60003 0.0
O185 O 0.61908 0.54856 0.61761 0.0
O186 O 0.63883 0.58033 0.67696 0.0
O187 O 0.66969 0.57292 0.68053 0.0
O188 O 0.65561 0.5251 0.68352 0.0
O189 O 0.63283 0.51276 0.63905 0.0
O190 O 0.61899 0.52689 0.7307 0.0
O191 O 0.59177 0.48639 0.71447 0.0
H192 H 0.57805 0.45446 0.57417 0.0
H193 H 0.59618 0.43731 0.53404 0.0
H194 H 0.59552 0.38838 0.615 0.0
H195 H 0.5764 0.40513 0.65507 0.0
H196 H 0.69481 0.63937 0.67711 0.0
H197 H 0.71226 0.67001 0.72456 0.0
H198 H 0.67167 0.61051 0.79926 0.0
H199 H 0.65458 0.58005 0.75169 0.0
C200 C 0.13148 0.5669 0.97525 0.0
Eu201 Eu 0.1043 0.58754 0.98654 0.0
C202 C 0.15121 0.57273 0.94914 0.0
C203 C 0.14827 0.57875 0.91497 0.0
C204 C 0.16883 0.58994 0.89248 0.0
C205 C 0.19286 0.59574 0.90381 0.0
C206 C 0.19553 0.58841 0.93739 0.0
C207 C 0.17482 0.57701 0.95992 0.0
C208 C 0.05626 0.57098 1.009 0.0
C209 C 0.07783 0.60051 0.92536 0.0
C210 C 0.07808 0.65802 1.01638 0.0
Eu211 Eu 0.09456 0.62691 1.00568 0.0
C212 C 0.07216 0.66902 1.04614 0.0
C213 C 0.07034 0.69057 1.04142 0.0
C214 C 0.06477 0.70131 1.06964 0.0
C215 C 0.06096 0.69059 0.10299 0.0
C216 C 0.06297 0.669 0.10749 0.0
C217 C 0.06864 0.65837 1.07933 0.0
C218 C 0.14389 0.64584 0.98865 0.0
C219 C 0.10552 0.59875 1.07195 0.0
O220 O 0.13743 0.58496 0.99771 0.0
O221 O 0.10832 0.55713 0.96409 0.0
O222 O 0.06174 0.55851 0.9866 0.0
O223 O 0.07624 0.58848 1.02046 0.0
O224 O 0.09155 0.59003 0.93196 0.0
O225 O 0.07549 0.61448 0.95024 0.0
O226 O 0.06341 0.63394 1.0117 0.0
O227 O 0.10175 0.66508 1.01222 0.0
O228 O 0.13556 0.65105 1.01658 0.0
O229 O 0.12539 0.62876 0.97157 0.0
O230 O 0.09711 0.61431 1.06302 0.0
O231 O 0.1108 0.58752 1.04631 0.0
H232 H 0.13037 0.57596 0.90607 0.0
H233 H 0.166 0.59472 0.86641 0.0
H234 H 0.21377 0.59257 0.9468 0.0
H235 H 0.17753 0.57283 0.9864 0.0
H236 H 0.07322 0.69908 1.0159 0.0
H237 H 0.06355 0.71803 1.0654 0.0
H238 H 0.05967 0.65997 0.13267 0.0
H239 H 0.07009 0.64176 1.08339 0.0
C240 C 0.88353 0.44342 0.53497 0.0
Eu241 Eu 0.91126 0.49118 0.52351 0.0
C242 C 0.86379 0.42998 0.56124 0.0
C243 C 0.86715 0.43911 0.59541 0.0
C244 C 0.84672 0.43042 0.61803 0.0
C245 C 0.82241 0.4127 0.60685 0.0
C246 C 0.81929 0.40245 0.57331 0.0
C247 C 0.83986 0.41109 0.55063 0.0
C248 C 0.95938 0.52228 0.50089 0.0
C249 C 0.93816 0.53079 0.58465 0.0
C250 C 0.93843 0.58816 0.49358 0.0
Eu251 Eu 0.92157 0.54052 0.50443 0.0
C252 C 0.94357 0.60476 0.46371 0.0
C253 C 0.94487 0.62792 0.46844 0.0
C254 C 0.94974 0.64394 0.44012 0.0
C255 C 0.95336 0.63697 0.40666 0.0
C256 C 0.95184 0.61356 0.40214 0.0
C257 C 0.94686 0.59755 0.4304 0.0
C258 C 0.87214 0.51032 0.5211 0.0
C259 C 0.91019 0.5011 0.43812 0.0
O260 O 0.87784 0.45559 0.51237 0.0
O261 O 0.90676 0.45662 0.54601 0.0
O262 O 0.95372 0.50432 0.52326 0.0
O263 O 0.93947 0.52001 0.48962 0.0
O264 O 0.92419 0.50657 0.57806 0.0
O265 O 0.94071 0.54712 0.55977 0.0
O266 O 0.95292 0.57846 0.49699 0.0
O267 O 0.91484 0.57186 0.49925 0.0
O268 O 0.88063 0.5239 0.49326 0.0
O269 O 0.89051 0.51164 0.5383 0.0
O270 O 0.91868 0.52511 0.44709 0.0
O271 O 0.90484 0.48459 0.46372 0.0
H272 H 0.8853 0.45389 0.6042 0.0
H273 H 0.84986 0.43817 0.64408 0.0
H274 H 0.80082 0.38873 0.56403 0.0
H275 H 0.83683 0.40408 0.52417 0.0
H276 H 0.94216 0.63361 0.49405 0.0
H277 H 0.95059 0.66172 0.44439 0.0
H278 H 0.95501 0.60779 0.37688 0.0
H279 H 0.9458 0.57964 0.42631 0.0
C280 C 0.44726 0.88311 0.86824 0.0
Eu281 Eu 0.42539 0.90945 0.85911 0.0
C282 C 0.43853 0.85918 0.88656 0.0
C283 C 0.45535 0.85465 0.90523 0.0
C284 C 0.44643 0.83266 0.92486 0.0
C285 C 0.42056 0.81497 0.92609 0.0
C286 C 0.404 0.81908 0.90596 0.0
C287 C 0.41286 0.84099 0.88654 0.0
C288 C 0.44147 0.95756 0.83813 0.0
C289 C 0.41254 0.93604 0.92081 0.0
C290 C 0.35353 0.93444 0.83217 0.0
Eu291 Eu 0.3854 0.9187 0.84109 0.0
C292 C 0.33981 0.93767 0.80358 0.0
C293 C 0.32946 0.95316 0.80827 0.0
C294 C 0.3175 0.95757 0.78067 0.0
C295 C 0.31568 0.94643 0.74805 0.0
C296 C 0.32549 0.93032 0.7438 0.0
C297 C 0.33757 0.92604 0.77136 0.0
C298 C 0.36714 0.86917 0.85544 0.0
C299 C 0.41354 0.90831 0.77404 0.0
O300 O 0.43438 0.88162 0.84058 0.0
O301 O 0.45214 0.90253 0.88755 0.0
O302 O 0.45437 0.95204 0.85948 0.0
O303 O 0.42405 0.93764 0.82653 0.0
O304 O 0.42325 0.92257 0.9138 0.0
O305 O 0.3982 0.93803 0.89634 0.0
O306 O 0.37786 0.9492 0.83177 0.0
O307 O 0.34694 0.91139 0.8402 0.0
O308 O 0.36184 0.87793 0.82818 0.0
O309 O 0.38397 0.88738 0.87325 0.0
O310 O 0.39783 0.9165 0.7834 0.0
O311 O 0.42481 0.9029 0.79929 0.0
H312 H 0.4752 0.86845 0.90552 0.0
H313 H 0.4596 0.83015 0.94052 0.0
H314 H 0.38401 0.80575 0.90623 0.0
H315 H 0.39949 0.84399 0.87222 0.0
H316 H 0.33104 0.96222 0.83309 0.0
H317 H 0.31005 0.97001 0.78464 0.0
H318 H 0.32476 0.92184 0.71877 0.0
H319 H 0.34561 0.91411 0.76734 0.0
C320 C 0.57152 0.4449 0.20259 0.0
Eu321 Eu 0.52351 0.42406 0.19234 0.0
C322 C 0.58569 0.43961 0.22858 0.0
C323 C 0.57693 0.43397 0.263 0.0
C324 C 0.5867 0.4234 0.2856 0.0
C325 C 0.60513 0.41787 0.27413 0.0
C326 C 0.6149 0.42482 0.24026 0.0
C327 C 0.60519 0.43558 0.21762 0.0
C328 C 0.49179 0.4402 0.17051 0.0
C329 C 0.48424 0.41145 0.25426 0.0
C330 C 0.426 0.35382 0.16539 0.0
Eu331 Eu 0.474 0.38444 0.1741 0.0
C332 C 0.40732 0.34239 0.13759 0.0
C333 C 0.41187 0.33186 0.10797 0.0
C334 C 0.39383 0.32135 1.0818 0.0
C335 C 0.37111 0.32145 1.08472 0.0
C336 C 0.3665 0.33171 0.11461 0.0
C337 C 0.38444 0.34201 0.14089 0.0
C338 C 0.50436 0.36559 0.1904 0.0
C339 C 0.51303 0.41252 0.10702 0.0
O340 O 0.55918 0.42647 0.18074 0.0
O341 O 0.55819 0.45477 0.21377 0.0
O342 O 0.50991 0.45297 0.19245 0.0
O343 O 0.49432 0.42275 0.1591 0.0
O344 O 0.50848 0.42201 0.24721 0.0
O345 O 0.46781 0.39721 0.22974 0.0
O346 O 0.43582 0.37794 0.1699 0.0
O347 O 0.44248 0.34652 0.1683 0.0
O348 O 0.49044 0.36004 0.16297 0.0
O349 O 0.5032 0.38284 0.20752 0.0
O350 O 0.48902 0.39686 0.11641 0.0
O351 O 0.52969 0.42392 0.13236 0.0
H352 H 0.5617 0.43658 0.27205 0.0
H353 H 0.57926 0.41891 0.31187 0.0
H354 H 0.62913 0.42083 0.23074 0.0
H355 H 0.61193 0.43947 0.19097 0.0
H356 H 0.42946 0.33204 0.10479 0.0
H357 H 0.39802 0.31395 1.05874 0.0
H358 H 0.34912 0.33199 0.11746 0.0
H359 H 0.38058 0.34995 0.16367 0.0
C360 C 0.13134 0.567 0.53394 0.0
Eu361 Eu 0.1056 0.519 0.52311 0.0
C362 C 0.1505 0.58161 0.56021 0.0
C363 C 0.14702 0.57336 0.59487 0.0
C364 C 0.16719 0.58346 0.61783 0.0
C365 C 0.19134 0.60171 0.60653 0.0
C366 C 0.19448 0.61106 0.57243 0.0
C367 C 0.17417 0.60104 0.54943 0.0
C368 C 0.05776 0.48604 0.50205 0.0
C369 C 0.08028 0.4797 0.5849 0.0
C370 C 0.08142 0.42283 0.49489 0.0
Eu371 Eu 0.0973 0.47045 0.50427 0.0
C372 C 0.07208 0.4045 0.46663 0.0
C373 C 0.06173 0.37899 0.47438 0.0
C374 C 0.05246 0.3612 0.44774 0.0
C375 C 0.05357 0.36875 0.41297 0.0
C376 C 0.06416 0.39443 0.40537 0.0
C377 C 0.07329 0.41218 0.43204 0.0
C378 C 0.14639 0.50172 0.52142 0.0
C379 C 0.10678 0.50905 0.43774 0.0
O380 O 0.13821 0.55529 0.51204 0.0
O381 O 0.10809 0.55297 0.54478 0.0
O382 O 0.0627 0.50385 0.52438 0.0
O383 O 0.07791 0.48941 0.48976 0.0
O384 O 0.09342 0.50393 0.57798 0.0
O385 O 0.07844 0.46351 0.56017 0.0
O386 O 0.06687 0.43153 0.5045 0.0
O387 O 0.10496 0.44033 0.49278 0.0
O388 O 0.13848 0.48801 0.49373 0.0
O389 O 0.12757 0.49987 0.53833 0.0
O390 O 0.09854 0.48512 0.44691 0.0
O391 O 0.11214 0.52561 0.46327 0.0
H392 H 0.12906 0.55824 0.60384 0.0
H393 H 0.16401 0.57636 0.64426 0.0
H394 H 0.21283 0.62513 0.56302 0.0
H395 H 0.17729 0.60742 0.52264 0.0
H396 H 0.06072 0.37285 0.50106 0.0
H397 H 0.04448 0.34156 0.45428 0.0
H398 H 0.06483 0.40075 0.37887 0.0
H399 H 0.08112 0.43185 0.42574 0.0
C400 C 0.56871 0.1274 0.8704 0.0
Eu401 Eu 0.59095 0.10173 0.85881 0.0
C402 C 0.57339 0.14669 0.89658 0.0
C403 C 0.57858 0.14361 0.93114 0.0
C404 C 0.58868 0.16394 0.9539 0.0
C405 C 0.59422 0.18786 0.94246 0.0
C406 C 0.58761 0.19059 0.90847 0.0
C407 C 0.57728 0.17012 0.88569 0.0
C408 C 0.57582 0.05423 0.83589 0.0
C409 C 0.60499 0.07593 0.91961 0.0
C410 C 0.66386 0.07909 0.82696 0.0
Eu411 Eu 0.6315 0.09381 0.83919 0.0
C412 C 0.67457 0.07393 0.79607 0.0
C413 C 0.69772 0.07483 0.79832 0.0
C414 C 0.70832 0.07042 0.7688 0.0
C415 C 0.69586 0.06503 0.73663 0.0
C416 C 0.6726 0.06418 0.73466 0.0
C417 C 0.66215 0.06876 0.76406 0.0
C418 C 0.64872 0.14257 0.85721 0.0
C419 C 0.60256 0.10408 0.77335 0.0
O420 O 0.58718 0.13422 0.84819 0.0
O421 O 0.55963 0.10427 0.88138 0.0
O422 O 0.56293 0.05901 0.85854 0.0
O423 O 0.59298 0.07452 0.82449 0.0
O424 O 0.59394 0.08913 0.91321 0.0
O425 O 0.61933 0.0742 0.89458 0.0
O426 O 0.64 0.06372 0.83285 0.0
O427 O 0.67015 0.10248 0.83146 0.0
O428 O 0.65454 0.13516 0.82895 0.0
O429 O 0.63209 0.12351 0.874 0.0
O430 O 0.61862 0.09627 0.78206 0.0
O431 O 0.59091 0.10872 0.79914 0.0
H432 H 0.57601 0.12583 0.94017 0.0
H433 H 0.5929 0.16106 0.98026 0.0
H434 H 0.5916 0.20875 0.89895 0.0
H435 H 0.5737 0.17294 0.85896 0.0
H436 H 0.70763 0.07905 0.82287 0.0
H437 H 0.72634 0.07144 0.77111 0.0
H438 H 0.66223 0.05959 0.7105 0.0
H439 H 0.64435 0.06821 0.7618 0.0
C440 C 0.44757 0.56767 0.20193 0.0
Eu441 Eu 0.4957 0.58996 0.19098 0.0
C442 C 0.43291 0.57204 0.22851 0.0
C443 C 0.44111 0.57667 0.26314 0.0
C444 C 0.43106 0.58668 0.28643 0.0
C445 C 0.41291 0.59267 0.27548 0.0
C446 C 0.40355 0.58655 0.24142 0.0
C447 C 0.41353 0.57632 0.21808 0.0
C448 C 0.52801 0.57463 0.16814 0.0
C449 C 0.53486 0.60296 0.25266 0.0
C450 C 0.59259 0.66197 0.1635 0.0
Eu451 Eu 0.54484 0.6302 0.17285 0.0
C452 C 0.61046 0.67397 0.13485 0.0
C453 C 0.63592 0.68224 0.14026 0.0
C454 C 0.65319 0.69313 0.11304 0.0
C455 C 0.64518 0.69603 1.08007 0.0
C456 C 0.61966 0.68811 1.07494 0.0
C457 C 0.60239 0.67704 0.1021 0.0
C458 C 0.51352 0.64783 0.19042 0.0
C459 C 0.50614 0.60282 0.10601 0.0
O460 O 0.45948 0.58644 0.18038 0.0
O461 O 0.46148 0.55834 0.21235 0.0
O462 O 0.51005 0.56171 0.1904 0.0
O463 O 0.52521 0.59194 0.15695 0.0
O464 O 0.51063 0.59237 0.24581 0.0
O465 O 0.5513 0.61722 0.22799 0.0
O466 O 0.58337 0.63787 0.16716 0.0
O467 O 0.57564 0.66857 0.16757 0.0
O468 O 0.52734 0.65388 0.16261 0.0
O469 O 0.51535 0.63088 0.20706 0.0
O470 O 0.5302 0.61783 0.11531 0.0
O471 O 0.4893 0.59159 0.13136 0.0
H472 H 0.45619 0.57379 0.27184 0.0
H473 H 0.43817 0.59055 0.31281 0.0
H474 H 0.38955 0.59088 0.2323 0.0
H475 H 0.40718 0.57316 0.19132 0.0
H476 H 0.6424 0.68 0.16546 0.0
H477 H 0.67274 0.69909 0.11765 0.0
H478 H 0.61292 0.68969 1.0496 0.0
H479 H 0.58272 0.67059 0.09744 0.0
C480 C 0.52167 0.17793 0.27718 0.0
C481 C 0.50996 0.16848 0.30965 0.0
C482 C 0.52545 0.20121 0.26442 0.0
C483 C 0.52065 0.25861 0.29265 0.0
H484 H 0.52128 0.26928 0.19349 0.0
C485 C 0.52211 0.34859 0.23702 0.0
C486 C 0.51047 0.34642 0.20468 0.0
C487 C 0.52578 0.32901 0.24966 0.0
C488 C 0.5207 0.26669 0.22139 0.0
H489 H 0.49337 0.17687 0.35394 0.0
H490 H 0.49862 0.21558 0.33168 0.0
H491 H 0.51987 0.23172 0.21494 0.0
H492 H 0.49392 0.32154 0.16047 0.0
H493 H 0.499 0.28795 0.18254 0.0
H494 H 0.51999 0.29283 0.29911 0.0
C495 C 0.50588 0.20601 0.31605 0.0
C496 C 0.5204 0.245 0.23385 0.0
C497 C 0.50254 0.18323 0.32887 0.0
C498 C 0.50304 0.32428 0.18545 0.0
C499 C 0.50627 0.30476 0.19815 0.0
C500 C 0.52047 0.28006 0.28019 0.0
C501 C 0.51737 0.21569 0.28353 0.0
C502 C 0.51989 0.24015 0.26982 0.0
C503 C 0.51767 0.30647 0.23057 0.0
C504 C 0.52003 0.28444 0.24422 0.0
H505 H 0.52781 0.16732 0.26157 0.0
H506 H 0.53477 0.20778 0.23952 0.0
H507 H 0.52119 0.25658 0.32054 0.0
H508 H 0.52825 0.3653 0.25264 0.0
H509 H 0.53504 0.33169 0.27447 0.0
C510 C 0.32641 0.50057 0.66219 0.0
C511 C 0.34896 0.50848 0.6435 0.0
C512 C 0.30698 0.5038 0.64915 0.0
C513 C 0.28344 0.51916 0.56701 0.0
H514 H 0.23381 0.51704 0.63157 0.0
C515 C 0.18697 0.5014 0.51675 0.0
C516 C 0.17168 0.50809 0.5361 0.0
C517 C 0.20971 0.50478 0.52982 0.0
C518 C 0.24745 0.51801 0.61284 0.0
H519 H 0.36863 0.52706 0.59615 0.0
H520 H 0.33513 0.53385 0.57376 0.0
H521 H 0.27122 0.51842 0.65354 0.0
H522 H 0.1695 0.52474 0.58466 0.0
H523 H 0.20989 0.53185 0.60716 0.0
H524 H 0.26048 0.5204 0.52635 0.0
C525 C 0.33209 0.52423 0.59838 0.0
C526 C 0.26906 0.51829 0.62561 0.0
C527 C 0.35159 0.52055 0.61134 0.0
C528 C 0.18055 0.51919 0.56894 0.0
C529 C 0.20379 0.52303 0.58196 0.0
C530 C 0.26207 0.51939 0.55425 0.0
C531 C 0.30917 0.51569 0.61696 0.0
C532 C 0.28726 0.51813 0.60301 0.0
C533 C 0.2188 0.51561 0.56275 0.0
C534 C 0.24315 0.51809 0.5768 0.0
H535 H 0.32331 0.4911 0.68699 0.0
H536 H 0.28986 0.49616 0.66434 0.0
H537 H 0.29658 0.51911 0.54826 0.0
H538 H 0.18106 0.49273 0.49139 0.0
H539 H 0.2197 0.49804 0.51407 0.0
C540 C 0.84133 0.34362 0.93738 0.0
C541 C 0.84637 0.3464 0.97335 0.0
C542 C 0.81854 0.32346 0.92449 0.0
C543 C 0.75337 0.27202 0.95268 0.0
H544 H 0.75619 0.23978 0.86761 0.0
C545 C 0.67085 0.17279 0.90807 0.0
C546 C 0.66725 0.16788 0.87207 0.0
C547 C 0.69128 0.19557 0.92058 0.0
C548 C 0.75473 0.24861 0.8912 0.0
H549 H 0.83058 0.33036 1.02376 0.0
H550 H 0.7916 0.29584 1.00176 0.0
H551 H 0.79345 0.27753 0.88751 0.0
H552 H 0.68183 0.18398 0.82129 0.0
H553 H 0.71641 0.22321 0.84262 0.0
H554 H 0.71464 0.24287 0.95647 0.0
C555 C 0.80487 0.30908 0.98316 0.0
C556 C 0.77636 0.27053 0.90269 0.0
C557 C 0.82751 0.32902 0.9959 0.0
C558 C 0.68397 0.18686 0.84919 0.0
C559 C 0.70417 0.20944 0.86154 0.0
C560 C 0.7317 0.25006 0.94117 0.0
C561 C 0.79999 0.30551 0.94716 0.0
C562 C 0.77624 0.28269 0.93378 0.0
C563 C 0.70873 0.21412 0.89747 0.0
C564 C 0.73191 0.23783 0.91018 0.0
H565 H 0.85532 0.35646 0.9191 0.0
H566 H 0.81559 0.32185 0.89662 0.0
H567 H 0.75203 0.28076 0.97644 0.0
H568 H 0.65856 0.15866 0.92659 0.0
H569 H 0.69389 0.19817 0.94843 0.0
C570 C 0.50314 0.66841 0.24115 0.0
C571 C 0.50643 0.66615 0.20526 0.0
C572 C 0.50024 0.68838 0.25408 0.0
C573 C 0.48747 0.74013 0.22576 0.0
H574 H 0.52052 0.77142 0.31213 0.0
C575 C 0.50367 0.83893 0.27122 0.0
C576 C 0.50437 0.84359 0.30726 0.0
C577 C 0.50135 0.81621 0.25859 0.0
C578 C 0.51078 0.76286 0.28817 0.0
H579 H 0.50821 0.6829 0.15501 0.0
H580 H 0.50329 0.7171 0.1771 0.0
H581 H 0.52034 0.7339 0.29208 0.0
H582 H 0.50173 0.82708 0.35794 0.0
H583 H 0.49706 0.78792 0.33639 0.0
H584 H 0.47813 0.76931 0.22175 0.0
C585 C 0.50274 0.7036 0.19559 0.0
C586 C 0.51068 0.74107 0.27658 0.0
C587 C 0.5057 0.68385 0.18281 0.0
C588 C 0.50147 0.8244 0.33002 0.0
C589 C 0.49909 0.80186 0.31754 0.0
C590 C 0.48757 0.76196 0.23737 0.0
C591 C 0.50038 0.70665 0.23153 0.0
C592 C 0.49915 0.72927 0.24502 0.0
C593 C 0.49966 0.79746 0.28161 0.0
C594 C 0.49928 0.77385 0.26882 0.0
H595 H 0.50366 0.65528 0.25935 0.0
H596 H 0.4981 0.6896 0.28189 0.0
H597 H 0.47799 0.73167 0.20161 0.0
H598 H 0.50603 0.85324 0.2528 0.0
H599 H 0.5019 0.81383 0.23073 0.0
C600 C 0.66688 0.49371 0.60857 0.0
C601 C 0.66896 0.50495 0.6413 0.0
C602 C 0.68639 0.48988 0.59567 0.0
C603 C 0.74807 0.49356 0.62373 0.0
H604 H 0.75928 0.49474 0.52453 0.0
C605 C 0.83691 0.49228 0.56752 0.0
C606 C 0.84683 0.50445 0.53548 0.0
C607 C 0.81357 0.48862 0.58021 0.0
C608 C 0.75694 0.4948 0.55245 0.0
H609 H 0.69353 0.52056 0.68594 0.0
H610 H 0.727 0.51521 0.66347 0.0
H611 H 0.723 0.49607 0.54621 0.0
H612 H 0.83931 0.52206 0.49193 0.0
H613 H 0.8005 0.51701 0.51415 0.0
H614 H 0.78277 0.49378 0.63003 0.0
C615 C 0.71032 0.50839 0.64772 0.0
C616 C 0.73547 0.49506 0.56503 0.0
C617 C 0.69089 0.51179 0.66066 0.0
C618 C 0.83254 0.5125 0.51664 0.0
C619 C 0.80971 0.50929 0.52942 0.0
C620 C 0.76978 0.49378 0.61117 0.0
C621 C 0.70874 0.49742 0.61491 0.0
C622 C 0.73071 0.49492 0.60102 0.0
C623 C 0.79953 0.4973 0.56149 0.0
C624 C 0.77504 0.49488 0.5752 0.0
H625 H 0.65033 0.48805 0.59284 0.0
H626 H 0.68381 0.48096 0.57054 0.0
H627 H 0.74516 0.4925 0.65161 0.0
H628 H 0.84716 0.48566 0.58282 0.0
H629 H 0.80661 0.47891 0.60474 0.0
C630 C 0.34943 0.83433 0.902 0.0
C631 C 0.34787 0.84362 0.8692 0.0
C632 C 0.32974 0.81096 0.91443 0.0
C633 C 0.26785 0.75322 0.88559 0.0
H634 H 0.25679 0.74298 0.98476 0.0
C635 C 0.17886 0.66302 0.9418 0.0
C636 C 0.16914 0.66526 0.97407 0.0
C637 C 0.20215 0.68272 0.92897 0.0
C638 C 0.25907 0.74544 0.95686 0.0
H639 H 0.32398 0.8349 0.8239 0.0
H640 H 0.29003 0.79595 0.84563 0.0
H641 H 0.29311 0.78054 0.9633 0.0
H642 H 0.17699 0.69042 1.01784 0.0
H643 H 0.21569 0.72419 0.99541 0.0
H644 H 0.23297 0.71881 0.87919 0.0
C645 C 0.30651 0.80573 0.86179 0.0
C646 C 0.28059 0.76714 0.94437 0.0
C647 C 0.32621 0.82862 0.84925 0.0
C648 C 0.18359 0.68762 0.99297 0.0
C649 C 0.20636 0.70724 0.98006 0.0
C650 C 0.24605 0.73174 0.89808 0.0
C651 C 0.30759 0.79625 0.89473 0.0
C652 C 0.28536 0.77183 0.90839 0.0
C653 C 0.21635 0.70543 0.94778 0.0
C654 C 0.24087 0.72751 0.93405 0.0
H655 H 0.36573 0.84516 0.91821 0.0
H656 H 0.33203 0.80456 0.93961 0.0
H657 H 0.27071 0.75512 0.85771 0.0
H658 H 0.16848 0.64614 0.92644 0.0
H659 H 0.20896 0.67997 0.90427 0.0
C660 C 0.60076 0.22813 0.9691 0.0
C661 C 0.6078 0.20978 0.96585 0.0
C662 C 0.61126 0.2464 0.99522 0.0
C663 C 0.65481 0.26384 1.07299 0.0
H664 H 0.59858 0.26376 0.11829 0.0
C665 C 0.5923 0.21421 0.19537 0.0
C666 C 0.61063 0.21317 0.21564 0.0
C667 C 0.5992 0.23153 0.16847 0.0
C668 C 0.61449 0.26373 0.10619 0.0
H669 H 0.63379 0.19832 0.98399 0.0
H670 H 0.65063 0.22835 1.0303 0.0
H671 H 0.59896 0.26051 1.05588 0.0
H672 H 0.65039 0.23191 0.22719 0.0
H673 H 0.66257 0.26311 0.18112 0.0
H674 H 0.66834 0.26295 0.12339 0.0
C675 C 0.6374 0.22944 1.01304 0.0
C676 C 0.61501 0.26241 1.06992 0.0
C677 C 0.62724 0.21159 0.98676 0.0
C678 C 0.63587 0.2319 0.21138 0.0
C679 C 0.64283 0.24966 0.18467 0.0
C680 C 0.65362 0.2638 0.1093 0.0
C681 C 0.6287 0.24639 1.01892 0.0
C682 C 0.6339 0.2597 1.05314 0.0
C683 C 0.62472 0.24868 0.16134 0.0
C684 C 0.63201 0.26096 0.1263 0.0
H685 H 0.58614 0.22752 0.95284 0.0
H686 H 0.60462 0.25957 0.99795 0.0
H687 H 0.67079 0.26397 1.06086 0.0
H688 H 0.57256 0.20063 0.19898 0.0
H689 H 0.58435 0.22975 0.15168 0.0
C690 C 0.42298 0.62561 0.32025 0.0
C691 C 0.40497 0.60633 0.29941 0.0
C692 C 0.41569 0.63582 0.34703 0.0
C693 C 0.36097 0.61362 0.40526 0.0
H694 H 0.41462 0.66684 0.45811 0.0
C695 C 0.38799 0.59117 0.52956 0.0
C696 C 0.40726 0.60953 0.55002 0.0
C697 C 0.37742 0.59795 0.50285 0.0
C698 C 0.39883 0.65217 0.44421 0.0
H699 H 0.36534 0.58502 0.28708 0.0
H700 H 0.35245 0.60355 0.3332 0.0
H701 H 0.4153 0.6693 0.39557 0.0
H702 H 0.42808 0.64922 0.56194 0.0
H703 H 0.40885 0.6612 0.51608 0.0
H704 H 0.34377 0.59717 0.45389 0.0
C705 C 0.37226 0.61004 0.32995 0.0
C706 C 0.39953 0.65337 0.4079 0.0
C707 C 0.37962 0.59951 0.30328 0.0
C708 C 0.41362 0.63468 0.546 0.0
C709 C 0.40269 0.64152 0.51945 0.0
C710 C 0.35958 0.61308 0.44158 0.0
C711 C 0.39008 0.62731 0.35353 0.0
C712 C 0.38242 0.63251 0.38816 0.0
C713 C 0.38553 0.62338 0.49609 0.0
C714 C 0.38018 0.6306 0.46135 0.0
H715 H 0.44279 0.63197 0.31702 0.0
H716 H 0.43029 0.64891 0.36418 0.0
H717 H 0.3466 0.59761 0.39134 0.0
H718 H 0.38196 0.57149 0.53296 0.0
H719 H 0.36439 0.58311 0.48594 0.0
C720 C 0.80434 0.39033 0.85848 0.0
C721 C 0.80624 0.40949 0.88023 0.0
C722 C 0.78642 0.38057 0.83231 0.0
C723 C 0.75103 0.36317 0.77361 0.0
H724 H 0.75163 0.4196 0.72908 0.0
C725 C 0.78164 0.38075 0.6348 0.0
C726 C 0.80066 0.40581 0.63024 0.0
C727 C 0.76401 0.37425 0.66176 0.0
C728 C 0.75151 0.40364 0.74095 0.0
H729 H 0.78875 0.43122 0.89457 0.0
H730 H 0.75663 0.4135 0.84949 0.0
H731 H 0.75576 0.41953 0.79138 0.0
H732 H 0.81375 0.44405 0.6465 0.0
H733 H 0.78488 0.43306 0.69422 0.0
H734 H 0.75088 0.34917 0.72305 0.0
C735 C 0.76972 0.4067 0.85164 0.0
C736 C 0.75333 0.40331 0.77716 0.0
C737 C 0.78803 0.41678 0.8777 0.0
C738 C 0.79996 0.42444 0.65037 0.0
C739 C 0.78278 0.418 0.67753 0.0
C740 C 0.75056 0.36413 0.73733 0.0
C741 C 0.7695 0.38939 0.82736 0.0
C742 C 0.75583 0.38428 0.79356 0.0
C743 C 0.76545 0.39265 0.68508 0.0
C744 C 0.75359 0.38577 0.7205 0.0
H745 H 0.81752 0.38363 0.86062 0.0
H746 H 0.78736 0.36748 0.81447 0.0
H747 H 0.75079 0.34716 0.78555 0.0
H748 H 0.78134 0.366 0.61909 0.0
H749 H 0.75036 0.35463 0.66555 0.0
C750 C 0.3905 0.79082 0.97357 0.0
C751 C 0.41053 0.79444 0.95208 0.0
C752 C 0.38405 0.77549 1.00279 0.0
C753 C 0.41755 0.75726 1.06436 0.0
H754 H 0.36058 0.74857 0.11864 0.0
C755 C 0.39076 0.78448 0.20584 0.0
C756 C 0.41369 0.80716 0.20801 0.0
C757 C 0.38676 0.76736 0.17913 0.0
C758 C 0.37648 0.75012 0.10433 0.0
H759 H 0.43754 0.78248 0.94179 0.0
H760 H 0.42571 0.75479 0.99234 0.0
H761 H 0.35654 0.74238 1.05644 0.0
H762 H 0.45134 0.82832 0.18661 0.0
H763 H 0.44417 0.79987 0.13948 0.0
H764 H 0.4372 0.76407 0.11238 0.0
C765 C 0.41557 0.7646 0.98751 0.0
C766 C 0.37429 0.74703 1.06825 0.0
C767 C 0.42236 0.78041 0.95844 0.0
C768 C 0.43314 0.81142 0.18487 0.0
C769 C 0.42912 0.7946 0.15816 0.0
C770 C 0.41938 0.75919 0.10056 0.0
C771 C 0.39732 0.76309 1.01128 0.0
C772 C 0.39569 0.75365 1.04758 0.0
C773 C 0.40558 0.77272 0.15401 0.0
C774 C 0.39987 0.75869 0.12044 0.0
H775 H 0.38108 0.80147 0.96953 0.0
H776 H 0.37013 0.77539 1.02017 0.0
H777 H 0.43435 0.76157 1.04985 0.0
H778 H 0.37555 0.78051 0.22373 0.0
H779 H 0.36857 0.7505 0.17733 0.0
C780 C 0.59531 0.38463 0.31833 0.0
C781 C 0.61322 0.40415 0.29753 0.0
C782 C 0.60276 0.37469 0.34511 0.0
C783 C 0.61914 0.35845 0.40678 0.0
H784 H 0.675 0.41526 0.45102 0.0
C785 C 0.60546 0.37903 0.54456 0.0
C786 C 0.61203 0.40427 0.54815 0.0
C787 C 0.61623 0.37179 0.51803 0.0
C788 C 0.65914 0.39921 0.43921 0.0
H789 H 0.65287 0.42603 0.28505 0.0
H790 H 0.66603 0.40787 0.33091 0.0
H791 H 0.67201 0.41398 0.38857 0.0
H792 H 0.63758 0.44208 0.5303 0.0
H793 H 0.65483 0.42979 0.48328 0.0
H794 H 0.60418 0.34566 0.4574 0.0
C795 C 0.64618 0.40106 0.32783 0.0
C796 C 0.65766 0.39816 0.40293 0.0
C797 C 0.63865 0.41136 0.30123 0.0
C798 C 0.63137 0.42234 0.52725 0.0
C799 C 0.64176 0.41516 0.50053 0.0
C800 C 0.61992 0.36016 0.44306 0.0
C801 C 0.62843 0.38371 0.3516 0.0
C802 C 0.63617 0.37903 0.38639 0.0
C803 C 0.63341 0.38963 0.49421 0.0
C804 C 0.6386 0.38196 0.45955 0.0
H805 H 0.57545 0.37793 0.31518 0.0
H806 H 0.58818 0.36144 0.36229 0.0
H807 H 0.60338 0.34229 0.39498 0.0
H808 H 0.59096 0.36469 0.56082 0.0
H809 H 0.60992 0.35205 0.51507 0.0
C810 C 0.21635 0.62965 0.86033 0.0
C811 C 0.21485 0.61006 0.88058 0.0
C812 C 0.23384 0.64004 0.83346 0.0
C813 C 0.26576 0.61746 0.77449 0.0
H814 H 0.26337 0.66912 0.72056 0.0
C815 C 0.21443 0.5921 0.65132 0.0
C816 C 0.21305 0.60988 0.63019 0.0
C817 C 0.23202 0.59965 0.67786 0.0
C818 C 0.26501 0.65488 0.73475 0.0
H819 H 0.23305 0.58862 0.89218 0.0
H820 H 0.26458 0.60759 0.84627 0.0
H821 H 0.26635 0.6727 0.78296 0.0
H822 H 0.23128 0.64936 0.61709 0.0
H823 H 0.2629 0.66267 0.66267 0.0
H824 H 0.26599 0.60044 0.72621 0.0
C825 C 0.25132 0.61408 0.84975 0.0
C826 C 0.26617 0.65669 0.77102 0.0
C827 C 0.23337 0.60331 0.87639 0.0
C828 C 0.23157 0.63524 0.63351 0.0
C829 C 0.24958 0.64286 0.6599 0.0
C830 C 0.26598 0.61634 0.73819 0.0
C831 C 0.25073 0.6314 0.82636 0.0
C832 C 0.26309 0.63632 0.7913 0.0
C833 C 0.24913 0.62528 0.68379 0.0
C834 C 0.26218 0.63324 0.71814 0.0
H835 H 0.20297 0.63602 0.8639 0.0
H836 H 0.23237 0.65328 0.81667 0.0
H837 H 0.26468 0.60182 0.7887 0.0
H838 H 0.20101 0.57228 0.6485 0.0
H839 H 0.2306 0.58522 0.69526 0.0
C840 C 0.40812 0.9656 0.96568 0.0
C841 C 0.41803 0.95004 0.95616 0.0
C842 C 0.41429 0.97904 0.99797 0.0
C843 C 0.46132 1.00021 1.07456 0.0
H844 H 0.41587 0.01816 0.11868 0.0
C845 C 0.49257 0.0652 0.2004 0.0
C846 C 0.47482 0.06348 0.22556 0.0
C847 C 0.48534 0.05178 0.16832 0.0
C848 C 0.42898 0.01332 0.10723 0.0
H849 H 0.44263 0.93714 0.97536 0.0
H850 H 0.45297 0.95977 1.0304 0.0
H851 H 0.40415 0.99474 1.06399 0.0
H852 H 0.43473 0.04529 0.23458 0.0
H853 H 0.42216 0.02213 0.17933 0.0
H854 H 0.48598 0.01836 0.11787 0.0
C855 C 0.44057 0.96211 1.01292 0.0
C856 C 0.42224 0.99987 1.075 0.0
C857 C 0.43435 0.94867 0.98085 0.0
C858 C 0.44929 0.04761 0.21648 0.0
C859 C 0.44201 0.03419 0.18419 0.0
C860 C 0.46809 0.01373 0.10661 0.0
C861 C 0.43088 0.97786 1.02259 0.0
C862 C 0.43817 0.99279 1.0576 0.0
C863 C 0.45983 0.0357 0.15911 0.0
C864 C 0.45218 0.02078 0.1241 0.0
H865 H 0.39563 0.96764 0.94797 0.0
H866 H 0.40628 0.99083 1.0032 0.0
H867 H 0.47471 0.99587 1.06287 0.0
H868 H 0.51243 0.07699 0.20553 0.0
H869 H 0.50011 0.05438 0.15048 0.0
C870 C 0.49357 0.43323 0.31446 0.0
C871 C 0.47579 0.417 0.2897 0.0
C872 C 0.48639 0.43953 0.3466 0.0
C873 C 0.43015 0.42149 0.40865 0.0
H874 H 0.47569 0.48505 0.45193 0.0
C875 C 0.40936 0.44843 0.55037 0.0
C876 C 0.41907 0.4739 0.55968 0.0
C877 C 0.41555 0.4412 0.51801 0.0
C878 C 0.46235 0.46721 0.44056 0.0
H879 H 0.43568 0.39487 0.28144 0.0
H880 H 0.4232 0.40562 0.33676 0.0
H881 H 0.48695 0.47374 0.39683 0.0
H882 H 0.44337 0.51148 0.53999 0.0
H883 H 0.45378 0.49924 0.48479 0.0
H884 H 0.40539 0.4152 0.45231 0.0
C885 C 0.44304 0.4135 0.33155 0.0
C886 C 0.46912 0.46042 0.40844 0.0
C887 C 0.45027 0.40726 0.29921 0.0
C888 C 0.43524 0.49166 0.53467 0.0
C889 C 0.4415 0.48448 0.50251 0.0
C890 C 0.42343 0.42825 0.44094 0.0
C891 C 0.46089 0.43 0.35625 0.0
C892 C 0.45327 0.43733 0.39134 0.0
C893 C 0.43199 0.45901 0.49307 0.0
C894 C 0.43928 0.45138 0.45796 0.0
H895 H 0.51343 0.44138 0.30899 0.0
H896 H 0.50119 0.45186 0.36412 0.0
H897 H 0.4171 0.40345 0.39753 0.0
H898 H 0.39702 0.43386 0.56834 0.0
H899 H 0.4077 0.42139 0.51298 0.0
C900 C 0.0507 0.44551 0.62961 0.0
C901 C 0.06643 0.47103 0.62038 0.0
C902 C 0.03724 0.43814 0.66198 0.0
C903 C 0.01633 0.46389 0.7393 0.0
H904 H 0.99788 0.40029 0.78264 0.0
C905 C 0.95096 0.42994 0.86507 0.0
C906 C 0.95256 0.41392 0.8901 0.0
C907 C 0.96446 0.43613 0.83297 0.0
C908 C 1.00286 0.41828 0.77141 0.0
H909 H 0.07968 0.50853 0.6402 0.0
H910 H 0.05705 0.49606 0.69539 0.0
H911 H 0.02141 0.41209 0.72781 0.0
H912 H 0.9706 0.39202 0.89888 0.0
H913 H 0.99393 0.40262 0.84352 0.0
H914 H 0.99823 0.47035 0.78294 0.0
C915 C 0.05456 0.48136 0.67761 0.0
C916 C 0.01637 0.42506 0.73912 0.0
C917 C 0.068 0.48868 0.64546 0.0
C918 C 0.96839 0.40426 0.88088 0.0
C919 C 0.9819 0.41041 0.84854 0.0
C920 C 1.00275 0.45708 0.77141 0.0
C921 C 0.0386 0.45586 0.68696 0.0
C922 C 0.02362 0.44814 0.72201 0.0
C923 C 0.98051 0.42672 0.82362 0.0
C924 C 0.99553 0.43405 0.78859 0.0
H925 H 0.04849 0.43103 0.61157 0.0
H926 H 0.02529 0.4183 0.66699 0.0
H927 H 0.02079 0.48167 0.72784 0.0
H928 H 0.93919 0.43801 0.87031 0.0
H929 H 0.96193 0.44829 0.81523 0.0
C930 C 0.56875 0.96484 0.21557 0.0
C931 C 0.54319 0.94926 0.22503 0.0
C932 C 0.57612 0.9782 0.18317 0.0
C933 C 0.55025 0.99898 0.10628 0.0
H934 H 0.61379 0.01713 1.06212 0.0
C935 C 0.58382 0.06367 0.98025 0.0
C936 C 0.59981 0.06203 0.95498 0.0
C937 C 0.57773 0.05032 1.01238 0.0
C938 C 0.59581 0.01223 1.07358 0.0
H939 H 0.50563 0.93615 0.20556 0.0
H940 H 0.51809 0.95859 0.15041 0.0
H941 H 0.60211 0.99387 0.11703 0.0
H942 H 0.62181 0.04406 0.94585 0.0
H943 H 0.61138 0.02099 1.00125 0.0
H944 H 0.54367 0.01688 1.06281 0.0
C945 C 0.53283 0.96106 0.16801 0.0
C946 C 0.5891 0.99888 0.10592 0.0
C947 C 0.52552 0.94773 0.20016 0.0
C948 C 0.60958 0.0463 0.96402 0.0
C949 C 0.60353 0.03293 0.99639 0.0
C950 C 0.55699 0.01239 1.07413 0.0
C951 C 0.55836 0.97688 0.15841 0.0
C952 C 0.56604 0.99173 0.12332 0.0
C953 C 0.58723 0.03437 1.02155 0.0
C954 C 0.57999 0.01951 1.05663 0.0
H955 H 0.58325 0.967 0.23343 0.0
H956 H 0.59598 0.99003 0.17798 0.0
H957 H 0.53248 0.9946 0.11795 0.0
H958 H 0.57568 0.07536 0.97519 0.0
H959 H 0.56559 0.05289 1.03029 0.0
C960 C 0.60925 0.56627 0.54823 0.0
C961 C 0.59926 0.54078 0.55771 0.0
C962 C 0.60315 0.57353 0.51593 0.0
C963 C 0.55627 0.54759 0.43905 0.0
H964 H 0.60183 0.61109 0.39532 0.0
C965 C 0.52542 0.5813 0.31299 0.0
C966 C 0.54325 0.59747 0.28803 0.0
C967 C 0.53253 0.57507 0.34509 0.0
C968 C 0.58868 0.59311 0.40664 0.0
H969 H 0.57459 0.50323 0.53836 0.0
H970 H 0.56438 0.5155 0.48334 0.0
H971 H 0.61338 0.59941 0.45003 0.0
H972 H 0.58338 0.61956 0.27942 0.0
H973 H 0.59574 0.60892 0.33467 0.0
H974 H 0.53174 0.54104 0.3956 0.0
C975 C 0.57678 0.53026 0.50085 0.0
C976 C 0.59532 0.5864 0.4389 0.0
C977 C 0.58294 0.52306 0.53293 0.0
C978 C 0.56875 0.60721 0.29734 0.0
C979 C 0.57591 0.60104 0.32964 0.0
C980 C 0.54959 0.55434 0.40697 0.0
C981 C 0.58656 0.55573 0.49123 0.0
C982 C 0.57936 0.56336 0.45618 0.0
C983 C 0.55801 0.5846 0.35454 0.0
C984 C 0.56554 0.57733 0.3896 0.0
H985 H 0.62173 0.58082 0.566 0.0
H986 H 0.61123 0.59335 0.51076 0.0
H987 H 0.54284 0.52982 0.45061 0.0
H988 H 0.50557 0.57315 0.3077 0.0
H989 H 0.51769 0.56279 0.36275 0.0
C990 C 0.06576 0.57918 0.86491 0.0
C991 C 0.06401 0.59517 0.88997 0.0
C992 C 0.05248 0.57306 0.83278 0.0
C993 C 0.01477 0.59131 0.77117 0.0
H994 H 0.99667 0.52788 0.72745 0.0
C995 C 0.96799 0.56473 0.62925 0.0
C996 C 0.952 0.53926 0.62003 0.0
C997 C 0.98125 0.57192 0.66161 0.0
C998 C 1.0012 0.54569 0.73895 0.0
H999 H 0.04595 0.61711 0.89876 0.0
H1000 H 0.02306 0.60667 0.84338 0.0
H1001 H 0.01888 0.53898 0.78258 0.0
H1002 H 0.93813 0.50166 0.63987 0.0
H1003 H 0.96051 0.51384 0.69501 0.0
H1004 H 0.9967 0.59779 0.72756 0.0
C1005 C 0.03501 0.59883 0.84839 0.0
C1006 C 0.01456 0.55236 0.77108 0.0
C1007 C 0.04827 0.60488 0.88075 0.0
C1008 C 0.95002 0.52149 0.6451 0.0
C1009 C 0.96331 0.52862 0.67724 0.0
C1010 C 1.00151 0.58469 0.73884 0.0
C1011 C 0.03655 0.58256 0.82342 0.0
C1012 C 0.02181 0.57539 0.78833 0.0
C1013 C 0.97947 0.55406 0.6866 0.0
C1014 C 0.99421 0.56161 0.72168 0.0
H1015 H 0.07746 0.57107 0.87015 0.0
H1016 H 0.05508 0.56091 0.81502 0.0
H1017 H 0.01979 0.60932 0.78244 0.0
H1018 H 0.97049 0.5793 0.61124 0.0
H1019 H 0.99339 0.59171 0.66662 0.0
C1020 C 0.4826 0.01313 0.36239 0.0
C1021 C 0.47726 0.03256 0.3651 0.0
C1022 C 0.4783 0.99754 0.39116 0.0
C1023 C 0.5051 0.02601 0.46329 0.0
H1024 H 0.51128 0.9669 0.46016 0.0
C1025 C 0.5546 0.97894 0.39536 0.0
C1026 C 0.54125 0.98009 0.36631 0.0
C1027 C 0.55674 0.99273 0.42526 0.0
C1028 C 0.51004 0.98376 0.46283 0.0
H1029 H 0.45718 0.04671 0.39569 0.0
H1030 H 0.4532 0.02212 0.44705 0.0
H1031 H 0.47019 0.9626 0.45647 0.0
H1032 H 0.52715 1.00188 0.34141 0.0
H1033 H 0.53289 0.02765 0.39253 0.0
H1034 H 0.54519 0.04731 0.46053 0.0
C1035 C 0.45994 0.01822 0.42307 0.0
C1036 C 0.48617 0.98112 0.46092 0.0
C1037 C 0.46291 0.03277 0.39375 0.0
C1038 C 0.53639 0.99986 0.36404 0.0
C1039 C 0.53989 0.01469 0.39346 0.0
C1040 C 0.52902 0.02866 0.46324 0.0
C1041 C 0.47051 1.00275 0.42326 0.0
C1042 C 0.48426 1.00251 0.45464 0.0
C1043 C 0.54634 0.00836 0.42564 0.0
C1044 C 0.53126 0.00752 0.45633 0.0
H1045 H 0.49267 0.01186 0.34001 0.0
H1046 H 0.4855 0.98474 0.39005 0.0
H1047 H 0.50399 0.04295 0.46106 0.0
H1048 H 0.55999 0.96475 0.39701 0.0
H1049 H 0.56252 0.98801 0.44932 0.0
C1050 C 0.43613 0.45915 0.72538 0.0
C1051 C 0.45116 0.47428 0.69761 0.0
C1052 C 0.44714 0.45411 0.75351 0.0
C1053 C 0.5108 0.47828 0.79053 0.0
H1054 H 0.5023 0.53612 0.79925 0.0
C1055 C 0.54118 0.53181 0.69888 0.0
C1056 C 0.56617 0.53757 0.7004 0.0
C1057 C 0.52958 0.53395 0.7291 0.0
C1058 C 0.50517 0.52016 0.79942 0.0
H1059 H 0.48713 0.48902 0.6721 0.0
H1060 H 0.50626 0.47906 0.72033 0.0
H1061 H 0.46591 0.49471 0.7969 0.0
H1062 H 0.60044 0.55691 0.73082 0.0
H1063 H 0.5793 0.55671 0.78437 0.0
H1064 H 0.55011 0.50403 0.79025 0.0
C1065 C 0.48633 0.4725 0.72173 0.0
C1066 C 0.48414 0.49611 0.79776 0.0
C1067 C 0.47557 0.47853 0.69407 0.0
C1068 C 0.58059 0.55068 0.7297 0.0
C1069 C 0.56869 0.55128 0.76037 0.0
C1070 C 0.53182 0.5022 0.79422 0.0
C1071 C 0.47315 0.46383 0.75362 0.0
C1072 C 0.48722 0.47615 0.78578 0.0
C1073 C 0.5425 0.53984 0.76117 0.0
C1074 C 0.52875 0.5233 0.79094 0.0
H1075 H 0.41664 0.45419 0.72777 0.0
H1076 H 0.43627 0.4466 0.7772 0.0
H1077 H 0.5137 0.46287 0.78361 0.0
H1078 H 0.52998 0.52288 0.67605 0.0
H1079 H 0.50945 0.52631 0.72859 0.0
C1080 C 1.00307 0.4705 1.02856 0.0
C1081 C 0.98312 0.44586 1.0307 0.0
C1082 C 0.01802 0.48154 1.05792 0.0
C1083 C 0.98727 0.47909 0.1288 0.0
H1084 H 0.04582 0.54506 0.12605 0.0
C1085 C 0.03385 0.57544 1.0597 0.0
C1086 C 0.03338 0.5611 1.03071 0.0
C1087 C 0.01989 0.5636 0.08948 0.0
C1088 C 0.02908 0.52678 0.12858 0.0
H1089 H 0.96751 0.41148 1.06105 0.0
H1090 H 0.99135 0.43153 0.11305 0.0
H1091 H 0.05093 0.50876 0.12416 0.0
H1092 H 0.01264 0.52495 1.00585 0.0
H1093 H 0.98659 0.50447 1.05685 0.0
H1094 H 0.96544 0.4971 0.12417 0.0
C1095 C 0.99601 0.44233 1.08917 0.0
C1096 C 0.03217 0.50582 0.12773 0.0
C1097 C 0.98192 0.43104 1.05942 0.0
C1098 C 0.01414 0.53614 1.02844 0.0
C1099 C 0.99915 0.52456 1.05775 0.0
C1100 C 0.98418 0.50005 0.12771 0.0
C1101 C 0.01177 0.46837 0.08991 0.0
C1102 C 0.01114 0.48224 0.12109 0.0
C1103 C 1.00474 0.53749 0.08986 0.0
C1104 C 1.00524 0.52361 0.12099 0.0
H1105 H 1.00514 0.482 1.00613 0.0
H1106 H 0.03106 0.50154 1.05719 0.0
H1107 H 0.97053 0.46082 0.12647 0.0
H1108 H 0.04765 0.59519 1.06142 0.0
H1109 H 0.02408 0.57419 0.11349 0.0
C1110 C 0.03492 0.45635 0.45434 0.0
C1111 C 0.03441 0.47108 0.48218 0.0
C1112 C 0.01989 0.45214 0.42521 0.0
C1113 C 0.98248 0.4776 0.38589 0.0
H1114 H 0.04898 0.53624 0.3852 0.0
C1115 C 1.00129 0.52901 0.48148 0.0
C1116 C 0.98208 0.53469 0.47872 0.0
C1117 C 0.01607 0.53169 0.45219 0.0
C1118 C 0.03025 0.52016 0.38279 0.0
H1119 H 0.01282 0.48581 0.50647 0.0
H1120 H 0.98525 0.47691 0.45663 0.0
H1121 H 0.04431 0.49501 0.38552 0.0
H1122 H 0.96776 0.55388 0.44693 0.0
H1123 H 0.99066 0.55477 0.3949 0.0
H1124 H 0.96849 0.5029 0.38601 0.0
C1125 C 0.99845 0.47016 0.45598 0.0
C1126 C 0.0274 0.49621 0.38323 0.0
C1127 C 0.01434 0.47552 0.48462 0.0
C1128 C 0.98146 0.54785 0.44906 0.0
C1129 C 0.99508 0.54907 0.41929 0.0
C1130 C 0.98529 0.5015 0.38342 0.0
C1131 C 1.00394 0.46216 0.42427 0.0
C1132 C 1.0038 0.47559 0.39239 0.0
C1133 C 0.01016 0.53808 0.41964 0.0
C1134 C 0.00917 0.52262 0.38948 0.0
H1135 H 0.04941 0.45134 0.45268 0.0
H1136 H 0.02397 0.44515 0.40162 0.0
H1137 H 0.96388 0.46177 0.39064 0.0
H1138 H 1.00295 0.5199 0.50456 0.0
H1139 H 0.02867 0.52426 0.45362 0.0
C1140 C 0.43603 0.9803 0.78899 0.0
C1141 C 0.45078 0.98067 0.81727 0.0
C1142 C 0.44741 0.99512 0.75973 0.0
C1143 C 0.51082 0.03231 0.72075 0.0
H1144 H 0.50234 0.96573 0.71921 0.0
C1145 C 0.54153 0.01208 0.81615 0.0
C1146 C 0.56636 0.03167 0.81383 0.0
C1147 C 0.53001 0.99758 0.78658 0.0
C1148 C 0.50518 0.98451 0.71703 0.0
H1149 H 0.48702 1.00173 0.84174 0.0
H1150 H 0.50674 0.02891 0.79152 0.0
H1151 H 0.46589 0.97068 0.7199 0.0
H1152 H 0.60047 0.04692 0.78269 0.0
H1153 H 0.57956 0.02419 0.7303 0.0
H1154 H 0.55013 0.04602 0.72072 0.0
C1155 C 0.48669 0.016 0.79079 0.0
C1156 C 0.48414 0.98751 0.7177 0.0
C1157 C 0.47556 1.00033 0.81962 0.0
C1158 C 0.58079 0.03286 0.78446 0.0
C1159 C 0.569 0.01937 0.75447 0.0
C1160 C 0.53184 0.02934 0.71807 0.0
C1161 C 0.47349 0.01076 0.75899 0.0
C1162 C 0.48729 0.01106 0.72712 0.0
C1163 C 0.54286 1.00403 0.75426 0.0
C1164 C 0.52881 1.00538 0.72395 0.0
H1165 H 0.41641 0.96608 0.78716 0.0
H1166 H 0.4366 0.99119 0.73601 0.0
H1167 H 0.51373 0.05089 0.7257 0.0
H1168 H 0.5303 0.01 0.83903 0.0
H1169 H 0.50992 0.98481 0.78763 0.0
C1170 C 0.53741 0.54108 0.14993 0.0
C1171 C 0.54179 0.56551 0.14675 0.0
C1172 C 0.54181 0.52973 0.12124 0.0
C1173 C 0.51382 0.5301 1.04924 0.0
H1174 H 0.50743 0.46482 1.0551 0.0
C1175 C 0.46424 0.43472 0.12064 0.0
C1176 C 0.47836 0.44954 0.1491 0.0
C1177 C 0.46199 0.44607 0.0906 0.0
C1178 C 0.50871 0.48287 1.05167 0.0
H1179 H 0.5605 0.59938 0.11527 0.0
H1180 H 0.56487 0.57863 1.06427 0.0
H1181 H 0.54865 0.50168 1.05683 0.0
H1182 H 0.49381 0.486 0.17303 0.0
H1183 H 0.48772 0.50557 0.1217 0.0
H1184 H 0.47379 0.51145 1.05323 0.0
C1185 C 0.55867 0.56826 1.0885 0.0
C1186 C 0.53265 0.50415 1.05245 0.0
C1187 C 0.55545 0.57991 0.11762 0.0
C1188 C 0.48396 0.47444 0.15082 0.0
C1189 C 0.48029 0.48551 0.12132 0.0
C1190 C 0.48986 0.50886 1.05044 0.0
C1191 C 0.5488 0.54229 1.08881 0.0
C1192 C 0.53473 0.52762 1.05791 0.0
C1193 C 0.47298 0.47216 0.08954 0.0
C1194 C 0.48765 0.48564 1.05824 0.0
H1195 H 0.52799 0.52994 0.17272 0.0
H1196 H 0.53519 0.50983 0.1228 0.0
H1197 H 0.51501 0.5482 1.05075 0.0
H1198 H 0.45828 0.41497 0.11939 0.0
H1199 H 0.45556 0.43516 1.06686 0.0
C1200 C 0.29038 0.93538 0.69321 0.0
C1201 C 0.30598 0.9535 0.71756 0.0
C1202 C 0.28494 0.94269 0.66154 0.0
C1203 C 0.29476 0.99875 0.61054 0.0
H1204 H 0.31069 0.96624 0.53633 0.0
C1205 C 0.3562 0.04974 0.49343 0.0
C1206 C 0.35241 0.03711 0.46161 0.0
C1207 C 0.34038 0.0378 0.52173 0.0
C1208 C 0.30553 0.9752 0.55643 0.0
H1209 H 0.32679 0.9933 0.7289 0.0
H1210 H 0.31792 0.00608 0.67366 0.0
H1211 H 0.30008 0.94725 0.59351 0.0
H1212 H 0.32816 1.00272 0.4337 0.0
H1213 H 0.30047 0.98181 0.48329 0.0
H1214 H 0.30224 0.02774 0.57362 0.0
C1215 C 0.30932 0.98621 0.67903 0.0
C1216 C 0.29936 0.96425 0.58937 0.0
C1217 C 0.31455 0.9789 0.71075 0.0
C1218 C 0.33152 0.01291 0.45793 0.0
C1219 C 0.31574 1.00091 0.48631 0.0
C1220 C 0.30112 0.00982 0.57756 0.0
C1221 C 0.29527 0.96826 0.65349 0.0
C1222 C 0.29508 0.97649 0.61723 0.0
C1223 C 0.32051 0.01295 0.51879 0.0
C1224 C 0.30766 0.99867 0.55064 0.0
H1225 H 0.28319 0.91563 0.69812 0.0
H1226 H 0.27365 0.92836 0.64271 0.0
H1227 H 0.29099 0.00837 0.63126 0.0
H1228 H 0.37196 0.06854 0.49679 0.0
H1229 H 0.34473 0.04749 0.5465 0.0
C1230 C 0.34468 0.32856 1.04266 0.0
C1231 C 0.3534 0.31298 1.05521 0.0
C1232 C 0.33134 0.32286 1.01159 0.0
C1233 C 0.32764 0.29068 0.92982 0.0
H1234 H 0.28792 0.32105 0.90518 0.0
C1235 C 0.30058 0.33547 0.80484 0.0
C1236 C 0.32477 0.34781 0.79008 0.0
C1237 C 0.29558 0.32057 0.83452 0.0
C1238 C 0.29841 0.3118 0.91137 0.0
H1239 H 0.35325 0.27815 1.04698 0.0
H1240 H 0.32929 0.26772 0.9929 0.0
H1241 H 0.29187 0.31288 0.96587 0.0
H1242 H 0.36238 0.35346 0.79377 0.0
H1243 H 0.35403 0.32824 0.84565 0.0
H1244 H 0.33426 0.28969 0.87534 0.0
C1245 C 0.33334 0.28473 1.00653 0.0
C1246 C 0.301 0.30746 0.94635 0.0
C1247 C 0.34701 0.29064 1.03747 0.0
C1248 C 0.34348 0.34394 0.80435 0.0
C1249 C 0.33858 0.32929 0.83409 0.0
C1250 C 0.32465 0.29456 0.89482 0.0
C1251 C 0.32619 0.30128 0.9925 0.0
C1252 C 0.31703 0.29845 0.95609 0.0
C1253 C 0.31477 0.31797 0.85015 0.0
C1254 C 0.31143 0.30674 0.88537 0.0
H1255 H 0.34955 0.34602 1.05565 0.0
H1256 H 0.32665 0.33637 1.00147 0.0
H1257 H 0.34003 0.28356 0.93612 0.0
H1258 H 0.28572 0.33788 0.79398 0.0
H1259 H 0.27694 0.31181 0.84588 0.0
C1260 C 0.94007 0.28854 0.15456 0.0
C1261 C 0.95795 0.30443 0.13001 0.0
C1262 C 0.94773 0.28314 0.18595 0.0
C1263 C 1.00446 0.2935 0.2356 0.0
H1264 H 0.97156 0.30787 0.3111 0.0
C1265 C 0.01861 0.32879 0.38864 0.0
C1266 C 0.04263 0.34998 0.38474 0.0
C1267 C 1.00671 0.31312 0.36027 0.0
C1268 C 0.98064 0.30314 0.29063 0.0
H1269 H 0.99771 0.32587 0.11796 0.0
H1270 H 0.01113 0.31709 0.17278 0.0
H1271 H 0.95237 0.29762 0.25418 0.0
H1272 H 0.07391 0.37017 0.3492 0.0
H1273 H 0.05303 0.34313 0.29954 0.0
H1274 H 0.03375 0.30105 0.27192 0.0
C1275 C 0.99118 0.30823 0.16777 0.0
C1276 C 0.96958 0.29719 0.25783 0.0
C1277 C 0.98351 0.31341 0.13632 0.0
C1278 C 0.05523 0.35417 0.35273 0.0
C1279 C 0.0434 0.33847 0.32445 0.0
C1280 C 0.01564 0.29965 0.26844 0.0
C1281 C 0.97343 0.29381 0.19352 0.0
C1282 C 0.98193 0.29347 0.22953 0.0
C1283 C 0.01867 0.31832 0.3276 0.0
C1284 C 1.00435 0.30562 0.29583 0.0
H1285 H 0.92021 0.28104 0.15002 0.0
H1286 H 0.93356 0.27156 0.20494 0.0
H1287 H 0.01418 0.29018 0.21452 0.0
H1288 H 1.00845 0.32512 0.41303 0.0
H1289 H 0.98771 0.29762 0.36346 0.0
C1290 C 0.71755 0.04443 0.70756 0.0
C1291 C 0.70644 0.05951 0.70529 0.0
C1292 C 0.7241 0.03629 0.67737 0.0
C1293 C 0.726 0.04198 0.57982 0.0
H1294 H 0.69811 0.97003 0.58411 0.0
C1295 C 0.654 0.95426 0.49598 0.0
C1296 C 0.66159 0.96404 0.46231 0.0
C1297 C 0.66989 0.96545 0.52422 0.0
C1298 C 0.70611 0.99016 0.5824 0.0
H1299 H 0.69583 0.07986 0.66976 0.0
H1300 H 0.70585 0.06475 0.61747 0.0
H1301 H 0.70794 0.99393 0.63763 0.0
H1302 H 0.6927 0.99183 0.43135 0.0
H1303 H 0.72081 0.01097 0.48065 0.0
H1304 H 0.72143 0.0378 0.52481 0.0
C1305 C 0.71001 0.05941 0.6423 0.0
C1306 C 0.71214 1.004 0.61319 0.0
C1307 C 0.70374 0.06773 0.67239 0.0
C1308 C 0.68625 0.9839 0.45704 0.0
C1309 C 0.70229 0.99502 0.48535 0.0
C1310 C 0.71948 0.02806 0.54907 0.0
C1311 C 0.71947 0.04288 0.64432 0.0
C1312 C 0.72067 0.02987 0.61232 0.0
C1313 C 0.6939 0.98659 0.51946 0.0
C1314 C 0.70798 1.00177 0.55019 0.0
H1315 H 0.71995 0.0378 0.73253 0.0
H1316 H 0.73176 0.02395 0.67993 0.0
H1317 H 0.73339 0.06201 0.57814 0.0
H1318 H 0.63531 0.9386 0.50075 0.0
H1319 H 0.66254 0.95847 0.55 0.0
C1320 C 0.66255 0.72229 1.02633 0.0
C1321 C 0.66284 0.70524 1.05024 0.0
C1322 C 0.67623 0.72773 0.99529 0.0
C1323 C 0.72136 0.7152 0.94553 0.0
H1324 H 0.67623 0.70506 0.86927 0.0
C1325 C 0.70103 0.68321 0.79121 0.0
C1326 C 0.70231 0.66117 0.79426 0.0
C1327 C 0.70546 0.69866 0.82008 0.0
C1328 C 0.6895 0.70862 0.88997 0.0
H1329 H 0.6788 0.68172 1.06158 0.0
H1330 H 0.70205 0.69057 1.00728 0.0
H1331 H 0.66713 0.71493 0.9265 0.0
H1332 H 0.71151 0.63925 0.82886 0.0
H1333 H 0.71872 0.66586 0.87943 0.0
H1334 H 0.74264 0.7069 0.90902 0.0
C1335 C 0.69183 0.70029 1.01257 0.0
C1336 C 0.68429 0.71434 0.92296 0.0
C1337 C 0.67837 0.69507 1.0437 0.0
C1338 C 0.70998 0.6559 0.82595 0.0
C1339 C 0.71446 0.67136 0.85478 0.0
C1340 C 0.7265 0.7093 0.91247 0.0
C1341 C 0.69017 0.71594 0.9874 0.0
C1342 C 0.69949 0.71652 0.95148 0.0
C1343 C 0.71129 0.69236 0.85248 0.0
C1344 C 0.70996 0.70484 0.88475 0.0
H1345 H 0.65103 0.73071 1.03109 0.0
H1346 H 0.67494 0.74025 0.97676 0.0
H1347 H 0.73376 0.71733 0.96681 0.0
H1348 H 0.69512 0.68774 0.7671 0.0
H1349 H 0.70309 0.71484 0.81751 0.0
C1350 C 0.03614 0.70888 0.129 0.0
C1351 C 0.05388 0.70107 0.13289 0.0
C1352 C 0.02663 0.715 0.1582 0.0
C1353 C 0.99408 0.70156 0.22255 0.0
H1354 H 0.02903 0.71867 0.31076 0.0
C1355 C 0.95032 0.64483 0.34349 0.0
C1356 C 0.95986 0.6543 0.37666 0.0
C1357 C 0.95964 0.66014 0.31421 0.0
C1358 C 0.01883 0.71444 0.28649 0.0
H1359 H 0.07742 0.69603 0.16996 0.0
H1360 H 0.06014 0.70535 0.22067 0.0
H1361 H 0.05296 0.73153 0.25702 0.0
H1362 H 0.98496 0.68794 0.40551 0.0
H1363 H 1.00063 0.71496 0.35442 0.0
H1364 H 0.95995 0.68437 0.25202 0.0
C1365 C 0.05366 0.70722 0.19531 0.0
C1366 C 0.03265 0.72152 0.25553 0.0
C1367 C 0.06331 0.70137 0.16619 0.0
C1368 C 0.97728 0.68001 0.38028 0.0
C1369 C 0.98645 0.69546 0.35092 0.0
C1370 C 0.98025 0.69495 0.25351 0.0
C1371 C 0.03452 0.71321 0.19185 0.0
C1372 C 0.02045 0.71351 0.22328 0.0
C1373 C 0.97855 0.68544 0.31738 0.0
C1374 C 0.99248 0.69965 0.2858 0.0
H1375 H 0.02853 0.70892 0.10366 0.0
H1376 H 0.01224 0.71997 0.15449 0.0
H1377 H 0.98391 0.69522 0.19829 0.0
H1378 H 0.93642 0.62523 0.33994 0.0
H1379 H 0.95315 0.65153 0.28894 0.0
C1380 C 0.54653 0.11388 0.45409 0.0
C1381 C 0.52091 0.10468 0.44597 0.0
C1382 C 0.55487 0.11334 0.48849 0.0
C1383 C 0.53404 0.10216 0.58544 0.0
H1384 H 0.59729 0.10404 0.59816 0.0
C1385 C 0.57703 0.11249 0.72742 0.0
C1386 C 0.59434 0.10439 0.73526 0.0
C1387 C 0.56818 0.11201 0.69302 0.0
C1388 C 0.57944 0.10331 0.59576 0.0
H1389 H 0.48416 0.08713 0.47018 0.0
H1390 H 0.49834 0.08601 0.52945 0.0
H1391 H 0.58193 0.10349 0.53977 0.0
H1392 H 0.61517 0.08887 0.71051 0.0
H1393 H 0.59994 0.08787 0.65123 0.0
H1394 H 0.53122 0.10129 0.64142 0.0
C1395 C 0.51242 0.09422 0.50915 0.0
C1396 C 0.57056 0.10334 0.56141 0.0
C1397 C 0.50405 0.0948 0.47455 0.0
C1398 C 0.60224 0.09568 0.70638 0.0
C1399 C 0.59333 0.09516 0.67178 0.0
C1400 C 0.54292 0.10212 0.61978 0.0
C1401 C 0.53816 0.10344 0.51732 0.0
C1402 C 0.54759 0.1029 0.55498 0.0
C1403 C 0.57592 0.10328 0.6639 0.0
C1404 C 0.56601 0.10283 0.62622 0.0
H1405 H 0.5605 0.12166 0.43356 0.0
H1406 H 0.57481 0.12114 0.4923 0.0
H1407 H 0.51645 0.10196 0.58303 0.0
H1408 H 0.57009 0.11932 0.74819 0.0
H1409 H 0.55532 0.11893 0.68946 0.0
C1410 C 0.43102 0.54438 0.79131 0.0
C1411 C 0.4227 0.5194 0.7806 0.0
C1412 C 0.43963 0.55301 0.8258 0.0
C1413 C 0.46755 0.54117 0.90692 0.0
H1414 H 0.44789 0.58439 0.95383 0.0
C1415 C 0.51402 0.5948 1.04153 0.0
C1416 C 0.49788 0.5952 1.0677 0.0
C1417 C 0.50528 0.58542 1.00716 0.0
C1418 C 0.45377 0.57237 0.94144 0.0
H1419 H 0.41809 0.48436 0.79988 0.0
H1420 H 0.43387 0.49949 0.85907 0.0
H1421 H 0.43232 0.56867 0.89513 0.0
H1422 H 0.45929 0.58572 1.07604 0.0
H1423 H 0.44468 0.57095 1.01674 0.0
H1424 H 0.48959 0.5455 0.95299 0.0
C1425 C 0.4332 0.51246 0.84075 0.0
C1426 C 0.44479 0.56331 0.90718 0.0
C1427 C 0.42383 0.50359 0.80644 0.0
C1428 C 0.4727 0.58616 1.05727 0.0
C1429 C 0.46418 0.57754 1.02275 0.0
C1430 C 0.47712 0.55083 0.94087 0.0
C1431 C 0.44127 0.53744 0.85155 0.0
C1432 C 0.45122 0.54727 0.8889 0.0
C1433 C 0.48009 0.57661 0.99667 0.0
C1434 C 0.47037 0.56659 0.9593 0.0
H1435 H 0.43086 0.55753 0.77281 0.0
H1436 H 0.44563 0.57233 0.83205 0.0
H1437 H 0.47339 0.52915 0.89447 0.0
H1438 H 0.5334 0.60106 1.04787 0.0
H1439 H 0.5185 0.58531 0.98858 0.0
C1440 C 0.91863 0.41048 0.13911 0.0
C1441 C 0.90999 0.41842 0.11038 0.0
C1442 C 0.91917 0.41944 0.17379 0.0
C1443 C 0.91248 0.47006 0.22611 0.0
H1444 H 0.91095 0.43126 0.30596 0.0
C1445 C 0.91976 0.5093 0.37136 0.0
C1446 C 0.90992 0.49256 0.39997 0.0
C1447 C 0.92034 0.50083 0.33674 0.0
C1448 C 0.91114 0.44258 0.28436 0.0
H1449 H 0.89518 0.44275 0.0978 0.0
H1450 H 0.89561 0.45757 0.15661 0.0
H1451 H 0.91034 0.41574 0.2475 0.0
H1452 H 0.893 0.45309 0.41241 0.0
H1453 H 0.89347 0.4386 0.35363 0.0
H1454 H 0.91271 0.49663 0.26294 0.0
C1455 C 0.90248 0.44467 0.15289 0.0
C1456 C 0.91114 0.43359 0.24999 0.0
C1457 C 0.90197 0.43578 0.11844 0.0
C1458 C 0.90074 0.46697 0.39185 0.0
C1459 C 0.90127 0.45852 0.35743 0.0
C1460 C 0.91246 0.47903 0.26048 0.0
C1461 C 0.91116 0.43693 0.18187 0.0
C1462 C 0.91167 0.44694 0.21958 0.0
C1463 C 0.91114 0.4751 0.32857 0.0
C1464 C 0.91166 0.46556 0.29088 0.0
H1465 H 0.92536 0.39749 0.13481 0.0
H1466 H 0.92641 0.41281 0.19422 0.0
H1467 H 0.91337 0.48171 0.20452 0.0
H1468 H 0.92744 0.52917 0.37573 0.0
H1469 H 0.92853 0.51481 0.31642 0.0
C1470 C 0.51229 0.91646 0.47417 0.0
C1471 C 0.49564 0.90754 0.4455 0.0
C1472 C 0.50386 0.91708 0.50888 0.0
C1473 C 0.44627 0.90997 0.56152 0.0
H1474 H 0.48405 0.90927 0.64115 0.0
C1475 C 0.41451 0.91756 0.70719 0.0
C1476 C 0.42166 0.90799 0.73573 0.0
C1477 C 0.42346 0.91805 0.67245 0.0
C1478 C 0.47278 0.90923 0.61962 0.0
H1479 H 0.45634 0.89233 0.43306 0.0
H1480 H 0.44191 0.8929 0.49193 0.0
H1481 H 0.49893 0.90858 0.58261 0.0
H1482 H 0.44454 0.89143 0.74783 0.0
H1483 H 0.45933 0.89178 0.68893 0.0
H1484 H 0.41984 0.91009 0.59854 0.0
C1485 C 0.46175 0.89992 0.48814 0.0
C1486 C 0.48174 0.90918 0.58519 0.0
C1487 C 0.47016 0.89934 0.45365 0.0
C1488 C 0.43821 0.89898 0.72738 0.0
C1489 C 0.44708 0.89943 0.69286 0.0
C1490 C 0.43731 0.91002 0.59596 0.0
C1491 C 0.47825 0.90885 0.51706 0.0
C1492 C 0.46875 0.90941 0.55485 0.0
C1493 C 0.44015 0.90905 0.66409 0.0
C1494 C 0.45016 0.90951 0.6263 0.0
H1495 H 0.53209 0.92336 0.46981 0.0
H1496 H 0.5178 0.92452 0.52925 0.0
H1497 H 0.43536 0.91061 0.53999 0.0
H1498 H 0.40217 0.92506 0.71171 0.0
H1499 H 0.41747 0.92603 0.6522 0.0
C1500 C 0.60281 0.51117 0.80693 0.0
C1501 C 0.59509 0.49448 0.77822 0.0
C1502 C 0.59387 0.50278 0.84167 0.0
C1503 C 0.54371 0.44511 0.89446 0.0
H1504 H 0.58219 0.48333 0.97399 0.0
C1505 C 0.50466 0.41326 1.04021 0.0
C1506 C 0.52144 0.4207 1.06872 0.0
C1507 C 0.51303 0.42221 1.00547 0.0
C1508 C 0.57096 0.47193 0.9525 0.0
H1509 H 0.57112 0.45516 0.76579 0.0
H1510 H 0.55632 0.44082 0.8247 0.0
H1511 H 0.5976 0.49816 0.91541 0.0
H1512 H 0.56091 0.44417 1.08078 0.0
H1513 H 0.57523 0.45899 1.02187 0.0
H1514 H 0.51734 0.41862 0.93154 0.0
C1515 C 0.56906 0.46066 0.82092 0.0
C1516 C 0.57988 0.48086 0.91803 0.0
C1517 C 0.57794 0.46901 0.78639 0.0
C1518 C 0.54699 0.43758 1.06034 0.0
C1519 C 0.55533 0.44647 1.02582 0.0
C1520 C 0.5348 0.43618 0.92893 0.0
C1521 C 0.57661 0.47719 0.84988 0.0
C1522 C 0.56665 0.46772 0.88771 0.0
C1523 C 0.53871 0.43921 0.99706 0.0
C1524 C 0.54816 0.44919 0.95924 0.0
H1525 H 0.61561 0.53096 0.80256 0.0
H1526 H 0.60034 0.51674 0.86206 0.0
H1527 H 0.53215 0.43407 0.87297 0.0
H1528 H 0.48481 0.40067 1.04473 0.0
H1529 H 0.499 0.41596 0.98525 0.0
C1530 C 0.09741 0.50063 0.37104 0.0
C1531 C 0.10682 0.51741 0.39959 0.0
C1532 C 0.09672 0.50894 0.33641 0.0
C1533 C 0.10453 0.56655 0.28401 0.0
H1534 H 0.10401 0.52809 0.2041 0.0
C1535 C 0.09651 0.59793 0.13888 0.0
C1536 C 0.10584 0.59058 0.1101 0.0
C1537 C 0.09606 0.58904 0.17352 0.0
C1538 C 0.1044 0.53954 0.22571 0.0
H1539 H 0.12287 0.55681 0.41191 0.0
H1540 H 0.12218 0.57104 0.35314 0.0
H1541 H 0.10482 0.51337 0.26252 0.0
H1542 H 0.12196 0.56735 0.09739 0.0
H1543 H 0.12165 0.55261 0.15617 0.0
H1544 H 0.10463 0.59299 0.24719 0.0
C1545 C 0.11481 0.55118 0.35698 0.0
C1546 C 0.10451 0.53069 0.26007 0.0
C1547 C 0.11546 0.5429 0.39141 0.0
C1548 C 0.11462 0.57385 0.11807 0.0
C1549 C 0.11419 0.56501 0.1525 0.0
C1550 C 0.1044 0.5754 0.24965 0.0
C1551 C 0.10537 0.53455 0.32819 0.0
C1552 C 0.10472 0.54393 0.2905 0.0
C1553 C 0.10485 0.5722 0.18152 0.0
C1554 C 0.10447 0.5623 0.21922 0.0
H1555 H 0.09018 0.48082 0.37544 0.0
H1556 H 0.08888 0.49492 0.31612 0.0
H1557 H 0.10423 0.57766 0.30563 0.0
H1558 H 0.08917 0.61041 0.13464 0.0
H1559 H 0.08828 0.5952 0.19399 0.0
loop_
_geom_bond_atom_site_label_1
_geom_bond_atom_site_label_2
_geom_bond_distance
_geom_bond_site_symmetry_2
_ccdc_geom_bond_type
C0 Eu1 2.835 . S
C0 C2 1.500 . S
C0 O20 1.257 . S
C0 O21 1.260 . S
Eu1 C0 2.835 . S
Eu1 O20 2.473 . S
Eu1 O21 2.480 . S
Eu1 O22 2.430 . S
Eu1 O23 2.670 . S
Eu1 O24 2.394 . S
Eu1 O29 2.355 . S
Eu1 O31 2.374 . S
C2 C0 1.500 . S
C2 C3 1.377 . S
C2 C7 1.377 . S
C3 C2 1.377 . S
C3 C4 1.395 . S
C3 H32 0.931 . S
C4 C3 1.395 . S
C4 C5 1.383 . S
C4 H33 0.931 . S
C5 C4 1.383 . S
C5 C6 1.394 . S
C6 C5 1.394 . S
C6 C7 1.378 . S
C6 H34 0.931 . S
C7 C2 1.377 . S
C7 C6 1.378 . S
C7 H35 0.931 . S
C8 O22 1.259 . S
C8 O23 1.270 . S
C9 O24 1.251 . S
C9 O25 1.251 . S
C10 Eu11 2.835 . S
C10 C12 1.500 . S
C10 O26 1.257 . S
C10 O27 1.260 . S
Eu11 C10 2.835 . S
Eu11 O23 2.355 . S
Eu11 O25 2.374 . S
Eu11 O26 2.473 . S
Eu11 O27 2.480 . S
Eu11 O28 2.430 . S
Eu11 O29 2.670 . S
Eu11 O30 2.394 . S
C12 C10 1.500 . S
C12 C13 1.377 . S
C12 C17 1.377 . S
C13 C12 1.377 . S
C13 C14 1.395 . S
C13 H36 0.931 . S
C14 C13 1.395 . S
C14 C15 1.383 . S
C14 H37 0.931 . S
C15 C14 1.383 . S
C15 C16 1.394 . S
C16 C15 1.394 . S
C16 C17 1.378 . S
C16 H38 0.931 . S
C17 C12 1.377 . S
C17 C16 1.378 . S
C17 H39 0.931 . S
C18 O28 1.259 . S
C18 O29 1.270 . S
C19 O30 1.251 . S
C19 O31 1.251 . S
O20 C0 1.257 . S
O20 Eu1 2.473 . S
O21 C0 1.260 . S
O21 Eu1 2.480 . S
O22 Eu1 2.430 . S
O22 C8 1.259 . S
O23 Eu1 2.670 . S
O23 C8 1.270 . S
O23 Eu11 2.355 . S
O24 Eu1 2.394 . S
O24 C9 1.251 . S
O25 C9 1.251 . S
O25 Eu11 2.374 . S
O26 C10 1.257 . S
O26 Eu11 2.473 . S
O27 C10 1.260 . S
O27 Eu11 2.480 . S
O28 Eu11 2.430 . S
O28 C18 1.259 . S
O29 Eu1 2.355 . S
O29 Eu11 2.670 . S
O29 C18 1.270 . S
O30 Eu11 2.394 . S
O30 C19 1.251 . S
O31 Eu1 2.374 . S
O31 C19 1.251 . S
H32 C3 0.931 . S
H33 C4 0.931 . S
H34 C6 0.931 . S
H35 C7 0.931 . S
H36 C13 0.931 . S
H37 C14 0.931 . S
H38 C16 0.931 . S
H39 C17 0.931 . S
C40 Eu41 2.835 . S
C40 C42 1.500 . S
C40 O60 1.257 . S
C40 O61 1.260 . S
Eu41 C40 2.835 . S
Eu41 O60 2.473 . S
Eu41 O61 2.480 . S
Eu41 O62 2.430 . S
Eu41 O63 2.670 . S
Eu41 O64 2.394 . S
Eu41 O69 2.355 . S
Eu41 O71 2.374 . S
C42 C40 1.500 . S
C42 C43 1.377 . S
C42 C47 1.377 . S
C43 C42 1.377 . S
C43 C44 1.395 . S
C43 H72 0.931 . S
C44 C43 1.395 . S
C44 C45 1.383 . S
C44 H73 0.931 . S
C45 C44 1.383 . S
C45 C46 1.394 . S
C46 C45 1.394 . S
C46 C47 1.378 . S
C46 H74 0.931 . S
C47 C42 1.377 . S
C47 C46 1.378 . S
C47 H75 0.931 . S
C48 O62 1.259 . S
C48 O63 1.270 . S
C49 O64 1.251 . S
C49 O65 1.251 . S
C50 Eu51 2.835 . S
C50 C52 1.500 . S
C50 O66 1.257 . S
C50 O67 1.260 . S
Eu51 C50 2.835 . S
Eu51 O63 2.355 . S
Eu51 O65 2.374 . S
Eu51 O66 2.473 . S
Eu51 O67 2.480 . S
Eu51 O68 2.430 . S
Eu51 O69 2.670 . S
Eu51 O70 2.394 . S
C52 C50 1.500 . S
C52 C53 1.377 . S
C52 C57 1.377 . S
C53 C52 1.377 . S
C53 C54 1.395 . S
C53 H76 0.931 . S
C54 C53 1.395 . S
C54 C55 1.383 . S
C54 H77 0.931 . S
C55 C54 1.383 . S
C55 C56 1.394 . S
C56 C55 1.394 . S
C56 C57 1.378 . S
C56 H78 0.931 . S
C57 C52 1.377 . S
C57 C56 1.378 . S
C57 H79 0.931 . S
C58 O68 1.259 . S
C58 O69 1.270 . S
C59 O70 1.251 . S
C59 O71 1.251 . S
O60 C40 1.257 . S
O60 Eu41 2.473 . S
O61 C40 1.260 . S
O61 Eu41 2.480 . S
O62 Eu41 2.430 . S
O62 C48 1.259 . S
O63 Eu41 2.670 . S
O63 C48 1.270 . S
O63 Eu51 2.355 . S
O64 Eu41 2.394 . S
O64 C49 1.251 . S
O65 C49 1.251 . S
O65 Eu51 2.374 . S
O66 C50 1.257 . S
O66 Eu51 2.473 . S
O67 C50 1.260 . S
O67 Eu51 2.480 . S
O68 Eu51 2.430 . S
O68 C58 1.259 . S
O69 Eu41 2.355 . S
O69 Eu51 2.670 . S
O69 C58 1.270 . S
O70 Eu51 2.394 . S
O70 C59 1.251 . S
O71 Eu41 2.374 . S
O71 C59 1.251 . S
H72 C43 0.931 . S
H73 C44 0.931 . S
H74 C46 0.931 . S
H75 C47 0.931 . S
H76 C53 0.931 . S
H77 C54 0.931 . S
H78 C56 0.931 . S
H79 C57 0.931 . S
C80 Eu81 2.835 . S
C80 C82 1.500 . S
C80 O100 1.257 . S
C80 O101 1.260 . S
Eu81 C80 2.835 . S
Eu81 O100 2.473 . S
Eu81 O101 2.480 . S
Eu81 O102 2.430 . S
Eu81 O103 2.670 . S
Eu81 O104 2.394 . S
Eu81 O109 2.355 . S
Eu81 O111 2.374 . S
C82 C80 1.500 . S
C82 C83 1.377 . S
C82 C87 1.377 . S
C83 C82 1.377 . S
C83 C84 1.395 . S
C83 H112 0.931 . S
C84 C83 1.395 . S
C84 C85 1.383 . S
C84 H113 0.931 . S
C85 C84 1.383 . S
C85 C86 1.394 . S
C86 C85 1.394 . S
C86 C87 1.378 . S
C86 H114 0.931 . S
C87 C82 1.377 . S
C87 C86 1.378 . S
C87 H115 0.931 . S
C88 O102 1.259 . S
C88 O103 1.270 . S
C89 O104 1.251 . S
C89 O105 1.251 . S
C90 Eu91 2.835 . S
C90 C92 1.500 1_556 S
C90 O106 1.257 . S
C90 O107 1.260 . S
Eu91 C90 2.835 . S
Eu91 O103 2.355 . S
Eu91 O105 2.374 . S
Eu91 O106 2.473 . S
Eu91 O107 2.480 . S
Eu91 O108 2.430 . S
Eu91 O109 2.670 . S
Eu91 O110 2.394 . S
C92 C90 1.500 1_554 S
C92 C93 1.377 . S
C92 C97 1.377 . S
C93 C92 1.377 . S
C93 C94 1.395 . S
C93 H116 0.931 . S
C94 C93 1.395 . S
C94 C95 1.383 . S
C94 H117 0.931 . S
C95 C94 1.383 . S
C95 C96 1.394 . S
C96 C95 1.394 . S
C96 C97 1.378 . S
C96 H118 0.931 . S
C97 C92 1.377 . S
C97 C96 1.378 . S
C97 H119 0.931 . S
C98 O108 1.259 . S
C98 O109 1.270 . S
C99 O110 1.251 . S
C99 O111 1.251 . S
O100 C80 1.257 . S
O100 Eu81 2.473 . S
O101 C80 1.260 . S
O101 Eu81 2.480 . S
O102 Eu81 2.430 . S
O102 C88 1.259 . S
O103 Eu81 2.670 . S
O103 C88 1.270 . S
O103 Eu91 2.355 . S
O104 Eu81 2.394 . S
O104 C89 1.251 . S
O105 C89 1.251 . S
O105 Eu91 2.374 . S
O106 C90 1.257 . S
O106 Eu91 2.473 . S
O107 C90 1.260 . S
O107 Eu91 2.480 . S
O108 Eu91 2.430 . S
O108 C98 1.259 . S
O109 Eu81 2.355 . S
O109 Eu91 2.670 . S
O109 C98 1.270 . S
O110 Eu91 2.394 . S
O110 C99 1.251 . S
O111 Eu81 2.374 . S
O111 C99 1.251 . S
H112 C83 0.931 . S
H113 C84 0.931 . S
H114 C86 0.931 . S
H115 C87 0.931 . S
H116 C93 0.931 . S
H117 C94 0.931 . S
H118 C96 0.931 . S
H119 C97 0.931 . S
C120 Eu121 2.835 . S
C120 C122 1.500 . S
C120 O140 1.257 . S
C120 O141 1.260 . S
Eu121 C120 2.835 . S
Eu121 O140 2.473 . S
Eu121 O141 2.480 . S
Eu121 O142 2.430 . S
Eu121 O143 2.670 . S
Eu121 O144 2.394 . S
Eu121 O149 2.355 . S
Eu121 O151 2.374 . S
C122 C120 1.500 . S
C122 C123 1.377 . S
C122 C127 1.377 . S
C123 C122 1.377 . S
C123 C124 1.395 . S
C123 H152 0.931 . S
C124 C123 1.395 . S
C124 C125 1.383 . S
C124 H153 0.931 . S
C125 C124 1.383 . S
C125 C126 1.394 . S
C126 C125 1.394 . S
C126 C127 1.378 . S
C126 H154 0.931 . S
C127 C122 1.377 . S
C127 C126 1.378 . S
C127 H155 0.931 . S
C128 O142 1.259 . S
C128 O143 1.270 . S
C129 O144 1.251 . S
C129 O145 1.251 . S
C130 Eu131 2.835 . S
C130 C132 1.500 . S
C130 O146 1.257 . S
C130 O147 1.260 . S
Eu131 C130 2.835 . S
Eu131 O143 2.355 . S
Eu131 O145 2.374 . S
Eu131 O146 2.473 . S
Eu131 O147 2.480 . S
Eu131 O148 2.430 . S
Eu131 O149 2.670 . S
Eu131 O150 2.394 . S
C132 C130 1.500 . S
C132 C133 1.377 . S
C132 C137 1.377 . S
C133 C132 1.377 . S
C133 C134 1.395 . S
C133 H156 0.931 . S
C134 C133 1.395 . S
C134 C135 1.383 . S
C134 H157 0.931 . S
C135 C134 1.383 . S
C135 C136 1.394 . S
C136 C135 1.394 . S
C136 C137 1.378 . S
C136 H158 0.931 . S
C137 C132 1.377 . S
C137 C136 1.378 . S
C137 H159 0.931 . S
C138 O148 1.259 . S
C138 O149 1.270 . S
C139 O150 1.251 . S
C139 O151 1.251 . S
O140 C120 1.257 . S
O140 Eu121 2.473 . S
O141 C120 1.260 . S
O141 Eu121 2.480 . S
O142 Eu121 2.430 . S
O142 C128 1.259 . S
O143 Eu121 2.670 . S
O143 C128 1.270 . S
O143 Eu131 2.355 . S
O144 Eu121 2.394 . S
O144 C129 1.251 . S
O145 C129 1.251 . S
O145 Eu131 2.374 . S
O146 C130 1.257 . S
O146 Eu131 2.473 . S
O147 C130 1.260 . S
O147 Eu131 2.480 . S
O148 Eu131 2.430 . S
O148 C138 1.259 . S
O149 Eu121 2.355 . S
O149 Eu131 2.670 . S
O149 C138 1.270 . S
O150 Eu131 2.394 . S
O150 C139 1.251 . S
O151 Eu121 2.374 . S
O151 C139 1.251 . S
H152 C123 0.931 . S
H153 C124 0.931 . S
H154 C126 0.931 . S
H155 C127 0.931 . S
H156 C133 0.931 . S
H157 C134 0.931 . S
H158 C136 0.931 . S
H159 C137 0.931 . S
C160 Eu161 2.835 . S
C160 C162 1.500 . S
C160 O180 1.257 . S
C160 O181 1.260 . S
Eu161 C160 2.835 . S
Eu161 O180 2.473 . S
Eu161 O181 2.480 . S
Eu161 O182 2.430 . S
Eu161 O183 2.670 . S
Eu161 O184 2.394 . S
Eu161 O189 2.355 . S
Eu161 O191 2.374 . S
C162 C160 1.500 . S
C162 C163 1.377 . S
C162 C167 1.377 . S
C163 C162 1.377 . S
C163 C164 1.395 . S
C163 H192 0.931 . S
C164 C163 1.395 . S
C164 C165 1.383 . S
C164 H193 0.931 . S
C165 C164 1.383 . S
C165 C166 1.394 . S
C166 C165 1.394 . S
C166 C167 1.378 . S
C166 H194 0.931 . S
C167 C162 1.377 . S
C167 C166 1.378 . S
C167 H195 0.931 . S
C168 O182 1.259 . S
C168 O183 1.270 . S
C169 O184 1.251 . S
C169 O185 1.251 . S
C170 Eu171 2.835 . S
C170 C172 1.500 . S
C170 O186 1.257 . S
C170 O187 1.260 . S
Eu171 C170 2.835 . S
Eu171 O183 2.355 . S
Eu171 O185 2.374 . S
Eu171 O186 2.473 . S
Eu171 O187 2.480 . S
Eu171 O188 2.430 . S
Eu171 O189 2.670 . S
Eu171 O190 2.394 . S
C172 C170 1.500 . S
C172 C173 1.377 . S
C172 C177 1.377 . S
C173 C172 1.377 . S
C173 C174 1.395 . S
C173 H196 0.931 . S
C174 C173 1.395 . S
C174 C175 1.383 . S
C174 H197 0.931 . S
C175 C174 1.383 . S
C175 C176 1.394 . S
C176 C175 1.394 . S
C176 C177 1.378 . S
C176 H198 0.931 . S
C177 C172 1.377 . S
C177 C176 1.378 . S
C177 H199 0.931 . S
C178 O188 1.259 . S
C178 O189 1.270 . S
C179 O190 1.251 . S
C179 O191 1.251 . S
O180 C160 1.257 . S
O180 Eu161 2.473 . S
O181 C160 1.260 . S
O181 Eu161 2.480 . S
O182 Eu161 2.430 . S
O182 C168 1.259 . S
O183 Eu161 2.670 . S
O183 C168 1.270 . S
O183 Eu171 2.355 . S
O184 Eu161 2.394 . S
O184 C169 1.251 . S
O185 C169 1.251 . S
O185 Eu171 2.374 . S
O186 C170 1.257 . S
O186 Eu171 2.473 . S
O187 C170 1.260 . S
O187 Eu171 2.480 . S
O188 Eu171 2.430 . S
O188 C178 1.259 . S
O189 Eu161 2.355 . S
O189 Eu171 2.670 . S
O189 C178 1.270 . S
O190 Eu171 2.394 . S
O190 C179 1.251 . S
O191 Eu161 2.374 . S
O191 C179 1.251 . S
H192 C163 0.931 . S
H193 C164 0.931 . S
H194 C166 0.931 . S
H195 C167 0.931 . S
H196 C173 0.931 . S
H197 C174 0.931 . S
H198 C176 0.931 . S
H199 C177 0.931 . S
C200 Eu201 2.835 . S
C200 C202 1.500 . S
C200 O220 1.257 . S
C200 O221 1.260 . S
Eu201 C200 2.835 . S
Eu201 O220 2.473 . S
Eu201 O221 2.480 . S
Eu201 O222 2.430 . S
Eu201 O223 2.670 . S
Eu201 O224 2.394 . S
Eu201 O229 2.355 . S
Eu201 O231 2.374 . S
C202 C200 1.500 . S
C202 C203 1.377 . S
C202 C207 1.377 . S
C203 C202 1.377 . S
C203 C204 1.395 . S
C203 H232 0.931 . S
C204 C203 1.395 . S
C204 C205 1.383 . S
C204 H233 0.931 . S
C205 C204 1.383 . S
C205 C206 1.394 . S
C206 C205 1.394 . S
C206 C207 1.378 . S
C206 H234 0.931 . S
C207 C202 1.377 . S
C207 C206 1.378 . S
C207 H235 0.931 . S
C208 O222 1.259 . S
C208 O223 1.270 . S
C209 O224 1.251 . S
C209 O225 1.251 . S
C210 Eu211 2.835 . S
C210 C212 1.500 1_556 S
C210 O226 1.257 . S
C210 O227 1.260 . S
Eu211 C210 2.835 . S
Eu211 O223 2.355 . S
Eu211 O225 2.374 . S
Eu211 O226 2.473 . S
Eu211 O227 2.480 . S
Eu211 O228 2.430 . S
Eu211 O229 2.670 . S
Eu211 O230 2.394 . S
C212 C210 1.500 1_554 S
C212 C213 1.377 . S
C212 C217 1.377 . S
C213 C212 1.377 . S
C213 C214 1.395 . S
C213 H236 0.931 . S
C214 C213 1.395 . S
C214 C215 1.383 . S
C214 H237 0.931 . S
C215 C214 1.383 . S
C215 C216 1.394 . S
C216 C215 1.394 . S
C216 C217 1.378 . S
C216 H238 0.931 . S
C217 C212 1.377 . S
C217 C216 1.378 . S
C217 H239 0.931 . S
C218 O228 1.259 . S
C218 O229 1.270 . S
C219 O230 1.251 . S
C219 O231 1.251 . S
O220 C200 1.257 . S
O220 Eu201 2.473 . S
O221 C200 1.260 . S
O221 Eu201 2.480 . S
O222 Eu201 2.430 . S
O222 C208 1.259 . S
O223 Eu201 2.670 . S
O223 C208 1.270 . S
O223 Eu211 2.355 . S
O224 Eu201 2.394 . S
O224 C209 1.251 . S
O225 C209 1.251 . S
O225 Eu211 2.374 . S
O226 C210 1.257 . S
O226 Eu211 2.473 . S
O227 C210 1.260 . S
O227 Eu211 2.480 . S
O228 Eu211 2.430 . S
O228 C218 1.259 . S
O229 Eu201 2.355 . S
O229 Eu211 2.670 . S
O229 C218 1.270 . S
O230 Eu211 2.394 . S
O230 C219 1.251 . S
O231 Eu201 2.374 . S
O231 C219 1.251 . S
H232 C203 0.931 . S
H233 C204 0.931 . S
H234 C206 0.931 . S
H235 C207 0.931 . S
H236 C213 0.931 . S
H237 C214 0.931 . S
H238 C216 0.931 . S
H239 C217 0.931 . S
C240 Eu241 2.835 . S
C240 C242 1.500 . S
C240 O260 1.257 . S
C240 O261 1.260 . S
Eu241 C240 2.835 . S
Eu241 O260 2.473 . S
Eu241 O261 2.480 . S
Eu241 O262 2.430 . S
Eu241 O263 2.670 . S
Eu241 O264 2.394 . S
Eu241 O269 2.355 . S
Eu241 O271 2.374 . S
C242 C240 1.500 . S
C242 C243 1.377 . S
C242 C247 1.377 . S
C243 C242 1.377 . S
C243 C244 1.395 . S
C243 H272 0.931 . S
C244 C243 1.395 . S
C244 C245 1.383 . S
C244 H273 0.931 . S
C245 C244 1.383 . S
C245 C246 1.394 . S
C246 C245 1.394 . S
C246 C247 1.378 . S
C246 H274 0.931 . S
C247 C242 1.377 . S
C247 C246 1.378 . S
C247 H275 0.931 . S
C248 O262 1.259 . S
C248 O263 1.270 . S
C249 O264 1.251 . S
C249 O265 1.251 . S
C250 Eu251 2.835 . S
C250 C252 1.500 . S
C250 O266 1.257 . S
C250 O267 1.260 . S
Eu251 C250 2.835 . S
Eu251 O263 2.355 . S
Eu251 O265 2.374 . S
Eu251 O266 2.473 . S
Eu251 O267 2.480 . S
Eu251 O268 2.430 . S
Eu251 O269 2.670 . S
Eu251 O270 2.394 . S
C252 C250 1.500 . S
C252 C253 1.377 . S
C252 C257 1.377 . S
C253 C252 1.377 . S
C253 C254 1.395 . S
C253 H276 0.931 . S
C254 C253 1.395 . S
C254 C255 1.383 . S
C254 H277 0.931 . S
C255 C254 1.383 . S
C255 C256 1.394 . S
C256 C255 1.394 . S
C256 C257 1.378 . S
C256 H278 0.931 . S
C257 C252 1.377 . S
C257 C256 1.378 . S
C257 H279 0.931 . S
C258 O268 1.259 . S
C258 O269 1.270 . S
C259 O270 1.251 . S
C259 O271 1.251 . S
O260 C240 1.257 . S
O260 Eu241 2.473 . S
O261 C240 1.260 . S
O261 Eu241 2.480 . S
O262 Eu241 2.430 . S
O262 C248 1.259 . S
O263 Eu241 2.670 . S
O263 C248 1.270 . S
O263 Eu251 2.355 . S
O264 Eu241 2.394 . S
O264 C249 1.251 . S
O265 C249 1.251 . S
O265 Eu251 2.374 . S
O266 C250 1.257 . S
O266 Eu251 2.473 . S
O267 C250 1.260 . S
O267 Eu251 2.480 . S
O268 Eu251 2.430 . S
O268 C258 1.259 . S
O269 Eu241 2.355 . S
O269 Eu251 2.670 . S
O269 C258 1.270 . S
O270 Eu251 2.394 . S
O270 C259 1.251 . S
O271 Eu241 2.374 . S
O271 C259 1.251 . S
H272 C243 0.931 . S
H273 C244 0.931 . S
H274 C246 0.931 . S
H275 C247 0.931 . S
H276 C253 0.931 . S
H277 C254 0.931 . S
H278 C256 0.931 . S
H279 C257 0.931 . S
C280 Eu281 2.835 . S
C280 C282 1.500 . S
C280 O300 1.257 . S
C280 O301 1.260 . S
Eu281 C280 2.835 . S
Eu281 O300 2.473 . S
Eu281 O301 2.480 . S
Eu281 O302 2.430 . S
Eu281 O303 2.670 . S
Eu281 O304 2.394 . S
Eu281 O309 2.355 . S
Eu281 O311 2.374 . S
C282 C280 1.500 . S
C282 C283 1.377 . S
C282 C287 1.377 . S
C283 C282 1.377 . S
C283 C284 1.395 . S
C283 H312 0.931 . S
C284 C283 1.395 . S
C284 C285 1.383 . S
C284 H313 0.931 . S
C285 C284 1.383 . S
C285 C286 1.394 . S
C286 C285 1.394 . S
C286 C287 1.378 . S
C286 H314 0.931 . S
C287 C282 1.377 . S
C287 C286 1.378 . S
C287 H315 0.931 . S
C288 O302 1.259 . S
C288 O303 1.270 . S
C289 O304 1.251 . S
C289 O305 1.251 . S
C290 Eu291 2.835 . S
C290 C292 1.500 . S
C290 O306 1.257 . S
C290 O307 1.260 . S
Eu291 C290 2.835 . S
Eu291 O303 2.355 . S
Eu291 O305 2.374 . S
Eu291 O306 2.473 . S
Eu291 O307 2.480 . S
Eu291 O308 2.430 . S
Eu291 O309 2.670 . S
Eu291 O310 2.394 . S
C292 C290 1.500 . S
C292 C293 1.377 . S
C292 C297 1.377 . S
C293 C292 1.377 . S
C293 C294 1.395 . S
C293 H316 0.931 . S
C294 C293 1.395 . S
C294 C295 1.383 . S
C294 H317 0.931 . S
C295 C294 1.383 . S
C295 C296 1.394 . S
C296 C295 1.394 . S
C296 C297 1.378 . S
C296 H318 0.931 . S
C297 C292 1.377 . S
C297 C296 1.378 . S
C297 H319 0.931 . S
C298 O308 1.259 . S
C298 O309 1.270 . S
C299 O310 1.251 . S
C299 O311 1.251 . S
O300 C280 1.257 . S
O300 Eu281 2.473 . S
O301 C280 1.260 . S
O301 Eu281 2.480 . S
O302 Eu281 2.430 . S
O302 C288 1.259 . S
O303 Eu281 2.670 . S
O303 C288 1.270 . S
O303 Eu291 2.355 . S
O304 Eu281 2.394 . S
O304 C289 1.251 . S
O305 C289 1.251 . S
O305 Eu291 2.374 . S
O306 C290 1.257 . S
O306 Eu291 2.473 . S
O307 C290 1.260 . S
O307 Eu291 2.480 . S
O308 Eu291 2.430 . S
O308 C298 1.259 . S
O309 Eu281 2.355 . S
O309 Eu291 2.670 . S
O309 C298 1.270 . S
O310 Eu291 2.394 . S
O310 C299 1.251 . S
O311 Eu281 2.374 . S
O311 C299 1.251 . S
H312 C283 0.931 . S
H313 C284 0.931 . S
H314 C286 0.931 . S
H315 C287 0.931 . S
H316 C293 0.931 . S
H317 C294 0.931 . S
H318 C296 0.931 . S
H319 C297 0.931 . S
C320 Eu321 2.835 . S
C320 C322 1.500 . S
C320 O340 1.257 . S
C320 O341 1.260 . S
Eu321 C320 2.835 . S
Eu321 O340 2.473 . S
Eu321 O341 2.480 . S
Eu321 O342 2.430 . S
Eu321 O343 2.670 . S
Eu321 O344 2.394 . S
Eu321 O349 2.355 . S
Eu321 O351 2.374 . S
C322 C320 1.500 . S
C322 C323 1.377 . S
C322 C327 1.377 . S
C323 C322 1.377 . S
C323 C324 1.395 . S
C323 H352 0.931 . S
C324 C323 1.395 . S
C324 C325 1.383 . S
C324 H353 0.931 . S
C325 C324 1.383 . S
C325 C326 1.394 . S
C326 C325 1.394 . S
C326 C327 1.378 . S
C326 H354 0.931 . S
C327 C322 1.377 . S
C327 C326 1.378 . S
C327 H355 0.931 . S
C328 O342 1.259 . S
C328 O343 1.270 . S
C329 O344 1.251 . S
C329 O345 1.251 . S
C330 Eu331 2.835 . S
C330 C332 1.500 1_554 S
C330 O346 1.257 . S
C330 O347 1.260 . S
Eu331 C330 2.835 . S
Eu331 O343 2.355 . S
Eu331 O345 2.374 . S
Eu331 O346 2.473 . S
Eu331 O347 2.480 . S
Eu331 O348 2.430 . S
Eu331 O349 2.670 . S
Eu331 O350 2.394 . S
C332 C330 1.500 1_556 S
C332 C333 1.377 . S
C332 C337 1.377 . S
C333 C332 1.377 . S
C333 C334 1.395 . S
C333 H356 0.931 . S
C334 C333 1.395 . S
C334 C335 1.383 . S
C334 H357 0.931 . S
C335 C334 1.383 . S
C335 C336 1.394 . S
C336 C335 1.394 . S
C336 C337 1.378 . S
C336 H358 0.931 . S
C337 C332 1.377 . S
C337 C336 1.378 . S
C337 H359 0.931 . S
C338 O348 1.259 . S
C338 O349 1.270 . S
C339 O350 1.251 . S
C339 O351 1.251 . S
O340 C320 1.257 . S
O340 Eu321 2.473 . S
O341 C320 1.260 . S
O341 Eu321 2.480 . S
O342 Eu321 2.430 . S
O342 C328 1.259 . S
O343 Eu321 2.670 . S
O343 C328 1.270 . S
O343 Eu331 2.355 . S
O344 Eu321 2.394 . S
O344 C329 1.251 . S
O345 C329 1.251 . S
O345 Eu331 2.374 . S
O346 C330 1.257 . S
O346 Eu331 2.473 . S
O347 C330 1.260 . S
O347 Eu331 2.480 . S
O348 Eu331 2.430 . S
O348 C338 1.259 . S
O349 Eu321 2.355 . S
O349 Eu331 2.670 . S
O349 C338 1.270 . S
O350 Eu331 2.394 . S
O350 C339 1.251 . S
O351 Eu321 2.374 . S
O351 C339 1.251 . S
H352 C323 0.931 . S
H353 C324 0.931 . S
H354 C326 0.931 . S
H355 C327 0.931 . S
H356 C333 0.931 . S
H357 C334 0.931 . S
H358 C336 0.931 . S
H359 C337 0.931 . S
C360 Eu361 2.835 . S
C360 C362 1.500 . S
C360 O380 1.257 . S
C360 O381 1.260 . S
Eu361 C360 2.835 . S
Eu361 O380 2.473 . S
Eu361 O381 2.480 . S
Eu361 O382 2.430 . S
Eu361 O383 2.670 . S
Eu361 O384 2.394 . S
Eu361 O389 2.355 . S
Eu361 O391 2.374 . S
C362 C360 1.500 . S
C362 C363 1.377 . S
C362 C367 1.377 . S
C363 C362 1.377 . S
C363 C364 1.395 . S
C363 H392 0.931 . S
C364 C363 1.395 . S
C364 C365 1.383 . S
C364 H393 0.931 . S
C365 C364 1.383 . S
C365 C366 1.394 . S
C366 C365 1.394 . S
C366 C367 1.378 . S
C366 H394 0.931 . S
C367 C362 1.377 . S
C367 C366 1.378 . S
C367 H395 0.931 . S
C368 O382 1.259 . S
C368 O383 1.270 . S
C369 O384 1.251 . S
C369 O385 1.251 . S
C370 Eu371 2.835 . S
C370 C372 1.500 . S
C370 O386 1.257 . S
C370 O387 1.260 . S
Eu371 C370 2.835 . S
Eu371 O383 2.355 . S
Eu371 O385 2.374 . S
Eu371 O386 2.473 . S
Eu371 O387 2.480 . S
Eu371 O388 2.430 . S
Eu371 O389 2.670 . S
Eu371 O390 2.394 . S
C372 C370 1.500 . S
C372 C373 1.377 . S
C372 C377 1.377 . S
C373 C372 1.377 . S
C373 C374 1.395 . S
C373 H396 0.931 . S
C374 C373 1.395 . S
C374 C375 1.383 . S
C374 H397 0.931 . S
C375 C374 1.383 . S
C375 C376 1.394 . S
C376 C375 1.394 . S
C376 C377 1.378 . S
C376 H398 0.931 . S
C377 C372 1.377 . S
C377 C376 1.378 . S
C377 H399 0.931 . S
C378 O388 1.259 . S
C378 O389 1.270 . S
C379 O390 1.251 . S
C379 O391 1.251 . S
O380 C360 1.257 . S
O380 Eu361 2.473 . S
O381 C360 1.260 . S
O381 Eu361 2.480 . S
O382 Eu361 2.430 . S
O382 C368 1.259 . S
O383 Eu361 2.670 . S
O383 C368 1.270 . S
O383 Eu371 2.355 . S
O384 Eu361 2.394 . S
O384 C369 1.251 . S
O385 C369 1.251 . S
O385 Eu371 2.374 . S
O386 C370 1.257 . S
O386 Eu371 2.473 . S
O387 C370 1.260 . S
O387 Eu371 2.480 . S
O388 Eu371 2.430 . S
O388 C378 1.259 . S
O389 Eu361 2.355 . S
O389 Eu371 2.670 . S
O389 C378 1.270 . S
O390 Eu371 2.394 . S
O390 C379 1.251 . S
O391 Eu361 2.374 . S
O391 C379 1.251 . S
H392 C363 0.931 . S
H393 C364 0.931 . S
H394 C366 0.931 . S
H395 C367 0.931 . S
H396 C373 0.931 . S
H397 C374 0.931 . S
H398 C376 0.931 . S
H399 C377 0.931 . S
C400 Eu401 2.835 . S
C400 C402 1.500 . S
C400 O420 1.257 . S
C400 O421 1.260 . S
Eu401 C400 2.835 . S
Eu401 O420 2.473 . S
Eu401 O421 2.480 . S
Eu401 O422 2.430 . S
Eu401 O423 2.670 . S
Eu401 O424 2.394 . S
Eu401 O429 2.355 . S
Eu401 O431 2.374 . S
C402 C400 1.500 . S
C402 C403 1.377 . S
C402 C407 1.377 . S
C403 C402 1.377 . S
C403 C404 1.395 . S
C403 H432 0.931 . S
C404 C403 1.395 . S
C404 C405 1.383 . S
C404 H433 0.931 . S
C405 C404 1.383 . S
C405 C406 1.394 . S
C406 C405 1.394 . S
C406 C407 1.378 . S
C406 H434 0.931 . S
C407 C402 1.377 . S
C407 C406 1.378 . S
C407 H435 0.931 . S
C408 O422 1.259 . S
C408 O423 1.270 . S
C409 O424 1.251 . S
C409 O425 1.251 . S
C410 Eu411 2.835 . S
C410 C412 1.500 . S
C410 O426 1.257 . S
C410 O427 1.260 . S
Eu411 C410 2.835 . S
Eu411 O423 2.355 . S
Eu411 O425 2.374 . S
Eu411 O426 2.473 . S
Eu411 O427 2.480 . S
Eu411 O428 2.430 . S
Eu411 O429 2.670 . S
Eu411 O430 2.394 . S
C412 C410 1.500 . S
C412 C413 1.377 . S
C412 C417 1.377 . S
C413 C412 1.377 . S
C413 C414 1.395 . S
C413 H436 0.931 . S
C414 C413 1.395 . S
C414 C415 1.383 . S
C414 H437 0.931 . S
C415 C414 1.383 . S
C415 C416 1.394 . S
C416 C415 1.394 . S
C416 C417 1.378 . S
C416 H438 0.931 . S
C417 C412 1.377 . S
C417 C416 1.378 . S
C417 H439 0.931 . S
C418 O428 1.259 . S
C418 O429 1.270 . S
C419 O430 1.251 . S
C419 O431 1.251 . S
O420 C400 1.257 . S
O420 Eu401 2.473 . S
O421 C400 1.260 . S
O421 Eu401 2.480 . S
O422 Eu401 2.430 . S
O422 C408 1.259 . S
O423 Eu401 2.670 . S
O423 C408 1.270 . S
O423 Eu411 2.355 . S
O424 Eu401 2.394 . S
O424 C409 1.251 . S
O425 C409 1.251 . S
O425 Eu411 2.374 . S
O426 C410 1.257 . S
O426 Eu411 2.473 . S
O427 C410 1.260 . S
O427 Eu411 2.480 . S
O428 Eu411 2.430 . S
O428 C418 1.259 . S
O429 Eu401 2.355 . S
O429 Eu411 2.670 . S
O429 C418 1.270 . S
O430 Eu411 2.394 . S
O430 C419 1.251 . S
O431 Eu401 2.374 . S
O431 C419 1.251 . S
H432 C403 0.931 . S
H433 C404 0.931 . S
H434 C406 0.931 . S
H435 C407 0.931 . S
H436 C413 0.931 . S
H437 C414 0.931 . S
H438 C416 0.931 . S
H439 C417 0.931 . S
C440 Eu441 2.835 . S
C440 C442 1.500 . S
C440 O460 1.257 . S
C440 O461 1.260 . S
Eu441 C440 2.835 . S
Eu441 O460 2.473 . S
Eu441 O461 2.480 . S
Eu441 O462 2.430 . S
Eu441 O463 2.670 . S
Eu441 O464 2.394 . S
Eu441 O469 2.355 . S
Eu441 O471 2.374 . S
C442 C440 1.500 . S
C442 C443 1.377 . S
C442 C447 1.377 . S
C443 C442 1.377 . S
C443 C444 1.395 . S
C443 H472 0.931 . S
C444 C443 1.395 . S
C444 C445 1.383 . S
C444 H473 0.931 . S
C445 C444 1.383 . S
C445 C446 1.394 . S
C446 C445 1.394 . S
C446 C447 1.378 . S
C446 H474 0.931 . S
C447 C442 1.377 . S
C447 C446 1.378 . S
C447 H475 0.931 . S
C448 O462 1.259 . S
C448 O463 1.270 . S
C449 O464 1.251 . S
C449 O465 1.251 . S
C450 Eu451 2.835 . S
C450 C452 1.500 1_554 S
C450 O466 1.257 . S
C450 O467 1.260 . S
Eu451 C450 2.835 . S
Eu451 O463 2.355 . S
Eu451 O465 2.374 . S
Eu451 O466 2.473 . S
Eu451 O467 2.480 . S
Eu451 O468 2.430 . S
Eu451 O469 2.670 . S
Eu451 O470 2.394 . S
C452 C450 1.500 1_556 S
C452 C453 1.377 . S
C452 C457 1.377 . S
C453 C452 1.377 . S
C453 C454 1.395 . S
C453 H476 0.931 . S
C454 C453 1.395 . S
C454 C455 1.383 . S
C454 H477 0.931 . S
C455 C454 1.383 . S
C455 C456 1.394 . S
C456 C455 1.394 . S
C456 C457 1.378 . S
C456 H478 0.931 . S
C457 C452 1.377 . S
C457 C456 1.378 . S
C457 H479 0.931 . S
C458 O468 1.259 . S
C458 O469 1.270 . S
C459 O470 1.251 . S
C459 O471 1.251 . S
O460 C440 1.257 . S
O460 Eu441 2.473 . S
O461 C440 1.260 . S
O461 Eu441 2.480 . S
O462 Eu441 2.430 . S
O462 C448 1.259 . S
O463 Eu441 2.670 . S
O463 C448 1.270 . S
O463 Eu451 2.355 . S
O464 Eu441 2.394 . S
O464 C449 1.251 . S
O465 C449 1.251 . S
O465 Eu451 2.374 . S
O466 C450 1.257 . S
O466 Eu451 2.473 . S
O467 C450 1.260 . S
O467 Eu451 2.480 . S
O468 Eu451 2.430 . S
O468 C458 1.259 . S
O469 Eu441 2.355 . S
O469 Eu451 2.670 . S
O469 C458 1.270 . S
O470 Eu451 2.394 . S
O470 C459 1.251 . S
O471 Eu441 2.374 . S
O471 C459 1.251 . S
H472 C443 0.931 . S
H473 C444 0.931 . S
H474 C446 0.931 . S
H475 C447 0.931 . S
H476 C453 0.931 . S
H477 C454 0.931 . S
H478 C456 0.931 . S
H479 C457 0.931 . S
C480 C481 1.349 . S
C480 C482 1.327 . S
C480 H505 0.950 . S
C481 C480 1.349 . S
C481 C497 1.349 . S
C482 C480 1.327 . S
C482 C501 1.429 . S
C482 H506 0.950 . S
C483 C500 1.574 . S
C483 C502 1.368 . S
C483 H507 0.949 . S
H484 C488 0.949 . S
C485 C486 1.349 . S
C485 C487 1.327 . S
C485 H508 0.950 . S
C486 C485 1.349 . S
C486 C498 1.349 . S
C487 C485 1.327 . S
C487 C503 1.429 . S
C487 H509 0.950 . S
C488 H484 0.949 . S
C488 C496 1.574 . S
C488 C504 1.368 . S
H489 C497 0.950 . S
H490 C495 0.950 . S
H491 C496 0.949 . S
H492 C498 0.950 . S
H493 C499 0.950 . S
H494 C500 0.949 . S
C495 H490 0.950 . S
C495 C497 1.327 . S
C495 C501 1.429 . S
C496 C488 1.574 . S
C496 H491 0.949 . S
C496 C502 1.368 . S
C497 C481 1.349 . S
C497 H489 0.950 . S
C497 C495 1.327 . S
C498 C486 1.349 . S
C498 H492 0.950 . S
C498 C499 1.327 . S
C499 H493 0.950 . S
C499 C498 1.327 . S
C499 C503 1.429 . S
C500 C483 1.574 . S
C500 H494 0.949 . S
C500 C504 1.368 . S
C501 C482 1.429 . S
C501 C495 1.429 . S
C501 C502 1.523 . S
C502 C483 1.368 . S
C502 C496 1.368 . S
C502 C501 1.523 . S
C503 C487 1.429 . S
C503 C499 1.429 . S
C503 C504 1.523 . S
C504 C488 1.368 . S
C504 C500 1.368 . S
C504 C503 1.523 . S
H505 C480 0.950 . S
H506 C482 0.950 . S
H507 C483 0.949 . S
H508 C485 0.950 . S
H509 C487 0.950 . S
C510 C511 1.349 . S
C510 C512 1.327 . S
C510 H535 0.950 . S
C511 C510 1.349 . S
C511 C527 1.349 . S
C512 C510 1.327 . S
C512 C531 1.429 . S
C512 H536 0.950 . S
C513 C530 1.574 . S
C513 C532 1.368 . S
C513 H537 0.949 . S
H514 C518 0.949 . S
C515 C516 1.349 . S
C515 C517 1.327 . S
C515 H538 0.950 . S
C516 C515 1.349 . S
C516 C528 1.349 . S
C517 C515 1.327 . S
C517 C533 1.429 . S
C517 H539 0.950 . S
C518 H514 0.949 . S
C518 C526 1.574 . S
C518 C534 1.368 . S
H519 C527 0.950 . S
H520 C525 0.950 . S
H521 C526 0.949 . S
H522 C528 0.950 . S
H523 C529 0.950 . S
H524 C530 0.949 . S
C525 H520 0.950 . S
C525 C527 1.327 . S
C525 C531 1.429 . S
C526 C518 1.574 . S
C526 H521 0.949 . S
C526 C532 1.368 . S
C527 C511 1.349 . S
C527 H519 0.950 . S
C527 C525 1.327 . S
C528 C516 1.349 . S
C528 H522 0.950 . S
C528 C529 1.327 . S
C529 H523 0.950 . S
C529 C528 1.327 . S
C529 C533 1.429 . S
C530 C513 1.574 . S
C530 H524 0.949 . S
C530 C534 1.368 . S
C531 C512 1.429 . S
C531 C525 1.429 . S
C531 C532 1.523 . S
C532 C513 1.368 . S
C532 C526 1.368 . S
C532 C531 1.523 . S
C533 C517 1.429 . S
C533 C529 1.429 . S
C533 C534 1.523 . S
C534 C518 1.368 . S
C534 C530 1.368 . S
C534 C533 1.523 . S
H535 C510 0.950 . S
H536 C512 0.950 . S
H537 C513 0.949 . S
H538 C515 0.950 . S
H539 C517 0.950 . S
C540 C541 1.349 . S
C540 C542 1.327 . S
C540 H565 0.950 . S
C541 C540 1.349 . S
C541 C557 1.349 . S
C542 C540 1.327 . S
C542 C561 1.429 . S
C542 H566 0.950 . S
C543 C560 1.574 . S
C543 C562 1.368 . S
C543 H567 0.949 . S
H544 C548 0.949 . S
C545 C546 1.349 . S
C545 C547 1.327 . S
C545 H568 0.950 . S
C546 C545 1.349 . S
C546 C558 1.349 . S
C547 C545 1.327 . S
C547 C563 1.429 . S
C547 H569 0.950 . S
C548 H544 0.949 . S
C548 C556 1.574 . S
C548 C564 1.368 . S
H549 C557 0.950 . S
H550 C555 0.950 . S
H551 C556 0.949 . S
H552 C558 0.950 . S
H553 C559 0.950 . S
H554 C560 0.949 . S
C555 H550 0.950 . S
C555 C557 1.327 . S
C555 C561 1.429 . S
C556 C548 1.574 . S
C556 H551 0.949 . S
C556 C562 1.368 . S
C557 C541 1.349 . S
C557 H549 0.950 . S
C557 C555 1.327 . S
C558 C546 1.349 . S
C558 H552 0.950 . S
C558 C559 1.327 . S
C559 H553 0.950 . S
C559 C558 1.327 . S
C559 C563 1.429 . S
C560 C543 1.574 . S
C560 H554 0.949 . S
C560 C564 1.368 . S
C561 C542 1.429 . S
C561 C555 1.429 . S
C561 C562 1.523 . S
C562 C543 1.368 . S
C562 C556 1.368 . S
C562 C561 1.523 . S
C563 C547 1.429 . S
C563 C559 1.429 . S
C563 C564 1.523 . S
C564 C548 1.368 . S
C564 C560 1.368 . S
C564 C563 1.523 . S
H565 C540 0.950 . S
H566 C542 0.950 . S
H567 C543 0.949 . S
H568 C545 0.950 . S
H569 C547 0.950 . S
C570 C571 1.349 . S
C570 C572 1.327 . S
C570 H595 0.950 . S
C571 C570 1.349 . S
C571 C587 1.349 . S
C572 C570 1.327 . S
C572 C591 1.429 . S
C572 H596 0.950 . S
C573 C590 1.574 . S
C573 C592 1.368 . S
C573 H597 0.949 . S
H574 C578 0.949 . S
C575 C576 1.349 . S
C575 C577 1.327 . S
C575 H598 0.950 . S
C576 C575 1.349 . S
C576 C588 1.349 . S
C577 C575 1.327 . S
C577 C593 1.429 . S
C577 H599 0.950 . S
C578 H574 0.949 . S
C578 C586 1.574 . S
C578 C594 1.368 . S
H579 C587 0.950 . S
H580 C585 0.950 . S
H581 C586 0.949 . S
H582 C588 0.950 . S
H583 C589 0.950 . S
H584 C590 0.949 . S
C585 H580 0.950 . S
C585 C587 1.327 . S
C585 C591 1.429 . S
C586 C578 1.574 . S
C586 H581 0.949 . S
C586 C592 1.368 . S
C587 C571 1.349 . S
C587 H579 0.950 . S
C587 C585 1.327 . S
C588 C576 1.349 . S
C588 H582 0.950 . S
C588 C589 1.327 . S
C589 H583 0.950 . S
C589 C588 1.327 . S
C589 C593 1.429 . S
C590 C573 1.574 . S
C590 H584 0.949 . S
C590 C594 1.368 . S
C591 C572 1.429 . S
C591 C585 1.429 . S
C591 C592 1.523 . S
C592 C573 1.368 . S
C592 C586 1.368 . S
C592 C591 1.523 . S
C593 C577 1.429 . S
C593 C589 1.429 . S
C593 C594 1.523 . S
C594 C578 1.368 . S
C594 C590 1.368 . S
C594 C593 1.523 . S
H595 C570 0.950 . S
H596 C572 0.950 . S
H597 C573 0.949 . S
H598 C575 0.950 . S
H599 C577 0.950 . S
C600 C601 1.349 . S
C600 C602 1.327 . S
C600 H625 0.950 . S
C601 C600 1.349 . S
C601 C617 1.349 . S
C602 C600 1.327 . S
C602 C621 1.429 . S
C602 H626 0.950 . S
C603 C620 1.574 . S
C603 C622 1.368 . S
C603 H627 0.949 . S
H604 C608 0.949 . S
C605 C606 1.349 . S
C605 C607 1.327 . S
C605 H628 0.950 . S
C606 C605 1.349 . S
C606 C618 1.349 . S
C607 C605 1.327 . S
C607 C623 1.429 . S
C607 H629 0.950 . S
C608 H604 0.949 . S
C608 C616 1.574 . S
C608 C624 1.368 . S
H609 C617 0.950 . S
H610 C615 0.950 . S
H611 C616 0.949 . S
H612 C618 0.950 . S
H613 C619 0.950 . S
H614 C620 0.949 . S
C615 H610 0.950 . S
C615 C617 1.327 . S
C615 C621 1.429 . S
C616 C608 1.574 . S
C616 H611 0.949 . S
C616 C622 1.368 . S
C617 C601 1.349 . S
C617 H609 0.950 . S
C617 C615 1.327 . S
C618 C606 1.349 . S
C618 H612 0.950 . S
C618 C619 1.327 . S
C619 H613 0.950 . S
C619 C618 1.327 . S
C619 C623 1.429 . S
C620 C603 1.574 . S
C620 H614 0.949 . S
C620 C624 1.368 . S
C621 C602 1.429 . S
C621 C615 1.429 . S
C621 C622 1.523 . S
C622 C603 1.368 . S
C622 C616 1.368 . S
C622 C621 1.523 . S
C623 C607 1.429 . S
C623 C619 1.429 . S
C623 C624 1.523 . S
C624 C608 1.368 . S
C624 C620 1.368 . S
C624 C623 1.523 . S
H625 C600 0.950 . S
H626 C602 0.950 . S
H627 C603 0.949 . S
H628 C605 0.950 . S
H629 C607 0.950 . S
C630 C631 1.349 . S
C630 C632 1.327 . S
C630 H655 0.950 . S
C631 C630 1.349 . S
C631 C647 1.349 . S
C632 C630 1.327 . S
C632 C651 1.429 . S
C632 H656 0.950 . S
C633 C650 1.574 . S
C633 C652 1.368 . S
C633 H657 0.949 . S
H634 C638 0.949 . S
C635 C636 1.349 . S
C635 C637 1.327 . S
C635 H658 0.950 . S
C636 C635 1.349 . S
C636 C648 1.349 . S
C637 C635 1.327 . S
C637 C653 1.429 . S
C637 H659 0.950 . S
C638 H634 0.949 . S
C638 C646 1.574 . S
C638 C654 1.368 . S
H639 C647 0.950 . S
H640 C645 0.950 . S
H641 C646 0.949 . S
H642 C648 0.950 . S
H643 C649 0.950 . S
H644 C650 0.949 . S
C645 H640 0.950 . S
C645 C647 1.327 . S
C645 C651 1.429 . S
C646 C638 1.574 . S
C646 H641 0.949 . S
C646 C652 1.368 . S
C647 C631 1.349 . S
C647 H639 0.950 . S
C647 C645 1.327 . S
C648 C636 1.349 . S
C648 H642 0.950 . S
C648 C649 1.327 . S
C649 H643 0.950 . S
C649 C648 1.327 . S
C649 C653 1.429 . S
C650 C633 1.574 . S
C650 H644 0.949 . S
C650 C654 1.368 . S
C651 C632 1.429 . S
C651 C645 1.429 . S
C651 C652 1.523 . S
C652 C633 1.368 . S
C652 C646 1.368 . S
C652 C651 1.523 . S
C653 C637 1.429 . S
C653 C649 1.429 . S
C653 C654 1.523 . S
C654 C638 1.368 . S
C654 C650 1.368 . S
C654 C653 1.523 . S
H655 C630 0.950 . S
H656 C632 0.950 . S
H657 C633 0.949 . S
H658 C635 0.950 . S
H659 C637 0.950 . S
C660 C661 1.349 . S
C660 C662 1.327 . S
C660 H685 0.950 . S
C661 C660 1.349 . S
C661 C677 1.349 . S
C662 C660 1.327 . S
C662 C681 1.429 . S
C662 H686 0.950 . S
C663 C680 1.574 1_556 S
C663 C682 1.368 . S
C663 H687 0.949 . S
H664 C668 0.949 . S
C665 C666 1.349 . S
C665 C667 1.327 . S
C665 H688 0.950 . S
C666 C665 1.349 . S
C666 C678 1.349 . S
C667 C665 1.327 . S
C667 C683 1.429 . S
C667 H689 0.950 . S
C668 H664 0.949 . S
C668 C676 1.574 1_554 S
C668 C684 1.368 . S
H669 C677 0.950 . S
H670 C675 0.950 . S
H671 C676 0.949 . S
H672 C678 0.950 . S
H673 C679 0.950 . S
H674 C680 0.949 . S
C675 H670 0.950 . S
C675 C677 1.327 . S
C675 C681 1.429 . S
C676 C668 1.574 1_556 S
C676 H671 0.949 . S
C676 C682 1.368 . S
C677 C661 1.349 . S
C677 H669 0.950 . S
C677 C675 1.327 . S
C678 C666 1.349 . S
C678 H672 0.950 . S
C678 C679 1.327 . S
C679 H673 0.950 . S
C679 C678 1.327 . S
C679 C683 1.429 . S
C680 C663 1.574 1_554 S
C680 H674 0.949 . S
C680 C684 1.368 . S
C681 C662 1.429 . S
C681 C675 1.429 . S
C681 C682 1.523 . S
C682 C663 1.368 . S
C682 C676 1.368 . S
C682 C681 1.523 . S
C683 C667 1.429 . S
C683 C679 1.429 . S
C683 C684 1.523 . S
C684 C668 1.368 . S
C684 C680 1.368 . S
C684 C683 1.523 . S
H685 C660 0.950 . S
H686 C662 0.950 . S
H687 C663 0.949 . S
H688 C665 0.950 . S
H689 C667 0.950 . S
C690 C691 1.349 . S
C690 C692 1.327 . S
C690 H715 0.950 . S
C691 C690 1.349 . S
C691 C707 1.349 . S
C692 C690 1.327 . S
C692 C711 1.429 . S
C692 H716 0.950 . S
C693 C710 1.574 . S
C693 C712 1.368 . S
C693 H717 0.949 . S
H694 C698 0.949 . S
C695 C696 1.349 . S
C695 C697 1.327 . S
C695 H718 0.950 . S
C696 C695 1.349 . S
C696 C708 1.349 . S
C697 C695 1.327 . S
C697 C713 1.429 . S
C697 H719 0.950 . S
C698 H694 0.949 . S
C698 C706 1.574 . S
C698 C714 1.368 . S
H699 C707 0.950 . S
H700 C705 0.950 . S
H701 C706 0.949 . S
H702 C708 0.950 . S
H703 C709 0.950 . S
H704 C710 0.949 . S
C705 H700 0.950 . S
C705 C707 1.327 . S
C705 C711 1.429 . S
C706 C698 1.574 . S
C706 H701 0.949 . S
C706 C712 1.368 . S
C707 C691 1.349 . S
C707 H699 0.950 . S
C707 C705 1.327 . S
C708 C696 1.349 . S
C708 H702 0.950 . S
C708 C709 1.327 . S
C709 H703 0.950 . S
C709 C708 1.327 . S
C709 C713 1.429 . S
C710 C693 1.574 . S
C710 H704 0.949 . S
C710 C714 1.368 . S
C711 C692 1.429 . S
C711 C705 1.429 . S
C711 C712 1.523 . S
C712 C693 1.368 . S
C712 C706 1.368 . S
C712 C711 1.523 . S
C713 C697 1.429 . S
C713 C709 1.429 . S
C713 C714 1.523 . S
C714 C698 1.368 . S
C714 C710 1.368 . S
C714 C713 1.523 . S
H715 C690 0.950 . S
H716 C692 0.950 . S
H717 C693 0.949 . S
H718 C695 0.950 . S
H719 C697 0.950 . S
C720 C721 1.349 . S
C720 C722 1.327 . S
C720 H745 0.950 . S
C721 C720 1.349 . S
C721 C737 1.349 . S
C722 C720 1.327 . S
C722 C741 1.429 . S
C722 H746 0.950 . S
C723 C740 1.574 . S
C723 C742 1.368 . S
C723 H747 0.949 . S
H724 C728 0.949 . S
C725 C726 1.349 . S
C725 C727 1.327 . S
C725 H748 0.950 . S
C726 C725 1.349 . S
C726 C738 1.349 . S
C727 C725 1.327 . S
C727 C743 1.429 . S
C727 H749 0.950 . S
C728 H724 0.949 . S
C728 C736 1.574 . S
C728 C744 1.368 . S
H729 C737 0.950 . S
H730 C735 0.950 . S
H731 C736 0.949 . S
H732 C738 0.950 . S
H733 C739 0.950 . S
H734 C740 0.949 . S
C735 H730 0.950 . S
C735 C737 1.327 . S
C735 C741 1.429 . S
C736 C728 1.574 . S
C736 H731 0.949 . S
C736 C742 1.368 . S
C737 C721 1.349 . S
C737 H729 0.950 . S
C737 C735 1.327 . S
C738 C726 1.349 . S
C738 H732 0.950 . S
C738 C739 1.327 . S
C739 H733 0.950 . S
C739 C738 1.327 . S
C739 C743 1.429 . S
C740 C723 1.574 . S
C740 H734 0.949 . S
C740 C744 1.368 . S
C741 C722 1.429 . S
C741 C735 1.429 . S
C741 C742 1.523 . S
C742 C723 1.368 . S
C742 C736 1.368 . S
C742 C741 1.523 . S
C743 C727 1.429 . S
C743 C739 1.429 . S
C743 C744 1.523 . S
C744 C728 1.368 . S
C744 C740 1.368 . S
C744 C743 1.523 . S
H745 C720 0.950 . S
H746 C722 0.950 . S
H747 C723 0.949 . S
H748 C725 0.950 . S
H749 C727 0.950 . S
C750 C751 1.349 . S
C750 C752 1.327 . S
C750 H775 0.950 . S
C751 C750 1.349 . S
C751 C767 1.349 . S
C752 C750 1.327 . S
C752 C771 1.429 . S
C752 H776 0.950 . S
C753 C770 1.574 1_556 S
C753 C772 1.368 . S
C753 H777 0.949 . S
H754 C758 0.949 . S
C755 C756 1.349 . S
C755 C757 1.327 . S
C755 H778 0.950 . S
C756 C755 1.349 . S
C756 C768 1.349 . S
C757 C755 1.327 . S
C757 C773 1.429 . S
C757 H779 0.950 . S
C758 H754 0.949 . S
C758 C766 1.574 1_554 S
C758 C774 1.368 . S
H759 C767 0.950 . S
H760 C765 0.950 . S
H761 C766 0.949 . S
H762 C768 0.950 . S
H763 C769 0.950 . S
H764 C770 0.949 . S
C765 H760 0.950 . S
C765 C767 1.327 . S
C765 C771 1.429 . S
C766 C758 1.574 1_556 S
C766 H761 0.949 . S
C766 C772 1.368 . S
C767 C751 1.349 . S
C767 H759 0.950 . S
C767 C765 1.327 . S
C768 C756 1.349 . S
C768 H762 0.950 . S
C768 C769 1.327 . S
C769 H763 0.950 . S
C769 C768 1.327 . S
C769 C773 1.429 . S
C770 C753 1.574 1_554 S
C770 H764 0.949 . S
C770 C774 1.368 . S
C771 C752 1.429 . S
C771 C765 1.429 . S
C771 C772 1.523 . S
C772 C753 1.368 . S
C772 C766 1.368 . S
C772 C771 1.523 . S
C773 C757 1.429 . S
C773 C769 1.429 . S
C773 C774 1.523 . S
C774 C758 1.368 . S
C774 C770 1.368 . S
C774 C773 1.523 . S
H775 C750 0.950 . S
H776 C752 0.950 . S
H777 C753 0.949 . S
H778 C755 0.950 . S
H779 C757 0.950 . S
C780 C781 1.349 . S
C780 C782 1.327 . S
C780 H805 0.950 . S
C781 C780 1.349 . S
C781 C797 1.349 . S
C782 C780 1.327 . S
C782 C801 1.429 . S
C782 H806 0.950 . S
C783 C800 1.574 . S
C783 C802 1.368 . S
C783 H807 0.949 . S
H784 C788 0.949 . S
C785 C786 1.349 . S
C785 C787 1.327 . S
C785 H808 0.950 . S
C786 C785 1.349 . S
C786 C798 1.349 . S
C787 C785 1.327 . S
C787 C803 1.429 . S
C787 H809 0.950 . S
C788 H784 0.949 . S
C788 C796 1.574 . S
C788 C804 1.368 . S
H789 C797 0.950 . S
H790 C795 0.950 . S
H791 C796 0.949 . S
H792 C798 0.950 . S
H793 C799 0.950 . S
H794 C800 0.949 . S
C795 H790 0.950 . S
C795 C797 1.327 . S
C795 C801 1.429 . S
C796 C788 1.574 . S
C796 H791 0.949 . S
C796 C802 1.368 . S
C797 C781 1.349 . S
C797 H789 0.950 . S
C797 C795 1.327 . S
C798 C786 1.349 . S
C798 H792 0.950 . S
C798 C799 1.327 . S
C799 H793 0.950 . S
C799 C798 1.327 . S
C799 C803 1.429 . S
C800 C783 1.574 . S
C800 H794 0.949 . S
C800 C804 1.368 . S
C801 C782 1.429 . S
C801 C795 1.429 . S
C801 C802 1.523 . S
C802 C783 1.368 . S
C802 C796 1.368 . S
C802 C801 1.523 . S
C803 C787 1.429 . S
C803 C799 1.429 . S
C803 C804 1.523 . S
C804 C788 1.368 . S
C804 C800 1.368 . S
C804 C803 1.523 . S
H805 C780 0.950 . S
H806 C782 0.950 . S
H807 C783 0.949 . S
H808 C785 0.950 . S
H809 C787 0.950 . S
C810 C811 1.349 . S
C810 C812 1.327 . S
C810 H835 0.950 . S
C811 C810 1.349 . S
C811 C827 1.349 . S
C812 C810 1.327 . S
C812 C831 1.429 . S
C812 H836 0.950 . S
C813 C830 1.574 . S
C813 C832 1.368 . S
C813 H837 0.949 . S
H814 C818 0.949 . S
C815 C816 1.349 . S
C815 C817 1.327 . S
C815 H838 0.950 . S
C816 C815 1.349 . S
C816 C828 1.349 . S
C817 C815 1.327 . S
C817 C833 1.429 . S
C817 H839 0.950 . S
C818 H814 0.949 . S
C818 C826 1.574 . S
C818 C834 1.368 . S
H819 C827 0.950 . S
H820 C825 0.950 . S
H821 C826 0.949 . S
H822 C828 0.950 . S
H823 C829 0.950 . S
H824 C830 0.949 . S
C825 H820 0.950 . S
C825 C827 1.327 . S
C825 C831 1.429 . S
C826 C818 1.574 . S
C826 H821 0.949 . S
C826 C832 1.368 . S
C827 C811 1.349 . S
C827 H819 0.950 . S
C827 C825 1.327 . S
C828 C816 1.349 . S
C828 H822 0.950 . S
C828 C829 1.327 . S
C829 H823 0.950 . S
C829 C828 1.327 . S
C829 C833 1.429 . S
C830 C813 1.574 . S
C830 H824 0.949 . S
C830 C834 1.368 . S
C831 C812 1.429 . S
C831 C825 1.429 . S
C831 C832 1.523 . S
C832 C813 1.368 . S
C832 C826 1.368 . S
C832 C831 1.523 . S
C833 C817 1.429 . S
C833 C829 1.429 . S
C833 C834 1.523 . S
C834 C818 1.368 . S
C834 C830 1.368 . S
C834 C833 1.523 . S
H835 C810 0.950 . S
H836 C812 0.950 . S
H837 C813 0.949 . S
H838 C815 0.950 . S
H839 C817 0.950 . S
C840 C841 1.349 . S
C840 C842 1.327 . S
C840 H865 0.950 . S
C841 C840 1.349 . S
C841 C857 1.349 . S
C842 C840 1.327 . S
C842 C861 1.429 . S
C842 H866 0.950 . S
C843 C860 1.574 1_556 S
C843 C862 1.368 . S
C843 H867 0.949 . S
H844 C848 0.949 . S
C845 C846 1.349 . S
C845 C847 1.327 . S
C845 H868 0.950 . S
C846 C845 1.349 . S
C846 C858 1.349 . S
C847 C845 1.327 . S
C847 C863 1.429 . S
C847 H869 0.950 . S
C848 H844 0.949 . S
C848 C856 1.574 1_554 S
C848 C864 1.368 . S
H849 C857 0.950 . S
H850 C855 0.950 . S
H851 C856 0.949 . S
H852 C858 0.950 . S
H853 C859 0.950 . S
H854 C860 0.949 . S
C855 H850 0.950 . S
C855 C857 1.327 . S
C855 C861 1.429 . S
C856 C848 1.574 1_556 S
C856 H851 0.949 . S
C856 C862 1.368 1_545 S
C857 C841 1.349 . S
C857 H849 0.950 . S
C857 C855 1.327 . S
C858 C846 1.349 . S
C858 H852 0.950 . S
C858 C859 1.327 . S
C859 H853 0.950 . S
C859 C858 1.327 . S
C859 C863 1.429 . S
C860 C843 1.574 1_554 S
C860 H854 0.949 . S
C860 C864 1.368 1_565 S
C861 C842 1.429 . S
C861 C855 1.429 . S
C861 C862 1.523 . S
C862 C843 1.368 . S
C862 C856 1.368 1_565 S
C862 C861 1.523 . S
C863 C847 1.429 . S
C863 C859 1.429 . S
C863 C864 1.523 . S
C864 C848 1.368 . S
C864 C860 1.368 1_545 S
C864 C863 1.523 . S
H865 C840 0.950 . S
H866 C842 0.950 . S
H867 C843 0.949 . S
H868 C845 0.950 . S
H869 C847 0.950 . S
C870 C871 1.349 . S
C870 C872 1.327 . S
C870 H895 0.950 . S
C871 C870 1.349 . S
C871 C887 1.349 . S
C872 C870 1.327 . S
C872 C891 1.429 . S
C872 H896 0.950 . S
C873 C890 1.574 . S
C873 C892 1.368 . S
C873 H897 0.949 . S
H874 C878 0.949 . S
C875 C876 1.349 . S
C875 C877 1.327 . S
C875 H898 0.950 . S
C876 C875 1.349 . S
C876 C888 1.349 . S
C877 C875 1.327 . S
C877 C893 1.429 . S
C877 H899 0.950 . S
C878 H874 0.949 . S
C878 C886 1.574 . S
C878 C894 1.368 . S
H879 C887 0.950 . S
H880 C885 0.950 . S
H881 C886 0.949 . S
H882 C888 0.950 . S
H883 C889 0.950 . S
H884 C890 0.949 . S
C885 H880 0.950 . S
C885 C887 1.327 . S
C885 C891 1.429 . S
C886 C878 1.574 . S
C886 H881 0.949 . S
C886 C892 1.368 . S
C887 C871 1.349 . S
C887 H879 0.950 . S
C887 C885 1.327 . S
C888 C876 1.349 . S
C888 H882 0.950 . S
C888 C889 1.327 . S
C889 H883 0.950 . S
C889 C888 1.327 . S
C889 C893 1.429 . S
C890 C873 1.574 . S
C890 H884 0.949 . S
C890 C894 1.368 . S
C891 C872 1.429 . S
C891 C885 1.429 . S
C891 C892 1.523 . S
C892 C873 1.368 . S
C892 C886 1.368 . S
C892 C891 1.523 . S
C893 C877 1.429 . S
C893 C889 1.429 . S
C893 C894 1.523 . S
C894 C878 1.368 . S
C894 C890 1.368 . S
C894 C893 1.523 . S
H895 C870 0.950 . S
H896 C872 0.950 . S
H897 C873 0.949 . S
H898 C875 0.950 . S
H899 C877 0.950 . S
C900 C901 1.349 . S
C900 C902 1.327 . S
C900 H925 0.950 . S
C901 C900 1.349 . S
C901 C917 1.349 . S
C902 C900 1.327 . S
C902 C921 1.429 . S
C902 H926 0.950 . S
C903 C920 1.574 1_455 S
C903 C922 1.368 . S
C903 H927 0.949 . S
H904 C908 0.949 . S
C905 C906 1.349 . S
C905 C907 1.327 . S
C905 H928 0.950 . S
C906 C905 1.349 . S
C906 C918 1.349 . S
C907 C905 1.327 . S
C907 C923 1.429 . S
C907 H929 0.950 . S
C908 H904 0.949 . S
C908 C916 1.574 1_655 S
C908 C924 1.368 . S
H909 C917 0.950 . S
H910 C915 0.950 . S
H911 C916 0.949 . S
H912 C918 0.950 . S
H913 C919 0.950 . S
H914 C920 0.949 . S
C915 H910 0.950 . S
C915 C917 1.327 . S
C915 C921 1.429 . S
C916 C908 1.574 1_455 S
C916 H911 0.949 . S
C916 C922 1.368 . S
C917 C901 1.349 . S
C917 H909 0.950 . S
C917 C915 1.327 . S
C918 C906 1.349 . S
C918 H912 0.950 . S
C918 C919 1.327 . S
C919 H913 0.950 . S
C919 C918 1.327 . S
C919 C923 1.429 . S
C920 C903 1.574 1_655 S
C920 H914 0.949 . S
C920 C924 1.368 . S
C921 C902 1.429 . S
C921 C915 1.429 . S
C921 C922 1.523 . S
C922 C903 1.368 . S
C922 C916 1.368 . S
C922 C921 1.523 . S
C923 C907 1.429 . S
C923 C919 1.429 . S
C923 C924 1.523 . S
C924 C908 1.368 . S
C924 C920 1.368 . S
C924 C923 1.523 . S
H925 C900 0.950 . S
H926 C902 0.950 . S
H927 C903 0.949 . S
H928 C905 0.950 . S
H929 C907 0.950 . S
C930 C931 1.349 . S
C930 C932 1.327 . S
C930 H955 0.950 . S
C931 C930 1.349 . S
C931 C947 1.349 . S
C932 C930 1.327 . S
C932 C951 1.429 . S
C932 H956 0.950 . S
C933 C950 1.574 1_554 S
C933 C952 1.368 . S
C933 H957 0.949 . S
H934 C938 0.949 . S
C935 C936 1.349 . S
C935 C937 1.327 . S
C935 H958 0.950 . S
C936 C935 1.349 . S
C936 C948 1.349 . S
C937 C935 1.327 . S
C937 C953 1.429 . S
C937 H959 0.950 . S
C938 H934 0.949 . S
C938 C946 1.574 1_556 S
C938 C954 1.368 . S
H939 C947 0.950 . S
H940 C945 0.950 . S
H941 C946 0.949 . S
H942 C948 0.950 . S
H943 C949 0.950 . S
H944 C950 0.949 . S
C945 H940 0.950 . S
C945 C947 1.327 . S
C945 C951 1.429 . S
C946 C938 1.574 1_554 S
C946 H941 0.949 . S
C946 C952 1.368 1_545 S
C947 C931 1.349 . S
C947 H939 0.950 . S
C947 C945 1.327 . S
C948 C936 1.349 . S
C948 H942 0.950 . S
C948 C949 1.327 . S
C949 H943 0.950 . S
C949 C948 1.327 . S
C949 C953 1.429 . S
C950 C933 1.574 1_556 S
C950 H944 0.949 . S
C950 C954 1.368 1_565 S
C951 C932 1.429 . S
C951 C945 1.429 . S
C951 C952 1.523 . S
C952 C933 1.368 . S
C952 C946 1.368 1_565 S
C952 C951 1.523 . S
C953 C937 1.429 . S
C953 C949 1.429 . S
C953 C954 1.523 . S
C954 C938 1.368 . S
C954 C950 1.368 1_545 S
C954 C953 1.523 . S
H955 C930 0.950 . S
H956 C932 0.950 . S
H957 C933 0.949 . S
H958 C935 0.950 . S
H959 C937 0.950 . S
C960 C961 1.349 . S
C960 C962 1.327 . S
C960 H985 0.950 . S
C961 C960 1.349 . S
C961 C977 1.349 . S
C962 C960 1.327 . S
C962 C981 1.429 . S
C962 H986 0.950 . S
C963 C980 1.574 . S
C963 C982 1.368 . S
C963 H987 0.949 . S
H964 C968 0.949 . S
C965 C966 1.349 . S
C965 C967 1.327 . S
C965 H988 0.950 . S
C966 C965 1.349 . S
C966 C978 1.349 . S
C967 C965 1.327 . S
C967 C983 1.429 . S
C967 H989 0.950 . S
C968 H964 0.949 . S
C968 C976 1.574 . S
C968 C984 1.368 . S
H969 C977 0.950 . S
H970 C975 0.950 . S
H971 C976 0.949 . S
H972 C978 0.950 . S
H973 C979 0.950 . S
H974 C980 0.949 . S
C975 H970 0.950 . S
C975 C977 1.327 . S
C975 C981 1.429 . S
C976 C968 1.574 . S
C976 H971 0.949 . S
C976 C982 1.368 . S
C977 C961 1.349 . S
C977 H969 0.950 . S
C977 C975 1.327 . S
C978 C966 1.349 . S
C978 H972 0.950 . S
C978 C979 1.327 . S
C979 H973 0.950 . S
C979 C978 1.327 . S
C979 C983 1.429 . S
C980 C963 1.574 . S
C980 H974 0.949 . S
C980 C984 1.368 . S
C981 C962 1.429 . S
C981 C975 1.429 . S
C981 C982 1.523 . S
C982 C963 1.368 . S
C982 C976 1.368 . S
C982 C981 1.523 . S
C983 C967 1.429 . S
C983 C979 1.429 . S
C983 C984 1.523 . S
C984 C968 1.368 . S
C984 C980 1.368 . S
C984 C983 1.523 . S
H985 C960 0.950 . S
H986 C962 0.950 . S
H987 C963 0.949 . S
H988 C965 0.950 . S
H989 C967 0.950 . S
C990 C991 1.349 . S
C990 C992 1.327 . S
C990 H1015 0.950 . S
C991 C990 1.349 . S
C991 C1007 1.349 . S
C992 C990 1.327 . S
C992 C1011 1.429 . S
C992 H1016 0.950 . S
C993 C1010 1.574 . S
C993 C1012 1.368 . S
C993 H1017 0.949 . S
H994 C998 0.949 . S
C995 C996 1.349 . S
C995 C997 1.327 . S
C995 H1018 0.950 . S
C996 C995 1.349 . S
C996 C1008 1.349 . S
C997 C995 1.327 . S
C997 C1013 1.429 . S
C997 H1019 0.950 . S
C998 H994 0.949 . S
C998 C1006 1.574 . S
C998 C1014 1.368 . S
H999 C1007 0.950 . S
H1000 C1005 0.950 . S
H1001 C1006 0.949 . S
H1002 C1008 0.950 . S
H1003 C1009 0.950 . S
H1004 C1010 0.949 . S
C1005 H1000 0.950 . S
C1005 C1007 1.327 . S
C1005 C1011 1.429 . S
C1006 C998 1.574 . S
C1006 H1001 0.949 . S
C1006 C1012 1.368 1_655 S
C1007 C991 1.349 . S
C1007 H999 0.950 . S
C1007 C1005 1.327 . S
C1008 C996 1.349 . S
C1008 H1002 0.950 . S
C1008 C1009 1.327 . S
C1009 H1003 0.950 . S
C1009 C1008 1.327 . S
C1009 C1013 1.429 . S
C1010 C993 1.574 . S
C1010 H1004 0.949 . S
C1010 C1014 1.368 1_455 S
C1011 C992 1.429 . S
C1011 C1005 1.429 . S
C1011 C1012 1.523 . S
C1012 C993 1.368 . S
C1012 C1006 1.368 1_455 S
C1012 C1011 1.523 . S
C1013 C997 1.429 . S
C1013 C1009 1.429 . S
C1013 C1014 1.523 . S
C1014 C998 1.368 . S
C1014 C1010 1.368 1_655 S
C1014 C1013 1.523 . S
H1015 C990 0.950 . S
H1016 C992 0.950 . S
H1017 C993 0.949 . S
H1018 C995 0.950 . S
H1019 C997 0.950 . S
C1020 C1021 1.349 . S
C1020 C1022 1.327 . S
C1020 H1045 0.950 . S
C1021 C1020 1.349 . S
C1021 C1037 1.349 . S
C1022 C1020 1.327 . S
C1022 C1041 1.429 . S
C1022 H1046 0.950 . S
C1023 C1040 1.574 1_545 S
C1023 C1042 1.368 . S
C1023 H1047 0.949 . S
H1024 C1028 0.949 . S
C1025 C1026 1.349 . S
C1025 C1027 1.327 . S
C1025 H1048 0.950 . S
C1026 C1025 1.349 . S
C1026 C1038 1.349 . S
C1027 C1025 1.327 . S
C1027 C1043 1.429 . S
C1027 H1049 0.950 . S
C1028 H1024 0.949 . S
C1028 C1036 1.574 1_565 S
C1028 C1044 1.368 . S
H1029 C1037 0.950 . S
H1030 C1035 0.950 . S
H1031 C1036 0.949 . S
H1032 C1038 0.950 . S
H1033 C1039 0.950 . S
H1034 C1040 0.949 . S
C1035 H1030 0.950 . S
C1035 C1037 1.327 . S
C1035 C1041 1.429 . S
C1036 C1028 1.574 1_545 S
C1036 H1031 0.949 . S
C1036 C1042 1.368 . S
C1037 C1021 1.349 . S
C1037 H1029 0.950 . S
C1037 C1035 1.327 . S
C1038 C1026 1.349 . S
C1038 H1032 0.950 . S
C1038 C1039 1.327 . S
C1039 H1033 0.950 . S
C1039 C1038 1.327 . S
C1039 C1043 1.429 . S
C1040 C1023 1.574 1_565 S
C1040 H1034 0.949 . S
C1040 C1044 1.368 . S
C1041 C1022 1.429 . S
C1041 C1035 1.429 . S
C1041 C1042 1.523 . S
C1042 C1023 1.368 . S
C1042 C1036 1.368 . S
C1042 C1041 1.523 . S
C1043 C1027 1.429 . S
C1043 C1039 1.429 . S
C1043 C1044 1.523 . S
C1044 C1028 1.368 . S
C1044 C1040 1.368 . S
C1044 C1043 1.523 . S
H1045 C1020 0.950 . S
H1046 C1022 0.950 . S
H1047 C1023 0.949 . S
H1048 C1025 0.950 . S
H1049 C1027 0.950 . S
C1050 C1051 1.349 . S
C1050 C1052 1.327 . S
C1050 H1075 0.950 . S
C1051 C1050 1.349 . S
C1051 C1067 1.349 . S
C1052 C1050 1.327 . S
C1052 C1071 1.429 . S
C1052 H1076 0.950 . S
C1053 C1070 1.574 . S
C1053 C1072 1.368 . S
C1053 H1077 0.949 . S
H1054 C1058 0.949 . S
C1055 C1056 1.349 . S
C1055 C1057 1.327 . S
C1055 H1078 0.950 . S
C1056 C1055 1.349 . S
C1056 C1068 1.349 . S
C1057 C1055 1.327 . S
C1057 C1073 1.429 . S
C1057 H1079 0.950 . S
C1058 H1054 0.949 . S
C1058 C1066 1.574 . S
C1058 C1074 1.368 . S
H1059 C1067 0.950 . S
H1060 C1065 0.950 . S
H1061 C1066 0.949 . S
H1062 C1068 0.950 . S
H1063 C1069 0.950 . S
H1064 C1070 0.949 . S
C1065 H1060 0.950 . S
C1065 C1067 1.327 . S
C1065 C1071 1.429 . S
C1066 C1058 1.574 . S
C1066 H1061 0.949 . S
C1066 C1072 1.368 . S
C1067 C1051 1.349 . S
C1067 H1059 0.950 . S
C1067 C1065 1.327 . S
C1068 C1056 1.349 . S
C1068 H1062 0.950 . S
C1068 C1069 1.327 . S
C1069 H1063 0.950 . S
C1069 C1068 1.327 . S
C1069 C1073 1.429 . S
C1070 C1053 1.574 . S
C1070 H1064 0.949 . S
C1070 C1074 1.368 . S
C1071 C1052 1.429 . S
C1071 C1065 1.429 . S
C1071 C1072 1.523 . S
C1072 C1053 1.368 . S
C1072 C1066 1.368 . S
C1072 C1071 1.523 . S
C1073 C1057 1.429 . S
C1073 C1069 1.429 . S
C1073 C1074 1.523 . S
C1074 C1058 1.368 . S
C1074 C1070 1.368 . S
C1074 C1073 1.523 . S
H1075 C1050 0.950 . S
H1076 C1052 0.950 . S
H1077 C1053 0.949 . S
H1078 C1055 0.950 . S
H1079 C1057 0.950 . S
C1080 C1081 1.349 . S
C1080 C1082 1.327 . S
C1080 H1105 0.950 . S
C1081 C1080 1.349 . S
C1081 C1097 1.349 . S
C1082 C1080 1.327 . S
C1082 C1101 1.429 . S
C1082 H1106 0.950 . S
C1083 C1100 1.574 1_655 S
C1083 C1102 1.368 . S
C1083 H1107 0.949 . S
H1084 C1088 0.949 . S
C1085 C1086 1.349 . S
C1085 C1087 1.327 . S
C1085 H1108 0.950 . S
C1086 C1085 1.349 . S
C1086 C1098 1.349 . S
C1087 C1085 1.327 . S
C1087 C1103 1.429 . S
C1087 H1109 0.950 . S
C1088 H1084 0.949 . S
C1088 C1096 1.574 1_455 S
C1088 C1104 1.368 . S
H1089 C1097 0.950 . S
H1090 C1095 0.950 . S
H1091 C1096 0.949 . S
H1092 C1098 0.950 . S
H1093 C1099 0.950 . S
H1094 C1100 0.949 . S
C1095 H1090 0.950 . S
C1095 C1097 1.327 . S
C1095 C1101 1.429 . S
C1096 C1088 1.574 1_655 S
C1096 H1091 0.949 . S
C1096 C1102 1.368 . S
C1097 C1081 1.349 . S
C1097 H1089 0.950 . S
C1097 C1095 1.327 . S
C1098 C1086 1.349 . S
C1098 H1092 0.950 . S
C1098 C1099 1.327 . S
C1099 H1093 0.950 . S
C1099 C1098 1.327 . S
C1099 C1103 1.429 . S
C1100 C1083 1.574 1_455 S
C1100 H1094 0.949 . S
C1100 C1104 1.368 . S
C1101 C1082 1.429 . S
C1101 C1095 1.429 . S
C1101 C1102 1.523 . S
C1102 C1083 1.368 . S
C1102 C1096 1.368 . S
C1102 C1101 1.523 . S
C1103 C1087 1.429 . S
C1103 C1099 1.429 . S
C1103 C1104 1.523 . S
C1104 C1088 1.368 . S
C1104 C1100 1.368 . S
C1104 C1103 1.523 . S
H1105 C1080 0.950 . S
H1106 C1082 0.950 . S
H1107 C1083 0.949 . S
H1108 C1085 0.950 . S
H1109 C1087 0.950 . S
C1110 C1111 1.349 . S
C1110 C1112 1.327 . S
C1110 H1135 0.950 . S
C1111 C1110 1.349 . S
C1111 C1127 1.349 . S
C1112 C1110 1.327 . S
C1112 C1131 1.429 . S
C1112 H1136 0.950 . S
C1113 C1130 1.574 1_455 S
C1113 C1132 1.368 . S
C1113 H1137 0.949 . S
H1114 C1118 0.949 . S
C1115 C1116 1.349 . S
C1115 C1117 1.327 . S
C1115 H1138 0.950 . S
C1116 C1115 1.349 . S
C1116 C1128 1.349 . S
C1117 C1115 1.327 . S
C1117 C1133 1.429 . S
C1117 H1139 0.950 . S
C1118 H1114 0.949 . S
C1118 C1126 1.574 1_655 S
C1118 C1134 1.368 . S
H1119 C1127 0.950 . S
H1120 C1125 0.950 . S
H1121 C1126 0.949 . S
H1122 C1128 0.950 . S
H1123 C1129 0.950 . S
H1124 C1130 0.949 . S
C1125 H1120 0.950 . S
C1125 C1127 1.327 . S
C1125 C1131 1.429 . S
C1126 C1118 1.574 1_455 S
C1126 H1121 0.949 . S
C1126 C1132 1.368 . S
C1127 C1111 1.349 . S
C1127 H1119 0.950 . S
C1127 C1125 1.327 . S
C1128 C1116 1.349 . S
C1128 H1122 0.950 . S
C1128 C1129 1.327 . S
C1129 H1123 0.950 . S
C1129 C1128 1.327 . S
C1129 C1133 1.429 . S
C1130 C1113 1.574 1_655 S
C1130 H1124 0.949 . S
C1130 C1134 1.368 . S
C1131 C1112 1.429 . S
C1131 C1125 1.429 . S
C1131 C1132 1.523 . S
C1132 C1113 1.368 . S
C1132 C1126 1.368 . S
C1132 C1131 1.523 . S
C1133 C1117 1.429 . S
C1133 C1129 1.429 . S
C1133 C1134 1.523 . S
C1134 C1118 1.368 . S
C1134 C1130 1.368 . S
C1134 C1133 1.523 . S
H1135 C1110 0.950 . S
H1136 C1112 0.950 . S
H1137 C1113 0.949 . S
H1138 C1115 0.950 . S
H1139 C1117 0.950 . S
C1140 C1141 1.349 . S
C1140 C1142 1.327 . S
C1140 H1165 0.950 . S
C1141 C1140 1.349 . S
C1141 C1157 1.349 . S
C1142 C1140 1.327 . S
C1142 C1161 1.429 . S
C1142 H1166 0.950 . S
C1143 C1160 1.574 1_565 S
C1143 C1162 1.368 . S
C1143 H1167 0.949 . S
H1144 C1148 0.949 . S
C1145 C1146 1.349 . S
C1145 C1147 1.327 . S
C1145 H1168 0.950 . S
C1146 C1145 1.349 . S
C1146 C1158 1.349 . S
C1147 C1145 1.327 . S
C1147 C1163 1.429 . S
C1147 H1169 0.950 . S
C1148 H1144 0.949 . S
C1148 C1156 1.574 1_545 S
C1148 C1164 1.368 . S
H1149 C1157 0.950 . S
H1150 C1155 0.950 . S
H1151 C1156 0.949 . S
H1152 C1158 0.950 . S
H1153 C1159 0.950 . S
H1154 C1160 0.949 . S
C1155 H1150 0.950 . S
C1155 C1157 1.327 . S
C1155 C1161 1.429 . S
C1156 C1148 1.574 1_565 S
C1156 H1151 0.949 . S
C1156 C1162 1.368 . S
C1157 C1141 1.349 . S
C1157 H1149 0.950 . S
C1157 C1155 1.327 . S
C1158 C1146 1.349 . S
C1158 H1152 0.950 . S
C1158 C1159 1.327 . S
C1159 H1153 0.950 . S
C1159 C1158 1.327 . S
C1159 C1163 1.429 . S
C1160 C1143 1.574 1_545 S
C1160 H1154 0.949 . S
C1160 C1164 1.368 . S
C1161 C1142 1.429 . S
C1161 C1155 1.429 . S
C1161 C1162 1.523 . S
C1162 C1143 1.368 . S
C1162 C1156 1.368 . S
C1162 C1161 1.523 . S
C1163 C1147 1.429 . S
C1163 C1159 1.429 . S
C1163 C1164 1.523 . S
C1164 C1148 1.368 . S
C1164 C1160 1.368 . S
C1164 C1163 1.523 . S
H1165 C1140 0.950 . S
H1166 C1142 0.950 . S
H1167 C1143 0.949 . S
H1168 C1145 0.950 . S
H1169 C1147 0.950 . S
C1170 C1171 1.349 . S
C1170 C1172 1.327 . S
C1170 H1195 0.950 . S
C1171 C1170 1.349 . S
C1171 C1187 1.349 . S
C1172 C1170 1.327 . S
C1172 C1191 1.429 . S
C1172 H1196 0.950 . S
C1173 C1190 1.574 . S
C1173 C1192 1.368 . S
C1173 H1197 0.949 . S
H1174 C1178 0.949 . S
C1175 C1176 1.349 . S
C1175 C1177 1.327 . S
C1175 H1198 0.950 . S
C1176 C1175 1.349 . S
C1176 C1188 1.349 . S
C1177 C1175 1.327 . S
C1177 C1193 1.429 . S
C1177 H1199 0.950 . S
C1178 H1174 0.949 . S
C1178 C1186 1.574 . S
C1178 C1194 1.368 . S
H1179 C1187 0.950 . S
H1180 C1185 0.950 . S
H1181 C1186 0.949 . S
H1182 C1188 0.950 . S
H1183 C1189 0.950 . S
H1184 C1190 0.949 . S
C1185 H1180 0.950 . S
C1185 C1187 1.327 . S
C1185 C1191 1.429 . S
C1186 C1178 1.574 . S
C1186 H1181 0.949 . S
C1186 C1192 1.368 . S
C1187 C1171 1.349 . S
C1187 H1179 0.950 . S
C1187 C1185 1.327 . S
C1188 C1176 1.349 . S
C1188 H1182 0.950 . S
C1188 C1189 1.327 . S
C1189 H1183 0.950 . S
C1189 C1188 1.327 . S
C1189 C1193 1.429 . S
C1190 C1173 1.574 . S
C1190 H1184 0.949 . S
C1190 C1194 1.368 . S
C1191 C1172 1.429 . S
C1191 C1185 1.429 . S
C1191 C1192 1.523 . S
C1192 C1173 1.368 . S
C1192 C1186 1.368 . S
C1192 C1191 1.523 . S
C1193 C1177 1.429 . S
C1193 C1189 1.429 . S
C1193 C1194 1.523 . S
C1194 C1178 1.368 . S
C1194 C1190 1.368 . S
C1194 C1193 1.523 . S
H1195 C1170 0.950 . S
H1196 C1172 0.950 . S
H1197 C1173 0.949 . S
H1198 C1175 0.950 . S
H1199 C1177 0.950 . S
C1200 C1201 1.349 . S
C1200 C1202 1.327 . S
C1200 H1225 0.950 . S
C1201 C1200 1.349 . S
C1201 C1217 1.349 . S
C1202 C1200 1.327 . S
C1202 C1221 1.429 . S
C1202 H1226 0.950 . S
C1203 C1220 1.584 . S
C1203 C1222 1.351 1_545 S
C1203 H1227 0.952 . S
H1204 C1208 0.952 . S
C1205 C1206 1.349 . S
C1205 C1207 1.327 . S
C1205 H1228 0.950 . S
C1206 C1205 1.349 . S
C1206 C1218 1.349 . S
C1207 C1205 1.327 . S
C1207 C1223 1.429 . S
C1207 H1229 0.950 . S
C1208 H1204 0.952 . S
C1208 C1216 1.584 . S
C1208 C1224 1.352 1_565 S
H1209 C1217 0.950 . S
H1210 C1215 0.950 . S
H1211 C1216 0.949 . S
H1212 C1218 0.950 . S
H1213 C1219 0.950 . S
H1214 C1220 0.949 . S
C1215 H1210 0.950 . S
C1215 C1217 1.327 . S
C1215 C1221 1.429 . S
C1216 C1208 1.584 . S
C1216 H1211 0.949 . S
C1216 C1222 1.368 . S
C1217 C1201 1.349 . S
C1217 H1209 0.950 . S
C1217 C1215 1.327 . S
C1218 C1206 1.349 . S
C1218 H1212 0.950 . S
C1218 C1219 1.327 . S
C1219 H1213 0.950 . S
C1219 C1218 1.327 . S
C1219 C1223 1.429 . S
C1220 C1203 1.584 . S
C1220 H1214 0.949 . S
C1220 C1224 1.368 . S
C1221 C1202 1.429 . S
C1221 C1215 1.429 . S
C1221 C1222 1.523 . S
C1222 C1203 1.351 1_565 S
C1222 C1216 1.368 . S
C1222 C1221 1.523 . S
C1223 C1207 1.429 . S
C1223 C1219 1.429 . S
C1223 C1224 1.523 . S
C1224 C1208 1.352 1_545 S
C1224 C1220 1.368 . S
C1224 C1223 1.523 . S
H1225 C1200 0.950 . S
H1226 C1202 0.950 . S
H1227 C1203 0.952 . S
H1228 C1205 0.950 . S
H1229 C1207 0.950 . S
C1230 C1231 1.349 . S
C1230 C1232 1.327 . S
C1230 H1255 0.950 . S
C1231 C1230 1.349 . S
C1231 C1247 1.349 . S
C1232 C1230 1.327 . S
C1232 C1251 1.429 . S
C1232 H1256 0.950 . S
C1233 C1250 1.574 . S
C1233 C1252 1.368 . S
C1233 H1257 0.949 . S
H1234 C1238 0.949 . S
C1235 C1236 1.349 . S
C1235 C1237 1.327 . S
C1235 H1258 0.950 . S
C1236 C1235 1.349 . S
C1236 C1248 1.349 . S
C1237 C1235 1.327 . S
C1237 C1253 1.429 . S
C1237 H1259 0.950 . S
C1238 H1234 0.949 . S
C1238 C1246 1.574 . S
C1238 C1254 1.368 . S
H1239 C1247 0.950 . S
H1240 C1245 0.950 . S
H1241 C1246 0.949 . S
H1242 C1248 0.950 . S
H1243 C1249 0.950 . S
H1244 C1250 0.949 . S
C1245 H1240 0.950 . S
C1245 C1247 1.327 . S
C1245 C1251 1.429 . S
C1246 C1238 1.574 . S
C1246 H1241 0.949 . S
C1246 C1252 1.368 . S
C1247 C1231 1.349 . S
C1247 H1239 0.950 . S
C1247 C1245 1.327 . S
C1248 C1236 1.349 . S
C1248 H1242 0.950 . S
C1248 C1249 1.327 . S
C1249 H1243 0.950 . S
C1249 C1248 1.327 . S
C1249 C1253 1.429 . S
C1250 C1233 1.574 . S
C1250 H1244 0.949 . S
C1250 C1254 1.368 . S
C1251 C1232 1.429 . S
C1251 C1245 1.429 . S
C1251 C1252 1.523 . S
C1252 C1233 1.368 . S
C1252 C1246 1.368 . S
C1252 C1251 1.523 . S
C1253 C1237 1.429 . S
C1253 C1249 1.429 . S
C1253 C1254 1.523 . S
C1254 C1238 1.368 . S
C1254 C1250 1.368 . S
C1254 C1253 1.523 . S
H1255 C1230 0.950 . S
H1256 C1232 0.950 . S
H1257 C1233 0.949 . S
H1258 C1235 0.950 . S
H1259 C1237 0.950 . S
C1260 C1261 1.349 . S
C1260 C1262 1.327 . S
C1260 H1285 0.950 . S
C1261 C1260 1.349 . S
C1261 C1277 1.349 . S
C1262 C1260 1.327 . S
C1262 C1281 1.429 . S
C1262 H1286 0.950 . S
C1263 C1280 1.574 1_655 S
C1263 C1282 1.368 . S
C1263 H1287 0.949 . S
H1264 C1268 0.949 . S
C1265 C1266 1.349 . S
C1265 C1267 1.327 . S
C1265 H1288 0.950 . S
C1266 C1265 1.349 . S
C1266 C1278 1.349 . S
C1267 C1265 1.327 . S
C1267 C1283 1.429 . S
C1267 H1289 0.950 . S
C1268 H1264 0.949 . S
C1268 C1276 1.574 1_455 S
C1268 C1284 1.368 . S
H1269 C1277 0.950 . S
H1270 C1275 0.950 . S
H1271 C1276 0.949 . S
H1272 C1278 0.950 . S
H1273 C1279 0.950 . S
H1274 C1280 0.949 . S
C1275 H1270 0.950 . S
C1275 C1277 1.327 . S
C1275 C1281 1.429 . S
C1276 C1268 1.574 1_655 S
C1276 H1271 0.949 . S
C1276 C1282 1.368 . S
C1277 C1261 1.349 . S
C1277 H1269 0.950 . S
C1277 C1275 1.327 . S
C1278 C1266 1.349 . S
C1278 H1272 0.950 . S
C1278 C1279 1.327 . S
C1279 H1273 0.950 . S
C1279 C1278 1.327 . S
C1279 C1283 1.429 . S
C1280 C1263 1.574 1_455 S
C1280 H1274 0.949 . S
C1280 C1284 1.368 . S
C1281 C1262 1.429 . S
C1281 C1275 1.429 . S
C1281 C1282 1.523 . S
C1282 C1263 1.368 . S
C1282 C1276 1.368 . S
C1282 C1281 1.523 . S
C1283 C1267 1.429 . S
C1283 C1279 1.429 . S
C1283 C1284 1.523 . S
C1284 C1268 1.368 . S
C1284 C1280 1.368 . S
C1284 C1283 1.523 . S
H1285 C1260 0.950 . S
H1286 C1262 0.950 . S
H1287 C1263 0.949 . S
H1288 C1265 0.950 . S
H1289 C1267 0.950 . S
C1290 C1291 1.349 . S
C1290 C1292 1.327 . S
C1290 H1315 0.950 . S
C1291 C1290 1.349 . S
C1291 C1307 1.349 . S
C1292 C1290 1.327 . S
C1292 C1311 1.429 . S
C1292 H1316 0.950 . S
C1293 C1310 1.574 1_545 S
C1293 C1312 1.368 . S
C1293 H1317 0.949 . S
H1294 C1298 0.949 . S
C1295 C1296 1.349 . S
C1295 C1297 1.327 . S
C1295 H1318 0.950 . S
C1296 C1295 1.349 . S
C1296 C1308 1.349 . S
C1297 C1295 1.327 . S
C1297 C1313 1.429 . S
C1297 H1319 0.950 . S
C1298 H1294 0.949 . S
C1298 C1306 1.574 1_565 S
C1298 C1314 1.368 . S
H1299 C1307 0.950 . S
H1300 C1305 0.950 . S
H1301 C1306 0.949 . S
H1302 C1308 0.950 . S
H1303 C1309 0.950 . S
H1304 C1310 0.949 . S
C1305 H1300 0.950 . S
C1305 C1307 1.327 . S
C1305 C1311 1.429 . S
C1306 C1298 1.574 1_545 S
C1306 H1301 0.949 . S
C1306 C1312 1.368 . S
C1307 C1291 1.349 . S
C1307 H1299 0.950 . S
C1307 C1305 1.327 . S
C1308 C1296 1.349 . S
C1308 H1302 0.950 . S
C1308 C1309 1.327 . S
C1309 H1303 0.950 . S
C1309 C1308 1.327 . S
C1309 C1313 1.429 . S
C1310 C1293 1.574 1_565 S
C1310 H1304 0.949 . S
C1310 C1314 1.368 . S
C1311 C1292 1.429 . S
C1311 C1305 1.429 . S
C1311 C1312 1.523 . S
C1312 C1293 1.368 . S
C1312 C1306 1.368 . S
C1312 C1311 1.523 . S
C1313 C1297 1.429 . S
C1313 C1309 1.429 . S
C1313 C1314 1.523 . S
C1314 C1298 1.368 . S
C1314 C1310 1.368 . S
C1314 C1313 1.523 . S
H1315 C1290 0.950 . S
H1316 C1292 0.950 . S
H1317 C1293 0.949 . S
H1318 C1295 0.950 . S
H1319 C1297 0.950 . S
C1320 C1321 1.349 . S
C1320 C1322 1.327 . S
C1320 H1345 0.950 . S
C1321 C1320 1.349 . S
C1321 C1337 1.349 . S
C1322 C1320 1.327 . S
C1322 C1341 1.429 . S
C1322 H1346 0.950 . S
C1323 C1340 1.574 . S
C1323 C1342 1.368 . S
C1323 H1347 0.949 . S
H1324 C1328 0.949 . S
C1325 C1326 1.349 . S
C1325 C1327 1.327 . S
C1325 H1348 0.950 . S
C1326 C1325 1.349 . S
C1326 C1338 1.349 . S
C1327 C1325 1.327 . S
C1327 C1343 1.429 . S
C1327 H1349 0.950 . S
C1328 H1324 0.949 . S
C1328 C1336 1.574 . S
C1328 C1344 1.368 . S
H1329 C1337 0.950 . S
H1330 C1335 0.950 . S
H1331 C1336 0.949 . S
H1332 C1338 0.950 . S
H1333 C1339 0.950 . S
H1334 C1340 0.949 . S
C1335 H1330 0.950 . S
C1335 C1337 1.327 . S
C1335 C1341 1.429 . S
C1336 C1328 1.574 . S
C1336 H1331 0.949 . S
C1336 C1342 1.368 . S
C1337 C1321 1.349 . S
C1337 H1329 0.950 . S
C1337 C1335 1.327 . S
C1338 C1326 1.349 . S
C1338 H1332 0.950 . S
C1338 C1339 1.327 . S
C1339 H1333 0.950 . S
C1339 C1338 1.327 . S
C1339 C1343 1.429 . S
C1340 C1323 1.574 . S
C1340 H1334 0.949 . S
C1340 C1344 1.368 . S
C1341 C1322 1.429 . S
C1341 C1335 1.429 . S
C1341 C1342 1.523 . S
C1342 C1323 1.368 . S
C1342 C1336 1.368 . S
C1342 C1341 1.523 . S
C1343 C1327 1.429 . S
C1343 C1339 1.429 . S
C1343 C1344 1.523 . S
C1344 C1328 1.368 . S
C1344 C1340 1.368 . S
C1344 C1343 1.523 . S
H1345 C1320 0.950 . S
H1346 C1322 0.950 . S
H1347 C1323 0.949 . S
H1348 C1325 0.950 . S
H1349 C1327 0.950 . S
C1350 C1351 1.349 . S
C1350 C1352 1.327 . S
C1350 H1375 0.950 . S
C1351 C1350 1.349 . S
C1351 C1367 1.349 . S
C1352 C1350 1.327 . S
C1352 C1371 1.429 . S
C1352 H1376 0.950 . S
C1353 C1370 1.574 1_455 S
C1353 C1372 1.368 . S
C1353 H1377 0.949 . S
H1354 C1358 0.949 . S
C1355 C1356 1.349 . S
C1355 C1357 1.327 . S
C1355 H1378 0.950 . S
C1356 C1355 1.349 . S
C1356 C1368 1.349 . S
C1357 C1355 1.327 . S
C1357 C1373 1.429 . S
C1357 H1379 0.950 . S
C1358 H1354 0.949 . S
C1358 C1366 1.574 1_655 S
C1358 C1374 1.368 . S
H1359 C1367 0.950 . S
H1360 C1365 0.950 . S
H1361 C1366 0.949 . S
H1362 C1368 0.950 . S
H1363 C1369 0.950 . S
H1364 C1370 0.949 . S
C1365 H1360 0.950 . S
C1365 C1367 1.327 . S
C1365 C1371 1.429 . S
C1366 C1358 1.574 1_455 S
C1366 H1361 0.949 . S
C1366 C1372 1.368 . S
C1367 C1351 1.349 . S
C1367 H1359 0.950 . S
C1367 C1365 1.327 . S
C1368 C1356 1.349 . S
C1368 H1362 0.950 . S
C1368 C1369 1.327 . S
C1369 H1363 0.950 . S
C1369 C1368 1.327 . S
C1369 C1373 1.429 . S
C1370 C1353 1.574 1_655 S
C1370 H1364 0.949 . S
C1370 C1374 1.368 . S
C1371 C1352 1.429 . S
C1371 C1365 1.429 . S
C1371 C1372 1.523 . S
C1372 C1353 1.368 . S
C1372 C1366 1.368 . S
C1372 C1371 1.523 . S
C1373 C1357 1.429 . S
C1373 C1369 1.429 . S
C1373 C1374 1.523 . S
C1374 C1358 1.368 . S
C1374 C1370 1.368 . S
C1374 C1373 1.523 . S
H1375 C1350 0.950 . S
H1376 C1352 0.950 . S
H1377 C1353 0.949 . S
H1378 C1355 0.950 . S
H1379 C1357 0.950 . S
C1380 C1381 1.349 . S
C1380 C1382 1.327 . S
C1380 H1405 0.950 . S
C1381 C1380 1.349 . S
C1381 C1397 1.349 . S
C1382 C1380 1.327 . S
C1382 C1401 1.429 . S
C1382 H1406 0.950 . S
C1383 C1400 1.574 . S
C1383 C1402 1.368 . S
C1383 H1407 0.949 . S
H1384 C1388 0.949 . S
C1385 C1386 1.349 . S
C1385 C1387 1.327 . S
C1385 H1408 0.950 . S
C1386 C1385 1.349 . S
C1386 C1398 1.349 . S
C1387 C1385 1.327 . S
C1387 C1403 1.429 . S
C1387 H1409 0.950 . S
C1388 H1384 0.949 . S
C1388 C1396 1.574 . S
C1388 C1404 1.368 . S
H1389 C1397 0.950 . S
H1390 C1395 0.950 . S
H1391 C1396 0.949 . S
H1392 C1398 0.950 . S
H1393 C1399 0.950 . S
H1394 C1400 0.949 . S
C1395 H1390 0.950 . S
C1395 C1397 1.327 . S
C1395 C1401 1.429 . S
C1396 C1388 1.574 . S
C1396 H1391 0.949 . S
C1396 C1402 1.368 . S
C1397 C1381 1.349 . S
C1397 H1389 0.950 . S
C1397 C1395 1.327 . S
C1398 C1386 1.349 . S
C1398 H1392 0.950 . S
C1398 C1399 1.327 . S
C1399 H1393 0.950 . S
C1399 C1398 1.327 . S
C1399 C1403 1.429 . S
C1400 C1383 1.574 . S
C1400 H1394 0.949 . S
C1400 C1404 1.368 . S
C1401 C1382 1.429 . S
C1401 C1395 1.429 . S
C1401 C1402 1.523 . S
C1402 C1383 1.368 . S
C1402 C1396 1.368 . S
C1402 C1401 1.523 . S
C1403 C1387 1.429 . S
C1403 C1399 1.429 . S
C1403 C1404 1.523 . S
C1404 C1388 1.368 . S
C1404 C1400 1.368 . S
C1404 C1403 1.523 . S
H1405 C1380 0.950 . S
H1406 C1382 0.950 . S
H1407 C1383 0.949 . S
H1408 C1385 0.950 . S
H1409 C1387 0.950 . S
C1410 C1411 1.349 . S
C1410 C1412 1.327 . S
C1410 H1435 0.950 . S
C1411 C1410 1.349 . S
C1411 C1427 1.349 . S
C1412 C1410 1.327 . S
C1412 C1431 1.429 . S
C1412 H1436 0.950 . S
C1413 C1430 1.574 . S
C1413 C1432 1.368 . S
C1413 H1437 0.949 . S
H1414 C1418 0.949 . S
C1415 C1416 1.349 . S
C1415 C1417 1.327 . S
C1415 H1438 0.950 . S
C1416 C1415 1.349 . S
C1416 C1428 1.349 . S
C1417 C1415 1.327 . S
C1417 C1433 1.429 . S
C1417 H1439 0.950 . S
C1418 H1414 0.949 . S
C1418 C1426 1.574 . S
C1418 C1434 1.368 . S
H1419 C1427 0.950 . S
H1420 C1425 0.950 . S
H1421 C1426 0.949 . S
H1422 C1428 0.950 . S
H1423 C1429 0.950 . S
H1424 C1430 0.949 . S
C1425 H1420 0.950 . S
C1425 C1427 1.327 . S
C1425 C1431 1.429 . S
C1426 C1418 1.574 . S
C1426 H1421 0.949 . S
C1426 C1432 1.368 . S
C1427 C1411 1.349 . S
C1427 H1419 0.950 . S
C1427 C1425 1.327 . S
C1428 C1416 1.349 . S
C1428 H1422 0.950 . S
C1428 C1429 1.327 . S
C1429 H1423 0.950 . S
C1429 C1428 1.327 . S
C1429 C1433 1.429 . S
C1430 C1413 1.574 . S
C1430 H1424 0.949 . S
C1430 C1434 1.368 . S
C1431 C1412 1.429 . S
C1431 C1425 1.429 . S
C1431 C1432 1.523 . S
C1432 C1413 1.368 . S
C1432 C1426 1.368 . S
C1432 C1431 1.523 . S
C1433 C1417 1.429 . S
C1433 C1429 1.429 . S
C1433 C1434 1.523 . S
C1434 C1418 1.368 . S
C1434 C1430 1.368 . S
C1434 C1433 1.523 . S
H1435 C1410 0.950 . S
H1436 C1412 0.950 . S
H1437 C1413 0.949 . S
H1438 C1415 0.950 . S
H1439 C1417 0.950 . S
C1440 C1441 1.349 . S
C1440 C1442 1.327 . S
C1440 H1465 0.950 . S
C1441 C1440 1.349 . S
C1441 C1457 1.349 . S
C1442 C1440 1.327 . S
C1442 C1461 1.429 . S
C1442 H1466 0.950 . S
C1443 C1460 1.574 . S
C1443 C1462 1.368 . S
C1443 H1467 0.949 . S
H1444 C1448 0.949 . S
C1445 C1446 1.349 . S
C1445 C1447 1.327 . S
C1445 H1468 0.950 . S
C1446 C1445 1.349 . S
C1446 C1458 1.349 . S
C1447 C1445 1.327 . S
C1447 C1463 1.429 . S
C1447 H1469 0.950 . S
C1448 H1444 0.949 . S
C1448 C1456 1.574 . S
C1448 C1464 1.368 . S
H1449 C1457 0.950 . S
H1450 C1455 0.950 . S
H1451 C1456 0.949 . S
H1452 C1458 0.950 . S
H1453 C1459 0.950 . S
H1454 C1460 0.949 . S
C1455 H1450 0.950 . S
C1455 C1457 1.327 . S
C1455 C1461 1.429 . S
C1456 C1448 1.574 . S
C1456 H1451 0.949 . S
C1456 C1462 1.368 . S
C1457 C1441 1.349 . S
C1457 H1449 0.950 . S
C1457 C1455 1.327 . S
C1458 C1446 1.349 . S
C1458 H1452 0.950 . S
C1458 C1459 1.327 . S
C1459 H1453 0.950 . S
C1459 C1458 1.327 . S
C1459 C1463 1.429 . S
C1460 C1443 1.574 . S
C1460 H1454 0.949 . S
C1460 C1464 1.368 . S
C1461 C1442 1.429 . S
C1461 C1455 1.429 . S
C1461 C1462 1.523 . S
C1462 C1443 1.368 . S
C1462 C1456 1.368 . S
C1462 C1461 1.523 . S
C1463 C1447 1.429 . S
C1463 C1459 1.429 . S
C1463 C1464 1.523 . S
C1464 C1448 1.368 . S
C1464 C1460 1.368 . S
C1464 C1463 1.523 . S
H1465 C1440 0.950 . S
H1466 C1442 0.950 . S
H1467 C1443 0.949 . S
H1468 C1445 0.950 . S
H1469 C1447 0.950 . S
C1470 C1471 1.349 . S
C1470 C1472 1.327 . S
C1470 H1495 0.950 . S
C1471 C1470 1.349 . S
C1471 C1487 1.349 . S
C1472 C1470 1.327 . S
C1472 C1491 1.429 . S
C1472 H1496 0.950 . S
C1473 C1490 1.574 . S
C1473 C1492 1.368 . S
C1473 H1497 0.949 . S
H1474 C1478 0.949 . S
C1475 C1476 1.349 . S
C1475 C1477 1.327 . S
C1475 H1498 0.950 . S
C1476 C1475 1.349 . S
C1476 C1488 1.349 . S
C1477 C1475 1.327 . S
C1477 C1493 1.429 . S
C1477 H1499 0.950 . S
C1478 H1474 0.949 . S
C1478 C1486 1.574 . S
C1478 C1494 1.368 . S
H1479 C1487 0.950 . S
H1480 C1485 0.950 . S
H1481 C1486 0.949 . S
H1482 C1488 0.950 . S
H1483 C1489 0.950 . S
H1484 C1490 0.949 . S
C1485 H1480 0.950 . S
C1485 C1487 1.327 . S
C1485 C1491 1.429 . S
C1486 C1478 1.574 . S
C1486 H1481 0.949 . S
C1486 C1492 1.368 . S
C1487 C1471 1.349 . S
C1487 H1479 0.950 . S
C1487 C1485 1.327 . S
C1488 C1476 1.349 . S
C1488 H1482 0.950 . S
C1488 C1489 1.327 . S
C1489 H1483 0.950 . S
C1489 C1488 1.327 . S
C1489 C1493 1.429 . S
C1490 C1473 1.574 . S
C1490 H1484 0.949 . S
C1490 C1494 1.368 . S
C1491 C1472 1.429 . S
C1491 C1485 1.429 . S
C1491 C1492 1.523 . S
C1492 C1473 1.368 . S
C1492 C1486 1.368 . S
C1492 C1491 1.523 . S
C1493 C1477 1.429 . S
C1493 C1489 1.429 . S
C1493 C1494 1.523 . S
C1494 C1478 1.368 . S
C1494 C1490 1.368 . S
C1494 C1493 1.523 . S
H1495 C1470 0.950 . S
H1496 C1472 0.950 . S
H1497 C1473 0.949 . S
H1498 C1475 0.950 . S
H1499 C1477 0.950 . S
C1500 C1501 1.349 . S
C1500 C1502 1.327 . S
C1500 H1525 0.950 . S
C1501 C1500 1.349 . S
C1501 C1517 1.349 . S
C1502 C1500 1.327 . S
C1502 C1521 1.429 . S
C1502 H1526 0.950 . S
C1503 C1520 1.574 . S
C1503 C1522 1.368 . S
C1503 H1527 0.949 . S
H1504 C1508 0.949 . S
C1505 C1506 1.349 . S
C1505 C1507 1.327 . S
C1505 H1528 0.950 . S
C1506 C1505 1.349 . S
C1506 C1518 1.349 . S
C1507 C1505 1.327 . S
C1507 C1523 1.429 . S
C1507 H1529 0.950 . S
C1508 H1504 0.949 . S
C1508 C1516 1.574 . S
C1508 C1524 1.368 . S
H1509 C1517 0.950 . S
H1510 C1515 0.950 . S
H1511 C1516 0.949 . S
H1512 C1518 0.950 . S
H1513 C1519 0.950 . S
H1514 C1520 0.949 . S
C1515 H1510 0.950 . S
C1515 C1517 1.327 . S
C1515 C1521 1.429 . S
C1516 C1508 1.574 . S
C1516 H1511 0.949 . S
C1516 C1522 1.368 . S
C1517 C1501 1.349 . S
C1517 H1509 0.950 . S
C1517 C1515 1.327 . S
C1518 C1506 1.349 . S
C1518 H1512 0.950 . S
C1518 C1519 1.327 . S
C1519 H1513 0.950 . S
C1519 C1518 1.327 . S
C1519 C1523 1.429 . S
C1520 C1503 1.574 . S
C1520 H1514 0.949 . S
C1520 C1524 1.368 . S
C1521 C1502 1.429 . S
C1521 C1515 1.429 . S
C1521 C1522 1.523 . S
C1522 C1503 1.368 . S
C1522 C1516 1.368 . S
C1522 C1521 1.523 . S
C1523 C1507 1.429 . S
C1523 C1519 1.429 . S
C1523 C1524 1.523 . S
C1524 C1508 1.368 . S
C1524 C1520 1.368 . S
C1524 C1523 1.523 . S
H1525 C1500 0.950 . S
H1526 C1502 0.950 . S
H1527 C1503 0.949 . S
H1528 C1505 0.950 . S
H1529 C1507 0.950 . S
C1530 C1531 1.349 . S
C1530 C1532 1.327 . S
C1530 H1555 0.950 . S
C1531 C1530 1.349 . S
C1531 C1547 1.349 . S
C1532 C1530 1.327 . S
C1532 C1551 1.429 . S
C1532 H1556 0.950 . S
C1533 C1550 1.574 . S
C1533 C1552 1.368 . S
C1533 H1557 0.949 . S
H1534 C1538 0.949 . S
C1535 C1536 1.349 . S
C1535 C1537 1.327 . S
C1535 H1558 0.950 . S
C1536 C1535 1.349 . S
C1536 C1548 1.349 . S
C1537 C1535 1.327 . S
C1537 C1553 1.429 . S
C1537 H1559 0.950 . S
C1538 H1534 0.949 . S
C1538 C1546 1.574 . S
C1538 C1554 1.368 . S
H1539 C1547 0.950 . S
H1540 C1545 0.950 . S
H1541 C1546 0.949 . S
H1542 C1548 0.950 . S
H1543 C1549 0.950 . S
H1544 C1550 0.949 . S
C1545 H1540 0.950 . S
C1545 C1547 1.327 . S
C1545 C1551 1.429 . S
C1546 C1538 1.574 . S
C1546 H1541 0.949 . S
C1546 C1552 1.368 . S
C1547 C1531 1.349 . S
C1547 H1539 0.950 . S
C1547 C1545 1.327 . S
C1548 C1536 1.349 . S
C1548 H1542 0.950 . S
C1548 C1549 1.327 . S
C1549 H1543 0.950 . S
C1549 C1548 1.327 . S
C1549 C1553 1.429 . S
C1550 C1533 1.574 . S
C1550 H1544 0.949 . S
C1550 C1554 1.368 . S
C1551 C1532 1.429 . S
C1551 C1545 1.429 . S
C1551 C1552 1.523 . S
C1552 C1533 1.368 . S
C1552 C1546 1.368 . S
C1552 C1551 1.523 . S
C1553 C1537 1.429 . S
C1553 C1549 1.429 . S
C1553 C1554 1.523 . S
C1554 C1538 1.368 . S
C1554 C1550 1.368 . S
C1554 C1553 1.523 . S
H1555 C1530 0.950 . S
H1556 C1532 0.950 . S
H1557 C1533 0.949 . S
H1558 C1535 0.950 . S
H1559 C1537 0.950 . S
C481 C18 0.929 . S
C486 C338 0.929 . S
C511 C58 0.929 . S
C516 C378 0.929 . S
C541 C98 0.929 . S
C546 C418 0.929 . S
C571 C458 0.929 . S
C576 C138 0.929 . S
C601 C178 0.929 . S
C606 C258 0.929 . S
C631 C298 0.929 . S
C636 C218 0.929 . S
C661 C405 1.708 . S
C666 C5 1.708 . S
C691 C445 1.708 . S
C696 C45 1.708 . S
C721 C85 1.708 . S
C726 C245 1.708 . S
C751 C285 1.708 . S
C756 C125 1.708 . S
C781 C325 1.708 . S
C786 C165 1.708 . S
C811 C205 1.708 . S
C816 C365 1.708 . S
C841 C289 4.241 . S
C846 C9 4.241 . S
C871 C329 4.241 . S
C876 C49 4.241 . S
C901 C369 4.241 . S
C906 C89 4.241 . S
C931 C129 4.241 . S
C936 C409 4.241 . S
C961 C169 4.241 . S
C966 C449 4.241 . S
C991 C209 4.241 . S
C996 C249 4.241 . S
C1021 C8 0.680 . S
C1026 C128 0.680 . S
C1051 C48 0.680 . S
C1056 C168 0.680 . S
C1081 C88 0.680 . S
C1086 C208 0.680 . S
C1111 C368 0.680 . S
C1116 C248 0.680 . S
C1141 C288 0.680 . S
C1146 C408 0.680 . S
C1171 C448 0.680 . S
C1176 C328 0.680 . S
C1201 C295 0.667 . S
C1206 C15 0.667 . S
C1231 C335 0.666 . S
C1236 C55 0.666 . S
C1261 C95 0.667 . S
C1266 C375 0.667 . S
C1291 C415 0.667 . S
C1296 C135 0.667 . S
C1321 C455 0.666 . S
C1326 C175 0.666 . S
C1351 C215 0.667 . S
C1356 C255 0.667 . S
C1381 C19 4.571 . S
C1386 C419 4.571 . S
C1411 C59 4.571 . S
C1416 C459 4.571 1_556 S
C1441 C99 4.571 1_554 S
C1446 C259 4.571 . S
C1471 C139 4.571 . S
C1476 C299 4.571 . S
C1501 C179 4.571 . S
C1506 C339 4.571 1_556 S
C1531 C379 4.571 . S
C1536 C219 4.571 1_554 S
