# Generated by pormake.
# Topology unj, (4)-cn, num edge types: 1
# Building blocks:
#     Node 0, Type 0, BuildingBlock: ICAMEG_clean_sbu_1, # of connection points: 4
#     Node 1, Type 0, BuildingBlock: ICAMEG_clean_sbu_1, # of connection points: 4
#     Node 2, Type 0, BuildingBlock: ICAMEG_clean_sbu_1, # of connection points: 4
#     Node 3, Type 0, BuildingBlock: ICAMEG_clean_sbu_1, # of connection points: 4
#     Node 4, Type 0, BuildingBlock: ICAMEG_clean_sbu_1, # of connection points: 4
#     Node 5, Type 0, BuildingBlock: ICAMEG_clean_sbu_1, # of connection points: 4
#     Edge 6, Type (0, 0), BuildingBlock: AJUNOK_clean_linker_0, # of connection points: 2
#     Edge 7, Type (0, 0), BuildingBlock: AJUNOK_clean_linker_0, # of connection points: 2
#     Edge 8, Type (0, 0), BuildingBlock: AJUNOK_clean_linker_0, # of connection points: 2
#     Edge 9, Type (0, 0), BuildingBlock: AJUNOK_clean_linker_0, # of connection points: 2
#     Edge 10, Type (0, 0), BuildingBlock: AJUNOK_clean_linker_0, # of connection points: 2
#     Edge 11, Type (0, 0), BuildingBlock: AJUNOK_clean_linker_0, # of connection points: 2
#     Edge 12, Type (0, 0), BuildingBlock: AJUNOK_clean_linker_0, # of connection points: 2
#     Edge 13, Type (0, 0), BuildingBlock: AJUNOK_clean_linker_0, # of connection points: 2
#     Edge 14, Type (0, 0), BuildingBlock: AJUNOK_clean_linker_0, # of connection points: 2
#     Edge 15, Type (0, 0), BuildingBlock: AJUNOK_clean_linker_0, # of connection points: 2
#     Edge 16, Type (0, 0), BuildingBlock: AJUNOK_clean_linker_0, # of connection points: 2
#     Edge 17, Type (0, 0), BuildingBlock: AJUNOK_clean_linker_0, # of connection points: 2
# Relax obj value: 0.090
# Max RMSD: 0.191
# Mean RMSD: 0.155
data_MOF--net-unj--node1-ICAMEG_clean_sbu_1--edge1-AJUNOK_clean_linker_0
_symmetry_space_group_name_H-M    P1
_symmetry_Int_Tables_number       1
_symmetry_cell_setting            triclinic
loop_
_symmetry_equiv_pos_as_xyz
'x, y, z'
_cell_length_a     23.484185
_cell_length_b     26.184469
_cell_length_c     29.636319
_cell_angle_alpha  89.779128
_cell_angle_beta   89.87307
_cell_angle_gamma 120.11928
loop_
_atom_site_label
_atom_site_type_symbol
_atom_site_fract_x
_atom_site_fract_y
_atom_site_fract_z
_atom_type_partial_charge
Co0 Co 0.60762 0.33264 0.60511 0.0
Co1 Co 0.47153 0.19861 0.62924 0.0
O2 O 0.53709 0.25465 0.58627 0.0
C3 C 0.60535 0.41308 0.53428 0.0
O4 O 0.60153 0.44552 0.56653 0.0
C5 C 0.50047 0.12466 0.56424 0.0
O6 O 0.55067 0.17232 0.5473 0.0
O7 O 0.54321 0.20405 0.66874 0.0
O8 O 0.61324 0.30152 0.66588 0.0
H9 H 0.37882 0.12597 0.7844 0.0
H10 H 0.62541 0.2863 0.51814 0.0
O11 O 0.60383 0.36486 0.54419 0.0
H12 H 0.81151 0.31483 0.61265 0.0
H13 H 0.81984 0.52615 0.58557 0.0
H14 H 0.63362 0.40431 0.68764 0.0
H15 H 0.72959 0.33889 0.6419 0.0
H16 H 0.73148 0.42785 0.56201 0.0
O17 O 0.46709 0.12832 0.59689 0.0
H18 H 0.45831 0.1957 0.72878 0.0
H19 H 0.34796 0.08166 0.62175 0.0
H20 H 0.72105 0.5023 0.7126 0.0
H21 H 0.70717 0.26306 0.48712 0.0
H22 H 0.81501 0.56397 0.66139 0.0
H23 H 0.80089 0.27695 0.53459 0.0
O24 O 0.54076 0.35121 0.62896 0.0
H25 H 0.35859 0.18131 0.48116 0.0
H26 H 0.34891 0.20334 0.64565 0.0
H27 H 0.26131 0.19939 0.59765 0.0
H28 H 0.26553 0.18791 0.51476 0.0
H29 H 0.44561 0.18641 0.53026 0.0
H30 H 0.26741 1.0105 0.67624 0.0
H31 H 0.28243 0.03261 0.75821 0.0
O32 O 0.47127 0.26549 0.66302 0.0
C33 C 0.59241 0.25084 0.68409 0.0
C34 C 0.37156 0.11593 0.74876 0.0
C35 C 0.30909 0.05112 0.68806 0.0
N36 N 0.40742 0.14314 0.67205 0.0
C37 C 0.41633 0.15532 0.7171 0.0
C38 C 0.35492 0.09155 0.65737 0.0
C39 C 0.31754 0.06354 0.73405 0.0
C40 C 0.66633 0.29303 0.5389 0.0
N41 N 0.67231 0.31366 0.58192 0.0
C42 C 0.71235 0.27951 0.5212 0.0
C43 C 0.76485 0.28723 0.54786 0.0
C44 C 0.77075 0.30835 0.59169 0.0
C45 C 0.72382 0.32144 0.60822 0.0
C46 C 0.77917 0.4997 0.6082 0.0
C47 C 0.67432 0.43087 0.66514 0.0
C48 C 0.72897 0.44399 0.59505 0.0
N49 N 0.67734 0.41031 0.62342 0.0
C50 C 0.7237 0.48633 0.67947 0.0
C51 C 0.77641 0.52089 0.65073 0.0
C52 C 0.49336 0.32064 0.65619 0.0
C53 C 0.35593 0.18589 0.51727 0.0
C54 C 0.35127 0.19842 0.60963 0.0
C55 C 0.30141 0.19614 0.58261 0.0
C56 C 0.3038 0.1897 0.53612 0.0
N57 N 0.40196 0.19403 0.59098 0.0
C58 C 0.40495 0.18839 0.54535 0.0
Co59 Co 0.24796 0.42674 0.79413 0.0
Co60 Co 0.27281 0.56376 0.76808 0.0
O61 O 0.27162 0.49103 0.75011 0.0
C62 C 0.3672 0.43685 0.74757 0.0
O63 O 0.39505 0.4946 0.74829 0.0
C64 C 0.20209 0.53534 0.67967 0.0
O65 O 0.17207 0.47869 0.68907 0.0
O66 O 0.17917 0.51617 0.78786 0.0
O67 O 0.18431 0.44458 0.82599 0.0
H68 H 0.22849 0.68906 0.87422 0.0
H69 H 0.23977 0.40009 0.69653 0.0
O70 O 0.30956 0.40479 0.76392 0.0
H71 H 1.01471 0.27348 0.75565 0.0
H72 H 0.19001 0.22164 0.84297 0.0
H73 H 0.22903 0.41579 0.89344 0.0
H74 H 0.10468 0.33919 0.8064 0.0
H75 H 0.21745 0.3017 0.78795 0.0
O76 O 0.24311 0.57295 0.70702 0.0
H77 H 0.22933 0.59945 0.84997 0.0
H78 H 0.31555 0.68088 0.72449 0.0
H79 H 0.20084 0.3368 0.94953 0.0
H80 H 0.15137 0.33431 0.64466 0.0
H81 H 0.18127 0.23888 0.92442 0.0
H82 H 0.03782 0.27059 0.67414 0.0
O83 O 0.31997 0.48203 0.83487 0.0
H84 H 0.45875 0.61917 0.65882 0.0
H85 H 0.39701 0.6624 0.80685 0.0
H86 H 0.51265 0.71876 0.78164 0.0
H87 H 0.54417 0.6974 0.70701 0.0
H88 H 0.34377 0.5633 0.68576 0.0
H89 H 0.31489 0.77108 0.74719 0.0
H90 H 0.27147 0.77569 0.82264 0.0
O91 O 0.30427 0.55935 0.82999 0.0
C92 C 0.15521 0.47295 0.81552 0.0
C93 C 0.24771 0.68765 0.84131 0.0
C94 C 0.29613 0.73365 0.76999 0.0
N95 N 0.27291 0.63504 0.78601 0.0
C96 C 0.24847 0.63708 0.82743 0.0
C97 C 0.2962 0.68237 0.75728 0.0
C98 C 0.27178 0.73622 0.81234 0.0
C99 C 0.19065 0.372 0.70969 0.0
N100 N 0.17754 0.37344 0.75445 0.0
C101 C 0.14073 0.33504 0.68013 0.0
C102 C 0.077 0.29938 0.69668 0.0
C103 C 0.06399 0.30102 0.74239 0.0
C104 C 0.11514 0.33852 0.77094 0.0
C105 C 0.19857 0.26414 0.85435 0.0
C106 C 0.22048 0.37331 0.8822 0.0
C107 C 0.2145 0.30975 0.82337 0.0
N108 N 0.22532 0.36352 0.83746 0.0
C109 C 0.20457 0.32874 0.91414 0.0
C110 C 0.19363 0.27383 0.90004 0.0
C111 C 0.32904 0.53139 0.84935 0.0
C112 C 0.44566 0.6289 0.69141 0.0
C113 C 0.4104 0.65236 0.77464 0.0
C114 C 0.47593 0.68467 0.76039 0.0
C115 C 0.49357 0.67273 0.71849 0.0
N116 N 0.3637 0.60936 0.74796 0.0
C117 C 0.3806 0.59753 0.70678 0.0
Co118 Co 0.77472 0.34702 0.93275 0.0
Co119 Co 0.79677 0.22947 0.91649 0.0
O120 O 0.77286 0.27599 0.95599 0.0
C121 C 0.84353 0.38912 0.02068 0.0
O122 O 0.87617 0.36153 1.01266 0.0
C123 C 0.67446 0.13495 0.96335 0.0
O124 O 0.64299 0.16281 0.95239 0.0
O125 O 0.72634 0.21829 0.87291 0.0
O126 O 0.74893 0.31208 0.87109 0.0
H127 H 0.84931 0.17064 0.76779 0.0
H128 H 0.69554 0.28777 1.01415 0.0
O129 O 0.79997 0.38531 0.99331 0.0
H130 H 0.53742 0.28519 0.90365 0.0
H131 H 0.73339 0.51798 0.93866 0.0
H132 H 0.82846 0.41974 0.84987 0.0
H133 H 0.65536 0.3316 0.88451 0.0
H134 H 0.72862 0.42728 0.96709 0.0
O135 O 0.73392 0.15538 0.95058 0.0
H136 H 0.82076 0.22919 0.81823 0.0
H137 H 0.81965 0.12822 0.93114 0.0
H138 H 0.83349 0.5099 0.81985 0.0
H139 H 0.57801 0.24133 0.03488 0.0
H140 H 0.7858 0.5597 0.8644 0.0
H141 H 0.49807 0.23973 0.97935 0.0
O142 O 0.86927 0.38111 0.91708 0.0
H143 H 0.88986 0.23594 0.07031 0.0
H144 H 0.93884 0.26538 0.9073 0.0
H145 H 0.02715 0.28275 0.96054 0.0
H146 H 1.00292 0.26797 0.04272 0.0
H147 H 0.80307 0.21964 1.01588 0.0
H148 H 0.84742 0.06815 0.88181 0.0
H149 H 0.8628 0.08943 0.79953 0.0
O150 O 0.86308 0.30249 0.88236 0.0
C151 C 0.72252 0.26047 0.85417 0.0
C152 C 0.84285 0.16101 0.80359 0.0
C153 C 0.84171 0.10344 0.86758 0.0
N154 N 0.81886 0.18238 0.87762 0.0
C155 C 0.82681 0.1941 0.83236 0.0
C156 C 0.82574 0.13749 0.89532 0.0
C157 C 0.85037 0.11542 0.82142 0.0
C158 C 0.66107 0.28767 0.98999 0.0
N159 N 0.68231 0.31257 0.94829 0.0
C160 C 0.59459 0.26114 1.00184 0.0
C161 C 0.54974 0.26019 0.97064 0.0
C162 C 0.57178 0.28566 0.92815 0.0
C163 C 0.63862 0.31175 0.91747 0.0
C164 C 0.75418 0.4966 0.91886 0.0
C165 C 0.80715 0.44089 0.86928 0.0
C166 C 0.75175 0.44528 0.93483 0.0
N167 N 0.77776 0.41794 0.90998 0.0
C168 C 0.81033 0.49204 0.85218 0.0
C169 C 0.7836 0.51999 0.87721 0.0
C170 C 0.89347 0.35748 0.89182 0.0
C171 C 0.90099 0.24239 0.03458 0.0
C172 C 0.92784 0.25896 0.94301 0.0
C173 C 0.97807 0.26872 0.97299 0.0
C174 C 0.96443 0.26042 0.01908 0.0
N175 N 0.86573 0.24138 0.95845 0.0
C176 C 0.85199 0.23303 1.00359 0.0
Co177 Co 0.44097 0.71162 0.09173 0.0
Co178 Co 0.58157 0.83333 0.12838 0.0
O179 O 0.52156 0.78635 0.08027 0.0
C180 C 0.44573 0.63134 0.02334 0.0
O181 O 0.44078 0.59614 0.05669 0.0
C182 C 0.56049 0.92131 0.07688 0.0
O183 O 0.4968 0.88533 0.08094 0.0
O184 O 0.508 0.83277 0.16313 0.0
O185 O 0.42701 0.74002 0.15127 0.0
H186 H 0.65354 0.88653 0.2892 0.0
H187 H 0.45908 0.77726 1.00644 0.0
O188 O 0.45243 0.68184 0.03198 0.0
H189 H 0.25813 0.75867 0.0751 0.0
H190 H 0.22094 0.53665 0.05068 0.0
H191 H 0.38706 0.63064 0.17023 0.0
H192 H 0.3176 0.71503 0.11211 0.0
H193 H 0.32255 0.63154 0.03659 0.0
O194 O 0.60032 0.90782 0.09528 0.0
H195 H 0.57826 0.82713 0.22828 0.0
H196 H 0.71308 0.94327 0.12975 0.0
H197 H 0.28596 0.53587 0.18584 0.0
H198 H 0.40059 0.82078 0.96769 0.0
H199 H 0.20203 0.48825 0.12582 0.0
H200 H 0.2995 0.81194 1.00215 0.0
O201 O 0.49335 0.68056 0.12226 0.0
H202 H 0.71595 0.85503 0.9898 0.0
H203 H 0.68896 0.8089 0.15262 0.0
H204 H 0.77834 0.80654 0.11062 0.0
H205 H 0.79247 0.82998 0.02864 0.0
H206 H 0.62667 0.85614 0.03297 0.0
H207 H 0.78957 1.00443 0.1896 0.0
H208 H 0.76013 0.97594 0.26999 0.0
O209 O 0.56592 0.75991 0.16157 0.0
C210 C 0.45191 0.78839 0.17316 0.0
C211 C 0.66709 0.89927 0.2543 0.0
C212 C 0.74338 0.96547 0.1984 0.0
N213 N 0.64163 0.88123 0.17553 0.0
C214 C 0.62477 0.86565 0.21967 0.0
C215 C 0.69981 0.93074 0.16466 0.0
C216 C 0.72684 0.94945 0.2435 0.0
C217 C 0.4148 0.77269 0.0215 0.0
N218 N 0.39197 0.74369 0.06176 0.0
C219 C 0.38202 0.79766 0.99945 0.0
C220 C 0.32539 0.79278 0.01883 0.0
C221 C 0.30225 0.76301 0.05979 0.0
C222 C 0.3364 0.7387 0.08088 0.0
C223 C 0.25709 0.55701 0.07714 0.0
C224 C 0.35079 0.61019 0.14393 0.0
C225 C 0.31473 0.61075 0.06937 0.0
N226 N 0.36067 0.63678 0.10263 0.0
C227 C 0.29362 0.55653 0.15297 0.0
C228 C 0.24653 0.52985 0.11929 0.0
C229 C 0.53728 0.70467 0.15273 0.0
C230 C 0.71041 0.8449 0.02553 0.0
C231 C 0.69453 0.81885 0.1169 0.0
C232 C 0.74537 0.81761 0.09333 0.0
C233 C 0.75328 0.83078 0.04734 0.0
N234 N 0.6528 0.83296 0.09531 0.0
C235 C 0.66007 0.84565 0.05019 0.0
Co236 Co 0.78112 0.6065 0.28863 0.0
Co237 Co 0.76876 0.46936 0.27602 0.0
O238 O 0.75992 0.53581 0.25276 0.0
C239 C 0.65482 0.5792 0.23887 0.0
O240 O 0.64579 0.52872 0.22361 0.0
C241 C 0.84322 0.49926 0.18895 0.0
O242 O 0.86716 0.5557 0.19667 0.0
O243 O 0.86054 0.52399 0.29718 0.0
O244 O 0.86061 0.60743 0.31393 0.0
H245 H 0.82393 0.36197 0.39322 0.0
H246 H 0.7639 0.60377 0.18889 0.0
O247 O 0.70341 0.61094 0.26448 0.0
H248 H 0.98412 0.7745 0.2169 0.0
H249 H 0.80699 0.80684 0.31698 0.0
H250 H 0.82508 0.64225 0.38266 0.0
H251 H 0.91439 0.71403 0.28015 0.0
H252 H 0.7826 0.7199 0.27116 0.0
O253 O 0.80421 0.46069 0.217 0.0
H254 H 0.81271 0.44421 0.36274 0.0
H255 H 0.74244 0.35356 0.23863 0.0
H256 H 0.85072 0.72874 0.42955 0.0
H257 H 0.83117 0.6637 0.12477 0.0
H258 H 0.84159 0.81178 0.39675 0.0
H259 H 0.94243 0.74966 0.13845 0.0
O260 O 0.72545 0.55638 0.34036 0.0
H261 H 0.58644 0.38878 0.1621 0.0
H262 H 0.64866 0.3671 0.31664 0.0
H263 H 0.53576 0.29981 0.2904 0.0
H264 H 0.50404 0.31027 0.21248 0.0
H265 H 0.69849 0.45578 0.19013 0.0
H266 H 0.75357 0.27063 0.26763 0.0
H267 H 0.79433 0.27439 0.34551 0.0
O268 O 0.73258 0.47436 0.3354 0.0
C269 C 0.88808 0.57598 0.3135 0.0
C270 C 0.806 0.35975 0.35925 0.0
C271 C 0.76663 0.30855 0.28874 0.0
N272 N 0.77679 0.40371 0.299 0.0
C273 C 0.79938 0.40613 0.34184 0.0
C274 C 0.76066 0.35577 0.27245 0.0
C275 C 0.78945 0.31067 0.33245 0.0
C276 C 0.81169 0.64147 0.1954 0.0
N277 N 0.8349 0.65529 0.23851 0.0
C278 C 0.84984 0.67511 0.15881 0.0
C279 C 0.9123 0.72324 0.16649 0.0
C280 C 0.93574 0.73712 0.21047 0.0
C281 C 0.89619 0.70244 0.2462 0.0
C282 C 0.81121 0.77097 0.33166 0.0
C283 C 0.82142 0.67838 0.36805 0.0
C284 C 0.7972 0.72148 0.30592 0.0
N285 N 0.80247 0.67598 0.3242 0.0
C286 C 0.83584 0.72718 0.3948 0.0
C287 C 0.83064 0.77372 0.3764 0.0
C288 C 0.71455 0.50662 0.35584 0.0
C289 C 0.5996 0.38382 0.19615 0.0
C290 C 0.635 0.37258 0.28305 0.0
C291 C 0.5711 0.33403 0.2682 0.0
C292 C 0.55338 0.33984 0.22445 0.0
N293 N 0.68 0.41578 0.25519 0.0
C294 C 0.66304 0.42153 0.21219 0.0
Co295 Co 0.27149 0.68855 0.42155 0.0
Co296 Co 0.26512 0.81659 0.41495 0.0
O297 O 0.28397 0.76199 0.44869 0.0
C298 C 0.20473 0.64674 0.51039 0.0
O299 O 0.17652 0.67857 0.50404 0.0
C300 C 0.38148 0.89567 0.47567 0.0
O301 O 0.38329 0.85042 0.49319 0.0
O302 O 0.32595 0.82173 0.36537 0.0
O303 O 0.29752 0.72642 0.36052 0.0
H304 H 0.2073 0.88983 0.27524 0.0
H305 H 0.35585 0.73429 0.50252 0.0
O306 O 0.24511 0.64738 0.48144 0.0
H307 H 0.50055 0.73176 0.38277 0.0
H308 H 0.28934 0.50477 0.4171 0.0
H309 H 0.20705 0.62112 0.33877 0.0
H310 H 0.38379 0.69768 0.36738 0.0
H311 H 0.30653 0.59808 0.44941 0.0
O312 O 0.34054 0.88826 0.44454 0.0
H313 H 0.22906 0.82193 0.32003 0.0
H314 H 0.26407 0.92775 0.43643 0.0
H315 H 0.18964 0.52862 0.30479 0.0
H316 H 0.47222 0.76815 0.51955 0.0
H317 H 0.23086 0.46962 0.34411 0.0
H318 H 0.54546 0.76716 0.45937 0.0
O319 O 0.17786 0.66278 0.40838 0.0
H320 H 0.19246 0.80722 0.57675 0.0
H321 H 0.1319 0.80424 0.4174 0.0
H322 H 0.05428 0.79533 0.47695 0.0
H323 H 0.0845 0.79723 0.55743 0.0
H324 H 0.26773 0.81468 0.51626 0.0
H325 H 0.24368 0.99721 0.3927 0.0
H326 H 0.21466 0.97827 0.31156 0.0
O327 O 0.18785 0.74819 0.38437 0.0
C328 C 0.32451 0.77867 0.34434 0.0
C329 C 0.21971 0.89847 0.3106 0.0
C330 C 0.24024 0.95879 0.3765 0.0
N331 N 0.24742 0.87058 0.38086 0.0
C332 C 0.23188 0.86007 0.33617 0.0
C333 C 0.25201 0.91939 0.40104 0.0
C334 C 0.22392 0.94812 0.33099 0.0
C335 C 0.38736 0.73349 0.47624 0.0
N336 N 0.36306 0.71421 0.43402 0.0
C337 C 0.45323 0.75282 0.48604 0.0
C338 C 0.49431 0.75231 0.45225 0.0
C339 C 0.46917 0.73251 0.40926 0.0
C340 C 0.40305 0.71352 0.40069 0.0
C341 C 0.27145 0.53022 0.39951 0.0
C342 C 0.22598 0.59623 0.35567 0.0
C343 C 0.28099 0.58308 0.41766 0.0
N344 N 0.25871 0.61558 0.39558 0.0
C345 C 0.2156 0.54363 0.33645 0.0
C346 C 0.23864 0.51052 0.35857 0.0
C347 C 0.15497 0.69189 0.38851 0.0
C348 C 0.17896 0.80694 0.54181 0.0
C349 C 0.14558 0.80498 0.45219 0.0
C350 C 0.10135 0.80003 0.48586 0.0
C351 C 0.11833 0.80114 0.53097 0.0
N352 N 0.20539 0.81129 0.46296 0.0
C353 C 0.22193 0.81181 0.50721 0.0
C354 C 0.45192 1.01449 0.56607 0.0
C355 C 0.47593 0.06717 0.54104 0.0
C356 C 0.42473 0.95934 0.54453 0.0
C357 C 0.41857 0.95468 0.49722 0.0
H358 H 0.45375 1.01589 0.6026 0.0
H359 H 0.40582 0.9199 0.56522 0.0
S360 S 0.47277 0.07924 0.41638 0.0
N361 N 0.49243 0.11114 0.46634 0.0
N362 N 0.43896 1.00766 0.42614 0.0
C363 C 0.44257 1.00707 0.47188 0.0
C364 C 0.47187 0.06323 0.4937 0.0
C365 C 0.48046 0.40935 0.67128 0.0
C366 C 0.46265 0.35038 0.68134 0.0
C367 C 0.4506 0.4375 0.6934 0.0
C368 C 0.40142 0.40789 0.7264 0.0
H369 H 0.51722 0.43395 0.64565 0.0
H370 H 0.46521 0.48241 0.68379 0.0
S371 S 0.34103 0.25538 0.76878 0.0
N372 N 0.3951 0.26503 0.72924 0.0
N373 N 0.33984 0.31777 0.77044 0.0
C374 C 0.38453 0.34967 0.73775 0.0
C375 C 0.41485 0.32104 0.71538 0.0
C376 C 0.97035 0.40332 0.8265 0.0
C377 C 0.96033 0.39442 0.87332 0.0
C378 C 0.03426 0.43274 0.80804 0.0
C379 C 0.08981 0.45246 0.83583 0.0
H380 H 0.9285 0.38629 0.804 0.0
H381 H 0.04013 0.43721 0.77171 0.0
S382 S 0.08947 0.43988 0.96044 0.0
N383 N 1.01081 0.4092 0.94706 0.0
N384 N 0.13068 0.46175 0.91231 0.0
C385 C 0.08026 0.44446 0.8827 0.0
C386 C 1.01548 0.41612 0.9015 0.0
C387 C 0.65531 1.00926 0.0394 0.0
C388 C 0.58726 0.97627 0.04867 0.0
C389 C 0.68237 0.05992 1.0119 0.0
C390 C 0.64295 0.08063 0.99241 0.0
H391 H 0.68837 0.99566 0.05315 0.0
H392 H 0.73507 0.08316 1.00611 0.0
S393 S 0.46171 1.01096 1.00591 0.0
N394 N 0.48078 0.96836 0.03585 0.0
N395 N 0.53179 0.06385 0.98458 0.0
C396 C 0.57482 0.04848 1.00158 0.0
C397 C 0.54702 0.99636 0.02947 0.0
C398 C 0.58418 0.58749 0.17855 0.0
C399 C 0.6158 0.60534 0.22064 0.0
C400 C 0.55617 0.6181 0.15764 0.0
C401 C 0.55891 0.66792 0.17791 0.0
H402 H 0.58363 0.55131 0.16057 0.0
H403 H 0.53493 0.60421 0.12443 0.0
S404 S 0.62622 0.72658 0.29139 0.0
N405 N 0.64062 0.67158 0.28426 0.0
N406 N 0.58895 0.72904 0.24499 0.0
C407 C 0.58682 0.68386 0.22119 0.0
C408 C 0.61492 0.65262 0.24252 0.0
C409 C 0.05731 0.69234 0.35509 0.0
C410 C 0.08711 0.6599 0.36917 0.0
C411 C 0.99334 0.6646 0.33788 0.0
C412 C 0.95618 0.60297 0.33224 0.0
H413 H 0.08322 0.73995 0.35754 0.0
H414 H 0.97328 0.69234 0.32877 0.0
S415 S 1.01128 0.49678 0.36241 0.0
N416 N 0.07392 0.56181 0.37626 0.0
N417 N 0.95467 0.50996 0.34171 0.0
C418 C 0.98554 0.56967 0.3453 0.0
C419 C 0.05054 0.59796 0.36417 0.0
C420 C 0.63336 0.40231 0.45505 0.0
C421 C 0.62461 0.43684 0.48747 0.0
C422 C 0.66088 0.4252 0.41281 0.0
C423 C 0.68022 0.48367 0.40009 0.0
H424 H 0.62104 0.35744 0.46271 0.0
H425 H 0.6685 0.3966 0.3905 0.0
S426 S 0.663 0.59179 0.47099 0.0
N427 N 0.63431 0.53216 0.50314 0.0
N428 N 0.68483 0.57483 0.42284 0.0
C429 C 0.66889 0.51814 0.43126 0.0
C430 C 0.64133 0.49484 0.47498 0.0
C431 C 0.1919 0.63816 0.59416 0.0
C432 C 0.19435 0.61331 0.55283 0.0
C433 C 0.19177 0.61114 0.63515 0.0
C434 C 0.19214 0.5575 0.63621 0.0
H435 H 0.19355 0.68026 0.5949 0.0
H436 H 0.19305 0.63318 0.66633 0.0
S437 S 0.19236 0.47187 0.53709 0.0
N438 N 0.19333 0.53045 0.51524 0.0
N439 N 0.19102 0.47884 0.59241 0.0
C440 C 0.19078 0.53052 0.59513 0.0
C441 C 0.19251 0.55872 0.55338 0.0
C442 C 0.71308 0.30294 0.78143 0.0
C443 C 0.6909 0.25292 0.80938 0.0
C444 C 0.68175 0.30087 0.74098 0.0
C445 C 0.62635 0.24854 0.72603 0.0
H446 H 0.7549 0.34486 0.7911 0.0
H447 H 0.70095 0.34154 0.72182 0.0
S448 S 0.54977 0.10389 0.78587 0.0
N449 N 0.61134 0.1486 0.81882 0.0
N450 N 0.55193 0.1442 0.74216 0.0
C451 C 0.60459 0.19732 0.75292 0.0
C452 C 0.637 0.19957 0.79457 0.0
C453 C 0.38125 0.61449 0.90426 0.0
C454 C 0.36638 0.5572 0.89181 0.0
C455 C 0.41088 0.63918 0.94542 0.0
C456 C 0.4261 0.60752 0.97688 0.0
H457 H 0.36814 0.64042 0.88274 0.0
H458 H 0.41889 0.68265 0.95331 0.0
S459 S 0.40256 0.45759 0.95994 0.0
N460 N 0.37395 0.47099 0.91325 0.0
N461 N 0.42818 0.51693 0.99154 0.0
C462 C 0.41417 0.55107 0.96438 0.0
C463 C 0.38466 0.52605 0.92178 0.0
C464 C 0.85944 0.39942 0.10416 0.0
C465 C 0.854 0.42276 0.06274 0.0
C466 C 0.85896 0.42622 0.14497 0.0
C467 C 0.85496 0.47816 0.14567 0.0
H468 H 0.86039 0.35848 0.10517 0.0
H469 H 0.85978 0.40516 0.17633 0.0
S470 S 0.84651 0.5598 0.04593 0.0
N471 N 0.84884 0.5027 0.02456 0.0
N472 N 0.8498 0.55385 0.10125 0.0
C473 C 0.8536 0.50385 0.10436 0.0
C474 C 0.85255 0.47587 0.06288 0.0
C475 C 0.41567 0.8346 0.28749 0.0
C476 C 0.35278 0.78718 0.29825 0.0
C477 C 0.44654 0.83629 0.24612 0.0
C478 C 0.41567 0.79048 0.21417 0.0
H479 H 0.44244 0.86902 0.312 0.0
H480 H 0.49598 0.87252 0.24004 0.0
S481 S 0.24638 0.66062 0.22471 0.0
N482 N 0.25761 0.69753 0.27189 0.0
N483 N 0.3153 0.69879 0.19581 0.0
C484 C 0.35112 0.74458 0.22407 0.0
C485 C 0.31983 0.74346 0.26562 0.0
loop_
_geom_bond_atom_site_label_1
_geom_bond_atom_site_label_2
_geom_bond_distance
_geom_bond_site_symmetry_2
_ccdc_geom_bond_type
Co0 O2 2.143 . S
Co0 O8 2.074 . S
Co0 O11 2.093 . S
Co0 O24 2.097 . S
Co0 N41 2.151 . S
Co0 N49 2.214 . S
Co1 O2 2.160 . S
Co1 O7 2.058 . S
Co1 O17 2.057 . S
Co1 O32 2.037 . S
Co1 N36 2.145 . S
Co1 N57 2.257 . S
O2 Co0 2.143 . S
O2 Co1 2.160 . S
C3 O4 1.278 . S
C3 O11 1.224 . S
O4 C3 1.278 . S
C5 O6 1.245 . S
C5 O17 1.232 . S
O6 C5 1.245 . S
O7 Co1 2.058 . S
O7 C33 1.269 . S
O8 Co0 2.074 . S
O8 C33 1.257 . S
H9 C34 0.930 . S
H10 C40 0.930 . S
O11 Co0 2.093 . S
O11 C3 1.224 . S
H12 C44 0.929 . S
H13 C46 0.930 . S
H14 C47 0.930 . S
H15 C45 0.929 . S
H16 C48 0.928 . S
O17 Co1 2.057 . S
O17 C5 1.232 . S
H18 C37 0.929 . S
H19 C38 0.929 . S
H20 C50 0.931 . S
H21 C42 0.929 . S
H22 C51 0.930 . S
H23 C43 0.931 . S
O24 Co0 2.097 . S
O24 C52 1.214 . S
H25 C53 0.929 . S
H26 C54 0.929 . S
H27 C55 0.930 . S
H28 C56 0.929 . S
H29 C58 0.930 . S
H30 C35 0.930 . S
H31 C39 0.930 . S
O32 Co1 2.037 . S
O32 C52 1.234 . S
C33 O7 1.269 . S
C33 O8 1.257 . S
C34 H9 0.930 . S
C34 C37 1.388 . S
C34 C39 1.418 . S
C35 H30 0.930 . S
C35 C38 1.404 . S
C35 C39 1.353 . S
N36 Co1 2.145 . S
N36 C37 1.397 . S
N36 C38 1.334 . S
C37 H18 0.929 . S
C37 C34 1.388 . S
C37 N36 1.397 . S
C38 H19 0.929 . S
C38 C35 1.404 . S
C38 N36 1.334 . S
C39 H31 0.930 . S
C39 C34 1.418 . S
C39 C35 1.353 . S
C40 H10 0.930 . S
C40 N41 1.330 . S
C40 C42 1.446 . S
N41 Co0 2.151 . S
N41 C40 1.330 . S
N41 C45 1.418 . S
C42 H21 0.929 . S
C42 C40 1.446 . S
C42 C43 1.332 . S
C43 H23 0.931 . S
C43 C42 1.332 . S
C43 C44 1.267 . S
C44 H12 0.929 . S
C44 C43 1.267 . S
C44 C45 1.251 . S
C45 H15 0.929 . S
C45 N41 1.418 . S
C45 C44 1.251 . S
C46 H13 0.930 . S
C46 C48 1.406 . S
C46 C51 1.261 . S
C47 H14 0.930 . S
C47 N49 1.325 . S
C47 C50 1.357 . S
C48 H16 0.928 . S
C48 C46 1.406 . S
C48 N49 1.261 . S
N49 Co0 2.214 . S
N49 C47 1.325 . S
N49 C48 1.261 . S
C50 H20 0.931 . S
C50 C47 1.357 . S
C50 C51 1.312 . S
C51 H22 0.930 . S
C51 C46 1.261 . S
C51 C50 1.312 . S
C52 O24 1.214 . S
C52 O32 1.234 . S
C53 H25 0.929 . S
C53 C56 1.391 . S
C53 C58 1.391 . S
C54 H26 0.929 . S
C54 C55 1.390 . S
C54 N57 1.391 . S
C55 H27 0.930 . S
C55 C54 1.390 . S
C55 C56 1.392 . S
C56 H28 0.929 . S
C56 C53 1.391 . S
C56 C55 1.392 . S
N57 Co1 2.257 . S
N57 C54 1.391 . S
N57 C58 1.388 . S
C58 H29 0.930 . S
C58 C53 1.391 . S
C58 N57 1.388 . S
Co59 O61 2.143 . S
Co59 O67 2.074 . S
Co59 O70 2.093 . S
Co59 O83 2.097 . S
Co59 N100 2.151 . S
Co59 N108 2.214 . S
Co60 O61 2.160 . S
Co60 O66 2.058 . S
Co60 O76 2.057 . S
Co60 O91 2.037 . S
Co60 N95 2.145 . S
Co60 N116 2.257 . S
O61 Co59 2.143 . S
O61 Co60 2.160 . S
C62 O63 1.278 . S
C62 O70 1.224 . S
O63 C62 1.278 . S
C64 O65 1.245 . S
C64 O76 1.232 . S
O65 C64 1.245 . S
O66 Co60 2.058 . S
O66 C92 1.269 . S
O67 Co59 2.074 . S
O67 C92 1.257 . S
H68 C93 0.930 . S
H69 C99 0.930 . S
O70 Co59 2.093 . S
O70 C62 1.224 . S
H71 C103 0.929 . S
H72 C105 0.930 . S
H73 C106 0.930 . S
H74 C104 0.929 . S
H75 C107 0.928 . S
O76 Co60 2.057 . S
O76 C64 1.232 . S
H77 C96 0.929 . S
H78 C97 0.929 . S
H79 C109 0.931 . S
H80 C101 0.929 . S
H81 C110 0.930 . S
H82 C102 0.931 . S
O83 Co59 2.097 . S
O83 C111 1.214 . S
H84 C112 0.929 . S
H85 C113 0.929 . S
H86 C114 0.930 . S
H87 C115 0.929 . S
H88 C117 0.930 . S
H89 C94 0.930 . S
H90 C98 0.930 . S
O91 Co60 2.037 . S
O91 C111 1.234 . S
C92 O66 1.269 . S
C92 O67 1.257 . S
C93 H68 0.930 . S
C93 C96 1.388 . S
C93 C98 1.418 . S
C94 H89 0.930 . S
C94 C97 1.404 . S
C94 C98 1.353 . S
N95 Co60 2.145 . S
N95 C96 1.397 . S
N95 C97 1.334 . S
C96 H77 0.929 . S
C96 C93 1.388 . S
C96 N95 1.397 . S
C97 H78 0.929 . S
C97 C94 1.404 . S
C97 N95 1.334 . S
C98 H90 0.930 . S
C98 C93 1.418 . S
C98 C94 1.353 . S
C99 H69 0.930 . S
C99 N100 1.330 . S
C99 C101 1.446 . S
N100 Co59 2.151 . S
N100 C99 1.330 . S
N100 C104 1.418 . S
C101 H80 0.929 . S
C101 C99 1.446 . S
C101 C102 1.332 . S
C102 H82 0.931 . S
C102 C101 1.332 . S
C102 C103 1.267 . S
C103 H71 0.929 . S
C103 C102 1.267 . S
C103 C104 1.251 . S
C104 H74 0.929 . S
C104 N100 1.418 . S
C104 C103 1.251 . S
C105 H72 0.930 . S
C105 C107 1.406 . S
C105 C110 1.261 . S
C106 H73 0.930 . S
C106 N108 1.325 . S
C106 C109 1.357 . S
C107 H75 0.928 . S
C107 C105 1.406 . S
C107 N108 1.261 . S
N108 Co59 2.214 . S
N108 C106 1.325 . S
N108 C107 1.261 . S
C109 H79 0.931 . S
C109 C106 1.357 . S
C109 C110 1.312 . S
C110 H81 0.930 . S
C110 C105 1.261 . S
C110 C109 1.312 . S
C111 O83 1.214 . S
C111 O91 1.234 . S
C112 H84 0.929 . S
C112 C115 1.391 . S
C112 C117 1.391 . S
C113 H85 0.929 . S
C113 C114 1.390 . S
C113 N116 1.391 . S
C114 H86 0.930 . S
C114 C113 1.390 . S
C114 C115 1.392 . S
C115 H87 0.929 . S
C115 C112 1.391 . S
C115 C114 1.392 . S
N116 Co60 2.257 . S
N116 C113 1.391 . S
N116 C117 1.388 . S
C117 H88 0.930 . S
C117 C112 1.391 . S
C117 N116 1.388 . S
Co118 O120 2.143 . S
Co118 O126 2.074 . S
Co118 O129 2.093 . S
Co118 O142 2.097 . S
Co118 N159 2.151 . S
Co118 N167 2.214 . S
Co119 O120 2.160 . S
Co119 O125 2.058 . S
Co119 O135 2.057 . S
Co119 O150 2.037 . S
Co119 N154 2.145 . S
Co119 N175 2.257 . S
O120 Co118 2.143 . S
O120 Co119 2.160 . S
C121 O122 1.278 . S
C121 O129 1.224 1_554 S
O122 C121 1.278 . S
C123 O124 1.245 . S
C123 O135 1.232 . S
O124 C123 1.245 . S
O125 Co119 2.058 . S
O125 C151 1.269 . S
O126 Co118 2.074 . S
O126 C151 1.257 . S
H127 C152 0.930 . S
H128 C158 0.930 . S
O129 Co118 2.093 . S
O129 C121 1.224 1_556 S
H130 C162 0.929 . S
H131 C164 0.930 . S
H132 C165 0.930 . S
H133 C163 0.929 . S
H134 C166 0.928 . S
O135 Co119 2.057 . S
O135 C123 1.232 . S
H136 C155 0.929 . S
H137 C156 0.929 . S
H138 C168 0.931 . S
H139 C160 0.922 1_554 S
H140 C169 0.930 . S
H141 C161 0.931 . S
O142 Co118 2.097 . S
O142 C170 1.214 . S
H143 C171 0.929 . S
H144 C172 0.929 . S
H145 C173 0.930 . S
H146 C174 0.929 . S
H147 C176 0.930 . S
H148 C153 0.930 . S
H149 C157 0.930 . S
O150 Co119 2.037 . S
O150 C170 1.234 . S
C151 O125 1.269 . S
C151 O126 1.257 . S
C152 H127 0.930 . S
C152 C155 1.388 . S
C152 C157 1.418 . S
C153 H148 0.930 . S
C153 C156 1.404 . S
C153 C157 1.353 . S
N154 Co119 2.145 . S
N154 C155 1.397 . S
N154 C156 1.334 . S
C155 H136 0.929 . S
C155 C152 1.388 . S
C155 N154 1.397 . S
C156 H137 0.929 . S
C156 C153 1.404 . S
C156 N154 1.334 . S
C157 H149 0.930 . S
C157 C152 1.418 . S
C157 C153 1.353 . S
C158 H128 0.930 . S
C158 N159 1.330 . S
C158 C160 1.446 . S
N159 Co118 2.151 . S
N159 C158 1.330 . S
N159 C163 1.418 . S
C160 H139 0.922 1_556 S
C160 C158 1.446 . S
C160 C161 1.332 . S
C161 H141 0.931 . S
C161 C160 1.332 . S
C161 C162 1.267 . S
C162 H130 0.929 . S
C162 C161 1.267 . S
C162 C163 1.251 . S
C163 H133 0.929 . S
C163 N159 1.418 . S
C163 C162 1.251 . S
C164 H131 0.930 . S
C164 C166 1.406 . S
C164 C169 1.261 . S
C165 H132 0.930 . S
C165 N167 1.325 . S
C165 C168 1.357 . S
C166 H134 0.928 . S
C166 C164 1.406 . S
C166 N167 1.261 . S
N167 Co118 2.214 . S
N167 C165 1.325 . S
N167 C166 1.261 . S
C168 H138 0.931 . S
C168 C165 1.357 . S
C168 C169 1.312 . S
C169 H140 0.930 . S
C169 C164 1.261 . S
C169 C168 1.312 . S
C170 O142 1.214 . S
C170 O150 1.234 . S
C171 H143 0.929 . S
C171 C174 1.391 . S
C171 C176 1.391 1_554 S
C172 H144 0.929 . S
C172 C173 1.390 . S
C172 N175 1.391 . S
C173 H145 0.930 . S
C173 C172 1.390 . S
C173 C174 1.392 1_556 S
C174 H146 0.929 . S
C174 C171 1.391 . S
C174 C173 1.392 1_554 S
N175 Co119 2.257 . S
N175 C172 1.391 . S
N175 C176 1.388 . S
C176 H147 0.930 . S
C176 C171 1.391 1_556 S
C176 N175 1.388 . S
Co177 O179 2.143 . S
Co177 O185 2.074 . S
Co177 O188 2.093 . S
Co177 O201 2.097 . S
Co177 N218 2.151 . S
Co177 N226 2.214 . S
Co178 O179 2.160 . S
Co178 O184 2.058 . S
Co178 O194 2.057 . S
Co178 O209 2.037 . S
Co178 N213 2.145 . S
Co178 N234 2.257 . S
O179 Co177 2.143 . S
O179 Co178 2.160 . S
C180 O181 1.278 . S
C180 O188 1.224 1_556 S
O181 C180 1.278 . S
C182 O183 1.245 . S
C182 O194 1.232 . S
O183 C182 1.245 . S
O184 Co178 2.058 . S
O184 C210 1.269 . S
O185 Co177 2.074 . S
O185 C210 1.257 . S
H186 C211 0.930 . S
H187 C217 0.930 . S
O188 Co177 2.093 . S
O188 C180 1.224 1_554 S
H189 C221 0.929 . S
H190 C223 0.930 . S
H191 C224 0.930 . S
H192 C222 0.929 . S
H193 C225 0.928 . S
O194 Co178 2.057 . S
O194 C182 1.232 . S
H195 C214 0.929 . S
H196 C215 0.929 . S
H197 C227 0.931 . S
H198 C219 0.929 1_556 S
H199 C228 0.930 . S
H200 C220 0.931 . S
O201 Co177 2.097 . S
O201 C229 1.214 . S
H202 C230 0.929 . S
H203 C231 0.929 . S
H204 C232 0.930 . S
H205 C233 0.929 . S
H206 C235 0.930 . S
H207 C212 0.930 . S
H208 C216 0.930 . S
O209 Co178 2.037 . S
O209 C229 1.234 . S
C210 O184 1.269 . S
C210 O185 1.257 . S
C211 H186 0.930 . S
C211 C214 1.388 . S
C211 C216 1.418 . S
C212 H207 0.930 . S
C212 C215 1.404 . S
C212 C216 1.353 . S
N213 Co178 2.145 . S
N213 C214 1.397 . S
N213 C215 1.334 . S
C214 H195 0.929 . S
C214 C211 1.388 . S
C214 N213 1.397 . S
C215 H196 0.929 . S
C215 C212 1.404 . S
C215 N213 1.334 . S
C216 H208 0.930 . S
C216 C211 1.418 . S
C216 C212 1.353 . S
C217 H187 0.930 . S
C217 N218 1.330 . S
C217 C219 1.446 . S
N218 Co177 2.151 . S
N218 C217 1.330 . S
N218 C222 1.418 . S
C219 H198 0.929 1_554 S
C219 C217 1.446 . S
C219 C220 1.332 . S
C220 H200 0.931 . S
C220 C219 1.332 . S
C220 C221 1.267 . S
C221 H189 0.929 . S
C221 C220 1.267 . S
C221 C222 1.251 . S
C222 H192 0.929 . S
C222 N218 1.418 . S
C222 C221 1.251 . S
C223 H190 0.930 . S
C223 C225 1.406 . S
C223 C228 1.261 . S
C224 H191 0.930 . S
C224 N226 1.325 . S
C224 C227 1.357 . S
C225 H193 0.928 . S
C225 C223 1.406 . S
C225 N226 1.261 . S
N226 Co177 2.214 . S
N226 C224 1.325 . S
N226 C225 1.261 . S
C227 H197 0.931 . S
C227 C224 1.357 . S
C227 C228 1.312 . S
C228 H199 0.930 . S
C228 C223 1.261 . S
C228 C227 1.312 . S
C229 O201 1.214 . S
C229 O209 1.234 . S
C230 H202 0.929 . S
C230 C233 1.391 . S
C230 C235 1.391 1_556 S
C231 H203 0.929 . S
C231 C232 1.390 . S
C231 N234 1.391 . S
C232 H204 0.930 . S
C232 C231 1.390 . S
C232 C233 1.392 1_554 S
C233 H205 0.929 . S
C233 C230 1.391 . S
C233 C232 1.392 1_556 S
N234 Co178 2.257 . S
N234 C231 1.391 . S
N234 C235 1.388 . S
C235 H206 0.930 . S
C235 C230 1.391 1_554 S
C235 N234 1.388 . S
Co236 O238 2.143 . S
Co236 O244 2.074 . S
Co236 O247 2.093 . S
Co236 O260 2.097 . S
Co236 N277 2.151 . S
Co236 N285 2.214 . S
Co237 O238 2.160 . S
Co237 O243 2.058 . S
Co237 O253 2.057 . S
Co237 O268 2.037 . S
Co237 N272 2.145 . S
Co237 N293 2.257 . S
O238 Co236 2.143 . S
O238 Co237 2.160 . S
C239 O240 1.278 . S
C239 O247 1.224 . S
O240 C239 1.278 . S
C241 O242 1.245 . S
C241 O253 1.232 . S
O242 C241 1.245 . S
O243 Co237 2.058 . S
O243 C269 1.269 . S
O244 Co236 2.074 . S
O244 C269 1.257 . S
H245 C270 0.930 . S
H246 C276 0.930 . S
O247 Co236 2.093 . S
O247 C239 1.224 . S
H248 C280 0.929 . S
H249 C282 0.930 . S
H250 C283 0.930 . S
H251 C281 0.929 . S
H252 C284 0.928 . S
O253 Co237 2.057 . S
O253 C241 1.232 . S
H254 C273 0.929 . S
H255 C274 0.929 . S
H256 C286 0.931 . S
H257 C278 0.929 . S
H258 C287 0.930 . S
H259 C279 0.931 . S
O260 Co236 2.097 . S
O260 C288 1.214 . S
H261 C289 0.929 . S
H262 C290 0.929 . S
H263 C291 0.930 . S
H264 C292 0.929 . S
H265 C294 0.930 . S
H266 C271 0.930 . S
H267 C275 0.930 . S
O268 Co237 2.037 . S
O268 C288 1.234 . S
C269 O243 1.269 . S
C269 O244 1.257 . S
C270 H245 0.930 . S
C270 C273 1.388 . S
C270 C275 1.418 . S
C271 H266 0.930 . S
C271 C274 1.404 . S
C271 C275 1.353 . S
N272 Co237 2.145 . S
N272 C273 1.397 . S
N272 C274 1.334 . S
C273 H254 0.929 . S
C273 C270 1.388 . S
C273 N272 1.397 . S
C274 H255 0.929 . S
C274 C271 1.404 . S
C274 N272 1.334 . S
C275 H267 0.930 . S
C275 C270 1.418 . S
C275 C271 1.353 . S
C276 H246 0.930 . S
C276 N277 1.330 . S
C276 C278 1.446 . S
N277 Co236 2.151 . S
N277 C276 1.330 . S
N277 C281 1.418 . S
C278 H257 0.929 . S
C278 C276 1.446 . S
C278 C279 1.332 . S
C279 H259 0.931 . S
C279 C278 1.332 . S
C279 C280 1.267 . S
C280 H248 0.929 . S
C280 C279 1.267 . S
C280 C281 1.251 . S
C281 H251 0.929 . S
C281 N277 1.418 . S
C281 C280 1.251 . S
C282 H249 0.930 . S
C282 C284 1.406 . S
C282 C287 1.261 . S
C283 H250 0.930 . S
C283 N285 1.325 . S
C283 C286 1.357 . S
C284 H252 0.928 . S
C284 C282 1.406 . S
C284 N285 1.261 . S
N285 Co236 2.214 . S
N285 C283 1.325 . S
N285 C284 1.261 . S
C286 H256 0.931 . S
C286 C283 1.357 . S
C286 C287 1.312 . S
C287 H258 0.930 . S
C287 C282 1.261 . S
C287 C286 1.312 . S
C288 O260 1.214 . S
C288 O268 1.234 . S
C289 H261 0.929 . S
C289 C292 1.391 . S
C289 C294 1.391 . S
C290 H262 0.929 . S
C290 C291 1.390 . S
C290 N293 1.391 . S
C291 H263 0.930 . S
C291 C290 1.390 . S
C291 C292 1.392 . S
C292 H264 0.929 . S
C292 C289 1.391 . S
C292 C291 1.392 . S
N293 Co237 2.257 . S
N293 C290 1.391 . S
N293 C294 1.388 . S
C294 H265 0.930 . S
C294 C289 1.391 . S
C294 N293 1.388 . S
Co295 O297 2.143 . S
Co295 O303 2.074 . S
Co295 O306 2.093 . S
Co295 O319 2.097 . S
Co295 N336 2.151 . S
Co295 N344 2.214 . S
Co296 O297 2.160 . S
Co296 O302 2.058 . S
Co296 O312 2.057 . S
Co296 O327 2.037 . S
Co296 N331 2.145 . S
Co296 N352 2.257 . S
O297 Co295 2.143 . S
O297 Co296 2.160 . S
C298 O299 1.278 . S
C298 O306 1.224 . S
O299 C298 1.278 . S
C300 O301 1.245 . S
C300 O312 1.232 . S
O301 C300 1.245 . S
O302 Co296 2.058 . S
O302 C328 1.269 . S
O303 Co295 2.074 . S
O303 C328 1.257 . S
H304 C329 0.930 . S
H305 C335 0.930 . S
O306 Co295 2.093 . S
O306 C298 1.224 . S
H307 C339 0.929 . S
H308 C341 0.930 . S
H309 C342 0.930 . S
H310 C340 0.929 . S
H311 C343 0.928 . S
O312 Co296 2.057 . S
O312 C300 1.232 . S
H313 C332 0.929 . S
H314 C333 0.929 . S
H315 C345 0.931 . S
H316 C337 0.929 . S
H317 C346 0.930 . S
H318 C338 0.931 . S
O319 Co295 2.097 . S
O319 C347 1.214 . S
H320 C348 0.929 . S
H321 C349 0.929 . S
H322 C350 0.930 . S
H323 C351 0.929 . S
H324 C353 0.930 . S
H325 C330 0.930 . S
H326 C334 0.930 . S
O327 Co296 2.037 . S
O327 C347 1.234 . S
C328 O302 1.269 . S
C328 O303 1.257 . S
C329 H304 0.930 . S
C329 C332 1.388 . S
C329 C334 1.418 . S
C330 H325 0.930 . S
C330 C333 1.404 . S
C330 C334 1.353 . S
N331 Co296 2.145 . S
N331 C332 1.397 . S
N331 C333 1.334 . S
C332 H313 0.929 . S
C332 C329 1.388 . S
C332 N331 1.397 . S
C333 H314 0.929 . S
C333 C330 1.404 . S
C333 N331 1.334 . S
C334 H326 0.930 . S
C334 C329 1.418 . S
C334 C330 1.353 . S
C335 H305 0.930 . S
C335 N336 1.330 . S
C335 C337 1.446 . S
N336 Co295 2.151 . S
N336 C335 1.330 . S
N336 C340 1.418 . S
C337 H316 0.929 . S
C337 C335 1.446 . S
C337 C338 1.332 . S
C338 H318 0.931 . S
C338 C337 1.332 . S
C338 C339 1.267 . S
C339 H307 0.929 . S
C339 C338 1.267 . S
C339 C340 1.251 . S
C340 H310 0.929 . S
C340 N336 1.418 . S
C340 C339 1.251 . S
C341 H308 0.930 . S
C341 C343 1.406 . S
C341 C346 1.261 . S
C342 H309 0.930 . S
C342 N344 1.325 . S
C342 C345 1.357 . S
C343 H311 0.928 . S
C343 C341 1.406 . S
C343 N344 1.261 . S
N344 Co295 2.214 . S
N344 C342 1.325 . S
N344 C343 1.261 . S
C345 H315 0.931 . S
C345 C342 1.357 . S
C345 C346 1.312 . S
C346 H317 0.930 . S
C346 C341 1.261 . S
C346 C345 1.312 . S
C347 O319 1.214 . S
C347 O327 1.234 . S
C348 H320 0.929 . S
C348 C351 1.391 . S
C348 C353 1.391 . S
C349 H321 0.929 . S
C349 C350 1.390 . S
C349 N352 1.391 . S
C350 H322 0.930 . S
C350 C349 1.390 . S
C350 C351 1.392 . S
C351 H323 0.929 . S
C351 C348 1.391 . S
C351 C350 1.392 . S
N352 Co296 2.257 . S
N352 C349 1.391 . S
N352 C353 1.388 . S
C353 H324 0.930 . S
C353 C348 1.391 . S
C353 N352 1.388 . S
C354 C355 1.369 . S
C354 C356 1.419 1_545 S
C354 H358 0.930 . S
C355 C354 1.369 . S
C355 C364 1.429 . S
C356 C354 1.419 1_565 S
C356 C357 1.363 . S
C356 H359 0.929 . S
C357 C356 1.363 . S
C357 C363 1.424 1_565 S
H358 C354 0.930 . S
H359 C356 0.929 . S
S360 N361 1.613 . S
S360 N362 1.610 . S
N361 S360 1.613 . S
N361 C364 1.350 . S
N362 S360 1.610 . S
N362 C363 1.350 . S
C363 C357 1.424 1_545 S
C363 N362 1.350 . S
C363 C364 1.440 . S
C364 C355 1.429 . S
C364 N361 1.350 . S
C364 C363 1.440 . S
C365 C366 1.369 . S
C365 C367 1.419 . S
C365 H369 0.930 . S
C366 C365 1.369 . S
C366 C375 1.429 . S
C367 C365 1.419 . S
C367 C368 1.363 . S
C367 H370 0.929 . S
C368 C367 1.363 . S
C368 C374 1.428 . S
H369 C365 0.930 . S
H370 C367 0.929 . S
S371 N372 1.613 . S
S371 N373 1.610 . S
N372 S371 1.613 . S
N372 C375 1.350 . S
N373 S371 1.610 . S
N373 C374 1.351 . S
C374 C368 1.428 . S
C374 N373 1.351 . S
C374 C375 1.434 . S
C375 C366 1.429 . S
C375 N372 1.350 . S
C375 C374 1.434 . S
C376 C377 1.369 . S
C376 C378 1.419 1_655 S
C376 H380 0.930 . S
C377 C376 1.369 . S
C377 C386 1.429 . S
C378 C376 1.419 1_455 S
C378 C379 1.363 . S
C378 H381 0.929 . S
C379 C378 1.363 . S
C379 C385 1.428 . S
H380 C376 0.930 . S
H381 C378 0.929 . S
S382 N383 1.613 1_455 S
S382 N384 1.610 . S
N383 S382 1.613 1_655 S
N383 C386 1.350 . S
N384 S382 1.610 . S
N384 C385 1.351 . S
C385 C379 1.428 . S
C385 N384 1.351 . S
C385 C386 1.434 1_455 S
C386 C377 1.429 . S
C386 N383 1.350 . S
C386 C385 1.434 1_655 S
C387 C388 1.369 . S
C387 C389 1.419 1_564 S
C387 H391 0.930 . S
C388 C387 1.369 . S
C388 C397 1.429 . S
C389 C387 1.419 1_546 S
C389 C390 1.363 . S
C389 H392 0.929 . S
C390 C389 1.363 . S
C390 C396 1.428 . S
H391 C387 0.930 . S
H392 C389 0.929 . S
S393 N394 1.613 1_545 S
S393 N395 1.610 1_554 S
N394 S393 1.613 1_565 S
N394 C397 1.350 . S
N395 S393 1.610 1_556 S
N395 C396 1.351 . S
C396 C390 1.428 . S
C396 N395 1.351 . S
C396 C397 1.434 1_546 S
C397 C388 1.429 . S
C397 N394 1.350 . S
C397 C396 1.434 1_564 S
C398 C399 1.369 . S
C398 C400 1.419 . S
C398 H402 0.930 . S
C399 C398 1.369 . S
C399 C408 1.429 . S
C400 C398 1.419 . S
C400 C401 1.363 . S
C400 H403 0.929 . S
C401 C400 1.363 . S
C401 C407 1.428 . S
H402 C398 0.930 . S
H403 C400 0.929 . S
S404 N405 1.613 . S
S404 N406 1.610 . S
N405 S404 1.613 . S
N405 C408 1.350 . S
N406 S404 1.610 . S
N406 C407 1.351 . S
C407 C401 1.428 . S
C407 N406 1.351 . S
C407 C408 1.434 . S
C408 C399 1.429 . S
C408 N405 1.350 . S
C408 C407 1.434 . S
C409 C410 1.369 . S
C409 C411 1.419 1_455 S
C409 H413 0.930 . S
C410 C409 1.369 . S
C410 C419 1.429 . S
C411 C409 1.419 1_655 S
C411 C412 1.363 . S
C411 H414 0.929 . S
C412 C411 1.363 . S
C412 C418 1.428 . S
H413 C409 0.930 . S
H414 C411 0.929 . S
S415 N416 1.613 1_655 S
S415 N417 1.610 . S
N416 S415 1.613 1_455 S
N416 C419 1.350 . S
N417 S415 1.610 . S
N417 C418 1.351 . S
C418 C412 1.428 . S
C418 N417 1.351 . S
C418 C419 1.434 1_655 S
C419 C410 1.429 . S
C419 N416 1.350 . S
C419 C418 1.434 1_455 S
C420 C421 1.369 . S
C420 C422 1.419 . S
C420 H424 0.930 . S
C421 C420 1.369 . S
C421 C430 1.429 . S
C422 C420 1.419 . S
C422 C423 1.363 . S
C422 H425 0.929 . S
C423 C422 1.363 . S
C423 C429 1.428 . S
H424 C420 0.930 . S
H425 C422 0.929 . S
S426 N427 1.613 . S
S426 N428 1.610 . S
N427 S426 1.613 . S
N427 C430 1.350 . S
N428 S426 1.610 . S
N428 C429 1.351 . S
C429 C423 1.428 . S
C429 N428 1.351 . S
C429 C430 1.434 . S
C430 C421 1.429 . S
C430 N427 1.350 . S
C430 C429 1.434 . S
C431 C432 1.369 . S
C431 C433 1.419 . S
C431 H435 0.930 . S
C432 C431 1.369 . S
C432 C441 1.429 . S
C433 C431 1.419 . S
C433 C434 1.363 . S
C433 H436 0.929 . S
C434 C433 1.363 . S
C434 C440 1.428 . S
H435 C431 0.930 . S
H436 C433 0.929 . S
S437 N438 1.613 . S
S437 N439 1.610 . S
N438 S437 1.613 . S
N438 C441 1.350 . S
N439 S437 1.610 . S
N439 C440 1.351 . S
C440 C434 1.428 . S
C440 N439 1.351 . S
C440 C441 1.434 . S
C441 C432 1.429 . S
C441 N438 1.350 . S
C441 C440 1.434 . S
C442 C443 1.369 . S
C442 C444 1.419 . S
C442 H446 0.930 . S
C443 C442 1.369 . S
C443 C452 1.429 . S
C444 C442 1.419 . S
C444 C445 1.363 . S
C444 H447 0.929 . S
C445 C444 1.363 . S
C445 C451 1.428 . S
H446 C442 0.930 . S
H447 C444 0.929 . S
S448 N449 1.613 . S
S448 N450 1.610 . S
N449 S448 1.613 . S
N449 C452 1.350 . S
N450 S448 1.610 . S
N450 C451 1.351 . S
C451 C445 1.428 . S
C451 N450 1.351 . S
C451 C452 1.434 . S
C452 C443 1.429 . S
C452 N449 1.350 . S
C452 C451 1.434 . S
C453 C454 1.369 . S
C453 C455 1.419 . S
C453 H457 0.930 . S
C454 C453 1.369 . S
C454 C463 1.429 . S
C455 C453 1.419 . S
C455 C456 1.363 . S
C455 H458 0.929 . S
C456 C455 1.363 . S
C456 C462 1.428 . S
H457 C453 0.930 . S
H458 C455 0.929 . S
S459 N460 1.613 . S
S459 N461 1.610 . S
N460 S459 1.613 . S
N460 C463 1.350 . S
N461 S459 1.610 . S
N461 C462 1.351 . S
C462 C456 1.428 . S
C462 N461 1.351 . S
C462 C463 1.434 . S
C463 C454 1.429 . S
C463 N460 1.350 . S
C463 C462 1.434 . S
C464 C465 1.369 . S
C464 C466 1.419 . S
C464 H468 0.930 . S
C465 C464 1.369 . S
C465 C474 1.429 . S
C466 C464 1.419 . S
C466 C467 1.363 . S
C466 H469 0.929 . S
C467 C466 1.363 . S
C467 C473 1.428 . S
H468 C464 0.930 . S
H469 C466 0.929 . S
S470 N471 1.613 . S
S470 N472 1.610 . S
N471 S470 1.613 . S
N471 C474 1.350 . S
N472 S470 1.610 . S
N472 C473 1.351 . S
C473 C467 1.428 . S
C473 N472 1.351 . S
C473 C474 1.434 . S
C474 C465 1.429 . S
C474 N471 1.350 . S
C474 C473 1.434 . S
C475 C476 1.369 . S
C475 C477 1.419 . S
C475 H479 0.930 . S
C476 C475 1.369 . S
C476 C485 1.429 . S
C477 C475 1.419 . S
C477 C478 1.363 . S
C477 H480 0.929 . S
C478 C477 1.363 . S
C478 C484 1.428 . S
H479 C475 0.930 . S
H480 C477 0.929 . S
S481 N482 1.613 . S
S481 N483 1.610 . S
N482 S481 1.613 . S
N482 C485 1.350 . S
N483 S481 1.610 . S
N483 C484 1.351 . S
C484 C478 1.428 . S
C484 N483 1.351 . S
C484 C485 1.434 . S
C485 C476 1.429 . S
C485 N482 1.350 . S
C485 C484 1.434 . S
C355 C5 1.744 . S
C357 C300 1.746 . S
C366 C52 1.694 . S
C368 C62 1.696 . S
C377 C170 1.639 . S
C379 C92 1.642 . S
C388 C182 1.746 . S
C390 C123 1.746 . S
C399 C239 1.697 . S
C401 C229 1.696 . S
C410 C347 1.641 . S
C412 C269 1.643 . S
C421 C3 1.502 . S
C423 C288 1.494 . S
C432 C298 1.374 . S
C434 C64 1.382 . S
C443 C151 1.583 . S
C445 C33 1.588 . S
C454 C111 1.498 . S
C456 C180 1.499 . S
C465 C121 1.375 . S
C467 C241 1.381 . S
C476 C328 1.580 . S
C478 C210 1.588 . S
