# Generated by pormake.
# Topology sxa, (6)-cn, num edge types: 1
# Building blocks:
#     Node 0, Type 0, BuildingBlock: UKALOJ_clean_sbu_0, # of connection points: 6
#     Node 1, Type 0, BuildingBlock: UKALOJ_clean_sbu_0, # of connection points: 6
#     Node 2, Type 0, BuildingBlock: UKALOJ_clean_sbu_0, # of connection points: 6
#     Node 3, Type 0, BuildingBlock: UKALOJ_clean_sbu_0, # of connection points: 6
#     Edge 4, Type (0, 0), BuildingBlock: KIFKEQ_clean_linker_1, # of connection points: 2
#     Edge 5, Type (0, 0), BuildingBlock: KIFKEQ_clean_linker_1, # of connection points: 2
#     Edge 6, Type (0, 0), BuildingBlock: KIFKEQ_clean_linker_1, # of connection points: 2
#     Edge 7, Type (0, 0), BuildingBlock: KIFKEQ_clean_linker_1, # of connection points: 2
#     Edge 8, Type (0, 0), BuildingBlock: KIFKEQ_clean_linker_1, # of connection points: 2
#     Edge 9, Type (0, 0), BuildingBlock: KIFKEQ_clean_linker_1, # of connection points: 2
#     Edge 10, Type (0, 0), BuildingBlock: KIFKEQ_clean_linker_1, # of connection points: 2
#     Edge 11, Type (0, 0), BuildingBlock: KIFKEQ_clean_linker_1, # of connection points: 2
#     Edge 12, Type (0, 0), BuildingBlock: KIFKEQ_clean_linker_1, # of connection points: 2
#     Edge 13, Type (0, 0), BuildingBlock: KIFKEQ_clean_linker_1, # of connection points: 2
#     Edge 14, Type (0, 0), BuildingBlock: KIFKEQ_clean_linker_1, # of connection points: 2
#     Edge 15, Type (0, 0), BuildingBlock: KIFKEQ_clean_linker_1, # of connection points: 2
# Relax obj value: 0.136
# Max RMSD: 0.193
# Mean RMSD: 0.193
data_MOF--net-sxa--node1-UKALOJ_clean_sbu_0--edge1-KIFKEQ_clean_linker_1
_symmetry_space_group_name_H-M    P1
_symmetry_Int_Tables_number       1
_symmetry_cell_setting            triclinic
loop_
_symmetry_equiv_pos_as_xyz
'x, y, z'
_cell_length_a     24.295175
_cell_length_b     38.135299
_cell_length_c     15.230725
_cell_angle_alpha  90.852248
_cell_angle_beta   89.982879
_cell_angle_gamma 90.091443
loop_
_atom_site_label
_atom_site_type_symbol
_atom_site_fract_x
_atom_site_fract_y
_atom_site_fract_z
_atom_type_partial_charge
Zn0 Zn 0.9843 0.83201 0.25235 0.0
O1 O 0.01162 0.83233 0.38322 0.0
C2 C 0.09352 0.80565 0.20675 0.0
Zn3 Zn 0.98567 0.77277 0.24946 0.0
C4 C 0.02243 0.80367 0.42161 0.0
O5 O 0.01183 0.77449 0.38298 0.0
C6 C 0.95207 0.80236 0.07893 0.0
O7 O 0.90187 0.77011 0.28761 0.0
O8 O 0.90103 0.82774 0.29348 0.0
N9 N -0.0072 0.71844 0.24271 0.0
C10 C 0.96666 0.69391 0.19285 0.0
C11 C 0.03392 0.66857 0.25473 0.0
N12 N 0.03437 0.70245 0.28141 0.0
N13 N -0.00783 0.6624 0.19819 0.0
C14 C 0.00017 0.9115 0.20155 0.0
C15 C 0.92818 0.93427 0.25785 0.0
N16 N 0.97545 0.88639 0.24972 0.0
N17 N 0.93099 0.90086 0.28498 0.0
N18 N 0.97067 0.94171 0.20426 0.0
H19 H 0.08483 0.8967 0.20733 0.0
H20 H 0.07259 0.93227 0.13607 0.0
H21 H 0.05205 0.8882 0.10292 0.0
C22 C 0.05535 0.9071 0.15878 0.0
C23 C 0.9146 0.70047 0.1431 0.0
H24 H 0.89134 0.72262 0.17252 0.0
H25 H 0.88834 0.67662 0.14198 0.0
H26 H 0.92489 0.70713 0.07464 0.0
O27 O 0.96162 0.77335 0.11595 0.0
O28 O 0.95883 0.83075 0.12196 0.0
C29 C 0.87607 0.79864 0.30193 0.0
O30 O 0.06676 0.83408 0.21407 0.0
O31 O 0.06893 0.77648 0.21474 0.0
Zn32 Zn 0.49163 0.26876 0.24855 0.0
O33 O 0.4079 0.26708 0.28934 0.0
C34 C 0.45717 0.29482 0.07535 0.0
Zn35 Zn 0.48948 0.32786 0.24612 0.0
C36 C 0.3816 0.29578 0.29905 0.0
O37 O 0.406 0.3248 0.28572 0.0
C38 C 0.59918 0.30108 0.20213 0.0
O39 O 0.51572 0.33021 0.37742 0.0
O40 O 0.51929 0.27254 0.38132 0.0
N41 N 0.48419 0.38211 0.24003 0.0
C42 C 0.49518 0.40423 0.17362 0.0
C43 C 0.46268 0.43505 0.27908 0.0
N44 N 0.46414 0.40143 0.30553 0.0
N45 N 0.48151 0.43755 0.19611 0.0
C46 C 0.4714 0.1886 0.2042 0.0
C47 C 0.54616 0.16641 0.25007 0.0
N48 N 0.49916 0.21445 0.24721 0.0
N49 N 0.54526 0.20029 0.2765 0.0
N50 N 0.50022 0.15828 0.20459 0.0
H51 H 0.40155 0.22015 0.1656 0.0
H52 H 0.38765 0.17424 0.17988 0.0
H53 H 0.42491 0.18772 0.08513 0.0
C54 C 0.41835 0.19342 0.15597 0.0
C55 C 0.52201 0.3936 0.08862 0.0
H56 H 0.54576 0.36911 0.09495 0.0
H57 H 0.54974 0.41471 0.06556 0.0
H58 H 0.48988 0.38919 0.03817 0.0
O59 O 0.57264 0.32951 0.21143 0.0
O60 O 0.57448 0.2719 0.20931 0.0
C61 C 0.52819 0.30234 0.41788 0.0
O62 O 0.46646 0.26682 0.11675 0.0
O63 O 0.4643 0.32419 0.114 0.0
Zn64 Zn -0.00834 0.33182 0.78743 0.0
O65 O 0.90777 0.33327 0.74772 0.0
C66 C 0.95872 0.30623 0.96155 0.0
Zn67 Zn -0.01042 0.27272 0.79042 0.0
C68 C 0.88127 0.30453 0.7398 0.0
O69 O 0.90562 0.27561 0.75385 0.0
C70 C 0.09965 0.29993 0.83092 0.0
O71 O 0.01399 0.26975 0.65822 0.0
O72 O 0.01873 0.32743 0.65442 0.0
N73 N 0.98324 0.21849 0.79963 0.0
C74 C -0.0037 0.19662 0.86571 0.0
C75 C 0.95431 0.16625 0.7684 0.0
N76 N 0.95728 0.19943 0.73927 0.0
N77 N 0.97795 0.16358 0.84825 0.0
C78 C 0.97188 0.41202 0.83075 0.0
C79 C 0.04629 0.43423 0.78299 0.0
N80 N -0.00077 0.38614 0.78739 0.0
N81 N 0.0451 0.4003 0.75692 0.0
N82 N 0.00074 0.44238 0.82941 0.0
H83 H 0.90202 0.38058 0.8706 0.0
H84 H 0.88858 0.4266 0.85775 0.0
H85 H 0.92668 0.41264 0.95108 0.0
C86 C 0.91927 0.40722 0.88033 0.0
C87 C 0.02866 0.20756 0.94549 0.0
H88 H 0.05373 0.2311 0.93372 0.0
H89 H 0.05629 0.18609 0.9663 0.0
H90 H -6e-05 0.21402 0.99982 0.0
O91 O 0.0732 0.27144 0.82131 0.0
O92 O 0.07468 0.32903 0.82556 0.0
C93 C 0.0269 0.29758 0.61771 0.0
O94 O 0.96709 0.3342 0.91947 0.0
O95 O 0.96641 0.27686 0.92334 0.0
Zn96 Zn 0.48553 0.827 0.79273 0.0
O97 O 0.40169 0.82757 0.75444 0.0
C98 C 0.45121 0.79901 0.96442 0.0
Zn99 Zn 0.48476 0.76789 0.79295 0.0
C100 C 0.37624 0.79875 0.74113 0.0
O101 O 0.40149 0.7698 0.75068 0.0
C102 C 0.59387 0.79613 0.83748 0.0
O103 O 0.51265 0.76672 0.66255 0.0
O104 O 0.51182 0.82445 0.65915 0.0
N105 N 0.48146 0.71355 0.79787 0.0
C106 C 0.49166 0.6916 0.86494 0.0
C107 C 0.46333 0.66023 0.75731 0.0
N108 N 0.46399 0.6939 0.73104 0.0
N109 N 0.48005 0.65804 0.84148 0.0
C110 C 0.46423 0.90606 0.84474 0.0
C111 C 0.53117 0.93159 0.78211 0.0
N112 N 0.49087 0.88146 0.79592 0.0
N113 N 0.53222 0.89758 0.75671 0.0
N114 N 0.48924 0.93774 0.83832 0.0
H115 H 0.3893 0.87686 0.86545 0.0
H116 H 0.38553 0.92299 0.89447 0.0
H117 H 0.42225 0.89315 0.96312 0.0
C118 C 0.41213 0.89936 0.89436 0.0
C119 C 0.51572 0.70272 0.95176 0.0
H120 H 0.5401 0.72705 0.94628 0.0
H121 H 0.54241 0.68176 0.97811 0.0
H122 H 0.48198 0.70766 0.99929 0.0
O123 O 0.56761 0.7674 0.8315 0.0
O124 O 0.56877 0.82499 0.82788 0.0
C125 C 0.52288 0.79502 0.62228 0.0
O126 O 0.46135 0.82769 0.92627 0.0
O127 O 0.45785 0.77035 0.92267 0.0
H128 H 0.07196 0.46589 0.95124 0.0
H129 H 0.91555 0.48835 0.83184 0.0
H130 H 0.06371 0.51845 0.04437 0.0
H131 H 0.90688 0.54138 0.92508 0.0
H132 H 0.96153 0.65456 0.02616 0.0
H133 H 0.95686 0.6002 0.94057 0.0
H134 H 0.00597 0.54214 0.16845 0.0
H135 H 0.00865 0.59665 0.25526 0.0
C136 C 0.03569 0.48216 0.94539 0.0
C137 C -0.0057 0.4731 0.88485 0.0
C138 C 0.0307 0.51209 0.99906 0.0
C139 C 0.98448 0.53406 0.99261 0.0
C140 C 0.94301 0.52503 0.93159 0.0
C141 C 0.9477 0.49466 0.87868 0.0
C142 C 0.96896 0.63022 0.05936 0.0
C143 C 0.98388 0.63005 0.14873 0.0
C144 C 0.96692 0.59895 1.00973 0.0
C145 C 0.98098 0.56677 0.04755 0.0
C146 C -0.0048 0.5665 0.13709 0.0
C147 C -0.00344 0.59769 0.18692 0.0
H148 H 0.51247 0.50222 0.25094 0.0
H149 H 0.45085 0.44478 0.02572 0.0
H150 H 0.5137 0.55606 0.1651 0.0
H151 H 0.45292 0.49808 0.93943 0.0
H152 H 0.51509 0.59408 0.7883 0.0
H153 H 0.51713 0.54027 0.87419 0.0
H154 H 0.44879 0.59679 0.09641 0.0
H155 H 0.44599 0.65008 1.01001 0.0
C156 C 0.49964 0.50109 0.18287 0.0
C157 C 0.48324 0.46903 0.14444 0.0
C158 C 0.50013 0.53189 0.13373 0.0
C159 C 0.48394 0.53139 0.04494 0.0
C160 C 0.46697 0.49932 1.00689 0.0
C161 C 0.46621 0.46862 0.0562 0.0
C162 C 0.50073 0.59489 0.8556 0.0
C163 C 0.48198 0.62656 0.89311 0.0
C164 C 0.5017 0.56411 0.90478 0.0
C165 C 0.48365 0.56423 0.99266 0.0
C166 C 0.46428 0.59589 0.02973 0.0
C167 C 0.46305 0.62657 0.98037 0.0
H168 H 0.50532 1.00338 0.78005 0.0
H169 H 0.45869 0.94592 1.01032 0.0
H170 H 0.50301 0.05807 0.86615 0.0
H171 H 0.45441 1.00045 0.09521 0.0
H172 H 0.41454 0.11249 0.20347 0.0
H173 H 0.40497 0.05936 0.11074 0.0
H174 H 0.56145 0.08188 0.98928 0.0
H175 H 0.57059 0.13453 0.08189 0.0
C176 C 0.49337 1.00248 0.84848 0.0
C177 C 0.48077 0.97019 0.88722 0.0
C178 C 0.49223 1.03377 0.89791 0.0
C179 C 0.47832 1.03367 0.9876 0.0
C180 C 0.46424 1.00157 0.02594 0.0
C181 C 0.46606 0.9702 0.97671 0.0
C182 C 0.4464 0.10608 0.15623 0.0
C183 C 0.49317 0.12755 0.14932 0.0
C184 C 0.4412 0.07565 0.10362 0.0
C185 C 0.48231 0.06647 0.04216 0.0
C186 C 0.52869 0.08836 0.03494 0.0
C187 C 0.5342 0.11834 0.08831 0.0
H188 H 0.94033 1.00668 0.25602 0.0
H189 H 0.00733 0.94883 0.03569 0.0
H190 H 0.94009 0.05961 0.17009 0.0
H191 H 0.01481 1.00234 0.95327 0.0
H192 H 0.97787 0.09662 0.78794 0.0
H193 H 0.97512 1.04328 0.87246 0.0
H194 H 0.98187 0.10539 0.11254 0.0
H195 H 0.97603 0.15788 0.02822 0.0
C196 C 0.95683 1.00555 0.18998 0.0
C197 C 0.97611 0.97365 0.1546 0.0
C198 C 0.95741 1.03619 0.1404 0.0
C199 C 0.97842 1.03619 0.05394 0.0
C200 C -0.00221 1.00404 1.01878 0.0
C201 C -0.00468 0.97317 0.06747 0.0
C202 C 0.97857 0.09879 0.85889 0.0
C203 C 0.97961 0.132 0.90036 0.0
C204 C 0.97778 0.06798 0.908 0.0
C205 C 0.97916 0.06922 1.00066 0.0
C206 C 0.98019 0.10259 0.04186 0.0
C207 C 0.97891 0.13331 0.99273 0.0
H208 H 0.3007 0.85108 0.76426 0.0
H209 H 0.31988 0.74647 0.65663 0.0
H210 H 0.20552 0.85199 0.71381 0.0
H211 H 0.22618 0.74794 0.60149 0.0
H212 H 0.05264 0.74876 0.52557 0.0
H213 H 0.13167 0.74728 0.62395 0.0
H214 H 0.15763 0.85817 0.58434 0.0
H215 H 0.07731 0.85992 0.49116 0.0
C216 C 0.28455 0.82833 0.72944 0.0
C217 C 0.31787 0.79884 0.71362 0.0
C218 C 0.22997 0.82884 0.7002 0.0
C219 C 0.20774 0.80015 0.65277 0.0
C220 C 0.24101 0.77032 0.63913 0.0
C221 C 0.29516 0.76957 0.66992 0.0
C222 C 0.07416 0.77302 0.54047 0.0
C223 C 0.05901 0.80433 0.49948 0.0
C224 C 0.12006 0.77212 0.59593 0.0
C225 C 0.15239 0.80238 0.61042 0.0
C226 C 0.13406 0.83427 0.57554 0.0
C227 C 0.0877 0.83528 0.52151 0.0
H228 H 0.08142 0.23974 0.5571 0.0
H229 H 0.05765 0.34974 0.50548 0.0
H230 H 0.16207 0.23913 0.46436 0.0
H231 H 0.13687 0.34872 0.40729 0.0
H232 H 0.32453 0.34943 0.37549 0.0
H233 H 0.2309 0.34883 0.43042 0.0
H234 H 0.21146 0.242 0.33552 0.0
H235 H 0.30682 0.24217 0.28522 0.0
C236 C 0.09204 0.26354 0.52296 0.0
C237 C 0.06352 0.29497 0.54004 0.0
C238 C 0.13862 0.26318 0.4692 0.0
C239 C 0.15732 0.29412 0.42961 0.0
C240 C 0.12507 0.32465 0.4391 0.0
C241 C 0.07903 0.32517 0.4944 0.0
C242 C 0.30015 0.32586 0.36597 0.0
C243 C 0.32327 0.29571 0.32707 0.0
C244 C 0.24597 0.3256 0.39663 0.0
C245 C 0.21296 0.29535 0.38768 0.0
C246 C 0.23565 0.26559 0.34537 0.0
C247 C 0.29034 0.26566 0.31622 0.0
H248 H 0.80648 0.35797 0.75344 0.0
H249 H 0.82416 0.25057 0.6646 0.0
H250 H 0.71123 0.35793 0.70267 0.0
H251 H 0.73073 0.25096 0.60902 0.0
H252 H 0.55822 0.25004 0.53006 0.0
H253 H 0.63664 0.25107 0.62983 0.0
H254 H 0.66275 0.3607 0.57336 0.0
H255 H 0.58284 0.36008 0.4792 0.0
C256 C 0.78999 0.3344 0.7227 0.0
C257 C 0.82288 0.30439 0.71229 0.0
C258 C 0.73539 0.33435 0.69326 0.0
C259 C 0.71279 0.3045 0.65096 0.0
C260 C 0.74571 0.27426 0.64272 0.0
C261 C 0.79978 0.27411 0.67376 0.0
C262 C 0.57965 0.27461 0.54155 0.0
C263 C 0.56462 0.30482 0.49574 0.0
C264 C 0.62522 0.27514 0.5978 0.0
C265 C 0.65749 0.3057 0.60801 0.0
C266 C 0.63927 0.33663 0.56805 0.0
C267 C 0.59313 0.33626 0.5134 0.0
H268 H 0.80089 0.74565 0.28083 0.0
H269 H 0.81935 0.85097 0.38462 0.0
H270 H 0.70553 0.74473 0.331 0.0
H271 H 0.72567 0.84953 0.43927 0.0
H272 H 0.55273 0.84912 0.5152 0.0
H273 H 0.63135 0.84988 0.41586 0.0
H274 H 0.65723 0.73938 0.46068 0.0
H275 H 0.57724 0.7383 0.55473 0.0
C276 C 0.78456 0.76855 0.31472 0.0
C277 C 0.81771 0.79825 0.32954 0.0
C278 C 0.72989 0.76804 0.34374 0.0
C279 C 0.70746 0.79699 0.38983 0.0
C280 C 0.74061 0.82696 0.40257 0.0
C281 C 0.7948 0.82768 0.3721 0.0
C282 C 0.57412 0.82477 0.50126 0.0
C283 C 0.55914 0.7938 0.54405 0.0
C284 C 0.61979 0.82526 0.44523 0.0
C285 C 0.65204 0.79495 0.43204 0.0
C286 C 0.63374 0.76331 0.46854 0.0
C287 C 0.58759 0.7627 0.52312 0.0
H288 H 0.4295 0.8544 0.07656 0.0
H289 H 0.40163 0.74323 0.04058 0.0
H290 H 0.34853 0.85807 0.17108 0.0
H291 H 0.32161 0.74675 0.13307 0.0
H292 H 0.16541 0.75775 0.26828 0.0
H293 H 0.26531 0.75815 0.25514 0.0
H294 H 0.25641 0.85575 0.11449 0.0
H295 H 0.15686 0.85604 0.13183 0.0
C296 C 0.40698 0.83066 0.09052 0.0
C297 C 0.41987 0.79898 0.04722 0.0
C298 C 0.3607 0.83272 0.14469 0.0
C299 C 0.32722 0.80303 0.15629 0.0
C300 C 0.34589 0.77031 0.12497 0.0
C301 C 0.39205 0.76828 0.07125 0.0
C302 C 0.18505 0.77933 0.2349 0.0
C303 C 0.15364 0.80642 0.19884 0.0
C304 C 0.24221 0.77972 0.22808 0.0
C305 C 0.26894 0.80681 0.18328 0.0
C306 C 0.23742 0.83475 0.15084 0.0
C307 C 0.18028 0.83469 0.15927 0.0
H308 H 0.16458 0.35049 0.90369 0.0
H309 H 0.16979 0.24877 0.77557 0.0
H310 H 0.26359 0.34906 0.92272 0.0
H311 H 0.26971 0.24798 0.78975 0.0
H312 H 0.41092 0.23738 0.99647 0.0
H313 H 0.32986 0.23896 0.90553 0.0
H314 H 0.35372 0.35019 0.86824 0.0
H315 H 0.43304 0.34879 0.96518 0.0
C316 C 0.18722 0.32804 0.87854 0.0
C317 C 0.15968 0.29936 0.84047 0.0
C318 C 0.2442 0.32742 0.88781 0.0
C319 C 0.27496 0.29837 0.85753 0.0
C320 C 0.24734 0.27048 0.81511 0.0
C321 C 0.19014 0.27081 0.80751 0.0
C322 C 0.39991 0.26199 0.96701 0.0
C323 C 0.42635 0.2933 0.9921 0.0
C324 C 0.35337 0.26291 0.91383 0.0
C325 C 0.33359 0.29513 0.88318 0.0
C326 C 0.36642 0.32525 0.89457 0.0
C327 C 0.41225 0.32441 0.94952 0.0
H328 H 0.66958 0.35225 0.25721 0.0
H329 H 0.66374 0.25085 0.12763 0.0
H330 H 0.76953 0.35293 0.2435 0.0
H331 H 0.76282 0.2522 0.10884 0.0
H332 H 0.93287 0.25186 0.06965 0.0
H333 H 0.85244 0.25045 0.16436 0.0
H334 H 0.83118 0.36203 0.13024 0.0
H335 H 0.91339 0.36363 0.04183 0.0
C336 C 0.6898 0.33029 0.22488 0.0
C337 C 0.65916 0.30182 0.19163 0.0
C338 C 0.74703 0.33055 0.21753 0.0
C339 C 0.77454 0.30269 0.175 0.0
C340 C 0.74355 0.27381 0.14393 0.0
C341 C 0.68654 0.27324 0.15304 0.0
C342 C 0.91244 0.27632 0.08575 0.0
C343 C 0.92762 0.30759 0.04461 0.0
C344 C 0.8659 0.27546 0.13926 0.0
C345 C 0.83349 0.30571 0.15068 0.0
C346 C 0.8543 0.33798 0.12177 0.0
C347 C 0.90153 0.33892 0.07009 0.0
H348 H 0.92987 0.74774 0.96466 0.0
H349 H 0.90386 0.85886 1.00422 0.0
H350 H 0.8487 0.74482 0.87065 0.0
H351 H 0.82302 0.856 0.91305 0.0
H352 H 0.66527 0.84544 0.78001 0.0
H353 H 0.76514 0.84557 0.79315 0.0
H354 H 0.75727 0.74645 0.92743 0.0
H355 H 0.65779 0.74561 0.90969 0.0
C356 C 0.90764 0.77163 0.95164 0.0
C357 C 0.92101 0.80303 0.99596 0.0
C358 C 0.86117 0.77 0.89788 0.0
C359 C 0.82784 0.79979 0.88798 0.0
C360 C 0.84706 0.83233 0.92004 0.0
C361 C 0.89361 0.83397 0.97305 0.0
C362 C 0.68511 0.82366 0.81206 0.0
C363 C 0.654 0.79594 0.8461 0.0
C364 C 0.74229 0.8236 0.81894 0.0
C365 C 0.76935 0.79618 0.86178 0.0
C366 C 0.73809 0.76773 0.89254 0.0
C367 C 0.68096 0.76748 0.884 0.0
loop_
_geom_bond_atom_site_label_1
_geom_bond_atom_site_label_2
_geom_bond_distance
_geom_bond_site_symmetry_2
_ccdc_geom_bond_type
Zn0 O1 2.055 1_655 S
Zn0 O8 2.046 . S
Zn0 N16 2.036 . S
Zn0 O28 2.053 . S
Zn0 O30 2.066 1_655 S
O1 Zn0 2.055 1_455 S
O1 C4 1.259 . S
C2 O30 1.256 . S
C2 O31 1.244 . S
Zn3 O5 2.046 . S
Zn3 O7 2.055 1_455 S
Zn3 N9 2.036 . S
Zn3 O27 2.066 1_455 S
Zn3 O31 2.053 . S
C4 O1 1.259 . S
C4 O5 1.254 . S
O5 Zn3 2.046 . S
O5 C4 1.254 . S
C6 O27 1.256 . S
C6 O28 1.244 . S
O7 Zn3 2.055 1_655 S
O7 C29 1.259 . S
O8 Zn0 2.046 . S
O8 C29 1.254 . S
N9 Zn3 2.036 . S
N9 C10 1.298 1_455 S
N9 N12 1.398 . S
C10 N9 1.298 1_655 S
C10 N13 1.367 . S
C10 C23 1.481 . S
C11 N12 1.299 . S
C11 N13 1.379 1_455 S
N12 N9 1.398 . S
N12 C11 1.299 . S
N13 C10 1.367 . S
N13 C11 1.379 1_655 S
C14 N16 1.298 1_455 S
C14 N18 1.367 . S
C14 C22 1.481 . S
C15 N17 1.299 . S
C15 N18 1.379 1_655 S
N16 Zn0 2.036 . S
N16 C14 1.298 1_655 S
N16 N17 1.398 . S
N17 C15 1.299 . S
N17 N16 1.398 . S
N18 C14 1.367 . S
N18 C15 1.379 1_455 S
H19 C22 0.980 . S
H20 C22 0.981 . S
H21 C22 0.981 . S
C22 C14 1.481 . S
C22 H19 0.980 . S
C22 H20 0.981 . S
C22 H21 0.981 . S
C23 C10 1.481 . S
C23 H24 0.980 . S
C23 H25 0.981 . S
C23 H26 0.981 . S
H24 C23 0.980 . S
H25 C23 0.981 . S
H26 C23 0.981 . S
O27 Zn3 2.066 1_655 S
O27 C6 1.256 . S
O28 Zn0 2.053 . S
O28 C6 1.244 . S
C29 O7 1.259 . S
C29 O8 1.254 . S
O30 Zn0 2.066 1_455 S
O30 C2 1.256 . S
O31 C2 1.244 . S
O31 Zn3 2.053 . S
Zn32 O33 2.055 . S
Zn32 O40 2.046 . S
Zn32 N48 2.036 . S
Zn32 O60 2.053 . S
Zn32 O62 2.066 . S
O33 Zn32 2.055 . S
O33 C36 1.259 . S
C34 O62 1.256 . S
C34 O63 1.244 . S
Zn35 O37 2.046 . S
Zn35 O39 2.055 . S
Zn35 N41 2.036 . S
Zn35 O59 2.066 . S
Zn35 O63 2.053 . S
C36 O33 1.259 . S
C36 O37 1.254 . S
O37 Zn35 2.046 . S
O37 C36 1.254 . S
C38 O59 1.256 . S
C38 O60 1.244 . S
O39 Zn35 2.055 . S
O39 C61 1.259 . S
O40 Zn32 2.046 . S
O40 C61 1.254 . S
N41 Zn35 2.036 . S
N41 C42 1.298 . S
N41 N44 1.398 . S
C42 N41 1.298 . S
C42 N45 1.367 . S
C42 C55 1.481 . S
C43 N44 1.299 . S
C43 N45 1.379 . S
N44 N41 1.398 . S
N44 C43 1.299 . S
N45 C42 1.367 . S
N45 C43 1.379 . S
C46 N48 1.298 . S
C46 N50 1.367 . S
C46 C54 1.481 . S
C47 N49 1.299 . S
C47 N50 1.379 . S
N48 Zn32 2.036 . S
N48 C46 1.298 . S
N48 N49 1.398 . S
N49 C47 1.299 . S
N49 N48 1.398 . S
N50 C46 1.367 . S
N50 C47 1.379 . S
H51 C54 0.980 . S
H52 C54 0.981 . S
H53 C54 0.981 . S
C54 C46 1.481 . S
C54 H51 0.980 . S
C54 H52 0.981 . S
C54 H53 0.981 . S
C55 C42 1.481 . S
C55 H56 0.980 . S
C55 H57 0.981 . S
C55 H58 0.981 . S
H56 C55 0.980 . S
H57 C55 0.981 . S
H58 C55 0.981 . S
O59 Zn35 2.066 . S
O59 C38 1.256 . S
O60 Zn32 2.053 . S
O60 C38 1.244 . S
C61 O39 1.259 . S
C61 O40 1.254 . S
O62 Zn32 2.066 . S
O62 C34 1.256 . S
O63 C34 1.244 . S
O63 Zn35 2.053 . S
Zn64 O65 2.055 1_455 S
Zn64 O72 2.046 . S
Zn64 N80 2.036 . S
Zn64 O92 2.053 . S
Zn64 O94 2.066 1_455 S
O65 Zn64 2.055 1_655 S
O65 C68 1.259 . S
C66 O94 1.256 . S
C66 O95 1.244 . S
Zn67 O69 2.046 . S
Zn67 O71 2.055 1_655 S
Zn67 N73 2.036 . S
Zn67 O91 2.066 1_655 S
Zn67 O95 2.053 . S
C68 O65 1.259 . S
C68 O69 1.254 . S
O69 Zn67 2.046 . S
O69 C68 1.254 . S
C70 O91 1.256 . S
C70 O92 1.244 . S
O71 Zn67 2.055 1_455 S
O71 C93 1.259 . S
O72 Zn64 2.046 . S
O72 C93 1.254 . S
N73 Zn67 2.036 . S
N73 C74 1.298 1_655 S
N73 N76 1.398 . S
C74 N73 1.298 1_455 S
C74 N77 1.367 . S
C74 C87 1.481 . S
C75 N76 1.299 . S
C75 N77 1.379 1_655 S
N76 N73 1.398 . S
N76 C75 1.299 . S
N77 C74 1.367 . S
N77 C75 1.379 1_455 S
C78 N80 1.298 1_655 S
C78 N82 1.367 . S
C78 C86 1.481 . S
C79 N81 1.299 . S
C79 N82 1.379 1_455 S
N80 Zn64 2.036 . S
N80 C78 1.298 1_455 S
N80 N81 1.398 . S
N81 C79 1.299 . S
N81 N80 1.398 . S
N82 C78 1.367 . S
N82 C79 1.379 1_655 S
H83 C86 0.980 . S
H84 C86 0.981 . S
H85 C86 0.981 . S
C86 C78 1.481 . S
C86 H83 0.980 . S
C86 H84 0.981 . S
C86 H85 0.981 . S
C87 C74 1.481 . S
C87 H88 0.980 . S
C87 H89 0.981 . S
C87 H90 0.981 . S
H88 C87 0.980 . S
H89 C87 0.981 . S
H90 C87 0.981 . S
O91 Zn67 2.066 1_455 S
O91 C70 1.256 . S
O92 Zn64 2.053 . S
O92 C70 1.244 . S
C93 O71 1.259 . S
C93 O72 1.254 . S
O94 Zn64 2.066 1_655 S
O94 C66 1.256 . S
O95 C66 1.244 . S
O95 Zn67 2.053 . S
Zn96 O97 2.055 . S
Zn96 O104 2.046 . S
Zn96 N112 2.036 . S
Zn96 O124 2.053 . S
Zn96 O126 2.066 . S
O97 Zn96 2.055 . S
O97 C100 1.259 . S
C98 O126 1.256 . S
C98 O127 1.244 . S
Zn99 O101 2.046 . S
Zn99 O103 2.055 . S
Zn99 N105 2.036 . S
Zn99 O123 2.066 . S
Zn99 O127 2.053 . S
C100 O97 1.259 . S
C100 O101 1.254 . S
O101 Zn99 2.046 . S
O101 C100 1.254 . S
C102 O123 1.256 . S
C102 O124 1.244 . S
O103 Zn99 2.055 . S
O103 C125 1.259 . S
O104 Zn96 2.046 . S
O104 C125 1.254 . S
N105 Zn99 2.036 . S
N105 C106 1.298 . S
N105 N108 1.398 . S
C106 N105 1.298 . S
C106 N109 1.367 . S
C106 C119 1.481 . S
C107 N108 1.299 . S
C107 N109 1.379 . S
N108 N105 1.398 . S
N108 C107 1.299 . S
N109 C106 1.367 . S
N109 C107 1.379 . S
C110 N112 1.298 . S
C110 N114 1.367 . S
C110 C118 1.481 . S
C111 N113 1.299 . S
C111 N114 1.379 . S
N112 Zn96 2.036 . S
N112 C110 1.298 . S
N112 N113 1.398 . S
N113 C111 1.299 . S
N113 N112 1.398 . S
N114 C110 1.367 . S
N114 C111 1.379 . S
H115 C118 0.980 . S
H116 C118 0.981 . S
H117 C118 0.981 . S
C118 C110 1.481 . S
C118 H115 0.980 . S
C118 H116 0.981 . S
C118 H117 0.981 . S
C119 C106 1.481 . S
C119 H120 0.980 . S
C119 H121 0.981 . S
C119 H122 0.981 . S
H120 C119 0.980 . S
H121 C119 0.981 . S
H122 C119 0.981 . S
O123 Zn99 2.066 . S
O123 C102 1.256 . S
O124 Zn96 2.053 . S
O124 C102 1.244 . S
C125 O103 1.259 . S
C125 O104 1.254 . S
O126 Zn96 2.066 . S
O126 C98 1.256 . S
O127 C98 1.244 . S
O127 Zn99 2.053 . S
H128 C136 0.950 . S
H129 C141 0.950 . S
H130 C138 0.950 1_554 S
H131 C140 0.950 . S
H132 C142 0.950 . S
H133 C144 0.950 1_556 S
H134 C146 0.950 . S
H135 C147 0.950 . S
C136 H128 0.950 . S
C136 C137 1.386 1_455 S
C136 C138 1.391 . S
C137 C136 1.386 1_655 S
C137 C141 1.393 . S
C138 H130 0.950 1_556 S
C138 C136 1.391 . S
C138 C139 1.400 1_455 S
C139 C138 1.400 1_655 S
C139 C140 1.398 . S
C139 C145 1.491 1_556 S
C140 H131 0.950 . S
C140 C139 1.398 . S
C140 C141 1.391 . S
C141 H129 0.950 . S
C141 C137 1.393 . S
C141 C140 1.391 . S
C142 H132 0.950 . S
C142 C143 1.386 . S
C142 C144 1.391 . S
C143 C142 1.386 . S
C143 C147 1.393 1_655 S
C144 H133 0.950 1_554 S
C144 C142 1.391 . S
C144 C145 1.400 . S
C145 C139 1.491 1_554 S
C145 C144 1.400 . S
C145 C146 1.398 1_655 S
C146 H134 0.950 . S
C146 C145 1.398 1_455 S
C146 C147 1.391 . S
C147 H135 0.950 . S
C147 C143 1.393 1_455 S
C147 C146 1.391 . S
H148 C156 0.950 . S
H149 C161 0.950 . S
H150 C158 0.950 . S
H151 C160 0.950 . S
H152 C162 0.950 . S
H153 C164 0.950 . S
H154 C166 0.950 . S
H155 C167 0.950 . S
C156 H148 0.950 . S
C156 C157 1.386 . S
C156 C158 1.391 . S
C157 C156 1.386 . S
C157 C161 1.393 . S
C158 H150 0.950 . S
C158 C156 1.391 . S
C158 C159 1.400 . S
C159 C158 1.400 . S
C159 C160 1.398 . S
C159 C165 1.491 1_554 S
C160 H151 0.950 . S
C160 C159 1.398 . S
C160 C161 1.391 . S
C161 H149 0.950 . S
C161 C157 1.393 . S
C161 C160 1.391 . S
C162 H152 0.950 . S
C162 C163 1.386 . S
C162 C164 1.391 . S
C163 C162 1.386 . S
C163 C167 1.393 . S
C164 H153 0.950 . S
C164 C162 1.391 . S
C164 C165 1.400 . S
C165 C159 1.491 1_556 S
C165 C164 1.400 . S
C165 C166 1.398 . S
C166 H154 0.950 . S
C166 C165 1.398 . S
C166 C167 1.391 . S
C167 H155 0.950 . S
C167 C163 1.393 . S
C167 C166 1.391 . S
H168 C176 0.950 . S
H169 C181 0.950 . S
H170 C178 0.950 . S
H171 C180 0.950 1_554 S
H172 C182 0.950 . S
H173 C184 0.950 . S
H174 C186 0.950 1_556 S
H175 C187 0.950 . S
C176 H168 0.950 . S
C176 C177 1.386 . S
C176 C178 1.391 . S
C177 C176 1.386 . S
C177 C181 1.393 . S
C178 H170 0.950 . S
C178 C176 1.391 . S
C178 C179 1.400 . S
C179 C178 1.400 . S
C179 C180 1.398 . S
C179 C185 1.491 1_566 S
C180 H171 0.950 1_556 S
C180 C179 1.398 . S
C180 C181 1.391 . S
C181 H169 0.950 . S
C181 C177 1.393 . S
C181 C180 1.391 . S
C182 H172 0.950 . S
C182 C183 1.386 . S
C182 C184 1.391 . S
C183 C182 1.386 . S
C183 C187 1.393 . S
C184 H173 0.950 . S
C184 C182 1.391 . S
C184 C185 1.400 . S
C185 C179 1.491 1_544 S
C185 C184 1.400 . S
C185 C186 1.398 . S
C186 H174 0.950 1_554 S
C186 C185 1.398 . S
C186 C187 1.391 . S
C187 H175 0.950 . S
C187 C183 1.393 . S
C187 C186 1.391 . S
H188 C196 0.950 . S
H189 C201 0.950 . S
H190 C198 0.950 . S
H191 C200 0.950 . S
H192 C202 0.950 . S
H193 C204 0.950 . S
H194 C206 0.950 . S
H195 C207 0.950 . S
C196 H188 0.950 . S
C196 C197 1.386 1_655 S
C196 C198 1.391 . S
C197 C196 1.386 1_455 S
C197 C201 1.393 . S
C198 H190 0.950 . S
C198 C196 1.391 . S
C198 C199 1.400 1_655 S
C199 C198 1.400 1_455 S
C199 C200 1.398 1_554 S
C199 C205 1.491 1_564 S
C200 H191 0.950 . S
C200 C199 1.398 1_556 S
C200 C201 1.391 1_556 S
C201 H189 0.950 . S
C201 C197 1.393 . S
C201 C200 1.391 1_554 S
C202 H192 0.950 . S
C202 C203 1.386 . S
C202 C204 1.391 . S
C203 C202 1.386 . S
C203 C207 1.393 1_455 S
C204 H193 0.950 . S
C204 C202 1.391 . S
C204 C205 1.400 . S
C205 C199 1.491 1_546 S
C205 C204 1.400 . S
C205 C206 1.398 1_456 S
C206 H194 0.950 . S
C206 C205 1.398 1_654 S
C206 C207 1.391 1_554 S
C207 H195 0.950 . S
C207 C203 1.393 1_655 S
C207 C206 1.391 1_556 S
H208 C216 0.950 . S
H209 C221 0.950 . S
H210 C218 0.950 . S
H211 C220 0.950 . S
H212 C222 0.950 . S
H213 C224 0.950 . S
H214 C226 0.950 . S
H215 C227 0.950 . S
C216 H208 0.950 . S
C216 C217 1.386 . S
C216 C218 1.391 . S
C217 C216 1.386 . S
C217 C221 1.393 . S
C218 H210 0.950 . S
C218 C216 1.391 . S
C218 C219 1.400 . S
C219 C218 1.400 . S
C219 C220 1.398 . S
C219 C225 1.491 . S
C220 H211 0.950 . S
C220 C219 1.398 . S
C220 C221 1.391 . S
C221 H209 0.950 . S
C221 C217 1.393 . S
C221 C220 1.391 . S
C222 H212 0.950 . S
C222 C223 1.386 . S
C222 C224 1.391 . S
C223 C222 1.386 . S
C223 C227 1.393 . S
C224 H213 0.950 . S
C224 C222 1.391 . S
C224 C225 1.400 . S
C225 C219 1.491 . S
C225 C224 1.400 . S
C225 C226 1.398 . S
C226 H214 0.950 . S
C226 C225 1.398 . S
C226 C227 1.391 . S
C227 H215 0.950 . S
C227 C223 1.393 . S
C227 C226 1.391 . S
H228 C236 0.950 . S
H229 C241 0.950 . S
H230 C238 0.950 . S
H231 C240 0.950 . S
H232 C242 0.950 . S
H233 C244 0.950 . S
H234 C246 0.950 . S
H235 C247 0.950 . S
C236 H228 0.950 . S
C236 C237 1.386 . S
C236 C238 1.391 . S
C237 C236 1.386 . S
C237 C241 1.393 . S
C238 H230 0.950 . S
C238 C236 1.391 . S
C238 C239 1.400 . S
C239 C238 1.400 . S
C239 C240 1.398 . S
C239 C245 1.491 . S
C240 H231 0.950 . S
C240 C239 1.398 . S
C240 C241 1.391 . S
C241 H229 0.950 . S
C241 C237 1.393 . S
C241 C240 1.391 . S
C242 H232 0.950 . S
C242 C243 1.386 . S
C242 C244 1.391 . S
C243 C242 1.386 . S
C243 C247 1.393 . S
C244 H233 0.950 . S
C244 C242 1.391 . S
C244 C245 1.400 . S
C245 C239 1.491 . S
C245 C244 1.400 . S
C245 C246 1.398 . S
C246 H234 0.950 . S
C246 C245 1.398 . S
C246 C247 1.391 . S
C247 H235 0.950 . S
C247 C243 1.393 . S
C247 C246 1.391 . S
H248 C256 0.950 . S
H249 C261 0.950 . S
H250 C258 0.950 . S
H251 C260 0.950 . S
H252 C262 0.950 . S
H253 C264 0.950 . S
H254 C266 0.950 . S
H255 C267 0.950 . S
C256 H248 0.950 . S
C256 C257 1.386 . S
C256 C258 1.391 . S
C257 C256 1.386 . S
C257 C261 1.393 . S
C258 H250 0.950 . S
C258 C256 1.391 . S
C258 C259 1.400 . S
C259 C258 1.400 . S
C259 C260 1.398 . S
C259 C265 1.491 . S
C260 H251 0.950 . S
C260 C259 1.398 . S
C260 C261 1.391 . S
C261 H249 0.950 . S
C261 C257 1.393 . S
C261 C260 1.391 . S
C262 H252 0.950 . S
C262 C263 1.386 . S
C262 C264 1.391 . S
C263 C262 1.386 . S
C263 C267 1.393 . S
C264 H253 0.950 . S
C264 C262 1.391 . S
C264 C265 1.400 . S
C265 C259 1.491 . S
C265 C264 1.400 . S
C265 C266 1.398 . S
C266 H254 0.950 . S
C266 C265 1.398 . S
C266 C267 1.391 . S
C267 H255 0.950 . S
C267 C263 1.393 . S
C267 C266 1.391 . S
H268 C276 0.950 . S
H269 C281 0.950 . S
H270 C278 0.950 . S
H271 C280 0.950 . S
H272 C282 0.950 . S
H273 C284 0.950 . S
H274 C286 0.950 . S
H275 C287 0.950 . S
C276 H268 0.950 . S
C276 C277 1.386 . S
C276 C278 1.391 . S
C277 C276 1.386 . S
C277 C281 1.393 . S
C278 H270 0.950 . S
C278 C276 1.391 . S
C278 C279 1.400 . S
C279 C278 1.400 . S
C279 C280 1.398 . S
C279 C285 1.491 . S
C280 H271 0.950 . S
C280 C279 1.398 . S
C280 C281 1.391 . S
C281 H269 0.950 . S
C281 C277 1.393 . S
C281 C280 1.391 . S
C282 H272 0.950 . S
C282 C283 1.386 . S
C282 C284 1.391 . S
C283 C282 1.386 . S
C283 C287 1.393 . S
C284 H273 0.950 . S
C284 C282 1.391 . S
C284 C285 1.400 . S
C285 C279 1.491 . S
C285 C284 1.400 . S
C285 C286 1.398 . S
C286 H274 0.950 . S
C286 C285 1.398 . S
C286 C287 1.391 . S
C287 H275 0.950 . S
C287 C283 1.393 . S
C287 C286 1.391 . S
H288 C296 0.950 . S
H289 C301 0.950 . S
H290 C298 0.950 . S
H291 C300 0.953 . S
H292 C302 0.950 . S
H293 C304 0.950 . S
H294 C306 0.953 . S
H295 C307 0.950 . S
C296 H288 0.950 . S
C296 C297 1.386 . S
C296 C298 1.391 . S
C297 C296 1.386 . S
C297 C301 1.393 . S
C298 H290 0.950 . S
C298 C296 1.391 . S
C298 C299 1.400 . S
C299 C298 1.400 . S
C299 C300 1.398 . S
C299 C305 1.491 1_556 S
C300 H291 0.953 . S
C300 C299 1.398 . S
C300 C301 1.391 . S
C301 H289 0.950 . S
C301 C297 1.393 . S
C301 C300 1.391 . S
C302 H292 0.950 . S
C302 C303 1.386 . S
C302 C304 1.391 . S
C303 C302 1.386 . S
C303 C307 1.393 . S
C304 H293 0.950 . S
C304 C302 1.391 . S
C304 C305 1.400 . S
C305 C299 1.491 1_554 S
C305 C304 1.400 . S
C305 C306 1.398 . S
C306 H294 0.953 . S
C306 C305 1.398 . S
C306 C307 1.391 . S
C307 H295 0.950 . S
C307 C303 1.393 . S
C307 C306 1.391 . S
H308 C316 0.950 . S
H309 C321 0.950 . S
H310 C318 0.950 . S
H311 C320 0.950 . S
H312 C322 0.950 . S
H313 C324 0.950 . S
H314 C326 0.950 . S
H315 C327 0.950 . S
C316 H308 0.950 . S
C316 C317 1.386 1_554 S
C316 C318 1.391 . S
C317 C316 1.386 1_556 S
C317 C321 1.393 . S
C318 H310 0.950 . S
C318 C316 1.391 . S
C318 C319 1.400 1_554 S
C319 C318 1.400 1_556 S
C319 C320 1.398 . S
C319 C325 1.491 1_556 S
C320 H311 0.950 . S
C320 C319 1.398 . S
C320 C321 1.391 . S
C321 H309 0.950 . S
C321 C317 1.393 . S
C321 C320 1.391 . S
C322 H312 0.950 . S
C322 C323 1.386 1_556 S
C322 C324 1.391 . S
C323 C322 1.386 1_554 S
C323 C327 1.393 . S
C324 H313 0.950 . S
C324 C322 1.391 . S
C324 C325 1.400 1_556 S
C325 C319 1.491 1_554 S
C325 C324 1.400 1_554 S
C325 C326 1.398 . S
C326 H314 0.950 . S
C326 C325 1.398 . S
C326 C327 1.391 . S
C327 H315 0.950 . S
C327 C323 1.393 . S
C327 C326 1.391 . S
H328 C336 0.950 1_556 S
H329 C341 0.950 . S
H330 C338 0.950 . S
H331 C340 0.950 . S
H332 C342 0.950 1_554 S
H333 C344 0.950 . S
H334 C346 0.950 . S
H335 C347 0.950 . S
C336 H328 0.950 1_554 S
C336 C337 1.386 . S
C336 C338 1.391 1_554 S
C337 C336 1.386 . S
C337 C341 1.393 . S
C338 H330 0.950 . S
C338 C336 1.391 1_556 S
C338 C339 1.400 1_556 S
C339 C338 1.400 1_554 S
C339 C340 1.398 . S
C339 C345 1.491 1_554 S
C340 H331 0.950 . S
C340 C339 1.398 . S
C340 C341 1.391 . S
C341 H329 0.950 . S
C341 C337 1.393 . S
C341 C340 1.391 . S
C342 H332 0.950 1_556 S
C342 C343 1.386 . S
C342 C344 1.391 1_556 S
C343 C342 1.386 . S
C343 C347 1.393 . S
C344 H333 0.950 . S
C344 C342 1.391 1_554 S
C344 C345 1.400 1_554 S
C345 C339 1.491 1_556 S
C345 C344 1.400 1_556 S
C345 C346 1.398 . S
C346 H334 0.950 . S
C346 C345 1.398 . S
C346 C347 1.391 . S
C347 H335 0.950 . S
C347 C343 1.393 . S
C347 C346 1.391 . S
H348 C356 0.950 . S
H349 C361 0.950 . S
H350 C358 0.950 . S
H351 C360 0.950 . S
H352 C362 0.950 . S
H353 C364 0.950 . S
H354 C366 0.950 . S
H355 C367 0.950 . S
C356 H348 0.950 . S
C356 C357 1.386 . S
C356 C358 1.391 . S
C357 C356 1.386 . S
C357 C361 1.393 1_554 S
C358 H350 0.950 . S
C358 C356 1.391 . S
C358 C359 1.400 . S
C359 C358 1.400 . S
C359 C360 1.398 1_554 S
C359 C365 1.491 1_554 S
C360 H351 0.950 . S
C360 C359 1.398 1_556 S
C360 C361 1.391 . S
C361 H349 0.950 . S
C361 C357 1.393 1_556 S
C361 C360 1.391 . S
C362 H352 0.950 . S
C362 C363 1.386 . S
C362 C364 1.391 . S
C363 C362 1.386 . S
C363 C367 1.393 1_556 S
C364 H353 0.950 . S
C364 C362 1.391 . S
C364 C365 1.400 . S
C365 C359 1.491 1_556 S
C365 C364 1.400 . S
C365 C366 1.398 1_556 S
C366 H354 0.950 . S
C366 C365 1.398 1_554 S
C366 C367 1.391 . S
C367 H355 0.950 . S
C367 C363 1.393 1_554 S
C367 C366 1.391 . S
C137 N82 1.921 . S
C143 N13 1.930 . S
C157 N45 1.929 . S
C163 N109 1.923 . S
C177 N114 1.931 . S
C183 N50 1.918 . S
C197 N18 1.932 . S
C203 N77 1.915 . S
C217 C100 1.561 . S
C223 C4 1.560 . S
C237 C93 1.561 . S
C243 C36 1.560 . S
C257 C68 1.563 . S
C263 C61 1.561 . S
C277 C29 1.563 . S
C283 C125 1.561 . S
C297 C98 0.735 . S
C303 C2 0.736 . S
C317 C70 0.752 . S
C323 C34 0.750 . S
C337 C38 0.737 . S
C343 C66 0.736 . S
C357 C6 0.747 . S
C363 C102 0.749 . S
