# Generated by pormake.
# Topology qtz-e, (6)-cn, num edge types: 1
# Building blocks:
#     Node 0, Type 0, BuildingBlock: CIFDUS_clean_sbu_1, # of connection points: 6
#     Node 1, Type 0, BuildingBlock: CIFDUS_clean_sbu_1, # of connection points: 6
#     Node 2, Type 0, BuildingBlock: CIFDUS_clean_sbu_1, # of connection points: 6
#     Node 3, Type 0, BuildingBlock: CIFDUS_clean_sbu_1, # of connection points: 6
#     Node 4, Type 0, BuildingBlock: CIFDUS_clean_sbu_1, # of connection points: 6
#     Node 5, Type 0, BuildingBlock: CIFDUS_clean_sbu_1, # of connection points: 6
#     Edge 6, Type (0, 0), BuildingBlock: FUNLAD_clean_linker_1, # of connection points: 2
#     Edge 7, Type (0, 0), BuildingBlock: FUNLAD_clean_linker_1, # of connection points: 2
#     Edge 8, Type (0, 0), BuildingBlock: FUNLAD_clean_linker_1, # of connection points: 2
#     Edge 9, Type (0, 0), BuildingBlock: FUNLAD_clean_linker_1, # of connection points: 2
#     Edge 10, Type (0, 0), BuildingBlock: FUNLAD_clean_linker_1, # of connection points: 2
#     Edge 11, Type (0, 0), BuildingBlock: FUNLAD_clean_linker_1, # of connection points: 2
#     Edge 12, Type (0, 0), BuildingBlock: FUNLAD_clean_linker_1, # of connection points: 2
#     Edge 13, Type (0, 0), BuildingBlock: FUNLAD_clean_linker_1, # of connection points: 2
#     Edge 14, Type (0, 0), BuildingBlock: FUNLAD_clean_linker_1, # of connection points: 2
#     Edge 15, Type (0, 0), BuildingBlock: FUNLAD_clean_linker_1, # of connection points: 2
#     Edge 16, Type (0, 0), BuildingBlock: FUNLAD_clean_linker_1, # of connection points: 2
#     Edge 17, Type (0, 0), BuildingBlock: FUNLAD_clean_linker_1, # of connection points: 2
#     Edge 18, Type (0, 0), BuildingBlock: FUNLAD_clean_linker_1, # of connection points: 2
#     Edge 19, Type (0, 0), BuildingBlock: FUNLAD_clean_linker_1, # of connection points: 2
#     Edge 20, Type (0, 0), BuildingBlock: FUNLAD_clean_linker_1, # of connection points: 2
#     Edge 21, Type (0, 0), BuildingBlock: FUNLAD_clean_linker_1, # of connection points: 2
#     Edge 22, Type (0, 0), BuildingBlock: FUNLAD_clean_linker_1, # of connection points: 2
#     Edge 23, Type (0, 0), BuildingBlock: FUNLAD_clean_linker_1, # of connection points: 2
# Relax obj value: 0.337
# Max RMSD: 0.227
# Mean RMSD: 0.227
data_MOF--net-qtz-e--node1-CIFDUS_clean_sbu_1--edge1-FUNLAD_clean_linker_1
_symmetry_space_group_name_H-M    P1
_symmetry_Int_Tables_number       1
_symmetry_cell_setting            triclinic
loop_
_symmetry_equiv_pos_as_xyz
'x, y, z'
_cell_length_a     28.693138
_cell_length_b     29.02681
_cell_length_c     32.123152
_cell_angle_alpha  89.532894
_cell_angle_beta   90.381331
_cell_angle_gamma 120.11557
loop_
_atom_site_label
_atom_site_type_symbol
_atom_site_fract_x
_atom_site_fract_y
_atom_site_fract_z
_atom_type_partial_charge
O0 O 0.29816 0.40565 0.01926 0.0
Mn1 Mn 0.25659 0.44738 0.01053 0.0
O2 O 0.37639 0.45965 0.05209 0.0
Mn3 Mn 0.3716 0.52062 0.04639 0.0
O4 O 0.21516 0.48997 0.00236 0.0
O5 O 0.21004 0.39244 0.9675 0.0
Mn6 Mn 0.14254 0.3763 0.97529 0.0
O7 O 0.20296 0.40187 0.05827 0.0
O8 O 0.13932 0.43735 0.96664 0.0
O9 O 0.31058 0.4936 0.96309 0.0
O10 O 0.38912 0.55163 0.99415 0.0
O11 O 0.14015 0.33519 0.9315 0.0
O12 O 0.12243 0.34837 0.02831 0.0
C13 C 0.31795 0.53345 0.08443 0.0
C14 C 0.343 0.41502 0.03599 0.0
C15 C 0.17142 0.48139 0.98405 0.0
C16 C 0.19171 0.35833 0.93726 0.0
C17 C 0.15273 0.36609 0.06027 0.0
C18 C 0.35936 0.53316 0.962 0.0
O19 O 0.30318 0.50106 0.05343 0.0
O20 O 0.36923 0.55818 0.09166 0.0
O21 O 0.80635 0.27037 0.33096 0.0
Mn22 Mn 0.76008 0.19466 0.30505 0.0
O23 O 0.7651 0.31555 0.3085 0.0
Mn24 Mn 0.70761 0.26254 0.27809 0.0
O25 O 0.71216 0.12162 0.27801 0.0
O26 O 0.82144 0.18104 0.30547 0.0
Mn27 Mn 0.80371 0.11729 0.32509 0.0
O28 O 0.73584 0.15871 0.3647 0.0
O29 O 0.74563 0.06781 0.29242 0.0
O30 O 0.78482 0.22963 0.24576 0.0
O31 O 0.72467 0.25309 0.22461 0.0
O32 O 0.87479 0.14945 0.30615 0.0
O33 O 0.78438 0.11911 0.37968 0.0
C34 C 0.65131 0.19628 0.31654 0.0
C35 C 0.8024 0.31278 0.32869 0.0
C36 C 0.71026 0.07677 0.27579 0.0
C37 C 0.86756 0.18824 0.29466 0.0
C38 C 0.75009 0.13287 0.38975 0.0
C39 C 0.7643 0.24602 0.21767 0.0
O40 O 0.69705 0.205 0.30365 0.0
O41 O 0.63822 0.22933 0.30073 0.0
O42 O 0.54611 0.82274 0.67332 0.0
Mn43 Mn 0.57971 0.77922 0.64991 0.0
O44 O 0.45843 0.77619 0.65366 0.0
Mn45 Mn 0.45951 0.72083 0.62574 0.0
O46 O 0.60968 0.73337 0.62618 0.0
O47 O 0.65344 0.84622 0.64546 0.0
Mn48 Mn 0.70121 0.83033 0.66656 0.0
O49 O 0.59574 0.76268 0.71062 0.0
O50 O 0.69932 0.77601 0.63459 0.0
O51 O 0.56576 0.79596 0.58874 0.0
O52 O 0.48218 0.73305 0.57124 0.0
O53 O 0.74031 0.90002 0.64952 0.0
O54 O 0.68466 0.81215 0.72201 0.0
C55 C 0.46672 0.66541 0.66468 0.0
C56 C 0.49783 0.81509 0.6725 0.0
C57 C 0.65548 0.73646 0.62166 0.0
C58 C 0.69428 0.89306 0.63694 0.0
C59 C 0.63733 0.77857 0.73428 0.0
C60 C 0.52824 0.77154 0.5617 0.0
O61 O 0.50672 0.71167 0.65416 0.0
O62 O 0.42139 0.65295 0.64686 0.0
O63 O 0.72161 0.61251 0.03497 0.0
Mn64 Mn 0.78385 0.60045 0.01514 0.0
O65 O 0.64859 0.53263 0.0492 0.0
Mn66 Mn 0.67471 0.49234 0.02419 0.0
O67 O 0.8467 0.58858 0.99652 0.0
O68 O 0.82346 0.67519 0.99375 0.0
Mn69 Mn 0.89061 0.7093 0.01173 0.0
O70 O 0.82052 0.62336 0.0738 0.0
O71 O 0.92141 0.66993 0.99309 0.0
O72 O 0.747 0.57598 0.95703 0.0
O73 O 0.67383 0.49441 0.96657 0.0
O74 O 0.88165 0.75552 0.97639 0.0
O75 O 0.8862 0.70905 0.06934 0.0
C76 C 0.73969 0.48412 0.05215 0.0
C77 C 0.67289 0.5835 0.04792 0.0
C78 C 0.89756 0.61917 0.99038 0.0
C79 C 0.83311 0.71619 0.9716 0.0
C80 C 0.85811 0.6663 0.09028 0.0
C81 C 0.70582 0.53346 0.94335 0.0
O82 O 0.7439 0.52624 0.03574 0.0
O83 O 0.69058 0.44487 0.05212 0.0
O84 O 0.12939 0.72363 0.37448 0.0
Mn85 Mn 0.20779 0.7683 0.35076 0.0
O86 O 0.12837 0.65557 0.41051 0.0
Mn87 Mn 0.18986 0.65952 0.38841 0.0
O88 O 0.28537 0.80757 0.32678 0.0
O89 O 0.1864 0.81217 0.31526 0.0
Mn90 Mn 0.23985 0.87968 0.31662 0.0
O91 O 0.23126 0.8235 0.39959 0.0
O92 O 0.30092 0.88229 0.29407 0.0
O93 O 0.18531 0.71208 0.30342 0.0
O94 O 0.18317 0.63966 0.33265 0.0
O95 O 0.18657 0.87841 0.28326 0.0
O96 O 0.24778 0.90159 0.37181 0.0
C97 C 0.26816 0.7267 0.40552 0.0
C98 C 0.10544 0.68115 0.39728 0.0
C99 C 0.31515 0.84867 0.30457 0.0
C100 C 0.16073 0.82784 0.29118 0.0
C101 C 0.24513 0.8729 0.40306 0.0
C102 C 0.17953 0.6652 0.30127 0.0
O103 O 0.2308 0.72792 0.38527 0.0
O104 O 0.25432 0.6791 0.41791 0.0
O105 O 0.43298 0.15334 0.68509 0.0
Mn106 Mn 0.45591 0.23156 0.66696 0.0
O107 O 0.5093 0.15368 0.70191 0.0
Mn108 Mn 0.55588 0.22167 0.68356 0.0
O109 O 0.47924 0.30951 0.64843 0.0
O110 O 0.38462 0.2011 0.63619 0.0
Mn111 Mn 0.35717 0.24251 0.64603 0.0
O112 O 0.42218 0.24122 0.72189 0.0
O113 O 0.40533 0.30954 0.62496 0.0
O114 O 0.48918 0.2237 0.61191 0.0
O115 O 0.5681 0.22879 0.62709 0.0
O116 O 0.3084 0.18929 0.61195 0.0
O117 O 0.34575 0.23964 0.70285 0.0
C118 C 0.57097 0.28824 0.71946 0.0
C119 C 0.45826 0.12989 0.69818 0.0
C120 C 0.45597 0.33286 0.63129 0.0
C121 C 0.34223 0.17219 0.61352 0.0
C122 C 0.37892 0.24217 0.73064 0.0
C123 C 0.5332 0.22598 0.60108 0.0
O124 O 0.52777 0.26146 0.69706 0.0
O125 O 0.60477 0.27106 0.7191 0.0
H126 H 0.14536 0.64603 0.23756 0.0
C127 C 0.16967 0.63969 0.26021 0.0
H128 H 0.21641 0.60439 0.27363 0.0
H129 H 0.17799 0.43451 0.15213 0.0
H130 H 0.14085 0.38252 0.2156 0.0
H131 H 0.11925 0.421 0.27564 0.0
H132 H 0.13741 0.5124 0.27333 0.0
C133 C 0.19255 0.61074 0.25027 0.0
C134 C 0.18551 0.58375 0.20953 0.0
C135 C 0.16998 0.52897 0.2101 0.0
C136 C 0.17944 0.50571 0.17481 0.0
C137 C 0.1698 0.45307 0.17783 0.0
C138 C 0.14868 0.42307 0.21404 0.0
C139 C 0.13662 0.44477 0.24785 0.0
C140 C 0.14729 0.49719 0.24616 0.0
H141 H 0.3032 0.5755 0.13349 0.0
C142 C 0.28276 0.54471 0.11012 0.0
H143 H 0.20616 0.48796 0.08607 0.0
H144 H 0.21959 0.69054 0.19527 0.0
H145 H 0.24439 0.7363 0.12916 0.0
H146 H 0.24646 0.69021 0.06558 0.0
H147 H 0.22542 0.5978 0.06878 0.0
C148 C 0.22889 0.52017 0.10766 0.0
C149 C 0.2007 0.53608 0.13809 0.0
C150 C 0.20753 0.58777 0.13526 0.0
C151 C 0.20271 0.61296 0.17147 0.0
C152 C 0.21835 0.6676 0.16868 0.0
C153 C 0.23351 0.69481 0.13075 0.0
C154 C 0.23488 0.66897 0.09499 0.0
C155 C 0.22275 0.61619 0.09717 0.0
H156 H 0.51583 0.22633 0.53435 0.0
C157 C 0.54256 0.22296 0.55668 0.0
H158 H 0.60713 0.20836 0.56543 0.0
H159 H 0.55962 0.07326 0.40256 0.0
H160 H 0.54747 0.00967 0.45752 0.0
H161 H 0.54788 0.03179 0.53101 0.0
H162 H 0.56238 0.11799 0.55118 0.0
C163 C 0.58108 0.21336 0.54338 0.0
C164 C 0.58376 0.20156 0.49902 0.0
C165 C 0.57305 0.15007 0.48769 0.0
C166 C 0.57155 0.13693 0.44501 0.0
C167 C 0.56148 0.08543 0.43456 0.0
C168 C 0.55376 0.04835 0.46554 0.0
C169 C 0.55401 0.06078 0.50714 0.0
C170 C 0.56292 0.11073 0.51828 0.0
H171 H 0.6509 0.15843 0.37577 0.0
C172 C 0.62575 0.16567 0.35454 0.0
H173 H 0.55608 0.17133 0.34798 0.0
H174 H 0.61454 0.30648 0.51084 0.0
H175 H 0.62931 0.37149 0.45718 0.0
H176 H 0.62046 0.34738 0.38294 0.0
H177 H 0.59753 0.2588 0.36209 0.0
C178 C 0.58121 0.16377 0.36918 0.0
C179 C 0.5794 0.17505 0.41391 0.0
C180 C 0.59065 0.22689 0.42539 0.0
C181 C 0.59423 0.24051 0.46806 0.0
C182 C 0.60908 0.29342 0.47884 0.0
C183 C 0.61822 0.33134 0.44835 0.0
C184 C 0.61334 0.3178 0.4066 0.0
C185 C 0.60002 0.26646 0.39507 0.0
H186 H 0.42414 0.5949 0.9239 0.0
C187 C 0.38428 0.55958 0.92234 0.0
H188 H 0.32313 0.5055 0.88198 0.0
H189 H 0.45458 0.71971 0.76177 0.0
H190 H 0.41069 0.75552 0.8032 0.0
H191 H 0.35721 0.70709 0.86482 0.0
H192 H 0.34735 0.62208 0.88506 0.0
C193 C 0.36181 0.54181 0.88493 0.0
C194 C 0.39221 0.56991 0.84671 0.0
C195 C 0.39819 0.61985 0.83541 0.0
C196 C 0.42952 0.64787 0.80004 0.0
C197 C 0.43293 0.69692 0.78885 0.0
C198 C 0.40742 0.71799 0.81226 0.0
C199 C 0.3773 0.69074 0.84691 0.0
C200 C 0.3723 0.6421 0.85833 0.0
H201 H 0.43521 0.5907 0.69849 0.0
C202 C 0.46605 0.63254 0.69993 0.0
H203 H 0.51119 0.69676 0.73931 0.0
H204 H 0.38801 0.47509 0.85998 0.0
H205 H 0.42732 0.43573 0.8168 0.0
H206 H 0.48264 0.4837 0.75609 0.0
H207 H 0.49981 0.5725 0.73835 0.0
C208 C 0.48461 0.65426 0.73739 0.0
C209 C 0.4551 0.62581 0.77601 0.0
C210 C 0.44888 0.57565 0.78744 0.0
C211 C 0.41711 0.54768 0.82265 0.0
C212 C 0.41121 0.49768 0.83328 0.0
C213 C 0.43414 0.47486 0.80905 0.0
C214 C 0.46527 0.50201 0.7748 0.0
C215 C 0.47383 0.55243 0.76455 0.0
H216 H 0.7675 0.26242 0.15159 0.0
C217 C 0.79323 0.26909 0.17857 0.0
H218 H 0.86501 0.32414 0.2083 0.0
H219 H 0.83804 0.41983 0.02277 0.0
H220 H 0.87927 0.37181 0.99263 0.0
H221 H 0.90573 0.31899 0.0373 0.0
H222 H 0.89093 0.31357 0.11245 0.0
C223 C 0.8406 0.31505 0.18024 0.0
C224 C 0.8452 0.36082 0.15554 0.0
C225 C 0.85507 0.36437 0.11232 0.0
C226 C 0.83996 0.39489 0.08668 0.0
C227 C 0.84847 0.39658 0.04331 0.0
C228 C 0.87225 0.36954 0.02585 0.0
C229 C 0.88719 0.33979 0.05102 0.0
C230 C 0.8784 0.33678 0.09386 0.0
H231 H 0.82267 0.51577 0.0771 0.0
C232 C 0.78512 0.47985 0.06951 0.0
H233 H 0.74113 0.39606 0.06944 0.0
H234 H 0.83207 0.37173 0.23854 0.0
H235 H 0.80053 0.42737 0.26897 0.0
H236 H 0.77769 0.48292 0.22468 0.0
H237 H 0.78509 0.48239 0.14975 0.0
C238 C 0.77812 0.43158 0.07877 0.0
C239 C 0.81579 0.4222 0.10453 0.0
C240 C 0.81456 0.42589 0.14841 0.0
C241 C 0.82879 0.39464 0.17401 0.0
C242 C 0.82274 0.39536 0.21765 0.0
C243 C 0.80462 0.42706 0.23555 0.0
C244 C 0.79166 0.45829 0.2106 0.0
C245 C 0.79605 0.45753 0.16752 0.0
H246 H 0.51229 0.76251 0.49543 0.0
C247 C 0.53356 0.79243 0.51918 0.0
H248 H 0.55937 0.86985 0.53839 0.0
H249 H 0.41444 0.76625 0.3625 0.0
H250 H 0.48853 0.75826 0.33287 0.0
H251 H 0.57551 0.79452 0.37019 0.0
H252 H 0.58857 0.83873 0.43748 0.0
C253 C 0.54386 0.84255 0.5126 0.0
C254 C 0.51479 0.8531 0.47857 0.0
C255 C 0.50871 0.82936 0.43923 0.0
C256 C 0.4589 0.80851 0.418 0.0
C257 C 0.45195 0.78231 0.37971 0.0
C258 C 0.49402 0.77781 0.36252 0.0
C259 C 0.54305 0.79829 0.38352 0.0
C260 C 0.55028 0.82343 0.42179 0.0
H261 H 0.32994 0.81219 0.40046 0.0
C262 C 0.32193 0.77345 0.41154 0.0
H263 H 0.35321 0.72863 0.43871 0.0
H264 H 0.52896 0.92585 0.53825 0.0
H265 H 0.46311 0.95114 0.55858 0.0
H266 H 0.37548 0.9136 0.52225 0.0
H267 H 0.35181 0.84854 0.46747 0.0
C268 C 0.36092 0.76803 0.42967 0.0
C269 C 0.41648 0.81248 0.43622 0.0
C270 C 0.42819 0.84901 0.469 0.0
C271 C 0.47869 0.87072 0.48973 0.0
C272 C 0.49045 0.90723 0.52242 0.0
C273 C 0.45335 0.92246 0.53393 0.0
C274 C 0.40386 0.90111 0.51365 0.0
C275 C 0.39071 0.86385 0.48213 0.0
H276 H 0.70153 0.56514 0.88129 0.0
C277 C 0.69252 0.52957 0.89878 0.0
H278 H 0.65554 0.44615 0.89951 0.0
H279 H 0.47455 0.35616 0.77827 0.0
H280 H 0.42505 0.34875 0.84183 0.0
H281 H 0.47167 0.39873 0.90456 0.0
H282 H 0.56909 0.45802 0.90447 0.0
C283 C 0.66498 0.48149 0.88122 0.0
C284 C 0.63724 0.47161 0.84061 0.0
C285 C 0.58039 0.4404 0.84046 0.0
C286 C 0.55318 0.41095 0.80453 0.0
C287 C 0.49678 0.37806 0.80547 0.0
C288 C 0.46807 0.37373 0.84148 0.0
C289 C 0.49448 0.40239 0.87683 0.0
C290 C 0.55013 0.43578 0.87645 0.0
H291 H 0.61746 0.34651 0.76642 0.0
C292 C 0.58403 0.33483 0.7448 0.0
H293 H 0.52734 0.35501 0.7213 0.0
H294 H 0.74486 0.54011 0.8273 0.0
H295 H 0.79229 0.55413 0.76175 0.0
H296 H 0.74393 0.5042 0.69882 0.0
H297 H 0.64755 0.43937 0.7014 0.0
C298 C 0.56138 0.36532 0.74176 0.0
C299 C 0.58316 0.41254 0.76947 0.0
C300 C 0.63848 0.45179 0.76701 0.0
C301 C 0.66598 0.4812 0.80296 0.0
C302 C 0.72195 0.51737 0.80064 0.0
C303 C 0.74955 0.5257 0.76323 0.0
C304 C 0.72233 0.49754 0.72779 0.0
C305 C 0.66741 0.46051 0.7296 0.0
H306 H 0.32338 0.33156 0.03174 0.0
C307 C 0.35637 0.37197 0.0361 0.0
H308 H 0.41087 0.34416 0.04024 0.0
H309 H 0.57835 0.59702 0.98901 0.0
H310 H 0.53408 0.57328 0.92147 0.0
H311 H 0.45525 0.48414 0.90981 0.0
H312 H 0.41928 0.41865 0.96547 0.0
C313 C 0.4066 0.37928 0.03996 0.0
C314 C 0.45684 0.43205 0.04561 0.0
C315 C 0.47793 0.46952 0.01239 0.0
C316 C 0.52409 0.52065 0.01897 0.0
C317 C 0.54348 0.55772 0.98561 0.0
C318 C 0.51854 0.54455 0.94672 0.0
C319 C 0.474 0.49444 0.94017 0.0
C320 C 0.45375 0.4572 0.97244 0.0
H321 H 0.67015 0.65399 0.06847 0.0
C322 C 0.6451 0.61163 0.0625 0.0
H323 H 0.57697 0.61614 0.07803 0.0
H324 H 0.43033 0.36808 0.11471 0.0
H325 H 0.47732 0.39074 0.18106 0.0
H326 H 0.55793 0.47892 0.19196 0.0
H327 H 0.59213 0.54504 0.1365 0.0
C328 C 0.59153 0.59013 0.06758 0.0
C329 C 0.54973 0.53392 0.05845 0.0
C330 C 0.53059 0.49544 0.09086 0.0
C331 C 0.48423 0.44446 0.08444 0.0
C332 C 0.46555 0.40724 0.11772 0.0
C333 C 0.4921 0.41976 0.156 0.0
C334 C 0.53746 0.46943 0.16216 0.0
C335 C 0.55658 0.50704 0.13013 0.0
H336 H 0.02458 0.6663 0.37925 0.0
C337 C 0.04576 0.65208 0.39894 0.0
H338 H 0.04043 0.58681 0.43262 0.0
H339 H 0.80565 0.40717 0.42502 0.0
H340 H 0.80482 0.43946 0.49438 0.0
H341 H 0.87887 0.52637 0.51814 0.0
H342 H 0.95413 0.58173 0.47251 0.0
C343 C 0.01988 0.60099 0.4122 0.0
C344 C 0.96908 0.55802 0.39352 0.0
C345 C 0.92498 0.52646 0.42012 0.0
C346 C 0.88217 0.4765 0.40635 0.0
C347 C 0.83906 0.44556 0.43388 0.0
C348 C 0.83813 0.46359 0.47376 0.0
C349 C 0.87987 0.51249 0.48716 0.0
C350 C 0.92291 0.54371 0.4608 0.0
H351 H 0.88162 0.36413 0.35894 0.0
C352 C 0.84456 0.36222 0.34856 0.0
H353 H 0.80151 0.40366 0.3429 0.0
H354 H 0.04616 0.60898 0.3319 0.0
H355 H 0.04241 0.5796 0.26173 0.0
H356 H 0.96647 0.49424 0.23779 0.0
H357 H 0.89511 0.437 0.28527 0.0
C358 C 0.83902 0.40554 0.35176 0.0
C359 C 0.88363 0.45798 0.36603 0.0
C360 C 0.92589 0.4909 0.33836 0.0
C361 C 0.96889 0.54089 0.35202 0.0
C362 C 0.01141 0.57161 0.32373 0.0
C363 C 0.01007 0.555 0.28298 0.0
C364 C 0.96747 0.50689 0.26955 0.0
C365 C 0.92637 0.47468 0.29699 0.0
H366 H 0.38457 0.05042 0.70676 0.0
C367 C 0.42833 0.07185 0.70612 0.0
H368 H 0.49956 0.06747 0.70878 0.0
H369 H 0.46353 0.86263 0.77908 0.0
H370 H 0.50077 0.9183 0.84053 0.0
H371 H 0.50526 0.00536 0.84471 0.0
H372 H 0.47267 0.03734 0.78746 0.0
C373 C 0.45576 0.0455 0.70909 0.0
C374 C 0.43169 0.98709 0.71354 0.0
C375 C 0.44881 0.96813 0.7478 0.0
C376 C 0.44626 0.91817 0.74548 0.0
C377 C 0.46538 0.90082 0.77937 0.0
C378 C 0.48648 0.93218 0.81476 0.0
C379 C 0.489 0.9812 0.81711 0.0
C380 C 0.47048 0.99921 0.78408 0.0
H381 H 0.5212 0.89433 0.69766 0.0
C382 C 0.48736 0.85452 0.69233 0.0
H383 H 0.40289 0.80367 0.69548 0.0
H384 H 0.38847 0.00793 0.64373 0.0
H385 H 0.34337 0.94761 0.58657 0.0
H386 H 0.3309 0.85741 0.58657 0.0
H387 H 0.36816 0.82847 0.64187 0.0
C388 C 0.43681 0.84344 0.70063 0.0
C389 C 0.42561 0.88705 0.70925 0.0
C390 C 0.40038 0.90186 0.67813 0.0
C391 C 0.40478 0.95286 0.67951 0.0
C392 C 0.38469 0.96908 0.64546 0.0
C393 C 0.35847 0.9348 0.61236 0.0
C394 C 0.35191 0.88409 0.61211 0.0
C395 C 0.37337 0.86793 0.64413 0.0
H396 H 0.69298 0.68686 0.61222 0.0
C397 C 0.65601 0.68817 0.6082 0.0
H398 H 0.57206 0.64346 0.59728 0.0
H399 H 0.55337 0.42555 0.54894 0.0
H400 H 0.56453 0.46139 0.47873 0.0
H401 H 0.59335 0.55612 0.46693 0.0
H402 H 0.61194 0.61583 0.52536 0.0
C403 C 0.60938 0.64279 0.60112 0.0
C404 C 0.60347 0.58945 0.60769 0.0
C405 C 0.5926 0.55515 0.57344 0.0
C406 C 0.57505 0.50036 0.58027 0.0
C407 C 0.56549 0.46719 0.54544 0.0
C408 C 0.57204 0.48733 0.50503 0.0
C409 C 0.58831 0.54069 0.49838 0.0
C410 C 0.59861 0.57444 0.53209 0.0
H411 H 0.46625 0.40737 0.60449 0.0
C412 C 0.48767 0.38974 0.61962 0.0
H413 H 0.5619 0.40518 0.64583 0.0
H414 H 0.62555 0.64546 0.68112 0.0
H415 H 0.6172 0.61029 0.75061 0.0
H416 H 0.58361 0.51496 0.76232 0.0
H417 H 0.55791 0.45402 0.70386 0.0
C418 C 0.54011 0.42114 0.62897 0.0
C419 C 0.56697 0.47976 0.62144 0.0
C420 C 0.58098 0.51484 0.65571 0.0
C421 C 0.59971 0.56985 0.64891 0.0
C422 C 0.61208 0.60357 0.68396 0.0
C423 C 0.60732 0.58389 0.72428 0.0
C424 C 0.58852 0.53017 0.73084 0.0
C425 C 0.57441 0.49574 0.69711 0.0
H426 H 0.18132 0.56055 -0.00045 0.0
C427 C 0.1541 0.52164 0.9865 0.0
H428 H 0.07513 0.46866 0.96493 0.0
H429 H 0.95276 0.56404 0.05687 0.0
H430 H 0.9407 0.4964 0.1072 0.0
H431 H 0.98991 0.4475 0.10032 0.0
H432 H 0.05453 0.46868 0.04472 0.0
C433 C 0.10325 0.50848 0.97602 0.0
C434 C 0.07977 0.54323 0.98325 0.0
C435 C 0.0415 0.52981 0.01553 0.0
C436 C 0.01125 0.55632 0.01837 0.0
C437 C 0.97525 0.54379 0.05215 0.0
C438 C 0.96818 0.50524 0.0815 0.0
C439 C 0.99624 0.47802 0.07784 0.0
C440 C 0.03279 0.49021 0.04551 0.0
H441 H 0.91046 0.55147 0.97774 0.0
C442 C 0.9308 0.59404 0.98364 0.0
H443 H 1.00548 0.66369 0.99556 0.0
H444 H 0.15229 0.5808 0.91936 0.0
H445 H 0.16646 0.65032 0.86998 0.0
H446 H 0.11309 0.69537 0.87404 0.0
H447 H 0.04511 0.67109 0.92741 0.0
C448 C 0.98469 0.6212 0.98936 0.0
C449 C 0.01804 0.59501 0.98798 0.0
C450 C 0.05828 0.61029 0.957 0.0
C451 C 0.08916 0.58435 0.95463 0.0
C452 C 0.12796 0.59938 0.92268 0.0
C453 C 0.13648 0.63921 0.89413 0.0
C454 C 0.10644 0.66459 0.89643 0.0
C455 C 0.06763 0.65036 0.92731 0.0
H456 H 0.38014 0.82926 0.30545 0.0
C457 C 0.36957 0.85845 0.29454 0.0
H458 H 0.39878 0.93386 0.26605 0.0
H459 H 0.62191 0.96469 0.35188 0.0
H460 H 0.57822 0.95903 0.41717 0.0
H461 H 0.48327 0.93768 0.4187 0.0
H462 H 0.43102 0.91802 0.35586 0.0
C463 C 0.4081 0.90406 0.27748 0.0
C464 C 0.46534 0.9168 0.27639 0.0
C465 C 0.49557 0.92812 0.31389 0.0
C466 C 0.5511 0.94346 0.31264 0.0
C467 C 0.58003 0.95396 0.35064 0.0
C468 C 0.55542 0.95094 0.3885 0.0
C469 C 0.50199 0.93842 0.38947 0.0
C470 C 0.47221 0.92694 0.35288 0.0
H471 H 0.63508 0.04517 0.2409 0.0
C472 C 0.66016 0.03314 0.258 0.0
H473 H 0.66079 0.97094 0.29148 0.0
H474 H 0.41839 0.89391 0.19938 0.0
H475 H 0.46278 0.90047 0.13358 0.0
H476 H 0.55957 0.92914 0.13144 0.0
H477 H 0.61266 0.95137 0.19525 0.0
C478 C 0.6373 0.98286 0.27229 0.0
C479 C 0.57717 0.95075 0.27376 0.0
C480 C 0.54638 0.93681 0.23653 0.0
C481 C 0.49047 0.91995 0.23783 0.0
C482 C 0.46099 0.90705 0.20008 0.0
C483 C 0.48594 0.91056 0.16217 0.0
C484 C 0.54047 0.92675 0.16096 0.0
C485 C 0.57053 0.93971 0.19764 0.0
H486 H 0.40377 0.26947 0.79547 0.0
C487 C 0.37021 0.25398 0.7738 0.0
H488 H 0.29131 0.23805 0.76192 0.0
H489 H 0.31103 0.31354 0.95889 0.0
H490 H 0.33127 0.24418 0.97815 0.0
H491 H 0.345 0.19218 0.92411 0.0
H492 H 0.33959 0.2098 0.85072 0.0
C493 C 0.32457 0.25378 0.78401 0.0
C494 C 0.32177 0.28705 0.81798 0.0
C495 C 0.32362 0.27506 0.86066 0.0
C496 C 0.31452 0.30426 0.89191 0.0
C497 C 0.31741 0.29227 0.93422 0.0
C498 C 0.3289 0.2526 0.94556 0.0
C499 C 0.3367 0.22338 0.91512 0.0
C500 C 0.33372 0.23403 0.87309 0.0
H501 H 0.20045 0.31544 0.88567 0.0
C502 C 0.22341 0.34405 0.90992 0.0
H503 H 0.30144 0.39031 0.93604 0.0
H504 H 0.32727 0.32856 0.7399 0.0
H505 H 0.30903 0.39911 0.72144 0.0
H506 H 0.28488 0.4436 0.77526 0.0
H507 H 0.2807 0.41889 0.848 0.0
C508 C 0.2766 0.36279 0.91192 0.0
C509 C 0.30064 0.34312 0.88048 0.0
C510 C 0.30147 0.35687 0.83794 0.0
C511 C 0.31344 0.32986 0.80683 0.0
C512 C 0.31647 0.34633 0.76476 0.0
C513 C 0.30633 0.38698 0.7537 0.0
C514 C 0.29271 0.41199 0.78397 0.0
C515 C 0.29015 0.39721 0.8256 0.0
H516 H 0.88698 0.24541 0.24274 0.0
C517 C 0.90396 0.22931 0.26485 0.0
H518 H 0.97116 0.22379 0.28368 0.0
H519 H 0.07489 0.2402 0.11061 0.0
H520 H 0.05408 0.15308 0.13533 0.0
H521 H 1.0017 0.11516 0.19958 0.0
H522 H 0.97007 0.1641 0.23945 0.0
C523 C 0.95525 0.24038 0.26099 0.0
C524 C 0.98762 0.26477 0.22252 0.0
C525 C 1.00611 0.23541 0.19948 0.0
C526 C 0.03618 0.25711 0.16227 0.0
C527 C 0.05289 0.22631 0.13948 0.0
C528 C 0.04089 0.17593 0.15316 0.0
C529 C 0.01143 0.1546 0.18931 0.0
C530 C 0.99384 0.18355 0.21214 0.0
H531 H 0.15244 0.34656 0.12731 0.0
C532 C 0.12764 0.34597 0.10138 0.0
H533 H 0.05089 0.33137 0.08189 0.0
H534 H 0.96595 0.33528 0.262 0.0
H535 H 0.98504 0.42149 0.23625 0.0
H536 H 0.03152 0.45651 0.16931 0.0
H537 H 0.0594 0.40512 0.12764 0.0
C538 C 0.07487 0.32878 0.10717 0.0
C539 C 0.04722 0.30785 0.14777 0.0
C540 C 0.02824 0.33693 0.17042 0.0
C541 C 0.99985 0.3161 0.20846 0.0
C542 C 0.98529 0.34793 0.232 0.0
C543 C 0.99642 0.39782 0.21771 0.0
C544 C 0.0225 0.41743 0.17997 0.0
C545 C 0.03822 0.38749 0.15639 0.0
H546 H 0.73385 0.96644 0.60047 0.0
C547 C 0.69419 0.93388 0.60903 0.0
H548 H 0.6109 0.89983 0.59744 0.0
H549 H 0.70325 0.13589 0.50779 0.0
H550 H 0.67168 0.15361 0.57249 0.0
H551 H 0.63229 0.08505 0.62766 0.0
H552 H 0.62586 0.99867 0.61911 0.0
C553 C 0.6513 0.93106 0.58967 0.0
C554 C 0.66081 0.96678 0.55278 0.0
C555 C 0.66141 0.01566 0.55704 0.0
C556 C 0.6828 0.05481 0.52457 0.0
C557 C 0.68676 0.10472 0.53113 0.0
C558 C 0.66882 0.11532 0.56811 0.0
C559 C 0.6466 0.07668 0.5992 0.0
C560 C 0.6431 0.02741 0.59398 0.0
H561 H 0.67932 0.10435 0.43177 0.0
C562 C 0.71952 0.10983 0.42908 0.0
H563 H 0.77718 0.09271 0.4537 0.0
H564 H 0.66081 0.8754 0.53249 0.0
H565 H 0.68801 0.85598 0.46671 0.0
H566 H 0.71706 0.92027 0.40841 0.0
H567 H 0.72157 0.00552 0.41632 0.0
C568 C 0.73712 0.08736 0.45745 0.0
C569 C 0.70151 0.044 0.4872 0.0
C570 C 0.69509 0.99271 0.48129 0.0
C571 C 0.67621 0.95474 0.51433 0.0
C572 C 0.67456 0.90563 0.50839 0.0
C573 C 0.6899 0.89388 0.47072 0.0
C574 C 0.70624 0.93005 0.43791 0.0
C575 C 0.70886 0.9789 0.44293 0.0
H576 H 0.59367 0.71557 0.78221 0.0
C577 C 0.63176 0.75101 0.77483 0.0
H578 H 0.71373 0.79864 0.79059 0.0
H579 H 0.66761 0.68758 0.97219 0.0
H580 H 0.60205 0.71581 0.98405 0.0
H581 H 0.57151 0.75097 0.92631 0.0
H582 H 0.60587 0.75758 0.85613 0.0
C583 C 0.67526 0.7643 0.79903 0.0
C584 C 0.6782 0.72854 0.83135 0.0
C585 C 0.65764 0.72482 0.87198 0.0
C586 C 0.67569 0.70495 0.90544 0.0
C587 C 0.65528 0.70244 0.94583 0.0
C588 C 0.61771 0.7185 0.95301 0.0
C589 C 0.60049 0.73829 0.92046 0.0
C590 C 0.62047 0.74194 0.88038 0.0
H591 H 0.81623 0.75277 0.91829 0.0
C592 C 0.79737 0.71885 0.93945 0.0
H593 H 0.72356 0.65048 0.95575 0.0
H594 H 0.71184 0.71504 0.75555 0.0
H595 H 0.76987 0.67807 0.74241 0.0
H596 H 0.80426 0.64724 0.80051 0.0
H597 H 0.78014 0.65232 0.87196 0.0
C598 C 0.74488 0.6831 0.93395 0.0
C599 C 0.71514 0.69015 0.89823 0.0
C600 C 0.73016 0.68748 0.85671 0.0
C601 C 0.7111 0.70605 0.82328 0.0
C602 C 0.72621 0.70243 0.78209 0.0
C603 C 0.7592 0.68108 0.77413 0.0
C604 C 0.77849 0.66365 0.80683 0.0
C605 C 0.7645 0.66697 0.8477 0.0
H606 H 0.08987 0.81483 0.25627 0.0
C607 C 0.10692 0.79387 0.2729 0.0
H608 H 0.09702 0.71794 0.28619 0.0
H609 H 0.86977 0.70551 0.21203 0.0
H610 H 0.85945 0.72893 0.28269 0.0
H611 H 0.92669 0.7434 0.33702 0.0
H612 H 1.00514 0.73518 0.32092 0.0
C613 C 0.08017 0.74045 0.27202 0.0
C614 C 0.03105 0.71315 0.24517 0.0
C615 C 0.98432 0.71549 0.25546 0.0
C616 C 0.9451 0.70628 0.22432 0.0
C617 C 0.90045 0.71191 0.23473 0.0
C618 C 0.89407 0.72515 0.27509 0.0
C619 C 0.93197 0.73334 0.3057 0.0
C620 C 0.97679 0.72875 0.29612 0.0
H621 H 0.85355 0.62601 0.15044 0.0
C622 C 0.87572 0.66319 0.13321 0.0
H623 H 0.9473 0.73766 0.12961 0.0
H624 H 0.11117 0.69727 0.21698 0.0
H625 H 0.11651 0.66446 0.14868 0.0
H626 H 0.04626 0.6442 0.09578 0.0
H627 H 0.96991 0.65601 0.11092 0.0
C628 C 0.92357 0.70159 0.14778 0.0
C629 C 0.95218 0.69345 0.18335 0.0
C630 C 0.99472 0.6835 0.17479 0.0
C631 C 0.03463 0.69403 0.20558 0.0
C632 C 0.07894 0.68785 0.19513 0.0
C633 C 0.08262 0.66953 0.156 0.0
C634 C 0.04302 0.65811 0.12619 0.0
C635 C 0.99963 0.66527 0.13519 0.0
H636 H 0.29087 0.10438 0.57421 0.0
C637 C 0.32978 0.1237 0.58991 0.0
H638 H 0.40276 0.12327 0.59723 0.0
H639 H 0.20828 0.8924 0.51206 0.0
H640 H 0.16815 0.873 0.58071 0.0
H641 H 0.20984 0.93738 0.63792 0.0
H642 H 0.2916 0.02231 0.62649 0.0
C643 C 0.36252 0.10378 0.58391 0.0
C644 C 0.34582 0.05914 0.55335 0.0
C645 C 0.29948 0.00861 0.56074 0.0
C646 C 0.27672 0.97038 0.52806 0.0
C647 C 0.2284 0.92204 0.53588 0.0
C648 C 0.20477 0.91049 0.57518 0.0
C649 C 0.22813 0.94682 0.60738 0.0
C650 C 0.27477 0.99549 0.60036 0.0
H651 H 0.27077 0.87779 0.46919 0.0
C652 C 0.26305 0.89888 0.44446 0.0
H653 H 0.26716 0.97031 0.42539 0.0
H654 H 0.43473 0.15055 0.52841 0.0
H655 H 0.47909 0.16789 0.46135 0.0
H656 H 0.44667 0.098 0.40784 0.0
H657 H 0.36663 0.01193 0.41978 0.0
C658 C 0.27363 0.94915 0.45079 0.0
C659 C 0.30182 0.98184 0.4884 0.0
C660 C 0.35126 0.03009 0.48254 0.0
C661 C 0.37237 0.06919 0.51448 0.0
C662 C 0.41858 0.11891 0.50588 0.0
C663 C 0.44445 0.12924 0.46757 0.0
C664 C 0.42578 0.09007 0.43728 0.0
C665 C 0.37969 0.04102 0.44447 0.0
loop_
_geom_bond_atom_site_label_1
_geom_bond_atom_site_label_2
_geom_bond_distance
_geom_bond_site_symmetry_2
_ccdc_geom_bond_type
O0 Mn1 2.163 1_554 S
O0 C14 1.244 . S
Mn1 O0 2.163 1_556 S
Mn1 O4 2.160 . S
Mn1 O5 2.221 . S
Mn1 O7 2.163 1_556 S
Mn1 O9 2.160 . S
Mn1 O19 2.221 1_556 S
O2 Mn3 2.087 . S
O2 C14 1.256 . S
Mn3 O2 2.087 . S
Mn3 O10 2.089 1_554 S
Mn3 O19 2.290 . S
Mn3 O20 2.251 . S
O4 Mn1 2.160 . S
O4 C15 1.239 . S
O5 Mn1 2.221 . S
O5 Mn6 2.290 . S
O5 C16 1.278 . S
Mn6 O5 2.290 . S
Mn6 O8 2.089 . S
Mn6 O11 2.251 . S
Mn6 O12 2.087 1_556 S
O7 Mn1 2.163 1_554 S
O7 C17 1.244 . S
O8 Mn6 2.089 . S
O8 C15 1.256 . S
O9 Mn1 2.160 . S
O9 C18 1.239 . S
O10 Mn3 2.089 1_556 S
O10 C18 1.256 . S
O11 Mn6 2.251 . S
O11 C16 1.241 . S
O12 Mn6 2.087 1_554 S
O12 C17 1.256 . S
C13 O19 1.278 . S
C13 O20 1.241 . S
C14 O0 1.244 . S
C14 O2 1.256 . S
C15 O4 1.239 . S
C15 O8 1.256 . S
C16 O5 1.278 . S
C16 O11 1.241 . S
C17 O7 1.244 . S
C17 O12 1.256 . S
C18 O9 1.239 . S
C18 O10 1.256 . S
O19 Mn1 2.221 1_554 S
O19 Mn3 2.290 . S
O19 C13 1.278 . S
O20 Mn3 2.251 . S
O20 C13 1.241 . S
O21 Mn22 2.163 . S
O21 C35 1.244 . S
Mn22 O21 2.163 . S
Mn22 O25 2.160 . S
Mn22 O26 2.221 . S
Mn22 O28 2.163 . S
Mn22 O30 2.160 . S
Mn22 O40 2.221 . S
O23 Mn24 2.087 . S
O23 C35 1.256 . S
Mn24 O23 2.087 . S
Mn24 O31 2.089 . S
Mn24 O40 2.290 . S
Mn24 O41 2.251 . S
O25 Mn22 2.160 . S
O25 C36 1.239 . S
O26 Mn22 2.221 . S
O26 Mn27 2.290 . S
O26 C37 1.278 . S
Mn27 O26 2.290 . S
Mn27 O29 2.089 . S
Mn27 O32 2.251 . S
Mn27 O33 2.087 . S
O28 Mn22 2.163 . S
O28 C38 1.244 . S
O29 Mn27 2.089 . S
O29 C36 1.256 . S
O30 Mn22 2.160 . S
O30 C39 1.239 . S
O31 Mn24 2.089 . S
O31 C39 1.256 . S
O32 Mn27 2.251 . S
O32 C37 1.241 . S
O33 Mn27 2.087 . S
O33 C38 1.256 . S
C34 O40 1.278 . S
C34 O41 1.241 . S
C35 O21 1.244 . S
C35 O23 1.256 . S
C36 O25 1.239 . S
C36 O29 1.256 . S
C37 O26 1.278 . S
C37 O32 1.241 . S
C38 O28 1.244 . S
C38 O33 1.256 . S
C39 O30 1.239 . S
C39 O31 1.256 . S
O40 Mn22 2.221 . S
O40 Mn24 2.290 . S
O40 C34 1.278 . S
O41 Mn24 2.251 . S
O41 C34 1.241 . S
O42 Mn43 2.163 . S
O42 C56 1.244 . S
Mn43 O42 2.163 . S
Mn43 O46 2.160 . S
Mn43 O47 2.221 . S
Mn43 O49 2.163 . S
Mn43 O51 2.160 . S
Mn43 O61 2.221 . S
O44 Mn45 2.087 . S
O44 C56 1.256 . S
Mn45 O44 2.087 . S
Mn45 O52 2.089 . S
Mn45 O61 2.290 . S
Mn45 O62 2.251 . S
O46 Mn43 2.160 . S
O46 C57 1.239 . S
O47 Mn43 2.221 . S
O47 Mn48 2.290 . S
O47 C58 1.278 . S
Mn48 O47 2.290 . S
Mn48 O50 2.089 . S
Mn48 O53 2.251 . S
Mn48 O54 2.087 . S
O49 Mn43 2.163 . S
O49 C59 1.244 . S
O50 Mn48 2.089 . S
O50 C57 1.256 . S
O51 Mn43 2.160 . S
O51 C60 1.239 . S
O52 Mn45 2.089 . S
O52 C60 1.256 . S
O53 Mn48 2.251 . S
O53 C58 1.241 . S
O54 Mn48 2.087 . S
O54 C59 1.256 . S
C55 O61 1.278 . S
C55 O62 1.241 . S
C56 O42 1.244 . S
C56 O44 1.256 . S
C57 O46 1.239 . S
C57 O50 1.256 . S
C58 O47 1.278 . S
C58 O53 1.241 . S
C59 O49 1.244 . S
C59 O54 1.256 . S
C60 O51 1.239 . S
C60 O52 1.256 . S
O61 Mn43 2.221 . S
O61 Mn45 2.290 . S
O61 C55 1.278 . S
O62 Mn45 2.251 . S
O62 C55 1.241 . S
O63 Mn64 2.163 1_554 S
O63 C77 1.244 . S
Mn64 O63 2.163 1_556 S
Mn64 O67 2.160 . S
Mn64 O68 2.221 . S
Mn64 O70 2.163 1_556 S
Mn64 O72 2.160 . S
Mn64 O82 2.221 1_556 S
O65 Mn66 2.087 . S
O65 C77 1.256 . S
Mn66 O65 2.087 . S
Mn66 O73 2.089 1_554 S
Mn66 O82 2.290 . S
Mn66 O83 2.251 . S
O67 Mn64 2.160 . S
O67 C78 1.239 . S
O68 Mn64 2.221 . S
O68 Mn69 2.290 . S
O68 C79 1.278 . S
Mn69 O68 2.290 . S
Mn69 O71 2.089 . S
Mn69 O74 2.251 . S
Mn69 O75 2.087 1_556 S
O70 Mn64 2.163 1_554 S
O70 C80 1.244 . S
O71 Mn69 2.089 . S
O71 C78 1.256 . S
O72 Mn64 2.160 . S
O72 C81 1.239 . S
O73 Mn66 2.089 1_556 S
O73 C81 1.256 . S
O74 Mn69 2.251 . S
O74 C79 1.241 . S
O75 Mn69 2.087 1_554 S
O75 C80 1.256 . S
C76 O82 1.278 . S
C76 O83 1.241 . S
C77 O63 1.244 . S
C77 O65 1.256 . S
C78 O67 1.239 . S
C78 O71 1.256 . S
C79 O68 1.278 . S
C79 O74 1.241 . S
C80 O70 1.244 . S
C80 O75 1.256 . S
C81 O72 1.239 . S
C81 O73 1.256 . S
O82 Mn64 2.221 1_554 S
O82 Mn66 2.290 . S
O82 C76 1.278 . S
O83 Mn66 2.251 . S
O83 C76 1.241 . S
O84 Mn85 2.163 . S
O84 C98 1.244 . S
Mn85 O84 2.163 . S
Mn85 O88 2.160 . S
Mn85 O89 2.221 . S
Mn85 O91 2.163 . S
Mn85 O93 2.160 . S
Mn85 O103 2.221 . S
O86 Mn87 2.087 . S
O86 C98 1.256 . S
Mn87 O86 2.087 . S
Mn87 O94 2.089 . S
Mn87 O103 2.290 . S
Mn87 O104 2.251 . S
O88 Mn85 2.160 . S
O88 C99 1.239 . S
O89 Mn85 2.221 . S
O89 Mn90 2.290 . S
O89 C100 1.278 . S
Mn90 O89 2.290 . S
Mn90 O92 2.089 . S
Mn90 O95 2.251 . S
Mn90 O96 2.087 . S
O91 Mn85 2.163 . S
O91 C101 1.244 . S
O92 Mn90 2.089 . S
O92 C99 1.256 . S
O93 Mn85 2.160 . S
O93 C102 1.239 . S
O94 Mn87 2.089 . S
O94 C102 1.256 . S
O95 Mn90 2.251 . S
O95 C100 1.241 . S
O96 Mn90 2.087 . S
O96 C101 1.256 . S
C97 O103 1.278 . S
C97 O104 1.241 . S
C98 O84 1.244 . S
C98 O86 1.256 . S
C99 O88 1.239 . S
C99 O92 1.256 . S
C100 O89 1.278 . S
C100 O95 1.241 . S
C101 O91 1.244 . S
C101 O96 1.256 . S
C102 O93 1.239 . S
C102 O94 1.256 . S
O103 Mn85 2.221 . S
O103 Mn87 2.290 . S
O103 C97 1.278 . S
O104 Mn87 2.251 . S
O104 C97 1.241 . S
O105 Mn106 2.163 . S
O105 C119 1.244 . S
Mn106 O105 2.163 . S
Mn106 O109 2.160 . S
Mn106 O110 2.221 . S
Mn106 O112 2.163 . S
Mn106 O114 2.160 . S
Mn106 O124 2.221 . S
O107 Mn108 2.087 . S
O107 C119 1.256 . S
Mn108 O107 2.087 . S
Mn108 O115 2.089 . S
Mn108 O124 2.290 . S
Mn108 O125 2.251 . S
O109 Mn106 2.160 . S
O109 C120 1.239 . S
O110 Mn106 2.221 . S
O110 Mn111 2.290 . S
O110 C121 1.278 . S
Mn111 O110 2.290 . S
Mn111 O113 2.089 . S
Mn111 O116 2.251 . S
Mn111 O117 2.087 . S
O112 Mn106 2.163 . S
O112 C122 1.244 . S
O113 Mn111 2.089 . S
O113 C120 1.256 . S
O114 Mn106 2.160 . S
O114 C123 1.239 . S
O115 Mn108 2.089 . S
O115 C123 1.256 . S
O116 Mn111 2.251 . S
O116 C121 1.241 . S
O117 Mn111 2.087 . S
O117 C122 1.256 . S
C118 O124 1.278 . S
C118 O125 1.241 . S
C119 O105 1.244 . S
C119 O107 1.256 . S
C120 O109 1.239 . S
C120 O113 1.256 . S
C121 O110 1.278 . S
C121 O116 1.241 . S
C122 O112 1.244 . S
C122 O117 1.256 . S
C123 O114 1.239 . S
C123 O115 1.256 . S
O124 Mn106 2.221 . S
O124 Mn108 2.290 . S
O124 C118 1.278 . S
O125 Mn108 2.251 . S
O125 C118 1.241 . S
H126 C127 0.951 . S
C127 H126 0.951 . S
C127 C133 1.265 . S
H128 C133 0.950 . S
H129 C137 0.949 . S
H130 C138 0.950 . S
H131 C139 0.951 . S
H132 C140 0.951 . S
C133 C127 1.265 . S
C133 H128 0.950 . S
C133 C134 1.478 . S
C134 C133 1.478 . S
C134 C135 1.397 . S
C134 C151 1.394 . S
C135 C134 1.397 . S
C135 C136 1.438 . S
C135 C140 1.429 . S
C136 C135 1.438 . S
C136 C137 1.428 . S
C136 C149 1.394 . S
C137 H129 0.949 . S
C137 C136 1.428 . S
C137 C138 1.345 . S
C138 H130 0.950 . S
C138 C137 1.345 . S
C138 C139 1.424 . S
C139 H131 0.951 . S
C139 C138 1.424 . S
C139 C140 1.347 . S
C140 H132 0.951 . S
C140 C135 1.429 . S
C140 C139 1.347 . S
H141 C142 0.951 . S
C142 H141 0.951 . S
C142 C148 1.265 . S
H143 C148 0.950 . S
H144 C152 0.949 . S
H145 C153 0.950 . S
H146 C154 0.951 . S
H147 C155 0.951 . S
C148 C142 1.265 . S
C148 H143 0.950 . S
C148 C149 1.478 . S
C149 C136 1.394 . S
C149 C148 1.478 . S
C149 C150 1.397 . S
C150 C149 1.397 . S
C150 C151 1.438 . S
C150 C155 1.429 . S
C151 C134 1.394 . S
C151 C150 1.438 . S
C151 C152 1.428 . S
C152 H144 0.949 . S
C152 C151 1.428 . S
C152 C153 1.345 . S
C153 H145 0.950 . S
C153 C152 1.345 . S
C153 C154 1.424 . S
C154 H146 0.951 . S
C154 C153 1.424 . S
C154 C155 1.347 . S
C155 H147 0.951 . S
C155 C150 1.429 . S
C155 C154 1.347 . S
H156 C157 0.951 . S
C157 H156 0.951 . S
C157 C163 1.265 . S
H158 C163 0.950 . S
H159 C167 0.949 . S
H160 C168 0.950 . S
H161 C169 0.951 . S
H162 C170 0.951 . S
C163 C157 1.265 . S
C163 H158 0.950 . S
C163 C164 1.478 . S
C164 C163 1.478 . S
C164 C165 1.397 . S
C164 C181 1.394 . S
C165 C164 1.397 . S
C165 C166 1.438 . S
C165 C170 1.429 . S
C166 C165 1.438 . S
C166 C167 1.428 . S
C166 C179 1.394 . S
C167 H159 0.949 . S
C167 C166 1.428 . S
C167 C168 1.345 . S
C168 H160 0.950 . S
C168 C167 1.345 . S
C168 C169 1.424 . S
C169 H161 0.951 . S
C169 C168 1.424 . S
C169 C170 1.347 . S
C170 H162 0.951 . S
C170 C165 1.429 . S
C170 C169 1.347 . S
H171 C172 0.951 . S
C172 H171 0.951 . S
C172 C178 1.265 . S
H173 C178 0.950 . S
H174 C182 0.949 . S
H175 C183 0.950 . S
H176 C184 0.951 . S
H177 C185 0.951 . S
C178 C172 1.265 . S
C178 H173 0.950 . S
C178 C179 1.478 . S
C179 C166 1.394 . S
C179 C178 1.478 . S
C179 C180 1.397 . S
C180 C179 1.397 . S
C180 C181 1.438 . S
C180 C185 1.429 . S
C181 C164 1.394 . S
C181 C180 1.438 . S
C181 C182 1.428 . S
C182 H174 0.949 . S
C182 C181 1.428 . S
C182 C183 1.345 . S
C183 H175 0.950 . S
C183 C182 1.345 . S
C183 C184 1.424 . S
C184 H176 0.951 . S
C184 C183 1.424 . S
C184 C185 1.347 . S
C185 H177 0.951 . S
C185 C180 1.429 . S
C185 C184 1.347 . S
H186 C187 0.951 . S
C187 H186 0.951 . S
C187 C193 1.265 . S
H188 C193 0.950 . S
H189 C197 0.949 . S
H190 C198 0.950 . S
H191 C199 0.951 . S
H192 C200 0.951 . S
C193 C187 1.265 . S
C193 H188 0.950 . S
C193 C194 1.478 . S
C194 C193 1.478 . S
C194 C195 1.397 . S
C194 C211 1.394 . S
C195 C194 1.397 . S
C195 C196 1.438 . S
C195 C200 1.429 . S
C196 C195 1.438 . S
C196 C197 1.428 . S
C196 C209 1.394 . S
C197 H189 0.949 . S
C197 C196 1.428 . S
C197 C198 1.345 . S
C198 H190 0.950 . S
C198 C197 1.345 . S
C198 C199 1.424 . S
C199 H191 0.951 . S
C199 C198 1.424 . S
C199 C200 1.347 . S
C200 H192 0.951 . S
C200 C195 1.429 . S
C200 C199 1.347 . S
H201 C202 0.951 . S
C202 H201 0.951 . S
C202 C208 1.265 . S
H203 C208 0.950 . S
H204 C212 0.949 . S
H205 C213 0.950 . S
H206 C214 0.951 . S
H207 C215 0.951 . S
C208 C202 1.265 . S
C208 H203 0.950 . S
C208 C209 1.478 . S
C209 C196 1.394 . S
C209 C208 1.478 . S
C209 C210 1.397 . S
C210 C209 1.397 . S
C210 C211 1.438 . S
C210 C215 1.429 . S
C211 C194 1.394 . S
C211 C210 1.438 . S
C211 C212 1.428 . S
C212 H204 0.949 . S
C212 C211 1.428 . S
C212 C213 1.345 . S
C213 H205 0.950 . S
C213 C212 1.345 . S
C213 C214 1.424 . S
C214 H206 0.951 . S
C214 C213 1.424 . S
C214 C215 1.347 . S
C215 H207 0.951 . S
C215 C210 1.429 . S
C215 C214 1.347 . S
H216 C217 0.951 . S
C217 H216 0.951 . S
C217 C223 1.265 . S
H218 C223 0.950 . S
H219 C227 0.949 . S
H220 C228 0.950 . S
H221 C229 0.951 . S
H222 C230 0.951 . S
C223 C217 1.265 . S
C223 H218 0.950 . S
C223 C224 1.478 . S
C224 C223 1.478 . S
C224 C225 1.397 . S
C224 C241 1.394 . S
C225 C224 1.397 . S
C225 C226 1.438 . S
C225 C230 1.429 . S
C226 C225 1.438 . S
C226 C227 1.428 . S
C226 C239 1.394 . S
C227 H219 0.949 . S
C227 C226 1.428 . S
C227 C228 1.345 . S
C228 H220 0.950 . S
C228 C227 1.345 . S
C228 C229 1.424 . S
C229 H221 0.951 . S
C229 C228 1.424 . S
C229 C230 1.347 . S
C230 H222 0.951 . S
C230 C225 1.429 . S
C230 C229 1.347 . S
H231 C232 0.951 . S
C232 H231 0.951 . S
C232 C238 1.265 . S
H233 C238 0.950 . S
H234 C242 0.949 . S
H235 C243 0.950 . S
H236 C244 0.951 . S
H237 C245 0.951 . S
C238 C232 1.265 . S
C238 H233 0.950 . S
C238 C239 1.478 . S
C239 C226 1.394 . S
C239 C238 1.478 . S
C239 C240 1.397 . S
C240 C239 1.397 . S
C240 C241 1.438 . S
C240 C245 1.429 . S
C241 C224 1.394 . S
C241 C240 1.438 . S
C241 C242 1.428 . S
C242 H234 0.949 . S
C242 C241 1.428 . S
C242 C243 1.345 . S
C243 H235 0.950 . S
C243 C242 1.345 . S
C243 C244 1.424 . S
C244 H236 0.951 . S
C244 C243 1.424 . S
C244 C245 1.347 . S
C245 H237 0.951 . S
C245 C240 1.429 . S
C245 C244 1.347 . S
H246 C247 0.951 . S
C247 H246 0.951 . S
C247 C253 1.265 . S
H248 C253 0.950 . S
H249 C257 0.949 . S
H250 C258 0.950 . S
H251 C259 0.951 . S
H252 C260 0.951 . S
C253 C247 1.265 . S
C253 H248 0.950 . S
C253 C254 1.478 . S
C254 C253 1.478 . S
C254 C255 1.397 . S
C254 C271 1.394 . S
C255 C254 1.397 . S
C255 C256 1.438 . S
C255 C260 1.429 . S
C256 C255 1.438 . S
C256 C257 1.428 . S
C256 C269 1.394 . S
C257 H249 0.949 . S
C257 C256 1.428 . S
C257 C258 1.345 . S
C258 H250 0.950 . S
C258 C257 1.345 . S
C258 C259 1.424 . S
C259 H251 0.951 . S
C259 C258 1.424 . S
C259 C260 1.347 . S
C260 H252 0.951 . S
C260 C255 1.429 . S
C260 C259 1.347 . S
H261 C262 0.951 . S
C262 H261 0.951 . S
C262 C268 1.265 . S
H263 C268 0.950 . S
H264 C272 0.949 . S
H265 C273 0.950 . S
H266 C274 0.951 . S
H267 C275 0.951 . S
C268 C262 1.265 . S
C268 H263 0.950 . S
C268 C269 1.478 . S
C269 C256 1.394 . S
C269 C268 1.478 . S
C269 C270 1.397 . S
C270 C269 1.397 . S
C270 C271 1.438 . S
C270 C275 1.429 . S
C271 C254 1.394 . S
C271 C270 1.438 . S
C271 C272 1.428 . S
C272 H264 0.949 . S
C272 C271 1.428 . S
C272 C273 1.345 . S
C273 H265 0.950 . S
C273 C272 1.345 . S
C273 C274 1.424 . S
C274 H266 0.951 . S
C274 C273 1.424 . S
C274 C275 1.347 . S
C275 H267 0.951 . S
C275 C270 1.429 . S
C275 C274 1.347 . S
H276 C277 0.951 . S
C277 H276 0.951 . S
C277 C283 1.265 . S
H278 C283 0.950 . S
H279 C287 0.949 . S
H280 C288 0.950 . S
H281 C289 0.951 . S
H282 C290 0.951 . S
C283 C277 1.265 . S
C283 H278 0.950 . S
C283 C284 1.478 . S
C284 C283 1.478 . S
C284 C285 1.397 . S
C284 C301 1.394 . S
C285 C284 1.397 . S
C285 C286 1.438 . S
C285 C290 1.429 . S
C286 C285 1.438 . S
C286 C287 1.428 . S
C286 C299 1.394 . S
C287 H279 0.949 . S
C287 C286 1.428 . S
C287 C288 1.345 . S
C288 H280 0.950 . S
C288 C287 1.345 . S
C288 C289 1.424 . S
C289 H281 0.951 . S
C289 C288 1.424 . S
C289 C290 1.347 . S
C290 H282 0.951 . S
C290 C285 1.429 . S
C290 C289 1.347 . S
H291 C292 0.951 . S
C292 H291 0.951 . S
C292 C298 1.265 . S
H293 C298 0.950 . S
H294 C302 0.949 . S
H295 C303 0.950 . S
H296 C304 0.951 . S
H297 C305 0.951 . S
C298 C292 1.265 . S
C298 H293 0.950 . S
C298 C299 1.478 . S
C299 C286 1.394 . S
C299 C298 1.478 . S
C299 C300 1.397 . S
C300 C299 1.397 . S
C300 C301 1.438 . S
C300 C305 1.429 . S
C301 C284 1.394 . S
C301 C300 1.438 . S
C301 C302 1.428 . S
C302 H294 0.949 . S
C302 C301 1.428 . S
C302 C303 1.345 . S
C303 H295 0.950 . S
C303 C302 1.345 . S
C303 C304 1.424 . S
C304 H296 0.951 . S
C304 C303 1.424 . S
C304 C305 1.347 . S
C305 H297 0.951 . S
C305 C300 1.429 . S
C305 C304 1.347 . S
H306 C307 0.951 . S
C307 H306 0.951 . S
C307 C313 1.265 . S
H308 C313 0.950 . S
H309 C317 0.949 . S
H310 C318 0.950 . S
H311 C319 0.951 . S
H312 C320 0.951 . S
C313 C307 1.265 . S
C313 H308 0.950 . S
C313 C314 1.478 . S
C314 C313 1.478 . S
C314 C315 1.397 1_554 S
C314 C331 1.394 . S
C315 C314 1.397 1_556 S
C315 C316 1.438 . S
C315 C320 1.429 . S
C316 C315 1.438 . S
C316 C317 1.428 . S
C316 C329 1.394 1_556 S
C317 H309 0.949 . S
C317 C316 1.428 . S
C317 C318 1.345 . S
C318 H310 0.950 . S
C318 C317 1.345 . S
C318 C319 1.424 . S
C319 H311 0.951 . S
C319 C318 1.424 . S
C319 C320 1.347 . S
C320 H312 0.951 . S
C320 C315 1.429 . S
C320 C319 1.347 . S
H321 C322 0.951 . S
C322 H321 0.951 . S
C322 C328 1.265 . S
H323 C328 0.950 . S
H324 C332 0.949 . S
H325 C333 0.950 . S
H326 C334 0.951 . S
H327 C335 0.951 . S
C328 C322 1.265 . S
C328 H323 0.950 . S
C328 C329 1.478 . S
C329 C316 1.394 1_554 S
C329 C328 1.478 . S
C329 C330 1.397 . S
C330 C329 1.397 . S
C330 C331 1.438 . S
C330 C335 1.429 . S
C331 C314 1.394 . S
C331 C330 1.438 . S
C331 C332 1.428 . S
C332 H324 0.949 . S
C332 C331 1.428 . S
C332 C333 1.345 . S
C333 H325 0.950 . S
C333 C332 1.345 . S
C333 C334 1.424 . S
C334 H326 0.951 . S
C334 C333 1.424 . S
C334 C335 1.347 . S
C335 H327 0.951 . S
C335 C330 1.429 . S
C335 C334 1.347 . S
H336 C337 0.951 . S
C337 H336 0.951 . S
C337 C343 1.265 . S
H338 C343 0.950 . S
H339 C347 0.949 . S
H340 C348 0.950 . S
H341 C349 0.951 . S
H342 C350 0.951 . S
C343 C337 1.265 . S
C343 H338 0.950 . S
C343 C344 1.478 . S
C344 C343 1.478 . S
C344 C345 1.397 . S
C344 C361 1.394 . S
C345 C344 1.397 . S
C345 C346 1.438 1_455 S
C345 C350 1.429 . S
C346 C345 1.438 1_655 S
C346 C347 1.428 . S
C346 C359 1.394 . S
C347 H339 0.949 . S
C347 C346 1.428 . S
C347 C348 1.345 1_655 S
C348 H340 0.950 . S
C348 C347 1.345 1_455 S
C348 C349 1.424 . S
C349 H341 0.951 . S
C349 C348 1.424 . S
C349 C350 1.347 . S
C350 H342 0.951 . S
C350 C345 1.429 . S
C350 C349 1.347 . S
H351 C352 0.951 . S
C352 H351 0.951 . S
C352 C358 1.265 . S
H353 C358 0.950 . S
H354 C362 0.949 . S
H355 C363 0.950 . S
H356 C364 0.951 . S
H357 C365 0.951 . S
C358 C352 1.265 . S
C358 H353 0.950 . S
C358 C359 1.478 . S
C359 C346 1.394 . S
C359 C358 1.478 . S
C359 C360 1.397 . S
C360 C359 1.397 . S
C360 C361 1.438 1_655 S
C360 C365 1.429 . S
C361 C344 1.394 . S
C361 C360 1.438 1_455 S
C361 C362 1.428 . S
C362 H354 0.949 . S
C362 C361 1.428 . S
C362 C363 1.345 1_455 S
C363 H355 0.950 . S
C363 C362 1.345 1_655 S
C363 C364 1.424 . S
C364 H356 0.951 . S
C364 C363 1.424 . S
C364 C365 1.347 . S
C365 H357 0.951 . S
C365 C360 1.429 . S
C365 C364 1.347 . S
H366 C367 0.951 . S
C367 H366 0.951 . S
C367 C373 1.265 . S
H368 C373 0.950 . S
H369 C377 0.949 . S
H370 C378 0.950 . S
H371 C379 0.951 . S
H372 C380 0.951 . S
C373 C367 1.265 . S
C373 H368 0.950 . S
C373 C374 1.478 . S
C374 C373 1.478 . S
C374 C375 1.397 . S
C374 C391 1.394 . S
C375 C374 1.397 . S
C375 C376 1.438 1_545 S
C375 C380 1.429 . S
C376 C375 1.438 1_565 S
C376 C377 1.428 . S
C376 C389 1.394 . S
C377 H369 0.949 . S
C377 C376 1.428 . S
C377 C378 1.345 1_565 S
C378 H370 0.950 . S
C378 C377 1.345 1_545 S
C378 C379 1.424 . S
C379 H371 0.951 . S
C379 C378 1.424 . S
C379 C380 1.347 . S
C380 H372 0.951 . S
C380 C375 1.429 . S
C380 C379 1.347 . S
H381 C382 0.951 . S
C382 H381 0.951 . S
C382 C388 1.265 . S
H383 C388 0.950 . S
H384 C392 0.949 . S
H385 C393 0.950 . S
H386 C394 0.951 . S
H387 C395 0.951 . S
C388 C382 1.265 . S
C388 H383 0.950 . S
C388 C389 1.478 . S
C389 C376 1.394 . S
C389 C388 1.478 . S
C389 C390 1.397 . S
C390 C389 1.397 . S
C390 C391 1.438 1_565 S
C390 C395 1.429 . S
C391 C374 1.394 . S
C391 C390 1.438 1_545 S
C391 C392 1.428 . S
C392 H384 0.949 . S
C392 C391 1.428 . S
C392 C393 1.345 1_545 S
C393 H385 0.950 . S
C393 C392 1.345 1_565 S
C393 C394 1.424 . S
C394 H386 0.951 . S
C394 C393 1.424 . S
C394 C395 1.347 . S
C395 H387 0.951 . S
C395 C390 1.429 . S
C395 C394 1.347 . S
H396 C397 0.951 . S
C397 H396 0.951 . S
C397 C403 1.265 . S
H398 C403 0.950 . S
H399 C407 0.949 . S
H400 C408 0.950 . S
H401 C409 0.951 . S
H402 C410 0.951 . S
C403 C397 1.265 . S
C403 H398 0.950 . S
C403 C404 1.478 . S
C404 C403 1.478 . S
C404 C405 1.397 . S
C404 C421 1.394 . S
C405 C404 1.397 . S
C405 C406 1.438 . S
C405 C410 1.429 . S
C406 C405 1.438 . S
C406 C407 1.428 . S
C406 C419 1.394 . S
C407 H399 0.949 . S
C407 C406 1.428 . S
C407 C408 1.345 . S
C408 H400 0.950 . S
C408 C407 1.345 . S
C408 C409 1.424 . S
C409 H401 0.951 . S
C409 C408 1.424 . S
C409 C410 1.347 . S
C410 H402 0.951 . S
C410 C405 1.429 . S
C410 C409 1.347 . S
H411 C412 0.951 . S
C412 H411 0.951 . S
C412 C418 1.265 . S
H413 C418 0.950 . S
H414 C422 0.949 . S
H415 C423 0.950 . S
H416 C424 0.951 . S
H417 C425 0.951 . S
C418 C412 1.265 . S
C418 H413 0.950 . S
C418 C419 1.478 . S
C419 C406 1.394 . S
C419 C418 1.478 . S
C419 C420 1.397 . S
C420 C419 1.397 . S
C420 C421 1.438 . S
C420 C425 1.429 . S
C421 C404 1.394 . S
C421 C420 1.438 . S
C421 C422 1.428 . S
C422 H414 0.949 . S
C422 C421 1.428 . S
C422 C423 1.345 . S
C423 H415 0.950 . S
C423 C422 1.345 . S
C423 C424 1.424 . S
C424 H416 0.951 . S
C424 C423 1.424 . S
C424 C425 1.347 . S
C425 H417 0.951 . S
C425 C420 1.429 . S
C425 C424 1.347 . S
H426 C427 0.951 . S
C427 H426 0.951 . S
C427 C433 1.265 . S
H428 C433 0.950 . S
H429 C437 0.949 . S
H430 C438 0.950 . S
H431 C439 0.951 . S
H432 C440 0.951 . S
C433 C427 1.265 . S
C433 H428 0.950 . S
C433 C434 1.478 . S
C434 C433 1.478 . S
C434 C435 1.397 1_456 S
C434 C451 1.394 . S
C435 C434 1.397 1_654 S
C435 C436 1.438 . S
C435 C440 1.429 . S
C436 C435 1.438 . S
C436 C437 1.428 . S
C436 C449 1.394 1_554 S
C437 H429 0.949 . S
C437 C436 1.428 . S
C437 C438 1.345 . S
C438 H430 0.950 . S
C438 C437 1.345 . S
C438 C439 1.424 . S
C439 H431 0.951 . S
C439 C438 1.424 . S
C439 C440 1.347 . S
C440 H432 0.951 . S
C440 C435 1.429 . S
C440 C439 1.347 . S
H441 C442 0.951 . S
C442 H441 0.951 . S
C442 C448 1.265 . S
H443 C448 0.950 . S
H444 C452 0.949 . S
H445 C453 0.950 . S
H446 C454 0.951 . S
H447 C455 0.951 . S
C448 C442 1.265 . S
C448 H443 0.950 . S
C448 C449 1.478 . S
C449 C436 1.394 1_556 S
C449 C448 1.478 . S
C449 C450 1.397 1_655 S
C450 C449 1.397 1_455 S
C450 C451 1.438 . S
C450 C455 1.429 . S
C451 C434 1.394 . S
C451 C450 1.438 . S
C451 C452 1.428 . S
C452 H444 0.949 . S
C452 C451 1.428 . S
C452 C453 1.345 . S
C453 H445 0.950 . S
C453 C452 1.345 . S
C453 C454 1.424 . S
C454 H446 0.951 . S
C454 C453 1.424 . S
C454 C455 1.347 . S
C455 H447 0.951 . S
C455 C450 1.429 . S
C455 C454 1.347 . S
H456 C457 0.951 . S
C457 H456 0.951 . S
C457 C463 1.265 . S
H458 C463 0.950 . S
H459 C467 0.949 . S
H460 C468 0.950 . S
H461 C469 0.951 . S
H462 C470 0.951 . S
C463 C457 1.265 . S
C463 H458 0.950 . S
C463 C464 1.478 . S
C464 C463 1.478 . S
C464 C465 1.397 1_565 S
C464 C481 1.394 . S
C465 C464 1.397 1_545 S
C465 C466 1.438 . S
C465 C470 1.429 . S
C466 C465 1.438 . S
C466 C467 1.428 . S
C466 C479 1.394 . S
C467 H459 0.949 . S
C467 C466 1.428 . S
C467 C468 1.345 . S
C468 H460 0.950 . S
C468 C467 1.345 . S
C468 C469 1.424 . S
C469 H461 0.951 . S
C469 C468 1.424 . S
C469 C470 1.347 . S
C470 H462 0.951 . S
C470 C465 1.429 . S
C470 C469 1.347 . S
H471 C472 0.951 . S
C472 H471 0.951 . S
C472 C478 1.265 . S
H473 C478 0.950 . S
H474 C482 0.949 . S
H475 C483 0.950 . S
H476 C484 0.951 . S
H477 C485 0.951 . S
C478 C472 1.265 . S
C478 H473 0.950 . S
C478 C479 1.478 . S
C479 C466 1.394 . S
C479 C478 1.478 . S
C479 C480 1.397 1_545 S
C480 C479 1.397 1_565 S
C480 C481 1.438 . S
C480 C485 1.429 . S
C481 C464 1.394 . S
C481 C480 1.438 . S
C481 C482 1.428 . S
C482 H474 0.949 . S
C482 C481 1.428 . S
C482 C483 1.345 . S
C483 H475 0.950 . S
C483 C482 1.345 . S
C483 C484 1.424 . S
C484 H476 0.951 . S
C484 C483 1.424 . S
C484 C485 1.347 . S
C485 H477 0.951 . S
C485 C480 1.429 . S
C485 C484 1.347 . S
H486 C487 0.951 . S
C487 H486 0.951 . S
C487 C493 1.265 . S
H488 C493 0.950 . S
H489 C497 0.949 . S
H490 C498 0.950 . S
H491 C499 0.951 . S
H492 C500 0.951 . S
C493 C487 1.265 . S
C493 H488 0.950 . S
C493 C494 1.478 . S
C494 C493 1.478 . S
C494 C495 1.397 . S
C494 C511 1.394 . S
C495 C494 1.397 . S
C495 C496 1.438 . S
C495 C500 1.429 . S
C496 C495 1.438 . S
C496 C497 1.428 . S
C496 C509 1.394 . S
C497 H489 0.949 . S
C497 C496 1.428 . S
C497 C498 1.345 . S
C498 H490 0.950 . S
C498 C497 1.345 . S
C498 C499 1.424 . S
C499 H491 0.951 . S
C499 C498 1.424 . S
C499 C500 1.347 . S
C500 H492 0.951 . S
C500 C495 1.429 . S
C500 C499 1.347 . S
H501 C502 0.951 . S
C502 H501 0.951 . S
C502 C508 1.265 . S
H503 C508 0.950 . S
H504 C512 0.949 . S
H505 C513 0.950 . S
H506 C514 0.951 . S
H507 C515 0.951 . S
C508 C502 1.265 . S
C508 H503 0.950 . S
C508 C509 1.478 . S
C509 C496 1.394 . S
C509 C508 1.478 . S
C509 C510 1.397 . S
C510 C509 1.397 . S
C510 C511 1.438 . S
C510 C515 1.429 . S
C511 C494 1.394 . S
C511 C510 1.438 . S
C511 C512 1.428 . S
C512 H504 0.949 . S
C512 C511 1.428 . S
C512 C513 1.345 . S
C513 H505 0.950 . S
C513 C512 1.345 . S
C513 C514 1.424 . S
C514 H506 0.951 . S
C514 C513 1.424 . S
C514 C515 1.347 . S
C515 H507 0.951 . S
C515 C510 1.429 . S
C515 C514 1.347 . S
H516 C517 0.951 . S
C517 H516 0.951 . S
C517 C523 1.265 . S
H518 C523 0.950 . S
H519 C527 0.949 . S
H520 C528 0.950 1_455 S
H521 C529 0.951 . S
H522 C530 0.951 . S
C523 C517 1.265 . S
C523 H518 0.950 . S
C523 C524 1.478 . S
C524 C523 1.478 . S
C524 C525 1.397 . S
C524 C541 1.394 . S
C525 C524 1.397 . S
C525 C526 1.438 1_655 S
C525 C530 1.429 . S
C526 C525 1.438 1_455 S
C526 C527 1.428 . S
C526 C539 1.394 . S
C527 H519 0.949 . S
C527 C526 1.428 . S
C527 C528 1.345 1_455 S
C528 H520 0.950 1_655 S
C528 C527 1.345 1_655 S
C528 C529 1.424 . S
C529 H521 0.951 . S
C529 C528 1.424 . S
C529 C530 1.347 . S
C530 H522 0.951 . S
C530 C525 1.429 . S
C530 C529 1.347 . S
H531 C532 0.951 . S
C532 H531 0.951 . S
C532 C538 1.265 . S
H533 C538 0.950 . S
H534 C542 0.949 . S
H535 C543 0.950 . S
H536 C544 0.951 . S
H537 C545 0.951 . S
C538 C532 1.265 . S
C538 H533 0.950 . S
C538 C539 1.478 . S
C539 C526 1.394 . S
C539 C538 1.478 . S
C539 C540 1.397 . S
C540 C539 1.397 . S
C540 C541 1.438 1_455 S
C540 C545 1.429 . S
C541 C524 1.394 . S
C541 C540 1.438 1_655 S
C541 C542 1.428 . S
C542 H534 0.949 . S
C542 C541 1.428 . S
C542 C543 1.345 1_655 S
C543 H535 0.950 . S
C543 C542 1.345 1_455 S
C543 C544 1.424 . S
C544 H536 0.951 . S
C544 C543 1.424 . S
C544 C545 1.347 . S
C545 H537 0.951 . S
C545 C540 1.429 . S
C545 C544 1.347 . S
H546 C547 0.951 . S
C547 H546 0.951 . S
C547 C553 1.265 . S
H548 C553 0.950 . S
H549 C557 0.949 . S
H550 C558 0.950 . S
H551 C559 0.951 . S
H552 C560 0.951 . S
C553 C547 1.265 . S
C553 H548 0.950 . S
C553 C554 1.478 . S
C554 C553 1.478 . S
C554 C555 1.397 1_565 S
C554 C571 1.394 . S
C555 C554 1.397 1_545 S
C555 C556 1.438 . S
C555 C560 1.429 . S
C556 C555 1.438 . S
C556 C557 1.428 . S
C556 C569 1.394 . S
C557 H549 0.949 . S
C557 C556 1.428 . S
C557 C558 1.345 . S
C558 H550 0.950 . S
C558 C557 1.345 . S
C558 C559 1.424 . S
C559 H551 0.951 . S
C559 C558 1.424 . S
C559 C560 1.347 . S
C560 H552 0.951 . S
C560 C555 1.429 . S
C560 C559 1.347 . S
H561 C562 0.951 . S
C562 H561 0.951 . S
C562 C568 1.265 . S
H563 C568 0.950 . S
H564 C572 0.949 . S
H565 C573 0.950 . S
H566 C574 0.951 . S
H567 C575 0.940 1_545 S
C568 C562 1.265 . S
C568 H563 0.950 . S
C568 C569 1.478 . S
C569 C556 1.394 . S
C569 C568 1.478 . S
C569 C570 1.397 1_545 S
C570 C569 1.397 1_565 S
C570 C571 1.438 . S
C570 C575 1.429 . S
C571 C554 1.394 . S
C571 C570 1.438 . S
C571 C572 1.428 . S
C572 H564 0.949 . S
C572 C571 1.428 . S
C572 C573 1.345 . S
C573 H565 0.950 . S
C573 C572 1.345 . S
C573 C574 1.424 . S
C574 H566 0.951 . S
C574 C573 1.424 . S
C574 C575 1.347 . S
C575 H567 0.940 1_565 S
C575 C570 1.429 . S
C575 C574 1.347 . S
H576 C577 0.951 . S
C577 H576 0.951 . S
C577 C583 1.265 . S
H578 C583 0.950 . S
H579 C587 0.949 . S
H580 C588 0.950 . S
H581 C589 0.951 . S
H582 C590 0.951 . S
C583 C577 1.265 . S
C583 H578 0.950 . S
C583 C584 1.478 . S
C584 C583 1.478 . S
C584 C585 1.397 . S
C584 C601 1.394 . S
C585 C584 1.397 . S
C585 C586 1.438 . S
C585 C590 1.429 . S
C586 C585 1.438 . S
C586 C587 1.428 . S
C586 C599 1.394 . S
C587 H579 0.949 . S
C587 C586 1.428 . S
C587 C588 1.345 . S
C588 H580 0.950 . S
C588 C587 1.345 . S
C588 C589 1.424 . S
C589 H581 0.951 . S
C589 C588 1.424 . S
C589 C590 1.347 . S
C590 H582 0.951 . S
C590 C585 1.429 . S
C590 C589 1.347 . S
H591 C592 0.951 . S
C592 H591 0.951 . S
C592 C598 1.265 . S
H593 C598 0.950 . S
H594 C602 0.949 . S
H595 C603 0.950 . S
H596 C604 0.951 . S
H597 C605 0.951 . S
C598 C592 1.265 . S
C598 H593 0.950 . S
C598 C599 1.478 . S
C599 C586 1.394 . S
C599 C598 1.478 . S
C599 C600 1.397 . S
C600 C599 1.397 . S
C600 C601 1.438 . S
C600 C605 1.429 . S
C601 C584 1.394 . S
C601 C600 1.438 . S
C601 C602 1.428 . S
C602 H594 0.949 . S
C602 C601 1.428 . S
C602 C603 1.345 . S
C603 H595 0.950 . S
C603 C602 1.345 . S
C603 C604 1.424 . S
C604 H596 0.951 . S
C604 C603 1.424 . S
C604 C605 1.347 . S
C605 H597 0.951 . S
C605 C600 1.429 . S
C605 C604 1.347 . S
H606 C607 0.951 . S
C607 H606 0.951 . S
C607 C613 1.265 . S
H608 C613 0.950 . S
H609 C617 0.949 . S
H610 C618 0.950 . S
H611 C619 0.951 . S
H612 C620 0.951 . S
C613 C607 1.265 . S
C613 H608 0.950 . S
C613 C614 1.478 . S
C614 C613 1.478 . S
C614 C615 1.397 1_455 S
C614 C631 1.394 . S
C615 C614 1.397 1_655 S
C615 C616 1.438 . S
C615 C620 1.429 . S
C616 C615 1.438 . S
C616 C617 1.428 . S
C616 C629 1.394 . S
C617 H609 0.949 . S
C617 C616 1.428 . S
C617 C618 1.345 . S
C618 H610 0.950 . S
C618 C617 1.345 . S
C618 C619 1.424 . S
C619 H611 0.951 . S
C619 C618 1.424 . S
C619 C620 1.347 . S
C620 H612 0.951 . S
C620 C615 1.429 . S
C620 C619 1.347 . S
H621 C622 0.951 . S
C622 H621 0.951 . S
C622 C628 1.265 . S
H623 C628 0.950 . S
H624 C632 0.949 . S
H625 C633 0.950 . S
H626 C634 0.951 . S
H627 C635 0.951 . S
C628 C622 1.265 . S
C628 H623 0.950 . S
C628 C629 1.478 . S
C629 C616 1.394 . S
C629 C628 1.478 . S
C629 C630 1.397 1_655 S
C630 C629 1.397 1_455 S
C630 C631 1.438 . S
C630 C635 1.429 . S
C631 C614 1.394 . S
C631 C630 1.438 . S
C631 C632 1.428 . S
C632 H624 0.949 . S
C632 C631 1.428 . S
C632 C633 1.345 . S
C633 H625 0.950 . S
C633 C632 1.345 . S
C633 C634 1.424 . S
C634 H626 0.951 . S
C634 C633 1.424 . S
C634 C635 1.347 . S
C635 H627 0.951 . S
C635 C630 1.429 . S
C635 C634 1.347 . S
H636 C637 0.951 . S
C637 H636 0.951 . S
C637 C643 1.265 . S
H638 C643 0.950 . S
H639 C647 0.949 . S
H640 C648 0.950 . S
H641 C649 0.951 . S
H642 C650 0.951 . S
C643 C637 1.265 . S
C643 H638 0.950 . S
C643 C644 1.478 . S
C644 C643 1.478 . S
C644 C645 1.397 1_545 S
C644 C661 1.394 . S
C645 C644 1.397 1_565 S
C645 C646 1.438 . S
C645 C650 1.429 . S
C646 C645 1.438 . S
C646 C647 1.428 . S
C646 C659 1.394 . S
C647 H639 0.949 . S
C647 C646 1.428 . S
C647 C648 1.345 . S
C648 H640 0.950 . S
C648 C647 1.345 . S
C648 C649 1.424 . S
C649 H641 0.951 . S
C649 C648 1.424 . S
C649 C650 1.347 . S
C650 H642 0.951 . S
C650 C645 1.429 . S
C650 C649 1.347 . S
H651 C652 0.951 . S
C652 H651 0.951 . S
C652 C658 1.265 . S
H653 C658 0.950 . S
H654 C662 0.949 . S
H655 C663 0.950 . S
H656 C664 0.951 . S
H657 C665 0.948 1_565 S
C658 C652 1.265 . S
C658 H653 0.950 . S
C658 C659 1.478 . S
C659 C646 1.394 . S
C659 C658 1.478 . S
C659 C660 1.397 1_565 S
C660 C659 1.397 1_545 S
C660 C661 1.438 . S
C660 C665 1.429 . S
C661 C644 1.394 . S
C661 C660 1.438 . S
C661 C662 1.428 . S
C662 H654 0.949 . S
C662 C661 1.428 . S
C662 C663 1.345 . S
C663 H655 0.950 . S
C663 C662 1.345 . S
C663 C664 1.424 . S
C664 H656 0.951 . S
C664 C663 1.424 . S
C664 C665 1.347 . S
C665 H657 0.948 1_545 S
C665 C660 1.429 . S
C665 C664 1.347 . S
C127 C102 0.916 . S
C142 C13 0.750 . S
C157 C123 0.959 . S
C172 C34 0.884 . S
C187 C18 0.834 . S
C202 C55 0.723 . S
C217 C39 0.872 . S
C232 C76 0.957 . S
C247 C60 0.806 . S
C262 C97 0.809 . S
C277 C81 0.858 . S
C292 C118 0.711 . S
C307 C14 0.916 . S
C322 C77 0.917 . S
C337 C98 1.127 . S
C352 C35 1.125 . S
C367 C119 1.127 . S
C382 C56 1.127 . S
C397 C57 1.104 . S
C412 C120 1.106 . S
C427 C15 1.087 . S
C442 C78 1.085 . S
C457 C99 1.083 . S
C472 C36 1.090 . S
C487 C122 1.029 . S
C502 C16 1.051 . S
C517 C37 1.096 . S
C532 C17 1.120 . S
C547 C58 0.992 . S
C562 C38 1.069 . S
C577 C59 1.086 . S
C592 C79 0.988 . S
C607 C100 0.988 . S
C622 C80 1.080 . S
C637 C121 0.992 . S
C652 C101 1.069 . S
