# Generated by pormake.
# Topology mdf, (4)-cn, num edge types: 1
# Building blocks:
#     Node 0, Type 0, BuildingBlock: AZAVOO_clean_sbu_0, # of connection points: 4
#     Node 1, Type 0, BuildingBlock: AZAVOO_clean_sbu_0, # of connection points: 4
#     Node 2, Type 0, BuildingBlock: AZAVOO_clean_sbu_0, # of connection points: 4
#     Node 3, Type 0, BuildingBlock: AZAVOO_clean_sbu_0, # of connection points: 4
#     Node 4, Type 0, BuildingBlock: AZAVOO_clean_sbu_0, # of connection points: 4
#     Node 5, Type 0, BuildingBlock: AZAVOO_clean_sbu_0, # of connection points: 4
#     Node 6, Type 0, BuildingBlock: AZAVOO_clean_sbu_0, # of connection points: 4
#     Node 7, Type 0, BuildingBlock: AZAVOO_clean_sbu_0, # of connection points: 4
#     Edge 8, Type (0, 0), BuildingBlock: ZUJKAS_clean_linker_0, # of connection points: 2
#     Edge 9, Type (0, 0), BuildingBlock: ZUJKAS_clean_linker_0, # of connection points: 2
#     Edge 10, Type (0, 0), BuildingBlock: ZUJKAS_clean_linker_0, # of connection points: 2
#     Edge 11, Type (0, 0), BuildingBlock: ZUJKAS_clean_linker_0, # of connection points: 2
#     Edge 12, Type (0, 0), BuildingBlock: ZUJKAS_clean_linker_0, # of connection points: 2
#     Edge 13, Type (0, 0), BuildingBlock: ZUJKAS_clean_linker_0, # of connection points: 2
#     Edge 14, Type (0, 0), BuildingBlock: ZUJKAS_clean_linker_0, # of connection points: 2
#     Edge 15, Type (0, 0), BuildingBlock: ZUJKAS_clean_linker_0, # of connection points: 2
#     Edge 16, Type (0, 0), BuildingBlock: ZUJKAS_clean_linker_0, # of connection points: 2
#     Edge 17, Type (0, 0), BuildingBlock: ZUJKAS_clean_linker_0, # of connection points: 2
#     Edge 18, Type (0, 0), BuildingBlock: ZUJKAS_clean_linker_0, # of connection points: 2
#     Edge 19, Type (0, 0), BuildingBlock: ZUJKAS_clean_linker_0, # of connection points: 2
#     Edge 20, Type (0, 0), BuildingBlock: ZUJKAS_clean_linker_0, # of connection points: 2
#     Edge 21, Type (0, 0), BuildingBlock: ZUJKAS_clean_linker_0, # of connection points: 2
#     Edge 22, Type (0, 0), BuildingBlock: ZUJKAS_clean_linker_0, # of connection points: 2
#     Edge 23, Type (0, 0), BuildingBlock: ZUJKAS_clean_linker_0, # of connection points: 2
# Relax obj value: 0.039
# Max RMSD: 0.047
# Mean RMSD: 0.047
data_MOF--net-mdf--node1-AZAVOO_clean_sbu_0--edge1-ZUJKAS_clean_linker_0
_symmetry_space_group_name_H-M    P1
_symmetry_Int_Tables_number       1
_symmetry_cell_setting            triclinic
loop_
_symmetry_equiv_pos_as_xyz
'x, y, z'
_cell_length_a     44.07635
_cell_length_b     44.086968
_cell_length_c     20.441437
_cell_angle_alpha  89.9921
_cell_angle_beta   90.018303
_cell_angle_gamma 94.620675
loop_
_atom_site_label
_atom_site_type_symbol
_atom_site_fract_x
_atom_site_fract_y
_atom_site_fract_z
_atom_type_partial_charge
Mg0 Mg 0.26662 0.55441 0.37987 0.0
O1 O 0.22983 0.519 0.34001 0.0
O2 O 0.25329 0.49014 0.26912 0.0
Mg3 Mg 0.30355 0.50672 0.26243 0.0
C4 C 0.22939 0.49697 0.29924 0.0
C5 C 0.24342 0.60291 0.46444 0.0
O6 O 0.27313 0.60865 0.46211 0.0
O7 O 0.26519 0.58148 0.28459 0.0
O8 O 0.29025 0.55178 0.21853 0.0
O9 O 0.27878 0.52232 0.45839 0.0
O10 O 0.30053 0.5252 0.36121 0.0
C11 C 0.27679 0.57595 0.22899 0.0
C12 C 0.29786 0.5121 0.41742 0.0
O13 O 0.2313 0.58133 0.42962 0.0
Mg14 Mg 0.44727 0.73636 0.60712 0.0
O15 O 0.48104 0.77269 0.65451 0.0
O16 O 0.50566 0.74868 0.73226 0.0
Mg17 Mg 0.48863 0.69848 0.73459 0.0
C18 C 0.5007 0.77276 0.7006 0.0
C19 C 0.39612 0.76256 0.53214 0.0
O20 O 0.38478 0.73531 0.54987 0.0
O21 O 0.41581 0.73752 0.69604 0.0
O22 O 0.44233 0.71274 0.76918 0.0
O23 O 0.48324 0.72456 0.53674 0.0
O24 O 0.47484 0.70203 0.63229 0.0
C25 C 0.41893 0.7264 0.75316 0.0
C26 C 0.49088 0.70503 0.57978 0.0
O27 O 0.42249 0.77195 0.55242 0.0
Mg28 Mg 0.22906 0.94219 0.89804 0.0
O29 O 0.2662 0.97716 0.85735 0.0
O30 O 0.24329 0.00506 0.78367 0.0
Mg31 Mg 0.19331 0.98788 0.77493 0.0
C32 C 0.26693 0.99874 0.81537 0.0
C33 C 0.25302 0.89204 0.97956 0.0
O34 O 0.22424 0.88304 0.9696 0.0
O35 O 0.23116 0.91359 0.80519 0.0
O36 O 0.20785 0.94256 0.73416 0.0
O37 O 0.21624 0.9754 0.97326 0.0
O38 O 0.19516 0.97089 0.87543 0.0
C39 C 0.22099 0.91853 0.74796 0.0
C40 C 0.19736 0.98485 0.93078 0.0
O41 O 0.26408 0.91614 0.95132 0.0
Mg42 Mg 0.05713 0.76748 0.09082 0.0
O43 O 0.02258 0.73233 0.13937 0.0
O44 O 1e-05 0.75676 0.21943 0.0
Mg45 Mg 0.01892 0.80645 0.22126 0.0
C46 C 0.0036 0.73267 0.18663 0.0
C47 C 0.1061 0.73685 0.01503 0.0
O48 O 0.12068 0.76257 0.03376 0.0
O49 O 0.08959 0.76526 0.1776 0.0
O50 O 0.06531 0.79094 0.25338 0.0
O51 O 0.02154 0.78057 0.02187 0.0
O52 O 0.0309 0.80279 0.11742 0.0
C53 C 0.08776 0.77647 0.23489 0.0
C54 C 0.01455 0.80028 0.06511 0.0
O55 O 0.07906 0.73049 0.03502 0.0
Mg56 Mg 0.77349 0.06621 0.89131 0.0
O57 O 0.73571 0.03115 0.85308 0.0
O58 O 0.75742 0.00561 0.77339 0.0
Mg59 Mg 0.80712 0.02306 0.76101 0.0
C60 C 0.7344 0.01068 0.80851 0.0
C61 C 0.75305 0.09913 0.00617 0.0
O62 O 0.78127 0.09258 0.01579 0.0
O63 O 0.76817 0.09594 0.80091 0.0
O64 O 0.79101 0.06869 0.72612 0.0
O65 O 0.78805 0.03223 0.96265 0.0
O66 O 0.80695 0.03782 0.86308 0.0
C67 C 0.77746 0.09212 0.74252 0.0
C68 C 0.80575 0.02309 0.91759 0.0
O69 O 0.74036 0.09152 0.95204 0.0
Mg70 Mg 0.93385 0.22735 0.11073 0.0
O71 O 0.96937 0.26498 0.14783 0.0
O72 O 0.99565 0.24317 0.22617 0.0
Mg73 Mg 0.97707 0.19401 0.24128 0.0
C74 C 0.9905 0.26614 0.19096 0.0
C75 C 0.88817 0.24663 0.01536 0.0
O76 O 0.88272 0.21711 0.02329 0.0
O77 O 0.90459 0.23358 0.20125 0.0
O78 O 0.93197 0.21134 0.27677 0.0
O79 O 0.96736 0.21188 0.03929 0.0
O80 O 0.96181 0.19371 0.13954 0.0
C81 C 0.90863 0.22498 0.26005 0.0
C82 C 0.97646 0.19443 0.08495 0.0
O83 O 0.90871 0.26057 0.05028 0.0
Mg84 Mg 0.73302 0.44122 0.3997 0.0
O85 O 0.76795 0.4771 0.35481 0.0
O86 O 0.74245 0.50328 0.28222 0.0
Mg87 Mg 0.6926 0.48477 0.28027 0.0
C88 C 0.76703 0.49809 0.31181 0.0
C89 C 0.76376 0.38753 0.4568 0.0
O90 O 0.73838 0.37463 0.43208 0.0
O91 O 0.73401 0.41248 0.30687 0.0
O92 O 0.70752 0.4399 0.23872 0.0
O93 O 0.72151 0.47495 0.47536 0.0
O94 O 0.69776 0.46859 0.38052 0.0
C95 C 0.72204 0.41658 0.251 0.0
C96 C 0.7014 0.48344 0.43452 0.0
O97 O 0.77003 0.41587 0.44781 0.0
Mg98 Mg 0.55866 0.27055 0.61955 0.0
O99 O 0.52414 0.23266 0.65928 0.0
O100 O 0.49704 0.25501 0.73536 0.0
Mg101 Mg 0.51408 0.30489 0.74636 0.0
C102 C 0.50293 0.23165 0.70221 0.0
C103 C 0.59845 0.25045 0.51459 0.0
O104 O 0.59522 0.27956 0.50603 0.0
O105 O 0.5879 0.26714 0.71088 0.0
O106 O 0.55982 0.28999 0.78415 0.0
O107 O 0.52475 0.28375 0.54627 0.0
O108 O 0.52974 0.30377 0.64501 0.0
C109 C 0.58363 0.27682 0.76875 0.0
C110 C 0.51525 0.30184 0.59026 0.0
O111 O 0.58538 0.2371 0.56334 0.0
H112 H 0.3588 0.73654 0.73265 0.0
H113 H 0.31706 0.72862 0.81188 0.0
H114 H 0.38172 0.70918 0.96173 0.0
H115 H 0.42305 0.71766 0.88422 0.0
H116 H 0.30182 0.67584 0.86398 0.0
H117 H 0.32497 0.7536 0.06973 0.0
H118 H 0.34269 0.76056 0.99083 0.0
H119 H 0.35988 0.73739 0.05121 0.0
C120 C 0.36412 0.73154 0.78305 0.0
C121 C 0.39419 0.72734 0.80196 0.0
C122 C 0.34026 0.72705 0.82828 0.0
C123 C 0.34619 0.71871 0.89318 0.0
C124 C 0.37645 0.71645 0.9127 0.0
H125 H 0.30229 0.57244 0.10837 0.0
H126 H 0.30792 0.61138 0.02516 0.0
C127 C 0.40014 0.72085 0.86782 0.0
C128 C 0.32136 0.70666 0.93745 0.0
H129 H 0.30678 0.70008 0.10079 0.0
C130 C 0.30207 0.68187 0.91543 0.0
C131 C 0.32064 0.71493 0.00431 0.0
C132 C 0.33796 0.74335 0.02996 0.0
C133 C 0.28554 0.66271 0.9597 0.0
C134 C 0.28901 0.66809 0.02766 0.0
C135 C 0.30478 0.69528 0.04885 0.0
C136 C 0.28184 0.64356 0.07638 0.0
C137 C 0.26607 0.63577 0.93327 0.0
C138 C 0.26603 0.64879 0.1345 0.0
C139 C 0.26334 0.62651 0.18367 0.0
C140 C 0.27655 0.59871 0.17551 0.0
C141 C 0.29161 0.5934 0.11649 0.0
C142 C 0.29449 0.61561 0.06806 0.0
H143 H 0.25679 0.64104 0.88443 0.0
H144 H 0.28021 0.61629 0.9267 0.0
H145 H 0.24696 0.62884 0.96686 0.0
H146 H 0.25646 0.67036 0.14248 0.0
H147 H 0.25165 0.63138 0.22859 0.0
H148 H 0.33975 0.74835 0.48003 0.0
H149 H 0.31665 0.77229 0.38663 0.0
H150 H 0.3935 0.83911 0.37604 0.0
H151 H 0.41703 0.81512 0.46925 0.0
H152 H 0.30063 0.83192 0.36445 0.0
H153 H 0.39058 0.80003 0.19286 0.0
H154 H 0.38593 0.78383 0.27368 0.0
H155 H 0.40421 0.82144 0.26322 0.0
C156 C 0.35166 0.76832 0.45832 0.0
C157 C 0.38041 0.77963 0.48166 0.0
C158 C 0.3384 0.78195 0.4049 0.0
C159 C 0.35369 0.80703 0.37359 0.0
C160 C 0.38166 0.81935 0.3987 0.0
H161 H 0.30964 0.91023 0.02799 0.0
H162 H 0.33474 0.88933 0.12296 0.0
C163 C 0.39495 0.80575 0.45228 0.0
C164 C 0.34061 0.81964 0.31362 0.0
H165 H 0.35313 0.82996 0.14985 0.0
C166 C 0.3121 0.83155 0.31754 0.0
C167 C 0.35561 0.81894 0.25245 0.0
C168 C 0.38565 0.80515 0.24483 0.0
C169 C 0.29833 0.84318 0.262 0.0
C170 C 0.31324 0.84231 0.20079 0.0
C171 C 0.34182 0.83058 0.1969 0.0
C172 C 0.29932 0.85334 0.14023 0.0
C173 C 0.26817 0.85677 0.26945 0.0
C174 C 0.27172 0.83928 0.1171 0.0
C175 C 0.25736 0.8511 0.06296 0.0
C176 C 0.27043 0.87714 0.03068 0.0
C177 C 0.29892 0.89021 0.05185 0.0
C178 C 0.31326 0.87836 0.10618 0.0
H179 H 0.26338 0.86229 0.32129 0.0
H180 H 0.2676 0.87781 0.23975 0.0
H181 H 0.24968 0.84019 0.25193 0.0
H182 H 0.26097 0.81949 0.14179 0.0
H183 H 0.23558 0.84031 0.0476 0.0
H184 H 0.14071 0.81153 0.23195 0.0
H185 H 0.17643 0.82032 0.32247 0.0
H186 H 0.12777 0.74804 0.43191 0.0
H187 H 0.09086 0.74072 0.34236 0.0
H188 H 0.13025 0.79548 0.49941 0.0
H189 H 0.24722 0.78964 0.40966 0.0
H190 H 0.22765 0.81346 0.35596 0.0
H191 H 0.21468 0.77374 0.36378 0.0
C192 C 0.13843 0.79681 0.27443 0.0
C193 C 0.11337 0.77535 0.28044 0.0
C194 C 0.15903 0.80162 0.3261 0.0
C195 C 0.15523 0.78457 0.38414 0.0
C196 C 0.13136 0.76141 0.38772 0.0
H197 H 0.22413 0.85704 0.76396 0.0
H198 H 0.21478 0.81767 0.67967 0.0
C199 C 0.11035 0.75712 0.33659 0.0
C200 C 0.17198 0.79502 0.4444 0.0
H201 H 0.24086 0.82675 0.49818 0.0
C202 C 0.15463 0.80126 0.49978 0.0
C203 C 0.20385 0.80267 0.44555 0.0
C204 C 0.22438 0.79415 0.39068 0.0
C205 C 0.16768 0.81709 0.55356 0.0
C206 C 0.19892 0.8271 0.55199 0.0
C207 C 0.21683 0.81918 0.49891 0.0
C208 C 0.21163 0.84966 0.60022 0.0
C209 C 0.14752 0.82503 0.60972 0.0
C210 C 0.21399 0.88049 0.58279 0.0
C211 C 0.21892 0.90291 0.63061 0.0
C212 C 0.22185 0.89488 0.69675 0.0
C213 C 0.22197 0.86392 0.71341 0.0
C214 C 0.21667 0.84142 0.66541 0.0
H215 H 0.12335 0.81658 0.60206 0.0
H216 H 0.15564 0.81494 0.65563 0.0
H217 H 0.14874 0.8501 0.61639 0.0
H218 H 0.21003 0.88725 0.53273 0.0
H219 H 0.21903 0.92656 0.61613 0.0
H220 H 0.07702 0.69107 0.94252 0.0
H221 H 0.09728 0.66507 0.84808 0.0
H222 H 0.18449 0.71507 0.87562 0.0
H223 H 0.1645 0.74128 0.96974 0.0
H224 H 0.12452 0.69766 0.73259 0.0
H225 H 0.20223 0.62317 0.85744 0.0
H226 H 0.17054 0.63852 0.89833 0.0
H227 H 0.20498 0.6622 0.88444 0.0
C228 C 0.10066 0.69618 0.92916 0.0
C229 C 0.11918 0.71826 0.96358 0.0
C230 C 0.1121 0.68142 0.87503 0.0
C231 C 0.14233 0.68816 0.85517 0.0
C232 C 0.16114 0.70942 0.89063 0.0
H233 H 0.26394 0.64788 0.5486 0.0
H234 H 0.23663 0.66843 0.64016 0.0
C235 C 0.14967 0.72438 0.94433 0.0
C236 C 0.15401 0.67416 0.79555 0.0
H237 H 0.20826 0.62903 0.74233 0.0
C238 C 0.14255 0.68234 0.73451 0.0
C239 C 0.17746 0.65421 0.79859 0.0
C240 C 0.18945 0.64372 0.86316 0.0
C241 C 0.15486 0.67193 0.67605 0.0
C242 C 0.17896 0.6527 0.67914 0.0
C243 C 0.18985 0.64393 0.74026 0.0
C244 C 0.1941 0.64224 0.61966 0.0
C245 C 0.14288 0.68241 0.61144 0.0
C246 C 0.17898 0.62108 0.57715 0.0
C247 C 0.19456 0.60918 0.52458 0.0
C248 C 0.22552 0.61823 0.514 0.0
C249 C 0.24015 0.64033 0.55536 0.0
C250 C 0.22462 0.65209 0.60784 0.0
H251 H 0.1275 0.70097 0.61752 0.0
H252 H 0.16201 0.69052 0.57886 0.0
H253 H 0.13 0.66297 0.58682 0.0
H254 H 0.15547 0.61302 0.58594 0.0
H255 H 0.18267 0.59214 0.49372 0.0
H256 H 0.75797 0.1497 0.75805 0.0
H257 H 0.75849 0.1901 0.67521 0.0
H258 H 0.7909 0.12851 0.5319 0.0
H259 H 0.78952 0.0884 0.6125 0.0
H260 H 0.80542 0.21639 0.61855 0.0
H261 H 0.73491 0.16952 0.41781 0.0
H262 H 0.73141 0.15374 0.4993 0.0
H263 H 0.75807 0.13992 0.44133 0.0
C264 C 0.76442 0.14463 0.70837 0.0
C265 C 0.77391 0.11582 0.69212 0.0
C266 C 0.76465 0.16774 0.66105 0.0
C267 C 0.77407 0.16229 0.59666 0.0
C268 C 0.78243 0.13318 0.58028 0.0
H269 H 0.91323 0.21609 0.3912 0.0
H270 H 0.87311 0.21469 0.47189 0.0
C271 C 0.78212 0.11024 0.62707 0.0
C272 C 0.78025 0.18744 0.54878 0.0
H273 H 0.78607 0.19498 0.38347 0.0
C274 C 0.80024 0.2124 0.56725 0.0
C275 C 0.77241 0.18372 0.48192 0.0
C276 C 0.74767 0.16044 0.45936 0.0
C277 C 0.81645 0.23019 0.51999 0.0
C278 C 0.81344 0.22191 0.45324 0.0
C279 C 0.78956 0.20061 0.43471 0.0
C280 C 0.83856 0.22905 0.40572 0.0
C281 C 0.83822 0.25626 0.54242 0.0
C282 C 0.83279 0.2373 0.3407 0.0
C283 C 0.85591 0.23753 0.29345 0.0
C284 C 0.88508 0.2292 0.31041 0.0
C285 C 0.89106 0.22249 0.37613 0.0
C286 C 0.8681 0.22221 0.42292 0.0
H287 H 0.8282 0.26841 0.58374 0.0
H288 H 0.85944 0.24729 0.56079 0.0
H289 H 0.84397 0.27272 0.50233 0.0
H290 H 0.81012 0.24231 0.32594 0.0
H291 H 0.85054 0.24285 0.24325 0.0
H292 H 0.8993 0.30567 0.97366 0.0
H293 H 0.87847 0.32888 0.87616 0.0
H294 H 0.82412 0.24528 0.83529 0.0
H295 H 0.84431 0.22213 0.9327 0.0
H296 H 0.88385 0.30754 0.74688 0.0
H297 H 0.76241 0.309 0.81874 0.0
H298 H 0.79222 0.30401 0.87753 0.0
H299 H 0.77766 0.27269 0.8273 0.0
C300 C 0.88252 0.29242 0.94453 0.0
C301 C 0.87345 0.26207 0.96099 0.0
C302 C 0.87075 0.30566 0.88874 0.0
C303 C 0.84957 0.28887 0.84889 0.0
C304 C 0.84002 0.25882 0.86599 0.0
H305 H 0.75521 0.32732 0.48924 0.0
H306 H 0.77885 0.30148 0.57945 0.0
C307 C 0.85172 0.24559 0.92163 0.0
C308 C 0.83865 0.30213 0.78751 0.0
H309 H 0.77459 0.32069 0.70822 0.0
C310 C 0.85999 0.3106 0.73849 0.0
C311 C 0.80746 0.30567 0.77648 0.0
C312 C 0.78361 0.29762 0.82795 0.0
C313 C 0.85093 0.32239 0.67841 0.0
C314 C 0.81981 0.3263 0.66774 0.0
C315 C 0.79845 0.31757 0.71653 0.0
C316 C 0.80885 0.34058 0.60753 0.0
C317 C 0.87464 0.33003 0.62649 0.0
C318 C 0.81843 0.37089 0.59245 0.0
C319 C 0.80503 0.38573 0.54079 0.0
C320 C 0.78159 0.37056 0.50373 0.0
C321 C 0.7731 0.33972 0.51699 0.0
C322 C 0.78654 0.32491 0.56859 0.0
H323 H 0.89526 0.31756 0.63434 0.0
H324 H 0.86549 0.32455 0.57688 0.0
H325 H 0.88162 0.35476 0.62833 0.0
H326 H 0.83528 0.38355 0.62252 0.0
H327 H 0.81205 0.40949 0.53199 0.0
H328 H 0.743 0.35939 0.25986 0.0
H329 H 0.73975 0.31962 0.17543 0.0
H330 H 0.70004 0.38127 0.04229 0.0
H331 H 0.70395 0.42082 0.12442 0.0
H332 H 0.68989 0.29332 0.1249 0.0
H333 H 0.75482 0.34358 0.91824 0.0
H334 H 0.76028 0.35802 1.00047 0.0
H335 H 0.73145 0.37187 0.94789 0.0
C336 C 0.73428 0.36462 0.21197 0.0
C337 C 0.7236 0.39329 0.19906 0.0
C338 C 0.73249 0.34188 0.16378 0.0
C339 C 0.72031 0.34759 0.10185 0.0
C340 C 0.71056 0.3765 0.08865 0.0
H341 H 0.57911 0.28816 0.89904 0.0
H342 H 0.61968 0.29278 0.97905 0.0
C343 C 0.71239 0.39908 0.13632 0.0
C344 C 0.71324 0.32284 0.05364 0.0
H345 H 0.70501 0.31528 0.88871 0.0
C346 C 0.6941 0.29747 0.07327 0.0
C347 C 0.7197 0.32709 0.9863 0.0
C348 C 0.74304 0.35146 0.96234 0.0
C349 C 0.67762 0.27932 0.02703 0.0
C350 C 0.67965 0.28746 0.96009 0.0
C351 C 0.70246 0.30962 0.94015 0.0
C352 C 0.65458 0.27872 0.91352 0.0
C353 C 0.65665 0.2529 0.05082 0.0
C354 C 0.66045 0.26946 0.84927 0.0
C355 C 0.63708 0.26726 0.80251 0.0
C356 C 0.60756 0.27463 0.81917 0.0
C357 C 0.60155 0.28243 0.88427 0.0
C358 C 0.62477 0.28462 0.93062 0.0
H359 H 0.66738 0.24108 0.09176 0.0
H360 H 0.6354 0.26151 0.07 0.0
H361 H 0.65077 0.23622 0.0112 0.0
H362 H 0.68333 0.26513 0.83466 0.0
H363 H 0.64248 0.26117 0.75278 0.0
H364 H 0.77149 0.10785 0.13197 0.0
H365 H 0.74518 0.13174 0.22041 0.0
H366 H 0.67194 0.14896 0.08889 0.0
H367 H 0.69788 0.12406 0.99991 0.0
H368 H 0.73 0.18865 0.23237 0.0
H369 H 0.6259 0.10923 0.24138 0.0
H370 H 0.65923 0.10106 0.19546 0.0
H371 H 0.63282 0.12609 0.16233 0.0
C372 C 0.74971 0.11658 0.12168 0.0
C373 C 0.73669 0.11396 0.05891 0.0
C374 C 0.73471 0.13025 0.17242 0.0
C375 C 0.7064 0.14173 0.1616 0.0
C376 C 0.69343 0.13957 0.09875 0.0
H377 H 0.6248 0.27292 0.40249 0.0
H378 H 0.6521 0.24582 0.32041 0.0
C379 C 0.70834 0.12554 0.04787 0.0
C380 C 0.69113 0.15666 0.21608 0.0
H381 H 0.62547 0.15438 0.3051 0.0
C382 C 0.70718 0.18107 0.24842 0.0
C383 C 0.66161 0.14637 0.23786 0.0
C384 C 0.64398 0.11906 0.20794 0.0
C385 C 0.6943 0.19588 0.30104 0.0
C386 C 0.66425 0.18648 0.32082 0.0
C387 C 0.64843 0.16166 0.2895 0.0
C388 C 0.64837 0.20285 0.37211 0.0
C389 C 0.71315 0.22121 0.33535 0.0
C390 C 0.63652 0.18749 0.42786 0.0
C391 C 0.6205 0.2029 0.47486 0.0
C392 C 0.61602 0.23388 0.46659 0.0
C393 C 0.628 0.24911 0.41069 0.0
C394 C 0.64382 0.23371 0.3638 0.0
H395 H 0.73791 0.21923 0.32826 0.0
H396 H 0.70766 0.24339 0.31468 0.0
H397 H 0.70829 0.22128 0.38865 0.0
H398 H 0.63964 0.16359 0.43492 0.0
H399 H 0.61151 0.19053 0.51733 0.0
H400 H 0.34179 0.48809 0.3439 0.0
H401 H 0.37453 0.44846 0.3754 0.0
H402 H 0.32916 0.43941 0.56208 0.0
H403 H 0.29581 0.47874 0.53047 0.0
H404 H 0.4139 0.45248 0.48188 0.0
H405 H 0.33147 0.35066 0.50128 0.0
H406 H 0.32278 0.38478 0.4586 0.0
H407 H 0.32139 0.38336 0.54638 0.0
C408 C 0.33832 0.47731 0.39117 0.0
C409 C 0.31606 0.48648 0.43454 0.0
C410 C 0.35715 0.45473 0.40918 0.0
C411 C 0.35406 0.4408 0.47076 0.0
C412 C 0.33153 0.44947 0.51382 0.0
H413 H 0.49451 0.3468 0.66629 0.0
H414 H 0.45375 0.37941 0.64043 0.0
C415 C 0.31262 0.47207 0.49581 0.0
C416 C 0.37592 0.41886 0.49139 0.0
H417 H 0.38183 0.34521 0.53849 0.0
C418 C 0.40689 0.42902 0.49423 0.0
C419 C 0.36668 0.38826 0.50713 0.0
C420 C 0.33381 0.37593 0.50275 0.0
C421 C 0.42891 0.40944 0.51267 0.0
C422 C 0.41964 0.379 0.5294 0.0
C423 C 0.38872 0.36869 0.52619 0.0
C424 C 0.4421 0.35741 0.54821 0.0
C425 C 0.46202 0.42127 0.51301 0.0
C426 C 0.44837 0.33378 0.50568 0.0
C427 C 0.47165 0.31514 0.52021 0.0
C428 C 0.48886 0.31971 0.57782 0.0
C429 C 0.48166 0.34266 0.62159 0.0
C430 C 0.45847 0.36138 0.60683 0.0
H431 H 0.46583 0.44346 0.48732 0.0
H432 H 0.46985 0.42444 0.56434 0.0
H433 H 0.47624 0.40469 0.48944 0.0
H434 H 0.4359 0.3304 0.46022 0.0
H435 H 0.47657 0.29757 0.48564 0.0
H436 H 0.68389 0.00356 0.88803 0.0
H437 H 0.63938 0.96686 0.87418 0.0
H438 H 0.67573 0.93751 0.69114 0.0
H439 H 0.72014 0.97354 0.7046 0.0
H440 H 0.59493 0.956 0.769 0.0
H441 H 0.66718 0.86003 0.8062 0.0
H442 H 0.67979 0.8988 0.8269 0.0
H443 H 0.68078 0.88614 0.74336 0.0
C444 C 0.68223 0.98952 0.84451 0.0
C445 C 0.70583 0.99116 0.79796 0.0
C446 C 0.65678 0.96861 0.83667 0.0
C447 C 0.65461 0.94916 0.78221 0.0
C448 C 0.67729 0.95194 0.7341 0.0
H449 H 0.50965 0.82506 0.62759 0.0
H450 H 0.54441 0.86984 0.6518 0.0
C451 C 0.70268 0.97259 0.74197 0.0
C452 C 0.62974 0.92463 0.77689 0.0
H453 H 0.61714 0.84745 0.76652 0.0
C454 C 0.59964 0.93223 0.76896 0.0
C455 C 0.63597 0.89367 0.77779 0.0
C456 C 0.66763 0.88407 0.78964 0.0
C457 C 0.57565 0.90956 0.75995 0.0
C458 C 0.58214 0.87864 0.75793 0.0
C459 C 0.61217 0.87115 0.76758 0.0
C460 C 0.55844 0.85338 0.74602 0.0
C461 C 0.54362 0.91888 0.75332 0.0
C462 C 0.55487 0.82918 0.79064 0.0
C463 C 0.53549 0.80344 0.77648 0.0
C464 C 0.51911 0.80132 0.71736 0.0
C465 C 0.52183 0.82604 0.67367 0.0
C466 C 0.54153 0.85176 0.68766 0.0
H467 H 0.54136 0.94179 0.77453 0.0
H468 H 0.53761 0.91979 0.70067 0.0
H469 H 0.52704 0.90227 0.77771 0.0
H470 H 0.5677 0.8299 0.83592 0.0
H471 H 0.53375 0.78495 0.81153 0.0
H472 H 0.99749 0.15139 0.16604 0.0
H473 H 0.03917 0.11921 0.14514 0.0
H474 H 0.05631 0.16377 0.95948 0.0
H475 H 0.01493 0.19622 0.98016 0.0
H476 H 0.04135 0.07936 0.03847 0.0
H477 H 0.14181 0.16379 0.04133 0.0
H478 H 0.10559 0.17145 0.07638 0.0
H479 H 0.11129 0.17389 0.98944 0.0
C480 C 0.01044 0.1547 0.12125 0.0
C481 C 0.00295 0.17641 0.07481 0.0
C482 C 0.0342 0.13625 0.10934 0.0
C483 C 0.05104 0.13938 0.05115 0.0
C484 C 0.04398 0.16139 0.00525 0.0
H485 H 0.15181 0.00574 0.8567 0.0
H486 H 0.11758 0.04446 0.88655 0.0
C487 C 0.02018 0.17977 0.01699 0.0
C488 C 0.07439 0.11808 0.03608 0.0
H489 H 0.14962 0.11454 0.99922 0.0
C490 C 0.06506 0.08702 0.03031 0.0
C491 C 0.10532 0.12815 0.02591 0.0
C492 C 0.11675 0.1611 0.03412 0.0
C493 C 0.08571 0.06579 0.01312 0.0
C494 C 0.11641 0.07598 0.00069 0.0
C495 C 0.12596 0.10692 0.00807 0.0
C496 C 0.13881 0.05461 0.98028 0.0
C497 C 0.07458 0.03257 0.00866 0.0
C498 C 0.16267 0.04829 0.02224 0.0
C499 C 0.18234 0.02621 0.0053 0.0
C500 C 0.17856 0.01027 0.94585 0.0
C501 C 0.15536 0.01759 0.9028 0.0
C502 C 0.13567 0.03959 0.91989 0.0
H503 H 0.05231 0.0277 0.03356 0.0
H504 H 0.0717 0.0261 0.95643 0.0
H505 H 0.09134 0.01806 0.03066 0.0
H506 H 0.16549 0.05978 0.06896 0.0
H507 H 0.20005 0.02116 0.03943 0.0
H508 H 0.97132 0.72072 0.29873 0.0
H509 H 0.93597 0.67675 0.32281 0.0
H510 H 0.95545 0.63774 0.13543 0.0
H511 H 0.99161 0.68144 0.11156 0.0
H512 H 0.88518 0.66115 0.25683 0.0
H513 H 0.95816 0.56449 0.25378 0.0
H514 H 0.97364 0.60364 0.25738 0.0
H515 H 0.96116 0.58703 0.18061 0.0
C516 C 0.96844 0.70262 0.26288 0.0
C517 C 0.98421 0.70467 0.20305 0.0
C518 C 0.94823 0.67745 0.27683 0.0
C519 C 0.94322 0.65378 0.23125 0.0
C520 C 0.95943 0.65537 0.17202 0.0
H521 H 0.77643 0.53742 0.20937 0.0
H522 H 0.82044 0.57335 0.18943 0.0
C523 C 0.97996 0.68047 0.15825 0.0
C524 C 0.91901 0.62904 0.24363 0.0
H525 H 0.90437 0.55183 0.25287 0.0
C526 C 0.88947 0.63726 0.25634 0.0
C527 C 0.92465 0.59787 0.24365 0.0
C528 C 0.95618 0.58768 0.23377 0.0
C529 C 0.86535 0.61528 0.26816 0.0
C530 C 0.87068 0.58409 0.26551 0.0
C531 C 0.9003 0.57576 0.25407 0.0
C532 C 0.84555 0.56001 0.27423 0.0
C533 C 0.83442 0.62573 0.28424 0.0
C534 C 0.84567 0.53958 0.3269 0.0
C535 C 0.82056 0.5187 0.33823 0.0
C536 C 0.79492 0.518 0.29704 0.0
C537 C 0.79556 0.53763 0.2427 0.0
C538 C 0.82068 0.55826 0.23123 0.0
H539 H 0.83606 0.6496 0.30217 0.0
H540 H 0.82017 0.62466 0.23942 0.0
H541 H 0.8227 0.61093 0.32197 0.0
H542 H 0.86476 0.54046 0.36043 0.0
H543 H 0.82086 0.50383 0.38036 0.0
H544 H 0.32473 0.98861 0.85683 0.0
H545 H 0.37195 0.02052 0.83607 0.0
H546 H 0.32147 0.08336 0.72678 0.0
H547 H 0.27466 0.05149 0.74557 0.0
H548 H 0.37383 0.07197 0.66523 0.0
H549 H 0.39647 0.1004 0.92688 0.0
H550 H 0.3938 0.0606 0.90698 0.0
H551 H 0.36079 0.08175 0.89961 0.0
C552 C 0.32373 0.00923 0.82837 0.0
C553 C 0.29584 0.01753 0.80316 0.0
C554 C 0.35072 0.02749 0.81675 0.0
C555 C 0.35019 0.05454 0.78055 0.0
C556 C 0.32246 0.06258 0.75476 0.0
H557 H 0.45111 0.22379 0.77493 0.0
H558 H 0.41862 0.17734 0.79233 0.0
C559 C 0.29565 0.04431 0.76577 0.0
C560 C 0.37808 0.07516 0.76995 0.0
H561 H 0.42982 0.12386 0.84936 0.0
C562 C 0.38636 0.08308 0.70543 0.0
C563 C 0.3943 0.08966 0.82256 0.0
C564 C 0.38586 0.08294 0.89294 0.0
C565 C 0.40936 0.10617 0.69203 0.0
C566 C 0.42503 0.12122 0.74468 0.0
C567 C 0.41781 0.1122 0.80911 0.0
C568 C 0.44609 0.14884 0.73465 0.0
C569 C 0.41535 0.11546 0.62184 0.0
C570 C 0.47262 0.14832 0.69667 0.0
C571 C 0.49128 0.17515 0.68588 0.0
C572 C 0.48388 0.20283 0.71365 0.0
C573 C 0.45762 0.20297 0.75274 0.0
C574 C 0.43898 0.17635 0.76296 0.0
H575 H 0.39728 0.10566 0.58833 0.0
H576 H 0.41697 0.14061 0.61682 0.0
H577 H 0.43731 0.10727 0.60585 0.0
H578 H 0.47888 0.12723 0.67534 0.0
H579 H 0.51146 0.17418 0.65599 0.0
H580 H 0.80407 0.98579 0.02411 0.0
H581 H 0.83699 0.94512 0.04758 0.0
H582 H 0.88113 0.95993 0.86077 0.0
H583 H 0.84853 0.00101 0.8371 0.0
H584 H 0.84722 0.89075 0.97877 0.0
H585 H 0.95109 0.97074 0.99566 0.0
H586 H 0.91319 0.98348 0.99619 0.0
H587 H 0.93007 0.97263 0.92063 0.0
C588 C 0.82063 0.98029 0.98775 0.0
C589 C 0.82384 0.99676 0.92888 0.0
C590 C 0.83937 0.95699 0.00123 0.0
C591 C 0.86173 0.94986 0.95632 0.0
C592 C 0.86428 0.96546 0.89647 0.0
H593 H 0.97436 0.7974 0.96322 0.0
H594 H 0.93548 0.83234 0.93922 0.0
C595 C 0.84551 0.98878 0.88287 0.0
C596 C 0.88307 0.92685 0.97344 0.0
H597 H 0.95796 0.91829 0.00453 0.0
C598 C 0.87145 0.8967 0.98436 0.0
C599 C 0.91455 0.93487 0.98169 0.0
C600 C 0.92805 0.96722 0.97354 0.0
C601 C 0.89063 0.87418 0.00253 0.0
C602 C 0.9222 0.88209 0.00929 0.0
C603 C 0.93374 0.91231 0.99905 0.0
C604 C 0.94388 0.85942 0.02659 0.0
C605 C 0.87693 0.84228 0.01541 0.0
C606 C 0.96154 0.86316 0.08357 0.0
C607 C 0.98387 0.8433 0.09735 0.0
C608 C 0.98905 0.8195 0.05404 0.0
C609 C 0.97086 0.81545 0.99769 0.0
C610 C 0.94851 0.83529 0.98403 0.0
H611 H 0.85199 0.84167 0.02399 0.0
H612 H 0.8808 0.82782 0.97227 0.0
H613 H 0.88779 0.83224 0.05847 0.0
H614 H 0.95839 0.88177 0.11683 0.0
H615 H 0.99761 0.84715 0.14093 0.0
H616 H 0.98382 0.32307 0.13958 0.0
H617 H 0.01734 0.36962 0.15665 0.0
H618 H 0.07541 0.31993 0.27996 0.0
H619 H 0.04203 0.2739 0.26473 0.0
H620 H 0.06454 0.37463 0.33265 0.0
H621 H 0.10027 0.38809 0.07241 0.0
H622 H 0.06009 0.38742 0.08774 0.0
H623 H 0.0797 0.35389 0.10246 0.0
C624 C 0.00374 0.3221 0.17032 0.0
C625 C 0.01025 0.29468 0.20056 0.0
C626 C 0.02292 0.34869 0.17982 0.0
C627 C 0.04907 0.34816 0.21901 0.0
C628 C 0.05534 0.32091 0.24963 0.0
H629 H 0.22192 0.44315 0.23317 0.0
H630 H 0.17498 0.41151 0.21385 0.0
C631 C 0.03619 0.29453 0.24065 0.0
C632 C 0.07056 0.37552 0.22816 0.0
H633 H 0.12354 0.42255 0.14808 0.0
C634 C 0.07721 0.38542 0.29227 0.0
C635 C 0.08711 0.38942 0.17535 0.0
C636 C 0.08171 0.37912 0.1056 0.0
C637 C 0.10096 0.40776 0.30539 0.0
C638 C 0.11802 0.42112 0.25269 0.0
C639 C 0.11037 0.4123 0.18835 0.0
C640 C 0.14602 0.44156 0.26341 0.0
C641 C 0.10871 0.41546 0.37571 0.0
C642 C 0.14539 0.4692 0.29737 0.0
C643 C 0.17243 0.48732 0.30931 0.0
C644 C 0.20047 0.47828 0.28661 0.0
C645 C 0.2008 0.4509 0.25139 0.0
C646 C 0.17392 0.43276 0.24008 0.0
H647 H 0.09748 0.39865 0.4103 0.0
H648 H 0.13368 0.41642 0.38379 0.0
H649 H 0.10092 0.43813 0.38756 0.0
H650 H 0.12405 0.47674 0.31471 0.0
H651 H 0.17133 0.50841 0.33602 0.0
H652 H 0.5409 0.7182 0.50261 0.0
H653 H 0.58219 0.68556 0.48072 0.0
H654 H 0.53908 0.61652 0.60732 0.0
H655 H 0.49908 0.64983 0.63256 0.0
H656 H 0.59647 0.61824 0.62484 0.0
H657 H 0.57693 0.61677 0.35692 0.0
H658 H 0.58737 0.65425 0.38748 0.0
H659 H 0.55203 0.63427 0.41278 0.0
C660 C 0.54046 0.69612 0.52603 0.0
C661 C 0.51674 0.6864 0.56889 0.0
C662 C 0.56389 0.67737 0.51304 0.0
C663 C 0.56336 0.64814 0.5408 0.0
C664 C 0.54002 0.63886 0.58499 0.0
H665 H 0.64548 0.49319 0.38747 0.0
H666 H 0.61421 0.53459 0.41507 0.0
C667 C 0.51712 0.65791 0.59936 0.0
C668 C 0.58664 0.62684 0.5236 0.0
H669 H 0.61886 0.59176 0.39517 0.0
C670 C 0.60133 0.61241 0.57457 0.0
C671 C 0.59278 0.61894 0.45801 0.0
C672 C 0.57623 0.63162 0.40072 0.0
C673 C 0.62125 0.58981 0.56205 0.0
C674 C 0.62796 0.58246 0.49643 0.0
C675 C 0.61392 0.5975 0.44545 0.0
C676 C 0.64768 0.55779 0.47924 0.0
C677 C 0.63358 0.5731 0.6195 0.0
C678 C 0.67715 0.5571 0.50528 0.0
C679 C 0.69472 0.53287 0.49099 0.0
C680 C 0.68354 0.50955 0.44853 0.0
C681 C 0.65465 0.51092 0.42032 0.0
C682 C 0.63679 0.53462 0.43601 0.0
H683 H 0.6193 0.57503 0.66387 0.0
H684 H 0.63482 0.54858 0.60841 0.0
H685 H 0.6568 0.5832 0.63129 0.0
H686 H 0.68656 0.57519 0.53682 0.0
H687 H 0.71713 0.53254 0.51262 0.0
loop_
_geom_bond_atom_site_label_1
_geom_bond_atom_site_label_2
_geom_bond_distance
_geom_bond_site_symmetry_2
_ccdc_geom_bond_type
Mg0 O1 2.028 . S
Mg0 O7 1.986 . S
Mg0 O9 2.114 . S
Mg0 O10 2.251 . S
Mg0 O13 2.010 . S
O1 Mg0 2.028 . S
O1 C4 1.250 . S
O2 Mg3 2.028 . S
O2 C4 1.248 . S
Mg3 O2 2.028 . S
Mg3 O8 2.032 . S
Mg3 O10 2.079 . S
C4 O1 1.250 . S
C4 O2 1.248 . S
C5 O6 1.264 . S
C5 O13 1.249 . S
O6 C5 1.264 . S
O7 Mg0 1.986 . S
O7 C11 1.246 . S
O8 Mg3 2.032 . S
O8 C11 1.259 . S
O9 Mg0 2.114 . S
O9 C12 1.252 . S
O10 Mg0 2.251 . S
O10 Mg3 2.079 . S
O10 C12 1.273 . S
C11 O7 1.246 . S
C11 O8 1.259 . S
C12 O9 1.252 . S
C12 O10 1.273 . S
O13 Mg0 2.010 . S
O13 C5 1.249 . S
Mg14 O15 2.028 . S
Mg14 O21 1.986 . S
Mg14 O23 2.114 . S
Mg14 O24 2.251 . S
Mg14 O27 2.010 . S
O15 Mg14 2.028 . S
O15 C18 1.250 . S
O16 Mg17 2.028 . S
O16 C18 1.248 . S
Mg17 O16 2.028 . S
Mg17 O22 2.032 . S
Mg17 O24 2.079 . S
C18 O15 1.250 . S
C18 O16 1.248 . S
C19 O20 1.264 . S
C19 O27 1.249 . S
O20 C19 1.264 . S
O21 Mg14 1.986 . S
O21 C25 1.246 . S
O22 Mg17 2.032 . S
O22 C25 1.259 . S
O23 Mg14 2.114 . S
O23 C26 1.252 . S
O24 Mg14 2.251 . S
O24 Mg17 2.079 . S
O24 C26 1.273 . S
C25 O21 1.246 . S
C25 O22 1.259 . S
C26 O23 1.252 . S
C26 O24 1.273 . S
O27 Mg14 2.010 . S
O27 C19 1.249 . S
Mg28 O29 2.028 . S
Mg28 O35 1.986 . S
Mg28 O37 2.114 . S
Mg28 O38 2.251 . S
Mg28 O41 2.010 . S
O29 Mg28 2.028 . S
O29 C32 1.250 . S
O30 Mg31 2.026 1_545 S
O30 C32 1.233 1_545 S
Mg31 O30 2.026 1_565 S
Mg31 O36 2.032 . S
Mg31 O38 2.079 . S
C32 O29 1.250 . S
C32 O30 1.233 1_565 S
C33 O34 1.264 . S
C33 O41 1.249 1_554 S
O34 C33 1.264 . S
O35 Mg28 1.986 . S
O35 C39 1.246 . S
O36 Mg31 2.032 . S
O36 C39 1.259 . S
O37 Mg28 2.114 . S
O37 C40 1.252 . S
O38 Mg28 2.251 . S
O38 Mg31 2.079 . S
O38 C40 1.273 . S
C39 O35 1.246 . S
C39 O36 1.259 . S
C40 O37 1.252 . S
C40 O38 1.273 . S
O41 Mg28 2.010 . S
O41 C33 1.249 1_556 S
Mg42 O43 2.028 . S
Mg42 O49 1.986 . S
Mg42 O51 2.114 . S
Mg42 O52 2.251 . S
Mg42 O55 2.010 . S
O43 Mg42 2.028 . S
O43 C46 1.250 . S
O44 Mg45 2.026 1_655 S
O44 C46 1.233 1_655 S
Mg45 O44 2.026 1_455 S
Mg45 O50 2.032 . S
Mg45 O52 2.079 . S
C46 O43 1.250 . S
C46 O44 1.233 1_455 S
C47 O48 1.264 . S
C47 O55 1.249 1_556 S
O48 C47 1.264 . S
O49 Mg42 1.986 . S
O49 C53 1.246 . S
O50 Mg45 2.032 . S
O50 C53 1.259 . S
O51 Mg42 2.114 . S
O51 C54 1.252 . S
O52 Mg42 2.251 . S
O52 Mg45 2.079 . S
O52 C54 1.273 . S
C53 O49 1.246 . S
C53 O50 1.259 . S
C54 O51 1.252 . S
C54 O52 1.273 . S
O55 Mg42 2.010 . S
O55 C47 1.249 1_554 S
Mg56 O57 2.028 . S
Mg56 O63 1.986 . S
Mg56 O65 2.114 . S
Mg56 O66 2.251 . S
Mg56 O69 2.010 . S
O57 Mg56 2.028 . S
O57 C60 1.250 . S
O58 Mg59 2.026 1_565 S
O58 C60 1.233 1_565 S
Mg59 O58 2.026 1_545 S
Mg59 O64 2.032 . S
Mg59 O66 2.079 . S
C60 O57 1.250 . S
C60 O58 1.233 1_545 S
C61 O62 1.264 . S
C61 O69 1.249 1_554 S
O62 C61 1.264 . S
O63 Mg56 1.986 . S
O63 C67 1.246 . S
O64 Mg59 2.032 . S
O64 C67 1.259 . S
O65 Mg56 2.114 . S
O65 C68 1.252 . S
O66 Mg56 2.251 . S
O66 Mg59 2.079 . S
O66 C68 1.273 . S
C67 O63 1.246 . S
C67 O64 1.259 . S
C68 O65 1.252 . S
C68 O66 1.273 . S
O69 Mg56 2.010 . S
O69 C61 1.249 1_556 S
Mg70 O71 2.028 . S
Mg70 O77 1.986 . S
Mg70 O79 2.114 . S
Mg70 O80 2.251 . S
Mg70 O83 2.010 . S
O71 Mg70 2.028 . S
O71 C74 1.250 . S
O72 Mg73 2.026 1_455 S
O72 C74 1.233 1_455 S
Mg73 O72 2.026 1_655 S
Mg73 O78 2.032 . S
Mg73 O80 2.079 . S
C74 O71 1.250 . S
C74 O72 1.233 1_655 S
C75 O76 1.264 . S
C75 O83 1.249 1_556 S
O76 C75 1.264 . S
O77 Mg70 1.986 . S
O77 C81 1.246 . S
O78 Mg73 2.032 . S
O78 C81 1.259 . S
O79 Mg70 2.114 . S
O79 C82 1.252 . S
O80 Mg70 2.251 . S
O80 Mg73 2.079 . S
O80 C82 1.273 . S
C81 O77 1.246 . S
C81 O78 1.259 . S
C82 O79 1.252 . S
C82 O80 1.273 . S
O83 Mg70 2.010 . S
O83 C75 1.249 1_554 S
Mg84 O85 2.028 . S
Mg84 O91 1.986 . S
Mg84 O93 2.114 . S
Mg84 O94 2.251 . S
Mg84 O97 2.010 . S
O85 Mg84 2.028 . S
O85 C88 1.250 . S
O86 Mg87 2.028 . S
O86 C88 1.248 . S
Mg87 O86 2.028 . S
Mg87 O92 2.032 . S
Mg87 O94 2.079 . S
C88 O85 1.250 . S
C88 O86 1.248 . S
C89 O90 1.264 . S
C89 O97 1.249 . S
O90 C89 1.264 . S
O91 Mg84 1.986 . S
O91 C95 1.246 . S
O92 Mg87 2.032 . S
O92 C95 1.259 . S
O93 Mg84 2.114 . S
O93 C96 1.252 . S
O94 Mg84 2.251 . S
O94 Mg87 2.079 . S
O94 C96 1.273 . S
C95 O91 1.246 . S
C95 O92 1.259 . S
C96 O93 1.252 . S
C96 O94 1.273 . S
O97 Mg84 2.010 . S
O97 C89 1.249 . S
Mg98 O99 2.028 . S
Mg98 O105 1.986 . S
Mg98 O107 2.114 . S
Mg98 O108 2.251 . S
Mg98 O111 2.010 . S
O99 Mg98 2.028 . S
O99 C102 1.250 . S
O100 Mg101 2.028 . S
O100 C102 1.248 . S
Mg101 O100 2.028 . S
Mg101 O106 2.032 . S
Mg101 O108 2.079 . S
C102 O99 1.250 . S
C102 O100 1.248 . S
C103 O104 1.264 . S
C103 O111 1.249 . S
O104 C103 1.264 . S
O105 Mg98 1.986 . S
O105 C109 1.246 . S
O106 Mg101 2.032 . S
O106 C109 1.259 . S
O107 Mg98 2.114 . S
O107 C110 1.252 . S
O108 Mg98 2.251 . S
O108 Mg101 2.079 . S
O108 C110 1.273 . S
C109 O105 1.246 . S
C109 O106 1.259 . S
C110 O107 1.252 . S
C110 O108 1.273 . S
O111 Mg98 2.010 . S
O111 C103 1.249 . S
H112 C120 0.929 . S
H113 C122 0.930 . S
H114 C124 0.930 . S
H115 C127 0.929 . S
H116 C130 0.930 . S
H117 C132 0.960 . S
H118 C132 0.960 . S
H119 C132 0.960 1_556 S
C120 H112 0.929 . S
C120 C121 1.377 . S
C120 C122 1.384 . S
C121 C120 1.377 . S
C121 C127 1.390 . S
C122 H113 0.930 . S
C122 C120 1.384 . S
C122 C123 1.372 . S
C123 C122 1.372 . S
C123 C124 1.400 . S
C123 C128 1.490 . S
C124 H114 0.930 . S
C124 C123 1.400 . S
C124 C127 1.386 . S
H125 C141 0.930 . S
H126 C142 0.931 . S
C127 H115 0.929 . S
C127 C121 1.390 . S
C127 C124 1.386 . S
C128 C123 1.490 . S
C128 C130 1.395 . S
C128 C131 1.403 1_556 S
H129 C135 0.930 . S
C130 H116 0.930 . S
C130 C128 1.395 . S
C130 C133 1.403 . S
C131 C128 1.403 1_554 S
C131 C132 1.524 . S
C131 C135 1.400 . S
C132 H117 0.960 . S
C132 H118 0.960 . S
C132 H119 0.960 1_554 S
C132 C131 1.524 . S
C133 C130 1.403 . S
C133 C134 1.392 1_556 S
C133 C137 1.495 . S
C134 C133 1.392 1_554 S
C134 C135 1.385 . S
C134 C136 1.478 . S
C135 H129 0.930 . S
C135 C131 1.400 . S
C135 C134 1.385 . S
C136 C134 1.478 . S
C136 C138 1.381 . S
C136 C142 1.383 . S
C137 C133 1.495 . S
C137 H143 0.959 . S
C137 H144 0.961 . S
C137 H145 0.960 1_556 S
C138 C136 1.381 . S
C138 C139 1.394 . S
C138 H146 0.930 . S
C139 C138 1.394 . S
C139 C140 1.383 . S
C139 H147 0.929 . S
C140 C139 1.383 . S
C140 C141 1.377 . S
C141 H125 0.930 . S
C141 C140 1.377 . S
C141 C142 1.379 . S
C142 H126 0.931 . S
C142 C136 1.383 . S
C142 C141 1.379 . S
H143 C137 0.959 . S
H144 C137 0.961 . S
H145 C137 0.960 1_554 S
H146 C138 0.930 . S
H147 C139 0.929 . S
H148 C156 0.929 . S
H149 C158 0.930 . S
H150 C160 0.930 . S
H151 C163 0.929 . S
H152 C166 0.930 . S
H153 C168 0.960 . S
H154 C168 0.960 . S
H155 C168 0.960 . S
C156 H148 0.929 . S
C156 C157 1.377 . S
C156 C158 1.384 . S
C157 C156 1.377 . S
C157 C163 1.390 . S
C158 H149 0.930 . S
C158 C156 1.384 . S
C158 C159 1.372 . S
C159 C158 1.372 . S
C159 C160 1.400 . S
C159 C164 1.490 . S
C160 H150 0.930 . S
C160 C159 1.400 . S
C160 C163 1.386 . S
H161 C177 0.930 . S
H162 C178 0.931 . S
C163 H151 0.929 . S
C163 C157 1.390 . S
C163 C160 1.386 . S
C164 C159 1.490 . S
C164 C166 1.395 . S
C164 C167 1.403 . S
H165 C171 0.930 . S
C166 H152 0.930 . S
C166 C164 1.395 . S
C166 C169 1.403 . S
C167 C164 1.403 . S
C167 C168 1.524 . S
C167 C171 1.400 . S
C168 H153 0.960 . S
C168 H154 0.960 . S
C168 H155 0.960 . S
C168 C167 1.524 . S
C169 C166 1.403 . S
C169 C170 1.392 . S
C169 C173 1.495 . S
C170 C169 1.392 . S
C170 C171 1.385 . S
C170 C172 1.478 . S
C171 H165 0.930 . S
C171 C167 1.400 . S
C171 C170 1.385 . S
C172 C170 1.478 . S
C172 C174 1.381 . S
C172 C178 1.383 . S
C173 C169 1.495 . S
C173 H179 0.959 . S
C173 H180 0.961 . S
C173 H181 0.960 . S
C174 C172 1.381 . S
C174 C175 1.394 . S
C174 H182 0.930 . S
C175 C174 1.394 . S
C175 C176 1.383 . S
C175 H183 0.929 . S
C176 C175 1.383 . S
C176 C177 1.377 . S
C177 H161 0.930 . S
C177 C176 1.377 . S
C177 C178 1.379 . S
C178 H162 0.931 . S
C178 C172 1.383 . S
C178 C177 1.379 . S
H179 C173 0.959 . S
H180 C173 0.961 . S
H181 C173 0.960 . S
H182 C174 0.930 . S
H183 C175 0.929 . S
H184 C192 0.929 . S
H185 C194 0.930 . S
H186 C196 0.930 . S
H187 C199 0.929 . S
H188 C202 0.930 . S
H189 C204 0.960 . S
H190 C204 0.960 . S
H191 C204 0.960 . S
C192 H184 0.929 . S
C192 C193 1.377 . S
C192 C194 1.384 . S
C193 C192 1.377 . S
C193 C199 1.390 . S
C194 H185 0.930 . S
C194 C192 1.384 . S
C194 C195 1.372 . S
C195 C194 1.372 . S
C195 C196 1.400 . S
C195 C200 1.490 . S
C196 H186 0.930 . S
C196 C195 1.400 . S
C196 C199 1.386 . S
H197 C213 0.930 . S
H198 C214 0.931 . S
C199 H187 0.929 . S
C199 C193 1.390 . S
C199 C196 1.386 . S
C200 C195 1.490 . S
C200 C202 1.395 . S
C200 C203 1.403 . S
H201 C207 0.930 . S
C202 H188 0.930 . S
C202 C200 1.395 . S
C202 C205 1.403 . S
C203 C200 1.403 . S
C203 C204 1.524 . S
C203 C207 1.400 . S
C204 H189 0.960 . S
C204 H190 0.960 . S
C204 H191 0.960 . S
C204 C203 1.524 . S
C205 C202 1.403 . S
C205 C206 1.392 . S
C205 C209 1.495 . S
C206 C205 1.392 . S
C206 C207 1.385 . S
C206 C208 1.478 . S
C207 H201 0.930 . S
C207 C203 1.400 . S
C207 C206 1.385 . S
C208 C206 1.478 . S
C208 C210 1.381 . S
C208 C214 1.383 . S
C209 C205 1.495 . S
C209 H215 0.959 . S
C209 H216 0.961 . S
C209 H217 0.960 . S
C210 C208 1.381 . S
C210 C211 1.394 . S
C210 H218 0.930 . S
C211 C210 1.394 . S
C211 C212 1.383 . S
C211 H219 0.929 . S
C212 C211 1.383 . S
C212 C213 1.377 . S
C213 H197 0.930 . S
C213 C212 1.377 . S
C213 C214 1.379 . S
C214 H198 0.931 . S
C214 C208 1.383 . S
C214 C213 1.379 . S
H215 C209 0.959 . S
H216 C209 0.961 . S
H217 C209 0.960 . S
H218 C210 0.930 . S
H219 C211 0.929 . S
H220 C228 0.929 . S
H221 C230 0.930 . S
H222 C232 0.930 . S
H223 C235 0.929 . S
H224 C238 0.930 . S
H225 C240 0.960 . S
H226 C240 0.960 . S
H227 C240 0.960 . S
C228 H220 0.929 . S
C228 C229 1.377 . S
C228 C230 1.384 . S
C229 C228 1.377 . S
C229 C235 1.390 . S
C230 H221 0.930 . S
C230 C228 1.384 . S
C230 C231 1.372 . S
C231 C230 1.372 . S
C231 C232 1.400 . S
C231 C236 1.490 . S
C232 H222 0.930 . S
C232 C231 1.400 . S
C232 C235 1.386 . S
H233 C249 0.930 . S
H234 C250 0.931 . S
C235 H223 0.929 . S
C235 C229 1.390 . S
C235 C232 1.386 . S
C236 C231 1.490 . S
C236 C238 1.395 . S
C236 C239 1.403 . S
H237 C243 0.930 . S
C238 H224 0.930 . S
C238 C236 1.395 . S
C238 C241 1.403 . S
C239 C236 1.403 . S
C239 C240 1.524 . S
C239 C243 1.400 . S
C240 H225 0.960 . S
C240 H226 0.960 . S
C240 H227 0.960 . S
C240 C239 1.524 . S
C241 C238 1.403 . S
C241 C242 1.392 . S
C241 C245 1.495 . S
C242 C241 1.392 . S
C242 C243 1.385 . S
C242 C244 1.478 . S
C243 H237 0.930 . S
C243 C239 1.400 . S
C243 C242 1.385 . S
C244 C242 1.478 . S
C244 C246 1.381 . S
C244 C250 1.383 . S
C245 C241 1.495 . S
C245 H251 0.959 . S
C245 H252 0.961 . S
C245 H253 0.960 . S
C246 C244 1.381 . S
C246 C247 1.394 . S
C246 H254 0.930 . S
C247 C246 1.394 . S
C247 C248 1.383 . S
C247 H255 0.929 . S
C248 C247 1.383 . S
C248 C249 1.377 . S
C249 H233 0.930 . S
C249 C248 1.377 . S
C249 C250 1.379 . S
C250 H234 0.931 . S
C250 C244 1.383 . S
C250 C249 1.379 . S
H251 C245 0.959 . S
H252 C245 0.961 . S
H253 C245 0.960 . S
H254 C246 0.930 . S
H255 C247 0.929 . S
H256 C264 0.929 . S
H257 C266 0.930 . S
H258 C268 0.930 . S
H259 C271 0.929 . S
H260 C274 0.930 . S
H261 C276 0.960 . S
H262 C276 0.960 . S
H263 C276 0.960 . S
C264 H256 0.929 . S
C264 C265 1.377 . S
C264 C266 1.384 . S
C265 C264 1.377 . S
C265 C271 1.390 . S
C266 H257 0.930 . S
C266 C264 1.384 . S
C266 C267 1.372 . S
C267 C266 1.372 . S
C267 C268 1.400 . S
C267 C272 1.490 . S
C268 H258 0.930 . S
C268 C267 1.400 . S
C268 C271 1.386 . S
H269 C285 0.930 . S
H270 C286 0.931 . S
C271 H259 0.929 . S
C271 C265 1.390 . S
C271 C268 1.386 . S
C272 C267 1.490 . S
C272 C274 1.395 . S
C272 C275 1.403 . S
H273 C279 0.930 . S
C274 H260 0.930 . S
C274 C272 1.395 . S
C274 C277 1.403 . S
C275 C272 1.403 . S
C275 C276 1.524 . S
C275 C279 1.400 . S
C276 H261 0.960 . S
C276 H262 0.960 . S
C276 H263 0.960 . S
C276 C275 1.524 . S
C277 C274 1.403 . S
C277 C278 1.392 . S
C277 C281 1.495 . S
C278 C277 1.392 . S
C278 C279 1.385 . S
C278 C280 1.478 . S
C279 H273 0.930 . S
C279 C275 1.400 . S
C279 C278 1.385 . S
C280 C278 1.478 . S
C280 C282 1.381 . S
C280 C286 1.383 . S
C281 C277 1.495 . S
C281 H287 0.959 . S
C281 H288 0.961 . S
C281 H289 0.960 . S
C282 C280 1.381 . S
C282 C283 1.394 . S
C282 H290 0.930 . S
C283 C282 1.394 . S
C283 C284 1.383 . S
C283 H291 0.929 . S
C284 C283 1.383 . S
C284 C285 1.377 . S
C285 H269 0.930 . S
C285 C284 1.377 . S
C285 C286 1.379 . S
C286 H270 0.931 . S
C286 C280 1.383 . S
C286 C285 1.379 . S
H287 C281 0.959 . S
H288 C281 0.961 . S
H289 C281 0.960 . S
H290 C282 0.930 . S
H291 C283 0.929 . S
H292 C300 0.929 . S
H293 C302 0.930 . S
H294 C304 0.930 . S
H295 C307 0.929 . S
H296 C310 0.930 . S
H297 C312 0.960 . S
H298 C312 0.960 . S
H299 C312 0.960 . S
C300 H292 0.929 . S
C300 C301 1.377 . S
C300 C302 1.384 . S
C301 C300 1.377 . S
C301 C307 1.390 . S
C302 H293 0.930 . S
C302 C300 1.384 . S
C302 C303 1.372 . S
C303 C302 1.372 . S
C303 C304 1.400 . S
C303 C308 1.490 . S
C304 H294 0.930 . S
C304 C303 1.400 . S
C304 C307 1.386 . S
H305 C321 0.930 . S
H306 C322 0.931 . S
C307 H295 0.929 . S
C307 C301 1.390 . S
C307 C304 1.386 . S
C308 C303 1.490 . S
C308 C310 1.395 . S
C308 C311 1.403 . S
H309 C315 0.930 . S
C310 H296 0.930 . S
C310 C308 1.395 . S
C310 C313 1.403 . S
C311 C308 1.403 . S
C311 C312 1.524 . S
C311 C315 1.400 . S
C312 H297 0.960 . S
C312 H298 0.960 . S
C312 H299 0.960 . S
C312 C311 1.524 . S
C313 C310 1.403 . S
C313 C314 1.392 . S
C313 C317 1.495 . S
C314 C313 1.392 . S
C314 C315 1.385 . S
C314 C316 1.478 . S
C315 H309 0.930 . S
C315 C311 1.400 . S
C315 C314 1.385 . S
C316 C314 1.478 . S
C316 C318 1.381 . S
C316 C322 1.383 . S
C317 C313 1.495 . S
C317 H323 0.959 . S
C317 H324 0.961 . S
C317 H325 0.960 . S
C318 C316 1.381 . S
C318 C319 1.394 . S
C318 H326 0.930 . S
C319 C318 1.394 . S
C319 C320 1.383 . S
C319 H327 0.929 . S
C320 C319 1.383 . S
C320 C321 1.377 . S
C321 H305 0.930 . S
C321 C320 1.377 . S
C321 C322 1.379 . S
C322 H306 0.931 . S
C322 C316 1.383 . S
C322 C321 1.379 . S
H323 C317 0.959 . S
H324 C317 0.961 . S
H325 C317 0.960 . S
H326 C318 0.930 . S
H327 C319 0.929 . S
H328 C336 0.929 . S
H329 C338 0.930 . S
H330 C340 0.930 . S
H331 C343 0.929 . S
H332 C346 0.930 . S
H333 C348 0.960 . S
H334 C348 0.960 . S
H335 C348 0.960 1_554 S
C336 H328 0.929 . S
C336 C337 1.377 . S
C336 C338 1.384 . S
C337 C336 1.377 . S
C337 C343 1.390 . S
C338 H329 0.930 . S
C338 C336 1.384 . S
C338 C339 1.372 . S
C339 C338 1.372 . S
C339 C340 1.400 . S
C339 C344 1.490 . S
C340 H330 0.930 . S
C340 C339 1.400 . S
C340 C343 1.386 . S
H341 C357 0.930 . S
H342 C358 0.931 . S
C343 H331 0.929 . S
C343 C337 1.390 . S
C343 C340 1.386 . S
C344 C339 1.490 . S
C344 C346 1.395 . S
C344 C347 1.403 1_554 S
H345 C351 0.930 . S
C346 H332 0.930 . S
C346 C344 1.395 . S
C346 C349 1.403 . S
C347 C344 1.403 1_556 S
C347 C348 1.524 . S
C347 C351 1.400 . S
C348 H333 0.960 . S
C348 H334 0.960 . S
C348 H335 0.960 1_556 S
C348 C347 1.524 . S
C349 C346 1.403 . S
C349 C350 1.392 1_554 S
C349 C353 1.495 . S
C350 C349 1.392 1_556 S
C350 C351 1.385 . S
C350 C352 1.478 . S
C351 H345 0.930 . S
C351 C347 1.400 . S
C351 C350 1.385 . S
C352 C350 1.478 . S
C352 C354 1.381 . S
C352 C358 1.383 . S
C353 C349 1.495 . S
C353 H359 0.959 . S
C353 H360 0.961 . S
C353 H361 0.960 1_554 S
C354 C352 1.381 . S
C354 C355 1.394 . S
C354 H362 0.930 . S
C355 C354 1.394 . S
C355 C356 1.383 . S
C355 H363 0.929 . S
C356 C355 1.383 . S
C356 C357 1.377 . S
C357 H341 0.930 . S
C357 C356 1.377 . S
C357 C358 1.379 . S
C358 H342 0.931 . S
C358 C352 1.383 . S
C358 C357 1.379 . S
H359 C353 0.959 . S
H360 C353 0.961 . S
H361 C353 0.960 1_556 S
H362 C354 0.930 . S
H363 C355 0.929 . S
H364 C372 0.929 . S
H365 C374 0.930 . S
H366 C376 0.930 . S
H367 C379 0.929 1_556 S
H368 C382 0.930 . S
H369 C384 0.960 . S
H370 C384 0.960 . S
H371 C384 0.960 . S
C372 H364 0.929 . S
C372 C373 1.377 . S
C372 C374 1.384 . S
C373 C372 1.377 . S
C373 C379 1.390 . S
C374 H365 0.930 . S
C374 C372 1.384 . S
C374 C375 1.372 . S
C375 C374 1.372 . S
C375 C376 1.400 . S
C375 C380 1.490 . S
C376 H366 0.930 . S
C376 C375 1.400 . S
C376 C379 1.386 . S
H377 C393 0.930 . S
H378 C394 0.931 . S
C379 H367 0.929 1_554 S
C379 C373 1.390 . S
C379 C376 1.386 . S
C380 C375 1.490 . S
C380 C382 1.395 . S
C380 C383 1.403 . S
H381 C387 0.930 . S
C382 H368 0.930 . S
C382 C380 1.395 . S
C382 C385 1.403 . S
C383 C380 1.403 . S
C383 C384 1.524 . S
C383 C387 1.400 . S
C384 H369 0.960 . S
C384 H370 0.960 . S
C384 H371 0.960 . S
C384 C383 1.524 . S
C385 C382 1.403 . S
C385 C386 1.392 . S
C385 C389 1.495 . S
C386 C385 1.392 . S
C386 C387 1.385 . S
C386 C388 1.478 . S
C387 H381 0.930 . S
C387 C383 1.400 . S
C387 C386 1.385 . S
C388 C386 1.478 . S
C388 C390 1.381 . S
C388 C394 1.383 . S
C389 C385 1.495 . S
C389 H395 0.959 . S
C389 H396 0.961 . S
C389 H397 0.960 . S
C390 C388 1.381 . S
C390 C391 1.394 . S
C390 H398 0.930 . S
C391 C390 1.394 . S
C391 C392 1.383 . S
C391 H399 0.929 . S
C392 C391 1.383 . S
C392 C393 1.377 . S
C393 H377 0.930 . S
C393 C392 1.377 . S
C393 C394 1.379 . S
C394 H378 0.931 . S
C394 C388 1.383 . S
C394 C393 1.379 . S
H395 C389 0.959 . S
H396 C389 0.961 . S
H397 C389 0.960 . S
H398 C390 0.930 . S
H399 C391 0.929 . S
H400 C408 0.929 . S
H401 C410 0.930 . S
H402 C412 0.930 . S
H403 C415 0.929 . S
H404 C418 0.930 . S
H405 C420 0.960 . S
H406 C420 0.960 . S
H407 C420 0.960 . S
C408 H400 0.929 . S
C408 C409 1.377 . S
C408 C410 1.384 . S
C409 C408 1.377 . S
C409 C415 1.390 . S
C410 H401 0.930 . S
C410 C408 1.384 . S
C410 C411 1.372 . S
C411 C410 1.372 . S
C411 C412 1.400 . S
C411 C416 1.490 . S
C412 H402 0.930 . S
C412 C411 1.400 . S
C412 C415 1.386 . S
H413 C429 0.930 . S
H414 C430 0.931 . S
C415 H403 0.929 . S
C415 C409 1.390 . S
C415 C412 1.386 . S
C416 C411 1.490 . S
C416 C418 1.395 . S
C416 C419 1.403 . S
H417 C423 0.930 . S
C418 H404 0.930 . S
C418 C416 1.395 . S
C418 C421 1.403 . S
C419 C416 1.403 . S
C419 C420 1.524 . S
C419 C423 1.400 . S
C420 H405 0.960 . S
C420 H406 0.960 . S
C420 H407 0.960 . S
C420 C419 1.524 . S
C421 C418 1.403 . S
C421 C422 1.392 . S
C421 C425 1.495 . S
C422 C421 1.392 . S
C422 C423 1.385 . S
C422 C424 1.478 . S
C423 H417 0.930 . S
C423 C419 1.400 . S
C423 C422 1.385 . S
C424 C422 1.478 . S
C424 C426 1.381 . S
C424 C430 1.383 . S
C425 C421 1.495 . S
C425 H431 0.959 . S
C425 H432 0.961 . S
C425 H433 0.960 . S
C426 C424 1.381 . S
C426 C427 1.394 . S
C426 H434 0.930 . S
C427 C426 1.394 . S
C427 C428 1.383 . S
C427 H435 0.929 . S
C428 C427 1.383 . S
C428 C429 1.377 . S
C429 H413 0.930 . S
C429 C428 1.377 . S
C429 C430 1.379 . S
C430 H414 0.931 . S
C430 C424 1.383 . S
C430 C429 1.379 . S
H431 C425 0.959 . S
H432 C425 0.961 . S
H433 C425 0.960 . S
H434 C426 0.930 . S
H435 C427 0.929 . S
H436 C444 0.929 . S
H437 C446 0.930 . S
H438 C448 0.930 . S
H439 C451 0.929 . S
H440 C454 0.930 . S
H441 C456 0.960 . S
H442 C456 0.960 . S
H443 C456 0.960 . S
C444 H436 0.929 . S
C444 C445 1.377 . S
C444 C446 1.384 . S
C445 C444 1.377 . S
C445 C451 1.390 . S
C446 H437 0.930 . S
C446 C444 1.384 . S
C446 C447 1.372 . S
C447 C446 1.372 . S
C447 C448 1.400 . S
C447 C452 1.490 . S
C448 H438 0.930 . S
C448 C447 1.400 . S
C448 C451 1.386 . S
H449 C465 0.930 . S
H450 C466 0.931 . S
C451 H439 0.929 . S
C451 C445 1.390 . S
C451 C448 1.386 . S
C452 C447 1.490 . S
C452 C454 1.395 . S
C452 C455 1.403 . S
H453 C459 0.930 . S
C454 H440 0.930 . S
C454 C452 1.395 . S
C454 C457 1.403 . S
C455 C452 1.403 . S
C455 C456 1.524 . S
C455 C459 1.400 . S
C456 H441 0.960 . S
C456 H442 0.960 . S
C456 H443 0.960 . S
C456 C455 1.524 . S
C457 C454 1.403 . S
C457 C458 1.392 . S
C457 C461 1.495 . S
C458 C457 1.392 . S
C458 C459 1.385 . S
C458 C460 1.478 . S
C459 H453 0.930 . S
C459 C455 1.400 . S
C459 C458 1.385 . S
C460 C458 1.478 . S
C460 C462 1.381 . S
C460 C466 1.383 . S
C461 C457 1.495 . S
C461 H467 0.959 . S
C461 H468 0.961 . S
C461 H469 0.960 . S
C462 C460 1.381 . S
C462 C463 1.394 . S
C462 H470 0.930 . S
C463 C462 1.394 . S
C463 C464 1.383 . S
C463 H471 0.929 . S
C464 C463 1.383 . S
C464 C465 1.377 . S
C465 H449 0.930 . S
C465 C464 1.377 . S
C465 C466 1.379 . S
C466 H450 0.931 . S
C466 C460 1.383 . S
C466 C465 1.379 . S
H467 C461 0.959 . S
H468 C461 0.961 . S
H469 C461 0.960 . S
H470 C462 0.930 . S
H471 C463 0.929 . S
H472 C480 0.929 . S
H473 C482 0.930 . S
H474 C484 0.930 . S
H475 C487 0.929 . S
H476 C490 0.930 . S
H477 C492 0.960 . S
H478 C492 0.960 1_554 S
H479 C492 0.960 . S
C480 H472 0.929 . S
C480 C481 1.377 . S
C480 C482 1.384 . S
C481 C480 1.377 . S
C481 C487 1.390 1_554 S
C482 H473 0.930 . S
C482 C480 1.384 . S
C482 C483 1.372 . S
C483 C482 1.372 . S
C483 C484 1.400 1_554 S
C483 C488 1.490 . S
C484 H474 0.930 . S
C484 C483 1.400 1_556 S
C484 C487 1.386 . S
H485 C501 0.930 . S
H486 C502 0.931 . S
C487 H475 0.929 . S
C487 C481 1.390 1_556 S
C487 C484 1.386 . S
C488 C483 1.490 . S
C488 C490 1.395 . S
C488 C491 1.403 1_554 S
H489 C495 0.930 . S
C490 H476 0.930 . S
C490 C488 1.395 . S
C490 C493 1.403 . S
C491 C488 1.403 1_556 S
C491 C492 1.524 . S
C491 C495 1.400 . S
C492 H477 0.960 . S
C492 H478 0.960 1_556 S
C492 H479 0.960 . S
C492 C491 1.524 . S
C493 C490 1.403 . S
C493 C494 1.392 1_554 S
C493 C497 1.495 . S
C494 C493 1.392 1_556 S
C494 C495 1.385 . S
C494 C496 1.478 . S
C495 H489 0.930 . S
C495 C491 1.400 . S
C495 C494 1.385 . S
C496 C494 1.478 . S
C496 C498 1.381 1_556 S
C496 C502 1.383 . S
C497 C493 1.495 . S
C497 H503 0.959 . S
C497 H504 0.961 1_554 S
C497 H505 0.960 . S
C498 C496 1.381 1_554 S
C498 C499 1.394 . S
C498 H506 0.930 . S
C499 C498 1.394 . S
C499 C500 1.383 1_554 S
C499 H507 0.919 1_545 S
C500 C499 1.383 1_556 S
C500 C501 1.377 . S
C501 H485 0.930 . S
C501 C500 1.377 . S
C501 C502 1.379 . S
C502 H486 0.931 . S
C502 C496 1.383 . S
C502 C501 1.379 . S
H503 C497 0.959 . S
H504 C497 0.961 1_556 S
H505 C497 0.960 . S
H506 C498 0.930 . S
H507 C499 0.919 1_565 S
H508 C516 0.929 . S
H509 C518 0.930 . S
H510 C520 0.930 . S
H511 C523 0.929 . S
H512 C526 0.930 . S
H513 C528 0.960 . S
H514 C528 0.960 . S
H515 C528 0.960 . S
C516 H508 0.929 . S
C516 C517 1.377 . S
C516 C518 1.384 . S
C517 C516 1.377 . S
C517 C523 1.390 . S
C518 H509 0.930 . S
C518 C516 1.384 . S
C518 C519 1.372 . S
C519 C518 1.372 . S
C519 C520 1.400 . S
C519 C524 1.490 . S
C520 H510 0.930 . S
C520 C519 1.400 . S
C520 C523 1.386 . S
H521 C537 0.930 . S
H522 C538 0.931 . S
C523 H511 0.929 . S
C523 C517 1.390 . S
C523 C520 1.386 . S
C524 C519 1.490 . S
C524 C526 1.395 . S
C524 C527 1.403 . S
H525 C531 0.930 . S
C526 H512 0.930 . S
C526 C524 1.395 . S
C526 C529 1.403 . S
C527 C524 1.403 . S
C527 C528 1.524 . S
C527 C531 1.400 . S
C528 H513 0.960 . S
C528 H514 0.960 . S
C528 H515 0.960 . S
C528 C527 1.524 . S
C529 C526 1.403 . S
C529 C530 1.392 . S
C529 C533 1.495 . S
C530 C529 1.392 . S
C530 C531 1.385 . S
C530 C532 1.478 . S
C531 H525 0.930 . S
C531 C527 1.400 . S
C531 C530 1.385 . S
C532 C530 1.478 . S
C532 C534 1.381 . S
C532 C538 1.383 . S
C533 C529 1.495 . S
C533 H539 0.959 . S
C533 H540 0.961 . S
C533 H541 0.960 . S
C534 C532 1.381 . S
C534 C535 1.394 . S
C534 H542 0.930 . S
C535 C534 1.394 . S
C535 C536 1.383 . S
C535 H543 0.929 . S
C536 C535 1.383 . S
C536 C537 1.377 . S
C537 H521 0.930 . S
C537 C536 1.377 . S
C537 C538 1.379 . S
C538 H522 0.931 . S
C538 C532 1.383 . S
C538 C537 1.379 . S
H539 C533 0.959 . S
H540 C533 0.961 . S
H541 C533 0.960 . S
H542 C534 0.930 . S
H543 C535 0.929 . S
H544 C552 0.929 1_565 S
H545 C554 0.930 . S
H546 C556 0.930 . S
H547 C559 0.929 . S
H548 C562 0.930 . S
H549 C564 0.960 . S
H550 C564 0.960 . S
H551 C564 0.960 . S
C552 H544 0.929 1_545 S
C552 C553 1.377 . S
C552 C554 1.384 . S
C553 C552 1.377 . S
C553 C559 1.390 . S
C554 H545 0.930 . S
C554 C552 1.384 . S
C554 C555 1.372 . S
C555 C554 1.372 . S
C555 C556 1.400 . S
C555 C560 1.490 . S
C556 H546 0.930 . S
C556 C555 1.400 . S
C556 C559 1.386 . S
H557 C573 0.930 . S
H558 C574 0.931 . S
C559 H547 0.929 . S
C559 C553 1.390 . S
C559 C556 1.386 . S
C560 C555 1.490 . S
C560 C562 1.395 . S
C560 C563 1.403 . S
H561 C567 0.930 . S
C562 H548 0.930 . S
C562 C560 1.395 . S
C562 C565 1.403 . S
C563 C560 1.403 . S
C563 C564 1.524 . S
C563 C567 1.400 . S
C564 H549 0.960 . S
C564 H550 0.960 . S
C564 H551 0.960 . S
C564 C563 1.524 . S
C565 C562 1.403 . S
C565 C566 1.392 . S
C565 C569 1.495 . S
C566 C565 1.392 . S
C566 C567 1.385 . S
C566 C568 1.478 . S
C567 H561 0.930 . S
C567 C563 1.400 . S
C567 C566 1.385 . S
C568 C566 1.478 . S
C568 C570 1.381 . S
C568 C574 1.383 . S
C569 C565 1.495 . S
C569 H575 0.959 . S
C569 H576 0.961 . S
C569 H577 0.960 . S
C570 C568 1.381 . S
C570 C571 1.394 . S
C570 H578 0.930 . S
C571 C570 1.394 . S
C571 C572 1.383 . S
C571 H579 0.929 . S
C572 C571 1.383 . S
C572 C573 1.377 . S
C573 H557 0.930 . S
C573 C572 1.377 . S
C573 C574 1.379 . S
C574 H558 0.931 . S
C574 C568 1.383 . S
C574 C573 1.379 . S
H575 C569 0.959 . S
H576 C569 0.961 . S
H577 C569 0.960 . S
H578 C570 0.930 . S
H579 C571 0.929 . S
H580 C588 0.929 1_545 S
H581 C590 0.930 1_554 S
H582 C592 0.930 . S
H583 C595 0.929 . S
H584 C598 0.930 . S
H585 C600 0.960 . S
H586 C600 0.960 . S
H587 C600 0.960 . S
C588 H580 0.929 1_565 S
C588 C589 1.377 . S
C588 C590 1.384 . S
C589 C588 1.377 . S
C589 C595 1.390 . S
C590 H581 0.930 1_556 S
C590 C588 1.384 . S
C590 C591 1.372 . S
C591 C590 1.372 . S
C591 C592 1.400 . S
C591 C596 1.490 . S
C592 H582 0.930 . S
C592 C591 1.400 . S
C592 C595 1.386 . S
H593 C609 0.930 . S
H594 C610 0.931 . S
C595 H583 0.929 . S
C595 C589 1.390 . S
C595 C592 1.386 . S
C596 C591 1.490 . S
C596 C598 1.395 1_556 S
C596 C599 1.403 . S
H597 C603 0.930 . S
C598 H584 0.930 . S
C598 C596 1.395 1_554 S
C598 C601 1.403 . S
C599 C596 1.403 . S
C599 C600 1.524 . S
C599 C603 1.400 . S
C600 H585 0.960 . S
C600 H586 0.960 . S
C600 H587 0.960 . S
C600 C599 1.524 . S
C601 C598 1.403 . S
C601 C602 1.392 . S
C601 C605 1.495 . S
C602 C601 1.392 . S
C602 C603 1.385 1_554 S
C602 C604 1.478 . S
C603 H597 0.930 . S
C603 C599 1.400 . S
C603 C602 1.385 1_556 S
C604 C602 1.478 . S
C604 C606 1.381 . S
C604 C610 1.383 . S
C605 C601 1.495 . S
C605 H611 0.959 . S
C605 H612 0.961 . S
C605 H613 0.960 . S
C606 C604 1.381 . S
C606 C607 1.394 . S
C606 H614 0.930 . S
C607 C606 1.394 . S
C607 C608 1.383 . S
C607 H615 0.929 1_655 S
C608 C607 1.383 . S
C608 C609 1.377 . S
C609 H593 0.930 . S
C609 C608 1.377 . S
C609 C610 1.379 . S
C610 H594 0.931 . S
C610 C604 1.383 . S
C610 C609 1.379 . S
H611 C605 0.959 . S
H612 C605 0.961 . S
H613 C605 0.960 . S
H614 C606 0.930 . S
H615 C607 0.929 1_455 S
H616 C624 0.929 1_655 S
H617 C626 0.930 . S
H618 C628 0.930 . S
H619 C631 0.929 . S
H620 C634 0.930 . S
H621 C636 0.960 . S
H622 C636 0.960 . S
H623 C636 0.960 . S
C624 H616 0.929 1_455 S
C624 C625 1.377 . S
C624 C626 1.384 . S
C625 C624 1.377 . S
C625 C631 1.390 . S
C626 H617 0.930 . S
C626 C624 1.384 . S
C626 C627 1.372 . S
C627 C626 1.372 . S
C627 C628 1.400 . S
C627 C632 1.490 . S
C628 H618 0.930 . S
C628 C627 1.400 . S
C628 C631 1.386 . S
H629 C645 0.930 . S
H630 C646 0.931 . S
C631 H619 0.929 . S
C631 C625 1.390 . S
C631 C628 1.386 . S
C632 C627 1.490 . S
C632 C634 1.395 . S
C632 C635 1.403 . S
H633 C639 0.930 . S
C634 H620 0.930 . S
C634 C632 1.395 . S
C634 C637 1.403 . S
C635 C632 1.403 . S
C635 C636 1.524 . S
C635 C639 1.400 . S
C636 H621 0.960 . S
C636 H622 0.960 . S
C636 H623 0.960 . S
C636 C635 1.524 . S
C637 C634 1.403 . S
C637 C638 1.392 . S
C637 C641 1.495 . S
C638 C637 1.392 . S
C638 C639 1.385 . S
C638 C640 1.478 . S
C639 H633 0.930 . S
C639 C635 1.400 . S
C639 C638 1.385 . S
C640 C638 1.478 . S
C640 C642 1.381 . S
C640 C646 1.383 . S
C641 C637 1.495 . S
C641 H647 0.959 . S
C641 H648 0.961 . S
C641 H649 0.960 . S
C642 C640 1.381 . S
C642 C643 1.394 . S
C642 H650 0.930 . S
C643 C642 1.394 . S
C643 C644 1.383 . S
C643 H651 0.929 . S
C644 C643 1.383 . S
C644 C645 1.377 . S
C645 H629 0.930 . S
C645 C644 1.377 . S
C645 C646 1.379 . S
C646 H630 0.931 . S
C646 C640 1.383 . S
C646 C645 1.379 . S
H647 C641 0.959 . S
H648 C641 0.961 . S
H649 C641 0.960 . S
H650 C642 0.930 . S
H651 C643 0.929 . S
H652 C660 0.929 . S
H653 C662 0.930 . S
H654 C664 0.930 . S
H655 C667 0.929 . S
H656 C670 0.930 . S
H657 C672 0.960 . S
H658 C672 0.960 . S
H659 C672 0.960 . S
C660 H652 0.929 . S
C660 C661 1.377 . S
C660 C662 1.384 . S
C661 C660 1.377 . S
C661 C667 1.390 . S
C662 H653 0.930 . S
C662 C660 1.384 . S
C662 C663 1.372 . S
C663 C662 1.372 . S
C663 C664 1.400 . S
C663 C668 1.490 . S
C664 H654 0.930 . S
C664 C663 1.400 . S
C664 C667 1.386 . S
H665 C681 0.930 . S
H666 C682 0.931 . S
C667 H655 0.929 . S
C667 C661 1.390 . S
C667 C664 1.386 . S
C668 C663 1.490 . S
C668 C670 1.395 . S
C668 C671 1.403 . S
H669 C675 0.930 . S
C670 H656 0.930 . S
C670 C668 1.395 . S
C670 C673 1.403 . S
C671 C668 1.403 . S
C671 C672 1.524 . S
C671 C675 1.400 . S
C672 H657 0.960 . S
C672 H658 0.960 . S
C672 H659 0.960 . S
C672 C671 1.524 . S
C673 C670 1.403 . S
C673 C674 1.392 . S
C673 C677 1.495 . S
C674 C673 1.392 . S
C674 C675 1.385 . S
C674 C676 1.478 . S
C675 H669 0.930 . S
C675 C671 1.400 . S
C675 C674 1.385 . S
C676 C674 1.478 . S
C676 C678 1.381 . S
C676 C682 1.383 . S
C677 C673 1.495 . S
C677 H683 0.959 . S
C677 H684 0.961 . S
C677 H685 0.960 . S
C678 C676 1.381 . S
C678 C679 1.394 . S
C678 H686 0.930 . S
C679 C678 1.394 . S
C679 C680 1.383 . S
C679 H687 0.929 . S
C680 C679 1.383 . S
C680 C681 1.377 . S
C681 H665 0.930 . S
C681 C680 1.377 . S
C681 C682 1.379 . S
C682 H666 0.931 . S
C682 C676 1.383 . S
C682 C681 1.379 . S
H683 C677 0.959 . S
H684 C677 0.961 . S
H685 C677 0.960 . S
H686 C678 0.930 . S
H687 C679 0.929 . S
C121 C25 1.326 . S
C140 C11 1.318 . S
C157 C19 1.206 . S
C176 C33 1.175 . S
C193 C53 1.330 . S
C212 C39 1.301 . S
C229 C47 1.227 . S
C248 C5 1.256 . S
C265 C67 1.326 . S
C284 C81 1.316 . S
C301 C75 1.226 . S
C320 C89 1.258 . S
C337 C95 1.325 . S
C356 C109 1.321 . S
C373 C61 1.222 . S
C392 C103 1.179 . S
C409 C12 1.467 . S
C428 C110 1.469 . S
C445 C60 1.396 1_565 S
C464 C18 1.415 . S
C481 C82 1.466 1_455 S
C500 C40 1.467 1_545 S
C517 C46 1.398 1_655 S
C536 C88 1.373 . S
C553 C32 1.401 1_545 S
C572 C102 1.417 . S
C589 C68 1.467 1_565 S
C608 C54 1.459 1_655 S
C625 C74 1.399 1_455 S
C644 C4 1.419 . S
C661 C26 1.467 . S
C680 C96 1.468 . S
