# Generated by pormake.
# Topology unv, (4)-cn, num edge types: 1
# Building blocks:
#     Node 0, Type 0, BuildingBlock: NAHDIM_clean_sbu_0, # of connection points: 4
#     Node 1, Type 0, BuildingBlock: NAHDIM_clean_sbu_0, # of connection points: 4
#     Node 2, Type 0, BuildingBlock: NAHDIM_clean_sbu_0, # of connection points: 4
#     Node 3, Type 0, BuildingBlock: NAHDIM_clean_sbu_0, # of connection points: 4
#     Node 4, Type 0, BuildingBlock: NAHDIM_clean_sbu_0, # of connection points: 4
#     Node 5, Type 0, BuildingBlock: NAHDIM_clean_sbu_0, # of connection points: 4
#     Node 6, Type 0, BuildingBlock: NAHDIM_clean_sbu_0, # of connection points: 4
#     Node 7, Type 0, BuildingBlock: NAHDIM_clean_sbu_0, # of connection points: 4
#     Node 8, Type 0, BuildingBlock: NAHDIM_clean_sbu_0, # of connection points: 4
#     Node 9, Type 0, BuildingBlock: NAHDIM_clean_sbu_0, # of connection points: 4
#     Node 10, Type 0, BuildingBlock: NAHDIM_clean_sbu_0, # of connection points: 4
#     Node 11, Type 0, BuildingBlock: NAHDIM_clean_sbu_0, # of connection points: 4
#     Node 12, Type 0, BuildingBlock: NAHDIM_clean_sbu_0, # of connection points: 4
#     Node 13, Type 0, BuildingBlock: NAHDIM_clean_sbu_0, # of connection points: 4
#     Node 14, Type 0, BuildingBlock: NAHDIM_clean_sbu_0, # of connection points: 4
#     Node 15, Type 0, BuildingBlock: NAHDIM_clean_sbu_0, # of connection points: 4
#     Node 16, Type 0, BuildingBlock: NAHDIM_clean_sbu_0, # of connection points: 4
#     Node 17, Type 0, BuildingBlock: NAHDIM_clean_sbu_0, # of connection points: 4
#     Node 18, Type 0, BuildingBlock: NAHDIM_clean_sbu_0, # of connection points: 4
#     Node 19, Type 0, BuildingBlock: NAHDIM_clean_sbu_0, # of connection points: 4
#     Node 20, Type 0, BuildingBlock: NAHDIM_clean_sbu_0, # of connection points: 4
#     Node 21, Type 0, BuildingBlock: NAHDIM_clean_sbu_0, # of connection points: 4
#     Node 22, Type 0, BuildingBlock: NAHDIM_clean_sbu_0, # of connection points: 4
#     Node 23, Type 0, BuildingBlock: NAHDIM_clean_sbu_0, # of connection points: 4
#     Edge 24, Type (0, 0), BuildingBlock: XIVTED_clean_linker_0, # of connection points: 2
#     Edge 25, Type (0, 0), BuildingBlock: XIVTED_clean_linker_0, # of connection points: 2
#     Edge 26, Type (0, 0), BuildingBlock: XIVTED_clean_linker_0, # of connection points: 2
#     Edge 27, Type (0, 0), BuildingBlock: XIVTED_clean_linker_0, # of connection points: 2
#     Edge 28, Type (0, 0), BuildingBlock: XIVTED_clean_linker_0, # of connection points: 2
#     Edge 29, Type (0, 0), BuildingBlock: XIVTED_clean_linker_0, # of connection points: 2
#     Edge 30, Type (0, 0), BuildingBlock: XIVTED_clean_linker_0, # of connection points: 2
#     Edge 31, Type (0, 0), BuildingBlock: XIVTED_clean_linker_0, # of connection points: 2
#     Edge 32, Type (0, 0), BuildingBlock: XIVTED_clean_linker_0, # of connection points: 2
#     Edge 33, Type (0, 0), BuildingBlock: XIVTED_clean_linker_0, # of connection points: 2
#     Edge 34, Type (0, 0), BuildingBlock: XIVTED_clean_linker_0, # of connection points: 2
#     Edge 35, Type (0, 0), BuildingBlock: XIVTED_clean_linker_0, # of connection points: 2
#     Edge 36, Type (0, 0), BuildingBlock: XIVTED_clean_linker_0, # of connection points: 2
#     Edge 37, Type (0, 0), BuildingBlock: XIVTED_clean_linker_0, # of connection points: 2
#     Edge 38, Type (0, 0), BuildingBlock: XIVTED_clean_linker_0, # of connection points: 2
#     Edge 39, Type (0, 0), BuildingBlock: XIVTED_clean_linker_0, # of connection points: 2
#     Edge 40, Type (0, 0), BuildingBlock: XIVTED_clean_linker_0, # of connection points: 2
#     Edge 41, Type (0, 0), BuildingBlock: XIVTED_clean_linker_0, # of connection points: 2
#     Edge 42, Type (0, 0), BuildingBlock: XIVTED_clean_linker_0, # of connection points: 2
#     Edge 43, Type (0, 0), BuildingBlock: XIVTED_clean_linker_0, # of connection points: 2
#     Edge 44, Type (0, 0), BuildingBlock: XIVTED_clean_linker_0, # of connection points: 2
#     Edge 45, Type (0, 0), BuildingBlock: XIVTED_clean_linker_0, # of connection points: 2
#     Edge 46, Type (0, 0), BuildingBlock: XIVTED_clean_linker_0, # of connection points: 2
#     Edge 47, Type (0, 0), BuildingBlock: XIVTED_clean_linker_0, # of connection points: 2
#     Edge 48, Type (0, 0), BuildingBlock: XIVTED_clean_linker_0, # of connection points: 2
#     Edge 49, Type (0, 0), BuildingBlock: XIVTED_clean_linker_0, # of connection points: 2
#     Edge 50, Type (0, 0), BuildingBlock: XIVTED_clean_linker_0, # of connection points: 2
#     Edge 51, Type (0, 0), BuildingBlock: XIVTED_clean_linker_0, # of connection points: 2
#     Edge 52, Type (0, 0), BuildingBlock: XIVTED_clean_linker_0, # of connection points: 2
#     Edge 53, Type (0, 0), BuildingBlock: XIVTED_clean_linker_0, # of connection points: 2
#     Edge 54, Type (0, 0), BuildingBlock: XIVTED_clean_linker_0, # of connection points: 2
#     Edge 55, Type (0, 0), BuildingBlock: XIVTED_clean_linker_0, # of connection points: 2
#     Edge 56, Type (0, 0), BuildingBlock: XIVTED_clean_linker_0, # of connection points: 2
#     Edge 57, Type (0, 0), BuildingBlock: XIVTED_clean_linker_0, # of connection points: 2
#     Edge 58, Type (0, 0), BuildingBlock: XIVTED_clean_linker_0, # of connection points: 2
#     Edge 59, Type (0, 0), BuildingBlock: XIVTED_clean_linker_0, # of connection points: 2
#     Edge 60, Type (0, 0), BuildingBlock: XIVTED_clean_linker_0, # of connection points: 2
#     Edge 61, Type (0, 0), BuildingBlock: XIVTED_clean_linker_0, # of connection points: 2
#     Edge 62, Type (0, 0), BuildingBlock: XIVTED_clean_linker_0, # of connection points: 2
#     Edge 63, Type (0, 0), BuildingBlock: XIVTED_clean_linker_0, # of connection points: 2
#     Edge 64, Type (0, 0), BuildingBlock: XIVTED_clean_linker_0, # of connection points: 2
#     Edge 65, Type (0, 0), BuildingBlock: XIVTED_clean_linker_0, # of connection points: 2
#     Edge 66, Type (0, 0), BuildingBlock: XIVTED_clean_linker_0, # of connection points: 2
#     Edge 67, Type (0, 0), BuildingBlock: XIVTED_clean_linker_0, # of connection points: 2
#     Edge 68, Type (0, 0), BuildingBlock: XIVTED_clean_linker_0, # of connection points: 2
#     Edge 69, Type (0, 0), BuildingBlock: XIVTED_clean_linker_0, # of connection points: 2
#     Edge 70, Type (0, 0), BuildingBlock: XIVTED_clean_linker_0, # of connection points: 2
#     Edge 71, Type (0, 0), BuildingBlock: XIVTED_clean_linker_0, # of connection points: 2
# Relax obj value: 0.371
# Max RMSD: 0.323
# Mean RMSD: 0.307
data_MOF--net-unv--node1-NAHDIM_clean_sbu_0--edge1-XIVTED_clean_linker_0
_symmetry_space_group_name_H-M    P1
_symmetry_Int_Tables_number       1
_symmetry_cell_setting            triclinic
loop_
_symmetry_equiv_pos_as_xyz
'x, y, z'
_cell_length_a     48.157454
_cell_length_b     48.168538
_cell_length_c     48.197385
_cell_angle_alpha  90.009051
_cell_angle_beta   90.022414
_cell_angle_gamma 90.018925
loop_
_atom_site_label
_atom_site_type_symbol
_atom_site_fract_x
_atom_site_fract_y
_atom_site_fract_z
_atom_type_partial_charge
C0 C 0.01451 0.15341 0.33334 0.0
O1 O 0.04169 0.15259 0.33109 0.0
O2 O 0.03516 0.07984 0.30957 0.0
Zn3 Zn 0.02081 0.09526 0.34538 0.0
O4 O 0.05118 0.09922 0.37362 0.0
C5 C 0.9823 0.04871 0.34765 0.0
O6 O 0.98813 0.04602 0.32116 0.0
O7 O 0.00137 0.13132 0.33911 0.0
C8 C 0.04487 0.11044 0.39662 0.0
O9 O 0.01993 0.12107 0.39965 0.0
C10 C 0.05353 0.06092 0.30934 0.0
O11 O 0.06481 0.05306 0.33288 0.0
O12 O 0.99336 0.06827 0.36147 0.0
C13 C 0.91525 0.33582 0.33191 0.0
O14 O 0.88825 0.33706 0.33559 0.0
O15 O 0.90125 0.41115 0.29997 0.0
Zn16 Zn 0.91338 0.39595 0.33688 0.0
O17 O 0.88405 0.39582 0.36662 0.0
C18 C 0.95893 0.43544 0.33444 0.0
O19 O 0.9532 0.43593 0.3078 0.0
O20 O 0.92934 0.35808 0.33164 0.0
C21 C 0.87623 0.419 0.37646 0.0
O22 O 0.88604 0.44204 0.36566 0.0
C23 C 0.88144 0.42748 0.29388 0.0
O24 O 0.86301 0.43403 0.31284 0.0
O25 O 0.94472 0.42004 0.35051 0.0
C26 C 0.03626 0.84014 0.14315 0.0
O27 O 0.06151 0.8503 0.14144 0.0
O28 O 0.03063 0.91958 0.14459 0.0
Zn29 Zn 0.02256 0.89089 0.11558 0.0
O30 O 0.05418 0.8898 0.08849 0.0
C31 C 0.96721 0.91149 0.10904 0.0
O32 O 0.96733 0.90932 0.13622 0.0
O33 O 0.01611 0.85391 0.13321 0.0
C34 C 0.05029 0.8816 0.06374 0.0
O35 O 0.02572 0.87212 0.0566 0.0
C36 C 0.05441 0.92418 0.15504 0.0
O37 O 0.07572 0.90902 0.14732 0.0
O38 O 0.98839 0.90357 0.09548 0.0
C39 C -0.00075 0.64147 0.1707 0.0
O40 O 0.97455 0.63107 0.1757 0.0
O41 O 0.98305 0.56648 0.16479 0.0
Zn42 Zn 0.00922 0.58946 0.1418 0.0
O43 O 0.99395 0.59244 0.10319 0.0
C44 C 0.05272 0.55337 0.16002 0.0
O45 O 0.03965 0.55596 0.1838 0.0
O46 O 0.01696 0.6271 0.1575 0.0
C47 C 0.9752 0.60911 0.09503 0.0
O48 O 0.96461 0.62716 0.11251 0.0
C49 C 0.95666 0.5663 0.16473 0.0
O50 O 0.9429 0.58433 0.14963 0.0
O51 O 0.04437 0.56733 0.13925 0.0
C52 C 0.34133 0.03339 0.16923 0.0
O53 O 0.33543 0.05955 0.16426 0.0
O54 O 0.3414 0.05163 0.09337 0.0
Zn55 Zn 0.37167 0.03577 0.11708 0.0
O56 O 0.40078 0.06499 0.12307 0.0
C57 C 0.37513 0.98906 0.07976 0.0
O58 O 0.34806 0.99226 0.07865 0.0
O59 O 0.35651 0.02007 0.15232 0.0
C60 C 0.42551 0.05762 0.12855 0.0
O61 O 0.4306 0.03128 0.13352 0.0
C62 C 0.34874 0.06166 0.07012 0.0
O63 O 0.3753 0.06242 0.06388 0.0
O64 O 0.38937 0.00489 0.09534 0.0
C65 C 0.6523 0.50111 0.14484 0.0
O66 O 0.66306 0.47721 0.13728 0.0
O67 O 0.65731 0.47907 0.07436 0.0
Zn68 Zn 0.62405 0.49607 0.09271 0.0
O69 O 0.59407 0.4674 0.09673 0.0
C70 C 0.6239 0.53908 0.05056 0.0
O71 O 0.65089 0.53511 0.05049 0.0
O72 O 0.63469 0.51288 0.12914 0.0
C73 C 0.5695 0.47573 0.10149 0.0
O74 O 0.5653 0.50225 0.10632 0.0
C75 C 0.65446 0.46777 0.05071 0.0
O76 O 0.6296 0.46652 0.03952 0.0
O77 O 0.60887 0.52552 0.06744 0.0
C78 C 0.30667 0.93739 0.34778 0.0
O79 O 0.31188 0.9107 0.34995 0.0
O80 O 0.29262 0.91323 0.42404 0.0
Zn81 Zn 0.32167 0.93619 0.40503 0.0
O82 O 0.35639 0.91426 0.39763 0.0
C83 C 0.31424 0.97748 0.44798 0.0
O84 O 0.2886 0.96816 0.44794 0.0
O85 O 0.30813 0.95249 0.36932 0.0
C86 C 0.37544 0.92627 0.38386 0.0
O87 O 0.3711 0.95158 0.37467 0.0
C88 C 0.29911 0.90236 0.44719 0.0
O89 O 0.32509 0.90361 0.45543 0.0
O90 O 0.33173 0.96736 0.431 0.0
C91 C 0.67701 0.575 0.33545 0.0
O92 O 0.66585 0.59909 0.34168 0.0
O93 O 0.69167 0.58267 0.41871 0.0
Zn94 Zn 0.66505 0.56424 0.39245 0.0
O95 O 0.63027 0.58701 0.3896 0.0
C96 C 0.67221 0.5138 0.42387 0.0
O97 O 0.69799 0.5226 0.42549 0.0
O98 O 0.68042 0.55714 0.35453 0.0
C99 C 0.60812 0.57586 0.3806 0.0
O100 O 0.60882 0.54994 0.37211 0.0
C101 C 0.68089 0.58952 0.4418 0.0
O102 O 0.65391 0.58682 0.44494 0.0
O103 O 0.65465 0.52779 0.40999 0.0
C104 C 0.15592 0.30673 0.0774 0.0
O105 O 0.1536 0.30913 0.10446 0.0
O106 O 0.07818 0.29139 0.09878 0.0
Zn107 Zn 0.09808 0.3218 0.07844 0.0
O108 O 0.1039 0.35482 0.10312 0.0
C109 C 0.05502 0.3182 0.03646 0.0
O110 O 0.05297 0.29248 0.04529 0.0
O111 O 0.13455 0.31003 0.06233 0.0
C112 C 0.1182 0.37487 0.09365 0.0
O113 O 0.12957 0.37246 0.06899 0.0
C114 C 0.0858 0.26616 0.09941 0.0
O115 O 0.10986 0.25924 0.08861 0.0
O116 O 0.07313 0.33417 0.04717 0.0
C117 C 0.14802 0.61419 0.47138 0.0
O118 O 0.13826 0.61722 0.4461 0.0
O119 O 0.07216 0.63152 0.47011 0.0
Zn120 Zn 0.09217 0.59717 0.4828 0.0
O121 O 0.08701 0.56688 0.45473 0.0
C122 C 0.06482 0.60059 0.53614 0.0
O123 O 0.07053 0.62718 0.53408 0.0
O124 O 0.13211 0.60519 0.49034 0.0
C125 C 0.08081 0.5715 0.42953 0.0
O126 O 0.0802 0.59721 0.42045 0.0
C127 C 0.08092 0.65594 0.47487 0.0
O128 O 0.10466 0.65937 0.48785 0.0
O129 O 0.07325 0.58409 0.51739 0.0
C130 C 0.84882 0.82585 0.46081 0.0
O131 O 0.86367 0.8254 0.43795 0.0
O132 O 0.92495 0.81099 0.47233 0.0
Zn133 Zn 0.90052 0.84296 0.48262 0.0
O134 O 0.90566 0.87317 0.45449 0.0
C135 C 0.92479 0.84327 0.53785 0.0
O136 O 0.92592 0.81623 0.53445 0.0
O137 O 0.86055 0.83213 0.48357 0.0
C138 C 0.89852 0.89776 0.46075 0.0
O139 O 0.88705 0.90247 0.48503 0.0
C140 C 0.95074 0.81622 0.47044 0.0
O141 O 0.95939 0.84178 0.4745 0.0
O142 O 0.91346 0.85813 0.51924 0.0
C143 C 0.34569 0.6572 0.51597 0.0
O144 O 0.35428 0.65412 0.54166 0.0
O145 O 0.42197 0.68223 0.52382 0.0
Zn146 Zn 0.40291 0.64972 0.50625 0.0
O147 O 0.40435 0.61685 0.53166 0.0
C148 C 0.43846 0.65698 0.45851 0.0
O149 O 0.43726 0.68329 0.4656 0.0
O150 O 0.36343 0.65742 0.49651 0.0
C151 C 0.39533 0.59389 0.52236 0.0
O152 O 0.38443 0.5931 0.49737 0.0
C153 C 0.44585 0.67763 0.53407 0.0
O154 O 0.45519 0.65201 0.53466 0.0
O155 O 0.42447 0.63928 0.47217 0.0
C156 C 0.52347 0.65083 0.81321 0.0
O157 O 0.5485 0.64085 0.81748 0.0
O158 O 0.52907 0.57258 0.79676 0.0
Zn159 Zn 0.51 0.59524 0.82603 0.0
O160 O 0.53415 0.59591 0.85993 0.0
C161 C 0.46118 0.56072 0.81926 0.0
O162 O 0.46953 0.5594 0.79335 0.0
O163 O 0.50283 0.63445 0.81438 0.0
C164 C 0.52389 0.60321 0.88308 0.0
O165 O 0.49773 0.61087 0.8842 0.0
C166 C 0.53646 0.54844 0.80445 0.0
O167 O 0.53232 0.54106 0.83037 0.0
O168 O 0.47451 0.57577 0.83635 0.0
C169 C 0.48577 0.85126 0.845 0.0
O170 O 0.46094 0.86208 0.84171 0.0
O171 O 0.47659 0.92553 0.84079 0.0
Zn172 Zn 0.49507 0.90346 0.87085 0.0
O173 O 0.46941 0.90194 0.90363 0.0
C174 C 0.54276 0.93977 0.86621 0.0
O175 O 0.53586 0.94025 0.83984 0.0
O176 O 0.5044 0.86534 0.85726 0.0
C177 C 0.47947 0.89882 0.9278 0.0
O178 O 0.50626 0.89444 0.93054 0.0
C179 C 0.46947 0.95033 0.84629 0.0
O180 O 0.47356 0.96 0.87146 0.0
O181 O 0.52924 0.92431 0.88276 0.0
C182 C 0.53611 0.33781 0.61543 0.0
O183 O 0.56313 0.3416 0.61588 0.0
O184 O 0.55126 0.4158 0.63168 0.0
Zn185 Zn 0.53337 0.39609 0.59951 0.0
O186 O 0.55879 0.39648 0.56652 0.0
C187 C 0.48592 0.43191 0.60678 0.0
O188 O 0.49239 0.42976 0.63317 0.0
O189 O 0.5203 0.3579 0.6091 0.0
C190 C 0.58494 0.39945 0.5684 0.0
O191 O 0.59656 0.39986 0.59307 0.0
C192 C 0.55025 0.40764 0.65671 0.0
O193 O 0.53866 0.38364 0.66247 0.0
O194 O 0.50008 0.41872 0.58886 0.0
C195 C 0.45136 0.14973 0.63567 0.0
O196 O 0.42486 0.14557 0.63066 0.0
O197 O 0.44549 0.06947 0.66407 0.0
Zn198 Zn 0.45611 0.08997 0.62941 0.0
O199 O 0.42617 0.08772 0.60046 0.0
C200 C 0.50735 0.05812 0.62685 0.0
O201 O 0.50587 0.05822 0.65407 0.0
O202 O 0.46772 0.12912 0.6367 0.0
C203 C 0.40227 0.07727 0.60439 0.0
O204 O 0.39512 0.06939 0.62948 0.0
C205 C 0.44466 0.0801 0.68817 0.0
O206 O 0.44967 0.10672 0.69128 0.0
O207 O 0.48878 0.07049 0.6128 0.0
C208 C 0.82742 0.50536 0.66429 0.0
O209 O 0.82923 0.53191 0.65837 0.0
O210 O 0.81875 0.53368 0.59325 0.0
Zn211 Zn 0.84072 0.50088 0.60691 0.0
O212 O 0.88089 0.51196 0.60782 0.0
C213 C 0.81529 0.46915 0.56292 0.0
O214 O 0.7939 0.48506 0.5686 0.0
O215 O 0.83011 0.4877 0.64492 0.0
C216 C 0.88851 0.53647 0.61394 0.0
O217 O 0.86966 0.5551 0.62035 0.0
C218 C 0.79407 0.54021 0.59982 0.0
O219 O 0.78113 0.52587 0.61906 0.0
O220 O 0.83694 0.47082 0.57796 0.0
C221 C 0.16129 -0.00034 0.64536 0.0
O222 O 0.18094 0.98959 0.6294 0.0
O223 O 0.14648 0.95781 0.58149 0.0
Zn224 Zn 0.12129 0.98449 0.60144 0.0
O225 O 0.08428 0.96622 0.60724 0.0
C226 C 0.13295 0.02442 0.55823 0.0
O227 O 0.15709 0.01175 0.55749 0.0
O228 O 0.13612 -0.00111 0.63749 0.0
C229 C 0.08117 0.94239 0.61809 0.0
O230 O 0.10303 0.92894 0.6273 0.0
C231 C 0.16197 0.93836 0.59029 0.0
O232 O 0.16374 0.93334 0.61702 0.0
O233 O 0.11487 0.01676 0.57585 0.0
C234 C 0.86485 0.44923 0.85955 0.0
O235 O 0.87035 0.4235 0.86671 0.0
O236 O 0.84433 0.45379 0.94052 0.0
Zn237 Zn 0.87781 0.46248 0.91709 0.0
O238 O 0.90728 0.43332 0.92173 0.0
C239 C 0.88052 0.51734 0.94209 0.0
O240 O 0.85329 0.51569 0.94223 0.0
O241 O 0.86703 0.46845 0.87745 0.0
C242 C 0.9029 0.40887 0.93056 0.0
O243 O 0.87726 0.40063 0.93492 0.0
C244 C 0.82127 0.44542 0.93081 0.0
O245 O 0.81881 0.44099 0.90404 0.0
O246 O 0.89461 0.4976 0.93174 0.0
C247 C 0.17171 0.05142 0.84316 0.0
O248 O 0.1617 0.07502 0.85244 0.0
O249 O 0.18679 0.05113 0.92444 0.0
Zn250 Zn 0.15912 0.03395 0.89846 0.0
O251 O 0.12357 0.0558 0.89926 0.0
C252 C 0.16421 0.98307 0.93047 0.0
O253 O 0.18831 0.99352 0.93782 0.0
O254 O 0.17339 0.03083 0.85952 0.0
C255 C 0.12182 0.08109 0.90656 0.0
O256 O 0.14454 0.09481 0.91287 0.0
C257 C 0.21087 0.05965 0.91793 0.0
O258 O 0.21894 0.05848 0.89193 0.0
O259 O 0.14923 0.99611 0.9131 0.0
C260 C 0.64447 0.84952 0.44939 0.0
O261 O 0.62973 0.84655 0.42664 0.0
O262 O 0.57209 0.84906 0.49709 0.0
Zn263 Zn 0.59498 0.87525 0.47428 0.0
O264 O 0.59528 0.91169 0.49408 0.0
C265 C 0.56083 0.85995 0.4284 0.0
O266 O 0.56397 0.83525 0.43953 0.0
O267 O 0.63375 0.86104 0.4705 0.0
C268 C 0.60216 0.91296 0.5195 0.0
O269 O 0.61056 0.8903 0.53213 0.0
C270 C 0.58116 0.82794 0.50997 0.0
O271 O 0.60785 0.82234 0.50952 0.0
O272 O 0.57464 0.8802 0.43821 0.0
C273 C 0.65157 0.18251 0.96459 0.0
O274 O 0.64452 0.17697 0.93884 0.0
O275 O 0.57148 0.19059 0.95653 0.0
Zn276 Zn 0.59659 0.16303 0.97498 0.0
O277 O 0.60103 0.12988 0.95014 0.0
C278 C 0.5625 0.16552 0.02449 0.0
O279 O 0.55862 0.1914 0.01681 0.0
O280 O 0.63384 0.17903 0.98375 0.0
C281 C 0.61054 0.10738 0.96007 0.0
O282 O 0.61844 0.1067 0.98616 0.0
C283 C 0.54827 0.18147 0.94787 0.0
O284 O 0.54275 0.15487 0.9504 0.0
O285 O 0.57831 0.15002 0.01015 0.0
C286 C 0.34276 0.33862 0.99715 0.0
O287 O 0.36592 0.33265 0.01023 0.0
O288 O 0.40409 0.34321 0.94516 0.0
Zn289 Zn 0.37991 0.37124 0.9643 0.0
O290 O 0.37441 0.40422 0.93944 0.0
C291 C 0.42056 0.37081 0.00864 0.0
O292 O 0.42593 0.34589 -0.00105 0.0
O293 O 0.34354 0.35472 0.97627 0.0
C294 C 0.37462 0.4028 0.91312 0.0
O295 O 0.37653 0.37838 0.90112 0.0
C296 C 0.39711 0.31866 0.93855 0.0
O297 O 0.37145 0.3104 0.94269 0.0
O298 O 0.40116 0.38501 -0.0023 0.0
C299 C 0.84656 0.161 0.02142 0.0
O300 O 0.85334 0.1622 0.0478 0.0
O301 O 0.91573 0.14966 0.04808 0.0
Zn302 Zn 0.89615 0.12828 0.01818 0.0
O303 O 0.88673 0.09063 0.03323 0.0
C304 C 0.94074 0.1427 0.98138 0.0
O305 O 0.93882 0.16657 0.99443 0.0
O306 O 0.8621 0.1478 0.00473 0.0
C307 C 0.88489 0.0697 0.0173 0.0
O308 O 0.88706 0.07331 0.99036 0.0
C309 C 0.93675 0.1378 0.05875 0.0
O310 O 0.94285 0.11237 0.05098 0.0
O311 O 0.92364 0.12345 0.98718 0.0
H312 H 0.16046 0.03575 0.50977 0.0
H313 H 0.03466 0.12582 0.45028 0.0
H314 H 0.08795 0.05897 0.55702 0.0
H315 H 0.09639 0.08621 0.39877 0.0
H316 H 0.06068 0.11168 0.49137 0.0
H317 H 0.14358 0.06405 0.47111 0.0
C318 C 0.14123 0.04716 0.5122 0.0
C319 C 0.12534 0.04464 0.53648 0.0
C320 C 0.06873 0.10642 0.47106 0.0
C321 C 0.10599 0.07699 0.4924 0.0
C322 C 0.05393 0.11456 0.44756 0.0
C323 C 0.06307 0.10671 0.42105 0.0
C324 C 0.09285 0.09034 0.46804 0.0
C325 C 0.08836 0.09237 0.41883 0.0
C326 C 0.13159 0.06323 0.4901 0.0
C327 C 0.10066 0.05998 0.53852 0.0
N328 N 0.10219 0.08431 0.44205 0.0
N329 N 0.09162 0.07529 0.51667 0.0
H330 H 0.87421 0.38081 0.41837 0.0
H331 H 0.78317 0.47781 0.51704 0.0
H332 H 0.84151 0.46032 0.39328 0.0
H333 H 0.85091 0.42759 0.54741 0.0
H334 H 0.79186 0.46023 0.47022 0.0
H335 H 0.85309 0.3873 0.4643 0.0
C336 C 0.86202 0.3993 0.42232 0.0
C337 C 0.85977 0.42023 0.40219 0.0
C338 C 0.80441 0.45269 0.48728 0.0
C339 C 0.83549 0.4275 0.45423 0.0
C340 C 0.79942 0.46256 0.51402 0.0
C341 C 0.81663 0.45442 0.53608 0.0
C342 C 0.82644 0.43423 0.4827 0.0
C343 C 0.8374 0.43465 0.5309 0.0
C344 C 0.85015 0.403 0.44849 0.0
C345 C 0.84394 0.44385 0.40837 0.0
N346 N 0.84188 0.42535 0.50465 0.0
N347 N 0.83245 0.44691 0.43392 0.0
H348 H 0.10431 0.89746 0.07154 0.0
H349 H 0.11726 0.95351 0.91817 0.0
H350 H 0.04466 0.87895 0.00727 0.0
H351 H 0.18356 0.95906 0.97822 0.0
H352 H 0.09321 0.92078 0.94843 0.0
H353 H 0.13636 0.91454 0.03623 0.0
C354 C 0.09811 0.8966 0.04995 0.0
C355 C 0.07157 0.88723 0.04238 0.0
C356 C 0.11324 0.92877 0.95481 0.0
C357 C 0.10804 0.90706 0.00187 0.0
C358 C 0.12698 0.94749 0.93753 0.0
C359 C 0.15222 0.95943 0.94591 0.0
C360 C 0.12462 0.92224 0.98084 0.0
C361 C 0.164 0.95062 0.97105 0.0
C362 C 0.11645 0.90633 0.02977 0.0
C363 C 0.06479 0.88627 0.01408 0.0
N364 N 0.14985 0.93294 0.98787 0.0
N365 N 0.08271 0.89655 0.99489 0.0
H366 H 0.92371 0.62522 0.07671 0.0
H367 H 0.93609 0.52852 0.94305 0.0
H368 H -0.00158 0.58331 0.05048 0.0
H369 H 0.85794 0.5564 0.97692 0.0
H370 H 0.96042 0.55904 0.97522 0.0
H371 H 0.90098 0.61044 0.03363 0.0
C372 C 0.93551 0.61343 0.06164 0.0
C373 C 0.96282 0.60503 0.06734 0.0
C374 C 0.93794 0.55878 0.97539 0.0
C375 C 0.93704 0.58811 0.01826 0.0
C376 C 0.92401 0.54136 0.95699 0.0
C377 C 0.89495 0.53944 0.95773 0.0
C378 C 0.92274 0.57427 0.99483 0.0
C379 C 0.88039 0.55694 0.97591 0.0
C380 C 0.9225 0.60491 0.03714 0.0
C381 C 0.97717 0.58982 0.04711 0.0
N382 N 0.89447 0.57332 0.99411 0.0
N383 N 0.96402 0.5816 0.02362 0.0
H384 H 0.48123 0.04639 0.12855 0.0
H385 H 0.51833 0.1886 0.05194 0.0
H386 H 0.42263 0.11298 0.11563 0.0
H387 H 0.56919 0.11485 0.04918 0.0
H388 H 0.48769 0.16552 0.08521 0.0
H389 H 0.51805 0.07592 0.11005 0.0
C390 C 0.47617 0.06739 0.12234 0.0
C391 C 0.44868 0.07703 0.12313 0.0
C392 C 0.50577 0.15455 0.07758 0.0
C393 C 0.49071 0.11083 0.10174 0.0
C394 C 0.52331 0.16772 0.05864 0.0
C395 C 0.54611 0.15346 0.04743 0.0
C396 C 0.51117 0.127 0.08545 0.0
C397 C 0.55162 0.12649 0.05698 0.0
C398 C 0.4972 0.0842 0.11166 0.0
C399 C 0.44345 0.10454 0.11501 0.0
N400 N 0.53412 0.11405 0.07524 0.0
N401 N 0.46421 0.12035 0.10429 0.0
H402 H 0.57047 0.42006 0.08964 0.0
H403 H 0.41505 0.42128 0.0343 0.0
H404 H 0.51422 0.48886 0.10125 0.0
H405 H 0.46842 0.34938 0.03053 0.0
H406 H 0.44912 0.44433 0.06393 0.0
H407 H 0.53165 0.39178 0.0734 0.0
C408 C 0.54989 0.42911 0.08919 0.0
C409 C 0.54568 0.45702 0.09641 0.0
C410 C 0.45324 0.42337 0.05692 0.0
C411 C 0.50118 0.42484 0.07751 0.0
C412 C 0.43378 0.4102 0.03997 0.0
C413 C 0.43907 0.38351 0.02957 0.0
C414 C 0.47829 0.40987 0.06332 0.0
C415 C 0.46359 0.37007 0.03782 0.0
C416 C 0.52771 0.41294 0.07988 0.0
C417 C 0.5185 0.46754 0.09562 0.0
N418 N 0.48245 0.38354 0.0539 0.0
N419 N 0.49737 0.45157 0.08592 0.0
H420 H 0.51812 0.8248 0.41521 0.0
H421 H 0.42278 0.94965 0.36293 0.0
H422 H 0.54778 0.90825 0.40132 0.0
H423 H 0.39131 0.87355 0.39833 0.0
H424 H 0.46966 0.93033 0.36436 0.0
H425 H 0.47318 0.8381 0.39583 0.0
C426 C 0.51545 0.84575 0.40748 0.0
C427 C 0.53656 0.86563 0.41047 0.0
C428 C 0.45243 0.91774 0.37145 0.0
C429 C 0.48513 0.88095 0.38848 0.0
C430 C 0.42564 0.92872 0.37064 0.0
C431 C 0.40315 0.91337 0.38102 0.0
C432 C 0.45674 0.89117 0.3826 0.0
C433 C 0.4081 0.88628 0.39051 0.0
C434 C 0.48971 0.85334 0.39657 0.0
C435 C 0.53193 0.89238 0.39987 0.0
N436 N 0.43442 0.87614 0.39135 0.0
N437 N 0.50656 0.89938 0.38971 0.0
H438 H 0.4432 0.60542 0.43523 0.0
H439 H 0.59956 0.63068 0.3927 0.0
H440 H 0.48178 0.68632 0.43634 0.0
H441 H 0.55574 0.55445 0.37523 0.0
H442 H 0.55544 0.6528 0.40416 0.0
H443 H 0.48246 0.58763 0.40863 0.0
C444 C 0.45974 0.61955 0.4295 0.0
C445 C 0.45943 0.6473 0.43837 0.0
C446 C 0.5554 0.63135 0.39741 0.0
C447 C 0.50461 0.62698 0.40825 0.0
C448 C 0.58061 0.61869 0.39092 0.0
C449 C 0.58137 0.59056 0.38342 0.0
C450 C 0.53082 0.61566 0.39678 0.0
C451 C 0.55615 0.57612 0.38117 0.0
C452 C 0.48216 0.60938 0.41429 0.0
C453 C 0.48127 0.66473 0.43013 0.0
N454 N 0.53194 0.58871 0.38827 0.0
N455 N 0.50322 0.65416 0.41594 0.0
H456 H 0.13891 0.42434 0.07493 0.0
H457 H 0.06415 0.51009 0.19503 0.0
H458 H 0.09776 0.38712 0.14528 0.0
H459 H 0.08597 0.54387 0.11498 0.0
H460 H 0.08882 0.46739 0.18313 0.0
H461 H 0.13181 0.47008 0.09563 0.0
C462 C 0.1288 0.42571 0.09495 0.0
C463 C 0.11838 0.40191 0.10813 0.0
C464 C 0.08861 0.48435 0.16839 0.0
C465 C 0.11021 0.45418 0.13186 0.0
C466 C 0.07465 0.5088 0.1752 0.0
C467 C 0.07251 0.53035 0.15571 0.0
C468 C 0.10059 0.48154 0.142 0.0
C469 C 0.08668 0.52757 0.13043 0.0
C470 C 0.12472 0.45185 0.10672 0.0
C471 C 0.1057 0.40496 0.13417 0.0
N472 N 0.09981 0.50343 0.12414 0.0
N473 N 0.10165 0.43067 0.14503 0.0
H474 H 0.98618 0.47828 0.30878 0.0
H475 H 0.07416 0.51704 0.44408 0.0
H476 H 0.98218 0.43323 0.38612 0.0
H477 H 0.0612 0.574 0.3761 0.0
H478 H 0.04846 0.48161 0.41865 0.0
H479 H 0.02092 0.50927 0.32929 0.0
C480 C 0.99276 0.47476 0.32998 0.0
C481 C 0.98108 0.45331 0.34587 0.0
C482 C 0.05147 0.50178 0.40918 0.0
C483 C 0.02087 0.48848 0.36928 0.0
C484 C 0.06626 0.52201 0.42363 0.0
C485 C 0.06948 0.5487 0.41238 0.0
C486 C 0.03986 0.5082 0.38326 0.0
C487 C 0.05896 0.5538 0.38569 0.0
C488 C 0.01255 0.49247 0.34165 0.0
C489 C 0.99041 0.44967 0.3732 0.0
N490 N 0.04437 0.5338 0.37212 0.0
N491 N 0.0097 0.46713 0.38406 0.0
H492 H 0.89501 0.95338 0.47167 0.0
H493 H 0.96437 -0.00147 0.32777 0.0
H494 H 0.9182 0.89526 0.40752 0.0
H495 H 0.96096 0.05126 0.40015 0.0
H496 H 0.93945 0.96252 0.3535 0.0
H497 H 0.91107 0.99145 0.44226 0.0
C498 C 0.90321 0.94863 0.45129 0.0
C499 C 0.90555 0.92108 0.44214 0.0
C500 C 0.944 0.98207 0.36364 0.0
C501 C 0.92393 0.96453 0.40844 0.0
C502 C 0.95813 0.00266 0.34896 0.0
C503 C 0.96499 0.02782 0.36193 0.0
C504 C 0.9365 0.98678 0.39139 0.0
C505 C 0.95634 0.03205 0.38942 0.0
C506 C 0.91244 0.97037 0.43456 0.0
C507 C 0.91626 0.91618 0.4155 0.0
N508 N 0.94265 0.01169 0.40327 0.0
N509 N 0.9252 0.9377 0.39963 0.0
H510 H 0.3889 0.54057 0.50396 0.0
H511 H 0.46313 0.4745 0.63669 0.0
H512 H 0.41404 0.58805 0.5757 0.0
H513 H 0.46149 0.43605 0.55578 0.0
H514 H 0.43407 0.51212 0.61877 0.0
H515 H 0.4043 0.49823 0.52724 0.0
C516 C 0.39725 0.54207 0.52477 0.0
C517 C 0.40063 0.56793 0.53774 0.0
C518 C 0.43979 0.49523 0.60509 0.0
C519 C 0.41823 0.5196 0.56442 0.0
C520 C 0.45627 0.47371 0.6153 0.0
C521 C 0.46506 0.45235 0.59756 0.0
C522 C 0.43188 0.4952 0.57705 0.0
C523 C 0.4555 0.45233 0.57006 0.0
C524 C 0.40611 0.51789 0.53799 0.0
C525 C 0.41142 0.56858 0.56479 0.0
N526 N 0.4396 0.47357 0.56058 0.0
N527 N 0.42009 0.54477 0.57716 0.0
H528 H 0.56985 0.55616 0.04779 0.0
H529 H 0.57961 0.59317 0.88782 0.0
H530 H 0.64744 0.5596 0.00308 0.0
H531 H 0.50581 0.60676 0.93679 0.0
H532 H 0.60551 0.5837 0.93034 0.0
H533 H 0.54665 0.57774 0.00827 0.0
C534 C 0.58208 0.56178 0.02978 0.0
C535 C 0.61057 0.55578 0.02859 0.0
C536 C 0.58373 0.58908 0.93182 0.0
C537 C 0.58407 0.58018 0.98315 0.0
C538 C 0.5689 0.59441 0.90754 0.0
C539 C 0.54042 0.60044 0.90874 0.0
C540 C 0.5699 0.58943 0.95747 0.0
C541 C 0.52769 0.60201 0.93488 0.0
C542 C 0.56882 0.57413 0.00722 0.0
C543 C 0.62541 0.56371 0.00483 0.0
N544 N 0.54244 0.59618 0.95819 0.0
N545 N 0.61191 0.57515 0.98287 0.0
H546 H 0.42963 0.97316 0.08049 0.0
H547 H 0.42318 0.90678 0.92999 0.0
H548 H 0.35292 0.96064 0.03582 0.0
H549 H 0.49636 0.90449 0.98171 0.0
H550 H 0.39627 0.92319 0.96968 0.0
H551 H 0.45377 0.94508 0.04593 0.0
C552 C 0.41781 0.96427 0.06355 0.0
C553 C 0.38927 0.9695 0.06086 0.0
C554 C 0.41813 0.91873 0.97245 0.0
C555 C 0.41683 0.93752 0.02107 0.0
C556 C 0.43352 0.90936 0.94979 0.0
C557 C 0.46215 0.90459 0.95244 0.0
C558 C 0.43154 0.92368 -0.00213 0.0
C559 C 0.47439 0.9081 0.97864 0.0
C560 C 0.43159 0.94818 0.04385 0.0
C561 C 0.37497 0.95727 0.03862 0.0
N562 N 0.4591 0.91781 0.00023 0.0
N563 N 0.38897 0.94215 0.01937 0.0
H564 H 0.56655 0.40331 0.51482 0.0
H565 H 0.70098 0.48628 0.46451 0.0
H566 H 0.63977 0.41475 0.5653 0.0
H567 H 0.6219 0.48747 0.42228 0.0
H568 H 0.68263 0.45151 0.49664 0.0
H569 H 0.59062 0.425 0.47595 0.0
C570 C 0.58785 0.40999 0.51764 0.0
C571 C 0.60098 0.40767 0.54355 0.0
C572 C 0.66944 0.45914 0.48012 0.0
C573 C 0.62858 0.43273 0.4991 0.0
C574 C 0.6799 0.47894 0.46172 0.0
C575 C 0.66281 0.49009 0.44092 0.0
C576 C 0.64174 0.45037 0.47761 0.0
C577 C 0.63571 0.47972 0.43823 0.0
C578 C 0.60155 0.42245 0.49542 0.0
C579 C 0.62871 0.41642 0.54582 0.0
N580 N 0.62595 0.46063 0.45652 0.0
N581 N 0.64148 0.42891 0.52398 0.0
H582 H 0.41382 0.08567 0.54948 0.0
H583 H 0.28727 0.99266 0.49565 0.0
H584 H 0.35162 0.05103 0.60394 0.0
H585 H 0.36218 0.00785 0.44887 0.0
H586 H 0.30515 0.02244 0.53279 0.0
H587 H 0.38914 0.06619 0.50981 0.0
C588 C 0.39475 0.07431 0.55311 0.0
C589 C 0.38501 0.0696 0.58016 0.0
C590 C 0.31751 0.01944 0.51426 0.0
C591 C 0.35675 0.04715 0.53473 0.0
C592 C 0.30731 0.00254 0.49302 0.0
C593 C 0.3234 -0.00243 0.46925 0.0
C594 C 0.34384 0.03166 0.51153 0.0
C595 C 0.34921 0.01088 0.46696 0.0
C596 C 0.38074 0.0631 0.53042 0.0
C597 C 0.36004 0.05491 0.58349 0.0
N598 N 0.35867 0.02722 0.48789 0.0
N599 N 0.34689 0.04396 0.56104 0.0
H600 H 0.03254 0.63153 0.57136 0.0
H601 H 0.93277 0.50314 0.60149 0.0
H602 H 0.05022 0.54696 0.54749 0.0
H603 H 0.91134 0.58831 0.61941 0.0
H604 H 0.97995 0.51786 0.59054 0.0
H605 H 0.99268 0.61502 0.59807 0.0
C606 C 0.02838 0.60944 0.57216 0.0
C607 C 0.04439 0.59064 0.55671 0.0
C608 C 0.96503 0.53331 0.59717 0.0
C609 C -0.00127 0.57169 0.587 0.0
C610 C 0.93805 0.52491 0.60341 0.0
C611 C 0.91793 0.5446 0.61087 0.0
C612 C 0.97192 0.56162 0.59822 0.0
C613 C 0.92609 0.57247 0.61338 0.0
C614 C 0.00555 0.60005 0.58733 0.0
C615 C 0.03815 0.56225 0.55869 0.0
N616 N 0.95238 0.58021 0.6067 0.0
N617 N 0.01559 0.55369 0.5732 0.0
H618 H 0.96215 0.8194 0.57362 0.0
H619 H 0.03106 0.96574 0.60547 0.0
H620 H 0.92599 0.89834 0.55144 0.0
H621 H 0.06908 0.88736 0.62646 0.0
H622 H 0.98798 0.94145 0.59475 0.0
H623 H 0.99645 0.84374 0.60204 0.0
C624 C 0.96104 0.8418 0.57518 0.0
C625 C 0.94154 0.8569 0.55966 0.0
C626 C 0.00559 0.92955 0.60206 0.0
C627 C 0.98087 0.88486 0.5919 0.0
C628 C 0.03024 0.94343 0.60818 0.0
C629 C 0.05387 0.92849 0.61633 0.0
C630 C 0.00463 0.90046 0.60377 0.0
C631 C 0.05145 0.89967 0.61991 0.0
C632 C 0.9807 0.8557 0.59135 0.0
C633 C 0.94097 0.88588 0.56265 0.0
N634 N 0.0274 0.88651 0.61313 0.0
N635 N 0.96062 0.89892 0.57807 0.0
H636 H 0.0568 0.3679 0.00904 0.0
H637 H 0.90188 0.35644 0.95294 0.0
H638 H 0.00734 0.29362 0.01749 0.0
H639 H 0.958 0.42264 0.93042 0.0
H640 H 0.94066 0.33183 0.97463 0.0
H641 H 0.02136 0.38735 0.97849 0.0
C642 C 0.03857 0.35559 0.0043 0.0
C643 C 0.03492 0.32918 0.01602 0.0
C644 C 0.94453 0.35158 0.96463 0.0
C645 C 0.99412 0.35142 0.98119 0.0
C646 C 0.9224 0.36564 0.95221 0.0
C647 C 0.9266 0.39181 0.94011 0.0
C648 C 0.97098 0.36391 0.96516 0.0
C649 C 0.95369 0.40264 0.93969 0.0
C650 C 0.01836 0.36668 0.98679 0.0
C651 C 0.01097 0.3141 0.009 0.0
N652 N 0.97474 0.38881 0.95235 0.0
N653 N 0.99132 0.32556 0.99229 0.0
H654 H 0.10966 0.1333 0.92585 0.0
H655 H 0.95011 0.09657 0.94959 0.0
H656 H 0.07091 0.05755 0.89757 0.0
H657 H 0.98672 0.17506 0.97276 0.0
H658 H 0.99297 0.08428 0.92562 0.0
H659 H 0.06388 0.15129 0.93841 0.0
C660 C 0.09152 0.12057 0.92198 0.0
C661 C 0.09418 0.09372 0.911 0.0
C662 C 0.99155 0.10434 0.93565 0.0
C663 C 0.04176 0.1141 0.92547 0.0
C664 C 0.96705 0.11138 0.94935 0.0
C665 C 0.96494 0.13675 0.96349 0.0
C666 C 0.01425 0.12267 0.93631 0.0
C667 C 0.98749 0.1552 0.96229 0.0
C668 C 0.06538 0.13086 0.92916 0.0
C669 C 0.06992 0.07824 0.90627 0.0
N670 N 0.01134 0.14764 0.94926 0.0
N671 N 0.0448 0.08854 0.9138 0.0
H672 H 0.54342 0.01998 0.64904 0.0
H673 H 0.58646 0.96367 0.49951 0.0
H674 H 0.51941 0.05803 0.57156 0.0
H675 H 0.60477 0.92046 0.57583 0.0
H676 H 0.56998 0.00321 0.52639 0.0
H677 H 0.57368 0.98822 0.62339 0.0
C678 C 0.5448 0.02192 0.62669 0.0
C679 C 0.52852 0.04136 0.61236 0.0
C680 C 0.5779 0.98522 0.5373 0.0
C681 C 0.56297 0.00514 0.58296 0.0
C682 C 0.58735 0.96262 0.52194 0.0
C683 C 0.59653 0.93852 0.53545 0.0
C684 C 0.57741 0.98366 0.56639 0.0
C685 C 0.59756 0.9385 0.56456 0.0
C686 C 0.56203 0.00376 0.61207 0.0
C687 C 0.53125 0.04307 0.58343 0.0
N688 N 0.5877 0.96058 0.57909 0.0
N689 N 0.5479 0.02502 0.56968 0.0
H690 H 0.59958 0.10187 0.90461 0.0
H691 H 0.56511 0.94207 0.91835 0.0
H692 H 0.61801 0.054 0.97805 0.0
H693 H 0.56343 0.98591 0.84026 0.0
H694 H 0.58922 0.98141 0.93932 0.0
H695 H 0.59081 0.05879 0.87938 0.0
C696 C 0.60212 0.08228 0.91534 0.0
C697 C 0.60912 0.08154 0.94359 0.0
C698 C 0.58402 0.98226 0.91748 0.0
C699 C 0.59887 0.03215 0.91491 0.0
C700 C 0.57024 0.95979 0.90549 0.0
C701 C 0.56188 0.96088 0.87761 0.0
C702 C 0.58911 0.00617 0.90159 0.0
C703 C 0.56928 0.98425 0.86188 0.0
C704 C 0.59717 0.05767 0.9009 0.0
C705 C 0.6124 0.05556 0.95636 0.0
N706 N 0.58204 0.00619 0.87421 0.0
N707 N 0.60682 0.03191 0.94203 0.0
H708 H 0.43712 0.51696 0.79191 0.0
H709 H 0.37228 0.45644 0.93161 0.0
H710 H 0.43666 0.56012 0.87042 0.0
H711 H 0.38429 0.40794 0.85723 0.0
H712 H 0.38564 0.49804 0.90609 0.0
H713 H 0.40796 0.48071 0.81226 0.0
C714 C 0.43048 0.5191 0.81328 0.0
C715 C 0.43973 0.54138 0.82964 0.0
C716 C 0.38501 0.47837 0.89524 0.0
C717 C 0.4065 0.49994 0.85303 0.0
C718 C 0.37733 0.45457 0.90979 0.0
C719 C 0.37769 0.42855 0.89668 0.0
C720 C 0.39324 0.47616 0.86739 0.0
C721 C 0.38407 0.42751 0.86827 0.0
C722 C 0.41391 0.49833 0.8249 0.0
C723 C 0.43036 0.54311 0.85715 0.0
N724 N 0.39199 0.45093 0.85466 0.0
N725 N 0.41453 0.5225 0.86806 0.0
H726 H 0.89454 0.02053 0.9904 0.0
H727 H 0.92551 0.94213 0.1326 0.0
H728 H 0.87806 0.05461 0.0716 0.0
H729 H 0.95926 0.91803 0.05319 0.0
H730 H 0.89594 0.97602 0.10914 0.0
H731 H 0.90586 0.97603 0.01197 0.0
C732 C 0.89272 0.01852 0.0127 0.0
C733 C 0.88595 0.04149 0.02929 0.0
C734 C 0.90947 0.96296 0.09683 0.0
C735 C 0.89898 0.99072 0.05403 0.0
C736 C 0.92631 0.94355 0.11019 0.0
C737 C 0.94534 0.92768 0.09487 0.0
C738 C 0.91166 0.96645 0.06798 0.0
C739 C 0.94527 0.93022 0.06586 0.0
C740 C 0.89928 0.99313 0.025 0.0
C741 C 0.8837 0.03758 0.05806 0.0
N742 N 0.92899 0.94956 0.05338 0.0
N743 N 0.89059 0.01279 0.06956 0.0
H744 H 0.95844 0.1618 0.33647 0.0
H745 H 0.97045 0.32668 0.32267 0.0
H746 H 0.03584 0.20525 0.32367 0.0
H747 H 0.89284 0.28353 0.33521 0.0
H748 H 0.99435 0.28218 0.3206 0.0
H749 H 0.93376 0.20592 0.33372 0.0
C750 C 0.97026 0.18062 0.33297 0.0
C751 C -0.0007 0.17986 0.33044 0.0
C752 C 0.97208 0.2824 0.3237 0.0
C753 C 0.97111 0.23046 0.32732 0.0
C754 C 0.95838 0.30783 0.32489 0.0
C755 C 0.92958 0.30885 0.32929 0.0
C756 C 0.95693 0.25774 0.32699 0.0
C757 C 0.91506 0.28373 0.33188 0.0
C758 C 0.95613 0.20581 0.3314 0.0
C759 C 0.01347 0.20487 0.32583 0.0
N760 N 0.92893 0.25918 0.33082 0.0
N761 N -0.00076 0.22918 0.32453 0.0
H762 H 0.96228 0.68275 0.18344 0.0
H763 H 0.07508 0.80202 0.15953 0.0
H764 H 0.04956 0.66751 0.16982 0.0
H765 H 0.98652 0.81473 0.15345 0.0
H766 H 0.06661 0.75426 0.17436 0.0
H767 H 0.97171 0.73267 0.18396 0.0
C768 C 0.98349 0.68987 0.18108 0.0
C769 C 0.00512 0.67103 0.17609 0.0
C770 C 0.04904 0.76761 0.17003 0.0
C771 C 0.01597 0.72792 0.17653 0.0
C772 C 0.05385 0.79487 0.16157 0.0
C773 C 0.03147 0.81222 0.15478 0.0
C774 C 0.02168 0.7577 0.17179 0.0
C775 C 0.0044 0.80192 0.15807 0.0
C776 C 0.98883 0.71834 0.18125 0.0
C777 C 0.03221 0.68137 0.17328 0.0
N778 N 0.00026 0.77524 0.16612 0.0
N779 N 0.03683 0.70915 0.17325 0.0
H780 H 0.31561 0.05661 0.21448 0.0
H781 H 0.31026 0.9125 0.29688 0.0
H782 H 0.34296 0.97806 0.18108 0.0
H783 H 0.29769 0.99226 0.33581 0.0
H784 H 0.31348 0.9356 0.25194 0.0
H785 H 0.30094 0.0327 0.2569 0.0
C786 C 0.31835 0.03435 0.21598 0.0
C787 C 0.33083 0.01936 0.19437 0.0
C788 C 0.30974 0.94802 0.27029 0.0
C789 C 0.31399 0.99193 0.24261 0.0
C790 C 0.30778 0.93483 0.29596 0.0
C791 C 0.30412 0.95051 0.3202 0.0
C792 C 0.30803 0.9771 0.26884 0.0
C793 C 0.30085 0.97938 0.31768 0.0
C794 C 0.30999 0.02073 0.24017 0.0
C795 C 0.33375 0.99052 0.19735 0.0
N796 N 0.30318 0.99179 0.29248 0.0
N797 N 0.32551 0.97779 0.22106 0.0
H798 H 0.63844 0.55274 0.16381 0.0
H799 H 0.69918 0.52673 0.31516 0.0
H800 H 0.68434 0.47914 0.18639 0.0
H801 H 0.66244 0.60419 0.28899 0.0
H802 H 0.69757 0.51036 0.26725 0.0
H803 H 0.64989 0.57309 0.2087 0.0
C804 C 0.65101 0.54088 0.17818 0.0
C805 C 0.66021 0.51408 0.17145 0.0
C806 C 0.69019 0.53107 0.27192 0.0
C807 C 0.67341 0.53728 0.22295 0.0
C808 C 0.69114 0.54046 0.29928 0.0
C809 C 0.68058 0.56674 0.30616 0.0
C810 C 0.67837 0.54799 0.25134 0.0
C811 C 0.6706 0.5837 0.28469 0.0
C812 C 0.65765 0.55257 0.20379 0.0
C813 C 0.67666 0.4998 0.19079 0.0
N814 N 0.6694 0.57388 0.25831 0.0
N815 N 0.68253 0.51148 0.21578 0.0
H816 H 0.33243 0.31229 0.04638 0.0
H817 H 0.16831 0.308 0.02206 0.0
H818 H 0.29198 0.34117 0.97182 0.0
H819 H 0.20648 0.30037 0.1028 0.0
H820 H 0.21434 0.31055 0.00114 0.0
H821 H 0.28716 0.29869 0.06496 0.0
C822 C 0.31407 0.31553 0.0338 0.0
C823 C 0.31592 0.32818 0.00764 0.0
C824 C 0.21264 0.30807 0.0234 0.0
C825 C 0.2642 0.31258 0.02873 0.0
C826 C 0.18636 0.3065 0.03539 0.0
C827 C 0.18353 0.30435 0.0643 0.0
C828 C 0.23628 0.30737 0.04041 0.0
C829 C 0.20769 0.30232 0.08046 0.0
C830 C 0.28826 0.30781 0.04446 0.0
C831 C 0.29148 0.33178 0.99221 0.0
N832 N 0.23309 0.30411 0.0683 0.0
N833 N 0.26661 0.32413 0.00305 0.0
H834 H 0.1725 0.61538 0.52247 0.0
H835 H 0.32093 0.66139 0.46498 0.0
H836 H 0.18858 0.63271 0.43604 0.0
H837 H 0.30237 0.65008 0.55191 0.0
H838 H 0.27205 0.65352 0.45406 0.0
H839 H 0.21968 0.62974 0.53366 0.0
C840 C 0.18598 0.62217 0.50581 0.0
C841 C 0.17664 0.62268 0.47823 0.0
C842 C 0.27863 0.653 0.47554 0.0
C843 C 0.23074 0.63928 0.49095 0.0
C844 C 0.30653 0.65756 0.48181 0.0
C845 C 0.31579 0.65613 0.50939 0.0
C846 C 0.25991 0.64684 0.49699 0.0
C847 C 0.29619 0.65122 0.53034 0.0
C848 C 0.21291 0.6305 0.51225 0.0
C849 C 0.19497 0.63188 0.45756 0.0
N850 N 0.26922 0.6465 0.52368 0.0
N851 N 0.22121 0.63971 0.46434 0.0
H852 H 0.67804 0.8322 0.40661 0.0
H853 H 0.81224 0.82528 0.50412 0.0
H854 H 0.67744 0.84602 0.49514 0.0
H855 H 0.81601 0.81914 0.41481 0.0
H856 H 0.76174 0.8257 0.50144 0.0
H857 H 0.72755 0.82065 0.40945 0.0
C858 C 0.68824 0.83259 0.42664 0.0
C859 C 0.67371 0.84044 0.45061 0.0
C860 C 0.77357 0.82403 0.48242 0.0
C861 C 0.73009 0.82722 0.45401 0.0
C862 C 0.80244 0.82375 0.48394 0.0
C863 C 0.81837 0.82256 0.45962 0.0
C864 C 0.76048 0.82327 0.45638 0.0
C865 C 0.80452 0.82033 0.43407 0.0
C866 C 0.71647 0.82602 0.42824 0.0
C867 C 0.68789 0.84046 0.47605 0.0
N868 N 0.77633 0.82106 0.43308 0.0
N869 N 0.71529 0.83413 0.47704 0.0
H870 H 0.44948 0.81359 0.82269 0.0
H871 H 0.56243 0.69204 0.81648 0.0
H872 H 0.53556 0.8239 0.84561 0.0
H873 H 0.47436 0.67866 0.8061 0.0
H874 H 0.55394 0.74189 0.81975 0.0
H875 H 0.45927 0.76555 0.80964 0.0
C876 C 0.47047 0.80582 0.82483 0.0
C877 C 0.49168 0.8227 0.83552 0.0
C878 C 0.5365 0.72806 0.81652 0.0
C879 C 0.50302 0.7678 0.82056 0.0
C880 C 0.54133 0.69959 0.81454 0.0
C881 C 0.51903 0.68112 0.81135 0.0
C882 C 0.50917 0.73815 0.81527 0.0
C883 C 0.49216 0.69213 0.80882 0.0
C884 C 0.47604 0.77839 0.81738 0.0
C885 C 0.51851 0.81156 0.8377 0.0
N886 N 0.48795 0.71992 0.81107 0.0
N887 N 0.52338 0.78477 0.83041 0.0
H888 H 0.56308 0.28955 0.62915 0.0
H889 H 0.42361 0.19915 0.63036 0.0
H890 H 0.48117 0.32376 0.61649 0.0
H891 H 0.50531 0.165 0.64448 0.0
H892 H 0.44401 0.24558 0.62869 0.0
H893 H 0.54205 0.24417 0.63793 0.0
C894 C 0.54069 0.28755 0.62831 0.0
C895 C 0.52389 0.31043 0.62187 0.0
C896 C 0.45744 0.22794 0.63234 0.0
C897 C 0.49969 0.25864 0.63188 0.0
C898 C 0.44579 0.20143 0.63335 0.0
C899 C 0.4628 0.17814 0.6373 0.0
C900 C 0.48632 0.23115 0.63523 0.0
C901 C 0.49141 0.18234 0.64116 0.0
C902 C 0.52869 0.26166 0.63336 0.0
C903 C 0.49497 0.30667 0.6212 0.0
N904 N 0.50228 0.2083 0.63982 0.0
N905 N 0.48381 0.28125 0.626 0.0
H906 H 0.85899 0.41415 0.815 0.0
H907 H 0.82154 0.53755 0.71057 0.0
H908 H 0.84964 0.49992 0.83936 0.0
H909 H 0.83193 0.45238 0.6846 0.0
H910 H 0.82686 0.52298 0.75869 0.0
H911 H 0.84499 0.4267 0.76781 0.0
C912 C 0.85392 0.43558 0.81047 0.0
C913 C 0.85573 0.45605 0.8311 0.0
C914 C 0.82774 0.50741 0.74251 0.0
C915 C 0.83962 0.47051 0.77728 0.0
C916 C 0.82463 0.51572 0.715 0.0
C917 C 0.82661 0.4962 0.69351 0.0
C918 C 0.83304 0.47938 0.7486 0.0
C919 C 0.83044 0.46816 0.70052 0.0
C920 C 0.84587 0.44271 0.78355 0.0
C921 C 0.84876 0.48346 0.82409 0.0
N922 N 0.83383 0.46062 0.72747 0.0
N923 N 0.84115 0.48989 0.79777 0.0
H924 H 0.13291 0.03978 0.67284 0.0
H925 H 0.19929 0.00864 0.81783 0.0
H926 H 0.20437 0.98627 0.68007 0.0
H927 H 0.15641 0.0854 0.80048 0.0
H928 H 0.20202 -0.00046 0.76792 0.0
H929 H 0.14107 0.05637 0.71996 0.0
C930 C 0.15046 0.03168 0.68435 0.0
C931 C 0.16788 0.01148 0.67274 0.0
C932 C 0.19245 0.01859 0.77507 0.0
C933 C 0.17714 0.0301 0.72673 0.0
C934 C 0.19079 0.02375 0.80352 0.0
C935 C 0.17726 0.04764 0.8133 0.0
C936 C 0.18004 0.03718 0.75642 0.0
C937 C 0.16684 0.06663 0.79386 0.0
C938 C 0.15521 0.04127 0.71116 0.0
C939 C 0.19047 0.00185 0.68837 0.0
N940 N 0.16801 0.06076 0.76635 0.0
N941 N 0.19421 0.01091 0.71486 0.0
H942 H 0.82762 0.16445 0.96803 0.0
H943 H 0.67285 0.19619 0.01543 0.0
H944 H 0.80436 0.18298 0.05254 0.0
H945 H 0.6969 0.18199 0.93031 0.0
H946 H 0.72177 0.19833 0.02838 0.0
H947 H 0.78108 0.17743 0.95289 0.0
C948 C 0.8128 0.17152 0.98339 0.0
C949 C 0.81973 0.17218 0.01167 0.0
C950 C 0.71637 0.19511 0.0068 0.0
C951 C 0.76634 0.18693 0.99447 0.0
C952 C 0.68842 0.19389 -0.00062 0.0
C953 C 0.68078 0.18841 0.97181 0.0
C954 C 0.73684 0.19058 0.98656 0.0
C955 C 0.70184 0.18594 0.95186 0.0
C956 C 0.78622 0.17898 0.97471 0.0
C957 C 0.79982 0.18186 0.03057 0.0
N958 N 0.72892 0.18664 0.9597 0.0
N959 N 0.77389 0.1885 0.02167 0.0
H960 H 0.09784 0.9328 0.19093 0.0
H961 H 0.02744 0.06663 0.25931 0.0
H962 H 0.01863 0.96658 0.166 0.0
H963 H 0.09048 0.01837 0.30097 0.0
H964 H 0.03081 0.03567 0.21945 0.0
H965 H 0.10149 0.96922 0.22638 0.0
C966 C 0.08134 0.94796 0.19279 0.0
C967 C 0.05778 0.94654 0.1757 0.0
C968 C 0.04408 0.03201 0.23723 0.0
C969 C 0.06198 0.98822 0.21579 0.0
C970 C 0.04228 0.04975 0.25996 0.0
C971 C 0.05846 0.04487 0.28369 0.0
C972 C 0.06227 0.00928 0.23811 0.0
C973 C 0.07742 0.02273 0.28322 0.0
C974 C 0.08343 0.96867 0.213 0.0
C975 C 0.03703 0.96671 0.17893 0.0
N976 N 0.07867 0.00558 0.26084 0.0
N977 N 0.03962 0.98669 0.19859 0.0
H978 H 0.85504 0.47636 0.28049 0.0
H979 H 0.97735 0.51646 0.18079 0.0
H980 H 0.91467 0.41714 0.24937 0.0
H981 H 0.90251 0.56571 0.18298 0.0
H982 H 0.95371 0.48006 0.20648 0.0
H983 H 0.8696 0.50906 0.24432 0.0
C984 C 0.87063 0.46993 0.26563 0.0
C985 C 0.8841 0.44421 0.26832 0.0
C986 C 0.94229 0.49869 0.20118 0.0
C987 C 0.90109 0.48158 0.22744 0.0
C988 C 0.95588 0.51962 0.18672 0.0
C989 C 0.94192 0.54424 0.17999 0.0
C990 C 0.91463 0.50251 0.20952 0.0
C991 C 0.914 0.54703 0.1879 0.0
C992 C 0.879 0.48866 0.24509 0.0
C993 C 0.9041 0.43695 0.24844 0.0
N994 N 0.90131 0.52652 0.20265 0.0
N995 N 0.91235 0.45573 0.22921 0.0
H996 H 0.26586 0.07384 0.91294 0.0
H997 H 0.29219 0.06236 0.07586 0.0
H998 H 0.20077 0.06304 0.9736 0.0
H999 H 0.35738 0.07687 0.01612 0.0
H1000 H 0.25785 0.06832 0.0391 0.0
H1001 H 0.2991 0.08076 0.95069 0.0
C1002 C 0.25849 0.07325 0.93416 0.0
C1003 C 0.23057 0.06745 0.94012 0.0
C1004 C 0.27965 0.07051 0.03406 0.0
C1005 C 0.26847 0.07518 0.98338 0.0
C1006 C 0.29928 0.06711 0.05507 0.0
C1007 C 0.32771 0.06877 0.04898 0.0
C1008 C 0.28852 0.07537 0.00672 0.0
C1009 C 0.33568 0.07518 0.02171 0.0
C1010 C 0.27748 0.07719 0.95571 0.0
C1011 C 0.22215 0.06712 0.96801 0.0
N1012 N 0.31619 0.07792 0.00151 0.0
N1013 N 0.24108 0.07061 0.98858 0.0
H1014 H 0.7087 0.46766 0.06764 0.0
H1015 H 0.76764 0.43256 0.91664 0.0
H1016 H 0.65654 0.4483 -0.00265 0.0
H1017 H 0.81917 0.45351 0.98694 0.0
H1018 H 0.72694 0.43338 0.9469 0.0
H1019 H 0.74956 0.45764 0.03948 0.0
C1020 C 0.70581 0.46107 0.04634 0.0
C1021 C 0.67915 0.45906 0.03476 0.0
C1022 C 0.74719 0.43757 0.95574 0.0
C1023 C 0.7259 0.44771 0.00232 0.0
C1024 C 0.77045 0.43708 0.93848 0.0
C1025 C 0.79683 0.44323 0.94922 0.0
C1026 C 0.75033 0.4443 0.98393 0.0
C1027 C 0.79922 0.44885 0.9777 0.0
C1028 C 0.72918 0.45536 0.03025 0.0
C1029 C 0.6767 0.45027 0.00709 0.0
N1030 N 0.77625 0.44944 0.99401 0.0
N1031 N 0.69979 0.44514 0.99174 0.0
H1032 H 0.24302 0.90043 0.43817 0.0
H1033 H 0.20969 0.90857 0.60002 0.0
H1034 H 0.30472 0.88895 0.50217 0.0
H1035 H 0.15386 0.9338 0.53466 0.0
H1036 H 0.24132 0.88968 0.56484 0.0
H1037 H 0.20691 0.90004 0.47362 0.0
C1038 C 0.24895 0.89727 0.45962 0.0
C1039 C 0.27699 0.89538 0.46727 0.0
C1040 C 0.22192 0.89897 0.55829 0.0
C1041 C 0.23577 0.89533 0.50801 0.0
C1042 C 0.20387 0.90969 0.57834 0.0
C1043 C 0.1794 0.92321 0.57017 0.0
C1044 C 0.21525 0.90167 0.53001 0.0
C1045 C 0.17278 0.92401 0.54184 0.0
C1046 C 0.22831 0.89716 0.47988 0.0
C1047 C 0.28339 0.89093 0.49537 0.0
N1048 N 0.19071 0.91365 0.5228 0.0
N1049 N 0.26296 0.89158 0.51481 0.0
H1050 H 0.73896 0.55453 0.60249 0.0
H1051 H 0.73767 0.59373 0.44404 0.0
H1052 H 0.81343 0.56854 0.55461 0.0
H1053 H 0.66447 0.59589 0.49569 0.0
H1054 H 0.76638 0.59187 0.48575 0.0
H1055 H 0.71193 0.57689 0.5659 0.0
C1056 C 0.74971 0.5628 0.58457 0.0
C1057 C 0.77841 0.55905 0.58132 0.0
C1058 C 0.74405 0.59328 0.48799 0.0
C1059 C 0.74758 0.5843 0.53919 0.0
C1060 C 0.72765 0.59436 0.46415 0.0
C1061 C 0.69861 0.59438 0.46636 0.0
C1062 C 0.7313 0.59182 0.51419 0.0
C1063 C 0.68678 0.59545 0.49297 0.0
C1064 C 0.73425 0.57556 0.56363 0.0
C1065 C 0.79126 0.57048 0.55777 0.0
N1066 N 0.70314 0.59357 0.51584 0.0
N1067 N 0.77569 0.58208 0.53737 0.0
H1068 H 0.09181 0.20956 0.09705 0.0
H1069 H 0.93031 0.19006 0.0802 0.0
H1070 H 0.03197 0.27357 0.11593 0.0
H1071 H 0.98873 0.12226 0.07547 0.0
H1072 H 0.96649 0.21907 0.10064 0.0
H1073 H 0.05433 0.17542 0.09686 0.0
C1074 C 0.0709 0.21636 0.10174 0.0
C1075 C 0.06494 0.24457 0.10583 0.0
C1076 C 0.9713 0.1977 0.09559 0.0
C1077 C 0.02189 0.2057 0.10523 0.0
C1078 C 0.95063 0.18114 0.08387 0.0
C1079 C 0.95667 0.15389 0.07562 0.0
C1080 C -0.0017 0.18705 0.09868 0.0
C1081 C 0.98325 0.1433 0.08117 0.0
C1082 C 0.04946 0.19685 0.10158 0.0
C1083 C 0.03748 0.25211 0.11214 0.0
N1084 N 0.00325 0.16006 0.09188 0.0
N1085 N 0.01691 0.23289 0.11108 0.0
H1086 H 0.02821 0.65568 0.45366 0.0
H1087 H 0.0074 0.81929 0.47232 0.0
H1088 H 0.09271 0.71107 0.48223 0.0
H1089 H 0.94008 0.76158 0.45892 0.0
H1090 H 0.04033 0.78089 0.46885 0.0
H1091 H 0.99724 0.69538 0.44817 0.0
C1092 C 0.03597 0.67622 0.45853 0.0
C1093 C 0.06302 0.68004 0.46872 0.0
C1094 C 0.01836 0.77668 0.46649 0.0
C1095 C 0.02761 0.72554 0.46253 0.0
C1096 C -0.00046 0.79858 0.46841 0.0
C1097 C 0.97092 0.79358 0.46614 0.0
C1098 C 0.0085 0.74959 0.46217 0.0
C1099 C 0.96195 0.76634 0.46101 0.0
C1100 C 0.01823 0.69887 0.45546 0.0
C1101 C 0.07195 0.70715 0.47455 0.0
N1102 N 0.98068 0.74534 0.45933 0.0
N1103 N 0.05421 0.72886 0.47154 0.0
H1104 H 0.52529 0.83484 0.51661 0.0
H1105 H 0.5001 0.67515 0.55083 0.0
H1106 H 0.59137 0.77604 0.53114 0.0
H1107 H 0.43487 0.73332 0.53091 0.0
H1108 H 0.53311 0.71357 0.55272 0.0
H1109 H 0.49162 0.79983 0.53066 0.0
C1110 C 0.53277 0.81464 0.52306 0.0
C1111 C 0.56118 0.8082 0.52225 0.0
C1112 C 0.5115 0.71798 0.54832 0.0
C1113 C 0.52263 0.76791 0.5382 0.0
C1114 C 0.4926 0.69605 0.5473 0.0
C1115 C 0.46476 0.70098 0.54022 0.0
C1116 C 0.50249 0.745 0.54215 0.0
C1117 C 0.4562 0.72851 0.5361 0.0
C1118 C 0.51349 0.79464 0.5311 0.0
C1119 C 0.56965 0.78181 0.53118 0.0
N1120 N 0.47508 0.74944 0.53677 0.0
N1121 N 0.55041 0.76248 0.53843 0.0
H1122 H 0.54711 0.49338 0.81306 0.0
H1123 H 0.56769 0.4615 0.6518 0.0
H1124 H 0.54793 0.55633 0.74928 0.0
H1125 H 0.54806 0.39891 0.71289 0.0
H1126 H 0.57115 0.49588 0.68882 0.0
H1127 H 0.55776 0.45838 0.778 0.0
C1128 C 0.54986 0.49992 0.79173 0.0
C1129 C 0.54625 0.52779 0.78401 0.0
C1130 C 0.56641 0.47455 0.69414 0.0
C1131 C 0.55843 0.48779 0.74383 0.0
C1132 C 0.56453 0.45485 0.67304 0.0
C1133 C 0.55712 0.42733 0.67921 0.0
C1134 C 0.56093 0.4667 0.72163 0.0
C1135 C 0.55349 0.41995 0.70714 0.0
C1136 C 0.5559 0.47989 0.77174 0.0
C1137 C 0.55024 0.53504 0.75611 0.0
N1138 N 0.55514 0.4396 0.7273 0.0
N1139 N 0.5559 0.51512 0.73698 0.0
H1140 H 0.45646 0.93666 0.79274 0.0
H1141 H 0.44642 0.09436 0.74329 0.0
H1142 H 0.46031 0.00636 0.84895 0.0
H1143 H 0.43634 0.02397 0.6887 0.0
H1144 H 0.44715 0.06269 0.78294 0.0
H1145 H 0.44482 0.96839 0.75506 0.0
C1146 C 0.45462 0.95862 0.79721 0.0
C1147 C 0.45964 0.9689 0.82398 0.0
C1148 C 0.44449 0.05422 0.7623 0.0
C1149 C 0.4465 0.00542 0.78086 0.0
C1150 C 0.44404 0.0723 0.73965 0.0
C1151 C 0.44166 0.06179 0.7126 0.0
C1152 C 0.44268 0.02544 0.75782 0.0
C1153 C 0.4385 0.03301 0.70915 0.0
C1154 C 0.44795 0.97675 0.77568 0.0
C1155 C 0.45677 0.99754 0.8286 0.0
N1156 N 0.43939 0.01585 0.73146 0.0
N1157 N 0.45068 0.01484 0.80718 0.0
H1158 H 0.45171 0.32938 0.92755 0.0
H1159 H 0.49446 0.16955 0.93397 0.0
H1160 H 0.39248 0.26221 0.93211 0.0
H1161 H 0.55247 0.23764 0.94019 0.0
H1162 H 0.45739 0.2027 0.92402 0.0
H1163 H 0.48899 0.29557 0.92251 0.0
C1164 C 0.44647 0.30751 0.92711 0.0
C1165 C 0.41896 0.29859 0.93075 0.0
C1166 C 0.47829 0.21035 0.92725 0.0
C1167 C 0.46166 0.25974 0.92521 0.0
C1168 C 0.49949 0.19144 0.9329 0.0
C1169 C 0.52653 0.20088 0.93833 0.0
C1170 C 0.48419 0.23889 0.92701 0.0
C1171 C 0.53186 0.22945 0.93647 0.0
C1172 C 0.46781 0.2882 0.92428 0.0
C1173 C 0.41342 0.27001 0.92967 0.0
N1174 N 0.51082 0.24746 0.93123 0.0
N1175 N 0.43465 0.25156 0.92737 0.0
loop_
_geom_bond_atom_site_label_1
_geom_bond_atom_site_label_2
_geom_bond_distance
_geom_bond_site_symmetry_2
_ccdc_geom_bond_type
C0 O1 1.160 1_655 S
C0 O7 1.185 . S
O1 C0 1.160 1_455 S
O2 Zn3 1.899 . S
O2 C10 1.284 1_655 S
Zn3 O2 1.899 . S
Zn3 O4 2.032 1_655 S
Zn3 O7 2.086 . S
Zn3 O12 1.977 . S
O4 Zn3 2.032 1_455 S
O4 C8 1.278 . S
C5 O6 1.203 . S
C5 O12 1.267 . S
O6 C5 1.203 . S
O7 C0 1.185 . S
O7 Zn3 2.086 . S
C8 O4 1.278 . S
C8 O9 1.211 . S
O9 C8 1.211 . S
C10 O2 1.284 1_455 S
C10 O11 1.273 . S
O11 C10 1.273 . S
O12 Zn3 1.977 . S
O12 C5 1.267 . S
C13 O14 1.160 1_455 S
C13 O20 1.185 . S
O14 C13 1.160 1_655 S
O15 Zn16 1.899 . S
O15 C23 1.284 1_455 S
Zn16 O15 1.899 . S
Zn16 O17 2.032 1_455 S
Zn16 O20 2.086 . S
Zn16 O25 1.977 . S
O17 Zn16 2.032 1_655 S
O17 C21 1.278 . S
C18 O19 1.203 . S
C18 O25 1.267 . S
O19 C18 1.203 . S
O20 C13 1.185 . S
O20 Zn16 2.086 . S
C21 O17 1.278 . S
C21 O22 1.211 . S
O22 C21 1.211 . S
C23 O15 1.284 1_655 S
C23 O24 1.273 . S
O24 C23 1.273 . S
O25 Zn16 1.977 . S
O25 C18 1.267 . S
C26 O27 1.160 1_655 S
C26 O33 1.185 . S
O27 C26 1.160 1_455 S
O28 Zn29 1.899 . S
O28 C36 1.284 1_655 S
Zn29 O28 1.899 . S
Zn29 O30 2.032 1_655 S
Zn29 O33 2.086 . S
Zn29 O38 1.977 . S
O30 Zn29 2.032 1_455 S
O30 C34 1.278 . S
C31 O32 1.203 . S
C31 O38 1.267 . S
O32 C31 1.203 . S
O33 C26 1.185 . S
O33 Zn29 2.086 . S
C34 O30 1.278 . S
C34 O35 1.211 . S
O35 C34 1.211 . S
C36 O28 1.284 1_455 S
C36 O37 1.273 . S
O37 C36 1.273 . S
O38 Zn29 1.977 . S
O38 C31 1.267 . S
C39 O40 1.160 1_455 S
C39 O46 1.185 . S
O40 C39 1.160 1_655 S
O41 Zn42 1.899 . S
O41 C49 1.284 1_455 S
Zn42 O41 1.899 . S
Zn42 O43 2.032 1_455 S
Zn42 O46 2.086 . S
Zn42 O51 1.977 . S
O43 Zn42 2.032 1_655 S
O43 C47 1.278 . S
C44 O45 1.203 . S
C44 O51 1.267 . S
O45 C44 1.203 . S
O46 C39 1.185 . S
O46 Zn42 2.086 . S
C47 O43 1.278 . S
C47 O48 1.211 . S
O48 C47 1.211 . S
C49 O41 1.284 1_655 S
C49 O50 1.273 . S
O50 C49 1.273 . S
O51 Zn42 1.977 . S
O51 C44 1.267 . S
C52 O53 1.160 1_565 S
C52 O59 1.185 . S
O53 C52 1.160 1_545 S
O54 Zn55 1.899 . S
O54 C62 1.284 1_565 S
Zn55 O54 1.899 . S
Zn55 O56 2.032 1_565 S
Zn55 O59 2.086 . S
Zn55 O64 1.977 . S
O56 Zn55 2.032 1_545 S
O56 C60 1.278 . S
C57 O58 1.203 . S
C57 O64 1.267 . S
O58 C57 1.203 . S
O59 C52 1.185 . S
O59 Zn55 2.086 . S
C60 O56 1.278 . S
C60 O61 1.211 . S
O61 C60 1.211 . S
C62 O54 1.284 1_545 S
C62 O63 1.273 . S
O63 C62 1.273 . S
O64 Zn55 1.977 . S
O64 C57 1.267 . S
C65 O66 1.160 . S
C65 O72 1.185 . S
O66 C65 1.160 . S
O67 Zn68 1.899 . S
O67 C75 1.284 . S
Zn68 O67 1.899 . S
Zn68 O69 2.032 . S
Zn68 O72 2.086 . S
Zn68 O77 1.977 . S
O69 Zn68 2.032 . S
O69 C73 1.278 . S
C70 O71 1.203 . S
C70 O77 1.267 . S
O71 C70 1.203 . S
O72 C65 1.185 . S
O72 Zn68 2.086 . S
C73 O69 1.278 . S
C73 O74 1.211 . S
O74 C73 1.211 . S
C75 O67 1.284 . S
C75 O76 1.273 . S
O76 C75 1.273 . S
O77 Zn68 1.977 . S
O77 C70 1.267 . S
C78 O79 1.160 1_545 S
C78 O85 1.185 . S
O79 C78 1.160 1_565 S
O80 Zn81 1.899 . S
O80 C88 1.284 1_545 S
Zn81 O80 1.899 . S
Zn81 O82 2.032 1_545 S
Zn81 O85 2.086 . S
Zn81 O90 1.977 . S
O82 Zn81 2.032 1_565 S
O82 C86 1.278 . S
C83 O84 1.203 . S
C83 O90 1.267 . S
O84 C83 1.203 . S
O85 C78 1.185 . S
O85 Zn81 2.086 . S
C86 O82 1.278 . S
C86 O87 1.211 . S
O87 C86 1.211 . S
C88 O80 1.284 1_565 S
C88 O89 1.273 . S
O89 C88 1.273 . S
O90 Zn81 1.977 . S
O90 C83 1.267 . S
C91 O92 1.160 . S
C91 O98 1.185 . S
O92 C91 1.160 . S
O93 Zn94 1.899 . S
O93 C101 1.284 . S
Zn94 O93 1.899 . S
Zn94 O95 2.032 . S
Zn94 O98 2.086 . S
Zn94 O103 1.977 . S
O95 Zn94 2.032 . S
O95 C99 1.278 . S
C96 O97 1.203 . S
C96 O103 1.267 . S
O97 C96 1.203 . S
O98 C91 1.185 . S
O98 Zn94 2.086 . S
C99 O95 1.278 . S
C99 O100 1.211 . S
O100 C99 1.211 . S
C101 O93 1.284 . S
C101 O102 1.273 . S
O102 C101 1.273 . S
O103 Zn94 1.977 . S
O103 C96 1.267 . S
C104 O105 1.160 1_556 S
C104 O111 1.185 . S
O105 C104 1.160 1_554 S
O106 Zn107 1.899 . S
O106 C114 1.284 1_556 S
Zn107 O106 1.899 . S
Zn107 O108 2.032 1_556 S
Zn107 O111 2.086 . S
Zn107 O116 1.977 . S
O108 Zn107 2.032 1_554 S
O108 C112 1.278 . S
C109 O110 1.203 . S
C109 O116 1.267 . S
O110 C109 1.203 . S
O111 C104 1.185 . S
O111 Zn107 2.086 . S
C112 O108 1.278 . S
C112 O113 1.211 . S
O113 C112 1.211 . S
C114 O106 1.284 1_554 S
C114 O115 1.273 . S
O115 C114 1.273 . S
O116 Zn107 1.977 . S
O116 C109 1.267 . S
C117 O118 1.160 . S
C117 O124 1.185 . S
O118 C117 1.160 . S
O119 Zn120 1.899 . S
O119 C127 1.284 . S
Zn120 O119 1.899 . S
Zn120 O121 2.032 . S
Zn120 O124 2.086 . S
Zn120 O129 1.977 . S
O121 Zn120 2.032 . S
O121 C125 1.278 . S
C122 O123 1.203 . S
C122 O129 1.267 . S
O123 C122 1.203 . S
O124 C117 1.185 . S
O124 Zn120 2.086 . S
C125 O121 1.278 . S
C125 O126 1.211 . S
O126 C125 1.211 . S
C127 O119 1.284 . S
C127 O128 1.273 . S
O128 C127 1.273 . S
O129 Zn120 1.977 . S
O129 C122 1.267 . S
C130 O131 1.160 . S
C130 O137 1.185 . S
O131 C130 1.160 . S
O132 Zn133 1.899 . S
O132 C140 1.284 . S
Zn133 O132 1.899 . S
Zn133 O134 2.032 . S
Zn133 O137 2.086 . S
Zn133 O142 1.977 . S
O134 Zn133 2.032 . S
O134 C138 1.278 . S
C135 O136 1.203 . S
C135 O142 1.267 . S
O136 C135 1.203 . S
O137 C130 1.185 . S
O137 Zn133 2.086 . S
C138 O134 1.278 . S
C138 O139 1.211 . S
O139 C138 1.211 . S
C140 O132 1.284 . S
C140 O141 1.273 . S
O141 C140 1.273 . S
O142 Zn133 1.977 . S
O142 C135 1.267 . S
C143 O144 1.160 . S
C143 O150 1.185 . S
O144 C143 1.160 . S
O145 Zn146 1.899 . S
O145 C153 1.284 . S
Zn146 O145 1.899 . S
Zn146 O147 2.032 . S
Zn146 O150 2.086 . S
Zn146 O155 1.977 . S
O147 Zn146 2.032 . S
O147 C151 1.278 . S
C148 O149 1.203 . S
C148 O155 1.267 . S
O149 C148 1.203 . S
O150 C143 1.185 . S
O150 Zn146 2.086 . S
C151 O147 1.278 . S
C151 O152 1.211 . S
O152 C151 1.211 . S
C153 O145 1.284 . S
C153 O154 1.273 . S
O154 C153 1.273 . S
O155 Zn146 1.977 . S
O155 C148 1.267 . S
C156 O157 1.160 . S
C156 O163 1.185 . S
O157 C156 1.160 . S
O158 Zn159 1.899 . S
O158 C166 1.284 . S
Zn159 O158 1.899 . S
Zn159 O160 2.032 . S
Zn159 O163 2.086 . S
Zn159 O168 1.977 . S
O160 Zn159 2.032 . S
O160 C164 1.278 . S
C161 O162 1.203 . S
C161 O168 1.267 . S
O162 C161 1.203 . S
O163 C156 1.185 . S
O163 Zn159 2.086 . S
C164 O160 1.278 . S
C164 O165 1.211 . S
O165 C164 1.211 . S
C166 O158 1.284 . S
C166 O167 1.273 . S
O167 C166 1.273 . S
O168 Zn159 1.977 . S
O168 C161 1.267 . S
C169 O170 1.160 . S
C169 O176 1.185 . S
O170 C169 1.160 . S
O171 Zn172 1.899 . S
O171 C179 1.284 . S
Zn172 O171 1.899 . S
Zn172 O173 2.032 . S
Zn172 O176 2.086 . S
Zn172 O181 1.977 . S
O173 Zn172 2.032 . S
O173 C177 1.278 . S
C174 O175 1.203 . S
C174 O181 1.267 . S
O175 C174 1.203 . S
O176 C169 1.185 . S
O176 Zn172 2.086 . S
C177 O173 1.278 . S
C177 O178 1.211 . S
O178 C177 1.211 . S
C179 O171 1.284 . S
C179 O180 1.273 . S
O180 C179 1.273 . S
O181 Zn172 1.977 . S
O181 C174 1.267 . S
C182 O183 1.160 . S
C182 O189 1.185 . S
O183 C182 1.160 . S
O184 Zn185 1.899 . S
O184 C192 1.284 . S
Zn185 O184 1.899 . S
Zn185 O186 2.032 . S
Zn185 O189 2.086 . S
Zn185 O194 1.977 . S
O186 Zn185 2.032 . S
O186 C190 1.278 . S
C187 O188 1.203 . S
C187 O194 1.267 . S
O188 C187 1.203 . S
O189 C182 1.185 . S
O189 Zn185 2.086 . S
C190 O186 1.278 . S
C190 O191 1.211 . S
O191 C190 1.211 . S
C192 O184 1.284 . S
C192 O193 1.273 . S
O193 C192 1.273 . S
O194 Zn185 1.977 . S
O194 C187 1.267 . S
C195 O196 1.160 . S
C195 O202 1.185 . S
O196 C195 1.160 . S
O197 Zn198 1.899 . S
O197 C205 1.284 . S
Zn198 O197 1.899 . S
Zn198 O199 2.032 . S
Zn198 O202 2.086 . S
Zn198 O207 1.977 . S
O199 Zn198 2.032 . S
O199 C203 1.278 . S
C200 O201 1.203 . S
C200 O207 1.267 . S
O201 C200 1.203 . S
O202 C195 1.185 . S
O202 Zn198 2.086 . S
C203 O199 1.278 . S
C203 O204 1.211 . S
O204 C203 1.211 . S
C205 O197 1.284 . S
C205 O206 1.273 . S
O206 C205 1.273 . S
O207 Zn198 1.977 . S
O207 C200 1.267 . S
C208 O209 1.160 . S
C208 O215 1.185 . S
O209 C208 1.160 . S
O210 Zn211 1.899 . S
O210 C218 1.284 . S
Zn211 O210 1.899 . S
Zn211 O212 2.032 . S
Zn211 O215 2.086 . S
Zn211 O220 1.977 . S
O212 Zn211 2.032 . S
O212 C216 1.278 . S
C213 O214 1.203 . S
C213 O220 1.267 . S
O214 C213 1.203 . S
O215 C208 1.185 . S
O215 Zn211 2.086 . S
C216 O212 1.278 . S
C216 O217 1.211 . S
O217 C216 1.211 . S
C218 O210 1.284 . S
C218 O219 1.273 . S
O219 C218 1.273 . S
O220 Zn211 1.977 . S
O220 C213 1.267 . S
C221 O222 1.160 1_545 S
C221 O228 1.185 . S
O222 C221 1.160 1_565 S
O223 Zn224 1.899 . S
O223 C231 1.284 1_545 S
Zn224 O223 1.899 . S
Zn224 O225 2.032 1_545 S
Zn224 O228 2.086 . S
Zn224 O233 1.977 . S
O225 Zn224 2.032 1_565 S
O225 C229 1.278 . S
C226 O227 1.203 . S
C226 O233 1.267 . S
O227 C226 1.203 . S
O228 C221 1.185 . S
O228 Zn224 2.086 . S
C229 O225 1.278 . S
C229 O230 1.211 . S
O230 C229 1.211 . S
C231 O223 1.284 1_565 S
C231 O232 1.273 . S
O232 C231 1.273 . S
O233 Zn224 1.977 . S
O233 C226 1.267 . S
C234 O235 1.160 . S
C234 O241 1.185 . S
O235 C234 1.160 . S
O236 Zn237 1.899 . S
O236 C244 1.284 . S
Zn237 O236 1.899 . S
Zn237 O238 2.032 . S
Zn237 O241 2.086 . S
Zn237 O246 1.977 . S
O238 Zn237 2.032 . S
O238 C242 1.278 . S
C239 O240 1.203 . S
C239 O246 1.267 . S
O240 C239 1.203 . S
O241 C234 1.185 . S
O241 Zn237 2.086 . S
C242 O238 1.278 . S
C242 O243 1.211 . S
O243 C242 1.211 . S
C244 O236 1.284 . S
C244 O245 1.273 . S
O245 C244 1.273 . S
O246 Zn237 1.977 . S
O246 C239 1.267 . S
C247 O248 1.160 1_565 S
C247 O254 1.185 . S
O248 C247 1.160 1_545 S
O249 Zn250 1.899 . S
O249 C257 1.284 1_565 S
Zn250 O249 1.899 . S
Zn250 O251 2.032 1_565 S
Zn250 O254 2.086 . S
Zn250 O259 1.977 . S
O251 Zn250 2.032 1_545 S
O251 C255 1.278 . S
C252 O253 1.203 . S
C252 O259 1.267 . S
O253 C252 1.203 . S
O254 C247 1.185 . S
O254 Zn250 2.086 . S
C255 O251 1.278 . S
C255 O256 1.211 . S
O256 C255 1.211 . S
C257 O249 1.284 1_545 S
C257 O258 1.273 . S
O258 C257 1.273 . S
O259 Zn250 1.977 . S
O259 C252 1.267 . S
C260 O261 1.160 . S
C260 O267 1.185 . S
O261 C260 1.160 . S
O262 Zn263 1.899 . S
O262 C270 1.284 . S
Zn263 O262 1.899 . S
Zn263 O264 2.032 . S
Zn263 O267 2.086 . S
Zn263 O272 1.977 . S
O264 Zn263 2.032 . S
O264 C268 1.278 . S
C265 O266 1.203 . S
C265 O272 1.267 . S
O266 C265 1.203 . S
O267 C260 1.185 . S
O267 Zn263 2.086 . S
C268 O264 1.278 . S
C268 O269 1.211 . S
O269 C268 1.211 . S
C270 O262 1.284 . S
C270 O271 1.273 . S
O271 C270 1.273 . S
O272 Zn263 1.977 . S
O272 C265 1.267 . S
C273 O274 1.160 1_554 S
C273 O280 1.185 . S
O274 C273 1.160 1_556 S
O275 Zn276 1.899 . S
O275 C283 1.284 1_554 S
Zn276 O275 1.899 . S
Zn276 O277 2.032 1_554 S
Zn276 O280 2.086 . S
Zn276 O285 1.977 . S
O277 Zn276 2.032 1_556 S
O277 C281 1.278 . S
C278 O279 1.203 . S
C278 O285 1.267 . S
O279 C278 1.203 . S
O280 C273 1.185 . S
O280 Zn276 2.086 . S
C281 O277 1.278 . S
C281 O282 1.211 . S
O282 C281 1.211 . S
C283 O275 1.284 1_556 S
C283 O284 1.273 . S
O284 C283 1.273 . S
O285 Zn276 1.977 . S
O285 C278 1.267 . S
C286 O287 1.160 1_554 S
C286 O293 1.185 . S
O287 C286 1.160 1_556 S
O288 Zn289 1.899 . S
O288 C296 1.284 1_554 S
Zn289 O288 1.899 . S
Zn289 O290 2.032 1_554 S
Zn289 O293 2.086 . S
Zn289 O298 1.977 . S
O290 Zn289 2.032 1_556 S
O290 C294 1.278 . S
C291 O292 1.203 . S
C291 O298 1.267 . S
O292 C291 1.203 . S
O293 C286 1.185 . S
O293 Zn289 2.086 . S
C294 O290 1.278 . S
C294 O295 1.211 . S
O295 C294 1.211 . S
C296 O288 1.284 1_556 S
C296 O297 1.273 . S
O297 C296 1.273 . S
O298 Zn289 1.977 . S
O298 C291 1.267 . S
C299 O300 1.160 1_556 S
C299 O306 1.185 . S
O300 C299 1.160 1_554 S
O301 Zn302 1.899 . S
O301 C309 1.284 1_556 S
Zn302 O301 1.899 . S
Zn302 O303 2.032 1_556 S
Zn302 O306 2.086 . S
Zn302 O311 1.977 . S
O303 Zn302 2.032 1_554 S
O303 C307 1.278 . S
C304 O305 1.203 . S
C304 O311 1.267 . S
O305 C304 1.203 . S
O306 C299 1.185 . S
O306 Zn302 2.086 . S
C307 O303 1.278 . S
C307 O308 1.211 . S
O308 C307 1.211 . S
C309 O301 1.284 1_554 S
C309 O310 1.273 . S
O310 C309 1.273 . S
O311 Zn302 1.977 . S
O311 C304 1.267 . S
H312 C318 0.930 . S
H313 C322 0.930 . S
H314 C327 0.929 . S
H315 C325 0.929 . S
H316 C320 0.929 . S
H317 C326 0.929 . S
C318 H312 0.930 . S
C318 C319 1.367 . S
C318 C326 1.378 . S
C319 C318 1.367 . S
C319 C327 1.433 . S
C320 H316 0.929 . S
C320 C322 1.378 . S
C320 C324 1.350 . S
C321 C324 1.463 . S
C321 C326 1.350 . S
C321 N329 1.427 . S
C322 H313 0.930 . S
C322 C320 1.378 . S
C322 C323 1.367 . S
C323 C322 1.367 . S
C323 C325 1.433 . S
C324 C320 1.350 . S
C324 C321 1.463 . S
C324 N328 1.427 . S
C325 H315 0.929 . S
C325 C323 1.433 . S
C325 N328 1.384 . S
C326 H317 0.929 . S
C326 C318 1.378 . S
C326 C321 1.350 . S
C327 H314 0.929 . S
C327 C319 1.433 . S
C327 N329 1.384 . S
N328 C324 1.427 . S
N328 C325 1.384 . S
N329 C321 1.427 . S
N329 C327 1.384 . S
H330 C336 0.930 . S
H331 C340 0.930 . S
H332 C345 0.929 . S
H333 C343 0.929 . S
H334 C338 0.929 . S
H335 C344 0.929 . S
C336 H330 0.930 . S
C336 C337 1.367 . S
C336 C344 1.378 . S
C337 C336 1.367 . S
C337 C345 1.433 . S
C338 H334 0.929 . S
C338 C340 1.378 . S
C338 C342 1.350 . S
C339 C342 1.463 . S
C339 C344 1.350 . S
C339 N347 1.427 . S
C340 H331 0.930 . S
C340 C338 1.378 . S
C340 C341 1.367 . S
C341 C340 1.367 . S
C341 C343 1.433 . S
C342 C338 1.350 . S
C342 C339 1.463 . S
C342 N346 1.427 . S
C343 H333 0.929 . S
C343 C341 1.433 . S
C343 N346 1.384 . S
C344 H335 0.929 . S
C344 C336 1.378 . S
C344 C339 1.350 . S
C345 H332 0.929 . S
C345 C337 1.433 . S
C345 N347 1.384 . S
N346 C342 1.427 . S
N346 C343 1.384 . S
N347 C339 1.427 . S
N347 C345 1.384 . S
H348 C354 0.930 . S
H349 C358 0.930 . S
H350 C363 0.929 . S
H351 C361 0.929 . S
H352 C356 0.929 1_554 S
H353 C362 0.929 . S
C354 H348 0.930 . S
C354 C355 1.367 . S
C354 C362 1.378 . S
C355 C354 1.367 . S
C355 C363 1.433 . S
C356 H352 0.929 1_556 S
C356 C358 1.378 . S
C356 C360 1.350 1_556 S
C357 C360 1.463 . S
C357 C362 1.350 . S
C357 N365 1.427 . S
C358 H349 0.930 . S
C358 C356 1.378 . S
C358 C359 1.367 . S
C359 C358 1.367 . S
C359 C361 1.433 . S
C360 C356 1.350 1_554 S
C360 C357 1.463 . S
C360 N364 1.427 1_554 S
C361 H351 0.929 . S
C361 C359 1.433 . S
C361 N364 1.384 . S
C362 H353 0.929 . S
C362 C354 1.378 . S
C362 C357 1.350 . S
C363 H350 0.929 . S
C363 C355 1.433 . S
C363 N365 1.384 . S
N364 C360 1.427 1_556 S
N364 C361 1.384 . S
N365 C357 1.427 . S
N365 C363 1.384 . S
H366 C372 0.930 . S
H367 C376 0.930 . S
H368 C381 0.929 . S
H369 C379 0.929 . S
H370 C374 0.929 . S
H371 C380 0.929 . S
C372 H366 0.930 . S
C372 C373 1.367 . S
C372 C380 1.378 . S
C373 C372 1.367 . S
C373 C381 1.433 . S
C374 H370 0.929 . S
C374 C376 1.378 . S
C374 C378 1.350 1_556 S
C375 C378 1.463 . S
C375 C380 1.350 . S
C375 N383 1.427 . S
C376 H367 0.930 . S
C376 C374 1.378 . S
C376 C377 1.367 . S
C377 C376 1.367 . S
C377 C379 1.433 . S
C378 C374 1.350 1_554 S
C378 C375 1.463 . S
C378 N382 1.427 . S
C379 H369 0.929 . S
C379 C377 1.433 . S
C379 N382 1.384 1_556 S
C380 H371 0.929 . S
C380 C372 1.378 . S
C380 C375 1.350 . S
C381 H368 0.929 . S
C381 C373 1.433 . S
C381 N383 1.384 . S
N382 C378 1.427 . S
N382 C379 1.384 1_554 S
N383 C375 1.427 . S
N383 C381 1.384 . S
H384 C390 0.930 . S
H385 C394 0.930 . S
H386 C399 0.929 . S
H387 C397 0.929 . S
H388 C392 0.929 . S
H389 C398 0.929 . S
C390 H384 0.930 . S
C390 C391 1.367 . S
C390 C398 1.378 . S
C391 C390 1.367 . S
C391 C399 1.433 . S
C392 H388 0.929 . S
C392 C394 1.378 . S
C392 C396 1.350 . S
C393 C396 1.463 . S
C393 C398 1.350 . S
C393 N401 1.427 . S
C394 H385 0.930 . S
C394 C392 1.378 . S
C394 C395 1.367 . S
C395 C394 1.367 . S
C395 C397 1.433 . S
C396 C392 1.350 . S
C396 C393 1.463 . S
C396 N400 1.427 . S
C397 H387 0.929 . S
C397 C395 1.433 . S
C397 N400 1.384 . S
C398 H389 0.929 . S
C398 C390 1.378 . S
C398 C393 1.350 . S
C399 H386 0.929 . S
C399 C391 1.433 . S
C399 N401 1.384 . S
N400 C396 1.427 . S
N400 C397 1.384 . S
N401 C393 1.427 . S
N401 C399 1.384 . S
H402 C408 0.930 . S
H403 C412 0.930 . S
H404 C417 0.929 . S
H405 C415 0.929 . S
H406 C410 0.929 . S
H407 C416 0.929 . S
C408 H402 0.930 . S
C408 C409 1.367 . S
C408 C416 1.378 . S
C409 C408 1.367 . S
C409 C417 1.433 . S
C410 H406 0.929 . S
C410 C412 1.378 . S
C410 C414 1.350 . S
C411 C414 1.463 . S
C411 C416 1.350 . S
C411 N419 1.427 . S
C412 H403 0.930 . S
C412 C410 1.378 . S
C412 C413 1.367 . S
C413 C412 1.367 . S
C413 C415 1.433 . S
C414 C410 1.350 . S
C414 C411 1.463 . S
C414 N418 1.427 . S
C415 H405 0.929 . S
C415 C413 1.433 . S
C415 N418 1.384 . S
C416 H407 0.929 . S
C416 C408 1.378 . S
C416 C411 1.350 . S
C417 H404 0.929 . S
C417 C409 1.433 . S
C417 N419 1.384 . S
N418 C414 1.427 . S
N418 C415 1.384 . S
N419 C411 1.427 . S
N419 C417 1.384 . S
H420 C426 0.930 . S
H421 C430 0.930 . S
H422 C435 0.929 . S
H423 C433 0.929 . S
H424 C428 0.929 . S
H425 C434 0.929 . S
C426 H420 0.930 . S
C426 C427 1.367 . S
C426 C434 1.378 . S
C427 C426 1.367 . S
C427 C435 1.433 . S
C428 H424 0.929 . S
C428 C430 1.378 . S
C428 C432 1.350 . S
C429 C432 1.463 . S
C429 C434 1.350 . S
C429 N437 1.427 . S
C430 H421 0.930 . S
C430 C428 1.378 . S
C430 C431 1.367 . S
C431 C430 1.367 . S
C431 C433 1.433 . S
C432 C428 1.350 . S
C432 C429 1.463 . S
C432 N436 1.427 . S
C433 H423 0.929 . S
C433 C431 1.433 . S
C433 N436 1.384 . S
C434 H425 0.929 . S
C434 C426 1.378 . S
C434 C429 1.350 . S
C435 H422 0.929 . S
C435 C427 1.433 . S
C435 N437 1.384 . S
N436 C432 1.427 . S
N436 C433 1.384 . S
N437 C429 1.427 . S
N437 C435 1.384 . S
H438 C444 0.930 . S
H439 C448 0.930 . S
H440 C453 0.929 . S
H441 C451 0.929 . S
H442 C446 0.929 . S
H443 C452 0.929 . S
C444 H438 0.930 . S
C444 C445 1.367 . S
C444 C452 1.378 . S
C445 C444 1.367 . S
C445 C453 1.433 . S
C446 H442 0.929 . S
C446 C448 1.378 . S
C446 C450 1.350 . S
C447 C450 1.463 . S
C447 C452 1.350 . S
C447 N455 1.427 . S
C448 H439 0.930 . S
C448 C446 1.378 . S
C448 C449 1.367 . S
C449 C448 1.367 . S
C449 C451 1.433 . S
C450 C446 1.350 . S
C450 C447 1.463 . S
C450 N454 1.427 . S
C451 H441 0.929 . S
C451 C449 1.433 . S
C451 N454 1.384 . S
C452 H443 0.929 . S
C452 C444 1.378 . S
C452 C447 1.350 . S
C453 H440 0.929 . S
C453 C445 1.433 . S
C453 N455 1.384 . S
N454 C450 1.427 . S
N454 C451 1.384 . S
N455 C447 1.427 . S
N455 C453 1.384 . S
H456 C462 0.930 . S
H457 C466 0.930 . S
H458 C471 0.929 . S
H459 C469 0.929 . S
H460 C464 0.929 . S
H461 C470 0.929 . S
C462 H456 0.930 . S
C462 C463 1.367 . S
C462 C470 1.378 . S
C463 C462 1.367 . S
C463 C471 1.433 . S
C464 H460 0.929 . S
C464 C466 1.378 . S
C464 C468 1.350 . S
C465 C468 1.463 . S
C465 C470 1.350 . S
C465 N473 1.427 . S
C466 H457 0.930 . S
C466 C464 1.378 . S
C466 C467 1.367 . S
C467 C466 1.367 . S
C467 C469 1.433 . S
C468 C464 1.350 . S
C468 C465 1.463 . S
C468 N472 1.427 . S
C469 H459 0.929 . S
C469 C467 1.433 . S
C469 N472 1.384 . S
C470 H461 0.929 . S
C470 C462 1.378 . S
C470 C465 1.350 . S
C471 H458 0.929 . S
C471 C463 1.433 . S
C471 N473 1.384 . S
N472 C468 1.427 . S
N472 C469 1.384 . S
N473 C465 1.427 . S
N473 C471 1.384 . S
H474 C480 0.930 . S
H475 C484 0.930 . S
H476 C489 0.929 . S
H477 C487 0.929 . S
H478 C482 0.929 . S
H479 C488 0.929 . S
C480 H474 0.930 . S
C480 C481 1.367 . S
C480 C488 1.378 . S
C481 C480 1.367 . S
C481 C489 1.433 . S
C482 H478 0.929 . S
C482 C484 1.378 . S
C482 C486 1.350 . S
C483 C486 1.463 . S
C483 C488 1.350 . S
C483 N491 1.427 . S
C484 H475 0.930 . S
C484 C482 1.378 . S
C484 C485 1.367 . S
C485 C484 1.367 . S
C485 C487 1.433 . S
C486 C482 1.350 . S
C486 C483 1.463 . S
C486 N490 1.427 . S
C487 H477 0.929 . S
C487 C485 1.433 . S
C487 N490 1.384 . S
C488 H479 0.929 . S
C488 C480 1.378 . S
C488 C483 1.350 . S
C489 H476 0.929 . S
C489 C481 1.433 . S
C489 N491 1.384 . S
N490 C486 1.427 . S
N490 C487 1.384 . S
N491 C483 1.427 . S
N491 C489 1.384 . S
H492 C498 0.930 . S
H493 C502 0.930 . S
H494 C507 0.929 . S
H495 C505 0.929 . S
H496 C500 0.917 1_565 S
H497 C506 0.929 . S
C498 H492 0.930 . S
C498 C499 1.367 . S
C498 C506 1.378 . S
C499 C498 1.367 . S
C499 C507 1.433 . S
C500 H496 0.917 1_545 S
C500 C502 1.403 . S
C500 C504 1.336 1_545 S
C501 C504 1.463 . S
C501 C506 1.350 . S
C501 N509 1.427 . S
C502 H493 0.930 . S
C502 C500 1.403 . S
C502 C503 1.367 . S
C503 C502 1.367 . S
C503 C505 1.433 . S
C504 C500 1.336 1_565 S
C504 C501 1.463 . S
C504 N508 1.427 . S
C505 H495 0.929 . S
C505 C503 1.433 . S
C505 N508 1.384 1_545 S
C506 H497 0.929 . S
C506 C498 1.378 . S
C506 C501 1.350 . S
C507 H494 0.929 . S
C507 C499 1.433 . S
C507 N509 1.384 . S
N508 C504 1.427 . S
N508 C505 1.384 1_565 S
N509 C501 1.427 . S
N509 C507 1.384 . S
H510 C516 0.930 . S
H511 C520 0.930 . S
H512 C525 0.929 . S
H513 C523 0.929 . S
H514 C518 0.929 . S
H515 C524 0.929 . S
C516 H510 0.930 . S
C516 C517 1.367 . S
C516 C524 1.378 . S
C517 C516 1.367 . S
C517 C525 1.433 . S
C518 H514 0.929 . S
C518 C520 1.378 . S
C518 C522 1.350 . S
C519 C522 1.463 . S
C519 C524 1.350 . S
C519 N527 1.427 . S
C520 H511 0.930 . S
C520 C518 1.378 . S
C520 C521 1.367 . S
C521 C520 1.367 . S
C521 C523 1.433 . S
C522 C518 1.350 . S
C522 C519 1.463 . S
C522 N526 1.427 . S
C523 H513 0.929 . S
C523 C521 1.433 . S
C523 N526 1.384 . S
C524 H515 0.929 . S
C524 C516 1.378 . S
C524 C519 1.350 . S
C525 H512 0.929 . S
C525 C517 1.433 . S
C525 N527 1.384 . S
N526 C522 1.427 . S
N526 C523 1.384 . S
N527 C519 1.427 . S
N527 C525 1.384 . S
H528 C534 0.930 . S
H529 C538 0.930 . S
H530 C543 0.929 . S
H531 C541 0.929 . S
H532 C536 0.929 . S
H533 C542 0.929 . S
C534 H528 0.930 . S
C534 C535 1.367 . S
C534 C542 1.378 . S
C535 C534 1.367 . S
C535 C543 1.433 . S
C536 H532 0.929 . S
C536 C538 1.378 . S
C536 C540 1.350 . S
C537 C540 1.463 . S
C537 C542 1.350 1_556 S
C537 N545 1.427 . S
C538 H529 0.930 . S
C538 C536 1.378 . S
C538 C539 1.367 . S
C539 C538 1.367 . S
C539 C541 1.433 . S
C540 C536 1.350 . S
C540 C537 1.463 . S
C540 N544 1.427 . S
C541 H531 0.929 . S
C541 C539 1.433 . S
C541 N544 1.384 . S
C542 H533 0.929 . S
C542 C534 1.378 . S
C542 C537 1.350 1_554 S
C543 H530 0.929 . S
C543 C535 1.433 . S
C543 N545 1.384 1_554 S
N544 C540 1.427 . S
N544 C541 1.384 . S
N545 C537 1.427 . S
N545 C543 1.384 1_556 S
H546 C552 0.930 . S
H547 C556 0.930 . S
H548 C561 0.929 . S
H549 C559 0.929 . S
H550 C554 0.929 . S
H551 C560 0.927 . S
C552 H546 0.930 . S
C552 C553 1.367 . S
C552 C560 1.380 1_554 S
C553 C552 1.367 . S
C553 C561 1.433 . S
C554 H550 0.929 . S
C554 C556 1.378 . S
C554 C558 1.350 . S
C555 C558 1.463 . S
C555 C560 1.349 . S
C555 N563 1.427 . S
C556 H547 0.930 . S
C556 C554 1.378 . S
C556 C557 1.367 . S
C557 C556 1.367 . S
C557 C559 1.433 . S
C558 C554 1.350 . S
C558 C555 1.463 . S
C558 N562 1.427 . S
C559 H549 0.929 . S
C559 C557 1.433 . S
C559 N562 1.384 . S
C560 H551 0.927 . S
C560 C552 1.380 1_556 S
C560 C555 1.349 . S
C561 H548 0.929 . S
C561 C553 1.433 . S
C561 N563 1.384 1_554 S
N562 C558 1.427 . S
N562 C559 1.384 . S
N563 C555 1.427 . S
N563 C561 1.384 1_556 S
H564 C570 0.930 . S
H565 C574 0.930 . S
H566 C579 0.929 . S
H567 C577 0.929 . S
H568 C572 0.929 . S
H569 C578 0.929 . S
C570 H564 0.930 . S
C570 C571 1.367 . S
C570 C578 1.378 . S
C571 C570 1.367 . S
C571 C579 1.433 . S
C572 H568 0.929 . S
C572 C574 1.378 . S
C572 C576 1.350 . S
C573 C576 1.463 . S
C573 C578 1.350 . S
C573 N581 1.427 . S
C574 H565 0.930 . S
C574 C572 1.378 . S
C574 C575 1.367 . S
C575 C574 1.367 . S
C575 C577 1.433 . S
C576 C572 1.350 . S
C576 C573 1.463 . S
C576 N580 1.427 . S
C577 H567 0.929 . S
C577 C575 1.433 . S
C577 N580 1.384 . S
C578 H569 0.929 . S
C578 C570 1.378 . S
C578 C573 1.350 . S
C579 H566 0.929 . S
C579 C571 1.433 . S
C579 N581 1.384 . S
N580 C576 1.427 . S
N580 C577 1.384 . S
N581 C573 1.427 . S
N581 C579 1.384 . S
H582 C588 0.930 . S
H583 C592 0.930 . S
H584 C597 0.929 . S
H585 C595 0.929 . S
H586 C590 0.929 . S
H587 C596 0.929 . S
C588 H582 0.930 . S
C588 C589 1.367 . S
C588 C596 1.378 . S
C589 C588 1.367 . S
C589 C597 1.433 . S
C590 H586 0.929 . S
C590 C592 1.378 . S
C590 C594 1.350 . S
C591 C594 1.463 . S
C591 C596 1.350 . S
C591 N599 1.427 . S
C592 H583 0.930 . S
C592 C590 1.378 . S
C592 C593 1.367 . S
C593 C592 1.367 . S
C593 C595 1.433 . S
C594 C590 1.350 . S
C594 C591 1.463 . S
C594 N598 1.427 . S
C595 H585 0.929 . S
C595 C593 1.433 . S
C595 N598 1.384 . S
C596 H587 0.929 . S
C596 C588 1.378 . S
C596 C591 1.350 . S
C597 H584 0.929 . S
C597 C589 1.433 . S
C597 N599 1.384 . S
N598 C594 1.427 . S
N598 C595 1.384 . S
N599 C591 1.427 . S
N599 C597 1.384 . S
H600 C606 0.930 . S
H601 C610 0.930 . S
H602 C615 0.929 . S
H603 C613 0.929 . S
H604 C608 0.929 . S
H605 C614 0.929 . S
C606 H600 0.930 . S
C606 C607 1.367 . S
C606 C614 1.378 1_455 S
C607 C606 1.367 . S
C607 C615 1.433 . S
C608 H604 0.929 . S
C608 C610 1.378 . S
C608 C612 1.350 . S
C609 C612 1.463 . S
C609 C614 1.350 . S
C609 N617 1.427 1_655 S
C610 H601 0.930 . S
C610 C608 1.378 . S
C610 C611 1.367 . S
C611 C610 1.367 . S
C611 C613 1.433 . S
C612 C608 1.350 . S
C612 C609 1.463 . S
C612 N616 1.427 . S
C613 H603 0.929 . S
C613 C611 1.433 . S
C613 N616 1.384 . S
C614 H605 0.929 . S
C614 C606 1.378 1_655 S
C614 C609 1.350 . S
C615 H602 0.929 . S
C615 C607 1.433 . S
C615 N617 1.384 . S
N616 C612 1.427 . S
N616 C613 1.384 . S
N617 C609 1.427 1_455 S
N617 C615 1.384 . S
H618 C624 0.930 . S
H619 C628 0.930 . S
H620 C633 0.929 . S
H621 C631 0.929 . S
H622 C626 0.929 . S
H623 C632 0.919 1_455 S
C624 H618 0.930 . S
C624 C625 1.367 . S
C624 C632 1.392 . S
C625 C624 1.367 . S
C625 C633 1.433 . S
C626 H622 0.929 . S
C626 C628 1.378 . S
C626 C630 1.350 . S
C627 C630 1.463 . S
C627 C632 1.345 1_455 S
C627 N635 1.427 1_455 S
C628 H619 0.930 . S
C628 C626 1.378 . S
C628 C629 1.367 . S
C629 C628 1.367 . S
C629 C631 1.433 . S
C630 C626 1.350 . S
C630 C627 1.463 . S
C630 N634 1.427 . S
C631 H621 0.929 . S
C631 C629 1.433 . S
C631 N634 1.384 . S
C632 H623 0.919 1_655 S
C632 C624 1.392 . S
C632 C627 1.345 1_655 S
C633 H620 0.929 . S
C633 C625 1.433 . S
C633 N635 1.384 . S
N634 C630 1.427 . S
N634 C631 1.384 . S
N635 C627 1.427 1_655 S
N635 C633 1.384 . S
H636 C642 0.930 . S
H637 C646 0.930 . S
H638 C651 0.929 . S
H639 C649 0.929 . S
H640 C644 0.929 . S
H641 C650 0.929 . S
C642 H636 0.930 . S
C642 C643 1.367 . S
C642 C650 1.378 . S
C643 C642 1.367 . S
C643 C651 1.433 . S
C644 H640 0.929 . S
C644 C646 1.378 . S
C644 C648 1.350 . S
C645 C648 1.463 . S
C645 C650 1.350 1_655 S
C645 N653 1.427 . S
C646 H637 0.930 . S
C646 C644 1.378 . S
C646 C647 1.367 . S
C647 C646 1.367 . S
C647 C649 1.433 . S
C648 C644 1.350 . S
C648 C645 1.463 . S
C648 N652 1.427 . S
C649 H639 0.929 . S
C649 C647 1.433 . S
C649 N652 1.384 . S
C650 H641 0.929 . S
C650 C642 1.378 . S
C650 C645 1.350 1_455 S
C651 H638 0.929 . S
C651 C643 1.433 . S
C651 N653 1.384 1_455 S
N652 C648 1.427 . S
N652 C649 1.384 . S
N653 C645 1.427 . S
N653 C651 1.384 1_655 S
H654 C660 0.930 . S
H655 C664 0.930 . S
H656 C669 0.929 . S
H657 C667 0.929 . S
H658 C662 0.929 . S
H659 C668 0.929 . S
C660 H654 0.930 . S
C660 C661 1.367 . S
C660 C668 1.378 . S
C661 C660 1.367 . S
C661 C669 1.433 . S
C662 H658 0.929 . S
C662 C664 1.378 . S
C662 C666 1.350 1_655 S
C663 C666 1.463 . S
C663 C668 1.350 . S
C663 N671 1.427 . S
C664 H655 0.930 . S
C664 C662 1.378 . S
C664 C665 1.367 . S
C665 C664 1.367 . S
C665 C667 1.433 . S
C666 C662 1.350 1_455 S
C666 C663 1.463 . S
C666 N670 1.427 . S
C667 H657 0.929 . S
C667 C665 1.433 . S
C667 N670 1.384 1_655 S
C668 H659 0.929 . S
C668 C660 1.378 . S
C668 C663 1.350 . S
C669 H656 0.929 . S
C669 C661 1.433 . S
C669 N671 1.384 . S
N670 C666 1.427 . S
N670 C667 1.384 1_455 S
N671 C663 1.427 . S
N671 C669 1.384 . S
H672 C678 0.930 . S
H673 C682 0.930 . S
H674 C687 0.929 . S
H675 C685 0.929 . S
H676 C680 0.929 . S
H677 C686 0.929 . S
C678 H672 0.930 . S
C678 C679 1.367 . S
C678 C686 1.378 1_545 S
C679 C678 1.367 . S
C679 C687 1.433 . S
C680 H676 0.929 . S
C680 C682 1.378 . S
C680 C684 1.350 . S
C681 C684 1.463 . S
C681 C686 1.350 . S
C681 N689 1.427 1_565 S
C682 H673 0.930 . S
C682 C680 1.378 . S
C682 C683 1.367 . S
C683 C682 1.367 . S
C683 C685 1.433 . S
C684 C680 1.350 . S
C684 C681 1.463 . S
C684 N688 1.427 . S
C685 H675 0.929 . S
C685 C683 1.433 . S
C685 N688 1.384 . S
C686 H677 0.929 . S
C686 C678 1.378 1_565 S
C686 C681 1.350 . S
C687 H674 0.929 . S
C687 C679 1.433 . S
C687 N689 1.384 . S
N688 C684 1.427 . S
N688 C685 1.384 . S
N689 C681 1.427 1_545 S
N689 C687 1.384 . S
H690 C696 0.930 . S
H691 C700 0.930 . S
H692 C705 0.929 . S
H693 C703 0.929 . S
H694 C698 0.929 . S
H695 C704 0.929 . S
C696 H690 0.930 . S
C696 C697 1.367 . S
C696 C704 1.378 . S
C697 C696 1.367 . S
C697 C705 1.433 . S
C698 H694 0.929 . S
C698 C700 1.378 . S
C698 C702 1.350 1_565 S
C699 C702 1.463 . S
C699 C704 1.350 . S
C699 N707 1.427 . S
C700 H691 0.930 . S
C700 C698 1.378 . S
C700 C701 1.367 . S
C701 C700 1.367 . S
C701 C703 1.433 . S
C702 C698 1.350 1_545 S
C702 C699 1.463 . S
C702 N706 1.430 . S
C703 H693 0.929 . S
C703 C701 1.433 . S
C703 N706 1.373 1_565 S
C704 H695 0.929 . S
C704 C696 1.378 . S
C704 C699 1.350 . S
C705 H692 0.929 . S
C705 C697 1.433 . S
C705 N707 1.384 . S
N706 C702 1.430 . S
N706 C703 1.373 1_545 S
N707 C699 1.427 . S
N707 C705 1.384 . S
H708 C714 0.930 . S
H709 C718 0.930 . S
H710 C723 0.929 . S
H711 C721 0.929 . S
H712 C716 0.929 . S
H713 C722 0.929 . S
C714 H708 0.930 . S
C714 C715 1.367 . S
C714 C722 1.378 . S
C715 C714 1.367 . S
C715 C723 1.433 . S
C716 H712 0.929 . S
C716 C718 1.378 . S
C716 C720 1.350 . S
C717 C720 1.463 . S
C717 C722 1.350 . S
C717 N725 1.427 . S
C718 H709 0.930 . S
C718 C716 1.378 . S
C718 C719 1.367 . S
C719 C718 1.367 . S
C719 C721 1.433 . S
C720 C716 1.350 . S
C720 C717 1.463 . S
C720 N724 1.427 . S
C721 H711 0.929 . S
C721 C719 1.433 . S
C721 N724 1.384 . S
C722 H713 0.929 . S
C722 C714 1.378 . S
C722 C717 1.350 . S
C723 H710 0.929 . S
C723 C715 1.433 . S
C723 N725 1.384 . S
N724 C720 1.427 . S
N724 C721 1.384 . S
N725 C717 1.427 . S
N725 C723 1.384 . S
H726 C732 0.930 . S
H727 C736 0.930 . S
H728 C741 0.929 . S
H729 C739 0.929 . S
H730 C734 0.929 1_545 S
H731 C740 0.929 . S
C732 H726 0.930 . S
C732 C733 1.367 . S
C732 C740 1.378 . S
C733 C732 1.367 . S
C733 C741 1.433 . S
C734 H730 0.929 1_565 S
C734 C736 1.378 . S
C734 C738 1.350 1_565 S
C735 C738 1.463 . S
C735 C740 1.350 . S
C735 N743 1.427 . S
C736 H727 0.930 . S
C736 C734 1.378 . S
C736 C737 1.367 . S
C737 C736 1.367 . S
C737 C739 1.433 . S
C738 C734 1.350 1_545 S
C738 C735 1.463 . S
C738 N742 1.427 1_545 S
C739 H729 0.929 . S
C739 C737 1.433 . S
C739 N742 1.384 . S
C740 H731 0.929 . S
C740 C732 1.378 . S
C740 C735 1.350 . S
C741 H728 0.929 . S
C741 C733 1.433 . S
C741 N743 1.384 . S
N742 C738 1.427 1_565 S
N742 C739 1.384 . S
N743 C735 1.427 . S
N743 C741 1.384 . S
H744 C750 0.930 . S
H745 C754 0.930 . S
H746 C759 0.929 . S
H747 C757 0.929 . S
H748 C752 0.929 . S
H749 C758 0.929 . S
C750 H744 0.930 . S
C750 C751 1.367 . S
C750 C758 1.378 . S
C751 C750 1.367 . S
C751 C759 1.433 1_655 S
C752 H748 0.929 . S
C752 C754 1.378 . S
C752 C756 1.350 . S
C753 C756 1.463 1_655 S
C753 C758 1.350 . S
C753 N761 1.427 1_655 S
C754 H745 0.930 . S
C754 C752 1.378 . S
C754 C755 1.367 . S
C755 C754 1.367 . S
C755 C757 1.433 1_455 S
C756 C752 1.350 . S
C756 C753 1.463 1_455 S
C756 N760 1.427 1_455 S
C757 H747 0.929 . S
C757 C755 1.433 1_655 S
C757 N760 1.384 . S
C758 H749 0.929 . S
C758 C750 1.378 . S
C758 C753 1.350 . S
C759 H746 0.929 . S
C759 C751 1.433 1_455 S
C759 N761 1.384 . S
N760 C756 1.427 1_655 S
N760 C757 1.384 . S
N761 C753 1.427 1_455 S
N761 C759 1.384 . S
H762 C768 0.930 . S
H763 C772 0.930 . S
H764 C777 0.929 . S
H765 C775 0.929 . S
H766 C770 0.929 . S
H767 C776 0.929 . S
C768 H762 0.930 . S
C768 C769 1.367 1_655 S
C768 C776 1.378 . S
C769 C768 1.367 1_455 S
C769 C777 1.433 . S
C770 H766 0.929 . S
C770 C772 1.378 . S
C770 C774 1.326 1_455 S
C771 C774 1.460 1_455 S
C771 C776 1.350 1_455 S
C771 N779 1.427 . S
C772 H763 0.930 . S
C772 C770 1.378 . S
C772 C773 1.367 1_455 S
C773 C772 1.367 1_655 S
C773 C775 1.433 . S
C774 C770 1.326 1_655 S
C774 C771 1.460 1_655 S
C774 N778 1.456 . S
C775 H765 0.929 . S
C775 C773 1.433 . S
C775 N778 1.384 . S
C776 H767 0.929 . S
C776 C768 1.378 . S
C776 C771 1.350 1_655 S
C777 H764 0.929 . S
C777 C769 1.433 . S
C777 N779 1.384 . S
N778 C774 1.456 . S
N778 C775 1.384 . S
N779 C771 1.427 . S
N779 C777 1.384 . S
H780 C786 0.930 . S
H781 C790 0.930 . S
H782 C795 0.929 . S
H783 C793 0.929 . S
H784 C788 0.929 . S
H785 C794 0.929 . S
C786 H780 0.930 . S
C786 C787 1.367 1_545 S
C786 C794 1.378 . S
C787 C786 1.367 1_565 S
C787 C795 1.433 . S
C788 H784 0.929 . S
C788 C790 1.378 . S
C788 C792 1.350 1_565 S
C789 C792 1.461 1_565 S
C789 C794 1.336 1_565 S
C789 N797 1.444 . S
C790 H781 0.930 . S
C790 C788 1.378 . S
C790 C791 1.367 1_565 S
C791 C790 1.367 1_545 S
C791 C793 1.433 . S
C792 C788 1.350 1_545 S
C792 C789 1.461 1_545 S
C792 N796 1.427 . S
C793 H783 0.929 . S
C793 C791 1.433 . S
C793 N796 1.384 . S
C794 H785 0.929 . S
C794 C786 1.378 . S
C794 C789 1.336 1_545 S
C795 H782 0.929 . S
C795 C787 1.433 . S
C795 N797 1.384 . S
N796 C792 1.427 . S
N796 C793 1.384 . S
N797 C789 1.444 . S
N797 C795 1.384 . S
H798 C804 0.930 . S
H799 C808 0.930 . S
H800 C813 0.929 . S
H801 C811 0.929 . S
H802 C806 0.929 . S
H803 C812 0.929 . S
C804 H798 0.930 . S
C804 C805 1.367 . S
C804 C812 1.378 . S
C805 C804 1.367 . S
C805 C813 1.433 . S
C806 H802 0.929 . S
C806 C808 1.378 . S
C806 C810 1.350 . S
C807 C810 1.463 . S
C807 C812 1.350 . S
C807 N815 1.427 . S
C808 H799 0.930 . S
C808 C806 1.378 . S
C808 C809 1.367 . S
C809 C808 1.367 . S
C809 C811 1.433 . S
C810 C806 1.350 . S
C810 C807 1.463 . S
C810 N814 1.427 . S
C811 H801 0.929 . S
C811 C809 1.433 . S
C811 N814 1.384 . S
C812 H803 0.929 . S
C812 C804 1.378 . S
C812 C807 1.350 . S
C813 H800 0.929 . S
C813 C805 1.433 . S
C813 N815 1.384 . S
N814 C810 1.427 . S
N814 C811 1.384 . S
N815 C807 1.427 . S
N815 C813 1.384 . S
H816 C822 0.930 . S
H817 C826 0.930 . S
H818 C831 0.929 . S
H819 C829 0.929 . S
H820 C824 0.929 . S
H821 C830 0.929 . S
C822 H816 0.930 . S
C822 C823 1.367 . S
C822 C830 1.378 . S
C823 C822 1.367 . S
C823 C831 1.433 1_554 S
C824 H820 0.929 . S
C824 C826 1.378 . S
C824 C828 1.350 . S
C825 C828 1.463 1_554 S
C825 C830 1.350 . S
C825 N833 1.427 1_554 S
C826 H817 0.930 . S
C826 C824 1.378 . S
C826 C827 1.367 . S
C827 C826 1.367 . S
C827 C829 1.433 1_556 S
C828 C824 1.350 . S
C828 C825 1.463 1_556 S
C828 N832 1.427 1_556 S
C829 H819 0.929 . S
C829 C827 1.433 1_554 S
C829 N832 1.384 . S
C830 H821 0.929 . S
C830 C822 1.378 . S
C830 C825 1.350 . S
C831 H818 0.929 . S
C831 C823 1.433 1_556 S
C831 N833 1.384 . S
N832 C828 1.427 1_554 S
N832 C829 1.384 . S
N833 C825 1.427 1_556 S
N833 C831 1.384 . S
H834 C840 0.930 . S
H835 C844 0.930 . S
H836 C849 0.929 . S
H837 C847 0.929 . S
H838 C842 0.929 . S
H839 C848 0.929 . S
C840 H834 0.930 . S
C840 C841 1.367 . S
C840 C848 1.378 . S
C841 C840 1.367 . S
C841 C849 1.433 . S
C842 H838 0.929 . S
C842 C844 1.378 . S
C842 C846 1.350 . S
C843 C846 1.463 . S
C843 C848 1.350 . S
C843 N851 1.427 . S
C844 H835 0.930 . S
C844 C842 1.378 . S
C844 C845 1.367 . S
C845 C844 1.367 . S
C845 C847 1.433 . S
C846 C842 1.350 . S
C846 C843 1.463 . S
C846 N850 1.427 . S
C847 H837 0.929 . S
C847 C845 1.433 . S
C847 N850 1.384 . S
C848 H839 0.929 . S
C848 C840 1.378 . S
C848 C843 1.350 . S
C849 H836 0.929 . S
C849 C841 1.433 . S
C849 N851 1.384 . S
N850 C846 1.427 . S
N850 C847 1.384 . S
N851 C843 1.427 . S
N851 C849 1.384 . S
H852 C858 0.930 . S
H853 C862 0.930 . S
H854 C867 0.929 . S
H855 C865 0.929 . S
H856 C860 0.929 . S
H857 C866 0.929 . S
C858 H852 0.930 . S
C858 C859 1.367 . S
C858 C866 1.378 . S
C859 C858 1.367 . S
C859 C867 1.433 . S
C860 H856 0.929 . S
C860 C862 1.378 . S
C860 C864 1.350 . S
C861 C864 1.463 . S
C861 C866 1.350 . S
C861 N869 1.427 . S
C862 H853 0.930 . S
C862 C860 1.378 . S
C862 C863 1.367 . S
C863 C862 1.367 . S
C863 C865 1.433 . S
C864 C860 1.350 . S
C864 C861 1.463 . S
C864 N868 1.427 . S
C865 H855 0.929 . S
C865 C863 1.433 . S
C865 N868 1.384 . S
C866 H857 0.929 . S
C866 C858 1.378 . S
C866 C861 1.350 . S
C867 H854 0.929 . S
C867 C859 1.433 . S
C867 N869 1.384 . S
N868 C864 1.427 . S
N868 C865 1.384 . S
N869 C861 1.427 . S
N869 C867 1.384 . S
H870 C876 0.930 . S
H871 C880 0.930 . S
H872 C885 0.929 . S
H873 C883 0.929 . S
H874 C878 0.929 . S
H875 C884 0.929 . S
C876 H870 0.930 . S
C876 C877 1.367 . S
C876 C884 1.378 . S
C877 C876 1.367 . S
C877 C885 1.433 . S
C878 H874 0.929 . S
C878 C880 1.378 . S
C878 C882 1.350 . S
C879 C882 1.463 . S
C879 C884 1.350 . S
C879 N887 1.427 . S
C880 H871 0.930 . S
C880 C878 1.378 . S
C880 C881 1.367 . S
C881 C880 1.367 . S
C881 C883 1.433 . S
C882 C878 1.350 . S
C882 C879 1.463 . S
C882 N886 1.427 . S
C883 H873 0.929 . S
C883 C881 1.433 . S
C883 N886 1.384 . S
C884 H875 0.929 . S
C884 C876 1.378 . S
C884 C879 1.350 . S
C885 H872 0.929 . S
C885 C877 1.433 . S
C885 N887 1.384 . S
N886 C882 1.427 . S
N886 C883 1.384 . S
N887 C879 1.427 . S
N887 C885 1.384 . S
H888 C894 0.930 . S
H889 C898 0.930 . S
H890 C903 0.929 . S
H891 C901 0.929 . S
H892 C896 0.929 . S
H893 C902 0.929 . S
C894 H888 0.930 . S
C894 C895 1.367 . S
C894 C902 1.378 . S
C895 C894 1.367 . S
C895 C903 1.433 . S
C896 H892 0.929 . S
C896 C898 1.378 . S
C896 C900 1.350 . S
C897 C900 1.463 . S
C897 C902 1.350 . S
C897 N905 1.427 . S
C898 H889 0.930 . S
C898 C896 1.378 . S
C898 C899 1.367 . S
C899 C898 1.367 . S
C899 C901 1.433 . S
C900 C896 1.350 . S
C900 C897 1.463 . S
C900 N904 1.427 . S
C901 H891 0.929 . S
C901 C899 1.433 . S
C901 N904 1.384 . S
C902 H893 0.929 . S
C902 C894 1.378 . S
C902 C897 1.350 . S
C903 H890 0.929 . S
C903 C895 1.433 . S
C903 N905 1.384 . S
N904 C900 1.427 . S
N904 C901 1.384 . S
N905 C897 1.427 . S
N905 C903 1.384 . S
H906 C912 0.930 . S
H907 C916 0.930 . S
H908 C921 0.929 . S
H909 C919 0.929 . S
H910 C914 0.929 . S
H911 C920 0.929 . S
C912 H906 0.930 . S
C912 C913 1.367 . S
C912 C920 1.378 . S
C913 C912 1.367 . S
C913 C921 1.433 . S
C914 H910 0.929 . S
C914 C916 1.378 . S
C914 C918 1.350 . S
C915 C918 1.463 . S
C915 C920 1.350 . S
C915 N923 1.427 . S
C916 H907 0.930 . S
C916 C914 1.378 . S
C916 C917 1.367 . S
C917 C916 1.367 . S
C917 C919 1.433 . S
C918 C914 1.350 . S
C918 C915 1.463 . S
C918 N922 1.427 . S
C919 H909 0.929 . S
C919 C917 1.433 . S
C919 N922 1.384 . S
C920 H911 0.929 . S
C920 C912 1.378 . S
C920 C915 1.350 . S
C921 H908 0.929 . S
C921 C913 1.433 . S
C921 N923 1.384 . S
N922 C918 1.427 . S
N922 C919 1.384 . S
N923 C915 1.427 . S
N923 C921 1.384 . S
H924 C930 0.930 . S
H925 C934 0.930 . S
H926 C939 0.929 . S
H927 C937 0.929 . S
H928 C932 0.929 . S
H929 C938 0.929 . S
C930 H924 0.930 . S
C930 C931 1.367 . S
C930 C938 1.378 . S
C931 C930 1.367 . S
C931 C939 1.433 1_545 S
C932 H928 0.929 . S
C932 C934 1.378 . S
C932 C936 1.350 . S
C933 C936 1.463 1_545 S
C933 C938 1.350 . S
C933 N941 1.427 1_545 S
C934 H925 0.930 . S
C934 C932 1.378 . S
C934 C935 1.367 . S
C935 C934 1.367 . S
C935 C937 1.433 1_565 S
C936 C932 1.350 . S
C936 C933 1.463 1_565 S
C936 N940 1.427 1_565 S
C937 H927 0.929 . S
C937 C935 1.433 1_545 S
C937 N940 1.384 . S
C938 H929 0.929 . S
C938 C930 1.378 . S
C938 C933 1.350 . S
C939 H926 0.929 . S
C939 C931 1.433 1_565 S
C939 N941 1.384 . S
N940 C936 1.427 1_545 S
N940 C937 1.384 . S
N941 C933 1.427 1_565 S
N941 C939 1.384 . S
H942 C948 0.930 . S
H943 C952 0.930 . S
H944 C957 0.929 . S
H945 C955 0.929 . S
H946 C950 0.929 . S
H947 C956 0.929 . S
C948 H942 0.930 . S
C948 C949 1.367 . S
C948 C956 1.378 . S
C949 C948 1.367 . S
C949 C957 1.433 1_556 S
C950 H946 0.929 . S
C950 C952 1.378 . S
C950 C954 1.350 . S
C951 C954 1.463 1_556 S
C951 C956 1.350 . S
C951 N959 1.427 1_556 S
C952 H943 0.930 . S
C952 C950 1.378 . S
C952 C953 1.367 . S
C953 C952 1.367 . S
C953 C955 1.433 1_554 S
C954 C950 1.350 . S
C954 C951 1.463 1_554 S
C954 N958 1.427 1_554 S
C955 H945 0.929 . S
C955 C953 1.433 1_556 S
C955 N958 1.384 . S
C956 H947 0.929 . S
C956 C948 1.378 . S
C956 C951 1.350 . S
C957 H944 0.929 . S
C957 C949 1.433 1_554 S
C957 N959 1.384 . S
N958 C954 1.427 1_556 S
N958 C955 1.384 . S
N959 C951 1.427 1_554 S
N959 C957 1.384 . S
H960 C966 0.930 . S
H961 C970 0.930 1_655 S
H962 C975 0.929 1_655 S
H963 C973 0.929 . S
H964 C968 0.929 1_655 S
H965 C974 0.929 . S
C966 H960 0.930 . S
C966 C967 1.367 . S
C966 C974 1.378 . S
C967 C966 1.367 . S
C967 C975 1.433 . S
C968 H964 0.929 1_455 S
C968 C970 1.378 . S
C968 C972 1.350 . S
C969 C972 1.463 1_565 S
C969 C974 1.350 . S
C969 N977 1.427 . S
C970 H961 0.930 1_455 S
C970 C968 1.378 . S
C970 C971 1.367 . S
C971 C970 1.367 . S
C971 C973 1.433 . S
C972 C968 1.350 . S
C972 C969 1.463 1_545 S
C972 N976 1.428 . S
C973 H963 0.929 . S
C973 C971 1.433 . S
C973 N976 1.385 . S
C974 H965 0.929 . S
C974 C966 1.378 . S
C974 C969 1.350 . S
C975 H962 0.929 1_455 S
C975 C967 1.433 . S
C975 N977 1.384 . S
N976 C972 1.428 . S
N976 C973 1.385 . S
N977 C969 1.427 . S
N977 C975 1.384 . S
H978 C984 0.930 . S
H979 C988 0.930 . S
H980 C993 0.929 . S
H981 C991 0.929 . S
H982 C986 0.929 . S
H983 C992 0.929 . S
C984 H978 0.930 . S
C984 C985 1.367 . S
C984 C992 1.378 . S
C985 C984 1.367 . S
C985 C993 1.433 1_655 S
C986 H982 0.929 . S
C986 C988 1.378 . S
C986 C990 1.350 1_455 S
C987 C990 1.463 . S
C987 C992 1.350 . S
C987 N995 1.427 1_655 S
C988 H979 0.930 . S
C988 C986 1.378 . S
C988 C989 1.367 1_455 S
C989 C988 1.367 1_655 S
C989 C991 1.433 . S
C990 C986 1.350 1_655 S
C990 C987 1.463 . S
C990 N994 1.427 . S
C991 H981 0.929 . S
C991 C989 1.433 . S
C991 N994 1.384 . S
C992 H983 0.929 . S
C992 C984 1.378 . S
C992 C987 1.350 . S
C993 H980 0.929 . S
C993 C985 1.433 1_455 S
C993 N995 1.384 . S
N994 C990 1.427 . S
N994 C991 1.384 . S
N995 C987 1.427 1_455 S
N995 C993 1.384 . S
H996 C1002 0.930 . S
H997 C1006 0.930 . S
H998 C1011 0.929 . S
H999 C1009 0.929 . S
H1000 C1004 0.929 1_556 S
H1001 C1010 0.920 1_554 S
C1002 H996 0.930 . S
C1002 C1003 1.367 . S
C1002 C1010 1.378 . S
C1003 C1002 1.367 . S
C1003 C1011 1.433 1_545 S
C1004 H1000 0.929 1_554 S
C1004 C1006 1.378 . S
C1004 C1008 1.350 1_565 S
C1005 C1008 1.463 1_556 S
C1005 C1010 1.350 . S
C1005 N1013 1.427 1_545 S
C1006 H997 0.930 . S
C1006 C1004 1.378 . S
C1006 C1007 1.367 1_565 S
C1007 C1006 1.367 1_545 S
C1007 C1009 1.433 . S
C1008 C1004 1.350 1_545 S
C1008 C1005 1.463 1_554 S
C1008 N1012 1.427 . S
C1009 H999 0.929 . S
C1009 C1007 1.433 . S
C1009 N1012 1.384 . S
C1010 H1001 0.920 1_556 S
C1010 C1002 1.378 . S
C1010 C1005 1.350 . S
C1011 H998 0.929 . S
C1011 C1003 1.433 1_565 S
C1011 N1013 1.384 . S
N1012 C1008 1.427 . S
N1012 C1009 1.384 . S
N1013 C1005 1.427 1_565 S
N1013 C1011 1.384 . S
H1014 C1020 0.930 . S
H1015 C1024 0.930 . S
H1016 C1029 0.929 . S
H1017 C1027 0.929 . S
H1018 C1022 0.929 1_554 S
H1019 C1028 0.929 1_556 S
C1020 H1014 0.930 . S
C1020 C1021 1.367 . S
C1020 C1028 1.378 . S
C1021 C1020 1.367 . S
C1021 C1029 1.433 . S
C1022 H1018 0.929 1_556 S
C1022 C1024 1.378 . S
C1022 C1026 1.350 . S
C1023 C1026 1.463 1_554 S
C1023 C1028 1.350 . S
C1023 N1031 1.427 . S
C1024 H1015 0.930 . S
C1024 C1022 1.378 . S
C1024 C1025 1.367 . S
C1025 C1024 1.367 . S
C1025 C1027 1.433 . S
C1026 C1022 1.350 . S
C1026 C1023 1.463 1_556 S
C1026 N1030 1.427 . S
C1027 H1017 0.929 . S
C1027 C1025 1.433 . S
C1027 N1030 1.384 . S
C1028 H1019 0.929 1_554 S
C1028 C1020 1.378 . S
C1028 C1023 1.350 . S
C1029 H1016 0.929 . S
C1029 C1021 1.433 . S
C1029 N1031 1.384 . S
N1030 C1026 1.427 . S
N1030 C1027 1.384 . S
N1031 C1023 1.427 . S
N1031 C1029 1.384 . S
H1032 C1038 0.930 . S
H1033 C1042 0.930 . S
H1034 C1047 0.929 . S
H1035 C1045 0.929 . S
H1036 C1040 0.929 . S
H1037 C1046 0.929 . S
C1038 H1032 0.930 . S
C1038 C1039 1.367 1_545 S
C1038 C1046 1.378 . S
C1039 C1038 1.367 1_565 S
C1039 C1047 1.433 . S
C1040 H1036 0.929 . S
C1040 C1042 1.378 . S
C1040 C1044 1.350 . S
C1041 C1044 1.463 . S
C1041 C1046 1.350 1_565 S
C1041 N1049 1.427 . S
C1042 H1033 0.930 . S
C1042 C1040 1.378 . S
C1042 C1043 1.367 . S
C1043 C1042 1.367 . S
C1043 C1045 1.433 1_565 S
C1044 C1040 1.350 . S
C1044 C1041 1.463 . S
C1044 N1048 1.427 1_565 S
C1045 H1035 0.929 . S
C1045 C1043 1.433 1_545 S
C1045 N1048 1.384 . S
C1046 H1037 0.929 . S
C1046 C1038 1.378 . S
C1046 C1041 1.350 1_545 S
C1047 H1034 0.929 . S
C1047 C1039 1.433 . S
C1047 N1049 1.384 . S
N1048 C1044 1.427 1_545 S
N1048 C1045 1.384 . S
N1049 C1041 1.427 . S
N1049 C1047 1.384 . S
H1050 C1056 0.930 . S
H1051 C1060 0.930 . S
H1052 C1065 0.929 . S
H1053 C1063 0.929 . S
H1054 C1058 0.929 . S
H1055 C1064 0.929 . S
C1056 H1050 0.930 . S
C1056 C1057 1.367 . S
C1056 C1064 1.378 . S
C1057 C1056 1.367 . S
C1057 C1065 1.433 . S
C1058 H1054 0.929 . S
C1058 C1060 1.378 . S
C1058 C1062 1.350 . S
C1059 C1062 1.463 . S
C1059 C1064 1.350 . S
C1059 N1067 1.427 . S
C1060 H1051 0.930 . S
C1060 C1058 1.378 . S
C1060 C1061 1.367 . S
C1061 C1060 1.367 . S
C1061 C1063 1.433 . S
C1062 C1058 1.350 . S
C1062 C1059 1.463 . S
C1062 N1066 1.427 . S
C1063 H1053 0.929 . S
C1063 C1061 1.433 . S
C1063 N1066 1.384 . S
C1064 H1055 0.929 . S
C1064 C1056 1.378 . S
C1064 C1059 1.350 . S
C1065 H1052 0.929 . S
C1065 C1057 1.433 . S
C1065 N1067 1.384 . S
N1066 C1062 1.427 . S
N1066 C1063 1.384 . S
N1067 C1059 1.427 . S
N1067 C1065 1.384 . S
H1068 C1074 0.930 . S
H1069 C1078 0.930 . S
H1070 C1083 0.929 . S
H1071 C1081 0.929 . S
H1072 C1076 0.929 . S
H1073 C1082 0.929 . S
C1074 H1068 0.930 . S
C1074 C1075 1.367 . S
C1074 C1082 1.378 . S
C1075 C1074 1.367 . S
C1075 C1083 1.433 1_554 S
C1076 H1072 0.929 . S
C1076 C1078 1.378 . S
C1076 C1080 1.350 1_556 S
C1077 C1080 1.463 1_455 S
C1077 C1082 1.350 . S
C1077 N1085 1.427 1_554 S
C1078 H1069 0.930 . S
C1078 C1076 1.378 . S
C1078 C1079 1.367 1_556 S
C1079 C1078 1.367 1_554 S
C1079 C1081 1.433 . S
C1080 C1076 1.350 1_554 S
C1080 C1077 1.463 1_655 S
C1080 N1084 1.427 . S
C1081 H1071 0.929 . S
C1081 C1079 1.433 . S
C1081 N1084 1.384 . S
C1082 H1073 0.929 . S
C1082 C1074 1.378 . S
C1082 C1077 1.350 . S
C1083 H1070 0.929 . S
C1083 C1075 1.433 1_556 S
C1083 N1085 1.384 . S
N1084 C1080 1.427 . S
N1084 C1081 1.384 . S
N1085 C1077 1.427 1_556 S
N1085 C1083 1.384 . S
H1086 C1092 0.930 . S
H1087 C1096 0.930 . S
H1088 C1101 0.929 . S
H1089 C1099 0.929 . S
H1090 C1094 0.929 . S
H1091 C1100 0.929 . S
C1092 H1086 0.930 . S
C1092 C1093 1.367 . S
C1092 C1100 1.378 . S
C1093 C1092 1.367 . S
C1093 C1101 1.433 . S
C1094 H1090 0.929 . S
C1094 C1096 1.378 . S
C1094 C1098 1.350 . S
C1095 C1098 1.463 1_455 S
C1095 C1100 1.350 . S
C1095 N1103 1.427 . S
C1096 H1087 0.930 . S
C1096 C1094 1.378 . S
C1096 C1097 1.367 . S
C1097 C1096 1.367 . S
C1097 C1099 1.433 . S
C1098 C1094 1.350 . S
C1098 C1095 1.463 1_655 S
C1098 N1102 1.427 . S
C1099 H1089 0.929 . S
C1099 C1097 1.433 . S
C1099 N1102 1.384 . S
C1100 H1091 0.929 . S
C1100 C1092 1.378 . S
C1100 C1095 1.350 . S
C1101 H1088 0.929 . S
C1101 C1093 1.433 . S
C1101 N1103 1.384 . S
N1102 C1098 1.427 . S
N1102 C1099 1.384 . S
N1103 C1095 1.427 . S
N1103 C1101 1.384 . S
H1104 C1110 0.930 . S
H1105 C1114 0.930 . S
H1106 C1119 0.929 . S
H1107 C1117 0.929 . S
H1108 C1112 0.929 . S
H1109 C1118 0.929 . S
C1110 H1104 0.930 . S
C1110 C1111 1.367 . S
C1110 C1118 1.378 . S
C1111 C1110 1.367 . S
C1111 C1119 1.433 . S
C1112 H1108 0.929 . S
C1112 C1114 1.378 . S
C1112 C1116 1.350 . S
C1113 C1116 1.463 . S
C1113 C1118 1.350 . S
C1113 N1121 1.427 . S
C1114 H1105 0.930 . S
C1114 C1112 1.378 . S
C1114 C1115 1.367 . S
C1115 C1114 1.367 . S
C1115 C1117 1.433 . S
C1116 C1112 1.350 . S
C1116 C1113 1.463 . S
C1116 N1120 1.427 . S
C1117 H1107 0.929 . S
C1117 C1115 1.433 . S
C1117 N1120 1.384 . S
C1118 H1109 0.929 . S
C1118 C1110 1.378 . S
C1118 C1113 1.350 . S
C1119 H1106 0.929 . S
C1119 C1111 1.433 . S
C1119 N1121 1.384 . S
N1120 C1116 1.427 . S
N1120 C1117 1.384 . S
N1121 C1113 1.427 . S
N1121 C1119 1.384 . S
H1122 C1128 0.930 . S
H1123 C1132 0.930 . S
H1124 C1137 0.929 . S
H1125 C1135 0.929 . S
H1126 C1130 0.929 . S
H1127 C1136 0.929 . S
C1128 H1122 0.930 . S
C1128 C1129 1.367 . S
C1128 C1136 1.378 . S
C1129 C1128 1.367 . S
C1129 C1137 1.433 . S
C1130 H1126 0.929 . S
C1130 C1132 1.378 . S
C1130 C1134 1.350 . S
C1131 C1134 1.463 . S
C1131 C1136 1.350 . S
C1131 N1139 1.427 . S
C1132 H1123 0.930 . S
C1132 C1130 1.378 . S
C1132 C1133 1.367 . S
C1133 C1132 1.367 . S
C1133 C1135 1.433 . S
C1134 C1130 1.350 . S
C1134 C1131 1.463 . S
C1134 N1138 1.427 . S
C1135 H1125 0.929 . S
C1135 C1133 1.433 . S
C1135 N1138 1.384 . S
C1136 H1127 0.929 . S
C1136 C1128 1.378 . S
C1136 C1131 1.350 . S
C1137 H1124 0.929 . S
C1137 C1129 1.433 . S
C1137 N1139 1.384 . S
N1138 C1134 1.427 . S
N1138 C1135 1.384 . S
N1139 C1131 1.427 . S
N1139 C1137 1.384 . S
H1140 C1146 0.930 . S
H1141 C1150 0.930 . S
H1142 C1155 0.929 . S
H1143 C1153 0.929 . S
H1144 C1148 0.902 1_565 S
H1145 C1154 0.929 1_545 S
C1146 H1140 0.930 . S
C1146 C1147 1.367 . S
C1146 C1154 1.378 . S
C1147 C1146 1.367 . S
C1147 C1155 1.433 . S
C1148 H1144 0.902 1_545 S
C1148 C1150 1.397 . S
C1148 C1152 1.357 . S
C1149 C1152 1.463 1_565 S
C1149 C1154 1.350 . S
C1149 N1157 1.427 . S
C1150 H1141 0.930 . S
C1150 C1148 1.397 . S
C1150 C1151 1.367 . S
C1151 C1150 1.367 . S
C1151 C1153 1.433 . S
C1152 C1148 1.357 . S
C1152 C1149 1.463 1_545 S
C1152 N1156 1.427 . S
C1153 H1143 0.929 . S
C1153 C1151 1.433 . S
C1153 N1156 1.384 . S
C1154 H1145 0.929 1_565 S
C1154 C1146 1.378 . S
C1154 C1149 1.350 . S
C1155 H1142 0.929 . S
C1155 C1147 1.433 . S
C1155 N1157 1.384 . S
N1156 C1152 1.427 . S
N1156 C1153 1.384 . S
N1157 C1149 1.427 . S
N1157 C1155 1.384 . S
H1158 C1164 0.930 . S
H1159 C1168 0.930 . S
H1160 C1173 0.929 . S
H1161 C1171 0.929 . S
H1162 C1166 0.929 . S
H1163 C1172 0.929 . S
C1164 H1158 0.930 . S
C1164 C1165 1.367 1_554 S
C1164 C1172 1.378 . S
C1165 C1164 1.367 1_556 S
C1165 C1173 1.433 . S
C1166 H1162 0.929 . S
C1166 C1168 1.378 . S
C1166 C1170 1.350 . S
C1167 C1170 1.463 . S
C1167 C1172 1.350 1_556 S
C1167 N1175 1.427 . S
C1168 H1159 0.930 . S
C1168 C1166 1.378 . S
C1168 C1169 1.367 . S
C1169 C1168 1.367 . S
C1169 C1171 1.433 1_556 S
C1170 C1166 1.350 . S
C1170 C1167 1.463 . S
C1170 N1174 1.427 1_556 S
C1171 H1161 0.929 . S
C1171 C1169 1.433 1_554 S
C1171 N1174 1.384 . S
C1172 H1163 0.929 . S
C1172 C1164 1.378 . S
C1172 C1167 1.350 1_554 S
C1173 H1160 0.929 . S
C1173 C1165 1.433 . S
C1173 N1175 1.384 . S
N1174 C1170 1.427 1_554 S
N1174 C1171 1.384 . S
N1175 C1167 1.427 . S
N1175 C1173 1.384 . S
C319 C226 0.717 . S
C323 C8 0.673 . S
C337 C21 0.719 . S
C341 C213 0.710 . S
C355 C34 0.772 . S
C359 C252 0.744 . S
C373 C47 0.798 . S
C377 C239 0.803 . S
C391 C60 0.679 . S
C395 C278 0.719 . S
C409 C73 0.740 . S
C413 C291 0.719 . S
C427 C265 0.754 . S
C431 C86 0.712 . S
C445 C148 0.750 . S
C449 C99 0.786 . S
C463 C112 0.684 . S
C467 C44 0.723 . S
C481 C18 0.718 . S
C485 C125 0.718 . S
C499 C138 0.797 . S
C503 C5 0.820 . S
C517 C151 0.759 . S
C521 C187 0.763 . S
C535 C70 0.824 . S
C539 C164 0.871 . S
C553 C57 0.787 . S
C557 C177 0.820 . S
C571 C190 0.781 . S
C575 C96 0.747 . S
C589 C203 0.731 . S
C593 C83 0.717 . S
C607 C122 0.807 . S
C611 C216 0.839 . S
C625 C135 0.757 . S
C629 C229 0.790 . S
C643 C109 0.822 . S
C647 C242 0.809 . S
C661 C255 0.759 . S
C665 C304 0.778 . S
C679 C200 0.809 . S
C683 C268 0.838 . S
C697 C281 0.812 . S
C701 C174 0.771 . S
C715 C161 0.711 . S
C719 C294 0.721 . S
C733 C307 0.739 . S
C737 C31 0.770 . S
C751 C0 1.524 . S
C755 C13 1.527 . S
C769 C39 1.463 . S
C773 C26 1.461 . S
C787 C52 1.513 . S
C791 C78 1.521 . S
C805 C65 1.639 . S
C809 C91 1.637 . S
C823 C286 1.522 . S
C827 C104 1.525 . S
C841 C117 1.629 . S
C845 C143 1.639 . S
C859 C260 1.580 . S
C863 C130 1.585 . S
C877 C169 1.580 . S
C881 C156 1.577 . S
C895 C182 1.636 . S
C899 C195 1.626 . S
C913 C234 1.573 . S
C917 C208 1.579 . S
C931 C221 1.473 . S
C935 C247 1.469 . S
C949 C299 1.462 . S
C953 C273 1.475 . S
C967 C36 1.241 . S
C971 C10 1.243 . S
C985 C23 1.336 . S
C989 C49 1.337 . S
C1003 C257 1.230 . S
C1007 C62 1.233 . S
C1021 C75 1.295 . S
C1025 C244 1.292 . S
C1039 C88 1.336 . S
C1043 C231 1.333 . S
C1057 C218 1.402 . S
C1061 C101 1.405 . S
C1075 C114 1.232 . S
C1079 C309 1.234 . S
C1093 C127 1.304 . S
C1097 C140 1.302 . S
C1111 C270 1.402 . S
C1115 C153 1.400 . S
C1129 C166 1.406 . S
C1133 C192 1.406 . S
C1147 C179 1.291 . S
C1151 C205 1.290 . S
C1165 C296 1.337 . S
C1169 C283 1.334 . S
