# Generated by pormake.
# Topology umr, (4)-cn, num edge types: 1
# Building blocks:
#     Node 0, Type 0, BuildingBlock: TATPOV_clean_sbu_0, # of connection points: 4
#     Node 1, Type 0, BuildingBlock: TATPOV_clean_sbu_0, # of connection points: 4
#     Node 2, Type 0, BuildingBlock: TATPOV_clean_sbu_0, # of connection points: 4
#     Node 3, Type 0, BuildingBlock: TATPOV_clean_sbu_0, # of connection points: 4
#     Node 4, Type 0, BuildingBlock: TATPOV_clean_sbu_0, # of connection points: 4
#     Node 5, Type 0, BuildingBlock: TATPOV_clean_sbu_0, # of connection points: 4
#     Node 6, Type 0, BuildingBlock: TATPOV_clean_sbu_0, # of connection points: 4
#     Node 7, Type 0, BuildingBlock: TATPOV_clean_sbu_0, # of connection points: 4
#     Node 8, Type 0, BuildingBlock: TATPOV_clean_sbu_0, # of connection points: 4
#     Node 9, Type 0, BuildingBlock: TATPOV_clean_sbu_0, # of connection points: 4
#     Node 10, Type 0, BuildingBlock: TATPOV_clean_sbu_0, # of connection points: 4
#     Node 11, Type 0, BuildingBlock: TATPOV_clean_sbu_0, # of connection points: 4
#     Node 12, Type 0, BuildingBlock: TATPOV_clean_sbu_0, # of connection points: 4
#     Node 13, Type 0, BuildingBlock: TATPOV_clean_sbu_0, # of connection points: 4
#     Node 14, Type 0, BuildingBlock: TATPOV_clean_sbu_0, # of connection points: 4
#     Node 15, Type 0, BuildingBlock: TATPOV_clean_sbu_0, # of connection points: 4
#     Node 16, Type 0, BuildingBlock: TATPOV_clean_sbu_0, # of connection points: 4
#     Node 17, Type 0, BuildingBlock: TATPOV_clean_sbu_0, # of connection points: 4
#     Node 18, Type 0, BuildingBlock: TATPOV_clean_sbu_0, # of connection points: 4
#     Node 19, Type 0, BuildingBlock: TATPOV_clean_sbu_0, # of connection points: 4
#     Node 20, Type 0, BuildingBlock: TATPOV_clean_sbu_0, # of connection points: 4
#     Node 21, Type 0, BuildingBlock: TATPOV_clean_sbu_0, # of connection points: 4
#     Node 22, Type 0, BuildingBlock: TATPOV_clean_sbu_0, # of connection points: 4
#     Node 23, Type 0, BuildingBlock: TATPOV_clean_sbu_0, # of connection points: 4
#     Node 24, Type 0, BuildingBlock: TATPOV_clean_sbu_0, # of connection points: 4
#     Node 25, Type 0, BuildingBlock: TATPOV_clean_sbu_0, # of connection points: 4
#     Node 26, Type 0, BuildingBlock: TATPOV_clean_sbu_0, # of connection points: 4
#     Node 27, Type 0, BuildingBlock: TATPOV_clean_sbu_0, # of connection points: 4
#     Node 28, Type 0, BuildingBlock: TATPOV_clean_sbu_0, # of connection points: 4
#     Node 29, Type 0, BuildingBlock: TATPOV_clean_sbu_0, # of connection points: 4
#     Node 30, Type 0, BuildingBlock: TATPOV_clean_sbu_0, # of connection points: 4
#     Node 31, Type 0, BuildingBlock: TATPOV_clean_sbu_0, # of connection points: 4
#     Edge 32, Type (0, 0), BuildingBlock: UVAHIK_clean_linker_0, # of connection points: 2
#     Edge 33, Type (0, 0), BuildingBlock: UVAHIK_clean_linker_0, # of connection points: 2
#     Edge 34, Type (0, 0), BuildingBlock: UVAHIK_clean_linker_0, # of connection points: 2
#     Edge 35, Type (0, 0), BuildingBlock: UVAHIK_clean_linker_0, # of connection points: 2
#     Edge 36, Type (0, 0), BuildingBlock: UVAHIK_clean_linker_0, # of connection points: 2
#     Edge 37, Type (0, 0), BuildingBlock: UVAHIK_clean_linker_0, # of connection points: 2
#     Edge 38, Type (0, 0), BuildingBlock: UVAHIK_clean_linker_0, # of connection points: 2
#     Edge 39, Type (0, 0), BuildingBlock: UVAHIK_clean_linker_0, # of connection points: 2
#     Edge 40, Type (0, 0), BuildingBlock: UVAHIK_clean_linker_0, # of connection points: 2
#     Edge 41, Type (0, 0), BuildingBlock: UVAHIK_clean_linker_0, # of connection points: 2
#     Edge 42, Type (0, 0), BuildingBlock: UVAHIK_clean_linker_0, # of connection points: 2
#     Edge 43, Type (0, 0), BuildingBlock: UVAHIK_clean_linker_0, # of connection points: 2
#     Edge 44, Type (0, 0), BuildingBlock: UVAHIK_clean_linker_0, # of connection points: 2
#     Edge 45, Type (0, 0), BuildingBlock: UVAHIK_clean_linker_0, # of connection points: 2
#     Edge 46, Type (0, 0), BuildingBlock: UVAHIK_clean_linker_0, # of connection points: 2
#     Edge 47, Type (0, 0), BuildingBlock: UVAHIK_clean_linker_0, # of connection points: 2
#     Edge 48, Type (0, 0), BuildingBlock: UVAHIK_clean_linker_0, # of connection points: 2
#     Edge 49, Type (0, 0), BuildingBlock: UVAHIK_clean_linker_0, # of connection points: 2
#     Edge 50, Type (0, 0), BuildingBlock: UVAHIK_clean_linker_0, # of connection points: 2
#     Edge 51, Type (0, 0), BuildingBlock: UVAHIK_clean_linker_0, # of connection points: 2
#     Edge 52, Type (0, 0), BuildingBlock: UVAHIK_clean_linker_0, # of connection points: 2
#     Edge 53, Type (0, 0), BuildingBlock: UVAHIK_clean_linker_0, # of connection points: 2
#     Edge 54, Type (0, 0), BuildingBlock: UVAHIK_clean_linker_0, # of connection points: 2
#     Edge 55, Type (0, 0), BuildingBlock: UVAHIK_clean_linker_0, # of connection points: 2
#     Edge 56, Type (0, 0), BuildingBlock: UVAHIK_clean_linker_0, # of connection points: 2
#     Edge 57, Type (0, 0), BuildingBlock: UVAHIK_clean_linker_0, # of connection points: 2
#     Edge 58, Type (0, 0), BuildingBlock: UVAHIK_clean_linker_0, # of connection points: 2
#     Edge 59, Type (0, 0), BuildingBlock: UVAHIK_clean_linker_0, # of connection points: 2
#     Edge 60, Type (0, 0), BuildingBlock: UVAHIK_clean_linker_0, # of connection points: 2
#     Edge 61, Type (0, 0), BuildingBlock: UVAHIK_clean_linker_0, # of connection points: 2
#     Edge 62, Type (0, 0), BuildingBlock: UVAHIK_clean_linker_0, # of connection points: 2
#     Edge 63, Type (0, 0), BuildingBlock: UVAHIK_clean_linker_0, # of connection points: 2
#     Edge 64, Type (0, 0), BuildingBlock: UVAHIK_clean_linker_0, # of connection points: 2
#     Edge 65, Type (0, 0), BuildingBlock: UVAHIK_clean_linker_0, # of connection points: 2
#     Edge 66, Type (0, 0), BuildingBlock: UVAHIK_clean_linker_0, # of connection points: 2
#     Edge 67, Type (0, 0), BuildingBlock: UVAHIK_clean_linker_0, # of connection points: 2
#     Edge 68, Type (0, 0), BuildingBlock: UVAHIK_clean_linker_0, # of connection points: 2
#     Edge 69, Type (0, 0), BuildingBlock: UVAHIK_clean_linker_0, # of connection points: 2
#     Edge 70, Type (0, 0), BuildingBlock: UVAHIK_clean_linker_0, # of connection points: 2
#     Edge 71, Type (0, 0), BuildingBlock: UVAHIK_clean_linker_0, # of connection points: 2
#     Edge 72, Type (0, 0), BuildingBlock: UVAHIK_clean_linker_0, # of connection points: 2
#     Edge 73, Type (0, 0), BuildingBlock: UVAHIK_clean_linker_0, # of connection points: 2
#     Edge 74, Type (0, 0), BuildingBlock: UVAHIK_clean_linker_0, # of connection points: 2
#     Edge 75, Type (0, 0), BuildingBlock: UVAHIK_clean_linker_0, # of connection points: 2
#     Edge 76, Type (0, 0), BuildingBlock: UVAHIK_clean_linker_0, # of connection points: 2
#     Edge 77, Type (0, 0), BuildingBlock: UVAHIK_clean_linker_0, # of connection points: 2
#     Edge 78, Type (0, 0), BuildingBlock: UVAHIK_clean_linker_0, # of connection points: 2
#     Edge 79, Type (0, 0), BuildingBlock: UVAHIK_clean_linker_0, # of connection points: 2
#     Edge 80, Type (0, 0), BuildingBlock: UVAHIK_clean_linker_0, # of connection points: 2
#     Edge 81, Type (0, 0), BuildingBlock: UVAHIK_clean_linker_0, # of connection points: 2
#     Edge 82, Type (0, 0), BuildingBlock: UVAHIK_clean_linker_0, # of connection points: 2
#     Edge 83, Type (0, 0), BuildingBlock: UVAHIK_clean_linker_0, # of connection points: 2
#     Edge 84, Type (0, 0), BuildingBlock: UVAHIK_clean_linker_0, # of connection points: 2
#     Edge 85, Type (0, 0), BuildingBlock: UVAHIK_clean_linker_0, # of connection points: 2
#     Edge 86, Type (0, 0), BuildingBlock: UVAHIK_clean_linker_0, # of connection points: 2
#     Edge 87, Type (0, 0), BuildingBlock: UVAHIK_clean_linker_0, # of connection points: 2
#     Edge 88, Type (0, 0), BuildingBlock: UVAHIK_clean_linker_0, # of connection points: 2
#     Edge 89, Type (0, 0), BuildingBlock: UVAHIK_clean_linker_0, # of connection points: 2
#     Edge 90, Type (0, 0), BuildingBlock: UVAHIK_clean_linker_0, # of connection points: 2
#     Edge 91, Type (0, 0), BuildingBlock: UVAHIK_clean_linker_0, # of connection points: 2
#     Edge 92, Type (0, 0), BuildingBlock: UVAHIK_clean_linker_0, # of connection points: 2
#     Edge 93, Type (0, 0), BuildingBlock: UVAHIK_clean_linker_0, # of connection points: 2
#     Edge 94, Type (0, 0), BuildingBlock: UVAHIK_clean_linker_0, # of connection points: 2
#     Edge 95, Type (0, 0), BuildingBlock: UVAHIK_clean_linker_0, # of connection points: 2
# Relax obj value: 0.103
# Max RMSD: 0.117
# Mean RMSD: 0.117
data_MOF--net-umr--node1-TATPOV_clean_sbu_0--edge1-UVAHIK_clean_linker_0
_symmetry_space_group_name_H-M    P1
_symmetry_Int_Tables_number       1
_symmetry_cell_setting            triclinic
loop_
_symmetry_equiv_pos_as_xyz
'x, y, z'
_cell_length_a     110.62393
_cell_length_b     110.37577
_cell_length_c     32.729891
_cell_angle_alpha  90.026615
_cell_angle_beta   90.043429
_cell_angle_gamma 90.059735
loop_
_atom_site_label
_atom_site_type_symbol
_atom_site_fract_x
_atom_site_fract_y
_atom_site_fract_z
_atom_type_partial_charge
Zn0 Zn 0.17785 0.27222 0.08631 0.0
Zn1 Zn 0.16614 0.29226 0.09779 0.0
O2 O 0.15548 0.28279 0.0567 0.0
O3 O 0.16386 0.26475 0.05686 0.0
O4 O 0.1563 0.30733 0.10828 0.0
O5 O 0.17968 0.26906 0.14582 0.0
O6 O 0.16729 0.28437 0.15523 0.0
C7 C 0.15547 0.27174 0.04543 0.0
C8 C 0.1905 0.2927 0.05411 0.0
O9 O 0.18212 0.29858 0.07205 0.0
O10 O 0.19043 0.28123 0.0543 0.0
C11 C 0.15134 0.31287 0.07866 0.0
O12 O 0.15312 0.30892 0.04128 0.0
C13 C 0.17327 0.27544 0.16947 0.0
Zn14 Zn 0.95752 0.94492 0.38999 0.0
Zn15 Zn 0.94521 0.92511 0.38402 0.0
O16 O 0.95675 0.92245 0.33562 0.0
O17 O 0.96512 0.94057 0.33584 0.0
O18 O 0.93433 0.91044 0.38512 0.0
O19 O 0.96571 0.93994 0.44137 0.0
O20 O 0.95388 0.92394 0.44039 0.0
C21 C 0.96382 0.93023 0.31955 0.0
C22 C 0.93341 0.9506 0.37769 0.0
O23 O 0.93323 0.93918 0.37164 0.0
O24 O 0.94289 0.95561 0.39108 0.0
C25 C 0.92801 0.90719 0.35458 0.0
O26 O 0.92877 0.91339 0.32041 0.0
C27 C 0.9621 0.93023 0.45774 0.0
Zn28 Zn 0.31224 0.7224 0.62219 0.0
Zn29 Zn 0.32776 0.70425 0.60937 0.0
O30 O 0.32883 0.7129 0.55421 0.0
O31 O 0.31531 0.72731 0.56366 0.0
O32 O 0.339 0.68991 0.60672 0.0
O33 O 0.32314 0.72986 0.66389 0.0
O34 O 0.33544 0.71435 0.65586 0.0
C35 C 0.32302 0.72208 0.54115 0.0
C36 C 0.30067 0.69961 0.62802 0.0
O37 O 0.31112 0.69616 0.61659 0.0
O38 O 0.29878 0.71066 0.63621 0.0
C39 C 0.34823 0.6891 0.58375 0.0
O40 O 0.35071 0.69795 0.55827 0.0
C41 C 0.33283 0.72441 0.67275 0.0
Zn42 Zn 0.53339 0.05017 0.87223 0.0
Zn43 Zn 0.54766 0.06937 0.8696 0.0
O44 O 0.5348 0.07427 0.82762 0.0
O45 O 0.52266 0.05846 0.83056 0.0
O46 O 0.55928 0.08348 0.87045 0.0
O47 O 0.53016 0.05239 0.93144 0.0
O48 O 0.541 0.06911 0.92918 0.0
C49 C 0.52526 0.06878 0.81596 0.0
C50 C 0.5567 0.04371 0.8451 0.0
O51 O 0.55835 0.0551 0.84872 0.0
O52 O 0.54664 0.03905 0.85456 0.0
C53 C 0.56639 0.08536 0.84063 0.0
O54 O 0.56593 0.07811 0.80882 0.0
C55 C 0.53433 0.06172 0.94892 0.0
Zn56 Zn 0.18773 0.7161 0.41383 0.0
Zn57 Zn 0.17115 0.69886 0.40831 0.0
O58 O 0.16315 0.71039 0.44945 0.0
O59 O 0.17723 0.72441 0.45559 0.0
O60 O 0.15926 0.6851 0.40105 0.0
O61 O 0.18547 0.72091 0.356 0.0
O62 O 0.17187 0.70644 0.35022 0.0
C63 C 0.16689 0.72031 0.46491 0.0
C64 C 0.19723 0.69346 0.43779 0.0
O65 O 0.18627 0.69024 0.43229 0.0
O66 O 0.20052 0.70418 0.42994 0.0
C67 C 0.14791 0.6864 0.40529 0.0
O68 O 0.14358 0.69709 0.41512 0.0
C69 C 0.17773 0.71529 0.33481 0.0
Zn70 Zn 0.53024 0.9391 0.62331 0.0
Zn71 Zn 0.54483 0.92091 0.631 0.0
O72 O 0.53427 0.9184 0.68222 0.0
O73 O 0.52469 0.93589 0.68095 0.0
O74 O 0.55707 0.90736 0.63204 0.0
O75 O 0.52128 0.93128 0.57723 0.0
O76 O 0.53576 0.9176 0.57657 0.0
C77 C 0.52711 0.92599 0.69874 0.0
C78 C 0.55403 0.94737 0.62608 0.0
O79 O 0.55551 0.93631 0.63618 0.0
O80 O 0.54382 0.95094 0.61357 0.0
C81 C 0.56487 0.90715 0.60352 0.0
O82 O 0.56462 0.91572 0.57566 0.0
C83 C 0.52618 0.9221 0.56122 0.0
Zn84 Zn 0.3148 0.27183 0.8745 0.0
Zn85 Zn 0.32788 0.29188 0.87806 0.0
O86 O 0.33348 0.28288 0.93002 0.0
O87 O 0.32292 0.26598 0.92542 0.0
O88 O 0.33807 0.30702 0.87592 0.0
O89 O 0.32194 0.26679 0.82182 0.0
O90 O 0.3328 0.2835 0.82355 0.0
C91 C 0.33066 0.27245 0.94373 0.0
C92 C 0.30014 0.29309 0.88174 0.0
O93 O 0.31039 0.29836 0.88335 0.0
O94 O 0.29955 0.28172 0.87678 0.0
C95 C 0.34212 0.31263 0.90698 0.0
O96 O 0.33949 0.30864 0.94372 0.0
C97 C 0.32986 0.27358 0.8061 0.0
Zn98 Zn 0.96045 0.04634 0.1032 0.0
Zn99 Zn 0.94612 0.06549 0.10552 0.0
O100 O 0.95872 0.07046 0.14842 0.0
O101 O 0.97063 0.05447 0.14667 0.0
O102 O 0.93443 0.07947 0.10316 0.0
O103 O 0.96479 0.04916 0.04499 0.0
O104 O 0.95323 0.06535 0.04674 0.0
C105 C 0.96809 0.06485 0.1609 0.0
C106 C 0.93682 0.03984 0.12822 0.0
O107 O 0.93534 0.05127 0.12545 0.0
O108 O 0.94685 0.03515 0.11847 0.0
C109 C 0.92972 0.08407 0.13499 0.0
O110 O 0.93265 0.07971 0.171 0.0
C111 C 0.96055 0.05846 0.02758 0.0
Zn112 Zn 0.80677 0.71882 0.84604 0.0
Zn113 Zn 0.82298 0.70191 0.86486 0.0
O114 O 0.82681 0.71494 0.90789 0.0
O115 O 0.81407 0.72935 0.89034 0.0
O116 O 0.83532 0.68873 0.87411 0.0
O117 O 0.81258 0.71991 0.78849 0.0
O118 O 0.82698 0.70706 0.80535 0.0
C119 C 0.82245 0.72551 0.91333 0.0
C120 C 0.79563 0.69674 0.87184 0.0
O121 O 0.80658 0.69329 0.87583 0.0
O122 O 0.79331 0.70732 0.85916 0.0
C123 C 0.83509 0.67977 0.84969 0.0
O124 O 0.8267 0.67941 0.82125 0.0
C125 C 0.82193 0.71395 0.7792 0.0
Zn126 Zn 0.03194 0.048 0.59664 0.0
Zn127 Zn 0.04538 0.06777 0.60285 0.0
O128 O 0.03302 0.07124 0.64814 0.0
O129 O 0.02209 0.05458 0.64381 0.0
O130 O 0.05645 0.08224 0.60119 0.0
O131 O 0.02658 0.05201 0.54025 0.0
O132 O 0.03778 0.06842 0.54488 0.0
C133 C 0.02417 0.06477 0.66028 0.0
C134 C 0.05615 0.04225 0.61689 0.0
O135 O 0.05697 0.05376 0.61837 0.0
O136 O 0.04636 0.03727 0.60609 0.0
C137 C 0.06107 0.08731 0.63238 0.0
O138 O 0.05842 0.08319 0.66895 0.0
C139 C 0.03045 0.06176 0.5248 0.0
Zn140 Zn 0.69449 0.28361 0.36036 0.0
Zn141 Zn 0.67475 0.29656 0.36934 0.0
O142 O 0.67131 0.28321 0.41167 0.0
O143 O 0.68842 0.27313 0.40677 0.0
O144 O 0.66025 0.30759 0.37007 0.0
O145 O 0.6904 0.27886 0.30331 0.0
O146 O 0.67417 0.29017 0.30959 0.0
C147 C 0.67812 0.27453 0.42307 0.0
C148 C 0.70018 0.30739 0.38491 0.0
O149 O 0.68869 0.30797 0.3876 0.0
O150 O 0.70519 0.29795 0.37121 0.0
C151 C 0.6558 0.31246 0.40186 0.0
O152 O 0.66057 0.31005 0.43772 0.0
C153 C 0.68077 0.28312 0.28828 0.0
Zn154 Zn 0.45797 0.94469 0.13871 0.0
Zn155 Zn 0.44256 0.92639 0.13524 0.0
O156 O 0.45337 0.92077 0.18261 0.0
O157 O 0.46668 0.93565 0.18376 0.0
O158 O 0.43029 0.91306 0.12785 0.0
O159 O 0.46334 0.94229 0.08141 0.0
O160 O 0.4515 0.92629 0.07916 0.0
C161 C 0.46287 0.92561 0.19746 0.0
C162 C 0.43407 0.95242 0.15576 0.0
O163 O 0.43191 0.94114 0.15126 0.0
O164 O 0.44468 0.95646 0.15102 0.0
C165 C 0.42411 0.90872 0.15712 0.0
O166 O 0.42586 0.91286 0.19431 0.0
C167 C 0.45933 0.93317 0.06237 0.0
Zn168 Zn 0.80427 0.28227 0.61964 0.0
Zn169 Zn 0.82215 0.29814 0.61962 0.0
O170 O 0.82686 0.28767 0.57024 0.0
O171 O 0.81222 0.2741 0.57139 0.0
O172 O 0.8354 0.31062 0.62407 0.0
O173 O 0.80831 0.27638 0.6752 0.0
O174 O 0.82382 0.28886 0.67473 0.0
C175 C 0.82186 0.27819 0.55569 0.0
C176 C 0.79558 0.3061 0.60666 0.0
O177 O 0.80686 0.30851 0.60819 0.0
O178 O 0.79193 0.29535 0.61197 0.0
C179 C 0.83948 0.31635 0.59333 0.0
O180 O 0.83499 0.31405 0.55696 0.0
C181 C 0.81769 0.28055 0.69225 0.0
Zn182 Zn 0.4583 0.05146 0.38596 0.0
Zn183 Zn 0.44651 0.07159 0.37596 0.0
O184 O 0.45832 0.07312 0.32765 0.0
O185 O 0.46653 0.05501 0.33218 0.0
O186 O 0.43617 0.0866 0.37477 0.0
O187 O 0.46615 0.05693 0.43746 0.0
O188 O 0.45496 0.07331 0.43248 0.0
C189 C 0.46548 0.06506 0.31382 0.0
C190 C 0.43384 0.04651 0.37378 0.0
O191 O 0.43399 0.05783 0.36615 0.0
O192 O 0.44322 0.04135 0.38728 0.0
C193 C 0.42878 0.08903 0.3462 0.0
O194 O 0.42808 0.08175 0.31451 0.0
C195 C 0.46277 0.06702 0.45172 0.0
Zn196 Zn 0.68149 0.72016 0.09532 0.0
Zn197 Zn 0.66672 0.70182 0.10432 0.0
O198 O 0.65735 0.71316 0.06504 0.0
O199 O 0.66864 0.72958 0.06622 0.0
O200 O 0.6552 0.6879 0.11296 0.0
O201 O 0.68338 0.72215 0.15575 0.0
O202 O 0.66898 0.70856 0.16283 0.0
C203 C 0.65915 0.72416 0.0547 0.0
C204 C 0.69107 0.69833 0.06158 0.0
O205 O 0.68175 0.69367 0.07824 0.0
O206 O 0.69278 0.70966 0.06275 0.0
C207 C 0.65043 0.68245 0.08278 0.0
O208 O 0.65318 0.68594 0.04554 0.0
C209 C 0.67618 0.71632 0.17844 0.0
Zn210 Zn 0.03349 0.94776 0.88336 0.0
Zn211 Zn 0.04716 0.92806 0.88104 0.0
O212 O 0.0348 0.92401 0.83625 0.0
O213 O 0.02328 0.94026 0.83859 0.0
O214 O 0.05802 0.91333 0.88338 0.0
O215 O 0.02897 0.94494 0.94132 0.0
O216 O 0.03948 0.92805 0.93907 0.0
C217 C 0.02569 0.92997 0.82344 0.0
C218 C 0.05746 0.95366 0.86161 0.0
O219 O 0.0586 0.94218 0.86406 0.0
O220 O 0.04744 0.95858 0.86988 0.0
C221 C 0.06824 0.91262 0.86571 0.0
O222 O 0.07209 0.92176 0.84361 0.0
C223 C 0.03258 0.93533 0.95836 0.0
Zn224 Zn 0.68856 0.78035 0.64189 0.0
Zn225 Zn 0.67008 0.7943 0.62188 0.0
O226 O 0.6689 0.7817 0.5759 0.0
O227 O 0.68426 0.77002 0.59287 0.0
O228 O 0.65617 0.80582 0.61317 0.0
O229 O 0.68144 0.77599 0.6958 0.0
O230 O 0.66575 0.78705 0.6785 0.0
C231 C 0.67547 0.77242 0.56934 0.0
C232 C 0.69648 0.80396 0.62193 0.0
O233 O 0.68521 0.80524 0.61489 0.0
O234 O 0.7004 0.79405 0.63611 0.0
C235 C 0.65599 0.81397 0.58575 0.0
O236 O 0.66508 0.8148 0.56011 0.0
C237 C 0.67098 0.77996 0.70366 0.0
Zn238 Zn 0.46026 0.44642 0.87973 0.0
Zn239 Zn 0.44442 0.42844 0.87867 0.0
O240 O 0.45503 0.42369 0.82992 0.0
O241 O 0.46863 0.4383 0.83199 0.0
O242 O 0.43202 0.41513 0.88276 0.0
O243 O 0.46583 0.4424 0.93586 0.0
O244 O 0.45342 0.42684 0.93418 0.0
C245 C 0.46457 0.42866 0.81595 0.0
C246 C 0.43648 0.45497 0.86434 0.0
O247 O 0.43412 0.44367 0.86607 0.0
O248 O 0.44714 0.4587 0.87062 0.0
C249 C 0.42601 0.41132 0.85224 0.0
O250 O 0.42792 0.41616 0.81614 0.0
C251 C 0.46159 0.43296 0.95242 0.0
Zn252 Zn 0.80776 0.21392 0.11469 0.0
Zn253 Zn 0.82406 0.19738 0.1178 0.0
O254 O 0.82959 0.20695 0.06712 0.0
O255 O 0.81305 0.21766 0.05719 0.0
O256 O 0.83631 0.18394 0.12303 0.0
O257 O 0.81529 0.22308 0.16093 0.0
O258 O 0.82638 0.20686 0.17196 0.0
C259 C 0.82337 0.2142 0.04533 0.0
C260 C 0.79686 0.19121 0.1142 0.0
O261 O 0.80785 0.18827 0.10794 0.0
O262 O 0.79425 0.20199 0.12382 0.0
C263 C 0.84 0.17799 0.09222 0.0
O264 O 0.83566 0.18058 0.0559 0.0
C265 C 0.82289 0.21741 0.1825 0.0
Zn266 Zn 0.03188 0.55046 0.3829 0.0
Zn267 Zn 0.04654 0.56966 0.37641 0.0
O268 O 0.03339 0.57398 0.33472 0.0
O269 O 0.02079 0.55864 0.34212 0.0
O270 O 0.05788 0.58407 0.37536 0.0
O271 O 0.02901 0.55361 0.44197 0.0
O272 O 0.04013 0.57005 0.43608 0.0
C273 C 0.02352 0.56866 0.32563 0.0
C274 C 0.05529 0.54376 0.35477 0.0
O275 O 0.05704 0.55515 0.35748 0.0
O276 O 0.0452 0.53927 0.36482 0.0
C277 C 0.06761 0.58448 0.35472 0.0
O278 O 0.07061 0.57518 0.33185 0.0
C279 C 0.03335 0.56317 0.45747 0.0
Zn280 Zn 0.6896 0.21468 0.85712 0.0
Zn281 Zn 0.67097 0.19981 0.8705 0.0
O282 O 0.66653 0.2136 0.90939 0.0
O283 O 0.68156 0.22623 0.89731 0.0
O284 O 0.65751 0.18753 0.87571 0.0
O285 O 0.68598 0.21574 0.79739 0.0
O286 O 0.66975 0.20473 0.80938 0.0
C287 C 0.67185 0.22366 0.91605 0.0
C288 C 0.69729 0.19238 0.89164 0.0
O289 O 0.68594 0.19032 0.8914 0.0
O290 O 0.70139 0.2022 0.87725 0.0
C291 C 0.65765 0.17873 0.8506 0.0
O292 O 0.66643 0.17814 0.82365 0.0
C293 C 0.67637 0.21076 0.78485 0.0
Zn294 Zn 0.03523 0.44641 0.09903 0.0
Zn295 Zn 0.04776 0.4268 0.10878 0.0
O296 O 0.03599 0.42456 0.15676 0.0
O297 O 0.0271 0.44237 0.1526 0.0
O298 O 0.05878 0.41228 0.10953 0.0
O299 O 0.02765 0.44084 0.04725 0.0
O300 O 0.03938 0.42486 0.05218 0.0
C301 C 0.02852 0.43232 0.1707 0.0
C302 C 0.05927 0.45248 0.11279 0.0
O303 O 0.05955 0.44112 0.11994 0.0
O304 O 0.04978 0.45726 0.09856 0.0
C305 C 0.06538 0.40927 0.13965 0.0
O306 O 0.06489 0.41565 0.17351 0.0
C307 C 0.03136 0.43089 0.03292 0.0
Zn308 Zn 0.79943 0.78337 0.36692 0.0
Zn309 Zn 0.81837 0.79789 0.37142 0.0
O310 O 0.82362 0.78478 0.41232 0.0
O311 O 0.80752 0.77304 0.41003 0.0
O312 O 0.83215 0.80986 0.36934 0.0
O313 O 0.80232 0.77948 0.30835 0.0
O314 O 0.81814 0.7915 0.31162 0.0
C315 C 0.81794 0.77536 0.42419 0.0
C316 C 0.79263 0.80666 0.39413 0.0
O317 O 0.80404 0.80828 0.39302 0.0
O318 O 0.78808 0.79674 0.38244 0.0
C319 C 0.83821 0.81335 0.40019 0.0
O320 O 0.83562 0.80894 0.43642 0.0
C321 C 0.81143 0.78424 0.29143 0.0
Zn322 Zn 0.46164 0.55166 0.60206 0.0
Zn323 Zn 0.44874 0.57179 0.60875 0.0
O324 O 0.46165 0.57502 0.65241 0.0
O325 O 0.4722 0.55815 0.64768 0.0
O326 O 0.43826 0.58671 0.6085 0.0
O327 O 0.4664 0.55533 0.54482 0.0
O328 O 0.45572 0.57205 0.54987 0.0
C329 C 0.47048 0.56844 0.66391 0.0
C330 C 0.43752 0.54657 0.62542 0.0
O331 O 0.43696 0.5581 0.62616 0.0
O332 O 0.44709 0.54132 0.61396 0.0
C333 C 0.43034 0.58889 0.63561 0.0
O334 O 0.42902 0.58131 0.66624 0.0
C335 C 0.46264 0.56511 0.52931 0.0
Zn336 Zn 0.29967 0.21165 0.39045 0.0
Zn337 Zn 0.31817 0.19668 0.3863 0.0
O338 O 0.32411 0.20843 0.43053 0.0
O339 O 0.30789 0.21973 0.43836 0.0
O340 O 0.33161 0.18449 0.37945 0.0
O341 O 0.30319 0.21847 0.33549 0.0
O342 O 0.31796 0.20521 0.32996 0.0
C343 C 0.31864 0.2171 0.44832 0.0
C344 C 0.29226 0.18779 0.40658 0.0
O345 O 0.30365 0.1861 0.40514 0.0
O346 O 0.28786 0.19807 0.39838 0.0
C347 C 0.33851 0.18122 0.40852 0.0
O348 O 0.33692 0.18591 0.44503 0.0
C349 C 0.31186 0.214 0.31536 0.0
Zn350 Zn 0.53252 0.5486 0.10729 0.0
Zn351 Zn 0.54711 0.56763 0.11099 0.0
O352 O 0.53437 0.57271 0.15307 0.0
O353 O 0.52236 0.55679 0.1507 0.0
O354 O 0.55888 0.58153 0.10868 0.0
O355 O 0.52838 0.5516 0.04903 0.0
O356 O 0.54033 0.56751 0.05177 0.0
C357 C 0.52493 0.56714 0.1651 0.0
C358 C 0.55601 0.54191 0.13336 0.0
O359 O 0.55761 0.55334 0.13181 0.0
O360 O 0.54605 0.53731 0.12244 0.0
C361 C 0.56403 0.58601 0.13997 0.0
O362 O 0.56155 0.58155 0.17623 0.0
C363 C 0.53296 0.5608 0.03202 0.0
Zn364 Zn 0.17269 0.76954 0.86914 0.0
Zn365 Zn 0.16224 0.79068 0.88833 0.0
O366 O 0.15819 0.78002 0.93815 0.0
O367 O 0.16623 0.76245 0.92121 0.0
O368 O 0.15359 0.80645 0.89851 0.0
O369 O 0.16272 0.76787 0.81878 0.0
O370 O 0.15432 0.78543 0.83376 0.0
C371 C 0.16032 0.76891 0.94612 0.0
C372 C 0.18975 0.78923 0.87844 0.0
O373 O 0.1803 0.79533 0.88702 0.0
O374 O 0.18884 0.77816 0.86864 0.0
C375 C 0.14246 0.80624 0.90812 0.0
O376 O 0.13713 0.79572 0.91359 0.0
C377 C 0.15528 0.77621 0.81063 0.0
Zn378 Zn 0.96156 0.44651 0.61386 0.0
Zn379 Zn 0.94707 0.42758 0.61544 0.0
O380 O 0.95971 0.42221 0.65761 0.0
O381 O 0.97203 0.43789 0.65545 0.0
O382 O 0.93522 0.41373 0.61211 0.0
O383 O 0.96508 0.44462 0.5548 0.0
O384 O 0.95396 0.42808 0.5562 0.0
C385 C 0.96929 0.42756 0.66962 0.0
C386 C 0.93829 0.45319 0.64095 0.0
O387 O 0.9365 0.44182 0.63712 0.0
O388 O 0.9484 0.45774 0.63153 0.0
C389 C 0.93049 0.40888 0.64348 0.0
O390 O 0.9335 0.41289 0.67991 0.0
C391 C 0.96082 0.43541 0.5369 0.0
Zn392 Zn 0.32231 0.76739 0.04892 0.0
Zn393 Zn 0.33023 0.78909 0.06961 0.0
O394 O 0.34305 0.78279 0.02862 0.0
O395 O 0.33738 0.76396 0.01775 0.0
O396 O 0.33735 0.80517 0.08653 0.0
O397 O 0.32167 0.76195 0.10676 0.0
O398 O 0.3293 0.77965 0.12424 0.0
C399 C 0.34487 0.77247 0.01231 0.0
C400 C 0.30629 0.78659 0.02369 0.0
O401 O 0.31377 0.7933 0.04293 0.0
O402 O 0.3081 0.77528 0.02112 0.0
C403 C 0.34133 0.81241 0.05947 0.0
O404 O 0.3401 0.80952 0.02074 0.0
C405 C 0.3257 0.76904 0.13387 0.0
Zn406 Zn 0.96498 0.5577 0.89374 0.0
Zn407 Zn 0.94903 0.57533 0.88038 0.0
O408 O 0.96178 0.57896 0.8361 0.0
O409 O 0.97437 0.56373 0.84512 0.0
O410 O 0.93663 0.58861 0.87454 0.0
O411 O 0.96938 0.56452 0.94812 0.0
O412 O 0.95506 0.57816 0.93969 0.0
C413 C 0.97134 0.57325 0.82606 0.0
C414 C 0.94161 0.54846 0.87396 0.0
O415 O 0.93941 0.55967 0.86829 0.0
O416 O 0.9518 0.54513 0.88748 0.0
C417 C 0.92849 0.58867 0.84712 0.0
O418 O 0.92818 0.57987 0.82011 0.0
C419 C 0.96341 0.57345 0.9613 0.0
Zn420 Zn 0.18573 0.21445 0.632 0.0
Zn421 Zn 0.1678 0.19895 0.61907 0.0
O422 O 0.16553 0.21002 0.56933 0.0
O423 O 0.18115 0.22215 0.57828 0.0
O424 O 0.15454 0.18648 0.61656 0.0
O425 O 0.17781 0.22124 0.68186 0.0
O426 O 0.16343 0.20768 0.67283 0.0
C427 C 0.17198 0.21895 0.55767 0.0
C428 C 0.19452 0.19057 0.62178 0.0
O429 O 0.18335 0.18871 0.61441 0.0
O430 O 0.19801 0.20093 0.63356 0.0
C431 C 0.15067 0.18115 0.58472 0.0
O432 O 0.15543 0.18379 0.54904 0.0
C433 C 0.16794 0.21648 0.69285 0.0
Zn434 Zn 0.53059 0.43906 0.37299 0.0
Zn435 Zn 0.54557 0.42115 0.3767 0.0
O436 O 0.53551 0.41622 0.32623 0.0
O437 O 0.52593 0.43349 0.31661 0.0
O438 O 0.55794 0.40786 0.38281 0.0
O439 O 0.52121 0.43295 0.421 0.0
O440 O 0.53605 0.42002 0.43109 0.0
C441 C 0.52861 0.42291 0.30477 0.0
C442 C 0.55421 0.44776 0.36951 0.0
O443 O 0.55606 0.43641 0.36557 0.0
O444 O 0.54376 0.45153 0.37865 0.0
C445 C 0.56368 0.40366 0.35233 0.0
O446 O 0.56146 0.40804 0.31577 0.0
C447 C 0.52611 0.42479 0.44238 0.0
C448 C 0.27786 0.29513 0.87418 0.0
C449 C 0.2888 0.29983 0.88904 0.0
C450 C 0.26686 0.30001 0.88668 0.0
C451 C 0.25373 0.31384 0.97641 0.0
H452 H 0.22485 0.3126 0.9093 0.0
C453 C 0.20556 0.30964 0.04563 0.0
C454 C 0.20015 0.29894 0.03123 0.0
C455 C 0.2157 0.31448 0.02554 0.0
C456 C 0.23284 0.31319 0.9284 0.0
H457 H 0.29687 0.31379 0.92686 0.0
H458 H 0.27748 0.32229 0.94938 0.0
H459 H 0.24471 0.313 0.8768 0.0
H460 H 0.20052 0.28533 0.98349 0.0
H461 H 0.21785 0.29385 0.94819 0.0
H462 H 0.24182 0.31326 0.02803 0.0
C463 C 0.27747 0.31483 0.92789 0.0
C464 C 0.24419 0.31339 0.90982 0.0
C465 C 0.28855 0.31002 0.91483 0.0
C466 C 0.20457 0.29355 -0.00461 0.0
C467 C 0.21443 0.2985 0.97495 0.0
C468 C 0.24234 0.31369 -0.00499 0.0
C469 C 0.26651 0.30966 0.91473 0.0
C470 C 0.25477 0.31303 0.93364 0.0
C471 C 0.22028 0.30885 0.9902 0.0
C472 C 0.23182 0.3127 0.97115 0.0
H473 H 0.27777 0.28731 0.85416 0.0
H474 H 0.25861 0.2957 0.87632 0.0
H475 H 0.26169 0.31352 -0.00435 0.0
H476 H 0.20232 0.31393 0.07331 0.0
H477 H 0.22009 0.32244 0.03798 0.0
C478 C 0.92099 0.9694 0.38002 0.0
C479 C 0.9239 0.95846 0.3606 0.0
C480 C 0.91525 0.97867 0.35835 0.0
C481 C 0.90463 0.98728 0.25201 0.0
H482 H 0.92144 0.017 0.27957 0.0
C483 C 0.92733 0.01963 0.13954 0.0
C484 C 0.92766 0.0321 0.14815 0.0
C485 C 0.92099 0.0117 0.16494 0.0
C486 C 0.91641 0.0089 0.27178 0.0
H487 H 0.92218 0.94816 0.30464 0.0
H488 H 0.91292 0.96441 0.26611 0.0
H489 H 0.92086 0.00069 0.32844 0.0
H490 H 0.92084 0.04618 0.18809 0.0
H491 H 0.91001 0.03221 0.23334 0.0
H492 H 0.90138 0.99534 0.1933 0.0
C493 C 0.91459 0.96591 0.29829 0.0
C494 C 0.91601 -0.00055 0.30004 0.0
C495 C 0.91995 0.9565 0.32042 0.0
C496 C 0.9207 0.03661 0.18066 0.0
C497 C 0.91454 0.02863 0.20662 0.0
C498 C 0.90528 0.99667 0.22333 0.0
C499 C 0.9128 0.97738 0.31628 0.0
C500 C 0.91056 0.98828 0.29004 0.0
C501 C 0.91504 0.01606 0.19989 0.0
C502 C 0.91157 0.0074 0.23249 0.0
H503 H 0.92387 0.97107 0.41116 0.0
H504 H 0.91354 0.98714 0.37397 0.0
H505 H 0.90001 0.97901 0.24343 0.0
H506 H 0.93258 0.01592 0.11458 0.0
H507 H 0.92162 0.00206 0.15917 0.0
C508 C 0.21791 0.68499 0.4446 0.0
C509 C 0.20591 0.68544 0.45841 0.0
C510 C 0.22699 0.68028 0.4696 0.0
C511 C 0.23508 0.68354 0.57085 0.0
H512 H 0.2617 0.66173 0.54885 0.0
C513 C 0.28004 0.69271 0.64883 0.0
C514 C 0.29022 0.6914 0.62374 0.0
C515 C 0.26913 0.68705 0.63852 0.0
C516 C 0.25442 0.66797 0.55543 0.0
H517 H 0.19381 0.68075 0.50789 0.0
H518 H 0.20987 0.67301 0.55262 0.0
H519 H 0.24327 0.6604 0.50797 0.0
H520 H 0.29727 0.68253 0.56981 0.0
H521 H 0.27828 0.67344 0.55009 0.0
H522 H 0.24636 0.69216 0.61452 0.0
C523 C 0.21214 0.67594 0.52198 0.0
C524 C 0.2438 0.66704 0.53232 0.0
C525 C 0.20298 0.68033 0.49641 0.0
C526 C 0.28956 0.68364 0.58987 0.0
C527 C 0.27857 0.67835 0.57869 0.0
C528 C 0.24578 0.68474 0.59303 0.0
C529 C 0.22426 0.67629 0.50924 0.0
C530 C 0.23419 0.67506 0.53913 0.0
C531 C 0.26802 0.68041 0.60183 0.0
C532 C 0.25583 0.67728 0.58465 0.0
H533 H 0.22036 0.68898 0.41553 0.0
H534 H 0.23629 0.68079 0.45936 0.0
H535 H 0.22783 0.68994 0.57626 0.0
H536 H 0.28037 0.69855 0.67543 0.0
H537 H 0.26143 0.68846 0.65832 0.0
C538 C 0.57124 0.03981 0.78835 0.0
C539 C 0.56569 0.03594 0.82466 0.0
C540 C 0.57666 0.03135 0.76223 0.0
C541 C 0.58615 -0.00066 0.74986 0.0
H542 H 0.56545 -0.0001 0.65445 0.0
C543 C 0.569 0.95601 0.67473 0.0
C544 C 0.56319 0.95657 0.63669 0.0
C545 C 0.57467 0.96627 0.6909 0.0
C546 C 0.57169 -0.00039 0.67989 0.0
H547 H 0.56259 0.02059 0.86445 0.0
H548 H 0.57238 0.00593 0.81967 0.0
H549 H 0.56669 0.01755 0.69767 0.0
H550 H 0.56006 0.9677 0.58335 0.0
H551 H 0.57083 0.9853 0.60979 0.0
H552 H 0.59104 0.98132 0.73256 0.0
C553 C 0.57247 0.0154 0.81102 0.0
C554 C 0.57235 0.00983 0.7049 0.0
C555 C 0.56682 0.02378 0.8366 0.0
C556 C 0.56437 0.96709 0.61301 0.0
C557 C 0.5704 0.97724 0.62857 0.0
C558 C 0.58574 0.98917 0.72425 0.0
C559 C 0.57684 0.01898 0.77261 0.0
C560 C 0.57911 0.00959 0.74115 0.0
C561 C 0.57492 0.97726 0.66888 0.0
C562 C 0.57797 0.98891 0.69005 0.0
H563 H 0.5704 0.04912 0.77834 0.0
H564 H 0.57996 0.03433 0.73274 0.0
H565 H 0.59151 -0.00103 0.77756 0.0
H566 H 0.56815 0.94802 0.69374 0.0
H567 H 0.57792 0.96578 0.72203 0.0
C568 C 0.70336 0.69437 0.0 0.0
C569 C 0.69986 0.69083 0.03936 0.0
C570 C 0.71297 0.68864 0.98047 0.0
C571 C 0.74183 0.6765 0.00442 0.0
H572 H 0.74293 0.6705 0.88774 0.0
C573 C 0.7866 0.68067 0.91693 0.0
C574 C 0.78543 0.68897 0.88463 0.0
C575 C 0.77629 0.67531 0.93422 0.0
C576 C 0.74279 0.67202 0.92044 0.0
H577 H 0.70329 0.67834 0.08898 0.0
H578 H 0.72062 0.66853 0.05518 0.0
H579 H 0.72345 0.67132 0.92265 0.0
H580 H 0.77276 0.69732 0.84271 0.0
H581 H 0.75497 0.68808 0.87236 0.0
H582 H 0.76106 0.67832 0.00174 0.0
C583 C 0.7157 0.67556 0.0392 0.0
C584 C 0.73164 0.67243 0.94041 0.0
C585 C 0.70581 0.68112 0.05841 0.0
C586 C 0.77394 0.69103 0.8678 0.0
C587 C 0.76372 0.68561 0.88464 0.0
C588 C 0.75299 0.67621 0.98436 0.0
C589 C 0.71948 0.67944 0.0003 0.0
C590 C 0.73103 0.6753 0.98215 0.0
C591 C 0.76469 0.67804 0.91902 0.0
C592 C 0.75354 0.67465 0.94173 0.0
H593 H 0.69891 0.70187 0.98486 0.0
H594 H 0.71579 0.69195 0.95079 0.0
H595 H 0.74161 0.6788 0.0366 0.0
H596 H 0.79536 0.67893 0.93051 0.0
H597 H 0.77735 0.66944 0.96049 0.0
C598 C 0.07393 0.95678 0.81047 0.0
C599 C 0.06701 0.96123 0.84317 0.0
C600 C 0.08007 0.96483 0.78472 0.0
C601 C 0.08822 0.99718 0.76726 0.0
H602 H 0.07161 0.9924 0.66436 0.0
C603 C 0.06992 0.03658 0.67361 0.0
C604 C 0.06576 0.03452 0.63377 0.0
C605 C 0.076 0.02743 0.69483 0.0
C606 C 0.07674 0.99389 0.69206 0.0
H607 H 0.06235 0.97728 0.8778 0.0
H608 H 0.07323 0.99125 0.83355 0.0
H609 H 0.07257 0.97604 0.71278 0.0
H610 H 0.06591 0.02204 0.58285 0.0
H611 H 0.07745 0.00646 0.61833 0.0
H612 H 0.09214 0.01517 0.74692 0.0
C613 C 0.07386 0.98163 0.82737 0.0
C614 C 0.07725 0.98439 0.72008 0.0
C615 C 0.06755 0.97363 0.85261 0.0
C616 C 0.06896 0.02377 0.61378 0.0
C617 C 0.07543 0.01478 0.63445 0.0
C618 C 0.08794 0.00665 0.73878 0.0
C619 C 0.07956 0.97739 0.79182 0.0
C620 C 0.08244 0.98613 0.75877 0.0
C621 C 0.07829 0.01613 0.67619 0.0
C622 C 0.08159 0.00536 0.70165 0.0
H623 H 0.07365 0.94726 0.80246 0.0
H624 H 0.08446 0.96132 0.7576 0.0
H625 H 0.09239 -0.00129 0.79678 0.0
H626 H 0.06745 0.04479 0.68974 0.0
H627 H 0.07793 0.02894 0.72684 0.0
C628 C 0.71804 0.32104 0.3825 0.0
C629 C 0.70791 0.31671 0.40361 0.0
C630 C 0.7273 0.32704 0.40344 0.0
C631 C 0.7375 0.33605 0.50985 0.0
H632 H 0.7679 0.32336 0.4696 0.0
C633 C 0.77463 0.31425 0.60549 0.0
C634 C 0.78674 0.31525 0.59309 0.0
C635 C 0.76555 0.32052 0.5848 0.0
C636 C 0.75957 0.32728 0.48097 0.0
H637 H 0.69901 0.31587 0.4623 0.0
H638 H 0.71537 0.32554 0.49948 0.0
H639 H 0.75041 0.32315 0.42571 0.0
H640 H 0.79901 0.32441 0.55179 0.0
H641 H 0.78303 0.33516 0.51471 0.0
H642 H 0.7467 0.33891 0.56688 0.0
C643 C 0.71615 0.32488 0.46662 0.0
C644 C 0.74944 0.32721 0.45561 0.0
C645 C 0.70671 0.31926 0.44534 0.0
C646 C 0.78974 0.32351 0.56206 0.0
C647 C 0.78061 0.32962 0.54077 0.0
C648 C 0.74763 0.33586 0.53557 0.0
C649 C 0.72688 0.32829 0.4463 0.0
C650 C 0.7381 0.33112 0.47014 0.0
C651 C 0.76839 0.32774 0.55082 0.0
C652 C 0.75864 0.33105 0.52177 0.0
H653 H 0.71911 0.3192 0.35018 0.0
H654 H 0.73512 0.32997 0.38625 0.0
H655 H 0.72907 0.3395 0.52192 0.0
H656 H 0.77208 0.30797 0.62943 0.0
H657 H 0.75622 0.31882 0.59307 0.0
C658 C 0.42503 0.97299 0.15985 0.0
C659 C 0.42474 0.96074 0.17141 0.0
C660 C 0.41853 0.98162 0.1819 0.0
C661 C 0.4129 0.98683 0.28649 0.0
H662 H 0.39846 0.01678 0.24875 0.0
C663 C 0.42027 0.02867 0.38197 0.0
C664 C 0.42386 0.0388 0.35918 0.0
C665 C 0.4138 0.01927 0.3634 0.0
C666 C 0.40253 0.00851 0.25995 0.0
H667 H 0.41672 0.94774 0.21287 0.0
H668 H 0.40564 0.96297 0.25254 0.0
H669 H 0.39911 -0.00079 0.20343 0.0
H670 H 0.42268 0.04763 0.30036 0.0
H671 H 0.4122 0.03106 0.26714 0.0
H672 H 0.41763 0.99617 0.34086 0.0
C673 C 0.41073 0.96582 0.22596 0.0
C674 C 0.40275 -0.0016 0.23405 0.0
C675 C 0.41703 0.95712 0.20323 0.0
C676 C 0.41993 0.03992 0.31865 0.0
C677 C 0.41385 0.03034 0.29962 0.0
C678 C 0.41296 0.99697 0.31195 0.0
C679 C 0.41184 0.9782 0.21649 0.0
C680 C 0.40839 0.98763 0.24654 0.0
C681 C 0.41131 0.01956 0.32114 0.0
C682 C 0.40829 0.00816 0.2984 0.0
H683 H 0.43089 0.97599 0.13536 0.0
H684 H 0.41966 0.9911 0.17412 0.0
H685 H 0.41744 0.97869 0.29682 0.0
H686 H 0.42313 0.02767 0.41346 0.0
H687 H 0.41154 0.01142 0.38165 0.0
C688 C 0.71735 0.81259 0.62081 0.0
C689 C 0.70531 0.81302 0.60707 0.0
C690 C 0.72648 0.81857 0.59934 0.0
C691 C 0.7328 0.82398 0.49386 0.0
H692 H 0.76311 0.83695 0.53419 0.0
C693 C 0.77427 0.81957 0.39367 0.0
C694 C 0.78462 0.81547 0.41407 0.0
C695 C 0.76486 0.825 0.41544 0.0
C696 C 0.75473 0.8333 0.52233 0.0
H697 H 0.69323 0.82111 0.5626 0.0
H698 H 0.70925 0.83143 0.5247 0.0
H699 H 0.74549 0.83627 0.57916 0.0
H700 H 0.79369 0.81438 0.47244 0.0
H701 H 0.77709 0.82315 0.51102 0.0
H702 H 0.74201 0.81989 0.43867 0.0
C703 C 0.71159 0.82643 0.55207 0.0
C704 C 0.74461 0.83303 0.54806 0.0
C705 C 0.70242 0.82057 0.5739 0.0
C706 C 0.78583 0.81764 0.45605 0.0
C707 C 0.77626 0.82272 0.47812 0.0
C708 C 0.74291 0.82405 0.46847 0.0
C709 C 0.72377 0.825 0.56343 0.0
C710 C 0.73365 0.828 0.53444 0.0
C711 C 0.76538 0.82593 0.45838 0.0
C712 C 0.75417 0.8283 0.48271 0.0
H713 H 0.71984 0.80693 0.64649 0.0
H714 H 0.73577 0.81725 0.6088 0.0
H715 H 0.72454 0.81988 0.4826 0.0
H716 H 0.77318 0.81796 0.36121 0.0
H717 H 0.75687 0.82776 0.39878 0.0
C718 C 0.41933 0.46019 0.81789 0.0
C719 C 0.42747 0.46367 0.84874 0.0
C720 C 0.41342 0.46899 0.79447 0.0
C721 C 0.41648 0.48891 0.73075 0.0
H722 H 0.40405 0.5202 0.76403 0.0
C723 C 0.42493 0.54115 0.68528 0.0
C724 C 0.428 0.53915 0.64431 0.0
C725 C 0.41908 0.53211 0.70772 0.0
C726 C 0.40757 0.51154 0.75408 0.0
H727 H 0.43469 0.47892 0.88258 0.0
H728 H 0.42418 0.49424 0.84245 0.0
H729 H 0.40422 0.50341 0.81262 0.0
H730 H 0.42616 0.52693 0.59307 0.0
H731 H 0.41495 0.5116 0.63089 0.0
H732 H 0.42112 0.49703 0.67417 0.0
C733 C 0.42243 0.48477 0.83598 0.0
C734 C 0.40752 0.50189 0.78189 0.0
C735 C 0.42851 0.476 0.85883 0.0
C736 C 0.42393 0.52861 0.6248 0.0
C737 C 0.41768 0.51975 0.6468 0.0
C738 C 0.41681 0.49858 0.70336 0.0
C739 C 0.41538 0.48138 0.80216 0.0
C740 C 0.41238 0.49061 0.77088 0.0
C741 C 0.41592 0.52098 0.68929 0.0
C742 C 0.41283 0.5102 0.71509 0.0
H743 H 0.41839 0.45075 0.80939 0.0
H744 H 0.40801 0.46615 0.76859 0.0
H745 H 0.42045 0.48036 0.72153 0.0
H746 H 0.42811 0.54919 0.70102 0.0
H747 H 0.41803 0.53353 0.74022 0.0
C748 C 0.70229 0.17889 0.95056 0.0
C749 C 0.7057 0.18425 0.91339 0.0
C750 C 0.71106 0.17391 0.97644 0.0
C751 C 0.74274 0.16401 0.98632 0.0
H752 H 0.7436 0.18479 0.08164 0.0
C753 C 0.78716 0.17743 0.06394 0.0
C754 C 0.78692 0.18305 0.10235 0.0
C755 C 0.77651 0.17288 0.04666 0.0
C756 C 0.74347 0.17854 0.05619 0.0
H757 H 0.72067 0.18757 0.87224 0.0
H758 H 0.7359 0.17849 0.91673 0.0
H759 H 0.72581 0.18451 0.03888 0.0
H760 H 0.77583 0.18707 0.15499 0.0
H761 H 0.75748 0.17815 0.12672 0.0
H762 H 0.76042 0.15803 0.00331 0.0
C763 C 0.72651 0.17826 0.92613 0.0
C764 C 0.7332 0.17845 0.03145 0.0
C765 C 0.71781 0.1835 0.90077 0.0
C766 C 0.77619 0.18284 0.12512 0.0
C767 C 0.76564 0.1779 0.10849 0.0
C768 C 0.75295 0.16383 0.01171 0.0
C769 C 0.7233 0.17393 0.96497 0.0
C770 C 0.73292 0.17158 -0.00456 0.0
C771 C 0.76544 0.17357 0.06794 0.0
C772 C 0.7537 0.17153 0.04605 0.0
H773 H 0.69303 0.17944 0.96114 0.0
H774 H 0.70839 0.17065 0.00631 0.0
H775 H 0.74271 0.15858 0.95874 0.0
H776 H 0.79531 0.17761 0.04559 0.0
H777 H 0.77689 0.16974 0.01538 0.0
C778 C 0.07153 0.47138 0.10887 0.0
C779 C 0.06868 0.46058 0.12928 0.0
C780 C 0.07722 0.48087 0.12969 0.0
C781 C 0.08772 0.49042 0.23529 0.0
H782 H 0.07076 0.51978 0.20496 0.0
C783 C 0.06452 0.5234 0.34438 0.0
C784 C 0.06432 0.53582 0.33511 0.0
C785 C 0.0709 0.51531 0.3197 0.0
C786 C 0.07583 0.51178 0.2135 0.0
H787 H 0.07045 0.45077 0.18614 0.0
H788 H 0.0796 0.4674 0.2232 0.0
H789 H 0.07151 0.5031 0.1575 0.0
H790 H 0.07137 0.54967 0.29464 0.0
H791 H 0.08223 0.53541 0.25054 0.0
H792 H 0.09081 0.49895 0.29337 0.0
C793 C 0.07793 0.46861 0.19089 0.0
C794 C 0.07633 0.50212 0.18606 0.0
C795 C 0.07263 0.45899 0.16962 0.0
C796 C 0.0714 0.54014 0.30256 0.0
C797 C 0.07758 0.532 0.27729 0.0
C798 C 0.08696 0.50003 0.26316 0.0
C799 C 0.07966 0.47995 0.17187 0.0
C800 C 0.08183 0.49107 0.19711 0.0
C801 C 0.07701 0.51947 0.28479 0.0
C802 C 0.08061 0.51062 0.25299 0.0
H803 H 0.06866 0.47277 0.07757 0.0
H804 H 0.07888 0.48922 0.11329 0.0
H805 H 0.09238 0.48226 0.24465 0.0
H806 H 0.05918 0.51985 0.3694 0.0
H807 H 0.0702 0.5057 0.32601 0.0
C808 C 0.28515 0.17616 0.46642 0.0
C809 C 0.28419 0.17869 0.42463 0.0
C810 C 0.27545 0.17093 0.48738 0.0
C811 C 0.24212 0.16964 0.47504 0.0
H812 H 0.24411 0.15804 0.58661 0.0
C813 C 0.2011 0.17322 0.57801 0.0
C814 C 0.2037 0.18155 0.60932 0.0
C815 C 0.21047 0.16722 0.5577 0.0
C816 C 0.2434 0.16109 0.55524 0.0
H817 H 0.27306 0.17665 0.3708 0.0
H818 H 0.25655 0.16648 0.40628 0.0
H819 H 0.26191 0.15698 0.5426 0.0
H820 H 0.21797 0.18899 0.64725 0.0
H821 H 0.23428 0.17836 0.61232 0.0
H822 H 0.22368 0.17386 0.48793 0.0
C823 C 0.26442 0.16912 0.42377 0.0
C824 C 0.25363 0.16062 0.53004 0.0
C825 C 0.27396 0.17476 0.40314 0.0
C826 C 0.2157 0.18269 0.62303 0.0
C827 C 0.22504 0.17655 0.60316 0.0
C828 C 0.23188 0.16982 0.49984 0.0
C829 C 0.26467 0.16789 0.46668 0.0
C830 C 0.2533 0.16547 0.49016 0.0
C831 C 0.22257 0.16929 0.56889 0.0
C832 C 0.23254 0.16606 0.5407 0.0
H833 H 0.29292 0.1793 0.48366 0.0
H834 H 0.27612 0.17028 0.52027 0.0
H835 H 0.24136 0.17367 0.44503 0.0
H836 H 0.19195 0.17213 0.56676 0.0
H837 H 0.20834 0.16162 0.53147 0.0
C838 C 0.57142 0.45358 0.32415 0.0
C839 C 0.56329 0.45667 0.35546 0.0
C840 C 0.57725 0.46266 0.30173 0.0
C841 C 0.58299 0.49569 0.29251 0.0
H842 H 0.5699 0.49151 0.18365 0.0
C843 C 0.56734 0.53576 0.19527 0.0
C844 C 0.56484 0.53401 0.15372 0.0
C845 C 0.57253 0.52645 0.21832 0.0
C846 C 0.57405 0.49287 0.21323 0.0
H847 H 0.5561 0.47152 0.39126 0.0
H848 H 0.56646 0.48732 0.35275 0.0
H849 H 0.57019 0.47458 0.23002 0.0
H850 H 0.56689 0.52186 0.10242 0.0
H851 H 0.57696 0.50601 0.14149 0.0
H852 H 0.58672 0.51406 0.27596 0.0
C853 C 0.56823 0.47793 0.34516 0.0
C854 C 0.57416 0.48305 0.24004 0.0
C855 C 0.56225 0.46888 0.36711 0.0
C856 C 0.56873 0.52336 0.13455 0.0
C857 C 0.57432 0.51421 0.15724 0.0
C858 C 0.58316 0.50549 0.2653 0.0
C859 C 0.57522 0.47494 0.3108 0.0
C860 C 0.57814 0.48448 0.28046 0.0
C861 C 0.57557 0.51528 0.19999 0.0
C862 C 0.57815 0.50438 0.22581 0.0
H863 H 0.5724 0.44425 0.31443 0.0
H864 H 0.58265 0.46012 0.2755 0.0
H865 H 0.58619 0.497 0.32349 0.0
H866 H 0.56426 0.54387 0.21074 0.0
H867 H 0.5732 0.52773 0.25101 0.0
C868 C 0.29005 0.8025 0.01742 0.0
C869 C 0.29549 0.79174 0.00354 0.0
C870 C 0.27923 0.80658 -0.00024 0.0
C871 C 0.25982 0.80312 0.90822 0.0
H872 H 0.23277 0.80644 0.9826 0.0
C873 C 0.21202 0.78866 0.86663 0.0
C874 C 0.20195 0.79455 0.88357 0.0
C875 C 0.22372 0.79235 0.87652 0.0
C876 C 0.24024 0.80587 0.9613 0.0
H877 H 0.29421 0.7772 0.95912 0.0
H878 H 0.2756 0.78438 0.92823 0.0
H879 H 0.25333 0.80572 0.00964 0.0
H880 H 0.19627 0.8094 0.92247 0.0
H881 H 0.21684 0.81584 0.94001 0.0
H882 H 0.24675 0.8027 0.86002 0.0
C883 C 0.27959 0.78965 0.95271 0.0
C884 C 0.25203 0.80545 0.97685 0.0
C885 C 0.2902 0.78547 0.97071 0.0
C886 C 0.20385 0.80468 0.9089 0.0
C887 C 0.21562 0.80831 0.91915 0.0
C888 C 0.24807 0.80359 0.89268 0.0
C889 C 0.27387 0.80013 0.96736 0.0
C890 C 0.26188 0.80353 0.95057 0.0
C891 C 0.22568 0.80199 0.90382 0.0
C892 C 0.23811 0.80441 0.91918 0.0
H893 H 0.29393 0.8075 0.04272 0.0
H894 H 0.27499 0.81469 0.01165 0.0
H895 H 0.26728 0.80183 0.88722 0.0
H896 H 0.21087 0.78086 0.84688 0.0
H897 H 0.23123 0.78716 0.86452 0.0
C898 C 0.92857 0.47328 0.65027 0.0
C899 C 0.92943 0.46104 0.66165 0.0
C900 C 0.92318 0.48169 0.67635 0.0
C901 C 0.92361 0.48663 0.78299 0.0
H902 H 0.90592 0.51596 0.75753 0.0
C903 C 0.93175 0.52826 0.88117 0.0
C904 C 0.93309 0.53913 0.85947 0.0
C905 C 0.92592 0.51835 0.86328 0.0
C906 C 0.91095 0.50787 0.76521 0.0
H907 H 0.92445 0.44779 0.7074 0.0
H908 H 0.91531 0.46262 0.75381 0.0
H909 H 0.90492 0.49867 0.71102 0.0
H910 H 0.92881 0.54848 0.80325 0.0
H911 H 0.91942 0.53108 0.7708 0.0
H912 H 0.93073 0.49594 0.83444 0.0
C913 C 0.91865 0.46564 0.72442 0.0
C914 C 0.91023 0.49791 0.73873 0.0
C915 C 0.92382 0.45716 0.69782 0.0
C916 C 0.92781 0.5402 0.82069 0.0
C917 C 0.92235 0.53016 0.80218 0.0
C918 C 0.92456 0.49663 0.80889 0.0
C919 C 0.91879 0.47805 0.71469 0.0
C920 C 0.91689 0.48735 0.74673 0.0
C921 C 0.92178 0.51891 0.82256 0.0
C922 C 0.91862 0.50758 0.79965 0.0
H923 H 0.93285 0.47648 0.62252 0.0
H924 H 0.92351 0.49119 0.66817 0.0
H925 H 0.92899 0.47868 0.78966 0.0
H926 H 0.93564 0.52728 0.91136 0.0
H927 H 0.92525 0.51006 0.88077 0.0
C928 C 0.14248 0.27535 0.98423 0.0
C929 C 0.14702 0.26735 0.01385 0.0
C930 C 0.13807 0.27083 0.94719 0.0
C931 C 0.13254 0.24255 0.88704 0.0
H932 H 0.15532 0.25745 0.81257 0.0
C933 C 0.15618 0.21604 0.75817 0.0
C934 C 0.16084 0.22247 0.72481 0.0
C935 C 0.15016 0.22223 0.78951 0.0
C936 C 0.14861 0.25328 0.83207 0.0
H937 H 0.1487 0.24847 0.03104 0.0
H938 H 0.14106 0.24061 0.96672 0.0
H939 H 0.15039 0.26753 0.87554 0.0
H940 H 0.16199 0.24 0.69553 0.0
H941 H 0.15088 0.25066 0.74845 0.0
H942 H 0.13111 0.22806 0.84375 0.0
C943 C 0.14096 0.25032 0.97155 0.0
C944 C 0.14575 0.25914 0.86844 0.0
C945 C 0.14545 0.25483 0.00835 0.0
C946 C 0.15872 0.23494 0.72167 0.0
C947 C 0.15239 0.24104 0.75211 0.0
C948 C 0.13527 0.23674 0.85015 0.0
C949 C 0.13806 0.25828 0.93956 0.0
C950 C 0.13808 0.25362 0.89709 0.0
C951 C 0.14842 0.23487 0.78726 0.0
C952 C 0.14372 0.24182 0.82293 0.0
H953 H 0.14348 0.28506 0.98784 0.0
H954 H 0.1357 0.27716 0.92319 0.0
H955 H 0.12656 0.23812 0.90855 0.0
H956 H 0.15767 0.20637 0.76085 0.0
H957 H 0.14737 0.21715 0.81618 0.0
C958 C 0.02178 0.94125 0.02177 0.0
C959 C 0.02761 0.93221 -0.00107 0.0
C960 C 0.01502 0.93825 0.0561 0.0
C961 C 0.00901 0.91648 0.13621 0.0
H962 H 0.97741 0.93174 0.13368 0.0
C963 C 0.97291 0.91566 0.26882 0.0
C964 C 0.97035 0.92759 0.28123 0.0
C965 C 0.97948 0.91353 0.23284 0.0
C966 C 0.98614 0.92729 0.13458 0.0
H967 H 0.03165 0.913 -0.00404 0.0
H968 H 0.01978 0.90775 0.05698 0.0
H969 H 0.99055 0.93305 0.07413 0.0
H970 H 0.9724 0.94658 0.26543 0.0
H971 H 0.98351 0.94285 0.20278 0.0
H972 H 0.00465 0.91121 0.19773 0.0
C973 C 0.02044 0.91714 0.0477 0.0
C974 C 0.99367 0.92808 0.10067 0.0
C975 C 0.02724 0.92016 0.01297 0.0
C976 C 0.97427 0.93728 0.25684 0.0
C977 C 0.98058 0.93516 0.22085 0.0
C978 C 0.0014 0.91568 0.17039 0.0
C979 C 0.01392 0.92614 0.06855 0.0
C980 C 0.00536 0.92315 0.10178 0.0
C981 C 0.98327 0.9233 0.20851 0.0
C982 C 0.99011 0.92151 0.17027 0.0
H983 H 0.02202 0.95064 0.01219 0.0
H984 H 0.01033 0.9454 0.07229 0.0
H985 H 0.01798 0.91258 0.13766 0.0
H986 H 0.97003 0.90802 0.28718 0.0
H987 H 0.98149 0.9043 0.22382 0.0
C988 C 0.33008 0.71952 0.46894 0.0
C989 C 0.32529 0.7269 0.49988 0.0
C990 C 0.33152 0.72408 0.42938 0.0
C991 C 0.33489 0.75182 0.36983 0.0
H992 H 0.31805 0.73442 0.28407 0.0
C993 C 0.3269 0.77251 0.20957 0.0
C994 C 0.3268 0.76456 0.17611 0.0
C995 C 0.32762 0.76795 0.24941 0.0
C996 C 0.32303 0.7393 0.30735 0.0
H997 H 0.31877 0.74495 0.51434 0.0
H998 H 0.32153 0.75292 0.44552 0.0
H999 H 0.31855 0.7261 0.35281 0.0
H1000 H 0.32799 0.74571 0.15775 0.0
H1001 H 0.32979 0.73784 0.22652 0.0
H1002 H 0.33957 0.76494 0.32443 0.0
C1003 C 0.32405 0.74362 0.45176 0.0
C1004 C 0.32326 0.73452 0.34675 0.0
C1005 C 0.32238 0.73902 0.49099 0.0
C1006 C 0.32781 0.75205 0.18303 0.0
C1007 C 0.32878 0.74753 0.22257 0.0
C1008 C 0.33485 0.75652 0.3302 0.0
C1009 C 0.32845 0.73614 0.42052 0.0
C1010 C 0.3291 0.74079 0.37834 0.0
C1011 C 0.32849 0.75538 0.25636 0.0
C1012 C 0.32883 0.75036 0.29849 0.0
H1013 H 0.3324 0.71016 0.47501 0.0
H1014 H 0.33496 0.71817 0.40564 0.0
H1015 H 0.33947 0.75679 0.39386 0.0
H1016 H 0.32613 0.7822 0.20501 0.0
H1017 H 0.32724 0.77427 0.27469 0.0
C1018 C 0.52136 0.08383 0.75987 0.0
C1019 C 0.51743 0.07403 0.78387 0.0
C1020 C 0.5145 0.08771 0.7264 0.0
C1021 C 0.48456 0.08421 0.67493 0.0
H1022 H 0.50365 0.08445 0.57566 0.0
C1023 C 0.47925 0.06624 0.50341 0.0
C1024 C 0.46847 0.07158 0.48962 0.0
C1025 C 0.48486 0.07034 0.53885 0.0
C1026 C 0.49819 0.08458 0.60315 0.0
H1027 H 0.50281 0.06119 0.79331 0.0
H1028 H 0.49099 0.06784 0.73509 0.0
H1029 H 0.51377 0.08518 0.64166 0.0
H1030 H 0.45515 0.0855 0.50215 0.0
H1031 H 0.46493 0.09252 0.56539 0.0
H1032 H 0.46901 0.08275 0.63607 0.0
C1033 C 0.4993 0.07261 0.74206 0.0
C1034 C 0.50399 0.08511 0.64099 0.0
C1035 C 0.50617 0.0687 0.77524 0.0
C1036 C 0.46345 0.0812 0.51209 0.0
C1037 C 0.46902 0.08521 0.54816 0.0
C1038 C 0.47876 0.08371 0.63698 0.0
C1039 C 0.50353 0.08193 0.71657 0.0
C1040 C 0.49726 0.08437 0.67731 0.0
C1041 C 0.47981 0.07982 0.56172 0.0
C1042 C 0.48557 0.08332 0.60084 0.0
H1043 H 0.52997 0.08817 0.76589 0.0
H1044 H 0.51795 0.09498 0.70748 0.0
H1045 H 0.47913 0.08381 0.70243 0.0
H1046 H 0.48341 0.05885 0.48677 0.0
H1047 H 0.49304 0.06585 0.54894 0.0
C1048 C 0.1514 0.78044 0.73762 0.0
C1049 C 0.1478 0.77489 0.77407 0.0
C1050 C 0.14684 0.77629 0.70033 0.0
C1051 C 0.13752 0.74699 0.66067 0.0
H1052 H 0.13901 0.76429 0.55782 0.0
C1053 C 0.14906 0.72203 0.51216 0.0
C1054 C 0.15922 0.72728 0.49339 0.0
C1055 C 0.14245 0.72855 0.54128 0.0
C1056 C 0.13841 0.75933 0.58629 0.0
H1057 H 0.13594 0.76159 0.80136 0.0
H1058 H 0.12757 0.75461 0.73635 0.0
H1059 H 0.13582 0.77553 0.6212 0.0
H1060 H 0.16993 0.74371 0.48837 0.0
H1061 H 0.15855 0.75493 0.539 0.0
H1062 H 0.14084 0.7309 0.62623 0.0
C1063 C 0.13406 0.76196 0.73616 0.0
C1064 C 0.1366 0.76576 0.62257 0.0
C1065 C 0.13876 0.766 0.77335 0.0
C1066 C 0.16224 0.73934 0.50263 0.0
C1067 C 0.1556 0.74586 0.53127 0.0
C1068 C 0.13926 0.74057 0.62445 0.0
C1069 C 0.13861 0.76653 0.69912 0.0
C1070 C 0.13682 0.75972 0.66038 0.0
C1071 C 0.14581 0.74046 0.55162 0.0
C1072 C 0.1404 0.74675 0.5872 0.0
H1073 H 0.15851 0.7872 0.73769 0.0
H1074 H 0.15065 0.77997 0.67252 0.0
H1075 H 0.13784 0.742 0.68912 0.0
H1076 H 0.14646 0.71278 0.50538 0.0
H1077 H 0.13493 0.72418 0.55648 0.0
C1078 C 0.46436 0.91828 0.00652 0.0
C1079 C 0.46477 0.93012 0.0224 0.0
C1080 C 0.47134 0.91518 0.97228 0.0
C1081 C 0.49917 0.92511 0.92141 0.0
H1082 H 0.48747 0.90882 0.82412 0.0
C1083 C 0.51871 0.93344 0.76427 0.0
C1084 C 0.52156 0.92361 0.7389 0.0
C1085 C 0.51278 0.93161 0.8012 0.0
C1086 C 0.49091 0.91312 0.85151 0.0
H1087 H 0.47205 0.94818 0.01305 0.0
H1088 H 0.48399 0.94283 0.95367 0.0
H1089 H 0.47422 0.9107 0.88406 0.0
H1090 H 0.52053 0.9041 0.73222 0.0
H1091 H 0.5097 0.90089 0.79717 0.0
H1092 H 0.51559 0.92812 0.88845 0.0
C1093 C 0.47858 0.93585 0.96812 0.0
C1094 C 0.48334 0.91423 0.88566 0.0
C1095 C 0.47166 0.93893 0.00201 0.0
C1096 C 0.51848 0.91182 0.75144 0.0
C1097 C 0.51226 0.90999 0.7883 0.0
C1098 C 0.50667 0.92405 0.88746 0.0
C1099 C 0.47882 0.92388 0.95369 0.0
C1100 C 0.48726 0.92068 0.92025 0.0
C1101 C 0.50938 0.91991 0.8134 0.0
C1102 C 0.50246 0.91846 0.8517 0.0
H1103 H 0.45913 0.9113 0.02163 0.0
H1104 H 0.4713 0.9059 0.9615 0.0
H1105 H 0.50253 0.92988 0.94807 0.0
H1106 H 0.52101 0.94262 0.75544 0.0
H1107 H 0.51055 0.93942 0.81981 0.0
C1108 C 0.33601 0.27579 0.01682 0.0
C1109 C 0.33542 0.26804 0.98289 0.0
C1110 C 0.33712 0.27093 0.0561 0.0
C1111 C 0.34288 0.24355 0.11747 0.0
H1112 H 0.31276 0.25183 0.17099 0.0
C1113 C 0.3227 0.21433 0.24787 0.0
C1114 C 0.31585 0.22025 0.27791 0.0
C1115 C 0.32687 0.22073 0.21367 0.0
C1116 C 0.32137 0.24957 0.15732 0.0
H1117 H 0.3369 0.24944 0.96239 0.0
H1118 H 0.33917 0.241 0.03083 0.0
H1119 H 0.31893 0.26286 0.11066 0.0
H1120 H 0.30845 0.23756 0.29679 0.0
H1121 H 0.31612 0.24873 0.23897 0.0
H1122 H 0.34536 0.23025 0.16431 0.0
C1123 C 0.33865 0.25074 0.02733 0.0
C1124 C 0.3249 0.25594 0.12263 0.0
C1125 C 0.33729 0.25556 0.98825 0.0
C1126 C 0.31345 0.23267 0.27362 0.0
C1127 C 0.31785 0.23909 0.24025 0.0
C1128 C 0.33948 0.23732 0.15289 0.0
C1129 C 0.33791 0.25832 0.06163 0.0
C1130 C 0.33556 0.25287 0.10203 0.0
C1131 C 0.32449 0.23322 0.20948 0.0
C1132 C 0.32857 0.24013 0.17292 0.0
H1133 H 0.33454 0.28543 0.01335 0.0
H1134 H 0.33654 0.27692 0.08225 0.0
H1135 H 0.3511 0.24098 0.10178 0.0
H1136 H 0.32474 0.20477 0.25063 0.0
H1137 H 0.3318 0.21584 0.19038 0.0
C1138 C 0.01552 0.05964 0.46834 0.0
C1139 C 0.02547 0.06581 0.48512 0.0
C1140 C 0.01003 0.06378 0.43277 0.0
C1141 C 0.01505 0.07942 0.33846 0.0
H1142 H 0.97998 0.07961 0.33566 0.0
C1143 C 0.97183 0.07957 0.21812 0.0
C1144 C 0.97591 0.0701 0.19298 0.0
C1145 C 0.97878 0.0834 0.2515 0.0
C1146 C 0.98977 0.07992 0.33589 0.0
H1147 H 0.03766 0.08103 0.477 0.0
H1148 H 0.02815 0.08809 0.41339 0.0
H1149 H 0.99043 0.07804 0.40091 0.0
H1150 H 0.99085 0.05786 0.18118 0.0
H1151 H 0.00284 0.06442 0.23916 0.0
H1152 H 0.01436 0.08063 0.27315 0.0
C1153 C 0.02457 0.08015 0.42858 0.0
C1154 C 0.99574 0.07891 0.37325 0.0
C1155 C 0.03 0.07609 0.4648 0.0
C1156 C 0.98738 0.06509 0.20025 0.0
C1157 C 0.99435 0.06896 0.23325 0.0
C1158 C 0.00906 0.08037 0.30095 0.0
C1159 C 0.0144 0.07411 0.41273 0.0
C1160 C 0.00841 0.0781 0.37468 0.0
C1161 C 0.98998 0.0779 0.25997 0.0
C1162 C -0.00366 0.08008 0.29921 0.0
H1163 H 0.01176 0.0517 0.48309 0.0
H1164 H 0.00236 0.05881 0.42071 0.0
H1165 H 0.02482 0.07883 0.33883 0.0
H1166 H 0.96305 0.08365 0.21312 0.0
H1167 H 0.97523 0.09036 0.27147 0.0
C1168 C 0.83338 0.72806 0.98007 0.0
C1169 C 0.82635 0.73302 0.94845 0.0
C1170 C 0.83539 0.73463 0.01603 0.0
C1171 C 0.8319 0.76497 0.065 0.0
H1172 H 0.82275 0.74602 0.1598 0.0
C1173 C 0.80743 0.77184 0.2292 0.0
C1174 C 0.81475 0.78033 0.24963 0.0
C1175 C 0.8111 0.76682 0.19224 0.0
C1176 C 0.82541 0.75142 0.13365 0.0
H1177 H 0.81677 0.74912 0.92844 0.0
H1178 H 0.82016 0.76044 0.99104 0.0
H1179 H 0.82624 0.73589 0.09489 0.0
H1180 H 0.83142 0.79065 0.24603 0.0
H1181 H 0.83776 0.78191 0.18043 0.0
H1182 H 0.83049 0.78058 0.10392 0.0
C1183 C 0.82417 0.75153 0.98817 0.0
C1184 C 0.82755 0.7456 0.09655 0.0
C1185 C 0.82212 0.74498 0.95237 0.0
C1186 C 0.82559 0.78412 0.23109 0.0
C1187 C 0.82923 0.77912 0.19366 0.0
C1188 C 0.82983 0.77079 0.10236 0.0
C1189 C 0.83047 0.74629 0.02094 0.0
C1190 C 0.83046 0.75233 0.06149 0.0
C1191 C 0.82215 0.7702 0.17452 0.0
C1192 C 0.82617 0.76409 0.13662 0.0
H1193 H 0.83685 0.71891 0.9779 0.0
H1194 H 0.84042 0.7304 0.04059 0.0
H1195 H 0.83424 0.77038 0.03857 0.0
H1196 H 0.79898 0.76877 0.2423 0.0
H1197 H 0.80534 0.76015 0.17766 0.0
C1198 C 0.96116 0.07225 0.96614 0.0
C1199 C 0.96524 0.06184 0.98677 0.0
C1200 C 0.96668 0.07592 0.9296 0.0
C1201 C 0.97646 0.07507 0.83963 0.0
H1202 H 0.01155 0.07465 0.83945 0.0
C1203 C 0.00501 0.06332 0.69996 0.0
C1204 C 0.01632 0.06886 0.69409 0.0
C1205 C -0.00206 0.06621 0.7338 0.0
C1206 C 0.00177 0.07509 0.83903 0.0
H1207 H 0.9781 0.04697 0.98445 0.0
H1208 H 0.98766 0.05343 0.92153 0.0
H1209 H 0.00064 0.07238 0.90366 0.0
H1210 H 0.02883 0.08223 0.71802 0.0
H1211 H 0.01649 0.08715 0.77797 0.0
H1212 H 0.97761 0.07715 0.77461 0.0
C1213 C 0.98029 0.0588 0.93367 0.0
C1214 C 0.99553 0.07368 0.87574 0.0
C1215 C 0.97471 0.05505 0.96959 0.0
C1216 C 0.02017 0.07778 0.72186 0.0
C1217 C 0.01313 0.08058 0.75613 0.0
C1218 C 0.98272 0.07637 0.80274 0.0
C1219 C 0.97647 0.06935 0.91367 0.0
C1220 C 0.98284 0.07322 0.87616 0.0
C1221 C 0.00204 0.07464 0.76281 0.0
C1222 C 0.99543 0.07596 0.80196 0.0
H1223 H 0.95388 0.07767 0.97859 0.0
H1224 H 0.96354 0.08406 0.91445 0.0
H1225 H 0.96667 0.07475 0.83922 0.0
H1226 H 0.00172 0.05649 0.6789 0.0
H1227 H 0.98953 0.06135 0.73831 0.0
C1228 C 0.66296 0.26708 0.4749 0.0
C1229 C 0.67422 0.26595 0.45529 0.0
C1230 C 0.65964 0.25898 0.50595 0.0
C1231 C 0.6683 0.22925 0.55205 0.0
H1232 H 0.65614 0.2432 0.65263 0.0
C1233 C 0.68143 0.21359 0.71161 0.0
C1234 C 0.67261 0.21283 0.74227 0.0
C1235 C 0.67836 0.21754 0.67253 0.0
C1236 C 0.65926 0.2391 0.62447 0.0
H1237 H 0.69071 0.2553 0.45264 0.0
H1238 H 0.68508 0.24153 0.5067 0.0
H1239 H 0.65679 0.25552 0.59073 0.0
H1240 H 0.65361 0.21518 0.75607 0.0
H1241 H 0.64828 0.22259 0.6875 0.0
H1242 H 0.67165 0.21314 0.58678 0.0
C1243 C 0.67866 0.24844 0.49778 0.0
C1244 C 0.65963 0.24615 0.58897 0.0
C1245 C 0.68195 0.25647 0.46695 0.0
C1246 C 0.66054 0.2156 0.73274 0.0
C1247 C 0.65751 0.21987 0.69374 0.0
C1248 C 0.66807 0.22228 0.5876 0.0
C1249 C 0.66749 0.24959 0.51784 0.0
C1250 C 0.66465 0.24146 0.5528 0.0
C1251 C 0.66646 0.22108 0.66358 0.0
C1252 C 0.66397 0.22729 0.62444 0.0
H1253 H 0.65678 0.27426 0.46654 0.0
H1254 H 0.65095 0.26009 0.52071 0.0
H1255 H 0.67192 0.22525 0.52442 0.0
H1256 H 0.6908 0.21151 0.7183 0.0
H1257 H 0.68546 0.21851 0.64997 0.0
C1258 C 0.46331 0.9127 0.26043 0.0
C1259 C 0.46942 0.91985 0.23157 0.0
C1260 C 0.46931 0.90868 0.29556 0.0
C1261 C 0.49916 0.9041 0.34323 0.0
H1262 H 0.48423 0.91715 0.44078 0.0
C1263 C 0.52642 0.91585 0.48802 0.0
C1264 C 0.52037 0.91657 0.52549 0.0
C1265 C 0.52007 0.91268 0.45257 0.0
C1266 C 0.48846 0.91308 0.41431 0.0
H1267 H 0.48674 0.92766 0.21515 0.0
H1268 H 0.49724 0.92044 0.27593 0.0
H1269 H 0.47319 0.91734 0.37688 0.0
H1270 H 0.50339 0.91363 0.55664 0.0
H1271 H 0.49248 0.90728 0.49564 0.0
H1272 H 0.5145 0.89991 0.38047 0.0
C1273 C 0.48783 0.91802 0.27167 0.0
C1274 C 0.48209 0.91326 0.37754 0.0
C1275 C 0.48179 0.92225 0.2371 0.0
C1276 C 0.50817 0.91323 0.52778 0.0
C1277 C 0.50192 0.90972 0.49271 0.0
C1278 C 0.50548 0.90371 0.38025 0.0
C1279 C 0.48157 0.91151 0.30178 0.0
C1280 C 0.48751 0.90911 0.34147 0.0
C1281 C 0.50762 0.90992 0.45428 0.0
C1282 C 0.50036 0.90855 0.4161 0.0
H1283 H 0.45377 0.91074 0.25688 0.0
H1284 H 0.46431 0.90367 0.31844 0.0
H1285 H 0.5035 0.9008 0.31574 0.0
H1286 H 0.53583 0.91849 0.48571 0.0
H1287 H 0.52479 0.91308 0.42366 0.0
C1288 C 0.83031 0.23573 0.21849 0.0
C1289 C 0.8277 0.2233 0.21938 0.0
C1290 C 0.83365 0.24181 0.25408 0.0
C1291 C 0.84116 0.23733 0.36496 0.0
H1292 H 0.82657 0.26916 0.37403 0.0
C1293 C 0.82469 0.2596 0.51374 0.0
C1294 C 0.82699 0.27199 0.51976 0.0
C1295 C 0.82832 0.25387 0.47782 0.0
C1296 C 0.83091 0.2604 0.37173 0.0
H1297 H 0.82694 0.20731 0.25744 0.0
H1298 H 0.83203 0.21802 0.32047 0.0
H1299 H 0.82603 0.25862 0.30914 0.0
H1300 H 0.83531 0.28802 0.49384 0.0
H1301 H 0.84132 0.27803 0.42999 0.0
H1302 H 0.84512 0.23892 0.42896 0.0
C1303 C 0.83195 0.22307 0.29214 0.0
C1304 C 0.83066 0.25431 0.3344 0.0
C1305 C 0.82894 0.21691 0.25613 0.0
C1306 C 0.83344 0.27845 0.48992 0.0
C1307 C 0.83685 0.27276 0.45349 0.0
C1308 C 0.84119 0.24336 0.40258 0.0
C1309 C 0.83406 0.23568 0.29174 0.0
C1310 C 0.83559 0.2426 0.33058 0.0
C1311 C 0.83412 0.26047 0.44691 0.0
C1312 C 0.83588 0.25485 0.40636 0.0
H1313 H 0.82961 0.2408 0.19023 0.0
H1314 H 0.83561 0.25141 0.25211 0.0
H1315 H 0.84527 0.22846 0.36312 0.0
H1316 H 0.81982 0.25438 0.53642 0.0
H1317 H 0.826 0.24442 0.4733 0.0
C1318 C 0.47784 0.05713 0.25633 0.0
C1319 C 0.47253 0.06709 0.27605 0.0
C1320 C 0.48454 0.0587 0.22079 0.0
C1321 C 0.50321 0.07931 0.16313 0.0
H1322 H 0.49588 0.05713 0.07454 0.0
C1323 C 0.52829 0.07625 0.0044 0.0
C1324 C 0.53026 0.06431 0.99095 0.0
C1325 C 0.52177 0.07842 0.04045 0.0
C1326 C 0.49807 0.06337 0.09904 0.0
H1327 H 0.47024 0.0866 0.27417 0.0
H1328 H 0.48224 0.08937 0.21153 0.0
H1329 H 0.48269 0.0579 0.13389 0.0
H1330 H 0.52808 0.04534 0.00643 0.0
H1331 H 0.51702 0.0491 0.06924 0.0
H1332 H 0.51888 0.08448 0.1283 0.0
C1333 C 0.48108 0.08035 0.22392 0.0
C1334 C 0.49049 0.06385 0.13286 0.0
C1335 C 0.47418 0.07875 0.2595 0.0
C1336 C 0.52654 0.05464 0.01575 0.0
C1337 C 0.52014 0.05679 0.05157 0.0
C1338 C 0.51088 0.07882 0.12902 0.0
C1339 C 0.4862 0.07029 0.20411 0.0
C1340 C 0.49318 0.07152 0.1658 0.0
C1341 C 0.51721 0.06866 0.06334 0.0
C1342 C 0.50857 0.07052 0.09735 0.0
H1343 H 0.47677 0.04803 0.26815 0.0
H1344 H 0.48851 0.05081 0.20637 0.0
H1345 H 0.50546 0.0853 0.18825 0.0
H1346 H 0.53105 0.08387 0.98573 0.0
H1347 H 0.51969 0.08766 0.04903 0.0
C1348 C 0.65211 0.74293 0.02014 0.0
C1349 C 0.65112 0.73034 0.02523 0.0
C1350 C 0.64725 0.74856 0.98579 0.0
C1351 C 0.64358 0.73993 0.88006 0.0
H1352 H 0.63966 0.77468 0.8685 0.0
C1353 C 0.65264 0.77889 0.74937 0.0
C1354 C 0.66454 0.7753 0.74005 0.0
C1355 C 0.64636 0.77345 0.78179 0.0
C1356 C 0.64047 0.76493 0.87097 0.0
H1357 H 0.64287 0.71399 0.00129 0.0
H1358 H 0.63423 0.72387 0.94112 0.0
H1359 H 0.6346 0.7649 0.93333 0.0
H1360 H 0.67922 0.76339 0.7582 0.0
H1361 H 0.66835 0.75403 0.81402 0.0
H1362 H 0.65 0.74004 0.81848 0.0
C1363 C 0.63902 0.72936 0.96331 0.0
C1364 C 0.63766 0.75933 0.90814 0.0
C1365 C 0.64391 0.7237 -0.00213 0.0
C1366 C 0.67007 0.76637 0.76426 0.0
C1367 C 0.66379 0.76089 0.79606 0.0
C1368 C 0.64633 0.74551 0.84303 0.0
C1369 C 0.64127 0.74172 0.95567 0.0
C1370 C 0.63994 0.74688 0.91389 0.0
C1371 C 0.65183 0.76422 0.80482 0.0
C1372 C 0.64553 0.75814 0.83902 0.0
H1373 H 0.65744 0.74834 0.04115 0.0
H1374 H 0.64923 0.75807 0.98117 0.0
H1375 H 0.64547 0.73035 0.88307 0.0
H1376 H 0.64813 0.78574 0.73127 0.0
H1377 H 0.63718 0.77625 0.78829 0.0
C1378 C 0.96291 0.91688 0.52018 0.0
C1379 C 0.96796 0.92608 0.49586 0.0
C1380 C 0.96866 0.91325 0.55638 0.0
C1381 C 0.97893 0.91563 0.64406 0.0
H1382 H 0.01395 0.91376 0.64721 0.0
C1383 C 0.007 0.93091 0.78082 0.0
C1384 C 0.01799 0.92518 0.79013 0.0
C1385 C 0.00011 0.92718 0.74743 0.0
C1386 C 0.00416 0.91397 0.64696 0.0
H1387 H 0.98315 0.93844 0.48988 0.0
H1388 H 0.99307 0.93213 0.55232 0.0
H1389 H 0.00353 0.91399 0.58162 0.0
H1390 H 0.03012 0.91063 0.77274 0.0
H1391 H 0.01807 0.90416 0.71384 0.0
H1392 H 0.9796 0.91612 0.70946 0.0
C1393 C 0.98473 0.92767 0.54357 0.0
C1394 C -0.0018 0.91421 0.60937 0.0
C1395 C 0.97895 0.93138 0.50796 0.0
C1396 C 0.02171 0.91527 0.76623 0.0
C1397 C 0.01483 0.91158 0.7325 0.0
C1398 C 0.9849 0.91542 0.68174 0.0
C1399 C 0.97965 0.91862 0.56829 0.0
C1400 C 0.98558 0.91556 0.60755 0.0
C1401 C 0.00406 0.91765 0.72236 0.0
C1402 C -0.0024 0.9151 0.68351 0.0
H1403 H 0.95446 0.91261 0.51157 0.0
H1404 H 0.96454 0.90627 0.57502 0.0
H1405 H 0.9692 0.91667 0.64356 0.0
H1406 H 0.00382 0.93852 0.79876 0.0
H1407 H 0.99196 0.93218 0.74016 0.0
C1408 C 0.66612 0.7684 0.50067 0.0
C1409 C 0.67326 0.7645 0.53364 0.0
C1410 C 0.66515 0.76129 0.46537 0.0
C1411 C 0.6612 0.74226 0.39874 0.0
H1412 H 0.69166 0.72866 0.3623 0.0
C1413 C 0.66597 0.71547 0.24696 0.0
C1414 C 0.67573 0.71922 0.22252 0.0
C1415 C 0.66508 0.71934 0.28759 0.0
C1416 C 0.68307 0.73237 0.37208 0.0
H1417 H 0.68431 0.74975 0.5566 0.0
H1418 H 0.68244 0.73733 0.49565 0.0
H1419 H 0.69061 0.73881 0.42804 0.0
H1420 H 0.69241 0.7296 0.22196 0.0
H1421 H 0.69085 0.73629 0.29235 0.0
H1422 H 0.65385 0.73623 0.34162 0.0
C1423 C 0.67786 0.746 0.49645 0.0
C1424 C 0.68243 0.73809 0.40999 0.0
C1425 C 0.6789 0.75311 0.53146 0.0
C1426 C 0.68476 0.72655 0.23989 0.0
C1427 C 0.68391 0.73034 0.28038 0.0
C1428 C 0.66185 0.73652 0.36068 0.0
C1429 C 0.67125 0.75013 0.46257 0.0
C1430 C 0.67153 0.74326 0.42355 0.0
C1431 C 0.67399 0.72691 0.30455 0.0
C1432 C 0.67286 0.73172 0.34667 0.0
H1433 H 0.66166 0.77713 0.50148 0.0
H1434 H 0.66007 0.76478 0.43968 0.0
H1435 H 0.65265 0.74605 0.40852 0.0
H1436 H 0.65885 0.70984 0.2344 0.0
H1437 H 0.65738 0.71649 0.30565 0.0
C1438 C 0.48322 0.42573 0.77455 0.0
C1439 C 0.47082 0.42356 0.78009 0.0
C1440 C 0.48899 0.42212 0.73869 0.0
C1441 C 0.48287 0.42006 0.63246 0.0
H1442 H 0.51391 0.40396 0.62392 0.0
C1443 C 0.50738 0.41906 0.47905 0.0
C1444 C 0.51994 0.42068 0.47964 0.0
C1445 C 0.50115 0.41629 0.51484 0.0
C1446 C 0.5053 0.40858 0.62575 0.0
H1447 H 0.45479 0.41551 0.75331 0.0
H1448 H 0.46484 0.40955 0.68957 0.0
H1449 H 0.50344 0.40459 0.68966 0.0
H1450 H 0.53599 0.42034 0.51738 0.0
H1451 H 0.52507 0.41629 0.58078 0.0
H1452 H 0.48496 0.42497 0.57005 0.0
C1453 C 0.47009 0.41389 0.71343 0.0
C1454 C 0.49927 0.40881 0.66331 0.0
C1455 C 0.46436 0.41727 0.74979 0.0
C1456 C 0.52628 0.41909 0.51633 0.0
C1457 C 0.51999 0.41668 0.55255 0.0
C1458 C 0.48898 0.42007 0.59524 0.0
C1459 C 0.4824 0.41647 0.70738 0.0
C1460 C 0.48808 0.41469 0.667 0.0
C1461 C 0.50729 0.41551 0.55242 0.0
C1462 C 0.50037 0.41447 0.59139 0.0
H1463 H 0.48842 0.4305 0.79759 0.0
H1464 H 0.49846 0.42431 0.73454 0.0
H1465 H 0.47434 0.42484 0.63476 0.0
H1466 H 0.50234 0.42005 0.45084 0.0
H1467 H 0.49146 0.41503 0.51304 0.0
C1468 C 0.81487 0.26559 0.74819 0.0
C1469 C 0.82198 0.27471 0.73029 0.0
C1470 C 0.81933 0.2587 0.78032 0.0
C1471 C 0.83908 0.25755 0.86638 0.0
H1472 H 0.83364 0.22299 0.85416 0.0
C1473 C 0.83968 0.22337 0.00215 0.0
C1474 C 0.82793 0.21867 0.006 0.0
C1475 C 0.84316 0.22927 0.96608 0.0
C1476 C 0.83548 0.23257 0.85778 0.0
H1477 H 0.83917 0.28416 0.73374 0.0
H1478 H 0.84689 0.27211 0.79142 0.0
H1479 H 0.83182 0.23626 0.79488 0.0
H1480 H 0.81084 0.21579 0.9752 0.0
H1481 H 0.81701 0.22561 0.91196 0.0
H1482 H 0.84188 0.25389 0.9301 0.0
C1483 C 0.83792 0.27029 0.77962 0.0
C1484 C 0.8344 0.24016 0.824 0.0
C1485 C 0.83348 0.27719 0.74686 0.0
C1486 C 0.81995 0.21934 0.97282 0.0
C1487 C 0.82351 0.2249 0.93666 0.0
C1488 C 0.84019 0.24992 0.90036 0.0
C1489 C 0.83098 0.26076 0.79571 0.0
C1490 C 0.83553 0.25277 0.82848 0.0
C1491 C 0.83502 0.23016 0.93323 0.0
C1492 C 0.83775 0.23746 0.89659 0.0
H1493 H 0.80593 0.26349 0.73663 0.0
H1494 H 0.81367 0.2516 0.79294 0.0
H1495 H 0.83998 0.26725 0.87051 0.0
H1496 H 0.84592 0.22302 0.02765 0.0
H1497 H 0.85205 0.23333 0.96408 0.0
C1498 C 0.01969 0.58051 0.26187 0.0
C1499 C 0.01522 0.57395 0.29528 0.0
C1500 C 0.01188 0.58425 0.23074 0.0
C1501 C 0.98204 0.57592 0.18725 0.0
H1502 H 0.9899 0.60187 0.11205 0.0
C1503 C 0.97909 0.58061 0.00937 0.0
C1504 C 0.96681 0.57867 0.00093 0.0
C1505 C 0.9828 0.58397 0.04841 0.0
C1506 C 0.98747 0.59473 0.13323 0.0
H1507 H -0.00095 0.56702 0.32434 0.0
H1508 H 0.98533 0.5741 0.2714 0.0
H1509 H 0.00049 0.60054 0.1774 0.0
H1510 H 0.94868 0.57911 0.02568 0.0
H1511 H 0.95529 0.58448 0.09531 0.0
H1512 H 0.96916 0.57005 0.1426 0.0
C1513 C 0.99489 0.57589 0.26792 0.0
C1514 C 0.99363 0.59386 0.17042 0.0
C1515 C 0.00274 0.57188 0.29844 0.0
C1516 C 0.9582 0.58063 0.03166 0.0
C1517 C 0.96196 0.58369 0.07125 0.0
C1518 C 0.97573 0.57695 0.15048 0.0
C1519 C -0.00061 0.58175 0.2329 0.0
C1520 C 0.99136 0.58413 0.19717 0.0
C1521 C 0.97433 0.58515 0.08 0.0
C1522 C 0.97873 0.58607 0.12249 0.0
H1523 H 0.02929 0.5822 0.25875 0.0
H1524 H 0.01577 0.58857 0.20414 0.0
H1525 H 0.98009 0.56819 0.20648 0.0
H1526 H 0.98587 0.57916 0.98598 0.0
H1527 H 0.99239 0.58488 0.0545 0.0
C1528 C 0.66661 0.28387 0.22786 0.0
C1529 C 0.67684 0.27897 0.24733 0.0
C1530 C 0.66261 0.27913 0.19042 0.0
C1531 C 0.66298 0.27078 0.09843 0.0
H1532 H 0.66144 0.2357 0.09236 0.0
C1533 C 0.67295 0.2433 0.95403 0.0
C1534 C 0.66739 0.23197 0.94822 0.0
C1535 C 0.6702 0.25036 0.98815 0.0
C1536 C 0.66154 0.24551 0.09351 0.0
H1537 H 0.69101 0.26542 0.24228 0.0
H1538 H 0.68397 0.25719 0.17783 0.0
H1539 H 0.66429 0.24552 0.1582 0.0
H1540 H 0.65383 0.21964 0.97194 0.0
H1541 H 0.64903 0.23199 0.03168 0.0
H1542 H 0.66081 0.27071 0.0333 0.0
C1543 C 0.67901 0.26462 0.19148 0.0
C1544 C 0.66328 0.25112 0.13121 0.0
C1545 C 0.68308 0.26942 0.22831 0.0
C1546 C 0.65836 0.22827 0.97571 0.0
C1547 C 0.65563 0.23533 0.00999 0.0
C1548 C 0.66132 0.26515 0.06049 0.0
C1549 C 0.66867 0.26931 0.17242 0.0
C1550 C 0.66446 0.26376 0.13382 0.0
C1551 C 0.66183 0.24625 0.0173 0.0
C1552 C 0.66099 0.25242 0.05752 0.0
H1553 H 0.66162 0.29123 0.24174 0.0
H1554 H 0.65464 0.28292 0.17607 0.0
H1555 H 0.66386 0.28055 0.09974 0.0
H1556 H 0.67987 0.24649 0.93322 0.0
H1557 H 0.67522 0.25867 -0.00701 0.0
C1558 C 0.96938 0.44238 0.47099 0.0
C1559 C 0.96499 0.43281 0.49498 0.0
C1560 C 0.97576 0.44006 0.43527 0.0
C1561 C 0.98362 0.41814 0.35607 0.0
H1562 H 0.01299 0.43739 0.35268 0.0
C1563 C 0.02008 0.41822 0.22425 0.0
C1564 C 0.02163 0.42999 0.20857 0.0
C1565 C 0.01336 0.41635 0.26007 0.0
C1566 C 0.00488 0.43187 0.35339 0.0
H1567 H 0.96302 0.4133 0.49881 0.0
H1568 H 0.97433 0.4092 0.43563 0.0
H1569 H 5e-05 0.43825 0.41271 0.0
H1570 H 0.01743 0.44899 0.21825 0.0
H1571 H 0.00604 0.44575 0.28058 0.0
H1572 H 0.98846 0.41207 0.29577 0.0
C1573 C 0.97279 0.4185 0.44484 0.0
C1574 C -0.00256 0.43241 0.38756 0.0
C1575 C 0.9663 0.42084 0.48081 0.0
C1576 C 0.0164 0.43981 0.22938 0.0
C1577 C 0.00991 0.43797 0.26519 0.0
C1578 C 0.99115 0.41757 0.32163 0.0
C1579 C 0.978 0.4281 0.42277 0.0
C1580 C 0.98651 0.42593 0.38864 0.0
C1581 C 0.00835 0.42627 0.28097 0.0
C1582 C 0.00161 0.42479 0.31958 0.0
H1583 H 0.96835 0.4517 0.48082 0.0
H1584 H 0.97939 0.44765 0.41821 0.0
H1585 H 0.97527 0.413 0.35631 0.0
H1586 H 0.02396 0.41048 0.20872 0.0
H1587 H 0.01225 0.40725 0.27181 0.0
C1588 C 0.83891 0.71954 0.73272 0.0
C1589 C 0.82699 0.71548 0.7381 0.0
C1590 C 0.84275 0.72361 0.69431 0.0
C1591 C 0.83523 0.72408 0.58456 0.0
H1592 H 0.84125 0.75867 0.58959 0.0
C1593 C 0.81726 0.75621 0.46446 0.0
C1594 C 0.82331 0.76702 0.45462 0.0
C1595 C 0.82179 0.74848 0.49434 0.0
C1596 C 0.83995 0.74897 0.58734 0.0
H1597 H 0.81001 0.71163 0.70792 0.0
H1598 H 0.81682 0.71824 0.64067 0.0
H1599 H 0.84247 0.74656 0.65173 0.0
H1600 H 0.83913 0.77799 0.46766 0.0
H1601 H 0.8471 0.76438 0.52034 0.0
H1602 H 0.83219 0.72652 0.52059 0.0
C1603 C 0.82319 0.7184 0.66585 0.0
C1604 C 0.84065 0.74203 0.623 0.0
C1605 C 0.81926 0.71467 0.70427 0.0
C1606 C 0.83423 0.76975 0.47468 0.0
C1607 C 0.83878 0.76197 0.50485 0.0
C1608 C 0.83467 0.73097 0.54887 0.0
C1609 C 0.8348 0.72332 0.66079 0.0
C1610 C 0.83768 0.72966 0.6222 0.0
C1611 C 0.83253 0.7513 0.51528 0.0
C1612 C 0.83634 0.74361 0.55028 0.0
H1613 H 0.84494 0.72036 0.75866 0.0
H1614 H 0.85173 0.72743 0.69111 0.0
H1615 H 0.83302 0.71453 0.58318 0.0
H1616 H 0.80885 0.75377 0.4496 0.0
H1617 H 0.81658 0.7405 0.50211 0.0
C1618 C 0.519 0.55787 0.97311 0.0
C1619 C 0.52863 0.56432 0.9909 0.0
C1620 C 0.51379 0.56178 0.93677 0.0
C1621 C 0.51865 0.57761 0.84275 0.0
H1622 H 0.4836 0.579 0.84147 0.0
C1623 C 0.47523 0.58176 0.7241 0.0
C1624 C 0.47863 0.57248 0.69704 0.0
C1625 C 0.48244 0.5845 0.75805 0.0
C1626 C 0.49339 0.57894 0.84133 0.0
H1627 H 0.54065 0.57971 0.98338 0.0
H1628 H 0.53162 0.58638 0.9185 0.0
H1629 H 0.49423 0.57647 0.90611 0.0
H1630 H 0.49265 0.55941 0.68267 0.0
H1631 H 0.50512 0.56414 0.74164 0.0
H1632 H 0.51776 0.57944 0.77759 0.0
C1633 C 0.52808 0.57839 0.93351 0.0
C1634 C 0.49946 0.57739 0.8783 0.0
C1635 C 0.53324 0.57455 0.97047 0.0
C1636 C 0.48971 0.56652 0.70319 0.0
C1637 C 0.49694 0.56934 0.73676 0.0
C1638 C 0.51256 0.57907 0.80559 0.0
C1639 C 0.51813 0.57217 0.91697 0.0
C1640 C 0.5121 0.57626 0.87914 0.0
C1641 C 0.49324 0.57811 0.76518 0.0
C1642 C 0.49984 0.57931 0.80442 0.0
H1643 H 0.51522 0.54993 0.9878 0.0
H1644 H 0.50628 0.5567 0.92417 0.0
H1645 H 0.52841 0.57677 0.84271 0.0
H1646 H 0.46678 0.58655 0.72003 0.0
H1647 H 0.4794 0.59135 0.77939 0.0
C1648 C 0.33708 0.22257 0.48954 0.0
C1649 C 0.32488 0.22454 0.47947 0.0
C1650 C 0.34283 0.22984 0.51878 0.0
C1651 C 0.33883 0.25844 0.57854 0.0
H1652 H 0.3549 0.24063 0.66483 0.0
C1653 C 0.33554 0.25726 0.75782 0.0
C1654 C 0.33571 0.26962 0.76788 0.0
C1655 C 0.33973 0.25331 0.72012 0.0
C1656 C 0.35059 0.2458 0.64075 0.0
H1657 H 0.30922 0.2358 0.49184 0.0
H1658 H 0.31903 0.24814 0.54306 0.0
H1659 H 0.35106 0.23078 0.59962 0.0
H1660 H 0.34117 0.28749 0.74754 0.0
H1661 H 0.3484 0.28054 0.68054 0.0
H1662 H 0.33722 0.27302 0.62108 0.0
C1663 C 0.32432 0.24122 0.52784 0.0
C1664 C 0.34848 0.24018 0.6032 0.0
C1665 C 0.31861 0.23401 0.49879 0.0
C1666 C 0.34086 0.27791 0.74035 0.0
C1667 C 0.34499 0.27393 0.70211 0.0
C1668 C 0.34081 0.26401 0.61625 0.0
C1669 C 0.33648 0.23923 0.53837 0.0
C1670 C 0.34188 0.24619 0.57265 0.0
C1671 C 0.34417 0.26161 0.69127 0.0
C1672 C 0.34599 0.25745 0.64859 0.0
H1673 H 0.34218 0.21539 0.47494 0.0
H1674 H 0.3522 0.22808 0.52623 0.0
H1675 H 0.33406 0.26343 0.55506 0.0
H1676 H 0.33179 0.25063 0.77864 0.0
H1677 H 0.33875 0.24379 0.71274 0.0
C1678 C 0.46311 0.57933 0.46899 0.0
C1679 C 0.46736 0.56887 0.48896 0.0
C1680 C 0.46846 0.58319 0.43237 0.0
C1681 C 0.47772 0.582 0.34148 0.0
H1682 H 0.5128 0.58187 0.33931 0.0
C1683 C 0.50554 0.56744 0.20388 0.0
C1684 C 0.51705 0.57242 0.19691 0.0
C1685 C 0.49853 0.57135 0.23667 0.0
C1686 C 0.50301 0.58227 0.33936 0.0
H1687 H 0.4804 0.55418 0.4857 0.0
H1688 H 0.48967 0.56097 0.4227 0.0
H1689 H 0.50225 0.5804 0.40437 0.0
H1690 H 0.52992 0.58597 0.21732 0.0
H1691 H 0.51766 0.59272 0.27529 0.0
H1692 H 0.4785 0.58316 0.27615 0.0
C1693 C 0.48229 0.56622 0.43534 0.0
C1694 C 0.49698 0.58133 0.37661 0.0
C1695 C 0.47688 0.56228 0.47129 0.0
C1696 C 0.52112 0.5819 0.2221 0.0
C1697 C 0.51411 0.58576 0.25525 0.0
C1698 C 0.48376 0.58286 0.30406 0.0
C1699 C 0.47825 0.57676 0.4158 0.0
C1700 C 0.48431 0.58065 0.37781 0.0
C1701 C 0.50288 0.58029 0.26346 0.0
C1702 C 0.49648 0.58248 0.30256 0.0
H1703 H 0.45578 0.58459 0.48186 0.0
H1704 H 0.46515 0.5913 0.41753 0.0
H1705 H 0.46794 0.5815 0.34172 0.0
H1706 H 0.50208 0.5602 0.18476 0.0
H1707 H 0.49 0.56683 0.24239 0.0
C1708 C 0.16849 0.71311 0.26478 0.0
C1709 C 0.17465 0.72009 0.29402 0.0
C1710 C 0.16532 0.71817 0.22696 0.0
C1711 C 0.17264 0.7447 0.16083 0.0
H1712 H 0.14297 0.73603 0.10479 0.0
C1713 C 0.1569 0.77105 0.02113 0.0
C1714 C 0.15713 0.76371 0.98613 0.0
C1715 C 0.15665 0.76577 0.0599 0.0
C1716 C 0.15123 0.73855 0.12043 0.0
H1717 H 0.1819 0.73796 0.30726 0.0
H1718 H 0.17599 0.74682 0.24304 0.0
H1719 H 0.14795 0.72633 0.17006 0.0
H1720 H 0.15604 0.74523 0.96382 0.0
H1721 H 0.1553 0.73604 0.0317 0.0
H1722 H 0.17576 0.75709 0.11178 0.0
C1723 C 0.17403 0.73732 0.24797 0.0
C1724 C 0.15417 0.73293 0.15748 0.0
C1725 C 0.1774 0.73223 0.28508 0.0
C1726 C 0.15597 0.75108 0.9904 0.0
C1727 C 0.15547 0.74583 0.02912 0.0
C1728 C 0.16957 0.75048 0.1245 0.0
C1729 C 0.16808 0.73037 0.21815 0.0
C1730 C 0.16492 0.73597 0.17818 0.0
C1731 C 0.15635 0.7531 0.0641 0.0
C1732 C 0.15886 0.74747 0.10403 0.0
H1733 H 0.16621 0.70374 0.27099 0.0
H1734 H 0.16084 0.7125 0.20459 0.0
H1735 H 0.18118 0.74704 0.17503 0.0
H1736 H 0.15781 0.7808 0.01869 0.0
H1737 H 0.15731 0.77153 0.08663 0.0
C1738 C 0.97287 0.41255 0.72612 0.0
C1739 C 0.97704 0.42215 0.70164 0.0
C1740 C 0.97967 0.40864 0.75971 0.0
C1741 C 0.99026 0.41148 0.84494 0.0
H1742 H 0.02526 0.41344 0.84984 0.0
C1743 C 0.01502 0.43136 0.98069 0.0
C1744 C 0.02577 0.42612 -0.00489 0.0
C1745 C 0.00942 0.42697 0.94562 0.0
C1746 C 0.0155 0.41259 0.84898 0.0
H1747 H 0.99199 0.43452 0.69133 0.0
H1748 H 0.00369 0.42783 0.7497 0.0
H1749 H 0.01516 0.4119 0.78358 0.0
H1750 H 0.03908 0.41208 0.98399 0.0
H1751 H 0.02933 0.40454 0.9214 0.0
H1752 H 0.99058 0.41271 0.91017 0.0
C1753 C 0.99525 0.42324 0.74308 0.0
C1754 C 0.00971 0.41182 0.81106 0.0
C1755 C 0.98846 0.42719 0.70981 0.0
C1756 C 0.03081 0.41632 0.97355 0.0
C1757 C 0.02524 0.412 0.93786 0.0
C1758 C 0.99604 0.41227 0.88275 0.0
C1759 C 0.9908 0.41417 0.76915 0.0
C1760 C -0.00299 0.41183 0.8086 0.0
C1761 C 0.01445 0.41727 0.92374 0.0
C1762 C 0.00868 0.41341 0.88501 0.0
H1763 H 0.96414 0.40844 0.72045 0.0
H1764 H 0.97605 0.40156 0.77907 0.0
H1765 H 0.98047 0.41154 0.84422 0.0
H1766 H 0.01084 0.43888 -0.00341 0.0
H1767 H 0.00125 0.43138 0.93505 0.0
C1768 C 0.35831 0.78006 0.95661 0.0
C1769 C 0.35462 0.77059 0.98235 0.0
C1770 C 0.36407 0.77742 0.9196 0.0
C1771 C 0.37329 0.75142 0.85201 0.0
H1772 H 0.34931 0.7658 0.78084 0.0
C1773 C 0.34735 0.72434 0.73147 0.0
C1774 C 0.34159 0.73051 0.69955 0.0
C1775 C 0.35454 0.73074 0.75938 0.0
C1776 C 0.35637 0.76182 0.79938 0.0
H1777 H 0.35589 0.7513 -0.00639 0.0
H1778 H 0.3657 0.74668 0.92947 0.0
H1779 H 0.35396 0.77538 0.84473 0.0
H1780 H 0.33976 0.74774 0.66862 0.0
H1781 H 0.35276 0.75877 0.71566 0.0
H1782 H 0.37506 0.73739 0.80714 0.0
C1783 C 0.36418 0.75611 0.93701 0.0
C1784 C 0.3591 0.76741 0.83637 0.0
C1785 C 0.35841 0.75874 0.97376 0.0
C1786 C 0.34389 0.74288 0.69378 0.0
C1787 C 0.35133 0.74919 0.72078 0.0
C1788 C 0.3706 0.74583 0.81469 0.0
C1789 C 0.36616 0.7653 0.90808 0.0
C1790 C 0.36701 0.76189 0.86427 0.0
C1791 C 0.35629 0.74335 0.75507 0.0
C1792 C 0.36158 0.75061 0.78902 0.0
H1793 H 0.35562 0.78932 0.96283 0.0
H1794 H 0.36576 0.78474 0.89829 0.0
H1795 H 0.3796 0.74705 0.87258 0.0
H1796 H 0.34575 0.71476 0.73619 0.0
H1797 H 0.35809 0.72592 0.78554 0.0
C1798 C 0.97426 0.58503 0.7611 0.0
C1799 C 0.9789 0.57734 0.79149 0.0
C1800 C 0.98107 0.58756 0.72606 0.0
C1801 C 0.01173 0.58478 0.67983 0.0
H1802 H 0.99403 0.57608 0.58184 0.0
C1803 C 0.03248 0.57816 0.5156 0.0
C1804 C 0.02924 0.56689 0.49866 0.0
C1805 C 0.02709 0.58218 0.55195 0.0
C1806 C -0.00094 0.57869 0.60888 0.0
H1807 H 0.99464 0.56705 0.81052 0.0
H1808 H 0.00641 0.57142 0.74974 0.0
H1809 H 0.98309 0.57933 0.64546 0.0
H1810 H 0.01827 0.55076 0.50784 0.0
H1811 H 0.00892 0.55782 0.57044 0.0
H1812 H 0.02778 0.58349 0.64317 0.0
C1813 C -0.00244 0.57552 0.75276 0.0
C1814 C 0.9928 0.58066 0.64522 0.0
C1815 C 0.99074 0.57289 0.78742 0.0
C1816 C 0.02093 0.55953 0.5197 0.0
C1817 C 0.01549 0.56359 0.55546 0.0
C1818 C 0.018 0.5829 0.64325 0.0
C1819 C 0.99268 0.58258 0.72115 0.0
C1820 C -0.0009 0.58326 0.68144 0.0
C1821 C 0.01829 0.57504 0.57141 0.0
C1822 C 0.01173 0.57937 0.60793 0.0
H1823 H 0.96518 0.58863 0.7635 0.0
H1824 H 0.97711 0.59309 0.70223 0.0
H1825 H 0.0168 0.58688 0.70726 0.0
H1826 H 0.03885 0.58403 0.50015 0.0
H1827 H 0.02945 0.59101 0.56399 0.0
C1828 C 0.17864 0.26169 0.22698 0.0
C1829 C 0.17189 0.27157 0.21247 0.0
C1830 C 0.17638 0.25683 0.26542 0.0
C1831 C 0.16389 0.24331 0.33318 0.0
H1832 H 0.16284 0.26292 0.43138 0.0
C1833 C 0.16012 0.22157 0.49271 0.0
C1834 C 0.16892 0.22579 0.52025 0.0
C1835 C 0.15783 0.22789 0.45644 0.0
C1836 C 0.16302 0.25734 0.40414 0.0
H1837 H 0.15781 0.28446 0.22785 0.0
H1838 H 0.15395 0.27597 0.29585 0.0
H1839 H 0.16443 0.27277 0.36464 0.0
H1840 H 0.18184 0.2402 0.53215 0.0
H1841 H 0.17794 0.25105 0.46915 0.0
H1842 H 0.16306 0.22788 0.37245 0.0
C1843 C 0.16094 0.27198 0.27698 0.0
C1844 C 0.16385 0.26298 0.36602 0.0
C1845 C 0.16317 0.27685 0.23817 0.0
C1846 C 0.17506 0.23664 0.51149 0.0
C1847 C 0.17272 0.24296 0.47554 0.0
C1848 C 0.16302 0.23768 0.37118 0.0
C1849 C 0.16733 0.26174 0.29045 0.0
C1850 C 0.1647 0.25599 0.33031 0.0
C1851 C 0.16422 0.23858 0.44733 0.0
C1852 C 0.16296 0.24462 0.40713 0.0
H1853 H 0.18551 0.25746 0.20821 0.0
H1854 H 0.18166 0.24912 0.27547 0.0
H1855 H 0.16433 0.23772 0.30601 0.0
H1856 H 0.1552 0.21327 0.49871 0.0
H1857 H 0.15118 0.22434 0.43528 0.0
C1858 C 0.52382 0.42675 0.23229 0.0
C1859 C 0.52377 0.41872 0.26542 0.0
C1860 C 0.51793 0.42374 0.19614 0.0
C1861 C 0.49154 0.40889 0.16002 0.0
H1862 H 0.50523 0.41718 0.05463 0.0
C1863 C 0.4644 0.41706 0.00703 0.0
C1864 C 0.46726 0.4285 0.99056 0.0
C1865 C 0.47112 0.41237 0.03979 0.0
C1866 C 0.50131 0.41465 0.08373 0.0
H1867 H 0.51783 0.40115 0.28693 0.0
H1868 H 0.50699 0.39599 0.22332 0.0
H1869 H 0.51856 0.41432 0.11326 0.0
H1870 H 0.47897 0.4442 -0.0029 0.0
H1871 H 0.49057 0.43602 0.05344 0.0
H1872 H 0.47419 0.41008 0.13073 0.0
C1873 C 0.51183 0.40451 0.22537 0.0
C1874 C 0.50892 0.41298 0.11716 0.0
C1875 C 0.51804 0.40742 0.26148 0.0
C1876 C 0.47657 0.43532 0.00862 0.0
C1877 C 0.4833 0.43061 0.04076 0.0
C1878 C 0.48388 0.41056 0.12638 0.0
C1879 C 0.51164 0.41273 0.1926 0.0
C1880 C 0.50407 0.41072 0.156 0.0
C1881 C 0.48085 0.419 0.05601 0.0
C1882 C 0.48871 0.41408 0.08853 0.0
H1883 H 0.52818 0.43552 0.23474 0.0
H1884 H 0.51779 0.43032 0.17158 0.0
H1885 H 0.48759 0.40721 0.18976 0.0
H1886 H 0.45727 0.41159 -0.00619 0.0
H1887 H 0.46901 0.40343 0.05144 0.0
C1888 C 0.13638 0.32823 0.05393 0.0
C1889 C 0.14304 0.32316 0.08626 0.0
C1890 C 0.12806 0.33749 0.06122 0.0
C1891 C 0.11969 0.36139 0.13436 0.0
H1892 H 0.08832 0.35905 0.08193 0.0
C1893 C 0.08094 0.39516 0.16905 0.0
C1894 C 0.07393 0.39902 0.13564 0.0
C1895 C 0.08925 0.38569 0.16464 0.0
C1896 C 0.09708 0.35994 0.09646 0.0
H1897 H 0.14636 0.32405 0.15154 0.0
H1898 H 0.13183 0.34028 0.16419 0.0
H1899 H 0.10329 0.34325 0.0707 0.0
H1900 H 0.07019 0.39592 0.07137 0.0
H1901 H 0.08476 0.37964 0.06354 0.0
H1902 H 0.11354 0.37819 0.15963 0.0
C1903 C 0.13309 0.33708 0.1332 0.0
C1904 C 0.10565 0.35086 0.09004 0.0
C1905 C 0.14137 0.32775 0.12595 0.0
C1906 C 0.07538 0.39315 0.09784 0.0
C1907 C 0.0837 0.38374 0.09339 0.0
C1908 C 0.11112 0.37053 0.1406 0.0
C1909 C 0.12624 0.34195 0.10096 0.0
C1910 C 0.11708 0.35152 0.10868 0.0
C1911 C 0.09076 0.37989 0.12669 0.0
C1912 C 0.09973 0.36996 0.12148 0.0
H1913 H 0.13746 0.32494 0.02297 0.0
H1914 H 0.12305 0.34118 0.03566 0.0
H1915 H 0.12845 0.3622 0.14887 0.0
H1916 H 0.08002 0.39947 0.19862 0.0
H1917 H 0.09441 0.38286 0.19107 0.0
C1918 C 0.85021 0.82765 0.35667 0.0
C1919 C 0.84792 0.82249 0.39519 0.0
C1920 C 0.85918 0.83645 0.3519 0.0
C1921 C 0.8868 0.84881 0.3997 0.0
H1922 H 0.87973 0.87702 0.33329 0.0
C1923 C 0.91794 0.8909 0.39577 0.0
C1924 C 0.91948 0.89688 0.35821 0.0
C1925 C 0.90954 0.8815 0.39971 0.0
C1926 C 0.88192 0.86912 0.35147 0.0
H1927 H 0.85339 0.82248 0.45886 0.0
H1928 H 0.86904 0.8379 0.45051 0.0
H1929 H 0.86448 0.86127 0.34146 0.0
H1930 H 0.91354 0.89749 0.29507 0.0
H1931 H 0.89902 0.88098 0.30176 0.0
H1932 H 0.90426 0.85665 0.40966 0.0
C1933 C 0.86393 0.83505 0.42395 0.0
C1934 C 0.87317 0.8601 0.3562 0.0
C1935 C 0.85491 0.82626 0.42876 0.0
C1936 C 0.91255 0.89312 0.3245 0.0
C1937 C 0.90416 0.8837 0.32841 0.0
C1938 C 0.89558 0.85782 0.39486 0.0
C1939 C 0.86612 0.8403 0.38549 0.0
C1940 C 0.87549 0.84985 0.38041 0.0
C1941 C 0.90248 0.87783 0.36615 0.0
C1942 C 0.89325 0.8681 0.37073 0.0
H1943 H 0.84503 0.82493 0.3301 0.0
H1944 H 0.86075 0.84019 0.32177 0.0
H1945 H 0.88893 0.84094 0.4181 0.0
H1946 H 0.92311 0.89358 0.42241 0.0
H1947 H 0.90839 0.8773 0.42934 0.0
C1948 C 0.35472 0.67002 0.61887 0.0
C1949 C 0.35642 0.67855 0.58749 0.0
C1950 C 0.36271 0.66033 0.62363 0.0
C1951 C 0.39369 0.65045 0.59717 0.0
H1952 H 0.38167 0.61883 0.6291 0.0
C1953 C 0.42368 0.60759 0.59849 0.0
C1954 C 0.42227 0.59953 0.6314 0.0
C1955 C 0.41578 0.61735 0.59347 0.0
C1956 C 0.38518 0.62764 0.62063 0.0
H1957 H 0.36774 0.68343 0.53599 0.0
H1958 H 0.38156 0.66637 0.54377 0.0
H1959 H 0.36749 0.6354 0.61837 0.0
H1960 H 0.41156 0.59552 0.68523 0.0
H1961 H 0.39781 0.61261 0.67656 0.0
H1962 H 0.41138 0.64263 0.59915 0.0
C1963 C 0.37417 0.66732 0.56524 0.0
C1964 C 0.37705 0.63715 0.61446 0.0
C1965 C 0.36621 0.67706 0.5606 0.0
C1966 C 0.41288 0.60154 0.65949 0.0
C1967 C 0.40495 0.61128 0.65438 0.0
C1968 C 0.40181 0.64093 0.60318 0.0
C1969 C 0.37256 0.65888 0.59699 0.0
C1970 C 0.3812 0.64869 0.60275 0.0
C1971 C 0.40627 0.61926 0.62118 0.0
C1972 C 0.39766 0.62942 0.61506 0.0
H1973 H 0.34731 0.67093 0.64028 0.0
H1974 H 0.36128 0.65412 0.64878 0.0
H1975 H 0.39723 0.65927 0.58886 0.0
H1976 H 0.43081 0.6063 0.57624 0.0
H1977 H 0.41697 0.62325 0.56735 0.0
C1978 C 0.64789 0.16025 0.82102 0.0
C1979 C 0.64809 0.16932 0.85117 0.0
C1980 C 0.63894 0.15133 0.82116 0.0
C1981 C 0.60843 0.14433 0.86129 0.0
H1982 H 0.61718 0.11146 0.83169 0.0
C1983 C 0.57547 0.10357 0.87504 0.0
C1984 C 0.57538 0.09532 0.84228 0.0
C1985 C 0.58417 0.11277 0.87698 0.0
C1986 C 0.61457 0.12062 0.83967 0.0
H1987 H 0.63901 0.17611 0.90523 0.0
H1988 H 0.62346 0.16038 0.90588 0.0
H1989 H 0.63272 0.12708 0.83434 0.0
H1990 H 0.58429 0.09034 0.78568 0.0
H1991 H 0.59943 0.10636 0.78911 0.0
H1992 H 0.59026 0.13776 0.86687 0.0
C1993 C 0.63014 0.16029 0.88174 0.0
C1994 C 0.62347 0.12958 0.84115 0.0
C1995 C 0.6391 0.16926 0.88151 0.0
C1996 C 0.58411 0.09653 0.81138 0.0
C1997 C 0.59284 0.10566 0.81346 0.0
C1998 C 0.59952 0.13532 0.86001 0.0
C1999 C 0.62997 0.15119 0.85159 0.0
C2000 C 0.62051 0.14158 0.85161 0.0
C2001 C 0.59301 0.11385 0.84636 0.0
C2002 C 0.60248 0.12339 0.84883 0.0
H2003 H 0.65463 0.16006 0.79703 0.0
H2004 H 0.63897 0.14462 0.79703 0.0
H2005 H 0.60579 0.15349 0.86898 0.0
H2006 H 0.56887 0.1029 0.89935 0.0
H2007 H 0.58412 0.11888 0.90287 0.0
C2008 C 0.07189 0.60571 0.37797 0.0
C2009 C 0.07568 0.59517 0.35756 0.0
C2010 C 0.07963 0.61568 0.38152 0.0
C2011 C 0.11175 0.62388 0.38199 0.0
H2012 H 0.10011 0.65647 0.36221 0.0
C2013 C 0.14393 0.6651 0.38213 0.0
C2014 C 0.13965 0.67599 0.39899 0.0
C2015 C 0.13612 0.65531 0.37598 0.0
C2016 C 0.10348 0.64745 0.3684 0.0
H2017 H 0.09054 0.58687 0.32464 0.0
H2018 H 0.10406 0.60426 0.33114 0.0
H2019 H 0.08644 0.63931 0.35353 0.0
H2020 H 0.1238 0.6851 0.42295 0.0
H2021 H 0.11025 0.66794 0.41326 0.0
H2022 H 0.1287 0.63196 0.3977 0.0
C2023 C 0.09512 0.60478 0.34447 0.0
C2024 C 0.09564 0.63762 0.36328 0.0
C2025 C 0.08734 0.59485 0.34057 0.0
C2026 C 0.12738 0.67686 0.40968 0.0
C2027 C 0.11958 0.66703 0.40386 0.0
C2028 C 0.11956 0.63371 0.38747 0.0
C2029 C 0.09136 0.61529 0.36509 0.0
C2030 C 0.0997 0.62573 0.37002 0.0
C2031 C 0.12384 0.65612 0.38687 0.0
C2032 C 0.11553 0.64564 0.38075 0.0
H2033 H 0.06296 0.60626 0.39139 0.0
H2034 H 0.07652 0.62362 0.39788 0.0
H2035 H 0.11509 0.61483 0.38796 0.0
H2036 H 0.15332 0.66416 0.3733 0.0
H2037 H 0.13969 0.64714 0.3622 0.0
C2038 C 0.63669 0.82245 0.61386 0.0
C2039 C 0.64601 0.82291 0.58469 0.0
C2040 C 0.62764 0.83127 0.61444 0.0
C2041 C 0.62151 0.86265 0.58132 0.0
H2042 H 0.58824 0.85431 0.60583 0.0
C2043 C 0.58278 0.89748 0.57005 0.0
C2044 C 0.57403 0.89739 0.60119 0.0
C2045 C 0.5914 0.88828 0.56746 0.0
C2046 C 0.59751 0.8568 0.59936 0.0
H2047 H 0.65293 0.83288 0.53261 0.0
H2048 H 0.63705 0.84819 0.5333 0.0
H2049 H 0.60341 0.83834 0.60117 0.0
H2050 H 0.5675 0.88752 0.65407 0.0
H2051 H 0.58263 0.87148 0.64967 0.0
H2052 H 0.61563 0.88111 0.57953 0.0
C2053 C 0.63685 0.8411 0.55616 0.0
C2054 C 0.60621 0.84764 0.59666 0.0
C2055 C 0.64592 0.83228 0.5556 0.0
C2056 C 0.5741 0.88786 0.62968 0.0
C2057 C 0.58273 0.87863 0.62701 0.0
C2058 C 0.61282 0.87179 0.58394 0.0
C2059 C 0.62767 0.84077 0.58584 0.0
C2060 C 0.61833 0.85046 0.58769 0.0
C2061 C 0.59149 0.87874 0.59589 0.0
C2062 C 0.60072 0.86898 0.59307 0.0
H2063 H 0.63648 0.81538 0.63679 0.0
H2064 H 0.62079 0.83081 0.63802 0.0
H2065 H 0.63079 0.86517 0.57509 0.0
H2066 H 0.58296 0.90466 0.54751 0.0
H2067 H 0.59793 0.88856 0.54281 0.0
C2068 C 0.41078 0.39673 0.82364 0.0
C2069 C 0.41699 0.40151 0.85749 0.0
C2070 C 0.40234 0.38741 0.82872 0.0
C2071 C 0.38281 0.37284 0.90593 0.0
H2072 H 0.38299 0.34574 0.83056 0.0
C2073 C 0.35557 0.32893 0.93529 0.0
C2074 C 0.35007 0.32332 0.9015 0.0
C2075 C 0.36341 0.33876 0.9298 0.0
C2076 C 0.3827 0.35331 0.85158 0.0
H2077 H 0.41916 0.40028 0.92328 0.0
H2078 H 0.40449 0.38401 0.93203 0.0
H2079 H 0.39721 0.36237 0.82089 0.0
H2080 H 0.34829 0.3238 0.83547 0.0
H2081 H 0.36178 0.341 0.82601 0.0
H2082 H 0.3683 0.3638 0.93661 0.0
C2083 C 0.40606 0.38753 0.90162 0.0
C2084 C 0.39086 0.36284 0.84603 0.0
C2085 C 0.41453 0.39681 0.89654 0.0
C2086 C 0.35244 0.32786 0.86218 0.0
C2087 C 0.36023 0.33769 0.85671 0.0
C2088 C 0.37462 0.36333 0.91142 0.0
C2089 C 0.39989 0.3827 0.86777 0.0
C2090 C 0.39104 0.3727 0.87322 0.0
C2091 C 0.36589 0.3432 0.89041 0.0
C2092 C 0.37449 0.35342 0.88436 0.0
H2093 H 0.41245 0.40016 0.79316 0.0
H2094 H 0.39764 0.38396 0.80209 0.0
H2095 H 0.38261 0.38039 0.92708 0.0
H2096 H 0.35397 0.32565 0.96599 0.0
H2097 H 0.36772 0.3427 0.9564 0.0
C2098 C 0.85401 0.1624 0.06287 0.0
C2099 C 0.84923 0.16837 0.09718 0.0
C2100 C 0.86283 0.15344 0.06749 0.0
C2101 C 0.87546 0.13192 0.14231 0.0
H2102 H 0.90294 0.13142 0.06887 0.0
C2103 C 0.91587 0.09949 0.16632 0.0
C2104 C 0.92081 0.09403 0.13131 0.0
C2105 C 0.90732 0.10875 0.16272 0.0
C2106 C 0.89526 0.13134 0.08936 0.0
H2107 H 0.84995 0.16955 0.16332 0.0
H2108 H 0.86534 0.15393 0.17132 0.0
H2109 H 0.88758 0.14708 0.06133 0.0
H2110 H 0.9206 0.09403 0.06501 0.0
H2111 H 0.90559 0.11002 0.05876 0.0
H2112 H 0.88306 0.11612 0.17011 0.0
C2113 C 0.8622 0.15613 0.14086 0.0
C2114 C 0.88646 0.14033 0.08504 0.0
C2115 C 0.85342 0.16513 0.13624 0.0
C2116 C 0.91703 0.09807 0.09263 0.0
C2117 C 0.90846 0.1073 0.08904 0.0
C2118 C 0.88424 0.12291 0.14655 0.0
C2119 C 0.86703 0.1502 0.10654 0.0
C2120 C 0.87644 0.1407 0.1114 0.0
C2121 C 0.90348 0.11275 0.12402 0.0
C2122 C 0.89424 0.12248 0.12005 0.0
H2123 H 0.85097 0.16466 0.03235 0.0
H2124 H 0.86626 0.14894 0.04047 0.0
H2125 H 0.86777 0.13187 0.16278 0.0
H2126 H 0.91862 0.09662 0.19658 0.0
H2127 H 0.9038 0.11286 0.1903 0.0
C2128 C 0.84424 0.66053 0.8236 0.0
C2129 C 0.84443 0.67017 0.85168 0.0
C2130 C 0.85326 0.65169 0.82416 0.0
C2131 C 0.88461 0.64637 0.85846 0.0
H2132 H 0.87651 0.61264 0.83938 0.0
C2133 C 0.91944 0.60766 0.87603 0.0
C2134 C 0.91915 0.59829 0.84688 0.0
C2135 C 0.9104 0.6165 0.8768 0.0
C2136 C 0.87894 0.62204 0.84429 0.0
H2137 H 0.85419 0.67797 0.90284 0.0
H2138 H 0.8699 0.66244 0.9041 0.0
H2139 H 0.86048 0.62776 0.84162 0.0
H2140 H 0.9092 0.591 0.7953 0.0
H2141 H 0.89349 0.60648 0.79644 0.0
H2142 H 0.90308 0.64062 0.86112 0.0
C2143 C 0.86284 0.66183 0.88126 0.0
C2144 C 0.86975 0.63071 0.84562 0.0
C2145 C 0.85379 0.67068 0.88071 0.0
C2146 C 0.90968 0.59806 0.81823 0.0
C2147 C 0.90063 0.60689 0.81905 0.0
C2148 C 0.8938 0.63769 0.85717 0.0
C2149 C 0.86271 0.65226 0.85284 0.0
C2150 C 0.87247 0.64299 0.85257 0.0
C2151 C 0.90085 0.61618 0.84848 0.0
C2152 C 0.89108 0.62543 0.84993 0.0
H2153 H 0.83718 0.65987 0.80074 0.0
H2154 H 0.85297 0.64455 0.80148 0.0
H2155 H 0.88704 0.65577 0.86324 0.0
H2156 H 0.92659 0.6081 0.89862 0.0
H2157 H 0.91078 0.62345 0.90013 0.0
C2158 C 0.1363 0.16609 0.55365 0.0
C2159 C 0.14101 0.17191 0.58839 0.0
C2160 C 0.12727 0.15727 0.55755 0.0
C2161 C 0.10396 0.14588 0.62954 0.0
H2162 H 0.10571 0.11675 0.5636 0.0
C2163 C 0.07465 0.10345 0.6612 0.0
C2164 C 0.06967 0.09749 0.62714 0.0
C2165 C 0.08301 0.11284 0.65598 0.0
C2166 C 0.10502 0.12489 0.58192 0.0
H2167 H 0.1399 0.17302 0.65452 0.0
H2168 H 0.12435 0.15759 0.66129 0.0
H2169 H 0.12089 0.13257 0.55495 0.0
H2170 H 0.0695 0.09684 0.56083 0.0
H2171 H 0.08403 0.1132 0.55185 0.0
H2172 H 0.08816 0.13811 0.65683 0.0
C2173 C 0.12746 0.15995 0.63095 0.0
C2174 C 0.11371 0.13398 0.57691 0.0
C2175 C 0.13645 0.16876 0.62706 0.0
C2176 C 0.07317 0.1012 0.58777 0.0
C2177 C 0.08156 0.11054 0.58258 0.0
C2178 C 0.0953 0.13678 0.63464 0.0
C2179 C 0.12276 0.15408 0.59629 0.0
C2180 C 0.11331 0.14457 0.60076 0.0
C2181 C 0.08662 0.11643 0.6166 0.0
C2182 C 0.09575 0.12617 0.61096 0.0
H2183 H 0.13958 0.16833 0.52341 0.0
H2184 H 0.12374 0.15303 0.53017 0.0
H2185 H 0.10326 0.15401 0.64794 0.0
H2186 H 0.07215 0.10081 0.69193 0.0
H2187 H 0.08684 0.11712 0.68282 0.0
C2188 C 0.57597 0.39002 0.39746 0.0
C2189 C 0.57285 0.39402 0.35806 0.0
C2190 C 0.58473 0.38104 0.40286 0.0
C2191 C 0.6104 0.3663 0.34992 0.0
H2192 H 0.60632 0.34155 0.43289 0.0
C2193 C 0.6415 0.32462 0.35903 0.0
C2194 C 0.64576 0.32126 0.39791 0.0
C2195 C 0.63242 0.33331 0.35491 0.0
C2196 C 0.60764 0.34847 0.40985 0.0
H2197 H 0.57639 0.3916 0.2934 0.0
H2198 H 0.5915 0.37581 0.30275 0.0
H2199 H 0.5908 0.35704 0.42401 0.0
H2200 H 0.64361 0.32425 0.463 0.0
H2201 H 0.62769 0.33945 0.45573 0.0
H2202 H 0.62718 0.35767 0.33555 0.0
C2203 C 0.58735 0.37977 0.32957 0.0
C2204 C 0.59875 0.35736 0.40478 0.0
C2205 C 0.57862 0.38878 0.32418 0.0
C2206 C 0.64054 0.32664 0.43262 0.0
C2207 C 0.63139 0.3353 0.42848 0.0
C2208 C 0.61924 0.35739 0.35487 0.0
C2209 C 0.59056 0.37582 0.36898 0.0
C2210 C 0.60001 0.36637 0.37466 0.0
C2211 C 0.62733 0.33883 0.38953 0.0
C2212 C 0.61795 0.34835 0.3848 0.0
H2213 H 0.57172 0.3939 0.42425 0.0
H2214 H 0.58708 0.37834 0.43366 0.0
H2215 H 0.6118 0.37323 0.32699 0.0
H2216 H 0.64528 0.32064 0.33162 0.0
H2217 H 0.62936 0.33569 0.32451 0.0
C2218 C 0.35368 0.83066 0.04139 0.0
C2219 C 0.34819 0.8234 0.07137 0.0
C2220 C 0.36091 0.84052 0.05251 0.0
C2221 C 0.37911 0.85216 0.13865 0.0
H2222 H 0.37968 0.88158 0.07395 0.0
C2223 C 0.40851 0.89383 0.18138 0.0
C2224 C 0.41487 0.89928 0.14907 0.0
C2225 C 0.39974 0.88497 0.17355 0.0
C2226 C 0.37967 0.87339 0.09216 0.0
H2227 H 0.3457 0.82104 0.13663 0.0
H2228 H 0.35816 0.83836 0.15602 0.0
H2229 H 0.36517 0.86565 0.0576 0.0
H2230 H 0.417 0.89969 0.08317 0.0
H2231 H 0.40177 0.88426 0.06961 0.0
H2232 H 0.39367 0.85992 0.17307 0.0
C2233 C 0.35705 0.8363 0.12388 0.0
C2234 C 0.37137 0.86425 0.08279 0.0
C2235 C 0.34984 0.82641 0.11275 0.0
C2236 C 0.41227 0.89569 0.10879 0.0
C2237 C 0.40347 0.8869 0.10097 0.0
C2238 C 0.38739 0.86133 0.14813 0.0
C2239 C 0.3628 0.84339 0.0939 0.0
C2240 C 0.37108 0.85345 0.10558 0.0
C2241 C 0.3971 0.88144 0.13323 0.0
C2242 C 0.38787 0.87198 0.12466 0.0
H2243 H 0.35263 0.82858 0.00923 0.0
H2244 H 0.36531 0.84566 0.0286 0.0
H2245 H 0.37927 0.84391 0.15649 0.0
H2246 H 0.41029 0.89639 0.21276 0.0
H2247 H 0.39493 0.88099 0.19903 0.0
C2248 C 0.9165 0.3933 0.67327 0.0
C2249 C 0.9215 0.39901 0.63882 0.0
C2250 C 0.90788 0.38412 0.66875 0.0
C2251 C 0.89568 0.36216 0.59337 0.0
H2252 H 0.86813 0.36133 0.6665 0.0
C2253 C 0.85405 0.33157 0.56466 0.0
C2254 C 0.8491 0.32557 0.59866 0.0
C2255 C 0.86307 0.34033 0.5698 0.0
C2256 C 0.87584 0.36136 0.6461 0.0
H2257 H 0.92136 0.39952 0.57253 0.0
H2258 H 0.90623 0.38366 0.5647 0.0
H2259 H 0.88355 0.37692 0.67517 0.0
H2260 H 0.84979 0.32407 0.66474 0.0
H2261 H 0.86553 0.33933 0.6736 0.0
H2262 H 0.88789 0.34664 0.5641 0.0
C2263 C 0.90909 0.38613 0.59523 0.0
C2264 C 0.88469 0.37029 0.6511 0.0
C2265 C 0.91773 0.39529 0.59975 0.0
C2266 C 0.85338 0.32853 0.63788 0.0
C2267 C 0.86236 0.33733 0.64301 0.0
C2268 C 0.88681 0.35325 0.5883 0.0
C2269 C 0.90404 0.38044 0.62966 0.0
C2270 C 0.89472 0.37081 0.62476 0.0
C2271 C 0.8673 0.34334 0.60904 0.0
C2272 C 0.87678 0.35276 0.61457 0.0
H2273 H 0.91924 0.39592 0.70381 0.0
H2274 H 0.9043 0.37982 0.69592 0.0
H2275 H 0.90338 0.36217 0.57294 0.0
H2276 H 0.85095 0.32952 0.53403 0.0
H2277 H 0.86659 0.34489 0.54304 0.0
C2278 C 0.35642 0.16926 0.43237 0.0
C2279 C 0.34818 0.1722 0.40126 0.0
C2280 C 0.3655 0.16069 0.42561 0.0
C2281 C 0.38212 0.14474 0.34305 0.0
H2282 H 0.38991 0.1221 0.42969 0.0
C2283 C 0.41206 0.10218 0.31929 0.0
C2284 C 0.42039 0.09942 0.35037 0.0
C2285 C 0.40365 0.11152 0.32452 0.0
C2286 C 0.38794 0.12845 0.40534 0.0
H2287 H 0.34301 0.16842 0.33857 0.0
H2288 H 0.35869 0.15333 0.32702 0.0
H2289 H 0.3744 0.13739 0.44083 0.0
H2290 H 0.42661 0.10452 0.41092 0.0
H2291 H 0.41198 0.12077 0.41991 0.0
H2292 H 0.39558 0.13563 0.30741 0.0
C2293 C 0.35828 0.1578 0.35646 0.0
C2294 C 0.37905 0.13723 0.41174 0.0
C2295 C 0.34924 0.1664 0.36317 0.0
C2296 C 0.4203 0.10636 0.3864 0.0
C2297 C 0.41186 0.11564 0.39169 0.0
C2298 C 0.39098 0.13591 0.33659 0.0
C2299 C 0.36652 0.15481 0.38762 0.0
C2300 C 0.37604 0.1455 0.38071 0.0
C2301 C 0.40335 0.11823 0.36103 0.0
C2302 C 0.394 0.12768 0.3677 0.0
H2303 H 0.35591 0.17361 0.462 0.0
H2304 H 0.3718 0.15876 0.45009 0.0
H2305 H 0.38016 0.15108 0.31868 0.0
H2306 H 0.41189 0.09701 0.29116 0.0
H2307 H 0.39716 0.11325 0.30044 0.0
C2308 C 0.6362 0.66661 0.05618 0.0
C2309 C 0.64179 0.67238 0.0895 0.0
C2310 C 0.62797 0.65718 0.06249 0.0
C2311 C 0.60779 0.64392 0.14069 0.0
H2312 H 0.60814 0.61602 0.06867 0.0
C2313 C 0.57857 0.60115 0.16954 0.0
C2314 C 0.5729 0.59597 0.13526 0.0
C2315 C 0.58708 0.61043 0.16479 0.0
C2316 C 0.60785 0.6238 0.08881 0.0
H2317 H 0.64314 0.67272 0.15564 0.0
H2318 H 0.62888 0.65618 0.16659 0.0
H2319 H 0.62285 0.6322 0.05884 0.0
H2320 H 0.57166 0.59658 0.06909 0.0
H2321 H 0.58641 0.61278 0.06092 0.0
H2322 H 0.59277 0.63548 0.17065 0.0
C2323 C 0.63074 0.65905 0.13558 0.0
C2324 C 0.61628 0.63309 0.08316 0.0
C2325 C 0.63897 0.66849 0.12928 0.0
C2326 C 0.57588 0.60033 0.09617 0.0
C2327 C 0.5844 0.60957 0.09144 0.0
C2328 C 0.59937 0.63461 0.14639 0.0
C2329 C 0.62513 0.65329 0.10226 0.0
C2330 C 0.61631 0.64329 0.10888 0.0
C2331 C 0.59013 0.61471 0.12566 0.0
C2332 C 0.59926 0.62448 0.12036 0.0
H2333 H 0.63813 0.6694 0.02515 0.0
H2334 H 0.62368 0.65306 0.03615 0.0
H2335 H 0.60746 0.65172 0.16072 0.0
H2336 H 0.5765 0.598 0.20007 0.0
H2337 H 0.59142 0.61413 0.19174 0.0
C2338 C 0.0878 0.90151 0.85629 0.0
C2339 C 0.07587 0.90171 0.87106 0.0
C2340 C 0.0951 0.89133 0.86218 0.0
C2341 C 0.0937 0.85858 0.8818 0.0
H2342 H 0.12691 0.86255 0.91751 0.0
C2343 C 0.12323 0.81739 0.92249 0.0
C2344 C 0.1353 0.81756 0.90917 0.0
C2345 C 0.11613 0.82784 0.9204 0.0
C2346 C 0.1177 0.86128 0.9071 0.0
H2347 H 0.06223 0.89132 0.90336 0.0
H2348 H 0.07497 0.87353 0.91339 0.0
H2349 H 0.1142 0.88037 0.90766 0.0
H2350 H 0.14947 0.82892 0.88404 0.0
H2351 H 0.13703 0.84708 0.87962 0.0
H2352 H 0.0972 0.83955 0.88042 0.0
C2353 C 0.07865 0.88125 0.89717 0.0
C2354 C 0.11042 0.87149 0.90151 0.0
C2355 C 0.07138 0.89146 0.89156 0.0
C2356 C 0.14021 0.8285 0.8947 0.0
C2357 C 0.13308 0.83893 0.89233 0.0
C2358 C 0.101 0.84838 0.88711 0.0
C2359 C 0.09061 0.88109 0.88267 0.0
C2360 C 0.09834 0.87025 0.88879 0.0
C2361 C 0.1209 0.83869 0.90465 0.0
C2362 C 0.11309 0.84959 0.89984 0.0
H2363 H 0.09155 0.90925 0.84038 0.0
H2364 H 0.10424 0.89142 0.85027 0.0
H2365 H 0.08448 0.85735 0.87142 0.0
H2366 H 0.11919 0.80914 0.9341 0.0
H2367 H 0.10687 0.82738 0.93096 0.0
loop_
_geom_bond_atom_site_label_1
_geom_bond_atom_site_label_2
_geom_bond_distance
_geom_bond_site_symmetry_2
_ccdc_geom_bond_type
Zn0 O3 2.031 . S
Zn0 O5 2.049 . S
Zn0 O10 2.067 . S
Zn1 O2 1.962 . S
Zn1 O4 1.986 . S
Zn1 O6 1.996 . S
Zn1 O9 1.943 . S
O2 Zn1 1.962 . S
O2 C7 1.254 . S
O3 Zn0 2.031 . S
O3 C7 1.269 . S
O4 Zn1 1.986 . S
O4 C11 1.262 . S
O5 Zn0 2.049 . S
O5 C13 1.260 . S
O6 Zn1 1.996 . S
O6 C13 1.257 . S
C7 O2 1.254 . S
C7 O3 1.269 . S
C8 O9 1.249 . S
C8 O10 1.270 . S
O9 Zn1 1.943 . S
O9 C8 1.249 . S
O10 Zn0 2.067 . S
O10 C8 1.270 . S
C11 O4 1.262 . S
C11 O12 1.232 . S
O12 C11 1.232 . S
C13 O5 1.260 . S
C13 O6 1.257 . S
Zn14 O17 2.031 . S
Zn14 O19 2.049 . S
Zn14 O24 2.067 . S
Zn15 O16 1.962 . S
Zn15 O18 1.986 . S
Zn15 O20 1.996 . S
Zn15 O23 1.943 . S
O16 Zn15 1.962 . S
O16 C21 1.254 . S
O17 Zn14 2.031 . S
O17 C21 1.269 . S
O18 Zn15 1.986 . S
O18 C25 1.262 . S
O19 Zn14 2.049 . S
O19 C27 1.260 . S
O20 Zn15 1.996 . S
O20 C27 1.257 . S
C21 O16 1.254 . S
C21 O17 1.269 . S
C22 O23 1.249 . S
C22 O24 1.270 . S
O23 Zn15 1.943 . S
O23 C22 1.249 . S
O24 Zn14 2.067 . S
O24 C22 1.270 . S
C25 O18 1.262 . S
C25 O26 1.232 . S
O26 C25 1.232 . S
C27 O19 1.260 . S
C27 O20 1.257 . S
Zn28 O31 2.031 . S
Zn28 O33 2.049 . S
Zn28 O38 2.067 . S
Zn29 O30 1.962 . S
Zn29 O32 1.986 . S
Zn29 O34 1.996 . S
Zn29 O37 1.943 . S
O30 Zn29 1.962 . S
O30 C35 1.254 . S
O31 Zn28 2.031 . S
O31 C35 1.269 . S
O32 Zn29 1.986 . S
O32 C39 1.262 . S
O33 Zn28 2.049 . S
O33 C41 1.260 . S
O34 Zn29 1.996 . S
O34 C41 1.257 . S
C35 O30 1.254 . S
C35 O31 1.269 . S
C36 O37 1.249 . S
C36 O38 1.270 . S
O37 Zn29 1.943 . S
O37 C36 1.249 . S
O38 Zn28 2.067 . S
O38 C36 1.270 . S
C39 O32 1.262 . S
C39 O40 1.232 . S
O40 C39 1.232 . S
C41 O33 1.260 . S
C41 O34 1.257 . S
Zn42 O45 2.031 . S
Zn42 O47 2.049 . S
Zn42 O52 2.067 . S
Zn43 O44 1.962 . S
Zn43 O46 1.986 . S
Zn43 O48 1.996 . S
Zn43 O51 1.943 . S
O44 Zn43 1.962 . S
O44 C49 1.254 . S
O45 Zn42 2.031 . S
O45 C49 1.269 . S
O46 Zn43 1.986 . S
O46 C53 1.262 . S
O47 Zn42 2.049 . S
O47 C55 1.260 . S
O48 Zn43 1.996 . S
O48 C55 1.257 . S
C49 O44 1.254 . S
C49 O45 1.269 . S
C50 O51 1.249 . S
C50 O52 1.270 . S
O51 Zn43 1.943 . S
O51 C50 1.249 . S
O52 Zn42 2.067 . S
O52 C50 1.270 . S
C53 O46 1.262 . S
C53 O54 1.232 . S
O54 C53 1.232 . S
C55 O47 1.260 . S
C55 O48 1.257 . S
Zn56 O59 2.031 . S
Zn56 O61 2.049 . S
Zn56 O66 2.067 . S
Zn57 O58 1.962 . S
Zn57 O60 1.986 . S
Zn57 O62 1.996 . S
Zn57 O65 1.943 . S
O58 Zn57 1.962 . S
O58 C63 1.254 . S
O59 Zn56 2.031 . S
O59 C63 1.269 . S
O60 Zn57 1.986 . S
O60 C67 1.262 . S
O61 Zn56 2.049 . S
O61 C69 1.260 . S
O62 Zn57 1.996 . S
O62 C69 1.257 . S
C63 O58 1.254 . S
C63 O59 1.269 . S
C64 O65 1.249 . S
C64 O66 1.270 . S
O65 Zn57 1.943 . S
O65 C64 1.249 . S
O66 Zn56 2.067 . S
O66 C64 1.270 . S
C67 O60 1.262 . S
C67 O68 1.232 . S
O68 C67 1.232 . S
C69 O61 1.260 . S
C69 O62 1.257 . S
Zn70 O73 2.031 . S
Zn70 O75 2.049 . S
Zn70 O80 2.067 . S
Zn71 O72 1.962 . S
Zn71 O74 1.986 . S
Zn71 O76 1.996 . S
Zn71 O79 1.943 . S
O72 Zn71 1.962 . S
O72 C77 1.254 . S
O73 Zn70 2.031 . S
O73 C77 1.269 . S
O74 Zn71 1.986 . S
O74 C81 1.262 . S
O75 Zn70 2.049 . S
O75 C83 1.260 . S
O76 Zn71 1.996 . S
O76 C83 1.257 . S
C77 O72 1.254 . S
C77 O73 1.269 . S
C78 O79 1.249 . S
C78 O80 1.270 . S
O79 Zn71 1.943 . S
O79 C78 1.249 . S
O80 Zn70 2.067 . S
O80 C78 1.270 . S
C81 O74 1.262 . S
C81 O82 1.232 . S
O82 C81 1.232 . S
C83 O75 1.260 . S
C83 O76 1.257 . S
Zn84 O87 2.031 . S
Zn84 O89 2.049 . S
Zn84 O94 2.067 . S
Zn85 O86 1.962 . S
Zn85 O88 1.986 . S
Zn85 O90 1.996 . S
Zn85 O93 1.943 . S
O86 Zn85 1.962 . S
O86 C91 1.254 . S
O87 Zn84 2.031 . S
O87 C91 1.269 . S
O88 Zn85 1.986 . S
O88 C95 1.262 . S
O89 Zn84 2.049 . S
O89 C97 1.260 . S
O90 Zn85 1.996 . S
O90 C97 1.257 . S
C91 O86 1.254 . S
C91 O87 1.269 . S
C92 O93 1.249 . S
C92 O94 1.270 . S
O93 Zn85 1.943 . S
O93 C92 1.249 . S
O94 Zn84 2.067 . S
O94 C92 1.270 . S
C95 O88 1.262 . S
C95 O96 1.232 . S
O96 C95 1.232 . S
C97 O89 1.260 . S
C97 O90 1.257 . S
Zn98 O101 2.031 . S
Zn98 O103 2.049 . S
Zn98 O108 2.067 . S
Zn99 O100 1.962 . S
Zn99 O102 1.986 . S
Zn99 O104 1.996 . S
Zn99 O107 1.943 . S
O100 Zn99 1.962 . S
O100 C105 1.254 . S
O101 Zn98 2.031 . S
O101 C105 1.269 . S
O102 Zn99 1.986 . S
O102 C109 1.262 . S
O103 Zn98 2.049 . S
O103 C111 1.260 . S
O104 Zn99 1.996 . S
O104 C111 1.257 . S
C105 O100 1.254 . S
C105 O101 1.269 . S
C106 O107 1.249 . S
C106 O108 1.270 . S
O107 Zn99 1.943 . S
O107 C106 1.249 . S
O108 Zn98 2.067 . S
O108 C106 1.270 . S
C109 O102 1.262 . S
C109 O110 1.232 . S
O110 C109 1.232 . S
C111 O103 1.260 . S
C111 O104 1.257 . S
Zn112 O115 2.031 . S
Zn112 O117 2.049 . S
Zn112 O122 2.067 . S
Zn113 O114 1.962 . S
Zn113 O116 1.986 . S
Zn113 O118 1.996 . S
Zn113 O121 1.943 . S
O114 Zn113 1.962 . S
O114 C119 1.254 . S
O115 Zn112 2.031 . S
O115 C119 1.269 . S
O116 Zn113 1.986 . S
O116 C123 1.262 . S
O117 Zn112 2.049 . S
O117 C125 1.260 . S
O118 Zn113 1.996 . S
O118 C125 1.257 . S
C119 O114 1.254 . S
C119 O115 1.269 . S
C120 O121 1.249 . S
C120 O122 1.270 . S
O121 Zn113 1.943 . S
O121 C120 1.249 . S
O122 Zn112 2.067 . S
O122 C120 1.270 . S
C123 O116 1.262 . S
C123 O124 1.232 . S
O124 C123 1.232 . S
C125 O117 1.260 . S
C125 O118 1.257 . S
Zn126 O129 2.031 . S
Zn126 O131 2.049 . S
Zn126 O136 2.067 . S
Zn127 O128 1.962 . S
Zn127 O130 1.986 . S
Zn127 O132 1.996 . S
Zn127 O135 1.943 . S
O128 Zn127 1.962 . S
O128 C133 1.254 . S
O129 Zn126 2.031 . S
O129 C133 1.269 . S
O130 Zn127 1.986 . S
O130 C137 1.262 . S
O131 Zn126 2.049 . S
O131 C139 1.260 . S
O132 Zn127 1.996 . S
O132 C139 1.257 . S
C133 O128 1.254 . S
C133 O129 1.269 . S
C134 O135 1.249 . S
C134 O136 1.270 . S
O135 Zn127 1.943 . S
O135 C134 1.249 . S
O136 Zn126 2.067 . S
O136 C134 1.270 . S
C137 O130 1.262 . S
C137 O138 1.232 . S
O138 C137 1.232 . S
C139 O131 1.260 . S
C139 O132 1.257 . S
Zn140 O143 2.031 . S
Zn140 O145 2.049 . S
Zn140 O150 2.067 . S
Zn141 O142 1.962 . S
Zn141 O144 1.986 . S
Zn141 O146 1.996 . S
Zn141 O149 1.943 . S
O142 Zn141 1.962 . S
O142 C147 1.254 . S
O143 Zn140 2.031 . S
O143 C147 1.269 . S
O144 Zn141 1.986 . S
O144 C151 1.262 . S
O145 Zn140 2.049 . S
O145 C153 1.260 . S
O146 Zn141 1.996 . S
O146 C153 1.257 . S
C147 O142 1.254 . S
C147 O143 1.269 . S
C148 O149 1.249 . S
C148 O150 1.270 . S
O149 Zn141 1.943 . S
O149 C148 1.249 . S
O150 Zn140 2.067 . S
O150 C148 1.270 . S
C151 O144 1.262 . S
C151 O152 1.232 . S
O152 C151 1.232 . S
C153 O145 1.260 . S
C153 O146 1.257 . S
Zn154 O157 2.031 . S
Zn154 O159 2.049 . S
Zn154 O164 2.067 . S
Zn155 O156 1.962 . S
Zn155 O158 1.986 . S
Zn155 O160 1.996 . S
Zn155 O163 1.943 . S
O156 Zn155 1.962 . S
O156 C161 1.254 . S
O157 Zn154 2.031 . S
O157 C161 1.269 . S
O158 Zn155 1.986 . S
O158 C165 1.262 . S
O159 Zn154 2.049 . S
O159 C167 1.260 . S
O160 Zn155 1.996 . S
O160 C167 1.257 . S
C161 O156 1.254 . S
C161 O157 1.269 . S
C162 O163 1.249 . S
C162 O164 1.270 . S
O163 Zn155 1.943 . S
O163 C162 1.249 . S
O164 Zn154 2.067 . S
O164 C162 1.270 . S
C165 O158 1.262 . S
C165 O166 1.232 . S
O166 C165 1.232 . S
C167 O159 1.260 . S
C167 O160 1.257 . S
Zn168 O171 2.031 . S
Zn168 O173 2.049 . S
Zn168 O178 2.067 . S
Zn169 O170 1.962 . S
Zn169 O172 1.986 . S
Zn169 O174 1.996 . S
Zn169 O177 1.943 . S
O170 Zn169 1.962 . S
O170 C175 1.254 . S
O171 Zn168 2.031 . S
O171 C175 1.269 . S
O172 Zn169 1.986 . S
O172 C179 1.262 . S
O173 Zn168 2.049 . S
O173 C181 1.260 . S
O174 Zn169 1.996 . S
O174 C181 1.257 . S
C175 O170 1.254 . S
C175 O171 1.269 . S
C176 O177 1.249 . S
C176 O178 1.270 . S
O177 Zn169 1.943 . S
O177 C176 1.249 . S
O178 Zn168 2.067 . S
O178 C176 1.270 . S
C179 O172 1.262 . S
C179 O180 1.232 . S
O180 C179 1.232 . S
C181 O173 1.260 . S
C181 O174 1.257 . S
Zn182 O185 2.031 . S
Zn182 O187 2.049 . S
Zn182 O192 2.067 . S
Zn183 O184 1.962 . S
Zn183 O186 1.986 . S
Zn183 O188 1.996 . S
Zn183 O191 1.943 . S
O184 Zn183 1.962 . S
O184 C189 1.254 . S
O185 Zn182 2.031 . S
O185 C189 1.269 . S
O186 Zn183 1.986 . S
O186 C193 1.262 . S
O187 Zn182 2.049 . S
O187 C195 1.260 . S
O188 Zn183 1.996 . S
O188 C195 1.257 . S
C189 O184 1.254 . S
C189 O185 1.269 . S
C190 O191 1.249 . S
C190 O192 1.270 . S
O191 Zn183 1.943 . S
O191 C190 1.249 . S
O192 Zn182 2.067 . S
O192 C190 1.270 . S
C193 O186 1.262 . S
C193 O194 1.232 . S
O194 C193 1.232 . S
C195 O187 1.260 . S
C195 O188 1.257 . S
Zn196 O199 2.031 . S
Zn196 O201 2.049 . S
Zn196 O206 2.067 . S
Zn197 O198 1.962 . S
Zn197 O200 1.986 . S
Zn197 O202 1.996 . S
Zn197 O205 1.943 . S
O198 Zn197 1.962 . S
O198 C203 1.254 . S
O199 Zn196 2.031 . S
O199 C203 1.269 . S
O200 Zn197 1.986 . S
O200 C207 1.262 . S
O201 Zn196 2.049 . S
O201 C209 1.260 . S
O202 Zn197 1.996 . S
O202 C209 1.257 . S
C203 O198 1.254 . S
C203 O199 1.269 . S
C204 O205 1.249 . S
C204 O206 1.270 . S
O205 Zn197 1.943 . S
O205 C204 1.249 . S
O206 Zn196 2.067 . S
O206 C204 1.270 . S
C207 O200 1.262 . S
C207 O208 1.232 . S
O208 C207 1.232 . S
C209 O201 1.260 . S
C209 O202 1.257 . S
Zn210 O213 2.031 . S
Zn210 O215 2.049 . S
Zn210 O220 2.067 . S
Zn211 O212 1.962 . S
Zn211 O214 1.986 . S
Zn211 O216 1.996 . S
Zn211 O219 1.943 . S
O212 Zn211 1.962 . S
O212 C217 1.254 . S
O213 Zn210 2.031 . S
O213 C217 1.269 . S
O214 Zn211 1.986 . S
O214 C221 1.262 . S
O215 Zn210 2.049 . S
O215 C223 1.260 . S
O216 Zn211 1.996 . S
O216 C223 1.257 . S
C217 O212 1.254 . S
C217 O213 1.269 . S
C218 O219 1.249 . S
C218 O220 1.270 . S
O219 Zn211 1.943 . S
O219 C218 1.249 . S
O220 Zn210 2.067 . S
O220 C218 1.270 . S
C221 O214 1.262 . S
C221 O222 1.232 . S
O222 C221 1.232 . S
C223 O215 1.260 . S
C223 O216 1.257 . S
Zn224 O227 2.031 . S
Zn224 O229 2.049 . S
Zn224 O234 2.067 . S
Zn225 O226 1.962 . S
Zn225 O228 1.986 . S
Zn225 O230 1.996 . S
Zn225 O233 1.943 . S
O226 Zn225 1.962 . S
O226 C231 1.254 . S
O227 Zn224 2.031 . S
O227 C231 1.269 . S
O228 Zn225 1.986 . S
O228 C235 1.262 . S
O229 Zn224 2.049 . S
O229 C237 1.260 . S
O230 Zn225 1.996 . S
O230 C237 1.257 . S
C231 O226 1.254 . S
C231 O227 1.269 . S
C232 O233 1.249 . S
C232 O234 1.270 . S
O233 Zn225 1.943 . S
O233 C232 1.249 . S
O234 Zn224 2.067 . S
O234 C232 1.270 . S
C235 O228 1.262 . S
C235 O236 1.232 . S
O236 C235 1.232 . S
C237 O229 1.260 . S
C237 O230 1.257 . S
Zn238 O241 2.031 . S
Zn238 O243 2.049 . S
Zn238 O248 2.067 . S
Zn239 O240 1.962 . S
Zn239 O242 1.986 . S
Zn239 O244 1.996 . S
Zn239 O247 1.943 . S
O240 Zn239 1.962 . S
O240 C245 1.254 . S
O241 Zn238 2.031 . S
O241 C245 1.269 . S
O242 Zn239 1.986 . S
O242 C249 1.262 . S
O243 Zn238 2.049 . S
O243 C251 1.260 . S
O244 Zn239 1.996 . S
O244 C251 1.257 . S
C245 O240 1.254 . S
C245 O241 1.269 . S
C246 O247 1.249 . S
C246 O248 1.270 . S
O247 Zn239 1.943 . S
O247 C246 1.249 . S
O248 Zn238 2.067 . S
O248 C246 1.270 . S
C249 O242 1.262 . S
C249 O250 1.232 . S
O250 C249 1.232 . S
C251 O243 1.260 . S
C251 O244 1.257 . S
Zn252 O255 2.031 . S
Zn252 O257 2.049 . S
Zn252 O262 2.067 . S
Zn253 O254 1.962 . S
Zn253 O256 1.986 . S
Zn253 O258 1.996 . S
Zn253 O261 1.943 . S
O254 Zn253 1.962 . S
O254 C259 1.254 . S
O255 Zn252 2.031 . S
O255 C259 1.269 . S
O256 Zn253 1.986 . S
O256 C263 1.262 . S
O257 Zn252 2.049 . S
O257 C265 1.260 . S
O258 Zn253 1.996 . S
O258 C265 1.257 . S
C259 O254 1.254 . S
C259 O255 1.269 . S
C260 O261 1.249 . S
C260 O262 1.270 . S
O261 Zn253 1.943 . S
O261 C260 1.249 . S
O262 Zn252 2.067 . S
O262 C260 1.270 . S
C263 O256 1.262 . S
C263 O264 1.232 . S
O264 C263 1.232 . S
C265 O257 1.260 . S
C265 O258 1.257 . S
Zn266 O269 2.031 . S
Zn266 O271 2.049 . S
Zn266 O276 2.067 . S
Zn267 O268 1.962 . S
Zn267 O270 1.986 . S
Zn267 O272 1.996 . S
Zn267 O275 1.943 . S
O268 Zn267 1.962 . S
O268 C273 1.254 . S
O269 Zn266 2.031 . S
O269 C273 1.269 . S
O270 Zn267 1.986 . S
O270 C277 1.262 . S
O271 Zn266 2.049 . S
O271 C279 1.260 . S
O272 Zn267 1.996 . S
O272 C279 1.257 . S
C273 O268 1.254 . S
C273 O269 1.269 . S
C274 O275 1.249 . S
C274 O276 1.270 . S
O275 Zn267 1.943 . S
O275 C274 1.249 . S
O276 Zn266 2.067 . S
O276 C274 1.270 . S
C277 O270 1.262 . S
C277 O278 1.232 . S
O278 C277 1.232 . S
C279 O271 1.260 . S
C279 O272 1.257 . S
Zn280 O283 2.031 . S
Zn280 O285 2.049 . S
Zn280 O290 2.067 . S
Zn281 O282 1.962 . S
Zn281 O284 1.986 . S
Zn281 O286 1.996 . S
Zn281 O289 1.943 . S
O282 Zn281 1.962 . S
O282 C287 1.254 . S
O283 Zn280 2.031 . S
O283 C287 1.269 . S
O284 Zn281 1.986 . S
O284 C291 1.262 . S
O285 Zn280 2.049 . S
O285 C293 1.260 . S
O286 Zn281 1.996 . S
O286 C293 1.257 . S
C287 O282 1.254 . S
C287 O283 1.269 . S
C288 O289 1.249 . S
C288 O290 1.270 . S
O289 Zn281 1.943 . S
O289 C288 1.249 . S
O290 Zn280 2.067 . S
O290 C288 1.270 . S
C291 O284 1.262 . S
C291 O292 1.232 . S
O292 C291 1.232 . S
C293 O285 1.260 . S
C293 O286 1.257 . S
Zn294 O297 2.031 . S
Zn294 O299 2.049 . S
Zn294 O304 2.067 . S
Zn295 O296 1.962 . S
Zn295 O298 1.986 . S
Zn295 O300 1.996 . S
Zn295 O303 1.943 . S
O296 Zn295 1.962 . S
O296 C301 1.254 . S
O297 Zn294 2.031 . S
O297 C301 1.269 . S
O298 Zn295 1.986 . S
O298 C305 1.262 . S
O299 Zn294 2.049 . S
O299 C307 1.260 . S
O300 Zn295 1.996 . S
O300 C307 1.257 . S
C301 O296 1.254 . S
C301 O297 1.269 . S
C302 O303 1.249 . S
C302 O304 1.270 . S
O303 Zn295 1.943 . S
O303 C302 1.249 . S
O304 Zn294 2.067 . S
O304 C302 1.270 . S
C305 O298 1.262 . S
C305 O306 1.232 . S
O306 C305 1.232 . S
C307 O299 1.260 . S
C307 O300 1.257 . S
Zn308 O311 2.031 . S
Zn308 O313 2.049 . S
Zn308 O318 2.067 . S
Zn309 O310 1.962 . S
Zn309 O312 1.986 . S
Zn309 O314 1.996 . S
Zn309 O317 1.943 . S
O310 Zn309 1.962 . S
O310 C315 1.254 . S
O311 Zn308 2.031 . S
O311 C315 1.269 . S
O312 Zn309 1.986 . S
O312 C319 1.262 . S
O313 Zn308 2.049 . S
O313 C321 1.260 . S
O314 Zn309 1.996 . S
O314 C321 1.257 . S
C315 O310 1.254 . S
C315 O311 1.269 . S
C316 O317 1.249 . S
C316 O318 1.270 . S
O317 Zn309 1.943 . S
O317 C316 1.249 . S
O318 Zn308 2.067 . S
O318 C316 1.270 . S
C319 O312 1.262 . S
C319 O320 1.232 . S
O320 C319 1.232 . S
C321 O313 1.260 . S
C321 O314 1.257 . S
Zn322 O325 2.031 . S
Zn322 O327 2.049 . S
Zn322 O332 2.067 . S
Zn323 O324 1.962 . S
Zn323 O326 1.986 . S
Zn323 O328 1.996 . S
Zn323 O331 1.943 . S
O324 Zn323 1.962 . S
O324 C329 1.254 . S
O325 Zn322 2.031 . S
O325 C329 1.269 . S
O326 Zn323 1.986 . S
O326 C333 1.262 . S
O327 Zn322 2.049 . S
O327 C335 1.260 . S
O328 Zn323 1.996 . S
O328 C335 1.257 . S
C329 O324 1.254 . S
C329 O325 1.269 . S
C330 O331 1.249 . S
C330 O332 1.270 . S
O331 Zn323 1.943 . S
O331 C330 1.249 . S
O332 Zn322 2.067 . S
O332 C330 1.270 . S
C333 O326 1.262 . S
C333 O334 1.232 . S
O334 C333 1.232 . S
C335 O327 1.260 . S
C335 O328 1.257 . S
Zn336 O339 2.031 . S
Zn336 O341 2.049 . S
Zn336 O346 2.067 . S
Zn337 O338 1.962 . S
Zn337 O340 1.986 . S
Zn337 O342 1.996 . S
Zn337 O345 1.943 . S
O338 Zn337 1.962 . S
O338 C343 1.254 . S
O339 Zn336 2.031 . S
O339 C343 1.269 . S
O340 Zn337 1.986 . S
O340 C347 1.262 . S
O341 Zn336 2.049 . S
O341 C349 1.260 . S
O342 Zn337 1.996 . S
O342 C349 1.257 . S
C343 O338 1.254 . S
C343 O339 1.269 . S
C344 O345 1.249 . S
C344 O346 1.270 . S
O345 Zn337 1.943 . S
O345 C344 1.249 . S
O346 Zn336 2.067 . S
O346 C344 1.270 . S
C347 O340 1.262 . S
C347 O348 1.232 . S
O348 C347 1.232 . S
C349 O341 1.260 . S
C349 O342 1.257 . S
Zn350 O353 2.031 . S
Zn350 O355 2.049 . S
Zn350 O360 2.067 . S
Zn351 O352 1.962 . S
Zn351 O354 1.986 . S
Zn351 O356 1.996 . S
Zn351 O359 1.943 . S
O352 Zn351 1.962 . S
O352 C357 1.254 . S
O353 Zn350 2.031 . S
O353 C357 1.269 . S
O354 Zn351 1.986 . S
O354 C361 1.262 . S
O355 Zn350 2.049 . S
O355 C363 1.260 . S
O356 Zn351 1.996 . S
O356 C363 1.257 . S
C357 O352 1.254 . S
C357 O353 1.269 . S
C358 O359 1.249 . S
C358 O360 1.270 . S
O359 Zn351 1.943 . S
O359 C358 1.249 . S
O360 Zn350 2.067 . S
O360 C358 1.270 . S
C361 O354 1.262 . S
C361 O362 1.232 . S
O362 C361 1.232 . S
C363 O355 1.260 . S
C363 O356 1.257 . S
Zn364 O367 2.031 . S
Zn364 O369 2.049 . S
Zn364 O374 2.067 . S
Zn365 O366 1.962 . S
Zn365 O368 1.986 . S
Zn365 O370 1.996 . S
Zn365 O373 1.943 . S
O366 Zn365 1.962 . S
O366 C371 1.254 . S
O367 Zn364 2.031 . S
O367 C371 1.269 . S
O368 Zn365 1.986 . S
O368 C375 1.262 . S
O369 Zn364 2.049 . S
O369 C377 1.260 . S
O370 Zn365 1.996 . S
O370 C377 1.257 . S
C371 O366 1.254 . S
C371 O367 1.269 . S
C372 O373 1.249 . S
C372 O374 1.270 . S
O373 Zn365 1.943 . S
O373 C372 1.249 . S
O374 Zn364 2.067 . S
O374 C372 1.270 . S
C375 O368 1.262 . S
C375 O376 1.232 . S
O376 C375 1.232 . S
C377 O369 1.260 . S
C377 O370 1.257 . S
Zn378 O381 2.031 . S
Zn378 O383 2.049 . S
Zn378 O388 2.067 . S
Zn379 O380 1.962 . S
Zn379 O382 1.986 . S
Zn379 O384 1.996 . S
Zn379 O387 1.943 . S
O380 Zn379 1.962 . S
O380 C385 1.254 . S
O381 Zn378 2.031 . S
O381 C385 1.269 . S
O382 Zn379 1.986 . S
O382 C389 1.262 . S
O383 Zn378 2.049 . S
O383 C391 1.260 . S
O384 Zn379 1.996 . S
O384 C391 1.257 . S
C385 O380 1.254 . S
C385 O381 1.269 . S
C386 O387 1.249 . S
C386 O388 1.270 . S
O387 Zn379 1.943 . S
O387 C386 1.249 . S
O388 Zn378 2.067 . S
O388 C386 1.270 . S
C389 O382 1.262 . S
C389 O390 1.232 . S
O390 C389 1.232 . S
C391 O383 1.260 . S
C391 O384 1.257 . S
Zn392 O395 2.031 . S
Zn392 O397 2.049 . S
Zn392 O402 2.067 . S
Zn393 O394 1.962 . S
Zn393 O396 1.986 . S
Zn393 O398 1.996 . S
Zn393 O401 1.943 . S
O394 Zn393 1.962 . S
O394 C399 1.254 . S
O395 Zn392 2.031 . S
O395 C399 1.269 . S
O396 Zn393 1.986 . S
O396 C403 1.262 . S
O397 Zn392 2.049 . S
O397 C405 1.260 . S
O398 Zn393 1.996 . S
O398 C405 1.257 . S
C399 O394 1.254 . S
C399 O395 1.269 . S
C400 O401 1.249 . S
C400 O402 1.270 . S
O401 Zn393 1.943 . S
O401 C400 1.249 . S
O402 Zn392 2.067 . S
O402 C400 1.270 . S
C403 O396 1.262 . S
C403 O404 1.232 . S
O404 C403 1.232 . S
C405 O397 1.260 . S
C405 O398 1.257 . S
Zn406 O409 2.031 . S
Zn406 O411 2.049 . S
Zn406 O416 2.067 . S
Zn407 O408 1.962 . S
Zn407 O410 1.986 . S
Zn407 O412 1.996 . S
Zn407 O415 1.943 . S
O408 Zn407 1.962 . S
O408 C413 1.254 . S
O409 Zn406 2.031 . S
O409 C413 1.269 . S
O410 Zn407 1.986 . S
O410 C417 1.262 . S
O411 Zn406 2.049 . S
O411 C419 1.260 . S
O412 Zn407 1.996 . S
O412 C419 1.257 . S
C413 O408 1.254 . S
C413 O409 1.269 . S
C414 O415 1.249 . S
C414 O416 1.270 . S
O415 Zn407 1.943 . S
O415 C414 1.249 . S
O416 Zn406 2.067 . S
O416 C414 1.270 . S
C417 O410 1.262 . S
C417 O418 1.232 . S
O418 C417 1.232 . S
C419 O411 1.260 . S
C419 O412 1.257 . S
Zn420 O423 2.031 . S
Zn420 O425 2.049 . S
Zn420 O430 2.067 . S
Zn421 O422 1.962 . S
Zn421 O424 1.986 . S
Zn421 O426 1.996 . S
Zn421 O429 1.943 . S
O422 Zn421 1.962 . S
O422 C427 1.254 . S
O423 Zn420 2.031 . S
O423 C427 1.269 . S
O424 Zn421 1.986 . S
O424 C431 1.262 . S
O425 Zn420 2.049 . S
O425 C433 1.260 . S
O426 Zn421 1.996 . S
O426 C433 1.257 . S
C427 O422 1.254 . S
C427 O423 1.269 . S
C428 O429 1.249 . S
C428 O430 1.270 . S
O429 Zn421 1.943 . S
O429 C428 1.249 . S
O430 Zn420 2.067 . S
O430 C428 1.270 . S
C431 O424 1.262 . S
C431 O432 1.232 . S
O432 C431 1.232 . S
C433 O425 1.260 . S
C433 O426 1.257 . S
Zn434 O437 2.031 . S
Zn434 O439 2.049 . S
Zn434 O444 2.067 . S
Zn435 O436 1.962 . S
Zn435 O438 1.986 . S
Zn435 O440 1.996 . S
Zn435 O443 1.943 . S
O436 Zn435 1.962 . S
O436 C441 1.254 . S
O437 Zn434 2.031 . S
O437 C441 1.269 . S
O438 Zn435 1.986 . S
O438 C445 1.262 . S
O439 Zn434 2.049 . S
O439 C447 1.260 . S
O440 Zn435 1.996 . S
O440 C447 1.257 . S
C441 O436 1.254 . S
C441 O437 1.269 . S
C442 O443 1.249 . S
C442 O444 1.270 . S
O443 Zn435 1.943 . S
O443 C442 1.249 . S
O444 Zn434 2.067 . S
O444 C442 1.270 . S
C445 O438 1.262 . S
C445 O446 1.232 . S
O446 C445 1.232 . S
C447 O439 1.260 . S
C447 O440 1.257 . S
C448 C449 1.349 . S
C448 C450 1.327 . S
C448 H473 0.950 . S
C449 C448 1.349 . S
C449 C465 1.349 . S
C450 C448 1.327 . S
C450 C469 1.429 . S
C450 H474 0.950 . S
C451 C468 1.574 . S
C451 C470 1.368 1_554 S
C451 H475 0.949 . S
H452 C456 0.949 . S
C453 C454 1.349 . S
C453 C455 1.327 . S
C453 H476 0.950 . S
C454 C453 1.349 . S
C454 C466 1.349 . S
C455 C453 1.327 . S
C455 C471 1.429 . S
C455 H477 0.950 . S
C456 H452 0.949 . S
C456 C464 1.574 . S
C456 C472 1.368 1_556 S
H457 C465 0.950 . S
H458 C463 0.950 1_554 S
H459 C464 0.949 . S
H460 C466 0.950 . S
H461 C467 0.950 1_556 S
H462 C468 0.949 . S
C463 H458 0.950 1_556 S
C463 C465 1.327 . S
C463 C469 1.429 . S
C464 C456 1.574 . S
C464 H459 0.949 . S
C464 C470 1.368 . S
C465 C449 1.349 . S
C465 H457 0.950 . S
C465 C463 1.327 . S
C466 C454 1.349 . S
C466 H460 0.950 . S
C466 C467 1.327 . S
C467 H461 0.950 1_554 S
C467 C466 1.327 . S
C467 C471 1.429 . S
C468 C451 1.574 . S
C468 H462 0.949 . S
C468 C472 1.368 . S
C469 C450 1.429 . S
C469 C463 1.429 . S
C469 C470 1.523 . S
C470 C451 1.368 1_556 S
C470 C464 1.368 . S
C470 C469 1.523 . S
C471 C455 1.429 . S
C471 C467 1.429 . S
C471 C472 1.523 . S
C472 C456 1.368 1_554 S
C472 C468 1.368 . S
C472 C471 1.523 . S
H473 C448 0.950 . S
H474 C450 0.950 . S
H475 C451 0.949 . S
H476 C453 0.950 . S
H477 C455 0.950 . S
C478 C479 1.349 . S
C478 C480 1.327 . S
C478 H503 0.950 . S
C479 C478 1.349 . S
C479 C495 1.349 . S
C480 C478 1.327 . S
C480 C499 1.429 . S
C480 H504 0.950 . S
C481 C498 1.574 1_565 S
C481 C500 1.368 . S
C481 H505 0.949 . S
H482 C486 0.949 . S
C483 C484 1.349 . S
C483 C485 1.327 . S
C483 H506 0.950 . S
C484 C483 1.349 . S
C484 C496 1.349 . S
C485 C483 1.327 . S
C485 C501 1.429 . S
C485 H507 0.950 . S
C486 H482 0.949 . S
C486 C494 1.574 1_545 S
C486 C502 1.368 . S
H487 C495 0.950 . S
H488 C493 0.950 . S
H489 C494 0.949 . S
H490 C496 0.950 . S
H491 C497 0.950 . S
H492 C498 0.949 . S
C493 H488 0.950 . S
C493 C495 1.327 . S
C493 C499 1.429 . S
C494 C486 1.574 1_565 S
C494 H489 0.949 . S
C494 C500 1.368 . S
C495 C479 1.349 . S
C495 H487 0.950 . S
C495 C493 1.327 . S
C496 C484 1.349 . S
C496 H490 0.950 . S
C496 C497 1.327 . S
C497 H491 0.950 . S
C497 C496 1.327 . S
C497 C501 1.429 . S
C498 C481 1.574 1_545 S
C498 H492 0.949 . S
C498 C502 1.368 . S
C499 C480 1.429 . S
C499 C493 1.429 . S
C499 C500 1.523 . S
C500 C481 1.368 . S
C500 C494 1.368 . S
C500 C499 1.523 . S
C501 C485 1.429 . S
C501 C497 1.429 . S
C501 C502 1.523 . S
C502 C486 1.368 . S
C502 C498 1.368 . S
C502 C501 1.523 . S
H503 C478 0.950 . S
H504 C480 0.950 . S
H505 C481 0.949 . S
H506 C483 0.950 . S
H507 C485 0.950 . S
C508 C509 1.349 . S
C508 C510 1.327 . S
C508 H533 0.950 . S
C509 C508 1.349 . S
C509 C525 1.349 . S
C510 C508 1.327 . S
C510 C529 1.429 . S
C510 H534 0.950 . S
C511 C528 1.574 . S
C511 C530 1.368 . S
C511 H535 0.949 . S
H512 C516 0.949 . S
C513 C514 1.349 . S
C513 C515 1.327 . S
C513 H536 0.950 . S
C514 C513 1.349 . S
C514 C526 1.349 . S
C515 C513 1.327 . S
C515 C531 1.429 . S
C515 H537 0.950 . S
C516 H512 0.949 . S
C516 C524 1.574 . S
C516 C532 1.368 . S
H517 C525 0.950 . S
H518 C523 0.950 . S
H519 C524 0.949 . S
H520 C526 0.950 . S
H521 C527 0.950 . S
H522 C528 0.949 . S
C523 H518 0.950 . S
C523 C525 1.327 . S
C523 C529 1.429 . S
C524 C516 1.574 . S
C524 H519 0.949 . S
C524 C530 1.368 . S
C525 C509 1.349 . S
C525 H517 0.950 . S
C525 C523 1.327 . S
C526 C514 1.349 . S
C526 H520 0.950 . S
C526 C527 1.327 . S
C527 H521 0.950 . S
C527 C526 1.327 . S
C527 C531 1.429 . S
C528 C511 1.574 . S
C528 H522 0.949 . S
C528 C532 1.368 . S
C529 C510 1.429 . S
C529 C523 1.429 . S
C529 C530 1.523 . S
C530 C511 1.368 . S
C530 C524 1.368 . S
C530 C529 1.523 . S
C531 C515 1.429 . S
C531 C527 1.429 . S
C531 C532 1.523 . S
C532 C516 1.368 . S
C532 C528 1.368 . S
C532 C531 1.523 . S
H533 C508 0.950 . S
H534 C510 0.950 . S
H535 C511 0.949 . S
H536 C513 0.950 . S
H537 C515 0.950 . S
C538 C539 1.349 . S
C538 C540 1.327 . S
C538 H563 0.950 . S
C539 C538 1.349 . S
C539 C555 1.349 . S
C540 C538 1.327 . S
C540 C559 1.429 . S
C540 H564 0.950 . S
C541 C558 1.574 1_545 S
C541 C560 1.368 . S
C541 H565 0.949 . S
H542 C546 0.949 . S
C543 C544 1.349 . S
C543 C545 1.327 . S
C543 H566 0.950 . S
C544 C543 1.349 . S
C544 C556 1.349 . S
C545 C543 1.327 . S
C545 C561 1.429 . S
C545 H567 0.950 . S
C546 H542 0.949 . S
C546 C554 1.574 1_565 S
C546 C562 1.368 . S
H547 C555 0.950 . S
H548 C553 0.950 . S
H549 C554 0.949 . S
H550 C556 0.950 . S
H551 C557 0.950 . S
H552 C558 0.949 . S
C553 H548 0.950 . S
C553 C555 1.327 . S
C553 C559 1.429 . S
C554 C546 1.574 1_545 S
C554 H549 0.949 . S
C554 C560 1.368 . S
C555 C539 1.349 . S
C555 H547 0.950 . S
C555 C553 1.327 . S
C556 C544 1.349 . S
C556 H550 0.950 . S
C556 C557 1.327 . S
C557 H551 0.950 . S
C557 C556 1.327 . S
C557 C561 1.429 . S
C558 C541 1.574 1_565 S
C558 H552 0.949 . S
C558 C562 1.368 . S
C559 C540 1.429 . S
C559 C553 1.429 . S
C559 C560 1.523 . S
C560 C541 1.368 . S
C560 C554 1.368 . S
C560 C559 1.523 . S
C561 C545 1.429 . S
C561 C557 1.429 . S
C561 C562 1.523 . S
C562 C546 1.368 . S
C562 C558 1.368 . S
C562 C561 1.523 . S
H563 C538 0.950 . S
H564 C540 0.950 . S
H565 C541 0.949 . S
H566 C543 0.950 . S
H567 C545 0.950 . S
C568 C569 1.349 . S
C568 C570 1.327 . S
C568 H593 0.950 . S
C569 C568 1.349 . S
C569 C585 1.349 . S
C570 C568 1.327 . S
C570 C589 1.429 . S
C570 H594 0.950 1_554 S
C571 C588 1.574 . S
C571 C590 1.368 . S
C571 H595 0.949 . S
H572 C576 0.949 . S
C573 C574 1.349 . S
C573 C575 1.327 . S
C573 H596 0.950 . S
C574 C573 1.349 . S
C574 C586 1.349 . S
C575 C573 1.327 . S
C575 C591 1.429 . S
C575 H597 0.950 1_556 S
C576 H572 0.949 . S
C576 C584 1.574 . S
C576 C592 1.368 . S
H577 C585 0.950 . S
H578 C583 0.950 . S
H579 C584 0.949 . S
H580 C586 0.950 . S
H581 C587 0.950 . S
H582 C588 0.949 . S
C583 H578 0.950 . S
C583 C585 1.327 . S
C583 C589 1.429 . S
C584 C576 1.574 . S
C584 H579 0.949 . S
C584 C590 1.368 1_556 S
C585 C569 1.349 . S
C585 H577 0.950 . S
C585 C583 1.327 . S
C586 C574 1.349 . S
C586 H580 0.950 . S
C586 C587 1.327 . S
C587 H581 0.950 . S
C587 C586 1.327 . S
C587 C591 1.429 . S
C588 C571 1.574 . S
C588 H582 0.949 . S
C588 C592 1.368 1_554 S
C589 C570 1.429 . S
C589 C583 1.429 . S
C589 C590 1.523 . S
C590 C571 1.368 . S
C590 C584 1.368 1_554 S
C590 C589 1.523 . S
C591 C575 1.429 . S
C591 C587 1.429 . S
C591 C592 1.523 . S
C592 C576 1.368 . S
C592 C588 1.368 1_556 S
C592 C591 1.523 . S
H593 C568 0.950 . S
H594 C570 0.950 1_556 S
H595 C571 0.949 . S
H596 C573 0.950 . S
H597 C575 0.950 1_554 S
C598 C599 1.349 . S
C598 C600 1.327 . S
C598 H623 0.950 . S
C599 C598 1.349 . S
C599 C615 1.349 . S
C600 C598 1.327 . S
C600 C619 1.429 . S
C600 H624 0.950 . S
C601 C618 1.574 1_565 S
C601 C620 1.368 . S
C601 H625 0.949 . S
H602 C606 0.949 . S
C603 C604 1.349 . S
C603 C605 1.327 . S
C603 H626 0.950 . S
C604 C603 1.349 . S
C604 C616 1.349 . S
C605 C603 1.327 . S
C605 C621 1.429 . S
C605 H627 0.950 . S
C606 H602 0.949 . S
C606 C614 1.574 1_545 S
C606 C622 1.368 . S
H607 C615 0.950 . S
H608 C613 0.950 . S
H609 C614 0.949 . S
H610 C616 0.950 . S
H611 C617 0.950 . S
H612 C618 0.949 . S
C613 H608 0.950 . S
C613 C615 1.327 . S
C613 C619 1.429 . S
C614 C606 1.574 1_565 S
C614 H609 0.949 . S
C614 C620 1.368 . S
C615 C599 1.349 . S
C615 H607 0.950 . S
C615 C613 1.327 . S
C616 C604 1.349 . S
C616 H610 0.950 . S
C616 C617 1.327 . S
C617 H611 0.950 . S
C617 C616 1.327 . S
C617 C621 1.429 . S
C618 C601 1.574 1_545 S
C618 H612 0.949 . S
C618 C622 1.368 . S
C619 C600 1.429 . S
C619 C613 1.429 . S
C619 C620 1.523 . S
C620 C601 1.368 . S
C620 C614 1.368 . S
C620 C619 1.523 . S
C621 C605 1.429 . S
C621 C617 1.429 . S
C621 C622 1.523 . S
C622 C606 1.368 . S
C622 C618 1.368 . S
C622 C621 1.523 . S
H623 C598 0.950 . S
H624 C600 0.950 . S
H625 C601 0.949 . S
H626 C603 0.950 . S
H627 C605 0.950 . S
C628 C629 1.349 . S
C628 C630 1.327 . S
C628 H653 0.950 . S
C629 C628 1.349 . S
C629 C645 1.349 . S
C630 C628 1.327 . S
C630 C649 1.429 . S
C630 H654 0.950 . S
C631 C648 1.574 . S
C631 C650 1.368 . S
C631 H655 0.949 . S
H632 C636 0.949 . S
C633 C634 1.349 . S
C633 C635 1.327 . S
C633 H656 0.950 . S
C634 C633 1.349 . S
C634 C646 1.349 . S
C635 C633 1.327 . S
C635 C651 1.429 . S
C635 H657 0.950 . S
C636 H632 0.949 . S
C636 C644 1.574 . S
C636 C652 1.368 . S
H637 C645 0.950 . S
H638 C643 0.950 . S
H639 C644 0.949 . S
H640 C646 0.950 . S
H641 C647 0.950 . S
H642 C648 0.949 . S
C643 H638 0.950 . S
C643 C645 1.327 . S
C643 C649 1.429 . S
C644 C636 1.574 . S
C644 H639 0.949 . S
C644 C650 1.368 . S
C645 C629 1.349 . S
C645 H637 0.950 . S
C645 C643 1.327 . S
C646 C634 1.349 . S
C646 H640 0.950 . S
C646 C647 1.327 . S
C647 H641 0.950 . S
C647 C646 1.327 . S
C647 C651 1.429 . S
C648 C631 1.574 . S
C648 H642 0.949 . S
C648 C652 1.368 . S
C649 C630 1.429 . S
C649 C643 1.429 . S
C649 C650 1.523 . S
C650 C631 1.368 . S
C650 C644 1.368 . S
C650 C649 1.523 . S
C651 C635 1.429 . S
C651 C647 1.429 . S
C651 C652 1.523 . S
C652 C636 1.368 . S
C652 C648 1.368 . S
C652 C651 1.523 . S
H653 C628 0.950 . S
H654 C630 0.950 . S
H655 C631 0.949 . S
H656 C633 0.950 . S
H657 C635 0.950 . S
C658 C659 1.349 . S
C658 C660 1.327 . S
C658 H683 0.950 . S
C659 C658 1.349 . S
C659 C675 1.349 . S
C660 C658 1.327 . S
C660 C679 1.429 . S
C660 H684 0.950 . S
C661 C678 1.574 1_565 S
C661 C680 1.368 . S
C661 H685 0.949 . S
H662 C666 0.949 . S
C663 C664 1.349 . S
C663 C665 1.327 . S
C663 H686 0.950 . S
C664 C663 1.349 . S
C664 C676 1.349 . S
C665 C663 1.327 . S
C665 C681 1.429 . S
C665 H687 0.950 . S
C666 H662 0.949 . S
C666 C674 1.574 1_545 S
C666 C682 1.368 . S
H667 C675 0.950 . S
H668 C673 0.950 . S
H669 C674 0.949 . S
H670 C676 0.950 . S
H671 C677 0.950 . S
H672 C678 0.949 . S
C673 H668 0.950 . S
C673 C675 1.327 . S
C673 C679 1.429 . S
C674 C666 1.574 1_565 S
C674 H669 0.949 . S
C674 C680 1.368 . S
C675 C659 1.349 . S
C675 H667 0.950 . S
C675 C673 1.327 . S
C676 C664 1.349 . S
C676 H670 0.950 . S
C676 C677 1.327 . S
C677 H671 0.950 . S
C677 C676 1.327 . S
C677 C681 1.429 . S
C678 C661 1.574 1_545 S
C678 H672 0.949 . S
C678 C682 1.368 . S
C679 C660 1.429 . S
C679 C673 1.429 . S
C679 C680 1.523 . S
C680 C661 1.368 . S
C680 C674 1.368 . S
C680 C679 1.523 . S
C681 C665 1.429 . S
C681 C677 1.429 . S
C681 C682 1.523 . S
C682 C666 1.368 . S
C682 C678 1.368 . S
C682 C681 1.523 . S
H683 C658 0.950 . S
H684 C660 0.950 . S
H685 C661 0.949 . S
H686 C663 0.950 . S
H687 C665 0.950 . S
C688 C689 1.349 . S
C688 C690 1.327 . S
C688 H713 0.950 . S
C689 C688 1.349 . S
C689 C705 1.349 . S
C690 C688 1.327 . S
C690 C709 1.429 . S
C690 H714 0.950 . S
C691 C708 1.574 . S
C691 C710 1.368 . S
C691 H715 0.949 . S
H692 C696 0.949 . S
C693 C694 1.349 . S
C693 C695 1.327 . S
C693 H716 0.950 . S
C694 C693 1.349 . S
C694 C706 1.349 . S
C695 C693 1.327 . S
C695 C711 1.429 . S
C695 H717 0.950 . S
C696 H692 0.949 . S
C696 C704 1.574 . S
C696 C712 1.368 . S
H697 C705 0.950 . S
H698 C703 0.950 . S
H699 C704 0.949 . S
H700 C706 0.950 . S
H701 C707 0.950 . S
H702 C708 0.949 . S
C703 H698 0.950 . S
C703 C705 1.327 . S
C703 C709 1.429 . S
C704 C696 1.574 . S
C704 H699 0.949 . S
C704 C710 1.368 . S
C705 C689 1.349 . S
C705 H697 0.950 . S
C705 C703 1.327 . S
C706 C694 1.349 . S
C706 H700 0.950 . S
C706 C707 1.327 . S
C707 H701 0.950 . S
C707 C706 1.327 . S
C707 C711 1.429 . S
C708 C691 1.574 . S
C708 H702 0.949 . S
C708 C712 1.368 . S
C709 C690 1.429 . S
C709 C703 1.429 . S
C709 C710 1.523 . S
C710 C691 1.368 . S
C710 C704 1.368 . S
C710 C709 1.523 . S
C711 C695 1.429 . S
C711 C707 1.429 . S
C711 C712 1.523 . S
C712 C696 1.368 . S
C712 C708 1.368 . S
C712 C711 1.523 . S
H713 C688 0.950 . S
H714 C690 0.950 . S
H715 C691 0.949 . S
H716 C693 0.950 . S
H717 C695 0.950 . S
C718 C719 1.349 . S
C718 C720 1.327 . S
C718 H743 0.950 . S
C719 C718 1.349 . S
C719 C735 1.349 . S
C720 C718 1.327 . S
C720 C739 1.429 . S
C720 H744 0.950 . S
C721 C738 1.574 . S
C721 C740 1.368 . S
C721 H745 0.949 . S
H722 C726 0.949 . S
C723 C724 1.349 . S
C723 C725 1.327 . S
C723 H746 0.950 . S
C724 C723 1.349 . S
C724 C736 1.349 . S
C725 C723 1.327 . S
C725 C741 1.429 . S
C725 H747 0.950 . S
C726 H722 0.949 . S
C726 C734 1.574 . S
C726 C742 1.368 . S
H727 C735 0.950 . S
H728 C733 0.950 . S
H729 C734 0.949 . S
H730 C736 0.950 . S
H731 C737 0.950 . S
H732 C738 0.949 . S
C733 H728 0.950 . S
C733 C735 1.327 . S
C733 C739 1.429 . S
C734 C726 1.574 . S
C734 H729 0.949 . S
C734 C740 1.368 . S
C735 C719 1.349 . S
C735 H727 0.950 . S
C735 C733 1.327 . S
C736 C724 1.349 . S
C736 H730 0.950 . S
C736 C737 1.327 . S
C737 H731 0.950 . S
C737 C736 1.327 . S
C737 C741 1.429 . S
C738 C721 1.574 . S
C738 H732 0.949 . S
C738 C742 1.368 . S
C739 C720 1.429 . S
C739 C733 1.429 . S
C739 C740 1.523 . S
C740 C721 1.368 . S
C740 C734 1.368 . S
C740 C739 1.523 . S
C741 C725 1.429 . S
C741 C737 1.429 . S
C741 C742 1.523 . S
C742 C726 1.368 . S
C742 C738 1.368 . S
C742 C741 1.523 . S
H743 C718 0.950 . S
H744 C720 0.950 . S
H745 C721 0.949 . S
H746 C723 0.950 . S
H747 C725 0.950 . S
C748 C749 1.349 . S
C748 C750 1.327 . S
C748 H773 0.950 . S
C749 C748 1.349 . S
C749 C765 1.349 . S
C750 C748 1.327 . S
C750 C769 1.429 . S
C750 H774 0.950 1_556 S
C751 C768 1.574 . S
C751 C770 1.368 . S
C751 H775 0.949 . S
H752 C756 0.949 . S
C753 C754 1.349 . S
C753 C755 1.327 . S
C753 H776 0.950 . S
C754 C753 1.349 . S
C754 C766 1.349 . S
C755 C753 1.327 . S
C755 C771 1.429 . S
C755 H777 0.950 1_554 S
C756 H752 0.949 . S
C756 C764 1.574 . S
C756 C772 1.368 . S
H757 C765 0.950 . S
H758 C763 0.950 . S
H759 C764 0.949 . S
H760 C766 0.950 . S
H761 C767 0.950 . S
H762 C768 0.949 . S
C763 H758 0.950 . S
C763 C765 1.327 . S
C763 C769 1.429 . S
C764 C756 1.574 . S
C764 H759 0.949 . S
C764 C770 1.368 1_554 S
C765 C749 1.349 . S
C765 H757 0.950 . S
C765 C763 1.327 . S
C766 C754 1.349 . S
C766 H760 0.950 . S
C766 C767 1.327 . S
C767 H761 0.950 . S
C767 C766 1.327 . S
C767 C771 1.429 . S
C768 C751 1.574 . S
C768 H762 0.949 . S
C768 C772 1.368 1_556 S
C769 C750 1.429 . S
C769 C763 1.429 . S
C769 C770 1.523 . S
C770 C751 1.368 . S
C770 C764 1.368 1_556 S
C770 C769 1.523 . S
C771 C755 1.429 . S
C771 C767 1.429 . S
C771 C772 1.523 . S
C772 C756 1.368 . S
C772 C768 1.368 1_554 S
C772 C771 1.523 . S
H773 C748 0.950 . S
H774 C750 0.950 1_554 S
H775 C751 0.949 . S
H776 C753 0.950 . S
H777 C755 0.950 1_556 S
C778 C779 1.349 . S
C778 C780 1.327 . S
C778 H803 0.950 . S
C779 C778 1.349 . S
C779 C795 1.349 . S
C780 C778 1.327 . S
C780 C799 1.429 . S
C780 H804 0.950 . S
C781 C798 1.574 . S
C781 C800 1.368 . S
C781 H805 0.949 . S
H782 C786 0.949 . S
C783 C784 1.349 . S
C783 C785 1.327 . S
C783 H806 0.950 . S
C784 C783 1.349 . S
C784 C796 1.349 . S
C785 C783 1.327 . S
C785 C801 1.429 . S
C785 H807 0.950 . S
C786 H782 0.949 . S
C786 C794 1.574 . S
C786 C802 1.368 . S
H787 C795 0.950 . S
H788 C793 0.950 . S
H789 C794 0.949 . S
H790 C796 0.950 . S
H791 C797 0.950 . S
H792 C798 0.949 . S
C793 H788 0.950 . S
C793 C795 1.327 . S
C793 C799 1.429 . S
C794 C786 1.574 . S
C794 H789 0.949 . S
C794 C800 1.368 . S
C795 C779 1.349 . S
C795 H787 0.950 . S
C795 C793 1.327 . S
C796 C784 1.349 . S
C796 H790 0.950 . S
C796 C797 1.327 . S
C797 H791 0.950 . S
C797 C796 1.327 . S
C797 C801 1.429 . S
C798 C781 1.574 . S
C798 H792 0.949 . S
C798 C802 1.368 . S
C799 C780 1.429 . S
C799 C793 1.429 . S
C799 C800 1.523 . S
C800 C781 1.368 . S
C800 C794 1.368 . S
C800 C799 1.523 . S
C801 C785 1.429 . S
C801 C797 1.429 . S
C801 C802 1.523 . S
C802 C786 1.368 . S
C802 C798 1.368 . S
C802 C801 1.523 . S
H803 C778 0.950 . S
H804 C780 0.950 . S
H805 C781 0.949 . S
H806 C783 0.950 . S
H807 C785 0.950 . S
C808 C809 1.349 . S
C808 C810 1.327 . S
C808 H833 0.950 . S
C809 C808 1.349 . S
C809 C825 1.349 . S
C810 C808 1.327 . S
C810 C829 1.429 . S
C810 H834 0.950 . S
C811 C828 1.574 . S
C811 C830 1.368 . S
C811 H835 0.949 . S
H812 C816 0.949 . S
C813 C814 1.349 . S
C813 C815 1.327 . S
C813 H836 0.950 . S
C814 C813 1.349 . S
C814 C826 1.349 . S
C815 C813 1.327 . S
C815 C831 1.429 . S
C815 H837 0.950 . S
C816 H812 0.949 . S
C816 C824 1.574 . S
C816 C832 1.368 . S
H817 C825 0.950 . S
H818 C823 0.950 . S
H819 C824 0.949 . S
H820 C826 0.950 . S
H821 C827 0.950 . S
H822 C828 0.949 . S
C823 H818 0.950 . S
C823 C825 1.327 . S
C823 C829 1.429 . S
C824 C816 1.574 . S
C824 H819 0.949 . S
C824 C830 1.368 . S
C825 C809 1.349 . S
C825 H817 0.950 . S
C825 C823 1.327 . S
C826 C814 1.349 . S
C826 H820 0.950 . S
C826 C827 1.327 . S
C827 H821 0.950 . S
C827 C826 1.327 . S
C827 C831 1.429 . S
C828 C811 1.574 . S
C828 H822 0.949 . S
C828 C832 1.368 . S
C829 C810 1.429 . S
C829 C823 1.429 . S
C829 C830 1.523 . S
C830 C811 1.368 . S
C830 C824 1.368 . S
C830 C829 1.523 . S
C831 C815 1.429 . S
C831 C827 1.429 . S
C831 C832 1.523 . S
C832 C816 1.368 . S
C832 C828 1.368 . S
C832 C831 1.523 . S
H833 C808 0.950 . S
H834 C810 0.950 . S
H835 C811 0.949 . S
H836 C813 0.950 . S
H837 C815 0.950 . S
C838 C839 1.349 . S
C838 C840 1.327 . S
C838 H863 0.950 . S
C839 C838 1.349 . S
C839 C855 1.349 . S
C840 C838 1.327 . S
C840 C859 1.429 . S
C840 H864 0.950 . S
C841 C858 1.574 . S
C841 C860 1.368 . S
C841 H865 0.949 . S
H842 C846 0.949 . S
C843 C844 1.349 . S
C843 C845 1.327 . S
C843 H866 0.950 . S
C844 C843 1.349 . S
C844 C856 1.349 . S
C845 C843 1.327 . S
C845 C861 1.429 . S
C845 H867 0.950 . S
C846 H842 0.949 . S
C846 C854 1.574 . S
C846 C862 1.368 . S
H847 C855 0.950 . S
H848 C853 0.950 . S
H849 C854 0.949 . S
H850 C856 0.950 . S
H851 C857 0.950 . S
H852 C858 0.949 . S
C853 H848 0.950 . S
C853 C855 1.327 . S
C853 C859 1.429 . S
C854 C846 1.574 . S
C854 H849 0.949 . S
C854 C860 1.368 . S
C855 C839 1.349 . S
C855 H847 0.950 . S
C855 C853 1.327 . S
C856 C844 1.349 . S
C856 H850 0.950 . S
C856 C857 1.327 . S
C857 H851 0.950 . S
C857 C856 1.327 . S
C857 C861 1.429 . S
C858 C841 1.574 . S
C858 H852 0.949 . S
C858 C862 1.368 . S
C859 C840 1.429 . S
C859 C853 1.429 . S
C859 C860 1.523 . S
C860 C841 1.368 . S
C860 C854 1.368 . S
C860 C859 1.523 . S
C861 C845 1.429 . S
C861 C857 1.429 . S
C861 C862 1.523 . S
C862 C846 1.368 . S
C862 C858 1.368 . S
C862 C861 1.523 . S
H863 C838 0.950 . S
H864 C840 0.950 . S
H865 C841 0.949 . S
H866 C843 0.950 . S
H867 C845 0.950 . S
C868 C869 1.349 . S
C868 C870 1.327 . S
C868 H893 0.950 . S
C869 C868 1.349 . S
C869 C885 1.349 . S
C870 C868 1.327 . S
C870 C889 1.429 . S
C870 H894 0.950 . S
C871 C888 1.574 . S
C871 C890 1.368 1_556 S
C871 H895 0.949 . S
H872 C876 0.949 . S
C873 C874 1.349 . S
C873 C875 1.327 . S
C873 H896 0.950 . S
C874 C873 1.349 . S
C874 C886 1.349 . S
C875 C873 1.327 . S
C875 C891 1.429 . S
C875 H897 0.950 . S
C876 H872 0.949 . S
C876 C884 1.574 . S
C876 C892 1.368 1_554 S
H877 C885 0.950 . S
H878 C883 0.950 1_556 S
H879 C884 0.949 . S
H880 C886 0.950 . S
H881 C887 0.950 1_554 S
H882 C888 0.949 . S
C883 H878 0.950 1_554 S
C883 C885 1.327 . S
C883 C889 1.429 . S
C884 C876 1.574 . S
C884 H879 0.949 . S
C884 C890 1.368 . S
C885 C869 1.349 . S
C885 H877 0.950 . S
C885 C883 1.327 . S
C886 C874 1.349 . S
C886 H880 0.950 . S
C886 C887 1.327 . S
C887 H881 0.950 1_556 S
C887 C886 1.327 . S
C887 C891 1.429 . S
C888 C871 1.574 . S
C888 H882 0.949 . S
C888 C892 1.368 . S
C889 C870 1.429 . S
C889 C883 1.429 . S
C889 C890 1.523 . S
C890 C871 1.368 1_554 S
C890 C884 1.368 . S
C890 C889 1.523 . S
C891 C875 1.429 . S
C891 C887 1.429 . S
C891 C892 1.523 . S
C892 C876 1.368 1_556 S
C892 C888 1.368 . S
C892 C891 1.523 . S
H893 C868 0.950 . S
H894 C870 0.950 . S
H895 C871 0.949 . S
H896 C873 0.950 . S
H897 C875 0.950 . S
C898 C899 1.349 . S
C898 C900 1.327 . S
C898 H923 0.950 . S
C899 C898 1.349 . S
C899 C915 1.349 . S
C900 C898 1.327 . S
C900 C919 1.429 . S
C900 H924 0.950 . S
C901 C918 1.574 . S
C901 C920 1.368 . S
C901 H925 0.949 . S
H902 C906 0.949 . S
C903 C904 1.349 . S
C903 C905 1.327 . S
C903 H926 0.950 . S
C904 C903 1.349 . S
C904 C916 1.349 . S
C905 C903 1.327 . S
C905 C921 1.429 . S
C905 H927 0.950 . S
C906 H902 0.949 . S
C906 C914 1.574 . S
C906 C922 1.368 . S
H907 C915 0.950 . S
H908 C913 0.950 . S
H909 C914 0.949 . S
H910 C916 0.950 . S
H911 C917 0.950 . S
H912 C918 0.949 . S
C913 H908 0.950 . S
C913 C915 1.327 . S
C913 C919 1.429 . S
C914 C906 1.574 . S
C914 H909 0.949 . S
C914 C920 1.368 . S
C915 C899 1.349 . S
C915 H907 0.950 . S
C915 C913 1.327 . S
C916 C904 1.349 . S
C916 H910 0.950 . S
C916 C917 1.327 . S
C917 H911 0.950 . S
C917 C916 1.327 . S
C917 C921 1.429 . S
C918 C901 1.574 . S
C918 H912 0.949 . S
C918 C922 1.368 . S
C919 C900 1.429 . S
C919 C913 1.429 . S
C919 C920 1.523 . S
C920 C901 1.368 . S
C920 C914 1.368 . S
C920 C919 1.523 . S
C921 C905 1.429 . S
C921 C917 1.429 . S
C921 C922 1.523 . S
C922 C906 1.368 . S
C922 C918 1.368 . S
C922 C921 1.523 . S
H923 C898 0.950 . S
H924 C900 0.950 . S
H925 C901 0.949 . S
H926 C903 0.950 . S
H927 C905 0.950 . S
C928 C929 1.349 . S
C928 C930 1.327 . S
C928 H953 0.950 . S
C929 C928 1.349 . S
C929 C945 1.349 . S
C930 C928 1.327 . S
C930 C949 1.429 . S
C930 H954 0.950 . S
C931 C948 1.574 . S
C931 C950 1.368 . S
C931 H955 0.949 . S
H932 C936 0.949 . S
C933 C934 1.349 . S
C933 C935 1.327 . S
C933 H956 0.950 . S
C934 C933 1.349 . S
C934 C946 1.349 . S
C935 C933 1.327 . S
C935 C951 1.429 . S
C935 H957 0.950 . S
C936 H932 0.949 . S
C936 C944 1.574 . S
C936 C952 1.368 . S
H937 C945 0.950 . S
H938 C943 0.950 . S
H939 C944 0.949 . S
H940 C946 0.950 . S
H941 C947 0.950 . S
H942 C948 0.949 . S
C943 H938 0.950 . S
C943 C945 1.327 . S
C943 C949 1.429 . S
C944 C936 1.574 . S
C944 H939 0.949 . S
C944 C950 1.368 . S
C945 C929 1.349 . S
C945 H937 0.950 . S
C945 C943 1.327 . S
C946 C934 1.349 . S
C946 H940 0.950 . S
C946 C947 1.327 . S
C947 H941 0.950 . S
C947 C946 1.327 . S
C947 C951 1.429 . S
C948 C931 1.574 . S
C948 H942 0.949 . S
C948 C952 1.368 . S
C949 C930 1.429 . S
C949 C943 1.429 . S
C949 C950 1.523 . S
C950 C931 1.368 . S
C950 C944 1.368 . S
C950 C949 1.523 . S
C951 C935 1.429 . S
C951 C947 1.429 . S
C951 C952 1.523 . S
C952 C936 1.368 . S
C952 C948 1.368 . S
C952 C951 1.523 . S
H953 C928 0.950 . S
H954 C930 0.950 . S
H955 C931 0.949 . S
H956 C933 0.950 . S
H957 C935 0.950 . S
C958 C959 1.349 . S
C958 C960 1.327 . S
C958 H983 0.950 . S
C959 C958 1.349 . S
C959 C975 1.349 . S
C960 C958 1.327 . S
C960 C979 1.437 . S
C960 H984 0.950 . S
C961 C978 1.616 . S
C961 C980 1.368 . S
C961 H985 0.949 . S
H962 C966 0.949 . S
C963 C964 1.349 . S
C963 C965 1.327 . S
C963 H986 0.950 . S
C964 C963 1.349 . S
C964 C976 1.349 . S
C965 C963 1.327 . S
C965 C981 1.429 . S
C965 H987 0.950 . S
C966 H962 0.949 . S
C966 C974 1.574 . S
C966 C982 1.368 . S
H967 C975 0.950 . S
H968 C973 0.950 1_554 S
H969 C974 0.949 . S
H970 C976 0.950 . S
H971 C977 0.950 . S
H972 C978 0.957 . S
C973 H968 0.950 1_556 S
C973 C975 1.327 . S
C973 C979 1.431 . S
C974 C966 1.574 . S
C974 H969 0.949 . S
C974 C980 1.368 1_655 S
C975 C959 1.349 . S
C975 H967 0.950 . S
C975 C973 1.327 . S
C976 C964 1.349 . S
C976 H970 0.950 . S
C976 C977 1.327 . S
C977 H971 0.950 . S
C977 C976 1.327 . S
C977 C981 1.429 . S
C978 C961 1.616 . S
C978 H972 0.957 . S
C978 C982 1.322 1_455 S
C979 C960 1.437 . S
C979 C973 1.431 . S
C979 C980 1.512 1_556 S
C980 C961 1.368 . S
C980 C974 1.368 1_455 S
C980 C979 1.512 1_554 S
C981 C965 1.429 . S
C981 C977 1.429 . S
C981 C982 1.523 . S
C982 C966 1.368 . S
C982 C978 1.322 1_655 S
C982 C981 1.523 . S
H983 C958 0.950 . S
H984 C960 0.950 . S
H985 C961 0.949 . S
H986 C963 0.950 . S
H987 C965 0.950 . S
C988 C989 1.349 . S
C988 C990 1.327 . S
C988 H1013 0.950 . S
C989 C988 1.349 . S
C989 C1005 1.349 . S
C990 C988 1.327 . S
C990 C1009 1.429 . S
C990 H1014 0.950 . S
C991 C1008 1.574 . S
C991 C1010 1.368 . S
C991 H1015 0.949 . S
H992 C996 0.949 . S
C993 C994 1.349 . S
C993 C995 1.327 . S
C993 H1016 0.950 . S
C994 C993 1.349 . S
C994 C1006 1.349 . S
C995 C993 1.327 . S
C995 C1011 1.429 . S
C995 H1017 0.950 . S
C996 H992 0.949 . S
C996 C1004 1.574 . S
C996 C1012 1.368 . S
H997 C1005 0.950 . S
H998 C1003 0.950 . S
H999 C1004 0.949 . S
H1000 C1006 0.950 . S
H1001 C1007 0.950 . S
H1002 C1008 0.949 . S
C1003 H998 0.950 . S
C1003 C1005 1.327 . S
C1003 C1009 1.429 . S
C1004 C996 1.574 . S
C1004 H999 0.949 . S
C1004 C1010 1.368 . S
C1005 C989 1.349 . S
C1005 H997 0.950 . S
C1005 C1003 1.327 . S
C1006 C994 1.349 . S
C1006 H1000 0.950 . S
C1006 C1007 1.327 . S
C1007 H1001 0.950 . S
C1007 C1006 1.327 . S
C1007 C1011 1.429 . S
C1008 C991 1.574 . S
C1008 H1002 0.949 . S
C1008 C1012 1.368 . S
C1009 C990 1.429 . S
C1009 C1003 1.429 . S
C1009 C1010 1.523 . S
C1010 C991 1.368 . S
C1010 C1004 1.368 . S
C1010 C1009 1.523 . S
C1011 C995 1.429 . S
C1011 C1007 1.429 . S
C1011 C1012 1.523 . S
C1012 C996 1.368 . S
C1012 C1008 1.368 . S
C1012 C1011 1.523 . S
H1013 C988 0.950 . S
H1014 C990 0.950 . S
H1015 C991 0.949 . S
H1016 C993 0.950 . S
H1017 C995 0.950 . S
C1018 C1019 1.349 . S
C1018 C1020 1.327 . S
C1018 H1043 0.950 . S
C1019 C1018 1.349 . S
C1019 C1035 1.349 . S
C1020 C1018 1.327 . S
C1020 C1039 1.429 . S
C1020 H1044 0.950 . S
C1021 C1038 1.574 . S
C1021 C1040 1.368 . S
C1021 H1045 0.949 . S
H1022 C1026 0.949 . S
C1023 C1024 1.349 . S
C1023 C1025 1.327 . S
C1023 H1046 0.950 . S
C1024 C1023 1.349 . S
C1024 C1036 1.349 . S
C1025 C1023 1.327 . S
C1025 C1041 1.429 . S
C1025 H1047 0.950 . S
C1026 H1022 0.949 . S
C1026 C1034 1.574 . S
C1026 C1042 1.368 . S
H1027 C1035 0.950 . S
H1028 C1033 0.950 . S
H1029 C1034 0.949 . S
H1030 C1036 0.950 . S
H1031 C1037 0.950 . S
H1032 C1038 0.949 . S
C1033 H1028 0.950 . S
C1033 C1035 1.327 . S
C1033 C1039 1.429 . S
C1034 C1026 1.574 . S
C1034 H1029 0.949 . S
C1034 C1040 1.368 . S
C1035 C1019 1.349 . S
C1035 H1027 0.950 . S
C1035 C1033 1.327 . S
C1036 C1024 1.349 . S
C1036 H1030 0.950 . S
C1036 C1037 1.327 . S
C1037 H1031 0.950 . S
C1037 C1036 1.327 . S
C1037 C1041 1.429 . S
C1038 C1021 1.574 . S
C1038 H1032 0.949 . S
C1038 C1042 1.368 . S
C1039 C1020 1.429 . S
C1039 C1033 1.429 . S
C1039 C1040 1.523 . S
C1040 C1021 1.368 . S
C1040 C1034 1.368 . S
C1040 C1039 1.523 . S
C1041 C1025 1.429 . S
C1041 C1037 1.429 . S
C1041 C1042 1.523 . S
C1042 C1026 1.368 . S
C1042 C1038 1.368 . S
C1042 C1041 1.523 . S
H1043 C1018 0.950 . S
H1044 C1020 0.950 . S
H1045 C1021 0.949 . S
H1046 C1023 0.950 . S
H1047 C1025 0.950 . S
C1048 C1049 1.349 . S
C1048 C1050 1.327 . S
C1048 H1073 0.950 . S
C1049 C1048 1.349 . S
C1049 C1065 1.349 . S
C1050 C1048 1.327 . S
C1050 C1069 1.429 . S
C1050 H1074 0.950 . S
C1051 C1068 1.574 . S
C1051 C1070 1.368 . S
C1051 H1075 0.949 . S
H1052 C1056 0.949 . S
C1053 C1054 1.349 . S
C1053 C1055 1.327 . S
C1053 H1076 0.950 . S
C1054 C1053 1.349 . S
C1054 C1066 1.349 . S
C1055 C1053 1.327 . S
C1055 C1071 1.429 . S
C1055 H1077 0.950 . S
C1056 H1052 0.949 . S
C1056 C1064 1.574 . S
C1056 C1072 1.368 . S
H1057 C1065 0.950 . S
H1058 C1063 0.950 . S
H1059 C1064 0.949 . S
H1060 C1066 0.950 . S
H1061 C1067 0.950 . S
H1062 C1068 0.949 . S
C1063 H1058 0.950 . S
C1063 C1065 1.327 . S
C1063 C1069 1.429 . S
C1064 C1056 1.574 . S
C1064 H1059 0.949 . S
C1064 C1070 1.368 . S
C1065 C1049 1.349 . S
C1065 H1057 0.950 . S
C1065 C1063 1.327 . S
C1066 C1054 1.349 . S
C1066 H1060 0.950 . S
C1066 C1067 1.327 . S
C1067 H1061 0.950 . S
C1067 C1066 1.327 . S
C1067 C1071 1.429 . S
C1068 C1051 1.574 . S
C1068 H1062 0.949 . S
C1068 C1072 1.368 . S
C1069 C1050 1.429 . S
C1069 C1063 1.429 . S
C1069 C1070 1.523 . S
C1070 C1051 1.368 . S
C1070 C1064 1.368 . S
C1070 C1069 1.523 . S
C1071 C1055 1.429 . S
C1071 C1067 1.429 . S
C1071 C1072 1.523 . S
C1072 C1056 1.368 . S
C1072 C1068 1.368 . S
C1072 C1071 1.523 . S
H1073 C1048 0.950 . S
H1074 C1050 0.950 . S
H1075 C1051 0.949 . S
H1076 C1053 0.950 . S
H1077 C1055 0.950 . S
C1078 C1079 1.349 . S
C1078 C1080 1.327 . S
C1078 H1103 0.950 . S
C1079 C1078 1.349 . S
C1079 C1095 1.349 . S
C1080 C1078 1.327 . S
C1080 C1099 1.431 . S
C1080 H1104 0.950 1_554 S
C1081 C1098 1.574 . S
C1081 C1100 1.368 . S
C1081 H1105 0.949 . S
H1082 C1086 0.949 . S
C1083 C1084 1.349 . S
C1083 C1085 1.327 . S
C1083 H1106 0.950 . S
C1084 C1083 1.349 . S
C1084 C1096 1.349 . S
C1085 C1083 1.327 . S
C1085 C1101 1.429 . S
C1085 H1107 0.950 . S
C1086 H1082 0.949 . S
C1086 C1094 1.574 . S
C1086 C1102 1.368 . S
H1087 C1095 0.950 . S
H1088 C1093 0.950 . S
H1089 C1094 0.949 . S
H1090 C1096 0.950 . S
H1091 C1097 0.950 . S
H1092 C1098 0.949 . S
C1093 H1088 0.950 . S
C1093 C1095 1.327 . S
C1093 C1099 1.437 . S
C1094 C1086 1.574 . S
C1094 H1089 0.949 . S
C1094 C1100 1.368 . S
C1095 C1079 1.349 . S
C1095 H1087 0.950 . S
C1095 C1093 1.327 . S
C1096 C1084 1.349 . S
C1096 H1090 0.950 . S
C1096 C1097 1.327 . S
C1097 H1091 0.950 . S
C1097 C1096 1.327 . S
C1097 C1101 1.429 . S
C1098 C1081 1.574 . S
C1098 H1092 0.949 . S
C1098 C1102 1.368 . S
C1099 C1080 1.431 . S
C1099 C1093 1.437 . S
C1099 C1100 1.512 1_554 S
C1100 C1081 1.368 . S
C1100 C1094 1.368 . S
C1100 C1099 1.512 1_556 S
C1101 C1085 1.429 . S
C1101 C1097 1.429 . S
C1101 C1102 1.523 . S
C1102 C1086 1.368 . S
C1102 C1098 1.368 . S
C1102 C1101 1.523 . S
H1103 C1078 0.950 . S
H1104 C1080 0.950 1_556 S
H1105 C1081 0.949 . S
H1106 C1083 0.950 . S
H1107 C1085 0.950 . S
C1108 C1109 1.349 . S
C1108 C1110 1.327 . S
C1108 H1133 0.950 . S
C1109 C1108 1.349 . S
C1109 C1125 1.349 . S
C1110 C1108 1.327 . S
C1110 C1129 1.429 . S
C1110 H1134 0.950 . S
C1111 C1128 1.574 . S
C1111 C1130 1.368 . S
C1111 H1135 0.949 . S
H1112 C1116 0.949 . S
C1113 C1114 1.349 . S
C1113 C1115 1.327 . S
C1113 H1136 0.950 . S
C1114 C1113 1.349 . S
C1114 C1126 1.349 . S
C1115 C1113 1.327 . S
C1115 C1131 1.429 . S
C1115 H1137 0.950 . S
C1116 H1112 0.949 . S
C1116 C1124 1.574 . S
C1116 C1132 1.368 . S
H1117 C1125 0.950 . S
H1118 C1123 0.950 . S
H1119 C1124 0.949 . S
H1120 C1126 0.950 . S
H1121 C1127 0.950 . S
H1122 C1128 0.949 . S
C1123 H1118 0.950 . S
C1123 C1125 1.327 . S
C1123 C1129 1.429 . S
C1124 C1116 1.574 . S
C1124 H1119 0.949 . S
C1124 C1130 1.368 . S
C1125 C1109 1.349 . S
C1125 H1117 0.950 . S
C1125 C1123 1.327 . S
C1126 C1114 1.349 . S
C1126 H1120 0.950 . S
C1126 C1127 1.327 . S
C1127 H1121 0.950 . S
C1127 C1126 1.327 . S
C1127 C1131 1.429 . S
C1128 C1111 1.574 . S
C1128 H1122 0.949 . S
C1128 C1132 1.368 . S
C1129 C1110 1.429 . S
C1129 C1123 1.429 . S
C1129 C1130 1.523 . S
C1130 C1111 1.368 . S
C1130 C1124 1.368 . S
C1130 C1129 1.523 . S
C1131 C1115 1.429 . S
C1131 C1127 1.429 . S
C1131 C1132 1.523 . S
C1132 C1116 1.368 . S
C1132 C1128 1.368 . S
C1132 C1131 1.523 . S
H1133 C1108 0.950 . S
H1134 C1110 0.950 . S
H1135 C1111 0.949 . S
H1136 C1113 0.950 . S
H1137 C1115 0.950 . S
C1138 C1139 1.349 . S
C1138 C1140 1.327 . S
C1138 H1163 0.950 . S
C1139 C1138 1.349 . S
C1139 C1155 1.349 . S
C1140 C1138 1.327 . S
C1140 C1159 1.429 . S
C1140 H1164 0.950 . S
C1141 C1158 1.574 . S
C1141 C1160 1.368 . S
C1141 H1165 0.949 . S
H1142 C1146 0.949 . S
C1143 C1144 1.349 . S
C1143 C1145 1.327 . S
C1143 H1166 0.950 . S
C1144 C1143 1.349 . S
C1144 C1156 1.349 . S
C1145 C1143 1.327 . S
C1145 C1161 1.429 . S
C1145 H1167 0.950 . S
C1146 H1142 0.949 . S
C1146 C1154 1.574 . S
C1146 C1162 1.368 . S
H1147 C1155 0.950 . S
H1148 C1153 0.950 . S
H1149 C1154 0.949 . S
H1150 C1156 0.950 . S
H1151 C1157 0.950 . S
H1152 C1158 0.949 . S
C1153 H1148 0.950 . S
C1153 C1155 1.327 . S
C1153 C1159 1.429 . S
C1154 C1146 1.574 . S
C1154 H1149 0.949 . S
C1154 C1160 1.368 1_655 S
C1155 C1139 1.349 . S
C1155 H1147 0.950 . S
C1155 C1153 1.327 . S
C1156 C1144 1.349 . S
C1156 H1150 0.950 . S
C1156 C1157 1.327 . S
C1157 H1151 0.950 . S
C1157 C1156 1.327 . S
C1157 C1161 1.429 . S
C1158 C1141 1.574 . S
C1158 H1152 0.949 . S
C1158 C1162 1.368 1_455 S
C1159 C1140 1.429 . S
C1159 C1153 1.429 . S
C1159 C1160 1.523 . S
C1160 C1141 1.368 . S
C1160 C1154 1.368 1_455 S
C1160 C1159 1.523 . S
C1161 C1145 1.429 . S
C1161 C1157 1.429 . S
C1161 C1162 1.523 . S
C1162 C1146 1.368 . S
C1162 C1158 1.368 1_655 S
C1162 C1161 1.523 . S
H1163 C1138 0.950 . S
H1164 C1140 0.950 . S
H1165 C1141 0.949 . S
H1166 C1143 0.950 . S
H1167 C1145 0.950 . S
C1168 C1169 1.349 . S
C1168 C1170 1.327 . S
C1168 H1193 0.950 . S
C1169 C1168 1.349 . S
C1169 C1185 1.349 . S
C1170 C1168 1.327 . S
C1170 C1189 1.429 . S
C1170 H1194 0.950 . S
C1171 C1188 1.574 . S
C1171 C1190 1.368 . S
C1171 H1195 0.949 . S
H1172 C1176 0.949 . S
C1173 C1174 1.349 . S
C1173 C1175 1.327 . S
C1173 H1196 0.950 . S
C1174 C1173 1.349 . S
C1174 C1186 1.349 . S
C1175 C1173 1.327 . S
C1175 C1191 1.429 . S
C1175 H1197 0.950 . S
C1176 H1172 0.949 . S
C1176 C1184 1.574 . S
C1176 C1192 1.368 . S
H1177 C1185 0.950 . S
H1178 C1183 0.950 . S
H1179 C1184 0.949 . S
H1180 C1186 0.950 . S
H1181 C1187 0.950 . S
H1182 C1188 0.949 . S
C1183 H1178 0.950 . S
C1183 C1185 1.327 . S
C1183 C1189 1.429 . S
C1184 C1176 1.574 . S
C1184 H1179 0.949 . S
C1184 C1190 1.368 . S
C1185 C1169 1.349 . S
C1185 H1177 0.950 . S
C1185 C1183 1.327 . S
C1186 C1174 1.349 . S
C1186 H1180 0.950 . S
C1186 C1187 1.327 . S
C1187 H1181 0.950 . S
C1187 C1186 1.327 . S
C1187 C1191 1.429 . S
C1188 C1171 1.574 . S
C1188 H1182 0.949 . S
C1188 C1192 1.368 . S
C1189 C1170 1.429 . S
C1189 C1183 1.429 . S
C1189 C1190 1.523 . S
C1190 C1171 1.368 . S
C1190 C1184 1.368 . S
C1190 C1189 1.523 . S
C1191 C1175 1.429 . S
C1191 C1187 1.429 . S
C1191 C1192 1.523 . S
C1192 C1176 1.368 . S
C1192 C1188 1.368 . S
C1192 C1191 1.523 . S
H1193 C1168 0.950 . S
H1194 C1170 0.950 . S
H1195 C1171 0.949 . S
H1196 C1173 0.950 . S
H1197 C1175 0.950 . S
C1198 C1199 1.349 . S
C1198 C1200 1.327 . S
C1198 H1223 0.950 . S
C1199 C1198 1.349 . S
C1199 C1215 1.349 . S
C1200 C1198 1.327 . S
C1200 C1219 1.438 . S
C1200 H1224 0.950 . S
C1201 C1218 1.574 . S
C1201 C1220 1.368 . S
C1201 H1225 0.949 . S
H1202 C1206 0.949 . S
C1203 C1204 1.349 . S
C1203 C1205 1.327 . S
C1203 H1226 0.950 . S
C1204 C1203 1.349 . S
C1204 C1216 1.349 . S
C1205 C1203 1.327 . S
C1205 C1221 1.429 . S
C1205 H1227 0.950 . S
C1206 H1202 0.949 . S
C1206 C1214 1.574 . S
C1206 C1222 1.368 . S
H1207 C1215 0.950 . S
H1208 C1213 0.950 1_556 S
H1209 C1214 0.949 . S
H1210 C1216 0.950 . S
H1211 C1217 0.950 . S
H1212 C1218 0.949 . S
C1213 H1208 0.950 1_554 S
C1213 C1215 1.327 . S
C1213 C1219 1.430 . S
C1214 C1206 1.574 . S
C1214 H1209 0.949 . S
C1214 C1220 1.368 1_455 S
C1215 C1199 1.349 . S
C1215 H1207 0.950 . S
C1215 C1213 1.327 . S
C1216 C1204 1.349 . S
C1216 H1210 0.950 . S
C1216 C1217 1.327 . S
C1217 H1211 0.950 . S
C1217 C1216 1.327 . S
C1217 C1221 1.429 . S
C1218 C1201 1.574 . S
C1218 H1212 0.949 . S
C1218 C1222 1.368 1_655 S
C1219 C1200 1.438 . S
C1219 C1213 1.430 . S
C1219 C1220 1.512 1_554 S
C1220 C1201 1.368 . S
C1220 C1214 1.368 1_655 S
C1220 C1219 1.512 1_556 S
C1221 C1205 1.429 . S
C1221 C1217 1.429 . S
C1221 C1222 1.523 . S
C1222 C1206 1.368 . S
C1222 C1218 1.368 1_455 S
C1222 C1221 1.523 . S
H1223 C1198 0.950 . S
H1224 C1200 0.950 . S
H1225 C1201 0.949 . S
H1226 C1203 0.950 . S
H1227 C1205 0.950 . S
C1228 C1229 1.349 . S
C1228 C1230 1.327 . S
C1228 H1253 0.950 . S
C1229 C1228 1.349 . S
C1229 C1245 1.349 . S
C1230 C1228 1.327 . S
C1230 C1249 1.429 . S
C1230 H1254 0.950 . S
C1231 C1248 1.574 . S
C1231 C1250 1.368 . S
C1231 H1255 0.949 . S
H1232 C1236 0.949 . S
C1233 C1234 1.349 . S
C1233 C1235 1.327 . S
C1233 H1256 0.950 . S
C1234 C1233 1.349 . S
C1234 C1246 1.349 . S
C1235 C1233 1.327 . S
C1235 C1251 1.429 . S
C1235 H1257 0.950 . S
C1236 H1232 0.949 . S
C1236 C1244 1.574 . S
C1236 C1252 1.368 . S
H1237 C1245 0.950 . S
H1238 C1243 0.950 . S
H1239 C1244 0.949 . S
H1240 C1246 0.950 . S
H1241 C1247 0.950 . S
H1242 C1248 0.949 . S
C1243 H1238 0.950 . S
C1243 C1245 1.327 . S
C1243 C1249 1.429 . S
C1244 C1236 1.574 . S
C1244 H1239 0.949 . S
C1244 C1250 1.368 . S
C1245 C1229 1.349 . S
C1245 H1237 0.950 . S
C1245 C1243 1.327 . S
C1246 C1234 1.349 . S
C1246 H1240 0.950 . S
C1246 C1247 1.327 . S
C1247 H1241 0.950 . S
C1247 C1246 1.327 . S
C1247 C1251 1.429 . S
C1248 C1231 1.574 . S
C1248 H1242 0.949 . S
C1248 C1252 1.368 . S
C1249 C1230 1.429 . S
C1249 C1243 1.429 . S
C1249 C1250 1.523 . S
C1250 C1231 1.368 . S
C1250 C1244 1.368 . S
C1250 C1249 1.523 . S
C1251 C1235 1.429 . S
C1251 C1247 1.429 . S
C1251 C1252 1.523 . S
C1252 C1236 1.368 . S
C1252 C1248 1.368 . S
C1252 C1251 1.523 . S
H1253 C1228 0.950 . S
H1254 C1230 0.950 . S
H1255 C1231 0.949 . S
H1256 C1233 0.950 . S
H1257 C1235 0.950 . S
C1258 C1259 1.349 . S
C1258 C1260 1.327 . S
C1258 H1283 0.950 . S
C1259 C1258 1.349 . S
C1259 C1275 1.349 . S
C1260 C1258 1.327 . S
C1260 C1279 1.429 . S
C1260 H1284 0.950 . S
C1261 C1278 1.574 . S
C1261 C1280 1.368 . S
C1261 H1285 0.949 . S
H1262 C1266 0.949 . S
C1263 C1264 1.349 . S
C1263 C1265 1.327 . S
C1263 H1286 0.950 . S
C1264 C1263 1.349 . S
C1264 C1276 1.349 . S
C1265 C1263 1.327 . S
C1265 C1281 1.429 . S
C1265 H1287 0.950 . S
C1266 H1262 0.949 . S
C1266 C1274 1.574 . S
C1266 C1282 1.368 . S
H1267 C1275 0.950 . S
H1268 C1273 0.950 . S
H1269 C1274 0.949 . S
H1270 C1276 0.950 . S
H1271 C1277 0.950 . S
H1272 C1278 0.949 . S
C1273 H1268 0.950 . S
C1273 C1275 1.327 . S
C1273 C1279 1.429 . S
C1274 C1266 1.574 . S
C1274 H1269 0.949 . S
C1274 C1280 1.368 . S
C1275 C1259 1.349 . S
C1275 H1267 0.950 . S
C1275 C1273 1.327 . S
C1276 C1264 1.349 . S
C1276 H1270 0.950 . S
C1276 C1277 1.327 . S
C1277 H1271 0.950 . S
C1277 C1276 1.327 . S
C1277 C1281 1.429 . S
C1278 C1261 1.574 . S
C1278 H1272 0.949 . S
C1278 C1282 1.368 . S
C1279 C1260 1.429 . S
C1279 C1273 1.429 . S
C1279 C1280 1.523 . S
C1280 C1261 1.368 . S
C1280 C1274 1.368 . S
C1280 C1279 1.523 . S
C1281 C1265 1.429 . S
C1281 C1277 1.429 . S
C1281 C1282 1.523 . S
C1282 C1266 1.368 . S
C1282 C1278 1.368 . S
C1282 C1281 1.523 . S
H1283 C1258 0.950 . S
H1284 C1260 0.950 . S
H1285 C1261 0.949 . S
H1286 C1263 0.950 . S
H1287 C1265 0.950 . S
C1288 C1289 1.349 . S
C1288 C1290 1.327 . S
C1288 H1313 0.950 . S
C1289 C1288 1.349 . S
C1289 C1305 1.349 . S
C1290 C1288 1.327 . S
C1290 C1309 1.429 . S
C1290 H1314 0.950 . S
C1291 C1308 1.574 . S
C1291 C1310 1.368 . S
C1291 H1315 0.949 . S
H1292 C1296 0.949 . S
C1293 C1294 1.349 . S
C1293 C1295 1.327 . S
C1293 H1316 0.950 . S
C1294 C1293 1.349 . S
C1294 C1306 1.349 . S
C1295 C1293 1.327 . S
C1295 C1311 1.429 . S
C1295 H1317 0.950 . S
C1296 H1292 0.949 . S
C1296 C1304 1.574 . S
C1296 C1312 1.368 . S
H1297 C1305 0.950 . S
H1298 C1303 0.950 . S
H1299 C1304 0.949 . S
H1300 C1306 0.950 . S
H1301 C1307 0.950 . S
H1302 C1308 0.949 . S
C1303 H1298 0.950 . S
C1303 C1305 1.327 . S
C1303 C1309 1.429 . S
C1304 C1296 1.574 . S
C1304 H1299 0.949 . S
C1304 C1310 1.368 . S
C1305 C1289 1.349 . S
C1305 H1297 0.950 . S
C1305 C1303 1.327 . S
C1306 C1294 1.349 . S
C1306 H1300 0.950 . S
C1306 C1307 1.327 . S
C1307 H1301 0.950 . S
C1307 C1306 1.327 . S
C1307 C1311 1.429 . S
C1308 C1291 1.574 . S
C1308 H1302 0.949 . S
C1308 C1312 1.368 . S
C1309 C1290 1.429 . S
C1309 C1303 1.429 . S
C1309 C1310 1.523 . S
C1310 C1291 1.368 . S
C1310 C1304 1.368 . S
C1310 C1309 1.523 . S
C1311 C1295 1.429 . S
C1311 C1307 1.429 . S
C1311 C1312 1.523 . S
C1312 C1296 1.368 . S
C1312 C1308 1.368 . S
C1312 C1311 1.523 . S
H1313 C1288 0.950 . S
H1314 C1290 0.950 . S
H1315 C1291 0.949 . S
H1316 C1293 0.950 . S
H1317 C1295 0.950 . S
C1318 C1319 1.349 . S
C1318 C1320 1.327 . S
C1318 H1343 0.950 . S
C1319 C1318 1.349 . S
C1319 C1335 1.349 . S
C1320 C1318 1.327 . S
C1320 C1339 1.429 . S
C1320 H1344 0.950 . S
C1321 C1338 1.574 . S
C1321 C1340 1.368 . S
C1321 H1345 0.949 . S
H1322 C1326 0.949 . S
C1323 C1324 1.349 . S
C1323 C1325 1.327 . S
C1323 H1346 0.950 . S
C1324 C1323 1.349 . S
C1324 C1336 1.349 . S
C1325 C1323 1.327 . S
C1325 C1341 1.432 . S
C1325 H1347 0.950 1_556 S
C1326 H1322 0.949 . S
C1326 C1334 1.574 . S
C1326 C1342 1.368 . S
H1327 C1335 0.950 . S
H1328 C1333 0.950 . S
H1329 C1334 0.949 . S
H1330 C1336 0.950 . S
H1331 C1337 0.950 . S
H1332 C1338 0.949 . S
C1333 H1328 0.950 . S
C1333 C1335 1.327 . S
C1333 C1339 1.429 . S
C1334 C1326 1.574 . S
C1334 H1329 0.949 . S
C1334 C1340 1.368 . S
C1335 C1319 1.349 . S
C1335 H1327 0.950 . S
C1335 C1333 1.327 . S
C1336 C1324 1.349 . S
C1336 H1330 0.950 . S
C1336 C1337 1.327 . S
C1337 H1331 0.950 . S
C1337 C1336 1.327 . S
C1337 C1341 1.437 . S
C1338 C1321 1.574 . S
C1338 H1332 0.949 . S
C1338 C1342 1.368 . S
C1339 C1320 1.429 . S
C1339 C1333 1.429 . S
C1339 C1340 1.523 . S
C1340 C1321 1.368 . S
C1340 C1334 1.368 . S
C1340 C1339 1.523 . S
C1341 C1325 1.432 . S
C1341 C1337 1.437 . S
C1341 C1342 1.512 1_556 S
C1342 C1326 1.368 . S
C1342 C1338 1.368 . S
C1342 C1341 1.512 1_554 S
H1343 C1318 0.950 . S
H1344 C1320 0.950 . S
H1345 C1321 0.949 . S
H1346 C1323 0.950 . S
H1347 C1325 0.950 1_554 S
C1348 C1349 1.349 . S
C1348 C1350 1.327 . S
C1348 H1373 0.950 . S
C1349 C1348 1.349 . S
C1349 C1365 1.349 . S
C1350 C1348 1.327 . S
C1350 C1369 1.429 . S
C1350 H1374 0.950 . S
C1351 C1368 1.574 . S
C1351 C1370 1.368 . S
C1351 H1375 0.949 . S
H1352 C1356 0.949 . S
C1353 C1354 1.349 . S
C1353 C1355 1.327 . S
C1353 H1376 0.950 . S
C1354 C1353 1.349 . S
C1354 C1366 1.349 . S
C1355 C1353 1.327 . S
C1355 C1371 1.429 . S
C1355 H1377 0.950 . S
C1356 H1352 0.949 . S
C1356 C1364 1.574 . S
C1356 C1372 1.368 . S
H1357 C1365 0.950 . S
H1358 C1363 0.950 . S
H1359 C1364 0.949 . S
H1360 C1366 0.950 . S
H1361 C1367 0.950 . S
H1362 C1368 0.949 . S
C1363 H1358 0.950 . S
C1363 C1365 1.327 . S
C1363 C1369 1.429 . S
C1364 C1356 1.574 . S
C1364 H1359 0.949 . S
C1364 C1370 1.368 . S
C1365 C1349 1.349 . S
C1365 H1357 0.950 . S
C1365 C1363 1.327 . S
C1366 C1354 1.349 . S
C1366 H1360 0.950 . S
C1366 C1367 1.327 . S
C1367 H1361 0.950 . S
C1367 C1366 1.327 . S
C1367 C1371 1.429 . S
C1368 C1351 1.574 . S
C1368 H1362 0.949 . S
C1368 C1372 1.368 . S
C1369 C1350 1.429 . S
C1369 C1363 1.429 . S
C1369 C1370 1.523 . S
C1370 C1351 1.368 . S
C1370 C1364 1.368 . S
C1370 C1369 1.523 . S
C1371 C1355 1.429 . S
C1371 C1367 1.429 . S
C1371 C1372 1.523 . S
C1372 C1356 1.368 . S
C1372 C1368 1.368 . S
C1372 C1371 1.523 . S
H1373 C1348 0.950 . S
H1374 C1350 0.950 . S
H1375 C1351 0.949 . S
H1376 C1353 0.950 . S
H1377 C1355 0.950 . S
C1378 C1379 1.349 . S
C1378 C1380 1.327 . S
C1378 H1403 0.950 . S
C1379 C1378 1.349 . S
C1379 C1395 1.349 . S
C1380 C1378 1.327 . S
C1380 C1399 1.429 . S
C1380 H1404 0.950 . S
C1381 C1398 1.628 . S
C1381 C1400 1.368 . S
C1381 H1405 0.949 . S
H1382 C1386 0.949 . S
C1383 C1384 1.349 . S
C1383 C1385 1.327 . S
C1383 H1406 0.950 . S
C1384 C1383 1.349 . S
C1384 C1396 1.349 . S
C1385 C1383 1.327 . S
C1385 C1401 1.429 . S
C1385 H1407 0.950 . S
C1386 H1382 0.949 . S
C1386 C1394 1.574 . S
C1386 C1402 1.368 . S
H1387 C1395 0.950 . S
H1388 C1393 0.950 . S
H1389 C1394 0.949 . S
H1390 C1396 0.950 . S
H1391 C1397 0.950 . S
H1392 C1398 0.962 . S
C1393 H1388 0.950 . S
C1393 C1395 1.327 . S
C1393 C1399 1.429 . S
C1394 C1386 1.574 . S
C1394 H1389 0.949 . S
C1394 C1400 1.368 1_455 S
C1395 C1379 1.349 . S
C1395 H1387 0.950 . S
C1395 C1393 1.327 . S
C1396 C1384 1.349 . S
C1396 H1390 0.950 . S
C1396 C1397 1.327 . S
C1397 H1391 0.950 . S
C1397 C1396 1.327 . S
C1397 C1401 1.429 . S
C1398 C1381 1.628 . S
C1398 H1392 0.962 . S
C1398 C1402 1.309 1_655 S
C1399 C1380 1.429 . S
C1399 C1393 1.429 . S
C1399 C1400 1.523 . S
C1400 C1381 1.368 . S
C1400 C1394 1.368 1_655 S
C1400 C1399 1.523 . S
C1401 C1385 1.429 . S
C1401 C1397 1.429 . S
C1401 C1402 1.523 . S
C1402 C1386 1.368 . S
C1402 C1398 1.309 1_455 S
C1402 C1401 1.523 . S
H1403 C1378 0.950 . S
H1404 C1380 0.950 . S
H1405 C1381 0.949 . S
H1406 C1383 0.950 . S
H1407 C1385 0.950 . S
C1408 C1409 1.349 . S
C1408 C1410 1.327 . S
C1408 H1433 0.950 . S
C1409 C1408 1.349 . S
C1409 C1425 1.349 . S
C1410 C1408 1.327 . S
C1410 C1429 1.429 . S
C1410 H1434 0.950 . S
C1411 C1428 1.574 . S
C1411 C1430 1.368 . S
C1411 H1435 0.949 . S
H1412 C1416 0.949 . S
C1413 C1414 1.349 . S
C1413 C1415 1.327 . S
C1413 H1436 0.950 . S
C1414 C1413 1.349 . S
C1414 C1426 1.349 . S
C1415 C1413 1.327 . S
C1415 C1431 1.429 . S
C1415 H1437 0.950 . S
C1416 H1412 0.949 . S
C1416 C1424 1.574 . S
C1416 C1432 1.368 . S
H1417 C1425 0.950 . S
H1418 C1423 0.950 . S
H1419 C1424 0.949 . S
H1420 C1426 0.950 . S
H1421 C1427 0.950 . S
H1422 C1428 0.949 . S
C1423 H1418 0.950 . S
C1423 C1425 1.327 . S
C1423 C1429 1.429 . S
C1424 C1416 1.574 . S
C1424 H1419 0.949 . S
C1424 C1430 1.368 . S
C1425 C1409 1.349 . S
C1425 H1417 0.950 . S
C1425 C1423 1.327 . S
C1426 C1414 1.349 . S
C1426 H1420 0.950 . S
C1426 C1427 1.327 . S
C1427 H1421 0.950 . S
C1427 C1426 1.327 . S
C1427 C1431 1.429 . S
C1428 C1411 1.574 . S
C1428 H1422 0.949 . S
C1428 C1432 1.368 . S
C1429 C1410 1.429 . S
C1429 C1423 1.429 . S
C1429 C1430 1.523 . S
C1430 C1411 1.368 . S
C1430 C1424 1.368 . S
C1430 C1429 1.523 . S
C1431 C1415 1.429 . S
C1431 C1427 1.429 . S
C1431 C1432 1.523 . S
C1432 C1416 1.368 . S
C1432 C1428 1.368 . S
C1432 C1431 1.523 . S
H1433 C1408 0.950 . S
H1434 C1410 0.950 . S
H1435 C1411 0.949 . S
H1436 C1413 0.950 . S
H1437 C1415 0.950 . S
C1438 C1439 1.349 . S
C1438 C1440 1.327 . S
C1438 H1463 0.950 . S
C1439 C1438 1.349 . S
C1439 C1455 1.349 . S
C1440 C1438 1.327 . S
C1440 C1459 1.429 . S
C1440 H1464 0.950 . S
C1441 C1458 1.574 . S
C1441 C1460 1.368 . S
C1441 H1465 0.949 . S
H1442 C1446 0.949 . S
C1443 C1444 1.349 . S
C1443 C1445 1.327 . S
C1443 H1466 0.950 . S
C1444 C1443 1.349 . S
C1444 C1456 1.349 . S
C1445 C1443 1.327 . S
C1445 C1461 1.429 . S
C1445 H1467 0.950 . S
C1446 H1442 0.949 . S
C1446 C1454 1.574 . S
C1446 C1462 1.368 . S
H1447 C1455 0.950 . S
H1448 C1453 0.950 . S
H1449 C1454 0.949 . S
H1450 C1456 0.950 . S
H1451 C1457 0.950 . S
H1452 C1458 0.949 . S
C1453 H1448 0.950 . S
C1453 C1455 1.327 . S
C1453 C1459 1.429 . S
C1454 C1446 1.574 . S
C1454 H1449 0.949 . S
C1454 C1460 1.368 . S
C1455 C1439 1.349 . S
C1455 H1447 0.950 . S
C1455 C1453 1.327 . S
C1456 C1444 1.349 . S
C1456 H1450 0.950 . S
C1456 C1457 1.327 . S
C1457 H1451 0.950 . S
C1457 C1456 1.327 . S
C1457 C1461 1.429 . S
C1458 C1441 1.574 . S
C1458 H1452 0.949 . S
C1458 C1462 1.368 . S
C1459 C1440 1.429 . S
C1459 C1453 1.429 . S
C1459 C1460 1.523 . S
C1460 C1441 1.368 . S
C1460 C1454 1.368 . S
C1460 C1459 1.523 . S
C1461 C1445 1.429 . S
C1461 C1457 1.429 . S
C1461 C1462 1.523 . S
C1462 C1446 1.368 . S
C1462 C1458 1.368 . S
C1462 C1461 1.523 . S
H1463 C1438 0.950 . S
H1464 C1440 0.950 . S
H1465 C1441 0.949 . S
H1466 C1443 0.950 . S
H1467 C1445 0.950 . S
C1468 C1469 1.349 . S
C1468 C1470 1.327 . S
C1468 H1493 0.950 . S
C1469 C1468 1.349 . S
C1469 C1485 1.349 . S
C1470 C1468 1.327 . S
C1470 C1489 1.429 . S
C1470 H1494 0.950 . S
C1471 C1488 1.574 . S
C1471 C1490 1.368 . S
C1471 H1495 0.949 . S
H1472 C1476 0.949 . S
C1473 C1474 1.349 . S
C1473 C1475 1.327 . S
C1473 H1496 0.950 . S
C1474 C1473 1.349 . S
C1474 C1486 1.349 . S
C1475 C1473 1.327 . S
C1475 C1491 1.429 . S
C1475 H1497 0.950 . S
C1476 H1472 0.949 . S
C1476 C1484 1.574 . S
C1476 C1492 1.368 . S
H1477 C1485 0.950 . S
H1478 C1483 0.950 . S
H1479 C1484 0.949 . S
H1480 C1486 0.950 . S
H1481 C1487 0.950 . S
H1482 C1488 0.949 . S
C1483 H1478 0.950 . S
C1483 C1485 1.327 . S
C1483 C1489 1.429 . S
C1484 C1476 1.574 . S
C1484 H1479 0.949 . S
C1484 C1490 1.368 . S
C1485 C1469 1.349 . S
C1485 H1477 0.950 . S
C1485 C1483 1.327 . S
C1486 C1474 1.349 . S
C1486 H1480 0.950 . S
C1486 C1487 1.327 . S
C1487 H1481 0.950 . S
C1487 C1486 1.327 . S
C1487 C1491 1.429 . S
C1488 C1471 1.574 . S
C1488 H1482 0.949 . S
C1488 C1492 1.368 . S
C1489 C1470 1.429 . S
C1489 C1483 1.429 . S
C1489 C1490 1.523 . S
C1490 C1471 1.368 . S
C1490 C1484 1.368 . S
C1490 C1489 1.523 . S
C1491 C1475 1.429 . S
C1491 C1487 1.429 . S
C1491 C1492 1.523 . S
C1492 C1476 1.368 . S
C1492 C1488 1.368 . S
C1492 C1491 1.523 . S
H1493 C1468 0.950 . S
H1494 C1470 0.950 . S
H1495 C1471 0.949 . S
H1496 C1473 0.950 . S
H1497 C1475 0.950 . S
C1498 C1499 1.349 . S
C1498 C1500 1.327 . S
C1498 H1523 0.950 . S
C1499 C1498 1.349 . S
C1499 C1515 1.349 . S
C1500 C1498 1.327 . S
C1500 C1519 1.429 . S
C1500 H1524 0.950 . S
C1501 C1518 1.619 . S
C1501 C1520 1.319 1_655 S
C1501 H1525 0.958 . S
H1502 C1506 0.949 . S
C1503 C1504 1.349 . S
C1503 C1505 1.327 . S
C1503 H1526 0.950 . S
C1504 C1503 1.349 . S
C1504 C1516 1.349 . S
C1505 C1503 1.327 . S
C1505 C1521 1.431 . S
C1505 H1527 0.950 1_556 S
C1506 H1502 0.949 . S
C1506 C1514 1.574 . S
C1506 C1522 1.368 1_455 S
H1507 C1515 0.950 . S
H1508 C1513 0.950 . S
H1509 C1514 0.949 . S
H1510 C1516 0.950 . S
H1511 C1517 0.950 . S
H1512 C1518 0.949 . S
C1513 H1508 0.950 . S
C1513 C1515 1.327 . S
C1513 C1519 1.429 . S
C1514 C1506 1.574 . S
C1514 H1509 0.949 . S
C1514 C1520 1.368 . S
C1515 C1499 1.349 . S
C1515 H1507 0.950 . S
C1515 C1513 1.327 . S
C1516 C1504 1.349 . S
C1516 H1510 0.950 . S
C1516 C1517 1.327 . S
C1517 H1511 0.950 . S
C1517 C1516 1.327 . S
C1517 C1521 1.438 . S
C1518 C1501 1.619 . S
C1518 H1512 0.949 . S
C1518 C1522 1.368 . S
C1519 C1500 1.429 . S
C1519 C1513 1.429 . S
C1519 C1520 1.523 . S
C1520 C1501 1.319 1_455 S
C1520 C1514 1.368 . S
C1520 C1519 1.523 . S
C1521 C1505 1.431 . S
C1521 C1517 1.438 . S
C1521 C1522 1.512 1_556 S
C1522 C1506 1.368 1_655 S
C1522 C1518 1.368 . S
C1522 C1521 1.512 1_554 S
H1523 C1498 0.950 . S
H1524 C1500 0.950 . S
H1525 C1501 0.958 . S
H1526 C1503 0.950 . S
H1527 C1505 0.950 1_554 S
C1528 C1529 1.349 . S
C1528 C1530 1.327 . S
C1528 H1553 0.950 . S
C1529 C1528 1.349 . S
C1529 C1545 1.349 . S
C1530 C1528 1.327 . S
C1530 C1549 1.429 . S
C1530 H1554 0.950 . S
C1531 C1548 1.574 . S
C1531 C1550 1.368 . S
C1531 H1555 0.949 . S
H1532 C1536 0.949 . S
C1533 C1534 1.349 . S
C1533 C1535 1.327 . S
C1533 H1556 0.950 . S
C1534 C1533 1.349 . S
C1534 C1546 1.349 . S
C1535 C1533 1.327 . S
C1535 C1551 1.429 . S
C1535 H1557 0.950 . S
C1536 H1532 0.949 . S
C1536 C1544 1.574 . S
C1536 C1552 1.368 . S
H1537 C1545 0.950 . S
H1538 C1543 0.950 . S
H1539 C1544 0.949 . S
H1540 C1546 0.950 . S
H1541 C1547 0.950 . S
H1542 C1548 0.949 . S
C1543 H1538 0.950 . S
C1543 C1545 1.327 . S
C1543 C1549 1.429 . S
C1544 C1536 1.574 . S
C1544 H1539 0.949 . S
C1544 C1550 1.368 . S
C1545 C1529 1.349 . S
C1545 H1537 0.950 . S
C1545 C1543 1.327 . S
C1546 C1534 1.349 . S
C1546 H1540 0.950 . S
C1546 C1547 1.327 . S
C1547 H1541 0.950 . S
C1547 C1546 1.327 . S
C1547 C1551 1.429 . S
C1548 C1531 1.574 . S
C1548 H1542 0.949 . S
C1548 C1552 1.368 . S
C1549 C1530 1.429 . S
C1549 C1543 1.429 . S
C1549 C1550 1.523 . S
C1550 C1531 1.368 . S
C1550 C1544 1.368 . S
C1550 C1549 1.523 . S
C1551 C1535 1.429 . S
C1551 C1547 1.429 . S
C1551 C1552 1.523 . S
C1552 C1536 1.368 . S
C1552 C1548 1.368 . S
C1552 C1551 1.523 . S
H1553 C1528 0.950 . S
H1554 C1530 0.950 . S
H1555 C1531 0.949 . S
H1556 C1533 0.950 . S
H1557 C1535 0.950 . S
C1558 C1559 1.349 . S
C1558 C1560 1.327 . S
C1558 H1583 0.950 . S
C1559 C1558 1.349 . S
C1559 C1575 1.349 . S
C1560 C1558 1.327 . S
C1560 C1579 1.429 . S
C1560 H1584 0.950 . S
C1561 C1578 1.626 . S
C1561 C1580 1.368 . S
C1561 H1585 0.949 . S
H1562 C1566 0.949 . S
C1563 C1564 1.349 . S
C1563 C1565 1.327 . S
C1563 H1586 0.950 . S
C1564 C1563 1.349 . S
C1564 C1576 1.349 . S
C1565 C1563 1.327 . S
C1565 C1581 1.429 . S
C1565 H1587 0.950 . S
C1566 H1562 0.949 . S
C1566 C1574 1.574 . S
C1566 C1582 1.368 . S
H1567 C1575 0.950 . S
H1568 C1573 0.950 . S
H1569 C1574 0.949 . S
H1570 C1576 0.950 . S
H1571 C1577 0.950 . S
H1572 C1578 0.961 . S
C1573 H1568 0.950 . S
C1573 C1575 1.327 . S
C1573 C1579 1.429 . S
C1574 C1566 1.574 . S
C1574 H1569 0.949 . S
C1574 C1580 1.368 1_455 S
C1575 C1559 1.349 . S
C1575 H1567 0.950 . S
C1575 C1573 1.327 . S
C1576 C1564 1.349 . S
C1576 H1570 0.950 . S
C1576 C1577 1.327 . S
C1577 H1571 0.950 . S
C1577 C1576 1.327 . S
C1577 C1581 1.429 . S
C1578 C1561 1.626 . S
C1578 H1572 0.961 . S
C1578 C1582 1.311 1_655 S
C1579 C1560 1.429 . S
C1579 C1573 1.429 . S
C1579 C1580 1.523 . S
C1580 C1561 1.368 . S
C1580 C1574 1.368 1_655 S
C1580 C1579 1.523 . S
C1581 C1565 1.429 . S
C1581 C1577 1.429 . S
C1581 C1582 1.523 . S
C1582 C1566 1.368 . S
C1582 C1578 1.311 1_455 S
C1582 C1581 1.523 . S
H1583 C1558 0.950 . S
H1584 C1560 0.950 . S
H1585 C1561 0.949 . S
H1586 C1563 0.950 . S
H1587 C1565 0.950 . S
C1588 C1589 1.349 . S
C1588 C1590 1.327 . S
C1588 H1613 0.950 . S
C1589 C1588 1.349 . S
C1589 C1605 1.349 . S
C1590 C1588 1.327 . S
C1590 C1609 1.429 . S
C1590 H1614 0.950 . S
C1591 C1608 1.574 . S
C1591 C1610 1.368 . S
C1591 H1615 0.949 . S
H1592 C1596 0.949 . S
C1593 C1594 1.349 . S
C1593 C1595 1.327 . S
C1593 H1616 0.950 . S
C1594 C1593 1.349 . S
C1594 C1606 1.349 . S
C1595 C1593 1.327 . S
C1595 C1611 1.429 . S
C1595 H1617 0.950 . S
C1596 H1592 0.949 . S
C1596 C1604 1.574 . S
C1596 C1612 1.368 . S
H1597 C1605 0.950 . S
H1598 C1603 0.950 . S
H1599 C1604 0.949 . S
H1600 C1606 0.950 . S
H1601 C1607 0.950 . S
H1602 C1608 0.949 . S
C1603 H1598 0.950 . S
C1603 C1605 1.327 . S
C1603 C1609 1.429 . S
C1604 C1596 1.574 . S
C1604 H1599 0.949 . S
C1604 C1610 1.368 . S
C1605 C1589 1.349 . S
C1605 H1597 0.950 . S
C1605 C1603 1.327 . S
C1606 C1594 1.349 . S
C1606 H1600 0.950 . S
C1606 C1607 1.327 . S
C1607 H1601 0.950 . S
C1607 C1606 1.327 . S
C1607 C1611 1.429 . S
C1608 C1591 1.574 . S
C1608 H1602 0.949 . S
C1608 C1612 1.368 . S
C1609 C1590 1.429 . S
C1609 C1603 1.429 . S
C1609 C1610 1.523 . S
C1610 C1591 1.368 . S
C1610 C1604 1.368 . S
C1610 C1609 1.523 . S
C1611 C1595 1.429 . S
C1611 C1607 1.429 . S
C1611 C1612 1.523 . S
C1612 C1596 1.368 . S
C1612 C1608 1.368 . S
C1612 C1611 1.523 . S
H1613 C1588 0.950 . S
H1614 C1590 0.950 . S
H1615 C1591 0.949 . S
H1616 C1593 0.950 . S
H1617 C1595 0.950 . S
C1618 C1619 1.349 . S
C1618 C1620 1.327 . S
C1618 H1643 0.950 . S
C1619 C1618 1.349 . S
C1619 C1635 1.349 . S
C1620 C1618 1.327 . S
C1620 C1639 1.438 . S
C1620 H1644 0.950 . S
C1621 C1638 1.574 . S
C1621 C1640 1.368 . S
C1621 H1645 0.949 . S
H1622 C1626 0.949 . S
C1623 C1624 1.349 . S
C1623 C1625 1.327 . S
C1623 H1646 0.950 . S
C1624 C1623 1.349 . S
C1624 C1636 1.349 . S
C1625 C1623 1.327 . S
C1625 C1641 1.429 . S
C1625 H1647 0.950 . S
C1626 H1622 0.949 . S
C1626 C1634 1.574 . S
C1626 C1642 1.368 . S
H1627 C1635 0.950 . S
H1628 C1633 0.950 1_556 S
H1629 C1634 0.949 . S
H1630 C1636 0.950 . S
H1631 C1637 0.950 . S
H1632 C1638 0.949 . S
C1633 H1628 0.950 1_554 S
C1633 C1635 1.327 . S
C1633 C1639 1.431 . S
C1634 C1626 1.574 . S
C1634 H1629 0.949 . S
C1634 C1640 1.368 . S
C1635 C1619 1.349 . S
C1635 H1627 0.950 . S
C1635 C1633 1.327 . S
C1636 C1624 1.349 . S
C1636 H1630 0.950 . S
C1636 C1637 1.327 . S
C1637 H1631 0.950 . S
C1637 C1636 1.327 . S
C1637 C1641 1.429 . S
C1638 C1621 1.574 . S
C1638 H1632 0.949 . S
C1638 C1642 1.368 . S
C1639 C1620 1.438 . S
C1639 C1633 1.431 . S
C1639 C1640 1.512 1_554 S
C1640 C1621 1.368 . S
C1640 C1634 1.368 . S
C1640 C1639 1.512 1_556 S
C1641 C1625 1.429 . S
C1641 C1637 1.429 . S
C1641 C1642 1.523 . S
C1642 C1626 1.368 . S
C1642 C1638 1.368 . S
C1642 C1641 1.523 . S
H1643 C1618 0.950 . S
H1644 C1620 0.950 . S
H1645 C1621 0.949 . S
H1646 C1623 0.950 . S
H1647 C1625 0.950 . S
C1648 C1649 1.349 . S
C1648 C1650 1.327 . S
C1648 H1673 0.950 . S
C1649 C1648 1.349 . S
C1649 C1665 1.349 . S
C1650 C1648 1.327 . S
C1650 C1669 1.429 . S
C1650 H1674 0.950 . S
C1651 C1668 1.574 . S
C1651 C1670 1.368 . S
C1651 H1675 0.949 . S
H1652 C1656 0.949 . S
C1653 C1654 1.349 . S
C1653 C1655 1.327 . S
C1653 H1676 0.950 . S
C1654 C1653 1.349 . S
C1654 C1666 1.349 . S
C1655 C1653 1.327 . S
C1655 C1671 1.429 . S
C1655 H1677 0.950 . S
C1656 H1652 0.949 . S
C1656 C1664 1.574 . S
C1656 C1672 1.368 . S
H1657 C1665 0.950 . S
H1658 C1663 0.950 . S
H1659 C1664 0.949 . S
H1660 C1666 0.950 . S
H1661 C1667 0.950 . S
H1662 C1668 0.949 . S
C1663 H1658 0.950 . S
C1663 C1665 1.327 . S
C1663 C1669 1.429 . S
C1664 C1656 1.574 . S
C1664 H1659 0.949 . S
C1664 C1670 1.368 . S
C1665 C1649 1.349 . S
C1665 H1657 0.950 . S
C1665 C1663 1.327 . S
C1666 C1654 1.349 . S
C1666 H1660 0.950 . S
C1666 C1667 1.327 . S
C1667 H1661 0.950 . S
C1667 C1666 1.327 . S
C1667 C1671 1.429 . S
C1668 C1651 1.574 . S
C1668 H1662 0.949 . S
C1668 C1672 1.368 . S
C1669 C1650 1.429 . S
C1669 C1663 1.429 . S
C1669 C1670 1.523 . S
C1670 C1651 1.368 . S
C1670 C1664 1.368 . S
C1670 C1669 1.523 . S
C1671 C1655 1.429 . S
C1671 C1667 1.429 . S
C1671 C1672 1.523 . S
C1672 C1656 1.368 . S
C1672 C1668 1.368 . S
C1672 C1671 1.523 . S
H1673 C1648 0.950 . S
H1674 C1650 0.950 . S
H1675 C1651 0.949 . S
H1676 C1653 0.950 . S
H1677 C1655 0.950 . S
C1678 C1679 1.349 . S
C1678 C1680 1.327 . S
C1678 H1703 0.950 . S
C1679 C1678 1.349 . S
C1679 C1695 1.349 . S
C1680 C1678 1.327 . S
C1680 C1699 1.429 . S
C1680 H1704 0.950 . S
C1681 C1698 1.574 . S
C1681 C1700 1.368 . S
C1681 H1705 0.949 . S
H1682 C1686 0.949 . S
C1683 C1684 1.349 . S
C1683 C1685 1.327 . S
C1683 H1706 0.950 . S
C1684 C1683 1.349 . S
C1684 C1696 1.349 . S
C1685 C1683 1.327 . S
C1685 C1701 1.429 . S
C1685 H1707 0.950 . S
C1686 H1682 0.949 . S
C1686 C1694 1.574 . S
C1686 C1702 1.368 . S
H1687 C1695 0.950 . S
H1688 C1693 0.950 . S
H1689 C1694 0.949 . S
H1690 C1696 0.950 . S
H1691 C1697 0.950 . S
H1692 C1698 0.949 . S
C1693 H1688 0.950 . S
C1693 C1695 1.327 . S
C1693 C1699 1.429 . S
C1694 C1686 1.574 . S
C1694 H1689 0.949 . S
C1694 C1700 1.368 . S
C1695 C1679 1.349 . S
C1695 H1687 0.950 . S
C1695 C1693 1.327 . S
C1696 C1684 1.349 . S
C1696 H1690 0.950 . S
C1696 C1697 1.327 . S
C1697 H1691 0.950 . S
C1697 C1696 1.327 . S
C1697 C1701 1.429 . S
C1698 C1681 1.574 . S
C1698 H1692 0.949 . S
C1698 C1702 1.368 . S
C1699 C1680 1.429 . S
C1699 C1693 1.429 . S
C1699 C1700 1.523 . S
C1700 C1681 1.368 . S
C1700 C1694 1.368 . S
C1700 C1699 1.523 . S
C1701 C1685 1.429 . S
C1701 C1697 1.429 . S
C1701 C1702 1.523 . S
C1702 C1686 1.368 . S
C1702 C1698 1.368 . S
C1702 C1701 1.523 . S
H1703 C1678 0.950 . S
H1704 C1680 0.950 . S
H1705 C1681 0.949 . S
H1706 C1683 0.950 . S
H1707 C1685 0.950 . S
C1708 C1709 1.349 . S
C1708 C1710 1.327 . S
C1708 H1733 0.950 . S
C1709 C1708 1.349 . S
C1709 C1725 1.349 . S
C1710 C1708 1.327 . S
C1710 C1729 1.429 . S
C1710 H1734 0.950 . S
C1711 C1728 1.574 . S
C1711 C1730 1.368 . S
C1711 H1735 0.949 . S
H1712 C1716 0.949 . S
C1713 C1714 1.349 . S
C1713 C1715 1.327 . S
C1713 H1736 0.950 . S
C1714 C1713 1.349 . S
C1714 C1726 1.349 . S
C1715 C1713 1.327 . S
C1715 C1731 1.429 . S
C1715 H1737 0.950 . S
C1716 H1712 0.949 . S
C1716 C1724 1.574 . S
C1716 C1732 1.368 . S
H1717 C1725 0.950 . S
H1718 C1723 0.950 . S
H1719 C1724 0.949 . S
H1720 C1726 0.950 . S
H1721 C1727 0.950 . S
H1722 C1728 0.949 . S
C1723 H1718 0.950 . S
C1723 C1725 1.327 . S
C1723 C1729 1.429 . S
C1724 C1716 1.574 . S
C1724 H1719 0.949 . S
C1724 C1730 1.368 . S
C1725 C1709 1.349 . S
C1725 H1717 0.950 . S
C1725 C1723 1.327 . S
C1726 C1714 1.349 . S
C1726 H1720 0.950 . S
C1726 C1727 1.327 . S
C1727 H1721 0.950 . S
C1727 C1726 1.327 . S
C1727 C1731 1.429 . S
C1728 C1711 1.574 . S
C1728 H1722 0.949 . S
C1728 C1732 1.368 . S
C1729 C1710 1.429 . S
C1729 C1723 1.429 . S
C1729 C1730 1.523 . S
C1730 C1711 1.368 . S
C1730 C1724 1.368 . S
C1730 C1729 1.523 . S
C1731 C1715 1.429 . S
C1731 C1727 1.429 . S
C1731 C1732 1.523 . S
C1732 C1716 1.368 . S
C1732 C1728 1.368 . S
C1732 C1731 1.523 . S
H1733 C1708 0.950 . S
H1734 C1710 0.950 . S
H1735 C1711 0.949 . S
H1736 C1713 0.950 . S
H1737 C1715 0.950 . S
C1738 C1739 1.349 . S
C1738 C1740 1.327 . S
C1738 H1763 0.950 . S
C1739 C1738 1.349 . S
C1739 C1755 1.349 . S
C1740 C1738 1.327 . S
C1740 C1759 1.429 . S
C1740 H1764 0.950 . S
C1741 C1758 1.574 . S
C1741 C1760 1.368 . S
C1741 H1765 0.949 . S
H1742 C1746 0.949 . S
C1743 C1744 1.349 . S
C1743 C1745 1.327 . S
C1743 H1766 0.950 . S
C1744 C1743 1.349 . S
C1744 C1756 1.349 . S
C1745 C1743 1.327 . S
C1745 C1761 1.437 . S
C1745 H1767 0.950 . S
C1746 H1742 0.949 . S
C1746 C1754 1.574 . S
C1746 C1762 1.368 . S
H1747 C1755 0.950 . S
H1748 C1753 0.950 . S
H1749 C1754 0.949 . S
H1750 C1756 0.950 . S
H1751 C1757 0.950 1_556 S
H1752 C1758 0.949 . S
C1753 H1748 0.950 . S
C1753 C1755 1.327 . S
C1753 C1759 1.429 . S
C1754 C1746 1.574 . S
C1754 H1749 0.949 . S
C1754 C1760 1.368 1_455 S
C1755 C1739 1.349 . S
C1755 H1747 0.950 . S
C1755 C1753 1.327 . S
C1756 C1744 1.349 . S
C1756 H1750 0.950 . S
C1756 C1757 1.327 . S
C1757 H1751 0.950 1_554 S
C1757 C1756 1.327 . S
C1757 C1761 1.431 . S
C1758 C1741 1.574 . S
C1758 H1752 0.949 . S
C1758 C1762 1.368 1_655 S
C1759 C1740 1.429 . S
C1759 C1753 1.429 . S
C1759 C1760 1.523 . S
C1760 C1741 1.368 . S
C1760 C1754 1.368 1_655 S
C1760 C1759 1.523 . S
C1761 C1745 1.437 . S
C1761 C1757 1.431 . S
C1761 C1762 1.512 1_554 S
C1762 C1746 1.368 . S
C1762 C1758 1.368 1_455 S
C1762 C1761 1.512 1_556 S
H1763 C1738 0.950 . S
H1764 C1740 0.950 . S
H1765 C1741 0.949 . S
H1766 C1743 0.950 . S
H1767 C1745 0.950 . S
C1768 C1769 1.349 . S
C1768 C1770 1.327 . S
C1768 H1793 0.950 . S
C1769 C1768 1.349 . S
C1769 C1785 1.349 . S
C1770 C1768 1.327 . S
C1770 C1789 1.429 . S
C1770 H1794 0.950 . S
C1771 C1788 1.574 . S
C1771 C1790 1.368 . S
C1771 H1795 0.949 . S
H1772 C1776 0.949 . S
C1773 C1774 1.349 . S
C1773 C1775 1.327 . S
C1773 H1796 0.950 . S
C1774 C1773 1.349 . S
C1774 C1786 1.349 . S
C1775 C1773 1.327 . S
C1775 C1791 1.429 . S
C1775 H1797 0.950 . S
C1776 H1772 0.949 . S
C1776 C1784 1.574 . S
C1776 C1792 1.368 . S
H1777 C1785 0.950 . S
H1778 C1783 0.950 . S
H1779 C1784 0.949 . S
H1780 C1786 0.950 . S
H1781 C1787 0.950 . S
H1782 C1788 0.949 . S
C1783 H1778 0.950 . S
C1783 C1785 1.327 . S
C1783 C1789 1.429 . S
C1784 C1776 1.574 . S
C1784 H1779 0.949 . S
C1784 C1790 1.368 . S
C1785 C1769 1.349 . S
C1785 H1777 0.950 . S
C1785 C1783 1.327 . S
C1786 C1774 1.349 . S
C1786 H1780 0.950 . S
C1786 C1787 1.327 . S
C1787 H1781 0.950 . S
C1787 C1786 1.327 . S
C1787 C1791 1.429 . S
C1788 C1771 1.574 . S
C1788 H1782 0.949 . S
C1788 C1792 1.368 . S
C1789 C1770 1.429 . S
C1789 C1783 1.429 . S
C1789 C1790 1.523 . S
C1790 C1771 1.368 . S
C1790 C1784 1.368 . S
C1790 C1789 1.523 . S
C1791 C1775 1.429 . S
C1791 C1787 1.429 . S
C1791 C1792 1.523 . S
C1792 C1776 1.368 . S
C1792 C1788 1.368 . S
C1792 C1791 1.523 . S
H1793 C1768 0.950 . S
H1794 C1770 0.950 . S
H1795 C1771 0.949 . S
H1796 C1773 0.950 . S
H1797 C1775 0.950 . S
C1798 C1799 1.349 . S
C1798 C1800 1.327 . S
C1798 H1823 0.950 . S
C1799 C1798 1.349 . S
C1799 C1815 1.349 . S
C1800 C1798 1.327 . S
C1800 C1819 1.429 . S
C1800 H1824 0.950 . S
C1801 C1818 1.567 1_655 S
C1801 C1820 1.375 . S
C1801 H1825 0.949 . S
H1802 C1806 0.949 . S
C1803 C1804 1.349 . S
C1803 C1805 1.327 . S
C1803 H1826 0.950 . S
C1804 C1803 1.349 . S
C1804 C1816 1.349 . S
C1805 C1803 1.327 . S
C1805 C1821 1.429 . S
C1805 H1827 0.950 . S
C1806 H1802 0.949 . S
C1806 C1814 1.616 . S
C1806 C1822 1.328 1_655 S
H1807 C1815 0.950 . S
H1808 C1813 0.950 . S
H1809 C1814 0.949 . S
H1810 C1816 0.950 . S
H1811 C1817 0.950 . S
H1812 C1818 0.949 . S
C1813 H1808 0.950 . S
C1813 C1815 1.327 . S
C1813 C1819 1.429 . S
C1814 C1806 1.616 . S
C1814 H1809 0.949 . S
C1814 C1820 1.368 . S
C1815 C1799 1.349 . S
C1815 H1807 0.950 . S
C1815 C1813 1.327 . S
C1816 C1804 1.349 . S
C1816 H1810 0.950 . S
C1816 C1817 1.327 . S
C1817 H1811 0.950 . S
C1817 C1816 1.327 . S
C1817 C1821 1.429 . S
C1818 C1801 1.567 1_455 S
C1818 H1812 0.949 . S
C1818 C1822 1.368 . S
C1819 C1800 1.429 . S
C1819 C1813 1.429 . S
C1819 C1820 1.523 . S
C1820 C1801 1.375 . S
C1820 C1814 1.368 . S
C1820 C1819 1.523 . S
C1821 C1805 1.429 . S
C1821 C1817 1.429 . S
C1821 C1822 1.523 . S
C1822 C1806 1.328 1_455 S
C1822 C1818 1.368 . S
C1822 C1821 1.523 . S
H1823 C1798 0.950 . S
H1824 C1800 0.950 . S
H1825 C1801 0.949 . S
H1826 C1803 0.950 . S
H1827 C1805 0.950 . S
C1828 C1829 1.349 . S
C1828 C1830 1.327 . S
C1828 H1853 0.950 . S
C1829 C1828 1.349 . S
C1829 C1845 1.349 . S
C1830 C1828 1.327 . S
C1830 C1849 1.429 . S
C1830 H1854 0.950 . S
C1831 C1848 1.574 . S
C1831 C1850 1.368 . S
C1831 H1855 0.949 . S
H1832 C1836 0.949 . S
C1833 C1834 1.349 . S
C1833 C1835 1.327 . S
C1833 H1856 0.950 . S
C1834 C1833 1.349 . S
C1834 C1846 1.349 . S
C1835 C1833 1.327 . S
C1835 C1851 1.429 . S
C1835 H1857 0.950 . S
C1836 H1832 0.949 . S
C1836 C1844 1.574 . S
C1836 C1852 1.368 . S
H1837 C1845 0.950 . S
H1838 C1843 0.950 . S
H1839 C1844 0.949 . S
H1840 C1846 0.950 . S
H1841 C1847 0.950 . S
H1842 C1848 0.949 . S
C1843 H1838 0.950 . S
C1843 C1845 1.327 . S
C1843 C1849 1.429 . S
C1844 C1836 1.574 . S
C1844 H1839 0.949 . S
C1844 C1850 1.368 . S
C1845 C1829 1.349 . S
C1845 H1837 0.950 . S
C1845 C1843 1.327 . S
C1846 C1834 1.349 . S
C1846 H1840 0.950 . S
C1846 C1847 1.327 . S
C1847 H1841 0.950 . S
C1847 C1846 1.327 . S
C1847 C1851 1.429 . S
C1848 C1831 1.574 . S
C1848 H1842 0.949 . S
C1848 C1852 1.368 . S
C1849 C1830 1.429 . S
C1849 C1843 1.429 . S
C1849 C1850 1.523 . S
C1850 C1831 1.368 . S
C1850 C1844 1.368 . S
C1850 C1849 1.523 . S
C1851 C1835 1.429 . S
C1851 C1847 1.429 . S
C1851 C1852 1.523 . S
C1852 C1836 1.368 . S
C1852 C1848 1.368 . S
C1852 C1851 1.523 . S
H1853 C1828 0.950 . S
H1854 C1830 0.950 . S
H1855 C1831 0.949 . S
H1856 C1833 0.950 . S
H1857 C1835 0.950 . S
C1858 C1859 1.349 . S
C1858 C1860 1.327 . S
C1858 H1883 0.950 . S
C1859 C1858 1.349 . S
C1859 C1875 1.349 . S
C1860 C1858 1.327 . S
C1860 C1879 1.429 . S
C1860 H1884 0.950 . S
C1861 C1878 1.574 . S
C1861 C1880 1.368 . S
C1861 H1885 0.949 . S
H1862 C1866 0.949 . S
C1863 C1864 1.349 . S
C1863 C1865 1.327 . S
C1863 H1886 0.950 . S
C1864 C1863 1.349 . S
C1864 C1876 1.349 . S
C1865 C1863 1.327 . S
C1865 C1881 1.431 . S
C1865 H1887 0.950 1_556 S
C1866 H1862 0.949 . S
C1866 C1874 1.574 . S
C1866 C1882 1.368 . S
H1867 C1875 0.950 . S
H1868 C1873 0.950 . S
H1869 C1874 0.949 . S
H1870 C1876 0.950 . S
H1871 C1877 0.950 . S
H1872 C1878 0.949 . S
C1873 H1868 0.950 . S
C1873 C1875 1.327 . S
C1873 C1879 1.429 . S
C1874 C1866 1.574 . S
C1874 H1869 0.949 . S
C1874 C1880 1.368 . S
C1875 C1859 1.349 . S
C1875 H1867 0.950 . S
C1875 C1873 1.327 . S
C1876 C1864 1.349 . S
C1876 H1870 0.950 . S
C1876 C1877 1.327 . S
C1877 H1871 0.950 . S
C1877 C1876 1.327 . S
C1877 C1881 1.437 . S
C1878 C1861 1.574 . S
C1878 H1872 0.949 . S
C1878 C1882 1.368 . S
C1879 C1860 1.429 . S
C1879 C1873 1.429 . S
C1879 C1880 1.523 . S
C1880 C1861 1.368 . S
C1880 C1874 1.368 . S
C1880 C1879 1.523 . S
C1881 C1865 1.431 . S
C1881 C1877 1.437 . S
C1881 C1882 1.512 1_556 S
C1882 C1866 1.368 . S
C1882 C1878 1.368 . S
C1882 C1881 1.512 1_554 S
H1883 C1858 0.950 . S
H1884 C1860 0.950 . S
H1885 C1861 0.949 . S
H1886 C1863 0.950 . S
H1887 C1865 0.950 1_554 S
C1888 C1889 1.349 . S
C1888 C1890 1.327 . S
C1888 H1913 0.950 . S
C1889 C1888 1.349 . S
C1889 C1905 1.349 . S
C1890 C1888 1.327 . S
C1890 C1909 1.429 . S
C1890 H1914 0.950 . S
C1891 C1908 1.574 . S
C1891 C1910 1.368 . S
C1891 H1915 0.949 . S
H1892 C1896 0.949 . S
C1893 C1894 1.349 . S
C1893 C1895 1.327 . S
C1893 H1916 0.950 . S
C1894 C1893 1.349 . S
C1894 C1906 1.349 . S
C1895 C1893 1.327 . S
C1895 C1911 1.429 . S
C1895 H1917 0.950 . S
C1896 H1892 0.949 . S
C1896 C1904 1.574 . S
C1896 C1912 1.368 . S
H1897 C1905 0.950 . S
H1898 C1903 0.950 . S
H1899 C1904 0.949 . S
H1900 C1906 0.950 . S
H1901 C1907 0.950 . S
H1902 C1908 0.949 . S
C1903 H1898 0.950 . S
C1903 C1905 1.327 . S
C1903 C1909 1.429 . S
C1904 C1896 1.574 . S
C1904 H1899 0.949 . S
C1904 C1910 1.368 . S
C1905 C1889 1.349 . S
C1905 H1897 0.950 . S
C1905 C1903 1.327 . S
C1906 C1894 1.349 . S
C1906 H1900 0.950 . S
C1906 C1907 1.327 . S
C1907 H1901 0.950 . S
C1907 C1906 1.327 . S
C1907 C1911 1.429 . S
C1908 C1891 1.574 . S
C1908 H1902 0.949 . S
C1908 C1912 1.368 . S
C1909 C1890 1.429 . S
C1909 C1903 1.429 . S
C1909 C1910 1.523 . S
C1910 C1891 1.368 . S
C1910 C1904 1.368 . S
C1910 C1909 1.523 . S
C1911 C1895 1.429 . S
C1911 C1907 1.429 . S
C1911 C1912 1.523 . S
C1912 C1896 1.368 . S
C1912 C1908 1.368 . S
C1912 C1911 1.523 . S
H1913 C1888 0.950 . S
H1914 C1890 0.950 . S
H1915 C1891 0.949 . S
H1916 C1893 0.950 . S
H1917 C1895 0.950 . S
C1918 C1919 1.349 . S
C1918 C1920 1.327 . S
C1918 H1943 0.950 . S
C1919 C1918 1.349 . S
C1919 C1935 1.349 . S
C1920 C1918 1.327 . S
C1920 C1939 1.429 . S
C1920 H1944 0.950 . S
C1921 C1938 1.574 . S
C1921 C1940 1.368 . S
C1921 H1945 0.949 . S
H1922 C1926 0.949 . S
C1923 C1924 1.349 . S
C1923 C1925 1.327 . S
C1923 H1946 0.950 . S
C1924 C1923 1.349 . S
C1924 C1936 1.349 . S
C1925 C1923 1.327 . S
C1925 C1941 1.429 . S
C1925 H1947 0.950 . S
C1926 H1922 0.949 . S
C1926 C1934 1.574 . S
C1926 C1942 1.368 . S
H1927 C1935 0.950 . S
H1928 C1933 0.950 . S
H1929 C1934 0.949 . S
H1930 C1936 0.950 . S
H1931 C1937 0.950 . S
H1932 C1938 0.949 . S
C1933 H1928 0.950 . S
C1933 C1935 1.327 . S
C1933 C1939 1.429 . S
C1934 C1926 1.574 . S
C1934 H1929 0.949 . S
C1934 C1940 1.368 . S
C1935 C1919 1.349 . S
C1935 H1927 0.950 . S
C1935 C1933 1.327 . S
C1936 C1924 1.349 . S
C1936 H1930 0.950 . S
C1936 C1937 1.327 . S
C1937 H1931 0.950 . S
C1937 C1936 1.327 . S
C1937 C1941 1.429 . S
C1938 C1921 1.574 . S
C1938 H1932 0.949 . S
C1938 C1942 1.368 . S
C1939 C1920 1.429 . S
C1939 C1933 1.429 . S
C1939 C1940 1.523 . S
C1940 C1921 1.368 . S
C1940 C1934 1.368 . S
C1940 C1939 1.523 . S
C1941 C1925 1.429 . S
C1941 C1937 1.429 . S
C1941 C1942 1.523 . S
C1942 C1926 1.368 . S
C1942 C1938 1.368 . S
C1942 C1941 1.523 . S
H1943 C1918 0.950 . S
H1944 C1920 0.950 . S
H1945 C1921 0.949 . S
H1946 C1923 0.950 . S
H1947 C1925 0.950 . S
C1948 C1949 1.349 . S
C1948 C1950 1.327 . S
C1948 H1973 0.950 . S
C1949 C1948 1.349 . S
C1949 C1965 1.349 . S
C1950 C1948 1.327 . S
C1950 C1969 1.429 . S
C1950 H1974 0.950 . S
C1951 C1968 1.574 . S
C1951 C1970 1.368 . S
C1951 H1975 0.949 . S
H1952 C1956 0.949 . S
C1953 C1954 1.349 . S
C1953 C1955 1.327 . S
C1953 H1976 0.950 . S
C1954 C1953 1.349 . S
C1954 C1966 1.349 . S
C1955 C1953 1.327 . S
C1955 C1971 1.429 . S
C1955 H1977 0.950 . S
C1956 H1952 0.949 . S
C1956 C1964 1.574 . S
C1956 C1972 1.368 . S
H1957 C1965 0.950 . S
H1958 C1963 0.950 . S
H1959 C1964 0.949 . S
H1960 C1966 0.950 . S
H1961 C1967 0.950 . S
H1962 C1968 0.949 . S
C1963 H1958 0.950 . S
C1963 C1965 1.327 . S
C1963 C1969 1.429 . S
C1964 C1956 1.574 . S
C1964 H1959 0.949 . S
C1964 C1970 1.368 . S
C1965 C1949 1.349 . S
C1965 H1957 0.950 . S
C1965 C1963 1.327 . S
C1966 C1954 1.349 . S
C1966 H1960 0.950 . S
C1966 C1967 1.327 . S
C1967 H1961 0.950 . S
C1967 C1966 1.327 . S
C1967 C1971 1.429 . S
C1968 C1951 1.574 . S
C1968 H1962 0.949 . S
C1968 C1972 1.368 . S
C1969 C1950 1.429 . S
C1969 C1963 1.429 . S
C1969 C1970 1.523 . S
C1970 C1951 1.368 . S
C1970 C1964 1.368 . S
C1970 C1969 1.523 . S
C1971 C1955 1.429 . S
C1971 C1967 1.429 . S
C1971 C1972 1.523 . S
C1972 C1956 1.368 . S
C1972 C1968 1.368 . S
C1972 C1971 1.523 . S
H1973 C1948 0.950 . S
H1974 C1950 0.950 . S
H1975 C1951 0.949 . S
H1976 C1953 0.950 . S
H1977 C1955 0.950 . S
C1978 C1979 1.349 . S
C1978 C1980 1.327 . S
C1978 H2003 0.950 . S
C1979 C1978 1.349 . S
C1979 C1995 1.349 . S
C1980 C1978 1.327 . S
C1980 C1999 1.429 . S
C1980 H2004 0.950 . S
C1981 C1998 1.574 . S
C1981 C2000 1.368 . S
C1981 H2005 0.949 . S
H1982 C1986 0.949 . S
C1983 C1984 1.349 . S
C1983 C1985 1.327 . S
C1983 H2006 0.950 . S
C1984 C1983 1.349 . S
C1984 C1996 1.349 . S
C1985 C1983 1.327 . S
C1985 C2001 1.429 . S
C1985 H2007 0.950 . S
C1986 H1982 0.949 . S
C1986 C1994 1.574 . S
C1986 C2002 1.368 . S
H1987 C1995 0.950 . S
H1988 C1993 0.950 . S
H1989 C1994 0.949 . S
H1990 C1996 0.950 . S
H1991 C1997 0.950 . S
H1992 C1998 0.949 . S
C1993 H1988 0.950 . S
C1993 C1995 1.327 . S
C1993 C1999 1.429 . S
C1994 C1986 1.574 . S
C1994 H1989 0.949 . S
C1994 C2000 1.368 . S
C1995 C1979 1.349 . S
C1995 H1987 0.950 . S
C1995 C1993 1.327 . S
C1996 C1984 1.349 . S
C1996 H1990 0.950 . S
C1996 C1997 1.327 . S
C1997 H1991 0.950 . S
C1997 C1996 1.327 . S
C1997 C2001 1.429 . S
C1998 C1981 1.574 . S
C1998 H1992 0.949 . S
C1998 C2002 1.368 . S
C1999 C1980 1.429 . S
C1999 C1993 1.429 . S
C1999 C2000 1.523 . S
C2000 C1981 1.368 . S
C2000 C1994 1.368 . S
C2000 C1999 1.523 . S
C2001 C1985 1.429 . S
C2001 C1997 1.429 . S
C2001 C2002 1.523 . S
C2002 C1986 1.368 . S
C2002 C1998 1.368 . S
C2002 C2001 1.523 . S
H2003 C1978 0.950 . S
H2004 C1980 0.950 . S
H2005 C1981 0.949 . S
H2006 C1983 0.950 . S
H2007 C1985 0.950 . S
C2008 C2009 1.349 . S
C2008 C2010 1.327 . S
C2008 H2033 0.950 . S
C2009 C2008 1.349 . S
C2009 C2025 1.349 . S
C2010 C2008 1.327 . S
C2010 C2029 1.429 . S
C2010 H2034 0.950 . S
C2011 C2028 1.574 . S
C2011 C2030 1.368 . S
C2011 H2035 0.949 . S
H2012 C2016 0.949 . S
C2013 C2014 1.349 . S
C2013 C2015 1.327 . S
C2013 H2036 0.950 . S
C2014 C2013 1.349 . S
C2014 C2026 1.349 . S
C2015 C2013 1.327 . S
C2015 C2031 1.429 . S
C2015 H2037 0.950 . S
C2016 H2012 0.949 . S
C2016 C2024 1.574 . S
C2016 C2032 1.368 . S
H2017 C2025 0.950 . S
H2018 C2023 0.950 . S
H2019 C2024 0.949 . S
H2020 C2026 0.950 . S
H2021 C2027 0.950 . S
H2022 C2028 0.949 . S
C2023 H2018 0.950 . S
C2023 C2025 1.327 . S
C2023 C2029 1.429 . S
C2024 C2016 1.574 . S
C2024 H2019 0.949 . S
C2024 C2030 1.368 . S
C2025 C2009 1.349 . S
C2025 H2017 0.950 . S
C2025 C2023 1.327 . S
C2026 C2014 1.349 . S
C2026 H2020 0.950 . S
C2026 C2027 1.327 . S
C2027 H2021 0.950 . S
C2027 C2026 1.327 . S
C2027 C2031 1.429 . S
C2028 C2011 1.574 . S
C2028 H2022 0.949 . S
C2028 C2032 1.368 . S
C2029 C2010 1.429 . S
C2029 C2023 1.429 . S
C2029 C2030 1.523 . S
C2030 C2011 1.368 . S
C2030 C2024 1.368 . S
C2030 C2029 1.523 . S
C2031 C2015 1.429 . S
C2031 C2027 1.429 . S
C2031 C2032 1.523 . S
C2032 C2016 1.368 . S
C2032 C2028 1.368 . S
C2032 C2031 1.523 . S
H2033 C2008 0.950 . S
H2034 C2010 0.950 . S
H2035 C2011 0.949 . S
H2036 C2013 0.950 . S
H2037 C2015 0.950 . S
C2038 C2039 1.349 . S
C2038 C2040 1.327 . S
C2038 H2063 0.950 . S
C2039 C2038 1.349 . S
C2039 C2055 1.349 . S
C2040 C2038 1.327 . S
C2040 C2059 1.429 . S
C2040 H2064 0.950 . S
C2041 C2058 1.574 . S
C2041 C2060 1.368 . S
C2041 H2065 0.949 . S
H2042 C2046 0.949 . S
C2043 C2044 1.349 . S
C2043 C2045 1.327 . S
C2043 H2066 0.950 . S
C2044 C2043 1.349 . S
C2044 C2056 1.349 . S
C2045 C2043 1.327 . S
C2045 C2061 1.429 . S
C2045 H2067 0.950 . S
C2046 H2042 0.949 . S
C2046 C2054 1.574 . S
C2046 C2062 1.368 . S
H2047 C2055 0.950 . S
H2048 C2053 0.950 . S
H2049 C2054 0.949 . S
H2050 C2056 0.950 . S
H2051 C2057 0.950 . S
H2052 C2058 0.949 . S
C2053 H2048 0.950 . S
C2053 C2055 1.327 . S
C2053 C2059 1.429 . S
C2054 C2046 1.574 . S
C2054 H2049 0.949 . S
C2054 C2060 1.368 . S
C2055 C2039 1.349 . S
C2055 H2047 0.950 . S
C2055 C2053 1.327 . S
C2056 C2044 1.349 . S
C2056 H2050 0.950 . S
C2056 C2057 1.327 . S
C2057 H2051 0.950 . S
C2057 C2056 1.327 . S
C2057 C2061 1.429 . S
C2058 C2041 1.574 . S
C2058 H2052 0.949 . S
C2058 C2062 1.368 . S
C2059 C2040 1.429 . S
C2059 C2053 1.429 . S
C2059 C2060 1.523 . S
C2060 C2041 1.368 . S
C2060 C2054 1.368 . S
C2060 C2059 1.523 . S
C2061 C2045 1.429 . S
C2061 C2057 1.429 . S
C2061 C2062 1.523 . S
C2062 C2046 1.368 . S
C2062 C2058 1.368 . S
C2062 C2061 1.523 . S
H2063 C2038 0.950 . S
H2064 C2040 0.950 . S
H2065 C2041 0.949 . S
H2066 C2043 0.950 . S
H2067 C2045 0.950 . S
C2068 C2069 1.349 . S
C2068 C2070 1.327 . S
C2068 H2093 0.950 . S
C2069 C2068 1.349 . S
C2069 C2085 1.349 . S
C2070 C2068 1.327 . S
C2070 C2089 1.429 . S
C2070 H2094 0.950 . S
C2071 C2088 1.574 . S
C2071 C2090 1.368 . S
C2071 H2095 0.949 . S
H2072 C2076 0.949 . S
C2073 C2074 1.349 . S
C2073 C2075 1.327 . S
C2073 H2096 0.950 . S
C2074 C2073 1.349 . S
C2074 C2086 1.349 . S
C2075 C2073 1.327 . S
C2075 C2091 1.429 . S
C2075 H2097 0.950 . S
C2076 H2072 0.949 . S
C2076 C2084 1.574 . S
C2076 C2092 1.368 . S
H2077 C2085 0.950 . S
H2078 C2083 0.950 . S
H2079 C2084 0.949 . S
H2080 C2086 0.950 . S
H2081 C2087 0.950 . S
H2082 C2088 0.949 . S
C2083 H2078 0.950 . S
C2083 C2085 1.327 . S
C2083 C2089 1.429 . S
C2084 C2076 1.574 . S
C2084 H2079 0.949 . S
C2084 C2090 1.368 . S
C2085 C2069 1.349 . S
C2085 H2077 0.950 . S
C2085 C2083 1.327 . S
C2086 C2074 1.349 . S
C2086 H2080 0.950 . S
C2086 C2087 1.327 . S
C2087 H2081 0.950 . S
C2087 C2086 1.327 . S
C2087 C2091 1.429 . S
C2088 C2071 1.574 . S
C2088 H2082 0.949 . S
C2088 C2092 1.368 . S
C2089 C2070 1.429 . S
C2089 C2083 1.429 . S
C2089 C2090 1.523 . S
C2090 C2071 1.368 . S
C2090 C2084 1.368 . S
C2090 C2089 1.523 . S
C2091 C2075 1.429 . S
C2091 C2087 1.429 . S
C2091 C2092 1.523 . S
C2092 C2076 1.368 . S
C2092 C2088 1.368 . S
C2092 C2091 1.523 . S
H2093 C2068 0.950 . S
H2094 C2070 0.950 . S
H2095 C2071 0.949 . S
H2096 C2073 0.950 . S
H2097 C2075 0.950 . S
C2098 C2099 1.349 . S
C2098 C2100 1.327 . S
C2098 H2123 0.950 . S
C2099 C2098 1.349 . S
C2099 C2115 1.349 . S
C2100 C2098 1.327 . S
C2100 C2119 1.429 . S
C2100 H2124 0.950 . S
C2101 C2118 1.574 . S
C2101 C2120 1.368 . S
C2101 H2125 0.949 . S
H2102 C2106 0.949 . S
C2103 C2104 1.349 . S
C2103 C2105 1.327 . S
C2103 H2126 0.950 . S
C2104 C2103 1.349 . S
C2104 C2116 1.349 . S
C2105 C2103 1.327 . S
C2105 C2121 1.429 . S
C2105 H2127 0.950 . S
C2106 H2102 0.949 . S
C2106 C2114 1.574 . S
C2106 C2122 1.368 . S
H2107 C2115 0.950 . S
H2108 C2113 0.950 . S
H2109 C2114 0.949 . S
H2110 C2116 0.950 . S
H2111 C2117 0.950 . S
H2112 C2118 0.949 . S
C2113 H2108 0.950 . S
C2113 C2115 1.327 . S
C2113 C2119 1.429 . S
C2114 C2106 1.574 . S
C2114 H2109 0.949 . S
C2114 C2120 1.368 . S
C2115 C2099 1.349 . S
C2115 H2107 0.950 . S
C2115 C2113 1.327 . S
C2116 C2104 1.349 . S
C2116 H2110 0.950 . S
C2116 C2117 1.327 . S
C2117 H2111 0.950 . S
C2117 C2116 1.327 . S
C2117 C2121 1.429 . S
C2118 C2101 1.574 . S
C2118 H2112 0.949 . S
C2118 C2122 1.368 . S
C2119 C2100 1.429 . S
C2119 C2113 1.429 . S
C2119 C2120 1.523 . S
C2120 C2101 1.368 . S
C2120 C2114 1.368 . S
C2120 C2119 1.523 . S
C2121 C2105 1.429 . S
C2121 C2117 1.429 . S
C2121 C2122 1.523 . S
C2122 C2106 1.368 . S
C2122 C2118 1.368 . S
C2122 C2121 1.523 . S
H2123 C2098 0.950 . S
H2124 C2100 0.950 . S
H2125 C2101 0.949 . S
H2126 C2103 0.950 . S
H2127 C2105 0.950 . S
C2128 C2129 1.349 . S
C2128 C2130 1.327 . S
C2128 H2153 0.950 . S
C2129 C2128 1.349 . S
C2129 C2145 1.349 . S
C2130 C2128 1.327 . S
C2130 C2149 1.429 . S
C2130 H2154 0.950 . S
C2131 C2148 1.574 . S
C2131 C2150 1.368 . S
C2131 H2155 0.949 . S
H2132 C2136 0.949 . S
C2133 C2134 1.349 . S
C2133 C2135 1.327 . S
C2133 H2156 0.950 . S
C2134 C2133 1.349 . S
C2134 C2146 1.349 . S
C2135 C2133 1.327 . S
C2135 C2151 1.429 . S
C2135 H2157 0.950 . S
C2136 H2132 0.949 . S
C2136 C2144 1.574 . S
C2136 C2152 1.368 . S
H2137 C2145 0.950 . S
H2138 C2143 0.950 . S
H2139 C2144 0.949 . S
H2140 C2146 0.950 . S
H2141 C2147 0.950 . S
H2142 C2148 0.949 . S
C2143 H2138 0.950 . S
C2143 C2145 1.327 . S
C2143 C2149 1.429 . S
C2144 C2136 1.574 . S
C2144 H2139 0.949 . S
C2144 C2150 1.368 . S
C2145 C2129 1.349 . S
C2145 H2137 0.950 . S
C2145 C2143 1.327 . S
C2146 C2134 1.349 . S
C2146 H2140 0.950 . S
C2146 C2147 1.327 . S
C2147 H2141 0.950 . S
C2147 C2146 1.327 . S
C2147 C2151 1.429 . S
C2148 C2131 1.574 . S
C2148 H2142 0.949 . S
C2148 C2152 1.368 . S
C2149 C2130 1.429 . S
C2149 C2143 1.429 . S
C2149 C2150 1.523 . S
C2150 C2131 1.368 . S
C2150 C2144 1.368 . S
C2150 C2149 1.523 . S
C2151 C2135 1.429 . S
C2151 C2147 1.429 . S
C2151 C2152 1.523 . S
C2152 C2136 1.368 . S
C2152 C2148 1.368 . S
C2152 C2151 1.523 . S
H2153 C2128 0.950 . S
H2154 C2130 0.950 . S
H2155 C2131 0.949 . S
H2156 C2133 0.950 . S
H2157 C2135 0.950 . S
C2158 C2159 1.349 . S
C2158 C2160 1.327 . S
C2158 H2183 0.950 . S
C2159 C2158 1.349 . S
C2159 C2175 1.349 . S
C2160 C2158 1.327 . S
C2160 C2179 1.429 . S
C2160 H2184 0.950 . S
C2161 C2178 1.574 . S
C2161 C2180 1.368 . S
C2161 H2185 0.949 . S
H2162 C2166 0.949 . S
C2163 C2164 1.349 . S
C2163 C2165 1.327 . S
C2163 H2186 0.950 . S
C2164 C2163 1.349 . S
C2164 C2176 1.349 . S
C2165 C2163 1.327 . S
C2165 C2181 1.429 . S
C2165 H2187 0.950 . S
C2166 H2162 0.949 . S
C2166 C2174 1.574 . S
C2166 C2182 1.368 . S
H2167 C2175 0.950 . S
H2168 C2173 0.950 . S
H2169 C2174 0.949 . S
H2170 C2176 0.950 . S
H2171 C2177 0.950 . S
H2172 C2178 0.949 . S
C2173 H2168 0.950 . S
C2173 C2175 1.327 . S
C2173 C2179 1.429 . S
C2174 C2166 1.574 . S
C2174 H2169 0.949 . S
C2174 C2180 1.368 . S
C2175 C2159 1.349 . S
C2175 H2167 0.950 . S
C2175 C2173 1.327 . S
C2176 C2164 1.349 . S
C2176 H2170 0.950 . S
C2176 C2177 1.327 . S
C2177 H2171 0.950 . S
C2177 C2176 1.327 . S
C2177 C2181 1.429 . S
C2178 C2161 1.574 . S
C2178 H2172 0.949 . S
C2178 C2182 1.368 . S
C2179 C2160 1.429 . S
C2179 C2173 1.429 . S
C2179 C2180 1.523 . S
C2180 C2161 1.368 . S
C2180 C2174 1.368 . S
C2180 C2179 1.523 . S
C2181 C2165 1.429 . S
C2181 C2177 1.429 . S
C2181 C2182 1.523 . S
C2182 C2166 1.368 . S
C2182 C2178 1.368 . S
C2182 C2181 1.523 . S
H2183 C2158 0.950 . S
H2184 C2160 0.950 . S
H2185 C2161 0.949 . S
H2186 C2163 0.950 . S
H2187 C2165 0.950 . S
C2188 C2189 1.349 . S
C2188 C2190 1.327 . S
C2188 H2213 0.950 . S
C2189 C2188 1.349 . S
C2189 C2205 1.349 . S
C2190 C2188 1.327 . S
C2190 C2209 1.429 . S
C2190 H2214 0.950 . S
C2191 C2208 1.574 . S
C2191 C2210 1.368 . S
C2191 H2215 0.949 . S
H2192 C2196 0.949 . S
C2193 C2194 1.349 . S
C2193 C2195 1.327 . S
C2193 H2216 0.950 . S
C2194 C2193 1.349 . S
C2194 C2206 1.349 . S
C2195 C2193 1.327 . S
C2195 C2211 1.429 . S
C2195 H2217 0.950 . S
C2196 H2192 0.949 . S
C2196 C2204 1.574 . S
C2196 C2212 1.368 . S
H2197 C2205 0.950 . S
H2198 C2203 0.950 . S
H2199 C2204 0.949 . S
H2200 C2206 0.950 . S
H2201 C2207 0.950 . S
H2202 C2208 0.949 . S
C2203 H2198 0.950 . S
C2203 C2205 1.327 . S
C2203 C2209 1.429 . S
C2204 C2196 1.574 . S
C2204 H2199 0.949 . S
C2204 C2210 1.368 . S
C2205 C2189 1.349 . S
C2205 H2197 0.950 . S
C2205 C2203 1.327 . S
C2206 C2194 1.349 . S
C2206 H2200 0.950 . S
C2206 C2207 1.327 . S
C2207 H2201 0.950 . S
C2207 C2206 1.327 . S
C2207 C2211 1.429 . S
C2208 C2191 1.574 . S
C2208 H2202 0.949 . S
C2208 C2212 1.368 . S
C2209 C2190 1.429 . S
C2209 C2203 1.429 . S
C2209 C2210 1.523 . S
C2210 C2191 1.368 . S
C2210 C2204 1.368 . S
C2210 C2209 1.523 . S
C2211 C2195 1.429 . S
C2211 C2207 1.429 . S
C2211 C2212 1.523 . S
C2212 C2196 1.368 . S
C2212 C2208 1.368 . S
C2212 C2211 1.523 . S
H2213 C2188 0.950 . S
H2214 C2190 0.950 . S
H2215 C2191 0.949 . S
H2216 C2193 0.950 . S
H2217 C2195 0.950 . S
C2218 C2219 1.349 . S
C2218 C2220 1.327 . S
C2218 H2243 0.950 . S
C2219 C2218 1.349 . S
C2219 C2235 1.349 . S
C2220 C2218 1.327 . S
C2220 C2239 1.429 . S
C2220 H2244 0.950 . S
C2221 C2238 1.574 . S
C2221 C2240 1.368 . S
C2221 H2245 0.949 . S
H2222 C2226 0.949 . S
C2223 C2224 1.349 . S
C2223 C2225 1.327 . S
C2223 H2246 0.950 . S
C2224 C2223 1.349 . S
C2224 C2236 1.349 . S
C2225 C2223 1.327 . S
C2225 C2241 1.429 . S
C2225 H2247 0.950 . S
C2226 H2222 0.949 . S
C2226 C2234 1.574 . S
C2226 C2242 1.368 . S
H2227 C2235 0.950 . S
H2228 C2233 0.950 . S
H2229 C2234 0.949 . S
H2230 C2236 0.950 . S
H2231 C2237 0.950 . S
H2232 C2238 0.949 . S
C2233 H2228 0.950 . S
C2233 C2235 1.327 . S
C2233 C2239 1.429 . S
C2234 C2226 1.574 . S
C2234 H2229 0.949 . S
C2234 C2240 1.368 . S
C2235 C2219 1.349 . S
C2235 H2227 0.950 . S
C2235 C2233 1.327 . S
C2236 C2224 1.349 . S
C2236 H2230 0.950 . S
C2236 C2237 1.327 . S
C2237 H2231 0.950 . S
C2237 C2236 1.327 . S
C2237 C2241 1.429 . S
C2238 C2221 1.574 . S
C2238 H2232 0.949 . S
C2238 C2242 1.368 . S
C2239 C2220 1.429 . S
C2239 C2233 1.429 . S
C2239 C2240 1.523 . S
C2240 C2221 1.368 . S
C2240 C2234 1.368 . S
C2240 C2239 1.523 . S
C2241 C2225 1.429 . S
C2241 C2237 1.429 . S
C2241 C2242 1.523 . S
C2242 C2226 1.368 . S
C2242 C2238 1.368 . S
C2242 C2241 1.523 . S
H2243 C2218 0.950 . S
H2244 C2220 0.950 . S
H2245 C2221 0.949 . S
H2246 C2223 0.950 . S
H2247 C2225 0.950 . S
C2248 C2249 1.349 . S
C2248 C2250 1.327 . S
C2248 H2273 0.950 . S
C2249 C2248 1.349 . S
C2249 C2265 1.349 . S
C2250 C2248 1.327 . S
C2250 C2269 1.429 . S
C2250 H2274 0.950 . S
C2251 C2268 1.574 . S
C2251 C2270 1.368 . S
C2251 H2275 0.949 . S
H2252 C2256 0.949 . S
C2253 C2254 1.349 . S
C2253 C2255 1.327 . S
C2253 H2276 0.950 . S
C2254 C2253 1.349 . S
C2254 C2266 1.349 . S
C2255 C2253 1.327 . S
C2255 C2271 1.429 . S
C2255 H2277 0.950 . S
C2256 H2252 0.949 . S
C2256 C2264 1.574 . S
C2256 C2272 1.368 . S
H2257 C2265 0.950 . S
H2258 C2263 0.950 . S
H2259 C2264 0.949 . S
H2260 C2266 0.950 . S
H2261 C2267 0.950 . S
H2262 C2268 0.949 . S
C2263 H2258 0.950 . S
C2263 C2265 1.327 . S
C2263 C2269 1.429 . S
C2264 C2256 1.574 . S
C2264 H2259 0.949 . S
C2264 C2270 1.368 . S
C2265 C2249 1.349 . S
C2265 H2257 0.950 . S
C2265 C2263 1.327 . S
C2266 C2254 1.349 . S
C2266 H2260 0.950 . S
C2266 C2267 1.327 . S
C2267 H2261 0.950 . S
C2267 C2266 1.327 . S
C2267 C2271 1.429 . S
C2268 C2251 1.574 . S
C2268 H2262 0.949 . S
C2268 C2272 1.368 . S
C2269 C2250 1.429 . S
C2269 C2263 1.429 . S
C2269 C2270 1.523 . S
C2270 C2251 1.368 . S
C2270 C2264 1.368 . S
C2270 C2269 1.523 . S
C2271 C2255 1.429 . S
C2271 C2267 1.429 . S
C2271 C2272 1.523 . S
C2272 C2256 1.368 . S
C2272 C2268 1.368 . S
C2272 C2271 1.523 . S
H2273 C2248 0.950 . S
H2274 C2250 0.950 . S
H2275 C2251 0.949 . S
H2276 C2253 0.950 . S
H2277 C2255 0.950 . S
C2278 C2279 1.349 . S
C2278 C2280 1.327 . S
C2278 H2303 0.950 . S
C2279 C2278 1.349 . S
C2279 C2295 1.349 . S
C2280 C2278 1.327 . S
C2280 C2299 1.429 . S
C2280 H2304 0.950 . S
C2281 C2298 1.574 . S
C2281 C2300 1.368 . S
C2281 H2305 0.949 . S
H2282 C2286 0.949 . S
C2283 C2284 1.349 . S
C2283 C2285 1.327 . S
C2283 H2306 0.950 . S
C2284 C2283 1.349 . S
C2284 C2296 1.349 . S
C2285 C2283 1.327 . S
C2285 C2301 1.429 . S
C2285 H2307 0.950 . S
C2286 H2282 0.949 . S
C2286 C2294 1.574 . S
C2286 C2302 1.368 . S
H2287 C2295 0.950 . S
H2288 C2293 0.950 . S
H2289 C2294 0.949 . S
H2290 C2296 0.950 . S
H2291 C2297 0.950 . S
H2292 C2298 0.949 . S
C2293 H2288 0.950 . S
C2293 C2295 1.327 . S
C2293 C2299 1.429 . S
C2294 C2286 1.574 . S
C2294 H2289 0.949 . S
C2294 C2300 1.368 . S
C2295 C2279 1.349 . S
C2295 H2287 0.950 . S
C2295 C2293 1.327 . S
C2296 C2284 1.349 . S
C2296 H2290 0.950 . S
C2296 C2297 1.327 . S
C2297 H2291 0.950 . S
C2297 C2296 1.327 . S
C2297 C2301 1.429 . S
C2298 C2281 1.574 . S
C2298 H2292 0.949 . S
C2298 C2302 1.368 . S
C2299 C2280 1.429 . S
C2299 C2293 1.429 . S
C2299 C2300 1.523 . S
C2300 C2281 1.368 . S
C2300 C2294 1.368 . S
C2300 C2299 1.523 . S
C2301 C2285 1.429 . S
C2301 C2297 1.429 . S
C2301 C2302 1.523 . S
C2302 C2286 1.368 . S
C2302 C2298 1.368 . S
C2302 C2301 1.523 . S
H2303 C2278 0.950 . S
H2304 C2280 0.950 . S
H2305 C2281 0.949 . S
H2306 C2283 0.950 . S
H2307 C2285 0.950 . S
C2308 C2309 1.349 . S
C2308 C2310 1.327 . S
C2308 H2333 0.950 . S
C2309 C2308 1.349 . S
C2309 C2325 1.349 . S
C2310 C2308 1.327 . S
C2310 C2329 1.429 . S
C2310 H2334 0.950 . S
C2311 C2328 1.574 . S
C2311 C2330 1.368 . S
C2311 H2335 0.949 . S
H2312 C2316 0.949 . S
C2313 C2314 1.349 . S
C2313 C2315 1.327 . S
C2313 H2336 0.950 . S
C2314 C2313 1.349 . S
C2314 C2326 1.349 . S
C2315 C2313 1.327 . S
C2315 C2331 1.429 . S
C2315 H2337 0.950 . S
C2316 H2312 0.949 . S
C2316 C2324 1.574 . S
C2316 C2332 1.368 . S
H2317 C2325 0.950 . S
H2318 C2323 0.950 . S
H2319 C2324 0.949 . S
H2320 C2326 0.950 . S
H2321 C2327 0.950 . S
H2322 C2328 0.949 . S
C2323 H2318 0.950 . S
C2323 C2325 1.327 . S
C2323 C2329 1.429 . S
C2324 C2316 1.574 . S
C2324 H2319 0.949 . S
C2324 C2330 1.368 . S
C2325 C2309 1.349 . S
C2325 H2317 0.950 . S
C2325 C2323 1.327 . S
C2326 C2314 1.349 . S
C2326 H2320 0.950 . S
C2326 C2327 1.327 . S
C2327 H2321 0.950 . S
C2327 C2326 1.327 . S
C2327 C2331 1.429 . S
C2328 C2311 1.574 . S
C2328 H2322 0.949 . S
C2328 C2332 1.368 . S
C2329 C2310 1.429 . S
C2329 C2323 1.429 . S
C2329 C2330 1.523 . S
C2330 C2311 1.368 . S
C2330 C2324 1.368 . S
C2330 C2329 1.523 . S
C2331 C2315 1.429 . S
C2331 C2327 1.429 . S
C2331 C2332 1.523 . S
C2332 C2316 1.368 . S
C2332 C2328 1.368 . S
C2332 C2331 1.523 . S
H2333 C2308 0.950 . S
H2334 C2310 0.950 . S
H2335 C2311 0.949 . S
H2336 C2313 0.950 . S
H2337 C2315 0.950 . S
C2338 C2339 1.349 . S
C2338 C2340 1.327 . S
C2338 H2363 0.950 . S
C2339 C2338 1.349 . S
C2339 C2355 1.349 . S
C2340 C2338 1.327 . S
C2340 C2359 1.429 . S
C2340 H2364 0.950 . S
C2341 C2358 1.574 . S
C2341 C2360 1.368 . S
C2341 H2365 0.949 . S
H2342 C2346 0.949 . S
C2343 C2344 1.349 . S
C2343 C2345 1.327 . S
C2343 H2366 0.950 . S
C2344 C2343 1.349 . S
C2344 C2356 1.349 . S
C2345 C2343 1.327 . S
C2345 C2361 1.429 . S
C2345 H2367 0.950 . S
C2346 H2342 0.949 . S
C2346 C2354 1.574 . S
C2346 C2362 1.368 . S
H2347 C2355 0.950 . S
H2348 C2353 0.950 . S
H2349 C2354 0.949 . S
H2350 C2356 0.950 . S
H2351 C2357 0.950 . S
H2352 C2358 0.949 . S
C2353 H2348 0.950 . S
C2353 C2355 1.327 . S
C2353 C2359 1.429 . S
C2354 C2346 1.574 . S
C2354 H2349 0.949 . S
C2354 C2360 1.368 . S
C2355 C2339 1.349 . S
C2355 H2347 0.950 . S
C2355 C2353 1.327 . S
C2356 C2344 1.349 . S
C2356 H2350 0.950 . S
C2356 C2357 1.327 . S
C2357 H2351 0.950 . S
C2357 C2356 1.327 . S
C2357 C2361 1.429 . S
C2358 C2341 1.574 . S
C2358 H2352 0.949 . S
C2358 C2362 1.368 . S
C2359 C2340 1.429 . S
C2359 C2353 1.429 . S
C2359 C2360 1.523 . S
C2360 C2341 1.368 . S
C2360 C2354 1.368 . S
C2360 C2359 1.523 . S
C2361 C2345 1.429 . S
C2361 C2357 1.429 . S
C2361 C2362 1.523 . S
C2362 C2346 1.368 . S
C2362 C2358 1.368 . S
C2362 C2361 1.523 . S
H2363 C2338 0.950 . S
H2364 C2340 0.950 . S
H2365 C2341 0.949 . S
H2366 C2343 0.950 . S
H2367 C2345 0.950 . S
C449 C92 1.106 . S
C454 C8 1.106 . S
C479 C22 1.106 . S
C484 C106 1.106 . S
C509 C64 1.106 . S
C514 C36 1.106 . S
C539 C50 1.106 . S
C544 C78 1.106 . S
C569 C204 1.106 . S
C574 C120 1.106 . S
C599 C218 1.106 . S
C604 C134 1.106 . S
C629 C148 1.106 . S
C634 C176 1.106 . S
C659 C162 1.106 . S
C664 C190 1.106 . S
C689 C232 1.106 . S
C694 C316 1.106 . S
C719 C246 1.106 . S
C724 C330 1.106 . S
C749 C288 1.106 . S
C754 C260 1.106 . S
C779 C302 1.106 . S
C784 C274 1.106 . S
C809 C344 1.106 . S
C814 C428 1.106 . S
C839 C442 1.106 . S
C844 C358 1.106 . S
C869 C400 1.106 . S
C874 C372 1.106 . S
C899 C386 1.106 . S
C904 C414 1.106 . S
C929 C7 1.333 1_556 S
C934 C433 1.266 . S
C959 C223 1.266 . S
C964 C21 1.333 . S
C989 C35 1.333 . S
C994 C405 1.265 . S
C1019 C49 1.333 . S
C1024 C195 1.265 . S
C1049 C377 1.265 . S
C1054 C63 1.333 . S
C1079 C167 1.265 . S
C1084 C77 1.333 . S
C1109 C91 1.333 1_554 S
C1114 C349 1.266 . S
C1139 C139 1.266 . S
C1144 C105 1.333 . S
C1169 C119 1.333 1_554 S
C1174 C321 1.266 . S
C1199 C111 1.266 . S
C1204 C133 1.333 . S
C1229 C147 1.333 . S
C1234 C293 1.265 . S
C1259 C161 1.333 . S
C1264 C83 1.265 . S
C1289 C265 1.265 . S
C1294 C175 1.333 . S
C1319 C189 1.333 . S
C1324 C55 1.265 . S
C1349 C203 1.333 1_556 S
C1354 C237 1.266 . S
C1379 C27 1.266 . S
C1384 C217 1.333 . S
C1409 C231 1.333 . S
C1414 C209 1.266 . S
C1439 C245 1.333 . S
C1444 C447 1.266 . S
C1469 C181 1.265 . S
C1474 C259 1.333 1_556 S
C1499 C273 1.333 . S
C1504 C419 1.265 . S
C1529 C153 1.265 . S
C1534 C287 1.333 1_554 S
C1559 C391 1.265 . S
C1564 C301 1.333 . S
C1589 C125 1.266 . S
C1594 C315 1.333 . S
C1619 C363 1.266 . S
C1624 C329 1.333 . S
C1649 C343 1.333 . S
C1654 C97 1.266 . S
C1679 C335 1.266 . S
C1684 C357 1.333 . S
C1709 C69 1.265 . S
C1714 C371 1.333 1_554 S
C1739 C385 1.333 . S
C1744 C307 1.265 . S
C1769 C399 1.333 1_556 S
C1774 C41 1.265 . S
C1799 C413 1.333 . S
C1804 C279 1.265 . S
C1829 C13 1.266 . S
C1834 C427 1.333 . S
C1859 C441 1.333 . S
C1864 C251 1.266 . S
C1889 C11 1.166 . S
C1894 C305 1.166 . S
C1919 C319 1.165 . S
C1924 C25 1.165 . S
C1949 C39 1.166 . S
C1954 C333 1.166 . S
C1979 C291 1.166 . S
C1984 C53 1.166 . S
C2009 C277 1.166 . S
C2014 C67 1.166 . S
C2039 C235 1.166 . S
C2044 C81 1.166 . S
C2069 C249 1.165 . S
C2074 C95 1.165 . S
C2099 C263 1.166 . S
C2104 C109 1.166 . S
C2129 C123 1.166 . S
C2134 C417 1.166 . S
C2159 C431 1.165 . S
C2164 C137 1.165 . S
C2189 C445 1.166 . S
C2194 C151 1.166 . S
C2219 C403 1.166 . S
C2224 C165 1.166 . S
C2249 C389 1.166 . S
C2254 C179 1.166 . S
C2279 C347 1.166 . S
C2284 C193 1.166 . S
C2309 C207 1.165 . S
C2314 C361 1.165 . S
C2339 C221 1.166 . S
C2344 C375 1.166 . S
