# Generated by pormake.
# Topology dmp, (4)-cn, num edge types: 1
# Building blocks:
#     Node 0, Type 0, BuildingBlock: UXUYUI_clean_sbu_0, # of connection points: 4
#     Node 1, Type 0, BuildingBlock: UXUYUI_clean_sbu_0, # of connection points: 4
#     Node 2, Type 0, BuildingBlock: UXUYUI_clean_sbu_0, # of connection points: 4
#     Node 3, Type 0, BuildingBlock: UXUYUI_clean_sbu_0, # of connection points: 4
#     Edge 4, Type (0, 0), BuildingBlock: FUNLAD_clean_linker_1, # of connection points: 2
#     Edge 5, Type (0, 0), BuildingBlock: FUNLAD_clean_linker_1, # of connection points: 2
#     Edge 6, Type (0, 0), BuildingBlock: FUNLAD_clean_linker_1, # of connection points: 2
#     Edge 7, Type (0, 0), BuildingBlock: FUNLAD_clean_linker_1, # of connection points: 2
#     Edge 8, Type (0, 0), BuildingBlock: FUNLAD_clean_linker_1, # of connection points: 2
#     Edge 9, Type (0, 0), BuildingBlock: FUNLAD_clean_linker_1, # of connection points: 2
#     Edge 10, Type (0, 0), BuildingBlock: FUNLAD_clean_linker_1, # of connection points: 2
#     Edge 11, Type (0, 0), BuildingBlock: FUNLAD_clean_linker_1, # of connection points: 2
# Relax obj value: 0.351
# Max RMSD: 0.312
# Mean RMSD: 0.312
data_MOF--net-dmp--node1-UXUYUI_clean_sbu_0--edge1-FUNLAD_clean_linker_1
_symmetry_space_group_name_H-M    P1
_symmetry_Int_Tables_number       1
_symmetry_cell_setting            triclinic
loop_
_symmetry_equiv_pos_as_xyz
'x, y, z'
_cell_length_a     57.275709
_cell_length_b     24.469528
_cell_length_c     29.698619
_cell_angle_alpha  89.973943
_cell_angle_beta   89.994046
_cell_angle_gamma 89.96518
loop_
_atom_site_label
_atom_site_type_symbol
_atom_site_fract_x
_atom_site_fract_y
_atom_site_fract_z
_atom_type_partial_charge
Li0 Li 0.1172 0.29741 0.22816 0.0
Li1 Li 0.11556 0.22005 0.27644 0.0
Li2 Li 0.08616 0.23197 0.2176 0.0
Li3 Li 0.08799 0.29394 0.28668 0.0
C4 C 0.13071 0.20382 0.17257 0.0
N5 N 0.15292 0.17048 0.09463 0.0
C6 C 0.15255 0.1784 0.17479 0.0
C7 C 0.12009 0.21183 0.13068 0.0
C8 C 0.16352 0.16201 0.13501 0.0
C9 C 0.13162 0.19478 0.09168 0.0
C10 C 0.14502 0.30311 0.30559 0.0
C11 C 0.17477 0.34028 0.35419 0.0
N12 N 0.19149 0.31725 0.32776 0.0
C13 C 0.1625 0.27981 0.27894 0.0
C14 C 0.15118 0.33361 0.34353 0.0
C15 C 0.18588 0.28742 0.29068 0.0
C16 C 0.14148 0.39554 0.2233 0.0
N17 N 0.13808 0.3484 0.19999 0.0
C18 C 0.1675 0.37377 0.14681 0.0
C19 C 0.15029 0.33764 0.16171 0.0
C20 C 0.17215 0.42138 0.17167 0.0
C21 C 0.15836 0.43294 0.20946 0.0
H22 H 0.13158 0.40318 0.25367 0.0
H23 H 0.14726 0.30056 0.14322 0.0
C24 C 0.13645 0.1176 0.2833 0.0
N25 N 0.1334 0.1653 0.3059 0.0
C26 C 0.15174 0.07809 0.29985 0.0
C27 C 0.1596 0.13646 0.36378 0.0
C28 C 0.1439 0.17461 0.34623 0.0
C29 C 0.16421 0.08828 0.33958 0.0
H30 H 0.12762 0.11118 0.25155 0.0
H31 H 0.1407 0.2124 0.36403 0.0
C32 C 0.08401 0.36035 0.19734 0.0
N33 N 0.08735 0.45573 0.14798 0.0
C34 C 0.08316 0.41098 0.21902 0.0
C35 C 0.08626 0.35819 0.15052 0.0
C36 C 0.08495 0.45875 0.19347 0.0
C37 C 0.08801 0.40688 0.12617 0.0
C38 C 0.07994 0.17412 0.31449 0.0
C39 C 0.0768 0.11972 0.30159 0.0
C40 C 0.08298 0.18705 0.35994 0.0
C41 C 0.07687 0.07893 0.33453 0.0
C42 C 0.08294 0.14508 0.39184 0.0
N43 N 0.07993 0.09235 0.37858 0.0
C44 C 0.07229 0.14195 0.16718 0.0
C45 C 0.04912 0.22095 0.15509 0.0
C46 C 0.05964 0.11304 0.13496 0.0
N47 N 0.06689 0.19481 0.17637 0.0
C48 C 0.03592 0.19351 0.12266 0.0
C49 C 0.04106 0.13882 0.11226 0.0
H50 H 0.08684 0.12272 0.18418 0.0
H51 H 0.04544 0.26327 0.16287 0.0
C52 C 0.08089 0.37731 0.34945 0.0
N53 N 0.07062 0.33371 0.32933 0.0
C54 C 0.06899 0.40656 0.38257 0.0
C55 C 0.03614 0.34547 0.37347 0.0
C56 C 0.04871 0.31735 0.3405 0.0
C57 C 0.0463 0.39096 0.39487 0.0
H58 H 0.09839 0.38913 0.33985 0.0
H59 H 0.04118 0.28196 0.32423 0.0
O60 O 0.11958 0.21926 0.21134 0.0
O61 O 0.12195 0.29656 0.29471 0.0
O62 O 0.08283 0.31315 0.2219 0.0
O63 O 0.08064 0.21447 0.2827 0.0
H64 H 0.16097 0.17131 0.20688 0.0
H65 H 0.10323 0.23131 0.12818 0.0
H66 H 0.18045 0.14243 0.13625 0.0
H67 H 0.12363 0.20093 0.05907 0.0
H68 H 0.17979 0.36378 0.38348 0.0
H69 H 0.1581 0.25632 0.24943 0.0
H70 H 0.13788 0.35187 0.36459 0.0
H71 H 0.19957 0.26966 0.27029 0.0
H72 H 0.17722 0.36394 0.11663 0.0
H73 H 0.16135 0.46939 0.22935 0.0
H74 H 0.15475 0.04126 0.28046 0.0
H75 H 0.16836 0.1452 0.39525 0.0
H76 H 0.08139 0.41335 0.25522 0.0
H77 H 0.08675 0.31938 0.13319 0.0
H78 H 0.08449 0.49823 0.20984 0.0
H79 H 0.0899 0.40582 0.08994 0.0
H80 H 0.07452 0.10909 0.26651 0.0
H81 H 0.08564 0.22897 0.37037 0.0
H82 H 0.07456 0.0366 0.32505 0.0
H83 H 0.0854 0.1544 0.42713 0.0
H84 H 0.06494 0.07166 0.12743 0.0
H85 H 0.02191 0.21495 0.10565 0.0
H86 H 0.07747 0.44111 0.39847 0.0
H87 H 0.01898 0.33071 0.38254 0.0
Li88 Li 0.4129 0.80114 0.22069 0.0
Li89 Li 0.41134 0.73292 0.28532 0.0
Li90 Li 0.38437 0.72875 0.22242 0.0
Li91 Li 0.38133 0.80113 0.27567 0.0
C92 C 0.4217 0.67358 0.19617 0.0
N93 N 0.42624 0.57805 0.14737 0.0
C94 C 0.42401 0.62351 0.2184 0.0
C95 C 0.42197 0.67514 0.14914 0.0
C96 C 0.42621 0.57564 0.19313 0.0
C97 C 0.4242 0.62638 0.12507 0.0
C98 C 0.41364 0.85153 0.32055 0.0
C99 C 0.40657 0.87429 0.39834 0.0
N100 N 0.40837 0.92827 0.38795 0.0
C101 C 0.41553 0.90718 0.31064 0.0
C102 C 0.40922 0.83484 0.36474 0.0
C103 C 0.41278 0.94537 0.34519 0.0
C104 C 0.42564 0.89792 0.17714 0.0
N105 N 0.43212 0.84522 0.1842 0.0
C106 C 0.46453 0.85486 0.13432 0.0
C107 C 0.45122 0.82336 0.16394 0.0
C108 C 0.4579 0.90922 0.12542 0.0
C109 C 0.43845 0.93091 0.1479 0.0
H110 H 0.4102 0.91389 0.19351 0.0
H111 H 0.4559 0.78123 0.17037 0.0
C112 C 0.41863 0.67297 0.36462 0.0
N113 N 0.42925 0.6936 0.32744 0.0
C114 C 0.43154 0.64387 0.39645 0.0
C115 C 0.46608 0.65826 0.35112 0.0
C116 C 0.45249 0.68711 0.32018 0.0
C117 C 0.45562 0.63576 0.38962 0.0
H118 H 0.40015 0.67963 0.36969 0.0
H119 H 0.46042 0.70432 0.2903 0.0
C120 C 0.37073 0.82458 0.16978 0.0
N121 N 0.35339 0.86045 0.08812 0.0
C122 C 0.34907 0.8508 0.16773 0.0
C123 C 0.38359 0.81672 0.1303 0.0
C124 C 0.34058 0.86855 0.12612 0.0
C125 C 0.37453 0.83516 0.08936 0.0
C126 C 0.35437 0.70809 0.29334 0.0
C127 C 0.33698 0.73491 0.26871 0.0
C128 C 0.34827 0.66513 0.32204 0.0
C129 C 0.31376 0.71844 0.27341 0.0
C130 C 0.32484 0.64986 0.32579 0.0
N131 N 0.30822 0.6766 0.30159 0.0
C132 C 0.36508 0.62623 0.20752 0.0
C133 C 0.35239 0.69082 0.15337 0.0
C134 C 0.34902 0.58799 0.19178 0.0
N135 N 0.36612 0.67699 0.18899 0.0
C136 C 0.33593 0.65392 0.13673 0.0
C137 C 0.33356 0.60247 0.15722 0.0
H138 H 0.37577 0.61652 0.23643 0.0
H139 H 0.35323 0.73114 0.13907 0.0
C140 C 0.35691 0.89848 0.28686 0.0
N141 N 0.36051 0.84885 0.30609 0.0
C142 C 0.33997 0.9336 0.30409 0.0
C143 C 0.33135 0.86665 0.36168 0.0
C144 C 0.34872 0.83307 0.34366 0.0
C145 C 0.32639 0.91697 0.34089 0.0
H146 H 0.36674 0.91001 0.25724 0.0
H147 H 0.3523 0.79374 0.35877 0.0
O148 O 0.41925 0.72078 0.22037 0.0
O149 O 0.41557 0.81357 0.28702 0.0
O150 O 0.37934 0.80758 0.21042 0.0
O151 O 0.37739 0.72186 0.28798 0.0
H152 H 0.42378 0.62149 0.25478 0.0
H153 H 0.42048 0.71353 0.13137 0.0
H154 H 0.42784 0.53657 0.20989 0.0
H155 H 0.42433 0.62696 0.08864 0.0
H156 H 0.40299 0.862 0.43265 0.0
H157 H 0.4189 0.92073 0.27658 0.0
H158 H 0.40753 0.79192 0.37286 0.0
H159 H 0.41408 0.9886 0.338 0.0
H160 H 0.47976 0.83666 0.1189 0.0
H161 H 0.43287 0.97263 0.14206 0.0
H162 H 0.42271 0.62896 0.4262 0.0
H163 H 0.4846 0.65327 0.34486 0.0
H164 H 0.33888 0.85725 0.19796 0.0
H165 H 0.40032 0.79645 0.13118 0.0
H166 H 0.32383 0.88881 0.12403 0.0
H167 H 0.3843 0.8293 0.05856 0.0
H168 H 0.34132 0.76778 0.24595 0.0
H169 H 0.36153 0.64343 0.34089 0.0
H170 H 0.30016 0.7388 0.25449 0.0
H171 H 0.31989 0.61659 0.3478 0.0
H172 H 0.34769 0.54872 0.20845 0.0
H173 H 0.32474 0.66635 0.10921 0.0
H174 H 0.33671 0.97223 0.28737 0.0
H175 H 0.3217 0.85292 0.3909 0.0
Li176 Li 0.87774 0.77688 0.75207 0.0
Li177 Li 0.91058 0.76927 0.79906 0.0
Li178 Li 0.90521 0.70357 0.73523 0.0
Li179 Li 0.88062 0.70256 0.80537 0.0
C180 C 0.90922 0.82042 0.69812 0.0
N181 N 0.90553 0.89403 0.6278 0.0
C182 C 0.90414 0.87534 0.7067 0.0
C183 C 0.91249 0.80303 0.65372 0.0
C184 C 0.9023 0.91187 0.67071 0.0
C185 C 0.91055 0.84085 0.61866 0.0
C186 C 0.88217 0.81736 0.85208 0.0
C187 C 0.89285 0.83659 0.92905 0.0
N188 N 0.89316 0.89093 0.91944 0.0
C189 C 0.88247 0.87345 0.84305 0.0
C190 C 0.8873 0.79877 0.89549 0.0
C191 C 0.88809 0.90996 0.87754 0.0
C192 C 0.83952 0.84808 0.75311 0.0
N193 N 0.8546 0.82273 0.72469 0.0
C194 C 0.83336 0.85557 0.66076 0.0
C195 C 0.85181 0.82568 0.67925 0.0
C196 C 0.81742 0.88201 0.6895 0.0
C197 C 0.82088 0.87831 0.73616 0.0
H198 H 0.84153 0.84354 0.78907 0.0
H199 H 0.86352 0.80362 0.6573 0.0
C200 C 0.93916 0.86003 0.82096 0.0
N201 N 0.93373 0.8078 0.83243 0.0
C202 C 0.95403 0.89088 0.84809 0.0
C203 C 0.9585 0.81257 0.89697 0.0
C204 C 0.94349 0.78332 0.86895 0.0
C205 C 0.96341 0.86748 0.8874 0.0
H206 H 0.93146 0.87826 0.79142 0.0
H207 H 0.93907 0.74161 0.87708 0.0
C208 C 0.84987 0.69703 0.72179 0.0
N209 N 0.80626 0.69861 0.68208 0.0
C210 C 0.8299 0.70454 0.74814 0.0
C211 C 0.84767 0.69026 0.67526 0.0
C212 C 0.80801 0.70521 0.72743 0.0
C213 C 0.82546 0.6912 0.65582 0.0
C214 C 0.9171 0.63982 0.82154 0.0
C215 C 0.92238 0.59198 0.79792 0.0
C216 C 0.91385 0.63756 0.86817 0.0
C217 C 0.92405 0.54255 0.82128 0.0
C218 C 0.91564 0.58734 0.8903 0.0
N219 N 0.92064 0.54126 0.86659 0.0
C220 C 0.94181 0.67092 0.6783 0.0
C221 C 0.90712 0.61877 0.67135 0.0
C222 C 0.95264 0.63991 0.64484 0.0
N223 N 0.91943 0.66009 0.6905 0.0
C224 C 0.91727 0.58664 0.63784 0.0
C225 C 0.94033 0.59681 0.62427 0.0
H226 H 0.95109 0.70423 0.69418 0.0
H227 H 0.88944 0.61071 0.68224 0.0
C228 C 0.84816 0.6762 0.87403 0.0
N229 N 0.86192 0.65533 0.84092 0.0
C230 C 0.83097 0.64382 0.89398 0.0
C231 C 0.84316 0.56857 0.84676 0.0
C232 C 0.86002 0.60242 0.8276 0.0
C233 C 0.82769 0.59002 0.87906 0.0
H234 H 0.84951 0.71887 0.88296 0.0
H235 H 0.87086 0.58729 0.80052 0.0
O236 O 0.91117 0.78396 0.73292 0.0
O237 O 0.87743 0.78082 0.81837 0.0
O238 O 0.87149 0.69747 0.74134 0.0
O239 O 0.91522 0.68857 0.79917 0.0
H240 H 0.9012 0.88951 0.74066 0.0
H241 H 0.91625 0.76074 0.64625 0.0
H242 H 0.89821 0.95438 0.67689 0.0
H243 H 0.91297 0.82788 0.58415 0.0
H244 H 0.89705 0.82271 0.96268 0.0
H245 H 0.87871 0.88866 0.80965 0.0
H246 H 0.88738 0.75557 0.90307 0.0
H247 H 0.88855 0.95342 0.87092 0.0
H248 H 0.83168 0.85699 0.62455 0.0
H249 H 0.80893 0.89769 0.75952 0.0
H250 H 0.95795 0.93246 0.83833 0.0
H251 H 0.96562 0.79294 0.92666 0.0
H252 H 0.83129 0.71062 0.7841 0.0
H253 H 0.86297 0.68516 0.6543 0.0
H254 H 0.79241 0.71121 0.74738 0.0
H255 H 0.8235 0.6863 0.61982 0.0
H256 H 0.92515 0.59285 0.76195 0.0
H257 H 0.90961 0.67399 0.88703 0.0
H258 H 0.92804 0.50521 0.80337 0.0
H259 H 0.91297 0.58497 0.92631 0.0
H260 H 0.97021 0.6506 0.63494 0.0
H261 H 0.90719 0.55396 0.62275 0.0
H262 H 0.81936 0.66176 0.91872 0.0
H263 H 0.84176 0.52683 0.83506 0.0
Li264 Li 0.61664 0.19595 0.69404 0.0
Li265 Li 0.59161 0.19776 0.76008 0.0
Li266 Li 0.58973 0.26964 0.70208 0.0
Li267 Li 0.62278 0.26626 0.7524 0.0
C268 C 0.57768 0.15026 0.66609 0.0
N269 N 0.56971 0.06748 0.60474 0.0
C270 C 0.5761 0.09608 0.68063 0.0
C271 C 0.57483 0.16245 0.62044 0.0
C272 C 0.57218 0.05477 0.64908 0.0
C273 C 0.57091 0.12001 0.58993 0.0
C274 C 0.63481 0.17208 0.7988 0.0
C275 C 0.63574 0.18177 0.87958 0.0
N276 N 0.6537 0.14545 0.88151 0.0
C277 C 0.65327 0.13491 0.80155 0.0
C278 C 0.62594 0.19578 0.83808 0.0
C279 C 0.66258 0.12195 0.8437 0.0
C280 C 0.64691 0.16655 0.62211 0.0
N281 N 0.63368 0.14748 0.6567 0.0
C282 C 0.65137 0.05942 0.65113 0.0
C283 C 0.63522 0.09477 0.67076 0.0
C284 C 0.66653 0.07915 0.61758 0.0
C285 C 0.66342 0.13263 0.60167 0.0
H286 H 0.64579 0.20893 0.6123 0.0
H287 H 0.62485 0.08109 0.69902 0.0
C288 C 0.55569 0.17325 0.82178 0.0
N289 N 0.57517 0.1534 0.80149 0.0
C290 C 0.54389 0.14184 0.85375 0.0
C291 C 0.57216 0.06969 0.84237 0.0
C292 C 0.58343 0.10256 0.81077 0.0
C293 C 0.55236 0.08952 0.86483 0.0
H294 H 0.54935 0.21348 0.8131 0.0
H295 H 0.59888 0.08768 0.79377 0.0
C296 C 0.62603 0.31096 0.65217 0.0
N297 N 0.63075 0.38614 0.58329 0.0
C298 C 0.63825 0.35964 0.65935 0.0
C299 C 0.61653 0.30021 0.60976 0.0
C300 C 0.64037 0.39721 0.62415 0.0
C301 C 0.619 0.33881 0.57543 0.0
C302 C 0.58424 0.33168 0.78035 0.0
C303 C 0.5982 0.37456 0.7649 0.0
C304 C 0.5647 0.34317 0.8069 0.0
C305 C 0.59238 0.42827 0.77615 0.0
C306 C 0.55944 0.39744 0.81746 0.0
N307 N 0.57327 0.43852 0.80199 0.0
C308 C 0.54795 0.29419 0.65759 0.0
C309 C 0.574 0.36926 0.66111 0.0
C310 C 0.53198 0.32509 0.63284 0.0
N311 N 0.56865 0.31632 0.67054 0.0
C312 C 0.55864 0.4015 0.63617 0.0
C313 C 0.53748 0.37902 0.62101 0.0
H314 H 0.54394 0.25229 0.66615 0.0
H315 H 0.59029 0.38651 0.67247 0.0
C316 C 0.66813 0.30025 0.76254 0.0
N317 N 0.64702 0.30327 0.78313 0.0
C318 C 0.68757 0.32501 0.78182 0.0
C319 C 0.66332 0.35481 0.84381 0.0
C320 C 0.64427 0.32915 0.8233 0.0
C321 C 0.68531 0.35333 0.82263 0.0
H322 H 0.66978 0.27856 0.73096 0.0
H323 H 0.62735 0.32968 0.83947 0.0
O324 O 0.58177 0.1912 0.69643 0.0
O325 O 0.6256 0.18525 0.75771 0.0
O326 O 0.62362 0.2739 0.68639 0.0
O327 O 0.58959 0.27871 0.76965 0.0
H328 H 0.5781 0.08594 0.71584 0.0
H329 H 0.57548 0.20423 0.60871 0.0
H330 H 0.57111 0.0126 0.65983 0.0
H331 H 0.56875 0.12885 0.55448 0.0
H332 H 0.62906 0.19978 0.91024 0.0
H333 H 0.66032 0.11629 0.7714 0.0
H334 H 0.61167 0.22468 0.83658 0.0
H335 H 0.67688 0.09322 0.84636 0.0
H336 H 0.6526 0.01798 0.66364 0.0
H337 H 0.67475 0.14926 0.57587 0.0
H338 H 0.52823 0.15829 0.86894 0.0
H339 H 0.57905 0.02939 0.84966 0.0
H340 H 0.64598 0.36845 0.69178 0.0
H341 H 0.60728 0.26253 0.60348 0.0
H342 H 0.64966 0.43516 0.62931 0.0
H343 H 0.61159 0.33113 0.54254 0.0
H344 H 0.61332 0.36651 0.74427 0.0
H345 H 0.55369 0.31057 0.81925 0.0
H346 H 0.60304 0.4618 0.76429 0.0
H347 H 0.54435 0.40689 0.83796 0.0
H348 H 0.5157 0.30664 0.62221 0.0
H349 H 0.56329 0.44353 0.62927 0.0
H350 H 0.70422 0.32259 0.76462 0.0
H351 H 0.66076 0.37484 0.87588 0.0
H352 H 0.3067 0.99435 0.34496 0.0
C353 C 0.30626 0.95131 0.35415 0.0
H354 H 0.28446 0.8869 0.37698 0.0
H355 H 0.20793 0.05085 0.45545 0.0
H356 H 0.22448 0.0163 0.52524 0.0
H357 H 0.25955 0.95764 0.52447 0.0
H358 H 0.27823 0.93286 0.45388 0.0
C359 C 0.28602 0.93002 0.36892 0.0
C360 C 0.26442 0.9637 0.36951 0.0
C361 C 0.25379 0.97781 0.41097 0.0
C362 C 0.23369 0.01197 0.41144 0.0
C363 C 0.22331 0.02526 0.45327 0.0
C364 C 0.23263 0.0057 0.49352 0.0
C365 C 0.25237 0.97265 0.49309 0.0
C366 C 0.26292 0.95874 0.45239 0.0
H367 H 0.18227 0.00853 0.33947 0.0
C368 C 0.18317 0.05013 0.35228 0.0
H369 H 0.20531 0.10915 0.38244 0.0
H370 H 0.278 0.93666 0.28356 0.0
H371 H 0.26262 0.97427 0.21423 0.0
H372 H 0.23047 0.04138 0.21547 0.0
H373 H 0.21314 0.06995 0.28593 0.0
C374 C 0.20328 0.0674 0.37076 0.0
C375 C 0.22436 0.03198 0.37045 0.0
C376 C 0.23519 0.01836 0.32893 0.0
C377 C 0.25468 0.98251 0.32837 0.0
C378 C 0.26397 0.96608 0.28622 0.0
C379 C 0.25518 0.987 0.24605 0.0
C380 C 0.23702 0.02455 0.24674 0.0
C381 C 0.22709 0.04024 0.28753 0.0
H382 H 0.19125 0.49976 0.17399 0.0
C383 C 0.1919 0.45822 0.16098 0.0
H384 H 0.2136 0.39899 0.12974 0.0
H385 H 0.284 0.5751 0.05045 0.0
H386 H 0.26435 0.54655 0.98188 0.0
H387 H 0.23 0.48586 0.98501 0.0
H388 H 0.21512 0.45308 0.05671 0.0
C389 C 0.21185 0.44055 0.14202 0.0
C390 C 0.2328 0.47631 0.14008 0.0
C391 C 0.24121 0.49507 0.09796 0.0
C392 C 0.2609 0.53038 0.09616 0.0
C393 C 0.26903 0.54841 0.05367 0.0
C394 C 0.25792 0.53233 0.01409 0.0
C395 C 0.23858 0.49814 0.01586 0.0
C396 C 0.23023 0.47961 0.05721 0.0
H397 H 0.31592 0.52219 0.15565 0.0
C398 C 0.31398 0.56509 0.1467 0.0
H399 H 0.28969 0.6262 0.12717 0.0
H400 H 0.22339 0.44127 0.22614 0.0
H401 H 0.24196 0.47272 0.29462 0.0
H402 H 0.27375 0.54067 0.29191 0.0
H403 H 0.28747 0.57639 0.22068 0.0
C404 C 0.29273 0.58337 0.13467 0.0
C405 C 0.27207 0.5468 0.13646 0.0
C406 C 0.26347 0.52859 0.17871 0.0
C407 C 0.24428 0.49191 0.18043 0.0
C408 C 0.23713 0.47128 0.22287 0.0
C409 C 0.24778 0.48866 0.26251 0.0
C410 C 0.26573 0.52671 0.26098 0.0
C411 C 0.27355 0.54659 0.21972 0.0
H412 H 0.69555 0.05925 0.57083 0.0
C413 C 0.68723 0.04765 0.60233 0.0
H414 H 0.69124 0.00192 0.66246 0.0
H415 H 0.76632 0.83594 0.59233 0.0
H416 H 0.7322 0.78372 0.57004 0.0
H417 H 0.69308 0.82606 0.56954 0.0
H418 H 0.68785 0.92104 0.59157 0.0
C419 C 0.69827 0.01224 0.62964 0.0
C420 C 0.72195 0.99105 0.61951 0.0
C421 C 0.72478 0.9362 0.60547 0.0
C422 C 0.74735 0.91201 0.60539 0.0
C423 C 0.7496 0.85648 0.59275 0.0
C424 C 0.73015 0.82605 0.57987 0.0
C425 C 0.70811 0.84988 0.57962 0.0
C426 C 0.70534 0.90428 0.5924 0.0
H427 H 0.78625 0.93365 0.69847 0.0
C428 C 0.79669 0.91271 0.67315 0.0
H429 H 0.79822 0.89287 0.60351 0.0
H430 H 0.72285 0.09919 0.64419 0.0
H431 H 0.75726 0.15315 0.66075 0.0
H432 H 0.79661 0.11233 0.65641 0.0
H433 H 0.80166 0.01678 0.63617 0.0
C434 C 0.7893 0.91473 0.63014 0.0
C435 C 0.76694 0.94296 0.61943 0.0
C436 C 0.76439 -0.00052 0.62868 0.0
C437 C 0.7418 0.02338 0.62963 0.0
C438 C 0.73962 0.07908 0.64198 0.0
C439 C 0.75925 0.11057 0.65162 0.0
C440 C 0.78139 0.08757 0.64928 0.0
C441 C 0.78404 0.03269 0.63794 0.0
H442 H 0.7984 0.57173 0.92564 0.0
C443 C 0.80675 0.55953 0.89432 0.0
H444 H 0.80267 0.51369 0.8344 0.0
H445 H 0.72775 0.35589 0.92613 0.0
H446 H 0.76156 0.31124 0.95958 0.0
H447 H 0.80052 0.35412 0.95594 0.0
H448 H 0.80592 0.44205 0.91907 0.0
C449 C 0.79581 0.52361 0.86745 0.0
C450 C 0.77212 0.50286 0.8778 0.0
C451 C 0.76932 0.45197 0.89974 0.0
C452 C 0.74696 0.42697 0.90131 0.0
C453 C 0.74452 0.37601 0.92332 0.0
C454 C 0.76372 0.35019 0.9428 0.0
C455 C 0.78566 0.37437 0.94078 0.0
C456 C 0.78854 0.42469 0.91949 0.0
H457 H 0.72306 0.37004 0.82614 0.0
C458 C 0.70631 0.38076 0.8411 0.0
H459 H 0.68955 0.43632 0.88542 0.0
H460 H 0.77119 0.6042 0.83869 0.0
H461 H 0.7372 0.65026 0.80794 0.0
H462 H 0.69836 0.60675 0.8105 0.0
H463 H 0.69329 0.51695 0.84379 0.0
C464 C 0.70586 0.42138 0.87156 0.0
C465 C 0.72761 0.45272 0.8804 0.0
C466 C 0.73003 0.50595 0.86222 0.0
C467 C 0.75238 0.53097 0.86069 0.0
C468 C 0.75458 0.58331 0.84072 0.0
C469 C 0.73521 0.61022 0.82298 0.0
C470 C 0.71335 0.58573 0.82443 0.0
C471 C 0.71069 0.53413 0.84362 0.0
H472 H 0.01697 0.13649 0.054 0.0
C473 C 0.02736 0.1111 0.07646 0.0
H474 H 0.03663 0.02924 0.0923 0.0
H475 H 0.94218 0.98462 0.97116 0.0
H476 H 0.92113 0.02258 0.03471 0.0
H477 H 0.94225 0.06441 0.09834 0.0
H478 H 0.98454 0.06864 0.09873 0.0
C479 C 0.02686 0.05662 0.07066 0.0
C480 C 0.01394 0.03173 0.03253 0.0
C481 C 0.9892 0.02964 0.03295 0.0
C482 C 0.97705 0.00511 0.99645 0.0
C483 C 0.95233 0.00301 0.99787 0.0
C484 C 0.94001 0.02453 0.03421 0.0
C485 C 0.9519 0.04812 0.07002 0.0
C486 C 0.9762 0.05054 0.06968 0.0
H487 H 0.98893 0.87626 0.94281 0.0
C488 C 0.97798 0.899 0.91942 0.0
H489 H 0.96478 0.97751 0.9033 0.0
H490 H 0.06139 0.02965 0.02134 0.0
H491 H 0.08246 0.99267 0.95735 0.0
H492 H 0.06133 0.95171 0.89333 0.0
H493 H 0.01903 0.94719 0.89304 0.0
C494 C 0.97687 0.95366 0.92345 0.0
C495 C 0.98969 0.98215 0.96002 0.0
C496 C 0.0144 0.98509 0.95926 0.0
C497 C 0.02655 0.00944 0.99582 0.0
C498 C 0.05126 0.01158 0.99444 0.0
C499 C 0.06358 0.99061 0.95787 0.0
C500 C 0.05169 0.96749 0.92185 0.0
C501 C 0.0274 0.96483 0.92227 0.0
H502 H 0.5441 0.01039 0.89711 0.0
C503 C 0.54086 0.05417 0.89879 0.0
H504 H 0.52431 0.11704 0.93621 0.0
H505 H 0.44754 0.95482 0.01284 0.0
H506 H 0.42459 0.00599 0.95872 0.0
H507 H 0.44335 0.07169 0.90713 0.0
H508 H 0.48522 0.08637 0.90923 0.0
C509 C 0.5277 0.07364 0.93263 0.0
C510 C 0.51649 0.03602 0.96537 0.0
C511 C 0.49195 0.02884 0.96431 0.0
C512 C 0.4811 0.99159 0.99447 0.0
C513 C 0.45665 0.98364 0.99154 0.0
C514 C 0.44326 0.0125 0.9604 0.0
C515 C 0.45383 0.04944 0.93132 0.0
C516 C 0.47788 0.05753 0.93296 0.0
H517 H 0.46808 0.98844 0.09543 0.0
C518 C 0.47058 0.94445 0.09295 0.0
H519 H 0.48621 0.88134 0.05424 0.0
H520 H 0.56374 0.04377 0.97887 0.0
H521 H 0.5867 0.99244 0.03291 0.0
H522 H 0.56793 0.92657 0.08435 0.0
H523 H 0.52604 0.9119 0.08219 0.0
C524 C 0.48353 0.92485 0.05885 0.0
C525 C 0.49482 0.96248 0.02623 0.0
C526 C 0.51935 0.96963 0.02728 0.0
C527 C 0.5302 0.00691 0.99713 0.0
C528 C 0.55465 0.01487 0.00011 0.0
C529 C 0.56803 0.98593 0.03121 0.0
C530 C 0.55746 0.9489 0.06021 0.0
C531 C 0.5334 0.94082 0.05856 0.0
H532 H 0.93866 0.53862 0.56733 0.0
C533 C 0.95054 0.56277 0.58785 0.0
H534 H 0.98624 0.57924 0.60097 0.0
H535 H 0.02247 0.3639 0.50749 0.0
H536 H 0.02844 0.34148 0.58621 0.0
H537 H 0.01351 0.40191 0.64615 0.0
H538 H 0.99246 0.48501 0.62771 0.0
C539 C 0.97356 0.55919 0.57951 0.0
C540 C 0.98262 0.52331 0.54313 0.0
C541 C 0.99517 0.47532 0.55455 0.0
C542 C 0.00399 0.44082 0.52002 0.0
C543 C 0.01587 0.39227 0.53235 0.0
C544 C 0.01929 0.37872 0.57743 0.0
C545 C 0.01087 0.41271 0.61117 0.0
C546 C -0.00113 0.46038 0.60009 0.0
H547 H 0.04499 0.44779 0.45264 0.0
C548 C 0.03432 0.42191 0.4311 0.0
H549 H -0.0005 0.39915 0.41557 0.0
H550 H 0.96058 0.61423 0.50955 0.0
H551 H 0.95429 0.63594 0.43087 0.0
H552 H 0.9689 0.57496 0.37103 0.0
H553 H 0.99004 0.49202 0.3896 0.0
C554 C 0.01113 0.42113 0.43797 0.0
C555 C 0.00054 0.45489 0.47418 0.0
C556 C 0.98768 0.50237 0.46274 0.0
C557 C 0.97892 0.53702 0.49725 0.0
C558 C 0.96706 0.58556 0.48482 0.0
C559 C 0.96346 0.59876 0.43972 0.0
C560 C 0.97171 0.56447 0.40603 0.0
C561 C 0.98378 0.51693 0.41718 0.0
H562 H 0.48926 0.6112 0.42007 0.0
C563 C 0.47045 0.60546 0.42213 0.0
H564 H 0.44364 0.55964 0.45381 0.0
H565 H 0.51545 0.37357 0.50896 0.0
H566 H 0.49388 0.32841 0.44954 0.0
H567 H 0.46471 0.37873 0.40462 0.0
H568 H 0.4571 0.47474 0.41868 0.0
C569 C 0.46206 0.56986 0.45258 0.0
C570 C 0.47816 0.53888 0.48234 0.0
C571 C 0.48187 0.48241 0.47457 0.0
C572 C 0.49831 0.45314 0.50112 0.0
C573 C 0.50258 0.39744 0.49098 0.0
C574 C 0.49045 0.37106 0.45665 0.0
C575 C 0.47406 0.3994 0.43132 0.0
C576 C 0.46983 0.45449 0.43983 0.0
H577 H 0.50249 0.39897 0.59396 0.0
C578 C 0.52081 0.41061 0.59309 0.0
H579 H 0.54583 0.46195 0.56194 0.0
H580 H 0.4736 0.64574 0.50848 0.0
H581 H 0.49491 0.69095 0.56839 0.0
H582 H 0.52356 0.64032 0.61434 0.0
H583 H 0.53101 0.54414 0.60076 0.0
C584 C 0.52762 0.45009 0.56448 0.0
C585 C 0.51049 0.48019 0.53626 0.0
C586 C 0.50659 0.53655 0.5443 0.0
C587 C 0.49028 0.56588 0.51751 0.0
C588 C 0.48621 0.62179 0.52711 0.0
C589 C 0.49821 0.64818 0.5616 0.0
C590 C 0.51432 0.61966 0.58749 0.0
C591 C 0.51847 0.56447 0.57924 0.0
loop_
_geom_bond_atom_site_label_1
_geom_bond_atom_site_label_2
_geom_bond_distance
_geom_bond_site_symmetry_2
_ccdc_geom_bond_type
Li0 N17 1.990 . S
Li0 O60 1.956 . S
Li0 O61 1.970 . S
Li0 O62 1.961 . S
Li1 N25 1.990 . S
Li1 O60 1.970 . S
Li1 O61 1.956 . S
Li1 O63 1.961 . S
Li2 N47 1.990 . S
Li2 O60 1.961 . S
Li2 O62 1.956 . S
Li2 O63 1.970 . S
Li3 N53 1.990 . S
Li3 O61 1.961 . S
Li3 O62 1.970 . S
Li3 O63 1.956 . S
C4 C6 1.348 . S
C4 C7 1.356 . S
C4 O60 1.325 . S
N5 C8 1.314 . S
N5 C9 1.279 . S
C6 C4 1.348 . S
C6 C8 1.353 . S
C6 H64 0.929 . S
C7 C4 1.356 . S
C7 C9 1.358 . S
C7 H65 0.930 . S
C8 N5 1.314 . S
C8 C6 1.353 . S
C8 H66 0.930 . S
C9 N5 1.279 . S
C9 C7 1.358 . S
C9 H67 0.930 . S
C10 C13 1.348 . S
C10 C14 1.356 . S
C10 O61 1.325 . S
C11 N12 1.279 . S
C11 C14 1.358 . S
C11 H68 0.930 . S
N12 C11 1.279 . S
N12 C15 1.314 . S
C13 C10 1.348 . S
C13 C15 1.353 . S
C13 H69 0.929 . S
C14 C10 1.356 . S
C14 C11 1.358 . S
C14 H70 0.930 . S
C15 N12 1.314 . S
C15 C13 1.353 . S
C15 H71 0.930 . S
C16 N17 1.314 . S
C16 C21 1.353 . S
C16 H22 0.930 . S
N17 Li0 1.990 . S
N17 C16 1.314 . S
N17 C19 1.279 . S
C18 C19 1.358 . S
C18 C20 1.356 . S
C18 H72 0.930 . S
C19 N17 1.279 . S
C19 C18 1.358 . S
C19 H23 0.930 . S
C20 C18 1.356 . S
C20 C21 1.348 . S
C21 C16 1.353 . S
C21 C20 1.348 . S
C21 H73 0.929 . S
H22 C16 0.930 . S
H23 C19 0.930 . S
C24 N25 1.314 . S
C24 C26 1.353 . S
C24 H30 0.930 . S
N25 Li1 1.990 . S
N25 C24 1.314 . S
N25 C28 1.279 . S
C26 C24 1.353 . S
C26 C29 1.348 . S
C26 H74 0.929 . S
C27 C28 1.358 . S
C27 C29 1.356 . S
C27 H75 0.930 . S
C28 N25 1.279 . S
C28 C27 1.358 . S
C28 H31 0.930 . S
C29 C26 1.348 . S
C29 C27 1.356 . S
H30 C24 0.930 . S
H31 C28 0.930 . S
C32 C34 1.348 . S
C32 C35 1.356 . S
C32 O62 1.325 . S
N33 C36 1.314 . S
N33 C37 1.279 . S
C34 C32 1.348 . S
C34 C36 1.353 . S
C34 H76 0.929 . S
C35 C32 1.356 . S
C35 C37 1.358 . S
C35 H77 0.930 . S
C36 N33 1.314 . S
C36 C34 1.353 . S
C36 H78 0.930 . S
C37 N33 1.279 . S
C37 C35 1.358 . S
C37 H79 0.930 . S
C38 C39 1.348 . S
C38 C40 1.356 . S
C38 O63 1.325 . S
C39 C38 1.348 . S
C39 C41 1.353 . S
C39 H80 0.929 . S
C40 C38 1.356 . S
C40 C42 1.358 . S
C40 H81 0.930 . S
C41 C39 1.353 . S
C41 N43 1.314 . S
C41 H82 0.930 . S
C42 C40 1.358 . S
C42 N43 1.279 . S
C42 H83 0.930 . S
N43 C41 1.314 . S
N43 C42 1.279 . S
C44 C46 1.353 . S
C44 N47 1.314 . S
C44 H50 0.930 . S
C45 N47 1.279 . S
C45 C48 1.358 . S
C45 H51 0.930 . S
C46 C44 1.353 . S
C46 C49 1.348 . S
C46 H84 0.929 . S
N47 Li2 1.990 . S
N47 C44 1.314 . S
N47 C45 1.279 . S
C48 C45 1.358 . S
C48 C49 1.356 . S
C48 H85 0.930 . S
C49 C46 1.348 . S
C49 C48 1.356 . S
H50 C44 0.930 . S
H51 C45 0.930 . S
C52 N53 1.314 . S
C52 C54 1.353 . S
C52 H58 0.930 . S
N53 Li3 1.990 . S
N53 C52 1.314 . S
N53 C56 1.279 . S
C54 C52 1.353 . S
C54 C57 1.348 . S
C54 H86 0.929 . S
C55 C56 1.358 . S
C55 C57 1.356 . S
C55 H87 0.930 . S
C56 N53 1.279 . S
C56 C55 1.358 . S
C56 H59 0.930 . S
C57 C54 1.348 . S
C57 C55 1.356 . S
H58 C52 0.930 . S
H59 C56 0.930 . S
O60 Li0 1.956 . S
O60 Li1 1.970 . S
O60 Li2 1.961 . S
O60 C4 1.325 . S
O61 Li0 1.970 . S
O61 Li1 1.956 . S
O61 Li3 1.961 . S
O61 C10 1.325 . S
O62 Li0 1.961 . S
O62 Li2 1.956 . S
O62 Li3 1.970 . S
O62 C32 1.325 . S
O63 Li1 1.961 . S
O63 Li2 1.970 . S
O63 Li3 1.956 . S
O63 C38 1.325 . S
H64 C6 0.929 . S
H65 C7 0.930 . S
H66 C8 0.930 . S
H67 C9 0.930 . S
H68 C11 0.930 . S
H69 C13 0.929 . S
H70 C14 0.930 . S
H71 C15 0.930 . S
H72 C18 0.930 . S
H73 C21 0.929 . S
H74 C26 0.929 . S
H75 C27 0.930 . S
H76 C34 0.929 . S
H77 C35 0.930 . S
H78 C36 0.930 . S
H79 C37 0.930 . S
H80 C39 0.929 . S
H81 C40 0.930 . S
H82 C41 0.930 . S
H83 C42 0.930 . S
H84 C46 0.929 . S
H85 C48 0.930 . S
H86 C54 0.929 . S
H87 C55 0.930 . S
Li88 N105 1.990 . S
Li88 O148 1.956 . S
Li88 O149 1.970 . S
Li88 O150 1.961 . S
Li89 N113 1.990 . S
Li89 O148 1.970 . S
Li89 O149 1.956 . S
Li89 O151 1.961 . S
Li90 N135 1.990 . S
Li90 O148 1.961 . S
Li90 O150 1.956 . S
Li90 O151 1.970 . S
Li91 N141 1.990 . S
Li91 O149 1.961 . S
Li91 O150 1.970 . S
Li91 O151 1.956 . S
C92 C94 1.348 . S
C92 C95 1.356 . S
C92 O148 1.325 . S
N93 C96 1.314 . S
N93 C97 1.279 . S
C94 C92 1.348 . S
C94 C96 1.353 . S
C94 H152 0.929 . S
C95 C92 1.356 . S
C95 C97 1.358 . S
C95 H153 0.930 . S
C96 N93 1.314 . S
C96 C94 1.353 . S
C96 H154 0.930 . S
C97 N93 1.279 . S
C97 C95 1.358 . S
C97 H155 0.930 . S
C98 C101 1.348 . S
C98 C102 1.356 . S
C98 O149 1.325 . S
C99 N100 1.279 . S
C99 C102 1.358 . S
C99 H156 0.930 . S
N100 C99 1.279 . S
N100 C103 1.314 . S
C101 C98 1.348 . S
C101 C103 1.353 . S
C101 H157 0.929 . S
C102 C98 1.356 . S
C102 C99 1.358 . S
C102 H158 0.930 . S
C103 N100 1.314 . S
C103 C101 1.353 . S
C103 H159 0.930 . S
C104 N105 1.314 . S
C104 C109 1.353 . S
C104 H110 0.930 . S
N105 Li88 1.990 . S
N105 C104 1.314 . S
N105 C107 1.279 . S
C106 C107 1.358 . S
C106 C108 1.356 . S
C106 H160 0.930 . S
C107 N105 1.279 . S
C107 C106 1.358 . S
C107 H111 0.930 . S
C108 C106 1.356 . S
C108 C109 1.348 . S
C109 C104 1.353 . S
C109 C108 1.348 . S
C109 H161 0.929 . S
H110 C104 0.930 . S
H111 C107 0.930 . S
C112 N113 1.314 . S
C112 C114 1.353 . S
C112 H118 0.930 . S
N113 Li89 1.990 . S
N113 C112 1.314 . S
N113 C116 1.279 . S
C114 C112 1.353 . S
C114 C117 1.348 . S
C114 H162 0.929 . S
C115 C116 1.358 . S
C115 C117 1.356 . S
C115 H163 0.930 . S
C116 N113 1.279 . S
C116 C115 1.358 . S
C116 H119 0.930 . S
C117 C114 1.348 . S
C117 C115 1.356 . S
H118 C112 0.930 . S
H119 C116 0.930 . S
C120 C122 1.348 . S
C120 C123 1.356 . S
C120 O150 1.325 . S
N121 C124 1.314 . S
N121 C125 1.279 . S
C122 C120 1.348 . S
C122 C124 1.353 . S
C122 H164 0.929 . S
C123 C120 1.356 . S
C123 C125 1.358 . S
C123 H165 0.930 . S
C124 N121 1.314 . S
C124 C122 1.353 . S
C124 H166 0.930 . S
C125 N121 1.279 . S
C125 C123 1.358 . S
C125 H167 0.930 . S
C126 C127 1.348 . S
C126 C128 1.356 . S
C126 O151 1.325 . S
C127 C126 1.348 . S
C127 C129 1.353 . S
C127 H168 0.929 . S
C128 C126 1.356 . S
C128 C130 1.358 . S
C128 H169 0.930 . S
C129 C127 1.353 . S
C129 N131 1.314 . S
C129 H170 0.930 . S
C130 C128 1.358 . S
C130 N131 1.279 . S
C130 H171 0.930 . S
N131 C129 1.314 . S
N131 C130 1.279 . S
C132 C134 1.353 . S
C132 N135 1.314 . S
C132 H138 0.930 . S
C133 N135 1.279 . S
C133 C136 1.358 . S
C133 H139 0.930 . S
C134 C132 1.353 . S
C134 C137 1.348 . S
C134 H172 0.929 . S
N135 Li90 1.990 . S
N135 C132 1.314 . S
N135 C133 1.279 . S
C136 C133 1.358 . S
C136 C137 1.356 . S
C136 H173 0.930 . S
C137 C134 1.348 . S
C137 C136 1.356 . S
H138 C132 0.930 . S
H139 C133 0.930 . S
C140 N141 1.314 . S
C140 C142 1.353 . S
C140 H146 0.930 . S
N141 Li91 1.990 . S
N141 C140 1.314 . S
N141 C144 1.279 . S
C142 C140 1.353 . S
C142 C145 1.348 . S
C142 H174 0.929 . S
C143 C144 1.358 . S
C143 C145 1.356 . S
C143 H175 0.930 . S
C144 N141 1.279 . S
C144 C143 1.358 . S
C144 H147 0.930 . S
C145 C142 1.348 . S
C145 C143 1.356 . S
H146 C140 0.930 . S
H147 C144 0.930 . S
O148 Li88 1.956 . S
O148 Li89 1.970 . S
O148 Li90 1.961 . S
O148 C92 1.325 . S
O149 Li88 1.970 . S
O149 Li89 1.956 . S
O149 Li91 1.961 . S
O149 C98 1.325 . S
O150 Li88 1.961 . S
O150 Li90 1.956 . S
O150 Li91 1.970 . S
O150 C120 1.325 . S
O151 Li89 1.961 . S
O151 Li90 1.970 . S
O151 Li91 1.956 . S
O151 C126 1.325 . S
H152 C94 0.929 . S
H153 C95 0.930 . S
H154 C96 0.930 . S
H155 C97 0.930 . S
H156 C99 0.930 . S
H157 C101 0.929 . S
H158 C102 0.930 . S
H159 C103 0.930 . S
H160 C106 0.930 . S
H161 C109 0.929 . S
H162 C114 0.929 . S
H163 C115 0.930 . S
H164 C122 0.929 . S
H165 C123 0.930 . S
H166 C124 0.930 . S
H167 C125 0.930 . S
H168 C127 0.929 . S
H169 C128 0.930 . S
H170 C129 0.930 . S
H171 C130 0.930 . S
H172 C134 0.929 . S
H173 C136 0.930 . S
H174 C142 0.929 . S
H175 C143 0.930 . S
Li176 N193 1.990 . S
Li176 O236 1.956 . S
Li176 O237 1.970 . S
Li176 O238 1.961 . S
Li177 N201 1.990 . S
Li177 O236 1.970 . S
Li177 O237 1.956 . S
Li177 O239 1.961 . S
Li178 N223 1.990 . S
Li178 O236 1.961 . S
Li178 O238 1.956 . S
Li178 O239 1.970 . S
Li179 N229 1.990 . S
Li179 O237 1.961 . S
Li179 O238 1.970 . S
Li179 O239 1.956 . S
C180 C182 1.348 . S
C180 C183 1.356 . S
C180 O236 1.325 . S
N181 C184 1.314 . S
N181 C185 1.279 . S
C182 C180 1.348 . S
C182 C184 1.353 . S
C182 H240 0.929 . S
C183 C180 1.356 . S
C183 C185 1.358 . S
C183 H241 0.930 . S
C184 N181 1.314 . S
C184 C182 1.353 . S
C184 H242 0.930 . S
C185 N181 1.279 . S
C185 C183 1.358 . S
C185 H243 0.930 . S
C186 C189 1.348 . S
C186 C190 1.356 . S
C186 O237 1.325 . S
C187 N188 1.279 . S
C187 C190 1.358 . S
C187 H244 0.930 . S
N188 C187 1.279 . S
N188 C191 1.314 . S
C189 C186 1.348 . S
C189 C191 1.353 . S
C189 H245 0.929 . S
C190 C186 1.356 . S
C190 C187 1.358 . S
C190 H246 0.930 . S
C191 N188 1.314 . S
C191 C189 1.353 . S
C191 H247 0.930 . S
C192 N193 1.314 . S
C192 C197 1.353 . S
C192 H198 0.930 . S
N193 Li176 1.990 . S
N193 C192 1.314 . S
N193 C195 1.279 . S
C194 C195 1.358 . S
C194 C196 1.356 . S
C194 H248 0.930 . S
C195 N193 1.279 . S
C195 C194 1.358 . S
C195 H199 0.930 . S
C196 C194 1.356 . S
C196 C197 1.348 . S
C197 C192 1.353 . S
C197 C196 1.348 . S
C197 H249 0.929 . S
H198 C192 0.930 . S
H199 C195 0.930 . S
C200 N201 1.314 . S
C200 C202 1.353 . S
C200 H206 0.930 . S
N201 Li177 1.990 . S
N201 C200 1.314 . S
N201 C204 1.279 . S
C202 C200 1.353 . S
C202 C205 1.348 . S
C202 H250 0.929 . S
C203 C204 1.358 . S
C203 C205 1.356 . S
C203 H251 0.930 . S
C204 N201 1.279 . S
C204 C203 1.358 . S
C204 H207 0.930 . S
C205 C202 1.348 . S
C205 C203 1.356 . S
H206 C200 0.930 . S
H207 C204 0.930 . S
C208 C210 1.348 . S
C208 C211 1.356 . S
C208 O238 1.325 . S
N209 C212 1.314 . S
N209 C213 1.279 . S
C210 C208 1.348 . S
C210 C212 1.353 . S
C210 H252 0.929 . S
C211 C208 1.356 . S
C211 C213 1.358 . S
C211 H253 0.930 . S
C212 N209 1.314 . S
C212 C210 1.353 . S
C212 H254 0.930 . S
C213 N209 1.279 . S
C213 C211 1.358 . S
C213 H255 0.930 . S
C214 C215 1.348 . S
C214 C216 1.356 . S
C214 O239 1.325 . S
C215 C214 1.348 . S
C215 C217 1.353 . S
C215 H256 0.929 . S
C216 C214 1.356 . S
C216 C218 1.358 . S
C216 H257 0.930 . S
C217 C215 1.353 . S
C217 N219 1.314 . S
C217 H258 0.930 . S
C218 C216 1.358 . S
C218 N219 1.279 . S
C218 H259 0.930 . S
N219 C217 1.314 . S
N219 C218 1.279 . S
C220 C222 1.353 . S
C220 N223 1.314 . S
C220 H226 0.930 . S
C221 N223 1.279 . S
C221 C224 1.358 . S
C221 H227 0.930 . S
C222 C220 1.353 . S
C222 C225 1.348 . S
C222 H260 0.929 . S
N223 Li178 1.990 . S
N223 C220 1.314 . S
N223 C221 1.279 . S
C224 C221 1.358 . S
C224 C225 1.356 . S
C224 H261 0.930 . S
C225 C222 1.348 . S
C225 C224 1.356 . S
H226 C220 0.930 . S
H227 C221 0.930 . S
C228 N229 1.314 . S
C228 C230 1.353 . S
C228 H234 0.930 . S
N229 Li179 1.990 . S
N229 C228 1.314 . S
N229 C232 1.279 . S
C230 C228 1.353 . S
C230 C233 1.348 . S
C230 H262 0.929 . S
C231 C232 1.358 . S
C231 C233 1.356 . S
C231 H263 0.930 . S
C232 N229 1.279 . S
C232 C231 1.358 . S
C232 H235 0.930 . S
C233 C230 1.348 . S
C233 C231 1.356 . S
H234 C228 0.930 . S
H235 C232 0.930 . S
O236 Li176 1.956 . S
O236 Li177 1.970 . S
O236 Li178 1.961 . S
O236 C180 1.325 . S
O237 Li176 1.970 . S
O237 Li177 1.956 . S
O237 Li179 1.961 . S
O237 C186 1.325 . S
O238 Li176 1.961 . S
O238 Li178 1.956 . S
O238 Li179 1.970 . S
O238 C208 1.325 . S
O239 Li177 1.961 . S
O239 Li178 1.970 . S
O239 Li179 1.956 . S
O239 C214 1.325 . S
H240 C182 0.929 . S
H241 C183 0.930 . S
H242 C184 0.930 . S
H243 C185 0.930 . S
H244 C187 0.930 . S
H245 C189 0.929 . S
H246 C190 0.930 . S
H247 C191 0.930 . S
H248 C194 0.930 . S
H249 C197 0.929 . S
H250 C202 0.929 . S
H251 C203 0.930 . S
H252 C210 0.929 . S
H253 C211 0.930 . S
H254 C212 0.930 . S
H255 C213 0.930 . S
H256 C215 0.929 . S
H257 C216 0.930 . S
H258 C217 0.930 . S
H259 C218 0.930 . S
H260 C222 0.929 . S
H261 C224 0.930 . S
H262 C230 0.929 . S
H263 C231 0.930 . S
Li264 N281 1.990 . S
Li264 O324 1.956 . S
Li264 O325 1.970 . S
Li264 O326 1.961 . S
Li265 N289 1.990 . S
Li265 O324 1.970 . S
Li265 O325 1.956 . S
Li265 O327 1.961 . S
Li266 N311 1.990 . S
Li266 O324 1.961 . S
Li266 O326 1.956 . S
Li266 O327 1.970 . S
Li267 N317 1.990 . S
Li267 O325 1.961 . S
Li267 O326 1.970 . S
Li267 O327 1.956 . S
C268 C270 1.348 . S
C268 C271 1.356 . S
C268 O324 1.325 . S
N269 C272 1.314 . S
N269 C273 1.279 . S
C270 C268 1.348 . S
C270 C272 1.353 . S
C270 H328 0.929 . S
C271 C268 1.356 . S
C271 C273 1.358 . S
C271 H329 0.930 . S
C272 N269 1.314 . S
C272 C270 1.353 . S
C272 H330 0.930 . S
C273 N269 1.279 . S
C273 C271 1.358 . S
C273 H331 0.930 . S
C274 C277 1.348 . S
C274 C278 1.356 . S
C274 O325 1.325 . S
C275 N276 1.279 . S
C275 C278 1.358 . S
C275 H332 0.930 . S
N276 C275 1.279 . S
N276 C279 1.314 . S
C277 C274 1.348 . S
C277 C279 1.353 . S
C277 H333 0.929 . S
C278 C274 1.356 . S
C278 C275 1.358 . S
C278 H334 0.930 . S
C279 N276 1.314 . S
C279 C277 1.353 . S
C279 H335 0.930 . S
C280 N281 1.314 . S
C280 C285 1.353 . S
C280 H286 0.930 . S
N281 Li264 1.990 . S
N281 C280 1.314 . S
N281 C283 1.279 . S
C282 C283 1.358 . S
C282 C284 1.356 . S
C282 H336 0.930 . S
C283 N281 1.279 . S
C283 C282 1.358 . S
C283 H287 0.930 . S
C284 C282 1.356 . S
C284 C285 1.348 . S
C285 C280 1.353 . S
C285 C284 1.348 . S
C285 H337 0.929 . S
H286 C280 0.930 . S
H287 C283 0.930 . S
C288 N289 1.314 . S
C288 C290 1.353 . S
C288 H294 0.930 . S
N289 Li265 1.990 . S
N289 C288 1.314 . S
N289 C292 1.279 . S
C290 C288 1.353 . S
C290 C293 1.348 . S
C290 H338 0.929 . S
C291 C292 1.358 . S
C291 C293 1.356 . S
C291 H339 0.930 . S
C292 N289 1.279 . S
C292 C291 1.358 . S
C292 H295 0.930 . S
C293 C290 1.348 . S
C293 C291 1.356 . S
H294 C288 0.930 . S
H295 C292 0.930 . S
C296 C298 1.348 . S
C296 C299 1.356 . S
C296 O326 1.325 . S
N297 C300 1.314 . S
N297 C301 1.279 . S
C298 C296 1.348 . S
C298 C300 1.353 . S
C298 H340 0.929 . S
C299 C296 1.356 . S
C299 C301 1.358 . S
C299 H341 0.930 . S
C300 N297 1.314 . S
C300 C298 1.353 . S
C300 H342 0.930 . S
C301 N297 1.279 . S
C301 C299 1.358 . S
C301 H343 0.930 . S
C302 C303 1.348 . S
C302 C304 1.356 . S
C302 O327 1.325 . S
C303 C302 1.348 . S
C303 C305 1.353 . S
C303 H344 0.929 . S
C304 C302 1.356 . S
C304 C306 1.358 . S
C304 H345 0.930 . S
C305 C303 1.353 . S
C305 N307 1.314 . S
C305 H346 0.930 . S
C306 C304 1.358 . S
C306 N307 1.279 . S
C306 H347 0.930 . S
N307 C305 1.314 . S
N307 C306 1.279 . S
C308 C310 1.353 . S
C308 N311 1.314 . S
C308 H314 0.930 . S
C309 N311 1.279 . S
C309 C312 1.358 . S
C309 H315 0.930 . S
C310 C308 1.353 . S
C310 C313 1.348 . S
C310 H348 0.929 . S
N311 Li266 1.990 . S
N311 C308 1.314 . S
N311 C309 1.279 . S
C312 C309 1.358 . S
C312 C313 1.356 . S
C312 H349 0.930 . S
C313 C310 1.348 . S
C313 C312 1.356 . S
H314 C308 0.930 . S
H315 C309 0.930 . S
C316 N317 1.314 . S
C316 C318 1.353 . S
C316 H322 0.930 . S
N317 Li267 1.990 . S
N317 C316 1.314 . S
N317 C320 1.279 . S
C318 C316 1.353 . S
C318 C321 1.348 . S
C318 H350 0.929 . S
C319 C320 1.358 . S
C319 C321 1.356 . S
C319 H351 0.930 . S
C320 N317 1.279 . S
C320 C319 1.358 . S
C320 H323 0.930 . S
C321 C318 1.348 . S
C321 C319 1.356 . S
H322 C316 0.930 . S
H323 C320 0.930 . S
O324 Li264 1.956 . S
O324 Li265 1.970 . S
O324 Li266 1.961 . S
O324 C268 1.325 . S
O325 Li264 1.970 . S
O325 Li265 1.956 . S
O325 Li267 1.961 . S
O325 C274 1.325 . S
O326 Li264 1.961 . S
O326 Li266 1.956 . S
O326 Li267 1.970 . S
O326 C296 1.325 . S
O327 Li265 1.961 . S
O327 Li266 1.970 . S
O327 Li267 1.956 . S
O327 C302 1.325 . S
H328 C270 0.929 . S
H329 C271 0.930 . S
H330 C272 0.930 . S
H331 C273 0.930 . S
H332 C275 0.930 . S
H333 C277 0.929 . S
H334 C278 0.930 . S
H335 C279 0.930 . S
H336 C282 0.930 . S
H337 C285 0.929 . S
H338 C290 0.929 . S
H339 C291 0.930 . S
H340 C298 0.929 . S
H341 C299 0.930 . S
H342 C300 0.930 . S
H343 C301 0.930 . S
H344 C303 0.929 . S
H345 C304 0.930 . S
H346 C305 0.930 . S
H347 C306 0.930 . S
H348 C310 0.929 . S
H349 C312 0.930 . S
H350 C318 0.929 . S
H351 C319 0.930 . S
H352 C353 0.951 1_545 S
C353 H352 0.951 1_565 S
C353 C359 1.265 . S
H354 C359 0.950 . S
H355 C363 0.949 . S
H356 C364 0.950 . S
H357 C365 0.951 . S
H358 C366 0.951 . S
C359 C353 1.265 . S
C359 H354 0.950 . S
C359 C360 1.478 . S
C360 C359 1.478 . S
C360 C361 1.397 . S
C360 C377 1.394 1_565 S
C361 C360 1.397 . S
C361 C362 1.438 . S
C361 C366 1.429 . S
C362 C361 1.438 . S
C362 C363 1.428 . S
C362 C375 1.394 1_565 S
C363 H355 0.949 . S
C363 C362 1.428 . S
C363 C364 1.345 . S
C364 H356 0.950 . S
C364 C363 1.345 . S
C364 C365 1.424 . S
C365 H357 0.951 . S
C365 C364 1.424 . S
C365 C366 1.347 . S
C366 H358 0.951 . S
C366 C361 1.429 . S
C366 C365 1.347 . S
H367 C368 0.951 1_565 S
C368 H367 0.951 1_545 S
C368 C374 1.265 . S
H369 C374 0.950 . S
H370 C378 0.949 . S
H371 C379 0.950 . S
H372 C380 0.951 . S
H373 C381 0.951 . S
C374 C368 1.265 . S
C374 H369 0.950 . S
C374 C375 1.478 . S
C375 C362 1.394 1_545 S
C375 C374 1.478 . S
C375 C376 1.397 . S
C376 C375 1.397 . S
C376 C377 1.438 . S
C376 C381 1.429 . S
C377 C360 1.394 1_545 S
C377 C376 1.438 . S
C377 C378 1.428 . S
C378 H370 0.949 . S
C378 C377 1.428 . S
C378 C379 1.345 . S
C379 H371 0.950 . S
C379 C378 1.345 . S
C379 C380 1.424 . S
C380 H372 0.951 . S
C380 C379 1.424 . S
C380 C381 1.347 . S
C381 H373 0.951 . S
C381 C376 1.429 . S
C381 C380 1.347 . S
H382 C383 0.951 . S
C383 H382 0.951 . S
C383 C389 1.265 . S
H384 C389 0.950 . S
H385 C393 0.949 . S
H386 C394 0.950 . S
H387 C395 0.951 . S
H388 C396 0.951 . S
C389 C383 1.265 . S
C389 H384 0.950 . S
C389 C390 1.478 . S
C390 C389 1.478 . S
C390 C391 1.397 . S
C390 C407 1.394 . S
C391 C390 1.397 . S
C391 C392 1.438 . S
C391 C396 1.429 . S
C392 C391 1.438 . S
C392 C393 1.428 . S
C392 C405 1.394 . S
C393 H385 0.949 . S
C393 C392 1.428 . S
C393 C394 1.345 . S
C394 H386 0.950 . S
C394 C393 1.345 . S
C394 C395 1.424 . S
C395 H387 0.951 . S
C395 C394 1.424 . S
C395 C396 1.347 . S
C396 H388 0.951 . S
C396 C391 1.429 . S
C396 C395 1.347 . S
H397 C398 0.951 . S
C398 H397 0.951 . S
C398 C404 1.265 . S
H399 C404 0.950 . S
H400 C408 0.949 . S
H401 C409 0.950 . S
H402 C410 0.951 . S
H403 C411 0.951 . S
C404 C398 1.265 . S
C404 H399 0.950 . S
C404 C405 1.478 . S
C405 C392 1.394 . S
C405 C404 1.478 . S
C405 C406 1.397 . S
C406 C405 1.397 . S
C406 C407 1.438 . S
C406 C411 1.429 . S
C407 C390 1.394 . S
C407 C406 1.438 . S
C407 C408 1.428 . S
C408 H400 0.949 . S
C408 C407 1.428 . S
C408 C409 1.345 . S
C409 H401 0.950 . S
C409 C408 1.345 . S
C409 C410 1.424 . S
C410 H402 0.951 . S
C410 C409 1.424 . S
C410 C411 1.347 . S
C411 H403 0.951 . S
C411 C406 1.429 . S
C411 C410 1.347 . S
H412 C413 0.951 . S
C413 H412 0.951 . S
C413 C419 1.265 1_545 S
H414 C419 0.950 . S
H415 C423 0.949 . S
H416 C424 0.950 . S
H417 C425 0.951 . S
H418 C426 0.951 . S
C419 C413 1.265 1_565 S
C419 H414 0.950 . S
C419 C420 1.478 . S
C420 C419 1.478 . S
C420 C421 1.397 . S
C420 C437 1.394 1_565 S
C421 C420 1.397 . S
C421 C422 1.438 . S
C421 C426 1.429 . S
C422 C421 1.438 . S
C422 C423 1.428 . S
C422 C435 1.394 1_565 S
C423 H415 0.949 . S
C423 C422 1.428 . S
C423 C424 1.345 . S
C424 H416 0.950 . S
C424 C423 1.345 . S
C424 C425 1.424 . S
C425 H417 0.951 . S
C425 C424 1.424 . S
C425 C426 1.347 . S
C426 H418 0.951 . S
C426 C421 1.429 . S
C426 C425 1.347 . S
H427 C428 0.951 . S
C428 H427 0.951 . S
C428 C434 1.265 1_565 S
H429 C434 0.950 . S
H430 C438 0.949 . S
H431 C439 0.950 . S
H432 C440 0.951 . S
H433 C441 0.951 . S
C434 C428 1.265 1_545 S
C434 H429 0.950 . S
C434 C435 1.478 . S
C435 C422 1.394 1_545 S
C435 C434 1.478 . S
C435 C436 1.397 . S
C436 C435 1.397 . S
C436 C437 1.438 . S
C436 C441 1.429 . S
C437 C420 1.394 1_545 S
C437 C436 1.438 . S
C437 C438 1.428 . S
C438 H430 0.949 . S
C438 C437 1.428 . S
C438 C439 1.345 . S
C439 H431 0.950 . S
C439 C438 1.345 . S
C439 C440 1.424 . S
C440 H432 0.951 . S
C440 C439 1.424 . S
C440 C441 1.347 . S
C441 H433 0.951 . S
C441 C436 1.429 . S
C441 C440 1.347 . S
H442 C443 0.951 . S
C443 H442 0.951 . S
C443 C449 1.265 . S
H444 C449 0.950 . S
H445 C453 0.949 . S
H446 C454 0.950 . S
H447 C455 0.951 . S
H448 C456 0.951 . S
C449 C443 1.265 . S
C449 H444 0.950 . S
C449 C450 1.478 . S
C450 C449 1.478 . S
C450 C451 1.397 . S
C450 C467 1.394 . S
C451 C450 1.397 . S
C451 C452 1.438 . S
C451 C456 1.429 . S
C452 C451 1.438 . S
C452 C453 1.428 . S
C452 C465 1.394 . S
C453 H445 0.949 . S
C453 C452 1.428 . S
C453 C454 1.345 . S
C454 H446 0.950 . S
C454 C453 1.345 . S
C454 C455 1.424 . S
C455 H447 0.951 . S
C455 C454 1.424 . S
C455 C456 1.347 . S
C456 H448 0.951 . S
C456 C451 1.429 . S
C456 C455 1.347 . S
H457 C458 0.951 . S
C458 H457 0.951 . S
C458 C464 1.265 . S
H459 C464 0.950 . S
H460 C468 0.949 . S
H461 C469 0.950 . S
H462 C470 0.951 . S
H463 C471 0.951 . S
C464 C458 1.265 . S
C464 H459 0.950 . S
C464 C465 1.478 . S
C465 C452 1.394 . S
C465 C464 1.478 . S
C465 C466 1.397 . S
C466 C465 1.397 . S
C466 C467 1.438 . S
C466 C471 1.429 . S
C467 C450 1.394 . S
C467 C466 1.438 . S
C467 C468 1.428 . S
C468 H460 0.949 . S
C468 C467 1.428 . S
C468 C469 1.345 . S
C469 H461 0.950 . S
C469 C468 1.345 . S
C469 C470 1.424 . S
C470 H462 0.951 . S
C470 C469 1.424 . S
C470 C471 1.347 . S
C471 H463 0.951 . S
C471 C466 1.429 . S
C471 C470 1.347 . S
H472 C473 0.951 . S
C473 H472 0.951 . S
C473 C479 1.265 . S
H474 C479 0.950 . S
H475 C483 0.949 . S
H476 C484 0.950 . S
H477 C485 0.951 . S
H478 C486 0.951 . S
C479 C473 1.265 . S
C479 H474 0.950 . S
C479 C480 1.478 . S
C480 C479 1.478 . S
C480 C481 1.397 1_455 S
C480 C497 1.394 . S
C481 C480 1.397 1_655 S
C481 C482 1.438 1_544 S
C481 C486 1.429 . S
C482 C481 1.438 1_566 S
C482 C483 1.428 . S
C482 C495 1.394 . S
C483 H475 0.949 . S
C483 C482 1.428 . S
C483 C484 1.345 1_565 S
C484 H476 0.950 . S
C484 C483 1.345 1_545 S
C484 C485 1.424 1_556 S
C485 H477 0.951 . S
C485 C484 1.424 1_554 S
C485 C486 1.347 . S
C486 H478 0.951 . S
C486 C481 1.429 . S
C486 C485 1.347 . S
H487 C488 0.951 . S
C488 H487 0.951 . S
C488 C494 1.265 . S
H489 C494 0.950 . S
H490 C498 0.949 . S
H491 C499 0.950 . S
H492 C500 0.951 . S
H493 C501 0.951 . S
C494 C488 1.265 . S
C494 H489 0.950 . S
C494 C495 1.478 . S
C495 C482 1.394 . S
C495 C494 1.478 . S
C495 C496 1.397 1_655 S
C496 C495 1.397 1_455 S
C496 C497 1.438 1_566 S
C496 C501 1.429 . S
C497 C480 1.394 . S
C497 C496 1.438 1_544 S
C497 C498 1.428 . S
C498 H490 0.949 . S
C498 C497 1.428 . S
C498 C499 1.345 1_545 S
C499 H491 0.950 . S
C499 C498 1.345 1_565 S
C499 C500 1.424 1_554 S
C500 H492 0.951 . S
C500 C499 1.424 1_556 S
C500 C501 1.347 . S
C501 H493 0.951 . S
C501 C496 1.429 . S
C501 C500 1.347 . S
H502 C503 0.951 . S
C503 H502 0.951 . S
C503 C509 1.265 . S
H504 C509 0.950 . S
H505 C513 0.949 . S
H506 C514 0.950 1_565 S
H507 C515 0.951 . S
H508 C516 0.951 . S
C509 C503 1.265 . S
C509 H504 0.950 . S
C509 C510 1.478 . S
C510 C509 1.478 . S
C510 C511 1.397 . S
C510 C527 1.394 1_556 S
C511 C510 1.397 . S
C511 C512 1.438 1_545 S
C511 C516 1.429 . S
C512 C511 1.438 1_565 S
C512 C513 1.428 . S
C512 C525 1.394 1_556 S
C513 H505 0.949 . S
C513 C512 1.428 . S
C513 C514 1.345 1_565 S
C514 H506 0.950 1_545 S
C514 C513 1.345 1_545 S
C514 C515 1.424 . S
C515 H507 0.951 . S
C515 C514 1.424 . S
C515 C516 1.347 . S
C516 H508 0.951 . S
C516 C511 1.429 . S
C516 C515 1.347 . S
H517 C518 0.951 . S
C518 H517 0.951 . S
C518 C524 1.265 . S
H519 C524 0.950 . S
H520 C528 0.949 . S
H521 C529 0.950 1_545 S
H522 C530 0.951 . S
H523 C531 0.951 . S
C524 C518 1.265 . S
C524 H519 0.950 . S
C524 C525 1.478 . S
C525 C512 1.394 1_554 S
C525 C524 1.478 . S
C525 C526 1.397 . S
C526 C525 1.397 . S
C526 C527 1.438 1_565 S
C526 C531 1.429 . S
C527 C510 1.394 1_554 S
C527 C526 1.438 1_545 S
C527 C528 1.428 . S
C528 H520 0.949 . S
C528 C527 1.428 . S
C528 C529 1.345 1_545 S
C529 H521 0.950 1_565 S
C529 C528 1.345 1_565 S
C529 C530 1.424 . S
C530 H522 0.951 . S
C530 C529 1.424 . S
C530 C531 1.347 . S
C531 H523 0.951 . S
C531 C526 1.429 . S
C531 C530 1.347 . S
H532 C533 0.951 . S
C533 H532 0.951 . S
C533 C539 1.265 . S
H534 C539 0.950 . S
H535 C543 0.949 . S
H536 C544 0.950 . S
H537 C545 0.951 . S
H538 C546 0.951 1_655 S
C539 C533 1.265 . S
C539 H534 0.950 . S
C539 C540 1.478 . S
C540 C539 1.478 . S
C540 C541 1.397 1_655 S
C540 C557 1.394 . S
C541 C540 1.397 1_455 S
C541 C542 1.438 . S
C541 C546 1.429 . S
C542 C541 1.438 . S
C542 C543 1.428 . S
C542 C555 1.394 . S
C543 H535 0.949 . S
C543 C542 1.428 . S
C543 C544 1.345 . S
C544 H536 0.950 . S
C544 C543 1.345 . S
C544 C545 1.424 . S
C545 H537 0.951 . S
C545 C544 1.424 . S
C545 C546 1.347 . S
C546 H538 0.951 1_455 S
C546 C541 1.429 . S
C546 C545 1.347 . S
H547 C548 0.951 . S
C548 H547 0.951 . S
C548 C554 1.265 . S
H549 C554 0.950 . S
H550 C558 0.949 . S
H551 C559 0.950 . S
H552 C560 0.951 . S
H553 C561 0.951 1_455 S
C554 C548 1.265 . S
C554 H549 0.950 . S
C554 C555 1.478 . S
C555 C542 1.394 . S
C555 C554 1.478 . S
C555 C556 1.397 1_455 S
C556 C555 1.397 1_655 S
C556 C557 1.438 . S
C556 C561 1.429 . S
C557 C540 1.394 . S
C557 C556 1.438 . S
C557 C558 1.428 . S
C558 H550 0.949 . S
C558 C557 1.428 . S
C558 C559 1.345 . S
C559 H551 0.950 . S
C559 C558 1.345 . S
C559 C560 1.424 . S
C560 H552 0.951 . S
C560 C559 1.424 . S
C560 C561 1.347 . S
C561 H553 0.951 1_655 S
C561 C556 1.429 . S
C561 C560 1.347 . S
H562 C563 0.951 . S
C563 H562 0.951 . S
C563 C569 1.265 . S
H564 C569 0.950 . S
H565 C573 0.949 . S
H566 C574 0.950 . S
H567 C575 0.951 . S
H568 C576 0.951 . S
C569 C563 1.265 . S
C569 H564 0.950 . S
C569 C570 1.478 . S
C570 C569 1.478 . S
C570 C571 1.397 . S
C570 C587 1.394 . S
C571 C570 1.397 . S
C571 C572 1.438 . S
C571 C576 1.429 . S
C572 C571 1.438 . S
C572 C573 1.428 . S
C572 C585 1.394 . S
C573 H565 0.949 . S
C573 C572 1.428 . S
C573 C574 1.345 . S
C574 H566 0.950 . S
C574 C573 1.345 . S
C574 C575 1.424 . S
C575 H567 0.951 . S
C575 C574 1.424 . S
C575 C576 1.347 . S
C576 H568 0.951 . S
C576 C571 1.429 . S
C576 C575 1.347 . S
H577 C578 0.951 . S
C578 H577 0.951 . S
C578 C584 1.265 . S
H579 C584 0.950 . S
H580 C588 0.949 . S
H581 C589 0.950 . S
H582 C590 0.951 . S
H583 C591 0.951 . S
C584 C578 1.265 . S
C584 H579 0.950 . S
C584 C585 1.478 . S
C585 C572 1.394 . S
C585 C584 1.478 . S
C585 C586 1.397 . S
C586 C585 1.397 . S
C586 C587 1.438 . S
C586 C591 1.429 . S
C587 C570 1.394 . S
C587 C586 1.438 . S
C587 C588 1.428 . S
C588 H580 0.949 . S
C588 C587 1.428 . S
C588 C589 1.345 . S
C589 H581 0.950 . S
C589 C588 1.345 . S
C589 C590 1.424 . S
C590 H582 0.951 . S
C590 C589 1.424 . S
C590 C591 1.347 . S
C591 H583 0.951 . S
C591 C586 1.429 . S
C591 C590 1.347 . S
C353 C145 0.840 . S
C368 C29 0.838 . S
C383 C20 0.733 . S
C398 C137 0.816 . S
C413 C284 0.606 . S
C428 C196 0.607 . S
C443 C233 0.611 . S
C458 C321 0.603 . S
C473 C49 1.866 . S
C488 C205 1.862 . S
C503 C293 1.800 . S
C518 C108 1.805 . S
C533 C225 1.830 . S
C548 C57 1.836 . S
C563 C117 1.812 . S
C578 C313 1.809 . S
