# Generated by pormake.
# Topology wjl, (5)-cn, num edge types: 1
# Building blocks:
#     Node 0, Type 0, BuildingBlock: XOMCOT_clean_sbu_1, # of connection points: 5
#     Node 1, Type 0, BuildingBlock: XOMCOT_clean_sbu_1, # of connection points: 5
#     Node 2, Type 0, BuildingBlock: XOMCOT_clean_sbu_1, # of connection points: 5
#     Node 3, Type 0, BuildingBlock: XOMCOT_clean_sbu_1, # of connection points: 5
#     Node 4, Type 0, BuildingBlock: XOMCOT_clean_sbu_1, # of connection points: 5
#     Node 5, Type 0, BuildingBlock: XOMCOT_clean_sbu_1, # of connection points: 5
#     Node 6, Type 0, BuildingBlock: XOMCOT_clean_sbu_1, # of connection points: 5
#     Node 7, Type 0, BuildingBlock: XOMCOT_clean_sbu_1, # of connection points: 5
#     Node 8, Type 0, BuildingBlock: XOMCOT_clean_sbu_1, # of connection points: 5
#     Node 9, Type 0, BuildingBlock: XOMCOT_clean_sbu_1, # of connection points: 5
#     Node 10, Type 0, BuildingBlock: XOMCOT_clean_sbu_1, # of connection points: 5
#     Node 11, Type 0, BuildingBlock: XOMCOT_clean_sbu_1, # of connection points: 5
#     Edge 12, Type (0, 0), BuildingBlock: TEMPAE_clean_linker_10, # of connection points: 2
#     Edge 13, Type (0, 0), BuildingBlock: TEMPAE_clean_linker_10, # of connection points: 2
#     Edge 14, Type (0, 0), BuildingBlock: TEMPAE_clean_linker_10, # of connection points: 2
#     Edge 15, Type (0, 0), BuildingBlock: TEMPAE_clean_linker_10, # of connection points: 2
#     Edge 16, Type (0, 0), BuildingBlock: TEMPAE_clean_linker_10, # of connection points: 2
#     Edge 17, Type (0, 0), BuildingBlock: TEMPAE_clean_linker_10, # of connection points: 2
#     Edge 18, Type (0, 0), BuildingBlock: TEMPAE_clean_linker_10, # of connection points: 2
#     Edge 19, Type (0, 0), BuildingBlock: TEMPAE_clean_linker_10, # of connection points: 2
#     Edge 20, Type (0, 0), BuildingBlock: TEMPAE_clean_linker_10, # of connection points: 2
#     Edge 21, Type (0, 0), BuildingBlock: TEMPAE_clean_linker_10, # of connection points: 2
#     Edge 22, Type (0, 0), BuildingBlock: TEMPAE_clean_linker_10, # of connection points: 2
#     Edge 23, Type (0, 0), BuildingBlock: TEMPAE_clean_linker_10, # of connection points: 2
#     Edge 24, Type (0, 0), BuildingBlock: TEMPAE_clean_linker_10, # of connection points: 2
#     Edge 25, Type (0, 0), BuildingBlock: TEMPAE_clean_linker_10, # of connection points: 2
#     Edge 26, Type (0, 0), BuildingBlock: TEMPAE_clean_linker_10, # of connection points: 2
#     Edge 27, Type (0, 0), BuildingBlock: TEMPAE_clean_linker_10, # of connection points: 2
#     Edge 28, Type (0, 0), BuildingBlock: TEMPAE_clean_linker_10, # of connection points: 2
#     Edge 29, Type (0, 0), BuildingBlock: TEMPAE_clean_linker_10, # of connection points: 2
#     Edge 30, Type (0, 0), BuildingBlock: TEMPAE_clean_linker_10, # of connection points: 2
#     Edge 31, Type (0, 0), BuildingBlock: TEMPAE_clean_linker_10, # of connection points: 2
#     Edge 32, Type (0, 0), BuildingBlock: TEMPAE_clean_linker_10, # of connection points: 2
#     Edge 33, Type (0, 0), BuildingBlock: TEMPAE_clean_linker_10, # of connection points: 2
#     Edge 34, Type (0, 0), BuildingBlock: TEMPAE_clean_linker_10, # of connection points: 2
#     Edge 35, Type (0, 0), BuildingBlock: TEMPAE_clean_linker_10, # of connection points: 2
#     Edge 36, Type (0, 0), BuildingBlock: TEMPAE_clean_linker_10, # of connection points: 2
#     Edge 37, Type (0, 0), BuildingBlock: TEMPAE_clean_linker_10, # of connection points: 2
#     Edge 38, Type (0, 0), BuildingBlock: TEMPAE_clean_linker_10, # of connection points: 2
#     Edge 39, Type (0, 0), BuildingBlock: TEMPAE_clean_linker_10, # of connection points: 2
#     Edge 40, Type (0, 0), BuildingBlock: TEMPAE_clean_linker_10, # of connection points: 2
#     Edge 41, Type (0, 0), BuildingBlock: TEMPAE_clean_linker_10, # of connection points: 2
# Relax obj value: 0.437
# Max RMSD: 0.222
# Mean RMSD: 0.222
data_MOF--net-wjl--node1-XOMCOT_clean_sbu_1--edge1-TEMPAE_clean_linker_10
_symmetry_space_group_name_H-M    P1
_symmetry_Int_Tables_number       1
_symmetry_cell_setting            triclinic
loop_
_symmetry_equiv_pos_as_xyz
'x, y, z'
_cell_length_a     26.546162
_cell_length_b     26.569843
_cell_length_c     86.944448
_cell_angle_alpha  89.972521
_cell_angle_beta   90.003135
_cell_angle_gamma 119.96375
loop_
_atom_site_label
_atom_site_type_symbol
_atom_site_fract_x
_atom_site_fract_y
_atom_site_fract_z
_atom_type_partial_charge
C0 C 0.31966 0.25938 0.35542 0.0
C1 C 0.3508 0.27353 0.36896 0.0
N2 N 0.3998 0.32503 0.36698 0.0
N3 N 0.34908 0.30187 0.34505 0.0
C4 C 0.39793 0.34076 0.35236 0.0
H5 H 0.27761 0.22144 0.35337 0.0
Co6 Co 0.32539 0.30666 0.32536 0.0
C7 C 0.41507 0.42453 0.31507 0.0
O8 O 0.42239 0.40415 0.30201 0.0
N9 N 0.30115 0.31171 0.30541 0.0
C10 C 0.27015 0.33937 0.28505 0.0
C11 C 0.28083 0.34662 0.30061 0.0
C12 C 0.30237 0.28381 0.29258 0.0
N13 N 0.2839 0.29982 0.28 0.0
O14 O 0.38254 0.28874 0.31758 0.0
H15 H 0.27522 0.37646 0.30788 0.0
H16 H 0.31854 0.25383 0.29232 0.0
O17 O 0.3793 0.38975 0.32499 0.0
C18 C 0.35981 0.2335 0.31763 0.0
O19 O 0.30416 0.2018 0.32089 0.0
N20 N 0.26737 0.3182 0.33375 0.0
C21 C 0.1781 0.3127 0.35169 0.0
C22 C 0.23322 0.3628 0.35169 0.0
C23 C 0.27761 0.3645 0.34273 0.0
C24 C 0.21318 0.27075 0.33283 0.0
C25 C 0.16771 0.26705 0.34172 0.0
H26 H 0.32086 0.40119 0.34399 0.0
H27 H 0.20629 0.23398 0.32592 0.0
H28 H 0.4315 0.38034 0.34714 0.0
H29 H 0.33731 0.24913 0.3796 0.0
H30 H 0.25388 0.36185 0.27806 0.0
H31 H 0.24329 0.39844 0.35947 0.0
H32 H 0.12574 0.22763 0.34144 0.0
C33 C 0.03728 0.29648 0.52856 0.0
C34 C 0.05533 0.32394 0.54258 0.0
N35 N 0.07125 0.38022 0.5406 0.0
N36 N 0.04063 0.33526 0.518 0.0
C37 C 0.06237 0.38597 0.52562 0.0
H38 H 0.02058 0.2508 0.52635 0.0
Co39 Co 0.0159 0.32207 0.49775 0.0
C40 C 0.99773 0.42171 0.49109 0.0
O41 O 0.03014 0.435 0.47867 0.0
N42 N 0.99077 0.30859 0.47736 0.0
C43 C 0.94042 0.29677 0.45593 0.0
C44 C 0.94052 0.30201 0.47167 0.0
C45 C 0.01983 0.306 0.46495 0.0
N46 N 0.99063 0.29963 0.4517 0.0
O47 O 0.09359 0.37961 0.49159 0.0
H48 H 0.90683 0.30274 0.4785 0.0
H49 H 0.06183 0.30899 0.46562 0.0
O50 O 0.99097 0.3795 0.49951 0.0
C51 C 0.12548 0.35614 0.49144 0.0
O52 O 0.10035 0.29988 0.49389 0.0
N53 N 0.94308 0.26317 0.50427 0.0
C54 C 0.85759 0.17064 0.52094 0.0
C55 C 0.86331 0.22593 0.52196 0.0
C56 C 0.90686 0.27195 0.51363 0.0
C57 C 0.93453 0.20873 0.502 0.0
C58 C 0.89203 0.16164 0.51031 0.0
H59 H 0.91437 0.31504 0.51588 0.0
H60 H 0.96437 0.20283 0.49478 0.0
H61 H 0.06865 0.42583 0.52049 0.0
H62 H 0.05508 0.30388 0.55344 0.0
H63 H 0.90682 0.2932 0.44821 0.0
H64 H 0.83821 0.23483 0.53022 0.0
H65 H 0.88886 0.11954 0.50924 0.0
C66 C 0.7367 0.06593 0.69754 0.0
C67 C 0.72384 0.0839 0.71111 0.0
N68 N 0.67248 0.08223 0.70942 0.0
N69 N 0.69365 0.0529 0.68737 0.0
C70 C 0.65552 0.06364 0.69488 0.0
H71 H 0.77452 0.06176 0.69528 0.0
Co72 Co 0.68828 0.02407 0.6676 0.0
C73 C 0.57378 0.00451 0.6569 0.0
O74 O 0.59693 0.03481 0.64433 0.0
N75 N 0.68269 0.99485 0.64764 0.0
C76 C 0.64825 0.94008 0.62669 0.0
C77 C 0.64089 0.94298 0.64226 0.0
C78 C 0.71559 0.02201 0.63522 0.0
N79 N 0.69518 0.99016 0.62222 0.0
O80 O 0.71069 0.10016 0.65976 0.0
H81 H 0.6057 0.91029 0.64911 0.0
H82 H 0.75331 0.06486 0.63564 0.0
O83 O 0.60615 0.99933 0.66684 0.0
C84 C 0.76607 0.13127 0.65993 0.0
O85 O 0.79635 0.10624 0.66369 0.0
N86 N 0.67153 0.95267 0.67594 0.0
C87 C 0.6691 0.86459 0.69388 0.0
C88 C 0.62483 0.87872 0.69506 0.0
C89 C 0.62686 0.92292 0.68601 0.0
C90 C 0.71293 0.93732 0.67386 0.0
C91 C 0.71219 0.89283 0.68261 0.0
H92 H 0.59524 0.93631 0.68812 0.0
H93 H 0.74869 0.96211 0.66606 0.0
H94 H 0.61504 0.05617 0.68993 0.0
H95 H 0.7503 0.0969 0.72139 0.0
H96 H 0.6195 0.90481 0.61921 0.0
H97 H 0.59141 0.85937 0.7038 0.0
H98 H 0.74686 0.88299 0.68114 0.0
C99 C 0.64214 0.78168 0.87009 0.0
C100 C 0.61287 0.76906 0.88392 0.0
N101 N 0.57365 0.71177 0.8842 0.0
N102 N 0.62148 0.73258 0.86175 0.0
C103 C 0.57996 0.69098 0.87063 0.0
H104 H 0.67677 0.82376 0.86643 0.0
Co105 Co 0.64641 0.72478 0.84243 0.0
C106 C 0.55646 0.60588 0.83283 0.0
O107 O 0.54874 0.62549 0.81968 0.0
N108 N 0.67186 0.71666 0.82287 0.0
C109 C 0.7045 0.68545 0.80362 0.0
C110 C 0.69363 0.68188 0.81916 0.0
C111 C 0.66972 0.74058 0.80935 0.0
N112 N 0.68923 0.72237 0.79742 0.0
O113 O 0.5895 0.74113 0.83368 0.0
H114 H 0.70009 0.65448 0.82717 0.0
H115 H 0.65209 0.76914 0.80813 0.0
O116 O 0.5925 0.64138 0.84259 0.0
C117 C 0.61188 0.79615 0.8325 0.0
O118 O 0.668 0.82899 0.83498 0.0
N119 N 0.70411 0.71487 0.85176 0.0
C120 C 0.79398 0.71864 0.86916 0.0
C121 C 0.73806 0.66963 0.86955 0.0
C122 C 0.69352 0.66882 0.86089 0.0
C123 C 0.75854 0.76198 0.85076 0.0
C124 C 0.80436 0.76471 0.85933 0.0
H125 H 0.65027 0.63227 0.86216 0.0
H126 H 0.76575 0.79866 0.84376 0.0
H127 H 0.55618 0.64566 0.86749 0.0
H128 H 0.62038 0.79964 0.89306 0.0
H129 H 0.72199 0.66226 0.79744 0.0
H130 H 0.72831 0.63281 0.87685 0.0
H131 H 0.84669 0.80361 0.85881 0.0
C132 C 1.00425 0.68546 0.02312 0.0
C133 C 0.9839 0.65849 0.03714 0.0
N134 N 0.97379 0.60371 0.03592 0.0
N135 N 0.00825 0.648 0.0134 0.0
C136 C 0.98875 0.59849 0.02148 0.0
H137 H 0.01608 0.72964 0.02026 0.0
Co138 Co 0.03245 0.65862 0.99312 0.0
C139 C 0.12524 0.62694 0.99367 0.0
O140 O 0.15899 0.67556 0.98628 0.0
N141 N 0.05388 0.66774 0.9722 0.0
C142 C 0.0638 0.64471 0.9482 0.0
C143 C 0.06539 0.63258 0.96346 0.0
C144 C 0.04346 0.69937 0.96183 0.0
N145 N 0.04916 0.68628 0.94715 0.0
O146 O 0.96048 0.58996 0.98805 0.0
H147 H 0.0686 0.59601 0.96762 0.0
H148 H 0.02484 0.72608 0.96485 0.0
O149 O 0.07256 0.61291 -0.00314 0.0
C150 C 0.92129 0.6022 0.98433 0.0
O151 O 0.93617 0.657 0.98261 0.0
N152 N 0.09984 0.72905 -0.00119 0.0
C153 C 0.17701 0.83431 0.0129 0.0
C154 C 0.17325 0.78242 0.01779 0.0
C155 C 0.1333 0.73029 0.01095 0.0
C156 C 0.1045 0.77968 0.99356 0.0
C157 C 0.14286 0.83292 0.00046 0.0
H158 H 0.12579 0.69066 0.01642 0.0
H159 H 0.07471 0.77877 0.98503 0.0
H160 H 0.98642 0.55945 0.01693 0.0
H161 H 0.97695 0.67738 0.04738 0.0
H162 H 0.068 0.62103 0.93863 0.0
H163 H 0.19682 0.78135 0.02785 0.0
H164 H 0.14318 0.87201 -0.00325 0.0
C165 C 0.258 0.94362 0.18855 0.0
C166 C 0.26857 0.92664 0.2026 0.0
N167 N 0.31284 0.91604 0.20086 0.0
N168 N 0.29636 0.94478 0.17819 0.0
C169 C 0.32835 0.92668 0.18596 0.0
H170 H 0.22677 0.95753 0.18623 0.0
Co171 Co 0.30876 0.97412 0.15835 0.0
C172 C 0.4277 0.99571 0.15141 0.0
O173 O 0.40952 0.96532 0.13865 0.0
N174 N 0.32142 0.00412 0.13836 0.0
C175 C 0.36033 0.06225 0.11816 0.0
C176 C 0.3651 0.05628 0.1337 0.0
C177 C 0.29023 0.97965 0.12552 0.0
N178 N 0.31321 0.01384 0.11298 0.0
O179 O 0.29011 0.89824 0.15092 0.0
H180 H 0.39896 0.08766 0.14112 0.0
H181 H 0.25133 0.93751 0.12536 0.0
O182 O 0.39138 1.00007 0.16009 0.0
C183 C 0.23499 0.86555 0.14994 0.0
O184 O 0.20224 0.88902 0.15232 0.0
N185 N 0.32183 0.04526 0.16611 0.0
C186 C 0.32021 0.13581 0.18183 0.0
C187 C 0.36237 0.12019 0.18516 0.0
C188 C 0.36239 0.07478 0.1772 0.0
C189 C 0.28231 0.06146 0.16213 0.0
C190 C 0.28109 0.10712 0.16975 0.0
H191 H 0.39198 0.06046 0.18089 0.0
H192 H 0.24963 0.03682 0.15355 0.0
H193 H 0.36503 0.92513 0.18106 0.0
H194 H 0.24715 0.92465 0.21336 0.0
H195 H 0.39042 0.09867 0.11117 0.0
H196 H 0.39243 0.13969 0.19464 0.0
H197 H 0.24806 0.11792 0.16671 0.0
C198 C 0.72993 0.65407 0.46254 0.0
C199 C 0.71599 0.62496 0.44867 0.0
N200 N 0.66411 0.57608 0.45025 0.0
N201 N 0.68691 0.62351 0.4727 0.0
C202 C 0.64809 0.57587 0.46495 0.0
H203 H 0.76758 0.69601 0.46487 0.0
Co204 Co 0.67948 0.64622 0.4923 0.0
C205 C 0.56186 0.55198 0.50171 0.0
O206 O 0.58224 0.54306 0.51457 0.0
N207 N 0.67158 0.6695 0.51201 0.0
C208 C 0.63438 0.69032 0.53236 0.0
C209 C 0.62869 0.67917 0.51682 0.0
C210 C 0.70366 0.67666 0.52471 0.0
N211 N 0.68171 0.6889 0.53721 0.0
O212 O 0.69899 0.59058 0.50048 0.0
H213 H 0.59409 0.67608 0.50959 0.0
H214 H 0.74083 0.67036 0.52505 0.0
O215 O 0.59656 0.59015 0.49223 0.0
C216 C 0.75429 0.61357 0.50088 0.0
O217 O 0.7861 0.6691 0.49754 0.0
N218 N 0.66624 0.70282 0.48369 0.0
C219 C 0.66901 0.79087 0.46577 0.0
C220 C 0.62007 0.73498 0.46566 0.0
C221 C 0.61976 0.69124 0.47458 0.0
C222 C 0.7126 0.75766 0.48469 0.0
C223 C 0.71498 0.80251 0.47578 0.0
H224 H 0.58398 0.64758 0.47325 0.0
H225 H 0.74956 0.76566 0.49169 0.0
H226 H 0.60783 0.54214 0.46983 0.0
H227 H 0.74041 0.64016 0.43807 0.0
H228 H 0.60541 0.69758 0.53959 0.0
H229 H 0.58426 0.72399 0.45784 0.0
H230 H 0.75355 0.84513 0.47615 0.0
C231 C 0.04903 0.72313 0.62529 0.0
C232 C 0.06503 0.71008 0.61144 0.0
N233 N 0.0768 0.66698 0.61388 0.0
N234 N 0.04943 0.68731 0.63624 0.0
C235 C 0.06754 0.6544 0.62897 0.0
H236 H 0.03666 0.75572 0.62714 0.0
Co237 Co 0.02719 0.6815 0.65668 0.0
C238 C 0.01081 0.56666 0.6659 0.0
O239 O 0.04206 0.58828 0.67842 0.0
N240 N 1.0046 0.67559 0.67724 0.0
C241 C 0.95569 0.64591 0.69929 0.0
C242 C 0.95373 0.63589 0.68371 0.0
C243 C 0.03646 0.7092 0.68906 0.0
N244 N 0.00806 0.69178 0.70258 0.0
O245 O 0.10574 0.70446 0.66251 0.0
H246 H 0.91791 0.60097 0.67758 0.0
H247 H 0.07979 0.746 0.68789 0.0
O248 O 1.00417 0.59998 0.65663 0.0
C249 C 0.1367 0.75971 0.66168 0.0
O250 O 0.11057 0.78938 0.65841 0.0
N251 N 0.95302 0.66442 0.6504 0.0
C252 C 0.85992 0.65888 0.63419 0.0
C253 C 0.86176 0.60808 0.63758 0.0
C254 C 0.90931 0.61186 0.64544 0.0
C255 C 0.94851 0.71297 0.64893 0.0
C256 C 0.90282 0.71148 0.64065 0.0
H257 H 0.91162 0.57275 0.64681 0.0
H258 H 0.98352 0.75416 0.65299 0.0
H259 H 0.07164 0.62007 0.63446 0.0
H260 H 0.06681 0.72983 0.60041 0.0
H261 H 0.92202 0.6206 0.7076 0.0
H262 H 0.82855 0.56606 0.63342 0.0
H263 H 0.904 0.7521 0.63837 0.0
C264 C 0.38199 0.1585 0.80496 0.0
C265 C 0.41582 0.17137 0.79193 0.0
N266 N 0.42634 0.12745 0.78938 0.0
N267 N 0.37207 0.10713 0.81068 0.0
C268 C 0.39906 0.08908 0.80083 0.0
H269 H 0.36626 0.18523 0.81002 0.0
Co270 Co 0.33239 0.07043 0.82859 0.0
C271 C 0.42161 0.04139 0.84047 0.0
O272 O 0.43748 0.07733 0.85218 0.0
N273 N 0.29194 0.03276 0.84682 0.0
C274 C 0.22407 0.97424 0.86352 0.0
C275 C 0.23742 0.987 0.84823 0.0
C276 C 0.31037 0.047 0.86151 0.0
N277 N 0.27002 0.01222 0.87192 0.0
O278 O 0.3837 0.14023 0.83973 0.0
H279 H 0.20807 0.9645 0.83884 0.0
H280 H 0.35178 0.08396 0.86457 0.0
O281 O 0.38287 0.03781 0.83119 0.0
C282 C 0.35952 0.17052 0.84243 0.0
O283 O 0.3034 0.14669 0.83983 0.0
N284 N 0.28091 0.00672 0.8169 0.0
C285 C 0.20338 0.92532 0.79611 0.0
C286 C 0.2423 0.91439 0.80444 0.0
C287 C 0.28053 0.95555 0.81493 0.0
C288 C 0.24197 0.01705 0.80943 0.0
C289 C 0.20247 0.97676 0.79908 0.0
H290 H 0.31004 0.94635 0.82121 0.0
H291 H 0.2425 0.05753 0.81136 0.0
H292 H 0.39986 0.04906 0.8022 0.0
H293 H 0.43134 0.2099 0.78488 0.0
H294 H 0.18318 0.94013 0.86803 0.0
H295 H 0.24471 0.87539 0.80251 0.0
H296 H 0.17223 0.98643 0.79326 0.0
C297 C 0.3055 0.35428 0.9817 0.0
C298 C 0.31197 0.38928 0.96931 0.0
N299 N 0.36889 0.42843 0.96789 0.0
N300 N 0.3581 0.37171 0.98799 0.0
C301 C 0.39588 0.4171 0.97935 0.0
H302 H 0.26496 0.31949 0.98618 0.0
Co303 Co 0.36949 0.34392 0.00632 0.0
C304 C 0.49073 0.36728 0.00419 0.0
O305 O 0.47058 0.31271 0.00809 0.0
N306 N 0.37826 0.31668 0.02559 0.0
C307 C 0.40692 0.32081 0.04987 0.0
C308 C 0.42427 0.34191 0.03526 0.0
C309 C 0.33331 0.28139 0.03481 0.0
N310 N 0.34931 0.28361 0.04966 0.0
O311 O 0.37059 0.40917 0.01611 0.0
H312 H 0.46605 0.379 0.03255 0.0
H313 H 0.28849 0.25996 0.03109 0.0
O314 O 0.4559 0.38769 0.00341 0.0
C315 C 0.32013 0.3987 0.02029 0.0
O316 O 0.27767 0.34453 0.02057 0.0
N317 N 0.36274 0.27844 0.99561 0.0
C318 C 0.33092 0.1891 0.97427 0.0
C319 C 0.3794 0.24375 0.97171 0.0
C320 C 0.39385 0.28788 0.9823 0.0
C321 C 0.31698 0.22431 -0.00134 0.0
C322 C 0.30057 0.1786 0.98816 0.0
H323 H 0.42748 0.33092 0.97908 0.0
H324 H 0.2898 0.21725 0.00855 0.0
H325 H 0.44197 0.4428 0.9817 0.0
H326 H 0.27771 0.38639 0.96196 0.0
H327 H 0.43303 0.33791 0.06016 0.0
H328 H 0.40345 0.25356 0.96101 0.0
H329 H 0.26204 0.13702 0.99032 0.0
C330 C 0.94992 0.25983 0.12806 0.0
C331 C 0.93607 0.26948 0.11349 0.0
N332 N 0.92409 0.31304 0.11432 0.0
N333 N 0.94793 0.29822 0.13783 0.0
C334 C 0.93095 0.32914 0.12919 0.0
H335 H 0.96386 0.22926 0.13117 0.0
Co336 Co 0.97181 0.31214 0.15815 0.0
C337 C 0.9926 0.43178 0.16302 0.0
O338 O 0.95825 0.41445 0.1751 0.0
N339 N 0.99613 0.32631 0.17862 0.0
C340 C 0.04663 0.36666 0.19991 0.0
C341 C 0.04631 0.37052 0.18414 0.0
C342 C 0.96732 0.29564 0.19117 0.0
N343 N 0.99665 0.31953 0.20434 0.0
O344 O 0.8945 0.29516 0.16374 0.0
H345 H 0.08009 0.40411 0.17715 0.0
H346 H 0.92563 0.25628 0.19065 0.0
O347 O 0.9997 0.39492 0.15534 0.0
C348 C 0.86219 0.23999 0.16461 0.0
O349 O 0.88693 0.208 0.16305 0.0
N350 N 0.044 0.32256 0.15228 0.0
C351 C 0.13112 0.31024 0.13803 0.0
C352 C 0.12309 0.3573 0.13443 0.0
C353 C 0.07903 0.36258 0.14164 0.0
C354 C 0.05365 0.27893 0.15672 0.0
C355 C 0.09725 0.27205 0.14978 0.0
H356 H 0.07004 0.39574 0.13763 0.0
H357 H 0.0246 0.24684 0.1649 0.0
H358 H 0.92762 0.36561 0.13347 0.0
H359 H 0.9374 0.24816 0.10302 0.0
H360 H 0.08044 0.39715 0.2075 0.0
H361 H 0.14739 0.38716 0.12523 0.0
H362 H 0.10228 0.23541 0.15298 0.0
C363 C 0.67724 0.95769 0.29033 0.0
C364 C 0.65115 0.9438 0.27606 0.0
N365 N 0.59464 0.92751 0.27788 0.0
N366 N 0.63741 0.95124 0.30095 0.0
C367 C 0.58741 0.93191 0.29305 0.0
H368 H 0.72275 0.97378 0.29272 0.0
Co369 Co 0.64907 0.97093 0.32162 0.0
C370 C 0.5491 0.98864 0.32857 0.0
O371 O 0.53406 0.95452 0.34067 0.0
N372 N 0.66088 0.9911 0.3424 0.0
C373 C 0.67233 0.03697 0.3646 0.0
C374 C 0.66623 0.03955 0.34896 0.0
C375 C 0.66502 0.96039 0.35419 0.0
N376 N 0.67134 0.98691 0.3679 0.0
O377 O 0.59085 0.8923 0.3266 0.0
H378 H 0.66463 0.07409 0.34279 0.0
H379 H 0.66363 0.91938 0.35274 0.0
O380 O 0.59222 0.99638 0.32041 0.0
C381 C 0.61431 0.86045 0.32619 0.0
O382 O 0.67066 0.8859 0.32375 0.0
N383 N 0.70869 0.04501 0.31634 0.0
C384 C 0.80425 0.13721 0.30231 0.0
C385 C 0.74862 0.13035 0.30062 0.0
C386 C 0.70113 0.08349 0.30763 0.0
C387 C 0.76295 0.0538 0.31919 0.0
C388 C 0.81157 0.09975 0.31223 0.0
H389 H 0.65825 0.07582 0.3049 0.0
H390 H 0.76793 0.02225 0.32589 0.0
H391 H 0.54701 0.92412 0.2982 0.0
H392 H 0.6723 0.94694 0.26517 0.0
H393 H 0.67559 0.06883 0.37289 0.0
H394 H 0.74101 0.15766 0.29282 0.0
H395 H 0.85387 0.10365 0.31377 0.0
C396 C 0.36525 0.14556 0.31078 0.0
C397 C 0.394 0.20379 0.31555 0.0
C398 C 0.39246 0.11195 0.31146 0.0
C399 C 0.44987 0.13692 0.31719 0.0
C400 C 0.48039 0.19668 0.32122 0.0
C401 C 0.45212 0.22959 0.32029 0.0
C402 C 0.35848 0.04877 0.30682 0.0
C403 C 0.54172 0.22498 0.32733 0.0
C404 C 0.48881 0.03254 0.33679 0.0
C405 C 0.52146 0.02436 0.32541 0.0
C406 C 0.4661 0.06969 0.33432 0.0
C407 C 0.47582 0.09915 0.32007 0.0
C408 C 0.50807 0.09044 0.30846 0.0
C409 C 0.53049 0.05324 0.31127 0.0
C410 C 0.43175 0.07754 0.347 0.0
C411 C 0.51875 0.12026 0.29304 0.0
H412 H 0.32039 0.12549 0.30701 0.0
H413 H 0.47435 0.27441 0.32411 0.0
H414 H 0.38427 0.03812 0.29879 0.0
H415 H 0.34928 0.02095 0.31715 0.0
H416 H 0.3165 0.03749 0.30124 0.0
H417 H 0.56138 0.27279 0.32853 0.0
H418 H 0.54168 0.20647 0.33878 0.0
H419 H 0.56952 0.21586 0.31963 0.0
H420 H 0.48189 0.01075 0.34778 0.0
H421 H 0.55511 0.04672 0.30233 0.0
H422 H 0.38691 0.06312 0.34297 0.0
H423 H 0.45194 0.1242 0.35005 0.0
H424 H 0.4292 0.05265 0.35753 0.0
H425 H 0.47669 0.10666 0.28721 0.0
H426 H 0.54601 0.11014 0.28537 0.0
H427 H 0.5406 0.16801 0.29464 0.0
C428 C 0.22155 0.44931 0.49362 0.0
C429 C 0.1898 0.39002 0.48999 0.0
C430 C 0.2828 0.47849 0.49454 0.0
C431 C 0.31277 0.44768 0.49169 0.0
C432 C 0.28089 0.38863 0.48725 0.0
C433 C 0.22003 0.36065 0.48648 0.0
C434 C 0.31524 0.54159 0.49921 0.0
C435 C 0.31082 0.35409 0.48398 0.0
C436 C 0.47642 0.52701 0.48454 0.0
C437 C 0.49809 0.52354 0.499 0.0
C438 C 0.41645 0.50352 0.48203 0.0
C439 C 0.37691 0.47559 0.49427 0.0
C440 C 0.39848 0.47155 0.50887 0.0
C441 C 0.45867 0.49543 0.51104 0.0
C442 C 0.39543 0.50826 0.46625 0.0
C443 C 0.35786 0.44178 0.5222 0.0
H444 H 0.19851 0.4722 0.49642 0.0
H445 H 0.19588 0.31492 0.48352 0.0
H446 H 0.33529 0.54586 0.51068 0.0
H447 H 0.351 0.56721 0.49097 0.0
H448 H 0.28636 0.56065 0.49977 0.0
H449 H 0.28024 0.30983 0.4796 0.0
H450 H 0.346 0.37696 0.4754 0.0
H451 H 0.33127 0.34989 0.49467 0.0
H452 H 0.50636 0.54799 0.4751 0.0
H453 H 0.47489 0.49275 0.52228 0.0
H454 H 0.36803 0.52885 0.46707 0.0
H455 H 0.36796 0.46425 0.46134 0.0
H456 H 0.43191 0.534 0.45819 0.0
H457 H 0.33107 0.46236 0.52443 0.0
H458 H 0.38153 0.44359 0.53292 0.0
H459 H 0.32761 0.39555 0.51933 0.0
C460 C 0.94957 0.48022 0.64923 0.0
C461 C 0.97648 0.50284 0.66346 0.0
C462 C 0.91316 0.42014 0.64707 0.0
C463 C 0.90309 0.3816 0.65945 0.0
C464 C 0.93075 0.40412 0.67378 0.0
C465 C 0.96726 0.46436 0.67559 0.0
C466 C 0.88534 0.39794 0.63155 0.0
C467 C 0.9214 0.36453 0.68726 0.0
C468 C 0.77156 0.22848 0.66071 0.0
C469 C 0.79731 0.19486 0.6573 0.0
C470 C 0.80498 0.28963 0.66088 0.0
C471 C 0.86523 0.31753 0.6574 0.0
C472 C 0.89035 0.28364 0.65301 0.0
C473 C 0.85621 0.22287 0.65309 0.0
C474 C 0.77654 0.32424 0.66558 0.0
C475 C 0.95408 0.31141 0.64897 0.0
H476 H 0.95676 0.50958 0.63975 0.0
H477 H 0.98754 0.48139 0.68664 0.0
H478 H 0.89856 0.36741 0.62688 0.0
H479 H 0.83732 0.37347 0.63273 0.0
H480 H 0.8975 0.43361 0.6231 0.0
H481 H 0.94532 0.38889 0.69769 0.0
H482 H 0.87439 0.33888 0.69005 0.0
H483 H 0.93596 0.33324 0.68424 0.0
H484 H 0.72617 0.20704 0.66406 0.0
H485 H 0.87626 0.19708 0.6503 0.0
H486 H 0.78656 0.35925 0.65711 0.0
H487 H 0.79422 0.34536 0.67684 0.0
H488 H 0.72857 0.29666 0.66661 0.0
H489 H 0.96603 0.34616 0.64029 0.0
H490 H 0.9656 0.27941 0.64441 0.0
H491 H 0.98074 0.33197 0.65937 0.0
C492 C 0.47916 0.99583 0.84994 0.0
C493 C 0.4465 1.00258 0.83828 0.0
C494 C 0.50165 0.95818 0.84807 0.0
C495 C 0.4917 0.92674 0.83416 0.0
C496 C 0.4587 0.93328 0.82236 0.0
C497 C 0.43648 0.97094 0.82457 0.0
C498 C 0.53665 0.9525 0.86096 0.0
C499 C 0.44758 0.90119 0.80729 0.0
C500 C 0.60408 0.88242 0.82515 0.0
C501 C 0.57662 0.8247 0.83033 0.0
C502 C 0.57593 0.91517 0.8257 0.0
C503 C 0.51884 0.88981 0.83169 0.0
C504 C 0.48959 0.83049 0.83616 0.0
C505 C 0.51881 0.79848 0.83538 0.0
C506 C 0.60855 0.9779 0.8206 0.0
C507 C 0.42859 0.80176 0.84252 0.0
H508 H 0.48689 0.01971 0.8606 0.0
H509 H 0.41162 0.97589 0.81542 0.0
H510 H 0.51761 0.90622 0.86431 0.0
H511 H 0.58173 0.96775 0.85698 0.0
H512 H 0.53845 0.97796 0.87128 0.0
H513 H 0.41898 0.90907 0.79952 0.0
H514 H 0.48941 0.91505 0.80131 0.0
H515 H 0.4271 0.8538 0.80941 0.0
H516 H 0.64867 0.90284 0.82114 0.0
H517 H 0.49756 0.75407 0.83952 0.0
H518 H 0.61715 0.00666 0.83068 0.0
H519 H 0.58201 0.98677 0.81236 0.0
H520 H 0.65076 0.98967 0.81507 0.0
H521 H 0.42887 0.82128 0.85382 0.0
H522 H 0.40991 0.75422 0.84409 0.0
H523 H 0.39979 0.80928 0.83478 0.0
C524 C 0.83602 0.52113 -0.00235 0.0
C525 C 0.85866 0.5588 0.98504 0.0
C526 C 0.77568 0.48946 0.00036 0.0
C527 C 0.73711 0.49445 0.98998 0.0
C528 C 0.75987 0.53003 0.97677 0.0
C529 C 0.82038 0.56256 0.97463 0.0
C530 C 0.75345 0.453 0.01475 0.0
C531 C 0.72044 0.53511 0.96512 0.0
C532 C 0.57843 0.37512 0.99162 0.0
C533 C 0.55261 0.40213 -0.00032 0.0
C534 C 0.63794 0.4051 0.98803 0.0
C535 C 0.67311 0.46312 0.99304 0.0
C536 C 0.64711 0.49089 0.00108 0.0
C537 C 0.58685 0.46029 0.00409 0.0
C538 C 0.66321 0.37445 0.97897 0.0
C539 C 0.68324 0.55235 0.00688 0.0
H540 H 0.86565 0.51928 0.00591 0.0
H541 H 0.83797 0.59217 0.96495 0.0
H542 H 0.73131 0.47007 0.02215 0.0
H543 H 0.72087 0.40758 0.01176 0.0
H544 H 0.78887 0.45273 0.02149 0.0
H545 H 0.74462 0.56047 0.95482 0.0
H546 H 0.68619 0.49131 0.96136 0.0
H547 H 0.69824 0.55675 0.97043 0.0
H548 H 0.55182 0.33022 0.98806 0.0
H549 H 0.56698 0.48103 0.01043 0.0
H550 H 0.69542 0.36997 0.98609 0.0
H551 H 0.68651 0.40052 0.96869 0.0
H552 H 0.62935 0.33051 0.97513 0.0
H553 H 0.71746 0.55523 0.01477 0.0
H554 H 0.65667 0.5675 0.01309 0.0
H555 H 0.70555 0.58227 -0.00286 0.0
C556 C 0.14875 0.7709 0.14278 0.0
C557 C 0.20623 0.80148 0.14818 0.0
C558 C 0.1158 0.71004 0.14362 0.0
C559 C 0.14057 0.67861 0.15018 0.0
C560 C 0.19971 0.70897 0.15488 0.0
C561 C 0.23199 0.77011 0.15376 0.0
C562 C 0.05334 0.67972 0.13826 0.0
C563 C 0.22786 0.67718 0.16191 0.0
C564 C 0.0349 0.53674 0.17022 0.0
C565 C 0.02877 0.49483 0.15942 0.0
C566 C 0.07169 0.59639 0.16742 0.0
C567 C 0.10294 0.61501 0.15338 0.0
C568 C 0.09638 0.57297 0.14233 0.0
C569 C 0.05959 0.51349 0.1455 0.0
C570 C 0.07716 0.6396 0.17952 0.0
C571 C 0.128 0.59081 0.12713 0.0
H572 H 0.12865 0.79485 0.13837 0.0
H573 H 0.27619 0.79346 0.15807 0.0
H574 H 0.04437 0.64276 0.13061 0.0
H575 H 0.02396 0.66174 0.14833 0.0
H576 H 0.04246 0.70952 0.132 0.0
H577 H 0.27541 0.70597 0.16355 0.0
H578 H 0.20777 0.65932 0.17327 0.0
H579 H 0.22043 0.63997 0.15456 0.0
H580 H 0.01164 0.52291 0.18104 0.0
H581 H 0.05487 0.48156 0.13701 0.0
H582 H 0.0626 0.66897 0.17476 0.0
H583 H 0.12336 0.66701 0.18294 0.0
H584 H 0.05105 0.61814 0.18996 0.0
H585 H 0.11435 0.61793 0.12062 0.0
H586 H 0.11947 0.55282 0.11992 0.0
H587 H 0.17552 0.61766 0.12909 0.0
C588 C 0.93403 0.44195 0.50841 0.0
C589 C 0.96245 0.44996 0.49422 0.0
C590 C 0.89728 0.46505 0.51114 0.0
C591 C 0.88849 0.49688 0.49941 0.0
C592 C 0.91756 0.50561 0.48513 0.0
C593 C 0.95426 0.48229 0.48274 0.0
C594 C 0.86794 0.45544 0.5266 0.0
C595 C 0.90971 0.53947 0.47232 0.0
C596 C 0.75812 0.52102 0.49878 0.0
C597 C 0.78406 0.57943 0.50321 0.0
C598 C 0.79092 0.49255 0.49812 0.0
C599 C 0.85077 0.52312 0.50212 0.0
C600 C 0.8759 0.58088 0.50756 0.0
C601 C 0.84239 0.6083 0.50796 0.0
C602 C 0.76239 0.43086 0.49231 0.0
C603 C 0.93916 0.61499 0.51217 0.0
H604 H 0.9405 0.41758 0.51742 0.0
H605 H 0.97568 0.4885 0.47172 0.0
H606 H 0.88171 0.49785 0.53221 0.0
H607 H 0.82009 0.43351 0.52508 0.0
H608 H 0.8783 0.42873 0.5344 0.0
H609 H 0.93443 0.54145 0.46181 0.0
H610 H 0.86298 0.51931 0.46929 0.0
H611 H 0.92435 0.58449 0.47619 0.0
H612 H 0.71322 0.49861 0.49498 0.0
H613 H 0.86263 0.65338 0.51151 0.0
H614 H 0.77152 0.40355 0.50019 0.0
H615 H 0.78075 0.43009 0.4809 0.0
H616 H 0.71454 0.41125 0.49112 0.0
H617 H 0.94987 0.58956 0.52031 0.0
H618 H 0.9505 0.65718 0.5176 0.0
H619 H 0.96692 0.62373 0.50184 0.0
C620 C 0.22924 0.85098 0.66704 0.0
C621 C 0.20072 0.79143 0.6636 0.0
C622 C 0.29007 0.88468 0.66698 0.0
C623 C 0.32354 0.85844 0.66325 0.0
C624 C 0.29515 0.79779 0.66036 0.0
C625 C 0.23391 0.76484 0.66065 0.0
C626 C 0.31839 0.94892 0.67035 0.0
C627 C 0.32936 0.76824 0.65634 0.0
C628 C 0.47288 0.95886 0.64604 0.0
C629 C 0.50964 0.96933 0.65868 0.0
C630 C 0.41241 0.92206 0.64732 0.0
C631 C 0.38794 0.89535 0.66162 0.0
C632 C 0.42476 0.90628 0.67446 0.0
C633 C 0.48507 0.94304 0.67284 0.0
C634 C 0.37466 0.91168 0.63335 0.0
C635 C 0.40044 0.87933 0.68995 0.0
H636 H 0.20384 0.87173 0.66948 0.0
H637 H 0.21208 0.71893 0.6579 0.0
H638 H 0.35179 0.96132 0.67946 0.0
H639 H 0.34083 0.97411 0.65989 0.0
H640 H 0.28643 0.96183 0.67409 0.0
H641 H 0.30124 0.72033 0.65544 0.0
H642 H 0.35186 0.78512 0.64518 0.0
H643 H 0.36334 0.77814 0.66513 0.0
H644 H 0.49142 0.97858 0.63503 0.0
H645 H 0.51302 0.9512 0.68271 0.0
H646 H 0.34345 0.92706 0.63561 0.0
H647 H 0.34882 0.86446 0.63088 0.0
H648 H 0.40052 0.93428 0.62296 0.0
H649 H 0.37016 0.89373 0.69412 0.0
H650 H 0.43504 0.89108 0.69871 0.0
H651 H 0.37512 0.83132 0.68891 0.0
C652 C 0.53266 0.52113 0.85022 0.0
C653 C 0.52795 0.54223 0.83577 0.0
C654 C 0.50875 0.46126 0.85292 0.0
C655 C 0.47894 0.4212 0.84093 0.0
C656 C 0.47344 0.44213 0.82639 0.0
C657 C 0.49795 0.50225 0.82399 0.0
C658 C 0.51539 0.4409 0.86861 0.0
C659 C 0.44155 0.40093 0.81332 0.0
C660 C 0.4529 0.26629 0.84091 0.0
C661 C 0.39389 0.23431 0.84492 0.0
C662 C 0.48208 0.32747 0.84023 0.0
C663 C 0.45152 0.35724 0.84365 0.0
C664 C 0.39301 0.32521 0.84862 0.0
C665 C 0.36504 0.26433 0.8492 0.0
C666 C 0.54467 0.36001 0.83505 0.0
C667 C 0.35876 0.35497 0.85247 0.0
H668 H 0.55509 0.55138 0.85948 0.0
H669 H 0.4941 0.51791 0.81279 0.0
H670 H 0.47195 0.41237 0.87375 0.0
H671 H 0.53726 0.41475 0.86756 0.0
H672 H 0.54094 0.47762 0.8766 0.0
H673 H 0.4416 0.42407 0.80267 0.0
H674 H 0.46185 0.37414 0.81074 0.0
H675 H 0.3958 0.37076 0.8167 0.0
H676 H 0.47545 0.24352 0.83749 0.0
H677 H 0.31951 0.24001 0.8524 0.0
H678 H 0.57107 0.39646 0.84301 0.0
H679 H 0.54739 0.37901 0.8235 0.0
H680 H 0.56404 0.33143 0.8344 0.0
H681 H 0.38305 0.39083 0.86076 0.0
H682 H 0.31545 0.32447 0.85744 0.0
H683 H 0.35226 0.3744 0.84189 0.0
C684 C 0.26051 0.44082 0.02964 0.0
C685 C 0.30355 0.44414 0.01967 0.0
C686 C 0.23278 0.4733 0.0269 0.0
C687 C 0.24685 0.50823 0.01351 0.0
C688 C 0.292 0.51345 0.00372 0.0
C689 C 0.32034 0.48192 0.00704 0.0
C690 C 0.18657 0.46811 0.03796 0.0
C691 C 0.30765 0.54899 0.98913 0.0
C692 C 0.13016 0.53561 -0.00366 0.0
C693 C 0.15188 0.59412 -0.0 0.0
C694 C 0.16053 0.50696 0.00072 0.0
C695 C 0.21271 0.53718 0.00937 0.0
C696 C 0.23307 0.5956 0.01367 0.0
C697 C 0.20299 0.62362 0.00869 0.0
C698 C 0.138 0.44508 0.9956 0.0
C699 C 0.28726 0.62889 0.02328 0.0
H700 H 0.24696 0.411 0.0393 0.0
H701 H 0.3525 0.48343 -0.00092 0.0
H702 H 0.19384 0.5118 0.04101 0.0
H703 H 0.14322 0.44391 0.03243 0.0
H704 H 0.18575 0.44501 0.04869 0.0
H705 H 0.34768 0.55374 0.9837 0.0
H706 H 0.27131 0.5275 0.9808 0.0
H707 H 0.31418 0.59289 0.99144 0.0
H708 H 0.09099 0.51314 0.98946 0.0
H709 H 0.21965 0.66897 0.01152 0.0
H710 H 0.13012 0.4167 0.00573 0.0
H711 H 0.17113 0.44265 0.98835 0.0
H712 H 0.09696 0.42773 0.98893 0.0
H713 H 0.28421 0.60401 0.03383 0.0
H714 H 0.29462 0.67235 0.02669 0.0
H715 H 0.32569 0.63482 0.01672 0.0
C716 C 0.76634 0.23619 0.16047 0.0
C717 C 0.79785 0.21026 0.16581 0.0
C718 C 0.70521 0.20361 0.15916 0.0
C719 C 0.67513 0.14398 0.16335 0.0
C720 C 0.70668 0.11878 0.16956 0.0
C721 C 0.76743 0.15211 0.17068 0.0
C722 C 0.67313 0.23222 0.15259 0.0
C723 C 0.67662 0.05568 0.17433 0.0
C724 C 0.51047 0.06103 0.16882 0.0
C725 C 0.49104 0.0317 0.15472 0.0
C726 C 0.57002 0.09836 0.17172 0.0
C727 C 0.61143 0.10659 0.16028 0.0
C728 C 0.59215 0.07668 0.14609 0.0
C729 C 0.53234 0.03964 0.14349 0.0
C730 C 0.5886 0.12881 0.18706 0.0
C731 C 0.6348 0.08377 0.13362 0.0
H732 H 0.78956 0.28096 0.15661 0.0
H733 H 0.79144 0.13185 0.17494 0.0
H734 H 0.65496 0.21313 0.14117 0.0
H735 H 0.63603 0.22403 0.16011 0.0
H736 H 0.7018 0.27988 0.1512 0.0
H737 H 0.70674 0.04394 0.18007 0.0
H738 H 0.64014 0.04575 0.18228 0.0
H739 H 0.65792 0.02766 0.16405 0.0
H740 H 0.47911 0.05489 0.17764 0.0
H741 H 0.51794 0.01749 0.13254 0.0
H742 H 0.61536 0.17644 0.18532 0.0
H743 H 0.61606 0.11472 0.19322 0.0
H744 H 0.55093 0.11973 0.19449 0.0
H745 H 0.6617 0.13028 0.13046 0.0
H746 H 0.61284 0.05858 0.1231 0.0
H747 H 0.66479 0.06918 0.13791 0.0
C748 C 0.44239 0.50989 0.33242 0.0
C749 C 0.44364 0.4882 0.31777 0.0
C750 C 0.46671 0.56984 0.33501 0.0
C751 C 0.49297 0.60928 0.32267 0.0
C752 C 0.49458 0.58767 0.30787 0.0
C753 C 0.47007 0.52752 0.30562 0.0
C754 C 0.4647 0.59096 0.351 0.0
C755 C 0.52252 0.62821 0.29441 0.0
C756 C 0.52061 0.76482 0.32421 0.0
C757 C 0.58043 0.79611 0.32727 0.0
C758 C 0.49091 0.70367 0.32317 0.0
C759 C 0.52178 0.67333 0.32531 0.0
C760 C 0.58153 0.70473 0.32912 0.0
C761 C 0.61 0.76551 0.33003 0.0
C762 C 0.42709 0.67171 0.31916 0.0
C763 C 0.61613 0.67435 0.33163 0.0
H764 H 0.42259 0.47998 0.34193 0.0
H765 H 0.47103 0.51126 0.29426 0.0
H766 H 0.50954 0.61917 0.35534 0.0
H767 H 0.44321 0.61761 0.35071 0.0
H768 H 0.44104 0.5546 0.35924 0.0
H769 H 0.51868 0.6045 0.28356 0.0
H770 H 0.50209 0.65543 0.29271 0.0
H771 H 0.56931 0.65802 0.29682 0.0
H772 H 0.49755 0.78816 0.32201 0.0
H773 H 0.65616 0.78928 0.33255 0.0
H774 H 0.40249 0.63614 0.32753 0.0
H775 H 0.42087 0.6515 0.30764 0.0
H776 H 0.40835 0.70089 0.31904 0.0
H777 H 0.59446 0.63928 0.34029 0.0
H778 H 0.66121 0.70463 0.33555 0.0
H779 H 0.61831 0.65376 0.32074 0.0
C780 C 0.56793 0.51198 0.43892 0.0
C781 C 0.62858 0.53695 0.43831 0.0
C782 C 0.53245 0.47545 0.42719 0.0
C783 C 0.55823 0.46349 0.41452 0.0
C784 C 0.61936 0.48782 0.41391 0.0
C785 C 0.65392 0.52461 0.42581 0.0
C786 C 0.46748 0.45092 0.42819 0.0
C787 C 0.6482 0.47562 0.4006 0.0
C788 C 0.45542 0.33298 0.39047 0.0
C789 C 0.44212 0.35953 0.37845 0.0
C790 C 0.49489 0.36641 0.40204 0.0
C791 C 0.52104 0.42769 0.40161 0.0
C792 C 0.50853 0.45474 0.38935 0.0
C793 C 0.4693 0.42032 0.37791 0.0
C794 C 0.50757 0.33617 0.41491 0.0
C795 C 0.53497 0.51994 0.38857 0.0
H796 H 0.54816 0.52234 0.44838 0.0
H797 H 0.70073 0.54361 0.42539 0.0
H798 H 0.45279 0.46763 0.4185 0.0
H799 H 0.44448 0.4029 0.42717 0.0
H800 H 0.45422 0.46245 0.43916 0.0
H801 H 0.6959 0.49554 0.40224 0.0
H802 H 0.6291 0.42806 0.3991 0.0
H803 H 0.64023 0.49283 0.38981 0.0
H804 H 0.43489 0.28606 0.3908 0.0
H805 H 0.45844 0.44104 0.36879 0.0
H806 H 0.49133 0.34357 0.42595 0.0
H807 H 0.55519 0.35455 0.41613 0.0
H808 H 0.48692 0.2886 0.41297 0.0
H809 H 0.51985 0.53509 0.39851 0.0
H810 H 0.52323 0.53425 0.37781 0.0
H811 H 0.58304 0.54154 0.38932 0.0
C812 C 0.05118 0.40821 0.56576 0.0
C813 C 0.0841 0.4232 0.55223 0.0
C814 C 0.05634 0.45119 0.57602 0.0
C815 C 0.09623 0.51029 0.57274 0.0
C816 C 0.13215 0.52528 0.55956 0.0
C817 C 0.12513 0.48146 0.54935 0.0
C818 C 0.01671 0.43358 0.58987 0.0
C819 C 0.17614 0.58768 0.55591 0.0
C820 C 0.05606 0.61787 0.58887 0.0
C821 C 0.08767 0.63416 0.60262 0.0
C822 C 0.05972 0.57868 0.57879 0.0
C823 C 0.09681 0.55635 0.58248 0.0
C824 C 0.13128 0.57524 0.59594 0.0
C825 C 0.12575 0.61351 0.60596 0.0
C826 C 0.02165 0.5589 0.56463 0.0
C827 C 0.17231 0.55344 0.60004 0.0
H828 H 0.01895 0.36316 0.56783 0.0
H829 H 0.15071 0.49268 0.53889 0.0
H830 H 0.04243 0.45217 0.60051 0.0
H831 H 0.9867 0.45112 0.58875 0.0
H832 H 0.99037 0.38565 0.59119 0.0
H833 H 0.20536 0.59128 0.5463 0.0
H834 H 0.15325 0.61143 0.55265 0.0
H835 H 0.203 0.60957 0.56619 0.0
H836 H 0.02611 0.63337 0.58643 0.0
H837 H 0.15042 0.62665 0.61658 0.0
H838 H 0.9901 0.51166 0.56547 0.0
H839 H 0.04838 0.56568 0.5542 0.0
H840 H 0.99706 0.58228 0.56311 0.0
H841 H 0.14701 0.50663 0.60301 0.0
H842 H 0.20061 0.57725 0.60996 0.0
H843 H 0.20023 0.55781 0.59005 0.0
C844 C 0.59613 0.10555 0.71651 0.0
C845 C 0.64002 0.09358 0.72091 0.0
C846 C 0.56143 0.11259 0.72749 0.0
C847 C 0.57142 0.10873 0.74331 0.0
C848 C 0.61667 0.09846 0.74789 0.0
C849 C 0.65016 0.09066 0.73665 0.0
C850 C 0.51327 0.12305 0.72213 0.0
C851 C 0.62897 0.09457 0.76468 0.0
C852 C 0.51122 0.173 0.77206 0.0
C853 C 0.46167 0.12315 0.77747 0.0
C854 C 0.54755 0.16899 0.76098 0.0
C855 C 0.53347 0.11387 0.75504 0.0
C856 C 0.48299 0.06348 0.76031 0.0
C857 C 0.4479 0.06873 0.77152 0.0
C858 C 0.60144 0.22359 0.75581 0.0
C859 C 0.46601 0.00401 0.75409 0.0
H860 H 0.58854 0.10923 0.70444 0.0
H861 H 0.68337 0.0809 0.74025 0.0
H862 H 0.47074 0.08752 0.72629 0.0
H863 H 0.51927 0.16417 0.72707 0.0
H864 H 0.5115 0.12541 0.7094 0.0
H865 H 0.66778 0.08965 0.76636 0.0
H866 H 0.636 0.13409 0.77086 0.0
H867 H 0.59094 0.05689 0.77006 0.0
H868 H 0.52238 0.215 0.7768 0.0
H869 H 0.40926 0.03022 0.77556 0.0
H870 H 0.60019 0.22894 0.74319 0.0
H871 H 0.64058 0.22015 0.75834 0.0
H872 H 0.60618 0.26309 0.76154 0.0
H873 H 0.46071 0.00337 0.74142 0.0
H874 H 0.42486 0.96933 0.75921 0.0
H875 H 0.50095 0.99375 0.75648 0.0
C876 C 0.551 0.6966 0.912 0.0
C877 C 0.53683 0.67758 0.89673 0.0
C878 C 0.51995 0.66001 0.92432 0.0
C879 C 0.4745 0.60284 0.92127 0.0
C880 C 0.45791 0.58454 0.90593 0.0
C881 C 0.48866 0.62245 0.89387 0.0
C882 C 0.53787 0.68144 0.94058 0.0
C883 C 0.41006 0.52366 0.90218 0.0
C884 C 0.44838 0.48483 0.94985 0.0
C885 C 0.3958 0.47336 0.95655 0.0
C886 C 0.47471 0.52737 0.93845 0.0
C887 C 0.44837 0.56011 0.93396 0.0
C888 C 0.39601 0.5498 0.94102 0.0
C889 C 0.3698 0.50577 0.95212 0.0
C890 C 0.52988 0.53616 0.93095 0.0
C891 C 0.36753 0.58487 0.93679 0.0
H892 H 0.58792 0.73903 0.91439 0.0
H893 H 0.47593 0.60796 0.88215 0.0
H894 H 0.49912 0.67044 0.94775 0.0
H895 H 0.56014 0.65965 0.94578 0.0
H896 H 0.56787 0.72915 0.94103 0.0
H897 H 0.39996 0.51754 0.88969 0.0
H898 H 0.42335 0.49199 0.90587 0.0
H899 H 0.36981 0.51323 0.90855 0.0
H900 H 0.46797 0.45922 0.95326 0.0
H901 H 0.32938 0.49703 0.95748 0.0
H902 H 0.56504 0.58192 0.93228 0.0
H903 H 0.52259 0.52727 0.91843 0.0
H904 H 0.54496 0.50741 0.93591 0.0
H905 H 0.39952 0.632 0.93757 0.0
H906 H 0.32993 0.57496 0.94435 0.0
H907 H 0.35209 0.57567 0.92472 0.0
C908 C 0.8816 0.36816 0.10308 0.0
C909 C 0.91923 0.3457 0.10186 0.0
C910 C 0.88263 0.40743 0.09213 0.0
C911 C 0.92334 0.42554 0.07994 0.0
C912 C 0.96008 0.40138 0.07838 0.0
C913 C 0.95711 0.3612 0.08931 0.0
C914 C 0.84179 0.43113 0.09393 0.0
C915 C 1.00471 0.4203 0.06567 0.0
C916 C 0.91475 0.50245 0.04425 0.0
C917 C 0.95527 0.56033 0.04769 0.0
C918 C 0.90126 0.45824 0.05501 0.0
C919 C 0.93039 0.47236 0.06934 0.0
C920 C 0.9699 0.53117 0.07307 0.0
C921 C 0.98133 0.57464 0.06221 0.0
C922 C 0.85766 0.39631 0.0508 0.0
C923 C 1.00247 0.54784 0.08816 0.0
H924 H 0.85233 0.35587 0.11282 0.0
H925 H 0.98681 0.34447 0.08855 0.0
H926 H 0.86688 0.47776 0.09709 0.0
H927 H 0.81945 0.42804 0.08288 0.0
H928 H 0.80846 0.4077 0.10294 0.0
H929 H 0.02849 0.39577 0.06577 0.0
H930 H 0.9835 0.4143 0.0543 0.0
H931 H 0.03675 0.46726 0.06691 0.0
H932 H 0.89443 0.49186 0.03301 0.0
H933 H 0.01304 0.61949 0.06472 0.0
H934 H 0.82586 0.37507 0.06026 0.0
H935 H 0.88042 0.37129 0.04909 0.0
H936 H 0.83363 0.39366 0.04009 0.0
H937 H 0.97164 0.53002 0.09794 0.0
H938 H 0.02943 0.59568 0.08958 0.0
H939 H 0.03136 0.52886 0.08882 0.0
C940 C 0.49392 0.87536 0.26845 0.0
C941 C 0.55251 0.91682 0.26611 0.0
C942 C 0.45124 0.86858 0.25782 0.0
C943 C 0.4676 0.90509 0.24473 0.0
C944 C 0.52699 0.9461 0.24212 0.0
C945 C 0.56883 0.95106 0.2528 0.0
C946 C 0.38856 0.82352 0.2608 0.0
C947 C 0.54605 0.98645 0.22842 0.0
C948 C 0.36922 0.87158 0.21005 0.0
C949 C 0.34544 0.90745 0.21273 0.0
C950 C 0.40715 0.86832 0.22071 0.0
C951 C 0.42254 0.90282 0.23417 0.0
C952 C 0.39729 0.93787 0.23713 0.0
C953 C 0.35855 0.93932 0.22641 0.0
C954 C 0.43218 0.82946 0.21733 0.0
C955 C 0.41333 0.976 0.25124 0.0
H956 H 0.48157 0.8487 0.27873 0.0
H957 H 0.61406 0.98365 0.25112 0.0
H958 H 0.363 0.84532 0.26315 0.0
H959 H 0.36939 0.79586 0.25048 0.0
H960 H 0.38381 0.79522 0.27075 0.0
H961 H 0.59407 0.01456 0.2278 0.0
H962 H 0.53063 0.96111 0.2176 0.0
H963 H 0.52633 0.01468 0.22905 0.0
H964 H 0.35872 0.84682 0.19947 0.0
H965 H 0.34084 0.96773 0.22834 0.0
H966 H 0.42658 0.8015 0.22741 0.0
H967 H 0.47954 0.8564 0.21513 0.0
H968 H 0.41148 0.80129 0.20716 0.0
H969 H 0.40582 0.94968 0.26179 0.0
H970 H 0.38806 0.99891 0.25214 0.0
H971 H 0.46031 0.00893 0.25089 0.0
C972 C 0.25628 0.16129 0.19722 0.0
C973 C 0.31233 0.17523 0.19245 0.0
C974 C 0.24819 0.18907 0.20991 0.0
C975 C 0.29724 0.23082 0.21817 0.0
C976 C 0.35381 0.24904 0.21254 0.0
C977 C 0.36063 0.22146 0.19963 0.0
C978 C 0.18711 0.16973 0.21528 0.0
C979 C 0.40731 0.29348 0.22102 0.0
C980 C 0.28425 0.315 0.25183 0.0
C981 C 0.28308 0.28099 0.26437 0.0
C982 C 0.287 0.2985 0.23664 0.0
C983 C 0.28983 0.24748 0.23395 0.0
C984 C 0.28738 0.21237 0.2465 0.0
C985 C 0.28325 0.22913 0.26149 0.0
C986 C 0.28819 0.33628 0.22351 0.0
C987 C 0.29038 0.15754 0.24415 0.0
H988 H 0.2185 0.12566 0.19183 0.0
H989 H 0.40406 0.23367 0.19574 0.0
H990 H 0.17645 0.1399 0.22523 0.0
H991 H 0.18314 0.20739 0.21915 0.0
H992 H 0.15459 0.14646 0.20608 0.0
H993 H 0.44744 0.30878 0.21405 0.0
H994 H 0.40311 0.33153 0.2243 0.0
H995 H 0.41222 0.27384 0.23178 0.0
H996 H 0.28443 0.35527 0.25384 0.0
H997 H 0.2806 0.20152 0.27096 0.0
H998 H 0.2563 0.30948 0.21453 0.0
H999 H 0.33182 0.35789 0.21807 0.0
H1000 H 0.27839 0.37032 0.22738 0.0
H1001 H 0.25382 0.12669 0.23678 0.0
H1002 H 0.28855 0.13547 0.25517 0.0
H1003 H 0.33136 0.16796 0.23814 0.0
C1004 C 0.11149 0.25489 0.37298 0.0
C1005 C 0.13548 0.30491 0.36378 0.0
C1006 C 0.08048 0.25115 0.38638 0.0
C1007 C 0.07289 0.29839 0.39057 0.0
C1008 C 0.09319 0.34715 0.38071 0.0
C1009 C 0.12475 0.35005 0.36746 0.0
C1010 C 0.06009 0.19867 0.39666 0.0
C1011 C 0.08493 0.39787 0.38465 0.0
C1012 C 0.97137 0.2757 0.42401 0.0
C1013 C 0.01082 0.29974 0.43627 0.0
C1014 C 0.99082 0.27593 0.40896 0.0
C1015 C 0.05102 0.30005 0.40617 0.0
C1016 C 0.09103 0.32457 0.41845 0.0
C1017 C 0.07051 0.32456 0.43328 0.0
C1018 C 0.94701 0.24995 0.3961 0.0
C1019 C 0.15568 0.35045 0.41597 0.0
H1020 H 0.12034 0.22021 0.37029 0.0
H1021 H 0.14293 0.38856 0.36028 0.0
H1022 H 0.08726 0.21124 0.4072 0.0
H1023 H 0.01446 0.18209 0.40032 0.0
H1024 H 0.06312 0.16294 0.39091 0.0
H1025 H 0.09517 0.42797 0.37476 0.0
H1026 H 0.03957 0.38244 0.38839 0.0
H1027 H 0.11393 0.42253 0.39436 0.0
H1028 H 0.92519 0.25601 0.42616 0.0
H1029 H 0.10162 0.34457 0.44251 0.0
H1030 H 0.94794 0.21189 0.39119 0.0
H1031 H 0.95842 0.28206 0.38668 0.0
H1032 H 0.90204 0.23578 0.40002 0.0
H1033 H 0.16475 0.31712 0.41114 0.0
H1034 H 0.18093 0.36742 0.42678 0.0
H1035 H 0.17154 0.3865 0.40753 0.0
C1036 C 0.69944 0.96747 0.59472 0.0
C1037 C 0.71564 0.00834 0.60667 0.0
C1038 C 0.71721 0.98504 0.57948 0.0
C1039 C 0.75283 0.04481 0.57614 0.0
C1040 C 0.76998 0.08619 0.58812 0.0
C1041 C 0.75079 0.06756 0.60315 0.0
C1042 C 0.69767 0.93978 0.56696 0.0
C1043 C 0.80857 0.15043 0.58506 0.0
C1044 C 0.85205 0.1032 0.54159 0.0
C1045 C 0.82425 0.12677 0.53291 0.0
C1046 C 0.82726 0.07263 0.55523 0.0
C1047 C 0.7731 0.06498 0.5602 0.0
C1048 C 0.74257 0.08436 0.55079 0.0
C1049 C 0.76881 0.11558 0.5373 0.0
C1050 C 0.86158 0.0533 0.56499 0.0
C1051 C 0.68416 0.07593 0.55554 0.0
H1052 H 0.67293 0.92163 0.59724 0.0
H1053 H 0.76282 0.09991 0.61207 0.0
H1054 H 0.67375 0.949 0.55795 0.0
H1055 H 0.73601 0.9415 0.56134 0.0
H1056 H 0.66911 0.89511 0.5714 0.0
H1057 H 0.81939 0.17682 0.59573 0.0
H1058 H 0.84971 0.15863 0.57956 0.0
H1059 H 0.78671 0.16569 0.57697 0.0
H1060 H 0.89529 0.11244 0.53835 0.0
H1061 H 0.74717 0.13354 0.53055 0.0
H1062 H 0.83335 0.0084 0.56926 0.0
H1063 H 0.87909 0.0821 0.57518 0.0
H1064 H 0.8986 0.05503 0.55857 0.0
H1065 H 0.65536 0.03092 0.55968 0.0
H1066 H 0.66219 0.08495 0.54593 0.0
H1067 H 0.69005 0.10578 0.56517 0.0
C1068 C 0.68775 0.78684 0.77717 0.0
C1069 C 0.69026 0.73715 0.78138 0.0
C1070 C 0.68544 0.80028 0.76171 0.0
C1071 C 0.68717 0.76399 0.75006 0.0
C1072 C 0.69154 0.71478 0.75411 0.0
C1073 C 0.69247 0.7016 0.76972 0.0
C1074 C 0.68058 0.8532 0.75787 0.0
C1075 C 0.69467 0.67582 0.74197 0.0
C1076 C 0.62507 0.78211 0.71276 0.0
C1077 C 0.67478 0.82795 0.70594 0.0
C1078 C 0.62882 0.75741 0.72667 0.0
C1079 C 0.68378 0.77813 0.7337 0.0
C1080 C 0.73466 0.81959 0.72599 0.0
C1081 C 0.72956 0.84447 0.71228 0.0
C1082 C 0.57346 0.71323 0.73451 0.0
C1083 C 0.79423 0.84168 0.73291 0.0
H1084 H 0.68757 0.81558 0.78594 0.0
H1085 H 0.69397 0.66287 0.77274 0.0
H1086 H 0.7186 0.88418 0.75092 0.0
H1087 H 0.64106 0.84032 0.75084 0.0
H1088 H 0.6783 0.87607 0.76831 0.0
H1089 H 0.70194 0.64152 0.747 0.0
H1090 H 0.65363 0.6546 0.73528 0.0
H1091 H 0.73036 0.70187 0.73375 0.0
H1092 H 0.58272 0.7679 0.70773 0.0
H1093 H 0.7684 0.87992 0.70722 0.0
H1094 H 0.56455 0.73405 0.7444 0.0
H1095 H 0.57786 0.67668 0.73911 0.0
H1096 H 0.5355 0.69553 0.72662 0.0
H1097 H 0.80081 0.87235 0.74238 0.0
H1098 H 0.82929 0.86481 0.72429 0.0
H1099 H 0.7984 0.80543 0.73786 0.0
C1100 C 0.99835 0.65919 0.9222 0.0
C1101 C 0.02717 0.7008 0.93373 0.0
C1102 C 0.96811 0.66875 0.91043 0.0
C1103 C 0.96677 0.7213 0.91014 0.0
C1104 C 0.99935 0.7653 0.92105 0.0
C1105 C 0.02899 0.75437 0.93278 0.0
C1106 C 0.93382 0.62063 0.89904 0.0
C1107 C 0.99988 0.82236 0.92093 0.0
C1108 C 0.89739 0.74536 0.87474 0.0
C1109 C 0.8398 0.72281 0.87974 0.0
C1110 C 0.94014 0.74741 0.88468 0.0
C1111 C 0.92466 0.72616 0.89989 0.0
C1112 C 0.86704 0.70509 0.90511 0.0
C1113 C 0.82548 0.70394 0.895 0.0
C1114 C 1.00127 0.77055 0.87878 0.0
C1115 C 0.84874 0.68213 0.92127 0.0
H1116 H 0.99613 0.61746 0.92289 0.0
H1117 H 0.05197 0.78693 0.94154 0.0
H1118 H 0.88666 0.60136 0.90142 0.0
H1119 H 0.94167 0.63793 0.88714 0.0
H1120 H 0.94495 0.58555 0.89967 0.0
H1121 H 0.03427 0.85508 0.92854 0.0
H1122 H 0.00672 0.84022 0.90909 0.0
H1123 H 0.95715 0.81528 0.92495 0.0
H1124 H 0.9087 0.76002 0.86296 0.0
H1125 H 0.78146 0.68797 0.89906 0.0
H1126 H 0.01083 0.73449 0.87791 0.0
H1127 H 0.03321 0.80288 0.88692 0.0
H1128 H 0.00776 0.79116 0.86728 0.0
H1129 H 0.85383 0.64354 0.92304 0.0
H1130 H 0.80281 0.66947 0.9237 0.0
H1131 H 0.87702 0.71543 0.92978 0.0
C1132 C 0.31062 0.04338 0.08607 0.0
C1133 C 0.2944 0.99955 0.09721 0.0
C1134 C 0.29561 0.0296 0.07052 0.0
C1135 C 0.26342 0.97062 0.06604 0.0
C1136 C 0.24538 0.92631 0.07729 0.0
C1137 C 0.26136 0.9413 0.09266 0.0
C1138 C 0.31569 0.07804 0.05888 0.0
C1139 C 0.21029 0.86271 0.07304 0.0
C1140 C 0.17469 0.90746 0.03015 0.0
C1141 C 0.20717 0.88583 0.02293 0.0
C1142 C 0.19538 0.94122 0.04353 0.0
C1143 C 0.24989 0.95376 0.04963 0.0
C1144 C 0.28587 0.93838 0.0412 0.0
C1145 C 0.26378 0.90401 0.02798 0.0
C1146 C 0.1558 0.95706 0.05209 0.0
C1147 C 0.34493 0.95232 0.04708 0.0
H1148 H 0.33537 0.08854 0.08947 0.0
H1149 H 0.24924 0.90701 0.10104 0.0
H1150 H 0.35109 0.07929 0.0518 0.0
H1151 H 0.27984 0.07043 0.05094 0.0
H1152 H 0.33232 0.12112 0.06444 0.0
H1153 H 0.19714 0.83384 0.08328 0.0
H1154 H 0.17047 0.85404 0.0667 0.0
H1155 H 0.23617 0.85101 0.06534 0.0
H1156 H 0.13072 0.89312 0.02629 0.0
H1157 H 0.28893 0.88745 0.02231 0.0
H1158 H 0.18069 1.00116 0.05715 0.0
H1159 H 0.13455 0.9259 0.06169 0.0
H1160 H 0.12128 0.95528 0.0445 0.0
H1161 H 0.36899 0.99727 0.05165 0.0
H1162 H 0.37147 0.94746 0.03795 0.0
H1163 H 0.33946 0.92229 0.05664 0.0
C1164 C 0.6603 0.66012 0.56435 0.0
C1165 C 0.70066 0.69144 0.55278 0.0
C1166 C 0.67891 0.65535 0.57911 0.0
C1167 C 0.7392 0.6836 0.58233 0.0
C1168 C 0.77985 0.7185 0.57093 0.0
C1169 C 0.76003 0.72133 0.5562 0.0
C1170 C 0.63435 0.61685 0.59085 0.0
C1171 C 0.84447 0.75037 0.57402 0.0
C1172 C 0.80055 0.69957 0.62259 0.0
C1173 C 0.81934 0.65861 0.62228 0.0
C1174 C 0.77196 0.70678 0.60991 0.0
C1175 C 0.76057 0.67116 0.59681 0.0
C1176 C 0.77513 0.62673 0.59691 0.0
C1177 C 0.80498 0.62154 0.60951 0.0
C1178 C 0.75742 0.75493 0.61016 0.0
C1179 C 0.76259 0.58693 0.58327 0.0
H1180 H 0.61437 0.63661 0.56158 0.0
H1181 H 0.79093 0.7459 0.54721 0.0
H1182 H 0.63646 0.57643 0.59228 0.0
H1183 H 0.64362 0.63855 0.60222 0.0
H1184 H 0.58945 0.60476 0.58734 0.0
H1185 H 0.86952 0.78116 0.56462 0.0
H1186 H 0.85422 0.77485 0.58498 0.0
H1187 H 0.85978 0.71859 0.57519 0.0
H1188 H 0.81006 0.72758 0.6325 0.0
H1189 H 0.81986 0.59037 0.60886 0.0
H1190 H 0.71244 0.73902 0.60603 0.0
H1191 H 0.78714 0.79013 0.60226 0.0
H1192 H 0.76196 0.77364 0.62185 0.0
H1193 H 0.71701 0.56913 0.57937 0.0
H1194 H 0.76978 0.5501 0.58594 0.0
H1195 H 0.79139 0.61186 0.57355 0.0
C1196 C 0.14186 0.82503 0.78516 0.0
C1197 C 0.16672 0.88545 0.78369 0.0
C1198 C 0.11094 0.78776 0.77295 0.0
C1199 C 0.1043 0.81154 0.75904 0.0
C1200 C 0.12739 0.87219 0.75769 0.0
C1201 C 0.15873 0.90838 0.76996 0.0
C1202 C 0.08715 0.72325 0.77472 0.0
C1203 C 0.12097 0.89918 0.74306 0.0
C1204 C 0.08956 0.73889 0.72068 0.0
C1205 C 0.03053 0.71664 0.7174 0.0
C1206 C 0.11348 0.76731 0.73458 0.0
C1207 C 0.07748 0.7741 0.7454 0.0
C1208 C 0.0173 0.74973 0.74242 0.0
C1209 C 0.99441 0.72088 0.72844 0.0
C1210 C 0.17775 0.79209 0.73741 0.0
C1211 C 0.97777 0.75664 0.75364 0.0
H1212 H 0.14708 0.80687 0.7958 0.0
H1213 H 0.17866 0.955 0.76855 0.0
H1214 H 0.04042 0.69896 0.77158 0.0
H1215 H 0.11027 0.70902 0.76676 0.0
H1216 H 0.09216 0.71125 0.78664 0.0
H1217 H 0.13709 0.94642 0.74435 0.0
H1218 H 0.14571 0.89315 0.73365 0.0
H1219 H 0.07469 0.87742 0.73947 0.0
H1220 H 0.11718 0.73449 0.71225 0.0
H1221 H 0.94879 0.70378 0.72585 0.0
H1222 H 0.18501 0.77802 0.74881 0.0
H1223 H 0.19987 0.84024 0.73753 0.0
H1224 H 0.1985 0.77864 0.72845 0.0
H1225 H 0.98346 0.744 0.76539 0.0
H1226 H 0.93125 0.73018 0.75035 0.0
H1227 H 0.98943 0.80296 0.7541 0.0
C1228 C 0.32718 0.05107 0.89577 0.0
C1229 C 0.27312 0.01941 0.88844 0.0
C1230 C 0.33098 0.06691 0.91128 0.0
C1231 C 0.27943 0.04992 0.91978 0.0
C1232 C 0.2248 0.01306 0.91292 0.0
C1233 C 0.22223 0.99861 0.89729 0.0
C1234 C 0.39024 0.10593 0.91819 0.0
C1235 C 0.16882 0.99267 0.92169 0.0
C1236 C 0.30357 0.09303 0.96206 0.0
C1237 C 0.3082 0.14782 0.96128 0.0
C1238 C 0.29083 0.05848 0.94876 0.0
C1239 C 0.28295 0.07978 0.93453 0.0
C1240 C 0.28393 0.13351 0.93403 0.0
C1241 C 0.29639 0.16669 0.94742 0.0
C1242 C 0.289 1.00093 0.94979 0.0
C1243 C 0.27529 0.15781 0.91917 0.0
H1244 H 0.36678 0.06554 0.88924 0.0
H1245 H 0.18009 0.97373 0.89189 0.0
H1246 H 0.39655 0.15017 0.91979 0.0
H1247 H 0.39371 0.0897 0.92967 0.0
H1248 H 0.42587 0.10932 0.91077 0.0
H1249 H 0.13165 0.95494 0.91601 0.0
H1250 H 0.1728 0.98036 0.93364 0.0
H1251 H 0.15891 0.02853 0.92234 0.0
H1252 H 0.31257 0.07851 0.97284 0.0
H1253 H 0.29921 0.20883 0.94694 0.0
H1254 H 0.33008 0.00569 0.94515 0.0
H1255 H 0.25277 0.96745 0.9428 0.0
H1256 H 0.284 0.98536 0.96186 0.0
H1257 H 0.31132 0.16703 0.91111 0.0
H1258 H 0.27407 0.19858 0.92097 0.0
H1259 H 0.23414 0.12561 0.91357 0.0
C1260 C 0.32934 0.25717 0.07705 0.0
C1261 C 0.31227 0.26957 0.06295 0.0
C1262 C 0.30032 0.2552 0.09075 0.0
C1263 C 0.25368 0.26666 0.09028 0.0
C1264 C 0.23399 0.27554 0.07594 0.0
C1265 C 0.2634 0.2767 0.06246 0.0
C1266 C 0.32186 0.24441 0.10577 0.0
C1267 C 0.18436 0.28791 0.07491 0.0
C1268 C 0.14812 0.24029 0.12272 0.0
C1269 C 0.16868 0.29708 0.12812 0.0
C1270 C 0.17772 0.22878 0.11111 0.0
C1271 C 0.22876 0.27522 0.10469 0.0
C1272 C 0.25194 0.33187 0.11085 0.0
C1273 C 0.22165 0.34208 0.12252 0.0
C1274 C 0.15202 0.16769 0.10498 0.0
C1275 C 0.30659 0.38255 0.1044 0.0
H1276 H 0.36695 0.25138 0.07741 0.0
H1277 H 0.25045 0.28723 0.05167 0.0
H1278 H 0.34625 0.28596 0.11213 0.0
H1279 H 0.28491 0.21406 0.11312 0.0
H1280 H 0.35114 0.22629 0.10395 0.0
H1281 H 0.17154 0.2894 0.06283 0.0
H1282 H 0.14585 0.25426 0.0812 0.0
H1283 H 0.1973 0.33037 0.0804 0.0
H1284 H 0.10694 0.20525 0.12686 0.0
H1285 H 0.23823 0.38585 0.12682 0.0
H1286 H 0.13155 0.1648 0.09364 0.0
H1287 H 0.11839 0.13528 0.11282 0.0
H1288 H 0.18637 0.15608 0.10322 0.0
H1289 H 0.34187 0.37178 0.10372 0.0
H1290 H 0.32196 0.42247 0.11144 0.0
H1291 H 0.29815 0.39195 0.09254 0.0
C1292 C 0.01712 0.31669 0.23206 0.0
C1293 C 0.97723 0.29991 0.21985 0.0
C1294 C 0.99839 0.29751 0.24715 0.0
C1295 C 0.93853 0.25995 0.25004 0.0
C1296 C 0.89807 0.24319 0.23782 0.0
C1297 C 0.91782 0.26379 0.22295 0.0
C1298 C 0.04262 0.31682 0.25995 0.0
C1299 C 0.83375 0.20278 0.24039 0.0
C1300 C 0.87834 0.15209 0.28262 0.0
C1301 C 0.85093 0.17549 0.29151 0.0
C1302 C 0.9113 0.18154 0.26967 0.0
C1303 C 0.91739 0.23591 0.26564 0.0
C1304 C 0.89459 0.26227 0.27543 0.0
C1305 C 0.86106 0.23142 0.28821 0.0
C1306 C 0.93444 0.15164 0.25948 0.0
C1307 C 0.90141 0.32084 0.27171 0.0
H1308 H 0.06311 0.34418 0.22983 0.0
H1309 H 0.88633 0.25164 0.21378 0.0
H1310 H 0.02982 0.33576 0.26951 0.0
H1311 H 0.04418 0.27881 0.26466 0.0
H1312 H 0.08694 0.34946 0.25601 0.0
H1313 H 0.80812 0.19358 0.22961 0.0
H1314 H 0.82628 0.16097 0.24525 0.0
H1315 H 0.81693 0.22207 0.24884 0.0
H1316 H 0.8701 0.10857 0.28503 0.0
H1317 H 0.84025 0.24974 0.29516 0.0
H1318 H 0.97964 0.18236 0.25582 0.0
H1319 H 0.90736 0.13567 0.24894 0.0
H1320 H 0.93362 0.11403 0.26532 0.0
H1321 H 0.94642 0.35162 0.26788 0.0
H1322 H 0.89088 0.3398 0.28175 0.0
H1323 H 0.8717 0.31615 0.26215 0.0
C1324 C 0.69746 1.00252 0.39553 0.0
C1325 C 0.67357 0.96484 0.38292 0.0
C1326 C 0.699 0.98126 0.41022 0.0
C1327 C 0.67683 0.92101 0.41229 0.0
C1328 C 0.65288 0.88279 0.39963 0.0
C1329 C 0.65113 0.90507 0.38517 0.0
C1330 C 0.72444 0.02319 0.4235 0.0
C1331 C 0.62915 0.81818 0.40134 0.0
C1332 C 0.72502 0.85935 0.44461 0.0
C1333 C 0.67515 0.83348 0.45388 0.0
C1334 C 0.72754 0.89099 0.43145 0.0
C1335 C 0.67919 0.89728 0.42757 0.0
C1336 C 0.63039 0.87476 0.43749 0.0
C1337 C 0.62875 0.84265 0.45049 0.0
C1338 C 0.78012 0.9138 0.42109 0.0
C1339 C 0.57846 0.88155 0.43389 0.0
H1340 H 0.7155 0.04878 0.39394 0.0
H1341 H 0.63144 0.87527 0.37566 0.0
H1342 H 0.69205 0.01006 0.43291 0.0
H1343 H 0.7627 0.02206 0.42821 0.0
H1344 H 0.73817 0.06855 0.42008 0.0
H1345 H 0.6129 0.79453 0.39029 0.0
H1346 H 0.6635 0.80994 0.40583 0.0
H1347 H 0.59297 0.79988 0.40978 0.0
H1348 H 0.76069 0.85172 0.44709 0.0
H1349 H 0.59034 0.82297 0.45772 0.0
H1350 H 0.79558 0.95961 0.41785 0.0
H1351 H 0.76806 0.888 0.41031 0.0
H1352 H 0.81653 0.91119 0.42659 0.0
H1353 H 0.59262 0.92719 0.43075 0.0
H1354 H 0.5478 0.86864 0.44374 0.0
H1355 H 0.55481 0.85399 0.42387 0.0
loop_
_geom_bond_atom_site_label_1
_geom_bond_atom_site_label_2
_geom_bond_distance
_geom_bond_site_symmetry_2
_ccdc_geom_bond_type
C0 C1 1.351 . S
C0 N3 1.368 . S
C0 H5 0.931 . S
C1 C0 1.351 . S
C1 N2 1.373 . S
C1 H29 0.930 . S
N2 C1 1.373 . S
N2 C4 1.340 . S
N3 C0 1.368 . S
N3 C4 1.321 . S
N3 Co6 2.135 . S
C4 N2 1.340 . S
C4 N3 1.321 . S
C4 H28 0.930 . S
H5 C0 0.931 . S
Co6 N3 2.135 . S
Co6 N9 2.121 . S
Co6 O14 2.055 . S
Co6 O17 2.039 . S
Co6 N20 2.140 . S
C7 O8 1.227 . S
C7 O17 1.265 . S
O8 C7 1.227 . S
N9 Co6 2.121 . S
N9 C11 1.375 . S
N9 C12 1.313 . S
C10 C11 1.338 . S
C10 N13 1.377 . S
C10 H30 0.930 . S
C11 N9 1.375 . S
C11 C10 1.338 . S
C11 H15 0.931 . S
C12 N9 1.313 . S
C12 N13 1.344 . S
C12 H16 0.930 . S
N13 C10 1.377 . S
N13 C12 1.344 . S
O14 Co6 2.055 . S
O14 C18 1.253 . S
H15 C11 0.931 . S
H16 C12 0.930 . S
O17 Co6 2.039 . S
O17 C7 1.265 . S
C18 O14 1.253 . S
C18 O19 1.227 . S
O19 C18 1.227 . S
N20 Co6 2.140 . S
N20 C23 1.346 . S
N20 C24 1.345 . S
C21 C22 1.387 . S
C21 C25 1.391 . S
C22 C21 1.387 . S
C22 C23 1.369 . S
C22 H31 0.929 . S
C23 N20 1.346 . S
C23 C22 1.369 . S
C23 H26 0.928 . S
C24 N20 1.345 . S
C24 C25 1.371 . S
C24 H27 0.931 . S
C25 C21 1.391 . S
C25 C24 1.371 . S
C25 H32 0.930 . S
H26 C23 0.928 . S
H27 C24 0.931 . S
H28 C4 0.930 . S
H29 C1 0.930 . S
H30 C10 0.930 . S
H31 C22 0.929 . S
H32 C25 0.930 . S
C33 C34 1.351 . S
C33 N36 1.368 . S
C33 H38 0.931 . S
C34 C33 1.351 . S
C34 N35 1.373 . S
C34 H62 0.930 . S
N35 C34 1.373 . S
N35 C37 1.340 . S
N36 C33 1.368 . S
N36 C37 1.321 . S
N36 Co39 2.135 . S
C37 N35 1.340 . S
C37 N36 1.321 . S
C37 H61 0.930 1_455 S
H38 C33 0.931 . S
Co39 N36 2.135 . S
Co39 N42 2.121 . S
Co39 O47 2.055 . S
Co39 O50 2.039 1_455 S
Co39 N53 2.140 1_455 S
C40 O41 1.227 . S
C40 O50 1.265 . S
O41 C40 1.227 . S
N42 Co39 2.121 . S
N42 C44 1.375 1_455 S
N42 C45 1.313 . S
C43 C44 1.338 . S
C43 N46 1.377 1_655 S
C43 H63 0.930 . S
C44 N42 1.375 1_655 S
C44 C43 1.338 . S
C44 H48 0.931 . S
C45 N42 1.313 . S
C45 N46 1.344 . S
C45 H49 0.930 . S
N46 C43 1.377 1_455 S
N46 C45 1.344 . S
O47 Co39 2.055 . S
O47 C51 1.253 . S
H48 C44 0.931 . S
H49 C45 0.930 . S
O50 Co39 2.039 1_655 S
O50 C40 1.265 . S
C51 O47 1.253 . S
C51 O52 1.227 . S
O52 C51 1.227 . S
N53 Co39 2.140 1_655 S
N53 C56 1.346 . S
N53 C57 1.345 . S
C54 C55 1.387 . S
C54 C58 1.391 . S
C55 C54 1.387 . S
C55 C56 1.369 . S
C55 H64 0.929 . S
C56 N53 1.346 . S
C56 C55 1.369 . S
C56 H59 0.928 . S
C57 N53 1.345 . S
C57 C58 1.371 . S
C57 H60 0.931 1_655 S
C58 C54 1.391 . S
C58 C57 1.371 . S
C58 H65 0.930 . S
H59 C56 0.928 . S
H60 C57 0.931 1_455 S
H61 C37 0.930 1_655 S
H62 C34 0.930 . S
H63 C43 0.930 . S
H64 C55 0.929 . S
H65 C58 0.930 . S
C66 C67 1.351 . S
C66 N69 1.368 . S
C66 H71 0.931 . S
C67 C66 1.351 . S
C67 N68 1.373 . S
C67 H95 0.930 . S
N68 C67 1.373 . S
N68 C70 1.340 . S
N69 C66 1.368 . S
N69 C70 1.321 . S
N69 Co72 2.135 . S
C70 N68 1.340 . S
C70 N69 1.321 . S
C70 H94 0.930 1_545 S
H71 C66 0.931 . S
Co72 N69 2.135 . S
Co72 N75 2.121 . S
Co72 O80 2.055 . S
Co72 O83 2.039 1_545 S
Co72 N86 2.140 1_545 S
C73 O74 1.227 . S
C73 O83 1.265 . S
O74 C73 1.227 . S
N75 Co72 2.121 . S
N75 C77 1.375 1_545 S
N75 C78 1.313 . S
C76 C77 1.338 . S
C76 N79 1.377 1_565 S
C76 H96 0.930 . S
C77 N75 1.375 1_565 S
C77 C76 1.338 . S
C77 H81 0.931 . S
C78 N75 1.313 . S
C78 N79 1.344 . S
C78 H82 0.930 . S
N79 C76 1.377 1_545 S
N79 C78 1.344 . S
O80 Co72 2.055 . S
O80 C84 1.253 . S
H81 C77 0.931 . S
H82 C78 0.930 . S
O83 Co72 2.039 1_565 S
O83 C73 1.265 . S
C84 O80 1.253 . S
C84 O85 1.227 . S
O85 C84 1.227 . S
N86 Co72 2.140 1_565 S
N86 C89 1.346 . S
N86 C90 1.345 . S
C87 C88 1.387 . S
C87 C91 1.391 . S
C88 C87 1.387 . S
C88 C89 1.369 . S
C88 H97 0.929 . S
C89 N86 1.346 . S
C89 C88 1.369 . S
C89 H92 0.928 . S
C90 N86 1.345 . S
C90 C91 1.371 . S
C90 H93 0.931 1_565 S
C91 C87 1.391 . S
C91 C90 1.371 . S
C91 H98 0.930 . S
H92 C89 0.928 . S
H93 C90 0.931 1_545 S
H94 C70 0.930 1_565 S
H95 C67 0.930 . S
H96 C76 0.930 . S
H97 C88 0.929 . S
H98 C91 0.930 . S
C99 C100 1.351 . S
C99 N102 1.368 . S
C99 H104 0.931 . S
C100 C99 1.351 . S
C100 N101 1.373 . S
C100 H128 0.930 . S
N101 C100 1.373 . S
N101 C103 1.340 . S
N102 C99 1.368 . S
N102 C103 1.321 . S
N102 Co105 2.135 . S
C103 N101 1.340 . S
C103 N102 1.321 . S
C103 H127 0.930 . S
H104 C99 0.931 . S
Co105 N102 2.135 . S
Co105 N108 2.121 . S
Co105 O113 2.055 . S
Co105 O116 2.039 . S
Co105 N119 2.140 . S
C106 O107 1.227 . S
C106 O116 1.265 . S
O107 C106 1.227 . S
N108 Co105 2.121 . S
N108 C110 1.375 . S
N108 C111 1.313 . S
C109 C110 1.338 . S
C109 N112 1.377 . S
C109 H129 0.930 . S
C110 N108 1.375 . S
C110 C109 1.338 . S
C110 H114 0.931 . S
C111 N108 1.313 . S
C111 N112 1.344 . S
C111 H115 0.930 . S
N112 C109 1.377 . S
N112 C111 1.344 . S
O113 Co105 2.055 . S
O113 C117 1.253 . S
H114 C110 0.931 . S
H115 C111 0.930 . S
O116 Co105 2.039 . S
O116 C106 1.265 . S
C117 O113 1.253 . S
C117 O118 1.227 . S
O118 C117 1.227 . S
N119 Co105 2.140 . S
N119 C122 1.346 . S
N119 C123 1.345 . S
C120 C121 1.387 . S
C120 C124 1.391 . S
C121 C120 1.387 . S
C121 C122 1.369 . S
C121 H130 0.929 . S
C122 N119 1.346 . S
C122 C121 1.369 . S
C122 H125 0.928 . S
C123 N119 1.345 . S
C123 C124 1.371 . S
C123 H126 0.931 . S
C124 C120 1.391 . S
C124 C123 1.371 . S
C124 H131 0.930 . S
H125 C122 0.928 . S
H126 C123 0.931 . S
H127 C103 0.930 . S
H128 C100 0.930 . S
H129 C109 0.930 . S
H130 C121 0.929 . S
H131 C124 0.930 . S
C132 C133 1.351 . S
C132 N135 1.368 . S
C132 H137 0.931 . S
C133 C132 1.351 . S
C133 N134 1.373 . S
C133 H161 0.930 . S
N134 C133 1.373 . S
N134 C136 1.340 . S
N135 C132 1.368 . S
N135 C136 1.321 . S
N135 Co138 2.135 . S
C136 N134 1.340 . S
C136 N135 1.321 . S
C136 H160 0.930 1_655 S
H137 C132 0.931 . S
Co138 N135 2.135 . S
Co138 N141 2.121 1_554 S
Co138 O146 2.055 . S
Co138 O149 2.023 1_654 S
Co138 N152 2.140 1_655 S
C139 O140 1.227 . S
C139 O149 1.259 1_554 S
O140 C139 1.227 . S
N141 Co138 2.121 1_556 S
N141 C143 1.375 1_655 S
N141 C144 1.313 . S
C142 C143 1.338 . S
C142 N145 1.377 1_455 S
C142 H162 0.930 . S
C143 N141 1.375 1_455 S
C143 C142 1.338 . S
C143 H147 0.931 . S
C144 N141 1.313 . S
C144 N145 1.344 . S
C144 H148 0.930 . S
N145 C142 1.377 1_655 S
N145 C144 1.344 . S
O146 Co138 2.055 . S
O146 C150 1.253 . S
H147 C143 0.931 . S
H148 C144 0.930 . S
O149 Co138 2.023 1_456 S
O149 C139 1.259 1_556 S
C150 O146 1.253 . S
C150 O151 1.227 . S
O151 C150 1.227 . S
N152 Co138 2.140 1_455 S
N152 C155 1.346 . S
N152 C156 1.345 . S
C153 C154 1.387 . S
C153 C157 1.391 . S
C154 C153 1.387 . S
C154 C155 1.369 . S
C154 H163 0.929 . S
C155 N152 1.346 . S
C155 C154 1.369 . S
C155 H158 0.928 . S
C156 N152 1.345 . S
C156 C157 1.371 . S
C156 H159 0.931 1_455 S
C157 C153 1.391 . S
C157 C156 1.371 . S
C157 H164 0.930 . S
H158 C155 0.928 . S
H159 C156 0.931 1_655 S
H160 C136 0.930 1_455 S
H161 C133 0.930 . S
H162 C142 0.930 . S
H163 C154 0.929 . S
H164 C157 0.930 . S
C165 C166 1.351 . S
C165 N168 1.368 . S
C165 H170 0.931 . S
C166 C165 1.351 . S
C166 N167 1.373 . S
C166 H194 0.930 . S
N167 C166 1.373 . S
N167 C169 1.340 . S
N168 C165 1.368 . S
N168 C169 1.321 . S
N168 Co171 2.135 . S
C169 N167 1.340 . S
C169 N168 1.321 . S
C169 H193 0.930 1_565 S
H170 C165 0.931 . S
Co171 N168 2.135 . S
Co171 N174 2.121 . S
Co171 O179 2.055 . S
Co171 O182 2.039 1_565 S
Co171 N185 2.140 1_565 S
C172 O173 1.227 . S
C172 O182 1.265 . S
O173 C172 1.227 . S
N174 Co171 2.121 . S
N174 C176 1.375 1_565 S
N174 C177 1.313 . S
C175 C176 1.338 . S
C175 N178 1.377 1_545 S
C175 H195 0.930 . S
C176 N174 1.375 1_545 S
C176 C175 1.338 . S
C176 H180 0.931 . S
C177 N174 1.313 . S
C177 N178 1.344 . S
C177 H181 0.930 . S
N178 C175 1.377 1_565 S
N178 C177 1.344 . S
O179 Co171 2.055 . S
O179 C183 1.253 . S
H180 C176 0.931 . S
H181 C177 0.930 . S
O182 Co171 2.039 1_545 S
O182 C172 1.265 . S
C183 O179 1.253 . S
C183 O184 1.227 . S
O184 C183 1.227 . S
N185 Co171 2.140 1_545 S
N185 C188 1.346 . S
N185 C189 1.345 . S
C186 C187 1.387 . S
C186 C190 1.391 . S
C187 C186 1.387 . S
C187 C188 1.369 . S
C187 H196 0.929 . S
C188 N185 1.346 . S
C188 C187 1.369 . S
C188 H191 0.928 . S
C189 N185 1.345 . S
C189 C190 1.371 . S
C189 H192 0.931 1_545 S
C190 C186 1.391 . S
C190 C189 1.371 . S
C190 H197 0.930 . S
H191 C188 0.928 . S
H192 C189 0.931 1_565 S
H193 C169 0.930 1_545 S
H194 C166 0.930 . S
H195 C175 0.930 . S
H196 C187 0.929 . S
H197 C190 0.930 . S
C198 C199 1.351 . S
C198 N201 1.368 . S
C198 H203 0.931 . S
C199 C198 1.351 . S
C199 N200 1.373 . S
C199 H227 0.930 . S
N200 C199 1.373 . S
N200 C202 1.340 . S
N201 C198 1.368 . S
N201 C202 1.321 . S
N201 Co204 2.135 . S
C202 N200 1.340 . S
C202 N201 1.321 . S
C202 H226 0.930 . S
H203 C198 0.931 . S
Co204 N201 2.135 . S
Co204 N207 2.121 . S
Co204 O212 2.055 . S
Co204 O215 2.039 . S
Co204 N218 2.140 . S
C205 O206 1.227 . S
C205 O215 1.265 . S
O206 C205 1.227 . S
N207 Co204 2.121 . S
N207 C209 1.375 . S
N207 C210 1.313 . S
C208 C209 1.338 . S
C208 N211 1.377 . S
C208 H228 0.930 . S
C209 N207 1.375 . S
C209 C208 1.338 . S
C209 H213 0.931 . S
C210 N207 1.313 . S
C210 N211 1.344 . S
C210 H214 0.930 . S
N211 C208 1.377 . S
N211 C210 1.344 . S
O212 Co204 2.055 . S
O212 C216 1.253 . S
H213 C209 0.931 . S
H214 C210 0.930 . S
O215 Co204 2.039 . S
O215 C205 1.265 . S
C216 O212 1.253 . S
C216 O217 1.227 . S
O217 C216 1.227 . S
N218 Co204 2.140 . S
N218 C221 1.346 . S
N218 C222 1.345 . S
C219 C220 1.387 . S
C219 C223 1.391 . S
C220 C219 1.387 . S
C220 C221 1.369 . S
C220 H229 0.929 . S
C221 N218 1.346 . S
C221 C220 1.369 . S
C221 H224 0.928 . S
C222 N218 1.345 . S
C222 C223 1.371 . S
C222 H225 0.931 . S
C223 C219 1.391 . S
C223 C222 1.371 . S
C223 H230 0.930 . S
H224 C221 0.928 . S
H225 C222 0.931 . S
H226 C202 0.930 . S
H227 C199 0.930 . S
H228 C208 0.930 . S
H229 C220 0.929 . S
H230 C223 0.930 . S
C231 C232 1.351 . S
C231 N234 1.368 . S
C231 H236 0.931 . S
C232 C231 1.351 . S
C232 N233 1.373 . S
C232 H260 0.930 . S
N233 C232 1.373 . S
N233 C235 1.340 . S
N234 C231 1.368 . S
N234 C235 1.321 . S
N234 Co237 2.135 . S
C235 N233 1.340 . S
C235 N234 1.321 . S
C235 H259 0.930 1_455 S
H236 C231 0.931 . S
Co237 N234 2.135 . S
Co237 N240 2.121 . S
Co237 O245 2.055 . S
Co237 O248 2.039 1_455 S
Co237 N251 2.140 1_455 S
C238 O239 1.227 . S
C238 O248 1.265 . S
O239 C238 1.227 . S
N240 Co237 2.121 . S
N240 C242 1.375 1_455 S
N240 C243 1.313 . S
C241 C242 1.338 . S
C241 N244 1.377 1_655 S
C241 H261 0.930 . S
C242 N240 1.375 1_655 S
C242 C241 1.338 . S
C242 H246 0.931 . S
C243 N240 1.313 . S
C243 N244 1.344 . S
C243 H247 0.930 . S
N244 C241 1.377 1_455 S
N244 C243 1.344 . S
O245 Co237 2.055 . S
O245 C249 1.253 . S
H246 C242 0.931 . S
H247 C243 0.930 . S
O248 Co237 2.039 1_655 S
O248 C238 1.265 . S
C249 O245 1.253 . S
C249 O250 1.227 . S
O250 C249 1.227 . S
N251 Co237 2.140 1_655 S
N251 C254 1.346 . S
N251 C255 1.345 . S
C252 C253 1.387 . S
C252 C256 1.391 . S
C253 C252 1.387 . S
C253 C254 1.369 . S
C253 H262 0.929 . S
C254 N251 1.346 . S
C254 C253 1.369 . S
C254 H257 0.928 . S
C255 N251 1.345 . S
C255 C256 1.371 . S
C255 H258 0.931 1_655 S
C256 C252 1.391 . S
C256 C255 1.371 . S
C256 H263 0.930 . S
H257 C254 0.928 . S
H258 C255 0.931 1_455 S
H259 C235 0.930 1_655 S
H260 C232 0.930 . S
H261 C241 0.930 . S
H262 C253 0.929 . S
H263 C256 0.930 . S
C264 C265 1.351 . S
C264 N267 1.368 . S
C264 H269 0.931 . S
C265 C264 1.351 . S
C265 N266 1.373 . S
C265 H293 0.930 . S
N266 C265 1.373 . S
N266 C268 1.340 . S
N267 C264 1.368 . S
N267 C268 1.321 . S
N267 Co270 2.135 . S
C268 N266 1.340 . S
C268 N267 1.321 . S
C268 H292 0.930 1_545 S
H269 C264 0.931 . S
Co270 N267 2.135 . S
Co270 N273 2.121 . S
Co270 O278 2.055 . S
Co270 O281 2.039 1_545 S
Co270 N284 2.140 1_545 S
C271 O272 1.227 . S
C271 O281 1.265 . S
O272 C271 1.227 . S
N273 Co270 2.121 . S
N273 C275 1.375 1_545 S
N273 C276 1.313 . S
C274 C275 1.338 . S
C274 N277 1.377 1_565 S
C274 H294 0.930 . S
C275 N273 1.375 1_565 S
C275 C274 1.338 . S
C275 H279 0.931 . S
C276 N273 1.313 . S
C276 N277 1.344 . S
C276 H280 0.930 . S
N277 C274 1.377 1_545 S
N277 C276 1.344 . S
O278 Co270 2.055 . S
O278 C282 1.253 . S
H279 C275 0.931 . S
H280 C276 0.930 . S
O281 Co270 2.039 1_565 S
O281 C271 1.265 . S
C282 O278 1.253 . S
C282 O283 1.227 . S
O283 C282 1.227 . S
N284 Co270 2.140 1_565 S
N284 C287 1.346 . S
N284 C288 1.345 . S
C285 C286 1.387 . S
C285 C289 1.391 . S
C286 C285 1.387 . S
C286 C287 1.369 . S
C286 H295 0.929 . S
C287 N284 1.346 . S
C287 C286 1.369 . S
C287 H290 0.928 . S
C288 N284 1.345 . S
C288 C289 1.371 . S
C288 H291 0.931 1_565 S
C289 C285 1.391 . S
C289 C288 1.371 . S
C289 H296 0.930 . S
H290 C287 0.928 . S
H291 C288 0.931 1_545 S
H292 C268 0.930 1_565 S
H293 C265 0.930 . S
H294 C274 0.930 . S
H295 C286 0.929 . S
H296 C289 0.930 . S
C297 C298 1.351 . S
C297 N300 1.368 . S
C297 H302 0.931 . S
C298 C297 1.351 . S
C298 N299 1.373 . S
C298 H326 0.930 . S
N299 C298 1.373 . S
N299 C301 1.340 . S
N300 C297 1.368 . S
N300 C301 1.321 . S
N300 Co303 2.135 . S
C301 N299 1.340 . S
C301 N300 1.321 . S
C301 H325 0.930 . S
H302 C297 0.931 . S
Co303 N300 2.135 . S
Co303 N306 2.121 1_556 S
Co303 O311 2.055 . S
Co303 O314 2.072 . S
Co303 N317 2.140 . S
C304 O305 1.227 . S
C304 O314 1.281 . S
O305 C304 1.227 . S
N306 Co303 2.121 1_554 S
N306 C308 1.375 . S
N306 C309 1.313 . S
C307 C308 1.338 . S
C307 N310 1.377 . S
C307 H327 0.930 . S
C308 N306 1.375 . S
C308 C307 1.338 . S
C308 H312 0.931 . S
C309 N306 1.313 . S
C309 N310 1.344 . S
C309 H313 0.930 . S
N310 C307 1.377 . S
N310 C309 1.344 . S
O311 Co303 2.055 . S
O311 C315 1.253 . S
H312 C308 0.931 . S
H313 C309 0.930 . S
O314 Co303 2.072 . S
O314 C304 1.281 . S
C315 O311 1.253 . S
C315 O316 1.227 . S
O316 C315 1.227 . S
N317 Co303 2.140 . S
N317 C320 1.346 . S
N317 C321 1.345 . S
C318 C319 1.387 . S
C318 C322 1.391 . S
C319 C318 1.387 . S
C319 C320 1.369 . S
C319 H328 0.929 . S
C320 N317 1.346 . S
C320 C319 1.369 . S
C320 H323 0.928 . S
C321 N317 1.345 . S
C321 C322 1.371 . S
C321 H324 0.931 . S
C322 C318 1.391 . S
C322 C321 1.371 . S
C322 H329 0.930 . S
H323 C320 0.928 . S
H324 C321 0.931 . S
H325 C301 0.930 . S
H326 C298 0.930 . S
H327 C307 0.930 . S
H328 C319 0.929 . S
H329 C322 0.930 . S
C330 C331 1.351 . S
C330 N333 1.368 . S
C330 H335 0.931 . S
C331 C330 1.351 . S
C331 N332 1.373 . S
C331 H359 0.930 . S
N332 C331 1.373 . S
N332 C334 1.340 . S
N333 C330 1.368 . S
N333 C334 1.321 . S
N333 Co336 2.135 . S
C334 N332 1.340 . S
C334 N333 1.321 . S
C334 H358 0.930 1_655 S
H335 C330 0.931 . S
Co336 N333 2.135 . S
Co336 N339 2.121 . S
Co336 O344 2.055 . S
Co336 O347 2.039 1_655 S
Co336 N350 2.140 1_655 S
C337 O338 1.227 . S
C337 O347 1.265 . S
O338 C337 1.227 . S
N339 Co336 2.121 . S
N339 C341 1.375 1_655 S
N339 C342 1.313 . S
C340 C341 1.338 . S
C340 N343 1.377 1_455 S
C340 H360 0.930 . S
C341 N339 1.375 1_455 S
C341 C340 1.338 . S
C341 H345 0.931 . S
C342 N339 1.313 . S
C342 N343 1.344 . S
C342 H346 0.930 . S
N343 C340 1.377 1_655 S
N343 C342 1.344 . S
O344 Co336 2.055 . S
O344 C348 1.253 . S
H345 C341 0.931 . S
H346 C342 0.930 . S
O347 Co336 2.039 1_455 S
O347 C337 1.265 . S
C348 O344 1.253 . S
C348 O349 1.227 . S
O349 C348 1.227 . S
N350 Co336 2.140 1_455 S
N350 C353 1.346 . S
N350 C354 1.345 . S
C351 C352 1.387 . S
C351 C355 1.391 . S
C352 C351 1.387 . S
C352 C353 1.369 . S
C352 H361 0.929 . S
C353 N350 1.346 . S
C353 C352 1.369 . S
C353 H356 0.928 . S
C354 N350 1.345 . S
C354 C355 1.371 . S
C354 H357 0.931 1_455 S
C355 C351 1.391 . S
C355 C354 1.371 . S
C355 H362 0.930 . S
H356 C353 0.928 . S
H357 C354 0.931 1_655 S
H358 C334 0.930 1_455 S
H359 C331 0.930 . S
H360 C340 0.930 . S
H361 C352 0.929 . S
H362 C355 0.930 . S
C363 C364 1.351 . S
C363 N366 1.368 . S
C363 H368 0.931 . S
C364 C363 1.351 . S
C364 N365 1.373 . S
C364 H392 0.930 . S
N365 C364 1.373 . S
N365 C367 1.340 . S
N366 C363 1.368 . S
N366 C367 1.321 . S
N366 Co369 2.135 . S
C367 N365 1.340 . S
C367 N366 1.321 . S
C367 H391 0.930 1_565 S
H368 C363 0.931 . S
Co369 N366 2.135 . S
Co369 N372 2.121 . S
Co369 O377 2.055 . S
Co369 O380 2.039 1_565 S
Co369 N383 2.140 1_565 S
C370 O371 1.227 . S
C370 O380 1.265 . S
O371 C370 1.227 . S
N372 Co369 2.121 . S
N372 C374 1.375 1_565 S
N372 C375 1.313 . S
C373 C374 1.338 . S
C373 N376 1.377 1_545 S
C373 H393 0.930 . S
C374 N372 1.375 1_545 S
C374 C373 1.338 . S
C374 H378 0.931 . S
C375 N372 1.313 . S
C375 N376 1.344 . S
C375 H379 0.930 . S
N376 C373 1.377 1_565 S
N376 C375 1.344 . S
O377 Co369 2.055 . S
O377 C381 1.253 . S
H378 C374 0.931 . S
H379 C375 0.930 . S
O380 Co369 2.039 1_545 S
O380 C370 1.265 . S
C381 O377 1.253 . S
C381 O382 1.227 . S
O382 C381 1.227 . S
N383 Co369 2.140 1_545 S
N383 C386 1.346 . S
N383 C387 1.345 . S
C384 C385 1.387 . S
C384 C388 1.391 . S
C385 C384 1.387 . S
C385 C386 1.369 . S
C385 H394 0.929 . S
C386 N383 1.346 . S
C386 C385 1.369 . S
C386 H389 0.928 . S
C387 N383 1.345 . S
C387 C388 1.371 . S
C387 H390 0.931 1_545 S
C388 C384 1.391 . S
C388 C387 1.371 . S
C388 H395 0.930 . S
H389 C386 0.928 . S
H390 C387 0.931 1_565 S
H391 C367 0.930 1_545 S
H392 C364 0.930 . S
H393 C373 0.930 . S
H394 C385 0.929 . S
H395 C388 0.930 . S
C396 C397 1.391 . S
C396 C398 1.394 . S
C396 H412 0.931 . S
C397 C396 1.391 . S
C397 C401 1.376 . S
C398 C396 1.394 . S
C398 C399 1.369 . S
C398 C402 1.531 . S
C399 C398 1.369 . S
C399 C400 1.410 . S
C399 C407 1.503 . S
C400 C399 1.410 . S
C400 C401 1.392 . S
C400 C403 1.511 . S
C401 C397 1.376 . S
C401 C400 1.392 . S
C401 H413 0.929 . S
C402 C398 1.531 . S
C402 H414 0.960 . S
C402 H415 0.962 . S
C402 H416 0.960 . S
C403 C400 1.511 . S
C403 H417 0.961 . S
C403 H418 0.961 . S
C403 H419 0.961 . S
C404 C405 1.370 . S
C404 C406 1.363 . S
C404 H420 0.931 . S
C405 C404 1.370 . S
C405 C409 1.408 . S
C406 C404 1.363 . S
C406 C407 1.370 . S
C406 C410 1.524 . S
C407 C399 1.503 . S
C407 C406 1.370 . S
C407 C408 1.403 . S
C408 C407 1.403 . S
C408 C409 1.404 . S
C408 C411 1.539 . S
C409 C405 1.408 . S
C409 C408 1.404 . S
C409 H421 0.930 . S
C410 C406 1.524 . S
C410 H422 0.956 . S
C410 H423 0.961 . S
C410 H424 0.961 . S
C411 C408 1.539 . S
C411 H425 0.958 . S
C411 H426 0.961 . S
C411 H427 0.960 . S
H412 C396 0.931 . S
H413 C401 0.929 . S
H414 C402 0.960 . S
H415 C402 0.962 . S
H416 C402 0.960 . S
H417 C403 0.961 . S
H418 C403 0.961 . S
H419 C403 0.961 . S
H420 C404 0.931 . S
H421 C409 0.930 . S
H422 C410 0.956 . S
H423 C410 0.961 . S
H424 C410 0.961 . S
H425 C411 0.958 . S
H426 C411 0.961 . S
H427 C411 0.960 . S
C428 C429 1.391 . S
C428 C430 1.394 . S
C428 H444 0.931 . S
C429 C428 1.391 . S
C429 C433 1.376 . S
C430 C428 1.394 . S
C430 C431 1.369 . S
C430 C434 1.531 . S
C431 C430 1.369 . S
C431 C432 1.410 . S
C431 C439 1.503 . S
C432 C431 1.410 . S
C432 C433 1.392 . S
C432 C435 1.511 . S
C433 C429 1.376 . S
C433 C432 1.392 . S
C433 H445 0.929 . S
C434 C430 1.531 . S
C434 H446 0.960 . S
C434 H447 0.962 . S
C434 H448 0.960 . S
C435 C432 1.511 . S
C435 H449 0.961 . S
C435 H450 0.961 . S
C435 H451 0.961 . S
C436 C437 1.370 . S
C436 C438 1.363 . S
C436 H452 0.931 . S
C437 C436 1.370 . S
C437 C441 1.408 . S
C438 C436 1.363 . S
C438 C439 1.370 . S
C438 C442 1.524 . S
C439 C431 1.503 . S
C439 C438 1.370 . S
C439 C440 1.403 . S
C440 C439 1.403 . S
C440 C441 1.404 . S
C440 C443 1.539 . S
C441 C437 1.408 . S
C441 C440 1.404 . S
C441 H453 0.930 . S
C442 C438 1.524 . S
C442 H454 0.956 . S
C442 H455 0.961 . S
C442 H456 0.961 . S
C443 C440 1.539 . S
C443 H457 0.958 . S
C443 H458 0.961 . S
C443 H459 0.960 . S
H444 C428 0.931 . S
H445 C433 0.929 . S
H446 C434 0.960 . S
H447 C434 0.962 . S
H448 C434 0.960 . S
H449 C435 0.961 . S
H450 C435 0.961 . S
H451 C435 0.961 . S
H452 C436 0.931 . S
H453 C441 0.930 . S
H454 C442 0.956 . S
H455 C442 0.961 . S
H456 C442 0.961 . S
H457 C443 0.958 . S
H458 C443 0.961 . S
H459 C443 0.960 . S
C460 C461 1.391 . S
C460 C462 1.394 . S
C460 H476 0.931 . S
C461 C460 1.391 . S
C461 C465 1.376 . S
C462 C460 1.394 . S
C462 C463 1.369 . S
C462 C466 1.531 . S
C463 C462 1.369 . S
C463 C464 1.410 . S
C463 C471 1.503 . S
C464 C463 1.410 . S
C464 C465 1.392 . S
C464 C467 1.511 . S
C465 C461 1.376 . S
C465 C464 1.392 . S
C465 H477 0.929 . S
C466 C462 1.531 . S
C466 H478 0.960 . S
C466 H479 0.962 . S
C466 H480 0.960 . S
C467 C464 1.511 . S
C467 H481 0.961 . S
C467 H482 0.961 . S
C467 H483 0.961 . S
C468 C469 1.370 . S
C468 C470 1.363 . S
C468 H484 0.931 . S
C469 C468 1.370 . S
C469 C473 1.408 . S
C470 C468 1.363 . S
C470 C471 1.370 . S
C470 C474 1.524 . S
C471 C463 1.503 . S
C471 C470 1.370 . S
C471 C472 1.403 . S
C472 C471 1.403 . S
C472 C473 1.404 . S
C472 C475 1.539 . S
C473 C469 1.408 . S
C473 C472 1.404 . S
C473 H485 0.930 . S
C474 C470 1.524 . S
C474 H486 0.956 . S
C474 H487 0.961 . S
C474 H488 0.961 . S
C475 C472 1.539 . S
C475 H489 0.958 . S
C475 H490 0.961 . S
C475 H491 0.960 . S
H476 C460 0.931 . S
H477 C465 0.929 . S
H478 C466 0.960 . S
H479 C466 0.962 . S
H480 C466 0.960 . S
H481 C467 0.961 . S
H482 C467 0.961 . S
H483 C467 0.961 . S
H484 C468 0.931 . S
H485 C473 0.930 . S
H486 C474 0.956 . S
H487 C474 0.961 . S
H488 C474 0.961 . S
H489 C475 0.958 . S
H490 C475 0.961 . S
H491 C475 0.960 . S
C492 C493 1.391 . S
C492 C494 1.394 . S
C492 H508 0.931 . S
C493 C492 1.391 . S
C493 C497 1.376 . S
C494 C492 1.394 . S
C494 C495 1.369 . S
C494 C498 1.531 . S
C495 C494 1.369 . S
C495 C496 1.410 . S
C495 C503 1.503 . S
C496 C495 1.410 . S
C496 C497 1.392 . S
C496 C499 1.511 . S
C497 C493 1.376 . S
C497 C496 1.392 . S
C497 H509 0.929 . S
C498 C494 1.531 . S
C498 H510 0.960 . S
C498 H511 0.962 . S
C498 H512 0.960 . S
C499 C496 1.511 . S
C499 H513 0.961 . S
C499 H514 0.961 . S
C499 H515 0.961 . S
C500 C501 1.370 . S
C500 C502 1.363 . S
C500 H516 0.931 . S
C501 C500 1.370 . S
C501 C505 1.408 . S
C502 C500 1.363 . S
C502 C503 1.370 . S
C502 C506 1.524 . S
C503 C495 1.503 . S
C503 C502 1.370 . S
C503 C504 1.403 . S
C504 C503 1.403 . S
C504 C505 1.404 . S
C504 C507 1.539 . S
C505 C501 1.408 . S
C505 C504 1.404 . S
C505 H517 0.930 . S
C506 C502 1.524 . S
C506 H518 0.956 . S
C506 H519 0.961 . S
C506 H520 0.961 . S
C507 C504 1.539 . S
C507 H521 0.958 . S
C507 H522 0.961 . S
C507 H523 0.960 . S
H508 C492 0.931 . S
H509 C497 0.929 . S
H510 C498 0.960 . S
H511 C498 0.962 . S
H512 C498 0.960 . S
H513 C499 0.961 . S
H514 C499 0.961 . S
H515 C499 0.961 . S
H516 C500 0.931 . S
H517 C505 0.930 . S
H518 C506 0.956 . S
H519 C506 0.961 . S
H520 C506 0.961 . S
H521 C507 0.958 . S
H522 C507 0.961 . S
H523 C507 0.960 . S
C524 C525 1.391 . S
C524 C526 1.394 . S
C524 H540 0.931 . S
C525 C524 1.391 . S
C525 C529 1.376 . S
C526 C524 1.394 . S
C526 C527 1.369 . S
C526 C530 1.531 . S
C527 C526 1.369 . S
C527 C528 1.410 . S
C527 C535 1.503 . S
C528 C527 1.410 . S
C528 C529 1.392 . S
C528 C531 1.511 . S
C529 C525 1.376 . S
C529 C528 1.392 . S
C529 H541 0.929 . S
C530 C526 1.531 . S
C530 H542 0.960 . S
C530 H543 0.962 . S
C530 H544 0.960 . S
C531 C528 1.511 . S
C531 H545 0.961 1_554 S
C531 H546 0.961 1_554 S
C531 H547 0.961 . S
C532 C533 1.370 1_556 S
C532 C534 1.363 . S
C532 H548 0.931 . S
C533 C532 1.370 1_554 S
C533 C537 1.408 . S
C534 C532 1.363 . S
C534 C535 1.370 1_556 S
C534 C538 1.524 . S
C535 C527 1.503 . S
C535 C534 1.370 1_554 S
C535 C536 1.403 . S
C536 C535 1.403 . S
C536 C537 1.404 . S
C536 C539 1.539 . S
C537 C533 1.408 . S
C537 C536 1.404 . S
C537 H549 0.930 . S
C538 C534 1.524 . S
C538 H550 0.956 . S
C538 H551 0.961 . S
C538 H552 0.961 . S
C539 C536 1.539 . S
C539 H553 0.958 . S
C539 H554 0.961 . S
C539 H555 0.960 . S
H540 C524 0.931 . S
H541 C529 0.929 . S
H542 C530 0.960 . S
H543 C530 0.962 . S
H544 C530 0.960 . S
H545 C531 0.961 1_556 S
H546 C531 0.961 1_556 S
H547 C531 0.961 . S
H548 C532 0.931 . S
H549 C537 0.930 . S
H550 C538 0.956 . S
H551 C538 0.961 . S
H552 C538 0.961 . S
H553 C539 0.958 . S
H554 C539 0.961 . S
H555 C539 0.960 . S
C556 C557 1.391 . S
C556 C558 1.394 . S
C556 H572 0.931 . S
C557 C556 1.391 . S
C557 C561 1.376 . S
C558 C556 1.394 . S
C558 C559 1.369 . S
C558 C562 1.531 . S
C559 C558 1.369 . S
C559 C560 1.410 . S
C559 C567 1.503 . S
C560 C559 1.410 . S
C560 C561 1.392 . S
C560 C563 1.511 . S
C561 C557 1.376 . S
C561 C560 1.392 . S
C561 H573 0.929 . S
C562 C558 1.531 . S
C562 H574 0.960 . S
C562 H575 0.962 . S
C562 H576 0.960 . S
C563 C560 1.511 . S
C563 H577 0.961 . S
C563 H578 0.961 . S
C563 H579 0.961 . S
C564 C565 1.370 . S
C564 C566 1.363 . S
C564 H580 0.931 . S
C565 C564 1.370 . S
C565 C569 1.408 . S
C566 C564 1.363 . S
C566 C567 1.370 . S
C566 C570 1.524 . S
C567 C559 1.503 . S
C567 C566 1.370 . S
C567 C568 1.403 . S
C568 C567 1.403 . S
C568 C569 1.404 . S
C568 C571 1.539 . S
C569 C565 1.408 . S
C569 C568 1.404 . S
C569 H581 0.930 . S
C570 C566 1.524 . S
C570 H582 0.956 . S
C570 H583 0.961 . S
C570 H584 0.961 . S
C571 C568 1.539 . S
C571 H585 0.958 . S
C571 H586 0.961 . S
C571 H587 0.960 . S
H572 C556 0.931 . S
H573 C561 0.929 . S
H574 C562 0.960 . S
H575 C562 0.962 . S
H576 C562 0.960 . S
H577 C563 0.961 . S
H578 C563 0.961 . S
H579 C563 0.961 . S
H580 C564 0.931 . S
H581 C569 0.930 . S
H582 C570 0.956 . S
H583 C570 0.961 . S
H584 C570 0.961 . S
H585 C571 0.958 . S
H586 C571 0.961 . S
H587 C571 0.960 . S
C588 C589 1.391 . S
C588 C590 1.394 . S
C588 H604 0.931 . S
C589 C588 1.391 . S
C589 C593 1.376 . S
C590 C588 1.394 . S
C590 C591 1.369 . S
C590 C594 1.531 . S
C591 C590 1.369 . S
C591 C592 1.410 . S
C591 C599 1.503 . S
C592 C591 1.410 . S
C592 C593 1.392 . S
C592 C595 1.511 . S
C593 C589 1.376 . S
C593 C592 1.392 . S
C593 H605 0.929 . S
C594 C590 1.531 . S
C594 H606 0.960 . S
C594 H607 0.962 . S
C594 H608 0.960 . S
C595 C592 1.511 . S
C595 H609 0.961 . S
C595 H610 0.961 . S
C595 H611 0.961 . S
C596 C597 1.370 . S
C596 C598 1.363 . S
C596 H612 0.931 . S
C597 C596 1.370 . S
C597 C601 1.408 . S
C598 C596 1.363 . S
C598 C599 1.370 . S
C598 C602 1.524 . S
C599 C591 1.503 . S
C599 C598 1.370 . S
C599 C600 1.403 . S
C600 C599 1.403 . S
C600 C601 1.404 . S
C600 C603 1.539 . S
C601 C597 1.408 . S
C601 C600 1.404 . S
C601 H613 0.930 . S
C602 C598 1.524 . S
C602 H614 0.956 . S
C602 H615 0.961 . S
C602 H616 0.961 . S
C603 C600 1.539 . S
C603 H617 0.958 . S
C603 H618 0.961 . S
C603 H619 0.960 . S
H604 C588 0.931 . S
H605 C593 0.929 . S
H606 C594 0.960 . S
H607 C594 0.962 . S
H608 C594 0.960 . S
H609 C595 0.961 . S
H610 C595 0.961 . S
H611 C595 0.961 . S
H612 C596 0.931 . S
H613 C601 0.930 . S
H614 C602 0.956 . S
H615 C602 0.961 . S
H616 C602 0.961 . S
H617 C603 0.958 . S
H618 C603 0.961 . S
H619 C603 0.960 . S
C620 C621 1.391 . S
C620 C622 1.394 . S
C620 H636 0.931 . S
C621 C620 1.391 . S
C621 C625 1.376 . S
C622 C620 1.394 . S
C622 C623 1.369 . S
C622 C626 1.531 . S
C623 C622 1.369 . S
C623 C624 1.410 . S
C623 C631 1.503 . S
C624 C623 1.410 . S
C624 C625 1.392 . S
C624 C627 1.511 . S
C625 C621 1.376 . S
C625 C624 1.392 . S
C625 H637 0.929 . S
C626 C622 1.531 . S
C626 H638 0.960 . S
C626 H639 0.962 . S
C626 H640 0.960 . S
C627 C624 1.511 . S
C627 H641 0.961 . S
C627 H642 0.961 . S
C627 H643 0.961 . S
C628 C629 1.370 . S
C628 C630 1.363 . S
C628 H644 0.931 . S
C629 C628 1.370 . S
C629 C633 1.408 . S
C630 C628 1.363 . S
C630 C631 1.370 . S
C630 C634 1.524 . S
C631 C623 1.503 . S
C631 C630 1.370 . S
C631 C632 1.403 . S
C632 C631 1.403 . S
C632 C633 1.404 . S
C632 C635 1.539 . S
C633 C629 1.408 . S
C633 C632 1.404 . S
C633 H645 0.930 . S
C634 C630 1.524 . S
C634 H646 0.956 . S
C634 H647 0.961 . S
C634 H648 0.961 . S
C635 C632 1.539 . S
C635 H649 0.958 . S
C635 H650 0.961 . S
C635 H651 0.960 . S
H636 C620 0.931 . S
H637 C625 0.929 . S
H638 C626 0.960 . S
H639 C626 0.962 . S
H640 C626 0.960 . S
H641 C627 0.961 . S
H642 C627 0.961 . S
H643 C627 0.961 . S
H644 C628 0.931 . S
H645 C633 0.930 . S
H646 C634 0.956 . S
H647 C634 0.961 . S
H648 C634 0.961 . S
H649 C635 0.958 . S
H650 C635 0.961 . S
H651 C635 0.960 . S
C652 C653 1.391 . S
C652 C654 1.394 . S
C652 H668 0.931 . S
C653 C652 1.391 . S
C653 C657 1.376 . S
C654 C652 1.394 . S
C654 C655 1.369 . S
C654 C658 1.531 . S
C655 C654 1.369 . S
C655 C656 1.410 . S
C655 C663 1.503 . S
C656 C655 1.410 . S
C656 C657 1.392 . S
C656 C659 1.511 . S
C657 C653 1.376 . S
C657 C656 1.392 . S
C657 H669 0.929 . S
C658 C654 1.531 . S
C658 H670 0.960 . S
C658 H671 0.962 . S
C658 H672 0.960 . S
C659 C656 1.511 . S
C659 H673 0.961 . S
C659 H674 0.961 . S
C659 H675 0.961 . S
C660 C661 1.370 . S
C660 C662 1.363 . S
C660 H676 0.931 . S
C661 C660 1.370 . S
C661 C665 1.408 . S
C662 C660 1.363 . S
C662 C663 1.370 . S
C662 C666 1.524 . S
C663 C655 1.503 . S
C663 C662 1.370 . S
C663 C664 1.403 . S
C664 C663 1.403 . S
C664 C665 1.404 . S
C664 C667 1.539 . S
C665 C661 1.408 . S
C665 C664 1.404 . S
C665 H677 0.930 . S
C666 C662 1.524 . S
C666 H678 0.956 . S
C666 H679 0.961 . S
C666 H680 0.961 . S
C667 C664 1.539 . S
C667 H681 0.958 . S
C667 H682 0.961 . S
C667 H683 0.960 . S
H668 C652 0.931 . S
H669 C657 0.929 . S
H670 C658 0.960 . S
H671 C658 0.962 . S
H672 C658 0.960 . S
H673 C659 0.961 . S
H674 C659 0.961 . S
H675 C659 0.961 . S
H676 C660 0.931 . S
H677 C665 0.930 . S
H678 C666 0.956 . S
H679 C666 0.961 . S
H680 C666 0.961 . S
H681 C667 0.958 . S
H682 C667 0.961 . S
H683 C667 0.960 . S
C684 C685 1.391 1_554 S
C684 C686 1.394 . S
C684 H700 0.931 . S
C685 C684 1.391 1_556 S
C685 C689 1.376 . S
C686 C684 1.394 . S
C686 C687 1.369 1_554 S
C686 C690 1.531 . S
C687 C686 1.369 1_556 S
C687 C688 1.410 . S
C687 C695 1.503 . S
C688 C687 1.410 . S
C688 C689 1.392 . S
C688 C691 1.511 . S
C689 C685 1.376 . S
C689 C688 1.392 . S
C689 H701 0.929 . S
C690 C686 1.531 . S
C690 H702 0.960 . S
C690 H703 0.962 . S
C690 H704 0.960 . S
C691 C688 1.511 . S
C691 H705 0.961 . S
C691 H706 0.961 . S
C691 H707 0.961 . S
C692 C693 1.370 . S
C692 C694 1.363 . S
C692 H708 0.931 . S
C693 C692 1.370 . S
C693 C697 1.418 . S
C694 C692 1.363 . S
C694 C695 1.370 . S
C694 C698 1.524 . S
C695 C687 1.503 . S
C695 C694 1.370 . S
C695 C696 1.403 . S
C696 C695 1.403 . S
C696 C697 1.407 . S
C696 C699 1.537 1_556 S
C697 C693 1.418 . S
C697 C696 1.407 . S
C697 H709 0.921 1_556 S
C698 C694 1.524 . S
C698 H710 0.956 . S
C698 H711 0.961 . S
C698 H712 0.961 . S
C699 C696 1.537 1_554 S
C699 H713 0.987 . S
C699 H714 0.951 1_554 S
C699 H715 0.945 1_554 S
H700 C684 0.931 . S
H701 C689 0.929 . S
H702 C690 0.960 . S
H703 C690 0.962 . S
H704 C690 0.960 . S
H705 C691 0.961 . S
H706 C691 0.961 . S
H707 C691 0.961 . S
H708 C692 0.931 . S
H709 C697 0.921 1_554 S
H710 C698 0.956 . S
H711 C698 0.961 . S
H712 C698 0.961 . S
H713 C699 0.987 . S
H714 C699 0.951 1_556 S
H715 C699 0.945 1_556 S
C716 C717 1.391 . S
C716 C718 1.394 . S
C716 H732 0.931 . S
C717 C716 1.391 . S
C717 C721 1.376 . S
C718 C716 1.394 . S
C718 C719 1.369 . S
C718 C722 1.531 . S
C719 C718 1.369 . S
C719 C720 1.410 . S
C719 C727 1.503 . S
C720 C719 1.410 . S
C720 C721 1.392 . S
C720 C723 1.511 . S
C721 C717 1.376 . S
C721 C720 1.392 . S
C721 H733 0.929 . S
C722 C718 1.531 . S
C722 H734 0.960 . S
C722 H735 0.962 . S
C722 H736 0.960 . S
C723 C720 1.511 . S
C723 H737 0.961 . S
C723 H738 0.961 . S
C723 H739 0.961 . S
C724 C725 1.370 . S
C724 C726 1.363 . S
C724 H740 0.931 . S
C725 C724 1.370 . S
C725 C729 1.408 . S
C726 C724 1.363 . S
C726 C727 1.370 . S
C726 C730 1.524 . S
C727 C719 1.503 . S
C727 C726 1.370 . S
C727 C728 1.403 . S
C728 C727 1.403 . S
C728 C729 1.404 . S
C728 C731 1.539 . S
C729 C725 1.408 . S
C729 C728 1.404 . S
C729 H741 0.930 . S
C730 C726 1.524 . S
C730 H742 0.956 . S
C730 H743 0.961 . S
C730 H744 0.961 . S
C731 C728 1.539 . S
C731 H745 0.958 . S
C731 H746 0.961 . S
C731 H747 0.960 . S
H732 C716 0.931 . S
H733 C721 0.929 . S
H734 C722 0.960 . S
H735 C722 0.962 . S
H736 C722 0.960 . S
H737 C723 0.961 . S
H738 C723 0.961 . S
H739 C723 0.961 . S
H740 C724 0.931 . S
H741 C729 0.930 . S
H742 C730 0.956 . S
H743 C730 0.961 . S
H744 C730 0.961 . S
H745 C731 0.958 . S
H746 C731 0.961 . S
H747 C731 0.960 . S
C748 C749 1.391 . S
C748 C750 1.394 . S
C748 H764 0.931 . S
C749 C748 1.391 . S
C749 C753 1.376 . S
C750 C748 1.394 . S
C750 C751 1.369 . S
C750 C754 1.531 . S
C751 C750 1.369 . S
C751 C752 1.410 . S
C751 C759 1.503 . S
C752 C751 1.410 . S
C752 C753 1.392 . S
C752 C755 1.511 . S
C753 C749 1.376 . S
C753 C752 1.392 . S
C753 H765 0.929 . S
C754 C750 1.531 . S
C754 H766 0.960 . S
C754 H767 0.962 . S
C754 H768 0.960 . S
C755 C752 1.511 . S
C755 H769 0.961 . S
C755 H770 0.961 . S
C755 H771 0.961 . S
C756 C757 1.370 . S
C756 C758 1.363 . S
C756 H772 0.931 . S
C757 C756 1.370 . S
C757 C761 1.408 . S
C758 C756 1.363 . S
C758 C759 1.370 . S
C758 C762 1.524 . S
C759 C751 1.503 . S
C759 C758 1.370 . S
C759 C760 1.403 . S
C760 C759 1.403 . S
C760 C761 1.404 . S
C760 C763 1.539 . S
C761 C757 1.408 . S
C761 C760 1.404 . S
C761 H773 0.930 . S
C762 C758 1.524 . S
C762 H774 0.956 . S
C762 H775 0.961 . S
C762 H776 0.961 . S
C763 C760 1.539 . S
C763 H777 0.958 . S
C763 H778 0.961 . S
C763 H779 0.960 . S
H764 C748 0.931 . S
H765 C753 0.929 . S
H766 C754 0.960 . S
H767 C754 0.962 . S
H768 C754 0.960 . S
H769 C755 0.961 . S
H770 C755 0.961 . S
H771 C755 0.961 . S
H772 C756 0.931 . S
H773 C761 0.930 . S
H774 C762 0.956 . S
H775 C762 0.961 . S
H776 C762 0.961 . S
H777 C763 0.958 . S
H778 C763 0.961 . S
H779 C763 0.960 . S
C780 C781 1.391 . S
C780 C782 1.394 . S
C780 H796 0.931 . S
C781 C780 1.391 . S
C781 C785 1.376 . S
C782 C780 1.394 . S
C782 C783 1.369 . S
C782 C786 1.531 . S
C783 C782 1.369 . S
C783 C784 1.410 . S
C783 C791 1.503 . S
C784 C783 1.410 . S
C784 C785 1.392 . S
C784 C787 1.511 . S
C785 C781 1.376 . S
C785 C784 1.392 . S
C785 H797 0.929 . S
C786 C782 1.531 . S
C786 H798 0.960 . S
C786 H799 0.962 . S
C786 H800 0.960 . S
C787 C784 1.511 . S
C787 H801 0.961 . S
C787 H802 0.961 . S
C787 H803 0.961 . S
C788 C789 1.370 . S
C788 C790 1.363 . S
C788 H804 0.931 . S
C789 C788 1.370 . S
C789 C793 1.408 . S
C790 C788 1.363 . S
C790 C791 1.370 . S
C790 C794 1.524 . S
C791 C783 1.503 . S
C791 C790 1.370 . S
C791 C792 1.403 . S
C792 C791 1.403 . S
C792 C793 1.404 . S
C792 C795 1.539 . S
C793 C789 1.408 . S
C793 C792 1.404 . S
C793 H805 0.930 . S
C794 C790 1.524 . S
C794 H806 0.956 . S
C794 H807 0.961 . S
C794 H808 0.961 . S
C795 C792 1.539 . S
C795 H809 0.958 . S
C795 H810 0.961 . S
C795 H811 0.960 . S
H796 C780 0.931 . S
H797 C785 0.929 . S
H798 C786 0.960 . S
H799 C786 0.962 . S
H800 C786 0.960 . S
H801 C787 0.961 . S
H802 C787 0.961 . S
H803 C787 0.961 . S
H804 C788 0.931 . S
H805 C793 0.930 . S
H806 C794 0.956 . S
H807 C794 0.961 . S
H808 C794 0.961 . S
H809 C795 0.958 . S
H810 C795 0.961 . S
H811 C795 0.960 . S
C812 C813 1.391 1_655 S
C812 C814 1.394 . S
C812 H828 0.931 . S
C813 C812 1.391 1_455 S
C813 C817 1.376 . S
C814 C812 1.394 . S
C814 C815 1.369 1_655 S
C814 C818 1.531 . S
C815 C814 1.369 1_455 S
C815 C816 1.410 . S
C815 C823 1.503 . S
C816 C815 1.410 . S
C816 C817 1.392 . S
C816 C819 1.511 . S
C817 C813 1.376 . S
C817 C816 1.392 . S
C817 H829 0.929 . S
C818 C814 1.531 . S
C818 H830 0.960 . S
C818 H831 0.962 . S
C818 H832 0.960 . S
C819 C816 1.511 . S
C819 H833 0.961 . S
C819 H834 0.961 . S
C819 H835 0.961 . S
C820 C821 1.370 1_655 S
C820 C822 1.363 . S
C820 H836 0.931 . S
C821 C820 1.370 1_455 S
C821 C825 1.408 . S
C822 C820 1.363 . S
C822 C823 1.370 1_655 S
C822 C826 1.524 . S
C823 C815 1.503 . S
C823 C822 1.370 1_455 S
C823 C824 1.403 . S
C824 C823 1.403 . S
C824 C825 1.404 . S
C824 C827 1.539 . S
C825 C821 1.408 . S
C825 C824 1.404 . S
C825 H837 0.930 . S
C826 C822 1.524 . S
C826 H838 0.956 . S
C826 H839 0.957 1_655 S
C826 H840 0.961 . S
C827 C824 1.539 . S
C827 H841 0.958 . S
C827 H842 0.961 . S
C827 H843 0.960 . S
H828 C812 0.931 . S
H829 C817 0.929 . S
H830 C818 0.960 . S
H831 C818 0.962 . S
H832 C818 0.960 . S
H833 C819 0.961 . S
H834 C819 0.961 . S
H835 C819 0.961 . S
H836 C820 0.931 . S
H837 C825 0.930 . S
H838 C826 0.956 . S
H839 C826 0.957 1_455 S
H840 C826 0.961 . S
H841 C827 0.958 . S
H842 C827 0.961 . S
H843 C827 0.960 . S
C844 C845 1.391 . S
C844 C846 1.394 1_545 S
C844 H860 0.931 1_545 S
C845 C844 1.391 . S
C845 C849 1.376 . S
C846 C844 1.394 1_565 S
C846 C847 1.369 1_565 S
C846 C850 1.531 . S
C847 C846 1.369 1_545 S
C847 C848 1.410 . S
C847 C855 1.503 . S
C848 C847 1.410 . S
C848 C849 1.392 . S
C848 C851 1.511 . S
C849 C845 1.376 . S
C849 C848 1.392 . S
C849 H861 0.929 . S
C850 C846 1.531 . S
C850 H862 0.960 . S
C850 H863 0.962 1_565 S
C850 H864 0.960 . S
C851 C848 1.511 . S
C851 H865 0.961 . S
C851 H866 0.961 . S
C851 H867 0.961 1_545 S
C852 C853 1.370 . S
C852 C854 1.363 . S
C852 H868 0.931 . S
C853 C852 1.370 . S
C853 C857 1.408 1_545 S
C854 C852 1.363 . S
C854 C855 1.370 . S
C854 C858 1.524 . S
C855 C847 1.503 . S
C855 C854 1.370 . S
C855 C856 1.403 1_545 S
C856 C855 1.403 1_565 S
C856 C857 1.404 . S
C856 C859 1.539 . S
C857 C853 1.408 1_565 S
C857 C856 1.404 . S
C857 H869 0.930 . S
C858 C854 1.524 . S
C858 H870 0.956 . S
C858 H871 0.961 . S
C858 H872 0.961 . S
C859 C856 1.539 . S
C859 H873 0.958 . S
C859 H874 0.961 . S
C859 H875 0.960 . S
H860 C844 0.931 1_565 S
H861 C849 0.929 . S
H862 C850 0.960 . S
H863 C850 0.962 1_545 S
H864 C850 0.960 . S
H865 C851 0.961 . S
H866 C851 0.961 . S
H867 C851 0.961 1_565 S
H868 C852 0.931 . S
H869 C857 0.930 . S
H870 C858 0.956 . S
H871 C858 0.961 . S
H872 C858 0.961 . S
H873 C859 0.958 . S
H874 C859 0.961 . S
H875 C859 0.960 . S
C876 C877 1.391 . S
C876 C878 1.394 . S
C876 H892 0.931 . S
C877 C876 1.391 . S
C877 C881 1.376 . S
C878 C876 1.394 . S
C878 C879 1.369 . S
C878 C882 1.531 . S
C879 C878 1.369 . S
C879 C880 1.410 . S
C879 C887 1.503 . S
C880 C879 1.410 . S
C880 C881 1.392 . S
C880 C883 1.511 . S
C881 C877 1.376 . S
C881 C880 1.392 . S
C881 H893 0.929 . S
C882 C878 1.531 . S
C882 H894 0.960 . S
C882 H895 0.962 . S
C882 H896 0.960 . S
C883 C880 1.511 . S
C883 H897 0.961 . S
C883 H898 0.961 . S
C883 H899 0.961 . S
C884 C885 1.370 . S
C884 C886 1.363 . S
C884 H900 0.931 . S
C885 C884 1.370 . S
C885 C889 1.408 . S
C886 C884 1.363 . S
C886 C887 1.370 . S
C886 C890 1.524 . S
C887 C879 1.503 . S
C887 C886 1.370 . S
C887 C888 1.403 . S
C888 C887 1.403 . S
C888 C889 1.404 . S
C888 C891 1.539 . S
C889 C885 1.408 . S
C889 C888 1.404 . S
C889 H901 0.930 . S
C890 C886 1.524 . S
C890 H902 0.956 . S
C890 H903 0.961 . S
C890 H904 0.961 . S
C891 C888 1.539 . S
C891 H905 0.958 . S
C891 H906 0.961 . S
C891 H907 0.960 . S
H892 C876 0.931 . S
H893 C881 0.929 . S
H894 C882 0.960 . S
H895 C882 0.962 . S
H896 C882 0.960 . S
H897 C883 0.961 . S
H898 C883 0.961 . S
H899 C883 0.961 . S
H900 C884 0.931 . S
H901 C889 0.930 . S
H902 C890 0.956 . S
H903 C890 0.961 . S
H904 C890 0.961 . S
H905 C891 0.958 . S
H906 C891 0.961 . S
H907 C891 0.960 . S
C908 C909 1.391 . S
C908 C910 1.394 . S
C908 H924 0.931 . S
C909 C908 1.391 . S
C909 C913 1.376 1_655 S
C910 C908 1.394 . S
C910 C911 1.369 . S
C910 C914 1.531 . S
C911 C910 1.369 . S
C911 C912 1.410 1_655 S
C911 C919 1.503 . S
C912 C911 1.410 1_455 S
C912 C913 1.392 . S
C912 C915 1.511 . S
C913 C909 1.376 1_455 S
C913 C912 1.392 . S
C913 H925 0.929 . S
C914 C910 1.531 . S
C914 H926 0.960 . S
C914 H927 0.962 . S
C914 H928 0.960 . S
C915 C912 1.511 . S
C915 H929 0.961 . S
C915 H930 0.961 . S
C915 H931 0.961 . S
C916 C917 1.370 . S
C916 C918 1.363 . S
C916 H932 0.931 . S
C917 C916 1.370 . S
C917 C921 1.408 1_655 S
C918 C916 1.363 . S
C918 C919 1.370 . S
C918 C922 1.524 . S
C919 C911 1.503 . S
C919 C918 1.370 . S
C919 C920 1.403 1_655 S
C920 C919 1.403 1_455 S
C920 C921 1.404 . S
C920 C923 1.539 . S
C921 C917 1.408 1_455 S
C921 C920 1.404 . S
C921 H933 0.930 . S
C922 C918 1.524 . S
C922 H934 0.956 . S
C922 H935 0.961 . S
C922 H936 0.961 . S
C923 C920 1.539 . S
C923 H937 0.958 . S
C923 H938 0.961 . S
C923 H939 0.960 . S
H924 C908 0.931 . S
H925 C913 0.929 . S
H926 C914 0.960 . S
H927 C914 0.962 . S
H928 C914 0.960 . S
H929 C915 0.961 . S
H930 C915 0.961 . S
H931 C915 0.961 . S
H932 C916 0.931 . S
H933 C921 0.930 . S
H934 C922 0.956 . S
H935 C922 0.961 . S
H936 C922 0.961 . S
H937 C923 0.958 . S
H938 C923 0.961 . S
H939 C923 0.960 . S
C940 C941 1.391 . S
C940 C942 1.394 . S
C940 H956 0.931 . S
C941 C940 1.391 . S
C941 C945 1.376 1_565 S
C942 C940 1.394 . S
C942 C943 1.369 . S
C942 C946 1.531 . S
C943 C942 1.369 . S
C943 C944 1.410 1_565 S
C943 C951 1.503 . S
C944 C943 1.410 1_545 S
C944 C945 1.392 . S
C944 C947 1.511 . S
C945 C941 1.376 1_545 S
C945 C944 1.392 . S
C945 H957 0.929 . S
C946 C942 1.531 . S
C946 H958 0.960 . S
C946 H959 0.962 . S
C946 H960 0.960 . S
C947 C944 1.511 . S
C947 H961 0.961 . S
C947 H962 0.961 . S
C947 H963 0.961 . S
C948 C949 1.370 . S
C948 C950 1.363 . S
C948 H964 0.931 . S
C949 C948 1.370 . S
C949 C953 1.408 1_565 S
C950 C948 1.363 . S
C950 C951 1.370 . S
C950 C954 1.524 . S
C951 C943 1.503 . S
C951 C950 1.370 . S
C951 C952 1.403 1_565 S
C952 C951 1.403 1_545 S
C952 C953 1.404 . S
C952 C955 1.539 . S
C953 C949 1.408 1_545 S
C953 C952 1.404 . S
C953 H965 0.930 . S
C954 C950 1.524 . S
C954 H966 0.956 . S
C954 H967 0.961 . S
C954 H968 0.961 . S
C955 C952 1.539 . S
C955 H969 0.958 . S
C955 H970 0.961 . S
C955 H971 0.960 . S
H956 C940 0.931 . S
H957 C945 0.929 . S
H958 C946 0.960 . S
H959 C946 0.962 . S
H960 C946 0.960 . S
H961 C947 0.961 . S
H962 C947 0.961 . S
H963 C947 0.961 . S
H964 C948 0.931 . S
H965 C953 0.930 . S
H966 C954 0.956 . S
H967 C954 0.961 . S
H968 C954 0.961 . S
H969 C955 0.958 . S
H970 C955 0.961 . S
H971 C955 0.960 . S
C972 C973 1.391 . S
C972 C974 1.394 . S
C972 H988 0.931 . S
C973 C972 1.391 . S
C973 C977 1.376 . S
C974 C972 1.394 . S
C974 C975 1.369 . S
C974 C978 1.531 . S
C975 C974 1.369 . S
C975 C976 1.410 . S
C975 C983 1.503 . S
C976 C975 1.410 . S
C976 C977 1.392 . S
C976 C979 1.511 . S
C977 C973 1.376 . S
C977 C976 1.392 . S
C977 H989 0.929 . S
C978 C974 1.531 . S
C978 H990 0.960 . S
C978 H991 0.962 . S
C978 H992 0.960 . S
C979 C976 1.511 . S
C979 H993 0.961 . S
C979 H994 0.961 . S
C979 H995 0.961 . S
C980 C981 1.370 . S
C980 C982 1.363 . S
C980 H996 0.931 . S
C981 C980 1.370 . S
C981 C985 1.408 . S
C982 C980 1.363 . S
C982 C983 1.370 . S
C982 C986 1.524 . S
C983 C975 1.503 . S
C983 C982 1.370 . S
C983 C984 1.403 . S
C984 C983 1.403 . S
C984 C985 1.404 . S
C984 C987 1.539 . S
C985 C981 1.408 . S
C985 C984 1.404 . S
C985 H997 0.930 . S
C986 C982 1.524 . S
C986 H998 0.956 . S
C986 H999 0.961 . S
C986 H1000 0.961 . S
C987 C984 1.539 . S
C987 H1001 0.958 . S
C987 H1002 0.961 . S
C987 H1003 0.960 . S
H988 C972 0.931 . S
H989 C977 0.929 . S
H990 C978 0.960 . S
H991 C978 0.962 . S
H992 C978 0.960 . S
H993 C979 0.961 . S
H994 C979 0.961 . S
H995 C979 0.961 . S
H996 C980 0.931 . S
H997 C985 0.930 . S
H998 C986 0.956 . S
H999 C986 0.961 . S
H1000 C986 0.961 . S
H1001 C987 0.958 . S
H1002 C987 0.961 . S
H1003 C987 0.960 . S
C1004 C1005 1.391 . S
C1004 C1006 1.394 . S
C1004 H1020 0.931 . S
C1005 C1004 1.391 . S
C1005 C1009 1.376 . S
C1006 C1004 1.394 . S
C1006 C1007 1.369 . S
C1006 C1010 1.531 . S
C1007 C1006 1.369 . S
C1007 C1008 1.410 . S
C1007 C1015 1.503 . S
C1008 C1007 1.410 . S
C1008 C1009 1.392 . S
C1008 C1011 1.511 1_455 S
C1009 C1005 1.376 . S
C1009 C1008 1.392 . S
C1009 H1021 0.929 . S
C1010 C1006 1.531 . S
C1010 H1022 0.960 . S
C1010 H1023 0.962 . S
C1010 H1024 0.960 . S
C1011 C1008 1.511 1_655 S
C1011 H1025 0.961 . S
C1011 H1026 0.961 . S
C1011 H1027 0.961 . S
C1012 C1013 1.370 . S
C1012 C1014 1.363 . S
C1012 H1028 0.931 . S
C1013 C1012 1.370 . S
C1013 C1017 1.408 . S
C1014 C1012 1.363 . S
C1014 C1015 1.370 . S
C1014 C1018 1.524 . S
C1015 C1007 1.503 . S
C1015 C1014 1.370 . S
C1015 C1016 1.403 . S
C1016 C1015 1.403 . S
C1016 C1017 1.404 . S
C1016 C1019 1.539 . S
C1017 C1013 1.408 . S
C1017 C1016 1.404 . S
C1017 H1029 0.930 . S
C1018 C1014 1.524 . S
C1018 H1030 0.956 . S
C1018 H1031 0.961 . S
C1018 H1032 0.961 . S
C1019 C1016 1.539 . S
C1019 H1033 0.958 . S
C1019 H1034 0.961 . S
C1019 H1035 0.960 . S
H1020 C1004 0.931 . S
H1021 C1009 0.929 . S
H1022 C1010 0.960 . S
H1023 C1010 0.962 . S
H1024 C1010 0.960 . S
H1025 C1011 0.961 . S
H1026 C1011 0.961 . S
H1027 C1011 0.961 . S
H1028 C1012 0.931 . S
H1029 C1017 0.930 . S
H1030 C1018 0.956 . S
H1031 C1018 0.961 . S
H1032 C1018 0.961 . S
H1033 C1019 0.958 . S
H1034 C1019 0.961 . S
H1035 C1019 0.960 . S
C1036 C1037 1.391 . S
C1036 C1038 1.394 . S
C1036 H1052 0.931 1_545 S
C1037 C1036 1.391 . S
C1037 C1041 1.376 . S
C1038 C1036 1.394 . S
C1038 C1039 1.369 . S
C1038 C1042 1.531 1_545 S
C1039 C1038 1.369 . S
C1039 C1040 1.410 . S
C1039 C1047 1.503 . S
C1040 C1039 1.410 . S
C1040 C1041 1.392 . S
C1040 C1043 1.511 . S
C1041 C1037 1.376 . S
C1041 C1040 1.392 . S
C1041 H1053 0.929 . S
C1042 C1038 1.531 1_565 S
C1042 H1054 0.960 . S
C1042 H1055 0.962 1_565 S
C1042 H1056 0.960 . S
C1043 C1040 1.511 . S
C1043 H1057 0.961 . S
C1043 H1058 0.961 . S
C1043 H1059 0.961 . S
C1044 C1045 1.370 . S
C1044 C1046 1.363 . S
C1044 H1060 0.931 . S
C1045 C1044 1.370 . S
C1045 C1049 1.408 . S
C1046 C1044 1.363 . S
C1046 C1047 1.370 . S
C1046 C1050 1.524 . S
C1047 C1039 1.503 . S
C1047 C1046 1.370 . S
C1047 C1048 1.403 . S
C1048 C1047 1.403 . S
C1048 C1049 1.404 . S
C1048 C1051 1.539 1_545 S
C1049 C1045 1.408 . S
C1049 C1048 1.404 . S
C1049 H1061 0.930 . S
C1050 C1046 1.524 . S
C1050 H1062 0.956 . S
C1050 H1063 0.961 . S
C1050 H1064 0.961 . S
C1051 C1048 1.539 1_565 S
C1051 H1065 0.958 . S
C1051 H1066 0.961 . S
C1051 H1067 0.960 . S
H1052 C1036 0.931 1_565 S
H1053 C1041 0.929 . S
H1054 C1042 0.960 . S
H1055 C1042 0.962 1_545 S
H1056 C1042 0.960 . S
H1057 C1043 0.961 . S
H1058 C1043 0.961 . S
H1059 C1043 0.961 . S
H1060 C1044 0.931 . S
H1061 C1049 0.930 . S
H1062 C1050 0.956 . S
H1063 C1050 0.961 . S
H1064 C1050 0.961 . S
H1065 C1051 0.958 . S
H1066 C1051 0.961 . S
H1067 C1051 0.960 . S
C1068 C1069 1.391 . S
C1068 C1070 1.394 . S
C1068 H1084 0.931 . S
C1069 C1068 1.391 . S
C1069 C1073 1.376 . S
C1070 C1068 1.394 . S
C1070 C1071 1.369 . S
C1070 C1074 1.531 . S
C1071 C1070 1.369 . S
C1071 C1072 1.410 . S
C1071 C1079 1.503 . S
C1072 C1071 1.410 . S
C1072 C1073 1.392 . S
C1072 C1075 1.511 . S
C1073 C1069 1.376 . S
C1073 C1072 1.392 . S
C1073 H1085 0.929 . S
C1074 C1070 1.531 . S
C1074 H1086 0.960 . S
C1074 H1087 0.962 . S
C1074 H1088 0.960 . S
C1075 C1072 1.511 . S
C1075 H1089 0.961 . S
C1075 H1090 0.961 . S
C1075 H1091 0.961 . S
C1076 C1077 1.370 . S
C1076 C1078 1.363 . S
C1076 H1092 0.931 . S
C1077 C1076 1.370 . S
C1077 C1081 1.408 . S
C1078 C1076 1.363 . S
C1078 C1079 1.370 . S
C1078 C1082 1.524 . S
C1079 C1071 1.503 . S
C1079 C1078 1.370 . S
C1079 C1080 1.403 . S
C1080 C1079 1.403 . S
C1080 C1081 1.404 . S
C1080 C1083 1.539 . S
C1081 C1077 1.408 . S
C1081 C1080 1.404 . S
C1081 H1093 0.930 . S
C1082 C1078 1.524 . S
C1082 H1094 0.956 . S
C1082 H1095 0.961 . S
C1082 H1096 0.961 . S
C1083 C1080 1.539 . S
C1083 H1097 0.958 . S
C1083 H1098 0.961 . S
C1083 H1099 0.960 . S
H1084 C1068 0.931 . S
H1085 C1073 0.929 . S
H1086 C1074 0.960 . S
H1087 C1074 0.962 . S
H1088 C1074 0.960 . S
H1089 C1075 0.961 . S
H1090 C1075 0.961 . S
H1091 C1075 0.961 . S
H1092 C1076 0.931 . S
H1093 C1081 0.930 . S
H1094 C1082 0.956 . S
H1095 C1082 0.961 . S
H1096 C1082 0.961 . S
H1097 C1083 0.958 . S
H1098 C1083 0.961 . S
H1099 C1083 0.960 . S
C1100 C1101 1.391 . S
C1100 C1102 1.394 . S
C1100 H1116 0.926 1_655 S
C1101 C1100 1.391 . S
C1101 C1105 1.376 . S
C1102 C1100 1.394 . S
C1102 C1103 1.369 . S
C1102 C1106 1.531 . S
C1103 C1102 1.369 . S
C1103 C1104 1.410 . S
C1103 C1111 1.503 . S
C1104 C1103 1.410 . S
C1104 C1105 1.392 . S
C1104 C1107 1.511 . S
C1105 C1101 1.376 . S
C1105 C1104 1.392 . S
C1105 H1117 0.929 . S
C1106 C1102 1.531 . S
C1106 H1118 0.960 . S
C1106 H1119 0.962 1_655 S
C1106 H1120 0.960 . S
C1107 C1104 1.511 . S
C1107 H1121 0.961 . S
C1107 H1122 0.961 . S
C1107 H1123 0.961 . S
C1108 C1109 1.370 . S
C1108 C1110 1.363 . S
C1108 H1124 0.931 . S
C1109 C1108 1.370 . S
C1109 C1113 1.408 . S
C1110 C1108 1.363 . S
C1110 C1111 1.370 . S
C1110 C1114 1.524 . S
C1111 C1103 1.503 . S
C1111 C1110 1.370 . S
C1111 C1112 1.403 . S
C1112 C1111 1.403 . S
C1112 C1113 1.404 . S
C1112 C1115 1.539 . S
C1113 C1109 1.408 . S
C1113 C1112 1.404 . S
C1113 H1125 0.930 . S
C1114 C1110 1.524 . S
C1114 H1126 0.956 1_655 S
C1114 H1127 0.961 . S
C1114 H1128 0.961 1_655 S
C1115 C1112 1.539 . S
C1115 H1129 0.958 . S
C1115 H1130 0.961 . S
C1115 H1131 0.960 . S
H1116 C1100 0.926 1_455 S
H1117 C1105 0.929 . S
H1118 C1106 0.960 . S
H1119 C1106 0.962 1_455 S
H1120 C1106 0.960 . S
H1121 C1107 0.961 . S
H1122 C1107 0.961 . S
H1123 C1107 0.961 . S
H1124 C1108 0.931 . S
H1125 C1113 0.930 . S
H1126 C1114 0.956 1_455 S
H1127 C1114 0.961 . S
H1128 C1114 0.961 1_455 S
H1129 C1115 0.958 . S
H1130 C1115 0.961 . S
H1131 C1115 0.960 . S
C1132 C1133 1.391 . S
C1132 C1134 1.394 . S
C1132 H1148 0.931 1_565 S
C1133 C1132 1.391 . S
C1133 C1137 1.376 . S
C1134 C1132 1.394 . S
C1134 C1135 1.369 . S
C1134 C1138 1.531 1_565 S
C1135 C1134 1.369 . S
C1135 C1136 1.410 . S
C1135 C1143 1.503 . S
C1136 C1135 1.410 . S
C1136 C1137 1.392 . S
C1136 C1139 1.511 . S
C1137 C1133 1.376 . S
C1137 C1136 1.392 . S
C1137 H1149 0.929 . S
C1138 C1134 1.531 1_545 S
C1138 H1150 0.960 . S
C1138 H1151 0.962 1_545 S
C1138 H1152 0.960 . S
C1139 C1136 1.511 . S
C1139 H1153 0.961 . S
C1139 H1154 0.961 . S
C1139 H1155 0.961 . S
C1140 C1141 1.370 . S
C1140 C1142 1.363 . S
C1140 H1156 0.931 . S
C1141 C1140 1.370 . S
C1141 C1145 1.408 . S
C1142 C1140 1.363 . S
C1142 C1143 1.370 . S
C1142 C1146 1.524 . S
C1143 C1135 1.503 . S
C1143 C1142 1.370 . S
C1143 C1144 1.403 . S
C1144 C1143 1.403 . S
C1144 C1145 1.404 . S
C1144 C1147 1.539 1_565 S
C1145 C1141 1.408 . S
C1145 C1144 1.404 . S
C1145 H1157 0.930 . S
C1146 C1142 1.524 . S
C1146 H1158 0.956 . S
C1146 H1159 0.961 . S
C1146 H1160 0.961 . S
C1147 C1144 1.539 1_545 S
C1147 H1161 0.958 . S
C1147 H1162 0.961 . S
C1147 H1163 0.960 . S
H1148 C1132 0.931 1_545 S
H1149 C1137 0.929 . S
H1150 C1138 0.960 . S
H1151 C1138 0.962 1_565 S
H1152 C1138 0.960 . S
H1153 C1139 0.961 . S
H1154 C1139 0.961 . S
H1155 C1139 0.961 . S
H1156 C1140 0.931 . S
H1157 C1145 0.930 . S
H1158 C1146 0.956 . S
H1159 C1146 0.961 . S
H1160 C1146 0.961 . S
H1161 C1147 0.958 . S
H1162 C1147 0.961 . S
H1163 C1147 0.960 . S
C1164 C1165 1.391 . S
C1164 C1166 1.394 . S
C1164 H1180 0.931 . S
C1165 C1164 1.391 . S
C1165 C1169 1.376 . S
C1166 C1164 1.394 . S
C1166 C1167 1.369 . S
C1166 C1170 1.531 . S
C1167 C1166 1.369 . S
C1167 C1168 1.410 . S
C1167 C1175 1.503 . S
C1168 C1167 1.410 . S
C1168 C1169 1.392 . S
C1168 C1171 1.511 . S
C1169 C1165 1.376 . S
C1169 C1168 1.392 . S
C1169 H1181 0.929 . S
C1170 C1166 1.531 . S
C1170 H1182 0.960 . S
C1170 H1183 0.962 . S
C1170 H1184 0.960 . S
C1171 C1168 1.511 . S
C1171 H1185 0.961 . S
C1171 H1186 0.961 . S
C1171 H1187 0.961 . S
C1172 C1173 1.370 . S
C1172 C1174 1.363 . S
C1172 H1188 0.931 . S
C1173 C1172 1.370 . S
C1173 C1177 1.408 . S
C1174 C1172 1.363 . S
C1174 C1175 1.370 . S
C1174 C1178 1.524 . S
C1175 C1167 1.503 . S
C1175 C1174 1.370 . S
C1175 C1176 1.403 . S
C1176 C1175 1.403 . S
C1176 C1177 1.404 . S
C1176 C1179 1.539 . S
C1177 C1173 1.408 . S
C1177 C1176 1.404 . S
C1177 H1189 0.930 . S
C1178 C1174 1.524 . S
C1178 H1190 0.956 . S
C1178 H1191 0.961 . S
C1178 H1192 0.961 . S
C1179 C1176 1.539 . S
C1179 H1193 0.958 . S
C1179 H1194 0.961 . S
C1179 H1195 0.960 . S
H1180 C1164 0.931 . S
H1181 C1169 0.929 . S
H1182 C1170 0.960 . S
H1183 C1170 0.962 . S
H1184 C1170 0.960 . S
H1185 C1171 0.961 . S
H1186 C1171 0.961 . S
H1187 C1171 0.961 . S
H1188 C1172 0.931 . S
H1189 C1177 0.930 . S
H1190 C1178 0.956 . S
H1191 C1178 0.961 . S
H1192 C1178 0.961 . S
H1193 C1179 0.958 . S
H1194 C1179 0.961 . S
H1195 C1179 0.960 . S
C1196 C1197 1.391 . S
C1196 C1198 1.394 . S
C1196 H1212 0.931 . S
C1197 C1196 1.391 . S
C1197 C1201 1.376 . S
C1198 C1196 1.394 . S
C1198 C1199 1.369 . S
C1198 C1202 1.531 . S
C1199 C1198 1.369 . S
C1199 C1200 1.410 . S
C1199 C1207 1.503 . S
C1200 C1199 1.410 . S
C1200 C1201 1.392 . S
C1200 C1203 1.511 . S
C1201 C1197 1.376 . S
C1201 C1200 1.392 . S
C1201 H1213 0.929 . S
C1202 C1198 1.531 . S
C1202 H1214 0.960 . S
C1202 H1215 0.962 . S
C1202 H1216 0.960 . S
C1203 C1200 1.511 . S
C1203 H1217 0.961 . S
C1203 H1218 0.961 . S
C1203 H1219 0.961 1_455 S
C1204 C1205 1.370 . S
C1204 C1206 1.363 . S
C1204 H1220 0.931 . S
C1205 C1204 1.370 . S
C1205 C1209 1.408 1_455 S
C1206 C1204 1.363 . S
C1206 C1207 1.370 . S
C1206 C1210 1.524 . S
C1207 C1199 1.503 . S
C1207 C1206 1.370 . S
C1207 C1208 1.403 1_455 S
C1208 C1207 1.403 1_655 S
C1208 C1209 1.404 . S
C1208 C1211 1.539 . S
C1209 C1205 1.408 1_655 S
C1209 C1208 1.404 . S
C1209 H1221 0.930 . S
C1210 C1206 1.524 . S
C1210 H1222 0.956 . S
C1210 H1223 0.961 . S
C1210 H1224 0.961 . S
C1211 C1208 1.539 . S
C1211 H1225 0.958 . S
C1211 H1226 0.961 . S
C1211 H1227 0.960 . S
H1212 C1196 0.931 . S
H1213 C1201 0.929 . S
H1214 C1202 0.960 . S
H1215 C1202 0.962 . S
H1216 C1202 0.960 . S
H1217 C1203 0.961 . S
H1218 C1203 0.961 . S
H1219 C1203 0.961 1_655 S
H1220 C1204 0.931 . S
H1221 C1209 0.930 . S
H1222 C1210 0.956 . S
H1223 C1210 0.961 . S
H1224 C1210 0.961 . S
H1225 C1211 0.958 . S
H1226 C1211 0.961 . S
H1227 C1211 0.960 . S
C1228 C1229 1.391 . S
C1228 C1230 1.394 . S
C1228 H1244 0.931 . S
C1229 C1228 1.391 . S
C1229 C1233 1.376 . S
C1230 C1228 1.394 . S
C1230 C1231 1.369 . S
C1230 C1234 1.531 . S
C1231 C1230 1.369 . S
C1231 C1232 1.410 . S
C1231 C1239 1.503 . S
C1232 C1231 1.410 . S
C1232 C1233 1.392 . S
C1232 C1235 1.511 . S
C1233 C1229 1.376 . S
C1233 C1232 1.392 . S
C1233 H1245 0.929 1_545 S
C1234 C1230 1.531 . S
C1234 H1246 0.960 . S
C1234 H1247 0.962 . S
C1234 H1248 0.960 . S
C1235 C1232 1.511 . S
C1235 H1249 0.961 1_545 S
C1235 H1250 0.961 . S
C1235 H1251 0.961 . S
C1236 C1237 1.370 . S
C1236 C1238 1.363 . S
C1236 H1252 0.931 . S
C1237 C1236 1.370 . S
C1237 C1241 1.408 . S
C1238 C1236 1.363 . S
C1238 C1239 1.370 . S
C1238 C1242 1.524 . S
C1239 C1231 1.503 . S
C1239 C1238 1.370 . S
C1239 C1240 1.403 . S
C1240 C1239 1.403 . S
C1240 C1241 1.404 . S
C1240 C1243 1.539 . S
C1241 C1237 1.408 . S
C1241 C1240 1.404 . S
C1241 H1253 0.930 . S
C1242 C1238 1.524 . S
C1242 H1254 0.956 . S
C1242 H1255 0.961 1_545 S
C1242 H1256 0.961 1_545 S
C1243 C1240 1.539 . S
C1243 H1257 0.958 . S
C1243 H1258 0.961 . S
C1243 H1259 0.960 . S
H1244 C1228 0.931 . S
H1245 C1233 0.929 1_565 S
H1246 C1234 0.960 . S
H1247 C1234 0.962 . S
H1248 C1234 0.960 . S
H1249 C1235 0.961 1_565 S
H1250 C1235 0.961 . S
H1251 C1235 0.961 . S
H1252 C1236 0.931 . S
H1253 C1241 0.930 . S
H1254 C1242 0.956 . S
H1255 C1242 0.961 1_565 S
H1256 C1242 0.961 1_565 S
H1257 C1243 0.958 . S
H1258 C1243 0.961 . S
H1259 C1243 0.960 . S
C1260 C1261 1.391 . S
C1260 C1262 1.394 . S
C1260 H1276 0.931 . S
C1261 C1260 1.391 . S
C1261 C1265 1.376 . S
C1262 C1260 1.394 . S
C1262 C1263 1.369 . S
C1262 C1266 1.531 . S
C1263 C1262 1.369 . S
C1263 C1264 1.410 . S
C1263 C1271 1.503 . S
C1264 C1263 1.410 . S
C1264 C1265 1.392 . S
C1264 C1267 1.511 . S
C1265 C1261 1.376 . S
C1265 C1264 1.392 . S
C1265 H1277 0.929 . S
C1266 C1262 1.531 . S
C1266 H1278 0.960 . S
C1266 H1279 0.962 . S
C1266 H1280 0.960 . S
C1267 C1264 1.511 . S
C1267 H1281 0.961 . S
C1267 H1282 0.961 . S
C1267 H1283 0.961 . S
C1268 C1269 1.370 . S
C1268 C1270 1.363 . S
C1268 H1284 0.931 . S
C1269 C1268 1.370 . S
C1269 C1273 1.408 . S
C1270 C1268 1.363 . S
C1270 C1271 1.370 . S
C1270 C1274 1.524 . S
C1271 C1263 1.503 . S
C1271 C1270 1.370 . S
C1271 C1272 1.403 . S
C1272 C1271 1.403 . S
C1272 C1273 1.404 . S
C1272 C1275 1.539 . S
C1273 C1269 1.408 . S
C1273 C1272 1.404 . S
C1273 H1285 0.930 . S
C1274 C1270 1.524 . S
C1274 H1286 0.956 . S
C1274 H1287 0.961 . S
C1274 H1288 0.961 . S
C1275 C1272 1.539 . S
C1275 H1289 0.958 . S
C1275 H1290 0.961 . S
C1275 H1291 0.960 . S
H1276 C1260 0.931 . S
H1277 C1265 0.929 . S
H1278 C1266 0.960 . S
H1279 C1266 0.962 . S
H1280 C1266 0.960 . S
H1281 C1267 0.961 . S
H1282 C1267 0.961 . S
H1283 C1267 0.961 . S
H1284 C1268 0.931 . S
H1285 C1273 0.930 . S
H1286 C1274 0.956 . S
H1287 C1274 0.961 . S
H1288 C1274 0.961 . S
H1289 C1275 0.958 . S
H1290 C1275 0.961 . S
H1291 C1275 0.960 . S
C1292 C1293 1.391 1_455 S
C1292 C1294 1.394 1_455 S
C1292 H1308 0.931 . S
C1293 C1292 1.391 1_655 S
C1293 C1297 1.376 . S
C1294 C1292 1.394 1_655 S
C1294 C1295 1.369 . S
C1294 C1298 1.531 1_655 S
C1295 C1294 1.369 . S
C1295 C1296 1.410 . S
C1295 C1303 1.503 . S
C1296 C1295 1.410 . S
C1296 C1297 1.392 . S
C1296 C1299 1.511 . S
C1297 C1293 1.376 . S
C1297 C1296 1.392 . S
C1297 H1309 0.929 . S
C1298 C1294 1.531 1_455 S
C1298 H1310 0.960 . S
C1298 H1311 0.962 . S
C1298 H1312 0.960 . S
C1299 C1296 1.511 . S
C1299 H1313 0.961 . S
C1299 H1314 0.961 . S
C1299 H1315 0.961 . S
C1300 C1301 1.370 . S
C1300 C1302 1.363 . S
C1300 H1316 0.931 . S
C1301 C1300 1.370 . S
C1301 C1305 1.408 . S
C1302 C1300 1.363 . S
C1302 C1303 1.370 . S
C1302 C1306 1.524 . S
C1303 C1295 1.503 . S
C1303 C1302 1.370 . S
C1303 C1304 1.403 . S
C1304 C1303 1.403 . S
C1304 C1305 1.404 . S
C1304 C1307 1.539 . S
C1305 C1301 1.408 . S
C1305 C1304 1.404 . S
C1305 H1317 0.930 . S
C1306 C1302 1.524 . S
C1306 H1318 0.956 . S
C1306 H1319 0.961 . S
C1306 H1320 0.961 . S
C1307 C1304 1.539 . S
C1307 H1321 0.958 . S
C1307 H1322 0.961 . S
C1307 H1323 0.960 . S
H1308 C1292 0.931 . S
H1309 C1297 0.929 . S
H1310 C1298 0.960 . S
H1311 C1298 0.962 . S
H1312 C1298 0.960 . S
H1313 C1299 0.961 . S
H1314 C1299 0.961 . S
H1315 C1299 0.961 . S
H1316 C1300 0.931 . S
H1317 C1305 0.930 . S
H1318 C1306 0.956 . S
H1319 C1306 0.961 . S
H1320 C1306 0.961 . S
H1321 C1307 0.958 . S
H1322 C1307 0.961 . S
H1323 C1307 0.960 . S
C1324 C1325 1.391 . S
C1324 C1326 1.394 . S
C1324 H1340 0.931 . S
C1325 C1324 1.391 . S
C1325 C1329 1.376 . S
C1326 C1324 1.394 . S
C1326 C1327 1.369 . S
C1326 C1330 1.531 . S
C1327 C1326 1.369 . S
C1327 C1328 1.410 . S
C1327 C1335 1.503 . S
C1328 C1327 1.410 . S
C1328 C1329 1.392 . S
C1328 C1331 1.511 . S
C1329 C1325 1.376 . S
C1329 C1328 1.392 . S
C1329 H1341 0.929 . S
C1330 C1326 1.531 . S
C1330 H1342 0.960 . S
C1330 H1343 0.962 . S
C1330 H1344 0.953 1_565 S
C1331 C1328 1.511 . S
C1331 H1345 0.961 . S
C1331 H1346 0.961 . S
C1331 H1347 0.961 . S
C1332 C1333 1.370 . S
C1332 C1334 1.363 . S
C1332 H1348 0.931 . S
C1333 C1332 1.370 . S
C1333 C1337 1.408 . S
C1334 C1332 1.363 . S
C1334 C1335 1.370 . S
C1334 C1338 1.524 . S
C1335 C1327 1.503 . S
C1335 C1334 1.370 . S
C1335 C1336 1.403 . S
C1336 C1335 1.403 . S
C1336 C1337 1.404 . S
C1336 C1339 1.539 1_565 S
C1337 C1333 1.408 . S
C1337 C1336 1.404 . S
C1337 H1349 0.930 . S
C1338 C1334 1.524 . S
C1338 H1350 0.956 . S
C1338 H1351 0.961 . S
C1338 H1352 0.961 . S
C1339 C1336 1.539 1_545 S
C1339 H1353 0.958 . S
C1339 H1354 0.961 . S
C1339 H1355 0.960 . S
H1340 C1324 0.931 . S
H1341 C1329 0.929 . S
H1342 C1330 0.960 . S
H1343 C1330 0.962 . S
H1344 C1330 0.953 1_545 S
H1345 C1331 0.961 . S
H1346 C1331 0.961 . S
H1347 C1331 0.961 . S
H1348 C1332 0.931 . S
H1349 C1337 0.930 . S
H1350 C1338 0.956 . S
H1351 C1338 0.961 . S
H1352 C1338 0.961 . S
H1353 C1339 0.958 . S
H1354 C1339 0.961 . S
H1355 C1339 0.960 . S
C397 C18 1.837 . S
C405 C370 1.777 . S
C429 C51 1.833 . S
C437 C205 1.792 . S
C461 C238 1.777 . S
C469 C84 1.848 . S
C493 C271 1.758 . S
C501 C117 1.845 . S
C525 C150 1.841 . S
C533 C304 1.787 1_554 S
C557 C183 1.839 . S
C565 C337 1.775 . S
C589 C40 1.760 . S
C597 C216 1.850 . S
C621 C249 1.844 . S
C629 C73 1.770 . S
C653 C106 1.754 . S
C661 C282 1.846 . S
C685 C315 1.830 . S
C693 C139 1.786 1_556 S
C717 C348 1.838 . S
C725 C172 1.789 . S
C749 C7 1.763 . S
C757 C381 1.850 . S
C781 N200 0.448 . S
C789 N2 0.404 . S
C813 N35 0.332 . S
C821 N233 0.355 . S
C845 N68 0.472 . S
C853 N266 0.416 . S
C877 N101 0.290 . S
C885 N299 0.339 . S
C909 N332 0.451 . S
C917 N134 0.405 . S
C941 N365 0.443 . S
C949 N167 0.401 . S
C973 C186 1.032 . S
C981 N13 1.118 . S
C1005 C21 1.090 . S
C1013 N46 1.090 . S
C1037 N79 1.068 . S
C1045 C54 1.101 . S
C1069 N112 1.132 . S
C1077 C87 1.102 . S
C1101 N145 1.096 . S
C1109 C120 1.065 . S
C1133 N178 1.070 . S
C1141 C153 1.102 . S
C1165 N211 1.111 . S
C1173 C252 1.063 . S
C1197 C285 1.136 . S
C1205 N244 1.101 . S
C1229 N277 1.143 . S
C1237 C318 1.070 . S
C1261 N310 1.085 . S
C1269 C351 1.068 . S
C1293 N343 1.064 . S
C1301 C384 1.082 . S
C1325 N376 1.082 . S
C1333 C219 1.106 . S
