# Generated by pormake.
# Topology wme, (6)-cn, num edge types: 1
# Building blocks:
#     Node 0, Type 0, BuildingBlock: VOLQOD_clean_sbu_1, # of connection points: 6
#     Node 1, Type 0, BuildingBlock: VOLQOD_clean_sbu_1, # of connection points: 6
#     Node 2, Type 0, BuildingBlock: VOLQOD_clean_sbu_1, # of connection points: 6
#     Node 3, Type 0, BuildingBlock: VOLQOD_clean_sbu_1, # of connection points: 6
#     Node 4, Type 0, BuildingBlock: VOLQOD_clean_sbu_1, # of connection points: 6
#     Node 5, Type 0, BuildingBlock: VOLQOD_clean_sbu_1, # of connection points: 6
#     Node 6, Type 0, BuildingBlock: VOLQOD_clean_sbu_1, # of connection points: 6
#     Node 7, Type 0, BuildingBlock: VOLQOD_clean_sbu_1, # of connection points: 6
#     Node 8, Type 0, BuildingBlock: VOLQOD_clean_sbu_1, # of connection points: 6
#     Node 9, Type 0, BuildingBlock: VOLQOD_clean_sbu_1, # of connection points: 6
#     Node 10, Type 0, BuildingBlock: VOLQOD_clean_sbu_1, # of connection points: 6
#     Node 11, Type 0, BuildingBlock: VOLQOD_clean_sbu_1, # of connection points: 6
#     Edge 12, Type (0, 0), BuildingBlock: XUDNAN_clean_linker_2, # of connection points: 2
#     Edge 13, Type (0, 0), BuildingBlock: XUDNAN_clean_linker_2, # of connection points: 2
#     Edge 14, Type (0, 0), BuildingBlock: XUDNAN_clean_linker_2, # of connection points: 2
#     Edge 15, Type (0, 0), BuildingBlock: XUDNAN_clean_linker_2, # of connection points: 2
#     Edge 16, Type (0, 0), BuildingBlock: XUDNAN_clean_linker_2, # of connection points: 2
#     Edge 17, Type (0, 0), BuildingBlock: XUDNAN_clean_linker_2, # of connection points: 2
#     Edge 18, Type (0, 0), BuildingBlock: XUDNAN_clean_linker_2, # of connection points: 2
#     Edge 19, Type (0, 0), BuildingBlock: XUDNAN_clean_linker_2, # of connection points: 2
#     Edge 20, Type (0, 0), BuildingBlock: XUDNAN_clean_linker_2, # of connection points: 2
#     Edge 21, Type (0, 0), BuildingBlock: XUDNAN_clean_linker_2, # of connection points: 2
#     Edge 22, Type (0, 0), BuildingBlock: XUDNAN_clean_linker_2, # of connection points: 2
#     Edge 23, Type (0, 0), BuildingBlock: XUDNAN_clean_linker_2, # of connection points: 2
#     Edge 24, Type (0, 0), BuildingBlock: XUDNAN_clean_linker_2, # of connection points: 2
#     Edge 25, Type (0, 0), BuildingBlock: XUDNAN_clean_linker_2, # of connection points: 2
#     Edge 26, Type (0, 0), BuildingBlock: XUDNAN_clean_linker_2, # of connection points: 2
#     Edge 27, Type (0, 0), BuildingBlock: XUDNAN_clean_linker_2, # of connection points: 2
#     Edge 28, Type (0, 0), BuildingBlock: XUDNAN_clean_linker_2, # of connection points: 2
#     Edge 29, Type (0, 0), BuildingBlock: XUDNAN_clean_linker_2, # of connection points: 2
#     Edge 30, Type (0, 0), BuildingBlock: XUDNAN_clean_linker_2, # of connection points: 2
#     Edge 31, Type (0, 0), BuildingBlock: XUDNAN_clean_linker_2, # of connection points: 2
#     Edge 32, Type (0, 0), BuildingBlock: XUDNAN_clean_linker_2, # of connection points: 2
#     Edge 33, Type (0, 0), BuildingBlock: XUDNAN_clean_linker_2, # of connection points: 2
#     Edge 34, Type (0, 0), BuildingBlock: XUDNAN_clean_linker_2, # of connection points: 2
#     Edge 35, Type (0, 0), BuildingBlock: XUDNAN_clean_linker_2, # of connection points: 2
#     Edge 36, Type (0, 0), BuildingBlock: XUDNAN_clean_linker_2, # of connection points: 2
#     Edge 37, Type (0, 0), BuildingBlock: XUDNAN_clean_linker_2, # of connection points: 2
#     Edge 38, Type (0, 0), BuildingBlock: XUDNAN_clean_linker_2, # of connection points: 2
#     Edge 39, Type (0, 0), BuildingBlock: XUDNAN_clean_linker_2, # of connection points: 2
#     Edge 40, Type (0, 0), BuildingBlock: XUDNAN_clean_linker_2, # of connection points: 2
#     Edge 41, Type (0, 0), BuildingBlock: XUDNAN_clean_linker_2, # of connection points: 2
#     Edge 42, Type (0, 0), BuildingBlock: XUDNAN_clean_linker_2, # of connection points: 2
#     Edge 43, Type (0, 0), BuildingBlock: XUDNAN_clean_linker_2, # of connection points: 2
#     Edge 44, Type (0, 0), BuildingBlock: XUDNAN_clean_linker_2, # of connection points: 2
#     Edge 45, Type (0, 0), BuildingBlock: XUDNAN_clean_linker_2, # of connection points: 2
#     Edge 46, Type (0, 0), BuildingBlock: XUDNAN_clean_linker_2, # of connection points: 2
#     Edge 47, Type (0, 0), BuildingBlock: XUDNAN_clean_linker_2, # of connection points: 2
# Relax obj value: 0.331
# Max RMSD: 0.236
# Mean RMSD: 0.236
data_MOF--net-wme--node1-VOLQOD_clean_sbu_1--edge1-XUDNAN_clean_linker_2
_symmetry_space_group_name_H-M    P1
_symmetry_Int_Tables_number       1
_symmetry_cell_setting            triclinic
loop_
_symmetry_equiv_pos_as_xyz
'x, y, z'
_cell_length_a     31.213531
_cell_length_b     31.118588
_cell_length_c     64.519509
_cell_angle_alpha  89.849836
_cell_angle_beta   90.008624
_cell_angle_gamma 119.93083
loop_
_atom_site_label
_atom_site_type_symbol
_atom_site_fract_x
_atom_site_fract_y
_atom_site_fract_z
_atom_type_partial_charge
O0 O 0.15232 0.37826 0.09482 0.0
Zn1 Zn 0.1602 0.31799 0.09587 0.0
O2 O 0.20833 0.32411 0.11608 0.0
Zn3 Zn 0.26823 0.33714 0.10184 0.0
Zn4 Zn 0.2177 0.37482 0.13522 0.0
Zn5 Zn 0.18307 0.26378 0.13175 0.0
O6 O 0.28456 0.28302 0.10818 0.0
O7 O 0.21464 0.22503 0.12288 0.0
O8 O 0.17619 0.30106 0.06817 0.0
O9 O 0.25742 0.33165 0.07087 0.0
O10 O 0.32462 0.40403 0.11036 0.0
O11 O 0.28924 0.42485 0.13552 0.0
O12 O 0.1969 0.34819 0.16415 0.0
O13 O 0.09386 0.26592 0.10509 0.0
O14 O 0.19312 0.27535 0.1622 0.0
O15 O 0.10972 0.22636 0.12992 0.0
C16 C 0.15665 0.40686 0.10976 0.0
C17 C 0.25707 0.23919 0.11507 0.0
C18 C 0.32686 0.43292 0.12484 0.0
C19 C 0.21769 0.31168 0.06025 0.0
C20 C 0.19167 0.309 0.17277 0.0
C21 C 0.07942 0.23316 0.11922 0.0
O22 O 0.17865 0.40729 0.12646 0.0
O23 O 0.78734 0.16195 0.59835 0.0
Zn24 Zn 0.85756 0.17831 0.59519 0.0
O25 O 0.8974 0.21629 0.61895 0.0
Zn26 Zn 0.95399 0.2777 0.60905 0.0
Zn27 Zn 0.85714 0.22911 0.63797 0.0
Zn28 Zn 0.92 0.17857 0.63404 0.0
O29 O 0.01933 0.28376 0.61747 0.0
O30 O -0.00798 0.20829 0.63064 0.0
O31 O 0.88554 0.21348 0.56789 0.0
O32 O 0.95634 0.2784 0.57804 0.0
O33 O 0.94482 0.33589 0.61632 0.0
O34 O 0.87403 0.29922 0.634 0.0
O35 O 0.86335 0.21416 0.66815 0.0
O36 O 0.8485 0.10973 0.59509 0.0
O37 O 0.90536 0.1748 0.66419 0.0
O38 O 0.88515 0.10878 0.6244 0.0
C39 C 0.76356 0.16265 0.61423 0.0
C40 C 0.02719 0.25025 0.62484 0.0
C41 C 0.90921 0.33743 0.62535 0.0
C42 C 0.92664 0.25225 0.56382 0.0
C43 C 0.88276 0.19004 0.67573 0.0
C44 C 0.85851 0.08656 0.60877 0.0
O45 O 0.78573 0.18531 0.63069 0.0
O46 O 0.59246 0.79739 0.11204 0.0
Zn47 Zn 0.64636 0.86632 0.10466 0.0
O48 O 0.66293 0.9125 0.12749 0.0
Zn49 Zn 0.6523 0.9662 0.11862 0.0
Zn50 Zn 0.62228 0.87969 0.15098 0.0
Zn51 Zn 0.73004 0.93772 0.13634 0.0
O52 O 0.7064 0.03199 0.12874 0.0
O53 O 0.76043 0.01009 0.13984 0.0
O54 O 0.63172 0.89255 0.07861 0.0
O55 O 0.65147 0.96935 0.08739 0.0
O56 O 0.58759 0.9547 0.13014 0.0
O57 O 0.5756 0.90386 0.15658 0.0
O58 O 0.66004 0.8833 0.17626 0.0
O59 O 0.70523 0.86009 0.09766 0.0
O60 O 0.73601 0.91152 0.16433 0.0
O61 O 0.7668 0.92091 0.11542 0.0
C62 C 0.57304 0.77991 0.12964 0.0
C63 C 0.74737 0.04239 0.13704 0.0
C64 C 0.56352 0.93096 0.1462 0.0
C65 C 0.63997 0.93579 0.07378 0.0
C66 C 0.70434 0.89309 0.17887 0.0
C67 C 0.75087 0.88651 0.10195 0.0
O68 O 0.5824 0.80775 0.14533 0.0
O69 O 0.77072 0.58138 0.59328 0.0
Zn70 Zn 0.76229 0.64114 0.59759 0.0
O71 O 0.72435 0.63428 0.62302 0.0
Zn72 Zn 0.66649 0.64025 0.61702 0.0
Zn73 Zn 0.70298 0.571 0.63548 0.0
Zn74 Zn 0.76474 0.68379 0.64306 0.0
O75 O 0.66957 0.69972 0.63068 0.0
O76 O 0.74521 0.73547 0.64397 0.0
O77 O 0.73172 0.65557 0.57232 0.0
O78 O 0.66787 0.65599 0.58735 0.0
O79 O 0.60196 0.57612 0.62098 0.0
O80 O 0.6314 0.52798 0.63173 0.0
O81 O 0.7178 0.57439 0.66563 0.0
O82 O 0.83323 0.69487 0.60142 0.0
O83 O 0.76147 0.6552 0.67135 0.0
O84 O 0.83533 0.71686 0.63432 0.0
C85 C 0.76205 0.54608 0.60573 0.0
C86 C 0.70642 0.73681 0.63903 0.0
C87 C 0.59551 0.53396 0.62644 0.0
C88 C 0.69386 0.66111 0.57142 0.0
C89 C 0.74204 0.61063 0.67777 0.0
C90 C 0.85708 0.7191 0.61735 0.0
O91 O 0.73773 0.53962 0.62236 0.0
O92 O 0.20518 0.79823 0.11204 0.0
Zn93 Zn 0.14983 0.80592 0.10077 0.0
O94 O 0.09327 0.77438 0.11952 0.0
Zn95 Zn 0.03543 0.72532 0.10485 0.0
Zn96 Zn 0.10645 0.74385 0.14243 0.0
Zn97 Zn 0.08152 0.82406 0.13068 0.0
O98 O 0.98028 0.74194 0.10525 0.0
O99 O 0.0263 0.82109 0.1147 0.0
O100 O 0.13228 0.78184 0.07131 0.0
O101 O 0.05171 0.73038 0.07482 0.0
O102 O 0.01885 0.65546 0.11287 0.0
O103 O 0.07519 0.67143 0.13725 0.0
O104 O 0.08529 0.75851 0.16965 0.0
O105 O 0.17955 0.88015 0.10034 0.0
O106 O 0.06603 0.81584 0.16113 0.0
O107 O 0.14075 0.89121 0.12689 0.0
C108 C 0.2133 0.78996 0.13058 0.0
C109 C 0.9876 0.78605 0.10646 0.0
C110 C 0.04106 0.64106 0.12529 0.0
C111 C 0.09008 0.75262 0.06352 0.0
C112 C 0.07085 0.7888 0.17468 0.0
C113 C 0.17476 0.90816 0.11329 0.0
O114 O 0.17914 0.77182 0.14414 0.0
O115 O 0.36854 0.15885 0.59239 0.0
Zn116 Zn 0.312 0.08898 0.59491 0.0
O117 O 0.31578 0.0573 0.62077 0.0
Zn118 Zn 0.31158 -0.00581 0.61474 0.0
Zn119 Zn 0.37707 0.09929 0.63422 0.0
Zn120 Zn 0.26408 0.04863 0.63982 0.0
O121 O 0.24738 0.93791 0.62556 0.0
O122 O 0.21203 0.97694 0.64045 0.0
O123 O 0.30865 0.04916 0.56957 0.0
O124 O 0.30789 0.98406 0.58414 0.0
O125 O 0.37336 0.9925 0.62339 0.0
O126 O 0.42103 0.07109 0.63287 0.0
O127 O 0.36913 0.11112 0.66372 0.0
O128 O 0.2552 0.10199 0.59581 0.0
O129 O 0.28845 0.07548 0.66875 0.0
O130 O 0.23393 0.08754 0.62904 0.0
C131 C 0.40221 0.18506 0.60534 0.0
C132 C 0.21047 0.93721 0.63441 0.0
C133 C 0.4149 0.02825 0.62929 0.0
C134 C 0.30716 0.00758 0.56813 0.0
C135 C 0.33258 0.10091 0.67541 0.0
C136 C 0.23178 0.10483 0.61142 0.0
O137 O 0.40875 0.16604 0.62162 0.0
O138 O 0.56318 0.78863 0.38363 0.0
Zn139 Zn 0.62187 0.78705 0.39548 0.0
O140 O 0.64905 0.75902 0.37575 0.0
Zn141 Zn 0.64912 0.70163 0.38776 0.0
Zn142 Zn 0.61013 0.73992 0.35114 0.0
Zn143 Zn 0.71453 0.80766 0.36761 0.0
O144 O 0.71696 0.70721 0.38647 0.0
O145 O 0.76017 0.78742 0.37866 0.0
O146 O 0.61023 0.75421 0.4237 0.0
O147 O 0.63716 0.70135 0.41794 0.0
O148 O 0.59195 0.63787 0.37659 0.0
O149 O 0.56508 0.66733 0.35131 0.0
O150 O 0.65054 0.76015 0.32527 0.0
O151 O 0.66946 0.85945 0.39994 0.0
O152 O 0.7246 0.81591 0.33663 0.0
O153 O 0.73287 0.8729 0.3799 0.0
C154 C 0.55248 0.78894 0.36458 0.0
C155 C 0.7581 0.74758 0.38475 0.0
C156 C 0.56174 0.63139 0.36201 0.0
C157 C 0.62139 0.72228 0.43019 0.0
C158 C 0.69533 0.79269 0.32179 0.0
C159 C 0.71203 0.88819 0.39244 0.0
O160 O 0.5702 0.77372 0.35051 0.0
O161 O 0.81618 0.61383 0.90116 0.0
Zn162 Zn 0.88344 0.67274 0.89475 0.0
O163 O 0.91193 0.66124 0.86983 0.0
Zn164 Zn 0.97993 0.67752 0.87418 0.0
Zn165 Zn 0.87328 0.59371 0.86138 0.0
Zn166 Zn 0.90818 0.69988 0.84784 0.0
O167 O 0.02701 0.73662 0.85657 0.0
O168 O 0.97453 0.75606 0.84167 0.0
O169 O 0.93043 0.69055 0.91895 0.0
O170 O -0.00194 0.69911 0.90355 0.0
O171 O 0.98729 0.61613 0.8718 0.0
O172 O 0.90739 0.55835 0.87068 0.0
O173 O 0.86027 0.58453 0.83049 0.0
O174 O 0.86589 0.7261 0.88973 0.0
O175 O 0.88343 0.662 0.82201 0.0
O176 O 0.86252 0.72448 0.85531 0.0
C177 C 0.78991 0.5752 0.89039 0.0
C178 C 0.01829 0.76505 0.84522 0.0
C179 C 0.95263 0.57106 0.87305 0.0
C180 C 0.97558 0.70133 0.9196 0.0
C181 C 0.8658 0.6169 0.81705 0.0
C182 C 0.85212 0.73613 0.87269 0.0
O183 O 0.80779 0.56469 0.87478 0.0
O184 O 0.18695 0.78502 0.3778 0.0
Zn185 Zn 0.19781 0.849 0.38947 0.0
O186 O 0.22559 0.90235 0.36896 0.0
Zn187 Zn 0.2856 0.95763 0.38028 0.0
Zn188 Zn 0.24088 0.87896 0.34408 0.0
Zn189 Zn 0.17827 0.92216 0.36122 0.0
O190 O 0.28529 0.02212 0.37731 0.0
O191 O 0.20884 -0.00538 0.36557 0.0
O192 O 0.23663 0.86762 0.41604 0.0
O193 O 0.28914 0.94775 0.41078 0.0
O194 O 0.34581 0.96008 0.36729 0.0
O195 O 0.31302 0.90661 0.34126 0.0
O196 O 0.21303 0.89108 0.31858 0.0
O197 O 0.12945 0.83289 0.39708 0.0
O198 O 0.15643 0.90695 0.33122 0.0
O199 O 0.11737 0.88637 0.37868 0.0
C200 C 0.18908 0.77298 0.35917 0.0
C201 C 0.25055 0.02971 0.37158 0.0
C202 C 0.35027 0.93758 0.35166 0.0
C203 C 0.26957 0.90992 0.42261 0.0
C204 C 0.17597 0.89702 0.31601 0.0
C205 C 0.10259 0.85106 0.39176 0.0
O206 O 0.20817 0.80541 0.34493 0.0
O207 O 0.36157 0.17365 0.88791 0.0
Zn208 Zn 0.3056 0.188 0.88525 0.0
O209 O 0.32291 0.24466 0.86705 0.0
Zn210 Zn 0.32854 0.2993 0.8838 0.0
Zn211 Zn 0.38494 0.26459 0.85386 0.0
Zn212 Zn 0.2736 0.22661 0.84527 0.0
O213 O 0.27418 0.31323 0.87628 0.0
O214 O 0.23454 0.26072 0.85042 0.0
O215 O 0.28425 0.19753 0.91354 0.0
O216 O 0.31461 0.27909 0.91348 0.0
O217 O 0.39679 0.36022 0.88282 0.0
O218 O 0.43402 0.33317 0.86159 0.0
O219 O 0.37948 0.25876 0.82312 0.0
O220 O 0.25166 0.12671 0.87259 0.0
O221 O 0.3024 0.23971 0.8164 0.0
O222 O 0.22818 0.15272 0.84511 0.0
C223 C 0.40054 0.18902 0.87702 0.0
C224 C 0.23915 0.29407 0.86313 0.0
C225 C 0.43513 0.36675 0.87312 0.0
C226 C 0.29394 0.23748 0.92278 0.0
C227 C 0.34505 0.24935 0.81027 0.0
C228 C 0.22481 0.11785 0.85659 0.0
O229 O 0.41215 0.2223 0.86325 0.0
O230 O 0.1931 0.41184 0.38619 0.0
Zn231 Zn 0.12619 0.35233 0.39351 0.0
O232 O 0.07884 0.33636 0.37035 0.0
Zn233 Zn 0.02061 0.33903 0.37903 0.0
Zn234 Zn 0.10926 0.38068 0.34762 0.0
Zn235 Zn 0.05862 0.27163 0.3598 0.0
O236 O 0.95791 0.27204 0.37729 0.0
O237 O -0.00858 0.22559 0.36968 0.0
O238 O 0.09639 0.35899 0.42086 0.0
O239 O 0.0266 0.35291 0.40915 0.0
O240 O 0.01548 0.39424 0.36481 0.0
O241 O 0.08131 0.42469 0.34415 0.0
O242 O 0.10189 0.34696 0.32069 0.0
O243 O 0.14518 0.29912 0.39664 0.0
O244 O 0.0621 0.26734 0.32879 0.0
O245 O 0.10333 0.24958 0.37059 0.0
C246 C 0.2097 0.42991 0.36824 0.0
C247 C 0.95474 0.2298 0.37542 0.0
C248 C 0.04375 0.4254 0.35128 0.0
C249 C 0.05572 0.35854 0.424 0.0
C250 C 0.08241 0.30181 0.31542 0.0
C251 C 0.13491 0.2622 0.38505 0.0
O252 O 0.18107 0.41952 0.35275 0.0
O253 O 0.81078 0.20594 0.90095 0.0
Zn254 Zn 0.80288 0.1374 0.90286 0.0
O255 O 0.7685 0.09938 0.87804 0.0
Zn256 Zn 0.70742 0.04137 0.8842 0.0
Zn257 Zn 0.75864 0.14002 0.85884 0.0
Zn258 Zn 0.80789 0.07806 0.86461 0.0
O259 O 0.70596 0.97885 0.87431 0.0
O260 O 0.78755 0.00982 0.87377 0.0
O261 O 0.76706 0.09934 0.92947 0.0
O262 O 0.7027 0.0349 0.91475 0.0
O263 O 0.65031 0.04973 0.87523 0.0
O264 O 0.68902 0.12594 0.86182 0.0
O265 O 0.77218 0.12959 0.82916 0.0
O266 O 0.8758 0.15721 0.90181 0.0
O267 O 0.80281 0.0796 0.83376 0.0
O268 O 0.87722 0.12639 0.87095 0.0
C269 C 0.82219 0.23054 0.88401 0.0
C270 C 0.74369 0.97314 0.87454 0.0
C271 C 0.6496 0.08749 0.86791 0.0
C272 C 0.72653 0.05796 0.93085 0.0
C273 C 0.78979 0.10365 0.82183 0.0
C274 C 0.89937 0.15461 0.88617 0.0
O275 O 0.80739 0.20939 0.86652 0.0
H276 H 0.18566 0.97334 0.08303 0.0
H277 H 0.23835 0.96198 0.14366 0.0
H278 H 0.28629 0.05334 0.14615 0.0
H279 H 0.29847 0.09842 0.06684 0.0
H280 H 0.25835 0.11749 0.05493 0.0
H281 H 0.24163 0.053 0.05482 0.0
H282 H 0.15778 0.02965 0.0721 0.0
H283 H 0.17417 0.09365 0.07221 0.0
H284 H 0.15741 0.05893 0.09613 0.0
H285 H 0.31166 0.14158 0.14584 0.0
H286 H 0.30751 0.21877 0.1438 0.0
H287 H 0.23651 0.17447 0.08397 0.0
C288 C 0.2093 0.99053 0.09631 0.0
C289 C 0.2096 0.96147 0.11297 0.0
C290 C 0.23868 0.98426 0.13066 0.0
C291 C 0.26621 0.03598 0.1321 0.0
C292 C 0.26385 0.06413 0.11575 0.0
C293 C 0.23613 0.0422 0.09813 0.0
C294 C 0.23165 0.0798 0.08475 0.0
C295 C 0.25918 0.08764 0.06411 0.0
C296 C 0.17704 0.0646 0.08112 0.0
C297 C 0.25773 0.12526 0.09835 0.0
C298 C 0.27778 0.11596 0.11577 0.0
C299 C 0.29772 0.14999 0.13196 0.0
C300 C 0.29534 0.19369 0.13072 0.0
C301 C 0.27302 0.20253 0.11348 0.0
C302 C 0.2555 0.16891 0.09685 0.0
H303 H 0.17565 0.11566 0.64102 0.0
H304 H 0.23421 0.16353 0.57894 0.0
H305 H 0.20123 0.22112 0.57869 0.0
H306 H 0.06414 0.1138 0.63318 0.0
H307 H 0.06216 0.13485 0.65898 0.0
H308 H 0.09435 0.10147 0.6543 0.0
H309 H 0.1734 0.17444 0.67044 0.0
H310 H 0.14158 0.2087 0.67448 0.0
H311 H 0.19825 0.23594 0.65977 0.0
H312 H 0.15712 0.26935 0.58451 0.0
H313 H 0.09395 0.29212 0.59337 0.0
H314 H 0.06716 0.214 0.65182 0.0
C315 C 0.18173 0.13826 0.62735 0.0
C316 C 0.20751 0.13507 0.61001 0.0
C317 C 0.21428 0.16511 0.59238 0.0
C318 C 0.19635 0.19847 0.59222 0.0
C319 C 0.17219 0.20153 0.60984 0.0
C320 C 0.16438 0.17169 0.62695 0.0
C321 C 0.1336 0.17854 0.64322 0.0
C322 C 0.08574 0.12927 0.64765 0.0
C323 C 0.16352 0.20073 0.66315 0.0
C324 C 0.12339 0.2154 0.63223 0.0
C325 C 0.14705 0.22938 0.61323 0.0
C326 C 0.1391 0.25941 0.59949 0.0
C327 C 0.10361 0.27269 0.60474 0.0
C328 C 0.07625 0.25502 0.62334 0.0
C329 C 0.08839 0.22863 0.6377 0.0
H330 H 0.79354 0.11376 0.10876 0.0
H331 H 0.78757 0.08075 0.17409 0.0
H332 H 0.87512 0.14382 0.17771 0.0
H333 H 0.88633 0.10793 0.09841 0.0
H334 H 0.91927 0.15778 0.08016 0.0
H335 H 0.85392 0.13155 0.08326 0.0
H336 H 0.86348 0.21664 0.09242 0.0
H337 H 0.92912 0.24444 0.0881 0.0
H338 H 0.90639 0.25413 0.1123 0.0
H339 H 0.96255 0.17843 0.17178 0.0
H340 H 0.04565 0.20372 0.15845 0.0
H341 H -0.00142 0.21545 0.09642 0.0
C342 C 0.80996 0.1233 0.12404 0.0
C343 C 0.78453 0.09353 0.1412 0.0
C344 C 0.80679 0.10431 0.16094 0.0
C345 C 0.85662 0.13981 0.16306 0.0
C346 C 0.88298 0.16408 0.14527 0.0
C347 C 0.86014 0.15806 0.12619 0.0
C348 C 0.89792 0.18013 0.10886 0.0
C349 C 0.88877 0.14203 0.0917 0.0
C350 C 0.89933 0.22662 0.0999 0.0
C351 C 0.94452 0.19363 0.12082 0.0
C352 C 0.93527 0.18511 0.14181 0.0
C353 C 0.9708 0.18739 0.15552 0.0
C354 C 0.01752 0.20056 0.14772 0.0
C355 C 0.02821 0.2113 0.1264 0.0
C356 C -0.00874 0.2078 0.11283 0.0
H357 H 0.77631 0.82254 0.65696 0.0
H358 H 0.64784 0.76266 0.61673 0.0
H359 H 0.67287 0.8471 0.60457 0.0
H360 H 0.78159 0.94376 0.66859 0.0
H361 H 0.8482 0.97597 0.66825 0.0
H362 H 0.8141 0.91232 0.67674 0.0
H363 H 0.86103 0.89025 0.64949 0.0
H364 H 0.89363 0.9532 0.64025 0.0
H365 H 0.85765 0.90338 0.6225 0.0
H366 H 0.71999 0.93557 0.59215 0.0
H367 H 0.77689 0.02469 0.58572 0.0
H368 H 0.87525 0.02507 0.63346 0.0
C369 C 0.75222 0.82728 0.64627 0.0
C370 C 0.71027 0.78597 0.63775 0.0
C371 C 0.67997 0.79374 0.62362 0.0
C372 C 0.69418 0.84157 0.61643 0.0
C373 C 0.73822 0.881 0.62379 0.0
C374 C 0.76598 0.87456 0.63888 0.0
C375 C 0.81357 0.92223 0.64314 0.0
C376 C 0.81439 0.93961 0.6655 0.0
C377 C 0.85912 0.9169 0.63857 0.0
C378 C 0.80898 0.9561 0.62763 0.0
C379 C 0.76534 0.93177 0.6166 0.0
C380 C 0.75391 0.95526 0.60093 0.0
C381 C 0.78684 0.00569 0.59717 0.0
C382 C 0.83054 0.03188 0.6091 0.0
C383 C 0.84217 0.00617 0.62408 0.0
H384 H 0.88605 0.73497 0.10651 0.0
H385 H 0.01453 0.86869 0.08423 0.0
H386 H 0.96149 0.90117 0.07232 0.0
H387 H 0.79421 0.73513 0.06551 0.0
H388 H 0.74603 0.71366 0.08479 0.0
H389 H 0.79132 0.69383 0.0858 0.0
H390 H 0.81281 0.72589 0.12352 0.0
H391 H 0.7681 0.746 0.12259 0.0
H392 H 0.8315 0.7897 0.12895 0.0
H393 H 0.90218 0.92934 0.07251 0.0
H394 H 0.83717 0.94851 0.08252 0.0
H395 H 0.74368 0.7966 0.10255 0.0
C396 C 0.90235 0.77 0.09828 0.0
C397 C 0.95399 0.79951 0.09629 0.0
C398 C 0.97482 0.84581 0.08599 0.0
C399 C 0.94499 0.86434 0.07896 0.0
C400 C 0.89432 0.8359 0.08219 0.0
C401 C 0.87281 0.78928 0.09127 0.0
C402 C 0.81873 0.77019 0.09595 0.0
C403 C 0.78562 0.72556 0.08218 0.0
C404 C 0.80718 0.75725 0.11912 0.0
C405 C 0.81475 0.81516 0.08992 0.0
C406 C 0.85849 0.85217 0.08152 0.0
C407 C 0.86696 0.90013 0.0782 0.0
C408 C 0.8302 0.91087 0.08404 0.0
C409 C 0.7856 0.87359 0.09276 0.0
C410 C 0.77705 0.82493 0.09512 0.0
H411 H 0.9193 0.79608 0.64216 0.0
H412 H 0.91753 0.70197 0.59224 0.0
H413 H 0.00841 0.74067 0.59465 0.0
H414 H 0.02917 0.90475 0.62566 0.0
H415 H 0.05019 0.92556 0.65168 0.0
H416 H 0.98512 0.88826 0.64648 0.0
H417 H 0.97887 0.82523 0.6744 0.0
H418 H 0.04429 0.86184 0.67931 0.0
H419 H 0.01742 0.79748 0.67229 0.0
H420 H 0.09914 0.78926 0.60268 0.0
H421 H 0.18411 0.85429 0.61111 0.0
H422 H 0.12624 0.91801 0.65512 0.0
C423 C 0.93807 0.78368 0.63171 0.0
C424 C 0.91153 0.74602 0.61705 0.0
C425 C 0.93732 0.73109 0.60348 0.0
C426 C 0.98878 0.75237 0.60492 0.0
C427 C 0.01372 0.78864 0.61989 0.0
C428 C 0.98933 0.80487 0.63276 0.0
C429 C 0.02502 0.84686 0.64648 0.0
C430 C 0.02222 0.89415 0.64231 0.0
C431 C 0.01584 0.83193 0.66948 0.0
C432 C 0.07347 0.85227 0.63911 0.0
C433 C 0.06609 0.81762 0.62411 0.0
C434 C 0.10542 0.81651 0.61445 0.0
C435 C 0.15361 0.85341 0.61948 0.0
C436 C 0.16185 0.89132 0.63376 0.0
C437 C 0.12119 0.8894 0.64424 0.0
H438 H 0.04606 0.89384 0.39628 0.0
H439 H 0.04263 0.75334 0.40175 0.0
H440 H 0.95163 0.71003 0.40542 0.0
H441 H 0.93721 0.86108 0.432 0.0
H442 H 0.91786 0.89555 0.41579 0.0
H443 H 0.98263 0.91545 0.41832 0.0
H444 H 0.98939 0.91295 0.37832 0.0
H445 H 0.92475 0.89221 0.37569 0.0
H446 H 0.94975 0.85611 0.36473 0.0
H447 H 0.86004 0.6813 0.40138 0.0
H448 H 0.778 0.67153 0.39277 0.0
H449 H 0.84485 0.83179 0.39077 0.0
C450 C 0.02626 0.85419 0.39902 0.0
C451 C 0.05098 0.82687 0.39877 0.0
C452 C 0.02414 0.77495 0.40216 0.0
C453 C 0.9725 0.75005 0.40421 0.0
C454 C 0.94878 0.7779 0.40331 0.0
C455 C 0.9751 0.82906 0.4013 0.0
C456 C 0.94138 0.85029 0.39861 0.0
C457 C 0.94498 0.88248 0.4173 0.0
C458 C 0.95195 0.87955 0.37812 0.0
C459 C 0.8922 0.803 0.39809 0.0
C460 C 0.89665 0.76148 0.40115 0.0
C461 C 0.85597 0.71363 0.39944 0.0
C462 C 0.80968 0.70836 0.39442 0.0
C463 C 0.80511 0.75081 0.39092 0.0
C464 C 0.8469 0.79841 0.39321 0.0
H465 H 0.09997 0.82616 0.86744 0.0
H466 H 0.02384 0.81492 0.80981 0.0
H467 H 0.07559 0.90522 0.80456 0.0
H468 H 0.09804 0.92543 0.88492 0.0
H469 H 0.15781 0.95631 0.89723 0.0
H470 H 0.1259 0.89018 0.89403 0.0
H471 H 0.20033 0.8954 0.87407 0.0
H472 H 0.23347 0.96162 0.87781 0.0
H473 H 0.22539 0.9364 0.85206 0.0
H474 H 0.12247 -0.00323 0.80913 0.0
H475 H 0.16864 0.08341 0.82129 0.0
H476 H 0.21149 0.03466 0.87674 0.0
C477 C 0.0963 0.84241 0.85316 0.0
C478 C 0.05869 0.81385 0.83885 0.0
C479 C 0.0531 0.83641 0.82077 0.0
C480 C 0.08217 0.88762 0.81771 0.0
C481 C 0.11659 0.91546 0.83287 0.0
C482 C 0.12454 0.89361 0.85006 0.0
C483 C 0.15874 0.93221 0.8654 0.0
C484 C 0.13359 0.92561 0.88663 0.0
C485 C 0.20738 0.93136 0.86745 0.0
C486 C 0.16678 0.97884 0.85462 0.0
C487 C 0.14279 0.96854 0.83576 0.0
C488 C 0.14231 0.00547 0.82367 0.0
C489 C 0.16814 0.05447 0.83082 0.0
C490 C 0.19365 0.06587 0.84998 0.0
C491 C 0.19252 0.02731 0.862 0.0
H492 H 0.13364 0.19643 0.35743 0.0
H493 H 0.20177 0.27009 0.41521 0.0
H494 H 0.25095 0.22726 0.41546 0.0
H495 H 0.11934 0.08177 0.36939 0.0
H496 H 0.13187 0.06997 0.34339 0.0
H497 H 0.10653 0.10986 0.34756 0.0
H498 H 0.17971 0.17973 0.32694 0.0
H499 H 0.20585 0.14016 0.32308 0.0
H500 H 0.24228 0.20009 0.33496 0.0
H501 H 0.28683 0.16955 0.41027 0.0
H502 H 0.29971 0.09904 0.40184 0.0
H503 H 0.20926 0.06873 0.34694 0.0
C504 C 0.15889 0.20393 0.37021 0.0
C505 C 0.16357 0.23631 0.38641 0.0
C506 C 0.19743 0.24514 0.40269 0.0
C507 C 0.22577 0.22137 0.40284 0.0
C508 C 0.22025 0.18982 0.38642 0.0
C509 C 0.18751 0.18131 0.37045 0.0
C510 C 0.18538 0.14374 0.35521 0.0
C511 C 0.13269 0.09869 0.35384 0.0
C512 C 0.20446 0.16737 0.33378 0.0
C513 C 0.22064 0.13059 0.36547 0.0
C514 C 0.24127 0.15797 0.38326 0.0
C515 C 0.27159 0.1486 0.39618 0.0
C516 C 0.27903 0.10881 0.39122 0.0
C517 C 0.25557 0.07894 0.3737 0.0
C518 C 0.22797 0.09145 0.3603 0.0
H519 H 0.18696 0.27773 0.89815 0.0
H520 H 0.19292 0.31907 0.83371 0.0
H521 H 0.10812 0.30544 0.83632 0.0
H522 H 0.079 0.17803 0.89504 0.0
H523 H 0.05426 0.17929 0.92013 0.0
H524 H 0.11992 0.20987 0.91639 0.0
H525 H 0.12924 0.29281 0.92916 0.0
H526 H 0.0634 0.26229 0.9335 0.0
H527 H 0.09312 0.31683 0.91733 0.0
H528 H 0.02026 0.26866 0.84272 0.0
H529 H 0.934 0.21008 0.85195 0.0
H530 H 0.98024 0.18559 0.91207 0.0
C531 C 0.17126 0.28691 0.88505 0.0
C532 C 0.19654 0.30108 0.86592 0.0
C533 C 0.17433 0.30967 0.84859 0.0
C534 C 0.12627 0.30201 0.85 0.0
C535 C 0.10093 0.28503 0.86877 0.0
C536 C 0.12268 0.27778 0.8861 0.0
C537 C 0.08459 0.24932 0.90283 0.0
C538 C 0.08446 0.20131 0.90893 0.0
C539 C 0.09309 0.28229 0.92183 0.0
C540 C 0.0376 0.23831 0.89161 0.0
C541 C 0.04828 0.26088 0.87228 0.0
C542 C 0.01147 0.25182 0.85797 0.0
C543 C 0.96267 0.21805 0.86327 0.0
C544 C 0.95092 0.19335 0.88266 0.0
C545 C 0.98854 0.20468 0.8973 0.0
H546 H 0.95018 0.14486 0.38744 0.0
H547 H 0.85874 0.21221 0.37871 0.0
H548 H 0.78466 0.13236 0.3886 0.0
H549 H 0.87364 0.03472 0.36465 0.0
H550 H 0.88761 -0.00194 0.38211 0.0
H551 H 0.93244 0.062 0.37774 0.0
H552 H 0.93602 0.07839 0.41732 0.0
H553 H 0.89064 0.01423 0.42176 0.0
H554 H 0.87992 0.06253 0.43121 0.0
H555 H 0.72017 0.04135 0.39504 0.0
H556 H 0.67257 0.94931 0.39512 0.0
H557 H 0.80919 0.94573 0.3994 0.0
C558 C 0.9147 0.14324 0.38775 0.0
C559 C 0.90991 0.18435 0.38206 0.0
C560 C 0.86298 0.18086 0.38297 0.0
C561 C 0.82094 0.13587 0.3887 0.0
C562 C 0.82709 0.09561 0.39385 0.0
C563 C 0.87309 0.09933 0.39352 0.0
C564 C 0.87035 0.05037 0.39763 0.0
C565 C 0.89225 0.03543 0.37945 0.0
C566 C 0.89573 0.05147 0.41821 0.0
C567 C 0.81521 0.01748 0.39916 0.0
C568 C 0.79061 0.04407 0.39753 0.0
C569 C 0.73909 0.02037 0.39675 0.0
C570 C 0.71238 0.96826 0.39687 0.0
C571 C 0.73765 0.94111 0.39733 0.0
C572 C 0.7893 0.966 0.39922 0.0
H573 H 0.85546 0.8042 0.90015 0.0
H574 H 0.77959 0.72038 0.84535 0.0
H575 H 0.72948 0.76155 0.84446 0.0
H576 H 0.74987 0.81436 0.92302 0.0
H577 H 0.79069 0.87734 0.93109 0.0
H578 H 0.81268 0.83367 0.93028 0.0
H579 H 0.88475 0.89294 0.90615 0.0
H580 H 0.86328 0.93672 0.90707 0.0
H581 H 0.871 0.91432 0.88241 0.0
H582 H 0.69502 0.81826 0.84688 0.0
H583 H 0.68758 0.89373 0.84971 0.0
H584 H 0.78947 0.94354 0.9014 0.0
C585 C 0.82733 0.79368 0.88834 0.0
C586 C 0.82097 0.75912 0.87293 0.0
C587 C 0.78492 0.74702 0.85729 0.0
C588 C 0.75589 0.76968 0.85681 0.0
C589 C 0.76358 0.80443 0.87203 0.0
C590 C 0.79877 0.81672 0.8874 0.0
C591 C 0.80543 0.86066 0.89985 0.0
C592 C 0.78865 0.84558 0.9224 0.0
C593 C 0.85927 0.90368 0.89878 0.0
C594 C 0.77053 0.87276 0.88837 0.0
C595 C 0.74526 0.83881 0.87288 0.0
C596 C 0.71385 0.84462 0.85919 0.0
C597 C 0.70968 0.88732 0.8609 0.0
C598 C 0.73782 0.92365 0.87581 0.0
C599 C 0.76724 0.91559 0.89006 0.0
H600 H 0.07666 0.59634 0.15086 0.0
H601 H -0.00242 0.57576 0.09308 0.0
H602 H 0.01338 0.50803 0.08372 0.0
H603 H 0.17146 0.58843 0.13077 0.0
H604 H 0.18021 0.55574 0.15196 0.0
H605 H 0.15312 0.59397 0.15668 0.0
H606 H 0.07561 0.51976 0.17305 0.0
H607 H 0.10314 0.48146 0.16903 0.0
H608 H 0.04252 0.46254 0.15884 0.0
H609 H 0.05137 0.45379 0.07788 0.0
H610 H 0.09922 0.41006 0.07807 0.0
H611 H 0.15515 0.46899 0.13931 0.0
C612 C 0.06082 0.57628 0.13662 0.0
C613 C 0.03586 0.59141 0.12272 0.0
C614 C 0.01633 0.56456 0.10411 0.0
C615 C 0.02547 0.52622 0.09858 0.0
C616 C 0.05352 0.51485 0.11197 0.0
C617 C 0.06986 0.53834 0.13086 0.0
C618 C 0.10333 0.52306 0.14157 0.0
C619 C 0.15507 0.56798 0.14546 0.0
C620 C 0.07972 0.49502 0.16182 0.0
C621 C 0.10502 0.48893 0.1254 0.0
C622 C 0.07572 0.48417 0.10852 0.0
C623 C 0.0737 0.45654 0.09119 0.0
C624 C 0.10142 0.43226 0.09136 0.0
C625 C 0.13106 0.43608 0.1087 0.0
C626 C 0.13289 0.46515 0.12581 0.0
H627 H 0.69959 0.16329 0.64296 0.0
H628 H 0.70467 0.09173 0.58606 0.0
H629 H 0.61428 0.03627 0.58786 0.0
H630 H 0.59981 0.05253 0.6684 0.0
H631 H 0.57276 0.08673 0.67938 0.0
H632 H 0.6385 0.11703 0.67494 0.0
H633 H 0.63463 0.18448 0.65256 0.0
H634 H 0.56938 0.15512 0.65744 0.0
H635 H 0.59197 0.16573 0.63114 0.0
H636 H 0.5228 0.99295 0.59444 0.0
H637 H 0.43797 0.97554 0.60216 0.0
H638 H 0.49351 0.07495 0.65471 0.0
C639 C 0.68181 0.13573 0.63094 0.0
C640 C 0.70918 0.13183 0.6144 0.0
C641 C 0.6844 0.09562 0.59885 0.0
C642 C 0.63317 0.06346 0.59988 0.0
C643 C 0.60738 0.06786 0.61659 0.0
C644 C 0.63086 0.10353 0.6317 0.0
C645 C 0.59438 0.10425 0.64684 0.0
C646 C 0.60182 0.08923 0.66868 0.0
C647 C 0.59778 0.15539 0.64698 0.0
C648 C 0.54649 0.06479 0.63742 0.0
C649 C 0.55466 0.04316 0.62032 0.0
C650 C 0.51585 0.00895 0.60801 0.0
C651 C 0.46774 -0.00113 0.6126 0.0
C652 C 0.45952 0.02373 0.62909 0.0
C653 C 0.49895 0.05495 0.64222 0.0
H654 H 0.53248 0.70736 0.09975 0.0
H655 H 0.54316 0.73057 0.16639 0.0
H656 H 0.49164 0.64094 0.17199 0.0
H657 H 0.4081 0.61688 0.09931 0.0
H658 H 0.4132 0.57988 0.07905 0.0
H659 H 0.45652 0.64529 0.08017 0.0
H660 H 0.52899 0.62704 0.08095 0.0
H661 H 0.48567 0.56136 0.08005 0.0
H662 H 0.53038 0.58664 0.10069 0.0
H663 H 0.43246 0.55229 0.17083 0.0
H664 H 0.364 0.46866 0.16268 0.0
H665 H 0.3915 0.50006 0.09699 0.0
C666 C 0.5245 0.69345 0.1155 0.0
C667 C 0.54182 0.72597 0.13261 0.0
C668 C 0.53012 0.70646 0.15301 0.0
C669 C 0.50131 0.65551 0.15639 0.0
C670 C 0.48466 0.62448 0.13925 0.0
C671 C 0.49554 0.64249 0.11919 0.0
C672 C 0.46881 0.6013 0.10357 0.0
C673 C 0.43462 0.61145 0.08972 0.0
C674 C 0.50567 0.59364 0.09055 0.0
C675 C 0.43962 0.55786 0.11805 0.0
C676 C 0.45022 0.57209 0.13856 0.0
C677 C 0.42452 0.54024 0.15488 0.0
C678 C 0.38576 0.49299 0.15012 0.0
C679 C 0.37339 0.4782 0.12927 0.0
C680 C 0.40152 0.51031 0.11304 0.0
H681 H 0.74554 0.46448 0.62763 0.0
H682 H 0.8375 0.56367 0.57868 0.0
H683 H 0.89007 0.52487 0.57989 0.0
H684 H 0.84221 0.46984 0.6573 0.0
H685 H 0.80843 0.40576 0.66527 0.0
H686 H 0.77576 0.43831 0.65933 0.0
H687 H 0.7224 0.37194 0.632 0.0
H688 H 0.75378 0.33835 0.63835 0.0
H689 H 0.75248 0.35646 0.6119 0.0
H690 H 0.93475 0.47682 0.58803 0.0
H691 H 0.96058 0.41693 0.59905 0.0
H692 H 0.84075 0.35439 0.64389 0.0
C693 C 0.77616 0.47761 0.61685 0.0
C694 C 0.78735 0.51708 0.60304 0.0
C695 C 0.82791 0.53311 0.58926 0.0
C696 C 0.85829 0.51169 0.59 0.0
C697 C 0.84748 0.47449 0.6046 0.0
C698 C 0.80689 0.45718 0.61753 0.0
C699 C 0.80325 0.41746 0.63208 0.0
C700 C 0.80769 0.43385 0.65484 0.0
C701 C 0.75515 0.36814 0.62835 0.0
C702 C 0.8481 0.41478 0.62531 0.0
C703 C 0.87344 0.44801 0.60953 0.0
C704 C 0.91521 0.45071 0.6004 0.0
C705 C 0.92991 0.41689 0.60692 0.0
C706 C 0.90271 0.38092 0.62235 0.0
C707 C 0.86254 0.38146 0.63213 0.0
H708 H 0.5039 0.94282 0.11898 0.0
H709 H 0.51277 0.90329 0.18274 0.0
H710 H 0.42281 0.86798 0.18654 0.0
H711 H 0.39523 0.96543 0.12634 0.0
H712 H 0.37084 0.93825 0.1014 0.0
H713 H 0.43672 0.97195 0.10557 0.0
H714 H 0.44107 0.89512 0.09313 0.0
H715 H 0.3752 0.86038 0.08976 0.0
H716 H 0.40511 0.83669 0.10638 0.0
H717 H 0.3319 0.82218 0.18125 0.0
H718 H 0.24582 0.77933 0.16869 0.0
H719 H 0.29702 0.8464 0.10796 0.0
C720 C 0.48734 0.92918 0.13406 0.0
C721 C 0.51505 0.92581 0.15058 0.0
C722 C 0.49197 0.9063 0.16992 0.0
C723 C 0.44094 0.88607 0.17221 0.0
C724 C 0.41396 0.8862 0.15507 0.0
C725 C 0.43643 0.90834 0.1365 0.0
C726 C 0.39874 0.89811 0.11974 0.0
C727 C 0.40048 0.9463 0.11287 0.0
C728 C 0.40547 0.87096 0.10118 0.0
C729 C 0.35184 0.86476 0.13149 0.0
C730 C 0.36127 0.85884 0.1519 0.0
C731 C 0.32388 0.82739 0.16543 0.0
C732 C 0.27523 0.80276 0.15807 0.0
C733 C 0.26471 0.80953 0.13734 0.0
C734 C 0.30376 0.84034 0.12388 0.0
H735 H 0.55694 0.4539 0.65109 0.0
H736 H 0.53057 0.51153 0.59436 0.0
H737 H 0.47131 0.42598 0.58309 0.0
H738 H 0.56941 0.36583 0.62918 0.0
H739 H 0.54044 0.31877 0.64889 0.0
H740 H 0.56792 0.38302 0.65573 0.0
H741 H 0.48541 0.36898 0.67137 0.0
H742 H 0.458 0.3039 0.66558 0.0
H743 H 0.42962 0.33837 0.65618 0.0
H744 H 0.42865 0.33343 0.57525 0.0
H745 H 0.3978 0.24302 0.57379 0.0
H746 H 0.46045 0.25038 0.63468 0.0
C747 C 0.53651 0.44853 0.63684 0.0
C748 C 0.54766 0.48881 0.62365 0.0
C749 C 0.5215 0.48091 0.60484 0.0
C750 C 0.48828 0.43244 0.59824 0.0
C751 C 0.48162 0.39299 0.61081 0.0
C752 C 0.50413 0.40075 0.63001 0.0
C753 C 0.49689 0.35319 0.63944 0.0
C754 C 0.54662 0.35539 0.64353 0.0
C755 C 0.4656 0.34034 0.65931 0.0
C756 C 0.46884 0.31772 0.6222 0.0
C757 C 0.45945 0.34077 0.60593 0.0
C758 C 0.43518 0.31491 0.58806 0.0
C759 C 0.41843 0.26379 0.58724 0.0
C760 C 0.42698 0.23961 0.60405 0.0
C761 C 0.45347 0.26751 0.62146 0.0
H762 H 0.41431 0.94153 0.3809 0.0
H763 H 0.3867 0.92802 0.31477 0.0
H764 H 0.44422 0.89604 0.31048 0.0
H765 H 0.54853 0.96651 0.37845 0.0
H766 H 0.53791 0.92934 0.4014 0.0
H767 H 0.50732 0.96515 0.39835 0.0
H768 H 0.42324 0.88518 0.40421 0.0
H769 H 0.45296 0.84865 0.40639 0.0
H770 H 0.40523 0.83285 0.3873 0.0
H771 H 0.48698 0.84774 0.31436 0.0
H772 H 0.52358 0.79729 0.32543 0.0
H773 H 0.52109 0.83931 0.38941 0.0
C774 C 0.4229 0.93485 0.36539 0.0
C775 C 0.39679 0.93776 0.34812 0.0
C776 C 0.40703 0.92659 0.32812 0.0
C777 C 0.43943 0.90819 0.32557 0.0
C778 C 0.46131 0.90154 0.34317 0.0
C779 C 0.45457 0.9157 0.36267 0.0
C780 C 0.47647 0.89811 0.37935 0.0
C781 C 0.52017 0.94242 0.39001 0.0
C782 C 0.43711 0.8642 0.39523 0.0
C783 C 0.4938 0.86942 0.3663 0.0
C784 C 0.48541 0.8725 0.34548 0.0
C785 C 0.49496 0.84609 0.33057 0.0
C786 C 0.51516 0.81702 0.33706 0.0
C787 C 0.52525 0.81431 0.3583 0.0
C788 C 0.51387 0.84056 0.37307 0.0
H789 H 0.72347 0.50252 0.86548 0.0
H790 H 0.73364 0.58486 0.92127 0.0
H791 H 0.64213 0.54492 0.92203 0.0
H792 H 0.629 0.51621 0.84199 0.0
H793 H 0.59983 0.45565 0.83025 0.0
H794 H 0.66533 0.48797 0.83514 0.0
H795 H 0.65672 0.4136 0.8568 0.0
H796 H 0.5915 0.38053 0.85146 0.0
H797 H 0.61297 0.3898 0.87788 0.0
H798 H 0.54774 0.49418 0.91593 0.0
H799 H 0.46195 0.43465 0.90499 0.0
H800 H 0.51941 0.39502 0.85159 0.0
C801 C 0.70682 0.51182 0.87814 0.0
C802 C 0.7358 0.54657 0.89342 0.0
C803 C 0.71211 0.55793 0.90949 0.0
C804 C 0.66025 0.53578 0.90994 0.0
C805 C 0.63306 0.50307 0.89406 0.0
C806 C 0.65585 0.49118 0.87855 0.0
C807 C 0.61946 0.45625 0.86289 0.0
C808 C 0.62899 0.4805 0.8413 0.0
C809 C 0.6202 0.40715 0.86224 0.0
C810 C 0.57216 0.44939 0.87212 0.0
C811 C 0.58027 0.47651 0.89007 0.0
C812 C 0.5411 0.47316 0.90178 0.0
C813 C 0.49252 0.43963 0.89536 0.0
C814 C 0.48401 0.41023 0.87743 0.0
C815 C 0.52451 0.41698 0.86534 0.0
H816 H 0.13482 0.69319 0.38452 0.0
H817 H 0.18103 0.73355 0.32051 0.0
H818 H 0.12903 0.64626 0.31025 0.0
H819 H 0.1397 0.58471 0.38493 0.0
H820 H 0.08666 0.55132 0.40157 0.0
H821 H 0.12241 0.61768 0.40293 0.0
H822 H 0.04255 0.62187 0.39615 0.0
H823 H 0.00696 0.55525 0.3941 0.0
H824 H 0.00658 0.59359 0.37319 0.0
H825 H 0.0815 0.55543 0.3075 0.0
H826 H 0.05254 0.46684 0.31346 0.0
H827 H 0.03316 0.48451 0.3787 0.0
C828 C 0.13389 0.68378 0.36832 0.0
C829 C 0.16204 0.72021 0.35334 0.0
C830 C 0.15992 0.70626 0.33231 0.0
C831 C 0.12989 0.6569 0.32626 0.0
C832 C 0.10184 0.62209 0.34137 0.0
C833 C 0.10396 0.63479 0.362 0.0
C834 C 0.07464 0.58962 0.37551 0.0
C835 C 0.10784 0.58559 0.39219 0.0
C836 C 0.03003 0.59014 0.38531 0.0
C837 C 0.05824 0.54917 0.3594 0.0
C838 C 0.07302 0.56885 0.3397 0.0
C839 C 0.06849 0.53938 0.3227 0.0
C840 C 0.05173 0.48911 0.32617 0.0
C841 C 0.03988 0.46921 0.34644 0.0
C842 C 0.04016 0.49874 0.36298 0.0
H843 H 0.63373 0.16038 0.8528 0.0
H844 H 0.56148 0.01993 0.88592 0.0
H845 H 0.48914 0.03037 0.89217 0.0
H846 H 0.5964 0.2242 0.88589 0.0
H847 H 0.58735 0.25892 0.86565 0.0
H848 H 0.63157 0.23845 0.8622 0.0
H849 H 0.58784 0.19303 0.82832 0.0
H850 H 0.54404 0.21419 0.83146 0.0
H851 H 0.52251 0.14891 0.82874 0.0
H852 H 0.42743 0.0599 0.8971 0.0
H853 H 0.37807 0.1022 0.89717 0.0
H854 H 0.49256 0.22281 0.86104 0.0
C855 C 0.60241 0.13128 0.86105 0.0
C856 C 0.60331 0.08936 0.86886 0.0
C857 C 0.56155 0.05229 0.87967 0.0
C858 C 0.5204 0.058 0.8834 0.0
C859 C 0.5216 0.10075 0.87611 0.0
C860 C 0.56126 0.13636 0.8649 0.0
C861 C 0.55424 0.17951 0.85919 0.0
C862 C 0.5948 0.22812 0.86881 0.0
C863 C 0.552 0.18415 0.83552 0.0
C864 C 0.50464 0.16292 0.86914 0.0
C865 C 0.48631 0.11751 0.87888 0.0
C866 C 0.44124 0.09532 0.88939 0.0
C867 C 0.41368 0.11976 0.88949 0.0
C868 C 0.43143 0.1657 0.87907 0.0
C869 C 0.47781 0.18761 0.86906 0.0
H870 H 0.28706 0.46702 0.3964 0.0
H871 H 0.2542 0.45124 0.33044 0.0
H872 H 0.34195 0.48541 0.32257 0.0
H873 H 0.39583 0.58397 0.39186 0.0
H874 H 0.42869 0.57255 0.41213 0.0
H875 H 0.3623 0.5414 0.41262 0.0
H876 H 0.35999 0.45696 0.41443 0.0
H877 H 0.42656 0.48812 0.4133 0.0
H878 H 0.39018 0.4411 0.39452 0.0
H879 H 0.43177 0.52559 0.32106 0.0
H880 H 0.52044 0.5846 0.32609 0.0
H881 H 0.49842 0.57622 0.39258 0.0
C882 C 0.2984 0.47069 0.38033 0.0
C883 C 0.26348 0.45612 0.3641 0.0
C884 C 0.27997 0.46212 0.34324 0.0
C885 C 0.3298 0.48085 0.33854 0.0
C886 C 0.36305 0.49377 0.35482 0.0
C887 C 0.34843 0.49005 0.37528 0.0
C888 C 0.3928 0.51213 0.3896 0.0
C889 C 0.39504 0.55507 0.40229 0.0
C890 C 0.39233 0.47218 0.4038 0.0
C891 C 0.43448 0.53042 0.37387 0.0
C892 C 0.4162 0.51797 0.35394 0.0
C893 C 0.44678 0.53484 0.33657 0.0
C894 C 0.49709 0.56798 0.33955 0.0
C895 C 0.51606 0.58379 0.3597 0.0
C896 C 0.48495 0.56295 0.37711 0.0
H897 H 0.91486 0.50947 0.90524 0.0
H898 H 0.00828 0.54132 0.85133 0.0
H899 H -0.00171 0.4574 0.85354 0.0
H900 H 0.94692 0.41525 0.9315 0.0
H901 H 0.88354 0.37866 0.93984 0.0
H902 H 0.91248 0.44532 0.93864 0.0
H903 H 0.84126 0.43635 0.91518 0.0
H904 H 0.81291 0.37014 0.91564 0.0
H905 H 0.82883 0.4026 0.89117 0.0
H906 H 0.95789 0.36649 0.85472 0.0
H907 H 0.89783 0.27713 0.85701 0.0
H908 H 0.83021 0.30246 0.91074 0.0
C909 C 0.93562 0.49954 0.89476 0.0
C910 C 0.96292 0.53143 0.87835 0.0
C911 C 0.98831 0.51748 0.86429 0.0
C912 C 0.98258 0.46986 0.86544 0.0
C913 C 0.95207 0.43755 0.88092 0.0
C914 C 0.93008 0.45228 0.89576 0.0
C915 C 0.89231 0.4087 0.90844 0.0
C916 C 0.90988 0.41219 0.93094 0.0
C917 C 0.84084 0.40422 0.90752 0.0
C918 C 0.89295 0.36655 0.89718 0.0
C919 C 0.92852 0.38406 0.88169 0.0
C920 C 0.93117 0.35239 0.86722 0.0
C921 C 0.89647 0.30184 0.86846 0.0
C922 C 0.8596 0.28341 0.88406 0.0
C923 C 0.8587 0.31586 0.89894 0.0
H924 H 0.11329 0.3647 0.2822 0.0
H925 H 0.06908 0.21361 0.30025 0.0
H926 H 0.09378 0.19929 0.2657 0.0
H927 H 0.07363 0.33765 0.22811 0.0
H928 H 0.12519 0.39504 0.21903 0.0
H929 H 0.10052 0.3915 0.24461 0.0
H930 H 0.18776 0.42265 0.2601 0.0
H931 H 0.2125 0.42525 0.23463 0.0
H932 H 0.21979 0.38911 0.25475 0.0
H933 H 0.12945 0.2039 0.23018 0.0
H934 H 0.16422 0.22368 0.19483 0.0
H935 H 0.18472 0.3719 0.20046 0.0
C936 C 0.10796 0.32828 0.27881 0.0
C937 C 0.08926 0.29026 0.29391 0.0
C938 C 0.08298 0.24318 0.28886 0.0
C939 C 0.09722 0.2348 0.26934 0.0
C940 C 0.11723 0.27376 0.2551 0.0
C941 C 0.12179 0.31928 0.25948 0.0
C942 C 0.14505 0.35529 0.24166 0.0
C943 C 0.10894 0.37076 0.23283 0.0
C944 C 0.19419 0.40074 0.24818 0.0
C945 C 0.15347 0.32312 0.22662 0.0
C946 C 0.13738 0.2763 0.23466 0.0
C947 C 0.14184 0.24032 0.22365 0.0
C948 C 0.16199 0.25208 0.20364 0.0
C949 C 0.17722 0.29938 0.19484 0.0
C950 C 0.17354 0.33546 0.2067 0.0
H951 H 0.83592 0.21362 0.70644 0.0
H952 H 0.91061 0.12965 0.69487 0.0
H953 H 0.89033 0.09541 0.73011 0.0
H954 H 0.87634 0.24367 0.76002 0.0
H955 H 0.81893 0.23824 0.76868 0.0
H956 H 0.83932 0.25654 0.74237 0.0
H957 H 0.75625 0.18412 0.72909 0.0
H958 H 0.73593 0.16514 0.75537 0.0
H959 H 0.73701 0.12163 0.73728 0.0
H960 H 0.85995 0.0674 0.76569 0.0
H961 H 0.8299 0.05505 0.80162 0.0
H962 H 0.77668 0.15856 0.79135 0.0
C963 C 0.8484 0.18841 0.71139 0.0
C964 C 0.87477 0.17433 0.69777 0.0
C965 C 0.89042 0.1412 0.70491 0.0
C966 C 0.87885 0.12121 0.72491 0.0
C967 C 0.85192 0.1349 0.73772 0.0
C968 C 0.83752 0.16829 0.73146 0.0
C969 C 0.81002 0.17751 0.74869 0.0
C970 C 0.83782 0.23224 0.75533 0.0
C971 C 0.75663 0.16111 0.74221 0.0
C972 C 0.81133 0.14403 0.76553 0.0
C973 C 0.83521 0.11945 0.7587 0.0
C974 C 0.84135 0.08658 0.7713 0.0
C975 C 0.82393 0.0797 0.7917 0.0
C976 C 0.80098 0.1059 0.79941 0.0
C977 C 0.79383 0.13779 0.78594 0.0
H978 H 0.64305 0.8192 0.20461 0.0
H979 H 0.79493 0.93787 0.19837 0.0
H980 H 0.81302 0.91889 0.23364 0.0
H981 H 0.62569 0.83933 0.25546 0.0
H982 H 0.58808 0.77474 0.26222 0.0
H983 H 0.5896 0.79443 0.2359 0.0
H984 H 0.61621 0.732 0.22343 0.0
H985 H 0.61478 0.71207 0.2498 0.0
H986 H 0.6702 0.73401 0.23452 0.0
H987 H 0.81026 0.89293 0.27147 0.0
H988 H 0.78792 0.86149 0.30741 0.0
H989 H 0.63869 0.75781 0.2871 0.0
C990 C 0.68033 0.84087 0.21054 0.0
C991 C 0.71756 0.88022 0.19894 0.0
C992 C 0.76598 0.90746 0.20709 0.0
C993 C 0.77651 0.89688 0.22705 0.0
C994 C 0.73845 0.85828 0.23829 0.0
C995 C 0.69151 0.83032 0.23012 0.0
C996 C 0.65618 0.79259 0.24546 0.0
C997 C 0.61235 0.80081 0.25003 0.0
C998 C 0.63831 0.73953 0.23785 0.0
C999 C 0.68985 0.80498 0.26396 0.0
C1000 C 0.73731 0.84257 0.25958 0.0
C1001 C 0.77349 0.86282 0.27493 0.0
C1002 C 0.76044 0.84477 0.29531 0.0
C1003 C 0.7116 0.80699 0.30008 0.0
C1004 C 0.67651 0.78622 0.284 0.0
H1005 H 0.80909 0.67709 0.70499 0.0
H1006 H 0.69962 0.52124 0.69825 0.0
H1007 H 0.72348 0.50377 0.73244 0.0
H1008 H 0.90173 0.65831 0.72897 0.0
H1009 H 0.92259 0.71086 0.74598 0.0
H1010 H 0.89631 0.71105 0.72115 0.0
H1011 H 0.83109 0.72715 0.73894 0.0
H1012 H 0.8578 0.72798 0.76375 0.0
H1013 H 0.79292 0.68612 0.75931 0.0
H1014 H 0.75967 0.50408 0.76781 0.0
H1015 H 0.80077 0.52364 0.80214 0.0
H1016 H 0.88766 0.67838 0.78401 0.0
C1017 C 0.78965 0.63933 0.71075 0.0
C1018 C 0.75236 0.6006 0.699 0.0
C1019 C 0.72828 0.55158 0.70704 0.0
C1020 C 0.74174 0.54122 0.72637 0.0
C1021 C 0.77953 0.58022 0.73732 0.0
C1022 C 0.80289 0.62829 0.72981 0.0
C1023 C 0.84209 0.66377 0.74452 0.0
C1024 C 0.89373 0.68737 0.73455 0.0
C1025 C 0.83023 0.70357 0.75208 0.0
C1026 C 0.83662 0.62834 0.76168 0.0
C1027 C 0.8007 0.58021 0.75728 0.0
C1028 C 0.78811 0.5416 0.77138 0.0
C1029 C 0.81182 0.55295 0.79075 0.0
C1030 C 0.84734 0.60248 0.79571 0.0
C1031 C 0.86068 0.64011 0.78069 0.0
H1032 H 0.11065 0.76438 0.20696 0.0
H1033 H 0.02967 0.84034 0.19226 0.0
H1034 H 0.04253 0.87258 0.22811 0.0
H1035 H 0.07336 0.73611 0.26231 0.0
H1036 H 0.13419 0.74829 0.26955 0.0
H1037 H 0.11006 0.72399 0.24422 0.0
H1038 H 0.18764 0.79765 0.22756 0.0
H1039 H 0.21147 0.82282 0.25274 0.0
H1040 H 0.20286 0.86022 0.23364 0.0
H1041 H 0.07192 0.90306 0.26501 0.0
H1042 H 0.1146 0.92797 0.29904 0.0
H1043 H 0.18073 0.8365 0.28719 0.0
C1044 C 0.09394 0.78624 0.21142 0.0
C1045 C 0.06864 0.79934 0.19687 0.0
C1046 C 0.04878 0.82942 0.20324 0.0
C1047 C 0.05597 0.84797 0.22355 0.0
C1048 C 0.08324 0.83622 0.23722 0.0
C1049 C 0.10158 0.80571 0.23139 0.0
C1050 C 0.13412 0.80276 0.248 0.0
C1051 C 0.11157 0.74964 0.25653 0.0
C1052 C 0.18713 0.82203 0.24 0.0
C1053 C 0.13233 0.83732 0.26388 0.0
C1054 C 0.10217 0.85568 0.25769 0.0
C1055 C 0.09547 0.88871 0.27002 0.0
C1056 C 0.11997 0.90286 0.28923 0.0
C1057 C 0.15154 0.88481 0.29557 0.0
C1058 C 0.15758 0.85171 0.28264 0.0
H1059 H 0.27451 0.19751 0.78071 0.0
H1060 H 0.43321 0.2802 0.79079 0.0
H1061 H 0.44636 0.251 0.75724 0.0
H1062 H 0.26945 0.09297 0.75966 0.0
H1063 H 0.22295 0.08094 0.74041 0.0
H1064 H 0.22506 0.11307 0.76389 0.0
H1065 H 0.23188 0.187 0.74263 0.0
H1066 H 0.2285 0.15456 0.71905 0.0
H1067 H 0.27967 0.21617 0.72329 0.0
H1068 H 0.44241 0.20554 0.72534 0.0
H1069 H 0.42263 0.15542 0.69374 0.0
H1070 H 0.26619 0.10214 0.70349 0.0
C1071 C 0.31209 0.21087 0.77554 0.0
C1072 C 0.35288 0.24128 0.78836 0.0
C1073 C 0.40143 0.25701 0.78122 0.0
C1074 C 0.40928 0.24048 0.76223 0.0
C1075 C 0.36824 0.20853 0.75048 0.0
C1076 C 0.32063 0.19463 0.75657 0.0
C1077 C 0.28305 0.15814 0.74137 0.0
C1078 C 0.24808 0.10834 0.75197 0.0
C1079 C 0.25407 0.1803 0.73096 0.0
C1080 C 0.31705 0.15294 0.72608 0.0
C1081 C 0.36598 0.18234 0.73173 0.0
C1082 C 0.4043 0.18292 0.72055 0.0
C1083 C 0.39254 0.15396 0.70267 0.0
C1084 C 0.3428 0.12486 0.69602 0.0
C1085 C 0.30453 0.12382 0.70814 0.0
H1086 H 0.34002 0.30678 0.95274 0.0
H1087 H 0.20838 0.16574 0.94034 0.0
H1088 H 0.17339 0.17038 0.97415 0.0
H1089 H 0.34483 0.28477 0.00851 0.0
H1090 H 0.36745 0.34892 0.01487 0.0
H1091 H 0.38227 0.33279 0.99015 0.0
H1092 H 0.34573 0.38142 0.97169 0.0
H1093 H 0.32985 0.39682 0.99632 0.0
H1094 H 0.28277 0.36553 0.97694 0.0
H1095 H 0.14974 0.19519 0.00742 0.0
H1096 H 0.14441 0.23076 0.04085 0.0
H1097 H 0.29417 0.35271 0.03248 0.0
C1098 C 0.30422 0.27648 0.95736 0.0
C1099 C 0.27676 0.23587 0.94409 0.0
C1100 C 0.23008 0.19683 0.95049 0.0
C1101 C 0.20982 0.1994 0.96953 0.0
C1102 C 0.23728 0.24076 0.98201 0.0
C1103 C 0.28399 0.27795 0.97643 0.0
C1104 C 0.30613 0.31809 0.99273 0.0
C1105 C 0.35293 0.3213 0.00212 0.0
C1106 C 0.31672 0.36843 0.98388 0.0
C1107 C 0.2642 0.29813 0.00821 0.0
C1108 C 0.22457 0.25385 0.00161 0.0
C1109 C 0.18076 0.22948 0.01289 0.0
C1110 C 0.17792 0.25022 0.03173 0.0
C1111 C 0.21894 0.2944 0.03917 0.0
C1112 C 0.2624 0.31878 0.02716 0.0
H1113 H 0.09175 0.34499 0.46128 0.0
H1114 H 0.97541 0.36597 0.43479 0.0
H1115 H 0.93135 0.34305 0.468 0.0
H1116 H 0.01792 0.24165 0.49067 0.0
H1117 H 0.05705 0.25832 0.51323 0.0
H1118 H 0.08375 0.28217 0.48816 0.0
H1119 H 0.12358 0.37223 0.50177 0.0
H1120 H 0.09797 0.34865 0.52706 0.0
H1121 H 0.08538 0.39278 0.51432 0.0
H1122 H 0.89235 0.30355 0.5014 0.0
H1123 H 0.86892 0.26636 0.53645 0.0
H1124 H 0.01264 0.27827 0.54319 0.0
C1125 C 0.05791 0.34642 0.46267 0.0
C1126 C 0.03693 0.3568 0.44528 0.0
C1127 C -0.0078 0.35774 0.44776 0.0
C1128 C 0.96668 0.34467 0.46659 0.0
C1129 C 0.98682 0.33188 0.48304 0.0
C1130 C 0.03214 0.33422 0.48159 0.0
C1131 C 0.04456 0.31745 0.50169 0.0
C1132 C 0.0512 0.27221 0.49821 0.0
C1133 C 0.0906 0.36034 0.51181 0.0
C1134 C -0.00168 0.30366 0.51423 0.0
C1135 C 0.96533 0.31185 0.50305 0.0
C1136 C 0.91829 0.29809 0.51056 0.0
C1137 C 0.90508 0.27654 0.53031 0.0
C1138 C 0.93912 0.26988 0.54235 0.0
C1139 C 0.98627 0.28358 0.53424 0.0
H1140 H 0.69954 0.02502 0.05466 0.0
H1141 H 0.58393 0.87366 0.04295 0.0
H1142 H 0.59138 0.89104 0.00538 0.0
H1143 H 0.669 0.0847 0.01196 0.0
H1144 H 0.73299 0.12741 0.00605 0.0
H1145 H 0.71483 0.10511 0.03219 0.0
H1146 H 0.77804 0.07428 0.03255 0.0
H1147 H 0.79607 0.09598 0.00636 0.0
H1148 H 0.77494 0.03204 0.01275 0.0
H1149 H 0.61396 0.92207 0.96973 0.0
H1150 H 0.6504 0.96439 0.93703 0.0
H1151 H 0.75521 0.0963 0.97072 0.0
C1152 C 0.67494 -0.00399 0.04417 0.0
C1153 C 0.64059 0.94814 0.05165 0.0
C1154 C 0.61014 0.9106 0.0375 0.0
C1155 C 0.61411 0.92016 0.01617 0.0
C1156 C 0.64906 0.96731 0.00926 0.0
C1157 C 0.67903 0.00472 0.02274 0.0
C1158 C 0.71604 0.05088 0.01099 0.0
C1159 C 0.7077 0.09462 0.01557 0.0
C1160 C 0.76943 0.06405 0.01596 0.0
C1161 C 0.70244 0.03326 0.98879 0.0
C1162 C 0.66336 0.98508 0.98831 0.0
C1163 C 0.64432 0.95991 0.96986 0.0
C1164 C 0.66551 0.98453 0.95132 0.0
C1165 C 0.70578 0.034 0.95117 0.0
C1166 C 0.72452 0.05863 0.97026 0.0
H1167 H 0.7145 0.6463 0.53135 0.0
H1168 H 0.63902 0.70627 0.56744 0.0
H1169 H 0.60952 0.72573 0.53536 0.0
H1170 H 0.75291 0.73519 0.48945 0.0
H1171 H 0.74265 0.6902 0.46971 0.0
H1172 H 0.75865 0.68174 0.49562 0.0
H1173 H 0.67991 0.59488 0.49715 0.0
H1174 H 0.66344 0.60335 0.47132 0.0
H1175 H 0.62036 0.58911 0.49235 0.0
H1176 H 0.58905 0.7401 0.49945 0.0
H1177 H 0.58015 0.7489 0.4618 0.0
H1178 H 0.66579 0.67654 0.44934 0.0
C1179 C 0.69211 0.66386 0.53245 0.0
C1180 C 0.67903 0.67467 0.55186 0.0
C1181 C 0.64925 0.69729 0.55271 0.0
C1182 C 0.63228 0.70856 0.53459 0.0
C1183 C 0.64507 0.69671 0.51571 0.0
C1184 C 0.67429 0.6749 0.51447 0.0
C1185 C 0.68219 0.66568 0.49217 0.0
C1186 C 0.73737 0.69496 0.4864 0.0
C1187 C 0.66015 0.60994 0.48801 0.0
C1188 C 0.65317 0.686 0.48118 0.0
C1189 C 0.6321 0.70382 0.495 0.0
C1190 C 0.60507 0.72598 0.48842 0.0
C1191 C 0.60012 0.73074 0.46705 0.0
C1192 C 0.62182 0.71306 0.45263 0.0
C1193 C 0.64804 0.68981 0.45991 0.0
H1194 H 0.9365 0.68552 0.95875 0.0
H1195 H 0.07562 0.7473 0.92532 0.0
H1196 H 0.1207 0.76631 0.9585 0.0
H1197 H 0.98037 0.77277 0.00106 0.0
H1198 H 0.94335 0.72659 0.02014 0.0
H1199 H 0.92253 0.71952 0.99369 0.0
H1200 H 0.9155 0.63293 0.99239 0.0
H1201 H 0.93675 0.63995 0.01877 0.0
H1202 H 0.96872 0.62715 -0.0014 0.0
H1203 H 0.15064 0.77881 0.99554 0.0
H1204 H 0.16255 0.78362 0.03359 0.0
H1205 H 0.00341 0.71063 0.04209 0.0
C1206 C 0.97646 0.70349 0.9584 0.0
C1207 C 0.00253 0.71505 0.93947 0.0
C1208 C 0.05484 0.73801 0.93967 0.0
C1209 C 0.08081 0.74899 0.95842 0.0
C1210 C 0.05391 0.73646 0.97681 0.0
C1211 C 0.00291 0.71422 0.97693 0.0
C1212 C 0.98268 0.7036 -0.00124 0.0
C1213 C 0.95566 0.73235 0.0037 0.0
C1214 C 0.94893 0.64758 0.00233 0.0
C1215 C 0.03025 0.72345 0.01087 0.0
C1216 C 0.071 0.74244 -0.002 0.0
C1217 C 0.11898 0.76386 0.0058 0.0
C1218 C 0.1254 0.76637 0.0274 0.0
C1219 C 0.08397 0.7472 0.04082 0.0
C1220 C 0.03591 0.72512 0.03231 0.0
H1221 H 0.3052 -0.00464 0.44482 0.0
H1222 H 0.258 0.83897 0.45083 0.0
H1223 H 0.2685 0.84879 0.48883 0.0
H1224 H 0.39528 0.04106 0.4878 0.0
H1225 H 0.37823 0.08613 0.49554 0.0
H1226 H 0.37354 0.06817 0.46874 0.0
H1227 H 0.2813 0.04442 0.46864 0.0
H1228 H 0.28547 0.06174 0.49546 0.0
H1229 H 0.23969 0.00026 0.4874 0.0
H1230 H 0.2783 0.87421 0.52599 0.0
H1231 H 0.28512 0.91263 0.56003 0.0
H1232 H 0.32205 0.05184 0.52978 0.0
C1233 C 0.29838 0.96345 0.45406 0.0
C1234 C 0.28139 0.91649 0.44491 0.0
C1235 C 0.27138 0.87531 0.45757 0.0
C1236 C 0.27732 0.88057 0.47912 0.0
C1237 C 0.29294 0.92715 0.48769 0.0
C1238 C 0.30335 0.96788 0.47557 0.0
C1239 C 0.31534 0.01276 0.48871 0.0
C1240 C 0.36878 0.05449 0.48497 0.0
C1241 C 0.27823 0.03082 0.48482 0.0
C1242 C 0.30915 0.99066 0.51015 0.0
C1243 C 0.29691 0.94145 0.50919 0.0
C1244 C 0.28822 0.9128 0.52695 0.0
C1245 C 0.29214 0.93502 0.54622 0.0
C1246 C 0.30408 0.98529 0.54759 0.0
C1247 C 0.31278 0.01337 0.52926 0.0
loop_
_geom_bond_atom_site_label_1
_geom_bond_atom_site_label_2
_geom_bond_distance
_geom_bond_site_symmetry_2
_ccdc_geom_bond_type
O0 Zn1 1.953 . S
O0 C16 1.225 . S
Zn1 O0 1.953 . S
Zn1 O2 1.949 . S
Zn1 O8 1.919 . S
Zn1 O13 1.924 . S
O2 Zn1 1.949 . S
O2 Zn3 1.923 . S
O2 Zn4 1.950 . S
O2 Zn5 1.945 . S
Zn3 O2 1.923 . S
Zn3 O6 1.933 . S
Zn3 O9 1.941 . S
Zn3 O10 1.965 . S
Zn4 O2 1.950 . S
Zn4 O11 1.938 . S
Zn4 O12 1.906 . S
Zn4 O22 1.953 . S
Zn5 O2 1.945 . S
Zn5 O7 1.932 . S
Zn5 O14 1.977 . S
Zn5 O15 1.910 . S
O6 Zn3 1.933 . S
O6 C17 1.226 . S
O7 Zn5 1.932 . S
O7 C17 1.307 . S
O8 Zn1 1.919 . S
O8 C19 1.253 . S
O9 Zn3 1.941 . S
O9 C19 1.283 . S
O10 Zn3 1.965 . S
O10 C18 1.303 . S
O11 Zn4 1.938 . S
O11 C18 1.247 . S
O12 Zn4 1.906 . S
O12 C20 1.304 . S
O13 Zn1 1.924 . S
O13 C21 1.311 . S
O14 Zn5 1.977 . S
O14 C20 1.272 . S
O15 Zn5 1.910 . S
O15 C21 1.231 . S
C16 O0 1.225 . S
C16 O22 1.298 . S
C17 O6 1.226 . S
C17 O7 1.307 . S
C18 O10 1.303 . S
C18 O11 1.247 . S
C19 O8 1.253 . S
C19 O9 1.283 . S
C20 O12 1.304 . S
C20 O14 1.272 . S
C21 O13 1.311 . S
C21 O15 1.231 . S
O22 Zn4 1.953 . S
O22 C16 1.298 . S
O23 Zn24 1.953 . S
O23 C39 1.225 . S
Zn24 O23 1.953 . S
Zn24 O25 1.949 . S
Zn24 O31 1.919 . S
Zn24 O36 1.924 . S
O25 Zn24 1.949 . S
O25 Zn26 1.923 . S
O25 Zn27 1.950 . S
O25 Zn28 1.945 . S
Zn26 O25 1.923 . S
Zn26 O29 1.933 . S
Zn26 O32 1.941 . S
Zn26 O33 1.965 . S
Zn27 O25 1.950 . S
Zn27 O34 1.938 . S
Zn27 O35 1.906 . S
Zn27 O45 1.953 . S
Zn28 O25 1.945 . S
Zn28 O30 1.932 . S
Zn28 O37 1.977 . S
Zn28 O38 1.910 . S
O29 Zn26 1.933 . S
O29 C40 1.226 1_655 S
O30 Zn28 1.932 . S
O30 C40 1.307 1_655 S
O31 Zn24 1.919 . S
O31 C42 1.253 . S
O32 Zn26 1.941 . S
O32 C42 1.283 . S
O33 Zn26 1.965 . S
O33 C41 1.303 . S
O34 Zn27 1.938 . S
O34 C41 1.247 . S
O35 Zn27 1.906 . S
O35 C43 1.304 . S
O36 Zn24 1.924 . S
O36 C44 1.311 . S
O37 Zn28 1.977 . S
O37 C43 1.272 . S
O38 Zn28 1.910 . S
O38 C44 1.231 . S
C39 O23 1.225 . S
C39 O45 1.298 . S
C40 O29 1.226 1_455 S
C40 O30 1.307 1_455 S
C41 O33 1.303 . S
C41 O34 1.247 . S
C42 O31 1.253 . S
C42 O32 1.283 . S
C43 O35 1.304 . S
C43 O37 1.272 . S
C44 O36 1.311 . S
C44 O38 1.231 . S
O45 Zn27 1.953 . S
O45 C39 1.298 . S
O46 Zn47 1.953 . S
O46 C62 1.225 . S
Zn47 O46 1.953 . S
Zn47 O48 1.949 . S
Zn47 O54 1.919 . S
Zn47 O59 1.924 . S
O48 Zn47 1.949 . S
O48 Zn49 1.923 . S
O48 Zn50 1.950 . S
O48 Zn51 1.945 . S
Zn49 O48 1.923 . S
Zn49 O52 1.933 . S
Zn49 O55 1.941 . S
Zn49 O56 1.965 . S
Zn50 O48 1.950 . S
Zn50 O57 1.938 . S
Zn50 O58 1.906 . S
Zn50 O68 1.953 . S
Zn51 O48 1.945 . S
Zn51 O53 1.932 . S
Zn51 O60 1.977 . S
Zn51 O61 1.910 . S
O52 Zn49 1.933 . S
O52 C63 1.226 1_565 S
O53 Zn51 1.932 . S
O53 C63 1.307 1_565 S
O54 Zn47 1.919 . S
O54 C65 1.253 . S
O55 Zn49 1.941 . S
O55 C65 1.283 . S
O56 Zn49 1.965 . S
O56 C64 1.303 . S
O57 Zn50 1.938 . S
O57 C64 1.247 . S
O58 Zn50 1.906 . S
O58 C66 1.304 . S
O59 Zn47 1.924 . S
O59 C67 1.311 . S
O60 Zn51 1.977 . S
O60 C66 1.272 . S
O61 Zn51 1.910 . S
O61 C67 1.231 . S
C62 O46 1.225 . S
C62 O68 1.298 . S
C63 O52 1.226 1_545 S
C63 O53 1.307 1_545 S
C64 O56 1.303 . S
C64 O57 1.247 . S
C65 O54 1.253 . S
C65 O55 1.283 . S
C66 O58 1.304 . S
C66 O60 1.272 . S
C67 O59 1.311 . S
C67 O61 1.231 . S
O68 Zn50 1.953 . S
O68 C62 1.298 . S
O69 Zn70 1.953 . S
O69 C85 1.225 . S
Zn70 O69 1.953 . S
Zn70 O71 1.949 . S
Zn70 O77 1.919 . S
Zn70 O82 1.924 . S
O71 Zn70 1.949 . S
O71 Zn72 1.923 . S
O71 Zn73 1.950 . S
O71 Zn74 1.945 . S
Zn72 O71 1.923 . S
Zn72 O75 1.933 . S
Zn72 O78 1.941 . S
Zn72 O79 1.965 . S
Zn73 O71 1.950 . S
Zn73 O80 1.938 . S
Zn73 O81 1.906 . S
Zn73 O91 1.953 . S
Zn74 O71 1.945 . S
Zn74 O76 1.932 . S
Zn74 O83 1.977 . S
Zn74 O84 1.910 . S
O75 Zn72 1.933 . S
O75 C86 1.226 . S
O76 Zn74 1.932 . S
O76 C86 1.307 . S
O77 Zn70 1.919 . S
O77 C88 1.253 . S
O78 Zn72 1.941 . S
O78 C88 1.283 . S
O79 Zn72 1.965 . S
O79 C87 1.303 . S
O80 Zn73 1.938 . S
O80 C87 1.247 . S
O81 Zn73 1.906 . S
O81 C89 1.304 . S
O82 Zn70 1.924 . S
O82 C90 1.311 . S
O83 Zn74 1.977 . S
O83 C89 1.272 . S
O84 Zn74 1.910 . S
O84 C90 1.231 . S
C85 O69 1.225 . S
C85 O91 1.298 . S
C86 O75 1.226 . S
C86 O76 1.307 . S
C87 O79 1.303 . S
C87 O80 1.247 . S
C88 O77 1.253 . S
C88 O78 1.283 . S
C89 O81 1.304 . S
C89 O83 1.272 . S
C90 O82 1.311 . S
C90 O84 1.231 . S
O91 Zn73 1.953 . S
O91 C85 1.298 . S
O92 Zn93 1.953 . S
O92 C108 1.225 . S
Zn93 O92 1.953 . S
Zn93 O94 1.949 . S
Zn93 O100 1.919 . S
Zn93 O105 1.924 . S
O94 Zn93 1.949 . S
O94 Zn95 1.923 . S
O94 Zn96 1.950 . S
O94 Zn97 1.945 . S
Zn95 O94 1.923 . S
Zn95 O98 1.933 . S
Zn95 O101 1.941 . S
Zn95 O102 1.965 . S
Zn96 O94 1.950 . S
Zn96 O103 1.938 . S
Zn96 O104 1.906 . S
Zn96 O114 1.953 . S
Zn97 O94 1.945 . S
Zn97 O99 1.932 . S
Zn97 O106 1.977 . S
Zn97 O107 1.910 . S
O98 Zn95 1.933 . S
O98 C109 1.226 1_455 S
O99 Zn97 1.932 . S
O99 C109 1.307 1_455 S
O100 Zn93 1.919 . S
O100 C111 1.253 . S
O101 Zn95 1.941 . S
O101 C111 1.283 . S
O102 Zn95 1.965 . S
O102 C110 1.303 . S
O103 Zn96 1.938 . S
O103 C110 1.247 . S
O104 Zn96 1.906 . S
O104 C112 1.304 . S
O105 Zn93 1.924 . S
O105 C113 1.311 . S
O106 Zn97 1.977 . S
O106 C112 1.272 . S
O107 Zn97 1.910 . S
O107 C113 1.231 . S
C108 O92 1.225 . S
C108 O114 1.298 . S
C109 O98 1.226 1_655 S
C109 O99 1.307 1_655 S
C110 O102 1.303 . S
C110 O103 1.247 . S
C111 O100 1.253 . S
C111 O101 1.283 . S
C112 O104 1.304 . S
C112 O106 1.272 . S
C113 O105 1.311 . S
C113 O107 1.231 . S
O114 Zn96 1.953 . S
O114 C108 1.298 . S
O115 Zn116 1.953 . S
O115 C131 1.225 . S
Zn116 O115 1.953 . S
Zn116 O117 1.949 . S
Zn116 O123 1.919 . S
Zn116 O128 1.924 . S
O117 Zn116 1.949 . S
O117 Zn118 1.923 . S
O117 Zn119 1.950 . S
O117 Zn120 1.945 . S
Zn118 O117 1.923 . S
Zn118 O121 1.933 . S
Zn118 O124 1.941 . S
Zn118 O125 1.965 . S
Zn119 O117 1.950 . S
Zn119 O126 1.938 . S
Zn119 O127 1.906 . S
Zn119 O137 1.953 . S
Zn120 O117 1.945 . S
Zn120 O122 1.932 . S
Zn120 O129 1.977 . S
Zn120 O130 1.910 . S
O121 Zn118 1.933 . S
O121 C132 1.226 1_545 S
O122 Zn120 1.932 . S
O122 C132 1.307 1_545 S
O123 Zn116 1.919 . S
O123 C134 1.253 . S
O124 Zn118 1.941 . S
O124 C134 1.283 . S
O125 Zn118 1.965 . S
O125 C133 1.303 . S
O126 Zn119 1.938 . S
O126 C133 1.247 . S
O127 Zn119 1.906 . S
O127 C135 1.304 . S
O128 Zn116 1.924 . S
O128 C136 1.311 . S
O129 Zn120 1.977 . S
O129 C135 1.272 . S
O130 Zn120 1.910 . S
O130 C136 1.231 . S
C131 O115 1.225 . S
C131 O137 1.298 . S
C132 O121 1.226 1_565 S
C132 O122 1.307 1_565 S
C133 O125 1.303 . S
C133 O126 1.247 . S
C134 O123 1.253 . S
C134 O124 1.283 . S
C135 O127 1.304 . S
C135 O129 1.272 . S
C136 O128 1.311 . S
C136 O130 1.231 . S
O137 Zn119 1.953 . S
O137 C131 1.298 . S
O138 Zn139 1.953 . S
O138 C154 1.225 . S
Zn139 O138 1.953 . S
Zn139 O140 1.949 . S
Zn139 O146 1.919 . S
Zn139 O151 1.924 . S
O140 Zn139 1.949 . S
O140 Zn141 1.923 . S
O140 Zn142 1.950 . S
O140 Zn143 1.945 . S
Zn141 O140 1.923 . S
Zn141 O144 1.933 . S
Zn141 O147 1.941 . S
Zn141 O148 1.965 . S
Zn142 O140 1.950 . S
Zn142 O149 1.938 . S
Zn142 O150 1.906 . S
Zn142 O160 1.953 . S
Zn143 O140 1.945 . S
Zn143 O145 1.932 . S
Zn143 O152 1.977 . S
Zn143 O153 1.910 . S
O144 Zn141 1.933 . S
O144 C155 1.226 . S
O145 Zn143 1.932 . S
O145 C155 1.307 . S
O146 Zn139 1.919 . S
O146 C157 1.253 . S
O147 Zn141 1.941 . S
O147 C157 1.283 . S
O148 Zn141 1.965 . S
O148 C156 1.303 . S
O149 Zn142 1.938 . S
O149 C156 1.247 . S
O150 Zn142 1.906 . S
O150 C158 1.304 . S
O151 Zn139 1.924 . S
O151 C159 1.311 . S
O152 Zn143 1.977 . S
O152 C158 1.272 . S
O153 Zn143 1.910 . S
O153 C159 1.231 . S
C154 O138 1.225 . S
C154 O160 1.298 . S
C155 O144 1.226 . S
C155 O145 1.307 . S
C156 O148 1.303 . S
C156 O149 1.247 . S
C157 O146 1.253 . S
C157 O147 1.283 . S
C158 O150 1.304 . S
C158 O152 1.272 . S
C159 O151 1.311 . S
C159 O153 1.231 . S
O160 Zn142 1.953 . S
O160 C154 1.298 . S
O161 Zn162 1.953 . S
O161 C177 1.225 . S
Zn162 O161 1.953 . S
Zn162 O163 1.949 . S
Zn162 O169 1.919 . S
Zn162 O174 1.924 . S
O163 Zn162 1.949 . S
O163 Zn164 1.923 . S
O163 Zn165 1.950 . S
O163 Zn166 1.945 . S
Zn164 O163 1.923 . S
Zn164 O167 1.933 . S
Zn164 O170 1.941 . S
Zn164 O171 1.965 . S
Zn165 O163 1.950 . S
Zn165 O172 1.938 . S
Zn165 O173 1.906 . S
Zn165 O183 1.953 . S
Zn166 O163 1.945 . S
Zn166 O168 1.932 . S
Zn166 O175 1.977 . S
Zn166 O176 1.910 . S
O167 Zn164 1.933 . S
O167 C178 1.226 1_655 S
O168 Zn166 1.932 . S
O168 C178 1.307 1_655 S
O169 Zn162 1.919 . S
O169 C180 1.253 . S
O170 Zn164 1.941 . S
O170 C180 1.283 . S
O171 Zn164 1.965 . S
O171 C179 1.303 . S
O172 Zn165 1.938 . S
O172 C179 1.247 . S
O173 Zn165 1.906 . S
O173 C181 1.304 . S
O174 Zn162 1.924 . S
O174 C182 1.311 . S
O175 Zn166 1.977 . S
O175 C181 1.272 . S
O176 Zn166 1.910 . S
O176 C182 1.231 . S
C177 O161 1.225 . S
C177 O183 1.298 . S
C178 O167 1.226 1_455 S
C178 O168 1.307 1_455 S
C179 O171 1.303 . S
C179 O172 1.247 . S
C180 O169 1.253 . S
C180 O170 1.283 . S
C181 O173 1.304 . S
C181 O175 1.272 . S
C182 O174 1.311 . S
C182 O176 1.231 . S
O183 Zn165 1.953 . S
O183 C177 1.298 . S
O184 Zn185 1.953 . S
O184 C200 1.225 . S
Zn185 O184 1.953 . S
Zn185 O186 1.949 . S
Zn185 O192 1.919 . S
Zn185 O197 1.924 . S
O186 Zn185 1.949 . S
O186 Zn187 1.923 . S
O186 Zn188 1.950 . S
O186 Zn189 1.945 . S
Zn187 O186 1.923 . S
Zn187 O190 1.933 . S
Zn187 O193 1.941 . S
Zn187 O194 1.965 . S
Zn188 O186 1.950 . S
Zn188 O195 1.938 . S
Zn188 O196 1.906 . S
Zn188 O206 1.953 . S
Zn189 O186 1.945 . S
Zn189 O191 1.932 . S
Zn189 O198 1.977 . S
Zn189 O199 1.910 . S
O190 Zn187 1.933 . S
O190 C201 1.226 1_565 S
O191 Zn189 1.932 . S
O191 C201 1.307 1_565 S
O192 Zn185 1.919 . S
O192 C203 1.253 . S
O193 Zn187 1.941 . S
O193 C203 1.283 . S
O194 Zn187 1.965 . S
O194 C202 1.303 . S
O195 Zn188 1.938 . S
O195 C202 1.247 . S
O196 Zn188 1.906 . S
O196 C204 1.304 . S
O197 Zn185 1.924 . S
O197 C205 1.311 . S
O198 Zn189 1.977 . S
O198 C204 1.272 . S
O199 Zn189 1.910 . S
O199 C205 1.231 . S
C200 O184 1.225 . S
C200 O206 1.298 . S
C201 O190 1.226 1_545 S
C201 O191 1.307 1_545 S
C202 O194 1.303 . S
C202 O195 1.247 . S
C203 O192 1.253 . S
C203 O193 1.283 . S
C204 O196 1.304 . S
C204 O198 1.272 . S
C205 O197 1.311 . S
C205 O199 1.231 . S
O206 Zn188 1.953 . S
O206 C200 1.298 . S
O207 Zn208 1.953 . S
O207 C223 1.225 . S
Zn208 O207 1.953 . S
Zn208 O209 1.949 . S
Zn208 O215 1.919 . S
Zn208 O220 1.924 . S
O209 Zn208 1.949 . S
O209 Zn210 1.923 . S
O209 Zn211 1.950 . S
O209 Zn212 1.945 . S
Zn210 O209 1.923 . S
Zn210 O213 1.933 . S
Zn210 O216 1.941 . S
Zn210 O217 1.965 . S
Zn211 O209 1.950 . S
Zn211 O218 1.938 . S
Zn211 O219 1.906 . S
Zn211 O229 1.953 . S
Zn212 O209 1.945 . S
Zn212 O214 1.932 . S
Zn212 O221 1.977 . S
Zn212 O222 1.910 . S
O213 Zn210 1.933 . S
O213 C224 1.226 . S
O214 Zn212 1.932 . S
O214 C224 1.307 . S
O215 Zn208 1.919 . S
O215 C226 1.253 . S
O216 Zn210 1.941 . S
O216 C226 1.283 . S
O217 Zn210 1.965 . S
O217 C225 1.303 . S
O218 Zn211 1.938 . S
O218 C225 1.247 . S
O219 Zn211 1.906 . S
O219 C227 1.304 . S
O220 Zn208 1.924 . S
O220 C228 1.311 . S
O221 Zn212 1.977 . S
O221 C227 1.272 . S
O222 Zn212 1.910 . S
O222 C228 1.231 . S
C223 O207 1.225 . S
C223 O229 1.298 . S
C224 O213 1.226 . S
C224 O214 1.307 . S
C225 O217 1.303 . S
C225 O218 1.247 . S
C226 O215 1.253 . S
C226 O216 1.283 . S
C227 O219 1.304 . S
C227 O221 1.272 . S
C228 O220 1.311 . S
C228 O222 1.231 . S
O229 Zn211 1.953 . S
O229 C223 1.298 . S
O230 Zn231 1.953 . S
O230 C246 1.225 . S
Zn231 O230 1.953 . S
Zn231 O232 1.949 . S
Zn231 O238 1.919 . S
Zn231 O243 1.924 . S
O232 Zn231 1.949 . S
O232 Zn233 1.923 . S
O232 Zn234 1.950 . S
O232 Zn235 1.945 . S
Zn233 O232 1.923 . S
Zn233 O236 1.933 . S
Zn233 O239 1.941 . S
Zn233 O240 1.965 . S
Zn234 O232 1.950 . S
Zn234 O241 1.938 . S
Zn234 O242 1.906 . S
Zn234 O252 1.953 . S
Zn235 O232 1.945 . S
Zn235 O237 1.932 . S
Zn235 O244 1.977 . S
Zn235 O245 1.910 . S
O236 Zn233 1.933 . S
O236 C247 1.226 1_455 S
O237 Zn235 1.932 . S
O237 C247 1.307 1_455 S
O238 Zn231 1.919 . S
O238 C249 1.253 . S
O239 Zn233 1.941 . S
O239 C249 1.283 . S
O240 Zn233 1.965 . S
O240 C248 1.303 . S
O241 Zn234 1.938 . S
O241 C248 1.247 . S
O242 Zn234 1.906 . S
O242 C250 1.304 . S
O243 Zn231 1.924 . S
O243 C251 1.311 . S
O244 Zn235 1.977 . S
O244 C250 1.272 . S
O245 Zn235 1.910 . S
O245 C251 1.231 . S
C246 O230 1.225 . S
C246 O252 1.298 . S
C247 O236 1.226 1_655 S
C247 O237 1.307 1_655 S
C248 O240 1.303 . S
C248 O241 1.247 . S
C249 O238 1.253 . S
C249 O239 1.283 . S
C250 O242 1.304 . S
C250 O244 1.272 . S
C251 O243 1.311 . S
C251 O245 1.231 . S
O252 Zn234 1.953 . S
O252 C246 1.298 . S
O253 Zn254 1.953 . S
O253 C269 1.225 . S
Zn254 O253 1.953 . S
Zn254 O255 1.949 . S
Zn254 O261 1.919 . S
Zn254 O266 1.924 . S
O255 Zn254 1.949 . S
O255 Zn256 1.923 . S
O255 Zn257 1.950 . S
O255 Zn258 1.945 . S
Zn256 O255 1.923 . S
Zn256 O259 1.933 . S
Zn256 O262 1.941 . S
Zn256 O263 1.965 . S
Zn257 O255 1.950 . S
Zn257 O264 1.938 . S
Zn257 O265 1.906 . S
Zn257 O275 1.953 . S
Zn258 O255 1.945 . S
Zn258 O260 1.932 . S
Zn258 O267 1.977 . S
Zn258 O268 1.910 . S
O259 Zn256 1.933 . S
O259 C270 1.226 1_545 S
O260 Zn258 1.932 . S
O260 C270 1.307 1_545 S
O261 Zn254 1.919 . S
O261 C272 1.253 . S
O262 Zn256 1.941 . S
O262 C272 1.283 . S
O263 Zn256 1.965 . S
O263 C271 1.303 . S
O264 Zn257 1.938 . S
O264 C271 1.247 . S
O265 Zn257 1.906 . S
O265 C273 1.304 . S
O266 Zn254 1.924 . S
O266 C274 1.311 . S
O267 Zn258 1.977 . S
O267 C273 1.272 . S
O268 Zn258 1.910 . S
O268 C274 1.231 . S
C269 O253 1.225 . S
C269 O275 1.298 . S
C270 O259 1.226 1_565 S
C270 O260 1.307 1_565 S
C271 O263 1.303 . S
C271 O264 1.247 . S
C272 O261 1.253 . S
C272 O262 1.283 . S
C273 O265 1.304 . S
C273 O267 1.272 . S
C274 O266 1.311 . S
C274 O268 1.231 . S
O275 Zn257 1.953 . S
O275 C269 1.298 . S
H276 C288 0.930 . S
H277 C290 0.930 . S
H278 C291 0.930 . S
H279 C295 0.959 . S
H280 C295 0.959 . S
H281 C295 0.961 . S
H282 C296 0.960 . S
H283 C296 0.961 . S
H284 C296 0.959 . S
H285 C299 0.929 . S
H286 C300 0.931 . S
H287 C302 0.930 . S
C288 H276 0.930 . S
C288 C289 1.399 1_545 S
C288 C293 1.399 . S
C289 C288 1.399 1_565 S
C289 C290 1.376 . S
C290 H277 0.930 . S
C290 C289 1.376 . S
C290 C291 1.388 1_565 S
C291 H278 0.930 . S
C291 C290 1.388 1_545 S
C291 C292 1.390 . S
C292 C291 1.390 . S
C292 C293 1.394 . S
C292 C298 1.465 . S
C293 C288 1.399 . S
C293 C292 1.394 . S
C293 C294 1.516 . S
C294 C293 1.516 . S
C294 C295 1.502 . S
C294 C296 1.561 . S
C294 C297 1.526 . S
C295 H279 0.959 . S
C295 H280 0.959 . S
C295 H281 0.961 . S
C295 C294 1.502 . S
C296 H282 0.960 . S
C296 H283 0.961 . S
C296 H284 0.959 . S
C296 C294 1.561 . S
C297 C294 1.526 . S
C297 C298 1.396 . S
C297 C302 1.390 . S
C298 C292 1.465 . S
C298 C297 1.396 . S
C298 C299 1.399 . S
C299 H285 0.929 . S
C299 C298 1.399 . S
C299 C300 1.385 . S
C300 H286 0.931 . S
C300 C299 1.385 . S
C300 C301 1.389 . S
C301 C300 1.389 . S
C301 C302 1.387 . S
C302 H287 0.930 . S
C302 C297 1.390 . S
C302 C301 1.387 . S
H303 C315 0.930 . S
H304 C317 0.930 . S
H305 C318 0.930 . S
H306 C322 0.959 . S
H307 C322 0.959 . S
H308 C322 0.961 . S
H309 C323 0.960 . S
H310 C323 0.961 . S
H311 C323 0.959 . S
H312 C326 0.929 . S
H313 C327 0.931 . S
H314 C329 0.930 . S
C315 H303 0.930 . S
C315 C316 1.399 . S
C315 C320 1.399 . S
C316 C315 1.399 . S
C316 C317 1.376 . S
C317 H304 0.930 . S
C317 C316 1.376 . S
C317 C318 1.388 . S
C318 H305 0.930 . S
C318 C317 1.388 . S
C318 C319 1.390 . S
C319 C318 1.390 . S
C319 C320 1.394 . S
C319 C325 1.465 . S
C320 C315 1.399 . S
C320 C319 1.394 . S
C320 C321 1.516 . S
C321 C320 1.516 . S
C321 C322 1.502 . S
C321 C323 1.561 . S
C321 C324 1.526 . S
C322 H306 0.959 . S
C322 H307 0.959 . S
C322 H308 0.961 . S
C322 C321 1.502 . S
C323 H309 0.960 . S
C323 H310 0.961 . S
C323 H311 0.959 . S
C323 C321 1.561 . S
C324 C321 1.526 . S
C324 C325 1.396 . S
C324 C329 1.390 . S
C325 C319 1.465 . S
C325 C324 1.396 . S
C325 C326 1.399 . S
C326 H312 0.929 . S
C326 C325 1.399 . S
C326 C327 1.385 . S
C327 H313 0.931 . S
C327 C326 1.385 . S
C327 C328 1.389 . S
C328 C327 1.389 . S
C328 C329 1.387 . S
C329 H314 0.930 . S
C329 C324 1.390 . S
C329 C328 1.387 . S
H330 C342 0.930 . S
H331 C344 0.930 . S
H332 C345 0.930 . S
H333 C349 0.959 . S
H334 C349 0.959 . S
H335 C349 0.961 . S
H336 C350 0.960 . S
H337 C350 0.961 . S
H338 C350 0.959 . S
H339 C353 0.929 . S
H340 C354 0.931 . S
H341 C356 0.930 . S
C342 H330 0.930 . S
C342 C343 1.399 . S
C342 C347 1.399 . S
C343 C342 1.399 . S
C343 C344 1.376 . S
C344 H331 0.930 . S
C344 C343 1.376 . S
C344 C345 1.388 . S
C345 H332 0.930 . S
C345 C344 1.388 . S
C345 C346 1.390 . S
C346 C345 1.390 . S
C346 C347 1.394 . S
C346 C352 1.465 . S
C347 C342 1.399 . S
C347 C346 1.394 . S
C347 C348 1.516 . S
C348 C347 1.516 . S
C348 C349 1.502 . S
C348 C350 1.561 . S
C348 C351 1.526 . S
C349 H333 0.959 . S
C349 H334 0.959 . S
C349 H335 0.961 . S
C349 C348 1.502 . S
C350 H336 0.960 . S
C350 H337 0.961 . S
C350 H338 0.959 . S
C350 C348 1.561 . S
C351 C348 1.526 . S
C351 C352 1.396 . S
C351 C356 1.390 1_655 S
C352 C346 1.465 . S
C352 C351 1.396 . S
C352 C353 1.399 . S
C353 H339 0.929 . S
C353 C352 1.399 . S
C353 C354 1.385 1_655 S
C354 H340 0.931 . S
C354 C353 1.385 1_455 S
C354 C355 1.389 . S
C355 C354 1.389 . S
C355 C356 1.387 . S
C356 H341 0.930 . S
C356 C351 1.390 1_455 S
C356 C355 1.387 . S
H357 C369 0.930 . S
H358 C371 0.930 . S
H359 C372 0.930 . S
H360 C376 0.959 . S
H361 C376 0.959 . S
H362 C376 0.961 . S
H363 C377 0.960 . S
H364 C377 0.961 . S
H365 C377 0.959 . S
H366 C380 0.929 . S
H367 C381 0.931 . S
H368 C383 0.930 . S
C369 H357 0.930 . S
C369 C370 1.399 . S
C369 C374 1.399 . S
C370 C369 1.399 . S
C370 C371 1.376 . S
C371 H358 0.930 . S
C371 C370 1.376 . S
C371 C372 1.388 . S
C372 H359 0.930 . S
C372 C371 1.388 . S
C372 C373 1.390 . S
C373 C372 1.390 . S
C373 C374 1.394 . S
C373 C379 1.465 . S
C374 C369 1.399 . S
C374 C373 1.394 . S
C374 C375 1.516 . S
C375 C374 1.516 . S
C375 C376 1.502 . S
C375 C377 1.561 . S
C375 C378 1.526 . S
C376 H360 0.959 . S
C376 H361 0.959 . S
C376 H362 0.961 . S
C376 C375 1.502 . S
C377 H363 0.960 . S
C377 H364 0.961 . S
C377 H365 0.959 . S
C377 C375 1.561 . S
C378 C375 1.526 . S
C378 C379 1.396 . S
C378 C383 1.390 1_565 S
C379 C373 1.465 . S
C379 C378 1.396 . S
C379 C380 1.399 . S
C380 H366 0.929 . S
C380 C379 1.399 . S
C380 C381 1.385 1_565 S
C381 H367 0.931 . S
C381 C380 1.385 1_545 S
C381 C382 1.389 . S
C382 C381 1.389 . S
C382 C383 1.387 . S
C383 H368 0.930 . S
C383 C378 1.390 1_545 S
C383 C382 1.387 . S
H384 C396 0.930 . S
H385 C398 0.930 1_455 S
H386 C399 0.930 . S
H387 C403 0.959 . S
H388 C403 0.959 . S
H389 C403 0.961 . S
H390 C404 0.960 . S
H391 C404 0.961 . S
H392 C404 0.959 . S
H393 C407 0.929 . S
H394 C408 0.931 . S
H395 C410 0.930 . S
C396 H384 0.930 . S
C396 C397 1.399 . S
C396 C401 1.399 . S
C397 C396 1.399 . S
C397 C398 1.376 . S
C398 H385 0.930 1_655 S
C398 C397 1.376 . S
C398 C399 1.388 . S
C399 H386 0.930 . S
C399 C398 1.388 . S
C399 C400 1.390 . S
C400 C399 1.390 . S
C400 C401 1.394 . S
C400 C406 1.465 . S
C401 C396 1.399 . S
C401 C400 1.394 . S
C401 C402 1.516 . S
C402 C401 1.516 . S
C402 C403 1.502 . S
C402 C404 1.561 . S
C402 C405 1.526 . S
C403 H387 0.959 . S
C403 H388 0.959 . S
C403 H389 0.961 . S
C403 C402 1.502 . S
C404 H390 0.960 . S
C404 H391 0.961 . S
C404 H392 0.959 . S
C404 C402 1.561 . S
C405 C402 1.526 . S
C405 C406 1.396 . S
C405 C410 1.390 . S
C406 C400 1.465 . S
C406 C405 1.396 . S
C406 C407 1.399 . S
C407 H393 0.929 . S
C407 C406 1.399 . S
C407 C408 1.385 . S
C408 H394 0.931 . S
C408 C407 1.385 . S
C408 C409 1.389 . S
C409 C408 1.389 . S
C409 C410 1.387 . S
C410 H395 0.930 . S
C410 C405 1.390 . S
C410 C409 1.387 . S
H411 C423 0.930 . S
H412 C425 0.930 . S
H413 C426 0.930 . S
H414 C430 0.959 . S
H415 C430 0.959 . S
H416 C430 0.961 . S
H417 C431 0.960 . S
H418 C431 0.961 . S
H419 C431 0.959 . S
H420 C434 0.929 . S
H421 C435 0.931 . S
H422 C437 0.930 . S
C423 H411 0.930 . S
C423 C424 1.399 . S
C423 C428 1.399 1_655 S
C424 C423 1.399 . S
C424 C425 1.376 . S
C425 H412 0.930 . S
C425 C424 1.376 . S
C425 C426 1.388 1_655 S
C426 H413 0.930 . S
C426 C425 1.388 1_455 S
C426 C427 1.390 . S
C427 C426 1.390 . S
C427 C428 1.394 . S
C427 C433 1.465 . S
C428 C423 1.399 1_455 S
C428 C427 1.394 . S
C428 C429 1.516 . S
C429 C428 1.516 . S
C429 C430 1.502 . S
C429 C431 1.561 . S
C429 C432 1.526 . S
C430 H414 0.959 . S
C430 H415 0.959 . S
C430 H416 0.961 . S
C430 C429 1.502 . S
C431 H417 0.960 . S
C431 H418 0.961 . S
C431 H419 0.959 . S
C431 C429 1.561 . S
C432 C429 1.526 . S
C432 C433 1.396 . S
C432 C437 1.390 . S
C433 C427 1.465 . S
C433 C432 1.396 . S
C433 C434 1.399 . S
C434 H420 0.929 . S
C434 C433 1.399 . S
C434 C435 1.385 . S
C435 H421 0.931 . S
C435 C434 1.385 . S
C435 C436 1.389 . S
C436 C435 1.389 . S
C436 C437 1.387 . S
C437 H422 0.930 . S
C437 C432 1.390 . S
C437 C436 1.387 . S
H438 C450 0.930 . S
H439 C452 0.930 . S
H440 C453 0.927 . S
H441 C457 0.959 . S
H442 C457 0.959 . S
H443 C457 0.961 . S
H444 C458 0.960 . S
H445 C458 0.961 . S
H446 C458 0.959 . S
H447 C461 0.929 . S
H448 C462 0.931 . S
H449 C464 0.930 . S
C450 H438 0.930 . S
C450 C451 1.399 1_655 S
C450 C455 1.399 . S
C451 C450 1.399 1_455 S
C451 C452 1.376 . S
C452 H439 0.930 . S
C452 C451 1.376 . S
C452 C453 1.388 1_455 S
C453 H440 0.927 . S
C453 C452 1.388 1_655 S
C453 C454 1.390 . S
C454 C453 1.390 . S
C454 C455 1.394 . S
C454 C460 1.465 . S
C455 C450 1.399 . S
C455 C454 1.394 . S
C455 C456 1.516 . S
C456 C455 1.516 . S
C456 C457 1.502 . S
C456 C458 1.561 . S
C456 C459 1.526 . S
C457 H441 0.959 . S
C457 H442 0.959 . S
C457 H443 0.961 . S
C457 C456 1.502 . S
C458 H444 0.960 . S
C458 H445 0.961 . S
C458 H446 0.959 . S
C458 C456 1.561 . S
C459 C456 1.526 . S
C459 C460 1.396 . S
C459 C464 1.390 . S
C460 C454 1.465 . S
C460 C459 1.396 . S
C460 C461 1.399 . S
C461 H447 0.929 . S
C461 C460 1.399 . S
C461 C462 1.385 . S
C462 H448 0.931 . S
C462 C461 1.385 . S
C462 C463 1.389 . S
C463 C462 1.389 . S
C463 C464 1.387 . S
C464 H449 0.930 . S
C464 C459 1.390 . S
C464 C463 1.387 . S
H465 C477 0.930 . S
H466 C479 0.930 1_655 S
H467 C480 0.930 . S
H468 C484 0.959 . S
H469 C484 0.959 . S
H470 C484 0.961 . S
H471 C485 0.960 . S
H472 C485 0.961 . S
H473 C485 0.959 . S
H474 C488 0.929 . S
H475 C489 0.931 . S
H476 C491 0.930 . S
C477 H465 0.930 . S
C477 C478 1.399 . S
C477 C482 1.399 . S
C478 C477 1.399 . S
C478 C479 1.376 . S
C479 H466 0.930 1_455 S
C479 C478 1.376 . S
C479 C480 1.388 . S
C480 H467 0.930 . S
C480 C479 1.388 . S
C480 C481 1.390 . S
C481 C480 1.390 . S
C481 C482 1.394 . S
C481 C487 1.465 . S
C482 C477 1.399 . S
C482 C481 1.394 . S
C482 C483 1.516 . S
C483 C482 1.516 . S
C483 C484 1.502 . S
C483 C485 1.561 . S
C483 C486 1.526 . S
C484 H468 0.959 . S
C484 H469 0.959 . S
C484 H470 0.961 . S
C484 C483 1.502 . S
C485 H471 0.960 . S
C485 H472 0.961 . S
C485 H473 0.959 . S
C485 C483 1.561 . S
C486 C483 1.526 . S
C486 C487 1.396 . S
C486 C491 1.390 . S
C487 C481 1.465 . S
C487 C486 1.396 . S
C487 C488 1.399 . S
C488 H474 0.929 . S
C488 C487 1.399 . S
C488 C489 1.385 1_565 S
C489 H475 0.931 . S
C489 C488 1.385 1_545 S
C489 C490 1.389 . S
C490 C489 1.389 . S
C490 C491 1.387 1_545 S
C491 H476 0.930 . S
C491 C486 1.390 . S
C491 C490 1.387 1_565 S
H492 C504 0.930 . S
H493 C506 0.930 . S
H494 C507 0.930 . S
H495 C511 0.959 . S
H496 C511 0.959 . S
H497 C511 0.961 . S
H498 C512 0.960 . S
H499 C512 0.961 . S
H500 C512 0.959 . S
H501 C515 0.929 . S
H502 C516 0.931 . S
H503 C518 0.930 . S
C504 H492 0.930 . S
C504 C505 1.399 . S
C504 C509 1.399 . S
C505 C504 1.399 . S
C505 C506 1.376 . S
C506 H493 0.930 . S
C506 C505 1.376 . S
C506 C507 1.388 . S
C507 H494 0.930 . S
C507 C506 1.388 . S
C507 C508 1.390 . S
C508 C507 1.390 . S
C508 C509 1.394 . S
C508 C514 1.465 . S
C509 C504 1.399 . S
C509 C508 1.394 . S
C509 C510 1.516 . S
C510 C509 1.516 . S
C510 C511 1.502 . S
C510 C512 1.561 . S
C510 C513 1.526 . S
C511 H495 0.959 . S
C511 H496 0.959 . S
C511 H497 0.961 . S
C511 C510 1.502 . S
C512 H498 0.960 . S
C512 H499 0.961 . S
C512 H500 0.959 . S
C512 C510 1.561 . S
C513 C510 1.526 . S
C513 C514 1.396 . S
C513 C518 1.390 . S
C514 C508 1.465 . S
C514 C513 1.396 . S
C514 C515 1.399 . S
C515 H501 0.929 . S
C515 C514 1.399 . S
C515 C516 1.385 . S
C516 H502 0.931 . S
C516 C515 1.385 . S
C516 C517 1.389 . S
C517 C516 1.389 . S
C517 C518 1.387 . S
C518 H503 0.930 . S
C518 C513 1.390 . S
C518 C517 1.387 . S
H519 C531 0.930 . S
H520 C533 0.930 . S
H521 C534 0.930 . S
H522 C538 0.959 . S
H523 C538 0.959 . S
H524 C538 0.961 . S
H525 C539 0.960 . S
H526 C539 0.961 . S
H527 C539 0.959 . S
H528 C542 0.929 . S
H529 C543 0.931 . S
H530 C545 0.934 . S
C531 H519 0.930 . S
C531 C532 1.399 . S
C531 C536 1.399 . S
C532 C531 1.399 . S
C532 C533 1.376 . S
C533 H520 0.930 . S
C533 C532 1.376 . S
C533 C534 1.388 . S
C534 H521 0.930 . S
C534 C533 1.388 . S
C534 C535 1.390 . S
C535 C534 1.390 . S
C535 C536 1.394 . S
C535 C541 1.465 . S
C536 C531 1.399 . S
C536 C535 1.394 . S
C536 C537 1.516 . S
C537 C536 1.516 . S
C537 C538 1.502 . S
C537 C539 1.561 . S
C537 C540 1.526 . S
C538 H522 0.959 . S
C538 H523 0.959 . S
C538 H524 0.961 . S
C538 C537 1.502 . S
C539 H525 0.960 . S
C539 H526 0.961 . S
C539 H527 0.959 . S
C539 C537 1.561 . S
C540 C537 1.526 . S
C540 C541 1.396 . S
C540 C545 1.373 1_455 S
C541 C535 1.465 . S
C541 C540 1.396 . S
C541 C542 1.399 . S
C542 H528 0.929 . S
C542 C541 1.399 . S
C542 C543 1.385 1_455 S
C543 H529 0.931 . S
C543 C542 1.385 1_655 S
C543 C544 1.389 . S
C544 C543 1.389 . S
C544 C545 1.400 . S
C545 H530 0.934 . S
C545 C540 1.373 1_655 S
C545 C544 1.400 . S
H546 C558 0.930 . S
H547 C560 0.930 . S
H548 C561 0.930 . S
H549 C565 0.959 . S
H550 C565 0.959 . S
H551 C565 0.961 . S
H552 C566 0.960 . S
H553 C566 0.961 . S
H554 C566 0.959 . S
H555 C569 0.929 . S
H556 C570 0.931 . S
H557 C572 0.930 . S
C558 H546 0.930 . S
C558 C559 1.399 . S
C558 C563 1.399 . S
C559 C558 1.399 . S
C559 C560 1.376 . S
C560 H547 0.930 . S
C560 C559 1.376 . S
C560 C561 1.388 . S
C561 H548 0.930 . S
C561 C560 1.388 . S
C561 C562 1.390 . S
C562 C561 1.390 . S
C562 C563 1.394 . S
C562 C568 1.465 . S
C563 C558 1.399 . S
C563 C562 1.394 . S
C563 C564 1.516 . S
C564 C563 1.516 . S
C564 C565 1.502 . S
C564 C566 1.561 . S
C564 C567 1.526 . S
C565 H549 0.959 . S
C565 H550 0.959 . S
C565 H551 0.961 . S
C565 C564 1.502 . S
C566 H552 0.960 . S
C566 H553 0.961 . S
C566 H554 0.959 . S
C566 C564 1.561 . S
C567 C564 1.526 . S
C567 C568 1.396 . S
C567 C572 1.390 1_545 S
C568 C562 1.465 . S
C568 C567 1.396 . S
C568 C569 1.399 . S
C569 H555 0.929 . S
C569 C568 1.399 . S
C569 C570 1.385 1_545 S
C570 H556 0.931 . S
C570 C569 1.385 1_565 S
C570 C571 1.389 . S
C571 C570 1.389 . S
C571 C572 1.387 . S
C572 H557 0.930 . S
C572 C567 1.390 1_565 S
C572 C571 1.387 . S
H573 C585 0.930 . S
H574 C587 0.930 . S
H575 C588 0.930 . S
H576 C592 0.959 . S
H577 C592 0.959 . S
H578 C592 0.961 . S
H579 C593 0.960 . S
H580 C593 0.961 . S
H581 C593 0.959 . S
H582 C596 0.929 . S
H583 C597 0.931 . S
H584 C599 0.930 . S
C585 H573 0.930 . S
C585 C586 1.399 . S
C585 C590 1.399 . S
C586 C585 1.399 . S
C586 C587 1.376 . S
C587 H574 0.930 . S
C587 C586 1.376 . S
C587 C588 1.388 . S
C588 H575 0.930 . S
C588 C587 1.388 . S
C588 C589 1.390 . S
C589 C588 1.390 . S
C589 C590 1.394 . S
C589 C595 1.465 . S
C590 C585 1.399 . S
C590 C589 1.394 . S
C590 C591 1.516 . S
C591 C590 1.516 . S
C591 C592 1.502 . S
C591 C593 1.561 . S
C591 C594 1.526 . S
C592 H576 0.959 . S
C592 H577 0.959 . S
C592 H578 0.961 . S
C592 C591 1.502 . S
C593 H579 0.960 . S
C593 H580 0.961 . S
C593 H581 0.959 . S
C593 C591 1.561 . S
C594 C591 1.526 . S
C594 C595 1.396 . S
C594 C599 1.390 . S
C595 C589 1.465 . S
C595 C594 1.396 . S
C595 C596 1.399 . S
C596 H582 0.929 . S
C596 C595 1.399 . S
C596 C597 1.385 . S
C597 H583 0.931 . S
C597 C596 1.385 . S
C597 C598 1.389 . S
C598 C597 1.389 . S
C598 C599 1.387 . S
C599 H584 0.930 . S
C599 C594 1.390 . S
C599 C598 1.387 . S
H600 C612 0.930 . S
H601 C614 0.930 . S
H602 C615 0.930 . S
H603 C619 0.959 . S
H604 C619 0.959 . S
H605 C619 0.961 . S
H606 C620 0.960 . S
H607 C620 0.961 . S
H608 C620 0.959 . S
H609 C623 0.929 . S
H610 C624 0.931 . S
H611 C626 0.930 . S
C612 H600 0.930 . S
C612 C613 1.399 . S
C612 C617 1.399 . S
C613 C612 1.399 . S
C613 C614 1.376 . S
C614 H601 0.930 . S
C614 C613 1.376 . S
C614 C615 1.388 . S
C615 H602 0.930 . S
C615 C614 1.388 . S
C615 C616 1.390 . S
C616 C615 1.390 . S
C616 C617 1.394 . S
C616 C622 1.465 . S
C617 C612 1.399 . S
C617 C616 1.394 . S
C617 C618 1.516 . S
C618 C617 1.516 . S
C618 C619 1.502 . S
C618 C620 1.561 . S
C618 C621 1.526 . S
C619 H603 0.959 . S
C619 H604 0.959 . S
C619 H605 0.961 . S
C619 C618 1.502 . S
C620 H606 0.960 . S
C620 H607 0.961 . S
C620 H608 0.959 . S
C620 C618 1.561 . S
C621 C618 1.526 . S
C621 C622 1.396 . S
C621 C626 1.390 . S
C622 C616 1.465 . S
C622 C621 1.396 . S
C622 C623 1.399 . S
C623 H609 0.929 . S
C623 C622 1.399 . S
C623 C624 1.385 . S
C624 H610 0.931 . S
C624 C623 1.385 . S
C624 C625 1.389 . S
C625 C624 1.389 . S
C625 C626 1.387 . S
C626 H611 0.930 . S
C626 C621 1.390 . S
C626 C625 1.387 . S
H627 C639 0.930 . S
H628 C641 0.930 . S
H629 C642 0.930 . S
H630 C646 0.959 . S
H631 C646 0.959 . S
H632 C646 0.961 . S
H633 C647 0.960 . S
H634 C647 0.961 . S
H635 C647 0.959 . S
H636 C650 0.929 . S
H637 C651 0.931 . S
H638 C653 0.930 . S
C639 H627 0.930 . S
C639 C640 1.399 . S
C639 C644 1.399 . S
C640 C639 1.399 . S
C640 C641 1.376 . S
C641 H628 0.930 . S
C641 C640 1.376 . S
C641 C642 1.388 . S
C642 H629 0.930 . S
C642 C641 1.388 . S
C642 C643 1.390 . S
C643 C642 1.390 . S
C643 C644 1.394 . S
C643 C649 1.465 . S
C644 C639 1.399 . S
C644 C643 1.394 . S
C644 C645 1.516 . S
C645 C644 1.516 . S
C645 C646 1.502 . S
C645 C647 1.561 . S
C645 C648 1.526 . S
C646 H630 0.959 . S
C646 H631 0.959 . S
C646 H632 0.961 . S
C646 C645 1.502 . S
C647 H633 0.960 . S
C647 H634 0.961 . S
C647 H635 0.959 . S
C647 C645 1.561 . S
C648 C645 1.526 . S
C648 C649 1.396 . S
C648 C653 1.390 . S
C649 C643 1.465 . S
C649 C648 1.396 . S
C649 C650 1.399 . S
C650 H636 0.929 . S
C650 C649 1.399 . S
C650 C651 1.385 . S
C651 H637 0.931 . S
C651 C650 1.385 . S
C651 C652 1.389 . S
C652 C651 1.389 . S
C652 C653 1.387 . S
C653 H638 0.930 . S
C653 C648 1.390 . S
C653 C652 1.387 . S
H654 C666 0.930 . S
H655 C668 0.930 . S
H656 C669 0.930 . S
H657 C673 0.959 . S
H658 C673 0.959 . S
H659 C673 0.961 . S
H660 C674 0.960 . S
H661 C674 0.961 . S
H662 C674 0.959 . S
H663 C677 0.929 . S
H664 C678 0.931 . S
H665 C680 0.930 . S
C666 H654 0.930 . S
C666 C667 1.399 . S
C666 C671 1.399 . S
C667 C666 1.399 . S
C667 C668 1.376 . S
C668 H655 0.930 . S
C668 C667 1.376 . S
C668 C669 1.388 . S
C669 H656 0.930 . S
C669 C668 1.388 . S
C669 C670 1.390 . S
C670 C669 1.390 . S
C670 C671 1.394 . S
C670 C676 1.465 . S
C671 C666 1.399 . S
C671 C670 1.394 . S
C671 C672 1.516 . S
C672 C671 1.516 . S
C672 C673 1.502 . S
C672 C674 1.561 . S
C672 C675 1.526 . S
C673 H657 0.959 . S
C673 H658 0.959 . S
C673 H659 0.961 . S
C673 C672 1.502 . S
C674 H660 0.960 . S
C674 H661 0.961 . S
C674 H662 0.959 . S
C674 C672 1.561 . S
C675 C672 1.526 . S
C675 C676 1.396 . S
C675 C680 1.390 . S
C676 C670 1.465 . S
C676 C675 1.396 . S
C676 C677 1.399 . S
C677 H663 0.929 . S
C677 C676 1.399 . S
C677 C678 1.385 . S
C678 H664 0.931 . S
C678 C677 1.385 . S
C678 C679 1.389 . S
C679 C678 1.389 . S
C679 C680 1.387 . S
C680 H665 0.930 . S
C680 C675 1.390 . S
C680 C679 1.387 . S
H681 C693 0.930 . S
H682 C695 0.930 . S
H683 C696 0.930 . S
H684 C700 0.959 . S
H685 C700 0.959 . S
H686 C700 0.961 . S
H687 C701 0.960 . S
H688 C701 0.961 . S
H689 C701 0.959 . S
H690 C704 0.929 . S
H691 C705 0.931 . S
H692 C707 0.930 . S
C693 H681 0.930 . S
C693 C694 1.399 . S
C693 C698 1.399 . S
C694 C693 1.399 . S
C694 C695 1.376 . S
C695 H682 0.930 . S
C695 C694 1.376 . S
C695 C696 1.388 . S
C696 H683 0.930 . S
C696 C695 1.388 . S
C696 C697 1.390 . S
C697 C696 1.390 . S
C697 C698 1.394 . S
C697 C703 1.465 . S
C698 C693 1.399 . S
C698 C697 1.394 . S
C698 C699 1.516 . S
C699 C698 1.516 . S
C699 C700 1.502 . S
C699 C701 1.561 . S
C699 C702 1.526 . S
C700 H684 0.959 . S
C700 H685 0.959 . S
C700 H686 0.961 . S
C700 C699 1.502 . S
C701 H687 0.960 . S
C701 H688 0.961 . S
C701 H689 0.959 . S
C701 C699 1.561 . S
C702 C699 1.526 . S
C702 C703 1.396 . S
C702 C707 1.390 . S
C703 C697 1.465 . S
C703 C702 1.396 . S
C703 C704 1.399 . S
C704 H690 0.929 . S
C704 C703 1.399 . S
C704 C705 1.385 . S
C705 H691 0.931 . S
C705 C704 1.385 . S
C705 C706 1.389 . S
C706 C705 1.389 . S
C706 C707 1.387 . S
C707 H692 0.930 . S
C707 C702 1.390 . S
C707 C706 1.387 . S
H708 C720 0.930 . S
H709 C722 0.930 . S
H710 C723 0.930 . S
H711 C727 0.959 . S
H712 C727 0.959 . S
H713 C727 0.961 . S
H714 C728 0.960 . S
H715 C728 0.961 . S
H716 C728 0.959 . S
H717 C731 0.929 . S
H718 C732 0.931 . S
H719 C734 0.930 . S
C720 H708 0.930 . S
C720 C721 1.399 . S
C720 C725 1.399 . S
C721 C720 1.399 . S
C721 C722 1.376 . S
C722 H709 0.930 . S
C722 C721 1.376 . S
C722 C723 1.388 . S
C723 H710 0.930 . S
C723 C722 1.388 . S
C723 C724 1.390 . S
C724 C723 1.390 . S
C724 C725 1.394 . S
C724 C730 1.465 . S
C725 C720 1.399 . S
C725 C724 1.394 . S
C725 C726 1.516 . S
C726 C725 1.516 . S
C726 C727 1.502 . S
C726 C728 1.561 . S
C726 C729 1.526 . S
C727 H711 0.959 . S
C727 H712 0.959 . S
C727 H713 0.961 . S
C727 C726 1.502 . S
C728 H714 0.960 . S
C728 H715 0.961 . S
C728 H716 0.959 . S
C728 C726 1.561 . S
C729 C726 1.526 . S
C729 C730 1.396 . S
C729 C734 1.390 . S
C730 C724 1.465 . S
C730 C729 1.396 . S
C730 C731 1.399 . S
C731 H717 0.929 . S
C731 C730 1.399 . S
C731 C732 1.385 . S
C732 H718 0.931 . S
C732 C731 1.385 . S
C732 C733 1.389 . S
C733 C732 1.389 . S
C733 C734 1.387 . S
C734 H719 0.930 . S
C734 C729 1.390 . S
C734 C733 1.387 . S
H735 C747 0.930 . S
H736 C749 0.930 . S
H737 C750 0.930 . S
H738 C754 0.959 . S
H739 C754 0.959 . S
H740 C754 0.961 . S
H741 C755 0.960 . S
H742 C755 0.961 . S
H743 C755 0.959 . S
H744 C758 0.929 . S
H745 C759 0.931 . S
H746 C761 0.930 . S
C747 H735 0.930 . S
C747 C748 1.399 . S
C747 C752 1.399 . S
C748 C747 1.399 . S
C748 C749 1.376 . S
C749 H736 0.930 . S
C749 C748 1.376 . S
C749 C750 1.388 . S
C750 H737 0.930 . S
C750 C749 1.388 . S
C750 C751 1.390 . S
C751 C750 1.390 . S
C751 C752 1.394 . S
C751 C757 1.465 . S
C752 C747 1.399 . S
C752 C751 1.394 . S
C752 C753 1.516 . S
C753 C752 1.516 . S
C753 C754 1.502 . S
C753 C755 1.561 . S
C753 C756 1.526 . S
C754 H738 0.959 . S
C754 H739 0.959 . S
C754 H740 0.961 . S
C754 C753 1.502 . S
C755 H741 0.960 . S
C755 H742 0.961 . S
C755 H743 0.959 . S
C755 C753 1.561 . S
C756 C753 1.526 . S
C756 C757 1.396 . S
C756 C761 1.390 . S
C757 C751 1.465 . S
C757 C756 1.396 . S
C757 C758 1.399 . S
C758 H744 0.929 . S
C758 C757 1.399 . S
C758 C759 1.385 . S
C759 H745 0.931 . S
C759 C758 1.385 . S
C759 C760 1.389 . S
C760 C759 1.389 . S
C760 C761 1.387 . S
C761 H746 0.930 . S
C761 C756 1.390 . S
C761 C760 1.387 . S
H762 C774 0.930 . S
H763 C776 0.930 . S
H764 C777 0.930 . S
H765 C781 0.959 . S
H766 C781 0.959 . S
H767 C781 0.961 . S
H768 C782 0.960 . S
H769 C782 0.961 . S
H770 C782 0.959 . S
H771 C785 0.929 . S
H772 C786 0.931 . S
H773 C788 0.930 . S
C774 H762 0.930 . S
C774 C775 1.399 . S
C774 C779 1.399 . S
C775 C774 1.399 . S
C775 C776 1.376 . S
C776 H763 0.930 . S
C776 C775 1.376 . S
C776 C777 1.388 . S
C777 H764 0.930 . S
C777 C776 1.388 . S
C777 C778 1.390 . S
C778 C777 1.390 . S
C778 C779 1.394 . S
C778 C784 1.465 . S
C779 C774 1.399 . S
C779 C778 1.394 . S
C779 C780 1.516 . S
C780 C779 1.516 . S
C780 C781 1.502 . S
C780 C782 1.561 . S
C780 C783 1.526 . S
C781 H765 0.959 . S
C781 H766 0.959 . S
C781 H767 0.961 . S
C781 C780 1.502 . S
C782 H768 0.960 . S
C782 H769 0.961 . S
C782 H770 0.959 . S
C782 C780 1.561 . S
C783 C780 1.526 . S
C783 C784 1.396 . S
C783 C788 1.390 . S
C784 C778 1.465 . S
C784 C783 1.396 . S
C784 C785 1.399 . S
C785 H771 0.929 . S
C785 C784 1.399 . S
C785 C786 1.385 . S
C786 H772 0.931 . S
C786 C785 1.385 . S
C786 C787 1.389 . S
C787 C786 1.389 . S
C787 C788 1.387 . S
C788 H773 0.930 . S
C788 C783 1.390 . S
C788 C787 1.387 . S
H789 C801 0.930 . S
H790 C803 0.930 . S
H791 C804 0.930 . S
H792 C808 0.959 . S
H793 C808 0.959 . S
H794 C808 0.961 . S
H795 C809 0.960 . S
H796 C809 0.961 . S
H797 C809 0.959 . S
H798 C812 0.929 . S
H799 C813 0.931 . S
H800 C815 0.930 . S
C801 H789 0.930 . S
C801 C802 1.399 . S
C801 C806 1.399 . S
C802 C801 1.399 . S
C802 C803 1.376 . S
C803 H790 0.930 . S
C803 C802 1.376 . S
C803 C804 1.388 . S
C804 H791 0.930 . S
C804 C803 1.388 . S
C804 C805 1.390 . S
C805 C804 1.390 . S
C805 C806 1.394 . S
C805 C811 1.465 . S
C806 C801 1.399 . S
C806 C805 1.394 . S
C806 C807 1.516 . S
C807 C806 1.516 . S
C807 C808 1.502 . S
C807 C809 1.561 . S
C807 C810 1.526 . S
C808 H792 0.959 . S
C808 H793 0.959 . S
C808 H794 0.961 . S
C808 C807 1.502 . S
C809 H795 0.960 . S
C809 H796 0.961 . S
C809 H797 0.959 . S
C809 C807 1.561 . S
C810 C807 1.526 . S
C810 C811 1.396 . S
C810 C815 1.390 . S
C811 C805 1.465 . S
C811 C810 1.396 . S
C811 C812 1.399 . S
C812 H798 0.929 . S
C812 C811 1.399 . S
C812 C813 1.385 . S
C813 H799 0.931 . S
C813 C812 1.385 . S
C813 C814 1.389 . S
C814 C813 1.389 . S
C814 C815 1.387 . S
C815 H800 0.930 . S
C815 C810 1.390 . S
C815 C814 1.387 . S
H816 C828 0.930 . S
H817 C830 0.930 . S
H818 C831 0.930 . S
H819 C835 0.959 . S
H820 C835 0.959 . S
H821 C835 0.961 . S
H822 C836 0.960 . S
H823 C836 0.961 . S
H824 C836 0.959 . S
H825 C839 0.929 . S
H826 C840 0.931 . S
H827 C842 0.930 . S
C828 H816 0.930 . S
C828 C829 1.399 . S
C828 C833 1.399 . S
C829 C828 1.399 . S
C829 C830 1.376 . S
C830 H817 0.930 . S
C830 C829 1.376 . S
C830 C831 1.388 . S
C831 H818 0.930 . S
C831 C830 1.388 . S
C831 C832 1.390 . S
C832 C831 1.390 . S
C832 C833 1.394 . S
C832 C838 1.465 . S
C833 C828 1.399 . S
C833 C832 1.394 . S
C833 C834 1.516 . S
C834 C833 1.516 . S
C834 C835 1.502 . S
C834 C836 1.561 . S
C834 C837 1.526 . S
C835 H819 0.959 . S
C835 H820 0.959 . S
C835 H821 0.961 . S
C835 C834 1.502 . S
C836 H822 0.960 . S
C836 H823 0.961 . S
C836 H824 0.959 . S
C836 C834 1.561 . S
C837 C834 1.526 . S
C837 C838 1.396 . S
C837 C842 1.390 . S
C838 C832 1.465 . S
C838 C837 1.396 . S
C838 C839 1.399 . S
C839 H825 0.929 . S
C839 C838 1.399 . S
C839 C840 1.385 . S
C840 H826 0.931 . S
C840 C839 1.385 . S
C840 C841 1.389 . S
C841 C840 1.389 . S
C841 C842 1.387 . S
C842 H827 0.930 . S
C842 C837 1.390 . S
C842 C841 1.387 . S
H843 C855 0.930 . S
H844 C857 0.930 . S
H845 C858 0.930 . S
H846 C862 0.959 . S
H847 C862 0.959 . S
H848 C862 0.961 . S
H849 C863 0.960 . S
H850 C863 0.961 . S
H851 C863 0.959 . S
H852 C866 0.929 . S
H853 C867 0.931 . S
H854 C869 0.930 . S
C855 H843 0.930 . S
C855 C856 1.399 . S
C855 C860 1.399 . S
C856 C855 1.399 . S
C856 C857 1.376 . S
C857 H844 0.930 . S
C857 C856 1.376 . S
C857 C858 1.388 . S
C858 H845 0.930 . S
C858 C857 1.388 . S
C858 C859 1.390 . S
C859 C858 1.390 . S
C859 C860 1.394 . S
C859 C865 1.465 . S
C860 C855 1.399 . S
C860 C859 1.394 . S
C860 C861 1.516 . S
C861 C860 1.516 . S
C861 C862 1.502 . S
C861 C863 1.561 . S
C861 C864 1.526 . S
C862 H846 0.959 . S
C862 H847 0.959 . S
C862 H848 0.961 . S
C862 C861 1.502 . S
C863 H849 0.960 . S
C863 H850 0.961 . S
C863 H851 0.959 . S
C863 C861 1.561 . S
C864 C861 1.526 . S
C864 C865 1.396 . S
C864 C869 1.390 . S
C865 C859 1.465 . S
C865 C864 1.396 . S
C865 C866 1.399 . S
C866 H852 0.929 . S
C866 C865 1.399 . S
C866 C867 1.385 . S
C867 H853 0.931 . S
C867 C866 1.385 . S
C867 C868 1.389 . S
C868 C867 1.389 . S
C868 C869 1.387 . S
C869 H854 0.930 . S
C869 C864 1.390 . S
C869 C868 1.387 . S
H870 C882 0.930 . S
H871 C884 0.930 . S
H872 C885 0.930 . S
H873 C889 0.959 . S
H874 C889 0.959 . S
H875 C889 0.961 . S
H876 C890 0.960 . S
H877 C890 0.961 . S
H878 C890 0.959 . S
H879 C893 0.929 . S
H880 C894 0.931 . S
H881 C896 0.930 . S
C882 H870 0.930 . S
C882 C883 1.399 . S
C882 C887 1.399 . S
C883 C882 1.399 . S
C883 C884 1.376 . S
C884 H871 0.930 . S
C884 C883 1.376 . S
C884 C885 1.388 . S
C885 H872 0.930 . S
C885 C884 1.388 . S
C885 C886 1.390 . S
C886 C885 1.390 . S
C886 C887 1.394 . S
C886 C892 1.465 . S
C887 C882 1.399 . S
C887 C886 1.394 . S
C887 C888 1.516 . S
C888 C887 1.516 . S
C888 C889 1.502 . S
C888 C890 1.561 . S
C888 C891 1.526 . S
C889 H873 0.959 . S
C889 H874 0.959 . S
C889 H875 0.961 . S
C889 C888 1.502 . S
C890 H876 0.960 . S
C890 H877 0.961 . S
C890 H878 0.959 . S
C890 C888 1.561 . S
C891 C888 1.526 . S
C891 C892 1.396 . S
C891 C896 1.390 . S
C892 C886 1.465 . S
C892 C891 1.396 . S
C892 C893 1.399 . S
C893 H879 0.929 . S
C893 C892 1.399 . S
C893 C894 1.385 . S
C894 H880 0.931 . S
C894 C893 1.385 . S
C894 C895 1.389 . S
C895 C894 1.389 . S
C895 C896 1.387 . S
C896 H881 0.930 . S
C896 C891 1.390 . S
C896 C895 1.387 . S
H897 C909 0.930 . S
H898 C911 0.930 . S
H899 C912 0.930 . S
H900 C916 0.959 . S
H901 C916 0.959 . S
H902 C916 0.961 . S
H903 C917 0.960 . S
H904 C917 0.961 . S
H905 C917 0.959 . S
H906 C920 0.929 . S
H907 C921 0.931 . S
H908 C923 0.930 . S
C909 H897 0.930 . S
C909 C910 1.399 . S
C909 C914 1.399 . S
C910 C909 1.399 . S
C910 C911 1.376 . S
C911 H898 0.930 . S
C911 C910 1.376 . S
C911 C912 1.388 . S
C912 H899 0.930 . S
C912 C911 1.388 . S
C912 C913 1.390 . S
C913 C912 1.390 . S
C913 C914 1.394 . S
C913 C919 1.465 . S
C914 C909 1.399 . S
C914 C913 1.394 . S
C914 C915 1.516 . S
C915 C914 1.516 . S
C915 C916 1.502 . S
C915 C917 1.561 . S
C915 C918 1.526 . S
C916 H900 0.959 . S
C916 H901 0.959 . S
C916 H902 0.961 . S
C916 C915 1.502 . S
C917 H903 0.960 . S
C917 H904 0.961 . S
C917 H905 0.959 . S
C917 C915 1.561 . S
C918 C915 1.526 . S
C918 C919 1.396 . S
C918 C923 1.390 . S
C919 C913 1.465 . S
C919 C918 1.396 . S
C919 C920 1.399 . S
C920 H906 0.929 . S
C920 C919 1.399 . S
C920 C921 1.385 . S
C921 H907 0.931 . S
C921 C920 1.385 . S
C921 C922 1.389 . S
C922 C921 1.389 . S
C922 C923 1.387 . S
C923 H908 0.930 . S
C923 C918 1.390 . S
C923 C922 1.387 . S
H924 C936 0.930 . S
H925 C938 0.930 . S
H926 C939 0.930 . S
H927 C943 0.959 . S
H928 C943 0.959 . S
H929 C943 0.961 . S
H930 C944 0.960 . S
H931 C944 0.961 . S
H932 C944 0.959 . S
H933 C947 0.929 . S
H934 C948 0.931 . S
H935 C950 0.930 . S
C936 H924 0.930 . S
C936 C937 1.399 . S
C936 C941 1.399 . S
C937 C936 1.399 . S
C937 C938 1.376 . S
C938 H925 0.930 . S
C938 C937 1.376 . S
C938 C939 1.388 . S
C939 H926 0.930 . S
C939 C938 1.388 . S
C939 C940 1.390 . S
C940 C939 1.390 . S
C940 C941 1.394 . S
C940 C946 1.465 . S
C941 C936 1.399 . S
C941 C940 1.394 . S
C941 C942 1.516 . S
C942 C941 1.516 . S
C942 C943 1.502 . S
C942 C944 1.561 . S
C942 C945 1.526 . S
C943 H927 0.959 . S
C943 H928 0.959 . S
C943 H929 0.961 . S
C943 C942 1.502 . S
C944 H930 0.960 . S
C944 H931 0.961 . S
C944 H932 0.959 . S
C944 C942 1.561 . S
C945 C942 1.526 . S
C945 C946 1.396 . S
C945 C950 1.390 . S
C946 C940 1.465 . S
C946 C945 1.396 . S
C946 C947 1.399 . S
C947 H933 0.929 . S
C947 C946 1.399 . S
C947 C948 1.385 . S
C948 H934 0.931 . S
C948 C947 1.385 . S
C948 C949 1.389 . S
C949 C948 1.389 . S
C949 C950 1.387 . S
C950 H935 0.930 . S
C950 C945 1.390 . S
C950 C949 1.387 . S
H951 C963 0.930 . S
H952 C965 0.930 . S
H953 C966 0.930 . S
H954 C970 0.959 . S
H955 C970 0.959 . S
H956 C970 0.961 . S
H957 C971 0.960 . S
H958 C971 0.961 . S
H959 C971 0.959 . S
H960 C974 0.929 . S
H961 C975 0.931 . S
H962 C977 0.930 . S
C963 H951 0.930 . S
C963 C964 1.399 . S
C963 C968 1.399 . S
C964 C963 1.399 . S
C964 C965 1.376 . S
C965 H952 0.930 . S
C965 C964 1.376 . S
C965 C966 1.388 . S
C966 H953 0.930 . S
C966 C965 1.388 . S
C966 C967 1.390 . S
C967 C966 1.390 . S
C967 C968 1.394 . S
C967 C973 1.465 . S
C968 C963 1.399 . S
C968 C967 1.394 . S
C968 C969 1.516 . S
C969 C968 1.516 . S
C969 C970 1.502 . S
C969 C971 1.561 . S
C969 C972 1.526 . S
C970 H954 0.959 . S
C970 H955 0.959 . S
C970 H956 0.961 . S
C970 C969 1.502 . S
C971 H957 0.960 . S
C971 H958 0.961 . S
C971 H959 0.959 . S
C971 C969 1.561 . S
C972 C969 1.526 . S
C972 C973 1.396 . S
C972 C977 1.390 . S
C973 C967 1.465 . S
C973 C972 1.396 . S
C973 C974 1.399 . S
C974 H960 0.929 . S
C974 C973 1.399 . S
C974 C975 1.385 . S
C975 H961 0.931 . S
C975 C974 1.385 . S
C975 C976 1.389 . S
C976 C975 1.389 . S
C976 C977 1.387 . S
C977 H962 0.930 . S
C977 C972 1.390 . S
C977 C976 1.387 . S
H978 C990 0.930 . S
H979 C992 0.930 . S
H980 C993 0.930 . S
H981 C997 0.959 . S
H982 C997 0.959 . S
H983 C997 0.961 . S
H984 C998 0.960 . S
H985 C998 0.961 . S
H986 C998 0.959 . S
H987 C1001 0.929 . S
H988 C1002 0.931 . S
H989 C1004 0.930 . S
C990 H978 0.930 . S
C990 C991 1.399 . S
C990 C995 1.399 . S
C991 C990 1.399 . S
C991 C992 1.376 . S
C992 H979 0.930 . S
C992 C991 1.376 . S
C992 C993 1.388 . S
C993 H980 0.930 . S
C993 C992 1.388 . S
C993 C994 1.390 . S
C994 C993 1.390 . S
C994 C995 1.394 . S
C994 C1000 1.465 . S
C995 C990 1.399 . S
C995 C994 1.394 . S
C995 C996 1.516 . S
C996 C995 1.516 . S
C996 C997 1.502 . S
C996 C998 1.561 . S
C996 C999 1.526 . S
C997 H981 0.959 . S
C997 H982 0.959 . S
C997 H983 0.961 . S
C997 C996 1.502 . S
C998 H984 0.960 . S
C998 H985 0.961 . S
C998 H986 0.959 . S
C998 C996 1.561 . S
C999 C996 1.526 . S
C999 C1000 1.396 . S
C999 C1004 1.390 . S
C1000 C994 1.465 . S
C1000 C999 1.396 . S
C1000 C1001 1.399 . S
C1001 H987 0.929 . S
C1001 C1000 1.399 . S
C1001 C1002 1.385 . S
C1002 H988 0.931 . S
C1002 C1001 1.385 . S
C1002 C1003 1.389 . S
C1003 C1002 1.389 . S
C1003 C1004 1.387 . S
C1004 H989 0.930 . S
C1004 C999 1.390 . S
C1004 C1003 1.387 . S
H1005 C1017 0.930 . S
H1006 C1019 0.930 . S
H1007 C1020 0.930 . S
H1008 C1024 0.959 . S
H1009 C1024 0.959 . S
H1010 C1024 0.961 . S
H1011 C1025 0.960 . S
H1012 C1025 0.961 . S
H1013 C1025 0.959 . S
H1014 C1028 0.929 . S
H1015 C1029 0.931 . S
H1016 C1031 0.930 . S
C1017 H1005 0.930 . S
C1017 C1018 1.399 . S
C1017 C1022 1.399 . S
C1018 C1017 1.399 . S
C1018 C1019 1.376 . S
C1019 H1006 0.930 . S
C1019 C1018 1.376 . S
C1019 C1020 1.388 . S
C1020 H1007 0.930 . S
C1020 C1019 1.388 . S
C1020 C1021 1.390 . S
C1021 C1020 1.390 . S
C1021 C1022 1.394 . S
C1021 C1027 1.465 . S
C1022 C1017 1.399 . S
C1022 C1021 1.394 . S
C1022 C1023 1.516 . S
C1023 C1022 1.516 . S
C1023 C1024 1.502 . S
C1023 C1025 1.561 . S
C1023 C1026 1.526 . S
C1024 H1008 0.959 . S
C1024 H1009 0.959 . S
C1024 H1010 0.961 . S
C1024 C1023 1.502 . S
C1025 H1011 0.960 . S
C1025 H1012 0.961 . S
C1025 H1013 0.959 . S
C1025 C1023 1.561 . S
C1026 C1023 1.526 . S
C1026 C1027 1.396 . S
C1026 C1031 1.390 . S
C1027 C1021 1.465 . S
C1027 C1026 1.396 . S
C1027 C1028 1.399 . S
C1028 H1014 0.929 . S
C1028 C1027 1.399 . S
C1028 C1029 1.385 . S
C1029 H1015 0.931 . S
C1029 C1028 1.385 . S
C1029 C1030 1.389 . S
C1030 C1029 1.389 . S
C1030 C1031 1.387 . S
C1031 H1016 0.930 . S
C1031 C1026 1.390 . S
C1031 C1030 1.387 . S
H1032 C1044 0.930 . S
H1033 C1046 0.930 . S
H1034 C1047 0.930 . S
H1035 C1051 0.959 . S
H1036 C1051 0.959 . S
H1037 C1051 0.961 . S
H1038 C1052 0.960 . S
H1039 C1052 0.961 . S
H1040 C1052 0.959 . S
H1041 C1055 0.929 . S
H1042 C1056 0.931 . S
H1043 C1058 0.930 . S
C1044 H1032 0.930 . S
C1044 C1045 1.399 . S
C1044 C1049 1.399 . S
C1045 C1044 1.399 . S
C1045 C1046 1.376 . S
C1046 H1033 0.930 . S
C1046 C1045 1.376 . S
C1046 C1047 1.388 . S
C1047 H1034 0.930 . S
C1047 C1046 1.388 . S
C1047 C1048 1.390 . S
C1048 C1047 1.390 . S
C1048 C1049 1.394 . S
C1048 C1054 1.465 . S
C1049 C1044 1.399 . S
C1049 C1048 1.394 . S
C1049 C1050 1.516 . S
C1050 C1049 1.516 . S
C1050 C1051 1.502 . S
C1050 C1052 1.561 . S
C1050 C1053 1.526 . S
C1051 H1035 0.959 . S
C1051 H1036 0.959 . S
C1051 H1037 0.961 . S
C1051 C1050 1.502 . S
C1052 H1038 0.960 . S
C1052 H1039 0.961 . S
C1052 H1040 0.959 . S
C1052 C1050 1.561 . S
C1053 C1050 1.526 . S
C1053 C1054 1.396 . S
C1053 C1058 1.390 . S
C1054 C1048 1.465 . S
C1054 C1053 1.396 . S
C1054 C1055 1.399 . S
C1055 H1041 0.929 . S
C1055 C1054 1.399 . S
C1055 C1056 1.385 . S
C1056 H1042 0.931 . S
C1056 C1055 1.385 . S
C1056 C1057 1.389 . S
C1057 C1056 1.389 . S
C1057 C1058 1.387 . S
C1058 H1043 0.930 . S
C1058 C1053 1.390 . S
C1058 C1057 1.387 . S
H1059 C1071 0.930 . S
H1060 C1073 0.930 . S
H1061 C1074 0.930 . S
H1062 C1078 0.959 . S
H1063 C1078 0.959 . S
H1064 C1078 0.961 . S
H1065 C1079 0.960 . S
H1066 C1079 0.961 . S
H1067 C1079 0.959 . S
H1068 C1082 0.929 . S
H1069 C1083 0.931 . S
H1070 C1085 0.930 . S
C1071 H1059 0.930 . S
C1071 C1072 1.399 . S
C1071 C1076 1.399 . S
C1072 C1071 1.399 . S
C1072 C1073 1.376 . S
C1073 H1060 0.930 . S
C1073 C1072 1.376 . S
C1073 C1074 1.388 . S
C1074 H1061 0.930 . S
C1074 C1073 1.388 . S
C1074 C1075 1.390 . S
C1075 C1074 1.390 . S
C1075 C1076 1.394 . S
C1075 C1081 1.465 . S
C1076 C1071 1.399 . S
C1076 C1075 1.394 . S
C1076 C1077 1.516 . S
C1077 C1076 1.516 . S
C1077 C1078 1.502 . S
C1077 C1079 1.561 . S
C1077 C1080 1.526 . S
C1078 H1062 0.959 . S
C1078 H1063 0.959 . S
C1078 H1064 0.961 . S
C1078 C1077 1.502 . S
C1079 H1065 0.960 . S
C1079 H1066 0.961 . S
C1079 H1067 0.959 . S
C1079 C1077 1.561 . S
C1080 C1077 1.526 . S
C1080 C1081 1.396 . S
C1080 C1085 1.390 . S
C1081 C1075 1.465 . S
C1081 C1080 1.396 . S
C1081 C1082 1.399 . S
C1082 H1068 0.929 . S
C1082 C1081 1.399 . S
C1082 C1083 1.385 . S
C1083 H1069 0.931 . S
C1083 C1082 1.385 . S
C1083 C1084 1.389 . S
C1084 C1083 1.389 . S
C1084 C1085 1.387 . S
C1085 H1070 0.930 . S
C1085 C1080 1.390 . S
C1085 C1084 1.387 . S
H1086 C1098 0.930 . S
H1087 C1100 0.930 . S
H1088 C1101 0.930 . S
H1089 C1105 0.959 . S
H1090 C1105 0.959 . S
H1091 C1105 0.961 1_556 S
H1092 C1106 0.960 . S
H1093 C1106 0.961 . S
H1094 C1106 0.959 . S
H1095 C1109 0.929 . S
H1096 C1110 0.931 . S
H1097 C1112 0.930 . S
C1098 H1086 0.930 . S
C1098 C1099 1.399 . S
C1098 C1103 1.399 . S
C1099 C1098 1.399 . S
C1099 C1100 1.376 . S
C1100 H1087 0.930 . S
C1100 C1099 1.376 . S
C1100 C1101 1.388 . S
C1101 H1088 0.930 . S
C1101 C1100 1.388 . S
C1101 C1102 1.390 . S
C1102 C1101 1.390 . S
C1102 C1103 1.394 . S
C1102 C1108 1.465 1_556 S
C1103 C1098 1.399 . S
C1103 C1102 1.394 . S
C1103 C1104 1.516 . S
C1104 C1103 1.516 . S
C1104 C1105 1.502 1_556 S
C1104 C1106 1.561 . S
C1104 C1107 1.526 1_556 S
C1105 H1089 0.959 . S
C1105 H1090 0.959 . S
C1105 H1091 0.961 1_554 S
C1105 C1104 1.502 1_554 S
C1106 H1092 0.960 . S
C1106 H1093 0.961 . S
C1106 H1094 0.959 . S
C1106 C1104 1.561 . S
C1107 C1104 1.526 1_554 S
C1107 C1108 1.396 . S
C1107 C1112 1.390 . S
C1108 C1102 1.465 1_554 S
C1108 C1107 1.396 . S
C1108 C1109 1.399 . S
C1109 H1095 0.929 . S
C1109 C1108 1.399 . S
C1109 C1110 1.385 . S
C1110 H1096 0.931 . S
C1110 C1109 1.385 . S
C1110 C1111 1.389 . S
C1111 C1110 1.389 . S
C1111 C1112 1.387 . S
C1112 H1097 0.930 . S
C1112 C1107 1.390 . S
C1112 C1111 1.387 . S
H1113 C1125 0.930 . S
H1114 C1127 0.930 . S
H1115 C1128 0.930 . S
H1116 C1132 0.959 . S
H1117 C1132 0.959 . S
H1118 C1132 0.961 . S
H1119 C1133 0.960 . S
H1120 C1133 0.961 . S
H1121 C1133 0.959 1_655 S
H1122 C1136 0.929 . S
H1123 C1137 0.931 . S
H1124 C1139 0.930 . S
C1125 H1113 0.930 . S
C1125 C1126 1.399 . S
C1125 C1130 1.399 . S
C1126 C1125 1.399 . S
C1126 C1127 1.376 . S
C1127 H1114 0.930 . S
C1127 C1126 1.376 . S
C1127 C1128 1.388 1_455 S
C1128 H1115 0.930 . S
C1128 C1127 1.388 1_655 S
C1128 C1129 1.390 . S
C1129 C1128 1.390 . S
C1129 C1130 1.394 1_655 S
C1129 C1135 1.465 . S
C1130 C1125 1.399 . S
C1130 C1129 1.394 1_455 S
C1130 C1131 1.516 . S
C1131 C1130 1.516 . S
C1131 C1132 1.502 . S
C1131 C1133 1.561 . S
C1131 C1134 1.526 1_455 S
C1132 H1116 0.959 . S
C1132 H1117 0.959 . S
C1132 H1118 0.961 . S
C1132 C1131 1.502 . S
C1133 H1119 0.960 . S
C1133 H1120 0.961 . S
C1133 H1121 0.959 1_455 S
C1133 C1131 1.561 . S
C1134 C1131 1.526 1_655 S
C1134 C1135 1.396 . S
C1134 C1139 1.390 . S
C1135 C1129 1.465 . S
C1135 C1134 1.396 . S
C1135 C1136 1.399 . S
C1136 H1122 0.929 . S
C1136 C1135 1.399 . S
C1136 C1137 1.385 . S
C1137 H1123 0.931 . S
C1137 C1136 1.385 . S
C1137 C1138 1.389 . S
C1138 C1137 1.389 . S
C1138 C1139 1.387 . S
C1139 H1124 0.930 . S
C1139 C1134 1.390 . S
C1139 C1138 1.387 . S
H1140 C1152 0.930 . S
H1141 C1154 0.930 . S
H1142 C1155 0.930 . S
H1143 C1159 0.959 . S
H1144 C1159 0.959 . S
H1145 C1159 0.961 . S
H1146 C1160 0.960 . S
H1147 C1160 0.961 . S
H1148 C1160 0.959 . S
H1149 C1163 0.929 . S
H1150 C1164 0.931 . S
H1151 C1166 0.930 . S
C1152 H1140 0.930 . S
C1152 C1153 1.399 . S
C1152 C1157 1.399 . S
C1153 C1152 1.399 . S
C1153 C1154 1.376 . S
C1154 H1141 0.930 . S
C1154 C1153 1.376 . S
C1154 C1155 1.388 . S
C1155 H1142 0.930 . S
C1155 C1154 1.388 . S
C1155 C1156 1.390 . S
C1156 C1155 1.390 . S
C1156 C1157 1.394 . S
C1156 C1162 1.465 1_554 S
C1157 C1152 1.399 . S
C1157 C1156 1.394 . S
C1157 C1158 1.516 1_565 S
C1158 C1157 1.516 1_545 S
C1158 C1159 1.502 . S
C1158 C1160 1.561 . S
C1158 C1161 1.526 1_554 S
C1159 H1143 0.959 . S
C1159 H1144 0.959 . S
C1159 H1145 0.961 . S
C1159 C1158 1.502 . S
C1160 H1146 0.960 . S
C1160 H1147 0.961 . S
C1160 H1148 0.959 . S
C1160 C1158 1.561 . S
C1161 C1158 1.526 1_556 S
C1161 C1162 1.396 1_545 S
C1161 C1166 1.390 . S
C1162 C1156 1.465 1_556 S
C1162 C1161 1.396 1_565 S
C1162 C1163 1.399 . S
C1163 H1149 0.929 . S
C1163 C1162 1.399 . S
C1163 C1164 1.385 1_565 S
C1164 H1150 0.931 . S
C1164 C1163 1.385 1_545 S
C1164 C1165 1.389 . S
C1165 C1164 1.389 . S
C1165 C1166 1.387 . S
C1166 H1151 0.930 . S
C1166 C1161 1.390 . S
C1166 C1165 1.387 . S
H1167 C1179 0.930 . S
H1168 C1181 0.930 . S
H1169 C1182 0.930 . S
H1170 C1186 0.959 . S
H1171 C1186 0.959 . S
H1172 C1186 0.961 . S
H1173 C1187 0.960 . S
H1174 C1187 0.961 . S
H1175 C1187 0.959 . S
H1176 C1190 0.929 . S
H1177 C1191 0.931 . S
H1178 C1193 0.930 . S
C1179 H1167 0.930 . S
C1179 C1180 1.399 . S
C1179 C1184 1.399 . S
C1180 C1179 1.399 . S
C1180 C1181 1.376 . S
C1181 H1168 0.930 . S
C1181 C1180 1.376 . S
C1181 C1182 1.388 . S
C1182 H1169 0.930 . S
C1182 C1181 1.388 . S
C1182 C1183 1.390 . S
C1183 C1182 1.390 . S
C1183 C1184 1.394 . S
C1183 C1189 1.465 . S
C1184 C1179 1.399 . S
C1184 C1183 1.394 . S
C1184 C1185 1.516 . S
C1185 C1184 1.516 . S
C1185 C1186 1.502 . S
C1185 C1187 1.561 . S
C1185 C1188 1.526 . S
C1186 H1170 0.959 . S
C1186 H1171 0.959 . S
C1186 H1172 0.961 . S
C1186 C1185 1.502 . S
C1187 H1173 0.960 . S
C1187 H1174 0.961 . S
C1187 H1175 0.959 . S
C1187 C1185 1.561 . S
C1188 C1185 1.526 . S
C1188 C1189 1.396 . S
C1188 C1193 1.390 . S
C1189 C1183 1.465 . S
C1189 C1188 1.396 . S
C1189 C1190 1.399 . S
C1190 H1176 0.929 . S
C1190 C1189 1.399 . S
C1190 C1191 1.385 . S
C1191 H1177 0.931 . S
C1191 C1190 1.385 . S
C1191 C1192 1.389 . S
C1192 C1191 1.389 . S
C1192 C1193 1.387 . S
C1193 H1178 0.930 . S
C1193 C1188 1.390 . S
C1193 C1192 1.387 . S
H1194 C1206 0.930 . S
H1195 C1208 0.930 . S
H1196 C1209 0.930 . S
H1197 C1213 0.959 . S
H1198 C1213 0.959 . S
H1199 C1213 0.961 . S
H1200 C1214 0.960 1_556 S
H1201 C1214 0.961 . S
H1202 C1214 0.959 1_456 S
H1203 C1217 0.929 . S
H1204 C1218 0.931 . S
H1205 C1220 0.930 . S
C1206 H1194 0.930 . S
C1206 C1207 1.399 . S
C1206 C1211 1.399 . S
C1207 C1206 1.399 . S
C1207 C1208 1.376 . S
C1208 H1195 0.930 . S
C1208 C1207 1.376 . S
C1208 C1209 1.388 1_655 S
C1209 H1196 0.930 . S
C1209 C1208 1.388 1_455 S
C1209 C1210 1.390 . S
C1210 C1209 1.390 . S
C1210 C1211 1.394 1_455 S
C1210 C1216 1.465 1_556 S
C1211 C1206 1.399 . S
C1211 C1210 1.394 1_655 S
C1211 C1212 1.516 1_556 S
C1212 C1211 1.516 1_554 S
C1212 C1213 1.502 . S
C1212 C1214 1.561 . S
C1212 C1215 1.526 1_655 S
C1213 H1197 0.959 . S
C1213 H1198 0.959 . S
C1213 H1199 0.961 . S
C1213 C1212 1.502 . S
C1214 H1200 0.960 1_554 S
C1214 H1201 0.961 . S
C1214 H1202 0.959 1_654 S
C1214 C1212 1.561 . S
C1215 C1212 1.526 1_455 S
C1215 C1216 1.396 . S
C1215 C1220 1.390 . S
C1216 C1210 1.465 1_554 S
C1216 C1215 1.396 . S
C1216 C1217 1.399 . S
C1217 H1203 0.929 . S
C1217 C1216 1.399 . S
C1217 C1218 1.385 . S
C1218 H1204 0.931 . S
C1218 C1217 1.385 . S
C1218 C1219 1.389 . S
C1219 C1218 1.389 . S
C1219 C1220 1.387 . S
C1220 H1205 0.930 . S
C1220 C1215 1.390 . S
C1220 C1219 1.387 . S
H1221 C1233 0.930 1_545 S
H1222 C1235 0.930 . S
H1223 C1236 0.930 . S
H1224 C1240 0.959 . S
H1225 C1240 0.959 . S
H1226 C1240 0.961 . S
H1227 C1241 0.960 . S
H1228 C1241 0.961 . S
H1229 C1241 0.959 . S
H1230 C1244 0.929 . S
H1231 C1245 0.931 1_565 S
H1232 C1247 0.930 . S
C1233 H1221 0.930 1_565 S
C1233 C1234 1.399 . S
C1233 C1238 1.401 . S
C1234 C1233 1.399 . S
C1234 C1235 1.376 . S
C1235 H1222 0.930 . S
C1235 C1234 1.376 . S
C1235 C1236 1.388 . S
C1236 H1223 0.930 . S
C1236 C1235 1.388 . S
C1236 C1237 1.390 . S
C1237 C1236 1.390 . S
C1237 C1238 1.396 . S
C1237 C1243 1.465 . S
C1238 C1233 1.401 . S
C1238 C1237 1.396 . S
C1238 C1239 1.512 1_565 S
C1239 C1238 1.512 1_545 S
C1239 C1240 1.502 . S
C1239 C1241 1.561 . S
C1239 C1242 1.526 . S
C1240 H1224 0.959 . S
C1240 H1225 0.959 . S
C1240 H1226 0.961 . S
C1240 C1239 1.502 . S
C1241 H1227 0.960 . S
C1241 H1228 0.961 . S
C1241 H1229 0.959 . S
C1241 C1239 1.561 . S
C1242 C1239 1.526 . S
C1242 C1243 1.396 1_545 S
C1242 C1247 1.390 . S
C1243 C1237 1.465 . S
C1243 C1242 1.396 1_565 S
C1243 C1244 1.399 . S
C1244 H1230 0.929 . S
C1244 C1243 1.399 . S
C1244 C1245 1.385 1_565 S
C1245 H1231 0.931 1_545 S
C1245 C1244 1.385 1_545 S
C1245 C1246 1.389 . S
C1246 C1245 1.389 . S
C1246 C1247 1.387 . S
C1247 H1232 0.930 . S
C1247 C1242 1.390 . S
C1247 C1246 1.387 . S
C289 C113 0.754 . S
C301 C17 0.812 . S
C316 C136 0.885 . S
C328 C40 0.838 . S
C343 C63 0.876 . S
C355 C21 0.842 . S
C370 C86 0.776 . S
C382 C44 0.806 . S
C397 C109 0.785 . S
C409 C67 0.755 . S
C424 C90 0.864 . S
C436 C132 0.877 . S
C451 C205 0.750 . S
C463 C155 0.796 . S
C478 C178 0.832 . S
C490 C228 0.769 . S
C505 C251 0.876 . S
C517 C201 0.824 . S
C532 C224 0.870 . S
C544 C274 0.824 . S
C559 C247 0.875 . S
C571 C159 0.841 . S
C586 C182 0.772 . S
C598 C270 0.836 . S
C613 C110 1.121 . S
C625 C16 1.132 . S
C640 C39 1.137 . S
C652 C133 1.143 . S
C667 C62 1.118 . S
C679 C18 1.109 . S
C694 C85 1.141 . S
C706 C41 1.134 . S
C721 C64 1.105 . S
C733 C108 1.107 . S
C748 C87 1.141 . S
C760 C131 1.144 . S
C775 C202 1.110 . S
C787 C154 1.108 . S
C802 C177 1.126 . S
C814 C225 1.134 . S
C829 C200 1.121 . S
C841 C248 1.110 . S
C856 C271 1.131 . S
C868 C223 1.139 . S
C883 C246 1.119 . S
C895 C156 1.109 . S
C910 C179 1.103 . S
C922 C269 1.109 . S
C937 C250 1.471 . S
C949 C20 1.521 . S
C964 C43 1.461 . S
C976 C273 1.530 . S
C991 C66 1.512 . S
C1003 C158 1.482 . S
C1018 C89 1.513 . S
C1030 C181 1.479 . S
C1045 C112 1.530 . S
C1057 C204 1.463 . S
C1072 C227 1.518 . S
C1084 C135 1.474 . S
C1099 C226 1.526 . S
C1111 C19 1.525 . S
C1126 C249 1.515 . S
C1138 C42 1.515 . S
C1153 C65 1.521 . S
C1165 C272 1.522 . S
C1180 C88 1.515 . S
C1192 C157 1.515 . S
C1207 C180 1.518 . S
C1219 C111 1.518 . S
C1234 C203 1.517 . S
C1246 C134 1.517 . S
