# Generated by pormake.
# Topology uoe, (4)-cn, num edge types: 1
# Building blocks:
#     Node 0, Type 0, BuildingBlock: GALJAG_clean_sbu_0, # of connection points: 4
#     Node 1, Type 0, BuildingBlock: GALJAG_clean_sbu_0, # of connection points: 4
#     Node 2, Type 0, BuildingBlock: GALJAG_clean_sbu_0, # of connection points: 4
#     Node 3, Type 0, BuildingBlock: GALJAG_clean_sbu_0, # of connection points: 4
#     Node 4, Type 0, BuildingBlock: GALJAG_clean_sbu_0, # of connection points: 4
#     Node 5, Type 0, BuildingBlock: GALJAG_clean_sbu_0, # of connection points: 4
#     Node 6, Type 0, BuildingBlock: GALJAG_clean_sbu_0, # of connection points: 4
#     Node 7, Type 0, BuildingBlock: GALJAG_clean_sbu_0, # of connection points: 4
#     Node 8, Type 0, BuildingBlock: GALJAG_clean_sbu_0, # of connection points: 4
#     Node 9, Type 0, BuildingBlock: GALJAG_clean_sbu_0, # of connection points: 4
#     Node 10, Type 0, BuildingBlock: GALJAG_clean_sbu_0, # of connection points: 4
#     Node 11, Type 0, BuildingBlock: GALJAG_clean_sbu_0, # of connection points: 4
#     Node 12, Type 0, BuildingBlock: GALJAG_clean_sbu_0, # of connection points: 4
#     Node 13, Type 0, BuildingBlock: GALJAG_clean_sbu_0, # of connection points: 4
#     Node 14, Type 0, BuildingBlock: GALJAG_clean_sbu_0, # of connection points: 4
#     Node 15, Type 0, BuildingBlock: GALJAG_clean_sbu_0, # of connection points: 4
#     Node 16, Type 0, BuildingBlock: GALJAG_clean_sbu_0, # of connection points: 4
#     Node 17, Type 0, BuildingBlock: GALJAG_clean_sbu_0, # of connection points: 4
#     Node 18, Type 0, BuildingBlock: GALJAG_clean_sbu_0, # of connection points: 4
#     Node 19, Type 0, BuildingBlock: GALJAG_clean_sbu_0, # of connection points: 4
#     Node 20, Type 0, BuildingBlock: GALJAG_clean_sbu_0, # of connection points: 4
#     Node 21, Type 0, BuildingBlock: GALJAG_clean_sbu_0, # of connection points: 4
#     Node 22, Type 0, BuildingBlock: GALJAG_clean_sbu_0, # of connection points: 4
#     Node 23, Type 0, BuildingBlock: GALJAG_clean_sbu_0, # of connection points: 4
#     Node 24, Type 0, BuildingBlock: GALJAG_clean_sbu_0, # of connection points: 4
#     Node 25, Type 0, BuildingBlock: GALJAG_clean_sbu_0, # of connection points: 4
#     Node 26, Type 0, BuildingBlock: GALJAG_clean_sbu_0, # of connection points: 4
#     Node 27, Type 0, BuildingBlock: GALJAG_clean_sbu_0, # of connection points: 4
#     Node 28, Type 0, BuildingBlock: GALJAG_clean_sbu_0, # of connection points: 4
#     Node 29, Type 0, BuildingBlock: GALJAG_clean_sbu_0, # of connection points: 4
#     Node 30, Type 0, BuildingBlock: GALJAG_clean_sbu_0, # of connection points: 4
#     Node 31, Type 0, BuildingBlock: GALJAG_clean_sbu_0, # of connection points: 4
#     Edge 32, Type (0, 0), None
#     Edge 33, Type (0, 0), None
#     Edge 34, Type (0, 0), None
#     Edge 35, Type (0, 0), None
#     Edge 36, Type (0, 0), None
#     Edge 37, Type (0, 0), None
#     Edge 38, Type (0, 0), None
#     Edge 39, Type (0, 0), None
#     Edge 40, Type (0, 0), None
#     Edge 41, Type (0, 0), None
#     Edge 42, Type (0, 0), None
#     Edge 43, Type (0, 0), None
#     Edge 44, Type (0, 0), None
#     Edge 45, Type (0, 0), None
#     Edge 46, Type (0, 0), None
#     Edge 47, Type (0, 0), None
#     Edge 48, Type (0, 0), None
#     Edge 49, Type (0, 0), None
#     Edge 50, Type (0, 0), None
#     Edge 51, Type (0, 0), None
#     Edge 52, Type (0, 0), None
#     Edge 53, Type (0, 0), None
#     Edge 54, Type (0, 0), None
#     Edge 55, Type (0, 0), None
#     Edge 56, Type (0, 0), None
#     Edge 57, Type (0, 0), None
#     Edge 58, Type (0, 0), None
#     Edge 59, Type (0, 0), None
#     Edge 60, Type (0, 0), None
#     Edge 61, Type (0, 0), None
#     Edge 62, Type (0, 0), None
#     Edge 63, Type (0, 0), None
#     Edge 64, Type (0, 0), None
#     Edge 65, Type (0, 0), None
#     Edge 66, Type (0, 0), None
#     Edge 67, Type (0, 0), None
#     Edge 68, Type (0, 0), None
#     Edge 69, Type (0, 0), None
#     Edge 70, Type (0, 0), None
#     Edge 71, Type (0, 0), None
#     Edge 72, Type (0, 0), None
#     Edge 73, Type (0, 0), None
#     Edge 74, Type (0, 0), None
#     Edge 75, Type (0, 0), None
#     Edge 76, Type (0, 0), None
#     Edge 77, Type (0, 0), None
#     Edge 78, Type (0, 0), None
#     Edge 79, Type (0, 0), None
#     Edge 80, Type (0, 0), None
#     Edge 81, Type (0, 0), None
#     Edge 82, Type (0, 0), None
#     Edge 83, Type (0, 0), None
#     Edge 84, Type (0, 0), None
#     Edge 85, Type (0, 0), None
#     Edge 86, Type (0, 0), None
#     Edge 87, Type (0, 0), None
#     Edge 88, Type (0, 0), None
#     Edge 89, Type (0, 0), None
#     Edge 90, Type (0, 0), None
#     Edge 91, Type (0, 0), None
#     Edge 92, Type (0, 0), None
#     Edge 93, Type (0, 0), None
#     Edge 94, Type (0, 0), None
#     Edge 95, Type (0, 0), None
# Relax obj value: 0.107
# Max RMSD: 0.167
# Mean RMSD: 0.167
data_MOF--net-uoe--node1-GALJAG_clean_sbu_0--edge1-none
_symmetry_space_group_name_H-M    P1
_symmetry_Int_Tables_number       1
_symmetry_cell_setting            triclinic
loop_
_symmetry_equiv_pos_as_xyz
'x, y, z'
_cell_length_a     33.929321
_cell_length_b     33.93281
_cell_length_c     12.716873
_cell_angle_alpha  89.999851
_cell_angle_beta   89.993043
_cell_angle_gamma 90.0
loop_
_atom_site_label
_atom_site_type_symbol
_atom_site_fract_x
_atom_site_fract_y
_atom_site_fract_z
_atom_type_partial_charge
In0 In 0.08437 0.46031 0.04912 0.0
O1 O 0.09884 0.39718 0.10301 0.0
O2 O 0.14414 0.44133 0.10881 0.0
C3 C 0.00864 0.48179 0.04388 0.0
C4 C 0.08527 0.48251 0.24275 0.0
C5 C 0.10499 0.48081 0.85154 0.0
O6 O 0.01906 0.44611 0.02929 0.0
O7 O 0.03631 0.50626 0.05526 0.0
O8 O 0.10907 0.50391 0.92905 0.0
O9 O 0.09319 0.44638 0.87476 0.0
C10 C 0.1328 0.40725 0.13626 0.0
O11 O 0.10298 0.5028 0.17278 0.0
O12 O 0.06568 0.45284 0.21341 0.0
In13 In 0.76566 0.83435 0.2991 0.0
O14 O 0.72316 0.85295 0.42278 0.0
O15 O 0.77314 0.81566 0.46338 0.0
C16 C 0.74516 0.85497 0.10153 0.0
C17 C 0.81872 0.88278 0.38623 0.0
C18 C 0.74418 0.75863 0.29388 0.0
O19 O 0.72205 0.85904 0.17905 0.0
O20 O 0.77959 0.84316 0.12473 0.0
O21 O 0.77986 0.76905 0.27927 0.0
O22 O 0.71971 0.78629 0.30526 0.0
C23 C 0.74346 0.83525 0.49273 0.0
O24 O 0.8288 0.84883 0.35297 0.0
O25 O 0.78464 0.89411 0.3588 0.0
In26 In 0.3916 0.51564 0.54911 0.0
O27 O 0.37299 0.47316 0.67279 0.0
O28 O 0.41029 0.52312 0.71339 0.0
C29 C 0.37098 0.49514 0.35154 0.0
C30 C 0.34316 0.56871 0.63624 0.0
C31 C 0.46733 0.49417 0.54387 0.0
O32 O 0.3669 0.47204 0.42905 0.0
O33 O 0.38279 0.52956 0.37475 0.0
O34 O 0.45691 0.52984 0.52927 0.0
O35 O 0.43966 0.46969 0.55525 0.0
C36 C 0.3907 0.49346 0.74274 0.0
O37 O 0.37713 0.57878 0.60297 0.0
O38 O 0.33183 0.53462 0.60881 0.0
In39 In 0.71032 0.1416 0.79912 0.0
O40 O 0.75281 0.12301 0.92277 0.0
O41 O 0.70283 0.16029 0.96341 0.0
C42 C 0.73082 0.12099 0.60154 0.0
C43 C 0.65725 0.09316 0.88626 0.0
C44 C 0.73179 0.21733 0.79388 0.0
O45 O 0.75392 0.11691 0.67904 0.0
O46 O 0.69639 0.13279 0.62477 0.0
O47 O 0.69611 0.20691 0.7793 0.0
O48 O 0.75627 0.18966 0.80524 0.0
C49 C 0.73251 0.14071 -0.00726 0.0
O50 O 0.64718 0.12712 0.85301 0.0
O51 O 0.69134 0.08184 0.85881 0.0
In52 In 0.08438 0.51567 0.54431 0.0
O53 O 0.09886 0.57881 0.49046 0.0
O54 O 0.14415 0.53465 0.48462 0.0
C55 C 0.00865 0.4942 0.54953 0.0
C56 C 0.08527 0.4935 0.35067 0.0
C57 C 0.10497 0.49516 0.74186 0.0
O58 O 0.01907 0.52988 0.56414 0.0
O59 O 0.03632 0.46973 0.53816 0.0
O60 O 0.10908 0.47206 0.66435 0.0
O61 O 0.09318 0.52959 0.71868 0.0
C62 C 0.13283 0.56873 0.4572 0.0
O63 O 0.10298 0.47319 0.42062 0.0
O64 O 0.06569 0.52317 0.38003 0.0
In65 In 0.71029 0.83436 0.7943 0.0
O66 O 0.64715 0.84885 0.74045 0.0
O67 O 0.69132 0.89413 0.73462 0.0
C68 C 0.73176 0.75864 0.79951 0.0
C69 C 0.73247 0.83525 0.60066 0.0
C70 C 0.7308 0.85495 -0.00815 0.0
O71 O 0.69608 0.76906 0.81412 0.0
O72 O 0.75624 0.7863 0.78813 0.0
O73 O 0.7539 0.85905 0.91434 0.0
O74 O 0.69637 0.84316 0.96868 0.0
C75 C 0.65723 0.88281 0.70719 0.0
O76 O 0.75278 0.85295 0.67061 0.0
O77 O 0.7028 0.81567 0.63002 0.0
In78 In 0.39159 0.46028 0.0443 0.0
O79 O 0.37711 0.39714 0.99041 0.0
O80 O 0.33182 0.4413 0.98462 0.0
C81 C 0.46732 0.48176 0.04952 0.0
C82 C 0.3907 0.48247 0.85067 0.0
C83 C 0.371 0.48079 0.24186 0.0
O84 O 0.4569 0.44608 0.06412 0.0
O85 O 0.43965 0.50623 0.03814 0.0
O86 O 0.36689 0.50388 0.16436 0.0
O87 O 0.38279 0.44636 0.21867 0.0
C88 C 0.34315 0.40722 0.95718 0.0
O89 O 0.37299 0.50277 0.92063 0.0
O90 O 0.41028 0.4528 0.88001 0.0
In91 In 0.76568 0.14159 0.29429 0.0
O92 O 0.72319 0.12301 0.17062 0.0
O93 O 0.77318 0.16028 0.13 0.0
C94 C 0.74517 0.12101 0.49185 0.0
C95 C 0.81873 0.09314 0.20717 0.0
C96 C 0.7442 0.21732 0.29951 0.0
O97 O 0.72207 0.1169 0.41436 0.0
O98 O 0.7796 0.1328 0.46865 0.0
O99 O 0.77989 0.2069 0.3141 0.0
O100 O 0.71973 0.18965 0.28815 0.0
C101 C 0.7435 0.14071 0.10066 0.0
O102 O 0.82882 0.1271 0.24041 0.0
O103 O 0.78464 0.08182 0.23461 0.0
In104 In 0.89159 0.51568 0.04428 0.0
O105 O 0.87299 0.47319 0.92062 0.0
O106 O 0.91028 0.52315 0.87999 0.0
C107 C 0.87098 0.49518 0.24186 0.0
C108 C 0.84315 0.56874 0.95715 0.0
C109 C 0.96732 0.4942 0.04951 0.0
O110 O 0.8669 0.47208 0.16436 0.0
O111 O 0.88278 0.52961 0.21864 0.0
O112 O 0.9569 0.52988 0.0641 0.0
O113 O 0.93966 0.46973 0.03814 0.0
C114 C 0.8907 0.49349 0.85066 0.0
O115 O 0.87711 0.57881 0.99039 0.0
O116 O 0.83182 0.53465 0.9846 0.0
In117 In 0.21029 0.1416 0.79429 0.0
O118 O 0.25278 0.123 0.6706 0.0
O119 O 0.2028 0.16029 0.63 0.0
C120 C 0.23079 0.12099 -0.00814 0.0
C121 C 0.15723 0.09316 0.70716 0.0
C122 C 0.23177 0.21732 0.79951 0.0
O123 O 0.2539 0.11691 0.91434 0.0
O124 O 0.19636 0.13279 0.96865 0.0
O125 O 0.19608 0.2069 0.81411 0.0
O126 O 0.25624 0.18966 0.78813 0.0
C127 C 0.23248 0.14071 0.60065 0.0
O128 O 0.14715 0.12711 0.74042 0.0
O129 O 0.19132 0.08183 0.73459 0.0
In130 In 0.58438 0.46029 0.5443 0.0
O131 O 0.60298 0.50277 0.42061 0.0
O132 O 0.56569 0.4528 0.38001 0.0
C133 C 0.60499 0.48079 0.74186 0.0
C134 C 0.63282 0.40723 0.45717 0.0
C135 C 0.50865 0.48176 0.54952 0.0
O136 O 0.60907 0.50389 0.66436 0.0
O137 O 0.59318 0.44636 0.71866 0.0
O138 O 0.51907 0.44608 0.56412 0.0
O139 O 0.53632 0.50623 0.53815 0.0
C140 C 0.58528 0.48247 0.35066 0.0
O141 O 0.59886 0.39715 0.49044 0.0
O142 O 0.64415 0.44131 0.4846 0.0
In143 In 0.26568 0.83437 0.29428 0.0
O144 O 0.22318 0.85295 0.17061 0.0
O145 O 0.27317 0.81568 0.12999 0.0
C146 C 0.24518 0.85497 0.49186 0.0
C147 C 0.31873 0.88281 0.20714 0.0
C148 C 0.2442 0.75864 0.29951 0.0
O149 O 0.22207 0.85905 0.41436 0.0
O150 O 0.27961 0.84317 0.46863 0.0
O151 O 0.27989 0.76906 0.31409 0.0
O152 O 0.21973 0.7863 0.28815 0.0
C153 C 0.24349 0.83525 0.10065 0.0
O154 O 0.32881 0.84886 0.24039 0.0
O155 O 0.28464 0.89413 0.23458 0.0
In156 In 0.8916 0.46031 0.54909 0.0
O157 O 0.87713 0.39717 0.60295 0.0
O158 O 0.83183 0.44133 0.60878 0.0
C159 C 0.96733 0.48179 0.54388 0.0
C160 C 0.8907 0.4825 0.74273 0.0
C161 C 0.87101 0.48083 0.35155 0.0
O162 O 0.95691 0.44611 0.52927 0.0
O163 O 0.93966 0.50626 0.55525 0.0
O164 O 0.8669 0.50392 0.42906 0.0
O165 O 0.8828 0.4464 0.37473 0.0
C166 C 0.84316 0.40724 0.63621 0.0
O167 O 0.87299 0.5028 0.67278 0.0
O168 O 0.91028 0.45283 0.71338 0.0
In169 In 0.26566 0.14161 0.29908 0.0
O170 O 0.3288 0.12713 0.35295 0.0
O171 O 0.28464 0.08185 0.35878 0.0
C172 C 0.24418 0.21733 0.29387 0.0
C173 C 0.24347 0.14071 0.49272 0.0
C174 C 0.24515 0.12102 0.10154 0.0
O175 O 0.27986 0.20691 0.27926 0.0
O176 O 0.21971 0.18967 0.30525 0.0
O177 O 0.22205 0.11691 0.17905 0.0
O178 O 0.27958 0.13281 0.12471 0.0
C179 C 0.31873 0.09317 0.38621 0.0
O180 O 0.22317 0.12301 0.42276 0.0
O181 O 0.27314 0.1603 0.46337 0.0
In182 In 0.58437 0.51565 0.0491 0.0
O183 O 0.59884 0.57879 0.10299 0.0
O184 O 0.64414 0.53463 0.10878 0.0
C185 C 0.50864 0.49417 0.04389 0.0
C186 C 0.58527 0.49346 0.24273 0.0
C187 C 0.60497 0.49514 0.85155 0.0
O188 O 0.51906 0.52985 0.02929 0.0
O189 O 0.53631 0.4697 0.05527 0.0
O190 O 0.60907 0.47204 0.92905 0.0
O191 O 0.59318 0.52957 0.87474 0.0
C192 C 0.63281 0.56872 0.13623 0.0
O193 O 0.60298 0.47316 0.17276 0.0
O194 O 0.56568 0.52312 0.2134 0.0
In195 In 0.21031 0.83436 0.7991 0.0
O196 O 0.14717 0.84884 0.85299 0.0
O197 O 0.19134 0.89412 0.85879 0.0
C198 C 0.23179 0.75863 0.79388 0.0
C199 C 0.2325 0.83525 -0.00727 0.0
C200 C 0.23083 0.85495 0.60154 0.0
O201 O 0.19611 0.76905 0.77929 0.0
O202 O 0.25627 0.7863 0.80524 0.0
O203 O 0.25392 0.85905 0.67904 0.0
O204 O 0.19639 0.84315 0.62474 0.0
C205 C 0.15725 0.88279 0.88624 0.0
O206 O 0.25281 0.85295 0.92276 0.0
O207 O 0.20283 0.81567 0.9634 0.0
In208 In 0.58437 0.96031 0.54912 0.0
O209 O 0.59884 0.89717 0.60302 0.0
O210 O 0.64414 0.94132 0.60882 0.0
C211 C 0.50864 0.98179 0.54388 0.0
C212 C 0.58527 0.9825 0.74274 0.0
C213 C 0.60499 0.9808 0.35154 0.0
O214 O 0.51906 0.94611 0.52929 0.0
O215 O 0.53631 0.00626 0.55526 0.0
O216 O 0.60907 0.00391 0.42904 0.0
O217 O 0.59319 0.94638 0.37476 0.0
C218 C 0.6328 0.90724 0.63628 0.0
O219 O 0.60298 0.00279 0.67278 0.0
O220 O 0.56567 0.95284 0.71341 0.0
In221 In 0.26565 0.33436 0.7991 0.0
O222 O 0.32879 0.34884 0.85298 0.0
O223 O 0.28463 0.39412 0.85882 0.0
C224 C 0.24418 0.25864 0.79386 0.0
C225 C 0.24346 0.33525 -0.00727 0.0
C226 C 0.24515 0.35498 0.60154 0.0
O227 O 0.27986 0.26906 0.77926 0.0
O228 O 0.2197 0.2863 0.80524 0.0
O229 O 0.22205 0.35906 0.67905 0.0
O230 O 0.27958 0.34318 0.62474 0.0
C231 C 0.31871 0.38279 0.88626 0.0
O232 O 0.22316 0.35296 0.92278 0.0
O233 O 0.27313 0.31566 0.96338 0.0
In234 In 0.89159 0.01564 0.0491 0.0
O235 O 0.87712 0.07878 0.10297 0.0
O236 O 0.83183 0.03462 0.10882 0.0
C237 C 0.96733 -0.00583 0.04386 0.0
C238 C 0.8907 -0.00655 0.24274 0.0
C239 C 0.87098 -0.00486 0.85154 0.0
O240 O 0.95691 0.02984 0.02926 0.0
O241 O 0.93966 0.96969 0.05524 0.0
O242 O 0.8669 0.97203 0.92905 0.0
O243 O 0.88278 0.02956 0.87474 0.0
C244 C 0.84317 0.0687 0.13626 0.0
O245 O 0.87299 0.97315 0.17279 0.0
O246 O 0.91029 0.02312 0.21338 0.0
In247 In 0.21032 0.6416 0.29912 0.0
O248 O 0.25282 0.62301 0.42278 0.0
O249 O 0.20284 0.66029 0.4634 0.0
C250 C 0.23082 0.62098 0.10154 0.0
C251 C 0.15726 0.59317 0.38629 0.0
C252 C 0.2318 0.71732 0.29387 0.0
O253 O 0.25393 0.61691 0.17904 0.0
O254 O 0.19639 0.63279 0.12477 0.0
O255 O 0.19611 0.7069 0.27929 0.0
O256 O 0.25627 0.68966 0.30523 0.0
C257 C 0.23251 0.64072 0.49274 0.0
O258 O 0.14718 0.62712 0.35302 0.0
O259 O 0.19135 0.58184 0.35883 0.0
In260 In 0.58438 0.01567 0.04431 0.0
O261 O 0.60298 0.97319 0.92062 0.0
O262 O 0.56569 0.02316 0.88003 0.0
C263 C 0.60497 -0.00485 0.24186 0.0
C264 C 0.63282 0.06873 0.95717 0.0
C265 C 0.50865 -0.0058 0.04953 0.0
O266 O 0.60907 0.97206 0.16435 0.0
O267 O 0.59318 0.02959 0.21868 0.0
O268 O 0.51907 0.02987 0.06414 0.0
O269 O 0.53631 0.96972 0.03815 0.0
C270 C 0.58527 -0.00651 0.85067 0.0
O271 O 0.59886 0.07881 0.99045 0.0
O272 O 0.64415 0.03465 0.9846 0.0
In273 In 0.21029 0.33437 0.29431 0.0
O274 O 0.14715 0.34886 0.24045 0.0
O275 O 0.19132 0.39414 0.2346 0.0
C276 C 0.23177 0.25865 0.29952 0.0
C277 C 0.23247 0.33525 0.10066 0.0
C278 C 0.2308 0.35496 0.49186 0.0
O279 O 0.19609 0.26907 0.31413 0.0
O280 O 0.25624 0.28631 0.28815 0.0
O281 O 0.2539 0.35907 0.41434 0.0
O282 O 0.19637 0.34317 0.46868 0.0
C283 C 0.15724 0.38281 0.20717 0.0
O284 O 0.25278 0.35296 0.17061 0.0
O285 O 0.2028 0.31567 0.13003 0.0
In286 In 0.89159 0.96027 0.54429 0.0
O287 O 0.87712 0.89714 0.4904 0.0
O288 O 0.83183 0.9413 0.4846 0.0
C289 C 0.96732 0.98176 0.54952 0.0
C290 C 0.8907 0.98246 0.35066 0.0
C291 C 0.871 0.98078 0.74186 0.0
O292 O 0.9569 0.94608 0.56411 0.0
O293 O 0.93965 0.00623 0.53814 0.0
O294 O 0.86689 0.00388 0.66435 0.0
O295 O 0.88279 0.94635 0.71866 0.0
C296 C 0.84316 0.90722 0.45714 0.0
O297 O 0.87299 0.00276 0.42063 0.0
O298 O 0.91029 0.9528 0.38 0.0
In299 In 0.26568 0.64159 0.79429 0.0
O300 O 0.32882 0.6271 0.74041 0.0
O301 O 0.28464 0.58183 0.7346 0.0
C302 C 0.2442 0.71732 0.79952 0.0
C303 C 0.2435 0.64071 0.60066 0.0
C304 C 0.24517 0.621 -0.00815 0.0
O305 O 0.27989 0.7069 0.81411 0.0
O306 O 0.21973 0.68965 0.78816 0.0
O307 O 0.22207 0.6169 0.91436 0.0
O308 O 0.27961 0.6328 0.96865 0.0
C309 C 0.31873 0.59315 0.70714 0.0
O310 O 0.22319 0.62301 0.67062 0.0
O311 O 0.27318 0.66028 0.63001 0.0
In312 In 0.39159 0.01568 0.54428 0.0
O313 O 0.37712 0.07882 0.49038 0.0
O314 O 0.33183 0.03466 0.48458 0.0
C315 C 0.46732 -0.0058 0.54951 0.0
C316 C 0.3907 -0.00651 0.35065 0.0
C317 C 0.37098 -0.00482 0.74186 0.0
O318 O 0.4569 0.02988 0.5641 0.0
O319 O 0.43965 0.96973 0.53813 0.0
O320 O 0.3669 0.97208 0.66436 0.0
O321 O 0.38278 0.02961 0.71864 0.0
C322 C 0.34316 0.06874 0.45712 0.0
O323 O 0.37298 0.97319 0.42062 0.0
O324 O 0.41029 0.02315 0.37999 0.0
In325 In 0.71029 0.64159 0.29429 0.0
O326 O 0.64715 0.6271 0.24042 0.0
O327 O 0.69133 0.58183 0.23457 0.0
C328 C 0.73177 0.71731 0.29952 0.0
C329 C 0.73248 0.64071 0.10065 0.0
C330 C 0.73079 0.62098 0.49186 0.0
O331 O 0.69609 0.70689 0.31412 0.0
O332 O 0.75624 0.68965 0.28815 0.0
O333 O 0.7539 0.6169 0.41435 0.0
O334 O 0.69636 0.63278 0.46865 0.0
C335 C 0.65724 0.59315 0.20714 0.0
O336 O 0.75278 0.623 0.17059 0.0
O337 O 0.7028 0.66029 0.13002 0.0
In338 In 0.08438 0.96029 0.0443 0.0
O339 O 0.10298 0.00277 0.92061 0.0
O340 O 0.06569 0.9528 0.88001 0.0
C341 C 0.10499 0.98079 0.24186 0.0
C342 C 0.13282 0.90723 0.95715 0.0
C343 C 0.00865 0.98176 0.04951 0.0
O344 O 0.10907 0.0039 0.16435 0.0
O345 O 0.09319 0.94637 0.21865 0.0
O346 O 0.01907 0.94608 0.06412 0.0
O347 O 0.03631 0.00623 0.03815 0.0
C348 C 0.08527 0.98247 0.85066 0.0
O349 O 0.09886 0.89715 0.99043 0.0
O350 O 0.14415 0.94131 0.98458 0.0
In351 In 0.76568 0.33437 0.79428 0.0
O352 O 0.72318 0.35295 0.67061 0.0
O353 O 0.77317 0.31567 0.63 0.0
C354 C 0.74518 0.35498 -0.00814 0.0
C355 C 0.81873 0.38281 0.70712 0.0
C356 C 0.7442 0.25864 0.79952 0.0
O357 O 0.72207 0.35906 0.91436 0.0
O358 O 0.77961 0.34317 0.96863 0.0
O359 O 0.77988 0.26906 0.8141 0.0
O360 O 0.71973 0.28631 0.78816 0.0
C361 C 0.74349 0.33525 0.60065 0.0
O362 O 0.82882 0.34885 0.74039 0.0
O363 O 0.78464 0.39413 0.73457 0.0
In364 In 0.3916 0.96032 0.04909 0.0
O365 O 0.37712 0.89718 0.10295 0.0
O366 O 0.33183 0.94133 0.10879 0.0
C367 C 0.46733 0.98179 0.04388 0.0
C368 C 0.3907 0.9825 0.24273 0.0
C369 C 0.371 0.98083 0.85154 0.0
O370 O 0.45691 0.94611 0.02926 0.0
O371 O 0.43966 0.00626 0.05525 0.0
O372 O 0.3669 0.00393 0.92905 0.0
O373 O 0.3828 0.9464 0.87472 0.0
C374 C 0.34316 0.90725 0.13623 0.0
O375 O 0.37299 0.0028 0.17277 0.0
O376 O 0.41029 0.95283 0.21338 0.0
In377 In 0.76566 0.6416 0.79908 0.0
O378 O 0.72316 0.623 0.92277 0.0
O379 O 0.77314 0.6603 0.96336 0.0
C380 C 0.74514 0.621 0.60154 0.0
C381 C 0.81872 0.59317 0.88624 0.0
C382 C 0.74418 0.71732 0.79386 0.0
O383 O 0.72204 0.6169 0.67905 0.0
O384 O 0.77958 0.63279 0.62471 0.0
O385 O 0.77986 0.7069 0.77925 0.0
O386 O 0.7197 0.68966 0.80524 0.0
C387 C 0.74346 0.64071 -0.00728 0.0
O388 O 0.8288 0.62712 0.85295 0.0
O389 O 0.78463 0.58184 0.8588 0.0
In390 In 0.08437 0.01566 0.5491 0.0
O391 O 0.09884 0.07879 0.60299 0.0
O392 O 0.14414 0.03464 0.60879 0.0
C393 C 0.00864 -0.00583 0.54389 0.0
C394 C 0.08527 -0.00654 0.74273 0.0
C395 C 0.10497 -0.00485 0.35154 0.0
O396 O 0.01906 0.02985 0.52929 0.0
O397 O 0.03631 0.9697 0.55526 0.0
O398 O 0.10907 0.97205 0.42905 0.0
O399 O 0.09317 0.02958 0.37473 0.0
C400 C 0.1328 0.06872 0.63625 0.0
O401 O 0.10298 0.97317 0.67276 0.0
O402 O 0.06568 0.02313 0.7134 0.0
In403 In 0.71032 0.33436 0.2991 0.0
O404 O 0.64718 0.34884 0.353 0.0
O405 O 0.69135 0.39412 0.35881 0.0
C406 C 0.7318 0.25863 0.29387 0.0
C407 C 0.73251 0.33524 0.49273 0.0
C408 C 0.73083 0.35495 0.10155 0.0
O409 O 0.69611 0.26905 0.27928 0.0
O410 O 0.75627 0.2863 0.30523 0.0
O411 O 0.75393 0.35905 0.17904 0.0
O412 O 0.69639 0.34316 0.12474 0.0
C413 C 0.65726 0.38279 0.38626 0.0
O414 O 0.75281 0.35295 0.42277 0.0
O415 O 0.70283 0.31566 0.46339 0.0
loop_
_geom_bond_atom_site_label_1
_geom_bond_atom_site_label_2
_geom_bond_distance
_geom_bond_site_symmetry_2
_ccdc_geom_bond_type
In0 O1 2.294 . S
In0 O2 2.326 . S
In0 O6 2.266 . S
In0 O7 2.326 . S
In0 O8 2.266 1_554 S
In0 O9 2.326 1_554 S
In0 O11 2.294 . S
In0 O12 2.326 . S
O1 In0 2.294 . S
O1 C10 1.240 . S
O2 In0 2.326 . S
O2 C10 1.252 . S
C3 O6 1.252 . S
C3 O7 1.260 . S
C4 O11 1.240 . S
C4 O12 1.252 . S
C5 O8 1.252 . S
C5 O9 1.260 . S
O6 In0 2.266 . S
O6 C3 1.252 . S
O7 In0 2.326 . S
O7 C3 1.260 . S
O8 In0 2.266 1_556 S
O8 C5 1.252 . S
O9 In0 2.326 1_556 S
O9 C5 1.260 . S
C10 O1 1.240 . S
C10 O2 1.252 . S
O11 In0 2.294 . S
O11 C4 1.240 . S
O12 In0 2.326 . S
O12 C4 1.252 . S
In13 O14 2.294 . S
In13 O15 2.326 . S
In13 O19 2.266 . S
In13 O20 2.326 . S
In13 O21 2.266 . S
In13 O22 2.326 . S
In13 O24 2.294 . S
In13 O25 2.326 . S
O14 In13 2.294 . S
O14 C23 1.240 . S
O15 In13 2.326 . S
O15 C23 1.252 . S
C16 O19 1.252 . S
C16 O20 1.260 . S
C17 O24 1.240 . S
C17 O25 1.252 . S
C18 O21 1.252 . S
C18 O22 1.260 . S
O19 In13 2.266 . S
O19 C16 1.252 . S
O20 In13 2.326 . S
O20 C16 1.260 . S
O21 In13 2.266 . S
O21 C18 1.252 . S
O22 In13 2.326 . S
O22 C18 1.260 . S
C23 O14 1.240 . S
C23 O15 1.252 . S
O24 In13 2.294 . S
O24 C17 1.240 . S
O25 In13 2.326 . S
O25 C17 1.252 . S
In26 O27 2.294 . S
In26 O28 2.326 . S
In26 O32 2.266 . S
In26 O33 2.326 . S
In26 O34 2.266 . S
In26 O35 2.326 . S
In26 O37 2.294 . S
In26 O38 2.326 . S
O27 In26 2.294 . S
O27 C36 1.240 . S
O28 In26 2.326 . S
O28 C36 1.252 . S
C29 O32 1.252 . S
C29 O33 1.260 . S
C30 O37 1.240 . S
C30 O38 1.252 . S
C31 O34 1.252 . S
C31 O35 1.260 . S
O32 In26 2.266 . S
O32 C29 1.252 . S
O33 In26 2.326 . S
O33 C29 1.260 . S
O34 In26 2.266 . S
O34 C31 1.252 . S
O35 In26 2.326 . S
O35 C31 1.260 . S
C36 O27 1.240 . S
C36 O28 1.252 . S
O37 In26 2.294 . S
O37 C30 1.240 . S
O38 In26 2.326 . S
O38 C30 1.252 . S
In39 O40 2.294 . S
In39 O41 2.326 1_556 S
In39 O45 2.266 . S
In39 O46 2.326 . S
In39 O47 2.266 . S
In39 O48 2.326 . S
In39 O50 2.294 . S
In39 O51 2.326 . S
O40 In39 2.294 . S
O40 C49 1.240 1_556 S
O41 In39 2.326 1_554 S
O41 C49 1.252 . S
C42 O45 1.252 . S
C42 O46 1.260 . S
C43 O50 1.240 . S
C43 O51 1.252 . S
C44 O47 1.252 . S
C44 O48 1.260 . S
O45 In39 2.266 . S
O45 C42 1.252 . S
O46 In39 2.326 . S
O46 C42 1.260 . S
O47 In39 2.266 . S
O47 C44 1.252 . S
O48 In39 2.326 . S
O48 C44 1.260 . S
C49 O40 1.240 1_554 S
C49 O41 1.252 . S
O50 In39 2.294 . S
O50 C43 1.240 . S
O51 In39 2.326 . S
O51 C43 1.252 . S
In52 O53 2.294 . S
In52 O54 2.326 . S
In52 O58 2.266 . S
In52 O59 2.326 . S
In52 O60 2.266 . S
In52 O61 2.326 . S
In52 O63 2.294 . S
In52 O64 2.326 . S
O53 In52 2.294 . S
O53 C62 1.240 . S
O54 In52 2.326 . S
O54 C62 1.252 . S
C55 O58 1.252 . S
C55 O59 1.260 . S
C56 O63 1.240 . S
C56 O64 1.252 . S
C57 O60 1.252 . S
C57 O61 1.260 . S
O58 In52 2.266 . S
O58 C55 1.252 . S
O59 In52 2.326 . S
O59 C55 1.260 . S
O60 In52 2.266 . S
O60 C57 1.252 . S
O61 In52 2.326 . S
O61 C57 1.260 . S
C62 O53 1.240 . S
C62 O54 1.252 . S
O63 In52 2.294 . S
O63 C56 1.240 . S
O64 In52 2.326 . S
O64 C56 1.252 . S
In65 O66 2.294 . S
In65 O67 2.326 . S
In65 O71 2.266 . S
In65 O72 2.326 . S
In65 O73 2.266 . S
In65 O74 2.326 . S
In65 O76 2.294 . S
In65 O77 2.326 . S
O66 In65 2.294 . S
O66 C75 1.240 . S
O67 In65 2.326 . S
O67 C75 1.252 . S
C68 O71 1.252 . S
C68 O72 1.260 . S
C69 O76 1.240 . S
C69 O77 1.252 . S
C70 O73 1.252 . S
C70 O74 1.260 . S
O71 In65 2.266 . S
O71 C68 1.252 . S
O72 In65 2.326 . S
O72 C68 1.260 . S
O73 In65 2.266 . S
O73 C70 1.252 . S
O74 In65 2.326 . S
O74 C70 1.260 . S
C75 O66 1.240 . S
C75 O67 1.252 . S
O76 In65 2.294 . S
O76 C69 1.240 . S
O77 In65 2.326 . S
O77 C69 1.252 . S
In78 O79 2.294 1_554 S
In78 O80 2.326 1_554 S
In78 O84 2.266 . S
In78 O85 2.326 . S
In78 O86 2.266 . S
In78 O87 2.326 . S
In78 O89 2.294 1_554 S
In78 O90 2.326 1_554 S
O79 In78 2.294 1_556 S
O79 C88 1.240 . S
O80 In78 2.326 1_556 S
O80 C88 1.252 . S
C81 O84 1.252 . S
C81 O85 1.260 . S
C82 O89 1.240 . S
C82 O90 1.252 . S
C83 O86 1.252 . S
C83 O87 1.260 . S
O84 In78 2.266 . S
O84 C81 1.252 . S
O85 In78 2.326 . S
O85 C81 1.260 . S
O86 In78 2.266 . S
O86 C83 1.252 . S
O87 In78 2.326 . S
O87 C83 1.260 . S
C88 O79 1.240 . S
C88 O80 1.252 . S
O89 In78 2.294 1_556 S
O89 C82 1.240 . S
O90 In78 2.326 1_556 S
O90 C82 1.252 . S
In91 O92 2.294 . S
In91 O93 2.326 . S
In91 O97 2.266 . S
In91 O98 2.326 . S
In91 O99 2.266 . S
In91 O100 2.326 . S
In91 O102 2.294 . S
In91 O103 2.326 . S
O92 In91 2.294 . S
O92 C101 1.240 . S
O93 In91 2.326 . S
O93 C101 1.252 . S
C94 O97 1.252 . S
C94 O98 1.260 . S
C95 O102 1.240 . S
C95 O103 1.252 . S
C96 O99 1.252 . S
C96 O100 1.260 . S
O97 In91 2.266 . S
O97 C94 1.252 . S
O98 In91 2.326 . S
O98 C94 1.260 . S
O99 In91 2.266 . S
O99 C96 1.252 . S
O100 In91 2.326 . S
O100 C96 1.260 . S
C101 O92 1.240 . S
C101 O93 1.252 . S
O102 In91 2.294 . S
O102 C95 1.240 . S
O103 In91 2.326 . S
O103 C95 1.252 . S
In104 O105 2.294 1_554 S
In104 O106 2.326 1_554 S
In104 O110 2.266 . S
In104 O111 2.326 . S
In104 O112 2.266 . S
In104 O113 2.326 . S
In104 O115 2.294 1_554 S
In104 O116 2.326 1_554 S
O105 In104 2.294 1_556 S
O105 C114 1.240 . S
O106 In104 2.326 1_556 S
O106 C114 1.252 . S
C107 O110 1.252 . S
C107 O111 1.260 . S
C108 O115 1.240 . S
C108 O116 1.252 . S
C109 O112 1.252 . S
C109 O113 1.260 . S
O110 In104 2.266 . S
O110 C107 1.252 . S
O111 In104 2.326 . S
O111 C107 1.260 . S
O112 In104 2.266 . S
O112 C109 1.252 . S
O113 In104 2.326 . S
O113 C109 1.260 . S
C114 O105 1.240 . S
C114 O106 1.252 . S
O115 In104 2.294 1_556 S
O115 C108 1.240 . S
O116 In104 2.326 1_556 S
O116 C108 1.252 . S
In117 O118 2.294 . S
In117 O119 2.326 . S
In117 O123 2.266 . S
In117 O124 2.326 . S
In117 O125 2.266 . S
In117 O126 2.326 . S
In117 O128 2.294 . S
In117 O129 2.326 . S
O118 In117 2.294 . S
O118 C127 1.240 . S
O119 In117 2.326 . S
O119 C127 1.252 . S
C120 O123 1.252 . S
C120 O124 1.260 . S
C121 O128 1.240 . S
C121 O129 1.252 . S
C122 O125 1.252 . S
C122 O126 1.260 . S
O123 In117 2.266 . S
O123 C120 1.252 . S
O124 In117 2.326 . S
O124 C120 1.260 . S
O125 In117 2.266 . S
O125 C122 1.252 . S
O126 In117 2.326 . S
O126 C122 1.260 . S
C127 O118 1.240 . S
C127 O119 1.252 . S
O128 In117 2.294 . S
O128 C121 1.240 . S
O129 In117 2.326 . S
O129 C121 1.252 . S
In130 O131 2.294 . S
In130 O132 2.326 . S
In130 O136 2.266 . S
In130 O137 2.326 . S
In130 O138 2.266 . S
In130 O139 2.326 . S
In130 O141 2.294 . S
In130 O142 2.326 . S
O131 In130 2.294 . S
O131 C140 1.240 . S
O132 In130 2.326 . S
O132 C140 1.252 . S
C133 O136 1.252 . S
C133 O137 1.260 . S
C134 O141 1.240 . S
C134 O142 1.252 . S
C135 O138 1.252 . S
C135 O139 1.260 . S
O136 In130 2.266 . S
O136 C133 1.252 . S
O137 In130 2.326 . S
O137 C133 1.260 . S
O138 In130 2.266 . S
O138 C135 1.252 . S
O139 In130 2.326 . S
O139 C135 1.260 . S
C140 O131 1.240 . S
C140 O132 1.252 . S
O141 In130 2.294 . S
O141 C134 1.240 . S
O142 In130 2.326 . S
O142 C134 1.252 . S
In143 O144 2.294 . S
In143 O145 2.326 . S
In143 O149 2.266 . S
In143 O150 2.326 . S
In143 O151 2.266 . S
In143 O152 2.326 . S
In143 O154 2.294 . S
In143 O155 2.326 . S
O144 In143 2.294 . S
O144 C153 1.240 . S
O145 In143 2.326 . S
O145 C153 1.252 . S
C146 O149 1.252 . S
C146 O150 1.260 . S
C147 O154 1.240 . S
C147 O155 1.252 . S
C148 O151 1.252 . S
C148 O152 1.260 . S
O149 In143 2.266 . S
O149 C146 1.252 . S
O150 In143 2.326 . S
O150 C146 1.260 . S
O151 In143 2.266 . S
O151 C148 1.252 . S
O152 In143 2.326 . S
O152 C148 1.260 . S
C153 O144 1.240 . S
C153 O145 1.252 . S
O154 In143 2.294 . S
O154 C147 1.240 . S
O155 In143 2.326 . S
O155 C147 1.252 . S
In156 O157 2.294 . S
In156 O158 2.326 . S
In156 O162 2.266 . S
In156 O163 2.326 . S
In156 O164 2.266 . S
In156 O165 2.326 . S
In156 O167 2.294 . S
In156 O168 2.326 . S
O157 In156 2.294 . S
O157 C166 1.240 . S
O158 In156 2.326 . S
O158 C166 1.252 . S
C159 O162 1.252 . S
C159 O163 1.260 . S
C160 O167 1.240 . S
C160 O168 1.252 . S
C161 O164 1.252 . S
C161 O165 1.260 . S
O162 In156 2.266 . S
O162 C159 1.252 . S
O163 In156 2.326 . S
O163 C159 1.260 . S
O164 In156 2.266 . S
O164 C161 1.252 . S
O165 In156 2.326 . S
O165 C161 1.260 . S
C166 O157 1.240 . S
C166 O158 1.252 . S
O167 In156 2.294 . S
O167 C160 1.240 . S
O168 In156 2.326 . S
O168 C160 1.252 . S
In169 O170 2.294 . S
In169 O171 2.326 . S
In169 O175 2.266 . S
In169 O176 2.326 . S
In169 O177 2.266 . S
In169 O178 2.326 . S
In169 O180 2.294 . S
In169 O181 2.326 . S
O170 In169 2.294 . S
O170 C179 1.240 . S
O171 In169 2.326 . S
O171 C179 1.252 . S
C172 O175 1.252 . S
C172 O176 1.260 . S
C173 O180 1.240 . S
C173 O181 1.252 . S
C174 O177 1.252 . S
C174 O178 1.260 . S
O175 In169 2.266 . S
O175 C172 1.252 . S
O176 In169 2.326 . S
O176 C172 1.260 . S
O177 In169 2.266 . S
O177 C174 1.252 . S
O178 In169 2.326 . S
O178 C174 1.260 . S
C179 O170 1.240 . S
C179 O171 1.252 . S
O180 In169 2.294 . S
O180 C173 1.240 . S
O181 In169 2.326 . S
O181 C173 1.252 . S
In182 O183 2.294 . S
In182 O184 2.326 . S
In182 O188 2.266 . S
In182 O189 2.326 . S
In182 O190 2.266 1_554 S
In182 O191 2.326 1_554 S
In182 O193 2.294 . S
In182 O194 2.326 . S
O183 In182 2.294 . S
O183 C192 1.240 . S
O184 In182 2.326 . S
O184 C192 1.252 . S
C185 O188 1.252 . S
C185 O189 1.260 . S
C186 O193 1.240 . S
C186 O194 1.252 . S
C187 O190 1.252 . S
C187 O191 1.260 . S
O188 In182 2.266 . S
O188 C185 1.252 . S
O189 In182 2.326 . S
O189 C185 1.260 . S
O190 In182 2.266 1_556 S
O190 C187 1.252 . S
O191 In182 2.326 1_556 S
O191 C187 1.260 . S
C192 O183 1.240 . S
C192 O184 1.252 . S
O193 In182 2.294 . S
O193 C186 1.240 . S
O194 In182 2.326 . S
O194 C186 1.252 . S
In195 O196 2.294 . S
In195 O197 2.326 . S
In195 O201 2.266 . S
In195 O202 2.326 . S
In195 O203 2.266 . S
In195 O204 2.326 . S
In195 O206 2.294 . S
In195 O207 2.326 1_556 S
O196 In195 2.294 . S
O196 C205 1.240 . S
O197 In195 2.326 . S
O197 C205 1.252 . S
C198 O201 1.252 . S
C198 O202 1.260 . S
C199 O206 1.240 1_554 S
C199 O207 1.252 . S
C200 O203 1.252 . S
C200 O204 1.260 . S
O201 In195 2.266 . S
O201 C198 1.252 . S
O202 In195 2.326 . S
O202 C198 1.260 . S
O203 In195 2.266 . S
O203 C200 1.252 . S
O204 In195 2.326 . S
O204 C200 1.260 . S
C205 O196 1.240 . S
C205 O197 1.252 . S
O206 In195 2.294 . S
O206 C199 1.240 1_556 S
O207 In195 2.326 1_554 S
O207 C199 1.252 . S
In208 O209 2.294 . S
In208 O210 2.326 . S
In208 O214 2.266 . S
In208 O215 2.326 1_565 S
In208 O216 2.266 1_565 S
In208 O217 2.326 . S
In208 O219 2.294 1_565 S
In208 O220 2.326 . S
O209 In208 2.294 . S
O209 C218 1.240 . S
O210 In208 2.326 . S
O210 C218 1.252 . S
C211 O214 1.252 . S
C211 O215 1.260 1_565 S
C212 O219 1.240 . S
C212 O220 1.252 1_545 S
C213 O216 1.252 . S
C213 O217 1.260 1_545 S
O214 In208 2.266 . S
O214 C211 1.252 . S
O215 In208 2.326 1_545 S
O215 C211 1.260 1_545 S
O216 In208 2.266 1_545 S
O216 C213 1.252 . S
O217 In208 2.326 . S
O217 C213 1.260 1_565 S
C218 O209 1.240 . S
C218 O210 1.252 . S
O219 In208 2.294 1_545 S
O219 C212 1.240 . S
O220 In208 2.326 . S
O220 C212 1.252 1_565 S
In221 O222 2.294 . S
In221 O223 2.326 . S
In221 O227 2.266 . S
In221 O228 2.326 . S
In221 O229 2.266 . S
In221 O230 2.326 . S
In221 O232 2.294 . S
In221 O233 2.326 1_556 S
O222 In221 2.294 . S
O222 C231 1.240 . S
O223 In221 2.326 . S
O223 C231 1.252 . S
C224 O227 1.252 . S
C224 O228 1.260 . S
C225 O232 1.240 1_554 S
C225 O233 1.252 . S
C226 O229 1.252 . S
C226 O230 1.260 . S
O227 In221 2.266 . S
O227 C224 1.252 . S
O228 In221 2.326 . S
O228 C224 1.260 . S
O229 In221 2.266 . S
O229 C226 1.252 . S
O230 In221 2.326 . S
O230 C226 1.260 . S
C231 O222 1.240 . S
C231 O223 1.252 . S
O232 In221 2.294 . S
O232 C225 1.240 1_556 S
O233 In221 2.326 1_554 S
O233 C225 1.252 . S
In234 O235 2.294 . S
In234 O236 2.326 . S
In234 O240 2.266 . S
In234 O241 2.326 1_545 S
In234 O242 2.266 1_544 S
In234 O243 2.326 1_554 S
In234 O245 2.294 1_545 S
In234 O246 2.326 . S
O235 In234 2.294 . S
O235 C244 1.240 . S
O236 In234 2.326 . S
O236 C244 1.252 . S
C237 O240 1.252 . S
C237 O241 1.260 1_545 S
C238 O245 1.240 . S
C238 O246 1.252 1_565 S
C239 O242 1.252 . S
C239 O243 1.260 1_565 S
O240 In234 2.266 . S
O240 C237 1.252 . S
O241 In234 2.326 1_565 S
O241 C237 1.260 1_565 S
O242 In234 2.266 1_566 S
O242 C239 1.252 . S
O243 In234 2.326 1_556 S
O243 C239 1.260 1_545 S
C244 O235 1.240 . S
C244 O236 1.252 . S
O245 In234 2.294 1_565 S
O245 C238 1.240 . S
O246 In234 2.326 . S
O246 C238 1.252 1_545 S
In247 O248 2.294 . S
In247 O249 2.326 . S
In247 O253 2.266 . S
In247 O254 2.326 . S
In247 O255 2.266 . S
In247 O256 2.326 . S
In247 O258 2.294 . S
In247 O259 2.326 . S
O248 In247 2.294 . S
O248 C257 1.240 . S
O249 In247 2.326 . S
O249 C257 1.252 . S
C250 O253 1.252 . S
C250 O254 1.260 . S
C251 O258 1.240 . S
C251 O259 1.252 . S
C252 O255 1.252 . S
C252 O256 1.260 . S
O253 In247 2.266 . S
O253 C250 1.252 . S
O254 In247 2.326 . S
O254 C250 1.260 . S
O255 In247 2.266 . S
O255 C252 1.252 . S
O256 In247 2.326 . S
O256 C252 1.260 . S
C257 O248 1.240 . S
C257 O249 1.252 . S
O258 In247 2.294 . S
O258 C251 1.240 . S
O259 In247 2.326 . S
O259 C251 1.252 . S
In260 O261 2.294 1_544 S
In260 O262 2.326 1_554 S
In260 O266 2.266 1_545 S
In260 O267 2.326 . S
In260 O268 2.266 . S
In260 O269 2.326 1_545 S
In260 O271 2.294 1_554 S
In260 O272 2.326 1_554 S
O261 In260 2.294 1_566 S
O261 C270 1.240 . S
O262 In260 2.326 1_556 S
O262 C270 1.252 1_545 S
C263 O266 1.252 . S
C263 O267 1.260 1_565 S
C264 O271 1.240 . S
C264 O272 1.252 . S
C265 O268 1.252 . S
C265 O269 1.260 1_545 S
O266 In260 2.266 1_565 S
O266 C263 1.252 . S
O267 In260 2.326 . S
O267 C263 1.260 1_545 S
O268 In260 2.266 . S
O268 C265 1.252 . S
O269 In260 2.326 1_565 S
O269 C265 1.260 1_565 S
C270 O261 1.240 . S
C270 O262 1.252 1_565 S
O271 In260 2.294 1_556 S
O271 C264 1.240 . S
O272 In260 2.326 1_556 S
O272 C264 1.252 . S
In273 O274 2.294 . S
In273 O275 2.326 . S
In273 O279 2.266 . S
In273 O280 2.326 . S
In273 O281 2.266 . S
In273 O282 2.326 . S
In273 O284 2.294 . S
In273 O285 2.326 . S
O274 In273 2.294 . S
O274 C283 1.240 . S
O275 In273 2.326 . S
O275 C283 1.252 . S
C276 O279 1.252 . S
C276 O280 1.260 . S
C277 O284 1.240 . S
C277 O285 1.252 . S
C278 O281 1.252 . S
C278 O282 1.260 . S
O279 In273 2.266 . S
O279 C276 1.252 . S
O280 In273 2.326 . S
O280 C276 1.260 . S
O281 In273 2.266 . S
O281 C278 1.252 . S
O282 In273 2.326 . S
O282 C278 1.260 . S
C283 O274 1.240 . S
C283 O275 1.252 . S
O284 In273 2.294 . S
O284 C277 1.240 . S
O285 In273 2.326 . S
O285 C277 1.252 . S
In286 O287 2.294 . S
In286 O288 2.326 . S
In286 O292 2.266 . S
In286 O293 2.326 1_565 S
In286 O294 2.266 1_565 S
In286 O295 2.326 . S
In286 O297 2.294 1_565 S
In286 O298 2.326 . S
O287 In286 2.294 . S
O287 C296 1.240 . S
O288 In286 2.326 . S
O288 C296 1.252 . S
C289 O292 1.252 . S
C289 O293 1.260 1_565 S
C290 O297 1.240 . S
C290 O298 1.252 1_545 S
C291 O294 1.252 . S
C291 O295 1.260 1_545 S
O292 In286 2.266 . S
O292 C289 1.252 . S
O293 In286 2.326 1_545 S
O293 C289 1.260 1_545 S
O294 In286 2.266 1_545 S
O294 C291 1.252 . S
O295 In286 2.326 . S
O295 C291 1.260 1_565 S
C296 O287 1.240 . S
C296 O288 1.252 . S
O297 In286 2.294 1_545 S
O297 C290 1.240 . S
O298 In286 2.326 . S
O298 C290 1.252 1_565 S
In299 O300 2.294 . S
In299 O301 2.326 . S
In299 O305 2.266 . S
In299 O306 2.326 . S
In299 O307 2.266 . S
In299 O308 2.326 . S
In299 O310 2.294 . S
In299 O311 2.326 . S
O300 In299 2.294 . S
O300 C309 1.240 . S
O301 In299 2.326 . S
O301 C309 1.252 . S
C302 O305 1.252 . S
C302 O306 1.260 . S
C303 O310 1.240 . S
C303 O311 1.252 . S
C304 O307 1.252 . S
C304 O308 1.260 . S
O305 In299 2.266 . S
O305 C302 1.252 . S
O306 In299 2.326 . S
O306 C302 1.260 . S
O307 In299 2.266 . S
O307 C304 1.252 . S
O308 In299 2.326 . S
O308 C304 1.260 . S
C309 O300 1.240 . S
C309 O301 1.252 . S
O310 In299 2.294 . S
O310 C303 1.240 . S
O311 In299 2.326 . S
O311 C303 1.252 . S
In312 O313 2.294 . S
In312 O314 2.326 . S
In312 O318 2.266 . S
In312 O319 2.326 1_545 S
In312 O320 2.266 1_545 S
In312 O321 2.326 . S
In312 O323 2.294 1_545 S
In312 O324 2.326 . S
O313 In312 2.294 . S
O313 C322 1.240 . S
O314 In312 2.326 . S
O314 C322 1.252 . S
C315 O318 1.252 . S
C315 O319 1.260 1_545 S
C316 O323 1.240 . S
C316 O324 1.252 1_565 S
C317 O320 1.252 . S
C317 O321 1.260 1_565 S
O318 In312 2.266 . S
O318 C315 1.252 . S
O319 In312 2.326 1_565 S
O319 C315 1.260 1_565 S
O320 In312 2.266 1_565 S
O320 C317 1.252 . S
O321 In312 2.326 . S
O321 C317 1.260 1_545 S
C322 O313 1.240 . S
C322 O314 1.252 . S
O323 In312 2.294 1_565 S
O323 C316 1.240 . S
O324 In312 2.326 . S
O324 C316 1.252 1_545 S
In325 O326 2.294 . S
In325 O327 2.326 . S
In325 O331 2.266 . S
In325 O332 2.326 . S
In325 O333 2.266 . S
In325 O334 2.326 . S
In325 O336 2.294 . S
In325 O337 2.326 . S
O326 In325 2.294 . S
O326 C335 1.240 . S
O327 In325 2.326 . S
O327 C335 1.252 . S
C328 O331 1.252 . S
C328 O332 1.260 . S
C329 O336 1.240 . S
C329 O337 1.252 . S
C330 O333 1.252 . S
C330 O334 1.260 . S
O331 In325 2.266 . S
O331 C328 1.252 . S
O332 In325 2.326 . S
O332 C328 1.260 . S
O333 In325 2.266 . S
O333 C330 1.252 . S
O334 In325 2.326 . S
O334 C330 1.260 . S
C335 O326 1.240 . S
C335 O327 1.252 . S
O336 In325 2.294 . S
O336 C329 1.240 . S
O337 In325 2.326 . S
O337 C329 1.252 . S
In338 O339 2.294 1_564 S
In338 O340 2.326 1_554 S
In338 O344 2.266 1_565 S
In338 O345 2.326 . S
In338 O346 2.266 . S
In338 O347 2.326 1_565 S
In338 O349 2.294 1_554 S
In338 O350 2.326 1_554 S
O339 In338 2.294 1_546 S
O339 C348 1.240 . S
O340 In338 2.326 1_556 S
O340 C348 1.252 1_565 S
C341 O344 1.252 . S
C341 O345 1.260 1_545 S
C342 O349 1.240 . S
C342 O350 1.252 . S
C343 O346 1.252 . S
C343 O347 1.260 1_565 S
O344 In338 2.266 1_545 S
O344 C341 1.252 . S
O345 In338 2.326 . S
O345 C341 1.260 1_565 S
O346 In338 2.266 . S
O346 C343 1.252 . S
O347 In338 2.326 1_545 S
O347 C343 1.260 1_545 S
C348 O339 1.240 . S
C348 O340 1.252 1_545 S
O349 In338 2.294 1_556 S
O349 C342 1.240 . S
O350 In338 2.326 1_556 S
O350 C342 1.252 . S
In351 O352 2.294 . S
In351 O353 2.326 . S
In351 O357 2.266 . S
In351 O358 2.326 . S
In351 O359 2.266 . S
In351 O360 2.326 . S
In351 O362 2.294 . S
In351 O363 2.326 . S
O352 In351 2.294 . S
O352 C361 1.240 . S
O353 In351 2.326 . S
O353 C361 1.252 . S
C354 O357 1.252 . S
C354 O358 1.260 . S
C355 O362 1.240 . S
C355 O363 1.252 . S
C356 O359 1.252 . S
C356 O360 1.260 . S
O357 In351 2.266 . S
O357 C354 1.252 . S
O358 In351 2.326 . S
O358 C354 1.260 . S
O359 In351 2.266 . S
O359 C356 1.252 . S
O360 In351 2.326 . S
O360 C356 1.260 . S
C361 O352 1.240 . S
C361 O353 1.252 . S
O362 In351 2.294 . S
O362 C355 1.240 . S
O363 In351 2.326 . S
O363 C355 1.252 . S
In364 O365 2.294 . S
In364 O366 2.326 . S
In364 O370 2.266 . S
In364 O371 2.326 1_565 S
In364 O372 2.266 1_564 S
In364 O373 2.326 1_554 S
In364 O375 2.294 1_565 S
In364 O376 2.326 . S
O365 In364 2.294 . S
O365 C374 1.240 . S
O366 In364 2.326 . S
O366 C374 1.252 . S
C367 O370 1.252 . S
C367 O371 1.260 1_565 S
C368 O375 1.240 . S
C368 O376 1.252 1_545 S
C369 O372 1.252 . S
C369 O373 1.260 1_545 S
O370 In364 2.266 . S
O370 C367 1.252 . S
O371 In364 2.326 1_545 S
O371 C367 1.260 1_545 S
O372 In364 2.266 1_546 S
O372 C369 1.252 . S
O373 In364 2.326 1_556 S
O373 C369 1.260 1_565 S
C374 O365 1.240 . S
C374 O366 1.252 . S
O375 In364 2.294 1_545 S
O375 C368 1.240 . S
O376 In364 2.326 . S
O376 C368 1.252 1_565 S
In377 O378 2.294 . S
In377 O379 2.326 1_556 S
In377 O383 2.266 . S
In377 O384 2.326 . S
In377 O385 2.266 . S
In377 O386 2.326 . S
In377 O388 2.294 . S
In377 O389 2.326 . S
O378 In377 2.294 . S
O378 C387 1.240 1_556 S
O379 In377 2.326 1_554 S
O379 C387 1.252 . S
C380 O383 1.252 . S
C380 O384 1.260 . S
C381 O388 1.240 . S
C381 O389 1.252 . S
C382 O385 1.252 . S
C382 O386 1.260 . S
O383 In377 2.266 . S
O383 C380 1.252 . S
O384 In377 2.326 . S
O384 C380 1.260 . S
O385 In377 2.266 . S
O385 C382 1.252 . S
O386 In377 2.326 . S
O386 C382 1.260 . S
C387 O378 1.240 1_554 S
C387 O379 1.252 . S
O388 In377 2.294 . S
O388 C381 1.240 . S
O389 In377 2.326 . S
O389 C381 1.252 . S
In390 O391 2.294 . S
In390 O392 2.326 . S
In390 O396 2.266 . S
In390 O397 2.326 1_545 S
In390 O398 2.266 1_545 S
In390 O399 2.326 . S
In390 O401 2.294 1_545 S
In390 O402 2.326 . S
O391 In390 2.294 . S
O391 C400 1.240 . S
O392 In390 2.326 . S
O392 C400 1.252 . S
C393 O396 1.252 . S
C393 O397 1.260 1_545 S
C394 O401 1.240 . S
C394 O402 1.252 1_565 S
C395 O398 1.252 . S
C395 O399 1.260 1_565 S
O396 In390 2.266 . S
O396 C393 1.252 . S
O397 In390 2.326 1_565 S
O397 C393 1.260 1_565 S
O398 In390 2.266 1_565 S
O398 C395 1.252 . S
O399 In390 2.326 . S
O399 C395 1.260 1_545 S
C400 O391 1.240 . S
C400 O392 1.252 . S
O401 In390 2.294 1_565 S
O401 C394 1.240 . S
O402 In390 2.326 . S
O402 C394 1.252 1_545 S
In403 O404 2.294 . S
In403 O405 2.326 . S
In403 O409 2.266 . S
In403 O410 2.326 . S
In403 O411 2.266 . S
In403 O412 2.326 . S
In403 O414 2.294 . S
In403 O415 2.326 . S
O404 In403 2.294 . S
O404 C413 1.240 . S
O405 In403 2.326 . S
O405 C413 1.252 . S
C406 O409 1.252 . S
C406 O410 1.260 . S
C407 O414 1.240 . S
C407 O415 1.252 . S
C408 O411 1.252 . S
C408 O412 1.260 . S
O409 In403 2.266 . S
O409 C406 1.252 . S
O410 In403 2.326 . S
O410 C406 1.260 . S
O411 In403 2.266 . S
O411 C408 1.252 . S
O412 In403 2.326 . S
O412 C408 1.260 . S
C413 O404 1.240 . S
C413 O405 1.252 . S
O414 In403 2.294 . S
O414 C407 1.240 . S
O415 In403 2.326 . S
O415 C407 1.252 . S
C109 C3 1.691 1_655 S
C18 C328 1.691 . S
C31 C135 1.691 . S
C44 C356 1.691 . S
C55 C159 1.691 1_455 S
C382 C68 1.691 . S
C185 C81 1.691 . S
C406 C96 1.691 . S
C224 C122 1.691 . S
C148 C252 1.691 . S
C172 C276 1.691 . S
C302 C198 1.691 . S
C315 C211 1.691 1_545 S
C237 C343 1.691 1_645 S
C265 C367 1.691 1_545 S
C393 C289 1.691 1_445 S
C5 C57 1.730 . S
C70 C16 1.730 1_556 S
C83 C29 1.730 . S
C42 C94 1.730 . S
C107 C161 1.730 . S
C120 C174 1.730 1_556 S
C187 C133 1.730 . S
C200 C146 1.730 . S
C263 C213 1.730 1_565 S
C278 C226 1.730 . S
C239 C291 1.730 1_565 S
C304 C250 1.730 1_556 S
C369 C317 1.730 1_545 S
C330 C380 1.730 . S
C395 C341 1.730 1_565 S
C408 C354 1.730 1_554 S
C56 C4 1.347 . S
C69 C23 1.346 . S
C36 C82 1.346 . S
C101 C49 1.347 . S
C160 C114 1.346 . S
C127 C173 1.346 . S
C186 C140 1.347 . S
C199 C153 1.347 . S
C212 C270 1.346 1_545 S
C277 C225 1.347 . S
C290 C238 1.346 1_545 S
C303 C257 1.347 . S
C368 C316 1.346 1_545 S
C329 C387 1.347 . S
C348 C394 1.346 1_545 S
C361 C407 1.347 . S
C10 C283 1.706 . S
C296 C17 1.706 . S
C30 C309 1.706 . S
C43 C264 1.706 . S
C251 C62 1.706 . S
C218 C75 1.706 . S
C231 C88 1.706 . S
C95 C244 1.706 . S
C108 C381 1.706 . S
C400 C121 1.706 . S
C413 C134 1.706 . S
C374 C147 1.706 . S
C355 C166 1.706 . S
C322 C179 1.706 . S
C192 C335 1.706 . S
C205 C342 1.706 . S
