# Generated by pormake.
# Topology ume, (4)-cn, num edge types: 1
# Building blocks:
#     Node 0, Type 0, BuildingBlock: ICAMEG_clean_sbu_1, # of connection points: 4
#     Node 1, Type 0, BuildingBlock: ICAMEG_clean_sbu_1, # of connection points: 4
#     Node 2, Type 0, BuildingBlock: ICAMEG_clean_sbu_1, # of connection points: 4
#     Node 3, Type 0, BuildingBlock: ICAMEG_clean_sbu_1, # of connection points: 4
#     Node 4, Type 0, BuildingBlock: ICAMEG_clean_sbu_1, # of connection points: 4
#     Node 5, Type 0, BuildingBlock: ICAMEG_clean_sbu_1, # of connection points: 4
#     Node 6, Type 0, BuildingBlock: ICAMEG_clean_sbu_1, # of connection points: 4
#     Node 7, Type 0, BuildingBlock: ICAMEG_clean_sbu_1, # of connection points: 4
#     Node 8, Type 0, BuildingBlock: ICAMEG_clean_sbu_1, # of connection points: 4
#     Node 9, Type 0, BuildingBlock: ICAMEG_clean_sbu_1, # of connection points: 4
#     Node 10, Type 0, BuildingBlock: ICAMEG_clean_sbu_1, # of connection points: 4
#     Node 11, Type 0, BuildingBlock: ICAMEG_clean_sbu_1, # of connection points: 4
#     Node 12, Type 0, BuildingBlock: ICAMEG_clean_sbu_1, # of connection points: 4
#     Node 13, Type 0, BuildingBlock: ICAMEG_clean_sbu_1, # of connection points: 4
#     Node 14, Type 0, BuildingBlock: ICAMEG_clean_sbu_1, # of connection points: 4
#     Node 15, Type 0, BuildingBlock: ICAMEG_clean_sbu_1, # of connection points: 4
#     Edge 16, Type (0, 0), BuildingBlock: AJUNOK_clean_linker_0, # of connection points: 2
#     Edge 17, Type (0, 0), BuildingBlock: AJUNOK_clean_linker_0, # of connection points: 2
#     Edge 18, Type (0, 0), BuildingBlock: AJUNOK_clean_linker_0, # of connection points: 2
#     Edge 19, Type (0, 0), BuildingBlock: AJUNOK_clean_linker_0, # of connection points: 2
#     Edge 20, Type (0, 0), BuildingBlock: AJUNOK_clean_linker_0, # of connection points: 2
#     Edge 21, Type (0, 0), BuildingBlock: AJUNOK_clean_linker_0, # of connection points: 2
#     Edge 22, Type (0, 0), BuildingBlock: AJUNOK_clean_linker_0, # of connection points: 2
#     Edge 23, Type (0, 0), BuildingBlock: AJUNOK_clean_linker_0, # of connection points: 2
#     Edge 24, Type (0, 0), BuildingBlock: AJUNOK_clean_linker_0, # of connection points: 2
#     Edge 25, Type (0, 0), BuildingBlock: AJUNOK_clean_linker_0, # of connection points: 2
#     Edge 26, Type (0, 0), BuildingBlock: AJUNOK_clean_linker_0, # of connection points: 2
#     Edge 27, Type (0, 0), BuildingBlock: AJUNOK_clean_linker_0, # of connection points: 2
#     Edge 28, Type (0, 0), BuildingBlock: AJUNOK_clean_linker_0, # of connection points: 2
#     Edge 29, Type (0, 0), BuildingBlock: AJUNOK_clean_linker_0, # of connection points: 2
#     Edge 30, Type (0, 0), BuildingBlock: AJUNOK_clean_linker_0, # of connection points: 2
#     Edge 31, Type (0, 0), BuildingBlock: AJUNOK_clean_linker_0, # of connection points: 2
#     Edge 32, Type (0, 0), BuildingBlock: AJUNOK_clean_linker_0, # of connection points: 2
#     Edge 33, Type (0, 0), BuildingBlock: AJUNOK_clean_linker_0, # of connection points: 2
#     Edge 34, Type (0, 0), BuildingBlock: AJUNOK_clean_linker_0, # of connection points: 2
#     Edge 35, Type (0, 0), BuildingBlock: AJUNOK_clean_linker_0, # of connection points: 2
#     Edge 36, Type (0, 0), BuildingBlock: AJUNOK_clean_linker_0, # of connection points: 2
#     Edge 37, Type (0, 0), BuildingBlock: AJUNOK_clean_linker_0, # of connection points: 2
#     Edge 38, Type (0, 0), BuildingBlock: AJUNOK_clean_linker_0, # of connection points: 2
#     Edge 39, Type (0, 0), BuildingBlock: AJUNOK_clean_linker_0, # of connection points: 2
#     Edge 40, Type (0, 0), BuildingBlock: AJUNOK_clean_linker_0, # of connection points: 2
#     Edge 41, Type (0, 0), BuildingBlock: AJUNOK_clean_linker_0, # of connection points: 2
#     Edge 42, Type (0, 0), BuildingBlock: AJUNOK_clean_linker_0, # of connection points: 2
#     Edge 43, Type (0, 0), BuildingBlock: AJUNOK_clean_linker_0, # of connection points: 2
#     Edge 44, Type (0, 0), BuildingBlock: AJUNOK_clean_linker_0, # of connection points: 2
#     Edge 45, Type (0, 0), BuildingBlock: AJUNOK_clean_linker_0, # of connection points: 2
#     Edge 46, Type (0, 0), BuildingBlock: AJUNOK_clean_linker_0, # of connection points: 2
#     Edge 47, Type (0, 0), BuildingBlock: AJUNOK_clean_linker_0, # of connection points: 2
# Relax obj value: 0.076
# Max RMSD: 0.095
# Mean RMSD: 0.094
data_MOF--net-ume--node1-ICAMEG_clean_sbu_1--edge1-AJUNOK_clean_linker_0
_symmetry_space_group_name_H-M    P1
_symmetry_Int_Tables_number       1
_symmetry_cell_setting            triclinic
loop_
_symmetry_equiv_pos_as_xyz
'x, y, z'
_cell_length_a     22.280168
_cell_length_b     22.313955
_cell_length_c     88.461848
_cell_angle_alpha  90.018418
_cell_angle_beta   90.01873
_cell_angle_gamma 89.965364
loop_
_atom_site_label
_atom_site_type_symbol
_atom_site_fract_x
_atom_site_fract_y
_atom_site_fract_z
_atom_type_partial_charge
Co0 Co 0.28639 0.12463 0.3251 0.0
Co1 Co 0.25812 0.00294 0.3028 0.0
O2 O 0.23863 0.05416 0.32 0.0
C3 C 0.27524 0.05986 0.35418 0.0
O4 O 0.2923 0.01163 0.34685 0.0
C5 C 0.12907 0.02854 0.29921 0.0
O6 O 0.14266 0.08565 0.30024 0.0
O7 O 0.25635 0.07318 0.28913 0.0
O8 O 0.30387 0.14193 0.30312 0.0
H9 H 0.36127 0.95366 0.25389 0.0
H10 H 0.16303 0.11352 0.33726 0.0
O11 O 0.27039 0.10949 0.34714 0.0
H12 H 0.16328 0.30118 0.30783 0.0
H13 H 0.33316 0.31212 0.35451 0.0
H14 H 0.40433 0.17204 0.31529 0.0
H15 H 0.25527 0.24028 0.31004 0.0
H16 H 0.27213 0.22448 0.34723 0.0
O17 O 0.17051 0.98937 0.2995 0.0
H18 H 0.3443 0.01081 0.27735 0.0
H19 H 0.20887 0.88797 0.29075 0.0
H20 H 0.46657 0.25933 0.32211 0.0
H21 H 0.07014 0.17334 0.33546 0.0
H22 H 0.43099 0.33017 0.34184 0.0
H23 H 0.06987 0.26783 0.32063 0.0
O24 O 0.35943 0.07402 0.32623 0.0
H25 H 0.18149 0.8721 0.34478 0.0
H26 H 0.34332 0.90145 0.30749 0.0
H27 H 0.34843 0.81592 0.3251 0.0
H28 H 0.2671 0.80085 0.34392 0.0
H29 H 0.17846 0.95736 0.32706 0.0
H30 H 0.22394 0.82978 0.26732 0.0
H31 H 0.29963 0.86344 0.24855 0.0
O32 O 0.34645 0.0146 0.30597 0.0
C33 C 0.28498 0.12231 0.29038 0.0
C34 C 0.32775 0.93889 0.26192 0.0
C35 C 0.2506 0.86942 0.26946 0.0
N36 N 0.27552 0.95283 0.2854 0.0
C37 C 0.31823 0.97081 0.27529 0.0
C38 C 0.24235 0.90246 0.28271 0.0
C39 C 0.29312 0.88829 0.25893 0.0
C40 C 0.16339 0.15489 0.33091 0.0
N41 N 0.21455 0.17351 0.32382 0.0
C42 C 0.1106 0.18844 0.32988 0.0
C43 C 0.11046 0.2414 0.32153 0.0
C44 C 0.16284 0.26011 0.31434 0.0
C45 C 0.21475 0.22535 0.31559 0.0
C46 C 0.34901 0.28174 0.34584 0.0
C47 C 0.38836 0.20291 0.3238 0.0
C48 C 0.31467 0.23205 0.34168 0.0
N49 N 0.33423 0.19377 0.33067 0.0
C50 C 0.42389 0.25214 0.32766 0.0
C51 C 0.40391 0.29183 0.33874 0.0
C52 C 0.37878 0.03648 0.31653 0.0
C53 C 0.2171 0.87809 0.3366 0.0
C54 C 0.30778 0.89522 0.31565 0.0
C55 C 0.31087 0.84664 0.32558 0.0
C56 C 0.2652 0.83818 0.33613 0.0
N57 N 0.26053 0.93425 0.31622 0.0
C58 C 0.2155 0.92614 0.3265 0.0
Co59 Co 0.8679 0.78534 0.57529 0.0
Co60 Co 0.98879 0.75554 0.55289 0.0
O61 O 0.93791 0.73676 0.5702 0.0
C62 C 0.9329 0.77366 0.60437 0.0
O63 O 0.98125 0.7904 0.59703 0.0
C64 C 0.96495 0.62562 0.54967 0.0
O65 O 0.90745 0.63789 0.55072 0.0
O66 O 0.91789 0.75297 0.53932 0.0
O67 O 0.85057 0.80281 0.55327 0.0
H68 H 0.03718 0.85776 0.50396 0.0
H69 H 0.87781 0.66213 0.58751 0.0
O70 O 0.88309 0.76933 0.59734 0.0
H71 H 0.68968 0.66439 0.55813 0.0
H72 H 0.68076 0.83416 0.60473 0.0
H73 H 0.8219 0.90393 0.5656 0.0
H74 H 0.75169 0.75552 0.56026 0.0
H75 H 0.76776 0.77216 0.5974 0.0
O76 O 0.00314 0.66791 0.54985 0.0
H77 H 0.98031 0.84089 0.52738 0.0
H78 H 0.10364 0.70573 0.54077 0.0
H79 H 0.73526 0.96716 0.57247 0.0
H80 H 0.81686 0.57011 0.58579 0.0
H81 H 0.66388 0.93228 0.59216 0.0
H82 H 0.72212 0.57085 0.57098 0.0
O83 O 0.91934 0.85778 0.57634 0.0
H84 H 0.12113 0.68148 0.59494 0.0
H85 H 0.09024 0.84112 0.55718 0.0
H86 H 0.17632 0.84729 0.57465 0.0
H87 H 0.19219 0.76706 0.5937 0.0
H88 H 0.03528 0.67741 0.57737 0.0
H89 H 0.16103 0.71988 0.51718 0.0
H90 H 0.12688 0.79523 0.49839 0.0
O91 O 0.97685 0.84399 0.55579 0.0
C92 C 0.86939 0.78293 0.54055 0.0
C93 C 0.05198 0.82402 0.5119 0.0
C94 C 0.12148 0.74672 0.51936 0.0
N95 N 0.0385 0.77222 0.53542 0.0
C96 C 0.02028 0.81472 0.52529 0.0
C97 C 0.08885 0.73893 0.5327 0.0
C98 C 0.10238 0.78909 0.50883 0.0
C99 C 0.83634 0.66293 0.58117 0.0
N100 N 0.81819 0.71418 0.57406 0.0
C101 C 0.80215 0.61064 0.58019 0.0
C102 C 0.74905 0.61106 0.57185 0.0
C103 C 0.73084 0.66351 0.56463 0.0
C104 C 0.76623 0.71493 0.56584 0.0
C105 C 0.71135 0.8497 0.59607 0.0
C106 C 0.79075 0.88824 0.57408 0.0
C107 C 0.76067 0.81479 0.59188 0.0
N108 N 0.79921 0.83395 0.58088 0.0
C109 C 0.7419 0.92433 0.57797 0.0
C110 C 0.70192 0.90476 0.58902 0.0
C111 C 0.95598 0.87679 0.56639 0.0
C112 C 0.1148 0.71662 0.58666 0.0
C113 C 0.0968 0.80607 0.56545 0.0
C114 C 0.14569 0.80975 0.57529 0.0
C115 C 0.1546 0.76469 0.58597 0.0
N116 N 0.05787 0.75884 0.56622 0.0
C117 C 0.06641 0.71443 0.57663 0.0
Co118 Co 0.21078 0.37005 0.825 0.0
Co119 Co 0.24444 0.49375 0.8037 0.0
O120 O 0.26069 0.43969 0.82055 0.0
C121 C 0.22036 0.43316 0.85434 0.0
O122 O 0.20515 0.48205 0.84703 0.0
C123 C 0.37133 0.46093 0.79994 0.0
O124 O 0.35381 0.4049 0.80087 0.0
O125 O 0.24279 0.42538 0.78944 0.0
O126 O 0.19569 0.35444 0.80286 0.0
H127 H 0.14543 0.55483 0.75508 0.0
H128 H 0.33281 0.37807 0.83816 0.0
O129 O 0.22448 0.38365 0.8472 0.0
H130 H 0.33307 0.19291 0.80772 0.0
H131 H 0.15612 0.18265 0.8535 0.0
H132 H 0.0943 0.3243 0.81364 0.0
H133 H 0.24166 0.25485 0.80966 0.0
H134 H 0.21974 0.26943 0.84705 0.0
O135 O 0.33272 0.50286 0.80055 0.0
H136 H 0.15917 0.49327 0.77796 0.0
H137 H 0.29989 0.60745 0.79277 0.0
H138 H 0.02954 0.2379 0.81964 0.0
H139 H 0.42506 0.31718 0.83664 0.0
H140 H 0.06038 0.16633 0.8397 0.0
H141 H 0.42564 0.22403 0.82127 0.0
O142 O 0.13841 0.42188 0.82576 0.0
H143 H 0.32668 0.61482 0.84689 0.0
H144 H 0.16427 0.59858 0.80922 0.0
H145 H 0.1629 0.68163 0.82762 0.0
H146 H 0.2445 0.69006 0.84665 0.0
H147 H 0.32604 0.53221 0.82835 0.0
H148 H 0.28788 0.6701 0.76997 0.0
H149 H 0.2111 0.64306 0.75079 0.0
O150 O 0.15571 0.48616 0.80665 0.0
C151 C 0.2149 0.37574 0.79034 0.0
C152 C 0.17932 0.56681 0.76331 0.0
C153 C 0.25932 0.63147 0.77167 0.0
N154 N 0.23016 0.54686 0.78672 0.0
C155 C 0.18703 0.53238 0.77635 0.0
C156 C 0.26581 0.59594 0.78457 0.0
C157 C 0.21618 0.61631 0.76092 0.0
C158 C 0.3325 0.33719 0.83161 0.0
N159 N 0.28184 0.31989 0.82408 0.0
C160 C 0.38494 0.30304 0.83073 0.0
C161 C 0.38526 0.25083 0.82209 0.0
C162 C 0.33336 0.23339 0.81447 0.0
C163 C 0.28177 0.26871 0.81558 0.0
C164 C 0.14228 0.21342 0.84471 0.0
C165 C 0.10822 0.2931 0.8223 0.0
C166 C 0.17808 0.26266 0.84102 0.0
N167 N 0.16103 0.30148 0.82987 0.0
C168 C 0.07128 0.24438 0.82569 0.0
C169 C 0.08858 0.20428 0.83696 0.0
C170 C 0.12144 0.46235 0.81652 0.0
C171 C 0.29099 0.61174 0.83862 0.0
C172 C 0.19995 0.60197 0.81746 0.0
C173 C 0.19898 0.64914 0.82784 0.0
C174 C 0.24481 0.65388 0.8385 0.0
N175 N 0.24532 0.56072 0.81768 0.0
C176 C 0.29053 0.56521 0.82806 0.0
Co177 Co 0.62869 0.71655 0.07427 0.0
Co178 Co 0.49556 0.73867 0.05505 0.0
O179 O 0.55325 0.75907 0.07079 0.0
C180 C 0.56983 0.71982 0.10452 0.0
O181 O 0.51976 0.70353 0.09786 0.0
C182 C 0.52467 0.86494 0.04881 0.0
O183 O 0.58125 0.84855 0.04901 0.0
O184 O 0.56005 0.73457 0.0395 0.0
O185 O 0.64222 0.70471 0.05202 0.0
H186 H 0.42841 0.63335 1.00795 0.0
H187 H 0.60883 0.83585 0.08818 0.0
O188 O 0.61741 0.72696 0.0967 0.0
H189 H 0.78697 0.85966 0.05568 0.0
H190 H 0.82548 0.68349 0.101 0.0
H191 H 0.68924 0.6098 0.06131 0.0
H192 H 0.73684 0.76156 0.05793 0.0
H193 H 0.73092 0.73648 0.0954 0.0
O194 O 0.4838 0.826 0.05082 0.0
H195 H 0.49122 0.64803 0.03062 0.0
H196 H 0.37854 0.79047 0.04512 0.0
H197 H 0.78339 0.55527 0.06638 0.0
H198 H 0.65785 0.93466 0.08634 0.0
H199 H 0.85231 0.59212 0.08642 0.0
H200 H 0.74739 0.94709 0.06993 0.0
O201 O 0.58545 0.63811 0.07494 0.0
H202 H 0.38385 0.82883 0.09885 0.0
H203 H 0.39288 0.65948 0.06308 0.0
H204 H 0.31381 0.66155 0.08259 0.0
H205 H 0.30896 0.74672 0.10065 0.0
H206 H 0.46244 0.82469 0.07923 0.0
H207 H 0.3144 0.77721 0.02262 0.0
H208 H 0.34074 0.69988 1.00355 0.0
O209 O 0.50574 0.65125 0.05942 0.0
C210 C 0.61406 0.7158 0.03978 0.0
C211 C 0.41691 0.66767 0.0161 0.0
C212 C 0.35296 0.74847 0.02433 0.0
N213 N 0.4386 0.7201 0.03916 0.0
C214 C 0.45198 0.67584 0.02902 0.0
C215 C 0.38922 0.75553 0.03709 0.0
C216 C 0.36768 0.70496 0.01365 0.0
C217 C 0.64823 0.84072 0.08117 0.0
N218 N 0.67013 0.7929 0.07325 0.0
C219 C 0.67563 0.89685 0.08011 0.0
C220 C 0.72581 0.90382 0.07088 0.0
C221 C 0.74801 0.85479 0.06288 0.0
C222 C 0.71938 0.79936 0.06418 0.0
C223 C 0.79565 0.66667 0.09232 0.0
C224 C 0.71861 0.62555 0.0701 0.0
C225 C 0.74179 0.69624 0.08918 0.0
N226 N 0.70384 0.67533 0.07825 0.0
C227 C 0.77206 0.59476 0.0729 0.0
C228 C 0.81071 0.61548 0.08413 0.0
C229 C 0.53933 0.6188 0.0678 0.0
C230 C 0.38541 0.79155 0.09103 0.0
C231 C 0.39109 0.69661 0.07092 0.0
C232 C 0.34617 0.69761 0.08192 0.0
C233 C 0.34346 0.74542 0.09204 0.0
N234 N 0.43214 0.74196 0.07002 0.0
C235 C 0.42967 0.78908 0.07987 0.0
Co236 Co 0.28462 0.36861 0.94835 0.0
Co237 Co 0.24841 0.48874 0.97044 0.0
O238 O 0.23288 0.4366 0.95318 0.0
C239 C 0.27096 0.4325 0.91923 0.0
O240 O 0.28536 0.48146 0.92661 0.0
C241 C 0.1203 0.45697 0.97356 0.0
O242 O 0.13651 0.40061 0.97236 0.0
O243 O 0.24953 0.41833 0.98407 0.0
O244 O 0.3025 0.35263 0.9704 0.0
H245 H 0.3398 0.53878 0.02067 0.0
H246 H 0.16136 0.37293 0.93584 0.0
O247 O 0.26861 0.38262 0.92625 0.0
H248 H 0.17018 0.18666 0.96573 0.0
H249 H 0.34332 0.18428 0.91904 0.0
H250 H 0.40374 0.32652 0.9589 0.0
H251 H 0.25911 0.25187 0.96354 0.0
H252 H 0.27724 0.26853 0.9261 0.0
O253 O 0.15994 0.49791 0.97339 0.0
H254 H 0.33207 0.48458 0.99647 0.0
H255 H 0.19198 0.60075 0.98221 0.0
H256 H 0.47099 0.24269 0.95229 0.0
H257 H 0.07151 0.30878 0.93763 0.0
H258 H 0.44086 0.17082 0.93222 0.0
H259 H 0.07552 0.21503 0.95272 0.0
O260 O 0.35471 0.42303 0.94739 0.0
H261 H 0.16821 0.61523 0.92801 0.0
H262 H 0.32799 0.59485 0.96626 0.0
H263 H 0.3299 0.68051 0.94865 0.0
H264 H 0.24962 0.69104 0.92934 0.0
H265 H 0.1683 0.53002 0.94577 0.0
H266 H 0.19823 0.65626 1.00629 0.0
H267 H 0.27118 0.62401 0.02591 0.0
O268 O 0.33765 0.48189 0.96758 0.0
C269 C 0.28158 0.37127 0.98301 0.0
C270 C 0.30741 0.55284 0.01227 0.0
C271 C 0.2279 0.61873 1.0042 0.0
N272 N 0.26152 0.53938 0.98795 0.0
C273 C 0.30318 0.52267 0.99848 0.0
C274 C 0.22481 0.58737 0.99056 0.0
C275 C 0.26883 0.60061 0.0152 0.0
C276 C 0.16365 0.33183 0.94227 0.0
N277 N 0.21547 0.31603 0.94951 0.0
C278 C 0.11256 0.29582 0.9433 0.0
C279 C 0.11481 0.24328 0.9518 0.0
C280 C 0.16789 0.22738 0.95911 0.0
C281 C 0.21806 0.26455 0.95786 0.0
C282 C 0.35685 0.21517 0.92783 0.0
C283 C 0.39012 0.29517 0.95024 0.0
C284 C 0.31966 0.26299 0.93187 0.0
N285 N 0.33633 0.30196 0.94302 0.0
C286 C 0.42848 0.24791 0.94651 0.0
C287 C 0.41157 0.20765 0.93524 0.0
C288 C 0.37151 0.46193 0.95706 0.0
C289 C 0.20333 0.61123 0.9364 0.0
C290 C 0.29289 0.59915 0.95789 0.0
C291 C 0.29416 0.64779 0.94796 0.0
C292 C 0.24908 0.6537 0.93714 0.0
N293 N 0.24798 0.55758 0.95706 0.0
C294 C 0.20348 0.56322 0.94653 0.0
Co295 Co 0.63018 0.78429 0.19941 0.0
Co296 Co 0.50773 0.75318 0.22112 0.0
O297 O 0.5599 0.73532 0.20393 0.0
C298 C 0.57001 0.77158 0.16947 0.0
O299 O 0.51952 0.78676 0.1761 0.0
C300 C 0.53291 0.62433 0.22408 0.0
O301 O 0.59022 0.63771 0.22331 0.0
O302 O 0.57755 0.75014 0.23504 0.0
O303 O 0.645 0.80126 0.22152 0.0
H304 H 0.45621 0.84901 0.27084 0.0
H305 H 0.62256 0.66149 0.18687 0.0
O306 O 0.61824 0.76866 0.17721 0.0
H307 H 0.80719 0.66353 0.21762 0.0
H308 H 0.82187 0.83482 0.17207 0.0
H309 H 0.67338 0.90322 0.20963 0.0
H310 H 0.74493 0.75442 0.21525 0.0
H311 H 0.73481 0.7717 0.17858 0.0
O312 O 0.49385 0.66575 0.22384 0.0
H313 H 0.51526 0.83444 0.24758 0.0
H314 H 0.39102 0.70395 0.23211 0.0
H315 H 0.76008 0.96752 0.20361 0.0
H316 H 0.68389 0.56973 0.18878 0.0
H317 H 0.83511 0.93341 0.1847 0.0
H318 H 0.77685 0.57035 0.20429 0.0
O319 O 0.57799 0.85628 0.19814 0.0
H320 H 0.37754 0.67999 0.17856 0.0
H321 H 0.40652 0.83889 0.21662 0.0
H322 H 0.32087 0.84509 0.19903 0.0
H323 H 0.30587 0.76516 0.17984 0.0
H324 H 0.46298 0.67592 0.19626 0.0
H325 H 0.33093 0.71646 0.25532 0.0
H326 H 0.3642 0.7885 0.27502 0.0
O327 O 0.51969 0.84149 0.21854 0.0
C328 C 0.62586 0.78042 0.23409 0.0
C329 C 0.44148 0.81717 0.26238 0.0
C330 C 0.37123 0.74271 0.25368 0.0
N331 N 0.45652 0.76865 0.23845 0.0
C332 C 0.47444 0.80917 0.24911 0.0
C333 C 0.40534 0.73595 0.24054 0.0
C334 C 0.38991 0.78315 0.26473 0.0
C335 C 0.66328 0.66227 0.19351 0.0
N336 N 0.68024 0.71333 0.20088 0.0
C337 C 0.69768 0.61011 0.1946 0.0
C338 C 0.74978 0.61045 0.20333 0.0
C339 C 0.76679 0.6627 0.21082 0.0
C340 C 0.73123 0.71399 0.20948 0.0
C341 C 0.78952 0.85018 0.18034 0.0
C342 C 0.70589 0.88798 0.20142 0.0
C343 C 0.74002 0.81471 0.18402 0.0
N344 N 0.69918 0.83362 0.19452 0.0
C345 C 0.75487 0.92463 0.19804 0.0
C346 C 0.79693 0.90548 0.18743 0.0
C347 C 0.54125 0.87485 0.20815 0.0
C348 C 0.38351 0.71501 0.18689 0.0
C349 C 0.40045 0.80407 0.20826 0.0
C350 C 0.35177 0.80774 0.19836 0.0
C351 C 0.34336 0.76285 0.1876 0.0
N352 N 0.4396 0.75697 0.2075 0.0
C353 C 0.43167 0.71283 0.19698 0.0
Co354 Co 0.21527 0.12222 0.44834 0.0
Co355 Co 0.2535 0.99656 0.46892 0.0
O356 O 0.26769 0.05446 0.45279 0.0
C357 C 0.22564 0.0584 0.4191 0.0
O358 O 0.2129 0.00914 0.42654 0.0
C359 C 0.37733 0.03923 0.47453 0.0
O360 O 0.35742 0.09438 0.47327 0.0
O361 O 0.24088 0.06227 0.48389 0.0
O362 O 0.20152 0.13781 0.47041 0.0
H363 H 0.15256 0.92017 0.51577 0.0
H364 H 0.3368 0.11634 0.43478 0.0
O365 O 0.22786 0.10827 0.42612 0.0
H366 H 0.33424 0.30288 0.46467 0.0
H367 H 0.15451 0.30774 0.41978 0.0
H368 H 0.09803 0.16524 0.45992 0.0
H369 H 0.24425 0.23887 0.46319 0.0
H370 H 0.22059 0.22262 0.42615 0.0
O371 O 0.34111 0.99547 0.47348 0.0
H372 H 0.1633 0.98458 0.4933 0.0
H373 H 0.31802 0.8872 0.4797 0.0
H374 H 0.03081 0.24989 0.454 0.0
H375 H 0.42767 0.17927 0.43585 0.0
H376 H 0.05897 0.32194 0.43381 0.0
H377 H 0.42684 0.27314 0.45094 0.0
O378 O 0.14355 0.06909 0.44803 0.0
H379 H 0.3577 0.89725 0.4252 0.0
H380 H 0.19391 0.87936 0.46227 0.0
H381 H 0.20692 0.80065 0.443 0.0
H382 H 0.28944 0.80938 0.42425 0.0
H383 H 0.34217 0.97529 0.44453 0.0
H384 H 0.30836 0.8211 0.50191 0.0
H385 H 0.22592 0.83823 0.5203 0.0
O386 O 0.16525 0.99515 0.46443 0.0
C387 C 0.21561 0.11353 0.48299 0.0
C388 C 0.18876 0.91234 0.50786 0.0
C389 C 0.27625 0.85679 0.50009 0.0
N390 N 0.24113 0.93958 0.48518 0.0
C391 C 0.19486 0.94844 0.49506 0.0
C392 C 0.28136 0.89423 0.48751 0.0
C393 C 0.22998 0.86642 0.5104 0.0
C394 C 0.33586 0.15748 0.44123 0.0
N395 N 0.28517 0.17402 0.44886 0.0
C396 C 0.38753 0.19281 0.44184 0.0
C397 C 0.38707 0.24542 0.45033 0.0
C398 C 0.33515 0.26209 0.45805 0.0
C399 C 0.28436 0.22559 0.4572 0.0
C400 C 0.14183 0.27677 0.42864 0.0
C401 C 0.11073 0.19658 0.45117 0.0
C402 C 0.17903 0.22847 0.43228 0.0
N403 N 0.16349 0.18943 0.44351 0.0
C404 C 0.07242 0.24434 0.44785 0.0
C405 C 0.08823 0.28471 0.43651 0.0
C406 C 0.12881 0.02305 0.45575 0.0
C407 C 0.32138 0.89307 0.43325 0.0
C408 C 0.22895 0.88401 0.454 0.0
C409 C 0.23663 0.839 0.4432 0.0
C410 C 0.28303 0.84382 0.43271 0.0
N411 N 0.26613 0.9326 0.45434 0.0
C412 C 0.31232 0.93714 0.44423 0.0
Co413 Co 0.87118 0.7114 0.69849 0.0
Co414 Co 0.99281 0.74709 0.72031 0.0
O415 O 0.93981 0.76228 0.70316 0.0
C416 C 0.93508 0.72209 0.66922 0.0
O417 O 0.98429 0.70773 0.67654 0.0
C418 C 0.95959 0.87371 0.72347 0.0
O419 O 0.90353 0.85621 0.72236 0.0
O420 O 0.92315 0.74592 0.7343 0.0
O421 O 0.85477 0.69637 0.72059 0.0
H422 H 0.05115 0.65357 0.76984 0.0
H423 H 0.878 0.8333 0.68534 0.0
O424 O 0.88538 0.72516 0.67632 0.0
H425 H 0.69074 0.83072 0.71502 0.0
H426 H 0.68486 0.65412 0.66969 0.0
H427 H 0.82787 0.59356 0.70941 0.0
H428 H 0.75435 0.74048 0.71335 0.0
H429 H 0.77052 0.71906 0.67633 0.0
O430 O 0.0016 0.83518 0.72319 0.0
H431 H 0.98962 0.66631 0.74691 0.0
H432 H 0.10709 0.80216 0.73107 0.0
H433 H 0.74264 0.52748 0.70322 0.0
H434 H 0.81542 0.92439 0.68658 0.0
H435 H 0.67033 0.55771 0.68323 0.0
H436 H 0.7212 0.92355 0.70157 0.0
O437 O 0.92444 0.64002 0.69795 0.0
H438 H 0.11694 0.8274 0.67745 0.0
H439 H 0.09813 0.66678 0.71544 0.0
H440 H 0.18258 0.66472 0.69742 0.0
H441 H 0.19234 0.74544 0.67825 0.0
H442 H 0.0329 0.82745 0.69559 0.0
H443 H 0.16961 0.7915 0.75395 0.0
H444 H 0.14111 0.7175 0.77364 0.0
O445 O 0.98559 0.65834 0.71766 0.0
C446 C 0.87439 0.71637 0.73321 0.0
C447 C 0.06393 0.6861 0.76136 0.0
C448 C 0.13036 0.76356 0.75244 0.0
N449 N 0.04516 0.73427 0.73755 0.0
C450 C 0.02959 0.69305 0.74827 0.0
C451 C 0.09493 0.76924 0.73949 0.0
C452 C 0.11436 0.72202 0.76349 0.0
C453 C 0.83668 0.83236 0.69173 0.0
N454 N 0.81974 0.78155 0.69921 0.0
C455 C 0.80156 0.88415 0.69244 0.0
C456 C 0.74876 0.88368 0.70088 0.0
C457 C 0.73169 0.83164 0.70845 0.0
C458 C 0.76798 0.78071 0.7075 0.0
C459 C 0.71591 0.64057 0.67846 0.0
C460 C 0.79639 0.60718 0.70077 0.0
C461 C 0.7645 0.67713 0.68226 0.0
N462 N 0.80362 0.66048 0.6934 0.0
C463 C 0.74831 0.5695 0.69728 0.0
C464 C 0.7078 0.58647 0.68606 0.0
C465 C 0.9632 0.62345 0.7077 0.0
C466 C 0.11328 0.7921 0.68578 0.0
C467 C 0.10205 0.70204 0.70712 0.0
C468 C 0.15003 0.7007 0.69697 0.0
C469 C 0.15552 0.74603 0.68622 0.0
N470 N 0.06074 0.74732 0.7066 0.0
C471 C 0.06594 0.79202 0.69613 0.0
Co472 Co 0.78178 0.62925 0.82439 0.0
Co473 Co 0.75254 0.50535 0.80293 0.0
O474 O 0.73393 0.55813 0.8199 0.0
C475 C 0.77234 0.56681 0.85383 0.0
O476 O 0.78898 0.51807 0.84665 0.0
C477 C 0.6233 0.53035 0.79948 0.0
O478 O 0.63672 0.58758 0.80019 0.0
O479 O 0.74986 0.57426 0.78887 0.0
O480 O 0.79778 0.64463 0.80226 0.0
H481 H 0.85219 0.45259 0.7538 0.0
H482 H 0.65925 0.61872 0.8371 0.0
O483 O 0.76725 0.61597 0.84659 0.0
H484 H 0.6569 0.8038 0.80666 0.0
H485 H 0.83059 0.81859 0.85281 0.0
H486 H 0.89771 0.67747 0.81336 0.0
H487 H 0.74927 0.74341 0.80882 0.0
H488 H 0.76936 0.73018 0.84627 0.0
O489 O 0.66484 0.49134 0.79998 0.0
H490 H 0.83681 0.5115 0.77705 0.0
H491 H 0.70325 0.38899 0.79178 0.0
H492 H 0.96009 0.76553 0.81944 0.0
H493 H 0.56602 0.67804 0.83535 0.0
H494 H 0.92658 0.83684 0.83929 0.0
H495 H 0.56444 0.77122 0.82001 0.0
O496 O 0.85513 0.57906 0.82552 0.0
H497 H 0.6781 0.37807 0.84584 0.0
H498 H 0.83826 0.40453 0.80796 0.0
H499 H 0.84438 0.32061 0.82603 0.0
H500 H 0.76388 0.30699 0.84515 0.0
H501 H 0.6741 0.46175 0.82766 0.0
H502 H 0.71679 0.329 0.76858 0.0
H503 H 0.79066 0.36162 0.74924 0.0
O504 O 0.84099 0.5174 0.80572 0.0
C505 C 0.77807 0.62371 0.78974 0.0
C506 C 0.81946 0.43825 0.76208 0.0
C507 C 0.74341 0.36893 0.77038 0.0
N508 N 0.76909 0.45376 0.78576 0.0
C509 C 0.81085 0.47117 0.77533 0.0
C510 C 0.73602 0.40298 0.7835 0.0
C511 C 0.78491 0.38722 0.75954 0.0
C512 C 0.65905 0.65954 0.83053 0.0
N513 N 0.70968 0.67774 0.82314 0.0
C514 C 0.60607 0.6928 0.82953 0.0
C515 C 0.60519 0.74503 0.82089 0.0
C516 C 0.65704 0.76331 0.81339 0.0
C517 C 0.70917 0.72886 0.81463 0.0
C518 C 0.84558 0.78794 0.8441 0.0
C519 C 0.88262 0.70854 0.82193 0.0
C520 C 0.81115 0.73778 0.84037 0.0
N521 N 0.82966 0.6991 0.82933 0.0
C522 C 0.91823 0.75821 0.82536 0.0
C523 C 0.89943 0.79816 0.83652 0.0
C524 C 0.87388 0.5404 0.81602 0.0
C525 C 0.71335 0.38343 0.83754 0.0
C526 C 0.80311 0.39895 0.81626 0.0
C527 C 0.80675 0.35128 0.82644 0.0
C528 C 0.76155 0.34362 0.83716 0.0
N529 N 0.75577 0.4379 0.81673 0.0
C530 C 0.7112 0.43058 0.82717 0.0
Co531 Co 0.37075 0.2805 0.07416 0.0
Co532 Co 0.498 0.2434 0.0541 0.0
O533 O 0.43917 0.22828 0.07002 0.0
C534 C 0.43002 0.26865 0.10412 0.0
O535 O 0.48099 0.28089 0.09734 0.0
C536 C 0.45977 0.11767 0.04841 0.0
O537 O 0.40368 0.1348 0.04989 0.0
O538 O 0.43274 0.25393 0.03882 0.0
O539 O 0.35773 0.29548 0.05205 0.0
H540 H 0.57303 0.34255 1.00686 0.0
H541 H 0.37468 0.1587 0.08745 0.0
O542 O 0.38159 0.2668 0.09645 0.0
H543 H 0.19144 0.16278 0.05619 0.0
H544 H 0.17996 0.33918 0.10088 0.0
H545 H 0.33048 0.3991 0.06294 0.0
H546 H 0.25582 0.25221 0.05825 0.0
H547 H 0.26547 0.27304 0.09492 0.0
O548 O 0.50192 0.15574 0.04958 0.0
H549 H 0.50798 0.33179 0.02925 0.0
H550 H 0.61219 0.18435 0.04448 0.0
H551 H 0.24541 0.46639 0.06843 0.0
H552 H 0.31125 0.06837 0.08584 0.0
H553 H 0.16937 0.43656 0.08753 0.0
H554 H 0.21898 0.07 0.07008 0.0
O555 O 0.42407 0.35201 0.07519 0.0
H556 H 0.5972 0.14143 0.09815 0.0
H557 H 0.61328 0.30614 0.06137 0.0
H558 H 0.69122 0.29473 0.08091 0.0
H559 H 0.6835 0.21165 0.0995 0.0
H560 H 0.5198 0.15548 0.07856 0.0
H561 H 0.67863 0.19366 0.02232 0.0
H562 H 0.65826 0.27225 1.00312 0.0
O563 O 0.49714 0.33172 0.05844 0.0
C564 C 0.38194 0.28029 0.03955 0.0
C565 C 0.58204 0.30776 0.01508 0.0
C566 C 0.64127 0.22417 0.02374 0.0
N567 N 0.55588 0.25703 0.03807 0.0
C568 C 0.54555 0.30164 0.02782 0.0
C569 C 0.60352 0.21909 0.03627 0.0
C570 C 0.62984 0.26831 0.01299 0.0
C571 C 0.33429 0.15995 0.08069 0.0
N572 N 0.3189 0.21077 0.07299 0.0
C573 C 0.29868 0.10858 0.07977 0.0
C574 C 0.24698 0.10949 0.0709 0.0
C575 C 0.23154 0.1615 0.0631 0.0
C576 C 0.26829 0.21197 0.06426 0.0
C577 C 0.21278 0.3527 0.09254 0.0
C578 C 0.29753 0.38575 0.07125 0.0
C579 C 0.26142 0.31552 0.08916 0.0
N580 N 0.30287 0.33213 0.07858 0.0
C581 C 0.24948 0.42408 0.07432 0.0
C582 C 0.20685 0.40732 0.08504 0.0
C583 C 0.46957 0.36754 0.06733 0.0
C584 C 0.60092 0.17803 0.09017 0.0
C585 C 0.60891 0.27098 0.06959 0.0
C586 C 0.65354 0.26417 0.08054 0.0
C587 C 0.64928 0.21746 0.09094 0.0
N588 N 0.56126 0.23262 0.069 0.0
C589 C 0.55722 0.18623 0.07904 0.0
Co590 Co 0.71706 0.86942 0.32536 0.0
Co591 Co 0.75013 0.99329 0.30406 0.0
O592 O 0.76682 0.93909 0.32085 0.0
C593 C 0.72758 0.93253 0.35472 0.0
O594 O 0.71249 0.98151 0.34743 0.0
C595 C 0.87682 0.96017 0.30001 0.0
O596 O 0.85912 0.9042 0.30094 0.0
O597 O 0.7479 0.92507 0.28975 0.0
O598 O 0.70141 0.85387 0.30322 0.0
H599 H 0.64989 0.05476 0.25563 0.0
H600 H 0.8394 0.87749 0.33834 0.0
O601 O 0.73126 0.88299 0.34757 0.0
H602 H 0.83904 0.69244 0.30786 0.0
H603 H 0.66314 0.68197 0.35393 0.0
H604 H 0.60036 0.82359 0.31416 0.0
H605 H 0.74763 0.7543 0.30996 0.0
H606 H 0.72658 0.76877 0.34739 0.0
O607 O 0.83836 0.00223 0.30073 0.0
H608 H 0.66404 0.99316 0.27849 0.0
H609 H 0.80548 0.10694 0.29307 0.0
H610 H 0.53578 0.73717 0.32025 0.0
H611 H 0.93167 0.81669 0.33665 0.0
H612 H 0.5671 0.66562 0.34027 0.0
H613 H 0.93193 0.72358 0.32126 0.0
O614 O 0.64467 0.92115 0.32625 0.0
H615 H 0.83419 0.11413 0.34707 0.0
H616 H 0.67025 0.09813 0.30981 0.0
H617 H 0.6697 0.18113 0.32823 0.0
H618 H 0.75208 0.18946 0.34704 0.0
H619 H 0.8327 0.03153 0.32853 0.0
H620 H 0.79308 0.1696 0.27029 0.0
H621 H 0.7158 0.14272 0.25122 0.0
O622 O 0.66147 0.98576 0.30718 0.0
C623 C 0.72006 0.87541 0.29067 0.0
C624 C 0.68401 0.06666 0.26382 0.0
C625 C 0.76443 0.13107 0.27204 0.0
N626 N 0.73542 0.04655 0.28713 0.0
C627 C 0.69196 0.03221 0.27684 0.0
C628 C 0.77114 0.09554 0.28493 0.0
C629 C 0.72098 0.11603 0.26136 0.0
C630 C 0.83896 0.83663 0.33178 0.0
N631 N 0.78812 0.81932 0.32432 0.0
C632 C 0.89141 0.80253 0.33081 0.0
C633 C 0.89155 0.75035 0.32215 0.0
C634 C 0.83947 0.73289 0.31461 0.0
C635 C 0.78788 0.76817 0.31582 0.0
C636 C 0.6491 0.71273 0.34516 0.0
C637 C 0.6145 0.7924 0.32281 0.0
C638 C 0.68479 0.76198 0.34142 0.0
N639 N 0.66747 0.8008 0.33029 0.0
C640 C 0.57765 0.74366 0.32624 0.0
C641 C 0.59522 0.70357 0.33749 0.0
C642 C 0.62741 0.96167 0.31706 0.0
C643 C 0.79816 0.11109 0.33889 0.0
C644 C 0.70626 0.10145 0.31796 0.0
C645 C 0.70575 0.14861 0.32835 0.0
C646 C 0.75202 0.15329 0.33889 0.0
N647 N 0.75158 0.06015 0.31806 0.0
C648 C 0.79721 0.06457 0.32833 0.0
Co649 Co 0.12952 0.2102 0.5741 0.0
Co650 Co 0.00807 0.24737 0.55258 0.0
O651 O 0.06139 0.26243 0.56969 0.0
C652 C 0.0699 0.22476 0.60395 0.0
O653 O 0.01904 0.21186 0.59719 0.0
C654 C 0.04036 0.37516 0.5494 0.0
O655 O 0.09677 0.3586 0.55035 0.0
O656 O 0.07771 0.24626 0.53864 0.0
O657 O 0.14317 0.192 0.55202 0.0
H658 H 0.95406 0.15659 0.50253 0.0
H659 H 0.12793 0.33318 0.58668 0.0
O660 O 0.1184 0.22636 0.5963 0.0
H661 H 0.31066 0.32293 0.55535 0.0
H662 H 0.31835 0.15061 0.60156 0.0
H663 H 0.16779 0.08981 0.56368 0.0
H664 H 0.24486 0.23473 0.55801 0.0
H665 H 0.23437 0.21781 0.59499 0.0
O666 O -0.0009 0.33583 0.54974 0.0
H667 H 0.01021 0.1641 0.52648 0.0
H668 H 0.89544 0.30436 0.54129 0.0
H669 H 0.25137 0.02144 0.56978 0.0
H670 H 0.19281 0.42228 0.58446 0.0
H671 H 0.32737 0.0517 0.58886 0.0
H672 H 0.28477 0.41756 0.56864 0.0
O673 O 0.0742 0.14094 0.57546 0.0
H674 H 0.88346 0.32785 0.59535 0.0
H675 H 0.90177 0.16826 0.55704 0.0
H676 H 0.81638 0.16695 0.57478 0.0
H677 H 0.80682 0.2472 0.5941 0.0
H678 H 0.96841 0.32714 0.57747 0.0
H679 H 0.83794 0.29826 0.5175 0.0
H680 H 0.86842 0.22528 0.49773 0.0
O681 O 0.01481 0.15809 0.55535 0.0
C682 C 0.12441 0.21359 0.5395 0.0
C683 C 0.94075 0.189 0.511 0.0
C684 C 0.8756 0.26855 0.5194 0.0
N685 N 0.95623 0.23471 0.53526 0.0
C686 C 0.97203 0.1931 0.52464 0.0
C687 C 0.90811 0.27155 0.53288 0.0
C688 C 0.89275 0.22761 0.50831 0.0
C689 C 0.16827 0.33056 0.57993 0.0
N690 N 0.18271 0.27874 0.57254 0.0
C691 C 0.20469 0.38124 0.57866 0.0
C692 C 0.25622 0.37859 0.56976 0.0
C693 C 0.27072 0.32553 0.56228 0.0
C694 C 0.2332 0.27578 0.5638 0.0
C695 C 0.28554 0.13691 0.59323 0.0
C696 C 0.20083 0.10341 0.57195 0.0
C697 C 0.23777 0.17469 0.58951 0.0
N698 N 0.1963 0.15781 0.57895 0.0
C699 C 0.248 0.06446 0.57537 0.0
C700 C 0.29059 0.08144 0.58609 0.0
C701 C 0.03492 0.12421 0.56587 0.0
C702 C 0.88705 0.29272 0.58696 0.0
C703 C 0.89797 0.20327 0.56544 0.0
C704 C 0.84947 0.20235 0.57543 0.0
C705 C 0.84411 0.24741 0.58627 0.0
N706 N 0.93992 0.24784 0.56621 0.0
C707 C 0.93493 0.29222 0.57677 0.0
Co708 Co 0.77764 0.86855 0.44925 0.0
Co709 Co 0.7585 -0.00023 0.46939 0.0
O710 O 0.73646 0.94427 0.45331 0.0
C711 C 0.77624 0.93158 0.41972 0.0
O712 O 0.79575 0.97914 0.42694 0.0
C713 C 0.63052 0.97473 0.47505 0.0
O714 O 0.64434 0.91753 0.47467 0.0
O715 O 0.7604 0.93366 0.48444 0.0
O716 O 0.78936 0.85238 0.47142 0.0
H717 H 0.86608 0.05848 0.51689 0.0
H718 H 0.65833 0.8923 0.43562 0.0
O719 O 0.76717 0.883 0.42695 0.0
H720 H 0.63239 0.70957 0.46626 0.0
H721 H 0.80894 0.67626 0.42051 0.0
H722 H 0.88279 0.8041 0.46191 0.0
H723 H 0.73111 0.75912 0.46462 0.0
H724 H 0.75775 0.7711 0.42674 0.0
O725 O 0.67153 0.01386 0.47362 0.0
H726 H 0.84905 -0.00151 0.49387 0.0
H727 H 0.71064 0.11746 0.48007 0.0
H728 H 0.93544 0.70963 0.45615 0.0
H729 H 0.55889 0.84401 0.43688 0.0
H730 H 0.89845 0.6449 0.43528 0.0
H731 H 0.54543 0.75206 0.45232 0.0
O732 O 0.85692 0.91003 0.44882 0.0
H733 H 0.67215 0.11781 0.42616 0.0
H734 H 0.84046 0.10125 0.46215 0.0
H735 H 0.8409 0.18202 0.44311 0.0
H736 H 0.75629 0.19061 0.42493 0.0
H737 H 0.67385 0.0374 0.44529 0.0
H738 H 0.72605 0.17867 0.50298 0.0
H739 H 0.80265 0.14785 0.52185 0.0
O740 O 0.84571 0.98771 0.465 0.0
C741 C 0.77844 0.87952 0.48383 0.0
C742 C 0.83206 0.0719 0.50883 0.0
C743 C 0.7534 0.13932 0.50103 0.0
N744 N 0.77875 0.05435 0.48567 0.0
C745 C 0.82258 0.03844 0.49571 0.0
C746 C 0.74507 0.10466 0.48805 0.0
C747 C 0.79648 0.12208 0.5116 0.0
C748 C 0.65296 0.85196 0.44224 0.0
N749 N 0.70053 0.82836 0.44996 0.0
C750 C 0.59649 0.82496 0.44296 0.0
C751 C 0.58895 0.77342 0.45165 0.0
C752 C 0.63771 0.74958 0.45948 0.0
C753 C 0.69349 0.77787 0.45852 0.0
C754 C 0.82561 0.70414 0.4296 0.0
C755 C 0.8667 0.77637 0.45282 0.0
C756 C 0.79696 0.75805 0.43314 0.0
N757 N 0.81765 0.79342 0.44464 0.0
C758 C 0.89656 0.72282 0.4496 0.0
C759 C 0.8758 0.68654 0.43789 0.0
C760 C 0.87734 0.95456 0.45633 0.0
C761 C 0.70921 0.11461 0.43404 0.0
C762 C 0.80356 0.10468 0.45426 0.0
C763 C 0.80398 0.15056 0.44353 0.0
C764 C 0.75647 0.1554 0.43334 0.0
N765 N 0.75718 0.06471 0.45483 0.0
C766 C 0.71033 0.06928 0.44492 0.0
Co767 Co 0.1287 0.28489 0.69901 0.0
Co768 Co 0.00515 0.25357 0.72035 0.0
O769 O 0.05804 0.23606 0.70329 0.0
C770 C 0.06928 0.27436 0.66899 0.0
O771 O 0.0187 0.2891 0.67564 0.0
C772 C 0.03018 0.12461 0.7234 0.0
O773 O 0.08753 0.13791 0.72276 0.0
O774 O 0.07435 0.25038 0.73448 0.0
O775 O 0.14287 0.30094 0.72116 0.0
H776 H 0.95127 0.34869 0.77 0.0
H777 H 0.12071 0.16266 0.68614 0.0
O778 O 0.11732 0.27038 0.67676 0.0
H779 H 0.30427 0.16224 0.71729 0.0
H780 H 0.32159 0.33516 0.67219 0.0
H781 H 0.17221 0.40328 0.70956 0.0
H782 H 0.24274 0.25365 0.715 0.0
H783 H 0.23399 0.27231 0.6784 0.0
O784 O 0.99117 0.16608 0.72298 0.0
H785 H 0.01153 0.33431 0.74693 0.0
H786 H 0.88789 0.20425 0.73093 0.0
H787 H 0.25944 0.46729 0.70383 0.0
H788 H 0.18131 0.07039 0.68797 0.0
H789 H 0.33492 0.43332 0.68502 0.0
H790 H 0.27373 0.06977 0.70368 0.0
O791 O 0.07703 0.35728 0.69781 0.0
H792 H 0.87691 0.18081 0.67737 0.0
H793 H 0.9042 0.33939 0.7156 0.0
H794 H 0.8194 0.3458 0.69775 0.0
H795 H 0.80526 0.26603 0.67848 0.0
H796 H 0.9615 0.17653 0.69533 0.0
H797 H 0.82661 0.21653 0.75395 0.0
H798 H 0.85898 0.28824 0.77383 0.0
O799 O 0.01718 0.34191 0.7179 0.0
C800 C 0.12297 0.28022 0.73366 0.0
C801 C 0.93692 0.317 0.76146 0.0
C802 C 0.86703 0.24276 0.75246 0.0
N803 N 0.95314 0.26878 0.73754 0.0
C804 C 0.97058 0.3091 0.7483 0.0
C805 C 0.90181 0.23612 0.73944 0.0
C806 C 0.88518 0.28304 0.76361 0.0
C807 C 0.16119 0.1629 0.69287 0.0
N808 N 0.17827 0.21356 0.7004 0.0
C809 C 0.19518 0.11045 0.69392 0.0
C810 C 0.24697 0.1101 0.70276 0.0
C811 C 0.2641 0.16195 0.71041 0.0
C812 C 0.22895 0.21354 0.70911 0.0
C813 C 0.28905 0.35046 0.68042 0.0
C814 C 0.20491 0.38811 0.70138 0.0
C815 C 0.23925 0.31514 0.68393 0.0
N816 N 0.19814 0.33397 0.69437 0.0
C817 C 0.25419 0.42459 0.69817 0.0
C818 C 0.29651 0.40551 0.68762 0.0
C819 C 0.03966 0.37559 0.7077 0.0
C820 C 0.88251 0.21576 0.68574 0.0
C821 C 0.8985 0.30464 0.70721 0.0
C822 C 0.8503 0.30843 0.69715 0.0
C823 C 0.84237 0.26363 0.68635 0.0
N824 N 0.93764 0.25751 0.70654 0.0
C825 C 0.93018 0.21345 0.69597 0.0
Co826 Co 0.70932 0.63198 0.94788 0.0
Co827 Co 0.73986 0.51042 0.96992 0.0
O828 O 0.75852 0.56219 0.9528 0.0
C829 C 0.72161 0.56829 0.9187 0.0
O830 O 0.70517 0.51976 0.92598 0.0
C831 C 0.87006 0.53416 0.97328 0.0
O832 O 0.85807 0.59168 0.97238 0.0
O833 O 0.74191 0.58059 0.9837 0.0
O834 O 0.69141 0.64805 0.96995 0.0
H835 H 0.63627 0.45907 0.01844 0.0
H836 H 0.83289 0.62361 0.9357 0.0
O837 O 0.72564 0.6179 0.9258 0.0
H838 H 0.82901 0.8099 0.9657 0.0
H839 H 0.65949 0.8199 0.91899 0.0
H840 H 0.59006 0.67655 0.95761 0.0
H841 H 0.73822 0.74741 0.96331 0.0
H842 H 0.72209 0.7331 0.9261 0.0
O843 O 0.82758 0.49622 0.97298 0.0
H844 H 0.65358 0.517 0.99527 0.0
H845 H 0.79049 0.39562 0.98185 0.0
H846 H 0.52623 0.76296 0.95096 0.0
H847 H 0.92458 0.68507 0.93766 0.0
H848 H 0.56094 0.83545 0.93153 0.0
H849 H 0.92302 0.77887 0.95278 0.0
O850 O 0.63712 0.58019 0.94663 0.0
H851 H 0.81523 0.38056 0.92756 0.0
H852 H 0.65476 0.40882 0.96529 0.0
H853 H 0.64933 0.32355 0.9476 0.0
H854 H 0.72999 0.309 0.92856 0.0
H855 H 0.81854 0.4656 0.94535 0.0
H856 H 0.77639 0.33754 1.00531 0.0
H857 H 0.70004 0.3703 0.02404 0.0
O858 O 0.65134 0.52199 0.96701 0.0
C859 C 0.71126 0.62869 0.98263 0.0
C860 C 0.67062 0.445 1.01058 0.0
C861 C 0.74912 0.37678 1.00316 0.0
N862 N 0.72318 0.45989 0.98723 0.0
C863 C 0.6801 0.47726 0.9973 0.0
C864 C 0.75692 0.40983 0.9899 0.0
C865 C 0.70616 0.39507 0.01364 0.0
C866 C 0.83173 0.66468 0.94218 0.0
N867 N 0.78022 0.68205 0.94932 0.0
C868 C 0.88384 0.69916 0.9433 0.0
C869 C 0.88296 0.75173 0.95181 0.0
C870 C 0.83024 0.76914 0.95906 0.0
C871 C 0.77902 0.73349 0.95771 0.0
C872 C 0.64402 0.78883 0.92753 0.0
C873 C 0.60569 0.7082 0.94925 0.0
C874 C 0.67927 0.73963 0.93161 0.0
N875 N 0.66022 0.70048 0.94247 0.0
C876 C 0.56925 0.75691 0.94548 0.0
C877 C 0.58872 0.79751 0.93457 0.0
C878 C 0.61836 0.54304 0.95648 0.0
C879 C 0.77991 0.38631 0.93583 0.0
C880 C 0.69 0.40284 0.95703 0.0
C881 C 0.68673 0.35441 0.94705 0.0
C882 C 0.73202 0.34624 0.93638 0.0
N883 N 0.73704 0.44204 0.95639 0.0
C884 C 0.78167 0.43424 0.94598 0.0
Co885 Co 0.37114 0.2098 0.19923 0.0
Co886 Co 0.49552 0.2468 0.21986 0.0
O887 O 0.44043 0.26103 0.20306 0.0
C888 C 0.4299 0.21958 0.16917 0.0
O889 O 0.48071 0.20621 0.1759 0.0
C890 C 0.46266 0.37345 0.22305 0.0
O891 O 0.4065 0.35593 0.22237 0.0
O892 O 0.42771 0.24663 0.23436 0.0
O893 O 0.35818 0.19547 0.22147 0.0
H894 H 0.55862 0.15701 0.26944 0.0
H895 H 0.37515 0.33096 0.18559 0.0
O896 O 0.38167 0.22268 0.17689 0.0
H897 H 0.19358 0.32964 0.21744 0.0
H898 H 0.17976 0.1511 0.17281 0.0
H899 H 0.3301 0.09234 0.21096 0.0
H900 H 0.25713 0.23947 0.21538 0.0
H901 H 0.26582 0.21687 0.17848 0.0
O902 O 0.50466 0.33498 0.22239 0.0
H903 H 0.49518 0.16765 0.24677 0.0
H904 H 0.61102 0.30232 0.22958 0.0
H905 H 0.24441 0.02548 0.20578 0.0
H906 H 0.31252 0.42193 0.18721 0.0
H907 H 0.16851 0.05471 0.18657 0.0
H908 H 0.22117 0.42171 0.20328 0.0
O909 O 0.42457 0.13863 0.19834 0.0
H910 H 0.61523 0.32499 0.17596 0.0
H911 H 0.60018 0.16615 0.21453 0.0
H912 H 0.68303 0.16341 0.19606 0.0
H913 H 0.69096 0.24329 0.17661 0.0
H914 H 0.53279 0.3257 0.19457 0.0
H915 H 0.67551 0.29364 0.25215 0.0
H916 H 0.64874 0.22141 0.27241 0.0
O917 O 0.4879 0.15791 0.21756 0.0
C918 C 0.37915 0.21671 0.23381 0.0
C919 C 0.57066 0.18879 0.26071 0.0
C920 C 0.63621 0.26552 0.25101 0.0
N921 N 0.54979 0.23491 0.23676 0.0
C922 C 0.53523 0.19454 0.24777 0.0
C923 C 0.59968 0.27005 0.23823 0.0
C924 C 0.62118 0.22496 0.26237 0.0
C925 C 0.33504 0.33028 0.19246 0.0
N926 N 0.31967 0.27987 0.20031 0.0
C927 C 0.29991 0.38201 0.19338 0.0
C928 C 0.24872 0.38189 0.20243 0.0
C929 C 0.23326 0.33027 0.21039 0.0
C930 C 0.26951 0.27939 0.20921 0.0
C931 C 0.21253 0.13785 0.1812 0.0
C932 C 0.29714 0.10549 0.20262 0.0
C933 C 0.26148 0.1748 0.18441 0.0
N934 N 0.30289 0.1585 0.19504 0.0
C935 C 0.24876 0.06739 0.19972 0.0
C936 C 0.20623 0.0838 0.18893 0.0
C937 C 0.46447 0.12256 0.20785 0.0
C938 C 0.61236 0.29004 0.18441 0.0
C939 C 0.60324 0.20099 0.20607 0.0
C940 C 0.65033 0.19927 0.19567 0.0
C941 C 0.65478 0.24413 0.18476 0.0
N942 N 0.56182 0.24617 0.20565 0.0
C943 C 0.56592 0.29034 0.19502 0.0
C944 C 0.95902 0.03572 0.29736 0.0
C945 C 0.9415 0.9754 0.29901 0.0
C946 C 0.01963 0.05226 0.2972 0.0
C947 C 0.06538 0.00923 0.29864 0.0
H948 H 0.92568 0.07084 0.29636 0.0
H949 H 0.03052 0.09936 0.29607 0.0
S950 S 0.04371 0.84492 0.3032 0.0
N951 N 0.97508 0.87229 0.302 0.0
N952 N 0.08887 0.90319 0.30171 0.0
C953 C 0.04858 0.94853 0.3001 0.0
C954 C 0.98675 0.93169 0.30027 0.0
C955 C 0.94433 0.51577 0.5471 0.0
C956 C 0.986 0.56244 0.549 0.0
C957 C 0.96261 0.45568 0.54697 0.0
C958 C 0.02339 0.43953 0.54878 0.0
H959 H 0.89698 0.52553 0.54579 0.0
H960 H 0.92844 0.42161 0.54558 0.0
S961 S 0.15073 0.54457 0.5543 0.0
N962 N 0.09127 0.58826 0.55279 0.0
N963 N 0.12537 0.47547 0.55253 0.0
C964 C 0.06573 0.48574 0.55056 0.0
C965 C 0.04713 0.54706 0.55068 0.0
C966 C 0.51382 0.55354 0.79725 0.0
C967 C 0.55969 0.51078 0.79892 0.0
C968 C 0.45329 0.53673 0.79731 0.0
C969 C 0.43598 0.4764 0.79907 0.0
H970 H 0.52455 0.60063 0.796 0.0
H971 H 0.41983 0.57166 0.79612 0.0
S972 S 0.53857 0.34658 0.80388 0.0
N973 N 0.58353 0.40498 0.80234 0.0
N974 N 0.46987 0.37358 0.80243 0.0
C975 C 0.48136 0.43296 0.80057 0.0
C976 C 0.54311 0.45007 0.80051 0.0
C977 C 0.43333 0.00882 0.0508 0.0
C978 C 0.47539 0.0532 0.04692 0.0
C979 C 0.44928 0.94797 0.05101 0.0
C980 C 0.50797 0.92908 0.0474 0.0
H981 H 0.38823 0.02118 0.05416 0.0
H982 H 0.41563 0.91572 0.05446 0.0
S983 S 0.63307 0.02683 0.03484 0.0
N984 N 0.57691 0.07328 0.03808 0.0
N985 N 0.60693 0.95942 0.03873 0.0
C986 C 0.54977 0.97275 0.04294 0.0
C987 C 0.53346 0.03461 0.04264 0.0
C988 C 0.04021 0.53501 0.97629 0.0
C989 C 0.05596 0.47435 0.97419 0.0
C990 C 0.98017 0.55376 0.97614 0.0
C991 C 0.93318 0.51268 0.97393 0.0
H992 H 0.07456 0.56874 0.97793 0.0
H993 H 0.9707 0.60098 0.97769 0.0
S994 S 0.94999 0.34854 0.96776 0.0
N995 N 0.01932 0.37316 0.96982 0.0
N996 N 0.90666 0.40811 0.96952 0.0
C997 C 0.94818 0.45168 0.97196 0.0
C998 C 0.00943 0.43261 0.9721 0.0
C999 C 0.53873 0.45477 0.22589 0.0
C1000 C 0.47831 0.43781 0.22393 0.0
C1001 C 0.55579 0.51507 0.22611 0.0
C1002 C 0.51315 0.56098 0.22441 0.0
H1003 H 0.57353 0.42122 0.22716 0.0
H1004 H 0.60291 0.52561 0.22753 0.0
S1005 S 0.34888 0.54067 0.21884 0.0
N1006 N 0.37562 0.47195 0.22026 0.0
N1007 N 0.40744 0.58531 0.22065 0.0
C1008 C 0.45236 0.54475 0.22258 0.0
C1009 C 0.43501 0.48321 0.22235 0.0
C1010 C 0.46113 0.96661 0.4786 0.0
C1011 C 0.44239 0.02602 0.47592 0.0
C1012 C 0.52192 0.95088 0.47863 0.0
C1013 C 0.5668 0.99385 0.47603 0.0
H1014 H 0.42855 0.93136 0.48044 0.0
H1015 H 0.53361 0.90433 0.48049 0.0
S1016 S 0.542 0.15626 0.46882 0.0
N1017 N 0.47391 0.12846 0.47095 0.0
N1018 N 0.58828 0.09916 0.47103 0.0
C1019 C 0.54891 0.05388 0.47371 0.0
C1020 C 0.48676 0.06989 0.47367 0.0
C1021 C 0.05278 0.01549 0.72609 0.0
C1022 C 0.01033 0.0613 0.72397 0.0
C1023 C 0.03561 0.9552 0.72619 0.0
C1024 C 0.97525 0.93814 0.72414 0.0
H1025 H 0.09984 0.02608 0.7276 0.0
H1026 H 0.07029 0.92172 0.72775 0.0
S1027 S 0.84629 0.04075 0.71803 0.0
N1028 N 0.90486 0.08544 0.71974 0.0
N1029 N 0.87281 0.97214 0.71996 0.0
C1030 C 0.93213 0.98347 0.72216 0.0
C1031 C 0.9496 0.04499 0.72206 0.0
C1032 C 0.53437 0.99273 0.30369 0.0
C1033 C 0.56416 0.98064 0.31737 0.0
C1034 C 0.47419 0.01054 0.30356 0.0
C1035 C 0.44224 0.01842 0.31711 0.0
H1036 H 0.55746 0.98749 0.29299 0.0
H1037 H 0.45272 0.01883 0.29276 0.0
S1038 S 0.50009 0.99364 0.3559 0.0
N1039 N 0.55751 0.9777 0.34479 0.0
N1040 N 0.44451 0.01305 0.34455 0.0
C1041 C 0.47165 0.00727 0.33087 0.0
C1042 C 0.53261 0.98776 0.331 0.0
C1043 C 0.98168 0.97146 0.55301 0.0
C1044 C 0.97416 0.94026 0.56668 0.0
C1045 C 0.0003 0.03135 0.55288 0.0
C1046 C 0.0136 0.06167 0.56641 0.0
H1047 H 0.9727 0.94952 0.54231 0.0
H1048 H 0.0055 0.05367 0.54208 0.0
S1049 S 0.00116 -0.00014 0.60521 0.0
N1050 N 0.9806 0.94403 0.59409 0.0
N1051 N 0.01733 0.05636 0.59386 0.0
C1052 C 0.00636 0.03096 0.58017 0.0
C1053 C 0.9861 0.97032 0.58031 0.0
C1054 C 0.0286 0.49387 0.80315 0.0
C1055 C 0.05841 0.48197 0.81683 0.0
C1056 C 0.96872 0.51267 0.80302 0.0
C1057 C 0.93718 0.52182 0.81658 0.0
H1058 H 0.05144 0.48773 0.79244 0.0
H1059 H 0.94715 0.52068 0.79222 0.0
S1060 S 0.99531 0.4981 0.85539 0.0
N1061 N 0.05225 0.48061 0.84426 0.0
N1062 N 0.93985 0.51786 0.84403 0.0
C1063 C 0.96664 0.51091 0.83034 0.0
C1064 C 0.02725 0.49036 0.83047 0.0
C1065 C 0.46871 0.53617 0.07447 0.0
C1066 C 0.52448 0.55461 0.06873 0.0
C1067 C 0.45206 0.47547 0.07437 0.0
C1068 C 0.48996 0.43114 0.06815 0.0
H1069 H 0.43768 0.56894 0.07901 0.0
H1070 H 0.40851 0.46359 0.07889 0.0
S1071 S 0.64082 0.45805 0.05148 0.0
N1072 N 0.61748 0.52496 0.05676 0.0
N1073 N 0.58619 0.4116 0.05601 0.0
C1074 C 0.54592 0.44972 0.06234 0.0
C1075 C 0.56317 0.51124 0.06278 0.0
C1076 C 0.46451 0.49624 0.97002 0.0
C1077 C 0.43398 0.48352 0.95649 0.0
C1078 C 0.52421 0.51561 0.96987 0.0
C1079 C 0.55498 0.52442 0.95617 0.0
H1080 H 0.44249 0.49009 0.98083 0.0
H1081 H 0.54634 0.52411 0.98057 0.0
S1082 S 0.49452 0.49948 0.91764 0.0
N1083 N 0.43849 0.48182 0.92902 0.0
N1084 N 0.55052 0.51989 0.92875 0.0
C1085 C 0.52467 0.51308 0.94255 0.0
C1086 C 0.46421 0.49207 0.94271 0.0
C1087 C 0.51177 0.96825 0.19449 0.0
C1088 C 0.52361 0.93838 0.20816 0.0
C1089 C 0.49153 0.0278 0.19444 0.0
C1090 C 0.48384 0.0595 0.20804 0.0
H1091 H 0.51699 0.94508 0.1838 0.0
H1092 H 0.48261 0.04939 0.1837 0.0
S1093 S 0.50992 0.00154 0.24681 0.0
N1094 N 0.52712 0.94502 0.23558 0.0
N1095 N 0.48921 0.05658 0.23549 0.0
C1096 C 0.49611 0.03018 0.22175 0.0
C1097 C 0.51598 0.96964 0.22181 0.0
C1098 C 0.95959 0.02535 0.4498 0.0
C1099 C 0.94153 0.96898 0.45515 0.0
C1100 C 0.02037 0.04167 0.44961 0.0
C1101 C 0.06521 0.00269 0.45512 0.0
H1102 H 0.92649 0.05712 0.44577 0.0
H1103 H 0.03191 0.08581 0.44545 0.0
S1104 S 0.03962 0.84944 0.47032 0.0
N1105 N 0.97205 0.8739 0.46585 0.0
N1106 N 0.0859 0.90447 0.46598 0.0
C1107 C 0.04712 0.94591 0.46044 0.0
C1108 C 0.98538 0.92907 0.46033 0.0
C1109 C 0.01115 0.46955 0.69415 0.0
C1110 C 0.02223 0.43918 0.70779 0.0
C1111 C 0.99099 0.52914 0.69417 0.0
C1112 C 0.9826 0.56037 0.70782 0.0
H1113 H 0.0169 0.44676 0.68343 0.0
H1114 H 0.98267 0.55111 0.68345 0.0
S1115 S 0.00666 0.50095 0.74654 0.0
N1116 N 0.02441 0.44484 0.73523 0.0
N1117 N 0.98656 0.55641 0.73528 0.0
C1118 C 0.99415 0.53053 0.7215 0.0
C1119 C 0.01397 0.46997 0.72148 0.0
C1120 C 0.25271 0.11102 0.37876 0.0
C1121 C 0.26228 0.05745 0.37069 0.0
C1122 C 0.24099 0.11068 0.39433 0.0
C1123 C 0.23779 0.05673 0.40255 0.0
H1124 H 0.25466 0.15393 0.37306 0.0
H1125 H 0.23417 0.15331 0.39994 0.0
S1126 S 0.25914 0.90375 0.38684 0.0
N1127 N 0.2676 0.94862 0.37216 0.0
N1128 N 0.24528 0.94799 0.40138 0.0
C1129 C 0.24696 0.00268 0.39463 0.0
C1130 C 0.2593 0.00304 0.37875 0.0
C1131 C 0.88185 0.75194 0.62902 0.0
C1132 C 0.93547 0.7603 0.62086 0.0
C1133 C 0.88238 0.73975 0.64457 0.0
C1134 C 0.93657 0.73484 0.65269 0.0
H1135 H 0.83878 0.75519 0.6234 0.0
H1136 H 0.83969 0.73389 0.65024 0.0
S1137 S 0.08977 0.75244 0.63671 0.0
N1138 N 0.0446 0.76258 0.62214 0.0
N1139 N 0.04558 0.73941 0.65132 0.0
C1140 C 0.99065 0.74281 0.64468 0.0
C1141 C 0.99011 0.75563 0.62882 0.0
C1142 C 0.23995 0.38097 0.87895 0.0
C1143 C 0.23288 0.43491 0.87088 0.0
C1144 C 0.25191 0.3808 0.89452 0.0
C1145 C 0.25782 0.43457 0.90273 0.0
H1146 H 0.23601 0.3382 0.87324 0.0
H1147 H 0.2569 0.33792 0.90012 0.0
S1148 S 0.24352 0.58835 0.887 0.0
N1149 N 0.23268 0.54385 0.87234 0.0
N1150 N 0.2554 0.54355 0.90154 0.0
C1151 C 0.25095 0.48896 0.89481 0.0
C1152 C 0.23839 0.48913 0.87893 0.0
C1153 C 0.51705 0.74152 0.12908 0.0
C1154 C 0.57089 0.73163 0.12111 0.0
C1155 C 0.51715 0.75445 0.14465 0.0
C1156 C 0.57108 0.75759 0.15296 0.0
H1157 H 0.47436 0.74007 0.12322 0.0
H1158 H 0.47446 0.76198 0.15019 0.0
S1159 S 0.72439 0.73276 0.13755 0.0
N1160 N 0.67956 0.72418 0.12287 0.0
N1161 N 0.67989 0.74827 0.15192 0.0
C1162 C 0.62519 0.74699 0.14513 0.0
C1163 C 0.62506 0.73413 0.12929 0.0
C1164 C 0.75283 0.61937 0.87841 0.0
C1165 C 0.75968 0.56532 0.87036 0.0
C1166 C 0.74095 0.61974 0.89398 0.0
C1167 C 0.73481 0.56606 0.9022 0.0
H1168 H 0.75696 0.66206 0.87267 0.0
H1169 H 0.73613 0.66268 0.89956 0.0
S1170 S 0.74847 0.41209 0.88655 0.0
N1171 N 0.75945 0.4564 0.87187 0.0
N1172 N 0.73679 0.45708 0.90107 0.0
C1173 C 0.74143 0.51158 0.89431 0.0
C1174 C 0.75398 0.51121 0.87844 0.0
C1175 C 0.48264 0.23643 0.14437 0.0
C1176 C 0.42866 0.23189 0.15259 0.0
C1177 C 0.48269 0.24853 0.12878 0.0
C1178 C 0.42875 0.25631 0.12069 0.0
H1179 H 0.52543 0.2309 0.15002 0.0
H1180 H 0.5255 0.25146 0.12302 0.0
S1181 S 0.27487 0.24889 0.13683 0.0
N1182 N 0.3196 0.23626 0.15134 0.0
N1183 N 0.3197 0.25871 0.12221 0.0
C1184 C 0.37443 0.25177 0.12877 0.0
C1185 C 0.37439 0.23971 0.14464 0.0
C1186 C 0.74481 0.88025 0.37944 0.0
C1187 C 0.74015 0.9342 0.37126 0.0
C1188 C 0.75632 0.88003 0.39503 0.0
C1189 C 0.76437 0.93374 0.40315 0.0
H1190 H 0.7391 0.83754 0.37379 0.0
H1191 H 0.75927 0.83716 0.40072 0.0
S1192 S 0.75697 0.08748 0.38714 0.0
N1193 N 0.74458 0.04309 0.37254 0.0
N1194 N 0.76668 0.04263 0.40178 0.0
C1195 C 0.76014 0.98811 0.39513 0.0
C1196 C 0.74787 0.98836 0.37923 0.0
C1197 C 0.01675 0.25598 0.64422 0.0
C1198 C 0.07064 0.26196 0.65242 0.0
C1199 C 0.01692 0.24383 0.62862 0.0
C1200 C 0.07099 0.23755 0.62051 0.0
H1201 H 0.97388 0.2603 0.64989 0.0
H1202 H 0.97416 0.23959 0.62289 0.0
S1203 S 0.22472 0.24973 0.63658 0.0
N1204 N 0.17976 0.26096 0.65111 0.0
N1205 N 0.18008 0.2385 0.62198 0.0
C1206 C 0.12522 0.2437 0.62856 0.0
C1207 C 0.12504 0.25574 0.64444 0.0
C1208 C 0.28422 0.1307 0.2621 0.0
C1209 C 0.30269 0.15382 0.27618 0.0
C1210 C 0.30685 0.15337 0.24848 0.0
C1211 C 0.34929 0.20008 0.24827 0.0
H1212 H 0.25352 0.09314 0.26151 0.0
H1213 H 0.29264 0.13216 0.23806 0.0
S1214 S 0.40668 0.28215 0.28185 0.0
N1215 N 0.36152 0.23072 0.28892 0.0
N1216 N 0.40444 0.27284 0.26336 0.0
C1217 C 0.36558 0.2261 0.2622 0.0
C1218 C 0.34218 0.20319 0.27611 0.0
C1219 C 0.83657 0.80293 0.49858 0.0
C1220 C 0.79327 0.84889 0.49833 0.0
C1221 C 0.85867 0.77992 0.51226 0.0
C1222 C 0.83802 0.80131 0.52634 0.0
H1223 H 0.85592 0.78642 0.48817 0.0
H1224 H 0.89391 0.74652 0.51173 0.0
S1225 S 0.71803 0.91521 0.53184 0.0
N1226 N 0.72598 0.91073 0.51333 0.0
N1227 N 0.76638 0.86685 0.53898 0.0
C1228 C 0.79159 0.84436 0.52621 0.0
C1229 C 0.76961 0.86831 0.51225 0.0
C1230 C 0.12818 0.28117 0.76205 0.0
C1231 C 0.1534 0.2977 0.74804 0.0
C1232 C 0.15036 0.30408 0.77573 0.0
C1233 C 0.19861 0.34478 0.77602 0.0
H1234 H 0.08938 0.252 0.76251 0.0
H1235 H 0.12757 0.29176 0.78608 0.0
S1236 S 0.28654 0.39599 0.74277 0.0
N1237 N 0.23403 0.3524 0.73558 0.0
N1238 N 0.27513 0.39566 0.76119 0.0
C1239 C 0.22666 0.35886 0.7622 0.0
C1240 C 0.2043 0.33527 0.74827 0.0
C1241 C 0.7139 0.63781 1.01096 0.0
C1242 C 0.69206 0.65877 0.99695 0.0
C1243 C 0.69058 0.65878 0.02471 0.0
C1244 C 0.64381 0.70121 0.02514 0.0
H1245 H 0.74808 0.60331 1.01137 0.0
H1246 H 0.70775 0.6394 0.03506 0.0
S1247 S 0.57543 0.77643 0.99189 0.0
N1248 N 0.62474 0.72946 0.98457 0.0
N1249 N 0.58028 0.76774 1.01037 0.0
C1250 C 0.62362 0.72497 1.0113 0.0
C1251 C 0.64791 0.70415 0.99726 0.0
C1252 C 0.37813 0.28473 1.01107 0.0
C1253 C 0.35127 0.29769 0.02514 0.0
C1254 C 0.3536 0.30596 0.99745 0.0
C1255 C 0.30131 0.34151 0.99726 0.0
H1256 H 0.41956 0.25939 1.01055 0.0
H1257 H 0.37741 0.29643 0.98705 0.0
S1258 S 0.2095 0.38335 0.03068 0.0
N1259 N 0.26599 0.34461 0.03773 0.0
N1260 N 0.22064 0.38457 0.01225 0.0
C1261 C 0.27236 0.35247 1.01113 0.0
C1262 C 0.29708 0.33061 0.025 0.0
C1263 C 0.65532 0.80357 0.27613 0.0
C1264 C 0.70318 0.84474 0.27633 0.0
C1265 C 0.63257 0.78087 0.26248 0.0
C1266 C 0.65678 0.79809 0.24841 0.0
H1267 H 0.63331 0.79065 0.28654 0.0
H1268 H 0.59414 0.75124 0.26302 0.0
S1269 S 0.78836 0.89816 0.24284 0.0
N1270 N 0.77815 0.89703 0.2613 0.0
N1271 N 0.73591 0.85421 0.23576 0.0
C1272 C 0.70721 0.83627 0.24853 0.0
C1273 C 0.73019 0.85963 0.26243 0.0
C1274 C 0.2112 0.1177 0.51141 0.0
C1275 C 0.19814 0.14443 0.49735 0.0
C1276 C 0.18972 0.14202 0.52502 0.0
C1277 C 0.15373 0.19395 0.5252 0.0
H1278 H 0.23685 0.07651 0.51197 0.0
H1279 H 0.19951 0.11833 0.53541 0.0
S1280 S 0.11156 0.28542 0.49176 0.0
N1281 N 0.1509 0.22934 0.48472 0.0
N1282 N 0.11009 0.27421 0.51019 0.0
C1283 C 0.1426 0.22281 0.51132 0.0
C1284 C 0.16488 0.19834 0.49746 0.0
C1285 C 0.86665 0.71693 0.76157 0.0
C1286 C 0.84279 0.69938 0.74747 0.0
C1287 C 0.84328 0.69492 0.7752 0.0
C1288 C 0.79516 0.65408 0.77538 0.0
H1289 H 0.90528 0.7463 0.76214 0.0
H1290 H 0.8651 0.70806 0.78563 0.0
S1291 S 0.71069 0.60002 0.74182 0.0
N1292 N 0.76365 0.64339 0.73476 0.0
N1293 N 0.7203 0.60176 0.76031 0.0
C1294 C 0.76845 0.63892 0.76146 0.0
C1295 C 0.79204 0.66161 0.74756 0.0
loop_
_geom_bond_atom_site_label_1
_geom_bond_atom_site_label_2
_geom_bond_distance
_geom_bond_site_symmetry_2
_ccdc_geom_bond_type
Co0 O2 2.143 . S
Co0 O8 2.074 . S
Co0 O11 2.093 . S
Co0 O24 2.097 . S
Co0 N41 2.151 . S
Co0 N49 2.214 . S
Co1 O2 2.160 . S
Co1 O7 2.058 . S
Co1 O17 2.057 . S
Co1 O32 2.037 . S
Co1 N36 2.145 1_545 S
Co1 N57 2.257 1_545 S
O2 Co0 2.143 . S
O2 Co1 2.160 . S
C3 O4 1.278 . S
C3 O11 1.224 . S
O4 C3 1.278 . S
C5 O6 1.245 . S
C5 O17 1.232 . S
O6 C5 1.245 . S
O7 Co1 2.058 . S
O7 C33 1.269 . S
O8 Co0 2.074 . S
O8 C33 1.257 . S
H9 C34 0.930 . S
H10 C40 0.930 . S
O11 Co0 2.093 . S
O11 C3 1.224 . S
H12 C44 0.929 . S
H13 C46 0.930 . S
H14 C47 0.930 . S
H15 C45 0.929 . S
H16 C48 0.928 . S
O17 Co1 2.057 . S
O17 C5 1.232 . S
H18 C37 0.929 . S
H19 C38 0.929 . S
H20 C50 0.931 . S
H21 C42 0.929 . S
H22 C51 0.930 . S
H23 C43 0.931 . S
O24 Co0 2.097 . S
O24 C52 1.214 . S
H25 C53 0.929 . S
H26 C54 0.929 . S
H27 C55 0.930 . S
H28 C56 0.929 . S
H29 C58 0.936 . S
H30 C35 0.930 . S
H31 C39 0.930 . S
O32 Co1 2.037 . S
O32 C52 1.234 . S
C33 O7 1.269 . S
C33 O8 1.257 . S
C34 H9 0.930 . S
C34 C37 1.388 . S
C34 C39 1.418 . S
C35 H30 0.930 . S
C35 C38 1.404 . S
C35 C39 1.353 . S
N36 Co1 2.145 1_565 S
N36 C37 1.397 . S
N36 C38 1.334 . S
C37 H18 0.929 . S
C37 C34 1.388 . S
C37 N36 1.397 . S
C38 H19 0.929 . S
C38 C35 1.404 . S
C38 N36 1.334 . S
C39 H31 0.930 . S
C39 C34 1.418 . S
C39 C35 1.353 . S
C40 H10 0.930 . S
C40 N41 1.330 . S
C40 C42 1.446 . S
N41 Co0 2.151 . S
N41 C40 1.330 . S
N41 C45 1.418 . S
C42 H21 0.929 . S
C42 C40 1.446 . S
C42 C43 1.332 . S
C43 H23 0.931 . S
C43 C42 1.332 . S
C43 C44 1.267 . S
C44 H12 0.929 . S
C44 C43 1.267 . S
C44 C45 1.251 . S
C45 H15 0.929 . S
C45 N41 1.418 . S
C45 C44 1.251 . S
C46 H13 0.930 . S
C46 C48 1.406 . S
C46 C51 1.261 . S
C47 H14 0.930 . S
C47 N49 1.325 . S
C47 C50 1.357 . S
C48 H16 0.928 . S
C48 C46 1.406 . S
C48 N49 1.261 . S
N49 Co0 2.214 . S
N49 C47 1.325 . S
N49 C48 1.261 . S
C50 H20 0.931 . S
C50 C47 1.357 . S
C50 C51 1.312 . S
C51 H22 0.930 . S
C51 C46 1.261 . S
C51 C50 1.312 . S
C52 O24 1.214 . S
C52 O32 1.234 . S
C53 H25 0.929 . S
C53 C56 1.391 . S
C53 C58 1.391 . S
C54 H26 0.929 . S
C54 C55 1.390 . S
C54 N57 1.391 . S
C55 H27 0.930 . S
C55 C54 1.390 . S
C55 C56 1.392 . S
C56 H28 0.929 . S
C56 C53 1.391 . S
C56 C55 1.392 . S
N57 Co1 2.257 1_565 S
N57 C54 1.391 . S
N57 C58 1.388 . S
C58 H29 0.936 . S
C58 C53 1.391 . S
C58 N57 1.388 . S
Co59 O61 2.143 . S
Co59 O67 2.074 . S
Co59 O70 2.093 . S
Co59 O83 2.097 . S
Co59 N100 2.151 . S
Co59 N108 2.214 . S
Co60 O61 2.160 . S
Co60 O66 2.058 . S
Co60 O76 2.057 . S
Co60 O91 2.037 . S
Co60 N95 2.145 1_655 S
Co60 N116 2.257 1_655 S
O61 Co59 2.143 . S
O61 Co60 2.160 . S
C62 O63 1.278 . S
C62 O70 1.224 . S
O63 C62 1.278 . S
C64 O65 1.245 . S
C64 O76 1.232 . S
O65 C64 1.245 . S
O66 Co60 2.058 . S
O66 C92 1.269 . S
O67 Co59 2.074 . S
O67 C92 1.257 . S
H68 C93 0.930 . S
H69 C99 0.930 . S
O70 Co59 2.093 . S
O70 C62 1.224 . S
H71 C103 0.929 . S
H72 C105 0.930 . S
H73 C106 0.930 . S
H74 C104 0.929 . S
H75 C107 0.928 . S
O76 Co60 2.057 . S
O76 C64 1.232 . S
H77 C96 0.929 . S
H78 C97 0.929 . S
H79 C109 0.931 1_545 S
H80 C101 0.929 . S
H81 C110 0.930 1_545 S
H82 C102 0.931 . S
O83 Co59 2.097 . S
O83 C111 1.214 . S
H84 C112 0.929 . S
H85 C113 0.929 . S
H86 C114 0.930 . S
H87 C115 0.929 . S
H88 C117 0.937 . S
H89 C94 0.930 . S
H90 C98 0.930 . S
O91 Co60 2.037 . S
O91 C111 1.234 . S
C92 O66 1.269 . S
C92 O67 1.257 . S
C93 H68 0.930 . S
C93 C96 1.388 . S
C93 C98 1.418 . S
C94 H89 0.930 . S
C94 C97 1.404 . S
C94 C98 1.353 . S
N95 Co60 2.145 1_455 S
N95 C96 1.397 . S
N95 C97 1.334 . S
C96 H77 0.929 . S
C96 C93 1.388 . S
C96 N95 1.397 . S
C97 H78 0.929 . S
C97 C94 1.404 . S
C97 N95 1.334 . S
C98 H90 0.930 . S
C98 C93 1.418 . S
C98 C94 1.353 . S
C99 H69 0.930 . S
C99 N100 1.330 . S
C99 C101 1.446 . S
N100 Co59 2.151 . S
N100 C99 1.330 . S
N100 C104 1.418 . S
C101 H80 0.929 . S
C101 C99 1.446 . S
C101 C102 1.332 . S
C102 H82 0.931 . S
C102 C101 1.332 . S
C102 C103 1.267 . S
C103 H71 0.929 . S
C103 C102 1.267 . S
C103 C104 1.251 . S
C104 H74 0.929 . S
C104 N100 1.418 . S
C104 C103 1.251 . S
C105 H72 0.930 . S
C105 C107 1.406 . S
C105 C110 1.261 . S
C106 H73 0.930 . S
C106 N108 1.325 . S
C106 C109 1.357 . S
C107 H75 0.928 . S
C107 C105 1.406 . S
C107 N108 1.261 . S
N108 Co59 2.214 . S
N108 C106 1.325 . S
N108 C107 1.261 . S
C109 H79 0.931 1_565 S
C109 C106 1.357 . S
C109 C110 1.312 . S
C110 H81 0.930 1_565 S
C110 C105 1.261 . S
C110 C109 1.312 . S
C111 O83 1.214 . S
C111 O91 1.234 . S
C112 H84 0.929 . S
C112 C115 1.391 . S
C112 C117 1.391 . S
C113 H85 0.929 . S
C113 C114 1.390 . S
C113 N116 1.391 . S
C114 H86 0.930 . S
C114 C113 1.390 . S
C114 C115 1.392 . S
C115 H87 0.929 . S
C115 C112 1.391 . S
C115 C114 1.392 . S
N116 Co60 2.257 1_455 S
N116 C113 1.391 . S
N116 C117 1.388 . S
C117 H88 0.937 . S
C117 C112 1.391 . S
C117 N116 1.388 . S
Co118 O120 2.143 . S
Co118 O126 2.074 . S
Co118 O129 2.093 . S
Co118 O142 2.097 . S
Co118 N159 2.151 . S
Co118 N167 2.214 . S
Co119 O120 2.160 . S
Co119 O125 2.058 . S
Co119 O135 2.057 . S
Co119 O150 2.037 . S
Co119 N154 2.145 . S
Co119 N175 2.257 . S
O120 Co118 2.143 . S
O120 Co119 2.160 . S
C121 O122 1.278 . S
C121 O129 1.224 . S
O122 C121 1.278 . S
C123 O124 1.245 . S
C123 O135 1.232 . S
O124 C123 1.245 . S
O125 Co119 2.058 . S
O125 C151 1.269 . S
O126 Co118 2.074 . S
O126 C151 1.257 . S
H127 C152 0.930 . S
H128 C158 0.930 . S
O129 Co118 2.093 . S
O129 C121 1.224 . S
H130 C162 0.929 . S
H131 C164 0.930 . S
H132 C165 0.930 . S
H133 C163 0.929 . S
H134 C166 0.928 . S
O135 Co119 2.057 . S
O135 C123 1.232 . S
H136 C155 0.929 . S
H137 C156 0.929 . S
H138 C168 0.931 1_655 S
H139 C160 0.929 . S
H140 C169 0.930 1_655 S
H141 C161 0.931 . S
O142 Co118 2.097 . S
O142 C170 1.214 . S
H143 C171 0.929 . S
H144 C172 0.929 . S
H145 C173 0.930 . S
H146 C174 0.929 . S
H147 C176 0.930 . S
H148 C153 0.930 . S
H149 C157 0.930 . S
O150 Co119 2.037 . S
O150 C170 1.234 . S
C151 O125 1.269 . S
C151 O126 1.257 . S
C152 H127 0.930 . S
C152 C155 1.388 . S
C152 C157 1.418 . S
C153 H148 0.930 . S
C153 C156 1.404 . S
C153 C157 1.353 . S
N154 Co119 2.145 . S
N154 C155 1.397 . S
N154 C156 1.334 . S
C155 H136 0.929 . S
C155 C152 1.388 . S
C155 N154 1.397 . S
C156 H137 0.929 . S
C156 C153 1.404 . S
C156 N154 1.334 . S
C157 H149 0.930 . S
C157 C152 1.418 . S
C157 C153 1.353 . S
C158 H128 0.930 . S
C158 N159 1.330 . S
C158 C160 1.446 . S
N159 Co118 2.151 . S
N159 C158 1.330 . S
N159 C163 1.418 . S
C160 H139 0.929 . S
C160 C158 1.446 . S
C160 C161 1.332 . S
C161 H141 0.931 . S
C161 C160 1.332 . S
C161 C162 1.267 . S
C162 H130 0.929 . S
C162 C161 1.267 . S
C162 C163 1.251 . S
C163 H133 0.929 . S
C163 N159 1.418 . S
C163 C162 1.251 . S
C164 H131 0.930 . S
C164 C166 1.406 . S
C164 C169 1.261 . S
C165 H132 0.930 . S
C165 N167 1.325 . S
C165 C168 1.357 . S
C166 H134 0.928 . S
C166 C164 1.406 . S
C166 N167 1.261 . S
N167 Co118 2.214 . S
N167 C165 1.325 . S
N167 C166 1.261 . S
C168 H138 0.931 1_455 S
C168 C165 1.357 . S
C168 C169 1.312 . S
C169 H140 0.930 1_455 S
C169 C164 1.261 . S
C169 C168 1.312 . S
C170 O142 1.214 . S
C170 O150 1.234 . S
C171 H143 0.929 . S
C171 C174 1.391 . S
C171 C176 1.391 . S
C172 H144 0.929 . S
C172 C173 1.390 . S
C172 N175 1.391 . S
C173 H145 0.930 . S
C173 C172 1.390 . S
C173 C174 1.392 . S
C174 H146 0.929 . S
C174 C171 1.391 . S
C174 C173 1.392 . S
N175 Co119 2.257 . S
N175 C172 1.391 . S
N175 C176 1.388 . S
C176 H147 0.930 . S
C176 C171 1.391 . S
C176 N175 1.388 . S
Co177 O179 2.143 . S
Co177 O185 2.074 . S
Co177 O188 2.093 . S
Co177 O201 2.097 . S
Co177 N218 2.151 . S
Co177 N226 2.214 . S
Co178 O179 2.160 . S
Co178 O184 2.058 . S
Co178 O194 2.057 . S
Co178 O209 2.037 . S
Co178 N213 2.145 . S
Co178 N234 2.257 . S
O179 Co177 2.143 . S
O179 Co178 2.160 . S
C180 O181 1.278 . S
C180 O188 1.224 . S
O181 C180 1.278 . S
C182 O183 1.245 . S
C182 O194 1.232 . S
O183 C182 1.245 . S
O184 Co178 2.058 . S
O184 C210 1.269 . S
O185 Co177 2.074 . S
O185 C210 1.257 . S
H186 C211 0.930 . S
H187 C217 0.930 . S
O188 Co177 2.093 . S
O188 C180 1.224 . S
H189 C221 0.929 . S
H190 C223 0.930 . S
H191 C224 0.930 . S
H192 C222 0.929 . S
H193 C225 0.928 . S
O194 Co178 2.057 . S
O194 C182 1.232 . S
H195 C214 0.929 . S
H196 C215 0.929 . S
H197 C227 0.931 . S
H198 C219 0.929 . S
H199 C228 0.930 . S
H200 C220 0.931 . S
O201 Co177 2.097 . S
O201 C229 1.214 . S
H202 C230 0.929 . S
H203 C231 0.929 . S
H204 C232 0.930 . S
H205 C233 0.929 . S
H206 C235 0.930 . S
H207 C212 0.930 . S
H208 C216 0.930 . S
O209 Co178 2.037 . S
O209 C229 1.234 . S
C210 O184 1.269 . S
C210 O185 1.257 . S
C211 H186 0.930 . S
C211 C214 1.388 . S
C211 C216 1.418 . S
C212 H207 0.930 . S
C212 C215 1.404 . S
C212 C216 1.353 . S
N213 Co178 2.145 . S
N213 C214 1.397 . S
N213 C215 1.334 . S
C214 H195 0.929 . S
C214 C211 1.388 . S
C214 N213 1.397 . S
C215 H196 0.929 . S
C215 C212 1.404 . S
C215 N213 1.334 . S
C216 H208 0.930 . S
C216 C211 1.418 . S
C216 C212 1.353 . S
C217 H187 0.930 . S
C217 N218 1.330 . S
C217 C219 1.446 . S
N218 Co177 2.151 . S
N218 C217 1.330 . S
N218 C222 1.418 . S
C219 H198 0.929 . S
C219 C217 1.446 . S
C219 C220 1.332 . S
C220 H200 0.931 . S
C220 C219 1.332 . S
C220 C221 1.267 . S
C221 H189 0.929 . S
C221 C220 1.267 . S
C221 C222 1.251 . S
C222 H192 0.929 . S
C222 N218 1.418 . S
C222 C221 1.251 . S
C223 H190 0.930 . S
C223 C225 1.406 . S
C223 C228 1.261 . S
C224 H191 0.930 . S
C224 N226 1.325 . S
C224 C227 1.357 . S
C225 H193 0.928 . S
C225 C223 1.406 . S
C225 N226 1.261 . S
N226 Co177 2.214 . S
N226 C224 1.325 . S
N226 C225 1.261 . S
C227 H197 0.931 . S
C227 C224 1.357 . S
C227 C228 1.312 . S
C228 H199 0.930 . S
C228 C223 1.261 . S
C228 C227 1.312 . S
C229 O201 1.214 . S
C229 O209 1.234 . S
C230 H202 0.929 . S
C230 C233 1.391 . S
C230 C235 1.391 . S
C231 H203 0.929 . S
C231 C232 1.390 . S
C231 N234 1.391 . S
C232 H204 0.930 . S
C232 C231 1.390 . S
C232 C233 1.392 . S
C233 H205 0.929 . S
C233 C230 1.391 . S
C233 C232 1.392 . S
N234 Co178 2.257 . S
N234 C231 1.391 . S
N234 C235 1.388 . S
C235 H206 0.930 . S
C235 C230 1.391 . S
C235 N234 1.388 . S
Co236 O238 2.143 . S
Co236 O244 2.074 . S
Co236 O247 2.093 . S
Co236 O260 2.097 . S
Co236 N277 2.151 . S
Co236 N285 2.214 . S
Co237 O238 2.160 . S
Co237 O243 2.058 . S
Co237 O253 2.057 . S
Co237 O268 2.037 . S
Co237 N272 2.145 . S
Co237 N293 2.257 . S
O238 Co236 2.143 . S
O238 Co237 2.160 . S
C239 O240 1.278 . S
C239 O247 1.224 . S
O240 C239 1.278 . S
C241 O242 1.245 . S
C241 O253 1.232 . S
O242 C241 1.245 . S
O243 Co237 2.058 . S
O243 C269 1.269 . S
O244 Co236 2.074 . S
O244 C269 1.257 . S
H245 C270 0.930 . S
H246 C276 0.930 . S
O247 Co236 2.093 . S
O247 C239 1.224 . S
H248 C280 0.929 . S
H249 C282 0.930 . S
H250 C283 0.930 . S
H251 C281 0.929 . S
H252 C284 0.928 . S
O253 Co237 2.057 . S
O253 C241 1.232 . S
H254 C273 0.929 . S
H255 C274 0.929 . S
H256 C286 0.931 . S
H257 C278 0.929 . S
H258 C287 0.930 . S
H259 C279 0.931 . S
O260 Co236 2.097 . S
O260 C288 1.214 . S
H261 C289 0.929 . S
H262 C290 0.929 . S
H263 C291 0.930 . S
H264 C292 0.929 . S
H265 C294 0.930 . S
H266 C271 0.930 . S
H267 C275 0.930 . S
O268 Co237 2.037 . S
O268 C288 1.234 . S
C269 O243 1.269 . S
C269 O244 1.257 . S
C270 H245 0.930 . S
C270 C273 1.388 . S
C270 C275 1.418 . S
C271 H266 0.930 . S
C271 C274 1.404 . S
C271 C275 1.353 . S
N272 Co237 2.145 . S
N272 C273 1.397 . S
N272 C274 1.334 . S
C273 H254 0.929 . S
C273 C270 1.388 . S
C273 N272 1.397 . S
C274 H255 0.929 . S
C274 C271 1.404 . S
C274 N272 1.334 . S
C275 H267 0.930 . S
C275 C270 1.418 . S
C275 C271 1.353 . S
C276 H246 0.930 . S
C276 N277 1.330 . S
C276 C278 1.446 . S
N277 Co236 2.151 . S
N277 C276 1.330 . S
N277 C281 1.418 . S
C278 H257 0.929 . S
C278 C276 1.446 . S
C278 C279 1.332 . S
C279 H259 0.931 . S
C279 C278 1.332 . S
C279 C280 1.267 . S
C280 H248 0.929 . S
C280 C279 1.267 . S
C280 C281 1.251 . S
C281 H251 0.929 . S
C281 N277 1.418 . S
C281 C280 1.251 . S
C282 H249 0.930 . S
C282 C284 1.406 . S
C282 C287 1.261 . S
C283 H250 0.930 . S
C283 N285 1.325 . S
C283 C286 1.357 . S
C284 H252 0.928 . S
C284 C282 1.406 . S
C284 N285 1.261 . S
N285 Co236 2.214 . S
N285 C283 1.325 . S
N285 C284 1.261 . S
C286 H256 0.931 . S
C286 C283 1.357 . S
C286 C287 1.312 . S
C287 H258 0.930 . S
C287 C282 1.261 . S
C287 C286 1.312 . S
C288 O260 1.214 . S
C288 O268 1.234 . S
C289 H261 0.929 . S
C289 C292 1.391 . S
C289 C294 1.391 . S
C290 H262 0.929 . S
C290 C291 1.390 . S
C290 N293 1.391 . S
C291 H263 0.930 . S
C291 C290 1.390 . S
C291 C292 1.392 . S
C292 H264 0.929 . S
C292 C289 1.391 . S
C292 C291 1.392 . S
N293 Co237 2.257 . S
N293 C290 1.391 . S
N293 C294 1.388 . S
C294 H265 0.930 . S
C294 C289 1.391 . S
C294 N293 1.388 . S
Co295 O297 2.143 . S
Co295 O303 2.074 . S
Co295 O306 2.093 . S
Co295 O319 2.097 . S
Co295 N336 2.151 . S
Co295 N344 2.214 . S
Co296 O297 2.160 . S
Co296 O302 2.058 . S
Co296 O312 2.057 . S
Co296 O327 2.037 . S
Co296 N331 2.145 . S
Co296 N352 2.257 . S
O297 Co295 2.143 . S
O297 Co296 2.160 . S
C298 O299 1.278 . S
C298 O306 1.224 . S
O299 C298 1.278 . S
C300 O301 1.245 . S
C300 O312 1.232 . S
O301 C300 1.245 . S
O302 Co296 2.058 . S
O302 C328 1.269 . S
O303 Co295 2.074 . S
O303 C328 1.257 . S
H304 C329 0.930 . S
H305 C335 0.930 . S
O306 Co295 2.093 . S
O306 C298 1.224 . S
H307 C339 0.929 . S
H308 C341 0.930 . S
H309 C342 0.930 . S
H310 C340 0.929 . S
H311 C343 0.928 . S
O312 Co296 2.057 . S
O312 C300 1.232 . S
H313 C332 0.929 . S
H314 C333 0.929 . S
H315 C345 0.931 1_545 S
H316 C337 0.929 . S
H317 C346 0.930 1_545 S
H318 C338 0.931 . S
O319 Co295 2.097 . S
O319 C347 1.214 . S
H320 C348 0.929 . S
H321 C349 0.929 . S
H322 C350 0.930 . S
H323 C351 0.929 . S
H324 C353 0.930 . S
H325 C330 0.930 . S
H326 C334 0.930 . S
O327 Co296 2.037 . S
O327 C347 1.234 . S
C328 O302 1.269 . S
C328 O303 1.257 . S
C329 H304 0.930 . S
C329 C332 1.388 . S
C329 C334 1.418 . S
C330 H325 0.930 . S
C330 C333 1.404 . S
C330 C334 1.353 . S
N331 Co296 2.145 . S
N331 C332 1.397 . S
N331 C333 1.334 . S
C332 H313 0.929 . S
C332 C329 1.388 . S
C332 N331 1.397 . S
C333 H314 0.929 . S
C333 C330 1.404 . S
C333 N331 1.334 . S
C334 H326 0.930 . S
C334 C329 1.418 . S
C334 C330 1.353 . S
C335 H305 0.930 . S
C335 N336 1.330 . S
C335 C337 1.446 . S
N336 Co295 2.151 . S
N336 C335 1.330 . S
N336 C340 1.418 . S
C337 H316 0.929 . S
C337 C335 1.446 . S
C337 C338 1.332 . S
C338 H318 0.931 . S
C338 C337 1.332 . S
C338 C339 1.267 . S
C339 H307 0.929 . S
C339 C338 1.267 . S
C339 C340 1.251 . S
C340 H310 0.929 . S
C340 N336 1.418 . S
C340 C339 1.251 . S
C341 H308 0.930 . S
C341 C343 1.406 . S
C341 C346 1.261 . S
C342 H309 0.930 . S
C342 N344 1.325 . S
C342 C345 1.357 . S
C343 H311 0.928 . S
C343 C341 1.406 . S
C343 N344 1.261 . S
N344 Co295 2.214 . S
N344 C342 1.325 . S
N344 C343 1.261 . S
C345 H315 0.931 1_565 S
C345 C342 1.357 . S
C345 C346 1.312 . S
C346 H317 0.930 1_565 S
C346 C341 1.261 . S
C346 C345 1.312 . S
C347 O319 1.214 . S
C347 O327 1.234 . S
C348 H320 0.929 . S
C348 C351 1.391 . S
C348 C353 1.391 . S
C349 H321 0.929 . S
C349 C350 1.390 . S
C349 N352 1.391 . S
C350 H322 0.930 . S
C350 C349 1.390 . S
C350 C351 1.392 . S
C351 H323 0.929 . S
C351 C348 1.391 . S
C351 C350 1.392 . S
N352 Co296 2.257 . S
N352 C349 1.391 . S
N352 C353 1.388 . S
C353 H324 0.930 . S
C353 C348 1.391 . S
C353 N352 1.388 . S
Co354 O356 2.143 . S
Co354 O362 2.074 . S
Co354 O365 2.093 . S
Co354 O378 2.097 . S
Co354 N395 2.151 . S
Co354 N403 2.214 . S
Co355 O356 2.160 . S
Co355 O361 2.058 . S
Co355 O371 2.057 . S
Co355 O386 2.037 . S
Co355 N390 2.145 1_545 S
Co355 N411 2.257 1_545 S
O356 Co354 2.143 . S
O356 Co355 2.160 . S
C357 O358 1.278 . S
C357 O365 1.224 . S
O358 C357 1.278 . S
C359 O360 1.245 . S
C359 O371 1.232 . S
O360 C359 1.245 . S
O361 Co355 2.058 . S
O361 C387 1.269 . S
O362 Co354 2.074 . S
O362 C387 1.257 . S
H363 C388 0.930 . S
H364 C394 0.930 . S
O365 Co354 2.093 . S
O365 C357 1.224 . S
H366 C398 0.929 . S
H367 C400 0.930 . S
H368 C401 0.930 . S
H369 C399 0.929 . S
H370 C402 0.928 . S
O371 Co355 2.057 . S
O371 C359 1.232 . S
H372 C391 0.929 . S
H373 C392 0.929 . S
H374 C404 0.931 1_655 S
H375 C396 0.929 . S
H376 C405 0.930 1_655 S
H377 C397 0.931 . S
O378 Co354 2.097 . S
O378 C406 1.214 . S
H379 C407 0.929 . S
H380 C408 0.929 . S
H381 C409 0.930 . S
H382 C410 0.929 . S
H383 C412 0.937 . S
H384 C389 0.930 . S
H385 C393 0.930 . S
O386 Co355 2.037 . S
O386 C406 1.234 . S
C387 O361 1.269 . S
C387 O362 1.257 . S
C388 H363 0.930 . S
C388 C391 1.388 . S
C388 C393 1.418 . S
C389 H384 0.930 . S
C389 C392 1.404 . S
C389 C393 1.353 . S
N390 Co355 2.145 1_565 S
N390 C391 1.397 . S
N390 C392 1.334 . S
C391 H372 0.929 . S
C391 C388 1.388 . S
C391 N390 1.397 . S
C392 H373 0.929 . S
C392 C389 1.404 . S
C392 N390 1.334 . S
C393 H385 0.930 . S
C393 C388 1.418 . S
C393 C389 1.353 . S
C394 H364 0.930 . S
C394 N395 1.330 . S
C394 C396 1.446 . S
N395 Co354 2.151 . S
N395 C394 1.330 . S
N395 C399 1.418 . S
C396 H375 0.929 . S
C396 C394 1.446 . S
C396 C397 1.332 . S
C397 H377 0.931 . S
C397 C396 1.332 . S
C397 C398 1.267 . S
C398 H366 0.929 . S
C398 C397 1.267 . S
C398 C399 1.251 . S
C399 H369 0.929 . S
C399 N395 1.418 . S
C399 C398 1.251 . S
C400 H367 0.930 . S
C400 C402 1.406 . S
C400 C405 1.261 . S
C401 H368 0.930 . S
C401 N403 1.325 . S
C401 C404 1.357 . S
C402 H370 0.928 . S
C402 C400 1.406 . S
C402 N403 1.261 . S
N403 Co354 2.214 . S
N403 C401 1.325 . S
N403 C402 1.261 . S
C404 H374 0.931 1_455 S
C404 C401 1.357 . S
C404 C405 1.312 . S
C405 H376 0.930 1_455 S
C405 C400 1.261 . S
C405 C404 1.312 . S
C406 O378 1.214 . S
C406 O386 1.234 . S
C407 H379 0.929 . S
C407 C410 1.391 . S
C407 C412 1.391 . S
C408 H380 0.929 . S
C408 C409 1.390 . S
C408 N411 1.391 . S
C409 H381 0.930 . S
C409 C408 1.390 . S
C409 C410 1.392 . S
C410 H382 0.929 . S
C410 C407 1.391 . S
C410 C409 1.392 . S
N411 Co355 2.257 1_565 S
N411 C408 1.391 . S
N411 C412 1.388 . S
C412 H383 0.937 . S
C412 C407 1.391 . S
C412 N411 1.388 . S
Co413 O415 2.143 . S
Co413 O421 2.074 . S
Co413 O424 2.093 . S
Co413 O437 2.097 . S
Co413 N454 2.151 . S
Co413 N462 2.214 . S
Co414 O415 2.160 . S
Co414 O420 2.058 . S
Co414 O430 2.057 . S
Co414 O445 2.037 . S
Co414 N449 2.145 1_655 S
Co414 N470 2.257 1_655 S
O415 Co413 2.143 . S
O415 Co414 2.160 . S
C416 O417 1.278 . S
C416 O424 1.224 . S
O417 C416 1.278 . S
C418 O419 1.245 . S
C418 O430 1.232 . S
O419 C418 1.245 . S
O420 Co414 2.058 . S
O420 C446 1.269 . S
O421 Co413 2.074 . S
O421 C446 1.257 . S
H422 C447 0.930 . S
H423 C453 0.930 . S
O424 Co413 2.093 . S
O424 C416 1.224 . S
H425 C457 0.929 . S
H426 C459 0.930 . S
H427 C460 0.930 . S
H428 C458 0.929 . S
H429 C461 0.928 . S
O430 Co414 2.057 . S
O430 C418 1.232 . S
H431 C450 0.929 . S
H432 C451 0.929 . S
H433 C463 0.931 . S
H434 C455 0.929 . S
H435 C464 0.930 . S
H436 C456 0.931 . S
O437 Co413 2.097 . S
O437 C465 1.214 . S
H438 C466 0.929 . S
H439 C467 0.929 . S
H440 C468 0.930 . S
H441 C469 0.929 . S
H442 C471 0.936 . S
H443 C448 0.930 . S
H444 C452 0.930 . S
O445 Co414 2.037 . S
O445 C465 1.234 . S
C446 O420 1.269 . S
C446 O421 1.257 . S
C447 H422 0.930 . S
C447 C450 1.388 . S
C447 C452 1.418 . S
C448 H443 0.930 . S
C448 C451 1.404 . S
C448 C452 1.353 . S
N449 Co414 2.145 1_455 S
N449 C450 1.397 . S
N449 C451 1.334 . S
C450 H431 0.929 . S
C450 C447 1.388 . S
C450 N449 1.397 . S
C451 H432 0.929 . S
C451 C448 1.404 . S
C451 N449 1.334 . S
C452 H444 0.930 . S
C452 C447 1.418 . S
C452 C448 1.353 . S
C453 H423 0.930 . S
C453 N454 1.330 . S
C453 C455 1.446 . S
N454 Co413 2.151 . S
N454 C453 1.330 . S
N454 C458 1.418 . S
C455 H434 0.929 . S
C455 C453 1.446 . S
C455 C456 1.332 . S
C456 H436 0.931 . S
C456 C455 1.332 . S
C456 C457 1.267 . S
C457 H425 0.929 . S
C457 C456 1.267 . S
C457 C458 1.251 . S
C458 H428 0.929 . S
C458 N454 1.418 . S
C458 C457 1.251 . S
C459 H426 0.930 . S
C459 C461 1.406 . S
C459 C464 1.261 . S
C460 H427 0.930 . S
C460 N462 1.325 . S
C460 C463 1.357 . S
C461 H429 0.928 . S
C461 C459 1.406 . S
C461 N462 1.261 . S
N462 Co413 2.214 . S
N462 C460 1.325 . S
N462 C461 1.261 . S
C463 H433 0.931 . S
C463 C460 1.357 . S
C463 C464 1.312 . S
C464 H435 0.930 . S
C464 C459 1.261 . S
C464 C463 1.312 . S
C465 O437 1.214 . S
C465 O445 1.234 . S
C466 H438 0.929 . S
C466 C469 1.391 . S
C466 C471 1.391 . S
C467 H439 0.929 . S
C467 C468 1.390 . S
C467 N470 1.391 . S
C468 H440 0.930 . S
C468 C467 1.390 . S
C468 C469 1.392 . S
C469 H441 0.929 . S
C469 C466 1.391 . S
C469 C468 1.392 . S
N470 Co414 2.257 1_455 S
N470 C467 1.391 . S
N470 C471 1.388 . S
C471 H442 0.936 . S
C471 C466 1.391 . S
C471 N470 1.388 . S
Co472 O474 2.143 . S
Co472 O480 2.074 . S
Co472 O483 2.093 . S
Co472 O496 2.097 . S
Co472 N513 2.151 . S
Co472 N521 2.214 . S
Co473 O474 2.160 . S
Co473 O479 2.058 . S
Co473 O489 2.057 . S
Co473 O504 2.037 . S
Co473 N508 2.145 . S
Co473 N529 2.257 . S
O474 Co472 2.143 . S
O474 Co473 2.160 . S
C475 O476 1.278 . S
C475 O483 1.224 . S
O476 C475 1.278 . S
C477 O478 1.245 . S
C477 O489 1.232 . S
O478 C477 1.245 . S
O479 Co473 2.058 . S
O479 C505 1.269 . S
O480 Co472 2.074 . S
O480 C505 1.257 . S
H481 C506 0.930 . S
H482 C512 0.930 . S
O483 Co472 2.093 . S
O483 C475 1.224 . S
H484 C516 0.929 . S
H485 C518 0.930 . S
H486 C519 0.930 . S
H487 C517 0.929 . S
H488 C520 0.928 . S
O489 Co473 2.057 . S
O489 C477 1.232 . S
H490 C509 0.929 . S
H491 C510 0.929 . S
H492 C522 0.931 1_455 S
H493 C514 0.929 . S
H494 C523 0.930 1_455 S
H495 C515 0.931 . S
O496 Co472 2.097 . S
O496 C524 1.214 . S
H497 C525 0.929 . S
H498 C526 0.929 . S
H499 C527 0.930 . S
H500 C528 0.929 . S
H501 C530 0.930 . S
H502 C507 0.930 . S
H503 C511 0.930 . S
O504 Co473 2.037 . S
O504 C524 1.234 . S
C505 O479 1.269 . S
C505 O480 1.257 . S
C506 H481 0.930 . S
C506 C509 1.388 . S
C506 C511 1.418 . S
C507 H502 0.930 . S
C507 C510 1.404 . S
C507 C511 1.353 . S
N508 Co473 2.145 . S
N508 C509 1.397 . S
N508 C510 1.334 . S
C509 H490 0.929 . S
C509 C506 1.388 . S
C509 N508 1.397 . S
C510 H491 0.929 . S
C510 C507 1.404 . S
C510 N508 1.334 . S
C511 H503 0.930 . S
C511 C506 1.418 . S
C511 C507 1.353 . S
C512 H482 0.930 . S
C512 N513 1.330 . S
C512 C514 1.446 . S
N513 Co472 2.151 . S
N513 C512 1.330 . S
N513 C517 1.418 . S
C514 H493 0.929 . S
C514 C512 1.446 . S
C514 C515 1.332 . S
C515 H495 0.931 . S
C515 C514 1.332 . S
C515 C516 1.267 . S
C516 H484 0.929 . S
C516 C515 1.267 . S
C516 C517 1.251 . S
C517 H487 0.929 . S
C517 N513 1.418 . S
C517 C516 1.251 . S
C518 H485 0.930 . S
C518 C520 1.406 . S
C518 C523 1.261 . S
C519 H486 0.930 . S
C519 N521 1.325 . S
C519 C522 1.357 . S
C520 H488 0.928 . S
C520 C518 1.406 . S
C520 N521 1.261 . S
N521 Co472 2.214 . S
N521 C519 1.325 . S
N521 C520 1.261 . S
C522 H492 0.931 1_655 S
C522 C519 1.357 . S
C522 C523 1.312 . S
C523 H494 0.930 1_655 S
C523 C518 1.261 . S
C523 C522 1.312 . S
C524 O496 1.214 . S
C524 O504 1.234 . S
C525 H497 0.929 . S
C525 C528 1.391 . S
C525 C530 1.391 . S
C526 H498 0.929 . S
C526 C527 1.390 . S
C526 N529 1.391 . S
C527 H499 0.930 . S
C527 C526 1.390 . S
C527 C528 1.392 . S
C528 H500 0.929 . S
C528 C525 1.391 . S
C528 C527 1.392 . S
N529 Co473 2.257 . S
N529 C526 1.391 . S
N529 C530 1.388 . S
C530 H501 0.930 . S
C530 C525 1.391 . S
C530 N529 1.388 . S
Co531 O533 2.143 . S
Co531 O539 2.074 . S
Co531 O542 2.093 . S
Co531 O555 2.097 . S
Co531 N572 2.151 . S
Co531 N580 2.214 . S
Co532 O533 2.160 . S
Co532 O538 2.058 . S
Co532 O548 2.057 . S
Co532 O563 2.037 . S
Co532 N567 2.145 . S
Co532 N588 2.257 . S
O533 Co531 2.143 . S
O533 Co532 2.160 . S
C534 O535 1.278 . S
C534 O542 1.224 . S
O535 C534 1.278 . S
C536 O537 1.245 . S
C536 O548 1.232 . S
O537 C536 1.245 . S
O538 Co532 2.058 . S
O538 C564 1.269 . S
O539 Co531 2.074 . S
O539 C564 1.257 . S
H540 C565 0.930 . S
H541 C571 0.930 . S
O542 Co531 2.093 . S
O542 C534 1.224 . S
H543 C575 0.929 . S
H544 C577 0.930 . S
H545 C578 0.930 . S
H546 C576 0.929 . S
H547 C579 0.928 . S
O548 Co532 2.057 . S
O548 C536 1.232 . S
H549 C568 0.929 . S
H550 C569 0.929 . S
H551 C581 0.931 . S
H552 C573 0.929 . S
H553 C582 0.930 . S
H554 C574 0.931 . S
O555 Co531 2.097 . S
O555 C583 1.214 . S
H556 C584 0.929 . S
H557 C585 0.929 . S
H558 C586 0.930 . S
H559 C587 0.929 . S
H560 C589 0.930 . S
H561 C566 0.930 . S
H562 C570 0.930 . S
O563 Co532 2.037 . S
O563 C583 1.234 . S
C564 O538 1.269 . S
C564 O539 1.257 . S
C565 H540 0.930 . S
C565 C568 1.388 . S
C565 C570 1.418 . S
C566 H561 0.930 . S
C566 C569 1.404 . S
C566 C570 1.353 . S
N567 Co532 2.145 . S
N567 C568 1.397 . S
N567 C569 1.334 . S
C568 H549 0.929 . S
C568 C565 1.388 . S
C568 N567 1.397 . S
C569 H550 0.929 . S
C569 C566 1.404 . S
C569 N567 1.334 . S
C570 H562 0.930 . S
C570 C565 1.418 . S
C570 C566 1.353 . S
C571 H541 0.930 . S
C571 N572 1.330 . S
C571 C573 1.446 . S
N572 Co531 2.151 . S
N572 C571 1.330 . S
N572 C576 1.418 . S
C573 H552 0.929 . S
C573 C571 1.446 . S
C573 C574 1.332 . S
C574 H554 0.931 . S
C574 C573 1.332 . S
C574 C575 1.267 . S
C575 H543 0.929 . S
C575 C574 1.267 . S
C575 C576 1.251 . S
C576 H546 0.929 . S
C576 N572 1.418 . S
C576 C575 1.251 . S
C577 H544 0.930 . S
C577 C579 1.406 . S
C577 C582 1.261 . S
C578 H545 0.930 . S
C578 N580 1.325 . S
C578 C581 1.357 . S
C579 H547 0.928 . S
C579 C577 1.406 . S
C579 N580 1.261 . S
N580 Co531 2.214 . S
N580 C578 1.325 . S
N580 C579 1.261 . S
C581 H551 0.931 . S
C581 C578 1.357 . S
C581 C582 1.312 . S
C582 H553 0.930 . S
C582 C577 1.261 . S
C582 C581 1.312 . S
C583 O555 1.214 . S
C583 O563 1.234 . S
C584 H556 0.929 . S
C584 C587 1.391 . S
C584 C589 1.391 . S
C585 H557 0.929 . S
C585 C586 1.390 . S
C585 N588 1.391 . S
C586 H558 0.930 . S
C586 C585 1.390 . S
C586 C587 1.392 . S
C587 H559 0.929 . S
C587 C584 1.391 . S
C587 C586 1.392 . S
N588 Co532 2.257 . S
N588 C585 1.391 . S
N588 C589 1.388 . S
C589 H560 0.930 . S
C589 C584 1.391 . S
C589 N588 1.388 . S
Co590 O592 2.143 . S
Co590 O598 2.074 . S
Co590 O601 2.093 . S
Co590 O614 2.097 . S
Co590 N631 2.151 . S
Co590 N639 2.214 . S
Co591 O592 2.160 . S
Co591 O597 2.058 . S
Co591 O607 2.057 . S
Co591 O622 2.037 . S
Co591 N626 2.145 1_565 S
Co591 N647 2.257 1_565 S
O592 Co590 2.143 . S
O592 Co591 2.160 . S
C593 O594 1.278 . S
C593 O601 1.224 . S
O594 C593 1.278 . S
C595 O596 1.245 . S
C595 O607 1.232 . S
O596 C595 1.245 . S
O597 Co591 2.058 . S
O597 C623 1.269 . S
O598 Co590 2.074 . S
O598 C623 1.257 . S
H599 C624 0.930 . S
H600 C630 0.930 . S
O601 Co590 2.093 . S
O601 C593 1.224 . S
H602 C634 0.929 . S
H603 C636 0.930 . S
H604 C637 0.930 . S
H605 C635 0.929 . S
H606 C638 0.928 . S
O607 Co591 2.057 . S
O607 C595 1.232 . S
H608 C627 0.929 . S
H609 C628 0.929 . S
H610 C640 0.931 . S
H611 C632 0.929 . S
H612 C641 0.930 . S
H613 C633 0.931 . S
O614 Co590 2.097 . S
O614 C642 1.214 . S
H615 C643 0.929 . S
H616 C644 0.929 . S
H617 C645 0.930 . S
H618 C646 0.929 . S
H619 C648 0.938 . S
H620 C625 0.930 . S
H621 C629 0.930 . S
O622 Co591 2.037 . S
O622 C642 1.234 . S
C623 O597 1.269 . S
C623 O598 1.257 . S
C624 H599 0.930 . S
C624 C627 1.388 . S
C624 C629 1.418 . S
C625 H620 0.930 . S
C625 C628 1.404 . S
C625 C629 1.353 . S
N626 Co591 2.145 1_545 S
N626 C627 1.397 . S
N626 C628 1.334 . S
C627 H608 0.929 . S
C627 C624 1.388 . S
C627 N626 1.397 . S
C628 H609 0.929 . S
C628 C625 1.404 . S
C628 N626 1.334 . S
C629 H621 0.930 . S
C629 C624 1.418 . S
C629 C625 1.353 . S
C630 H600 0.930 . S
C630 N631 1.330 . S
C630 C632 1.446 . S
N631 Co590 2.151 . S
N631 C630 1.330 . S
N631 C635 1.418 . S
C632 H611 0.929 . S
C632 C630 1.446 . S
C632 C633 1.332 . S
C633 H613 0.931 . S
C633 C632 1.332 . S
C633 C634 1.267 . S
C634 H602 0.929 . S
C634 C633 1.267 . S
C634 C635 1.251 . S
C635 H605 0.929 . S
C635 N631 1.418 . S
C635 C634 1.251 . S
C636 H603 0.930 . S
C636 C638 1.406 . S
C636 C641 1.261 . S
C637 H604 0.930 . S
C637 N639 1.325 . S
C637 C640 1.357 . S
C638 H606 0.928 . S
C638 C636 1.406 . S
C638 N639 1.261 . S
N639 Co590 2.214 . S
N639 C637 1.325 . S
N639 C638 1.261 . S
C640 H610 0.931 . S
C640 C637 1.357 . S
C640 C641 1.312 . S
C641 H612 0.930 . S
C641 C636 1.261 . S
C641 C640 1.312 . S
C642 O614 1.214 . S
C642 O622 1.234 . S
C643 H615 0.929 . S
C643 C646 1.391 . S
C643 C648 1.391 . S
C644 H616 0.929 . S
C644 C645 1.390 . S
C644 N647 1.391 . S
C645 H617 0.930 . S
C645 C644 1.390 . S
C645 C646 1.392 . S
C646 H618 0.929 . S
C646 C643 1.391 . S
C646 C645 1.392 . S
N647 Co591 2.257 1_545 S
N647 C644 1.391 . S
N647 C648 1.388 . S
C648 H619 0.938 . S
C648 C643 1.391 . S
C648 N647 1.388 . S
Co649 O651 2.143 . S
Co649 O657 2.074 . S
Co649 O660 2.093 . S
Co649 O673 2.097 . S
Co649 N690 2.151 . S
Co649 N698 2.214 . S
Co650 O651 2.160 . S
Co650 O656 2.058 . S
Co650 O666 2.057 . S
Co650 O681 2.037 . S
Co650 N685 2.145 1_455 S
Co650 N706 2.257 1_455 S
O651 Co649 2.143 . S
O651 Co650 2.160 . S
C652 O653 1.278 . S
C652 O660 1.224 . S
O653 C652 1.278 . S
C654 O655 1.245 . S
C654 O666 1.232 . S
O655 C654 1.245 . S
O656 Co650 2.058 . S
O656 C682 1.269 . S
O657 Co649 2.074 . S
O657 C682 1.257 . S
H658 C683 0.930 . S
H659 C689 0.930 . S
O660 Co649 2.093 . S
O660 C652 1.224 . S
H661 C693 0.929 . S
H662 C695 0.930 . S
H663 C696 0.930 . S
H664 C694 0.929 . S
H665 C697 0.928 . S
O666 Co650 2.057 . S
O666 C654 1.232 . S
H667 C686 0.929 . S
H668 C687 0.929 . S
H669 C699 0.931 1_565 S
H670 C691 0.929 . S
H671 C700 0.930 1_565 S
H672 C692 0.931 . S
O673 Co649 2.097 . S
O673 C701 1.214 . S
H674 C702 0.929 . S
H675 C703 0.929 . S
H676 C704 0.930 . S
H677 C705 0.929 . S
H678 C707 0.936 . S
H679 C684 0.930 . S
H680 C688 0.930 . S
O681 Co650 2.037 . S
O681 C701 1.234 . S
C682 O656 1.269 . S
C682 O657 1.257 . S
C683 H658 0.930 . S
C683 C686 1.388 . S
C683 C688 1.418 . S
C684 H679 0.930 . S
C684 C687 1.404 . S
C684 C688 1.353 . S
N685 Co650 2.145 1_655 S
N685 C686 1.397 . S
N685 C687 1.334 . S
C686 H667 0.929 . S
C686 C683 1.388 . S
C686 N685 1.397 . S
C687 H668 0.929 . S
C687 C684 1.404 . S
C687 N685 1.334 . S
C688 H680 0.930 . S
C688 C683 1.418 . S
C688 C684 1.353 . S
C689 H659 0.930 . S
C689 N690 1.330 . S
C689 C691 1.446 . S
N690 Co649 2.151 . S
N690 C689 1.330 . S
N690 C694 1.418 . S
C691 H670 0.929 . S
C691 C689 1.446 . S
C691 C692 1.332 . S
C692 H672 0.931 . S
C692 C691 1.332 . S
C692 C693 1.267 . S
C693 H661 0.929 . S
C693 C692 1.267 . S
C693 C694 1.251 . S
C694 H664 0.929 . S
C694 N690 1.418 . S
C694 C693 1.251 . S
C695 H662 0.930 . S
C695 C697 1.406 . S
C695 C700 1.261 . S
C696 H663 0.930 . S
C696 N698 1.325 . S
C696 C699 1.357 . S
C697 H665 0.928 . S
C697 C695 1.406 . S
C697 N698 1.261 . S
N698 Co649 2.214 . S
N698 C696 1.325 . S
N698 C697 1.261 . S
C699 H669 0.931 1_545 S
C699 C696 1.357 . S
C699 C700 1.312 . S
C700 H671 0.930 1_545 S
C700 C695 1.261 . S
C700 C699 1.312 . S
C701 O673 1.214 . S
C701 O681 1.234 . S
C702 H674 0.929 . S
C702 C705 1.391 . S
C702 C707 1.391 . S
C703 H675 0.929 . S
C703 C704 1.390 . S
C703 N706 1.391 . S
C704 H676 0.930 . S
C704 C703 1.390 . S
C704 C705 1.392 . S
C705 H677 0.929 . S
C705 C702 1.391 . S
C705 C704 1.392 . S
N706 Co650 2.257 1_655 S
N706 C703 1.391 . S
N706 C707 1.388 . S
C707 H678 0.936 . S
C707 C702 1.391 . S
C707 N706 1.388 . S
Co708 O710 2.143 . S
Co708 O716 2.074 . S
Co708 O719 2.093 . S
Co708 O732 2.097 . S
Co708 N749 2.151 . S
Co708 N757 2.214 . S
Co709 O710 2.160 . S
Co709 O715 2.058 . S
Co709 O725 2.057 . S
Co709 O740 2.037 . S
Co709 N744 2.145 1_565 S
Co709 N765 2.257 1_565 S
O710 Co708 2.143 . S
O710 Co709 2.160 . S
C711 O712 1.278 . S
C711 O719 1.224 . S
O712 C711 1.278 . S
C713 O714 1.245 . S
C713 O725 1.232 . S
O714 C713 1.245 . S
O715 Co709 2.058 . S
O715 C741 1.269 . S
O716 Co708 2.074 . S
O716 C741 1.257 . S
H717 C742 0.930 . S
H718 C748 0.930 . S
O719 Co708 2.093 . S
O719 C711 1.224 . S
H720 C752 0.929 . S
H721 C754 0.930 . S
H722 C755 0.930 . S
H723 C753 0.929 . S
H724 C756 0.928 . S
O725 Co709 2.057 . S
O725 C713 1.232 . S
H726 C745 0.929 . S
H727 C746 0.929 . S
H728 C758 0.931 1_455 S
H729 C750 0.929 . S
H730 C759 0.930 1_455 S
H731 C751 0.931 . S
O732 Co708 2.097 . S
O732 C760 1.214 . S
H733 C761 0.929 . S
H734 C762 0.929 . S
H735 C763 0.930 . S
H736 C764 0.929 . S
H737 C766 0.936 . S
H738 C743 0.930 . S
H739 C747 0.930 . S
O740 Co709 2.037 . S
O740 C760 1.234 . S
C741 O715 1.269 . S
C741 O716 1.257 . S
C742 H717 0.930 . S
C742 C745 1.388 . S
C742 C747 1.418 . S
C743 H738 0.930 . S
C743 C746 1.404 . S
C743 C747 1.353 . S
N744 Co709 2.145 1_545 S
N744 C745 1.397 . S
N744 C746 1.334 . S
C745 H726 0.929 . S
C745 C742 1.388 . S
C745 N744 1.397 . S
C746 H727 0.929 . S
C746 C743 1.404 . S
C746 N744 1.334 . S
C747 H739 0.930 . S
C747 C742 1.418 . S
C747 C743 1.353 . S
C748 H718 0.930 . S
C748 N749 1.330 . S
C748 C750 1.446 . S
N749 Co708 2.151 . S
N749 C748 1.330 . S
N749 C753 1.418 . S
C750 H729 0.929 . S
C750 C748 1.446 . S
C750 C751 1.332 . S
C751 H731 0.931 . S
C751 C750 1.332 . S
C751 C752 1.267 . S
C752 H720 0.929 . S
C752 C751 1.267 . S
C752 C753 1.251 . S
C753 H723 0.929 . S
C753 N749 1.418 . S
C753 C752 1.251 . S
C754 H721 0.930 . S
C754 C756 1.406 . S
C754 C759 1.261 . S
C755 H722 0.930 . S
C755 N757 1.325 . S
C755 C758 1.357 . S
C756 H724 0.928 . S
C756 C754 1.406 . S
C756 N757 1.261 . S
N757 Co708 2.214 . S
N757 C755 1.325 . S
N757 C756 1.261 . S
C758 H728 0.931 1_655 S
C758 C755 1.357 . S
C758 C759 1.312 . S
C759 H730 0.930 1_655 S
C759 C754 1.261 . S
C759 C758 1.312 . S
C760 O732 1.214 . S
C760 O740 1.234 . S
C761 H733 0.929 . S
C761 C764 1.391 . S
C761 C766 1.391 . S
C762 H734 0.929 . S
C762 C763 1.390 . S
C762 N765 1.391 . S
C763 H735 0.930 . S
C763 C762 1.390 . S
C763 C764 1.392 . S
C764 H736 0.929 . S
C764 C761 1.391 . S
C764 C763 1.392 . S
N765 Co709 2.257 1_545 S
N765 C762 1.391 . S
N765 C766 1.388 . S
C766 H737 0.936 . S
C766 C761 1.391 . S
C766 N765 1.388 . S
Co767 O769 2.143 . S
Co767 O775 2.074 . S
Co767 O778 2.093 . S
Co767 O791 2.097 . S
Co767 N808 2.151 . S
Co767 N816 2.214 . S
Co768 O769 2.160 . S
Co768 O774 2.058 . S
Co768 O784 2.057 . S
Co768 O799 2.037 . S
Co768 N803 2.145 1_455 S
Co768 N824 2.257 1_455 S
O769 Co767 2.143 . S
O769 Co768 2.160 . S
C770 O771 1.278 . S
C770 O778 1.224 . S
O771 C770 1.278 . S
C772 O773 1.245 . S
C772 O784 1.232 . S
O773 C772 1.245 . S
O774 Co768 2.058 . S
O774 C800 1.269 . S
O775 Co767 2.074 . S
O775 C800 1.257 . S
H776 C801 0.930 . S
H777 C807 0.930 . S
O778 Co767 2.093 . S
O778 C770 1.224 . S
H779 C811 0.929 . S
H780 C813 0.930 . S
H781 C814 0.930 . S
H782 C812 0.929 . S
H783 C815 0.928 . S
O784 Co768 2.057 . S
O784 C772 1.232 . S
H785 C804 0.929 . S
H786 C805 0.929 . S
H787 C817 0.931 . S
H788 C809 0.929 . S
H789 C818 0.930 . S
H790 C810 0.931 . S
O791 Co767 2.097 . S
O791 C819 1.214 . S
H792 C820 0.929 . S
H793 C821 0.929 . S
H794 C822 0.930 . S
H795 C823 0.929 . S
H796 C825 0.938 . S
H797 C802 0.930 . S
H798 C806 0.930 . S
O799 Co768 2.037 . S
O799 C819 1.234 . S
C800 O774 1.269 . S
C800 O775 1.257 . S
C801 H776 0.930 . S
C801 C804 1.388 . S
C801 C806 1.418 . S
C802 H797 0.930 . S
C802 C805 1.404 . S
C802 C806 1.353 . S
N803 Co768 2.145 1_655 S
N803 C804 1.397 . S
N803 C805 1.334 . S
C804 H785 0.929 . S
C804 C801 1.388 . S
C804 N803 1.397 . S
C805 H786 0.929 . S
C805 C802 1.404 . S
C805 N803 1.334 . S
C806 H798 0.930 . S
C806 C801 1.418 . S
C806 C802 1.353 . S
C807 H777 0.930 . S
C807 N808 1.330 . S
C807 C809 1.446 . S
N808 Co767 2.151 . S
N808 C807 1.330 . S
N808 C812 1.418 . S
C809 H788 0.929 . S
C809 C807 1.446 . S
C809 C810 1.332 . S
C810 H790 0.931 . S
C810 C809 1.332 . S
C810 C811 1.267 . S
C811 H779 0.929 . S
C811 C810 1.267 . S
C811 C812 1.251 . S
C812 H782 0.929 . S
C812 N808 1.418 . S
C812 C811 1.251 . S
C813 H780 0.930 . S
C813 C815 1.406 . S
C813 C818 1.261 . S
C814 H781 0.930 . S
C814 N816 1.325 . S
C814 C817 1.357 . S
C815 H783 0.928 . S
C815 C813 1.406 . S
C815 N816 1.261 . S
N816 Co767 2.214 . S
N816 C814 1.325 . S
N816 C815 1.261 . S
C817 H787 0.931 . S
C817 C814 1.357 . S
C817 C818 1.312 . S
C818 H789 0.930 . S
C818 C813 1.261 . S
C818 C817 1.312 . S
C819 O791 1.214 . S
C819 O799 1.234 . S
C820 H792 0.929 . S
C820 C823 1.391 . S
C820 C825 1.391 . S
C821 H793 0.929 . S
C821 C822 1.390 . S
C821 N824 1.391 . S
C822 H794 0.930 . S
C822 C821 1.390 . S
C822 C823 1.392 . S
C823 H795 0.929 . S
C823 C820 1.391 . S
C823 C822 1.392 . S
N824 Co768 2.257 1_655 S
N824 C821 1.391 . S
N824 C825 1.388 . S
C825 H796 0.938 . S
C825 C820 1.391 . S
C825 N824 1.388 . S
Co826 O828 2.143 . S
Co826 O834 2.074 . S
Co826 O837 2.093 . S
Co826 O850 2.097 . S
Co826 N867 2.151 . S
Co826 N875 2.214 . S
Co827 O828 2.160 . S
Co827 O833 2.058 . S
Co827 O843 2.057 . S
Co827 O858 2.037 . S
Co827 N862 2.145 . S
Co827 N883 2.257 . S
O828 Co826 2.143 . S
O828 Co827 2.160 . S
C829 O830 1.278 . S
C829 O837 1.224 . S
O830 C829 1.278 . S
C831 O832 1.245 . S
C831 O843 1.232 . S
O832 C831 1.245 . S
O833 Co827 2.058 . S
O833 C859 1.269 . S
O834 Co826 2.074 . S
O834 C859 1.257 . S
H835 C860 0.930 . S
H836 C866 0.930 . S
O837 Co826 2.093 . S
O837 C829 1.224 . S
H838 C870 0.929 . S
H839 C872 0.930 . S
H840 C873 0.930 . S
H841 C871 0.929 . S
H842 C874 0.928 . S
O843 Co827 2.057 . S
O843 C831 1.232 . S
H844 C863 0.929 . S
H845 C864 0.929 . S
H846 C876 0.931 . S
H847 C868 0.929 . S
H848 C877 0.930 . S
H849 C869 0.931 . S
O850 Co826 2.097 . S
O850 C878 1.214 . S
H851 C879 0.929 . S
H852 C880 0.929 . S
H853 C881 0.930 . S
H854 C882 0.929 . S
H855 C884 0.930 . S
H856 C861 0.930 . S
H857 C865 0.930 . S
O858 Co827 2.037 . S
O858 C878 1.234 . S
C859 O833 1.269 . S
C859 O834 1.257 . S
C860 H835 0.930 . S
C860 C863 1.388 . S
C860 C865 1.418 . S
C861 H856 0.930 . S
C861 C864 1.404 . S
C861 C865 1.353 . S
N862 Co827 2.145 . S
N862 C863 1.397 . S
N862 C864 1.334 . S
C863 H844 0.929 . S
C863 C860 1.388 . S
C863 N862 1.397 . S
C864 H845 0.929 . S
C864 C861 1.404 . S
C864 N862 1.334 . S
C865 H857 0.930 . S
C865 C860 1.418 . S
C865 C861 1.353 . S
C866 H836 0.930 . S
C866 N867 1.330 . S
C866 C868 1.446 . S
N867 Co826 2.151 . S
N867 C866 1.330 . S
N867 C871 1.418 . S
C868 H847 0.929 . S
C868 C866 1.446 . S
C868 C869 1.332 . S
C869 H849 0.931 . S
C869 C868 1.332 . S
C869 C870 1.267 . S
C870 H838 0.929 . S
C870 C869 1.267 . S
C870 C871 1.251 . S
C871 H841 0.929 . S
C871 N867 1.418 . S
C871 C870 1.251 . S
C872 H839 0.930 . S
C872 C874 1.406 . S
C872 C877 1.261 . S
C873 H840 0.930 . S
C873 N875 1.325 . S
C873 C876 1.357 . S
C874 H842 0.928 . S
C874 C872 1.406 . S
C874 N875 1.261 . S
N875 Co826 2.214 . S
N875 C873 1.325 . S
N875 C874 1.261 . S
C876 H846 0.931 . S
C876 C873 1.357 . S
C876 C877 1.312 . S
C877 H848 0.930 . S
C877 C872 1.261 . S
C877 C876 1.312 . S
C878 O850 1.214 . S
C878 O858 1.234 . S
C879 H851 0.929 . S
C879 C882 1.391 . S
C879 C884 1.391 . S
C880 H852 0.929 . S
C880 C881 1.390 . S
C880 N883 1.391 . S
C881 H853 0.930 . S
C881 C880 1.390 . S
C881 C882 1.392 . S
C882 H854 0.929 . S
C882 C879 1.391 . S
C882 C881 1.392 . S
N883 Co827 2.257 . S
N883 C880 1.391 . S
N883 C884 1.388 . S
C884 H855 0.930 . S
C884 C879 1.391 . S
C884 N883 1.388 . S
Co885 O887 2.143 . S
Co885 O893 2.074 . S
Co885 O896 2.093 . S
Co885 O909 2.097 . S
Co885 N926 2.151 . S
Co885 N934 2.214 . S
Co886 O887 2.160 . S
Co886 O892 2.058 . S
Co886 O902 2.057 . S
Co886 O917 2.037 . S
Co886 N921 2.145 . S
Co886 N942 2.257 . S
O887 Co885 2.143 . S
O887 Co886 2.160 . S
C888 O889 1.278 . S
C888 O896 1.224 . S
O889 C888 1.278 . S
C890 O891 1.245 . S
C890 O902 1.232 . S
O891 C890 1.245 . S
O892 Co886 2.058 . S
O892 C918 1.269 . S
O893 Co885 2.074 . S
O893 C918 1.257 . S
H894 C919 0.930 . S
H895 C925 0.930 . S
O896 Co885 2.093 . S
O896 C888 1.224 . S
H897 C929 0.929 . S
H898 C931 0.930 . S
H899 C932 0.930 . S
H900 C930 0.929 . S
H901 C933 0.928 . S
O902 Co886 2.057 . S
O902 C890 1.232 . S
H903 C922 0.929 . S
H904 C923 0.929 . S
H905 C935 0.931 1_565 S
H906 C927 0.929 . S
H907 C936 0.930 1_565 S
H908 C928 0.931 . S
O909 Co885 2.097 . S
O909 C937 1.214 . S
H910 C938 0.929 . S
H911 C939 0.929 . S
H912 C940 0.930 . S
H913 C941 0.929 . S
H914 C943 0.930 . S
H915 C920 0.930 . S
H916 C924 0.930 . S
O917 Co886 2.037 . S
O917 C937 1.234 . S
C918 O892 1.269 . S
C918 O893 1.257 . S
C919 H894 0.930 . S
C919 C922 1.388 . S
C919 C924 1.418 . S
C920 H915 0.930 . S
C920 C923 1.404 . S
C920 C924 1.353 . S
N921 Co886 2.145 . S
N921 C922 1.397 . S
N921 C923 1.334 . S
C922 H903 0.929 . S
C922 C919 1.388 . S
C922 N921 1.397 . S
C923 H904 0.929 . S
C923 C920 1.404 . S
C923 N921 1.334 . S
C924 H916 0.930 . S
C924 C919 1.418 . S
C924 C920 1.353 . S
C925 H895 0.930 . S
C925 N926 1.330 . S
C925 C927 1.446 . S
N926 Co885 2.151 . S
N926 C925 1.330 . S
N926 C930 1.418 . S
C927 H906 0.929 . S
C927 C925 1.446 . S
C927 C928 1.332 . S
C928 H908 0.931 . S
C928 C927 1.332 . S
C928 C929 1.267 . S
C929 H897 0.929 . S
C929 C928 1.267 . S
C929 C930 1.251 . S
C930 H900 0.929 . S
C930 N926 1.418 . S
C930 C929 1.251 . S
C931 H898 0.930 . S
C931 C933 1.406 . S
C931 C936 1.261 . S
C932 H899 0.930 . S
C932 N934 1.325 . S
C932 C935 1.357 . S
C933 H901 0.928 . S
C933 C931 1.406 . S
C933 N934 1.261 . S
N934 Co885 2.214 . S
N934 C932 1.325 . S
N934 C933 1.261 . S
C935 H905 0.931 1_545 S
C935 C932 1.357 . S
C935 C936 1.312 . S
C936 H907 0.930 1_545 S
C936 C931 1.261 . S
C936 C935 1.312 . S
C937 O909 1.214 . S
C937 O917 1.234 . S
C938 H910 0.929 . S
C938 C941 1.391 . S
C938 C943 1.391 . S
C939 H911 0.929 . S
C939 C940 1.390 . S
C939 N942 1.391 . S
C940 H912 0.930 . S
C940 C939 1.390 . S
C940 C941 1.392 . S
C941 H913 0.929 . S
C941 C938 1.391 . S
C941 C940 1.392 . S
N942 Co886 2.257 . S
N942 C939 1.391 . S
N942 C943 1.388 . S
C943 H914 0.930 . S
C943 C938 1.391 . S
C943 N942 1.388 . S
C944 C945 1.369 1_545 S
C944 C946 1.419 1_655 S
C944 H948 0.930 . S
C945 C944 1.369 1_565 S
C945 C954 1.429 . S
C946 C944 1.419 1_455 S
C946 C947 1.363 . S
C946 H949 0.929 . S
C947 C946 1.363 . S
C947 C953 1.428 1_545 S
H948 C944 0.930 . S
H949 C946 0.929 . S
S950 N951 1.613 1_455 S
S950 N952 1.610 . S
N951 S950 1.613 1_655 S
N951 C954 1.350 . S
N952 S950 1.610 . S
N952 C953 1.351 . S
C953 C947 1.428 1_565 S
C953 N952 1.351 . S
C953 C954 1.434 1_455 S
C954 C945 1.429 . S
C954 N951 1.350 . S
C954 C953 1.434 1_655 S
C955 C956 1.369 . S
C955 C957 1.419 . S
C955 H959 0.930 . S
C956 C955 1.369 . S
C956 C965 1.429 1_655 S
C957 C955 1.419 . S
C957 C958 1.363 1_655 S
C957 H960 0.929 . S
C958 C957 1.363 1_455 S
C958 C964 1.428 . S
H959 C955 0.930 . S
H960 C957 0.929 . S
S961 N962 1.613 . S
S961 N963 1.610 . S
N962 S961 1.613 . S
N962 C965 1.350 . S
N963 S961 1.610 . S
N963 C964 1.351 . S
C964 C958 1.428 . S
C964 N963 1.351 . S
C964 C965 1.434 . S
C965 C956 1.429 1_455 S
C965 N962 1.350 . S
C965 C964 1.434 . S
C966 C967 1.369 . S
C966 C968 1.419 . S
C966 H970 0.930 . S
C967 C966 1.369 . S
C967 C976 1.429 . S
C968 C966 1.419 . S
C968 C969 1.363 . S
C968 H971 0.929 . S
C969 C968 1.363 . S
C969 C975 1.428 . S
H970 C966 0.930 . S
H971 C968 0.929 . S
S972 N973 1.613 . S
S972 N974 1.610 . S
N973 S972 1.613 . S
N973 C976 1.350 . S
N974 S972 1.610 . S
N974 C975 1.351 . S
C975 C969 1.428 . S
C975 N974 1.351 . S
C975 C976 1.434 . S
C976 C967 1.429 . S
C976 N973 1.350 . S
C976 C975 1.434 . S
C977 C978 1.369 . S
C977 C979 1.419 1_545 S
C977 H981 0.930 . S
C978 C977 1.369 . S
C978 C987 1.429 . S
C979 C977 1.419 1_565 S
C979 C980 1.363 . S
C979 H982 0.929 . S
C980 C979 1.363 . S
C980 C986 1.428 . S
H981 C977 0.930 . S
H982 C979 0.929 . S
S983 N984 1.613 . S
S983 N985 1.628 . S
N984 S983 1.613 . S
N984 C987 1.350 . S
N985 S983 1.628 . S
N985 C986 1.350 1_545 S
C986 C980 1.428 . S
C986 N985 1.350 1_565 S
C986 C987 1.434 1_565 S
C987 C978 1.429 . S
C987 N984 1.350 . S
C987 C986 1.434 1_545 S
C988 C989 1.369 . S
C988 C990 1.419 1_455 S
C988 H992 0.930 . S
C989 C988 1.369 . S
C989 C998 1.428 . S
C990 C988 1.419 1_655 S
C990 C991 1.363 . S
C990 H993 0.930 . S
C991 C990 1.363 . S
C991 C997 1.428 . S
H992 C988 0.930 . S
H993 C990 0.930 . S
S994 N995 1.613 . S
S994 N996 1.610 . S
N995 S994 1.613 . S
N995 C998 1.350 1_655 S
N996 S994 1.610 . S
N996 C997 1.351 . S
C997 C991 1.428 . S
C997 N996 1.351 . S
C997 C998 1.434 1_655 S
C998 C989 1.428 . S
C998 N995 1.350 1_455 S
C998 C997 1.434 1_455 S
C999 C1000 1.369 . S
C999 C1001 1.419 . S
C999 H1003 0.930 . S
C1000 C999 1.369 . S
C1000 C1009 1.429 . S
C1001 C999 1.419 . S
C1001 C1002 1.363 . S
C1001 H1004 0.929 . S
C1002 C1001 1.363 . S
C1002 C1008 1.428 . S
H1003 C999 0.930 . S
H1004 C1001 0.929 . S
S1005 N1006 1.613 . S
S1005 N1007 1.610 . S
N1006 S1005 1.613 . S
N1006 C1009 1.350 . S
N1007 S1005 1.610 . S
N1007 C1008 1.351 . S
C1008 C1002 1.428 . S
C1008 N1007 1.351 . S
C1008 C1009 1.434 . S
C1009 C1000 1.429 . S
C1009 N1006 1.350 . S
C1009 C1008 1.434 . S
C1010 C1011 1.369 1_565 S
C1010 C1012 1.419 . S
C1010 H1014 0.930 . S
C1011 C1010 1.369 1_545 S
C1011 C1020 1.429 . S
C1012 C1010 1.419 . S
C1012 C1013 1.363 . S
C1012 H1015 0.929 . S
C1013 C1012 1.363 . S
C1013 C1019 1.428 1_565 S
H1014 C1010 0.930 . S
H1015 C1012 0.929 . S
S1016 N1017 1.613 . S
S1016 N1018 1.610 . S
N1017 S1016 1.613 . S
N1017 C1020 1.350 . S
N1018 S1016 1.610 . S
N1018 C1019 1.351 . S
C1019 C1013 1.428 1_545 S
C1019 N1018 1.351 . S
C1019 C1020 1.434 . S
C1020 C1011 1.429 . S
C1020 N1017 1.350 . S
C1020 C1019 1.434 . S
C1021 C1022 1.369 . S
C1021 C1023 1.419 1_545 S
C1021 H1025 0.930 . S
C1022 C1021 1.369 . S
C1022 C1031 1.429 1_455 S
C1023 C1021 1.419 1_565 S
C1023 C1024 1.363 1_455 S
C1023 H1026 0.929 . S
C1024 C1023 1.363 1_655 S
C1024 C1030 1.428 . S
H1025 C1021 0.930 . S
H1026 C1023 0.929 . S
S1027 N1028 1.613 . S
S1027 N1029 1.610 . S
N1028 S1027 1.613 . S
N1028 C1031 1.350 . S
N1029 S1027 1.610 . S
N1029 C1030 1.351 1_545 S
C1030 C1024 1.428 . S
C1030 N1029 1.351 1_565 S
C1030 C1031 1.434 1_565 S
C1031 C1022 1.429 1_655 S
C1031 N1028 1.350 . S
C1031 C1030 1.434 1_545 S
C1032 C1033 1.369 . S
C1032 C1034 1.419 . S
C1032 H1036 0.930 . S
C1033 C1032 1.369 . S
C1033 C1042 1.429 1_565 S
C1034 C1032 1.419 . S
C1034 C1035 1.363 1_565 S
C1034 H1037 0.929 . S
C1035 C1034 1.363 1_545 S
C1035 C1041 1.428 . S
H1036 C1032 0.930 . S
H1037 C1034 0.929 . S
S1038 N1039 1.613 . S
S1038 N1040 1.610 . S
N1039 S1038 1.613 . S
N1039 C1042 1.350 . S
N1040 S1038 1.610 . S
N1040 C1041 1.351 . S
C1041 C1035 1.428 . S
C1041 N1040 1.351 . S
C1041 C1042 1.434 . S
C1042 C1033 1.429 1_545 S
C1042 N1039 1.350 . S
C1042 C1041 1.434 . S
C1043 C1044 1.369 . S
C1043 C1045 1.419 1_665 S
C1043 H1047 0.930 . S
C1044 C1043 1.369 . S
C1044 C1053 1.429 . S
C1045 C1043 1.419 1_445 S
C1045 C1046 1.363 . S
C1045 H1048 0.929 . S
C1046 C1045 1.363 . S
C1046 C1052 1.428 . S
H1047 C1043 0.930 . S
H1048 C1045 0.929 . S
S1049 N1050 1.612 1_455 S
S1049 N1051 1.612 1_565 S
N1050 S1049 1.612 1_655 S
N1050 C1053 1.350 . S
N1051 S1049 1.612 1_545 S
N1051 C1052 1.351 . S
C1052 C1046 1.428 . S
C1052 N1051 1.351 . S
C1052 C1053 1.434 1_445 S
C1053 C1044 1.429 . S
C1053 N1050 1.350 . S
C1053 C1052 1.434 1_665 S
C1054 C1055 1.369 . S
C1054 C1056 1.419 1_455 S
C1054 H1058 0.930 . S
C1055 C1054 1.369 . S
C1055 C1064 1.429 . S
C1056 C1054 1.419 1_655 S
C1056 C1057 1.363 . S
C1056 H1059 0.929 . S
C1057 C1056 1.363 . S
C1057 C1063 1.428 . S
H1058 C1054 0.930 . S
H1059 C1056 0.929 . S
S1060 N1061 1.613 . S
S1060 N1062 1.610 1_455 S
N1061 S1060 1.613 . S
N1061 C1064 1.350 . S
N1062 S1060 1.610 1_655 S
N1062 C1063 1.351 . S
C1063 C1057 1.428 . S
C1063 N1062 1.351 . S
C1063 C1064 1.434 1_655 S
C1064 C1055 1.429 . S
C1064 N1061 1.350 . S
C1064 C1063 1.434 1_455 S
C1065 C1066 1.369 . S
C1065 C1067 1.419 . S
C1065 H1069 0.930 . S
C1066 C1065 1.369 . S
C1066 C1075 1.429 . S
C1067 C1065 1.419 . S
C1067 C1068 1.363 . S
C1067 H1070 0.929 . S
C1068 C1067 1.363 . S
C1068 C1074 1.428 . S
H1069 C1065 0.930 . S
H1070 C1067 0.929 . S
S1071 N1072 1.613 . S
S1071 N1073 1.610 . S
N1072 S1071 1.613 . S
N1072 C1075 1.350 . S
N1073 S1071 1.610 . S
N1073 C1074 1.351 . S
C1074 C1068 1.428 . S
C1074 N1073 1.351 . S
C1074 C1075 1.434 . S
C1075 C1066 1.429 . S
C1075 N1072 1.350 . S
C1075 C1074 1.434 . S
C1076 C1077 1.369 . S
C1076 C1078 1.419 . S
C1076 H1080 0.930 . S
C1077 C1076 1.369 . S
C1077 C1086 1.429 . S
C1078 C1076 1.419 . S
C1078 C1079 1.363 . S
C1078 H1081 0.929 . S
C1079 C1078 1.363 . S
C1079 C1085 1.428 . S
H1080 C1076 0.930 . S
H1081 C1078 0.929 . S
S1082 N1083 1.613 . S
S1082 N1084 1.610 . S
N1083 S1082 1.613 . S
N1083 C1086 1.350 . S
N1084 S1082 1.610 . S
N1084 C1085 1.351 . S
C1085 C1079 1.428 . S
C1085 N1084 1.351 . S
C1085 C1086 1.434 . S
C1086 C1077 1.429 . S
C1086 N1083 1.350 . S
C1086 C1085 1.434 . S
C1087 C1088 1.369 . S
C1087 C1089 1.419 1_565 S
C1087 H1091 0.930 . S
C1088 C1087 1.369 . S
C1088 C1097 1.429 . S
C1089 C1087 1.419 1_545 S
C1089 C1090 1.363 . S
C1089 H1092 0.929 . S
C1090 C1089 1.363 . S
C1090 C1096 1.428 . S
H1091 C1087 0.930 . S
H1092 C1089 0.929 . S
S1093 N1094 1.613 . S
S1093 N1095 1.610 1_565 S
N1094 S1093 1.613 . S
N1094 C1097 1.350 . S
N1095 S1093 1.610 1_545 S
N1095 C1096 1.351 . S
C1096 C1090 1.428 . S
C1096 N1095 1.351 . S
C1096 C1097 1.434 1_545 S
C1097 C1088 1.429 . S
C1097 N1094 1.350 . S
C1097 C1096 1.434 1_565 S
C1098 C1099 1.369 1_545 S
C1098 C1100 1.419 1_655 S
C1098 H1102 0.930 . S
C1099 C1098 1.369 1_565 S
C1099 C1108 1.445 . S
C1100 C1098 1.419 1_455 S
C1100 C1101 1.363 . S
C1100 H1103 0.929 . S
C1101 C1100 1.363 . S
C1101 C1107 1.428 1_545 S
H1102 C1098 0.930 . S
H1103 C1100 0.929 . S
S1104 N1105 1.613 . S
S1104 N1106 1.610 . S
N1105 S1104 1.613 . S
N1105 C1108 1.348 1_455 S
N1106 S1104 1.610 . S
N1106 C1107 1.351 . S
C1107 C1101 1.428 1_565 S
C1107 N1106 1.351 . S
C1107 C1108 1.417 1_455 S
C1108 C1099 1.445 . S
C1108 N1105 1.348 1_655 S
C1108 C1107 1.417 1_655 S
C1109 C1110 1.369 1_655 S
C1109 C1111 1.419 . S
C1109 H1113 0.930 . S
C1110 C1109 1.369 1_455 S
C1110 C1119 1.429 . S
C1111 C1109 1.419 . S
C1111 C1112 1.363 . S
C1111 H1114 0.929 . S
C1112 C1111 1.363 . S
C1112 C1118 1.428 1_655 S
H1113 C1109 0.930 . S
H1114 C1111 0.929 . S
S1115 N1116 1.613 . S
S1115 N1117 1.610 . S
N1116 S1115 1.613 . S
N1116 C1119 1.350 . S
N1117 S1115 1.610 . S
N1117 C1118 1.351 . S
C1118 C1112 1.428 1_455 S
C1118 N1117 1.351 . S
C1118 C1119 1.434 . S
C1119 C1110 1.429 . S
C1119 N1116 1.350 . S
C1119 C1118 1.434 . S
C1120 C1121 1.369 . S
C1120 C1122 1.419 . S
C1120 H1124 0.930 . S
C1121 C1120 1.369 . S
C1121 C1130 1.429 . S
C1122 C1120 1.419 . S
C1122 C1123 1.363 . S
C1122 H1125 0.929 . S
C1123 C1122 1.363 . S
C1123 C1129 1.428 . S
H1124 C1120 0.930 . S
H1125 C1122 0.929 . S
S1126 N1127 1.613 . S
S1126 N1128 1.610 . S
N1127 S1126 1.613 . S
N1127 C1130 1.350 . S
N1128 S1126 1.610 . S
N1128 C1129 1.351 . S
C1129 C1123 1.428 . S
C1129 N1128 1.351 . S
C1129 C1130 1.434 . S
C1130 C1121 1.429 . S
C1130 N1127 1.350 . S
C1130 C1129 1.434 . S
C1131 C1132 1.369 . S
C1131 C1133 1.419 . S
C1131 H1135 0.930 . S
C1132 C1131 1.369 . S
C1132 C1141 1.429 . S
C1133 C1131 1.419 . S
C1133 C1134 1.363 . S
C1133 H1136 0.929 . S
C1134 C1133 1.363 . S
C1134 C1140 1.428 . S
H1135 C1131 0.930 . S
H1136 C1133 0.929 . S
S1137 N1138 1.613 1_455 S
S1137 N1139 1.610 1_455 S
N1138 S1137 1.613 1_655 S
N1138 C1141 1.350 . S
N1139 S1137 1.610 1_655 S
N1139 C1140 1.351 . S
C1140 C1134 1.428 . S
C1140 N1139 1.351 . S
C1140 C1141 1.434 . S
C1141 C1132 1.429 . S
C1141 N1138 1.350 . S
C1141 C1140 1.434 . S
C1142 C1143 1.369 . S
C1142 C1144 1.419 . S
C1142 H1146 0.930 . S
C1143 C1142 1.369 . S
C1143 C1152 1.429 . S
C1144 C1142 1.419 . S
C1144 C1145 1.363 . S
C1144 H1147 0.929 . S
C1145 C1144 1.363 . S
C1145 C1151 1.428 . S
H1146 C1142 0.930 . S
H1147 C1144 0.929 . S
S1148 N1149 1.613 . S
S1148 N1150 1.610 . S
N1149 S1148 1.613 . S
N1149 C1152 1.350 . S
N1150 S1148 1.610 . S
N1150 C1151 1.351 . S
C1151 C1145 1.428 . S
C1151 N1150 1.351 . S
C1151 C1152 1.434 . S
C1152 C1143 1.429 . S
C1152 N1149 1.350 . S
C1152 C1151 1.434 . S
C1153 C1154 1.369 . S
C1153 C1155 1.419 . S
C1153 H1157 0.930 . S
C1154 C1153 1.369 . S
C1154 C1163 1.429 . S
C1155 C1153 1.419 . S
C1155 C1156 1.363 . S
C1155 H1158 0.929 . S
C1156 C1155 1.363 . S
C1156 C1162 1.428 . S
H1157 C1153 0.930 . S
H1158 C1155 0.929 . S
S1159 N1160 1.613 . S
S1159 N1161 1.610 . S
N1160 S1159 1.613 . S
N1160 C1163 1.350 . S
N1161 S1159 1.610 . S
N1161 C1162 1.351 . S
C1162 C1156 1.428 . S
C1162 N1161 1.351 . S
C1162 C1163 1.434 . S
C1163 C1154 1.429 . S
C1163 N1160 1.350 . S
C1163 C1162 1.434 . S
C1164 C1165 1.369 . S
C1164 C1166 1.419 . S
C1164 H1168 0.930 . S
C1165 C1164 1.369 . S
C1165 C1174 1.429 . S
C1166 C1164 1.419 . S
C1166 C1167 1.363 . S
C1166 H1169 0.929 . S
C1167 C1166 1.363 . S
C1167 C1173 1.428 . S
H1168 C1164 0.930 . S
H1169 C1166 0.929 . S
S1170 N1171 1.613 . S
S1170 N1172 1.610 . S
N1171 S1170 1.613 . S
N1171 C1174 1.350 . S
N1172 S1170 1.610 . S
N1172 C1173 1.351 . S
C1173 C1167 1.428 . S
C1173 N1172 1.351 . S
C1173 C1174 1.434 . S
C1174 C1165 1.429 . S
C1174 N1171 1.350 . S
C1174 C1173 1.434 . S
C1175 C1176 1.369 . S
C1175 C1177 1.419 . S
C1175 H1179 0.930 . S
C1176 C1175 1.369 . S
C1176 C1185 1.429 . S
C1177 C1175 1.419 . S
C1177 C1178 1.363 . S
C1177 H1180 0.929 . S
C1178 C1177 1.363 . S
C1178 C1184 1.428 . S
H1179 C1175 0.930 . S
H1180 C1177 0.929 . S
S1181 N1182 1.613 . S
S1181 N1183 1.610 . S
N1182 S1181 1.613 . S
N1182 C1185 1.350 . S
N1183 S1181 1.610 . S
N1183 C1184 1.351 . S
C1184 C1178 1.428 . S
C1184 N1183 1.351 . S
C1184 C1185 1.434 . S
C1185 C1176 1.429 . S
C1185 N1182 1.350 . S
C1185 C1184 1.434 . S
C1186 C1187 1.369 . S
C1186 C1188 1.419 . S
C1186 H1190 0.930 . S
C1187 C1186 1.369 . S
C1187 C1196 1.429 . S
C1188 C1186 1.419 . S
C1188 C1189 1.363 . S
C1188 H1191 0.929 . S
C1189 C1188 1.363 . S
C1189 C1195 1.428 . S
H1190 C1186 0.930 . S
H1191 C1188 0.929 . S
S1192 N1193 1.613 . S
S1192 N1194 1.610 . S
N1193 S1192 1.613 . S
N1193 C1196 1.350 . S
N1194 S1192 1.610 . S
N1194 C1195 1.351 . S
C1195 C1189 1.428 . S
C1195 N1194 1.351 . S
C1195 C1196 1.434 . S
C1196 C1187 1.429 . S
C1196 N1193 1.350 . S
C1196 C1195 1.434 . S
C1197 C1198 1.369 . S
C1197 C1199 1.419 . S
C1197 H1201 0.930 . S
C1198 C1197 1.369 . S
C1198 C1207 1.429 . S
C1199 C1197 1.419 . S
C1199 C1200 1.363 . S
C1199 H1202 0.929 . S
C1200 C1199 1.363 . S
C1200 C1206 1.428 . S
H1201 C1197 0.930 . S
H1202 C1199 0.929 . S
S1203 N1204 1.613 . S
S1203 N1205 1.610 . S
N1204 S1203 1.613 . S
N1204 C1207 1.350 . S
N1205 S1203 1.610 . S
N1205 C1206 1.351 . S
C1206 C1200 1.428 . S
C1206 N1205 1.351 . S
C1206 C1207 1.434 . S
C1207 C1198 1.429 . S
C1207 N1204 1.350 . S
C1207 C1206 1.434 . S
C1208 C1209 1.369 . S
C1208 C1210 1.419 . S
C1208 H1212 0.930 . S
C1209 C1208 1.369 . S
C1209 C1218 1.429 . S
C1210 C1208 1.419 . S
C1210 C1211 1.363 . S
C1210 H1213 0.929 . S
C1211 C1210 1.363 . S
C1211 C1217 1.428 . S
H1212 C1208 0.930 . S
H1213 C1210 0.929 . S
S1214 N1215 1.613 . S
S1214 N1216 1.610 . S
N1215 S1214 1.613 . S
N1215 C1218 1.350 . S
N1216 S1214 1.610 . S
N1216 C1217 1.351 . S
C1217 C1211 1.428 . S
C1217 N1216 1.351 . S
C1217 C1218 1.434 . S
C1218 C1209 1.429 . S
C1218 N1215 1.350 . S
C1218 C1217 1.434 . S
C1219 C1220 1.369 . S
C1219 C1221 1.419 . S
C1219 H1223 0.930 . S
C1220 C1219 1.369 . S
C1220 C1229 1.429 . S
C1221 C1219 1.419 . S
C1221 C1222 1.363 . S
C1221 H1224 0.929 . S
C1222 C1221 1.363 . S
C1222 C1228 1.428 . S
H1223 C1219 0.930 . S
H1224 C1221 0.929 . S
S1225 N1226 1.613 . S
S1225 N1227 1.610 . S
N1226 S1225 1.613 . S
N1226 C1229 1.350 . S
N1227 S1225 1.610 . S
N1227 C1228 1.351 . S
C1228 C1222 1.428 . S
C1228 N1227 1.351 . S
C1228 C1229 1.434 . S
C1229 C1220 1.429 . S
C1229 N1226 1.350 . S
C1229 C1228 1.434 . S
C1230 C1231 1.369 . S
C1230 C1232 1.419 . S
C1230 H1234 0.930 . S
C1231 C1230 1.369 . S
C1231 C1240 1.429 . S
C1232 C1230 1.419 . S
C1232 C1233 1.363 . S
C1232 H1235 0.929 . S
C1233 C1232 1.363 . S
C1233 C1239 1.428 . S
H1234 C1230 0.930 . S
H1235 C1232 0.929 . S
S1236 N1237 1.613 . S
S1236 N1238 1.610 . S
N1237 S1236 1.613 . S
N1237 C1240 1.350 . S
N1238 S1236 1.610 . S
N1238 C1239 1.351 . S
C1239 C1233 1.428 . S
C1239 N1238 1.351 . S
C1239 C1240 1.434 . S
C1240 C1231 1.429 . S
C1240 N1237 1.350 . S
C1240 C1239 1.434 . S
C1241 C1242 1.369 . S
C1241 C1243 1.419 1_556 S
C1241 H1245 0.930 . S
C1242 C1241 1.369 . S
C1242 C1251 1.429 . S
C1243 C1241 1.419 1_554 S
C1243 C1244 1.363 . S
C1243 H1246 0.929 . S
C1244 C1243 1.363 . S
C1244 C1250 1.428 . S
H1245 C1241 0.930 . S
H1246 C1243 0.929 . S
S1247 N1248 1.613 . S
S1247 N1249 1.610 1_556 S
N1248 S1247 1.613 . S
N1248 C1251 1.350 . S
N1249 S1247 1.610 1_554 S
N1249 C1250 1.351 . S
C1250 C1244 1.428 . S
C1250 N1249 1.351 . S
C1250 C1251 1.434 1_554 S
C1251 C1242 1.429 . S
C1251 N1248 1.350 . S
C1251 C1250 1.434 1_556 S
C1252 C1253 1.369 . S
C1252 C1254 1.419 1_554 S
C1252 H1256 0.930 . S
C1253 C1252 1.369 . S
C1253 C1262 1.429 . S
C1254 C1252 1.419 1_556 S
C1254 C1255 1.363 . S
C1254 H1257 0.929 . S
C1255 C1254 1.363 . S
C1255 C1261 1.428 . S
H1256 C1252 0.930 . S
H1257 C1254 0.929 . S
S1258 N1259 1.613 . S
S1258 N1260 1.610 1_554 S
N1259 S1258 1.613 . S
N1259 C1262 1.350 . S
N1260 S1258 1.610 1_556 S
N1260 C1261 1.351 . S
C1261 C1255 1.428 . S
C1261 N1260 1.351 . S
C1261 C1262 1.434 1_556 S
C1262 C1253 1.429 . S
C1262 N1259 1.350 . S
C1262 C1261 1.434 1_554 S
C1263 C1264 1.369 . S
C1263 C1265 1.419 . S
C1263 H1267 0.930 . S
C1264 C1263 1.369 . S
C1264 C1273 1.429 . S
C1265 C1263 1.419 . S
C1265 C1266 1.363 . S
C1265 H1268 0.929 . S
C1266 C1265 1.363 . S
C1266 C1272 1.428 . S
H1267 C1263 0.930 . S
H1268 C1265 0.929 . S
S1269 N1270 1.613 . S
S1269 N1271 1.610 . S
N1270 S1269 1.613 . S
N1270 C1273 1.350 . S
N1271 S1269 1.610 . S
N1271 C1272 1.351 . S
C1272 C1266 1.428 . S
C1272 N1271 1.351 . S
C1272 C1273 1.434 . S
C1273 C1264 1.429 . S
C1273 N1270 1.350 . S
C1273 C1272 1.434 . S
C1274 C1275 1.369 . S
C1274 C1276 1.419 . S
C1274 H1278 0.930 . S
C1275 C1274 1.369 . S
C1275 C1284 1.429 . S
C1276 C1274 1.419 . S
C1276 C1277 1.363 . S
C1276 H1279 0.929 . S
C1277 C1276 1.363 . S
C1277 C1283 1.428 . S
H1278 C1274 0.930 . S
H1279 C1276 0.929 . S
S1280 N1281 1.613 . S
S1280 N1282 1.610 . S
N1281 S1280 1.613 . S
N1281 C1284 1.350 . S
N1282 S1280 1.610 . S
N1282 C1283 1.351 . S
C1283 C1277 1.428 . S
C1283 N1282 1.351 . S
C1283 C1284 1.434 . S
C1284 C1275 1.429 . S
C1284 N1281 1.350 . S
C1284 C1283 1.434 . S
C1285 C1286 1.369 . S
C1285 C1287 1.419 . S
C1285 H1289 0.930 . S
C1286 C1285 1.369 . S
C1286 C1295 1.429 . S
C1287 C1285 1.419 . S
C1287 C1288 1.363 . S
C1287 H1290 0.929 . S
C1288 C1287 1.363 . S
C1288 C1294 1.428 . S
H1289 C1285 0.930 . S
H1290 C1287 0.929 . S
S1291 N1292 1.613 . S
S1291 N1293 1.610 . S
N1292 S1291 1.613 . S
N1292 C1295 1.350 . S
N1293 S1291 1.610 . S
N1293 C1294 1.351 . S
C1294 C1288 1.428 . S
C1294 N1293 1.351 . S
C1294 C1295 1.434 . S
C1295 C1286 1.429 . S
C1295 N1292 1.350 . S
C1295 C1294 1.434 . S
C945 C595 1.470 . S
C947 C5 1.469 . S
C956 C64 1.470 . S
C958 C654 1.473 . S
C967 C477 1.472 . S
C969 C123 1.472 . S
C978 C536 1.471 . S
C980 C182 1.473 . S
C989 C241 1.472 . S
C991 C831 1.470 . S
C1000 C890 1.471 . S
C1002 C300 1.470 . S
C1011 C359 1.474 . S
C1013 C713 1.471 . S
C1022 C772 1.470 . S
C1024 C418 1.472 . S
C1033 C642 1.665 . S
C1035 C52 1.668 . S
C1044 C111 1.667 . S
C1046 C701 1.666 . S
C1055 C170 1.665 . S
C1057 C524 1.667 . S
C1066 C229 1.669 . S
C1068 C583 1.667 . S
C1077 C288 1.665 . S
C1079 C878 1.667 . S
C1088 C347 1.667 . S
C1090 C937 1.668 . S
C1099 C760 1.669 . S
C1101 C406 1.667 . S
C1110 C819 1.668 . S
C1112 C465 1.667 . S
C1121 C3 1.463 . S
C1123 C357 1.465 . S
C1132 C62 1.463 . S
C1134 C416 1.463 . S
C1143 C121 1.464 . S
C1145 C239 1.463 . S
C1154 C180 1.463 . S
C1156 C298 1.465 . S
C1165 C475 1.463 . S
C1167 C829 1.462 . S
C1176 C888 1.463 . S
C1178 C534 1.465 . S
C1187 C593 1.462 . S
C1189 C711 1.463 . S
C1198 C770 1.463 . S
C1200 C652 1.466 . S
C1209 C33 1.335 . S
C1211 C918 1.334 . S
C1220 C741 1.334 . S
C1222 C92 1.334 . S
C1231 C800 1.337 . S
C1233 C151 1.338 . S
C1242 C859 1.338 . S
C1244 C210 1.335 . S
C1253 C564 1.338 . S
C1255 C269 1.338 . S
C1264 C623 1.333 . S
C1266 C328 1.335 . S
C1275 C387 1.339 . S
C1277 C682 1.337 . S
C1286 C446 1.337 . S
C1288 C505 1.334 . S
