# Generated by pormake.
# Topology upb, (4)-cn, num edge types: 1
# Building blocks:
#     Node 0, Type 0, BuildingBlock: TATPOV_clean_sbu_0, # of connection points: 4
#     Node 1, Type 0, BuildingBlock: TATPOV_clean_sbu_0, # of connection points: 4
#     Node 2, Type 0, BuildingBlock: TATPOV_clean_sbu_0, # of connection points: 4
#     Node 3, Type 0, BuildingBlock: TATPOV_clean_sbu_0, # of connection points: 4
#     Node 4, Type 0, BuildingBlock: TATPOV_clean_sbu_0, # of connection points: 4
#     Node 5, Type 0, BuildingBlock: TATPOV_clean_sbu_0, # of connection points: 4
#     Node 6, Type 0, BuildingBlock: TATPOV_clean_sbu_0, # of connection points: 4
#     Node 7, Type 0, BuildingBlock: TATPOV_clean_sbu_0, # of connection points: 4
#     Node 8, Type 0, BuildingBlock: TATPOV_clean_sbu_0, # of connection points: 4
#     Node 9, Type 0, BuildingBlock: TATPOV_clean_sbu_0, # of connection points: 4
#     Node 10, Type 0, BuildingBlock: TATPOV_clean_sbu_0, # of connection points: 4
#     Node 11, Type 0, BuildingBlock: TATPOV_clean_sbu_0, # of connection points: 4
#     Node 12, Type 0, BuildingBlock: TATPOV_clean_sbu_0, # of connection points: 4
#     Node 13, Type 0, BuildingBlock: TATPOV_clean_sbu_0, # of connection points: 4
#     Node 14, Type 0, BuildingBlock: TATPOV_clean_sbu_0, # of connection points: 4
#     Node 15, Type 0, BuildingBlock: TATPOV_clean_sbu_0, # of connection points: 4
#     Edge 16, Type (0, 0), BuildingBlock: MIFKUJ_clean_linker_0, # of connection points: 2
#     Edge 17, Type (0, 0), BuildingBlock: MIFKUJ_clean_linker_0, # of connection points: 2
#     Edge 18, Type (0, 0), BuildingBlock: MIFKUJ_clean_linker_0, # of connection points: 2
#     Edge 19, Type (0, 0), BuildingBlock: MIFKUJ_clean_linker_0, # of connection points: 2
#     Edge 20, Type (0, 0), BuildingBlock: MIFKUJ_clean_linker_0, # of connection points: 2
#     Edge 21, Type (0, 0), BuildingBlock: MIFKUJ_clean_linker_0, # of connection points: 2
#     Edge 22, Type (0, 0), BuildingBlock: MIFKUJ_clean_linker_0, # of connection points: 2
#     Edge 23, Type (0, 0), BuildingBlock: MIFKUJ_clean_linker_0, # of connection points: 2
#     Edge 24, Type (0, 0), BuildingBlock: MIFKUJ_clean_linker_0, # of connection points: 2
#     Edge 25, Type (0, 0), BuildingBlock: MIFKUJ_clean_linker_0, # of connection points: 2
#     Edge 26, Type (0, 0), BuildingBlock: MIFKUJ_clean_linker_0, # of connection points: 2
#     Edge 27, Type (0, 0), BuildingBlock: MIFKUJ_clean_linker_0, # of connection points: 2
#     Edge 28, Type (0, 0), BuildingBlock: MIFKUJ_clean_linker_0, # of connection points: 2
#     Edge 29, Type (0, 0), BuildingBlock: MIFKUJ_clean_linker_0, # of connection points: 2
#     Edge 30, Type (0, 0), BuildingBlock: MIFKUJ_clean_linker_0, # of connection points: 2
#     Edge 31, Type (0, 0), BuildingBlock: MIFKUJ_clean_linker_0, # of connection points: 2
#     Edge 32, Type (0, 0), BuildingBlock: MIFKUJ_clean_linker_0, # of connection points: 2
#     Edge 33, Type (0, 0), BuildingBlock: MIFKUJ_clean_linker_0, # of connection points: 2
#     Edge 34, Type (0, 0), BuildingBlock: MIFKUJ_clean_linker_0, # of connection points: 2
#     Edge 35, Type (0, 0), BuildingBlock: MIFKUJ_clean_linker_0, # of connection points: 2
#     Edge 36, Type (0, 0), BuildingBlock: MIFKUJ_clean_linker_0, # of connection points: 2
#     Edge 37, Type (0, 0), BuildingBlock: MIFKUJ_clean_linker_0, # of connection points: 2
#     Edge 38, Type (0, 0), BuildingBlock: MIFKUJ_clean_linker_0, # of connection points: 2
#     Edge 39, Type (0, 0), BuildingBlock: MIFKUJ_clean_linker_0, # of connection points: 2
#     Edge 40, Type (0, 0), BuildingBlock: MIFKUJ_clean_linker_0, # of connection points: 2
#     Edge 41, Type (0, 0), BuildingBlock: MIFKUJ_clean_linker_0, # of connection points: 2
#     Edge 42, Type (0, 0), BuildingBlock: MIFKUJ_clean_linker_0, # of connection points: 2
#     Edge 43, Type (0, 0), BuildingBlock: MIFKUJ_clean_linker_0, # of connection points: 2
#     Edge 44, Type (0, 0), BuildingBlock: MIFKUJ_clean_linker_0, # of connection points: 2
#     Edge 45, Type (0, 0), BuildingBlock: MIFKUJ_clean_linker_0, # of connection points: 2
#     Edge 46, Type (0, 0), BuildingBlock: MIFKUJ_clean_linker_0, # of connection points: 2
#     Edge 47, Type (0, 0), BuildingBlock: MIFKUJ_clean_linker_0, # of connection points: 2
# Relax obj value: 0.238
# Max RMSD: 0.113
# Mean RMSD: 0.113
data_MOF--net-upb--node1-TATPOV_clean_sbu_0--edge1-MIFKUJ_clean_linker_0
_symmetry_space_group_name_H-M    P1
_symmetry_Int_Tables_number       1
_symmetry_cell_setting            triclinic
loop_
_symmetry_equiv_pos_as_xyz
'x, y, z'
_cell_length_a     51.531228
_cell_length_b     51.518526
_cell_length_c     58.037969
_cell_angle_alpha  90.02361
_cell_angle_beta   89.999027
_cell_angle_gamma 89.998302
loop_
_atom_site_label
_atom_site_type_symbol
_atom_site_fract_x
_atom_site_fract_y
_atom_site_fract_z
_atom_type_partial_charge
Zn0 Zn 0.00764 0.21542 0.35184 0.0
Zn1 Zn 0.01833 0.25856 0.3292 0.0
O2 O 0.01536 0.27118 0.36291 0.0
O3 O 0.00888 0.23483 0.38194 0.0
O4 O 0.03013 0.29096 0.31282 0.0
O5 O 0.03894 0.19734 0.3399 0.0
O6 O 0.04938 0.23368 0.32225 0.0
C7 C 0.01208 0.25919 0.38189 0.0
C8 C 0.96854 0.22849 0.31852 0.0
O9 O 0.98294 0.24812 0.31448 0.0
O10 O 0.97487 0.21208 0.33372 0.0
C11 C 0.01744 0.30534 0.29905 0.0
O12 O 0.99326 0.29955 0.29406 0.0
C13 C 0.05434 0.21009 0.32729 0.0
Zn14 Zn 0.78189 0.02009 0.35756 0.0
Zn15 Zn 0.73763 0.02617 0.33498 0.0
O16 O 0.72552 0.02185 0.3687 0.0
O17 O 0.76228 0.01606 0.3873 0.0
O18 O 0.70422 0.03404 0.31849 0.0
O19 O 0.79438 0.05533 0.34849 0.0
O20 O 0.75885 0.05967 0.32788 0.0
C21 C 0.73778 0.01794 0.38745 0.0
C22 C 0.77327 0.98078 0.32297 0.0
O23 O 0.75157 0.99228 0.32034 0.0
O24 O 0.78974 0.98933 0.33728 0.0
C25 C 0.69158 0.01948 0.30482 0.0
O26 O 0.70019 0.99603 0.30027 0.0
C27 C 0.78056 0.0686 0.33488 0.0
Zn28 Zn 0.97324 0.79689 0.35779 0.0
Zn29 Zn 0.97334 0.75141 0.33748 0.0
O30 O 0.97265 0.74192 0.37223 0.0
O31 O 0.9695 0.7802 0.38884 0.0
O32 O 0.96948 0.71662 0.32202 0.0
O33 O 0.94234 0.80913 0.34047 0.0
O34 O 0.94059 0.77036 0.32457 0.0
C35 C 0.97049 0.75572 0.39038 0.0
C36 C 0.01919 0.78833 0.33077 0.0
O37 O 0.0087 0.76646 0.32624 0.0
O38 O 0.00802 0.80423 0.34411 0.0
C39 C 0.97062 0.71445 0.30023 0.0
O40 O 0.97674 0.73491 0.28786 0.0
C41 C 0.93148 0.79322 0.32699 0.0
Zn42 Zn 0.23629 0.98909 0.36689 0.0
Zn43 Zn 0.27426 0.98008 0.33895 0.0
O44 O 0.29177 0.97846 0.37114 0.0
O45 O 0.25759 0.97743 0.39385 0.0
O46 O 0.30293 0.96984 0.31735 0.0
O47 O 0.21275 0.96376 0.3508 0.0
O48 O 0.24747 0.95109 0.3319 0.0
C49 C 0.2819 0.97596 0.39115 0.0
C50 C 0.24898 0.03327 0.33929 0.0
O51 O 0.26308 0.01692 0.32857 0.0
O52 O 0.23696 0.02662 0.35737 0.0
C53 C 0.32661 0.97651 0.31893 0.0
O54 O 0.33375 0.99263 0.33529 0.0
C55 C 0.22358 0.94819 0.33695 0.0
Zn56 Zn 0.01439 0.79575 0.65594 0.0
Zn57 Zn 0.02056 0.7504 0.67416 0.0
O58 O 0.01338 0.74203 0.63966 0.0
O59 O 0.00329 0.78043 0.62578 0.0
O60 O 0.0282 0.71555 0.68875 0.0
O61 O 0.05107 0.80634 0.66118 0.0
O62 O 0.0546 0.77071 0.68172 0.0
C63 C 0.00565 0.75619 0.623 0.0
C64 C 0.97826 0.78649 0.69216 0.0
O65 O 0.98765 0.76361 0.69117 0.0
O66 O 0.9877 0.80437 0.6798 0.0
C67 C 0.03696 0.69646 0.67721 0.0
O68 O 0.04008 0.69893 0.65486 0.0
C69 C 0.06416 0.79208 0.67456 0.0
Zn70 Zn 0.2334 0.99687 0.64011 0.0
Zn71 Zn 0.27322 0.01255 0.66501 0.0
O72 O 0.28929 0.00597 0.63255 0.0
O73 O 0.2558 0.99192 0.61254 0.0
O74 O 0.30326 0.02777 0.68261 0.0
O75 O 0.21429 0.03039 0.64511 0.0
O76 O 0.24657 0.04266 0.66738 0.0
C77 C 0.27969 0.99731 0.61378 0.0
C78 C 0.2445 0.96294 0.67822 0.0
O79 O 0.26272 0.97896 0.68259 0.0
O80 O 0.22935 0.96662 0.66138 0.0
C81 C 0.32053 0.0159 0.69417 0.0
O82 O 0.31973 0.99047 0.69573 0.0
C83 C 0.22448 0.0471 0.65828 0.0
Zn84 Zn 0.97495 0.21692 0.62755 0.0
Zn85 Zn 0.97764 0.25676 0.65611 0.0
O86 O 0.9757 0.2732 0.62327 0.0
O87 O 0.96944 0.23976 0.60034 0.0
O88 O 0.97435 0.2874 0.67791 0.0
O89 O 0.94393 0.20195 0.64306 0.0
O90 O 0.94549 0.23535 0.66665 0.0
C91 C 0.97165 0.26399 0.60318 0.0
C92 C 0.02357 0.21991 0.65281 0.0
O93 O 0.0132 0.23938 0.66284 0.0
O94 O 0.01123 0.20773 0.63732 0.0
C95 C 0.97293 0.31096 0.67141 0.0
O96 O 0.97664 0.31661 0.6496 0.0
C97 C 0.93464 0.21444 0.65989 0.0
Zn98 Zn 0.77352 0.99237 0.63646 0.0
Zn99 Zn 0.73389 0.98443 0.66366 0.0
O100 O 0.71813 0.98332 0.63057 0.0
O101 O 0.75276 0.98418 0.60839 0.0
O102 O 0.70354 0.97568 0.68426 0.0
O103 O 0.7941 0.96401 0.65114 0.0
O104 O 0.75952 0.95454 0.67163 0.0
C105 C 0.72845 0.98222 0.61062 0.0
C106 C 0.76237 0.03625 0.66534 0.0
O107 O 0.74595 0.02086 0.67447 0.0
O108 O 0.77562 0.02904 0.64813 0.0
C109 C 0.67983 0.97783 0.67846 0.0
O110 O 0.67395 0.98763 0.65823 0.0
C111 C 0.78281 0.94955 0.66561 0.0
Zn112 Zn 0.5106 0.70588 0.84295 0.0
Zn113 Zn 0.51852 0.75094 0.82469 0.0
O114 O 0.51489 0.75961 0.85934 0.0
O115 O 0.50218 0.72213 0.87353 0.0
O116 O 0.52724 0.78576 0.81109 0.0
O117 O 0.54676 0.69398 0.83627 0.0
O118 O 0.55155 0.72973 0.81607 0.0
C119 C 0.50701 0.74601 0.8763 0.0
C120 C 0.47288 0.71739 0.80877 0.0
O121 O 0.48378 0.73961 0.80938 0.0
O122 O 0.48208 0.6988 0.82044 0.0
C123 C 0.51955 0.79439 0.79175 0.0
O124 O 0.50362 0.78037 0.77921 0.0
C125 C 0.56035 0.70796 0.82304 0.0
Zn126 Zn 0.27801 0.52084 0.86187 0.0
Zn127 Zn 0.23564 0.52513 0.83817 0.0
O128 O 0.22192 0.51796 0.87119 0.0
O129 O 0.25817 0.50917 0.88965 0.0
O130 O 0.20282 0.532 0.82034 0.0
O131 O 0.28766 0.55807 0.85755 0.0
O132 O 0.25519 0.56002 0.83311 0.0
C133 C 0.23367 0.51072 0.88941 0.0
C134 C 0.27612 0.48454 0.82476 0.0
O135 O 0.25297 0.49302 0.82272 0.0
O136 O 0.29128 0.49446 0.83947 0.0
C137 C 0.19834 0.52449 0.79986 0.0
O138 O 0.21547 0.50987 0.78925 0.0
C139 C 0.27488 0.57055 0.84261 0.0
Zn140 Zn 0.47906 0.28458 0.86807 0.0
Zn141 Zn 0.47701 0.24432 0.84127 0.0
O142 O 0.47199 0.22864 0.8739 0.0
O143 O 0.46652 0.26368 0.89501 0.0
O144 O 0.47195 0.21382 0.82006 0.0
O145 O 0.45408 0.30494 0.84882 0.0
O146 O 0.44765 0.26873 0.82959 0.0
C147 C 0.46689 0.2392 0.89324 0.0
C148 C 0.52781 0.27392 0.84619 0.0
O149 O 0.51455 0.25713 0.83512 0.0
O150 O 0.51728 0.28718 0.862 0.0
C151 C 0.47712 0.19028 0.82478 0.0
O152 O 0.48809 0.18461 0.84458 0.0
C153 C 0.44194 0.2924 0.83351 0.0
Zn154 Zn 0.72387 0.49408 0.85805 0.0
Zn155 Zn 0.76651 0.48383 0.83669 0.0
O156 O 0.77877 0.49114 0.87021 0.0
O157 O 0.74325 0.50746 0.88559 0.0
O158 O 0.79939 0.47217 0.82078 0.0
O159 O 0.71188 0.45711 0.85702 0.0
O160 O 0.74385 0.45081 0.83258 0.0
C161 C 0.76712 0.50204 0.887 0.0
C162 C 0.7308 0.52662 0.81895 0.0
O163 O 0.75347 0.51665 0.81909 0.0
O164 O 0.71369 0.51857 0.83284 0.0
C165 C 0.8051 0.47661 0.79984 0.0
O166 O 0.78968 0.49127 0.78738 0.0
C167 C 0.72362 0.44257 0.8429 0.0
Zn168 Zn 0.51571 0.28082 0.14686 0.0
Zn169 Zn 0.52232 0.23695 0.16867 0.0
O170 O 0.51451 0.22442 0.13545 0.0
O171 O 0.50418 0.2613 0.11866 0.0
O172 O 0.52968 0.20429 0.18657 0.0
O173 O 0.55287 0.29127 0.15098 0.0
O174 O 0.55706 0.25693 0.17311 0.0
C175 C 0.50638 0.23684 0.11789 0.0
C176 C 0.48031 0.27523 0.18428 0.0
O177 O 0.49019 0.25256 0.18518 0.0
O178 O 0.4891 0.29176 0.17017 0.0
C179 C 0.52437 0.18121 0.18037 0.0
O180 O 0.51221 0.17721 0.16079 0.0
C181 C 0.56653 0.2776 0.16442 0.0
Zn182 Zn 0.70906 0.51115 0.15923 0.0
Zn183 Zn 0.75624 0.51723 0.17622 0.0
O184 O 0.76321 0.51685 0.14107 0.0
O185 O 0.72392 0.51107 0.12714 0.0
O186 O 0.791 0.52505 0.19088 0.0
O187 O 0.69583 0.54359 0.17382 0.0
O188 O 0.73505 0.54898 0.18803 0.0
C189 C 0.74805 0.51395 0.1239 0.0
C190 C 0.724 0.46876 0.18804 0.0
O191 O 0.74554 0.48095 0.18925 0.0
O192 O 0.70529 0.47807 0.17663 0.0
C193 C 0.807 0.54027 0.18108 0.0
O194 O 0.80157 0.54921 0.16044 0.0
C195 C 0.71162 0.55658 0.18584 0.0
Zn196 Zn 0.50113 0.71356 0.14432 0.0
Zn197 Zn 0.48859 0.75662 0.16427 0.0
O198 O 0.4953 0.76848 0.13073 0.0
O199 O 0.51334 0.73322 0.11643 0.0
O200 O 0.47584 0.7889 0.18003 0.0
O201 O 0.46482 0.69955 0.14597 0.0
O202 O 0.45657 0.7327 0.16864 0.0
C203 C 0.50684 0.75678 0.11431 0.0
C204 C 0.53295 0.72384 0.18326 0.0
O205 O 0.52169 0.74586 0.18239 0.0
O206 O 0.52611 0.70575 0.16983 0.0
C207 C 0.48926 0.80671 0.18939 0.0
O208 O 0.5147 0.80521 0.18905 0.0
C209 C 0.44948 0.71143 0.15934 0.0
Zn210 Zn 0.28625 0.4695 0.13886 0.0
Zn211 Zn 0.2444 0.46889 0.16515 0.0
O212 O 0.22914 0.4695 0.13206 0.0
O213 O 0.26426 0.47028 0.11045 0.0
O214 O 0.21297 0.46455 0.1855 0.0
O215 O 0.29856 0.43534 0.1504 0.0
O216 O 0.26532 0.4357 0.17415 0.0
C217 C 0.23979 0.46995 0.11224 0.0
C218 C 0.28292 0.51357 0.16945 0.0
O219 O 0.26108 0.50376 0.17502 0.0
O220 O 0.29736 0.50227 0.15491 0.0
C221 C 0.18985 0.47064 0.18006 0.0
O222 O 0.18548 0.48233 0.16032 0.0
C223 C 0.28582 0.42481 0.16648 0.0
H224 H 0.10277 0.23114 0.32028 0.0
H225 H 0.14334 0.20681 0.31424 0.0
H226 H 0.09956 0.13559 0.30968 0.0
H227 H 0.05951 0.1595 0.3163 0.0
H228 H 0.13453 0.13283 0.34245 0.0
H229 H 0.13223 0.16043 0.26337 0.0
H230 H 0.13061 0.19222 0.23166 0.0
H231 H 0.20239 0.22568 0.25467 0.0
H232 H 0.20426 0.1943 0.28674 0.0
H233 H 0.23329 0.04553 0.29585 0.0
H234 H 0.20837 0.08449 0.28578 0.0
H235 H 0.22699 0.11804 0.35181 0.0
H236 H 0.25095 0.07886 0.3622 0.0
H237 H 0.20716 0.14194 0.28684 0.0
H238 H 0.17089 0.12535 0.37857 0.0
H239 H 0.1716 0.09131 0.40852 0.0
H240 H 0.17282 0.03236 0.3562 0.0
H241 H 0.17168 0.06604 0.326 0.0
C242 C 0.10188 0.21038 0.31742 0.0
C243 C 0.07814 0.19709 0.31911 0.0
C244 C 0.12501 0.19652 0.31393 0.0
C245 C 0.12448 0.16934 0.31172 0.0
C246 C 0.10048 0.1565 0.31158 0.0
C247 C 0.0776 0.17018 0.31539 0.0
C248 C 0.14859 0.15361 0.3127 0.0
C249 C 0.15035 0.13498 0.33024 0.0
C250 C 0.16933 0.15633 0.29686 0.0
C251 C 0.16823 0.1752 0.27761 0.0
C252 C 0.14755 0.17472 0.2618 0.0
C253 C 0.14661 0.19263 0.24373 0.0
C254 C 0.16634 0.21101 0.24119 0.0
C255 C 0.18709 0.21146 0.25668 0.0
C256 C 0.18811 0.19361 0.2748 0.0
C257 C 0.23314 0.0618 0.30768 0.0
C258 C 0.24366 0.05922 0.32988 0.0
C259 C 0.21896 0.08407 0.3019 0.0
C260 C 0.21547 0.1039 0.31824 0.0
C261 C 0.22931 0.10286 0.33905 0.0
C262 C 0.24296 0.08047 0.34499 0.0
C263 C 0.19271 0.12135 0.31646 0.0
C264 C 0.19129 0.14016 0.29901 0.0
C265 C 0.17181 0.11861 0.33207 0.0
C266 C 0.17148 0.09819 0.35009 0.0
C267 C 0.17115 0.10511 0.3735 0.0
C268 C 0.17165 0.08589 0.3905 0.0
C269 C 0.17234 0.05969 0.38426 0.0
C270 C 0.17235 0.05265 0.36101 0.0
C271 C 0.17178 0.07179 0.34395 0.0
H272 H 0.17282 0.04485 0.39745 0.0
H273 H 0.16558 0.22486 0.22719 0.0
H274 H 0.95398 0.18382 0.2987 0.0
H275 H 0.91027 0.17116 0.28812 0.0
H276 H 0.88359 0.24941 0.30048 0.0
H277 H 0.92803 0.26212 0.31132 0.0
H278 H 0.85724 0.21768 0.32553 0.0
H279 H 0.87167 0.21962 0.24687 0.0
H280 H 0.89445 0.21534 0.20974 0.0
H281 H 0.89734 0.13261 0.21811 0.0
H282 H 0.87498 0.13633 0.25545 0.0
H283 H 0.76419 0.09842 0.29812 0.0
H284 H 0.78321 0.13965 0.28481 0.0
H285 H 0.83762 0.1374 0.34127 0.0
H286 H 0.81896 0.0969 0.35453 0.0
H287 H 0.83241 0.14851 0.27028 0.0
H288 H 0.8508 0.19382 0.36183 0.0
H289 H 0.82648 0.19946 0.39803 0.0
H290 H 0.75452 0.192 0.36136 0.0
H291 H 0.77835 0.18673 0.32484 0.0
C292 C 0.939 0.19858 0.29826 0.0
C293 C 0.94424 0.22387 0.30585 0.0
C294 C 0.91395 0.19139 0.29201 0.0
C295 C 0.89347 0.20933 0.29331 0.0
C296 C 0.89908 0.23526 0.29918 0.0
C297 C 0.92443 0.24256 0.30526 0.0
C298 C 0.86642 0.19923 0.29321 0.0
C299 C 0.85146 0.203 0.31315 0.0
C300 C 0.85806 0.1809 0.27659 0.0
C301 C 0.87149 0.17829 0.25402 0.0
C302 C 0.87724 0.2005 0.24087 0.0
C303 C 0.8901 0.19817 0.21975 0.0
C304 C 0.8973 0.17372 0.21155 0.0
C305 C 0.89166 0.15154 0.22445 0.0
C306 C 0.87881 0.15375 0.24557 0.0
C307 C 0.77997 0.10701 0.30782 0.0
C308 C 0.79014 0.09434 0.32732 0.0
C309 C 0.7908 0.1305 0.3002 0.0
C310 C 0.81157 0.14184 0.31225 0.0
C311 C 0.82124 0.1294 0.33195 0.0
C312 C 0.81068 0.10602 0.3394 0.0
C313 C 0.82524 0.16528 0.30363 0.0
C314 C 0.83754 0.16399 0.2821 0.0
C315 C 0.83084 0.18627 0.31856 0.0
C316 C 0.81642 0.18993 0.34052 0.0
C317 C 0.82979 0.19366 0.3614 0.0
C318 C 0.81608 0.19671 0.38202 0.0
C319 C 0.78898 0.1961 0.382 0.0
C320 C 0.77552 0.19245 0.36136 0.0
C321 C 0.78912 0.1894 0.34069 0.0
H322 H 0.77841 0.19843 0.39798 0.0
H323 H 0.90727 0.17196 0.19521 0.0
H324 H 0.74087 0.94049 0.31148 0.0
H325 H 0.75433 0.89738 0.29745 0.0
H326 H 0.83329 0.92458 0.29204 0.0
H327 H 0.82011 0.96703 0.30628 0.0
H328 H 0.81965 0.88937 0.25662 0.0
H329 H 0.81271 0.89907 0.34221 0.0
H330 H 0.78637 0.90649 0.37713 0.0
H331 H 0.73581 0.84383 0.35792 0.0
H332 H 0.76177 0.83626 0.32276 0.0
H333 H 0.92627 0.83952 0.30638 0.0
H334 H 0.88707 0.85859 0.29053 0.0
H335 H 0.84561 0.78709 0.3027 0.0
H336 H 0.88561 0.76757 0.31846 0.0
H337 H 0.82257 0.82911 0.32321 0.0
H338 H 0.84675 0.80902 0.24795 0.0
H339 H 0.87541 0.80208 0.21453 0.0
H340 H 0.89405 0.88328 0.21333 0.0
H341 H 0.86588 0.89071 0.24697 0.0
C342 C 0.76092 0.93735 0.30662 0.0
C343 C 0.77955 0.95688 0.31015 0.0
C344 C 0.76857 0.91279 0.29864 0.0
C345 C 0.79483 0.90778 0.29378 0.0
C346 C 0.81292 0.92803 0.29554 0.0
C347 C 0.80542 0.95223 0.30384 0.0
C348 C 0.80487 0.88108 0.29047 0.0
C349 C 0.81998 0.87581 0.27091 0.0
C350 C 0.80434 0.86287 0.3087 0.0
C351 C 0.78892 0.86731 0.32982 0.0
C352 C 0.79589 0.88699 0.34542 0.0
C353 C 0.78105 0.89121 0.36523 0.0
C354 C 0.75938 0.87569 0.36971 0.0
C355 C 0.75255 0.85588 0.3544 0.0
C356 C 0.7673 0.85162 0.33453 0.0
C357 C 0.909 0.8276 0.30511 0.0
C358 C 0.90883 0.8022 0.31374 0.0
C359 C 0.88662 0.83843 0.29583 0.0
C360 C 0.8634 0.82421 0.29517 0.0
C361 C 0.86339 0.7983 0.30282 0.0
C362 C 0.88616 0.78719 0.31177 0.0
C363 C 0.83902 0.83842 0.29008 0.0
C364 C 0.82119 0.8415 0.30815 0.0
C365 C 0.83706 0.85455 0.27042 0.0
C366 C 0.85402 0.85042 0.25 0.0
C367 C 0.85702 0.8254 0.24064 0.0
C368 C 0.8732 0.82138 0.22163 0.0
C369 C 0.8865 0.84223 0.21179 0.0
C370 C 0.88366 0.86716 0.22093 0.0
C371 C 0.8675 0.8713 0.23994 0.0
H372 H 0.89904 0.83907 0.19709 0.0
H373 H 0.74792 0.87898 0.38506 0.0
H374 H 0.03185 0.83658 0.31741 0.0
H375 H 0.07409 0.8528 0.30602 0.0
H376 H 0.10552 0.77524 0.30949 0.0
H377 H 0.06248 0.75868 0.32107 0.0
H378 H 0.13403 0.80949 0.33448 0.0
H379 H 0.10667 0.80628 0.25778 0.0
H380 H 0.07727 0.80988 0.22445 0.0
H381 H 0.07231 0.89231 0.2344 0.0
H382 H 0.10133 0.88922 0.26801 0.0
H383 H 0.24096 0.90059 0.32223 0.0
H384 H 0.21425 0.86354 0.3097 0.0
H385 H 0.14534 0.91036 0.31686 0.0
H386 H 0.17162 0.94695 0.32979 0.0
H387 H 0.14725 0.87803 0.2756 0.0
H388 H 0.1615 0.87447 0.36003 0.0
H389 H 0.19025 0.87051 0.39385 0.0
H390 H 0.2206 0.79885 0.3673 0.0
H391 H 0.19221 0.8026 0.33317 0.0
C392 C 0.04759 0.82282 0.3153 0.0
C393 C 0.04397 0.79641 0.32025 0.0
C394 C 0.07174 0.8321 0.30856 0.0
C395 C 0.09299 0.81523 0.3066 0.0
C396 C 0.08931 0.78855 0.31068 0.0
C397 C 0.06479 0.77912 0.31721 0.0
C398 C 0.11917 0.8267 0.30329 0.0
C399 C 0.13741 0.82376 0.32106 0.0
C400 C 0.12372 0.84531 0.2858 0.0
C401 C 0.10629 0.84749 0.26546 0.0
C402 C 0.09923 0.82518 0.25295 0.0
C403 C 0.08262 0.82713 0.23399 0.0
C404 C 0.07294 0.85131 0.2273 0.0
C405 C 0.07987 0.8736 0.23956 0.0
C406 C 0.09647 0.87176 0.25855 0.0
C407 C 0.22015 0.903 0.3208 0.0
C408 C 0.20831 0.92656 0.32714 0.0
C409 C 0.20497 0.88187 0.31365 0.0
C410 C 0.17787 0.88429 0.31232 0.0
C411 C 0.16624 0.90816 0.31763 0.0
C412 C 0.18126 0.92899 0.32518 0.0
C413 C 0.1609 0.86175 0.30747 0.0
C414 C 0.14446 0.86279 0.28825 0.0
C415 C 0.15814 0.84123 0.32345 0.0
C416 C 0.17505 0.83899 0.34396 0.0
C417 C 0.17447 0.85799 0.36134 0.0
C418 C 0.19066 0.85577 0.38056 0.0
C419 C 0.20731 0.83449 0.38268 0.0
C420 C 0.20775 0.81535 0.3656 0.0
C421 C 0.19162 0.81752 0.34632 0.0
H422 H 0.21982 0.83279 0.39758 0.0
H423 H 0.06007 0.85278 0.21262 0.0
H424 H 0.09291 0.77529 0.71184 0.0
H425 H 0.13174 0.79645 0.72808 0.0
H426 H 0.13109 0.85161 0.67224 0.0
H427 H 0.09284 0.83094 0.65608 0.0
H428 H 0.18364 0.81134 0.70775 0.0
H429 H 0.13008 0.90983 0.69673 0.0
H430 H 0.08536 0.92651 0.69962 0.0
H431 H 0.06591 0.86532 0.74676 0.0
H432 H 0.11063 0.84851 0.74446 0.0
H433 H 0.24718 0.91433 0.66214 0.0
H434 H 0.22651 0.8765 0.67896 0.0
H435 H 0.21074 0.92002 0.74102 0.0
H436 H 0.23142 0.95837 0.72372 0.0
H437 H 0.16808 0.90462 0.72395 0.0
H438 H 0.24221 0.85866 0.74357 0.0
H439 H 0.28676 0.84147 0.74133 0.0
H440 H 0.26644 0.79729 0.68126 0.0
H441 H 0.22188 0.81449 0.68285 0.0
C442 C 0.10139 0.79163 0.70285 0.0
C443 C 0.0896 0.80167 0.68285 0.0
C444 C 0.12351 0.80367 0.71215 0.0
C445 C 0.13392 0.82581 0.70153 0.0
C446 C 0.12308 0.83476 0.68086 0.0
C447 C 0.10118 0.82289 0.67165 0.0
C448 C 0.15499 0.84123 0.71218 0.0
C449 C 0.18044 0.83165 0.71174 0.0
C450 C 0.15051 0.86737 0.71843 0.0
C451 C 0.12376 0.8779 0.72042 0.0
C452 C 0.11636 0.90008 0.70791 0.0
C453 C 0.09098 0.90952 0.70939 0.0
C454 C 0.0728 0.89698 0.72336 0.0
C455 C 0.07999 0.875 0.73592 0.0
C456 C 0.10535 0.8655 0.73453 0.0
C457 C 0.24043 0.91542 0.67981 0.0
C458 C 0.24083 0.9391 0.69169 0.0
C459 C 0.22871 0.89368 0.68955 0.0
C460 C 0.21701 0.89522 0.71137 0.0
C461 C 0.21971 0.91828 0.72421 0.0
C462 C 0.23163 0.94014 0.71441 0.0
C463 C 0.19721 0.8754 0.71761 0.0
C464 C 0.1717 0.88413 0.7211 0.0
C465 C 0.20176 0.84846 0.71458 0.0
C466 C 0.22858 0.83788 0.71339 0.0
C467 C 0.24724 0.84538 0.72979 0.0
C468 C 0.27252 0.83562 0.72864 0.0
C469 C 0.27942 0.81828 0.71118 0.0
C470 C 0.26104 0.81067 0.69482 0.0
C471 C 0.23573 0.82036 0.69588 0.0
H472 H 0.299 0.81076 0.71031 0.0
H473 H 0.05315 0.90429 0.72444 0.0
H474 H 0.18848 0.06987 0.63091 0.0
H475 H 0.16379 0.10935 0.63824 0.0
H476 H 0.20333 0.11943 0.7031 0.0
H477 H 0.22884 0.07983 0.69559 0.0
H478 H 0.14497 0.12203 0.70332 0.0
H479 H 0.2179 0.16222 0.66911 0.0
H480 H 0.25365 0.16755 0.6413 0.0
H481 H 0.19869 0.17505 0.58611 0.0
H482 H 0.16259 0.16935 0.61351 0.0
H483 H 0.0514 0.22675 0.6931 0.0
H484 H 0.09415 0.20788 0.70234 0.0
H485 H 0.09794 0.17465 0.63417 0.0
H486 H 0.0559 0.19311 0.62499 0.0
H487 H 0.14465 0.19477 0.64733 0.0
H488 H 0.07533 0.13966 0.67974 0.0
H489 H 0.03868 0.13179 0.7062 0.0
H490 H 0.08687 0.15152 0.76399 0.0
H491 H 0.12373 0.15977 0.73778 0.0
C492 C 0.19211 0.08051 0.64669 0.0
C493 C 0.21056 0.07172 0.6627 0.0
C494 C 0.17805 0.10314 0.65081 0.0
C495 C 0.18186 0.11734 0.67114 0.0
C496 C 0.20025 0.10875 0.68726 0.0
C497 C 0.2148 0.08623 0.68292 0.0
C498 C 0.1654 0.14041 0.67538 0.0
C499 C 0.14537 0.13847 0.69165 0.0
C500 C 0.1659 0.16172 0.66006 0.0
C501 C 0.18751 0.16531 0.64341 0.0
C502 C 0.21342 0.16484 0.65102 0.0
C503 C 0.23376 0.16795 0.63533 0.0
C504 C 0.22845 0.17163 0.61195 0.0
C505 C 0.20278 0.17223 0.60423 0.0
C506 C 0.18236 0.16911 0.61985 0.0
C507 C 0.06162 0.21571 0.68007 0.0
C508 C 0.05019 0.21117 0.65842 0.0
C509 C 0.08596 0.20493 0.68536 0.0
C510 C 0.09919 0.1898 0.66894 0.0
C511 C 0.08819 0.18634 0.64707 0.0
C512 C 0.064 0.19675 0.64192 0.0
C513 C 0.12347 0.17557 0.67438 0.0
C514 C 0.14493 0.17909 0.6598 0.0
C515 C 0.1242 0.15566 0.69116 0.0
C516 C 0.10211 0.15066 0.70683 0.0
C517 C 0.07802 0.1425 0.69808 0.0
C518 C 0.05724 0.13794 0.71302 0.0
C519 C 0.06042 0.14125 0.73675 0.0
C520 C 0.08442 0.14904 0.7456 0.0
C521 C 0.10525 0.15366 0.73071 0.0
H522 H 0.04431 0.1377 0.7483 0.0
H523 H 0.24422 0.17403 0.59983 0.0
H524 H 0.89595 0.18858 0.63878 0.0
H525 H 0.85717 0.16991 0.65595 0.0
H526 H 0.87989 0.19911 0.72261 0.0
H527 H 0.91896 0.21882 0.70515 0.0
H528 H 0.86756 0.14049 0.71625 0.0
H529 H 0.82949 0.22284 0.71086 0.0
H530 H 0.82061 0.26575 0.69388 0.0
H531 H 0.78373 0.22946 0.63588 0.0
H532 H 0.79282 0.18629 0.65225 0.0
H533 H 0.76217 0.05152 0.71075 0.0
H534 H 0.78023 0.0923 0.72607 0.0
H535 H 0.79232 0.11969 0.65663 0.0
H536 H 0.77464 0.07941 0.64149 0.0
H537 H 0.77967 0.15986 0.6859 0.0
H538 H 0.83924 0.08315 0.68406 0.0
H539 H 0.85137 0.03932 0.69749 0.0
H540 H 0.84879 0.06556 0.76771 0.0
H541 H 0.83641 0.10949 0.75462 0.0
C542 C 0.89264 0.19131 0.65706 0.0
C543 C 0.91052 0.20498 0.67068 0.0
C544 C 0.87039 0.18077 0.66682 0.0
C545 C 0.86565 0.18328 0.69049 0.0
C546 C 0.88322 0.19718 0.70427 0.0
C547 C 0.9054 0.20837 0.69431 0.0
C548 C 0.84319 0.16919 0.7002 0.0
C549 C 0.84801 0.14516 0.71066 0.0
C550 C 0.81781 0.17533 0.6928 0.0
C551 C 0.81178 0.20124 0.68288 0.0
C552 C 0.81957 0.22397 0.69444 0.0
C553 C 0.8145 0.24836 0.68491 0.0
C554 C 0.80157 0.25033 0.66383 0.0
C555 C 0.79367 0.2279 0.65225 0.0
C556 C 0.79873 0.20345 0.66168 0.0
C557 C 0.76794 0.06667 0.69887 0.0
C558 C 0.76736 0.06229 0.67496 0.0
C559 C 0.77827 0.08989 0.70761 0.0
C560 C 0.78781 0.10896 0.69248 0.0
C561 C 0.78501 0.10536 0.66865 0.0
C562 C 0.77508 0.08222 0.65999 0.0
C563 C 0.80457 0.1306 0.70046 0.0
C564 C 0.79869 0.15589 0.69308 0.0
C565 C 0.82905 0.12564 0.71061 0.0
C566 C 0.83666 0.0994 0.71842 0.0
C567 C 0.84118 0.07949 0.70236 0.0
C568 C 0.84809 0.05466 0.7099 0.0
C569 C 0.85077 0.04964 0.73344 0.0
C570 C 0.84663 0.06947 0.74948 0.0
C571 C 0.83966 0.09431 0.74202 0.0
H572 H 0.85612 0.03041 0.73925 0.0
H573 H 0.79769 0.26923 0.65647 0.0
H574 H 0.76682 0.91439 0.69865 0.0
H575 H 0.79085 0.87616 0.71258 0.0
H576 H 0.85412 0.89501 0.6669 0.0
H577 H 0.83064 0.93265 0.65303 0.0
H578 H 0.84137 0.84388 0.66455 0.0
H579 H 0.85674 0.91074 0.72317 0.0
H580 H 0.84251 0.94098 0.75363 0.0
H581 H 0.80942 0.87752 0.79155 0.0
H582 H 0.82324 0.84696 0.76113 0.0
H583 H 0.9669 0.83078 0.71491 0.0
H584 H 0.92343 0.84697 0.72266 0.0
H585 H 0.89141 0.77219 0.70499 0.0
H586 H 0.93525 0.75586 0.69708 0.0
H587 H 0.87654 0.83962 0.74405 0.0
H588 H 0.84653 0.7843 0.66424 0.0
H589 H 0.86578 0.75891 0.6324 0.0
H590 H 0.93432 0.80627 0.63486 0.0
H591 H 0.91528 0.83211 0.66645 0.0
C592 C 0.78585 0.9103 0.69161 0.0
C593 C 0.79679 0.9266 0.67471 0.0
C594 C 0.79951 0.88849 0.69957 0.0
C595 C 0.82418 0.88268 0.69064 0.0
C596 C 0.83499 0.89895 0.67384 0.0
C597 C 0.82155 0.92062 0.66602 0.0
C598 C 0.83962 0.86017 0.69871 0.0
C599 C 0.84848 0.84246 0.68211 0.0
C600 C 0.84895 0.85831 0.72158 0.0
C601 C 0.84067 0.87666 0.73977 0.0
C602 C 0.84623 0.90329 0.73791 0.0
C603 C 0.83829 0.92047 0.75518 0.0
C604 C 0.82498 0.91119 0.77447 0.0
C605 C 0.81966 0.88469 0.77657 0.0
C606 C 0.82754 0.86744 0.75933 0.0
C607 C 0.95069 0.81743 0.7137 0.0
C608 C 0.95429 0.79227 0.70499 0.0
C609 C 0.92582 0.82666 0.71828 0.0
C610 C 0.90412 0.81097 0.71391 0.0
C611 C 0.90791 0.78468 0.70828 0.0
C612 C 0.93296 0.77533 0.70383 0.0
C613 C 0.87891 0.82401 0.70966 0.0
C614 C 0.86827 0.83999 0.72686 0.0
C615 C 0.86832 0.82483 0.68715 0.0
C616 C 0.87963 0.80985 0.66782 0.0
C617 C 0.86566 0.7893 0.6579 0.0
C618 C 0.87653 0.77485 0.63991 0.0
C619 C 0.90129 0.78092 0.63167 0.0
C620 C 0.91517 0.80155 0.64128 0.0
C621 C 0.90434 0.81611 0.6592 0.0
H622 H 0.9097 0.76966 0.61779 0.0
H623 H 0.81885 0.92452 0.78783 0.0
H624 H 0.58916 0.67112 0.84428 0.0
H625 H 0.63037 0.6529 0.83214 0.0
H626 H 0.63204 0.7046 0.77371 0.0
H627 H 0.59023 0.72333 0.786 0.0
H628 H 0.64186 0.65321 0.76188 0.0
H629 H 0.67781 0.71381 0.81233 0.0
H630 H 0.68185 0.74094 0.84713 0.0
H631 H 0.6922 0.67273 0.88859 0.0
H632 H 0.68781 0.64512 0.85414 0.0
H633 H 0.76136 0.56851 0.80818 0.0
H634 H 0.74554 0.61078 0.7944 0.0
H635 H 0.66923 0.57788 0.7849 0.0
H636 H 0.68492 0.53617 0.79835 0.0
H637 H 0.71232 0.63684 0.81826 0.0
H638 H 0.63169 0.60864 0.75045 0.0
H639 H 0.62879 0.58285 0.71481 0.0
H640 H 0.71114 0.58939 0.70524 0.0
H641 H 0.71456 0.6156 0.74063 0.0
C642 C 0.5983 0.67888 0.82894 0.0
C643 C 0.58634 0.69859 0.81603 0.0
C644 C 0.62203 0.66856 0.82212 0.0
C645 C 0.63447 0.6776 0.80218 0.0
C646 C 0.62284 0.69752 0.78927 0.0
C647 C 0.59903 0.70818 0.79631 0.0
C648 C 0.65844 0.66423 0.79445 0.0
C649 C 0.65762 0.6499 0.77391 0.0
C650 C 0.67964 0.66094 0.80964 0.0
C651 C 0.68255 0.67737 0.83055 0.0
C652 C 0.68085 0.70456 0.82887 0.0
C653 C 0.6832 0.72004 0.84855 0.0
C654 C 0.68731 0.70857 0.87005 0.0
C655 C 0.68909 0.68159 0.87191 0.0
C656 C 0.68674 0.66602 0.85229 0.0
C657 C 0.74154 0.57015 0.80214 0.0
C658 C 0.72426 0.54922 0.80446 0.0
C659 C 0.73247 0.59431 0.79438 0.0
C660 C 0.70617 0.59763 0.78851 0.0
C661 C 0.68968 0.57592 0.78882 0.0
C662 C 0.69862 0.55203 0.79673 0.0
C663 C 0.69431 0.62389 0.78676 0.0
C664 C 0.69735 0.64075 0.8056 0.0
C665 C 0.67546 0.62975 0.76977 0.0
C666 C 0.67338 0.61419 0.74826 0.0
C667 C 0.64918 0.60485 0.74065 0.0
C668 C 0.64745 0.59006 0.72051 0.0
C669 C 0.66976 0.58449 0.70777 0.0
C670 C 0.69387 0.59369 0.71514 0.0
C671 C 0.69572 0.60849 0.73527 0.0
H672 H 0.66838 0.57302 0.69218 0.0
H673 H 0.68911 0.72058 0.88527 0.0
H674 H 0.43407 0.75296 0.80103 0.0
H675 H 0.38831 0.74228 0.79397 0.0
H676 H 0.40911 0.66174 0.78504 0.0
H677 H 0.45438 0.67237 0.79142 0.0
H678 H 0.36651 0.67081 0.76174 0.0
H679 H 0.3989 0.68962 0.84062 0.0
H680 H 0.4174 0.71935 0.86968 0.0
H681 H 0.35494 0.77302 0.85821 0.0
H682 H 0.33626 0.74365 0.8289 0.0
H683 H 0.31391 0.59854 0.86182 0.0
H684 H 0.33493 0.6368 0.84649 0.0
H685 H 0.27879 0.64022 0.79136 0.0
H686 H 0.2579 0.60084 0.80639 0.0
H687 H 0.32509 0.68498 0.83785 0.0
H688 H 0.31069 0.66285 0.74383 0.0
H689 H 0.29738 0.62714 0.71797 0.0
H690 H 0.33072 0.57151 0.76446 0.0
H691 H 0.34434 0.60694 0.79046 0.0
C692 C 0.42893 0.73322 0.79651 0.0
C693 C 0.44762 0.71335 0.79729 0.0
C694 C 0.40276 0.7271 0.7926 0.0
C695 C 0.39514 0.70108 0.78962 0.0
C696 C 0.41435 0.68193 0.78744 0.0
C697 C 0.44031 0.688 0.79127 0.0
C698 C 0.36795 0.69244 0.7935 0.0
C699 C 0.35697 0.67449 0.77809 0.0
C700 C 0.35536 0.69715 0.8148 0.0
C701 C 0.3664 0.71467 0.83246 0.0
C702 C 0.3892 0.70782 0.84428 0.0
C703 C 0.39971 0.72458 0.86076 0.0
C704 C 0.38739 0.7481 0.86574 0.0
C705 C 0.36449 0.75484 0.85429 0.0
C706 C 0.35395 0.73817 0.83773 0.0
C707 C 0.30571 0.60751 0.84659 0.0
C708 C 0.28447 0.59632 0.83512 0.0
C709 C 0.31767 0.62964 0.83791 0.0
C710 C 0.30868 0.64134 0.81758 0.0
C711 C 0.28631 0.63135 0.80689 0.0
C712 C 0.27434 0.6089 0.81555 0.0
C713 C 0.32491 0.66194 0.80686 0.0
C714 C 0.33362 0.68236 0.82091 0.0
C715 C 0.33597 0.65881 0.78469 0.0
C716 C 0.32822 0.63745 0.76913 0.0
C717 C 0.31518 0.64298 0.74846 0.0
C718 C 0.30759 0.62281 0.73381 0.0
C719 C 0.31312 0.59707 0.73961 0.0
C720 C 0.32637 0.59145 0.76002 0.0
C721 C 0.33403 0.61155 0.77471 0.0
H722 H 0.30719 0.58148 0.72827 0.0
H723 H 0.39554 0.76106 0.87851 0.0
H724 H 0.24866 0.44213 0.80936 0.0
H725 H 0.26744 0.40104 0.7955 0.0
H726 H 0.34374 0.43556 0.79704 0.0
H727 H 0.32523 0.47615 0.81059 0.0
H728 H 0.34032 0.40113 0.7623 0.0
H729 H 0.31739 0.40509 0.84512 0.0
H730 H 0.2855 0.40876 0.8767 0.0
H731 H 0.24376 0.34322 0.84988 0.0
H732 H 0.27531 0.33938 0.818 0.0
H733 H 0.4393 0.34332 0.82254 0.0
H734 H 0.40277 0.36672 0.80588 0.0
H735 H 0.35992 0.29512 0.79981 0.0
H736 H 0.39706 0.27127 0.81618 0.0
H737 H 0.33413 0.33548 0.82456 0.0
H738 H 0.37189 0.32376 0.75146 0.0
H739 H 0.40689 0.32138 0.72259 0.0
H740 H 0.42327 0.40234 0.73238 0.0
H741 H 0.38866 0.40517 0.76158 0.0
C742 C 0.26931 0.44108 0.80596 0.0
C743 C 0.28559 0.46212 0.81135 0.0
C744 C 0.28002 0.41762 0.79815 0.0
C745 C 0.30706 0.41511 0.79555 0.0
C746 C 0.32286 0.43695 0.79889 0.0
C747 C 0.31227 0.46014 0.8068 0.0
C748 C 0.31988 0.38946 0.79293 0.0
C749 C 0.33874 0.3865 0.77566 0.0
C750 C 0.31726 0.36993 0.80994 0.0
C751 C 0.29844 0.37216 0.82909 0.0
C752 C 0.30131 0.39157 0.84593 0.0
C753 C 0.28333 0.39367 0.86386 0.0
C754 C 0.26256 0.37628 0.86525 0.0
C755 C 0.2598 0.35671 0.84874 0.0
C756 C 0.27771 0.35457 0.83074 0.0
C757 C 0.42231 0.33245 0.81726 0.0
C758 C 0.42093 0.30552 0.82073 0.0
C759 C 0.40151 0.34581 0.80758 0.0
C760 C 0.37872 0.33262 0.80142 0.0
C761 C 0.37745 0.30558 0.80426 0.0
C762 C 0.39862 0.29202 0.81356 0.0
C763 C 0.35565 0.34809 0.79479 0.0
C764 C 0.3349 0.3492 0.8104 0.0
C765 C 0.35679 0.36609 0.77643 0.0
C766 C 0.37759 0.36466 0.75873 0.0
C767 C 0.38302 0.34104 0.74755 0.0
C768 C 0.4028 0.33962 0.73111 0.0
C769 C 0.41728 0.3617 0.72564 0.0
C770 C 0.412 0.38526 0.7366 0.0
C771 C 0.39224 0.3868 0.75306 0.0
H772 H 0.43259 0.36054 0.71292 0.0
H773 H 0.24866 0.37793 0.87915 0.0
H774 H 0.69594 0.41246 0.87213 0.0
H775 H 0.67419 0.37157 0.86373 0.0
H776 H 0.70471 0.37287 0.79453 0.0
H777 H 0.72717 0.41398 0.80307 0.0
H778 H 0.64966 0.36711 0.79776 0.0
H779 H 0.72443 0.32491 0.82555 0.0
H780 H 0.76181 0.31706 0.8511 0.0
H781 H 0.71024 0.30246 0.90773 0.0
H782 H 0.67253 0.31061 0.88265 0.0
H783 H 0.55328 0.26726 0.80484 0.0
H784 H 0.59707 0.28305 0.79518 0.0
H785 H 0.60743 0.30823 0.86552 0.0
H786 H 0.56434 0.29258 0.87513 0.0
H787 H 0.65233 0.28941 0.84816 0.0
H788 H 0.58225 0.34908 0.82395 0.0
H789 H 0.54384 0.36003 0.80047 0.0
H790 H 0.58657 0.34338 0.73867 0.0
H791 H 0.62514 0.33207 0.76186 0.0
C792 C 0.69841 0.40386 0.85523 0.0
C793 C 0.71314 0.41642 0.83822 0.0
C794 C 0.68612 0.38039 0.85049 0.0
C795 C 0.68802 0.36908 0.82857 0.0
C796 C 0.70321 0.38121 0.81161 0.0
C797 C 0.71603 0.40459 0.81652 0.0
C798 C 0.67166 0.34621 0.82327 0.0
C799 C 0.65073 0.34962 0.80812 0.0
C800 C 0.67301 0.32351 0.8369 0.0
C801 C 0.6956 0.31837 0.85215 0.0
C802 C 0.72104 0.32015 0.84348 0.0
C803 C 0.7423 0.31563 0.85789 0.0
C804 C 0.7384 0.30925 0.88102 0.0
C805 C 0.71323 0.30735 0.88979 0.0
C806 C 0.69189 0.31186 0.87546 0.0
C807 C 0.56524 0.27561 0.81828 0.0
C808 C 0.55532 0.27906 0.84064 0.0
C809 C 0.59017 0.28466 0.81275 0.0
C810 C 0.60543 0.29703 0.82959 0.0
C811 C 0.5961 0.29872 0.85224 0.0
C812 C 0.57133 0.28995 0.85767 0.0
C813 C 0.62963 0.31121 0.82378 0.0
C814 C 0.65197 0.3062 0.83689 0.0
C815 C 0.62949 0.33259 0.80847 0.0
C816 C 0.60639 0.33941 0.79459 0.0
C817 C 0.58336 0.3476 0.80536 0.0
C818 C 0.56159 0.35389 0.79211 0.0
C819 C 0.56274 0.35231 0.76809 0.0
C820 C 0.58569 0.34452 0.75727 0.0
C821 C 0.6075 0.33816 0.77045 0.0
H822 H 0.54587 0.3572 0.75786 0.0
H823 H 0.75489 0.30577 0.89215 0.0
H824 H 0.68065 0.45117 0.20852 0.0
H825 H 0.66905 0.40629 0.21539 0.0
H826 H 0.74674 0.38237 0.19727 0.0
H827 H 0.75833 0.42797 0.18993 0.0
H828 H 0.71461 0.35778 0.1719 0.0
H829 H 0.71958 0.36492 0.25125 0.0
H830 H 0.7164 0.38395 0.29011 0.0
H831 H 0.63334 0.38557 0.2846 0.0
H832 H 0.63596 0.36696 0.24558 0.0
H833 H 0.59839 0.26032 0.19936 0.0
H834 H 0.63998 0.27929 0.21153 0.0
H835 H 0.63505 0.33469 0.15596 0.0
H836 H 0.59424 0.31585 0.14366 0.0
H837 H 0.64859 0.32617 0.22737 0.0
H838 H 0.68992 0.35317 0.13582 0.0
H839 H 0.69541 0.33174 0.09819 0.0
H840 H 0.69147 0.25703 0.13074 0.0
H841 H 0.68637 0.27797 0.16865 0.0
C842 C 0.69556 0.43645 0.2068 0.0
C843 C 0.7203 0.44296 0.19854 0.0
C844 C 0.68899 0.41069 0.21096 0.0
C845 C 0.70702 0.39074 0.20701 0.0
C846 C 0.73251 0.3974 0.20055 0.0
C847 C 0.73918 0.42343 0.19649 0.0
C848 C 0.6973 0.36359 0.2053 0.0
C849 C 0.70059 0.35054 0.18425 0.0
C850 C 0.67992 0.35324 0.22184 0.0
C851 C 0.67801 0.36441 0.24542 0.0
C852 C 0.70062 0.36942 0.25826 0.0
C853 C 0.69892 0.38015 0.28034 0.0
C854 C 0.67469 0.38593 0.28983 0.0
C855 C 0.6521 0.381 0.27725 0.0
C856 C 0.65369 0.37028 0.25516 0.0
C857 C 0.60651 0.27621 0.1895 0.0
C858 C 0.59293 0.28666 0.17061 0.0
C859 C 0.63024 0.28704 0.19649 0.0
C860 C 0.64089 0.3082 0.18448 0.0
C861 C 0.62767 0.31799 0.16521 0.0
C862 C 0.60409 0.30733 0.15832 0.0
C863 C 0.6641 0.32234 0.1931 0.0
C864 C 0.66336 0.33278 0.21543 0.0
C865 C 0.6843 0.32986 0.17798 0.0
C866 C 0.68778 0.31719 0.15516 0.0
C867 C 0.69049 0.33218 0.13503 0.0
C868 C 0.69346 0.3201 0.11361 0.0
C869 C 0.69379 0.29304 0.11207 0.0
C870 C 0.69118 0.27799 0.13195 0.0
C871 C 0.68821 0.28996 0.15341 0.0
H872 H 0.69607 0.28374 0.09547 0.0
H873 H 0.67341 0.39425 0.30692 0.0
H874 H 0.54167 0.68112 0.20871 0.0
H875 H 0.58304 0.66703 0.22434 0.0
H876 H 0.61713 0.74083 0.20629 0.0
H877 H 0.57511 0.7551 0.1906 0.0
H878 H 0.64202 0.70209 0.18603 0.0
H879 H 0.62191 0.71947 0.26273 0.0
H880 H 0.59577 0.72328 0.29812 0.0
H881 H 0.58642 0.64051 0.30019 0.0
H882 H 0.61213 0.63616 0.26462 0.0
H883 H 0.73837 0.60178 0.19433 0.0
H884 H 0.7198 0.64311 0.20802 0.0
H885 H 0.64547 0.60581 0.21665 0.0
H886 H 0.66361 0.5651 0.20273 0.0
H887 H 0.65696 0.64265 0.25189 0.0
H888 H 0.65887 0.63337 0.16626 0.0
H889 H 0.68315 0.62908 0.12979 0.0
H890 H 0.7265 0.69796 0.14582 0.0
H891 H 0.7026 0.70245 0.18251 0.0
C892 C 0.5577 0.69474 0.20895 0.0
C893 C 0.55532 0.71911 0.19844 0.0
C894 C 0.58138 0.68675 0.21804 0.0
C895 C 0.60329 0.7029 0.21664 0.0
C896 C 0.60045 0.72813 0.20773 0.0
C897 C 0.57647 0.73631 0.19887 0.0
C898 C 0.6293 0.69104 0.22006 0.0
C899 C 0.64592 0.68996 0.20091 0.0
C900 C 0.63458 0.67521 0.23943 0.0
C901 C 0.6191 0.67751 0.26096 0.0
C902 C 0.61421 0.70206 0.27065 0.0
C903 C 0.59945 0.70432 0.29077 0.0
C904 C 0.58947 0.68215 0.30141 0.0
C905 C 0.59424 0.65767 0.29196 0.0
C906 C 0.60898 0.65529 0.27185 0.0
C907 C 0.71824 0.60241 0.19966 0.0
C908 C 0.70229 0.58042 0.19723 0.0
C909 C 0.7077 0.62594 0.20749 0.0
C910 C 0.68127 0.62748 0.21336 0.0
C911 C 0.66594 0.60502 0.21239 0.0
C912 C 0.67626 0.58182 0.20422 0.0
C913 C 0.66805 0.65262 0.2173 0.0
C914 C 0.65391 0.65604 0.23774 0.0
C915 C 0.66503 0.6707 0.19919 0.0
C916 C 0.67923 0.66807 0.17716 0.0
C917 C 0.67369 0.64749 0.16203 0.0
C918 C 0.68736 0.64504 0.14134 0.0
C919 C 0.70642 0.66319 0.13553 0.0
C920 C 0.71179 0.68388 0.15037 0.0
C921 C 0.6982 0.68639 0.17111 0.0
H922 H 0.71697 0.66127 0.11949 0.0
H923 H 0.57804 0.68394 0.31697 0.0
H924 H 0.42397 0.67459 0.13468 0.0
H925 H 0.38418 0.65196 0.14492 0.0
H926 H 0.37721 0.69863 0.20634 0.0
H927 H 0.41736 0.72167 0.19606 0.0
H928 H 0.37322 0.64681 0.21543 0.0
H929 H 0.33148 0.7057 0.16632 0.0
H930 H 0.32472 0.73296 0.13195 0.0
H931 H 0.31975 0.6648 0.08959 0.0
H932 H 0.32688 0.63711 0.12362 0.0
H933 H 0.25389 0.55667 0.18006 0.0
H934 H 0.27076 0.60028 0.18904 0.0
H935 H 0.34878 0.56984 0.18892 0.0
H936 H 0.33219 0.52685 0.17975 0.0
H937 H 0.30286 0.62672 0.15986 0.0
H938 H 0.38668 0.60162 0.22461 0.0
H939 H 0.39253 0.5751 0.25954 0.0
H940 H 0.31061 0.57816 0.27272 0.0
H941 H 0.30426 0.60504 0.23807 0.0
C942 C 0.41384 0.68035 0.15022 0.0
C943 C 0.42389 0.69983 0.16462 0.0
C944 C 0.39094 0.66753 0.15596 0.0
C945 C 0.37755 0.67379 0.17628 0.0
C946 C 0.38715 0.69365 0.1905 0.0
C947 C 0.41003 0.70679 0.18459 0.0
C948 C 0.35521 0.65747 0.18334 0.0
C949 C 0.35751 0.64269 0.20354 0.0
C950 C 0.33418 0.65281 0.16822 0.0
C951 C 0.32972 0.6693 0.14759 0.0
C952 C 0.32908 0.69651 0.14967 0.0
C953 C 0.32517 0.71205 0.13023 0.0
C954 C 0.3218 0.70062 0.1086 0.0
C955 C 0.32232 0.67363 0.10637 0.0
C956 C 0.32623 0.65799 0.12574 0.0
C957 C 0.27455 0.55929 0.18261 0.0
C958 C 0.29179 0.53852 0.17911 0.0
C959 C 0.28415 0.58414 0.18766 0.0
C960 C 0.31101 0.58827 0.18984 0.0
C961 C 0.32797 0.5671 0.18772 0.0
C962 C 0.31849 0.54255 0.18231 0.0
C963 C 0.32219 0.61477 0.19098 0.0
C964 C 0.31788 0.63145 0.17226 0.0
C965 C 0.34119 0.62134 0.2076 0.0
C966 C 0.34499 0.60539 0.22866 0.0
C967 C 0.36992 0.59685 0.23504 0.0
C968 C 0.37332 0.58169 0.25479 0.0
C969 C 0.35196 0.57494 0.26834 0.0
C970 C 0.32714 0.58336 0.26219 0.0
C971 C 0.32362 0.59854 0.24247 0.0
H972 H 0.35463 0.56318 0.28361 0.0
H973 H 0.31879 0.71269 0.09358 0.0
H974 H 0.31849 0.3908 0.14605 0.0
H975 H 0.33942 0.35329 0.16296 0.0
H976 H 0.29679 0.36501 0.22613 0.0
H977 H 0.27561 0.40333 0.20907 0.0
H978 H 0.34708 0.35941 0.23479 0.0
H979 H 0.28697 0.3083 0.19634 0.0
H980 H 0.25739 0.29388 0.16552 0.0
H981 H 0.32239 0.27965 0.121 0.0
H982 H 0.35236 0.29436 0.15136 0.0
H983 H 0.44244 0.2428 0.20111 0.0
H984 H 0.39935 0.25599 0.21495 0.0
H985 H 0.42248 0.33638 0.21043 0.0
H986 H 0.4651 0.32337 0.19712 0.0
H987 H 0.36686 0.28023 0.18945 0.0
H988 H 0.39061 0.37626 0.24119 0.0
H989 H 0.41863 0.389 0.27365 0.0
H990 H 0.42296 0.30964 0.29583 0.0
H991 H 0.3946 0.2964 0.26373 0.0
C992 C 0.31317 0.38526 0.16343 0.0
C993 C 0.29554 0.40016 0.17629 0.0
C994 C 0.32497 0.36354 0.17303 0.0
C995 C 0.31942 0.35601 0.19573 0.0
C996 C 0.30117 0.37032 0.2085 0.0
C997 C 0.28908 0.39215 0.19874 0.0
C998 C 0.33546 0.33526 0.20634 0.0
C999 C 0.35115 0.34179 0.22524 0.0
C1000 C 0.3398 0.31151 0.19471 0.0
C1001 C 0.32196 0.30236 0.17626 0.0
C1002 C 0.29498 0.30218 0.17996 0.0
C1003 C 0.27813 0.29395 0.16255 0.0
C1004 C 0.28801 0.28582 0.14133 0.0
C1005 C 0.31477 0.28588 0.13747 0.0
C1006 C 0.33171 0.29409 0.15482 0.0
C1007 C 0.43854 0.26321 0.20394 0.0
C1008 C 0.45698 0.2821 0.19779 0.0
C1009 C 0.41391 0.27074 0.21178 0.0
C1010 C 0.40758 0.2972 0.21389 0.0
C1011 C 0.42685 0.31584 0.20949 0.0
C1012 C 0.45123 0.30838 0.20159 0.0
C1013 C 0.38022 0.30601 0.21618 0.0
C1014 C 0.36227 0.29718 0.19975 0.0
C1015 C 0.37349 0.32728 0.23046 0.0
C1016 C 0.39035 0.33532 0.25 0.0
C1017 C 0.39726 0.36152 0.25311 0.0
C1018 C 0.4133 0.36883 0.27142 0.0
C1019 C 0.42256 0.35015 0.2868 0.0
C1020 C 0.4158 0.3241 0.28389 0.0
C1021 C 0.39977 0.31667 0.26561 0.0
H1022 H 0.43499 0.35585 0.30096 0.0
H1023 H 0.27493 0.27948 0.12786 0.0
H1024 H 0.06609 0.32363 0.30782 0.0
H1025 H 0.0887 0.35909 0.28878 0.0
H1026 H 0.02127 0.37391 0.24674 0.0
H1027 H 0.99841 0.338 0.26566 0.0
H1028 H 0.06481 0.37171 0.22119 0.0
H1029 H 0.03844 0.41687 0.28856 0.0
H1030 H 0.03185 0.42413 0.33014 0.0
H1031 H 0.11419 0.42145 0.34121 0.0
H1032 H 0.12128 0.41379 0.29974 0.0
H1033 H 0.13773 0.47423 0.171 0.0
H1034 H 0.10226 0.45383 0.19245 0.0
H1035 H 0.15702 0.42536 0.24264 0.0
H1036 H 0.19243 0.4459 0.22159 0.0
H1037 H 0.11245 0.44087 0.26308 0.0
H1038 H 0.13746 0.38757 0.19762 0.0
H1039 H 0.14464 0.37903 0.15628 0.0
H1040 H 0.06472 0.39646 0.14213 0.0
H1041 H 0.05717 0.40543 0.18339 0.0
C1042 C 0.05591 0.3345 0.29466 0.0
C1043 C 0.03043 0.32791 0.28824 0.0
C1044 C 0.06883 0.35495 0.28389 0.0
C1045 C 0.05657 0.3694 0.26654 0.0
C1046 C 0.03104 0.36309 0.26019 0.0
C1047 C 0.01801 0.34259 0.27103 0.0
C1048 C 0.07128 0.38986 0.25414 0.0
C1049 C 0.07468 0.38725 0.23027 0.0
C1050 C 0.0845 0.40988 0.26604 0.0
C1051 C 0.08037 0.41462 0.29102 0.0
C1052 C 0.05514 0.41765 0.29987 0.0
C1053 C 0.05131 0.42186 0.32343 0.0
C1054 C 0.07258 0.42321 0.33831 0.0
C1055 C 0.09773 0.4204 0.32966 0.0
C1056 C 0.10166 0.41617 0.30612 0.0
C1057 C 0.14217 0.46399 0.18681 0.0
C1058 C 0.16796 0.46144 0.19444 0.0
C1059 C 0.12188 0.45228 0.199 0.0
C1060 C 0.12706 0.43775 0.21895 0.0
C1061 C 0.15258 0.43643 0.22727 0.0
C1062 C 0.17284 0.44812 0.21514 0.0
C1063 C 0.10646 0.42222 0.23031 0.0
C1064 C 0.10202 0.42572 0.25396 0.0
C1065 C 0.09232 0.40295 0.21825 0.0
C1066 C 0.09683 0.39748 0.1935 0.0
C1067 C 0.12148 0.38977 0.18566 0.0
C1068 C 0.1256 0.38482 0.16226 0.0
C1069 C 0.10517 0.38729 0.14658 0.0
C1070 C 0.08054 0.39462 0.15429 0.0
C1071 C 0.07633 0.39963 0.17767 0.0
H1072 H 0.1084 0.38344 0.12847 0.0
H1073 H 0.06958 0.42647 0.35654 0.0
H1074 H 0.66768 0.06578 0.31271 0.0
H1075 H 0.63114 0.08444 0.29205 0.0
H1076 H 0.62538 0.01545 0.25021 0.0
H1077 H 0.66247 0.99658 0.27076 0.0
H1078 H 0.62511 0.05849 0.22426 0.0
H1079 H 0.57776 0.02927 0.28913 0.0
H1080 H 0.56818 0.02203 0.33024 0.0
H1081 H 0.56404 0.10433 0.34135 0.0
H1082 H 0.57397 0.1121 0.30038 0.0
H1083 H 0.52308 0.12934 0.16963 0.0
H1084 H 0.54306 0.09364 0.19117 0.0
H1085 H 0.56752 0.14758 0.24373 0.0
H1086 H 0.54747 0.18314 0.22258 0.0
H1087 H 0.55079 0.10215 0.26238 0.0
H1088 H 0.60814 0.12998 0.20011 0.0
H1089 H 0.61907 0.13773 0.15931 0.0
H1090 H 0.60464 0.05749 0.14385 0.0
H1091 H 0.59331 0.04936 0.18456 0.0
C1092 C 0.65854 0.05438 0.29928 0.0
C1093 C 0.66807 0.0297 0.29333 0.0
C1094 C 0.63746 0.06502 0.2876 0.0
C1095 C 0.62527 0.0512 0.26979 0.0
C1096 C 0.63441 0.02636 0.264 0.0
C1097 C 0.65557 0.01562 0.27577 0.0
C1098 C 0.60448 0.0639 0.2562 0.0
C1099 C 0.60844 0.06741 0.23249 0.0
C1100 C 0.58288 0.07579 0.26697 0.0
C1101 C 0.57671 0.07126 0.29165 0.0
C1102 C 0.57497 0.04584 0.30035 0.0
C1103 C 0.56945 0.04164 0.32364 0.0
C1104 C 0.56552 0.0627 0.3384 0.0
C1105 C 0.56706 0.08802 0.32989 0.0
C1106 C 0.57259 0.09234 0.30662 0.0
C1107 C 0.5324 0.13352 0.18593 0.0
C1108 C 0.53393 0.15912 0.19427 0.0
C1109 C 0.54384 0.11311 0.19819 0.0
C1110 C 0.55701 0.11803 0.21892 0.0
C1111 C 0.55745 0.14335 0.22778 0.0
C1112 C 0.54609 0.1637 0.21557 0.0
C1113 C 0.57207 0.09746 0.23074 0.0
C1114 C 0.56702 0.09253 0.25409 0.0
C1115 C 0.59269 0.08426 0.21967 0.0
C1116 C 0.59956 0.08915 0.19527 0.0
C1117 C 0.6071 0.11405 0.18797 0.0
C1118 C 0.6134 0.1185 0.16487 0.0
C1119 C 0.61246 0.09813 0.14898 0.0
C1120 C 0.60529 0.07326 0.15617 0.0
C1121 C 0.59894 0.06872 0.17924 0.0
H1122 H 0.61735 0.10161 0.13111 0.0
H1123 H 0.56127 0.05941 0.35643 0.0
H1124 H 0.84721 0.56903 0.16412 0.0
H1125 H 0.8808 0.5916 0.18606 0.0
H1126 H 0.85108 0.55858 0.24903 0.0
H1127 H 0.8174 0.53585 0.22719 0.0
H1128 H 0.85504 0.61138 0.25099 0.0
H1129 H 0.90943 0.5404 0.23015 0.0
H1130 H 0.93011 0.50866 0.2042 0.0
H1131 H 0.96716 0.57054 0.16717 0.0
H1132 H 0.94639 0.60272 0.19269 0.0
H1133 H 0.94874 0.67183 0.32056 0.0
H1134 H 0.92667 0.63582 0.30143 0.0
H1135 H 0.94829 0.66684 0.23517 0.0
H1136 H 0.97045 0.70304 0.25414 0.0
H1137 H 0.95009 0.6117 0.23714 0.0
H1138 H 0.89199 0.68224 0.25463 0.0
H1139 H 0.8713 0.71463 0.27997 0.0
H1140 H 0.84077 0.65357 0.3224 0.0
H1141 H 0.86168 0.62081 0.29751 0.0
C1142 C 0.84808 0.56618 0.18259 0.0
C1143 C 0.82952 0.55078 0.19392 0.0
C1144 C 0.86739 0.57901 0.1951 0.0
C1145 C 0.86847 0.57673 0.21918 0.0
C1146 C 0.85059 0.56057 0.23045 0.0
C1147 C 0.83141 0.54754 0.21793 0.0
C1148 C 0.88655 0.59322 0.23266 0.0
C1149 C 0.87588 0.61102 0.24832 0.0
C1150 C 0.91366 0.59327 0.22868 0.0
C1151 C 0.92615 0.574 0.21322 0.0
C1152 C 0.92179 0.54727 0.21634 0.0
C1153 C 0.93357 0.52919 0.20174 0.0
C1154 C 0.94989 0.53758 0.18401 0.0
C1155 C 0.95449 0.56407 0.18089 0.0
C1156 C 0.94274 0.58224 0.19544 0.0
C1157 C 0.94927 0.67078 0.30193 0.0
C1158 C 0.96107 0.69052 0.28886 0.0
C1159 C 0.93662 0.65017 0.29103 0.0
C1160 C 0.93559 0.64887 0.2669 0.0
C1161 C 0.94886 0.66753 0.25382 0.0
C1162 C 0.9614 0.68826 0.2647 0.0
C1163 C 0.91849 0.62972 0.25537 0.0
C1164 C 0.92929 0.61166 0.24002 0.0
C1165 C 0.89142 0.62946 0.25949 0.0
C1166 C 0.87866 0.64909 0.27438 0.0
C1167 C 0.88106 0.67573 0.26948 0.0
C1168 C 0.86927 0.69415 0.28374 0.0
C1169 C 0.8548 0.68616 0.30282 0.0
C1170 C 0.85204 0.65973 0.30764 0.0
C1171 C 0.86385 0.64123 0.29347 0.0
H1172 H 0.84567 0.70046 0.31384 0.0
H1173 H 0.959 0.52355 0.17273 0.0
H1174 H 0.37946 0.98383 0.31836 0.0
H1175 H 0.41161 0.95907 0.2962 0.0
H1176 H 0.35 0.91559 0.26396 0.0
H1177 H 0.31792 0.94007 0.28579 0.0
H1178 H 0.38765 0.88457 0.28395 0.0
H1179 H 0.38222 0.95953 0.23381 0.0
H1180 H 0.38528 0.00615 0.2246 0.0
H1181 H 0.4655 0.00636 0.24464 0.0
H1182 H 0.46281 0.95979 0.25429 0.0
H1183 H 0.43722 0.81529 0.19198 0.0
H1184 H 0.4146 0.84812 0.21445 0.0
H1185 H 0.4878 0.87936 0.2374 0.0
H1186 H 0.51088 0.8464 0.21467 0.0
H1187 H 0.45047 0.91802 0.22634 0.0
H1188 H 0.45725 0.84257 0.27333 0.0
H1189 H 0.45466 0.79591 0.28246 0.0
H1190 H 0.37264 0.79679 0.26947 0.0
H1191 H 0.37479 0.84339 0.25991 0.0
C1192 C 0.37277 0.96923 0.30632 0.0
C1193 C 0.34613 0.9638 0.30398 0.0
C1194 C 0.39116 0.95515 0.29367 0.0
C1195 C 0.38314 0.93546 0.27854 0.0
C1196 C 0.35657 0.93063 0.27564 0.0
C1197 C 0.33825 0.94471 0.28813 0.0
C1198 C 0.40218 0.91858 0.26667 0.0
C1199 C 0.40127 0.89188 0.27126 0.0
C1200 C 0.42062 0.92828 0.25081 0.0
C1201 C 0.42222 0.95626 0.24506 0.0
C1202 C 0.40044 0.96958 0.23648 0.0
C1203 C 0.40212 0.99598 0.23113 0.0
C1204 C 0.42554 0.00923 0.23411 0.0
C1205 C 0.44735 0.99609 0.24239 0.0
C1206 C 0.44576 0.96969 0.24779 0.0
C1207 C 0.44863 0.82919 0.20165 0.0
C1208 C 0.47589 0.82803 0.20172 0.0
C1209 C 0.43563 0.84795 0.21451 0.0
C1210 C 0.44953 0.86589 0.22784 0.0
C1211 C 0.47675 0.86559 0.22727 0.0
C1212 C 0.48987 0.84672 0.21434 0.0
C1213 C 0.43522 0.88396 0.24308 0.0
C1214 C 0.43709 0.9108 0.23927 0.0
C1215 C 0.41769 0.87447 0.25984 0.0
C1216 C 0.41623 0.84645 0.26575 0.0
C1217 C 0.43869 0.83278 0.27226 0.0
C1218 C 0.43729 0.80634 0.27754 0.0
C1219 C 0.41351 0.79338 0.27651 0.0
C1220 C 0.39105 0.80685 0.27025 0.0
C1221 C 0.39234 0.83329 0.26493 0.0
H1222 H 0.41246 0.77291 0.2806 0.0
H1223 H 0.42681 0.02967 0.22994 0.0
H1224 H 0.1827 0.51316 0.75585 0.0
H1225 H 0.14858 0.53475 0.73367 0.0
H1226 H 0.1291 0.58146 0.79291 0.0
H1227 H 0.16263 0.55962 0.81531 0.0
H1228 H 0.08609 0.56876 0.76931 0.0
H1229 H 0.17123 0.60362 0.75155 0.0
H1230 H 0.21674 0.60068 0.73859 0.0
H1231 H 0.19164 0.57045 0.67332 0.0
H1232 H 0.14598 0.57293 0.68603 0.0
H1233 H 0.04082 0.68796 0.72364 0.0
H1234 H 0.06154 0.65131 0.74288 0.0
H1235 H 0.0749 0.6147 0.67706 0.0
H1236 H 0.05467 0.65158 0.65763 0.0
H1237 H 0.11805 0.61663 0.70081 0.0
H1238 H 0.03177 0.58877 0.71703 0.0
H1239 H 0.98654 0.59266 0.73045 0.0
H1240 H 0.01328 0.61058 0.79869 0.0
H1241 H 0.05869 0.60713 0.78563 0.0
C1242 C 0.17088 0.52773 0.76426 0.0
C1243 C 0.17564 0.53492 0.78725 0.0
C1244 C 0.15142 0.54008 0.75155 0.0
C1245 C 0.13662 0.56005 0.76152 0.0
C1246 C 0.14031 0.56616 0.78484 0.0
C1247 C 0.15961 0.55371 0.7976 0.0
C1248 C 0.11892 0.57619 0.74733 0.0
C1249 C 0.09303 0.5793 0.75436 0.0
C1250 C 0.12784 0.58949 0.72752 0.0
C1251 C 0.15525 0.58818 0.71982 0.0
C1252 C 0.17545 0.59619 0.73449 0.0
C1253 C 0.20125 0.59463 0.72719 0.0
C1254 C 0.20708 0.58531 0.70517 0.0
C1255 C 0.1871 0.57761 0.69038 0.0
C1256 C 0.16126 0.5791 0.69762 0.0
C1257 C 0.04776 0.67192 0.71326 0.0
C1258 C 0.0463 0.6728 0.68908 0.0
C1259 C 0.05948 0.65086 0.72432 0.0
C1260 C 0.06965 0.63013 0.71144 0.0
C1261 C 0.0672 0.63047 0.68735 0.0
C1262 C 0.05563 0.65158 0.67627 0.0
C1263 C 0.08518 0.60957 0.72291 0.0
C1264 C 0.1108 0.60571 0.71544 0.0
C1265 C 0.07597 0.59574 0.74235 0.0
C1266 C 0.04867 0.59786 0.75029 0.0
C1267 C 0.02802 0.59373 0.73486 0.0
C1268 C 0.00234 0.59582 0.74241 0.0
C1269 C 0.99704 0.60191 0.7654 0.0
C1270 C 0.01742 0.60587 0.78089 0.0
C1271 C 0.04313 0.60381 0.77343 0.0
H1272 H 0.97715 0.60351 0.77121 0.0
H1273 H 0.22707 0.58411 0.69955 0.0
H1274 H 0.45338 0.19589 0.78308 0.0
H1275 H 0.43183 0.16241 0.7604 0.0
H1276 H 0.45712 0.10405 0.80864 0.0
H1277 H 0.47892 0.13755 0.83162 0.0
H1278 H 0.45805 0.08808 0.76038 0.0
H1279 H 0.40016 0.12521 0.81651 0.0
H1280 H 0.37904 0.1613 0.83719 0.0
H1281 H 0.34609 0.1887 0.77375 0.0
H1282 H 0.36736 0.15297 0.75262 0.0
H1283 H 0.35701 0.99852 0.72513 0.0
H1284 H 0.38853 0.02475 0.74663 0.0
H1285 H 0.36167 0.09349 0.71152 0.0
H1286 H 0.33007 0.0677 0.6904 0.0
H1287 H 0.36275 0.1011 0.75633 0.0
H1288 H 0.42049 0.06502 0.69974 0.0
H1289 H 0.44303 0.03061 0.67803 0.0
H1290 H 0.47708 0.00215 0.74063 0.0
H1291 H 0.45431 0.03611 0.76282 0.0
C1292 C 0.45476 0.17591 0.78875 0.0
C1293 C 0.46756 0.16945 0.80937 0.0
C1294 C 0.44245 0.1568 0.77572 0.0
C1295 C 0.44261 0.13086 0.78304 0.0
C1296 C 0.45677 0.124 0.80276 0.0
C1297 C 0.46912 0.14318 0.81589 0.0
C1298 C 0.42584 0.11166 0.77127 0.0
C1299 C 0.43716 0.09058 0.75972 0.0
C1300 C 0.39867 0.11526 0.77025 0.0
C1301 C 0.38552 0.13654 0.78296 0.0
C1302 C 0.38856 0.13903 0.80695 0.0
C1303 C 0.37654 0.15941 0.81875 0.0
C1304 C 0.36128 0.17732 0.80678 0.0
C1305 C 0.35794 0.17483 0.78299 0.0
C1306 C 0.36994 0.1545 0.7711 0.0
C1307 C 0.358 0.0192 0.72188 0.0
C1308 C 0.34087 0.03105 0.7062 0.0
C1309 C 0.3761 0.03413 0.7341 0.0
C1310 C 0.37749 0.06109 0.73066 0.0
C1311 C 0.36088 0.07275 0.71455 0.0
C1312 C 0.34279 0.05794 0.70247 0.0
C1313 C 0.39489 0.07769 0.74476 0.0
C1314 C 0.38361 0.09832 0.75698 0.0
C1315 C 0.42204 0.07362 0.74624 0.0
C1316 C 0.43537 0.05289 0.73299 0.0
C1317 C 0.4325 0.05122 0.70893 0.0
C1318 C 0.44537 0.03184 0.69653 0.0
C1319 C 0.46138 0.01414 0.70796 0.0
C1320 C 0.46459 0.01582 0.73182 0.0
C1321 C 0.45169 0.03512 0.74432 0.0
H1322 H 0.47135 0.99918 0.69832 0.0
H1323 H 0.35201 0.19309 0.81595 0.0
H1324 H 0.96305 0.30627 0.71762 0.0
H1325 H 0.93977 0.33699 0.74218 0.0
H1326 H 0.93512 0.3911 0.68563 0.0
H1327 H 0.95895 0.36083 0.66115 0.0
H1328 H 0.94204 0.41668 0.72482 0.0
H1329 H 0.88482 0.34976 0.69787 0.0
H1330 H 0.87001 0.30479 0.69148 0.0
H1331 H 0.86778 0.29194 0.76454 0.0
H1332 H 0.88289 0.33675 0.77136 0.0
H1333 H 0.82552 0.48414 0.75676 0.0
H1334 H 0.85937 0.45852 0.73777 0.0
H1335 H 0.86823 0.41219 0.79912 0.0
H1336 H 0.83461 0.43773 0.81829 0.0
H1337 H 0.86069 0.38292 0.75936 0.0
H1338 H 0.91484 0.45299 0.7852 0.0
H1339 H 0.92797 0.49874 0.78967 0.0
H1340 H 0.93365 0.50664 0.71619 0.0
H1341 H 0.92018 0.46102 0.71127 0.0
C1342 C 0.95749 0.32489 0.71051 0.0
C1343 C 0.96259 0.33095 0.68733 0.0
C1344 C 0.94406 0.34239 0.72455 0.0
C1345 C 0.93517 0.36611 0.71559 0.0
C1346 C 0.94165 0.37287 0.69289 0.0
C1347 C 0.95526 0.35548 0.67889 0.0
C1348 C 0.91767 0.38307 0.72929 0.0
C1349 C 0.92416 0.40935 0.73223 0.0
C1350 C 0.89443 0.37347 0.73916 0.0
C1351 C 0.88527 0.34652 0.73512 0.0
C1352 C 0.88136 0.33728 0.71257 0.0
C1353 C 0.87288 0.31183 0.70887 0.0
C1354 C 0.86804 0.29549 0.72759 0.0
C1355 C 0.87158 0.3046 0.75005 0.0
C1356 C 0.88009 0.33003 0.75385 0.0
C1357 C 0.8349 0.46872 0.76632 0.0
C1358 C 0.82729 0.46294 0.78902 0.0
C1359 C 0.85429 0.45416 0.75546 0.0
C1360 C 0.86632 0.4335 0.76707 0.0
C1361 C 0.85918 0.42806 0.78988 0.0
C1362 C 0.84001 0.44275 0.80082 0.0
C1363 C 0.88509 0.41648 0.75494 0.0
C1364 C 0.87872 0.39019 0.75217 0.0
C1365 C 0.90817 0.42619 0.74495 0.0
C1366 C 0.91626 0.45364 0.74786 0.0
C1367 C 0.91865 0.46454 0.76998 0.0
C1368 C 0.92621 0.49044 0.7726 0.0
C1369 C 0.93158 0.50561 0.75323 0.0
C1370 C 0.92945 0.49488 0.73119 0.0
C1371 C 0.92188 0.469 0.72848 0.0
H1372 H 0.93744 0.52565 0.75529 0.0
H1373 H 0.86148 0.27579 0.72468 0.0
H1374 H 0.62949 0.96714 0.6668 0.0
H1375 H 0.59812 0.94185 0.68896 0.0
H1376 H 0.65243 0.93708 0.7454 0.0
H1377 H 0.68415 0.9617 0.72309 0.0
H1378 H 0.63644 0.89113 0.73475 0.0
H1379 H 0.59407 0.97225 0.74843 0.0
H1380 H 0.57328 0.01407 0.73918 0.0
H1381 H 0.51499 0.9745 0.69968 0.0
H1382 H 0.53562 0.93246 0.70842 0.0
H1383 H 0.55573 0.82554 0.81214 0.0
H1384 H 0.57855 0.86226 0.79505 0.0
H1385 H 0.53231 0.85508 0.73347 0.0
H1386 H 0.50924 0.81812 0.75043 0.0
H1387 H 0.54278 0.90806 0.74768 0.0
H1388 H 0.58744 0.82754 0.73234 0.0
H1389 H 0.60727 0.78575 0.74326 0.0
H1390 H 0.66132 0.82551 0.78715 0.0
H1391 H 0.64152 0.86753 0.77676 0.0
C1392 C 0.63458 0.96113 0.6841 0.0
C1393 C 0.65941 0.96618 0.6931 0.0
C1394 C 0.61654 0.94677 0.69682 0.0
C1395 C 0.62286 0.93758 0.7189 0.0
C1396 C 0.64715 0.94386 0.72837 0.0
C1397 C 0.66526 0.95795 0.71559 0.0
C1398 C 0.60551 0.91906 0.73105 0.0
C1399 C 0.61608 0.89516 0.73793 0.0
C1400 C 0.57872 0.92386 0.73459 0.0
C1401 C 0.56657 0.94919 0.7289 0.0
C1402 C 0.57698 0.97248 0.73756 0.0
C1403 C 0.56518 0.99623 0.73246 0.0
C1404 C 0.54284 0.99695 0.71882 0.0
C1405 C 0.53228 0.97392 0.71024 0.0
C1406 C 0.54402 0.95012 0.71527 0.0
C1407 C 0.55008 0.83193 0.79509 0.0
C1408 C 0.53089 0.81865 0.78251 0.0
C1409 C 0.56315 0.85296 0.78538 0.0
C1410 C 0.55727 0.86114 0.76294 0.0
C1411 C 0.53709 0.849 0.75083 0.0
C1412 C 0.52404 0.82782 0.7605 0.0
C1413 C 0.57393 0.88061 0.75145 0.0
C1414 C 0.56321 0.9044 0.74458 0.0
C1415 C 0.60065 0.87586 0.74793 0.0
C1416 C 0.61282 0.85065 0.75396 0.0
C1417 C 0.60342 0.82735 0.74446 0.0
C1418 C 0.61467 0.80363 0.75053 0.0
C1419 C 0.63549 0.80297 0.76594 0.0
C1420 C 0.64516 0.82604 0.77525 0.0
C1421 C 0.63394 0.84982 0.76926 0.0
H1422 H 0.64417 0.78458 0.77063 0.0
H1423 H 0.53368 0.01535 0.71494 0.0
H1424 H 0.00104 0.31071 0.38967 0.0
H1425 H 0.99668 0.33236 0.42732 0.0
H1426 H 0.01782 0.261 0.46134 0.0
H1427 H 0.0219 0.23943 0.42425 0.0
H1428 H 0.96234 0.31836 0.46205 0.0
H1429 H 0.05355 0.27259 0.50694 0.0
H1430 H 0.09952 0.26477 0.49756 0.0
H1431 H 0.09722 0.32535 0.44683 0.0
H1432 H 0.05133 0.33386 0.45613 0.0
H1433 H 0.94557 0.25533 0.56356 0.0
H1434 H 0.95226 0.27652 0.52672 0.0
H1435 H 0.00428 0.33143 0.55873 0.0
H1436 H 0.99759 0.30988 0.59608 0.0
H1437 H 0.02743 0.30793 0.52433 0.0
H1438 H 0.95012 0.3542 0.5297 0.0
H1439 H 0.9044 0.3635 0.53902 0.0
H1440 H 0.87957 0.30668 0.4896 0.0
H1441 H 0.92509 0.29669 0.48021 0.0
C1442 C 0.00511 0.29984 0.40522 0.0
C1443 C 0.01167 0.27335 0.40405 0.0
C1444 C 0.00259 0.3122 0.42665 0.0
C1445 C 0.00723 0.29837 0.44709 0.0
C1446 C 0.01457 0.27218 0.4458 0.0
C1447 C 0.01669 0.2598 0.42456 0.0
C1448 C 0.00219 0.30985 0.47008 0.0
C1449 C 0.9766 0.31664 0.4757 0.0
C1450 C 0.02114 0.30874 0.48767 0.0
C1451 C 0.04892 0.30388 0.48226 0.0
C1452 C 0.06287 0.28444 0.49393 0.0
C1453 C 0.08893 0.27983 0.48858 0.0
C1454 C 0.10128 0.29455 0.47161 0.0
C1455 C 0.08761 0.31393 0.45995 0.0
C1456 C 0.06157 0.31863 0.46524 0.0
C1457 C 0.95786 0.27238 0.56293 0.0
C1458 C 0.97129 0.28079 0.5826 0.0
C1459 C 0.96148 0.28471 0.54184 0.0
C1460 C 0.97866 0.30574 0.53989 0.0
C1461 C 0.99081 0.31534 0.55986 0.0
C1462 C 0.98694 0.30308 0.58117 0.0
C1463 C 0.987 0.31397 0.51651 0.0
C1464 C 0.01328 0.31084 0.51075 0.0
C1465 C 0.96872 0.31882 0.49881 0.0
C1466 C 0.94114 0.32475 0.5042 0.0
C1467 C 0.93493 0.34359 0.52087 0.0
C1468 C 0.90903 0.34899 0.52617 0.0
C1469 C 0.88909 0.33571 0.51489 0.0
C1470 C 0.89503 0.31701 0.49828 0.0
C1471 C 0.9209 0.31152 0.49291 0.0
H1472 H 0.86905 0.33991 0.51903 0.0
H1473 H 0.12144 0.29093 0.46749 0.0
H1474 H 0.6815 0.00507 0.60154 0.0
H1475 H 0.66134 0.00964 0.56329 0.0
H1476 H 0.72029 0.95983 0.53436 0.0
H1477 H 0.74037 0.95556 0.57207 0.0
H1478 H 0.68727 0.03302 0.52905 0.0
H1479 H 0.70128 0.92952 0.48813 0.0
H1480 H 0.69182 0.88414 0.49851 0.0
H1481 H 0.63291 0.90959 0.54568 0.0
H1482 H 0.64167 0.95514 0.53535 0.0
H1483 H 0.75798 0.02476 0.43014 0.0
H1484 H 0.73637 0.0198 0.4671 0.0
H1485 H 0.66463 0.00113 0.4326 0.0
H1486 H 0.68629 0.00642 0.39503 0.0
H1487 H 0.67923 0.96569 0.46831 0.0
H1488 H 0.66341 0.05501 0.46 0.0
H1489 H 0.67287 0.10043 0.4496 0.0
H1490 H 0.73267 0.10342 0.50104 0.0
H1491 H 0.72388 0.05792 0.51153 0.0
C1492 C 0.6895 0.99442 0.58709 0.0
C1493 C 0.71256 0.98014 0.5896 0.0
C1494 C 0.67804 0.99707 0.56529 0.0
C1495 C 0.68919 0.98494 0.54597 0.0
C1496 C 0.71101 0.969 0.549 0.0
C1497 C 0.72264 0.96673 0.57055 0.0
C1498 C 0.68168 0.99231 0.52217 0.0
C1499 C 0.68483 0.01839 0.51578 0.0
C1500 C 0.6777 0.97333 0.50488 0.0
C1501 C 0.67214 0.94584 0.51091 0.0
C1502 C 0.68612 0.92548 0.50055 0.0
C1503 C 0.68093 0.8997 0.50648 0.0
C1504 C 0.66178 0.89398 0.52274 0.0
C1505 C 0.64776 0.91404 0.53311 0.0
C1506 C 0.65286 0.93986 0.52724 0.0
C1507 C 0.73756 0.01977 0.4303 0.0
C1508 C 0.72385 0.0159 0.40966 0.0
C1509 C 0.72518 0.01712 0.45147 0.0
C1510 C 0.69884 0.01039 0.45256 0.0
C1511 C 0.68493 0.00654 0.43205 0.0
C1512 C 0.6973 0.00959 0.41068 0.0
C1513 C 0.68702 0.00591 0.47547 0.0
C1514 C 0.68041 0.98044 0.48162 0.0
C1515 C 0.68763 0.02545 0.49258 0.0
C1516 C 0.69291 0.053 0.48658 0.0
C1517 C 0.67865 0.06531 0.46904 0.0
C1518 C 0.6839 0.09108 0.46313 0.0
C1519 C 0.70334 0.10481 0.47467 0.0
C1520 C 0.71757 0.09279 0.49216 0.0
C1521 C 0.71241 0.06701 0.49814 0.0
H1522 H 0.70739 0.12475 0.47005 0.0
H1523 H 0.65781 0.87401 0.52732 0.0
H1524 H 0.0214 0.70942 0.60463 0.0
H1525 H 0.01274 0.69317 0.56547 0.0
H1526 H 0.96656 0.76121 0.55145 0.0
H1527 H 0.9751 0.77743 0.59005 0.0
H1528 H 0.94407 0.7163 0.53444 0.0
H1529 H 0.02973 0.75905 0.53623 0.0
H1530 H 0.07506 0.76255 0.54958 0.0
H1531 H 0.09041 0.68521 0.52554 0.0
H1532 H 0.04504 0.68119 0.51229 0.0
H1533 H 0.94952 0.77618 0.4291 0.0
H1534 H 0.95224 0.75955 0.46822 0.0
H1535 H 0.99319 0.69192 0.44373 0.0
H1536 H 0.99031 0.70855 0.40402 0.0
H1537 H 0.01827 0.71707 0.47998 0.0
H1538 H 0.93549 0.68187 0.46661 0.0
H1539 H 0.89047 0.67991 0.45238 0.0
H1540 H 0.86913 0.74234 0.4976 0.0
H1541 H 0.9141 0.74498 0.51186 0.0
C1542 C 0.00917 0.72069 0.59323 0.0
C1543 C 0.99917 0.74483 0.6003 0.0
C1544 C 0.00426 0.71141 0.57091 0.0
C1545 C 0.98905 0.72603 0.55556 0.0
C1546 C 0.97825 0.74955 0.56302 0.0
C1547 C 0.98335 0.75891 0.58506 0.0
C1548 C 0.9856 0.71845 0.5311 0.0
C1549 C 0.96025 0.71616 0.52249 0.0
C1550 C 0.00679 0.71722 0.51565 0.0
C1551 C 0.03398 0.71969 0.52358 0.0
C1552 C 0.04274 0.74273 0.53397 0.0
C1553 C 0.06843 0.74482 0.54149 0.0
C1554 C 0.08558 0.72408 0.53849 0.0
C1555 C 0.07709 0.70123 0.52791 0.0
C1556 C 0.0514 0.69903 0.5204 0.0
C1557 C 0.95878 0.75756 0.43192 0.0
C1558 C 0.9698 0.74372 0.41351 0.0
C1559 C 0.96016 0.74798 0.4543 0.0
C1560 C 0.9727 0.72437 0.45888 0.0
C1561 C 0.98326 0.71008 0.44051 0.0
C1562 C 0.98154 0.71956 0.41789 0.0
C1563 C 0.97661 0.71651 0.48321 0.0
C1564 C 0.00204 0.71595 0.49186 0.0
C1565 C 0.95546 0.71511 0.4987 0.0
C1566 C 0.92825 0.71361 0.49031 0.0
C1567 C 0.92124 0.69529 0.47344 0.0
C1568 C 0.89571 0.69405 0.46537 0.0
C1569 C 0.87695 0.71099 0.47408 0.0
C1570 C 0.88368 0.72919 0.4909 0.0
C1571 C 0.90919 0.73053 0.49902 0.0
H1572 H 0.8572 0.71 0.4678 0.0
H1573 H 0.10547 0.72573 0.54431 0.0
H1574 H 0.27187 0.96108 0.58104 0.0
H1575 H 0.2942 0.95621 0.54453 0.0
H1576 H 0.34637 0.01848 0.5627 0.0
H1577 H 0.32376 0.02341 0.59992 0.0
H1578 H 0.32296 0.0259 0.52081 0.0
H1579 H 0.37272 0.95929 0.55343 0.0
H1580 H 0.38259 0.92117 0.57753 0.0
H1581 H 0.33103 0.8745 0.53678 0.0
H1582 H 0.3205 0.91237 0.51264 0.0
H1583 H 0.32891 0.9987 0.40023 0.0
H1584 H 0.35047 0.00086 0.43806 0.0
H1585 H 0.29284 0.94894 0.46605 0.0
H1586 H 0.27122 0.94714 0.42877 0.0
H1587 H 0.34283 0.94085 0.48476 0.0
H1588 H 0.28141 0.01262 0.46698 0.0
H1589 H 0.26845 0.05057 0.44372 0.0
H1590 H 0.34188 0.08684 0.45751 0.0
H1591 H 0.35534 0.04891 0.48064 0.0
C1592 C 0.28838 0.97349 0.57751 0.0
C1593 C 0.29595 0.99278 0.59322 0.0
C1594 C 0.30135 0.97049 0.55669 0.0
C1595 C 0.32222 0.98673 0.55096 0.0
C1596 C 0.33049 0.00555 0.56691 0.0
C1597 C 0.31761 0.00834 0.5881 0.0
C1598 C 0.33241 0.98576 0.52707 0.0
C1599 C 0.32844 0.00755 0.51301 0.0
C1600 C 0.33952 0.96184 0.51683 0.0
C1601 C 0.34589 0.93875 0.53113 0.0
C1602 C 0.3634 0.94093 0.54964 0.0
C1603 C 0.36911 0.91935 0.56332 0.0
C1604 C 0.35747 0.89543 0.55867 0.0
C1605 C 0.3401 0.89303 0.54032 0.0
C1606 C 0.33431 0.91455 0.52658 0.0
C1607 C 0.32142 0.98716 0.41434 0.0
C1608 C 0.29832 0.97294 0.41176 0.0
C1609 C 0.33369 0.98844 0.43588 0.0
C1610 C 0.32317 0.97515 0.45486 0.0
C1611 C 0.30138 0.95923 0.45164 0.0
C1612 C 0.28893 0.95834 0.43037 0.0
C1613 C 0.33167 0.98049 0.47877 0.0
C1614 C 0.33901 0.95951 0.49272 0.0
C1615 C 0.32763 0.00511 0.48896 0.0
C1616 C 0.31948 0.02789 0.47525 0.0
C1617 C 0.29482 0.02865 0.46491 0.0
C1618 C 0.28739 0.05014 0.45178 0.0
C1619 C 0.30436 0.07107 0.44908 0.0
C1620 C 0.32878 0.07058 0.45956 0.0
C1621 C 0.33633 0.0491 0.47267 0.0
H1622 H 0.29857 0.0877 0.43891 0.0
H1623 H 0.36191 0.87875 0.5693 0.0
H1624 H 0.53155 0.78908 0.89376 0.0
H1625 H 0.53347 0.80224 0.93446 0.0
H1626 H 0.47916 0.74164 0.95183 0.0
H1627 H 0.47754 0.72815 0.91161 0.0
H1628 H 0.49815 0.81585 0.97124 0.0
H1629 H 0.50519 0.70693 0.99414 0.0
H1630 H 0.51943 0.66597 0.97607 0.0
H1631 H 0.57251 0.70805 0.93298 0.0
H1632 H 0.55888 0.74918 0.95104 0.0
H1633 H 0.47228 0.78496 0.08908 0.0
H1634 H 0.47598 0.79507 0.04797 0.0
H1635 H 0.55507 0.7673 0.0483 0.0
H1636 H 0.55075 0.75583 0.08894 0.0
H1637 H 0.53051 0.74241 0.01847 0.0
H1638 H 0.53738 0.83244 0.03461 0.0
H1639 H 0.52604 0.87453 0.05214 0.0
H1640 H 0.4523 0.87335 0.0177 0.0
H1641 H 0.46304 0.83106 0.00021 0.0
C1642 C 0.51961 0.77898 0.90622 0.0
C1643 C 0.50481 0.75726 0.89964 0.0
C1644 C 0.52064 0.78658 0.9294 0.0
C1645 C 0.50677 0.77262 0.94613 0.0
C1646 C 0.49027 0.75243 0.9392 0.0
C1647 C 0.48946 0.74467 0.91622 0.0
C1648 C 0.51193 0.77643 0.97099 0.0
C1649 C 0.50534 0.79996 0.98169 0.0
C1650 C 0.52206 0.75589 0.98439 0.0
C1651 C 0.53086 0.73114 0.97383 0.0
C1652 C 0.52002 0.70741 0.98091 0.0
C1653 C 0.52796 0.68417 0.97065 0.0
C1654 C 0.54682 0.68441 0.95335 0.0
C1655 C 0.55786 0.70789 0.94634 0.0
C1656 C 0.55001 0.73117 0.95657 0.0
C1657 C 0.49068 0.78186 0.08047 0.0
C1658 C 0.51118 0.76946 0.09196 0.0
C1659 C 0.49285 0.78772 0.05698 0.0
C1660 C 0.5158 0.78184 0.04491 0.0
C1661 C 0.53708 0.77179 0.05712 0.0
C1662 C 0.53467 0.76532 0.08034 0.0
C1663 C 0.51622 0.7818 0.01928 0.0
C1664 C 0.52373 0.75871 0.00828 0.0
C1665 C 0.50753 0.803 0.00575 0.0
C1666 C 0.50097 0.82846 0.01621 0.0
C1667 C 0.51866 0.84104 0.0309 0.0
C1668 C 0.51235 0.86496 0.04081 0.0
C1669 C 0.48845 0.87658 0.03607 0.0
C1670 C 0.47081 0.86432 0.02137 0.0
C1671 C 0.47702 0.84039 0.01142 0.0
H1672 H 0.4836 0.8951 0.04376 0.0
H1673 H 0.55291 0.66641 0.9454 0.0
H1674 H 0.24812 0.47566 0.92142 0.0
H1675 H 0.22784 0.46678 0.95837 0.0
H1676 H 0.16678 0.52133 0.94278 0.0
H1677 H 0.18711 0.53014 0.9051 0.0
H1678 H 0.19167 0.53021 0.98528 0.0
H1679 H 0.14793 0.46098 0.9501 0.0
H1680 H 0.14145 0.42365 0.92415 0.0
H1681 H 0.19878 0.38019 0.96144 0.0
H1682 H 0.20594 0.41735 0.9874 0.0
H1683 H 0.19183 0.49195 0.10491 0.0
H1684 H 0.16975 0.49701 0.06747 0.0
H1685 H 0.23079 0.45314 0.03468 0.0
H1686 H 0.25282 0.44845 0.0715 0.0
H1687 H 0.18131 0.44147 0.01713 0.0
H1688 H 0.2356 0.51793 0.03794 0.0
H1689 H 0.24515 0.5556 0.06283 0.0
H1690 H 0.16815 0.58493 0.0517 0.0
H1691 H 0.15811 0.54723 0.02693 0.0
C1692 C 0.23015 0.4855 0.92564 0.0
C1693 C 0.21926 0.5037 0.91048 0.0
C1694 C 0.21843 0.48023 0.9467 0.0
C1695 C 0.19562 0.49316 0.95323 0.0
C1696 C 0.18423 0.51096 0.93793 0.0
C1697 C 0.19581 0.51594 0.91648 0.0
C1698 C 0.18614 0.48978 0.97714 0.0
C1699 C 0.18828 0.51096 0.99223 0.0
C1700 C 0.18169 0.46468 0.98619 0.0
C1701 C 0.1774 0.44202 0.97078 0.0
C1702 C 0.15924 0.4435 0.95273 0.0
C1703 C 0.15544 0.42236 0.93801 0.0
C1704 C 0.16967 0.39956 0.94117 0.0
C1705 C 0.18772 0.39785 0.95906 0.0
C1706 C 0.1916 0.41893 0.97384 0.0
C1707 C 0.20013 0.48299 0.08972 0.0
C1708 C 0.22414 0.47007 0.09097 0.0
C1709 C 0.18755 0.48588 0.06842 0.0
C1710 C 0.19867 0.47545 0.04833 0.0
C1711 C 0.22178 0.46119 0.04997 0.0
C1712 C 0.23447 0.45871 0.07099 0.0
C1713 C 0.18872 0.48158 0.02503 0.0
C1714 C 0.18303 0.46091 0.01012 0.0
C1715 C 0.18995 0.5071 0.0161 0.0
C1716 C 0.19602 0.52969 0.03089 0.0
C1717 C 0.22068 0.53235 0.04095 0.0
C1718 C 0.22618 0.5537 0.055 0.0
C1719 C 0.20724 0.57261 0.05891 0.0
C1720 C 0.18277 0.57024 0.04871 0.0
C1721 C 0.17717 0.54889 0.03468 0.0
H1722 H 0.21153 0.58913 0.06978 0.0
H1723 H 0.16672 0.38321 0.92974 0.0
H1724 H 0.47149 0.25291 0.08621 0.0
H1725 H 0.46136 0.23328 0.0492 0.0
H1726 H 0.51452 0.17062 0.06344 0.0
H1727 H 0.52455 0.19021 0.10119 0.0
H1728 H 0.52302 0.19607 0.02091 0.0
H1729 H 0.45388 0.1537 0.05788 0.0
H1730 H 0.41695 0.14826 0.08442 0.0
H1731 H 0.3737 0.20561 0.04694 0.0
H1732 H 0.41049 0.21173 0.02037 0.0
H1733 H 0.48741 0.1912 0.90269 0.0
H1734 H 0.49035 0.17073 0.94086 0.0
H1735 H 0.44319 0.232 0.96946 0.0
H1736 H 0.44024 0.25232 0.93173 0.0
H1737 H 0.43358 0.18538 0.99069 0.0
H1738 H 0.50906 0.23822 0.96664 0.0
H1739 H 0.54626 0.24707 0.94103 0.0
H1740 H 0.57719 0.17133 0.95525 0.0
H1741 H 0.53996 0.16198 0.98076 0.0
C1742 C 0.48081 0.23477 0.08167 0.0
C1743 C 0.49896 0.22318 0.0965 0.0
C1744 C 0.47482 0.22342 0.06057 0.0
C1745 C 0.48696 0.20034 0.05367 0.0
C1746 C 0.50476 0.18832 0.06859 0.0
C1747 C 0.51046 0.1995 0.09006 0.0
C1748 C 0.48275 0.19103 0.0298 0.0
C1749 C 0.50359 0.19266 0.01434 0.0
C1750 C 0.4574 0.18676 0.02125 0.0
C1751 C 0.43502 0.18314 0.03708 0.0
C1752 C 0.43655 0.16526 0.05534 0.0
C1753 C 0.41562 0.16205 0.0704 0.0
C1754 C 0.39299 0.17657 0.06736 0.0
C1755 C 0.39123 0.19433 0.04925 0.0
C1756 C 0.4121 0.19763 0.03414 0.0
C1757 C 0.47702 0.19978 0.91702 0.0
C1758 C 0.4639 0.22353 0.91437 0.0
C1759 C 0.47877 0.18812 0.9388 0.0
C1760 C 0.46725 0.20002 0.95805 0.0
C1761 C 0.45222 0.22244 0.95488 0.0
C1762 C 0.45069 0.23416 0.93331 0.0
C1763 C 0.4736 0.19203 0.98194 0.0
C1764 C 0.45315 0.18729 0.99735 0.0
C1765 C 0.49928 0.19362 0.9905 0.0
C1766 C 0.52164 0.19929 0.97532 0.0
C1767 C 0.52374 0.22342 0.96418 0.0
C1768 C 0.54481 0.22853 0.9497 0.0
C1769 C 0.56403 0.20974 0.94645 0.0
C1770 C 0.56225 0.18584 0.95773 0.0
C1771 C 0.54117 0.18062 0.97219 0.0
H1772 H 0.58034 0.21372 0.93525 0.0
H1773 H 0.37681 0.17406 0.07904 0.0
H1774 H 0.77581 0.5486 0.90701 0.0
H1775 H 0.78683 0.55629 0.94744 0.0
H1776 H 0.79521 0.47365 0.95769 0.0
H1777 H 0.78591 0.46632 0.91689 0.0
H1778 H 0.75748 0.54426 0.97901 0.0
H1779 H 0.82467 0.45782 0.0067 0.0
H1780 H 0.86371 0.43535 0.99236 0.0
H1781 H 0.8846 0.50264 0.95289 0.0
H1782 H 0.84591 0.52568 0.96724 0.0
H1783 H 0.72252 0.49883 0.08522 0.0
H1784 H 0.73725 0.50129 0.04552 0.0
H1785 H 0.81084 0.53204 0.06809 0.0
H1786 H 0.79629 0.52915 0.10839 0.0
H1787 H 0.81655 0.49732 0.03207 0.0
H1788 H 0.76804 0.57344 0.04703 0.0
H1789 H 0.73156 0.59953 0.06186 0.0
H1790 H 0.67933 0.56045 0.01582 0.0
H1791 H 0.71542 0.53383 0.00095 0.0
C1792 C 0.78121 0.53227 0.91775 0.0
C1793 C 0.78032 0.50694 0.90898 0.0
C1794 C 0.78731 0.5366 0.94088 0.0
C1795 C 0.7918 0.51559 0.95582 0.0
C1796 C 0.79245 0.49031 0.94659 0.0
C1797 C 0.78703 0.48606 0.92327 0.0
C1798 C 0.79128 0.51962 0.98126 0.0
C1799 C 0.77075 0.53426 0.99049 0.0
C1800 C 0.80878 0.50711 0.99651 0.0
C1801 C 0.83226 0.49343 0.98797 0.0
C1802 C 0.83767 0.4679 0.99508 0.0
C1803 C 0.85972 0.45504 0.98691 0.0
C1804 C 0.87659 0.46754 0.97169 0.0
C1805 C 0.87147 0.49295 0.96463 0.0
C1806 C 0.84945 0.5059 0.97274 0.0
C1807 C 0.7419 0.50604 0.08187 0.0
C1808 C 0.75811 0.51412 0.09999 0.0
C1809 C 0.7503 0.50744 0.05911 0.0
C1810 C 0.77494 0.51732 0.05381 0.0
C1811 C 0.79168 0.52448 0.07183 0.0
C1812 C 0.78332 0.52289 0.0948 0.0
C1813 C 0.78227 0.52095 0.0293 0.0
C1814 C 0.80388 0.50774 0.02038 0.0
C1815 C 0.76626 0.53541 0.01425 0.0
C1816 C 0.74445 0.55156 0.02294 0.0
C1817 C 0.74875 0.57031 0.04015 0.0
C1818 C 0.72814 0.5852 0.04856 0.0
C1819 C 0.70314 0.58164 0.0398 0.0
C1820 C 0.69871 0.5632 0.02258 0.0
C1821 C 0.71925 0.54823 0.01413 0.0
H1822 H 0.68721 0.59318 0.04634 0.0
H1823 H 0.89365 0.45755 0.96538 0.0
loop_
_geom_bond_atom_site_label_1
_geom_bond_atom_site_label_2
_geom_bond_distance
_geom_bond_site_symmetry_2
_ccdc_geom_bond_type
Zn0 O3 2.031 . S
Zn0 O5 2.049 . S
Zn0 O10 2.057 1_455 S
Zn1 O2 1.962 . S
Zn1 O4 1.986 . S
Zn1 O6 1.996 . S
Zn1 O9 1.943 . S
O2 Zn1 1.962 . S
O2 C7 1.254 . S
O3 Zn0 2.031 . S
O3 C7 1.269 . S
O4 Zn1 1.986 . S
O4 C11 1.262 . S
O5 Zn0 2.049 . S
O5 C13 1.260 . S
O6 Zn1 1.996 . S
O6 C13 1.257 . S
C7 O2 1.254 . S
C7 O3 1.269 . S
C8 O9 1.249 1_655 S
C8 O10 1.275 . S
O9 Zn1 1.943 . S
O9 C8 1.249 1_455 S
O10 Zn0 2.057 1_655 S
O10 C8 1.275 . S
C11 O4 1.262 . S
C11 O12 1.232 . S
O12 C11 1.232 . S
C13 O5 1.260 . S
C13 O6 1.257 . S
Zn14 O17 2.031 . S
Zn14 O19 2.049 . S
Zn14 O24 2.057 1_545 S
Zn15 O16 1.962 . S
Zn15 O18 1.986 . S
Zn15 O20 1.996 . S
Zn15 O23 1.943 . S
O16 Zn15 1.962 . S
O16 C21 1.254 . S
O17 Zn14 2.031 . S
O17 C21 1.269 . S
O18 Zn15 1.986 . S
O18 C25 1.262 . S
O19 Zn14 2.049 . S
O19 C27 1.260 . S
O20 Zn15 1.996 . S
O20 C27 1.257 . S
C21 O16 1.254 . S
C21 O17 1.269 . S
C22 O23 1.249 1_565 S
C22 O24 1.275 . S
O23 Zn15 1.943 . S
O23 C22 1.249 1_545 S
O24 Zn14 2.057 1_565 S
O24 C22 1.275 . S
C25 O18 1.262 . S
C25 O26 1.232 . S
O26 C25 1.232 . S
C27 O19 1.260 . S
C27 O20 1.257 . S
Zn28 O31 2.031 . S
Zn28 O33 2.049 . S
Zn28 O38 2.057 1_655 S
Zn29 O30 1.962 . S
Zn29 O32 1.986 . S
Zn29 O34 1.996 . S
Zn29 O37 1.943 . S
O30 Zn29 1.962 . S
O30 C35 1.254 . S
O31 Zn28 2.031 . S
O31 C35 1.269 . S
O32 Zn29 1.986 . S
O32 C39 1.262 . S
O33 Zn28 2.049 . S
O33 C41 1.260 . S
O34 Zn29 1.996 . S
O34 C41 1.257 . S
C35 O30 1.254 . S
C35 O31 1.269 . S
C36 O37 1.249 1_455 S
C36 O38 1.275 . S
O37 Zn29 1.943 . S
O37 C36 1.249 1_655 S
O38 Zn28 2.057 1_455 S
O38 C36 1.275 . S
C39 O32 1.262 . S
C39 O40 1.232 . S
O40 C39 1.232 . S
C41 O33 1.260 . S
C41 O34 1.257 . S
Zn42 O45 2.031 . S
Zn42 O47 2.049 . S
Zn42 O52 2.057 1_565 S
Zn43 O44 1.962 . S
Zn43 O46 1.986 . S
Zn43 O48 1.996 . S
Zn43 O51 1.943 . S
O44 Zn43 1.962 . S
O44 C49 1.254 . S
O45 Zn42 2.031 . S
O45 C49 1.269 . S
O46 Zn43 1.986 . S
O46 C53 1.262 . S
O47 Zn42 2.049 . S
O47 C55 1.260 . S
O48 Zn43 1.996 . S
O48 C55 1.257 . S
C49 O44 1.254 . S
C49 O45 1.269 . S
C50 O51 1.249 1_545 S
C50 O52 1.275 . S
O51 Zn43 1.943 . S
O51 C50 1.249 1_565 S
O52 Zn42 2.057 1_545 S
O52 C50 1.275 . S
C53 O46 1.262 . S
C53 O54 1.232 . S
O54 C53 1.232 . S
C55 O47 1.260 . S
C55 O48 1.257 . S
Zn56 O59 2.031 . S
Zn56 O61 2.049 . S
Zn56 O66 2.057 1_455 S
Zn57 O58 1.962 . S
Zn57 O60 1.986 . S
Zn57 O62 1.996 . S
Zn57 O65 1.943 . S
O58 Zn57 1.962 . S
O58 C63 1.254 . S
O59 Zn56 2.031 . S
O59 C63 1.269 . S
O60 Zn57 1.986 . S
O60 C67 1.262 . S
O61 Zn56 2.049 . S
O61 C69 1.260 . S
O62 Zn57 1.996 . S
O62 C69 1.257 . S
C63 O58 1.254 . S
C63 O59 1.269 . S
C64 O65 1.249 1_655 S
C64 O66 1.275 . S
O65 Zn57 1.943 . S
O65 C64 1.249 1_455 S
O66 Zn56 2.057 1_655 S
O66 C64 1.275 . S
C67 O60 1.262 . S
C67 O68 1.232 . S
O68 C67 1.232 . S
C69 O61 1.260 . S
C69 O62 1.257 . S
Zn70 O73 2.031 . S
Zn70 O75 2.049 . S
Zn70 O80 2.057 1_545 S
Zn71 O72 1.962 . S
Zn71 O74 1.986 . S
Zn71 O76 1.996 . S
Zn71 O79 1.943 . S
O72 Zn71 1.962 . S
O72 C77 1.254 . S
O73 Zn70 2.031 . S
O73 C77 1.269 . S
O74 Zn71 1.986 . S
O74 C81 1.262 . S
O75 Zn70 2.049 . S
O75 C83 1.260 . S
O76 Zn71 1.996 . S
O76 C83 1.257 . S
C77 O72 1.254 . S
C77 O73 1.269 . S
C78 O79 1.249 1_565 S
C78 O80 1.275 . S
O79 Zn71 1.943 . S
O79 C78 1.249 1_545 S
O80 Zn70 2.057 1_565 S
O80 C78 1.275 . S
C81 O74 1.262 . S
C81 O82 1.232 . S
O82 C81 1.232 . S
C83 O75 1.260 . S
C83 O76 1.257 . S
Zn84 O87 2.031 . S
Zn84 O89 2.049 . S
Zn84 O94 2.057 1_655 S
Zn85 O86 1.962 . S
Zn85 O88 1.986 . S
Zn85 O90 1.996 . S
Zn85 O93 1.943 . S
O86 Zn85 1.962 . S
O86 C91 1.254 . S
O87 Zn84 2.031 . S
O87 C91 1.269 . S
O88 Zn85 1.986 . S
O88 C95 1.262 . S
O89 Zn84 2.049 . S
O89 C97 1.260 . S
O90 Zn85 1.996 . S
O90 C97 1.257 . S
C91 O86 1.254 . S
C91 O87 1.269 . S
C92 O93 1.249 1_455 S
C92 O94 1.275 . S
O93 Zn85 1.943 . S
O93 C92 1.249 1_655 S
O94 Zn84 2.057 1_455 S
O94 C92 1.275 . S
C95 O88 1.262 . S
C95 O96 1.232 . S
O96 C95 1.232 . S
C97 O89 1.260 . S
C97 O90 1.257 . S
Zn98 O101 2.031 . S
Zn98 O103 2.049 . S
Zn98 O108 2.057 1_565 S
Zn99 O100 1.962 . S
Zn99 O102 1.986 . S
Zn99 O104 1.996 . S
Zn99 O107 1.943 . S
O100 Zn99 1.962 . S
O100 C105 1.254 . S
O101 Zn98 2.031 . S
O101 C105 1.269 . S
O102 Zn99 1.986 . S
O102 C109 1.262 . S
O103 Zn98 2.049 . S
O103 C111 1.260 . S
O104 Zn99 1.996 . S
O104 C111 1.257 . S
C105 O100 1.254 . S
C105 O101 1.269 . S
C106 O107 1.249 1_545 S
C106 O108 1.275 . S
O107 Zn99 1.943 . S
O107 C106 1.249 1_565 S
O108 Zn98 2.057 1_545 S
O108 C106 1.275 . S
C109 O102 1.262 . S
C109 O110 1.232 . S
O110 C109 1.232 . S
C111 O103 1.260 . S
C111 O104 1.257 . S
Zn112 O115 2.031 . S
Zn112 O117 2.049 . S
Zn112 O122 2.067 . S
Zn113 O114 1.962 . S
Zn113 O116 1.986 . S
Zn113 O118 1.996 . S
Zn113 O121 1.943 . S
O114 Zn113 1.962 . S
O114 C119 1.254 . S
O115 Zn112 2.031 . S
O115 C119 1.269 . S
O116 Zn113 1.986 . S
O116 C123 1.262 . S
O117 Zn112 2.049 . S
O117 C125 1.260 . S
O118 Zn113 1.996 . S
O118 C125 1.257 . S
C119 O114 1.254 . S
C119 O115 1.269 . S
C120 O121 1.249 . S
C120 O122 1.270 . S
O121 Zn113 1.943 . S
O121 C120 1.249 . S
O122 Zn112 2.067 . S
O122 C120 1.270 . S
C123 O116 1.262 . S
C123 O124 1.232 . S
O124 C123 1.232 . S
C125 O117 1.260 . S
C125 O118 1.257 . S
Zn126 O129 2.031 . S
Zn126 O131 2.049 . S
Zn126 O136 2.067 . S
Zn127 O128 1.962 . S
Zn127 O130 1.986 . S
Zn127 O132 1.996 . S
Zn127 O135 1.943 . S
O128 Zn127 1.962 . S
O128 C133 1.254 . S
O129 Zn126 2.031 . S
O129 C133 1.269 . S
O130 Zn127 1.986 . S
O130 C137 1.262 . S
O131 Zn126 2.049 . S
O131 C139 1.260 . S
O132 Zn127 1.996 . S
O132 C139 1.257 . S
C133 O128 1.254 . S
C133 O129 1.269 . S
C134 O135 1.249 . S
C134 O136 1.270 . S
O135 Zn127 1.943 . S
O135 C134 1.249 . S
O136 Zn126 2.067 . S
O136 C134 1.270 . S
C137 O130 1.262 . S
C137 O138 1.232 . S
O138 C137 1.232 . S
C139 O131 1.260 . S
C139 O132 1.257 . S
Zn140 O143 2.031 . S
Zn140 O145 2.049 . S
Zn140 O150 2.067 . S
Zn141 O142 1.962 . S
Zn141 O144 1.986 . S
Zn141 O146 1.996 . S
Zn141 O149 1.943 . S
O142 Zn141 1.962 . S
O142 C147 1.254 . S
O143 Zn140 2.031 . S
O143 C147 1.269 . S
O144 Zn141 1.986 . S
O144 C151 1.262 . S
O145 Zn140 2.049 . S
O145 C153 1.260 . S
O146 Zn141 1.996 . S
O146 C153 1.257 . S
C147 O142 1.254 . S
C147 O143 1.269 . S
C148 O149 1.249 . S
C148 O150 1.270 . S
O149 Zn141 1.943 . S
O149 C148 1.249 . S
O150 Zn140 2.067 . S
O150 C148 1.270 . S
C151 O144 1.262 . S
C151 O152 1.232 . S
O152 C151 1.232 . S
C153 O145 1.260 . S
C153 O146 1.257 . S
Zn154 O157 2.031 . S
Zn154 O159 2.049 . S
Zn154 O164 2.067 . S
Zn155 O156 1.962 . S
Zn155 O158 1.986 . S
Zn155 O160 1.996 . S
Zn155 O163 1.943 . S
O156 Zn155 1.962 . S
O156 C161 1.254 . S
O157 Zn154 2.031 . S
O157 C161 1.269 . S
O158 Zn155 1.986 . S
O158 C165 1.262 . S
O159 Zn154 2.049 . S
O159 C167 1.260 . S
O160 Zn155 1.996 . S
O160 C167 1.257 . S
C161 O156 1.254 . S
C161 O157 1.269 . S
C162 O163 1.249 . S
C162 O164 1.270 . S
O163 Zn155 1.943 . S
O163 C162 1.249 . S
O164 Zn154 2.067 . S
O164 C162 1.270 . S
C165 O158 1.262 . S
C165 O166 1.232 . S
O166 C165 1.232 . S
C167 O159 1.260 . S
C167 O160 1.257 . S
Zn168 O171 2.031 . S
Zn168 O173 2.049 . S
Zn168 O178 2.067 . S
Zn169 O170 1.962 . S
Zn169 O172 1.986 . S
Zn169 O174 1.996 . S
Zn169 O177 1.943 . S
O170 Zn169 1.962 . S
O170 C175 1.254 . S
O171 Zn168 2.031 . S
O171 C175 1.269 . S
O172 Zn169 1.986 . S
O172 C179 1.262 . S
O173 Zn168 2.049 . S
O173 C181 1.260 . S
O174 Zn169 1.996 . S
O174 C181 1.257 . S
C175 O170 1.254 . S
C175 O171 1.269 . S
C176 O177 1.249 . S
C176 O178 1.270 . S
O177 Zn169 1.943 . S
O177 C176 1.249 . S
O178 Zn168 2.067 . S
O178 C176 1.270 . S
C179 O172 1.262 . S
C179 O180 1.232 . S
O180 C179 1.232 . S
C181 O173 1.260 . S
C181 O174 1.257 . S
Zn182 O185 2.031 . S
Zn182 O187 2.049 . S
Zn182 O192 2.067 . S
Zn183 O184 1.962 . S
Zn183 O186 1.986 . S
Zn183 O188 1.996 . S
Zn183 O191 1.943 . S
O184 Zn183 1.962 . S
O184 C189 1.254 . S
O185 Zn182 2.031 . S
O185 C189 1.269 . S
O186 Zn183 1.986 . S
O186 C193 1.262 . S
O187 Zn182 2.049 . S
O187 C195 1.260 . S
O188 Zn183 1.996 . S
O188 C195 1.257 . S
C189 O184 1.254 . S
C189 O185 1.269 . S
C190 O191 1.249 . S
C190 O192 1.270 . S
O191 Zn183 1.943 . S
O191 C190 1.249 . S
O192 Zn182 2.067 . S
O192 C190 1.270 . S
C193 O186 1.262 . S
C193 O194 1.232 . S
O194 C193 1.232 . S
C195 O187 1.260 . S
C195 O188 1.257 . S
Zn196 O199 2.031 . S
Zn196 O201 2.049 . S
Zn196 O206 2.067 . S
Zn197 O198 1.962 . S
Zn197 O200 1.986 . S
Zn197 O202 1.996 . S
Zn197 O205 1.943 . S
O198 Zn197 1.962 . S
O198 C203 1.254 . S
O199 Zn196 2.031 . S
O199 C203 1.269 . S
O200 Zn197 1.986 . S
O200 C207 1.262 . S
O201 Zn196 2.049 . S
O201 C209 1.260 . S
O202 Zn197 1.996 . S
O202 C209 1.257 . S
C203 O198 1.254 . S
C203 O199 1.269 . S
C204 O205 1.249 . S
C204 O206 1.270 . S
O205 Zn197 1.943 . S
O205 C204 1.249 . S
O206 Zn196 2.067 . S
O206 C204 1.270 . S
C207 O200 1.262 . S
C207 O208 1.232 . S
O208 C207 1.232 . S
C209 O201 1.260 . S
C209 O202 1.257 . S
Zn210 O213 2.031 . S
Zn210 O215 2.049 . S
Zn210 O220 2.067 . S
Zn211 O212 1.962 . S
Zn211 O214 1.986 . S
Zn211 O216 1.996 . S
Zn211 O219 1.943 . S
O212 Zn211 1.962 . S
O212 C217 1.254 . S
O213 Zn210 2.031 . S
O213 C217 1.269 . S
O214 Zn211 1.986 . S
O214 C221 1.262 . S
O215 Zn210 2.049 . S
O215 C223 1.260 . S
O216 Zn211 1.996 . S
O216 C223 1.257 . S
C217 O212 1.254 . S
C217 O213 1.269 . S
C218 O219 1.249 . S
C218 O220 1.270 . S
O219 Zn211 1.943 . S
O219 C218 1.249 . S
O220 Zn210 2.067 . S
O220 C218 1.270 . S
C221 O214 1.262 . S
C221 O222 1.232 . S
O222 C221 1.232 . S
C223 O215 1.260 . S
C223 O216 1.257 . S
H224 C242 0.951 . S
H225 C244 0.951 . S
H226 C246 0.950 . S
H227 C247 0.950 . S
H228 C249 0.950 . S
H229 C252 0.950 . S
H230 C253 0.950 . S
H231 C255 0.950 . S
H232 C256 0.950 . S
H233 C257 0.951 . S
H234 C259 0.951 . S
H235 C261 0.950 . S
H236 C262 0.950 . S
H237 C264 0.950 . S
H238 C267 0.950 . S
H239 C268 0.950 . S
H240 C270 0.950 . S
H241 C271 0.950 . S
C242 H224 0.951 . S
C242 C243 1.366 . S
C242 C244 1.388 . S
C243 C242 1.366 . S
C243 C247 1.385 . S
C244 H225 0.951 . S
C244 C242 1.388 . S
C244 C245 1.366 . S
C245 C244 1.366 . S
C245 C246 1.414 . S
C245 C248 1.499 . S
C246 H226 0.950 . S
C246 C245 1.414 . S
C246 C247 1.374 . S
C247 H227 0.950 . S
C247 C243 1.385 . S
C247 C246 1.374 . S
C248 C245 1.499 . S
C248 C249 1.373 . S
C248 C250 1.389 . S
C249 H228 0.950 . S
C249 C248 1.373 . S
C249 C265 1.377 . S
C250 C248 1.389 . S
C250 C251 1.524 . S
C250 C264 1.377 . S
C251 C250 1.524 . S
C251 C252 1.397 . S
C251 C256 1.363 . S
C252 H229 0.950 . S
C252 C251 1.397 . S
C252 C253 1.334 . S
C253 H230 0.950 . S
C253 C252 1.334 . S
C253 C254 1.287 . S
C254 C253 1.287 . S
C254 C255 1.524 . S
C254 H273 0.913 . S
C255 H231 0.950 . S
C255 C254 1.524 . S
C255 C256 1.415 . S
C256 H232 0.950 . S
C256 C251 1.363 . S
C256 C255 1.415 . S
C257 H233 0.951 . S
C257 C258 1.366 . S
C257 C259 1.388 . S
C258 C257 1.366 . S
C258 C262 1.385 . S
C259 H234 0.951 . S
C259 C257 1.388 . S
C259 C260 1.366 . S
C260 C259 1.366 . S
C260 C261 1.414 . S
C260 C263 1.499 . S
C261 H235 0.950 . S
C261 C260 1.414 . S
C261 C262 1.374 . S
C262 H236 0.950 . S
C262 C258 1.385 . S
C262 C261 1.374 . S
C263 C260 1.499 . S
C263 C264 1.373 . S
C263 C265 1.389 . S
C264 H237 0.950 . S
C264 C250 1.377 . S
C264 C263 1.373 . S
C265 C249 1.377 . S
C265 C263 1.389 . S
C265 C266 1.524 . S
C266 C265 1.524 . S
C266 C267 1.397 . S
C266 C271 1.363 . S
C267 H238 0.950 . S
C267 C266 1.397 . S
C267 C268 1.334 . S
C268 H239 0.950 . S
C268 C267 1.334 . S
C268 C269 1.287 . S
C269 C268 1.287 . S
C269 C270 1.524 . S
C269 H272 0.999 . S
C270 H240 0.950 . S
C270 C269 1.524 . S
C270 C271 1.415 . S
C271 H241 0.950 . S
C271 C266 1.363 . S
C271 C270 1.415 . S
H272 C269 0.999 . S
H273 C254 0.913 . S
H274 C292 0.951 . S
H275 C294 0.951 . S
H276 C296 0.950 . S
H277 C297 0.950 . S
H278 C299 0.950 . S
H279 C302 0.950 . S
H280 C303 0.950 . S
H281 C305 0.950 . S
H282 C306 0.950 . S
H283 C307 0.951 . S
H284 C309 0.951 . S
H285 C311 0.950 . S
H286 C312 0.950 . S
H287 C314 0.950 . S
H288 C317 0.950 . S
H289 C318 0.950 . S
H290 C320 0.950 . S
H291 C321 0.950 . S
C292 H274 0.951 . S
C292 C293 1.366 . S
C292 C294 1.388 . S
C293 C292 1.366 . S
C293 C297 1.385 . S
C294 H275 0.951 . S
C294 C292 1.388 . S
C294 C295 1.366 . S
C295 C294 1.366 . S
C295 C296 1.414 . S
C295 C298 1.499 . S
C296 H276 0.950 . S
C296 C295 1.414 . S
C296 C297 1.374 . S
C297 H277 0.950 . S
C297 C293 1.385 . S
C297 C296 1.374 . S
C298 C295 1.499 . S
C298 C299 1.373 . S
C298 C300 1.389 . S
C299 H278 0.950 . S
C299 C298 1.373 . S
C299 C315 1.377 . S
C300 C298 1.389 . S
C300 C301 1.524 . S
C300 C314 1.377 . S
C301 C300 1.524 . S
C301 C302 1.397 . S
C301 C306 1.363 . S
C302 H279 0.950 . S
C302 C301 1.397 . S
C302 C303 1.334 . S
C303 H280 0.950 . S
C303 C302 1.334 . S
C303 C304 1.287 . S
C304 C303 1.287 . S
C304 C305 1.524 . S
C304 H323 0.913 . S
C305 H281 0.950 . S
C305 C304 1.524 . S
C305 C306 1.415 . S
C306 H282 0.950 . S
C306 C301 1.363 . S
C306 C305 1.415 . S
C307 H283 0.951 . S
C307 C308 1.366 . S
C307 C309 1.388 . S
C308 C307 1.366 . S
C308 C312 1.385 . S
C309 H284 0.951 . S
C309 C307 1.388 . S
C309 C310 1.366 . S
C310 C309 1.366 . S
C310 C311 1.414 . S
C310 C313 1.499 . S
C311 H285 0.950 . S
C311 C310 1.414 . S
C311 C312 1.374 . S
C312 H286 0.950 . S
C312 C308 1.385 . S
C312 C311 1.374 . S
C313 C310 1.499 . S
C313 C314 1.373 . S
C313 C315 1.389 . S
C314 H287 0.950 . S
C314 C300 1.377 . S
C314 C313 1.373 . S
C315 C299 1.377 . S
C315 C313 1.389 . S
C315 C316 1.524 . S
C316 C315 1.524 . S
C316 C317 1.397 . S
C316 C321 1.363 . S
C317 H288 0.950 . S
C317 C316 1.397 . S
C317 C318 1.334 . S
C318 H289 0.950 . S
C318 C317 1.334 . S
C318 C319 1.287 . S
C319 C318 1.287 . S
C319 C320 1.524 . S
C319 H322 0.999 . S
C320 H290 0.950 . S
C320 C319 1.524 . S
C320 C321 1.415 . S
C321 H291 0.950 . S
C321 C316 1.363 . S
C321 C320 1.415 . S
H322 C319 0.999 . S
H323 C304 0.913 . S
H324 C342 0.951 . S
H325 C344 0.951 . S
H326 C346 0.950 . S
H327 C347 0.950 . S
H328 C349 0.950 . S
H329 C352 0.950 . S
H330 C353 0.950 . S
H331 C355 0.950 . S
H332 C356 0.950 . S
H333 C357 0.951 . S
H334 C359 0.951 . S
H335 C361 0.950 . S
H336 C362 0.950 . S
H337 C364 0.950 . S
H338 C367 0.950 . S
H339 C368 0.950 . S
H340 C370 0.950 . S
H341 C371 0.950 . S
C342 H324 0.951 . S
C342 C343 1.366 . S
C342 C344 1.388 . S
C343 C342 1.366 . S
C343 C347 1.385 . S
C344 H325 0.951 . S
C344 C342 1.388 . S
C344 C345 1.366 . S
C345 C344 1.366 . S
C345 C346 1.414 . S
C345 C348 1.499 . S
C346 H326 0.950 . S
C346 C345 1.414 . S
C346 C347 1.374 . S
C347 H327 0.950 . S
C347 C343 1.385 . S
C347 C346 1.374 . S
C348 C345 1.499 . S
C348 C349 1.373 . S
C348 C350 1.389 . S
C349 H328 0.950 . S
C349 C348 1.373 . S
C349 C365 1.377 . S
C350 C348 1.389 . S
C350 C351 1.524 . S
C350 C364 1.377 . S
C351 C350 1.524 . S
C351 C352 1.397 . S
C351 C356 1.363 . S
C352 H329 0.950 . S
C352 C351 1.397 . S
C352 C353 1.334 . S
C353 H330 0.950 . S
C353 C352 1.334 . S
C353 C354 1.287 . S
C354 C353 1.287 . S
C354 C355 1.524 . S
C354 H373 0.913 . S
C355 H331 0.950 . S
C355 C354 1.524 . S
C355 C356 1.415 . S
C356 H332 0.950 . S
C356 C351 1.363 . S
C356 C355 1.415 . S
C357 H333 0.951 . S
C357 C358 1.366 . S
C357 C359 1.388 . S
C358 C357 1.366 . S
C358 C362 1.385 . S
C359 H334 0.951 . S
C359 C357 1.388 . S
C359 C360 1.366 . S
C360 C359 1.366 . S
C360 C361 1.414 . S
C360 C363 1.499 . S
C361 H335 0.950 . S
C361 C360 1.414 . S
C361 C362 1.374 . S
C362 H336 0.950 . S
C362 C358 1.385 . S
C362 C361 1.374 . S
C363 C360 1.499 . S
C363 C364 1.373 . S
C363 C365 1.389 . S
C364 H337 0.950 . S
C364 C350 1.377 . S
C364 C363 1.373 . S
C365 C349 1.377 . S
C365 C363 1.389 . S
C365 C366 1.524 . S
C366 C365 1.524 . S
C366 C367 1.397 . S
C366 C371 1.363 . S
C367 H338 0.950 . S
C367 C366 1.397 . S
C367 C368 1.334 . S
C368 H339 0.950 . S
C368 C367 1.334 . S
C368 C369 1.287 . S
C369 C368 1.287 . S
C369 C370 1.524 . S
C369 H372 0.999 . S
C370 H340 0.950 . S
C370 C369 1.524 . S
C370 C371 1.415 . S
C371 H341 0.950 . S
C371 C366 1.363 . S
C371 C370 1.415 . S
H372 C369 0.999 . S
H373 C354 0.913 . S
H374 C392 0.951 . S
H375 C394 0.951 . S
H376 C396 0.950 . S
H377 C397 0.950 . S
H378 C399 0.950 . S
H379 C402 0.950 . S
H380 C403 0.950 . S
H381 C405 0.950 . S
H382 C406 0.950 . S
H383 C407 0.951 . S
H384 C409 0.951 . S
H385 C411 0.950 . S
H386 C412 0.950 . S
H387 C414 0.950 . S
H388 C417 0.950 . S
H389 C418 0.950 . S
H390 C420 0.950 . S
H391 C421 0.950 . S
C392 H374 0.951 . S
C392 C393 1.366 . S
C392 C394 1.388 . S
C393 C392 1.366 . S
C393 C397 1.385 . S
C394 H375 0.951 . S
C394 C392 1.388 . S
C394 C395 1.366 . S
C395 C394 1.366 . S
C395 C396 1.414 . S
C395 C398 1.499 . S
C396 H376 0.950 . S
C396 C395 1.414 . S
C396 C397 1.374 . S
C397 H377 0.950 . S
C397 C393 1.385 . S
C397 C396 1.374 . S
C398 C395 1.499 . S
C398 C399 1.373 . S
C398 C400 1.389 . S
C399 H378 0.950 . S
C399 C398 1.373 . S
C399 C415 1.377 . S
C400 C398 1.389 . S
C400 C401 1.524 . S
C400 C414 1.377 . S
C401 C400 1.524 . S
C401 C402 1.397 . S
C401 C406 1.363 . S
C402 H379 0.950 . S
C402 C401 1.397 . S
C402 C403 1.334 . S
C403 H380 0.950 . S
C403 C402 1.334 . S
C403 C404 1.287 . S
C404 C403 1.287 . S
C404 C405 1.524 . S
C404 H423 0.913 . S
C405 H381 0.950 . S
C405 C404 1.524 . S
C405 C406 1.415 . S
C406 H382 0.950 . S
C406 C401 1.363 . S
C406 C405 1.415 . S
C407 H383 0.951 . S
C407 C408 1.366 . S
C407 C409 1.388 . S
C408 C407 1.366 . S
C408 C412 1.385 . S
C409 H384 0.951 . S
C409 C407 1.388 . S
C409 C410 1.366 . S
C410 C409 1.366 . S
C410 C411 1.414 . S
C410 C413 1.499 . S
C411 H385 0.950 . S
C411 C410 1.414 . S
C411 C412 1.374 . S
C412 H386 0.950 . S
C412 C408 1.385 . S
C412 C411 1.374 . S
C413 C410 1.499 . S
C413 C414 1.373 . S
C413 C415 1.389 . S
C414 H387 0.950 . S
C414 C400 1.377 . S
C414 C413 1.373 . S
C415 C399 1.377 . S
C415 C413 1.389 . S
C415 C416 1.524 . S
C416 C415 1.524 . S
C416 C417 1.397 . S
C416 C421 1.363 . S
C417 H388 0.950 . S
C417 C416 1.397 . S
C417 C418 1.334 . S
C418 H389 0.950 . S
C418 C417 1.334 . S
C418 C419 1.287 . S
C419 C418 1.287 . S
C419 C420 1.524 . S
C419 H422 0.999 . S
C420 H390 0.950 . S
C420 C419 1.524 . S
C420 C421 1.415 . S
C421 H391 0.950 . S
C421 C416 1.363 . S
C421 C420 1.415 . S
H422 C419 0.999 . S
H423 C404 0.913 . S
H424 C442 0.951 . S
H425 C444 0.951 . S
H426 C446 0.950 . S
H427 C447 0.950 . S
H428 C449 0.950 . S
H429 C452 0.950 . S
H430 C453 0.950 . S
H431 C455 0.950 . S
H432 C456 0.950 . S
H433 C457 0.951 . S
H434 C459 0.951 . S
H435 C461 0.950 . S
H436 C462 0.950 . S
H437 C464 0.950 . S
H438 C467 0.950 . S
H439 C468 0.950 . S
H440 C470 0.950 . S
H441 C471 0.950 . S
C442 H424 0.951 . S
C442 C443 1.366 . S
C442 C444 1.388 . S
C443 C442 1.366 . S
C443 C447 1.385 . S
C444 H425 0.951 . S
C444 C442 1.388 . S
C444 C445 1.366 . S
C445 C444 1.366 . S
C445 C446 1.414 . S
C445 C448 1.499 . S
C446 H426 0.950 . S
C446 C445 1.414 . S
C446 C447 1.374 . S
C447 H427 0.950 . S
C447 C443 1.385 . S
C447 C446 1.374 . S
C448 C445 1.499 . S
C448 C449 1.373 . S
C448 C450 1.389 . S
C449 H428 0.950 . S
C449 C448 1.373 . S
C449 C465 1.377 . S
C450 C448 1.389 . S
C450 C451 1.524 . S
C450 C464 1.377 . S
C451 C450 1.524 . S
C451 C452 1.397 . S
C451 C456 1.363 . S
C452 H429 0.950 . S
C452 C451 1.397 . S
C452 C453 1.334 . S
C453 H430 0.950 . S
C453 C452 1.334 . S
C453 C454 1.287 . S
C454 C453 1.287 . S
C454 C455 1.524 . S
C454 H473 0.913 . S
C455 H431 0.950 . S
C455 C454 1.524 . S
C455 C456 1.415 . S
C456 H432 0.950 . S
C456 C451 1.363 . S
C456 C455 1.415 . S
C457 H433 0.951 . S
C457 C458 1.366 . S
C457 C459 1.388 . S
C458 C457 1.366 . S
C458 C462 1.385 . S
C459 H434 0.951 . S
C459 C457 1.388 . S
C459 C460 1.366 . S
C460 C459 1.366 . S
C460 C461 1.414 . S
C460 C463 1.499 . S
C461 H435 0.950 . S
C461 C460 1.414 . S
C461 C462 1.374 . S
C462 H436 0.950 . S
C462 C458 1.385 . S
C462 C461 1.374 . S
C463 C460 1.499 . S
C463 C464 1.373 . S
C463 C465 1.389 . S
C464 H437 0.950 . S
C464 C450 1.377 . S
C464 C463 1.373 . S
C465 C449 1.377 . S
C465 C463 1.389 . S
C465 C466 1.524 . S
C466 C465 1.524 . S
C466 C467 1.397 . S
C466 C471 1.363 . S
C467 H438 0.950 . S
C467 C466 1.397 . S
C467 C468 1.334 . S
C468 H439 0.950 . S
C468 C467 1.334 . S
C468 C469 1.287 . S
C469 C468 1.287 . S
C469 C470 1.524 . S
C469 H472 0.999 . S
C470 H440 0.950 . S
C470 C469 1.524 . S
C470 C471 1.415 . S
C471 H441 0.950 . S
C471 C466 1.363 . S
C471 C470 1.415 . S
H472 C469 0.999 . S
H473 C454 0.913 . S
H474 C492 0.951 . S
H475 C494 0.951 . S
H476 C496 0.950 . S
H477 C497 0.950 . S
H478 C499 0.950 . S
H479 C502 0.950 . S
H480 C503 0.950 . S
H481 C505 0.950 . S
H482 C506 0.950 . S
H483 C507 0.951 . S
H484 C509 0.951 . S
H485 C511 0.950 . S
H486 C512 0.950 . S
H487 C514 0.950 . S
H488 C517 0.950 . S
H489 C518 0.950 . S
H490 C520 0.950 . S
H491 C521 0.950 . S
C492 H474 0.951 . S
C492 C493 1.366 . S
C492 C494 1.388 . S
C493 C492 1.366 . S
C493 C497 1.385 . S
C494 H475 0.951 . S
C494 C492 1.388 . S
C494 C495 1.366 . S
C495 C494 1.366 . S
C495 C496 1.414 . S
C495 C498 1.499 . S
C496 H476 0.950 . S
C496 C495 1.414 . S
C496 C497 1.374 . S
C497 H477 0.950 . S
C497 C493 1.385 . S
C497 C496 1.374 . S
C498 C495 1.499 . S
C498 C499 1.373 . S
C498 C500 1.389 . S
C499 H478 0.950 . S
C499 C498 1.373 . S
C499 C515 1.377 . S
C500 C498 1.389 . S
C500 C501 1.524 . S
C500 C514 1.377 . S
C501 C500 1.524 . S
C501 C502 1.397 . S
C501 C506 1.363 . S
C502 H479 0.950 . S
C502 C501 1.397 . S
C502 C503 1.334 . S
C503 H480 0.950 . S
C503 C502 1.334 . S
C503 C504 1.287 . S
C504 C503 1.287 . S
C504 C505 1.524 . S
C504 H523 0.913 . S
C505 H481 0.950 . S
C505 C504 1.524 . S
C505 C506 1.415 . S
C506 H482 0.950 . S
C506 C501 1.363 . S
C506 C505 1.415 . S
C507 H483 0.951 . S
C507 C508 1.366 . S
C507 C509 1.388 . S
C508 C507 1.366 . S
C508 C512 1.385 . S
C509 H484 0.951 . S
C509 C507 1.388 . S
C509 C510 1.366 . S
C510 C509 1.366 . S
C510 C511 1.414 . S
C510 C513 1.499 . S
C511 H485 0.950 . S
C511 C510 1.414 . S
C511 C512 1.374 . S
C512 H486 0.950 . S
C512 C508 1.385 . S
C512 C511 1.374 . S
C513 C510 1.499 . S
C513 C514 1.373 . S
C513 C515 1.389 . S
C514 H487 0.950 . S
C514 C500 1.377 . S
C514 C513 1.373 . S
C515 C499 1.377 . S
C515 C513 1.389 . S
C515 C516 1.524 . S
C516 C515 1.524 . S
C516 C517 1.397 . S
C516 C521 1.363 . S
C517 H488 0.950 . S
C517 C516 1.397 . S
C517 C518 1.334 . S
C518 H489 0.950 . S
C518 C517 1.334 . S
C518 C519 1.287 . S
C519 C518 1.287 . S
C519 C520 1.524 . S
C519 H522 0.999 . S
C520 H490 0.950 . S
C520 C519 1.524 . S
C520 C521 1.415 . S
C521 H491 0.950 . S
C521 C516 1.363 . S
C521 C520 1.415 . S
H522 C519 0.999 . S
H523 C504 0.913 . S
H524 C542 0.951 . S
H525 C544 0.951 . S
H526 C546 0.950 . S
H527 C547 0.950 . S
H528 C549 0.950 . S
H529 C552 0.950 . S
H530 C553 0.950 . S
H531 C555 0.950 . S
H532 C556 0.950 . S
H533 C557 0.951 . S
H534 C559 0.951 . S
H535 C561 0.950 . S
H536 C562 0.950 . S
H537 C564 0.950 . S
H538 C567 0.950 . S
H539 C568 0.950 . S
H540 C570 0.950 . S
H541 C571 0.950 . S
C542 H524 0.951 . S
C542 C543 1.366 . S
C542 C544 1.388 . S
C543 C542 1.366 . S
C543 C547 1.385 . S
C544 H525 0.951 . S
C544 C542 1.388 . S
C544 C545 1.366 . S
C545 C544 1.366 . S
C545 C546 1.414 . S
C545 C548 1.499 . S
C546 H526 0.950 . S
C546 C545 1.414 . S
C546 C547 1.374 . S
C547 H527 0.950 . S
C547 C543 1.385 . S
C547 C546 1.374 . S
C548 C545 1.499 . S
C548 C549 1.373 . S
C548 C550 1.389 . S
C549 H528 0.950 . S
C549 C548 1.373 . S
C549 C565 1.377 . S
C550 C548 1.389 . S
C550 C551 1.524 . S
C550 C564 1.377 . S
C551 C550 1.524 . S
C551 C552 1.397 . S
C551 C556 1.363 . S
C552 H529 0.950 . S
C552 C551 1.397 . S
C552 C553 1.334 . S
C553 H530 0.950 . S
C553 C552 1.334 . S
C553 C554 1.287 . S
C554 C553 1.287 . S
C554 C555 1.524 . S
C554 H573 0.913 . S
C555 H531 0.950 . S
C555 C554 1.524 . S
C555 C556 1.415 . S
C556 H532 0.950 . S
C556 C551 1.363 . S
C556 C555 1.415 . S
C557 H533 0.951 . S
C557 C558 1.366 . S
C557 C559 1.388 . S
C558 C557 1.366 . S
C558 C562 1.385 . S
C559 H534 0.951 . S
C559 C557 1.388 . S
C559 C560 1.366 . S
C560 C559 1.366 . S
C560 C561 1.414 . S
C560 C563 1.499 . S
C561 H535 0.950 . S
C561 C560 1.414 . S
C561 C562 1.374 . S
C562 H536 0.950 . S
C562 C558 1.385 . S
C562 C561 1.374 . S
C563 C560 1.499 . S
C563 C564 1.373 . S
C563 C565 1.389 . S
C564 H537 0.950 . S
C564 C550 1.377 . S
C564 C563 1.373 . S
C565 C549 1.377 . S
C565 C563 1.389 . S
C565 C566 1.524 . S
C566 C565 1.524 . S
C566 C567 1.397 . S
C566 C571 1.363 . S
C567 H538 0.950 . S
C567 C566 1.397 . S
C567 C568 1.334 . S
C568 H539 0.950 . S
C568 C567 1.334 . S
C568 C569 1.287 . S
C569 C568 1.287 . S
C569 C570 1.524 . S
C569 H572 0.999 . S
C570 H540 0.950 . S
C570 C569 1.524 . S
C570 C571 1.415 . S
C571 H541 0.950 . S
C571 C566 1.363 . S
C571 C570 1.415 . S
H572 C569 0.999 . S
H573 C554 0.913 . S
H574 C592 0.951 . S
H575 C594 0.951 . S
H576 C596 0.950 . S
H577 C597 0.950 . S
H578 C599 0.950 . S
H579 C602 0.950 . S
H580 C603 0.950 . S
H581 C605 0.950 . S
H582 C606 0.950 . S
H583 C607 0.951 . S
H584 C609 0.951 . S
H585 C611 0.950 . S
H586 C612 0.950 . S
H587 C614 0.950 . S
H588 C617 0.950 . S
H589 C618 0.950 . S
H590 C620 0.950 . S
H591 C621 0.950 . S
C592 H574 0.951 . S
C592 C593 1.366 . S
C592 C594 1.388 . S
C593 C592 1.366 . S
C593 C597 1.385 . S
C594 H575 0.951 . S
C594 C592 1.388 . S
C594 C595 1.366 . S
C595 C594 1.366 . S
C595 C596 1.414 . S
C595 C598 1.499 . S
C596 H576 0.950 . S
C596 C595 1.414 . S
C596 C597 1.374 . S
C597 H577 0.950 . S
C597 C593 1.385 . S
C597 C596 1.374 . S
C598 C595 1.499 . S
C598 C599 1.373 . S
C598 C600 1.389 . S
C599 H578 0.950 . S
C599 C598 1.373 . S
C599 C615 1.377 . S
C600 C598 1.389 . S
C600 C601 1.524 . S
C600 C614 1.377 . S
C601 C600 1.524 . S
C601 C602 1.397 . S
C601 C606 1.363 . S
C602 H579 0.950 . S
C602 C601 1.397 . S
C602 C603 1.334 . S
C603 H580 0.950 . S
C603 C602 1.334 . S
C603 C604 1.287 . S
C604 C603 1.287 . S
C604 C605 1.524 . S
C604 H623 0.913 . S
C605 H581 0.950 . S
C605 C604 1.524 . S
C605 C606 1.415 . S
C606 H582 0.950 . S
C606 C601 1.363 . S
C606 C605 1.415 . S
C607 H583 0.951 . S
C607 C608 1.366 . S
C607 C609 1.388 . S
C608 C607 1.366 . S
C608 C612 1.385 . S
C609 H584 0.951 . S
C609 C607 1.388 . S
C609 C610 1.366 . S
C610 C609 1.366 . S
C610 C611 1.414 . S
C610 C613 1.499 . S
C611 H585 0.950 . S
C611 C610 1.414 . S
C611 C612 1.374 . S
C612 H586 0.950 . S
C612 C608 1.385 . S
C612 C611 1.374 . S
C613 C610 1.499 . S
C613 C614 1.373 . S
C613 C615 1.389 . S
C614 H587 0.950 . S
C614 C600 1.377 . S
C614 C613 1.373 . S
C615 C599 1.377 . S
C615 C613 1.389 . S
C615 C616 1.524 . S
C616 C615 1.524 . S
C616 C617 1.397 . S
C616 C621 1.363 . S
C617 H588 0.950 . S
C617 C616 1.397 . S
C617 C618 1.334 . S
C618 H589 0.950 . S
C618 C617 1.334 . S
C618 C619 1.287 . S
C619 C618 1.287 . S
C619 C620 1.524 . S
C619 H622 0.999 . S
C620 H590 0.950 . S
C620 C619 1.524 . S
C620 C621 1.415 . S
C621 H591 0.950 . S
C621 C616 1.363 . S
C621 C620 1.415 . S
H622 C619 0.999 . S
H623 C604 0.913 . S
H624 C642 0.951 . S
H625 C644 0.951 . S
H626 C646 0.950 . S
H627 C647 0.950 . S
H628 C649 0.950 . S
H629 C652 0.950 . S
H630 C653 0.950 . S
H631 C655 0.950 . S
H632 C656 0.950 . S
H633 C657 0.951 . S
H634 C659 0.951 . S
H635 C661 0.950 . S
H636 C662 0.950 . S
H637 C664 0.950 . S
H638 C667 0.950 . S
H639 C668 0.950 . S
H640 C670 0.950 . S
H641 C671 0.950 . S
C642 H624 0.951 . S
C642 C643 1.366 . S
C642 C644 1.388 . S
C643 C642 1.366 . S
C643 C647 1.385 . S
C644 H625 0.951 . S
C644 C642 1.388 . S
C644 C645 1.366 . S
C645 C644 1.366 . S
C645 C646 1.414 . S
C645 C648 1.499 . S
C646 H626 0.950 . S
C646 C645 1.414 . S
C646 C647 1.374 . S
C647 H627 0.950 . S
C647 C643 1.385 . S
C647 C646 1.374 . S
C648 C645 1.499 . S
C648 C649 1.373 . S
C648 C650 1.389 . S
C649 H628 0.950 . S
C649 C648 1.373 . S
C649 C665 1.377 . S
C650 C648 1.389 . S
C650 C651 1.524 . S
C650 C664 1.377 . S
C651 C650 1.524 . S
C651 C652 1.397 . S
C651 C656 1.363 . S
C652 H629 0.950 . S
C652 C651 1.397 . S
C652 C653 1.334 . S
C653 H630 0.950 . S
C653 C652 1.334 . S
C653 C654 1.287 . S
C654 C653 1.287 . S
C654 C655 1.524 . S
C654 H673 0.913 . S
C655 H631 0.950 . S
C655 C654 1.524 . S
C655 C656 1.415 . S
C656 H632 0.950 . S
C656 C651 1.363 . S
C656 C655 1.415 . S
C657 H633 0.951 . S
C657 C658 1.366 . S
C657 C659 1.388 . S
C658 C657 1.366 . S
C658 C662 1.385 . S
C659 H634 0.951 . S
C659 C657 1.388 . S
C659 C660 1.366 . S
C660 C659 1.366 . S
C660 C661 1.414 . S
C660 C663 1.499 . S
C661 H635 0.950 . S
C661 C660 1.414 . S
C661 C662 1.374 . S
C662 H636 0.950 . S
C662 C658 1.385 . S
C662 C661 1.374 . S
C663 C660 1.499 . S
C663 C664 1.373 . S
C663 C665 1.389 . S
C664 H637 0.950 . S
C664 C650 1.377 . S
C664 C663 1.373 . S
C665 C649 1.377 . S
C665 C663 1.389 . S
C665 C666 1.524 . S
C666 C665 1.524 . S
C666 C667 1.397 . S
C666 C671 1.363 . S
C667 H638 0.950 . S
C667 C666 1.397 . S
C667 C668 1.334 . S
C668 H639 0.950 . S
C668 C667 1.334 . S
C668 C669 1.287 . S
C669 C668 1.287 . S
C669 C670 1.524 . S
C669 H672 0.999 . S
C670 H640 0.950 . S
C670 C669 1.524 . S
C670 C671 1.415 . S
C671 H641 0.950 . S
C671 C666 1.363 . S
C671 C670 1.415 . S
H672 C669 0.999 . S
H673 C654 0.913 . S
H674 C692 0.951 . S
H675 C694 0.951 . S
H676 C696 0.950 . S
H677 C697 0.950 . S
H678 C699 0.950 . S
H679 C702 0.950 . S
H680 C703 0.950 . S
H681 C705 0.950 . S
H682 C706 0.950 . S
H683 C707 0.951 . S
H684 C709 0.951 . S
H685 C711 0.950 . S
H686 C712 0.950 . S
H687 C714 0.950 . S
H688 C717 0.950 . S
H689 C718 0.950 . S
H690 C720 0.950 . S
H691 C721 0.950 . S
C692 H674 0.951 . S
C692 C693 1.366 . S
C692 C694 1.388 . S
C693 C692 1.366 . S
C693 C697 1.385 . S
C694 H675 0.951 . S
C694 C692 1.388 . S
C694 C695 1.366 . S
C695 C694 1.366 . S
C695 C696 1.414 . S
C695 C698 1.499 . S
C696 H676 0.950 . S
C696 C695 1.414 . S
C696 C697 1.374 . S
C697 H677 0.950 . S
C697 C693 1.385 . S
C697 C696 1.374 . S
C698 C695 1.499 . S
C698 C699 1.373 . S
C698 C700 1.389 . S
C699 H678 0.950 . S
C699 C698 1.373 . S
C699 C715 1.377 . S
C700 C698 1.389 . S
C700 C701 1.524 . S
C700 C714 1.377 . S
C701 C700 1.524 . S
C701 C702 1.397 . S
C701 C706 1.363 . S
C702 H679 0.950 . S
C702 C701 1.397 . S
C702 C703 1.334 . S
C703 H680 0.950 . S
C703 C702 1.334 . S
C703 C704 1.287 . S
C704 C703 1.287 . S
C704 C705 1.524 . S
C704 H723 0.913 . S
C705 H681 0.950 . S
C705 C704 1.524 . S
C705 C706 1.415 . S
C706 H682 0.950 . S
C706 C701 1.363 . S
C706 C705 1.415 . S
C707 H683 0.951 . S
C707 C708 1.366 . S
C707 C709 1.388 . S
C708 C707 1.366 . S
C708 C712 1.385 . S
C709 H684 0.951 . S
C709 C707 1.388 . S
C709 C710 1.366 . S
C710 C709 1.366 . S
C710 C711 1.414 . S
C710 C713 1.499 . S
C711 H685 0.950 . S
C711 C710 1.414 . S
C711 C712 1.374 . S
C712 H686 0.950 . S
C712 C708 1.385 . S
C712 C711 1.374 . S
C713 C710 1.499 . S
C713 C714 1.373 . S
C713 C715 1.389 . S
C714 H687 0.950 . S
C714 C700 1.377 . S
C714 C713 1.373 . S
C715 C699 1.377 . S
C715 C713 1.389 . S
C715 C716 1.524 . S
C716 C715 1.524 . S
C716 C717 1.397 . S
C716 C721 1.363 . S
C717 H688 0.950 . S
C717 C716 1.397 . S
C717 C718 1.334 . S
C718 H689 0.950 . S
C718 C717 1.334 . S
C718 C719 1.287 . S
C719 C718 1.287 . S
C719 C720 1.524 . S
C719 H722 0.999 . S
C720 H690 0.950 . S
C720 C719 1.524 . S
C720 C721 1.415 . S
C721 H691 0.950 . S
C721 C716 1.363 . S
C721 C720 1.415 . S
H722 C719 0.999 . S
H723 C704 0.913 . S
H724 C742 0.951 . S
H725 C744 0.951 . S
H726 C746 0.950 . S
H727 C747 0.950 . S
H728 C749 0.950 . S
H729 C752 0.950 . S
H730 C753 0.950 . S
H731 C755 0.950 . S
H732 C756 0.950 . S
H733 C757 0.951 . S
H734 C759 0.951 . S
H735 C761 0.950 . S
H736 C762 0.950 . S
H737 C764 0.950 . S
H738 C767 0.950 . S
H739 C768 0.950 . S
H740 C770 0.950 . S
H741 C771 0.950 . S
C742 H724 0.951 . S
C742 C743 1.366 . S
C742 C744 1.388 . S
C743 C742 1.366 . S
C743 C747 1.385 . S
C744 H725 0.951 . S
C744 C742 1.388 . S
C744 C745 1.366 . S
C745 C744 1.366 . S
C745 C746 1.414 . S
C745 C748 1.499 . S
C746 H726 0.950 . S
C746 C745 1.414 . S
C746 C747 1.374 . S
C747 H727 0.950 . S
C747 C743 1.385 . S
C747 C746 1.374 . S
C748 C745 1.499 . S
C748 C749 1.373 . S
C748 C750 1.389 . S
C749 H728 0.950 . S
C749 C748 1.373 . S
C749 C765 1.377 . S
C750 C748 1.389 . S
C750 C751 1.524 . S
C750 C764 1.377 . S
C751 C750 1.524 . S
C751 C752 1.397 . S
C751 C756 1.363 . S
C752 H729 0.950 . S
C752 C751 1.397 . S
C752 C753 1.334 . S
C753 H730 0.950 . S
C753 C752 1.334 . S
C753 C754 1.287 . S
C754 C753 1.287 . S
C754 C755 1.524 . S
C754 H773 0.913 . S
C755 H731 0.950 . S
C755 C754 1.524 . S
C755 C756 1.415 . S
C756 H732 0.950 . S
C756 C751 1.363 . S
C756 C755 1.415 . S
C757 H733 0.951 . S
C757 C758 1.366 . S
C757 C759 1.388 . S
C758 C757 1.366 . S
C758 C762 1.385 . S
C759 H734 0.951 . S
C759 C757 1.388 . S
C759 C760 1.366 . S
C760 C759 1.366 . S
C760 C761 1.414 . S
C760 C763 1.499 . S
C761 H735 0.950 . S
C761 C760 1.414 . S
C761 C762 1.374 . S
C762 H736 0.950 . S
C762 C758 1.385 . S
C762 C761 1.374 . S
C763 C760 1.499 . S
C763 C764 1.373 . S
C763 C765 1.389 . S
C764 H737 0.950 . S
C764 C750 1.377 . S
C764 C763 1.373 . S
C765 C749 1.377 . S
C765 C763 1.389 . S
C765 C766 1.524 . S
C766 C765 1.524 . S
C766 C767 1.397 . S
C766 C771 1.363 . S
C767 H738 0.950 . S
C767 C766 1.397 . S
C767 C768 1.334 . S
C768 H739 0.950 . S
C768 C767 1.334 . S
C768 C769 1.287 . S
C769 C768 1.287 . S
C769 C770 1.524 . S
C769 H772 0.999 . S
C770 H740 0.950 . S
C770 C769 1.524 . S
C770 C771 1.415 . S
C771 H741 0.950 . S
C771 C766 1.363 . S
C771 C770 1.415 . S
H772 C769 0.999 . S
H773 C754 0.913 . S
H774 C792 0.951 . S
H775 C794 0.951 . S
H776 C796 0.950 . S
H777 C797 0.950 . S
H778 C799 0.950 . S
H779 C802 0.950 . S
H780 C803 0.950 . S
H781 C805 0.950 . S
H782 C806 0.950 . S
H783 C807 0.951 . S
H784 C809 0.951 . S
H785 C811 0.950 . S
H786 C812 0.950 . S
H787 C814 0.950 . S
H788 C817 0.950 . S
H789 C818 0.950 . S
H790 C820 0.950 . S
H791 C821 0.950 . S
C792 H774 0.951 . S
C792 C793 1.366 . S
C792 C794 1.388 . S
C793 C792 1.366 . S
C793 C797 1.385 . S
C794 H775 0.951 . S
C794 C792 1.388 . S
C794 C795 1.366 . S
C795 C794 1.366 . S
C795 C796 1.414 . S
C795 C798 1.499 . S
C796 H776 0.950 . S
C796 C795 1.414 . S
C796 C797 1.374 . S
C797 H777 0.950 . S
C797 C793 1.385 . S
C797 C796 1.374 . S
C798 C795 1.499 . S
C798 C799 1.373 . S
C798 C800 1.389 . S
C799 H778 0.950 . S
C799 C798 1.373 . S
C799 C815 1.377 . S
C800 C798 1.389 . S
C800 C801 1.524 . S
C800 C814 1.377 . S
C801 C800 1.524 . S
C801 C802 1.397 . S
C801 C806 1.363 . S
C802 H779 0.950 . S
C802 C801 1.397 . S
C802 C803 1.334 . S
C803 H780 0.950 . S
C803 C802 1.334 . S
C803 C804 1.287 . S
C804 C803 1.287 . S
C804 C805 1.524 . S
C804 H823 0.913 . S
C805 H781 0.950 . S
C805 C804 1.524 . S
C805 C806 1.415 . S
C806 H782 0.950 . S
C806 C801 1.363 . S
C806 C805 1.415 . S
C807 H783 0.951 . S
C807 C808 1.366 . S
C807 C809 1.388 . S
C808 C807 1.366 . S
C808 C812 1.385 . S
C809 H784 0.951 . S
C809 C807 1.388 . S
C809 C810 1.366 . S
C810 C809 1.366 . S
C810 C811 1.414 . S
C810 C813 1.499 . S
C811 H785 0.950 . S
C811 C810 1.414 . S
C811 C812 1.374 . S
C812 H786 0.950 . S
C812 C808 1.385 . S
C812 C811 1.374 . S
C813 C810 1.499 . S
C813 C814 1.373 . S
C813 C815 1.389 . S
C814 H787 0.950 . S
C814 C800 1.377 . S
C814 C813 1.373 . S
C815 C799 1.377 . S
C815 C813 1.389 . S
C815 C816 1.524 . S
C816 C815 1.524 . S
C816 C817 1.397 . S
C816 C821 1.363 . S
C817 H788 0.950 . S
C817 C816 1.397 . S
C817 C818 1.334 . S
C818 H789 0.950 . S
C818 C817 1.334 . S
C818 C819 1.287 . S
C819 C818 1.287 . S
C819 C820 1.524 . S
C819 H822 0.999 . S
C820 H790 0.950 . S
C820 C819 1.524 . S
C820 C821 1.415 . S
C821 H791 0.950 . S
C821 C816 1.363 . S
C821 C820 1.415 . S
H822 C819 0.999 . S
H823 C804 0.913 . S
H824 C842 0.951 . S
H825 C844 0.951 . S
H826 C846 0.950 . S
H827 C847 0.950 . S
H828 C849 0.950 . S
H829 C852 0.950 . S
H830 C853 0.950 . S
H831 C855 0.950 . S
H832 C856 0.950 . S
H833 C857 0.951 . S
H834 C859 0.951 . S
H835 C861 0.950 . S
H836 C862 0.950 . S
H837 C864 0.950 . S
H838 C867 0.950 . S
H839 C868 0.950 . S
H840 C870 0.950 . S
H841 C871 0.950 . S
C842 H824 0.951 . S
C842 C843 1.366 . S
C842 C844 1.388 . S
C843 C842 1.366 . S
C843 C847 1.385 . S
C844 H825 0.951 . S
C844 C842 1.388 . S
C844 C845 1.366 . S
C845 C844 1.366 . S
C845 C846 1.414 . S
C845 C848 1.499 . S
C846 H826 0.950 . S
C846 C845 1.414 . S
C846 C847 1.374 . S
C847 H827 0.950 . S
C847 C843 1.385 . S
C847 C846 1.374 . S
C848 C845 1.499 . S
C848 C849 1.373 . S
C848 C850 1.389 . S
C849 H828 0.950 . S
C849 C848 1.373 . S
C849 C865 1.377 . S
C850 C848 1.389 . S
C850 C851 1.524 . S
C850 C864 1.377 . S
C851 C850 1.524 . S
C851 C852 1.397 . S
C851 C856 1.363 . S
C852 H829 0.950 . S
C852 C851 1.397 . S
C852 C853 1.334 . S
C853 H830 0.950 . S
C853 C852 1.334 . S
C853 C854 1.287 . S
C854 C853 1.287 . S
C854 C855 1.524 . S
C854 H873 0.913 . S
C855 H831 0.950 . S
C855 C854 1.524 . S
C855 C856 1.415 . S
C856 H832 0.950 . S
C856 C851 1.363 . S
C856 C855 1.415 . S
C857 H833 0.951 . S
C857 C858 1.366 . S
C857 C859 1.388 . S
C858 C857 1.366 . S
C858 C862 1.385 . S
C859 H834 0.951 . S
C859 C857 1.388 . S
C859 C860 1.366 . S
C860 C859 1.366 . S
C860 C861 1.414 . S
C860 C863 1.499 . S
C861 H835 0.950 . S
C861 C860 1.414 . S
C861 C862 1.374 . S
C862 H836 0.950 . S
C862 C858 1.385 . S
C862 C861 1.374 . S
C863 C860 1.499 . S
C863 C864 1.373 . S
C863 C865 1.389 . S
C864 H837 0.950 . S
C864 C850 1.377 . S
C864 C863 1.373 . S
C865 C849 1.377 . S
C865 C863 1.389 . S
C865 C866 1.524 . S
C866 C865 1.524 . S
C866 C867 1.397 . S
C866 C871 1.363 . S
C867 H838 0.950 . S
C867 C866 1.397 . S
C867 C868 1.334 . S
C868 H839 0.950 . S
C868 C867 1.334 . S
C868 C869 1.287 . S
C869 C868 1.287 . S
C869 C870 1.524 . S
C869 H872 0.999 . S
C870 H840 0.950 . S
C870 C869 1.524 . S
C870 C871 1.415 . S
C871 H841 0.950 . S
C871 C866 1.363 . S
C871 C870 1.415 . S
H872 C869 0.999 . S
H873 C854 0.913 . S
H874 C892 0.951 . S
H875 C894 0.951 . S
H876 C896 0.950 . S
H877 C897 0.950 . S
H878 C899 0.950 . S
H879 C902 0.950 . S
H880 C903 0.950 . S
H881 C905 0.950 . S
H882 C906 0.950 . S
H883 C907 0.951 . S
H884 C909 0.951 . S
H885 C911 0.950 . S
H886 C912 0.950 . S
H887 C914 0.950 . S
H888 C917 0.950 . S
H889 C918 0.950 . S
H890 C920 0.950 . S
H891 C921 0.950 . S
C892 H874 0.951 . S
C892 C893 1.366 . S
C892 C894 1.388 . S
C893 C892 1.366 . S
C893 C897 1.385 . S
C894 H875 0.951 . S
C894 C892 1.388 . S
C894 C895 1.366 . S
C895 C894 1.366 . S
C895 C896 1.414 . S
C895 C898 1.499 . S
C896 H876 0.950 . S
C896 C895 1.414 . S
C896 C897 1.374 . S
C897 H877 0.950 . S
C897 C893 1.385 . S
C897 C896 1.374 . S
C898 C895 1.499 . S
C898 C899 1.373 . S
C898 C900 1.389 . S
C899 H878 0.950 . S
C899 C898 1.373 . S
C899 C915 1.377 . S
C900 C898 1.389 . S
C900 C901 1.524 . S
C900 C914 1.377 . S
C901 C900 1.524 . S
C901 C902 1.397 . S
C901 C906 1.363 . S
C902 H879 0.950 . S
C902 C901 1.397 . S
C902 C903 1.334 . S
C903 H880 0.950 . S
C903 C902 1.334 . S
C903 C904 1.287 . S
C904 C903 1.287 . S
C904 C905 1.524 . S
C904 H923 0.913 . S
C905 H881 0.950 . S
C905 C904 1.524 . S
C905 C906 1.415 . S
C906 H882 0.950 . S
C906 C901 1.363 . S
C906 C905 1.415 . S
C907 H883 0.951 . S
C907 C908 1.366 . S
C907 C909 1.388 . S
C908 C907 1.366 . S
C908 C912 1.385 . S
C909 H884 0.951 . S
C909 C907 1.388 . S
C909 C910 1.366 . S
C910 C909 1.366 . S
C910 C911 1.414 . S
C910 C913 1.499 . S
C911 H885 0.950 . S
C911 C910 1.414 . S
C911 C912 1.374 . S
C912 H886 0.950 . S
C912 C908 1.385 . S
C912 C911 1.374 . S
C913 C910 1.499 . S
C913 C914 1.373 . S
C913 C915 1.389 . S
C914 H887 0.950 . S
C914 C900 1.377 . S
C914 C913 1.373 . S
C915 C899 1.377 . S
C915 C913 1.389 . S
C915 C916 1.524 . S
C916 C915 1.524 . S
C916 C917 1.397 . S
C916 C921 1.363 . S
C917 H888 0.950 . S
C917 C916 1.397 . S
C917 C918 1.334 . S
C918 H889 0.950 . S
C918 C917 1.334 . S
C918 C919 1.287 . S
C919 C918 1.287 . S
C919 C920 1.524 . S
C919 H922 0.999 . S
C920 H890 0.950 . S
C920 C919 1.524 . S
C920 C921 1.415 . S
C921 H891 0.950 . S
C921 C916 1.363 . S
C921 C920 1.415 . S
H922 C919 0.999 . S
H923 C904 0.913 . S
H924 C942 0.951 . S
H925 C944 0.951 . S
H926 C946 0.950 . S
H927 C947 0.950 . S
H928 C949 0.950 . S
H929 C952 0.950 . S
H930 C953 0.950 . S
H931 C955 0.950 . S
H932 C956 0.950 . S
H933 C957 0.951 . S
H934 C959 0.951 . S
H935 C961 0.950 . S
H936 C962 0.950 . S
H937 C964 0.950 . S
H938 C967 0.950 . S
H939 C968 0.950 . S
H940 C970 0.950 . S
H941 C971 0.950 . S
C942 H924 0.951 . S
C942 C943 1.366 . S
C942 C944 1.388 . S
C943 C942 1.366 . S
C943 C947 1.385 . S
C944 H925 0.951 . S
C944 C942 1.388 . S
C944 C945 1.366 . S
C945 C944 1.366 . S
C945 C946 1.414 . S
C945 C948 1.499 . S
C946 H926 0.950 . S
C946 C945 1.414 . S
C946 C947 1.374 . S
C947 H927 0.950 . S
C947 C943 1.385 . S
C947 C946 1.374 . S
C948 C945 1.499 . S
C948 C949 1.373 . S
C948 C950 1.389 . S
C949 H928 0.950 . S
C949 C948 1.373 . S
C949 C965 1.377 . S
C950 C948 1.389 . S
C950 C951 1.524 . S
C950 C964 1.377 . S
C951 C950 1.524 . S
C951 C952 1.397 . S
C951 C956 1.363 . S
C952 H929 0.950 . S
C952 C951 1.397 . S
C952 C953 1.334 . S
C953 H930 0.950 . S
C953 C952 1.334 . S
C953 C954 1.287 . S
C954 C953 1.287 . S
C954 C955 1.524 . S
C954 H973 0.913 . S
C955 H931 0.950 . S
C955 C954 1.524 . S
C955 C956 1.415 . S
C956 H932 0.950 . S
C956 C951 1.363 . S
C956 C955 1.415 . S
C957 H933 0.951 . S
C957 C958 1.366 . S
C957 C959 1.388 . S
C958 C957 1.366 . S
C958 C962 1.385 . S
C959 H934 0.951 . S
C959 C957 1.388 . S
C959 C960 1.366 . S
C960 C959 1.366 . S
C960 C961 1.414 . S
C960 C963 1.499 . S
C961 H935 0.950 . S
C961 C960 1.414 . S
C961 C962 1.374 . S
C962 H936 0.950 . S
C962 C958 1.385 . S
C962 C961 1.374 . S
C963 C960 1.499 . S
C963 C964 1.373 . S
C963 C965 1.389 . S
C964 H937 0.950 . S
C964 C950 1.377 . S
C964 C963 1.373 . S
C965 C949 1.377 . S
C965 C963 1.389 . S
C965 C966 1.524 . S
C966 C965 1.524 . S
C966 C967 1.397 . S
C966 C971 1.363 . S
C967 H938 0.950 . S
C967 C966 1.397 . S
C967 C968 1.334 . S
C968 H939 0.950 . S
C968 C967 1.334 . S
C968 C969 1.287 . S
C969 C968 1.287 . S
C969 C970 1.524 . S
C969 H972 0.999 . S
C970 H940 0.950 . S
C970 C969 1.524 . S
C970 C971 1.415 . S
C971 H941 0.950 . S
C971 C966 1.363 . S
C971 C970 1.415 . S
H972 C969 0.999 . S
H973 C954 0.913 . S
H974 C992 0.951 . S
H975 C994 0.951 . S
H976 C996 0.950 . S
H977 C997 0.950 . S
H978 C999 0.950 . S
H979 C1002 0.950 . S
H980 C1003 0.950 . S
H981 C1005 0.950 . S
H982 C1006 0.950 . S
H983 C1007 0.951 . S
H984 C1009 0.951 . S
H985 C1011 0.950 . S
H986 C1012 0.950 . S
H987 C1014 0.950 . S
H988 C1017 0.950 . S
H989 C1018 0.950 . S
H990 C1020 0.950 . S
H991 C1021 0.950 . S
C992 H974 0.951 . S
C992 C993 1.366 . S
C992 C994 1.388 . S
C993 C992 1.366 . S
C993 C997 1.385 . S
C994 H975 0.951 . S
C994 C992 1.388 . S
C994 C995 1.366 . S
C995 C994 1.366 . S
C995 C996 1.414 . S
C995 C998 1.499 . S
C996 H976 0.950 . S
C996 C995 1.414 . S
C996 C997 1.374 . S
C997 H977 0.950 . S
C997 C993 1.385 . S
C997 C996 1.374 . S
C998 C995 1.499 . S
C998 C999 1.373 . S
C998 C1000 1.389 . S
C999 H978 0.950 . S
C999 C998 1.373 . S
C999 C1015 1.377 . S
C1000 C998 1.389 . S
C1000 C1001 1.524 . S
C1000 C1014 1.377 . S
C1001 C1000 1.524 . S
C1001 C1002 1.397 . S
C1001 C1006 1.363 . S
C1002 H979 0.950 . S
C1002 C1001 1.397 . S
C1002 C1003 1.334 . S
C1003 H980 0.950 . S
C1003 C1002 1.334 . S
C1003 C1004 1.287 . S
C1004 C1003 1.287 . S
C1004 C1005 1.524 . S
C1004 H1023 0.913 . S
C1005 H981 0.950 . S
C1005 C1004 1.524 . S
C1005 C1006 1.415 . S
C1006 H982 0.950 . S
C1006 C1001 1.363 . S
C1006 C1005 1.415 . S
C1007 H983 0.951 . S
C1007 C1008 1.366 . S
C1007 C1009 1.388 . S
C1008 C1007 1.366 . S
C1008 C1012 1.385 . S
C1009 H984 0.951 . S
C1009 C1007 1.388 . S
C1009 C1010 1.366 . S
C1010 C1009 1.366 . S
C1010 C1011 1.414 . S
C1010 C1013 1.499 . S
C1011 H985 0.950 . S
C1011 C1010 1.414 . S
C1011 C1012 1.374 . S
C1012 H986 0.950 . S
C1012 C1008 1.385 . S
C1012 C1011 1.374 . S
C1013 C1010 1.499 . S
C1013 C1014 1.373 . S
C1013 C1015 1.389 . S
C1014 H987 0.950 . S
C1014 C1000 1.377 . S
C1014 C1013 1.373 . S
C1015 C999 1.377 . S
C1015 C1013 1.389 . S
C1015 C1016 1.524 . S
C1016 C1015 1.524 . S
C1016 C1017 1.397 . S
C1016 C1021 1.363 . S
C1017 H988 0.950 . S
C1017 C1016 1.397 . S
C1017 C1018 1.334 . S
C1018 H989 0.950 . S
C1018 C1017 1.334 . S
C1018 C1019 1.287 . S
C1019 C1018 1.287 . S
C1019 C1020 1.524 . S
C1019 H1022 0.999 . S
C1020 H990 0.950 . S
C1020 C1019 1.524 . S
C1020 C1021 1.415 . S
C1021 H991 0.950 . S
C1021 C1016 1.363 . S
C1021 C1020 1.415 . S
H1022 C1019 0.999 . S
H1023 C1004 0.913 . S
H1024 C1042 0.951 . S
H1025 C1044 0.951 . S
H1026 C1046 0.950 . S
H1027 C1047 0.950 . S
H1028 C1049 0.950 . S
H1029 C1052 0.950 . S
H1030 C1053 0.950 . S
H1031 C1055 0.950 . S
H1032 C1056 0.950 . S
H1033 C1057 0.951 . S
H1034 C1059 0.951 . S
H1035 C1061 0.950 . S
H1036 C1062 0.950 . S
H1037 C1064 0.950 . S
H1038 C1067 0.950 . S
H1039 C1068 0.950 . S
H1040 C1070 0.950 . S
H1041 C1071 0.950 . S
C1042 H1024 0.951 . S
C1042 C1043 1.366 . S
C1042 C1044 1.388 . S
C1043 C1042 1.366 . S
C1043 C1047 1.385 . S
C1044 H1025 0.951 . S
C1044 C1042 1.388 . S
C1044 C1045 1.366 . S
C1045 C1044 1.366 . S
C1045 C1046 1.414 . S
C1045 C1048 1.499 . S
C1046 H1026 0.950 . S
C1046 C1045 1.414 . S
C1046 C1047 1.374 . S
C1047 H1027 0.950 . S
C1047 C1043 1.385 . S
C1047 C1046 1.374 . S
C1048 C1045 1.499 . S
C1048 C1049 1.373 . S
C1048 C1050 1.389 . S
C1049 H1028 0.950 . S
C1049 C1048 1.373 . S
C1049 C1065 1.377 . S
C1050 C1048 1.389 . S
C1050 C1051 1.524 . S
C1050 C1064 1.377 . S
C1051 C1050 1.524 . S
C1051 C1052 1.397 . S
C1051 C1056 1.363 . S
C1052 H1029 0.950 . S
C1052 C1051 1.397 . S
C1052 C1053 1.334 . S
C1053 H1030 0.950 . S
C1053 C1052 1.334 . S
C1053 C1054 1.287 . S
C1054 C1053 1.287 . S
C1054 C1055 1.524 . S
C1054 H1073 0.913 . S
C1055 H1031 0.950 . S
C1055 C1054 1.524 . S
C1055 C1056 1.415 . S
C1056 H1032 0.950 . S
C1056 C1051 1.363 . S
C1056 C1055 1.415 . S
C1057 H1033 0.951 . S
C1057 C1058 1.366 . S
C1057 C1059 1.388 . S
C1058 C1057 1.366 . S
C1058 C1062 1.385 . S
C1059 H1034 0.951 . S
C1059 C1057 1.388 . S
C1059 C1060 1.366 . S
C1060 C1059 1.366 . S
C1060 C1061 1.414 . S
C1060 C1063 1.499 . S
C1061 H1035 0.950 . S
C1061 C1060 1.414 . S
C1061 C1062 1.374 . S
C1062 H1036 0.950 . S
C1062 C1058 1.385 . S
C1062 C1061 1.374 . S
C1063 C1060 1.499 . S
C1063 C1064 1.373 . S
C1063 C1065 1.389 . S
C1064 H1037 0.950 . S
C1064 C1050 1.377 . S
C1064 C1063 1.373 . S
C1065 C1049 1.377 . S
C1065 C1063 1.389 . S
C1065 C1066 1.524 . S
C1066 C1065 1.524 . S
C1066 C1067 1.397 . S
C1066 C1071 1.363 . S
C1067 H1038 0.950 . S
C1067 C1066 1.397 . S
C1067 C1068 1.334 . S
C1068 H1039 0.950 . S
C1068 C1067 1.334 . S
C1068 C1069 1.287 . S
C1069 C1068 1.287 . S
C1069 C1070 1.524 . S
C1069 H1072 0.999 . S
C1070 H1040 0.950 . S
C1070 C1069 1.524 . S
C1070 C1071 1.415 . S
C1071 H1041 0.950 . S
C1071 C1066 1.363 . S
C1071 C1070 1.415 . S
H1072 C1069 0.999 . S
H1073 C1054 0.913 . S
H1074 C1092 0.951 . S
H1075 C1094 0.951 . S
H1076 C1096 0.950 . S
H1077 C1097 0.950 . S
H1078 C1099 0.950 . S
H1079 C1102 0.950 . S
H1080 C1103 0.950 . S
H1081 C1105 0.950 . S
H1082 C1106 0.950 . S
H1083 C1107 0.951 . S
H1084 C1109 0.951 . S
H1085 C1111 0.950 . S
H1086 C1112 0.950 . S
H1087 C1114 0.950 . S
H1088 C1117 0.950 . S
H1089 C1118 0.950 . S
H1090 C1120 0.950 . S
H1091 C1121 0.950 . S
C1092 H1074 0.951 . S
C1092 C1093 1.366 . S
C1092 C1094 1.388 . S
C1093 C1092 1.366 . S
C1093 C1097 1.385 . S
C1094 H1075 0.951 . S
C1094 C1092 1.388 . S
C1094 C1095 1.366 . S
C1095 C1094 1.366 . S
C1095 C1096 1.414 . S
C1095 C1098 1.499 . S
C1096 H1076 0.950 . S
C1096 C1095 1.414 . S
C1096 C1097 1.374 . S
C1097 H1077 0.950 . S
C1097 C1093 1.385 . S
C1097 C1096 1.374 . S
C1098 C1095 1.499 . S
C1098 C1099 1.373 . S
C1098 C1100 1.389 . S
C1099 H1078 0.950 . S
C1099 C1098 1.373 . S
C1099 C1115 1.377 . S
C1100 C1098 1.389 . S
C1100 C1101 1.524 . S
C1100 C1114 1.377 . S
C1101 C1100 1.524 . S
C1101 C1102 1.397 . S
C1101 C1106 1.363 . S
C1102 H1079 0.950 . S
C1102 C1101 1.397 . S
C1102 C1103 1.334 . S
C1103 H1080 0.950 . S
C1103 C1102 1.334 . S
C1103 C1104 1.287 . S
C1104 C1103 1.287 . S
C1104 C1105 1.524 . S
C1104 H1123 0.913 . S
C1105 H1081 0.950 . S
C1105 C1104 1.524 . S
C1105 C1106 1.415 . S
C1106 H1082 0.950 . S
C1106 C1101 1.363 . S
C1106 C1105 1.415 . S
C1107 H1083 0.951 . S
C1107 C1108 1.366 . S
C1107 C1109 1.388 . S
C1108 C1107 1.366 . S
C1108 C1112 1.385 . S
C1109 H1084 0.951 . S
C1109 C1107 1.388 . S
C1109 C1110 1.366 . S
C1110 C1109 1.366 . S
C1110 C1111 1.414 . S
C1110 C1113 1.499 . S
C1111 H1085 0.950 . S
C1111 C1110 1.414 . S
C1111 C1112 1.374 . S
C1112 H1086 0.950 . S
C1112 C1108 1.385 . S
C1112 C1111 1.374 . S
C1113 C1110 1.499 . S
C1113 C1114 1.373 . S
C1113 C1115 1.389 . S
C1114 H1087 0.950 . S
C1114 C1100 1.377 . S
C1114 C1113 1.373 . S
C1115 C1099 1.377 . S
C1115 C1113 1.389 . S
C1115 C1116 1.524 . S
C1116 C1115 1.524 . S
C1116 C1117 1.397 . S
C1116 C1121 1.363 . S
C1117 H1088 0.950 . S
C1117 C1116 1.397 . S
C1117 C1118 1.334 . S
C1118 H1089 0.950 . S
C1118 C1117 1.334 . S
C1118 C1119 1.287 . S
C1119 C1118 1.287 . S
C1119 C1120 1.524 . S
C1119 H1122 0.999 . S
C1120 H1090 0.950 . S
C1120 C1119 1.524 . S
C1120 C1121 1.415 . S
C1121 H1091 0.950 . S
C1121 C1116 1.363 . S
C1121 C1120 1.415 . S
H1122 C1119 0.999 . S
H1123 C1104 0.913 . S
H1124 C1142 0.951 . S
H1125 C1144 0.951 . S
H1126 C1146 0.950 . S
H1127 C1147 0.950 . S
H1128 C1149 0.950 . S
H1129 C1152 0.950 . S
H1130 C1153 0.950 . S
H1131 C1155 0.950 . S
H1132 C1156 0.950 . S
H1133 C1157 0.951 . S
H1134 C1159 0.951 . S
H1135 C1161 0.950 . S
H1136 C1162 0.950 . S
H1137 C1164 0.950 . S
H1138 C1167 0.950 . S
H1139 C1168 0.950 . S
H1140 C1170 0.950 . S
H1141 C1171 0.950 . S
C1142 H1124 0.951 . S
C1142 C1143 1.366 . S
C1142 C1144 1.388 . S
C1143 C1142 1.366 . S
C1143 C1147 1.385 . S
C1144 H1125 0.951 . S
C1144 C1142 1.388 . S
C1144 C1145 1.366 . S
C1145 C1144 1.366 . S
C1145 C1146 1.414 . S
C1145 C1148 1.499 . S
C1146 H1126 0.950 . S
C1146 C1145 1.414 . S
C1146 C1147 1.374 . S
C1147 H1127 0.950 . S
C1147 C1143 1.385 . S
C1147 C1146 1.374 . S
C1148 C1145 1.499 . S
C1148 C1149 1.373 . S
C1148 C1150 1.389 . S
C1149 H1128 0.950 . S
C1149 C1148 1.373 . S
C1149 C1165 1.377 . S
C1150 C1148 1.389 . S
C1150 C1151 1.524 . S
C1150 C1164 1.377 . S
C1151 C1150 1.524 . S
C1151 C1152 1.397 . S
C1151 C1156 1.363 . S
C1152 H1129 0.950 . S
C1152 C1151 1.397 . S
C1152 C1153 1.334 . S
C1153 H1130 0.950 . S
C1153 C1152 1.334 . S
C1153 C1154 1.287 . S
C1154 C1153 1.287 . S
C1154 C1155 1.524 . S
C1154 H1173 0.913 . S
C1155 H1131 0.950 . S
C1155 C1154 1.524 . S
C1155 C1156 1.415 . S
C1156 H1132 0.950 . S
C1156 C1151 1.363 . S
C1156 C1155 1.415 . S
C1157 H1133 0.951 . S
C1157 C1158 1.366 . S
C1157 C1159 1.388 . S
C1158 C1157 1.366 . S
C1158 C1162 1.385 . S
C1159 H1134 0.951 . S
C1159 C1157 1.388 . S
C1159 C1160 1.366 . S
C1160 C1159 1.366 . S
C1160 C1161 1.414 . S
C1160 C1163 1.499 . S
C1161 H1135 0.950 . S
C1161 C1160 1.414 . S
C1161 C1162 1.374 . S
C1162 H1136 0.950 . S
C1162 C1158 1.385 . S
C1162 C1161 1.374 . S
C1163 C1160 1.499 . S
C1163 C1164 1.373 . S
C1163 C1165 1.389 . S
C1164 H1137 0.950 . S
C1164 C1150 1.377 . S
C1164 C1163 1.373 . S
C1165 C1149 1.377 . S
C1165 C1163 1.389 . S
C1165 C1166 1.524 . S
C1166 C1165 1.524 . S
C1166 C1167 1.397 . S
C1166 C1171 1.363 . S
C1167 H1138 0.950 . S
C1167 C1166 1.397 . S
C1167 C1168 1.334 . S
C1168 H1139 0.950 . S
C1168 C1167 1.334 . S
C1168 C1169 1.287 . S
C1169 C1168 1.287 . S
C1169 C1170 1.524 . S
C1169 H1172 0.999 . S
C1170 H1140 0.950 . S
C1170 C1169 1.524 . S
C1170 C1171 1.415 . S
C1171 H1141 0.950 . S
C1171 C1166 1.363 . S
C1171 C1170 1.415 . S
H1172 C1169 0.999 . S
H1173 C1154 0.913 . S
H1174 C1192 0.951 . S
H1175 C1194 0.951 . S
H1176 C1196 0.950 . S
H1177 C1197 0.950 . S
H1178 C1199 0.950 . S
H1179 C1202 0.950 . S
H1180 C1203 0.950 . S
H1181 C1205 0.950 . S
H1182 C1206 0.950 . S
H1183 C1207 0.951 . S
H1184 C1209 0.951 . S
H1185 C1211 0.950 . S
H1186 C1212 0.950 . S
H1187 C1214 0.950 . S
H1188 C1217 0.950 . S
H1189 C1218 0.950 . S
H1190 C1220 0.950 . S
H1191 C1221 0.950 . S
C1192 H1174 0.951 . S
C1192 C1193 1.366 . S
C1192 C1194 1.388 . S
C1193 C1192 1.366 . S
C1193 C1197 1.385 . S
C1194 H1175 0.951 . S
C1194 C1192 1.388 . S
C1194 C1195 1.366 . S
C1195 C1194 1.366 . S
C1195 C1196 1.414 . S
C1195 C1198 1.499 . S
C1196 H1176 0.950 . S
C1196 C1195 1.414 . S
C1196 C1197 1.374 . S
C1197 H1177 0.950 . S
C1197 C1193 1.385 . S
C1197 C1196 1.374 . S
C1198 C1195 1.499 . S
C1198 C1199 1.373 . S
C1198 C1200 1.389 . S
C1199 H1178 0.950 . S
C1199 C1198 1.373 . S
C1199 C1215 1.377 . S
C1200 C1198 1.389 . S
C1200 C1201 1.524 . S
C1200 C1214 1.377 . S
C1201 C1200 1.524 . S
C1201 C1202 1.397 . S
C1201 C1206 1.363 . S
C1202 H1179 0.950 . S
C1202 C1201 1.397 . S
C1202 C1203 1.334 . S
C1203 H1180 0.950 . S
C1203 C1202 1.334 . S
C1203 C1204 1.287 . S
C1204 C1203 1.287 . S
C1204 C1205 1.524 . S
C1204 H1223 0.913 . S
C1205 H1181 0.950 . S
C1205 C1204 1.524 . S
C1205 C1206 1.415 . S
C1206 H1182 0.950 . S
C1206 C1201 1.363 . S
C1206 C1205 1.415 . S
C1207 H1183 0.951 . S
C1207 C1208 1.366 . S
C1207 C1209 1.388 . S
C1208 C1207 1.366 . S
C1208 C1212 1.385 . S
C1209 H1184 0.951 . S
C1209 C1207 1.388 . S
C1209 C1210 1.366 . S
C1210 C1209 1.366 . S
C1210 C1211 1.414 . S
C1210 C1213 1.499 . S
C1211 H1185 0.950 . S
C1211 C1210 1.414 . S
C1211 C1212 1.374 . S
C1212 H1186 0.950 . S
C1212 C1208 1.385 . S
C1212 C1211 1.374 . S
C1213 C1210 1.499 . S
C1213 C1214 1.373 . S
C1213 C1215 1.389 . S
C1214 H1187 0.950 . S
C1214 C1200 1.377 . S
C1214 C1213 1.373 . S
C1215 C1199 1.377 . S
C1215 C1213 1.389 . S
C1215 C1216 1.524 . S
C1216 C1215 1.524 . S
C1216 C1217 1.397 . S
C1216 C1221 1.363 . S
C1217 H1188 0.950 . S
C1217 C1216 1.397 . S
C1217 C1218 1.334 . S
C1218 H1189 0.950 . S
C1218 C1217 1.334 . S
C1218 C1219 1.287 . S
C1219 C1218 1.287 . S
C1219 C1220 1.524 . S
C1219 H1222 0.999 . S
C1220 H1190 0.950 . S
C1220 C1219 1.524 . S
C1220 C1221 1.415 . S
C1221 H1191 0.950 . S
C1221 C1216 1.363 . S
C1221 C1220 1.415 . S
H1222 C1219 0.999 . S
H1223 C1204 0.913 . S
H1224 C1242 0.951 . S
H1225 C1244 0.951 . S
H1226 C1246 0.950 . S
H1227 C1247 0.950 . S
H1228 C1249 0.950 . S
H1229 C1252 0.950 . S
H1230 C1253 0.950 . S
H1231 C1255 0.950 . S
H1232 C1256 0.950 . S
H1233 C1257 0.951 . S
H1234 C1259 0.951 . S
H1235 C1261 0.950 . S
H1236 C1262 0.950 . S
H1237 C1264 0.950 . S
H1238 C1267 0.950 . S
H1239 C1268 0.950 . S
H1240 C1270 0.950 . S
H1241 C1271 0.950 . S
C1242 H1224 0.951 . S
C1242 C1243 1.366 . S
C1242 C1244 1.388 . S
C1243 C1242 1.366 . S
C1243 C1247 1.385 . S
C1244 H1225 0.951 . S
C1244 C1242 1.388 . S
C1244 C1245 1.366 . S
C1245 C1244 1.366 . S
C1245 C1246 1.414 . S
C1245 C1248 1.499 . S
C1246 H1226 0.950 . S
C1246 C1245 1.414 . S
C1246 C1247 1.374 . S
C1247 H1227 0.950 . S
C1247 C1243 1.385 . S
C1247 C1246 1.374 . S
C1248 C1245 1.499 . S
C1248 C1249 1.373 . S
C1248 C1250 1.389 . S
C1249 H1228 0.950 . S
C1249 C1248 1.373 . S
C1249 C1265 1.377 . S
C1250 C1248 1.389 . S
C1250 C1251 1.524 . S
C1250 C1264 1.377 . S
C1251 C1250 1.524 . S
C1251 C1252 1.397 . S
C1251 C1256 1.363 . S
C1252 H1229 0.950 . S
C1252 C1251 1.397 . S
C1252 C1253 1.334 . S
C1253 H1230 0.950 . S
C1253 C1252 1.334 . S
C1253 C1254 1.287 . S
C1254 C1253 1.287 . S
C1254 C1255 1.524 . S
C1254 H1273 0.913 . S
C1255 H1231 0.950 . S
C1255 C1254 1.524 . S
C1255 C1256 1.415 . S
C1256 H1232 0.950 . S
C1256 C1251 1.363 . S
C1256 C1255 1.415 . S
C1257 H1233 0.951 . S
C1257 C1258 1.366 . S
C1257 C1259 1.388 . S
C1258 C1257 1.366 . S
C1258 C1262 1.385 . S
C1259 H1234 0.951 . S
C1259 C1257 1.388 . S
C1259 C1260 1.366 . S
C1260 C1259 1.366 . S
C1260 C1261 1.414 . S
C1260 C1263 1.499 . S
C1261 H1235 0.950 . S
C1261 C1260 1.414 . S
C1261 C1262 1.374 . S
C1262 H1236 0.950 . S
C1262 C1258 1.385 . S
C1262 C1261 1.374 . S
C1263 C1260 1.499 . S
C1263 C1264 1.373 . S
C1263 C1265 1.389 . S
C1264 H1237 0.950 . S
C1264 C1250 1.377 . S
C1264 C1263 1.373 . S
C1265 C1249 1.377 . S
C1265 C1263 1.389 . S
C1265 C1266 1.524 . S
C1266 C1265 1.524 . S
C1266 C1267 1.397 . S
C1266 C1271 1.363 . S
C1267 H1238 0.950 . S
C1267 C1266 1.397 . S
C1267 C1268 1.334 . S
C1268 H1239 0.950 . S
C1268 C1267 1.334 . S
C1268 C1269 1.287 . S
C1269 C1268 1.287 . S
C1269 C1270 1.524 . S
C1269 H1272 0.999 . S
C1270 H1240 0.950 . S
C1270 C1269 1.524 . S
C1270 C1271 1.415 . S
C1271 H1241 0.950 . S
C1271 C1266 1.363 . S
C1271 C1270 1.415 . S
H1272 C1269 0.999 . S
H1273 C1254 0.913 . S
H1274 C1292 0.951 . S
H1275 C1294 0.951 . S
H1276 C1296 0.950 . S
H1277 C1297 0.950 . S
H1278 C1299 0.950 . S
H1279 C1302 0.950 . S
H1280 C1303 0.950 . S
H1281 C1305 0.950 . S
H1282 C1306 0.950 . S
H1283 C1307 0.951 . S
H1284 C1309 0.951 . S
H1285 C1311 0.950 . S
H1286 C1312 0.950 . S
H1287 C1314 0.950 . S
H1288 C1317 0.950 . S
H1289 C1318 0.950 . S
H1290 C1320 0.950 . S
H1291 C1321 0.950 . S
C1292 H1274 0.951 . S
C1292 C1293 1.366 . S
C1292 C1294 1.388 . S
C1293 C1292 1.366 . S
C1293 C1297 1.385 . S
C1294 H1275 0.951 . S
C1294 C1292 1.388 . S
C1294 C1295 1.366 . S
C1295 C1294 1.366 . S
C1295 C1296 1.414 . S
C1295 C1298 1.499 . S
C1296 H1276 0.950 . S
C1296 C1295 1.414 . S
C1296 C1297 1.374 . S
C1297 H1277 0.950 . S
C1297 C1293 1.385 . S
C1297 C1296 1.374 . S
C1298 C1295 1.499 . S
C1298 C1299 1.373 . S
C1298 C1300 1.389 . S
C1299 H1278 0.950 . S
C1299 C1298 1.373 . S
C1299 C1315 1.377 . S
C1300 C1298 1.389 . S
C1300 C1301 1.524 . S
C1300 C1314 1.377 . S
C1301 C1300 1.524 . S
C1301 C1302 1.397 . S
C1301 C1306 1.363 . S
C1302 H1279 0.950 . S
C1302 C1301 1.397 . S
C1302 C1303 1.334 . S
C1303 H1280 0.950 . S
C1303 C1302 1.334 . S
C1303 C1304 1.287 . S
C1304 C1303 1.287 . S
C1304 C1305 1.524 . S
C1304 H1323 0.913 . S
C1305 H1281 0.950 . S
C1305 C1304 1.524 . S
C1305 C1306 1.415 . S
C1306 H1282 0.950 . S
C1306 C1301 1.363 . S
C1306 C1305 1.415 . S
C1307 H1283 0.951 . S
C1307 C1308 1.366 . S
C1307 C1309 1.388 . S
C1308 C1307 1.366 . S
C1308 C1312 1.385 . S
C1309 H1284 0.951 . S
C1309 C1307 1.388 . S
C1309 C1310 1.366 . S
C1310 C1309 1.366 . S
C1310 C1311 1.414 . S
C1310 C1313 1.499 . S
C1311 H1285 0.950 . S
C1311 C1310 1.414 . S
C1311 C1312 1.374 . S
C1312 H1286 0.950 . S
C1312 C1308 1.385 . S
C1312 C1311 1.374 . S
C1313 C1310 1.499 . S
C1313 C1314 1.373 . S
C1313 C1315 1.389 . S
C1314 H1287 0.950 . S
C1314 C1300 1.377 . S
C1314 C1313 1.373 . S
C1315 C1299 1.377 . S
C1315 C1313 1.389 . S
C1315 C1316 1.524 . S
C1316 C1315 1.524 . S
C1316 C1317 1.397 . S
C1316 C1321 1.363 . S
C1317 H1288 0.950 . S
C1317 C1316 1.397 . S
C1317 C1318 1.334 . S
C1318 H1289 0.950 . S
C1318 C1317 1.334 . S
C1318 C1319 1.287 . S
C1319 C1318 1.287 . S
C1319 C1320 1.524 . S
C1319 H1322 0.999 . S
C1320 H1290 0.950 . S
C1320 C1319 1.524 . S
C1320 C1321 1.415 . S
C1321 H1291 0.950 . S
C1321 C1316 1.363 . S
C1321 C1320 1.415 . S
H1322 C1319 0.999 . S
H1323 C1304 0.913 . S
H1324 C1342 0.951 . S
H1325 C1344 0.951 . S
H1326 C1346 0.950 . S
H1327 C1347 0.950 . S
H1328 C1349 0.950 . S
H1329 C1352 0.950 . S
H1330 C1353 0.950 . S
H1331 C1355 0.950 . S
H1332 C1356 0.950 . S
H1333 C1357 0.951 . S
H1334 C1359 0.951 . S
H1335 C1361 0.950 . S
H1336 C1362 0.950 . S
H1337 C1364 0.950 . S
H1338 C1367 0.950 . S
H1339 C1368 0.950 . S
H1340 C1370 0.950 . S
H1341 C1371 0.950 . S
C1342 H1324 0.951 . S
C1342 C1343 1.366 . S
C1342 C1344 1.388 . S
C1343 C1342 1.366 . S
C1343 C1347 1.385 . S
C1344 H1325 0.951 . S
C1344 C1342 1.388 . S
C1344 C1345 1.366 . S
C1345 C1344 1.366 . S
C1345 C1346 1.414 . S
C1345 C1348 1.499 . S
C1346 H1326 0.950 . S
C1346 C1345 1.414 . S
C1346 C1347 1.374 . S
C1347 H1327 0.950 . S
C1347 C1343 1.385 . S
C1347 C1346 1.374 . S
C1348 C1345 1.499 . S
C1348 C1349 1.373 . S
C1348 C1350 1.389 . S
C1349 H1328 0.950 . S
C1349 C1348 1.373 . S
C1349 C1365 1.377 . S
C1350 C1348 1.389 . S
C1350 C1351 1.524 . S
C1350 C1364 1.377 . S
C1351 C1350 1.524 . S
C1351 C1352 1.397 . S
C1351 C1356 1.363 . S
C1352 H1329 0.950 . S
C1352 C1351 1.397 . S
C1352 C1353 1.334 . S
C1353 H1330 0.950 . S
C1353 C1352 1.334 . S
C1353 C1354 1.287 . S
C1354 C1353 1.287 . S
C1354 C1355 1.524 . S
C1354 H1373 0.913 . S
C1355 H1331 0.950 . S
C1355 C1354 1.524 . S
C1355 C1356 1.415 . S
C1356 H1332 0.950 . S
C1356 C1351 1.363 . S
C1356 C1355 1.415 . S
C1357 H1333 0.951 . S
C1357 C1358 1.366 . S
C1357 C1359 1.388 . S
C1358 C1357 1.366 . S
C1358 C1362 1.385 . S
C1359 H1334 0.951 . S
C1359 C1357 1.388 . S
C1359 C1360 1.366 . S
C1360 C1359 1.366 . S
C1360 C1361 1.414 . S
C1360 C1363 1.499 . S
C1361 H1335 0.950 . S
C1361 C1360 1.414 . S
C1361 C1362 1.374 . S
C1362 H1336 0.950 . S
C1362 C1358 1.385 . S
C1362 C1361 1.374 . S
C1363 C1360 1.499 . S
C1363 C1364 1.373 . S
C1363 C1365 1.389 . S
C1364 H1337 0.950 . S
C1364 C1350 1.377 . S
C1364 C1363 1.373 . S
C1365 C1349 1.377 . S
C1365 C1363 1.389 . S
C1365 C1366 1.524 . S
C1366 C1365 1.524 . S
C1366 C1367 1.397 . S
C1366 C1371 1.363 . S
C1367 H1338 0.950 . S
C1367 C1366 1.397 . S
C1367 C1368 1.334 . S
C1368 H1339 0.950 . S
C1368 C1367 1.334 . S
C1368 C1369 1.287 . S
C1369 C1368 1.287 . S
C1369 C1370 1.524 . S
C1369 H1372 0.999 . S
C1370 H1340 0.950 . S
C1370 C1369 1.524 . S
C1370 C1371 1.415 . S
C1371 H1341 0.950 . S
C1371 C1366 1.363 . S
C1371 C1370 1.415 . S
H1372 C1369 0.999 . S
H1373 C1354 0.913 . S
H1374 C1392 0.951 . S
H1375 C1394 0.951 . S
H1376 C1396 0.950 . S
H1377 C1397 0.950 . S
H1378 C1399 0.950 . S
H1379 C1402 0.950 . S
H1380 C1403 0.950 . S
H1381 C1405 0.950 . S
H1382 C1406 0.950 . S
H1383 C1407 0.951 . S
H1384 C1409 0.951 . S
H1385 C1411 0.950 . S
H1386 C1412 0.950 . S
H1387 C1414 0.950 . S
H1388 C1417 0.950 . S
H1389 C1418 0.950 . S
H1390 C1420 0.950 . S
H1391 C1421 0.950 . S
C1392 H1374 0.951 . S
C1392 C1393 1.366 . S
C1392 C1394 1.388 . S
C1393 C1392 1.366 . S
C1393 C1397 1.385 . S
C1394 H1375 0.951 . S
C1394 C1392 1.388 . S
C1394 C1395 1.366 . S
C1395 C1394 1.366 . S
C1395 C1396 1.414 . S
C1395 C1398 1.499 . S
C1396 H1376 0.950 . S
C1396 C1395 1.414 . S
C1396 C1397 1.374 . S
C1397 H1377 0.950 . S
C1397 C1393 1.385 . S
C1397 C1396 1.374 . S
C1398 C1395 1.499 . S
C1398 C1399 1.373 . S
C1398 C1400 1.389 . S
C1399 H1378 0.950 . S
C1399 C1398 1.373 . S
C1399 C1415 1.377 . S
C1400 C1398 1.389 . S
C1400 C1401 1.524 . S
C1400 C1414 1.377 . S
C1401 C1400 1.524 . S
C1401 C1402 1.397 . S
C1401 C1406 1.363 . S
C1402 H1379 0.950 . S
C1402 C1401 1.397 . S
C1402 C1403 1.334 . S
C1403 H1380 0.950 . S
C1403 C1402 1.334 . S
C1403 C1404 1.287 . S
C1404 C1403 1.287 . S
C1404 C1405 1.524 . S
C1404 H1423 0.922 . S
C1405 H1381 0.950 . S
C1405 C1404 1.524 . S
C1405 C1406 1.415 . S
C1406 H1382 0.950 . S
C1406 C1401 1.363 . S
C1406 C1405 1.415 . S
C1407 H1383 0.951 . S
C1407 C1408 1.366 . S
C1407 C1409 1.388 . S
C1408 C1407 1.366 . S
C1408 C1412 1.385 . S
C1409 H1384 0.951 . S
C1409 C1407 1.388 . S
C1409 C1410 1.366 . S
C1410 C1409 1.366 . S
C1410 C1411 1.414 . S
C1410 C1413 1.499 . S
C1411 H1385 0.950 . S
C1411 C1410 1.414 . S
C1411 C1412 1.374 . S
C1412 H1386 0.950 . S
C1412 C1408 1.385 . S
C1412 C1411 1.374 . S
C1413 C1410 1.499 . S
C1413 C1414 1.373 . S
C1413 C1415 1.389 . S
C1414 H1387 0.950 . S
C1414 C1400 1.377 . S
C1414 C1413 1.373 . S
C1415 C1399 1.377 . S
C1415 C1413 1.389 . S
C1415 C1416 1.524 . S
C1416 C1415 1.524 . S
C1416 C1417 1.397 . S
C1416 C1421 1.363 . S
C1417 H1388 0.950 . S
C1417 C1416 1.397 . S
C1417 C1418 1.334 . S
C1418 H1389 0.950 . S
C1418 C1417 1.334 . S
C1418 C1419 1.287 . S
C1419 C1418 1.287 . S
C1419 C1420 1.524 . S
C1419 H1422 0.999 . S
C1420 H1390 0.950 . S
C1420 C1419 1.524 . S
C1420 C1421 1.415 . S
C1421 H1391 0.950 . S
C1421 C1416 1.363 . S
C1421 C1420 1.415 . S
H1422 C1419 0.999 . S
H1423 C1404 0.922 . S
H1424 C1442 0.951 . S
H1425 C1444 0.951 . S
H1426 C1446 0.950 . S
H1427 C1447 0.950 . S
H1428 C1449 0.950 . S
H1429 C1452 0.950 . S
H1430 C1453 0.950 . S
H1431 C1455 0.950 . S
H1432 C1456 0.950 . S
H1433 C1457 0.951 . S
H1434 C1459 0.951 . S
H1435 C1461 0.950 . S
H1436 C1462 0.950 . S
H1437 C1464 0.950 . S
H1438 C1467 0.950 . S
H1439 C1468 0.950 . S
H1440 C1470 0.950 . S
H1441 C1471 0.950 . S
C1442 H1424 0.951 . S
C1442 C1443 1.366 . S
C1442 C1444 1.388 . S
C1443 C1442 1.366 . S
C1443 C1447 1.385 . S
C1444 H1425 0.951 . S
C1444 C1442 1.388 . S
C1444 C1445 1.366 . S
C1445 C1444 1.366 . S
C1445 C1446 1.414 . S
C1445 C1448 1.499 . S
C1446 H1426 0.950 . S
C1446 C1445 1.414 . S
C1446 C1447 1.374 . S
C1447 H1427 0.950 . S
C1447 C1443 1.385 . S
C1447 C1446 1.374 . S
C1448 C1445 1.499 . S
C1448 C1449 1.373 1_455 S
C1448 C1450 1.389 . S
C1449 H1428 0.950 . S
C1449 C1448 1.373 1_655 S
C1449 C1465 1.377 . S
C1450 C1448 1.389 . S
C1450 C1451 1.524 . S
C1450 C1464 1.377 . S
C1451 C1450 1.524 . S
C1451 C1452 1.397 . S
C1451 C1456 1.363 . S
C1452 H1429 0.950 . S
C1452 C1451 1.397 . S
C1452 C1453 1.334 . S
C1453 H1430 0.950 . S
C1453 C1452 1.334 . S
C1453 C1454 1.287 . S
C1454 C1453 1.287 . S
C1454 C1455 1.524 . S
C1454 H1473 0.913 . S
C1455 H1431 0.950 . S
C1455 C1454 1.524 . S
C1455 C1456 1.415 . S
C1456 H1432 0.950 . S
C1456 C1451 1.363 . S
C1456 C1455 1.415 . S
C1457 H1433 0.951 . S
C1457 C1458 1.366 . S
C1457 C1459 1.388 . S
C1458 C1457 1.366 . S
C1458 C1462 1.385 . S
C1459 H1434 0.951 . S
C1459 C1457 1.388 . S
C1459 C1460 1.366 . S
C1460 C1459 1.366 . S
C1460 C1461 1.414 . S
C1460 C1463 1.499 . S
C1461 H1435 0.950 . S
C1461 C1460 1.414 . S
C1461 C1462 1.374 . S
C1462 H1436 0.950 . S
C1462 C1458 1.385 . S
C1462 C1461 1.374 . S
C1463 C1460 1.499 . S
C1463 C1464 1.373 1_655 S
C1463 C1465 1.389 . S
C1464 H1437 0.950 . S
C1464 C1450 1.377 . S
C1464 C1463 1.373 1_455 S
C1465 C1449 1.377 . S
C1465 C1463 1.389 . S
C1465 C1466 1.524 . S
C1466 C1465 1.524 . S
C1466 C1467 1.397 . S
C1466 C1471 1.363 . S
C1467 H1438 0.950 . S
C1467 C1466 1.397 . S
C1467 C1468 1.334 . S
C1468 H1439 0.950 . S
C1468 C1467 1.334 . S
C1468 C1469 1.287 . S
C1469 C1468 1.287 . S
C1469 C1470 1.524 . S
C1469 H1472 0.999 . S
C1470 H1440 0.950 . S
C1470 C1469 1.524 . S
C1470 C1471 1.415 . S
C1471 H1441 0.950 . S
C1471 C1466 1.363 . S
C1471 C1470 1.415 . S
H1472 C1469 0.999 . S
H1473 C1454 0.913 . S
H1474 C1492 0.951 1_545 S
H1475 C1494 0.952 . S
H1476 C1496 0.950 . S
H1477 C1497 0.950 . S
H1478 C1499 0.950 . S
H1479 C1502 0.950 . S
H1480 C1503 0.950 . S
H1481 C1505 0.950 . S
H1482 C1506 0.950 1_545 S
H1483 C1507 0.951 1_565 S
H1484 C1509 0.952 . S
H1485 C1511 0.950 . S
H1486 C1512 0.950 . S
H1487 C1514 0.950 . S
H1488 C1517 0.950 . S
H1489 C1518 0.950 . S
H1490 C1520 0.950 . S
H1491 C1521 0.950 1_565 S
C1492 H1474 0.951 1_565 S
C1492 C1493 1.366 . S
C1492 C1494 1.387 1_565 S
C1493 C1492 1.366 . S
C1493 C1497 1.385 . S
C1494 H1475 0.952 . S
C1494 C1492 1.387 1_545 S
C1494 C1495 1.365 1_545 S
C1495 C1494 1.365 1_565 S
C1495 C1496 1.414 . S
C1495 C1498 1.499 . S
C1496 H1476 0.950 . S
C1496 C1495 1.414 . S
C1496 C1497 1.374 . S
C1497 H1477 0.950 . S
C1497 C1493 1.385 . S
C1497 C1496 1.374 . S
C1498 C1495 1.499 . S
C1498 C1499 1.373 1_565 S
C1498 C1500 1.389 . S
C1499 H1478 0.950 . S
C1499 C1498 1.373 1_545 S
C1499 C1515 1.377 . S
C1500 C1498 1.389 . S
C1500 C1501 1.524 . S
C1500 C1514 1.377 . S
C1501 C1500 1.524 . S
C1501 C1502 1.397 . S
C1501 C1506 1.363 . S
C1502 H1479 0.950 . S
C1502 C1501 1.397 . S
C1502 C1503 1.334 . S
C1503 H1480 0.950 . S
C1503 C1502 1.334 . S
C1503 C1504 1.287 . S
C1504 C1503 1.287 . S
C1504 C1505 1.524 . S
C1504 H1523 0.913 . S
C1505 H1481 0.950 . S
C1505 C1504 1.524 . S
C1505 C1506 1.415 . S
C1506 H1482 0.950 1_565 S
C1506 C1501 1.363 . S
C1506 C1505 1.415 . S
C1507 H1483 0.951 1_545 S
C1507 C1508 1.366 . S
C1507 C1509 1.387 1_545 S
C1508 C1507 1.366 . S
C1508 C1512 1.385 . S
C1509 H1484 0.952 . S
C1509 C1507 1.387 1_565 S
C1509 C1510 1.365 1_565 S
C1510 C1509 1.365 1_545 S
C1510 C1511 1.414 . S
C1510 C1513 1.499 . S
C1511 H1485 0.950 . S
C1511 C1510 1.414 . S
C1511 C1512 1.374 . S
C1512 H1486 0.950 . S
C1512 C1508 1.385 . S
C1512 C1511 1.374 . S
C1513 C1510 1.499 . S
C1513 C1514 1.373 1_545 S
C1513 C1515 1.389 . S
C1514 H1487 0.950 . S
C1514 C1500 1.377 . S
C1514 C1513 1.373 1_565 S
C1515 C1499 1.377 . S
C1515 C1513 1.389 . S
C1515 C1516 1.524 . S
C1516 C1515 1.524 . S
C1516 C1517 1.397 . S
C1516 C1521 1.363 . S
C1517 H1488 0.950 . S
C1517 C1516 1.397 . S
C1517 C1518 1.334 . S
C1518 H1489 0.950 . S
C1518 C1517 1.334 . S
C1518 C1519 1.287 . S
C1519 C1518 1.287 . S
C1519 C1520 1.524 . S
C1519 H1522 0.999 . S
C1520 H1490 0.950 . S
C1520 C1519 1.524 . S
C1520 C1521 1.415 . S
C1521 H1491 0.950 1_545 S
C1521 C1516 1.363 . S
C1521 C1520 1.415 . S
H1522 C1519 0.999 . S
H1523 C1504 0.913 . S
H1524 C1542 0.951 . S
H1525 C1544 0.951 . S
H1526 C1546 0.950 . S
H1527 C1547 0.950 1_655 S
H1528 C1549 0.950 . S
H1529 C1552 0.950 . S
H1530 C1553 0.950 . S
H1531 C1555 0.950 . S
H1532 C1556 0.950 . S
H1533 C1557 0.951 . S
H1534 C1559 0.951 . S
H1535 C1561 0.950 . S
H1536 C1562 0.950 1_455 S
H1537 C1564 0.950 . S
H1538 C1567 0.950 . S
H1539 C1568 0.950 . S
H1540 C1570 0.950 . S
H1541 C1571 0.950 . S
C1542 H1524 0.951 . S
C1542 C1543 1.366 . S
C1542 C1544 1.388 . S
C1543 C1542 1.366 . S
C1543 C1547 1.385 . S
C1544 H1525 0.951 . S
C1544 C1542 1.388 . S
C1544 C1545 1.366 . S
C1545 C1544 1.366 . S
C1545 C1546 1.414 1_455 S
C1545 C1548 1.499 . S
C1546 H1526 0.950 . S
C1546 C1545 1.414 1_655 S
C1546 C1547 1.374 1_655 S
C1547 H1527 0.950 1_455 S
C1547 C1543 1.385 . S
C1547 C1546 1.374 1_455 S
C1548 C1545 1.499 . S
C1548 C1549 1.373 1_455 S
C1548 C1550 1.389 . S
C1549 H1528 0.950 . S
C1549 C1548 1.373 1_655 S
C1549 C1565 1.377 . S
C1550 C1548 1.389 . S
C1550 C1551 1.524 . S
C1550 C1564 1.377 . S
C1551 C1550 1.524 . S
C1551 C1552 1.397 . S
C1551 C1556 1.363 . S
C1552 H1529 0.950 . S
C1552 C1551 1.397 . S
C1552 C1553 1.334 . S
C1553 H1530 0.950 . S
C1553 C1552 1.334 . S
C1553 C1554 1.287 . S
C1554 C1553 1.287 . S
C1554 C1555 1.524 . S
C1554 H1573 0.913 . S
C1555 H1531 0.950 . S
C1555 C1554 1.524 . S
C1555 C1556 1.415 . S
C1556 H1532 0.950 . S
C1556 C1551 1.363 . S
C1556 C1555 1.415 . S
C1557 H1533 0.951 . S
C1557 C1558 1.366 . S
C1557 C1559 1.388 . S
C1558 C1557 1.366 . S
C1558 C1562 1.385 . S
C1559 H1534 0.951 . S
C1559 C1557 1.388 . S
C1559 C1560 1.366 . S
C1560 C1559 1.366 . S
C1560 C1561 1.414 1_655 S
C1560 C1563 1.499 . S
C1561 H1535 0.950 . S
C1561 C1560 1.414 1_455 S
C1561 C1562 1.374 1_455 S
C1562 H1536 0.950 1_655 S
C1562 C1558 1.385 . S
C1562 C1561 1.374 1_655 S
C1563 C1560 1.499 . S
C1563 C1564 1.373 1_655 S
C1563 C1565 1.389 . S
C1564 H1537 0.950 . S
C1564 C1550 1.377 . S
C1564 C1563 1.373 1_455 S
C1565 C1549 1.377 . S
C1565 C1563 1.389 . S
C1565 C1566 1.524 . S
C1566 C1565 1.524 . S
C1566 C1567 1.397 . S
C1566 C1571 1.363 . S
C1567 H1538 0.950 . S
C1567 C1566 1.397 . S
C1567 C1568 1.334 . S
C1568 H1539 0.950 . S
C1568 C1567 1.334 . S
C1568 C1569 1.287 . S
C1569 C1568 1.287 . S
C1569 C1570 1.524 . S
C1569 H1572 0.999 . S
C1570 H1540 0.950 . S
C1570 C1569 1.524 . S
C1570 C1571 1.415 . S
C1571 H1541 0.950 . S
C1571 C1566 1.363 . S
C1571 C1570 1.415 . S
H1572 C1569 0.999 . S
H1573 C1554 0.913 . S
H1574 C1592 0.951 . S
H1575 C1594 0.951 . S
H1576 C1596 0.950 . S
H1577 C1597 0.950 . S
H1578 C1599 0.950 . S
H1579 C1602 0.950 . S
H1580 C1603 0.950 . S
H1581 C1605 0.950 . S
H1582 C1606 0.950 . S
H1583 C1607 0.951 . S
H1584 C1609 0.951 . S
H1585 C1611 0.950 . S
H1586 C1612 0.950 . S
H1587 C1614 0.950 . S
H1588 C1617 0.950 . S
H1589 C1618 0.950 . S
H1590 C1620 0.950 . S
H1591 C1621 0.950 . S
C1592 H1574 0.951 . S
C1592 C1593 1.366 1_565 S
C1592 C1594 1.388 . S
C1593 C1592 1.366 1_545 S
C1593 C1597 1.385 . S
C1594 H1575 0.951 . S
C1594 C1592 1.388 . S
C1594 C1595 1.366 1_565 S
C1595 C1594 1.366 1_545 S
C1595 C1596 1.414 . S
C1595 C1598 1.499 . S
C1596 H1576 0.950 . S
C1596 C1595 1.414 . S
C1596 C1597 1.374 . S
C1597 H1577 0.950 . S
C1597 C1593 1.385 . S
C1597 C1596 1.374 . S
C1598 C1595 1.499 . S
C1598 C1599 1.373 . S
C1598 C1600 1.389 1_545 S
C1599 H1578 0.950 . S
C1599 C1598 1.373 . S
C1599 C1615 1.377 . S
C1600 C1598 1.389 1_565 S
C1600 C1601 1.524 . S
C1600 C1614 1.377 . S
C1601 C1600 1.524 . S
C1601 C1602 1.397 . S
C1601 C1606 1.363 . S
C1602 H1579 0.950 . S
C1602 C1601 1.397 . S
C1602 C1603 1.334 . S
C1603 H1580 0.950 . S
C1603 C1602 1.334 . S
C1603 C1604 1.287 . S
C1604 C1603 1.287 . S
C1604 C1605 1.524 . S
C1604 H1623 0.913 . S
C1605 H1581 0.950 . S
C1605 C1604 1.524 . S
C1605 C1606 1.415 . S
C1606 H1582 0.950 . S
C1606 C1601 1.363 . S
C1606 C1605 1.415 . S
C1607 H1583 0.951 . S
C1607 C1608 1.366 1_545 S
C1607 C1609 1.388 . S
C1608 C1607 1.366 1_565 S
C1608 C1612 1.385 . S
C1609 H1584 0.951 . S
C1609 C1607 1.388 . S
C1609 C1610 1.366 1_545 S
C1610 C1609 1.366 1_565 S
C1610 C1611 1.414 . S
C1610 C1613 1.499 . S
C1611 H1585 0.950 . S
C1611 C1610 1.414 . S
C1611 C1612 1.374 . S
C1612 H1586 0.950 . S
C1612 C1608 1.385 . S
C1612 C1611 1.374 . S
C1613 C1610 1.499 . S
C1613 C1614 1.373 . S
C1613 C1615 1.389 1_565 S
C1614 H1587 0.950 . S
C1614 C1600 1.377 . S
C1614 C1613 1.373 . S
C1615 C1599 1.377 . S
C1615 C1613 1.389 1_545 S
C1615 C1616 1.524 . S
C1616 C1615 1.524 . S
C1616 C1617 1.397 . S
C1616 C1621 1.363 . S
C1617 H1588 0.950 . S
C1617 C1616 1.397 . S
C1617 C1618 1.334 . S
C1618 H1589 0.950 . S
C1618 C1617 1.334 . S
C1618 C1619 1.287 . S
C1619 C1618 1.287 . S
C1619 C1620 1.524 . S
C1619 H1622 0.999 . S
C1620 H1590 0.950 . S
C1620 C1619 1.524 . S
C1620 C1621 1.415 . S
C1621 H1591 0.950 . S
C1621 C1616 1.363 . S
C1621 C1620 1.415 . S
H1622 C1619 0.999 . S
H1623 C1604 0.913 . S
H1624 C1642 0.951 . S
H1625 C1644 0.951 . S
H1626 C1646 0.950 . S
H1627 C1647 0.950 . S
H1628 C1649 0.950 . S
H1629 C1652 0.950 . S
H1630 C1653 0.950 . S
H1631 C1655 0.950 . S
H1632 C1656 0.971 . S
H1633 C1657 0.951 . S
H1634 C1659 0.951 . S
H1635 C1661 0.950 . S
H1636 C1662 0.950 . S
H1637 C1664 0.950 . S
H1638 C1667 0.950 . S
H1639 C1668 0.950 . S
H1640 C1670 0.950 . S
H1641 C1671 0.971 . S
C1642 H1624 0.951 . S
C1642 C1643 1.366 . S
C1642 C1644 1.388 . S
C1643 C1642 1.366 . S
C1643 C1647 1.385 . S
C1644 H1625 0.951 . S
C1644 C1642 1.388 . S
C1644 C1645 1.366 . S
C1645 C1644 1.366 . S
C1645 C1646 1.414 . S
C1645 C1648 1.499 . S
C1646 H1626 0.950 . S
C1646 C1645 1.414 . S
C1646 C1647 1.374 . S
C1647 H1627 0.950 . S
C1647 C1643 1.385 . S
C1647 C1646 1.374 . S
C1648 C1645 1.499 . S
C1648 C1649 1.373 . S
C1648 C1650 1.389 . S
C1649 H1628 0.950 . S
C1649 C1648 1.373 . S
C1649 C1665 1.377 1_556 S
C1650 C1648 1.389 . S
C1650 C1651 1.524 . S
C1650 C1664 1.377 1_556 S
C1651 C1650 1.524 . S
C1651 C1652 1.397 . S
C1651 C1656 1.363 . S
C1652 H1629 0.950 . S
C1652 C1651 1.397 . S
C1652 C1653 1.334 . S
C1653 H1630 0.950 . S
C1653 C1652 1.334 . S
C1653 C1654 1.287 . S
C1654 C1653 1.287 . S
C1654 C1655 1.524 . S
C1654 H1673 0.913 . S
C1655 H1631 0.950 . S
C1655 C1654 1.524 . S
C1655 C1656 1.415 . S
C1656 H1632 0.971 . S
C1656 C1651 1.363 . S
C1656 C1655 1.415 . S
C1657 H1633 0.951 . S
C1657 C1658 1.366 . S
C1657 C1659 1.388 . S
C1658 C1657 1.366 . S
C1658 C1662 1.385 . S
C1659 H1634 0.951 . S
C1659 C1657 1.388 . S
C1659 C1660 1.366 . S
C1660 C1659 1.366 . S
C1660 C1661 1.414 . S
C1660 C1663 1.499 . S
C1661 H1635 0.950 . S
C1661 C1660 1.414 . S
C1661 C1662 1.374 . S
C1662 H1636 0.950 . S
C1662 C1658 1.385 . S
C1662 C1661 1.374 . S
C1663 C1660 1.499 . S
C1663 C1664 1.373 . S
C1663 C1665 1.389 . S
C1664 H1637 0.950 . S
C1664 C1650 1.377 1_554 S
C1664 C1663 1.373 . S
C1665 C1649 1.377 1_554 S
C1665 C1663 1.389 . S
C1665 C1666 1.524 . S
C1666 C1665 1.524 . S
C1666 C1667 1.397 . S
C1666 C1671 1.363 . S
C1667 H1638 0.950 . S
C1667 C1666 1.397 . S
C1667 C1668 1.334 . S
C1668 H1639 0.950 . S
C1668 C1667 1.334 . S
C1668 C1669 1.287 . S
C1669 C1668 1.287 . S
C1669 C1670 1.524 . S
C1669 H1672 0.999 . S
C1670 H1640 0.950 . S
C1670 C1669 1.524 . S
C1670 C1671 1.415 . S
C1671 H1641 0.971 . S
C1671 C1666 1.363 . S
C1671 C1670 1.415 . S
H1672 C1669 0.999 . S
H1673 C1654 0.913 . S
H1674 C1692 0.951 . S
H1675 C1694 0.951 . S
H1676 C1696 0.950 . S
H1677 C1697 0.950 . S
H1678 C1699 0.950 . S
H1679 C1702 0.950 . S
H1680 C1703 0.950 . S
H1681 C1705 0.950 . S
H1682 C1706 0.950 . S
H1683 C1707 0.951 . S
H1684 C1709 0.951 . S
H1685 C1711 0.950 . S
H1686 C1712 0.950 . S
H1687 C1714 0.950 . S
H1688 C1717 0.950 . S
H1689 C1718 0.950 . S
H1690 C1720 0.950 . S
H1691 C1721 0.950 . S
C1692 H1674 0.951 . S
C1692 C1693 1.366 . S
C1692 C1694 1.388 . S
C1693 C1692 1.366 . S
C1693 C1697 1.385 . S
C1694 H1675 0.951 . S
C1694 C1692 1.388 . S
C1694 C1695 1.366 . S
C1695 C1694 1.366 . S
C1695 C1696 1.414 . S
C1695 C1698 1.499 . S
C1696 H1676 0.950 . S
C1696 C1695 1.414 . S
C1696 C1697 1.374 . S
C1697 H1677 0.950 . S
C1697 C1693 1.385 . S
C1697 C1696 1.374 . S
C1698 C1695 1.499 . S
C1698 C1699 1.373 . S
C1698 C1700 1.389 . S
C1699 H1678 0.950 . S
C1699 C1698 1.373 . S
C1699 C1715 1.377 1_556 S
C1700 C1698 1.389 . S
C1700 C1701 1.524 . S
C1700 C1714 1.377 1_556 S
C1701 C1700 1.524 . S
C1701 C1702 1.397 . S
C1701 C1706 1.363 . S
C1702 H1679 0.950 . S
C1702 C1701 1.397 . S
C1702 C1703 1.334 . S
C1703 H1680 0.950 . S
C1703 C1702 1.334 . S
C1703 C1704 1.287 . S
C1704 C1703 1.287 . S
C1704 C1705 1.524 . S
C1704 H1723 0.913 . S
C1705 H1681 0.950 . S
C1705 C1704 1.524 . S
C1705 C1706 1.415 . S
C1706 H1682 0.950 . S
C1706 C1701 1.363 . S
C1706 C1705 1.415 . S
C1707 H1683 0.951 . S
C1707 C1708 1.366 . S
C1707 C1709 1.388 . S
C1708 C1707 1.366 . S
C1708 C1712 1.385 . S
C1709 H1684 0.951 . S
C1709 C1707 1.388 . S
C1709 C1710 1.366 . S
C1710 C1709 1.366 . S
C1710 C1711 1.414 . S
C1710 C1713 1.499 . S
C1711 H1685 0.950 . S
C1711 C1710 1.414 . S
C1711 C1712 1.374 . S
C1712 H1686 0.950 . S
C1712 C1708 1.385 . S
C1712 C1711 1.374 . S
C1713 C1710 1.499 . S
C1713 C1714 1.373 . S
C1713 C1715 1.389 . S
C1714 H1687 0.950 . S
C1714 C1700 1.377 1_554 S
C1714 C1713 1.373 . S
C1715 C1699 1.377 1_554 S
C1715 C1713 1.389 . S
C1715 C1716 1.524 . S
C1716 C1715 1.524 . S
C1716 C1717 1.397 . S
C1716 C1721 1.363 . S
C1717 H1688 0.950 . S
C1717 C1716 1.397 . S
C1717 C1718 1.334 . S
C1718 H1689 0.950 . S
C1718 C1717 1.334 . S
C1718 C1719 1.287 . S
C1719 C1718 1.287 . S
C1719 C1720 1.524 . S
C1719 H1722 0.999 . S
C1720 H1690 0.950 . S
C1720 C1719 1.524 . S
C1720 C1721 1.415 . S
C1721 H1691 0.950 . S
C1721 C1716 1.363 . S
C1721 C1720 1.415 . S
H1722 C1719 0.999 . S
H1723 C1704 0.913 . S
H1724 C1742 0.951 . S
H1725 C1744 0.951 . S
H1726 C1746 0.950 . S
H1727 C1747 0.950 . S
H1728 C1749 0.950 . S
H1729 C1752 0.950 . S
H1730 C1753 0.950 . S
H1731 C1755 0.950 . S
H1732 C1756 0.950 . S
H1733 C1757 0.951 . S
H1734 C1759 0.951 . S
H1735 C1761 0.950 . S
H1736 C1762 0.950 . S
H1737 C1764 0.950 . S
H1738 C1767 0.950 . S
H1739 C1768 0.950 . S
H1740 C1770 0.950 . S
H1741 C1771 0.950 . S
C1742 H1724 0.951 . S
C1742 C1743 1.366 . S
C1742 C1744 1.388 . S
C1743 C1742 1.366 . S
C1743 C1747 1.385 . S
C1744 H1725 0.951 . S
C1744 C1742 1.388 . S
C1744 C1745 1.366 . S
C1745 C1744 1.366 . S
C1745 C1746 1.414 . S
C1745 C1748 1.499 . S
C1746 H1726 0.950 . S
C1746 C1745 1.414 . S
C1746 C1747 1.374 . S
C1747 H1727 0.950 . S
C1747 C1743 1.385 . S
C1747 C1746 1.374 . S
C1748 C1745 1.499 . S
C1748 C1749 1.373 . S
C1748 C1750 1.389 . S
C1749 H1728 0.950 . S
C1749 C1748 1.373 . S
C1749 C1765 1.377 1_554 S
C1750 C1748 1.389 . S
C1750 C1751 1.524 . S
C1750 C1764 1.377 1_554 S
C1751 C1750 1.524 . S
C1751 C1752 1.397 . S
C1751 C1756 1.363 . S
C1752 H1729 0.950 . S
C1752 C1751 1.397 . S
C1752 C1753 1.334 . S
C1753 H1730 0.950 . S
C1753 C1752 1.334 . S
C1753 C1754 1.287 . S
C1754 C1753 1.287 . S
C1754 C1755 1.524 . S
C1754 H1773 0.913 . S
C1755 H1731 0.950 . S
C1755 C1754 1.524 . S
C1755 C1756 1.415 . S
C1756 H1732 0.950 . S
C1756 C1751 1.363 . S
C1756 C1755 1.415 . S
C1757 H1733 0.951 . S
C1757 C1758 1.366 . S
C1757 C1759 1.388 . S
C1758 C1757 1.366 . S
C1758 C1762 1.385 . S
C1759 H1734 0.951 . S
C1759 C1757 1.388 . S
C1759 C1760 1.366 . S
C1760 C1759 1.366 . S
C1760 C1761 1.414 . S
C1760 C1763 1.499 . S
C1761 H1735 0.950 . S
C1761 C1760 1.414 . S
C1761 C1762 1.374 . S
C1762 H1736 0.950 . S
C1762 C1758 1.385 . S
C1762 C1761 1.374 . S
C1763 C1760 1.499 . S
C1763 C1764 1.373 . S
C1763 C1765 1.389 . S
C1764 H1737 0.950 . S
C1764 C1750 1.377 1_556 S
C1764 C1763 1.373 . S
C1765 C1749 1.377 1_556 S
C1765 C1763 1.389 . S
C1765 C1766 1.524 . S
C1766 C1765 1.524 . S
C1766 C1767 1.397 . S
C1766 C1771 1.363 . S
C1767 H1738 0.950 . S
C1767 C1766 1.397 . S
C1767 C1768 1.334 . S
C1768 H1739 0.950 . S
C1768 C1767 1.334 . S
C1768 C1769 1.287 . S
C1769 C1768 1.287 . S
C1769 C1770 1.524 . S
C1769 H1772 0.999 . S
C1770 H1740 0.950 . S
C1770 C1769 1.524 . S
C1770 C1771 1.415 . S
C1771 H1741 0.950 . S
C1771 C1766 1.363 . S
C1771 C1770 1.415 . S
H1772 C1769 0.999 . S
H1773 C1754 0.913 . S
H1774 C1792 0.951 . S
H1775 C1794 0.951 . S
H1776 C1796 0.950 . S
H1777 C1797 0.950 . S
H1778 C1799 0.950 . S
H1779 C1802 0.950 . S
H1780 C1803 0.950 . S
H1781 C1805 0.950 . S
H1782 C1806 0.950 . S
H1783 C1807 0.951 . S
H1784 C1809 0.951 . S
H1785 C1811 0.950 . S
H1786 C1812 0.950 . S
H1787 C1814 0.950 . S
H1788 C1817 0.950 . S
H1789 C1818 0.950 . S
H1790 C1820 0.950 . S
H1791 C1821 0.950 . S
C1792 H1774 0.951 . S
C1792 C1793 1.366 . S
C1792 C1794 1.388 . S
C1793 C1792 1.366 . S
C1793 C1797 1.385 . S
C1794 H1775 0.951 . S
C1794 C1792 1.388 . S
C1794 C1795 1.366 . S
C1795 C1794 1.366 . S
C1795 C1796 1.414 . S
C1795 C1798 1.499 . S
C1796 H1776 0.950 . S
C1796 C1795 1.414 . S
C1796 C1797 1.374 . S
C1797 H1777 0.950 . S
C1797 C1793 1.385 . S
C1797 C1796 1.374 . S
C1798 C1795 1.499 . S
C1798 C1799 1.373 . S
C1798 C1800 1.389 . S
C1799 H1778 0.950 . S
C1799 C1798 1.373 . S
C1799 C1815 1.377 1_556 S
C1800 C1798 1.389 . S
C1800 C1801 1.524 . S
C1800 C1814 1.377 1_556 S
C1801 C1800 1.524 . S
C1801 C1802 1.397 . S
C1801 C1806 1.363 . S
C1802 H1779 0.950 . S
C1802 C1801 1.397 . S
C1802 C1803 1.334 . S
C1803 H1780 0.950 . S
C1803 C1802 1.334 . S
C1803 C1804 1.287 . S
C1804 C1803 1.287 . S
C1804 C1805 1.524 . S
C1804 H1823 0.913 . S
C1805 H1781 0.950 . S
C1805 C1804 1.524 . S
C1805 C1806 1.415 . S
C1806 H1782 0.950 . S
C1806 C1801 1.363 . S
C1806 C1805 1.415 . S
C1807 H1783 0.951 . S
C1807 C1808 1.366 . S
C1807 C1809 1.388 . S
C1808 C1807 1.366 . S
C1808 C1812 1.385 . S
C1809 H1784 0.951 . S
C1809 C1807 1.388 . S
C1809 C1810 1.366 . S
C1810 C1809 1.366 . S
C1810 C1811 1.414 . S
C1810 C1813 1.499 . S
C1811 H1785 0.950 . S
C1811 C1810 1.414 . S
C1811 C1812 1.374 . S
C1812 H1786 0.950 . S
C1812 C1808 1.385 . S
C1812 C1811 1.374 . S
C1813 C1810 1.499 . S
C1813 C1814 1.373 . S
C1813 C1815 1.389 . S
C1814 H1787 0.950 . S
C1814 C1800 1.377 1_554 S
C1814 C1813 1.373 . S
C1815 C1799 1.377 1_554 S
C1815 C1813 1.389 . S
C1815 C1816 1.524 . S
C1816 C1815 1.524 . S
C1816 C1817 1.397 . S
C1816 C1821 1.363 . S
C1817 H1788 0.950 . S
C1817 C1816 1.397 . S
C1817 C1818 1.334 . S
C1818 H1789 0.950 . S
C1818 C1817 1.334 . S
C1818 C1819 1.287 . S
C1819 C1818 1.287 . S
C1819 C1820 1.524 . S
C1819 H1822 0.999 . S
C1820 H1790 0.950 . S
C1820 C1819 1.524 . S
C1820 C1821 1.415 . S
C1821 H1791 0.950 . S
C1821 C1816 1.363 . S
C1821 C1820 1.415 . S
H1822 C1819 0.999 . S
H1823 C1804 0.913 . S
C243 C13 1.213 . S
C258 C50 1.205 . S
C293 C8 1.204 . S
C308 C27 1.215 . S
C343 C22 1.204 . S
C358 C41 1.213 . S
C393 C36 1.204 . S
C408 C55 1.215 . S
C443 C69 1.215 . S
C458 C78 1.203 . S
C493 C83 1.214 . S
C508 C92 1.205 . S
C543 C97 1.213 . S
C558 C106 1.205 . S
C593 C111 1.213 . S
C608 C64 1.205 . S
C643 C125 1.214 . S
C658 C162 1.204 . S
C693 C120 1.205 . S
C708 C139 1.213 . S
C743 C134 1.204 . S
C758 C153 1.213 . S
C793 C167 1.214 . S
C808 C148 1.204 . S
C843 C190 1.203 . S
C858 C181 1.215 . S
C893 C204 1.203 . S
C908 C195 1.215 . S
C943 C209 1.215 . S
C958 C218 1.204 . S
C993 C223 1.215 . S
C1008 C176 1.203 . S
C1043 C11 0.799 . S
C1058 C221 0.799 . S
C1093 C25 0.799 . S
C1108 C179 0.799 . S
C1143 C193 0.798 . S
C1158 C39 0.799 . S
C1193 C53 0.798 . S
C1208 C207 0.799 . S
C1243 C137 0.799 . S
C1258 C67 0.798 . S
C1293 C151 0.799 . S
C1308 C81 0.799 . S
C1343 C95 0.799 . S
C1358 C165 0.798 . S
C1393 C109 0.798 . S
C1408 C123 0.799 . S
C1443 C7 1.335 . S
C1458 C91 1.335 . S
C1493 C105 1.335 . S
C1508 C21 1.336 . S
C1543 C63 1.335 . S
C1558 C35 1.335 . S
C1593 C77 1.335 . S
C1608 C49 1.335 . S
C1643 C119 1.336 . S
C1658 C203 1.334 . S
C1693 C133 1.334 . S
C1708 C217 1.336 . S
C1743 C175 1.334 . S
C1758 C147 1.336 . S
C1793 C161 1.335 . S
C1808 C189 1.336 . S
