# Generated by pormake.
# Topology sva, (7)-cn, num edge types: 1
# Building blocks:
#     Node 0, Type 0, BuildingBlock: HICVOG_clean_sbu_0, # of connection points: 7
#     Node 1, Type 0, BuildingBlock: HICVOG_clean_sbu_0, # of connection points: 7
#     Node 2, Type 0, BuildingBlock: HICVOG_clean_sbu_0, # of connection points: 7
#     Node 3, Type 0, BuildingBlock: HICVOG_clean_sbu_0, # of connection points: 7
#     Node 4, Type 0, BuildingBlock: HICVOG_clean_sbu_0, # of connection points: 7
#     Node 5, Type 0, BuildingBlock: HICVOG_clean_sbu_0, # of connection points: 7
#     Node 6, Type 0, BuildingBlock: HICVOG_clean_sbu_0, # of connection points: 7
#     Node 7, Type 0, BuildingBlock: HICVOG_clean_sbu_0, # of connection points: 7
#     Edge 8, Type (0, 0), BuildingBlock: EZIPEK_clean_linker_0, # of connection points: 2
#     Edge 9, Type (0, 0), BuildingBlock: EZIPEK_clean_linker_0, # of connection points: 2
#     Edge 10, Type (0, 0), BuildingBlock: EZIPEK_clean_linker_0, # of connection points: 2
#     Edge 11, Type (0, 0), BuildingBlock: EZIPEK_clean_linker_0, # of connection points: 2
#     Edge 12, Type (0, 0), BuildingBlock: EZIPEK_clean_linker_0, # of connection points: 2
#     Edge 13, Type (0, 0), BuildingBlock: EZIPEK_clean_linker_0, # of connection points: 2
#     Edge 14, Type (0, 0), BuildingBlock: EZIPEK_clean_linker_0, # of connection points: 2
#     Edge 15, Type (0, 0), BuildingBlock: EZIPEK_clean_linker_0, # of connection points: 2
#     Edge 16, Type (0, 0), BuildingBlock: EZIPEK_clean_linker_0, # of connection points: 2
#     Edge 17, Type (0, 0), BuildingBlock: EZIPEK_clean_linker_0, # of connection points: 2
#     Edge 18, Type (0, 0), BuildingBlock: EZIPEK_clean_linker_0, # of connection points: 2
#     Edge 19, Type (0, 0), BuildingBlock: EZIPEK_clean_linker_0, # of connection points: 2
#     Edge 20, Type (0, 0), BuildingBlock: EZIPEK_clean_linker_0, # of connection points: 2
#     Edge 21, Type (0, 0), BuildingBlock: EZIPEK_clean_linker_0, # of connection points: 2
#     Edge 22, Type (0, 0), BuildingBlock: EZIPEK_clean_linker_0, # of connection points: 2
#     Edge 23, Type (0, 0), BuildingBlock: EZIPEK_clean_linker_0, # of connection points: 2
#     Edge 24, Type (0, 0), BuildingBlock: EZIPEK_clean_linker_0, # of connection points: 2
#     Edge 25, Type (0, 0), BuildingBlock: EZIPEK_clean_linker_0, # of connection points: 2
#     Edge 26, Type (0, 0), BuildingBlock: EZIPEK_clean_linker_0, # of connection points: 2
#     Edge 27, Type (0, 0), BuildingBlock: EZIPEK_clean_linker_0, # of connection points: 2
#     Edge 28, Type (0, 0), BuildingBlock: EZIPEK_clean_linker_0, # of connection points: 2
#     Edge 29, Type (0, 0), BuildingBlock: EZIPEK_clean_linker_0, # of connection points: 2
#     Edge 30, Type (0, 0), BuildingBlock: EZIPEK_clean_linker_0, # of connection points: 2
#     Edge 31, Type (0, 0), BuildingBlock: EZIPEK_clean_linker_0, # of connection points: 2
#     Edge 32, Type (0, 0), BuildingBlock: EZIPEK_clean_linker_0, # of connection points: 2
#     Edge 33, Type (0, 0), BuildingBlock: EZIPEK_clean_linker_0, # of connection points: 2
#     Edge 34, Type (0, 0), BuildingBlock: EZIPEK_clean_linker_0, # of connection points: 2
#     Edge 35, Type (0, 0), BuildingBlock: EZIPEK_clean_linker_0, # of connection points: 2
# Relax obj value: 0.250
# Max RMSD: 0.277
# Mean RMSD: 0.277
data_MOF--net-sva--node1-HICVOG_clean_sbu_0--edge1-EZIPEK_clean_linker_0
_symmetry_space_group_name_H-M    P1
_symmetry_Int_Tables_number       1
_symmetry_cell_setting            triclinic
loop_
_symmetry_equiv_pos_as_xyz
'x, y, z'
_cell_length_a     29.665015
_cell_length_b     29.599533
_cell_length_c     16.16242
_cell_angle_alpha  89.899667
_cell_angle_beta   90.116357
_cell_angle_gamma 89.643402
loop_
_atom_site_label
_atom_site_type_symbol
_atom_site_fract_x
_atom_site_fract_y
_atom_site_fract_z
_atom_type_partial_charge
Zn0 Zn 0.06902 0.19313 0.8855 0.0
C1 C 0.13222 0.26811 0.05371 0.0
N2 N 0.16931 0.24739 0.02431 0.0
C3 C 0.15235 0.21635 0.973 0.0
N4 N 0.10686 0.21868 0.96959 0.0
N5 N 0.09367 0.25029 0.02256 0.0
C6 C 0.96517 0.31062 0.13501 0.0
O7 O 0.94497 0.27183 0.14714 0.0
O8 O 0.1034 0.14653 0.81934 0.0
Zn9 Zn 0.03382 0.24895 0.07841 0.0
N10 N 0.04936 0.24011 0.81101 0.0
C11 C 1.01484 0.31173 0.78705 0.0
C12 C 0.03223 0.27936 0.84152 0.0
C13 C 0.04958 0.23168 0.72843 0.0
N14 N 1.01487 0.30329 0.70441 0.0
C15 C 0.0318 0.26392 0.67363 0.0
O16 O 0.98438 0.20932 0.02625 0.0
C17 C 0.98104 0.17693 0.97473 0.0
O18 O 1.01278 0.16661 0.926 0.0
H19 H 0.03139 0.28508 0.90757 0.0
H20 H 0.06278 0.19988 0.70575 0.0
C21 C 0.03573 0.23725 0.25649 0.0
C22 C 0.04952 0.21558 0.32975 0.0
C23 C 0.08154 0.15636 0.24968 0.0
C24 C 0.06815 0.1783 0.17729 0.0
N25 N 0.04625 0.21866 0.18207 0.0
N26 N 0.0721 0.17551 0.32398 0.0
H27 H 1.01836 0.2692 0.25852 0.0
C28 C 0.09341 0.1056 0.80541 0.0
O29 O 0.11985 0.08131 0.75773 0.0
O30 O 1.00484 0.31083 0.10406 0.0
H31 H 0.07611 0.16398 0.11753 0.0
H32 H 1.001 0.34313 0.81031 0.0
H33 H 0.09953 0.12449 0.24689 0.0
Zn34 Zn 0.87093 0.57241 0.1196 0.0
C35 C 0.79588 0.64132 0.27919 0.0
N36 N 0.81614 0.67779 0.24662 0.0
C37 C 0.84942 0.65974 0.20079 0.0
N38 N 0.84848 0.61394 0.2032 0.0
N39 N 0.8162 0.60218 0.25574 0.0
C40 C 0.7291 0.50776 0.3341 0.0
O41 O 0.72908 0.50978 0.25286 0.0
O42 O 0.9311 0.58652 0.0728 0.0
Zn43 Zn 0.81927 0.54462 0.31944 0.0
N44 N 0.82726 0.56587 0.03208 0.0
C45 C 0.7516 0.55829 0.98514 0.0
C46 C 0.78258 0.56308 0.04968 0.0
C47 C 0.84239 0.56316 0.95306 0.0
N48 N 0.76664 0.5566 0.90579 0.0
C49 C 0.81141 0.55886 0.88829 0.0
O50 O 0.84341 0.48702 0.26339 0.0
C51 C 0.87019 0.47897 0.20376 0.0
O52 O 0.88171 0.50987 0.15446 0.0
H53 H 0.77122 0.56459 0.11315 0.0
H54 H 0.87816 0.56528 0.9407 0.0
C55 C 0.84855 0.54853 0.48867 0.0
C56 C 0.87818 0.55995 0.55287 0.0
C57 C 0.93299 0.58119 0.45406 0.0
C58 C 0.90258 0.57193 0.39047 0.0
N59 N 0.86129 0.55516 0.40884 0.0
N60 N 0.92 0.57545 0.53389 0.0
H61 H 0.8149 0.53676 0.50222 0.0
C62 C 0.96381 0.58476 0.12325 0.0
O63 O 0.95924 0.60364 0.19625 0.0
O64 O 0.76164 0.52498 0.37383 0.0
H65 H 0.91119 0.57917 0.32717 0.0
H66 H 0.7159 0.55622 0.99797 0.0
H67 H 0.96611 0.59424 0.44018 0.0
Zn68 Zn 0.49864 0.38888 0.39911 0.0
C69 C 0.43769 0.31192 0.57089 0.0
N70 N 0.40023 0.32987 0.53727 0.0
C71 C 0.41655 0.35989 0.48347 0.0
N72 N 0.46203 0.35967 0.48225 0.0
N73 N 0.47594 0.33031 0.53929 0.0
C74 C 0.5568 0.24058 0.67284 0.0
O75 O 0.51778 0.24269 0.71029 0.0
O76 O 0.46224 0.43475 0.33313 0.0
Zn77 Zn 0.53741 0.33266 0.58979 0.0
N78 N 0.51969 0.34455 0.31906 0.0
C79 C 0.54874 0.27173 0.28518 0.0
C80 C 0.53362 0.30286 0.344 0.0
C81 C 0.51985 0.35617 0.23751 0.0
N82 N 0.54894 0.28338 0.20373 0.0
C83 C 0.53476 0.32494 0.1782 0.0
O84 O 0.58597 0.3664 0.52101 0.0
C85 C 0.58732 0.40245 0.47739 0.0
O86 O 0.55247 0.41943 0.444 0.0
H87 H 0.53332 0.29405 0.40897 0.0
H88 H 0.50815 0.38928 0.2188 0.0
C89 C 0.53561 0.35334 0.76704 0.0
C90 C 0.53028 0.38256 0.83484 0.0
C91 C 0.51771 0.4436 0.74234 0.0
C92 C 0.52229 0.41436 0.67525 0.0
N93 N 0.53133 0.36986 0.68863 0.0
N94 N 0.52161 0.42708 0.82048 0.0
H95 H 0.54256 0.31798 0.77683 0.0
C96 C 0.47142 0.47534 0.31445 0.0
O97 O 0.44342 0.4984 0.26736 0.0
O98 O 0.56788 0.27182 0.62235 0.0
H99 H 0.51875 0.42702 0.61273 0.0
H100 H 0.56015 0.2385 0.30414 0.0
H101 H 0.51072 0.47912 0.73238 0.0
Zn102 Zn 0.7431 0.03073 0.84348 0.0
C103 C 0.7222 0.91206 0.72489 0.0
N104 N 0.75837 0.89692 0.76648 0.0
C105 C 0.77451 0.93451 0.80205 0.0
N106 N 0.74892 0.97167 0.78415 0.0
N107 N 0.71693 0.95723 0.7332 0.0
C108 C 0.59733 0.96394 0.66645 0.0
O109 O 0.61103 0.95873 0.74315 0.0
O110 O 0.80206 0.06196 0.87204 0.0
Zn111 Zn 0.68295 0.99615 0.65995 0.0
N112 N 0.70992 1.01723 0.94336 0.0
C113 C 0.64922 0.97618 0.00256 0.0
C114 C 0.67291 0.99094 0.9334 0.0
C115 C 0.72296 0.03133 0.01978 0.0
N116 N 0.66363 0.9882 0.0791 0.0
C117 C 0.70009 1.01525 0.0899 0.0
O118 O 0.65512 0.05115 0.70706 0.0
C119 C 0.67013 0.08483 0.74593 0.0
O120 O 0.70591 0.08224 0.78943 0.0
H121 H 0.66264 0.98063 0.87218 0.0
H122 H 0.75162 0.05335 0.02619 0.0
C123 C 0.71184 1.01892 0.49454 0.0
C124 C 0.74177 0.03731 0.43659 0.0
C125 C 0.79235 0.05559 0.54504 0.0
C126 C 0.76283 0.0368 0.60238 0.0
N127 N 0.72321 1.01893 0.57608 0.0
N128 N 0.78129 0.05526 0.46351 0.0
H129 H 0.68016 1.00438 0.47506 0.0
C130 C 0.83298 0.05318 0.92442 0.0
O131 O 0.83138 1.01581 0.96797 0.0
O132 O 0.62785 0.96808 0.61197 0.0
H133 H 0.77104 0.03712 0.66758 0.0
H134 H 0.62007 0.95474 0.99558 0.0
H135 H 0.82388 0.07015 0.56509 0.0
Zn136 Zn 0.57003 0.68928 0.39931 0.0
C137 C 0.63655 0.76767 0.55815 0.0
N138 N 0.67289 0.74934 0.52119 0.0
C139 C 0.65476 0.71816 0.47152 0.0
N140 N 0.60937 0.71793 0.47688 0.0
N141 N 0.59736 0.7483 0.5331 0.0
C142 C 0.51975 0.83892 0.67053 0.0
O143 O 0.55815 0.83625 0.71068 0.0
O144 O 0.59517 0.63145 0.35465 0.0
Zn145 Zn 0.53811 0.74674 0.59176 0.0
N146 N 0.55135 0.7329 0.31817 0.0
C147 C 0.51941 0.80542 0.29117 0.0
C148 C 0.53654 0.77355 0.34669 0.0
C149 C 0.5497 0.72261 0.23652 0.0
N150 N 0.51794 0.79536 0.20932 0.0
C151 C 0.53271 0.7547 0.1806 0.0
O152 O 0.486 0.71088 0.54001 0.0
C153 C 0.48113 0.67895 0.48821 0.0
O154 O 0.51242 0.66693 0.44037 0.0
H155 H 0.53723 0.78074 0.41225 0.0
H156 H 0.56152 0.68991 0.21553 0.0
C157 C 0.53607 0.72838 0.76689 0.0
C158 C 0.55068 0.70579 0.83845 0.0
C159 C 0.58735 0.65095 0.75525 0.0
C160 C 0.57437 0.67461 0.68443 0.0
N161 N 0.55007 0.71346 0.69182 0.0
N162 N 0.57579 0.6674 0.83065 0.0
H163 H 0.51536 0.75835 0.77099 0.0
C164 C 0.59743 0.60342 0.41434 0.0
O165 O 0.59912 0.6203 0.48912 0.0
O166 O 0.50893 0.80786 0.61986 0.0
H167 H 0.5846 0.66293 0.62412 0.0
H168 H 0.50732 0.83784 0.31291 0.0
H169 H 0.60724 0.62032 0.75043 0.0
Zn170 Zn 0.39279 0.08368 0.65883 0.0
C171 C 0.30441 0.14199 0.81435 0.0
N172 N 0.32212 0.18036 0.78424 0.0
C173 C 0.35663 0.16551 0.73829 0.0
N174 N 0.35941 0.11994 0.73819 0.0
N175 N 0.32766 0.10472 0.78876 0.0
C176 C 0.25194 0.98893 0.85429 0.0
O177 O 0.26363 0.97611 0.77952 0.0
O178 O 0.44277 0.1201 0.60586 0.0
Zn179 Zn 0.33359 0.04459 0.84322 0.0
N180 N 0.352 0.06508 0.57104 0.0
C181 C 0.28192 0.03303 0.53058 0.0
C182 C 0.31108 0.04828 0.59226 0.0
C183 C 0.36495 0.0673 0.4903 0.0
N184 N 0.2949 0.035 0.45008 0.0
C185 C 0.33575 0.05182 0.42813 0.0
O186 O 0.36549 0.99356 0.77746 0.0
C187 C 0.4022 0.99194 0.73624 0.0
O188 O 0.41898 1.02667 0.70254 0.0
H189 H 0.30142 0.04634 0.65664 0.0
H190 H 0.39758 0.08081 0.47467 0.0
C191 C 0.35924 0.04758 0.01716 0.0
C192 C 0.38894 0.0567 0.08282 0.0
C193 C 0.44619 0.07438 0.98611 0.0
C194 C 0.41627 0.06655 0.92109 0.0
N195 N 0.37341 0.05343 0.93766 0.0
N196 N 0.43179 0.0697 0.06537 0.0
H197 H 0.32486 0.03753 0.02924 0.0
C198 C 0.48304 0.10897 0.58798 0.0
O199 O 0.50858 0.13798 0.54871 0.0
O200 O 0.2749 1.01935 0.89037 0.0
H201 H 0.42697 0.07102 0.85773 0.0
H202 H 0.24931 1.01945 0.54662 0.0
H203 H 0.48042 0.08476 0.9737 0.0
Zn204 Zn 1.00728 0.89277 0.91071 0.0
C205 C 0.94347 0.80046 0.04676 0.0
N206 N 0.90635 0.81738 0.00989 0.0
C207 C 0.92198 0.85324 0.96841 0.0
N208 N 0.96705 0.85757 0.97825 0.0
N209 N 0.98081 0.8253 0.02988 0.0
C210 C 0.10117 0.75207 0.10059 0.0
O211 O 0.12085 0.77279 0.03868 0.0
O212 O 0.97879 0.94784 0.86197 0.0
Zn213 Zn 0.04 0.82877 0.08906 0.0
N214 N 0.03194 0.85425 0.82455 0.0
C215 C 0.06734 0.78442 0.7899 0.0
C216 C 0.04941 0.81378 0.84877 0.0
C217 C 0.03131 0.86651 0.74325 0.0
N218 N 0.0662 0.79627 0.70875 0.0
C219 C 0.04857 0.83657 0.6836 0.0
O220 O 0.09264 0.86074 0.02797 0.0
C221 C 0.09518 0.89877 0.99106 0.0
O222 O 0.05982 0.91981 0.96929 0.0
H223 H 0.0495 0.80446 0.91348 0.0
H224 H 1.01653 0.89856 0.7251 0.0
C225 C 0.04103 0.85078 0.26507 0.0
C226 C 1.02699 0.87606 0.33433 0.0
C227 C 0.99237 0.92945 0.2443 0.0
C228 C 1.00534 0.90377 0.17615 0.0
N229 N 0.02879 0.8647 0.18765 0.0
N230 N 1.00313 0.91489 0.32156 0.0
H231 H 0.05993 0.81967 0.27291 0.0
C232 C 0.97155 0.97858 0.91508 0.0
O233 O 0.96991 0.96608 0.99292 0.0
O234 O 0.06433 0.76792 0.12923 0.0
H235 H 0.99599 0.91425 0.11445 0.0
H236 H 0.08152 0.7522 0.80843 0.0
H237 H 0.97334 0.96043 0.23596 0.0
Zn238 Zn 0.25424 0.52897 0.31792 0.0
C239 C 0.22524 0.41257 0.19812 0.0
N240 N 0.25768 0.39477 0.2461 0.0
C241 C 0.27594 0.43127 0.28167 0.0
N242 N 0.25534 0.47023 0.25806 0.0
N243 N 0.22468 0.45827 0.20255 0.0
C244 C 0.11546 0.47273 0.11659 0.0
O245 O 0.12682 0.47006 0.19513 0.0
O246 O 0.31625 0.54986 0.35862 0.0
Zn247 Zn 0.20377 0.49863 0.11678 0.0
N248 N 0.21557 0.52031 0.41236 0.0
C249 C 0.1413 0.51303 0.46619 0.0
C250 C 0.17051 0.51657 0.39889 0.0
C251 C 0.23263 0.52024 0.49025 0.0
N252 N 0.15842 0.51329 0.54424 0.0
C253 C 0.20355 0.51673 0.55784 0.0
O254 O 0.18684 0.55991 0.1522 0.0
C255 C 0.19601 0.5906 0.20361 0.0
O256 O 0.22333 0.58381 0.26325 0.0
H257 H 0.15748 0.51673 0.33641 0.0
H258 H 0.26852 0.52211 0.49943 0.0
C259 C 0.23747 0.50775 0.95421 0.0
C260 C 0.27028 0.51295 0.89307 0.0
C261 C 0.3268 0.5161 0.99654 0.0
C262 C 0.29396 0.51069 0.05754 0.0
N263 N 0.25004 0.50642 0.03489 0.0
N264 N 0.31428 0.51706 0.91558 0.0
H265 H 0.20224 0.50444 0.93786 0.0
C266 C 0.31711 0.58537 0.40329 0.0
O267 O 0.27916 0.60647 0.42004 0.0
O268 O 0.14663 0.47902 0.06465 0.0
H269 H 0.30331 0.50992 0.12223 0.0
H270 H 0.10534 0.51022 0.45649 0.0
H271 H 0.36193 0.51947 0.01339 0.0
C272 C 1.00928 0.05145 0.95137 0.0
C273 C 0.98505 1.02557 0.89278 0.0
C274 C 1.01832 0.07045 0.78128 0.0
C275 C 0.05157 0.08539 0.83786 0.0
N276 N 0.07654 0.0948 0.97907 0.0
N277 N 0.95689 1.01854 0.75412 0.0
C278 C 0.0463 0.07755 0.92389 0.0
C279 C 0.98602 0.03836 0.80823 0.0
N280 N 0.99608 0.05204 0.03217 0.0
N281 N 1.01762 0.08741 0.70258 0.0
H282 H 0.93027 0.99867 0.77496 0.0
H283 H 0.95886 1.0217 0.69011 0.0
H284 H 0.04055 0.11167 0.68249 0.0
H285 H 0.99238 0.0806 0.65967 0.0
H286 H 1.01124 0.07194 0.07726 0.0
H287 H 0.9657 0.03786 0.05118 0.0
H288 H 0.07703 0.08624 0.04157 0.0
H289 H 0.10253 0.11634 0.96175 0.0
C290 C 1.00197 0.51224 0.16913 0.0
C291 C 0.99798 0.54847 0.11088 0.0
C292 C 0.05875 0.51446 0.02872 0.0
C293 C 0.06817 0.48508 0.0957 0.0
N294 N 0.03663 0.43984 0.2029 0.0
N295 N 1.02174 0.5833 0.98277 0.0
C296 C 0.03559 0.47877 0.15738 0.0
C297 C 1.02542 0.54876 0.03872 0.0
N298 N 0.97507 0.51049 0.23735 0.0
N299 N 0.08009 0.50796 0.95493 0.0
H300 H 0.99818 0.6094 0.9882 0.0
H301 H 0.04429 0.58808 0.93431 0.0
H302 H 0.10086 0.47994 0.94463 0.0
H303 H 0.07268 0.52626 0.90151 0.0
H304 H 0.9817 0.48971 0.28802 0.0
H305 H 0.94683 0.53074 0.245 0.0
H306 H 1.01177 0.43069 0.24499 0.0
H307 H 0.06043 0.41445 0.19133 0.0
C308 C 0.54914 0.53808 0.45959 0.0
C309 C 0.57929 0.55702 0.40094 0.0
C310 C 0.54843 0.50764 0.29355 0.0
C311 C 0.51198 0.49761 0.34731 0.0
N312 N 0.47691 0.50256 0.48169 0.0
N313 N 0.619 0.54826 0.27311 0.0
C314 C 0.51244 0.51203 0.43081 0.0
C315 C 0.58272 0.53763 0.32118 0.0
N316 N 0.5564 0.54331 0.54248 0.0
N317 N 0.54904 0.48969 0.21565 0.0
H318 H 0.64523 0.56821 0.29555 0.0
H319 H 0.62485 0.53572 0.21407 0.0
H320 H 0.52448 0.46737 0.19472 0.0
H321 H 0.57339 0.49653 0.17134 0.0
H322 H 0.5371 0.52749 0.58768 0.0
H323 H 0.58577 0.55728 0.56633 0.0
H324 H 0.47275 0.51711 0.53981 0.0
H325 H 0.44988 0.48238 0.4639 0.0
C326 C 0.53246 1.01224 0.71355 0.0
C327 C 0.55305 0.98678 0.64958 0.0
C328 C 0.5116 0.03236 0.54722 0.0
C329 C 0.50173 0.06422 0.61028 0.0
N330 N 0.5047 0.08578 0.75427 0.0
N331 N 0.55415 0.96559 0.50613 0.0
C332 C 0.51235 0.05442 0.69388 0.0
C333 C 0.53933 0.99427 0.56644 0.0
N334 N 0.53085 0.99564 0.79227 0.0
N335 N 0.49456 0.03874 0.46943 0.0
H336 H 0.5703 0.93512 0.52047 0.0
H337 H 0.5506 0.97163 0.44302 0.0
H338 H 0.47525 0.067 0.45339 0.0
H339 H 0.49689 1.01495 0.4223 0.0
H340 H 0.51372 1.01191 0.84004 0.0
H341 H 0.54055 0.96257 0.80631 0.0
H342 H 0.51672 0.08201 0.81456 0.0
H343 H 0.48918 0.1169 0.74285 0.0
C344 C 0.22417 0.16242 0.8039 0.0
C345 C 0.25902 0.14385 0.8533 0.0
C346 C 0.21208 0.15669 0.97549 0.0
C347 C 0.18239 0.18429 0.92797 0.0
N348 N 0.16532 0.21953 0.79687 0.0
N349 N 0.28915 0.1306 0.98932 0.0
C350 C 0.18925 0.18835 0.84156 0.0
C351 C 0.25355 0.142 0.94013 0.0
N352 N 0.22683 0.15656 0.72052 0.0
N353 N 0.20134 0.14595 0.05517 0.0
H354 H 0.32081 0.12361 0.96471 0.0
H355 H 0.28826 0.13259 0.05367 0.0
H356 H 0.17102 0.1562 0.08224 0.0
H357 H 0.22029 0.12328 0.09061 0.0
H358 H 0.20182 0.16682 0.67896 0.0
H359 H 0.20182 0.16682 0.67896 0.0
H360 H 0.17262 0.22763 0.73563 0.0
H361 H 0.14038 0.23983 0.82313 0.0
C362 C 0.8969 0.68827 0.07996 0.0
C363 C 0.886 0.6887 0.16523 0.0
C364 C 0.92704 0.76011 0.17947 0.0
C365 C 0.94002 0.75799 0.09535 0.0
N366 N 0.94899 0.7126 0.9735 0.0
N367 N 0.90364 0.71823 0.30062 0.0
C368 C 0.92992 0.71867 0.04938 0.0
C369 C 0.90579 0.72217 0.21658 0.0
N370 N 0.87195 0.6634 0.02633 0.0
N371 N 0.93109 0.79962 0.22191 0.0
H372 H 0.89016 0.68988 0.32982 0.0
H373 H 0.9194 0.74079 0.34047 0.0
H374 H 0.9465 0.82794 0.19645 0.0
H375 H 0.9162 0.8049 0.27951 0.0
H376 H 0.87659 0.66437 0.96249 0.0
H377 H 0.84294 0.64694 0.04549 0.0
H378 H 0.94472 0.68315 0.93909 0.0
H379 H 0.97254 0.73531 0.94986 0.0
C380 C 0.38592 0.38192 0.34362 0.0
C381 C 0.38612 0.38732 0.43056 0.0
C382 C 0.31279 0.42485 0.42113 0.0
C383 C 0.31644 0.42623 0.33397 0.0
N384 N 0.36224 0.41403 0.21281 0.0
N385 N 0.3535 0.42342 0.55062 0.0
C386 C 0.35543 0.40808 0.29561 0.0
C387 C 0.35109 0.41255 0.46871 0.0
N388 N 0.41232 0.34984 0.30703 0.0
N389 N 0.27189 0.42969 0.4583 0.0
H390 H 0.38149 0.41533 0.58713 0.0
H391 H 0.32966 0.44424 0.57913 0.0
H392 H 0.2422 0.43463 0.42474 0.0
H393 H 0.26726 0.42412 0.52141 0.0
H394 H 0.40975 0.34209 0.24439 0.0
H395 H 0.43297 0.3279 0.34072 0.0
H396 H 0.39185 0.40385 0.18333 0.0
H397 H 0.34019 0.43306 0.17607 0.0
C398 C 0.67446 0.84285 0.73366 0.0
C399 C 0.6897 0.88017 0.686 0.0
C400 C 0.64967 0.84973 0.56604 0.0
C401 C 0.64201 0.80878 0.60918 0.0
N402 N 0.65496 0.76352 0.73091 0.0
N403 N 0.70159 0.9117 0.55047 0.0
C404 C 0.65623 0.8046 0.69259 0.0
C405 C 0.67946 0.88212 0.60049 0.0
N406 N 0.67827 0.84366 0.8179 0.0
N407 N 0.63072 0.85634 0.48995 0.0
H408 H 0.72702 0.93251 0.57275 0.0
H409 H 0.6983 0.91179 0.48626 0.0
H410 H 0.60902 0.8328 0.46335 0.0
H411 H 0.63313 0.88679 0.45779 0.0
H412 H 0.66752 0.81755 0.85602 0.0
H413 H 0.68873 0.87226 0.8502 0.0
H414 H 0.66966 0.75718 0.78839 0.0
H415 H 0.64198 0.73496 0.70219 0.0
C416 C 0.89115 0.10742 0.87087 0.0
C417 C 0.86928 0.08687 0.93919 0.0
C418 C 0.91872 0.12853 0.03445 0.0
C419 C 0.93854 0.15091 0.96596 0.0
N420 N 0.9333 0.17175 0.82188 0.0
N421 N 0.85401 0.08814 0.08633 0.0
C422 C 0.9214 0.14351 0.88507 0.0
C423 C 0.8806 0.1004 0.0212 0.0
N424 N 0.88495 0.09119 0.79254 0.0
N425 N 0.93746 0.13198 0.1115 0.0
H426 H 0.82473 0.0693 0.07964 0.0
H427 H 0.85825 0.10086 0.14589 0.0
H428 H 0.96568 0.15153 0.12428 0.0
H429 H 0.92752 0.112 0.16129 0.0
H430 H 0.90346 0.10239 0.74185 0.0
H431 H 0.8654 0.06296 0.77931 0.0
H432 H 0.91844 0.17052 0.76348 0.0
H433 H 0.95396 0.19976 0.83061 0.0
C434 C 0.89286 0.41654 0.10697 0.0
C435 C 0.88999 0.43307 0.1895 0.0
C436 C 0.93119 0.36567 0.23733 0.0
C437 C 0.94032 0.35332 0.15393 0.0
N438 N 0.93322 0.36996 0.00826 0.0
N439 N 0.91471 0.42671 0.33195 0.0
C440 C 0.92243 0.37987 0.08841 0.0
C441 C 0.91111 0.40844 0.25461 0.0
N442 N 0.8656 0.43451 0.04685 0.0
N443 N 0.94116 0.33654 0.30047 0.0
H444 H 0.90232 0.45855 0.34754 0.0
H445 H 0.93435 0.41226 0.37864 0.0
H446 H 0.95542 0.30482 0.29104 0.0
H447 H 0.931 0.34203 0.36133 0.0
H448 H 0.86326 0.42132 0.9873 0.0
H449 H 0.84138 0.45932 0.05905 0.0
H450 H 0.92535 0.39125 0.95884 0.0
H451 H 0.95294 0.34215 0.99157 0.0
C452 C 0.67503 0.4927 0.45215 0.0
C453 C 0.69665 0.47802 0.3783 0.0
C454 C 0.65299 0.40789 0.38131 0.0
C455 C 0.6309 0.42294 0.45386 0.0
N456 N 0.63012 0.4718 0.57197 0.0
N457 N 0.71814 0.41452 0.29264 0.0
C458 C 0.64514 0.46283 0.49391 0.0
C459 C 0.68914 0.43349 0.34855 0.0
N460 N 0.68108 0.53583 0.47998 0.0
N461 N 0.63887 0.36948 0.3427 0.0
H462 H 0.74712 0.43066 0.27174 0.0
H463 H 0.7166 0.38081 0.27459 0.0
H464 H 0.61492 0.34805 0.36837 0.0
H465 H 0.64957 0.36003 0.28386 0.0
H466 H 0.66416 0.54938 0.53056 0.0
H467 H 0.7002 0.55968 0.44843 0.0
H468 H 0.64264 0.49783 0.60847 0.0
H469 H 0.60813 0.45026 0.60305 0.0
C470 C 0.64511 0.1466 0.65019 0.0
C471 C 0.64672 0.12881 0.73171 0.0
C472 C 0.59639 0.18987 0.77727 0.0
C473 C 0.58892 0.20294 0.69321 0.0
N474 N 0.60101 0.18702 0.54808 0.0
N475 N 0.61941 0.13022 0.87186 0.0
C476 C 0.61211 0.1797 0.62916 0.0
C477 C 0.6212 0.14959 0.79517 0.0
N478 N 0.6759 0.13255 0.59298 0.0
N479 N 0.58181 0.21691 0.84033 0.0
H480 H 0.63792 0.10137 0.88768 0.0
H481 H 0.59705 0.14085 0.91761 0.0
H482 H 0.56593 0.24793 0.83064 0.0
H483 H 0.59004 0.21106 0.90214 0.0
H484 H 0.67952 0.14808 0.53549 0.0
H485 H 0.70124 0.10923 0.60697 0.0
H486 H 0.61378 0.16744 0.49989 0.0
H487 H 0.5754 0.20903 0.52931 0.0
C488 C 0.71513 0.66368 0.2877 0.0
C489 C 0.75394 0.6465 0.32874 0.0
C490 C 0.71696 0.66135 0.46128 0.0
C491 C 0.68335 0.68744 0.42058 0.0
N492 N 0.65633 0.72048 0.29332 0.0
N493 N 0.79509 0.63883 0.45646 0.0
C494 C 0.68332 0.68991 0.33301 0.0
C495 C 0.75555 0.64709 0.41623 0.0
N496 N 0.70982 0.65675 0.20482 0.0
N497 N 0.71275 0.65143 0.54342 0.0
H498 H 0.82517 0.63317 0.42499 0.0
H499 H 0.79861 0.64282 0.52008 0.0
H500 H 0.68458 0.66123 0.5778 0.0
H501 H 0.73479 0.62958 0.57432 0.0
H502 H 0.68049 0.66577 0.173 0.0
H503 H 0.73295 0.63795 0.17028 0.0
H504 H 0.65787 0.72639 0.2298 0.0
H505 H 0.63619 0.74344 0.32534 0.0
C506 C 0.42624 0.27023 0.70401 0.0
C507 C 0.43358 0.2692 0.61756 0.0
C508 C 0.39032 0.19928 0.60888 0.0
C509 C 0.38757 0.19743 0.6962 0.0
N510 N 0.41316 0.22612 0.82785 0.0
N511 N 0.43237 0.22653 0.49086 0.0
C512 C 0.40919 0.23116 0.74415 0.0
C513 C 0.41962 0.23103 0.57153 0.0
N514 N 0.43338 0.30904 0.74727 0.0
N515 N 0.36272 0.17327 0.56134 0.0
H516 H 0.45365 0.2497 0.4621 0.0
H517 H 0.4255 0.19771 0.45615 0.0
H518 H 0.33855 0.15202 0.58686 0.0
H519 H 0.36086 0.17637 0.49718 0.0
H520 H 0.42378 0.31279 0.80883 0.0
H521 H 0.44561 0.3383 0.71945 0.0
H522 H 0.43177 0.24818 0.86454 0.0
H523 H 0.40177 0.19744 0.85893 0.0
C524 C 0.8571 0.92368 0.80736 0.0
C525 C 0.81659 0.93157 0.8517 0.0
C526 C 0.85348 0.90241 0.97683 0.0
C527 C 0.89038 0.88647 0.92895 0.0
N528 N 0.92206 0.8743 0.79376 0.0
N529 N 0.77375 0.9201 0.97622 0.0
C530 C 0.89133 0.89567 0.84288 0.0
C531 C 0.81419 0.91909 0.93621 0.0
N532 N 0.86147 0.9407 0.72926 0.0
N533 N 0.85566 0.90062 0.06119 0.0
H534 H 0.74438 0.93199 0.94811 0.0
H535 H 0.76885 0.906 0.03461 0.0
H536 H 0.8848 0.89071 0.09287 0.0
H537 H 0.83019 0.91278 0.09938 0.0
H538 H 0.89117 0.93818 0.69521 0.0
H539 H 0.8366 0.96111 0.70231 0.0
H540 H 0.92176 0.87643 0.72942 0.0
H541 H 0.94498 0.85079 0.81728 0.0
C542 C 0.18031 0.381 0.07728 0.0
C543 C 0.18918 0.38324 0.16321 0.0
C544 C 0.1493 0.31174 0.18223 0.0
C545 C 0.13714 0.31172 0.09747 0.0
N546 N 0.13059 0.35337 0.96989 0.0
N547 N 0.17081 0.357 0.30044 0.0
C548 C 0.14812 0.34954 0.04767 0.0
C549 C 0.1692 0.35096 0.21674 0.0
N550 N 0.20596 0.40489 0.02309 0.0
N551 N 0.14563 0.27318 0.22797 0.0
H552 H 0.18273 0.38666 0.32735 0.0
H553 H 0.15679 0.33447 0.34241 0.0
H554 H 0.1323 0.24356 0.20377 0.0
H555 H 0.15901 0.26975 0.28735 0.0
H556 H 0.20323 0.40158 0.95909 0.0
H557 H 0.23334 0.42383 0.04285 0.0
H558 H 0.13558 0.38181 0.9329 0.0
H559 H 0.10755 0.33011 0.94656 0.0
C560 C 0.37837 0.63996 0.37036 0.0
C561 C 0.36024 0.60751 0.42547 0.0
C562 C 0.42046 0.62367 0.52601 0.0
C563 C 0.43652 0.65823 0.47317 0.0
N564 N 0.42664 0.70505 0.35235 0.0
N565 N 0.36007 0.57202 0.55993 0.0
C566 C 0.4142 0.66801 0.39738 0.0
C567 C 0.38012 0.60042 0.50466 0.0
N568 N 0.3618 0.64339 0.29152 0.0
N569 N 0.44471 0.61194 0.59488 0.0
H570 H 0.33199 0.55279 0.545 0.0
H571 H 0.36958 0.56943 0.6218 0.0
H572 H 0.4736 0.62918 0.61343 0.0
H573 H 0.4379 0.5836 0.63087 0.0
H574 H 0.37675 0.66277 0.24542 0.0
H575 H 0.33516 0.62384 0.26981 0.0
H576 H 0.40913 0.71673 0.30061 0.0
H577 H 0.4521 0.72685 0.3714 0.0
C578 C 0.44737 0.92515 0.78835 0.0
C579 C 0.42615 0.94833 0.72198 0.0
C580 C 0.46713 0.90095 0.6221 0.0
C581 C 0.48717 0.87638 0.68839 0.0
N582 N 0.48726 0.85819 0.83452 0.0
N583 N 0.40693 0.95115 0.57734 0.0
C584 C 0.47469 0.88648 0.77156 0.0
C585 C 0.43329 0.93389 0.63934 0.0
N586 N 0.44333 0.94126 0.86722 0.0
N587 N 0.4819 0.89456 0.54284 0.0
H588 H 0.38112 0.97444 0.58827 0.0
H589 H 0.4073 0.93885 0.51707 0.0
H590 H 0.50803 0.87244 0.52748 0.0
H591 H 0.47169 0.91459 0.49313 0.0
H592 H 0.46287 0.92955 0.91649 0.0
H593 H 0.42289 0.96874 0.88252 0.0
H594 H 0.47511 0.86115 0.89469 0.0
H595 H 0.50626 0.82901 0.82552 0.0
C596 C 0.14665 0.96605 0.98566 0.0
C597 C 0.13959 0.91943 0.96915 0.0
C598 C 0.21226 0.91726 0.89639 0.0
C599 C 0.21452 0.96521 0.89848 0.0
N600 N 0.18034 0.03598 0.93899 0.0
N601 N 0.16407 0.85187 0.89733 0.0
C602 C 0.181 0.98986 0.94226 0.0
C603 C 0.17213 0.89518 0.92202 0.0
N604 N 0.12089 0.9874 0.04385 0.0
N605 N 0.2491 0.89244 0.87311 0.0
H606 H 0.13525 0.8341 0.91327 0.0
H607 H 0.18434 0.83492 0.85473 0.0
H608 H 0.28001 0.90702 0.85857 0.0
H609 H 0.25055 0.85735 0.87804 0.0
H610 H 0.12754 1.0199 0.06495 0.0
H611 H 0.09619 0.97071 0.07792 0.0
H612 H 0.15516 0.05554 0.96574 0.0
H613 H 0.20252 0.05482 0.90317 0.0
C614 C 0.10064 0.67139 0.15213 0.0
C615 C 0.12403 0.71246 0.13983 0.0
C616 C 0.19523 0.67516 0.17964 0.0
C617 C 0.17158 0.63439 0.19388 0.0
N618 N 0.10041 0.59752 0.21712 0.0
N619 N 0.19061 0.75662 0.16692 0.0
C620 C 0.12376 0.63385 0.18781 0.0
C621 C 0.17046 0.71533 0.16137 0.0
N622 N 0.05719 0.66711 0.12527 0.0
N623 N 0.24129 0.67524 0.17908 0.0
H624 H 0.17312 0.78689 0.15755 0.0
H625 H 0.22315 0.76105 0.18972 0.0
H626 H 0.26076 0.64666 0.192 0.0
H627 H 0.26015 0.70281 0.15946 0.0
H628 H 0.04036 0.63649 0.12512 0.0
H629 H 0.03916 0.69291 0.09604 0.0
H630 H 0.06542 0.59704 0.22218 0.0
H631 H 0.11624 0.56977 0.24476 0.0
C632 C 0.05811 0.27351 0.44377 0.0
C633 C 0.03799 0.23332 0.41344 0.0
C634 C 1.00481 0.21993 0.55057 0.0
C635 C 0.0314 0.2554 0.58319 0.0
N636 N 0.08716 0.31333 0.56286 0.0
N637 N 0.99014 0.16889 0.43656 0.0
C638 C 0.05856 0.28192 0.53023 0.0
C639 C 1.01059 0.20678 0.46656 0.0
N640 N 0.07655 0.30409 0.39068 0.0
N641 N 0.97304 0.1999 0.59938 0.0
H642 H 0.98963 0.16071 0.3738 0.0
H643 H 0.97499 0.1447 0.47397 0.0
H644 H 0.96732 0.20962 0.66046 0.0
H645 H 0.94966 0.17662 0.57783 0.0
H646 H 0.08508 0.33671 0.40881 0.0
H647 H 0.07941 0.29893 0.32743 0.0
H648 H 0.1118 0.32965 0.52822 0.0
H649 H 0.08914 0.32036 0.62595 0.0
C650 C 0.83347 0.5176 0.75929 0.0
C651 C 0.8271 0.5591 0.80153 0.0
C652 C 0.85444 0.60121 0.68103 0.0
C653 C 0.86269 0.55953 0.63998 0.0
N654 N 0.8671 0.47825 0.64276 0.0
N655 N 0.8332 0.64016 0.80728 0.0
C656 C 0.85396 0.51771 0.67977 0.0
C657 C 0.83814 0.60086 0.76367 0.0
N658 N 0.81944 0.47822 0.79506 0.0
N659 N 0.86058 0.64114 0.63982 0.0
H660 H 0.81753 0.64168 0.86493 0.0
H661 H 0.84617 0.67111 0.7886 0.0
H662 H 0.87353 0.64314 0.58006 0.0
H663 H 0.85024 0.67247 0.66206 0.0
H664 H 0.8185 0.44736 0.76439 0.0
H665 H 0.80573 0.47677 0.85439 0.0
H666 H 0.86597 0.4468 0.67148 0.0
H667 H 0.88276 0.47722 0.58504 0.0
C668 C 0.57399 0.35677 0.96044 0.0
C669 C 0.53186 0.36553 0.92147 0.0
C670 C 0.49238 0.34042 0.04648 0.0
C671 C 0.53423 0.33657 0.08851 0.0
N672 N 0.61495 0.34508 0.08909 0.0
N673 N 0.45087 0.37215 0.93088 0.0
C674 C 0.57516 0.34551 0.04629 0.0
C675 C 0.49102 0.35927 0.96557 0.0
N676 N 0.61287 0.35924 0.91544 0.0
N677 N 0.45413 0.32426 0.08271 0.0
H678 H 0.44811 0.3849 0.87089 0.0
H679 H 0.42069 0.37332 0.96364 0.0
H680 H 0.45438 0.30852 0.14049 0.0
H681 H 0.42326 0.32206 0.05223 0.0
H682 H 0.64409 0.34827 0.93739 0.0
H683 H 0.61358 0.36961 0.85376 0.0
H684 H 0.64531 0.35642 0.06474 0.0
H685 H 0.61715 0.3362 0.15142 0.0
C686 C 0.76043 1.00696 0.29651 0.0
C687 C 0.73254 0.03466 0.34657 0.0
C688 C 0.68541 0.05324 0.22609 0.0
C689 C 0.71434 1.02665 0.17553 0.0
N690 N 0.7853 0.98711 0.15937 0.0
N691 N 0.67404 0.09115 0.35759 0.0
C692 C 0.75383 1.00658 0.2096 0.0
C693 C 0.69654 0.05985 0.31095 0.0
N694 N 0.79148 0.97865 0.3324 0.0
N695 N 0.64714 0.07191 0.19295 0.0
H696 H 0.68154 0.09692 0.41967 0.0
H697 H 0.65054 0.11393 0.33358 0.0
H698 H 0.6398 0.07098 0.12982 0.0
H699 H 0.6217 0.08664 0.22825 0.0
H700 H 0.80897 0.95379 0.29984 0.0
H701 H 0.79685 0.97687 0.39611 0.0
H702 H 0.81758 0.97859 0.17985 0.0
H703 H 0.78099 0.9833 0.09599 0.0
C704 C 0.50487 0.71144 0.05781 0.0
C705 C 0.53291 0.74562 0.09087 0.0
C706 C 0.56261 0.76155 0.95305 0.0
C707 C 0.54008 0.72285 0.9223 0.0
N708 N 0.4897 0.66033 0.94408 0.0
N709 N 0.5926 0.79982 0.07283 0.0
C710 C 0.51102 0.69766 0.97434 0.0
C711 C 0.56243 0.77024 0.03916 0.0
N712 N 0.47163 0.69319 0.10566 0.0
N713 N 0.58436 0.79014 0.90048 0.0
H714 H 0.59438 0.80681 0.13595 0.0
H715 H 0.61863 0.81451 0.0392 0.0
H716 H 0.58839 0.78385 0.83773 0.0
H717 H 0.59474 0.82229 0.91813 0.0
H718 H 0.44725 0.67122 0.08317 0.0
H719 H 0.46593 0.70309 0.1667 0.0
H720 H 0.47265 0.63728 0.98112 0.0
H721 H 0.49073 0.65119 0.88178 0.0
C722 C 0.34599 0.09415 0.29453 0.0
C723 C 0.34888 0.05297 0.33936 0.0
C724 C 0.37337 1.01323 0.21352 0.0
C725 C 0.37381 0.05505 0.17045 0.0
N726 N 0.36542 0.13616 0.17066 0.0
N727 N 0.36934 0.97415 0.34561 0.0
C728 C 0.36153 0.09578 0.21125 0.0
C729 C 0.36352 1.01266 0.29983 0.0
N730 N 0.32681 0.13129 0.33078 0.0
N731 N 0.3819 0.97402 0.17155 0.0
H732 H 0.36128 0.97221 0.40826 0.0
H733 H 0.38484 0.94498 0.32341 0.0
H734 H 0.39096 0.97333 0.10924 0.0
H735 H 0.37724 0.94198 0.19658 0.0
H736 H 0.31911 0.16099 0.29906 0.0
H737 H 0.31515 0.13133 0.39162 0.0
H738 H 0.36227 0.16742 0.19952 0.0
H739 H 0.37464 0.13865 0.10857 0.0
C740 C 0.06648 0.88931 0.47017 0.0
C741 C 0.03735 0.8622 0.42119 0.0
C742 C 1.01403 0.8207 0.54546 0.0
C743 C 0.04463 0.84621 0.59364 0.0
N744 N 0.1057 0.89929 0.60105 0.0
N745 N 0.99122 0.79552 0.40979 0.0
C746 C 0.0725 0.87906 0.55578 0.0
C747 C 1.0137 0.82577 0.45803 0.0
N748 N 0.08818 0.92506 0.4348 0.0
N749 N 0.98357 0.79313 0.58365 0.0
H750 H 0.98918 0.79822 0.34584 0.0
H751 H 0.97849 0.76525 0.43251 0.0
H752 H 0.98223 0.78879 0.64766 0.0
H753 H 0.95688 0.77781 0.55278 0.0
H754 H 0.10517 0.94959 0.46858 0.0
H755 H 0.08758 0.93142 0.37129 0.0
H756 H 0.13028 0.91998 0.5755 0.0
H757 H 0.11089 0.89267 0.66379 0.0
C758 C 0.22365 0.47426 0.68692 0.0
C759 C 0.22172 0.51584 0.64312 0.0
C760 C 0.25343 0.5556 0.76266 0.0
C761 C 0.25702 0.51373 0.80495 0.0
N762 N 0.25408 0.43245 0.80385 0.0
N763 N 0.23948 0.5952 0.63359 0.0
C764 C 0.24456 0.47279 0.76601 0.0
C765 C 0.23828 0.55624 0.67917 0.0
N766 N 0.20495 0.43632 0.65337 0.0
N767 N 0.26254 0.59492 0.80367 0.0
H768 H 0.22545 0.59808 0.57461 0.0
H769 H 0.25654 0.62409 0.65215 0.0
H770 H 0.27462 0.59572 0.8643 0.0
H771 H 0.25551 0.6269 0.77991 0.0
H772 H 0.20043 0.40637 0.68605 0.0
H773 H 0.19121 0.4354 0.59397 0.0
H774 H 0.25015 0.40118 0.77548 0.0
H775 H 0.26974 0.43024 0.8616 0.0
loop_
_geom_bond_atom_site_label_1
_geom_bond_atom_site_label_2
_geom_bond_distance
_geom_bond_site_symmetry_2
_ccdc_geom_bond_type
Zn0 N4 2.020 . S
Zn0 O8 2.019 . S
Zn0 N10 2.119 . S
Zn0 O18 1.975 1_455 S
C1 N2 1.334 . S
C1 N5 1.336 . S
N2 C1 1.334 . S
N2 C3 1.334 1_554 S
C3 N2 1.334 1_556 S
C3 N4 1.336 . S
N4 Zn0 2.020 . S
N4 C3 1.336 . S
N4 N5 1.354 1_556 S
N5 C1 1.336 . S
N5 N4 1.354 1_554 S
N5 Zn9 2.020 1_455 S
C6 O7 1.244 . S
C6 O30 1.257 . S
O7 C6 1.244 . S
O8 Zn0 2.019 . S
O8 C28 1.257 . S
Zn9 N5 2.020 1_655 S
Zn9 O16 1.975 . S
Zn9 N25 2.119 . S
Zn9 O30 2.019 . S
N10 Zn0 2.119 . S
N10 C12 1.334 1_455 S
N10 C13 1.328 . S
C11 C12 1.391 . S
C11 N14 1.329 . S
C11 H32 0.930 . S
C12 N10 1.334 1_655 S
C12 C11 1.391 . S
C12 H19 0.930 . S
C13 N10 1.328 . S
C13 C15 1.392 . S
C13 H20 0.930 . S
N14 C11 1.329 . S
N14 C15 1.331 1_655 S
C15 C13 1.392 . S
C15 N14 1.331 1_455 S
O16 Zn9 1.975 . S
O16 C17 1.252 1_554 S
C17 O16 1.252 1_556 S
C17 O18 1.252 . S
O18 Zn0 1.975 1_655 S
O18 C17 1.252 . S
H19 C12 0.930 . S
H20 C13 0.930 . S
C21 C22 1.392 . S
C21 N25 1.328 . S
C21 H27 0.930 . S
C22 C21 1.392 . S
C22 N26 1.331 . S
C23 C24 1.393 . S
C23 N26 1.329 . S
C23 H33 0.928 1_655 S
C24 C23 1.393 . S
C24 N25 1.338 . S
C24 H31 0.924 1_655 S
N25 Zn9 2.119 . S
N25 C21 1.328 . S
N25 C24 1.338 . S
N26 C22 1.331 . S
N26 C23 1.329 . S
H27 C21 0.930 . S
C28 O8 1.257 . S
C28 O29 1.244 . S
O29 C28 1.244 . S
O30 C6 1.257 . S
O30 Zn9 2.019 . S
H31 C24 0.924 1_455 S
H32 C11 0.930 . S
H33 C23 0.928 1_455 S
Zn34 N38 2.020 . S
Zn34 O42 2.019 . S
Zn34 N44 2.119 . S
Zn34 O52 1.975 . S
C35 N36 1.334 . S
C35 N39 1.336 . S
N36 C35 1.334 . S
N36 C37 1.334 . S
C37 N36 1.334 . S
C37 N38 1.336 . S
N38 Zn34 2.020 . S
N38 C37 1.336 . S
N38 N39 1.354 . S
N39 C35 1.336 . S
N39 N38 1.354 . S
N39 Zn43 2.020 . S
C40 O41 1.244 . S
C40 O64 1.257 . S
O41 C40 1.244 . S
O42 Zn34 2.019 . S
O42 C62 1.257 . S
Zn43 N39 2.020 . S
Zn43 O50 1.975 . S
Zn43 N59 2.119 . S
Zn43 O64 2.019 . S
N44 Zn34 2.119 . S
N44 C46 1.334 . S
N44 C47 1.328 1_554 S
C45 C46 1.391 1_556 S
C45 N48 1.329 . S
C45 H66 0.930 . S
C46 N44 1.334 . S
C46 C45 1.391 1_554 S
C46 H53 0.930 . S
C47 N44 1.328 1_556 S
C47 C49 1.392 . S
C47 H54 0.930 . S
N48 C45 1.329 . S
N48 C49 1.331 . S
C49 C47 1.392 . S
C49 N48 1.331 . S
O50 Zn43 1.975 . S
O50 C51 1.252 . S
C51 O50 1.252 . S
C51 O52 1.252 . S
O52 Zn34 1.975 . S
O52 C51 1.252 . S
H53 C46 0.930 . S
H54 C47 0.930 . S
C55 C56 1.392 . S
C55 N59 1.328 . S
C55 H61 0.930 . S
C56 C55 1.392 . S
C56 N60 1.331 . S
C57 C58 1.391 . S
C57 N60 1.329 . S
C57 H67 0.930 . S
C58 C57 1.391 . S
C58 N59 1.334 . S
C58 H65 0.930 . S
N59 Zn43 2.119 . S
N59 C55 1.328 . S
N59 C58 1.334 . S
N60 C56 1.331 . S
N60 C57 1.329 . S
H61 C55 0.930 . S
C62 O42 1.257 . S
C62 O63 1.244 . S
O63 C62 1.244 . S
O64 C40 1.257 . S
O64 Zn43 2.019 . S
H65 C58 0.930 . S
H66 C45 0.930 . S
H67 C57 0.930 . S
Zn68 N72 2.020 . S
Zn68 O76 2.019 . S
Zn68 N78 2.119 . S
Zn68 O86 1.975 . S
C69 N70 1.334 . S
C69 N73 1.336 . S
N70 C69 1.334 . S
N70 C71 1.334 . S
C71 N70 1.334 . S
C71 N72 1.336 . S
N72 Zn68 2.020 . S
N72 C71 1.336 . S
N72 N73 1.354 . S
N73 C69 1.336 . S
N73 N72 1.354 . S
N73 Zn77 2.020 . S
C74 O75 1.244 . S
C74 O98 1.257 . S
O75 C74 1.244 . S
O76 Zn68 2.019 . S
O76 C96 1.257 . S
Zn77 N73 2.020 . S
Zn77 O84 1.975 . S
Zn77 N93 2.119 . S
Zn77 O98 2.019 . S
N78 Zn68 2.119 . S
N78 C80 1.334 . S
N78 C81 1.328 . S
C79 C80 1.391 . S
C79 N82 1.329 . S
C79 H100 0.930 . S
C80 N78 1.334 . S
C80 C79 1.391 . S
C80 H87 0.930 . S
C81 N78 1.328 . S
C81 C83 1.392 . S
C81 H88 0.930 . S
N82 C79 1.329 . S
N82 C83 1.331 . S
C83 C81 1.392 . S
C83 N82 1.331 . S
O84 Zn77 1.975 . S
O84 C85 1.252 . S
C85 O84 1.252 . S
C85 O86 1.252 . S
O86 Zn68 1.975 . S
O86 C85 1.252 . S
H87 C80 0.930 . S
H88 C81 0.930 . S
C89 C90 1.392 . S
C89 N93 1.328 . S
C89 H95 0.930 . S
C90 C89 1.392 . S
C90 N94 1.331 . S
C91 C92 1.391 . S
C91 N94 1.329 . S
C91 H101 0.930 . S
C92 C91 1.391 . S
C92 N93 1.334 . S
C92 H99 0.930 . S
N93 Zn77 2.119 . S
N93 C89 1.328 . S
N93 C92 1.334 . S
N94 C90 1.331 . S
N94 C91 1.329 . S
H95 C89 0.930 . S
C96 O76 1.257 . S
C96 O97 1.244 . S
O97 C96 1.244 . S
O98 C74 1.257 . S
O98 Zn77 2.019 . S
H99 C92 0.930 . S
H100 C79 0.930 . S
H101 C91 0.930 . S
Zn102 N106 2.020 1_545 S
Zn102 O110 2.019 . S
Zn102 N112 2.119 . S
Zn102 O120 1.975 . S
C103 N104 1.334 . S
C103 N107 1.336 . S
N104 C103 1.334 . S
N104 C105 1.334 . S
C105 N104 1.334 . S
C105 N106 1.336 . S
N106 Zn102 2.020 1_565 S
N106 C105 1.336 . S
N106 N107 1.354 . S
N107 C103 1.336 . S
N107 N106 1.354 . S
N107 Zn111 2.020 . S
C108 O109 1.244 . S
C108 O132 1.257 . S
O109 C108 1.244 . S
O110 Zn102 2.019 . S
O110 C130 1.257 . S
Zn111 N107 2.020 . S
Zn111 O118 1.975 1_565 S
Zn111 N127 2.119 1_565 S
Zn111 O132 2.019 . S
N112 Zn102 2.119 . S
N112 C114 1.334 . S
N112 C115 1.328 1_556 S
C113 C114 1.391 1_554 S
C113 N116 1.329 . S
C113 H134 0.930 . S
C114 N112 1.334 . S
C114 C113 1.391 1_556 S
C114 H121 0.930 . S
C115 N112 1.328 1_554 S
C115 C117 1.392 . S
C115 H122 0.930 . S
N116 C113 1.329 . S
N116 C117 1.331 . S
C117 C115 1.392 . S
C117 N116 1.331 . S
O118 Zn111 1.975 1_545 S
O118 C119 1.252 . S
C119 O118 1.252 . S
C119 O120 1.252 . S
O120 Zn102 1.975 . S
O120 C119 1.252 . S
H121 C114 0.930 . S
H122 C115 0.930 . S
C123 C124 1.392 . S
C123 N127 1.328 . S
C123 H129 0.930 1_545 S
C124 C123 1.392 . S
C124 N128 1.331 . S
C125 C126 1.391 . S
C125 N128 1.329 . S
C125 H135 0.930 . S
C126 C125 1.391 . S
C126 N127 1.334 . S
C126 H133 0.930 . S
N127 Zn111 2.119 1_545 S
N127 C123 1.328 . S
N127 C126 1.334 . S
N128 C124 1.331 . S
N128 C125 1.329 . S
H129 C123 0.930 1_565 S
C130 O110 1.257 . S
C130 O131 1.244 . S
O131 C130 1.244 . S
O132 C108 1.257 . S
O132 Zn111 2.019 . S
H133 C126 0.930 . S
H134 C113 0.930 . S
H135 C125 0.930 . S
Zn136 N140 2.020 . S
Zn136 O144 2.019 . S
Zn136 N146 2.119 . S
Zn136 O154 1.975 . S
C137 N138 1.334 . S
C137 N141 1.336 . S
N138 C137 1.334 . S
N138 C139 1.334 . S
C139 N138 1.334 . S
C139 N140 1.336 . S
N140 Zn136 2.020 . S
N140 C139 1.336 . S
N140 N141 1.354 . S
N141 C137 1.336 . S
N141 N140 1.354 . S
N141 Zn145 2.020 . S
C142 O143 1.244 . S
C142 O166 1.257 . S
O143 C142 1.244 . S
O144 Zn136 2.019 . S
O144 C164 1.257 . S
Zn145 N141 2.020 . S
Zn145 O152 1.975 . S
Zn145 N161 2.119 . S
Zn145 O166 2.019 . S
N146 Zn136 2.119 . S
N146 C148 1.334 . S
N146 C149 1.328 . S
C147 C148 1.391 . S
C147 N150 1.329 . S
C147 H168 0.930 . S
C148 N146 1.334 . S
C148 C147 1.391 . S
C148 H155 0.930 . S
C149 N146 1.328 . S
C149 C151 1.392 . S
C149 H156 0.930 . S
N150 C147 1.329 . S
N150 C151 1.331 . S
C151 C149 1.392 . S
C151 N150 1.331 . S
O152 Zn145 1.975 . S
O152 C153 1.252 . S
C153 O152 1.252 . S
C153 O154 1.252 . S
O154 Zn136 1.975 . S
O154 C153 1.252 . S
H155 C148 0.930 . S
H156 C149 0.930 . S
C157 C158 1.392 . S
C157 N161 1.328 . S
C157 H163 0.930 . S
C158 C157 1.392 . S
C158 N162 1.331 . S
C159 C160 1.391 . S
C159 N162 1.329 . S
C159 H169 0.930 . S
C160 C159 1.391 . S
C160 N161 1.334 . S
C160 H167 0.930 . S
N161 Zn145 2.119 . S
N161 C157 1.328 . S
N161 C160 1.334 . S
N162 C158 1.331 . S
N162 C159 1.329 . S
H163 C157 0.930 . S
C164 O144 1.257 . S
C164 O165 1.244 . S
O165 C164 1.244 . S
O166 C142 1.257 . S
O166 Zn145 2.019 . S
H167 C160 0.930 . S
H168 C147 0.930 . S
H169 C159 0.930 . S
Zn170 N174 2.020 . S
Zn170 O178 2.019 . S
Zn170 N180 2.119 . S
Zn170 O188 1.975 1_545 S
C171 N172 1.334 . S
C171 N175 1.336 . S
N172 C171 1.334 . S
N172 C173 1.334 . S
C173 N172 1.334 . S
C173 N174 1.336 . S
N174 Zn170 2.020 . S
N174 C173 1.336 . S
N174 N175 1.354 . S
N175 C171 1.336 . S
N175 N174 1.354 . S
N175 Zn179 2.020 1_545 S
C176 O177 1.244 . S
C176 O200 1.257 . S
O177 C176 1.244 . S
O178 Zn170 2.019 . S
O178 C198 1.257 . S
Zn179 N175 2.020 1_565 S
Zn179 O186 1.975 . S
Zn179 N195 2.119 . S
Zn179 O200 2.019 . S
N180 Zn170 2.119 . S
N180 C182 1.334 1_545 S
N180 C183 1.328 . S
C181 C182 1.391 . S
C181 N184 1.329 . S
C181 H202 0.930 . S
C182 N180 1.334 1_565 S
C182 C181 1.391 . S
C182 H189 0.930 . S
C183 N180 1.328 . S
C183 C185 1.392 . S
C183 H190 0.930 . S
N184 C181 1.329 . S
N184 C185 1.331 1_565 S
C185 C183 1.392 . S
C185 N184 1.331 1_545 S
O186 Zn179 1.975 . S
O186 C187 1.252 . S
C187 O186 1.252 . S
C187 O188 1.252 . S
O188 Zn170 1.975 1_565 S
O188 C187 1.252 . S
H189 C182 0.930 . S
H190 C183 0.930 . S
C191 C192 1.392 . S
C191 N195 1.328 1_554 S
C191 H197 0.930 . S
C192 C191 1.392 . S
C192 N196 1.331 . S
C193 C194 1.393 1_554 S
C193 N196 1.329 . S
C193 H203 0.928 1_565 S
C194 C193 1.393 1_556 S
C194 N195 1.339 . S
C194 H201 0.923 1_565 S
N195 Zn179 2.119 . S
N195 C191 1.328 1_556 S
N195 C194 1.339 . S
N196 C192 1.331 . S
N196 C193 1.329 . S
H197 C191 0.930 . S
C198 O178 1.257 . S
C198 O199 1.244 . S
O199 C198 1.244 . S
O200 C176 1.257 . S
O200 Zn179 2.019 . S
H201 C194 0.923 1_545 S
H202 C181 0.930 . S
H203 C193 0.928 1_545 S
Zn204 N208 2.020 . S
Zn204 O212 2.019 . S
Zn204 N214 2.119 1_655 S
Zn204 O222 1.975 1_655 S
C205 N206 1.334 . S
C205 N209 1.336 . S
N206 C205 1.334 . S
N206 C207 1.334 1_554 S
C207 N206 1.334 1_556 S
C207 N208 1.336 . S
N208 Zn204 2.020 . S
N208 C207 1.336 . S
N208 N209 1.354 1_556 S
N209 C205 1.336 . S
N209 N208 1.354 1_554 S
N209 Zn213 2.020 1_655 S
C210 O211 1.244 . S
C210 O234 1.257 . S
O211 C210 1.244 . S
O212 Zn204 2.019 . S
O212 C232 1.257 . S
Zn213 N209 2.020 1_455 S
Zn213 O220 1.975 . S
Zn213 N229 2.119 . S
Zn213 O234 2.019 . S
N214 Zn204 2.119 1_455 S
N214 C216 1.334 . S
N214 C217 1.328 . S
C215 C216 1.391 . S
C215 N218 1.329 . S
C215 H236 0.930 . S
C216 N214 1.334 . S
C216 C215 1.391 . S
C216 H223 0.930 . S
C217 N214 1.328 . S
C217 C219 1.392 . S
C217 H224 0.930 1_455 S
N218 C215 1.329 . S
N218 C219 1.331 . S
C219 C217 1.392 . S
C219 N218 1.331 . S
O220 Zn213 1.975 . S
O220 C221 1.252 1_554 S
C221 O220 1.252 1_556 S
C221 O222 1.252 . S
O222 Zn204 1.975 1_455 S
O222 C221 1.252 . S
H223 C216 0.930 . S
H224 C217 0.930 1_655 S
C225 C226 1.392 . S
C225 N229 1.328 . S
C225 H231 0.930 . S
C226 C225 1.392 . S
C226 N230 1.331 . S
C227 C228 1.391 . S
C227 N230 1.329 . S
C227 H237 0.930 . S
C228 C227 1.391 . S
C228 N229 1.334 . S
C228 H235 0.930 . S
N229 Zn213 2.119 . S
N229 C225 1.328 . S
N229 C228 1.334 . S
N230 C226 1.331 . S
N230 C227 1.329 . S
H231 C225 0.930 . S
C232 O212 1.257 . S
C232 O233 1.244 . S
O233 C232 1.244 . S
O234 C210 1.257 . S
O234 Zn213 2.019 . S
H235 C228 0.930 . S
H236 C215 0.930 . S
H237 C227 0.930 . S
Zn238 N242 2.020 . S
Zn238 O246 2.019 . S
Zn238 N248 2.119 . S
Zn238 O256 1.975 . S
C239 N240 1.334 . S
C239 N243 1.336 . S
N240 C239 1.334 . S
N240 C241 1.334 . S
C241 N240 1.334 . S
C241 N242 1.336 . S
N242 Zn238 2.020 . S
N242 C241 1.336 . S
N242 N243 1.354 . S
N243 C239 1.336 . S
N243 N242 1.354 . S
N243 Zn247 2.020 . S
C244 O245 1.244 . S
C244 O268 1.257 . S
O245 C244 1.244 . S
O246 Zn238 2.019 . S
O246 C266 1.257 . S
Zn247 N243 2.020 . S
Zn247 O254 1.975 . S
Zn247 N263 2.119 . S
Zn247 O268 2.019 . S
N248 Zn238 2.119 . S
N248 C250 1.334 . S
N248 C251 1.328 . S
C249 C250 1.391 . S
C249 N252 1.329 . S
C249 H270 0.930 . S
C250 N248 1.334 . S
C250 C249 1.391 . S
C250 H257 0.930 . S
C251 N248 1.328 . S
C251 C253 1.392 . S
C251 H258 0.930 . S
N252 C249 1.329 . S
N252 C253 1.331 . S
C253 C251 1.392 . S
C253 N252 1.331 . S
O254 Zn247 1.975 . S
O254 C255 1.252 . S
C255 O254 1.252 . S
C255 O256 1.252 . S
O256 Zn238 1.975 . S
O256 C255 1.252 . S
H257 C250 0.930 . S
H258 C251 0.930 . S
C259 C260 1.392 . S
C259 N263 1.328 1_556 S
C259 H265 0.930 . S
C260 C259 1.392 . S
C260 N264 1.331 . S
C261 C262 1.391 1_556 S
C261 N264 1.329 . S
C261 H271 0.930 . S
C262 C261 1.391 1_554 S
C262 N263 1.334 . S
C262 H269 0.930 . S
N263 Zn247 2.119 . S
N263 C259 1.328 1_554 S
N263 C262 1.334 . S
N264 C260 1.331 . S
N264 C261 1.329 . S
H265 C259 0.930 . S
C266 O246 1.257 . S
C266 O267 1.244 . S
O267 C266 1.244 . S
O268 C244 1.257 . S
O268 Zn247 2.019 . S
H269 C262 0.930 . S
H270 C249 0.930 . S
H271 C261 0.930 . S
C272 C273 1.363 1_545 S
C272 C278 1.379 1_655 S
C272 N280 1.356 1_546 S
C273 C272 1.363 1_565 S
C273 C279 1.363 1_655 S
C274 C275 1.363 . S
C274 C279 1.379 1_545 S
C274 N281 1.356 . S
C275 C274 1.363 . S
C275 C278 1.363 . S
N276 C278 1.356 1_554 S
N276 H288 0.987 . S
N276 H289 0.985 . S
N277 C279 1.359 . S
N277 H282 0.976 1_455 S
N277 H283 0.991 . S
C278 C272 1.379 1_455 S
C278 C275 1.363 . S
C278 N276 1.356 1_556 S
C279 C273 1.363 1_455 S
C279 C274 1.379 1_565 S
C279 N277 1.359 . S
N280 C272 1.356 1_564 S
N280 H286 0.984 1_565 S
N280 H287 0.984 . S
N281 C274 1.356 . S
N281 H284 0.984 . S
N281 H285 0.985 . S
H282 N277 0.976 1_655 S
H283 N277 0.991 . S
H284 N281 0.984 . S
H285 N281 0.985 . S
H286 N280 0.984 1_545 S
H287 N280 0.984 . S
H288 N276 0.987 . S
H289 N276 0.985 . S
C290 C291 1.363 1_455 S
C290 C296 1.379 . S
C290 N298 1.356 1_455 S
C291 C290 1.363 1_655 S
C291 C297 1.363 . S
C292 C293 1.363 . S
C292 C297 1.379 1_455 S
C292 N299 1.356 . S
C293 C292 1.363 . S
C293 C296 1.363 . S
N294 C296 1.356 . S
N294 H306 0.984 . S
N294 H307 0.985 . S
N295 C297 1.356 . S
N295 H300 0.984 . S
N295 H301 0.985 . S
C296 C290 1.379 . S
C296 C293 1.363 . S
C296 N294 1.356 . S
C297 C291 1.363 . S
C297 C292 1.379 1_655 S
C297 N295 1.356 . S
N298 C290 1.356 1_655 S
N298 H304 0.984 1_655 S
N298 H305 0.984 . S
N299 C292 1.356 . S
N299 H302 0.984 . S
N299 H303 0.985 . S
H300 N295 0.984 . S
H301 N295 0.985 . S
H302 N299 0.984 . S
H303 N299 0.985 . S
H304 N298 0.984 1_455 S
H305 N298 0.984 . S
H306 N294 0.984 . S
H307 N294 0.985 . S
C308 C309 1.363 . S
C308 C314 1.379 . S
C308 N316 1.356 . S
C309 C308 1.363 . S
C309 C315 1.363 . S
C310 C311 1.363 . S
C310 C315 1.379 . S
C310 N317 1.356 . S
C311 C310 1.363 . S
C311 C314 1.363 . S
N312 C314 1.356 . S
N312 H324 0.984 . S
N312 H325 0.985 . S
N313 C315 1.356 . S
N313 H318 0.984 . S
N313 H319 0.985 . S
C314 C308 1.379 . S
C314 C311 1.363 . S
C314 N312 1.356 . S
C315 C309 1.363 . S
C315 C310 1.379 . S
C315 N313 1.356 . S
N316 C308 1.356 . S
N316 H322 0.984 . S
N316 H323 0.984 . S
N317 C310 1.356 . S
N317 H320 0.984 . S
N317 H321 0.985 . S
H318 N313 0.984 . S
H319 N313 0.985 . S
H320 N317 0.984 . S
H321 N317 0.985 . S
H322 N316 0.984 . S
H323 N316 0.984 . S
H324 N312 0.984 . S
H325 N312 0.985 . S
C326 C327 1.363 . S
C326 C332 1.379 1_565 S
C326 N334 1.356 . S
C327 C326 1.363 . S
C327 C333 1.363 1_565 S
C328 C329 1.363 . S
C328 C333 1.379 . S
C328 N335 1.356 . S
C329 C328 1.363 . S
C329 C332 1.363 . S
N330 C332 1.356 . S
N330 H342 0.987 . S
N330 H343 0.985 . S
N331 C333 1.358 . S
N331 H336 0.977 1_545 S
N331 H337 0.990 . S
C332 C326 1.379 1_545 S
C332 C329 1.363 . S
C332 N330 1.356 . S
C333 C327 1.363 1_545 S
C333 C328 1.379 . S
C333 N331 1.358 . S
N334 C326 1.356 . S
N334 H340 0.984 . S
N334 H341 0.984 . S
N335 C328 1.356 . S
N335 H338 0.984 . S
N335 H339 0.985 . S
H336 N331 0.977 1_565 S
H337 N331 0.990 . S
H338 N335 0.984 . S
H339 N335 0.985 . S
H340 N334 0.984 . S
H341 N334 0.984 . S
H342 N330 0.987 . S
H343 N330 0.985 . S
C344 C345 1.363 . S
C344 C350 1.379 . S
C344 N352 1.356 . S
C345 C344 1.363 . S
C345 C351 1.363 . S
C346 C347 1.363 . S
C346 C351 1.379 . S
C346 N353 1.356 . S
C347 C346 1.363 . S
C347 C350 1.363 . S
N348 C350 1.356 . S
N348 H360 0.984 . S
N348 H361 0.985 . S
N349 C351 1.356 . S
N349 H354 0.984 . S
N349 H355 0.985 . S
C350 C344 1.379 . S
C350 C347 1.363 . S
C350 N348 1.356 . S
C351 C345 1.363 . S
C351 C346 1.379 . S
C351 N349 1.356 . S
N352 C344 1.356 . S
N352 H358 0.984 . S
N352 H359 0.984 . S
N353 C346 1.356 . S
N353 H356 0.984 . S
N353 H357 0.985 1_556 S
H354 N349 0.984 . S
H355 N349 0.985 . S
H356 N353 0.984 . S
H357 N353 0.985 1_554 S
H358 N352 0.984 . S
H359 N352 0.984 . S
H360 N348 0.984 . S
H361 N348 0.985 . S
C362 C363 1.363 . S
C362 C368 1.379 . S
C362 N370 1.356 . S
C363 C362 1.363 . S
C363 C369 1.363 . S
C364 C365 1.363 . S
C364 C369 1.379 . S
C364 N371 1.356 . S
C365 C364 1.363 . S
C365 C368 1.363 . S
N366 C368 1.356 . S
N366 H378 0.984 1_554 S
N366 H379 0.986 . S
N367 C369 1.356 . S
N367 H372 0.984 . S
N367 H373 0.985 . S
C368 C362 1.379 . S
C368 C365 1.363 . S
C368 N366 1.356 . S
C369 C363 1.363 . S
C369 C364 1.379 . S
C369 N367 1.356 . S
N370 C362 1.356 . S
N370 H376 0.984 . S
N370 H377 0.984 . S
N371 C364 1.356 . S
N371 H374 0.984 . S
N371 H375 0.985 . S
H372 N367 0.984 . S
H373 N367 0.985 . S
H374 N371 0.984 . S
H375 N371 0.985 . S
H376 N370 0.984 . S
H377 N370 0.984 . S
H378 N366 0.984 1_556 S
H379 N366 0.986 . S
C380 C381 1.363 . S
C380 C386 1.379 . S
C380 N388 1.356 . S
C381 C380 1.363 . S
C381 C387 1.363 . S
C382 C383 1.363 . S
C382 C387 1.379 . S
C382 N389 1.356 . S
C383 C382 1.363 . S
C383 C386 1.363 . S
N384 C386 1.356 . S
N384 H396 0.984 . S
N384 H397 0.985 . S
N385 C387 1.356 . S
N385 H390 0.984 . S
N385 H391 0.985 . S
C386 C380 1.379 . S
C386 C383 1.363 . S
C386 N384 1.356 . S
C387 C381 1.363 . S
C387 C382 1.379 . S
C387 N385 1.356 . S
N388 C380 1.356 . S
N388 H394 0.984 . S
N388 H395 0.984 . S
N389 C382 1.356 . S
N389 H392 0.984 . S
N389 H393 0.985 . S
H390 N385 0.984 . S
H391 N385 0.985 . S
H392 N389 0.984 . S
H393 N389 0.985 . S
H394 N388 0.984 . S
H395 N388 0.984 . S
H396 N384 0.984 . S
H397 N384 0.985 . S
C398 C399 1.363 . S
C398 C404 1.379 . S
C398 N406 1.356 . S
C399 C398 1.363 . S
C399 C405 1.363 . S
C400 C401 1.363 . S
C400 C405 1.379 . S
C400 N407 1.356 . S
C401 C400 1.363 . S
C401 C404 1.363 . S
N402 C404 1.356 . S
N402 H414 0.984 . S
N402 H415 0.985 . S
N403 C405 1.356 . S
N403 H408 0.984 . S
N403 H409 0.985 . S
C404 C398 1.379 . S
C404 C401 1.363 . S
C404 N402 1.356 . S
C405 C399 1.363 . S
C405 C400 1.379 . S
C405 N403 1.356 . S
N406 C398 1.356 . S
N406 H412 0.984 . S
N406 H413 0.984 . S
N407 C400 1.356 . S
N407 H410 0.984 . S
N407 H411 0.985 . S
H408 N403 0.984 . S
H409 N403 0.985 . S
H410 N407 0.984 . S
H411 N407 0.985 . S
H412 N406 0.984 . S
H413 N406 0.984 . S
H414 N402 0.984 . S
H415 N402 0.985 . S
C416 C417 1.363 . S
C416 C422 1.379 . S
C416 N424 1.356 . S
C417 C416 1.363 . S
C417 C423 1.363 . S
C418 C419 1.363 . S
C418 C423 1.379 . S
C418 N425 1.356 1_556 S
C419 C418 1.363 . S
C419 C422 1.363 . S
N420 C422 1.356 . S
N420 H432 0.984 . S
N420 H433 0.985 . S
N421 C423 1.356 . S
N421 H426 0.984 . S
N421 H427 0.985 1_556 S
C422 C416 1.379 . S
C422 C419 1.363 . S
C422 N420 1.356 . S
C423 C417 1.363 . S
C423 C418 1.379 . S
C423 N421 1.356 . S
N424 C416 1.356 . S
N424 H430 0.984 . S
N424 H431 0.984 . S
N425 C418 1.356 1_554 S
N425 H428 0.984 . S
N425 H429 0.985 . S
H426 N421 0.984 . S
H427 N421 0.985 1_554 S
H428 N425 0.984 . S
H429 N425 0.985 . S
H430 N424 0.984 . S
H431 N424 0.984 . S
H432 N420 0.984 . S
H433 N420 0.985 . S
C434 C435 1.363 . S
C434 C440 1.379 . S
C434 N442 1.356 . S
C435 C434 1.363 . S
C435 C441 1.363 . S
C436 C437 1.363 . S
C436 C441 1.379 . S
C436 N443 1.356 . S
C437 C436 1.363 . S
C437 C440 1.363 . S
N438 C440 1.356 . S
N438 H450 0.984 1_554 S
N438 H451 0.985 1_554 S
N439 C441 1.356 . S
N439 H444 0.984 . S
N439 H445 0.985 . S
C440 C434 1.379 . S
C440 C437 1.363 . S
C440 N438 1.356 . S
C441 C435 1.363 . S
C441 C436 1.379 . S
C441 N439 1.356 . S
N442 C434 1.356 . S
N442 H448 0.984 . S
N442 H449 0.984 . S
N443 C436 1.356 . S
N443 H446 0.984 . S
N443 H447 0.985 . S
H444 N439 0.984 . S
H445 N439 0.985 . S
H446 N443 0.984 . S
H447 N443 0.985 . S
H448 N442 0.984 . S
H449 N442 0.984 . S
H450 N438 0.984 1_556 S
H451 N438 0.985 1_556 S
C452 C453 1.363 . S
C452 C458 1.379 . S
C452 N460 1.356 . S
C453 C452 1.363 . S
C453 C459 1.363 . S
C454 C455 1.363 . S
C454 C459 1.379 . S
C454 N461 1.356 . S
C455 C454 1.363 . S
C455 C458 1.363 . S
N456 C458 1.356 . S
N456 H468 0.984 . S
N456 H469 0.985 . S
N457 C459 1.356 . S
N457 H462 0.984 . S
N457 H463 0.985 . S
C458 C452 1.379 . S
C458 C455 1.363 . S
C458 N456 1.356 . S
C459 C453 1.363 . S
C459 C454 1.379 . S
C459 N457 1.356 . S
N460 C452 1.356 . S
N460 H466 0.984 . S
N460 H467 0.984 . S
N461 C454 1.356 . S
N461 H464 0.984 . S
N461 H465 0.985 . S
H462 N457 0.984 . S
H463 N457 0.985 . S
H464 N461 0.984 . S
H465 N461 0.985 . S
H466 N460 0.984 . S
H467 N460 0.984 . S
H468 N456 0.984 . S
H469 N456 0.985 . S
C470 C471 1.363 . S
C470 C476 1.379 . S
C470 N478 1.356 . S
C471 C470 1.363 . S
C471 C477 1.363 . S
C472 C473 1.363 . S
C472 C477 1.379 . S
C472 N479 1.356 . S
C473 C472 1.363 . S
C473 C476 1.363 . S
N474 C476 1.356 . S
N474 H486 0.984 . S
N474 H487 0.985 . S
N475 C477 1.356 . S
N475 H480 0.984 . S
N475 H481 0.985 . S
C476 C470 1.379 . S
C476 C473 1.363 . S
C476 N474 1.356 . S
C477 C471 1.363 . S
C477 C472 1.379 . S
C477 N475 1.356 . S
N478 C470 1.356 . S
N478 H484 0.984 . S
N478 H485 0.984 . S
N479 C472 1.356 . S
N479 H482 0.984 . S
N479 H483 0.985 . S
H480 N475 0.984 . S
H481 N475 0.985 . S
H482 N479 0.984 . S
H483 N479 0.985 . S
H484 N478 0.984 . S
H485 N478 0.984 . S
H486 N474 0.984 . S
H487 N474 0.985 . S
C488 C489 1.363 . S
C488 C494 1.379 . S
C488 N496 1.356 . S
C489 C488 1.363 . S
C489 C495 1.363 . S
C490 C491 1.363 . S
C490 C495 1.379 . S
C490 N497 1.356 . S
C491 C490 1.363 . S
C491 C494 1.363 . S
N492 C494 1.356 . S
N492 H504 0.984 . S
N492 H505 0.985 . S
N493 C495 1.356 . S
N493 H498 0.984 . S
N493 H499 0.985 . S
C494 C488 1.379 . S
C494 C491 1.363 . S
C494 N492 1.356 . S
C495 C489 1.363 . S
C495 C490 1.379 . S
C495 N493 1.356 . S
N496 C488 1.356 . S
N496 H502 0.984 . S
N496 H503 0.984 . S
N497 C490 1.356 . S
N497 H500 0.984 . S
N497 H501 0.985 . S
H498 N493 0.984 . S
H499 N493 0.985 . S
H500 N497 0.984 . S
H501 N497 0.985 . S
H502 N496 0.984 . S
H503 N496 0.984 . S
H504 N492 0.984 . S
H505 N492 0.985 . S
C506 C507 1.363 . S
C506 C512 1.379 . S
C506 N514 1.356 . S
C507 C506 1.363 . S
C507 C513 1.363 . S
C508 C509 1.363 . S
C508 C513 1.379 . S
C508 N515 1.356 . S
C509 C508 1.363 . S
C509 C512 1.363 . S
N510 C512 1.356 . S
N510 H522 0.984 . S
N510 H523 0.985 . S
N511 C513 1.356 . S
N511 H516 0.984 . S
N511 H517 0.985 . S
C512 C506 1.379 . S
C512 C509 1.363 . S
C512 N510 1.356 . S
C513 C507 1.363 . S
C513 C508 1.379 . S
C513 N511 1.356 . S
N514 C506 1.356 . S
N514 H520 0.984 . S
N514 H521 0.984 . S
N515 C508 1.356 . S
N515 H518 0.984 . S
N515 H519 0.985 . S
H516 N511 0.984 . S
H517 N511 0.985 . S
H518 N515 0.984 . S
H519 N515 0.985 . S
H520 N514 0.984 . S
H521 N514 0.984 . S
H522 N510 0.984 . S
H523 N510 0.985 . S
C524 C525 1.363 . S
C524 C530 1.379 . S
C524 N532 1.356 . S
C525 C524 1.363 . S
C525 C531 1.363 . S
C526 C527 1.363 . S
C526 C531 1.379 . S
C526 N533 1.356 1_556 S
C527 C526 1.363 . S
C527 C530 1.363 . S
N528 C530 1.356 . S
N528 H540 0.984 . S
N528 H541 0.985 . S
N529 C531 1.356 . S
N529 H534 0.984 . S
N529 H535 0.985 1_556 S
C530 C524 1.379 . S
C530 C527 1.363 . S
C530 N528 1.356 . S
C531 C525 1.363 . S
C531 C526 1.379 . S
C531 N529 1.356 . S
N532 C524 1.356 . S
N532 H538 0.984 . S
N532 H539 0.984 . S
N533 C526 1.356 1_554 S
N533 H536 0.984 . S
N533 H537 0.985 . S
H534 N529 0.984 . S
H535 N529 0.985 1_554 S
H536 N533 0.984 . S
H537 N533 0.985 . S
H538 N532 0.984 . S
H539 N532 0.984 . S
H540 N528 0.984 . S
H541 N528 0.985 . S
C542 C543 1.363 . S
C542 C548 1.379 . S
C542 N550 1.356 . S
C543 C542 1.363 . S
C543 C549 1.363 . S
C544 C545 1.363 . S
C544 C549 1.379 . S
C544 N551 1.356 . S
C545 C544 1.363 . S
C545 C548 1.363 . S
N546 C548 1.356 . S
N546 H558 0.984 . S
N546 H559 0.985 . S
N547 C549 1.356 . S
N547 H552 0.984 . S
N547 H553 0.985 . S
C548 C542 1.379 . S
C548 C545 1.363 . S
C548 N546 1.356 . S
C549 C543 1.363 . S
C549 C544 1.379 . S
C549 N547 1.356 . S
N550 C542 1.356 . S
N550 H556 0.984 . S
N550 H557 0.984 . S
N551 C544 1.356 . S
N551 H554 0.984 . S
N551 H555 0.985 . S
H552 N547 0.984 . S
H553 N547 0.985 . S
H554 N551 0.984 . S
H555 N551 0.985 . S
H556 N550 0.984 . S
H557 N550 0.984 . S
H558 N546 0.984 . S
H559 N546 0.985 . S
C560 C561 1.363 . S
C560 C566 1.379 . S
C560 N568 1.356 . S
C561 C560 1.363 . S
C561 C567 1.363 . S
C562 C563 1.363 . S
C562 C567 1.379 . S
C562 N569 1.356 . S
C563 C562 1.363 . S
C563 C566 1.363 . S
N564 C566 1.356 . S
N564 H576 0.984 . S
N564 H577 0.985 . S
N565 C567 1.356 . S
N565 H570 0.984 . S
N565 H571 0.985 . S
C566 C560 1.379 . S
C566 C563 1.363 . S
C566 N564 1.356 . S
C567 C561 1.363 . S
C567 C562 1.379 . S
C567 N565 1.356 . S
N568 C560 1.356 . S
N568 H574 0.984 . S
N568 H575 0.984 . S
N569 C562 1.356 . S
N569 H572 0.984 . S
N569 H573 0.985 . S
H570 N565 0.984 . S
H571 N565 0.985 . S
H572 N569 0.984 . S
H573 N569 0.985 . S
H574 N568 0.984 . S
H575 N568 0.984 . S
H576 N564 0.984 . S
H577 N564 0.985 . S
C578 C579 1.363 . S
C578 C584 1.379 . S
C578 N586 1.356 . S
C579 C578 1.363 . S
C579 C585 1.363 . S
C580 C581 1.363 . S
C580 C585 1.379 . S
C580 N587 1.356 . S
C581 C580 1.363 . S
C581 C584 1.363 . S
N582 C584 1.356 . S
N582 H594 0.984 . S
N582 H595 0.985 . S
N583 C585 1.356 . S
N583 H588 0.984 . S
N583 H589 0.985 . S
C584 C578 1.379 . S
C584 C581 1.363 . S
C584 N582 1.356 . S
C585 C579 1.363 . S
C585 C580 1.379 . S
C585 N583 1.356 . S
N586 C578 1.356 . S
N586 H592 0.984 . S
N586 H593 0.984 . S
N587 C580 1.356 . S
N587 H590 0.984 . S
N587 H591 0.985 . S
H588 N583 0.984 . S
H589 N583 0.985 . S
H590 N587 0.984 . S
H591 N587 0.985 . S
H592 N586 0.984 . S
H593 N586 0.984 . S
H594 N582 0.984 . S
H595 N582 0.985 . S
C596 C597 1.363 . S
C596 C602 1.379 . S
C596 N604 1.356 1_556 S
C597 C596 1.363 . S
C597 C603 1.363 . S
C598 C599 1.363 . S
C598 C603 1.379 . S
C598 N605 1.356 . S
C599 C598 1.363 . S
C599 C602 1.363 . S
N600 C602 1.356 . S
N600 H612 0.984 1_565 S
N600 H613 0.985 . S
N601 C603 1.356 . S
N601 H606 0.984 . S
N601 H607 0.985 . S
C602 C596 1.379 . S
C602 C599 1.363 . S
C602 N600 1.356 . S
C603 C597 1.363 . S
C603 C598 1.379 . S
C603 N601 1.356 . S
N604 C596 1.356 1_554 S
N604 H610 0.984 . S
N604 H611 0.984 . S
N605 C598 1.356 . S
N605 H608 0.984 . S
N605 H609 0.985 . S
H606 N601 0.984 . S
H607 N601 0.985 . S
H608 N605 0.984 . S
H609 N605 0.985 . S
H610 N604 0.984 . S
H611 N604 0.984 . S
H612 N600 0.984 1_545 S
H613 N600 0.985 . S
C614 C615 1.363 . S
C614 C620 1.379 . S
C614 N622 1.356 . S
C615 C614 1.363 . S
C615 C621 1.363 . S
C616 C617 1.363 . S
C616 C621 1.379 . S
C616 N623 1.356 . S
C617 C616 1.363 . S
C617 C620 1.363 . S
N618 C620 1.356 . S
N618 H630 0.984 . S
N618 H631 0.985 . S
N619 C621 1.356 . S
N619 H624 0.984 . S
N619 H625 0.985 . S
C620 C614 1.379 . S
C620 C617 1.363 . S
C620 N618 1.356 . S
C621 C615 1.363 . S
C621 C616 1.379 . S
C621 N619 1.356 . S
N622 C614 1.356 . S
N622 H628 0.984 . S
N622 H629 0.984 . S
N623 C616 1.356 . S
N623 H626 0.984 . S
N623 H627 0.985 . S
H624 N619 0.984 . S
H625 N619 0.985 . S
H626 N623 0.984 . S
H627 N623 0.985 . S
H628 N622 0.984 . S
H629 N622 0.984 . S
H630 N618 0.984 . S
H631 N618 0.985 . S
C632 C633 1.363 1_455 S
C632 C638 1.379 . S
C632 N640 1.356 . S
C633 C632 1.363 1_655 S
C633 C639 1.363 . S
C634 C635 1.363 1_655 S
C634 C639 1.379 . S
C634 N641 1.356 . S
C635 C634 1.363 1_455 S
C635 C638 1.363 . S
N636 C638 1.356 . S
N636 H648 0.984 . S
N636 H649 0.985 . S
N637 C639 1.356 . S
N637 H642 0.984 . S
N637 H643 0.985 . S
C638 C632 1.379 . S
C638 C635 1.363 . S
C638 N636 1.356 . S
C639 C633 1.363 . S
C639 C634 1.379 . S
C639 N637 1.356 . S
N640 C632 1.356 . S
N640 H646 0.984 . S
N640 H647 0.996 . S
N641 C634 1.356 . S
N641 H644 0.984 . S
N641 H645 0.985 . S
H642 N637 0.984 . S
H643 N637 0.985 . S
H644 N641 0.984 . S
H645 N641 0.985 . S
H646 N640 0.984 . S
H647 N640 0.996 . S
H648 N636 0.984 . S
H649 N636 0.985 . S
C650 C651 1.363 . S
C650 C656 1.379 . S
C650 N658 1.356 . S
C651 C650 1.363 . S
C651 C657 1.363 . S
C652 C653 1.363 . S
C652 C657 1.379 . S
C652 N659 1.356 . S
C653 C652 1.363 . S
C653 C656 1.363 . S
N654 C656 1.356 . S
N654 H666 0.984 . S
N654 H667 0.985 . S
N655 C657 1.356 . S
N655 H660 0.984 . S
N655 H661 0.985 . S
C656 C650 1.379 . S
C656 C653 1.363 . S
C656 N654 1.356 . S
C657 C651 1.363 . S
C657 C652 1.379 . S
C657 N655 1.356 . S
N658 C650 1.356 . S
N658 H664 0.984 . S
N658 H665 0.984 . S
N659 C652 1.356 . S
N659 H662 0.984 . S
N659 H663 0.985 . S
H660 N655 0.984 . S
H661 N655 0.985 . S
H662 N659 0.984 . S
H663 N659 0.985 . S
H664 N658 0.984 . S
H665 N658 0.984 . S
H666 N654 0.984 . S
H667 N654 0.985 . S
C668 C669 1.363 . S
C668 C674 1.379 1_556 S
C668 N676 1.356 . S
C669 C668 1.363 . S
C669 C675 1.363 . S
C670 C671 1.363 . S
C670 C675 1.379 1_554 S
C670 N677 1.356 . S
C671 C670 1.363 . S
C671 C674 1.363 . S
N672 C674 1.356 . S
N672 H684 0.984 . S
N672 H685 0.985 . S
N673 C675 1.356 . S
N673 H678 0.984 . S
N673 H679 0.985 . S
C674 C668 1.379 1_554 S
C674 C671 1.363 . S
C674 N672 1.356 . S
C675 C669 1.363 . S
C675 C670 1.379 1_556 S
C675 N673 1.356 . S
N676 C668 1.356 . S
N676 H682 0.984 . S
N676 H683 0.984 . S
N677 C670 1.356 . S
N677 H680 0.984 . S
N677 H681 0.985 . S
H678 N673 0.984 . S
H679 N673 0.985 . S
H680 N677 0.984 . S
H681 N677 0.985 . S
H682 N676 0.984 . S
H683 N676 0.984 . S
H684 N672 0.984 . S
H685 N672 0.985 . S
C686 C687 1.363 1_565 S
C686 C692 1.374 1_565 S
C686 N694 1.356 . S
C687 C686 1.363 1_545 S
C687 C693 1.363 . S
C688 C689 1.363 . S
C688 C693 1.379 . S
C688 N695 1.356 . S
C689 C688 1.363 . S
C689 C692 1.378 . S
N690 C692 1.350 1_565 S
N690 H702 0.984 . S
N690 H703 0.981 1_565 S
N691 C693 1.356 . S
N691 H696 0.984 . S
N691 H697 0.985 . S
C692 C686 1.374 1_545 S
C692 C689 1.378 . S
C692 N690 1.350 1_545 S
C693 C687 1.363 . S
C693 C688 1.379 . S
C693 N691 1.356 . S
N694 C686 1.356 . S
N694 H700 0.984 . S
N694 H701 0.984 . S
N695 C688 1.356 . S
N695 H698 0.984 . S
N695 H699 0.985 . S
H696 N691 0.984 . S
H697 N691 0.985 . S
H698 N695 0.984 . S
H699 N695 0.985 . S
H700 N694 0.984 . S
H701 N694 0.984 . S
H702 N690 0.984 . S
H703 N690 0.981 1_545 S
C704 C705 1.363 . S
C704 C710 1.379 1_554 S
C704 N712 1.356 . S
C705 C704 1.363 . S
C705 C711 1.363 . S
C706 C707 1.363 . S
C706 C711 1.379 1_556 S
C706 N713 1.356 . S
C707 C706 1.363 . S
C707 C710 1.363 . S
N708 C710 1.356 . S
N708 H720 0.984 . S
N708 H721 0.985 . S
N709 C711 1.356 . S
N709 H714 0.984 . S
N709 H715 0.985 . S
C710 C704 1.379 1_556 S
C710 C707 1.363 . S
C710 N708 1.356 . S
C711 C705 1.363 . S
C711 C706 1.379 1_554 S
C711 N709 1.356 . S
N712 C704 1.356 . S
N712 H718 0.984 . S
N712 H719 0.984 . S
N713 C706 1.356 . S
N713 H716 0.984 . S
N713 H717 0.985 . S
H714 N709 0.984 . S
H715 N709 0.985 . S
H716 N713 0.984 . S
H717 N713 0.985 . S
H718 N712 0.984 . S
H719 N712 0.984 . S
H720 N708 0.984 . S
H721 N708 0.985 . S
C722 C723 1.363 . S
C722 C728 1.379 . S
C722 N730 1.356 . S
C723 C722 1.363 . S
C723 C729 1.363 1_545 S
C724 C725 1.363 . S
C724 C729 1.379 . S
C724 N731 1.356 . S
C725 C724 1.363 . S
C725 C728 1.363 1_565 S
N726 C728 1.356 . S
N726 H738 0.984 . S
N726 H739 0.985 . S
N727 C729 1.356 . S
N727 H732 0.984 . S
N727 H733 0.985 . S
C728 C722 1.379 . S
C728 C725 1.363 1_545 S
C728 N726 1.356 . S
C729 C723 1.363 1_565 S
C729 C724 1.379 . S
C729 N727 1.356 . S
N730 C722 1.356 . S
N730 H736 0.984 . S
N730 H737 0.984 . S
N731 C724 1.356 . S
N731 H734 0.984 . S
N731 H735 0.985 . S
H732 N727 0.984 . S
H733 N727 0.985 . S
H734 N731 0.984 . S
H735 N731 0.985 . S
H736 N730 0.984 . S
H737 N730 0.984 . S
H738 N726 0.984 . S
H739 N726 0.985 . S
C740 C741 1.363 . S
C740 C746 1.379 . S
C740 N748 1.356 . S
C741 C740 1.363 . S
C741 C747 1.363 . S
C742 C743 1.363 1_655 S
C742 C747 1.379 1_655 S
C742 N749 1.356 . S
C743 C742 1.363 1_455 S
C743 C746 1.363 . S
N744 C746 1.356 . S
N744 H756 0.984 . S
N744 H757 0.985 . S
N745 C747 1.356 1_655 S
N745 H750 0.984 1_655 S
N745 H751 0.985 . S
C746 C740 1.379 . S
C746 C743 1.363 . S
C746 N744 1.356 . S
C747 C741 1.363 . S
C747 C742 1.379 1_455 S
C747 N745 1.356 1_455 S
N748 C740 1.356 . S
N748 H754 0.984 . S
N748 H755 0.984 . S
N749 C742 1.356 . S
N749 H752 0.984 . S
N749 H753 0.985 . S
H750 N745 0.984 1_455 S
H751 N745 0.985 . S
H752 N749 0.984 . S
H753 N749 0.985 . S
H754 N748 0.984 . S
H755 N748 0.984 . S
H756 N744 0.984 . S
H757 N744 0.985 . S
C758 C759 1.363 . S
C758 C764 1.379 . S
C758 N766 1.356 . S
C759 C758 1.363 . S
C759 C765 1.363 . S
C760 C761 1.363 . S
C760 C765 1.379 . S
C760 N767 1.356 . S
C761 C760 1.363 . S
C761 C764 1.363 . S
N762 C764 1.356 . S
N762 H774 0.984 . S
N762 H775 0.985 . S
N763 C765 1.356 . S
N763 H768 0.984 . S
N763 H769 0.985 . S
C764 C758 1.379 . S
C764 C761 1.363 . S
C764 N762 1.356 . S
C765 C759 1.363 . S
C765 C760 1.379 . S
C765 N763 1.356 . S
N766 C758 1.356 . S
N766 H772 0.984 . S
N766 H773 0.984 . S
N767 C760 1.356 . S
N767 H770 0.984 . S
N767 H771 0.985 . S
H768 N763 0.984 . S
H769 N763 0.985 . S
H770 N767 0.984 . S
H771 N767 0.985 . S
H772 N766 0.984 . S
H773 N766 0.984 . S
H774 N762 0.984 . S
H775 N762 0.985 . S
C273 C232 0.898 . S
C275 C28 0.898 . S
C291 C62 0.898 . S
C293 C244 0.898 . S
C309 C164 0.898 . S
C311 C96 0.898 . S
C327 C108 0.898 . S
C329 C198 0.898 . S
C345 C171 2.032 . S
C347 C3 2.093 . S
C363 C37 2.093 . S
C365 C205 2.032 . S
C381 C71 2.093 . S
C383 C241 2.032 . S
C399 C103 2.093 . S
C401 C137 2.032 . S
C417 C130 1.650 . S
C419 C17 1.606 . S
C435 C51 1.606 . S
C437 C6 1.650 . S
C453 C40 1.650 . S
C455 C85 1.606 . S
C471 C119 1.606 . S
C473 C74 1.650 . S
C489 C35 2.032 . S
C491 C139 2.093 . S
C507 C69 2.032 . S
C509 C173 2.093 . S
C525 C105 2.032 . S
C527 C207 2.093 . S
C543 C239 2.093 . S
C545 C1 2.032 . S
C561 C266 1.650 . S
C563 C153 1.606 . S
C579 C187 1.606 . S
C581 C142 1.650 . S
C597 C221 1.606 . S
C599 C176 1.650 . S
C615 C210 1.650 . S
C617 C255 1.606 . S
C633 C22 1.432 . S
C635 C15 1.438 . S
C651 C49 1.438 . S
C653 C56 1.432 . S
C669 C90 1.432 . S
C671 C83 1.438 . S
C687 C124 1.438 . S
C689 C117 1.432 . S
C705 C151 1.438 . S
C707 C158 1.432 . S
C723 C185 1.438 . S
C725 C192 1.432 . S
C741 C226 1.432 . S
C743 C219 1.438 . S
C759 C253 1.432 . S
C761 C260 1.438 . S
