# Generated by pormake.
# Topology uoc, (4)-cn, num edge types: 1
# Building blocks:
#     Node 0, Type 0, BuildingBlock: QUQFOY_clean_sbu_1, # of connection points: 4
#     Node 1, Type 0, BuildingBlock: QUQFOY_clean_sbu_1, # of connection points: 4
#     Node 2, Type 0, BuildingBlock: QUQFOY_clean_sbu_1, # of connection points: 4
#     Node 3, Type 0, BuildingBlock: QUQFOY_clean_sbu_1, # of connection points: 4
#     Node 4, Type 0, BuildingBlock: QUQFOY_clean_sbu_1, # of connection points: 4
#     Node 5, Type 0, BuildingBlock: QUQFOY_clean_sbu_1, # of connection points: 4
#     Node 6, Type 0, BuildingBlock: QUQFOY_clean_sbu_1, # of connection points: 4
#     Node 7, Type 0, BuildingBlock: QUQFOY_clean_sbu_1, # of connection points: 4
#     Edge 8, Type (0, 0), BuildingBlock: ZUJKAS_clean_linker_0, # of connection points: 2
#     Edge 9, Type (0, 0), BuildingBlock: ZUJKAS_clean_linker_0, # of connection points: 2
#     Edge 10, Type (0, 0), BuildingBlock: ZUJKAS_clean_linker_0, # of connection points: 2
#     Edge 11, Type (0, 0), BuildingBlock: ZUJKAS_clean_linker_0, # of connection points: 2
#     Edge 12, Type (0, 0), BuildingBlock: ZUJKAS_clean_linker_0, # of connection points: 2
#     Edge 13, Type (0, 0), BuildingBlock: ZUJKAS_clean_linker_0, # of connection points: 2
#     Edge 14, Type (0, 0), BuildingBlock: ZUJKAS_clean_linker_0, # of connection points: 2
#     Edge 15, Type (0, 0), BuildingBlock: ZUJKAS_clean_linker_0, # of connection points: 2
#     Edge 16, Type (0, 0), BuildingBlock: ZUJKAS_clean_linker_0, # of connection points: 2
#     Edge 17, Type (0, 0), BuildingBlock: ZUJKAS_clean_linker_0, # of connection points: 2
#     Edge 18, Type (0, 0), BuildingBlock: ZUJKAS_clean_linker_0, # of connection points: 2
#     Edge 19, Type (0, 0), BuildingBlock: ZUJKAS_clean_linker_0, # of connection points: 2
#     Edge 20, Type (0, 0), BuildingBlock: ZUJKAS_clean_linker_0, # of connection points: 2
#     Edge 21, Type (0, 0), BuildingBlock: ZUJKAS_clean_linker_0, # of connection points: 2
#     Edge 22, Type (0, 0), BuildingBlock: ZUJKAS_clean_linker_0, # of connection points: 2
#     Edge 23, Type (0, 0), BuildingBlock: ZUJKAS_clean_linker_0, # of connection points: 2
# Relax obj value: 0.074
# Max RMSD: 0.105
# Mean RMSD: 0.105
data_MOF--net-uoc--node1-QUQFOY_clean_sbu_1--edge1-ZUJKAS_clean_linker_0
_symmetry_space_group_name_H-M    P1
_symmetry_Int_Tables_number       1
_symmetry_cell_setting            triclinic
loop_
_symmetry_equiv_pos_as_xyz
'x, y, z'
_cell_length_a     35.617191
_cell_length_b     35.511972
_cell_length_c     72.897058
_cell_angle_alpha  89.953907
_cell_angle_beta   89.938279
_cell_angle_gamma 110.58042
loop_
_atom_site_label
_atom_site_type_symbol
_atom_site_fract_x
_atom_site_fract_y
_atom_site_fract_z
_atom_type_partial_charge
O0 O 0.1396 0.22577 0.12088 0.0
Cd1 Cd 0.17775 0.28431 0.12371 0.0
Cd2 Cd 0.10632 0.29578 0.12876 0.0
O3 O 0.08226 0.23648 0.12044 0.0
O4 O 0.22842 0.28477 0.11193 0.0
O5 O 0.19126 0.31785 0.10071 0.0
C6 C 0.22165 0.30622 0.09894 0.0
C7 C 0.0766 0.3416 0.11893 0.0
C8 C 0.10173 0.21269 0.11902 0.0
C9 C 0.16407 0.30977 0.16104 0.0
O10 O 0.1295 0.30607 0.15499 0.0
O11 O 0.19038 0.30521 0.15033 0.0
O12 O 0.05956 0.31397 0.13079 0.0
O13 O 0.11033 0.34255 0.11201 0.0
O14 O 0.72943 0.63039 0.40177 0.0
Cd15 Cd 0.7873 0.66939 0.39825 0.0
Cd16 Cd 0.80009 0.59909 0.39283 0.0
O17 O 0.74184 0.57381 0.40223 0.0
O18 O 0.78804 0.71953 0.41077 0.0
O19 O 0.82227 0.68224 0.4207 0.0
C20 C 0.81036 0.71232 0.42322 0.0
C21 C 0.84801 0.57188 0.40237 0.0
C22 C 0.71745 0.59249 0.4039 0.0
C23 C 0.81038 0.65597 0.36043 0.0
O24 O 0.80752 0.62139 0.36638 0.0
O25 O 0.80647 0.68228 0.37136 0.0
O26 O 0.8195 0.55296 0.39129 0.0
O27 O 0.84886 0.60625 0.40856 0.0
O28 O 0.3586 0.26862 0.62314 0.0
Cd29 Cd 0.32359 0.20876 0.62488 0.0
Cd30 Cd 0.39486 0.19979 0.62952 0.0
O31 O 0.41661 0.2594 0.62143 0.0
O32 O 0.27323 0.20167 0.61108 0.0
O33 O 0.31994 0.17819 0.60149 0.0
C34 C 0.28683 0.18442 0.59845 0.0
C35 C 0.42531 0.15548 0.61859 0.0
C36 C 0.39637 0.2826 0.6208 0.0
C37 C 0.33727 0.18201 0.66183 0.0
O38 O 0.37244 0.18801 0.65586 0.0
O39 O 0.31045 0.18523 0.65108 0.0
O40 O 0.44253 0.18279 0.63053 0.0
O41 O 0.39097 0.15402 0.61227 0.0
O42 O 0.77843 0.85729 0.90019 0.0
Cd43 Cd 0.7187 0.82313 0.89695 0.0
Cd44 Cd 0.71299 0.89599 0.89371 0.0
O45 O 0.77042 0.9155 0.9041 0.0
O46 O 0.71259 0.77129 0.90934 0.0
O47 O 0.68475 0.81399 0.91967 0.0
C48 C 0.69283 0.78154 0.92207 0.0
C49 C 0.66729 0.92518 0.90405 0.0
C50 C 0.79281 0.89445 0.90418 0.0
C51 C 0.69845 0.84308 0.8599 0.0
O52 O 0.70641 0.87807 0.8666 0.0
O53 O 0.69729 0.81381 0.87026 0.0
O54 O 0.69738 0.94463 0.89382 0.0
O55 O 0.66361 0.88909 0.90895 0.0
O56 O 0.63922 0.72114 0.62368 0.0
Cd57 Cd 0.67688 0.78009 0.62643 0.0
Cd58 Cd 0.60615 0.79139 0.62952 0.0
O59 O 0.58298 0.73306 0.62008 0.0
O60 O 0.72813 0.7818 0.61482 0.0
O61 O 0.68938 0.8128 0.60322 0.0
C62 C 0.72044 0.80217 0.6016 0.0
C63 C 0.57907 0.83866 0.61889 0.0
C64 C 0.60194 0.7087 0.62008 0.0
C65 C 0.65944 0.80422 0.66321 0.0
O66 O 0.62504 0.79877 0.65646 0.0
O67 O 0.68769 0.80237 0.65296 0.0
O68 O 0.55977 0.81037 0.63007 0.0
O69 O 0.61374 0.8396 0.61318 0.0
O70 O 0.22745 0.1356 0.89969 0.0
Cd71 Cd 0.28528 0.17424 0.89562 0.0
Cd72 Cd 0.29883 0.10427 0.89203 0.0
O73 O 0.24117 0.07997 0.90219 0.0
O74 O 0.28717 0.22502 0.90783 0.0
O75 O 0.32088 0.18721 0.91781 0.0
C76 C 0.30951 0.21768 0.92025 0.0
C77 C 0.34692 0.07778 0.90204 0.0
C78 C 0.21625 0.09819 0.9031 0.0
C79 C 0.30808 0.15758 0.85835 0.0
O80 O 0.30528 0.12364 0.86509 0.0
O81 O 0.30433 0.18497 0.86865 0.0
O82 O 0.31791 0.05786 0.89141 0.0
O83 O 0.34823 0.11282 0.9075 0.0
O84 O 0.85602 0.77453 0.12405 0.0
Cd85 Cd 0.8178 0.71599 0.12701 0.0
Cd86 Cd 0.88853 0.70354 0.131 0.0
O87 O 0.91256 0.76252 0.12217 0.0
O88 O 0.76718 0.71501 0.11507 0.0
O89 O 0.80509 0.68249 0.10405 0.0
C90 C 0.77455 0.69382 0.10212 0.0
C91 C 0.91715 0.65713 0.12077 0.0
C92 C 0.89365 0.78689 0.12135 0.0
C93 C 0.83267 0.69041 0.16404 0.0
O94 O 0.86694 0.69407 0.15756 0.0
O95 O 0.80583 0.6948 0.15364 0.0
O96 O 0.93508 0.6849 0.13239 0.0
O97 O 0.88308 0.65631 0.11436 0.0
O98 O 0.27949 0.34879 0.39633 0.0
Cd99 Cd 0.21953 0.31517 0.39414 0.0
Cd100 Cd 0.21175 0.38703 0.39125 0.0
O101 O 0.26995 0.4061 0.40098 0.0
O102 O 0.21009 0.26381 0.40767 0.0
O103 O 0.18894 0.31216 0.41742 0.0
C104 C 0.19371 0.2782 0.42038 0.0
C105 C 0.1672 0.41724 0.40213 0.0
C106 C 0.29317 0.38587 0.4005 0.0
C107 C 0.19562 0.33382 0.35754 0.0
O108 O 0.20294 0.36875 0.36421 0.0
O109 O 0.19644 0.30514 0.36782 0.0
O110 O 0.19693 0.43622 0.39162 0.0
O111 O 0.16333 0.38112 0.40705 0.0
H112 H 0.28654 0.28476 0.09153 0.0
H113 H 0.31615 0.28234 0.06153 0.0
H114 H 0.23848 0.33777 0.03691 0.0
H115 H 0.20871 0.34052 0.06694 0.0
H116 H 0.26722 0.23745 0.03338 0.0
H117 H 0.34705 0.39485 1.01102 0.0
H118 H 0.33509 0.38118 0.03477 0.0
H119 H 0.29704 0.38486 0.01946 0.0
C120 C 0.27643 0.29745 0.07984 0.0
C121 C 0.24503 0.31261 0.08163 0.0
C122 C 0.29343 0.29602 0.06269 0.0
C123 C 0.27969 0.31002 0.04699 0.0
C124 C 0.25005 0.32741 0.04888 0.0
H125 H 0.28066 0.27606 0.93092 0.0
H126 H 0.28009 0.30179 0.9619 0.0
C127 C 0.23294 0.32882 0.06606 0.0
C128 C 0.29218 0.30123 0.02852 0.0
H129 H 0.33441 0.34408 0.988 0.0
C130 C 0.28244 0.26076 0.02353 0.0
C131 C 0.31162 0.33169 0.01566 0.0
C132 C 0.32367 0.37563 0.02049 0.0
C133 C 0.29031 0.24979 1.00586 0.0
C134 C 0.3096 0.28022 0.99289 0.0
C135 C 0.31997 0.32079 0.99797 0.0
C136 C 0.31627 0.27013 0.97366 0.0
C137 C 0.27608 0.20565 1.00101 0.0
C138 C 0.33853 0.24534 0.96973 0.0
C139 C 0.3386 0.23018 0.952 0.0
C140 C 0.31688 0.24003 0.93784 0.0
C141 C 0.29755 0.26765 0.94151 0.0
C142 C 0.29719 0.28246 0.95924 0.0
H143 H 0.2535 0.187 1.01095 0.0
H144 H 0.26262 0.20035 0.98708 0.0
H145 H 0.30198 0.19517 1.00116 0.0
H146 H 0.35435 0.23626 0.98055 0.0
H147 H 0.35408 0.20928 0.94962 0.0
H148 H 0.80685 0.72162 0.34139 0.0
H149 H 0.80684 0.73002 0.30797 0.0
H150 H 0.82369 0.61652 0.30079 0.0
H151 H 0.82345 0.60767 0.33395 0.0
H152 H 0.86437 0.73157 0.28111 0.0
H153 H 0.72281 0.60306 0.27032 0.0
H154 H 0.73854 0.62502 0.29262 0.0
H155 H 0.75942 0.58991 0.28316 0.0
C156 C 0.8109 0.69861 0.3327 0.0
C157 C 0.81482 0.66381 0.34038 0.0
C158 C 0.81074 0.7034 0.31361 0.0
C159 C 0.81427 0.67341 0.30191 0.0
C160 C 0.81986 0.63953 0.30955 0.0
H161 H 0.88289 0.67705 0.1894 0.0
H162 H 0.87566 0.67442 0.22267 0.0
C163 C 0.82002 0.6347 0.32856 0.0
C164 C 0.81241 0.67731 0.28169 0.0
H165 H 0.76263 0.62895 0.24359 0.0
C166 C 0.8419 0.70939 0.27291 0.0
C167 C 0.78264 0.64871 0.27103 0.0
C168 C 0.7488 0.61495 0.27976 0.0
C169 C 0.84351 0.71259 0.25369 0.0
C170 C 0.81521 0.68262 0.24301 0.0
C171 C 0.7846 0.65159 0.2518 0.0
C172 C 0.81807 0.68212 0.22271 0.0
C173 C 0.87567 0.74794 0.24499 0.0
C174 C 0.78721 0.68555 0.21161 0.0
C175 C 0.7911 0.68683 0.19246 0.0
C176 C 0.82585 0.68445 0.1841 0.0
C177 C 0.85585 0.67932 0.19532 0.0
C178 C 0.85194 0.67808 0.21438 0.0
H179 H 0.88733 0.77348 0.25471 0.0
H180 H 0.9011 0.73867 0.2408 0.0
H181 H 0.86417 0.75848 0.23258 0.0
H182 H 0.7606 0.68827 0.21779 0.0
H183 H 0.76742 0.69077 0.18425 0.0
H184 H 0.32507 0.1953 0.5657 0.0
H185 H 0.29696 0.20005 0.53568 0.0
H186 H 0.17827 0.16193 0.5594 0.0
H187 H 0.20713 0.16086 0.58984 0.0
H188 H 0.25036 0.15721 0.51244 0.0
H189 H 0.17671 0.26145 0.53744 0.0
H190 H 0.20868 0.2448 0.55189 0.0
H191 H 0.15717 0.2131 0.54819 0.0
C192 C 0.2929 0.1874 0.56445 0.0
C193 C 0.26828 0.17804 0.58007 0.0
C194 C 0.27676 0.1902 0.54726 0.0
C195 C 0.23547 0.1827 0.54522 0.0
C196 C 0.21038 0.16973 0.56063 0.0
H197 H 0.16913 0.19817 0.42917 0.0
H198 H 0.17001 0.16927 0.45966 0.0
C199 C 0.22676 0.16844 0.57799 0.0
C200 C 0.21969 0.19039 0.52715 0.0
H201 H 0.16661 0.24229 0.50649 0.0
C202 C 0.23209 0.17591 0.51117 0.0
C203 C 0.19603 0.21507 0.52534 0.0
C204 C 0.18422 0.23483 0.5416 0.0
C205 C 0.22336 0.18685 0.49358 0.0
C206 C 0.19906 0.21089 0.49178 0.0
C207 C 0.18501 0.22372 0.50776 0.0
C208 C 0.19143 0.22672 0.47369 0.0
C209 C 0.24263 0.17453 0.4773 0.0
C210 C 0.19936 0.2682 0.47156 0.0
C211 C 0.19668 0.28438 0.45435 0.0
C212 C 0.18702 0.25962 0.43878 0.0
C213 C 0.17695 0.21792 0.44097 0.0
C214 C 0.17813 0.20151 0.45835 0.0
H215 H 0.26899 0.16665 0.48141 0.0
H216 H 0.22063 0.1475 0.47083 0.0
H217 H 0.25273 0.19894 0.46692 0.0
H218 H 0.20947 0.2885 0.48308 0.0
H219 H 0.20495 0.31669 0.45304 0.0
H220 H 0.71571 0.90159 0.83379 0.0
H221 H 0.70957 0.89372 0.80067 0.0
H222 H 0.66241 0.76471 0.80694 0.0
H223 H 0.66987 0.77234 0.84035 0.0
H224 H 0.71633 0.78669 0.77961 0.0
H225 H 0.60926 0.8665 0.77102 0.0
H226 H 0.65416 0.89732 0.78235 0.0
H227 H 0.62177 0.85193 0.79323 0.0
C228 C 0.70369 0.87145 0.82821 0.0
C229 C 0.69287 0.83756 0.83978 0.0
C230 C 0.70003 0.86704 0.80921 0.0
C231 C 0.68465 0.82867 0.80129 0.0
C232 C 0.67409 0.79466 0.81275 0.0
H233 H 0.60121 0.79048 0.68916 0.0
H234 H 0.60875 0.79511 0.72231 0.0
C235 C 0.67823 0.79904 0.83184 0.0
C236 C 0.68044 0.82437 0.78102 0.0
H237 H 0.64132 0.85577 0.74378 0.0
C238 C 0.69966 0.80151 0.77176 0.0
C239 C 0.65828 0.84329 0.77079 0.0
C240 C 0.63435 0.86576 0.77988 0.0
C241 C 0.69783 0.79757 0.75255 0.0
C242 C 0.67723 0.81808 0.74226 0.0
C243 C 0.65763 0.8405 0.75158 0.0
C244 C 0.6736 0.81513 0.72192 0.0
C245 C 0.71716 0.77067 0.74358 0.0
C246 C 0.70759 0.82526 0.71049 0.0
C247 C 0.70333 0.82207 0.69137 0.0
C248 C 0.66502 0.80957 0.68333 0.0
C249 C 0.63121 0.80045 0.69483 0.0
C250 C 0.63546 0.80302 0.71385 0.0
H251 H 0.72118 0.74853 0.75345 0.0
H252 H 0.69902 0.75401 0.73184 0.0
H253 H 0.74726 0.78934 0.73839 0.0
H254 H 0.73741 0.83581 0.71633 0.0
H255 H 0.72996 0.82954 0.6829 0.0
H256 H 0.19102 0.26734 0.33706 0.0
H257 H 0.18878 0.26148 0.30352 0.0
H258 H 0.18461 0.38102 0.29911 0.0
H259 H 0.18727 0.38737 0.33242 0.0
H260 H 0.1331 0.26746 0.27789 0.0
H261 H 0.28081 0.3874 0.26689 0.0
H262 H 0.26445 0.36502 0.28909 0.0
H263 H 0.24726 0.40361 0.28047 0.0
C264 C 0.1893 0.29225 0.32895 0.0
C265 C 0.18967 0.32796 0.33745 0.0
C266 C 0.18816 0.2889 0.30979 0.0
C267 C 0.18755 0.32121 0.29882 0.0
C268 C 0.18619 0.35614 0.30729 0.0
H269 H 0.11683 0.32693 0.18679 0.0
H270 H 0.12492 0.3288 0.22001 0.0
C271 C 0.18739 0.35956 0.32638 0.0
C272 C 0.18807 0.31858 0.27851 0.0
H273 H 0.23911 0.36604 0.24042 0.0
C274 C 0.15644 0.28878 0.26969 0.0
C275 C 0.21896 0.34597 0.26784 0.0
C276 C 0.25502 0.37705 0.27654 0.0
C277 C 0.15398 0.28668 0.25047 0.0
C278 C 0.18361 0.31556 0.23981 0.0
C279 C 0.21614 0.3443 0.24861 0.0
C280 C 0.18053 0.31708 0.21955 0.0
C281 C 0.11965 0.25351 0.24175 0.0
C282 C 0.21018 0.31182 0.20818 0.0
C283 C 0.20586 0.31108 0.18906 0.0
C284 C 0.17184 0.31573 0.18102 0.0
C285 C 0.14322 0.32284 0.19248 0.0
C286 C 0.14761 0.32364 0.21152 0.0
H287 H 0.10661 0.22776 0.25128 0.0
H288 H 0.09563 0.2653 0.23807 0.0
H289 H 0.12946 0.24239 0.22904 0.0
H290 H 0.23606 0.30714 0.21412 0.0
H291 H 0.22846 0.30557 0.18065 0.0
H292 H 0.70438 0.83196 0.56898 0.0
H293 H 0.73383 0.8279 0.53898 0.0
H294 H 0.81724 0.78107 0.56466 0.0
H295 H 0.78791 0.78469 0.59464 0.0
H296 H 0.81646 0.85648 0.52359 0.0
H297 H 0.74683 0.69008 0.52998 0.0
H298 H 0.73271 0.724 0.54453 0.0
H299 H 0.77881 0.71548 0.54856 0.0
C300 C 0.72963 0.82172 0.56832 0.0
C301 C 0.74345 0.80817 0.58419 0.0
C302 C 0.74641 0.81941 0.55115 0.0
C303 C 0.77723 0.80353 0.54959 0.0
C304 C 0.79309 0.79289 0.56555 0.0
H305 H 0.85138 0.70131 0.45338 0.0
H306 H 0.85142 0.72908 0.48411 0.0
C307 C 0.77633 0.79511 0.58269 0.0
C308 C 0.78981 0.79416 0.53125 0.0
H309 H 0.78401 0.71526 0.50329 0.0
C310 C 0.80962 0.82565 0.51914 0.0
C311 C 0.78084 0.75389 0.52551 0.0
C312 C 0.75837 0.7188 0.53772 0.0
C313 C 0.82075 0.81787 0.5014 0.0
C314 C 0.811 0.77753 0.49552 0.0
C315 C 0.79179 0.74617 0.50781 0.0
C316 C 0.81753 0.76664 0.47637 0.0
C317 C 0.84307 0.85293 0.4892 0.0
C318 C 0.7994 0.77924 0.46166 0.0
C319 C 0.79959 0.76364 0.44407 0.0
C320 C 0.81746 0.73465 0.44084 0.0
C321 C 0.83741 0.72361 0.45537 0.0
C322 C 0.83736 0.7394 0.47297 0.0
H323 H 0.85999 0.87991 0.4974 0.0
H324 H 0.86434 0.84551 0.47999 0.0
H325 H 0.8212 0.86081 0.4806 0.0
H326 H 0.78308 0.79942 0.46395 0.0
H327 H 0.78377 0.7727 0.43324 0.0
H328 H 0.27103 0.18196 0.68129 0.0
H329 H 0.26299 0.18006 0.71475 0.0
H330 H 0.37746 0.16543 0.7209 0.0
H331 H 0.38596 0.16763 0.68768 0.0
H332 H 0.26333 0.12243 0.74135 0.0
H333 H 0.38982 0.26597 0.75167 0.0
H334 H 0.36742 0.24996 0.72949 0.0
H335 H 0.40333 0.2298 0.73861 0.0
C336 C 0.29427 0.17786 0.68976 0.0
C337 C 0.32932 0.17534 0.68178 0.0
C338 C 0.28969 0.17694 0.70887 0.0
C339 C 0.32011 0.17363 0.7203 0.0
C340 C 0.35411 0.16908 0.71235 0.0
H341 H 0.3198 0.10614 0.83307 0.0
H342 H 0.32104 0.11234 0.79976 0.0
C343 C 0.35875 0.17005 0.69332 0.0
C344 C 0.31677 0.17523 0.74055 0.0
H345 H 0.36515 0.22595 0.77844 0.0
C346 C 0.28536 0.14525 0.74946 0.0
C347 C 0.34512 0.20549 0.7511 0.0
C348 C 0.3781 0.23988 0.74224 0.0
C349 C 0.28257 0.14369 0.76869 0.0
C350 C 0.31232 0.17255 0.77925 0.0
C351 C 0.34269 0.20356 0.77033 0.0
C352 C 0.31322 0.17005 0.79956 0.0
C353 C 0.24783 0.11109 0.77753 0.0
C354 C 0.31016 0.20129 0.81056 0.0
C355 C 0.30973 0.19802 0.82973 0.0
C356 C 0.3126 0.1635 0.8382 0.0
C357 C 0.31719 0.13302 0.82706 0.0
C358 C 0.3176 0.13633 0.80798 0.0
H359 H 0.22218 0.09909 0.76792 0.0
H360 H 0.25758 0.08584 0.78159 0.0
H361 H 0.23739 0.12239 0.79002 0.0
H362 H 0.30719 0.22779 0.80431 0.0
H363 H 0.3062 0.22205 0.83787 0.0
H364 H 0.71053 0.7162 0.09406 0.0
H365 H 0.68235 0.71901 0.06379 0.0
H366 H 0.75966 0.66196 0.04012 0.0
H367 H 0.78809 0.65893 0.07042 0.0
H368 H 0.73418 0.76327 0.03562 0.0
H369 H 0.65062 0.60626 0.01383 0.0
H370 H 0.66141 0.62029 0.03761 0.0
H371 H 0.6999 0.6152 0.02295 0.0
C372 C 0.72085 0.70324 0.08253 0.0
C373 C 0.7518 0.68757 0.08466 0.0
C374 C 0.70467 0.7049 0.06521 0.0
C375 C 0.71875 0.69057 0.04971 0.0
C376 C 0.74787 0.67263 0.05194 0.0
H377 H 0.71829 0.72106 0.93314 0.0
H378 H 0.71834 0.69612 0.96433 0.0
C379 C 0.7642 0.67104 0.06928 0.0
C380 C 0.70721 0.69955 0.0311 0.0
H381 H 0.66439 0.65687 0.99073 0.0
C382 C 0.71844 0.74004 0.02587 0.0
C383 C 0.68713 0.66916 0.01837 0.0
C384 C 0.67372 0.62524 0.02345 0.0
C385 C 0.71132 0.75107 1.00809 0.0
C386 C 0.69119 0.72073 0.99527 0.0
C387 C 0.67944 0.68013 1.00058 0.0
C388 C 0.6849 0.73076 0.97596 0.0
C389 C 0.72722 0.79513 1.00299 0.0
C390 C 0.66432 0.75702 0.97189 0.0
C391 C 0.66463 0.77178 0.95405 0.0
C392 C 0.68494 0.75996 0.93989 0.0
C393 C 0.70249 0.73096 0.94372 0.0
C394 C 0.70256 0.71661 0.96158 0.0
H395 H 0.75044 0.81321 0.01279 0.0
H396 H 0.74044 0.79964 0.989 0.0
H397 H 0.70224 0.80695 1.00322 0.0
H398 H 0.6495 0.7675 0.98268 0.0
H399 H 0.65051 0.79378 0.95154 0.0
H400 H 0.0205 0.17188 0.11788 0.0
H401 H 0.98589 0.099 0.1156 0.0
H402 H 0.09972 0.08229 0.11105 0.0
H403 H 0.1346 0.15477 0.1135 0.0
H404 H 0.98918 0.04225 0.08809 0.0
H405 H 0.04541 0.01334 0.15581 0.0
H406 H 0.04781 0.06282 0.14868 0.0
H407 H 0.08366 0.04203 0.14009 0.0
C408 C 0.03818 0.15273 0.11627 0.0
C409 C 0.08034 0.16913 0.11608 0.0
C410 C 0.01835 0.11114 0.11495 0.0
C411 C 0.04034 0.08535 0.11348 0.0
C412 C 0.08229 0.1017 0.11254 0.0
H413 H 0.97457 0.8254 0.11674 0.0
H414 H 0.01056 0.89767 0.11296 0.0
C415 C 0.10212 0.14317 0.11388 0.0
C416 C 0.01957 0.04124 0.11349 0.0
H417 H 0.00944 0.95642 0.13808 0.0
C418 C 0.9935 0.02341 0.09901 0.0
C419 C 0.02538 0.01688 0.12778 0.0
C420 C 0.0518 0.03466 0.14407 0.0
C421 C 0.97339 0.98161 0.09831 0.0
C422 C 0.97913 0.95729 0.11264 0.0
C423 C 0.00534 0.97516 0.12707 0.0
C424 C 0.95712 0.91338 0.11339 0.0
C425 C 0.94666 0.96378 0.08215 0.0
C426 C 0.9152 0.89837 0.11489 0.0
C427 C 0.89457 0.85718 0.11705 0.0
C428 C 0.91551 0.8302 0.1179 0.0
C429 C 0.95752 0.84531 0.11612 0.0
C430 C 0.97813 0.88658 0.11397 0.0
H431 H 0.95412 0.98443 0.07015 0.0
H432 H 0.94908 0.93464 0.07801 0.0
H433 H 0.91503 0.95828 0.08602 0.0
H434 H 0.89848 0.91863 0.11488 0.0
H435 H 0.86223 0.84663 0.11842 0.0
H436 H 0.17162 0.49439 0.39601 0.0
H437 H 0.11921 0.52286 0.40072 0.0
H438 H 0.0419 0.41035 0.42371 0.0
H439 H 0.09461 0.38169 0.41928 0.0
H440 H 0.04637 0.49371 0.3838 0.0
H441 H 0.02608 0.49273 0.4593 0.0
H442 H 0.06994 0.48773 0.44867 0.0
H443 H 0.02392 0.44526 0.44991 0.0
C444 C 0.14376 0.47585 0.40238 0.0
C445 C 0.13723 0.43568 0.40721 0.0
C446 C 0.11382 0.49222 0.40507 0.0
C447 C 0.07673 0.46888 0.41269 0.0
C448 C 0.07056 0.42919 0.41814 0.0
H449 H 0.85098 0.49906 0.39242 0.0
H450 H 0.90636 0.47449 0.39653 0.0
C451 C 0.10064 0.41277 0.41551 0.0
C452 C 0.04341 0.48486 0.41307 0.0
H453 H 0.97599 0.50536 0.44111 0.0
C454 C 0.03119 0.49647 0.39636 0.0
C455 C 0.02379 0.48873 0.42948 0.0
C456 C 0.03677 0.47832 0.4479 0.0
C457 C 0.99947 0.51112 0.39553 0.0
C458 C 0.97895 0.51371 0.41183 0.0
C459 C 0.99161 0.50298 0.42863 0.0
C460 C 0.94382 0.52686 0.41139 0.0
C461 C 0.98821 0.52386 0.3772 0.0
C462 C 0.94599 0.56388 0.41899 0.0
C463 C 0.91422 0.5781 0.41669 0.0
C464 C 0.87983 0.55541 0.40679 0.0
C465 C 0.87714 0.51749 0.39998 0.0
C466 C 0.90878 0.50336 0.40229 0.0
H467 H 0.01251 0.52894 0.3669 0.0
H468 H 0.96104 0.49986 0.37194 0.0
H469 H 0.98125 0.55186 0.37854 0.0
H470 H 0.97281 0.58238 0.4261 0.0
H471 H 0.91717 0.60737 0.42213 0.0
H472 H 0.47717 0.32454 0.61881 0.0
H473 H 0.5107 0.3974 0.61605 0.0
H474 H 0.39581 0.41231 0.61317 0.0
H475 H 0.36198 0.3397 0.6162 0.0
H476 H 0.50626 0.45217 0.58881 0.0
H477 H 0.45125 0.48426 0.65627 0.0
H478 H 0.44823 0.43437 0.64958 0.0
H479 H 0.41247 0.45522 0.64094 0.0
C480 C 0.459 0.34328 0.61752 0.0
C481 C 0.41688 0.32633 0.61793 0.0
C482 C 0.47822 0.38488 0.61592 0.0
C483 C 0.45569 0.4102 0.61473 0.0
C484 C 0.4137 0.3933 0.61446 0.0
H485 H 0.52138 0.67021 0.61471 0.0
H486 H 0.48545 0.59787 0.61143 0.0
C487 C 0.39445 0.35177 0.61613 0.0
C488 C 0.47609 0.45436 0.61419 0.0
H489 H 0.48659 0.54035 0.63784 0.0
C490 C 0.50202 0.47151 0.59952 0.0
C491 C 0.47047 0.4794 0.62821 0.0
C492 C 0.4444 0.46245 0.64474 0.0
C493 C 0.52224 0.51325 0.5984 0.0
C494 C 0.51667 0.53821 0.61244 0.0
C495 C 0.49054 0.52107 0.62704 0.0
C496 C 0.53878 0.58209 0.61274 0.0
C497 C 0.54902 0.53033 0.58212 0.0
C498 C 0.58064 0.59708 0.61452 0.0
C499 C 0.60126 0.63833 0.61643 0.0
C500 C 0.58033 0.66536 0.6167 0.0
C501 C 0.53842 0.65026 0.61454 0.0
C502 C 0.51783 0.60896 0.61267 0.0
H503 H 0.54188 0.509 0.5704 0.0
H504 H 0.54628 0.55908 0.57753 0.0
H505 H 0.58069 0.53645 0.58609 0.0
H506 H 0.59727 0.57675 0.61497 0.0
H507 H 0.63352 0.64891 0.61809 0.0
H508 H 0.67103 0.00203 0.89777 0.0
H509 H 0.61805 0.02986 0.90214 0.0
H510 H 0.5411 0.91701 0.92495 0.0
H511 H 0.59436 0.88893 0.92083 0.0
H512 H 0.5451 -0.00081 0.88484 0.0
H513 H 0.52441 -0.00013 0.96032 0.0
H514 H 0.56874 0.99559 0.94985 0.0
H515 H 0.52323 0.95256 0.95108 0.0
C516 C 0.64312 0.98326 0.90402 0.0
C517 C 0.63685 0.94317 0.90888 0.0
C518 C 0.61286 -0.00073 0.90652 0.0
C519 C 0.57572 0.97565 0.91398 0.0
C520 C 0.56978 0.93603 0.91948 0.0
H521 H 0.3493 0.00405 0.8934 0.0
H522 H 0.40463 0.9796 0.89796 0.0
C523 C 0.60018 0.91996 0.91702 0.0
C524 C 0.54218 0.99127 0.91416 0.0
H525 H 0.4747 0.01244 0.9419 0.0
C526 C 0.52989 0.00228 0.89734 0.0
C527 C 0.52253 0.99553 0.93049 0.0
C528 C 0.53554 0.98563 0.949 0.0
C529 C 0.4981 0.01679 0.89633 0.0
C530 C 0.47765 0.0199 0.91257 0.0
C531 C 0.49032 0.00969 0.92948 0.0
C532 C 0.44258 0.03308 0.91194 0.0
C533 C 0.48665 0.0288 0.87789 0.0
C534 C 0.44512 0.07076 0.91888 0.0
C535 C 0.41341 0.08494 0.9163 0.0
C536 C 0.37872 0.06153 0.90678 0.0
C537 C 0.37568 0.02301 0.90066 0.0
C538 C 0.40727 0.00894 0.90324 0.0
H539 H 0.51067 0.03309 0.8675 0.0
H540 H 0.45916 0.00481 0.8729 0.0
H541 H 0.48011 0.05708 0.87897 0.0
H542 H 0.47218 0.08977 0.92566 0.0
H543 H 0.41662 0.11469 0.92121 0.0
H544 H 0.89671 0.60315 0.09221 0.0
H545 H 0.92424 0.55023 0.08553 0.0
H546 H 0.00258 0.58726 0.13237 0.0
H547 H 0.97678 0.64098 0.13851 0.0
H548 H 0.04152 0.57052 0.10515 0.0
H549 H 0.89495 0.44582 0.11214 0.0
H550 H 0.89645 0.48102 0.09425 0.0
H551 H 0.90129 0.49705 0.11782 0.0
C552 C 0.91998 0.60007 0.10098 0.0
C553 C 0.93444 0.62612 0.11593 0.0
C554 C 0.93549 0.56962 0.09724 0.0
C555 C 0.96494 0.56411 0.10867 0.0
C556 C 0.97989 0.59076 0.12334 0.0
H557 H 0.01792 0.35758 0.1376 0.0
H558 H 0.99166 0.4112 0.13207 0.0
C559 C 0.96501 0.6215 0.12686 0.0
C560 C 0.98005 0.53039 0.10589 0.0
H561 H 0.95101 0.42791 0.10557 0.0
C562 C 0.02172 0.53931 0.10512 0.0
C563 C 0.95421 0.48962 0.10595 0.0
C564 C 0.90928 0.47765 0.10775 0.0
C565 C 0.03835 0.50882 0.10529 0.0
C566 C 0.01251 0.46804 0.10547 0.0
C567 C 0.97081 0.45913 0.10536 0.0
C568 C 0.02778 0.43432 0.10787 0.0
C569 C 0.08337 0.52078 0.1064 0.0
C570 C 0.05652 0.42881 0.09596 0.0
C571 C 0.07231 0.39842 0.09934 0.0
C572 C 0.05884 0.37242 0.11442 0.0
C573 C 0.02893 0.37702 0.12584 0.0
C574 C 0.01378 0.4077 0.12266 0.0
H575 H 0.09799 0.55263 0.11069 0.0
H576 H 0.09201 0.50141 0.11626 0.0
H577 H 0.09532 0.51739 0.09269 0.0
H578 H 0.06702 0.44817 0.08415 0.0
H579 H 0.09506 0.39536 0.09021 0.0
H580 H 0.35119 0.35184 0.40098 0.0
H581 H 0.42339 0.38593 0.40486 0.0
H582 H 0.40567 0.49903 0.41207 0.0
H583 H 0.33343 0.46536 0.40806 0.0
H584 H 0.46303 0.49981 0.3853 0.0
H585 H 0.49043 0.43381 0.45083 0.0
H586 H 0.46284 0.39789 0.43396 0.0
H587 H 0.44111 0.43182 0.44385 0.0
C588 C 0.36254 0.3839 0.4036 0.0
C589 C 0.33652 0.4059 0.40416 0.0
C590 C 0.4038 0.40325 0.40594 0.0
C591 C 0.41973 0.44487 0.40897 0.0
C592 C 0.39384 0.46682 0.40985 0.0
H593 H 0.65899 0.6235 0.4113 0.0
H594 H 0.58694 0.58712 0.41379 0.0
C595 C 0.35259 0.44751 0.40755 0.0
C596 C 0.46361 0.46603 0.40976 0.0
H597 H 0.54797 0.47296 0.43384 0.0
C598 C 0.48159 0.49418 0.39597 0.0
C599 C 0.48765 0.45823 0.42362 0.0
C600 C 0.4696 0.42904 0.43901 0.0
C601 C 0.52316 0.51446 0.39552 0.0
C602 C 0.54724 0.50695 0.40946 0.0
C603 C 0.52932 0.47867 0.42322 0.0
C604 C 0.59111 0.52835 0.40985 0.0
C605 C 0.54104 0.54308 0.37988 0.0
C606 C 0.61739 0.50711 0.40762 0.0
C607 C 0.65873 0.52779 0.40632 0.0
C608 C 0.67435 0.57006 0.40723 0.0
C609 C 0.64795 0.59099 0.41032 0.0
C610 C 0.60674 0.5703 0.41169 0.0
H611 H 0.52016 0.53771 0.36805 0.0
H612 H 0.54758 0.57442 0.38463 0.0
H613 H 0.56956 0.54029 0.3751 0.0
H614 H 0.60581 0.47466 0.40628 0.0
H615 H 0.67826 0.51077 0.40401 0.0
H616 H 0.48602 0.14018 0.63583 0.0
H617 H 0.51296 0.08763 0.62905 0.0
H618 H 0.43398 0.0506 0.58241 0.0
H619 H 0.40533 0.10235 0.58974 0.0
H620 H 0.43173 0.98786 0.60048 0.0
H621 H 0.59152 0.0789 0.59266 0.0
H622 H 0.57453 0.08999 0.61441 0.0
H623 H 0.55343 0.1015 0.59356 0.0
C624 C 0.4747 0.12127 0.62396 0.0
C625 C 0.44363 0.12556 0.61327 0.0
C626 C 0.49047 0.09137 0.61998 0.0
C627 C 0.47638 0.06568 0.60491 0.0
C628 C 0.44567 0.07025 0.59402 0.0
H629 H 0.60368 0.89459 0.59117 0.0
H630 H 0.57687 0.94771 0.58375 0.0
C631 C 0.42933 0.09984 0.5982 0.0
C632 C 0.49145 0.03207 0.60167 0.0
H633 H 0.57699 0.0094 0.60237 0.0
C634 C 0.46354 0.99271 0.60051 0.0
C635 C 0.53294 0.03809 0.60115 0.0
C636 C 0.56471 0.0795 0.60029 0.0
C637 C 0.47589 0.95926 0.60017 0.0
C638 C 0.51722 0.96519 0.60178 0.0
C639 C 0.54523 0.0046 0.60157 0.0
C640 C 0.53176 0.93128 0.60516 0.0
C641 C 0.44431 0.91796 0.59825 0.0
C642 C 0.51563 0.90451 0.61971 0.0
C643 C 0.53039 0.8739 0.62374 0.0
C644 C 0.5624 0.8699 0.61363 0.0
C645 C 0.5789 0.89684 0.59916 0.0
C646 C 0.56361 0.9272 0.59492 0.0
H647 H 0.41852 0.91919 0.59001 0.0
H648 H 0.45647 0.89652 0.59163 0.0
H649 H 0.43266 0.90631 0.61204 0.0
H650 H 0.49218 0.90782 0.6283 0.0
H651 H 0.51737 0.85404 0.63516 0.0
H652 H 0.83607 0.97459 0.90862 0.0
H653 H 0.90877 0.00614 0.91203 0.0
H654 H 0.92027 0.88925 0.91208 0.0
H655 H 0.84779 0.85741 0.90835 0.0
H656 H 0.96304 -0.00247 0.9385 0.0
H657 H 0.99208 0.94763 0.86936 0.0
H658 H 0.94285 0.94519 0.87665 0.0
H659 H 0.96276 0.90783 0.88425 0.0
C660 C 0.85401 0.95555 0.90948 0.0
C661 C 0.83619 0.91351 0.90797 0.0
C662 C 0.89552 0.97364 0.91146 0.0
C663 C 0.91985 0.95002 0.91197 0.0
C664 C 0.90203 0.90801 0.91133 0.0
H665 H 0.17968 0.01688 0.90782 0.0
H666 H 0.10809 0.9795 0.91236 0.0
C667 C 0.86059 0.88989 0.90926 0.0
C668 C 0.96399 0.96946 0.91242 0.0
H669 H 0.04862 0.98161 0.8875 0.0
C670 C 0.98183 0.99402 0.92739 0.0
C671 C 0.9883 0.9648 0.89786 0.0
C672 C 0.97061 0.94024 0.88103 0.0
C673 C 0.0235 0.01402 0.92822 0.0
C674 C 0.0477 0.00964 0.91358 0.0
C675 C 0.02992 0.98463 0.89875 0.0
C676 C 0.09129 0.03241 0.91277 0.0
C677 C 0.04132 0.0395 0.94476 0.0
C678 C 0.10543 0.07449 0.91155 0.0
C679 C 0.1462 0.09592 0.9089 0.0
C680 C 0.17359 0.0756 0.90733 0.0
C681 C 0.15941 0.03345 0.90899 0.0
C682 C 0.11855 0.01204 0.91159 0.0
H683 H 0.0208 0.03097 0.95677 0.0
H684 H 0.07044 0.0368 0.94859 0.0
H685 H 0.04673 0.0715 0.94149 0.0
H686 H 0.08475 0.09071 0.91204 0.0
H687 H 0.15608 0.12835 0.90768 0.0
loop_
_geom_bond_atom_site_label_1
_geom_bond_atom_site_label_2
_geom_bond_distance
_geom_bond_site_symmetry_2
_ccdc_geom_bond_type
O0 Cd1 2.223 . S
O0 C8 1.315 . S
Cd1 O0 2.223 . S
Cd1 O4 2.297 . S
Cd1 O5 2.439 . S
Cd1 O11 2.240 . S
Cd2 O3 2.240 . S
Cd2 O10 2.223 . S
Cd2 O12 2.297 . S
Cd2 O13 2.439 . S
O3 Cd2 2.240 . S
O3 C8 1.279 . S
O4 Cd1 2.297 . S
O4 C6 1.247 . S
O5 Cd1 2.439 . S
O5 C6 1.208 . S
C6 O4 1.247 . S
C6 O5 1.208 . S
C7 O12 1.247 . S
C7 O13 1.208 . S
C8 O0 1.315 . S
C8 O3 1.279 . S
C9 O10 1.315 . S
C9 O11 1.279 . S
O10 Cd2 2.223 . S
O10 C9 1.315 . S
O11 Cd1 2.240 . S
O11 C9 1.279 . S
O12 Cd2 2.297 . S
O12 C7 1.247 . S
O13 Cd2 2.439 . S
O13 C7 1.208 . S
O14 Cd15 2.223 . S
O14 C22 1.315 . S
Cd15 O14 2.223 . S
Cd15 O18 2.297 . S
Cd15 O19 2.439 . S
Cd15 O25 2.240 . S
Cd16 O17 2.240 . S
Cd16 O24 2.223 . S
Cd16 O26 2.297 . S
Cd16 O27 2.439 . S
O17 Cd16 2.240 . S
O17 C22 1.279 . S
O18 Cd15 2.297 . S
O18 C20 1.247 . S
O19 Cd15 2.439 . S
O19 C20 1.208 . S
C20 O18 1.247 . S
C20 O19 1.208 . S
C21 O26 1.247 . S
C21 O27 1.208 . S
C22 O14 1.315 . S
C22 O17 1.279 . S
C23 O24 1.315 . S
C23 O25 1.279 . S
O24 Cd16 2.223 . S
O24 C23 1.315 . S
O25 Cd15 2.240 . S
O25 C23 1.279 . S
O26 Cd16 2.297 . S
O26 C21 1.247 . S
O27 Cd16 2.439 . S
O27 C21 1.208 . S
O28 Cd29 2.223 . S
O28 C36 1.315 . S
Cd29 O28 2.223 . S
Cd29 O32 2.297 . S
Cd29 O33 2.439 . S
Cd29 O39 2.240 . S
Cd30 O31 2.240 . S
Cd30 O38 2.223 . S
Cd30 O40 2.297 . S
Cd30 O41 2.439 . S
O31 Cd30 2.240 . S
O31 C36 1.279 . S
O32 Cd29 2.297 . S
O32 C34 1.247 . S
O33 Cd29 2.439 . S
O33 C34 1.208 . S
C34 O32 1.247 . S
C34 O33 1.208 . S
C35 O40 1.247 . S
C35 O41 1.208 . S
C36 O28 1.315 . S
C36 O31 1.279 . S
C37 O38 1.315 . S
C37 O39 1.279 . S
O38 Cd30 2.223 . S
O38 C37 1.315 . S
O39 Cd29 2.240 . S
O39 C37 1.279 . S
O40 Cd30 2.297 . S
O40 C35 1.247 . S
O41 Cd30 2.439 . S
O41 C35 1.208 . S
O42 Cd43 2.223 . S
O42 C50 1.315 . S
Cd43 O42 2.223 . S
Cd43 O46 2.297 . S
Cd43 O47 2.439 . S
Cd43 O53 2.240 . S
Cd44 O45 2.240 . S
Cd44 O52 2.223 . S
Cd44 O54 2.297 . S
Cd44 O55 2.439 . S
O45 Cd44 2.240 . S
O45 C50 1.279 . S
O46 Cd43 2.297 . S
O46 C48 1.247 . S
O47 Cd43 2.439 . S
O47 C48 1.208 . S
C48 O46 1.247 . S
C48 O47 1.208 . S
C49 O54 1.247 . S
C49 O55 1.208 . S
C50 O42 1.315 . S
C50 O45 1.279 . S
C51 O52 1.315 . S
C51 O53 1.279 . S
O52 Cd44 2.223 . S
O52 C51 1.315 . S
O53 Cd43 2.240 . S
O53 C51 1.279 . S
O54 Cd44 2.297 . S
O54 C49 1.247 . S
O55 Cd44 2.439 . S
O55 C49 1.208 . S
O56 Cd57 2.223 . S
O56 C64 1.315 . S
Cd57 O56 2.223 . S
Cd57 O60 2.297 . S
Cd57 O61 2.439 . S
Cd57 O67 2.240 . S
Cd58 O59 2.240 . S
Cd58 O66 2.223 . S
Cd58 O68 2.297 . S
Cd58 O69 2.439 . S
O59 Cd58 2.240 . S
O59 C64 1.279 . S
O60 Cd57 2.297 . S
O60 C62 1.247 . S
O61 Cd57 2.439 . S
O61 C62 1.208 . S
C62 O60 1.247 . S
C62 O61 1.208 . S
C63 O68 1.247 . S
C63 O69 1.208 . S
C64 O56 1.315 . S
C64 O59 1.279 . S
C65 O66 1.315 . S
C65 O67 1.279 . S
O66 Cd58 2.223 . S
O66 C65 1.315 . S
O67 Cd57 2.240 . S
O67 C65 1.279 . S
O68 Cd58 2.297 . S
O68 C63 1.247 . S
O69 Cd58 2.439 . S
O69 C63 1.208 . S
O70 Cd71 2.223 . S
O70 C78 1.315 . S
Cd71 O70 2.223 . S
Cd71 O74 2.297 . S
Cd71 O75 2.439 . S
Cd71 O81 2.240 . S
Cd72 O73 2.240 . S
Cd72 O80 2.223 . S
Cd72 O82 2.297 . S
Cd72 O83 2.439 . S
O73 Cd72 2.240 . S
O73 C78 1.279 . S
O74 Cd71 2.297 . S
O74 C76 1.247 . S
O75 Cd71 2.439 . S
O75 C76 1.208 . S
C76 O74 1.247 . S
C76 O75 1.208 . S
C77 O82 1.247 . S
C77 O83 1.208 . S
C78 O70 1.315 . S
C78 O73 1.279 . S
C79 O80 1.315 . S
C79 O81 1.279 . S
O80 Cd72 2.223 . S
O80 C79 1.315 . S
O81 Cd71 2.240 . S
O81 C79 1.279 . S
O82 Cd72 2.297 . S
O82 C77 1.247 . S
O83 Cd72 2.439 . S
O83 C77 1.208 . S
O84 Cd85 2.223 . S
O84 C92 1.315 . S
Cd85 O84 2.223 . S
Cd85 O88 2.297 . S
Cd85 O89 2.439 . S
Cd85 O95 2.240 . S
Cd86 O87 2.240 . S
Cd86 O94 2.223 . S
Cd86 O96 2.297 . S
Cd86 O97 2.439 . S
O87 Cd86 2.240 . S
O87 C92 1.279 . S
O88 Cd85 2.297 . S
O88 C90 1.247 . S
O89 Cd85 2.439 . S
O89 C90 1.208 . S
C90 O88 1.247 . S
C90 O89 1.208 . S
C91 O96 1.247 . S
C91 O97 1.208 . S
C92 O84 1.315 . S
C92 O87 1.279 . S
C93 O94 1.315 . S
C93 O95 1.279 . S
O94 Cd86 2.223 . S
O94 C93 1.315 . S
O95 Cd85 2.240 . S
O95 C93 1.279 . S
O96 Cd86 2.297 . S
O96 C91 1.247 . S
O97 Cd86 2.439 . S
O97 C91 1.208 . S
O98 Cd99 2.223 . S
O98 C106 1.315 . S
Cd99 O98 2.223 . S
Cd99 O102 2.297 . S
Cd99 O103 2.439 . S
Cd99 O109 2.240 . S
Cd100 O101 2.240 . S
Cd100 O108 2.223 . S
Cd100 O110 2.297 . S
Cd100 O111 2.439 . S
O101 Cd100 2.240 . S
O101 C106 1.279 . S
O102 Cd99 2.297 . S
O102 C104 1.247 . S
O103 Cd99 2.439 . S
O103 C104 1.208 . S
C104 O102 1.247 . S
C104 O103 1.208 . S
C105 O110 1.247 . S
C105 O111 1.208 . S
C106 O98 1.315 . S
C106 O101 1.279 . S
C107 O108 1.315 . S
C107 O109 1.279 . S
O108 Cd100 2.223 . S
O108 C107 1.315 . S
O109 Cd99 2.240 . S
O109 C107 1.279 . S
O110 Cd100 2.297 . S
O110 C105 1.247 . S
O111 Cd100 2.439 . S
O111 C105 1.208 . S
H112 C120 0.929 . S
H113 C122 0.930 . S
H114 C124 0.930 . S
H115 C127 0.929 . S
H116 C130 0.930 . S
H117 C132 0.960 . S
H118 C132 0.960 . S
H119 C132 0.960 . S
C120 H112 0.929 . S
C120 C121 1.377 . S
C120 C122 1.384 . S
C121 C120 1.377 . S
C121 C127 1.390 . S
C122 H113 0.930 . S
C122 C120 1.384 . S
C122 C123 1.372 . S
C123 C122 1.372 . S
C123 C124 1.400 . S
C123 C128 1.490 . S
C124 H114 0.930 . S
C124 C123 1.400 . S
C124 C127 1.386 . S
H125 C141 0.930 . S
H126 C142 0.931 . S
C127 H115 0.929 . S
C127 C121 1.390 . S
C127 C124 1.386 . S
C128 C123 1.490 . S
C128 C130 1.395 . S
C128 C131 1.403 . S
H129 C135 0.930 . S
C130 H116 0.930 . S
C130 C128 1.395 . S
C130 C133 1.403 1_554 S
C131 C128 1.403 . S
C131 C132 1.524 . S
C131 C135 1.400 1_554 S
C132 H117 0.960 . S
C132 H118 0.960 . S
C132 H119 0.960 . S
C132 C131 1.524 . S
C133 C130 1.403 1_556 S
C133 C134 1.392 . S
C133 C137 1.495 . S
C134 C133 1.392 . S
C134 C135 1.385 . S
C134 C136 1.478 . S
C135 H129 0.930 . S
C135 C131 1.400 1_556 S
C135 C134 1.385 . S
C136 C134 1.478 . S
C136 C138 1.381 . S
C136 C142 1.383 . S
C137 C133 1.495 . S
C137 H143 0.959 . S
C137 H144 0.961 . S
C137 H145 0.960 . S
C138 C136 1.381 . S
C138 C139 1.394 . S
C138 H146 0.930 . S
C139 C138 1.394 . S
C139 C140 1.383 . S
C139 H147 0.929 . S
C140 C139 1.383 . S
C140 C141 1.377 . S
C141 H125 0.930 . S
C141 C140 1.377 . S
C141 C142 1.379 . S
C142 H126 0.931 . S
C142 C136 1.383 . S
C142 C141 1.379 . S
H143 C137 0.959 . S
H144 C137 0.961 . S
H145 C137 0.960 . S
H146 C138 0.930 . S
H147 C139 0.929 . S
H148 C156 0.929 . S
H149 C158 0.930 . S
H150 C160 0.930 . S
H151 C163 0.929 . S
H152 C166 0.930 . S
H153 C168 0.960 . S
H154 C168 0.960 . S
H155 C168 0.960 . S
C156 H148 0.929 . S
C156 C157 1.377 . S
C156 C158 1.384 . S
C157 C156 1.377 . S
C157 C163 1.390 . S
C158 H149 0.930 . S
C158 C156 1.384 . S
C158 C159 1.372 . S
C159 C158 1.372 . S
C159 C160 1.400 . S
C159 C164 1.490 . S
C160 H150 0.930 . S
C160 C159 1.400 . S
C160 C163 1.386 . S
H161 C177 0.930 . S
H162 C178 0.931 . S
C163 H151 0.929 . S
C163 C157 1.390 . S
C163 C160 1.386 . S
C164 C159 1.490 . S
C164 C166 1.395 . S
C164 C167 1.403 . S
H165 C171 0.930 . S
C166 H152 0.930 . S
C166 C164 1.395 . S
C166 C169 1.403 . S
C167 C164 1.403 . S
C167 C168 1.524 . S
C167 C171 1.400 . S
C168 H153 0.960 . S
C168 H154 0.960 . S
C168 H155 0.960 . S
C168 C167 1.524 . S
C169 C166 1.403 . S
C169 C170 1.392 . S
C169 C173 1.495 . S
C170 C169 1.392 . S
C170 C171 1.385 . S
C170 C172 1.478 . S
C171 H165 0.930 . S
C171 C167 1.400 . S
C171 C170 1.385 . S
C172 C170 1.478 . S
C172 C174 1.381 . S
C172 C178 1.383 . S
C173 C169 1.495 . S
C173 H179 0.959 . S
C173 H180 0.961 . S
C173 H181 0.960 . S
C174 C172 1.381 . S
C174 C175 1.394 . S
C174 H182 0.930 . S
C175 C174 1.394 . S
C175 C176 1.383 . S
C175 H183 0.929 . S
C176 C175 1.383 . S
C176 C177 1.377 . S
C177 H161 0.930 . S
C177 C176 1.377 . S
C177 C178 1.379 . S
C178 H162 0.931 . S
C178 C172 1.383 . S
C178 C177 1.379 . S
H179 C173 0.959 . S
H180 C173 0.961 . S
H181 C173 0.960 . S
H182 C174 0.930 . S
H183 C175 0.929 . S
H184 C192 0.929 . S
H185 C194 0.930 . S
H186 C196 0.930 . S
H187 C199 0.929 . S
H188 C202 0.930 . S
H189 C204 0.960 . S
H190 C204 0.960 . S
H191 C204 0.960 . S
C192 H184 0.929 . S
C192 C193 1.377 . S
C192 C194 1.384 . S
C193 C192 1.377 . S
C193 C199 1.390 . S
C194 H185 0.930 . S
C194 C192 1.384 . S
C194 C195 1.372 . S
C195 C194 1.372 . S
C195 C196 1.400 . S
C195 C200 1.490 . S
C196 H186 0.930 . S
C196 C195 1.400 . S
C196 C199 1.386 . S
H197 C213 0.930 . S
H198 C214 0.931 . S
C199 H187 0.929 . S
C199 C193 1.390 . S
C199 C196 1.386 . S
C200 C195 1.490 . S
C200 C202 1.395 . S
C200 C203 1.403 . S
H201 C207 0.930 . S
C202 H188 0.930 . S
C202 C200 1.395 . S
C202 C205 1.403 . S
C203 C200 1.403 . S
C203 C204 1.524 . S
C203 C207 1.400 . S
C204 H189 0.960 . S
C204 H190 0.960 . S
C204 H191 0.960 . S
C204 C203 1.524 . S
C205 C202 1.403 . S
C205 C206 1.392 . S
C205 C209 1.495 . S
C206 C205 1.392 . S
C206 C207 1.385 . S
C206 C208 1.478 . S
C207 H201 0.930 . S
C207 C203 1.400 . S
C207 C206 1.385 . S
C208 C206 1.478 . S
C208 C210 1.381 . S
C208 C214 1.383 . S
C209 C205 1.495 . S
C209 H215 0.959 . S
C209 H216 0.961 . S
C209 H217 0.960 . S
C210 C208 1.381 . S
C210 C211 1.394 . S
C210 H218 0.930 . S
C211 C210 1.394 . S
C211 C212 1.383 . S
C211 H219 0.929 . S
C212 C211 1.383 . S
C212 C213 1.377 . S
C213 H197 0.930 . S
C213 C212 1.377 . S
C213 C214 1.379 . S
C214 H198 0.931 . S
C214 C208 1.383 . S
C214 C213 1.379 . S
H215 C209 0.959 . S
H216 C209 0.961 . S
H217 C209 0.960 . S
H218 C210 0.930 . S
H219 C211 0.929 . S
H220 C228 0.929 . S
H221 C230 0.930 . S
H222 C232 0.930 . S
H223 C235 0.929 . S
H224 C238 0.930 . S
H225 C240 0.960 . S
H226 C240 0.960 . S
H227 C240 0.960 . S
C228 H220 0.929 . S
C228 C229 1.377 . S
C228 C230 1.384 . S
C229 C228 1.377 . S
C229 C235 1.390 . S
C230 H221 0.930 . S
C230 C228 1.384 . S
C230 C231 1.372 . S
C231 C230 1.372 . S
C231 C232 1.400 . S
C231 C236 1.490 . S
C232 H222 0.930 . S
C232 C231 1.400 . S
C232 C235 1.386 . S
H233 C249 0.930 . S
H234 C250 0.931 . S
C235 H223 0.929 . S
C235 C229 1.390 . S
C235 C232 1.386 . S
C236 C231 1.490 . S
C236 C238 1.395 . S
C236 C239 1.403 . S
H237 C243 0.930 . S
C238 H224 0.930 . S
C238 C236 1.395 . S
C238 C241 1.403 . S
C239 C236 1.403 . S
C239 C240 1.524 . S
C239 C243 1.400 . S
C240 H225 0.960 . S
C240 H226 0.960 . S
C240 H227 0.960 . S
C240 C239 1.524 . S
C241 C238 1.403 . S
C241 C242 1.392 . S
C241 C245 1.495 . S
C242 C241 1.392 . S
C242 C243 1.385 . S
C242 C244 1.478 . S
C243 H237 0.930 . S
C243 C239 1.400 . S
C243 C242 1.385 . S
C244 C242 1.478 . S
C244 C246 1.381 . S
C244 C250 1.383 . S
C245 C241 1.495 . S
C245 H251 0.959 . S
C245 H252 0.961 . S
C245 H253 0.960 . S
C246 C244 1.381 . S
C246 C247 1.394 . S
C246 H254 0.930 . S
C247 C246 1.394 . S
C247 C248 1.383 . S
C247 H255 0.929 . S
C248 C247 1.383 . S
C248 C249 1.377 . S
C249 H233 0.930 . S
C249 C248 1.377 . S
C249 C250 1.379 . S
C250 H234 0.931 . S
C250 C244 1.383 . S
C250 C249 1.379 . S
H251 C245 0.959 . S
H252 C245 0.961 . S
H253 C245 0.960 . S
H254 C246 0.930 . S
H255 C247 0.929 . S
H256 C264 0.929 . S
H257 C266 0.930 . S
H258 C268 0.930 . S
H259 C271 0.929 . S
H260 C274 0.930 . S
H261 C276 0.960 . S
H262 C276 0.960 . S
H263 C276 0.960 . S
C264 H256 0.929 . S
C264 C265 1.377 . S
C264 C266 1.384 . S
C265 C264 1.377 . S
C265 C271 1.390 . S
C266 H257 0.930 . S
C266 C264 1.384 . S
C266 C267 1.372 . S
C267 C266 1.372 . S
C267 C268 1.400 . S
C267 C272 1.490 . S
C268 H258 0.930 . S
C268 C267 1.400 . S
C268 C271 1.386 . S
H269 C285 0.930 . S
H270 C286 0.931 . S
C271 H259 0.929 . S
C271 C265 1.390 . S
C271 C268 1.386 . S
C272 C267 1.490 . S
C272 C274 1.395 . S
C272 C275 1.403 . S
H273 C279 0.930 . S
C274 H260 0.930 . S
C274 C272 1.395 . S
C274 C277 1.403 . S
C275 C272 1.403 . S
C275 C276 1.524 . S
C275 C279 1.400 . S
C276 H261 0.960 . S
C276 H262 0.960 . S
C276 H263 0.960 . S
C276 C275 1.524 . S
C277 C274 1.403 . S
C277 C278 1.392 . S
C277 C281 1.495 . S
C278 C277 1.392 . S
C278 C279 1.385 . S
C278 C280 1.478 . S
C279 H273 0.930 . S
C279 C275 1.400 . S
C279 C278 1.385 . S
C280 C278 1.478 . S
C280 C282 1.381 . S
C280 C286 1.383 . S
C281 C277 1.495 . S
C281 H287 0.959 . S
C281 H288 0.961 . S
C281 H289 0.960 . S
C282 C280 1.381 . S
C282 C283 1.394 . S
C282 H290 0.930 . S
C283 C282 1.394 . S
C283 C284 1.383 . S
C283 H291 0.929 . S
C284 C283 1.383 . S
C284 C285 1.377 . S
C285 H269 0.930 . S
C285 C284 1.377 . S
C285 C286 1.379 . S
C286 H270 0.931 . S
C286 C280 1.383 . S
C286 C285 1.379 . S
H287 C281 0.959 . S
H288 C281 0.961 . S
H289 C281 0.960 . S
H290 C282 0.930 . S
H291 C283 0.929 . S
H292 C300 0.929 . S
H293 C302 0.930 . S
H294 C304 0.930 . S
H295 C307 0.929 . S
H296 C310 0.930 . S
H297 C312 0.960 . S
H298 C312 0.960 . S
H299 C312 0.960 . S
C300 H292 0.929 . S
C300 C301 1.377 . S
C300 C302 1.384 . S
C301 C300 1.377 . S
C301 C307 1.390 . S
C302 H293 0.930 . S
C302 C300 1.384 . S
C302 C303 1.372 . S
C303 C302 1.372 . S
C303 C304 1.400 . S
C303 C308 1.490 . S
C304 H294 0.930 . S
C304 C303 1.400 . S
C304 C307 1.386 . S
H305 C321 0.930 . S
H306 C322 0.931 . S
C307 H295 0.929 . S
C307 C301 1.390 . S
C307 C304 1.386 . S
C308 C303 1.490 . S
C308 C310 1.395 . S
C308 C311 1.403 . S
H309 C315 0.930 . S
C310 H296 0.930 . S
C310 C308 1.395 . S
C310 C313 1.403 . S
C311 C308 1.403 . S
C311 C312 1.524 . S
C311 C315 1.400 . S
C312 H297 0.960 . S
C312 H298 0.960 . S
C312 H299 0.960 . S
C312 C311 1.524 . S
C313 C310 1.403 . S
C313 C314 1.392 . S
C313 C317 1.495 . S
C314 C313 1.392 . S
C314 C315 1.385 . S
C314 C316 1.478 . S
C315 H309 0.930 . S
C315 C311 1.400 . S
C315 C314 1.385 . S
C316 C314 1.478 . S
C316 C318 1.381 . S
C316 C322 1.383 . S
C317 C313 1.495 . S
C317 H323 0.959 . S
C317 H324 0.961 . S
C317 H325 0.960 . S
C318 C316 1.381 . S
C318 C319 1.394 . S
C318 H326 0.930 . S
C319 C318 1.394 . S
C319 C320 1.383 . S
C319 H327 0.929 . S
C320 C319 1.383 . S
C320 C321 1.377 . S
C321 H305 0.930 . S
C321 C320 1.377 . S
C321 C322 1.379 . S
C322 H306 0.931 . S
C322 C316 1.383 . S
C322 C321 1.379 . S
H323 C317 0.959 . S
H324 C317 0.961 . S
H325 C317 0.960 . S
H326 C318 0.930 . S
H327 C319 0.929 . S
H328 C336 0.929 . S
H329 C338 0.930 . S
H330 C340 0.930 . S
H331 C343 0.929 . S
H332 C346 0.930 . S
H333 C348 0.960 . S
H334 C348 0.960 . S
H335 C348 0.960 . S
C336 H328 0.929 . S
C336 C337 1.377 . S
C336 C338 1.384 . S
C337 C336 1.377 . S
C337 C343 1.390 . S
C338 H329 0.930 . S
C338 C336 1.384 . S
C338 C339 1.372 . S
C339 C338 1.372 . S
C339 C340 1.400 . S
C339 C344 1.490 . S
C340 H330 0.930 . S
C340 C339 1.400 . S
C340 C343 1.386 . S
H341 C357 0.930 . S
H342 C358 0.931 . S
C343 H331 0.929 . S
C343 C337 1.390 . S
C343 C340 1.386 . S
C344 C339 1.490 . S
C344 C346 1.395 . S
C344 C347 1.403 . S
H345 C351 0.930 . S
C346 H332 0.930 . S
C346 C344 1.395 . S
C346 C349 1.403 . S
C347 C344 1.403 . S
C347 C348 1.524 . S
C347 C351 1.400 . S
C348 H333 0.960 . S
C348 H334 0.960 . S
C348 H335 0.960 . S
C348 C347 1.524 . S
C349 C346 1.403 . S
C349 C350 1.392 . S
C349 C353 1.495 . S
C350 C349 1.392 . S
C350 C351 1.385 . S
C350 C352 1.478 . S
C351 H345 0.930 . S
C351 C347 1.400 . S
C351 C350 1.385 . S
C352 C350 1.478 . S
C352 C354 1.381 . S
C352 C358 1.383 . S
C353 C349 1.495 . S
C353 H359 0.959 . S
C353 H360 0.961 . S
C353 H361 0.960 . S
C354 C352 1.381 . S
C354 C355 1.394 . S
C354 H362 0.930 . S
C355 C354 1.394 . S
C355 C356 1.383 . S
C355 H363 0.929 . S
C356 C355 1.383 . S
C356 C357 1.377 . S
C357 H341 0.930 . S
C357 C356 1.377 . S
C357 C358 1.379 . S
C358 H342 0.931 . S
C358 C352 1.383 . S
C358 C357 1.379 . S
H359 C353 0.959 . S
H360 C353 0.961 . S
H361 C353 0.960 . S
H362 C354 0.930 . S
H363 C355 0.929 . S
H364 C372 0.929 . S
H365 C374 0.930 . S
H366 C376 0.930 . S
H367 C379 0.929 . S
H368 C382 0.930 . S
H369 C384 0.960 1_556 S
H370 C384 0.960 . S
H371 C384 0.960 . S
C372 H364 0.929 . S
C372 C373 1.377 . S
C372 C374 1.384 . S
C373 C372 1.377 . S
C373 C379 1.390 . S
C374 H365 0.930 . S
C374 C372 1.384 . S
C374 C375 1.372 . S
C375 C374 1.372 . S
C375 C376 1.400 . S
C375 C380 1.490 . S
C376 H366 0.930 . S
C376 C375 1.400 . S
C376 C379 1.386 . S
H377 C393 0.930 . S
H378 C394 0.931 . S
C379 H367 0.929 . S
C379 C373 1.390 . S
C379 C376 1.386 . S
C380 C375 1.490 . S
C380 C382 1.395 . S
C380 C383 1.403 . S
H381 C387 0.930 . S
C382 H368 0.930 . S
C382 C380 1.395 . S
C382 C385 1.362 1_554 S
C383 C380 1.403 . S
C383 C384 1.524 . S
C383 C387 1.400 1_554 S
C384 H369 0.960 1_554 S
C384 H370 0.960 . S
C384 H371 0.960 . S
C384 C383 1.524 . S
C385 C382 1.362 1_556 S
C385 C386 1.431 . S
C385 C389 1.498 . S
C386 C385 1.431 . S
C386 C387 1.385 . S
C386 C388 1.478 . S
C387 H381 0.930 . S
C387 C383 1.400 1_556 S
C387 C386 1.385 . S
C388 C386 1.478 . S
C388 C390 1.381 . S
C388 C394 1.383 . S
C389 C385 1.498 . S
C389 H395 0.959 1_556 S
C389 H396 0.961 . S
C389 H397 0.960 . S
C390 C388 1.381 . S
C390 C391 1.394 . S
C390 H398 0.930 . S
C391 C390 1.394 . S
C391 C392 1.383 . S
C391 H399 0.929 . S
C392 C391 1.383 . S
C392 C393 1.377 . S
C393 H377 0.930 . S
C393 C392 1.377 . S
C393 C394 1.379 . S
C394 H378 0.931 . S
C394 C388 1.383 . S
C394 C393 1.379 . S
H395 C389 0.959 1_554 S
H396 C389 0.961 . S
H397 C389 0.960 . S
H398 C390 0.930 . S
H399 C391 0.929 . S
H400 C408 0.929 . S
H401 C410 0.930 . S
H402 C412 0.930 . S
H403 C415 0.929 . S
H404 C418 0.930 . S
H405 C420 0.950 1_565 S
H406 C420 0.960 . S
H407 C420 0.960 . S
C408 H400 0.929 . S
C408 C409 1.377 . S
C408 C410 1.384 . S
C409 C408 1.377 . S
C409 C415 1.390 . S
C410 H401 0.930 . S
C410 C408 1.384 . S
C410 C411 1.372 . S
C411 C410 1.372 . S
C411 C412 1.400 . S
C411 C416 1.490 . S
C412 H402 0.930 . S
C412 C411 1.400 . S
C412 C415 1.386 . S
H413 C429 0.930 . S
H414 C430 0.931 . S
C415 H403 0.929 . S
C415 C409 1.390 . S
C415 C412 1.386 . S
C416 C411 1.490 . S
C416 C418 1.395 1_455 S
C416 C419 1.403 . S
H417 C423 0.930 . S
C418 H404 0.930 . S
C418 C416 1.395 1_655 S
C418 C421 1.403 1_545 S
C419 C416 1.403 . S
C419 C420 1.524 . S
C419 C423 1.400 1_545 S
C420 H405 0.950 1_545 S
C420 H406 0.960 . S
C420 H407 0.960 . S
C420 C419 1.524 . S
C421 C418 1.403 1_565 S
C421 C422 1.392 . S
C421 C425 1.495 . S
C422 C421 1.392 . S
C422 C423 1.385 1_655 S
C422 C424 1.478 . S
C423 H417 0.930 . S
C423 C419 1.400 1_565 S
C423 C422 1.385 1_455 S
C424 C422 1.478 . S
C424 C426 1.381 . S
C424 C430 1.383 . S
C425 C421 1.495 . S
C425 H431 0.941 1_565 S
C425 H432 0.961 . S
C425 H433 0.960 . S
C426 C424 1.381 . S
C426 C427 1.394 . S
C426 H434 0.930 . S
C427 C426 1.394 . S
C427 C428 1.383 . S
C427 H435 0.929 . S
C428 C427 1.383 . S
C428 C429 1.377 . S
C429 H413 0.930 . S
C429 C428 1.377 . S
C429 C430 1.379 . S
C430 H414 0.931 . S
C430 C424 1.383 . S
C430 C429 1.379 . S
H431 C425 0.941 1_545 S
H432 C425 0.961 . S
H433 C425 0.960 . S
H434 C426 0.930 . S
H435 C427 0.929 . S
H436 C444 0.929 . S
H437 C446 0.930 . S
H438 C448 0.930 . S
H439 C451 0.929 . S
H440 C454 0.930 . S
H441 C456 0.960 . S
H442 C456 0.960 1_455 S
H443 C456 0.960 . S
C444 H436 0.929 . S
C444 C445 1.377 . S
C444 C446 1.384 . S
C445 C444 1.377 . S
C445 C451 1.390 . S
C446 H437 0.930 . S
C446 C444 1.384 . S
C446 C447 1.372 . S
C447 C446 1.372 . S
C447 C448 1.400 . S
C447 C452 1.490 . S
C448 H438 0.930 . S
C448 C447 1.400 . S
C448 C451 1.386 . S
H449 C465 0.930 . S
H450 C466 0.931 . S
C451 H439 0.929 . S
C451 C445 1.390 . S
C451 C448 1.386 . S
C452 C447 1.490 . S
C452 C454 1.395 . S
C452 C455 1.408 . S
H453 C459 0.930 . S
C454 H440 0.930 . S
C454 C452 1.395 . S
C454 C457 1.403 . S
C455 C452 1.408 . S
C455 C456 1.525 1_455 S
C455 C459 1.393 1_455 S
C456 H441 0.960 . S
C456 H442 0.960 1_655 S
C456 H443 0.960 . S
C456 C455 1.525 1_655 S
C457 C454 1.403 . S
C457 C458 1.392 1_455 S
C457 C461 1.495 . S
C458 C457 1.392 1_655 S
C458 C459 1.385 . S
C458 C460 1.478 . S
C459 H453 0.930 . S
C459 C455 1.393 1_655 S
C459 C458 1.385 . S
C460 C458 1.478 . S
C460 C462 1.381 . S
C460 C466 1.383 . S
C461 C457 1.495 . S
C461 H467 0.959 . S
C461 H468 0.961 1_455 S
C461 H469 0.960 . S
C462 C460 1.381 . S
C462 C463 1.394 . S
C462 H470 0.930 . S
C463 C462 1.394 . S
C463 C464 1.383 . S
C463 H471 0.929 . S
C464 C463 1.383 . S
C464 C465 1.377 . S
C465 H449 0.930 . S
C465 C464 1.377 . S
C465 C466 1.379 . S
C466 H450 0.931 . S
C466 C460 1.383 . S
C466 C465 1.379 . S
H467 C461 0.959 . S
H468 C461 0.961 1_655 S
H469 C461 0.960 . S
H470 C462 0.930 . S
H471 C463 0.929 . S
H472 C480 0.929 . S
H473 C482 0.930 . S
H474 C484 0.930 . S
H475 C487 0.929 . S
H476 C490 0.930 . S
H477 C492 0.960 . S
H478 C492 0.960 . S
H479 C492 0.960 . S
C480 H472 0.929 . S
C480 C481 1.377 . S
C480 C482 1.384 . S
C481 C480 1.377 . S
C481 C487 1.390 . S
C482 H473 0.930 . S
C482 C480 1.384 . S
C482 C483 1.372 . S
C483 C482 1.372 . S
C483 C484 1.400 . S
C483 C488 1.490 . S
C484 H474 0.930 . S
C484 C483 1.400 . S
C484 C487 1.386 . S
H485 C501 0.930 . S
H486 C502 0.931 . S
C487 H475 0.929 . S
C487 C481 1.390 . S
C487 C484 1.386 . S
C488 C483 1.490 . S
C488 C490 1.395 . S
C488 C491 1.403 . S
H489 C495 0.930 . S
C490 H476 0.930 . S
C490 C488 1.395 . S
C490 C493 1.403 . S
C491 C488 1.403 . S
C491 C492 1.524 . S
C491 C495 1.400 . S
C492 H477 0.960 . S
C492 H478 0.960 . S
C492 H479 0.960 . S
C492 C491 1.524 . S
C493 C490 1.403 . S
C493 C494 1.392 . S
C493 C497 1.495 . S
C494 C493 1.392 . S
C494 C495 1.385 . S
C494 C496 1.478 . S
C495 H489 0.930 . S
C495 C491 1.400 . S
C495 C494 1.385 . S
C496 C494 1.478 . S
C496 C498 1.381 . S
C496 C502 1.383 . S
C497 C493 1.495 . S
C497 H503 0.959 . S
C497 H504 0.961 . S
C497 H505 0.960 . S
C498 C496 1.381 . S
C498 C499 1.394 . S
C498 H506 0.930 . S
C499 C498 1.394 . S
C499 C500 1.383 . S
C499 H507 0.929 . S
C500 C499 1.383 . S
C500 C501 1.377 . S
C501 H485 0.930 . S
C501 C500 1.377 . S
C501 C502 1.379 . S
C502 H486 0.931 . S
C502 C496 1.383 . S
C502 C501 1.379 . S
H503 C497 0.959 . S
H504 C497 0.961 . S
H505 C497 0.960 . S
H506 C498 0.930 . S
H507 C499 0.929 . S
H508 C516 0.929 . S
H509 C518 0.930 . S
H510 C520 0.930 . S
H511 C523 0.929 . S
H512 C526 0.930 . S
H513 C528 0.960 . S
H514 C528 0.960 . S
H515 C528 0.960 . S
C516 H508 0.929 . S
C516 C517 1.377 . S
C516 C518 1.384 . S
C517 C516 1.377 . S
C517 C523 1.390 . S
C518 H509 0.930 . S
C518 C516 1.384 . S
C518 C519 1.372 . S
C519 C518 1.372 . S
C519 C520 1.400 . S
C519 C524 1.490 . S
C520 H510 0.930 . S
C520 C519 1.400 . S
C520 C523 1.386 . S
H521 C537 0.930 . S
H522 C538 0.931 . S
C523 H511 0.929 . S
C523 C517 1.390 . S
C523 C520 1.386 . S
C524 C519 1.490 . S
C524 C526 1.395 1_565 S
C524 C527 1.403 . S
H525 C531 0.930 . S
C526 H512 0.930 . S
C526 C524 1.395 1_545 S
C526 C529 1.403 . S
C527 C524 1.403 . S
C527 C528 1.524 . S
C527 C531 1.400 . S
C528 H513 0.960 . S
C528 H514 0.960 . S
C528 H515 0.960 . S
C528 C527 1.524 . S
C529 C526 1.403 . S
C529 C530 1.392 . S
C529 C533 1.495 . S
C530 C529 1.392 . S
C530 C531 1.385 1_545 S
C530 C532 1.478 . S
C531 H525 0.930 . S
C531 C527 1.400 . S
C531 C530 1.385 1_565 S
C532 C530 1.478 . S
C532 C534 1.381 . S
C532 C538 1.383 . S
C533 C529 1.495 . S
C533 H539 0.959 . S
C533 H540 0.961 . S
C533 H541 0.960 . S
C534 C532 1.381 . S
C534 C535 1.394 . S
C534 H542 0.930 . S
C535 C534 1.394 . S
C535 C536 1.383 . S
C535 H543 0.929 . S
C536 C535 1.383 . S
C536 C537 1.377 . S
C537 H521 0.930 . S
C537 C536 1.377 . S
C537 C538 1.379 . S
C538 H522 0.931 . S
C538 C532 1.383 . S
C538 C537 1.379 . S
H539 C533 0.959 . S
H540 C533 0.961 . S
H541 C533 0.960 . S
H542 C534 0.930 . S
H543 C535 0.929 . S
H544 C552 0.929 . S
H545 C554 0.930 . S
H546 C556 0.930 . S
H547 C559 0.929 . S
H548 C562 0.930 . S
H549 C564 0.960 . S
H550 C564 0.960 . S
H551 C564 0.960 . S
C552 H544 0.929 . S
C552 C553 1.377 . S
C552 C554 1.384 . S
C553 C552 1.377 . S
C553 C559 1.390 . S
C554 H545 0.930 . S
C554 C552 1.384 . S
C554 C555 1.372 . S
C555 C554 1.372 . S
C555 C556 1.400 . S
C555 C560 1.490 . S
C556 H546 0.930 . S
C556 C555 1.400 . S
C556 C559 1.386 . S
H557 C573 0.930 . S
H558 C574 0.931 . S
C559 H547 0.929 . S
C559 C553 1.390 . S
C559 C556 1.386 . S
C560 C555 1.490 . S
C560 C562 1.395 1_655 S
C560 C563 1.403 . S
H561 C567 0.930 . S
C562 H548 0.930 . S
C562 C560 1.395 1_455 S
C562 C565 1.403 . S
C563 C560 1.403 . S
C563 C564 1.524 . S
C563 C567 1.400 . S
C564 H549 0.960 . S
C564 H550 0.960 . S
C564 H551 0.960 . S
C564 C563 1.524 . S
C565 C562 1.403 . S
C565 C566 1.392 . S
C565 C569 1.495 . S
C566 C565 1.392 . S
C566 C567 1.385 1_455 S
C566 C568 1.478 . S
C567 H561 0.930 . S
C567 C563 1.400 . S
C567 C566 1.385 1_655 S
C568 C566 1.478 . S
C568 C570 1.381 . S
C568 C574 1.383 . S
C569 C565 1.495 . S
C569 H575 0.959 . S
C569 H576 0.961 . S
C569 H577 0.960 . S
C570 C568 1.381 . S
C570 C571 1.394 . S
C570 H578 0.930 . S
C571 C570 1.394 . S
C571 C572 1.383 . S
C571 H579 0.929 . S
C572 C571 1.383 . S
C572 C573 1.377 . S
C573 H557 0.930 . S
C573 C572 1.377 . S
C573 C574 1.379 . S
C574 H558 0.931 . S
C574 C568 1.383 . S
C574 C573 1.379 . S
H575 C569 0.959 . S
H576 C569 0.961 . S
H577 C569 0.960 . S
H578 C570 0.930 . S
H579 C571 0.929 . S
H580 C588 0.929 . S
H581 C590 0.930 . S
H582 C592 0.930 . S
H583 C595 0.929 . S
H584 C598 0.930 . S
H585 C600 0.960 . S
H586 C600 0.960 . S
H587 C600 0.960 . S
C588 H580 0.929 . S
C588 C589 1.377 . S
C588 C590 1.384 . S
C589 C588 1.377 . S
C589 C595 1.390 . S
C590 H581 0.930 . S
C590 C588 1.384 . S
C590 C591 1.372 . S
C591 C590 1.372 . S
C591 C592 1.400 . S
C591 C596 1.490 . S
C592 H582 0.930 . S
C592 C591 1.400 . S
C592 C595 1.386 . S
H593 C609 0.930 . S
H594 C610 0.931 . S
C595 H583 0.929 . S
C595 C589 1.390 . S
C595 C592 1.386 . S
C596 C591 1.490 . S
C596 C598 1.395 . S
C596 C599 1.403 . S
H597 C603 0.930 . S
C598 H584 0.930 . S
C598 C596 1.395 . S
C598 C601 1.403 . S
C599 C596 1.403 . S
C599 C600 1.524 . S
C599 C603 1.400 . S
C600 H585 0.960 . S
C600 H586 0.960 . S
C600 H587 0.960 . S
C600 C599 1.524 . S
C601 C598 1.403 . S
C601 C602 1.392 . S
C601 C605 1.495 . S
C602 C601 1.392 . S
C602 C603 1.385 . S
C602 C604 1.478 . S
C603 H597 0.930 . S
C603 C599 1.400 . S
C603 C602 1.385 . S
C604 C602 1.478 . S
C604 C606 1.381 . S
C604 C610 1.383 . S
C605 C601 1.495 . S
C605 H611 0.959 . S
C605 H612 0.961 . S
C605 H613 0.960 . S
C606 C604 1.381 . S
C606 C607 1.394 . S
C606 H614 0.930 . S
C607 C606 1.394 . S
C607 C608 1.383 . S
C607 H615 0.929 . S
C608 C607 1.383 . S
C608 C609 1.377 . S
C609 H593 0.930 . S
C609 C608 1.377 . S
C609 C610 1.379 . S
C610 H594 0.931 . S
C610 C604 1.383 . S
C610 C609 1.379 . S
H611 C605 0.959 . S
H612 C605 0.961 . S
H613 C605 0.960 . S
H614 C606 0.930 . S
H615 C607 0.929 . S
H616 C624 0.929 . S
H617 C626 0.930 . S
H618 C628 0.930 . S
H619 C631 0.929 . S
H620 C634 0.930 . S
H621 C636 0.960 . S
H622 C636 0.960 . S
H623 C636 0.960 . S
C624 H616 0.929 . S
C624 C625 1.377 . S
C624 C626 1.384 . S
C625 C624 1.377 . S
C625 C631 1.390 . S
C626 H617 0.930 . S
C626 C624 1.384 . S
C626 C627 1.372 . S
C627 C626 1.372 . S
C627 C628 1.400 . S
C627 C632 1.490 . S
C628 H618 0.930 . S
C628 C627 1.400 . S
C628 C631 1.386 . S
H629 C645 0.930 . S
H630 C646 0.931 . S
C631 H619 0.929 . S
C631 C625 1.390 . S
C631 C628 1.386 . S
C632 C627 1.490 . S
C632 C634 1.395 1_545 S
C632 C635 1.403 . S
H633 C639 0.930 . S
C634 H620 0.930 . S
C634 C632 1.395 1_565 S
C634 C637 1.403 . S
C635 C632 1.403 . S
C635 C636 1.524 . S
C635 C639 1.400 . S
C636 H621 0.960 . S
C636 H622 0.960 . S
C636 H623 0.960 . S
C636 C635 1.524 . S
C637 C634 1.403 . S
C637 C638 1.392 . S
C637 C641 1.495 . S
C638 C637 1.392 . S
C638 C639 1.385 1_565 S
C638 C640 1.478 . S
C639 H633 0.930 . S
C639 C635 1.400 . S
C639 C638 1.385 1_545 S
C640 C638 1.478 . S
C640 C642 1.381 . S
C640 C646 1.383 . S
C641 C637 1.495 . S
C641 H647 0.959 . S
C641 H648 0.961 . S
C641 H649 0.960 . S
C642 C640 1.381 . S
C642 C643 1.394 . S
C642 H650 0.930 . S
C643 C642 1.394 . S
C643 C644 1.383 . S
C643 H651 0.929 . S
C644 C643 1.383 . S
C644 C645 1.377 . S
C645 H629 0.930 . S
C645 C644 1.377 . S
C645 C646 1.379 . S
C646 H630 0.931 . S
C646 C640 1.383 . S
C646 C645 1.379 . S
H647 C641 0.959 . S
H648 C641 0.961 . S
H649 C641 0.960 . S
H650 C642 0.930 . S
H651 C643 0.929 . S
H652 C660 0.929 . S
H653 C662 0.930 . S
H654 C664 0.930 . S
H655 C667 0.929 . S
H656 C670 0.930 . S
H657 C672 0.977 . S
H658 C672 0.960 . S
H659 C672 0.960 . S
C660 H652 0.929 . S
C660 C661 1.377 . S
C660 C662 1.384 . S
C661 C660 1.377 . S
C661 C667 1.390 . S
C662 H653 0.930 . S
C662 C660 1.384 . S
C662 C663 1.372 . S
C663 C662 1.372 . S
C663 C664 1.400 . S
C663 C668 1.490 . S
C664 H654 0.930 . S
C664 C663 1.400 . S
C664 C667 1.386 . S
H665 C681 0.930 . S
H666 C682 0.931 . S
C667 H655 0.929 . S
C667 C661 1.390 . S
C667 C664 1.386 . S
C668 C663 1.490 . S
C668 C670 1.395 1_565 S
C668 C671 1.403 . S
H669 C675 0.930 . S
C670 H656 0.930 . S
C670 C668 1.395 1_545 S
C670 C673 1.403 1_655 S
C671 C668 1.403 . S
C671 C672 1.524 . S
C671 C675 1.400 1_655 S
C672 H657 0.977 . S
C672 H658 0.960 . S
C672 H659 0.960 . S
C672 C671 1.524 . S
C673 C670 1.403 1_455 S
C673 C674 1.392 . S
C673 C677 1.495 . S
C674 C673 1.392 . S
C674 C675 1.385 1_545 S
C674 C676 1.478 . S
C675 H669 0.930 . S
C675 C671 1.400 1_455 S
C675 C674 1.385 1_565 S
C676 C674 1.478 . S
C676 C678 1.381 . S
C676 C682 1.383 . S
C677 C673 1.495 . S
C677 H683 0.968 . S
C677 H684 0.961 . S
C677 H685 0.960 . S
C678 C676 1.381 . S
C678 C679 1.394 . S
C678 H686 0.930 . S
C679 C678 1.394 . S
C679 C680 1.383 . S
C679 H687 0.929 . S
C680 C679 1.383 . S
C680 C681 1.377 . S
C681 H665 0.930 . S
C681 C680 1.377 . S
C681 C682 1.379 . S
C682 H666 0.931 . S
C682 C676 1.383 . S
C682 C681 1.379 . S
H683 C677 0.968 . S
H684 C677 0.961 . S
H685 C677 0.960 . S
H686 C678 0.930 . S
H687 C679 0.929 . S
C121 C6 1.301 . S
C140 C76 1.291 . S
C157 C23 1.178 . S
C176 C93 1.179 . S
C193 C34 1.301 . S
C212 C104 1.284 . S
C229 C51 1.172 . S
C248 C65 1.209 . S
C265 C107 1.177 . S
C284 C9 1.183 . S
C301 C62 1.307 . S
C320 C20 1.312 . S
C337 C37 1.179 . S
C356 C79 1.175 . S
C373 C90 1.306 . S
C392 C48 1.317 . S
C409 C8 1.571 . S
C428 C92 1.551 . S
C445 C105 1.643 . S
C464 C21 1.641 . S
C481 C36 1.569 . S
C500 C64 1.560 . S
C517 C49 1.646 . S
C536 C77 1.655 . S
C553 C91 1.649 . S
C572 C7 1.666 . S
C589 C106 1.568 . S
C608 C22 1.564 . S
C625 C35 1.639 . S
C644 C63 1.618 . S
C661 C50 1.571 . S
C680 C78 1.551 . S
