# Generated by pormake.
# Topology uop, (4)-cn, num edge types: 1
# Building blocks:
#     Node 0, Type 0, BuildingBlock: CEKHIL_clean_sbu_0, # of connection points: 4
#     Node 1, Type 0, BuildingBlock: CEKHIL_clean_sbu_0, # of connection points: 4
#     Node 2, Type 0, BuildingBlock: CEKHIL_clean_sbu_0, # of connection points: 4
#     Node 3, Type 0, BuildingBlock: CEKHIL_clean_sbu_0, # of connection points: 4
#     Node 4, Type 0, BuildingBlock: CEKHIL_clean_sbu_0, # of connection points: 4
#     Node 5, Type 0, BuildingBlock: CEKHIL_clean_sbu_0, # of connection points: 4
#     Node 6, Type 0, BuildingBlock: CEKHIL_clean_sbu_0, # of connection points: 4
#     Node 7, Type 0, BuildingBlock: CEKHIL_clean_sbu_0, # of connection points: 4
#     Node 8, Type 0, BuildingBlock: CEKHIL_clean_sbu_0, # of connection points: 4
#     Node 9, Type 0, BuildingBlock: CEKHIL_clean_sbu_0, # of connection points: 4
#     Node 10, Type 0, BuildingBlock: CEKHIL_clean_sbu_0, # of connection points: 4
#     Node 11, Type 0, BuildingBlock: CEKHIL_clean_sbu_0, # of connection points: 4
#     Edge 12, Type (0, 0), BuildingBlock: EZIPEK_clean_linker_0, # of connection points: 2
#     Edge 13, Type (0, 0), BuildingBlock: EZIPEK_clean_linker_0, # of connection points: 2
#     Edge 14, Type (0, 0), BuildingBlock: EZIPEK_clean_linker_0, # of connection points: 2
#     Edge 15, Type (0, 0), BuildingBlock: EZIPEK_clean_linker_0, # of connection points: 2
#     Edge 16, Type (0, 0), BuildingBlock: EZIPEK_clean_linker_0, # of connection points: 2
#     Edge 17, Type (0, 0), BuildingBlock: EZIPEK_clean_linker_0, # of connection points: 2
#     Edge 18, Type (0, 0), BuildingBlock: EZIPEK_clean_linker_0, # of connection points: 2
#     Edge 19, Type (0, 0), BuildingBlock: EZIPEK_clean_linker_0, # of connection points: 2
#     Edge 20, Type (0, 0), BuildingBlock: EZIPEK_clean_linker_0, # of connection points: 2
#     Edge 21, Type (0, 0), BuildingBlock: EZIPEK_clean_linker_0, # of connection points: 2
#     Edge 22, Type (0, 0), BuildingBlock: EZIPEK_clean_linker_0, # of connection points: 2
#     Edge 23, Type (0, 0), BuildingBlock: EZIPEK_clean_linker_0, # of connection points: 2
#     Edge 24, Type (0, 0), BuildingBlock: EZIPEK_clean_linker_0, # of connection points: 2
#     Edge 25, Type (0, 0), BuildingBlock: EZIPEK_clean_linker_0, # of connection points: 2
#     Edge 26, Type (0, 0), BuildingBlock: EZIPEK_clean_linker_0, # of connection points: 2
#     Edge 27, Type (0, 0), BuildingBlock: EZIPEK_clean_linker_0, # of connection points: 2
#     Edge 28, Type (0, 0), BuildingBlock: EZIPEK_clean_linker_0, # of connection points: 2
#     Edge 29, Type (0, 0), BuildingBlock: EZIPEK_clean_linker_0, # of connection points: 2
#     Edge 30, Type (0, 0), BuildingBlock: EZIPEK_clean_linker_0, # of connection points: 2
#     Edge 31, Type (0, 0), BuildingBlock: EZIPEK_clean_linker_0, # of connection points: 2
#     Edge 32, Type (0, 0), BuildingBlock: EZIPEK_clean_linker_0, # of connection points: 2
#     Edge 33, Type (0, 0), BuildingBlock: EZIPEK_clean_linker_0, # of connection points: 2
#     Edge 34, Type (0, 0), BuildingBlock: EZIPEK_clean_linker_0, # of connection points: 2
#     Edge 35, Type (0, 0), BuildingBlock: EZIPEK_clean_linker_0, # of connection points: 2
# Relax obj value: 0.153
# Max RMSD: 0.167
# Mean RMSD: 0.162
data_MOF--net-uop--node1-CEKHIL_clean_sbu_0--edge1-EZIPEK_clean_linker_0
_symmetry_space_group_name_H-M    P1
_symmetry_Int_Tables_number       1
_symmetry_cell_setting            triclinic
loop_
_symmetry_equiv_pos_as_xyz
'x, y, z'
_cell_length_a     24.151843
_cell_length_b     23.258018
_cell_length_c     32.22805
_cell_angle_alpha  90.004861
_cell_angle_beta   90.014924
_cell_angle_gamma 121.32236
loop_
_atom_site_label
_atom_site_type_symbol
_atom_site_fract_x
_atom_site_fract_y
_atom_site_fract_z
_atom_type_partial_charge
Co0 Co 0.24507 0.40381 0.253 0.0
O1 O 0.15317 0.36515 0.2512 0.0
O2 O 0.20795 0.34364 0.20544 0.0
C3 C 0.2484 0.38239 0.321 0.0
O4 O 0.34181 0.43561 0.24707 0.0
Co5 Co 0.32403 0.52992 0.30771 0.0
O6 O 0.39685 0.51694 0.29481 0.0
C7 C 0.26767 0.53983 0.22976 0.0
C8 C 0.15208 0.33265 0.21836 0.0
C9 C 0.39456 0.47726 0.26667 0.0
O10 O 0.25724 0.48194 0.21908 0.0
O11 O 0.28662 0.5645 0.26611 0.0
O12 O 0.23511 0.33702 0.29292 0.0
O13 O 0.25341 0.43723 0.30746 0.0
Co14 Co 0.8496 0.25318 0.50591 0.0
O15 O 0.92773 0.2655 0.53028 0.0
O16 O 0.87117 0.3092 0.55422 0.0
C17 C 0.79981 0.13994 0.49767 0.0
O18 O 0.76622 0.24993 0.49209 0.0
Co19 Co 0.813 0.21055 0.41711 0.0
O20 O 0.73157 0.20918 0.42815 0.0
C21 C 0.91096 0.35064 0.43229 0.0
C22 C 0.9202 0.30109 0.55826 0.0
C23 C 0.72461 0.231 0.46268 0.0
O24 O 0.90181 0.33683 0.47112 0.0
O25 O 0.88293 0.30599 0.40408 0.0
O26 O 0.79898 0.16664 0.53277 0.0
O27 O 0.83567 0.18223 0.46872 0.0
Co28 Co 0.62052 0.86933 0.85096 0.0
O29 O 0.66151 0.81774 0.85382 0.0
O30 O 0.64998 0.86336 0.79634 0.0
C31 C 0.67006 0.93464 0.90695 0.0
O32 O 0.58068 0.9255 0.83735 0.0
Co33 Co 0.53006 0.85258 0.9255 0.0
O34 O 0.51672 0.91566 0.89144 0.0
C35 C 0.48486 0.74708 0.86285 0.0
C36 C 0.67026 0.82738 0.81417 0.0
C37 C 0.54041 0.93774 0.85547 0.0
O38 O 0.53406 0.78564 0.84002 0.0
O39 O 0.47966 0.76002 0.90075 0.0
O40 O 0.69956 0.94945 0.87135 0.0
O41 O 0.61603 0.87769 0.90807 0.0
Co42 Co 0.79698 0.58854 0.27345 0.0
O43 O 0.88986 0.63234 0.27652 0.0
O44 O 0.83595 0.64038 0.22336 0.0
C45 C 0.78429 0.61701 0.33792 0.0
O46 O 0.70051 0.55166 0.26055 0.0
Co47 Co 0.7111 0.46856 0.33073 0.0
O48 O 0.64125 0.4831 0.31291 0.0
C49 C 0.76416 0.44543 0.25497 0.0
C50 C 0.8913 0.65656 0.24011 0.0
C51 C 0.64615 0.51552 0.27995 0.0
O52 O 0.79235 0.5084 0.24685 0.0
O53 O 0.73022 0.41889 0.28765 0.0
O54 O 0.79924 0.65831 0.30696 0.0
O55 O 0.78254 0.5616 0.32956 0.0
Co56 Co 0.13886 0.7334 0.50515 0.0
O57 O 0.06024 0.72319 0.52646 0.0
O58 O 0.11218 0.67637 0.55355 0.0
C59 C 0.19215 0.84645 0.49749 0.0
O60 O 0.22223 0.73528 0.49286 0.0
Co61 Co 0.17623 0.77575 0.41593 0.0
O62 O 0.25157 0.76584 0.42674 0.0
C63 C 0.0771 0.63643 0.43114 0.0
C64 C 0.06385 0.68617 0.55514 0.0
C65 C 0.26072 0.7478 0.46207 0.0
O66 O 0.08748 0.65033 0.46987 0.0
O67 O 0.10488 0.68086 0.4028 0.0
O68 O 0.18947 0.81888 0.53292 0.0
O69 O 0.15656 0.80522 0.46803 0.0
Co70 Co 0.35787 0.16205 0.87422 0.0
O71 O 0.31466 0.21016 0.88393 0.0
O72 O 0.31419 0.16305 0.82391 0.0
C73 C 0.32563 0.09987 0.93256 0.0
O74 O 0.3999 0.10969 0.8549 0.0
Co75 Co 0.46835 0.1905 0.93664 0.0
O76 O 0.45995 0.11045 0.90883 0.0
C77 C 0.49635 0.28115 0.86549 0.0
C78 C 0.29726 0.19902 0.84537 0.0
C79 C 0.43705 0.0921 0.87232 0.0
O80 O 0.43697 0.24603 0.85445 0.0
O81 O 0.51905 0.26942 0.89816 0.0
O82 O 0.28739 0.08201 0.90061 0.0
O83 O 0.37746 0.15894 0.92994 0.0
Co84 Co 0.61195 0.73495 0.49189 0.0
O85 O 0.6907 0.73379 0.48936 0.0
O86 O 0.60822 0.68112 0.44531 0.0
C87 C 0.66074 0.84802 0.50085 0.0
O88 O 0.52438 0.72638 0.48356 0.0
Co89 Co 0.57377 0.77191 0.57249 0.0
O90 O 0.50274 0.7686 0.53965 0.0
C91 C 0.55182 0.63665 0.56521 0.0
C92 C 0.6659 0.6962 0.45677 0.0
C93 C 0.48917 0.7438 0.50325 0.0
O94 O 0.57116 0.65152 0.52754 0.0
O95 O 0.55357 0.67975 0.59068 0.0
O96 O 0.65298 0.82153 0.46436 0.0
O97 O 0.64407 0.8062 0.53182 0.0
Co98 Co 0.81014 0.60107 0.73817 0.0
O99 O 0.76547 0.64296 0.71672 0.0
O100 O 0.80518 0.6575 0.78028 0.0
C101 C 0.87463 0.62142 0.68289 0.0
O102 O 0.86055 0.56627 0.76906 0.0
Co103 Co 0.78699 0.47354 0.69066 0.0
O104 O 0.85121 0.47955 0.73184 0.0
C105 C 0.68826 0.46233 0.74741 0.0
C106 C 0.77371 0.67074 0.75277 0.0
C107 C 0.87295 0.51929 0.76301 0.0
O108 O 0.72787 0.52222 0.76035 0.0
O109 O 0.69802 0.43854 0.71428 0.0
O110 O 0.88954 0.6682 0.71031 0.0
O111 O 0.81783 0.56823 0.68707 0.0
Co112 Co 0.23646 0.84575 0.12488 0.0
O113 O 0.14366 0.79697 0.12099 0.0
O114 O 0.19856 0.83784 0.17949 0.0
C115 C 0.25567 0.91314 0.06983 0.0
O116 O 0.33397 0.8986 0.13845 0.0
Co117 Co 0.31035 0.82778 0.05133 0.0
O118 O 0.38632 0.90361 0.07923 0.0
C119 C 0.25689 0.72709 0.11826 0.0
C120 C 0.14264 0.80352 0.1608 0.0
C121 C 0.38651 0.91891 0.11724 0.0
O122 O 0.23494 0.76038 0.13606 0.0
O123 O 0.28659 0.74358 0.08339 0.0
O124 O 0.24123 0.92765 0.1056 0.0
O125 O 0.25028 0.85493 0.06765 0.0
Co126 Co 0.38068 0.25118 0.49216 0.0
O127 O 0.30519 0.25787 0.48553 0.0
O128 O 0.39169 0.30534 0.44432 0.0
C129 C 0.32791 0.13803 0.50221 0.0
O130 O 0.46542 0.25345 0.48718 0.0
Co131 Co 0.41154 0.21529 0.57528 0.0
O132 O 0.48644 0.21944 0.54715 0.0
C133 C 0.44036 0.35182 0.56482 0.0
C134 C 0.3345 0.29436 0.45316 0.0
C135 C 0.49999 0.23865 0.5097 0.0
O136 O 0.42284 0.33596 0.52693 0.0
O137 O 0.43569 0.30911 0.59165 0.0
O138 O 0.33792 0.16399 0.46541 0.0
O139 O 0.34312 0.18044 0.53281 0.0
Co140 Co 0.14514 0.40939 0.76027 0.0
O141 O 0.19082 0.36434 0.74786 0.0
O142 O 0.14281 0.35795 0.80799 0.0
C143 C 0.08817 0.38255 0.70102 0.0
O144 O 0.09225 0.44811 0.78312 0.0
Co145 Co 0.17097 0.53082 0.70527 0.0
O146 O 0.09747 0.52362 0.73717 0.0
C147 C 0.26636 0.54884 0.7683 0.0
C148 C 0.17654 0.34083 0.78529 0.0
C149 C 0.07535 0.48936 0.77043 0.0
O150 O 0.22722 0.48917 0.78161 0.0
O151 O 0.25526 0.57425 0.7365 0.0
O152 O 0.06886 0.33986 0.73151 0.0
O153 O 0.14443 0.4366 0.7057 0.0
Co154 Co 0.79833 0.15462 0.11599 0.0
O155 O 0.89074 0.20709 0.1085 0.0
O156 O 0.84177 0.14793 0.16458 0.0
C157 C 0.77331 0.10183 0.05405 0.0
O158 O 0.70321 0.09525 0.13442 0.0
Co159 Co 0.71301 0.18419 0.05747 0.0
O160 O 0.64099 0.10991 0.0884 0.0
C161 C 0.77065 0.26621 0.13292 0.0
C162 C 0.89591 0.18845 0.14548 0.0
C163 C 0.64767 0.08309 0.12098 0.0
O164 O 0.80044 0.23503 0.1404 0.0
O165 O 0.73471 0.2546 0.10102 0.0
O166 O 0.79269 0.08033 0.08463 0.0
O167 O 0.7775 0.15893 0.06029 0.0
C168 C 0.21031 0.60754 0.14208 0.0
C169 C 0.25983 0.67636 0.14395 0.0
C170 C 0.31893 0.65059 0.19441 0.0
C171 C 0.2654 0.58397 0.19765 0.0
N172 N 0.1556 0.50024 0.17802 0.0
N173 N 0.35175 0.76541 0.18104 0.0
C174 C 0.20983 0.56223 0.1721 0.0
C175 C 0.31147 0.69855 0.17267 0.0
N176 N 0.16362 0.58591 0.11215 0.0
N177 N 0.37769 0.66794 0.21107 0.0
H178 H 0.34632 0.80272 0.16748 0.0
H179 H 0.38612 0.78307 0.20477 0.0
H180 H 0.38634 0.63334 0.22563 0.0
H181 H 0.41951 0.71472 0.20603 0.0
H182 H 0.12971 0.53531 0.1067 0.0
H183 H 0.16195 0.61862 0.09071 0.0
H184 H 0.11173 0.48439 0.16308 0.0
H185 H 0.15255 0.46658 0.20054 0.0
C186 C 0.60432 0.17423 0.47092 0.0
C187 C 0.66604 0.23444 0.46978 0.0
C188 C 0.61736 0.29997 0.49049 0.0
C189 C 0.55591 0.23972 0.49083 0.0
N190 N 0.48778 0.12373 0.47059 0.0
N191 N 0.7306 0.35584 0.47056 0.0
C192 C 0.54843 0.17817 0.47744 0.0
C193 C 0.67237 0.29786 0.47715 0.0
N194 N 0.59939 0.11307 0.46847 0.0
N195 N 0.62317 0.35861 0.50398 0.0
H196 H 0.772 0.356 0.46122 0.0
H197 H 0.73695 0.40366 0.47122 0.0
H198 H 0.58317 0.36228 0.51169 0.0
H199 H 0.6674 0.40272 0.50929 0.0
H200 H 0.55643 0.06748 0.47362 0.0
H201 H 0.63949 0.108 0.46523 0.0
H202 H 0.47927 0.07908 0.45721 0.0
H203 H 0.44592 0.12574 0.47431 0.0
C204 C 0.43355 0.64299 0.81841 0.0
C205 C 0.42738 0.69077 0.84228 0.0
C206 C 0.31249 0.63464 0.82397 0.0
C207 C 0.32121 0.59405 0.79528 0.0
N208 N 0.38891 0.55856 0.76376 0.0
N209 N 0.36296 0.73937 0.86136 0.0
C210 C 0.38144 0.59763 0.79217 0.0
C211 C 0.36726 0.68831 0.84371 0.0
N212 N 0.48837 0.63989 0.82179 0.0
N213 N 0.25155 0.62132 0.83284 0.0
H214 H 0.40191 0.78197 0.87471 0.0
H215 H 0.32199 0.74319 0.8588 0.0
H216 H 0.20995 0.5816 0.81934 0.0
H217 H 0.24177 0.64494 0.85675 0.0
H218 H 0.49381 0.60264 0.80802 0.0
H219 H 0.52667 0.67148 0.84143 0.0
H220 H 0.43336 0.56371 0.75677 0.0
H221 H 0.35081 0.52322 0.74531 0.0
C222 C 0.76466 0.4115 0.18076 0.0
C223 C 0.76937 0.40143 0.22387 0.0
C224 C 0.76931 0.29898 0.20752 0.0
C225 C 0.77427 0.31464 0.16442 0.0
N226 N 0.79636 0.39844 0.11209 0.0
N227 N 0.79638 0.34579 0.27655 0.0
C228 C 0.77827 0.37497 0.15162 0.0
C229 C 0.77811 0.34841 0.23681 0.0
N230 N 0.74333 0.45238 0.16727 0.0
N231 N 0.75204 0.23601 0.22085 0.0
H232 H 0.80732 0.3833 0.29841 0.0
H233 H 0.8082 0.3106 0.28606 0.0
H234 H 0.73849 0.19554 0.20094 0.0
H235 H 0.74304 0.22194 0.25199 0.0
H236 H 0.73463 0.45648 0.13604 0.0
H237 H 0.72636 0.47519 0.18715 0.0
H238 H 0.80481 0.44525 0.10268 0.0
H239 H 0.81045 0.37517 0.09042 0.0
C240 C 0.43094 0.77677 0.45373 0.0
C241 C 0.42827 0.73217 0.48442 0.0
C242 C 0.31132 0.68457 0.49053 0.0
C243 C 0.31783 0.74042 0.46795 0.0
N244 N 0.38986 0.8475 0.43423 0.0
N245 N 0.36525 0.64047 0.53144 0.0
C246 C 0.37909 0.7884 0.4507 0.0
C247 C 0.36808 0.68493 0.50262 0.0
N248 N 0.48238 0.80754 0.4273 0.0
N249 N 0.25135 0.63005 0.49886 0.0
H250 H 0.40502 0.63587 0.53814 0.0
H251 H 0.32449 0.61042 0.54962 0.0
H252 H 0.20852 0.62589 0.48858 0.0
H253 H 0.24426 0.58575 0.51194 0.0
H254 H 0.48406 0.83702 0.40239 0.0
H255 H 0.51936 0.79694 0.4275 0.0
H256 H 0.43567 0.88587 0.42475 0.0
H257 H 0.35565 0.86196 0.43469 0.0
C258 C 0.5593 0.3961 0.83274 0.0
C259 C 0.54208 0.32803 0.83423 0.0
C260 C 0.62217 0.34897 0.78138 0.0
C261 C 0.63515 0.41551 0.77584 0.0
N262 N 0.60388 0.49674 0.79073 0.0
N263 N 0.53922 0.23566 0.79778 0.0
C264 C 0.60025 0.4377 0.80004 0.0
C265 C 0.5676 0.30309 0.80463 0.0
N266 N 0.53662 0.42083 0.86225 0.0
N267 N 0.66394 0.33011 0.76754 0.0
H268 H 0.49684 0.2001 0.81266 0.0
H269 H 0.55395 0.21615 0.77397 0.0
H270 H 0.7092 0.3634 0.7548 0.0
H271 H 0.65744 0.28309 0.77426 0.0
H272 H 0.55264 0.47179 0.86504 0.0
H273 H 0.50506 0.39075 0.88575 0.0
H274 H 0.57537 0.51261 0.80498 0.0
H275 H 0.63016 0.52602 0.76551 0.0
C276 C 0.57564 0.56116 0.25728 0.0
C277 C 0.58438 0.50595 0.26309 0.0
C278 C 0.46631 0.42773 0.26126 0.0
C279 C 0.4575 0.48307 0.25636 0.0
N280 N 0.5033 0.59817 0.23479 0.0
N281 N 0.5401 0.38679 0.25534 0.0
C282 C 0.51226 0.54838 0.24922 0.0
C283 C 0.53019 0.43919 0.2598 0.0
N284 N 0.62649 0.62558 0.26228 0.0
N285 N 0.41476 0.36522 0.27026 0.0
H286 H 0.58646 0.39407 0.25317 0.0
H287 H 0.50282 0.33762 0.24932 0.0
H288 H 0.36721 0.35438 0.27182 0.0
H289 H 0.41983 0.32511 0.27911 0.0
H290 H 0.62098 0.66711 0.2633 0.0
H291 H 0.67362 0.6374 0.26839 0.0
H292 H 0.5413 0.64537 0.22572 0.0
H293 H 0.45738 0.58933 0.22761 0.0
C294 C 0.06407 0.52345 0.42196 0.0
C295 C 0.03623 0.56412 0.41985 0.0
C296 C 0.92858 0.46279 0.41076 0.0
C297 C 0.95508 0.42239 0.42064 0.0
N298 N 0.04779 0.41287 0.43514 0.0
N299 N 0.94253 0.57416 0.41217 0.0
C300 C 0.02296 0.45234 0.4256 0.0
C301 C 0.96864 0.53428 0.41356 0.0
N302 N 0.12992 0.55314 0.42013 0.0
N303 N 0.86518 0.4327 0.39888 0.0
H304 H 0.97099 0.62662 0.41261 0.0
H305 H 0.89292 0.55555 0.41262 0.0
H306 H 0.83493 0.3806 0.39647 0.0
H307 H 0.8441 0.45905 0.38793 0.0
H308 H 0.1535 0.52641 0.41807 0.0
H309 H 0.16093 0.60504 0.41684 0.0
H310 H 0.09558 0.43194 0.4443 0.0
H311 H 0.01941 0.36042 0.43583 0.0
C312 C 0.53358 0.08921 0.84728 0.0
C313 C 0.46473 0.05864 0.8481 0.0
C314 C 0.45187 0.95115 0.82797 0.0
C315 C 0.51898 0.97956 0.83483 0.0
N316 N 0.62471 0.0774 0.82871 0.0
N317 N 0.36069 0.96823 0.82457 0.0
C318 C 0.56029 0.04961 0.8366 0.0
C319 C 0.42445 0.99216 0.83292 0.0
N320 N 0.57316 0.15465 0.85933 0.0
N321 N 0.41506 0.88444 0.81831 0.0
H322 H 0.34055 0.99829 0.82666 0.0
H323 H 0.32889 0.92069 0.81249 0.0
H324 H 0.43647 0.85615 0.81228 0.0
H325 H 0.36477 0.85756 0.81611 0.0
H326 H 0.62279 0.1768 0.86415 0.0
H327 H 0.55594 0.18621 0.86656 0.0
H328 H 0.6575 0.12905 0.82684 0.0
H329 H 0.64331 0.04788 0.81917 0.0
C330 C 0.4574 0.52214 0.58417 0.0
C331 C 0.52522 0.56529 0.5781 0.0
C332 C 0.53761 0.46666 0.57826 0.0
C333 C 0.46917 0.42379 0.57659 0.0
N334 N 0.36301 0.4093 0.57778 0.0
N335 N 0.63106 0.58 0.57104 0.0
C336 C 0.4288 0.45115 0.58004 0.0
C337 C 0.56574 0.53783 0.5762 0.0
N338 N 0.42031 0.54892 0.59373 0.0
N339 N 0.57557 0.43919 0.5815 0.0
H340 H 0.65352 0.63229 0.57243 0.0
H341 H 0.66269 0.56366 0.56388 0.0
H342 H 0.55644 0.3874 0.5826 0.0
H343 H 0.6254 0.46726 0.58647 0.0
H344 H 0.37164 0.52014 0.60205 0.0
H345 H 0.43957 0.60038 0.59732 0.0
H346 H 0.33092 0.42621 0.57453 0.0
H347 H 0.34048 0.35697 0.57704 0.0
C348 C 0.98042 0.5695 0.79921 0.0
C349 C 0.91891 0.51257 0.79055 0.0
C350 C 0.96371 0.44031 0.80116 0.0
C351 C 0.02604 0.49718 0.79334 0.0
N352 N 0.09659 0.61774 0.79558 0.0
N353 N 0.84731 0.39308 0.7967 0.0
C354 C 0.03537 0.5626 0.79675 0.0
C355 C 0.909 0.44751 0.79682 0.0
N356 N 0.98612 0.62914 0.80977 0.0
N357 N 0.95692 0.38038 0.81235 0.0
H358 H 0.80719 0.39878 0.79671 0.0
H359 H 0.83604 0.34334 0.79589 0.0
H360 H 0.99649 0.37518 0.81816 0.0
H361 H 0.9128 0.33796 0.82027 0.0
H362 H 0.02969 0.67158 0.81859 0.0
H363 H 0.94578 0.63343 0.81472 0.0
H364 H 0.10657 0.66688 0.79269 0.0
H365 H 0.13749 0.61353 0.79616 0.0
C366 C 0.47779 0.02051 0.15342 0.0
C367 C 0.45147 0.95445 0.13753 0.0
C368 C 0.55961 0.96868 0.14134 0.0
C369 C 0.58669 0.03853 0.14393 0.0
N370 N 0.57468 0.13165 0.16143 0.0
N371 N 0.46749 0.86279 0.11939 0.0
C372 C 0.54649 0.06434 0.15395 0.0
C373 C 0.49222 0.92707 0.13342 0.0
N374 N 0.43761 0.04162 0.16672 0.0
N375 N 0.59852 0.94276 0.14586 0.0
H376 H 0.41838 0.82995 0.11352 0.0
H377 H 0.49627 0.84333 0.11121 0.0
H378 H 0.64756 0.9734 0.15321 0.0
H379 H 0.581 0.89133 0.14712 0.0
H380 H 0.45387 0.088 0.18078 0.0
H381 H 0.38741 0.01004 0.16726 0.0
H382 H 0.54909 0.15621 0.16418 0.0
H383 H 0.62493 0.16321 0.16384 0.0
C384 C 0.21786 0.30014 0.37757 0.0
C385 C 0.25494 0.36801 0.36508 0.0
C386 C 0.33216 0.39116 0.4211 0.0
C387 C 0.3031 0.32051 0.42645 0.0
N388 N 0.21899 0.20674 0.40888 0.0
N389 N 0.32874 0.48208 0.38601 0.0
C390 C 0.24508 0.27462 0.40531 0.0
C391 C 0.30674 0.41527 0.39028 0.0
N392 N 0.15627 0.26068 0.36277 0.0
N393 N 0.38357 0.43436 0.4455 0.0
H394 H 0.3021 0.49828 0.36978 0.0
H395 H 0.36808 0.52056 0.40184 0.0
H396 H 0.4004 0.4178 0.46978 0.0
H397 H 0.40975 0.4864 0.44225 0.0
H398 H 0.12431 0.21184 0.37311 0.0
H399 H 0.13515 0.28048 0.34381 0.0
H400 H 0.18076 0.17151 0.39059 0.0
H401 H 0.23908 0.18553 0.42738 0.0
C402 C 0.03185 0.3654 0.58863 0.0
C403 C 0.96376 0.32799 0.59449 0.0
C404 C 0.97951 0.3426 0.66939 0.0
C405 C 0.04695 0.36949 0.66395 0.0
N406 N 0.13589 0.39568 0.61741 0.0
N407 N 0.87269 0.26923 0.64133 0.0
C408 C 0.0731 0.37863 0.62329 0.0
C409 C 0.93737 0.31364 0.63508 0.0
N410 N 0.05719 0.38956 0.55019 0.0
N411 N 0.95558 0.34609 0.70707 0.0
H412 H 0.83998 0.24375 0.61735 0.0
H413 H 0.85273 0.25212 0.67068 0.0
H414 H 0.98505 0.36877 0.73276 0.0
H415 H 0.90774 0.33336 0.71148 0.0
H416 H 0.10653 0.42263 0.54503 0.0
H417 H 0.02835 0.38236 0.5243 0.0
H418 H 0.15482 0.3961 0.58828 0.0
H419 H 0.16736 0.40259 0.64161 0.0
C420 C 0.72835 0.04997 0.9407 0.0
C421 C 0.69699 0.97873 0.94409 0.0
C422 C 0.70446 0.98963 0.01952 0.0
C423 C 0.74474 0.06064 0.01597 0.0
N424 N 0.80699 0.15685 0.9711 0.0
N425 N 0.67329 0.88353 0.98748 0.0
C426 C 0.76008 0.09062 0.97598 0.0
C427 C 0.69013 0.94922 0.9837 0.0
N428 N 0.72595 0.07914 0.90455 0.0
N429 N 0.67754 0.96041 0.0567 0.0
H430 H 0.6679 0.85319 0.96215 0.0
H431 H 0.67306 0.86205 0.01593 0.0
H432 H 0.68309 0.98837 0.08321 0.0
H433 H 0.64327 0.90922 0.05975 0.0
H434 H 0.74261 0.13032 0.90208 0.0
H435 H 0.701 0.05149 0.87848 0.0
H436 H 0.82386 0.17882 0.94207 0.0
H437 H 0.83417 0.18791 0.99564 0.0
C438 C 0.76142 0.72424 0.41262 0.0
C439 C 0.70372 0.6747 0.43258 0.0
C440 C 0.71805 0.58537 0.40424 0.0
C441 C 0.76854 0.63431 0.37894 0.0
N442 N 0.85775 0.74832 0.37458 0.0
N443 N 0.6285 0.5587 0.45068 0.0
C444 C 0.79648 0.70334 0.38821 0.0
C445 C 0.68263 0.60528 0.42965 0.0
N446 N 0.78018 0.79074 0.41439 0.0
N447 N 0.70767 0.52192 0.40644 0.0
H448 H 0.60396 0.57194 0.47156 0.0
H449 H 0.60614 0.507 0.44626 0.0
H450 H 0.74 0.50997 0.39364 0.0
H451 H 0.67357 0.48429 0.42575 0.0
H452 H 0.81739 0.82787 0.39637 0.0
H453 H 0.75549 0.80863 0.43136 0.0
H454 H 0.88366 0.79883 0.38318 0.0
H455 H 0.88541 0.73288 0.35857 0.0
C456 C 0.94865 0.62247 0.57816 0.0
C457 C 0.01533 0.65874 0.58872 0.0
C458 C 0.98699 0.65323 0.66192 0.0
C459 C 0.92143 0.62835 0.6506 0.0
N460 N 0.84137 0.59765 0.59635 0.0
N461 N 0.099 0.71688 0.64047 0.0
C462 C 0.90226 0.61428 0.60832 0.0
C463 C 0.03495 0.67571 0.63059 0.0
N464 N 0.92967 0.59533 0.53938 0.0
N465 N 0.00352 0.65423 0.70255 0.0
H466 H 0.13619 0.73598 0.61864 0.0
H467 H 0.11485 0.7371 0.67 0.0
H468 H 0.96991 0.63779 0.7265 0.0
H469 H 0.04914 0.66472 0.71197 0.0
H470 H 0.88134 0.56301 0.53115 0.0
H471 H 0.96254 0.5994 0.51683 0.0
H472 H 0.82756 0.59404 0.56538 0.0
H473 H 0.80636 0.59389 0.61688 0.0
C474 C 0.31832 0.03112 0.0413 0.0
C475 C 0.27732 0.96082 0.03435 0.0
C476 C 0.28245 0.9827 0.95994 0.0
C477 C 0.31234 0.05289 0.96769 0.0
N478 N 0.34555 0.14162 0.01866 0.0
N479 N 0.20748 0.87192 0.98643 0.0
C480 C 0.3269 0.07674 0.00918 0.0
C481 C 0.25577 0.93699 0.99349 0.0
N482 N 0.35114 0.0547 0.07784 0.0
N483 N 0.28152 0.95924 0.92096 0.0
H484 H 0.1825 0.83746 0.01007 0.0
H485 H 0.18689 0.85472 0.9572 0.0
H486 H 0.30471 0.99089 0.89588 0.0
H487 H 0.26504 0.9088 0.91487 0.0
H488 H 0.38585 0.10533 0.08269 0.0
H489 H 0.34978 0.02304 0.10115 0.0
H490 H 0.35091 0.15881 0.04913 0.0
H491 H 0.34816 0.17596 0.99684 0.0
C492 C 0.01587 0.23319 0.13921 0.0
C493 C 0.96113 0.21526 0.16485 0.0
C494 C 0.03323 0.25041 0.22485 0.0
C495 C 0.08839 0.2844 0.19868 0.0
N496 N 0.12936 0.31465 0.12837 0.0
N497 N 0.92342 0.22307 0.23348 0.0
C498 C 0.0793 0.27732 0.15503 0.0
C499 C 0.97096 0.22768 0.2082 0.0
N500 N 0.00783 0.20676 0.10029 0.0
N501 N 0.03997 0.23896 0.26553 0.0
H502 H 0.87911 0.21447 0.22279 0.0
H503 H 0.93169 0.23701 0.26468 0.0
H504 H 0.08438 0.25003 0.27788 0.0
H505 H 0.00034 0.2105 0.28498 0.0
H506 H 0.04676 0.21498 0.08184 0.0
H507 H 0.96274 0.16976 0.08886 0.0
H508 H 0.12254 0.31507 0.09645 0.0
H509 H 0.17608 0.35001 0.13803 0.0
C510 C 0.79094 0.03257 0.52338 0.0
C511 C 0.77086 0.06544 0.49513 0.0
C512 C 0.67293 0.95741 0.48029 0.0
C513 C 0.6953 0.92301 0.50481 0.0
N514 N 0.78277 0.92798 0.54417 0.0
N515 N 0.7029 0.05405 0.43726 0.0
C516 C 0.75625 0.96058 0.52513 0.0
C517 C 0.71517 0.02626 0.47053 0.0
N518 N 0.84368 0.07006 0.54819 0.0
N519 N 0.60978 0.92494 0.46806 0.0
H520 H 0.73489 0.10334 0.42801 0.0
H521 H 0.66522 0.02593 0.41644 0.0
H522 H 0.57664 0.87676 0.47873 0.0
H523 H 0.58922 0.9489 0.45277 0.0
H524 H 0.85579 0.04989 0.57295 0.0
H525 H 0.87396 0.12204 0.54496 0.0
H526 H 0.83011 0.95256 0.55538 0.0
H527 H 0.75933 0.87576 0.54604 0.0
C528 C 0.79156 0.77848 0.78266 0.0
C529 C 0.74987 0.71701 0.76176 0.0
C530 C 0.66258 0.74204 0.76367 0.0
C531 C 0.70073 0.7963 0.79095 0.0
N532 N 0.80141 0.86755 0.82691 0.0
N533 N 0.64429 0.63989 0.73153 0.0
C534 C 0.76532 0.81508 0.80044 0.0
C535 C 0.6854 0.69928 0.75122 0.0
N536 N 0.85685 0.8036 0.78367 0.0
N537 N 0.60407 0.73072 0.75001 0.0
H538 H 0.65823 0.60825 0.71902 0.0
H539 H 0.59445 0.61936 0.72943 0.0
H540 H 0.58371 0.75819 0.76019 0.0
H541 H 0.57766 0.69754 0.72611 0.0
H542 H 0.89052 0.85113 0.79508 0.0
H543 H 0.87832 0.7802 0.7688 0.0
H544 H 0.84544 0.878 0.83946 0.0
H545 H 0.78578 0.89895 0.83793 0.0
C546 C 0.97267 0.66365 0.18946 0.0
C547 C 0.95377 0.69659 0.21798 0.0
C548 C 0.05888 0.80161 0.20895 0.0
C549 C 0.07975 0.76687 0.18326 0.0
N550 N 0.06161 0.66098 0.15716 0.0
N551 N 0.98065 0.79396 0.25947 0.0
C552 C 0.03795 0.69682 0.17564 0.0
C553 C 0.99753 0.76472 0.2292 0.0
N554 N 0.92823 0.60057 0.17545 0.0
N555 N 0.09613 0.87005 0.21251 0.0
H556 H 0.93502 0.76958 0.27343 0.0
H557 H 0.01304 0.84067 0.2725 0.0
H558 H 0.14104 0.89871 0.19803 0.0
H559 H 0.08043 0.89902 0.22708 0.0
H560 H 0.9374 0.577 0.15123 0.0
H561 H 0.88019 0.57401 0.18541 0.0
H562 H 0.03541 0.60871 0.15471 0.0
H563 H 0.10989 0.68248 0.14831 0.0
C564 C 0.29139 0.95916 0.50971 0.0
C565 C 0.22654 0.92139 0.49501 0.0
C566 C 0.22522 0.02631 0.48962 0.0
C567 C 0.28874 0.06305 0.50676 0.0
N568 N 0.37299 0.06022 0.54451 0.0
N569 N 0.12712 0.91774 0.47869 0.0
C570 C 0.31902 0.02815 0.52024 0.0
C571 C 0.19216 0.9546 0.48674 0.0
N572 N 0.32737 0.9294 0.51267 0.0
N573 N 0.19601 0.0601 0.47671 0.0
H574 H 0.10079 0.86544 0.47666 0.0
H575 H 0.09796 0.93847 0.47715 0.0
H576 H 0.21502 0.11089 0.48332 0.0
H577 H 0.15418 0.03839 0.45862 0.0
H578 H 0.37687 0.95609 0.51909 0.0
H579 H 0.30926 0.87933 0.50446 0.0
H580 H 0.39473 0.03616 0.55808 0.0
H581 H 0.3906 0.10877 0.55532 0.0
C582 C 0.17463 0.23259 0.7936 0.0
C583 C 0.2042 0.30234 0.80222 0.0
C584 C 0.29905 0.3049 0.83061 0.0
C585 C 0.26674 0.23383 0.82655 0.0
N586 N 0.17088 0.12827 0.80857 0.0
N587 N 0.28943 0.40306 0.83494 0.0
C588 C 0.20378 0.19702 0.80897 0.0
C589 C 0.26479 0.33788 0.82266 0.0
N590 N 0.11918 0.20067 0.77044 0.0
N591 N 0.36356 0.3414 0.84024 0.0
H592 H 0.26575 0.42914 0.82972 0.0
H593 H 0.3302 0.42918 0.85378 0.0
H594 H 0.39119 0.31945 0.84474 0.0
H595 H 0.39133 0.39377 0.83923 0.0
H596 H 0.0992 0.15185 0.75916 0.0
H597 H 0.09517 0.22463 0.76031 0.0
H598 H 0.12225 0.09841 0.80033 0.0
H599 H 0.19096 0.10074 0.81929 0.0
loop_
_geom_bond_atom_site_label_1
_geom_bond_atom_site_label_2
_geom_bond_distance
_geom_bond_site_symmetry_2
_ccdc_geom_bond_type
Co0 O1 2.216 . S
Co0 O2 2.091 . S
Co0 O4 2.004 . S
Co0 O10 2.021 . S
Co0 O12 2.137 . S
Co0 O13 2.244 . S
O1 Co0 2.216 . S
O1 C8 1.247 . S
O2 Co0 2.091 . S
O2 C8 1.261 . S
C3 O12 1.247 . S
C3 O13 1.272 . S
O4 Co0 2.004 . S
O4 C9 1.259 . S
Co5 O6 2.061 . S
Co5 O11 2.052 . S
Co5 O13 2.135 . S
O6 Co5 2.061 . S
O6 C9 1.235 . S
C7 O10 1.238 . S
C7 O11 1.241 . S
C8 O1 1.247 . S
C8 O2 1.261 . S
C9 O4 1.259 . S
C9 O6 1.235 . S
O10 Co0 2.021 . S
O10 C7 1.238 . S
O11 Co5 2.052 . S
O11 C7 1.241 . S
O12 Co0 2.137 . S
O12 C3 1.247 . S
O13 Co0 2.244 . S
O13 C3 1.272 . S
O13 Co5 2.135 . S
Co14 O15 2.216 . S
Co14 O16 2.091 . S
Co14 O18 2.004 . S
Co14 O24 2.021 . S
Co14 O26 2.137 . S
Co14 O27 2.244 . S
O15 Co14 2.216 . S
O15 C22 1.247 . S
O16 Co14 2.091 . S
O16 C22 1.261 . S
C17 O26 1.247 . S
C17 O27 1.272 . S
O18 Co14 2.004 . S
O18 C23 1.259 . S
Co19 O20 2.061 . S
Co19 O25 2.052 . S
Co19 O27 2.135 . S
O20 Co19 2.061 . S
O20 C23 1.235 . S
C21 O24 1.238 . S
C21 O25 1.241 . S
C22 O15 1.247 . S
C22 O16 1.261 . S
C23 O18 1.259 . S
C23 O20 1.235 . S
O24 Co14 2.021 . S
O24 C21 1.238 . S
O25 Co19 2.052 . S
O25 C21 1.241 . S
O26 Co14 2.137 . S
O26 C17 1.247 . S
O27 Co14 2.244 . S
O27 C17 1.272 . S
O27 Co19 2.135 . S
Co28 O29 2.216 . S
Co28 O30 2.091 . S
Co28 O32 2.004 . S
Co28 O38 2.021 . S
Co28 O40 2.137 . S
Co28 O41 2.244 . S
O29 Co28 2.216 . S
O29 C36 1.247 . S
O30 Co28 2.091 . S
O30 C36 1.261 . S
C31 O40 1.247 . S
C31 O41 1.272 . S
O32 Co28 2.004 . S
O32 C37 1.259 . S
Co33 O34 2.061 . S
Co33 O39 2.052 . S
Co33 O41 2.135 . S
O34 Co33 2.061 . S
O34 C37 1.235 . S
C35 O38 1.238 . S
C35 O39 1.241 . S
C36 O29 1.247 . S
C36 O30 1.261 . S
C37 O32 1.259 . S
C37 O34 1.235 . S
O38 Co28 2.021 . S
O38 C35 1.238 . S
O39 Co33 2.052 . S
O39 C35 1.241 . S
O40 Co28 2.137 . S
O40 C31 1.247 . S
O41 Co28 2.244 . S
O41 C31 1.272 . S
O41 Co33 2.135 . S
Co42 O43 2.216 . S
Co42 O44 2.091 . S
Co42 O46 2.004 . S
Co42 O52 2.021 . S
Co42 O54 2.137 . S
Co42 O55 2.244 . S
O43 Co42 2.216 . S
O43 C50 1.247 . S
O44 Co42 2.091 . S
O44 C50 1.261 . S
C45 O54 1.247 . S
C45 O55 1.272 . S
O46 Co42 2.004 . S
O46 C51 1.259 . S
Co47 O48 2.061 . S
Co47 O53 2.052 . S
Co47 O55 2.135 . S
O48 Co47 2.061 . S
O48 C51 1.235 . S
C49 O52 1.238 . S
C49 O53 1.241 . S
C50 O43 1.247 . S
C50 O44 1.261 . S
C51 O46 1.259 . S
C51 O48 1.235 . S
O52 Co42 2.021 . S
O52 C49 1.238 . S
O53 Co47 2.052 . S
O53 C49 1.241 . S
O54 Co42 2.137 . S
O54 C45 1.247 . S
O55 Co42 2.244 . S
O55 C45 1.272 . S
O55 Co47 2.135 . S
Co56 O57 2.216 . S
Co56 O58 2.091 . S
Co56 O60 2.004 . S
Co56 O66 2.021 . S
Co56 O68 2.137 . S
Co56 O69 2.244 . S
O57 Co56 2.216 . S
O57 C64 1.247 . S
O58 Co56 2.091 . S
O58 C64 1.261 . S
C59 O68 1.247 . S
C59 O69 1.272 . S
O60 Co56 2.004 . S
O60 C65 1.259 . S
Co61 O62 2.061 . S
Co61 O67 2.052 . S
Co61 O69 2.135 . S
O62 Co61 2.061 . S
O62 C65 1.235 . S
C63 O66 1.238 . S
C63 O67 1.241 . S
C64 O57 1.247 . S
C64 O58 1.261 . S
C65 O60 1.259 . S
C65 O62 1.235 . S
O66 Co56 2.021 . S
O66 C63 1.238 . S
O67 Co61 2.052 . S
O67 C63 1.241 . S
O68 Co56 2.137 . S
O68 C59 1.247 . S
O69 Co56 2.244 . S
O69 C59 1.272 . S
O69 Co61 2.135 . S
Co70 O71 2.216 . S
Co70 O72 2.091 . S
Co70 O74 2.004 . S
Co70 O80 2.021 . S
Co70 O82 2.137 . S
Co70 O83 2.244 . S
O71 Co70 2.216 . S
O71 C78 1.247 . S
O72 Co70 2.091 . S
O72 C78 1.261 . S
C73 O82 1.247 . S
C73 O83 1.272 . S
O74 Co70 2.004 . S
O74 C79 1.259 . S
Co75 O76 2.061 . S
Co75 O81 2.052 . S
Co75 O83 2.135 . S
O76 Co75 2.061 . S
O76 C79 1.235 . S
C77 O80 1.238 . S
C77 O81 1.241 . S
C78 O71 1.247 . S
C78 O72 1.261 . S
C79 O74 1.259 . S
C79 O76 1.235 . S
O80 Co70 2.021 . S
O80 C77 1.238 . S
O81 Co75 2.052 . S
O81 C77 1.241 . S
O82 Co70 2.137 . S
O82 C73 1.247 . S
O83 Co70 2.244 . S
O83 C73 1.272 . S
O83 Co75 2.135 . S
Co84 O85 2.216 . S
Co84 O86 2.091 . S
Co84 O88 2.004 . S
Co84 O94 2.021 . S
Co84 O96 2.137 . S
Co84 O97 2.244 . S
O85 Co84 2.216 . S
O85 C92 1.247 . S
O86 Co84 2.091 . S
O86 C92 1.261 . S
C87 O96 1.247 . S
C87 O97 1.272 . S
O88 Co84 2.004 . S
O88 C93 1.259 . S
Co89 O90 2.061 . S
Co89 O95 2.052 . S
Co89 O97 2.135 . S
O90 Co89 2.061 . S
O90 C93 1.235 . S
C91 O94 1.238 . S
C91 O95 1.241 . S
C92 O85 1.247 . S
C92 O86 1.261 . S
C93 O88 1.259 . S
C93 O90 1.235 . S
O94 Co84 2.021 . S
O94 C91 1.238 . S
O95 Co89 2.052 . S
O95 C91 1.241 . S
O96 Co84 2.137 . S
O96 C87 1.247 . S
O97 Co84 2.244 . S
O97 C87 1.272 . S
O97 Co89 2.135 . S
Co98 O99 2.216 . S
Co98 O100 2.091 . S
Co98 O102 2.004 . S
Co98 O108 2.021 . S
Co98 O110 2.137 . S
Co98 O111 2.244 . S
O99 Co98 2.216 . S
O99 C106 1.247 . S
O100 Co98 2.091 . S
O100 C106 1.261 . S
C101 O110 1.247 . S
C101 O111 1.272 . S
O102 Co98 2.004 . S
O102 C107 1.259 . S
Co103 O104 2.061 . S
Co103 O109 2.052 . S
Co103 O111 2.135 . S
O104 Co103 2.061 . S
O104 C107 1.235 . S
C105 O108 1.238 . S
C105 O109 1.241 . S
C106 O99 1.247 . S
C106 O100 1.261 . S
C107 O102 1.259 . S
C107 O104 1.235 . S
O108 Co98 2.021 . S
O108 C105 1.238 . S
O109 Co103 2.052 . S
O109 C105 1.241 . S
O110 Co98 2.137 . S
O110 C101 1.247 . S
O111 Co98 2.244 . S
O111 C101 1.272 . S
O111 Co103 2.135 . S
Co112 O113 2.216 . S
Co112 O114 2.091 . S
Co112 O116 2.004 . S
Co112 O122 2.021 . S
Co112 O124 2.137 . S
Co112 O125 2.244 . S
O113 Co112 2.216 . S
O113 C120 1.247 . S
O114 Co112 2.091 . S
O114 C120 1.261 . S
C115 O124 1.247 . S
C115 O125 1.272 . S
O116 Co112 2.004 . S
O116 C121 1.259 . S
Co117 O118 2.061 . S
Co117 O123 2.052 . S
Co117 O125 2.135 . S
O118 Co117 2.061 . S
O118 C121 1.235 . S
C119 O122 1.238 . S
C119 O123 1.241 . S
C120 O113 1.247 . S
C120 O114 1.261 . S
C121 O116 1.259 . S
C121 O118 1.235 . S
O122 Co112 2.021 . S
O122 C119 1.238 . S
O123 Co117 2.052 . S
O123 C119 1.241 . S
O124 Co112 2.137 . S
O124 C115 1.247 . S
O125 Co112 2.244 . S
O125 C115 1.272 . S
O125 Co117 2.135 . S
Co126 O127 2.216 . S
Co126 O128 2.091 . S
Co126 O130 2.004 . S
Co126 O136 2.021 . S
Co126 O138 2.137 . S
Co126 O139 2.244 . S
O127 Co126 2.216 . S
O127 C134 1.247 . S
O128 Co126 2.091 . S
O128 C134 1.261 . S
C129 O138 1.247 . S
C129 O139 1.272 . S
O130 Co126 2.004 . S
O130 C135 1.259 . S
Co131 O132 2.061 . S
Co131 O137 2.052 . S
Co131 O139 2.135 . S
O132 Co131 2.061 . S
O132 C135 1.235 . S
C133 O136 1.238 . S
C133 O137 1.241 . S
C134 O127 1.247 . S
C134 O128 1.261 . S
C135 O130 1.259 . S
C135 O132 1.235 . S
O136 Co126 2.021 . S
O136 C133 1.238 . S
O137 Co131 2.052 . S
O137 C133 1.241 . S
O138 Co126 2.137 . S
O138 C129 1.247 . S
O139 Co126 2.244 . S
O139 C129 1.272 . S
O139 Co131 2.135 . S
Co140 O141 2.216 . S
Co140 O142 2.091 . S
Co140 O144 2.004 . S
Co140 O150 2.021 . S
Co140 O152 2.137 . S
Co140 O153 2.244 . S
O141 Co140 2.216 . S
O141 C148 1.247 . S
O142 Co140 2.091 . S
O142 C148 1.261 . S
C143 O152 1.247 . S
C143 O153 1.272 . S
O144 Co140 2.004 . S
O144 C149 1.259 . S
Co145 O146 2.061 . S
Co145 O151 2.052 . S
Co145 O153 2.135 . S
O146 Co145 2.061 . S
O146 C149 1.235 . S
C147 O150 1.238 . S
C147 O151 1.241 . S
C148 O141 1.247 . S
C148 O142 1.261 . S
C149 O144 1.259 . S
C149 O146 1.235 . S
O150 Co140 2.021 . S
O150 C147 1.238 . S
O151 Co145 2.052 . S
O151 C147 1.241 . S
O152 Co140 2.137 . S
O152 C143 1.247 . S
O153 Co140 2.244 . S
O153 C143 1.272 . S
O153 Co145 2.135 . S
Co154 O155 2.216 . S
Co154 O156 2.091 . S
Co154 O158 2.004 . S
Co154 O164 2.021 . S
Co154 O166 2.137 . S
Co154 O167 2.244 . S
O155 Co154 2.216 . S
O155 C162 1.247 . S
O156 Co154 2.091 . S
O156 C162 1.261 . S
C157 O166 1.247 . S
C157 O167 1.272 . S
O158 Co154 2.004 . S
O158 C163 1.259 . S
Co159 O160 2.061 . S
Co159 O165 2.052 . S
Co159 O167 2.135 . S
O160 Co159 2.061 . S
O160 C163 1.235 . S
C161 O164 1.238 . S
C161 O165 1.241 . S
C162 O155 1.247 . S
C162 O156 1.261 . S
C163 O158 1.259 . S
C163 O160 1.235 . S
O164 Co154 2.021 . S
O164 C161 1.238 . S
O165 Co159 2.052 . S
O165 C161 1.241 . S
O166 Co154 2.137 . S
O166 C157 1.247 . S
O167 Co154 2.244 . S
O167 C157 1.272 . S
O167 Co159 2.135 . S
C168 C169 1.363 . S
C168 C174 1.379 . S
C168 N176 1.356 . S
C169 C168 1.363 . S
C169 C175 1.363 . S
C170 C171 1.363 . S
C170 C175 1.379 . S
C170 N177 1.356 . S
C171 C170 1.363 . S
C171 C174 1.363 . S
N172 C174 1.356 . S
N172 H184 0.984 . S
N172 H185 0.985 . S
N173 C175 1.356 . S
N173 H178 0.984 . S
N173 H179 0.985 . S
C174 C168 1.379 . S
C174 C171 1.363 . S
C174 N172 1.356 . S
C175 C169 1.363 . S
C175 C170 1.379 . S
C175 N173 1.356 . S
N176 C168 1.356 . S
N176 H182 0.984 . S
N176 H183 0.984 . S
N177 C170 1.356 . S
N177 H180 0.984 . S
N177 H181 0.985 . S
H178 N173 0.984 . S
H179 N173 0.985 . S
H180 N177 0.984 . S
H181 N177 0.985 . S
H182 N176 0.984 . S
H183 N176 0.984 . S
H184 N172 0.984 . S
H185 N172 0.985 . S
C186 C187 1.363 . S
C186 C192 1.379 . S
C186 N194 1.356 . S
C187 C186 1.363 . S
C187 C193 1.363 . S
C188 C189 1.363 . S
C188 C193 1.379 . S
C188 N195 1.356 . S
C189 C188 1.363 . S
C189 C192 1.363 . S
N190 C192 1.356 . S
N190 H202 0.984 . S
N190 H203 0.985 . S
N191 C193 1.356 . S
N191 H196 0.984 . S
N191 H197 0.985 . S
C192 C186 1.379 . S
C192 C189 1.363 . S
C192 N190 1.356 . S
C193 C187 1.363 . S
C193 C188 1.379 . S
C193 N191 1.356 . S
N194 C186 1.356 . S
N194 H200 0.984 . S
N194 H201 0.984 . S
N195 C188 1.356 . S
N195 H198 0.984 . S
N195 H199 0.985 . S
H196 N191 0.984 . S
H197 N191 0.985 . S
H198 N195 0.984 . S
H199 N195 0.985 . S
H200 N194 0.984 . S
H201 N194 0.984 . S
H202 N190 0.984 . S
H203 N190 0.985 . S
C204 C205 1.363 . S
C204 C210 1.379 . S
C204 N212 1.356 . S
C205 C204 1.363 . S
C205 C211 1.363 . S
C206 C207 1.363 . S
C206 C211 1.379 . S
C206 N213 1.356 . S
C207 C206 1.363 . S
C207 C210 1.363 . S
N208 C210 1.356 . S
N208 H220 0.984 . S
N208 H221 0.985 . S
N209 C211 1.356 . S
N209 H214 0.984 . S
N209 H215 0.985 . S
C210 C204 1.379 . S
C210 C207 1.363 . S
C210 N208 1.356 . S
C211 C205 1.363 . S
C211 C206 1.379 . S
C211 N209 1.356 . S
N212 C204 1.356 . S
N212 H218 0.984 . S
N212 H219 0.984 . S
N213 C206 1.356 . S
N213 H216 0.984 . S
N213 H217 0.985 . S
H214 N209 0.984 . S
H215 N209 0.985 . S
H216 N213 0.984 . S
H217 N213 0.985 . S
H218 N212 0.984 . S
H219 N212 0.984 . S
H220 N208 0.984 . S
H221 N208 0.985 . S
C222 C223 1.363 . S
C222 C228 1.379 . S
C222 N230 1.356 . S
C223 C222 1.363 . S
C223 C229 1.363 . S
C224 C225 1.363 . S
C224 C229 1.379 . S
C224 N231 1.356 . S
C225 C224 1.363 . S
C225 C228 1.363 . S
N226 C228 1.356 . S
N226 H238 0.984 . S
N226 H239 0.985 . S
N227 C229 1.356 . S
N227 H232 0.984 . S
N227 H233 0.985 . S
C228 C222 1.379 . S
C228 C225 1.363 . S
C228 N226 1.356 . S
C229 C223 1.363 . S
C229 C224 1.379 . S
C229 N227 1.356 . S
N230 C222 1.356 . S
N230 H236 0.984 . S
N230 H237 0.984 . S
N231 C224 1.356 . S
N231 H234 0.984 . S
N231 H235 0.985 . S
H232 N227 0.984 . S
H233 N227 0.985 . S
H234 N231 0.984 . S
H235 N231 0.985 . S
H236 N230 0.984 . S
H237 N230 0.984 . S
H238 N226 0.984 . S
H239 N226 0.985 . S
C240 C241 1.363 . S
C240 C246 1.379 . S
C240 N248 1.356 . S
C241 C240 1.363 . S
C241 C247 1.363 . S
C242 C243 1.363 . S
C242 C247 1.379 . S
C242 N249 1.356 . S
C243 C242 1.363 . S
C243 C246 1.363 . S
N244 C246 1.356 . S
N244 H256 0.984 . S
N244 H257 0.985 . S
N245 C247 1.356 . S
N245 H250 0.984 . S
N245 H251 0.985 . S
C246 C240 1.379 . S
C246 C243 1.363 . S
C246 N244 1.356 . S
C247 C241 1.363 . S
C247 C242 1.379 . S
C247 N245 1.356 . S
N248 C240 1.356 . S
N248 H254 0.984 . S
N248 H255 0.984 . S
N249 C242 1.356 . S
N249 H252 0.984 . S
N249 H253 0.985 . S
H250 N245 0.984 . S
H251 N245 0.985 . S
H252 N249 0.984 . S
H253 N249 0.985 . S
H254 N248 0.984 . S
H255 N248 0.984 . S
H256 N244 0.984 . S
H257 N244 0.985 . S
C258 C259 1.363 . S
C258 C264 1.379 . S
C258 N266 1.356 . S
C259 C258 1.363 . S
C259 C265 1.363 . S
C260 C261 1.363 . S
C260 C265 1.379 . S
C260 N267 1.356 . S
C261 C260 1.363 . S
C261 C264 1.363 . S
N262 C264 1.356 . S
N262 H274 0.984 . S
N262 H275 0.985 . S
N263 C265 1.356 . S
N263 H268 0.984 . S
N263 H269 0.985 . S
C264 C258 1.379 . S
C264 C261 1.363 . S
C264 N262 1.356 . S
C265 C259 1.363 . S
C265 C260 1.379 . S
C265 N263 1.356 . S
N266 C258 1.356 . S
N266 H272 0.984 . S
N266 H273 0.984 . S
N267 C260 1.356 . S
N267 H270 0.984 . S
N267 H271 0.985 . S
H268 N263 0.984 . S
H269 N263 0.985 . S
H270 N267 0.984 . S
H271 N267 0.985 . S
H272 N266 0.984 . S
H273 N266 0.984 . S
H274 N262 0.984 . S
H275 N262 0.985 . S
C276 C277 1.363 . S
C276 C282 1.379 . S
C276 N284 1.356 . S
C277 C276 1.363 . S
C277 C283 1.363 . S
C278 C279 1.363 . S
C278 C283 1.379 . S
C278 N285 1.356 . S
C279 C278 1.363 . S
C279 C282 1.363 . S
N280 C282 1.356 . S
N280 H292 0.984 . S
N280 H293 0.985 . S
N281 C283 1.356 . S
N281 H286 0.984 . S
N281 H287 0.985 . S
C282 C276 1.379 . S
C282 C279 1.363 . S
C282 N280 1.356 . S
C283 C277 1.363 . S
C283 C278 1.379 . S
C283 N281 1.356 . S
N284 C276 1.356 . S
N284 H290 0.984 . S
N284 H291 0.984 . S
N285 C278 1.356 . S
N285 H288 0.984 . S
N285 H289 0.985 . S
H286 N281 0.984 . S
H287 N281 0.985 . S
H288 N285 0.984 . S
H289 N285 0.985 . S
H290 N284 0.984 . S
H291 N284 0.984 . S
H292 N280 0.984 . S
H293 N280 0.985 . S
C294 C295 1.363 . S
C294 C300 1.379 . S
C294 N302 1.356 . S
C295 C294 1.363 . S
C295 C301 1.363 1_455 S
C296 C297 1.363 . S
C296 C301 1.379 . S
C296 N303 1.356 . S
C297 C296 1.363 . S
C297 C300 1.363 1_655 S
N298 C300 1.356 . S
N298 H310 0.984 . S
N298 H311 0.985 . S
N299 C301 1.356 . S
N299 H304 0.984 . S
N299 H305 0.985 . S
C300 C294 1.379 . S
C300 C297 1.363 1_455 S
C300 N298 1.356 . S
C301 C295 1.363 1_655 S
C301 C296 1.379 . S
C301 N299 1.356 . S
N302 C294 1.356 . S
N302 H308 0.984 . S
N302 H309 0.984 . S
N303 C296 1.356 . S
N303 H306 0.984 . S
N303 H307 0.985 . S
H304 N299 0.984 . S
H305 N299 0.985 . S
H306 N303 0.984 . S
H307 N303 0.985 . S
H308 N302 0.984 . S
H309 N302 0.984 . S
H310 N298 0.984 . S
H311 N298 0.985 . S
C312 C313 1.363 . S
C312 C318 1.379 . S
C312 N320 1.356 . S
C313 C312 1.363 . S
C313 C319 1.363 1_545 S
C314 C315 1.363 . S
C314 C319 1.379 . S
C314 N321 1.356 . S
C315 C314 1.363 . S
C315 C318 1.363 1_565 S
N316 C318 1.356 . S
N316 H328 0.984 . S
N316 H329 0.985 . S
N317 C319 1.356 . S
N317 H322 0.984 . S
N317 H323 0.985 . S
C318 C312 1.379 . S
C318 C315 1.363 1_545 S
C318 N316 1.356 . S
C319 C313 1.363 1_565 S
C319 C314 1.379 . S
C319 N317 1.356 . S
N320 C312 1.356 . S
N320 H326 0.984 . S
N320 H327 0.984 . S
N321 C314 1.356 . S
N321 H324 0.984 . S
N321 H325 0.985 . S
H322 N317 0.984 . S
H323 N317 0.985 . S
H324 N321 0.984 . S
H325 N321 0.985 . S
H326 N320 0.984 . S
H327 N320 0.984 . S
H328 N316 0.984 . S
H329 N316 0.985 . S
C330 C331 1.363 . S
C330 C336 1.379 . S
C330 N338 1.356 . S
C331 C330 1.363 . S
C331 C337 1.363 . S
C332 C333 1.363 . S
C332 C337 1.379 . S
C332 N339 1.356 . S
C333 C332 1.363 . S
C333 C336 1.363 . S
N334 C336 1.356 . S
N334 H346 0.984 . S
N334 H347 0.985 . S
N335 C337 1.356 . S
N335 H340 0.984 . S
N335 H341 0.985 . S
C336 C330 1.379 . S
C336 C333 1.363 . S
C336 N334 1.356 . S
C337 C331 1.363 . S
C337 C332 1.379 . S
C337 N335 1.356 . S
N338 C330 1.356 . S
N338 H344 0.984 . S
N338 H345 0.984 . S
N339 C332 1.356 . S
N339 H342 0.984 . S
N339 H343 0.985 . S
H340 N335 0.984 . S
H341 N335 0.985 . S
H342 N339 0.984 . S
H343 N339 0.985 . S
H344 N338 0.984 . S
H345 N338 0.984 . S
H346 N334 0.984 . S
H347 N334 0.985 . S
C348 C349 1.363 1_455 S
C348 C354 1.379 . S
C348 N356 1.356 . S
C349 C348 1.363 1_655 S
C349 C355 1.363 . S
C350 C351 1.363 1_655 S
C350 C355 1.379 . S
C350 N357 1.356 . S
C351 C350 1.363 1_455 S
C351 C354 1.363 . S
N352 C354 1.356 . S
N352 H364 0.984 . S
N352 H365 0.985 . S
N353 C355 1.356 . S
N353 H358 0.984 . S
N353 H359 0.985 . S
C354 C348 1.379 . S
C354 C351 1.363 . S
C354 N352 1.356 . S
C355 C349 1.363 . S
C355 C350 1.379 . S
C355 N353 1.356 . S
N356 C348 1.356 . S
N356 H362 0.984 . S
N356 H363 0.984 . S
N357 C350 1.356 . S
N357 H360 0.984 . S
N357 H361 0.985 . S
H358 N353 0.984 . S
H359 N353 0.985 . S
H360 N357 0.984 . S
H361 N357 0.985 . S
H362 N356 0.984 . S
H363 N356 0.984 . S
H364 N352 0.984 . S
H365 N352 0.985 . S
C366 C367 1.363 1_545 S
C366 C372 1.379 . S
C366 N374 1.356 . S
C367 C366 1.363 1_565 S
C367 C373 1.363 . S
C368 C369 1.363 1_565 S
C368 C373 1.379 . S
C368 N375 1.356 . S
C369 C368 1.363 1_545 S
C369 C372 1.363 . S
N370 C372 1.356 . S
N370 H382 0.984 . S
N370 H383 0.985 . S
N371 C373 1.356 . S
N371 H376 0.984 . S
N371 H377 0.985 . S
C372 C366 1.379 . S
C372 C369 1.363 . S
C372 N370 1.356 . S
C373 C367 1.363 . S
C373 C368 1.379 . S
C373 N371 1.356 . S
N374 C366 1.356 . S
N374 H380 0.984 . S
N374 H381 0.984 . S
N375 C368 1.356 . S
N375 H378 0.984 . S
N375 H379 0.985 . S
H376 N371 0.984 . S
H377 N371 0.985 . S
H378 N375 0.984 . S
H379 N375 0.985 . S
H380 N374 0.984 . S
H381 N374 0.984 . S
H382 N370 0.984 . S
H383 N370 0.985 . S
C384 C385 1.363 . S
C384 C390 1.379 . S
C384 N392 1.356 . S
C385 C384 1.363 . S
C385 C391 1.363 . S
C386 C387 1.363 . S
C386 C391 1.379 . S
C386 N393 1.356 . S
C387 C386 1.363 . S
C387 C390 1.363 . S
N388 C390 1.356 . S
N388 H400 0.984 . S
N388 H401 0.985 . S
N389 C391 1.356 . S
N389 H394 0.984 . S
N389 H395 0.985 . S
C390 C384 1.379 . S
C390 C387 1.363 . S
C390 N388 1.356 . S
C391 C385 1.363 . S
C391 C386 1.379 . S
C391 N389 1.356 . S
N392 C384 1.356 . S
N392 H398 0.984 . S
N392 H399 0.984 . S
N393 C386 1.356 . S
N393 H396 0.984 . S
N393 H397 0.985 . S
H394 N389 0.984 . S
H395 N389 0.985 . S
H396 N393 0.984 . S
H397 N393 0.985 . S
H398 N392 0.984 . S
H399 N392 0.984 . S
H400 N388 0.984 . S
H401 N388 0.985 . S
C402 C403 1.363 1_455 S
C402 C408 1.379 . S
C402 N410 1.356 . S
C403 C402 1.363 1_655 S
C403 C409 1.363 . S
C404 C405 1.363 1_655 S
C404 C409 1.379 . S
C404 N411 1.356 . S
C405 C404 1.363 1_455 S
C405 C408 1.363 . S
N406 C408 1.356 . S
N406 H418 0.984 . S
N406 H419 0.985 . S
N407 C409 1.356 . S
N407 H412 0.984 . S
N407 H413 0.985 . S
C408 C402 1.379 . S
C408 C405 1.363 . S
C408 N406 1.356 . S
C409 C403 1.363 . S
C409 C404 1.379 . S
C409 N407 1.356 . S
N410 C402 1.356 . S
N410 H416 0.984 . S
N410 H417 0.984 . S
N411 C404 1.356 . S
N411 H414 0.991 . S
N411 H415 0.985 . S
H412 N407 0.984 . S
H413 N407 0.985 . S
H414 N411 0.991 . S
H415 N411 0.985 . S
H416 N410 0.984 . S
H417 N410 0.984 . S
H418 N406 0.984 . S
H419 N406 0.985 . S
C420 C421 1.363 1_545 S
C420 C426 1.379 1_556 S
C420 N428 1.356 . S
C421 C420 1.363 1_565 S
C421 C427 1.363 . S
C422 C423 1.363 1_565 S
C422 C427 1.379 1_554 S
C422 N429 1.356 . S
C423 C422 1.363 1_545 S
C423 C426 1.363 . S
N424 C426 1.356 . S
N424 H436 0.984 . S
N424 H437 0.985 . S
N425 C427 1.356 . S
N425 H430 0.984 . S
N425 H431 0.985 . S
C426 C420 1.379 1_554 S
C426 C423 1.363 . S
C426 N424 1.356 . S
C427 C421 1.363 . S
C427 C422 1.379 1_556 S
C427 N425 1.356 . S
N428 C420 1.356 . S
N428 H434 0.984 . S
N428 H435 0.984 . S
N429 C422 1.356 . S
N429 H432 0.984 . S
N429 H433 0.985 . S
H430 N425 0.984 . S
H431 N425 0.985 . S
H432 N429 0.984 . S
H433 N429 0.985 . S
H434 N428 0.984 . S
H435 N428 0.984 . S
H436 N424 0.984 . S
H437 N424 0.985 . S
C438 C439 1.363 . S
C438 C444 1.379 . S
C438 N446 1.356 . S
C439 C438 1.363 . S
C439 C445 1.363 . S
C440 C441 1.363 . S
C440 C445 1.379 . S
C440 N447 1.356 . S
C441 C440 1.363 . S
C441 C444 1.363 . S
N442 C444 1.356 . S
N442 H454 0.984 . S
N442 H455 0.985 . S
N443 C445 1.356 . S
N443 H448 0.984 . S
N443 H449 0.985 . S
C444 C438 1.379 . S
C444 C441 1.363 . S
C444 N442 1.356 . S
C445 C439 1.363 . S
C445 C440 1.379 . S
C445 N443 1.356 . S
N446 C438 1.356 . S
N446 H452 0.984 . S
N446 H453 0.984 . S
N447 C440 1.356 . S
N447 H450 0.984 . S
N447 H451 0.985 . S
H448 N443 0.984 . S
H449 N443 0.985 . S
H450 N447 0.984 . S
H451 N447 0.985 . S
H452 N446 0.984 . S
H453 N446 0.984 . S
H454 N442 0.984 . S
H455 N442 0.985 . S
C456 C457 1.363 1_655 S
C456 C462 1.379 . S
C456 N464 1.356 . S
C457 C456 1.363 1_455 S
C457 C463 1.363 . S
C458 C459 1.363 1_455 S
C458 C463 1.379 . S
C458 N465 1.356 . S
C459 C458 1.363 1_655 S
C459 C462 1.363 . S
N460 C462 1.356 . S
N460 H472 0.984 . S
N460 H473 0.985 . S
N461 C463 1.356 . S
N461 H466 0.984 . S
N461 H467 0.985 . S
C462 C456 1.379 . S
C462 C459 1.363 . S
C462 N460 1.356 . S
C463 C457 1.363 . S
C463 C458 1.379 . S
C463 N461 1.356 . S
N464 C456 1.356 . S
N464 H470 0.984 . S
N464 H471 0.984 . S
N465 C458 1.356 . S
N465 H468 0.984 . S
N465 H469 0.985 . S
H466 N461 0.984 . S
H467 N461 0.985 . S
H468 N465 0.984 . S
H469 N465 0.985 . S
H470 N464 0.984 . S
H471 N464 0.984 . S
H472 N460 0.984 . S
H473 N460 0.985 . S
C474 C475 1.363 1_545 S
C474 C480 1.379 1_554 S
C474 N482 1.356 . S
C475 C474 1.363 1_565 S
C475 C481 1.363 . S
C476 C477 1.363 1_565 S
C476 C481 1.379 1_556 S
C476 N483 1.356 . S
C477 C476 1.363 1_545 S
C477 C480 1.363 . S
N478 C480 1.356 . S
N478 H490 0.984 1_556 S
N478 H491 0.985 . S
N479 C481 1.356 . S
N479 H484 0.984 . S
N479 H485 0.985 1_554 S
C480 C474 1.379 1_556 S
C480 C477 1.363 . S
C480 N478 1.356 . S
C481 C475 1.363 . S
C481 C476 1.379 1_554 S
C481 N479 1.356 . S
N482 C474 1.356 . S
N482 H488 0.984 . S
N482 H489 0.984 . S
N483 C476 1.356 . S
N483 H486 0.984 . S
N483 H487 0.985 . S
H484 N479 0.984 . S
H485 N479 0.985 1_556 S
H486 N483 0.984 . S
H487 N483 0.985 . S
H488 N482 0.984 . S
H489 N482 0.984 . S
H490 N478 0.984 1_554 S
H491 N478 0.985 . S
C492 C493 1.363 . S
C492 C498 1.379 1_655 S
C492 N500 1.356 . S
C493 C492 1.363 . S
C493 C499 1.363 . S
C494 C495 1.363 . S
C494 C499 1.379 1_455 S
C494 N501 1.356 . S
C495 C494 1.363 . S
C495 C498 1.363 . S
N496 C498 1.356 . S
N496 H508 0.984 . S
N496 H509 0.985 . S
N497 C499 1.356 . S
N497 H502 0.984 . S
N497 H503 0.985 . S
C498 C492 1.379 1_455 S
C498 C495 1.363 . S
C498 N496 1.356 . S
C499 C493 1.363 . S
C499 C494 1.379 1_655 S
C499 N497 1.356 . S
N500 C492 1.356 . S
N500 H506 0.984 . S
N500 H507 0.984 . S
N501 C494 1.356 . S
N501 H504 0.984 . S
N501 H505 0.985 . S
H502 N497 0.984 . S
H503 N497 0.985 . S
H504 N501 0.984 . S
H505 N501 0.985 . S
H506 N500 0.984 . S
H507 N500 0.984 . S
H508 N496 0.984 . S
H509 N496 0.985 . S
C510 C511 1.363 . S
C510 C516 1.379 1_545 S
C510 N518 1.356 . S
C511 C510 1.363 . S
C511 C517 1.363 . S
C512 C513 1.363 . S
C512 C517 1.379 1_565 S
C512 N519 1.356 . S
C513 C512 1.363 . S
C513 C516 1.363 . S
N514 C516 1.356 . S
N514 H526 0.984 . S
N514 H527 0.985 . S
N515 C517 1.356 . S
N515 H520 0.984 . S
N515 H521 0.985 . S
C516 C510 1.379 1_565 S
C516 C513 1.363 . S
C516 N514 1.356 . S
C517 C511 1.363 . S
C517 C512 1.379 1_545 S
C517 N515 1.356 . S
N518 C510 1.356 . S
N518 H524 0.984 . S
N518 H525 0.984 . S
N519 C512 1.356 . S
N519 H522 0.984 . S
N519 H523 0.985 . S
H520 N515 0.984 . S
H521 N515 0.985 . S
H522 N519 0.984 . S
H523 N519 0.985 . S
H524 N518 0.984 . S
H525 N518 0.984 . S
H526 N514 0.984 . S
H527 N514 0.985 . S
C528 C529 1.363 . S
C528 C534 1.379 . S
C528 N536 1.356 . S
C529 C528 1.363 . S
C529 C535 1.363 . S
C530 C531 1.363 . S
C530 C535 1.379 . S
C530 N537 1.356 . S
C531 C530 1.363 . S
C531 C534 1.363 . S
N532 C534 1.356 . S
N532 H544 0.984 . S
N532 H545 0.985 . S
N533 C535 1.356 . S
N533 H538 0.984 . S
N533 H539 0.985 . S
C534 C528 1.379 . S
C534 C531 1.363 . S
C534 N532 1.356 . S
C535 C529 1.363 . S
C535 C530 1.379 . S
C535 N533 1.356 . S
N536 C528 1.356 . S
N536 H542 0.984 . S
N536 H543 0.984 . S
N537 C530 1.356 . S
N537 H540 0.984 . S
N537 H541 0.985 . S
H538 N533 0.984 . S
H539 N533 0.985 . S
H540 N537 0.984 . S
H541 N537 0.985 . S
H542 N536 0.984 . S
H543 N536 0.984 . S
H544 N532 0.984 . S
H545 N532 0.985 . S
C546 C547 1.363 . S
C546 C552 1.379 1_655 S
C546 N554 1.356 . S
C547 C546 1.363 . S
C547 C553 1.363 . S
C548 C549 1.363 . S
C548 C553 1.379 1_455 S
C548 N555 1.356 . S
C549 C548 1.363 . S
C549 C552 1.363 . S
N550 C552 1.356 . S
N550 H562 0.984 . S
N550 H563 0.985 . S
N551 C553 1.356 . S
N551 H556 0.984 . S
N551 H557 0.985 . S
C552 C546 1.379 1_455 S
C552 C549 1.363 . S
C552 N550 1.356 . S
C553 C547 1.363 . S
C553 C548 1.379 1_655 S
C553 N551 1.356 . S
N554 C546 1.356 . S
N554 H560 0.984 . S
N554 H561 0.984 . S
N555 C548 1.356 . S
N555 H558 0.984 . S
N555 H559 0.985 . S
H556 N551 0.984 . S
H557 N551 0.985 . S
H558 N555 0.984 . S
H559 N555 0.985 . S
H560 N554 0.984 . S
H561 N554 0.984 . S
H562 N550 0.984 . S
H563 N550 0.985 . S
C564 C565 1.363 . S
C564 C570 1.379 1_565 S
C564 N572 1.356 . S
C565 C564 1.363 . S
C565 C571 1.363 . S
C566 C567 1.363 . S
C566 C571 1.379 1_545 S
C566 N573 1.356 . S
C567 C566 1.363 . S
C567 C570 1.363 . S
N568 C570 1.356 . S
N568 H580 0.984 . S
N568 H581 0.985 . S
N569 C571 1.356 . S
N569 H574 0.984 . S
N569 H575 0.985 . S
C570 C564 1.379 1_545 S
C570 C567 1.363 . S
C570 N568 1.356 . S
C571 C565 1.363 . S
C571 C566 1.379 1_565 S
C571 N569 1.356 . S
N572 C564 1.356 . S
N572 H578 0.984 . S
N572 H579 0.984 . S
N573 C566 1.356 . S
N573 H576 0.984 . S
N573 H577 0.985 . S
H574 N569 0.984 . S
H575 N569 0.985 . S
H576 N573 0.984 . S
H577 N573 0.985 . S
H578 N572 0.984 . S
H579 N572 0.984 . S
H580 N568 0.984 . S
H581 N568 0.985 . S
C582 C583 1.363 . S
C582 C588 1.379 . S
C582 N590 1.356 . S
C583 C582 1.363 . S
C583 C589 1.363 . S
C584 C585 1.363 . S
C584 C589 1.379 . S
C584 N591 1.356 . S
C585 C584 1.363 . S
C585 C588 1.363 . S
N586 C588 1.356 . S
N586 H598 0.984 . S
N586 H599 0.985 . S
N587 C589 1.356 . S
N587 H592 0.984 . S
N587 H593 0.985 . S
C588 C582 1.379 . S
C588 C585 1.363 . S
C588 N586 1.356 . S
C589 C583 1.363 . S
C589 C584 1.379 . S
C589 N587 1.356 . S
N590 C582 1.356 . S
N590 H596 0.984 . S
N590 H597 0.984 . S
N591 C584 1.356 . S
N591 H594 0.984 . S
N591 H595 0.985 . S
H592 N587 0.984 . S
H593 N587 0.985 . S
H594 N591 0.984 . S
H595 N591 0.985 . S
H596 N590 0.984 . S
H597 N590 0.984 . S
H598 N586 0.984 . S
H599 N586 0.985 . S
C169 C119 1.671 . S
C171 C7 1.683 . S
C187 C23 1.768 . S
C189 C135 1.768 . S
C205 C35 1.671 . S
C207 C147 1.683 . S
C223 C49 1.683 . S
C225 C161 1.671 . S
C241 C93 1.768 . S
C243 C65 1.768 . S
C259 C77 1.671 . S
C261 C105 1.683 . S
C277 C51 1.193 . S
C279 C9 1.193 . S
C295 C63 1.307 . S
C297 C21 1.307 . S
C313 C79 1.086 . S
C315 C37 1.086 . S
C331 C91 1.307 . S
C333 C133 1.307 . S
C349 C107 1.193 . S
C351 C149 1.193 . S
C367 C121 1.086 . S
C369 C163 1.086 . S
C385 C3 1.568 . S
C387 C134 1.561 . S
C403 C22 1.561 . S
C405 C143 1.568 . S
C421 C31 1.553 . S
C423 C157 1.553 . S
C439 C92 1.561 . S
C441 C45 1.568 . S
C457 C64 1.561 . S
C459 C101 1.568 . S
C475 C115 1.553 . S
C477 C73 1.553 . S
C493 C162 1.380 . S
C495 C8 1.375 . S
C511 C17 1.426 . S
C513 C87 1.426 . S
C529 C106 1.375 . S
C531 C36 1.380 . S
C547 C50 1.375 . S
C549 C120 1.380 . S
C565 C59 1.426 . S
C567 C129 1.426 . S
C583 C148 1.375 . S
C585 C78 1.380 . S
