# Generated by pormake.
# Topology umd, (4)-cn, num edge types: 1
# Building blocks:
#     Node 0, Type 0, BuildingBlock: GALJAG_clean_sbu_0, # of connection points: 4
#     Node 1, Type 0, BuildingBlock: GALJAG_clean_sbu_0, # of connection points: 4
#     Node 2, Type 0, BuildingBlock: GALJAG_clean_sbu_0, # of connection points: 4
#     Node 3, Type 0, BuildingBlock: GALJAG_clean_sbu_0, # of connection points: 4
#     Node 4, Type 0, BuildingBlock: GALJAG_clean_sbu_0, # of connection points: 4
#     Node 5, Type 0, BuildingBlock: GALJAG_clean_sbu_0, # of connection points: 4
#     Node 6, Type 0, BuildingBlock: GALJAG_clean_sbu_0, # of connection points: 4
#     Node 7, Type 0, BuildingBlock: GALJAG_clean_sbu_0, # of connection points: 4
#     Node 8, Type 0, BuildingBlock: GALJAG_clean_sbu_0, # of connection points: 4
#     Node 9, Type 0, BuildingBlock: GALJAG_clean_sbu_0, # of connection points: 4
#     Node 10, Type 0, BuildingBlock: GALJAG_clean_sbu_0, # of connection points: 4
#     Node 11, Type 0, BuildingBlock: GALJAG_clean_sbu_0, # of connection points: 4
#     Node 12, Type 0, BuildingBlock: GALJAG_clean_sbu_0, # of connection points: 4
#     Node 13, Type 0, BuildingBlock: GALJAG_clean_sbu_0, # of connection points: 4
#     Node 14, Type 0, BuildingBlock: GALJAG_clean_sbu_0, # of connection points: 4
#     Node 15, Type 0, BuildingBlock: GALJAG_clean_sbu_0, # of connection points: 4
#     Edge 16, Type (0, 0), BuildingBlock: XIVTED_clean_linker_0, # of connection points: 2
#     Edge 17, Type (0, 0), BuildingBlock: XIVTED_clean_linker_0, # of connection points: 2
#     Edge 18, Type (0, 0), BuildingBlock: XIVTED_clean_linker_0, # of connection points: 2
#     Edge 19, Type (0, 0), BuildingBlock: XIVTED_clean_linker_0, # of connection points: 2
#     Edge 20, Type (0, 0), BuildingBlock: XIVTED_clean_linker_0, # of connection points: 2
#     Edge 21, Type (0, 0), BuildingBlock: XIVTED_clean_linker_0, # of connection points: 2
#     Edge 22, Type (0, 0), BuildingBlock: XIVTED_clean_linker_0, # of connection points: 2
#     Edge 23, Type (0, 0), BuildingBlock: XIVTED_clean_linker_0, # of connection points: 2
#     Edge 24, Type (0, 0), BuildingBlock: XIVTED_clean_linker_0, # of connection points: 2
#     Edge 25, Type (0, 0), BuildingBlock: XIVTED_clean_linker_0, # of connection points: 2
#     Edge 26, Type (0, 0), BuildingBlock: XIVTED_clean_linker_0, # of connection points: 2
#     Edge 27, Type (0, 0), BuildingBlock: XIVTED_clean_linker_0, # of connection points: 2
#     Edge 28, Type (0, 0), BuildingBlock: XIVTED_clean_linker_0, # of connection points: 2
#     Edge 29, Type (0, 0), BuildingBlock: XIVTED_clean_linker_0, # of connection points: 2
#     Edge 30, Type (0, 0), BuildingBlock: XIVTED_clean_linker_0, # of connection points: 2
#     Edge 31, Type (0, 0), BuildingBlock: XIVTED_clean_linker_0, # of connection points: 2
#     Edge 32, Type (0, 0), BuildingBlock: XIVTED_clean_linker_0, # of connection points: 2
#     Edge 33, Type (0, 0), BuildingBlock: XIVTED_clean_linker_0, # of connection points: 2
#     Edge 34, Type (0, 0), BuildingBlock: XIVTED_clean_linker_0, # of connection points: 2
#     Edge 35, Type (0, 0), BuildingBlock: XIVTED_clean_linker_0, # of connection points: 2
#     Edge 36, Type (0, 0), BuildingBlock: XIVTED_clean_linker_0, # of connection points: 2
#     Edge 37, Type (0, 0), BuildingBlock: XIVTED_clean_linker_0, # of connection points: 2
#     Edge 38, Type (0, 0), BuildingBlock: XIVTED_clean_linker_0, # of connection points: 2
#     Edge 39, Type (0, 0), BuildingBlock: XIVTED_clean_linker_0, # of connection points: 2
#     Edge 40, Type (0, 0), BuildingBlock: XIVTED_clean_linker_0, # of connection points: 2
#     Edge 41, Type (0, 0), BuildingBlock: XIVTED_clean_linker_0, # of connection points: 2
#     Edge 42, Type (0, 0), BuildingBlock: XIVTED_clean_linker_0, # of connection points: 2
#     Edge 43, Type (0, 0), BuildingBlock: XIVTED_clean_linker_0, # of connection points: 2
#     Edge 44, Type (0, 0), BuildingBlock: XIVTED_clean_linker_0, # of connection points: 2
#     Edge 45, Type (0, 0), BuildingBlock: XIVTED_clean_linker_0, # of connection points: 2
#     Edge 46, Type (0, 0), BuildingBlock: XIVTED_clean_linker_0, # of connection points: 2
#     Edge 47, Type (0, 0), BuildingBlock: XIVTED_clean_linker_0, # of connection points: 2
# Relax obj value: 0.079
# Max RMSD: 0.208
# Mean RMSD: 0.208
data_MOF--net-umd--node1-GALJAG_clean_sbu_0--edge1-XIVTED_clean_linker_0
_symmetry_space_group_name_H-M    P1
_symmetry_Int_Tables_number       1
_symmetry_cell_setting            triclinic
loop_
_symmetry_equiv_pos_as_xyz
'x, y, z'
_cell_length_a     40.009444
_cell_length_b     40.05018
_cell_length_c     56.966748
_cell_angle_alpha  89.894972
_cell_angle_beta   90.048294
_cell_angle_gamma 89.905694
loop_
_atom_site_label
_atom_site_type_symbol
_atom_site_fract_x
_atom_site_fract_y
_atom_site_fract_z
_atom_type_partial_charge
In0 In 0.16541 0.42346 0.1332 0.0
O1 O 0.16408 0.36624 0.1364 0.0
O2 O 0.21119 0.3915 0.13482 0.0
C3 C 0.10476 0.45047 0.13979 0.0
C4 C 0.17089 0.4321 0.08676 0.0
C5 C 0.19173 0.44857 0.17234 0.0
O6 O 0.10957 0.41927 0.14181 0.0
O7 O 0.13034 0.46727 0.13452 0.0
O8 O 0.1974 0.46174 0.15246 0.0
O9 O 0.17298 0.42322 0.17216 0.0
C10 C 0.19571 0.3642 0.13673 0.0
O11 O 0.19001 0.44732 0.10089 0.0
O12 O 0.14995 0.41278 0.09621 0.0
In13 In 0.54472 0.18475 0.62259 0.0
O14 O 0.50976 0.21208 0.59653 0.0
O15 O 0.56024 0.20288 0.58679 0.0
C16 C 0.52117 0.1954 0.66609 0.0
C17 C 0.60431 0.2122 0.63174 0.0
C18 C 0.5279 0.12056 0.61457 0.0
O19 O 0.50897 0.21041 0.64845 0.0
O20 O 0.54395 0.17461 0.66148 0.0
O21 O 0.55786 0.12945 0.61776 0.0
O22 O 0.50686 0.14397 0.6153 0.0
C23 C 0.53234 0.21501 0.58116 0.0
O24 O 0.60204 0.18326 0.62293 0.0
O25 O 0.57684 0.22681 0.63554 0.0
In26 In 0.8185 0.57935 0.12427 0.0
O27 O 0.79448 0.55137 0.09346 0.0
O28 O 0.84344 0.57171 0.08938 0.0
C29 C 0.78189 0.56062 0.16154 0.0
C30 C 0.79623 0.64152 0.11543 0.0
C31 C 0.87887 0.55656 0.1377 0.0
O32 O 0.783 0.54342 0.14296 0.0
O33 O 0.79808 0.58757 0.16078 0.0
O34 O 0.87425 0.58684 0.13207 0.0
O35 O 0.85307 0.53857 0.13702 0.0
C36 C 0.81954 0.55582 0.08025 0.0
O37 O 0.82051 0.63635 0.12923 0.0
O38 O 0.78379 0.61568 0.10637 0.0
In39 In 0.44128 0.81827 0.62379 0.0
O40 O 0.38384 0.81683 0.62368 0.0
O41 O 0.41097 0.77751 0.64048 0.0
C42 C 0.45563 0.88197 0.61259 0.0
C43 C 0.45703 0.78582 0.58388 0.0
C44 C 0.46668 0.81565 0.66738 0.0
O45 O 0.4261 0.87265 0.61709 0.0
O46 O 0.47728 0.85906 0.61322 0.0
O47 O 0.47451 0.79418 0.65202 0.0
O48 O 0.44709 0.83831 0.6604 0.0
C49 C 0.38287 0.78974 0.63518 0.0
O50 O 0.47855 0.7907 0.59977 0.0
O51 O 0.42823 0.7968 0.58841 0.0
In52 In 0.17457 0.5722 0.37085 0.0
O53 O 0.17611 0.62958 0.36847 0.0
O54 O 0.22014 0.60123 0.36085 0.0
C55 C 0.11032 0.55215 0.37208 0.0
C56 C 0.19568 0.56347 0.41516 0.0
C57 C 0.19196 0.54489 0.3299 0.0
O58 O 0.11806 0.58237 0.36847 0.0
O59 O 0.13477 0.53285 0.37541 0.0
O60 O 0.20204 0.53287 0.34925 0.0
O61 O 0.1728 0.56989 0.33146 0.0
C62 C 0.20655 0.62959 0.36229 0.0
O63 O 0.20214 0.54228 0.39937 0.0
O64 O 0.17855 0.58821 0.40853 0.0
In65 In 0.44501 0.17928 0.87678 0.0
O66 O 0.47952 0.18283 0.90833 0.0
O67 O 0.45332 0.22681 0.89837 0.0
C68 C 0.45999 0.20498 0.83411 0.0
C69 C 0.37858 0.18733 0.88334 0.0
C70 C 0.46527 0.11481 0.87883 0.0
O71 O 0.4799 0.20689 0.85125 0.0
O72 O 0.4326 0.19112 0.83875 0.0
O73 O 0.48098 0.13714 0.8679 0.0
O74 O 0.43851 0.12463 0.88827 0.0
C75 C 0.47292 0.21294 0.91282 0.0
O76 O 0.39995 0.19347 0.89902 0.0
O77 O 0.39055 0.17546 0.86465 0.0
In78 In 0.81251 0.44203 0.36 0.0
O79 O 0.81556 0.38497 0.35655 0.0
O80 O 0.76905 0.40972 0.34993 0.0
C81 C 0.87593 0.46451 0.36254 0.0
C82 C 0.79137 0.4462 0.40463 0.0
C83 C 0.79216 0.46977 0.31966 0.0
O84 O 0.86932 0.43431 0.35803 0.0
O85 O 0.85074 0.48286 0.36573 0.0
O86 O 0.78164 0.4802 0.33931 0.0
O87 O 0.81331 0.44636 0.32066 0.0
C88 C 0.78501 0.38252 0.35089 0.0
O89 O 0.78522 0.46929 0.39005 0.0
O90 O 0.80805 0.42208 0.39665 0.0
In91 In 0.56163 0.8166 0.87919 0.0
O92 O 0.52112 0.79075 0.90127 0.0
O93 O 0.57153 0.78691 0.91251 0.0
C94 C 0.53166 0.81252 0.8369 0.0
C95 C 0.62439 0.79656 0.86947 0.0
C96 C 0.55019 0.88077 0.89105 0.0
O97 O 0.53498 0.78716 0.84996 0.0
O98 O 0.54269 0.83929 0.84543 0.0
O99 O 0.57685 0.87159 0.88108 0.0
O100 O 0.53027 0.85741 0.89593 0.0
C101 C 0.54138 0.78005 0.91653 0.0
O102 O 0.61836 0.81755 0.88548 0.0
O103 O 0.599 0.78625 0.85856 0.0
In104 In 0.8342 0.57413 0.86155 0.0
O105 O 0.83669 0.63154 0.86135 0.0
O106 O 0.78908 0.60728 0.86104 0.0
C107 C 0.8954 0.5488 0.8539 0.0
C108 C 0.82712 0.55877 0.90711 0.0
C109 C 0.8085 0.55229 0.82117 0.0
O110 O 0.89024 0.58006 0.85415 0.0
O111 O 0.86986 0.53105 0.85743 0.0
O112 O 0.80285 0.53739 0.84041 0.0
O113 O 0.82691 0.57781 0.82255 0.0
C114 C 0.80515 0.63433 0.8607 0.0
O115 O 0.80723 0.5474 0.8918 0.0
O116 O 0.84959 0.57787 0.89934 0.0
In117 In 0.45252 0.81345 0.37409 0.0
O118 O 0.48723 0.78499 0.39973 0.0
O119 O 0.43716 0.7954 0.40994 0.0
C120 C 0.47497 0.80333 0.33022 0.0
C121 C 0.39205 0.78769 0.36531 0.0
C122 C 0.47123 0.87695 0.38263 0.0
O123 O 0.48703 0.78745 0.34753 0.0
O124 O 0.45286 0.82458 0.33533 0.0
O125 O 0.44097 0.86894 0.3797 0.0
O126 O 0.49163 0.85303 0.38138 0.0
C127 C 0.46486 0.78256 0.4153 0.0
O128 O 0.3953 0.81669 0.3739 0.0
O129 O 0.41904 0.77218 0.36154 0.0
In130 In 0.18007 0.41496 0.86685 0.0
O131 O 0.20204 0.44217 0.89871 0.0
O132 O 0.15597 0.41573 0.90231 0.0
C133 C 0.2154 0.43493 0.82937 0.0
C134 C 0.20447 0.35337 0.87418 0.0
C135 C 0.11997 0.43971 0.85471 0.0
O136 O 0.21548 0.45122 0.84839 0.0
O137 O 0.19857 0.40834 0.82976 0.0
O138 O 0.12468 0.40863 0.85745 0.0
O139 O 0.14556 0.45758 0.85763 0.0
C140 C 0.17828 0.43321 0.912 0.0
O141 O 0.17827 0.35798 0.86209 0.0
O142 O 0.21791 0.37951 0.88208 0.0
In143 In 0.55787 0.17866 0.37317 0.0
O144 O 0.61534 0.18033 0.37307 0.0
O145 O 0.58789 0.21959 0.35647 0.0
C146 C 0.54316 0.11538 0.38518 0.0
C147 C 0.54185 0.21158 0.41277 0.0
C148 C 0.53237 0.17986 0.3296 0.0
O149 O 0.57268 0.12423 0.38018 0.0
O150 O 0.52177 0.13855 0.38465 0.0
O151 O 0.5249 0.20205 0.34454 0.0
O152 O 0.55173 0.15725 0.33697 0.0
C153 C 0.6161 0.20751 0.36166 0.0
O154 O 0.52054 0.20683 0.39671 0.0
O155 O 0.57061 0.20024 0.40855 0.0
In156 In 0.82118 0.43069 0.62121 0.0
O157 O 0.81832 0.37353 0.62455 0.0
O158 O 0.77427 0.403 0.62977 0.0
C159 C 0.88557 0.44999 0.61991 0.0
C160 C 0.80099 0.43918 0.57671 0.0
C161 C 0.80491 0.45744 0.66255 0.0
O162 O 0.87753 0.41975 0.62314 0.0
O163 O 0.86131 0.46969 0.61698 0.0
O164 O 0.79537 0.47054 0.6434 0.0
O165 O 0.82292 0.43167 0.66057 0.0
C166 C 0.7874 0.37432 0.62946 0.0
O167 O 0.79401 0.46041 0.5924 0.0
O168 O 0.81823 0.41462 0.58355 0.0
In169 In 0.55413 0.81729 0.11927 0.0
O170 O 0.60973 0.82282 0.1287 0.0
O171 O 0.59697 0.79593 0.09791 0.0
C172 C 0.53496 0.88204 0.11798 0.0
C173 C 0.52439 0.78722 0.08241 0.0
C174 C 0.53907 0.79254 0.16223 0.0
O175 O 0.56229 0.87228 0.10929 0.0
O176 O 0.51815 0.85946 0.1278 0.0
O177 O 0.51842 0.79232 0.14548 0.0
O178 O 0.56732 0.8041 0.15705 0.0
C179 C 0.6198 0.80585 0.11143 0.0
O180 O 0.53908 0.77073 0.09833 0.0
O181 O 0.52373 0.81833 0.0857 0.0
In182 In 0.18449 0.55691 0.63185 0.0
O183 O 0.2114 0.52998 0.60149 0.0
O184 O 0.18869 0.57737 0.59533 0.0
C185 C 0.20487 0.52865 0.672 0.0
C186 C 0.21253 0.61604 0.64124 0.0
C187 C 0.12091 0.53496 0.6293 0.0
O188 O 0.21516 0.51829 0.65228 0.0
O189 O 0.18391 0.55223 0.67117 0.0
O190 O 0.12779 0.56507 0.63389 0.0
O191 O 0.14593 0.5164 0.62605 0.0
C192 C 0.20525 0.55333 0.58712 0.0
O193 O 0.18178 0.61386 0.63609 0.0
O194 O 0.22841 0.58877 0.64156 0.0
In195 In 0.4379 0.18051 0.11767 0.0
O196 O 0.47661 0.20809 0.09506 0.0
O197 O 0.42617 0.20721 0.08345 0.0
C198 C 0.46708 0.18391 0.16018 0.0
C199 C 0.37629 0.20208 0.12896 0.0
C200 C 0.45148 0.11675 0.10596 0.0
O201 O 0.46702 0.20862 0.1463 0.0
O202 O 0.45324 0.15801 0.15233 0.0
O203 O 0.42343 0.12549 0.11411 0.0
O204 O 0.47183 0.14034 0.10284 0.0
C205 C 0.45574 0.21629 0.07943 0.0
O206 O 0.38068 0.17922 0.11398 0.0
O207 O 0.40269 0.21366 0.13787 0.0
H208 H 0.09063 0.51681 0.13707 0.0
H209 H 0.89338 0.49266 0.15072 0.0
H210 H 0.04406 0.42119 0.14913 0.0
H211 H 0.94007 0.58717 0.13511 0.0
H212 H 0.94856 0.46704 0.15416 0.0
H213 H 0.03612 0.54366 0.13995 0.0
C214 C 0.06889 0.50144 0.14043 0.0
C215 C 0.07184 0.46665 0.14271 0.0
C216 C 0.9468 0.49343 0.15017 0.0
C217 C 0.00919 0.49735 0.14602 0.0
C218 C 0.91529 0.50813 0.14826 0.0
C219 C 0.91216 0.54208 0.14247 0.0
C220 C 0.97544 0.51279 0.14621 0.0
C221 C 0.94137 0.56091 0.13955 0.0
C222 C 0.03775 0.51683 0.14209 0.0
C223 C 0.04286 0.44806 0.14716 0.0
N224 N 0.97181 0.54594 0.14128 0.0
N225 N 0.01268 0.46364 0.14856 0.0
H226 H 0.41483 0.93709 0.6121 0.0
H227 H 0.56804 0.06527 0.61125 0.0
H228 H 0.51797 0.90707 0.60511 0.0
H229 H 0.46463 0.09606 0.61026 0.0
H230 H 0.5501 0.00711 0.60764 0.0
H231 H 0.43227 0.99561 0.60985 0.0
C232 C 0.44108 0.94282 0.60986 0.0
C233 C 0.465 0.91724 0.60892 0.0
C234 C 0.53133 0.0266 0.60807 0.0
C235 C 0.4852 0.98398 0.60657 0.0
C236 C 0.54158 0.05978 0.61015 0.0
C237 C 0.51779 0.08546 0.61117 0.0
C238 C 0.49703 0.01906 0.60715 0.0
C239 C 0.48382 0.07699 0.60961 0.0
C240 C 0.45106 0.9762 0.60861 0.0
C241 C 0.4987 0.92602 0.606 0.0
N242 N 0.47445 0.04451 0.60783 0.0
N243 N 0.50781 0.95864 0.60512 0.0
H244 H 0.08997 0.48752 0.37535 0.0
H245 H 0.89494 0.52946 0.36756 0.0
H246 H 0.05185 0.58777 0.36736 0.0
H247 H 0.93508 0.42986 0.36098 0.0
H248 H 0.95179 0.55133 0.3703 0.0
H249 H 0.03304 0.46613 0.37315 0.0
C250 C 0.06957 0.50509 0.37321 0.0
C251 C 0.07565 0.53952 0.37152 0.0
C252 C 0.94819 0.52471 0.36822 0.0
C253 C 0.01028 0.51509 0.36896 0.0
C254 C 0.91575 0.51217 0.3667 0.0
C255 C 0.91031 0.47776 0.36403 0.0
C256 C 0.97544 0.50266 0.36726 0.0
C257 C 0.93817 0.45655 0.36298 0.0
C258 C 0.03706 0.49281 0.37187 0.0
C259 C 0.04826 0.56105 0.36873 0.0
N260 N 0.96955 0.46933 0.36467 0.0
N261 N 0.01671 0.54848 0.36756 0.0
H262 H 0.49449 0.90602 0.91225 0.0
H263 H 0.52368 0.0899 0.86154 0.0
H264 H 0.58331 0.93588 0.87483 0.0
H265 H 0.43737 0.06213 0.9025 0.0
H266 H 0.54657 0.03397 0.86724 0.0
H267 H 0.47448 0.96365 0.91078 0.0
C268 C 0.51001 0.92483 0.90402 0.0
C269 C 0.54054 0.91616 0.89355 0.0
C270 C 0.52264 0.04005 0.87502 0.0
C271 C 0.51754 0.98204 0.89146 0.0
C272 C 0.50947 0.07195 0.87168 0.0
C273 C 0.47849 0.08059 0.88148 0.0
C274 C 0.50468 0.01652 0.88823 0.0
C275 C 0.46127 0.05643 0.89455 0.0
C276 C 0.4985 0.9577 0.90309 0.0
C277 C 0.55962 0.94149 0.88311 0.0
N278 N 0.47457 0.02544 0.89751 0.0
N279 N 0.54765 0.97324 0.88214 0.0
H280 H 0.95605 0.5801 0.84876 0.0
H281 H 0.05923 0.40831 0.85147 0.0
H282 H 0.9104 0.48262 0.85155 0.0
H283 H 0.10529 0.50557 0.84846 0.0
H284 H 0.00429 0.43499 0.84823 0.0
H285 H 0.011 0.55329 0.84559 0.0
C286 C 0.95759 0.5531 0.84855 0.0
C287 C 0.92869 0.53356 0.85057 0.0
C288 C 0.02644 0.45048 0.8481 0.0
C289 C 0.99128 0.50272 0.84702 0.0
C290 C 0.05778 0.43523 0.84988 0.0
C291 C 0.0868 0.45476 0.85038 0.0
C292 C 0.02416 0.48551 0.84688 0.0
C293 C 0.08352 0.48956 0.84827 0.0
C294 C 0.98891 0.53778 0.84676 0.0
C295 C 0.93207 0.49866 0.85017 0.0
N296 N 0.05278 0.50383 0.84678 0.0
N297 N 0.96276 0.48438 0.84856 0.0
H298 H 0.48098 0.09159 0.395 0.0
H299 H 0.53522 0.89966 0.38668 0.0
H300 H 0.58276 0.05936 0.38413 0.0
H301 H 0.43267 0.93322 0.38696 0.0
H302 H 0.55359 0.95753 0.39068 0.0
H303 H 0.46359 0.03333 0.39735 0.0
C304 C 0.49976 0.07222 0.39334 0.0
C305 C 0.53336 0.08031 0.3892 0.0
C306 C 0.52707 0.95224 0.38998 0.0
C307 C 0.51354 0.01349 0.39173 0.0
C308 C 0.51655 0.91922 0.38772 0.0
C309 C 0.48235 0.91168 0.38634 0.0
C310 C 0.50323 0.97795 0.39093 0.0
C311 C 0.45928 0.93796 0.38784 0.0
C312 C 0.48977 0.03895 0.39461 0.0
C313 C 0.55659 0.0542 0.38726 0.0
N314 N 0.47015 0.96996 0.38998 0.0
N315 N 0.54621 0.02191 0.3884 0.0
H316 H 0.90662 0.51443 0.61715 0.0
H317 H 0.10124 0.47024 0.62394 0.0
H318 H 0.94367 0.41361 0.624 0.0
H319 H 0.06215 0.57017 0.63118 0.0
H320 H 0.04414 0.44899 0.62121 0.0
H321 H 0.96379 0.53513 0.61929 0.0
C322 C 0.92683 0.49659 0.61902 0.0
C323 C 0.92038 0.46221 0.62042 0.0
C324 C 0.04803 0.47555 0.62343 0.0
C325 C 0.98604 0.48585 0.6229 0.0
C326 C 0.08061 0.48773 0.62495 0.0
C327 C 0.08641 0.52205 0.6278 0.0
C328 C 0.02102 0.49787 0.62459 0.0
C329 C 0.05878 0.54354 0.62903 0.0
C330 C 0.95949 0.50848 0.62032 0.0
C331 C 0.94756 0.44031 0.62287 0.0
N332 N 0.02727 0.5311 0.62734 0.0
N333 N 0.97925 0.45251 0.62401 0.0
H334 H 0.50996 0.09252 0.08812 0.0
H335 H 0.47527 0.90668 0.13311 0.0
H336 H 0.41672 0.06092 0.11895 0.0
H337 H 0.56541 0.93555 0.09688 0.0
H338 H 0.45322 0.96296 0.12751 0.0
H339 H 0.52996 0.03489 0.08967 0.0
C340 C 0.49351 0.07335 0.09492 0.0
C341 C 0.46167 0.0815 0.10351 0.0
C342 C 0.47781 0.95704 0.12075 0.0
C343 C 0.48461 0.0156 0.10569 0.0
C344 C 0.4905 0.92495 0.12405 0.0
C345 C 0.52229 0.9165 0.11553 0.0
C346 C 0.49708 0.98099 0.1089 0.0
C347 C 0.54084 0.94109 0.10381 0.0
C348 C 0.50501 0.04047 0.09589 0.0
C349 C 0.44143 0.05571 0.11214 0.0
N350 N 0.52798 0.97227 0.10088 0.0
N351 N 0.45336 0.02396 0.1132 0.0
H352 H 0.21715 0.48282 0.32011 0.0
H353 H 0.21059 0.51294 0.18129 0.0
H354 H 0.18885 0.5761 0.28763 0.0
H355 H 0.1993 0.41632 0.21392 0.0
H356 H 0.2202 0.53742 0.2202 0.0
H357 H 0.22755 0.45938 0.28097 0.0
C358 C 0.21356 0.49843 0.30477 0.0
C359 C 0.20158 0.53116 0.30696 0.0
C360 C 0.21619 0.51077 0.21872 0.0
C361 C 0.21377 0.5049 0.26251 0.0
C362 C 0.21089 0.49682 0.19659 0.0
C363 C 0.20364 0.46275 0.19458 0.0
C364 C 0.21458 0.49032 0.23876 0.0
C365 C 0.20429 0.44285 0.21486 0.0
C366 C 0.21947 0.48511 0.28252 0.0
C367 C 0.19751 0.55051 0.28661 0.0
N368 N 0.20935 0.45698 0.23618 0.0
N369 N 0.20342 0.53703 0.2652 0.0
H370 H 0.46338 0.22458 0.68237 0.0
H371 H 0.52254 0.21593 0.81653 0.0
H372 H 0.55775 0.18355 0.70525 0.0
H373 H 0.41858 0.21304 0.79645 0.0
H374 H 0.53788 0.21988 0.77499 0.0
H375 H 0.44855 0.23474 0.72373 0.0
C376 C 0.48098 0.21792 0.69607 0.0
C377 C 0.5116 0.20281 0.69051 0.0
C378 C 0.5117 0.21888 0.77975 0.0
C379 C 0.49529 0.21501 0.73738 0.0
C380 C 0.50294 0.21687 0.80341 0.0
C381 C 0.4693 0.21377 0.80984 0.0
C382 C 0.4866 0.21815 0.76249 0.0
C383 C 0.44486 0.21503 0.79215 0.0
C384 C 0.47256 0.22372 0.71956 0.0
C385 C 0.53366 0.1948 0.70883 0.0
N386 N 0.45399 0.21689 0.76921 0.0
N387 N 0.52511 0.20103 0.73143 0.0
H388 H 0.76357 0.49661 0.17197 0.0
H389 H 0.76364 0.53075 0.31023 0.0
H390 H 0.77083 0.59514 0.20203 0.0
H391 H 0.79363 0.43829 0.27765 0.0
H392 H 0.74909 0.55301 0.27123 0.0
H393 H 0.75573 0.47356 0.21139 0.0
C394 C 0.76257 0.51349 0.18679 0.0
C395 C 0.76846 0.54772 0.18385 0.0
C396 C 0.75844 0.5277 0.27275 0.0
C397 C 0.75988 0.52158 0.22883 0.0
C398 C 0.76673 0.51506 0.29491 0.0
C399 C 0.78038 0.48294 0.29699 0.0
C400 C 0.76333 0.50776 0.25277 0.0
C401 C 0.78375 0.46345 0.27671 0.0
C402 C 0.75835 0.50031 0.20927 0.0
C403 C 0.76687 0.5685 0.20364 0.0
N404 N 0.77543 0.47621 0.25543 0.0
N405 N 0.76321 0.55505 0.22538 0.0
H406 H 0.50845 0.86444 0.81115 0.0
H407 H 0.49775 0.76371 0.69049 0.0
H408 H 0.52586 0.75823 0.80768 0.0
H409 H 0.45923 0.86335 0.70064 0.0
H410 H 0.51155 0.76112 0.73256 0.0
H411 H 0.49255 0.8643 0.76994 0.0
C412 C 0.50863 0.84098 0.8017 0.0
C413 C 0.51846 0.8113 0.81278 0.0
C414 C 0.50008 0.78349 0.72549 0.0
C415 C 0.50078 0.81099 0.76536 0.0
C416 C 0.49246 0.78507 0.70152 0.0
C417 C 0.47744 0.81383 0.69211 0.0
C418 C 0.49284 0.81097 0.73995 0.0
C419 C 0.47081 0.8407 0.70714 0.0
C420 C 0.49959 0.84091 0.77813 0.0
C421 C 0.51822 0.78161 0.79974 0.0
N422 N 0.4786 0.83862 0.73025 0.0
N423 N 0.50981 0.78222 0.77656 0.0
H424 H 0.80397 0.58685 0.78019 0.0
H425 H 0.80525 0.4242 0.70402 0.0
H426 H 0.78758 0.48925 0.81018 0.0
H427 H 0.78471 0.52088 0.67373 0.0
H428 H 0.79631 0.44744 0.74305 0.0
H429 H 0.79392 0.56384 0.74115 0.0
C430 C 0.79775 0.56063 0.77854 0.0
C431 C 0.79703 0.53974 0.79831 0.0
C432 C 0.79326 0.46351 0.72789 0.0
C433 C 0.786 0.51324 0.75379 0.0
C434 C 0.79858 0.45032 0.70563 0.0
C435 C 0.79615 0.47084 0.68574 0.0
C436 C 0.78614 0.49764 0.7303 0.0
C437 C 0.78702 0.50435 0.6887 0.0
C438 C 0.79191 0.54756 0.75628 0.0
C439 C 0.78855 0.50611 0.79531 0.0
N440 N 0.7829 0.51692 0.71067 0.0
N441 N 0.78397 0.49371 0.77336 0.0
H442 H 0.43857 0.81825 0.29149 0.0
H443 H 0.58078 0.78273 0.19961 0.0
H444 H 0.53156 0.7728 0.31297 0.0
H445 H 0.47643 0.78546 0.18055 0.0
H446 H 0.56479 0.77959 0.24107 0.0
H447 H 0.4533 0.80837 0.25059 0.0
C448 C 0.46217 0.80618 0.28756 0.0
C449 C 0.48405 0.79657 0.30559 0.0
C450 C 0.54543 0.78028 0.22778 0.0
C451 C 0.5011 0.78526 0.25874 0.0
C452 C 0.5545 0.78208 0.20415 0.0
C453 C 0.52985 0.78461 0.18668 0.0
C454 C 0.51151 0.78172 0.23393 0.0
C455 C 0.49621 0.78361 0.19347 0.0
C456 C 0.47041 0.80029 0.26421 0.0
C457 C 0.51409 0.78068 0.29953 0.0
N458 N 0.48802 0.78282 0.21661 0.0
N459 N 0.522 0.77589 0.27652 0.0
H460 H 0.23344 0.49924 0.81956 0.0
H461 H 0.23347 0.46757 0.68098 0.0
H462 H 0.22621 0.40132 0.78852 0.0
H463 H 0.20337 0.55948 0.71427 0.0
H464 H 0.24801 0.44472 0.7198 0.0
H465 H 0.24118 0.5231 0.78034 0.0
C466 C 0.23443 0.48267 0.80456 0.0
C467 C 0.2286 0.44838 0.80716 0.0
C468 C 0.23864 0.47004 0.71848 0.0
C469 C 0.23709 0.47541 0.76244 0.0
C470 C 0.23035 0.48302 0.69642 0.0
C471 C 0.21667 0.51516 0.69459 0.0
C472 C 0.23369 0.48966 0.73862 0.0
C473 C 0.21328 0.53433 0.71502 0.0
C474 C 0.2386 0.4963 0.7822 0.0
C475 C 0.23013 0.428 0.78717 0.0
N476 N 0.22158 0.52123 0.7362 0.0
N477 N 0.23377 0.44188 0.76556 0.0
H478 H 0.53569 0.12949 0.29802 0.0
H479 H 0.47991 0.23911 0.18736 0.0
H480 H 0.50523 0.23241 0.3049 0.0
H481 H 0.48234 0.1314 0.18822 0.0
H482 H 0.49559 0.23918 0.22917 0.0
H483 H 0.52183 0.1316 0.25646 0.0
C484 C 0.52587 0.15253 0.29077 0.0
C485 C 0.52145 0.18079 0.3049 0.0
C486 C 0.49279 0.21561 0.2201 0.0
C487 C 0.50588 0.18353 0.25716 0.0
C488 C 0.48416 0.21556 0.19627 0.0
C489 C 0.47984 0.1852 0.18442 0.0
C490 C 0.49747 0.18508 0.23187 0.0
C491 C 0.48531 0.15537 0.19673 0.0
C492 C 0.51798 0.15373 0.26702 0.0
C493 C 0.50872 0.21001 0.29458 0.0
N494 N 0.49384 0.15607 0.21975 0.0
N495 N 0.50151 0.21072 0.27121 0.0
H496 H 0.22792 0.45832 0.94059 0.0
H497 H 0.12525 0.41012 0.05546 0.0
H498 H 0.12597 0.42327 0.94119 0.0
H499 H 0.21852 0.4638 0.05967 0.0
H500 H 0.12647 0.41535 0.01313 0.0
H501 H 0.22617 0.46225 0.98371 0.0
C502 C 0.20509 0.45193 0.94975 0.0
C503 C 0.17716 0.44011 0.93739 0.0
C504 C 0.14668 0.42623 0.02318 0.0
C505 C 0.17509 0.44425 0.98631 0.0
C506 C 0.14606 0.42311 0.04742 0.0
C507 C 0.1719 0.43644 0.06108 0.0
C508 C 0.17354 0.44255 0.01227 0.0
C509 C 0.19812 0.45316 0.04969 0.0
C510 C 0.20414 0.45409 0.97429 0.0
C511 C 0.14822 0.43213 0.95002 0.0
N512 N 0.19844 0.45556 0.02582 0.0
N513 N 0.14806 0.43411 0.97372 0.0
H514 H 0.48175 0.21135 0.4361 0.0
H515 H 0.57665 0.25007 0.55543 0.0
H516 H 0.58416 0.24356 0.44211 0.0
H517 H 0.47654 0.21068 0.55319 0.0
H518 H 0.57349 0.26196 0.51357 0.0
H519 H 0.47352 0.2241 0.47793 0.0
C520 C 0.50217 0.22199 0.44607 0.0
C521 C 0.53381 0.22597 0.43586 0.0
C522 C 0.5519 0.25122 0.52217 0.0
C523 C 0.52473 0.2404 0.48339 0.0
C524 C 0.5537 0.24454 0.5461 0.0
C525 C 0.52698 0.22902 0.55757 0.0
C526 C 0.52349 0.24144 0.50943 0.0
C527 C 0.49769 0.2226 0.54483 0.0
C528 C 0.49754 0.22909 0.46993 0.0
C529 C 0.55951 0.23967 0.44946 0.0
N530 N 0.49696 0.22813 0.52122 0.0
N531 N 0.55451 0.24602 0.47254 0.0
H532 H 0.87445 0.54919 0.05302 0.0
H533 H 0.77362 0.53407 0.93219 0.0
H534 H 0.76701 0.54066 0.0509 0.0
H535 H 0.87643 0.56487 0.93918 0.0
H536 H 0.77133 0.52519 0.97501 0.0
H537 H 0.87627 0.54214 0.01068 0.0
C538 C 0.85121 0.54545 0.0436 0.0
C539 C 0.8205 0.54601 0.05536 0.0
C540 C 0.7944 0.53359 0.96703 0.0
C541 C 0.8223 0.53851 0.00671 0.0
C542 C 0.79573 0.53859 0.94269 0.0
C543 C 0.82514 0.55058 0.93228 0.0
C544 C 0.82285 0.54019 0.98075 0.0
C545 C 0.85312 0.55603 0.94655 0.0
C546 C 0.85224 0.54151 0.0194 0.0
C547 C 0.79118 0.54057 0.04238 0.0
N548 N 0.85124 0.55088 0.96999 0.0
N549 N 0.79273 0.53753 0.01858 0.0
H550 H 0.51681 0.78627 0.56011 0.0
H551 H 0.42039 0.74808 0.4413 0.0
H552 H 0.41436 0.75395 0.55473 0.0
H553 H 0.52103 0.78618 0.44295 0.0
H554 H 0.42385 0.7363 0.48316 0.0
H555 H 0.5245 0.7736 0.51821 0.0
C556 C 0.49626 0.77564 0.55026 0.0
C557 C 0.46476 0.77159 0.56068 0.0
C558 C 0.44549 0.74672 0.47443 0.0
C559 C 0.47323 0.75726 0.51306 0.0
C560 C 0.44352 0.75332 0.4505 0.0
C561 C 0.47032 0.76844 0.43885 0.0
C562 C 0.47416 0.75618 0.48701 0.0
C563 C 0.49982 0.77454 0.45143 0.0
C564 C 0.50059 0.76859 0.52636 0.0
C565 C 0.4389 0.75791 0.54723 0.0
N566 N 0.50072 0.76911 0.47505 0.0
N567 N 0.44361 0.7516 0.5241 0.0
H568 H 0.21378 0.50651 0.43926 0.0
H569 H 0.21837 0.60699 0.56018 0.0
H570 H 0.20224 0.61305 0.44685 0.0
H571 H 0.21443 0.49947 0.55777 0.0
H572 H 0.22549 0.60845 0.51785 0.0
H573 H 0.22553 0.50237 0.48165 0.0
C574 C 0.21422 0.529 0.44979 0.0
C575 C 0.20658 0.56011 0.43973 0.0
C576 C 0.22339 0.58442 0.52647 0.0
C577 C 0.22016 0.55566 0.48773 0.0
C578 C 0.21939 0.5836 0.55066 0.0
C579 C 0.2153 0.5531 0.56231 0.0
C580 C 0.22263 0.55451 0.51367 0.0
C581 C 0.21733 0.52349 0.54928 0.0
C582 C 0.22084 0.52663 0.47389 0.0
C583 C 0.20749 0.58852 0.45399 0.0
N584 N 0.22025 0.52491 0.52545 0.0
N585 N 0.21395 0.58557 0.47722 0.0
H586 H 0.52249 0.19386 0.94288 0.0
H587 H 0.4163 0.25076 0.04889 0.0
H588 H 0.44161 0.26438 0.93534 0.0
H589 H 0.51665 0.2134 0.05775 0.0
H590 H 0.42856 0.26279 0.00776 0.0
H591 H 0.52567 0.2072 0.98465 0.0
C592 C 0.50604 0.21288 0.94992 0.0
C593 C 0.48143 0.22768 0.93577 0.0
C594 C 0.44823 0.25274 0.01879 0.0
C595 C 0.48425 0.24238 0.98362 0.0
C596 C 0.44119 0.24582 0.04226 0.0
C597 C 0.46538 0.23067 0.05658 0.0
C598 C 0.47938 0.24357 0.00942 0.0
C599 C 0.49727 0.22493 0.04721 0.0
C600 C 0.50782 0.22048 0.97378 0.0
C601 C 0.46082 0.25223 0.9457 0.0
N602 N 0.50313 0.23062 0.02403 0.0
N603 N 0.46209 0.25819 0.96917 0.0
H604 H 0.77847 0.39299 0.43207 0.0
H605 H 0.78255 0.49565 0.55213 0.0
H606 H 0.78196 0.50057 0.43347 0.0
H607 H 0.79514 0.38911 0.54537 0.0
H608 H 0.77083 0.499 0.50968 0.0
H609 H 0.77149 0.3923 0.47442 0.0
C610 C 0.77737 0.41655 0.44137 0.0
C611 C 0.7813 0.44685 0.42943 0.0
C612 C 0.77576 0.47492 0.51764 0.0
C613 C 0.77414 0.44633 0.4781 0.0
C614 C 0.78237 0.473 0.54177 0.0
C615 C 0.79027 0.44213 0.55207 0.0
C616 C 0.77671 0.44567 0.50404 0.0
C617 C 0.78969 0.41349 0.53804 0.0
C618 C 0.77346 0.41618 0.46557 0.0
C619 C 0.77918 0.4767 0.44219 0.0
N620 N 0.78321 0.416 0.51479 0.0
N621 N 0.77635 0.47571 0.46603 0.0
H622 H 0.54413 0.72753 0.06347 0.0
H623 H 0.57842 0.74231 0.94663 0.0
H624 H 0.4839 0.81463 0.04909 0.0
H625 H 0.48095 0.78691 0.93838 0.0
H626 H 0.56592 0.73132 0.98777 0.0
H627 H 0.54066 0.71222 0.02191 0.0
C628 C 0.52947 0.74296 0.05169 0.0
C629 C 0.51491 0.77279 0.05955 0.0
C630 C 0.54666 0.74231 0.97686 0.0
C631 C 0.51164 0.75604 0.01207 0.0
C632 C 0.55394 0.74882 0.95336 0.0
C633 C 0.53079 0.7658 0.93921 0.0
C634 C 0.51624 0.75348 0.98637 0.0
C635 C 0.49949 0.77379 0.94875 0.0
C636 C 0.52786 0.73445 0.02792 0.0
C637 C 0.49603 0.79175 0.0436 0.0
N638 N 0.49347 0.76841 0.97195 0.0
N639 N 0.49534 0.78332 0.02054 0.0
H640 H 0.18624 0.30324 0.1155 0.0
H641 H 0.36013 0.23807 0.16747 0.0
H642 H 0.24779 0.35503 0.1657 0.0
H643 H 0.3179 0.19912 0.10345 0.0
H644 H 0.30937 0.27032 0.17386 0.0
H645 H 0.22521 0.25536 0.11732 0.0
C646 C 0.20746 0.30409 0.1273 0.0
C647 C 0.21423 0.33296 0.14032 0.0
C648 C 0.31093 0.25445 0.15853 0.0
C649 C 0.25823 0.27896 0.14261 0.0
C650 C 0.33991 0.23601 0.15488 0.0
C651 C 0.34339 0.21649 0.13466 0.0
C652 C 0.28535 0.25382 0.14166 0.0
C653 C 0.31622 0.21421 0.11915 0.0
C654 C 0.22968 0.277 0.12824 0.0
C655 C 0.24202 0.33324 0.15522 0.0
N656 N 0.28843 0.23324 0.12273 0.0
N657 N 0.26305 0.30676 0.15588 0.0
H658 H 0.79457 0.3103 0.61237 0.0
H659 H 0.61545 0.26088 0.66347 0.0
H660 H 0.73393 0.37118 0.65796 0.0
H661 H 0.6655 0.20194 0.61083 0.0
H662 H 0.66537 0.29481 0.66771 0.0
H663 H 0.75407 0.26437 0.61711 0.0
C664 C 0.77312 0.31369 0.62371 0.0
C665 C 0.76716 0.34455 0.63454 0.0
C666 C 0.66574 0.27432 0.65533 0.0
C667 C 0.72126 0.29269 0.64009 0.0
C668 C 0.63719 0.25494 0.65293 0.0
C669 C 0.63628 0.22901 0.63651 0.0
C670 C 0.6935 0.26824 0.64087 0.0
C671 C 0.66527 0.22195 0.62358 0.0
C672 C 0.75002 0.28765 0.62633 0.0
C673 C 0.73911 0.34791 0.64901 0.0
N674 N 0.69266 0.24192 0.62571 0.0
N675 N 0.71717 0.32243 0.65123 0.0
H676 H 0.76383 0.66236 0.0764 0.0
H677 H 0.67 0.80664 0.14431 0.0
H678 H 0.79338 0.69508 0.14539 0.0
H679 H 0.64806 0.77654 0.0733 0.0
H680 H 0.72215 0.77445 0.14266 0.0
H681 H 0.72899 0.71192 0.07232 0.0
C682 C 0.76336 0.6804 0.09055 0.0
C683 C 0.78107 0.67454 0.11137 0.0
C684 C 0.70628 0.77551 0.12727 0.0
C685 C 0.74047 0.73099 0.10717 0.0
C686 C 0.67659 0.79399 0.12817 0.0
C687 C 0.65447 0.79371 0.10905 0.0
C688 C 0.71366 0.75668 0.10712 0.0
C689 C 0.66417 0.77696 0.08857 0.0
C690 C 0.74344 0.70872 0.08825 0.0
C691 C 0.77993 0.69876 0.12909 0.0
N692 N 0.69277 0.75874 0.08828 0.0
N693 N 0.7593 0.72567 0.12682 0.0
H694 H 0.19965 0.67793 0.62221 0.0
H695 H 0.37392 0.74599 0.67073 0.0
H696 H 0.26529 0.62571 0.66986 0.0
H697 H 0.32149 0.7931 0.61335 0.0
H698 H 0.32617 0.70968 0.67721 0.0
H699 H 0.23618 0.7273 0.62493 0.0
C700 C 0.22128 0.6772 0.63365 0.0
C701 C 0.22985 0.64778 0.64563 0.0
C702 C 0.3248 0.72813 0.66332 0.0
C703 C 0.27132 0.70358 0.64886 0.0
C704 C 0.35209 0.74889 0.65963 0.0
C705 C 0.35178 0.77209 0.64122 0.0
C706 C 0.29712 0.73007 0.64821 0.0
C707 C 0.32268 0.77526 0.62762 0.0
C708 C 0.24215 0.7052 0.6351 0.0
C709 C 0.25811 0.64784 0.66011 0.0
N710 N 0.29661 0.75396 0.6311 0.0
N711 N 0.27791 0.67518 0.66119 0.0
H712 H 0.33082 0.80165 0.38513 0.0
H713 H 0.25325 0.63684 0.3288 0.0
H714 H 0.37954 0.73782 0.33472 0.0
H715 H 0.20453 0.6904 0.38474 0.0
H716 H 0.29342 0.68198 0.32493 0.0
H717 H 0.27915 0.76901 0.38013 0.0
C718 C 0.33042 0.78117 0.37274 0.0
C719 C 0.35949 0.77199 0.36056 0.0
C720 C 0.2738 0.68426 0.33792 0.0
C721 C 0.30094 0.73499 0.35469 0.0
C722 C 0.25081 0.6585 0.34006 0.0
C723 C 0.22596 0.65988 0.35728 0.0
C724 C 0.27251 0.71133 0.35353 0.0
C725 C 0.22353 0.68855 0.37127 0.0
C726 C 0.30105 0.76256 0.36994 0.0
C727 C 0.35781 0.74537 0.34473 0.0
N728 N 0.24706 0.71301 0.36943 0.0
N729 N 0.32917 0.72773 0.34238 0.0
H730 H 0.34728 0.21219 0.92202 0.0
H731 H 0.2033 0.298 0.84575 0.0
H732 H 0.33103 0.19063 0.84872 0.0
H733 H 0.24095 0.33441 0.91185 0.0
H734 H 0.23798 0.24754 0.85048 0.0
H735 H 0.29565 0.24466 0.92246 0.0
C736 C 0.33243 0.21365 0.90614 0.0
C737 C 0.34376 0.19928 0.88519 0.0
C738 C 0.23805 0.26632 0.86413 0.0
C739 C 0.28497 0.23692 0.88545 0.0
C740 C 0.21823 0.29495 0.86148 0.0
C741 C 0.21978 0.32043 0.87829 0.0
C742 C 0.25899 0.26322 0.88387 0.0
C743 C 0.2395 0.31549 0.89833 0.0
C744 C 0.30302 0.23232 0.90637 0.0
C745 C 0.32334 0.20168 0.86519 0.0
N746 N 0.2585 0.28761 0.90047 0.0
N747 N 0.29519 0.22078 0.86567 0.0
H748 H 0.67838 0.20248 0.38213 0.0
H749 H 0.73513 0.37114 0.32015 0.0
H750 H 0.62392 0.25348 0.32736 0.0
H751 H 0.79541 0.32208 0.37266 0.0
H752 H 0.69948 0.32214 0.31808 0.0
H753 H 0.72619 0.2398 0.37504 0.0
C754 C 0.67677 0.22108 0.36834 0.0
C755 C 0.64707 0.22538 0.35557 0.0
C756 C 0.72069 0.32168 0.32989 0.0
C757 C 0.70121 0.26784 0.34739 0.0
C758 C 0.74107 0.34968 0.33102 0.0
C759 C 0.76791 0.35061 0.34675 0.0
C760 C 0.7266 0.29462 0.34509 0.0
C761 C 0.77482 0.32217 0.36032 0.0
C762 C 0.70396 0.24237 0.36433 0.0
C763 C 0.64616 0.24972 0.3379 0.0
N764 N 0.75381 0.29543 0.35954 0.0
N765 N 0.67265 0.27016 0.3345 0.0
H766 H 0.7614 0.64928 0.82666 0.0
H767 H 0.6802 0.7985 0.89767 0.0
H768 H 0.80783 0.69038 0.8884 0.0
H769 H 0.64431 0.76204 0.83108 0.0
H770 H 0.73169 0.76585 0.89229 0.0
H771 H 0.72352 0.69682 0.82518 0.0
C772 C 0.76389 0.66884 0.83968 0.0
C773 C 0.78748 0.66613 0.85769 0.0
C774 C 0.7128 0.76555 0.87868 0.0
C775 C 0.74348 0.72013 0.85673 0.0
C776 C 0.68348 0.7842 0.88172 0.0
C777 C 0.65781 0.78242 0.86497 0.0
C778 C 0.71622 0.74514 0.85876 0.0
C779 C 0.66325 0.76363 0.84462 0.0
C780 C 0.74225 0.69597 0.8389 0.0
C781 C 0.78989 0.69189 0.8742 0.0
N782 N 0.69163 0.74547 0.84223 0.0
N783 N 0.76759 0.71766 0.87363 0.0
loop_
_geom_bond_atom_site_label_1
_geom_bond_atom_site_label_2
_geom_bond_distance
_geom_bond_site_symmetry_2
_ccdc_geom_bond_type
In0 O1 2.294 . S
In0 O2 2.326 . S
In0 O6 2.266 . S
In0 O7 2.326 . S
In0 O8 2.266 . S
In0 O9 2.326 . S
In0 O11 2.294 . S
In0 O12 2.326 . S
O1 In0 2.294 . S
O1 C10 1.240 . S
O2 In0 2.326 . S
O2 C10 1.252 . S
C3 O6 1.252 . S
C3 O7 1.260 . S
C4 O11 1.240 . S
C4 O12 1.252 . S
C5 O8 1.252 . S
C5 O9 1.260 . S
O6 In0 2.266 . S
O6 C3 1.252 . S
O7 In0 2.326 . S
O7 C3 1.260 . S
O8 In0 2.266 . S
O8 C5 1.252 . S
O9 In0 2.326 . S
O9 C5 1.260 . S
C10 O1 1.240 . S
C10 O2 1.252 . S
O11 In0 2.294 . S
O11 C4 1.240 . S
O12 In0 2.326 . S
O12 C4 1.252 . S
In13 O14 2.294 . S
In13 O15 2.326 . S
In13 O19 2.266 . S
In13 O20 2.326 . S
In13 O21 2.266 . S
In13 O22 2.326 . S
In13 O24 2.294 . S
In13 O25 2.326 . S
O14 In13 2.294 . S
O14 C23 1.240 . S
O15 In13 2.326 . S
O15 C23 1.252 . S
C16 O19 1.252 . S
C16 O20 1.260 . S
C17 O24 1.240 . S
C17 O25 1.252 . S
C18 O21 1.252 . S
C18 O22 1.260 . S
O19 In13 2.266 . S
O19 C16 1.252 . S
O20 In13 2.326 . S
O20 C16 1.260 . S
O21 In13 2.266 . S
O21 C18 1.252 . S
O22 In13 2.326 . S
O22 C18 1.260 . S
C23 O14 1.240 . S
C23 O15 1.252 . S
O24 In13 2.294 . S
O24 C17 1.240 . S
O25 In13 2.326 . S
O25 C17 1.252 . S
In26 O27 2.294 . S
In26 O28 2.326 . S
In26 O32 2.266 . S
In26 O33 2.326 . S
In26 O34 2.266 . S
In26 O35 2.326 . S
In26 O37 2.294 . S
In26 O38 2.326 . S
O27 In26 2.294 . S
O27 C36 1.240 . S
O28 In26 2.326 . S
O28 C36 1.252 . S
C29 O32 1.252 . S
C29 O33 1.260 . S
C30 O37 1.240 . S
C30 O38 1.252 . S
C31 O34 1.252 . S
C31 O35 1.260 . S
O32 In26 2.266 . S
O32 C29 1.252 . S
O33 In26 2.326 . S
O33 C29 1.260 . S
O34 In26 2.266 . S
O34 C31 1.252 . S
O35 In26 2.326 . S
O35 C31 1.260 . S
C36 O27 1.240 . S
C36 O28 1.252 . S
O37 In26 2.294 . S
O37 C30 1.240 . S
O38 In26 2.326 . S
O38 C30 1.252 . S
In39 O40 2.294 . S
In39 O41 2.326 . S
In39 O45 2.266 . S
In39 O46 2.326 . S
In39 O47 2.266 . S
In39 O48 2.326 . S
In39 O50 2.294 . S
In39 O51 2.326 . S
O40 In39 2.294 . S
O40 C49 1.240 . S
O41 In39 2.326 . S
O41 C49 1.252 . S
C42 O45 1.252 . S
C42 O46 1.260 . S
C43 O50 1.240 . S
C43 O51 1.252 . S
C44 O47 1.252 . S
C44 O48 1.260 . S
O45 In39 2.266 . S
O45 C42 1.252 . S
O46 In39 2.326 . S
O46 C42 1.260 . S
O47 In39 2.266 . S
O47 C44 1.252 . S
O48 In39 2.326 . S
O48 C44 1.260 . S
C49 O40 1.240 . S
C49 O41 1.252 . S
O50 In39 2.294 . S
O50 C43 1.240 . S
O51 In39 2.326 . S
O51 C43 1.252 . S
In52 O53 2.294 . S
In52 O54 2.326 . S
In52 O58 2.266 . S
In52 O59 2.326 . S
In52 O60 2.266 . S
In52 O61 2.326 . S
In52 O63 2.294 . S
In52 O64 2.326 . S
O53 In52 2.294 . S
O53 C62 1.240 . S
O54 In52 2.326 . S
O54 C62 1.252 . S
C55 O58 1.252 . S
C55 O59 1.260 . S
C56 O63 1.240 . S
C56 O64 1.252 . S
C57 O60 1.252 . S
C57 O61 1.260 . S
O58 In52 2.266 . S
O58 C55 1.252 . S
O59 In52 2.326 . S
O59 C55 1.260 . S
O60 In52 2.266 . S
O60 C57 1.252 . S
O61 In52 2.326 . S
O61 C57 1.260 . S
C62 O53 1.240 . S
C62 O54 1.252 . S
O63 In52 2.294 . S
O63 C56 1.240 . S
O64 In52 2.326 . S
O64 C56 1.252 . S
In65 O66 2.294 . S
In65 O67 2.326 . S
In65 O71 2.266 . S
In65 O72 2.326 . S
In65 O73 2.266 . S
In65 O74 2.326 . S
In65 O76 2.294 . S
In65 O77 2.326 . S
O66 In65 2.294 . S
O66 C75 1.240 . S
O67 In65 2.326 . S
O67 C75 1.252 . S
C68 O71 1.252 . S
C68 O72 1.260 . S
C69 O76 1.240 . S
C69 O77 1.252 . S
C70 O73 1.252 . S
C70 O74 1.260 . S
O71 In65 2.266 . S
O71 C68 1.252 . S
O72 In65 2.326 . S
O72 C68 1.260 . S
O73 In65 2.266 . S
O73 C70 1.252 . S
O74 In65 2.326 . S
O74 C70 1.260 . S
C75 O66 1.240 . S
C75 O67 1.252 . S
O76 In65 2.294 . S
O76 C69 1.240 . S
O77 In65 2.326 . S
O77 C69 1.252 . S
In78 O79 2.294 . S
In78 O80 2.326 . S
In78 O84 2.266 . S
In78 O85 2.326 . S
In78 O86 2.266 . S
In78 O87 2.326 . S
In78 O89 2.294 . S
In78 O90 2.326 . S
O79 In78 2.294 . S
O79 C88 1.240 . S
O80 In78 2.326 . S
O80 C88 1.252 . S
C81 O84 1.252 . S
C81 O85 1.260 . S
C82 O89 1.240 . S
C82 O90 1.252 . S
C83 O86 1.252 . S
C83 O87 1.260 . S
O84 In78 2.266 . S
O84 C81 1.252 . S
O85 In78 2.326 . S
O85 C81 1.260 . S
O86 In78 2.266 . S
O86 C83 1.252 . S
O87 In78 2.326 . S
O87 C83 1.260 . S
C88 O79 1.240 . S
C88 O80 1.252 . S
O89 In78 2.294 . S
O89 C82 1.240 . S
O90 In78 2.326 . S
O90 C82 1.252 . S
In91 O92 2.294 . S
In91 O93 2.326 . S
In91 O97 2.266 . S
In91 O98 2.326 . S
In91 O99 2.266 . S
In91 O100 2.326 . S
In91 O102 2.294 . S
In91 O103 2.326 . S
O92 In91 2.294 . S
O92 C101 1.240 . S
O93 In91 2.326 . S
O93 C101 1.252 . S
C94 O97 1.252 . S
C94 O98 1.260 . S
C95 O102 1.240 . S
C95 O103 1.252 . S
C96 O99 1.252 . S
C96 O100 1.260 . S
O97 In91 2.266 . S
O97 C94 1.252 . S
O98 In91 2.326 . S
O98 C94 1.260 . S
O99 In91 2.266 . S
O99 C96 1.252 . S
O100 In91 2.326 . S
O100 C96 1.260 . S
C101 O92 1.240 . S
C101 O93 1.252 . S
O102 In91 2.294 . S
O102 C95 1.240 . S
O103 In91 2.326 . S
O103 C95 1.252 . S
In104 O105 2.294 . S
In104 O106 2.326 . S
In104 O110 2.266 . S
In104 O111 2.326 . S
In104 O112 2.266 . S
In104 O113 2.326 . S
In104 O115 2.294 . S
In104 O116 2.326 . S
O105 In104 2.294 . S
O105 C114 1.240 . S
O106 In104 2.326 . S
O106 C114 1.252 . S
C107 O110 1.252 . S
C107 O111 1.260 . S
C108 O115 1.240 . S
C108 O116 1.252 . S
C109 O112 1.252 . S
C109 O113 1.260 . S
O110 In104 2.266 . S
O110 C107 1.252 . S
O111 In104 2.326 . S
O111 C107 1.260 . S
O112 In104 2.266 . S
O112 C109 1.252 . S
O113 In104 2.326 . S
O113 C109 1.260 . S
C114 O105 1.240 . S
C114 O106 1.252 . S
O115 In104 2.294 . S
O115 C108 1.240 . S
O116 In104 2.326 . S
O116 C108 1.252 . S
In117 O118 2.294 . S
In117 O119 2.326 . S
In117 O123 2.266 . S
In117 O124 2.326 . S
In117 O125 2.266 . S
In117 O126 2.326 . S
In117 O128 2.294 . S
In117 O129 2.326 . S
O118 In117 2.294 . S
O118 C127 1.240 . S
O119 In117 2.326 . S
O119 C127 1.252 . S
C120 O123 1.252 . S
C120 O124 1.260 . S
C121 O128 1.240 . S
C121 O129 1.252 . S
C122 O125 1.252 . S
C122 O126 1.260 . S
O123 In117 2.266 . S
O123 C120 1.252 . S
O124 In117 2.326 . S
O124 C120 1.260 . S
O125 In117 2.266 . S
O125 C122 1.252 . S
O126 In117 2.326 . S
O126 C122 1.260 . S
C127 O118 1.240 . S
C127 O119 1.252 . S
O128 In117 2.294 . S
O128 C121 1.240 . S
O129 In117 2.326 . S
O129 C121 1.252 . S
In130 O131 2.294 . S
In130 O132 2.326 . S
In130 O136 2.266 . S
In130 O137 2.326 . S
In130 O138 2.266 . S
In130 O139 2.326 . S
In130 O141 2.294 . S
In130 O142 2.326 . S
O131 In130 2.294 . S
O131 C140 1.240 . S
O132 In130 2.326 . S
O132 C140 1.252 . S
C133 O136 1.252 . S
C133 O137 1.260 . S
C134 O141 1.240 . S
C134 O142 1.252 . S
C135 O138 1.252 . S
C135 O139 1.260 . S
O136 In130 2.266 . S
O136 C133 1.252 . S
O137 In130 2.326 . S
O137 C133 1.260 . S
O138 In130 2.266 . S
O138 C135 1.252 . S
O139 In130 2.326 . S
O139 C135 1.260 . S
C140 O131 1.240 . S
C140 O132 1.252 . S
O141 In130 2.294 . S
O141 C134 1.240 . S
O142 In130 2.326 . S
O142 C134 1.252 . S
In143 O144 2.294 . S
In143 O145 2.326 . S
In143 O149 2.266 . S
In143 O150 2.326 . S
In143 O151 2.266 . S
In143 O152 2.326 . S
In143 O154 2.294 . S
In143 O155 2.326 . S
O144 In143 2.294 . S
O144 C153 1.240 . S
O145 In143 2.326 . S
O145 C153 1.252 . S
C146 O149 1.252 . S
C146 O150 1.260 . S
C147 O154 1.240 . S
C147 O155 1.252 . S
C148 O151 1.252 . S
C148 O152 1.260 . S
O149 In143 2.266 . S
O149 C146 1.252 . S
O150 In143 2.326 . S
O150 C146 1.260 . S
O151 In143 2.266 . S
O151 C148 1.252 . S
O152 In143 2.326 . S
O152 C148 1.260 . S
C153 O144 1.240 . S
C153 O145 1.252 . S
O154 In143 2.294 . S
O154 C147 1.240 . S
O155 In143 2.326 . S
O155 C147 1.252 . S
In156 O157 2.294 . S
In156 O158 2.326 . S
In156 O162 2.266 . S
In156 O163 2.326 . S
In156 O164 2.266 . S
In156 O165 2.326 . S
In156 O167 2.294 . S
In156 O168 2.326 . S
O157 In156 2.294 . S
O157 C166 1.240 . S
O158 In156 2.326 . S
O158 C166 1.252 . S
C159 O162 1.252 . S
C159 O163 1.260 . S
C160 O167 1.240 . S
C160 O168 1.252 . S
C161 O164 1.252 . S
C161 O165 1.260 . S
O162 In156 2.266 . S
O162 C159 1.252 . S
O163 In156 2.326 . S
O163 C159 1.260 . S
O164 In156 2.266 . S
O164 C161 1.252 . S
O165 In156 2.326 . S
O165 C161 1.260 . S
C166 O157 1.240 . S
C166 O158 1.252 . S
O167 In156 2.294 . S
O167 C160 1.240 . S
O168 In156 2.326 . S
O168 C160 1.252 . S
In169 O170 2.294 . S
In169 O171 2.326 . S
In169 O175 2.266 . S
In169 O176 2.326 . S
In169 O177 2.266 . S
In169 O178 2.326 . S
In169 O180 2.294 . S
In169 O181 2.326 . S
O170 In169 2.294 . S
O170 C179 1.240 . S
O171 In169 2.326 . S
O171 C179 1.252 . S
C172 O175 1.252 . S
C172 O176 1.260 . S
C173 O180 1.240 . S
C173 O181 1.252 . S
C174 O177 1.252 . S
C174 O178 1.260 . S
O175 In169 2.266 . S
O175 C172 1.252 . S
O176 In169 2.326 . S
O176 C172 1.260 . S
O177 In169 2.266 . S
O177 C174 1.252 . S
O178 In169 2.326 . S
O178 C174 1.260 . S
C179 O170 1.240 . S
C179 O171 1.252 . S
O180 In169 2.294 . S
O180 C173 1.240 . S
O181 In169 2.326 . S
O181 C173 1.252 . S
In182 O183 2.294 . S
In182 O184 2.326 . S
In182 O188 2.266 . S
In182 O189 2.326 . S
In182 O190 2.266 . S
In182 O191 2.326 . S
In182 O193 2.294 . S
In182 O194 2.326 . S
O183 In182 2.294 . S
O183 C192 1.240 . S
O184 In182 2.326 . S
O184 C192 1.252 . S
C185 O188 1.252 . S
C185 O189 1.260 . S
C186 O193 1.240 . S
C186 O194 1.252 . S
C187 O190 1.252 . S
C187 O191 1.260 . S
O188 In182 2.266 . S
O188 C185 1.252 . S
O189 In182 2.326 . S
O189 C185 1.260 . S
O190 In182 2.266 . S
O190 C187 1.252 . S
O191 In182 2.326 . S
O191 C187 1.260 . S
C192 O183 1.240 . S
C192 O184 1.252 . S
O193 In182 2.294 . S
O193 C186 1.240 . S
O194 In182 2.326 . S
O194 C186 1.252 . S
In195 O196 2.294 . S
In195 O197 2.326 . S
In195 O201 2.266 . S
In195 O202 2.326 . S
In195 O203 2.266 . S
In195 O204 2.326 . S
In195 O206 2.294 . S
In195 O207 2.326 . S
O196 In195 2.294 . S
O196 C205 1.240 . S
O197 In195 2.326 . S
O197 C205 1.252 . S
C198 O201 1.252 . S
C198 O202 1.260 . S
C199 O206 1.240 . S
C199 O207 1.252 . S
C200 O203 1.252 . S
C200 O204 1.260 . S
O201 In195 2.266 . S
O201 C198 1.252 . S
O202 In195 2.326 . S
O202 C198 1.260 . S
O203 In195 2.266 . S
O203 C200 1.252 . S
O204 In195 2.326 . S
O204 C200 1.260 . S
C205 O196 1.240 . S
C205 O197 1.252 . S
O206 In195 2.294 . S
O206 C199 1.240 . S
O207 In195 2.326 . S
O207 C199 1.252 . S
H208 C214 0.930 . S
H209 C218 0.930 . S
H210 C223 0.929 . S
H211 C221 0.929 . S
H212 C216 0.929 . S
H213 C222 0.929 . S
C214 H208 0.930 . S
C214 C215 1.367 . S
C214 C222 1.378 . S
C215 C214 1.367 . S
C215 C223 1.433 . S
C216 H212 0.929 . S
C216 C218 1.378 . S
C216 C220 1.350 . S
C217 C220 1.463 1_455 S
C217 C222 1.350 . S
C217 N225 1.427 . S
C218 H209 0.930 . S
C218 C216 1.378 . S
C218 C219 1.367 . S
C219 C218 1.367 . S
C219 C221 1.433 . S
C220 C216 1.350 . S
C220 C217 1.463 1_655 S
C220 N224 1.427 . S
C221 H211 0.929 . S
C221 C219 1.433 . S
C221 N224 1.384 . S
C222 H213 0.929 . S
C222 C214 1.378 . S
C222 C217 1.350 . S
C223 H210 0.929 . S
C223 C215 1.433 . S
C223 N225 1.384 . S
N224 C220 1.427 . S
N224 C221 1.384 . S
N225 C217 1.427 . S
N225 C223 1.384 . S
H226 C232 0.930 . S
H227 C236 0.930 . S
H228 C241 0.929 . S
H229 C239 0.929 . S
H230 C234 0.929 1_565 S
H231 C240 0.929 1_545 S
C232 H226 0.930 . S
C232 C233 1.367 . S
C232 C240 1.378 . S
C233 C232 1.367 . S
C233 C241 1.433 . S
C234 H230 0.929 1_545 S
C234 C236 1.378 . S
C234 C238 1.350 . S
C235 C238 1.463 1_565 S
C235 C240 1.350 . S
C235 N243 1.427 . S
C236 H227 0.930 . S
C236 C234 1.378 . S
C236 C237 1.367 . S
C237 C236 1.367 . S
C237 C239 1.433 . S
C238 C234 1.350 . S
C238 C235 1.463 1_545 S
C238 N242 1.427 . S
C239 H229 0.929 . S
C239 C237 1.433 . S
C239 N242 1.384 . S
C240 H231 0.929 1_565 S
C240 C232 1.378 . S
C240 C235 1.350 . S
C241 H228 0.929 . S
C241 C233 1.433 . S
C241 N243 1.384 . S
N242 C238 1.427 . S
N242 C239 1.384 . S
N243 C235 1.427 . S
N243 C241 1.384 . S
H244 C250 0.930 . S
H245 C254 0.930 . S
H246 C259 0.929 . S
H247 C257 0.929 . S
H248 C252 0.929 . S
H249 C258 0.929 . S
C250 H244 0.930 . S
C250 C251 1.367 . S
C250 C258 1.378 . S
C251 C250 1.367 . S
C251 C259 1.433 . S
C252 H248 0.929 . S
C252 C254 1.378 . S
C252 C256 1.350 . S
C253 C256 1.463 1_455 S
C253 C258 1.350 . S
C253 N261 1.427 . S
C254 H245 0.930 . S
C254 C252 1.378 . S
C254 C255 1.367 . S
C255 C254 1.367 . S
C255 C257 1.433 . S
C256 C252 1.350 . S
C256 C253 1.463 1_655 S
C256 N260 1.427 . S
C257 H247 0.929 . S
C257 C255 1.433 . S
C257 N260 1.384 . S
C258 H249 0.929 . S
C258 C250 1.378 . S
C258 C253 1.350 . S
C259 H246 0.929 . S
C259 C251 1.433 . S
C259 N261 1.384 . S
N260 C256 1.427 . S
N260 C257 1.384 . S
N261 C253 1.427 . S
N261 C259 1.384 . S
H262 C268 0.930 . S
H263 C272 0.930 . S
H264 C277 0.929 . S
H265 C275 0.929 . S
H266 C270 0.929 . S
H267 C276 0.929 . S
C268 H262 0.930 . S
C268 C269 1.367 . S
C268 C276 1.378 . S
C269 C268 1.367 . S
C269 C277 1.433 . S
C270 H266 0.929 . S
C270 C272 1.378 . S
C270 C274 1.350 . S
C271 C274 1.463 1_565 S
C271 C276 1.350 . S
C271 N279 1.427 . S
C272 H263 0.930 . S
C272 C270 1.378 . S
C272 C273 1.367 . S
C273 C272 1.367 . S
C273 C275 1.433 . S
C274 C270 1.350 . S
C274 C271 1.463 1_545 S
C274 N278 1.427 . S
C275 H265 0.929 . S
C275 C273 1.433 . S
C275 N278 1.384 . S
C276 H267 0.929 . S
C276 C268 1.378 . S
C276 C271 1.350 . S
C277 H264 0.929 . S
C277 C269 1.433 . S
C277 N279 1.384 . S
N278 C274 1.427 . S
N278 C275 1.384 . S
N279 C271 1.427 . S
N279 C277 1.384 . S
H280 C286 0.930 . S
H281 C290 0.930 . S
H282 C295 0.929 . S
H283 C293 0.929 . S
H284 C288 0.929 . S
H285 C294 0.929 . S
C286 H280 0.930 . S
C286 C287 1.367 . S
C286 C294 1.378 . S
C287 C286 1.367 . S
C287 C295 1.433 . S
C288 H284 0.929 . S
C288 C290 1.378 . S
C288 C292 1.350 . S
C289 C292 1.463 1_655 S
C289 C294 1.350 . S
C289 N297 1.427 . S
C290 H281 0.930 . S
C290 C288 1.378 . S
C290 C291 1.367 . S
C291 C290 1.367 . S
C291 C293 1.433 . S
C292 C288 1.350 . S
C292 C289 1.463 1_455 S
C292 N296 1.427 . S
C293 H283 0.929 . S
C293 C291 1.433 . S
C293 N296 1.384 . S
C294 H285 0.929 . S
C294 C286 1.378 . S
C294 C289 1.350 . S
C295 H282 0.929 . S
C295 C287 1.433 . S
C295 N297 1.384 . S
N296 C292 1.427 . S
N296 C293 1.384 . S
N297 C289 1.427 . S
N297 C295 1.384 . S
H298 C304 0.930 . S
H299 C308 0.930 . S
H300 C313 0.929 . S
H301 C311 0.929 . S
H302 C306 0.929 . S
H303 C312 0.929 . S
C304 H298 0.930 . S
C304 C305 1.367 . S
C304 C312 1.378 . S
C305 C304 1.367 . S
C305 C313 1.433 . S
C306 H302 0.929 . S
C306 C308 1.378 . S
C306 C310 1.350 . S
C307 C310 1.463 1_545 S
C307 C312 1.350 . S
C307 N315 1.427 . S
C308 H299 0.930 . S
C308 C306 1.378 . S
C308 C309 1.367 . S
C309 C308 1.367 . S
C309 C311 1.433 . S
C310 C306 1.350 . S
C310 C307 1.463 1_565 S
C310 N314 1.427 . S
C311 H301 0.929 . S
C311 C309 1.433 . S
C311 N314 1.384 . S
C312 H303 0.929 . S
C312 C304 1.378 . S
C312 C307 1.350 . S
C313 H300 0.929 . S
C313 C305 1.433 . S
C313 N315 1.384 . S
N314 C310 1.427 . S
N314 C311 1.384 . S
N315 C307 1.427 . S
N315 C313 1.384 . S
H316 C322 0.930 . S
H317 C326 0.930 . S
H318 C331 0.929 . S
H319 C329 0.929 . S
H320 C324 0.929 . S
H321 C330 0.929 . S
C322 H316 0.930 . S
C322 C323 1.367 . S
C322 C330 1.378 . S
C323 C322 1.367 . S
C323 C331 1.433 . S
C324 H320 0.929 . S
C324 C326 1.378 . S
C324 C328 1.350 . S
C325 C328 1.463 1_655 S
C325 C330 1.350 . S
C325 N333 1.427 . S
C326 H317 0.930 . S
C326 C324 1.378 . S
C326 C327 1.367 . S
C327 C326 1.367 . S
C327 C329 1.433 . S
C328 C324 1.350 . S
C328 C325 1.463 1_455 S
C328 N332 1.427 . S
C329 H319 0.929 . S
C329 C327 1.433 . S
C329 N332 1.384 . S
C330 H321 0.929 . S
C330 C322 1.378 . S
C330 C325 1.350 . S
C331 H318 0.929 . S
C331 C323 1.433 . S
C331 N333 1.384 . S
N332 C328 1.427 . S
N332 C329 1.384 . S
N333 C325 1.427 . S
N333 C331 1.384 . S
H334 C340 0.930 . S
H335 C344 0.930 . S
H336 C349 0.929 . S
H337 C347 0.929 . S
H338 C342 0.929 . S
H339 C348 0.929 . S
C340 H334 0.930 . S
C340 C341 1.367 . S
C340 C348 1.378 . S
C341 C340 1.367 . S
C341 C349 1.433 . S
C342 H338 0.929 . S
C342 C344 1.378 . S
C342 C346 1.350 . S
C343 C346 1.463 1_545 S
C343 C348 1.350 . S
C343 N351 1.427 . S
C344 H335 0.930 . S
C344 C342 1.378 . S
C344 C345 1.367 . S
C345 C344 1.367 . S
C345 C347 1.433 . S
C346 C342 1.350 . S
C346 C343 1.463 1_565 S
C346 N350 1.427 . S
C347 H337 0.929 . S
C347 C345 1.433 . S
C347 N350 1.384 . S
C348 H339 0.929 . S
C348 C340 1.378 . S
C348 C343 1.350 . S
C349 H336 0.929 . S
C349 C341 1.433 . S
C349 N351 1.384 . S
N350 C346 1.427 . S
N350 C347 1.384 . S
N351 C343 1.427 . S
N351 C349 1.384 . S
H352 C358 0.930 . S
H353 C362 0.930 . S
H354 C367 0.929 . S
H355 C365 0.929 . S
H356 C360 0.929 . S
H357 C366 0.929 . S
C358 H352 0.930 . S
C358 C359 1.367 . S
C358 C366 1.378 . S
C359 C358 1.367 . S
C359 C367 1.433 . S
C360 H356 0.929 . S
C360 C362 1.378 . S
C360 C364 1.350 . S
C361 C364 1.463 . S
C361 C366 1.350 . S
C361 N369 1.427 . S
C362 H353 0.930 . S
C362 C360 1.378 . S
C362 C363 1.367 . S
C363 C362 1.367 . S
C363 C365 1.433 . S
C364 C360 1.350 . S
C364 C361 1.463 . S
C364 N368 1.427 . S
C365 H355 0.929 . S
C365 C363 1.433 . S
C365 N368 1.384 . S
C366 H357 0.929 . S
C366 C358 1.378 . S
C366 C361 1.350 . S
C367 H354 0.929 . S
C367 C359 1.433 . S
C367 N369 1.384 . S
N368 C364 1.427 . S
N368 C365 1.384 . S
N369 C361 1.427 . S
N369 C367 1.384 . S
H370 C376 0.930 . S
H371 C380 0.930 . S
H372 C385 0.929 . S
H373 C383 0.929 . S
H374 C378 0.929 . S
H375 C384 0.929 . S
C376 H370 0.930 . S
C376 C377 1.367 . S
C376 C384 1.378 . S
C377 C376 1.367 . S
C377 C385 1.433 . S
C378 H374 0.929 . S
C378 C380 1.378 . S
C378 C382 1.350 . S
C379 C382 1.463 . S
C379 C384 1.350 . S
C379 N387 1.427 . S
C380 H371 0.930 . S
C380 C378 1.378 . S
C380 C381 1.367 . S
C381 C380 1.367 . S
C381 C383 1.433 . S
C382 C378 1.350 . S
C382 C379 1.463 . S
C382 N386 1.427 . S
C383 H373 0.929 . S
C383 C381 1.433 . S
C383 N386 1.384 . S
C384 H375 0.929 . S
C384 C376 1.378 . S
C384 C379 1.350 . S
C385 H372 0.929 . S
C385 C377 1.433 . S
C385 N387 1.384 . S
N386 C382 1.427 . S
N386 C383 1.384 . S
N387 C379 1.427 . S
N387 C385 1.384 . S
H388 C394 0.930 . S
H389 C398 0.930 . S
H390 C403 0.929 . S
H391 C401 0.929 . S
H392 C396 0.929 . S
H393 C402 0.929 . S
C394 H388 0.930 . S
C394 C395 1.367 . S
C394 C402 1.378 . S
C395 C394 1.367 . S
C395 C403 1.433 . S
C396 H392 0.929 . S
C396 C398 1.378 . S
C396 C400 1.350 . S
C397 C400 1.463 . S
C397 C402 1.350 . S
C397 N405 1.427 . S
C398 H389 0.930 . S
C398 C396 1.378 . S
C398 C399 1.367 . S
C399 C398 1.367 . S
C399 C401 1.433 . S
C400 C396 1.350 . S
C400 C397 1.463 . S
C400 N404 1.427 . S
C401 H391 0.929 . S
C401 C399 1.433 . S
C401 N404 1.384 . S
C402 H393 0.929 . S
C402 C394 1.378 . S
C402 C397 1.350 . S
C403 H390 0.929 . S
C403 C395 1.433 . S
C403 N405 1.384 . S
N404 C400 1.427 . S
N404 C401 1.384 . S
N405 C397 1.427 . S
N405 C403 1.384 . S
H406 C412 0.930 . S
H407 C416 0.930 . S
H408 C421 0.929 . S
H409 C419 0.929 . S
H410 C414 0.929 . S
H411 C420 0.929 . S
C412 H406 0.930 . S
C412 C413 1.367 . S
C412 C420 1.378 . S
C413 C412 1.367 . S
C413 C421 1.433 . S
C414 H410 0.929 . S
C414 C416 1.378 . S
C414 C418 1.350 . S
C415 C418 1.463 . S
C415 C420 1.350 . S
C415 N423 1.427 . S
C416 H407 0.930 . S
C416 C414 1.378 . S
C416 C417 1.367 . S
C417 C416 1.367 . S
C417 C419 1.433 . S
C418 C414 1.350 . S
C418 C415 1.463 . S
C418 N422 1.427 . S
C419 H409 0.929 . S
C419 C417 1.433 . S
C419 N422 1.384 . S
C420 H411 0.929 . S
C420 C412 1.378 . S
C420 C415 1.350 . S
C421 H408 0.929 . S
C421 C413 1.433 . S
C421 N423 1.384 . S
N422 C418 1.427 . S
N422 C419 1.384 . S
N423 C415 1.427 . S
N423 C421 1.384 . S
H424 C430 0.930 . S
H425 C434 0.930 . S
H426 C439 0.929 . S
H427 C437 0.929 . S
H428 C432 0.929 . S
H429 C438 0.929 . S
C430 H424 0.930 . S
C430 C431 1.367 . S
C430 C438 1.378 . S
C431 C430 1.367 . S
C431 C439 1.433 . S
C432 H428 0.929 . S
C432 C434 1.378 . S
C432 C436 1.350 . S
C433 C436 1.463 . S
C433 C438 1.350 . S
C433 N441 1.427 . S
C434 H425 0.930 . S
C434 C432 1.378 . S
C434 C435 1.367 . S
C435 C434 1.367 . S
C435 C437 1.433 . S
C436 C432 1.350 . S
C436 C433 1.463 . S
C436 N440 1.427 . S
C437 H427 0.929 . S
C437 C435 1.433 . S
C437 N440 1.384 . S
C438 H429 0.929 . S
C438 C430 1.378 . S
C438 C433 1.350 . S
C439 H426 0.929 . S
C439 C431 1.433 . S
C439 N441 1.384 . S
N440 C436 1.427 . S
N440 C437 1.384 . S
N441 C433 1.427 . S
N441 C439 1.384 . S
H442 C448 0.930 . S
H443 C452 0.930 . S
H444 C457 0.929 . S
H445 C455 0.929 . S
H446 C450 0.929 . S
H447 C456 0.929 . S
C448 H442 0.930 . S
C448 C449 1.367 . S
C448 C456 1.378 . S
C449 C448 1.367 . S
C449 C457 1.433 . S
C450 H446 0.929 . S
C450 C452 1.378 . S
C450 C454 1.350 . S
C451 C454 1.463 . S
C451 C456 1.350 . S
C451 N459 1.427 . S
C452 H443 0.930 . S
C452 C450 1.378 . S
C452 C453 1.367 . S
C453 C452 1.367 . S
C453 C455 1.433 . S
C454 C450 1.350 . S
C454 C451 1.463 . S
C454 N458 1.427 . S
C455 H445 0.929 . S
C455 C453 1.433 . S
C455 N458 1.384 . S
C456 H447 0.929 . S
C456 C448 1.378 . S
C456 C451 1.350 . S
C457 H444 0.929 . S
C457 C449 1.433 . S
C457 N459 1.384 . S
N458 C454 1.427 . S
N458 C455 1.384 . S
N459 C451 1.427 . S
N459 C457 1.384 . S
H460 C466 0.930 . S
H461 C470 0.930 . S
H462 C475 0.929 . S
H463 C473 0.929 . S
H464 C468 0.929 . S
H465 C474 0.929 . S
C466 H460 0.930 . S
C466 C467 1.367 . S
C466 C474 1.378 . S
C467 C466 1.367 . S
C467 C475 1.433 . S
C468 H464 0.929 . S
C468 C470 1.378 . S
C468 C472 1.350 . S
C469 C472 1.463 . S
C469 C474 1.350 . S
C469 N477 1.427 . S
C470 H461 0.930 . S
C470 C468 1.378 . S
C470 C471 1.367 . S
C471 C470 1.367 . S
C471 C473 1.433 . S
C472 C468 1.350 . S
C472 C469 1.463 . S
C472 N476 1.427 . S
C473 H463 0.929 . S
C473 C471 1.433 . S
C473 N476 1.384 . S
C474 H465 0.929 . S
C474 C466 1.378 . S
C474 C469 1.350 . S
C475 H462 0.929 . S
C475 C467 1.433 . S
C475 N477 1.384 . S
N476 C472 1.427 . S
N476 C473 1.384 . S
N477 C469 1.427 . S
N477 C475 1.384 . S
H478 C484 0.930 . S
H479 C488 0.930 . S
H480 C493 0.929 . S
H481 C491 0.929 . S
H482 C486 0.929 . S
H483 C492 0.929 . S
C484 H478 0.930 . S
C484 C485 1.367 . S
C484 C492 1.378 . S
C485 C484 1.367 . S
C485 C493 1.433 . S
C486 H482 0.929 . S
C486 C488 1.378 . S
C486 C490 1.350 . S
C487 C490 1.463 . S
C487 C492 1.350 . S
C487 N495 1.427 . S
C488 H479 0.930 . S
C488 C486 1.378 . S
C488 C489 1.367 . S
C489 C488 1.367 . S
C489 C491 1.433 . S
C490 C486 1.350 . S
C490 C487 1.463 . S
C490 N494 1.427 . S
C491 H481 0.929 . S
C491 C489 1.433 . S
C491 N494 1.384 . S
C492 H483 0.929 . S
C492 C484 1.378 . S
C492 C487 1.350 . S
C493 H480 0.929 . S
C493 C485 1.433 . S
C493 N495 1.384 . S
N494 C490 1.427 . S
N494 C491 1.384 . S
N495 C487 1.427 . S
N495 C493 1.384 . S
H496 C502 0.930 . S
H497 C506 0.930 . S
H498 C511 0.929 . S
H499 C509 0.929 . S
H500 C504 0.929 . S
H501 C510 0.929 . S
C502 H496 0.930 . S
C502 C503 1.367 . S
C502 C510 1.378 . S
C503 C502 1.367 . S
C503 C511 1.433 . S
C504 H500 0.929 . S
C504 C506 1.378 . S
C504 C508 1.350 . S
C505 C508 1.463 1_556 S
C505 C510 1.350 . S
C505 N513 1.427 . S
C506 H497 0.930 . S
C506 C504 1.378 . S
C506 C507 1.367 . S
C507 C506 1.367 . S
C507 C509 1.433 . S
C508 C504 1.350 . S
C508 C505 1.463 1_554 S
C508 N512 1.427 . S
C509 H499 0.929 . S
C509 C507 1.433 . S
C509 N512 1.384 . S
C510 H501 0.929 . S
C510 C502 1.378 . S
C510 C505 1.350 . S
C511 H498 0.929 . S
C511 C503 1.433 . S
C511 N513 1.384 . S
N512 C508 1.427 . S
N512 C509 1.384 . S
N513 C505 1.427 . S
N513 C511 1.384 . S
H514 C520 0.930 . S
H515 C524 0.930 . S
H516 C529 0.929 . S
H517 C527 0.929 . S
H518 C522 0.929 . S
H519 C528 0.929 . S
C520 H514 0.930 . S
C520 C521 1.367 . S
C520 C528 1.378 . S
C521 C520 1.367 . S
C521 C529 1.433 . S
C522 H518 0.929 . S
C522 C524 1.378 . S
C522 C526 1.350 . S
C523 C526 1.463 . S
C523 C528 1.350 . S
C523 N531 1.427 . S
C524 H515 0.930 . S
C524 C522 1.378 . S
C524 C525 1.367 . S
C525 C524 1.367 . S
C525 C527 1.433 . S
C526 C522 1.350 . S
C526 C523 1.463 . S
C526 N530 1.427 . S
C527 H517 0.929 . S
C527 C525 1.433 . S
C527 N530 1.384 . S
C528 H519 0.929 . S
C528 C520 1.378 . S
C528 C523 1.350 . S
C529 H516 0.929 . S
C529 C521 1.433 . S
C529 N531 1.384 . S
N530 C526 1.427 . S
N530 C527 1.384 . S
N531 C523 1.427 . S
N531 C529 1.384 . S
H532 C538 0.930 . S
H533 C542 0.930 . S
H534 C547 0.929 . S
H535 C545 0.929 . S
H536 C540 0.929 . S
H537 C546 0.929 . S
C538 H532 0.930 . S
C538 C539 1.367 . S
C538 C546 1.378 . S
C539 C538 1.367 . S
C539 C547 1.433 . S
C540 H536 0.929 . S
C540 C542 1.378 . S
C540 C544 1.350 . S
C541 C544 1.463 1_554 S
C541 C546 1.350 . S
C541 N549 1.427 . S
C542 H533 0.930 . S
C542 C540 1.378 . S
C542 C543 1.367 . S
C543 C542 1.367 . S
C543 C545 1.433 . S
C544 C540 1.350 . S
C544 C541 1.463 1_556 S
C544 N548 1.427 . S
C545 H535 0.929 . S
C545 C543 1.433 . S
C545 N548 1.384 . S
C546 H537 0.929 . S
C546 C538 1.378 . S
C546 C541 1.350 . S
C547 H534 0.929 . S
C547 C539 1.433 . S
C547 N549 1.384 . S
N548 C544 1.427 . S
N548 C545 1.384 . S
N549 C541 1.427 . S
N549 C547 1.384 . S
H550 C556 0.930 . S
H551 C560 0.930 . S
H552 C565 0.929 . S
H553 C563 0.929 . S
H554 C558 0.929 . S
H555 C564 0.929 . S
C556 H550 0.930 . S
C556 C557 1.367 . S
C556 C564 1.378 . S
C557 C556 1.367 . S
C557 C565 1.433 . S
C558 H554 0.929 . S
C558 C560 1.378 . S
C558 C562 1.350 . S
C559 C562 1.463 . S
C559 C564 1.350 . S
C559 N567 1.427 . S
C560 H551 0.930 . S
C560 C558 1.378 . S
C560 C561 1.367 . S
C561 C560 1.367 . S
C561 C563 1.433 . S
C562 C558 1.350 . S
C562 C559 1.463 . S
C562 N566 1.427 . S
C563 H553 0.929 . S
C563 C561 1.433 . S
C563 N566 1.384 . S
C564 H555 0.929 . S
C564 C556 1.378 . S
C564 C559 1.350 . S
C565 H552 0.929 . S
C565 C557 1.433 . S
C565 N567 1.384 . S
N566 C562 1.427 . S
N566 C563 1.384 . S
N567 C559 1.427 . S
N567 C565 1.384 . S
H568 C574 0.930 . S
H569 C578 0.930 . S
H570 C583 0.929 . S
H571 C581 0.929 . S
H572 C576 0.929 . S
H573 C582 0.929 . S
C574 H568 0.930 . S
C574 C575 1.367 . S
C574 C582 1.378 . S
C575 C574 1.367 . S
C575 C583 1.433 . S
C576 H572 0.929 . S
C576 C578 1.378 . S
C576 C580 1.350 . S
C577 C580 1.463 . S
C577 C582 1.350 . S
C577 N585 1.427 . S
C578 H569 0.930 . S
C578 C576 1.378 . S
C578 C579 1.367 . S
C579 C578 1.367 . S
C579 C581 1.433 . S
C580 C576 1.350 . S
C580 C577 1.463 . S
C580 N584 1.427 . S
C581 H571 0.929 . S
C581 C579 1.433 . S
C581 N584 1.384 . S
C582 H573 0.929 . S
C582 C574 1.378 . S
C582 C577 1.350 . S
C583 H570 0.929 . S
C583 C575 1.433 . S
C583 N585 1.384 . S
N584 C580 1.427 . S
N584 C581 1.384 . S
N585 C577 1.427 . S
N585 C583 1.384 . S
H586 C592 0.930 . S
H587 C596 0.930 . S
H588 C601 0.929 . S
H589 C599 0.929 . S
H590 C594 0.929 . S
H591 C600 0.929 . S
C592 H586 0.930 . S
C592 C593 1.367 . S
C592 C600 1.378 . S
C593 C592 1.367 . S
C593 C601 1.433 . S
C594 H590 0.929 . S
C594 C596 1.378 . S
C594 C598 1.350 . S
C595 C598 1.463 1_556 S
C595 C600 1.350 . S
C595 N603 1.427 . S
C596 H587 0.930 . S
C596 C594 1.378 . S
C596 C597 1.367 . S
C597 C596 1.367 . S
C597 C599 1.433 . S
C598 C594 1.350 . S
C598 C595 1.463 1_554 S
C598 N602 1.427 . S
C599 H589 0.929 . S
C599 C597 1.433 . S
C599 N602 1.384 . S
C600 H591 0.929 . S
C600 C592 1.378 . S
C600 C595 1.350 . S
C601 H588 0.929 . S
C601 C593 1.433 . S
C601 N603 1.384 . S
N602 C598 1.427 . S
N602 C599 1.384 . S
N603 C595 1.427 . S
N603 C601 1.384 . S
H604 C610 0.930 . S
H605 C614 0.930 . S
H606 C619 0.929 . S
H607 C617 0.929 . S
H608 C612 0.929 . S
H609 C618 0.929 . S
C610 H604 0.930 . S
C610 C611 1.367 . S
C610 C618 1.378 . S
C611 C610 1.367 . S
C611 C619 1.433 . S
C612 H608 0.929 . S
C612 C614 1.378 . S
C612 C616 1.350 . S
C613 C616 1.463 . S
C613 C618 1.350 . S
C613 N621 1.427 . S
C614 H605 0.930 . S
C614 C612 1.378 . S
C614 C615 1.367 . S
C615 C614 1.367 . S
C615 C617 1.433 . S
C616 C612 1.350 . S
C616 C613 1.463 . S
C616 N620 1.427 . S
C617 H607 0.929 . S
C617 C615 1.433 . S
C617 N620 1.384 . S
C618 H609 0.929 . S
C618 C610 1.378 . S
C618 C613 1.350 . S
C619 H606 0.929 . S
C619 C611 1.433 . S
C619 N621 1.384 . S
N620 C616 1.427 . S
N620 C617 1.384 . S
N621 C613 1.427 . S
N621 C619 1.384 . S
H622 C628 0.930 . S
H623 C632 0.930 . S
H624 C637 0.929 . S
H625 C635 0.929 . S
H626 C630 0.929 . S
H627 C636 0.929 . S
C628 H622 0.930 . S
C628 C629 1.367 . S
C628 C636 1.378 . S
C629 C628 1.367 . S
C629 C637 1.433 . S
C630 H626 0.929 . S
C630 C632 1.378 . S
C630 C634 1.350 . S
C631 C634 1.463 1_554 S
C631 C636 1.350 . S
C631 N639 1.427 . S
C632 H623 0.930 . S
C632 C630 1.378 . S
C632 C633 1.367 . S
C633 C632 1.367 . S
C633 C635 1.433 . S
C634 C630 1.350 . S
C634 C631 1.463 1_556 S
C634 N638 1.427 . S
C635 H625 0.929 . S
C635 C633 1.433 . S
C635 N638 1.384 . S
C636 H627 0.929 . S
C636 C628 1.378 . S
C636 C631 1.350 . S
C637 H624 0.929 . S
C637 C629 1.433 . S
C637 N639 1.384 . S
N638 C634 1.427 . S
N638 C635 1.384 . S
N639 C631 1.427 . S
N639 C637 1.384 . S
H640 C646 0.930 . S
H641 C650 0.930 . S
H642 C655 0.929 . S
H643 C653 0.929 . S
H644 C648 0.929 . S
H645 C654 0.929 . S
C646 H640 0.930 . S
C646 C647 1.367 . S
C646 C654 1.378 . S
C647 C646 1.367 . S
C647 C655 1.433 . S
C648 H644 0.929 . S
C648 C650 1.378 . S
C648 C652 1.350 . S
C649 C652 1.463 . S
C649 C654 1.350 . S
C649 N657 1.427 . S
C650 H641 0.930 . S
C650 C648 1.378 . S
C650 C651 1.367 . S
C651 C650 1.367 . S
C651 C653 1.433 . S
C652 C648 1.350 . S
C652 C649 1.463 . S
C652 N656 1.427 . S
C653 H643 0.929 . S
C653 C651 1.433 . S
C653 N656 1.384 . S
C654 H645 0.929 . S
C654 C646 1.378 . S
C654 C649 1.350 . S
C655 H642 0.929 . S
C655 C647 1.433 . S
C655 N657 1.384 . S
N656 C652 1.427 . S
N656 C653 1.384 . S
N657 C649 1.427 . S
N657 C655 1.384 . S
H658 C664 0.930 . S
H659 C668 0.930 . S
H660 C673 0.929 . S
H661 C671 0.929 . S
H662 C666 0.929 . S
H663 C672 0.929 . S
C664 H658 0.930 . S
C664 C665 1.367 . S
C664 C672 1.378 . S
C665 C664 1.367 . S
C665 C673 1.433 . S
C666 H662 0.929 . S
C666 C668 1.378 . S
C666 C670 1.350 . S
C667 C670 1.463 . S
C667 C672 1.350 . S
C667 N675 1.427 . S
C668 H659 0.930 . S
C668 C666 1.378 . S
C668 C669 1.367 . S
C669 C668 1.367 . S
C669 C671 1.433 . S
C670 C666 1.350 . S
C670 C667 1.463 . S
C670 N674 1.427 . S
C671 H661 0.929 . S
C671 C669 1.433 . S
C671 N674 1.384 . S
C672 H663 0.929 . S
C672 C664 1.378 . S
C672 C667 1.350 . S
C673 H660 0.929 . S
C673 C665 1.433 . S
C673 N675 1.384 . S
N674 C670 1.427 . S
N674 C671 1.384 . S
N675 C667 1.427 . S
N675 C673 1.384 . S
H676 C682 0.930 . S
H677 C686 0.930 . S
H678 C691 0.929 . S
H679 C689 0.929 . S
H680 C684 0.929 . S
H681 C690 0.929 . S
C682 H676 0.930 . S
C682 C683 1.367 . S
C682 C690 1.378 . S
C683 C682 1.367 . S
C683 C691 1.433 . S
C684 H680 0.929 . S
C684 C686 1.378 . S
C684 C688 1.350 . S
C685 C688 1.463 . S
C685 C690 1.350 . S
C685 N693 1.427 . S
C686 H677 0.930 . S
C686 C684 1.378 . S
C686 C687 1.367 . S
C687 C686 1.367 . S
C687 C689 1.433 . S
C688 C684 1.350 . S
C688 C685 1.463 . S
C688 N692 1.427 . S
C689 H679 0.929 . S
C689 C687 1.433 . S
C689 N692 1.384 . S
C690 H681 0.929 . S
C690 C682 1.378 . S
C690 C685 1.350 . S
C691 H678 0.929 . S
C691 C683 1.433 . S
C691 N693 1.384 . S
N692 C688 1.427 . S
N692 C689 1.384 . S
N693 C685 1.427 . S
N693 C691 1.384 . S
H694 C700 0.930 . S
H695 C704 0.930 . S
H696 C709 0.929 . S
H697 C707 0.929 . S
H698 C702 0.929 . S
H699 C708 0.929 . S
C700 H694 0.930 . S
C700 C701 1.367 . S
C700 C708 1.378 . S
C701 C700 1.367 . S
C701 C709 1.433 . S
C702 H698 0.929 . S
C702 C704 1.378 . S
C702 C706 1.350 . S
C703 C706 1.463 . S
C703 C708 1.350 . S
C703 N711 1.427 . S
C704 H695 0.930 . S
C704 C702 1.378 . S
C704 C705 1.367 . S
C705 C704 1.367 . S
C705 C707 1.433 . S
C706 C702 1.350 . S
C706 C703 1.463 . S
C706 N710 1.427 . S
C707 H697 0.929 . S
C707 C705 1.433 . S
C707 N710 1.384 . S
C708 H699 0.929 . S
C708 C700 1.378 . S
C708 C703 1.350 . S
C709 H696 0.929 . S
C709 C701 1.433 . S
C709 N711 1.384 . S
N710 C706 1.427 . S
N710 C707 1.384 . S
N711 C703 1.427 . S
N711 C709 1.384 . S
H712 C718 0.930 . S
H713 C722 0.930 . S
H714 C727 0.929 . S
H715 C725 0.929 . S
H716 C720 0.929 . S
H717 C726 0.929 . S
C718 H712 0.930 . S
C718 C719 1.367 . S
C718 C726 1.378 . S
C719 C718 1.367 . S
C719 C727 1.433 . S
C720 H716 0.929 . S
C720 C722 1.378 . S
C720 C724 1.350 . S
C721 C724 1.463 . S
C721 C726 1.350 . S
C721 N729 1.427 . S
C722 H713 0.930 . S
C722 C720 1.378 . S
C722 C723 1.367 . S
C723 C722 1.367 . S
C723 C725 1.433 . S
C724 C720 1.350 . S
C724 C721 1.463 . S
C724 N728 1.427 . S
C725 H715 0.929 . S
C725 C723 1.433 . S
C725 N728 1.384 . S
C726 H717 0.929 . S
C726 C718 1.378 . S
C726 C721 1.350 . S
C727 H714 0.929 . S
C727 C719 1.433 . S
C727 N729 1.384 . S
N728 C724 1.427 . S
N728 C725 1.384 . S
N729 C721 1.427 . S
N729 C727 1.384 . S
H730 C736 0.930 . S
H731 C740 0.930 . S
H732 C745 0.929 . S
H733 C743 0.929 . S
H734 C738 0.929 . S
H735 C744 0.929 . S
C736 H730 0.930 . S
C736 C737 1.367 . S
C736 C744 1.378 . S
C737 C736 1.367 . S
C737 C745 1.433 . S
C738 H734 0.929 . S
C738 C740 1.378 . S
C738 C742 1.350 . S
C739 C742 1.463 . S
C739 C744 1.350 . S
C739 N747 1.427 . S
C740 H731 0.930 . S
C740 C738 1.378 . S
C740 C741 1.367 . S
C741 C740 1.367 . S
C741 C743 1.433 . S
C742 C738 1.350 . S
C742 C739 1.463 . S
C742 N746 1.427 . S
C743 H733 0.929 . S
C743 C741 1.433 . S
C743 N746 1.384 . S
C744 H735 0.929 . S
C744 C736 1.378 . S
C744 C739 1.350 . S
C745 H732 0.929 . S
C745 C737 1.433 . S
C745 N747 1.384 . S
N746 C742 1.427 . S
N746 C743 1.384 . S
N747 C739 1.427 . S
N747 C745 1.384 . S
H748 C754 0.930 . S
H749 C758 0.930 . S
H750 C763 0.929 . S
H751 C761 0.929 . S
H752 C756 0.929 . S
H753 C762 0.929 . S
C754 H748 0.930 . S
C754 C755 1.367 . S
C754 C762 1.378 . S
C755 C754 1.367 . S
C755 C763 1.433 . S
C756 H752 0.929 . S
C756 C758 1.378 . S
C756 C760 1.350 . S
C757 C760 1.463 . S
C757 C762 1.350 . S
C757 N765 1.427 . S
C758 H749 0.930 . S
C758 C756 1.378 . S
C758 C759 1.367 . S
C759 C758 1.367 . S
C759 C761 1.433 . S
C760 C756 1.350 . S
C760 C757 1.463 . S
C760 N764 1.427 . S
C761 H751 0.929 . S
C761 C759 1.433 . S
C761 N764 1.384 . S
C762 H753 0.929 . S
C762 C754 1.378 . S
C762 C757 1.350 . S
C763 H750 0.929 . S
C763 C755 1.433 . S
C763 N765 1.384 . S
N764 C760 1.427 . S
N764 C761 1.384 . S
N765 C757 1.427 . S
N765 C763 1.384 . S
H766 C772 0.930 . S
H767 C776 0.930 . S
H768 C781 0.929 . S
H769 C779 0.929 . S
H770 C774 0.929 . S
H771 C780 0.929 . S
C772 H766 0.930 . S
C772 C773 1.367 . S
C772 C780 1.378 . S
C773 C772 1.367 . S
C773 C781 1.433 . S
C774 H770 0.929 . S
C774 C776 1.378 . S
C774 C778 1.350 . S
C775 C778 1.463 . S
C775 C780 1.350 . S
C775 N783 1.427 . S
C776 H767 0.930 . S
C776 C774 1.378 . S
C776 C777 1.367 . S
C777 C776 1.367 . S
C777 C779 1.433 . S
C778 C774 1.350 . S
C778 C775 1.463 . S
C778 N782 1.427 . S
C779 H769 0.929 . S
C779 C777 1.433 . S
C779 N782 1.384 . S
C780 H771 0.929 . S
C780 C772 1.378 . S
C780 C775 1.350 . S
C781 H768 0.929 . S
C781 C773 1.433 . S
C781 N783 1.384 . S
N782 C778 1.427 . S
N782 C779 1.384 . S
N783 C775 1.427 . S
N783 C781 1.384 . S
C215 C3 1.390 . S
C219 C31 1.393 . S
C233 C42 1.397 . S
C237 C18 1.397 . S
C251 C55 1.388 . S
C255 C81 1.391 . S
C269 C96 1.390 . S
C273 C70 1.393 . S
C287 C107 1.396 . S
C291 C135 1.394 . S
C305 C146 1.387 . S
C309 C122 1.386 . S
C323 C159 1.387 . S
C327 C187 1.386 . S
C341 C200 1.388 . S
C345 C172 1.390 . S
C359 C57 1.302 . S
C363 C5 1.304 . S
C377 C16 1.303 . S
C381 C68 1.297 . S
C395 C29 1.300 . S
C399 C83 1.304 . S
C413 C94 1.295 . S
C417 C44 1.300 . S
C431 C109 1.292 . S
C435 C161 1.294 . S
C449 C120 1.296 . S
C453 C174 1.302 . S
C467 C133 1.304 . S
C471 C185 1.299 . S
C485 C148 1.296 . S
C489 C198 1.302 . S
C503 C140 1.352 . S
C507 C4 1.351 . S
C521 C147 1.355 . S
C525 C23 1.348 . S
C539 C36 1.347 . S
C543 C108 1.355 . S
C557 C43 1.351 . S
C561 C127 1.352 . S
C575 C56 1.355 . S
C579 C192 1.347 . S
C593 C75 1.351 . S
C597 C205 1.352 . S
C611 C82 1.348 . S
C615 C160 1.355 . S
C629 C173 1.355 . S
C633 C101 1.347 . S
C647 C10 1.325 . S
C651 C199 1.328 . S
C665 C166 1.328 . S
C669 C17 1.325 . S
C683 C30 1.325 . S
C687 C179 1.328 . S
C701 C186 1.327 . S
C705 C49 1.326 . S
C719 C121 1.326 . S
C723 C62 1.327 . S
C737 C69 1.325 . S
C741 C134 1.328 . S
C755 C153 1.327 . S
C759 C88 1.326 . S
C773 C114 1.326 . S
C777 C95 1.327 . S
