# Generated by pormake.
# Topology hjm, (4)-cn, num edge types: 1
# Building blocks:
#     Node 0, Type 0, BuildingBlock: KUFVIS_clean_sbu_0, # of connection points: 4
#     Node 1, Type 0, BuildingBlock: KUFVIS_clean_sbu_0, # of connection points: 4
#     Node 2, Type 0, BuildingBlock: KUFVIS_clean_sbu_0, # of connection points: 4
#     Node 3, Type 0, BuildingBlock: KUFVIS_clean_sbu_0, # of connection points: 4
#     Node 4, Type 0, BuildingBlock: KUFVIS_clean_sbu_0, # of connection points: 4
#     Node 5, Type 0, BuildingBlock: KUFVIS_clean_sbu_0, # of connection points: 4
#     Node 6, Type 0, BuildingBlock: KUFVIS_clean_sbu_0, # of connection points: 4
#     Node 7, Type 0, BuildingBlock: KUFVIS_clean_sbu_0, # of connection points: 4
#     Edge 8, Type (0, 0), BuildingBlock: XIVTED_clean_linker_0, # of connection points: 2
#     Edge 9, Type (0, 0), BuildingBlock: XIVTED_clean_linker_0, # of connection points: 2
#     Edge 10, Type (0, 0), BuildingBlock: XIVTED_clean_linker_0, # of connection points: 2
#     Edge 11, Type (0, 0), BuildingBlock: XIVTED_clean_linker_0, # of connection points: 2
#     Edge 12, Type (0, 0), BuildingBlock: XIVTED_clean_linker_0, # of connection points: 2
#     Edge 13, Type (0, 0), BuildingBlock: XIVTED_clean_linker_0, # of connection points: 2
#     Edge 14, Type (0, 0), BuildingBlock: XIVTED_clean_linker_0, # of connection points: 2
#     Edge 15, Type (0, 0), BuildingBlock: XIVTED_clean_linker_0, # of connection points: 2
#     Edge 16, Type (0, 0), BuildingBlock: XIVTED_clean_linker_0, # of connection points: 2
#     Edge 17, Type (0, 0), BuildingBlock: XIVTED_clean_linker_0, # of connection points: 2
#     Edge 18, Type (0, 0), BuildingBlock: XIVTED_clean_linker_0, # of connection points: 2
#     Edge 19, Type (0, 0), BuildingBlock: XIVTED_clean_linker_0, # of connection points: 2
#     Edge 20, Type (0, 0), BuildingBlock: XIVTED_clean_linker_0, # of connection points: 2
#     Edge 21, Type (0, 0), BuildingBlock: XIVTED_clean_linker_0, # of connection points: 2
#     Edge 22, Type (0, 0), BuildingBlock: XIVTED_clean_linker_0, # of connection points: 2
#     Edge 23, Type (0, 0), BuildingBlock: XIVTED_clean_linker_0, # of connection points: 2
# Relax obj value: 0.063
# Max RMSD: 0.109
# Mean RMSD: 0.108
data_MOF--net-hjm--node1-KUFVIS_clean_sbu_0--edge1-XIVTED_clean_linker_0
_symmetry_space_group_name_H-M    P1
_symmetry_Int_Tables_number       1
_symmetry_cell_setting            triclinic
loop_
_symmetry_equiv_pos_as_xyz
'x, y, z'
_cell_length_a     26.496184
_cell_length_b     23.087321
_cell_length_c     25.85712
_cell_angle_alpha  90.034717
_cell_angle_beta   57.225936
_cell_angle_gamma 89.98079
loop_
_atom_site_label
_atom_site_type_symbol
_atom_site_fract_x
_atom_site_fract_y
_atom_site_fract_z
_atom_type_partial_charge
Mn0 Mn 0.20668 0.30848 0.29935 0.0
Mn1 Mn 0.23834 0.44283 0.23672 0.0
C2 C 0.16183 0.38983 0.35984 0.0
C3 C 0.15273 0.22184 0.33691 0.0
C4 C 0.32273 0.3758 0.25836 0.0
O5 O 0.23887 0.29088 0.20895 0.0
O6 O 0.26148 0.38259 0.17345 0.0
C7 C 0.15478 0.4464 0.1941 0.0
N8 N 0.17437 0.469 0.22891 0.0
C9 C 0.10723 0.55011 0.2585 0.0
C10 C 0.08759 0.52847 0.22163 0.0
C11 C 0.1109 0.47606 0.18991 0.0
C12 C 0.15168 0.5191 0.26019 0.0
H13 H 0.17315 0.40656 0.16886 0.0
C14 C 0.25921 0.32817 0.16543 0.0
O15 O 0.20854 0.22604 0.31929 0.0
O16 O 0.12868 0.26726 0.32883 0.0
N17 N 0.2174 0.50603 0.29274 0.0
C18 C 0.24491 0.52367 0.32185 0.0
C19 C 0.22757 0.57609 0.35464 0.0
C20 C 0.18271 0.61019 0.35652 0.0
C21 C 0.15527 0.59134 0.32595 0.0
C22 C 0.17485 0.53901 0.29348 0.0
H23 H 0.2801 0.49815 0.31978 0.0
O24 O 0.16894 0.34334 0.38348 0.0
O25 O 0.18289 0.38846 0.30148 0.0
O26 O 0.29078 0.33026 0.27777 0.0
O27 O 0.30656 0.42135 0.24346 0.0
C28 C 0.10929 0.62241 0.32637 0.0
C29 C 0.08501 0.60157 0.29298 0.0
H30 H 0.05526 0.55208 0.21661 0.0
H31 H 0.09565 0.459 0.16165 0.0
H32 H 0.24903 0.59037 0.37803 0.0
H33 H 0.16992 0.6509 0.3813 0.0
H34 H 0.09249 0.66253 0.35196 0.0
H35 H 0.04969 0.62575 0.29357 0.0
Mn36 Mn 0.82297 0.30112 0.21031 0.0
Mn37 Mn 0.78786 0.4344 0.27608 0.0
C38 C 0.87134 0.38332 0.15336 0.0
C39 C 0.87684 0.21404 0.1747 0.0
C40 C 0.70883 0.36939 0.24536 0.0
O41 O 0.78446 0.28182 0.30156 0.0
O42 O 0.76142 0.37314 0.33874 0.0
C43 C 0.8654 0.43611 0.32601 0.0
N44 N 0.84872 0.45972 0.28917 0.0
C45 C 0.91506 0.54065 0.26468 0.0
C46 C 0.93186 0.51785 0.30351 0.0
C47 C 0.90746 0.46505 0.33372 0.0
C48 C 0.8725 0.51018 0.25927 0.0
H49 H 0.84613 0.39596 0.35009 0.0
C50 C 0.76236 0.31838 0.34595 0.0
O51 O 0.82255 0.21922 0.18766 0.0
O52 O 0.89929 0.25879 0.18596 0.0
N53 N 0.81188 0.49826 0.22037 0.0
C54 C 0.78769 0.51653 0.18819 0.0
C55 C 0.80693 0.56908 0.1558 0.0
C56 C 0.85022 0.60266 0.15745 0.0
C57 C 0.87378 0.58342 0.19163 0.0
C58 C 0.85267 0.53083 0.22324 0.0
H59 H 0.75375 0.49136 0.18747 0.0
O60 O 0.86678 0.33783 0.12656 0.0
O61 O 0.84568 0.38047 0.21239 0.0
O62 O 0.74147 0.32426 0.22555 0.0
O63 O 0.72263 0.41392 0.26413 0.0
C64 C 0.9174 0.61433 0.19558 0.0
C65 C 0.93838 0.59266 0.23163 0.0
H66 H 0.96278 0.54083 0.31125 0.0
H67 H 0.92043 0.44712 0.36355 0.0
H68 H 0.78818 0.58384 0.12992 0.0
H69 H 0.86483 0.64323 0.13251 0.0
H70 H 0.93517 0.65477 0.17104 0.0
H71 H 0.97242 0.61639 0.23366 0.0
Mn72 Mn 0.82489 0.80856 0.68639 0.0
Mn73 Mn 0.94531 0.79742 0.69928 0.0
C74 C 0.81694 0.82605 0.77944 0.0
C75 C 0.7365 0.77693 0.69438 0.0
C76 C 0.93061 0.89398 0.62915 0.0
O77 O 0.88179 0.75487 0.61382 0.0
O78 O 0.95643 0.74849 0.63178 0.0
C79 C 0.93824 0.67466 0.73559 0.0
N80 N 0.93849 0.73197 0.7479 0.0
C81 C 0.94105 0.71023 0.83749 0.0
C82 C 0.94059 0.65097 0.8259 0.0
C83 C 0.93897 0.63313 0.77486 0.0
C84 C 0.9398 0.74959 0.79703 0.0
H85 H 0.93819 0.66077 0.69573 0.0
C86 C 0.93245 0.73493 0.6017 0.0
O87 O 0.76847 0.81934 0.65909 0.0
O88 O 0.758 0.74951 0.72232 0.0
N89 N 0.93801 0.84314 0.76473 0.0
C90 C 0.93724 0.9019 0.76992 0.0
C91 C 0.93731 0.92691 0.8194 0.0
C92 C 0.93907 0.89127 0.86241 0.0
C93 C 0.94054 0.83089 0.8557 0.0
C94 C 0.93959 0.80847 0.80592 0.0
H95 H 0.93684 0.92946 0.73642 0.0
O96 O 0.77972 0.85059 0.7682 0.0
O97 O 0.85865 0.79527 0.73536 0.0
O98 O 0.87899 0.87864 0.64187 0.0
O99 O 0.95901 0.86644 0.64835 0.0
C100 C 0.94289 0.79208 0.89639 0.0
C101 C 0.94301 0.73179 0.88738 0.0
H102 H 0.94172 0.6188 0.85574 0.0
H103 H 0.939 0.58746 0.7654 0.0
H104 H 0.9365 0.97354 0.82409 0.0
H105 H 0.93915 0.91078 0.9004 0.0
H106 H 0.94423 0.80811 0.935 0.0
H107 H 0.94449 0.7024 0.91918 0.0
Mn108 Mn 0.21435 0.7987 0.8357 0.0
Mn109 Mn 0.09185 0.77877 0.82775 0.0
C110 C 0.21879 0.81171 0.74394 0.0
C111 C 0.30489 0.77108 0.82538 0.0
C112 C 0.10522 0.8802 0.89388 0.0
O113 O 0.16091 0.74603 0.9102 0.0
O114 O 0.08432 0.73352 0.89593 0.0
C115 C 0.10295 0.65447 0.79512 0.0
N116 N 0.09996 0.71084 0.78155 0.0
C117 C 0.09802 0.6833 0.69283 0.0
C118 C 0.10138 0.62496 0.70569 0.0
C119 C 0.10396 0.61051 0.75699 0.0
C120 C 0.09736 0.7252 0.73236 0.0
H121 H 0.10415 0.64315 0.83496 0.0
C122 C 0.11034 0.72384 0.92484 0.0
O123 O 0.27276 0.814 0.85978 0.0
O124 O 0.28265 0.74126 0.79958 0.0
N125 N 0.09555 0.82071 0.762 0.0
C126 C 0.09387 0.87905 0.75524 0.0
C127 C 0.0924 0.90082 0.70537 0.0
C128 C 0.09196 0.86239 0.66348 0.0
C129 C 0.09316 0.80252 0.67171 0.0
C130 C 0.095 0.78339 0.72202 0.0
H131 H 0.09341 0.9087 0.7878 0.0
O132 O 0.25611 0.839 0.75318 0.0
O133 O 0.17895 0.78056 0.78918 0.0
O134 O 0.15804 0.86782 0.87979 0.0
O135 O 0.07695 0.84981 0.87642 0.0
C136 C 0.09301 0.76112 0.63175 0.0
C137 C 0.09552 0.70153 0.64224 0.0
H138 H 0.10195 0.59092 0.67654 0.0
H139 H 0.10632 0.56556 0.76736 0.0
H140 H 0.09114 0.9471 0.69949 0.0
H141 H 0.09085 0.87929 0.62509 0.0
H142 H 0.09149 0.77469 0.59253 0.0
H143 H 0.09577 0.67011 0.61097 0.0
Mn144 Mn 0.70096 0.71157 0.31646 0.0
Mn145 Mn 0.71759 0.85672 0.29208 0.0
C146 C 0.64416 0.77683 0.39586 0.0
C147 C 0.65659 0.62032 0.32902 0.0
C148 C 0.80818 0.78237 0.29722 0.0
O149 O 0.73862 0.71698 0.2229 0.0
O150 O 0.74692 0.81456 0.21459 0.0
C151 C 0.63416 0.87776 0.25164 0.0
N152 N 0.65159 0.88869 0.29144 0.0
C153 C 0.58001 0.96626 0.3392 0.0
C154 C 0.56112 0.9557 0.29885 0.0
C155 C 0.58842 0.91126 0.25483 0.0
C156 C 0.62577 0.93135 0.33388 0.0
H157 H 0.65558 0.84429 0.21713 0.0
C158 C 0.7535 0.76399 0.19137 0.0
O159 O 0.71113 0.62625 0.31521 0.0
O160 O 0.62902 0.6675 0.33038 0.0
N161 N 0.69019 0.90279 0.36413 0.0
C162 C 0.71379 0.90733 0.3995 0.0
C163 C 0.69155 0.94975 0.44579 0.0
C164 C 0.64622 0.98779 0.45436 0.0
C165 C 0.62309 0.98265 0.41697 0.0
C166 C 0.64651 0.9391 0.37211 0.0
H167 H 0.74946 0.87894 0.39228 0.0
O168 O 0.6555 0.72562 0.40787 0.0
O169 O 0.66838 0.78933 0.33838 0.0
O170 O 0.78063 0.7347 0.30602 0.0
O171 O 0.78809 0.83052 0.29201 0.0
C172 C 0.57758 0.01889 0.42254 0.0
C173 C 0.55575 0.01044 0.38399 0.0
H174 H 0.526 0.98174 0.30112 0.0
H175 H 0.57499 0.90315 0.22278 0.0
H176 H 0.70971 0.95349 0.47439 0.0
H177 H 0.62946 0.02069 0.48984 0.0
H178 H 0.55865 0.05303 0.45674 0.0
H179 H 0.52039 0.03825 0.38908 0.0
Mn180 Mn 0.32568 0.71036 0.20614 0.0
Mn181 Mn 0.31004 0.85445 0.23716 0.0
C182 C 0.3793 0.77768 0.12888 0.0
C183 C 0.37098 0.6189 0.18717 0.0
C184 C 0.21611 0.78299 0.235 0.0
O185 O 0.29236 0.71201 0.29882 0.0
O186 O 0.28502 0.80932 0.31214 0.0
C187 C 0.39935 0.87219 0.27059 0.0
N188 N 0.37852 0.88499 0.23402 0.0
C189 C 0.4497 0.9626 0.18511 0.0
C190 C 0.47196 0.95023 0.22219 0.0
C191 C 0.44666 0.9048 0.26513 0.0
C192 C 0.4024 0.9287 0.19272 0.0
H193 H 0.37944 0.83793 0.30427 0.0
C194 C 0.27935 0.75752 0.33239 0.0
O195 O 0.31552 0.62542 0.20412 0.0
O196 O 0.3991 0.66535 0.1865 0.0
N197 N 0.33338 0.90291 0.16766 0.0
C198 C 0.30686 0.90897 0.13518 0.0
C199 C 0.32731 0.95214 0.0899 0.0
C200 C 0.37398 0.98928 0.07928 0.0
C201 C 0.40012 0.98257 0.11374 0.0
C202 C 0.37832 0.93836 0.15776 0.0
H203 H 0.27036 0.88111 0.1438 0.0
O204 O 0.36679 0.72746 0.11596 0.0
O205 O 0.35797 0.78813 0.18633 0.0
O206 O 0.24425 0.73514 0.222 0.0
O207 O 0.23689 0.83006 0.24154 0.0
C208 C 0.44723 0.01774 0.10588 0.0
C209 C 0.47223 1.00758 0.14131 0.0
H210 H 0.50822 0.97566 0.21817 0.0
H211 H 0.4629 0.89527 0.29458 0.0
H212 H 0.30686 0.95705 0.06353 0.0
H213 H 0.38954 0.02262 0.04443 0.0
H214 H 0.46502 0.05233 0.07223 0.0
H215 H 0.50878 0.03459 0.13448 0.0
Mn216 Mn 0.31628 0.21009 0.67716 0.0
Mn217 Mn 0.43498 0.21619 0.6934 0.0
C218 C 0.30974 0.25848 0.75966 0.0
C219 C 0.22588 0.16984 0.69617 0.0
C220 C 0.4294 0.28303 0.59537 0.0
O221 O 0.3683 0.14048 0.62591 0.0
O222 O 0.44011 0.14568 0.64795 0.0
C223 C 0.41539 0.11402 0.77149 0.0
N224 N 0.4219 0.17234 0.76237 0.0
C225 C 0.42389 0.18591 0.85361 0.0
C226 C 0.41762 0.12596 0.86369 0.0
C227 C 0.41308 0.08991 0.82259 0.0
C228 C 0.42606 0.20743 0.80181 0.0
H229 H 0.41226 0.08608 0.73988 0.0
C230 C 0.41429 0.12005 0.62433 0.0
O231 O 0.25994 0.20203 0.64861 0.0
O232 O 0.24579 0.15825 0.73121 0.0
N233 N 0.43264 0.28281 0.73878 0.0
C234 C 0.43582 0.3399 0.72399 0.0
C235 C 0.43701 0.382 0.76255 0.0
C236 C 0.43599 0.36493 0.81524 0.0
C237 C 0.4334 0.30589 0.82912 0.0
C238 C 0.43126 0.26596 0.78958 0.0
H239 H 0.43733 0.35323 0.68318 0.0
O240 O 0.27453 0.273 0.74129 0.0
O241 O 0.34855 0.2186 0.728 0.0
O242 O 0.37606 0.26859 0.61264 0.0
O243 O 0.45556 0.26387 0.6212 0.0
C244 C 0.4322 0.28515 0.88099 0.0
C245 C 0.42764 0.22519 0.89315 0.0
H246 H 0.41592 0.10717 0.90298 0.0
H247 H 0.40812 0.0436 0.83012 0.0
H248 H 0.43927 0.42747 0.75138 0.0
H249 H 0.43732 0.39749 0.84466 0.0
H250 H 0.43411 0.31504 0.91217 0.0
H251 H 0.42628 0.20982 0.93345 0.0
Mn252 Mn 0.70873 0.20733 0.83409 0.0
Mn253 Mn 0.58816 0.20898 0.8206 0.0
C254 C 0.71344 0.25086 0.75029 0.0
C255 C 0.79968 0.16879 0.81539 0.0
C256 C 0.59629 0.28239 0.91337 0.0
O257 O 0.65738 0.13944 0.88933 0.0
O258 O 0.58341 0.14249 0.87041 0.0
C259 C 0.60582 0.10115 0.75044 0.0
N260 N 0.59948 0.1598 0.75557 0.0
C261 C 0.59458 0.16524 0.6654 0.0
C262 C 0.60082 0.10488 0.65932 0.0
C263 C 0.60676 0.07275 0.70186 0.0
C264 C 0.59408 0.19115 0.71466 0.0
H265 H 0.60976 0.07617 0.78335 0.0
C266 C 0.60998 0.11874 0.89413 0.0
O267 O 0.76621 0.20287 0.86145 0.0
O268 O 0.77902 0.15453 0.78162 0.0
N269 N 0.58961 0.27153 0.77131 0.0
C270 C 0.5867 0.32958 0.78208 0.0
C271 C 0.58425 0.36812 0.74149 0.0
C272 C 0.58345 0.34652 0.69113 0.0
C273 C 0.58563 0.28657 0.68151 0.0
C274 C 0.58926 0.25035 0.72277 0.0
H275 H 0.58639 0.34634 0.82124 0.0
O276 O 0.74946 0.2676 0.76691 0.0
O277 O 0.67492 0.21167 0.78421 0.0
O278 O 0.64943 0.26757 0.89658 0.0
O279 O 0.56957 0.26177 0.88871 0.0
C280 C 0.5848 0.26138 0.63236 0.0
C281 C 0.58919 0.20075 0.62432 0.0
H282 H 0.60142 0.0828 0.62201 0.0
H283 H 0.61165 0.02615 0.69745 0.0
H284 H 0.58222 0.41433 0.74942 0.0
H285 H 0.58098 0.37635 0.66025 0.0
H286 H 0.58139 0.28832 0.60013 0.0
H287 H 0.58902 0.18194 0.58602 0.0
H288 H 0.03005 0.2043 0.3994 0.0
H289 H 0.04733 0.92835 0.57547 0.0
H290 H 0.19475 0.12246 0.35696 0.0
H291 H 0.88414 0.97325 0.58533 0.0
H292 H 0.09929 1.00558 0.50129 0.0
H293 H 0.97338 0.12434 0.47062 0.0
C294 C 0.05432 0.16917 0.40421 0.0
C295 C 0.1173 0.17029 0.37227 0.0
C296 C 0.05209 0.99868 0.51956 0.0
C297 C 0.05288 0.07968 0.45442 0.0
C298 C 0.02213 0.95467 0.5625 0.0
C299 C 0.96106 0.94392 0.58698 0.0
C300 C 0.02102 0.03299 0.50082 0.0
C301 C 0.93124 0.97973 0.56768 0.0
C302 C 0.02195 0.12377 0.4451 0.0
C303 C 0.14631 0.12378 0.3807 0.0
N304 N 0.96146 0.02275 0.52584 0.0
N305 N 0.11396 0.0809 0.42122 0.0
H306 H 0.98498 0.90256 0.9588 0.0
H307 H 0.99933 0.19682 0.11507 0.0
H308 H 0.1514 0.97012 0.92686 0.0
H309 H 0.83596 0.11267 0.15698 0.0
H310 H 0.05704 0.1149 0.04768 0.0
H311 H 0.9311 0.98109 0.03063 0.0
C312 C 1.01043 0.93438 0.9662 0.0
C313 C 0.07308 0.92991 0.93583 0.0
C314 C 1.00852 0.11424 0.07219 0.0
C315 C 1.01096 0.02023 0.01987 0.0
C316 C 0.97555 0.16079 0.11097 0.0
C317 C 0.91267 0.16179 0.14161 0.0
C318 C 0.9783 0.06862 0.06395 0.0
C319 C 0.88431 0.1141 0.13414 0.0
C320 C 0.97943 0.97908 1.00794 0.0
C321 C 0.10315 0.97189 0.94894 0.0
N322 N 0.91724 0.06991 0.09592 0.0
N323 N 0.07186 0.0154 0.98981 0.0
H324 H 0.38451 0.36172 0.54943 0.0
H325 H 0.70283 0.51926 0.34044 0.0
H326 H 0.55028 0.30353 0.52647 0.0
H327 H 0.53796 0.59316 0.37429 0.0
H328 H 0.64829 0.43264 0.39603 0.0
H329 H 0.44029 0.43897 0.47407 0.0
C330 C 0.43262 0.36466 0.52812 0.0
C331 C 0.46249 0.3263 0.54509 0.0
C332 C 0.62393 0.46735 0.39078 0.0
C333 C 0.52655 0.41467 0.45885 0.0
C334 C 0.65525 0.51693 0.35852 0.0
C335 C 0.62504 0.56392 0.35264 0.0
C336 C 0.56162 0.46417 0.41773 0.0
C337 C 0.56315 0.55805 0.37759 0.0
C338 C 0.46439 0.40893 0.48526 0.0
C339 C 0.52496 0.33244 0.51583 0.0
N340 N 0.53336 0.50933 0.40951 0.0
N341 N 0.55462 0.37574 0.47464 0.0
H342 H 0.32535 0.52253 0.16639 0.0
H343 H 0.64128 0.35938 0.96088 0.0
H344 H 0.48891 0.58885 0.14254 0.0
H345 H 0.4763 0.30712 0.97841 0.0
H346 H 0.58606 0.43696 0.0362 0.0
H347 H 0.37945 0.43712 0.10732 0.0
C348 C 0.37256 0.51877 0.14965 0.0
C349 C 0.40247 0.56317 0.15974 0.0
C350 C 0.56204 0.40823 0.02369 0.0
C351 C 0.46549 0.46483 0.09057 0.0
C352 C 0.5935 0.36381 0.9808 0.0
C353 C 0.56369 0.32691 0.96247 0.0
C354 C 0.50029 0.41562 0.04868 0.0
C355 C 0.50162 0.33486 0.9901 0.0
C356 C 0.40365 0.4699 0.11539 0.0
C357 C 0.46394 0.55567 0.13612 0.0
N358 N 0.47229 0.37825 0.03134 0.0
N359 N 0.49353 0.50762 0.10231 0.0
H360 H 0.96272 0.4184 0.16421 0.0
H361 H 0.16111 0.63958 0.9587 0.0
H362 H 0.88024 0.45027 0.06193 0.0
H363 H 0.99117 0.7061 0.99894 0.0
H364 H 0.10942 0.55046 0.01559 0.0
H365 H 0.02919 0.50198 0.11353 0.0
C366 C 0.95931 0.44274 0.13039 0.0
C367 C 0.91543 0.42875 0.1178 0.0
C368 C 0.08365 0.58536 0.01284 0.0
C369 C 0.99047 0.52328 0.06043 0.0
C370 C 0.11286 0.63632 0.98121 0.0
C371 C 0.0804 0.67991 0.97372 0.0
C372 C 0.02232 0.57841 0.03564 0.0
C373 C 0.01805 0.6732 1.00293 0.0
C374 C 0.99738 0.48989 0.10139 0.0
C375 C 0.91309 0.46043 0.0732 0.0
N376 N 0.9914 0.62283 0.03114 0.0
N377 N 0.94919 0.50731 0.04711 0.0
H378 H 0.0661 0.43249 0.36042 0.0
H379 H 0.05084 0.71078 0.54229 0.0
H380 H 0.16352 0.45004 0.44948 0.0
H381 H 0.88874 0.65374 0.55604 0.0
H382 H 0.09982 0.62167 0.49015 0.0
H383 H 1.00453 0.51699 0.41821 0.0
C384 C 0.07403 0.45404 0.39263 0.0
C385 C 0.12084 0.43594 0.39923 0.0
C386 C 0.05388 0.62889 0.50353 0.0
C387 C 0.05149 0.53162 0.46447 0.0
C388 C 0.02575 0.67999 0.53316 0.0
C389 C 0.96499 0.68934 0.55485 0.0
C390 C 0.02217 0.58728 0.49296 0.0
C391 C 0.93552 0.6482 0.54027 0.0
C392 C 0.03879 0.50176 0.42565 0.0
C393 C 0.12858 0.46369 0.44244 0.0
N394 N 0.96452 0.59851 0.51009 0.0
N395 N 0.09507 0.51112 0.47253 0.0
H396 H 0.64304 0.04784 0.95804 0.0
H397 H 0.39141 0.81491 0.02251 0.0
H398 H 0.52204 0.05776 0.89458 0.0
H399 H 0.47624 0.82042 0.12508 0.0
H400 H 0.4621 0.88863 0.95265 0.0
H401 H 0.60103 0.95175 1.00172 0.0
C402 C 0.60806 0.03004 0.9531 0.0
C403 C 0.58579 0.06154 0.92316 0.0
C404 C 0.46584 0.87316 0.98997 0.0
C405 C 0.53932 0.95162 0.97081 0.0
C406 C 0.42561 0.83115 0.02955 0.0
C407 C 0.42669 0.81418 0.08073 0.0
C408 C 0.50731 0.89763 1.00187 0.0
C409 C 0.47276 0.83477 0.08725 0.0
C410 C 0.58459 0.9751 0.9774 0.0
C411 C 0.54069 0.03593 0.91761 0.0
N412 N 0.51072 0.87645 0.04895 0.0
N413 N 0.51917 0.98284 0.94113 0.0
H414 H 0.54973 0.8192 0.39477 0.0
H415 H 0.49475 0.05733 0.6357 0.0
H416 H 0.6257 0.81321 0.5057 0.0
H417 H 0.38675 0.04761 0.55694 0.0
H418 H 0.53299 0.96176 0.59744 0.0
H419 H 0.47824 0.89277 0.46348 0.0
C420 C 0.55056 0.83296 0.43438 0.0
C421 C 0.59488 0.8123 0.44362 0.0
C422 C 0.50043 0.9799 0.58893 0.0
C423 C 0.51369 0.89605 0.52205 0.0
C424 C 0.47874 0.0352 0.61033 0.0
C425 C 0.43761 0.06141 0.59906 0.0
C426 C 0.48252 0.95031 0.55426 0.0
C427 C 0.41878 0.02955 0.5662 0.0
C428 C 0.50957 0.87462 0.47373 0.0
C429 C 0.59309 0.8295 0.49636 0.0
N430 N 0.44214 0.97588 0.54407 0.0
N431 N 0.55407 0.87162 0.5329 0.0
H432 H 0.30856 0.67283 0.38715 0.0
H433 H 0.23515 0.70689 0.69143 0.0
H434 H 0.21333 0.83471 0.424 0.0
H435 H 0.23573 0.88902 0.65498 0.0
H436 H 0.24779 0.68433 0.59282 0.0
H437 H 0.29851 0.68093 0.48695 0.0
C438 C 0.28399 0.70905 0.41696 0.0
C439 C 0.26197 0.75317 0.39711 0.0
C440 C 0.24655 0.72924 0.60545 0.0
C441 C 0.25131 0.76351 0.51045 0.0
C442 C 0.23885 0.74216 0.66193 0.0
C443 C 0.23343 0.79986 0.68138 0.0
C444 C 0.24882 0.77451 0.56816 0.0
C445 C 0.23922 0.84403 0.6416 0.0
C446 C 0.27863 0.71398 0.47377 0.0
C447 C 0.23159 0.7999 0.43712 0.0
N448 N 0.24556 0.83038 0.58714 0.0
N449 N 0.22799 0.80424 0.49128 0.0
H450 H 0.79995 0.72218 0.83359 0.0
H451 H 0.82019 0.84602 0.10629 0.0
H452 H 0.79743 0.90506 0.86824 0.0
H453 H 0.73057 0.68341 0.12713 0.0
H454 H 0.83006 0.8609 1.0082 0.0
H455 H 0.78668 0.70152 0.93317 0.0
C456 C 0.79585 0.75799 0.86275 0.0
C457 C 0.80073 0.8154 0.8427 0.0
C458 C 0.80853 0.82181 0.03401 0.0
C459 C 0.78648 0.79204 0.95564 0.0
C460 C 0.80341 0.81279 0.08975 0.0
C461 C 0.77351 0.7637 0.12566 0.0
C462 C 0.78478 0.78098 0.01291 0.0
C463 C 0.75381 0.72183 0.10109 0.0
C464 C 0.78825 0.74611 0.91938 0.0
C465 C 0.79441 0.8603 0.88206 0.0
N466 N 0.75951 0.73158 0.04611 0.0
N467 N 0.78868 0.84764 0.93642 0.0
H468 H 0.69392 0.37822 0.45287 0.0
H469 H 0.73579 0.16792 0.66741 0.0
H470 H 0.79305 0.21839 0.38125 0.0
H471 H 0.72456 0.35326 0.6908 0.0
H472 H 0.74607 0.17979 0.56804 0.0
H473 H 0.68828 0.36204 0.54876 0.0
C474 C 0.71368 0.33909 0.45758 0.0
C475 C 0.74497 0.29999 0.40832 0.0
C476 C 0.74214 0.21787 0.59448 0.0
C477 C 0.73853 0.28159 0.51846 0.0
C478 C 0.73621 0.21123 0.65103 0.0
C479 C 0.72811 0.25979 0.68741 0.0
C480 C 0.73905 0.27345 0.57481 0.0
C481 C 0.72997 0.3149 0.66416 0.0
C482 C 0.71097 0.33038 0.51218 0.0
C483 C 0.76863 0.24968 0.41784 0.0
N484 N 0.73412 0.32028 0.60957 0.0
N485 N 0.76518 0.24199 0.47191 0.0
H486 H 0.23463 0.22506 0.12889 0.0
H487 H 0.29617 0.36351 0.81598 0.0
H488 H 0.31415 0.39368 0.06119 0.0
H489 H 0.2857 0.17918 0.84612 0.0
H490 H 0.2836 0.37821 0.9167 0.0
H491 H 0.24054 0.20809 0.03193 0.0
C492 C 0.25415 0.25804 0.09351 0.0
C493 C 0.27328 0.31107 0.10369 0.0
C494 C 0.28356 0.33457 0.90135 0.0
C495 C 0.2779 0.29289 0.99423 0.0
C496 C 0.29029 0.32639 0.84432 0.0
C497 C 0.29351 0.27019 0.82268 0.0
C498 C 0.27891 0.28614 0.93682 0.0
C499 C 0.28485 0.22321 0.86105 0.0
C500 C 0.25684 0.24863 0.03857 0.0
C501 C 0.29798 0.35238 0.05606 0.0
N502 N 0.27839 0.23213 0.91618 0.0
N503 N 0.29879 0.34273 1.00394 0.0
H504 H 0.39181 0.46939 0.24753 0.0
H505 H 0.65146 0.27771 0.2316 0.0
H506 H 0.38626 0.28277 0.25969 0.0
H507 H 0.63728 0.46272 0.26106 0.0
H508 H 0.55876 0.2796 0.23282 0.0
H509 H 0.48658 0.46853 0.24264 0.0
C510 C 0.41061 0.4282 0.24881 0.0
C511 C 0.3809 0.37606 0.25398 0.0
C512 C 0.57587 0.31979 0.23912 0.0
C513 C 0.48923 0.37483 0.24895 0.0
C514 C 0.62896 0.31879 0.23827 0.0
C515 C 0.65232 0.37013 0.24636 0.0
C516 C 0.54594 0.37255 0.2476 0.0
C517 C 0.62085 0.422 0.25503 0.0
C518 C 0.46457 0.4278 0.24641 0.0
C519 C 0.40729 0.32406 0.25604 0.0
N520 N 0.56939 0.4219 0.25525 0.0
N521 N 0.4599 0.32479 0.25344 0.0
H522 H 0.67259 0.84796 0.66678 0.0
H523 H 0.37931 0.67514 0.77475 0.0
H524 H 0.65883 0.68473 0.75489 0.0
H525 H 0.37327 0.84881 0.83969 0.0
H526 H 0.48602 0.66879 0.74175 0.0
H527 H 0.56733 0.83989 0.70033 0.0
C528 C 0.64786 0.80979 0.69226 0.0
C529 C 0.67482 0.76702 0.70821 0.0
C530 C 0.4607 0.70782 0.76392 0.0
C531 C 0.55393 0.75753 0.74609 0.0
C532 C 0.40008 0.71156 0.78262 0.0
C533 C 0.36717 0.76254 0.81022 0.0
C534 C 0.48865 0.75603 0.77116 0.0
C535 C 0.3965 0.80854 0.81901 0.0
C536 C 0.58765 0.80552 0.71161 0.0
C537 C 0.63986 0.71876 0.74172 0.0
N538 N 0.4556 0.80454 0.79863 0.0
N539 N 0.58101 0.71517 0.75957 0.0
H540 H 0.13704 0.87401 0.27388 0.0
H541 H 0.86577 0.69091 0.31194 0.0
H542 H 0.15849 0.69573 0.21482 0.0
H543 H 0.88433 0.87393 0.2708 0.0
H544 H 0.96482 0.69197 0.29848 0.0
H545 H 0.0367 0.87428 0.29129 0.0
C546 C 0.12074 0.83482 0.26469 0.0
C547 C 0.15602 0.78432 0.2438 0.0
C548 C 0.94726 0.73147 0.29152 0.0
C549 C 0.04096 0.78448 0.26445 0.0
C550 C 0.89072 0.73111 0.29956 0.0
C551 C 0.86696 0.78219 0.29151 0.0
C552 C 0.98016 0.78313 0.27545 0.0
C553 C 0.90091 0.83333 0.27692 0.0
C554 C 0.06347 0.83514 0.27467 0.0
C555 C 0.13244 0.73516 0.23226 0.0
N556 N 0.95582 0.83248 0.26927 0.0
N557 N 0.07614 0.73629 0.24323 0.0
H558 H 0.13029 0.13486 0.80866 0.0
H559 H 0.89485 0.13025 0.70412 0.0
H560 H 0.18069 0.16878 0.62256 0.0
H561 H 0.84528 0.17208 0.88849 0.0
H562 H 0.99947 0.11838 0.67435 0.0
H563 H 0.02573 0.12251 0.83859 0.0
C564 C 0.11966 0.13862 0.77382 0.0
C565 C 0.16441 0.15328 0.71303 0.0
C566 C 0.96548 0.12946 0.72149 0.0
C567 C 0.04473 0.13904 0.74705 0.0
C568 C 0.90568 0.13588 0.73864 0.0
C569 C 0.86117 0.15264 0.79884 0.0
C570 C 0.98084 0.13893 0.76505 0.0
C571 C 0.87809 0.15958 0.84148 0.0
C572 C 0.05988 0.13192 0.79106 0.0
C573 C 0.1477 0.15789 0.67001 0.0
N574 N 0.93643 0.15286 0.82378 0.0
N575 N 0.08933 0.15098 0.68782 0.0
loop_
_geom_bond_atom_site_label_1
_geom_bond_atom_site_label_2
_geom_bond_distance
_geom_bond_site_symmetry_2
_ccdc_geom_bond_type
Mn0 O5 2.095 . S
Mn0 O15 2.162 . S
Mn0 O16 2.297 . S
Mn0 O24 2.385 . S
Mn0 O25 2.209 . S
Mn0 O26 2.094 . S
Mn1 O6 2.121 . S
Mn1 N8 2.257 . S
Mn1 N17 2.282 . S
Mn1 O25 2.215 . S
Mn1 O27 2.117 . S
C2 O24 1.234 . S
C2 O25 1.283 . S
C3 O15 1.281 . S
C3 O16 1.236 . S
C4 O26 1.240 . S
C4 O27 1.264 . S
O5 Mn0 2.095 . S
O5 C14 1.250 . S
O6 Mn1 2.121 . S
O6 C14 1.258 . S
C7 N8 1.326 . S
C7 C11 1.460 . S
C7 H13 0.929 . S
N8 Mn1 2.257 . S
N8 C7 1.326 . S
N8 C12 1.362 . S
C9 C10 1.258 . S
C9 C12 1.431 . S
C9 C29 1.449 . S
C10 C9 1.258 . S
C10 C11 1.477 . S
C10 H30 0.931 . S
C11 C7 1.460 . S
C11 C10 1.477 . S
C11 H31 0.930 . S
C12 N8 1.362 . S
C12 C9 1.431 . S
C12 C22 1.476 . S
H13 C7 0.929 . S
C14 O5 1.250 . S
C14 O6 1.258 . S
O15 Mn0 2.162 . S
O15 C3 1.281 . S
O16 Mn0 2.297 . S
O16 C3 1.236 . S
N17 Mn1 2.282 . S
N17 C18 1.328 . S
N17 C22 1.318 . S
C18 N17 1.328 . S
C18 C19 1.457 . S
C18 H23 0.929 . S
C19 C18 1.457 . S
C19 C20 1.291 . S
C19 H32 0.931 . S
C20 C19 1.291 . S
C20 C21 1.373 . S
C20 H33 0.929 . S
C21 C20 1.373 . S
C21 C22 1.396 . S
C21 C28 1.403 . S
C22 C12 1.476 . S
C22 N17 1.318 . S
C22 C21 1.396 . S
H23 C18 0.929 . S
O24 Mn0 2.385 . S
O24 C2 1.234 . S
O25 Mn0 2.209 . S
O25 Mn1 2.215 . S
O25 C2 1.283 . S
O26 Mn0 2.094 . S
O26 C4 1.240 . S
O27 Mn1 2.117 . S
O27 C4 1.264 . S
C28 C21 1.403 . S
C28 C29 1.399 . S
C28 H34 0.929 . S
C29 C9 1.449 . S
C29 C28 1.399 . S
C29 H35 0.930 . S
H30 C10 0.931 . S
H31 C11 0.930 . S
H32 C19 0.931 . S
H33 C20 0.929 . S
H34 C28 0.929 . S
H35 C29 0.930 . S
Mn36 O41 2.095 . S
Mn36 O51 2.162 . S
Mn36 O52 2.297 . S
Mn36 O60 2.385 . S
Mn36 O61 2.209 . S
Mn36 O62 2.094 . S
Mn37 O42 2.121 . S
Mn37 N44 2.257 . S
Mn37 N53 2.282 . S
Mn37 O61 2.215 . S
Mn37 O63 2.117 . S
C38 O60 1.234 . S
C38 O61 1.283 . S
C39 O51 1.281 . S
C39 O52 1.236 . S
C40 O62 1.240 . S
C40 O63 1.264 . S
O41 Mn36 2.095 . S
O41 C50 1.250 . S
O42 Mn37 2.121 . S
O42 C50 1.258 . S
C43 N44 1.326 . S
C43 C47 1.460 . S
C43 H49 0.929 . S
N44 Mn37 2.257 . S
N44 C43 1.326 . S
N44 C48 1.362 . S
C45 C46 1.258 . S
C45 C48 1.431 . S
C45 C65 1.449 . S
C46 C45 1.258 . S
C46 C47 1.477 . S
C46 H66 0.931 . S
C47 C43 1.460 . S
C47 C46 1.477 . S
C47 H67 0.930 . S
C48 N44 1.362 . S
C48 C45 1.431 . S
C48 C58 1.476 . S
H49 C43 0.929 . S
C50 O41 1.250 . S
C50 O42 1.258 . S
O51 Mn36 2.162 . S
O51 C39 1.281 . S
O52 Mn36 2.297 . S
O52 C39 1.236 . S
N53 Mn37 2.282 . S
N53 C54 1.328 . S
N53 C58 1.318 . S
C54 N53 1.328 . S
C54 C55 1.457 . S
C54 H59 0.929 . S
C55 C54 1.457 . S
C55 C56 1.291 . S
C55 H68 0.931 . S
C56 C55 1.291 . S
C56 C57 1.373 . S
C56 H69 0.929 . S
C57 C56 1.373 . S
C57 C58 1.396 . S
C57 C64 1.403 . S
C58 C48 1.476 . S
C58 N53 1.318 . S
C58 C57 1.396 . S
H59 C54 0.929 . S
O60 Mn36 2.385 . S
O60 C38 1.234 . S
O61 Mn36 2.209 . S
O61 Mn37 2.215 . S
O61 C38 1.283 . S
O62 Mn36 2.094 . S
O62 C40 1.240 . S
O63 Mn37 2.117 . S
O63 C40 1.264 . S
C64 C57 1.403 . S
C64 C65 1.399 . S
C64 H70 0.929 . S
C65 C45 1.449 . S
C65 C64 1.399 . S
C65 H71 0.930 . S
H66 C46 0.931 . S
H67 C47 0.930 . S
H68 C55 0.931 . S
H69 C56 0.929 . S
H70 C64 0.929 . S
H71 C65 0.930 . S
Mn72 O77 2.095 . S
Mn72 O87 2.162 . S
Mn72 O88 2.297 . S
Mn72 O96 2.385 . S
Mn72 O97 2.209 . S
Mn72 O98 2.094 . S
Mn73 O78 2.121 . S
Mn73 N80 2.257 . S
Mn73 N89 2.282 . S
Mn73 O97 2.215 . S
Mn73 O99 2.117 . S
C74 O96 1.234 . S
C74 O97 1.283 . S
C75 O87 1.281 . S
C75 O88 1.236 . S
C76 O98 1.240 . S
C76 O99 1.264 . S
O77 Mn72 2.095 . S
O77 C86 1.250 . S
O78 Mn73 2.121 . S
O78 C86 1.258 . S
C79 N80 1.326 . S
C79 C83 1.460 . S
C79 H85 0.929 . S
N80 Mn73 2.257 . S
N80 C79 1.326 . S
N80 C84 1.362 . S
C81 C82 1.258 . S
C81 C84 1.431 . S
C81 C101 1.449 . S
C82 C81 1.258 . S
C82 C83 1.477 . S
C82 H102 0.931 . S
C83 C79 1.460 . S
C83 C82 1.477 . S
C83 H103 0.930 . S
C84 N80 1.362 . S
C84 C81 1.431 . S
C84 C94 1.476 . S
H85 C79 0.929 . S
C86 O77 1.250 . S
C86 O78 1.258 . S
O87 Mn72 2.162 . S
O87 C75 1.281 . S
O88 Mn72 2.297 . S
O88 C75 1.236 . S
N89 Mn73 2.282 . S
N89 C90 1.328 . S
N89 C94 1.318 . S
C90 N89 1.328 . S
C90 C91 1.457 . S
C90 H95 0.929 . S
C91 C90 1.457 . S
C91 C92 1.291 . S
C91 H104 0.931 . S
C92 C91 1.291 . S
C92 C93 1.373 . S
C92 H105 0.929 . S
C93 C92 1.373 . S
C93 C94 1.396 . S
C93 C100 1.403 . S
C94 C84 1.476 . S
C94 N89 1.318 . S
C94 C93 1.396 . S
H95 C90 0.929 . S
O96 Mn72 2.385 . S
O96 C74 1.234 . S
O97 Mn72 2.209 . S
O97 Mn73 2.215 . S
O97 C74 1.283 . S
O98 Mn72 2.094 . S
O98 C76 1.240 . S
O99 Mn73 2.117 . S
O99 C76 1.264 . S
C100 C93 1.403 . S
C100 C101 1.399 . S
C100 H106 0.929 . S
C101 C81 1.449 . S
C101 C100 1.399 . S
C101 H107 0.930 . S
H102 C82 0.931 . S
H103 C83 0.930 . S
H104 C91 0.931 . S
H105 C92 0.929 . S
H106 C100 0.929 . S
H107 C101 0.930 . S
Mn108 O113 2.095 . S
Mn108 O123 2.162 . S
Mn108 O124 2.297 . S
Mn108 O132 2.385 . S
Mn108 O133 2.209 . S
Mn108 O134 2.094 . S
Mn109 O114 2.121 . S
Mn109 N116 2.257 . S
Mn109 N125 2.282 . S
Mn109 O133 2.215 . S
Mn109 O135 2.117 . S
C110 O132 1.234 . S
C110 O133 1.283 . S
C111 O123 1.281 . S
C111 O124 1.236 . S
C112 O134 1.240 . S
C112 O135 1.264 . S
O113 Mn108 2.095 . S
O113 C122 1.250 . S
O114 Mn109 2.121 . S
O114 C122 1.258 . S
C115 N116 1.326 . S
C115 C119 1.460 . S
C115 H121 0.929 . S
N116 Mn109 2.257 . S
N116 C115 1.326 . S
N116 C120 1.362 . S
C117 C118 1.258 . S
C117 C120 1.431 . S
C117 C137 1.449 . S
C118 C117 1.258 . S
C118 C119 1.477 . S
C118 H138 0.931 . S
C119 C115 1.460 . S
C119 C118 1.477 . S
C119 H139 0.930 . S
C120 N116 1.362 . S
C120 C117 1.431 . S
C120 C130 1.476 . S
H121 C115 0.929 . S
C122 O113 1.250 . S
C122 O114 1.258 . S
O123 Mn108 2.162 . S
O123 C111 1.281 . S
O124 Mn108 2.297 . S
O124 C111 1.236 . S
N125 Mn109 2.282 . S
N125 C126 1.328 . S
N125 C130 1.318 . S
C126 N125 1.328 . S
C126 C127 1.457 . S
C126 H131 0.929 . S
C127 C126 1.457 . S
C127 C128 1.291 . S
C127 H140 0.931 . S
C128 C127 1.291 . S
C128 C129 1.373 . S
C128 H141 0.929 . S
C129 C128 1.373 . S
C129 C130 1.396 . S
C129 C136 1.403 . S
C130 C120 1.476 . S
C130 N125 1.318 . S
C130 C129 1.396 . S
H131 C126 0.929 . S
O132 Mn108 2.385 . S
O132 C110 1.234 . S
O133 Mn108 2.209 . S
O133 Mn109 2.215 . S
O133 C110 1.283 . S
O134 Mn108 2.094 . S
O134 C112 1.240 . S
O135 Mn109 2.117 . S
O135 C112 1.264 . S
C136 C129 1.403 . S
C136 C137 1.399 . S
C136 H142 0.929 . S
C137 C117 1.449 . S
C137 C136 1.399 . S
C137 H143 0.930 . S
H138 C118 0.931 . S
H139 C119 0.930 . S
H140 C127 0.931 . S
H141 C128 0.929 . S
H142 C136 0.929 . S
H143 C137 0.930 . S
Mn144 O149 2.095 . S
Mn144 O159 2.162 . S
Mn144 O160 2.297 . S
Mn144 O168 2.385 . S
Mn144 O169 2.209 . S
Mn144 O170 2.094 . S
Mn145 O150 2.121 . S
Mn145 N152 2.257 . S
Mn145 N161 2.282 . S
Mn145 O169 2.215 . S
Mn145 O171 2.117 . S
C146 O168 1.234 . S
C146 O169 1.283 . S
C147 O159 1.281 . S
C147 O160 1.236 . S
C148 O170 1.240 . S
C148 O171 1.264 . S
O149 Mn144 2.095 . S
O149 C158 1.250 . S
O150 Mn145 2.121 . S
O150 C158 1.258 . S
C151 N152 1.326 . S
C151 C155 1.460 . S
C151 H157 0.929 . S
N152 Mn145 2.257 . S
N152 C151 1.326 . S
N152 C156 1.351 1_565 S
C153 C154 1.258 . S
C153 C156 1.442 . S
C153 C173 1.449 . S
C154 C153 1.258 . S
C154 C155 1.477 1_545 S
C154 H174 0.931 . S
C155 C151 1.460 . S
C155 C154 1.477 1_565 S
C155 H175 0.930 . S
C156 N152 1.351 1_545 S
C156 C153 1.442 . S
C156 C166 1.476 . S
H157 C151 0.929 . S
C158 O149 1.250 . S
C158 O150 1.258 . S
O159 Mn144 2.162 . S
O159 C147 1.281 . S
O160 Mn144 2.297 . S
O160 C147 1.236 . S
N161 Mn145 2.282 . S
N161 C162 1.328 . S
N161 C166 1.318 1_565 S
C162 N161 1.328 . S
C162 C163 1.457 1_565 S
C162 H167 0.929 . S
C163 C162 1.457 1_545 S
C163 C164 1.291 . S
C163 H176 0.931 . S
C164 C163 1.291 . S
C164 C165 1.373 . S
C164 H177 0.929 . S
C165 C164 1.373 . S
C165 C166 1.396 . S
C165 C172 1.403 . S
C166 C156 1.476 . S
C166 N161 1.318 1_545 S
C166 C165 1.396 . S
H167 C162 0.929 . S
O168 Mn144 2.385 . S
O168 C146 1.234 . S
O169 Mn144 2.209 . S
O169 Mn145 2.215 . S
O169 C146 1.283 . S
O170 Mn144 2.094 . S
O170 C148 1.240 . S
O171 Mn145 2.117 . S
O171 C148 1.264 . S
C172 C165 1.403 . S
C172 C173 1.399 . S
C172 H178 0.929 . S
C173 C153 1.449 . S
C173 C172 1.399 . S
C173 H179 0.930 . S
H174 C154 0.931 . S
H175 C155 0.930 . S
H176 C163 0.931 . S
H177 C164 0.929 . S
H178 C172 0.929 . S
H179 C173 0.930 . S
Mn180 O185 2.095 . S
Mn180 O195 2.162 . S
Mn180 O196 2.297 . S
Mn180 O204 2.385 . S
Mn180 O205 2.209 . S
Mn180 O206 2.094 . S
Mn181 O186 2.121 . S
Mn181 N188 2.257 . S
Mn181 N197 2.282 . S
Mn181 O205 2.215 . S
Mn181 O207 2.117 . S
C182 O204 1.234 . S
C182 O205 1.283 . S
C183 O195 1.281 . S
C183 O196 1.236 . S
C184 O206 1.240 . S
C184 O207 1.264 . S
O185 Mn180 2.095 . S
O185 C194 1.250 . S
O186 Mn181 2.121 . S
O186 C194 1.258 . S
C187 N188 1.326 . S
C187 C191 1.460 . S
C187 H193 0.929 . S
N188 Mn181 2.257 . S
N188 C187 1.326 . S
N188 C192 1.351 1_565 S
C189 C190 1.258 . S
C189 C192 1.442 . S
C189 C209 1.449 . S
C190 C189 1.258 . S
C190 C191 1.477 1_545 S
C190 H210 0.931 . S
C191 C187 1.460 . S
C191 C190 1.477 1_565 S
C191 H211 0.930 . S
C192 N188 1.351 1_545 S
C192 C189 1.442 . S
C192 C202 1.476 . S
H193 C187 0.929 . S
C194 O185 1.250 . S
C194 O186 1.258 . S
O195 Mn180 2.162 . S
O195 C183 1.281 . S
O196 Mn180 2.297 . S
O196 C183 1.236 . S
N197 Mn181 2.282 . S
N197 C198 1.328 . S
N197 C202 1.318 1_565 S
C198 N197 1.328 . S
C198 C199 1.457 1_565 S
C198 H203 0.929 . S
C199 C198 1.457 1_545 S
C199 C200 1.291 . S
C199 H212 0.931 . S
C200 C199 1.291 . S
C200 C201 1.373 . S
C200 H213 0.929 . S
C201 C200 1.373 . S
C201 C202 1.396 . S
C201 C208 1.403 . S
C202 C192 1.476 . S
C202 N197 1.318 1_545 S
C202 C201 1.396 . S
H203 C198 0.929 . S
O204 Mn180 2.385 . S
O204 C182 1.234 . S
O205 Mn180 2.209 . S
O205 Mn181 2.215 . S
O205 C182 1.283 . S
O206 Mn180 2.094 . S
O206 C184 1.240 . S
O207 Mn181 2.117 . S
O207 C184 1.264 . S
C208 C201 1.403 . S
C208 C209 1.399 . S
C208 H214 0.929 . S
C209 C189 1.449 . S
C209 C208 1.399 . S
C209 H215 0.930 . S
H210 C190 0.931 . S
H211 C191 0.930 . S
H212 C199 0.931 . S
H213 C200 0.929 . S
H214 C208 0.929 . S
H215 C209 0.930 . S
Mn216 O221 2.095 . S
Mn216 O231 2.162 . S
Mn216 O232 2.297 . S
Mn216 O240 2.385 . S
Mn216 O241 2.209 . S
Mn216 O242 2.094 . S
Mn217 O222 2.121 . S
Mn217 N224 2.257 . S
Mn217 N233 2.282 . S
Mn217 O241 2.215 . S
Mn217 O243 2.117 . S
C218 O240 1.234 . S
C218 O241 1.283 . S
C219 O231 1.281 . S
C219 O232 1.236 . S
C220 O242 1.240 . S
C220 O243 1.264 . S
O221 Mn216 2.095 . S
O221 C230 1.250 . S
O222 Mn217 2.121 . S
O222 C230 1.258 . S
C223 N224 1.326 . S
C223 C227 1.460 . S
C223 H229 0.929 . S
N224 Mn217 2.257 . S
N224 C223 1.326 . S
N224 C228 1.362 . S
C225 C226 1.258 . S
C225 C228 1.431 . S
C225 C245 1.449 . S
C226 C225 1.258 . S
C226 C227 1.477 . S
C226 H246 0.931 . S
C227 C223 1.460 . S
C227 C226 1.477 . S
C227 H247 0.930 . S
C228 N224 1.362 . S
C228 C225 1.431 . S
C228 C238 1.476 . S
H229 C223 0.929 . S
C230 O221 1.250 . S
C230 O222 1.258 . S
O231 Mn216 2.162 . S
O231 C219 1.281 . S
O232 Mn216 2.297 . S
O232 C219 1.236 . S
N233 Mn217 2.282 . S
N233 C234 1.328 . S
N233 C238 1.318 . S
C234 N233 1.328 . S
C234 C235 1.457 . S
C234 H239 0.929 . S
C235 C234 1.457 . S
C235 C236 1.291 . S
C235 H248 0.931 . S
C236 C235 1.291 . S
C236 C237 1.373 . S
C236 H249 0.929 . S
C237 C236 1.373 . S
C237 C238 1.396 . S
C237 C244 1.403 . S
C238 C228 1.476 . S
C238 N233 1.318 . S
C238 C237 1.396 . S
H239 C234 0.929 . S
O240 Mn216 2.385 . S
O240 C218 1.234 . S
O241 Mn216 2.209 . S
O241 Mn217 2.215 . S
O241 C218 1.283 . S
O242 Mn216 2.094 . S
O242 C220 1.240 . S
O243 Mn217 2.117 . S
O243 C220 1.264 . S
C244 C237 1.403 . S
C244 C245 1.399 . S
C244 H250 0.929 . S
C245 C225 1.449 . S
C245 C244 1.399 . S
C245 H251 0.930 . S
H246 C226 0.931 . S
H247 C227 0.930 . S
H248 C235 0.931 . S
H249 C236 0.929 . S
H250 C244 0.929 . S
H251 C245 0.930 . S
Mn252 O257 2.095 . S
Mn252 O267 2.162 . S
Mn252 O268 2.297 . S
Mn252 O276 2.385 . S
Mn252 O277 2.209 . S
Mn252 O278 2.094 . S
Mn253 O258 2.121 . S
Mn253 N260 2.257 . S
Mn253 N269 2.282 . S
Mn253 O277 2.215 . S
Mn253 O279 2.117 . S
C254 O276 1.234 . S
C254 O277 1.283 . S
C255 O267 1.281 . S
C255 O268 1.236 . S
C256 O278 1.240 . S
C256 O279 1.264 . S
O257 Mn252 2.095 . S
O257 C266 1.250 . S
O258 Mn253 2.121 . S
O258 C266 1.258 . S
C259 N260 1.326 . S
C259 C263 1.460 . S
C259 H265 0.929 . S
N260 Mn253 2.257 . S
N260 C259 1.326 . S
N260 C264 1.362 . S
C261 C262 1.258 . S
C261 C264 1.431 . S
C261 C281 1.449 . S
C262 C261 1.258 . S
C262 C263 1.477 . S
C262 H282 0.931 . S
C263 C259 1.460 . S
C263 C262 1.477 . S
C263 H283 0.930 . S
C264 N260 1.362 . S
C264 C261 1.431 . S
C264 C274 1.476 . S
H265 C259 0.929 . S
C266 O257 1.250 . S
C266 O258 1.258 . S
O267 Mn252 2.162 . S
O267 C255 1.281 . S
O268 Mn252 2.297 . S
O268 C255 1.236 . S
N269 Mn253 2.282 . S
N269 C270 1.328 . S
N269 C274 1.318 . S
C270 N269 1.328 . S
C270 C271 1.457 . S
C270 H275 0.929 . S
C271 C270 1.457 . S
C271 C272 1.291 . S
C271 H284 0.931 . S
C272 C271 1.291 . S
C272 C273 1.373 . S
C272 H285 0.929 . S
C273 C272 1.373 . S
C273 C274 1.396 . S
C273 C280 1.403 . S
C274 C264 1.476 . S
C274 N269 1.318 . S
C274 C273 1.396 . S
H275 C270 0.929 . S
O276 Mn252 2.385 . S
O276 C254 1.234 . S
O277 Mn252 2.209 . S
O277 Mn253 2.215 . S
O277 C254 1.283 . S
O278 Mn252 2.094 . S
O278 C256 1.240 . S
O279 Mn253 2.117 . S
O279 C256 1.264 . S
C280 C273 1.403 . S
C280 C281 1.399 . S
C280 H286 0.929 . S
C281 C261 1.449 . S
C281 C280 1.399 . S
C281 H287 0.930 . S
H282 C262 0.931 . S
H283 C263 0.930 . S
H284 C271 0.931 . S
H285 C272 0.929 . S
H286 C280 0.929 . S
H287 C281 0.930 . S
H288 C294 0.930 . S
H289 C298 0.930 . S
H290 C303 0.929 . S
H291 C301 0.929 . S
H292 C296 0.929 . S
H293 C302 0.929 . S
C294 H288 0.930 . S
C294 C295 1.367 . S
C294 C302 1.378 1_455 S
C295 C294 1.367 . S
C295 C303 1.433 . S
C296 H292 0.929 . S
C296 C298 1.378 1_455 S
C296 C300 1.350 1_455 S
C297 C300 1.463 1_445 S
C297 C302 1.350 1_455 S
C297 N305 1.427 . S
C298 H289 0.930 . S
C298 C296 1.378 1_655 S
C298 C299 1.367 . S
C299 C298 1.367 . S
C299 C301 1.433 . S
C300 C296 1.350 1_655 S
C300 C297 1.463 1_665 S
C300 N304 1.427 . S
C301 H291 0.929 . S
C301 C299 1.433 . S
C301 N304 1.384 . S
C302 H293 0.929 . S
C302 C294 1.378 1_655 S
C302 C297 1.350 1_655 S
C303 H290 0.929 . S
C303 C295 1.433 . S
C303 N305 1.384 . S
N304 C300 1.427 . S
N304 C301 1.384 . S
N305 C297 1.427 . S
N305 C303 1.384 . S
H306 C312 0.930 . S
H307 C316 0.930 . S
H308 C321 0.929 . S
H309 C319 0.929 . S
H310 C314 0.929 . S
H311 C320 0.929 . S
C312 H306 0.930 . S
C312 C313 1.367 . S
C312 C320 1.378 1_455 S
C313 C312 1.367 . S
C313 C321 1.433 . S
C314 H310 0.929 . S
C314 C316 1.378 1_455 S
C314 C318 1.350 1_455 S
C315 C318 1.463 1_466 S
C315 C320 1.350 1_455 S
C315 N323 1.427 . S
C316 H307 0.930 . S
C316 C314 1.378 1_655 S
C316 C317 1.367 . S
C317 C316 1.367 . S
C317 C319 1.433 . S
C318 C314 1.350 1_655 S
C318 C315 1.463 1_644 S
C318 N322 1.427 . S
C319 H309 0.929 . S
C319 C317 1.433 . S
C319 N322 1.384 . S
C320 H311 0.929 . S
C320 C312 1.378 1_655 S
C320 C315 1.350 1_655 S
C321 H308 0.929 . S
C321 C313 1.433 . S
C321 N323 1.384 . S
N322 C318 1.427 . S
N322 C319 1.384 . S
N323 C315 1.427 . S
N323 C321 1.384 . S
H324 C330 0.930 . S
H325 C334 0.930 . S
H326 C339 0.929 . S
H327 C337 0.929 . S
H328 C332 0.929 . S
H329 C338 0.929 . S
C330 H324 0.930 . S
C330 C331 1.367 . S
C330 C338 1.378 . S
C331 C330 1.367 . S
C331 C339 1.433 . S
C332 H328 0.929 . S
C332 C334 1.378 . S
C332 C336 1.350 . S
C333 C336 1.463 . S
C333 C338 1.350 . S
C333 N341 1.427 . S
C334 H325 0.930 . S
C334 C332 1.378 . S
C334 C335 1.367 . S
C335 C334 1.367 . S
C335 C337 1.433 . S
C336 C332 1.350 . S
C336 C333 1.463 . S
C336 N340 1.427 . S
C337 H327 0.929 . S
C337 C335 1.433 . S
C337 N340 1.384 . S
C338 H329 0.929 . S
C338 C330 1.378 . S
C338 C333 1.350 . S
C339 H326 0.929 . S
C339 C331 1.433 . S
C339 N341 1.384 . S
N340 C336 1.427 . S
N340 C337 1.384 . S
N341 C333 1.427 . S
N341 C339 1.384 . S
H342 C348 0.930 . S
H343 C352 0.930 . S
H344 C357 0.929 . S
H345 C355 0.929 . S
H346 C350 0.929 . S
H347 C356 0.929 . S
C348 H342 0.930 . S
C348 C349 1.367 . S
C348 C356 1.378 . S
C349 C348 1.367 . S
C349 C357 1.433 . S
C350 H346 0.929 . S
C350 C352 1.378 . S
C350 C354 1.350 . S
C351 C354 1.463 1_554 S
C351 C356 1.350 . S
C351 N359 1.428 . S
C352 H343 0.930 . S
C352 C350 1.378 . S
C352 C353 1.367 . S
C353 C352 1.367 . S
C353 C355 1.433 . S
C354 C350 1.350 . S
C354 C351 1.463 1_556 S
C354 N358 1.427 1_556 S
C355 H345 0.929 . S
C355 C353 1.433 . S
C355 N358 1.384 1_556 S
C356 H347 0.929 . S
C356 C348 1.378 . S
C356 C351 1.350 . S
C357 H344 0.929 . S
C357 C349 1.433 . S
C357 N359 1.386 . S
N358 C354 1.427 1_554 S
N358 C355 1.384 1_554 S
N359 C351 1.428 . S
N359 C357 1.386 . S
H360 C366 0.930 . S
H361 C370 0.930 . S
H362 C375 0.929 . S
H363 C373 0.929 . S
H364 C368 0.929 . S
H365 C374 0.929 . S
C366 H360 0.930 . S
C366 C367 1.367 . S
C366 C374 1.378 . S
C367 C366 1.367 . S
C367 C375 1.433 . S
C368 H364 0.929 . S
C368 C370 1.378 . S
C368 C372 1.350 . S
C369 C372 1.463 1_654 S
C369 C374 1.350 . S
C369 N377 1.427 1_554 S
C370 H361 0.930 . S
C370 C368 1.378 . S
C370 C371 1.367 . S
C371 C370 1.367 . S
C371 C373 1.433 . S
C372 C368 1.350 . S
C372 C369 1.463 1_456 S
C372 N376 1.427 1_556 S
C373 H363 0.929 . S
C373 C371 1.433 . S
C373 N376 1.384 1_556 S
C374 H365 0.929 . S
C374 C366 1.378 . S
C374 C369 1.350 . S
C375 H362 0.929 . S
C375 C367 1.433 . S
C375 N377 1.384 1_554 S
N376 C372 1.427 1_554 S
N376 C373 1.384 1_554 S
N377 C369 1.427 1_556 S
N377 C375 1.384 1_556 S
H378 C384 0.930 . S
H379 C388 0.930 . S
H380 C393 0.929 . S
H381 C391 0.929 . S
H382 C386 0.924 1_455 S
H383 C392 0.929 . S
C384 H378 0.930 . S
C384 C385 1.367 . S
C384 C392 1.378 . S
C385 C384 1.367 . S
C385 C393 1.433 . S
C386 H382 0.924 1_655 S
C386 C388 1.378 . S
C386 C390 1.350 . S
C387 C390 1.463 1_455 S
C387 C392 1.350 . S
C387 N395 1.427 . S
C388 H379 0.930 . S
C388 C386 1.378 . S
C388 C389 1.367 . S
C389 C388 1.367 . S
C389 C391 1.433 . S
C390 C386 1.350 . S
C390 C387 1.463 1_655 S
C390 N394 1.427 . S
C391 H381 0.929 . S
C391 C389 1.433 . S
C391 N394 1.384 . S
C392 H383 0.929 . S
C392 C384 1.378 . S
C392 C387 1.350 . S
C393 H380 0.929 . S
C393 C385 1.433 . S
C393 N395 1.384 . S
N394 C390 1.427 . S
N394 C391 1.384 . S
N395 C387 1.427 . S
N395 C393 1.384 . S
H396 C402 0.930 . S
H397 C406 0.930 . S
H398 C411 0.929 . S
H399 C409 0.929 . S
H400 C404 0.929 1_556 S
H401 C410 0.929 . S
C402 H396 0.930 . S
C402 C403 1.367 . S
C402 C410 1.378 1_556 S
C403 C402 1.367 . S
C403 C411 1.433 . S
C404 H400 0.929 1_554 S
C404 C406 1.378 . S
C404 C408 1.350 . S
C405 C408 1.463 1_546 S
C405 C410 1.350 1_556 S
C405 N413 1.427 . S
C406 H397 0.930 . S
C406 C404 1.378 . S
C406 C407 1.367 . S
C407 C406 1.367 . S
C407 C409 1.433 . S
C408 C404 1.350 . S
C408 C405 1.463 1_564 S
C408 N412 1.427 . S
C409 H399 0.929 . S
C409 C407 1.433 . S
C409 N412 1.384 . S
C410 H401 0.929 . S
C410 C402 1.378 1_554 S
C410 C405 1.350 1_554 S
C411 H398 0.929 . S
C411 C403 1.433 . S
C411 N413 1.384 . S
N412 C408 1.427 . S
N412 C409 1.384 . S
N413 C405 1.427 . S
N413 C411 1.384 . S
H414 C420 0.930 . S
H415 C424 0.930 . S
H416 C429 0.929 . S
H417 C427 0.929 . S
H418 C422 0.929 . S
H419 C428 0.929 . S
C420 H414 0.930 . S
C420 C421 1.367 . S
C420 C428 1.378 . S
C421 C420 1.367 . S
C421 C429 1.433 . S
C422 H418 0.929 . S
C422 C424 1.378 . S
C422 C426 1.350 . S
C423 C426 1.463 1_565 S
C423 C428 1.350 . S
C423 N431 1.427 . S
C424 H415 0.930 . S
C424 C422 1.378 . S
C424 C425 1.367 . S
C425 C424 1.367 . S
C425 C427 1.433 . S
C426 C422 1.350 . S
C426 C423 1.463 1_545 S
C426 N430 1.427 . S
C427 H417 0.929 . S
C427 C425 1.433 . S
C427 N430 1.384 . S
C428 H419 0.929 . S
C428 C420 1.378 . S
C428 C423 1.350 . S
C429 H416 0.929 . S
C429 C421 1.433 . S
C429 N431 1.384 . S
N430 C426 1.427 . S
N430 C427 1.384 . S
N431 C423 1.427 . S
N431 C429 1.384 . S
H432 C438 0.930 . S
H433 C442 0.930 . S
H434 C447 0.929 . S
H435 C445 0.929 . S
H436 C440 0.929 . S
H437 C446 0.929 . S
C438 H432 0.930 . S
C438 C439 1.367 . S
C438 C446 1.378 . S
C439 C438 1.367 . S
C439 C447 1.433 . S
C440 H436 0.929 . S
C440 C442 1.378 . S
C440 C444 1.350 . S
C441 C444 1.463 . S
C441 C446 1.350 . S
C441 N449 1.427 . S
C442 H433 0.930 . S
C442 C440 1.378 . S
C442 C443 1.367 . S
C443 C442 1.367 . S
C443 C445 1.433 . S
C444 C440 1.350 . S
C444 C441 1.463 . S
C444 N448 1.427 . S
C445 H435 0.929 . S
C445 C443 1.433 . S
C445 N448 1.384 . S
C446 H437 0.929 . S
C446 C438 1.378 . S
C446 C441 1.350 . S
C447 H434 0.929 . S
C447 C439 1.433 . S
C447 N449 1.384 . S
N448 C444 1.427 . S
N448 C445 1.384 . S
N449 C441 1.427 . S
N449 C447 1.384 . S
H450 C456 0.930 . S
H451 C460 0.930 . S
H452 C465 0.929 . S
H453 C463 0.929 . S
H454 C458 0.929 . S
H455 C464 0.929 . S
C456 H450 0.930 . S
C456 C457 1.367 . S
C456 C464 1.378 . S
C457 C456 1.367 . S
C457 C465 1.433 . S
C458 H454 0.929 . S
C458 C460 1.378 . S
C458 C462 1.350 . S
C459 C462 1.463 1_556 S
C459 C464 1.350 . S
C459 N467 1.427 . S
C460 H451 0.930 . S
C460 C458 1.378 . S
C460 C461 1.367 . S
C461 C460 1.367 . S
C461 C463 1.433 . S
C462 C458 1.350 . S
C462 C459 1.463 1_554 S
C462 N466 1.427 . S
C463 H453 0.929 . S
C463 C461 1.433 . S
C463 N466 1.384 . S
C464 H455 0.929 . S
C464 C456 1.378 . S
C464 C459 1.350 . S
C465 H452 0.929 . S
C465 C457 1.433 . S
C465 N467 1.384 . S
N466 C462 1.427 . S
N466 C463 1.384 . S
N467 C459 1.427 . S
N467 C465 1.384 . S
H468 C474 0.930 . S
H469 C478 0.930 . S
H470 C483 0.929 . S
H471 C481 0.929 . S
H472 C476 0.929 . S
H473 C482 0.929 . S
C474 H468 0.930 . S
C474 C475 1.367 . S
C474 C482 1.378 . S
C475 C474 1.367 . S
C475 C483 1.433 . S
C476 H472 0.929 . S
C476 C478 1.378 . S
C476 C480 1.350 . S
C477 C480 1.463 . S
C477 C482 1.350 . S
C477 N485 1.427 . S
C478 H469 0.930 . S
C478 C476 1.378 . S
C478 C479 1.367 . S
C479 C478 1.367 . S
C479 C481 1.433 . S
C480 C476 1.350 . S
C480 C477 1.463 . S
C480 N484 1.427 . S
C481 H471 0.929 . S
C481 C479 1.433 . S
C481 N484 1.384 . S
C482 H473 0.929 . S
C482 C474 1.378 . S
C482 C477 1.350 . S
C483 H470 0.929 . S
C483 C475 1.433 . S
C483 N485 1.384 . S
N484 C480 1.427 . S
N484 C481 1.384 . S
N485 C477 1.427 . S
N485 C483 1.384 . S
H486 C492 0.930 . S
H487 C496 0.930 . S
H488 C501 0.929 . S
H489 C499 0.929 . S
H490 C494 0.929 . S
H491 C500 0.929 . S
C492 H486 0.930 . S
C492 C493 1.367 . S
C492 C500 1.378 . S
C493 C492 1.367 . S
C493 C501 1.433 . S
C494 H490 0.929 . S
C494 C496 1.378 . S
C494 C498 1.350 . S
C495 C498 1.463 1_554 S
C495 C500 1.350 . S
C495 N503 1.427 . S
C496 H487 0.930 . S
C496 C494 1.378 . S
C496 C497 1.367 . S
C497 C496 1.367 . S
C497 C499 1.433 . S
C498 C494 1.350 . S
C498 C495 1.463 1_556 S
C498 N502 1.427 . S
C499 H489 0.929 . S
C499 C497 1.433 . S
C499 N502 1.384 . S
C500 H491 0.929 . S
C500 C492 1.378 . S
C500 C495 1.350 . S
C501 H488 0.929 . S
C501 C493 1.433 . S
C501 N503 1.384 . S
N502 C498 1.427 . S
N502 C499 1.384 . S
N503 C495 1.427 . S
N503 C501 1.384 . S
H504 C510 0.930 . S
H505 C514 0.930 . S
H506 C519 0.929 . S
H507 C517 0.929 . S
H508 C512 0.929 . S
H509 C518 0.929 . S
C510 H504 0.930 . S
C510 C511 1.367 . S
C510 C518 1.378 . S
C511 C510 1.367 . S
C511 C519 1.433 . S
C512 H508 0.929 . S
C512 C514 1.378 . S
C512 C516 1.350 . S
C513 C516 1.463 . S
C513 C518 1.350 . S
C513 N521 1.427 . S
C514 H505 0.930 . S
C514 C512 1.378 . S
C514 C515 1.367 . S
C515 C514 1.367 . S
C515 C517 1.433 . S
C516 C512 1.350 . S
C516 C513 1.463 . S
C516 N520 1.427 . S
C517 H507 0.929 . S
C517 C515 1.433 . S
C517 N520 1.384 . S
C518 H509 0.929 . S
C518 C510 1.378 . S
C518 C513 1.350 . S
C519 H506 0.929 . S
C519 C511 1.433 . S
C519 N521 1.384 . S
N520 C516 1.427 . S
N520 C517 1.384 . S
N521 C513 1.427 . S
N521 C519 1.384 . S
H522 C528 0.930 . S
H523 C532 0.930 . S
H524 C537 0.929 . S
H525 C535 0.929 . S
H526 C530 0.929 . S
H527 C536 0.929 . S
C528 H522 0.930 . S
C528 C529 1.367 . S
C528 C536 1.378 . S
C529 C528 1.367 . S
C529 C537 1.433 . S
C530 H526 0.929 . S
C530 C532 1.378 . S
C530 C534 1.350 . S
C531 C534 1.463 . S
C531 C536 1.350 . S
C531 N539 1.427 . S
C532 H523 0.930 . S
C532 C530 1.378 . S
C532 C533 1.367 . S
C533 C532 1.367 . S
C533 C535 1.433 . S
C534 C530 1.350 . S
C534 C531 1.463 . S
C534 N538 1.427 . S
C535 H525 0.929 . S
C535 C533 1.433 . S
C535 N538 1.384 . S
C536 H527 0.929 . S
C536 C528 1.378 . S
C536 C531 1.350 . S
C537 H524 0.929 . S
C537 C529 1.433 . S
C537 N539 1.384 . S
N538 C534 1.427 . S
N538 C535 1.384 . S
N539 C531 1.427 . S
N539 C537 1.384 . S
H540 C546 0.930 . S
H541 C550 0.930 . S
H542 C555 0.929 . S
H543 C553 0.929 . S
H544 C548 0.929 . S
H545 C554 0.929 . S
C546 H540 0.930 . S
C546 C547 1.367 . S
C546 C554 1.378 . S
C547 C546 1.367 . S
C547 C555 1.433 . S
C548 H544 0.929 . S
C548 C550 1.378 . S
C548 C552 1.350 . S
C549 C552 1.463 1_455 S
C549 C554 1.350 . S
C549 N557 1.427 . S
C550 H541 0.930 . S
C550 C548 1.378 . S
C550 C551 1.367 . S
C551 C550 1.367 . S
C551 C553 1.433 . S
C552 C548 1.350 . S
C552 C549 1.463 1_655 S
C552 N556 1.427 . S
C553 H543 0.929 . S
C553 C551 1.433 . S
C553 N556 1.384 . S
C554 H545 0.929 . S
C554 C546 1.378 . S
C554 C549 1.350 . S
C555 H542 0.929 . S
C555 C547 1.433 . S
C555 N557 1.384 . S
N556 C552 1.427 . S
N556 C553 1.384 . S
N557 C549 1.427 . S
N557 C555 1.384 . S
H558 C564 0.930 . S
H559 C568 0.930 . S
H560 C573 0.929 . S
H561 C571 0.929 . S
H562 C566 0.929 . S
H563 C572 0.929 . S
C564 H558 0.930 . S
C564 C565 1.367 . S
C564 C572 1.378 . S
C565 C564 1.367 . S
C565 C573 1.433 . S
C566 H562 0.929 . S
C566 C568 1.378 . S
C566 C570 1.350 . S
C567 C570 1.463 1_455 S
C567 C572 1.350 . S
C567 N575 1.427 . S
C568 H559 0.930 . S
C568 C566 1.378 . S
C568 C569 1.367 . S
C569 C568 1.367 . S
C569 C571 1.433 . S
C570 C566 1.350 . S
C570 C567 1.463 1_655 S
C570 N574 1.427 . S
C571 H561 0.929 . S
C571 C569 1.433 . S
C571 N574 1.384 . S
C572 H563 0.929 . S
C572 C564 1.378 . S
C572 C567 1.350 . S
C573 H560 0.929 . S
C573 C565 1.433 . S
C573 N575 1.384 . S
N574 C570 1.427 . S
N574 C571 1.384 . S
N575 C567 1.427 . S
N575 C573 1.384 . S
C295 C3 1.716 . S
C299 C76 1.729 . S
C313 C112 1.729 . S
C317 C39 1.718 . S
C331 C220 1.729 . S
C335 C147 1.714 . S
C349 C183 1.712 . S
C353 C256 1.729 . S
C367 C38 1.346 . S
C371 C122 1.260 . S
C385 C2 1.346 . S
C389 C86 1.259 . S
C403 C266 1.274 . S
C407 C182 1.344 . S
C421 C146 1.344 . S
C425 C230 1.256 . S
C439 C194 1.455 . S
C443 C110 1.505 . S
C457 C74 1.506 . S
C461 C158 1.446 . S
C475 C50 1.443 . S
C479 C254 1.504 . S
C493 C14 1.457 . S
C497 C218 1.504 . S
C511 C4 1.562 . S
C515 C40 1.563 . S
C529 C75 1.545 . S
C533 C111 1.549 . S
C547 C184 1.563 . S
C551 C148 1.563 . S
C565 C219 1.547 . S
C569 C255 1.549 . S
