# Generated by pormake.
# Topology upa, (4)-cn, num edge types: 1
# Building blocks:
#     Node 0, Type 0, BuildingBlock: GALJAG_clean_sbu_0, # of connection points: 4
#     Node 1, Type 0, BuildingBlock: GALJAG_clean_sbu_0, # of connection points: 4
#     Node 2, Type 0, BuildingBlock: GALJAG_clean_sbu_0, # of connection points: 4
#     Node 3, Type 0, BuildingBlock: GALJAG_clean_sbu_0, # of connection points: 4
#     Node 4, Type 0, BuildingBlock: GALJAG_clean_sbu_0, # of connection points: 4
#     Node 5, Type 0, BuildingBlock: GALJAG_clean_sbu_0, # of connection points: 4
#     Node 6, Type 0, BuildingBlock: GALJAG_clean_sbu_0, # of connection points: 4
#     Node 7, Type 0, BuildingBlock: GALJAG_clean_sbu_0, # of connection points: 4
#     Edge 8, Type (0, 0), BuildingBlock: KIFKEQ_clean_linker_1, # of connection points: 2
#     Edge 9, Type (0, 0), BuildingBlock: KIFKEQ_clean_linker_1, # of connection points: 2
#     Edge 10, Type (0, 0), BuildingBlock: KIFKEQ_clean_linker_1, # of connection points: 2
#     Edge 11, Type (0, 0), BuildingBlock: KIFKEQ_clean_linker_1, # of connection points: 2
#     Edge 12, Type (0, 0), BuildingBlock: KIFKEQ_clean_linker_1, # of connection points: 2
#     Edge 13, Type (0, 0), BuildingBlock: KIFKEQ_clean_linker_1, # of connection points: 2
#     Edge 14, Type (0, 0), BuildingBlock: KIFKEQ_clean_linker_1, # of connection points: 2
#     Edge 15, Type (0, 0), BuildingBlock: KIFKEQ_clean_linker_1, # of connection points: 2
#     Edge 16, Type (0, 0), BuildingBlock: KIFKEQ_clean_linker_1, # of connection points: 2
#     Edge 17, Type (0, 0), BuildingBlock: KIFKEQ_clean_linker_1, # of connection points: 2
#     Edge 18, Type (0, 0), BuildingBlock: KIFKEQ_clean_linker_1, # of connection points: 2
#     Edge 19, Type (0, 0), BuildingBlock: KIFKEQ_clean_linker_1, # of connection points: 2
#     Edge 20, Type (0, 0), BuildingBlock: KIFKEQ_clean_linker_1, # of connection points: 2
#     Edge 21, Type (0, 0), BuildingBlock: KIFKEQ_clean_linker_1, # of connection points: 2
#     Edge 22, Type (0, 0), BuildingBlock: KIFKEQ_clean_linker_1, # of connection points: 2
#     Edge 23, Type (0, 0), BuildingBlock: KIFKEQ_clean_linker_1, # of connection points: 2
# Relax obj value: 0.230
# Max RMSD: 0.125
# Mean RMSD: 0.125
data_MOF--net-upa--node1-GALJAG_clean_sbu_0--edge1-KIFKEQ_clean_linker_1
_symmetry_space_group_name_H-M    P1
_symmetry_Int_Tables_number       1
_symmetry_cell_setting            triclinic
loop_
_symmetry_equiv_pos_as_xyz
'x, y, z'
_cell_length_a     27.128226
_cell_length_b     27.085726
_cell_length_c     43.145832
_cell_angle_alpha  89.958211
_cell_angle_beta   90.024709
_cell_angle_gamma 89.981569
loop_
_atom_site_label
_atom_site_type_symbol
_atom_site_fract_x
_atom_site_fract_y
_atom_site_fract_z
_atom_type_partial_charge
In0 In 0.20016 0.20748 0.32987 0.0
O1 O 0.2065 0.26128 0.37094 0.0
O2 O 0.23405 0.18816 0.37619 0.0
C3 C 0.12858 0.25412 0.29735 0.0
C4 C 0.28958 0.2091 0.30181 0.0
C5 C 0.14314 0.12663 0.33604 0.0
O6 O 0.14026 0.26703 0.32455 0.0
O7 O 0.15573 0.22095 0.28597 0.0
O8 O 0.17347 0.13128 0.31403 0.0
O9 O 0.14351 0.16142 0.35537 0.0
C10 C 0.22658 0.22968 0.38854 0.0
O11 O 0.27172 0.17092 0.3142 0.0
O12 O 0.26199 0.24667 0.30297 0.0
In13 In 0.29445 0.69888 0.83053 0.0
O14 O 0.33083 0.76433 0.80601 0.0
O15 O 0.25307 0.7663 0.81191 0.0
C16 C 0.37114 0.63756 0.83938 0.0
C17 C 0.27736 0.72482 0.88998 0.0
C18 C 0.24822 0.63176 0.79432 0.0
O19 O 0.37558 0.67724 0.82413 0.0
O20 O 0.32902 0.63034 0.85079 0.0
O21 O 0.23242 0.64327 0.82092 0.0
O22 O 0.28421 0.65737 0.78512 0.0
C23 C 0.29125 0.78816 0.80224 0.0
O24 O 0.2443 0.70559 0.87319 0.0
O25 O 0.31804 0.73173 0.87652 0.0
In26 In 0.81188 0.79631 0.33027 0.0
O27 O 0.74403 0.83265 0.30865 0.0
O28 O 0.7458 0.75428 0.31041 0.0
C29 C 0.86922 0.8769 0.33638 0.0
C30 C 0.78521 0.77784 0.38933 0.0
C31 C 0.8818 0.74776 0.29737 0.0
O32 O 0.83825 0.87276 0.31466 0.0
O33 O 0.86938 0.8417 0.35545 0.0
O34 O 0.87178 0.73678 0.32512 0.0
O35 O 0.85375 0.77989 0.28569 0.0
C36 C 0.72196 0.79263 0.30304 0.0
O37 O 0.80596 0.74552 0.37263 0.0
O38 O 0.77724 0.81854 0.37594 0.0
In39 In 0.71032 0.31457 0.83132 0.0
O40 O 0.6723 0.24425 0.81476 0.0
O41 O 0.74828 0.25249 0.80398 0.0
C42 C 0.63252 0.37455 0.84026 0.0
C43 C 0.73376 0.28765 0.88983 0.0
C44 C 0.75412 0.38394 0.79569 0.0
O45 O 0.63012 0.33736 0.82263 0.0
O46 O 0.6731 0.37987 0.85404 0.0
O47 O 0.77134 0.37127 0.82178 0.0
O48 O 0.71781 0.35857 0.78668 0.0
C49 C 0.71017 0.22574 0.80243 0.0
O50 O 0.76507 0.30733 0.87194 0.0
O51 O 0.6919 0.28095 0.8779 0.0
In52 In 0.6985 0.29444 0.17946 0.0
O53 O 0.76278 0.32977 0.20574 0.0
O54 O 0.76431 0.25201 0.19914 0.0
C55 C 0.63827 0.37285 0.17325 0.0
C56 C 0.7294 0.28004 0.12061 0.0
C57 C 0.62821 0.24312 0.21022 0.0
O58 O 0.67566 0.37415 0.19077 0.0
O59 O 0.63303 0.33327 0.15833 0.0
O60 O 0.63842 0.23545 0.18209 0.0
O61 O 0.65648 0.27337 0.22358 0.0
C62 C 0.78598 0.28979 0.20962 0.0
O63 O 0.71195 0.24547 0.13697 0.0
O64 O 0.73206 0.3212 0.13419 0.0
In65 In 0.21184 0.19879 0.67952 0.0
O66 O 0.1756 0.26488 0.70344 0.0
O67 O 0.2535 0.26584 0.69833 0.0
C68 C 0.13461 0.13738 0.67306 0.0
C69 C 0.22805 0.22481 0.61988 0.0
C70 C 0.25961 0.13159 0.71497 0.0
O71 O 0.13107 0.17755 0.68786 0.0
O72 O 0.176 0.12979 0.66072 0.0
O73 O 0.27341 0.14212 0.68777 0.0
O74 O 0.22497 0.15823 0.72505 0.0
C75 C 0.21535 0.28824 0.70754 0.0
O76 O 0.2618 0.20732 0.63689 0.0
O77 O 0.18691 0.22965 0.63313 0.0
In78 In 0.31267 0.7107 0.18101 0.0
O79 O 0.24759 0.67434 0.20588 0.0
O80 O 0.24539 0.75213 0.19944 0.0
C81 C 0.37469 0.63421 0.17325 0.0
C82 C 0.28651 0.72757 0.12153 0.0
C83 C 0.37895 0.75803 0.21713 0.0
O84 O 0.33444 0.62954 0.18779 0.0
O85 O 0.38207 0.67639 0.16185 0.0
O86 O 0.36787 0.77315 0.19028 0.0
O87 O 0.35334 0.72215 0.22655 0.0
C88 C 0.22377 0.71401 0.20947 0.0
O89 O 0.30519 0.76087 0.13838 0.0
O90 O 0.28043 0.68659 0.13489 0.0
In91 In 0.79208 0.81647 0.67971 0.0
O92 O 0.82761 0.75096 0.7047 0.0
O93 O 0.74973 0.75042 0.69934 0.0
C94 C 0.87073 0.87647 0.67432 0.0
C95 C 0.77759 0.78707 0.62058 0.0
C96 C 0.74084 0.88662 0.71065 0.0
O97 O 0.87144 0.83903 0.69186 0.0
O98 O 0.8316 0.88191 0.65899 0.0
O99 O 0.73317 0.87658 0.6825 0.0
O100 O 0.77103 0.85817 0.72397 0.0
C101 C 0.78766 0.728 0.70894 0.0
O102 O 0.74311 0.8043 0.63705 0.0
O103 O 0.81864 0.78386 0.63418 0.0
H104 H 0.08155 0.10552 0.38388 0.0
H105 H 0.11996 0.05941 0.29114 0.0
H106 H 0.0136 0.04667 0.38439 0.0
H107 H 0.0519 1.00013 0.29175 0.0
H108 H 0.89106 0.94524 0.29182 0.0
H109 H 0.95903 1.00464 0.29224 0.0
H110 H 0.99987 0.956 0.38409 0.0
H111 H 0.93204 0.89702 0.38376 0.0
C112 C 0.07583 0.08232 0.36375 0.0
C113 C 0.10606 0.08692 0.33748 0.0
C114 C 0.03695 0.04864 0.36407 0.0
C115 C 0.02726 0.01913 0.33802 0.0
C116 C 0.05815 0.02295 0.31197 0.0
C117 C 0.09738 0.05642 0.31176 0.0
C118 C 0.91419 0.94778 0.31223 0.0
C119 C 0.90627 0.91664 0.33777 0.0
C120 C 0.95336 0.98133 0.31234 0.0
C121 C 0.98494 0.98459 0.3381 0.0
C122 C 0.976 0.95446 0.36399 0.0
C123 C 0.93718 0.9207 0.36378 0.0
H124 H 0.46843 0.64667 0.82343 0.0
H125 H 0.36205 0.5436 0.86045 0.0
H126 H 0.53171 0.58206 0.8251 0.0
H127 H 0.42494 0.47933 0.86177 0.0
H128 H 0.53777 0.36795 0.81895 0.0
H129 H 0.47456 0.43255 0.82008 0.0
H130 H 0.57584 0.53002 0.86709 0.0
H131 H 0.63871 0.46558 0.8663 0.0
C132 C 0.4587 0.6104 0.83207 0.0
C133 C 0.41045 0.60016 0.84186 0.0
C134 C 0.49481 0.57355 0.83307 0.0
C135 C 0.48298 0.52576 0.84343 0.0
C136 C 0.43484 0.51573 0.85342 0.0
C137 C 0.39902 0.55265 0.85284 0.0
C138 C 0.54628 0.40301 0.82976 0.0
C139 C 0.593 0.41172 0.84261 0.0
C140 C 0.5102 0.43987 0.83044 0.0
C141 C 0.52057 0.48623 0.84355 0.0
C142 C 0.56714 0.49475 0.8566 0.0
C143 C 0.6029 0.45773 0.85634 0.0
H144 H 0.54745 0.36765 0.14716 0.0
H145 H 0.64437 0.46673 0.1966 0.0
H146 H 0.48321 0.43058 0.14688 0.0
H147 H 0.57981 0.53016 0.19599 0.0
H148 H 0.46967 0.64404 0.15452 0.0
H149 H 0.53419 0.58132 0.15436 0.0
H150 H 0.4302 0.47359 0.18844 0.0
H151 H 0.36537 0.53667 0.18893 0.0
C152 C 0.55517 0.40306 0.15776 0.0
C153 C 0.60098 0.41242 0.17184 0.0
C154 C 0.51822 0.43886 0.15779 0.0
C155 C 0.52654 0.48502 0.17151 0.0
C156 C 0.57263 0.49483 0.18513 0.0
C157 C 0.60946 0.45865 0.18551 0.0
C158 C 0.46044 0.6069 0.16182 0.0
C159 C 0.41245 0.59511 0.17165 0.0
C160 C 0.49749 0.57119 0.16195 0.0
C161 C 0.48716 0.5228 0.1715 0.0
C162 C 0.43899 0.51068 0.18084 0.0
C163 C 0.40199 0.54667 0.18115 0.0
H164 H 0.14287 0.042 0.65455 0.0
H165 H 0.03792 0.14786 0.68999 0.0
H166 H 0.07949 0.97815 0.65516 0.0
H167 H 0.97415 0.08373 0.69023 0.0
H168 H 0.86631 0.96783 0.64873 0.0
H169 H 0.92987 0.03143 0.64859 0.0
H170 H 0.02841 0.93313 0.69732 0.0
H171 H 0.96433 0.86923 0.69783 0.0
C172 C 0.10613 0.05171 0.66226 0.0
C173 C 0.09518 0.09995 0.67211 0.0
C174 C 0.07005 0.01504 0.66283 0.0
C175 C 0.02212 0.02604 0.67284 0.0
C176 C 0.01088 0.07443 0.68229 0.0
C177 C 0.04725 0.11103 0.68217 0.0
C178 C 0.90161 0.95963 0.65931 0.0
C179 C 0.91052 0.91351 0.67321 0.0
C180 C 0.93777 0.99619 0.65941 0.0
C181 C 0.98383 0.98718 0.67303 0.0
C182 C 0.99315 0.94083 0.68655 0.0
C183 C 0.95659 0.90439 0.68688 0.0
H184 H 0.2759 0.16919 0.42807 0.0
H185 H 0.19884 0.3086 0.4244 0.0
H186 H 0.28232 0.17603 0.48407 0.0
H187 H 0.20599 0.31597 0.4808 0.0
H188 H 0.16059 0.26392 0.58011 0.0
H189 H 0.1674 0.27301 0.52416 0.0
H190 H 0.31739 0.21963 0.528 0.0
H191 H 0.31017 0.20968 0.58417 0.0
C192 C 0.26112 0.20183 0.43921 0.0
C193 C 0.23648 0.23817 0.42185 0.0
C194 C 0.26513 0.20592 0.47136 0.0
C195 C 0.24446 0.24643 0.48701 0.0
C196 C 0.22178 0.28399 0.46948 0.0
C197 C 0.21795 0.27997 0.43718 0.0
C198 C 0.19526 0.25471 0.56908 0.0
C199 C 0.23469 0.23562 0.58651 0.0
C200 C 0.1993 0.2603 0.53699 0.0
C201 C 0.24287 0.24686 0.52152 0.0
C202 C 0.28309 0.22975 0.53916 0.0
C203 C 0.27906 0.22424 0.57134 0.0
H204 H 0.34237 0.76961 0.92886 0.0
H205 H 0.1984 0.70167 0.92683 0.0
H206 H 0.33734 0.77663 0.98497 0.0
H207 H 0.19296 0.70941 0.98324 0.0
H208 H 0.24345 0.6618 0.08231 0.0
H209 H 0.23448 0.66831 0.02634 0.0
H210 H 0.29636 0.81521 0.02905 0.0
H211 H 0.30607 0.80829 0.08526 0.0
C212 C 0.30922 0.75694 0.94038 0.0
C213 C 0.27094 0.73471 0.92346 0.0
C214 C 0.30619 0.76129 0.97257 0.0
C215 C 0.26485 0.74338 0.98866 0.0
C216 C 0.22558 0.72303 0.97157 0.0
C217 C 0.22855 0.71884 0.93927 0.0
C218 C 0.25457 0.69576 0.07103 0.0
C219 C 0.27586 0.73438 0.08816 0.0
C220 C 0.24908 0.69964 0.03893 0.0
C221 C 0.26488 0.74221 0.02315 0.0
C222 C 0.28436 0.78168 0.04047 0.0
C223 C 0.28971 0.77784 0.07267 0.0
H224 H 0.84612 0.74698 0.58199 0.0
H225 H 0.69653 0.8015 0.58384 0.0
H226 H 0.84101 0.73736 0.52599 0.0
H227 H 0.69111 0.79118 0.52763 0.0
H228 H 0.81127 0.69971 0.42624 0.0
H229 H 0.80272 0.69357 0.48257 0.0
H230 H 0.72858 0.83474 0.48395 0.0
H231 H 0.73651 0.84047 0.4279 0.0
C232 C 0.81181 0.7561 0.57048 0.0
C233 C 0.77186 0.77541 0.58728 0.0
C234 C 0.80876 0.75026 0.53837 0.0
C235 C 0.76573 0.76372 0.52228 0.0
C236 C 0.72499 0.78103 0.5393 0.0
C237 C 0.72799 0.78671 0.57149 0.0
C238 C 0.79242 0.72896 0.43857 0.0
C239 C 0.77488 0.77072 0.42269 0.0
C240 C 0.78776 0.7256 0.47083 0.0
C241 C 0.76521 0.7638 0.4878 0.0
C242 C 0.74564 0.8044 0.47163 0.0
C243 C 0.7505 0.80785 0.43948 0.0
H244 H 0.675 0.23627 0.9292 0.0
H245 H 0.81281 0.31577 0.92542 0.0
H246 H 0.68306 0.22829 0.98505 0.0
H247 H 0.82135 0.3072 0.98172 0.0
H248 H 0.76797 0.34937 0.08181 0.0
H249 H 0.77779 0.34405 0.02581 0.0
H250 H 0.72866 0.19238 0.02813 0.0
H251 H 0.71804 0.19804 0.08428 0.0
C252 C 0.70755 0.25127 0.94027 0.0
C253 C 0.74308 0.27701 0.92295 0.0
C254 C 0.71236 0.24637 0.97233 0.0
C255 C 0.75277 0.26726 0.98793 0.0
C256 C 0.78952 0.29113 0.97041 0.0
C257 C 0.78482 0.29579 0.93819 0.0
C258 C 0.75997 0.31464 0.07044 0.0
C259 C 0.74172 0.27428 0.0874 0.0
C260 C 0.76596 0.31147 0.03833 0.0
C261 C 0.75372 0.26788 0.02242 0.0
C262 C 0.7378 0.2267 0.03964 0.0
C263 C 0.73192 0.22985 0.07181 0.0
H264 H 0.60409 0.23898 0.27178 0.0
H265 H 0.54519 0.21325 0.18021 0.0
H266 H 0.5217 0.22621 0.29396 0.0
H267 H 0.46287 0.20228 0.20235 0.0
H268 H 0.32615 0.27355 0.2588 0.0
H269 H 0.40933 0.27472 0.23644 0.0
H270 H 0.44948 0.14888 0.2923 0.0
H271 H 0.36588 0.1465 0.31392 0.0
C272 C 0.5738 0.22968 0.2565 0.0
C273 C 0.58116 0.22679 0.2243 0.0
C274 C 0.52676 0.22256 0.26916 0.0
C275 C 0.48612 0.2137 0.24976 0.0
C276 C 0.49368 0.20927 0.21771 0.0
C277 C 0.54085 0.21513 0.20513 0.0
C278 C 0.35265 0.246 0.26615 0.0
C279 C 0.33953 0.20986 0.28801 0.0
C280 C 0.40007 0.24658 0.25332 0.0
C281 C 0.43556 0.21183 0.26269 0.0
C282 C 0.42268 0.17601 0.28475 0.0
C283 C 0.3749 0.17463 0.29699 0.0
H284 H 0.21184 0.84947 0.79696 0.0
H285 H 0.36804 0.84171 0.77837 0.0
H286 H 0.21021 0.93418 0.77782 0.0
H287 H 0.36651 0.92688 0.75939 0.0
H288 H 0.32271 0.0597 0.69432 0.0
H289 H 0.33345 0.97692 0.71596 0.0
H290 H 0.24014 0.01613 0.79318 0.0
H291 H 0.22905 0.09847 0.77146 0.0
C292 C 0.24583 0.86583 0.78872 0.0
C293 C 0.29004 0.83884 0.78919 0.0
C294 C 0.24501 0.91458 0.778 0.0
C295 C 0.28835 0.93757 0.76736 0.0
C296 C 0.33246 0.91026 0.76733 0.0
C297 C 0.33334 0.8615 0.77824 0.0
C298 C 0.30545 0.051 0.71628 0.0
C299 C 0.27486 0.08564 0.73109 0.0
C300 C 0.31152 1.00349 0.72867 0.0
C301 C 0.28694 0.9896 0.75603 0.0
C302 C 0.25873 0.02526 0.77172 0.0
C303 C 0.25282 0.07269 0.75943 0.0
H304 H 0.66551 0.86992 0.28271 0.0
H305 H 0.66336 0.71172 0.29514 0.0
H306 H 0.58025 0.86747 0.26423 0.0
H307 H 0.57845 0.70924 0.27655 0.0
H308 H 0.41365 0.72417 0.27248 0.0
H309 H 0.49588 0.73584 0.294 0.0
H310 H 0.53111 0.8363 0.21949 0.0
H311 H 0.44847 0.82486 0.19798 0.0
C312 C 0.64691 0.8346 0.28136 0.0
C313 C 0.67116 0.79099 0.2904 0.0
C314 C 0.59812 0.83322 0.27072 0.0
C315 C 0.57238 0.78824 0.26919 0.0
C316 C 0.5969 0.74462 0.27797 0.0
C317 C 0.64573 0.74596 0.28837 0.0
C318 C 0.43851 0.7496 0.26102 0.0
C319 C 0.42454 0.77345 0.23343 0.0
C320 C 0.48586 0.75586 0.27319 0.0
C321 C 0.52036 0.78629 0.25816 0.0
C322 C 0.5054 0.81263 0.23165 0.0
C323 C 0.45799 0.80616 0.21936 0.0
H324 H 0.77441 0.18814 0.75972 0.0
H325 H 0.64592 0.15055 0.81384 0.0
H326 H 0.77452 0.10485 0.73733 0.0
H327 H 0.64724 0.06682 0.79219 0.0
H328 H 0.73729 0.9108 0.77224 0.0
H329 H 0.72504 0.99341 0.79439 0.0
H330 H 0.70035 0.0523 0.70284 0.0
H331 H 0.71078 0.96979 0.68071 0.0
C332 C 0.7463 0.1621 0.76683 0.0
C333 C 0.71008 0.17584 0.78843 0.0
C334 C 0.74629 0.11462 0.75398 0.0
C335 C 0.71084 0.07969 0.76309 0.0
C336 C 0.67489 0.0932 0.78485 0.0
C337 C 0.67412 0.14106 0.7971 0.0
C338 C 0.72791 0.94114 0.75696 0.0
C339 C 0.72468 0.93375 0.72478 0.0
C340 C 0.72109 0.98831 0.76961 0.0
C341 C 0.71218 0.02902 0.75021 0.0
C342 C 0.70736 0.02142 0.7182 0.0
C343 C 0.71292 0.97414 0.70563 0.0
H344 H 0.05602 0.31473 0.32018 0.0
H345 H 0.09466 0.22618 0.24061 0.0
H346 H 0.97304 0.32633 0.29902 0.0
H347 H 0.01222 0.238 0.21949 0.0
H348 H 0.84637 0.20965 0.21463 0.0
H349 H 0.93037 0.20671 0.23464 0.0
H350 H 0.92341 0.36241 0.25567 0.0
H351 H 0.83892 0.3653 0.23571 0.0
C352 C 0.0472 0.2987 0.29786 0.0
C353 C 0.0819 0.26936 0.28215 0.0
C354 C 0.99962 0.30527 0.28576 0.0
C355 C 0.98574 0.28237 0.25781 0.0
C356 C 0.02137 0.25527 0.24138 0.0
C357 C 0.06883 0.24892 0.25336 0.0
C358 C 0.8626 0.24323 0.22366 0.0
C359 C 0.83597 0.2877 0.22354 0.0
C360 C 0.91095 0.24166 0.23489 0.0
C361 C 0.93386 0.28447 0.24645 0.0
C362 C 0.90681 0.32877 0.24701 0.0
C363 C 0.85846 0.33042 0.23553 0.0
H364 H 0.29552 0.34819 0.71409 0.0
H365 H 0.13844 0.34324 0.72987 0.0
H366 H 0.29772 0.43292 0.73306 0.0
H367 H 0.14052 0.42846 0.74863 0.0
H368 H 0.18283 0.56112 0.81385 0.0
H369 H 0.17195 0.47834 0.79232 0.0
H370 H 0.2703 0.51522 0.71712 0.0
H371 H 0.28156 0.59751 0.73876 0.0
C372 C 0.26145 0.36518 0.72167 0.0
C373 C 0.21683 0.33896 0.72047 0.0
C374 C 0.2626 0.41395 0.73229 0.0
C375 C 0.21919 0.43775 0.74208 0.0
C376 C 0.17464 0.41121 0.74138 0.0
C377 C 0.17345 0.36242 0.73058 0.0
C378 C 0.2012 0.55191 0.79233 0.0
C379 C 0.23322 0.58587 0.7781 0.0
C380 C 0.19505 0.5044 0.78002 0.0
C381 C 0.22094 0.48983 0.75327 0.0
C382 C 0.25066 0.52485 0.73812 0.0
C383 C 0.25669 0.57226 0.75035 0.0
H384 H 0.16191 0.79315 0.21323 0.0
H385 H 0.17159 0.63801 0.23557 0.0
H386 H 0.0777 0.79512 0.2329 0.0
H387 H 0.08693 0.63996 0.25523 0.0
H388 H 0.95514 0.68825 0.32026 0.0
H389 H 0.03771 0.67673 0.29859 0.0
H390 H 0.99597 0.76204 0.21818 0.0
H391 H 0.91384 0.77375 0.23981 0.0
C392 C 0.14609 0.75947 0.22242 0.0
C393 C 0.17343 0.71543 0.22282 0.0
C394 C 0.09765 0.76049 0.23346 0.0
C395 C 0.07539 0.71756 0.24535 0.0
C396 C 0.10305 0.67366 0.24629 0.0
C397 C 0.15148 0.67255 0.23499 0.0
C398 C 0.96328 0.70357 0.29764 0.0
C399 C 0.92798 0.7321 0.28183 0.0
C400 C 0.01062 0.69704 0.28525 0.0
C401 C 0.02366 0.71919 0.2569 0.0
C402 C 0.98742 0.74535 0.24036 0.0
C403 C 0.94015 0.75163 0.25263 0.0
H404 H 0.81999 0.45422 0.81513 0.0
H405 H 0.71903 0.41957 0.74087 0.0
H406 H 0.83072 0.53731 0.79394 0.0
H407 H 0.73018 0.5021 0.71954 0.0
H408 H 0.7069 0.66906 0.71631 0.0
H409 H 0.70408 0.58447 0.73557 0.0
H410 H 0.86155 0.58738 0.75031 0.0
H411 H 0.86423 0.67247 0.73132 0.0
C412 C 0.80104 0.46391 0.79388 0.0
C413 C 0.76851 0.43032 0.77977 0.0
C414 C 0.80711 0.51158 0.78175 0.0
C415 C 0.78065 0.5267 0.75532 0.0
C416 C 0.75027 0.49209 0.74031 0.0
C417 C 0.74429 0.44453 0.75237 0.0
C418 C 0.74089 0.65178 0.7238 0.0
C419 C 0.78577 0.67751 0.72228 0.0
C420 C 0.73938 0.60308 0.73458 0.0
C421 C 0.78269 0.57884 0.74419 0.0
C422 C 0.82749 0.60495 0.74322 0.0
C423 C 0.82903 0.65368 0.73229 0.0
loop_
_geom_bond_atom_site_label_1
_geom_bond_atom_site_label_2
_geom_bond_distance
_geom_bond_site_symmetry_2
_ccdc_geom_bond_type
In0 O1 2.294 . S
In0 O2 2.326 . S
In0 O6 2.266 . S
In0 O7 2.326 . S
In0 O8 2.266 . S
In0 O9 2.326 . S
In0 O11 2.294 . S
In0 O12 2.326 . S
O1 In0 2.294 . S
O1 C10 1.240 . S
O2 In0 2.326 . S
O2 C10 1.252 . S
C3 O6 1.252 . S
C3 O7 1.260 . S
C4 O11 1.240 . S
C4 O12 1.252 . S
C5 O8 1.252 . S
C5 O9 1.260 . S
O6 In0 2.266 . S
O6 C3 1.252 . S
O7 In0 2.326 . S
O7 C3 1.260 . S
O8 In0 2.266 . S
O8 C5 1.252 . S
O9 In0 2.326 . S
O9 C5 1.260 . S
C10 O1 1.240 . S
C10 O2 1.252 . S
O11 In0 2.294 . S
O11 C4 1.240 . S
O12 In0 2.326 . S
O12 C4 1.252 . S
In13 O14 2.294 . S
In13 O15 2.326 . S
In13 O19 2.266 . S
In13 O20 2.326 . S
In13 O21 2.266 . S
In13 O22 2.326 . S
In13 O24 2.294 . S
In13 O25 2.326 . S
O14 In13 2.294 . S
O14 C23 1.240 . S
O15 In13 2.326 . S
O15 C23 1.252 . S
C16 O19 1.252 . S
C16 O20 1.260 . S
C17 O24 1.240 . S
C17 O25 1.252 . S
C18 O21 1.252 . S
C18 O22 1.260 . S
O19 In13 2.266 . S
O19 C16 1.252 . S
O20 In13 2.326 . S
O20 C16 1.260 . S
O21 In13 2.266 . S
O21 C18 1.252 . S
O22 In13 2.326 . S
O22 C18 1.260 . S
C23 O14 1.240 . S
C23 O15 1.252 . S
O24 In13 2.294 . S
O24 C17 1.240 . S
O25 In13 2.326 . S
O25 C17 1.252 . S
In26 O27 2.294 . S
In26 O28 2.326 . S
In26 O32 2.266 . S
In26 O33 2.326 . S
In26 O34 2.266 . S
In26 O35 2.326 . S
In26 O37 2.294 . S
In26 O38 2.326 . S
O27 In26 2.294 . S
O27 C36 1.240 . S
O28 In26 2.326 . S
O28 C36 1.252 . S
C29 O32 1.252 . S
C29 O33 1.260 . S
C30 O37 1.240 . S
C30 O38 1.252 . S
C31 O34 1.252 . S
C31 O35 1.260 . S
O32 In26 2.266 . S
O32 C29 1.252 . S
O33 In26 2.326 . S
O33 C29 1.260 . S
O34 In26 2.266 . S
O34 C31 1.252 . S
O35 In26 2.326 . S
O35 C31 1.260 . S
C36 O27 1.240 . S
C36 O28 1.252 . S
O37 In26 2.294 . S
O37 C30 1.240 . S
O38 In26 2.326 . S
O38 C30 1.252 . S
In39 O40 2.294 . S
In39 O41 2.326 . S
In39 O45 2.266 . S
In39 O46 2.326 . S
In39 O47 2.266 . S
In39 O48 2.326 . S
In39 O50 2.294 . S
In39 O51 2.326 . S
O40 In39 2.294 . S
O40 C49 1.240 . S
O41 In39 2.326 . S
O41 C49 1.252 . S
C42 O45 1.252 . S
C42 O46 1.260 . S
C43 O50 1.240 . S
C43 O51 1.252 . S
C44 O47 1.252 . S
C44 O48 1.260 . S
O45 In39 2.266 . S
O45 C42 1.252 . S
O46 In39 2.326 . S
O46 C42 1.260 . S
O47 In39 2.266 . S
O47 C44 1.252 . S
O48 In39 2.326 . S
O48 C44 1.260 . S
C49 O40 1.240 . S
C49 O41 1.252 . S
O50 In39 2.294 . S
O50 C43 1.240 . S
O51 In39 2.326 . S
O51 C43 1.252 . S
In52 O53 2.294 . S
In52 O54 2.326 . S
In52 O58 2.266 . S
In52 O59 2.326 . S
In52 O60 2.266 . S
In52 O61 2.326 . S
In52 O63 2.294 . S
In52 O64 2.326 . S
O53 In52 2.294 . S
O53 C62 1.240 . S
O54 In52 2.326 . S
O54 C62 1.252 . S
C55 O58 1.252 . S
C55 O59 1.260 . S
C56 O63 1.240 . S
C56 O64 1.252 . S
C57 O60 1.252 . S
C57 O61 1.260 . S
O58 In52 2.266 . S
O58 C55 1.252 . S
O59 In52 2.326 . S
O59 C55 1.260 . S
O60 In52 2.266 . S
O60 C57 1.252 . S
O61 In52 2.326 . S
O61 C57 1.260 . S
C62 O53 1.240 . S
C62 O54 1.252 . S
O63 In52 2.294 . S
O63 C56 1.240 . S
O64 In52 2.326 . S
O64 C56 1.252 . S
In65 O66 2.294 . S
In65 O67 2.326 . S
In65 O71 2.266 . S
In65 O72 2.326 . S
In65 O73 2.266 . S
In65 O74 2.326 . S
In65 O76 2.294 . S
In65 O77 2.326 . S
O66 In65 2.294 . S
O66 C75 1.240 . S
O67 In65 2.326 . S
O67 C75 1.252 . S
C68 O71 1.252 . S
C68 O72 1.260 . S
C69 O76 1.240 . S
C69 O77 1.252 . S
C70 O73 1.252 . S
C70 O74 1.260 . S
O71 In65 2.266 . S
O71 C68 1.252 . S
O72 In65 2.326 . S
O72 C68 1.260 . S
O73 In65 2.266 . S
O73 C70 1.252 . S
O74 In65 2.326 . S
O74 C70 1.260 . S
C75 O66 1.240 . S
C75 O67 1.252 . S
O76 In65 2.294 . S
O76 C69 1.240 . S
O77 In65 2.326 . S
O77 C69 1.252 . S
In78 O79 2.294 . S
In78 O80 2.326 . S
In78 O84 2.266 . S
In78 O85 2.326 . S
In78 O86 2.266 . S
In78 O87 2.326 . S
In78 O89 2.294 . S
In78 O90 2.326 . S
O79 In78 2.294 . S
O79 C88 1.240 . S
O80 In78 2.326 . S
O80 C88 1.252 . S
C81 O84 1.252 . S
C81 O85 1.260 . S
C82 O89 1.240 . S
C82 O90 1.252 . S
C83 O86 1.252 . S
C83 O87 1.260 . S
O84 In78 2.266 . S
O84 C81 1.252 . S
O85 In78 2.326 . S
O85 C81 1.260 . S
O86 In78 2.266 . S
O86 C83 1.252 . S
O87 In78 2.326 . S
O87 C83 1.260 . S
C88 O79 1.240 . S
C88 O80 1.252 . S
O89 In78 2.294 . S
O89 C82 1.240 . S
O90 In78 2.326 . S
O90 C82 1.252 . S
In91 O92 2.294 . S
In91 O93 2.326 . S
In91 O97 2.266 . S
In91 O98 2.326 . S
In91 O99 2.266 . S
In91 O100 2.326 . S
In91 O102 2.294 . S
In91 O103 2.326 . S
O92 In91 2.294 . S
O92 C101 1.240 . S
O93 In91 2.326 . S
O93 C101 1.252 . S
C94 O97 1.252 . S
C94 O98 1.260 . S
C95 O102 1.240 . S
C95 O103 1.252 . S
C96 O99 1.252 . S
C96 O100 1.260 . S
O97 In91 2.266 . S
O97 C94 1.252 . S
O98 In91 2.326 . S
O98 C94 1.260 . S
O99 In91 2.266 . S
O99 C96 1.252 . S
O100 In91 2.326 . S
O100 C96 1.260 . S
C101 O92 1.240 . S
C101 O93 1.252 . S
O102 In91 2.294 . S
O102 C95 1.240 . S
O103 In91 2.326 . S
O103 C95 1.252 . S
H104 C112 0.950 . S
H105 C117 0.950 . S
H106 C114 0.950 1_655 S
H107 C116 0.950 . S
H108 C118 0.950 . S
H109 C120 0.950 1_455 S
H110 C122 0.950 . S
H111 C123 0.950 . S
C112 H104 0.950 . S
C112 C113 1.386 . S
C112 C114 1.391 . S
C113 C112 1.386 . S
C113 C117 1.393 . S
C114 H106 0.950 1_455 S
C114 C112 1.391 . S
C114 C115 1.400 . S
C115 C114 1.400 . S
C115 C116 1.398 . S
C115 C121 1.491 1_445 S
C116 H107 0.950 . S
C116 C115 1.398 . S
C116 C117 1.391 . S
C117 H105 0.950 . S
C117 C113 1.393 . S
C117 C116 1.391 . S
C118 H108 0.950 . S
C118 C119 1.386 . S
C118 C120 1.391 . S
C119 C118 1.386 . S
C119 C123 1.393 . S
C120 H109 0.950 1_655 S
C120 C118 1.391 . S
C120 C121 1.400 . S
C121 C115 1.491 1_665 S
C121 C120 1.400 . S
C121 C122 1.398 . S
C122 H110 0.950 . S
C122 C121 1.398 . S
C122 C123 1.391 . S
C123 H111 0.950 . S
C123 C119 1.393 . S
C123 C122 1.391 . S
H124 C132 0.950 . S
H125 C137 0.950 . S
H126 C134 0.950 . S
H127 C136 0.950 . S
H128 C138 0.950 . S
H129 C140 0.950 . S
H130 C142 0.950 . S
H131 C143 0.950 . S
C132 H124 0.950 . S
C132 C133 1.386 . S
C132 C134 1.391 . S
C133 C132 1.386 . S
C133 C137 1.393 . S
C134 H126 0.950 . S
C134 C132 1.391 . S
C134 C135 1.400 . S
C135 C134 1.400 . S
C135 C136 1.398 . S
C135 C141 1.491 . S
C136 H127 0.950 . S
C136 C135 1.398 . S
C136 C137 1.391 . S
C137 H125 0.950 . S
C137 C133 1.393 . S
C137 C136 1.391 . S
C138 H128 0.950 . S
C138 C139 1.386 . S
C138 C140 1.391 . S
C139 C138 1.386 . S
C139 C143 1.393 . S
C140 H129 0.950 . S
C140 C138 1.391 . S
C140 C141 1.400 . S
C141 C135 1.491 . S
C141 C140 1.400 . S
C141 C142 1.398 . S
C142 H130 0.950 . S
C142 C141 1.398 . S
C142 C143 1.391 . S
C143 H131 0.950 . S
C143 C139 1.393 . S
C143 C142 1.391 . S
H144 C152 0.950 . S
H145 C157 0.950 . S
H146 C154 0.950 . S
H147 C156 0.950 . S
H148 C158 0.950 . S
H149 C160 0.950 . S
H150 C162 0.950 . S
H151 C163 0.950 . S
C152 H144 0.950 . S
C152 C153 1.386 . S
C152 C154 1.391 . S
C153 C152 1.386 . S
C153 C157 1.393 . S
C154 H146 0.950 . S
C154 C152 1.391 . S
C154 C155 1.400 . S
C155 C154 1.400 . S
C155 C156 1.398 . S
C155 C161 1.491 . S
C156 H147 0.950 . S
C156 C155 1.398 . S
C156 C157 1.391 . S
C157 H145 0.950 . S
C157 C153 1.393 . S
C157 C156 1.391 . S
C158 H148 0.950 . S
C158 C159 1.386 . S
C158 C160 1.391 . S
C159 C158 1.386 . S
C159 C163 1.393 . S
C160 H149 0.950 . S
C160 C158 1.391 . S
C160 C161 1.400 . S
C161 C155 1.491 . S
C161 C160 1.400 . S
C161 C162 1.398 . S
C162 H150 0.950 . S
C162 C161 1.398 . S
C162 C163 1.391 . S
C163 H151 0.950 . S
C163 C159 1.393 . S
C163 C162 1.391 . S
H164 C172 0.950 . S
H165 C177 0.950 . S
H166 C174 0.950 . S
H167 C176 0.950 1_655 S
H168 C178 0.950 . S
H169 C180 0.950 . S
H170 C182 0.950 1_455 S
H171 C183 0.950 . S
C172 H164 0.950 . S
C172 C173 1.386 . S
C172 C174 1.391 1_545 S
C173 C172 1.386 . S
C173 C177 1.393 . S
C174 H166 0.950 . S
C174 C172 1.391 1_565 S
C174 C175 1.400 1_565 S
C175 C174 1.400 1_545 S
C175 C176 1.398 . S
C175 C181 1.491 1_445 S
C176 H167 0.950 1_455 S
C176 C175 1.398 . S
C176 C177 1.391 . S
C177 H165 0.950 . S
C177 C173 1.393 . S
C177 C176 1.391 . S
C178 H168 0.950 . S
C178 C179 1.386 . S
C178 C180 1.391 1_565 S
C179 C178 1.386 . S
C179 C183 1.393 . S
C180 H169 0.950 . S
C180 C178 1.391 1_545 S
C180 C181 1.400 1_545 S
C181 C175 1.491 1_665 S
C181 C180 1.400 1_565 S
C181 C182 1.398 . S
C182 H170 0.950 1_655 S
C182 C181 1.398 . S
C182 C183 1.391 . S
C183 H171 0.950 . S
C183 C179 1.393 . S
C183 C182 1.391 . S
H184 C192 0.950 . S
H185 C197 0.950 . S
H186 C194 0.950 . S
H187 C196 0.950 . S
H188 C198 0.950 . S
H189 C200 0.950 . S
H190 C202 0.950 . S
H191 C203 0.950 . S
C192 H184 0.950 . S
C192 C193 1.386 . S
C192 C194 1.391 . S
C193 C192 1.386 . S
C193 C197 1.393 . S
C194 H186 0.950 . S
C194 C192 1.391 . S
C194 C195 1.400 . S
C195 C194 1.400 . S
C195 C196 1.398 . S
C195 C201 1.491 . S
C196 H187 0.950 . S
C196 C195 1.398 . S
C196 C197 1.391 . S
C197 H185 0.950 . S
C197 C193 1.393 . S
C197 C196 1.391 . S
C198 H188 0.950 . S
C198 C199 1.386 . S
C198 C200 1.391 . S
C199 C198 1.386 . S
C199 C203 1.393 . S
C200 H189 0.950 . S
C200 C198 1.391 . S
C200 C201 1.400 . S
C201 C195 1.491 . S
C201 C200 1.400 . S
C201 C202 1.398 . S
C202 H190 0.950 . S
C202 C201 1.398 . S
C202 C203 1.391 . S
C203 H191 0.950 . S
C203 C199 1.393 . S
C203 C202 1.391 . S
H204 C212 0.950 . S
H205 C217 0.950 . S
H206 C214 0.950 . S
H207 C216 0.950 . S
H208 C218 0.950 . S
H209 C220 0.950 . S
H210 C222 0.950 . S
H211 C223 0.950 . S
C212 H204 0.950 . S
C212 C213 1.386 . S
C212 C214 1.391 . S
C213 C212 1.386 . S
C213 C217 1.393 . S
C214 H206 0.950 . S
C214 C212 1.391 . S
C214 C215 1.400 . S
C215 C214 1.400 . S
C215 C216 1.398 . S
C215 C221 1.491 1_556 S
C216 H207 0.950 . S
C216 C215 1.398 . S
C216 C217 1.391 . S
C217 H205 0.950 . S
C217 C213 1.393 . S
C217 C216 1.391 . S
C218 H208 0.950 . S
C218 C219 1.386 . S
C218 C220 1.391 . S
C219 C218 1.386 . S
C219 C223 1.393 . S
C220 H209 0.950 . S
C220 C218 1.391 . S
C220 C221 1.400 . S
C221 C215 1.491 1_554 S
C221 C220 1.400 . S
C221 C222 1.398 . S
C222 H210 0.950 . S
C222 C221 1.398 . S
C222 C223 1.391 . S
C223 H211 0.950 . S
C223 C219 1.393 . S
C223 C222 1.391 . S
H224 C232 0.950 . S
H225 C237 0.950 . S
H226 C234 0.950 . S
H227 C236 0.950 . S
H228 C238 0.950 . S
H229 C240 0.950 . S
H230 C242 0.950 . S
H231 C243 0.950 . S
C232 H224 0.950 . S
C232 C233 1.386 . S
C232 C234 1.391 . S
C233 C232 1.386 . S
C233 C237 1.393 . S
C234 H226 0.950 . S
C234 C232 1.391 . S
C234 C235 1.400 . S
C235 C234 1.400 . S
C235 C236 1.398 . S
C235 C241 1.491 . S
C236 H227 0.950 . S
C236 C235 1.398 . S
C236 C237 1.391 . S
C237 H225 0.950 . S
C237 C233 1.393 . S
C237 C236 1.391 . S
C238 H228 0.950 . S
C238 C239 1.386 . S
C238 C240 1.391 . S
C239 C238 1.386 . S
C239 C243 1.393 . S
C240 H229 0.950 . S
C240 C238 1.391 . S
C240 C241 1.400 . S
C241 C235 1.491 . S
C241 C240 1.400 . S
C241 C242 1.398 . S
C242 H230 0.950 . S
C242 C241 1.398 . S
C242 C243 1.391 . S
C243 H231 0.950 . S
C243 C239 1.393 . S
C243 C242 1.391 . S
H244 C252 0.950 . S
H245 C257 0.950 . S
H246 C254 0.950 . S
H247 C256 0.950 . S
H248 C258 0.950 . S
H249 C260 0.950 . S
H250 C262 0.950 . S
H251 C263 0.950 . S
C252 H244 0.950 . S
C252 C253 1.386 . S
C252 C254 1.391 . S
C253 C252 1.386 . S
C253 C257 1.393 . S
C254 H246 0.950 . S
C254 C252 1.391 . S
C254 C255 1.400 . S
C255 C254 1.400 . S
C255 C256 1.398 . S
C255 C261 1.491 1_556 S
C256 H247 0.950 . S
C256 C255 1.398 . S
C256 C257 1.391 . S
C257 H245 0.950 . S
C257 C253 1.393 . S
C257 C256 1.391 . S
C258 H248 0.950 . S
C258 C259 1.386 . S
C258 C260 1.391 . S
C259 C258 1.386 . S
C259 C263 1.393 . S
C260 H249 0.950 . S
C260 C258 1.391 . S
C260 C261 1.400 . S
C261 C255 1.491 1_554 S
C261 C260 1.400 . S
C261 C262 1.398 . S
C262 H250 0.950 . S
C262 C261 1.398 . S
C262 C263 1.391 . S
C263 H251 0.950 . S
C263 C259 1.393 . S
C263 C262 1.391 . S
H264 C272 0.950 . S
H265 C277 0.950 . S
H266 C274 0.950 . S
H267 C276 0.950 . S
H268 C278 0.950 . S
H269 C280 0.950 . S
H270 C282 0.950 . S
H271 C283 0.950 . S
C272 H264 0.950 . S
C272 C273 1.386 . S
C272 C274 1.391 . S
C273 C272 1.386 . S
C273 C277 1.393 . S
C274 H266 0.950 . S
C274 C272 1.391 . S
C274 C275 1.400 . S
C275 C274 1.400 . S
C275 C276 1.398 . S
C275 C281 1.491 . S
C276 H267 0.950 . S
C276 C275 1.398 . S
C276 C277 1.391 . S
C277 H265 0.950 . S
C277 C273 1.393 . S
C277 C276 1.391 . S
C278 H268 0.950 . S
C278 C279 1.386 . S
C278 C280 1.391 . S
C279 C278 1.386 . S
C279 C283 1.393 . S
C280 H269 0.950 . S
C280 C278 1.391 . S
C280 C281 1.400 . S
C281 C275 1.491 . S
C281 C280 1.400 . S
C281 C282 1.398 . S
C282 H270 0.950 . S
C282 C281 1.398 . S
C282 C283 1.391 . S
C283 H271 0.950 . S
C283 C279 1.393 . S
C283 C282 1.391 . S
H284 C292 0.950 . S
H285 C297 0.950 . S
H286 C294 0.950 . S
H287 C296 0.950 . S
H288 C298 0.950 . S
H289 C300 0.950 . S
H290 C302 0.950 . S
H291 C303 0.938 1_545 S
C292 H284 0.950 . S
C292 C293 1.386 . S
C292 C294 1.391 . S
C293 C292 1.386 . S
C293 C297 1.393 . S
C294 H286 0.950 . S
C294 C292 1.391 . S
C294 C295 1.400 . S
C295 C294 1.400 . S
C295 C296 1.398 . S
C295 C301 1.491 . S
C296 H287 0.950 . S
C296 C295 1.398 . S
C296 C297 1.391 . S
C297 H285 0.950 . S
C297 C293 1.393 . S
C297 C296 1.391 . S
C298 H288 0.950 . S
C298 C299 1.386 1_565 S
C298 C300 1.391 . S
C299 C298 1.386 1_545 S
C299 C303 1.391 1_545 S
C300 H289 0.950 . S
C300 C298 1.391 . S
C300 C301 1.400 . S
C301 C295 1.491 . S
C301 C300 1.400 . S
C301 C302 1.398 . S
C302 H290 0.950 . S
C302 C301 1.398 . S
C302 C303 1.405 . S
C303 H291 0.938 1_565 S
C303 C299 1.391 1_565 S
C303 C302 1.405 . S
H304 C312 0.950 . S
H305 C317 0.950 . S
H306 C314 0.950 . S
H307 C316 0.950 . S
H308 C318 0.950 . S
H309 C320 0.950 . S
H310 C322 0.950 . S
H311 C323 0.950 . S
C312 H304 0.950 . S
C312 C313 1.386 . S
C312 C314 1.391 . S
C313 C312 1.386 . S
C313 C317 1.393 . S
C314 H306 0.950 . S
C314 C312 1.391 . S
C314 C315 1.400 . S
C315 C314 1.400 . S
C315 C316 1.398 . S
C315 C321 1.491 . S
C316 H307 0.950 . S
C316 C315 1.398 . S
C316 C317 1.391 . S
C317 H305 0.950 . S
C317 C313 1.393 . S
C317 C316 1.391 . S
C318 H308 0.950 . S
C318 C319 1.386 . S
C318 C320 1.391 . S
C319 C318 1.386 . S
C319 C323 1.393 . S
C320 H309 0.950 . S
C320 C318 1.391 . S
C320 C321 1.400 . S
C321 C315 1.491 . S
C321 C320 1.400 . S
C321 C322 1.398 . S
C322 H310 0.950 . S
C322 C321 1.398 . S
C322 C323 1.391 . S
C323 H311 0.950 . S
C323 C319 1.393 . S
C323 C322 1.391 . S
H324 C332 0.950 . S
H325 C337 0.950 . S
H326 C334 0.950 . S
H327 C336 0.950 . S
H328 C338 0.950 1_565 S
H329 C340 0.950 . S
H330 C342 0.950 . S
H331 C343 0.950 . S
C332 H324 0.950 . S
C332 C333 1.386 . S
C332 C334 1.391 . S
C333 C332 1.386 . S
C333 C337 1.393 . S
C334 H326 0.950 . S
C334 C332 1.391 . S
C334 C335 1.400 . S
C335 C334 1.400 . S
C335 C336 1.398 . S
C335 C341 1.491 . S
C336 H327 0.950 . S
C336 C335 1.398 . S
C336 C337 1.391 . S
C337 H325 0.950 . S
C337 C333 1.393 . S
C337 C336 1.391 . S
C338 H328 0.950 1_545 S
C338 C339 1.386 1_545 S
C338 C340 1.391 . S
C339 C338 1.386 1_565 S
C339 C343 1.393 1_565 S
C340 H329 0.950 . S
C340 C338 1.391 . S
C340 C341 1.400 . S
C341 C335 1.491 . S
C341 C340 1.400 . S
C341 C342 1.398 . S
C342 H330 0.950 . S
C342 C341 1.398 . S
C342 C343 1.391 . S
C343 H331 0.950 . S
C343 C339 1.393 1_545 S
C343 C342 1.391 . S
H344 C352 0.950 . S
H345 C357 0.950 1_455 S
H346 C354 0.950 . S
H347 C356 0.950 . S
H348 C358 0.950 . S
H349 C360 0.950 . S
H350 C362 0.950 . S
H351 C363 0.950 . S
C352 H344 0.950 . S
C352 C353 1.386 1_655 S
C352 C354 1.391 . S
C353 C352 1.386 1_455 S
C353 C357 1.393 1_455 S
C354 H346 0.950 . S
C354 C352 1.391 . S
C354 C355 1.400 . S
C355 C354 1.400 . S
C355 C356 1.398 . S
C355 C361 1.491 . S
C356 H347 0.950 . S
C356 C355 1.398 . S
C356 C357 1.391 . S
C357 H345 0.950 1_655 S
C357 C353 1.393 1_655 S
C357 C356 1.391 . S
C358 H348 0.950 . S
C358 C359 1.386 . S
C358 C360 1.391 . S
C359 C358 1.386 . S
C359 C363 1.393 . S
C360 H349 0.950 . S
C360 C358 1.391 . S
C360 C361 1.400 . S
C361 C355 1.491 . S
C361 C360 1.400 . S
C361 C362 1.398 . S
C362 H350 0.950 . S
C362 C361 1.398 . S
C362 C363 1.391 . S
C363 H351 0.950 . S
C363 C359 1.393 . S
C363 C362 1.391 . S
H364 C372 0.950 . S
H365 C377 0.950 . S
H366 C374 0.950 . S
H367 C376 0.950 . S
H368 C378 0.950 . S
H369 C380 0.950 . S
H370 C382 0.950 . S
H371 C383 0.950 . S
C372 H364 0.950 . S
C372 C373 1.386 . S
C372 C374 1.391 . S
C373 C372 1.386 . S
C373 C377 1.393 . S
C374 H366 0.950 . S
C374 C372 1.391 . S
C374 C375 1.400 . S
C375 C374 1.400 . S
C375 C376 1.398 . S
C375 C381 1.491 . S
C376 H367 0.950 . S
C376 C375 1.398 . S
C376 C377 1.391 . S
C377 H365 0.950 . S
C377 C373 1.393 . S
C377 C376 1.391 . S
C378 H368 0.950 . S
C378 C379 1.386 . S
C378 C380 1.391 . S
C379 C378 1.386 . S
C379 C383 1.393 . S
C380 H369 0.950 . S
C380 C378 1.391 . S
C380 C381 1.400 . S
C381 C375 1.491 . S
C381 C380 1.400 . S
C381 C382 1.398 . S
C382 H370 0.950 . S
C382 C381 1.398 . S
C382 C383 1.391 . S
C383 H371 0.950 . S
C383 C379 1.393 . S
C383 C382 1.391 . S
H384 C392 0.950 . S
H385 C397 0.950 . S
H386 C394 0.950 . S
H387 C396 0.950 . S
H388 C398 0.950 . S
H389 C400 0.950 . S
H390 C402 0.950 . S
H391 C403 0.950 1_655 S
C392 H384 0.950 . S
C392 C393 1.386 . S
C392 C394 1.391 . S
C393 C392 1.386 . S
C393 C397 1.393 . S
C394 H386 0.950 . S
C394 C392 1.391 . S
C394 C395 1.400 . S
C395 C394 1.400 . S
C395 C396 1.398 . S
C395 C401 1.491 . S
C396 H387 0.950 . S
C396 C395 1.398 . S
C396 C397 1.391 . S
C397 H385 0.950 . S
C397 C393 1.393 . S
C397 C396 1.391 . S
C398 H388 0.950 . S
C398 C399 1.386 1_455 S
C398 C400 1.391 . S
C399 C398 1.386 1_655 S
C399 C403 1.393 1_655 S
C400 H389 0.950 . S
C400 C398 1.391 . S
C400 C401 1.400 . S
C401 C395 1.491 . S
C401 C400 1.400 . S
C401 C402 1.398 . S
C402 H390 0.950 . S
C402 C401 1.398 . S
C402 C403 1.391 . S
C403 H391 0.950 1_455 S
C403 C399 1.393 1_455 S
C403 C402 1.391 . S
H404 C412 0.950 . S
H405 C417 0.950 . S
H406 C414 0.950 . S
H407 C416 0.950 . S
H408 C418 0.950 . S
H409 C420 0.950 . S
H410 C422 0.950 . S
H411 C423 0.950 . S
C412 H404 0.950 . S
C412 C413 1.386 . S
C412 C414 1.391 . S
C413 C412 1.386 . S
C413 C417 1.393 . S
C414 H406 0.950 . S
C414 C412 1.391 . S
C414 C415 1.400 . S
C415 C414 1.400 . S
C415 C416 1.398 . S
C415 C421 1.491 . S
C416 H407 0.950 . S
C416 C415 1.398 . S
C416 C417 1.391 . S
C417 H405 0.950 . S
C417 C413 1.393 . S
C417 C416 1.391 . S
C418 H408 0.950 . S
C418 C419 1.386 . S
C418 C420 1.391 . S
C419 C418 1.386 . S
C419 C423 1.393 . S
C420 H409 0.950 . S
C420 C418 1.391 . S
C420 C421 1.400 . S
C421 C415 1.491 . S
C421 C420 1.400 . S
C421 C422 1.398 . S
C422 H410 0.950 . S
C422 C421 1.398 . S
C422 C423 1.391 . S
C423 H411 0.950 . S
C423 C419 1.393 . S
C423 C422 1.391 . S
C113 C5 0.821 . S
C119 C29 0.820 . S
C133 C16 0.820 . S
C139 C42 0.822 . S
C153 C55 0.824 . S
C159 C81 0.822 . S
C173 C68 0.824 . S
C179 C94 0.822 . S
C193 C10 1.500 . S
C199 C69 1.485 . S
C213 C17 1.500 . S
C219 C82 1.485 . S
C233 C95 1.493 . S
C239 C30 1.488 . S
C253 C43 1.500 . S
C259 C56 1.486 . S
C273 C57 1.700 . S
C279 C4 1.731 . S
C293 C23 1.731 . S
C299 C70 1.697 . S
C313 C36 1.736 . S
C319 C83 1.707 . S
C333 C49 1.742 . S
C339 C96 1.711 . S
C353 C3 1.709 . S
C359 C62 1.737 . S
C373 C75 1.739 . S
C379 C18 1.707 . S
C393 C88 1.735 . S
C399 C31 1.701 . S
C413 C44 1.719 . S
C419 C101 1.746 . S
