# Generated by pormake.
# Topology snp, (6)-cn, num edge types: 1
# Building blocks:
#     Node 0, Type 0, BuildingBlock: INOVEN_clean_sbu_0, # of connection points: 6
#     Node 1, Type 0, BuildingBlock: INOVEN_clean_sbu_0, # of connection points: 6
#     Node 2, Type 0, BuildingBlock: INOVEN_clean_sbu_0, # of connection points: 6
#     Node 3, Type 0, BuildingBlock: INOVEN_clean_sbu_0, # of connection points: 6
#     Edge 4, Type (0, 0), BuildingBlock: EZIPEK_clean_linker_0, # of connection points: 2
#     Edge 5, Type (0, 0), BuildingBlock: EZIPEK_clean_linker_0, # of connection points: 2
#     Edge 6, Type (0, 0), BuildingBlock: EZIPEK_clean_linker_0, # of connection points: 2
#     Edge 7, Type (0, 0), BuildingBlock: EZIPEK_clean_linker_0, # of connection points: 2
#     Edge 8, Type (0, 0), BuildingBlock: EZIPEK_clean_linker_0, # of connection points: 2
#     Edge 9, Type (0, 0), BuildingBlock: EZIPEK_clean_linker_0, # of connection points: 2
#     Edge 10, Type (0, 0), BuildingBlock: EZIPEK_clean_linker_0, # of connection points: 2
#     Edge 11, Type (0, 0), BuildingBlock: EZIPEK_clean_linker_0, # of connection points: 2
#     Edge 12, Type (0, 0), BuildingBlock: EZIPEK_clean_linker_0, # of connection points: 2
#     Edge 13, Type (0, 0), BuildingBlock: EZIPEK_clean_linker_0, # of connection points: 2
#     Edge 14, Type (0, 0), BuildingBlock: EZIPEK_clean_linker_0, # of connection points: 2
#     Edge 15, Type (0, 0), BuildingBlock: EZIPEK_clean_linker_0, # of connection points: 2
# Relax obj value: 0.233
# Max RMSD: 0.249
# Mean RMSD: 0.239
data_MOF--net-snp--node1-INOVEN_clean_sbu_0--edge1-EZIPEK_clean_linker_0
_symmetry_space_group_name_H-M    P1
_symmetry_Int_Tables_number       1
_symmetry_cell_setting            triclinic
loop_
_symmetry_equiv_pos_as_xyz
'x, y, z'
_cell_length_a     18.954357
_cell_length_b     18.502216
_cell_length_c     28.735685
_cell_angle_alpha  81.721391
_cell_angle_beta   107.3014
_cell_angle_gamma 100.10367
loop_
_atom_site_label
_atom_site_type_symbol
_atom_site_fract_x
_atom_site_fract_y
_atom_site_fract_z
_atom_type_partial_charge
Gd0 Gd 0.2711 0.12199 0.14426 0.0
Gd1 Gd 0.26192 0.97614 0.1002 0.0
C2 C 0.25808 0.9668 0.21047 0.0
C3 C 0.26442 0.22489 0.19518 0.0
C4 C 0.25295 0.23212 0.24324 0.0
C5 C 0.28841 0.19117 0.28653 0.0
C6 C 0.20879 0.28386 0.24633 0.0
C7 C 0.23827 0.25608 0.33503 0.0
C8 C 0.20103 0.29535 0.29167 0.0
C9 C 0.28143 0.20336 0.33199 0.0
C10 C 0.40141 0.07869 0.14381 0.0
C11 C 0.25053 0.13489 1.02956 0.0
C12 C 0.29244 0.87668 0.05768 0.0
C13 C 0.26922 0.85731 1.00728 0.0
C14 C 0.20615 0.88306 0.97382 0.0
C15 C 0.31259 0.81717 0.99154 0.0
C16 C 0.23063 0.82993 0.90891 0.0
C17 C 0.29341 0.80354 0.94243 0.0
C18 C 0.18688 0.86933 0.9249 0.0
C19 C 0.1279 0.00591 0.10005 0.0
O20 O 0.24043 0.03425 0.20024 0.0
O21 O 0.28042 0.93505 0.18006 0.0
O22 O 0.32666 0.20302 0.19582 0.0
O23 O 0.20729 0.1959 0.16186 0.0
O24 O 0.38832 0.14672 0.13544 0.0
O25 O 0.34651 0.0389 0.15408 0.0
O26 O 0.26484 0.06557 0.03673 0.0
O27 O 0.24409 0.16882 0.06536 0.0
O28 O 0.24012 0.8645 0.08024 0.0
O29 O 0.33385 0.94094 0.06431 0.0
O30 O 0.14272 0.94027 0.09944 0.0
O31 O 0.18283 0.05234 0.09397 0.0
H32 H 0.32279 0.15093 0.28537 0.0
H33 H 0.18111 0.31633 0.21364 0.0
H34 H 0.16755 0.33634 0.29313 0.0
H35 H 0.31063 0.17255 0.36496 0.0
H36 H 0.17275 0.91485 0.98546 0.0
H37 H 0.36188 0.79766 1.01699 0.0
H38 H 0.32795 0.77358 0.93037 0.0
H39 H 0.13887 0.89072 0.89923 0.0
Gd40 Gd 0.98487 0.26668 0.74737 0.0
Gd41 Gd 0.12766 0.31412 0.7165 0.0
C42 C 0.14729 0.26623 0.82958 0.0
C43 C 0.88136 0.2036 0.78702 0.0
C44 C 0.87204 0.19571 0.83662 0.0
C45 C 0.80767 0.2157 0.84297 0.0
C46 C 0.92753 0.17165 0.87785 0.0
C47 C 0.85312 0.18602 0.93069 0.0
C48 C 0.9179 0.16657 0.92462 0.0
C49 C 0.79838 0.21122 0.88973 0.0
C50 C 0.02241 0.41464 0.73439 0.0
C51 C 0.96412 0.29499 0.6334 0.0
C52 C 0.22201 0.37063 0.66741 0.0
C53 C 0.22528 0.35735 0.61804 0.0
C54 C 0.27794 0.31535 0.61393 0.0
C55 C 0.17371 0.38268 0.57475 0.0
C56 C 0.22711 0.32368 0.52504 0.0
C57 C 0.17481 0.36616 0.5288 0.0
C58 C 0.27863 0.29846 0.56801 0.0
C59 C 0.0799 0.16753 0.71831 0.0
O60 O 0.07508 0.24203 0.81627 0.0
O61 O 0.18137 0.30723 0.79854 0.0
O62 O 0.88254 0.27058 0.76512 0.0
O63 O 0.93089 0.16804 0.7802 0.0
O64 O 0.95525 0.37983 0.72624 0.0
O65 O 0.06788 0.36853 0.75335 0.0
O66 O 0.03491 0.32573 0.64534 0.0
O67 O 0.93212 0.26092 0.66708 0.0
O68 O 0.23425 0.31606 0.70185 0.0
O69 O 0.16732 0.40379 0.66891 0.0
O70 O 0.14931 0.19624 0.73108 0.0
O71 O 0.04041 0.21825 0.705 0.0
H72 H 0.76461 0.23493 0.81169 0.0
H73 H 0.97817 0.15673 0.87404 0.0
H74 H 0.96047 0.14678 0.956 0.0
H75 H 0.74801 0.22612 0.89397 0.0
H76 H 0.3182 0.29479 0.64638 0.0
H77 H 0.13193 0.41472 0.57628 0.0
H78 H 0.13453 0.38618 0.49614 0.0
H79 H 0.31959 0.26581 0.56595 0.0
Gd80 Gd 0.84531 0.09729 0.23926 0.0
Gd81 Gd 0.82522 0.95448 0.19026 0.0
C82 C 0.85363 0.9344 0.3061 0.0
C83 C 0.81875 0.19723 0.28327 0.0
C84 C 0.83907 0.21933 0.33277 0.0
C85 C 0.89619 0.18958 0.36986 0.0
C86 C 0.79849 0.26795 0.3436 0.0
C87 C 0.87063 0.25563 0.42867 0.0
C88 C 0.8141 0.286 0.39146 0.0
C89 C 0.91193 0.20777 0.41765 0.0
C90 C 0.97315 0.06815 0.22916 0.0
C91 C 0.83917 0.11068 0.12672 0.0
C92 C 0.8255 0.85316 0.13648 0.0
C93 C 0.84282 0.84659 0.09046 0.0
C94 C 0.85366 0.77762 0.08106 0.0
C95 C 0.84303 0.9064 0.05422 0.0
C96 C 0.85867 0.82657 0.99853 0.0
C97 C 0.8507 0.89643 1.00854 0.0
C98 C 0.86164 0.76769 1.03557 0.0
C99 C 0.69977 0.00067 0.19704 0.0
O100 O 0.85454 0.00709 0.3037 0.0
O101 O 0.84369 0.90028 0.26679 0.0
O102 O 0.87267 0.20736 0.26216 0.0
O103 O 0.77627 0.13342 0.27674 0.0
O104 O 0.96049 0.13355 0.23271 0.0
O105 O 0.92058 0.02069 0.23833 0.0
O106 O 0.85616 0.04314 0.13521 0.0
O107 O 0.82061 0.14133 0.15937 0.0
O108 O 0.76732 0.88526 0.13201 0.0
O109 O 0.88136 0.87209 0.17413 0.0
O110 O 0.70987 0.93198 0.20212 0.0
O111 O 0.75451 0.03943 0.18595 0.0
H112 H 0.9275 0.15143 0.36198 0.0
H113 H 0.7539 0.2908 0.31521 0.0
H114 H 0.78144 0.32244 0.3997 0.0
H115 H 0.95507 0.18335 0.4463 0.0
H116 H 0.85367 0.73077 0.10843 0.0
H117 H 0.83509 0.96016 0.06068 0.0
H118 H 0.84844 0.94263 0.98056 0.0
H119 H 0.86774 0.71341 1.02865 0.0
Gd120 Gd 0.96303 0.76639 0.61832 0.0
Gd121 Gd 0.10482 0.82175 0.58904 0.0
C122 C 0.12376 0.79919 0.7023 0.0
C123 C 0.86974 0.7058 0.66723 0.0
C124 C 0.86446 0.72059 0.7157 0.0
C125 C 0.81289 0.76507 0.71833 0.0
C126 C 0.9142 0.69483 0.75971 0.0
C127 C 0.86201 0.75904 0.80722 0.0
C128 C 0.91294 0.71389 0.80491 0.0
C129 C 0.81189 0.78432 0.76356 0.0
C130 C 0.99733 0.91456 0.61094 0.0
C131 C 0.94414 0.80509 0.50534 0.0
C132 C 0.20522 0.8882 0.54776 0.0
C133 C 0.21453 0.89202 0.4983 0.0
C134 C 0.27765 0.86805 0.49282 0.0
C135 C 0.16043 0.91668 0.45639 0.0
C136 C 0.23428 0.89601 0.40481 0.0
C137 C 0.1705 0.91895 0.40994 0.0
C138 C 0.28723 0.86954 0.44638 0.0
C139 C 0.07729 0.67286 0.60565 0.0
O140 O 0.05516 0.76285 0.69036 0.0
O141 O 0.15427 0.83582 0.66857 0.0
O142 O 0.85413 0.75766 0.6312 0.0
O143 O 0.92799 0.67686 0.6675 0.0
O144 O 0.93031 0.87995 0.59729 0.0
O145 O 0.04221 0.86871 0.62757 0.0
O146 O 0.0142 0.83656 0.51855 0.0
O147 O 0.91246 0.76242 0.53688 0.0
O148 O 0.20981 0.82386 0.57321 0.0
O149 O 0.15199 0.92079 0.55245 0.0
O150 O 0.14264 0.7118 0.61573 0.0
O151 O 0.02917 0.71532 0.58426 0.0
H152 H 0.77405 0.78607 0.68528 0.0
H153 H 0.95495 0.66071 0.75931 0.0
H154 H 0.95196 0.69364 0.83814 0.0
H155 H 0.77206 0.8191 0.76453 0.0
H156 H 0.31968 0.8483 0.52456 0.0
H157 H 0.11065 0.93454 0.4594 0.0
H158 H 0.12922 0.93961 0.37808 0.0
H159 H 0.33683 0.85188 0.44289 0.0
C160 C 0.03153 0.98176 0.19812 0.0
C161 C 0.02207 0.05509 0.19997 0.0
C162 C 0.06366 0.0932 0.12598 0.0
C163 C 0.07396 0.01987 0.12499 0.0
N164 N 0.03315 0.89139 0.14592 0.0
N165 N 0.05692 0.18426 0.17614 0.0
C166 C 0.04761 0.96286 0.15682 0.0
C167 C 0.04532 0.11227 0.16663 0.0
N168 N 0.02985 0.93146 0.23752 0.0
N169 N 0.06896 0.14373 0.08711 0.0
H170 H 0.05957 0.19967 0.21011 0.0
H171 H 0.07568 0.22798 0.15367 0.0
H172 H 0.07849 0.1292 0.05592 0.0
H173 H 0.05551 0.19686 0.08337 0.0
H174 H 0.03945 0.87726 0.23955 0.0
H175 H 0.02843 0.94769 0.27048 0.0
H176 H 0.01145 0.84797 0.16731 0.0
H177 H 0.03192 0.87729 0.11182 0.0
C178 C 1.00132 0.97533 0.68392 0.0
C179 C 0.01042 0.98089 0.63597 0.0
C180 C 0.06613 0.10892 0.6424 0.0
C181 C 0.05817 0.10299 0.69071 0.0
N182 N 0.01234 0.03283 0.75596 0.0
N183 N 0.04744 0.05333 0.56823 0.0
C184 C 0.02365 0.03717 0.71075 0.0
C185 C 0.04129 0.04775 0.61488 0.0
N186 N 0.97331 0.91112 0.70594 0.0
N187 N 0.09626 0.17255 0.62095 0.0
H188 H 0.02832 0.00996 0.54603 0.0
H189 H 0.07044 0.1019 0.55159 0.0
H190 H 0.11601 0.22154 0.63746 0.0
H191 H 0.11601 0.22154 0.63746 0.0
H192 H 0.9562 0.86142 0.69014 0.0
H193 H 0.9562 0.86142 0.69014 0.0
H194 H 0.98707 -0.01512 0.77186 0.0
H195 H 0.0269 0.07731 0.77705 0.0
C196 C 0.56834 0.9763 0.20315 0.0
C197 C 0.62602 0.0261 0.18959 0.0
C198 C 0.53398 0.10458 0.13905 0.0
C199 C 0.47612 0.0545 0.15236 0.0
N200 N 0.43854 0.92718 0.17915 0.0
N201 N 0.66418 0.15316 0.16292 0.0
C202 C 0.49307 -0.01396 0.17975 0.0
C203 C 0.60929 0.09468 0.16245 0.0
N204 N 0.58542 0.92187 0.24048 0.0
N205 N 0.51713 0.1588 0.10153 0.0
H206 H 0.71679 0.15278 0.18736 0.0
H207 H 0.65412 0.20572 0.1464 0.0
H208 H 0.46265 0.16264 0.07996 0.0
H209 H 0.55739 0.19267 0.08731 0.0
H210 H 0.54539 0.88836 0.2551 0.0
H211 H 0.64012 0.91726 0.26131 0.0
H212 H 0.44884 0.87483 0.19597 0.0
H213 H 0.38634 0.9268 0.15419 0.0
C214 C 0.97773 0.52056 0.67378 0.0
C215 C 0.03844 0.48744 0.70664 0.0
C216 C 0.12371 0.56615 0.66521 0.0
C217 C 0.06276 0.59894 0.63247 0.0
N218 N 0.93076 0.58246 0.59311 0.0
N219 N 0.17088 0.50003 0.74458 0.0
C220 C 0.98931 0.56862 0.63287 0.0
C221 C 0.11212 0.51635 0.70561 0.0
N222 N 0.9103 0.51084 0.68365 0.0
N223 N 0.19138 0.57807 0.65556 0.0
H224 H 0.16349 0.46975 0.77673 0.0
H225 H 0.22566 0.52467 0.74761 0.0
H226 H 0.19882 0.60554 0.62265 0.0
H227 H 0.23651 0.55172 0.67635 0.0
H228 H 0.86496 0.53597 0.66174 0.0
H229 H 0.90336 0.48736 0.71752 0.0
H230 H 0.87628 0.55678 0.59006 0.0
H231 H 0.93849 0.61099 0.56055 0.0
C232 C 0.28075 0.35049 0.45273 0.0
C233 C 0.22905 0.30661 0.47599 0.0
C234 C 0.186 0.2269 0.4082 0.0
C235 C 0.23514 0.27301 0.38383 0.0
N236 N 0.32509 0.3818 0.38019 0.0
N237 N 0.12816 0.20707 0.47505 0.0
C238 C 0.28134 0.33569 0.40542 0.0
C239 C 0.18044 0.24586 0.45343 0.0
N240 N 0.33049 0.4055 0.47652 0.0
N241 N 0.14541 0.16444 0.38825 0.0
H242 H 0.1238 0.21828 0.50856 0.0
H243 H 0.08647 0.16628 0.45905 0.0
H244 H 0.14564 0.15075 0.35433 0.0
H245 H 0.11448 0.12386 0.40601 0.0
H246 H 0.3756 0.43396 0.46488 0.0
H247 H 0.32943 0.42042 0.50992 0.0
H248 H 0.35313 0.43309 0.39053 0.0
H249 H 0.33057 0.37073 0.34695 0.0
C250 C 0.88058 0.22532 1.01518 0.0
C251 C 0.84061 0.17559 0.9798 0.0
C252 C 0.77883 0.10419 0.03851 0.0
C253 C 0.82881 0.14489 0.07597 0.0
N254 N 0.92292 0.24789 0.10115 0.0
N255 N 0.75555 0.06411 0.95829 0.0
C256 C 0.87773 0.20747 0.06458 0.0
C257 C 0.78988 0.11457 0.99133 0.0
N258 N 0.92061 0.28936 1.00124 0.0
N259 N 0.72065 0.05562 0.04839 0.0
H260 H 0.76259 0.06896 0.92329 0.0
H261 H 0.72499 0.01411 0.96696 0.0
H262 H 0.71063 0.04826 0.08269 0.0
H263 H 0.67836 0.02876 1.02163 0.0
H264 H 0.94634 0.33094 1.02403 0.0
H265 H 0.92369 0.30348 0.96534 0.0
H266 H 0.96553 0.28968 0.09659 0.0
H267 H 0.91915 0.23779 0.13704 0.0
C268 C 0.8497 0.86994 0.43833 0.0
C269 C 0.90324 0.82026 0.45275 0.0
C270 C 0.92046 0.84001 0.37031 0.0
C271 C 0.86657 0.89005 0.35532 0.0
N272 N 0.76498 0.93504 0.37156 0.0
N273 N 0.9726 0.74193 0.42946 0.0
C274 C 0.82656 0.89959 0.38832 0.0
C275 C 0.93256 0.79989 0.41748 0.0
N276 N 0.82347 0.8916 0.47277 0.0
N277 N 0.96421 0.83416 0.34127 0.0
H278 H 0.98177 0.71159 0.46378 0.0
H279 H 0.98969 0.71928 0.40415 0.0
H280 H 0.95843 0.86171 0.3066 0.0
H281 H 0.01075 0.80653 0.35322 0.0
H282 H 0.7925 0.93517 0.46601 0.0
H283 H 0.8359 0.86811 0.50895 0.0
H284 H 0.72949 0.93774 0.39264 0.0
H285 H 0.74488 0.95525 0.33501 0.0
C286 C 0.16268 0.74236 0.78864 0.0
C287 C 0.16133 0.8065 0.75485 0.0
C288 C 0.22186 0.88246 0.82279 0.0
C289 C 0.21214 0.82005 0.85628 0.0
N290 N 0.16451 0.69177 0.87143 0.0
N291 N 0.17776 0.94031 0.74094 0.0
C292 C 0.18049 0.75008 0.83939 0.0
C293 C 0.1884 0.8774 0.77205 0.0
N294 N 0.14867 0.67409 0.77227 0.0
N295 N 0.26348 0.94657 0.83949 0.0
H296 H 0.15153 0.94075 0.70362 0.0
H297 H 0.18834 -0.00737 0.75305 0.0
H298 H 0.28908 0.95229 0.87657 0.0
H299 H 0.27867 -0.00852 0.81636 0.0
H300 H 0.15538 0.62558 0.79553 0.0
H301 H 0.13795 0.66667 0.73541 0.0
H302 H 0.13351 0.64183 0.86024 0.0
H303 H 0.17687 0.69519 0.90898 0.0
C304 C 0.921 0.84165 0.93025 0.0
C305 C 0.85854 0.81319 0.94836 0.0
C306 C 0.80021 0.74672 0.87512 0.0
C307 C 0.86034 0.77882 0.85554 0.0
N308 N 0.97061 0.86826 0.8599 0.0
N309 N 0.73133 0.75287 0.93293 0.0
C310 C 0.91867 0.82968 0.88181 0.0
C311 C 0.79594 0.76988 0.91924 0.0
N312 N 0.98367 0.87777 0.95994 0.0
N313 N 0.74844 0.69206 0.85252 0.0
H314 H 0.72552 0.76975 0.96454 0.0
H315 H 0.68137 0.72837 0.91063 0.0
H316 H 0.74961 0.67324 0.82028 0.0
H317 H 0.70814 0.66092 0.86793 0.0
H318 H 0.03367 0.89304 0.95068 0.0
H319 H 0.98758 0.8875 0.99555 0.0
H320 H 0.0086 0.9127 0.87458 0.0
H321 H 0.97131 0.86033 0.82483 0.0
C322 C 0.21256 0.87316 0.27136 0.0
C323 C 0.26464 0.93354 0.26106 0.0
C324 C 0.30275 0.96318 0.34576 0.0
C325 C 0.24836 0.90497 0.35616 0.0
N326 N 0.16158 0.79562 0.33308 0.0
N327 N 0.37627 0.01773 0.29028 0.0
C328 C 0.20656 0.8567 0.32021 0.0
C329 C 0.31543 0.97244 0.29907 0.0
N330 N 0.16815 0.83326 0.23423 0.0
N331 N 0.33915 0.01229 0.37939 0.0
H332 H 0.38735 0.02426 0.25632 0.0
H333 H 0.41937 0.04254 0.31758 0.0
H334 H 0.33058 0.00878 0.41388 0.0
H335 H 0.3736 0.06011 0.37176 0.0
H336 H 0.12503 0.79152 0.23781 0.0
H337 H 0.1738 0.84308 0.19877 0.0
H338 H 0.13249 0.75558 0.3098 0.0
H339 H 0.15656 0.78246 0.36861 0.0
C340 C 0.23068 0.28007 0.91715 0.0
C341 C 0.18939 0.23523 0.87918 0.0
C342 C 0.18376 0.12889 0.94003 0.0
C343 C 0.23097 0.17089 0.978 0.0
N344 N 0.31284 0.2839 1.00011 0.0
N345 N 0.15291 0.11191 0.85448 0.0
C346 C 0.2586 0.24593 0.96587 0.0
C347 C 0.17488 0.15798 0.89075 0.0
N348 N 0.24094 0.35492 0.90732 0.0
N349 N 0.14251 0.0635 0.9505 0.0
H350 H 0.15027 0.13139 0.81824 0.0
H351 H 0.1469 0.05457 0.86151 0.0
H352 H 0.14005 0.04339 0.98586 0.0
H353 H 0.10302 0.03441 0.92342 0.0
H354 H 0.26351 0.39079 0.93452 0.0
H355 H 0.22232 0.38108 0.87214 0.0
H356 H 0.33949 0.33642 0.99208 0.0
H357 H 0.33638 0.26005 1.03528 0.0
C358 C 0.92121 0.33847 0.49648 0.0
C359 C 0.88388 0.26964 0.48006 0.0
C360 C 0.89312 0.21709 0.56417 0.0
C361 C 0.92679 0.28742 0.58082 0.0
N362 N 0.9545 0.41864 0.56142 0.0
N363 N 0.81541 0.15061 0.49614 0.0
C364 C 0.93486 0.34934 0.5464 0.0
C365 C 0.86331 0.21147 0.51327 0.0
N366 N 0.94653 0.39224 0.46505 0.0
N367 N 0.89461 0.15438 0.59592 0.0
H368 H 0.79244 0.14458 0.45886 0.0
H369 H 0.7927 0.10987 0.51873 0.0
H370 H 0.91841 0.15305 0.63349 0.0
H371 H 0.87894 0.10165 0.58424 0.0
H372 H 0.98168 0.44018 0.47652 0.0
H373 H 0.93736 0.38638 0.42807 0.0
H374 H 0.95519 0.46643 0.53737 0.0
H375 H 0.96239 0.42837 0.59756 0.0
loop_
_geom_bond_atom_site_label_1
_geom_bond_atom_site_label_2
_geom_bond_distance
_geom_bond_site_symmetry_2
_ccdc_geom_bond_type
Gd0 C3 2.818 . S
Gd0 O20 2.377 . S
Gd0 O22 2.448 . S
Gd0 O23 2.506 . S
Gd0 O24 2.435 . S
Gd0 O25 2.717 . S
Gd0 O27 2.395 . S
Gd0 O31 2.327 . S
Gd1 C12 2.818 1_544 S
Gd1 O21 2.395 1_545 S
Gd1 O25 2.327 . S
Gd1 O26 2.377 . S
Gd1 O28 2.448 1_544 S
Gd1 O29 2.506 1_545 S
Gd1 O30 2.435 . S
Gd1 O31 2.717 . S
C2 O20 1.240 . S
C2 O21 1.240 1_545 S
C3 Gd0 2.818 . S
C3 C4 1.510 . S
C3 O22 1.249 . S
C3 O23 1.252 . S
C4 C3 1.510 . S
C4 C5 1.404 . S
C4 C6 1.352 . S
C5 C4 1.404 . S
C5 C9 1.389 . S
C5 H32 0.930 . S
C6 C4 1.352 . S
C6 C8 1.374 . S
C6 H33 0.931 . S
C7 C8 1.359 . S
C7 C9 1.364 . S
C8 C6 1.374 . S
C8 C7 1.359 . S
C8 H34 0.931 . S
C9 C5 1.389 . S
C9 C7 1.364 . S
C9 H35 0.931 . S
C10 O24 1.256 . S
C10 O25 1.257 . S
C11 O26 1.240 . S
C11 O27 1.240 . S
C12 Gd1 2.818 1_566 S
C12 C13 1.510 . S
C12 O28 1.249 . S
C12 O29 1.252 1_556 S
C13 C12 1.510 . S
C13 C14 1.404 . S
C13 C15 1.352 . S
C14 C13 1.404 . S
C14 C18 1.389 . S
C14 H36 0.930 . S
C15 C13 1.352 . S
C15 C17 1.374 . S
C15 H37 0.931 . S
C16 C17 1.359 . S
C16 C18 1.364 . S
C17 C15 1.374 . S
C17 C16 1.359 . S
C17 H38 0.931 . S
C18 C14 1.389 . S
C18 C16 1.364 . S
C18 H39 0.931 . S
C19 O30 1.256 . S
C19 O31 1.257 . S
O20 Gd0 2.377 . S
O20 C2 1.240 . S
O21 Gd1 2.395 1_565 S
O21 C2 1.240 1_565 S
O22 Gd0 2.448 . S
O22 C3 1.249 . S
O23 Gd0 2.506 . S
O23 C3 1.252 . S
O24 Gd0 2.435 . S
O24 C10 1.256 . S
O25 Gd0 2.717 . S
O25 Gd1 2.327 . S
O25 C10 1.257 . S
O26 Gd1 2.377 . S
O26 C11 1.240 . S
O27 Gd0 2.395 . S
O27 C11 1.240 . S
O28 Gd1 2.448 1_566 S
O28 C12 1.249 . S
O29 Gd1 2.506 1_565 S
O29 C12 1.252 1_554 S
O30 Gd1 2.435 . S
O30 C19 1.256 . S
O31 Gd0 2.327 . S
O31 Gd1 2.717 . S
O31 C19 1.257 . S
H32 C5 0.930 . S
H33 C6 0.931 . S
H34 C8 0.931 . S
H35 C9 0.931 . S
H36 C14 0.930 . S
H37 C15 0.931 . S
H38 C17 0.931 . S
H39 C18 0.931 . S
Gd40 C43 2.818 . S
Gd40 O60 2.377 1_655 S
Gd40 O62 2.448 . S
Gd40 O63 2.506 . S
Gd40 O64 2.435 . S
Gd40 O65 2.717 1_655 S
Gd40 O67 2.395 . S
Gd40 O71 2.327 1_655 S
Gd41 C52 2.818 . S
Gd41 O61 2.395 . S
Gd41 O65 2.327 . S
Gd41 O66 2.377 . S
Gd41 O68 2.448 . S
Gd41 O69 2.506 . S
Gd41 O70 2.435 . S
Gd41 O71 2.717 . S
C42 O60 1.240 . S
C42 O61 1.240 . S
C43 Gd40 2.818 . S
C43 C44 1.510 . S
C43 O62 1.249 . S
C43 O63 1.252 . S
C44 C43 1.510 . S
C44 C45 1.404 . S
C44 C46 1.352 . S
C45 C44 1.404 . S
C45 C49 1.389 . S
C45 H72 0.930 . S
C46 C44 1.352 . S
C46 C48 1.374 . S
C46 H73 0.931 . S
C47 C48 1.359 . S
C47 C49 1.364 . S
C48 C46 1.374 . S
C48 C47 1.359 . S
C48 H74 0.931 . S
C49 C45 1.389 . S
C49 C47 1.364 . S
C49 H75 0.931 . S
C50 O64 1.256 1_455 S
C50 O65 1.257 . S
C51 O66 1.240 1_655 S
C51 O67 1.240 . S
C52 Gd41 2.818 . S
C52 C53 1.510 . S
C52 O68 1.249 . S
C52 O69 1.252 . S
C53 C52 1.510 . S
C53 C54 1.404 . S
C53 C55 1.352 . S
C54 C53 1.404 . S
C54 C58 1.389 . S
C54 H76 0.930 . S
C55 C53 1.352 . S
C55 C57 1.374 . S
C55 H77 0.931 . S
C56 C57 1.359 . S
C56 C58 1.364 . S
C57 C55 1.374 . S
C57 C56 1.359 . S
C57 H78 0.931 . S
C58 C54 1.389 . S
C58 C56 1.364 . S
C58 H79 0.931 . S
C59 O70 1.256 . S
C59 O71 1.257 . S
O60 Gd40 2.377 1_455 S
O60 C42 1.240 . S
O61 Gd41 2.395 . S
O61 C42 1.240 . S
O62 Gd40 2.448 . S
O62 C43 1.249 . S
O63 Gd40 2.506 . S
O63 C43 1.252 . S
O64 Gd40 2.435 . S
O64 C50 1.256 1_655 S
O65 Gd40 2.717 1_455 S
O65 Gd41 2.327 . S
O65 C50 1.257 . S
O66 Gd41 2.377 . S
O66 C51 1.240 1_455 S
O67 Gd40 2.395 . S
O67 C51 1.240 . S
O68 Gd41 2.448 . S
O68 C52 1.249 . S
O69 Gd41 2.506 . S
O69 C52 1.252 . S
O70 Gd41 2.435 . S
O70 C59 1.256 . S
O71 Gd40 2.327 1_455 S
O71 Gd41 2.717 . S
O71 C59 1.257 . S
H72 C45 0.930 . S
H73 C46 0.931 . S
H74 C48 0.931 . S
H75 C49 0.931 . S
H76 C54 0.930 . S
H77 C55 0.931 . S
H78 C57 0.931 . S
H79 C58 0.931 . S
Gd80 C83 2.818 . S
Gd80 O100 2.377 1_545 S
Gd80 O102 2.448 . S
Gd80 O103 2.506 . S
Gd80 O104 2.435 . S
Gd80 O105 2.717 1_545 S
Gd80 O107 2.395 . S
Gd80 O111 2.327 . S
Gd81 C92 2.818 . S
Gd81 O101 2.395 . S
Gd81 O105 2.327 . S
Gd81 O106 2.377 1_565 S
Gd81 O108 2.448 . S
Gd81 O109 2.506 . S
Gd81 O110 2.435 . S
Gd81 O111 2.717 1_565 S
C82 O100 1.240 . S
C82 O101 1.240 . S
C83 Gd80 2.818 . S
C83 C84 1.510 . S
C83 O102 1.249 . S
C83 O103 1.252 . S
C84 C83 1.510 . S
C84 C85 1.404 . S
C84 C86 1.352 . S
C85 C84 1.404 . S
C85 C89 1.389 . S
C85 H112 0.930 . S
C86 C84 1.352 . S
C86 C88 1.374 . S
C86 H113 0.931 . S
C87 C88 1.359 . S
C87 C89 1.364 . S
C88 C86 1.374 . S
C88 C87 1.359 . S
C88 H114 0.931 . S
C89 C85 1.389 . S
C89 C87 1.364 . S
C89 H115 0.931 . S
C90 O104 1.256 . S
C90 O105 1.257 1_545 S
C91 O106 1.240 . S
C91 O107 1.240 . S
C92 Gd81 2.818 . S
C92 C93 1.510 . S
C92 O108 1.249 . S
C92 O109 1.252 . S
C93 C92 1.510 . S
C93 C94 1.404 1_554 S
C93 C95 1.352 1_554 S
C94 C93 1.404 1_556 S
C94 C98 1.389 . S
C94 H116 0.930 . S
C95 C93 1.352 1_556 S
C95 C97 1.374 . S
C95 H117 0.931 1_556 S
C96 C97 1.359 . S
C96 C98 1.364 . S
C97 C95 1.374 . S
C97 C96 1.359 . S
C97 H118 0.931 . S
C98 C94 1.389 . S
C98 C96 1.364 . S
C98 H119 0.931 . S
C99 O110 1.256 . S
C99 O111 1.257 1_565 S
O100 Gd80 2.377 1_565 S
O100 C82 1.240 . S
O101 Gd81 2.395 . S
O101 C82 1.240 . S
O102 Gd80 2.448 . S
O102 C83 1.249 . S
O103 Gd80 2.506 . S
O103 C83 1.252 . S
O104 Gd80 2.435 . S
O104 C90 1.256 . S
O105 Gd80 2.717 1_565 S
O105 Gd81 2.327 . S
O105 C90 1.257 1_565 S
O106 Gd81 2.377 1_545 S
O106 C91 1.240 . S
O107 Gd80 2.395 . S
O107 C91 1.240 . S
O108 Gd81 2.448 . S
O108 C92 1.249 . S
O109 Gd81 2.506 . S
O109 C92 1.252 . S
O110 Gd81 2.435 . S
O110 C99 1.256 . S
O111 Gd80 2.327 . S
O111 Gd81 2.717 1_545 S
O111 C99 1.257 1_545 S
H112 C85 0.930 . S
H113 C86 0.931 . S
H114 C88 0.931 . S
H115 C89 0.931 . S
H116 C94 0.930 . S
H117 C95 0.931 1_554 S
H118 C97 0.931 . S
H119 C98 0.931 . S
Gd120 C123 2.818 . S
Gd120 O140 2.377 1_655 S
Gd120 O142 2.448 . S
Gd120 O143 2.506 . S
Gd120 O144 2.435 . S
Gd120 O145 2.717 1_655 S
Gd120 O147 2.395 . S
Gd120 O151 2.327 1_655 S
Gd121 C132 2.818 . S
Gd121 O141 2.395 . S
Gd121 O145 2.327 . S
Gd121 O146 2.377 . S
Gd121 O148 2.448 . S
Gd121 O149 2.506 . S
Gd121 O150 2.435 . S
Gd121 O151 2.717 . S
C122 O140 1.240 . S
C122 O141 1.240 . S
C123 Gd120 2.818 . S
C123 C124 1.510 . S
C123 O142 1.249 . S
C123 O143 1.252 . S
C124 C123 1.510 . S
C124 C125 1.404 . S
C124 C126 1.352 . S
C125 C124 1.404 . S
C125 C129 1.389 . S
C125 H152 0.930 . S
C126 C124 1.352 . S
C126 C128 1.374 . S
C126 H153 0.931 . S
C127 C128 1.359 . S
C127 C129 1.364 . S
C128 C126 1.374 . S
C128 C127 1.359 . S
C128 H154 0.931 . S
C129 C125 1.389 . S
C129 C127 1.364 . S
C129 H155 0.931 . S
C130 O144 1.256 1_455 S
C130 O145 1.257 . S
C131 O146 1.240 1_655 S
C131 O147 1.240 . S
C132 Gd121 2.818 . S
C132 C133 1.510 . S
C132 O148 1.249 . S
C132 O149 1.252 . S
C133 C132 1.510 . S
C133 C134 1.404 . S
C133 C135 1.352 . S
C134 C133 1.404 . S
C134 C138 1.389 . S
C134 H156 0.930 . S
C135 C133 1.352 . S
C135 C137 1.374 . S
C135 H157 0.931 . S
C136 C137 1.359 . S
C136 C138 1.364 . S
C137 C135 1.374 . S
C137 C136 1.359 . S
C137 H158 0.931 1_565 S
C138 C134 1.389 . S
C138 C136 1.364 . S
C138 H159 0.931 . S
C139 O150 1.256 . S
C139 O151 1.257 . S
O140 Gd120 2.377 1_455 S
O140 C122 1.240 . S
O141 Gd121 2.395 . S
O141 C122 1.240 . S
O142 Gd120 2.448 . S
O142 C123 1.249 . S
O143 Gd120 2.506 . S
O143 C123 1.252 . S
O144 Gd120 2.435 . S
O144 C130 1.256 1_655 S
O145 Gd120 2.717 1_455 S
O145 Gd121 2.327 . S
O145 C130 1.257 . S
O146 Gd121 2.377 . S
O146 C131 1.240 1_455 S
O147 Gd120 2.395 . S
O147 C131 1.240 . S
O148 Gd121 2.448 . S
O148 C132 1.249 . S
O149 Gd121 2.506 . S
O149 C132 1.252 . S
O150 Gd121 2.435 . S
O150 C139 1.256 . S
O151 Gd120 2.327 1_455 S
O151 Gd121 2.717 . S
O151 C139 1.257 . S
H152 C125 0.930 . S
H153 C126 0.931 . S
H154 C128 0.931 . S
H155 C129 0.931 . S
H156 C134 0.930 . S
H157 C135 0.931 . S
H158 C137 0.931 1_545 S
H159 C138 0.931 . S
C160 C161 1.363 1_665 S
C160 C166 1.379 1_665 S
C160 N168 1.356 . S
C161 C160 1.363 1_445 S
C161 C167 1.363 . S
C162 C163 1.363 . S
C162 C167 1.379 . S
C162 N169 1.356 . S
C163 C162 1.363 . S
C163 C166 1.363 . S
N164 C166 1.356 . S
N164 H176 0.984 1_445 S
N164 H177 0.985 . S
N165 C167 1.356 . S
N165 H170 0.984 . S
N165 H171 0.985 . S
C166 C160 1.379 1_445 S
C166 C163 1.363 . S
C166 N164 1.356 . S
C167 C161 1.363 . S
C167 C162 1.379 . S
C167 N165 1.356 . S
N168 C160 1.356 . S
N168 H174 0.984 . S
N168 H175 0.984 . S
N169 C162 1.356 . S
N169 H172 0.984 . S
N169 H173 0.985 . S
H170 N165 0.984 . S
H171 N165 0.985 . S
H172 N169 0.984 . S
H173 N169 0.985 . S
H174 N168 0.984 . S
H175 N168 0.984 . S
H176 N164 0.984 1_665 S
H177 N164 0.985 . S
C178 C179 1.363 1_565 S
C178 C184 1.379 1_565 S
C178 N186 1.356 . S
C179 C178 1.363 1_545 S
C179 C185 1.363 . S
C180 C181 1.363 . S
C180 C185 1.379 . S
C180 N187 1.356 . S
C181 C180 1.363 . S
C181 C184 1.363 . S
N182 C184 1.356 1_565 S
N182 H194 0.984 . S
N182 H195 0.985 1_565 S
N183 C185 1.356 . S
N183 H188 0.984 . S
N183 H189 0.985 . S
C184 C178 1.379 1_545 S
C184 C181 1.363 . S
C184 N182 1.356 1_545 S
C185 C179 1.363 . S
C185 C180 1.379 . S
C185 N183 1.356 . S
N186 C178 1.356 . S
N186 H192 0.984 . S
N186 H193 0.984 . S
N187 C180 1.356 . S
N187 H190 0.984 . S
N187 H191 0.985 . S
H188 N183 0.984 . S
H189 N183 0.985 . S
H190 N187 0.984 . S
H191 N187 0.985 . S
H192 N186 0.984 . S
H193 N186 0.984 . S
H194 N182 0.984 . S
H195 N182 0.985 1_545 S
C196 C197 1.363 1_565 S
C196 C202 1.379 1_565 S
C196 N204 1.356 . S
C197 C196 1.363 1_545 S
C197 C203 1.363 . S
C198 C199 1.363 . S
C198 C203 1.379 . S
C198 N205 1.356 . S
C199 C198 1.363 . S
C199 C202 1.363 . S
N200 C202 1.356 . S
N200 H212 0.984 1_545 S
N200 H213 0.985 . S
N201 C203 1.356 . S
N201 H206 0.984 . S
N201 H207 0.985 . S
C202 C196 1.379 1_545 S
C202 C199 1.363 . S
C202 N200 1.356 . S
C203 C197 1.363 . S
C203 C198 1.379 . S
C203 N201 1.356 . S
N204 C196 1.356 . S
N204 H210 0.984 . S
N204 H211 0.984 . S
N205 C198 1.356 . S
N205 H208 0.984 . S
N205 H209 0.985 . S
H206 N201 0.984 . S
H207 N201 0.985 . S
H208 N205 0.984 . S
H209 N205 0.985 . S
H210 N204 0.984 . S
H211 N204 0.984 . S
H212 N200 0.984 1_565 S
H213 N200 0.985 . S
C214 C215 1.363 1_655 S
C214 C220 1.379 . S
C214 N222 1.356 . S
C215 C214 1.363 1_455 S
C215 C221 1.363 . S
C216 C217 1.363 . S
C216 C221 1.379 . S
C216 N223 1.356 . S
C217 C216 1.363 . S
C217 C220 1.363 1_455 S
N218 C220 1.356 . S
N218 H230 0.984 . S
N218 H231 0.985 . S
N219 C221 1.356 . S
N219 H224 0.984 . S
N219 H225 0.985 . S
C220 C214 1.379 . S
C220 C217 1.363 1_655 S
C220 N218 1.356 . S
C221 C215 1.363 . S
C221 C216 1.379 . S
C221 N219 1.356 . S
N222 C214 1.356 . S
N222 H228 0.984 . S
N222 H229 0.984 . S
N223 C216 1.356 . S
N223 H226 0.984 . S
N223 H227 0.985 . S
H224 N219 0.984 . S
H225 N219 0.985 . S
H226 N223 0.984 . S
H227 N223 0.985 . S
H228 N222 0.984 . S
H229 N222 0.984 . S
H230 N218 0.984 . S
H231 N218 0.985 . S
C232 C233 1.363 . S
C232 C238 1.379 . S
C232 N240 1.356 . S
C233 C232 1.363 . S
C233 C239 1.363 . S
C234 C235 1.363 . S
C234 C239 1.379 . S
C234 N241 1.356 . S
C235 C234 1.363 . S
C235 C238 1.363 . S
N236 C238 1.356 . S
N236 H248 0.984 . S
N236 H249 0.985 . S
N237 C239 1.356 . S
N237 H242 0.984 . S
N237 H243 0.985 . S
C238 C232 1.379 . S
C238 C235 1.363 . S
C238 N236 1.356 . S
C239 C233 1.363 . S
C239 C234 1.379 . S
C239 N237 1.356 . S
N240 C232 1.356 . S
N240 H246 0.984 . S
N240 H247 0.984 . S
N241 C234 1.356 . S
N241 H244 0.984 . S
N241 H245 0.985 . S
H242 N237 0.984 . S
H243 N237 0.985 . S
H244 N241 0.984 . S
H245 N241 0.985 . S
H246 N240 0.984 . S
H247 N240 0.984 . S
H248 N236 0.984 . S
H249 N236 0.985 . S
C250 C251 1.363 . S
C250 C256 1.379 1_556 S
C250 N258 1.356 . S
C251 C250 1.363 . S
C251 C257 1.363 . S
C252 C253 1.363 1_556 S
C252 C257 1.379 . S
C252 N259 1.356 1_556 S
C253 C252 1.363 1_554 S
C253 C256 1.363 . S
N254 C256 1.356 . S
N254 H266 0.984 . S
N254 H267 0.985 . S
N255 C257 1.356 . S
N255 H260 0.984 . S
N255 H261 0.985 . S
C256 C250 1.379 1_554 S
C256 C253 1.363 . S
C256 N254 1.356 . S
C257 C251 1.363 . S
C257 C252 1.379 . S
C257 N255 1.356 . S
N258 C250 1.356 . S
N258 H264 0.984 . S
N258 H265 0.984 . S
N259 C252 1.356 1_554 S
N259 H262 0.984 . S
N259 H263 0.985 1_544 S
H260 N255 0.984 . S
H261 N255 0.985 . S
H262 N259 0.984 . S
H263 N259 0.985 1_566 S
H264 N258 0.984 . S
H265 N258 0.984 . S
H266 N254 0.984 . S
H267 N254 0.985 . S
C268 C269 1.363 . S
C268 C274 1.379 . S
C268 N276 1.356 . S
C269 C268 1.363 . S
C269 C275 1.363 . S
C270 C271 1.363 . S
C270 C275 1.379 . S
C270 N277 1.356 . S
C271 C270 1.363 . S
C271 C274 1.363 . S
N272 C274 1.356 1_545 S
N272 H284 0.984 . S
N272 H285 0.983 1_545 S
N273 C275 1.356 . S
N273 H278 0.984 . S
N273 H279 0.985 . S
C274 C268 1.379 . S
C274 C271 1.363 . S
C274 N272 1.356 1_565 S
C275 C269 1.363 . S
C275 C270 1.379 . S
C275 N273 1.356 . S
N276 C268 1.356 . S
N276 H282 0.984 1_565 S
N276 H283 0.984 . S
N277 C270 1.356 . S
N277 H280 0.984 . S
N277 H281 0.985 . S
H278 N273 0.984 . S
H279 N273 0.985 . S
H280 N277 0.984 . S
H281 N277 0.985 . S
H282 N276 0.984 1_545 S
H283 N276 0.984 . S
H284 N272 0.984 . S
H285 N272 0.983 1_565 S
C286 C287 1.363 . S
C286 C292 1.379 . S
C286 N294 1.356 . S
C287 C286 1.363 . S
C287 C293 1.363 . S
C288 C289 1.363 . S
C288 C293 1.379 . S
C288 N295 1.356 . S
C289 C288 1.363 . S
C289 C292 1.363 . S
N290 C292 1.356 . S
N290 H302 0.984 . S
N290 H303 0.985 . S
N291 C293 1.356 . S
N291 H296 0.984 . S
N291 H297 0.985 . S
C292 C286 1.379 . S
C292 C289 1.363 . S
C292 N290 1.356 . S
C293 C287 1.363 . S
C293 C288 1.379 . S
C293 N291 1.356 . S
N294 C286 1.356 . S
N294 H300 0.984 . S
N294 H301 0.984 . S
N295 C288 1.356 . S
N295 H298 0.984 . S
N295 H299 0.985 1_565 S
H296 N291 0.984 . S
H297 N291 0.985 . S
H298 N295 0.984 . S
H299 N295 0.985 1_545 S
H300 N294 0.984 . S
H301 N294 0.984 . S
H302 N290 0.984 . S
H303 N290 0.985 . S
C304 C305 1.363 . S
C304 C310 1.379 . S
C304 N312 1.356 . S
C305 C304 1.363 . S
C305 C311 1.363 . S
C306 C307 1.363 . S
C306 C311 1.379 . S
C306 N313 1.356 . S
C307 C306 1.363 . S
C307 C310 1.363 . S
N308 C310 1.356 . S
N308 H320 0.984 . S
N308 H321 0.985 . S
N309 C311 1.356 . S
N309 H314 0.984 . S
N309 H315 0.985 . S
C310 C304 1.379 . S
C310 C307 1.363 . S
C310 N308 1.356 . S
C311 C305 1.363 . S
C311 C306 1.379 . S
C311 N309 1.356 . S
N312 C304 1.356 . S
N312 H318 0.984 . S
N312 H319 0.984 . S
N313 C306 1.356 . S
N313 H316 0.984 . S
N313 H317 0.985 . S
H314 N309 0.984 . S
H315 N309 0.985 . S
H316 N313 0.984 . S
H317 N313 0.985 . S
H318 N312 0.984 . S
H319 N312 0.984 . S
H320 N308 0.984 . S
H321 N308 0.985 . S
C322 C323 1.369 . S
C322 C328 1.379 . S
C322 N330 1.356 . S
C323 C322 1.369 . S
C323 C329 1.359 1_565 S
C324 C325 1.363 1_545 S
C324 C329 1.379 . S
C324 N331 1.356 . S
C325 C324 1.363 1_565 S
C325 C328 1.363 . S
N326 C328 1.356 . S
N326 H338 0.984 . S
N326 H339 0.985 . S
N327 C329 1.356 . S
N327 H332 0.984 . S
N327 H333 0.985 . S
C328 C322 1.379 . S
C328 C325 1.363 . S
C328 N326 1.356 . S
C329 C323 1.359 1_545 S
C329 C324 1.379 . S
C329 N327 1.356 . S
N330 C322 1.356 . S
N330 H336 0.984 . S
N330 H337 0.984 . S
N331 C324 1.356 . S
N331 H334 0.984 1_545 S
N331 H335 0.985 . S
H332 N327 0.984 . S
H333 N327 0.985 . S
H334 N331 0.984 1_565 S
H335 N331 0.985 . S
H336 N330 0.984 . S
H337 N330 0.984 . S
H338 N326 0.984 . S
H339 N326 0.985 . S
C340 C341 1.363 . S
C340 C346 1.379 . S
C340 N348 1.356 . S
C341 C340 1.363 . S
C341 C347 1.363 . S
C342 C343 1.363 . S
C342 C347 1.379 . S
C342 N349 1.356 . S
C343 C342 1.363 . S
C343 C346 1.363 . S
N344 C346 1.356 . S
N344 H356 0.984 . S
N344 H357 0.985 . S
N345 C347 1.356 . S
N345 H350 0.984 . S
N345 H351 0.985 . S
C346 C340 1.379 . S
C346 C343 1.363 . S
C346 N344 1.356 . S
C347 C341 1.363 . S
C347 C342 1.379 . S
C347 N345 1.356 . S
N348 C340 1.356 . S
N348 H354 0.984 . S
N348 H355 0.984 . S
N349 C342 1.356 . S
N349 H352 0.984 . S
N349 H353 0.985 . S
H350 N345 0.984 . S
H351 N345 0.985 . S
H352 N349 0.984 . S
H353 N349 0.985 . S
H354 N348 0.984 . S
H355 N348 0.984 . S
H356 N344 0.984 . S
H357 N344 0.985 . S
C358 C359 1.363 . S
C358 C364 1.379 . S
C358 N366 1.356 . S
C359 C358 1.363 . S
C359 C365 1.363 . S
C360 C361 1.363 . S
C360 C365 1.379 . S
C360 N367 1.356 . S
C361 C360 1.363 . S
C361 C364 1.363 . S
N362 C364 1.356 1_455 S
N362 H374 0.984 . S
N362 H375 0.985 . S
N363 C365 1.356 . S
N363 H368 0.984 . S
N363 H369 0.985 . S
C364 C358 1.379 . S
C364 C361 1.363 . S
C364 N362 1.356 1_655 S
C365 C359 1.363 . S
C365 C360 1.379 . S
C365 N363 1.356 . S
N366 C358 1.356 . S
N366 H372 0.984 1_655 S
N366 H373 0.984 . S
N367 C360 1.356 . S
N367 H370 0.984 . S
N367 H371 0.985 . S
H368 N363 0.984 . S
H369 N363 0.985 . S
H370 N367 0.984 . S
H371 N367 0.985 . S
H372 N366 0.984 1_455 S
H373 N366 0.984 . S
H374 N362 0.984 . S
H375 N362 0.985 . S
C161 C90 1.326 1_455 S
C163 C19 1.327 . S
C179 C130 1.253 1_545 S
C181 C59 1.253 . S
C197 C99 1.341 1_545 S
C199 C10 1.340 . S
C215 C50 1.192 . S
C217 C139 1.192 . S
C233 C56 1.131 . S
C235 C7 1.121 . S
C251 C47 1.657 . S
C253 C91 1.681 . S
C269 C131 2.147 . S
C271 C82 2.094 . S
C287 C122 1.363 . S
C289 C16 1.383 . S
C305 C96 1.121 . S
C307 C127 1.131 . S
C323 C2 1.680 1_565 S
C325 C136 1.657 . S
C341 C42 2.147 . S
C343 C11 2.093 1_556 S
C359 C87 1.382 . S
C361 C51 1.363 . S
