# Generated by pormake.
# Topology hjm, (4)-cn, num edge types: 1
# Building blocks:
#     Node 0, Type 0, BuildingBlock: KUFVIS_clean_sbu_0, # of connection points: 4
#     Node 1, Type 0, BuildingBlock: KUFVIS_clean_sbu_0, # of connection points: 4
#     Node 2, Type 0, BuildingBlock: KUFVIS_clean_sbu_0, # of connection points: 4
#     Node 3, Type 0, BuildingBlock: KUFVIS_clean_sbu_0, # of connection points: 4
#     Node 4, Type 0, BuildingBlock: KUFVIS_clean_sbu_0, # of connection points: 4
#     Node 5, Type 0, BuildingBlock: KUFVIS_clean_sbu_0, # of connection points: 4
#     Node 6, Type 0, BuildingBlock: KUFVIS_clean_sbu_0, # of connection points: 4
#     Node 7, Type 0, BuildingBlock: KUFVIS_clean_sbu_0, # of connection points: 4
#     Edge 8, Type (0, 0), BuildingBlock: CIFDUS_clean_linker_0, # of connection points: 2
#     Edge 9, Type (0, 0), BuildingBlock: CIFDUS_clean_linker_0, # of connection points: 2
#     Edge 10, Type (0, 0), BuildingBlock: CIFDUS_clean_linker_0, # of connection points: 2
#     Edge 11, Type (0, 0), BuildingBlock: CIFDUS_clean_linker_0, # of connection points: 2
#     Edge 12, Type (0, 0), BuildingBlock: CIFDUS_clean_linker_0, # of connection points: 2
#     Edge 13, Type (0, 0), BuildingBlock: CIFDUS_clean_linker_0, # of connection points: 2
#     Edge 14, Type (0, 0), BuildingBlock: CIFDUS_clean_linker_0, # of connection points: 2
#     Edge 15, Type (0, 0), BuildingBlock: CIFDUS_clean_linker_0, # of connection points: 2
#     Edge 16, Type (0, 0), BuildingBlock: CIFDUS_clean_linker_0, # of connection points: 2
#     Edge 17, Type (0, 0), BuildingBlock: CIFDUS_clean_linker_0, # of connection points: 2
#     Edge 18, Type (0, 0), BuildingBlock: CIFDUS_clean_linker_0, # of connection points: 2
#     Edge 19, Type (0, 0), BuildingBlock: CIFDUS_clean_linker_0, # of connection points: 2
#     Edge 20, Type (0, 0), BuildingBlock: CIFDUS_clean_linker_0, # of connection points: 2
#     Edge 21, Type (0, 0), BuildingBlock: CIFDUS_clean_linker_0, # of connection points: 2
#     Edge 22, Type (0, 0), BuildingBlock: CIFDUS_clean_linker_0, # of connection points: 2
#     Edge 23, Type (0, 0), BuildingBlock: CIFDUS_clean_linker_0, # of connection points: 2
# Relax obj value: 0.063
# Max RMSD: 0.108
# Mean RMSD: 0.108
data_MOF--net-hjm--node1-KUFVIS_clean_sbu_0--edge1-CIFDUS_clean_linker_0
_symmetry_space_group_name_H-M    P1
_symmetry_Int_Tables_number       1
_symmetry_cell_setting            triclinic
loop_
_symmetry_equiv_pos_as_xyz
'x, y, z'
_cell_length_a     23.116411
_cell_length_b     19.895919
_cell_length_c     22.331851
_cell_angle_alpha  90.411656
_cell_angle_beta   57.062652
_cell_angle_gamma 90.142534
loop_
_atom_site_label
_atom_site_type_symbol
_atom_site_fract_x
_atom_site_fract_y
_atom_site_fract_z
_atom_type_partial_charge
Mn0 Mn 0.19861 0.24572 0.31157 0.0
Mn1 Mn 0.24874 0.40563 0.25805 0.0
C2 C 0.14875 0.33503 0.39129 0.0
C3 C 0.12802 0.14998 0.34084 0.0
C4 C 0.3397 0.30223 0.26655 0.0
O5 O 0.23809 0.24302 0.20328 0.0
O6 O 0.25324 0.35484 0.1788 0.0
C7 C 0.14757 0.46427 0.23116 0.0
N8 N 0.1774 0.46335 0.26952 0.0
C9 C 0.12233 0.5676 0.32816 0.0
C10 C 0.09226 0.57019 0.28834 0.0
C11 C 0.10465 0.51823 0.23976 0.0
C12 C 0.16603 0.51357 0.31605 0.0
H13 H 0.15751 0.42485 0.19331 0.0
C14 C 0.24924 0.29363 0.16239 0.0
O15 O 0.19127 0.14641 0.32336 0.0
O16 O 0.10693 0.20886 0.33549 0.0
N17 N 0.24283 0.45714 0.33438 0.0
C18 C 0.27729 0.44854 0.36765 0.0
C19 C 0.26849 0.49526 0.4194 0.0
C20 C 0.22473 0.55071 0.43628 0.0
C21 C 0.18965 0.5585 0.40169 0.0
C22 C 0.19992 0.50985 0.35101 0.0
H23 H 0.3113 0.40649 0.35509 0.0
O24 O 0.15034 0.27582 0.41465 0.0
O25 O 0.17996 0.34038 0.32318 0.0
O26 O 0.29391 0.257 0.29698 0.0
O27 O 0.32926 0.35593 0.24339 0.0
C28 C 0.14462 0.61247 0.4158 0.0
C29 C 0.11116 0.61708 0.37884 0.0
H30 H 0.06056 0.61264 0.29431 0.0
H31 H 0.0821 0.52016 0.20822 0.0
H32 H 0.29572 0.48873 0.44594 0.0
H33 H 0.21842 0.58691 0.47588 0.0
H34 H 0.13529 0.65061 0.45499 0.0
H35 H 0.07625 0.6584 0.39042 0.0
Mn36 Mn 0.82048 0.27284 0.22542 0.0
Mn37 Mn 0.79194 0.43962 0.26499 0.0
C38 C 0.87614 0.3552 0.13735 0.0
C39 C 0.87742 0.16716 0.19564 0.0
C40 C 0.68877 0.3487 0.2612 0.0
O41 O 0.78892 0.27445 0.33226 0.0
O42 O 0.76987 0.3863 0.34868 0.0
C43 C 0.88808 0.4746 0.30925 0.0
N44 N 0.86524 0.48416 0.2651 0.0
C45 C 0.925 0.58984 0.22521 0.0
C46 C 0.94719 0.58202 0.27172 0.0
C47 C 0.92947 0.52379 0.31332 0.0
C48 C 0.88297 0.53978 0.22424 0.0
H49 H 0.87321 0.43085 0.34269 0.0
C50 C 0.7723 0.32804 0.37111 0.0
O51 O 0.8125 0.17363 0.22081 0.0
O52 O 0.9092 0.22199 0.19383 0.0
N53 N 0.81367 0.49708 0.18728 0.0
C54 C 0.78608 0.49818 0.14674 0.0
C55 C 0.80116 0.55203 0.10027 0.0
C56 C 0.84333 0.60459 0.09716 0.0
C57 C 0.87191 0.6019 0.1384 0.0
C58 C 0.85609 0.54635 0.18271 0.0
H59 H 0.75345 0.45797 0.14939 0.0
O60 O 0.86303 0.29645 0.12164 0.0
O61 O 0.85293 0.36605 0.20377 0.0
O62 O 0.7223 0.29439 0.24952 0.0
O63 O 0.71137 0.40488 0.26684 0.0
C64 C 0.91513 0.65238 0.13757 0.0
C65 C 0.94162 0.6463 0.18109 0.0
H66 H 0.97677 0.62131 0.27641 0.0
H67 H 0.94637 0.51755 0.34955 0.0
H68 H 0.77949 0.5536 0.06785 0.0
H69 H 0.85278 0.6474 0.06382 0.0
H70 H 0.92837 0.69594 0.10366 0.0
H71 H 0.97528 0.68492 0.17982 0.0
Mn72 Mn 0.81288 0.74551 0.6821 0.0
Mn73 Mn 0.94099 0.76692 0.71053 0.0
C74 C 0.7938 0.80247 0.78335 0.0
C75 C 0.71679 0.68899 0.69667 0.0
C76 C 0.93666 0.83716 0.59235 0.0
O77 O 0.88203 0.66933 0.62205 0.0
O78 O 0.956 0.68241 0.65815 0.0
C79 C 0.92228 0.65359 0.80442 0.0
N80 N 0.92547 0.72091 0.79268 0.0
C81 C 0.92705 0.74484 0.89744 0.0
C82 C 0.92772 0.67568 0.90823 0.0
C83 C 0.92379 0.62983 0.86253 0.0
C84 C 0.92661 0.76544 0.83799 0.0
H85 H 0.91939 0.61838 0.76928 0.0
C86 C 0.93298 0.64956 0.62585 0.0
O87 O 0.75449 0.72829 0.64314 0.0
O88 O 0.73712 0.67902 0.73989 0.0
N89 N 0.92926 0.84756 0.76309 0.0
C90 C 0.92839 0.91249 0.74474 0.0
C91 C 0.92538 0.96467 0.78897 0.0
C92 C 0.92461 0.94971 0.85076 0.0
C93 C 0.92604 0.88245 0.86819 0.0
C94 C 0.92754 0.83255 0.82292 0.0
H95 H 0.93028 0.92437 0.69664 0.0
O96 O 0.75481 0.81489 0.75935 0.0
O97 O 0.84342 0.7608 0.74574 0.0
O98 O 0.87648 0.81847 0.6108 0.0
O99 O 0.96524 0.81768 0.6244 0.0
C100 C 0.92563 0.86294 0.92888 0.0
C101 C 0.927 0.79413 0.9431 0.0
H102 H 0.93195 0.65721 0.9509 0.0
H103 H 0.92311 0.57636 0.87139 0.0
H104 H 0.92442 1.01622 0.77496 0.0
H105 H 0.92304 0.99019 0.88431 0.0
H106 H 0.92373 0.90058 0.96507 0.0
H107 H 0.92684 0.77967 0.98987 0.0
Mn108 Mn 0.22879 0.76438 0.85237 0.0
Mn109 Mn 0.09169 0.77141 0.83778 0.0
C110 C 0.24164 0.80012 0.74604 0.0
C111 C 0.32383 0.70949 0.84166 0.0
C112 C 0.10994 0.86341 0.93588 0.0
O113 O 0.15854 0.69839 0.92878 0.0
O114 O 0.0807 0.69343 0.89705 0.0
C115 C 0.11054 0.64747 0.75461 0.0
N116 N 0.10274 0.71541 0.76233 0.0
C117 C 0.10714 0.72503 0.6526 0.0
C118 C 0.1157 0.6553 0.64323 0.0
C119 C 0.11732 0.61629 0.69448 0.0
C120 C 0.10191 0.75341 0.71287 0.0
H121 H 0.11264 0.61751 0.79345 0.0
C122 C 0.10685 0.67103 0.93102 0.0
O123 O 0.29204 0.75824 0.88662 0.0
O124 O 0.29904 0.69037 0.80419 0.0
N125 N 0.09951 0.8452 0.77924 0.0
C126 C 0.10004 0.91243 0.79114 0.0
C127 C 0.10102 0.95839 0.74323 0.0
C128 C 0.10074 0.93494 0.684 0.0
C129 C 0.10024 0.86559 0.67284 0.0
C130 C 0.09955 0.8221 0.7222 0.0
H131 H 0.09913 0.9311 0.83704 0.0
O132 O 0.28602 0.81881 0.76148 0.0
O133 O 0.19088 0.76535 0.79469 0.0
O134 O 0.17246 0.8474 0.91066 0.0
O135 O 0.07354 0.8332 0.9169 0.0
C136 C 0.10235 0.83798 0.61355 0.0
C137 C 0.10613 0.76773 0.60315 0.0
H138 H 0.12223 0.63139 0.59624 0.0
H139 H 0.12416 0.56239 0.6874 0.0
H140 H 0.10143 1.01176 0.75225 0.0
H141 H 0.10147 0.9706 0.64715 0.0
H142 H 0.10341 0.87065 0.5745 0.0
H143 H 0.10987 0.74715 0.55613 0.0
Mn144 Mn 0.70469 0.75339 0.31113 0.0
Mn145 Mn 0.74713 0.91325 0.25297 0.0
C146 C 0.64994 0.84409 0.38886 0.0
C147 C 0.6454 0.64944 0.34226 0.0
C148 C 0.84386 0.81741 0.26044 0.0
O149 O 0.74163 0.74714 0.20286 0.0
O150 O 0.75364 0.85832 0.17597 0.0
C151 C 0.6446 0.96105 0.22378 0.0
N152 N 0.67359 0.96542 0.26281 0.0
C153 C 0.61349 0.06853 0.31823 0.0
C154 C 0.58359 0.06525 0.27809 0.0
C155 C 0.5995 1.01156 0.23036 0.0
C156 C 0.65987 0.0178 0.30763 0.0
H157 H 0.65688 0.92014 0.18679 0.0
C158 C 0.75069 0.7965 0.16115 0.0
O159 O 0.70881 0.65565 0.32269 0.0
O160 O 0.6158 0.70388 0.33928 0.0
N161 N 0.73933 0.96931 0.32729 0.0
C162 C 0.77484 0.96617 0.35989 0.0
C163 C 0.76404 1.01572 0.41009 0.0
C164 C 0.71738 0.06834 0.42581 0.0
C165 C 0.68148 0.07057 0.39161 0.0
C166 C 0.69393 0.0194 0.34253 0.0
H167 H 0.81135 0.92641 0.34762 0.0
O168 O 0.65568 0.78708 0.41346 0.0
O169 O 0.68016 0.8471 0.32063 0.0
O170 O 0.79954 0.77214 0.29466 0.0
O171 O 0.83063 0.86929 0.23738 0.0
C172 C 0.63358 0.12134 0.40449 0.0
C173 C 0.59964 0.12035 0.36773 0.0
H174 H 0.54891 0.10394 0.28298 0.0
H175 H 0.57785 1.00931 0.19799 0.0
H176 H 0.79202 1.01366 0.43622 0.0
H177 H 0.7097 0.10674 0.46407 0.0
H178 H 0.62237 0.16126 0.44261 0.0
H179 H 0.56248 0.15926 0.37851 0.0
Mn180 Mn 0.3233 0.74914 0.22709 0.0
Mn181 Mn 0.28649 0.91576 0.2608 0.0
C182 C 0.38036 0.83083 0.13764 0.0
C183 C 0.37993 0.64338 0.20254 0.0
C184 C 0.18699 0.81475 0.26475 0.0
O185 O 0.28908 0.75743 0.33495 0.0
O186 O 0.27088 0.87019 0.34621 0.0
C187 C 0.38617 0.96723 0.29372 0.0
N188 N 0.36039 0.96769 0.25158 0.0
C189 C 0.4232 0.06837 0.19264 0.0
C190 C 0.4505 0.0687 0.23525 0.0
C191 C 0.4314 0.01824 0.28647 0.0
C192 C 0.37761 1.01669 0.20292 0.0
H193 H 0.37134 0.92903 0.33351 0.0
C194 C 0.27421 0.81322 0.37071 0.0
O195 O 0.31543 0.65015 0.22702 0.0
O196 O 0.41204 0.69865 0.19906 0.0
N197 N 0.30285 0.96348 0.17891 0.0
C198 C 0.27187 0.95562 0.14201 0.0
C199 C 0.28643 1.00106 0.08778 0.0
C200 C 0.33173 0.05472 0.07294 0.0
C201 C 0.36272 0.06209 0.11188 0.0
C202 C 0.34745 1.01421 0.16414 0.0
H203 H 0.23632 0.91506 0.1539 0.0
O204 O 0.37112 0.77069 0.12107 0.0
O205 O 0.35093 0.84251 0.20464 0.0
O206 O 0.22674 0.76464 0.24698 0.0
O207 O 0.20385 0.87314 0.27259 0.0
C208 C 0.40834 0.11475 0.1008 0.0
C209 C 0.43844 0.11799 0.14132 0.0
H210 H 0.48579 0.1078 0.2292 0.0
H211 H 0.45067 0.01891 0.32103 0.0
H212 H 0.26233 0.9951 0.05791 0.0
H213 H 0.34243 0.08963 0.03131 0.0
H214 H 0.4208 0.15288 0.06119 0.0
H215 H 0.47336 0.15875 0.13246 0.0
Mn216 Mn 0.30032 0.24849 0.68644 0.0
Mn217 Mn 0.43155 0.27706 0.70895 0.0
C218 C 0.28157 0.3032 0.78904 0.0
C219 C 0.20691 0.18814 0.6982 0.0
C220 C 0.41604 0.34939 0.59906 0.0
O221 O 0.37364 0.17644 0.62114 0.0
O222 O 0.44927 0.19304 0.65452 0.0
C223 C 0.41692 0.16322 0.80095 0.0
N224 N 0.42096 0.2305 0.78879 0.0
C225 C 0.42136 0.25435 0.89427 0.0
C226 C 0.42013 0.18524 0.90623 0.0
C227 C 0.41646 0.13948 0.86022 0.0
C228 C 0.42144 0.27501 0.83453 0.0
H229 H 0.41346 0.12812 0.76605 0.0
C230 C 0.42654 0.15888 0.62263 0.0
O231 O 0.24227 0.23065 0.64748 0.0
O232 O 0.22787 0.17728 0.74086 0.0
N233 N 0.41806 0.35727 0.76312 0.0
C234 C 0.41465 0.4223 0.74649 0.0
C235 C 0.41188 0.47438 0.79077 0.0
C236 C 0.41365 0.45922 0.85107 0.0
C237 C 0.41753 0.39197 0.86692 0.0
C238 C 0.4195 0.34217 0.82119 0.0
H239 H 0.41449 0.43449 0.6996 0.0
O240 O 0.23964 0.31329 0.76817 0.0
O241 O 0.33328 0.26476 0.74812 0.0
O242 O 0.35671 0.32644 0.61982 0.0
O243 O 0.45011 0.32984 0.62533 0.0
C244 C 0.41875 0.37231 0.9267 0.0
C245 C 0.42059 0.30349 0.94038 0.0
H246 H 0.4207 0.16701 0.95136 0.0
H247 H 0.41342 0.08607 0.87034 0.0
H248 H 0.40898 0.5261 0.77807 0.0
H249 H 0.41192 0.49959 0.88483 0.0
H250 H 0.41722 0.40967 0.96306 0.0
H251 H 0.41995 0.28874 0.98732 0.0
Mn252 Mn 0.71934 0.23907 0.84907 0.0
Mn253 Mn 0.5859 0.26418 0.83002 0.0
C254 C 0.73574 0.29135 0.74652 0.0
C255 C 0.81477 0.18112 0.83494 0.0
C256 C 0.60096 0.33722 0.94085 0.0
O257 O 0.64808 0.16554 0.91331 0.0
O258 O 0.5725 0.17874 0.87955 0.0
C259 C 0.61026 0.15307 0.72976 0.0
N260 N 0.59925 0.2195 0.74738 0.0
C261 C 0.60154 0.24538 0.64106 0.0
C262 C 0.61211 0.17719 0.62216 0.0
C263 C 0.61731 0.13091 0.66628 0.0
C264 C 0.59708 0.26473 0.70378 0.0
H265 H 0.61491 0.1176 0.76323 0.0
C266 C 0.59675 0.14534 0.91 0.0
O267 O 0.77889 0.22332 0.88646 0.0
O268 O 0.79313 0.16893 0.79296 0.0
N269 N 0.59515 0.34573 0.78038 0.0
C270 C 0.59433 0.41056 0.80103 0.0
C271 C 0.59265 0.46339 0.76063 0.0
C272 C 0.59084 0.44914 0.70001 0.0
C273 C 0.59163 0.38211 0.67983 0.0
C274 C 0.59386 0.33156 0.72185 0.0
H275 H 0.594 0.42209 0.84844 0.0
O276 O 0.77831 0.30303 0.76638 0.0
O277 O 0.68442 0.25405 0.78945 0.0
O278 O 0.66187 0.31674 0.91688 0.0
O279 O 0.56562 0.31519 0.91659 0.0
C280 C 0.59156 0.36348 0.6189 0.0
C281 C 0.59739 0.29516 0.599 0.0
H282 H 0.61722 0.16001 0.57341 0.0
H283 H 0.62658 0.07829 0.65145 0.0
H284 H 0.59179 0.51497 0.77674 0.0
H285 H 0.58921 0.49003 0.66919 0.0
H286 H 0.58948 0.40148 0.58564 0.0
H287 H 0.59997 0.28157 0.55054 0.0
H288 H 0.16269 0.02308 0.35251 0.0
H289 H 0.98607 0.14695 0.41249 0.0
H290 H 0.90907 0.05765 0.49072 0.0
H291 H 0.89309 0.94867 0.55351 0.0
H292 H 0.07269 0.8296 0.49352 0.0
H293 H 0.14658 0.91335 0.40653 0.0
C294 C 0.10729 0.03039 0.38169 0.0
C295 C 0.08046 0.09202 0.37668 0.0
C296 C 0.06356 0.97978 0.42801 0.0
C297 C 1.00838 0.10005 0.41491 0.0
C298 C 0.96424 0.04906 0.46022 0.0
C299 C 0.94826 0.9404 0.5199 0.0
C300 C 0.9774 0.88333 0.53106 0.0
C301 C 0.99131 0.98926 0.46885 0.0
C302 C 0.04903 0.8737 0.4874 0.0
C303 C 0.09149 0.92125 0.43684 0.0
H304 H 0.9738 0.88912 0.03118 0.0
H305 H 0.17522 0.9694 0.95576 0.0
H306 H 0.12259 0.06872 0.0325 0.0
H307 H 0.01762 0.13681 0.11647 0.0
H308 H 0.81741 0.05096 0.19307 0.0
H309 H 0.87103 0.95114 0.12064 0.0
C310 C 1.00633 0.92851 0.03097 0.0
C311 C 0.07846 0.92179 0.98662 0.0
C312 C 0.97566 0.98495 0.07606 0.0
C313 C 0.11955 0.97272 0.98922 0.0
C314 C 0.08937 0.02981 0.03314 0.0
C315 C 0.98578 0.09566 0.11851 0.0
C316 C 0.91316 0.10226 0.16053 0.0
C317 C 0.01723 0.037 0.07642 0.0
C318 C 0.87315 0.04803 0.16179 0.0
C319 C 0.90381 0.99058 0.11996 0.0
H320 H 0.55078 0.37269 0.50162 0.0
H321 H 0.34856 0.44998 0.57593 0.0
H322 H 0.4001 0.54828 0.49823 0.0
H323 H 0.50494 0.618 0.41666 0.0
H324 H 0.70527 0.53413 0.34395 0.0
H325 H 0.65156 0.43472 0.4148 0.0
C326 C 0.51784 0.41081 0.50062 0.0
C327 C 0.44602 0.40426 0.54527 0.0
C328 C 0.54766 0.46694 0.45618 0.0
C329 C 0.40418 0.4536 0.54202 0.0
C330 C 0.4337 0.51012 0.49781 0.0
C331 C 0.53688 0.57718 0.41474 0.0
C332 C 0.60938 0.58458 0.37493 0.0
C333 C 0.50575 0.51819 0.45546 0.0
C334 C 0.64956 0.53086 0.37387 0.0
C335 C 0.61914 0.47346 0.41438 0.0
H336 H 0.51957 0.60656 0.12671 0.0
H337 H 0.31655 0.53103 0.19857 0.0
H338 H 0.36611 0.43117 0.12629 0.0
H339 H 0.46567 0.36574 0.03804 0.0
H340 H 0.6701 0.43492 0.96591 0.0
H341 H 0.62165 0.53365 0.0445 0.0
C342 C 0.48617 0.56741 0.12813 0.0
C343 C 0.41397 0.57744 0.16864 0.0
C344 C 0.51518 0.5079 0.08644 0.0
C345 C 0.37203 0.52566 0.16883 0.0
C346 C 0.40029 0.46793 0.12709 0.0
C347 C 0.49978 0.40219 0.03951 0.0
C348 C 0.5715 0.39296 0.99508 0.0
C349 C 0.47162 0.45881 0.08485 0.0
C350 C 0.6146 0.44038 0.99935 0.0
C351 C 0.58686 0.49726 0.04418 0.0
H352 H 0.97773 0.42208 0.13691 0.0
H353 H 0.88627 0.39217 1.01435 0.0
H354 H 0.95477 0.48536 0.93613 0.0
H355 H 0.0292 0.58185 0.91248 0.0
H356 H 0.11881 0.61523 0.03675 0.0
H357 H 0.06251 0.51298 0.10474 0.0
C358 C 0.97342 0.43574 0.09254 0.0
C359 C 0.92549 0.40231 0.08247 0.0
C360 C 1.01195 0.4899 0.04897 0.0
C361 C 0.92206 0.41815 0.02349 0.0
C362 C 0.96081 0.47159 0.9793 0.0
C363 C 0.03646 0.56738 0.9546 0.0
C364 C 0.07677 0.60754 0.97076 0.0
C365 C 1.00378 0.50923 0.99338 0.0
C366 C 0.08742 0.58597 0.02379 0.0
C367 C 0.05537 0.52745 0.06249 0.0
H368 H 0.12525 0.39442 0.51222 0.0
H369 H 0.05149 0.38395 0.37214 0.0
H370 H 0.97239 0.47747 0.4355 0.0
H371 H 0.93451 0.57161 0.52202 0.0
H372 H 1.00752 0.57759 0.66346 0.0
H373 H 0.07652 0.47859 0.60805 0.0
C374 C 0.09095 0.41213 0.49663 0.0
C375 C 0.09512 0.38418 0.43699 0.0
C376 C 0.04638 0.46651 0.53247 0.0
C377 C 0.04996 0.4064 0.41734 0.0
C378 C 1.00479 0.4598 0.45337 0.0
C379 C 0.96471 0.55065 0.54125 0.0
C380 C 0.96738 0.58397 0.59528 0.0
C381 C 1.00426 0.49201 0.50954 0.0
C382 C 1.00614 0.55508 0.62019 0.0
C383 C 0.04549 0.49762 0.58898 0.0
H384 H 0.60026 0.06118 1.00704 0.0
H385 H 0.52126 0.07543 0.87132 0.0
H386 H 0.45603 0.97361 0.92044 0.0
H387 H 0.40787 0.88734 1.01341 0.0
H388 H 0.48339 0.87229 0.15155 0.0
H389 H 0.56405 0.96423 0.08917 0.0
C390 C 0.56957 0.0415 0.98762 0.0
C391 C 0.56421 0.0781 0.9372 0.0
C392 C 0.53119 0.98165 1.01648 0.0
C393 C 0.52481 0.05053 0.912 0.0
C394 C 0.48765 0.99133 0.93952 0.0
C395 C 0.44343 0.90304 0.02825 0.0
C396 C 0.43892 0.87412 0.0875 0.0
C397 C 0.48842 0.95753 0.99351 0.0
C398 C 0.4854 0.89471 0.10637 0.0
C399 C 0.53141 0.94756 0.07097 0.0
H400 H 0.62565 0.9075 0.50881 0.0
H401 H 0.55049 0.88915 0.37047 0.0
H402 H 0.46995 0.98214 0.43243 0.0
H403 H 0.42997 0.07794 0.51837 0.0
H404 H 0.50369 0.0902 0.65893 0.0
H405 H 0.5751 0.9925 0.60382 0.0
C406 C 0.59078 0.92329 0.49325 0.0
C407 C 0.59517 0.89315 0.43426 0.0
C408 C 0.54503 0.97726 0.52862 0.0
C409 C 0.54901 0.91311 0.41501 0.0
C410 C 0.50286 0.96626 0.45041 0.0
C411 C 0.46103 0.05877 0.53737 0.0
C412 C 0.46308 0.09383 0.59111 0.0
C413 C 0.50199 1.0005 0.50591 0.0
C414 C 0.50288 0.0668 0.61571 0.0
C415 C 0.54362 1.00999 0.58469 0.0
H416 H 0.28438 0.71302 0.45171 0.0
H417 H 0.253 0.92708 0.44842 0.0
H418 H 0.25575 0.94342 0.55336 0.0
H419 H 0.25554 0.89826 0.65488 0.0
H420 H 0.27103 0.6846 0.67077 0.0
H421 H 0.28649 0.66739 0.55414 0.0
C422 C 0.27767 0.76304 0.47419 0.0
C423 C 0.26869 0.81814 0.44071 0.0
C424 C 0.27669 0.77279 0.53773 0.0
C425 C 0.26035 0.88281 0.47149 0.0
C426 C 0.26229 0.8929 0.53201 0.0
C427 C 0.26369 0.84824 0.63193 0.0
C428 C 0.26159 0.7929 0.6712 0.0
C429 C 0.26912 0.83839 0.56651 0.0
C430 C 0.27191 0.72806 0.64131 0.0
C431 C 0.28047 0.71812 0.57475 0.0
H432 H 0.76523 0.70785 0.88036 0.0
H433 H 0.76903 0.92254 0.85452 0.0
H434 H 0.75474 0.93893 0.97103 0.0
H435 H 0.7579 0.89156 0.06991 0.0
H436 H 0.73716 0.67752 0.10554 0.0
H437 H 0.74508 0.66081 0.99248 0.0
C438 C 0.76171 0.75824 0.90102 0.0
C439 C 0.77026 0.81413 0.85855 0.0
C440 C 0.75336 0.76693 0.96771 0.0
C441 C 0.76354 0.87908 0.88613 0.0
C442 C 0.75586 0.88823 0.95235 0.0
C443 C 0.7545 0.84092 0.0539 0.0
C444 C 0.75181 0.78505 0.09436 0.0
C445 C 0.75377 0.83241 0.99192 0.0
C446 C 0.7448 0.72068 0.073 0.0
C447 C 0.74741 0.71142 1.00931 0.0
H448 H 0.78552 0.22364 0.44562 0.0
H449 H 0.74371 0.43689 0.45753 0.0
H450 H 0.74451 0.44716 0.56435 0.0
H451 H 0.74585 0.39595 0.66294 0.0
H452 H 0.77485 0.18233 0.66119 0.0
H453 H 0.79047 0.17234 0.54394 0.0
C454 C 0.77584 0.2721 0.47195 0.0
C455 C 0.76449 0.32886 0.4423 0.0
C456 C 0.77433 0.27817 0.53607 0.0
C457 C 0.75269 0.3915 0.4778 0.0
C458 C 0.75363 0.39808 0.53932 0.0
C459 C 0.75738 0.34769 0.63585 0.0
C460 C 0.75924 0.29015 0.67031 0.0
C461 C 0.76318 0.34181 0.56982 0.0
C462 C 0.77332 0.22751 0.63525 0.0
C463 C 0.78166 0.22162 0.56846 0.0
H464 H 0.24744 0.38995 0.07676 0.0
H465 H 0.25125 0.17469 0.09793 0.0
H466 H 0.25312 0.15912 0.98805 0.0
H467 H 0.26302 0.20734 0.88139 0.0
H468 H 0.25311 0.42187 0.86369 0.0
H469 H 0.24096 0.43731 0.97936 0.0
C470 C 0.24819 0.33938 0.05806 0.0
C471 C 0.25113 0.28336 0.09508 0.0
C472 C 0.2471 0.33093 0.99614 0.0
C473 C 0.25108 0.21858 0.06972 0.0
C474 C 0.25119 0.20972 1.00739 0.0
C475 C 0.25707 0.25742 0.90361 0.0
C476 C 0.26061 0.31366 0.86377 0.0
C477 C 0.25063 0.26557 0.96949 0.0
C478 C 0.25119 0.37813 0.89332 0.0
C479 C 0.24476 0.38678 0.95906 0.0
H480 H 0.43864 0.39818 0.22591 0.0
H481 H 0.38465 0.19758 0.31114 0.0
H482 H 0.48508 0.19504 0.32043 0.0
H483 H 0.59503 0.24632 0.295 0.0
H484 H 0.6349 0.45357 0.22918 0.0
H485 H 0.5368 0.45467 0.21702 0.0
C486 C 0.44964 0.35283 0.24463 0.0
C487 C 0.40479 0.2972 0.26549 0.0
C488 C 0.50713 0.35176 0.25072 0.0
C489 C 0.41911 0.24033 0.29237 0.0
C490 C 0.47711 0.23855 0.29722 0.0
C491 C 0.58184 0.29173 0.27864 0.0
C492 C 0.62399 0.34905 0.2613 0.0
C493 C 0.52236 0.29345 0.27538 0.0
C494 C 0.60506 0.40798 0.2413 0.0
C495 C 0.5485 0.40888 0.23447 0.0
H496 H 0.60001 0.67347 0.82758 0.0
H497 H 0.67921 0.65936 0.60308 0.0
H498 H 0.56181 0.65119 0.62971 0.0
H499 H 0.43702 0.66858 0.71549 0.0
H500 H 0.35929 0.69564 0.93858 0.0
H501 H 0.47467 0.67739 0.91446 0.0
C502 C 0.59154 0.66655 0.78468 0.0
C503 C 0.64815 0.66717 0.71346 0.0
C504 C 0.52372 0.66537 0.8003 0.0
C505 C 0.6364 0.65918 0.65833 0.0
C506 C 0.56923 0.65492 0.67355 0.0
C507 C 0.44517 0.66857 0.75895 0.0
C508 C 0.38982 0.68362 0.82868 0.0
C509 C 0.51242 0.66105 0.74413 0.0
C510 C 0.40119 0.68439 0.88443 0.0
C511 C 0.46724 0.67419 0.8706 0.0
H512 H 0.15528 0.83394 0.16606 0.0
H513 H 0.06705 0.77623 0.38435 0.0
H514 H 0.95301 0.76585 0.40171 0.0
H515 H 0.87721 0.77923 0.35553 0.0
H516 H 0.96563 0.84331 0.13918 0.0
H517 H 0.08054 0.8459 0.11965 0.0
C518 C 0.11098 0.81915 0.21734 0.0
C519 C 0.11913 0.8057 0.27399 0.0
C520 C 0.04561 0.81486 0.22703 0.0
C521 C 0.06166 0.78626 0.34007 0.0
C522 C 0.99657 0.78056 0.34991 0.0
C523 C 0.92189 0.793 0.30403 0.0
C524 C 0.91324 0.81195 0.24871 0.0
C525 C 0.9877 0.79537 0.29392 0.0
C526 C 0.97129 0.83024 0.18253 0.0
C527 C 0.03688 0.83118 0.17141 0.0
H528 H 0.08968 0.1564 0.82568 0.0
H529 H 0.17449 0.16537 0.5998 0.0
H530 H 0.05958 0.15183 0.62146 0.0
H531 H 0.93334 0.15775 0.70563 0.0
H532 H 0.84825 0.15534 0.93173 0.0
H533 H 0.96378 0.14487 0.90925 0.0
C534 C 0.08316 0.15332 0.78117 0.0
C535 C 0.14059 0.16236 0.71125 0.0
C536 C 0.0163 0.14775 0.79421 0.0
C537 C 0.13111 0.1589 0.65418 0.0
C538 C 0.06525 0.15151 0.66654 0.0
C539 C 0.94006 0.15285 0.74984 0.0
C540 C 0.88225 0.1575 0.82025 0.0
C541 C 1.0071 0.14896 0.73649 0.0
C542 C 0.89191 0.15201 0.87702 0.0
C543 C 0.95809 0.14638 0.8642 0.0
loop_
_geom_bond_atom_site_label_1
_geom_bond_atom_site_label_2
_geom_bond_distance
_geom_bond_site_symmetry_2
_ccdc_geom_bond_type
Mn0 O5 2.095 . S
Mn0 O15 2.162 . S
Mn0 O16 2.297 . S
Mn0 O24 2.385 . S
Mn0 O25 2.209 . S
Mn0 O26 2.094 . S
Mn1 O6 2.121 . S
Mn1 N8 2.257 . S
Mn1 N17 2.282 . S
Mn1 O25 2.215 . S
Mn1 O27 2.117 . S
C2 O24 1.234 . S
C2 O25 1.283 . S
C3 O15 1.281 . S
C3 O16 1.236 . S
C4 O26 1.240 . S
C4 O27 1.264 . S
O5 Mn0 2.095 . S
O5 C14 1.250 . S
O6 Mn1 2.121 . S
O6 C14 1.258 . S
C7 N8 1.326 . S
C7 C11 1.460 . S
C7 H13 0.929 . S
N8 Mn1 2.257 . S
N8 C7 1.326 . S
N8 C12 1.362 . S
C9 C10 1.258 . S
C9 C12 1.431 . S
C9 C29 1.449 . S
C10 C9 1.258 . S
C10 C11 1.477 . S
C10 H30 0.931 . S
C11 C7 1.460 . S
C11 C10 1.477 . S
C11 H31 0.930 . S
C12 N8 1.362 . S
C12 C9 1.431 . S
C12 C22 1.476 . S
H13 C7 0.929 . S
C14 O5 1.250 . S
C14 O6 1.258 . S
O15 Mn0 2.162 . S
O15 C3 1.281 . S
O16 Mn0 2.297 . S
O16 C3 1.236 . S
N17 Mn1 2.282 . S
N17 C18 1.328 . S
N17 C22 1.318 . S
C18 N17 1.328 . S
C18 C19 1.457 . S
C18 H23 0.929 . S
C19 C18 1.457 . S
C19 C20 1.291 . S
C19 H32 0.931 . S
C20 C19 1.291 . S
C20 C21 1.373 . S
C20 H33 0.929 . S
C21 C20 1.373 . S
C21 C22 1.396 . S
C21 C28 1.403 . S
C22 C12 1.476 . S
C22 N17 1.318 . S
C22 C21 1.396 . S
H23 C18 0.929 . S
O24 Mn0 2.385 . S
O24 C2 1.234 . S
O25 Mn0 2.209 . S
O25 Mn1 2.215 . S
O25 C2 1.283 . S
O26 Mn0 2.094 . S
O26 C4 1.240 . S
O27 Mn1 2.117 . S
O27 C4 1.264 . S
C28 C21 1.403 . S
C28 C29 1.399 . S
C28 H34 0.929 . S
C29 C9 1.449 . S
C29 C28 1.399 . S
C29 H35 0.930 . S
H30 C10 0.931 . S
H31 C11 0.930 . S
H32 C19 0.931 . S
H33 C20 0.929 . S
H34 C28 0.929 . S
H35 C29 0.930 . S
Mn36 O41 2.095 . S
Mn36 O51 2.162 . S
Mn36 O52 2.297 . S
Mn36 O60 2.385 . S
Mn36 O61 2.209 . S
Mn36 O62 2.094 . S
Mn37 O42 2.121 . S
Mn37 N44 2.257 . S
Mn37 N53 2.282 . S
Mn37 O61 2.215 . S
Mn37 O63 2.117 . S
C38 O60 1.234 . S
C38 O61 1.283 . S
C39 O51 1.281 . S
C39 O52 1.236 . S
C40 O62 1.240 . S
C40 O63 1.264 . S
O41 Mn36 2.095 . S
O41 C50 1.250 . S
O42 Mn37 2.121 . S
O42 C50 1.258 . S
C43 N44 1.326 . S
C43 C47 1.460 . S
C43 H49 0.929 . S
N44 Mn37 2.257 . S
N44 C43 1.326 . S
N44 C48 1.362 . S
C45 C46 1.258 . S
C45 C48 1.431 . S
C45 C65 1.449 . S
C46 C45 1.258 . S
C46 C47 1.477 . S
C46 H66 0.931 . S
C47 C43 1.460 . S
C47 C46 1.477 . S
C47 H67 0.930 . S
C48 N44 1.362 . S
C48 C45 1.431 . S
C48 C58 1.476 . S
H49 C43 0.929 . S
C50 O41 1.250 . S
C50 O42 1.258 . S
O51 Mn36 2.162 . S
O51 C39 1.281 . S
O52 Mn36 2.297 . S
O52 C39 1.236 . S
N53 Mn37 2.282 . S
N53 C54 1.328 . S
N53 C58 1.318 . S
C54 N53 1.328 . S
C54 C55 1.457 . S
C54 H59 0.929 . S
C55 C54 1.457 . S
C55 C56 1.291 . S
C55 H68 0.931 . S
C56 C55 1.291 . S
C56 C57 1.373 . S
C56 H69 0.929 . S
C57 C56 1.373 . S
C57 C58 1.396 . S
C57 C64 1.403 . S
C58 C48 1.476 . S
C58 N53 1.318 . S
C58 C57 1.396 . S
H59 C54 0.929 . S
O60 Mn36 2.385 . S
O60 C38 1.234 . S
O61 Mn36 2.209 . S
O61 Mn37 2.215 . S
O61 C38 1.283 . S
O62 Mn36 2.094 . S
O62 C40 1.240 . S
O63 Mn37 2.117 . S
O63 C40 1.264 . S
C64 C57 1.403 . S
C64 C65 1.399 . S
C64 H70 0.929 . S
C65 C45 1.449 . S
C65 C64 1.399 . S
C65 H71 0.930 . S
H66 C46 0.931 . S
H67 C47 0.930 . S
H68 C55 0.931 . S
H69 C56 0.929 . S
H70 C64 0.929 . S
H71 C65 0.930 . S
Mn72 O77 2.095 . S
Mn72 O87 2.162 . S
Mn72 O88 2.297 . S
Mn72 O96 2.385 . S
Mn72 O97 2.209 . S
Mn72 O98 2.094 . S
Mn73 O78 2.121 . S
Mn73 N80 2.257 . S
Mn73 N89 2.282 . S
Mn73 O97 2.215 . S
Mn73 O99 2.117 . S
C74 O96 1.234 . S
C74 O97 1.283 . S
C75 O87 1.281 . S
C75 O88 1.236 . S
C76 O98 1.240 . S
C76 O99 1.264 . S
O77 Mn72 2.095 . S
O77 C86 1.250 . S
O78 Mn73 2.121 . S
O78 C86 1.258 . S
C79 N80 1.326 . S
C79 C83 1.460 . S
C79 H85 0.929 . S
N80 Mn73 2.257 . S
N80 C79 1.326 . S
N80 C84 1.362 . S
C81 C82 1.258 . S
C81 C84 1.431 . S
C81 C101 1.449 . S
C82 C81 1.258 . S
C82 C83 1.477 . S
C82 H102 0.931 . S
C83 C79 1.460 . S
C83 C82 1.477 . S
C83 H103 0.930 . S
C84 N80 1.362 . S
C84 C81 1.431 . S
C84 C94 1.476 . S
H85 C79 0.929 . S
C86 O77 1.250 . S
C86 O78 1.258 . S
O87 Mn72 2.162 . S
O87 C75 1.281 . S
O88 Mn72 2.297 . S
O88 C75 1.236 . S
N89 Mn73 2.282 . S
N89 C90 1.328 . S
N89 C94 1.318 . S
C90 N89 1.328 . S
C90 C91 1.457 . S
C90 H95 0.929 . S
C91 C90 1.457 . S
C91 C92 1.291 . S
C91 H104 0.931 . S
C92 C91 1.291 . S
C92 C93 1.373 . S
C92 H105 0.929 . S
C93 C92 1.373 . S
C93 C94 1.396 . S
C93 C100 1.403 . S
C94 C84 1.476 . S
C94 N89 1.318 . S
C94 C93 1.396 . S
H95 C90 0.929 . S
O96 Mn72 2.385 . S
O96 C74 1.234 . S
O97 Mn72 2.209 . S
O97 Mn73 2.215 . S
O97 C74 1.283 . S
O98 Mn72 2.094 . S
O98 C76 1.240 . S
O99 Mn73 2.117 . S
O99 C76 1.264 . S
C100 C93 1.403 . S
C100 C101 1.399 . S
C100 H106 0.929 . S
C101 C81 1.449 . S
C101 C100 1.399 . S
C101 H107 0.930 . S
H102 C82 0.931 . S
H103 C83 0.930 . S
H104 C91 0.931 . S
H105 C92 0.929 . S
H106 C100 0.929 . S
H107 C101 0.930 . S
Mn108 O113 2.095 . S
Mn108 O123 2.162 . S
Mn108 O124 2.297 . S
Mn108 O132 2.385 . S
Mn108 O133 2.209 . S
Mn108 O134 2.094 . S
Mn109 O114 2.121 . S
Mn109 N116 2.257 . S
Mn109 N125 2.282 . S
Mn109 O133 2.215 . S
Mn109 O135 2.117 . S
C110 O132 1.234 . S
C110 O133 1.283 . S
C111 O123 1.281 . S
C111 O124 1.236 . S
C112 O134 1.240 . S
C112 O135 1.264 . S
O113 Mn108 2.095 . S
O113 C122 1.250 . S
O114 Mn109 2.121 . S
O114 C122 1.258 . S
C115 N116 1.326 . S
C115 C119 1.460 . S
C115 H121 0.929 . S
N116 Mn109 2.257 . S
N116 C115 1.326 . S
N116 C120 1.362 . S
C117 C118 1.258 . S
C117 C120 1.431 . S
C117 C137 1.449 . S
C118 C117 1.258 . S
C118 C119 1.477 . S
C118 H138 0.931 . S
C119 C115 1.460 . S
C119 C118 1.477 . S
C119 H139 0.930 . S
C120 N116 1.362 . S
C120 C117 1.431 . S
C120 C130 1.476 . S
H121 C115 0.929 . S
C122 O113 1.250 . S
C122 O114 1.258 . S
O123 Mn108 2.162 . S
O123 C111 1.281 . S
O124 Mn108 2.297 . S
O124 C111 1.236 . S
N125 Mn109 2.282 . S
N125 C126 1.328 . S
N125 C130 1.318 . S
C126 N125 1.328 . S
C126 C127 1.457 . S
C126 H131 0.929 . S
C127 C126 1.457 . S
C127 C128 1.291 . S
C127 H140 0.931 . S
C128 C127 1.291 . S
C128 C129 1.373 . S
C128 H141 0.929 . S
C129 C128 1.373 . S
C129 C130 1.396 . S
C129 C136 1.403 . S
C130 C120 1.476 . S
C130 N125 1.318 . S
C130 C129 1.396 . S
H131 C126 0.929 . S
O132 Mn108 2.385 . S
O132 C110 1.234 . S
O133 Mn108 2.209 . S
O133 Mn109 2.215 . S
O133 C110 1.283 . S
O134 Mn108 2.094 . S
O134 C112 1.240 . S
O135 Mn109 2.117 . S
O135 C112 1.264 . S
C136 C129 1.403 . S
C136 C137 1.399 . S
C136 H142 0.929 . S
C137 C117 1.449 . S
C137 C136 1.399 . S
C137 H143 0.930 . S
H138 C118 0.931 . S
H139 C119 0.930 . S
H140 C127 0.931 . S
H141 C128 0.929 . S
H142 C136 0.929 . S
H143 C137 0.930 . S
Mn144 O149 2.095 . S
Mn144 O159 2.162 . S
Mn144 O160 2.297 . S
Mn144 O168 2.385 . S
Mn144 O169 2.209 . S
Mn144 O170 2.094 . S
Mn145 O150 2.121 . S
Mn145 N152 2.257 . S
Mn145 N161 2.282 . S
Mn145 O169 2.215 . S
Mn145 O171 2.117 . S
C146 O168 1.234 . S
C146 O169 1.283 . S
C147 O159 1.281 . S
C147 O160 1.236 . S
C148 O170 1.240 . S
C148 O171 1.264 . S
O149 Mn144 2.095 . S
O149 C158 1.250 . S
O150 Mn145 2.121 . S
O150 C158 1.258 . S
C151 N152 1.326 . S
C151 C155 1.460 1_565 S
C151 H157 0.929 . S
N152 Mn145 2.257 . S
N152 C151 1.326 . S
N152 C156 1.362 1_565 S
C153 C154 1.258 . S
C153 C156 1.431 . S
C153 C173 1.449 . S
C154 C153 1.258 . S
C154 C155 1.477 . S
C154 H174 0.931 . S
C155 C151 1.460 1_545 S
C155 C154 1.477 . S
C155 H175 0.930 . S
C156 N152 1.362 1_545 S
C156 C153 1.431 . S
C156 C166 1.476 . S
H157 C151 0.929 . S
C158 O149 1.250 . S
C158 O150 1.258 . S
O159 Mn144 2.162 . S
O159 C147 1.281 . S
O160 Mn144 2.297 . S
O160 C147 1.236 . S
N161 Mn145 2.282 . S
N161 C162 1.328 . S
N161 C166 1.318 1_565 S
C162 N161 1.328 . S
C162 C163 1.457 1_565 S
C162 H167 0.929 . S
C163 C162 1.457 1_545 S
C163 C164 1.291 . S
C163 H176 0.931 . S
C164 C163 1.291 . S
C164 C165 1.373 . S
C164 H177 0.929 . S
C165 C164 1.373 . S
C165 C166 1.396 . S
C165 C172 1.403 . S
C166 C156 1.476 . S
C166 N161 1.318 1_545 S
C166 C165 1.396 . S
H167 C162 0.929 . S
O168 Mn144 2.385 . S
O168 C146 1.234 . S
O169 Mn144 2.209 . S
O169 Mn145 2.215 . S
O169 C146 1.283 . S
O170 Mn144 2.094 . S
O170 C148 1.240 . S
O171 Mn145 2.117 . S
O171 C148 1.264 . S
C172 C165 1.403 . S
C172 C173 1.399 . S
C172 H178 0.929 . S
C173 C153 1.449 . S
C173 C172 1.399 . S
C173 H179 0.930 . S
H174 C154 0.931 . S
H175 C155 0.930 . S
H176 C163 0.931 . S
H177 C164 0.929 . S
H178 C172 0.929 . S
H179 C173 0.930 . S
Mn180 O185 2.095 . S
Mn180 O195 2.162 . S
Mn180 O196 2.297 . S
Mn180 O204 2.385 . S
Mn180 O205 2.209 . S
Mn180 O206 2.094 . S
Mn181 O186 2.121 . S
Mn181 N188 2.257 . S
Mn181 N197 2.282 . S
Mn181 O205 2.215 . S
Mn181 O207 2.117 . S
C182 O204 1.234 . S
C182 O205 1.283 . S
C183 O195 1.281 . S
C183 O196 1.236 . S
C184 O206 1.240 . S
C184 O207 1.264 . S
O185 Mn180 2.095 . S
O185 C194 1.250 . S
O186 Mn181 2.121 . S
O186 C194 1.258 . S
C187 N188 1.326 . S
C187 C191 1.460 1_565 S
C187 H193 0.929 . S
N188 Mn181 2.257 . S
N188 C187 1.326 . S
N188 C192 1.362 1_565 S
C189 C190 1.258 . S
C189 C192 1.431 . S
C189 C209 1.449 . S
C190 C189 1.258 . S
C190 C191 1.477 . S
C190 H210 0.931 . S
C191 C187 1.460 1_545 S
C191 C190 1.477 . S
C191 H211 0.930 . S
C192 N188 1.362 1_545 S
C192 C189 1.431 . S
C192 C202 1.476 . S
H193 C187 0.929 . S
C194 O185 1.250 . S
C194 O186 1.258 . S
O195 Mn180 2.162 . S
O195 C183 1.281 . S
O196 Mn180 2.297 . S
O196 C183 1.236 . S
N197 Mn181 2.282 . S
N197 C198 1.328 . S
N197 C202 1.318 1_565 S
C198 N197 1.328 . S
C198 C199 1.457 1_565 S
C198 H203 0.929 . S
C199 C198 1.457 1_545 S
C199 C200 1.291 . S
C199 H212 0.931 . S
C200 C199 1.291 . S
C200 C201 1.373 . S
C200 H213 0.929 . S
C201 C200 1.373 . S
C201 C202 1.396 . S
C201 C208 1.403 . S
C202 C192 1.476 . S
C202 N197 1.318 1_545 S
C202 C201 1.396 . S
H203 C198 0.929 . S
O204 Mn180 2.385 . S
O204 C182 1.234 . S
O205 Mn180 2.209 . S
O205 Mn181 2.215 . S
O205 C182 1.283 . S
O206 Mn180 2.094 . S
O206 C184 1.240 . S
O207 Mn181 2.117 . S
O207 C184 1.264 . S
C208 C201 1.403 . S
C208 C209 1.399 . S
C208 H214 0.929 . S
C209 C189 1.449 . S
C209 C208 1.399 . S
C209 H215 0.930 . S
H210 C190 0.931 . S
H211 C191 0.930 . S
H212 C199 0.931 . S
H213 C200 0.929 . S
H214 C208 0.929 . S
H215 C209 0.930 . S
Mn216 O221 2.095 . S
Mn216 O231 2.162 . S
Mn216 O232 2.297 . S
Mn216 O240 2.385 . S
Mn216 O241 2.209 . S
Mn216 O242 2.094 . S
Mn217 O222 2.121 . S
Mn217 N224 2.257 . S
Mn217 N233 2.282 . S
Mn217 O241 2.215 . S
Mn217 O243 2.117 . S
C218 O240 1.234 . S
C218 O241 1.283 . S
C219 O231 1.281 . S
C219 O232 1.236 . S
C220 O242 1.240 . S
C220 O243 1.264 . S
O221 Mn216 2.095 . S
O221 C230 1.250 . S
O222 Mn217 2.121 . S
O222 C230 1.258 . S
C223 N224 1.326 . S
C223 C227 1.460 . S
C223 H229 0.929 . S
N224 Mn217 2.257 . S
N224 C223 1.326 . S
N224 C228 1.362 . S
C225 C226 1.258 . S
C225 C228 1.431 . S
C225 C245 1.449 . S
C226 C225 1.258 . S
C226 C227 1.477 . S
C226 H246 0.931 . S
C227 C223 1.460 . S
C227 C226 1.477 . S
C227 H247 0.924 1_545 S
C228 N224 1.362 . S
C228 C225 1.431 . S
C228 C238 1.476 . S
H229 C223 0.929 . S
C230 O221 1.250 . S
C230 O222 1.258 . S
O231 Mn216 2.162 . S
O231 C219 1.281 . S
O232 Mn216 2.297 . S
O232 C219 1.236 . S
N233 Mn217 2.282 . S
N233 C234 1.328 . S
N233 C238 1.318 . S
C234 N233 1.328 . S
C234 C235 1.457 . S
C234 H239 0.929 . S
C235 C234 1.457 . S
C235 C236 1.291 . S
C235 H248 0.931 . S
C236 C235 1.291 . S
C236 C237 1.373 . S
C236 H249 0.929 . S
C237 C236 1.373 . S
C237 C238 1.396 . S
C237 C244 1.403 . S
C238 C228 1.476 . S
C238 N233 1.318 . S
C238 C237 1.396 . S
H239 C234 0.929 . S
O240 Mn216 2.385 . S
O240 C218 1.234 . S
O241 Mn216 2.209 . S
O241 Mn217 2.215 . S
O241 C218 1.283 . S
O242 Mn216 2.094 . S
O242 C220 1.240 . S
O243 Mn217 2.117 . S
O243 C220 1.264 . S
C244 C237 1.403 . S
C244 C245 1.399 . S
C244 H250 0.929 . S
C245 C225 1.449 . S
C245 C244 1.399 . S
C245 H251 0.930 . S
H246 C226 0.931 . S
H247 C227 0.924 1_565 S
H248 C235 0.931 . S
H249 C236 0.929 . S
H250 C244 0.929 . S
H251 C245 0.930 . S
Mn252 O257 2.095 . S
Mn252 O267 2.162 . S
Mn252 O268 2.297 . S
Mn252 O276 2.385 . S
Mn252 O277 2.209 . S
Mn252 O278 2.094 . S
Mn253 O258 2.121 . S
Mn253 N260 2.257 . S
Mn253 N269 2.282 . S
Mn253 O277 2.215 . S
Mn253 O279 2.117 . S
C254 O276 1.234 . S
C254 O277 1.283 . S
C255 O267 1.281 . S
C255 O268 1.236 . S
C256 O278 1.240 . S
C256 O279 1.264 . S
O257 Mn252 2.095 . S
O257 C266 1.250 . S
O258 Mn253 2.121 . S
O258 C266 1.258 . S
C259 N260 1.326 . S
C259 C263 1.460 . S
C259 H265 0.929 . S
N260 Mn253 2.257 . S
N260 C259 1.326 . S
N260 C264 1.362 . S
C261 C262 1.258 . S
C261 C264 1.431 . S
C261 C281 1.449 . S
C262 C261 1.258 . S
C262 C263 1.477 . S
C262 H282 0.931 . S
C263 C259 1.460 . S
C263 C262 1.477 . S
C263 H283 0.924 1_545 S
C264 N260 1.362 . S
C264 C261 1.431 . S
C264 C274 1.476 . S
H265 C259 0.929 . S
C266 O257 1.250 . S
C266 O258 1.258 . S
O267 Mn252 2.162 . S
O267 C255 1.281 . S
O268 Mn252 2.297 . S
O268 C255 1.236 . S
N269 Mn253 2.282 . S
N269 C270 1.328 . S
N269 C274 1.318 . S
C270 N269 1.328 . S
C270 C271 1.457 . S
C270 H275 0.929 . S
C271 C270 1.457 . S
C271 C272 1.291 . S
C271 H284 0.931 . S
C272 C271 1.291 . S
C272 C273 1.373 . S
C272 H285 0.929 . S
C273 C272 1.373 . S
C273 C274 1.396 . S
C273 C280 1.403 . S
C274 C264 1.476 . S
C274 N269 1.318 . S
C274 C273 1.396 . S
H275 C270 0.929 . S
O276 Mn252 2.385 . S
O276 C254 1.234 . S
O277 Mn252 2.209 . S
O277 Mn253 2.215 . S
O277 C254 1.283 . S
O278 Mn252 2.094 . S
O278 C256 1.240 . S
O279 Mn253 2.117 . S
O279 C256 1.264 . S
C280 C273 1.403 . S
C280 C281 1.399 . S
C280 H286 0.929 . S
C281 C261 1.449 . S
C281 C280 1.399 . S
C281 H287 0.930 . S
H282 C262 0.931 . S
H283 C263 0.924 1_565 S
H284 C271 0.931 . S
H285 C272 0.929 . S
H286 C280 0.929 . S
H287 C281 0.930 . S
H288 C294 0.930 . S
H289 C297 0.930 . S
H290 C298 0.930 . S
H291 C299 0.930 . S
H292 C302 0.930 . S
H293 C303 0.930 . S
C294 H288 0.930 . S
C294 C295 1.355 . S
C294 C296 1.415 . S
C295 C294 1.355 . S
C295 C297 1.419 1_455 S
C296 C294 1.415 . S
C296 C301 1.424 1_445 S
C296 C303 1.409 1_545 S
C297 H289 0.930 . S
C297 C295 1.419 1_655 S
C297 C298 1.362 . S
C298 H290 0.930 . S
C298 C297 1.362 . S
C298 C301 1.397 1_545 S
C299 H291 0.930 . S
C299 C300 1.355 . S
C299 C301 1.428 . S
C300 C299 1.355 . S
C300 C302 1.419 1_655 S
C301 C296 1.424 1_665 S
C301 C298 1.397 1_565 S
C301 C299 1.428 . S
C302 H292 0.930 . S
C302 C300 1.419 1_455 S
C302 C303 1.362 . S
C303 H293 0.930 . S
C303 C296 1.409 1_565 S
C303 C302 1.362 . S
H304 C310 0.930 1_655 S
H305 C313 0.930 . S
H306 C314 0.919 1_544 S
H307 C315 0.930 1_455 S
H308 C318 0.930 . S
H309 C319 0.929 1_566 S
C310 H304 0.930 1_455 S
C310 C311 1.355 . S
C310 C312 1.415 1_455 S
C311 C310 1.355 . S
C311 C313 1.419 . S
C312 C310 1.415 1_655 S
C312 C317 1.425 1_666 S
C312 C319 1.409 1_566 S
C313 H305 0.930 . S
C313 C311 1.419 . S
C313 C314 1.369 . S
C314 H306 0.919 1_566 S
C314 C313 1.369 . S
C314 C317 1.413 1_566 S
C315 H307 0.930 1_655 S
C315 C316 1.355 . S
C315 C317 1.415 1_655 S
C316 C315 1.355 . S
C316 C318 1.419 . S
C317 C312 1.425 1_444 S
C317 C314 1.413 1_544 S
C317 C315 1.415 1_455 S
C318 H308 0.930 . S
C318 C316 1.419 . S
C318 C319 1.362 . S
C319 H309 0.929 1_544 S
C319 C312 1.409 1_544 S
C319 C318 1.362 . S
H320 C326 0.930 . S
H321 C329 0.930 . S
H322 C330 0.930 . S
H323 C331 0.930 . S
H324 C334 0.930 . S
H325 C335 0.930 . S
C326 H320 0.930 . S
C326 C327 1.355 . S
C326 C328 1.415 . S
C327 C326 1.355 . S
C327 C329 1.419 . S
C328 C326 1.415 . S
C328 C333 1.425 . S
C328 C335 1.409 . S
C329 H321 0.930 . S
C329 C327 1.419 . S
C329 C330 1.362 . S
C330 H322 0.930 . S
C330 C329 1.362 . S
C330 C333 1.409 . S
C331 H323 0.930 . S
C331 C332 1.355 . S
C331 C333 1.415 . S
C332 C331 1.355 . S
C332 C334 1.419 . S
C333 C328 1.425 . S
C333 C330 1.409 . S
C333 C331 1.415 . S
C334 H324 0.930 . S
C334 C332 1.419 . S
C334 C335 1.362 . S
C335 H325 0.930 . S
C335 C328 1.409 . S
C335 C334 1.362 . S
H336 C342 0.930 1_556 S
H337 C345 0.930 . S
H338 C346 0.930 . S
H339 C347 0.930 1_554 S
H340 C350 0.930 . S
H341 C351 0.930 . S
C342 H336 0.930 1_554 S
C342 C343 1.355 . S
C342 C344 1.415 1_554 S
C343 C342 1.355 . S
C343 C345 1.419 . S
C344 C342 1.415 1_556 S
C344 C349 1.425 1_556 S
C344 C351 1.409 . S
C345 H337 0.930 . S
C345 C343 1.419 . S
C345 C346 1.362 . S
C346 H338 0.930 . S
C346 C345 1.362 . S
C346 C349 1.409 . S
C347 H339 0.930 1_556 S
C347 C348 1.355 . S
C347 C349 1.415 1_556 S
C348 C347 1.355 . S
C348 C350 1.419 . S
C349 C344 1.425 1_554 S
C349 C346 1.409 . S
C349 C347 1.415 1_554 S
C350 H340 0.930 . S
C350 C348 1.419 . S
C350 C351 1.362 . S
C351 H341 0.930 . S
C351 C344 1.409 . S
C351 C350 1.362 . S
H352 C358 0.930 . S
H353 C361 0.930 . S
H354 C362 0.930 . S
H355 C363 0.930 . S
H356 C366 0.930 . S
H357 C367 0.930 . S
C358 H352 0.930 . S
C358 C359 1.355 . S
C358 C360 1.415 . S
C359 C358 1.355 . S
C359 C361 1.419 . S
C360 C358 1.415 . S
C360 C365 1.425 1_654 S
C360 C367 1.409 . S
C361 H353 0.930 . S
C361 C359 1.419 . S
C361 C362 1.362 1_654 S
C362 H354 0.930 . S
C362 C361 1.362 1_456 S
C362 C365 1.409 . S
C363 H355 0.930 . S
C363 C364 1.355 . S
C363 C365 1.415 . S
C364 C363 1.355 . S
C364 C366 1.419 1_556 S
C365 C360 1.425 1_456 S
C365 C362 1.409 . S
C365 C363 1.415 . S
C366 H356 0.930 . S
C366 C364 1.419 1_554 S
C366 C367 1.362 1_455 S
C367 H357 0.930 . S
C367 C360 1.409 . S
C367 C366 1.362 1_655 S
H368 C374 0.930 . S
H369 C377 0.930 . S
H370 C378 0.930 . S
H371 C379 0.930 . S
H372 C382 0.930 . S
H373 C383 0.930 . S
C374 H368 0.930 . S
C374 C375 1.355 . S
C374 C376 1.415 . S
C375 C374 1.355 . S
C375 C377 1.419 . S
C376 C374 1.415 . S
C376 C381 1.425 1_455 S
C376 C383 1.409 . S
C377 H369 0.930 . S
C377 C375 1.419 . S
C377 C378 1.362 1_455 S
C378 H370 0.930 . S
C378 C377 1.362 1_655 S
C378 C381 1.409 . S
C379 H371 0.930 . S
C379 C380 1.355 . S
C379 C381 1.415 . S
C380 C379 1.355 . S
C380 C382 1.419 . S
C381 C376 1.425 1_655 S
C381 C378 1.409 . S
C381 C379 1.415 . S
C382 H372 0.930 . S
C382 C380 1.419 . S
C382 C383 1.362 1_655 S
C383 H373 0.930 . S
C383 C376 1.409 . S
C383 C382 1.362 1_455 S
H384 C390 0.940 . S
H385 C393 0.930 . S
H386 C394 0.930 . S
H387 C395 0.930 1_556 S
H388 C398 0.930 . S
H389 C399 0.930 . S
C390 H384 0.940 . S
C390 C391 1.344 1_554 S
C390 C392 1.416 . S
C391 C390 1.344 1_556 S
C391 C393 1.419 . S
C392 C390 1.416 . S
C392 C397 1.425 1_544 S
C392 C399 1.409 . S
C393 H385 0.930 . S
C393 C391 1.419 . S
C393 C394 1.362 1_545 S
C394 H386 0.930 . S
C394 C393 1.362 1_565 S
C394 C397 1.409 . S
C395 H387 0.930 1_554 S
C395 C396 1.355 . S
C395 C397 1.415 1_554 S
C396 C395 1.355 . S
C396 C398 1.419 . S
C397 C392 1.425 1_566 S
C397 C394 1.409 . S
C397 C395 1.415 1_556 S
C398 H388 0.930 . S
C398 C396 1.419 . S
C398 C399 1.362 1_565 S
C399 H389 0.930 . S
C399 C392 1.409 . S
C399 C398 1.362 1_545 S
H400 C406 0.930 . S
H401 C409 0.930 . S
H402 C410 0.930 . S
H403 C411 0.930 . S
H404 C414 0.930 . S
H405 C415 0.930 . S
C406 H400 0.930 . S
C406 C407 1.355 . S
C406 C408 1.411 1_565 S
C407 C406 1.355 . S
C407 C409 1.419 . S
C408 C406 1.411 1_545 S
C408 C413 1.425 1_545 S
C408 C415 1.413 . S
C409 H401 0.930 . S
C409 C407 1.419 . S
C409 C410 1.362 . S
C410 H402 0.930 . S
C410 C409 1.362 . S
C410 C413 1.409 . S
C411 H403 0.930 . S
C411 C412 1.355 . S
C411 C413 1.415 1_545 S
C412 C411 1.355 . S
C412 C414 1.419 . S
C413 C408 1.425 1_565 S
C413 C410 1.409 . S
C413 C411 1.415 1_565 S
C414 H404 0.930 . S
C414 C412 1.419 . S
C414 C415 1.362 . S
C415 H405 0.930 . S
C415 C408 1.413 . S
C415 C414 1.362 . S
H416 C422 0.930 . S
H417 C425 0.930 . S
H418 C426 0.930 . S
H419 C427 0.930 . S
H420 C430 0.930 . S
H421 C431 0.930 . S
C422 H416 0.930 . S
C422 C423 1.355 . S
C422 C424 1.415 . S
C423 C422 1.355 . S
C423 C425 1.419 . S
C424 C422 1.415 . S
C424 C429 1.425 . S
C424 C431 1.409 . S
C425 H417 0.930 . S
C425 C423 1.419 . S
C425 C426 1.362 . S
C426 H418 0.930 . S
C426 C425 1.362 . S
C426 C429 1.409 . S
C427 H419 0.930 . S
C427 C428 1.355 . S
C427 C429 1.415 . S
C428 C427 1.355 . S
C428 C430 1.419 . S
C429 C424 1.425 . S
C429 C426 1.409 . S
C429 C427 1.415 . S
C430 H420 0.930 . S
C430 C428 1.419 . S
C430 C431 1.362 . S
C431 H421 0.930 . S
C431 C424 1.409 . S
C431 C430 1.362 . S
H432 C438 0.930 . S
H433 C441 0.930 . S
H434 C442 0.930 1_554 S
H435 C443 0.930 . S
H436 C446 0.930 . S
H437 C447 0.930 . S
C438 H432 0.930 . S
C438 C439 1.355 . S
C438 C440 1.415 . S
C439 C438 1.355 . S
C439 C441 1.419 . S
C440 C438 1.415 . S
C440 C445 1.425 1_556 S
C440 C447 1.409 . S
C441 H433 0.930 . S
C441 C439 1.419 . S
C441 C442 1.362 . S
C442 H434 0.930 1_556 S
C442 C441 1.362 . S
C442 C445 1.409 1_556 S
C443 H435 0.930 . S
C443 C444 1.355 . S
C443 C445 1.415 . S
C444 C443 1.355 . S
C444 C446 1.419 . S
C445 C440 1.425 1_554 S
C445 C442 1.409 1_554 S
C445 C443 1.415 . S
C446 H436 0.930 . S
C446 C444 1.419 . S
C446 C447 1.362 1_554 S
C447 H437 0.930 . S
C447 C440 1.409 . S
C447 C446 1.362 1_556 S
H448 C454 0.930 . S
H449 C457 0.930 . S
H450 C458 0.930 . S
H451 C459 0.930 . S
H452 C462 0.930 . S
H453 C463 0.930 . S
C454 H448 0.930 . S
C454 C455 1.355 . S
C454 C456 1.415 . S
C455 C454 1.355 . S
C455 C457 1.419 . S
C456 C454 1.415 . S
C456 C461 1.425 . S
C456 C463 1.409 . S
C457 H449 0.930 . S
C457 C455 1.419 . S
C457 C458 1.362 . S
C458 H450 0.930 . S
C458 C457 1.362 . S
C458 C461 1.409 . S
C459 H451 0.930 . S
C459 C460 1.355 . S
C459 C461 1.415 . S
C460 C459 1.355 . S
C460 C462 1.419 . S
C461 C456 1.425 . S
C461 C458 1.409 . S
C461 C459 1.415 . S
C462 H452 0.930 . S
C462 C460 1.419 . S
C462 C463 1.362 . S
C463 H453 0.930 . S
C463 C456 1.409 . S
C463 C462 1.362 . S
H464 C470 0.930 . S
H465 C473 0.930 . S
H466 C474 0.930 . S
H467 C475 0.930 . S
H468 C478 0.930 . S
H469 C479 0.930 . S
C470 H464 0.930 . S
C470 C471 1.355 . S
C470 C472 1.397 1_554 S
C471 C470 1.355 . S
C471 C473 1.419 . S
C472 C470 1.397 1_556 S
C472 C477 1.431 . S
C472 C479 1.421 . S
C473 H465 0.930 . S
C473 C471 1.419 . S
C473 C474 1.362 . S
C474 H466 0.930 . S
C474 C473 1.362 . S
C474 C477 1.409 1_554 S
C475 H467 0.930 . S
C475 C476 1.355 . S
C475 C477 1.415 . S
C476 C475 1.355 . S
C476 C478 1.419 . S
C477 C472 1.431 . S
C477 C474 1.409 1_556 S
C477 C475 1.415 . S
C478 H468 0.930 . S
C478 C476 1.419 . S
C478 C479 1.362 . S
C479 H469 0.930 . S
C479 C472 1.421 . S
C479 C478 1.362 . S
H480 C486 0.930 . S
H481 C489 0.930 . S
H482 C490 0.930 . S
H483 C491 0.930 . S
H484 C494 0.930 . S
H485 C495 0.930 . S
C486 H480 0.930 . S
C486 C487 1.355 . S
C486 C488 1.415 . S
C487 C486 1.355 . S
C487 C489 1.419 . S
C488 C486 1.415 . S
C488 C493 1.425 . S
C488 C495 1.409 . S
C489 H481 0.930 . S
C489 C487 1.419 . S
C489 C490 1.362 . S
C490 H482 0.930 . S
C490 C489 1.362 . S
C490 C493 1.409 . S
C491 H483 0.930 . S
C491 C492 1.355 . S
C491 C493 1.415 . S
C492 C491 1.355 . S
C492 C494 1.419 . S
C493 C488 1.425 . S
C493 C490 1.409 . S
C493 C491 1.415 . S
C494 H484 0.930 . S
C494 C492 1.419 . S
C494 C495 1.362 . S
C495 H485 0.930 . S
C495 C488 1.409 . S
C495 C494 1.362 . S
H496 C502 0.930 . S
H497 C505 0.930 . S
H498 C506 0.930 . S
H499 C507 0.930 . S
H500 C510 0.930 . S
H501 C511 0.930 . S
C502 H496 0.930 . S
C502 C503 1.355 . S
C502 C504 1.415 . S
C503 C502 1.355 . S
C503 C505 1.419 . S
C504 C502 1.415 . S
C504 C509 1.425 . S
C504 C511 1.409 . S
C505 H497 0.930 . S
C505 C503 1.419 . S
C505 C506 1.362 . S
C506 H498 0.930 . S
C506 C505 1.362 . S
C506 C509 1.409 . S
C507 H499 0.930 . S
C507 C508 1.355 . S
C507 C509 1.415 . S
C508 C507 1.355 . S
C508 C510 1.419 . S
C509 C504 1.425 . S
C509 C506 1.409 . S
C509 C507 1.415 . S
C510 H500 0.930 . S
C510 C508 1.419 . S
C510 C511 1.362 . S
C511 H501 0.930 . S
C511 C504 1.409 . S
C511 C510 1.362 . S
H512 C518 0.930 . S
H513 C521 0.930 . S
H514 C522 0.930 1_655 S
H515 C523 0.930 . S
H516 C526 0.930 . S
H517 C527 0.930 1_455 S
C518 H512 0.930 . S
C518 C519 1.355 . S
C518 C520 1.415 . S
C519 C518 1.355 . S
C519 C521 1.419 . S
C520 C518 1.415 . S
C520 C525 1.425 1_455 S
C520 C527 1.409 1_455 S
C521 H513 0.930 . S
C521 C519 1.419 . S
C521 C522 1.362 . S
C522 H514 0.930 1_455 S
C522 C521 1.362 . S
C522 C525 1.409 1_455 S
C523 H515 0.930 . S
C523 C524 1.355 . S
C523 C525 1.415 . S
C524 C523 1.355 . S
C524 C526 1.419 . S
C525 C520 1.425 1_655 S
C525 C522 1.409 1_655 S
C525 C523 1.415 . S
C526 H516 0.930 . S
C526 C524 1.419 . S
C526 C527 1.362 . S
C527 H517 0.930 1_655 S
C527 C520 1.409 1_655 S
C527 C526 1.362 . S
H528 C534 0.930 . S
H529 C537 0.930 . S
H530 C538 0.930 . S
H531 C539 0.930 . S
H532 C542 0.930 . S
H533 C543 0.930 . S
C534 H528 0.930 . S
C534 C535 1.355 . S
C534 C536 1.415 . S
C535 C534 1.355 . S
C535 C537 1.419 . S
C536 C534 1.415 . S
C536 C541 1.425 1_455 S
C536 C543 1.409 1_455 S
C537 H529 0.930 . S
C537 C535 1.419 . S
C537 C538 1.362 . S
C538 H530 0.930 . S
C538 C537 1.362 . S
C538 C541 1.409 1_455 S
C539 H531 0.930 . S
C539 C540 1.355 . S
C539 C541 1.415 . S
C540 C539 1.355 . S
C540 C542 1.419 . S
C541 C536 1.425 1_655 S
C541 C538 1.409 1_655 S
C541 C539 1.415 . S
C542 H532 0.930 . S
C542 C540 1.419 . S
C542 C543 1.362 . S
C543 H533 0.930 . S
C543 C536 1.409 1_655 S
C543 C542 1.362 . S
C295 C3 1.696 . S
C300 C76 1.700 . S
C311 C112 1.694 . S
C316 C39 1.663 . S
C327 C220 1.695 . S
C332 C147 1.670 . S
C343 C183 1.665 . S
C348 C256 1.694 . S
C359 C38 1.363 . S
C364 C122 1.282 . S
C375 C2 1.362 . S
C380 C86 1.246 . S
C391 C266 1.309 . S
C396 C182 1.388 . S
C407 C146 1.366 . S
C412 C230 1.236 . S
C423 C194 1.420 . S
C428 C110 1.494 . S
C439 C74 1.490 . S
C444 C158 1.433 . S
C455 C50 1.430 . S
C460 C254 1.491 . S
C471 C14 1.482 . S
C476 C218 1.494 . S
C487 C4 1.559 . S
C492 C40 1.557 . S
C503 C75 1.543 . S
C508 C111 1.530 . S
C519 C184 1.555 . S
C524 C148 1.554 . S
C535 C219 1.529 . S
C540 C255 1.546 . S
