# Generated by pormake.
# Topology uoy, (4)-cn, num edge types: 1
# Building blocks:
#     Node 0, Type 0, BuildingBlock: GALJAG_clean_sbu_0, # of connection points: 4
#     Node 1, Type 0, BuildingBlock: GALJAG_clean_sbu_0, # of connection points: 4
#     Node 2, Type 0, BuildingBlock: GALJAG_clean_sbu_0, # of connection points: 4
#     Node 3, Type 0, BuildingBlock: GALJAG_clean_sbu_0, # of connection points: 4
#     Node 4, Type 0, BuildingBlock: GALJAG_clean_sbu_0, # of connection points: 4
#     Node 5, Type 0, BuildingBlock: GALJAG_clean_sbu_0, # of connection points: 4
#     Node 6, Type 0, BuildingBlock: GALJAG_clean_sbu_0, # of connection points: 4
#     Node 7, Type 0, BuildingBlock: GALJAG_clean_sbu_0, # of connection points: 4
#     Node 8, Type 0, BuildingBlock: GALJAG_clean_sbu_0, # of connection points: 4
#     Node 9, Type 0, BuildingBlock: GALJAG_clean_sbu_0, # of connection points: 4
#     Node 10, Type 0, BuildingBlock: GALJAG_clean_sbu_0, # of connection points: 4
#     Node 11, Type 0, BuildingBlock: GALJAG_clean_sbu_0, # of connection points: 4
#     Node 12, Type 0, BuildingBlock: GALJAG_clean_sbu_0, # of connection points: 4
#     Node 13, Type 0, BuildingBlock: GALJAG_clean_sbu_0, # of connection points: 4
#     Node 14, Type 0, BuildingBlock: GALJAG_clean_sbu_0, # of connection points: 4
#     Node 15, Type 0, BuildingBlock: GALJAG_clean_sbu_0, # of connection points: 4
#     Edge 16, Type (0, 0), BuildingBlock: OJICUG_clean_linker_0, # of connection points: 2
#     Edge 17, Type (0, 0), BuildingBlock: OJICUG_clean_linker_0, # of connection points: 2
#     Edge 18, Type (0, 0), BuildingBlock: OJICUG_clean_linker_0, # of connection points: 2
#     Edge 19, Type (0, 0), BuildingBlock: OJICUG_clean_linker_0, # of connection points: 2
#     Edge 20, Type (0, 0), BuildingBlock: OJICUG_clean_linker_0, # of connection points: 2
#     Edge 21, Type (0, 0), BuildingBlock: OJICUG_clean_linker_0, # of connection points: 2
#     Edge 22, Type (0, 0), BuildingBlock: OJICUG_clean_linker_0, # of connection points: 2
#     Edge 23, Type (0, 0), BuildingBlock: OJICUG_clean_linker_0, # of connection points: 2
#     Edge 24, Type (0, 0), BuildingBlock: OJICUG_clean_linker_0, # of connection points: 2
#     Edge 25, Type (0, 0), BuildingBlock: OJICUG_clean_linker_0, # of connection points: 2
#     Edge 26, Type (0, 0), BuildingBlock: OJICUG_clean_linker_0, # of connection points: 2
#     Edge 27, Type (0, 0), BuildingBlock: OJICUG_clean_linker_0, # of connection points: 2
#     Edge 28, Type (0, 0), BuildingBlock: OJICUG_clean_linker_0, # of connection points: 2
#     Edge 29, Type (0, 0), BuildingBlock: OJICUG_clean_linker_0, # of connection points: 2
#     Edge 30, Type (0, 0), BuildingBlock: OJICUG_clean_linker_0, # of connection points: 2
#     Edge 31, Type (0, 0), BuildingBlock: OJICUG_clean_linker_0, # of connection points: 2
#     Edge 32, Type (0, 0), BuildingBlock: OJICUG_clean_linker_0, # of connection points: 2
#     Edge 33, Type (0, 0), BuildingBlock: OJICUG_clean_linker_0, # of connection points: 2
#     Edge 34, Type (0, 0), BuildingBlock: OJICUG_clean_linker_0, # of connection points: 2
#     Edge 35, Type (0, 0), BuildingBlock: OJICUG_clean_linker_0, # of connection points: 2
#     Edge 36, Type (0, 0), BuildingBlock: OJICUG_clean_linker_0, # of connection points: 2
#     Edge 37, Type (0, 0), BuildingBlock: OJICUG_clean_linker_0, # of connection points: 2
#     Edge 38, Type (0, 0), BuildingBlock: OJICUG_clean_linker_0, # of connection points: 2
#     Edge 39, Type (0, 0), BuildingBlock: OJICUG_clean_linker_0, # of connection points: 2
#     Edge 40, Type (0, 0), BuildingBlock: OJICUG_clean_linker_0, # of connection points: 2
#     Edge 41, Type (0, 0), BuildingBlock: OJICUG_clean_linker_0, # of connection points: 2
#     Edge 42, Type (0, 0), BuildingBlock: OJICUG_clean_linker_0, # of connection points: 2
#     Edge 43, Type (0, 0), BuildingBlock: OJICUG_clean_linker_0, # of connection points: 2
#     Edge 44, Type (0, 0), BuildingBlock: OJICUG_clean_linker_0, # of connection points: 2
#     Edge 45, Type (0, 0), BuildingBlock: OJICUG_clean_linker_0, # of connection points: 2
#     Edge 46, Type (0, 0), BuildingBlock: OJICUG_clean_linker_0, # of connection points: 2
#     Edge 47, Type (0, 0), BuildingBlock: OJICUG_clean_linker_0, # of connection points: 2
# Relax obj value: 0.037
# Max RMSD: 0.056
# Mean RMSD: 0.056
data_MOF--net-uoy--node1-GALJAG_clean_sbu_0--edge1-OJICUG_clean_linker_0
_symmetry_space_group_name_H-M    P1
_symmetry_Int_Tables_number       1
_symmetry_cell_setting            triclinic
loop_
_symmetry_equiv_pos_as_xyz
'x, y, z'
_cell_length_a     20.184286
_cell_length_b     20.181621
_cell_length_c     80.629725
_cell_angle_alpha  89.997047
_cell_angle_beta   89.999526
_cell_angle_gamma 89.993028
loop_
_atom_site_label
_atom_site_type_symbol
_atom_site_fract_x
_atom_site_fract_y
_atom_site_fract_z
_atom_type_partial_charge
In0 In 0.25004 0.11558 0.18577 0.0
O1 O 0.23895 0.20928 0.17011 0.0
O2 O 0.25179 0.11753 0.15756 0.0
C3 C 0.25658 0.16806 0.21653 0.0
C4 C 0.12978 0.05749 0.18562 0.0
C5 C 0.37042 0.05675 0.18478 0.0
O6 O 0.27154 0.20072 0.20372 0.0
O7 O 0.2371 0.10975 0.21379 0.0
O8 O 0.31716 0.02387 0.18465 0.0
O9 O 0.36268 0.11863 0.18531 0.0
C10 C 0.24399 0.17936 0.15641 0.0
O11 O 0.18303 0.02448 0.18541 0.0
O12 O 0.13738 0.1196 0.18591 0.0
In13 In 0.88158 0.75046 0.43588 0.0
O14 O 0.97253 0.68334 0.43499 0.0
O15 O 0.87754 0.63781 0.43651 0.0
C16 C 0.94066 0.87071 0.43474 0.0
C17 C 0.81743 0.74345 0.4066 0.0
C18 C 0.82928 0.75789 0.46664 0.0
O19 O 0.97346 0.81743 0.43528 0.0
O20 O 0.87875 0.86304 0.43467 0.0
O21 O 0.7967 0.77296 0.45382 0.0
O22 O 0.88741 0.7379 0.4639 0.0
C23 C 0.93957 0.63013 0.4357 0.0
O24 O 0.78763 0.73917 0.42034 0.0
O25 O 0.87931 0.75095 0.40768 0.0
In26 In 0.2503 0.38521 0.68539 0.0
O27 O 0.2492 0.28908 0.67032 0.0
O28 O 0.26166 0.38031 0.65746 0.0
C29 C 0.23254 0.34386 0.71685 0.0
C30 C 0.37059 0.44328 0.68683 0.0
C31 C 0.13039 0.44152 0.68145 0.0
O32 O 0.25352 0.30496 0.70574 0.0
O33 O 0.22266 0.40251 0.71213 0.0
O34 O 0.18306 0.47526 0.68245 0.0
O35 O 0.1386 0.37953 0.68205 0.0
C36 C 0.25698 0.31812 0.65655 0.0
O37 O 0.31809 0.47573 0.68425 0.0
O38 O 0.3622 0.38188 0.68887 0.0
In39 In 0.62127 0.75285 0.93645 0.0
O40 O 0.53042 0.82008 0.93584 0.0
O41 O 0.62561 0.86548 0.93679 0.0
C42 C 0.56227 0.63264 0.93532 0.0
C43 C 0.68413 0.75956 0.90702 0.0
C44 C 0.67421 0.74505 0.96714 0.0
O45 O 0.52941 0.68589 0.93585 0.0
O46 O 0.62419 0.64033 0.93529 0.0
O47 O 0.7065 0.73005 0.95427 0.0
O48 O 0.6161 0.7653 0.96449 0.0
C49 C 0.56356 0.87324 0.93622 0.0
O50 O 0.71446 0.7646 0.92067 0.0
O51 O 0.62239 0.75139 0.90827 0.0
In52 In 0.25166 0.37873 0.06402 0.0
O53 O 0.24061 0.28458 0.07953 0.0
O54 O 0.25213 0.37627 0.0922 0.0
C55 C 0.25898 0.32764 0.03312 0.0
C56 C 0.1313 0.43657 0.06427 0.0
C57 C 0.37195 0.43765 0.06521 0.0
O58 O 0.27378 0.2944 0.04586 0.0
O59 O 0.23928 0.38576 0.03601 0.0
O60 O 0.31871 0.47052 0.06473 0.0
O61 O 0.36423 0.37573 0.06519 0.0
C62 C 0.24478 0.31437 0.09328 0.0
O63 O 0.18446 0.46957 0.06507 0.0
O64 O 0.13903 0.37457 0.06334 0.0
In65 In 0.61823 0.74807 0.31419 0.0
O66 O 0.52704 0.68112 0.31418 0.0
O67 O 0.62212 0.63539 0.31436 0.0
C68 C 0.55942 0.8685 0.31514 0.0
C69 C 0.68216 0.74239 0.34353 0.0
C70 C 0.67106 0.75424 0.28348 0.0
O71 O 0.62119 0.86074 0.31415 0.0
O72 O 0.52661 0.81524 0.31573 0.0
O73 O 0.70346 0.76961 0.2963 0.0
O74 O 0.61281 0.7345 0.28619 0.0
C75 C 0.56001 0.62783 0.31431 0.0
O76 O 0.71196 0.73698 0.32982 0.0
O77 O 0.62036 0.75038 0.3424 0.0
In78 In 0.25085 0.11977 0.56402 0.0
O79 O 0.26448 0.21262 0.57983 0.0
O80 O 0.24634 0.12137 0.59221 0.0
C81 C 0.24374 0.17273 0.53331 0.0
C82 C 0.37107 0.06167 0.56426 0.0
C83 C 0.1306 0.06095 0.56489 0.0
O84 O 0.22804 0.20491 0.54615 0.0
O85 O 0.26421 0.11472 0.53601 0.0
O86 O 0.18386 0.02801 0.5648 0.0
O87 O 0.13831 0.12287 0.56461 0.0
C88 C 0.25677 0.18277 0.59347 0.0
O89 O 0.31784 0.02863 0.56453 0.0
O90 O 0.36343 0.12376 0.56386 0.0
In91 In 0.88073 0.74916 0.81439 0.0
O92 O 0.78682 0.76058 0.82995 0.0
O93 O 0.87905 0.75159 0.84253 0.0
C94 C 0.82987 0.73985 0.7835 0.0
C95 C 0.93757 0.86974 0.81377 0.0
C96 C 0.93984 0.62941 0.8169 0.0
O97 O 0.79661 0.72552 0.79626 0.0
O98 O 0.88793 0.75973 0.78635 0.0
O99 O 0.9726 0.68274 0.81665 0.0
O100 O 0.87804 0.63681 0.81584 0.0
C101 C 0.81708 0.75812 0.84366 0.0
O102 O 0.97112 0.81681 0.8137 0.0
O103 O 0.87553 0.86164 0.81417 0.0
In104 In 0.75089 0.62028 0.68573 0.0
O105 O 0.68315 0.52997 0.68634 0.0
O106 O 0.63841 0.62561 0.6859 0.0
C107 C 0.87062 0.56117 0.68318 0.0
C108 C 0.74253 0.68446 0.6565 0.0
C109 C 0.7601 0.67061 0.71667 0.0
O110 O 0.81728 0.52843 0.68331 0.0
O111 O 0.86324 0.62295 0.68438 0.0
O112 O 0.77402 0.70423 0.70394 0.0
O113 O 0.74065 0.61243 0.71377 0.0
C114 C 0.63025 0.56357 0.68627 0.0
O115 O 0.74004 0.71451 0.67024 0.0
O116 O 0.74869 0.62243 0.65758 0.0
In117 In 0.38317 0.25247 0.93566 0.0
O118 O 0.29023 0.2384 0.91992 0.0
O119 O 0.38122 0.25675 0.90745 0.0
C120 C 0.33029 0.25931 0.96637 0.0
C121 C 0.44148 0.13235 0.9355 0.0
C122 C 0.44196 0.37276 0.93486 0.0
O123 O 0.29824 0.2756 0.95356 0.0
O124 O 0.38813 0.23847 0.96365 0.0
O125 O 0.47489 0.3195 0.93489 0.0
O126 O 0.38004 0.36504 0.93514 0.0
C127 C 0.31986 0.24604 0.90625 0.0
O128 O 0.47444 0.18562 0.93515 0.0
O129 O 0.37939 0.1399 0.93591 0.0
In130 In 0.7505 0.87713 0.1862 0.0
O131 O 0.76186 0.78345 0.17055 0.0
O132 O 0.75014 0.87544 0.15802 0.0
C133 C 0.74294 0.82455 0.21693 0.0
C134 C 0.87081 0.93505 0.18596 0.0
C135 C 0.63027 0.93623 0.18501 0.0
O136 O 0.72767 0.79215 0.2041 0.0
O137 O 0.76322 0.88261 0.21422 0.0
O138 O 0.6835 0.96903 0.18573 0.0
O139 O 0.63798 0.87432 0.1848 0.0
C140 C 0.75765 0.81358 0.15686 0.0
O141 O 0.8176 0.96807 0.18535 0.0
O142 O 0.86314 0.87301 0.18674 0.0
In143 In 0.12012 0.25086 0.43599 0.0
O144 O 0.02904 0.31788 0.4357 0.0
O145 O 0.12417 0.36352 0.43607 0.0
C146 C 0.06122 0.13053 0.43492 0.0
C147 C 0.18323 0.25725 0.40656 0.0
C148 C 0.17285 0.24398 0.46673 0.0
O149 O 0.02835 0.18381 0.435 0.0
O150 O 0.12312 0.13823 0.4353 0.0
O151 O 0.20525 0.22864 0.4539 0.0
O152 O 0.11472 0.26403 0.46401 0.0
C153 C 0.06206 0.37114 0.43582 0.0
O154 O 0.21348 0.2623 0.42022 0.0
O155 O 0.12147 0.24924 0.4078 0.0
In156 In 0.75047 0.88174 0.56389 0.0
O157 O 0.68336 0.97271 0.56454 0.0
O158 O 0.63789 0.87756 0.56348 0.0
C159 C 0.87072 0.94067 0.56495 0.0
C160 C 0.74338 0.81849 0.59328 0.0
C161 C 0.75792 0.82898 0.53319 0.0
O162 O 0.81749 0.97356 0.5645 0.0
O163 O 0.863 0.87875 0.56497 0.0
O164 O 0.77341 0.79671 0.54603 0.0
O165 O 0.73745 0.88699 0.53588 0.0
C166 C 0.63018 0.93962 0.56408 0.0
O167 O 0.73838 0.78838 0.5796 0.0
O168 O 0.75178 0.88023 0.59209 0.0
In169 In 0.11594 0.24975 0.81452 0.0
O170 O 0.02549 0.18191 0.81576 0.0
O171 O 0.1193 0.13779 0.81111 0.0
C172 C 0.0596 0.36964 0.81849 0.0
C173 C 0.18359 0.24357 0.84329 0.0
C174 C 0.15669 0.26739 0.78301 0.0
O175 O 0.02589 0.31692 0.81758 0.0
O176 O 0.12156 0.36148 0.8178 0.0
O177 O 0.19577 0.24636 0.79408 0.0
O178 O 0.09816 0.27736 0.7878 0.0
C179 C 0.05793 0.1294 0.81318 0.0
O180 O 0.21235 0.25131 0.82949 0.0
O181 O 0.12142 0.23859 0.84245 0.0
In182 In 0.75206 0.61717 0.06411 0.0
O183 O 0.76359 0.71038 0.0799 0.0
O184 O 0.75028 0.61837 0.09232 0.0
C185 C 0.74518 0.67103 0.03351 0.0
C186 C 0.8723 0.55901 0.06424 0.0
C187 C 0.63177 0.55815 0.06512 0.0
O188 O 0.72973 0.70288 0.04641 0.0
O189 O 0.76532 0.61282 0.03608 0.0
O190 O 0.68506 0.52531 0.06502 0.0
O191 O 0.63944 0.62006 0.06479 0.0
C192 C 0.75839 0.68014 0.09355 0.0
O193 O 0.81904 0.52601 0.06425 0.0
O194 O 0.8647 0.62113 0.06412 0.0
In195 In 0.37956 0.24852 0.31381 0.0
O196 O 0.28602 0.26028 0.3295 0.0
O197 O 0.3781 0.24876 0.342 0.0
C198 C 0.32679 0.24026 0.2831 0.0
C199 C 0.43749 0.36884 0.314 0.0
C200 C 0.43888 0.12838 0.31503 0.0
O201 O 0.29466 0.2247 0.29595 0.0
O202 O 0.38462 0.2612 0.28578 0.0
O203 O 0.47152 0.18157 0.31382 0.0
O204 O 0.37703 0.13609 0.31572 0.0
C205 C 0.31626 0.25633 0.34319 0.0
O206 O 0.47043 0.31565 0.31491 0.0
O207 O 0.37552 0.36115 0.31296 0.0
C208 C 0.2416 0.31599 0.12427 0.0
C209 C 0.24253 0.27969 0.10939 0.0
H210 H 0.24087 0.31267 0.15082 0.0
C211 C 0.24252 0.21017 0.1101 0.0
H212 H 0.24146 0.36966 0.12411 0.0
C213 C 0.24259 0.17758 0.12539 0.0
C214 C 0.24217 0.21389 0.14027 0.0
H215 H 0.24327 0.18092 0.09883 0.0
H216 H 0.24323 0.12391 0.12556 0.0
C217 C 0.24118 0.2834 0.13956 0.0
C218 C 0.71322 0.7412 0.38982 0.0
C219 C 0.78273 0.74117 0.39049 0.0
H220 H 0.62689 0.74189 0.37439 0.0
C221 C 0.81896 0.74016 0.37561 0.0
H222 H 0.68403 0.74202 0.40109 0.0
C223 C 0.78629 0.73967 0.36033 0.0
C224 C 0.71679 0.7407 0.35965 0.0
H225 H 0.87263 0.73999 0.37575 0.0
H226 H 0.81549 0.73928 0.34906 0.0
C227 C 0.68055 0.74122 0.37454 0.0
C228 C 0.26827 0.28579 0.61043 0.0
C229 C 0.25869 0.21699 0.60965 0.0
H230 H 0.27532 0.37161 0.6259 0.0
C231 C 0.24995 0.18127 0.62447 0.0
H232 H 0.27519 0.3146 0.59923 0.0
C233 C 0.25011 0.2139 0.63977 0.0
C234 C 0.25891 0.28284 0.64052 0.0
H235 H 0.24253 0.12812 0.62424 0.0
H236 H 0.24274 0.18524 0.65097 0.0
C237 C 0.26833 0.3184 0.62571 0.0
C238 C 0.71341 0.76046 0.86066 0.0
C239 C 0.78288 0.76101 0.85983 0.0
H240 H 0.62768 0.75937 0.8763 0.0
C241 C 0.81965 0.76278 0.87463 0.0
H242 H 0.68382 0.75907 0.84946 0.0
C243 C 0.78756 0.76329 0.88998 0.0
C244 C 0.71812 0.7616 0.89082 0.0
H245 H 0.8733 0.76336 0.87436 0.0
H246 H 0.81718 0.76414 0.90118 0.0
C247 C 0.68132 0.76054 0.87602 0.0
C248 C 0.73858 0.71481 0.61021 0.0
C249 C 0.74086 0.78426 0.60945 0.0
H250 H 0.73745 0.62881 0.62574 0.0
C251 C 0.74191 0.82081 0.62428 0.0
H252 H 0.73772 0.68538 0.59898 0.0
C253 C 0.74138 0.78846 0.63961 0.0
C254 C 0.74022 0.71897 0.64037 0.0
H255 H 0.74353 0.87445 0.62407 0.0
H256 H 0.74278 0.81785 0.65085 0.0
C257 C 0.73848 0.68247 0.62553 0.0
C258 C 0.32087 0.2523 0.87524 0.0
C259 C 0.28544 0.24361 0.8901 0.0
H260 H 0.31645 0.25891 0.84872 0.0
C261 C 0.21671 0.23346 0.88939 0.0
H262 H 0.37396 0.26015 0.87541 0.0
C263 C 0.18389 0.23279 0.87414 0.0
C264 C 0.21915 0.24216 0.85929 0.0
H265 H 0.18812 0.22654 0.90063 0.0
H266 H 0.13074 0.22538 0.87402 0.0
C267 C 0.28802 0.25154 0.85997 0.0
C268 C 0.76156 0.78374 0.11054 0.0
C269 C 0.76032 0.71426 0.10974 0.0
H270 H 0.76147 0.86963 0.12612 0.0
C271 C 0.75972 0.67758 0.12456 0.0
H272 H 0.76204 0.81328 0.09932 0.0
C273 C 0.75981 0.70981 0.1399 0.0
C274 C 0.75999 0.77931 0.1407 0.0
H275 H 0.75888 0.62392 0.12431 0.0
H276 H 0.75887 0.6803 0.15112 0.0
C277 C 0.76115 0.81597 0.12588 0.0
C278 C 0.18053 0.25867 0.37556 0.0
C279 C 0.2173 0.25925 0.39037 0.0
H280 H 0.18305 0.25777 0.349 0.0
C281 C 0.28677 0.2605 0.38953 0.0
H282 H 0.12688 0.25784 0.37583 0.0
C283 C 0.31888 0.26007 0.37417 0.0
C284 C 0.28212 0.25887 0.35937 0.0
H285 H 0.31637 0.26098 0.40073 0.0
H286 H 0.37253 0.26036 0.37391 0.0
C287 C 0.21264 0.25872 0.3602 0.0
C288 C 0.23626 0.16255 0.24706 0.0
C289 C 0.26731 0.19325 0.23349 0.0
H290 H 0.22968 0.15477 0.27352 0.0
C291 C 0.3133 0.24413 0.23639 0.0
H292 H 0.20048 0.12327 0.24514 0.0
C293 C 0.33095 0.26118 0.2526 0.0
C294 C 0.30174 0.22873 0.26617 0.0
H295 H 0.33811 0.26844 0.22615 0.0
H296 H 0.36873 0.29854 0.25452 0.0
C297 C 0.25277 0.1807 0.26327 0.0
C298 C 0.83448 0.73749 0.49715 0.0
C299 C 0.80422 0.76898 0.48359 0.0
H300 H 0.84213 0.73076 0.52361 0.0
C301 C 0.75394 0.81564 0.48648 0.0
H302 H 0.87328 0.70119 0.49524 0.0
C303 C 0.73709 0.8335 0.50269 0.0
C304 C 0.76914 0.80384 0.51625 0.0
H305 H 0.72999 0.84079 0.47623 0.0
H306 H 0.70024 0.87178 0.5046 0.0
C307 C 0.81652 0.75423 0.51336 0.0
C308 C 0.24773 0.27019 0.74178 0.0
C309 C 0.21484 0.32255 0.73375 0.0
H310 H 0.25619 0.21232 0.76413 0.0
C311 C 0.16343 0.35571 0.742 0.0
H312 H 0.28762 0.24403 0.73562 0.0
C313 C 0.1445 0.33662 0.75789 0.0
C314 C 0.17773 0.28513 0.76609 0.0
H315 H 0.137 0.39598 0.73606 0.0
H316 H 0.10432 0.36303 0.76387 0.0
C317 C 0.22997 0.25228 0.75801 0.0
C318 C 0.76603 0.66753 0.00299 0.0
C319 C 0.73422 0.69692 0.01663 0.0
H320 H 0.77302 0.66117 0.97652 0.0
C321 C 0.68728 0.74706 0.01386 0.0
H322 H 0.80255 0.62886 0.00482 0.0
C323 C 0.66946 0.76458 0.99769 0.0
C324 C 0.69941 0.73334 0.98405 0.0
H325 H 0.66188 0.77036 0.02416 0.0
H326 H 0.63095 0.80126 0.99587 0.0
C327 C 0.74932 0.68616 0.98683 0.0
C328 C 0.31647 0.25298 0.01306 0.0
C329 C 0.27006 0.30335 0.0161 0.0
H330 H 0.37248 0.19992 0.9948 0.0
C331 C 0.23891 0.33453 0.00261 0.0
H332 H 0.34137 0.22833 0.02325 0.0
C333 C 0.25572 0.31736 0.98635 0.0
C334 C 0.30508 0.26985 0.98333 0.0
H335 H 0.20281 0.37343 0.00463 0.0
H336 H 0.23251 0.34365 0.97618 0.0
C337 C 0.33441 0.2369 0.99681 0.0
C338 C 0.74659 0.81167 0.26364 0.0
C339 C 0.69637 0.76496 0.26654 0.0
H340 H 0.80033 0.86771 0.24551 0.0
C341 C 0.66633 0.73323 0.25298 0.0
H342 H 0.77038 0.83701 0.27388 0.0
C343 C 0.68441 0.74981 0.23677 0.0
C344 C 0.73168 0.7995 0.23387 0.0
H345 H 0.62758 0.69689 0.25491 0.0
H346 H 0.65895 0.72617 0.22653 0.0
C347 C 0.76356 0.82937 0.24743 0.0
C348 C 0.24797 0.18601 0.48659 0.0
C349 C 0.19797 0.23296 0.48368 0.0
H350 H 0.30128 0.12959 0.50473 0.0
C351 C 0.1679 0.26468 0.49724 0.0
H352 H 0.27177 0.16066 0.47636 0.0
C353 C 0.18571 0.24788 0.51346 0.0
C354 C 0.23276 0.19796 0.51637 0.0
H355 H 0.12932 0.30121 0.49531 0.0
H356 H 0.16023 0.27153 0.52369 0.0
C357 C 0.26468 0.1681 0.50281 0.0
C358 C 0.81803 0.74479 0.73676 0.0
C359 C 0.77131 0.69475 0.7337 0.0
H360 H 0.8738 0.79783 0.75507 0.0
C361 C 0.73958 0.664 0.74716 0.0
H362 H 0.84336 0.76909 0.72659 0.0
C363 C 0.75596 0.68142 0.76344 0.0
C364 C 0.80549 0.72868 0.76649 0.0
H365 H 0.70323 0.62537 0.74512 0.0
H366 H 0.73219 0.65559 0.7736 0.0
C367 C 0.83558 0.76105 0.75303 0.0
C368 C 0.05727 0.95679 0.18601 0.0
C369 C 0.06359 0.02609 0.18563 0.0
H370 H 0.99131 0.87369 0.18644 0.0
C371 C 0.006 0.06524 0.18533 0.0
H372 H 0.10074 0.92532 0.18625 0.0
C373 C 0.94334 0.0357 0.1854 0.0
C374 C 0.93702 0.96641 0.18582 0.0
H375 H 0.00929 0.1188 0.18503 0.0
H376 H 0.89988 0.06717 0.18516 0.0
C377 C 0.9946 0.92725 0.18612 0.0
C378 C 0.96138 0.44367 0.43616 0.0
C379 C 0.03066 0.43734 0.43573 0.0
H380 H 0.87827 0.50964 0.4365 0.0
C381 C 0.06979 0.49492 0.43525 0.0
H382 H 0.92993 0.4002 0.43654 0.0
C383 C 0.04023 0.55759 0.4352 0.0
C384 C 0.97095 0.56392 0.43566 0.0
H385 H 0.12334 0.49162 0.4349 0.0
H386 H 0.07168 0.60105 0.43482 0.0
C387 C 0.93182 0.50634 0.43614 0.0
C388 C 0.49404 0.43492 0.68852 0.0
C389 C 0.43689 0.47426 0.68703 0.0
H390 H 0.60008 0.43232 0.68938 0.0
C391 C 0.4438 0.54321 0.68541 0.0
H392 H 0.49026 0.38161 0.68976 0.0
C393 C 0.50667 0.57224 0.68525 0.0
C394 C 0.56384 0.53284 0.68661 0.0
H395 H 0.40064 0.57476 0.68423 0.0
H396 H 0.51047 0.62552 0.68396 0.0
C397 C 0.55692 0.46392 0.68827 0.0
C398 C 0.4336 0.00861 0.93567 0.0
C399 C 0.47285 0.06615 0.93559 0.0
H400 H 0.4315 0.90249 0.93591 0.0
C401 C 0.54214 0.05975 0.9357 0.0
H402 H 0.38004 0.01197 0.93558 0.0
C403 C 0.57159 0.99703 0.93592 0.0
C404 C 0.53233 0.9395 0.936 0.0
H405 H 0.57366 0.10318 0.93566 0.0
H406 H 0.62515 0.99365 0.93602 0.0
C407 C 0.46305 0.94591 0.93585 0.0
C408 C 0.00752 0.42879 0.06371 0.0
C409 C 0.06507 0.46792 0.06434 0.0
H410 H 0.9014 0.42689 0.06321 0.0
C411 C 0.05871 0.53718 0.06498 0.0
H412 H 0.01084 0.37525 0.06321 0.0
C413 C 0.99604 0.56673 0.06494 0.0
C414 C 0.93849 0.5276 0.06431 0.0
H415 H 0.10215 0.56863 0.06547 0.0
H416 H 0.99272 0.62026 0.06543 0.0
C417 C 0.94484 0.45833 0.06371 0.0
C418 C 0.56763 0.50406 0.31505 0.0
C419 C 0.52857 0.56165 0.31429 0.0
H420 H 0.56947 0.39794 0.31559 0.0
C421 C 0.45934 0.55533 0.31347 0.0
H422 H 0.62113 0.50735 0.31571 0.0
C423 C 0.42978 0.49265 0.31336 0.0
C424 C 0.46886 0.43507 0.31412 0.0
H425 H 0.42795 0.59879 0.31285 0.0
H426 H 0.37629 0.48936 0.31269 0.0
C427 C 0.53807 0.4414 0.31498 0.0
C428 C 0.55752 0.04019 0.56431 0.0
C429 C 0.56395 0.97089 0.56418 0.0
H430 H 0.49143 0.12319 0.56442 0.0
C431 C 0.50643 0.93162 0.56414 0.0
H432 H 0.60093 0.07173 0.56435 0.0
C433 C 0.44372 0.96106 0.56421 0.0
C434 C 0.43729 0.03036 0.56429 0.0
H435 H 0.50982 0.87806 0.56405 0.0
H436 H 0.4003 0.92952 0.56416 0.0
C437 C 0.49481 0.06963 0.56435 0.0
C438 C 0.06625 0.00591 0.81149 0.0
C439 C 0.02695 0.06309 0.813 0.0
H440 H 0.0688 0.89985 0.81062 0.0
C441 C 0.95802 0.0562 0.81463 0.0
H442 H 0.11955 0.00968 0.81024 0.0
C443 C 0.92897 0.99333 0.8148 0.0
C444 C 0.96833 0.93614 0.81342 0.0
H445 H 0.92648 0.09937 0.81582 0.0
H446 H 0.87569 0.98956 0.81611 0.0
C447 C 0.03724 0.94304 0.81174 0.0
C448 C 0.50666 0.92765 0.184 0.0
C449 C 0.56393 0.96727 0.18465 0.0
H450 H 0.40052 0.92482 0.18351 0.0
C451 C 0.55702 0.03645 0.18515 0.0
H452 H 0.5104 0.87413 0.1836 0.0
C453 C 0.49409 0.06542 0.18509 0.0
C454 C 0.43681 0.02578 0.18454 0.0
H455 H 0.60022 0.06824 0.18567 0.0
H456 H 0.49034 0.11893 0.18557 0.0
C457 C 0.44372 0.95662 0.18395 0.0
C458 C 0.04089 0.94391 0.43481 0.0
C459 C 0.9717 0.93706 0.43447 0.0
H460 H 0.12339 0.01054 0.4352 0.0
C461 C 0.93208 0.99437 0.43409 0.0
H462 H 0.07268 0.90067 0.43512 0.0
C463 C 0.96106 0.05731 0.43415 0.0
C464 C 0.03024 0.06416 0.43458 0.0
H465 H 0.87855 0.99067 0.43382 0.0
H466 H 0.92926 0.10054 0.43392 0.0
C467 C 0.06987 0.00684 0.43486 0.0
C468 C 0.00672 0.43226 0.68057 0.0
C469 C 0.0639 0.47206 0.68082 0.0
H470 H 0.90055 0.42922 0.68113 0.0
C471 C 0.05687 0.54123 0.68131 0.0
H472 H 0.01061 0.37875 0.68021 0.0
C473 C 0.99397 0.57002 0.68188 0.0
C474 C 0.9368 0.53024 0.68196 0.0
H475 H 0.09999 0.57318 0.68154 0.0
H476 H 0.99022 0.62351 0.68245 0.0
C477 C 0.94373 0.46109 0.68113 0.0
C478 C 0.43319 0.49643 0.93493 0.0
C479 C 0.47289 0.43915 0.93471 0.0
H480 H 0.43027 0.60258 0.93528 0.0
C481 C 0.54208 0.44606 0.93452 0.0
H482 H 0.37965 0.49267 0.93508 0.0
C483 C 0.571 0.50901 0.93463 0.0
C484 C 0.5313 0.56628 0.93494 0.0
H485 H 0.57392 0.40285 0.93435 0.0
H486 H 0.62453 0.51276 0.93455 0.0
C487 C 0.46211 0.55938 0.93505 0.0
C488 C 0.55854 0.45796 0.06583 0.0
C489 C 0.56541 0.52715 0.06543 0.0
H490 H 0.49188 0.37546 0.0661 0.0
C491 C 0.50811 0.56681 0.06518 0.0
H492 H 0.60176 0.42615 0.06604 0.0
C493 C 0.44518 0.53785 0.06521 0.0
C494 C 0.43831 0.46865 0.0655 0.0
H495 H 0.51182 0.62034 0.06487 0.0
H496 H 0.40196 0.56966 0.06492 0.0
C497 C 0.49561 0.429 0.06586 0.0
C498 C 0.53898 0.05507 0.31407 0.0
C499 C 0.46998 0.06205 0.31536 0.0
H500 H 0.62129 0.98831 0.31298 0.0
C501 C 0.43055 0.00486 0.31677 0.0
H502 H 0.5706 0.0982 0.31295 0.0
C503 C 0.45952 0.94191 0.31678 0.0
C504 C 0.52848 0.93491 0.31539 0.0
H505 H 0.37718 0.00866 0.3178 0.0
H506 H 0.42787 0.89876 0.31782 0.0
C507 C 0.56794 0.99213 0.31408 0.0
C508 C 0.99436 0.93191 0.56542 0.0
C509 C 0.93709 0.97163 0.56521 0.0
H510 H 0.10051 0.92897 0.56549 0.0
C511 C 0.94401 0.04083 0.56506 0.0
H512 H 0.9906 0.87837 0.56554 0.0
C513 C 0.00696 0.06974 0.56504 0.0
C514 C 0.06423 0.03001 0.56516 0.0
H515 H 0.90081 0.07268 0.56489 0.0
H516 H 0.01072 0.12327 0.56486 0.0
C517 C 0.05731 0.96082 0.56539 0.0
C518 C 0.03996 0.55631 0.81879 0.0
C519 C 0.9708 0.56322 0.8181 0.0
H520 H 0.12234 0.48945 0.81956 0.0
C521 C 0.93104 0.50603 0.81828 0.0
H522 H 0.07182 0.5995 0.81871 0.0
C523 C 0.95986 0.44313 0.81881 0.0
C524 C 0.02903 0.43612 0.81916 0.0
H525 H 0.87754 0.50978 0.81781 0.0
H526 H 0.92792 0.4 0.81866 0.0
C527 C 0.06882 0.49332 0.81931 0.0
loop_
_geom_bond_atom_site_label_1
_geom_bond_atom_site_label_2
_geom_bond_distance
_geom_bond_site_symmetry_2
_ccdc_geom_bond_type
In0 O1 2.294 . S
In0 O2 2.326 . S
In0 O6 2.266 . S
In0 O7 2.326 . S
In0 O8 2.266 . S
In0 O9 2.326 . S
In0 O11 2.294 . S
In0 O12 2.326 . S
O1 In0 2.294 . S
O1 C10 1.240 . S
O2 In0 2.326 . S
O2 C10 1.252 . S
C3 O6 1.252 . S
C3 O7 1.260 . S
C4 O11 1.240 . S
C4 O12 1.252 . S
C5 O8 1.252 . S
C5 O9 1.260 . S
O6 In0 2.266 . S
O6 C3 1.252 . S
O7 In0 2.326 . S
O7 C3 1.260 . S
O8 In0 2.266 . S
O8 C5 1.252 . S
O9 In0 2.326 . S
O9 C5 1.260 . S
C10 O1 1.240 . S
C10 O2 1.252 . S
O11 In0 2.294 . S
O11 C4 1.240 . S
O12 In0 2.326 . S
O12 C4 1.252 . S
In13 O14 2.294 . S
In13 O15 2.326 . S
In13 O19 2.266 . S
In13 O20 2.326 . S
In13 O21 2.266 . S
In13 O22 2.326 . S
In13 O24 2.294 . S
In13 O25 2.326 . S
O14 In13 2.294 . S
O14 C23 1.240 . S
O15 In13 2.326 . S
O15 C23 1.252 . S
C16 O19 1.252 . S
C16 O20 1.260 . S
C17 O24 1.240 . S
C17 O25 1.252 . S
C18 O21 1.252 . S
C18 O22 1.260 . S
O19 In13 2.266 . S
O19 C16 1.252 . S
O20 In13 2.326 . S
O20 C16 1.260 . S
O21 In13 2.266 . S
O21 C18 1.252 . S
O22 In13 2.326 . S
O22 C18 1.260 . S
C23 O14 1.240 . S
C23 O15 1.252 . S
O24 In13 2.294 . S
O24 C17 1.240 . S
O25 In13 2.326 . S
O25 C17 1.252 . S
In26 O27 2.294 . S
In26 O28 2.326 . S
In26 O32 2.266 . S
In26 O33 2.326 . S
In26 O34 2.266 . S
In26 O35 2.326 . S
In26 O37 2.294 . S
In26 O38 2.326 . S
O27 In26 2.294 . S
O27 C36 1.240 . S
O28 In26 2.326 . S
O28 C36 1.252 . S
C29 O32 1.252 . S
C29 O33 1.260 . S
C30 O37 1.240 . S
C30 O38 1.252 . S
C31 O34 1.252 . S
C31 O35 1.260 . S
O32 In26 2.266 . S
O32 C29 1.252 . S
O33 In26 2.326 . S
O33 C29 1.260 . S
O34 In26 2.266 . S
O34 C31 1.252 . S
O35 In26 2.326 . S
O35 C31 1.260 . S
C36 O27 1.240 . S
C36 O28 1.252 . S
O37 In26 2.294 . S
O37 C30 1.240 . S
O38 In26 2.326 . S
O38 C30 1.252 . S
In39 O40 2.294 . S
In39 O41 2.326 . S
In39 O45 2.266 . S
In39 O46 2.326 . S
In39 O47 2.266 . S
In39 O48 2.326 . S
In39 O50 2.294 . S
In39 O51 2.326 . S
O40 In39 2.294 . S
O40 C49 1.240 . S
O41 In39 2.326 . S
O41 C49 1.252 . S
C42 O45 1.252 . S
C42 O46 1.260 . S
C43 O50 1.240 . S
C43 O51 1.252 . S
C44 O47 1.252 . S
C44 O48 1.260 . S
O45 In39 2.266 . S
O45 C42 1.252 . S
O46 In39 2.326 . S
O46 C42 1.260 . S
O47 In39 2.266 . S
O47 C44 1.252 . S
O48 In39 2.326 . S
O48 C44 1.260 . S
C49 O40 1.240 . S
C49 O41 1.252 . S
O50 In39 2.294 . S
O50 C43 1.240 . S
O51 In39 2.326 . S
O51 C43 1.252 . S
In52 O53 2.294 . S
In52 O54 2.326 . S
In52 O58 2.266 . S
In52 O59 2.326 . S
In52 O60 2.266 . S
In52 O61 2.326 . S
In52 O63 2.294 . S
In52 O64 2.326 . S
O53 In52 2.294 . S
O53 C62 1.240 . S
O54 In52 2.326 . S
O54 C62 1.252 . S
C55 O58 1.252 . S
C55 O59 1.260 . S
C56 O63 1.240 . S
C56 O64 1.252 . S
C57 O60 1.252 . S
C57 O61 1.260 . S
O58 In52 2.266 . S
O58 C55 1.252 . S
O59 In52 2.326 . S
O59 C55 1.260 . S
O60 In52 2.266 . S
O60 C57 1.252 . S
O61 In52 2.326 . S
O61 C57 1.260 . S
C62 O53 1.240 . S
C62 O54 1.252 . S
O63 In52 2.294 . S
O63 C56 1.240 . S
O64 In52 2.326 . S
O64 C56 1.252 . S
In65 O66 2.294 . S
In65 O67 2.326 . S
In65 O71 2.266 . S
In65 O72 2.326 . S
In65 O73 2.266 . S
In65 O74 2.326 . S
In65 O76 2.294 . S
In65 O77 2.326 . S
O66 In65 2.294 . S
O66 C75 1.240 . S
O67 In65 2.326 . S
O67 C75 1.252 . S
C68 O71 1.252 . S
C68 O72 1.260 . S
C69 O76 1.240 . S
C69 O77 1.252 . S
C70 O73 1.252 . S
C70 O74 1.260 . S
O71 In65 2.266 . S
O71 C68 1.252 . S
O72 In65 2.326 . S
O72 C68 1.260 . S
O73 In65 2.266 . S
O73 C70 1.252 . S
O74 In65 2.326 . S
O74 C70 1.260 . S
C75 O66 1.240 . S
C75 O67 1.252 . S
O76 In65 2.294 . S
O76 C69 1.240 . S
O77 In65 2.326 . S
O77 C69 1.252 . S
In78 O79 2.294 . S
In78 O80 2.326 . S
In78 O84 2.266 . S
In78 O85 2.326 . S
In78 O86 2.266 . S
In78 O87 2.326 . S
In78 O89 2.294 . S
In78 O90 2.326 . S
O79 In78 2.294 . S
O79 C88 1.240 . S
O80 In78 2.326 . S
O80 C88 1.252 . S
C81 O84 1.252 . S
C81 O85 1.260 . S
C82 O89 1.240 . S
C82 O90 1.252 . S
C83 O86 1.252 . S
C83 O87 1.260 . S
O84 In78 2.266 . S
O84 C81 1.252 . S
O85 In78 2.326 . S
O85 C81 1.260 . S
O86 In78 2.266 . S
O86 C83 1.252 . S
O87 In78 2.326 . S
O87 C83 1.260 . S
C88 O79 1.240 . S
C88 O80 1.252 . S
O89 In78 2.294 . S
O89 C82 1.240 . S
O90 In78 2.326 . S
O90 C82 1.252 . S
In91 O92 2.294 . S
In91 O93 2.326 . S
In91 O97 2.266 . S
In91 O98 2.326 . S
In91 O99 2.266 . S
In91 O100 2.326 . S
In91 O102 2.294 . S
In91 O103 2.326 . S
O92 In91 2.294 . S
O92 C101 1.240 . S
O93 In91 2.326 . S
O93 C101 1.252 . S
C94 O97 1.252 . S
C94 O98 1.260 . S
C95 O102 1.240 . S
C95 O103 1.252 . S
C96 O99 1.252 . S
C96 O100 1.260 . S
O97 In91 2.266 . S
O97 C94 1.252 . S
O98 In91 2.326 . S
O98 C94 1.260 . S
O99 In91 2.266 . S
O99 C96 1.252 . S
O100 In91 2.326 . S
O100 C96 1.260 . S
C101 O92 1.240 . S
C101 O93 1.252 . S
O102 In91 2.294 . S
O102 C95 1.240 . S
O103 In91 2.326 . S
O103 C95 1.252 . S
In104 O105 2.294 . S
In104 O106 2.326 . S
In104 O110 2.266 . S
In104 O111 2.326 . S
In104 O112 2.266 . S
In104 O113 2.326 . S
In104 O115 2.294 . S
In104 O116 2.326 . S
O105 In104 2.294 . S
O105 C114 1.240 . S
O106 In104 2.326 . S
O106 C114 1.252 . S
C107 O110 1.252 . S
C107 O111 1.260 . S
C108 O115 1.240 . S
C108 O116 1.252 . S
C109 O112 1.252 . S
C109 O113 1.260 . S
O110 In104 2.266 . S
O110 C107 1.252 . S
O111 In104 2.326 . S
O111 C107 1.260 . S
O112 In104 2.266 . S
O112 C109 1.252 . S
O113 In104 2.326 . S
O113 C109 1.260 . S
C114 O105 1.240 . S
C114 O106 1.252 . S
O115 In104 2.294 . S
O115 C108 1.240 . S
O116 In104 2.326 . S
O116 C108 1.252 . S
In117 O118 2.294 . S
In117 O119 2.326 . S
In117 O123 2.266 . S
In117 O124 2.326 . S
In117 O125 2.266 . S
In117 O126 2.326 . S
In117 O128 2.294 . S
In117 O129 2.326 . S
O118 In117 2.294 . S
O118 C127 1.240 . S
O119 In117 2.326 . S
O119 C127 1.252 . S
C120 O123 1.252 . S
C120 O124 1.260 . S
C121 O128 1.240 . S
C121 O129 1.252 . S
C122 O125 1.252 . S
C122 O126 1.260 . S
O123 In117 2.266 . S
O123 C120 1.252 . S
O124 In117 2.326 . S
O124 C120 1.260 . S
O125 In117 2.266 . S
O125 C122 1.252 . S
O126 In117 2.326 . S
O126 C122 1.260 . S
C127 O118 1.240 . S
C127 O119 1.252 . S
O128 In117 2.294 . S
O128 C121 1.240 . S
O129 In117 2.326 . S
O129 C121 1.252 . S
In130 O131 2.294 . S
In130 O132 2.326 . S
In130 O136 2.266 . S
In130 O137 2.326 . S
In130 O138 2.266 . S
In130 O139 2.326 . S
In130 O141 2.294 . S
In130 O142 2.326 . S
O131 In130 2.294 . S
O131 C140 1.240 . S
O132 In130 2.326 . S
O132 C140 1.252 . S
C133 O136 1.252 . S
C133 O137 1.260 . S
C134 O141 1.240 . S
C134 O142 1.252 . S
C135 O138 1.252 . S
C135 O139 1.260 . S
O136 In130 2.266 . S
O136 C133 1.252 . S
O137 In130 2.326 . S
O137 C133 1.260 . S
O138 In130 2.266 . S
O138 C135 1.252 . S
O139 In130 2.326 . S
O139 C135 1.260 . S
C140 O131 1.240 . S
C140 O132 1.252 . S
O141 In130 2.294 . S
O141 C134 1.240 . S
O142 In130 2.326 . S
O142 C134 1.252 . S
In143 O144 2.294 . S
In143 O145 2.326 . S
In143 O149 2.266 . S
In143 O150 2.326 . S
In143 O151 2.266 . S
In143 O152 2.326 . S
In143 O154 2.294 . S
In143 O155 2.326 . S
O144 In143 2.294 . S
O144 C153 1.240 . S
O145 In143 2.326 . S
O145 C153 1.252 . S
C146 O149 1.252 . S
C146 O150 1.260 . S
C147 O154 1.240 . S
C147 O155 1.252 . S
C148 O151 1.252 . S
C148 O152 1.260 . S
O149 In143 2.266 . S
O149 C146 1.252 . S
O150 In143 2.326 . S
O150 C146 1.260 . S
O151 In143 2.266 . S
O151 C148 1.252 . S
O152 In143 2.326 . S
O152 C148 1.260 . S
C153 O144 1.240 . S
C153 O145 1.252 . S
O154 In143 2.294 . S
O154 C147 1.240 . S
O155 In143 2.326 . S
O155 C147 1.252 . S
In156 O157 2.294 . S
In156 O158 2.326 . S
In156 O162 2.266 . S
In156 O163 2.326 . S
In156 O164 2.266 . S
In156 O165 2.326 . S
In156 O167 2.294 . S
In156 O168 2.326 . S
O157 In156 2.294 . S
O157 C166 1.240 . S
O158 In156 2.326 . S
O158 C166 1.252 . S
C159 O162 1.252 . S
C159 O163 1.260 . S
C160 O167 1.240 . S
C160 O168 1.252 . S
C161 O164 1.252 . S
C161 O165 1.260 . S
O162 In156 2.266 . S
O162 C159 1.252 . S
O163 In156 2.326 . S
O163 C159 1.260 . S
O164 In156 2.266 . S
O164 C161 1.252 . S
O165 In156 2.326 . S
O165 C161 1.260 . S
C166 O157 1.240 . S
C166 O158 1.252 . S
O167 In156 2.294 . S
O167 C160 1.240 . S
O168 In156 2.326 . S
O168 C160 1.252 . S
In169 O170 2.294 . S
In169 O171 2.326 . S
In169 O175 2.266 . S
In169 O176 2.326 . S
In169 O177 2.266 . S
In169 O178 2.326 . S
In169 O180 2.294 . S
In169 O181 2.326 . S
O170 In169 2.294 . S
O170 C179 1.240 . S
O171 In169 2.326 . S
O171 C179 1.252 . S
C172 O175 1.252 . S
C172 O176 1.260 . S
C173 O180 1.240 . S
C173 O181 1.252 . S
C174 O177 1.252 . S
C174 O178 1.260 . S
O175 In169 2.266 . S
O175 C172 1.252 . S
O176 In169 2.326 . S
O176 C172 1.260 . S
O177 In169 2.266 . S
O177 C174 1.252 . S
O178 In169 2.326 . S
O178 C174 1.260 . S
C179 O170 1.240 . S
C179 O171 1.252 . S
O180 In169 2.294 . S
O180 C173 1.240 . S
O181 In169 2.326 . S
O181 C173 1.252 . S
In182 O183 2.294 . S
In182 O184 2.326 . S
In182 O188 2.266 . S
In182 O189 2.326 . S
In182 O190 2.266 . S
In182 O191 2.326 . S
In182 O193 2.294 . S
In182 O194 2.326 . S
O183 In182 2.294 . S
O183 C192 1.240 . S
O184 In182 2.326 . S
O184 C192 1.252 . S
C185 O188 1.252 . S
C185 O189 1.260 . S
C186 O193 1.240 . S
C186 O194 1.252 . S
C187 O190 1.252 . S
C187 O191 1.260 . S
O188 In182 2.266 . S
O188 C185 1.252 . S
O189 In182 2.326 . S
O189 C185 1.260 . S
O190 In182 2.266 . S
O190 C187 1.252 . S
O191 In182 2.326 . S
O191 C187 1.260 . S
C192 O183 1.240 . S
C192 O184 1.252 . S
O193 In182 2.294 . S
O193 C186 1.240 . S
O194 In182 2.326 . S
O194 C186 1.252 . S
In195 O196 2.294 . S
In195 O197 2.326 . S
In195 O201 2.266 . S
In195 O202 2.326 . S
In195 O203 2.266 . S
In195 O204 2.326 . S
In195 O206 2.294 . S
In195 O207 2.326 . S
O196 In195 2.294 . S
O196 C205 1.240 . S
O197 In195 2.326 . S
O197 C205 1.252 . S
C198 O201 1.252 . S
C198 O202 1.260 . S
C199 O206 1.240 . S
C199 O207 1.252 . S
C200 O203 1.252 . S
C200 O204 1.260 . S
O201 In195 2.266 . S
O201 C198 1.252 . S
O202 In195 2.326 . S
O202 C198 1.260 . S
O203 In195 2.266 . S
O203 C200 1.252 . S
O204 In195 2.326 . S
O204 C200 1.260 . S
C205 O196 1.240 . S
C205 O197 1.252 . S
O206 In195 2.294 . S
O206 C199 1.240 . S
O207 In195 2.326 . S
O207 C199 1.252 . S
C208 C209 1.387 . S
C208 H212 0.950 . S
C208 C217 1.390 . S
C209 C208 1.387 . S
C209 C211 1.387 . S
H210 C217 0.950 . S
C211 C209 1.387 . S
C211 C213 1.390 . S
C211 H215 0.950 . S
H212 C208 0.950 . S
C213 C211 1.390 . S
C213 C214 1.387 . S
C213 H216 0.950 . S
C214 C213 1.387 . S
C214 C217 1.387 . S
H215 C211 0.950 . S
H216 C213 0.950 . S
C217 C208 1.390 . S
C217 H210 0.950 . S
C217 C214 1.387 . S
C218 C219 1.387 . S
C218 H222 0.950 . S
C218 C227 1.390 . S
C219 C218 1.387 . S
C219 C221 1.387 . S
H220 C227 0.950 . S
C221 C219 1.387 . S
C221 C223 1.390 . S
C221 H225 0.950 . S
H222 C218 0.950 . S
C223 C221 1.390 . S
C223 C224 1.387 . S
C223 H226 0.950 . S
C224 C223 1.387 . S
C224 C227 1.387 . S
H225 C221 0.950 . S
H226 C223 0.950 . S
C227 C218 1.390 . S
C227 H220 0.950 . S
C227 C224 1.387 . S
C228 C229 1.387 . S
C228 H232 0.950 . S
C228 C237 1.390 . S
C229 C228 1.387 . S
C229 C231 1.387 . S
H230 C237 0.950 . S
C231 C229 1.387 . S
C231 C233 1.390 . S
C231 H235 0.950 . S
H232 C228 0.950 . S
C233 C231 1.390 . S
C233 C234 1.387 . S
C233 H236 0.950 . S
C234 C233 1.387 . S
C234 C237 1.387 . S
H235 C231 0.950 . S
H236 C233 0.950 . S
C237 C228 1.390 . S
C237 H230 0.950 . S
C237 C234 1.387 . S
C238 C239 1.387 . S
C238 H242 0.950 . S
C238 C247 1.390 . S
C239 C238 1.387 . S
C239 C241 1.387 . S
H240 C247 0.950 . S
C241 C239 1.387 . S
C241 C243 1.390 . S
C241 H245 0.950 . S
H242 C238 0.950 . S
C243 C241 1.390 . S
C243 C244 1.387 . S
C243 H246 0.950 . S
C244 C243 1.387 . S
C244 C247 1.387 . S
H245 C241 0.950 . S
H246 C243 0.950 . S
C247 C238 1.390 . S
C247 H240 0.950 . S
C247 C244 1.387 . S
C248 C249 1.387 . S
C248 H252 0.950 . S
C248 C257 1.390 . S
C249 C248 1.387 . S
C249 C251 1.387 . S
H250 C257 0.950 . S
C251 C249 1.387 . S
C251 C253 1.390 . S
C251 H255 0.950 . S
H252 C248 0.950 . S
C253 C251 1.390 . S
C253 C254 1.387 . S
C253 H256 0.950 . S
C254 C253 1.387 . S
C254 C257 1.387 . S
H255 C251 0.950 . S
H256 C253 0.950 . S
C257 C248 1.390 . S
C257 H250 0.950 . S
C257 C254 1.387 . S
C258 C259 1.387 . S
C258 H262 0.950 . S
C258 C267 1.390 . S
C259 C258 1.387 . S
C259 C261 1.387 . S
H260 C267 0.950 . S
C261 C259 1.387 . S
C261 C263 1.390 . S
C261 H265 0.950 . S
H262 C258 0.950 . S
C263 C261 1.390 . S
C263 C264 1.387 . S
C263 H266 0.950 . S
C264 C263 1.387 . S
C264 C267 1.387 . S
H265 C261 0.950 . S
H266 C263 0.950 . S
C267 C258 1.390 . S
C267 H260 0.950 . S
C267 C264 1.387 . S
C268 C269 1.387 . S
C268 H272 0.950 . S
C268 C277 1.390 . S
C269 C268 1.387 . S
C269 C271 1.387 . S
H270 C277 0.950 . S
C271 C269 1.387 . S
C271 C273 1.390 . S
C271 H275 0.950 . S
H272 C268 0.950 . S
C273 C271 1.390 . S
C273 C274 1.387 . S
C273 H276 0.950 . S
C274 C273 1.387 . S
C274 C277 1.387 . S
H275 C271 0.950 . S
H276 C273 0.950 . S
C277 C268 1.390 . S
C277 H270 0.950 . S
C277 C274 1.387 . S
C278 C279 1.387 . S
C278 H282 0.950 . S
C278 C287 1.390 . S
C279 C278 1.387 . S
C279 C281 1.387 . S
H280 C287 0.950 . S
C281 C279 1.387 . S
C281 C283 1.390 . S
C281 H285 0.950 . S
H282 C278 0.950 . S
C283 C281 1.390 . S
C283 C284 1.387 . S
C283 H286 0.950 . S
C284 C283 1.387 . S
C284 C287 1.387 . S
H285 C281 0.950 . S
H286 C283 0.950 . S
C287 C278 1.390 . S
C287 H280 0.950 . S
C287 C284 1.387 . S
C288 C289 1.387 . S
C288 H292 0.950 . S
C288 C297 1.390 . S
C289 C288 1.387 . S
C289 C291 1.387 . S
H290 C297 0.950 . S
C291 C289 1.387 . S
C291 C293 1.390 . S
C291 H295 0.950 . S
H292 C288 0.950 . S
C293 C291 1.390 . S
C293 C294 1.387 . S
C293 H296 0.950 . S
C294 C293 1.387 . S
C294 C297 1.387 . S
H295 C291 0.950 . S
H296 C293 0.950 . S
C297 C288 1.390 . S
C297 H290 0.950 . S
C297 C294 1.387 . S
C298 C299 1.387 . S
C298 H302 0.950 . S
C298 C307 1.390 . S
C299 C298 1.387 . S
C299 C301 1.387 . S
H300 C307 0.950 . S
C301 C299 1.387 . S
C301 C303 1.390 . S
C301 H305 0.950 . S
H302 C298 0.950 . S
C303 C301 1.390 . S
C303 C304 1.387 . S
C303 H306 0.950 . S
C304 C303 1.387 . S
C304 C307 1.387 . S
H305 C301 0.950 . S
H306 C303 0.950 . S
C307 C298 1.390 . S
C307 H300 0.950 . S
C307 C304 1.387 . S
C308 C309 1.387 . S
C308 H312 0.950 . S
C308 C317 1.390 . S
C309 C308 1.387 . S
C309 C311 1.387 . S
H310 C317 0.950 . S
C311 C309 1.387 . S
C311 C313 1.390 . S
C311 H315 0.950 . S
H312 C308 0.950 . S
C313 C311 1.390 . S
C313 C314 1.387 . S
C313 H316 0.950 . S
C314 C313 1.387 . S
C314 C317 1.387 . S
H315 C311 0.950 . S
H316 C313 0.950 . S
C317 C308 1.390 . S
C317 H310 0.950 . S
C317 C314 1.387 . S
C318 C319 1.387 . S
C318 H322 0.950 . S
C318 C327 1.390 1_554 S
C319 C318 1.387 . S
C319 C321 1.387 . S
H320 C327 0.950 . S
C321 C319 1.387 . S
C321 C323 1.390 1_554 S
C321 H325 0.950 . S
H322 C318 0.950 . S
C323 C321 1.390 1_556 S
C323 C324 1.387 . S
C323 H326 0.950 . S
C324 C323 1.387 . S
C324 C327 1.387 . S
H325 C321 0.950 . S
H326 C323 0.950 . S
C327 C318 1.390 1_556 S
C327 H320 0.950 . S
C327 C324 1.387 . S
C328 C329 1.387 . S
C328 H332 0.950 . S
C328 C337 1.390 1_554 S
C329 C328 1.387 . S
C329 C331 1.387 . S
H330 C337 0.950 . S
C331 C329 1.387 . S
C331 C333 1.390 1_554 S
C331 H335 0.950 . S
H332 C328 0.950 . S
C333 C331 1.390 1_556 S
C333 C334 1.387 . S
C333 H336 0.950 . S
C334 C333 1.387 . S
C334 C337 1.387 . S
H335 C331 0.950 . S
H336 C333 0.950 . S
C337 C328 1.390 1_556 S
C337 H330 0.950 . S
C337 C334 1.387 . S
C338 C339 1.387 . S
C338 H342 0.950 . S
C338 C347 1.390 . S
C339 C338 1.387 . S
C339 C341 1.387 . S
H340 C347 0.950 . S
C341 C339 1.387 . S
C341 C343 1.390 . S
C341 H345 0.950 . S
H342 C338 0.950 . S
C343 C341 1.390 . S
C343 C344 1.387 . S
C343 H346 0.950 . S
C344 C343 1.387 . S
C344 C347 1.387 . S
H345 C341 0.950 . S
H346 C343 0.950 . S
C347 C338 1.390 . S
C347 H340 0.950 . S
C347 C344 1.387 . S
C348 C349 1.387 . S
C348 H352 0.950 . S
C348 C357 1.390 . S
C349 C348 1.387 . S
C349 C351 1.387 . S
H350 C357 0.950 . S
C351 C349 1.387 . S
C351 C353 1.390 . S
C351 H355 0.950 . S
H352 C348 0.950 . S
C353 C351 1.390 . S
C353 C354 1.387 . S
C353 H356 0.950 . S
C354 C353 1.387 . S
C354 C357 1.387 . S
H355 C351 0.950 . S
H356 C353 0.950 . S
C357 C348 1.390 . S
C357 H350 0.950 . S
C357 C354 1.387 . S
C358 C359 1.387 . S
C358 H362 0.950 . S
C358 C367 1.390 . S
C359 C358 1.387 . S
C359 C361 1.387 . S
H360 C367 0.950 . S
C361 C359 1.387 . S
C361 C363 1.390 . S
C361 H365 0.950 . S
H362 C358 0.950 . S
C363 C361 1.390 . S
C363 C364 1.387 . S
C363 H366 0.950 . S
C364 C363 1.387 . S
C364 C367 1.387 . S
H365 C361 0.950 . S
H366 C363 0.950 . S
C367 C358 1.390 . S
C367 H360 0.950 . S
C367 C364 1.387 . S
C368 C369 1.387 . S
C368 H372 0.950 . S
C368 C377 1.390 1_445 S
C369 C368 1.387 . S
C369 C371 1.387 . S
H370 C377 0.950 . S
C371 C369 1.387 . S
C371 C373 1.390 1_445 S
C371 H375 0.950 . S
H372 C368 0.950 . S
C373 C371 1.390 1_665 S
C373 C374 1.387 . S
C373 H376 0.950 . S
C374 C373 1.387 . S
C374 C377 1.387 . S
H375 C371 0.950 . S
H376 C373 0.950 . S
C377 C368 1.390 1_665 S
C377 H370 0.950 . S
C377 C374 1.387 . S
C378 C379 1.387 . S
C378 H382 0.950 . S
C378 C387 1.390 1_455 S
C379 C378 1.387 . S
C379 C381 1.387 . S
H380 C387 0.950 . S
C381 C379 1.387 . S
C381 C383 1.390 1_455 S
C381 H385 0.950 . S
H382 C378 0.950 . S
C383 C381 1.390 1_655 S
C383 C384 1.387 . S
C383 H386 0.950 . S
C384 C383 1.387 . S
C384 C387 1.387 . S
H385 C381 0.950 . S
H386 C383 0.950 . S
C387 C378 1.390 1_655 S
C387 H380 0.950 . S
C387 C384 1.387 . S
C388 C389 1.387 . S
C388 H392 0.950 . S
C388 C397 1.390 . S
C389 C388 1.387 . S
C389 C391 1.387 . S
H390 C397 0.950 . S
C391 C389 1.387 . S
C391 C393 1.390 . S
C391 H395 0.950 . S
H392 C388 0.950 . S
C393 C391 1.390 . S
C393 C394 1.387 . S
C393 H396 0.950 . S
C394 C393 1.387 . S
C394 C397 1.387 . S
H395 C391 0.950 . S
H396 C393 0.950 . S
C397 C388 1.390 . S
C397 H390 0.950 . S
C397 C394 1.387 . S
C398 C399 1.387 . S
C398 H402 0.950 . S
C398 C407 1.390 1_545 S
C399 C398 1.387 . S
C399 C401 1.387 . S
H400 C407 0.950 . S
C401 C399 1.387 . S
C401 C403 1.390 1_545 S
C401 H405 0.950 . S
H402 C398 0.950 . S
C403 C401 1.390 1_565 S
C403 C404 1.387 . S
C403 H406 0.950 . S
C404 C403 1.387 . S
C404 C407 1.387 . S
H405 C401 0.950 . S
H406 C403 0.950 . S
C407 C398 1.390 1_565 S
C407 H400 0.950 . S
C407 C404 1.387 . S
C408 C409 1.387 . S
C408 H412 0.950 . S
C408 C417 1.390 1_455 S
C409 C408 1.387 . S
C409 C411 1.387 . S
H410 C417 0.950 . S
C411 C409 1.387 . S
C411 C413 1.390 1_455 S
C411 H415 0.950 . S
H412 C408 0.950 . S
C413 C411 1.390 1_655 S
C413 C414 1.387 . S
C413 H416 0.950 . S
C414 C413 1.387 . S
C414 C417 1.387 . S
H415 C411 0.950 . S
H416 C413 0.950 . S
C417 C408 1.390 1_655 S
C417 H410 0.950 . S
C417 C414 1.387 . S
C418 C419 1.387 . S
C418 H422 0.950 . S
C418 C427 1.390 . S
C419 C418 1.387 . S
C419 C421 1.387 . S
H420 C427 0.950 . S
C421 C419 1.387 . S
C421 C423 1.390 . S
C421 H425 0.950 . S
H422 C418 0.950 . S
C423 C421 1.390 . S
C423 C424 1.387 . S
C423 H426 0.950 . S
C424 C423 1.387 . S
C424 C427 1.387 . S
H425 C421 0.950 . S
H426 C423 0.950 . S
C427 C418 1.390 . S
C427 H420 0.950 . S
C427 C424 1.387 . S
C428 C429 1.387 . S
C428 H432 0.950 . S
C428 C437 1.390 1_565 S
C429 C428 1.387 . S
C429 C431 1.387 . S
H430 C437 0.950 . S
C431 C429 1.387 . S
C431 C433 1.390 1_565 S
C431 H435 0.950 . S
H432 C428 0.950 . S
C433 C431 1.390 1_545 S
C433 C434 1.387 . S
C433 H436 0.950 . S
C434 C433 1.387 . S
C434 C437 1.387 . S
H435 C431 0.950 . S
H436 C433 0.950 . S
C437 C428 1.390 1_545 S
C437 H430 0.950 . S
C437 C434 1.387 . S
C438 C439 1.387 . S
C438 H442 0.950 . S
C438 C447 1.390 1_445 S
C439 C438 1.387 . S
C439 C441 1.387 . S
H440 C447 0.950 . S
C441 C439 1.387 . S
C441 C443 1.390 1_445 S
C441 H445 0.950 . S
H442 C438 0.950 . S
C443 C441 1.390 1_665 S
C443 C444 1.387 . S
C443 H446 0.950 . S
C444 C443 1.387 . S
C444 C447 1.387 . S
H445 C441 0.950 . S
H446 C443 0.950 . S
C447 C438 1.390 1_665 S
C447 H440 0.950 . S
C447 C444 1.387 . S
C448 C449 1.387 . S
C448 H452 0.950 . S
C448 C457 1.390 1_565 S
C449 C448 1.387 . S
C449 C451 1.387 . S
H450 C457 0.950 . S
C451 C449 1.387 . S
C451 C453 1.390 1_565 S
C451 H455 0.950 . S
H452 C448 0.950 . S
C453 C451 1.390 1_545 S
C453 C454 1.387 . S
C453 H456 0.950 . S
C454 C453 1.387 . S
C454 C457 1.387 . S
H455 C451 0.950 . S
H456 C453 0.950 . S
C457 C448 1.390 1_545 S
C457 H450 0.950 . S
C457 C454 1.387 . S
C458 C459 1.387 . S
C458 H462 0.950 . S
C458 C467 1.390 1_665 S
C459 C458 1.387 . S
C459 C461 1.387 . S
H460 C467 0.950 . S
C461 C459 1.387 . S
C461 C463 1.390 1_665 S
C461 H465 0.950 . S
H462 C458 0.950 . S
C463 C461 1.390 1_445 S
C463 C464 1.387 . S
C463 H466 0.950 . S
C464 C463 1.387 . S
C464 C467 1.387 . S
H465 C461 0.950 . S
H466 C463 0.950 . S
C467 C458 1.390 1_445 S
C467 H460 0.950 . S
C467 C464 1.387 . S
C468 C469 1.387 . S
C468 H472 0.950 . S
C468 C477 1.390 1_455 S
C469 C468 1.387 . S
C469 C471 1.387 . S
H470 C477 0.950 . S
C471 C469 1.387 . S
C471 C473 1.390 1_455 S
C471 H475 0.950 . S
H472 C468 0.950 . S
C473 C471 1.390 1_655 S
C473 C474 1.387 . S
C473 H476 0.950 . S
C474 C473 1.387 . S
C474 C477 1.387 . S
H475 C471 0.950 . S
H476 C473 0.950 . S
C477 C468 1.390 1_655 S
C477 H470 0.950 . S
C477 C474 1.387 . S
C478 C479 1.387 . S
C478 H482 0.950 . S
C478 C487 1.390 . S
C479 C478 1.387 . S
C479 C481 1.387 . S
H480 C487 0.950 . S
C481 C479 1.387 . S
C481 C483 1.390 . S
C481 H485 0.950 . S
H482 C478 0.950 . S
C483 C481 1.390 . S
C483 C484 1.387 . S
C483 H486 0.950 . S
C484 C483 1.387 . S
C484 C487 1.387 . S
H485 C481 0.950 . S
H486 C483 0.950 . S
C487 C478 1.390 . S
C487 H480 0.950 . S
C487 C484 1.387 . S
C488 C489 1.387 . S
C488 H492 0.950 . S
C488 C497 1.390 . S
C489 C488 1.387 . S
C489 C491 1.387 . S
H490 C497 0.950 . S
C491 C489 1.387 . S
C491 C493 1.390 . S
C491 H495 0.950 . S
H492 C488 0.950 . S
C493 C491 1.390 . S
C493 C494 1.387 . S
C493 H496 0.950 . S
C494 C493 1.387 . S
C494 C497 1.387 . S
H495 C491 0.950 . S
H496 C493 0.950 . S
C497 C488 1.390 . S
C497 H490 0.950 . S
C497 C494 1.387 . S
C498 C499 1.387 . S
C498 H502 0.950 . S
C498 C507 1.390 1_545 S
C499 C498 1.387 . S
C499 C501 1.387 . S
H500 C507 0.950 . S
C501 C499 1.387 . S
C501 C503 1.390 1_545 S
C501 H505 0.950 . S
H502 C498 0.950 . S
C503 C501 1.390 1_565 S
C503 C504 1.387 . S
C503 H506 0.950 . S
C504 C503 1.387 . S
C504 C507 1.387 . S
H505 C501 0.950 . S
H506 C503 0.950 . S
C507 C498 1.390 1_565 S
C507 H500 0.950 . S
C507 C504 1.387 . S
C508 C509 1.387 . S
C508 H512 0.950 . S
C508 C517 1.390 1_665 S
C509 C508 1.387 . S
C509 C511 1.387 . S
H510 C517 0.950 . S
C511 C509 1.387 . S
C511 C513 1.390 1_665 S
C511 H515 0.950 . S
H512 C508 0.950 . S
C513 C511 1.390 1_445 S
C513 C514 1.387 . S
C513 H516 0.950 . S
C514 C513 1.387 . S
C514 C517 1.387 . S
H515 C511 0.950 . S
H516 C513 0.950 . S
C517 C508 1.390 1_445 S
C517 H510 0.950 . S
C517 C514 1.387 . S
C518 C519 1.387 . S
C518 H522 0.950 . S
C518 C527 1.390 1_655 S
C519 C518 1.387 . S
C519 C521 1.387 . S
H520 C527 0.950 . S
C521 C519 1.387 . S
C521 C523 1.390 1_655 S
C521 H525 0.950 . S
H522 C518 0.950 . S
C523 C521 1.390 1_455 S
C523 C524 1.387 . S
C523 H526 0.950 . S
C524 C523 1.387 . S
C524 C527 1.387 . S
H525 C521 0.950 . S
H526 C523 0.950 . S
C527 C518 1.390 1_455 S
C527 H520 0.950 . S
C527 C524 1.387 . S
C209 C62 1.557 . S
C214 C10 1.557 . S
C219 C17 1.557 . S
C224 C69 1.557 . S
C229 C88 1.557 . S
C234 C36 1.557 . S
C239 C101 1.557 . S
C244 C43 1.557 . S
C249 C160 1.557 . S
C254 C108 1.557 . S
C259 C127 1.556 . S
C264 C173 1.556 . S
C269 C192 1.557 . S
C274 C140 1.557 . S
C279 C147 1.557 . S
C284 C205 1.557 . S
C289 C3 1.531 . S
C294 C198 1.531 . S
C299 C18 1.531 . S
C304 C161 1.530 . S
C309 C29 1.530 . S
C314 C174 1.530 . S
C319 C185 1.531 . S
C324 C44 1.530 . S
C329 C55 1.530 . S
C334 C120 1.531 . S
C339 C70 1.530 . S
C344 C133 1.531 . S
C349 C148 1.531 . S
C354 C81 1.531 . S
C359 C109 1.530 . S
C364 C94 1.531 . S
C369 C4 1.569 . S
C374 C134 1.569 . S
C379 C153 1.569 . S
C384 C23 1.569 . S
C389 C30 1.569 . S
C394 C114 1.569 . S
C399 C121 1.569 . S
C404 C49 1.569 . S
C409 C56 1.569 . S
C414 C186 1.569 . S
C419 C75 1.570 . S
C424 C199 1.570 . S
C429 C166 1.569 . S
C434 C82 1.569 . S
C439 C179 1.569 . S
C444 C95 1.569 . S
C449 C135 1.461 . S
C454 C5 1.461 . S
C459 C16 1.461 . S
C464 C146 1.461 . S
C469 C31 1.461 . S
C474 C107 1.461 . S
C479 C122 1.461 . S
C484 C42 1.461 . S
C489 C187 1.461 . S
C494 C57 1.461 . S
C499 C200 1.461 . S
C504 C68 1.461 . S
C509 C159 1.461 . S
C514 C83 1.461 . S
C519 C96 1.461 . S
C524 C172 1.461 . S
