# Generated by pormake.
# Topology wla, (5)-cn, num edge types: 1
# Building blocks:
#     Node 0, Type 0, BuildingBlock: BEQFEK_clean_sbu_0, # of connection points: 5
#     Node 1, Type 0, BuildingBlock: BEQFEK_clean_sbu_0, # of connection points: 5
#     Node 2, Type 0, BuildingBlock: BEQFEK_clean_sbu_0, # of connection points: 5
#     Node 3, Type 0, BuildingBlock: BEQFEK_clean_sbu_0, # of connection points: 5
#     Node 4, Type 0, BuildingBlock: BEQFEK_clean_sbu_0, # of connection points: 5
#     Node 5, Type 0, BuildingBlock: BEQFEK_clean_sbu_0, # of connection points: 5
#     Node 6, Type 0, BuildingBlock: BEQFEK_clean_sbu_0, # of connection points: 5
#     Node 7, Type 0, BuildingBlock: BEQFEK_clean_sbu_0, # of connection points: 5
#     Node 8, Type 0, BuildingBlock: BEQFEK_clean_sbu_0, # of connection points: 5
#     Node 9, Type 0, BuildingBlock: BEQFEK_clean_sbu_0, # of connection points: 5
#     Node 10, Type 0, BuildingBlock: BEQFEK_clean_sbu_0, # of connection points: 5
#     Node 11, Type 0, BuildingBlock: BEQFEK_clean_sbu_0, # of connection points: 5
#     Node 12, Type 0, BuildingBlock: BEQFEK_clean_sbu_0, # of connection points: 5
#     Node 13, Type 0, BuildingBlock: BEQFEK_clean_sbu_0, # of connection points: 5
#     Node 14, Type 0, BuildingBlock: BEQFEK_clean_sbu_0, # of connection points: 5
#     Node 15, Type 0, BuildingBlock: BEQFEK_clean_sbu_0, # of connection points: 5
#     Node 16, Type 0, BuildingBlock: BEQFEK_clean_sbu_0, # of connection points: 5
#     Node 17, Type 0, BuildingBlock: BEQFEK_clean_sbu_0, # of connection points: 5
#     Edge 18, Type (0, 0), BuildingBlock: XUDNAN_clean_linker_2, # of connection points: 2
#     Edge 19, Type (0, 0), BuildingBlock: XUDNAN_clean_linker_2, # of connection points: 2
#     Edge 20, Type (0, 0), BuildingBlock: XUDNAN_clean_linker_2, # of connection points: 2
#     Edge 21, Type (0, 0), BuildingBlock: XUDNAN_clean_linker_2, # of connection points: 2
#     Edge 22, Type (0, 0), BuildingBlock: XUDNAN_clean_linker_2, # of connection points: 2
#     Edge 23, Type (0, 0), BuildingBlock: XUDNAN_clean_linker_2, # of connection points: 2
#     Edge 24, Type (0, 0), BuildingBlock: XUDNAN_clean_linker_2, # of connection points: 2
#     Edge 25, Type (0, 0), BuildingBlock: XUDNAN_clean_linker_2, # of connection points: 2
#     Edge 26, Type (0, 0), BuildingBlock: XUDNAN_clean_linker_2, # of connection points: 2
#     Edge 27, Type (0, 0), BuildingBlock: XUDNAN_clean_linker_2, # of connection points: 2
#     Edge 28, Type (0, 0), BuildingBlock: XUDNAN_clean_linker_2, # of connection points: 2
#     Edge 29, Type (0, 0), BuildingBlock: XUDNAN_clean_linker_2, # of connection points: 2
#     Edge 30, Type (0, 0), BuildingBlock: XUDNAN_clean_linker_2, # of connection points: 2
#     Edge 31, Type (0, 0), BuildingBlock: XUDNAN_clean_linker_2, # of connection points: 2
#     Edge 32, Type (0, 0), BuildingBlock: XUDNAN_clean_linker_2, # of connection points: 2
#     Edge 33, Type (0, 0), BuildingBlock: XUDNAN_clean_linker_2, # of connection points: 2
#     Edge 34, Type (0, 0), BuildingBlock: XUDNAN_clean_linker_2, # of connection points: 2
#     Edge 35, Type (0, 0), BuildingBlock: XUDNAN_clean_linker_2, # of connection points: 2
#     Edge 36, Type (0, 0), BuildingBlock: XUDNAN_clean_linker_2, # of connection points: 2
#     Edge 37, Type (0, 0), BuildingBlock: XUDNAN_clean_linker_2, # of connection points: 2
#     Edge 38, Type (0, 0), BuildingBlock: XUDNAN_clean_linker_2, # of connection points: 2
#     Edge 39, Type (0, 0), BuildingBlock: XUDNAN_clean_linker_2, # of connection points: 2
#     Edge 40, Type (0, 0), BuildingBlock: XUDNAN_clean_linker_2, # of connection points: 2
#     Edge 41, Type (0, 0), BuildingBlock: XUDNAN_clean_linker_2, # of connection points: 2
#     Edge 42, Type (0, 0), BuildingBlock: XUDNAN_clean_linker_2, # of connection points: 2
#     Edge 43, Type (0, 0), BuildingBlock: XUDNAN_clean_linker_2, # of connection points: 2
#     Edge 44, Type (0, 0), BuildingBlock: XUDNAN_clean_linker_2, # of connection points: 2
#     Edge 45, Type (0, 0), BuildingBlock: XUDNAN_clean_linker_2, # of connection points: 2
#     Edge 46, Type (0, 0), BuildingBlock: XUDNAN_clean_linker_2, # of connection points: 2
#     Edge 47, Type (0, 0), BuildingBlock: XUDNAN_clean_linker_2, # of connection points: 2
#     Edge 48, Type (0, 0), BuildingBlock: XUDNAN_clean_linker_2, # of connection points: 2
#     Edge 49, Type (0, 0), BuildingBlock: XUDNAN_clean_linker_2, # of connection points: 2
#     Edge 50, Type (0, 0), BuildingBlock: XUDNAN_clean_linker_2, # of connection points: 2
#     Edge 51, Type (0, 0), BuildingBlock: XUDNAN_clean_linker_2, # of connection points: 2
#     Edge 52, Type (0, 0), BuildingBlock: XUDNAN_clean_linker_2, # of connection points: 2
#     Edge 53, Type (0, 0), BuildingBlock: XUDNAN_clean_linker_2, # of connection points: 2
#     Edge 54, Type (0, 0), BuildingBlock: XUDNAN_clean_linker_2, # of connection points: 2
#     Edge 55, Type (0, 0), BuildingBlock: XUDNAN_clean_linker_2, # of connection points: 2
#     Edge 56, Type (0, 0), BuildingBlock: XUDNAN_clean_linker_2, # of connection points: 2
#     Edge 57, Type (0, 0), BuildingBlock: XUDNAN_clean_linker_2, # of connection points: 2
#     Edge 58, Type (0, 0), BuildingBlock: XUDNAN_clean_linker_2, # of connection points: 2
#     Edge 59, Type (0, 0), BuildingBlock: XUDNAN_clean_linker_2, # of connection points: 2
#     Edge 60, Type (0, 0), BuildingBlock: XUDNAN_clean_linker_2, # of connection points: 2
#     Edge 61, Type (0, 0), BuildingBlock: XUDNAN_clean_linker_2, # of connection points: 2
#     Edge 62, Type (0, 0), BuildingBlock: XUDNAN_clean_linker_2, # of connection points: 2
# Relax obj value: 0.269
# Max RMSD: 0.180
# Mean RMSD: 0.180
data_MOF--net-wla--node1-BEQFEK_clean_sbu_0--edge1-XUDNAN_clean_linker_2
_symmetry_space_group_name_H-M    P1
_symmetry_Int_Tables_number       1
_symmetry_cell_setting            triclinic
loop_
_symmetry_equiv_pos_as_xyz
'x, y, z'
_cell_length_a     63.303976
_cell_length_b     63.314881
_cell_length_c     30.139409
_cell_angle_alpha  90.013125
_cell_angle_beta   89.979631
_cell_angle_gamma 120.05983
loop_
_atom_site_label
_atom_site_type_symbol
_atom_site_fract_x
_atom_site_fract_y
_atom_site_fract_z
_atom_type_partial_charge
Co0 Co 0.13414 0.00272 0.28668 0.0
Co1 Co 0.18548 0.04952 0.28512 0.0
C2 C 0.17275 0.00829 0.3492 0.0
O3 O 0.15189 0.995 0.33171 0.0
O4 O 0.18711 0.0299 0.33548 0.0
C5 C 0.09444 0.95226 0.28797 0.0
O6 O 0.11094 0.94631 0.29841 0.0
C7 C 0.23811 0.07658 0.26946 0.0
C8 C 0.24435 0.11357 0.25588 0.0
C9 C 0.25584 0.0998 0.25591 0.0
N10 N 0.21715 0.07666 0.27579 0.0
N11 N 0.22113 0.09895 0.26878 0.0
C12 C 0.23985 0.05385 0.27109 0.0
H13 H 0.22137 0.03741 0.2713 0.0
H14 H 0.25035 0.05303 0.2423 0.0
H15 H 0.24946 0.05393 0.30192 0.0
C16 C 0.14329 0.00487 0.18999 0.0
N17 N 0.15086 0.01219 0.23189 0.0
N18 N 0.17304 0.03126 0.23122 0.0
C19 C 0.18053 0.03638 0.18864 0.0
C20 C 0.16186 0.02001 0.16096 0.0
C21 C 0.11763 0.98604 0.17839 0.0
H22 H 0.1047 0.98882 0.19898 0.0
H23 H 0.11481 0.96766 0.18602 0.0
H24 H 0.11346 0.98685 0.14292 0.0
O25 O 0.12878 0.029 0.30862 0.0
O26 O 0.16445 0.06318 0.30191 0.0
H27 H 0.20686 0.07452 0.18428 0.0
H28 H 0.20831 0.05664 0.13865 0.0
C29 C 0.20505 0.05678 0.17471 0.0
H30 H 0.21938 0.05478 0.1917 0.0
H31 H 0.20769 0.10386 0.27049 0.0
O32 O 0.10098 0.97442 0.28034 0.0
C33 C 0.14186 0.05208 0.31161 0.0
Co34 Co -0.00067 0.13004 0.28622 0.0
Co35 Co 0.95546 0.13843 0.27173 0.0
C36 C 0.99062 0.1636 0.34467 0.0
O37 O 0.0032 0.15395 0.33288 0.0
O38 O 0.97137 0.15915 0.32382 0.0
C39 C 0.04963 0.13556 0.28765 0.0
O40 O 0.06036 0.1575 0.27012 0.0
C41 C 0.92828 0.16338 0.2514 0.0
C42 C 0.893 0.13247 0.2291 0.0
C43 C 0.9054 0.15755 0.23523 0.0
N44 N 0.92921 0.14271 0.25413 0.0
N45 N 0.90802 0.12428 0.24129 0.0
C46 C 0.94979 0.18809 0.26039 0.0
H47 H 0.96693 0.18734 0.25982 0.0
H48 H 0.9509 0.20149 0.23542 0.0
H49 H 0.94785 0.19426 0.29383 0.0
C50 C 0.0039 0.13847 0.18818 0.0
N51 N -0.00485 0.13947 0.22852 0.0
N52 N 0.97748 0.14454 0.22353 0.0
C53 C 0.97514 0.14791 0.18012 0.0
C54 C 0.99134 0.14363 0.15602 0.0
C55 C 0.02102 0.12901 0.1804 0.0
H56 H 0.01865 0.11565 0.2065 0.0
H57 H 0.04005 0.14447 0.18192 0.0
H58 H 0.01801 0.12025 0.14733 0.0
O59 O 0.97086 0.09797 0.29943 0.0
O60 O 0.93952 0.10368 0.28901 0.0
H61 H 0.93837 0.13825 0.16455 0.0
H62 H 0.96089 0.16009 0.12662 0.0
C63 C 0.95702 0.15426 0.1618 0.0
H64 H 0.95784 0.16949 0.18108 0.0
H65 H 0.90397 0.10616 0.24003 0.0
O66 O 0.02667 0.12381 0.29318 0.0
C67 C 0.94801 0.08989 0.29893 0.0
Co68 Co 0.87536 0.87275 0.28313 0.0
Co69 Co 0.86656 0.82067 0.26422 0.0
C70 C 0.84211 0.8307 0.33982 0.0
O71 O 0.85184 0.85309 0.32948 0.0
O72 O 0.84656 0.81609 0.31824 0.0
C73 C 0.86534 0.91184 0.29978 0.0
O74 O 0.84288 0.89451 0.30812 0.0
C75 C 0.83729 0.77091 0.23205 0.0
C76 C 0.86509 0.75994 0.2226 0.0
C77 C 0.8404 0.7518 0.21745 0.0
N78 N 0.85911 0.78932 0.24473 0.0
N79 N 0.87564 0.78262 0.23945 0.0
C80 C 0.81466 0.77283 0.23107 0.0
H81 H 0.81935 0.79219 0.23305 0.0
H82 H 0.80405 0.7644 0.2004 0.0
H83 H 0.80317 0.76313 0.26022 0.0
C84 C 0.86247 0.86992 0.18861 0.0
N85 N 0.86395 0.85945 0.22641 0.0
N86 N 0.86107 0.83781 0.21748 0.0
C87 C 0.85818 0.83407 0.17324 0.0
C88 C 0.85881 0.85424 0.15357 0.0
C89 C 0.86635 0.89523 0.18597 0.0
H90 H 0.85437 0.8972 0.2104 0.0
H91 H 0.86221 0.89937 0.1524 0.0
H92 H 0.88557 0.90855 0.19465 0.0
O93 O 0.90772 0.87552 0.29289 0.0
O94 O 0.90147 0.83835 0.27967 0.0
H95 H 0.86482 0.81855 0.11436 0.0
H96 H 0.84087 0.79724 0.15007 0.0
C97 C 0.8592 0.81381 0.14948 0.0
H98 H 0.8723 0.80967 0.16616 0.0
H99 H 0.89414 0.7937 0.24645 0.0
O100 O 0.88114 0.90624 0.28765 0.0
C101 C 0.91558 0.86057 0.29006 0.0
Co102 Co 0.01264 0.13488 0.70163 0.0
Co103 Co 0.05791 0.18508 0.72474 0.0
C104 C 0.02475 0.17901 0.6488 0.0
O105 O 0.0101 0.15683 0.65853 0.0
O106 O 0.04442 0.19179 0.67031 0.0
C107 C 0.96184 0.09815 0.69031 0.0
O108 O 0.95747 0.11636 0.69099 0.0
C109 C 0.08255 0.23635 0.74903 0.0
C110 C 0.11726 0.24217 0.77735 0.0
C111 C 0.10413 0.25388 0.76871 0.0
N112 N 0.08301 0.21542 0.74645 0.0
N113 N 0.10387 0.21902 0.76299 0.0
C114 C 0.06064 0.2383 0.73702 0.0
H115 H 0.04401 0.21997 0.73657 0.0
H116 H 0.05807 0.25015 0.76095 0.0
H117 H 0.06322 0.24632 0.70335 0.0
C118 C 0.00329 0.13557 0.79751 0.0
N119 N 0.01575 0.14641 0.76028 0.0
N120 N 0.03394 0.16826 0.76993 0.0
C121 C 0.03312 0.17238 0.81371 0.0
C122 C 0.0137 0.1517 0.8328 0.0
C123 C 0.98383 0.10923 0.79982 0.0
H124 H 0.98836 0.09828 0.77715 0.0
H125 H 0.96618 0.10733 0.78921 0.0
H126 H 0.98185 0.10183 0.83388 0.0
O127 O 0.04067 0.1308 0.68725 0.0
O128 O 0.07323 0.16545 0.70804 0.0
H129 H 0.06866 0.19753 0.83875 0.0
H130 H 0.04397 0.19709 0.87002 0.0
C131 C 0.05038 0.19583 0.83644 0.0
H132 H 0.05208 0.21133 0.81679 0.0
H133 H 0.10874 0.20556 0.76525 0.0
O134 O 0.98357 0.1024 0.69479 0.0
C135 C 0.06364 0.14391 0.69233 0.0
Co136 Co 0.86731 0.87883 0.7 0.0
Co137 Co 0.81646 0.87313 0.72077 0.0
C138 C 0.82433 0.84765 0.64357 0.0
O139 O 0.84669 0.85615 0.65334 0.0
O140 O 0.8107 0.85288 0.66665 0.0
C141 C 0.90564 0.86723 0.68438 0.0
O142 O 0.88801 0.84502 0.67524 0.0
C143 C 0.76674 0.8459 0.7543 0.0
C144 C 0.75816 0.87519 0.76685 0.0
C145 C 0.7488 0.85024 0.77104 0.0
N146 N 0.78572 0.86729 0.74133 0.0
N147 N 0.78041 0.8847 0.74835 0.0
C148 C 0.76715 0.82246 0.75411 0.0
H149 H 0.78613 0.82606 0.75088 0.0
H150 H 0.75877 0.81194 0.7849 0.0
H151 H 0.75657 0.81133 0.72523 0.0
C152 C 0.86431 0.86574 0.79456 0.0
N153 N 0.85403 0.86796 0.75709 0.0
N154 N 0.83306 0.86648 0.76674 0.0
C155 C 0.82958 0.86376 0.81105 0.0
C156 C 0.84921 0.86305 0.83006 0.0
C157 C 0.88896 0.86794 0.79651 0.0
H158 H 0.90309 0.88679 0.78735 0.0
H159 H 0.88975 0.85523 0.77217 0.0
H160 H 0.89296 0.86355 0.82999 0.0
O161 O 0.87159 0.91166 0.68983 0.0
O162 O 0.83559 0.90796 0.70487 0.0
H163 H 0.80715 0.88007 0.81927 0.0
H164 H 0.81537 0.87148 0.87059 0.0
C165 C 0.81026 0.86616 0.83546 0.0
H166 H 0.793 0.84839 0.83487 0.0
H167 H 0.79225 0.90313 0.74177 0.0
O168 O 0.90043 0.88339 0.69581 0.0
C169 C 0.85779 0.92087 0.69316 0.0
Co170 Co 0.12741 0.99095 0.70918 0.0
Co171 Co 0.1306 0.94504 0.73617 0.0
C172 C 0.15496 0.97215 0.65471 0.0
O173 O 0.14751 0.98706 0.66309 0.0
O174 O 0.14996 0.95422 0.68033 0.0
C175 C 0.11673 0.02541 0.67102 0.0
O176 O 0.10159 0.00648 0.64705 0.0
C177 C 0.14829 0.913 0.76999 0.0
C178 C 0.11773 0.88917 0.81447 0.0
C179 C 0.14084 0.89465 0.80129 0.0
N180 N 0.13036 0.91831 0.76507 0.0
N181 N 0.11193 0.90357 0.79091 0.0
C182 C 0.17306 0.92726 0.74945 0.0
H183 H 0.17661 0.94554 0.73886 0.0
H184 H 0.18738 0.92921 0.77307 0.0
H185 H 0.17389 0.91727 0.71987 0.0
C186 C 0.1418 0.00378 0.80253 0.0
N187 N 0.13808 0.98965 0.76672 0.0
N188 N 0.14161 0.97154 0.77734 0.0
C189 C 0.14897 0.97429 0.82006 0.0
C190 C 0.14901 0.99465 0.8378 0.0
C191 C 0.13534 0.02353 0.80395 0.0
H192 H 0.11956 0.0188 0.78191 0.0
H193 H 0.15111 0.04083 0.79195 0.0
H194 H 0.13058 0.0263 0.83804 0.0
O195 O 0.09304 0.96524 0.7027 0.0
O196 O 0.09581 0.93272 0.72044 0.0
H197 H 0.14043 0.94105 0.85316 0.0
H198 H 0.16813 0.96739 0.87251 0.0
C199 C 0.15678 0.95833 0.84289 0.0
H200 H 0.16773 0.95408 0.81986 0.0
H201 H 0.09597 0.90441 0.79453 0.0
O202 O 0.13006 0.02299 0.69963 0.0
C203 C 0.08325 0.94231 0.7082 0.0
Co204 Co 0.80715 0.34696 0.62657 0.0
Co205 Co 0.85818 0.3938 0.62192 0.0
C206 C 0.84503 0.35729 0.69492 0.0
O207 O 0.82417 0.343 0.67821 0.0
O208 O 0.85947 0.37771 0.677 0.0
C209 C 0.76859 0.29649 0.6352 0.0
O210 O 0.78518 0.2923 0.65257 0.0
C211 C 0.91099 0.42029 0.61393 0.0
C212 C 0.91811 0.45513 0.58417 0.0
C213 C 0.92929 0.44193 0.59602 0.0
N214 N 0.88989 0.4204 0.61138 0.0
N215 N 0.89432 0.44153 0.5947 0.0
C216 C 0.91316 0.39951 0.63252 0.0
H217 H 0.9007 0.38242 0.61456 0.0
H218 H 0.93216 0.40303 0.63105 0.0
H219 H 0.90727 0.39676 0.66772 0.0
C220 C 0.81838 0.34444 0.53197 0.0
N221 N 0.82515 0.35334 0.57338 0.0
N222 N 0.84757 0.37197 0.57254 0.0
C223 C 0.85629 0.37474 0.53087 0.0
C224 C 0.83794 0.35779 0.5034 0.0
C225 C 0.79256 0.32646 0.5195 0.0
H226 H 0.77978 0.32948 0.54001 0.0
H227 H 0.78903 0.30772 0.52603 0.0
H228 H 0.78886 0.328 0.48406 0.0
O229 O 0.8004 0.37355 0.63655 0.0
O230 O 0.83606 0.4075 0.62814 0.0
H231 H 0.88359 0.41188 0.51825 0.0
H232 H 0.88636 0.38987 0.48395 0.0
C233 C 0.88167 0.39348 0.51747 0.0
H234 H 0.89482 0.39309 0.54098 0.0
H235 H 0.88091 0.44612 0.58833 0.0
O236 O 0.77469 0.31774 0.62148 0.0
C237 C 0.81311 0.39667 0.63465 0.0
Co238 Co 0.65313 0.45538 0.59367 0.0
Co239 Co 0.60741 0.46139 0.60291 0.0
C240 C 0.64862 0.48438 0.66671 0.0
O241 O 0.66111 0.47709 0.64555 0.0
O242 O 0.62727 0.47872 0.65453 0.0
C243 C 0.6865 0.44077 0.61133 0.0
O244 O 0.67008 0.42943 0.64243 0.0
C245 C 0.58481 0.49106 0.60536 0.0
C246 C 0.54687 0.46542 0.58509 0.0
C247 C 0.56298 0.48978 0.59446 0.0
N248 N 0.58197 0.46871 0.60122 0.0
N249 N 0.55908 0.45325 0.5904 0.0
C250 C 0.60848 0.51327 0.61757 0.0
H251 H 0.62323 0.51494 0.59537 0.0
H252 H 0.6073 0.53015 0.61629 0.0
H253 H 0.6134 0.51111 0.65191 0.0
C254 C 0.65127 0.47024 0.50178 0.0
N255 N 0.64427 0.46751 0.54453 0.0
N256 N 0.62556 0.47102 0.54862 0.0
C257 C 0.62051 0.47688 0.50854 0.0
C258 C 0.63644 0.47634 0.47739 0.0
C259 C 0.66911 0.46332 0.48414 0.0
H260 H 0.66773 0.44772 0.50323 0.0
H261 H 0.68788 0.47901 0.48811 0.0
H262 H 0.66583 0.45819 0.44858 0.0
O263 O 0.62582 0.42201 0.60579 0.0
O264 O 0.5929 0.42587 0.61098 0.0
H265 H 0.58257 0.46584 0.5054 0.0
H266 H 0.60144 0.48977 0.46637 0.0
C267 C 0.60055 0.48251 0.50018 0.0
H268 H 0.60238 0.49659 0.52385 0.0
H269 H 0.55219 0.43474 0.5842 0.0
O270 O 0.68302 0.45363 0.58315 0.0
C271 C 0.60289 0.41273 0.61121 0.0
Co272 Co 0.54666 0.19997 0.59337 0.0
Co273 Co 0.54429 0.14963 0.58948 0.0
C274 C 0.51731 0.15956 0.65901 0.0
O275 O 0.52504 0.18083 0.64313 0.0
O276 O 0.52322 0.14477 0.64215 0.0
C277 C 0.53048 0.23521 0.6031 0.0
O278 O 0.51033 0.21734 0.62018 0.0
C279 C 0.53 0.09765 0.57479 0.0
C280 C 0.56489 0.10315 0.5477 0.0
C281 C 0.54116 0.08531 0.55722 0.0
N282 N 0.54644 0.12165 0.57472 0.0
N283 N 0.56726 0.12471 0.55896 0.0
C284 C 0.50466 0.08708 0.59279 0.0
H285 H 0.50389 0.0994 0.61803 0.0
H286 H 0.49201 0.08503 0.56551 0.0
H287 H 0.49848 0.06888 0.60773 0.0
C288 C 0.52976 0.18713 0.50056 0.0
N289 N 0.53617 0.18212 0.54007 0.0
N290 N 0.53457 0.1606 0.53833 0.0
C291 C 0.52695 0.15115 0.4974 0.0
C292 C 0.52366 0.16765 0.47218 0.0
C293 C 0.5289 0.20987 0.49099 0.0
H294 H 0.51646 0.21141 0.51502 0.0
H295 H 0.52244 0.20996 0.45683 0.0
H296 H 0.54736 0.22597 0.49571 0.0
O297 O 0.58101 0.2095 0.60614 0.0
O298 O 0.57812 0.17325 0.60575 0.0
H299 H 0.54185 0.12783 0.48661 0.0
H300 H 0.51924 0.12406 0.4463 0.0
C301 C 0.52433 0.12751 0.48185 0.0
H302 H 0.51018 0.11238 0.50193 0.0
H303 H 0.58301 0.14165 0.55484 0.0
O304 O 0.54688 0.231 0.58877 0.0
C305 C 0.59064 0.1962 0.61068 0.0
Co306 Co 0.66959 0.46661 0.0343 0.0
Co307 Co 0.71378 0.51811 0.05627 0.0
C308 C 0.68511 0.50855 0.97278 0.0
O309 O 0.67004 0.48663 0.98388 0.0
O310 O 0.70321 0.52243 0.99716 0.0
C311 C 0.61942 0.42781 0.01891 0.0
O312 O 0.61425 0.4452 0.01184 0.0
C313 C 0.7382 0.57029 0.07367 0.0
C314 C 0.77056 0.57632 0.1119 0.0
C315 C 0.75854 0.58795 0.09589 0.0
N316 N 0.73801 0.54906 0.077 0.0
N317 N 0.75754 0.5528 0.09934 0.0
C318 C 0.71953 0.57335 0.04841 0.0
H319 H 0.70097 0.558 0.05584 0.0
H320 H 0.72061 0.59103 0.05566 0.0
H321 H 0.72274 0.57263 0.01238 0.0
C322 C 0.65467 0.47258 0.12434 0.0
N323 N 0.66951 0.48117 0.08885 0.0
N324 N 0.6873 0.50346 0.09715 0.0
C325 C 0.68389 0.51012 0.13782 0.0
C326 C 0.66319 0.4907 0.15658 0.0
C327 C 0.63471 0.44658 0.12911 0.0
H328 H 0.64006 0.43429 0.11271 0.0
H329 H 0.61796 0.44425 0.11283 0.0
H330 H 0.63062 0.44115 0.16444 0.0
O331 O 0.69817 0.46231 0.03089 0.0
O332 O 0.72958 0.49804 0.05066 0.0
H333 H 0.71822 0.53704 0.16496 0.0
H334 H 0.69215 0.53749 0.18881 0.0
C335 C 0.69998 0.53474 0.15793 0.0
H336 H 0.70224 0.54902 0.13421 0.0
H337 H 0.76167 0.53919 0.10687 0.0
O338 O 0.64111 0.43339 0.02874 0.0
C339 C 0.72079 0.4759 0.03894 0.0
Co340 Co 0.52823 0.20652 0.03214 0.0
Co341 Co 0.47623 0.19995 0.04123 0.0
C342 C 0.49018 0.17935 0.96373 0.0
O343 O 0.51158 0.18729 0.97898 0.0
O344 O 0.47466 0.18292 0.98435 0.0
C345 C 0.5785 0.22597 0.01418 0.0
O346 O 0.57526 0.24156 0.99059 0.0
C347 C 0.42509 0.17106 0.06642 0.0
C348 C 0.41561 0.1996 0.08008 0.0
C349 C 0.4067 0.17469 0.08303 0.0
N350 N 0.44417 0.19289 0.05555 0.0
N351 N 0.43823 0.20983 0.06288 0.0
C352 C 0.42469 0.14739 0.06019 0.0
H353 H 0.43519 0.14831 0.03006 0.0
H354 H 0.43355 0.14399 0.08881 0.0
H355 H 0.40567 0.13199 0.05725 0.0
C356 C 0.51697 0.18532 0.12219 0.0
N357 N 0.51044 0.1918 0.08428 0.0
N358 N 0.48918 0.19045 0.08978 0.0
C359 C 0.48194 0.18392 0.13223 0.0
C360 C 0.49905 0.17999 0.1538 0.0
C361 C 0.54032 0.18512 0.12817 0.0
H362 H 0.55564 0.2042 0.13071 0.0
H363 H 0.54364 0.1766 0.09882 0.0
H364 H 0.53989 0.17496 0.15847 0.0
O365 O 0.53347 0.24021 0.02694 0.0
O366 O 0.49639 0.23553 0.03226 0.0
H367 H 0.46609 0.19091 0.18982 0.0
H368 H 0.44473 0.16783 0.1533 0.0
C369 C 0.46174 0.18576 0.15439 0.0
H370 H 0.45874 0.19963 0.13778 0.0
H371 H 0.45004 0.22848 0.05822 0.0
O372 O 0.56055 0.20907 0.03501 0.0
C373 C 0.51933 0.24912 0.02733 0.0
Co374 Co 0.79686 0.33094 0.05547 0.0
Co375 Co 0.79845 0.28338 0.07278 0.0
C376 C 0.82543 0.31642 0.9974 0.0
O377 O 0.81904 0.33165 0.0093 0.0
O378 O 0.81811 0.29634 0.01772 0.0
C379 C 0.78512 0.36527 0.02328 0.0
O380 O 0.77283 0.34768 0.99456 0.0
C381 C 0.82198 0.25578 0.09531 0.0
C382 C 0.79188 0.2221 0.12454 0.0
C383 C 0.81673 0.23426 0.11616 0.0
N384 N 0.80127 0.25655 0.09208 0.0
N385 N 0.78321 0.23619 0.10883 0.0
C386 C 0.84622 0.27551 0.0787 0.0
H387 H 0.84774 0.29364 0.08289 0.0
H388 H 0.86159 0.27516 0.09562 0.0
H389 H 0.84749 0.27269 0.04268 0.0
C390 C 0.81144 0.33972 0.14903 0.0
N391 N 0.80655 0.32648 0.11172 0.0
N392 N 0.80876 0.30722 0.11918 0.0
C393 C 0.81595 0.30801 0.16167 0.0
C394 C 0.81787 0.32868 0.18203 0.0
C395 C 0.80741 0.361 0.15374 0.0
H396 H 0.79049 0.35715 0.13605 0.0
H397 H 0.82294 0.37735 0.13841 0.0
H398 H 0.80564 0.36492 0.18898 0.0
O399 O 0.76307 0.30493 0.04396 0.0
O400 O 0.76352 0.27087 0.05915 0.0
H401 H 0.80533 0.27156 0.18165 0.0
H402 H 0.82926 0.29489 0.21562 0.0
C403 C 0.82188 0.28993 0.18156 0.0
H404 H 0.83599 0.28925 0.16111 0.0
H405 H 0.76519 0.23238 0.11115 0.0
O406 O 0.79763 0.36233 0.05292 0.0
C407 C 0.75215 0.28181 0.04746 0.0
Co408 Co 0.46841 0.68135 0.95536 0.0
Co409 Co 0.52109 0.72637 0.95327 0.0
C410 C 0.50673 0.68605 0.0188 0.0
O411 O 0.48552 0.67371 0.00214 0.0
O412 O 0.52207 0.70703 0.00398 0.0
C413 C 0.43051 0.6308 0.95277 0.0
O414 O 0.44837 0.62602 0.95663 0.0
C415 C 0.57373 0.75074 0.94025 0.0
C416 C 0.58222 0.78751 0.91866 0.0
C417 C 0.59238 0.77273 0.9241 0.0
N418 N 0.55333 0.75222 0.94272 0.0
N419 N 0.55864 0.77444 0.93087 0.0
C420 C 0.57488 0.72841 0.95252 0.0
H421 H 0.5629 0.71311 0.93018 0.0
H422 H 0.5938 0.73168 0.9511 0.0
H423 H 0.56787 0.72284 0.98676 0.0
C424 C 0.47759 0.6819 0.8591 0.0
N425 N 0.48529 0.68931 0.90089 0.0
N426 N 0.50798 0.70748 0.90011 0.0
C427 C 0.51573 0.71166 0.8576 0.0
C428 C 0.49665 0.69585 0.83003 0.0
C429 C 0.45152 0.6644 0.84739 0.0
H430 H 0.43922 0.66723 0.86968 0.0
H431 H 0.44783 0.64547 0.85216 0.0
H432 H 0.44736 0.66666 0.81258 0.0
O433 O 0.46393 0.7088 0.97345 0.0
O434 O 0.5012 0.74138 0.97007 0.0
H435 H 0.54348 0.74902 0.84901 0.0
H436 H 0.54456 0.72852 0.80831 0.0
C437 C 0.54093 0.73056 0.84356 0.0
H438 H 0.55445 0.72867 0.86366 0.0
H439 H 0.54589 0.78026 0.92897 0.0
O440 O 0.43541 0.65282 0.95019 0.0
C441 C 0.4784 0.73164 0.97728 0.0
Co442 Co 0.33066 0.79969 0.95754 0.0
Co443 Co 0.28325 0.80321 0.95066 0.0
C444 C 0.31986 0.83002 0.02079 0.0
O445 O 0.33349 0.82225 0.00572 0.0
O446 O 0.29919 0.82376 0.0036 0.0
C447 C 0.36885 0.79658 0.99507 0.0
O448 O 0.35633 0.79609 0.03023 0.0
C449 C 0.25206 0.8245 0.93651 0.0
C450 C 0.21906 0.7932 0.90781 0.0
C451 C 0.22936 0.81764 0.91866 0.0
N452 N 0.2551 0.805 0.93596 0.0
N453 N 0.23518 0.78625 0.91945 0.0
C454 C 0.2715 0.84959 0.94973 0.0
H455 H 0.28982 0.85142 0.94643 0.0
H456 H 0.27052 0.86361 0.92914 0.0
H457 H 0.26874 0.85271 0.98496 0.0
C458 C 0.33635 0.81687 0.86431 0.0
N459 N 0.32448 0.81056 0.90343 0.0
N460 N 0.30476 0.81251 0.90069 0.0
C461 C 0.30351 0.82018 0.85954 0.0
C462 C 0.3235 0.82329 0.83527 0.0
C463 C 0.35965 0.81696 0.85551 0.0
H464 H 0.37286 0.82691 0.88252 0.0
H465 H 0.36775 0.82557 0.82315 0.0
H466 H 0.35598 0.79788 0.85568 0.0
O467 O 0.30428 0.76573 0.96983 0.0
O468 O 0.27097 0.76879 0.96569 0.0
H469 H 0.26523 0.80563 0.84949 0.0
H470 H 0.28383 0.82601 0.80633 0.0
C471 C 0.2826 0.82262 0.84258 0.0
H472 H 0.28235 0.83794 0.85986 0.0
H473 H 0.23296 0.76893 0.91467 0.0
O474 O 0.36144 0.79864 0.95695 0.0
C475 C 0.2812 0.75617 0.97207 0.0
Co476 Co 0.21084 0.53844 0.95713 0.0
Co477 Co 0.20385 0.48692 0.93865 0.0
C478 C 0.18023 0.49677 0.01665 0.0
O479 O 0.1891 0.51901 0.00564 0.0
O480 O 0.18459 0.48239 0.99396 0.0
C481 C 0.20161 0.57778 0.97775 0.0
O482 O 0.18041 0.56069 0.9929 0.0
C483 C 0.17633 0.43682 0.9056 0.0
C484 C 0.20503 0.42668 0.90218 0.0
C485 C 0.18055 0.41809 0.89375 0.0
N486 N 0.19747 0.45573 0.91981 0.0
N487 N 0.21452 0.44952 0.91796 0.0
C488 C 0.15249 0.43641 0.90603 0.0
H489 H 0.15339 0.45062 0.92878 0.0
H490 H 0.14828 0.44018 0.87228 0.0
H491 H 0.13754 0.41813 0.91625 0.0
C492 C 0.19622 0.53424 0.86371 0.0
N493 N 0.19845 0.52413 0.90134 0.0
N494 N 0.19677 0.50301 0.89218 0.0
C495 C 0.19416 0.4994 0.84786 0.0
C496 C 0.19351 0.51899 0.82847 0.0
C497 C 0.19906 0.55914 0.86128 0.0
H498 H 0.21844 0.57306 0.86734 0.0
H499 H 0.18784 0.56104 0.8875 0.0
H500 H 0.19336 0.5625 0.82845 0.0
O501 O 0.24371 0.54247 0.96467 0.0
O502 O 0.23907 0.50592 0.95184 0.0
H503 H 0.20463 0.48668 0.78972 0.0
H504 H 0.17952 0.46354 0.82071 0.0
C505 C 0.1974 0.48052 0.8237 0.0
H506 H 0.21013 0.47647 0.84201 0.0
H507 H 0.23269 0.46096 0.92707 0.0
O508 O 0.21623 0.57187 0.96054 0.0
C509 C 0.25254 0.52837 0.96136 0.0
Co510 Co 0.33808 0.81072 0.38914 0.0
Co511 Co 0.38891 0.85798 0.40164 0.0
C512 C 0.35716 0.85352 0.3258 0.0
O513 O 0.34112 0.8323 0.33896 0.0
O514 O 0.37701 0.86625 0.34714 0.0
C515 C 0.30227 0.76664 0.35642 0.0
O516 O 0.31983 0.77284 0.32722 0.0
C517 C 0.42949 0.90791 0.42264 0.0
C518 C 0.45518 0.89815 0.4534 0.0
C519 C 0.45208 0.91779 0.44369 0.0
N520 N 0.41969 0.88354 0.42109 0.0
N521 N 0.4353 0.87795 0.439 0.0
C522 C 0.41759 0.92108 0.40308 0.0
H523 H 0.40505 0.9102 0.37591 0.0
H524 H 0.40668 0.92373 0.42899 0.0
H525 H 0.43152 0.9392 0.39016 0.0
C526 C 0.33219 0.82212 0.48232 0.0
N527 N 0.34467 0.82746 0.44386 0.0
N528 N 0.36583 0.84762 0.44885 0.0
C529 C 0.36736 0.85589 0.49062 0.0
C530 C 0.34611 0.84004 0.51315 0.0
C531 C 0.30772 0.79996 0.48936 0.0
H532 H 0.29512 0.79874 0.4626 0.0
H533 H 0.29989 0.80037 0.52209 0.0
H534 H 0.30955 0.78345 0.48717 0.0
O535 O 0.36083 0.79824 0.38028 0.0
O536 O 0.3963 0.83226 0.38663 0.0
H537 H 0.40527 0.87381 0.50717 0.0
H538 H 0.38735 0.88012 0.54536 0.0
C539 C 0.38971 0.87712 0.50992 0.0
H540 H 0.39417 0.89383 0.49094 0.0
H541 H 0.4321 0.86019 0.4425 0.0
O542 O 0.30523 0.78136 0.38768 0.0
C543 C 0.38399 0.8095 0.37949 0.0
Co544 Co 0.20414 0.54837 0.37536 0.0
Co545 Co 0.15339 0.54241 0.39524 0.0
C546 C 0.1614 0.51632 0.3196 0.0
O547 O 0.18365 0.52489 0.32995 0.0
O548 O 0.14764 0.52204 0.34095 0.0
C549 C 0.24131 0.53534 0.36167 0.0
O550 O 0.22324 0.51292 0.35611 0.0
C551 C 0.10388 0.51511 0.42875 0.0
C552 C 0.09481 0.54416 0.44012 0.0
C553 C 0.08578 0.5193 0.44518 0.0
N554 N 0.12263 0.5365 0.41525 0.0
N555 N 0.11705 0.55377 0.42152 0.0
C556 C 0.10472 0.49189 0.42925 0.0
H557 H 0.12375 0.49573 0.4254 0.0
H558 H 0.09686 0.48173 0.46057 0.0
H559 H 0.0939 0.48029 0.40099 0.0
C560 C 0.20125 0.53562 0.47022 0.0
N561 N 0.19105 0.5378 0.4326 0.0
N562 N 0.16984 0.53588 0.44187 0.0
C563 C 0.16615 0.53294 0.48614 0.0
C564 C 0.18583 0.53245 0.50543 0.0
C565 C 0.22603 0.53814 0.47257 0.0
H566 H 0.23996 0.55672 0.46159 0.0
H567 H 0.2267 0.52477 0.44975 0.0
H568 H 0.23043 0.53479 0.50653 0.0
O569 O 0.20856 0.58132 0.36409 0.0
O570 O 0.17254 0.57729 0.38025 0.0
H571 H 0.14298 0.54846 0.49405 0.0
H572 H 0.15164 0.54039 0.54549 0.0
C573 C 0.14653 0.53489 0.51042 0.0
H574 H 0.12953 0.51689 0.51013 0.0
H575 H 0.12869 0.57217 0.41444 0.0
O576 O 0.23679 0.55227 0.3708 0.0
C577 C 0.19466 0.59037 0.36819 0.0
Co578 Co 0.46016 0.66306 0.37872 0.0
Co579 Co 0.46715 0.61953 0.40499 0.0
C580 C 0.49034 0.64882 0.32355 0.0
O581 O 0.48201 0.66294 0.33224 0.0
O582 O 0.48585 0.63086 0.3486 0.0
C583 C 0.43952 0.69157 0.35003 0.0
O584 O 0.42255 0.67073 0.33345 0.0
C585 C 0.49318 0.59532 0.43521 0.0
C586 C 0.46344 0.56195 0.4661 0.0
C587 C 0.48846 0.57457 0.45895 0.0
N588 N 0.472 0.59498 0.42959 0.0
N589 N 0.45423 0.57486 0.44744 0.0
C590 C 0.5173 0.61651 0.4217 0.0
H591 H 0.51555 0.6328 0.41494 0.0
H592 H 0.53113 0.62095 0.44808 0.0
H593 H 0.52361 0.61181 0.39086 0.0
C594 C 0.47462 0.67689 0.47187 0.0
N595 N 0.47161 0.66285 0.43623 0.0
N596 N 0.47557 0.64507 0.44748 0.0
C597 C 0.48193 0.64764 0.49078 0.0
C598 C 0.48141 0.66785 0.50782 0.0
C599 C 0.46788 0.69645 0.47238 0.0
H600 H 0.45055 0.69012 0.45405 0.0
H601 H 0.48233 0.71289 0.45529 0.0
H602 H 0.46552 0.70137 0.50658 0.0
O603 O 0.42734 0.63452 0.372 0.0
O604 O 0.4319 0.60328 0.39122 0.0
H605 H 0.47253 0.61259 0.51714 0.0
H606 H 0.49576 0.63794 0.54883 0.0
C607 C 0.48865 0.63122 0.51511 0.0
H608 H 0.50321 0.63025 0.49675 0.0
H609 H 0.43597 0.57035 0.44812 0.0
O610 O 0.45765 0.69257 0.37005 0.0
C611 C 0.41854 0.61178 0.37821 0.0
H612 H 0.1505 0.0957 0.27724 0.0
H613 H 0.10507 0.03881 0.37069 0.0
H614 H 0.0801 0.05822 0.38225 0.0
H615 H 0.14523 0.14694 0.33125 0.0
H616 H 0.14358 0.15915 0.27818 0.0
H617 H 0.16107 0.14395 0.2841 0.0
H618 H 0.13633 0.11456 0.2202 0.0
H619 H 0.11861 0.12942 0.21437 0.0
H620 H 0.10351 0.09699 0.22412 0.0
H621 H 0.05671 0.07921 0.37548 0.0
H622 H 0.03572 0.10093 0.35129 0.0
H623 H 0.09511 0.1445 0.26039 0.0
C624 C 0.13587 0.08797 0.3014 0.0
C625 C 0.12984 0.06602 0.32367 0.0
C626 C 0.11003 0.05575 0.35371 0.0
C627 C 0.09583 0.06669 0.36058 0.0
C628 C 0.10165 0.08783 0.33698 0.0
C629 C 0.12123 0.0985 0.30811 0.0
C630 C 0.12151 0.11938 0.28278 0.0
C631 C 0.1442 0.14381 0.29481 0.0
C632 C 0.11988 0.11479 0.2324 0.0
C633 C 0.09845 0.11802 0.30057 0.0
C634 C 0.08762 0.09995 0.33237 0.0
C635 C 0.0652 0.09371 0.35124 0.0
C636 C 0.05334 0.10605 0.33697 0.0
C637 C 0.06381 0.12442 0.30397 0.0
C638 C 0.0869 0.13081 0.28614 0.0
H639 H 0.91158 0.95069 0.30133 0.0
H640 H 0.83558 0.93163 0.30909 0.0
H641 H 0.84842 0.97548 0.31496 0.0
H642 H 0.93494 0.00132 0.37934 0.0
H643 H 0.9628 0.01903 0.3485 0.0
H644 H 0.94746 0.98619 0.3471 0.0
H645 H 0.94575 0.98705 0.2612 0.0
H646 H 0.96113 0.01984 0.26232 0.0
H647 H 0.93208 0.00283 0.23473 0.0
H648 H 0.86995 0.02178 0.31457 0.0
H649 H 0.89815 0.06631 0.30906 0.0
H650 H 0.95965 0.0539 0.30428 0.0
C651 C 0.89758 0.95566 0.30448 0.0
C652 C 0.87258 0.9378 0.30459 0.0
C653 C 0.85486 0.94507 0.309 0.0
C654 C 0.86198 0.96989 0.3124 0.0
C655 C 0.88685 0.98705 0.31191 0.0
C656 C 0.90434 0.98018 0.30836 0.0
C657 C 0.92983 0.00202 0.30745 0.0
C658 C 0.94462 0.00214 0.34802 0.0
C659 C 0.94295 0.00298 0.26383 0.0
C660 C 0.92399 0.02237 0.31002 0.0
C661 C 0.89914 0.01346 0.31275 0.0
C662 C 0.88946 0.02896 0.313 0.0
C663 C 0.90561 0.0542 0.30983 0.0
C664 C 0.93112 0.06361 0.30655 0.0
C665 C 0.9403 0.04738 0.30737 0.0
H666 H 0.9527 0.90801 0.28949 0.0
H667 H 0.9382 0.83355 0.30077 0.0
H668 H 0.98258 0.84876 0.30269 0.0
H669 H 0.00257 0.92826 0.21625 0.0
H670 H 0.01956 0.95837 0.23998 0.0
H671 H 0.98675 0.9418 0.24309 0.0
H672 H 0.98883 0.94645 0.32867 0.0
H673 H 0.02167 0.96328 0.32582 0.0
H674 H 0.00642 0.93648 0.36029 0.0
H675 H 0.02889 0.87236 0.30103 0.0
H676 H 0.07307 0.90243 0.2962 0.0
H677 H 0.05628 0.96075 0.28302 0.0
C678 C 0.95879 0.89489 0.29316 0.0
C679 C 0.94198 0.86961 0.29532 0.0
C680 C 0.95077 0.85303 0.29923 0.0
C681 C 0.97593 0.86148 0.30033 0.0
C682 C 0.99201 0.88652 0.29723 0.0
C683 C 0.98375 0.90296 0.29379 0.0
C684 C 0.00467 0.92883 0.28896 0.0
C685 C 0.00329 0.93996 0.24442 0.0
C686 C 0.00544 0.94469 0.32829 0.0
C687 C 0.02601 0.92439 0.29002 0.0
C688 C 0.01842 0.89993 0.29507 0.0
C689 C 0.03503 0.89158 0.29709 0.0
C690 C 0.06007 0.90875 0.29422 0.0
C691 C 0.06814 0.9339 0.28904 0.0
C692 C 0.05076 0.94165 0.28668 0.0
H693 H 0.0816 0.03258 0.63355 0.0
H694 H 0.15044 0.06997 0.70441 0.0
H695 H 0.14722 0.10725 0.70754 0.0
H696 H 0.08784 0.08655 0.57134 0.0
H697 H 0.05588 0.07646 0.57816 0.0
H698 H 0.06586 0.0544 0.57417 0.0
H699 H 0.04455 0.03535 0.64895 0.0
H700 H 0.0346 0.05732 0.65322 0.0
H701 H 0.05221 0.05451 0.69742 0.0
H702 H 0.13407 0.13861 0.71097 0.0
H703 H 0.11109 0.16056 0.71775 0.0
H704 H 0.05045 0.10196 0.64651 0.0
C705 C 0.09637 0.04883 0.64852 0.0
C706 C 0.11638 0.0485 0.66834 0.0
C707 C 0.135 0.06991 0.68877 0.0
C708 C 0.1334 0.09119 0.69051 0.0
C709 C 0.11308 0.09073 0.67165 0.0
C710 C 0.0949 0.07008 0.65099 0.0
C711 C 0.07357 0.07325 0.63812 0.0
C712 C 0.07063 0.07263 0.58743 0.0
C713 C 0.04985 0.05398 0.6608 0.0
C714 C 0.08215 0.09852 0.65632 0.0
C715 C 0.10519 0.10856 0.67465 0.0
C716 C 0.11617 0.13111 0.69612 0.0
C717 C 0.10299 0.14344 0.69981 0.0
C718 C 0.07898 0.13296 0.68272 0.0
C719 C 0.0688 0.11051 0.65979 0.0
H720 H 0.96604 0.05769 0.67931 0.0
H721 H 0.91241 0.08097 0.6915 0.0
H722 H 0.87928 0.03785 0.68763 0.0
H723 H 0.93121 0.00713 0.60271 0.0
H724 H 0.9417 0.98828 0.62818 0.0
H725 H 0.96086 0.021 0.62858 0.0
H726 H 0.964 0.02039 0.71427 0.0
H727 H 0.9449 0.98773 0.71415 0.0
H728 H 0.93646 0.00614 0.74702 0.0
H729 H 0.85231 0.99182 0.68827 0.0
H730 H 0.83383 0.94703 0.69302 0.0
H731 H 0.9057 0.95484 0.67899 0.0
C732 C 0.94733 0.05382 0.68073 0.0
C733 C 0.94178 0.07268 0.68574 0.0
C734 C 0.91706 0.06679 0.68753 0.0
C735 C 0.89815 0.04238 0.68529 0.0
C736 C 0.90433 0.02421 0.68083 0.0
C737 C 0.92835 0.0297 0.67831 0.0
C738 C 0.93034 0.00693 0.67549 0.0
C739 C 0.94169 0.00577 0.63109 0.0
C740 C 0.94476 0.0052 0.7151 0.0
C741 C 0.90367 0.98765 0.67795 0.0
C742 C 0.8889 -0.0021 0.68069 0.0
C743 C 0.86368 0.9836 0.6856 0.0
C744 C 0.85337 0.95818 0.68831 0.0
C745 C 0.86829 0.94739 0.68619 0.0
C746 C 0.89371 0.96242 0.68024 0.0
H747 H 0.04906 0.95648 0.70004 0.0
H748 H 0.05737 0.89243 0.70099 0.0
H749 H 0.01284 0.86611 0.69112 0.0
H750 H -0.00544 0.93046 0.76305 0.0
H751 H 0.98146 0.94572 0.73292 0.0
H752 H 0.01409 0.9595 0.73696 0.0
H753 H 0.01753 0.96201 0.6512 0.0
H754 H 0.98487 0.94823 0.64689 0.0
H755 H 0.00031 0.93472 0.61864 0.0
H756 H 0.9671 0.84672 0.6827 0.0
H757 H 0.92372 0.83587 0.68007 0.0
H758 H 0.94589 0.91272 0.68719 0.0
C759 C 0.04159 0.93694 0.69769 0.0
C760 C 0.05671 0.92653 0.70103 0.0
C761 C 0.04613 0.90083 0.69846 0.0
C762 C 0.02088 0.88573 0.69272 0.0
C763 C 0.00649 0.8966 0.68983 0.0
C764 C 0.01647 0.92162 0.69242 0.0
C765 C -0.00305 0.92871 0.69062 0.0
C766 C -0.00324 0.94187 0.73344 0.0
C767 C 0.00011 0.94434 0.64938 0.0
C768 C 0.97441 0.90376 0.68704 0.0
C769 C 0.98024 0.88546 0.68614 0.0
C770 C 0.96231 0.86091 0.68331 0.0
C771 C 0.93775 0.85492 0.68177 0.0
C772 C 0.93144 0.87343 0.68357 0.0
C773 C 0.9501 0.89812 0.68592 0.0
H774 H 0.69369 0.40641 0.65135 0.0
H775 H 0.73005 0.47182 0.57058 0.0
H776 H 0.76826 0.47008 0.5739 0.0
H777 H 0.74443 0.41866 0.72212 0.0
H778 H 0.7372 0.38727 0.72322 0.0
H779 H 0.71322 0.39445 0.71623 0.0
H780 H 0.69956 0.36923 0.6434 0.0
H781 H 0.72322 0.36168 0.65058 0.0
H782 H 0.7216 0.37592 0.59992 0.0
H783 H 0.80249 0.46074 0.58629 0.0
H784 H 0.82804 0.44179 0.59841 0.0
H785 H 0.76819 0.38214 0.66917 0.0
C786 C 0.70972 0.42047 0.63454 0.0
C787 C 0.70905 0.43937 0.61103 0.0
C788 C 0.73025 0.45718 0.5888 0.0
C789 C 0.75204 0.45643 0.59079 0.0
C790 C 0.75215 0.43767 0.61483 0.0
C791 C 0.73141 0.41983 0.63574 0.0
C792 C 0.73572 0.40072 0.65704 0.0
C793 C 0.73245 0.40027 0.70766 0.0
C794 C 0.71905 0.3754 0.63649 0.0
C795 C 0.76213 0.41048 0.64467 0.0
C796 C 0.77147 0.43199 0.6209 0.0
C797 C 0.79539 0.44395 0.605 0.0
C798 C 0.80982 0.43317 0.61231 0.0
C799 C 0.80008 0.41054 0.63476 0.0
C800 C 0.77616 0.39949 0.65201 0.0
H801 H 0.61606 0.37879 0.59241 0.0
H802 H 0.55474 0.38613 0.63655 0.0
H803 H 0.52876 0.34114 0.63808 0.0
H804 H 0.58186 0.32847 0.51982 0.0
H805 H 0.59964 0.31414 0.53195 0.0
H806 H 0.61342 0.34679 0.53587 0.0
H807 H 0.62595 0.34552 0.61731 0.0
H808 H 0.61242 0.3129 0.61351 0.0
H809 H 0.60299 0.32606 0.65677 0.0
H810 H 0.50971 0.29492 0.6351 0.0
H811 H 0.49947 0.25182 0.62792 0.0
H812 H 0.57331 0.27617 0.58274 0.0
C813 C 0.59724 0.37102 0.60285 0.0
C814 C 0.58746 0.38595 0.61467 0.0
C815 C 0.56263 0.37499 0.62748 0.0
C816 C 0.54773 0.34949 0.62839 0.0
C817 C 0.55794 0.33531 0.616 0.0
C818 C 0.58213 0.34575 0.60342 0.0
C819 C 0.5887 0.32669 0.59073 0.0
C820 C 0.59635 0.32918 0.54168 0.0
C821 C 0.60869 0.32786 0.62142 0.0
C822 C 0.56449 0.30382 0.59854 0.0
C823 C 0.54692 0.30905 0.61315 0.0
C824 C 0.5233 0.29062 0.62348 0.0
C825 C 0.51764 0.26623 0.61925 0.0
C826 C 0.53554 0.26063 0.60461 0.0
C827 C 0.55912 0.27977 0.5937 0.0
H828 H 0.62609 0.24437 0.60272 0.0
H829 H 0.61483 0.17307 0.63907 0.0
H830 H 0.65911 0.191 0.65055 0.0
H831 H 0.68041 0.2631 0.54121 0.0
H832 H 0.69483 0.29453 0.55859 0.0
H833 H 0.66206 0.27648 0.55598 0.0
H834 H 0.65905 0.28631 0.63845 0.0
H835 H 0.69182 0.30456 0.64118 0.0
H836 H 0.67559 0.27994 0.67999 0.0
H837 H 0.7048 0.21649 0.65638 0.0
H838 H 0.74861 0.24792 0.65585 0.0
H839 H 0.72973 0.30195 0.61337 0.0
C840 C 0.63289 0.23259 0.61368 0.0
C841 C 0.61699 0.20736 0.62018 0.0
C842 C 0.62667 0.19248 0.63388 0.0
C843 C 0.65179 0.20247 0.64054 0.0
C844 C 0.667 0.22734 0.63318 0.0
C845 C 0.65793 0.2422 0.62008 0.0
C846 C 0.67828 0.26816 0.61278 0.0
C847 C 0.67892 0.27601 0.56425 0.0
C848 C 0.67605 0.28578 0.64503 0.0
C849 C 0.70016 0.2655 0.62364 0.0
C850 C 0.69331 0.24187 0.63558 0.0
C851 C 0.71042 0.23508 0.64711 0.0
C852 C 0.73523 0.25302 0.64664 0.0
C853 C 0.7426 0.27733 0.63441 0.0
C854 C 0.72474 0.2835 0.62264 0.0
H855 H 0.7495 0.37067 0.98355 0.0
H856 H 0.81392 0.40844 0.06649 0.0
H857 H 0.80682 0.44332 0.07329 0.0
H858 H 0.75447 0.42485 0.92736 0.0
H859 H 0.72191 0.41255 0.92865 0.0
H860 H 0.73413 0.3923 0.92518 0.0
H861 H 0.70963 0.36945 0.99539 0.0
H862 H 0.69744 0.38964 0.99918 0.0
H863 H 0.71346 0.3864 0.04572 0.0
H864 H 0.79083 0.47264 0.07549 0.0
H865 H 0.76605 0.49292 0.07618 0.0
H866 H 0.71142 0.43465 0.99452 0.0
C867 C 0.76248 0.38653 0.00221 0.0
C868 C 0.7824 0.38704 0.02407 0.0
C869 C 0.79861 0.40781 0.04923 0.0
C870 C 0.79478 0.42772 0.05315 0.0
C871 C 0.77464 0.42644 0.03184 0.0
C872 C 0.75874 0.40634 0.00693 0.0
C873 C 0.7372 0.40833 0.99093 0.0
C874 C 0.73693 0.40959 0.94001 0.0
C875 C 0.71302 0.38721 0.0089 0.0
C876 C 0.74313 0.43241 0.01163 0.0
C877 C 0.765 0.44284 0.03441 0.0
C878 C 0.77377 0.46476 0.05745 0.0
C879 C 0.75961 0.47614 0.05764 0.0
C880 C 0.73682 0.46529 0.03554 0.0
C881 C 0.72875 0.44335 0.01182 0.0
H882 H 0.62555 0.38812 0.02457 0.0
H883 H 0.56998 0.40859 0.00864 0.0
H884 H 0.53816 0.36492 0.00725 0.0
H885 H 0.59782 0.3354 0.95261 0.0
H886 H 0.60692 0.31801 0.9869 0.0
H887 H 0.62517 0.3508 0.98567 0.0
H888 H 0.62162 0.35218 0.07115 0.0
H889 H 0.60336 0.31941 0.07265 0.0
H890 H 0.59183 0.33776 0.09657 0.0
H891 H 0.51238 0.31887 0.0105 0.0
H892 H 0.49477 0.27424 0.01629 0.0
H893 H 0.56769 0.28451 0.02862 0.0
C894 C 0.60671 0.3835 0.02062 0.0
C895 C 0.60023 0.40179 0.01677 0.0
C896 C 0.57536 0.39489 0.01158 0.0
C897 C 0.55718 0.37015 0.01077 0.0
C898 C 0.56422 0.3526 0.01491 0.0
C899 C 0.58842 0.359 0.01951 0.0
C900 C 0.59126 0.33673 0.02378 0.0
C901 C 0.60617 0.33515 0.98492 0.0
C902 C 0.60269 0.33652 0.06871 0.0
C903 C 0.56483 0.31674 0.02124 0.0
C904 C 0.5495 0.32623 0.01616 0.0
C905 C 0.52423 0.31124 0.0142 0.0
C906 C 0.51441 0.28592 0.01759 0.0
C907 C 0.52984 0.27582 0.02275 0.0
C908 C 0.55538 0.29157 0.02436 0.0
H909 H 0.72336 0.29821 0.01141 0.0
H910 H 0.72069 0.23363 0.06704 0.0
H911 H 0.67575 0.21133 0.0603 0.0
H912 H 0.67217 0.29256 0.06586 0.0
H913 H 0.66155 0.30296 0.0199 0.0
H914 H 0.69354 0.31317 0.0254 0.0
H915 H 0.69406 0.29729 0.94645 0.0
H916 H 0.66205 0.28715 0.94048 0.0
H917 H 0.67285 0.26592 0.93259 0.0
H918 H 0.63106 0.19749 0.05434 0.0
H919 H 0.58994 0.19237 0.04564 0.0
H920 H 0.62223 0.2657 0.9919 0.0
C921 C 0.7134 0.27928 0.02166 0.0
C922 C 0.72553 0.26767 0.03983 0.0
C923 C 0.71179 0.24287 0.05286 0.0
C924 C 0.68627 0.23007 0.04921 0.0
C925 C 0.67487 0.24225 0.03198 0.0
C926 C 0.68802 0.26621 0.01795 0.0
C927 C 0.67141 0.27542 0.0021 0.0
C928 C 0.67488 0.29731 0.03 0.0
C929 C 0.67533 0.28181 0.95245 0.0
C930 C 0.64679 0.25306 0.01051 0.0
C931 C 0.64916 0.23409 0.02763 0.0
C932 C 0.62896 0.21207 0.04034 0.0
C933 C 0.60571 0.20937 0.03544 0.0
C934 C 0.60292 0.22857 0.01779 0.0
C935 C 0.62376 0.25057 0.00488 0.0
H936 H 0.39319 0.78702 0.92979 0.0
H937 H 0.39132 0.79635 0.07217 0.0
H938 H 0.42326 0.78538 0.08217 0.0
H939 H 0.39783 0.73508 0.93396 0.0
H940 H 0.41821 0.74256 0.88735 0.0
H941 H 0.39799 0.75474 0.89052 0.0
H942 H 0.43485 0.79866 0.88358 0.0
H943 H 0.45524 0.78657 0.88027 0.0
H944 H 0.45996 0.80895 0.92193 0.0
H945 H 0.45191 0.76904 0.07782 0.0
H946 H 0.47467 0.74779 0.05876 0.0
H947 H 0.45754 0.74854 0.91993 0.0
C948 C 0.39994 0.78735 0.96294 0.0
C949 C 0.38984 0.79264 0.00016 0.0
C950 C 0.39882 0.79241 0.04312 0.0
C951 C 0.41705 0.7863 0.04916 0.0
C952 C 0.42623 0.78061 0.0119 0.0
C953 C 0.41807 0.78118 0.96959 0.0
C954 C 0.42938 0.77223 0.93556 0.0
C955 C 0.40968 0.74982 0.9104 0.0
C956 C 0.44584 0.79283 0.90344 0.0
C957 C 0.44432 0.76555 0.96555 0.0
C958 C 0.44266 0.77098 0.0094 0.0
C959 C 0.45373 0.76512 0.04353 0.0
C960 C 0.46659 0.75312 0.03254 0.0
C961 C 0.468 0.74707 0.98799 0.0
C962 C 0.457 0.75355 0.95412 0.0
H963 H 0.29391 0.72086 0.96344 0.0
H964 H 0.23326 0.73158 0.99744 0.0
H965 H 0.20649 0.68705 0.00549 0.0
H966 H 0.25983 0.66868 0.89708 0.0
H967 H 0.27623 0.65358 0.91405 0.0
H968 H 0.29119 0.68638 0.91473 0.0
H969 H 0.30181 0.68674 0.99789 0.0
H970 H 0.28702 0.65392 0.99736 0.0
H971 H 0.27777 0.66905 0.03699 0.0
H972 H 0.18593 0.64118 0.0072 0.0
H973 H 0.17312 0.5974 0.00114 0.0
H974 H 0.24695 0.61706 0.96335 0.0
C975 C 0.27511 0.71389 0.97332 0.0
C976 C 0.26571 0.72969 0.98009 0.0
C977 C 0.24087 0.7198 0.99215 0.0
C978 C 0.22553 0.69454 0.99689 0.0
C979 C 0.23527 0.67944 0.98924 0.0
C980 C 0.25948 0.68874 0.97771 0.0
C981 C 0.26511 0.66854 0.96902 0.0
C982 C 0.27358 0.66935 0.92086 0.0
C983 C 0.28404 0.66963 0.00231 0.0
C984 C 0.24023 0.64645 0.97703 0.0
C985 C 0.2233 0.65308 0.98907 0.0
C986 C 0.19904 0.63575 0.9979 0.0
C987 C 0.19193 0.61095 0.99433 0.0
C988 C 0.20899 0.60383 0.98161 0.0
C989 C 0.23342 0.6219 0.97293 0.0
H990 H 0.28731 0.57656 0.96733 0.0
H991 H 0.27823 0.50391 0.96218 0.0
H992 H 0.32309 0.52204 0.96129 0.0
H993 H 0.33622 0.60372 0.89245 0.0
H994 H 0.35177 0.63257 0.92109 0.0
H995 H 0.31912 0.61385 0.92518 0.0
H996 H 0.32214 0.61405 0.01095 0.0
H997 H 0.35481 0.63301 0.00721 0.0
H998 H 0.34162 0.60448 0.03689 0.0
H999 H 0.36926 0.54859 0.95763 0.0
H1000 H 0.41257 0.58123 0.95246 0.0
H1001 H 0.39022 0.63578 0.95774 0.0
C1002 C 0.29466 0.56436 0.96676 0.0
C1003 C 0.27924 0.5388 0.96506 0.0
C1004 C 0.2897 0.52357 0.96368 0.0
C1005 C 0.31515 0.53368 0.96313 0.0
C1006 C 0.3298 0.55901 0.96389 0.0
C1007 C 0.31989 0.57411 0.96585 0.0
C1008 C 0.33942 0.60072 0.9644 0.0
C1009 C 0.33645 0.61345 0.92333 0.0
C1010 C 0.3395 0.61383 0.00743 0.0
C1011 C 0.3619 0.59829 0.96085 0.0
C1012 C 0.35609 0.57415 0.9609 0.0
C1013 C 0.37402 0.56756 0.95769 0.0
C1014 C 0.39853 0.5862 0.95466 0.0
C1015 C 0.40477 0.61103 0.95455 0.0
C1016 C 0.3861 0.61699 0.95754 0.0
H1017 H 0.39726 0.69249 0.33757 0.0
H1018 H 0.47486 0.73909 0.36173 0.0
H1019 H 0.46928 0.77493 0.36594 0.0
H1020 H 0.388 0.73659 0.27247 0.0
H1021 H 0.35869 0.72702 0.29746 0.0
H1022 H 0.36923 0.70551 0.29094 0.0
H1023 H 0.36323 0.69617 0.37517 0.0
H1024 H 0.35283 0.71773 0.38187 0.0
H1025 H 0.37816 0.72087 0.41435 0.0
H1026 H 0.45513 0.80493 0.37243 0.0
H1027 H 0.4332 0.82747 0.38305 0.0
H1028 H 0.36437 0.76112 0.35732 0.0
C1029 C 0.41315 0.71032 0.34274 0.0
C1030 C 0.43654 0.71315 0.3489 0.0
C1031 C 0.45681 0.73662 0.35675 0.0
C1032 C 0.45384 0.75706 0.35904 0.0
C1033 C 0.43047 0.75361 0.35363 0.0
C1034 C 0.41045 0.73086 0.3457 0.0
C1035 C 0.38705 0.73187 0.34469 0.0
C1036 C 0.37505 0.72484 0.29864 0.0
C1037 C 0.36929 0.71571 0.38121 0.0
C1038 C 0.39705 0.75869 0.35419 0.0
C1039 C 0.42215 0.77091 0.35861 0.0
C1040 C 0.4355 0.79565 0.36872 0.0
C1041 C 0.42283 0.80826 0.37477 0.0
C1042 C 0.39704 0.79605 0.37108 0.0
C1043 C 0.38407 0.77097 0.3603 0.0
H1044 H 0.30054 0.72615 0.32205 0.0
H1045 H 0.25688 0.75078 0.39194 0.0
H1046 H 0.22255 0.70814 0.39528 0.0
H1047 H 0.25124 0.67601 0.25898 0.0
H1048 H 0.2641 0.65647 0.26628 0.0
H1049 H 0.28381 0.68911 0.26418 0.0
H1050 H 0.30235 0.68807 0.34023 0.0
H1051 H 0.28273 0.6555 0.34264 0.0
H1052 H 0.28242 0.67434 0.38718 0.0
H1053 H 0.19399 0.66269 0.39416 0.0
H1054 H 0.17463 0.61782 0.39511 0.0
H1055 H 0.23832 0.62314 0.32995 0.0
C1056 C 0.28354 0.72266 0.3371 0.0
C1057 C 0.2811 0.74171 0.35608 0.0
C1058 C 0.25893 0.73637 0.37686 0.0
C1059 C 0.23937 0.71228 0.37873 0.0
C1060 C 0.24248 0.69384 0.36009 0.0
C1061 C 0.2641 0.69875 0.34001 0.0
C1062 C 0.26378 0.67555 0.32663 0.0
C1063 C 0.26585 0.67421 0.27601 0.0
C1064 C 0.28401 0.67324 0.35062 0.0
C1065 C 0.23869 0.65673 0.34292 0.0
C1066 C 0.22651 0.66764 0.36133 0.0
C1067 C 0.20329 0.65395 0.37962 0.0
C1068 C 0.19243 0.62846 0.37989 0.0
C1069 C 0.20497 0.61696 0.36263 0.0
C1070 C 0.22825 0.63136 0.34333 0.0
H1071 H 0.38405 0.62463 0.36311 0.0
H1072 H 0.39323 0.56155 0.37942 0.0
H1073 H 0.34859 0.5344 0.37175 0.0
H1074 H 0.33117 0.60264 0.42709 0.0
H1075 H 0.31743 0.61581 0.39277 0.0
H1076 H 0.35011 0.62988 0.39543 0.0
H1077 H 0.35209 0.62698 0.30992 0.0
H1078 H 0.31936 0.61293 0.30689 0.0
H1079 H 0.33438 0.59782 0.28299 0.0
H1080 H 0.30243 0.51439 0.36559 0.0
H1081 H 0.25899 0.50355 0.36448 0.0
H1082 H 0.28141 0.58035 0.35411 0.0
C1083 C 0.37682 0.60511 0.36442 0.0
C1084 C 0.39214 0.59521 0.37158 0.0
C1085 C 0.38181 0.56954 0.3738 0.0
C1086 C 0.35652 0.55398 0.36936 0.0
C1087 C 0.34193 0.56444 0.36274 0.0
C1088 C 0.35178 0.58944 0.36034 0.0
C1089 C 0.33227 0.59635 0.3557 0.0
C1090 C 0.33278 0.61209 0.3951 0.0
C1091 C 0.33467 0.60927 0.31122 0.0
C1092 C 0.3098 0.57133 0.35666 0.0
C1093 C 0.31563 0.55308 0.36016 0.0
C1094 C 0.29766 0.52852 0.36261 0.0
C1095 C 0.27308 0.52254 0.36192 0.0
C1096 C 0.2669 0.54112 0.35937 0.0
C1097 C 0.28556 0.56573 0.35625 0.0
H1098 H 0.36342 0.17389 0.08423 0.0
H1099 H 0.40064 0.13833 0.14048 0.0
H1100 H 0.36556 0.11421 0.18969 0.0
H1101 H 0.33894 0.18042 0.18349 0.0
H1102 H 0.31027 0.17454 0.16021 0.0
H1103 H 0.33716 0.18719 0.12597 0.0
H1104 H 0.31512 0.15162 0.06992 0.0
H1105 H 0.28799 0.13906 0.10364 0.0
H1106 H 0.30126 0.12056 0.08934 0.0
H1107 H 0.32805 0.09709 0.2383 0.0
H1108 H 0.28953 0.08577 0.27755 0.0
H1109 H 0.27675 0.13193 0.18809 0.0
C1110 C 0.36391 0.1606 0.10619 0.0
C1111 C 0.38449 0.15757 0.10773 0.0
C1112 C 0.38475 0.14039 0.13751 0.0
C1113 C 0.365 0.12678 0.16605 0.0
C1114 C 0.34516 0.13056 0.16425 0.0
C1115 C 0.34434 0.14682 0.13466 0.0
C1116 C 0.32134 0.14819 0.14038 0.0
C1117 C 0.3273 0.17412 0.15329 0.0
C1118 C 0.30549 0.13932 0.09832 0.0
C1119 C 0.30957 0.13053 0.17839 0.0
C1120 C 0.32353 0.12052 0.19178 0.0
C1121 C 0.31669 0.1044 0.22748 0.0
C1122 C 0.29471 0.09796 0.24941 0.0
C1123 C 0.27981 0.10747 0.23523 0.0
C1124 C 0.28764 0.12422 0.19966 0.0
H1125 H 0.81935 0.19324 0.10182 0.0
H1126 H 0.85203 0.26089 0.17621 0.0
H1127 H 0.87933 0.24925 0.21416 0.0
H1128 H 0.81942 0.15547 0.18803 0.0
H1129 H 0.82709 0.13724 0.15293 0.0
H1130 H 0.8109 0.15138 0.13025 0.0
H1131 H 0.8444 0.17282 0.07026 0.0
H1132 H 0.86063 0.1586 0.09259 0.0
H1133 H 0.87582 0.19132 0.087 0.0
H1134 H 0.90041 0.22867 0.24808 0.0
H1135 H 0.9162 0.20199 0.27183 0.0
H1136 H 0.87178 0.14904 0.17141 0.0
C1137 C 0.83252 0.20565 0.12569 0.0
C1138 C 0.83406 0.22805 0.13583 0.0
C1139 C 0.85112 0.24385 0.16755 0.0
C1140 C 0.86654 0.23735 0.18936 0.0
C1141 C 0.86464 0.21508 0.1787 0.0
C1142 C 0.84828 0.19958 0.14727 0.0
C1143 C 0.8498 0.17664 0.14224 0.0
C1144 C 0.82535 0.15384 0.15409 0.0
C1145 C 0.85817 0.17474 0.09523 0.0
C1146 C 0.86922 0.18146 0.17633 0.0
C1147 C 0.8775 0.20367 0.19709 0.0
C1148 C 0.89457 0.2115 0.23129 0.0
C1149 C 0.90366 0.19632 0.24422 0.0
C1150 C 0.89595 0.1738 0.22243 0.0
C1151 C 0.87832 0.1663 0.18837 0.0
H1152 H 0.80241 0.62925 0.08716 0.0
H1153 H 0.72865 0.60182 0.13496 0.0
H1154 H 0.74053 0.64253 0.16555 0.0
H1155 H 0.83203 0.66405 0.1781 0.0
H1156 H 0.85644 0.68909 0.14836 0.0
H1157 H 0.84138 0.65903 0.12447 0.0
H1158 H 0.83094 0.67553 0.0541 0.0
H1159 H 0.84625 0.70579 0.07758 0.0
H1160 H 0.81497 0.69229 0.05965 0.0
H1161 H 0.76202 0.68389 0.20086 0.0
H1162 H 0.79066 0.72376 0.23346 0.0
H1163 H 0.85 0.72517 0.15874 0.0
C1164 C 0.78867 0.63214 0.10291 0.0
C1165 C 0.76455 0.61281 0.10788 0.0
C1166 C 0.74705 0.61678 0.12967 0.0
C1167 C 0.75367 0.63974 0.14734 0.0
C1168 C 0.77777 0.65844 0.1425 0.0
C1169 C 0.79491 0.65499 0.1202 0.0
C1170 C 0.81993 0.67754 0.12214 0.0
C1171 C 0.83852 0.67209 0.14462 0.0
C1172 C 0.82852 0.68843 0.0756 0.0
C1173 C 0.8144 0.69382 0.15063 0.0
C1174 C 0.78998 0.68258 0.1618 0.0
C1175 C 0.78103 0.69326 0.19109 0.0
C1176 C 0.79747 0.71612 0.20918 0.0
C1177 C 0.82251 0.72813 0.19749 0.0
C1178 C 0.83091 0.7167 0.16779 0.0
H1179 H 0.13275 0.27897 0.83882 0.0
H1180 H 0.0936 0.28653 0.72742 0.0
H1181 H 0.10559 0.32818 0.7519 0.0
H1182 H 0.12072 0.31438 0.91887 0.0
H1183 H 0.15091 0.32823 0.94245 0.0
H1184 H 0.13738 0.29817 0.91843 0.0
H1185 H 0.17466 0.3126 0.86615 0.0
H1186 H 0.18836 0.34262 0.89019 0.0
H1187 H 0.18357 0.33881 0.8311 0.0
H1188 H 0.12311 0.36966 0.7873 0.0
H1189 H 0.14768 0.40871 0.82692 0.0
H1190 H 0.17689 0.37451 0.91264 0.0
C1191 C 0.12653 0.2893 0.81968 0.0
C1192 C 0.11147 0.27911 0.78212 0.0
C1193 C 0.10414 0.29342 0.75752 0.0
C1194 C 0.11107 0.31723 0.77093 0.0
C1195 C 0.12558 0.32654 0.80863 0.0
C1196 C 0.13345 0.3131 0.83233 0.0
C1197 C 0.15028 0.32781 0.86982 0.0
C1198 C 0.13915 0.31647 0.91507 0.0
C1199 C 0.17572 0.33063 0.86393 0.0
C1200 C 0.15094 0.35178 0.86313 0.0
C1201 C 0.13629 0.3506 0.82811 0.0
C1202 C 0.13444 0.37073 0.81507 0.0
C1203 C 0.14825 0.39276 0.83805 0.0
C1204 C 0.16375 0.39439 0.8733 0.0
C1205 C 0.16496 0.37361 0.88604 0.0
H1206 H 0.63559 0.81533 0.92916 0.0
H1207 H 0.6014 0.74271 0.87226 0.0
H1208 H 0.63924 0.75355 0.83149 0.0
H1209 H 0.66512 0.84616 0.83366 0.0
H1210 H 0.69254 0.86916 0.86036 0.0
H1211 H 0.66415 0.85475 0.89034 0.0
H1212 H 0.68366 0.84159 0.95212 0.0
H1213 H 0.71226 0.85624 0.92256 0.0
H1214 H 0.69842 0.82449 0.9376 0.0
H1215 H 0.67858 0.77384 0.78948 0.0
H1216 H 0.71749 0.80154 0.75236 0.0
H1217 H 0.72662 0.86078 0.83769 0.0
C1218 C 0.6364 0.80155 0.90913 0.0
C1219 C 0.61594 0.77797 0.90503 0.0
C1220 C 0.61724 0.76056 0.87741 0.0
C1221 C 0.63858 0.76662 0.85374 0.0
C1222 C 0.65838 0.79016 0.85808 0.0
C1223 C 0.65759 0.80729 0.88543 0.0
C1224 C 0.68074 0.83178 0.88181 0.0
C1225 C 0.6753 0.85162 0.86556 0.0
C1226 C 0.69459 0.83894 0.92616 0.0
C1227 C 0.69431 0.82594 0.8471 0.0
C1228 C 0.68121 0.80181 0.83405 0.0
C1229 C 0.68935 0.79261 0.80029 0.0
C1230 C 0.71162 0.80846 0.77962 0.0
C1231 C 0.72552 0.83316 0.79303 0.0
C1232 C 0.71658 0.84191 0.82709 0.0
H1233 H 0.20864 0.8194 0.84109 0.0
H1234 H 0.22619 0.85031 0.97341 0.0
H1235 H 0.20672 0.87496 0.95655 0.0
H1236 H 0.21972 0.87538 0.78538 0.0
H1237 H 0.19519 0.85927 0.74636 0.0
H1238 H 0.21118 0.84479 0.76862 0.0
H1239 H 0.17017 0.80848 0.7959 0.0
H1240 H 0.15407 0.82285 0.77385 0.0
H1241 H 0.15074 0.81426 0.83155 0.0
H1242 H 0.18252 0.89343 0.92709 0.0
H1243 H 0.15753 0.90675 0.88522 0.0
H1244 H 0.15808 0.86569 0.77069 0.0
C1245 C 0.20845 0.83148 0.86635 0.0
C1246 C 0.21883 0.83313 0.90846 0.0
C1247 C 0.21849 0.84912 0.9408 0.0
C1248 C 0.20744 0.86306 0.93155 0.0
C1249 C 0.19724 0.86097 0.88964 0.0
C1250 C 0.19794 0.84582 0.85737 0.0
C1251 C 0.18563 0.84684 0.81505 0.0
C1252 C 0.20404 0.85719 0.77658 0.0
C1253 C 0.16386 0.82161 0.80343 0.0
C1254 C 0.1773 0.86444 0.8289 0.0
C1255 C 0.18415 0.87235 0.87209 0.0
C1256 C 0.17736 0.88765 0.89308 0.0
C1257 C 0.16317 0.89502 0.86927 0.0
C1258 C 0.15623 0.88724 0.82503 0.0
C1259 C 0.16353 0.872 0.80441 0.0
H1260 H 0.97167 0.48537 0.59976 0.0
H1261 H 0.94022 0.41115 0.55146 0.0
H1262 H 0.9786 0.422 0.51278 0.0
H1263 H 0.00093 0.51364 0.5034 0.0
H1264 H 0.02795 0.53809 0.52865 0.0
H1265 H -0.00041 0.52381 0.55869 0.0
H1266 H 0.01992 0.51365 0.62351 0.0
H1267 H 0.04852 0.52826 0.59393 0.0
H1268 H 0.03572 0.49714 0.61242 0.0
H1269 H 0.01739 0.44227 0.46982 0.0
H1270 H 0.05552 0.46985 0.43066 0.0
H1271 H 0.06292 0.53065 0.50931 0.0
C1272 C 0.97326 0.47128 0.58227 0.0
C1273 C 0.95336 0.44729 0.5797 0.0
C1274 C 0.95562 0.4294 0.55531 0.0
C1275 C 0.97727 0.43545 0.53288 0.0
C1276 C -0.00354 0.45941 0.53536 0.0
C1277 C -0.00517 0.47698 0.55998 0.0
C1278 C 0.01742 0.50176 0.55452 0.0
C1279 C 0.01108 0.52041 0.53515 0.0
C1280 C 0.03121 0.51072 0.59873 0.0
C1281 C 0.03153 0.49554 0.52165 0.0
C1282 C 0.01921 0.47101 0.51121 0.0
C1283 C 0.02767 0.46136 0.47884 0.0
C1284 C 0.04953 0.47719 0.45698 0.0
C1285 C 0.06277 0.50229 0.46801 0.0
C1286 C 0.05346 0.51147 0.50063 0.0
H1287 H 0.4808 0.54599 0.53127 0.0
H1288 H 0.53429 0.58581 0.42847 0.0
H1289 H 0.56231 0.57438 0.4625 0.0
H1290 H 0.52337 0.55539 0.6231 0.0
H1291 H 0.50483 0.52455 0.64282 0.0
H1292 H 0.49072 0.53981 0.61598 0.0
H1293 H 0.47017 0.50447 0.55903 0.0
H1294 H 0.48403 0.48909 0.58586 0.0
H1295 H 0.48886 0.49585 0.5274 0.0
H1296 H 0.58299 0.55593 0.50282 0.0
H1297 H 0.59263 0.52724 0.53978 0.0
H1298 H 0.52439 0.49611 0.61239 0.0
C1299 C 0.49858 0.5527 0.51625 0.0
C1300 C 0.50571 0.56783 0.4783 0.0
C1301 C 0.52883 0.57551 0.45897 0.0
C1302 C 0.54488 0.56892 0.47793 0.0
C1303 C 0.53734 0.55427 0.51566 0.0
C1304 C 0.51457 0.5459 0.53419 0.0
C1305 C 0.50951 0.52758 0.57073 0.0
C1306 C 0.50696 0.53743 0.61583 0.0
C1307 C 0.48681 0.50279 0.56008 0.0
C1308 C 0.53265 0.52623 0.56863 0.0
C1309 C 0.54876 0.54238 0.53762 0.0
C1310 C 0.57076 0.54352 0.52774 0.0
C1311 C 0.57613 0.52722 0.54915 0.0
C1312 C 0.55944 0.50988 0.57966 0.0
C1313 C 0.53763 0.50962 0.58995 0.0
H1314 H 0.44211 0.95443 0.46608 0.0
H1315 H 0.50084 0.93795 0.45631 0.0
H1316 H 0.52933 0.97818 0.48821 0.0
H1317 H 0.47933 0.01841 0.43363 0.0
H1318 H 0.46334 0.02807 0.47046 0.0
H1319 H 0.44771 -0.00213 0.4469 0.0
H1320 H 0.43605 0.97966 0.52612 0.0
H1321 H 0.4522 0.00978 0.54997 0.0
H1322 H 0.45977 0.987 0.56644 0.0
H1323 H 0.55094 0.0191 0.52363 0.0
H1324 H 0.56577 0.06055 0.55263 0.0
H1325 H 0.49379 0.05165 0.53257 0.0
C1326 C 0.46104 0.95944 0.46899 0.0
C1327 C 0.46926 0.94308 0.45782 0.0
C1328 C 0.49411 0.9502 0.46449 0.0
C1329 C 0.51044 0.97298 0.48266 0.0
C1330 C 0.50167 0.9885 0.4937 0.0
C1331 C 0.4777 0.98227 0.48641 0.0
C1332 C 0.47313 0.0026 0.50042 0.0
C1333 C 0.46543 0.01232 0.46047 0.0
C1334 C 0.45416 0.99425 0.53797 0.0
C1335 C 0.4983 0.02116 0.51688 0.0
C1336 C 0.51436 0.01248 0.51322 0.0
C1337 C 0.53859 0.02618 0.52647 0.0
C1338 C 0.5468 0.04967 0.54295 0.0
C1339 C 0.53088 0.05931 0.54571 0.0
C1340 C 0.50627 0.04471 0.53265 0.0
H1341 H 0.19357 0.03486 0.4232 0.0
H1342 H 0.16253 0.96199 0.36901 0.0
H1343 H 0.16426 0.94624 0.44322 0.0
H1344 H 0.23087 0.02881 0.51707 0.0
H1345 H 0.22254 0.0459 0.55385 0.0
H1346 H 0.22613 0.05264 0.49528 0.0
H1347 H 0.1824 0.04628 0.49232 0.0
H1348 H 0.17866 0.03947 0.5505 0.0
H1349 H 0.15711 0.01782 0.51148 0.0
H1350 H 0.16242 0.93731 0.52433 0.0
H1351 H 0.15277 0.93519 0.60421 0.0
H1352 H 0.18174 0.01338 0.60602 0.0
C1353 C 0.18835 0.01583 0.42666 0.0
C1354 C 0.17855 -0.00029 0.3904 0.0
C1355 C 0.17056 0.97466 0.39638 0.0
C1356 C 0.17158 0.96561 0.43836 0.0
C1357 C 0.18038 0.98182 0.47406 0.0
C1358 C 0.18857 0.00645 0.46858 0.0
C1359 C 0.19246 0.01917 0.51289 0.0
C1360 C 0.21962 0.03773 0.5202 0.0
C1361 C 0.17671 0.03137 0.51701 0.0
C1362 C 0.18386 -0.00234 0.54405 0.0
C1363 C 0.17789 0.97644 0.52122 0.0
C1364 C 0.16748 0.95388 0.54264 0.0
C1365 C 0.16213 0.95284 0.58808 0.0
C1366 C 0.16658 0.97414 0.61119 0.0
C1367 C 0.1784 -0.00313 0.58918 0.0
H1368 H 0.0534 0.19251 0.57652 0.0
H1369 H 0.98541 0.18342 0.62704 0.0
H1370 H 0.97414 0.18959 0.5515 0.0
H1371 H 0.06162 0.23445 0.47734 0.0
H1372 H 0.07227 0.21825 0.44332 0.0
H1373 H 0.07884 0.22184 0.50196 0.0
H1374 H 0.05919 0.17496 0.50983 0.0
H1375 H 0.05243 0.17122 0.45166 0.0
H1376 H 0.02821 0.15548 0.49143 0.0
H1377 H 0.96667 0.1884 0.47072 0.0
H1378 H 0.96123 0.17536 0.39262 0.0
H1379 H 0.03256 0.18131 0.39358 0.0
C1380 C 0.03682 0.19325 0.57176 0.0
C1381 C 0.02059 0.18842 0.60731 0.0
C1382 C -0.00171 0.18785 0.60009 0.0
C1383 C 0.99184 0.1914 0.55737 0.0
C1384 C 0.00777 0.19508 0.52233 0.0
C1385 C 0.02983 0.19595 0.52909 0.0
C1386 C 0.04113 0.19469 0.48556 0.0
C1387 C 0.06487 0.21875 0.47651 0.0
C1388 C 0.04546 0.17279 0.48459 0.0
C1389 C 0.02124 0.19128 0.45356 0.0
C1390 C 0.00268 0.19264 0.47515 0.0
C1391 C 0.9813 0.18777 0.4533 0.0
C1392 C 0.97837 0.18033 0.40884 0.0
C1393 C -0.00355 0.1772 0.38705 0.0
C1394 C 0.01852 0.18371 0.40928 0.0
H1395 H 0.84366 0.82491 0.59535 0.0
H1396 H 0.78542 0.84211 0.59483 0.0
H1397 H 0.77724 0.83004 0.51621 0.0
H1398 H 0.8686 0.85012 0.50033 0.0
H1399 H 0.87626 0.82788 0.48078 0.0
H1400 H 0.87309 0.83103 0.53912 0.0
H1401 H 0.84053 0.78518 0.54468 0.0
H1402 H 0.84378 0.78176 0.48607 0.0
H1403 H 0.81414 0.77268 0.50901 0.0
H1404 H 0.78374 0.82848 0.43555 0.0
H1405 H 0.80154 0.833 0.36066 0.0
H1406 H 0.85301 0.81327 0.4125 0.0
C1407 C 0.82849 0.82511 0.57916 0.0
C1408 C 0.81522 0.83448 0.60109 0.0
C1409 C 0.7957 0.83479 0.5788 0.0
C1410 C 0.7909 0.82795 0.53407 0.0
C1411 C 0.80533 0.82018 0.51254 0.0
C1412 C 0.82329 0.81803 0.53471 0.0
C1413 C 0.83827 0.81227 0.50297 0.0
C1414 C 0.86565 0.83148 0.50599 0.0
C1415 C 0.83391 0.78643 0.51117 0.0
C1416 C 0.82738 0.81367 0.45913 0.0
C1417 C 0.80809 0.81784 0.46536 0.0
C1418 C 0.79801 0.8241 0.43009 0.0
C1419 C 0.80822 0.82669 0.38775 0.0
C1420 C 0.82797 0.82262 0.38105 0.0
C1421 C 0.83712 0.81529 0.41678 0.0
H1422 H 0.80994 0.28927 0.92309 0.0
H1423 H 0.86949 0.35559 0.97772 0.0
H1424 H 0.88674 0.36884 0.90257 0.0
H1425 H 0.84374 0.28378 0.82052 0.0
H1426 H 0.8168 0.27402 0.7871 0.0
H1427 H 0.81392 0.2658 0.84499 0.0
H1428 H 0.78659 0.28499 0.85707 0.0
H1429 H 0.78962 0.29354 0.79972 0.0
H1430 H 0.79807 0.31647 0.84213 0.0
H1431 H 0.89236 0.37892 0.82304 0.0
H1432 H 0.88498 0.38633 0.74603 0.0
H1433 H 0.81987 0.31469 0.74191 0.0
C1434 C 0.82737 0.30586 0.91915 0.0
C1435 C 0.83895 0.32113 0.95577 0.0
C1436 C 0.86087 0.34346 0.94983 0.0
C1437 C 0.87077 0.35105 0.90734 0.0
C1438 C 0.85827 0.33618 0.87129 0.0
C1439 C 0.83704 0.31395 0.87675 0.0
C1440 C 0.82441 0.30388 0.83272 0.0
C1441 C 0.82475 0.28048 0.82062 0.0
C1442 C 0.79815 0.2995 0.83296 0.0
C1443 C 0.84085 0.32468 0.80222 0.0
C1444 C 0.86077 0.34267 0.82479 0.0
C1445 C 0.87716 0.36473 0.80475 0.0
C1446 C 0.87274 0.36881 0.76096 0.0
C1447 C 0.85178 0.3511 0.73795 0.0
C1448 C 0.83614 0.32849 0.7585 0.0
H1449 H 0.64402 0.49347 0.92353 0.0
H1450 H 0.72257 0.54088 0.92068 0.0
H1451 H 0.72088 0.54621 0.83997 0.0
H1452 H 0.63845 0.46149 0.83422 0.0
H1453 H 0.61068 0.45874 0.81233 0.0
H1454 H 0.61696 0.46361 0.8706 0.0
H1455 H 0.61272 0.50223 0.86783 0.0
H1456 H 0.60598 0.49727 0.80936 0.0
H1457 H 0.63058 0.52612 0.82861 0.0
H1458 H 0.71215 0.53663 0.75991 0.0
H1459 H 0.69598 0.51784 0.68659 0.0
H1460 H 0.62278 0.47991 0.7409 0.0
C1461 C 0.66069 0.5058 0.90609 0.0
C1462 C 0.68338 0.51672 0.928 0.0
C1463 C 0.70495 0.53253 0.90441 0.0
C1464 C 0.70417 0.53566 0.85857 0.0
C1465 C 0.6816 0.52348 0.83733 0.0
C1466 C 0.66012 0.5095 0.86056 0.0
C1467 C 0.63863 0.49621 0.82957 0.0
C1468 C 0.62544 0.46839 0.83714 0.0
C1469 C 0.62093 0.50605 0.83411 0.0
C1470 C 0.65166 0.50322 0.7854 0.0
C1471 C 0.67641 0.51918 0.79045 0.0
C1472 C 0.6927 0.52499 0.75518 0.0
C1473 C 0.68344 0.51411 0.71386 0.0
C1474 C 0.65816 0.49789 0.70829 0.0
C1475 C 0.64209 0.49293 0.74416 0.0
H1476 H 0.52896 0.1467 0.73698 0.0
H1477 H 0.47604 0.16142 0.67498 0.0
H1478 H 0.45766 0.15971 0.74833 0.0
H1479 H 0.4901 0.10876 0.83438 0.0
H1480 H 0.5159 0.12318 0.87134 0.0
H1481 H 0.52039 0.11867 0.81378 0.0
H1482 H 0.55131 0.16491 0.80603 0.0
H1483 H 0.54681 0.16958 0.86321 0.0
H1484 H 0.54195 0.18664 0.82053 0.0
H1485 H 0.44927 0.16282 0.82835 0.0
H1486 H 0.45373 0.17401 0.90766 0.0
H1487 H 0.51434 0.16053 0.91788 0.0
C1488 C 0.51273 0.1483 0.73887 0.0
C1489 C 0.50329 0.15336 0.70056 0.0
C1490 C 0.483 0.15688 0.70409 0.0
C1491 C 0.47247 0.1559 0.74555 0.0
C1492 C 0.48272 0.15174 0.78316 0.0
C1493 C 0.50248 0.14806 0.78019 0.0
C1494 C 0.51283 0.14836 0.82566 0.0
C1495 C 0.5096 0.12324 0.83696 0.0
C1496 C 0.5398 0.16858 0.82903 0.0
C1497 C 0.49659 0.15393 0.85441 0.0
C1498 C 0.47884 0.15502 0.82949 0.0
C1499 C 0.46284 0.16162 0.84832 0.0
C1500 C 0.4655 0.16794 0.89345 0.0
C1501 C 0.48439 0.16816 0.91898 0.0
C1502 C 0.49963 0.16039 0.89931 0.0
H1503 H 0.51649 0.69046 0.27552 0.0
H1504 H 0.48905 0.61255 0.27261 0.0
H1505 H 0.49836 0.61506 0.19263 0.0
H1506 H 0.49132 0.6947 0.18335 0.0
H1507 H 0.51595 0.72326 0.16307 0.0
H1508 H 0.51337 0.71672 0.22133 0.0
H1509 H 0.55727 0.72354 0.22267 0.0
H1510 H 0.56019 0.7305 0.16419 0.0
H1511 H 0.56557 0.70687 0.18476 0.0
H1512 H 0.49891 0.62392 0.11198 0.0
H1513 H 0.4963 0.63966 0.03819 0.0
H1514 H 0.5273 0.71242 0.09288 0.0
C1515 C 0.51351 0.67415 0.25838 0.0
C1516 C 0.5021 0.65134 0.28007 0.0
C1517 C 0.49807 0.63026 0.25668 0.0
C1518 C 0.50326 0.63152 0.21118 0.0
C1519 C 0.51318 0.65411 0.19005 0.0
C1520 C 0.51904 0.67522 0.21322 0.0
C1521 C 0.52698 0.6967 0.18219 0.0
C1522 C 0.51093 0.7085 0.18783 0.0
C1523 C 0.55412 0.71551 0.18885 0.0
C1524 C 0.52272 0.68401 0.13783 0.0
C1525 C 0.51502 0.65948 0.14297 0.0
C1526 C 0.50596 0.64326 0.10729 0.0
C1527 C 0.50441 0.65228 0.06561 0.0
C1528 C 0.51225 0.67729 0.05994 0.0
C1529 C 0.52218 0.6934 0.09616 0.0
H1530 H 0.29273 0.82218 0.09491 0.0
H1531 H 0.36463 0.86862 0.03966 0.0
H1532 H 0.37968 0.88738 0.1133 0.0
H1533 H 0.29533 0.86484 0.18779 0.0
H1534 H 0.28009 0.83942 0.22538 0.0
H1535 H 0.27305 0.83523 0.16694 0.0
H1536 H 0.28322 0.80036 0.165 0.0
H1537 H 0.29034 0.80448 0.22306 0.0
H1538 H 0.31273 0.80629 0.18391 0.0
H1539 H 0.38876 0.89545 0.19358 0.0
H1540 H 0.39226 0.88923 0.27339 0.0
H1541 H 0.31509 0.83533 0.27757 0.0
C1542 C 0.31129 0.83718 0.09811 0.0
C1543 C 0.32743 0.84453 0.06177 0.0
C1544 C 0.35196 0.8632 0.0672 0.0
C1545 C 0.36059 0.874 0.10881 0.0
C1546 C 0.34449 0.86568 0.14468 0.0
C1547 C 0.32032 0.84761 0.13975 0.0
C1548 C 0.3081 0.83844 0.18437 0.0
C1549 C 0.28795 0.84488 0.19154 0.0
C1550 C 0.29804 0.81078 0.18935 0.0
C1551 C 0.32951 0.85307 0.21503 0.0
C1552 C 0.35008 0.86935 0.19164 0.0
C1553 C 0.37266 0.88314 0.21238 0.0
C1554 C 0.37448 0.87949 0.2578 0.0
C1555 C 0.35395 0.86175 0.28168 0.0
C1556 C 0.33105 0.84916 0.26026 0.0
H1557 H 0.14612 0.52866 0.24578 0.0
H1558 H 0.16058 0.47402 0.30035 0.0
H1559 H 0.15652 0.45622 0.22564 0.0
H1560 H 0.10617 0.49145 0.1467 0.0
H1561 H 0.12073 0.51813 0.1118 0.0
H1562 H 0.11631 0.52123 0.17005 0.0
H1563 H 0.16261 0.55176 0.17837 0.0
H1564 H 0.16719 0.5486 0.1206 0.0
H1565 H 0.18419 0.54257 0.1617 0.0
H1566 H 0.15954 0.44988 0.14519 0.0
H1567 H 0.1727 0.45753 0.06693 0.0
H1568 H 0.15942 0.51839 0.06391 0.0
C1569 C 0.14697 0.51208 0.24206 0.0
C1570 C 0.15276 0.50206 0.27856 0.0
C1571 C 0.1554 0.48137 0.27267 0.0
C1572 C 0.15308 0.47117 0.23041 0.0
C1573 C 0.14848 0.48214 0.19441 0.0
C1574 C 0.14542 0.50219 0.19985 0.0
C1575 C 0.1458 0.51373 0.15561 0.0
C1576 C 0.12076 0.51096 0.14544 0.0
C1577 C 0.16616 0.54073 0.15401 0.0
C1578 C 0.15117 0.4981 0.12483 0.0
C1579 C 0.15169 0.4794 0.14754 0.0
C1580 C 0.15865 0.46411 0.12686 0.0
C1581 C 0.16612 0.4686 0.08235 0.0
C1582 C 0.16712 0.48858 0.0594 0.0
C1583 C 0.15867 0.50287 0.08056 0.0
H1584 H 0.14521 0.98176 0.10224 0.0
H1585 H 0.17494 0.06005 0.10892 0.0
H1586 H 0.17641 0.0623 0.02716 0.0
H1587 H 0.17639 0.97896 0.00661 0.0
H1588 H 0.1505 0.95246 0.9831 0.0
H1589 H 0.15277 0.95691 0.04232 0.0
H1590 H 0.1105 0.9541 0.0439 0.0
H1591 H 0.10794 0.94926 0.98477 0.0
H1592 H 0.10505 0.97383 0.0085 0.0
H1593 H 0.17807 0.05633 0.94496 0.0
H1594 H 0.173 0.04188 0.86748 0.0
H1595 H 0.13483 0.96693 0.91407 0.0
C1596 C 0.15183 -0.00068 0.08643 0.0
C1597 C 0.16081 0.02086 0.11186 0.0
C1598 C 0.16897 0.04346 0.09004 0.0
C1599 C 0.1697 0.0449 0.04364 0.0
C1600 C 0.16132 0.02343 0.01952 0.0
C1601 C 0.15186 0.00097 0.04008 0.0
C1602 C 0.14255 0.98053 0.0063 0.0
C1603 C 0.15639 0.96639 0.00981 0.0
C1604 C 0.11486 0.96342 0.01116 0.0
C1605 C 0.14875 0.99508 0.96362 0.0
C1606 C 0.15996 0.01981 0.972 0.0
C1607 C 0.16877 0.03697 0.93792 0.0
C1608 C 0.16568 0.02859 0.89402 0.0
C1609 C 0.1533 0.00328 0.88454 0.0
C1610 C 0.14469 0.9864 0.92001 0.0
H1611 H 0.02992 0.16058 0.09727 0.0
H1612 H 0.95104 0.11662 0.10548 0.0
H1613 H 0.94842 0.11383 0.02403 0.0
H1614 H 0.03413 0.19401 0.00151 0.0
H1615 H 0.05953 0.19293 0.97691 0.0
H1616 H 0.05573 0.19113 0.03626 0.0
H1617 H 0.0559 0.1503 0.03738 0.0
H1618 H 0.0601 0.15218 0.97807 0.0
H1619 H 0.03486 0.12547 0.00253 0.0
H1620 H 0.95379 0.12044 0.94269 0.0
H1621 H 0.96727 0.12982 0.86485 0.0
H1622 H 0.04278 0.16354 0.90756 0.0
C1623 C 0.01219 0.15008 0.0818 0.0
C1624 C 0.99061 0.13956 0.10748 0.0
C1625 C 0.96772 0.12565 0.08627 0.0
C1626 C 0.96604 0.12379 0.04006 0.0
C1627 C 0.9875 0.13522 0.01552 0.0
C1628 C 0.0102 0.14748 0.03548 0.0
C1629 C 0.03033 0.15762 0.0009 0.0
C1630 C 0.04584 0.18558 0.00411 0.0
C1631 C 0.04623 0.14567 0.00496 0.0
C1632 C 0.0153 0.14978 0.95862 0.0
C1633 C 0.99064 0.13713 0.96798 0.0
C1634 C 0.97305 0.1297 0.93478 0.0
C1635 C 0.98088 0.13505 0.89068 0.0
C1636 C 0.00603 0.14716 0.88001 0.0
C1637 C 0.02342 0.15448 0.91458 0.0
H1638 H 0.82208 0.83239 0.89714 0.0
H1639 H 0.88976 0.89926 0.86987 0.0
H1640 H 0.89953 0.90432 0.94995 0.0
H1641 H 0.8077 0.85258 0.99783 0.0
H1642 H 0.79536 0.82353 0.02549 0.0
H1643 H 0.79397 0.82475 0.96591 0.0
H1644 H 0.81641 0.80012 0.9587 0.0
H1645 H 0.81778 0.79872 0.01826 0.0
H1646 H 0.84541 0.81102 0.98595 0.0
H1647 H 0.90156 0.90255 0.03249 0.0
H1648 H 0.89635 0.89336 0.1128 0.0
H1649 H 0.82725 0.82774 0.08709 0.0
C1650 C 0.839 0.84796 0.90824 0.0
C1651 C 0.85539 0.86529 0.87766 0.0
C1652 C 0.87727 0.88559 0.89296 0.0
C1653 C 0.88286 0.88868 0.93828 0.0
C1654 C 0.86633 0.8713 0.96772 0.0
C1655 C 0.84489 0.85127 0.9534 0.0
C1656 C 0.83025 0.83537 0.99206 0.0
C1657 C 0.80534 0.83399 0.99552 0.0
C1658 C 0.8273 0.80979 0.98852 0.0
C1659 C 0.84677 0.84964 0.03032 0.0
C1660 C 0.86744 0.87034 0.0155 0.0
C1661 C 0.88542 0.88645 0.04454 0.0
C1662 C 0.88225 0.8812 0.09 0.0
C1663 C 0.86127 0.86007 0.1058 0.0
C1664 C 0.84336 0.84409 0.07561 0.0
H1665 H 0.80263 0.30155 0.259 0.0
H1666 H 0.84871 0.37515 0.20941 0.0
H1667 H 0.85788 0.39053 0.28626 0.0
H1668 H 0.77917 0.31464 0.35433 0.0
H1669 H 0.78151 0.29308 0.39006 0.0
H1670 H 0.77757 0.28761 0.33118 0.0
H1671 H 0.81669 0.28427 0.32774 0.0
H1672 H 0.82056 0.28935 0.38675 0.0
H1673 H 0.84491 0.30875 0.34948 0.0
H1674 H 0.85789 0.39819 0.36724 0.0
H1675 H 0.85596 0.39744 0.44868 0.0
H1676 H 0.81781 0.31825 0.44678 0.0
C1677 C 0.81516 0.3208 0.26428 0.0
C1678 C 0.82482 0.33723 0.22826 0.0
C1679 C 0.8407 0.36235 0.23659 0.0
C1680 C 0.84611 0.37123 0.28004 0.0
C1681 C 0.83613 0.3546 0.31475 0.0
C1682 C 0.8216 0.32985 0.30748 0.0
C1683 C 0.81437 0.31585 0.35087 0.0
C1684 C 0.7865 0.30198 0.35694 0.0
C1685 C 0.82476 0.29853 0.35388 0.0
C1686 C 0.82671 0.33672 0.3836 0.0
C1687 C 0.83868 0.3589 0.36191 0.0
C1688 C 0.84945 0.38094 0.3847 0.0
C1689 C 0.84847 0.3803 0.43102 0.0
C1690 C 0.83775 0.35781 0.4542 0.0
C1691 C 0.82654 0.33573 0.43002 0.0
H1692 H 0.69018 0.50477 0.23283 0.0
H1693 H 0.61585 0.47112 0.18387 0.0
H1694 H 0.60061 0.4644 0.26117 0.0
H1695 H 0.68036 0.46858 0.32586 0.0
H1696 H 0.70102 0.49302 0.36176 0.0
H1697 H 0.70609 0.49541 0.30276 0.0
H1698 H 0.70582 0.53622 0.30148 0.0
H1699 H 0.70109 0.53415 0.36065 0.0
H1700 H 0.68019 0.53743 0.32461 0.0
H1701 H 0.59383 0.45717 0.34327 0.0
H1702 H 0.59575 0.4548 0.42472 0.0
H1703 H 0.67462 0.49976 0.41975 0.0
C1704 C 0.67074 0.49664 0.23827 0.0
C1705 C 0.65414 0.48848 0.2025 0.0
C1706 C 0.6288 0.47724 0.211 0.0
C1707 C 0.62002 0.47348 0.25466 0.0
C1708 C 0.63692 0.48169 0.28919 0.0
C1709 C 0.66176 0.49354 0.28146 0.0
C1710 C 0.6761 0.50091 0.32433 0.0
C1711 C 0.69181 0.48875 0.32892 0.0
C1712 C 0.69172 0.52884 0.32798 0.0
C1713 C 0.65541 0.4907 0.35748 0.0
C1714 C 0.63297 0.47944 0.33655 0.0
C1715 C 0.61124 0.46666 0.36013 0.0
C1716 C 0.61251 0.46559 0.40639 0.0
C1717 C 0.63528 0.47784 0.42857 0.0
C1718 C 0.65695 0.49056 0.40367 0.0
H1719 H 0.53476 0.2042 0.21607 0.0
H1720 H 0.46243 0.14172 0.1977 0.0
H1721 H 0.46097 0.13124 0.27724 0.0
H1722 H 0.55652 0.17643 0.29561 0.0
H1723 H 0.57313 0.20391 0.32795 0.0
H1724 H 0.56871 0.20585 0.26937 0.0
H1725 H 0.54905 0.23242 0.28571 0.0
H1726 H 0.5533 0.23046 0.34434 0.0
H1727 H 0.52331 0.22108 0.32284 0.0
H1728 H 0.46753 0.12762 0.3586 0.0
H1729 H 0.48107 0.13203 0.43693 0.0
H1730 H 0.54859 0.19751 0.40273 0.0
C1731 C 0.5188 0.18814 0.22882 0.0
C1732 C 0.4988 0.17351 0.20097 0.0
C1733 C 0.47793 0.153 0.21874 0.0
C1734 C 0.47698 0.14693 0.26372 0.0
C1735 C 0.497 0.16172 0.29045 0.0
C1736 C 0.51748 0.18197 0.27374 0.0
C1737 C 0.53615 0.19528 0.30986 0.0
C1738 C 0.56004 0.19536 0.30011 0.0
C1739 C 0.54071 0.22135 0.31604 0.0
C1740 C 0.523 0.17936 0.34947 0.0
C1741 C 0.5005 0.16001 0.33751 0.0
C1742 C 0.48509 0.14271 0.36836 0.0
C1743 C 0.49288 0.14531 0.41261 0.0
C1744 C 0.51573 0.16511 0.42547 0.0
C1745 C 0.53094 0.18232 0.39354 0.0
H1746 H 0.47656 0.65703 0.77232 0.0
H1747 H 0.51349 0.7361 0.77682 0.0
H1748 H 0.5143 0.73758 0.69505 0.0
H1749 H 0.50477 0.64986 0.67645 0.0
H1750 H 0.47732 0.62465 0.65397 0.0
H1751 H 0.48043 0.62963 0.71302 0.0
H1752 H 0.44035 0.63128 0.7151 0.0
H1753 H 0.43696 0.62601 0.65611 0.0
H1754 H 0.43712 0.65232 0.67937 0.0
H1755 H 0.51413 0.73044 0.613 0.0
H1756 H 0.50774 0.71509 0.53591 0.0
H1757 H 0.46427 0.64093 0.58454 0.0
C1758 C 0.48463 0.67463 0.75605 0.0
C1759 C 0.49571 0.69648 0.78088 0.0
C1760 C 0.50583 0.71915 0.75844 0.0
C1761 C 0.50616 0.72018 0.71201 0.0
C1762 C 0.49552 0.69833 0.6885 0.0
C1763 C 0.48437 0.67597 0.70969 0.0
C1764 C 0.47311 0.65522 0.67652 0.0
C1765 C 0.4846 0.63888 0.68023 0.0
C1766 C 0.44523 0.64033 0.68211 0.0
C1767 C 0.48019 0.66945 0.63344 0.0
C1768 C 0.49341 0.69428 0.6411 0.0
C1769 C 0.50335 0.71106 0.60652 0.0
C1770 C 0.49956 0.7022 0.5629 0.0
C1771 C 0.4855 0.67686 0.55422 0.0
C1772 C 0.47546 0.66038 0.59008 0.0
H1773 H 0.32867 0.79803 0.76662 0.0
H1774 H 0.32972 0.86523 0.79895 0.0
H1775 H 0.33486 0.87656 0.71942 0.0
H1776 H 0.37362 0.82281 0.67723 0.0
H1777 H 0.35798 0.79558 0.64393 0.0
H1778 H 0.35554 0.79352 0.70351 0.0
H1779 H 0.3084 0.7712 0.69691 0.0
H1780 H 0.3107 0.77354 0.63735 0.0
H1781 H 0.29424 0.7855 0.667 0.0
H1782 H 0.33883 0.88002 0.63673 0.0
H1783 H 0.34316 0.8762 0.55587 0.0
H1784 H 0.33876 0.80641 0.57691 0.0
C1785 C 0.33041 0.81529 0.7568 0.0
C1786 C 0.32896 0.83091 0.78848 0.0
C1787 C 0.33088 0.85316 0.77482 0.0
C1788 C 0.33373 0.85967 0.72988 0.0
C1789 C 0.33457 0.84365 0.69919 0.0
C1790 C 0.33312 0.82199 0.712 0.0
C1791 C 0.33407 0.80786 0.67221 0.0
C1792 C 0.35665 0.80477 0.67436 0.0
C1793 C 0.31044 0.78306 0.66815 0.0
C1794 C 0.33621 0.82493 0.63506 0.0
C1795 C 0.33648 0.84547 0.65138 0.0
C1796 C 0.33862 0.86402 0.62354 0.0
C1797 C 0.34098 0.86169 0.57783 0.0
C1798 C 0.34109 0.84098 0.56063 0.0
C1799 C 0.33839 0.82226 0.58947 0.0
H1800 H 0.15885 0.50026 0.57081 0.0
H1801 H 0.22532 0.56891 0.54722 0.0
H1802 H 0.23456 0.57283 0.62752 0.0
H1803 H 0.14273 0.51737 0.67321 0.0
H1804 H 0.13127 0.48792 0.69893 0.0
H1805 H 0.13012 0.49021 0.63951 0.0
H1806 H 0.15417 0.46729 0.6302 0.0
H1807 H 0.15534 0.46486 0.6896 0.0
H1808 H 0.18318 0.47872 0.6577 0.0
H1809 H 0.23613 0.56976 0.70985 0.0
H1810 H 0.23057 0.55931 0.78963 0.0
H1811 H 0.16322 0.49246 0.76045 0.0
C1812 C 0.17539 0.51598 0.58276 0.0
C1813 C 0.19159 0.53416 0.55318 0.0
C1814 C 0.21297 0.55464 0.56957 0.0
C1815 C 0.21827 0.55706 0.61501 0.0
C1816 C 0.20197 0.53882 0.64346 0.0
C1817 C 0.18102 0.51861 0.62807 0.0
C1818 C 0.16657 0.50169 0.66582 0.0
C1819 C 0.14117 0.49916 0.66958 0.0
C1820 C 0.16472 0.47666 0.6605 0.0
C1821 C 0.18261 0.51563 0.70483 0.0
C1822 C 0.20289 0.53702 0.69113 0.0
C1823 C 0.22031 0.55309 0.72102 0.0
C1824 C 0.21694 0.54711 0.76618 0.0
C1825 C 0.19632 0.5253 0.78087 0.0
C1826 C 0.17904 0.50931 0.74982 0.0
loop_
_geom_bond_atom_site_label_1
_geom_bond_atom_site_label_2
_geom_bond_distance
_geom_bond_site_symmetry_2
_ccdc_geom_bond_type
Co0 O3 1.970 . S
Co0 N17 1.989 . S
Co0 O25 1.967 1_565 S
Co0 O32 1.920 . S
Co1 O4 1.966 . S
Co1 N10 2.022 . S
Co1 N18 1.993 . S
Co1 O26 1.941 . S
C2 O3 1.258 1_545 S
C2 O4 1.263 . S
O3 Co0 1.970 . S
O3 C2 1.258 1_565 S
O4 Co1 1.966 . S
O4 C2 1.263 . S
C5 O6 1.235 . S
C5 O32 1.289 . S
O6 C5 1.235 . S
C7 C9 1.400 . S
C7 N10 1.351 . S
C7 C12 1.501 . S
C8 C9 1.387 . S
C8 N11 1.341 . S
C9 C7 1.400 . S
C9 C8 1.387 . S
N10 Co1 2.022 . S
N10 C7 1.351 . S
N10 N11 1.365 . S
N11 C8 1.341 . S
N11 N10 1.365 . S
N11 H31 0.862 . S
C12 C7 1.501 . S
C12 H13 0.961 . S
C12 H14 0.961 . S
C12 H15 0.960 . S
H13 C12 0.961 . S
H14 C12 0.961 . S
H15 C12 0.960 . S
C16 N17 1.342 . S
C16 C20 1.401 . S
C16 C21 1.499 . S
N17 Co0 1.989 . S
N17 C16 1.342 . S
N17 N18 1.388 1_565 S
N18 Co1 1.993 . S
N18 N17 1.388 1_545 S
N18 C19 1.346 . S
C19 N18 1.346 . S
C19 C20 1.396 1_545 S
C19 C29 1.510 . S
C20 C16 1.401 . S
C20 C19 1.396 1_565 S
C21 C16 1.499 . S
C21 H22 0.959 . S
C21 H23 0.960 . S
C21 H24 0.961 . S
H22 C21 0.959 . S
H23 C21 0.960 . S
H24 C21 0.961 . S
O25 Co0 1.967 1_545 S
O25 C33 1.258 . S
O26 Co1 1.941 . S
O26 C33 1.266 . S
H27 C29 0.959 . S
H28 C29 0.961 . S
C29 C19 1.510 . S
C29 H27 0.959 . S
C29 H28 0.961 . S
C29 H30 0.960 . S
H30 C29 0.960 . S
H31 N11 0.862 . S
O32 Co0 1.920 . S
O32 C5 1.289 . S
C33 O25 1.258 . S
C33 O26 1.266 . S
Co34 O37 1.970 . S
Co34 N51 1.989 . S
Co34 O59 1.967 1_455 S
Co34 O66 1.920 . S
Co35 O38 1.966 . S
Co35 N44 2.022 . S
Co35 N52 1.975 1_655 S
Co35 O60 1.941 . S
C36 O37 1.258 . S
C36 O38 1.263 1_455 S
O37 Co34 1.970 . S
O37 C36 1.258 . S
O38 Co35 1.966 . S
O38 C36 1.263 1_655 S
C39 O40 1.235 . S
C39 O66 1.289 . S
O40 C39 1.235 . S
C41 C43 1.400 . S
C41 N44 1.351 . S
C41 C46 1.501 . S
C42 C43 1.387 . S
C42 N45 1.341 . S
C43 C41 1.400 . S
C43 C42 1.387 . S
N44 Co35 2.022 . S
N44 C41 1.351 . S
N44 N45 1.365 . S
N45 C42 1.341 . S
N45 N44 1.365 . S
N45 H65 0.862 . S
C46 C41 1.501 . S
C46 H47 0.961 . S
C46 H48 0.961 . S
C46 H49 0.960 . S
H47 C46 0.961 . S
H48 C46 0.961 . S
H49 C46 0.960 . S
C50 N51 1.342 . S
C50 C54 1.401 . S
C50 C55 1.499 . S
N51 Co34 1.989 . S
N51 C50 1.342 . S
N51 N52 1.417 . S
N52 Co35 1.975 1_455 S
N52 N51 1.417 . S
N52 C53 1.341 . S
C53 N52 1.341 . S
C53 C54 1.396 . S
C53 C63 1.510 1_455 S
C54 C50 1.401 . S
C54 C53 1.396 . S
C55 C50 1.499 . S
C55 H56 0.959 . S
C55 H57 0.960 . S
C55 H58 0.961 . S
H56 C55 0.959 . S
H57 C55 0.960 . S
H58 C55 0.961 . S
O59 Co34 1.967 1_655 S
O59 C67 1.258 . S
O60 Co35 1.941 . S
O60 C67 1.266 . S
H61 C63 0.959 . S
H62 C63 0.961 . S
C63 C53 1.510 1_655 S
C63 H61 0.959 . S
C63 H62 0.961 . S
C63 H64 0.960 . S
H64 C63 0.960 . S
H65 N45 0.862 . S
O66 Co34 1.920 . S
O66 C39 1.289 . S
C67 O59 1.258 . S
C67 O60 1.266 . S
Co68 O71 1.970 . S
Co68 N85 1.989 . S
Co68 O93 1.967 . S
Co68 O100 1.920 . S
Co69 O72 1.966 . S
Co69 N78 2.022 . S
Co69 N86 1.993 . S
Co69 O94 1.941 . S
C70 O71 1.258 . S
C70 O72 1.263 . S
O71 Co68 1.970 . S
O71 C70 1.258 . S
O72 Co69 1.966 . S
O72 C70 1.263 . S
C73 O74 1.235 . S
C73 O100 1.289 . S
O74 C73 1.235 . S
C75 C77 1.400 . S
C75 N78 1.351 . S
C75 C80 1.501 . S
C76 C77 1.387 . S
C76 N79 1.341 . S
C77 C75 1.400 . S
C77 C76 1.387 . S
N78 Co69 2.022 . S
N78 C75 1.351 . S
N78 N79 1.365 . S
N79 C76 1.341 . S
N79 N78 1.365 . S
N79 H99 0.862 . S
C80 C75 1.501 . S
C80 H81 0.961 . S
C80 H82 0.961 . S
C80 H83 0.960 . S
H81 C80 0.961 . S
H82 C80 0.961 . S
H83 C80 0.960 . S
C84 N85 1.342 . S
C84 C88 1.401 . S
C84 C89 1.499 . S
N85 Co68 1.989 . S
N85 C84 1.342 . S
N85 N86 1.388 . S
N86 Co69 1.993 . S
N86 N85 1.388 . S
N86 C87 1.346 . S
C87 N86 1.346 . S
C87 C88 1.396 . S
C87 C97 1.510 . S
C88 C84 1.401 . S
C88 C87 1.396 . S
C89 C84 1.499 . S
C89 H90 0.959 . S
C89 H91 0.960 . S
C89 H92 0.961 . S
H90 C89 0.959 . S
H91 C89 0.960 . S
H92 C89 0.961 . S
O93 Co68 1.967 . S
O93 C101 1.258 . S
O94 Co69 1.941 . S
O94 C101 1.266 . S
H95 C97 0.959 . S
H96 C97 0.961 . S
C97 C87 1.510 . S
C97 H95 0.959 . S
C97 H96 0.961 . S
C97 H98 0.960 . S
H98 C97 0.960 . S
H99 N79 0.862 . S
O100 Co68 1.920 . S
O100 C73 1.289 . S
C101 O93 1.258 . S
C101 O94 1.266 . S
Co102 O105 1.970 . S
Co102 N119 1.989 . S
Co102 O127 1.967 1_655 S
Co102 O134 1.920 . S
Co103 O106 1.966 . S
Co103 N112 2.022 . S
Co103 N120 1.993 . S
Co103 O128 1.941 . S
C104 O105 1.258 1_455 S
C104 O106 1.263 . S
O105 Co102 1.970 . S
O105 C104 1.258 1_655 S
O106 Co103 1.966 . S
O106 C104 1.263 . S
C107 O108 1.235 . S
C107 O134 1.289 . S
O108 C107 1.235 . S
C109 C111 1.400 . S
C109 N112 1.351 . S
C109 C114 1.501 . S
C110 C111 1.387 . S
C110 N113 1.341 . S
C111 C109 1.400 . S
C111 C110 1.387 . S
N112 Co103 2.022 . S
N112 C109 1.351 . S
N112 N113 1.365 . S
N113 C110 1.341 . S
N113 N112 1.365 . S
N113 H133 0.862 . S
C114 C109 1.501 . S
C114 H115 0.961 . S
C114 H116 0.961 . S
C114 H117 0.960 . S
H115 C114 0.961 . S
H116 C114 0.961 . S
H117 C114 0.960 . S
C118 N119 1.342 . S
C118 C122 1.401 . S
C118 C123 1.499 . S
N119 Co102 1.989 . S
N119 C118 1.342 . S
N119 N120 1.388 1_655 S
N120 Co103 1.993 . S
N120 N119 1.388 1_455 S
N120 C121 1.346 . S
C121 N120 1.346 . S
C121 C122 1.396 1_455 S
C121 C131 1.510 . S
C122 C118 1.401 . S
C122 C121 1.396 1_655 S
C123 C118 1.499 . S
C123 H124 0.959 . S
C123 H125 0.960 . S
C123 H126 0.961 . S
H124 C123 0.959 . S
H125 C123 0.960 . S
H126 C123 0.961 . S
O127 Co102 1.967 1_455 S
O127 C135 1.258 . S
O128 Co103 1.941 . S
O128 C135 1.266 . S
H129 C131 0.959 . S
H130 C131 0.961 . S
C131 C121 1.510 . S
C131 H129 0.959 . S
C131 H130 0.961 . S
C131 H132 0.960 . S
H132 C131 0.960 . S
H133 N113 0.862 . S
O134 Co102 1.920 . S
O134 C107 1.289 . S
C135 O127 1.258 . S
C135 O128 1.266 . S
Co136 O139 1.970 . S
Co136 N153 1.989 . S
Co136 O161 1.967 . S
Co136 O168 1.920 . S
Co137 O140 1.966 . S
Co137 N146 2.022 . S
Co137 N154 1.993 . S
Co137 O162 1.941 . S
C138 O139 1.258 . S
C138 O140 1.263 . S
O139 Co136 1.970 . S
O139 C138 1.258 . S
O140 Co137 1.966 . S
O140 C138 1.263 . S
C141 O142 1.235 . S
C141 O168 1.289 . S
O142 C141 1.235 . S
C143 C145 1.400 . S
C143 N146 1.351 . S
C143 C148 1.501 . S
C144 C145 1.387 . S
C144 N147 1.341 . S
C145 C143 1.400 . S
C145 C144 1.387 . S
N146 Co137 2.022 . S
N146 C143 1.351 . S
N146 N147 1.365 . S
N147 C144 1.341 . S
N147 N146 1.365 . S
N147 H167 0.862 . S
C148 C143 1.501 . S
C148 H149 0.961 . S
C148 H150 0.961 . S
C148 H151 0.960 . S
H149 C148 0.961 . S
H150 C148 0.961 . S
H151 C148 0.960 . S
C152 N153 1.342 . S
C152 C156 1.401 . S
C152 C157 1.499 . S
N153 Co136 1.989 . S
N153 C152 1.342 . S
N153 N154 1.388 . S
N154 Co137 1.993 . S
N154 N153 1.388 . S
N154 C155 1.346 . S
C155 N154 1.346 . S
C155 C156 1.396 . S
C155 C165 1.510 . S
C156 C152 1.401 . S
C156 C155 1.396 . S
C157 C152 1.499 . S
C157 H158 0.959 . S
C157 H159 0.960 . S
C157 H160 0.961 . S
H158 C157 0.959 . S
H159 C157 0.960 . S
H160 C157 0.961 . S
O161 Co136 1.967 . S
O161 C169 1.258 . S
O162 Co137 1.941 . S
O162 C169 1.266 . S
H163 C165 0.959 . S
H164 C165 0.961 . S
C165 C155 1.510 . S
C165 H163 0.959 . S
C165 H164 0.961 . S
C165 H166 0.960 . S
H166 C165 0.960 . S
H167 N147 0.862 . S
O168 Co136 1.920 . S
O168 C141 1.289 . S
C169 O161 1.258 . S
C169 O162 1.266 . S
Co170 O173 1.970 . S
Co170 N187 1.989 . S
Co170 O195 1.967 1_545 S
Co170 O202 1.920 . S
Co171 O174 1.966 . S
Co171 N180 2.022 . S
Co171 N188 1.976 1_565 S
Co171 O196 1.941 . S
C172 O173 1.258 . S
C172 O174 1.263 1_545 S
O173 Co170 1.970 . S
O173 C172 1.258 . S
O174 Co171 1.966 . S
O174 C172 1.263 1_565 S
C175 O176 1.235 . S
C175 O202 1.289 . S
O176 C175 1.235 . S
C177 C179 1.400 . S
C177 N180 1.351 . S
C177 C182 1.501 . S
C178 C179 1.387 . S
C178 N181 1.341 . S
C179 C177 1.400 . S
C179 C178 1.387 . S
N180 Co171 2.022 . S
N180 C177 1.351 . S
N180 N181 1.365 . S
N181 C178 1.341 . S
N181 N180 1.365 . S
N181 H201 0.862 . S
C182 C177 1.501 . S
C182 H183 0.961 . S
C182 H184 0.961 . S
C182 H185 0.960 . S
H183 C182 0.961 . S
H184 C182 0.961 . S
H185 C182 0.960 . S
C186 N187 1.342 . S
C186 C190 1.401 . S
C186 C191 1.499 . S
N187 Co170 1.989 . S
N187 C186 1.342 . S
N187 N188 1.416 . S
N188 Co171 1.976 1_545 S
N188 N187 1.416 . S
N188 C189 1.341 . S
C189 N188 1.341 . S
C189 C190 1.396 . S
C189 C199 1.510 1_545 S
C190 C186 1.401 . S
C190 C189 1.396 . S
C191 C186 1.499 . S
C191 H192 0.959 . S
C191 H193 0.960 . S
C191 H194 0.961 . S
H192 C191 0.959 . S
H193 C191 0.960 . S
H194 C191 0.961 . S
O195 Co170 1.967 1_565 S
O195 C203 1.258 . S
O196 Co171 1.941 . S
O196 C203 1.266 . S
H197 C199 0.959 . S
H198 C199 0.961 . S
C199 C189 1.510 1_565 S
C199 H197 0.959 . S
C199 H198 0.961 . S
C199 H200 0.960 . S
H200 C199 0.960 . S
H201 N181 0.862 . S
O202 Co170 1.920 . S
O202 C175 1.289 . S
C203 O195 1.258 . S
C203 O196 1.266 . S
Co204 O207 1.970 . S
Co204 N221 1.989 . S
Co204 O229 1.967 . S
Co204 O236 1.920 . S
Co205 O208 1.966 . S
Co205 N214 2.022 . S
Co205 N222 1.993 . S
Co205 O230 1.941 . S
C206 O207 1.258 . S
C206 O208 1.263 . S
O207 Co204 1.970 . S
O207 C206 1.258 . S
O208 Co205 1.966 . S
O208 C206 1.263 . S
C209 O210 1.235 . S
C209 O236 1.289 . S
O210 C209 1.235 . S
C211 C213 1.400 . S
C211 N214 1.351 . S
C211 C216 1.501 . S
C212 C213 1.387 . S
C212 N215 1.341 . S
C213 C211 1.400 . S
C213 C212 1.387 . S
N214 Co205 2.022 . S
N214 C211 1.351 . S
N214 N215 1.365 . S
N215 C212 1.341 . S
N215 N214 1.365 . S
N215 H235 0.862 . S
C216 C211 1.501 . S
C216 H217 0.961 . S
C216 H218 0.961 . S
C216 H219 0.960 . S
H217 C216 0.961 . S
H218 C216 0.961 . S
H219 C216 0.960 . S
C220 N221 1.342 . S
C220 C224 1.401 . S
C220 C225 1.499 . S
N221 Co204 1.989 . S
N221 C220 1.342 . S
N221 N222 1.388 . S
N222 Co205 1.993 . S
N222 N221 1.388 . S
N222 C223 1.346 . S
C223 N222 1.346 . S
C223 C224 1.396 . S
C223 C233 1.510 . S
C224 C220 1.401 . S
C224 C223 1.396 . S
C225 C220 1.499 . S
C225 H226 0.959 . S
C225 H227 0.960 . S
C225 H228 0.961 . S
H226 C225 0.959 . S
H227 C225 0.960 . S
H228 C225 0.961 . S
O229 Co204 1.967 . S
O229 C237 1.258 . S
O230 Co205 1.941 . S
O230 C237 1.266 . S
H231 C233 0.959 . S
H232 C233 0.961 . S
C233 C223 1.510 . S
C233 H231 0.959 . S
C233 H232 0.961 . S
C233 H234 0.960 . S
H234 C233 0.960 . S
H235 N215 0.862 . S
O236 Co204 1.920 . S
O236 C209 1.289 . S
C237 O229 1.258 . S
C237 O230 1.266 . S
Co238 O241 1.970 . S
Co238 N255 1.989 . S
Co238 O263 1.967 . S
Co238 O270 1.920 . S
Co239 O242 1.966 . S
Co239 N248 2.022 . S
Co239 N256 1.993 . S
Co239 O264 1.941 . S
C240 O241 1.258 . S
C240 O242 1.263 . S
O241 Co238 1.970 . S
O241 C240 1.258 . S
O242 Co239 1.966 . S
O242 C240 1.263 . S
C243 O244 1.235 . S
C243 O270 1.289 . S
O244 C243 1.235 . S
C245 C247 1.400 . S
C245 N248 1.351 . S
C245 C250 1.501 . S
C246 C247 1.387 . S
C246 N249 1.341 . S
C247 C245 1.400 . S
C247 C246 1.387 . S
N248 Co239 2.022 . S
N248 C245 1.351 . S
N248 N249 1.365 . S
N249 C246 1.341 . S
N249 N248 1.365 . S
N249 H269 0.862 . S
C250 C245 1.501 . S
C250 H251 0.961 . S
C250 H252 0.961 . S
C250 H253 0.960 . S
H251 C250 0.961 . S
H252 C250 0.961 . S
H253 C250 0.960 . S
C254 N255 1.342 . S
C254 C258 1.401 . S
C254 C259 1.499 . S
N255 Co238 1.989 . S
N255 C254 1.342 . S
N255 N256 1.388 . S
N256 Co239 1.993 . S
N256 N255 1.388 . S
N256 C257 1.346 . S
C257 N256 1.346 . S
C257 C258 1.396 . S
C257 C267 1.510 . S
C258 C254 1.401 . S
C258 C257 1.396 . S
C259 C254 1.499 . S
C259 H260 0.959 . S
C259 H261 0.960 . S
C259 H262 0.961 . S
H260 C259 0.959 . S
H261 C259 0.960 . S
H262 C259 0.961 . S
O263 Co238 1.967 . S
O263 C271 1.258 . S
O264 Co239 1.941 . S
O264 C271 1.266 . S
H265 C267 0.959 . S
H266 C267 0.961 . S
C267 C257 1.510 . S
C267 H265 0.959 . S
C267 H266 0.961 . S
C267 H268 0.960 . S
H268 C267 0.960 . S
H269 N249 0.862 . S
O270 Co238 1.920 . S
O270 C243 1.289 . S
C271 O263 1.258 . S
C271 O264 1.266 . S
Co272 O275 1.970 . S
Co272 N289 1.989 . S
Co272 O297 1.967 . S
Co272 O304 1.920 . S
Co273 O276 1.966 . S
Co273 N282 2.022 . S
Co273 N290 1.993 . S
Co273 O298 1.941 . S
C274 O275 1.258 . S
C274 O276 1.263 . S
O275 Co272 1.970 . S
O275 C274 1.258 . S
O276 Co273 1.966 . S
O276 C274 1.263 . S
C277 O278 1.235 . S
C277 O304 1.289 . S
O278 C277 1.235 . S
C279 C281 1.400 . S
C279 N282 1.351 . S
C279 C284 1.501 . S
C280 C281 1.387 . S
C280 N283 1.341 . S
C281 C279 1.400 . S
C281 C280 1.387 . S
N282 Co273 2.022 . S
N282 C279 1.351 . S
N282 N283 1.365 . S
N283 C280 1.341 . S
N283 N282 1.365 . S
N283 H303 0.862 . S
C284 C279 1.501 . S
C284 H285 0.961 . S
C284 H286 0.961 . S
C284 H287 0.960 . S
H285 C284 0.961 . S
H286 C284 0.961 . S
H287 C284 0.960 . S
C288 N289 1.342 . S
C288 C292 1.401 . S
C288 C293 1.499 . S
N289 Co272 1.989 . S
N289 C288 1.342 . S
N289 N290 1.388 . S
N290 Co273 1.993 . S
N290 N289 1.388 . S
N290 C291 1.346 . S
C291 N290 1.346 . S
C291 C292 1.396 . S
C291 C301 1.510 . S
C292 C288 1.401 . S
C292 C291 1.396 . S
C293 C288 1.499 . S
C293 H294 0.959 . S
C293 H295 0.960 . S
C293 H296 0.961 . S
H294 C293 0.959 . S
H295 C293 0.960 . S
H296 C293 0.961 . S
O297 Co272 1.967 . S
O297 C305 1.258 . S
O298 Co273 1.941 . S
O298 C305 1.266 . S
H299 C301 0.959 . S
H300 C301 0.961 . S
C301 C291 1.510 . S
C301 H299 0.959 . S
C301 H300 0.961 . S
C301 H302 0.960 . S
H302 C301 0.960 . S
H303 N283 0.862 . S
O304 Co272 1.920 . S
O304 C277 1.289 . S
C305 O297 1.258 . S
C305 O298 1.266 . S
Co306 O309 1.970 . S
Co306 N323 1.989 . S
Co306 O331 1.967 . S
Co306 O338 1.920 . S
Co307 O310 1.966 . S
Co307 N316 2.022 . S
Co307 N324 1.993 . S
Co307 O332 1.941 . S
C308 O309 1.261 . S
C308 O310 1.267 . S
O309 Co306 1.970 . S
O309 C308 1.261 . S
O310 Co307 1.966 . S
O310 C308 1.267 . S
C311 O312 1.235 . S
C311 O338 1.289 . S
O312 C311 1.235 . S
C313 C315 1.400 . S
C313 N316 1.351 . S
C313 C318 1.501 . S
C314 C315 1.387 . S
C314 N317 1.341 . S
C315 C313 1.400 . S
C315 C314 1.387 . S
N316 Co307 2.022 . S
N316 C313 1.351 . S
N316 N317 1.365 . S
N317 C314 1.341 . S
N317 N316 1.365 . S
N317 H337 0.862 . S
C318 C313 1.501 . S
C318 H319 0.961 . S
C318 H320 0.961 . S
C318 H321 0.960 . S
H319 C318 0.961 . S
H320 C318 0.961 . S
H321 C318 0.960 . S
C322 N323 1.342 . S
C322 C326 1.401 . S
C322 C327 1.499 . S
N323 Co306 1.989 . S
N323 C322 1.342 . S
N323 N324 1.388 . S
N324 Co307 1.993 . S
N324 N323 1.388 . S
N324 C325 1.346 . S
C325 N324 1.346 . S
C325 C326 1.396 . S
C325 C335 1.510 . S
C326 C322 1.401 . S
C326 C325 1.396 . S
C327 C322 1.499 . S
C327 H328 0.959 . S
C327 H329 0.960 . S
C327 H330 0.961 . S
H328 C327 0.959 . S
H329 C327 0.960 . S
H330 C327 0.961 . S
O331 Co306 1.967 . S
O331 C339 1.258 . S
O332 Co307 1.941 . S
O332 C339 1.266 . S
H333 C335 0.959 . S
H334 C335 0.961 . S
C335 C325 1.510 . S
C335 H333 0.959 . S
C335 H334 0.961 . S
C335 H336 0.960 . S
H336 C335 0.960 . S
H337 N317 0.862 . S
O338 Co306 1.920 . S
O338 C311 1.289 . S
C339 O331 1.258 . S
C339 O332 1.266 . S
Co340 O343 1.970 . S
Co340 N357 1.989 . S
Co340 O365 1.967 . S
Co340 O372 1.920 . S
Co341 O344 1.966 . S
Co341 N350 2.022 . S
Co341 N358 1.993 . S
Co341 O366 1.941 . S
C342 O343 1.261 . S
C342 O344 1.267 . S
O343 Co340 1.970 . S
O343 C342 1.261 . S
O344 Co341 1.966 . S
O344 C342 1.267 . S
C345 O346 1.235 . S
C345 O372 1.289 . S
O346 C345 1.235 . S
C347 C349 1.400 . S
C347 N350 1.351 . S
C347 C352 1.501 . S
C348 C349 1.387 . S
C348 N351 1.341 . S
C349 C347 1.400 . S
C349 C348 1.387 . S
N350 Co341 2.022 . S
N350 C347 1.351 . S
N350 N351 1.365 . S
N351 C348 1.341 . S
N351 N350 1.365 . S
N351 H371 0.862 . S
C352 C347 1.501 . S
C352 H353 0.961 . S
C352 H354 0.961 . S
C352 H355 0.960 . S
H353 C352 0.961 . S
H354 C352 0.961 . S
H355 C352 0.960 . S
C356 N357 1.342 . S
C356 C360 1.401 . S
C356 C361 1.499 . S
N357 Co340 1.989 . S
N357 C356 1.342 . S
N357 N358 1.388 . S
N358 Co341 1.993 . S
N358 N357 1.388 . S
N358 C359 1.346 . S
C359 N358 1.346 . S
C359 C360 1.396 . S
C359 C369 1.510 . S
C360 C356 1.401 . S
C360 C359 1.396 . S
C361 C356 1.499 . S
C361 H362 0.959 . S
C361 H363 0.960 . S
C361 H364 0.961 . S
H362 C361 0.959 . S
H363 C361 0.960 . S
H364 C361 0.961 . S
O365 Co340 1.967 . S
O365 C373 1.258 . S
O366 Co341 1.941 . S
O366 C373 1.266 . S
H367 C369 0.959 . S
H368 C369 0.961 . S
C369 C359 1.510 . S
C369 H367 0.959 . S
C369 H368 0.961 . S
C369 H370 0.960 . S
H370 C369 0.960 . S
H371 N351 0.862 . S
O372 Co340 1.920 . S
O372 C345 1.289 . S
C373 O365 1.258 . S
C373 O366 1.266 . S
Co374 O377 1.970 . S
Co374 N391 1.989 . S
Co374 O399 1.967 . S
Co374 O406 1.920 . S
Co375 O378 1.966 . S
Co375 N384 2.022 . S
Co375 N392 1.993 . S
Co375 O400 1.941 . S
C376 O377 1.261 . S
C376 O378 1.267 . S
O377 Co374 1.970 . S
O377 C376 1.261 . S
O378 Co375 1.966 . S
O378 C376 1.267 . S
C379 O380 1.235 . S
C379 O406 1.289 . S
O380 C379 1.235 . S
C381 C383 1.400 . S
C381 N384 1.351 . S
C381 C386 1.501 . S
C382 C383 1.387 . S
C382 N385 1.341 . S
C383 C381 1.400 . S
C383 C382 1.387 . S
N384 Co375 2.022 . S
N384 C381 1.351 . S
N384 N385 1.365 . S
N385 C382 1.341 . S
N385 N384 1.365 . S
N385 H405 0.862 . S
C386 C381 1.501 . S
C386 H387 0.961 . S
C386 H388 0.961 . S
C386 H389 0.960 . S
H387 C386 0.961 . S
H388 C386 0.961 . S
H389 C386 0.960 . S
C390 N391 1.342 . S
C390 C394 1.401 . S
C390 C395 1.499 . S
N391 Co374 1.989 . S
N391 C390 1.342 . S
N391 N392 1.388 . S
N392 Co375 1.993 . S
N392 N391 1.388 . S
N392 C393 1.346 . S
C393 N392 1.346 . S
C393 C394 1.396 . S
C393 C403 1.510 . S
C394 C390 1.401 . S
C394 C393 1.396 . S
C395 C390 1.499 . S
C395 H396 0.959 . S
C395 H397 0.960 . S
C395 H398 0.961 . S
H396 C395 0.959 . S
H397 C395 0.960 . S
H398 C395 0.961 . S
O399 Co374 1.967 . S
O399 C407 1.258 . S
O400 Co375 1.941 . S
O400 C407 1.266 . S
H401 C403 0.959 . S
H402 C403 0.961 . S
C403 C393 1.510 . S
C403 H401 0.959 . S
C403 H402 0.961 . S
C403 H404 0.960 . S
H404 C403 0.960 . S
H405 N385 0.862 . S
O406 Co374 1.920 . S
O406 C379 1.289 . S
C407 O399 1.258 . S
C407 O400 1.266 . S
Co408 O411 1.970 . S
Co408 N425 1.989 . S
Co408 O433 1.967 . S
Co408 O440 1.920 . S
Co409 O412 1.966 . S
Co409 N418 2.022 . S
Co409 N426 1.993 . S
Co409 O434 1.941 . S
C410 O411 1.261 . S
C410 O412 1.267 . S
O411 Co408 1.970 . S
O411 C410 1.261 . S
O412 Co409 1.966 . S
O412 C410 1.267 . S
C413 O414 1.235 . S
C413 O440 1.289 . S
O414 C413 1.235 . S
C415 C417 1.400 . S
C415 N418 1.351 . S
C415 C420 1.501 . S
C416 C417 1.387 . S
C416 N419 1.341 . S
C417 C415 1.400 . S
C417 C416 1.387 . S
N418 Co409 2.022 . S
N418 C415 1.351 . S
N418 N419 1.365 . S
N419 C416 1.341 . S
N419 N418 1.365 . S
N419 H439 0.862 . S
C420 C415 1.501 . S
C420 H421 0.961 . S
C420 H422 0.961 . S
C420 H423 0.960 . S
H421 C420 0.961 . S
H422 C420 0.961 . S
H423 C420 0.960 . S
C424 N425 1.342 . S
C424 C428 1.401 . S
C424 C429 1.499 . S
N425 Co408 1.989 . S
N425 C424 1.342 . S
N425 N426 1.388 . S
N426 Co409 1.993 . S
N426 N425 1.388 . S
N426 C427 1.346 . S
C427 N426 1.346 . S
C427 C428 1.396 . S
C427 C437 1.510 . S
C428 C424 1.401 . S
C428 C427 1.396 . S
C429 C424 1.499 . S
C429 H430 0.959 . S
C429 H431 0.960 . S
C429 H432 0.961 . S
H430 C429 0.959 . S
H431 C429 0.960 . S
H432 C429 0.961 . S
O433 Co408 1.967 . S
O433 C441 1.258 . S
O434 Co409 1.941 . S
O434 C441 1.266 . S
H435 C437 0.959 . S
H436 C437 0.961 . S
C437 C427 1.510 . S
C437 H435 0.959 . S
C437 H436 0.961 . S
C437 H438 0.960 . S
H438 C437 0.960 . S
H439 N419 0.862 . S
O440 Co408 1.920 . S
O440 C413 1.289 . S
C441 O433 1.258 . S
C441 O434 1.266 . S
Co442 O445 1.970 . S
Co442 N459 1.989 . S
Co442 O467 1.967 . S
Co442 O474 1.920 . S
Co443 O446 1.966 . S
Co443 N452 2.022 . S
Co443 N460 1.993 . S
Co443 O468 1.941 . S
C444 O445 1.261 . S
C444 O446 1.267 . S
O445 Co442 1.970 . S
O445 C444 1.261 . S
O446 Co443 1.966 . S
O446 C444 1.267 . S
C447 O448 1.235 . S
C447 O474 1.289 . S
O448 C447 1.235 . S
C449 C451 1.400 . S
C449 N452 1.351 . S
C449 C454 1.501 . S
C450 C451 1.387 . S
C450 N453 1.341 . S
C451 C449 1.400 . S
C451 C450 1.387 . S
N452 Co443 2.022 . S
N452 C449 1.351 . S
N452 N453 1.365 . S
N453 C450 1.341 . S
N453 N452 1.365 . S
N453 H473 0.862 . S
C454 C449 1.501 . S
C454 H455 0.961 . S
C454 H456 0.961 . S
C454 H457 0.960 . S
H455 C454 0.961 . S
H456 C454 0.961 . S
H457 C454 0.960 . S
C458 N459 1.342 . S
C458 C462 1.401 . S
C458 C463 1.499 . S
N459 Co442 1.989 . S
N459 C458 1.342 . S
N459 N460 1.388 . S
N460 Co443 1.993 . S
N460 N459 1.388 . S
N460 C461 1.346 . S
C461 N460 1.346 . S
C461 C462 1.396 . S
C461 C471 1.510 . S
C462 C458 1.401 . S
C462 C461 1.396 . S
C463 C458 1.499 . S
C463 H464 0.959 . S
C463 H465 0.960 . S
C463 H466 0.961 . S
H464 C463 0.959 . S
H465 C463 0.960 . S
H466 C463 0.961 . S
O467 Co442 1.967 . S
O467 C475 1.258 . S
O468 Co443 1.941 . S
O468 C475 1.266 . S
H469 C471 0.959 . S
H470 C471 0.961 . S
C471 C461 1.510 . S
C471 H469 0.959 . S
C471 H470 0.961 . S
C471 H472 0.960 . S
H472 C471 0.960 . S
H473 N453 0.862 . S
O474 Co442 1.920 . S
O474 C447 1.289 . S
C475 O467 1.258 . S
C475 O468 1.266 . S
Co476 O479 1.970 . S
Co476 N493 1.989 . S
Co476 O501 1.967 . S
Co476 O508 1.920 . S
Co477 O480 1.966 . S
Co477 N486 2.022 . S
Co477 N494 1.993 . S
Co477 O502 1.941 . S
C478 O479 1.261 . S
C478 O480 1.267 . S
O479 Co476 1.970 . S
O479 C478 1.261 . S
O480 Co477 1.966 . S
O480 C478 1.267 . S
C481 O482 1.235 . S
C481 O508 1.289 . S
O482 C481 1.235 . S
C483 C485 1.400 . S
C483 N486 1.351 . S
C483 C488 1.501 . S
C484 C485 1.387 . S
C484 N487 1.341 . S
C485 C483 1.400 . S
C485 C484 1.387 . S
N486 Co477 2.022 . S
N486 C483 1.351 . S
N486 N487 1.365 . S
N487 C484 1.341 . S
N487 N486 1.365 . S
N487 H507 0.862 . S
C488 C483 1.501 . S
C488 H489 0.961 . S
C488 H490 0.961 . S
C488 H491 0.960 . S
H489 C488 0.961 . S
H490 C488 0.961 . S
H491 C488 0.960 . S
C492 N493 1.342 . S
C492 C496 1.401 . S
C492 C497 1.499 . S
N493 Co476 1.989 . S
N493 C492 1.342 . S
N493 N494 1.388 . S
N494 Co477 1.993 . S
N494 N493 1.388 . S
N494 C495 1.346 . S
C495 N494 1.346 . S
C495 C496 1.396 . S
C495 C505 1.510 . S
C496 C492 1.401 . S
C496 C495 1.396 . S
C497 C492 1.499 . S
C497 H498 0.959 . S
C497 H499 0.960 . S
C497 H500 0.961 . S
H498 C497 0.959 . S
H499 C497 0.960 . S
H500 C497 0.961 . S
O501 Co476 1.967 . S
O501 C509 1.258 . S
O502 Co477 1.941 . S
O502 C509 1.266 . S
H503 C505 0.959 . S
H504 C505 0.961 . S
C505 C495 1.510 . S
C505 H503 0.959 . S
C505 H504 0.961 . S
C505 H506 0.960 . S
H506 C505 0.960 . S
H507 N487 0.862 . S
O508 Co476 1.920 . S
O508 C481 1.289 . S
C509 O501 1.258 . S
C509 O502 1.266 . S
Co510 O513 1.970 . S
Co510 N527 1.989 . S
Co510 O535 1.967 . S
Co510 O542 1.920 . S
Co511 O514 1.966 . S
Co511 N520 2.022 . S
Co511 N528 1.993 . S
Co511 O536 1.941 . S
C512 O513 1.258 . S
C512 O514 1.263 . S
O513 Co510 1.970 . S
O513 C512 1.258 . S
O514 Co511 1.966 . S
O514 C512 1.263 . S
C515 O516 1.235 . S
C515 O542 1.289 . S
O516 C515 1.235 . S
C517 C519 1.400 . S
C517 N520 1.351 . S
C517 C522 1.501 . S
C518 C519 1.387 . S
C518 N521 1.341 . S
C519 C517 1.400 . S
C519 C518 1.387 . S
N520 Co511 2.022 . S
N520 C517 1.351 . S
N520 N521 1.365 . S
N521 C518 1.341 . S
N521 N520 1.365 . S
N521 H541 0.862 . S
C522 C517 1.501 . S
C522 H523 0.961 . S
C522 H524 0.961 . S
C522 H525 0.960 . S
H523 C522 0.961 . S
H524 C522 0.961 . S
H525 C522 0.960 . S
C526 N527 1.342 . S
C526 C530 1.401 . S
C526 C531 1.499 . S
N527 Co510 1.989 . S
N527 C526 1.342 . S
N527 N528 1.388 . S
N528 Co511 1.993 . S
N528 N527 1.388 . S
N528 C529 1.346 . S
C529 N528 1.346 . S
C529 C530 1.396 . S
C529 C539 1.510 . S
C530 C526 1.401 . S
C530 C529 1.396 . S
C531 C526 1.499 . S
C531 H532 0.959 . S
C531 H533 0.960 . S
C531 H534 0.961 . S
H532 C531 0.959 . S
H533 C531 0.960 . S
H534 C531 0.961 . S
O535 Co510 1.967 . S
O535 C543 1.258 . S
O536 Co511 1.941 . S
O536 C543 1.266 . S
H537 C539 0.959 . S
H538 C539 0.961 . S
C539 C529 1.510 . S
C539 H537 0.959 . S
C539 H538 0.961 . S
C539 H540 0.960 . S
H540 C539 0.960 . S
H541 N521 0.862 . S
O542 Co510 1.920 . S
O542 C515 1.289 . S
C543 O535 1.258 . S
C543 O536 1.266 . S
Co544 O547 1.970 . S
Co544 N561 1.989 . S
Co544 O569 1.967 . S
Co544 O576 1.920 . S
Co545 O548 1.966 . S
Co545 N554 2.022 . S
Co545 N562 1.993 . S
Co545 O570 1.941 . S
C546 O547 1.258 . S
C546 O548 1.263 . S
O547 Co544 1.970 . S
O547 C546 1.258 . S
O548 Co545 1.966 . S
O548 C546 1.263 . S
C549 O550 1.235 . S
C549 O576 1.289 . S
O550 C549 1.235 . S
C551 C553 1.400 . S
C551 N554 1.351 . S
C551 C556 1.501 . S
C552 C553 1.387 . S
C552 N555 1.341 . S
C553 C551 1.400 . S
C553 C552 1.387 . S
N554 Co545 2.022 . S
N554 C551 1.351 . S
N554 N555 1.365 . S
N555 C552 1.341 . S
N555 N554 1.365 . S
N555 H575 0.862 . S
C556 C551 1.501 . S
C556 H557 0.961 . S
C556 H558 0.961 . S
C556 H559 0.960 . S
H557 C556 0.961 . S
H558 C556 0.961 . S
H559 C556 0.960 . S
C560 N561 1.342 . S
C560 C564 1.401 . S
C560 C565 1.499 . S
N561 Co544 1.989 . S
N561 C560 1.342 . S
N561 N562 1.388 . S
N562 Co545 1.993 . S
N562 N561 1.388 . S
N562 C563 1.346 . S
C563 N562 1.346 . S
C563 C564 1.396 . S
C563 C573 1.510 . S
C564 C560 1.401 . S
C564 C563 1.396 . S
C565 C560 1.499 . S
C565 H566 0.959 . S
C565 H567 0.960 . S
C565 H568 0.961 . S
H566 C565 0.959 . S
H567 C565 0.960 . S
H568 C565 0.961 . S
O569 Co544 1.967 . S
O569 C577 1.258 . S
O570 Co545 1.941 . S
O570 C577 1.266 . S
H571 C573 0.959 . S
H572 C573 0.961 . S
C573 C563 1.510 . S
C573 H571 0.959 . S
C573 H572 0.961 . S
C573 H574 0.960 . S
H574 C573 0.960 . S
H575 N555 0.862 . S
O576 Co544 1.920 . S
O576 C549 1.289 . S
C577 O569 1.258 . S
C577 O570 1.266 . S
Co578 O581 1.970 . S
Co578 N595 1.989 . S
Co578 O603 1.967 . S
Co578 O610 1.920 . S
Co579 O582 1.966 . S
Co579 N588 2.022 . S
Co579 N596 1.993 . S
Co579 O604 1.941 . S
C580 O581 1.258 . S
C580 O582 1.263 . S
O581 Co578 1.970 . S
O581 C580 1.258 . S
O582 Co579 1.966 . S
O582 C580 1.263 . S
C583 O584 1.235 . S
C583 O610 1.289 . S
O584 C583 1.235 . S
C585 C587 1.400 . S
C585 N588 1.351 . S
C585 C590 1.501 . S
C586 C587 1.387 . S
C586 N589 1.341 . S
C587 C585 1.400 . S
C587 C586 1.387 . S
N588 Co579 2.022 . S
N588 C585 1.351 . S
N588 N589 1.365 . S
N589 C586 1.341 . S
N589 N588 1.365 . S
N589 H609 0.862 . S
C590 C585 1.501 . S
C590 H591 0.961 . S
C590 H592 0.961 . S
C590 H593 0.960 . S
H591 C590 0.961 . S
H592 C590 0.961 . S
H593 C590 0.960 . S
C594 N595 1.342 . S
C594 C598 1.401 . S
C594 C599 1.499 . S
N595 Co578 1.989 . S
N595 C594 1.342 . S
N595 N596 1.388 . S
N596 Co579 1.993 . S
N596 N595 1.388 . S
N596 C597 1.346 . S
C597 N596 1.346 . S
C597 C598 1.396 . S
C597 C607 1.510 . S
C598 C594 1.401 . S
C598 C597 1.396 . S
C599 C594 1.499 . S
C599 H600 0.959 . S
C599 H601 0.960 . S
C599 H602 0.961 . S
H600 C599 0.959 . S
H601 C599 0.960 . S
H602 C599 0.961 . S
O603 Co578 1.967 . S
O603 C611 1.258 . S
O604 Co579 1.941 . S
O604 C611 1.266 . S
H605 C607 0.959 . S
H606 C607 0.961 . S
C607 C597 1.510 . S
C607 H605 0.959 . S
C607 H606 0.961 . S
C607 H608 0.960 . S
H608 C607 0.960 . S
H609 N589 0.862 . S
O610 Co578 1.920 . S
O610 C583 1.289 . S
C611 O603 1.258 . S
C611 O604 1.266 . S
H612 C624 0.930 . S
H613 C626 0.930 . S
H614 C627 0.930 . S
H615 C631 0.959 . S
H616 C631 0.959 . S
H617 C631 0.961 . S
H618 C632 0.960 . S
H619 C632 0.961 . S
H620 C632 0.959 . S
H621 C635 0.929 . S
H622 C636 0.931 . S
H623 C638 0.930 . S
C624 H612 0.930 . S
C624 C625 1.399 . S
C624 C629 1.399 . S
C625 C624 1.399 . S
C625 C626 1.376 . S
C626 H613 0.930 . S
C626 C625 1.376 . S
C626 C627 1.388 . S
C627 H614 0.930 . S
C627 C626 1.388 . S
C627 C628 1.390 . S
C628 C627 1.390 . S
C628 C629 1.394 . S
C628 C634 1.465 . S
C629 C624 1.399 . S
C629 C628 1.394 . S
C629 C630 1.516 . S
C630 C629 1.516 . S
C630 C631 1.502 . S
C630 C632 1.561 . S
C630 C633 1.526 . S
C631 H615 0.959 . S
C631 H616 0.959 . S
C631 H617 0.961 . S
C631 C630 1.502 . S
C632 H618 0.960 . S
C632 H619 0.961 . S
C632 H620 0.959 . S
C632 C630 1.561 . S
C633 C630 1.526 . S
C633 C634 1.396 . S
C633 C638 1.390 . S
C634 C628 1.465 . S
C634 C633 1.396 . S
C634 C635 1.399 . S
C635 H621 0.929 . S
C635 C634 1.399 . S
C635 C636 1.385 . S
C636 H622 0.931 . S
C636 C635 1.385 . S
C636 C637 1.389 . S
C637 C636 1.389 . S
C637 C638 1.387 . S
C638 H623 0.930 . S
C638 C633 1.390 . S
C638 C637 1.387 . S
H639 C651 0.930 . S
H640 C653 0.930 . S
H641 C654 0.930 . S
H642 C658 0.959 . S
H643 C658 0.959 . S
H644 C658 0.961 . S
H645 C659 0.960 . S
H646 C659 0.961 . S
H647 C659 0.959 . S
H648 C662 0.929 . S
H649 C663 0.931 . S
H650 C665 0.930 . S
C651 H639 0.930 . S
C651 C652 1.399 . S
C651 C656 1.399 . S
C652 C651 1.399 . S
C652 C653 1.376 . S
C653 H640 0.930 . S
C653 C652 1.376 . S
C653 C654 1.388 . S
C654 H641 0.930 . S
C654 C653 1.388 . S
C654 C655 1.390 1_565 S
C655 C654 1.390 1_545 S
C655 C656 1.394 1_545 S
C655 C661 1.465 . S
C656 C651 1.399 . S
C656 C655 1.394 1_565 S
C656 C657 1.516 1_565 S
C657 C656 1.516 1_545 S
C657 C658 1.502 . S
C657 C659 1.561 . S
C657 C660 1.526 . S
C658 H642 0.959 . S
C658 H643 0.959 . S
C658 H644 0.961 . S
C658 C657 1.502 . S
C659 H645 0.960 . S
C659 H646 0.961 . S
C659 H647 0.959 . S
C659 C657 1.561 . S
C660 C657 1.526 . S
C660 C661 1.396 . S
C660 C665 1.390 . S
C661 C655 1.465 . S
C661 C660 1.396 . S
C661 C662 1.399 . S
C662 H648 0.929 . S
C662 C661 1.399 . S
C662 C663 1.385 . S
C663 H649 0.931 . S
C663 C662 1.385 . S
C663 C664 1.389 . S
C664 C663 1.389 . S
C664 C665 1.387 . S
C665 H650 0.930 . S
C665 C660 1.390 . S
C665 C664 1.387 . S
H666 C678 0.930 . S
H667 C680 0.930 . S
H668 C681 0.930 . S
H669 C685 0.959 . S
H670 C685 0.959 1_455 S
H671 C685 0.961 . S
H672 C686 0.960 . S
H673 C686 0.961 1_455 S
H674 C686 0.959 . S
H675 C689 0.929 . S
H676 C690 0.931 . S
H677 C692 0.930 . S
C678 H666 0.930 . S
C678 C679 1.399 . S
C678 C683 1.399 . S
C679 C678 1.399 . S
C679 C680 1.376 . S
C680 H667 0.930 . S
C680 C679 1.376 . S
C680 C681 1.388 . S
C681 H668 0.930 . S
C681 C680 1.388 . S
C681 C682 1.390 . S
C682 C681 1.390 . S
C682 C683 1.394 . S
C682 C688 1.465 1_655 S
C683 C678 1.399 . S
C683 C682 1.394 . S
C683 C684 1.516 . S
C684 C683 1.516 . S
C684 C685 1.502 . S
C684 C686 1.561 . S
C684 C687 1.526 1_655 S
C685 H669 0.959 . S
C685 H670 0.959 1_655 S
C685 H671 0.961 . S
C685 C684 1.502 . S
C686 H672 0.960 . S
C686 H673 0.961 1_655 S
C686 H674 0.959 . S
C686 C684 1.561 . S
C687 C684 1.526 1_455 S
C687 C688 1.396 . S
C687 C692 1.390 . S
C688 C682 1.465 1_455 S
C688 C687 1.396 . S
C688 C689 1.399 . S
C689 H675 0.929 . S
C689 C688 1.399 . S
C689 C690 1.385 . S
C690 H676 0.931 . S
C690 C689 1.385 . S
C690 C691 1.389 . S
C691 C690 1.389 . S
C691 C692 1.387 . S
C692 H677 0.930 . S
C692 C687 1.390 . S
C692 C691 1.387 . S
H693 C705 0.930 . S
H694 C707 0.930 . S
H695 C708 0.930 . S
H696 C712 0.959 . S
H697 C712 0.959 . S
H698 C712 0.961 . S
H699 C713 0.960 . S
H700 C713 0.961 . S
H701 C713 0.959 . S
H702 C716 0.929 . S
H703 C717 0.931 . S
H704 C719 0.930 . S
C705 H693 0.930 . S
C705 C706 1.399 . S
C705 C710 1.399 . S
C706 C705 1.399 . S
C706 C707 1.376 . S
C707 H694 0.930 . S
C707 C706 1.376 . S
C707 C708 1.388 . S
C708 H695 0.930 . S
C708 C707 1.388 . S
C708 C709 1.390 . S
C709 C708 1.390 . S
C709 C710 1.394 . S
C709 C715 1.465 . S
C710 C705 1.399 . S
C710 C709 1.394 . S
C710 C711 1.516 . S
C711 C710 1.516 . S
C711 C712 1.502 . S
C711 C713 1.561 . S
C711 C714 1.526 . S
C712 H696 0.959 . S
C712 H697 0.959 . S
C712 H698 0.961 . S
C712 C711 1.502 . S
C713 H699 0.960 . S
C713 H700 0.961 . S
C713 H701 0.959 . S
C713 C711 1.561 . S
C714 C711 1.526 . S
C714 C715 1.396 . S
C714 C719 1.390 . S
C715 C709 1.465 . S
C715 C714 1.396 . S
C715 C716 1.399 . S
C716 H702 0.929 . S
C716 C715 1.399 . S
C716 C717 1.385 . S
C717 H703 0.931 . S
C717 C716 1.385 . S
C717 C718 1.389 . S
C718 C717 1.389 . S
C718 C719 1.387 . S
C719 H704 0.930 . S
C719 C714 1.390 . S
C719 C718 1.387 . S
H720 C732 0.930 . S
H721 C734 0.930 . S
H722 C735 0.930 . S
H723 C739 0.959 . S
H724 C739 0.959 . S
H725 C739 0.961 1_545 S
H726 C740 0.960 1_545 S
H727 C740 0.961 . S
H728 C740 0.959 . S
H729 C743 0.929 . S
H730 C744 0.931 . S
H731 C746 0.930 . S
C732 H720 0.930 . S
C732 C733 1.399 . S
C732 C737 1.399 . S
C733 C732 1.399 . S
C733 C734 1.376 . S
C734 H721 0.930 . S
C734 C733 1.376 . S
C734 C735 1.388 . S
C735 H722 0.930 . S
C735 C734 1.388 . S
C735 C736 1.390 . S
C736 C735 1.390 . S
C736 C737 1.394 . S
C736 C742 1.465 1_545 S
C737 C732 1.399 . S
C737 C736 1.394 . S
C737 C738 1.516 1_545 S
C738 C737 1.516 1_565 S
C738 C739 1.502 . S
C738 C740 1.561 . S
C738 C741 1.526 . S
C739 H723 0.959 . S
C739 H724 0.959 . S
C739 H725 0.961 1_565 S
C739 C738 1.502 . S
C740 H726 0.960 1_565 S
C740 H727 0.961 . S
C740 H728 0.959 . S
C740 C738 1.561 . S
C741 C738 1.526 . S
C741 C742 1.396 . S
C741 C746 1.390 . S
C742 C736 1.465 1_565 S
C742 C741 1.396 . S
C742 C743 1.399 . S
C743 H729 0.929 . S
C743 C742 1.399 . S
C743 C744 1.385 . S
C744 H730 0.931 . S
C744 C743 1.385 . S
C744 C745 1.389 . S
C745 C744 1.389 . S
C745 C746 1.387 . S
C746 H731 0.930 . S
C746 C741 1.390 . S
C746 C745 1.387 . S
H747 C759 0.930 . S
H748 C761 0.930 . S
H749 C762 0.930 . S
H750 C766 0.959 . S
H751 C766 0.944 1_655 S
H752 C766 0.961 . S
H753 C767 0.960 . S
H754 C767 0.988 . S
H755 C767 0.959 . S
H756 C770 0.929 . S
H757 C771 0.931 . S
H758 C773 0.930 . S
C759 H747 0.930 . S
C759 C760 1.399 . S
C759 C764 1.399 . S
C760 C759 1.399 . S
C760 C761 1.376 . S
C761 H748 0.930 . S
C761 C760 1.376 . S
C761 C762 1.388 . S
C762 H749 0.930 . S
C762 C761 1.388 . S
C762 C763 1.390 . S
C763 C762 1.390 . S
C763 C764 1.394 . S
C763 C769 1.465 . S
C764 C759 1.399 . S
C764 C763 1.394 . S
C764 C765 1.516 . S
C765 C764 1.516 . S
C765 C766 1.502 . S
C765 C767 1.561 . S
C765 C768 1.526 1_455 S
C766 H750 0.959 . S
C766 H751 0.944 1_455 S
C766 H752 0.961 . S
C766 C765 1.502 . S
C767 H753 0.960 . S
C767 H754 0.988 . S
C767 H755 0.959 . S
C767 C765 1.561 . S
C768 C765 1.526 1_655 S
C768 C769 1.396 1_655 S
C768 C773 1.390 . S
C769 C763 1.465 . S
C769 C768 1.396 1_455 S
C769 C770 1.399 1_455 S
C770 H756 0.929 . S
C770 C769 1.399 1_655 S
C770 C771 1.385 . S
C771 H757 0.931 . S
C771 C770 1.385 . S
C771 C772 1.389 . S
C772 C771 1.389 . S
C772 C773 1.387 . S
C773 H758 0.930 . S
C773 C768 1.390 . S
C773 C772 1.387 . S
H774 C786 0.930 . S
H775 C788 0.930 . S
H776 C789 0.930 . S
H777 C793 0.959 . S
H778 C793 0.959 . S
H779 C793 0.961 . S
H780 C794 0.960 . S
H781 C794 0.961 . S
H782 C794 0.959 . S
H783 C797 0.929 . S
H784 C798 0.931 . S
H785 C800 0.930 . S
C786 H774 0.930 . S
C786 C787 1.399 . S
C786 C791 1.399 . S
C787 C786 1.399 . S
C787 C788 1.376 . S
C788 H775 0.930 . S
C788 C787 1.376 . S
C788 C789 1.388 . S
C789 H776 0.930 . S
C789 C788 1.388 . S
C789 C790 1.390 . S
C790 C789 1.390 . S
C790 C791 1.394 . S
C790 C796 1.465 . S
C791 C786 1.399 . S
C791 C790 1.394 . S
C791 C792 1.516 . S
C792 C791 1.516 . S
C792 C793 1.502 . S
C792 C794 1.561 . S
C792 C795 1.526 . S
C793 H777 0.959 . S
C793 H778 0.959 . S
C793 H779 0.961 . S
C793 C792 1.502 . S
C794 H780 0.960 . S
C794 H781 0.961 . S
C794 H782 0.959 . S
C794 C792 1.561 . S
C795 C792 1.526 . S
C795 C796 1.396 . S
C795 C800 1.390 . S
C796 C790 1.465 . S
C796 C795 1.396 . S
C796 C797 1.399 . S
C797 H783 0.929 . S
C797 C796 1.399 . S
C797 C798 1.385 . S
C798 H784 0.931 . S
C798 C797 1.385 . S
C798 C799 1.389 . S
C799 C798 1.389 . S
C799 C800 1.387 . S
C800 H785 0.930 . S
C800 C795 1.390 . S
C800 C799 1.387 . S
H801 C813 0.930 . S
H802 C815 0.930 . S
H803 C816 0.930 . S
H804 C820 0.959 . S
H805 C820 0.959 . S
H806 C820 0.961 . S
H807 C821 0.960 . S
H808 C821 0.961 . S
H809 C821 0.959 . S
H810 C824 0.929 . S
H811 C825 0.931 . S
H812 C827 0.930 . S
C813 H801 0.930 . S
C813 C814 1.399 . S
C813 C818 1.399 . S
C814 C813 1.399 . S
C814 C815 1.376 . S
C815 H802 0.930 . S
C815 C814 1.376 . S
C815 C816 1.388 . S
C816 H803 0.930 . S
C816 C815 1.388 . S
C816 C817 1.390 . S
C817 C816 1.390 . S
C817 C818 1.394 . S
C817 C823 1.465 . S
C818 C813 1.399 . S
C818 C817 1.394 . S
C818 C819 1.516 . S
C819 C818 1.516 . S
C819 C820 1.502 . S
C819 C821 1.561 . S
C819 C822 1.526 . S
C820 H804 0.959 . S
C820 H805 0.959 . S
C820 H806 0.961 . S
C820 C819 1.502 . S
C821 H807 0.960 . S
C821 H808 0.961 . S
C821 H809 0.959 . S
C821 C819 1.561 . S
C822 C819 1.526 . S
C822 C823 1.396 . S
C822 C827 1.390 . S
C823 C817 1.465 . S
C823 C822 1.396 . S
C823 C824 1.399 . S
C824 H810 0.929 . S
C824 C823 1.399 . S
C824 C825 1.385 . S
C825 H811 0.931 . S
C825 C824 1.385 . S
C825 C826 1.389 . S
C826 C825 1.389 . S
C826 C827 1.387 . S
C827 H812 0.930 . S
C827 C822 1.390 . S
C827 C826 1.387 . S
H828 C840 0.930 . S
H829 C842 0.930 . S
H830 C843 0.930 . S
H831 C847 0.959 . S
H832 C847 0.959 . S
H833 C847 0.961 . S
H834 C848 0.960 . S
H835 C848 0.961 . S
H836 C848 0.959 . S
H837 C851 0.929 . S
H838 C852 0.931 . S
H839 C854 0.930 . S
C840 H828 0.930 . S
C840 C841 1.399 . S
C840 C845 1.399 . S
C841 C840 1.399 . S
C841 C842 1.376 . S
C842 H829 0.930 . S
C842 C841 1.376 . S
C842 C843 1.388 . S
C843 H830 0.930 . S
C843 C842 1.388 . S
C843 C844 1.390 . S
C844 C843 1.390 . S
C844 C845 1.394 . S
C844 C850 1.465 . S
C845 C840 1.399 . S
C845 C844 1.394 . S
C845 C846 1.516 . S
C846 C845 1.516 . S
C846 C847 1.502 . S
C846 C848 1.561 . S
C846 C849 1.526 . S
C847 H831 0.959 . S
C847 H832 0.959 . S
C847 H833 0.961 . S
C847 C846 1.502 . S
C848 H834 0.960 . S
C848 H835 0.961 . S
C848 H836 0.959 . S
C848 C846 1.561 . S
C849 C846 1.526 . S
C849 C850 1.396 . S
C849 C854 1.390 . S
C850 C844 1.465 . S
C850 C849 1.396 . S
C850 C851 1.399 . S
C851 H837 0.929 . S
C851 C850 1.399 . S
C851 C852 1.385 . S
C852 H838 0.931 . S
C852 C851 1.385 . S
C852 C853 1.389 . S
C853 C852 1.389 . S
C853 C854 1.387 . S
C854 H839 0.930 . S
C854 C849 1.390 . S
C854 C853 1.387 . S
H855 C867 0.930 . S
H856 C869 0.930 . S
H857 C870 0.930 . S
H858 C874 0.959 1_554 S
H859 C874 0.959 . S
H860 C874 0.961 . S
H861 C875 0.960 . S
H862 C875 0.961 . S
H863 C875 0.959 . S
H864 C878 0.929 . S
H865 C879 0.931 . S
H866 C881 0.930 . S
C867 H855 0.930 . S
C867 C868 1.399 . S
C867 C872 1.399 . S
C868 C867 1.399 . S
C868 C869 1.376 . S
C869 H856 0.930 . S
C869 C868 1.376 . S
C869 C870 1.388 . S
C870 H857 0.930 . S
C870 C869 1.388 . S
C870 C871 1.390 . S
C871 C870 1.390 . S
C871 C872 1.394 . S
C871 C877 1.465 . S
C872 C867 1.399 . S
C872 C871 1.394 . S
C872 C873 1.516 . S
C873 C872 1.516 . S
C873 C874 1.502 1_554 S
C873 C875 1.561 1_554 S
C873 C876 1.526 . S
C874 H858 0.959 1_556 S
C874 H859 0.959 . S
C874 H860 0.961 . S
C874 C873 1.502 1_556 S
C875 H861 0.960 . S
C875 H862 0.961 . S
C875 H863 0.959 . S
C875 C873 1.561 1_556 S
C876 C873 1.526 . S
C876 C877 1.396 . S
C876 C881 1.390 . S
C877 C871 1.465 . S
C877 C876 1.396 . S
C877 C878 1.399 . S
C878 H864 0.929 . S
C878 C877 1.399 . S
C878 C879 1.385 . S
C879 H865 0.931 . S
C879 C878 1.385 . S
C879 C880 1.389 . S
C880 C879 1.389 . S
C880 C881 1.387 . S
C881 H866 0.930 . S
C881 C876 1.390 . S
C881 C880 1.387 . S
H882 C894 0.930 . S
H883 C896 0.930 . S
H884 C897 0.930 1_556 S
H885 C901 0.959 . S
H886 C901 0.959 . S
H887 C901 0.961 . S
H888 C902 0.960 . S
H889 C902 0.961 . S
H890 C902 0.959 . S
H891 C905 0.929 1_556 S
H892 C906 0.931 . S
H893 C908 0.930 . S
C894 H882 0.930 . S
C894 C895 1.399 . S
C894 C899 1.399 . S
C895 C894 1.399 . S
C895 C896 1.376 . S
C896 H883 0.930 . S
C896 C895 1.376 . S
C896 C897 1.388 . S
C897 H884 0.930 1_554 S
C897 C896 1.388 . S
C897 C898 1.390 . S
C898 C897 1.390 . S
C898 C899 1.394 . S
C898 C904 1.465 . S
C899 C894 1.399 . S
C899 C898 1.394 . S
C899 C900 1.516 . S
C900 C899 1.516 . S
C900 C901 1.502 . S
C900 C902 1.561 . S
C900 C903 1.526 . S
C901 H885 0.959 . S
C901 H886 0.959 . S
C901 H887 0.961 . S
C901 C900 1.502 . S
C902 H888 0.960 . S
C902 H889 0.961 . S
C902 H890 0.959 . S
C902 C900 1.561 . S
C903 C900 1.526 . S
C903 C904 1.396 . S
C903 C908 1.390 . S
C904 C898 1.465 . S
C904 C903 1.396 . S
C904 C905 1.399 . S
C905 H891 0.929 1_554 S
C905 C904 1.399 . S
C905 C906 1.385 . S
C906 H892 0.931 . S
C906 C905 1.385 . S
C906 C907 1.389 . S
C907 C906 1.389 . S
C907 C908 1.387 . S
C908 H893 0.930 . S
C908 C903 1.390 . S
C908 C907 1.387 . S
H909 C921 0.930 . S
H910 C923 0.930 . S
H911 C924 0.930 . S
H912 C928 0.959 . S
H913 C928 0.959 . S
H914 C928 0.961 . S
H915 C929 0.960 . S
H916 C929 0.961 . S
H917 C929 0.959 1_554 S
H918 C932 0.929 . S
H919 C933 0.931 . S
H920 C935 0.930 . S
C921 H909 0.930 . S
C921 C922 1.399 . S
C921 C926 1.399 . S
C922 C921 1.399 . S
C922 C923 1.376 . S
C923 H910 0.930 . S
C923 C922 1.376 . S
C923 C924 1.388 . S
C924 H911 0.930 . S
C924 C923 1.388 . S
C924 C925 1.390 . S
C925 C924 1.390 . S
C925 C926 1.394 . S
C925 C931 1.465 . S
C926 C921 1.399 . S
C926 C925 1.394 . S
C926 C927 1.516 . S
C927 C926 1.516 . S
C927 C928 1.502 1_554 S
C927 C929 1.561 1_554 S
C927 C930 1.526 . S
C928 H912 0.959 . S
C928 H913 0.959 . S
C928 H914 0.961 . S
C928 C927 1.502 1_556 S
C929 H915 0.960 . S
C929 H916 0.961 . S
C929 H917 0.959 1_556 S
C929 C927 1.561 1_556 S
C930 C927 1.526 . S
C930 C931 1.396 . S
C930 C935 1.390 . S
C931 C925 1.465 . S
C931 C930 1.396 . S
C931 C932 1.399 . S
C932 H918 0.929 . S
C932 C931 1.399 . S
C932 C933 1.385 . S
C933 H919 0.931 . S
C933 C932 1.385 . S
C933 C934 1.389 . S
C934 C933 1.389 . S
C934 C935 1.387 . S
C935 H920 0.930 . S
C935 C930 1.390 . S
C935 C934 1.387 . S
H936 C948 0.930 . S
H937 C950 0.930 . S
H938 C951 0.928 . S
H939 C955 0.959 . S
H940 C955 0.959 . S
H941 C955 0.961 . S
H942 C956 0.960 . S
H943 C956 0.961 . S
H944 C956 0.959 . S
H945 C959 0.929 1_554 S
H946 C960 0.931 . S
H947 C962 0.930 . S
C948 H936 0.930 . S
C948 C949 1.399 . S
C948 C953 1.399 . S
C949 C948 1.399 . S
C949 C950 1.376 . S
C950 H937 0.930 . S
C950 C949 1.376 . S
C950 C951 1.388 . S
C951 H938 0.928 . S
C951 C950 1.388 . S
C951 C952 1.390 . S
C952 C951 1.390 . S
C952 C953 1.394 . S
C952 C958 1.465 . S
C953 C948 1.399 . S
C953 C952 1.394 . S
C953 C954 1.516 . S
C954 C953 1.516 . S
C954 C955 1.502 . S
C954 C956 1.561 . S
C954 C957 1.526 . S
C955 H939 0.959 . S
C955 H940 0.959 . S
C955 H941 0.961 . S
C955 C954 1.502 . S
C956 H942 0.960 . S
C956 H943 0.961 . S
C956 H944 0.959 . S
C956 C954 1.561 . S
C957 C954 1.526 . S
C957 C958 1.396 . S
C957 C962 1.390 . S
C958 C952 1.465 . S
C958 C957 1.396 . S
C958 C959 1.399 . S
C959 H945 0.929 1_556 S
C959 C958 1.399 . S
C959 C960 1.385 . S
C960 H946 0.931 . S
C960 C959 1.385 . S
C960 C961 1.389 . S
C961 C960 1.389 . S
C961 C962 1.387 . S
C962 H947 0.930 . S
C962 C957 1.390 . S
C962 C961 1.387 . S
H963 C975 0.930 . S
H964 C977 0.930 . S
H965 C978 0.930 . S
H966 C982 0.959 . S
H967 C982 0.959 1_554 S
H968 C982 0.961 1_554 S
H969 C983 0.960 . S
H970 C983 0.961 . S
H971 C983 0.959 . S
H972 C986 0.929 . S
H973 C987 0.931 . S
H974 C989 0.930 . S
C975 H963 0.930 . S
C975 C976 1.399 . S
C975 C980 1.399 . S
C976 C975 1.399 . S
C976 C977 1.376 . S
C977 H964 0.930 . S
C977 C976 1.376 . S
C977 C978 1.388 . S
C978 H965 0.930 . S
C978 C977 1.388 . S
C978 C979 1.390 . S
C979 C978 1.390 . S
C979 C980 1.394 . S
C979 C985 1.465 . S
C980 C975 1.399 . S
C980 C979 1.394 . S
C980 C981 1.516 . S
C981 C980 1.516 . S
C981 C982 1.502 . S
C981 C983 1.561 1_556 S
C981 C984 1.526 . S
C982 H966 0.959 . S
C982 H967 0.959 1_556 S
C982 H968 0.961 1_556 S
C982 C981 1.502 . S
C983 H969 0.960 . S
C983 H970 0.961 . S
C983 H971 0.959 . S
C983 C981 1.561 1_554 S
C984 C981 1.526 . S
C984 C985 1.396 . S
C984 C989 1.390 . S
C985 C979 1.465 . S
C985 C984 1.396 . S
C985 C986 1.399 . S
C986 H972 0.929 . S
C986 C985 1.399 . S
C986 C987 1.385 . S
C987 H973 0.931 . S
C987 C986 1.385 . S
C987 C988 1.389 . S
C988 C987 1.389 . S
C988 C989 1.387 . S
C989 H974 0.930 . S
C989 C984 1.390 . S
C989 C988 1.387 . S
H990 C1002 0.930 . S
H991 C1004 0.930 . S
H992 C1005 0.930 . S
H993 C1009 0.959 1_556 S
H994 C1009 0.959 . S
H995 C1009 0.961 . S
H996 C1010 0.960 . S
H997 C1010 0.961 . S
H998 C1010 0.959 1_556 S
H999 C1013 0.929 . S
H1000 C1014 0.931 . S
H1001 C1016 0.930 . S
C1002 H990 0.930 . S
C1002 C1003 1.399 . S
C1002 C1007 1.399 . S
C1003 C1002 1.399 . S
C1003 C1004 1.376 . S
C1004 H991 0.930 . S
C1004 C1003 1.376 . S
C1004 C1005 1.388 . S
C1005 H992 0.930 . S
C1005 C1004 1.388 . S
C1005 C1006 1.390 . S
C1006 C1005 1.390 . S
C1006 C1007 1.394 . S
C1006 C1012 1.465 . S
C1007 C1002 1.399 . S
C1007 C1006 1.394 . S
C1007 C1008 1.516 . S
C1008 C1007 1.516 . S
C1008 C1009 1.502 1_556 S
C1008 C1010 1.561 1_556 S
C1008 C1011 1.526 . S
C1009 H993 0.959 1_554 S
C1009 H994 0.959 . S
C1009 H995 0.961 . S
C1009 C1008 1.502 1_554 S
C1010 H996 0.960 . S
C1010 H997 0.961 . S
C1010 H998 0.959 1_554 S
C1010 C1008 1.561 1_554 S
C1011 C1008 1.526 . S
C1011 C1012 1.396 . S
C1011 C1016 1.390 . S
C1012 C1006 1.465 . S
C1012 C1011 1.396 . S
C1012 C1013 1.399 . S
C1013 H999 0.929 . S
C1013 C1012 1.399 . S
C1013 C1014 1.385 . S
C1014 H1000 0.931 . S
C1014 C1013 1.385 . S
C1014 C1015 1.389 . S
C1015 C1014 1.389 . S
C1015 C1016 1.387 . S
C1016 H1001 0.930 . S
C1016 C1011 1.390 . S
C1016 C1015 1.387 . S
H1017 C1029 0.930 . S
H1018 C1031 0.930 . S
H1019 C1032 0.930 . S
H1020 C1036 0.959 . S
H1021 C1036 0.959 . S
H1022 C1036 0.961 . S
H1023 C1037 0.960 . S
H1024 C1037 0.961 . S
H1025 C1037 0.959 . S
H1026 C1040 0.929 . S
H1027 C1041 0.931 . S
H1028 C1043 0.930 . S
C1029 H1017 0.930 . S
C1029 C1030 1.399 . S
C1029 C1034 1.399 . S
C1030 C1029 1.399 . S
C1030 C1031 1.376 . S
C1031 H1018 0.930 . S
C1031 C1030 1.376 . S
C1031 C1032 1.388 . S
C1032 H1019 0.930 . S
C1032 C1031 1.388 . S
C1032 C1033 1.390 . S
C1033 C1032 1.390 . S
C1033 C1034 1.394 . S
C1033 C1039 1.465 . S
C1034 C1029 1.399 . S
C1034 C1033 1.394 . S
C1034 C1035 1.516 . S
C1035 C1034 1.516 . S
C1035 C1036 1.502 . S
C1035 C1037 1.561 . S
C1035 C1038 1.526 . S
C1036 H1020 0.959 . S
C1036 H1021 0.959 . S
C1036 H1022 0.961 . S
C1036 C1035 1.502 . S
C1037 H1023 0.960 . S
C1037 H1024 0.961 . S
C1037 H1025 0.959 . S
C1037 C1035 1.561 . S
C1038 C1035 1.526 . S
C1038 C1039 1.396 . S
C1038 C1043 1.390 . S
C1039 C1033 1.465 . S
C1039 C1038 1.396 . S
C1039 C1040 1.399 . S
C1040 H1026 0.929 . S
C1040 C1039 1.399 . S
C1040 C1041 1.385 . S
C1041 H1027 0.931 . S
C1041 C1040 1.385 . S
C1041 C1042 1.389 . S
C1042 C1041 1.389 . S
C1042 C1043 1.387 . S
C1043 H1028 0.930 . S
C1043 C1038 1.390 . S
C1043 C1042 1.387 . S
H1044 C1056 0.930 . S
H1045 C1058 0.930 . S
H1046 C1059 0.930 . S
H1047 C1063 0.959 . S
H1048 C1063 0.959 . S
H1049 C1063 0.961 . S
H1050 C1064 0.960 . S
H1051 C1064 0.961 . S
H1052 C1064 0.959 . S
H1053 C1067 0.929 . S
H1054 C1068 0.931 . S
H1055 C1070 0.930 . S
C1056 H1044 0.930 . S
C1056 C1057 1.399 . S
C1056 C1061 1.399 . S
C1057 C1056 1.399 . S
C1057 C1058 1.376 . S
C1058 H1045 0.930 . S
C1058 C1057 1.376 . S
C1058 C1059 1.388 . S
C1059 H1046 0.930 . S
C1059 C1058 1.388 . S
C1059 C1060 1.390 . S
C1060 C1059 1.390 . S
C1060 C1061 1.394 . S
C1060 C1066 1.465 . S
C1061 C1056 1.399 . S
C1061 C1060 1.394 . S
C1061 C1062 1.516 . S
C1062 C1061 1.516 . S
C1062 C1063 1.502 . S
C1062 C1064 1.561 . S
C1062 C1065 1.526 . S
C1063 H1047 0.959 . S
C1063 H1048 0.959 . S
C1063 H1049 0.961 . S
C1063 C1062 1.502 . S
C1064 H1050 0.960 . S
C1064 H1051 0.961 . S
C1064 H1052 0.959 . S
C1064 C1062 1.561 . S
C1065 C1062 1.526 . S
C1065 C1066 1.396 . S
C1065 C1070 1.390 . S
C1066 C1060 1.465 . S
C1066 C1065 1.396 . S
C1066 C1067 1.399 . S
C1067 H1053 0.929 . S
C1067 C1066 1.399 . S
C1067 C1068 1.385 . S
C1068 H1054 0.931 . S
C1068 C1067 1.385 . S
C1068 C1069 1.389 . S
C1069 C1068 1.389 . S
C1069 C1070 1.387 . S
C1070 H1055 0.930 . S
C1070 C1065 1.390 . S
C1070 C1069 1.387 . S
H1071 C1083 0.930 . S
H1072 C1085 0.930 . S
H1073 C1086 0.930 . S
H1074 C1090 0.959 . S
H1075 C1090 0.959 . S
H1076 C1090 0.961 . S
H1077 C1091 0.960 . S
H1078 C1091 0.961 . S
H1079 C1091 0.959 . S
H1080 C1094 0.929 . S
H1081 C1095 0.931 . S
H1082 C1097 0.930 . S
C1083 H1071 0.930 . S
C1083 C1084 1.399 . S
C1083 C1088 1.399 . S
C1084 C1083 1.399 . S
C1084 C1085 1.376 . S
C1085 H1072 0.930 . S
C1085 C1084 1.376 . S
C1085 C1086 1.388 . S
C1086 H1073 0.930 . S
C1086 C1085 1.388 . S
C1086 C1087 1.390 . S
C1087 C1086 1.390 . S
C1087 C1088 1.394 . S
C1087 C1093 1.465 . S
C1088 C1083 1.399 . S
C1088 C1087 1.394 . S
C1088 C1089 1.516 . S
C1089 C1088 1.516 . S
C1089 C1090 1.502 . S
C1089 C1091 1.561 . S
C1089 C1092 1.526 . S
C1090 H1074 0.959 . S
C1090 H1075 0.959 . S
C1090 H1076 0.961 . S
C1090 C1089 1.502 . S
C1091 H1077 0.960 . S
C1091 H1078 0.961 . S
C1091 H1079 0.959 . S
C1091 C1089 1.561 . S
C1092 C1089 1.526 . S
C1092 C1093 1.396 . S
C1092 C1097 1.390 . S
C1093 C1087 1.465 . S
C1093 C1092 1.396 . S
C1093 C1094 1.399 . S
C1094 H1080 0.929 . S
C1094 C1093 1.399 . S
C1094 C1095 1.385 . S
C1095 H1081 0.931 . S
C1095 C1094 1.385 . S
C1095 C1096 1.389 . S
C1096 C1095 1.389 . S
C1096 C1097 1.387 . S
C1097 H1082 0.930 . S
C1097 C1092 1.390 . S
C1097 C1096 1.387 . S
H1098 C1110 0.930 . S
H1099 C1112 0.930 . S
H1100 C1113 0.930 . S
H1101 C1117 0.959 . S
H1102 C1117 0.959 . S
H1103 C1117 0.961 . S
H1104 C1118 0.960 . S
H1105 C1118 0.961 . S
H1106 C1118 0.959 . S
H1107 C1121 0.929 . S
H1108 C1122 0.931 . S
H1109 C1124 0.930 . S
C1110 H1098 0.930 . S
C1110 C1111 1.399 . S
C1110 C1115 1.399 . S
C1111 C1110 1.399 . S
C1111 C1112 1.376 . S
C1112 H1099 0.930 . S
C1112 C1111 1.376 . S
C1112 C1113 1.388 . S
C1113 H1100 0.930 . S
C1113 C1112 1.388 . S
C1113 C1114 1.390 . S
C1114 C1113 1.390 . S
C1114 C1115 1.394 . S
C1114 C1120 1.465 . S
C1115 C1110 1.399 . S
C1115 C1114 1.394 . S
C1115 C1116 1.516 . S
C1116 C1115 1.516 . S
C1116 C1117 1.502 . S
C1116 C1118 1.561 . S
C1116 C1119 1.526 . S
C1117 H1101 0.959 . S
C1117 H1102 0.959 . S
C1117 H1103 0.961 . S
C1117 C1116 1.502 . S
C1118 H1104 0.960 . S
C1118 H1105 0.961 . S
C1118 H1106 0.959 . S
C1118 C1116 1.561 . S
C1119 C1116 1.526 . S
C1119 C1120 1.396 . S
C1119 C1124 1.390 . S
C1120 C1114 1.465 . S
C1120 C1119 1.396 . S
C1120 C1121 1.399 . S
C1121 H1107 0.929 . S
C1121 C1120 1.399 . S
C1121 C1122 1.385 . S
C1122 H1108 0.931 . S
C1122 C1121 1.385 . S
C1122 C1123 1.389 . S
C1123 C1122 1.389 . S
C1123 C1124 1.387 . S
C1124 H1109 0.930 . S
C1124 C1119 1.390 . S
C1124 C1123 1.387 . S
H1125 C1137 0.930 . S
H1126 C1139 0.930 . S
H1127 C1140 0.930 . S
H1128 C1144 0.959 . S
H1129 C1144 0.959 . S
H1130 C1144 0.961 . S
H1131 C1145 0.960 . S
H1132 C1145 0.961 . S
H1133 C1145 0.959 . S
H1134 C1148 0.929 . S
H1135 C1149 0.931 . S
H1136 C1151 0.930 . S
C1137 H1125 0.930 . S
C1137 C1138 1.399 . S
C1137 C1142 1.399 . S
C1138 C1137 1.399 . S
C1138 C1139 1.376 . S
C1139 H1126 0.930 . S
C1139 C1138 1.376 . S
C1139 C1140 1.388 . S
C1140 H1127 0.930 . S
C1140 C1139 1.388 . S
C1140 C1141 1.390 . S
C1141 C1140 1.390 . S
C1141 C1142 1.394 . S
C1141 C1147 1.465 . S
C1142 C1137 1.399 . S
C1142 C1141 1.394 . S
C1142 C1143 1.516 . S
C1143 C1142 1.516 . S
C1143 C1144 1.502 . S
C1143 C1145 1.561 . S
C1143 C1146 1.526 . S
C1144 H1128 0.959 . S
C1144 H1129 0.959 . S
C1144 H1130 0.961 . S
C1144 C1143 1.502 . S
C1145 H1131 0.960 . S
C1145 H1132 0.961 . S
C1145 H1133 0.959 . S
C1145 C1143 1.561 . S
C1146 C1143 1.526 . S
C1146 C1147 1.396 . S
C1146 C1151 1.390 . S
C1147 C1141 1.465 . S
C1147 C1146 1.396 . S
C1147 C1148 1.399 . S
C1148 H1134 0.929 . S
C1148 C1147 1.399 . S
C1148 C1149 1.385 . S
C1149 H1135 0.931 . S
C1149 C1148 1.385 . S
C1149 C1150 1.389 . S
C1150 C1149 1.389 . S
C1150 C1151 1.387 . S
C1151 H1136 0.930 . S
C1151 C1146 1.390 . S
C1151 C1150 1.387 . S
H1152 C1164 0.930 . S
H1153 C1166 0.930 . S
H1154 C1167 0.930 . S
H1155 C1171 0.959 . S
H1156 C1171 0.959 . S
H1157 C1171 0.961 . S
H1158 C1172 0.960 . S
H1159 C1172 0.961 . S
H1160 C1172 0.959 . S
H1161 C1175 0.929 . S
H1162 C1176 0.931 . S
H1163 C1178 0.930 . S
C1164 H1152 0.930 . S
C1164 C1165 1.399 . S
C1164 C1169 1.399 . S
C1165 C1164 1.399 . S
C1165 C1166 1.376 . S
C1166 H1153 0.930 . S
C1166 C1165 1.376 . S
C1166 C1167 1.388 . S
C1167 H1154 0.930 . S
C1167 C1166 1.388 . S
C1167 C1168 1.390 . S
C1168 C1167 1.390 . S
C1168 C1169 1.394 . S
C1168 C1174 1.465 . S
C1169 C1164 1.399 . S
C1169 C1168 1.394 . S
C1169 C1170 1.516 . S
C1170 C1169 1.516 . S
C1170 C1171 1.502 . S
C1170 C1172 1.561 . S
C1170 C1173 1.526 . S
C1171 H1155 0.959 . S
C1171 H1156 0.959 . S
C1171 H1157 0.961 . S
C1171 C1170 1.502 . S
C1172 H1158 0.960 . S
C1172 H1159 0.961 . S
C1172 H1160 0.959 . S
C1172 C1170 1.561 . S
C1173 C1170 1.526 . S
C1173 C1174 1.396 . S
C1173 C1178 1.390 . S
C1174 C1168 1.465 . S
C1174 C1173 1.396 . S
C1174 C1175 1.399 . S
C1175 H1161 0.929 . S
C1175 C1174 1.399 . S
C1175 C1176 1.385 . S
C1176 H1162 0.931 . S
C1176 C1175 1.385 . S
C1176 C1177 1.389 . S
C1177 C1176 1.389 . S
C1177 C1178 1.387 . S
C1178 H1163 0.930 . S
C1178 C1173 1.390 . S
C1178 C1177 1.387 . S
H1179 C1191 0.930 . S
H1180 C1193 0.930 . S
H1181 C1194 0.930 . S
H1182 C1198 0.959 . S
H1183 C1198 0.959 . S
H1184 C1198 0.961 . S
H1185 C1199 0.960 . S
H1186 C1199 0.961 . S
H1187 C1199 0.959 . S
H1188 C1202 0.929 . S
H1189 C1203 0.931 . S
H1190 C1205 0.930 . S
C1191 H1179 0.930 . S
C1191 C1192 1.399 . S
C1191 C1196 1.399 . S
C1192 C1191 1.399 . S
C1192 C1193 1.376 . S
C1193 H1180 0.930 . S
C1193 C1192 1.376 . S
C1193 C1194 1.388 . S
C1194 H1181 0.930 . S
C1194 C1193 1.388 . S
C1194 C1195 1.390 . S
C1195 C1194 1.390 . S
C1195 C1196 1.394 . S
C1195 C1201 1.465 . S
C1196 C1191 1.399 . S
C1196 C1195 1.394 . S
C1196 C1197 1.516 . S
C1197 C1196 1.516 . S
C1197 C1198 1.502 . S
C1197 C1199 1.561 . S
C1197 C1200 1.526 . S
C1198 H1182 0.959 . S
C1198 H1183 0.959 . S
C1198 H1184 0.961 . S
C1198 C1197 1.502 . S
C1199 H1185 0.960 . S
C1199 H1186 0.961 . S
C1199 H1187 0.959 . S
C1199 C1197 1.561 . S
C1200 C1197 1.526 . S
C1200 C1201 1.396 . S
C1200 C1205 1.390 . S
C1201 C1195 1.465 . S
C1201 C1200 1.396 . S
C1201 C1202 1.399 . S
C1202 H1188 0.929 . S
C1202 C1201 1.399 . S
C1202 C1203 1.385 . S
C1203 H1189 0.931 . S
C1203 C1202 1.385 . S
C1203 C1204 1.389 . S
C1204 C1203 1.389 . S
C1204 C1205 1.387 . S
C1205 H1190 0.930 . S
C1205 C1200 1.390 . S
C1205 C1204 1.387 . S
H1206 C1218 0.930 . S
H1207 C1220 0.930 . S
H1208 C1221 0.930 . S
H1209 C1225 0.959 . S
H1210 C1225 0.959 . S
H1211 C1225 0.961 . S
H1212 C1226 0.960 . S
H1213 C1226 0.961 . S
H1214 C1226 0.959 . S
H1215 C1229 0.929 . S
H1216 C1230 0.931 . S
H1217 C1232 0.930 . S
C1218 H1206 0.930 . S
C1218 C1219 1.399 . S
C1218 C1223 1.399 . S
C1219 C1218 1.399 . S
C1219 C1220 1.376 . S
C1220 H1207 0.930 . S
C1220 C1219 1.376 . S
C1220 C1221 1.388 . S
C1221 H1208 0.930 . S
C1221 C1220 1.388 . S
C1221 C1222 1.390 . S
C1222 C1221 1.390 . S
C1222 C1223 1.394 . S
C1222 C1228 1.465 . S
C1223 C1218 1.399 . S
C1223 C1222 1.394 . S
C1223 C1224 1.516 . S
C1224 C1223 1.516 . S
C1224 C1225 1.502 . S
C1224 C1226 1.561 . S
C1224 C1227 1.526 . S
C1225 H1209 0.959 . S
C1225 H1210 0.959 . S
C1225 H1211 0.961 . S
C1225 C1224 1.502 . S
C1226 H1212 0.960 . S
C1226 H1213 0.961 . S
C1226 H1214 0.959 . S
C1226 C1224 1.561 . S
C1227 C1224 1.526 . S
C1227 C1228 1.396 . S
C1227 C1232 1.390 . S
C1228 C1222 1.465 . S
C1228 C1227 1.396 . S
C1228 C1229 1.399 . S
C1229 H1215 0.929 . S
C1229 C1228 1.399 . S
C1229 C1230 1.385 . S
C1230 H1216 0.931 . S
C1230 C1229 1.385 . S
C1230 C1231 1.389 . S
C1231 C1230 1.389 . S
C1231 C1232 1.387 . S
C1232 H1217 0.930 . S
C1232 C1227 1.390 . S
C1232 C1231 1.387 . S
H1233 C1245 0.930 . S
H1234 C1247 0.930 . S
H1235 C1248 0.930 . S
H1236 C1252 0.959 . S
H1237 C1252 0.959 . S
H1238 C1252 0.961 . S
H1239 C1253 0.960 . S
H1240 C1253 0.961 . S
H1241 C1253 0.959 . S
H1242 C1256 0.929 . S
H1243 C1257 0.931 . S
H1244 C1259 0.930 . S
C1245 H1233 0.930 . S
C1245 C1246 1.399 . S
C1245 C1250 1.399 . S
C1246 C1245 1.399 . S
C1246 C1247 1.376 . S
C1247 H1234 0.930 . S
C1247 C1246 1.376 . S
C1247 C1248 1.388 . S
C1248 H1235 0.930 . S
C1248 C1247 1.388 . S
C1248 C1249 1.390 . S
C1249 C1248 1.390 . S
C1249 C1250 1.394 . S
C1249 C1255 1.465 . S
C1250 C1245 1.399 . S
C1250 C1249 1.394 . S
C1250 C1251 1.516 . S
C1251 C1250 1.516 . S
C1251 C1252 1.502 . S
C1251 C1253 1.561 . S
C1251 C1254 1.526 . S
C1252 H1236 0.959 . S
C1252 H1237 0.959 . S
C1252 H1238 0.961 . S
C1252 C1251 1.502 . S
C1253 H1239 0.960 . S
C1253 H1240 0.961 . S
C1253 H1241 0.959 . S
C1253 C1251 1.561 . S
C1254 C1251 1.526 . S
C1254 C1255 1.396 . S
C1254 C1259 1.390 . S
C1255 C1249 1.465 . S
C1255 C1254 1.396 . S
C1255 C1256 1.399 . S
C1256 H1242 0.929 . S
C1256 C1255 1.399 . S
C1256 C1257 1.385 . S
C1257 H1243 0.931 . S
C1257 C1256 1.385 . S
C1257 C1258 1.389 . S
C1258 C1257 1.389 . S
C1258 C1259 1.387 . S
C1259 H1244 0.930 . S
C1259 C1254 1.390 . S
C1259 C1258 1.387 . S
H1260 C1272 0.930 . S
H1261 C1274 0.930 . S
H1262 C1275 0.930 . S
H1263 C1279 0.959 . S
H1264 C1279 0.959 . S
H1265 C1279 0.961 . S
H1266 C1280 0.960 . S
H1267 C1280 0.961 . S
H1268 C1280 0.959 . S
H1269 C1283 0.929 . S
H1270 C1284 0.931 . S
H1271 C1286 0.930 . S
C1272 H1260 0.930 . S
C1272 C1273 1.399 . S
C1272 C1277 1.399 . S
C1273 C1272 1.399 . S
C1273 C1274 1.376 . S
C1274 H1261 0.930 . S
C1274 C1273 1.376 . S
C1274 C1275 1.388 . S
C1275 H1262 0.930 . S
C1275 C1274 1.388 . S
C1275 C1276 1.390 . S
C1276 C1275 1.390 . S
C1276 C1277 1.394 . S
C1276 C1282 1.465 1_655 S
C1277 C1272 1.399 . S
C1277 C1276 1.394 . S
C1277 C1278 1.516 1_655 S
C1278 C1277 1.516 1_455 S
C1278 C1279 1.502 . S
C1278 C1280 1.561 . S
C1278 C1281 1.526 . S
C1279 H1263 0.959 . S
C1279 H1264 0.959 . S
C1279 H1265 0.961 . S
C1279 C1278 1.502 . S
C1280 H1266 0.960 . S
C1280 H1267 0.961 . S
C1280 H1268 0.959 . S
C1280 C1278 1.561 . S
C1281 C1278 1.526 . S
C1281 C1282 1.396 . S
C1281 C1286 1.390 . S
C1282 C1276 1.465 1_455 S
C1282 C1281 1.396 . S
C1282 C1283 1.399 . S
C1283 H1269 0.929 . S
C1283 C1282 1.399 . S
C1283 C1284 1.385 . S
C1284 H1270 0.931 . S
C1284 C1283 1.385 . S
C1284 C1285 1.389 . S
C1285 C1284 1.389 . S
C1285 C1286 1.387 . S
C1286 H1271 0.930 . S
C1286 C1281 1.390 . S
C1286 C1285 1.387 . S
H1287 C1299 0.930 . S
H1288 C1301 0.930 . S
H1289 C1302 0.930 . S
H1290 C1306 0.959 . S
H1291 C1306 0.959 . S
H1292 C1306 0.961 . S
H1293 C1307 0.960 . S
H1294 C1307 0.961 . S
H1295 C1307 0.959 . S
H1296 C1310 0.929 . S
H1297 C1311 0.931 . S
H1298 C1313 0.930 . S
C1299 H1287 0.930 . S
C1299 C1300 1.399 . S
C1299 C1304 1.399 . S
C1300 C1299 1.399 . S
C1300 C1301 1.376 . S
C1301 H1288 0.930 . S
C1301 C1300 1.376 . S
C1301 C1302 1.388 . S
C1302 H1289 0.930 . S
C1302 C1301 1.388 . S
C1302 C1303 1.390 . S
C1303 C1302 1.390 . S
C1303 C1304 1.394 . S
C1303 C1309 1.465 . S
C1304 C1299 1.399 . S
C1304 C1303 1.394 . S
C1304 C1305 1.516 . S
C1305 C1304 1.516 . S
C1305 C1306 1.502 . S
C1305 C1307 1.561 . S
C1305 C1308 1.526 . S
C1306 H1290 0.959 . S
C1306 H1291 0.959 . S
C1306 H1292 0.961 . S
C1306 C1305 1.502 . S
C1307 H1293 0.960 . S
C1307 H1294 0.961 . S
C1307 H1295 0.959 . S
C1307 C1305 1.561 . S
C1308 C1305 1.526 . S
C1308 C1309 1.396 . S
C1308 C1313 1.390 . S
C1309 C1303 1.465 . S
C1309 C1308 1.396 . S
C1309 C1310 1.399 . S
C1310 H1296 0.929 . S
C1310 C1309 1.399 . S
C1310 C1311 1.385 . S
C1311 H1297 0.931 . S
C1311 C1310 1.385 . S
C1311 C1312 1.389 . S
C1312 C1311 1.389 . S
C1312 C1313 1.387 . S
C1313 H1298 0.930 . S
C1313 C1308 1.390 . S
C1313 C1312 1.387 . S
H1314 C1326 0.930 . S
H1315 C1328 0.930 . S
H1316 C1329 0.930 . S
H1317 C1333 0.959 . S
H1318 C1333 0.959 . S
H1319 C1333 0.961 . S
H1320 C1334 0.960 . S
H1321 C1334 0.961 1_545 S
H1322 C1334 0.959 . S
H1323 C1337 0.929 . S
H1324 C1338 0.931 . S
H1325 C1340 0.930 . S
C1326 H1314 0.930 . S
C1326 C1327 1.399 . S
C1326 C1331 1.399 . S
C1327 C1326 1.399 . S
C1327 C1328 1.376 . S
C1328 H1315 0.930 . S
C1328 C1327 1.376 . S
C1328 C1329 1.388 . S
C1329 H1316 0.930 . S
C1329 C1328 1.388 . S
C1329 C1330 1.390 . S
C1330 C1329 1.390 . S
C1330 C1331 1.394 . S
C1330 C1336 1.465 1_565 S
C1331 C1326 1.399 . S
C1331 C1330 1.394 . S
C1331 C1332 1.516 1_565 S
C1332 C1331 1.516 1_545 S
C1332 C1333 1.502 . S
C1332 C1334 1.561 1_545 S
C1332 C1335 1.526 . S
C1333 H1317 0.959 . S
C1333 H1318 0.959 . S
C1333 H1319 0.961 . S
C1333 C1332 1.502 . S
C1334 H1320 0.960 . S
C1334 H1321 0.961 1_565 S
C1334 H1322 0.959 . S
C1334 C1332 1.561 1_565 S
C1335 C1332 1.526 . S
C1335 C1336 1.396 . S
C1335 C1340 1.390 . S
C1336 C1330 1.465 1_545 S
C1336 C1335 1.396 . S
C1336 C1337 1.399 . S
C1337 H1323 0.929 . S
C1337 C1336 1.399 . S
C1337 C1338 1.385 . S
C1338 H1324 0.931 . S
C1338 C1337 1.385 . S
C1338 C1339 1.389 . S
C1339 C1338 1.389 . S
C1339 C1340 1.387 . S
C1340 H1325 0.930 . S
C1340 C1335 1.390 . S
C1340 C1339 1.387 . S
H1341 C1353 0.930 . S
H1342 C1355 0.930 . S
H1343 C1356 0.930 . S
H1344 C1360 0.959 . S
H1345 C1360 0.959 . S
H1346 C1360 0.961 . S
H1347 C1361 0.960 . S
H1348 C1361 0.961 . S
H1349 C1361 0.959 . S
H1350 C1364 0.929 . S
H1351 C1365 0.931 . S
H1352 C1367 0.930 . S
C1353 H1341 0.930 . S
C1353 C1354 1.399 . S
C1353 C1358 1.399 . S
C1354 C1353 1.399 . S
C1354 C1355 1.376 1_545 S
C1355 H1342 0.930 . S
C1355 C1354 1.376 1_565 S
C1355 C1356 1.388 . S
C1356 H1343 0.930 . S
C1356 C1355 1.388 . S
C1356 C1357 1.390 . S
C1357 C1356 1.390 . S
C1357 C1358 1.394 1_565 S
C1357 C1363 1.465 . S
C1358 C1353 1.399 . S
C1358 C1357 1.394 1_545 S
C1358 C1359 1.516 . S
C1359 C1358 1.516 . S
C1359 C1360 1.502 . S
C1359 C1361 1.561 . S
C1359 C1362 1.526 . S
C1360 H1344 0.959 . S
C1360 H1345 0.959 . S
C1360 H1346 0.961 . S
C1360 C1359 1.502 . S
C1361 H1347 0.960 . S
C1361 H1348 0.961 . S
C1361 H1349 0.959 . S
C1361 C1359 1.561 . S
C1362 C1359 1.526 . S
C1362 C1363 1.396 1_545 S
C1362 C1367 1.390 . S
C1363 C1357 1.465 . S
C1363 C1362 1.396 1_565 S
C1363 C1364 1.399 . S
C1364 H1350 0.929 . S
C1364 C1363 1.399 . S
C1364 C1365 1.385 . S
C1365 H1351 0.931 . S
C1365 C1364 1.385 . S
C1365 C1366 1.389 1_565 S
C1366 C1365 1.389 1_545 S
C1366 C1367 1.387 . S
C1367 H1352 0.930 . S
C1367 C1362 1.390 . S
C1367 C1366 1.387 . S
H1368 C1380 0.930 . S
H1369 C1382 0.930 . S
H1370 C1383 0.930 . S
H1371 C1387 0.959 1_655 S
H1372 C1387 0.959 . S
H1373 C1387 0.961 . S
H1374 C1388 0.960 . S
H1375 C1388 0.961 . S
H1376 C1388 0.959 . S
H1377 C1391 0.929 . S
H1378 C1392 0.931 . S
H1379 C1394 0.930 . S
C1380 H1368 0.930 . S
C1380 C1381 1.399 . S
C1380 C1385 1.399 . S
C1381 C1380 1.399 . S
C1381 C1382 1.376 1_455 S
C1382 H1369 0.930 . S
C1382 C1381 1.376 1_655 S
C1382 C1383 1.388 . S
C1383 H1370 0.930 . S
C1383 C1382 1.388 . S
C1383 C1384 1.390 1_655 S
C1384 C1383 1.390 1_455 S
C1384 C1385 1.394 . S
C1384 C1390 1.465 . S
C1385 C1380 1.399 . S
C1385 C1384 1.394 . S
C1385 C1386 1.516 . S
C1386 C1385 1.516 . S
C1386 C1387 1.502 . S
C1386 C1388 1.561 . S
C1386 C1389 1.526 . S
C1387 H1371 0.959 1_455 S
C1387 H1372 0.959 . S
C1387 H1373 0.961 . S
C1387 C1386 1.502 . S
C1388 H1374 0.960 . S
C1388 H1375 0.961 . S
C1388 H1376 0.959 . S
C1388 C1386 1.561 . S
C1389 C1386 1.526 . S
C1389 C1390 1.396 . S
C1389 C1394 1.390 . S
C1390 C1384 1.465 . S
C1390 C1389 1.396 . S
C1390 C1391 1.399 1_455 S
C1391 H1377 0.929 . S
C1391 C1390 1.399 1_655 S
C1391 C1392 1.385 . S
C1392 H1378 0.931 . S
C1392 C1391 1.385 . S
C1392 C1393 1.389 1_655 S
C1393 C1392 1.389 1_455 S
C1393 C1394 1.387 . S
C1394 H1379 0.930 . S
C1394 C1389 1.390 . S
C1394 C1393 1.387 . S
H1395 C1407 0.930 . S
H1396 C1409 0.930 . S
H1397 C1410 0.930 . S
H1398 C1414 0.959 . S
H1399 C1414 0.959 . S
H1400 C1414 0.961 . S
H1401 C1415 0.960 . S
H1402 C1415 0.961 . S
H1403 C1415 0.959 . S
H1404 C1418 0.929 . S
H1405 C1419 0.931 . S
H1406 C1421 0.930 . S
C1407 H1395 0.930 . S
C1407 C1408 1.399 . S
C1407 C1412 1.399 . S
C1408 C1407 1.399 . S
C1408 C1409 1.376 . S
C1409 H1396 0.930 . S
C1409 C1408 1.376 . S
C1409 C1410 1.388 . S
C1410 H1397 0.930 . S
C1410 C1409 1.388 . S
C1410 C1411 1.390 . S
C1411 C1410 1.390 . S
C1411 C1412 1.394 . S
C1411 C1417 1.465 . S
C1412 C1407 1.399 . S
C1412 C1411 1.394 . S
C1412 C1413 1.516 . S
C1413 C1412 1.516 . S
C1413 C1414 1.502 . S
C1413 C1415 1.561 . S
C1413 C1416 1.526 . S
C1414 H1398 0.959 . S
C1414 H1399 0.959 . S
C1414 H1400 0.961 . S
C1414 C1413 1.502 . S
C1415 H1401 0.960 . S
C1415 H1402 0.961 . S
C1415 H1403 0.959 . S
C1415 C1413 1.561 . S
C1416 C1413 1.526 . S
C1416 C1417 1.396 . S
C1416 C1421 1.390 . S
C1417 C1411 1.465 . S
C1417 C1416 1.396 . S
C1417 C1418 1.399 . S
C1418 H1404 0.929 . S
C1418 C1417 1.399 . S
C1418 C1419 1.385 . S
C1419 H1405 0.931 . S
C1419 C1418 1.385 . S
C1419 C1420 1.389 . S
C1420 C1419 1.389 . S
C1420 C1421 1.387 . S
C1421 H1406 0.930 . S
C1421 C1416 1.390 . S
C1421 C1420 1.387 . S
H1422 C1434 0.930 . S
H1423 C1436 0.930 . S
H1424 C1437 0.930 . S
H1425 C1441 0.959 . S
H1426 C1441 0.959 . S
H1427 C1441 0.961 . S
H1428 C1442 0.960 . S
H1429 C1442 0.961 . S
H1430 C1442 0.959 . S
H1431 C1445 0.929 . S
H1432 C1446 0.931 . S
H1433 C1448 0.930 . S
C1434 H1422 0.930 . S
C1434 C1435 1.399 . S
C1434 C1439 1.399 . S
C1435 C1434 1.399 . S
C1435 C1436 1.376 . S
C1436 H1423 0.930 . S
C1436 C1435 1.376 . S
C1436 C1437 1.388 . S
C1437 H1424 0.930 . S
C1437 C1436 1.388 . S
C1437 C1438 1.390 . S
C1438 C1437 1.390 . S
C1438 C1439 1.394 . S
C1438 C1444 1.465 . S
C1439 C1434 1.399 . S
C1439 C1438 1.394 . S
C1439 C1440 1.516 . S
C1440 C1439 1.516 . S
C1440 C1441 1.502 . S
C1440 C1442 1.561 . S
C1440 C1443 1.526 . S
C1441 H1425 0.959 . S
C1441 H1426 0.959 . S
C1441 H1427 0.961 . S
C1441 C1440 1.502 . S
C1442 H1428 0.960 . S
C1442 H1429 0.961 . S
C1442 H1430 0.959 . S
C1442 C1440 1.561 . S
C1443 C1440 1.526 . S
C1443 C1444 1.396 . S
C1443 C1448 1.390 . S
C1444 C1438 1.465 . S
C1444 C1443 1.396 . S
C1444 C1445 1.399 . S
C1445 H1431 0.929 . S
C1445 C1444 1.399 . S
C1445 C1446 1.385 . S
C1446 H1432 0.931 . S
C1446 C1445 1.385 . S
C1446 C1447 1.389 . S
C1447 C1446 1.389 . S
C1447 C1448 1.387 . S
C1448 H1433 0.930 . S
C1448 C1443 1.390 . S
C1448 C1447 1.387 . S
H1449 C1461 0.930 . S
H1450 C1463 0.930 . S
H1451 C1464 0.930 . S
H1452 C1468 0.959 . S
H1453 C1468 0.959 . S
H1454 C1468 0.961 . S
H1455 C1469 0.960 . S
H1456 C1469 0.961 . S
H1457 C1469 0.959 . S
H1458 C1472 0.929 . S
H1459 C1473 0.931 . S
H1460 C1475 0.930 . S
C1461 H1449 0.930 . S
C1461 C1462 1.399 . S
C1461 C1466 1.399 . S
C1462 C1461 1.399 . S
C1462 C1463 1.376 . S
C1463 H1450 0.930 . S
C1463 C1462 1.376 . S
C1463 C1464 1.388 . S
C1464 H1451 0.930 . S
C1464 C1463 1.388 . S
C1464 C1465 1.390 . S
C1465 C1464 1.390 . S
C1465 C1466 1.394 . S
C1465 C1471 1.465 . S
C1466 C1461 1.399 . S
C1466 C1465 1.394 . S
C1466 C1467 1.516 . S
C1467 C1466 1.516 . S
C1467 C1468 1.502 . S
C1467 C1469 1.561 . S
C1467 C1470 1.526 . S
C1468 H1452 0.959 . S
C1468 H1453 0.959 . S
C1468 H1454 0.961 . S
C1468 C1467 1.502 . S
C1469 H1455 0.960 . S
C1469 H1456 0.961 . S
C1469 H1457 0.959 . S
C1469 C1467 1.561 . S
C1470 C1467 1.526 . S
C1470 C1471 1.396 . S
C1470 C1475 1.390 . S
C1471 C1465 1.465 . S
C1471 C1470 1.396 . S
C1471 C1472 1.399 . S
C1472 H1458 0.929 . S
C1472 C1471 1.399 . S
C1472 C1473 1.385 . S
C1473 H1459 0.931 . S
C1473 C1472 1.385 . S
C1473 C1474 1.389 . S
C1474 C1473 1.389 . S
C1474 C1475 1.387 . S
C1475 H1460 0.930 . S
C1475 C1470 1.390 . S
C1475 C1474 1.387 . S
H1476 C1488 0.930 . S
H1477 C1490 0.930 . S
H1478 C1491 0.930 . S
H1479 C1495 0.959 . S
H1480 C1495 0.959 . S
H1481 C1495 0.961 . S
H1482 C1496 0.960 . S
H1483 C1496 0.961 . S
H1484 C1496 0.959 . S
H1485 C1499 0.929 . S
H1486 C1500 0.931 . S
H1487 C1502 0.930 . S
C1488 H1476 0.930 . S
C1488 C1489 1.399 . S
C1488 C1493 1.399 . S
C1489 C1488 1.399 . S
C1489 C1490 1.376 . S
C1490 H1477 0.930 . S
C1490 C1489 1.376 . S
C1490 C1491 1.388 . S
C1491 H1478 0.930 . S
C1491 C1490 1.388 . S
C1491 C1492 1.390 . S
C1492 C1491 1.390 . S
C1492 C1493 1.394 . S
C1492 C1498 1.465 . S
C1493 C1488 1.399 . S
C1493 C1492 1.394 . S
C1493 C1494 1.516 . S
C1494 C1493 1.516 . S
C1494 C1495 1.502 . S
C1494 C1496 1.561 . S
C1494 C1497 1.526 . S
C1495 H1479 0.959 . S
C1495 H1480 0.959 . S
C1495 H1481 0.961 . S
C1495 C1494 1.502 . S
C1496 H1482 0.960 . S
C1496 H1483 0.961 . S
C1496 H1484 0.959 . S
C1496 C1494 1.561 . S
C1497 C1494 1.526 . S
C1497 C1498 1.396 . S
C1497 C1502 1.390 . S
C1498 C1492 1.465 . S
C1498 C1497 1.396 . S
C1498 C1499 1.399 . S
C1499 H1485 0.929 . S
C1499 C1498 1.399 . S
C1499 C1500 1.385 . S
C1500 H1486 0.931 . S
C1500 C1499 1.385 . S
C1500 C1501 1.389 . S
C1501 C1500 1.389 . S
C1501 C1502 1.387 . S
C1502 H1487 0.930 . S
C1502 C1497 1.390 . S
C1502 C1501 1.387 . S
H1503 C1515 0.930 . S
H1504 C1517 0.930 . S
H1505 C1518 0.930 . S
H1506 C1522 0.959 . S
H1507 C1522 0.959 . S
H1508 C1522 0.961 . S
H1509 C1523 0.960 . S
H1510 C1523 0.961 . S
H1511 C1523 0.959 . S
H1512 C1526 0.929 . S
H1513 C1527 0.931 . S
H1514 C1529 0.930 . S
C1515 H1503 0.930 . S
C1515 C1516 1.399 . S
C1515 C1520 1.399 . S
C1516 C1515 1.399 . S
C1516 C1517 1.376 . S
C1517 H1504 0.930 . S
C1517 C1516 1.376 . S
C1517 C1518 1.388 . S
C1518 H1505 0.930 . S
C1518 C1517 1.388 . S
C1518 C1519 1.390 . S
C1519 C1518 1.390 . S
C1519 C1520 1.394 . S
C1519 C1525 1.465 . S
C1520 C1515 1.399 . S
C1520 C1519 1.394 . S
C1520 C1521 1.516 . S
C1521 C1520 1.516 . S
C1521 C1522 1.502 . S
C1521 C1523 1.561 . S
C1521 C1524 1.526 . S
C1522 H1506 0.959 . S
C1522 H1507 0.959 . S
C1522 H1508 0.961 . S
C1522 C1521 1.502 . S
C1523 H1509 0.960 . S
C1523 H1510 0.961 . S
C1523 H1511 0.959 . S
C1523 C1521 1.561 . S
C1524 C1521 1.526 . S
C1524 C1525 1.396 . S
C1524 C1529 1.390 . S
C1525 C1519 1.465 . S
C1525 C1524 1.396 . S
C1525 C1526 1.399 . S
C1526 H1512 0.929 . S
C1526 C1525 1.399 . S
C1526 C1527 1.385 . S
C1527 H1513 0.931 . S
C1527 C1526 1.385 . S
C1527 C1528 1.389 . S
C1528 C1527 1.389 . S
C1528 C1529 1.387 . S
C1529 H1514 0.930 . S
C1529 C1524 1.390 . S
C1529 C1528 1.387 . S
H1530 C1542 0.930 . S
H1531 C1544 0.930 . S
H1532 C1545 0.930 . S
H1533 C1549 0.959 . S
H1534 C1549 0.959 . S
H1535 C1549 0.961 . S
H1536 C1550 0.960 . S
H1537 C1550 0.961 . S
H1538 C1550 0.959 . S
H1539 C1553 0.929 . S
H1540 C1554 0.931 . S
H1541 C1556 0.930 . S
C1542 H1530 0.930 . S
C1542 C1543 1.399 . S
C1542 C1547 1.399 . S
C1543 C1542 1.399 . S
C1543 C1544 1.376 . S
C1544 H1531 0.930 . S
C1544 C1543 1.376 . S
C1544 C1545 1.388 . S
C1545 H1532 0.930 . S
C1545 C1544 1.388 . S
C1545 C1546 1.390 . S
C1546 C1545 1.390 . S
C1546 C1547 1.394 . S
C1546 C1552 1.465 . S
C1547 C1542 1.399 . S
C1547 C1546 1.394 . S
C1547 C1548 1.516 . S
C1548 C1547 1.516 . S
C1548 C1549 1.502 . S
C1548 C1550 1.561 . S
C1548 C1551 1.526 . S
C1549 H1533 0.959 . S
C1549 H1534 0.959 . S
C1549 H1535 0.961 . S
C1549 C1548 1.502 . S
C1550 H1536 0.960 . S
C1550 H1537 0.961 . S
C1550 H1538 0.959 . S
C1550 C1548 1.561 . S
C1551 C1548 1.526 . S
C1551 C1552 1.396 . S
C1551 C1556 1.390 . S
C1552 C1546 1.465 . S
C1552 C1551 1.396 . S
C1552 C1553 1.399 . S
C1553 H1539 0.929 . S
C1553 C1552 1.399 . S
C1553 C1554 1.385 . S
C1554 H1540 0.931 . S
C1554 C1553 1.385 . S
C1554 C1555 1.389 . S
C1555 C1554 1.389 . S
C1555 C1556 1.387 . S
C1556 H1541 0.930 . S
C1556 C1551 1.390 . S
C1556 C1555 1.387 . S
H1557 C1569 0.930 . S
H1558 C1571 0.930 . S
H1559 C1572 0.930 . S
H1560 C1576 0.959 . S
H1561 C1576 0.959 . S
H1562 C1576 0.961 . S
H1563 C1577 0.960 . S
H1564 C1577 0.961 . S
H1565 C1577 0.959 . S
H1566 C1580 0.929 . S
H1567 C1581 0.931 . S
H1568 C1583 0.930 . S
C1569 H1557 0.930 . S
C1569 C1570 1.399 . S
C1569 C1574 1.399 . S
C1570 C1569 1.399 . S
C1570 C1571 1.376 . S
C1571 H1558 0.930 . S
C1571 C1570 1.376 . S
C1571 C1572 1.388 . S
C1572 H1559 0.930 . S
C1572 C1571 1.388 . S
C1572 C1573 1.390 . S
C1573 C1572 1.390 . S
C1573 C1574 1.394 . S
C1573 C1579 1.465 . S
C1574 C1569 1.399 . S
C1574 C1573 1.394 . S
C1574 C1575 1.516 . S
C1575 C1574 1.516 . S
C1575 C1576 1.502 . S
C1575 C1577 1.561 . S
C1575 C1578 1.526 . S
C1576 H1560 0.959 . S
C1576 H1561 0.959 . S
C1576 H1562 0.961 . S
C1576 C1575 1.502 . S
C1577 H1563 0.960 . S
C1577 H1564 0.961 . S
C1577 H1565 0.959 . S
C1577 C1575 1.561 . S
C1578 C1575 1.526 . S
C1578 C1579 1.396 . S
C1578 C1583 1.390 . S
C1579 C1573 1.465 . S
C1579 C1578 1.396 . S
C1579 C1580 1.399 . S
C1580 H1566 0.929 . S
C1580 C1579 1.399 . S
C1580 C1581 1.385 . S
C1581 H1567 0.931 . S
C1581 C1580 1.385 . S
C1581 C1582 1.389 . S
C1582 C1581 1.389 . S
C1582 C1583 1.387 . S
C1583 H1568 0.930 . S
C1583 C1578 1.390 . S
C1583 C1582 1.387 . S
H1584 C1596 0.930 . S
H1585 C1598 0.930 . S
H1586 C1599 0.930 . S
H1587 C1603 0.959 . S
H1588 C1603 0.959 . S
H1589 C1603 0.961 1_554 S
H1590 C1604 0.962 1_554 S
H1591 C1604 0.961 . S
H1592 C1604 0.959 . S
H1593 C1607 0.929 . S
H1594 C1608 0.931 . S
H1595 C1610 0.930 1_565 S
C1596 H1584 0.930 . S
C1596 C1597 1.399 . S
C1596 C1601 1.399 . S
C1597 C1596 1.399 . S
C1597 C1598 1.376 1_565 S
C1598 H1585 0.930 . S
C1598 C1597 1.376 1_545 S
C1598 C1599 1.388 . S
C1599 H1586 0.930 . S
C1599 C1598 1.388 . S
C1599 C1600 1.390 . S
C1600 C1599 1.390 . S
C1600 C1601 1.394 1_545 S
C1600 C1606 1.465 1_554 S
C1601 C1596 1.399 . S
C1601 C1600 1.394 1_565 S
C1601 C1602 1.516 1_554 S
C1602 C1601 1.516 1_556 S
C1602 C1603 1.502 . S
C1602 C1604 1.561 . S
C1602 C1605 1.526 1_565 S
C1603 H1587 0.959 . S
C1603 H1588 0.959 . S
C1603 H1589 0.961 1_556 S
C1603 C1602 1.502 . S
C1604 H1590 0.962 1_556 S
C1604 H1591 0.961 . S
C1604 H1592 0.959 . S
C1604 C1602 1.561 . S
C1605 C1602 1.526 1_545 S
C1605 C1606 1.396 . S
C1605 C1610 1.390 . S
C1606 C1600 1.465 1_556 S
C1606 C1605 1.396 . S
C1606 C1607 1.399 . S
C1607 H1593 0.929 . S
C1607 C1606 1.399 . S
C1607 C1608 1.385 . S
C1608 H1594 0.931 . S
C1608 C1607 1.385 . S
C1608 C1609 1.389 . S
C1609 C1608 1.389 . S
C1609 C1610 1.387 . S
C1610 H1595 0.930 1_545 S
C1610 C1605 1.390 . S
C1610 C1609 1.387 . S
H1611 C1623 0.930 . S
H1612 C1625 0.939 . S
H1613 C1626 0.930 . S
H1614 C1630 0.959 . S
H1615 C1630 0.959 . S
H1616 C1630 0.961 1_554 S
H1617 C1631 0.960 . S
H1618 C1631 0.961 . S
H1619 C1631 0.959 . S
H1620 C1634 0.929 . S
H1621 C1635 0.931 . S
H1622 C1637 0.930 . S
C1623 H1611 0.930 . S
C1623 C1624 1.399 . S
C1623 C1628 1.399 . S
C1624 C1623 1.399 . S
C1624 C1625 1.357 1_455 S
C1625 H1612 0.939 . S
C1625 C1624 1.357 1_655 S
C1625 C1626 1.401 . S
C1626 H1613 0.930 . S
C1626 C1625 1.401 . S
C1626 C1627 1.390 1_655 S
C1627 C1626 1.390 1_455 S
C1627 C1628 1.394 . S
C1627 C1633 1.465 1_454 S
C1628 C1623 1.399 . S
C1628 C1627 1.394 . S
C1628 C1629 1.516 1_554 S
C1629 C1628 1.516 1_556 S
C1629 C1630 1.502 . S
C1629 C1631 1.561 . S
C1629 C1632 1.526 . S
C1630 H1614 0.959 . S
C1630 H1615 0.959 . S
C1630 H1616 0.961 1_556 S
C1630 C1629 1.502 . S
C1631 H1617 0.960 . S
C1631 H1618 0.961 . S
C1631 H1619 0.959 . S
C1631 C1629 1.561 . S
C1632 C1629 1.526 . S
C1632 C1633 1.396 1_455 S
C1632 C1637 1.390 . S
C1633 C1627 1.465 1_656 S
C1633 C1632 1.396 1_655 S
C1633 C1634 1.399 . S
C1634 H1620 0.929 . S
C1634 C1633 1.399 . S
C1634 C1635 1.385 . S
C1635 H1621 0.931 . S
C1635 C1634 1.385 . S
C1635 C1636 1.389 . S
C1636 C1635 1.389 . S
C1636 C1637 1.387 1_655 S
C1637 H1622 0.930 . S
C1637 C1632 1.390 . S
C1637 C1636 1.387 1_455 S
H1638 C1650 0.930 . S
H1639 C1652 0.930 . S
H1640 C1653 0.930 . S
H1641 C1657 0.962 . S
H1642 C1657 0.945 1_554 S
H1643 C1657 0.975 . S
H1644 C1658 0.960 1_556 S
H1645 C1658 0.961 . S
H1646 C1658 0.959 . S
H1647 C1661 0.929 . S
H1648 C1662 0.931 . S
H1649 C1664 0.930 . S
C1650 H1638 0.930 . S
C1650 C1651 1.399 . S
C1650 C1655 1.399 . S
C1651 C1650 1.399 . S
C1651 C1652 1.376 . S
C1652 H1639 0.930 . S
C1652 C1651 1.376 . S
C1652 C1653 1.388 . S
C1653 H1640 0.930 . S
C1653 C1652 1.388 . S
C1653 C1654 1.390 . S
C1654 C1653 1.390 . S
C1654 C1655 1.394 . S
C1654 C1660 1.465 1_556 S
C1655 C1650 1.399 . S
C1655 C1654 1.394 . S
C1655 C1656 1.516 1_556 S
C1656 C1655 1.516 1_554 S
C1656 C1657 1.500 1_554 S
C1656 C1658 1.561 . S
C1656 C1659 1.526 . S
C1657 H1641 0.962 . S
C1657 H1642 0.945 1_556 S
C1657 H1643 0.975 . S
C1657 C1656 1.500 1_556 S
C1658 H1644 0.960 1_554 S
C1658 H1645 0.961 . S
C1658 H1646 0.959 . S
C1658 C1656 1.561 . S
C1659 C1656 1.526 . S
C1659 C1660 1.396 . S
C1659 C1664 1.390 . S
C1660 C1654 1.465 1_554 S
C1660 C1659 1.396 . S
C1660 C1661 1.399 . S
C1661 H1647 0.929 . S
C1661 C1660 1.399 . S
C1661 C1662 1.385 . S
C1662 H1648 0.931 . S
C1662 C1661 1.385 . S
C1662 C1663 1.389 . S
C1663 C1662 1.389 . S
C1663 C1664 1.387 . S
C1664 H1649 0.930 . S
C1664 C1659 1.390 . S
C1664 C1663 1.387 . S
H1665 C1677 0.930 . S
H1666 C1679 0.930 . S
H1667 C1680 0.930 . S
H1668 C1684 0.959 . S
H1669 C1684 0.959 . S
H1670 C1684 0.961 . S
H1671 C1685 0.960 . S
H1672 C1685 0.961 . S
H1673 C1685 0.959 . S
H1674 C1688 0.929 . S
H1675 C1689 0.931 . S
H1676 C1691 0.930 . S
C1677 H1665 0.930 . S
C1677 C1678 1.399 . S
C1677 C1682 1.399 . S
C1678 C1677 1.399 . S
C1678 C1679 1.376 . S
C1679 H1666 0.930 . S
C1679 C1678 1.376 . S
C1679 C1680 1.388 . S
C1680 H1667 0.930 . S
C1680 C1679 1.388 . S
C1680 C1681 1.390 . S
C1681 C1680 1.390 . S
C1681 C1682 1.394 . S
C1681 C1687 1.465 . S
C1682 C1677 1.399 . S
C1682 C1681 1.394 . S
C1682 C1683 1.516 . S
C1683 C1682 1.516 . S
C1683 C1684 1.502 . S
C1683 C1685 1.561 . S
C1683 C1686 1.526 . S
C1684 H1668 0.959 . S
C1684 H1669 0.959 . S
C1684 H1670 0.961 . S
C1684 C1683 1.502 . S
C1685 H1671 0.960 . S
C1685 H1672 0.961 . S
C1685 H1673 0.959 . S
C1685 C1683 1.561 . S
C1686 C1683 1.526 . S
C1686 C1687 1.396 . S
C1686 C1691 1.390 . S
C1687 C1681 1.465 . S
C1687 C1686 1.396 . S
C1687 C1688 1.399 . S
C1688 H1674 0.929 . S
C1688 C1687 1.399 . S
C1688 C1689 1.385 . S
C1689 H1675 0.931 . S
C1689 C1688 1.385 . S
C1689 C1690 1.389 . S
C1690 C1689 1.389 . S
C1690 C1691 1.387 . S
C1691 H1676 0.930 . S
C1691 C1686 1.390 . S
C1691 C1690 1.387 . S
H1692 C1704 0.930 . S
H1693 C1706 0.930 . S
H1694 C1707 0.930 . S
H1695 C1711 0.959 . S
H1696 C1711 0.959 . S
H1697 C1711 0.961 . S
H1698 C1712 0.960 . S
H1699 C1712 0.961 . S
H1700 C1712 0.959 . S
H1701 C1715 0.929 . S
H1702 C1716 0.931 . S
H1703 C1718 0.930 . S
C1704 H1692 0.930 . S
C1704 C1705 1.399 . S
C1704 C1709 1.399 . S
C1705 C1704 1.399 . S
C1705 C1706 1.376 . S
C1706 H1693 0.930 . S
C1706 C1705 1.376 . S
C1706 C1707 1.388 . S
C1707 H1694 0.930 . S
C1707 C1706 1.388 . S
C1707 C1708 1.390 . S
C1708 C1707 1.390 . S
C1708 C1709 1.394 . S
C1708 C1714 1.465 . S
C1709 C1704 1.399 . S
C1709 C1708 1.394 . S
C1709 C1710 1.516 . S
C1710 C1709 1.516 . S
C1710 C1711 1.502 . S
C1710 C1712 1.561 . S
C1710 C1713 1.526 . S
C1711 H1695 0.959 . S
C1711 H1696 0.959 . S
C1711 H1697 0.961 . S
C1711 C1710 1.502 . S
C1712 H1698 0.960 . S
C1712 H1699 0.961 . S
C1712 H1700 0.959 . S
C1712 C1710 1.561 . S
C1713 C1710 1.526 . S
C1713 C1714 1.396 . S
C1713 C1718 1.390 . S
C1714 C1708 1.465 . S
C1714 C1713 1.396 . S
C1714 C1715 1.399 . S
C1715 H1701 0.929 . S
C1715 C1714 1.399 . S
C1715 C1716 1.385 . S
C1716 H1702 0.931 . S
C1716 C1715 1.385 . S
C1716 C1717 1.389 . S
C1717 C1716 1.389 . S
C1717 C1718 1.387 . S
C1718 H1703 0.930 . S
C1718 C1713 1.390 . S
C1718 C1717 1.387 . S
H1719 C1731 0.930 . S
H1720 C1733 0.930 . S
H1721 C1734 0.930 . S
H1722 C1738 0.959 . S
H1723 C1738 0.959 . S
H1724 C1738 0.961 . S
H1725 C1739 0.960 . S
H1726 C1739 0.961 . S
H1727 C1739 0.959 . S
H1728 C1742 0.929 . S
H1729 C1743 0.931 . S
H1730 C1745 0.930 . S
C1731 H1719 0.930 . S
C1731 C1732 1.399 . S
C1731 C1736 1.399 . S
C1732 C1731 1.399 . S
C1732 C1733 1.376 . S
C1733 H1720 0.930 . S
C1733 C1732 1.376 . S
C1733 C1734 1.388 . S
C1734 H1721 0.930 . S
C1734 C1733 1.388 . S
C1734 C1735 1.390 . S
C1735 C1734 1.390 . S
C1735 C1736 1.394 . S
C1735 C1741 1.465 . S
C1736 C1731 1.399 . S
C1736 C1735 1.394 . S
C1736 C1737 1.516 . S
C1737 C1736 1.516 . S
C1737 C1738 1.502 . S
C1737 C1739 1.561 . S
C1737 C1740 1.526 . S
C1738 H1722 0.959 . S
C1738 H1723 0.959 . S
C1738 H1724 0.961 . S
C1738 C1737 1.502 . S
C1739 H1725 0.960 . S
C1739 H1726 0.961 . S
C1739 H1727 0.959 . S
C1739 C1737 1.561 . S
C1740 C1737 1.526 . S
C1740 C1741 1.396 . S
C1740 C1745 1.390 . S
C1741 C1735 1.465 . S
C1741 C1740 1.396 . S
C1741 C1742 1.399 . S
C1742 H1728 0.929 . S
C1742 C1741 1.399 . S
C1742 C1743 1.385 . S
C1743 H1729 0.931 . S
C1743 C1742 1.385 . S
C1743 C1744 1.389 . S
C1744 C1743 1.389 . S
C1744 C1745 1.387 . S
C1745 H1730 0.930 . S
C1745 C1740 1.390 . S
C1745 C1744 1.387 . S
H1746 C1758 0.930 . S
H1747 C1760 0.930 . S
H1748 C1761 0.930 . S
H1749 C1765 0.959 . S
H1750 C1765 0.959 . S
H1751 C1765 0.961 . S
H1752 C1766 0.960 . S
H1753 C1766 0.961 . S
H1754 C1766 0.959 . S
H1755 C1769 0.929 . S
H1756 C1770 0.931 . S
H1757 C1772 0.930 . S
C1758 H1746 0.930 . S
C1758 C1759 1.399 . S
C1758 C1763 1.399 . S
C1759 C1758 1.399 . S
C1759 C1760 1.376 . S
C1760 H1747 0.930 . S
C1760 C1759 1.376 . S
C1760 C1761 1.388 . S
C1761 H1748 0.930 . S
C1761 C1760 1.388 . S
C1761 C1762 1.390 . S
C1762 C1761 1.390 . S
C1762 C1763 1.394 . S
C1762 C1768 1.465 . S
C1763 C1758 1.399 . S
C1763 C1762 1.394 . S
C1763 C1764 1.516 . S
C1764 C1763 1.516 . S
C1764 C1765 1.502 . S
C1764 C1766 1.561 . S
C1764 C1767 1.526 . S
C1765 H1749 0.959 . S
C1765 H1750 0.959 . S
C1765 H1751 0.961 . S
C1765 C1764 1.502 . S
C1766 H1752 0.960 . S
C1766 H1753 0.961 . S
C1766 H1754 0.959 . S
C1766 C1764 1.561 . S
C1767 C1764 1.526 . S
C1767 C1768 1.396 . S
C1767 C1772 1.390 . S
C1768 C1762 1.465 . S
C1768 C1767 1.396 . S
C1768 C1769 1.399 . S
C1769 H1755 0.929 . S
C1769 C1768 1.399 . S
C1769 C1770 1.385 . S
C1770 H1756 0.931 . S
C1770 C1769 1.385 . S
C1770 C1771 1.389 . S
C1771 C1770 1.389 . S
C1771 C1772 1.387 . S
C1772 H1757 0.930 . S
C1772 C1767 1.390 . S
C1772 C1771 1.387 . S
H1773 C1785 0.930 . S
H1774 C1787 0.930 . S
H1775 C1788 0.930 . S
H1776 C1792 0.959 . S
H1777 C1792 0.959 . S
H1778 C1792 0.961 . S
H1779 C1793 0.960 . S
H1780 C1793 0.961 . S
H1781 C1793 0.959 . S
H1782 C1796 0.929 . S
H1783 C1797 0.931 . S
H1784 C1799 0.930 . S
C1785 H1773 0.930 . S
C1785 C1786 1.399 . S
C1785 C1790 1.399 . S
C1786 C1785 1.399 . S
C1786 C1787 1.376 . S
C1787 H1774 0.930 . S
C1787 C1786 1.376 . S
C1787 C1788 1.388 . S
C1788 H1775 0.930 . S
C1788 C1787 1.388 . S
C1788 C1789 1.390 . S
C1789 C1788 1.390 . S
C1789 C1790 1.394 . S
C1789 C1795 1.465 . S
C1790 C1785 1.399 . S
C1790 C1789 1.394 . S
C1790 C1791 1.516 . S
C1791 C1790 1.516 . S
C1791 C1792 1.502 . S
C1791 C1793 1.561 . S
C1791 C1794 1.526 . S
C1792 H1776 0.959 . S
C1792 H1777 0.959 . S
C1792 H1778 0.961 . S
C1792 C1791 1.502 . S
C1793 H1779 0.960 . S
C1793 H1780 0.961 . S
C1793 H1781 0.959 . S
C1793 C1791 1.561 . S
C1794 C1791 1.526 . S
C1794 C1795 1.396 . S
C1794 C1799 1.390 . S
C1795 C1789 1.465 . S
C1795 C1794 1.396 . S
C1795 C1796 1.399 . S
C1796 H1782 0.929 . S
C1796 C1795 1.399 . S
C1796 C1797 1.385 . S
C1797 H1783 0.931 . S
C1797 C1796 1.385 . S
C1797 C1798 1.389 . S
C1798 C1797 1.389 . S
C1798 C1799 1.387 . S
C1799 H1784 0.930 . S
C1799 C1794 1.390 . S
C1799 C1798 1.387 . S
H1800 C1812 0.930 . S
H1801 C1814 0.930 . S
H1802 C1815 0.930 . S
H1803 C1819 0.959 . S
H1804 C1819 0.959 . S
H1805 C1819 0.961 . S
H1806 C1820 0.960 . S
H1807 C1820 0.961 . S
H1808 C1820 0.959 . S
H1809 C1823 0.929 . S
H1810 C1824 0.931 . S
H1811 C1826 0.930 . S
C1812 H1800 0.930 . S
C1812 C1813 1.399 . S
C1812 C1817 1.399 . S
C1813 C1812 1.399 . S
C1813 C1814 1.376 . S
C1814 H1801 0.930 . S
C1814 C1813 1.376 . S
C1814 C1815 1.388 . S
C1815 H1802 0.930 . S
C1815 C1814 1.388 . S
C1815 C1816 1.390 . S
C1816 C1815 1.390 . S
C1816 C1817 1.394 . S
C1816 C1822 1.465 . S
C1817 C1812 1.399 . S
C1817 C1816 1.394 . S
C1817 C1818 1.516 . S
C1818 C1817 1.516 . S
C1818 C1819 1.502 . S
C1818 C1820 1.561 . S
C1818 C1821 1.526 . S
C1819 H1803 0.959 . S
C1819 H1804 0.959 . S
C1819 H1805 0.961 . S
C1819 C1818 1.502 . S
C1820 H1806 0.960 . S
C1820 H1807 0.961 . S
C1820 H1808 0.959 . S
C1820 C1818 1.561 . S
C1821 C1818 1.526 . S
C1821 C1822 1.396 . S
C1821 C1826 1.390 . S
C1822 C1816 1.465 . S
C1822 C1821 1.396 . S
C1822 C1823 1.399 . S
C1823 H1809 0.929 . S
C1823 C1822 1.399 . S
C1823 C1824 1.385 . S
C1824 H1810 0.931 . S
C1824 C1823 1.385 . S
C1824 C1825 1.389 . S
C1825 C1824 1.389 . S
C1825 C1826 1.387 . S
C1826 H1811 0.930 . S
C1826 C1821 1.390 . S
C1826 C1825 1.387 . S
C625 C33 1.149 . S
C637 C39 1.158 . S
C652 C73 1.170 . S
C664 C67 1.180 . S
C679 C101 1.167 . S
C691 C5 1.161 . S
C706 C175 1.162 . S
C718 C135 1.142 . S
C733 C107 1.168 . S
C745 C169 1.179 . S
C760 C203 1.163 . S
C772 C141 1.173 . S
C787 C243 1.165 . S
C799 C237 1.145 . S
C814 C271 1.161 . S
C826 C277 1.159 . S
C841 C305 1.159 . S
C853 C209 1.171 . S
C868 C379 1.163 . S
C880 C339 1.143 . S
C895 C311 1.169 . S
C907 C373 1.180 . S
C922 C407 1.153 . S
C934 C345 1.169 . S
C949 C447 1.160 . S
C961 C441 1.165 . S
C976 C475 1.164 . S
C988 C481 1.173 . S
C1003 C509 1.156 . S
C1015 C413 1.171 . S
C1030 C583 1.163 . S
C1042 C543 1.143 . S
C1057 C515 1.162 . S
C1069 C577 1.142 . S
C1084 C611 1.162 . S
C1096 C549 1.160 . S
C1111 C349 1.517 . S
C1123 C9 1.585 . S
C1138 C383 1.561 . S
C1150 C43 1.602 . S
C1165 C315 1.552 . S
C1177 C77 1.602 . S
C1192 C111 1.590 . S
C1204 C485 1.523 . S
C1219 C417 1.571 . S
C1231 C145 1.600 . S
C1246 C451 1.576 . S
C1258 C179 1.511 . S
C1273 C213 1.549 . S
C1285 C553 1.602 . S
C1300 C587 1.579 . S
C1312 C247 1.513 . S
C1327 C519 1.507 . S
C1339 C281 1.531 . S
C1354 C2 1.590 . S
C1366 C172 1.578 . S
C1381 C104 1.579 . S
C1393 C36 1.577 . S
C1408 C138 1.577 . S
C1420 C70 1.590 . S
C1435 C376 1.583 1_556 S
C1447 C206 1.578 . S
C1462 C308 1.569 1_556 S
C1474 C240 1.582 . S
C1489 C274 1.578 . S
C1501 C342 1.571 1_556 S
C1516 C580 1.606 . S
C1528 C410 1.610 1_554 S
C1543 C444 1.607 1_554 S
C1555 C512 1.600 . S
C1570 C546 1.613 . S
C1582 C478 1.591 1_554 S
C1597 C20 0.859 . S
C1609 C190 0.927 . S
C1624 C54 0.855 . S
C1636 C122 0.933 . S
C1651 C156 0.893 . S
C1663 C88 0.890 . S
C1678 C394 0.955 . S
C1690 C224 0.874 . S
C1705 C326 0.958 . S
C1717 C258 0.848 . S
C1732 C360 0.924 . S
C1744 C292 0.915 . S
C1759 C428 0.857 . S
C1771 C598 0.930 . S
C1786 C462 0.897 . S
C1798 C530 0.939 . S
C1813 C564 0.896 . S
C1825 C496 0.886 . S
