# Generated by pormake.
# Topology wmg, (6)-cn, num edge types: 1
# Building blocks:
#     Node 0, Type 0, BuildingBlock: VOLQOD_clean_sbu_1, # of connection points: 6
#     Node 1, Type 0, BuildingBlock: VOLQOD_clean_sbu_1, # of connection points: 6
#     Node 2, Type 0, BuildingBlock: VOLQOD_clean_sbu_1, # of connection points: 6
#     Node 3, Type 0, BuildingBlock: VOLQOD_clean_sbu_1, # of connection points: 6
#     Node 4, Type 0, BuildingBlock: VOLQOD_clean_sbu_1, # of connection points: 6
#     Node 5, Type 0, BuildingBlock: VOLQOD_clean_sbu_1, # of connection points: 6
#     Node 6, Type 0, BuildingBlock: VOLQOD_clean_sbu_1, # of connection points: 6
#     Node 7, Type 0, BuildingBlock: VOLQOD_clean_sbu_1, # of connection points: 6
#     Node 8, Type 0, BuildingBlock: VOLQOD_clean_sbu_1, # of connection points: 6
#     Node 9, Type 0, BuildingBlock: VOLQOD_clean_sbu_1, # of connection points: 6
#     Node 10, Type 0, BuildingBlock: VOLQOD_clean_sbu_1, # of connection points: 6
#     Node 11, Type 0, BuildingBlock: VOLQOD_clean_sbu_1, # of connection points: 6
#     Node 12, Type 0, BuildingBlock: VOLQOD_clean_sbu_1, # of connection points: 6
#     Node 13, Type 0, BuildingBlock: VOLQOD_clean_sbu_1, # of connection points: 6
#     Node 14, Type 0, BuildingBlock: VOLQOD_clean_sbu_1, # of connection points: 6
#     Node 15, Type 0, BuildingBlock: VOLQOD_clean_sbu_1, # of connection points: 6
#     Node 16, Type 0, BuildingBlock: VOLQOD_clean_sbu_1, # of connection points: 6
#     Node 17, Type 0, BuildingBlock: VOLQOD_clean_sbu_1, # of connection points: 6
#     Edge 18, Type (0, 0), BuildingBlock: UVAHIK_clean_linker_0, # of connection points: 2
#     Edge 19, Type (0, 0), BuildingBlock: UVAHIK_clean_linker_0, # of connection points: 2
#     Edge 20, Type (0, 0), BuildingBlock: UVAHIK_clean_linker_0, # of connection points: 2
#     Edge 21, Type (0, 0), BuildingBlock: UVAHIK_clean_linker_0, # of connection points: 2
#     Edge 22, Type (0, 0), BuildingBlock: UVAHIK_clean_linker_0, # of connection points: 2
#     Edge 23, Type (0, 0), BuildingBlock: UVAHIK_clean_linker_0, # of connection points: 2
#     Edge 24, Type (0, 0), BuildingBlock: UVAHIK_clean_linker_0, # of connection points: 2
#     Edge 25, Type (0, 0), BuildingBlock: UVAHIK_clean_linker_0, # of connection points: 2
#     Edge 26, Type (0, 0), BuildingBlock: UVAHIK_clean_linker_0, # of connection points: 2
#     Edge 27, Type (0, 0), BuildingBlock: UVAHIK_clean_linker_0, # of connection points: 2
#     Edge 28, Type (0, 0), BuildingBlock: UVAHIK_clean_linker_0, # of connection points: 2
#     Edge 29, Type (0, 0), BuildingBlock: UVAHIK_clean_linker_0, # of connection points: 2
#     Edge 30, Type (0, 0), BuildingBlock: UVAHIK_clean_linker_0, # of connection points: 2
#     Edge 31, Type (0, 0), BuildingBlock: UVAHIK_clean_linker_0, # of connection points: 2
#     Edge 32, Type (0, 0), BuildingBlock: UVAHIK_clean_linker_0, # of connection points: 2
#     Edge 33, Type (0, 0), BuildingBlock: UVAHIK_clean_linker_0, # of connection points: 2
#     Edge 34, Type (0, 0), BuildingBlock: UVAHIK_clean_linker_0, # of connection points: 2
#     Edge 35, Type (0, 0), BuildingBlock: UVAHIK_clean_linker_0, # of connection points: 2
#     Edge 36, Type (0, 0), BuildingBlock: UVAHIK_clean_linker_0, # of connection points: 2
#     Edge 37, Type (0, 0), BuildingBlock: UVAHIK_clean_linker_0, # of connection points: 2
#     Edge 38, Type (0, 0), BuildingBlock: UVAHIK_clean_linker_0, # of connection points: 2
#     Edge 39, Type (0, 0), BuildingBlock: UVAHIK_clean_linker_0, # of connection points: 2
#     Edge 40, Type (0, 0), BuildingBlock: UVAHIK_clean_linker_0, # of connection points: 2
#     Edge 41, Type (0, 0), BuildingBlock: UVAHIK_clean_linker_0, # of connection points: 2
#     Edge 42, Type (0, 0), BuildingBlock: UVAHIK_clean_linker_0, # of connection points: 2
#     Edge 43, Type (0, 0), BuildingBlock: UVAHIK_clean_linker_0, # of connection points: 2
#     Edge 44, Type (0, 0), BuildingBlock: UVAHIK_clean_linker_0, # of connection points: 2
#     Edge 45, Type (0, 0), BuildingBlock: UVAHIK_clean_linker_0, # of connection points: 2
#     Edge 46, Type (0, 0), BuildingBlock: UVAHIK_clean_linker_0, # of connection points: 2
#     Edge 47, Type (0, 0), BuildingBlock: UVAHIK_clean_linker_0, # of connection points: 2
#     Edge 48, Type (0, 0), BuildingBlock: UVAHIK_clean_linker_0, # of connection points: 2
#     Edge 49, Type (0, 0), BuildingBlock: UVAHIK_clean_linker_0, # of connection points: 2
#     Edge 50, Type (0, 0), BuildingBlock: UVAHIK_clean_linker_0, # of connection points: 2
#     Edge 51, Type (0, 0), BuildingBlock: UVAHIK_clean_linker_0, # of connection points: 2
#     Edge 52, Type (0, 0), BuildingBlock: UVAHIK_clean_linker_0, # of connection points: 2
#     Edge 53, Type (0, 0), BuildingBlock: UVAHIK_clean_linker_0, # of connection points: 2
#     Edge 54, Type (0, 0), BuildingBlock: UVAHIK_clean_linker_0, # of connection points: 2
#     Edge 55, Type (0, 0), BuildingBlock: UVAHIK_clean_linker_0, # of connection points: 2
#     Edge 56, Type (0, 0), BuildingBlock: UVAHIK_clean_linker_0, # of connection points: 2
#     Edge 57, Type (0, 0), BuildingBlock: UVAHIK_clean_linker_0, # of connection points: 2
#     Edge 58, Type (0, 0), BuildingBlock: UVAHIK_clean_linker_0, # of connection points: 2
#     Edge 59, Type (0, 0), BuildingBlock: UVAHIK_clean_linker_0, # of connection points: 2
#     Edge 60, Type (0, 0), BuildingBlock: UVAHIK_clean_linker_0, # of connection points: 2
#     Edge 61, Type (0, 0), BuildingBlock: UVAHIK_clean_linker_0, # of connection points: 2
#     Edge 62, Type (0, 0), BuildingBlock: UVAHIK_clean_linker_0, # of connection points: 2
#     Edge 63, Type (0, 0), BuildingBlock: UVAHIK_clean_linker_0, # of connection points: 2
#     Edge 64, Type (0, 0), BuildingBlock: UVAHIK_clean_linker_0, # of connection points: 2
#     Edge 65, Type (0, 0), BuildingBlock: UVAHIK_clean_linker_0, # of connection points: 2
#     Edge 66, Type (0, 0), BuildingBlock: UVAHIK_clean_linker_0, # of connection points: 2
#     Edge 67, Type (0, 0), BuildingBlock: UVAHIK_clean_linker_0, # of connection points: 2
#     Edge 68, Type (0, 0), BuildingBlock: UVAHIK_clean_linker_0, # of connection points: 2
#     Edge 69, Type (0, 0), BuildingBlock: UVAHIK_clean_linker_0, # of connection points: 2
#     Edge 70, Type (0, 0), BuildingBlock: UVAHIK_clean_linker_0, # of connection points: 2
#     Edge 71, Type (0, 0), BuildingBlock: UVAHIK_clean_linker_0, # of connection points: 2
# Relax obj value: 0.414
# Max RMSD: 0.276
# Mean RMSD: 0.276
data_MOF--net-wmg--node1-VOLQOD_clean_sbu_1--edge1-UVAHIK_clean_linker_0
_symmetry_space_group_name_H-M    P1
_symmetry_Int_Tables_number       1
_symmetry_cell_setting            triclinic
loop_
_symmetry_equiv_pos_as_xyz
'x, y, z'
_cell_length_a     79.571933
_cell_length_b     79.540212
_cell_length_c     33.268561
_cell_angle_alpha  89.996128
_cell_angle_beta   89.988399
_cell_angle_gamma 119.9935
loop_
_atom_site_label
_atom_site_type_symbol
_atom_site_fract_x
_atom_site_fract_y
_atom_site_fract_z
_atom_type_partial_charge
O0 O 0.16598 0.28206 0.03289 0.0
Zn1 Zn 0.18108 0.2768 0.07378 0.0
O2 O 0.17494 0.24994 0.07229 0.0
Zn3 Zn 0.167 0.23885 0.12611 0.0
Zn4 Zn 0.15401 0.23589 0.03433 0.0
Zn5 Zn 0.19756 0.24869 0.0541 0.0
O6 O 0.18533 0.23048 0.14798 0.0
O7 O 0.20767 0.23988 0.09985 0.0
O8 O 0.177 0.28503 0.12782 0.0
O9 O 0.16846 0.25886 0.16498 0.0
O10 O 0.13882 0.21758 0.12707 0.0
O11 O 0.12971 0.21812 0.06405 0.0
O12 O 0.15967 0.21959 -0.00288 0.0
O13 O 0.20854 0.29442 0.05804 0.0
O14 O 0.19068 0.22944 0.00876 0.0
O15 O 0.21918 0.27507 0.0361 0.0
C16 C 0.15494 0.27211 0.00418 0.0
C17 C 0.20134 0.23273 0.13456 0.0
C18 C 0.12579 0.21173 0.09993 0.0
C19 C 0.1723 0.27636 0.16152 0.0
C20 C 0.17495 0.21884 0.98968 0.0
C21 C 0.22163 0.29201 0.04173 0.0
O22 O 0.14962 0.25421 1e-05 0.0
O23 O 0.70745 0.87861 0.03363 0.0
Zn24 Zn 0.7118 0.89871 0.07456 0.0
O25 O 0.73817 0.92029 0.0725 0.0
Zn26 Zn 0.74961 0.92488 0.12629 0.0
Zn27 Zn 0.75295 0.91406 0.03525 0.0
Zn28 Zn 0.73787 0.94305 0.05258 0.0
O29 O 0.75658 0.95164 0.14655 0.0
O30 O 0.74503 0.96203 0.09752 0.0
O31 O 0.70462 0.88652 0.12887 0.0
O32 O 0.73037 0.90577 0.16581 0.0
O33 O 0.77208 0.9197 0.12774 0.0
O34 O 0.77121 0.90857 0.0659 0.0
O35 O 0.76909 0.93633 -0.00133 0.0
O36 O 0.69286 0.90704 0.05889 0.0
O37 O 0.75756 0.95627 0.00829 0.0
O38 O 0.71119 0.9365 0.03335 0.0
C39 C 0.71763 0.87807 0.00473 0.0
C40 C 0.75268 0.96417 0.13213 0.0
C41 C 0.77805 0.91223 0.10146 0.0
C42 C 0.71336 0.89118 0.16251 0.0
C43 C 0.7691 0.95195 0.99058 0.0
C44 C 0.69456 0.92183 0.04048 0.0
O45 O 0.73533 0.89116 0.00053 0.0
O46 O 0.10532 0.81866 0.02647 0.0
Zn47 Zn 0.08689 0.80599 0.07201 0.0
O48 O 0.0672 0.81351 0.0721 0.0
Zn49 Zn 0.06567 0.82261 0.12566 0.0
Zn50 Zn 0.07358 0.83373 0.03267 0.0
Zn51 Zn 0.04276 0.7912 0.05681 0.0
O52 O 0.03994 0.80426 0.15184 0.0
O53 O 0.02582 0.78117 0.10543 0.0
O54 O 0.10168 0.81221 0.12356 0.0
O55 O 0.08591 0.82265 0.16167 0.0
O56 O 0.07205 0.85065 0.12434 0.0
O57 O 0.08191 0.8588 0.06101 0.0
O58 O 0.05044 0.82855 -0.00052 0.0
O59 O 0.07539 0.77763 0.0611 0.0
O60 O 0.02872 0.79836 0.01616 0.0
O61 O 0.04669 0.76971 0.03493 0.0
C62 C 0.10609 0.82939 -0.00265 0.0
C63 C 0.02604 0.78787 0.14033 0.0
C64 C 0.07953 0.86331 0.09647 0.0
C65 C 0.09929 0.81849 0.15696 0.0
C66 C 0.03359 0.81377 -0.00388 0.0
C67 C 0.06001 0.76572 0.04253 0.0
O68 O 0.09446 0.83598 0.99507 0.0
O69 O 0.82731 0.71278 0.96831 0.0
Zn70 Zn 0.8101 0.71559 0.92873 0.0
O71 O 0.81326 0.7414 0.93046 0.0
Zn72 Zn 0.81941 0.75263 0.87633 0.0
Zn73 Zn 0.83404 0.75721 0.96744 0.0
Zn74 Zn 0.78947 0.73966 0.95048 0.0
O75 O 0.79821 0.75744 0.85593 0.0
O76 O 0.77648 0.74529 0.9053 0.0
O77 O 0.8148 0.70843 0.87417 0.0
O78 O 0.82046 0.73389 0.83708 0.0
O79 O 0.84615 0.77658 0.87434 0.0
O80 O 0.85667 0.77751 0.93685 0.0
O81 O 0.82622 0.77126 0.00598 0.0
O82 O 0.78353 0.69559 0.94635 0.0
O83 O 0.79476 0.75904 0.99498 0.0
O84 O 0.77067 0.71266 0.97042 0.0
C85 C 0.83814 0.72351 -0.0035 0.0
C86 C 0.78153 0.75262 0.8703 0.0
C87 C 0.85933 0.78411 0.90112 0.0
C88 C 0.81854 0.71708 0.84045 0.0
C89 C 0.81025 0.77054 0.01389 0.0
C90 C 0.76992 0.69647 0.96447 0.0
O91 O 0.84169 0.74089 0.00067 0.0
O92 O 0.27991 0.11555 0.9647 0.0
Zn93 Zn 0.27649 0.09603 0.92324 0.0
O94 O 0.25045 0.07381 0.9242 0.0
Zn95 Zn 0.2393 0.06979 0.87016 0.0
Zn96 Zn 0.23499 0.07883 0.96213 0.0
Zn97 Zn 0.25152 0.05117 0.94253 0.0
O98 O 0.23255 0.04328 0.84889 0.0
O99 O 0.2442 0.03249 0.89694 0.0
O100 O 0.28389 0.10867 0.86948 0.0
O101 O 0.25871 0.08934 0.83125 0.0
O102 O 0.21642 0.07433 0.86931 0.0
O103 O 0.21592 0.08347 0.93236 0.0
O104 O 0.21983 0.05621 -0.00138 0.0
O105 O 0.29601 0.08844 0.9387 0.0
O106 O 0.23245 0.03731 0.9875 0.0
O107 O 0.27851 0.05814 0.96051 0.0
C108 C 0.26941 0.11532 0.99373 0.0
C109 C 0.23645 0.03062 0.86252 0.0
C110 C 0.2095 0.08049 0.89645 0.0
C111 C 0.27556 0.10411 0.83541 0.0
C112 C 0.22066 0.04097 0.00615 0.0
C113 C 0.29486 0.07343 0.95497 0.0
O114 O 0.25191 0.10169 -0.00249 0.0
O115 O 0.87902 0.17194 0.96722 0.0
Zn116 Zn 0.89736 0.18411 0.9215 0.0
O117 O 0.91859 0.17884 0.92473 0.0
Zn118 Zn 0.92161 0.16915 0.87281 0.0
Zn119 Zn 0.91295 0.15971 0.96621 0.0
Zn120 Zn 0.942 0.20257 0.93948 0.0
O121 O 0.94722 0.18819 0.84684 0.0
O122 O 0.95946 0.2121 0.89172 0.0
O123 O 0.88289 0.17527 0.86979 0.0
O124 O 0.90081 0.16641 0.83444 0.0
O125 O 0.91737 0.14196 0.87792 0.0
O126 O 0.90675 0.13446 0.94094 0.0
O127 O 0.93592 0.16754 0.0017 0.0
O128 O 0.90674 0.21236 0.92826 0.0
O129 O 0.95626 0.19816 0.98495 0.0
O130 O 0.93618 0.22379 0.95407 0.0
C131 C 0.87877 0.16224 -0.0022 0.0
C132 C 0.96022 0.20517 0.85771 0.0
C133 C 0.91018 0.12972 0.9066 0.0
C134 C 0.88627 0.16893 0.83751 0.0
C135 C 0.95193 0.18325 0.00639 0.0
C136 C 0.92187 0.22599 0.94467 0.0
O137 O 0.89116 0.15668 0.00196 0.0
O138 O 0.82906 0.61931 0.36659 0.0
Zn139 Zn 0.8442 0.61595 0.41029 0.0
O140 O 0.83962 0.58962 0.41136 0.0
Zn141 Zn 0.83194 0.57933 0.46573 0.0
Zn142 Zn 0.81933 0.57395 0.37303 0.0
Zn143 Zn 0.86312 0.58979 0.39525 0.0
O144 O 0.85088 0.57215 0.48971 0.0
O145 O 0.87354 0.58225 0.44215 0.0
O146 O 0.83849 0.62431 0.46269 0.0
O147 O 0.83207 0.59944 0.50245 0.0
O148 O 0.80417 0.55732 0.46653 0.0
O149 O 0.79491 0.55622 0.4029 0.0
O150 O 0.82628 0.55721 0.34 0.0
O151 O 0.87168 0.63474 0.39578 0.0
O152 O 0.85771 0.56994 0.35231 0.0
O153 O 0.88387 0.61631 0.37653 0.0
C154 C 0.8192 0.60874 0.33724 0.0
C155 C 0.86723 0.57509 0.47682 0.0
C156 C 0.79116 0.5505 0.43928 0.0
C157 C 0.83437 0.6163 0.49712 0.0
C158 C 0.84232 0.55772 0.33409 0.0
C159 C 0.88541 0.63295 0.38081 0.0
O160 O 0.81489 0.59104 0.33461 0.0
O161 O 0.37446 0.20896 0.36339 0.0
Zn162 Zn 0.37751 0.22831 0.40492 0.0
O163 O 0.4034 0.2508 0.40432 0.0
Zn164 Zn 0.41476 0.25458 0.45817 0.0
Zn165 Zn 0.41891 0.24641 0.36546 0.0
Zn166 Zn 0.40188 0.27335 0.38728 0.0
O167 O 0.41998 0.28034 0.4816 0.0
O168 O 0.40742 0.29076 0.43465 0.0
O169 O 0.37018 0.21545 0.45845 0.0
O170 O 0.39575 0.23415 0.49632 0.0
O171 O 0.43835 0.25101 0.45769 0.0
O172 O 0.43849 0.24223 0.39417 0.0
O173 O 0.43349 0.26929 0.32937 0.0
O174 O 0.35772 0.23544 0.3889 0.0
O175 O 0.42145 0.28841 0.34371 0.0
O176 O 0.37502 0.2658 0.36733 0.0
C177 C 0.38492 0.2096 0.3339 0.0
C178 C 0.41493 0.29238 0.46926 0.0
C179 C 0.44525 0.24521 0.42979 0.0
C180 C 0.3788 0.21953 0.4922 0.0
C181 C 0.43293 0.2848 0.32364 0.0
C182 C 0.35876 0.25031 0.37222 0.0
O183 O 0.40223 0.22359 0.32983 0.0
O184 O 0.78052 0.16353 0.36845 0.0
Zn185 Zn 0.76088 0.14572 0.4081 0.0
O186 O 0.73864 0.14958 0.40933 0.0
Zn187 Zn 0.73446 0.15504 0.46471 0.0
Zn188 Zn 0.74342 0.17114 0.37488 0.0
Zn189 Zn 0.71623 0.12644 0.3883 0.0
O190 O 0.70791 0.1346 0.48401 0.0
O191 O 0.69745 0.11344 0.4334 0.0
O192 O 0.77317 0.14902 0.46187 0.0
O193 O 0.75359 0.15358 0.50209 0.0
O194 O 0.73931 0.18253 0.47074 0.0
O195 O 0.74765 0.19366 0.40823 0.0
O196 O 0.72079 0.16477 0.33917 0.0
O197 O 0.7536 0.11916 0.38841 0.0
O198 O 0.70267 0.13274 0.34454 0.0
O199 O 0.72355 0.10744 0.36588 0.0
C200 C 0.78042 0.17488 0.34163 0.0
C201 C 0.69547 0.11834 0.4688 0.0
C202 C 0.74498 0.19615 0.44495 0.0
C203 C 0.76831 0.15154 0.49677 0.0
C204 C 0.70605 0.14878 0.32912 0.0
C205 C 0.73872 0.10608 0.37032 0.0
O206 O 0.76666 0.17865 0.33938 0.0
O207 O 0.48584 0.04112 0.29315 0.0
Zn208 Zn 0.47232 0.04675 0.24914 0.0
O209 O 0.48008 0.07412 0.24895 0.0
Zn210 Zn 0.48823 0.08417 0.19453 0.0
Zn211 Zn 0.50112 0.08814 0.28694 0.0
Zn212 Zn 0.45823 0.0768 0.26611 0.0
O213 O 0.4701 0.09237 0.17041 0.0
O214 O 0.44832 0.08497 0.21911 0.0
O215 O 0.4772 0.03759 0.19668 0.0
O216 O 0.48695 0.06348 0.15788 0.0
O217 O 0.51645 0.10524 0.19355 0.0
O218 O 0.52565 0.10504 0.25675 0.0
O219 O 0.49637 0.10573 0.32257 0.0
O220 O 0.4442 0.0302 0.26259 0.0
O221 O 0.46578 0.09704 0.30932 0.0
O222 O 0.43631 0.05137 0.28665 0.0
C223 C 0.4974 0.05118 0.32114 0.0
C224 C 0.45443 0.09101 0.18367 0.0
C225 C 0.52951 0.11112 0.22063 0.0
C226 C 0.48269 0.04592 0.16271 0.0
C227 C 0.48148 0.10741 0.32858 0.0
C228 C 0.43228 0.03396 0.28025 0.0
O229 O 0.50427 0.06947 0.32314 0.0
O230 O 0.9516 0.44326 0.29466 0.0
Zn231 Zn 0.94614 0.4252 0.24862 0.0
O232 O 0.91922 0.40453 0.24923 0.0
Zn233 Zn 0.90765 0.40359 0.19668 0.0
Zn234 Zn 0.90535 0.40926 0.29163 0.0
Zn235 Zn 0.91834 0.38023 0.26115 0.0
O236 O 0.90075 0.37855 0.16784 0.0
O237 O 0.91028 0.36387 0.21172 0.0
O238 O 0.95354 0.4404 0.1975 0.0
O239 O 0.92684 0.42489 0.16075 0.0
O240 O 0.88495 0.40831 0.20189 0.0
O241 O 0.88601 0.41515 0.26713 0.0
O242 O 0.89004 0.38585 0.3263 0.0
O243 O 0.96418 0.41486 0.25719 0.0
O244 O 0.89883 0.36509 0.30431 0.0
O245 O 0.94467 0.38463 0.27776 0.0
C246 C 0.9417 0.44347 0.32447 0.0
C247 C 0.90338 0.36453 0.1776 0.0
C248 C 0.87878 0.41346 0.2322 0.0
C249 C 0.94434 0.43841 0.16498 0.0
C250 C 0.88883 0.36931 0.32773 0.0
C251 C 0.96164 0.39895 0.27162 0.0
O252 O 0.92372 0.43105 0.32779 0.0
O253 O 0.54147 0.49807 0.2921 0.0
Zn254 Zn 0.56103 0.51374 0.25031 0.0
O255 O 0.58248 0.50868 0.25049 0.0
Zn256 Zn 0.58579 0.50134 0.19616 0.0
Zn257 Zn 0.57673 0.48768 0.28746 0.0
Zn258 Zn 0.60579 0.53168 0.26945 0.0
O259 O 0.61257 0.52017 0.17513 0.0
O260 O 0.6252 0.54181 0.22468 0.0
O261 O 0.54821 0.50916 0.19668 0.0
O262 O 0.56693 0.50269 0.15791 0.0
O263 O 0.57942 0.47326 0.19392 0.0
O264 O 0.57043 0.46371 0.25702 0.0
O265 O 0.59939 0.49368 0.3227 0.0
O266 O 0.56987 0.54114 0.26593 0.0
O267 O 0.61803 0.52564 0.31636 0.0
O268 O 0.60036 0.55301 0.28562 0.0
C269 C 0.54129 0.48734 0.32063 0.0
C270 C 0.6263 0.5359 0.1897 0.0
C271 C 0.57275 0.46008 0.22084 0.0
C272 C 0.55259 0.50541 0.16238 0.0
C273 C 0.61422 0.50963 0.33267 0.0
C274 C 0.58544 0.55479 0.28089 0.0
O275 O 0.55439 0.48267 0.32368 0.0
O276 O 0.50296 0.952 0.69588 0.0
Zn277 Zn 0.51669 0.94655 0.7398 0.0
O278 O 0.51023 0.91953 0.73826 0.0
Zn279 Zn 0.50136 0.90822 0.79169 0.0
Zn280 Zn 0.49023 0.90556 0.6983 0.0
Zn281 Zn 0.53311 0.91843 0.72218 0.0
O282 O 0.52054 0.90172 0.81688 0.0
O283 O 0.54318 0.91067 0.76948 0.0
O284 O 0.51024 0.95409 0.79253 0.0
O285 O 0.49998 0.92739 0.82899 0.0
O286 O 0.47396 0.88531 0.7897 0.0
O287 O 0.46592 0.88626 0.72588 0.0
O288 O 0.49714 0.89019 0.66094 0.0
O289 O 0.54478 0.96448 0.72777 0.0
O290 O 0.52736 0.89902 0.6779 0.0
O291 O 0.5542 0.94458 0.70308 0.0
C292 C 0.49177 0.94203 0.66734 0.0
C293 C 0.5368 0.90416 0.80453 0.0
C294 C 0.46165 0.87906 0.76111 0.0
C295 C 0.5038 0.94488 0.82538 0.0
C296 C 0.51239 0.88905 0.65628 0.0
C297 C 0.55731 0.96165 0.71002 0.0
O298 O 0.48575 0.92393 0.6641 0.0
O299 O 0.04167 0.54613 0.69567 0.0
Zn300 Zn 0.04415 0.56562 0.73642 0.0
O301 O 0.07006 0.58814 0.73617 0.0
Zn302 Zn 0.08122 0.59204 0.79028 0.0
Zn303 Zn 0.08587 0.58406 0.69748 0.0
Zn304 Zn 0.06854 0.61061 0.71899 0.0
O305 O 0.08678 0.618 0.81328 0.0
O306 O 0.07414 0.62808 0.76591 0.0
O307 O 0.03645 0.55306 0.79041 0.0
O308 O 0.06195 0.57198 0.82827 0.0
O309 O 0.10443 0.58791 0.79087 0.0
O310 O 0.10538 0.58009 0.72691 0.0
O311 O 0.10082 0.60713 0.66182 0.0
O312 O 0.02442 0.5727 0.71926 0.0
O313 O 0.08846 0.62592 0.67655 0.0
O314 O 0.04182 0.60327 0.69898 0.0
C315 C 0.05233 0.54672 0.6666 0.0
C316 C 0.08178 0.62999 0.80043 0.0
C317 C 0.1117 0.5826 0.76283 0.0
C318 C 0.04498 0.55742 0.8243 0.0
C319 C 0.10026 0.62268 0.65676 0.0
C320 C 0.02555 0.58774 0.7032 0.0
O321 O 0.06951 0.56092 0.66227 0.0
O322 O 0.4404 0.48676 0.69294 0.0
Zn323 Zn 0.42159 0.47247 0.73689 0.0
O324 O 0.40042 0.478 0.73596 0.0
Zn325 Zn 0.39781 0.48662 0.78949 0.0
Zn326 Zn 0.40574 0.49801 0.69658 0.0
Zn327 Zn 0.37683 0.45462 0.71987 0.0
O328 O 0.37276 0.46652 0.81525 0.0
O329 O 0.35945 0.44384 0.7678 0.0
O330 O 0.43583 0.47935 0.78922 0.0
O331 O 0.41896 0.48896 0.82604 0.0
O332 O 0.40103 0.51357 0.78804 0.0
O333 O 0.41004 0.52203 0.72438 0.0
O334 O 0.38318 0.49048 0.66002 0.0
O335 O 0.41228 0.44452 0.72484 0.0
O336 O 0.36239 0.45996 0.67639 0.0
O337 O 0.38273 0.43405 0.70039 0.0
C338 C 0.44114 0.49787 0.66465 0.0
C339 C 0.35937 0.44998 0.80313 0.0
C340 C 0.40679 0.52598 0.75962 0.0
C341 C 0.43297 0.48569 0.82209 0.0
C342 C 0.36696 0.47503 0.65532 0.0
C343 C 0.39708 0.43155 0.70735 0.0
O344 O 0.42861 0.50331 0.66177 0.0
O345 O 0.15159 0.37121 0.63028 0.0
Zn346 Zn 0.13793 0.37519 0.58423 0.0
O347 O 0.14293 0.40163 0.58343 0.0
Zn348 Zn 0.15179 0.41267 0.52994 0.0
Zn349 Zn 0.16229 0.4168 0.62345 0.0
Zn350 Zn 0.11919 0.40125 0.5973 0.0
O351 O 0.13207 0.41789 0.50252 0.0
O352 O 0.10814 0.40583 0.54741 0.0
O353 O 0.14574 0.3678 0.53322 0.0
O354 O 0.1542 0.3935 0.4945 0.0
O355 O 0.17898 0.43585 0.53197 0.0
O356 O 0.18711 0.43503 0.59573 0.0
O357 O 0.15458 0.43318 0.65549 0.0
O358 O 0.10991 0.35627 0.5946 0.0
O359 O 0.12409 0.42237 0.63698 0.0
O360 O 0.09916 0.37512 0.61908 0.0
C361 C 0.16148 0.3817 0.6597 0.0
C362 C 0.11474 0.41291 0.51281 0.0
C363 C 0.19148 0.44194 0.56025 0.0
C364 C 0.15166 0.37654 0.49978 0.0
C365 C 0.13895 0.43381 0.65766 0.0
C366 C 0.09685 0.35834 0.61211 0.0
O367 O 0.16632 0.39954 0.66196 0.0
O368 O 0.61705 0.7768 0.63149 0.0
Zn369 Zn 0.61258 0.75817 0.5871 0.0
O370 O 0.58556 0.73791 0.58566 0.0
Zn371 Zn 0.57548 0.7363 0.53148 0.0
Zn372 Zn 0.57082 0.7435 0.62447 0.0
Zn373 Zn 0.58392 0.7137 0.60093 0.0
O374 O 0.5689 0.71074 0.50529 0.0
O375 O 0.5782 0.6971 0.55211 0.0
O376 O 0.62174 0.77269 0.53524 0.0
O377 O 0.5959 0.75683 0.4962 0.0
O378 O 0.55339 0.74209 0.53153 0.0
O379 O 0.55385 0.75121 0.59505 0.0
O380 O 0.55289 0.71995 0.65695 0.0
O381 O 0.62983 0.74749 0.60148 0.0
O382 O 0.56221 0.69891 0.64001 0.0
O383 O 0.60909 0.71817 0.62507 0.0
C384 C 0.60672 0.77706 0.66039 0.0
C385 C 0.57188 0.69717 0.51697 0.0
C386 C 0.54745 0.74898 0.55917 0.0
C387 C 0.61337 0.77025 0.50143 0.0
C388 C 0.55118 0.70322 0.65977 0.0
C389 C 0.62638 0.73204 0.61976 0.0
O390 O 0.58867 0.76466 0.66268 0.0
O391 O 0.20927 0.83445 0.62412 0.0
Zn392 Zn 0.22899 0.85097 0.58321 0.0
O393 O 0.25084 0.84656 0.58438 0.0
Zn394 Zn 0.25539 0.83991 0.53035 0.0
Zn395 Zn 0.24586 0.82607 0.62214 0.0
Zn396 Zn 0.27317 0.86998 0.6034 0.0
O397 O 0.2812 0.86103 0.50841 0.0
O398 O 0.2906 0.88319 0.5569 0.0
O399 O 0.21646 0.84576 0.52924 0.0
O400 O 0.23519 0.83859 0.49215 0.0
O401 O 0.25203 0.81287 0.52903 0.0
O402 O 0.24203 0.80289 0.59167 0.0
O403 O 0.26851 0.83324 0.65856 0.0
O404 O 0.23664 0.8781 0.59983 0.0
O405 O 0.28829 0.86424 0.64405 0.0
O406 O 0.26555 0.8884 0.62747 0.0
C407 C 0.20895 0.82353 0.65239 0.0
C408 C 0.29276 0.87801 0.52196 0.0
C409 C 0.24576 0.79977 0.55612 0.0
C410 C 0.22066 0.84109 0.49573 0.0
C411 C 0.28447 0.84896 0.66356 0.0
C412 C 0.25095 0.89048 0.62047 0.0
O413 O 0.22244 0.81944 0.65637 0.0
C414 C 0.19573 0.09422 0.84731 0.0
C415 C 0.19544 0.08669 0.88568 0.0
C416 C 0.18641 0.10494 0.84071 0.0
C417 C 0.15556 0.12222 0.89052 0.0
H418 H 0.19649 0.17282 0.85581 0.0
C419 C 0.19067 0.20332 0.95126 0.0
C420 C 0.17408 0.20462 0.95984 0.0
C421 C 0.1894 0.18858 0.92651 0.0
C422 C 0.18478 0.15876 0.86515 0.0
H423 H 0.18323 0.08223 0.94557 0.0
H424 H 0.16709 0.10078 0.9343 0.0
H425 H 0.1986 0.14412 0.83983 0.0
H426 H 0.14335 0.19214 0.94705 0.0
H427 H 0.14119 0.16634 0.90389 0.0
H428 H 0.14271 0.13709 0.91914 0.0
C429 C 0.17446 0.09861 0.90918 0.0
C430 C 0.18584 0.14223 0.85552 0.0
C431 C 0.18389 0.0881 0.91584 0.0
C432 C 0.1564 0.19146 0.94137 0.0
C433 C 0.15512 0.17666 0.91665 0.0
C434 C 0.15455 0.13876 0.90029 0.0
C435 C 0.17652 0.10807 0.87227 0.0
C436 C 0.17185 0.12393 0.87024 0.0
C437 C 0.17152 0.17478 0.90974 0.0
C438 C 0.16975 0.15729 0.88973 0.0
H439 H 0.20448 0.09326 0.82344 0.0
H440 H 0.18803 0.11186 0.81181 0.0
H441 H 0.14438 0.10826 0.90165 0.0
H442 H 0.20454 0.21327 0.96479 0.0
H443 H 0.20227 0.1874 0.92235 0.0
C444 C 0.79836 0.96265 0.94678 0.0
C445 C 0.78385 0.966 0.96244 0.0
C446 C 0.81383 0.97704 0.9248 0.0
C447 C 0.8512 0.01569 0.91629 0.0
H448 H 0.84691 0.05365 0.85069 0.0
C449 C 0.90032 0.09658 0.93154 0.0
C450 C 0.90338 0.10903 0.89902 0.0
C451 C 0.8897 0.07653 0.92644 0.0
C452 C 0.84851 0.04301 0.86802 0.0
H453 H 0.77352 0.98658 0.96477 0.0
H454 H 0.80053 0.01169 0.92687 0.0
H455 H 0.81826 0.02217 0.86299 0.0
H456 H 0.89936 0.11034 0.83485 0.0
H457 H 0.88053 0.0751 0.82599 0.0
H458 H 0.88125 0.03693 0.92303 0.0
C459 C 0.79991 -0.00209 0.9313 0.0
C460 C 0.83202 0.02505 0.87546 0.0
C461 C 0.7845 0.98356 0.9534 0.0
C462 C 0.89716 0.10106 0.8605 0.0
C463 C 0.88631 0.08092 0.85544 0.0
C464 C 0.86768 0.03366 0.90888 0.0
C465 C 0.81504 0.99503 0.9178 0.0
C466 C 0.83301 0.01163 0.90136 0.0
C467 C 0.88178 0.0685 0.88874 0.0
C468 C 0.86628 0.04786 0.88643 0.0
H469 H 0.79823 0.94921 0.95288 0.0
H470 H 0.82518 0.97435 0.91444 0.0
H471 H 0.85246 0.00567 0.9364 0.0
H472 H 0.90511 0.10234 0.96151 0.0
H473 H 0.88636 0.06741 0.9528 0.0
C474 C 0.88906 0.79487 0.86054 0.0
C475 C 0.8791 0.799 0.89013 0.0
C476 C 0.90934 0.8047 0.86053 0.0
C477 C 0.95324 0.82518 0.87099 0.0
H478 H 0.96381 0.82195 0.98369 0.0
C479 C 0.02364 0.83204 0.94928 0.0
C480 C 0.01883 0.81515 0.97156 0.0
C481 C 0.0091 0.83439 0.93102 0.0
C482 C 0.96118 0.82319 0.95216 0.0
H483 H 0.88199 0.81838 0.93861 0.0
H484 H 0.91736 0.8364 0.93708 0.0
H485 H 0.93435 0.82175 0.96489 0.0
H486 H -0.00488 0.78699 0.9898 0.0
H487 H 0.96989 0.79132 0.95854 0.0
H488 H 0.97996 0.82544 0.85898 0.0
C489 C 0.9097 0.82507 0.91502 0.0
C490 C 0.9444 0.82333 0.94124 0.0
C491 C 0.88947 0.8149 0.91574 0.0
C492 C -0.00064 0.80022 0.97315 0.0
C493 C 0.98489 0.80266 0.95529 0.0
C494 C 0.97024 0.82518 0.88209 0.0
C495 C 0.91981 0.81894 0.88982 0.0
C496 C 0.93983 0.82363 0.90048 0.0
C497 C 0.98961 0.81995 0.9351 0.0
C498 C 0.97385 0.82343 0.92271 0.0
H499 H 0.88127 0.78256 0.84064 0.0
H500 H 0.91661 0.79961 0.84061 0.0
H501 H 0.95019 0.82554 0.83938 0.0
H502 H 0.03853 0.84377 0.94727 0.0
H503 H 0.01295 0.84784 0.91559 0.0
C504 C 0.79343 0.7857 0.04972 0.0
C505 C 0.81014 0.78428 0.04376 0.0
C506 C 0.79412 0.80037 0.07394 0.0
C507 C 0.82894 0.84989 0.10287 0.0
H508 H 0.78385 0.84562 0.15704 0.0
C509 C 0.78994 0.89713 0.15147 0.0
C510 C 0.79129 0.90516 0.11317 0.0
C511 C 0.79816 0.88543 0.1586 0.0
C512 C 0.79685 0.84714 0.1431 0.0
H513 H 0.84032 0.79624 0.0611 0.0
H514 H 0.84145 0.82178 0.10339 0.0
H515 H 0.78524 0.81639 0.14208 0.0
H516 H 0.80416 0.90935 0.05402 0.0
H517 H 0.81858 0.88923 0.06636 0.0
H518 H 0.8401 0.88058 0.1021 0.0
C519 C 0.82791 0.81173 0.08884 0.0
C520 C 0.79751 0.83035 0.13404 0.0
C521 C 0.82723 0.79708 0.0646 0.0
C522 C 0.80278 0.90317 0.0837 0.0
C523 C 0.81117 0.89174 0.09095 0.0
C524 C 0.8283 0.86668 0.11198 0.0
C525 C 0.81153 0.8139 0.09282 0.0
C526 C 0.81307 0.83149 0.11187 0.0
C527 C 0.80805 0.88187 0.1277 0.0
C528 C 0.81175 0.86539 0.13012 0.0
H529 H 0.78001 0.77604 0.03429 0.0
H530 H 0.78128 0.80176 0.07592 0.0
H531 H 0.84118 0.85131 0.08579 0.0
H532 H 0.78114 0.89845 0.17472 0.0
H533 H 0.79569 0.87815 0.18732 0.0
C534 C 0.20623 0.009 0.04186 0.0
C535 C 0.20675 0.02669 0.03522 0.0
C536 C 0.19159 0.99457 0.06535 0.0
C537 C 0.14113 0.97735 0.09071 0.0
H538 H 0.14716 0.9382 0.14781 0.0
C539 C 0.09568 0.89149 0.14367 0.0
C540 C 0.08756 0.88405 0.10578 0.0
C541 C 0.10738 0.91154 0.14921 0.0
C542 C 0.14513 0.94918 0.13296 0.0
H543 H 0.19308 0.04363 0.05051 0.0
H544 H 0.16755 0.0184 0.09154 0.0
H545 H 0.17563 0.96953 0.13327 0.0
H546 H 0.0835 0.89159 0.04539 0.0
H547 H 0.10364 0.92635 0.05499 0.0
H548 H 0.11075 0.95665 0.08875 0.0
C549 C 0.17833 0.01562 0.0781 0.0
C550 C 0.16149 0.96705 0.12417 0.0
C551 C 0.19299 0.03007 0.0546 0.0
C552 C 0.08974 0.89696 0.07481 0.0
C553 C 0.10116 0.91691 0.08047 0.0
C554 C 0.12478 0.95949 0.09954 0.0
C555 C 0.17715 -0.00249 0.0828 0.0
C556 C 0.15976 0.98091 0.10112 0.0
C557 C 0.11083 0.92438 0.11713 0.0
C558 C 0.12675 0.94486 0.11883 0.0
H559 H 0.21665 0.00594 0.02758 0.0
H560 H 0.19098 0.9807 0.06789 0.0
H561 H 0.13926 0.98769 0.0729 0.0
H562 H 0.09422 0.88183 0.16806 0.0
H563 H 0.11455 0.91693 0.17786 0.0
C564 C 0.09182 0.18798 0.08112 0.0
C565 C 0.1052 0.1994 0.1108 0.0
C566 C 0.07202 0.18053 0.08715 0.0
C567 C 0.02982 0.16504 0.10651 0.0
H568 H 0.02417 0.20964 0.13104 0.0
C569 C 0.96174 0.16701 0.0584 0.0
C570 C 0.96614 0.18364 0.03564 0.0
C571 C 0.97587 0.16651 0.0824 0.0
C572 C 0.02543 0.19697 0.12456 0.0
H573 H 0.10838 0.21046 0.17154 0.0
H574 H 0.0736 0.19759 0.18194 0.0
H575 H 0.05433 0.21034 0.14764 0.0
H576 H 0.9885 0.2132 0.02234 0.0
H577 H 0.0132 0.21223 0.0637 0.0
H578 H 0.00154 0.1523 0.08045 0.0
C579 C 0.07847 0.19442 0.15403 0.0
C580 C 0.04261 0.19725 0.13454 0.0
C581 C 0.09834 0.20167 0.14817 0.0
C582 C 0.98464 0.20013 0.03929 0.0
C583 C -0.00124 0.19963 0.06333 0.0
C584 C 0.01263 0.16475 0.09656 0.0
C585 C 0.06523 0.18457 0.12282 0.0
C586 C 0.04534 0.18169 0.12371 0.0
C587 C -0.00531 0.18263 0.08427 0.0
C588 C 0.01066 0.18111 0.10367 0.0
H589 H 0.09674 0.18592 0.05214 0.0
H590 H 0.06226 0.17312 0.06237 0.0
H591 H 0.03146 0.15277 0.09819 0.0
H592 H 0.94755 0.1541 0.05667 0.0
H593 H 0.97224 0.15329 0.09855 0.0
C594 C 0.85973 0.54139 0.30676 0.0
C595 C 0.84273 0.54258 0.30894 0.0
C596 C 0.85938 0.52533 0.28915 0.0
C597 C 0.84605 0.48235 0.29142 0.0
H598 H 0.83351 0.46167 0.18308 0.0
C599 C 0.85111 0.41639 0.2576 0.0
C600 C 0.86455 0.41991 0.22689 0.0
C601 C 0.84183 0.42727 0.25983 0.0
C602 C 0.83682 0.46721 0.21352 0.0
H603 H 0.81243 0.52866 0.29112 0.0
H604 H 0.81199 0.50052 0.26001 0.0
H605 H 0.83202 0.49101 0.20062 0.0
H606 H 0.87726 0.43584 0.17194 0.0
H607 H 0.86155 0.45547 0.1766 0.0
H608 H 0.85144 0.45931 0.30465 0.0
C609 C 0.82546 0.51205 0.27225 0.0
C610 C 0.83596 0.4839 0.22346 0.0
C611 C 0.82574 0.52809 0.29023 0.0
C612 C 0.86691 0.43288 0.19588 0.0
C613 C 0.85787 0.44408 0.19853 0.0
C614 C 0.84667 0.46569 0.28175 0.0
C615 C 0.84211 0.51026 0.27301 0.0
C616 C 0.84108 0.49181 0.26226 0.0
C617 C 0.84625 0.44221 0.232 0.0
C618 C 0.84242 0.45809 0.24255 0.0
H619 H 0.87311 0.55233 0.32048 0.0
H620 H 0.87243 0.52425 0.28974 0.0
H621 H 0.84989 0.48813 0.32163 0.0
H622 H 0.84891 0.40626 0.28157 0.0
H623 H 0.83255 0.4252 0.28541 0.0
C624 C 0.55522 0.43233 0.17331 0.0
C625 C 0.56514 0.43961 0.20977 0.0
C626 C 0.54318 0.4123 0.16807 0.0
C627 C 0.52679 0.36417 0.21667 0.0
H628 H 0.47531 0.35621 0.1965 0.0
C629 C 0.4591 0.29523 0.27167 0.0
C630 C 0.44651 0.29918 0.29429 0.0
C631 C 0.47318 0.30943 0.24678 0.0
C632 C 0.48959 0.35812 0.20186 0.0
H633 H 0.57221 0.43187 0.26717 0.0
H634 H 0.5515 0.39717 0.2581 0.0
H635 H 0.50367 0.38675 0.17723 0.0
H636 H 0.43821 0.32081 0.30679 0.0
H637 H 0.46295 0.34565 0.26407 0.0
H638 H 0.51272 0.33622 0.24444 0.0
C639 C 0.55279 0.40667 0.23351 0.0
C640 C 0.50587 0.37552 0.19028 0.0
C641 C 0.56458 0.4266 0.2389 0.0
C642 C 0.4477 0.3173 0.28993 0.0
C643 C 0.46179 0.3315 0.26508 0.0
C644 C 0.51051 0.34678 0.22834 0.0
C645 C 0.54114 0.39935 0.19902 0.0
C646 C 0.52463 0.37912 0.19951 0.0
C647 C 0.47498 0.32788 0.24393 0.0
C648 C 0.49176 0.344 0.2229 0.0
H649 H 0.55541 0.44209 0.15038 0.0
H650 H 0.53451 0.40704 0.14101 0.0
H651 H 0.54107 0.36644 0.22369 0.0
H652 H 0.45844 0.28134 0.27394 0.0
H653 H 0.48297 0.30613 0.23053 0.0
C654 C 0.56317 0.1368 0.23685 0.0
C655 C 0.55004 0.12317 0.20942 0.0
C656 C 0.58309 0.1445 0.2317 0.0
C657 C 0.61213 0.12502 0.20754 0.0
H658 H 0.65588 0.17678 0.22311 0.0
C659 C 0.68266 0.13401 0.27233 0.0
C660 C 0.69212 0.149 0.3004 0.0
C661 C 0.66856 0.13371 0.24684 0.0
C662 C 0.64383 0.16219 0.21911 0.0
H663 H 0.54725 0.10796 0.15358 0.0
H664 H 0.58221 0.12083 0.14558 0.0
H665 H 0.62452 0.17261 0.20292 0.0
H666 H 0.69478 0.17566 0.32346 0.0
H667 H 0.66925 0.17445 0.28164 0.0
H668 H 0.63026 0.11425 0.22794 0.0
C669 C 0.57707 0.12589 0.17037 0.0
C670 C 0.62598 0.15989 0.20692 0.0
C671 C 0.55714 0.11858 0.17495 0.0
C672 C 0.68768 0.16396 0.3019 0.0
C673 C 0.67314 0.16334 0.27743 0.0
C674 C 0.62974 0.12726 0.22083 0.0
C675 C 0.59009 0.13829 0.19961 0.0
C676 C 0.60988 0.14126 0.20221 0.0
C677 C 0.66308 0.148 0.24997 0.0
C678 C 0.64569 0.14587 0.22828 0.0
H679 H 0.55799 0.14052 0.26364 0.0
H680 H 0.59286 0.15388 0.25485 0.0
H681 H 0.5998 0.11048 0.2047 0.0
H682 H 0.68613 0.12249 0.2702 0.0
H683 H 0.66167 0.12198 0.22535 0.0
C684 C 0.46602 0.12335 0.3663 0.0
C685 C 0.48265 0.1222 0.35725 0.0
C686 C 0.46731 0.13824 0.39057 0.0
C687 C 0.50159 0.1884 0.41618 0.0
H688 H 0.45795 0.18177 0.48006 0.0
C689 C 0.45974 0.23127 0.47666 0.0
C690 C 0.45974 0.23937 0.43914 0.0
C691 C 0.46934 0.22068 0.48142 0.0
C692 C 0.4706 0.18403 0.46338 0.0
H693 H 0.5136 0.13533 0.36824 0.0
H694 H 0.51582 0.16146 0.41058 0.0
H695 H 0.46055 0.15356 0.46205 0.0
H696 H 0.47173 0.245 0.37895 0.0
H697 H 0.48831 0.22667 0.38699 0.0
H698 H 0.5112 0.2188 0.41611 0.0
C699 C 0.50181 0.15085 0.39864 0.0
C700 C 0.47193 0.16778 0.45257 0.0
C701 C 0.5005 0.13585 0.37444 0.0
C702 C 0.4713 0.23868 0.40806 0.0
C703 C 0.48098 0.22828 0.41286 0.0
C704 C 0.50031 0.20468 0.42716 0.0
C705 C 0.48527 0.15239 0.40639 0.0
C706 C 0.4868 0.16968 0.42689 0.0
C707 C 0.4792 0.21822 0.44882 0.0
C708 C 0.48417 0.20253 0.44881 0.0
H709 H 0.45203 0.11305 0.35375 0.0
H710 H 0.45433 0.13917 0.39532 0.0
H711 H 0.5133 0.1904 0.39653 0.0
H712 H 0.45098 0.23165 0.5012 0.0
H713 H 0.46795 0.21334 0.50968 0.0
C714 C 0.74572 0.22727 0.43519 0.0
C715 C 0.75148 0.21611 0.45769 0.0
C716 C 0.75719 0.24744 0.43472 0.0
C717 C 0.80428 0.28953 0.46904 0.0
H718 H 0.81246 0.29772 0.35404 0.0
C719 C 0.86926 0.33471 0.34947 0.0
C720 C 0.87423 0.3542 0.35444 0.0
C721 C 0.85353 0.32005 0.3702 0.0
C722 C 0.81025 0.29571 0.38623 0.0
H723 H 0.77217 0.21701 0.50102 0.0
H724 H 0.7927 0.25224 0.49911 0.0
H725 H 0.78371 0.26922 0.37875 0.0
H726 H 0.86751 0.37368 0.38741 0.0
H727 H 0.84002 0.34781 0.42409 0.0
H728 H 0.83162 0.31601 0.47568 0.0
C729 C 0.77918 0.24562 0.48253 0.0
C730 C 0.79363 0.27952 0.40052 0.0
C731 C 0.76742 0.22541 0.48368 0.0
C732 C 0.86393 0.35878 0.38268 0.0
C733 C 0.84829 0.34406 0.40382 0.0
C734 C 0.82095 0.30598 0.45457 0.0
C735 C 0.77492 0.25664 0.45563 0.0
C736 C 0.79064 0.27593 0.44205 0.0
C737 C 0.84262 0.32457 0.39666 0.0
C738 C 0.82427 0.30878 0.41301 0.0
H739 H 0.73342 0.22032 0.41501 0.0
H740 H 0.75327 0.25562 0.41456 0.0
H741 H 0.80237 0.28712 0.50117 0.0
H742 H 0.8769 0.33066 0.32815 0.0
H743 H 0.84944 0.30506 0.3645 0.0
C744 C 0.63706 0.52422 0.39036 0.0
C745 C 0.62789 0.50933 0.36197 0.0
C746 C 0.65111 0.52457 0.41609 0.0
C747 C 0.67668 0.49673 0.44285 0.0
H748 H 0.72003 0.54878 0.45792 0.0
C749 C 0.75771 0.52425 0.423 0.0
C750 C 0.77072 0.53788 0.45061 0.0
C751 C 0.73775 0.51596 0.42861 0.0
C752 C 0.70789 0.53414 0.45489 0.0
H753 H 0.6256 0.48287 0.33866 0.0
H754 H 0.65107 0.48421 0.3808 0.0
H755 H 0.68927 0.54446 0.43549 0.0
H756 H 0.77324 0.55239 0.50731 0.0
H757 H 0.7382 0.5385 0.51613 0.0
H758 H 0.69654 0.48682 0.45793 0.0
C759 C 0.647 0.49519 0.38514 0.0
C760 C 0.69009 0.53158 0.44208 0.0
C761 C 0.63249 0.49449 0.36047 0.0
C762 C 0.76348 0.54182 0.48572 0.0
C763 C 0.74349 0.53391 0.49079 0.0
C764 C 0.69473 0.49937 0.45452 0.0
C765 C 0.65685 0.51047 0.41281 0.0
C766 C 0.67439 0.51286 0.43434 0.0
C767 C 0.73056 0.52156 0.4614 0.0
C768 C 0.71058 0.51813 0.45943 0.0
H769 H 0.63345 0.53564 0.39246 0.0
H770 H 0.6578 0.53623 0.43777 0.0
H771 H 0.66483 0.48205 0.43867 0.0
H772 H 0.76299 0.52098 0.39576 0.0
H773 H 0.72803 0.50663 0.40535 0.0
C774 C 0.53555 0.76512 0.51161 0.0
C775 C 0.53446 0.7566 0.54924 0.0
C776 C 0.52702 0.77665 0.50597 0.0
C777 C 0.527 0.81413 0.52367 0.0
H778 H 0.48247 0.80801 0.58349 0.0
C779 C 0.52916 0.87393 0.62029 0.0
C780 C 0.51234 0.87511 0.62672 0.0
C781 C 0.52862 0.85948 0.59566 0.0
C782 C 0.49473 0.80996 0.56574 0.0
H783 H 0.52183 0.75153 0.60881 0.0
H784 H 0.50696 0.77141 0.59909 0.0
H785 H 0.48458 0.77945 0.56546 0.0
H786 H 0.482 0.86271 0.61033 0.0
H787 H 0.4811 0.83738 0.56742 0.0
H788 H 0.53762 0.84471 0.5257 0.0
C789 C 0.51437 0.76938 0.57387 0.0
C790 C 0.49598 0.79358 0.55565 0.0
C791 C 0.52305 0.7581 0.57963 0.0
C792 C 0.4952 0.86211 0.60629 0.0
C793 C 0.49465 0.84759 0.58173 0.0
C794 C 0.52573 0.83051 0.5337 0.0
C795 C 0.51707 0.77957 0.5377 0.0
C796 C 0.51266 0.79561 0.53658 0.0
C797 C 0.51125 0.84584 0.5769 0.0
C798 C 0.51011 0.82865 0.5568 0.0
H799 H 0.54426 0.76416 0.48764 0.0
H800 H 0.52918 0.7842 0.47766 0.0
H801 H 0.54006 0.81623 0.509 0.0
H802 H 0.54263 0.88376 0.63534 0.0
H803 H 0.54161 0.85838 0.5931 0.0
C804 C 0.11753 0.65689 0.63181 0.0
C805 C 0.11497 0.6381 0.63072 0.0
C806 C 0.1335 0.67225 0.61312 0.0
C807 C 0.17703 0.69964 0.60941 0.0
H808 H 0.19366 0.70793 0.49797 0.0
C809 C 0.244 0.76869 0.57286 0.0
C810 C 0.23986 0.77964 0.5458 0.0
C811 C 0.23263 0.74852 0.57321 0.0
C812 C 0.18927 0.70562 0.52923 0.0
H813 H 0.12625 0.6204 0.60608 0.0
H814 H 0.15419 0.64745 0.57306 0.0
H815 H 0.16365 0.67812 0.51739 0.0
H816 H 0.22239 0.77834 0.49477 0.0
H817 H 0.202 0.74303 0.49618 0.0
H818 H 0.20192 0.727 0.62175 0.0
C819 C 0.14382 0.65015 0.5887 0.0
C820 C 0.17218 0.68867 0.54024 0.0
C821 C 0.12791 0.63475 0.60779 0.0
C822 C 0.22588 0.77011 0.51576 0.0
C823 C 0.2142 0.74988 0.51661 0.0
C824 C 0.19409 0.7163 0.59864 0.0
C825 C 0.14709 0.6691 0.59259 0.0
C826 C 0.16574 0.68589 0.58029 0.0
C827 C 0.2166 0.73909 0.54729 0.0
C828 C 0.20027 0.71971 0.55836 0.0
H829 H 0.10781 0.65998 0.64894 0.0
H830 H 0.13574 0.68679 0.61621 0.0
H831 H 0.17242 0.69767 0.64055 0.0
H832 H 0.25481 0.7758 0.59616 0.0
H833 H 0.2351 0.74049 0.59655 0.0
C834 C 0.21985 0.45476 0.51353 0.0
C835 C 0.21212 0.45532 0.55117 0.0
C836 C 0.23992 0.46314 0.50862 0.0
C837 C 0.28754 0.49263 0.56034 0.0
H838 H 0.29614 0.45064 0.52835 0.0
C839 C 0.35682 0.4923 0.60654 0.0
C840 C 0.35277 0.47511 0.62667 0.0
C841 C 0.34262 0.49304 0.58316 0.0
C842 C 0.29406 0.46261 0.53693 0.0
H843 H 0.21921 0.46701 0.61155 0.0
H844 H 0.25403 0.48167 0.60306 0.0
H845 H 0.26552 0.44896 0.51199 0.0
H846 H 0.33103 0.4449 0.63595 0.0
H847 H 0.30625 0.44623 0.59556 0.0
H848 H 0.31546 0.50551 0.58813 0.0
C849 C 0.24478 0.47475 0.57731 0.0
C850 C 0.27661 0.46179 0.52712 0.0
C851 C 0.22479 0.46621 0.58233 0.0
C852 C 0.3346 0.45839 0.62105 0.0
C853 C 0.32044 0.45912 0.59756 0.0
C854 C 0.305 0.49346 0.57011 0.0
C855 C 0.25251 0.4724 0.54112 0.0
C856 C 0.27278 0.47631 0.54056 0.0
C857 C 0.32413 0.47657 0.57921 0.0
C858 C 0.30801 0.47797 0.56027 0.0
H859 H 0.21039 0.44646 0.48896 0.0
H860 H 0.24551 0.46129 0.48028 0.0
H861 H 0.28505 0.50413 0.57068 0.0
H862 H 0.37073 0.50543 0.60994 0.0
H863 H 0.34593 0.50664 0.5691 0.0
C864 C 0.12081 0.56167 0.80133 0.0
C865 C 0.12559 0.57611 0.77215 0.0
C866 C 0.12888 0.54959 0.79927 0.0
C867 C 0.14193 0.52996 0.71541 0.0
H868 H 0.1481 0.4977 0.79469 0.0
C869 C 0.15444 0.46136 0.70688 0.0
C870 C 0.13867 0.44927 0.68188 0.0
C871 C 0.15539 0.47762 0.72529 0.0
C872 C 0.14653 0.50673 0.77236 0.0
H873 H 0.14455 0.5914 0.72223 0.0
H874 H 0.15933 0.57097 0.71977 0.0
H875 H 0.14909 0.52784 0.81596 0.0
H876 H 0.11097 0.44411 0.65877 0.0
H877 H 0.11282 0.47259 0.69045 0.0
H878 H 0.13864 0.50871 0.67213 0.0
C879 C 0.14891 0.56845 0.74329 0.0
C880 C 0.14711 0.52391 0.78444 0.0
C881 C 0.14058 0.58023 0.74484 0.0
C882 C 0.12337 0.45315 0.67758 0.0
C883 C 0.12444 0.46947 0.69561 0.0
C884 C 0.14113 0.51283 0.70356 0.0
C885 C 0.14194 0.55204 0.76827 0.0
C886 C 0.14456 0.53556 0.75605 0.0
C887 C 0.14069 0.48212 0.71864 0.0
C888 C 0.143 0.50086 0.73194 0.0
H889 H 0.10917 0.55819 0.82253 0.0
H890 H 0.12325 0.53711 0.81903 0.0
H891 H 0.13949 0.53832 0.69282 0.0
H892 H 0.1664 0.45867 0.71107 0.0
H893 H 0.16806 0.4872 0.74293 0.0
C894 C 0.53113 0.66868 0.68139 0.0
C895 C 0.53498 0.68793 0.68337 0.0
C896 C 0.51434 0.65371 0.69854 0.0
C897 C 0.47051 0.62786 0.70138 0.0
H898 H 0.45573 0.61827 0.81376 0.0
C899 C 0.40702 0.5561 0.74014 0.0
C900 C 0.4122 0.54619 0.76781 0.0
C901 C 0.41721 0.57632 0.73896 0.0
C902 C 0.45956 0.62091 0.78224 0.0
H903 H 0.52486 0.7067 0.70751 0.0
H904 H 0.49541 0.68023 0.73801 0.0
H905 H 0.48512 0.64847 0.7939 0.0
H906 H 0.43044 0.54929 0.81872 0.0
H907 H 0.44894 0.58466 0.81562 0.0
H908 H 0.44596 0.60028 0.68918 0.0
C909 C 0.50546 0.67694 0.7228 0.0
C910 C 0.47628 0.63815 0.77097 0.0
C911 C 0.52225 0.692 0.70522 0.0
C912 C 0.42618 0.55671 0.79724 0.0
C913 C 0.43674 0.57699 0.79546 0.0
C914 C 0.45385 0.61085 0.71245 0.0
C915 C 0.50114 0.65766 0.7184 0.0
C916 C 0.48216 0.64134 0.73058 0.0
C917 C 0.43321 0.5869 0.76448 0.0
C918 C 0.44845 0.60684 0.75312 0.0
H919 H 0.54064 0.66501 0.66508 0.0
H920 H 0.51129 0.6389 0.69513 0.0
H921 H 0.47475 0.63014 0.67001 0.0
H922 H 0.39615 0.54819 0.71735 0.0
H923 H 0.41378 0.58357 0.71551 0.0
C924 C 0.43134 0.86835 0.80004 0.0
C925 C 0.44122 0.86487 0.76914 0.0
C926 C 0.41111 0.85959 0.79879 0.0
C927 C 0.37757 0.84717 0.71672 0.0
H928 H 0.3394 0.83767 0.79933 0.0
C929 C 0.29612 0.83198 0.70983 0.0
C930 C 0.29964 0.84889 0.68911 0.0
C931 C 0.31139 0.83091 0.72811 0.0
C932 C 0.34993 0.84015 0.77609 0.0
H933 H 0.43801 0.84755 0.71649 0.0
H934 H 0.4027 0.83156 0.71531 0.0
H935 H 0.36938 0.83747 0.81698 0.0
H936 H 0.32164 0.87843 0.67427 0.0
H937 H 0.3482 0.87636 0.70558 0.0
H938 H 0.35872 0.85068 0.67626 0.0
C939 C 0.41045 0.84151 0.73964 0.0
C940 C 0.367 0.84003 0.78609 0.0
C941 C 0.43063 0.85056 0.74038 0.0
C942 C 0.31843 0.86513 0.6896 0.0
C943 C 0.33364 0.86398 0.70752 0.0
C944 C 0.36078 0.84752 0.70697 0.0
C945 C 0.40065 0.84713 0.76686 0.0
C946 C 0.38112 0.84385 0.75651 0.0
C947 C 0.33034 0.84667 0.72565 0.0
C948 C 0.34706 0.84446 0.73664 0.0
H949 H 0.4393 0.87942 0.82244 0.0
H950 H 0.40399 0.8642 0.82025 0.0
H951 H 0.38826 0.85059 0.6933 0.0
H952 H 0.28177 0.81925 0.71029 0.0
H953 H 0.3086 0.81741 0.74191 0.0
C954 C 0.15621 0.30199 0.97702 0.0
C955 C 0.15084 0.28238 0.97205 0.0
C956 C 0.15621 0.31296 0.94432 0.0
C957 C 0.13997 0.31004 0.83899 0.0
H958 H 0.18702 0.36011 0.82932 0.0
C959 C 0.15976 0.35245 0.69143 0.0
C960 C 0.16481 0.37206 0.69429 0.0
C961 C 0.15906 0.34205 0.72571 0.0
C962 C 0.17375 0.34624 0.83178 0.0
H963 H 0.13991 0.25855 0.92947 0.0
H964 H 0.14005 0.27773 0.87235 0.0
H965 H 0.18155 0.34055 0.88956 0.0
H966 H 0.17446 0.3965 0.735 0.0
H967 H 0.17327 0.37827 0.79497 0.0
H968 H 0.13228 0.31566 0.781 0.0
C969 C 0.1442 0.28462 0.90156 0.0
C970 C 0.17055 0.33508 0.86633 0.0
C971 C 0.14412 0.27361 0.93433 0.0
C972 C 0.1705 0.38141 0.73177 0.0
C973 C 0.16981 0.37097 0.76613 0.0
C974 C 0.1432 0.32118 0.80442 0.0
C975 C 0.15088 0.30456 0.90596 0.0
C976 C 0.15365 0.31682 0.87023 0.0
C977 C 0.16343 0.35103 0.76357 0.0
C978 C 0.16018 0.33933 0.80035 0.0
H979 H 0.16125 0.30914 0.00581 0.0
H980 H 0.16098 0.32818 0.94882 0.0
H981 H 0.12671 0.29616 0.84133 0.0
H982 H 0.1555 0.34485 0.66295 0.0
H983 H 0.15455 0.32681 0.72274 0.0
C984 C 0.71637 0.86645 0.93427 0.0
C985 C 0.70764 0.86382 0.97223 0.0
C986 C 0.7054 0.85581 0.90119 0.0
C987 C 0.65496 0.832 0.86662 0.0
H988 H 0.67394 0.81388 0.77907 0.0
C989 C 0.60762 0.78669 0.73239 0.0
C990 C 0.61669 0.79013 0.69463 0.0
C991 C 0.61838 0.79635 0.7665 0.0
C992 C 0.66854 0.81911 0.80308 0.0
H993 H 0.68103 0.84664 0.00599 0.0
H994 H 0.66206 0.8279 0.94843 0.0
H995 H 0.69375 0.82733 0.8392 0.0
H996 H 0.64374 0.80762 0.66251 0.0
H997 H 0.66233 0.82465 0.72181 0.0
H998 H 0.62979 0.82385 0.83043 0.0
C999 C 0.67722 0.83857 0.94403 0.0
C1000 C 0.67985 0.82671 0.83756 0.0
C1001 C 0.68815 0.84921 0.97705 0.0
C1002 C 0.63636 0.80445 0.69123 0.0
C1003 C 0.64707 0.8141 0.72524 0.0
C1004 C 0.64365 0.82439 0.83215 0.0
C1005 C 0.68553 0.8423 0.90551 0.0
C1006 C 0.6732 0.83328 0.86966 0.0
C1007 C 0.63837 0.80965 0.7634 0.0
C1008 C 0.65037 0.81796 0.79993 0.0
H1009 H 0.73134 0.87758 0.92951 0.0
H1010 H 0.71222 0.85902 0.87185 0.0
H1011 H 0.6496 0.8373 0.89055 0.0
H1012 H 0.5925 0.77573 0.73605 0.0
H1013 H 0.61127 0.79261 0.79553 0.0
C1014 C 0.19679 0.81158 0.72192 0.0
C1015 C 0.19433 0.81828 0.6845 0.0
C1016 C 0.18571 0.81101 0.75501 0.0
C1017 C 0.16169 0.83687 0.79169 0.0
H1018 H 0.14217 0.79807 0.87605 0.0
C1019 C 0.11617 0.83827 0.92564 0.0
C1020 C 0.11892 0.83181 0.96307 0.0
C1021 C 0.12574 0.83708 0.89151 0.0
C1022 C 0.14779 0.80916 0.85296 0.0
H1023 H 0.17696 0.82772 0.65151 0.0
H1024 H 0.15754 0.8265 0.70912 0.0
H1025 H 0.15615 0.79266 0.8155 0.0
H1026 H 0.13498 0.8204 0.99457 0.0
H1027 H 0.15197 0.81875 0.93524 0.0
H1028 H 0.1536 0.8535 0.82921 0.0
C1029 C 0.16838 0.82219 0.71308 0.0
C1030 C 0.15567 0.80598 0.81824 0.0
C1031 C 0.17943 0.82276 0.68005 0.0
C1032 C 0.13238 0.82531 0.96611 0.0
C1033 C 0.14198 0.82419 0.93205 0.0
C1034 C 0.15387 0.84007 0.82642 0.0
C1035 C 0.17196 0.81709 0.75119 0.0
C1036 C 0.1627 0.81981 0.78728 0.0
C1037 C 0.13832 0.8295 0.89421 0.0
C1038 C 0.14689 0.82628 0.85748 0.0
H1039 H 0.20812 0.80798 0.72635 0.0
H1040 H 0.18877 0.80699 0.78406 0.0
H1041 H 0.16737 0.84798 0.76865 0.0
H1042 H 0.10586 0.8433 0.92224 0.0
H1043 H 0.12257 0.84123 0.86274 0.0
C1044 C 0.83941 0.69504 0.02436 0.0
C1045 C 0.84314 0.71417 0.02914 0.0
C1046 C 0.83856 0.68403 0.05775 0.0
C1047 C 0.82516 0.68052 0.1632 0.0
H1048 H 0.84066 0.64147 0.16837 0.0
C1049 C 0.81977 0.6376 0.30652 0.0
C1050 C 0.81597 0.61841 0.30261 0.0
C1051 C 0.8216 0.64865 0.27256 0.0
C1052 C 0.83596 0.6521 0.16704 0.0
H1053 H 0.85105 0.73745 0.07219 0.0
H1054 H 0.84979 0.71825 0.13045 0.0
H1055 H 0.85049 0.66351 0.11098 0.0
H1056 H 0.8094 0.59522 0.26013 0.0
H1057 H 0.81225 0.61449 0.20072 0.0
H1058 H 0.8105 0.66906 0.219 0.0
C1059 C 0.84707 0.71166 0.10092 0.0
C1060 C 0.84174 0.66481 0.13437 0.0
C1061 C 0.848 0.72271 0.06748 0.0
C1062 C 0.81239 0.60998 0.26417 0.0
C1063 C 0.81427 0.62109 0.23012 0.0
C1064 C 0.81933 0.66778 0.19577 0.0
C1065 C 0.84144 0.69196 0.09653 0.0
C1066 C 0.83646 0.67919 0.1322 0.0
C1067 C 0.81962 0.64075 0.23395 0.0
C1068 C 0.82469 0.65345 0.1981 0.0
H1069 H 0.83578 0.68808 0.99516 0.0
H1070 H 0.83424 0.66891 0.0534 0.0
H1071 H 0.82045 0.69114 0.16187 0.0
H1072 H 0.82248 0.6445 0.33573 0.0
H1073 H 0.82576 0.66375 0.27659 0.0
C1074 C 0.27058 0.12483 0.06571 0.0
C1075 C 0.27904 0.12899 0.02727 0.0
C1076 C 0.28173 0.13441 0.09943 0.0
C1077 C 0.32875 0.17543 0.13336 0.0
H1078 H 0.32421 0.13942 0.21713 0.0
C1079 C 0.38376 0.20031 0.26175 0.0
C1080 C 0.37534 0.196 0.30023 0.0
C1081 C 0.37261 0.19077 0.22801 0.0
C1082 C 0.32558 0.14966 0.19409 0.0
H1083 H 0.30517 0.1479 0.99358 0.0
H1084 H 0.32452 0.16455 0.05227 0.0
H1085 H 0.30204 0.12772 0.16005 0.0
H1086 H 0.34929 0.17684 0.33391 0.0
H1087 H 0.32993 0.16029 0.2752 0.0
H1088 H 0.35229 0.19737 0.16741 0.0
C1089 C 0.30937 0.15383 0.0565 0.0
C1090 C 0.3128 0.14301 0.16158 0.0
C1091 C 0.29826 0.14423 0.02284 0.0
C1092 C 0.35617 0.18064 0.30464 0.0
C1093 C 0.34506 0.1711 0.27095 0.0
C1094 C 0.34153 0.18208 0.16588 0.0
C1095 C 0.30146 0.14838 0.09523 0.0
C1096 C 0.31424 0.15583 0.1309 0.0
C1097 C 0.35291 0.1767 0.23221 0.0
C1098 C 0.3401 0.16926 0.19656 0.0
H1099 H 0.25578 0.11324 0.07016 0.0
H1100 H 0.27516 0.13024 0.12894 0.0
H1101 H 0.33013 0.18565 0.11029 0.0
H1102 H 0.39852 0.21198 0.25731 0.0
H1103 H 0.37915 0.19505 0.19849 0.0
C1104 C 0.81008 0.1769 0.31149 0.0
C1105 C 0.79474 0.18082 0.30869 0.0
C1106 C 0.82063 0.17767 0.2774 0.0
C1107 C 0.81252 0.16989 0.16955 0.0
H1108 H 0.86663 0.18364 0.1675 0.0
C1109 C 0.85213 0.16633 0.02704 0.0
C1110 C 0.86594 0.16037 0.0317 0.0
C1111 C 0.84289 0.16861 0.06048 0.0
C1112 C 0.85143 0.17953 0.16784 0.0
H1113 H 0.77978 0.19059 0.26877 0.0
H1114 H 0.79845 0.1922 0.20927 0.0
H1115 H 0.85372 0.1917 0.22633 0.0
H1116 H 0.87982 0.15076 0.0749 0.0
H1117 H 0.86342 0.1545 0.13328 0.0
H1118 H 0.8102 0.15758 0.11122 0.0
C1119 C 0.80196 0.18807 0.23772 0.0
C1120 C 0.84409 0.18426 0.20138 0.0
C1121 C 0.7914 0.18734 0.2719 0.0
C1122 C 0.8693 0.15543 0.07026 0.0
C1123 C 0.86009 0.15779 0.10375 0.0
C1124 C 0.81987 0.16519 0.136 0.0
C1125 C 0.81608 0.18242 0.23983 0.0
C1126 C 0.82451 0.17934 0.20274 0.0
C1127 C 0.84727 0.16499 0.09927 0.0
C1128 C 0.83935 0.16979 0.13497 0.0
H1129 H 0.81316 0.17201 0.33948 0.0
H1130 H 0.83141 0.17321 0.28006 0.0
H1131 H 0.79726 0.16553 0.17001 0.0
H1132 H 0.84914 0.17018 -0.00226 0.0
H1133 H 0.83308 0.1742 0.05609 0.0
C1134 C 0.49493 0.97238 0.63782 0.0
C1135 C 0.4882 0.95238 0.63444 0.0
C1136 C 0.49513 0.98308 0.60443 0.0
C1137 C 0.47658 0.97937 0.50107 0.0
H1138 H 0.52503 0.02758 0.48524 0.0
C1139 C 0.49346 0.02078 0.35199 0.0
C1140 C 0.50052 0.04086 0.35473 0.0
C1141 C 0.49297 0.01018 0.38582 0.0
C1142 C 0.51137 0.01425 0.4894 0.0
H1143 H 0.47515 0.92771 0.59389 0.0
H1144 H 0.47553 0.94644 0.53558 0.0
H1145 H 0.52025 0.00855 0.54599 0.0
H1146 H 0.51375 0.06574 0.39466 0.0
H1147 H 0.51284 0.0472 0.45379 0.0
H1148 H 0.4677 0.98506 0.44446 0.0
C1149 C 0.48065 0.95383 0.56411 0.0
C1150 C 0.50858 0.00338 0.52425 0.0
C1151 C 0.48044 0.94309 0.59756 0.0
C1152 C 0.50824 0.05031 0.39149 0.0
C1153 C 0.50771 0.03967 0.4254 0.0
C1154 C 0.47936 0.99025 0.46623 0.0
C1155 C 0.48858 0.97404 0.56692 0.0
C1156 C 0.49116 0.98582 0.53046 0.0
C1157 C 0.49952 0.01941 0.42316 0.0
C1158 C 0.49681 0.00778 0.45995 0.0
H1159 H 0.50084 0.97998 0.66587 0.0
H1160 H 0.5009 -0.00144 0.60774 0.0
H1161 H 0.46293 0.96602 0.5052 0.0
H1162 H 0.48758 0.01305 0.32404 0.0
H1163 H 0.48701 0.99466 0.38293 0.0
C1164 C 0.05202 0.53578 0.59592 0.0
C1165 C 0.04325 0.53231 0.63402 0.0
C1166 C 0.04143 0.52484 0.56276 0.0
C1167 C 0.99109 0.49909 0.52913 0.0
H1168 H 0.01075 0.48247 0.44018 0.0
C1169 C 0.94341 0.4532 0.39652 0.0
C1170 C 0.95208 0.45661 0.35834 0.0
C1171 C 0.95447 0.46306 0.43013 0.0
C1172 C 0.00516 0.48729 0.46457 0.0
H1173 H 0.01722 0.51332 0.66798 0.0
H1174 H -0.00108 0.49416 0.61022 0.0
H1175 H 0.03079 0.49642 0.49992 0.0
H1176 H 0.97872 0.47417 0.32498 0.0
H1177 H -0.00217 0.49166 0.38347 0.0
H1178 H 0.96558 0.49021 0.49376 0.0
C1179 C 0.01377 0.50566 0.60583 0.0
C1180 C 0.0166 0.49515 0.49882 0.0
C1181 C 0.02432 0.51657 0.63892 0.0
C1182 C 0.97165 0.47104 0.35406 0.0
C1183 C 0.98266 0.48094 0.3876 0.0
C1184 C 0.97969 0.4913 0.49487 0.0
C1185 C 0.02194 0.51024 0.5672 0.0
C1186 C 0.00965 0.50109 0.53145 0.0
C1187 C 0.97435 0.4766 0.42614 0.0
C1188 C 0.98661 0.48534 0.46219 0.0
H1189 H 0.06658 0.54777 0.59113 0.0
H1190 H 0.04811 0.52867 0.5333 0.0
H1191 H 0.98552 0.50394 0.55351 0.0
H1192 H 0.92838 0.44214 0.40087 0.0
H1193 H 0.94765 0.45934 0.45945 0.0
C1194 C 0.45201 0.50794 0.59376 0.0
C1195 C 0.45488 0.50171 0.63136 0.0
C1196 C 0.46204 0.5072 0.55999 0.0
C1197 C 0.50302 0.50119 0.52611 0.0
H1198 H 0.46967 0.47569 0.43455 0.0
C1199 C 0.53059 0.47698 0.39151 0.0
C1200 C 0.52751 0.48314 0.35403 0.0
C1201 C 0.52048 0.47744 0.42542 0.0
C1202 C 0.47918 0.48291 0.45979 0.0
H1203 H 0.47181 0.49154 0.66369 0.0
H1204 H 0.48926 0.4903 0.60488 0.0
H1205 H 0.4565 0.4833 0.4935 0.0
H1206 H 0.51011 0.49286 0.32204 0.0
H1207 H 0.49259 0.49369 0.38106 0.0
H1208 H 0.52571 0.50085 0.49237 0.0
C1209 C 0.47921 0.49564 0.60139 0.0
C1210 C 0.47169 0.4874 0.49341 0.0
C1211 C 0.46915 0.49631 0.6351 0.0
C1212 C 0.51295 0.48816 0.35054 0.0
C1213 C 0.50284 0.48858 0.38438 0.0
C1214 C 0.51052 0.49672 0.49247 0.0
C1215 C 0.47521 0.50037 0.56327 0.0
C1216 C 0.48354 0.49661 0.52689 0.0
C1217 C 0.50705 0.48395 0.42241 0.0
C1218 C 0.49867 0.48754 0.45896 0.0
H1219 H 0.44118 0.51226 0.58988 0.0
H1220 H 0.45898 0.51131 0.53103 0.0
H1221 H 0.51252 0.50841 0.55136 0.0
H1222 H 0.54163 0.47293 0.3952 0.0
H1223 H 0.52371 0.47339 0.45427 0.0
C1224 C 0.21204 0.22944 0.20342 0.0
C1225 C 0.21416 0.22941 0.16148 0.0
C1226 C 0.22634 0.23013 0.22889 0.0
C1227 C 0.25616 0.22535 0.27744 0.0
H1228 H 0.30875 0.25936 0.24021 0.0
C1229 C 0.32348 0.23081 0.35532 0.0
C1230 C 0.34088 0.24877 0.35511 0.0
C1231 C 0.30713 0.22857 0.3351 0.0
C1232 C 0.29418 0.25003 0.25136 0.0
H1233 H 0.23205 0.22838 0.11342 0.0
H1234 H 0.25663 0.22893 0.15779 0.0
H1235 H 0.28161 0.25379 0.19789 0.0
H1236 H 0.35437 0.27874 0.3354 0.0
H1237 H 0.32564 0.27491 0.30082 0.0
H1238 H 0.26884 0.22206 0.33148 0.0
C1239 C 0.2443 0.22914 0.17103 0.0
C1240 C 0.27858 0.24653 0.22674 0.0
C1241 C 0.23013 0.22865 0.14561 0.0
C1242 C 0.34125 0.26467 0.33586 0.0
C1243 C 0.32483 0.26244 0.31581 0.0
C1244 C 0.2718 0.22893 0.30223 0.0
C1245 C 0.24294 0.23063 0.21288 0.0
C1246 C 0.25939 0.23403 0.2393 0.0
C1247 C 0.30772 0.24424 0.3144 0.0
C1248 C 0.291 0.24125 0.28936 0.0
H1249 H 0.19993 0.2301 0.21658 0.0
H1250 H 0.22487 0.23133 0.26096 0.0
H1251 H 0.24157 0.2156 0.28798 0.0
H1252 H 0.32264 0.21823 0.36983 0.0
H1253 H 0.29428 0.2143 0.33431 0.0
C1254 C 0.72835 0.08054 0.31739 0.0
C1255 C 0.73988 0.08998 0.35107 0.0
C1256 C 0.73126 0.06715 0.29587 0.0
C1257 C 0.74878 0.03321 0.29988 0.0
H1258 H 0.76079 0.04534 0.18693 0.0
C1259 C 0.76397 0.98417 0.19538 0.0
C1260 C 0.75539 0.98075 0.1571 0.0
C1261 C 0.7646 -0.00128 0.22011 0.0
C1262 C 0.75726 0.04158 0.21829 0.0
H1263 H 0.76273 0.09205 0.38997 0.0
H1264 H 0.76736 0.06809 0.35281 0.0
H1265 H 0.75512 0.06697 0.22934 0.0
H1266 H 0.74116 0.99027 0.11451 0.0
H1267 H 0.74171 0.01493 0.15762 0.0
H1268 H 0.74996 0.00734 0.28866 0.0
C1269 C 0.75632 0.07134 0.34291 0.0
C1270 C 0.75408 0.05403 0.24251 0.0
C1271 C 0.75369 0.08504 0.36401 0.0
C1272 C 0.74798 0.99252 0.14371 0.0
C1273 C 0.74843 0.00684 0.16845 0.0
C1274 C 0.7516 0.02052 0.27545 0.0
C1275 C 0.74546 0.06269 0.30813 0.0
C1276 C 0.74957 0.0498 0.28332 0.0
C1277 C 0.75654 0.01002 0.20715 0.0
C1278 C 0.75557 0.02441 0.23417 0.0
H1279 H 0.71766 0.08411 0.30661 0.0
H1280 H 0.72264 0.06049 0.26922 0.0
H1281 H 0.74533 0.02973 0.33138 0.0
H1282 H 0.76988 0.9754 0.20654 0.0
H1283 H 0.77123 0.00097 0.24951 0.0
C1284 C 0.90336 0.66849 0.36568 0.0
C1285 C 0.90267 0.65047 0.36504 0.0
C1286 C 0.91833 0.6846 0.34643 0.0
C1287 C 0.95517 0.71887 0.3143 0.0
H1288 H 0.96853 0.70801 0.20919 0.0
C1289 C 0.0143 0.77752 0.2108 0.0
C1290 C 0.01085 0.77519 0.16918 0.0
C1291 C 0.00137 0.76341 0.23758 0.0
C1292 C 0.96483 0.71133 0.23832 0.0
H1293 H 0.91788 0.63559 0.34582 0.0
H1294 H 0.94426 0.66387 0.3128 0.0
H1295 H 0.94672 0.6813 0.25218 0.0
H1296 H 0.99044 0.75714 0.12323 0.0
H1297 H 0.96769 0.73292 0.16989 0.0
H1298 H 0.97279 0.749 0.29954 0.0
C1299 C 0.93293 0.66538 0.32744 0.0
C1300 C 0.95259 0.69597 0.26331 0.0
C1301 C 0.91787 0.6492 0.34656 0.0
C1302 C 0.99363 0.75921 0.1551 0.0
C1303 C 0.98067 0.74524 0.18181 0.0
C1304 C 0.9674 0.73428 0.28916 0.0
C1305 C 0.93304 0.68312 0.32626 0.0
C1306 C 0.94744 0.69954 0.30144 0.0
C1307 C 0.98472 0.74682 0.2232 0.0
C1308 C 0.97215 0.73065 0.25066 0.0
H1309 H 0.89192 0.67004 0.37971 0.0
H1310 H 0.91783 0.69796 0.34579 0.0
H1311 H 0.95164 0.7221 0.34368 0.0
H1312 H 0.02749 0.78966 0.22253 0.0
H1313 H 0.00493 0.76504 0.26929 0.0
C1314 C 0.74742 0.74453 0.85728 0.0
C1315 C 0.76684 0.7535 0.84451 0.0
C1316 C 0.73294 0.74298 0.83144 0.0
C1317 C 0.72258 0.74356 0.72323 0.0
H1318 H 0.67726 0.74408 0.76459 0.0
C1319 C 0.66189 0.74425 0.62705 0.0
C1320 C 0.64272 0.73146 0.63937 0.0
C1321 C 0.67752 0.74612 0.64963 0.0
C1322 C 0.68978 0.74374 0.75277 0.0
H1323 H 0.7864 0.76873 0.7951 0.0
H1324 H 0.76112 0.76663 0.75031 0.0
H1325 H 0.70424 0.75141 0.80946 0.0
H1326 H 0.62489 0.70992 0.68385 0.0
H1327 H 0.65228 0.71346 0.72366 0.0
H1328 H 0.70811 0.73645 0.66611 0.0
C1329 C 0.75704 0.76028 0.78001 0.0
C1330 C 0.70523 0.74792 0.77841 0.0
C1331 C 0.77157 0.76165 0.80581 0.0
C1332 C 0.63949 0.71986 0.67354 0.0
C1333 C 0.65513 0.72197 0.69648 0.0
C1334 C 0.70719 0.73968 0.6974 0.0
C1335 C 0.7375 0.75059 0.79228 0.0
C1336 C 0.72173 0.74763 0.76414 0.0
C1337 C 0.67424 0.73546 0.68521 0.0
C1338 C 0.69058 0.73949 0.71213 0.0
H1339 H 0.74319 0.73798 0.88679 0.0
H1340 H 0.71805 0.73514 0.84182 0.0
H1341 H 0.7349 0.74291 0.7113 0.0
H1342 H 0.66482 0.75333 0.60073 0.0
H1343 H 0.69215 0.75663 0.64041 0.0
C1344 C 0.23632 0.91187 0.6259 0.0
C1345 C 0.24958 0.90641 0.63996 0.0
C1346 C 0.23336 0.9253 0.64724 0.0
C1347 C 0.23347 0.94088 0.74852 0.0
H1348 H 0.23967 0.98884 0.70469 0.0
C1349 C 0.24028 0.00181 0.84996 0.0
C1350 C 0.2335 0.01416 0.8369 0.0
C1351 C 0.23959 0.98755 0.82465 0.0
C1352 C 0.23744 0.9753 0.71719 0.0
H1353 H 0.27053 0.91114 0.68668 0.0
H1354 H 0.26499 0.93428 0.72433 0.0
H1355 H 0.24447 0.96676 0.66131 0.0
H1356 H 0.21983 0.02059 0.78745 0.0
H1357 H 0.21811 0.99519 0.74341 0.0
H1358 H 0.22612 0.94899 0.80408 0.0
C1359 C 0.25703 0.92822 0.69669 0.0
C1360 C 0.24034 0.96278 0.6924 0.0
C1361 C 0.26027 0.9151 0.67501 0.0
C1362 C 0.22526 0.01137 0.79837 0.0
C1363 C 0.22441 -0.00309 0.77304 0.0
C1364 C 0.23024 0.95318 0.77308 0.0
C1365 C 0.24333 0.93316 0.68332 0.0
C1366 C 0.23885 0.94575 0.70822 0.0
C1367 C 0.23187 0.98505 0.78569 0.0
C1368 C 0.23271 0.97081 0.75806 0.0
H1369 H 0.22793 0.90545 0.59889 0.0
H1370 H 0.22273 0.92895 0.63645 0.0
H1371 H 0.23189 0.9276 0.76108 0.0
H1372 H 0.24679 0.00355 0.87937 0.0
H1373 H 0.24581 0.97898 0.83526 0.0
C1374 C 0.97681 0.21161 0.79039 0.0
C1375 C 0.97512 0.21822 0.82861 0.0
C1376 C 0.98901 0.22479 0.76125 0.0
C1377 C 0.00647 0.27376 0.72929 0.0
H1378 H 0.05186 0.27494 0.68372 0.0
C1379 C 0.06827 0.3425 0.65824 0.0
C1380 C 0.07952 0.34088 0.62765 0.0
C1381 C 0.05352 0.32591 0.67669 0.0
C1382 C 0.03898 0.2746 0.69533 0.0
H1383 H 0.98565 0.24377 0.86664 0.0
H1384 H 0.00646 0.26654 0.81569 0.0
H1385 H 0.03029 0.24814 0.72773 0.0
H1386 H 0.08334 0.32059 0.59057 0.0
H1387 H 0.05717 0.29162 0.62187 0.0
H1388 H 0.01489 0.30005 0.69722 0.0
C1389 C -0.00165 0.25122 0.80839 0.0
C1390 C 0.02674 0.25929 0.72064 0.0
C1391 C 0.98649 0.23811 0.83757 0.0
C1392 C 0.07504 0.32231 0.6144 0.0
C1393 C 0.06013 0.3057 0.63252 0.0
C1394 C 0.01849 0.28887 0.70355 0.0
C1395 C -0.00062 0.24473 0.76984 0.0
C1396 C 0.01074 0.25911 0.73865 0.0
C1397 C 0.0495 0.30729 0.66458 0.0
C1398 C 0.03524 0.28982 0.68722 0.0
H1399 H 0.96828 0.19638 0.78258 0.0
H1400 H 0.98973 0.21955 0.73162 0.0
H1401 H -0.00597 0.27373 0.74266 0.0
H1402 H 0.07142 0.3566 0.66927 0.0
H1403 H 0.04587 0.32776 0.70166 0.0
C1404 C 0.89572 0.57056 0.48697 0.0
C1405 C 0.88017 0.57187 0.50351 0.0
C1406 C 0.90993 0.57078 0.51174 0.0
C1407 C 0.94471 0.58778 0.5658 0.0
H1408 H 0.93567 0.56191 0.66885 0.0
C1409 C 0.00819 0.603 0.66991 0.0
C1410 C 0.00771 0.58662 0.68701 0.0
C1411 C 0.99168 0.60142 0.65153 0.0
C1412 C 0.93841 0.56918 0.64007 0.0
H1413 H 0.86668 0.57328 0.55909 0.0
H1414 H 0.89179 0.57396 0.60254 0.0
H1415 H 0.90805 0.55678 0.62768 0.0
H1416 H 0.98927 0.55587 0.69954 0.0
H1417 H 0.9607 0.55309 0.66685 0.0
H1418 H 0.97494 0.59973 0.57733 0.0
C1419 C 0.89286 0.5726 0.57038 0.0
C1420 C 0.9226 0.56635 0.61667 0.0
C1421 C 0.8785 0.57222 0.54551 0.0
C1422 C 0.99017 0.5688 0.68663 0.0
C1423 C 0.97371 0.56721 0.6681 0.0
C1424 C 0.96045 0.59057 0.58906 0.0
C1425 C 0.90905 0.57251 0.5536 0.0
C1426 C 0.9256 0.57549 0.57909 0.0
C1427 C 0.97438 0.58342 0.64968 0.0
C1428 C 0.95751 0.58123 0.62636 0.0
H1429 H 0.89725 0.56999 0.45472 0.0
H1430 H 0.92193 0.57012 0.49797 0.0
H1431 H 0.94754 0.59535 0.53735 0.0
H1432 H 0.02141 0.61698 0.67 0.0
H1433 H 0.99255 0.61426 0.63822 0.0
C1434 C 0.42451 0.31052 0.53501 0.0
C1435 C 0.41563 0.30727 0.49701 0.0
C1436 C 0.42302 0.32303 0.56256 0.0
C1437 C 0.39048 0.34058 0.59034 0.0
H1438 H 0.43481 0.38549 0.63696 0.0
C1439 C 0.38433 0.40319 0.66055 0.0
C1440 C 0.39702 0.41414 0.69166 0.0
C1441 C 0.38606 0.38838 0.64198 0.0
C1442 C 0.42222 0.37277 0.625 0.0
H1443 H 0.39878 0.31515 0.45786 0.0
H1444 H 0.39602 0.33657 0.50604 0.0
H1445 H 0.43984 0.36331 0.59457 0.0
H1446 H 0.42069 0.41736 0.72942 0.0
H1447 H 0.42323 0.39107 0.698 0.0
H1448 H 0.37277 0.34974 0.62066 0.0
C1449 C 0.40406 0.32943 0.51445 0.0
C1450 C 0.42516 0.36016 0.60059 0.0
C1451 C 0.40579 0.31725 0.4868 0.0
C1452 C 0.41081 0.4093 0.70521 0.0
C1453 C 0.41237 0.39432 0.68699 0.0
C1454 C 0.3875 0.35298 0.61519 0.0
C1455 C 0.41236 0.33218 0.55274 0.0
C1456 C 0.40934 0.34426 0.58229 0.0
C1457 C 0.40034 0.38399 0.65447 0.0
C1458 C 0.40336 0.36953 0.63201 0.0
H1459 H 0.43221 0.30308 0.54377 0.0
H1460 H 0.4296 0.32504 0.59198 0.0
H1461 H 0.37803 0.32822 0.57691 0.0
H1462 H 0.37365 0.40664 0.64923 0.0
H1463 H 0.37671 0.38097 0.61667 0.0
C1464 C 0.67611 0.10868 0.5328 0.0
C1465 C 0.67943 0.10391 0.49406 0.0
C1466 C 0.66242 0.09432 0.55813 0.0
C1467 C 0.62157 0.04312 0.55817 0.0
H1468 H 0.6354 0.0444 0.67042 0.0
C1469 C 0.58376 0.97604 0.65889 0.0
C1470 C 0.57451 0.97851 0.69247 0.0
C1471 C 0.59749 0.99215 0.63738 0.0
C1472 C 0.6314 0.04396 0.63915 0.0
H1473 H 0.67057 0.08037 0.45117 0.0
H1474 H 0.64734 0.05546 0.49533 0.0
H1475 H 0.65637 0.07148 0.62632 0.0
H1476 H 0.57343 -0.00025 0.73173 0.0
H1477 H 0.59791 0.02795 0.69454 0.0
H1478 H 0.59701 0.01525 0.57084 0.0
C1479 C 0.65488 0.07029 0.5061 0.0
C1480 C 0.64326 0.0595 0.61395 0.0
C1481 C 0.66834 0.08463 0.48073 0.0
C1482 C 0.58027 -0.00259 0.70583 0.0
C1483 C 0.59426 0.01353 0.68469 0.0
C1484 C 0.60995 0.02749 0.58315 0.0
C1485 C 0.65192 0.07487 0.54532 0.0
C1486 C 0.63858 0.05917 0.57301 0.0
C1487 C 0.60245 0.01097 0.64954 0.0
C1488 C 0.61487 0.02771 0.62369 0.0
H1489 H 0.68435 0.12343 0.54391 0.0
H1490 H 0.66026 0.09842 0.58789 0.0
H1491 H 0.61724 0.04255 0.52712 0.0
H1492 H 0.57961 0.96168 0.64779 0.0
H1493 H 0.6038 0.98989 0.61049 0.0
C1494 C 0.33059 0.09209 0.96796 0.0
C1495 C 0.31282 0.07456 0.97051 0.0
C1496 C 0.34717 0.09403 0.98659 0.0
C1497 C 0.36082 0.07352 0.07066 0.0
H1498 H 0.41288 0.1053 0.02843 0.0
C1499 C 0.4429 0.09246 0.11439 0.0
C1500 C 0.44166 0.09414 0.15621 0.0
C1501 C 0.42842 0.09154 0.08913 0.0
C1502 C 0.39843 0.0963 0.04051 0.0
H1503 H 0.29885 0.04495 0.99269 0.0
H1504 H 0.32793 0.04826 0.02466 0.0
H1505 H 0.38494 0.09874 0.98684 0.0
H1506 H 0.42528 0.09791 0.20398 0.0
H1507 H 0.4004 0.09688 0.1599 0.0
H1508 H 0.37415 0.0707 0.12391 0.0
C1509 C 0.32889 0.06064 0.00896 0.0
C1510 C 0.38244 0.09265 0.01682 0.0
C1511 C 0.31225 0.05871 0.99044 0.0
C1512 C 0.42649 0.09633 0.17193 0.0
C1513 C 0.41215 0.09558 0.1467 0.0
C1514 C 0.37676 0.07711 0.09421 0.0
C1515 C 0.34642 0.07847 0.00806 0.0
C1516 C 0.36345 0.08132 0.03177 0.0
C1517 C 0.41254 0.09242 0.10524 0.0
C1518 C 0.39575 0.08871 0.07963 0.0
H1519 H 0.3316 0.10461 0.95279 0.0
H1520 H 0.36036 0.10802 0.98561 0.0
H1521 H 0.34643 0.06497 0.08335 0.0
H1522 H 0.4544 0.09068 0.1014 0.0
H1523 H 0.42913 0.08907 0.05732 0.0
C1524 C 0.90475 0.24492 0.95268 0.0
C1525 C 0.92179 0.24385 0.95665 0.0
C1526 C 0.9035 0.2603 0.96959 0.0
C1527 C 0.90541 0.29711 0.00044 0.0
H1528 H 0.92672 0.30912 0.10819 0.0
C1529 C 0.9029 0.35425 0.10629 0.0
C1530 C 0.90069 0.34978 0.14751 0.0
C1531 C 0.90457 0.34185 0.07879 0.0
C1532 C 0.92054 0.30582 0.07827 0.0
H1533 H 0.95145 0.25898 0.97845 0.0
H1534 H 0.9494 0.28608 0.00728 0.0
H1535 H 0.9331 0.28818 0.06579 0.0
H1536 H 0.8966 0.32807 0.19184 0.0
H1537 H 0.8989 0.30623 0.14391 0.0
H1538 H 0.89219 0.31425 0.01396 0.0
C1539 C 0.93682 0.27471 0.99203 0.0
C1540 C 0.92451 0.29409 0.05363 0.0
C1541 C 0.93803 0.25923 0.97535 0.0
C1542 C 0.89859 0.33202 0.16031 0.0
C1543 C 0.90007 0.3196 0.1329 0.0
C1544 C 0.90137 0.30885 0.02526 0.0
C1545 C 0.91931 0.27504 0.99061 0.0
C1546 C 0.91679 0.28936 0.01462 0.0
C1547 C 0.90391 0.32476 0.09215 0.0
C1548 C 0.90861 0.31301 0.06471 0.0
H1549 H 0.89197 0.23338 0.93827 0.0
H1550 H 0.88976 0.26 0.96817 0.0
H1551 H 0.89939 0.29387 0.97038 0.0
H1552 H 0.90462 0.3679 0.09562 0.0
H1553 H 0.90749 0.3462 0.04756 0.0
C1554 C 0.75433 0.66105 0.98015 0.0
C1555 C 0.75374 0.67842 0.98142 0.0
C1556 C 0.74014 0.64442 -0.0005 0.0
C1557 C 0.7039 0.60862 0.0294 0.0
H1558 H 0.68797 0.61657 0.13445 0.0
C1559 C 0.64132 0.54773 0.12197 0.0
C1560 C 0.64295 0.54888 0.16407 0.0
C1561 C 0.65558 0.56231 0.09797 0.0
C1562 C 0.69244 0.61405 0.10539 0.0
H1563 H 0.73721 0.69165 0.00237 0.0
H1564 H 0.71219 0.66247 0.03549 0.0
H1565 H 0.71041 0.64444 0.09478 0.0
H1566 H 0.66155 0.56522 0.2139 0.0
H1567 H 0.68666 0.59028 0.17206 0.0
H1568 H 0.68629 0.57813 0.04071 0.0
C1569 C 0.72392 0.66187 0.02028 0.0
C1570 C 0.70505 0.63007 0.0823 0.0
C1571 C 0.73818 0.67856 0.00109 0.0
C1572 C 0.65976 0.56408 0.18154 0.0
C1573 C 0.67407 0.57852 0.15758 0.0
C1574 C 0.69132 0.59254 0.05263 0.0
C1575 C 0.72496 0.64472 0.02039 0.0
C1576 C 0.71094 0.62757 0.04404 0.0
C1577 C 0.67179 0.57821 0.11565 0.0
C1578 C 0.68551 0.59509 0.09097 0.0
H1579 H 0.76611 0.6604 0.96529 0.0
H1580 H 0.74151 0.63154 -0.00066 0.0
H1581 H 0.70805 0.6062 -0.00011 0.0
H1582 H 0.6285 0.53621 0.10764 0.0
H1583 H 0.65335 0.56166 0.06577 0.0
C1584 C 0.548 0.90315 0.87433 0.0
C1585 C 0.54971 0.90163 0.83262 0.0
C1586 C 0.56242 0.90443 0.90029 0.0
C1587 C 0.61438 0.91946 0.89772 0.0
H1588 H 0.60508 0.89762 0.00501 0.0
C1589 C 0.67792 0.93698 0.00371 0.0
C1590 C 0.67688 0.92105 0.02422 0.0
C1591 C 0.66153 0.93532 0.98455 0.0
C1592 C 0.60791 0.90376 0.97506 0.0
H1593 H 0.56694 0.8986 0.78569 0.0
H1594 H 0.59167 0.90015 0.83095 0.0
H1595 H 0.5776 0.89112 0.96209 0.0
H1596 H 0.65756 0.89115 0.04223 0.0
H1597 H 0.62927 0.88818 0.00818 0.0
H1598 H 0.64457 0.93149 0.90985 0.0
C1599 C 0.57962 0.9011 0.84357 0.0
C1600 C 0.59216 0.90017 0.9506 0.0
C1601 C 0.56536 0.90003 0.81766 0.0
C1602 C 0.65891 0.90373 0.02666 0.0
C1603 C 0.6426 0.90205 0.00732 0.0
C1604 C 0.63007 0.92296 0.92201 0.0
C1605 C 0.5787 0.90403 0.88499 0.0
C1606 C 0.59524 0.90782 0.91149 0.0
C1607 C 0.6438 0.91768 0.9853 0.0
C1608 C 0.62704 0.91505 0.96087 0.0
H1609 H 0.53614 0.9045 0.88673 0.0
H1610 H 0.56129 0.90673 0.93202 0.0
H1611 H 0.6173 0.92595 0.86807 0.0
H1612 H 0.69149 0.95058 0.00156 0.0
H1613 H 0.66284 0.94777 0.96849 0.0
C1614 C 0.07598 0.65753 0.81336 0.0
C1615 C 0.08297 0.64545 0.82709 0.0
C1616 C 0.07459 0.67049 0.83928 0.0
C1617 C 0.07109 0.67914 0.94715 0.0
H1618 H 0.077 0.7275 0.90639 0.0
C1619 C 0.0708 0.74115 0.04057 0.0
C1620 C 0.05911 0.74826 0.02498 0.0
C1621 C 0.07288 0.72707 0.01971 0.0
C1622 C 0.07517 0.71396 0.91802 0.0
H1623 H 0.09487 0.63822 0.87858 0.0
H1624 H 0.09303 0.66148 0.92382 0.0
H1625 H 0.08521 0.70788 0.8635 0.0
H1626 H 0.0396 0.74544 0.9766 0.0
H1627 H 0.04359 0.72108 0.93975 0.0
H1628 H 0.06161 0.68582 0.00228 0.0
C1629 C 0.08814 0.66048 0.89308 0.0
C1630 C 0.07985 0.70269 0.89351 0.0
C1631 C 0.08938 0.64729 0.86708 0.0
C1632 C 0.04865 0.74021 0.9894 0.0
C1633 C 0.05102 0.72639 0.9682 0.0
C1634 C 0.06674 0.69065 0.97197 0.0
C1635 C 0.08041 0.672 0.8796 0.0
C1636 C 0.07748 0.68493 0.90742 0.0
C1637 C 0.06357 0.72014 0.98265 0.0
C1638 C 0.06839 0.70794 0.95724 0.0
H1639 H 0.07086 0.65653 0.7828 0.0
H1640 H 0.06824 0.67882 0.82789 0.0
H1641 H 0.06888 0.66546 0.95872 0.0
H1642 H 0.07896 0.74706 0.06805 0.0
H1643 H 0.08264 0.72245 0.03135 0.0
C1644 C 0.24078 0.3277 0.02923 0.0
C1645 C 0.23912 0.3093 0.02596 0.0
C1646 C 0.25579 0.34376 0.01003 0.0
C1647 C 0.29226 0.37767 0.97704 0.0
H1648 H 0.30343 0.36806 0.86882 0.0
C1649 C 0.34868 0.43827 0.87335 0.0
C1650 C 0.34472 0.43646 0.83191 0.0
C1651 C 0.33648 0.42351 0.89979 0.0
C1652 C 0.30033 0.37103 0.89884 0.0
H1653 H 0.25271 0.29363 0.00205 0.0
H1654 H 0.27929 0.32187 0.96918 0.0
H1655 H 0.28217 0.34086 0.91137 0.0
H1656 H 0.32419 0.41854 0.78605 0.0
H1657 H 0.30253 0.39323 0.83227 0.0
H1658 H 0.30967 0.40793 0.96366 0.0
C1659 C 0.26863 0.32372 0.98583 0.0
C1660 C 0.28842 0.35538 0.92356 0.0
C1661 C 0.25348 0.30755 0.00488 0.0
C1662 C 0.32772 0.42023 0.81779 0.0
C1663 C 0.31542 0.40563 0.84424 0.0
C1664 C 0.30405 0.39335 0.95214 0.0
C1665 C 0.26965 0.3419 0.98733 0.0
C1666 C 0.28402 0.3585 0.96279 0.0
C1667 C 0.31999 0.40678 0.88535 0.0
C1668 C 0.30798 0.39022 0.91253 0.0
H1669 H 0.23003 0.32964 0.04532 0.0
H1670 H 0.25593 0.35742 0.01148 0.0
H1671 H 0.28939 0.38059 0.0073 0.0
H1672 H 0.36175 0.45054 0.88509 0.0
H1673 H 0.34048 0.42485 0.93123 0.0
C1674 C -0.00253 0.41189 0.27191 0.0
C1675 C 0.97882 0.39798 0.28511 0.0
C1676 C 0.01394 0.41277 0.28889 0.0
C1677 C 0.03018 0.38634 0.35706 0.0
H1678 H 0.0714 0.4383 0.38356 0.0
C1679 C 0.0811 0.40273 0.49047 0.0
C1680 C 0.10117 0.41327 0.48288 0.0
C1681 C 0.0679 0.40104 0.46109 0.0
C1682 C 0.06014 0.42373 0.3758 0.0
H1683 H 0.9628 0.37354 0.32515 0.0
H1684 H 0.99141 0.37541 0.35563 0.0
H1685 H 0.04482 0.43405 0.34023 0.0
H1686 H 0.12311 0.43093 0.4389 0.0
H1687 H 0.09975 0.42843 0.38764 0.0
H1688 H 0.04503 0.37616 0.39484 0.0
C1689 C 0.99343 0.38541 0.33156 0.0
C1690 C 0.04493 0.42124 0.35085 0.0
C1691 C 0.97696 0.38437 0.3142 0.0
C1692 C 0.10775 0.4227 0.44563 0.0
C1693 C 0.09444 0.42127 0.41634 0.0
C1694 C 0.04522 0.38885 0.38245 0.0
C1695 C 0.01214 0.39991 0.31979 0.0
C1696 C 0.02952 0.4025 0.34191 0.0
C1697 C 0.07442 0.41007 0.42366 0.0
C1698 C 0.06007 0.40756 0.3927 0.0
H1699 H -0.00063 0.42245 0.24917 0.0
H1700 H 0.02809 0.42383 0.27843 0.0
H1701 H 0.01884 0.37171 0.35009 0.0
H1702 H 0.07547 0.39523 0.51873 0.0
H1703 H 0.05251 0.39257 0.46757 0.0
C1704 C 0.56897 0.66507 0.5027 0.0
C1705 C 0.56988 0.6821 0.48831 0.0
C1706 C 0.5702 0.65215 0.47625 0.0
C1707 C 0.58818 0.63611 0.42003 0.0
H1708 H 0.56358 0.62203 0.31538 0.0
C1709 C 0.6021 0.58758 0.31384 0.0
C1710 C 0.58545 0.5723 0.29602 0.0
C1711 C 0.60128 0.60295 0.33227 0.0
C1712 C 0.57052 0.62581 0.34456 0.0
H1713 H 0.57182 0.69849 0.43469 0.0
H1714 H 0.57426 0.67597 0.38835 0.0
H1715 H 0.5582 0.64365 0.3588 0.0
H1716 H 0.55513 0.56172 0.28183 0.0
H1717 H 0.55365 0.58817 0.31461 0.0
H1718 H 0.59987 0.61775 0.40677 0.0
C1719 C 0.57241 0.67254 0.42011 0.0
C1720 C 0.56756 0.63832 0.36928 0.0
C1721 C 0.571 0.68543 0.44665 0.0
C1722 C 0.56825 0.57321 0.29535 0.0
C1723 C 0.56741 0.58849 0.31394 0.0
C1724 C 0.59106 0.62358 0.39548 0.0
C1725 C 0.57258 0.65604 0.4348 0.0
C1726 C 0.57613 0.64336 0.40756 0.0
C1727 C 0.58379 0.60331 0.33344 0.0
C1728 C 0.5821 0.61809 0.35764 0.0
H1729 H 0.56785 0.66196 0.53462 0.0
H1730 H 0.56971 0.63928 0.48843 0.0
H1731 H 0.59535 0.64004 0.44899 0.0
H1732 H 0.61563 0.58742 0.31456 0.0
H1733 H 0.61427 0.61434 0.34638 0.0
C1734 C 0.40784 -0.00141 0.28437 0.0
C1735 C 0.41458 0.01768 0.29781 0.0
C1736 C 0.39324 0.98285 0.30535 0.0
C1737 C 0.37694 0.9696 0.40704 0.0
H1738 H 0.33081 0.92566 0.36278 0.0
C1739 C 0.31851 0.91216 0.5086 0.0
C1740 C 0.30803 0.89275 0.49572 0.0
C1741 C 0.33158 0.92665 0.48302 0.0
C1742 C 0.34381 0.93766 0.37546 0.0
H1743 H 0.41058 0.0353 0.34235 0.0
H1744 H 0.38529 0.0077 0.37939 0.0
H1745 H 0.3522 0.95275 0.319 0.0
H1746 H 0.30361 0.87327 0.44611 0.0
H1747 H 0.32706 0.89863 0.40161 0.0
H1748 H 0.36918 0.95453 0.46303 0.0
C1749 C 0.39132 0.00501 0.35258 0.0
C1750 C 0.35591 0.9532 0.35046 0.0
C1751 C 0.40569 0.02077 0.33125 0.0
C1752 C 0.31142 0.88809 0.45692 0.0
C1753 C 0.32472 0.90265 0.43132 0.0
C1754 C 0.36508 0.954 0.43183 0.0
C1755 C 0.38538 0.98594 0.3404 0.0
C1756 C 0.3724 0.9694 0.36626 0.0
C1757 C 0.33479 0.92214 0.44396 0.0
C1758 C 0.34818 0.93795 0.41655 0.0
H1759 H 0.41436 0.99578 0.25854 0.0
H1760 H 0.38889 0.96825 0.29546 0.0
H1761 H 0.38985 0.98176 0.41967 0.0
H1762 H 0.31621 0.91637 0.53816 0.0
H1763 H 0.33873 0.94151 0.49361 0.0
C1764 C 0.17528 0.30608 0.19407 0.0
C1765 C 0.1713 0.28681 0.1973 0.0
C1766 C 0.17418 0.31591 0.22777 0.0
C1767 C 0.15177 0.30738 0.32761 0.0
H1768 H 0.19034 0.36137 0.34571 0.0
C1769 C 0.15254 0.34787 0.47137 0.0
C1770 C 0.15537 0.36666 0.46624 0.0
C1771 C 0.15547 0.33828 0.43941 0.0
C1772 C 0.17938 0.34634 0.34084 0.0
H1773 H 0.16324 0.26282 0.2386 0.0
H1774 H 0.16146 0.28008 0.29747 0.0
H1775 H 0.19363 0.34421 0.28815 0.0
H1776 H 0.16379 0.39022 0.42362 0.0
H1777 H 0.1687 0.37336 0.36773 0.0
H1778 H 0.13743 0.30953 0.38006 0.0
C1779 C 0.16521 0.28747 0.26873 0.0
C1780 C 0.18126 0.33653 0.30793 0.0
C1781 C 0.16632 0.27763 0.23503 0.0
C1782 C 0.16148 0.37576 0.4286 0.0
C1783 C 0.16441 0.36615 0.39663 0.0
C1784 C 0.14989 0.31718 0.36049 0.0
C1785 C 0.16907 0.30669 0.2654 0.0
C1786 C 0.16742 0.31697 0.3009 0.0
C1787 C 0.16129 0.34727 0.40165 0.0
C1788 C 0.16363 0.33678 0.36735 0.0
H1789 H 0.17914 0.31358 0.16545 0.0
H1790 H 0.17699 0.33063 0.22421 0.0
H1791 H 0.14071 0.2924 0.3226 0.0
H1792 H 0.14794 0.34047 0.50003 0.0
H1793 H 0.15321 0.32383 0.44428 0.0
C1794 C 0.68465 0.86338 0.19532 0.0
C1795 C 0.70362 0.87923 0.19829 0.0
C1796 C 0.6755 0.85184 0.22878 0.0
C1797 C 0.67666 0.85167 0.33926 0.0
H1798 H 0.64644 0.79581 0.32556 0.0
C1799 C 0.64334 0.79835 0.47251 0.0
C1800 C 0.62418 0.78308 0.46743 0.0
C1801 C 0.65358 0.8103 0.44018 0.0
C1802 C 0.65469 0.8114 0.32977 0.0
H1803 H 0.72784 0.89544 0.23885 0.0
H1804 H 0.71186 0.87513 0.29726 0.0
H1805 H 0.66346 0.81634 0.26815 0.0
H1806 H 0.60071 0.76848 0.42441 0.0
H1807 H 0.61855 0.7894 0.36819 0.0
H1808 H 0.66783 0.84666 0.40095 0.0
C1809 C 0.70403 0.87179 0.26907 0.0
C1810 C 0.66442 0.82315 0.29692 0.0
C1811 C 0.71319 0.88336 0.23556 0.0
C1812 C 0.61546 0.78007 0.42937 0.0
C1813 C 0.62571 0.79197 0.39707 0.0
C1814 C 0.66694 0.83989 0.37217 0.0
C1815 C 0.68512 0.85586 0.26595 0.0
C1816 C 0.67537 0.84341 0.30124 0.0
C1817 C 0.64488 0.80717 0.40212 0.0
C1818 C 0.65573 0.81966 0.36764 0.0
H1819 H 0.6768 0.85983 0.16713 0.0
H1820 H 0.6608 0.83985 0.22561 0.0
H1821 H 0.68482 0.86726 0.34339 0.0
H1822 H 0.65049 0.80106 0.50142 0.0
H1823 H 0.6684 0.8218 0.44482 0.0
C1824 C 0.1092 0.82694 0.22877 0.0
C1825 C 0.11211 0.82079 0.19112 0.0
C1826 C 0.12109 0.82881 0.26124 0.0
C1827 C 0.16882 0.83527 0.28676 0.0
H1828 H 0.1453 0.81605 0.39119 0.0
C1829 C 0.2122 0.8326 0.42323 0.0
C1830 C 0.20839 0.83848 0.46035 0.0
C1831 C 0.2005 0.83007 0.38992 0.0
C1832 C 0.15209 0.82165 0.3623 0.0
H1833 H 0.12989 0.81189 0.158 0.0
H1834 H 0.15059 0.8151 0.2149 0.0
H1835 H 0.12479 0.81242 0.33367 0.0
H1836 H 0.18937 0.84643 0.49149 0.0
H1837 H 0.16917 0.84222 0.43328 0.0
H1838 H 0.19614 0.84463 0.31548 0.0
C1839 C 0.13919 0.81861 0.21909 0.0
C1840 C 0.14036 0.81957 0.32941 0.0
C1841 C 0.12727 0.81668 0.18659 0.0
C1842 C 0.19267 0.84181 0.4634 0.0
C1843 C 0.18101 0.83929 0.43011 0.0
C1844 C 0.18057 0.83738 0.3197 0.0
C1845 C 0.13615 0.82461 0.25675 0.0
C1846 C 0.14861 0.82646 0.29138 0.0
C1847 C 0.18478 0.83337 0.39306 0.0
C1848 C 0.17233 0.83069 0.35785 0.0
H1849 H 0.0977 0.83028 0.23328 0.0
H1850 H 0.11859 0.83373 0.28982 0.0
H1851 H 0.17558 0.84091 0.25786 0.0
H1852 H 0.22416 0.82986 0.41989 0.0
H1853 H 0.20362 0.82529 0.36183 0.0
C1854 C 0.83477 0.64547 0.52656 0.0
C1855 C 0.83232 0.62683 0.53164 0.0
C1856 C 0.83301 0.65547 0.55926 0.0
C1857 C 0.81218 0.64796 0.66092 0.0
H1858 H 0.84968 0.70261 0.67498 0.0
C1859 C 0.81799 0.68853 0.80767 0.0
C1860 C 0.82039 0.70723 0.80447 0.0
C1861 C 0.81932 0.67899 0.77372 0.0
C1862 C 0.83897 0.68741 0.67118 0.0
H1863 H 0.82608 0.60407 0.57511 0.0
H1864 H 0.8232 0.62161 0.63215 0.0
H1865 H 0.85208 0.68532 0.61667 0.0
H1866 H 0.8262 0.73063 0.76307 0.0
H1867 H 0.82841 0.71386 0.70368 0.0
H1868 H 0.79914 0.65001 0.71551 0.0
C1869 C 0.82624 0.62838 0.60277 0.0
C1870 C 0.84035 0.67752 0.63782 0.0
C1871 C 0.82801 0.61838 0.5701 0.0
C1872 C 0.8243 0.71624 0.76658 0.0
C1873 C 0.82566 0.70669 0.73259 0.0
C1874 C 0.81082 0.65784 0.69425 0.0
C1875 C 0.82874 0.64703 0.59769 0.0
C1876 C 0.82702 0.65767 0.63249 0.0
C1877 C 0.82309 0.68793 0.73582 0.0
C1878 C 0.82427 0.67763 0.69984 0.0
H1879 H 0.83805 0.65239 0.49731 0.0
H1880 H 0.83479 0.66974 0.55437 0.0
H1881 H 0.80151 0.63275 0.65723 0.0
H1882 H 0.81503 0.68118 0.83641 0.0
H1883 H 0.81757 0.66466 0.77721 0.0
C1884 C 0.30451 0.13238 0.80431 0.0
C1885 C 0.28588 0.11607 0.80001 0.0
C1886 C 0.31454 0.14347 0.77093 0.0
C1887 C 0.30756 0.15506 0.6675 0.0
H1888 H 0.36238 0.17231 0.65664 0.0
C1889 C 0.35007 0.1909 0.52294 0.0
C1890 C 0.36865 0.20726 0.52737 0.0
C1891 C 0.34013 0.17961 0.55616 0.0
C1892 C 0.34713 0.16777 0.65949 0.0
H1893 H 0.26315 0.09871 0.7572 0.0
H1894 H 0.28077 0.11805 0.69881 0.0
H1895 H 0.34449 0.15289 0.71474 0.0
H1896 H 0.39144 0.22444 0.57022 0.0
H1897 H 0.37395 0.20477 0.62836 0.0
H1898 H 0.3102 0.16996 0.6123 0.0
C1899 C 0.2875 0.12232 0.72816 0.0
C1900 C 0.33689 0.15665 0.69272 0.0
C1901 C 0.27745 0.1112 0.76158 0.0
C1902 C 0.37717 0.21192 0.56574 0.0
C1903 C 0.36719 0.20061 0.59903 0.0
C1904 C 0.3178 0.16618 0.63428 0.0
C1905 C 0.30618 0.13851 0.7325 0.0
C1906 C 0.317 0.1502 0.69707 0.0
C1907 C 0.34852 0.18441 0.59459 0.0
C1908 C 0.33769 0.17264 0.62992 0.0
H1909 H 0.31142 0.1366 0.83349 0.0
H1910 H 0.32879 0.15604 0.7753 0.0
H1911 H 0.29232 0.15053 0.67036 0.0
H1912 H 0.34311 0.18681 0.49379 0.0
H1913 H 0.32588 0.16704 0.55171 0.0
C1914 C 0.79553 0.14853 0.52667 0.0
C1915 C 0.7799 0.15188 0.53177 0.0
C1916 C 0.80648 0.1488 0.55963 0.0
C1917 C 0.80527 0.14487 0.67016 0.0
H1918 H 0.86132 0.17174 0.65985 0.0
C1919 C 0.85675 0.16683 0.80603 0.0
C1920 C 0.87323 0.16474 0.80273 0.0
C1921 C 0.84479 0.16359 0.77289 0.0
C1922 C 0.84567 0.16394 0.66302 0.0
H1923 H 0.7635 0.15808 0.57557 0.0
H1924 H 0.78283 0.15883 0.63303 0.0
H1925 H 0.84152 0.16947 0.602 0.0
H1926 H 0.88982 0.15719 0.76219 0.0
H1927 H 0.86883 0.15148 0.7043 0.0
H1928 H 0.80949 0.13961 0.73141 0.0
C1929 C 0.78641 0.15572 0.60357 0.0
C1930 C 0.83434 0.16265 0.62991 0.0
C1931 C 0.77542 0.15542 0.5706 0.0
C1932 C 0.87729 0.15901 0.76571 0.0
C1933 C 0.86533 0.15582 0.73251 0.0
C1934 C 0.81661 0.14619 0.7033 0.0
C1935 C 0.80208 0.15246 0.59839 0.0
C1936 C 0.81403 0.15323 0.63322 0.0
C1937 C 0.84906 0.15823 0.73572 0.0
C1938 C 0.83693 0.15587 0.70011 0.0
H1939 H 0.79931 0.14564 0.49721 0.0
H1940 H 0.81832 0.14599 0.55478 0.0
H1941 H 0.78963 0.13724 0.67342 0.0
H1942 H 0.85318 0.17121 0.83411 0.0
H1943 H 0.83246 0.16577 0.77612 0.0
C1944 C 0.49042 0.04401 0.09046 0.0
C1945 C 0.48416 0.03502 0.12816 0.0
C1946 C 0.49184 0.03376 0.05785 0.0
C1947 C 0.49671 0.99136 0.03268 0.0
H1948 H 0.4797 -0.00266 0.92709 0.0
C1949 C 0.49381 0.94491 0.89681 0.0
C1950 C 0.50077 0.95471 0.86005 0.0
C1951 C 0.49114 0.95427 0.92963 0.0
C1952 C 0.48467 0.99566 0.95633 0.0
H1953 H 0.47441 0.00812 0.16107 0.0
H1954 H 0.47677 0.99022 0.10398 0.0
H1955 H 0.4762 0.01449 0.98434 0.0
H1956 H 0.51034 0.98203 0.82898 0.0
H1957 H 0.50583 -0.00164 0.88636 0.0
H1958 H 0.50527 0.9726 0.00462 0.0
C1959 C 0.48078 0.00528 0.09984 0.0
C1960 C 0.48267 0.00548 0.98909 0.0
C1961 C 0.47934 0.01552 0.13248 0.0
C1962 C 0.50491 0.97403 0.85681 0.0
C1963 C 0.50223 0.98337 0.88962 0.0
C1964 C 0.4987 0.98153 -9e-05 0.0
C1965 C 0.48705 0.01429 0.06219 0.0
C1966 C 0.48875 0.0035 0.02758 0.0
C1967 C 0.49535 0.97361 0.9264 0.0
C1968 C 0.49279 0.98366 0.96136 0.0
H1969 H 0.4943 0.05902 0.08608 0.0
H1970 H 0.49697 0.04119 0.02934 0.0
H1971 H 0.50177 0.98976 0.06187 0.0
H1972 H 0.49042 0.93001 0.90032 0.0
H1973 H 0.48561 0.9463 0.95746 0.0
C1974 C 0.94512 0.44888 0.0937 0.0
C1975 C 0.95436 0.45173 0.13111 0.0
C1976 C 0.95489 0.46099 0.06128 0.0
C1977 C 0.00418 0.49398 0.02383 0.0
H1978 H 0.97779 0.51105 0.9506 0.0
C1979 C 0.04404 0.54965 0.89752 0.0
C1980 C 0.03481 0.5455 0.85985 0.0
C1981 C 0.03428 0.53858 0.93118 0.0
C1982 C 0.98528 0.50625 0.97062 0.0
H1983 H 0.981 0.46986 0.16404 0.0
H1984 H -0.00208 0.49112 0.10757 0.0
H1985 H 0.96049 0.49131 0.00883 0.0
H1986 H 0.00812 0.52639 0.828 0.0
H1987 H 0.9912 0.50704 0.88672 0.0
H1988 H 0.02897 0.50891 0.98557 0.0
C1989 C 0.98323 0.4793 0.10317 0.0
C1990 C 0.97539 0.49495 0.00392 0.0
C1991 C 0.97348 0.46718 0.13557 0.0
C1992 C 0.01565 0.53001 0.85656 0.0
C1993 C 0.0059 0.51899 0.89024 0.0
C1994 C 0.01408 0.50531 0.99058 0.0
C1995 C 0.9741 0.47624 0.0656 0.0
C1996 C 0.98471 0.48864 0.03079 0.0
C1997 C 0.0151 0.52319 0.92788 0.0
C1998 C 0.00471 0.51148 0.96356 0.0
H1999 H 0.93041 0.43709 0.0892 0.0
H2000 H 0.94754 0.45812 0.03256 0.0
H2001 H 0.01166 0.48908 0.04363 0.0
H2002 H 0.05878 0.56151 0.90112 0.0
H2003 H 0.04167 0.54225 0.95992 0.0
C2004 C 0.44268 0.49531 0.89369 0.0
C2005 C 0.44601 0.48906 0.85654 0.0
C2006 C 0.45467 0.49797 0.92652 0.0
C2007 C 0.50282 0.50566 0.95402 0.0
H2008 H 0.47863 0.48528 0.05742 0.0
C2009 C 0.54474 0.49931 0.08906 0.0
C2010 C 0.54078 0.50424 0.12708 0.0
C2011 C 0.53348 0.4981 0.05583 0.0
C2012 C 0.48562 0.49127 0.02887 0.0
H2013 H 0.46472 0.48096 0.82461 0.0
H2014 H 0.48554 0.4855 0.88207 0.0
H2015 H 0.4585 0.48229 -0.00034 0.0
H2016 H 0.52201 0.51196 0.15991 0.0
H2017 H 0.50253 0.51002 0.10185 0.0
H2018 H 0.52995 0.5146 0.98325 0.0
C2019 C 0.47375 0.48849 0.88563 0.0
C2020 C 0.47409 0.48955 0.99581 0.0
C2021 C 0.46174 0.48579 0.8528 0.0
C2022 C 0.52539 0.50803 0.13109 0.0
C2023 C 0.51416 0.50683 0.09787 0.0
C2024 C 0.51436 0.50741 0.98711 0.0
C2025 C 0.47025 0.49448 0.92287 0.0
C2026 C 0.48257 0.49669 0.95805 0.0
C2027 C 0.51804 0.5018 0.05993 0.0
C2028 C 0.50587 0.50018 0.02486 0.0
H2029 H 0.43074 0.49804 0.89757 0.0
H2030 H 0.45178 0.50284 0.95475 0.0
H2031 H 0.50976 0.51152 0.92536 0.0
H2032 H 0.55645 0.49627 0.08493 0.0
H2033 H 0.53666 0.49395 0.02705 0.0
loop_
_geom_bond_atom_site_label_1
_geom_bond_atom_site_label_2
_geom_bond_distance
_geom_bond_site_symmetry_2
_ccdc_geom_bond_type
O0 Zn1 1.953 . S
O0 C16 1.225 1_554 S
Zn1 O0 1.953 . S
Zn1 O2 1.949 . S
Zn1 O8 1.919 . S
Zn1 O13 1.924 . S
O2 Zn1 1.949 . S
O2 Zn3 1.923 . S
O2 Zn4 1.950 . S
O2 Zn5 1.945 . S
Zn3 O2 1.923 . S
Zn3 O6 1.933 . S
Zn3 O9 1.941 . S
Zn3 O10 1.965 . S
Zn4 O2 1.950 . S
Zn4 O11 1.938 . S
Zn4 O12 1.906 . S
Zn4 O22 1.953 1_554 S
Zn5 O2 1.945 . S
Zn5 O7 1.932 . S
Zn5 O14 1.977 . S
Zn5 O15 1.910 . S
O6 Zn3 1.933 . S
O6 C17 1.226 . S
O7 Zn5 1.932 . S
O7 C17 1.307 . S
O8 Zn1 1.919 . S
O8 C19 1.253 . S
O9 Zn3 1.941 . S
O9 C19 1.283 . S
O10 Zn3 1.965 . S
O10 C18 1.303 . S
O11 Zn4 1.938 . S
O11 C18 1.247 . S
O12 Zn4 1.906 . S
O12 C20 1.304 . S
O13 Zn1 1.924 . S
O13 C21 1.311 . S
O14 Zn5 1.977 . S
O14 C20 1.272 . S
O15 Zn5 1.910 . S
O15 C21 1.231 . S
C16 O0 1.225 1_556 S
C16 O22 1.298 . S
C17 O6 1.226 . S
C17 O7 1.307 . S
C18 O10 1.303 . S
C18 O11 1.247 . S
C19 O8 1.253 . S
C19 O9 1.283 . S
C20 O12 1.304 . S
C20 O14 1.272 . S
C21 O13 1.311 . S
C21 O15 1.231 . S
O22 Zn4 1.953 1_556 S
O22 C16 1.298 . S
O23 Zn24 1.953 . S
O23 C39 1.225 1_554 S
Zn24 O23 1.953 . S
Zn24 O25 1.949 . S
Zn24 O31 1.919 . S
Zn24 O36 1.924 . S
O25 Zn24 1.949 . S
O25 Zn26 1.923 . S
O25 Zn27 1.950 . S
O25 Zn28 1.945 . S
Zn26 O25 1.923 . S
Zn26 O29 1.933 . S
Zn26 O32 1.941 . S
Zn26 O33 1.965 . S
Zn27 O25 1.950 . S
Zn27 O34 1.938 . S
Zn27 O35 1.906 . S
Zn27 O45 1.953 1_554 S
Zn28 O25 1.945 . S
Zn28 O30 1.932 . S
Zn28 O37 1.977 . S
Zn28 O38 1.910 . S
O29 Zn26 1.933 . S
O29 C40 1.226 . S
O30 Zn28 1.932 . S
O30 C40 1.307 . S
O31 Zn24 1.919 . S
O31 C42 1.253 . S
O32 Zn26 1.941 . S
O32 C42 1.283 . S
O33 Zn26 1.965 . S
O33 C41 1.303 . S
O34 Zn27 1.938 . S
O34 C41 1.247 . S
O35 Zn27 1.906 . S
O35 C43 1.304 . S
O36 Zn24 1.924 . S
O36 C44 1.311 . S
O37 Zn28 1.977 . S
O37 C43 1.272 . S
O38 Zn28 1.910 . S
O38 C44 1.231 . S
C39 O23 1.225 1_556 S
C39 O45 1.298 . S
C40 O29 1.226 . S
C40 O30 1.307 . S
C41 O33 1.303 . S
C41 O34 1.247 . S
C42 O31 1.253 . S
C42 O32 1.283 . S
C43 O35 1.304 . S
C43 O37 1.272 . S
C44 O36 1.311 . S
C44 O38 1.231 . S
O45 Zn27 1.953 1_556 S
O45 C39 1.298 . S
O46 Zn47 1.953 . S
O46 C62 1.225 1_554 S
Zn47 O46 1.953 . S
Zn47 O48 1.949 . S
Zn47 O54 1.919 . S
Zn47 O59 1.924 . S
O48 Zn47 1.949 . S
O48 Zn49 1.923 . S
O48 Zn50 1.950 . S
O48 Zn51 1.945 . S
Zn49 O48 1.923 . S
Zn49 O52 1.933 . S
Zn49 O55 1.941 . S
Zn49 O56 1.965 . S
Zn50 O48 1.950 . S
Zn50 O57 1.938 . S
Zn50 O58 1.906 . S
Zn50 O68 1.953 1_554 S
Zn51 O48 1.945 . S
Zn51 O53 1.932 . S
Zn51 O60 1.977 . S
Zn51 O61 1.910 . S
O52 Zn49 1.933 . S
O52 C63 1.226 . S
O53 Zn51 1.932 . S
O53 C63 1.307 . S
O54 Zn47 1.919 . S
O54 C65 1.253 . S
O55 Zn49 1.941 . S
O55 C65 1.283 . S
O56 Zn49 1.965 . S
O56 C64 1.303 . S
O57 Zn50 1.938 . S
O57 C64 1.247 . S
O58 Zn50 1.906 . S
O58 C66 1.304 . S
O59 Zn47 1.924 . S
O59 C67 1.311 . S
O60 Zn51 1.977 . S
O60 C66 1.272 . S
O61 Zn51 1.910 . S
O61 C67 1.231 . S
C62 O46 1.225 1_556 S
C62 O68 1.298 . S
C63 O52 1.226 . S
C63 O53 1.307 . S
C64 O56 1.303 . S
C64 O57 1.247 . S
C65 O54 1.253 . S
C65 O55 1.283 . S
C66 O58 1.304 . S
C66 O60 1.272 . S
C67 O59 1.311 . S
C67 O61 1.231 . S
O68 Zn50 1.953 1_556 S
O68 C62 1.298 . S
O69 Zn70 1.953 . S
O69 C85 1.225 1_556 S
Zn70 O69 1.953 . S
Zn70 O71 1.949 . S
Zn70 O77 1.919 . S
Zn70 O82 1.924 . S
O71 Zn70 1.949 . S
O71 Zn72 1.923 . S
O71 Zn73 1.950 . S
O71 Zn74 1.945 . S
Zn72 O71 1.923 . S
Zn72 O75 1.933 . S
Zn72 O78 1.941 . S
Zn72 O79 1.965 . S
Zn73 O71 1.950 . S
Zn73 O80 1.938 . S
Zn73 O81 1.906 . S
Zn73 O91 1.953 1_556 S
Zn74 O71 1.945 . S
Zn74 O76 1.932 . S
Zn74 O83 1.977 . S
Zn74 O84 1.910 . S
O75 Zn72 1.933 . S
O75 C86 1.226 . S
O76 Zn74 1.932 . S
O76 C86 1.307 . S
O77 Zn70 1.919 . S
O77 C88 1.253 . S
O78 Zn72 1.941 . S
O78 C88 1.283 . S
O79 Zn72 1.965 . S
O79 C87 1.303 . S
O80 Zn73 1.938 . S
O80 C87 1.247 . S
O81 Zn73 1.906 . S
O81 C89 1.304 . S
O82 Zn70 1.924 . S
O82 C90 1.311 . S
O83 Zn74 1.977 . S
O83 C89 1.272 . S
O84 Zn74 1.910 . S
O84 C90 1.231 . S
C85 O69 1.225 1_554 S
C85 O91 1.298 . S
C86 O75 1.226 . S
C86 O76 1.307 . S
C87 O79 1.303 . S
C87 O80 1.247 . S
C88 O77 1.253 . S
C88 O78 1.283 . S
C89 O81 1.304 . S
C89 O83 1.272 . S
C90 O82 1.311 . S
C90 O84 1.231 . S
O91 Zn73 1.953 1_554 S
O91 C85 1.298 . S
O92 Zn93 1.953 . S
O92 C108 1.225 1_556 S
Zn93 O92 1.953 . S
Zn93 O94 1.949 . S
Zn93 O100 1.919 . S
Zn93 O105 1.924 . S
O94 Zn93 1.949 . S
O94 Zn95 1.923 . S
O94 Zn96 1.950 . S
O94 Zn97 1.945 . S
Zn95 O94 1.923 . S
Zn95 O98 1.933 . S
Zn95 O101 1.941 . S
Zn95 O102 1.965 . S
Zn96 O94 1.950 . S
Zn96 O103 1.938 . S
Zn96 O104 1.906 . S
Zn96 O114 1.953 1_556 S
Zn97 O94 1.945 . S
Zn97 O99 1.932 . S
Zn97 O106 1.977 . S
Zn97 O107 1.910 . S
O98 Zn95 1.933 . S
O98 C109 1.226 . S
O99 Zn97 1.932 . S
O99 C109 1.307 . S
O100 Zn93 1.919 . S
O100 C111 1.253 . S
O101 Zn95 1.941 . S
O101 C111 1.283 . S
O102 Zn95 1.965 . S
O102 C110 1.303 . S
O103 Zn96 1.938 . S
O103 C110 1.247 . S
O104 Zn96 1.906 . S
O104 C112 1.304 . S
O105 Zn93 1.924 . S
O105 C113 1.311 . S
O106 Zn97 1.977 . S
O106 C112 1.272 . S
O107 Zn97 1.910 . S
O107 C113 1.231 . S
C108 O92 1.225 1_554 S
C108 O114 1.298 . S
C109 O98 1.226 . S
C109 O99 1.307 . S
C110 O102 1.303 . S
C110 O103 1.247 . S
C111 O100 1.253 . S
C111 O101 1.283 . S
C112 O104 1.304 . S
C112 O106 1.272 . S
C113 O105 1.311 . S
C113 O107 1.231 . S
O114 Zn96 1.953 1_554 S
O114 C108 1.298 . S
O115 Zn116 1.953 . S
O115 C131 1.225 1_556 S
Zn116 O115 1.953 . S
Zn116 O117 1.949 . S
Zn116 O123 1.919 . S
Zn116 O128 1.924 . S
O117 Zn116 1.949 . S
O117 Zn118 1.923 . S
O117 Zn119 1.950 . S
O117 Zn120 1.945 . S
Zn118 O117 1.923 . S
Zn118 O121 1.933 . S
Zn118 O124 1.941 . S
Zn118 O125 1.965 . S
Zn119 O117 1.950 . S
Zn119 O126 1.938 . S
Zn119 O127 1.906 . S
Zn119 O137 1.953 1_556 S
Zn120 O117 1.945 . S
Zn120 O122 1.932 . S
Zn120 O129 1.977 . S
Zn120 O130 1.910 . S
O121 Zn118 1.933 . S
O121 C132 1.226 . S
O122 Zn120 1.932 . S
O122 C132 1.307 . S
O123 Zn116 1.919 . S
O123 C134 1.253 . S
O124 Zn118 1.941 . S
O124 C134 1.283 . S
O125 Zn118 1.965 . S
O125 C133 1.303 . S
O126 Zn119 1.938 . S
O126 C133 1.247 . S
O127 Zn119 1.906 . S
O127 C135 1.304 . S
O128 Zn116 1.924 . S
O128 C136 1.311 . S
O129 Zn120 1.977 . S
O129 C135 1.272 . S
O130 Zn120 1.910 . S
O130 C136 1.231 . S
C131 O115 1.225 1_554 S
C131 O137 1.298 . S
C132 O121 1.226 . S
C132 O122 1.307 . S
C133 O125 1.303 . S
C133 O126 1.247 . S
C134 O123 1.253 . S
C134 O124 1.283 . S
C135 O127 1.304 . S
C135 O129 1.272 . S
C136 O128 1.311 . S
C136 O130 1.231 . S
O137 Zn119 1.953 1_554 S
O137 C131 1.298 . S
O138 Zn139 1.953 . S
O138 C154 1.225 . S
Zn139 O138 1.953 . S
Zn139 O140 1.949 . S
Zn139 O146 1.919 . S
Zn139 O151 1.924 . S
O140 Zn139 1.949 . S
O140 Zn141 1.923 . S
O140 Zn142 1.950 . S
O140 Zn143 1.945 . S
Zn141 O140 1.923 . S
Zn141 O144 1.933 . S
Zn141 O147 1.941 . S
Zn141 O148 1.965 . S
Zn142 O140 1.950 . S
Zn142 O149 1.938 . S
Zn142 O150 1.906 . S
Zn142 O160 1.953 . S
Zn143 O140 1.945 . S
Zn143 O145 1.932 . S
Zn143 O152 1.977 . S
Zn143 O153 1.910 . S
O144 Zn141 1.933 . S
O144 C155 1.226 . S
O145 Zn143 1.932 . S
O145 C155 1.307 . S
O146 Zn139 1.919 . S
O146 C157 1.253 . S
O147 Zn141 1.941 . S
O147 C157 1.283 . S
O148 Zn141 1.965 . S
O148 C156 1.303 . S
O149 Zn142 1.938 . S
O149 C156 1.247 . S
O150 Zn142 1.906 . S
O150 C158 1.304 . S
O151 Zn139 1.924 . S
O151 C159 1.311 . S
O152 Zn143 1.977 . S
O152 C158 1.272 . S
O153 Zn143 1.910 . S
O153 C159 1.231 . S
C154 O138 1.225 . S
C154 O160 1.298 . S
C155 O144 1.226 . S
C155 O145 1.307 . S
C156 O148 1.303 . S
C156 O149 1.247 . S
C157 O146 1.253 . S
C157 O147 1.283 . S
C158 O150 1.304 . S
C158 O152 1.272 . S
C159 O151 1.311 . S
C159 O153 1.231 . S
O160 Zn142 1.953 . S
O160 C154 1.298 . S
O161 Zn162 1.953 . S
O161 C177 1.225 . S
Zn162 O161 1.953 . S
Zn162 O163 1.949 . S
Zn162 O169 1.919 . S
Zn162 O174 1.924 . S
O163 Zn162 1.949 . S
O163 Zn164 1.923 . S
O163 Zn165 1.950 . S
O163 Zn166 1.945 . S
Zn164 O163 1.923 . S
Zn164 O167 1.933 . S
Zn164 O170 1.941 . S
Zn164 O171 1.965 . S
Zn165 O163 1.950 . S
Zn165 O172 1.938 . S
Zn165 O173 1.906 . S
Zn165 O183 1.953 . S
Zn166 O163 1.945 . S
Zn166 O168 1.932 . S
Zn166 O175 1.977 . S
Zn166 O176 1.910 . S
O167 Zn164 1.933 . S
O167 C178 1.226 . S
O168 Zn166 1.932 . S
O168 C178 1.307 . S
O169 Zn162 1.919 . S
O169 C180 1.253 . S
O170 Zn164 1.941 . S
O170 C180 1.283 . S
O171 Zn164 1.965 . S
O171 C179 1.303 . S
O172 Zn165 1.938 . S
O172 C179 1.247 . S
O173 Zn165 1.906 . S
O173 C181 1.304 . S
O174 Zn162 1.924 . S
O174 C182 1.311 . S
O175 Zn166 1.977 . S
O175 C181 1.272 . S
O176 Zn166 1.910 . S
O176 C182 1.231 . S
C177 O161 1.225 . S
C177 O183 1.298 . S
C178 O167 1.226 . S
C178 O168 1.307 . S
C179 O171 1.303 . S
C179 O172 1.247 . S
C180 O169 1.253 . S
C180 O170 1.283 . S
C181 O173 1.304 . S
C181 O175 1.272 . S
C182 O174 1.311 . S
C182 O176 1.231 . S
O183 Zn165 1.953 . S
O183 C177 1.298 . S
O184 Zn185 1.953 . S
O184 C200 1.225 . S
Zn185 O184 1.953 . S
Zn185 O186 1.949 . S
Zn185 O192 1.919 . S
Zn185 O197 1.924 . S
O186 Zn185 1.949 . S
O186 Zn187 1.923 . S
O186 Zn188 1.950 . S
O186 Zn189 1.945 . S
Zn187 O186 1.923 . S
Zn187 O190 1.933 . S
Zn187 O193 1.941 . S
Zn187 O194 1.965 . S
Zn188 O186 1.950 . S
Zn188 O195 1.938 . S
Zn188 O196 1.906 . S
Zn188 O206 1.953 . S
Zn189 O186 1.945 . S
Zn189 O191 1.932 . S
Zn189 O198 1.977 . S
Zn189 O199 1.910 . S
O190 Zn187 1.933 . S
O190 C201 1.226 . S
O191 Zn189 1.932 . S
O191 C201 1.307 . S
O192 Zn185 1.919 . S
O192 C203 1.253 . S
O193 Zn187 1.941 . S
O193 C203 1.283 . S
O194 Zn187 1.965 . S
O194 C202 1.303 . S
O195 Zn188 1.938 . S
O195 C202 1.247 . S
O196 Zn188 1.906 . S
O196 C204 1.304 . S
O197 Zn185 1.924 . S
O197 C205 1.311 . S
O198 Zn189 1.977 . S
O198 C204 1.272 . S
O199 Zn189 1.910 . S
O199 C205 1.231 . S
C200 O184 1.225 . S
C200 O206 1.298 . S
C201 O190 1.226 . S
C201 O191 1.307 . S
C202 O194 1.303 . S
C202 O195 1.247 . S
C203 O192 1.253 . S
C203 O193 1.283 . S
C204 O196 1.304 . S
C204 O198 1.272 . S
C205 O197 1.311 . S
C205 O199 1.231 . S
O206 Zn188 1.953 . S
O206 C200 1.298 . S
O207 Zn208 1.953 . S
O207 C223 1.225 . S
Zn208 O207 1.953 . S
Zn208 O209 1.949 . S
Zn208 O215 1.919 . S
Zn208 O220 1.924 . S
O209 Zn208 1.949 . S
O209 Zn210 1.923 . S
O209 Zn211 1.950 . S
O209 Zn212 1.945 . S
Zn210 O209 1.923 . S
Zn210 O213 1.933 . S
Zn210 O216 1.941 . S
Zn210 O217 1.965 . S
Zn211 O209 1.950 . S
Zn211 O218 1.938 . S
Zn211 O219 1.906 . S
Zn211 O229 1.953 . S
Zn212 O209 1.945 . S
Zn212 O214 1.932 . S
Zn212 O221 1.977 . S
Zn212 O222 1.910 . S
O213 Zn210 1.933 . S
O213 C224 1.226 . S
O214 Zn212 1.932 . S
O214 C224 1.307 . S
O215 Zn208 1.919 . S
O215 C226 1.253 . S
O216 Zn210 1.941 . S
O216 C226 1.283 . S
O217 Zn210 1.965 . S
O217 C225 1.303 . S
O218 Zn211 1.938 . S
O218 C225 1.247 . S
O219 Zn211 1.906 . S
O219 C227 1.304 . S
O220 Zn208 1.924 . S
O220 C228 1.311 . S
O221 Zn212 1.977 . S
O221 C227 1.272 . S
O222 Zn212 1.910 . S
O222 C228 1.231 . S
C223 O207 1.225 . S
C223 O229 1.298 . S
C224 O213 1.226 . S
C224 O214 1.307 . S
C225 O217 1.303 . S
C225 O218 1.247 . S
C226 O215 1.253 . S
C226 O216 1.283 . S
C227 O219 1.304 . S
C227 O221 1.272 . S
C228 O220 1.311 . S
C228 O222 1.231 . S
O229 Zn211 1.953 . S
O229 C223 1.298 . S
O230 Zn231 1.953 . S
O230 C246 1.225 . S
Zn231 O230 1.953 . S
Zn231 O232 1.949 . S
Zn231 O238 1.919 . S
Zn231 O243 1.924 . S
O232 Zn231 1.949 . S
O232 Zn233 1.923 . S
O232 Zn234 1.950 . S
O232 Zn235 1.945 . S
Zn233 O232 1.923 . S
Zn233 O236 1.933 . S
Zn233 O239 1.941 . S
Zn233 O240 1.965 . S
Zn234 O232 1.950 . S
Zn234 O241 1.938 . S
Zn234 O242 1.906 . S
Zn234 O252 1.953 . S
Zn235 O232 1.945 . S
Zn235 O237 1.932 . S
Zn235 O244 1.977 . S
Zn235 O245 1.910 . S
O236 Zn233 1.933 . S
O236 C247 1.226 . S
O237 Zn235 1.932 . S
O237 C247 1.307 . S
O238 Zn231 1.919 . S
O238 C249 1.253 . S
O239 Zn233 1.941 . S
O239 C249 1.283 . S
O240 Zn233 1.965 . S
O240 C248 1.303 . S
O241 Zn234 1.938 . S
O241 C248 1.247 . S
O242 Zn234 1.906 . S
O242 C250 1.304 . S
O243 Zn231 1.924 . S
O243 C251 1.311 . S
O244 Zn235 1.977 . S
O244 C250 1.272 . S
O245 Zn235 1.910 . S
O245 C251 1.231 . S
C246 O230 1.225 . S
C246 O252 1.298 . S
C247 O236 1.226 . S
C247 O237 1.307 . S
C248 O240 1.303 . S
C248 O241 1.247 . S
C249 O238 1.253 . S
C249 O239 1.283 . S
C250 O242 1.304 . S
C250 O244 1.272 . S
C251 O243 1.311 . S
C251 O245 1.231 . S
O252 Zn234 1.953 . S
O252 C246 1.298 . S
O253 Zn254 1.953 . S
O253 C269 1.225 . S
Zn254 O253 1.953 . S
Zn254 O255 1.949 . S
Zn254 O261 1.919 . S
Zn254 O266 1.924 . S
O255 Zn254 1.949 . S
O255 Zn256 1.923 . S
O255 Zn257 1.950 . S
O255 Zn258 1.945 . S
Zn256 O255 1.923 . S
Zn256 O259 1.933 . S
Zn256 O262 1.941 . S
Zn256 O263 1.965 . S
Zn257 O255 1.950 . S
Zn257 O264 1.938 . S
Zn257 O265 1.906 . S
Zn257 O275 1.953 . S
Zn258 O255 1.945 . S
Zn258 O260 1.932 . S
Zn258 O267 1.977 . S
Zn258 O268 1.910 . S
O259 Zn256 1.933 . S
O259 C270 1.226 . S
O260 Zn258 1.932 . S
O260 C270 1.307 . S
O261 Zn254 1.919 . S
O261 C272 1.253 . S
O262 Zn256 1.941 . S
O262 C272 1.283 . S
O263 Zn256 1.965 . S
O263 C271 1.303 . S
O264 Zn257 1.938 . S
O264 C271 1.247 . S
O265 Zn257 1.906 . S
O265 C273 1.304 . S
O266 Zn254 1.924 . S
O266 C274 1.311 . S
O267 Zn258 1.977 . S
O267 C273 1.272 . S
O268 Zn258 1.910 . S
O268 C274 1.231 . S
C269 O253 1.225 . S
C269 O275 1.298 . S
C270 O259 1.226 . S
C270 O260 1.307 . S
C271 O263 1.303 . S
C271 O264 1.247 . S
C272 O261 1.253 . S
C272 O262 1.283 . S
C273 O265 1.304 . S
C273 O267 1.272 . S
C274 O266 1.311 . S
C274 O268 1.231 . S
O275 Zn257 1.953 . S
O275 C269 1.298 . S
O276 Zn277 1.953 . S
O276 C292 1.225 . S
Zn277 O276 1.953 . S
Zn277 O278 1.949 . S
Zn277 O284 1.919 . S
Zn277 O289 1.924 . S
O278 Zn277 1.949 . S
O278 Zn279 1.923 . S
O278 Zn280 1.950 . S
O278 Zn281 1.945 . S
Zn279 O278 1.923 . S
Zn279 O282 1.933 . S
Zn279 O285 1.941 . S
Zn279 O286 1.965 . S
Zn280 O278 1.950 . S
Zn280 O287 1.938 . S
Zn280 O288 1.906 . S
Zn280 O298 1.953 . S
Zn281 O278 1.945 . S
Zn281 O283 1.932 . S
Zn281 O290 1.977 . S
Zn281 O291 1.910 . S
O282 Zn279 1.933 . S
O282 C293 1.226 . S
O283 Zn281 1.932 . S
O283 C293 1.307 . S
O284 Zn277 1.919 . S
O284 C295 1.253 . S
O285 Zn279 1.941 . S
O285 C295 1.283 . S
O286 Zn279 1.965 . S
O286 C294 1.303 . S
O287 Zn280 1.938 . S
O287 C294 1.247 . S
O288 Zn280 1.906 . S
O288 C296 1.304 . S
O289 Zn277 1.924 . S
O289 C297 1.311 . S
O290 Zn281 1.977 . S
O290 C296 1.272 . S
O291 Zn281 1.910 . S
O291 C297 1.231 . S
C292 O276 1.225 . S
C292 O298 1.298 . S
C293 O282 1.226 . S
C293 O283 1.307 . S
C294 O286 1.303 . S
C294 O287 1.247 . S
C295 O284 1.253 . S
C295 O285 1.283 . S
C296 O288 1.304 . S
C296 O290 1.272 . S
C297 O289 1.311 . S
C297 O291 1.231 . S
O298 Zn280 1.953 . S
O298 C292 1.298 . S
O299 Zn300 1.953 . S
O299 C315 1.225 . S
Zn300 O299 1.953 . S
Zn300 O301 1.949 . S
Zn300 O307 1.919 . S
Zn300 O312 1.924 . S
O301 Zn300 1.949 . S
O301 Zn302 1.923 . S
O301 Zn303 1.950 . S
O301 Zn304 1.945 . S
Zn302 O301 1.923 . S
Zn302 O305 1.933 . S
Zn302 O308 1.941 . S
Zn302 O309 1.965 . S
Zn303 O301 1.950 . S
Zn303 O310 1.938 . S
Zn303 O311 1.906 . S
Zn303 O321 1.953 . S
Zn304 O301 1.945 . S
Zn304 O306 1.932 . S
Zn304 O313 1.977 . S
Zn304 O314 1.910 . S
O305 Zn302 1.933 . S
O305 C316 1.226 . S
O306 Zn304 1.932 . S
O306 C316 1.307 . S
O307 Zn300 1.919 . S
O307 C318 1.253 . S
O308 Zn302 1.941 . S
O308 C318 1.283 . S
O309 Zn302 1.965 . S
O309 C317 1.303 . S
O310 Zn303 1.938 . S
O310 C317 1.247 . S
O311 Zn303 1.906 . S
O311 C319 1.304 . S
O312 Zn300 1.924 . S
O312 C320 1.311 . S
O313 Zn304 1.977 . S
O313 C319 1.272 . S
O314 Zn304 1.910 . S
O314 C320 1.231 . S
C315 O299 1.225 . S
C315 O321 1.298 . S
C316 O305 1.226 . S
C316 O306 1.307 . S
C317 O309 1.303 . S
C317 O310 1.247 . S
C318 O307 1.253 . S
C318 O308 1.283 . S
C319 O311 1.304 . S
C319 O313 1.272 . S
C320 O312 1.311 . S
C320 O314 1.231 . S
O321 Zn303 1.953 . S
O321 C315 1.298 . S
O322 Zn323 1.953 . S
O322 C338 1.225 . S
Zn323 O322 1.953 . S
Zn323 O324 1.949 . S
Zn323 O330 1.919 . S
Zn323 O335 1.924 . S
O324 Zn323 1.949 . S
O324 Zn325 1.923 . S
O324 Zn326 1.950 . S
O324 Zn327 1.945 . S
Zn325 O324 1.923 . S
Zn325 O328 1.933 . S
Zn325 O331 1.941 . S
Zn325 O332 1.965 . S
Zn326 O324 1.950 . S
Zn326 O333 1.938 . S
Zn326 O334 1.906 . S
Zn326 O344 1.953 . S
Zn327 O324 1.945 . S
Zn327 O329 1.932 . S
Zn327 O336 1.977 . S
Zn327 O337 1.910 . S
O328 Zn325 1.933 . S
O328 C339 1.226 . S
O329 Zn327 1.932 . S
O329 C339 1.307 . S
O330 Zn323 1.919 . S
O330 C341 1.253 . S
O331 Zn325 1.941 . S
O331 C341 1.283 . S
O332 Zn325 1.965 . S
O332 C340 1.303 . S
O333 Zn326 1.938 . S
O333 C340 1.247 . S
O334 Zn326 1.906 . S
O334 C342 1.304 . S
O335 Zn323 1.924 . S
O335 C343 1.311 . S
O336 Zn327 1.977 . S
O336 C342 1.272 . S
O337 Zn327 1.910 . S
O337 C343 1.231 . S
C338 O322 1.225 . S
C338 O344 1.298 . S
C339 O328 1.226 . S
C339 O329 1.307 . S
C340 O332 1.303 . S
C340 O333 1.247 . S
C341 O330 1.253 . S
C341 O331 1.283 . S
C342 O334 1.304 . S
C342 O336 1.272 . S
C343 O335 1.311 . S
C343 O337 1.231 . S
O344 Zn326 1.953 . S
O344 C338 1.298 . S
O345 Zn346 1.953 . S
O345 C361 1.225 . S
Zn346 O345 1.953 . S
Zn346 O347 1.949 . S
Zn346 O353 1.919 . S
Zn346 O358 1.924 . S
O347 Zn346 1.949 . S
O347 Zn348 1.923 . S
O347 Zn349 1.950 . S
O347 Zn350 1.945 . S
Zn348 O347 1.923 . S
Zn348 O351 1.933 . S
Zn348 O354 1.941 . S
Zn348 O355 1.965 . S
Zn349 O347 1.950 . S
Zn349 O356 1.938 . S
Zn349 O357 1.906 . S
Zn349 O367 1.953 . S
Zn350 O347 1.945 . S
Zn350 O352 1.932 . S
Zn350 O359 1.977 . S
Zn350 O360 1.910 . S
O351 Zn348 1.933 . S
O351 C362 1.226 . S
O352 Zn350 1.932 . S
O352 C362 1.307 . S
O353 Zn346 1.919 . S
O353 C364 1.253 . S
O354 Zn348 1.941 . S
O354 C364 1.283 . S
O355 Zn348 1.965 . S
O355 C363 1.303 . S
O356 Zn349 1.938 . S
O356 C363 1.247 . S
O357 Zn349 1.906 . S
O357 C365 1.304 . S
O358 Zn346 1.924 . S
O358 C366 1.311 . S
O359 Zn350 1.977 . S
O359 C365 1.272 . S
O360 Zn350 1.910 . S
O360 C366 1.231 . S
C361 O345 1.225 . S
C361 O367 1.298 . S
C362 O351 1.226 . S
C362 O352 1.307 . S
C363 O355 1.303 . S
C363 O356 1.247 . S
C364 O353 1.253 . S
C364 O354 1.283 . S
C365 O357 1.304 . S
C365 O359 1.272 . S
C366 O358 1.311 . S
C366 O360 1.231 . S
O367 Zn349 1.953 . S
O367 C361 1.298 . S
O368 Zn369 1.953 . S
O368 C384 1.225 . S
Zn369 O368 1.953 . S
Zn369 O370 1.949 . S
Zn369 O376 1.919 . S
Zn369 O381 1.924 . S
O370 Zn369 1.949 . S
O370 Zn371 1.923 . S
O370 Zn372 1.950 . S
O370 Zn373 1.945 . S
Zn371 O370 1.923 . S
Zn371 O374 1.933 . S
Zn371 O377 1.941 . S
Zn371 O378 1.965 . S
Zn372 O370 1.950 . S
Zn372 O379 1.938 . S
Zn372 O380 1.906 . S
Zn372 O390 1.953 . S
Zn373 O370 1.945 . S
Zn373 O375 1.932 . S
Zn373 O382 1.977 . S
Zn373 O383 1.910 . S
O374 Zn371 1.933 . S
O374 C385 1.226 . S
O375 Zn373 1.932 . S
O375 C385 1.307 . S
O376 Zn369 1.919 . S
O376 C387 1.253 . S
O377 Zn371 1.941 . S
O377 C387 1.283 . S
O378 Zn371 1.965 . S
O378 C386 1.303 . S
O379 Zn372 1.938 . S
O379 C386 1.247 . S
O380 Zn372 1.906 . S
O380 C388 1.304 . S
O381 Zn369 1.924 . S
O381 C389 1.311 . S
O382 Zn373 1.977 . S
O382 C388 1.272 . S
O383 Zn373 1.910 . S
O383 C389 1.231 . S
C384 O368 1.225 . S
C384 O390 1.298 . S
C385 O374 1.226 . S
C385 O375 1.307 . S
C386 O378 1.303 . S
C386 O379 1.247 . S
C387 O376 1.253 . S
C387 O377 1.283 . S
C388 O380 1.304 . S
C388 O382 1.272 . S
C389 O381 1.311 . S
C389 O383 1.231 . S
O390 Zn372 1.953 . S
O390 C384 1.298 . S
O391 Zn392 1.953 . S
O391 C407 1.225 . S
Zn392 O391 1.953 . S
Zn392 O393 1.949 . S
Zn392 O399 1.919 . S
Zn392 O404 1.924 . S
O393 Zn392 1.949 . S
O393 Zn394 1.923 . S
O393 Zn395 1.950 . S
O393 Zn396 1.945 . S
Zn394 O393 1.923 . S
Zn394 O397 1.933 . S
Zn394 O400 1.941 . S
Zn394 O401 1.965 . S
Zn395 O393 1.950 . S
Zn395 O402 1.938 . S
Zn395 O403 1.906 . S
Zn395 O413 1.953 . S
Zn396 O393 1.945 . S
Zn396 O398 1.932 . S
Zn396 O405 1.977 . S
Zn396 O406 1.910 . S
O397 Zn394 1.933 . S
O397 C408 1.226 . S
O398 Zn396 1.932 . S
O398 C408 1.307 . S
O399 Zn392 1.919 . S
O399 C410 1.253 . S
O400 Zn394 1.941 . S
O400 C410 1.283 . S
O401 Zn394 1.965 . S
O401 C409 1.303 . S
O402 Zn395 1.938 . S
O402 C409 1.247 . S
O403 Zn395 1.906 . S
O403 C411 1.304 . S
O404 Zn392 1.924 . S
O404 C412 1.311 . S
O405 Zn396 1.977 . S
O405 C411 1.272 . S
O406 Zn396 1.910 . S
O406 C412 1.231 . S
C407 O391 1.225 . S
C407 O413 1.298 . S
C408 O397 1.226 . S
C408 O398 1.307 . S
C409 O401 1.303 . S
C409 O402 1.247 . S
C410 O399 1.253 . S
C410 O400 1.283 . S
C411 O403 1.304 . S
C411 O405 1.272 . S
C412 O404 1.311 . S
C412 O406 1.231 . S
O413 Zn395 1.953 . S
O413 C407 1.298 . S
C414 C415 1.349 . S
C414 C416 1.327 . S
C414 H439 0.950 . S
C415 C414 1.349 . S
C415 C431 1.349 . S
C416 C414 1.327 . S
C416 C435 1.429 . S
C416 H440 0.950 . S
C417 C434 1.574 1_556 S
C417 C436 1.368 . S
C417 H441 0.949 1_556 S
H418 C422 0.949 . S
C419 C420 1.349 . S
C419 C421 1.327 . S
C419 H442 0.950 . S
C420 C419 1.349 . S
C420 C432 1.349 1_554 S
C421 C419 1.327 . S
C421 C437 1.429 1_554 S
C421 H443 0.950 . S
C422 H418 0.949 . S
C422 C430 1.574 . S
C422 C438 1.368 . S
H423 C431 0.950 . S
H424 C429 0.950 . S
H425 C430 0.949 . S
H426 C432 0.950 . S
H427 C433 0.950 . S
H428 C434 0.949 . S
C429 H424 0.950 . S
C429 C431 1.327 . S
C429 C435 1.429 . S
C430 C422 1.574 . S
C430 H425 0.949 . S
C430 C436 1.368 . S
C431 C415 1.349 . S
C431 H423 0.950 . S
C431 C429 1.327 . S
C432 C420 1.349 1_556 S
C432 H426 0.950 . S
C432 C433 1.327 . S
C433 H427 0.950 . S
C433 C432 1.327 . S
C433 C437 1.429 . S
C434 C417 1.574 1_554 S
C434 H428 0.949 . S
C434 C438 1.368 1_554 S
C435 C416 1.429 . S
C435 C429 1.429 . S
C435 C436 1.523 . S
C436 C417 1.368 . S
C436 C430 1.368 . S
C436 C435 1.523 . S
C437 C421 1.429 1_556 S
C437 C433 1.429 . S
C437 C438 1.523 . S
C438 C422 1.368 . S
C438 C434 1.368 1_556 S
C438 C437 1.523 . S
H439 C414 0.950 . S
H440 C416 0.950 . S
H441 C417 0.949 1_554 S
H442 C419 0.950 . S
H443 C421 0.950 . S
C444 C445 1.349 1_556 S
C444 C446 1.327 . S
C444 H469 0.950 . S
C445 C444 1.349 1_554 S
C445 C461 1.349 . S
C446 C444 1.327 . S
C446 C465 1.429 1_565 S
C446 H470 0.950 . S
C447 C464 1.574 1_554 S
C447 C466 1.368 1_554 S
C447 H471 0.949 . S
H448 C452 0.949 . S
C449 C450 1.349 . S
C449 C451 1.327 . S
C449 H472 0.950 . S
C450 C449 1.349 . S
C450 C462 1.349 . S
C451 C449 1.327 . S
C451 C467 1.429 . S
C451 H473 0.950 . S
C452 H448 0.949 . S
C452 C460 1.574 . S
C452 C468 1.368 . S
H453 C461 0.950 . S
H454 C459 0.950 . S
H455 C460 0.949 . S
H456 C462 0.950 . S
H457 C463 0.950 . S
H458 C464 0.949 1_554 S
C459 H454 0.950 . S
C459 C461 1.327 1_545 S
C459 C465 1.429 1_554 S
C460 C452 1.574 . S
C460 H455 0.949 . S
C460 C466 1.368 . S
C461 C445 1.349 . S
C461 H453 0.950 . S
C461 C459 1.327 1_565 S
C462 C450 1.349 . S
C462 H456 0.950 . S
C462 C463 1.327 . S
C463 H457 0.950 . S
C463 C462 1.327 . S
C463 C467 1.429 . S
C464 C447 1.574 1_556 S
C464 H458 0.949 1_556 S
C464 C468 1.368 . S
C465 C446 1.429 1_545 S
C465 C459 1.429 1_556 S
C465 C466 1.523 . S
C466 C447 1.368 1_556 S
C466 C460 1.368 . S
C466 C465 1.523 . S
C467 C451 1.429 . S
C467 C463 1.429 . S
C467 C468 1.523 . S
C468 C452 1.368 . S
C468 C464 1.368 . S
C468 C467 1.523 . S
H469 C444 0.950 . S
H470 C446 0.950 . S
H471 C447 0.949 . S
H472 C449 0.950 . S
H473 C451 0.950 . S
C474 C475 1.349 . S
C474 C476 1.327 . S
C474 H499 0.950 . S
C475 C474 1.349 . S
C475 C491 1.349 . S
C476 C474 1.327 . S
C476 C495 1.429 . S
C476 H500 0.950 . S
C477 C494 1.574 . S
C477 C496 1.368 . S
C477 H501 0.949 . S
H478 C482 0.949 . S
C479 C480 1.349 . S
C479 C481 1.327 1_554 S
C479 H502 0.950 . S
C480 C479 1.349 . S
C480 C492 1.349 . S
C481 C479 1.327 1_556 S
C481 C497 1.429 1_455 S
C481 H503 0.950 . S
C482 H478 0.949 . S
C482 C490 1.574 . S
C482 C498 1.368 . S
H483 C491 0.950 . S
H484 C489 0.950 . S
H485 C490 0.949 . S
H486 C492 0.950 . S
H487 C493 0.950 . S
H488 C494 0.949 . S
C489 H484 0.950 . S
C489 C491 1.327 . S
C489 C495 1.429 . S
C490 C482 1.574 . S
C490 H485 0.949 . S
C490 C496 1.368 . S
C491 C475 1.349 . S
C491 H483 0.950 . S
C491 C489 1.327 . S
C492 C480 1.349 . S
C492 H486 0.950 . S
C492 C493 1.327 1_455 S
C493 H487 0.950 . S
C493 C492 1.327 1_655 S
C493 C497 1.429 1_554 S
C494 C477 1.574 . S
C494 H488 0.949 . S
C494 C498 1.368 . S
C495 C476 1.429 . S
C495 C489 1.429 . S
C495 C496 1.523 . S
C496 C477 1.368 . S
C496 C490 1.368 . S
C496 C495 1.523 . S
C497 C481 1.429 1_655 S
C497 C493 1.429 1_556 S
C497 C498 1.523 . S
C498 C482 1.368 . S
C498 C494 1.368 . S
C498 C497 1.523 . S
H499 C474 0.950 . S
H500 C476 0.950 . S
H501 C477 0.949 . S
H502 C479 0.950 . S
H503 C481 0.950 . S
C504 C505 1.349 . S
C504 C506 1.327 . S
C504 H529 0.950 . S
C505 C504 1.349 . S
C505 C521 1.349 1_556 S
C506 C504 1.327 . S
C506 C525 1.429 1_556 S
C506 H530 0.950 . S
C507 C524 1.574 . S
C507 C526 1.368 . S
C507 H531 0.949 . S
H508 C512 0.949 1_556 S
C509 C510 1.349 . S
C509 C511 1.327 . S
C509 H532 0.950 . S
C510 C509 1.349 . S
C510 C522 1.349 . S
C511 C509 1.327 . S
C511 C527 1.429 . S
C511 H533 0.950 . S
C512 H508 0.949 1_554 S
C512 C520 1.574 1_554 S
C512 C528 1.368 . S
H513 C521 0.950 . S
H514 C519 0.950 . S
H515 C520 0.949 . S
H516 C522 0.950 . S
H517 C523 0.950 . S
H518 C524 0.949 . S
C519 H514 0.950 . S
C519 C521 1.327 . S
C519 C525 1.429 . S
C520 C512 1.574 1_556 S
C520 H515 0.949 . S
C520 C526 1.368 1_556 S
C521 C505 1.349 1_554 S
C521 H513 0.950 . S
C521 C519 1.327 . S
C522 C510 1.349 . S
C522 H516 0.950 . S
C522 C523 1.327 . S
C523 H517 0.950 . S
C523 C522 1.327 . S
C523 C527 1.429 . S
C524 C507 1.574 . S
C524 H518 0.949 . S
C524 C528 1.368 . S
C525 C506 1.429 1_554 S
C525 C519 1.429 . S
C525 C526 1.523 . S
C526 C507 1.368 . S
C526 C520 1.368 1_554 S
C526 C525 1.523 . S
C527 C511 1.429 . S
C527 C523 1.429 . S
C527 C528 1.523 . S
C528 C512 1.368 . S
C528 C524 1.368 . S
C528 C527 1.523 . S
H529 C504 0.950 . S
H530 C506 0.950 . S
H531 C507 0.949 . S
H532 C509 0.950 . S
H533 C511 0.950 . S
C534 C535 1.349 . S
C534 C536 1.327 1_545 S
C534 H559 0.950 . S
C535 C534 1.349 . S
C535 C551 1.349 1_556 S
C536 C534 1.327 1_565 S
C536 C555 1.429 1_556 S
C536 H560 0.950 . S
C537 C554 1.574 . S
C537 C556 1.368 . S
C537 H561 0.949 . S
H538 C542 0.949 1_556 S
C539 C540 1.349 . S
C539 C541 1.327 . S
C539 H562 0.950 . S
C540 C539 1.349 . S
C540 C552 1.349 . S
C541 C539 1.327 . S
C541 C557 1.429 . S
C541 H563 0.950 . S
C542 H538 0.949 1_554 S
C542 C550 1.574 1_554 S
C542 C558 1.368 . S
H543 C551 0.950 . S
H544 C549 0.950 1_565 S
H545 C550 0.949 . S
H546 C552 0.950 . S
H547 C553 0.950 . S
H548 C554 0.949 . S
C549 H544 0.950 1_545 S
C549 C551 1.327 . S
C549 C555 1.429 1_545 S
C550 C542 1.574 1_556 S
C550 H545 0.949 . S
C550 C556 1.368 1_556 S
C551 C535 1.349 1_554 S
C551 H543 0.950 . S
C551 C549 1.327 . S
C552 C540 1.349 . S
C552 H546 0.950 . S
C552 C553 1.327 . S
C553 H547 0.950 . S
C553 C552 1.327 . S
C553 C557 1.429 . S
C554 C537 1.574 . S
C554 H548 0.949 . S
C554 C558 1.368 . S
C555 C536 1.429 1_554 S
C555 C549 1.429 1_565 S
C555 C556 1.523 . S
C556 C537 1.368 . S
C556 C550 1.368 1_554 S
C556 C555 1.523 . S
C557 C541 1.429 . S
C557 C553 1.429 . S
C557 C558 1.523 . S
C558 C542 1.368 . S
C558 C554 1.368 . S
C558 C557 1.523 . S
H559 C534 0.950 . S
H560 C536 0.950 . S
H561 C537 0.949 . S
H562 C539 0.950 . S
H563 C541 0.950 . S
C564 C565 1.349 . S
C564 C566 1.327 . S
C564 H589 0.950 . S
C565 C564 1.349 . S
C565 C581 1.349 . S
C566 C564 1.327 . S
C566 C585 1.429 . S
C566 H590 0.950 . S
C567 C584 1.574 . S
C567 C586 1.368 . S
C567 H591 0.949 . S
H568 C572 0.949 . S
C569 C570 1.349 1_554 S
C569 C571 1.371 . S
C569 H592 0.950 . S
C570 C569 1.349 1_556 S
C570 C582 1.349 . S
C571 C569 1.371 . S
C571 C587 1.391 1_655 S
C571 H593 0.945 1_655 S
C572 H568 0.949 . S
C572 C580 1.574 1_556 S
C572 C588 1.368 1_556 S
H573 C581 0.950 . S
H574 C579 0.950 . S
H575 C580 0.949 1_556 S
H576 C582 0.950 . S
H577 C583 0.950 . S
H578 C584 0.949 . S
C579 H574 0.950 . S
C579 C581 1.327 . S
C579 C585 1.429 . S
C580 C572 1.574 1_554 S
C580 H575 0.949 1_554 S
C580 C586 1.368 . S
C581 C565 1.349 . S
C581 H573 0.950 . S
C581 C579 1.327 . S
C582 C570 1.349 . S
C582 H576 0.950 . S
C582 C583 1.327 1_655 S
C583 H577 0.950 . S
C583 C582 1.327 1_455 S
C583 C587 1.429 1_556 S
C584 C567 1.574 . S
C584 H578 0.949 . S
C584 C588 1.368 . S
C585 C566 1.429 . S
C585 C579 1.429 . S
C585 C586 1.523 . S
C586 C567 1.368 . S
C586 C580 1.368 . S
C586 C585 1.523 . S
C587 C571 1.391 1_455 S
C587 C583 1.429 1_554 S
C587 C588 1.523 . S
C588 C572 1.368 1_554 S
C588 C584 1.368 . S
C588 C587 1.523 . S
H589 C564 0.950 . S
H590 C566 0.950 . S
H591 C567 0.949 . S
H592 C569 0.950 . S
H593 C571 0.945 1_455 S
C594 C595 1.349 . S
C594 C596 1.327 . S
C594 H619 0.950 . S
C595 C594 1.349 . S
C595 C611 1.349 . S
C596 C594 1.327 . S
C596 C615 1.429 . S
C596 H620 0.950 . S
C597 C614 1.574 . S
C597 C616 1.368 . S
C597 H621 0.949 . S
H598 C602 0.949 . S
C599 C600 1.349 . S
C599 C601 1.327 . S
C599 H622 0.950 . S
C600 C599 1.349 . S
C600 C612 1.349 . S
C601 C599 1.327 . S
C601 C617 1.429 . S
C601 H623 0.950 . S
C602 H598 0.949 . S
C602 C610 1.574 . S
C602 C618 1.368 . S
H603 C611 0.950 . S
H604 C609 0.950 . S
H605 C610 0.949 . S
H606 C612 0.950 . S
H607 C613 0.950 . S
H608 C614 0.949 . S
C609 H604 0.950 . S
C609 C611 1.327 . S
C609 C615 1.429 . S
C610 C602 1.574 . S
C610 H605 0.949 . S
C610 C616 1.368 . S
C611 C595 1.349 . S
C611 H603 0.950 . S
C611 C609 1.327 . S
C612 C600 1.349 . S
C612 H606 0.950 . S
C612 C613 1.327 . S
C613 H607 0.950 . S
C613 C612 1.327 . S
C613 C617 1.429 . S
C614 C597 1.574 . S
C614 H608 0.949 . S
C614 C618 1.368 . S
C615 C596 1.429 . S
C615 C609 1.429 . S
C615 C616 1.523 . S
C616 C597 1.368 . S
C616 C610 1.368 . S
C616 C615 1.523 . S
C617 C601 1.429 . S
C617 C613 1.429 . S
C617 C618 1.523 . S
C618 C602 1.368 . S
C618 C614 1.368 . S
C618 C617 1.523 . S
H619 C594 0.950 . S
H620 C596 0.950 . S
H621 C597 0.949 . S
H622 C599 0.950 . S
H623 C601 0.950 . S
C624 C625 1.349 . S
C624 C626 1.327 . S
C624 H649 0.950 . S
C625 C624 1.349 . S
C625 C641 1.349 . S
C626 C624 1.327 . S
C626 C645 1.429 . S
C626 H650 0.950 . S
C627 C644 1.574 . S
C627 C646 1.368 . S
C627 H651 0.949 . S
H628 C632 0.949 . S
C629 C630 1.349 . S
C629 C631 1.327 . S
C629 H652 0.950 . S
C630 C629 1.349 . S
C630 C642 1.349 . S
C631 C629 1.327 . S
C631 C647 1.429 . S
C631 H653 0.950 . S
C632 H628 0.949 . S
C632 C640 1.574 . S
C632 C648 1.368 . S
H633 C641 0.950 . S
H634 C639 0.950 . S
H635 C640 0.949 . S
H636 C642 0.950 . S
H637 C643 0.950 . S
H638 C644 0.949 . S
C639 H634 0.950 . S
C639 C641 1.327 . S
C639 C645 1.429 . S
C640 C632 1.574 . S
C640 H635 0.949 . S
C640 C646 1.368 . S
C641 C625 1.349 . S
C641 H633 0.950 . S
C641 C639 1.327 . S
C642 C630 1.349 . S
C642 H636 0.950 . S
C642 C643 1.327 . S
C643 H637 0.950 . S
C643 C642 1.327 . S
C643 C647 1.429 . S
C644 C627 1.574 . S
C644 H638 0.949 . S
C644 C648 1.368 . S
C645 C626 1.429 . S
C645 C639 1.429 . S
C645 C646 1.523 . S
C646 C627 1.368 . S
C646 C640 1.368 . S
C646 C645 1.523 . S
C647 C631 1.429 . S
C647 C643 1.429 . S
C647 C648 1.523 . S
C648 C632 1.368 . S
C648 C644 1.368 . S
C648 C647 1.523 . S
H649 C624 0.950 . S
H650 C626 0.950 . S
H651 C627 0.949 . S
H652 C629 0.950 . S
H653 C631 0.950 . S
C654 C655 1.349 . S
C654 C656 1.327 . S
C654 H679 0.950 . S
C655 C654 1.349 . S
C655 C671 1.349 . S
C656 C654 1.327 . S
C656 C675 1.429 . S
C656 H680 0.950 . S
C657 C674 1.574 . S
C657 C676 1.368 . S
C657 H681 0.949 . S
H658 C662 0.949 . S
C659 C660 1.349 . S
C659 C661 1.327 . S
C659 H682 0.950 . S
C660 C659 1.349 . S
C660 C672 1.349 . S
C661 C659 1.327 . S
C661 C677 1.429 . S
C661 H683 0.950 . S
C662 H658 0.949 . S
C662 C670 1.574 . S
C662 C678 1.368 . S
H663 C671 0.950 . S
H664 C669 0.950 . S
H665 C670 0.949 . S
H666 C672 0.950 . S
H667 C673 0.950 . S
H668 C674 0.949 . S
C669 H664 0.950 . S
C669 C671 1.327 . S
C669 C675 1.429 . S
C670 C662 1.574 . S
C670 H665 0.949 . S
C670 C676 1.368 . S
C671 C655 1.349 . S
C671 H663 0.950 . S
C671 C669 1.327 . S
C672 C660 1.349 . S
C672 H666 0.950 . S
C672 C673 1.327 . S
C673 H667 0.950 . S
C673 C672 1.327 . S
C673 C677 1.429 . S
C674 C657 1.574 . S
C674 H668 0.949 . S
C674 C678 1.368 . S
C675 C656 1.429 . S
C675 C669 1.429 . S
C675 C676 1.523 . S
C676 C657 1.368 . S
C676 C670 1.368 . S
C676 C675 1.523 . S
C677 C661 1.429 . S
C677 C673 1.429 . S
C677 C678 1.523 . S
C678 C662 1.368 . S
C678 C674 1.368 . S
C678 C677 1.523 . S
H679 C654 0.950 . S
H680 C656 0.950 . S
H681 C657 0.949 . S
H682 C659 0.950 . S
H683 C661 0.950 . S
C684 C685 1.349 . S
C684 C686 1.327 . S
C684 H709 0.950 . S
C685 C684 1.349 . S
C685 C701 1.349 . S
C686 C684 1.327 . S
C686 C705 1.429 . S
C686 H710 0.950 . S
C687 C704 1.574 . S
C687 C706 1.368 . S
C687 H711 0.949 . S
H688 C692 0.949 . S
C689 C690 1.349 . S
C689 C691 1.327 . S
C689 H712 0.950 . S
C690 C689 1.349 . S
C690 C702 1.349 . S
C691 C689 1.327 . S
C691 C707 1.429 . S
C691 H713 0.950 . S
C692 H688 0.949 . S
C692 C700 1.574 . S
C692 C708 1.368 . S
H693 C701 0.950 . S
H694 C699 0.950 . S
H695 C700 0.949 . S
H696 C702 0.950 . S
H697 C703 0.950 . S
H698 C704 0.949 . S
C699 H694 0.950 . S
C699 C701 1.327 . S
C699 C705 1.429 . S
C700 C692 1.574 . S
C700 H695 0.949 . S
C700 C706 1.368 . S
C701 C685 1.349 . S
C701 H693 0.950 . S
C701 C699 1.327 . S
C702 C690 1.349 . S
C702 H696 0.950 . S
C702 C703 1.327 . S
C703 H697 0.950 . S
C703 C702 1.327 . S
C703 C707 1.429 . S
C704 C687 1.574 . S
C704 H698 0.949 . S
C704 C708 1.368 . S
C705 C686 1.429 . S
C705 C699 1.429 . S
C705 C706 1.523 . S
C706 C687 1.368 . S
C706 C700 1.368 . S
C706 C705 1.523 . S
C707 C691 1.429 . S
C707 C703 1.429 . S
C707 C708 1.523 . S
C708 C692 1.368 . S
C708 C704 1.368 . S
C708 C707 1.523 . S
H709 C684 0.950 . S
H710 C686 0.950 . S
H711 C687 0.949 . S
H712 C689 0.950 . S
H713 C691 0.950 . S
C714 C715 1.349 . S
C714 C716 1.327 . S
C714 H739 0.950 . S
C715 C714 1.349 . S
C715 C731 1.349 . S
C716 C714 1.327 . S
C716 C735 1.429 . S
C716 H740 0.950 . S
C717 C734 1.574 . S
C717 C736 1.368 . S
C717 H741 0.949 . S
H718 C722 0.949 . S
C719 C720 1.349 . S
C719 C721 1.327 . S
C719 H742 0.950 . S
C720 C719 1.349 . S
C720 C732 1.349 . S
C721 C719 1.327 . S
C721 C737 1.429 . S
C721 H743 0.950 . S
C722 H718 0.949 . S
C722 C730 1.574 . S
C722 C738 1.368 . S
H723 C731 0.950 . S
H724 C729 0.950 . S
H725 C730 0.949 . S
H726 C732 0.950 . S
H727 C733 0.950 . S
H728 C734 0.949 . S
C729 H724 0.950 . S
C729 C731 1.327 . S
C729 C735 1.429 . S
C730 C722 1.574 . S
C730 H725 0.949 . S
C730 C736 1.368 . S
C731 C715 1.349 . S
C731 H723 0.950 . S
C731 C729 1.327 . S
C732 C720 1.349 . S
C732 H726 0.950 . S
C732 C733 1.327 . S
C733 H727 0.950 . S
C733 C732 1.327 . S
C733 C737 1.429 . S
C734 C717 1.574 . S
C734 H728 0.949 . S
C734 C738 1.368 . S
C735 C716 1.429 . S
C735 C729 1.429 . S
C735 C736 1.523 . S
C736 C717 1.368 . S
C736 C730 1.368 . S
C736 C735 1.523 . S
C737 C721 1.429 . S
C737 C733 1.429 . S
C737 C738 1.523 . S
C738 C722 1.368 . S
C738 C734 1.368 . S
C738 C737 1.523 . S
H739 C714 0.950 . S
H740 C716 0.950 . S
H741 C717 0.949 . S
H742 C719 0.950 . S
H743 C721 0.950 . S
C744 C745 1.349 . S
C744 C746 1.327 . S
C744 H769 0.950 . S
C745 C744 1.349 . S
C745 C761 1.349 . S
C746 C744 1.327 . S
C746 C765 1.429 . S
C746 H770 0.950 . S
C747 C764 1.574 . S
C747 C766 1.368 . S
C747 H771 0.949 . S
H748 C752 0.949 . S
C749 C750 1.349 . S
C749 C751 1.327 . S
C749 H772 0.950 . S
C750 C749 1.349 . S
C750 C762 1.349 . S
C751 C749 1.327 . S
C751 C767 1.429 . S
C751 H773 0.950 . S
C752 H748 0.949 . S
C752 C760 1.574 . S
C752 C768 1.368 . S
H753 C761 0.950 . S
H754 C759 0.950 . S
H755 C760 0.949 . S
H756 C762 0.950 . S
H757 C763 0.950 . S
H758 C764 0.949 . S
C759 H754 0.950 . S
C759 C761 1.327 . S
C759 C765 1.429 . S
C760 C752 1.574 . S
C760 H755 0.949 . S
C760 C766 1.368 . S
C761 C745 1.349 . S
C761 H753 0.950 . S
C761 C759 1.327 . S
C762 C750 1.349 . S
C762 H756 0.950 . S
C762 C763 1.327 . S
C763 H757 0.950 . S
C763 C762 1.327 . S
C763 C767 1.429 . S
C764 C747 1.574 . S
C764 H758 0.949 . S
C764 C768 1.368 . S
C765 C746 1.429 . S
C765 C759 1.429 . S
C765 C766 1.523 . S
C766 C747 1.368 . S
C766 C760 1.368 . S
C766 C765 1.523 . S
C767 C751 1.429 . S
C767 C763 1.429 . S
C767 C768 1.523 . S
C768 C752 1.368 . S
C768 C764 1.368 . S
C768 C767 1.523 . S
H769 C744 0.950 . S
H770 C746 0.950 . S
H771 C747 0.949 . S
H772 C749 0.950 . S
H773 C751 0.950 . S
C774 C775 1.349 . S
C774 C776 1.327 . S
C774 H799 0.950 . S
C775 C774 1.349 . S
C775 C791 1.349 . S
C776 C774 1.327 . S
C776 C795 1.429 . S
C776 H800 0.950 . S
C777 C794 1.574 . S
C777 C796 1.368 . S
C777 H801 0.949 . S
H778 C782 0.949 . S
C779 C780 1.349 . S
C779 C781 1.327 . S
C779 H802 0.950 . S
C780 C779 1.349 . S
C780 C792 1.349 . S
C781 C779 1.327 . S
C781 C797 1.429 . S
C781 H803 0.950 . S
C782 H778 0.949 . S
C782 C790 1.574 . S
C782 C798 1.368 . S
H783 C791 0.950 . S
H784 C789 0.950 . S
H785 C790 0.949 . S
H786 C792 0.950 . S
H787 C793 0.950 . S
H788 C794 0.949 . S
C789 H784 0.950 . S
C789 C791 1.327 . S
C789 C795 1.429 . S
C790 C782 1.574 . S
C790 H785 0.949 . S
C790 C796 1.368 . S
C791 C775 1.349 . S
C791 H783 0.950 . S
C791 C789 1.327 . S
C792 C780 1.349 . S
C792 H786 0.950 . S
C792 C793 1.327 . S
C793 H787 0.950 . S
C793 C792 1.327 . S
C793 C797 1.429 . S
C794 C777 1.574 . S
C794 H788 0.949 . S
C794 C798 1.368 . S
C795 C776 1.429 . S
C795 C789 1.429 . S
C795 C796 1.523 . S
C796 C777 1.368 . S
C796 C790 1.368 . S
C796 C795 1.523 . S
C797 C781 1.429 . S
C797 C793 1.429 . S
C797 C798 1.523 . S
C798 C782 1.368 . S
C798 C794 1.368 . S
C798 C797 1.523 . S
H799 C774 0.950 . S
H800 C776 0.950 . S
H801 C777 0.949 . S
H802 C779 0.950 . S
H803 C781 0.950 . S
C804 C805 1.349 . S
C804 C806 1.327 . S
C804 H829 0.950 . S
C805 C804 1.349 . S
C805 C821 1.349 . S
C806 C804 1.327 . S
C806 C825 1.429 . S
C806 H830 0.950 . S
C807 C824 1.574 . S
C807 C826 1.368 . S
C807 H831 0.949 . S
H808 C812 0.949 . S
C809 C810 1.349 . S
C809 C811 1.327 . S
C809 H832 0.950 . S
C810 C809 1.349 . S
C810 C822 1.349 . S
C811 C809 1.327 . S
C811 C827 1.429 . S
C811 H833 0.950 . S
C812 H808 0.949 . S
C812 C820 1.574 . S
C812 C828 1.368 . S
H813 C821 0.950 . S
H814 C819 0.950 . S
H815 C820 0.949 . S
H816 C822 0.950 . S
H817 C823 0.950 . S
H818 C824 0.949 . S
C819 H814 0.950 . S
C819 C821 1.327 . S
C819 C825 1.429 . S
C820 C812 1.574 . S
C820 H815 0.949 . S
C820 C826 1.368 . S
C821 C805 1.349 . S
C821 H813 0.950 . S
C821 C819 1.327 . S
C822 C810 1.349 . S
C822 H816 0.950 . S
C822 C823 1.327 . S
C823 H817 0.950 . S
C823 C822 1.327 . S
C823 C827 1.429 . S
C824 C807 1.574 . S
C824 H818 0.949 . S
C824 C828 1.368 . S
C825 C806 1.429 . S
C825 C819 1.429 . S
C825 C826 1.523 . S
C826 C807 1.368 . S
C826 C820 1.368 . S
C826 C825 1.523 . S
C827 C811 1.429 . S
C827 C823 1.429 . S
C827 C828 1.523 . S
C828 C812 1.368 . S
C828 C824 1.368 . S
C828 C827 1.523 . S
H829 C804 0.950 . S
H830 C806 0.950 . S
H831 C807 0.949 . S
H832 C809 0.950 . S
H833 C811 0.950 . S
C834 C835 1.349 . S
C834 C836 1.327 . S
C834 H859 0.950 . S
C835 C834 1.349 . S
C835 C851 1.349 . S
C836 C834 1.327 . S
C836 C855 1.429 . S
C836 H860 0.950 . S
C837 C854 1.574 . S
C837 C856 1.368 . S
C837 H861 0.949 . S
H838 C842 0.949 . S
C839 C840 1.349 . S
C839 C841 1.327 . S
C839 H862 0.950 . S
C840 C839 1.349 . S
C840 C852 1.349 . S
C841 C839 1.327 . S
C841 C857 1.429 . S
C841 H863 0.950 . S
C842 H838 0.949 . S
C842 C850 1.574 . S
C842 C858 1.368 . S
H843 C851 0.950 . S
H844 C849 0.950 . S
H845 C850 0.949 . S
H846 C852 0.950 . S
H847 C853 0.950 . S
H848 C854 0.949 . S
C849 H844 0.950 . S
C849 C851 1.327 . S
C849 C855 1.429 . S
C850 C842 1.574 . S
C850 H845 0.949 . S
C850 C856 1.368 . S
C851 C835 1.349 . S
C851 H843 0.950 . S
C851 C849 1.327 . S
C852 C840 1.349 . S
C852 H846 0.950 . S
C852 C853 1.327 . S
C853 H847 0.950 . S
C853 C852 1.327 . S
C853 C857 1.429 . S
C854 C837 1.574 . S
C854 H848 0.949 . S
C854 C858 1.368 . S
C855 C836 1.429 . S
C855 C849 1.429 . S
C855 C856 1.523 . S
C856 C837 1.368 . S
C856 C850 1.368 . S
C856 C855 1.523 . S
C857 C841 1.429 . S
C857 C853 1.429 . S
C857 C858 1.523 . S
C858 C842 1.368 . S
C858 C854 1.368 . S
C858 C857 1.523 . S
H859 C834 0.950 . S
H860 C836 0.950 . S
H861 C837 0.949 . S
H862 C839 0.950 . S
H863 C841 0.950 . S
C864 C865 1.349 . S
C864 C866 1.327 . S
C864 H889 0.950 . S
C865 C864 1.349 . S
C865 C881 1.349 . S
C866 C864 1.327 . S
C866 C885 1.429 . S
C866 H890 0.950 . S
C867 C884 1.574 . S
C867 C886 1.368 . S
C867 H891 0.949 . S
H868 C872 0.949 . S
C869 C870 1.349 . S
C869 C871 1.327 . S
C869 H892 0.950 . S
C870 C869 1.349 . S
C870 C882 1.349 . S
C871 C869 1.327 . S
C871 C887 1.429 . S
C871 H893 0.950 . S
C872 H868 0.949 . S
C872 C880 1.574 . S
C872 C888 1.368 . S
H873 C881 0.950 . S
H874 C879 0.950 . S
H875 C880 0.949 . S
H876 C882 0.950 . S
H877 C883 0.950 . S
H878 C884 0.949 . S
C879 H874 0.950 . S
C879 C881 1.327 . S
C879 C885 1.429 . S
C880 C872 1.574 . S
C880 H875 0.949 . S
C880 C886 1.368 . S
C881 C865 1.349 . S
C881 H873 0.950 . S
C881 C879 1.327 . S
C882 C870 1.349 . S
C882 H876 0.950 . S
C882 C883 1.327 . S
C883 H877 0.950 . S
C883 C882 1.327 . S
C883 C887 1.429 . S
C884 C867 1.574 . S
C884 H878 0.949 . S
C884 C888 1.368 . S
C885 C866 1.429 . S
C885 C879 1.429 . S
C885 C886 1.523 . S
C886 C867 1.368 . S
C886 C880 1.368 . S
C886 C885 1.523 . S
C887 C871 1.429 . S
C887 C883 1.429 . S
C887 C888 1.523 . S
C888 C872 1.368 . S
C888 C884 1.368 . S
C888 C887 1.523 . S
H889 C864 0.950 . S
H890 C866 0.950 . S
H891 C867 0.949 . S
H892 C869 0.950 . S
H893 C871 0.950 . S
C894 C895 1.349 . S
C894 C896 1.327 . S
C894 H919 0.950 . S
C895 C894 1.349 . S
C895 C911 1.349 . S
C896 C894 1.327 . S
C896 C915 1.429 . S
C896 H920 0.950 . S
C897 C914 1.574 . S
C897 C916 1.368 . S
C897 H921 0.949 . S
H898 C902 0.949 . S
C899 C900 1.349 . S
C899 C901 1.327 . S
C899 H922 0.950 . S
C900 C899 1.349 . S
C900 C912 1.349 . S
C901 C899 1.327 . S
C901 C917 1.429 . S
C901 H923 0.950 . S
C902 H898 0.949 . S
C902 C910 1.574 . S
C902 C918 1.368 . S
H903 C911 0.950 . S
H904 C909 0.950 . S
H905 C910 0.949 . S
H906 C912 0.950 . S
H907 C913 0.950 . S
H908 C914 0.949 . S
C909 H904 0.950 . S
C909 C911 1.327 . S
C909 C915 1.429 . S
C910 C902 1.574 . S
C910 H905 0.949 . S
C910 C916 1.368 . S
C911 C895 1.349 . S
C911 H903 0.950 . S
C911 C909 1.327 . S
C912 C900 1.349 . S
C912 H906 0.950 . S
C912 C913 1.327 . S
C913 H907 0.950 . S
C913 C912 1.327 . S
C913 C917 1.429 . S
C914 C897 1.574 . S
C914 H908 0.949 . S
C914 C918 1.368 . S
C915 C896 1.429 . S
C915 C909 1.429 . S
C915 C916 1.523 . S
C916 C897 1.368 . S
C916 C910 1.368 . S
C916 C915 1.523 . S
C917 C901 1.429 . S
C917 C913 1.429 . S
C917 C918 1.523 . S
C918 C902 1.368 . S
C918 C914 1.368 . S
C918 C917 1.523 . S
H919 C894 0.950 . S
H920 C896 0.950 . S
H921 C897 0.949 . S
H922 C899 0.950 . S
H923 C901 0.950 . S
C924 C925 1.349 . S
C924 C926 1.327 . S
C924 H949 0.950 . S
C925 C924 1.349 . S
C925 C941 1.349 . S
C926 C924 1.327 . S
C926 C945 1.429 . S
C926 H950 0.950 . S
C927 C944 1.574 . S
C927 C946 1.368 . S
C927 H951 0.949 . S
H928 C932 0.949 . S
C929 C930 1.349 . S
C929 C931 1.327 . S
C929 H952 0.950 . S
C930 C929 1.349 . S
C930 C942 1.349 . S
C931 C929 1.327 . S
C931 C947 1.429 . S
C931 H953 0.950 . S
C932 H928 0.949 . S
C932 C940 1.574 . S
C932 C948 1.368 . S
H933 C941 0.950 . S
H934 C939 0.950 . S
H935 C940 0.949 . S
H936 C942 0.950 . S
H937 C943 0.950 . S
H938 C944 0.949 . S
C939 H934 0.950 . S
C939 C941 1.327 . S
C939 C945 1.429 . S
C940 C932 1.574 . S
C940 H935 0.949 . S
C940 C946 1.368 . S
C941 C925 1.349 . S
C941 H933 0.950 . S
C941 C939 1.327 . S
C942 C930 1.349 . S
C942 H936 0.950 . S
C942 C943 1.327 . S
C943 H937 0.950 . S
C943 C942 1.327 . S
C943 C947 1.429 . S
C944 C927 1.574 . S
C944 H938 0.949 . S
C944 C948 1.368 . S
C945 C926 1.429 . S
C945 C939 1.429 . S
C945 C946 1.523 . S
C946 C927 1.368 . S
C946 C940 1.368 . S
C946 C945 1.523 . S
C947 C931 1.429 . S
C947 C943 1.429 . S
C947 C948 1.523 . S
C948 C932 1.368 . S
C948 C944 1.368 . S
C948 C947 1.523 . S
H949 C924 0.950 . S
H950 C926 0.950 . S
H951 C927 0.949 . S
H952 C929 0.950 . S
H953 C931 0.950 . S
C954 C955 1.349 . S
C954 C956 1.327 . S
C954 H979 0.950 . S
C955 C954 1.349 . S
C955 C971 1.349 . S
C956 C954 1.327 . S
C956 C975 1.429 . S
C956 H980 0.950 . S
C957 C974 1.574 . S
C957 C976 1.368 . S
C957 H981 0.949 . S
H958 C962 0.949 . S
C959 C960 1.349 . S
C959 C961 1.327 . S
C959 H982 0.950 . S
C960 C959 1.349 . S
C960 C972 1.349 . S
C961 C959 1.327 . S
C961 C977 1.429 . S
C961 H983 0.950 . S
C962 H958 0.949 . S
C962 C970 1.574 . S
C962 C978 1.368 . S
H963 C971 0.950 . S
H964 C969 0.950 . S
H965 C970 0.949 . S
H966 C972 0.950 . S
H967 C973 0.950 . S
H968 C974 0.949 . S
C969 H964 0.950 . S
C969 C971 1.327 . S
C969 C975 1.429 . S
C970 C962 1.574 . S
C970 H965 0.949 . S
C970 C976 1.368 . S
C971 C955 1.349 . S
C971 H963 0.950 . S
C971 C969 1.327 . S
C972 C960 1.349 . S
C972 H966 0.950 . S
C972 C973 1.327 . S
C973 H967 0.950 . S
C973 C972 1.327 . S
C973 C977 1.429 . S
C974 C957 1.574 . S
C974 H968 0.949 . S
C974 C978 1.368 . S
C975 C956 1.429 . S
C975 C969 1.429 . S
C975 C976 1.523 . S
C976 C957 1.368 . S
C976 C970 1.368 . S
C976 C975 1.523 . S
C977 C961 1.429 . S
C977 C973 1.429 . S
C977 C978 1.523 . S
C978 C962 1.368 . S
C978 C974 1.368 . S
C978 C977 1.523 . S
H979 C954 0.950 . S
H980 C956 0.950 . S
H981 C957 0.949 . S
H982 C959 0.950 . S
H983 C961 0.950 . S
C984 C985 1.349 . S
C984 C986 1.327 . S
C984 H1009 0.950 . S
C985 C984 1.349 . S
C985 C1001 1.349 . S
C986 C984 1.327 . S
C986 C1005 1.429 . S
C986 H1010 0.950 . S
C987 C1004 1.574 . S
C987 C1006 1.368 . S
C987 H1011 0.949 . S
H988 C992 0.949 . S
C989 C990 1.349 . S
C989 C991 1.327 . S
C989 H1012 0.950 . S
C990 C989 1.349 . S
C990 C1002 1.349 . S
C991 C989 1.327 . S
C991 C1007 1.429 . S
C991 H1013 0.950 . S
C992 H988 0.949 . S
C992 C1000 1.574 . S
C992 C1008 1.368 . S
H993 C1001 0.951 1_554 S
H994 C999 0.950 . S
H995 C1000 0.949 . S
H996 C1002 0.950 . S
H997 C1003 0.950 . S
H998 C1004 0.949 . S
C999 H994 0.950 . S
C999 C1001 1.327 . S
C999 C1005 1.429 . S
C1000 C992 1.574 . S
C1000 H995 0.949 . S
C1000 C1006 1.368 . S
C1001 C985 1.349 . S
C1001 H993 0.951 1_556 S
C1001 C999 1.327 . S
C1002 C990 1.349 . S
C1002 H996 0.950 . S
C1002 C1003 1.327 . S
C1003 H997 0.950 . S
C1003 C1002 1.327 . S
C1003 C1007 1.429 . S
C1004 C987 1.574 . S
C1004 H998 0.949 . S
C1004 C1008 1.368 . S
C1005 C986 1.429 . S
C1005 C999 1.429 . S
C1005 C1006 1.523 . S
C1006 C987 1.368 . S
C1006 C1000 1.368 . S
C1006 C1005 1.523 . S
C1007 C991 1.429 . S
C1007 C1003 1.429 . S
C1007 C1008 1.523 . S
C1008 C992 1.368 . S
C1008 C1004 1.368 . S
C1008 C1007 1.523 . S
H1009 C984 0.950 . S
H1010 C986 0.950 . S
H1011 C987 0.949 . S
H1012 C989 0.950 . S
H1013 C991 0.950 . S
C1014 C1015 1.349 . S
C1014 C1016 1.327 . S
C1014 H1039 0.950 . S
C1015 C1014 1.349 . S
C1015 C1031 1.349 . S
C1016 C1014 1.327 . S
C1016 C1035 1.429 . S
C1016 H1040 0.950 . S
C1017 C1034 1.574 . S
C1017 C1036 1.368 . S
C1017 H1041 0.949 . S
H1018 C1022 0.949 . S
C1019 C1020 1.349 . S
C1019 C1021 1.327 . S
C1019 H1042 0.950 . S
C1020 C1019 1.349 . S
C1020 C1032 1.349 . S
C1021 C1019 1.327 . S
C1021 C1037 1.429 . S
C1021 H1043 0.950 . S
C1022 H1018 0.949 . S
C1022 C1030 1.574 . S
C1022 C1038 1.368 . S
H1023 C1031 0.950 . S
H1024 C1029 0.950 . S
H1025 C1030 0.949 . S
H1026 C1032 0.950 . S
H1027 C1033 0.950 . S
H1028 C1034 0.949 . S
C1029 H1024 0.950 . S
C1029 C1031 1.327 . S
C1029 C1035 1.429 . S
C1030 C1022 1.574 . S
C1030 H1025 0.949 . S
C1030 C1036 1.368 . S
C1031 C1015 1.349 . S
C1031 H1023 0.950 . S
C1031 C1029 1.327 . S
C1032 C1020 1.349 . S
C1032 H1026 0.950 . S
C1032 C1033 1.327 . S
C1033 H1027 0.950 . S
C1033 C1032 1.327 . S
C1033 C1037 1.429 . S
C1034 C1017 1.574 . S
C1034 H1028 0.949 . S
C1034 C1038 1.368 . S
C1035 C1016 1.429 . S
C1035 C1029 1.429 . S
C1035 C1036 1.523 . S
C1036 C1017 1.368 . S
C1036 C1030 1.368 . S
C1036 C1035 1.523 . S
C1037 C1021 1.429 . S
C1037 C1033 1.429 . S
C1037 C1038 1.523 . S
C1038 C1022 1.368 . S
C1038 C1034 1.368 . S
C1038 C1037 1.523 . S
H1039 C1014 0.950 . S
H1040 C1016 0.950 . S
H1041 C1017 0.949 . S
H1042 C1019 0.950 . S
H1043 C1021 0.950 . S
C1044 C1045 1.349 . S
C1044 C1046 1.327 . S
C1044 H1069 0.950 . S
C1045 C1044 1.349 . S
C1045 C1061 1.349 . S
C1046 C1044 1.327 . S
C1046 C1065 1.429 . S
C1046 H1070 0.950 . S
C1047 C1064 1.574 . S
C1047 C1066 1.368 . S
C1047 H1071 0.949 . S
H1048 C1052 0.949 . S
C1049 C1050 1.349 . S
C1049 C1051 1.327 . S
C1049 H1072 0.950 . S
C1050 C1049 1.349 . S
C1050 C1062 1.349 . S
C1051 C1049 1.327 . S
C1051 C1067 1.429 . S
C1051 H1073 0.950 . S
C1052 H1048 0.949 . S
C1052 C1060 1.574 . S
C1052 C1068 1.368 . S
H1053 C1061 0.950 . S
H1054 C1059 0.950 . S
H1055 C1060 0.949 . S
H1056 C1062 0.950 . S
H1057 C1063 0.950 . S
H1058 C1064 0.949 . S
C1059 H1054 0.950 . S
C1059 C1061 1.327 . S
C1059 C1065 1.429 . S
C1060 C1052 1.574 . S
C1060 H1055 0.949 . S
C1060 C1066 1.368 . S
C1061 C1045 1.349 . S
C1061 H1053 0.950 . S
C1061 C1059 1.327 . S
C1062 C1050 1.349 . S
C1062 H1056 0.950 . S
C1062 C1063 1.327 . S
C1063 H1057 0.950 . S
C1063 C1062 1.327 . S
C1063 C1067 1.429 . S
C1064 C1047 1.574 . S
C1064 H1058 0.949 . S
C1064 C1068 1.368 . S
C1065 C1046 1.429 . S
C1065 C1059 1.429 . S
C1065 C1066 1.523 . S
C1066 C1047 1.368 . S
C1066 C1060 1.368 . S
C1066 C1065 1.523 . S
C1067 C1051 1.429 . S
C1067 C1063 1.429 . S
C1067 C1068 1.523 . S
C1068 C1052 1.368 . S
C1068 C1064 1.368 . S
C1068 C1067 1.523 . S
H1069 C1044 0.950 . S
H1070 C1046 0.950 . S
H1071 C1047 0.949 . S
H1072 C1049 0.950 . S
H1073 C1051 0.950 . S
C1074 C1075 1.349 . S
C1074 C1076 1.327 . S
C1074 H1099 0.950 . S
C1075 C1074 1.349 . S
C1075 C1091 1.349 . S
C1076 C1074 1.327 . S
C1076 C1095 1.429 . S
C1076 H1100 0.950 . S
C1077 C1094 1.574 . S
C1077 C1096 1.368 . S
C1077 H1101 0.949 . S
H1078 C1082 0.949 . S
C1079 C1080 1.349 . S
C1079 C1081 1.327 . S
C1079 H1102 0.950 . S
C1080 C1079 1.349 . S
C1080 C1092 1.349 . S
C1081 C1079 1.327 . S
C1081 C1097 1.429 . S
C1081 H1103 0.950 . S
C1082 H1078 0.949 . S
C1082 C1090 1.574 . S
C1082 C1098 1.368 . S
H1083 C1091 0.950 . S
H1084 C1089 0.950 . S
H1085 C1090 0.949 . S
H1086 C1092 0.950 . S
H1087 C1093 0.950 . S
H1088 C1094 0.949 . S
C1089 H1084 0.950 . S
C1089 C1091 1.327 . S
C1089 C1095 1.429 . S
C1090 C1082 1.574 . S
C1090 H1085 0.949 . S
C1090 C1096 1.368 . S
C1091 C1075 1.349 . S
C1091 H1083 0.950 . S
C1091 C1089 1.327 . S
C1092 C1080 1.349 . S
C1092 H1086 0.950 . S
C1092 C1093 1.327 . S
C1093 H1087 0.950 . S
C1093 C1092 1.327 . S
C1093 C1097 1.429 . S
C1094 C1077 1.574 . S
C1094 H1088 0.949 . S
C1094 C1098 1.368 . S
C1095 C1076 1.429 . S
C1095 C1089 1.429 . S
C1095 C1096 1.523 . S
C1096 C1077 1.368 . S
C1096 C1090 1.368 . S
C1096 C1095 1.523 . S
C1097 C1081 1.429 . S
C1097 C1093 1.429 . S
C1097 C1098 1.523 . S
C1098 C1082 1.368 . S
C1098 C1094 1.368 . S
C1098 C1097 1.523 . S
H1099 C1074 0.950 . S
H1100 C1076 0.950 . S
H1101 C1077 0.949 . S
H1102 C1079 0.950 . S
H1103 C1081 0.950 . S
C1104 C1105 1.349 . S
C1104 C1106 1.327 . S
C1104 H1129 0.950 . S
C1105 C1104 1.349 . S
C1105 C1121 1.349 . S
C1106 C1104 1.327 . S
C1106 C1125 1.429 . S
C1106 H1130 0.950 . S
C1107 C1124 1.574 . S
C1107 C1126 1.368 . S
C1107 H1131 0.949 . S
H1108 C1112 0.949 . S
C1109 C1110 1.349 . S
C1109 C1111 1.327 . S
C1109 H1132 0.950 . S
C1110 C1109 1.349 . S
C1110 C1122 1.349 . S
C1111 C1109 1.327 . S
C1111 C1127 1.429 . S
C1111 H1133 0.950 . S
C1112 H1108 0.949 . S
C1112 C1120 1.574 . S
C1112 C1128 1.368 . S
H1113 C1121 0.950 . S
H1114 C1119 0.950 . S
H1115 C1120 0.949 . S
H1116 C1122 0.950 . S
H1117 C1123 0.950 . S
H1118 C1124 0.949 . S
C1119 H1114 0.950 . S
C1119 C1121 1.327 . S
C1119 C1125 1.429 . S
C1120 C1112 1.574 . S
C1120 H1115 0.949 . S
C1120 C1126 1.368 . S
C1121 C1105 1.349 . S
C1121 H1113 0.950 . S
C1121 C1119 1.327 . S
C1122 C1110 1.349 . S
C1122 H1116 0.950 . S
C1122 C1123 1.327 . S
C1123 H1117 0.950 . S
C1123 C1122 1.327 . S
C1123 C1127 1.429 . S
C1124 C1107 1.574 . S
C1124 H1118 0.949 . S
C1124 C1128 1.368 . S
C1125 C1106 1.429 . S
C1125 C1119 1.429 . S
C1125 C1126 1.523 . S
C1126 C1107 1.368 . S
C1126 C1120 1.368 . S
C1126 C1125 1.523 . S
C1127 C1111 1.429 . S
C1127 C1123 1.429 . S
C1127 C1128 1.523 . S
C1128 C1112 1.368 . S
C1128 C1124 1.368 . S
C1128 C1127 1.523 . S
H1129 C1104 0.950 . S
H1130 C1106 0.950 . S
H1131 C1107 0.949 . S
H1132 C1109 0.950 . S
H1133 C1111 0.950 . S
C1134 C1135 1.349 . S
C1134 C1136 1.327 . S
C1134 H1159 0.950 . S
C1135 C1134 1.349 . S
C1135 C1151 1.349 . S
C1136 C1134 1.327 . S
C1136 C1155 1.429 . S
C1136 H1160 0.950 1_565 S
C1137 C1154 1.574 . S
C1137 C1156 1.368 . S
C1137 H1161 0.949 . S
H1138 C1142 0.949 . S
C1139 C1140 1.349 . S
C1139 C1141 1.327 . S
C1139 H1162 0.950 . S
C1140 C1139 1.349 . S
C1140 C1152 1.349 . S
C1141 C1139 1.327 . S
C1141 C1157 1.429 . S
C1141 H1163 0.950 1_545 S
C1142 H1138 0.949 . S
C1142 C1150 1.574 . S
C1142 C1158 1.368 . S
H1143 C1151 0.950 . S
H1144 C1149 0.950 . S
H1145 C1150 0.949 . S
H1146 C1152 0.950 . S
H1147 C1153 0.950 . S
H1148 C1154 0.949 . S
C1149 H1144 0.950 . S
C1149 C1151 1.327 . S
C1149 C1155 1.429 . S
C1150 C1142 1.574 . S
C1150 H1145 0.949 . S
C1150 C1156 1.368 1_545 S
C1151 C1135 1.349 . S
C1151 H1143 0.950 . S
C1151 C1149 1.327 . S
C1152 C1140 1.349 . S
C1152 H1146 0.950 . S
C1152 C1153 1.327 . S
C1153 H1147 0.950 . S
C1153 C1152 1.327 . S
C1153 C1157 1.429 . S
C1154 C1137 1.574 . S
C1154 H1148 0.949 . S
C1154 C1158 1.368 1_565 S
C1155 C1136 1.429 . S
C1155 C1149 1.429 . S
C1155 C1156 1.523 . S
C1156 C1137 1.368 . S
C1156 C1150 1.368 1_565 S
C1156 C1155 1.523 . S
C1157 C1141 1.429 . S
C1157 C1153 1.429 . S
C1157 C1158 1.523 . S
C1158 C1142 1.368 . S
C1158 C1154 1.368 1_545 S
C1158 C1157 1.523 . S
H1159 C1134 0.950 . S
H1160 C1136 0.950 1_545 S
H1161 C1137 0.949 . S
H1162 C1139 0.950 . S
H1163 C1141 0.950 1_565 S
C1164 C1165 1.349 . S
C1164 C1166 1.327 . S
C1164 H1189 0.950 . S
C1165 C1164 1.349 . S
C1165 C1181 1.349 . S
C1166 C1164 1.327 . S
C1166 C1185 1.429 . S
C1166 H1190 0.950 . S
C1167 C1184 1.574 . S
C1167 C1186 1.368 1_655 S
C1167 H1191 0.949 . S
H1168 C1172 0.949 . S
C1169 C1170 1.349 . S
C1169 C1171 1.327 . S
C1169 H1192 0.950 . S
C1170 C1169 1.349 . S
C1170 C1182 1.349 . S
C1171 C1169 1.327 . S
C1171 C1187 1.429 . S
C1171 H1193 0.950 . S
C1172 H1168 0.949 . S
C1172 C1180 1.574 . S
C1172 C1188 1.368 1_455 S
H1173 C1181 0.950 . S
H1174 C1179 0.950 1_655 S
H1175 C1180 0.949 . S
H1176 C1182 0.950 . S
H1177 C1183 0.950 1_455 S
H1178 C1184 0.949 . S
C1179 H1174 0.950 1_455 S
C1179 C1181 1.327 . S
C1179 C1185 1.429 . S
C1180 C1172 1.574 . S
C1180 H1175 0.949 . S
C1180 C1186 1.368 . S
C1181 C1165 1.349 . S
C1181 H1173 0.950 . S
C1181 C1179 1.327 . S
C1182 C1170 1.349 . S
C1182 H1176 0.950 . S
C1182 C1183 1.327 . S
C1183 H1177 0.950 1_655 S
C1183 C1182 1.327 . S
C1183 C1187 1.429 . S
C1184 C1167 1.574 . S
C1184 H1178 0.949 . S
C1184 C1188 1.368 . S
C1185 C1166 1.429 . S
C1185 C1179 1.429 . S
C1185 C1186 1.523 . S
C1186 C1167 1.368 1_455 S
C1186 C1180 1.368 . S
C1186 C1185 1.523 . S
C1187 C1171 1.429 . S
C1187 C1183 1.429 . S
C1187 C1188 1.523 . S
C1188 C1172 1.368 1_655 S
C1188 C1184 1.368 . S
C1188 C1187 1.523 . S
H1189 C1164 0.950 . S
H1190 C1166 0.950 . S
H1191 C1167 0.949 . S
H1192 C1169 0.950 . S
H1193 C1171 0.950 . S
C1194 C1195 1.349 . S
C1194 C1196 1.327 . S
C1194 H1219 0.950 . S
C1195 C1194 1.349 . S
C1195 C1211 1.349 . S
C1196 C1194 1.327 . S
C1196 C1215 1.429 . S
C1196 H1220 0.950 . S
C1197 C1214 1.574 . S
C1197 C1216 1.368 . S
C1197 H1221 0.949 . S
H1198 C1202 0.949 . S
C1199 C1200 1.349 . S
C1199 C1201 1.327 . S
C1199 H1222 0.950 . S
C1200 C1199 1.349 . S
C1200 C1212 1.349 . S
C1201 C1199 1.327 . S
C1201 C1217 1.429 . S
C1201 H1223 0.950 . S
C1202 H1198 0.949 . S
C1202 C1210 1.574 . S
C1202 C1218 1.368 . S
H1203 C1211 0.950 . S
H1204 C1209 0.950 . S
H1205 C1210 0.949 . S
H1206 C1212 0.950 . S
H1207 C1213 0.950 . S
H1208 C1214 0.949 . S
C1209 H1204 0.950 . S
C1209 C1211 1.327 . S
C1209 C1215 1.429 . S
C1210 C1202 1.574 . S
C1210 H1205 0.949 . S
C1210 C1216 1.368 . S
C1211 C1195 1.349 . S
C1211 H1203 0.950 . S
C1211 C1209 1.327 . S
C1212 C1200 1.349 . S
C1212 H1206 0.950 . S
C1212 C1213 1.327 . S
C1213 H1207 0.950 . S
C1213 C1212 1.327 . S
C1213 C1217 1.429 . S
C1214 C1197 1.574 . S
C1214 H1208 0.949 . S
C1214 C1218 1.368 . S
C1215 C1196 1.429 . S
C1215 C1209 1.429 . S
C1215 C1216 1.523 . S
C1216 C1197 1.368 . S
C1216 C1210 1.368 . S
C1216 C1215 1.523 . S
C1217 C1201 1.429 . S
C1217 C1213 1.429 . S
C1217 C1218 1.523 . S
C1218 C1202 1.368 . S
C1218 C1214 1.368 . S
C1218 C1217 1.523 . S
H1219 C1194 0.950 . S
H1220 C1196 0.950 . S
H1221 C1197 0.949 . S
H1222 C1199 0.950 . S
H1223 C1201 0.950 . S
C1224 C1225 1.349 . S
C1224 C1226 1.327 . S
C1224 H1249 0.950 . S
C1225 C1224 1.349 . S
C1225 C1241 1.349 . S
C1226 C1224 1.327 . S
C1226 C1245 1.429 . S
C1226 H1250 0.950 . S
C1227 C1244 1.574 . S
C1227 C1246 1.368 . S
C1227 H1251 0.949 . S
H1228 C1232 0.949 . S
C1229 C1230 1.349 . S
C1229 C1231 1.327 . S
C1229 H1252 0.950 . S
C1230 C1229 1.349 . S
C1230 C1242 1.349 . S
C1231 C1229 1.327 . S
C1231 C1247 1.429 . S
C1231 H1253 0.950 . S
C1232 H1228 0.949 . S
C1232 C1240 1.574 . S
C1232 C1248 1.368 . S
H1233 C1241 0.950 . S
H1234 C1239 0.950 . S
H1235 C1240 0.949 . S
H1236 C1242 0.950 . S
H1237 C1243 0.950 . S
H1238 C1244 0.949 . S
C1239 H1234 0.950 . S
C1239 C1241 1.327 . S
C1239 C1245 1.429 . S
C1240 C1232 1.574 . S
C1240 H1235 0.949 . S
C1240 C1246 1.368 . S
C1241 C1225 1.349 . S
C1241 H1233 0.950 . S
C1241 C1239 1.327 . S
C1242 C1230 1.349 . S
C1242 H1236 0.950 . S
C1242 C1243 1.327 . S
C1243 H1237 0.950 . S
C1243 C1242 1.327 . S
C1243 C1247 1.429 . S
C1244 C1227 1.574 . S
C1244 H1238 0.949 . S
C1244 C1248 1.368 . S
C1245 C1226 1.429 . S
C1245 C1239 1.429 . S
C1245 C1246 1.523 . S
C1246 C1227 1.368 . S
C1246 C1240 1.368 . S
C1246 C1245 1.523 . S
C1247 C1231 1.429 . S
C1247 C1243 1.429 . S
C1247 C1248 1.523 . S
C1248 C1232 1.368 . S
C1248 C1244 1.368 . S
C1248 C1247 1.523 . S
H1249 C1224 0.950 . S
H1250 C1226 0.950 . S
H1251 C1227 0.949 . S
H1252 C1229 0.950 . S
H1253 C1231 0.950 . S
C1254 C1255 1.349 . S
C1254 C1256 1.327 . S
C1254 H1279 0.950 . S
C1255 C1254 1.349 . S
C1255 C1271 1.349 . S
C1256 C1254 1.327 . S
C1256 C1275 1.429 . S
C1256 H1280 0.950 . S
C1257 C1274 1.574 . S
C1257 C1276 1.368 . S
C1257 H1281 0.949 . S
H1258 C1262 0.949 1_565 S
C1259 C1260 1.349 . S
C1259 C1261 1.327 . S
C1259 H1282 0.950 . S
C1260 C1259 1.349 . S
C1260 C1272 1.349 . S
C1261 C1259 1.327 . S
C1261 C1277 1.429 . S
C1261 H1283 0.950 1_565 S
C1262 H1258 0.949 1_545 S
C1262 C1270 1.574 . S
C1262 C1278 1.368 . S
H1263 C1271 0.950 . S
H1264 C1269 0.950 . S
H1265 C1270 0.949 . S
H1266 C1272 0.950 . S
H1267 C1273 0.950 . S
H1268 C1274 0.949 . S
C1269 H1264 0.950 . S
C1269 C1271 1.327 . S
C1269 C1275 1.429 . S
C1270 C1262 1.574 . S
C1270 H1265 0.949 . S
C1270 C1276 1.368 . S
C1271 C1255 1.349 . S
C1271 H1263 0.950 . S
C1271 C1269 1.327 . S
C1272 C1260 1.349 . S
C1272 H1266 0.950 . S
C1272 C1273 1.327 . S
C1273 H1267 0.950 . S
C1273 C1272 1.327 . S
C1273 C1277 1.429 . S
C1274 C1257 1.574 . S
C1274 H1268 0.949 . S
C1274 C1278 1.368 . S
C1275 C1256 1.429 . S
C1275 C1269 1.429 . S
C1275 C1276 1.523 . S
C1276 C1257 1.368 . S
C1276 C1270 1.368 . S
C1276 C1275 1.523 . S
C1277 C1261 1.429 . S
C1277 C1273 1.429 . S
C1277 C1278 1.523 1_565 S
C1278 C1262 1.368 . S
C1278 C1274 1.368 . S
C1278 C1277 1.523 1_545 S
H1279 C1254 0.950 . S
H1280 C1256 0.950 . S
H1281 C1257 0.949 . S
H1282 C1259 0.950 . S
H1283 C1261 0.950 1_545 S
C1284 C1285 1.349 . S
C1284 C1286 1.327 . S
C1284 H1309 0.950 . S
C1285 C1284 1.349 . S
C1285 C1301 1.349 . S
C1286 C1284 1.327 . S
C1286 C1305 1.429 . S
C1286 H1310 0.950 . S
C1287 C1304 1.574 . S
C1287 C1306 1.368 . S
C1287 H1311 0.949 . S
H1288 C1292 0.949 . S
C1289 C1290 1.349 . S
C1289 C1291 1.327 . S
C1289 H1312 0.950 . S
C1290 C1289 1.349 . S
C1290 C1302 1.349 . S
C1291 C1289 1.327 . S
C1291 C1307 1.429 . S
C1291 H1313 0.950 . S
C1292 H1288 0.949 . S
C1292 C1300 1.574 . S
C1292 C1308 1.368 . S
H1293 C1301 0.950 . S
H1294 C1299 0.950 . S
H1295 C1300 0.949 . S
H1296 C1302 0.950 . S
H1297 C1303 0.950 1_655 S
H1298 C1304 0.949 1_455 S
C1299 H1294 0.950 . S
C1299 C1301 1.327 . S
C1299 C1305 1.429 . S
C1300 C1292 1.574 . S
C1300 H1295 0.949 . S
C1300 C1306 1.368 . S
C1301 C1285 1.349 . S
C1301 H1293 0.950 . S
C1301 C1299 1.327 . S
C1302 C1290 1.349 . S
C1302 H1296 0.950 . S
C1302 C1303 1.327 . S
C1303 H1297 0.950 1_455 S
C1303 C1302 1.327 . S
C1303 C1307 1.429 . S
C1304 C1287 1.574 . S
C1304 H1298 0.949 1_655 S
C1304 C1308 1.368 . S
C1305 C1286 1.429 . S
C1305 C1299 1.429 . S
C1305 C1306 1.523 . S
C1306 C1287 1.368 . S
C1306 C1300 1.368 . S
C1306 C1305 1.523 . S
C1307 C1291 1.429 . S
C1307 C1303 1.429 . S
C1307 C1308 1.523 1_455 S
C1308 C1292 1.368 . S
C1308 C1304 1.368 . S
C1308 C1307 1.523 1_655 S
H1309 C1284 0.950 . S
H1310 C1286 0.950 . S
H1311 C1287 0.949 . S
H1312 C1289 0.950 . S
H1313 C1291 0.950 . S
C1314 C1315 1.349 . S
C1314 C1316 1.327 . S
C1314 H1339 0.950 . S
C1315 C1314 1.349 . S
C1315 C1331 1.349 . S
C1316 C1314 1.327 . S
C1316 C1335 1.429 . S
C1316 H1340 0.950 . S
C1317 C1334 1.574 . S
C1317 C1336 1.368 . S
C1317 H1341 0.949 . S
H1318 C1322 0.949 . S
C1319 C1320 1.349 . S
C1319 C1321 1.327 . S
C1319 H1342 0.950 . S
C1320 C1319 1.349 . S
C1320 C1332 1.349 . S
C1321 C1319 1.327 . S
C1321 C1337 1.429 . S
C1321 H1343 0.950 . S
C1322 H1318 0.949 . S
C1322 C1330 1.574 . S
C1322 C1338 1.368 . S
H1323 C1331 0.950 . S
H1324 C1329 0.950 . S
H1325 C1330 0.949 . S
H1326 C1332 0.950 . S
H1327 C1333 0.950 . S
H1328 C1334 0.949 . S
C1329 H1324 0.950 . S
C1329 C1331 1.327 . S
C1329 C1335 1.429 . S
C1330 C1322 1.574 . S
C1330 H1325 0.949 . S
C1330 C1336 1.368 . S
C1331 C1315 1.349 . S
C1331 H1323 0.950 . S
C1331 C1329 1.327 . S
C1332 C1320 1.349 . S
C1332 H1326 0.950 . S
C1332 C1333 1.327 . S
C1333 H1327 0.950 . S
C1333 C1332 1.327 . S
C1333 C1337 1.429 . S
C1334 C1317 1.574 . S
C1334 H1328 0.949 . S
C1334 C1338 1.368 . S
C1335 C1316 1.429 . S
C1335 C1329 1.429 . S
C1335 C1336 1.523 . S
C1336 C1317 1.368 . S
C1336 C1330 1.368 . S
C1336 C1335 1.523 . S
C1337 C1321 1.429 . S
C1337 C1333 1.429 . S
C1337 C1338 1.523 . S
C1338 C1322 1.368 . S
C1338 C1334 1.368 . S
C1338 C1337 1.523 . S
H1339 C1314 0.950 . S
H1340 C1316 0.950 . S
H1341 C1317 0.949 . S
H1342 C1319 0.950 . S
H1343 C1321 0.950 . S
C1344 C1345 1.349 . S
C1344 C1346 1.327 . S
C1344 H1369 0.950 . S
C1345 C1344 1.349 . S
C1345 C1361 1.349 . S
C1346 C1344 1.327 . S
C1346 C1365 1.429 . S
C1346 H1370 0.950 . S
C1347 C1364 1.574 . S
C1347 C1366 1.368 . S
C1347 H1371 0.949 . S
H1348 C1352 0.949 . S
C1349 C1350 1.349 . S
C1349 C1351 1.327 . S
C1349 H1372 0.950 . S
C1350 C1349 1.349 . S
C1350 C1362 1.349 . S
C1351 C1349 1.327 . S
C1351 C1367 1.429 . S
C1351 H1373 0.950 . S
C1352 H1348 0.949 . S
C1352 C1360 1.574 . S
C1352 C1368 1.368 . S
H1353 C1361 0.950 . S
H1354 C1359 0.950 . S
H1355 C1360 0.949 . S
H1356 C1362 0.950 . S
H1357 C1363 0.950 . S
H1358 C1364 0.949 . S
C1359 H1354 0.950 . S
C1359 C1361 1.327 . S
C1359 C1365 1.429 . S
C1360 C1352 1.574 . S
C1360 H1355 0.949 . S
C1360 C1366 1.368 . S
C1361 C1345 1.349 . S
C1361 H1353 0.950 . S
C1361 C1359 1.327 . S
C1362 C1350 1.349 . S
C1362 H1356 0.950 . S
C1362 C1363 1.327 . S
C1363 H1357 0.950 . S
C1363 C1362 1.327 . S
C1363 C1367 1.429 . S
C1364 C1347 1.574 . S
C1364 H1358 0.949 . S
C1364 C1368 1.368 . S
C1365 C1346 1.429 . S
C1365 C1359 1.429 . S
C1365 C1366 1.523 . S
C1366 C1347 1.368 . S
C1366 C1360 1.368 . S
C1366 C1365 1.523 . S
C1367 C1351 1.429 . S
C1367 C1363 1.429 . S
C1367 C1368 1.523 1_545 S
C1368 C1352 1.368 . S
C1368 C1364 1.368 . S
C1368 C1367 1.523 1_565 S
H1369 C1344 0.950 . S
H1370 C1346 0.950 . S
H1371 C1347 0.949 . S
H1372 C1349 0.950 . S
H1373 C1351 0.950 . S
C1374 C1375 1.349 . S
C1374 C1376 1.327 . S
C1374 H1399 0.950 . S
C1375 C1374 1.349 . S
C1375 C1391 1.349 . S
C1376 C1374 1.327 . S
C1376 C1395 1.429 . S
C1376 H1400 0.950 1_655 S
C1377 C1394 1.574 . S
C1377 C1396 1.368 . S
C1377 H1401 0.949 1_455 S
H1378 C1382 0.949 . S
C1379 C1380 1.349 . S
C1379 C1381 1.327 . S
C1379 H1402 0.950 . S
C1380 C1379 1.349 . S
C1380 C1392 1.349 . S
C1381 C1379 1.327 . S
C1381 C1397 1.429 . S
C1381 H1403 0.950 . S
C1382 H1378 0.949 . S
C1382 C1390 1.574 . S
C1382 C1398 1.368 . S
H1383 C1391 0.950 . S
H1384 C1389 0.950 . S
H1385 C1390 0.949 . S
H1386 C1392 0.950 . S
H1387 C1393 0.950 . S
H1388 C1394 0.949 . S
C1389 H1384 0.950 . S
C1389 C1391 1.327 . S
C1389 C1395 1.429 . S
C1390 C1382 1.574 . S
C1390 H1385 0.949 . S
C1390 C1396 1.368 . S
C1391 C1375 1.349 . S
C1391 H1383 0.950 . S
C1391 C1389 1.327 . S
C1392 C1380 1.349 . S
C1392 H1386 0.950 . S
C1392 C1393 1.327 . S
C1393 H1387 0.950 . S
C1393 C1392 1.327 . S
C1393 C1397 1.429 . S
C1394 C1377 1.574 . S
C1394 H1388 0.949 . S
C1394 C1398 1.368 . S
C1395 C1376 1.429 . S
C1395 C1389 1.429 . S
C1395 C1396 1.523 1_655 S
C1396 C1377 1.368 . S
C1396 C1390 1.368 . S
C1396 C1395 1.523 1_455 S
C1397 C1381 1.429 . S
C1397 C1393 1.429 . S
C1397 C1398 1.523 . S
C1398 C1382 1.368 . S
C1398 C1394 1.368 . S
C1398 C1397 1.523 . S
H1399 C1374 0.950 . S
H1400 C1376 0.950 1_455 S
H1401 C1377 0.949 1_655 S
H1402 C1379 0.950 . S
H1403 C1381 0.950 . S
C1404 C1405 1.349 . S
C1404 C1406 1.327 . S
C1404 H1429 0.950 . S
C1405 C1404 1.349 . S
C1405 C1421 1.349 . S
C1406 C1404 1.327 . S
C1406 C1425 1.429 . S
C1406 H1430 0.950 . S
C1407 C1424 1.574 . S
C1407 C1426 1.368 . S
C1407 H1431 0.949 . S
H1408 C1412 0.949 . S
C1409 C1410 1.349 . S
C1409 C1411 1.327 1_455 S
C1409 H1432 0.950 . S
C1410 C1409 1.349 . S
C1410 C1422 1.340 1_455 S
C1411 C1409 1.327 1_655 S
C1411 C1427 1.429 . S
C1411 H1433 0.950 . S
C1412 H1408 0.949 . S
C1412 C1420 1.574 . S
C1412 C1428 1.368 . S
H1413 C1421 0.950 . S
H1414 C1419 0.950 . S
H1415 C1420 0.949 . S
H1416 C1422 0.912 1_455 S
H1417 C1423 0.950 . S
H1418 C1424 0.949 . S
C1419 H1414 0.950 . S
C1419 C1421 1.327 . S
C1419 C1425 1.429 . S
C1420 C1412 1.574 . S
C1420 H1415 0.949 . S
C1420 C1426 1.368 . S
C1421 C1405 1.349 . S
C1421 H1413 0.950 . S
C1421 C1419 1.327 . S
C1422 C1410 1.340 1_655 S
C1422 H1416 0.912 1_655 S
C1422 C1423 1.376 . S
C1423 H1417 0.950 . S
C1423 C1422 1.376 . S
C1423 C1427 1.429 . S
C1424 C1407 1.574 . S
C1424 H1418 0.949 . S
C1424 C1428 1.368 . S
C1425 C1406 1.429 . S
C1425 C1419 1.429 . S
C1425 C1426 1.523 . S
C1426 C1407 1.368 . S
C1426 C1420 1.368 . S
C1426 C1425 1.523 . S
C1427 C1411 1.429 . S
C1427 C1423 1.429 . S
C1427 C1428 1.523 . S
C1428 C1412 1.368 . S
C1428 C1424 1.368 . S
C1428 C1427 1.523 . S
H1429 C1404 0.950 . S
H1430 C1406 0.950 . S
H1431 C1407 0.949 . S
H1432 C1409 0.950 . S
H1433 C1411 0.950 . S
C1434 C1435 1.349 . S
C1434 C1436 1.327 . S
C1434 H1459 0.950 . S
C1435 C1434 1.349 . S
C1435 C1451 1.349 . S
C1436 C1434 1.327 . S
C1436 C1455 1.429 . S
C1436 H1460 0.950 . S
C1437 C1454 1.574 . S
C1437 C1456 1.368 . S
C1437 H1461 0.949 . S
H1438 C1442 0.949 . S
C1439 C1440 1.349 . S
C1439 C1441 1.327 . S
C1439 H1462 0.950 . S
C1440 C1439 1.349 . S
C1440 C1452 1.349 . S
C1441 C1439 1.327 . S
C1441 C1457 1.429 . S
C1441 H1463 0.950 . S
C1442 H1438 0.949 . S
C1442 C1450 1.574 . S
C1442 C1458 1.368 . S
H1443 C1451 0.950 . S
H1444 C1449 0.950 . S
H1445 C1450 0.949 . S
H1446 C1452 0.950 . S
H1447 C1453 0.950 . S
H1448 C1454 0.949 . S
C1449 H1444 0.950 . S
C1449 C1451 1.327 . S
C1449 C1455 1.429 . S
C1450 C1442 1.574 . S
C1450 H1445 0.949 . S
C1450 C1456 1.368 . S
C1451 C1435 1.349 . S
C1451 H1443 0.950 . S
C1451 C1449 1.327 . S
C1452 C1440 1.349 . S
C1452 H1446 0.950 . S
C1452 C1453 1.327 . S
C1453 H1447 0.950 . S
C1453 C1452 1.327 . S
C1453 C1457 1.429 . S
C1454 C1437 1.574 . S
C1454 H1448 0.949 . S
C1454 C1458 1.368 . S
C1455 C1436 1.429 . S
C1455 C1449 1.429 . S
C1455 C1456 1.523 . S
C1456 C1437 1.368 . S
C1456 C1450 1.368 . S
C1456 C1455 1.523 . S
C1457 C1441 1.429 . S
C1457 C1453 1.429 . S
C1457 C1458 1.523 . S
C1458 C1442 1.368 . S
C1458 C1454 1.368 . S
C1458 C1457 1.523 . S
H1459 C1434 0.950 . S
H1460 C1436 0.950 . S
H1461 C1437 0.949 . S
H1462 C1439 0.950 . S
H1463 C1441 0.950 . S
C1464 C1465 1.349 . S
C1464 C1466 1.327 . S
C1464 H1489 0.950 . S
C1465 C1464 1.349 . S
C1465 C1481 1.349 . S
C1466 C1464 1.327 . S
C1466 C1485 1.429 . S
C1466 H1490 0.950 . S
C1467 C1484 1.574 . S
C1467 C1486 1.368 . S
C1467 H1491 0.949 . S
H1468 C1472 0.949 . S
C1469 C1470 1.349 . S
C1469 C1471 1.327 1_565 S
C1469 H1492 0.950 . S
C1470 C1469 1.349 . S
C1470 C1482 1.349 1_565 S
C1471 C1469 1.327 1_545 S
C1471 C1487 1.429 . S
C1471 H1493 0.924 1_545 S
C1472 H1468 0.949 . S
C1472 C1480 1.574 . S
C1472 C1488 1.368 . S
H1473 C1481 0.950 . S
H1474 C1479 0.950 . S
H1475 C1480 0.949 . S
H1476 C1482 0.950 . S
H1477 C1483 0.950 . S
H1478 C1484 0.949 . S
C1479 H1474 0.950 . S
C1479 C1481 1.327 . S
C1479 C1485 1.429 . S
C1480 C1472 1.574 . S
C1480 H1475 0.949 . S
C1480 C1486 1.368 . S
C1481 C1465 1.349 . S
C1481 H1473 0.950 . S
C1481 C1479 1.327 . S
C1482 C1470 1.349 1_545 S
C1482 H1476 0.950 . S
C1482 C1483 1.327 . S
C1483 H1477 0.950 . S
C1483 C1482 1.327 . S
C1483 C1487 1.429 . S
C1484 C1467 1.574 . S
C1484 H1478 0.949 . S
C1484 C1488 1.368 . S
C1485 C1466 1.429 . S
C1485 C1479 1.429 . S
C1485 C1486 1.523 . S
C1486 C1467 1.368 . S
C1486 C1480 1.368 . S
C1486 C1485 1.523 . S
C1487 C1471 1.429 . S
C1487 C1483 1.429 . S
C1487 C1488 1.523 . S
C1488 C1472 1.368 . S
C1488 C1484 1.368 . S
C1488 C1487 1.523 . S
H1489 C1464 0.950 . S
H1490 C1466 0.950 . S
H1491 C1467 0.949 . S
H1492 C1469 0.950 . S
H1493 C1471 0.924 1_565 S
C1494 C1495 1.358 . S
C1494 C1496 1.320 1_556 S
C1494 H1519 0.948 1_556 S
C1495 C1494 1.358 . S
C1495 C1511 1.349 . S
C1496 C1494 1.320 1_554 S
C1496 C1515 1.429 . S
C1496 H1520 0.950 . S
C1497 C1514 1.574 . S
C1497 C1516 1.368 . S
C1497 H1521 0.949 . S
H1498 C1502 0.949 . S
C1499 C1500 1.349 . S
C1499 C1501 1.327 . S
C1499 H1522 0.950 . S
C1500 C1499 1.349 . S
C1500 C1512 1.349 . S
C1501 C1499 1.327 . S
C1501 C1517 1.429 . S
C1501 H1523 0.950 . S
C1502 H1498 0.949 . S
C1502 C1510 1.574 . S
C1502 C1518 1.368 . S
H1503 C1511 0.950 . S
H1504 C1509 0.950 . S
H1505 C1510 0.949 . S
H1506 C1512 0.950 . S
H1507 C1513 0.950 . S
H1508 C1514 0.949 . S
C1509 H1504 0.950 . S
C1509 C1511 1.327 . S
C1509 C1515 1.429 1_556 S
C1510 C1502 1.574 . S
C1510 H1505 0.949 . S
C1510 C1516 1.368 . S
C1511 C1495 1.349 . S
C1511 H1503 0.950 . S
C1511 C1509 1.327 . S
C1512 C1500 1.349 . S
C1512 H1506 0.950 . S
C1512 C1513 1.327 . S
C1513 H1507 0.950 . S
C1513 C1512 1.327 . S
C1513 C1517 1.429 . S
C1514 C1497 1.574 . S
C1514 H1508 0.949 . S
C1514 C1518 1.368 . S
C1515 C1496 1.429 . S
C1515 C1509 1.429 1_554 S
C1515 C1516 1.523 . S
C1516 C1497 1.368 . S
C1516 C1510 1.368 . S
C1516 C1515 1.523 . S
C1517 C1501 1.429 . S
C1517 C1513 1.429 . S
C1517 C1518 1.523 . S
C1518 C1502 1.368 . S
C1518 C1514 1.368 . S
C1518 C1517 1.523 . S
H1519 C1494 0.948 1_554 S
H1520 C1496 0.950 . S
H1521 C1497 0.949 . S
H1522 C1499 0.950 . S
H1523 C1501 0.950 . S
C1524 C1525 1.349 1_554 S
C1524 C1526 1.327 . S
C1524 H1549 0.950 . S
C1525 C1524 1.349 1_556 S
C1525 C1541 1.349 . S
C1526 C1524 1.327 . S
C1526 C1545 1.429 . S
C1526 H1550 0.950 . S
C1527 C1544 1.574 . S
C1527 C1546 1.368 . S
C1527 H1551 0.949 1_554 S
H1528 C1532 0.949 . S
C1529 C1530 1.349 . S
C1529 C1531 1.327 . S
C1529 H1552 0.950 . S
C1530 C1529 1.349 . S
C1530 C1542 1.349 . S
C1531 C1529 1.327 . S
C1531 C1547 1.429 . S
C1531 H1553 0.950 . S
C1532 H1528 0.949 . S
C1532 C1540 1.574 . S
C1532 C1548 1.368 . S
H1533 C1541 0.950 . S
H1534 C1539 0.950 . S
H1535 C1540 0.949 . S
H1536 C1542 0.950 . S
H1537 C1543 0.950 . S
H1538 C1544 0.949 . S
C1539 H1534 0.950 . S
C1539 C1541 1.327 . S
C1539 C1545 1.429 1_556 S
C1540 C1532 1.574 . S
C1540 H1535 0.949 . S
C1540 C1546 1.368 . S
C1541 C1525 1.349 . S
C1541 H1533 0.950 . S
C1541 C1539 1.327 . S
C1542 C1530 1.349 . S
C1542 H1536 0.950 . S
C1542 C1543 1.327 . S
C1543 H1537 0.950 . S
C1543 C1542 1.327 . S
C1543 C1547 1.429 . S
C1544 C1527 1.574 . S
C1544 H1538 0.949 . S
C1544 C1548 1.368 . S
C1545 C1526 1.429 . S
C1545 C1539 1.429 1_554 S
C1545 C1546 1.523 . S
C1546 C1527 1.368 . S
C1546 C1540 1.368 . S
C1546 C1545 1.523 . S
C1547 C1531 1.429 . S
C1547 C1543 1.429 . S
C1547 C1548 1.523 . S
C1548 C1532 1.368 . S
C1548 C1544 1.368 . S
C1548 C1547 1.523 . S
H1549 C1524 0.950 . S
H1550 C1526 0.950 . S
H1551 C1527 0.949 1_556 S
H1552 C1529 0.950 . S
H1553 C1531 0.950 . S
C1554 C1555 1.349 1_554 S
C1554 C1556 1.327 . S
C1554 H1579 0.950 . S
C1555 C1554 1.349 1_556 S
C1555 C1571 1.349 . S
C1556 C1554 1.327 . S
C1556 C1575 1.429 . S
C1556 H1580 0.950 . S
C1557 C1574 1.574 . S
C1557 C1576 1.368 . S
C1557 H1581 0.949 1_554 S
H1558 C1562 0.949 . S
C1559 C1560 1.349 . S
C1559 C1561 1.327 . S
C1559 H1582 0.950 . S
C1560 C1559 1.349 . S
C1560 C1572 1.349 . S
C1561 C1559 1.327 . S
C1561 C1577 1.429 . S
C1561 H1583 0.950 . S
C1562 H1558 0.949 . S
C1562 C1570 1.574 . S
C1562 C1578 1.368 . S
H1563 C1571 0.950 . S
H1564 C1569 0.950 . S
H1565 C1570 0.949 . S
H1566 C1572 0.950 . S
H1567 C1573 0.950 . S
H1568 C1574 0.949 . S
C1569 H1564 0.950 . S
C1569 C1571 1.327 . S
C1569 C1575 1.429 1_556 S
C1570 C1562 1.574 . S
C1570 H1565 0.949 . S
C1570 C1576 1.368 . S
C1571 C1555 1.349 . S
C1571 H1563 0.950 . S
C1571 C1569 1.327 . S
C1572 C1560 1.349 . S
C1572 H1566 0.950 . S
C1572 C1573 1.327 . S
C1573 H1567 0.950 . S
C1573 C1572 1.327 . S
C1573 C1577 1.429 . S
C1574 C1557 1.574 . S
C1574 H1568 0.949 . S
C1574 C1578 1.368 . S
C1575 C1556 1.429 . S
C1575 C1569 1.429 1_554 S
C1575 C1576 1.523 . S
C1576 C1557 1.368 . S
C1576 C1570 1.368 . S
C1576 C1575 1.523 . S
C1577 C1561 1.429 . S
C1577 C1573 1.429 . S
C1577 C1578 1.523 . S
C1578 C1562 1.368 . S
C1578 C1574 1.368 . S
C1578 C1577 1.523 . S
H1579 C1554 0.950 . S
H1580 C1556 0.950 . S
H1581 C1557 0.949 1_556 S
H1582 C1559 0.950 . S
H1583 C1561 0.950 . S
C1584 C1585 1.349 . S
C1584 C1586 1.327 . S
C1584 H1609 0.950 . S
C1585 C1584 1.349 . S
C1585 C1601 1.349 . S
C1586 C1584 1.327 . S
C1586 C1605 1.429 . S
C1586 H1610 0.950 . S
C1587 C1604 1.574 . S
C1587 C1606 1.368 . S
C1587 H1611 0.949 . S
H1588 C1592 0.949 . S
C1589 C1590 1.349 . S
C1589 C1591 1.327 . S
C1589 H1612 0.950 . S
C1590 C1589 1.349 . S
C1590 C1602 1.349 1_554 S
C1591 C1589 1.327 . S
C1591 C1607 1.429 1_554 S
C1591 H1613 0.950 . S
C1592 H1588 0.949 . S
C1592 C1600 1.574 . S
C1592 C1608 1.368 . S
H1593 C1601 0.950 . S
H1594 C1599 0.950 . S
H1595 C1600 0.949 . S
H1596 C1602 0.950 . S
H1597 C1603 0.950 . S
H1598 C1604 0.949 . S
C1599 H1594 0.950 . S
C1599 C1601 1.327 . S
C1599 C1605 1.429 . S
C1600 C1592 1.574 . S
C1600 H1595 0.949 . S
C1600 C1606 1.368 . S
C1601 C1585 1.349 . S
C1601 H1593 0.950 . S
C1601 C1599 1.327 . S
C1602 C1590 1.349 1_556 S
C1602 H1596 0.950 . S
C1602 C1603 1.327 . S
C1603 H1597 0.950 . S
C1603 C1602 1.327 . S
C1603 C1607 1.429 . S
C1604 C1587 1.574 . S
C1604 H1598 0.949 . S
C1604 C1608 1.368 . S
C1605 C1586 1.429 . S
C1605 C1599 1.429 . S
C1605 C1606 1.523 . S
C1606 C1587 1.368 . S
C1606 C1600 1.368 . S
C1606 C1605 1.523 . S
C1607 C1591 1.429 1_556 S
C1607 C1603 1.429 . S
C1607 C1608 1.523 . S
C1608 C1592 1.368 . S
C1608 C1604 1.368 . S
C1608 C1607 1.523 . S
H1609 C1584 0.950 . S
H1610 C1586 0.950 . S
H1611 C1587 0.949 . S
H1612 C1589 0.950 . S
H1613 C1591 0.950 . S
C1614 C1615 1.349 . S
C1614 C1616 1.327 . S
C1614 H1639 0.950 . S
C1615 C1614 1.349 . S
C1615 C1631 1.349 . S
C1616 C1614 1.327 . S
C1616 C1635 1.429 . S
C1616 H1640 0.950 . S
C1617 C1634 1.574 . S
C1617 C1636 1.368 . S
C1617 H1641 0.949 . S
H1618 C1622 0.949 . S
C1619 C1620 1.349 . S
C1619 C1621 1.327 . S
C1619 H1642 0.950 . S
C1620 C1619 1.349 . S
C1620 C1632 1.349 1_554 S
C1621 C1619 1.327 . S
C1621 C1637 1.429 1_554 S
C1621 H1643 0.950 . S
C1622 H1618 0.949 . S
C1622 C1630 1.574 . S
C1622 C1638 1.368 . S
H1623 C1631 0.950 . S
H1624 C1629 0.950 . S
H1625 C1630 0.949 . S
H1626 C1632 0.950 . S
H1627 C1633 0.950 . S
H1628 C1634 0.949 . S
C1629 H1624 0.950 . S
C1629 C1631 1.327 . S
C1629 C1635 1.429 . S
C1630 C1622 1.574 . S
C1630 H1625 0.949 . S
C1630 C1636 1.368 . S
C1631 C1615 1.349 . S
C1631 H1623 0.950 . S
C1631 C1629 1.327 . S
C1632 C1620 1.349 1_556 S
C1632 H1626 0.950 . S
C1632 C1633 1.327 . S
C1633 H1627 0.950 . S
C1633 C1632 1.327 . S
C1633 C1637 1.429 . S
C1634 C1617 1.574 . S
C1634 H1628 0.949 . S
C1634 C1638 1.368 . S
C1635 C1616 1.429 . S
C1635 C1629 1.429 . S
C1635 C1636 1.523 . S
C1636 C1617 1.368 . S
C1636 C1630 1.368 . S
C1636 C1635 1.523 . S
C1637 C1621 1.429 1_556 S
C1637 C1633 1.429 . S
C1637 C1638 1.523 . S
C1638 C1622 1.368 . S
C1638 C1634 1.368 . S
C1638 C1637 1.523 . S
H1639 C1614 0.950 . S
H1640 C1616 0.950 . S
H1641 C1617 0.949 . S
H1642 C1619 0.950 . S
H1643 C1621 0.950 . S
C1644 C1645 1.349 1_556 S
C1644 C1646 1.327 . S
C1644 H1669 0.950 . S
C1645 C1644 1.349 1_554 S
C1645 C1661 1.349 . S
C1646 C1644 1.327 . S
C1646 C1665 1.429 . S
C1646 H1670 0.950 . S
C1647 C1664 1.574 . S
C1647 C1666 1.368 . S
C1647 H1671 0.949 1_556 S
H1648 C1652 0.949 . S
C1649 C1650 1.349 . S
C1649 C1651 1.327 . S
C1649 H1672 0.950 . S
C1650 C1649 1.349 . S
C1650 C1662 1.349 . S
C1651 C1649 1.327 . S
C1651 C1667 1.429 . S
C1651 H1673 0.950 . S
C1652 H1648 0.949 . S
C1652 C1660 1.574 . S
C1652 C1668 1.368 . S
H1653 C1661 0.950 . S
H1654 C1659 0.950 . S
H1655 C1660 0.949 . S
H1656 C1662 0.950 . S
H1657 C1663 0.950 . S
H1658 C1664 0.949 . S
C1659 H1654 0.950 . S
C1659 C1661 1.327 . S
C1659 C1665 1.429 1_554 S
C1660 C1652 1.574 . S
C1660 H1655 0.949 . S
C1660 C1666 1.368 . S
C1661 C1645 1.349 . S
C1661 H1653 0.950 . S
C1661 C1659 1.327 . S
C1662 C1650 1.349 . S
C1662 H1656 0.950 . S
C1662 C1663 1.327 . S
C1663 H1657 0.950 . S
C1663 C1662 1.327 . S
C1663 C1667 1.429 . S
C1664 C1647 1.574 . S
C1664 H1658 0.949 . S
C1664 C1668 1.368 . S
C1665 C1646 1.429 . S
C1665 C1659 1.429 1_556 S
C1665 C1666 1.523 . S
C1666 C1647 1.368 . S
C1666 C1660 1.368 . S
C1666 C1665 1.523 . S
C1667 C1651 1.429 . S
C1667 C1663 1.429 . S
C1667 C1668 1.523 . S
C1668 C1652 1.368 . S
C1668 C1664 1.368 . S
C1668 C1667 1.523 . S
H1669 C1644 0.950 . S
H1670 C1646 0.950 . S
H1671 C1647 0.949 1_554 S
H1672 C1649 0.950 . S
H1673 C1651 0.950 . S
C1674 C1675 1.349 . S
C1674 C1676 1.327 1_655 S
C1674 H1699 0.950 . S
C1675 C1674 1.349 . S
C1675 C1691 1.349 . S
C1676 C1674 1.327 1_455 S
C1676 C1695 1.429 . S
C1676 H1700 0.950 . S
C1677 C1694 1.574 . S
C1677 C1696 1.368 . S
C1677 H1701 0.949 . S
H1678 C1682 0.949 . S
C1679 C1680 1.349 . S
C1679 C1681 1.327 . S
C1679 H1702 0.950 . S
C1680 C1679 1.349 . S
C1680 C1692 1.349 . S
C1681 C1679 1.327 . S
C1681 C1697 1.429 . S
C1681 H1703 0.950 . S
C1682 H1678 0.949 . S
C1682 C1690 1.574 . S
C1682 C1698 1.368 . S
H1683 C1691 0.950 . S
H1684 C1689 0.950 . S
H1685 C1690 0.949 . S
H1686 C1692 0.950 . S
H1687 C1693 0.950 . S
H1688 C1694 0.949 . S
C1689 H1684 0.950 . S
C1689 C1691 1.327 1_455 S
C1689 C1695 1.429 . S
C1690 C1682 1.574 . S
C1690 H1685 0.949 . S
C1690 C1696 1.368 . S
C1691 C1675 1.349 . S
C1691 H1683 0.950 . S
C1691 C1689 1.327 1_655 S
C1692 C1680 1.349 . S
C1692 H1686 0.950 . S
C1692 C1693 1.327 . S
C1693 H1687 0.950 . S
C1693 C1692 1.327 . S
C1693 C1697 1.429 . S
C1694 C1677 1.574 . S
C1694 H1688 0.949 . S
C1694 C1698 1.368 . S
C1695 C1676 1.429 . S
C1695 C1689 1.429 . S
C1695 C1696 1.523 . S
C1696 C1677 1.368 . S
C1696 C1690 1.368 . S
C1696 C1695 1.523 . S
C1697 C1681 1.429 . S
C1697 C1693 1.429 . S
C1697 C1698 1.523 . S
C1698 C1682 1.368 . S
C1698 C1694 1.368 . S
C1698 C1697 1.523 . S
H1699 C1674 0.950 . S
H1700 C1676 0.950 . S
H1701 C1677 0.949 . S
H1702 C1679 0.950 . S
H1703 C1681 0.950 . S
C1704 C1705 1.349 . S
C1704 C1706 1.327 . S
C1704 H1729 0.950 . S
C1705 C1704 1.349 . S
C1705 C1721 1.349 . S
C1706 C1704 1.327 . S
C1706 C1725 1.429 . S
C1706 H1730 0.950 . S
C1707 C1724 1.574 . S
C1707 C1726 1.368 . S
C1707 H1731 0.949 . S
H1708 C1712 0.949 . S
C1709 C1710 1.349 . S
C1709 C1711 1.327 . S
C1709 H1732 0.950 . S
C1710 C1709 1.349 . S
C1710 C1722 1.349 . S
C1711 C1709 1.327 . S
C1711 C1727 1.429 . S
C1711 H1733 0.950 . S
C1712 H1708 0.949 . S
C1712 C1720 1.574 . S
C1712 C1728 1.368 . S
H1713 C1721 0.950 . S
H1714 C1719 0.950 . S
H1715 C1720 0.949 . S
H1716 C1722 0.950 . S
H1717 C1723 0.950 . S
H1718 C1724 0.949 . S
C1719 H1714 0.950 . S
C1719 C1721 1.327 . S
C1719 C1725 1.429 . S
C1720 C1712 1.574 . S
C1720 H1715 0.949 . S
C1720 C1726 1.368 . S
C1721 C1705 1.349 . S
C1721 H1713 0.950 . S
C1721 C1719 1.327 . S
C1722 C1710 1.349 . S
C1722 H1716 0.950 . S
C1722 C1723 1.327 . S
C1723 H1717 0.950 . S
C1723 C1722 1.327 . S
C1723 C1727 1.429 . S
C1724 C1707 1.574 . S
C1724 H1718 0.949 . S
C1724 C1728 1.368 . S
C1725 C1706 1.429 . S
C1725 C1719 1.429 . S
C1725 C1726 1.523 . S
C1726 C1707 1.368 . S
C1726 C1720 1.368 . S
C1726 C1725 1.523 . S
C1727 C1711 1.429 . S
C1727 C1723 1.429 . S
C1727 C1728 1.523 . S
C1728 C1712 1.368 . S
C1728 C1724 1.368 . S
C1728 C1727 1.523 . S
H1729 C1704 0.950 . S
H1730 C1706 0.950 . S
H1731 C1707 0.949 . S
H1732 C1709 0.950 . S
H1733 C1711 0.950 . S
C1734 C1735 1.349 1_565 S
C1734 C1736 1.327 . S
C1734 H1759 0.950 . S
C1735 C1734 1.349 1_545 S
C1735 C1751 1.349 . S
C1736 C1734 1.327 . S
C1736 C1755 1.429 . S
C1736 H1760 0.950 . S
C1737 C1754 1.574 . S
C1737 C1756 1.368 . S
C1737 H1761 0.949 . S
H1738 C1742 0.949 . S
C1739 C1740 1.349 . S
C1739 C1741 1.327 . S
C1739 H1762 0.950 . S
C1740 C1739 1.349 . S
C1740 C1752 1.349 . S
C1741 C1739 1.327 . S
C1741 C1757 1.429 . S
C1741 H1763 0.950 . S
C1742 H1738 0.949 . S
C1742 C1750 1.574 . S
C1742 C1758 1.368 . S
H1743 C1751 0.950 . S
H1744 C1749 0.950 1_545 S
H1745 C1750 0.949 . S
H1746 C1752 0.950 . S
H1747 C1753 0.950 . S
H1748 C1754 0.949 . S
C1749 H1744 0.950 1_565 S
C1749 C1751 1.327 1_565 S
C1749 C1755 1.429 . S
C1750 C1742 1.574 . S
C1750 H1745 0.949 . S
C1750 C1756 1.368 . S
C1751 C1735 1.349 . S
C1751 H1743 0.950 . S
C1751 C1749 1.327 1_545 S
C1752 C1740 1.349 . S
C1752 H1746 0.950 . S
C1752 C1753 1.327 . S
C1753 H1747 0.950 . S
C1753 C1752 1.327 . S
C1753 C1757 1.429 . S
C1754 C1737 1.574 . S
C1754 H1748 0.949 . S
C1754 C1758 1.368 . S
C1755 C1736 1.429 . S
C1755 C1749 1.429 . S
C1755 C1756 1.523 . S
C1756 C1737 1.368 . S
C1756 C1750 1.368 . S
C1756 C1755 1.523 . S
C1757 C1741 1.429 . S
C1757 C1753 1.429 . S
C1757 C1758 1.523 . S
C1758 C1742 1.368 . S
C1758 C1754 1.368 . S
C1758 C1757 1.523 . S
H1759 C1734 0.950 . S
H1760 C1736 0.950 . S
H1761 C1737 0.949 . S
H1762 C1739 0.950 . S
H1763 C1741 0.950 . S
C1764 C1765 1.349 . S
C1764 C1766 1.327 . S
C1764 H1789 0.950 . S
C1765 C1764 1.349 . S
C1765 C1781 1.349 . S
C1766 C1764 1.327 . S
C1766 C1785 1.429 . S
C1766 H1790 0.950 . S
C1767 C1784 1.574 . S
C1767 C1786 1.368 . S
C1767 H1791 0.949 . S
H1768 C1772 0.949 . S
C1769 C1770 1.349 . S
C1769 C1771 1.327 . S
C1769 H1792 0.950 . S
C1770 C1769 1.349 . S
C1770 C1782 1.349 . S
C1771 C1769 1.327 . S
C1771 C1787 1.429 . S
C1771 H1793 0.950 . S
C1772 H1768 0.949 . S
C1772 C1780 1.574 . S
C1772 C1788 1.368 . S
H1773 C1781 0.950 . S
H1774 C1779 0.950 . S
H1775 C1780 0.949 . S
H1776 C1782 0.950 . S
H1777 C1783 0.950 . S
H1778 C1784 0.949 . S
C1779 H1774 0.950 . S
C1779 C1781 1.327 . S
C1779 C1785 1.429 . S
C1780 C1772 1.574 . S
C1780 H1775 0.949 . S
C1780 C1786 1.368 . S
C1781 C1765 1.349 . S
C1781 H1773 0.950 . S
C1781 C1779 1.327 . S
C1782 C1770 1.349 . S
C1782 H1776 0.950 . S
C1782 C1783 1.327 . S
C1783 H1777 0.950 . S
C1783 C1782 1.327 . S
C1783 C1787 1.429 . S
C1784 C1767 1.574 . S
C1784 H1778 0.949 . S
C1784 C1788 1.368 . S
C1785 C1766 1.429 . S
C1785 C1779 1.429 . S
C1785 C1786 1.523 . S
C1786 C1767 1.368 . S
C1786 C1780 1.368 . S
C1786 C1785 1.523 . S
C1787 C1771 1.429 . S
C1787 C1783 1.429 . S
C1787 C1788 1.523 . S
C1788 C1772 1.368 . S
C1788 C1784 1.368 . S
C1788 C1787 1.523 . S
H1789 C1764 0.950 . S
H1790 C1766 0.950 . S
H1791 C1767 0.949 . S
H1792 C1769 0.950 . S
H1793 C1771 0.950 . S
C1794 C1795 1.349 . S
C1794 C1796 1.327 . S
C1794 H1819 0.950 . S
C1795 C1794 1.349 . S
C1795 C1811 1.349 . S
C1796 C1794 1.327 . S
C1796 C1815 1.429 . S
C1796 H1820 0.950 . S
C1797 C1814 1.574 . S
C1797 C1816 1.368 . S
C1797 H1821 0.949 . S
H1798 C1802 0.949 . S
C1799 C1800 1.349 . S
C1799 C1801 1.327 . S
C1799 H1822 0.950 . S
C1800 C1799 1.349 . S
C1800 C1812 1.349 . S
C1801 C1799 1.327 . S
C1801 C1817 1.429 . S
C1801 H1823 0.950 . S
C1802 H1798 0.949 . S
C1802 C1810 1.574 . S
C1802 C1818 1.368 . S
H1803 C1811 0.950 . S
H1804 C1809 0.950 . S
H1805 C1810 0.949 . S
H1806 C1812 0.950 . S
H1807 C1813 0.950 . S
H1808 C1814 0.949 . S
C1809 H1804 0.950 . S
C1809 C1811 1.327 . S
C1809 C1815 1.429 . S
C1810 C1802 1.574 . S
C1810 H1805 0.949 . S
C1810 C1816 1.368 . S
C1811 C1795 1.349 . S
C1811 H1803 0.950 . S
C1811 C1809 1.327 . S
C1812 C1800 1.349 . S
C1812 H1806 0.950 . S
C1812 C1813 1.327 . S
C1813 H1807 0.950 . S
C1813 C1812 1.327 . S
C1813 C1817 1.429 . S
C1814 C1797 1.574 . S
C1814 H1808 0.949 . S
C1814 C1818 1.368 . S
C1815 C1796 1.429 . S
C1815 C1809 1.429 . S
C1815 C1816 1.523 . S
C1816 C1797 1.368 . S
C1816 C1810 1.368 . S
C1816 C1815 1.523 . S
C1817 C1801 1.429 . S
C1817 C1813 1.429 . S
C1817 C1818 1.523 . S
C1818 C1802 1.368 . S
C1818 C1814 1.368 . S
C1818 C1817 1.523 . S
H1819 C1794 0.950 . S
H1820 C1796 0.950 . S
H1821 C1797 0.949 . S
H1822 C1799 0.950 . S
H1823 C1801 0.950 . S
C1824 C1825 1.349 . S
C1824 C1826 1.327 . S
C1824 H1849 0.950 . S
C1825 C1824 1.349 . S
C1825 C1841 1.349 . S
C1826 C1824 1.327 . S
C1826 C1845 1.429 . S
C1826 H1850 0.950 . S
C1827 C1844 1.574 . S
C1827 C1846 1.368 . S
C1827 H1851 0.949 . S
H1828 C1832 0.949 . S
C1829 C1830 1.349 . S
C1829 C1831 1.327 . S
C1829 H1852 0.950 . S
C1830 C1829 1.349 . S
C1830 C1842 1.349 . S
C1831 C1829 1.327 . S
C1831 C1847 1.429 . S
C1831 H1853 0.950 . S
C1832 H1828 0.949 . S
C1832 C1840 1.574 . S
C1832 C1848 1.368 . S
H1833 C1841 0.950 . S
H1834 C1839 0.950 . S
H1835 C1840 0.949 . S
H1836 C1842 0.950 . S
H1837 C1843 0.950 . S
H1838 C1844 0.949 . S
C1839 H1834 0.950 . S
C1839 C1841 1.327 . S
C1839 C1845 1.429 . S
C1840 C1832 1.574 . S
C1840 H1835 0.949 . S
C1840 C1846 1.368 . S
C1841 C1825 1.349 . S
C1841 H1833 0.950 . S
C1841 C1839 1.327 . S
C1842 C1830 1.349 . S
C1842 H1836 0.950 . S
C1842 C1843 1.327 . S
C1843 H1837 0.950 . S
C1843 C1842 1.327 . S
C1843 C1847 1.429 . S
C1844 C1827 1.574 . S
C1844 H1838 0.949 . S
C1844 C1848 1.368 . S
C1845 C1826 1.429 . S
C1845 C1839 1.429 . S
C1845 C1846 1.523 . S
C1846 C1827 1.368 . S
C1846 C1840 1.368 . S
C1846 C1845 1.523 . S
C1847 C1831 1.429 . S
C1847 C1843 1.429 . S
C1847 C1848 1.523 . S
C1848 C1832 1.368 . S
C1848 C1844 1.368 . S
C1848 C1847 1.523 . S
H1849 C1824 0.950 . S
H1850 C1826 0.950 . S
H1851 C1827 0.949 . S
H1852 C1829 0.950 . S
H1853 C1831 0.950 . S
C1854 C1855 1.349 . S
C1854 C1856 1.327 . S
C1854 H1879 0.950 . S
C1855 C1854 1.349 . S
C1855 C1871 1.349 . S
C1856 C1854 1.327 . S
C1856 C1875 1.429 . S
C1856 H1880 0.950 . S
C1857 C1874 1.574 . S
C1857 C1876 1.368 . S
C1857 H1881 0.949 . S
H1858 C1862 0.949 . S
C1859 C1860 1.349 . S
C1859 C1861 1.327 . S
C1859 H1882 0.950 . S
C1860 C1859 1.349 . S
C1860 C1872 1.349 . S
C1861 C1859 1.327 . S
C1861 C1877 1.429 . S
C1861 H1883 0.950 . S
C1862 H1858 0.949 . S
C1862 C1870 1.574 . S
C1862 C1878 1.368 . S
H1863 C1871 0.950 . S
H1864 C1869 0.950 . S
H1865 C1870 0.949 . S
H1866 C1872 0.950 . S
H1867 C1873 0.950 . S
H1868 C1874 0.949 . S
C1869 H1864 0.950 . S
C1869 C1871 1.327 . S
C1869 C1875 1.429 . S
C1870 C1862 1.574 . S
C1870 H1865 0.949 . S
C1870 C1876 1.368 . S
C1871 C1855 1.349 . S
C1871 H1863 0.950 . S
C1871 C1869 1.327 . S
C1872 C1860 1.349 . S
C1872 H1866 0.950 . S
C1872 C1873 1.327 . S
C1873 H1867 0.950 . S
C1873 C1872 1.327 . S
C1873 C1877 1.429 . S
C1874 C1857 1.574 . S
C1874 H1868 0.949 . S
C1874 C1878 1.368 . S
C1875 C1856 1.429 . S
C1875 C1869 1.429 . S
C1875 C1876 1.523 . S
C1876 C1857 1.368 . S
C1876 C1870 1.368 . S
C1876 C1875 1.523 . S
C1877 C1861 1.429 . S
C1877 C1873 1.429 . S
C1877 C1878 1.523 . S
C1878 C1862 1.368 . S
C1878 C1874 1.368 . S
C1878 C1877 1.523 . S
H1879 C1854 0.950 . S
H1880 C1856 0.950 . S
H1881 C1857 0.949 . S
H1882 C1859 0.950 . S
H1883 C1861 0.950 . S
C1884 C1885 1.349 . S
C1884 C1886 1.327 . S
C1884 H1909 0.950 . S
C1885 C1884 1.349 . S
C1885 C1901 1.349 . S
C1886 C1884 1.327 . S
C1886 C1905 1.429 . S
C1886 H1910 0.950 . S
C1887 C1904 1.574 . S
C1887 C1906 1.368 . S
C1887 H1911 0.949 . S
H1888 C1892 0.949 . S
C1889 C1890 1.349 . S
C1889 C1891 1.327 . S
C1889 H1912 0.950 . S
C1890 C1889 1.349 . S
C1890 C1902 1.349 . S
C1891 C1889 1.327 . S
C1891 C1907 1.429 . S
C1891 H1913 0.950 . S
C1892 H1888 0.949 . S
C1892 C1900 1.574 . S
C1892 C1908 1.368 . S
H1893 C1901 0.950 . S
H1894 C1899 0.950 . S
H1895 C1900 0.949 . S
H1896 C1902 0.950 . S
H1897 C1903 0.950 . S
H1898 C1904 0.949 . S
C1899 H1894 0.950 . S
C1899 C1901 1.327 . S
C1899 C1905 1.429 . S
C1900 C1892 1.574 . S
C1900 H1895 0.949 . S
C1900 C1906 1.368 . S
C1901 C1885 1.349 . S
C1901 H1893 0.950 . S
C1901 C1899 1.327 . S
C1902 C1890 1.349 . S
C1902 H1896 0.950 . S
C1902 C1903 1.327 . S
C1903 H1897 0.950 . S
C1903 C1902 1.327 . S
C1903 C1907 1.429 . S
C1904 C1887 1.574 . S
C1904 H1898 0.949 . S
C1904 C1908 1.368 . S
C1905 C1886 1.429 . S
C1905 C1899 1.429 . S
C1905 C1906 1.523 . S
C1906 C1887 1.368 . S
C1906 C1900 1.368 . S
C1906 C1905 1.523 . S
C1907 C1891 1.429 . S
C1907 C1903 1.429 . S
C1907 C1908 1.523 . S
C1908 C1892 1.368 . S
C1908 C1904 1.368 . S
C1908 C1907 1.523 . S
H1909 C1884 0.950 . S
H1910 C1886 0.950 . S
H1911 C1887 0.949 . S
H1912 C1889 0.950 . S
H1913 C1891 0.950 . S
C1914 C1915 1.349 . S
C1914 C1916 1.327 . S
C1914 H1939 0.950 . S
C1915 C1914 1.349 . S
C1915 C1931 1.349 . S
C1916 C1914 1.327 . S
C1916 C1935 1.429 . S
C1916 H1940 0.950 . S
C1917 C1934 1.574 . S
C1917 C1936 1.368 . S
C1917 H1941 0.949 . S
H1918 C1922 0.949 . S
C1919 C1920 1.349 . S
C1919 C1921 1.327 . S
C1919 H1942 0.950 . S
C1920 C1919 1.349 . S
C1920 C1932 1.349 . S
C1921 C1919 1.327 . S
C1921 C1937 1.429 . S
C1921 H1943 0.950 . S
C1922 H1918 0.949 . S
C1922 C1930 1.574 . S
C1922 C1938 1.368 . S
H1923 C1931 0.950 . S
H1924 C1929 0.950 . S
H1925 C1930 0.949 . S
H1926 C1932 0.950 . S
H1927 C1933 0.950 . S
H1928 C1934 0.949 . S
C1929 H1924 0.950 . S
C1929 C1931 1.327 . S
C1929 C1935 1.429 . S
C1930 C1922 1.574 . S
C1930 H1925 0.949 . S
C1930 C1936 1.368 . S
C1931 C1915 1.349 . S
C1931 H1923 0.950 . S
C1931 C1929 1.327 . S
C1932 C1920 1.349 . S
C1932 H1926 0.950 . S
C1932 C1933 1.327 . S
C1933 H1927 0.950 . S
C1933 C1932 1.327 . S
C1933 C1937 1.429 . S
C1934 C1917 1.574 . S
C1934 H1928 0.949 . S
C1934 C1938 1.368 . S
C1935 C1916 1.429 . S
C1935 C1929 1.429 . S
C1935 C1936 1.523 . S
C1936 C1917 1.368 . S
C1936 C1930 1.368 . S
C1936 C1935 1.523 . S
C1937 C1921 1.429 . S
C1937 C1933 1.429 . S
C1937 C1938 1.523 . S
C1938 C1922 1.368 . S
C1938 C1934 1.368 . S
C1938 C1937 1.523 . S
H1939 C1914 0.950 . S
H1940 C1916 0.950 . S
H1941 C1917 0.949 . S
H1942 C1919 0.950 . S
H1943 C1921 0.950 . S
C1944 C1945 1.349 . S
C1944 C1946 1.327 . S
C1944 H1969 0.950 . S
C1945 C1944 1.349 . S
C1945 C1961 1.349 . S
C1946 C1944 1.327 . S
C1946 C1965 1.429 . S
C1946 H1970 0.950 . S
C1947 C1964 1.574 1_554 S
C1947 C1966 1.368 1_565 S
C1947 H1971 0.949 . S
H1948 C1952 0.949 . S
C1949 C1950 1.349 . S
C1949 C1951 1.327 . S
C1949 H1972 0.950 . S
C1950 C1949 1.349 . S
C1950 C1962 1.349 . S
C1951 C1949 1.327 . S
C1951 C1967 1.429 . S
C1951 H1973 0.950 . S
C1952 H1948 0.949 . S
C1952 C1960 1.574 1_556 S
C1952 C1968 1.368 1_545 S
H1953 C1961 0.950 1_565 S
H1954 C1959 0.931 1_565 S
H1955 C1960 0.949 . S
H1956 C1962 0.950 1_545 S
H1957 C1963 0.931 1_545 S
H1958 C1964 0.949 . S
C1959 H1954 0.931 1_545 S
C1959 C1961 1.341 . S
C1959 C1965 1.434 . S
C1960 C1952 1.574 1_554 S
C1960 H1955 0.949 . S
C1960 C1966 1.368 . S
C1961 C1945 1.349 . S
C1961 H1953 0.950 1_545 S
C1961 C1959 1.341 . S
C1962 C1950 1.349 . S
C1962 H1956 0.950 1_565 S
C1962 C1963 1.341 . S
C1963 H1957 0.931 1_565 S
C1963 C1962 1.341 . S
C1963 C1967 1.434 . S
C1964 C1947 1.574 1_556 S
C1964 H1958 0.949 . S
C1964 C1968 1.368 . S
C1965 C1946 1.429 . S
C1965 C1959 1.434 . S
C1965 C1966 1.523 . S
C1966 C1947 1.368 1_545 S
C1966 C1960 1.368 . S
C1966 C1965 1.523 . S
C1967 C1951 1.429 . S
C1967 C1963 1.434 . S
C1967 C1968 1.523 . S
C1968 C1952 1.368 1_565 S
C1968 C1964 1.368 . S
C1968 C1967 1.523 . S
H1969 C1944 0.950 . S
H1970 C1946 0.950 . S
H1971 C1947 0.949 . S
H1972 C1949 0.950 . S
H1973 C1951 0.950 . S
C1974 C1975 1.349 . S
C1974 C1976 1.327 . S
C1974 H1999 0.950 . S
C1975 C1974 1.349 . S
C1975 C1991 1.349 . S
C1976 C1974 1.327 . S
C1976 C1995 1.429 . S
C1976 H2000 0.950 . S
C1977 C1994 1.574 1_554 S
C1977 C1996 1.368 1_455 S
C1977 H2001 0.949 . S
H1978 C1982 0.949 . S
C1979 C1980 1.349 . S
C1979 C1981 1.327 . S
C1979 H2002 0.950 . S
C1980 C1979 1.349 . S
C1980 C1992 1.349 . S
C1981 C1979 1.327 . S
C1981 C1997 1.429 . S
C1981 H2003 0.950 . S
C1982 H1978 0.949 . S
C1982 C1990 1.574 1_556 S
C1982 C1998 1.368 1_655 S
H1983 C1991 0.950 1_455 S
H1984 C1989 0.920 1_455 S
H1985 C1990 0.949 . S
H1986 C1992 0.950 1_655 S
H1987 C1993 0.920 1_655 S
H1988 C1994 0.949 . S
C1989 H1984 0.920 1_655 S
C1989 C1991 1.332 . S
C1989 C1995 1.456 . S
C1990 C1982 1.574 1_554 S
C1990 H1985 0.949 . S
C1990 C1996 1.368 . S
C1991 C1975 1.349 . S
C1991 H1983 0.950 1_655 S
C1991 C1989 1.332 . S
C1992 C1980 1.349 . S
C1992 H1986 0.950 1_455 S
C1992 C1993 1.332 . S
C1993 H1987 0.920 1_455 S
C1993 C1992 1.332 . S
C1993 C1997 1.456 . S
C1994 C1977 1.574 1_556 S
C1994 H1988 0.949 . S
C1994 C1998 1.368 . S
C1995 C1976 1.429 . S
C1995 C1989 1.456 . S
C1995 C1996 1.523 . S
C1996 C1977 1.368 1_655 S
C1996 C1990 1.368 . S
C1996 C1995 1.523 . S
C1997 C1981 1.429 . S
C1997 C1993 1.456 . S
C1997 C1998 1.523 . S
C1998 C1982 1.368 1_455 S
C1998 C1994 1.368 . S
C1998 C1997 1.523 . S
H1999 C1974 0.950 . S
H2000 C1976 0.950 . S
H2001 C1977 0.949 . S
H2002 C1979 0.950 . S
H2003 C1981 0.950 . S
C2004 C2005 1.349 . S
C2004 C2006 1.327 . S
C2004 H2029 0.950 . S
C2005 C2004 1.349 . S
C2005 C2021 1.349 . S
C2006 C2004 1.327 . S
C2006 C2025 1.429 . S
C2006 H2030 0.950 . S
C2007 C2024 1.574 1_556 S
C2007 C2026 1.368 . S
C2007 H2031 0.949 . S
H2008 C2012 0.949 . S
C2009 C2010 1.349 . S
C2009 C2011 1.327 . S
C2009 H2032 0.950 . S
C2010 C2009 1.349 . S
C2010 C2022 1.349 . S
C2011 C2009 1.327 . S
C2011 C2027 1.429 . S
C2011 H2033 0.950 . S
C2012 H2008 0.949 . S
C2012 C2020 1.574 1_554 S
C2012 C2028 1.368 . S
H2013 C2021 0.950 . S
H2014 C2019 0.950 . S
H2015 C2020 0.949 . S
H2016 C2022 0.950 . S
H2017 C2023 0.950 . S
H2018 C2024 0.949 . S
C2019 H2014 0.950 . S
C2019 C2021 1.327 . S
C2019 C2025 1.429 . S
C2020 C2012 1.574 1_556 S
C2020 H2015 0.949 . S
C2020 C2026 1.368 . S
C2021 C2005 1.349 . S
C2021 H2013 0.950 . S
C2021 C2019 1.327 . S
C2022 C2010 1.349 . S
C2022 H2016 0.950 . S
C2022 C2023 1.327 . S
C2023 H2017 0.950 . S
C2023 C2022 1.327 . S
C2023 C2027 1.429 . S
C2024 C2007 1.574 1_554 S
C2024 H2018 0.949 . S
C2024 C2028 1.368 . S
C2025 C2006 1.429 . S
C2025 C2019 1.429 . S
C2025 C2026 1.523 . S
C2026 C2007 1.368 . S
C2026 C2020 1.368 . S
C2026 C2025 1.523 . S
C2027 C2011 1.429 . S
C2027 C2023 1.429 . S
C2027 C2028 1.523 . S
C2028 C2012 1.368 . S
C2028 C2024 1.368 . S
C2028 C2027 1.523 . S
H2029 C2004 0.950 . S
H2030 C2006 0.950 . S
H2031 C2007 0.949 . S
H2032 C2009 0.950 . S
H2033 C2011 0.950 . S
C415 C110 1.092 . S
C420 C20 1.107 . S
C445 C43 1.107 . S
C450 C133 1.092 . S
C475 C87 1.092 . S
C480 C66 1.107 . S
C505 C89 1.107 . S
C510 C41 1.092 . S
C535 C112 1.107 . S
C540 C64 1.092 . S
C565 C18 1.092 . S
C570 C135 1.107 . S
C595 C158 1.106 . S
C600 C248 1.092 . S
C625 C271 1.092 . S
C630 C181 1.107 . S
C655 C225 1.092 . S
C660 C204 1.107 . S
C685 C227 1.107 . S
C690 C179 1.092 . S
C715 C202 1.092 . S
C720 C250 1.107 . S
C745 C273 1.107 . S
C750 C156 1.092 . S
C775 C386 1.092 . S
C780 C296 1.107 . S
C805 C319 1.107 . S
C810 C409 1.092 . S
C835 C363 1.092 . S
C840 C342 1.107 . S
C865 C317 1.092 . S
C870 C365 1.106 . S
C895 C388 1.107 . S
C900 C340 1.092 . S
C925 C294 1.092 . S
C930 C411 1.107 . S
C955 C16 1.018 . S
C960 C361 1.018 . S
C985 C39 1.018 . S
C990 C384 1.018 . S
C1015 C407 1.018 . S
C1020 C62 1.018 . S
C1045 C85 1.018 . S
C1050 C154 1.018 . S
C1075 C108 1.018 . S
C1080 C177 1.018 . S
C1105 C200 1.018 . S
C1110 C131 1.018 . S
C1135 C292 1.018 . S
C1140 C223 1.018 . S
C1165 C315 1.018 . S
C1170 C246 1.018 . S
C1195 C338 1.018 . S
C1200 C269 1.018 . S
C1225 C17 1.268 . S
C1230 C182 1.304 . S
C1255 C205 1.304 . S
C1260 C40 1.268 . S
C1285 C159 1.304 . S
C1290 C63 1.268 . S
C1315 C86 1.268 . S
C1320 C389 1.304 . S
C1345 C412 1.304 . S
C1350 C109 1.268 . S
C1375 C132 1.268 . S
C1380 C366 1.304 . S
C1405 C155 1.268 . S
C1410 C320 1.304 . S
C1435 C178 1.268 . S
C1440 C343 1.304 . S
C1465 C201 1.268 . S
C1470 C297 1.304 . S
C1495 C113 1.304 . S
C1500 C224 1.268 . S
C1525 C136 1.304 . S
C1530 C247 1.268 . S
C1555 C90 1.304 . S
C1560 C270 1.268 . S
C1585 C293 1.268 . S
C1590 C44 1.304 . S
C1615 C316 1.268 . S
C1620 C67 1.304 . S
C1645 C21 1.304 . S
C1650 C339 1.268 . S
C1675 C251 1.304 . S
C1680 C362 1.268 . S
C1705 C385 1.268 . S
C1710 C274 1.304 . S
C1735 C228 1.304 . S
C1740 C408 1.268 . S
C1765 C19 1.333 . S
C1770 C364 1.333 . S
C1795 C42 1.333 . S
C1800 C387 1.333 . S
C1825 C65 1.333 . S
C1830 C410 1.333 . S
C1855 C157 1.333 . S
C1860 C88 1.333 . S
C1885 C111 1.333 . S
C1890 C180 1.333 . S
C1915 C203 1.333 . S
C1920 C134 1.333 . S
C1945 C226 1.333 . S
C1950 C295 1.333 . S
C1975 C249 1.333 . S
C1980 C318 1.333 . S
C2005 C341 1.333 . S
C2010 C272 1.333 . S
