# Generated by pormake.
# Topology uoz, (4)-cn, num edge types: 1
# Building blocks:
#     Node 0, Type 0, BuildingBlock: NAHDIM_clean_sbu_0, # of connection points: 4
#     Node 1, Type 0, BuildingBlock: NAHDIM_clean_sbu_0, # of connection points: 4
#     Node 2, Type 0, BuildingBlock: NAHDIM_clean_sbu_0, # of connection points: 4
#     Node 3, Type 0, BuildingBlock: NAHDIM_clean_sbu_0, # of connection points: 4
#     Node 4, Type 0, BuildingBlock: NAHDIM_clean_sbu_0, # of connection points: 4
#     Node 5, Type 0, BuildingBlock: NAHDIM_clean_sbu_0, # of connection points: 4
#     Node 6, Type 0, BuildingBlock: NAHDIM_clean_sbu_0, # of connection points: 4
#     Node 7, Type 0, BuildingBlock: NAHDIM_clean_sbu_0, # of connection points: 4
#     Node 8, Type 0, BuildingBlock: NAHDIM_clean_sbu_0, # of connection points: 4
#     Node 9, Type 0, BuildingBlock: NAHDIM_clean_sbu_0, # of connection points: 4
#     Node 10, Type 0, BuildingBlock: NAHDIM_clean_sbu_0, # of connection points: 4
#     Node 11, Type 0, BuildingBlock: NAHDIM_clean_sbu_0, # of connection points: 4
#     Node 12, Type 0, BuildingBlock: NAHDIM_clean_sbu_0, # of connection points: 4
#     Node 13, Type 0, BuildingBlock: NAHDIM_clean_sbu_0, # of connection points: 4
#     Node 14, Type 0, BuildingBlock: NAHDIM_clean_sbu_0, # of connection points: 4
#     Node 15, Type 0, BuildingBlock: NAHDIM_clean_sbu_0, # of connection points: 4
#     Edge 16, Type (0, 0), BuildingBlock: MIFKUJ_clean_linker_0, # of connection points: 2
#     Edge 17, Type (0, 0), BuildingBlock: MIFKUJ_clean_linker_0, # of connection points: 2
#     Edge 18, Type (0, 0), BuildingBlock: MIFKUJ_clean_linker_0, # of connection points: 2
#     Edge 19, Type (0, 0), BuildingBlock: MIFKUJ_clean_linker_0, # of connection points: 2
#     Edge 20, Type (0, 0), BuildingBlock: MIFKUJ_clean_linker_0, # of connection points: 2
#     Edge 21, Type (0, 0), BuildingBlock: MIFKUJ_clean_linker_0, # of connection points: 2
#     Edge 22, Type (0, 0), BuildingBlock: MIFKUJ_clean_linker_0, # of connection points: 2
#     Edge 23, Type (0, 0), BuildingBlock: MIFKUJ_clean_linker_0, # of connection points: 2
#     Edge 24, Type (0, 0), BuildingBlock: MIFKUJ_clean_linker_0, # of connection points: 2
#     Edge 25, Type (0, 0), BuildingBlock: MIFKUJ_clean_linker_0, # of connection points: 2
#     Edge 26, Type (0, 0), BuildingBlock: MIFKUJ_clean_linker_0, # of connection points: 2
#     Edge 27, Type (0, 0), BuildingBlock: MIFKUJ_clean_linker_0, # of connection points: 2
#     Edge 28, Type (0, 0), BuildingBlock: MIFKUJ_clean_linker_0, # of connection points: 2
#     Edge 29, Type (0, 0), BuildingBlock: MIFKUJ_clean_linker_0, # of connection points: 2
#     Edge 30, Type (0, 0), BuildingBlock: MIFKUJ_clean_linker_0, # of connection points: 2
#     Edge 31, Type (0, 0), BuildingBlock: MIFKUJ_clean_linker_0, # of connection points: 2
#     Edge 32, Type (0, 0), BuildingBlock: MIFKUJ_clean_linker_0, # of connection points: 2
#     Edge 33, Type (0, 0), BuildingBlock: MIFKUJ_clean_linker_0, # of connection points: 2
#     Edge 34, Type (0, 0), BuildingBlock: MIFKUJ_clean_linker_0, # of connection points: 2
#     Edge 35, Type (0, 0), BuildingBlock: MIFKUJ_clean_linker_0, # of connection points: 2
#     Edge 36, Type (0, 0), BuildingBlock: MIFKUJ_clean_linker_0, # of connection points: 2
#     Edge 37, Type (0, 0), BuildingBlock: MIFKUJ_clean_linker_0, # of connection points: 2
#     Edge 38, Type (0, 0), BuildingBlock: MIFKUJ_clean_linker_0, # of connection points: 2
#     Edge 39, Type (0, 0), BuildingBlock: MIFKUJ_clean_linker_0, # of connection points: 2
#     Edge 40, Type (0, 0), BuildingBlock: MIFKUJ_clean_linker_0, # of connection points: 2
#     Edge 41, Type (0, 0), BuildingBlock: MIFKUJ_clean_linker_0, # of connection points: 2
#     Edge 42, Type (0, 0), BuildingBlock: MIFKUJ_clean_linker_0, # of connection points: 2
#     Edge 43, Type (0, 0), BuildingBlock: MIFKUJ_clean_linker_0, # of connection points: 2
#     Edge 44, Type (0, 0), BuildingBlock: MIFKUJ_clean_linker_0, # of connection points: 2
#     Edge 45, Type (0, 0), BuildingBlock: MIFKUJ_clean_linker_0, # of connection points: 2
#     Edge 46, Type (0, 0), BuildingBlock: MIFKUJ_clean_linker_0, # of connection points: 2
#     Edge 47, Type (0, 0), BuildingBlock: MIFKUJ_clean_linker_0, # of connection points: 2
# Relax obj value: 0.113
# Max RMSD: 0.096
# Mean RMSD: 0.096
data_MOF--net-uoz--node1-NAHDIM_clean_sbu_0--edge1-MIFKUJ_clean_linker_0
_symmetry_space_group_name_H-M    P1
_symmetry_Int_Tables_number       1
_symmetry_cell_setting            triclinic
loop_
_symmetry_equiv_pos_as_xyz
'x, y, z'
_cell_length_a     76.905949
_cell_length_b     76.895077
_cell_length_c     29.165424
_cell_angle_alpha  90.019852
_cell_angle_beta   89.974074
_cell_angle_gamma 90.020704
loop_
_atom_site_label
_atom_site_type_symbol
_atom_site_fract_x
_atom_site_fract_y
_atom_site_fract_z
_atom_type_partial_charge
C0 C 0.02864 0.55374 0.36605 0.0
O1 O 0.03057 0.54704 0.32498 0.0
O2 O 0.04234 0.6009 0.30262 0.0
Zn3 Zn 0.02254 0.58421 0.3121 0.0
O4 O 0.0216 0.56812 0.25818 0.0
C5 C 0.99894 0.61309 0.32416 0.0
O6 O 0.01246 0.62049 0.34361 0.0
O7 O 0.02534 0.56989 0.37005 0.0
C8 C 0.02752 0.57125 0.2184 0.0
O9 O 0.03476 0.58638 0.20977 0.0
C10 C 0.05823 0.5965 0.30531 0.0
O11 O 0.06219 0.58051 0.31718 0.0
O12 O 0.0001 0.59741 0.3109 0.0
C13 C 0.72369 0.76386 0.61223 0.0
O14 O 0.72903 0.77213 0.57544 0.0
O15 O 0.68335 0.77687 0.53858 0.0
Zn16 Zn 0.69753 0.75529 0.54904 0.0
O17 O 0.71634 0.75409 0.50154 0.0
C18 C 0.67708 0.73189 0.49909 0.0
O19 O 0.68285 0.7423 0.46674 0.0
O20 O 0.70935 0.75562 0.61079 0.0
C21 C 0.72514 0.74031 0.49542 0.0
O22 O 0.72135 0.7263 0.51916 0.0
C23 C 0.68953 0.7904 0.51954 0.0
O24 O 0.70607 0.7908 0.50833 0.0
O25 O 0.68175 0.73465 0.5403 0.0
C26 C 0.52007 0.42704 0.91618 0.0
O27 O 0.5079 0.41505 0.91613 0.0
O28 O 0.50563 0.40087 0.82011 0.0
Zn29 Zn 0.52795 0.41443 0.82363 0.0
O30 O 0.52881 0.43146 0.77123 0.0
C31 C 0.54691 0.38892 0.77727 0.0
O32 O 0.53316 0.39076 0.75105 0.0
O33 O 0.53019 0.42834 0.8819 0.0
C34 C 0.51957 0.43035 0.7352 0.0
O35 O 0.50829 0.41762 0.73107 0.0
C36 C 0.49052 0.40755 0.8201 0.0
O37 O 0.48882 0.42439 0.82641 0.0
O38 O 0.54791 0.39781 0.81397 0.0
C39 C 0.84783 0.2383 0.14564 0.0
O40 O 0.85627 0.22387 0.13641 0.0
O41 O 0.87711 0.22873 0.05099 0.0
Zn42 Zn 0.86357 0.25085 0.06081 0.0
O43 O 0.84676 0.25273 0.00894 0.0
C44 C 0.89611 0.26938 0.06047 0.0
O45 O 0.90206 0.25448 0.07592 0.0
O46 O 0.84976 0.25139 0.11954 0.0
C47 C 0.85258 0.25214 0.96821 0.0
O48 O 0.86938 0.2503 0.96157 0.0
C49 C 0.87007 0.21474 0.03702 0.0
O50 O 0.85308 0.21401 0.03273 0.0
O51 O 0.87985 0.27119 0.0544 0.0
C52 C 0.04368 0.43923 0.75291 0.0
O53 O 0.05224 0.44477 0.78903 0.0
O54 O 0.0609 0.39877 0.81912 0.0
Zn55 Zn 0.03825 0.41168 0.81471 0.0
O56 O 0.03762 0.42973 0.86441 0.0
C57 C 0.02162 0.3813 0.84931 0.0
O58 O 0.03763 0.37846 0.86309 0.0
O59 O 0.03639 0.42439 0.75435 0.0
C60 C 0.03195 0.42753 0.90487 0.0
O61 O 0.02586 0.41227 0.91713 0.0
C62 C 0.07467 0.4055 0.8354 0.0
O63 O 0.07479 0.42209 0.84613 0.0
O64 O 0.0184 0.39487 0.8258 0.0
C65 C 0.83805 0.75827 0.00128 0.0
O66 O 0.83156 0.76176 0.04189 0.0
O67 O 0.88151 0.77692 0.06547 0.0
Zn68 Zn 0.86848 0.75458 0.05586 0.0
O69 O 0.85246 0.75125 0.10917 0.0
C70 C 0.89903 0.73651 0.08201 0.0
O71 O 0.90334 0.75234 0.09442 0.0
O72 O 0.8542 0.7549 0.9976 0.0
C73 C 0.85719 0.75274 0.15068 0.0
O74 O 0.8733 0.75714 0.16012 0.0
C75 C 0.87469 0.79174 0.07216 0.0
O76 O 0.85775 0.79353 0.06888 0.0
O77 O 0.88493 0.73419 0.06009 0.0
C78 C 0.51294 0.56351 0.25123 0.0
O79 O 0.50091 0.56186 0.28295 0.0
O80 O 0.50314 0.59651 0.33579 0.0
Zn81 Zn 0.52569 0.58396 0.32203 0.0
O82 O 0.52764 0.56335 0.36398 0.0
C83 C 0.54771 0.60561 0.37445 0.0
O84 O 0.53697 0.59991 0.40607 0.0
O85 O 0.52553 0.57387 0.2585 0.0
C86 C 0.54164 0.5578 0.38184 0.0
O87 O 0.55637 0.56585 0.37356 0.0
C88 C 0.49607 0.59475 0.37497 0.0
O89 O 0.50321 0.58431 0.40519 0.0
O90 O 0.54572 0.60045 0.33332 0.0
C91 C 0.7141 0.23314 0.48782 0.0
O92 O 0.71563 0.22031 0.51723 0.0
O93 O 0.68109 0.22435 0.57684 0.0
Zn94 Zn 0.69514 0.24583 0.56283 0.0
O95 O 0.71593 0.24615 0.60417 0.0
C96 C 0.67733 0.26929 0.61992 0.0
O97 O 0.68489 0.25919 0.65027 0.0
O98 O 0.70455 0.24604 0.49836 0.0
C99 C 0.72425 0.25997 0.61349 0.0
O100 O 0.71906 0.27485 0.59613 0.0
C101 C 0.68745 0.21147 0.59842 0.0
O102 O 0.70403 0.2115 0.60917 0.0
O103 O 0.67991 0.26644 0.57748 0.0
C104 C 0.34398 0.25836 0.51303 0.0
O105 O 0.33734 0.26365 0.55207 0.0
O106 O 0.38532 0.27924 0.57696 0.0
Zn107 Zn 0.37354 0.25604 0.5706 0.0
O108 O 0.3565 0.25363 0.62207 0.0
C109 C 0.40334 0.23946 0.60686 0.0
O110 O 0.40528 0.25516 0.62387 0.0
O111 O 0.36005 0.25441 0.51115 0.0
C112 C 0.3589 0.25832 0.6633 0.0
O113 O 0.37393 0.26499 0.6755 0.0
C114 C 0.37692 0.29277 0.58862 0.0
O115 O 0.35992 0.2919 0.59248 0.0
O116 O 0.39083 0.23659 0.57939 0.0
C117 C 0.21613 0.73866 0.01616 0.0
O118 O 0.2215 0.73158 0.05461 0.0
O119 O 0.17686 0.72884 0.0961 0.0
Zn120 Zn 0.19063 0.75004 0.07815 0.0
O121 O 0.20957 0.75402 0.12402 0.0
C122 C 0.15848 0.76921 0.07609 0.0
O123 O 0.15222 0.75424 0.06202 0.0
O124 O 0.20202 0.74729 0.0163 0.0
C125 C 0.20638 0.75806 0.16537 0.0
O126 O 0.19015 0.75952 0.17893 0.0
C127 C 0.18295 0.71636 0.11972 0.0
O128 O 0.19944 0.71651 0.1314 0.0
O129 O 0.17477 0.77076 0.08209 0.0
C130 C 0.22816 0.25833 0.12752 0.0
O131 O 0.23373 0.26501 0.08879 0.0
O132 O 0.18558 0.27043 0.0555 0.0
Zn133 Zn 0.20054 0.24956 0.06815 0.0
O134 O 0.21851 0.24853 0.01886 0.0
C135 C 0.16975 0.2288 0.07329 0.0
O136 O 0.1636 0.24303 0.09225 0.0
O137 O 0.21325 0.25114 0.12867 0.0
C138 C 0.21527 0.24879 0.97624 0.0
O139 O 0.19905 0.24897 0.96212 0.0
C140 C 0.19184 0.2852 0.04514 0.0
O141 O 0.20876 0.28749 0.04582 0.0
O142 O 0.18574 0.22816 0.06251 0.0
C143 C 0.33061 0.74118 0.62728 0.0
O144 O 0.32426 0.73719 0.58682 0.0
O145 O 0.36882 0.72299 0.5538 0.0
Zn146 Zn 0.35958 0.7467 0.57051 0.0
O147 O 0.34294 0.75501 0.52245 0.0
C148 C 0.39494 0.7591 0.56344 0.0
O149 O 0.39861 0.74242 0.56333 0.0
O150 O 0.3465 0.74567 0.63044 0.0
C151 C 0.3473 0.76068 0.48319 0.0
O152 O 0.36381 0.76112 0.47163 0.0
C153 C 0.36491 0.71484 0.51728 0.0
O154 O 0.35319 0.72135 0.48945 0.0
O155 O 0.37932 0.76391 0.57012 0.0
C156 C 0.53831 0.05171 0.87195 0.0
O157 O 0.54401 0.04549 0.83281 0.0
O158 O 0.55189 0.09694 0.80624 0.0
Zn159 Zn 0.53163 0.08079 0.814 0.0
O160 O 0.53209 0.06391 0.76172 0.0
C161 C 0.50913 0.1105 0.82112 0.0
O162 O 0.52248 0.11702 0.84338 0.0
O163 O 0.53259 0.06723 0.87347 0.0
C164 C 0.52481 0.06642 0.72323 0.0
O165 O 0.51652 0.08108 0.71568 0.0
C166 C 0.56748 0.09171 0.80226 0.0
O167 O 0.57088 0.07504 0.80636 0.0
O168 O 0.50971 0.09478 0.80788 0.0
C169 C 0.01402 0.93994 0.39538 0.0
O170 O 0.00254 0.94259 0.36283 0.0
O171 O -0.00029 0.90468 0.31964 0.0
Zn172 Zn 0.02346 0.91536 0.32947 0.0
O173 O 0.02726 0.93339 0.28104 0.0
C174 C 0.03781 0.88285 0.29992 0.0
O175 O 0.0214 0.88006 0.28995 0.0
O176 O 0.02501 0.92773 0.39042 0.0
C177 C 0.02741 0.92949 0.23873 0.0
O178 O 0.0251 0.91322 0.22636 0.0
C179 C 0.98769 0.91181 0.29633 0.0
O180 O 0.98985 0.92774 0.28111 0.0
O181 O 0.04202 0.89696 0.31989 0.0
C182 C 0.52912 0.93777 0.2617 0.0
O183 O 0.53305 0.94415 0.30217 0.0
O184 O 0.54526 0.89597 0.33219 0.0
Zn185 Zn 0.52287 0.90835 0.31797 0.0
O186 O 0.51829 0.92521 0.36893 0.0
C187 C 0.50636 0.87473 0.31657 0.0
O188 O 0.52211 0.86955 0.30573 0.0
O189 O 0.52438 0.92194 0.25862 0.0
C190 C 0.52388 0.92293 0.40943 0.0
O191 O 0.53246 0.90865 0.41939 0.0
C192 C 0.56029 0.90282 0.33247 0.0
O193 O 0.56215 0.91914 0.32015 0.0
O194 O 0.50332 0.89093 0.31993 0.0
C195 C 0.01759 0.07342 0.73835 0.0
O196 O 0.0027 0.08116 0.74668 0.0
O197 O 0.00423 0.09964 0.83357 0.0
Zn198 Zn 0.02697 0.08675 0.82815 0.0
O199 O 0.02724 0.06767 0.87476 0.0
C200 C 0.0435 0.11703 0.86494 0.0
O201 O 0.02729 0.12064 0.87541 0.0
O202 O 0.02995 0.07499 0.76695 0.0
C203 C 0.02883 0.07053 0.91742 0.0
O204 O 0.03018 0.08662 0.93216 0.0
C205 C 0.99021 0.0928 0.84797 0.0
O206 O 0.98974 0.07601 0.85624 0.0
O207 O 0.04681 0.10315 0.84283 0.0
H208 H 0.14764 0.71472 0.11091 0.0
H209 H 0.12789 0.69358 0.14533 0.0
H210 H 0.1715 0.66612 0.20344 0.0
H211 H 0.19147 0.68726 0.16902 0.0
H212 H 0.14604 0.64411 0.1648 0.0
H213 H 0.14942 0.69204 0.27045 0.0
H214 H 0.14828 0.72303 0.29202 0.0
H215 H 0.09497 0.72566 0.24896 0.0
H216 H 0.09587 0.69474 0.22645 0.0
H217 H 0.09355 0.59263 0.31236 0.0
H218 H 0.11605 0.61253 0.2846 0.0
H219 H 0.07641 0.64791 0.23715 0.0
H220 H 0.05393 0.6284 0.26593 0.0
H221 H 0.10164 0.6656 0.27458 0.0
H222 H 0.09804 0.61941 0.16388 0.0
H223 H 0.09849 0.58897 0.13726 0.0
H224 H 0.15105 0.5835 0.18468 0.0
H225 H 0.15083 0.61386 0.21216 0.0
C226 C 0.15308 0.70412 0.13067 0.0
C227 C 0.17114 0.70273 0.13746 0.0
C228 C 0.14176 0.69209 0.15045 0.0
C229 C 0.14824 0.67844 0.1774 0.0
C230 C 0.16627 0.67662 0.18288 0.0
C231 C 0.17763 0.68872 0.16328 0.0
C232 C 0.13609 0.66642 0.20079 0.0
C233 C 0.13651 0.64871 0.1894 0.0
C234 C 0.12344 0.67258 0.23206 0.0
C235 C 0.12276 0.69109 0.24643 0.0
C236 C 0.13749 0.69925 0.26532 0.0
C237 C 0.13688 0.7168 0.27774 0.0
C238 C 0.12157 0.72632 0.27177 0.0
C239 C 0.10682 0.71827 0.25353 0.0
C240 C 0.10737 0.70073 0.24098 0.0
C241 C 0.08964 0.60471 0.29631 0.0
C242 C 0.07195 0.60889 0.29117 0.0
C243 C 0.10251 0.61603 0.28025 0.0
C244 C 0.09792 0.6316 0.2581 0.0
C245 C 0.08028 0.63598 0.25406 0.0
C246 C 0.06743 0.62477 0.27048 0.0
C247 C 0.1114 0.64322 0.23824 0.0
C248 C 0.11125 0.6609 0.25031 0.0
C249 C 0.12416 0.63707 0.20715 0.0
C250 C 0.12435 0.61884 0.19054 0.0
C251 C 0.10964 0.61167 0.16895 0.0
C252 C 0.10987 0.59444 0.15366 0.0
C253 C 0.12477 0.58429 0.1594 0.0
C254 C 0.13951 0.59137 0.18034 0.0
C255 C 0.13934 0.60859 0.19575 0.0
H256 H 0.12492 0.57095 0.14753 0.0
H257 H 0.12113 0.73991 0.28136 0.0
H258 H 0.5948 0.91191 0.33251 0.0
H259 H 0.61902 0.89572 0.36675 0.0
H260 H 0.58353 0.85529 0.40866 0.0
H261 H 0.55938 0.87121 0.37455 0.0
H262 H 0.60576 0.86645 0.47873 0.0
H263 H 0.60866 0.84873 0.31909 0.0
H264 H 0.61138 0.85395 0.23597 0.0
H265 H 0.6608 0.87867 0.2572 0.0
H266 H 0.65826 0.8738 0.34058 0.0
H267 H 0.65421 0.79168 0.52796 0.0
H268 H 0.63465 0.81412 0.49966 0.0
H269 H 0.67855 0.8442 0.45263 0.0
H270 H 0.6983 0.82149 0.47996 0.0
H271 H 0.65484 0.84255 0.38803 0.0
H272 H 0.65407 0.85737 0.54594 0.0
H273 H 0.65179 0.85264 0.62933 0.0
H274 H 0.59925 0.83476 0.61318 0.0
H275 H 0.60128 0.83914 0.52959 0.0
C276 C 0.59219 0.89952 0.34879 0.0
C277 C 0.57518 0.89284 0.35076 0.0
C278 C 0.60603 0.89031 0.36829 0.0
C279 C 0.60302 0.87434 0.39023 0.0
C280 C 0.58609 0.86763 0.39203 0.0
C281 C 0.57232 0.87672 0.37226 0.0
C282 C 0.61739 0.86452 0.41179 0.0
C283 C 0.61647 0.86113 0.45897 0.0
C284 C 0.63164 0.85818 0.38617 0.0
C285 C 0.63317 0.8611 0.33609 0.0
C286 C 0.62003 0.85543 0.30607 0.0
C287 C 0.62156 0.85829 0.25891 0.0
C288 C 0.63623 0.86669 0.24133 0.0
C289 C 0.64943 0.8722 0.27088 0.0
C290 C 0.64795 0.86939 0.31808 0.0
C291 C 0.65976 0.80315 0.51211 0.0
C292 C 0.67783 0.80479 0.50619 0.0
C293 C 0.64854 0.81604 0.49612 0.0
C294 C 0.65513 0.83096 0.4745 0.0
C295 C 0.67318 0.83281 0.4693 0.0
C296 C 0.68444 0.81984 0.48505 0.0
C297 C 0.64301 0.84403 0.455 0.0
C298 C 0.64434 0.84808 0.40816 0.0
C299 C 0.62919 0.85112 0.48107 0.0
C300 C 0.62788 0.84848 0.5314 0.0
C301 C 0.64207 0.85231 0.56011 0.0
C302 C 0.64081 0.84971 0.60743 0.0
C303 C 0.6254 0.84338 0.62653 0.0
C304 C 0.61119 0.83966 0.59834 0.0
C305 C 0.61238 0.84222 0.55098 0.0
H306 H 0.62446 0.84137 0.66318 0.0
H307 H 0.63739 0.86889 0.2048 0.0
H308 H 0.49108 0.37385 0.79136 0.0
H309 H 0.46782 0.35794 0.75328 0.0
H310 H 0.43289 0.40101 0.77457 0.0
H311 H 0.45629 0.41734 0.81243 0.0
H312 H 0.41981 0.36201 0.78825 0.0
H313 H 0.44517 0.40292 0.68106 0.0
H314 H 0.47022 0.41786 0.64596 0.0
H315 H 0.49044 0.36887 0.59958 0.0
H316 H 0.46562 0.3536 0.63511 0.0
H317 H 0.36338 0.32255 0.62584 0.0
H318 H 0.37942 0.34596 0.66382 0.0
H319 H 0.42787 0.32106 0.62852 0.0
H320 H 0.41204 0.29783 0.58994 0.0
H321 H 0.43075 0.35555 0.62125 0.0
H322 H 0.40862 0.31436 0.73181 0.0
H323 H 0.38559 0.29752 0.77047 0.0
H324 H 0.36095 0.3449 0.81349 0.0
H325 H 0.38368 0.36204 0.77429 0.0
C326 C 0.47839 0.37989 0.78884 0.0
C327 C 0.47559 0.39697 0.80449 0.0
C328 C 0.46512 0.37074 0.76708 0.0
C329 C 0.44876 0.37839 0.76094 0.0
C330 C 0.44548 0.39494 0.77914 0.0
C331 C 0.45886 0.40424 0.8006 0.0
C332 C 0.43592 0.36961 0.73135 0.0
C333 C 0.42186 0.36092 0.75155 0.0
C334 C 0.43896 0.36795 0.68375 0.0
C335 C 0.4536 0.37712 0.66102 0.0
C336 C 0.45501 0.39533 0.66362 0.0
C337 C 0.46917 0.40385 0.64363 0.0
C338 C 0.48195 0.39432 0.62065 0.0
C339 C 0.48054 0.37624 0.61742 0.0
C340 C 0.46641 0.36764 0.63742 0.0
C341 C 0.37746 0.32223 0.62542 0.0
C342 C 0.38644 0.30823 0.6053 0.0
C343 C 0.38659 0.33558 0.64731 0.0
C344 C 0.40482 0.33508 0.64965 0.0
C345 C 0.41381 0.32168 0.62722 0.0
C346 C 0.40472 0.30837 0.60527 0.0
C347 C 0.41461 0.3477 0.67806 0.0
C348 C 0.42827 0.35701 0.65768 0.0
C349 C 0.41128 0.34976 0.72559 0.0
C350 C 0.39773 0.33948 0.74965 0.0
C351 C 0.39822 0.32119 0.74921 0.0
C352 C 0.38522 0.31159 0.77123 0.0
C353 C 0.37179 0.32014 0.7943 0.0
C354 C 0.37134 0.3383 0.79549 0.0
C355 C 0.38427 0.34797 0.77336 0.0
H356 H 0.36177 0.31267 0.81139 0.0
H357 H 0.49292 0.40094 0.60529 0.0
H358 H 0.86016 0.18142 0.01626 0.0
H359 H 0.87815 0.15849 0.98188 0.0
H360 H 0.92251 0.19278 0.98395 0.0
H361 H 0.90482 0.21559 0.01886 0.0
H362 H 0.9147 0.17645 0.89628 0.0
H363 H 0.92206 0.16259 0.05785 0.0
H364 H 0.91138 0.15489 0.13495 0.0
H365 H 0.88724 0.10893 0.08065 0.0
H366 H 0.89759 0.11649 0.00305 0.0
H367 H 0.98969 0.12818 0.85254 0.0
H368 H 0.96644 0.14668 0.8809 0.0
H369 H 0.93367 0.10168 0.90004 0.0
H370 H 0.9573 0.08289 0.87318 0.0
H371 H 0.93152 0.1212 0.97196 0.0
H372 H 0.92598 0.13233 0.81296 0.0
H373 H 0.93533 0.13933 0.73423 0.0
H374 H 0.95357 0.18927 0.77929 0.0
H375 H 0.94456 0.18249 0.85845 0.0
C376 C 0.8738 0.18399 0.00987 0.0
C377 C 0.88107 0.20031 0.02026 0.0
C378 C 0.88402 0.1709 0.99025 0.0
C379 C 0.9016 0.17403 0.98029 0.0
C380 C 0.90894 0.19018 0.9913 0.0
C381 C 0.89883 0.20315 0.01148 0.0
C382 C 0.91233 0.16075 0.95699 0.0
C383 C 0.9185 0.1644 0.9128 0.0
C384 C 0.9166 0.14476 0.97796 0.0
C385 C 0.9104 0.14022 0.02458 0.0
C386 C 0.91432 0.15094 0.06227 0.0
C387 C 0.90837 0.14658 0.10608 0.0
C388 C 0.89859 0.13146 0.11267 0.0
C389 C 0.89479 0.12065 0.07548 0.0
C390 C 0.9007 0.12496 0.03159 0.0
C391 C 0.97748 0.12219 0.86218 0.0
C392 C 0.97534 0.10404 0.86052 0.0
C393 C 0.96412 0.13283 0.87822 0.0
C394 C 0.94816 0.12564 0.89199 0.0
C395 C 0.94585 0.10754 0.88951 0.0
C396 C 0.95933 0.09682 0.87399 0.0
C397 C 0.9344 0.13705 0.91139 0.0
C398 C 0.92757 0.13308 0.95487 0.0
C399 C 0.92927 0.15265 0.88938 0.0
C400 C 0.93468 0.15684 0.84175 0.0
C401 C 0.93209 0.14476 0.80616 0.0
C402 C 0.93732 0.1487 0.76144 0.0
C403 C 0.94506 0.16472 0.75178 0.0
C404 C 0.94757 0.17686 0.78682 0.0
C405 C 0.94238 0.17299 0.83162 0.0
H406 H 0.9491 0.16774 0.71713 0.0
H407 H 0.89399 0.12811 0.14662 0.0
H408 H 0.07569 0.37004 0.83338 0.0
H409 H 0.09755 0.35119 0.86792 0.0
H410 H 0.12832 0.396 0.90421 0.0
H411 H 0.10636 0.41512 0.87003 0.0
H412 H 0.14752 0.36494 0.86917 0.0
H413 H 0.10515 0.38231 0.98326 0.0
H414 H 0.07516 0.3865 0.01111 0.0
H415 H 0.06525 0.33182 0.9964 0.0
H416 H 0.09512 0.32735 0.96776 0.0
H417 H 0.19975 0.31939 0.02967 0.0
H418 H 0.18118 0.34148 0.99441 0.0
H419 H 0.13966 0.30394 0.98295 0.0
H420 H 0.15788 0.28206 0.01958 0.0
H421 H 0.12667 0.33342 0.00719 0.0
H422 H 0.16679 0.31508 0.89084 0.0
H423 H 0.19559 0.30938 0.85681 0.0
H424 H 0.20874 0.36345 0.86924 0.0
H425 H 0.18008 0.36944 0.90396 0.0
C426 C 0.08723 0.37593 0.84794 0.0
C427 C 0.0892 0.39411 0.84943 0.0
C428 C 0.09969 0.36512 0.86769 0.0
C429 C 0.11438 0.37226 0.88897 0.0
C430 C 0.117 0.3903 0.88796 0.0
C431 C 0.10443 0.40118 0.86855 0.0
C432 C 0.12614 0.36093 0.91553 0.0
C433 C 0.14314 0.35824 0.8998 0.0
C434 C 0.12015 0.35193 0.95472 0.0
C435 C 0.10233 0.35452 0.97303 0.0
C436 C 0.09654 0.3712 0.9857 0.0
C437 C 0.07957 0.37362 0.00165 0.0
C438 C 0.0683 0.35944 0.00543 0.0
C439 C 0.074 0.34279 0.99343 0.0
C440 C 0.09095 0.34031 0.97739 0.0
C441 C 0.18661 0.31591 0.02001 0.0
C442 C 0.1803 0.29897 0.02723 0.0
C443 C 0.17605 0.32851 -0.00041 0.0
C444 C 0.15913 0.32428 0.98522 0.0
C445 C 0.15267 0.30751 0.99366 0.0
C446 C 0.16312 0.295 0.01461 0.0
C447 C 0.14817 0.33716 0.96072 0.0
C448 C 0.13124 0.34018 0.97685 0.0
C449 C 0.15416 0.34622 0.92141 0.0
C450 C 0.17138 0.34267 0.90048 0.0
C451 C 0.17588 0.32573 0.88665 0.0
C452 C 0.19217 0.32245 0.86719 0.0
C453 C 0.20401 0.33604 0.861 0.0
C454 C 0.19956 0.35294 0.87415 0.0
C455 C 0.1833 0.35628 0.8937 0.0
H456 H 0.21661 0.33347 0.84591 0.0
H457 H 0.05515 0.36134 0.01772 0.0
H458 H 0.98335 0.8767 0.30438 0.0
H459 H 0.96183 0.85871 0.26526 0.0
H460 H 0.93723 0.90466 0.21097 0.0
H461 H 0.95891 0.92289 0.24955 0.0
H462 H 0.91392 0.87531 0.2445 0.0
H463 H 0.96251 0.88812 0.14331 0.0
H464 H 0.99393 0.88999 0.12696 0.0
H465 H 0.99933 0.83523 0.15181 0.0
H466 H 0.96797 0.83308 0.16911 0.0
H467 H 0.86647 0.82637 0.07938 0.0
H468 H 0.88408 0.84936 0.11454 0.0
H469 H 0.92466 0.81205 0.14243 0.0
H470 H 0.90761 0.78941 0.10569 0.0
H471 H 0.93909 0.84014 0.11809 0.0
H472 H 0.89361 0.8261 0.22516 0.0
H473 H 0.86335 0.82228 0.25138 0.0
H474 H 0.85298 0.87623 0.22502 0.0
H475 H 0.88314 0.88031 0.19808 0.0
C476 C 0.97319 0.88305 0.28489 0.0
C477 C 0.97296 0.90123 0.27961 0.0
C478 C 0.96092 0.87273 0.26256 0.0
C479 C 0.94812 0.8804 0.23498 0.0
C480 C 0.94707 0.89856 0.23213 0.0
C481 C 0.95948 0.90892 0.25407 0.0
C482 C 0.93698 0.86933 0.20588 0.0
C483 C 0.91927 0.86781 0.21629 0.0
C484 C 0.94419 0.85932 0.16996 0.0
C485 C 0.96292 0.86047 0.15783 0.0
C486 C 0.97041 0.87649 0.14551 0.0
C487 C 0.98821 0.8776 0.13607 0.0
C488 C 0.99862 0.86274 0.13846 0.0
C489 C 0.99124 0.84672 0.15002 0.0
C490 C 0.97346 0.84555 0.15959 0.0
C491 C 0.87923 0.82316 0.09257 0.0
C492 C 0.88561 0.80607 0.08988 0.0
C493 C 0.88924 0.83627 0.11293 0.0
C494 C 0.90559 0.8324 0.13193 0.0
C495 C 0.91212 0.81542 0.12804 0.0
C496 C 0.9023 0.80244 0.10703 0.0
C497 C 0.91587 0.84573 0.15697 0.0
C498 C 0.93353 0.84774 0.14579 0.0
C499 C 0.90867 0.85587 0.19292 0.0
C500 C 0.89055 0.85345 0.20908 0.0
C501 C 0.88483 0.83711 0.22462 0.0
C502 C 0.86771 0.8349 0.23967 0.0
C503 C 0.85623 0.84899 0.23972 0.0
C504 C 0.86187 0.86532 0.22486 0.0
C505 C 0.87898 0.86759 0.20971 0.0
H506 H 0.84298 0.84726 0.25139 0.0
H507 H 0.0124 0.86363 0.13134 0.0
H508 H 0.38743 0.69604 0.56983 0.0
H509 H 0.40763 0.6736 0.54405 0.0
H510 H 0.38682 0.67722 0.40704 0.0
H511 H 0.3662 0.69937 0.43287 0.0
H512 H 0.39476 0.64426 0.42672 0.0
H513 H 0.42337 0.6991 0.43574 0.0
H514 H 0.43252 0.72666 0.47167 0.0
H515 H 0.46047 0.69833 0.57488 0.0
H516 H 0.45123 0.67059 0.54001 0.0
H517 H 0.47365 0.61227 0.31843 0.0
H518 H 0.44917 0.63085 0.34138 0.0
H519 H 0.45996 0.61999 0.48356 0.0
H520 H 0.48411 0.60119 0.46111 0.0
H521 H 0.457 0.65683 0.45734 0.0
H522 H 0.42722 0.60154 0.44454 0.0
H523 H 0.41816 0.57488 0.40408 0.0
H524 H 0.39304 0.60565 0.30068 0.0
H525 H 0.4022 0.63252 0.34021 0.0
C526 C 0.38696 0.69188 0.53436 0.0
C527 C 0.37537 0.69963 0.50325 0.0
C528 C 0.39856 0.6791 0.51964 0.0
C529 C 0.399 0.67405 0.47338 0.0
C530 C 0.38676 0.68101 0.44282 0.0
C531 C 0.375 0.69368 0.45765 0.0
C532 C 0.41294 0.66236 0.45654 0.0
C533 C 0.40837 0.64711 0.43295 0.0
C534 C 0.43071 0.66608 0.46466 0.0
C535 C 0.43647 0.68275 0.48549 0.0
C536 C 0.43137 0.69874 0.46629 0.0
C537 C 0.43658 0.7144 0.48645 0.0
C538 C 0.44704 0.71424 0.52559 0.0
C539 C 0.45235 0.69843 0.54459 0.0
C540 C 0.44713 0.68273 0.52463 0.0
C541 C 0.47071 0.61376 0.35454 0.0
C542 C 0.4808 0.6053 0.38798 0.0
C543 C 0.45673 0.62431 0.36754 0.0
C544 C 0.45283 0.62673 0.41411 0.0
C545 C 0.46281 0.61824 0.44746 0.0
C546 C 0.47656 0.60748 0.43452 0.0
C547 C 0.43877 0.63865 0.42837 0.0
C548 C 0.44337 0.65401 0.45119 0.0
C549 C 0.4211 0.63517 0.41876 0.0
C550 C 0.41558 0.61904 0.39504 0.0
C551 C 0.41993 0.60263 0.41293 0.0
C552 C 0.41474 0.58748 0.39022 0.0
C553 C 0.40508 0.58857 0.34976 0.0
C554 C 0.40055 0.60483 0.33198 0.0
C555 C 0.40573 0.62002 0.35454 0.0
H556 H 0.40107 0.57683 0.33224 0.0
H557 H 0.45107 0.72638 0.54115 0.0
H558 H 0.65196 0.21142 0.60114 0.0
H559 H 0.63308 0.19 0.63794 0.0
H560 H 0.6778 0.15886 0.67262 0.0
H561 H 0.69687 0.18033 0.63617 0.0
H562 H 0.64811 0.13965 0.63833 0.0
H563 H 0.66292 0.18211 0.75301 0.0
H564 H 0.6663 0.21206 0.78188 0.0
H565 H 0.61157 0.22092 0.76479 0.0
H566 H 0.6079 0.19105 0.73517 0.0
H567 H 0.60244 0.08565 0.79387 0.0
H568 H 0.62445 0.10539 0.76276 0.0
H569 H 0.58534 0.14504 0.74496 0.0
H570 H 0.56346 0.12566 0.77723 0.0
H571 H 0.61415 0.15942 0.77343 0.0
H572 H 0.59897 0.11843 0.65532 0.0
H573 H 0.59495 0.08931 0.62149 0.0
H574 H 0.64921 0.07833 0.64051 0.0
H575 H 0.65351 0.10732 0.67502 0.0
C576 C 0.65779 0.19992 0.61605 0.0
C577 C 0.67592 0.19761 0.61601 0.0
C578 C 0.64698 0.18774 0.63719 0.0
C579 C 0.65411 0.17299 0.65833 0.0
C580 C 0.67211 0.17021 0.65654 0.0
C581 C 0.68296 0.1825 0.63582 0.0
C582 C 0.64276 0.16093 0.68408 0.0
C583 C 0.64088 0.14383 0.66832 0.0
C584 C 0.63312 0.1666 0.72256 0.0
C585 C 0.63516 0.1844 0.74151 0.0
C586 C 0.65162 0.19048 0.75517 0.0
C587 C 0.65358 0.20743 0.77169 0.0
C588 C 0.63917 0.21839 0.77504 0.0
C589 C 0.62272 0.2124 0.76212 0.0
C590 C 0.62069 0.19545 0.74552 0.0
C591 C 0.59858 0.09864 0.7838 0.0
C592 C 0.58118 0.10403 0.78767 0.0
C593 C 0.61115 0.10988 0.7658 0.0
C594 C 0.60647 0.12658 0.75068 0.0
C595 C 0.58925 0.1322 0.75625 0.0
C596 C 0.57674 0.12107 0.77465 0.0
C597 C 0.61928 0.13804 0.72749 0.0
C598 C 0.62146 0.1551 0.74371 0.0
C599 C 0.62906 0.13237 0.68907 0.0
C600 C 0.62652 0.11496 0.66821 0.0
C601 C 0.61002 0.10975 0.65259 0.0
C602 C 0.60769 0.09328 0.63325 0.0
C603 C 0.6218 0.08195 0.62898 0.0
C604 C 0.63828 0.0871 0.64392 0.0
C605 C 0.64067 0.10355 0.66335 0.0
H606 H 0.61998 0.0692 0.61399 0.0
H607 H 0.64075 0.23152 0.78769 0.0
H608 H 0.02497 0.35057 0.89459 0.0
H609 H 0.002 0.33258 0.92703 0.0
H610 H 0.96329 0.36775 0.87373 0.0
H611 H 0.98636 0.38606 0.84127 0.0
H612 H 0.95739 0.35958 0.9636 0.0
H613 H 0.96825 0.32858 0.82509 0.0
H614 H 0.98586 0.31414 0.76558 0.0
H615 H 0.00421 0.27715 0.86462 0.0
H616 H 0.98689 0.29152 0.92492 0.0
H617 H 0.88821 0.30034 0.019 0.0
H618 H 0.90836 0.32049 0.98192 0.0
H619 H 0.95165 0.28894 0.02563 0.0
H620 H 0.93161 0.26862 0.06237 0.0
H621 H 0.95324 0.2961 0.93521 0.0
H622 H 0.94354 0.32837 0.07451 0.0
H623 H 0.92584 0.34293 0.13367 0.0
H624 H 0.90497 0.37754 0.03214 0.0
H625 H 0.92238 0.36302 0.97223 0.0
C626 C 0.01158 0.35444 0.8893 0.0
C627 C 0.00749 0.36975 0.86529 0.0
C628 C 0.99845 0.34409 0.90778 0.0
C629 C 0.98094 0.34875 0.90248 0.0
C630 C 0.97674 0.36392 0.8781 0.0
C631 C 0.98992 0.3743 0.8594 0.0
C632 C 0.96718 0.33802 0.92409 0.0
C633 C 0.95624 0.34575 0.95679 0.0
C634 C 0.96593 0.31993 0.9158 0.0
C635 C 0.97637 0.31122 0.87962 0.0
C636 C 0.97614 0.31745 0.83428 0.0
C637 C 0.98606 0.30926 0.80038 0.0
C638 C 0.99617 0.29476 0.81133 0.0
C639 C 0.99637 0.28839 0.85619 0.0
C640 C 0.98649 0.29654 0.89023 0.0
C641 C 0.90204 0.29782 0.02136 0.0
C642 C 0.9083 0.28282 0.04351 0.0
C643 C 0.91354 0.30938 0.00017 0.0
C644 C 0.93151 0.30621 0.00102 0.0
C645 C 0.93782 0.29158 0.02442 0.0
C646 C 0.92635 0.28002 0.04559 0.0
C647 C 0.94369 0.31758 0.97541 0.0
C648 C 0.9543 0.30994 0.94181 0.0
C649 C 0.94458 0.33574 0.98282 0.0
C650 C 0.93412 0.34449 0.01881 0.0
C651 C 0.93506 0.33899 0.06473 0.0
C652 C 0.92511 0.34725 0.09841 0.0
C653 C 0.91425 0.36112 0.08665 0.0
C654 C 0.91336 0.36678 0.04119 0.0
C655 C 0.92328 0.35855 0.00736 0.0
H656 H 0.90656 0.3675 0.11278 0.0
H657 H 0.00384 0.28844 0.78503 0.0
H658 H 0.50471 0.14507 0.83936 0.0
H659 H 0.48383 0.16484 0.80409 0.0
H660 H 0.46074 0.12192 0.73076 0.0
H661 H 0.48174 0.10204 0.7655 0.0
H662 H 0.46802 0.14824 0.67407 0.0
H663 H 0.43847 0.14195 0.81624 0.0
H664 H 0.43498 0.14119 0.90024 0.0
H665 H 0.45008 0.19485 0.90884 0.0
H666 H 0.4539 0.19589 0.82492 0.0
H667 H 0.40074 0.20463 0.5871 0.0
H668 H 0.41662 0.18075 0.62366 0.0
H669 H 0.44587 0.21776 0.70368 0.0
H670 H 0.43009 0.24161 0.66772 0.0
H671 H 0.43232 0.19191 0.75657 0.0
H672 H 0.4644 0.19688 0.61446 0.0
H673 H 0.46769 0.19733 0.53035 0.0
H674 H 0.44707 0.14552 0.52203 0.0
H675 H 0.44344 0.14485 0.6061 0.0
C676 C 0.49502 0.13976 0.81634 0.0
C677 C 0.49495 0.12199 0.80511 0.0
C678 C 0.48304 0.15108 0.7963 0.0
C679 C 0.47068 0.14484 0.7649 0.0
C680 C 0.47018 0.12701 0.75485 0.0
C681 C 0.48215 0.11566 0.77492 0.0
C682 C 0.4592 0.15717 0.7402 0.0
C683 C 0.45993 0.15757 0.69209 0.0
C684 C 0.44887 0.1695 0.76372 0.0
C685 C 0.44661 0.16895 0.81427 0.0
C686 C 0.44119 0.15356 0.83606 0.0
C687 C 0.43912 0.15308 0.88367 0.0
C688 C 0.44234 0.16795 0.90987 0.0
C689 C 0.4476 0.18334 0.8885 0.0
C690 C 0.4497 0.18388 0.8409 0.0
C691 C 0.41071 0.20768 0.61205 0.0
C692 C 0.41412 0.22502 0.62458 0.0
C693 C 0.41975 0.19402 0.63292 0.0
C694 C 0.43238 0.1975 0.66646 0.0
C695 C 0.43609 0.2148 0.6781 0.0
C696 C 0.42711 0.22842 0.65729 0.0
C697 C 0.44147 0.18321 0.69063 0.0
C698 C 0.44025 0.18244 0.73861 0.0
C699 C 0.45128 0.1705 0.66699 0.0
C700 C 0.45346 0.1709 0.61649 0.0
C701 C 0.46042 0.18564 0.59465 0.0
C702 C 0.46238 0.18592 0.547 0.0
C703 C 0.45754 0.17148 0.52085 0.0
C704 C 0.45078 0.15671 0.54232 0.0
C705 C 0.44878 0.15637 0.58996 0.0
H706 H 0.45907 0.17172 0.48396 0.0
H707 H 0.44073 0.16756 0.94672 0.0
H708 H 0.5709 0.62211 0.31765 0.0
H709 H 0.59384 0.64256 0.33967 0.0
H710 H 0.57966 0.63653 0.48194 0.0
H711 H 0.55657 0.61644 0.46023 0.0
H712 H 0.58399 0.66967 0.4625 0.0
H713 H 0.61642 0.61735 0.43713 0.0
H714 H 0.62645 0.59165 0.39403 0.0
H715 H 0.64752 0.62476 0.2893 0.0
H716 H 0.6374 0.65068 0.33149 0.0
H717 H 0.65836 0.71123 0.55772 0.0
H718 H 0.63726 0.68865 0.53722 0.0
H719 H 0.64738 0.69777 0.39376 0.0
H720 H 0.66844 0.72029 0.41383 0.0
H721 H 0.64555 0.66272 0.41497 0.0
H722 H 0.6123 0.71493 0.44051 0.0
H723 H 0.60239 0.74044 0.48462 0.0
H724 H 0.58304 0.70691 0.59073 0.0
H725 H 0.59306 0.68119 0.54752 0.0
C726 C 0.57272 0.62511 0.35361 0.0
C727 C 0.56191 0.61766 0.38717 0.0
C728 C 0.58588 0.63673 0.36618 0.0
C729 C 0.58858 0.64095 0.41253 0.0
C730 C 0.57782 0.63349 0.446 0.0
C731 C 0.56463 0.62196 0.43348 0.0
C732 C 0.6023 0.65349 0.42626 0.0
C733 C 0.59749 0.66799 0.45265 0.0
C734 C 0.61987 0.6515 0.41268 0.0
C735 C 0.62599 0.63595 0.38726 0.0
C736 C 0.62306 0.61915 0.40473 0.0
C737 C 0.62879 0.60455 0.3805 0.0
C738 C 0.63758 0.60657 0.33889 0.0
C739 C 0.64069 0.62321 0.3215 0.0
C740 C 0.63498 0.63787 0.34558 0.0
C741 C 0.65617 0.70835 0.52183 0.0
C742 C 0.66498 0.71762 0.48739 0.0
C743 C 0.64408 0.69549 0.51019 0.0
C744 C 0.64067 0.69167 0.46396 0.0
C745 C 0.64982 0.70054 0.42961 0.0
C746 C 0.66179 0.71346 0.44119 0.0
C747 C 0.62719 0.67879 0.4512 0.0
C748 C 0.63205 0.66429 0.42493 0.0
C749 C 0.60968 0.68071 0.46505 0.0
C750 C 0.6036 0.69615 0.49102 0.0
C751 C 0.60607 0.713 0.47344 0.0
C752 C 0.60041 0.72749 0.49824 0.0
C753 C 0.59214 0.7253 0.54052 0.0
C754 C 0.58948 0.70859 0.55802 0.0
C755 C 0.59513 0.69405 0.53338 0.0
H756 H 0.58776 0.73653 0.55966 0.0
H757 H 0.642 0.59525 0.32019 0.0
H758 H 0.16707 0.79987 0.11802 0.0
H759 H 0.14734 0.82054 0.1546 0.0
H760 H 0.10334 0.79044 0.10867 0.0
H761 H 0.12296 0.76972 0.07168 0.0
H762 H 0.09752 0.82567 0.10193 0.0
H763 H 0.11789 0.78484 0.21454 0.0
H764 H 0.14028 0.76862 0.25734 0.0
H765 H 0.16136 0.81658 0.30841 0.0
H766 H 0.13923 0.83311 0.26532 0.0
H767 H 0.03255 0.85236 0.25445 0.0
H768 H 0.05422 0.83424 0.21662 0.0
H769 H 0.09504 0.86784 0.26597 0.0
H770 H 0.07336 0.88613 0.30442 0.0
H771 H 0.10356 0.83237 0.27054 0.0
H772 H 0.08168 0.87306 0.15993 0.0
H773 H 0.05871 0.88865 0.11767 0.0
H774 H 0.03983 0.84028 0.06349 0.0
H775 H 0.06256 0.82436 0.10593 0.0
C776 C 0.15319 0.79777 0.11501 0.0
C777 C 0.14659 0.78305 0.09227 0.0
C778 C 0.14194 0.80957 0.13614 0.0
C779 C 0.12391 0.80685 0.13497 0.0
C780 C 0.11723 0.79273 0.11011 0.0
C781 C 0.12847 0.78089 0.08906 0.0
C782 C 0.11206 0.81814 0.16179 0.0
C783 C 0.09875 0.82704 0.13881 0.0
C784 C 0.11387 0.82012 0.20984 0.0
C785 C 0.12703 0.81022 0.23632 0.0
C786 C 0.12738 0.79193 0.23464 0.0
C787 C 0.14001 0.78268 0.25899 0.0
C788 C 0.15226 0.79157 0.28547 0.0
C789 C 0.15187 0.80972 0.28781 0.0
C790 C 0.13928 0.81903 0.26346 0.0
C791 C 0.04614 0.85584 0.25783 0.0
C792 C 0.05122 0.8708 0.28215 0.0
C793 C 0.05851 0.84548 0.236 0.0
C794 C 0.07618 0.84989 0.23784 0.0
C795 C 0.08143 0.86429 0.26399 0.0
C796 C 0.06903 0.87472 0.28589 0.0
C797 C 0.08898 0.83983 0.21069 0.0
C798 C 0.10244 0.83114 0.2336 0.0
C799 C 0.08726 0.83796 0.16259 0.0
C800 C 0.07376 0.84751 0.13635 0.0
C801 C 0.07258 0.86574 0.13919 0.0
C802 C 0.05961 0.87463 0.11517 0.0
C803 C 0.04783 0.86546 0.0879 0.0
C804 C 0.04899 0.84737 0.08456 0.0
C805 C 0.06193 0.8384 0.10855 0.0
H806 H 0.03779 0.87236 0.06936 0.0
H807 H 0.16204 0.78439 0.30426 0.0
H808 H 0.97007 0.60222 0.27755 0.0
H809 H 0.94844 0.62055 0.23991 0.0
H810 H 0.97223 0.6662 0.29858 0.0
H811 H 0.99388 0.64799 0.33667 0.0
H812 H 0.93597 0.66878 0.29283 0.0
H813 H 0.98507 0.65287 0.19626 0.0
H814 H 0.00462 0.63175 0.15889 0.0
H815 H 0.96118 0.609 0.08848 0.0
H816 H 0.94133 0.62984 0.12603 0.0
H817 H 0.92645 0.73764 0.14075 0.0
H818 H 0.93911 0.71356 0.18335 0.0
H819 H 0.90593 0.67744 0.11174 0.0
H820 H 0.89286 0.70163 0.06897 0.0
H821 H 0.94205 0.6667 0.12334 0.0
H822 H 0.89365 0.68638 0.20962 0.0
H823 H 0.87448 0.70814 0.24556 0.0
H824 H 0.91588 0.72376 0.33526 0.0
H825 H 0.93549 0.70245 0.29891 0.0
C826 C 0.97049 0.61613 0.28335 0.0
C827 C 0.9839 0.62369 0.30945 0.0
C828 C 0.95811 0.62657 0.26176 0.0
C829 C 0.95896 0.64472 0.26583 0.0
C830 C 0.97141 0.6522 0.29491 0.0
C831 C 0.98382 0.64178 0.31653 0.0
C832 C 0.94833 0.656 0.2358 0.0
C833 C 0.93728 0.66836 0.25581 0.0
C834 C 0.94975 0.65511 0.18741 0.0
C835 C 0.9617 0.64276 0.16434 0.0
C836 C 0.97968 0.64328 0.17305 0.0
C837 C 0.99081 0.63138 0.15182 0.0
C838 C 0.98414 0.61901 0.12144 0.0
C839 C 0.96632 0.61857 0.1121 0.0
C840 C 0.95512 0.63042 0.13333 0.0
C841 C 0.92195 0.72458 0.13344 0.0
C842 C 0.90852 0.72157 0.10171 0.0
C843 C 0.92916 0.71085 0.15804 0.0
C844 C 0.92321 0.69383 0.15119 0.0
C845 C 0.91056 0.69055 0.11764 0.0
C846 C 0.90316 0.70436 0.09323 0.0
C847 C 0.93 0.67972 0.18043 0.0
C848 C 0.9404 0.66688 0.16029 0.0
C849 C 0.92792 0.68017 0.22865 0.0
C850 C 0.91611 0.69288 0.2512 0.0
C851 C 0.89874 0.69456 0.2367 0.0
C852 C 0.88778 0.70681 0.25718 0.0
C853 C 0.89396 0.71733 0.29266 0.0
C854 C 0.91111 0.71561 0.30774 0.0
C855 C 0.92217 0.70345 0.28717 0.0
H856 H 0.88543 0.72679 0.30852 0.0
H857 H 0.99278 0.6098 0.10505 0.0
H858 H 0.07875 0.11168 0.85949 0.0
H859 H 0.10174 0.12953 0.89377 0.0
H860 H 0.06309 0.16526 0.94499 0.0
H861 H 0.04017 0.14774 0.91051 0.0
H862 H 0.09026 0.18236 0.90974 0.0
H863 H 0.0812 0.13459 0.01419 0.0
H864 H 0.07948 0.10368 0.03622 0.0
H865 H 0.13284 0.09644 0.99728 0.0
H866 H 0.1348 0.12728 0.97438 0.0
H867 H 0.13438 0.22806 0.08123 0.0
H868 H 0.11435 0.20745 0.04566 0.0
H869 H 0.15771 0.17778 0.99399 0.0
H870 H 0.17792 0.19832 0.02964 0.0
H871 H 0.13015 0.1569 0.02541 0.0
H872 H 0.13939 0.20531 0.92458 0.0
H873 H 0.14093 0.23639 0.90415 0.0
H874 H 0.08686 0.24246 0.93723 0.0
H875 H 0.08507 0.21146 0.95857 0.0
C876 C 0.07518 0.12342 0.87771 0.0
C877 C 0.05763 0.12825 0.88245 0.0
C878 C 0.08831 0.13354 0.89749 0.0
C879 C 0.08409 0.1486 0.92241 0.0
C880 C 0.06663 0.15368 0.92598 0.0
C881 C 0.05354 0.14361 0.9063 0.0
C882 C 0.09771 0.15903 0.94556 0.0
C883 C 0.09888 0.17681 0.93528 0.0
C884 C 0.10923 0.1517 0.97814 0.0
C885 C 0.10809 0.13319 0.99208 0.0
C886 C 0.09253 0.12637 0.00997 0.0
C887 C 0.09151 0.10887 0.02267 0.0
C888 C 0.10603 0.09809 0.01802 0.0
C889 C 0.1216 0.1048 0.00078 0.0
C890 C 0.12267 0.12229 0.98795 0.0
C891 C 0.13969 0.21701 0.06295 0.0
C892 C 0.15775 0.21495 0.05783 0.0
C893 C 0.12822 0.20528 0.04252 0.0
C894 C 0.13458 0.19129 0.01658 0.0
C895 C 0.15257 0.18856 0.01371 0.0
C896 C 0.16408 0.20033 0.03404 0.0
C897 C 0.12243 0.18024 0.9901 0.0
C898 C 0.12159 0.16238 -0.00037 0.0
C899 C 0.11116 0.18749 0.95688 0.0
C900 C 0.11214 0.2061 0.94356 0.0
C901 C 0.12786 0.2133 0.92782 0.0
C902 C 0.12877 0.2309 0.91603 0.0
C903 C 0.11401 0.2414 0.91949 0.0
C904 C 0.09829 0.23431 0.93462 0.0
C905 C 0.09731 0.21672 0.94653 0.0
H906 H 0.11474 0.25502 0.91036 0.0
H907 H 0.10522 0.08455 0.02788 0.0
H908 H 0.67561 0.284 0.70465 0.0
H909 H 0.65483 0.3056 0.7321 0.0
H910 H 0.63077 0.30692 0.59843 0.0
H911 H 0.65207 0.2858 0.57027 0.0
H912 H 0.63184 0.33809 0.63048 0.0
H913 H 0.61354 0.28339 0.69188 0.0
H914 H 0.61585 0.25575 0.73437 0.0
H915 H 0.62713 0.28377 0.8582 0.0
H916 H 0.62517 0.31156 0.81631 0.0
H917 H 0.54973 0.37152 0.69631 0.0
H918 H 0.57326 0.35258 0.67102 0.0
H919 H 0.5999 0.36077 0.79932 0.0
H920 H 0.57628 0.37985 0.82515 0.0
H921 H 0.59824 0.32579 0.77208 0.0
H922 H 0.61398 0.38115 0.70618 0.0
H923 H 0.60871 0.40769 0.66078 0.0
H924 H 0.59913 0.37666 0.54101 0.0
H925 H 0.60406 0.34993 0.58582 0.0
C926 C 0.66595 0.28897 0.68103 0.0
C927 C 0.66537 0.28313 0.6354 0.0
C928 C 0.65401 0.30125 0.69684 0.0
C929 C 0.64096 0.30761 0.66767 0.0
C930 C 0.64067 0.30216 0.62167 0.0
C931 C 0.65283 0.29008 0.6056 0.0
C932 C 0.6275 0.31978 0.68525 0.0
C933 C 0.62439 0.33529 0.66119 0.0
C934 C 0.6179 0.31629 0.72574 0.0
C935 C 0.61938 0.29956 0.75084 0.0
C936 C 0.61669 0.28365 0.72807 0.0
C937 C 0.6179 0.26796 0.75206 0.0
C938 C 0.62165 0.26801 0.79894 0.0
C939 C 0.62425 0.28375 0.82189 0.0
C940 C 0.62308 0.29948 0.79804 0.0
C941 C 0.56057 0.36932 0.71929 0.0
C942 C 0.56115 0.37722 0.76277 0.0
C943 C 0.57405 0.35855 0.70462 0.0
C944 C 0.5884 0.35546 0.73308 0.0
C945 C 0.58895 0.36309 0.77679 0.0
C946 C 0.57547 0.37398 0.79145 0.0
C947 C 0.60263 0.34396 0.71725 0.0
C948 C 0.60584 0.32859 0.74161 0.0
C949 C 0.61204 0.3474 0.67654 0.0
C950 C 0.60927 0.36352 0.64948 0.0
C951 C 0.61063 0.37998 0.67024 0.0
C952 C 0.60772 0.39506 0.64459 0.0
C953 C 0.60356 0.39386 0.59806 0.0
C954 C 0.60234 0.37757 0.57706 0.0
C955 C 0.60521 0.36245 0.60256 0.0
H956 H 0.60133 0.40553 0.57822 0.0
H957 H 0.62247 0.25587 0.81755 0.0
H958 H 0.39069 0.79411 0.55119 0.0
H959 H 0.41005 0.8138 0.50981 0.0
H960 H 0.44748 0.77248 0.4939 0.0
H961 H 0.42831 0.75272 0.53578 0.0
H962 H 0.46309 0.80404 0.51033 0.0
H963 H 0.41968 0.78047 0.40983 0.0
H964 H 0.38963 0.77343 0.38688 0.0
H965 H 0.377 0.8278 0.38356 0.0
H966 H 0.4069 0.83516 0.40737 0.0
H967 H 0.51041 0.83963 0.3267 0.0
H968 H 0.49109 0.81966 0.36732 0.0
H969 H 0.45394 0.86101 0.38679 0.0
H970 H 0.47314 0.8811 0.346 0.0
H971 H 0.43822 0.82916 0.36788 0.0
H972 H 0.48157 0.85254 0.46985 0.0
H973 H 0.51148 0.85941 0.49435 0.0
H974 H 0.52418 0.80504 0.49484 0.0
H975 H 0.4944 0.79786 0.46962 0.0
C976 C 0.40319 0.78928 0.53972 0.0
C977 C 0.40787 0.77177 0.54627 0.0
C978 C 0.41419 0.80053 0.51587 0.0
C979 C 0.43001 0.79447 0.49796 0.0
C980 C 0.43527 0.77736 0.50719 0.0
C981 C 0.42428 0.76609 0.53112 0.0
C982 C 0.44047 0.80561 0.46705 0.0
C983 C 0.45773 0.80936 0.47892 0.0
C984 C 0.43336 0.81272 0.42637 0.0
C985 C 0.41549 0.80836 0.41081 0.0
C986 C 0.41047 0.79093 0.40447 0.0
C987 C 0.39346 0.78688 0.39131 0.0
C988 C 0.3814 0.80016 0.38388 0.0
C989 C 0.38635 0.81753 0.3894 0.0
C990 C 0.40333 0.82165 0.40271 0.0
C991 C 0.49799 0.84443 0.33881 0.0
C992 C 0.49341 0.86202 0.3336 0.0
C993 C 0.487 0.833 0.36219 0.0
C994 C 0.47126 0.83896 0.38077 0.0
C995 C 0.46609 0.85619 0.3729 0.0
C996 C 0.4771 0.86766 0.34963 0.0
C997 C 0.46083 0.8276 0.41121 0.0
C998 C 0.44358 0.82381 0.39924 0.0
C999 C 0.46795 0.82041 0.45176 0.0
C1000 C 0.48581 0.82468 0.46739 0.0
C1001 C 0.49078 0.84206 0.47484 0.0
C1002 C 0.5077 0.84601 0.4889 0.0
C1003 C 0.51974 0.83267 0.49603 0.0
C1004 C 0.51485 0.81535 0.48924 0.0
C1005 C 0.49795 0.81134 0.47508 0.0
H1006 H 0.53283 0.83576 0.50691 0.0
H1007 H 0.36823 0.79699 0.37377 0.0
H1008 H 0.01206 0.53949 0.22521 0.0
H1009 H 0.01286 0.51578 0.1699 0.0
H1010 H 0.04289 0.54757 0.07725 0.0
H1011 H 0.04198 0.57162 0.13242 0.0
H1012 H 0.01743 0.52887 0.0329 0.0
H1013 H 0.06306 0.51771 0.14107 0.0
H1014 H 0.07565 0.51415 0.21823 0.0
H1015 H 0.04134 0.4712 0.24423 0.0
H1016 H 0.02836 0.47467 0.16743 0.0
H1017 H 0.04596 0.45973 0.8918 0.0
H1018 H 0.04519 0.48447 0.94406 0.0
H1019 H 0.01684 0.45378 0.04284 0.0
H1020 H 0.01783 0.42877 0.99098 0.0
H1021 H 0.04211 0.47236 0.08318 0.0
H1022 H 0.99613 0.48374 0.9758 0.0
H1023 H 0.9833 0.48733 0.8989 0.0
H1024 H 0.01805 0.52979 0.87152 0.0
H1025 H 0.03126 0.5263 0.94806 0.0
C1026 C 0.01877 0.54153 0.19299 0.0
C1027 C 0.0271 0.5574 0.18334 0.0
C1028 C 0.01925 0.52793 0.16149 0.0
C1029 C 0.02819 0.52984 0.11991 0.0
C1030 C 0.036 0.54584 0.10933 0.0
C1031 C 0.03549 0.55954 0.14088 0.0
C1032 C 0.02967 0.51492 0.08816 0.0
C1033 C 0.02306 0.51659 0.04359 0.0
C1034 C 0.03668 0.49881 0.10262 0.0
C1035 C 0.04463 0.49655 0.14862 0.0
C1036 C 0.05812 0.50758 0.16335 0.0
C1037 C 0.06534 0.50557 0.20701 0.0
C1038 C 0.05927 0.49248 0.23616 0.0
C1039 C 0.04602 0.48134 0.22164 0.0
C1040 C 0.03873 0.48331 0.17802 0.0
C1041 C 0.03956 0.45821 0.92466 0.0
C1042 C 0.03185 0.44231 0.93718 0.0
C1043 C 0.03908 0.4724 0.9544 0.0
C1044 C 0.03072 0.47103 0.99697 0.0
C1045 C 0.02331 0.4551 0.01 0.0
C1046 C 0.02386 0.44084 0.98033 0.0
C1047 C 0.02976 0.48625 0.02795 0.0
C1048 C 0.03651 0.48465 0.07241 0.0
C1049 C 0.02285 0.5024 0.01337 0.0
C1050 C 0.01479 0.50465 0.96751 0.0
C1051 C 0.00112 0.49377 0.95326 0.0
C1052 C 0.99376 0.49579 0.90976 0.0
C1053 C -0.00011 0.50875 0.88029 0.0
C1054 C 0.01334 0.51975 0.89435 0.0
C1055 C 0.02075 0.51776 0.93781 0.0
H1056 H 0.99419 0.51028 0.84659 0.0
H1057 H 0.06487 0.49096 0.26997 0.0
H1058 H 0.86149 0.75772 0.24303 0.0
H1059 H 0.83976 0.75346 0.30333 0.0
H1060 H 0.8028 0.73575 0.20222 0.0
H1061 H 0.82419 0.74039 0.14188 0.0
H1062 H 0.78818 0.75841 0.25526 0.0
H1063 H 0.82233 0.70721 0.27798 0.0
H1064 H 0.84927 0.69045 0.29017 0.0
H1065 H 0.85804 0.71733 0.41714 0.0
H1066 H 0.8312 0.73435 0.40555 0.0
H1067 H 0.74196 0.71223 0.4587 0.0
H1068 H 0.76531 0.71254 0.4015 0.0
H1069 H 0.76501 0.76866 0.40278 0.0
H1070 H 0.74139 0.76845 0.45855 0.0
H1071 H 0.79771 0.72467 0.39807 0.0
H1072 H 0.77155 0.78424 0.29783 0.0
H1073 H 0.74351 0.79856 0.28163 0.0
H1074 H 0.71678 0.75009 0.30125 0.0
H1075 H 0.74468 0.73544 0.31695 0.0
C1076 C 0.84875 0.75286 0.23373 0.0
C1077 C 0.84451 0.74951 0.18769 0.0
C1078 C 0.83639 0.75033 0.26823 0.0
C1079 C 0.81969 0.74419 0.25726 0.0
C1080 C 0.81558 0.74055 0.21142 0.0
C1081 C 0.82784 0.74321 0.17698 0.0
C1082 C 0.80615 0.74237 0.29303 0.0
C1083 C 0.79028 0.751 0.28644 0.0
C1084 C 0.80878 0.73248 0.33334 0.0
C1085 C 0.82483 0.72215 0.34071 0.0
C1086 C 0.83005 0.70962 0.30838 0.0
C1087 C 0.84528 0.70005 0.31523 0.0
C1088 C 0.85538 0.70285 0.35436 0.0
C1089 C 0.85021 0.71518 0.38683 0.0
C1090 C 0.83497 0.72476 0.3802 0.0
C1091 C 0.74691 0.72461 0.44676 0.0
C1092 C 0.73969 0.74031 0.46252 0.0
C1093 C 0.76028 0.72477 0.4143 0.0
C1094 C 0.76669 0.74062 0.39739 0.0
C1095 C 0.75999 0.75628 0.41462 0.0
C1096 C 0.74649 0.75614 0.44649 0.0
C1097 C 0.77987 0.74087 0.36038 0.0
C1098 C 0.79565 0.73202 0.3668 0.0
C1099 C 0.77702 0.75017 0.3192 0.0
C1100 C 0.76019 0.75879 0.30896 0.0
C1101 C 0.75969 0.77662 0.29846 0.0
C1102 C 0.74383 0.7848 0.28941 0.0
C1103 C 0.72837 0.77525 0.29055 0.0
C1104 C 0.72876 0.75748 0.30054 0.0
C1105 C 0.74459 0.74924 0.30955 0.0
H1106 H 0.7161 0.78161 0.2836 0.0
H1107 H 0.86719 0.69547 0.35951 0.0
H1108 H 0.51722 0.53229 0.38513 0.0
H1109 H 0.51457 0.5091 0.44183 0.0
H1110 H 0.56135 0.52712 0.50847 0.0
H1111 H 0.56446 0.54994 0.45045 0.0
H1112 H 0.56045 0.49311 0.51034 0.0
H1113 H 0.52017 0.53841 0.54758 0.0
H1114 H 0.49644 0.55923 0.53281 0.0
H1115 H 0.46151 0.51698 0.5048 0.0
H1116 H 0.48511 0.4959 0.51871 0.0
H1117 H 0.54366 0.45638 0.72964 0.0
H1118 H 0.54804 0.47682 0.66662 0.0
H1119 H 0.50556 0.4533 0.59256 0.0
H1120 H 0.50103 0.43278 0.65553 0.0
H1121 H 0.50435 0.48952 0.59404 0.0
H1122 H 0.54612 0.44423 0.56192 0.0
H1123 H 0.57048 0.42472 0.58145 0.0
H1124 H 0.60337 0.46888 0.60604 0.0
H1125 H 0.57914 0.48865 0.58736 0.0
C1126 C 0.52702 0.5312 0.41166 0.0
C1127 C 0.54094 0.54301 0.41381 0.0
C1128 C 0.52547 0.51799 0.44411 0.0
C1129 C 0.53752 0.51665 0.48007 0.0
C1130 C 0.55184 0.52798 0.48115 0.0
C1131 C 0.5536 0.54101 0.44809 0.0
C1132 C 0.53474 0.50393 0.51753 0.0
C1133 C 0.54825 0.49245 0.52894 0.0
C1134 C 0.51875 0.50295 0.54155 0.0
C1135 C 0.50445 0.51558 0.53376 0.0
C1136 C 0.50746 0.53356 0.538 0.0
C1137 C 0.49403 0.54541 0.5298 0.0
C1138 C 0.47749 0.53943 0.51777 0.0
C1139 C 0.47433 0.52159 0.51406 0.0
C1140 C 0.48773 0.50968 0.52212 0.0
C1141 C 0.53522 0.45555 0.69999 0.0
C1142 C 0.522 0.44294 0.69753 0.0
C1143 C 0.5378 0.46719 0.66396 0.0
C1144 C 0.52724 0.46642 0.62483 0.0
C1145 C 0.51388 0.45404 0.62249 0.0
C1146 C 0.51133 0.44232 0.65844 0.0
C1147 C 0.53001 0.47872 0.5866 0.0
C1148 C 0.5165 0.49015 0.5752 0.0
C1149 C 0.54609 0.47984 0.56323 0.0
C1150 C 0.56076 0.46793 0.57361 0.0
C1151 C 0.55851 0.44978 0.57177 0.0
C1152 C 0.5723 0.43868 0.58266 0.0
C1153 C 0.58844 0.44557 0.5951 0.0
C1154 C 0.59085 0.46357 0.59646 0.0
C1155 C 0.5771 0.47473 0.58568 0.0
H1156 H 0.5991 0.43697 0.60365 0.0
H1157 H 0.46711 0.54862 0.51141 0.0
H1158 H 0.81759 0.25798 0.97045 0.0
H1159 H 0.79757 0.25908 0.90568 0.0
H1160 H 0.84009 0.24954 0.81247 0.0
H1161 H 0.86033 0.24874 0.87714 0.0
H1162 H 0.81889 0.27398 0.77916 0.0
H1163 H 0.81282 0.21692 0.8407 0.0
H1164 H 0.80831 0.1948 0.90072 0.0
H1165 H 0.75756 0.21553 0.92853 0.0
H1166 H 0.76186 0.23795 0.86911 0.0
H1167 H 0.74256 0.23129 0.63895 0.0
H1168 H 0.76658 0.22969 0.6934 0.0
H1169 H 0.76329 0.28514 0.71511 0.0
H1170 H 0.73963 0.28689 0.65932 0.0
H1171 H 0.76693 0.23572 0.77963 0.0
H1172 H 0.80221 0.30145 0.74715 0.0
H1173 H 0.80845 0.3213 0.68279 0.0
H1174 H 0.80393 0.27889 0.58774 0.0
H1175 H 0.7979 0.25874 0.65156 0.0
C1176 C 0.82272 0.25615 0.93619 0.0
C1177 C 0.84054 0.25317 0.92891 0.0
C1178 C 0.81124 0.25674 0.89923 0.0
C1179 C 0.81733 0.25416 0.85438 0.0
C1180 C 0.83515 0.25153 0.84687 0.0
C1181 C 0.84667 0.25103 0.88385 0.0
C1182 C 0.80498 0.25395 0.8155 0.0
C1183 C 0.80754 0.26561 0.77911 0.0
C1184 C 0.79042 0.24272 0.81502 0.0
C1185 C 0.78773 0.22921 0.85071 0.0
C1186 C 0.80075 0.21685 0.85985 0.0
C1187 C 0.79822 0.20424 0.89373 0.0
C1188 C 0.78267 0.20378 0.91849 0.0
C1189 C 0.7696 0.21591 0.90935 0.0
C1190 C 0.77207 0.22856 0.87554 0.0
C1191 C 0.74706 0.24317 0.65503 0.0
C1192 C 0.73923 0.25922 0.64495 0.0
C1193 C 0.76077 0.24223 0.68618 0.0
C1194 C 0.76683 0.2573 0.70814 0.0
C1195 C 0.75908 0.27338 0.69792 0.0
C1196 C 0.74551 0.27436 0.66621 0.0
C1197 C 0.78062 0.25599 0.74345 0.0
C1198 C 0.77831 0.24406 0.77936 0.0
C1199 C 0.79564 0.26664 0.74274 0.0
C1200 C 0.79945 0.27862 0.70414 0.0
C1201 C 0.80262 0.29634 0.71254 0.0
C1202 C 0.80611 0.30765 0.67614 0.0
C1203 C 0.80653 0.30137 0.6312 0.0
C1204 C 0.80353 0.28375 0.62256 0.0
C1205 C 0.80006 0.27238 0.65882 0.0
H1206 H 0.80922 0.31015 0.60307 0.0
H1207 H 0.78074 0.19401 0.9447 0.0
H1208 H 0.21408 0.24538 0.88275 0.0
H1209 H 0.23858 0.24715 0.82907 0.0
H1210 H 0.27363 0.25636 0.94192 0.0
H1211 H 0.2494 0.25456 0.99562 0.0
H1212 H 0.27868 0.27904 0.86799 0.0
H1213 H 0.27252 0.21752 0.89735 0.0
H1214 H 0.25649 0.18978 0.90114 0.0
H1215 H 0.24549 0.19297 0.75705 0.0
H1216 H 0.26126 0.22088 0.75255 0.0
H1217 H 0.35937 0.26532 0.75543 0.0
H1218 H 0.33489 0.26368 0.80893 0.0
H1219 H 0.30119 0.24747 0.69858 0.0
H1220 H 0.32556 0.24859 0.64541 0.0
H1221 H 0.29516 0.22855 0.77131 0.0
H1222 H 0.30087 0.28944 0.73988 0.0
H1223 H 0.31618 0.31753 0.734 0.0
H1224 H 0.32703 0.31631 0.87835 0.0
H1225 H 0.31197 0.28807 0.885 0.0
C1226 C 0.22701 0.24777 0.89607 0.0
C1227 C 0.22983 0.24973 0.94338 0.0
C1228 C 0.24096 0.24876 0.86544 0.0
C1229 C 0.25786 0.25182 0.88172 0.0
C1230 C 0.26066 0.25401 0.9288 0.0
C1231 C 0.2468 0.25288 0.95939 0.0
C1232 C 0.27276 0.25253 0.84988 0.0
C1233 C 0.28243 0.26797 0.84714 0.0
C1234 C 0.27732 0.23818 0.8221 0.0
C1235 C 0.26791 0.22137 0.82473 0.0
C1236 C 0.26655 0.21238 0.86656 0.0
C1237 C 0.25754 0.19661 0.86882 0.0
C1238 C 0.24993 0.18964 0.82939 0.0
C1239 C 0.25136 0.1984 0.78758 0.0
C1240 C 0.26035 0.21419 0.78515 0.0
C1241 C 0.34676 0.26135 0.74267 0.0
C1242 C 0.3444 0.25709 0.69624 0.0
C1243 C 0.33277 0.2605 0.77318 0.0
C1244 C 0.31618 0.25564 0.75757 0.0
C1245 C 0.31388 0.25123 0.71135 0.0
C1246 C 0.32784 0.25192 0.68099 0.0
C1247 C 0.30115 0.25509 0.78921 0.0
C1248 C 0.29143 0.23967 0.792 0.0
C1249 C 0.29645 0.26953 0.81666 0.0
C1250 C 0.30543 0.28656 0.81286 0.0
C1251 C 0.30662 0.2951 0.77032 0.0
C1252 C 0.31524 0.31106 0.76685 0.0
C1253 C 0.32258 0.31869 0.80577 0.0
C1254 C 0.32132 0.31038 0.84824 0.0
C1255 C 0.31274 0.2944 0.85189 0.0
H1256 H 0.32922 0.33105 0.80302 0.0
H1257 H 0.24296 0.17743 0.8312 0.0
H1258 H 0.31333 0.76756 0.50094 0.0
H1259 H 0.28978 0.77066 0.44569 0.0
H1260 H 0.32646 0.76581 0.33441 0.0
H1261 H 0.3503 0.76322 0.38981 0.0
H1262 H 0.30095 0.78889 0.31387 0.0
H1263 H 0.3043 0.73063 0.37116 0.0
H1264 H 0.30584 0.70803 0.43099 0.0
H1265 H 0.25603 0.72391 0.48276 0.0
H1266 H 0.25432 0.7468 0.42363 0.0
H1267 H 0.24113 0.75764 0.14646 0.0
H1268 H 0.26517 0.76135 0.20015 0.0
H1269 H 0.22869 0.76845 0.31096 0.0
H1270 H 0.20446 0.76465 0.25744 0.0
H1271 H 0.25418 0.74486 0.33121 0.0
H1272 H 0.25082 0.80272 0.26946 0.0
H1273 H 0.24998 0.8247 0.20798 0.0
H1274 H 0.3004 0.80843 0.16152 0.0
H1275 H 0.30145 0.78617 0.22236 0.0
C1276 C 0.31644 0.76739 0.46471 0.0
C1277 C 0.3336 0.76485 0.44962 0.0
C1278 C 0.30296 0.76914 0.4332 0.0
C1279 C 0.30633 0.76802 0.38603 0.0
C1280 C 0.32359 0.76658 0.37073 0.0
C1281 C 0.33717 0.76506 0.40236 0.0
C1282 C 0.2917 0.76706 0.35317 0.0
C1283 C 0.29081 0.77917 0.31729 0.0
C1284 C 0.27839 0.75446 0.35807 0.0
C1285 C 0.27925 0.74053 0.39322 0.0
C1286 C 0.29372 0.72937 0.39548 0.0
C1287 C 0.29462 0.71651 0.42925 0.0
C1288 C 0.28106 0.71457 0.46072 0.0
C1289 C 0.26654 0.72545 0.45839 0.0
C1290 C 0.26559 0.73836 0.42473 0.0
C1291 C 0.23819 0.76008 0.18221 0.0
C1292 C 0.22088 0.76083 0.19775 0.0
C1293 C 0.25196 0.7623 0.21277 0.0
C1294 C 0.24869 0.76534 0.25938 0.0
C1295 C 0.23145 0.76616 0.27502 0.0
C1296 C 0.21764 0.76401 0.24443 0.0
C1297 C 0.26329 0.7668 0.29214 0.0
C1298 C 0.26425 0.75467 0.32789 0.0
C1299 C 0.27671 0.77924 0.28671 0.0
C1300 C 0.27614 0.79267 0.25023 0.0
C1301 C 0.26167 0.80373 0.24591 0.0
C1302 C 0.26117 0.81626 0.21122 0.0
C1303 C 0.27511 0.81794 0.1808 0.0
C1304 C 0.2896 0.80711 0.18508 0.0
C1305 C 0.29017 0.79455 0.2197 0.0
H1306 H 0.27469 0.82764 0.15396 0.0
H1307 H 0.28178 0.70461 0.48686 0.0
H1308 H 0.50459 0.95255 0.40193 0.0
H1309 H 0.50351 0.97694 0.4554 0.0
H1310 H 0.53833 0.94984 0.54672 0.0
H1311 H 0.53917 0.92516 0.49384 0.0
H1312 H 0.51301 0.96591 0.59347 0.0
H1313 H 0.55327 0.98127 0.4738 0.0
H1314 H 0.56242 0.98566 0.39358 0.0
H1315 H 0.52271 0.02434 0.37611 0.0
H1316 H 0.51316 0.01999 0.45608 0.0
H1317 H 0.54278 0.03592 0.72644 0.0
H1318 H 0.54163 0.01191 0.67199 0.0
H1319 H 0.50581 0.04087 0.58766 0.0
H1320 H 0.50709 0.06521 0.64181 0.0
H1321 H 0.5304 0.02423 0.53666 0.0
H1322 H 0.49082 0.00937 0.6578 0.0
H1323 H 0.48199 0.00486 0.73821 0.0
H1324 H 0.52085 0.96518 0.75315 0.0
H1325 H 0.53008 0.96963 0.67297 0.0
C1326 C 0.51191 0.9517 0.43357 0.0
C1327 C 0.52208 0.93699 0.44353 0.0
C1328 C 0.51133 0.96569 0.46398 0.0
C1329 C 0.52111 0.96532 0.50456 0.0
C1330 C 0.53075 0.95039 0.51544 0.0
C1331 C 0.53123 0.93632 0.48519 0.0
C1332 C 0.52166 0.98069 0.53505 0.0
C1333 C 0.51699 0.97862 0.58119 0.0
C1334 C 0.52649 0.99735 0.51867 0.0
C1335 C 0.5324 0.00018 0.47079 0.0
C1336 C 0.54642 0.99063 0.45276 0.0
C1337 C 0.55169 0.99312 0.40735 0.0
C1338 C 0.54312 0.00524 0.37972 0.0
C1339 C 0.52932 0.01494 0.39753 0.0
C1340 C 0.52398 0.01248 0.44291 0.0
C1341 C 0.5347 0.03726 0.69623 0.0
C1342 C 0.52489 0.05241 0.68862 0.0
C1343 C 0.53402 0.02348 0.66524 0.0
C1344 C 0.52338 0.0245 0.6263 0.0
C1345 C 0.51402 0.03982 0.6177 0.0
C1346 C 0.51475 0.05368 0.64867 0.0
C1347 C 0.52186 0.00941 0.59512 0.0
C1348 C 0.52634 0.01154 0.54886 0.0
C1349 C 0.5169 0.99279 0.61141 0.0
C1350 C 0.51123 0.98993 0.65947 0.0
C1351 C 0.49755 -0.00024 0.67831 0.0
C1352 C 0.49247 0.9972 0.72384 0.0
C1353 C 0.50088 0.98477 0.7508 0.0
C1354 C 0.51436 0.97482 0.73223 0.0
C1355 C 0.51951 0.97734 0.68673 0.0
H1356 H 0.49693 0.98282 0.78605 0.0
H1357 H 0.5472 0.00713 0.34455 0.0
H1358 H 0.0252 0.03601 0.89781 0.0
H1359 H 0.02602 0.01163 0.95125 0.0
H1360 H 0.03419 0.04715 0.06371 0.0
H1361 H 0.03359 0.0717 0.01034 0.0
H1362 H 0.0558 0.01899 0.06806 0.0
H1363 H 0.99481 0.02967 0.04668 0.0
H1364 H 0.96793 0.03394 0.00204 0.0
H1365 H 0.97316 0.98278 0.9446 0.0
H1366 H 0.00023 0.9783 0.98843 0.0
H1367 H 0.03357 0.96397 0.25351 0.0
H1368 H 0.03522 0.98711 0.19652 0.0
H1369 H 0.02698 0.94967 0.08849 0.0
H1370 H 0.02516 0.92635 0.14545 0.0
H1371 H 0.00607 0.97808 0.07975 0.0
H1372 H 0.06655 0.96697 0.10357 0.0
H1373 H 0.09335 0.96274 0.14854 0.0
H1374 H 0.08908 0.01464 0.20173 0.0
H1375 H 0.06209 0.0191 0.15758 0.0
C1376 C 0.02717 0.03867 0.93391 0.0
C1377 C 0.02926 0.05581 0.94989 0.0
C1378 C 0.02758 0.02471 0.96439 0.0
C1379 C 0.02999 0.02762 0.01143 0.0
C1380 C 0.0323 0.04467 0.02749 0.0
C1381 C 0.03188 0.05867 0.99699 0.0
C1382 C 0.03007 0.01283 0.04384 0.0
C1383 C 0.04485 0.01016 0.07108 0.0
C1384 C 0.01595 0.00108 0.04674 0.0
C1385 C -0.00036 0.00372 0.02048 0.0
C1386 C 0.99031 0.01938 0.02424 0.0
C1387 C 0.97502 0.02183 -0.00086 0.0
C1388 C 0.96887 0.00866 0.97041 0.0
C1389 C 0.97796 0.99299 0.96682 0.0
C1390 C 0.99327 0.99048 0.99181 0.0
C1391 C 0.03221 0.9606 0.21762 0.0
C1392 C 0.02922 0.94332 0.20396 0.0
C1393 C 0.03324 0.97385 0.18509 0.0
C1394 C 0.03138 0.97006 0.13832 0.0
C1395 C 0.02849 0.95282 0.12448 0.0
C1396 C 0.0275 0.93953 0.15703 0.0
C1397 C 0.03177 0.98426 0.10415 0.0
C1398 C 0.01706 0.98685 0.07659 0.0
C1399 C 0.04595 0.99593 0.101 0.0
C1400 C 0.0622 0.99331 0.12756 0.0
C1401 C 0.07124 0.97743 0.12515 0.0
C1402 C 0.08648 0.975 0.15044 0.0
C1403 C 0.09289 0.9884 0.17806 0.0
C1404 C 0.08409 0.00427 0.18036 0.0
C1405 C 0.06883 0.00676 0.15517 0.0
H1406 H 0.1047 0.98649 0.19761 0.0
H1407 H 0.95703 0.01058 0.95101 0.0
H1408 H 0.05091 0.47379 0.74805 0.0
H1409 H 0.0478 0.49302 0.68204 0.0
H1410 H 0.02977 0.44996 0.60009 0.0
H1411 H 0.03265 0.43052 0.66646 0.0
H1412 H 0.05656 0.4717 0.55873 0.0
H1413 H 0.00079 0.47657 0.63378 0.0
H1414 H 0.98169 0.4815 0.70045 0.0
H1415 H 0.0027 0.53287 0.71688 0.0
H1416 H 0.02211 0.52815 0.65064 0.0
H1417 H 0.02728 0.51846 0.36744 0.0
H1418 H 0.02952 0.49926 0.43346 0.0
H1419 H 0.03567 0.54372 0.52239 0.0
H1420 H 0.03273 0.56316 0.45618 0.0
H1421 H 0.01512 0.52118 0.5613 0.0
H1422 H 0.0708 0.51756 0.48991 0.0
H1423 H 0.09164 0.51352 0.42654 0.0
H1424 H 0.07336 0.46129 0.40684 0.0
H1425 H 0.05223 0.46509 0.46974 0.0
C1426 C 0.04631 0.46835 0.716 0.0
C1427 C 0.042 0.45063 0.71241 0.0
C1428 C 0.04449 0.47939 0.67841 0.0
C1429 C 0.03847 0.4729 0.63645 0.0
C1430 C 0.03441 0.45517 0.63237 0.0
C1431 C 0.03601 0.44412 0.67024 0.0
C1432 C 0.03648 0.48473 0.59691 0.0
C1433 C 0.04732 0.48237 0.55882 0.0
C1434 C 0.02488 0.49898 0.59813 0.0
C1435 C 0.01302 0.50194 0.63751 0.0
C1436 C 0.00143 0.48887 0.65181 0.0
C1437 C 0.99053 0.49163 0.68949 0.0
C1438 C 0.99101 0.50747 0.71297 0.0
C1439 C 0.00235 0.5206 0.69869 0.0
C1440 C 0.01329 0.5179 0.66105 0.0
C1441 C 0.02913 0.52419 0.40101 0.0
C1442 C 0.02995 0.54233 0.40661 0.0
C1443 C 0.0305 0.51317 0.43875 0.0
C1444 C 0.03314 0.52001 0.4828 0.0
C1445 C 0.03371 0.53815 0.48866 0.0
C1446 C 0.03207 0.54923 0.45086 0.0
C1447 C 0.03516 0.50816 0.52259 0.0
C1448 C 0.02436 0.51052 0.56092 0.0
C1449 C 0.04704 0.49406 0.52194 0.0
C1450 C 0.05982 0.49167 0.48428 0.0
C1451 C 0.07114 0.50525 0.47186 0.0
C1452 C 0.08302 0.503 0.43606 0.0
C1453 C 0.08379 0.48717 0.4126 0.0
C1454 C 0.07272 0.47355 0.42501 0.0
C1455 C 0.06081 0.47574 0.46077 0.0
H1456 H 0.09299 0.48546 0.38487 0.0
H1457 H 0.98258 0.50958 0.74218 0.0
H1458 H 0.84713 0.75953 0.91042 0.0
H1459 H 0.82744 0.76007 0.84422 0.0
H1460 H 0.78328 0.75684 0.93502 0.0
H1461 H 0.80275 0.75652 0.00114 0.0
H1462 H 0.78199 0.73378 0.85778 0.0
H1463 H 0.792 0.7943 0.89435 0.0
H1464 H 0.81031 0.82004 0.90902 0.0
H1465 H 0.83255 0.81561 0.77444 0.0
H1466 H 0.81453 0.78968 0.75922 0.0
H1467 H 0.71479 0.75488 0.70017 0.0
H1468 H 0.73398 0.75371 0.76712 0.0
H1469 H 0.77734 0.76939 0.68258 0.0
H1470 H 0.75815 0.77133 0.61643 0.0
H1471 H 0.77917 0.78594 0.75798 0.0
H1472 H 0.77025 0.72593 0.7194 0.0
H1473 H 0.75328 0.69943 0.70306 0.0
H1474 H 0.73077 0.70155 0.83771 0.0
H1475 H 0.74744 0.72821 0.85465 0.0
C1476 C 0.83324 0.75888 0.9162 0.0
C1477 C 0.82648 0.75807 0.96092 0.0
C1478 C 0.82203 0.75922 0.87845 0.0
C1479 C 0.80395 0.75855 0.88494 0.0
C1480 C 0.79721 0.75735 0.92943 0.0
C1481 C 0.80836 0.75726 0.96712 0.0
C1482 C 0.79196 0.75951 0.84544 0.0
C1483 C 0.7812 0.74522 0.83611 0.0
C1484 C 0.7913 0.7743 0.81682 0.0
C1485 C 0.80206 0.78995 0.82585 0.0
C1486 C 0.80091 0.79873 0.86804 0.0
C1487 C 0.81121 0.81337 0.87643 0.0
C1488 C 0.82262 0.81943 0.84273 0.0
C1489 C 0.82372 0.81089 0.80053 0.0
C1490 C 0.81346 0.79623 0.792 0.0
C1491 C 0.72841 0.75811 0.69603 0.0
C1492 C 0.73497 0.76321 0.65313 0.0
C1493 C 0.7394 0.75734 0.7342 0.0
C1494 C 0.7572 0.76121 0.7298 0.0
C1495 C 0.76368 0.76637 0.68694 0.0
C1496 C 0.75267 0.76746 0.6491 0.0
C1497 C 0.76914 0.76011 0.76969 0.0
C1498 C 0.77991 0.77442 0.77934 0.0
C1499 C 0.76998 0.7452 0.79817 0.0
C1500 C 0.75996 0.72916 0.78811 0.0
C1501 C 0.76158 0.72082 0.7454 0.0
C1502 C 0.75203 0.70575 0.73605 0.0
C1503 C 0.74091 0.69883 0.76928 0.0
C1504 C 0.73936 0.70694 0.81198 0.0
C1505 C 0.74887 0.72202 0.82148 0.0
H1506 H 0.73353 0.68717 0.76198 0.0
H1507 H 0.83059 0.83077 0.84928 0.0
H1508 H 0.48832 0.53955 0.22829 0.0
H1509 H 0.49024 0.51709 0.16947 0.0
H1510 H 0.53979 0.53749 0.12577 0.0
H1511 H 0.53795 0.56018 0.18461 0.0
H1512 H 0.51866 0.52717 0.05276 0.0
H1513 H 0.5394 0.50381 0.1953 0.0
H1514 H 0.53769 0.49724 0.27792 0.0
H1515 H 0.49205 0.46626 0.25501 0.0
H1516 H 0.49333 0.47288 0.1723 0.0
H1517 H 0.54446 0.45248 0.92869 0.0
H1518 H 0.54401 0.476 0.98497 0.0
H1519 H 0.49652 0.45548 0.04229 0.0
H1520 H 0.49707 0.43169 0.98671 0.0
H1521 H 0.51774 0.46619 0.10855 0.0
H1522 H 0.49621 0.48997 0.96718 0.0
H1523 H 0.49711 0.49694 0.88469 0.0
H1524 H 0.54337 0.52724 0.90514 0.0
H1525 H 0.54289 0.52024 0.98771 0.0
C1526 C 0.49954 0.53944 0.20584 0.0
C1527 C 0.51308 0.55155 0.21147 0.0
C1528 C 0.50063 0.52655 0.17233 0.0
C1529 C 0.5153 0.52545 0.1439 0.0
C1530 C 0.5284 0.53808 0.1476 0.0
C1531 C 0.52733 0.55102 0.18124 0.0
C1532 C 0.5173 0.51057 0.11205 0.0
C1533 C 0.51872 0.51384 0.06492 0.0
C1534 C 0.51703 0.49319 0.12801 0.0
C1535 C 0.51638 0.48897 0.17765 0.0
C1536 C 0.52893 0.4957 0.20791 0.0
C1537 C 0.52805 0.49195 0.25476 0.0
C1538 C 0.51475 0.48137 0.27172 0.0
C1539 C 0.50233 0.47447 0.24183 0.0
C1540 C 0.50314 0.4782 0.19496 0.0
C1541 C 0.534 0.45287 0.95353 0.0
C1542 C 0.52073 0.44027 0.95301 0.0
C1543 C 0.53371 0.46638 0.98552 0.0
C1544 C 0.52004 0.4677 0.01725 0.0
C1545 C 0.50715 0.45477 0.01797 0.0
C1546 C 0.50748 0.44117 0.98616 0.0
C1547 C 0.51897 0.48273 0.04905 0.0
C1548 C 0.51774 0.4795 0.09628 0.0
C1549 C 0.51935 0.50014 0.03312 0.0
C1550 C 0.51961 0.50444 0.98354 0.0
C1551 C 0.50665 0.49801 0.95403 0.0
C1552 C 0.50707 0.50199 0.90727 0.0
C1553 C 0.52032 0.51249 0.88966 0.0
C1554 C 0.53314 0.51908 0.91882 0.0
C1555 C 0.53279 0.51513 0.9656 0.0
H1556 H 0.52062 0.51555 0.85345 0.0
H1557 H 0.51408 0.4785 0.308 0.0
H1558 H 0.82643 0.26525 0.16944 0.0
H1559 H 0.80289 0.26497 0.22559 0.0
H1560 H 0.81575 0.21213 0.26179 0.0
H1561 H 0.83919 0.21219 0.20513 0.0
H1562 H 0.78151 0.21571 0.24779 0.0
H1563 H 0.82543 0.24611 0.3332 0.0
H1564 H 0.84737 0.2689 0.34721 0.0
H1565 H 0.80814 0.30829 0.33387 0.0
H1566 H 0.786 0.28574 0.31917 0.0
H1567 H 0.73508 0.2073 0.45595 0.0
H1568 H 0.75636 0.209 0.39423 0.0
H1569 H 0.74006 0.26148 0.36456 0.0
H1570 H 0.71879 0.25998 0.42703 0.0
H1571 H 0.77491 0.25919 0.37227 0.0
H1572 H 0.73064 0.22844 0.29075 0.0
H1573 H 0.70881 0.20548 0.27782 0.0
H1574 H 0.74873 0.16654 0.28456 0.0
H1575 H 0.77079 0.18926 0.29817 0.0
C1576 C 0.82439 0.25362 0.18966 0.0
C1577 C 0.8347 0.23873 0.18275 0.0
C1578 C 0.81093 0.2535 0.22184 0.0
C1579 C 0.8076 0.23856 0.24804 0.0
C1580 C 0.81807 0.22379 0.24185 0.0
C1581 C 0.83152 0.22388 0.2096 0.0
C1582 C 0.79282 0.2381 0.2807 0.0
C1583 C 0.78017 0.22508 0.27538 0.0
C1584 C 0.7908 0.25066 0.31577 0.0
C1585 C 0.80409 0.26424 0.3246 0.0
C1586 C 0.82151 0.25964 0.33286 0.0
C1587 C 0.83398 0.27251 0.34101 0.0
C1588 C 0.82916 0.29003 0.3413 0.0
C1589 C 0.81186 0.29471 0.33357 0.0
C1590 C 0.79934 0.28189 0.32536 0.0
C1591 C 0.73581 0.21914 0.43594 0.0
C1592 C 0.72526 0.23353 0.4465 0.0
C1593 C 0.74796 0.22006 0.40049 0.0
C1594 C 0.74974 0.23533 0.3746 0.0
C1595 C 0.73889 0.24957 0.38414 0.0
C1596 C 0.72669 0.24865 0.41967 0.0
C1597 C 0.76368 0.2367 0.33963 0.0
C1598 C 0.77617 0.24988 0.3445 0.0
C1599 C 0.76558 0.22427 0.30419 0.0
C1600 C 0.75235 0.21056 0.29585 0.0
C1601 C 0.73475 0.21498 0.28983 0.0
C1602 C 0.72234 0.202 0.28231 0.0
C1603 C 0.72737 0.18456 0.28047 0.0
C1604 C 0.74485 0.18006 0.28603 0.0
C1605 C 0.75731 0.19298 0.29358 0.0
H1606 H 0.71774 0.17453 0.27465 0.0
H1607 H 0.83883 0.29997 0.34763 0.0
H1608 H 0.35344 0.25713 0.42238 0.0
H1609 H 0.33391 0.25618 0.35576 0.0
H1610 H 0.28951 0.25507 0.44609 0.0
H1611 H 0.30878 0.25627 0.51246 0.0
H1612 H 0.28819 0.23059 0.37173 0.0
H1613 H 0.29879 0.29164 0.40187 0.0
H1614 H 0.31739 0.31739 0.41346 0.0
H1615 H 0.33937 0.31056 0.27929 0.0
H1616 H 0.32106 0.28459 0.26717 0.0
H1617 H 0.21991 0.25108 0.21708 0.0
H1618 H 0.23979 0.25041 0.28269 0.0
H1619 H 0.28261 0.26369 0.19352 0.0
H1620 H 0.26281 0.26506 0.12859 0.0
H1621 H 0.28537 0.28145 0.26734 0.0
H1622 H 0.27526 0.22122 0.23445 0.0
H1623 H 0.25778 0.19481 0.22121 0.0
H1624 H 0.23648 0.19876 0.35694 0.0
H1625 H 0.25368 0.22535 0.37078 0.0
C1626 C 0.33952 0.25658 0.42792 0.0
C1627 C 0.33261 0.25689 0.47252 0.0
C1628 C 0.32842 0.25606 0.38997 0.0
C1629 C 0.31031 0.25562 0.39623 0.0
C1630 C 0.30345 0.25539 0.44068 0.0
C1631 C 0.31449 0.25618 0.47849 0.0
C1632 C 0.29839 0.25602 0.35659 0.0
C1633 C 0.28743 0.24173 0.349 0.0
C1634 C 0.29775 0.27043 0.32665 0.0
C1635 C 0.30871 0.28607 0.33384 0.0
C1636 C 0.3077 0.29554 0.37501 0.0
C1637 C 0.31817 0.31019 0.38164 0.0
C1638 C 0.3296 0.31558 0.34719 0.0
C1639 C 0.33054 0.30635 0.30598 0.0
C1640 C 0.32011 0.29167 0.2992 0.0
C1641 C 0.23356 0.2539 0.21162 0.0
C1642 C 0.2398 0.25812 0.16774 0.0
C1643 C 0.24493 0.25341 0.24903 0.0
C1644 C 0.26276 0.25675 0.24292 0.0
C1645 C 0.26892 0.26109 0.19914 0.0
C1646 C 0.25756 0.26184 0.16201 0.0
C1647 C 0.27508 0.25594 0.28199 0.0
C1648 C 0.28612 0.2702 0.2897 0.0
C1649 C 0.27595 0.24138 0.31164 0.0
C1650 C 0.26563 0.22537 0.30347 0.0
C1651 C 0.26675 0.21653 0.26135 0.0
C1652 C 0.25691 0.20152 0.25376 0.0
C1653 C 0.24599 0.19514 0.28816 0.0
C1654 C 0.24493 0.20373 0.33029 0.0
C1655 C 0.25473 0.21877 0.33804 0.0
H1656 H 0.23838 0.18351 0.28222 0.0
H1657 H 0.33769 0.32693 0.35238 0.0
H1658 H 0.29533 0.74266 0.62811 0.0
H1659 H 0.27602 0.74215 0.69466 0.0
H1660 H 0.32035 0.73818 0.78446 0.0
H1661 H 0.33992 0.73908 0.71782 0.0
H1662 H 0.29064 0.71291 0.79808 0.0
H1663 H 0.30385 0.77419 0.78507 0.0
H1664 H 0.30636 0.802 0.74352 0.0
H1665 H 0.25185 0.80044 0.712 0.0
H1666 H 0.24907 0.77247 0.7528 0.0
H1667 H 0.24953 0.7272 0.01064 0.0
H1668 H 0.26852 0.72712 0.9439 0.0
H1669 H 0.22682 0.74751 0.86077 0.0
H1670 H 0.20783 0.74822 0.92823 0.0
H1671 H 0.25521 0.7642 0.84209 0.0
H1672 H 0.24075 0.70416 0.85335 0.0
H1673 H 0.23694 0.67558 0.89031 0.0
H1674 H 0.29162 0.67342 0.9195 0.0
H1675 H 0.29573 0.70211 0.88325 0.0
C1676 C 0.301 0.74168 0.662 0.0
C1677 C 0.31913 0.7409 0.66784 0.0
C1678 C 0.28995 0.74144 0.69991 0.0
C1679 C 0.29681 0.74016 0.74426 0.0
C1680 C 0.31488 0.73918 0.75035 0.0
C1681 C 0.326 0.73976 0.71238 0.0
C1682 C 0.28497 0.73978 0.78412 0.0
C1683 C 0.28306 0.72416 0.80833 0.0
C1684 C 0.27466 0.7543 0.79596 0.0
C1685 C 0.27629 0.77114 0.77156 0.0
C1686 C 0.29243 0.77969 0.76889 0.0
C1687 C 0.2939 0.7955 0.74556 0.0
C1688 C 0.27928 0.80296 0.72502 0.0
C1689 C 0.26316 0.79464 0.72787 0.0
C1690 C 0.26163 0.77881 0.75113 0.0
C1691 C 0.24431 0.73154 0.97812 0.0
C1692 C 0.22714 0.73768 0.97469 0.0
C1693 C 0.25519 0.73141 0.93985 0.0
C1694 C 0.24905 0.73705 0.89707 0.0
C1695 C 0.23185 0.74306 0.89342 0.0
C1696 C 0.22099 0.74341 0.93192 0.0
C1697 C 0.26084 0.7373 0.85673 0.0
C1698 C 0.26273 0.75289 0.83215 0.0
C1699 C 0.27092 0.72263 0.84405 0.0
C1700 C 0.26852 0.70537 0.86596 0.0
C1701 C 0.25194 0.69766 0.86798 0.0
C1702 C 0.24974 0.68142 0.88875 0.0
C1703 C 0.26402 0.67271 0.90735 0.0
C1704 C 0.28056 0.68019 0.90512 0.0
C1705 C 0.28284 0.69644 0.88443 0.0
H1706 H 0.26229 0.66014 0.92339 0.0
H1707 H 0.28044 0.8152 0.70698 0.0
H1708 H 0.53263 0.97296 0.26042 0.0
H1709 H 0.53401 0.99206 0.19375 0.0
H1710 H 0.52911 0.94772 0.10412 0.0
H1711 H 0.52757 0.92838 0.17098 0.0
H1712 H 0.55625 0.97173 0.08018 0.0
H1713 H 0.49514 0.97183 0.11733 0.0
H1714 H 0.46993 0.97512 0.16886 0.0
H1715 H 0.48434 0.02811 0.19563 0.0
H1716 H 0.50979 0.02506 0.14474 0.0
H1717 H 0.54104 0.01649 0.8738 0.0
H1718 H 0.53953 0.99735 0.94013 0.0
H1719 H 0.5333 0.04185 0.02888 0.0
H1720 H 0.5341 0.06113 0.96199 0.0
H1721 H 0.51198 0.01764 0.05433 0.0
H1722 H 0.57265 0.01865 0.02005 0.0
H1723 H 0.59893 0.01628 0.97201 0.0
H1724 H 0.58714 0.96272 0.94417 0.0
H1725 H 0.56064 0.96483 0.99156 0.0
C1726 C 0.53184 0.96722 0.22657 0.0
C1727 C 0.52996 0.94914 0.22094 0.0
C1728 C 0.53258 0.97818 0.18854 0.0
C1729 C 0.53154 0.97128 0.14415 0.0
C1730 C 0.52989 0.95324 0.13823 0.0
C1731 C 0.52896 0.94225 0.17637 0.0
C1732 C 0.53231 0.98302 0.10404 0.0
C1733 C 0.54646 0.98161 0.07399 0.0
C1734 C 0.51984 0.99627 0.0972 0.0
C1735 C 0.50446 0.99817 0.12754 0.0
C1736 C 0.49301 0.98414 0.13449 0.0
C1737 C 0.47866 0.98597 0.16353 0.0
C1738 C 0.47556 0.0018 0.18559 0.0
C1739 C 0.48677 0.01585 0.17855 0.0
C1740 C 0.50115 0.01409 0.14958 0.0
C1741 C 0.53944 0.02224 0.90744 0.0
C1742 C 0.5378 0.04034 0.91274 0.0
C1743 C 0.53866 0.01127 0.94542 0.0
C1744 C 0.53665 0.01815 0.98967 0.0
C1745 C 0.53493 0.03624 0.99508 0.0
C1746 C 0.53543 0.04724 0.9569 0.0
C1747 C 0.53596 0.00639 0.03002 0.0
C1748 C 0.52182 0.00779 0.06029 0.0
C1749 C 0.54861 0.99329 0.03747 0.0
C1750 C 0.56457 0.99195 0.00903 0.0
C1751 C 0.57559 0.0064 0.00341 0.0
C1752 C 0.59054 0.0051 0.97634 0.0
C1753 C 0.59468 0.98937 0.95496 0.0
C1754 C 0.5839 0.9749 0.96071 0.0
C1755 C 0.56893 0.97614 0.98771 0.0
H1756 H 0.60626 0.98839 0.93402 0.0
H1757 H 0.46444 0.0032 0.20806 0.0
H1758 H 0.04443 0.0511 0.72016 0.0
H1759 H 0.04518 0.02797 0.66284 0.0
H1760 H 0.99505 0.04426 0.61227 0.0
H1761 H 0.99401 0.06719 0.67021 0.0
H1762 H 0.99543 0.01032 0.62663 0.0
H1763 H 0.0332 0.0512 0.55122 0.0
H1764 H 0.05836 0.07092 0.54451 0.0
H1765 H 0.09311 0.02825 0.56925 0.0
H1766 H 0.06813 0.0083 0.57671 0.0
H1767 H 0.99073 0.96517 0.41741 0.0
H1768 H 0.99285 0.98676 0.47818 0.0
H1769 H 0.04116 0.96404 0.52341 0.0
H1770 H 0.03923 0.9423 0.46191 0.0
H1771 H 0.04314 0.99959 0.51564 0.0
H1772 H 0.00518 0.95845 0.58667 0.0
H1773 H 0.97989 0.93884 0.59213 0.0
H1774 H 0.94536 0.9822 0.57486 0.0
H1775 H 0.97045 0.00205 0.56864 0.0
C1776 C 0.03366 0.04994 0.69642 0.0
C1777 C 0.01912 0.06096 0.69988 0.0
C1778 C 0.03414 0.03672 0.66356 0.0
C1779 C 0.02019 0.0344 0.63314 0.0
C1780 C 0.00593 0.04576 0.63553 0.0
C1781 C 0.00539 0.05891 0.66855 0.0
C1782 C 0.01997 0.01957 0.60057 0.0
C1783 C 0.00576 0.00811 0.60196 0.0
C1784 C 0.03375 0.01632 0.56951 0.0
C1785 C 0.04878 0.0283 0.56501 0.0
C1786 C 0.0462 0.04605 0.55561 0.0
C1787 C 0.06043 0.05726 0.55159 0.0
C1788 C 0.07732 0.05085 0.55658 0.0
C1789 C 0.08002 0.0332 0.56547 0.0
C1790 C 0.06583 0.02193 0.56955 0.0
C1791 C 0.00176 0.96462 0.44044 0.0
C1792 C 0.01482 0.952 0.43483 0.0
C1793 C 0.00291 0.97696 0.47531 0.0
C1794 C 0.01708 0.97692 0.50553 0.0
C1795 C 0.03009 0.96425 0.50045 0.0
C1796 C 0.02892 0.95181 0.4655 0.0
C1797 C 0.01845 0.99057 0.54122 0.0
C1798 C 0.03287 0.00176 0.54053 0.0
C1799 C 0.00486 0.99362 0.5729 0.0
C1800 C 0.98972 0.98172 0.57685 0.0
C1801 C 0.9922 0.96379 0.5837 0.0
C1802 C 0.9779 0.95263 0.58699 0.0
C1803 C 0.96103 0.95926 0.58376 0.0
C1804 C 0.95843 0.97708 0.57733 0.0
C1805 C 0.97269 0.9883 0.57398 0.0
H1806 H 0.94998 0.9506 0.58631 0.0
H1807 H 0.08832 0.05955 0.55345 0.0
loop_
_geom_bond_atom_site_label_1
_geom_bond_atom_site_label_2
_geom_bond_distance
_geom_bond_site_symmetry_2
_ccdc_geom_bond_type
C0 O1 1.160 . S
C0 O7 1.185 . S
O1 C0 1.160 . S
O2 Zn3 1.899 . S
O2 C10 1.284 . S
Zn3 O2 1.899 . S
Zn3 O4 2.032 . S
Zn3 O7 2.086 . S
Zn3 O12 1.977 . S
O4 Zn3 2.032 . S
O4 C8 1.278 . S
C5 O6 1.203 . S
C5 O12 1.267 . S
O6 C5 1.203 . S
O7 C0 1.185 . S
O7 Zn3 2.086 . S
C8 O4 1.278 . S
C8 O9 1.211 . S
O9 C8 1.211 . S
C10 O2 1.284 . S
C10 O11 1.273 . S
O11 C10 1.273 . S
O12 Zn3 1.977 . S
O12 C5 1.267 . S
C13 O14 1.160 . S
C13 O20 1.185 . S
O14 C13 1.160 . S
O15 Zn16 1.899 . S
O15 C23 1.284 . S
Zn16 O15 1.899 . S
Zn16 O17 2.032 . S
Zn16 O20 2.086 . S
Zn16 O25 1.977 . S
O17 Zn16 2.032 . S
O17 C21 1.278 . S
C18 O19 1.203 . S
C18 O25 1.267 . S
O19 C18 1.203 . S
O20 C13 1.185 . S
O20 Zn16 2.086 . S
C21 O17 1.278 . S
C21 O22 1.211 . S
O22 C21 1.211 . S
C23 O15 1.284 . S
C23 O24 1.273 . S
O24 C23 1.273 . S
O25 Zn16 1.977 . S
O25 C18 1.267 . S
C26 O27 1.160 . S
C26 O33 1.185 . S
O27 C26 1.160 . S
O28 Zn29 1.899 . S
O28 C36 1.284 . S
Zn29 O28 1.899 . S
Zn29 O30 2.032 . S
Zn29 O33 2.086 . S
Zn29 O38 1.977 . S
O30 Zn29 2.032 . S
O30 C34 1.278 . S
C31 O32 1.203 . S
C31 O38 1.267 . S
O32 C31 1.203 . S
O33 C26 1.185 . S
O33 Zn29 2.086 . S
C34 O30 1.278 . S
C34 O35 1.211 . S
O35 C34 1.211 . S
C36 O28 1.284 . S
C36 O37 1.273 . S
O37 C36 1.273 . S
O38 Zn29 1.977 . S
O38 C31 1.267 . S
C39 O40 1.160 . S
C39 O46 1.185 . S
O40 C39 1.160 . S
O41 Zn42 1.899 . S
O41 C49 1.284 . S
Zn42 O41 1.899 . S
Zn42 O43 2.032 1_554 S
Zn42 O46 2.086 . S
Zn42 O51 1.977 . S
O43 Zn42 2.032 1_556 S
O43 C47 1.278 . S
C44 O45 1.203 1_554 S
C44 O51 1.266 . S
O45 C44 1.203 1_556 S
O46 C39 1.185 . S
O46 Zn42 2.086 . S
C47 O43 1.278 . S
C47 O48 1.211 . S
O48 C47 1.211 . S
C49 O41 1.284 . S
C49 O50 1.273 1_554 S
O50 C49 1.273 1_556 S
O51 Zn42 1.977 . S
O51 C44 1.266 . S
C52 O53 1.160 . S
C52 O59 1.185 . S
O53 C52 1.160 . S
O54 Zn55 1.899 . S
O54 C62 1.284 . S
Zn55 O54 1.899 . S
Zn55 O56 2.032 . S
Zn55 O59 2.086 . S
Zn55 O64 1.977 . S
O56 Zn55 2.032 . S
O56 C60 1.278 . S
C57 O58 1.203 . S
C57 O64 1.267 . S
O58 C57 1.203 . S
O59 C52 1.185 . S
O59 Zn55 2.086 . S
C60 O56 1.278 . S
C60 O61 1.211 . S
O61 C60 1.211 . S
C62 O54 1.284 . S
C62 O63 1.273 . S
O63 C62 1.273 . S
O64 Zn55 1.977 . S
O64 C57 1.267 . S
C65 O66 1.160 . S
C65 O72 1.185 . S
O66 C65 1.160 . S
O67 Zn68 1.899 . S
O67 C75 1.284 . S
Zn68 O67 1.899 . S
Zn68 O69 2.032 . S
Zn68 O72 2.086 . S
Zn68 O77 1.977 . S
O69 Zn68 2.032 . S
O69 C73 1.278 . S
C70 O71 1.203 . S
C70 O77 1.267 . S
O71 C70 1.203 . S
O72 C65 1.185 . S
O72 Zn68 2.086 . S
C73 O69 1.278 . S
C73 O74 1.211 . S
O74 C73 1.211 . S
C75 O67 1.284 . S
C75 O76 1.273 . S
O76 C75 1.273 . S
O77 Zn68 1.977 . S
O77 C70 1.267 . S
C78 O79 1.160 . S
C78 O85 1.185 . S
O79 C78 1.160 . S
O80 Zn81 1.899 . S
O80 C88 1.284 . S
Zn81 O80 1.899 . S
Zn81 O82 2.032 . S
Zn81 O85 2.086 . S
Zn81 O90 1.977 . S
O82 Zn81 2.032 . S
O82 C86 1.278 . S
C83 O84 1.203 . S
C83 O90 1.267 . S
O84 C83 1.203 . S
O85 C78 1.185 . S
O85 Zn81 2.086 . S
C86 O82 1.278 . S
C86 O87 1.211 . S
O87 C86 1.211 . S
C88 O80 1.284 . S
C88 O89 1.273 . S
O89 C88 1.273 . S
O90 Zn81 1.977 . S
O90 C83 1.267 . S
C91 O92 1.160 . S
C91 O98 1.185 . S
O92 C91 1.160 . S
O93 Zn94 1.899 . S
O93 C101 1.284 . S
Zn94 O93 1.899 . S
Zn94 O95 2.032 . S
Zn94 O98 2.086 . S
Zn94 O103 1.977 . S
O95 Zn94 2.032 . S
O95 C99 1.278 . S
C96 O97 1.203 . S
C96 O103 1.267 . S
O97 C96 1.203 . S
O98 C91 1.185 . S
O98 Zn94 2.086 . S
C99 O95 1.278 . S
C99 O100 1.211 . S
O100 C99 1.211 . S
C101 O93 1.284 . S
C101 O102 1.273 . S
O102 C101 1.273 . S
O103 Zn94 1.977 . S
O103 C96 1.267 . S
C104 O105 1.160 . S
C104 O111 1.185 . S
O105 C104 1.160 . S
O106 Zn107 1.899 . S
O106 C114 1.284 . S
Zn107 O106 1.899 . S
Zn107 O108 2.032 . S
Zn107 O111 2.086 . S
Zn107 O116 1.977 . S
O108 Zn107 2.032 . S
O108 C112 1.278 . S
C109 O110 1.203 . S
C109 O116 1.267 . S
O110 C109 1.203 . S
O111 C104 1.185 . S
O111 Zn107 2.086 . S
C112 O108 1.278 . S
C112 O113 1.211 . S
O113 C112 1.211 . S
C114 O106 1.284 . S
C114 O115 1.273 . S
O115 C114 1.273 . S
O116 Zn107 1.977 . S
O116 C109 1.267 . S
C117 O118 1.160 . S
C117 O124 1.185 . S
O118 C117 1.160 . S
O119 Zn120 1.899 . S
O119 C127 1.284 . S
Zn120 O119 1.899 . S
Zn120 O121 2.032 . S
Zn120 O124 2.086 . S
Zn120 O129 1.977 . S
O121 Zn120 2.032 . S
O121 C125 1.278 . S
C122 O123 1.203 . S
C122 O129 1.267 . S
O123 C122 1.203 . S
O124 C117 1.185 . S
O124 Zn120 2.086 . S
C125 O121 1.278 . S
C125 O126 1.211 . S
O126 C125 1.211 . S
C127 O119 1.284 . S
C127 O128 1.273 . S
O128 C127 1.273 . S
O129 Zn120 1.977 . S
O129 C122 1.267 . S
C130 O131 1.160 . S
C130 O137 1.185 . S
O131 C130 1.160 . S
O132 Zn133 1.899 . S
O132 C140 1.284 . S
Zn133 O132 1.899 . S
Zn133 O134 2.032 1_554 S
Zn133 O137 2.086 . S
Zn133 O142 1.977 . S
O134 Zn133 2.032 1_556 S
O134 C138 1.278 . S
C135 O136 1.203 1_554 S
C135 O142 1.266 . S
O136 C135 1.203 1_556 S
O137 C130 1.185 . S
O137 Zn133 2.086 . S
C138 O134 1.278 . S
C138 O139 1.211 . S
O139 C138 1.211 . S
C140 O132 1.284 . S
C140 O141 1.273 1_554 S
O141 C140 1.273 1_556 S
O142 Zn133 1.977 . S
O142 C135 1.266 . S
C143 O144 1.160 . S
C143 O150 1.185 . S
O144 C143 1.160 . S
O145 Zn146 1.899 . S
O145 C153 1.284 . S
Zn146 O145 1.899 . S
Zn146 O147 2.032 . S
Zn146 O150 2.086 . S
Zn146 O155 1.977 . S
O147 Zn146 2.032 . S
O147 C151 1.278 . S
C148 O149 1.203 . S
C148 O155 1.267 . S
O149 C148 1.203 . S
O150 C143 1.185 . S
O150 Zn146 2.086 . S
C151 O147 1.278 . S
C151 O152 1.211 . S
O152 C151 1.211 . S
C153 O145 1.284 . S
C153 O154 1.273 . S
O154 C153 1.273 . S
O155 Zn146 1.977 . S
O155 C148 1.267 . S
C156 O157 1.160 . S
C156 O163 1.185 . S
O157 C156 1.160 . S
O158 Zn159 1.899 . S
O158 C166 1.284 . S
Zn159 O158 1.899 . S
Zn159 O160 2.032 . S
Zn159 O163 2.086 . S
Zn159 O168 1.977 . S
O160 Zn159 2.032 . S
O160 C164 1.278 . S
C161 O162 1.203 . S
C161 O168 1.267 . S
O162 C161 1.203 . S
O163 C156 1.185 . S
O163 Zn159 2.086 . S
C164 O160 1.278 . S
C164 O165 1.211 . S
O165 C164 1.211 . S
C166 O158 1.284 . S
C166 O167 1.273 . S
O167 C166 1.273 . S
O168 Zn159 1.977 . S
O168 C161 1.267 . S
C169 O170 1.160 . S
C169 O176 1.185 . S
O170 C169 1.160 . S
O171 Zn172 1.899 . S
O171 C179 1.283 . S
Zn172 O171 1.899 . S
Zn172 O173 2.032 . S
Zn172 O176 2.086 . S
Zn172 O181 1.977 . S
O173 Zn172 2.032 . S
O173 C177 1.278 . S
C174 O175 1.203 . S
C174 O181 1.267 . S
O175 C174 1.203 . S
O176 C169 1.185 . S
O176 Zn172 2.086 . S
C177 O173 1.278 . S
C177 O178 1.211 . S
O178 C177 1.211 . S
C179 O171 1.283 . S
C179 O180 1.273 . S
O180 C179 1.273 . S
O181 Zn172 1.977 . S
O181 C174 1.267 . S
C182 O183 1.160 . S
C182 O189 1.185 . S
O183 C182 1.160 . S
O184 Zn185 1.899 . S
O184 C192 1.284 . S
Zn185 O184 1.899 . S
Zn185 O186 2.032 . S
Zn185 O189 2.086 . S
Zn185 O194 1.977 . S
O186 Zn185 2.032 . S
O186 C190 1.278 . S
C187 O188 1.203 . S
C187 O194 1.267 . S
O188 C187 1.203 . S
O189 C182 1.185 . S
O189 Zn185 2.086 . S
C190 O186 1.278 . S
C190 O191 1.211 . S
O191 C190 1.211 . S
C192 O184 1.284 . S
C192 O193 1.273 . S
O193 C192 1.273 . S
O194 Zn185 1.977 . S
O194 C187 1.267 . S
C195 O196 1.160 . S
C195 O202 1.185 . S
O196 C195 1.160 . S
O197 Zn198 1.899 . S
O197 C205 1.282 . S
Zn198 O197 1.899 . S
Zn198 O199 2.032 . S
Zn198 O202 2.086 . S
Zn198 O207 1.977 . S
O199 Zn198 2.032 . S
O199 C203 1.278 . S
C200 O201 1.203 . S
C200 O207 1.267 . S
O201 C200 1.203 . S
O202 C195 1.185 . S
O202 Zn198 2.086 . S
C203 O199 1.278 . S
C203 O204 1.211 . S
O204 C203 1.211 . S
C205 O197 1.282 . S
C205 O206 1.272 . S
O206 C205 1.272 . S
O207 Zn198 1.977 . S
O207 C200 1.267 . S
H208 C226 0.951 . S
H209 C228 0.951 . S
H210 C230 0.950 . S
H211 C231 0.950 . S
H212 C233 0.950 . S
H213 C236 0.950 . S
H214 C237 0.950 . S
H215 C239 0.950 . S
H216 C240 0.950 . S
H217 C241 0.951 . S
H218 C243 0.951 . S
H219 C245 0.950 . S
H220 C246 0.950 . S
H221 C248 0.950 . S
H222 C251 0.950 . S
H223 C252 0.950 . S
H224 C254 0.950 . S
H225 C255 0.950 . S
C226 H208 0.951 . S
C226 C227 1.366 . S
C226 C228 1.388 . S
C227 C226 1.366 . S
C227 C231 1.385 . S
C228 H209 0.951 . S
C228 C226 1.388 . S
C228 C229 1.366 . S
C229 C228 1.366 . S
C229 C230 1.414 . S
C229 C232 1.499 . S
C230 H210 0.950 . S
C230 C229 1.414 . S
C230 C231 1.374 . S
C231 H211 0.950 . S
C231 C227 1.385 . S
C231 C230 1.374 . S
C232 C229 1.499 . S
C232 C233 1.373 . S
C232 C234 1.389 . S
C233 H212 0.950 . S
C233 C232 1.373 . S
C233 C249 1.377 . S
C234 C232 1.389 . S
C234 C235 1.524 . S
C234 C248 1.377 . S
C235 C234 1.524 . S
C235 C236 1.397 . S
C235 C240 1.363 . S
C236 H213 0.950 . S
C236 C235 1.397 . S
C236 C237 1.334 . S
C237 H214 0.950 . S
C237 C236 1.334 . S
C237 C238 1.287 . S
C238 C237 1.287 . S
C238 C239 1.524 . S
C238 H257 0.913 . S
C239 H215 0.950 . S
C239 C238 1.524 . S
C239 C240 1.415 . S
C240 H216 0.950 . S
C240 C235 1.363 . S
C240 C239 1.415 . S
C241 H217 0.951 . S
C241 C242 1.366 . S
C241 C243 1.388 . S
C242 C241 1.366 . S
C242 C246 1.385 . S
C243 H218 0.951 . S
C243 C241 1.388 . S
C243 C244 1.366 . S
C244 C243 1.366 . S
C244 C245 1.414 . S
C244 C247 1.499 . S
C245 H219 0.950 . S
C245 C244 1.414 . S
C245 C246 1.374 . S
C246 H220 0.950 . S
C246 C242 1.385 . S
C246 C245 1.374 . S
C247 C244 1.499 . S
C247 C248 1.373 . S
C247 C249 1.389 . S
C248 H221 0.950 . S
C248 C234 1.377 . S
C248 C247 1.373 . S
C249 C233 1.377 . S
C249 C247 1.389 . S
C249 C250 1.524 . S
C250 C249 1.524 . S
C250 C251 1.397 . S
C250 C255 1.363 . S
C251 H222 0.950 . S
C251 C250 1.397 . S
C251 C252 1.334 . S
C252 H223 0.950 . S
C252 C251 1.334 . S
C252 C253 1.287 . S
C253 C252 1.287 . S
C253 C254 1.524 . S
C253 H256 0.999 . S
C254 H224 0.950 . S
C254 C253 1.524 . S
C254 C255 1.415 . S
C255 H225 0.950 . S
C255 C250 1.363 . S
C255 C254 1.415 . S
H256 C253 0.999 . S
H257 C238 0.913 . S
H258 C276 0.951 . S
H259 C278 0.951 . S
H260 C280 0.950 . S
H261 C281 0.950 . S
H262 C283 0.950 . S
H263 C286 0.950 . S
H264 C287 0.950 . S
H265 C289 0.950 . S
H266 C290 0.950 . S
H267 C291 0.951 . S
H268 C293 0.951 . S
H269 C295 0.950 . S
H270 C296 0.950 . S
H271 C298 0.950 . S
H272 C301 0.950 . S
H273 C302 0.950 . S
H274 C304 0.950 . S
H275 C305 0.950 . S
C276 H258 0.951 . S
C276 C277 1.366 . S
C276 C278 1.388 . S
C277 C276 1.366 . S
C277 C281 1.385 . S
C278 H259 0.951 . S
C278 C276 1.388 . S
C278 C279 1.366 . S
C279 C278 1.366 . S
C279 C280 1.414 . S
C279 C282 1.499 . S
C280 H260 0.950 . S
C280 C279 1.414 . S
C280 C281 1.374 . S
C281 H261 0.950 . S
C281 C277 1.385 . S
C281 C280 1.374 . S
C282 C279 1.499 . S
C282 C283 1.373 . S
C282 C284 1.389 . S
C283 H262 0.950 . S
C283 C282 1.373 . S
C283 C299 1.377 . S
C284 C282 1.389 . S
C284 C285 1.524 . S
C284 C298 1.377 . S
C285 C284 1.524 . S
C285 C286 1.397 . S
C285 C290 1.363 . S
C286 H263 0.950 . S
C286 C285 1.397 . S
C286 C287 1.334 . S
C287 H264 0.950 . S
C287 C286 1.334 . S
C287 C288 1.287 . S
C288 C287 1.287 . S
C288 C289 1.524 . S
C288 H307 0.913 . S
C289 H265 0.950 . S
C289 C288 1.524 . S
C289 C290 1.415 . S
C290 H266 0.950 . S
C290 C285 1.363 . S
C290 C289 1.415 . S
C291 H267 0.951 . S
C291 C292 1.366 . S
C291 C293 1.388 . S
C292 C291 1.366 . S
C292 C296 1.385 . S
C293 H268 0.951 . S
C293 C291 1.388 . S
C293 C294 1.366 . S
C294 C293 1.366 . S
C294 C295 1.414 . S
C294 C297 1.499 . S
C295 H269 0.950 . S
C295 C294 1.414 . S
C295 C296 1.374 . S
C296 H270 0.950 . S
C296 C292 1.385 . S
C296 C295 1.374 . S
C297 C294 1.499 . S
C297 C298 1.373 . S
C297 C299 1.389 . S
C298 H271 0.950 . S
C298 C284 1.377 . S
C298 C297 1.373 . S
C299 C283 1.377 . S
C299 C297 1.389 . S
C299 C300 1.524 . S
C300 C299 1.524 . S
C300 C301 1.397 . S
C300 C305 1.363 . S
C301 H272 0.950 . S
C301 C300 1.397 . S
C301 C302 1.334 . S
C302 H273 0.950 . S
C302 C301 1.334 . S
C302 C303 1.287 . S
C303 C302 1.287 . S
C303 C304 1.524 . S
C303 H306 0.999 . S
C304 H274 0.950 . S
C304 C303 1.524 . S
C304 C305 1.415 . S
C305 H275 0.950 . S
C305 C300 1.363 . S
C305 C304 1.415 . S
H306 C303 0.999 . S
H307 C288 0.913 . S
H308 C326 0.951 . S
H309 C328 0.951 . S
H310 C330 0.950 . S
H311 C331 0.950 . S
H312 C333 0.950 . S
H313 C336 0.950 . S
H314 C337 0.950 . S
H315 C339 0.950 . S
H316 C340 0.950 . S
H317 C341 0.951 . S
H318 C343 0.951 . S
H319 C345 0.950 . S
H320 C346 0.950 . S
H321 C348 0.950 . S
H322 C351 0.950 . S
H323 C352 0.950 . S
H324 C354 0.950 . S
H325 C355 0.950 . S
C326 H308 0.951 . S
C326 C327 1.366 . S
C326 C328 1.388 . S
C327 C326 1.366 . S
C327 C331 1.385 . S
C328 H309 0.951 . S
C328 C326 1.388 . S
C328 C329 1.366 . S
C329 C328 1.366 . S
C329 C330 1.414 . S
C329 C332 1.499 . S
C330 H310 0.950 . S
C330 C329 1.414 . S
C330 C331 1.374 . S
C331 H311 0.950 . S
C331 C327 1.385 . S
C331 C330 1.374 . S
C332 C329 1.499 . S
C332 C333 1.373 . S
C332 C334 1.389 . S
C333 H312 0.950 . S
C333 C332 1.373 . S
C333 C349 1.377 . S
C334 C332 1.389 . S
C334 C335 1.524 . S
C334 C348 1.377 . S
C335 C334 1.524 . S
C335 C336 1.397 . S
C335 C340 1.363 . S
C336 H313 0.950 . S
C336 C335 1.397 . S
C336 C337 1.334 . S
C337 H314 0.950 . S
C337 C336 1.334 . S
C337 C338 1.287 . S
C338 C337 1.287 . S
C338 C339 1.524 . S
C338 H357 0.913 . S
C339 H315 0.950 . S
C339 C338 1.524 . S
C339 C340 1.415 . S
C340 H316 0.950 . S
C340 C335 1.363 . S
C340 C339 1.415 . S
C341 H317 0.951 . S
C341 C342 1.366 . S
C341 C343 1.388 . S
C342 C341 1.366 . S
C342 C346 1.385 . S
C343 H318 0.951 . S
C343 C341 1.388 . S
C343 C344 1.366 . S
C344 C343 1.366 . S
C344 C345 1.414 . S
C344 C347 1.499 . S
C345 H319 0.950 . S
C345 C344 1.414 . S
C345 C346 1.374 . S
C346 H320 0.950 . S
C346 C342 1.385 . S
C346 C345 1.374 . S
C347 C344 1.499 . S
C347 C348 1.373 . S
C347 C349 1.389 . S
C348 H321 0.950 . S
C348 C334 1.377 . S
C348 C347 1.373 . S
C349 C333 1.377 . S
C349 C347 1.389 . S
C349 C350 1.524 . S
C350 C349 1.524 . S
C350 C351 1.397 . S
C350 C355 1.363 . S
C351 H322 0.950 . S
C351 C350 1.397 . S
C351 C352 1.334 . S
C352 H323 0.950 . S
C352 C351 1.334 . S
C352 C353 1.287 . S
C353 C352 1.287 . S
C353 C354 1.524 . S
C353 H356 0.999 . S
C354 H324 0.950 . S
C354 C353 1.524 . S
C354 C355 1.415 . S
C355 H325 0.950 . S
C355 C350 1.363 . S
C355 C354 1.415 . S
H356 C353 0.999 . S
H357 C338 0.913 . S
H358 C376 0.951 1_554 S
H359 C378 0.951 . S
H360 C380 0.950 . S
H361 C381 0.950 . S
H362 C383 0.950 . S
H363 C386 0.950 . S
H364 C387 0.950 . S
H365 C389 0.950 . S
H366 C390 0.950 . S
H367 C391 0.951 1_455 S
H368 C393 0.951 . S
H369 C395 0.950 . S
H370 C396 0.950 . S
H371 C398 0.950 . S
H372 C401 0.950 . S
H373 C402 0.950 . S
H374 C404 0.950 . S
H375 C405 0.950 . S
C376 H358 0.951 1_556 S
C376 C377 1.366 1_556 S
C376 C378 1.388 . S
C377 C376 1.366 1_554 S
C377 C381 1.385 1_554 S
C378 H359 0.951 . S
C378 C376 1.388 . S
C378 C379 1.366 . S
C379 C378 1.366 . S
C379 C380 1.414 . S
C379 C382 1.499 . S
C380 H360 0.950 . S
C380 C379 1.414 . S
C380 C381 1.374 . S
C381 H361 0.950 . S
C381 C377 1.385 1_556 S
C381 C380 1.374 . S
C382 C379 1.499 . S
C382 C383 1.373 . S
C382 C384 1.389 . S
C383 H362 0.950 . S
C383 C382 1.373 . S
C383 C399 1.377 . S
C384 C382 1.389 . S
C384 C385 1.524 1_556 S
C384 C398 1.377 . S
C385 C384 1.524 1_554 S
C385 C386 1.397 . S
C385 C390 1.363 . S
C386 H363 0.950 . S
C386 C385 1.397 . S
C386 C387 1.334 . S
C387 H364 0.950 . S
C387 C386 1.334 . S
C387 C388 1.287 . S
C388 C387 1.287 . S
C388 C389 1.524 . S
C388 H407 0.913 . S
C389 H365 0.950 . S
C389 C388 1.524 . S
C389 C390 1.415 . S
C390 H366 0.950 . S
C390 C385 1.363 . S
C390 C389 1.415 . S
C391 H367 0.951 1_655 S
C391 C392 1.366 . S
C391 C393 1.388 . S
C392 C391 1.366 . S
C392 C396 1.385 . S
C393 H368 0.951 . S
C393 C391 1.388 . S
C393 C394 1.366 . S
C394 C393 1.366 . S
C394 C395 1.414 . S
C394 C397 1.499 . S
C395 H369 0.950 . S
C395 C394 1.414 . S
C395 C396 1.374 . S
C396 H370 0.950 . S
C396 C392 1.385 . S
C396 C395 1.374 . S
C397 C394 1.499 . S
C397 C398 1.373 . S
C397 C399 1.389 . S
C398 H371 0.950 . S
C398 C384 1.377 . S
C398 C397 1.373 . S
C399 C383 1.377 . S
C399 C397 1.389 . S
C399 C400 1.524 . S
C400 C399 1.524 . S
C400 C401 1.397 . S
C400 C405 1.363 . S
C401 H372 0.950 . S
C401 C400 1.397 . S
C401 C402 1.334 . S
C402 H373 0.950 . S
C402 C401 1.334 . S
C402 C403 1.287 . S
C403 C402 1.287 . S
C403 C404 1.524 . S
C403 H406 0.999 . S
C404 H374 0.950 . S
C404 C403 1.524 . S
C404 C405 1.415 . S
C405 H375 0.950 . S
C405 C400 1.363 . S
C405 C404 1.415 . S
H406 C403 0.999 . S
H407 C388 0.913 . S
H408 C426 0.951 . S
H409 C428 0.951 . S
H410 C430 0.950 . S
H411 C431 0.950 . S
H412 C433 0.950 . S
H413 C436 0.950 . S
H414 C437 0.950 . S
H415 C439 0.950 . S
H416 C440 0.950 1_556 S
H417 C441 0.951 1_554 S
H418 C443 0.951 . S
H419 C445 0.950 . S
H420 C446 0.950 . S
H421 C448 0.950 1_554 S
H422 C451 0.950 . S
H423 C452 0.950 . S
H424 C454 0.950 . S
H425 C455 0.950 . S
C426 H408 0.951 . S
C426 C427 1.366 . S
C426 C428 1.388 . S
C427 C426 1.366 . S
C427 C431 1.385 . S
C428 H409 0.951 . S
C428 C426 1.388 . S
C428 C429 1.366 . S
C429 C428 1.366 . S
C429 C430 1.414 . S
C429 C432 1.499 . S
C430 H410 0.950 . S
C430 C429 1.414 . S
C430 C431 1.374 . S
C431 H411 0.950 . S
C431 C427 1.385 . S
C431 C430 1.374 . S
C432 C429 1.499 . S
C432 C433 1.373 . S
C432 C434 1.389 . S
C433 H412 0.950 . S
C433 C432 1.373 . S
C433 C449 1.377 . S
C434 C432 1.389 . S
C434 C435 1.524 . S
C434 C448 1.377 . S
C435 C434 1.524 . S
C435 C436 1.397 1_556 S
C435 C440 1.363 1_556 S
C436 H413 0.950 . S
C436 C435 1.397 1_554 S
C436 C437 1.334 . S
C437 H414 0.950 . S
C437 C436 1.334 . S
C437 C438 1.287 . S
C438 C437 1.287 . S
C438 C439 1.524 . S
C438 H457 0.913 . S
C439 H415 0.950 . S
C439 C438 1.524 . S
C439 C440 1.415 . S
C440 H416 0.950 1_554 S
C440 C435 1.363 1_554 S
C440 C439 1.415 . S
C441 H417 0.951 1_556 S
C441 C442 1.366 1_556 S
C441 C443 1.388 . S
C442 C441 1.366 1_554 S
C442 C446 1.385 1_554 S
C443 H418 0.951 . S
C443 C441 1.388 . S
C443 C444 1.366 . S
C444 C443 1.366 . S
C444 C445 1.414 . S
C444 C447 1.499 . S
C445 H419 0.950 . S
C445 C444 1.414 . S
C445 C446 1.374 . S
C446 H420 0.950 . S
C446 C442 1.385 1_556 S
C446 C445 1.374 . S
C447 C444 1.499 . S
C447 C448 1.373 . S
C447 C449 1.389 . S
C448 H421 0.950 1_556 S
C448 C434 1.377 . S
C448 C447 1.373 . S
C449 C433 1.377 . S
C449 C447 1.389 . S
C449 C450 1.524 . S
C450 C449 1.524 . S
C450 C451 1.397 . S
C450 C455 1.363 . S
C451 H422 0.950 . S
C451 C450 1.397 . S
C451 C452 1.334 . S
C452 H423 0.950 . S
C452 C451 1.334 . S
C452 C453 1.287 . S
C453 C452 1.287 . S
C453 C454 1.524 . S
C453 H456 0.999 . S
C454 H424 0.950 . S
C454 C453 1.524 . S
C454 C455 1.415 . S
C455 H425 0.950 . S
C455 C450 1.363 . S
C455 C454 1.415 . S
H456 C453 0.999 . S
H457 C438 0.913 . S
H458 C476 0.986 . S
H459 C478 0.951 . S
H460 C480 0.950 . S
H461 C481 0.950 . S
H462 C483 0.950 . S
H463 C486 0.950 . S
H464 C487 0.950 1_455 S
H465 C489 0.950 1_455 S
H466 C490 0.950 . S
H467 C491 0.951 . S
H468 C493 0.951 . S
H469 C495 0.950 . S
H470 C496 0.950 . S
H471 C498 0.950 . S
H472 C501 0.950 . S
H473 C502 0.950 . S
H474 C504 0.950 . S
H475 C505 0.950 . S
C476 H458 0.986 . S
C476 C477 1.366 . S
C476 C478 1.388 . S
C477 C476 1.366 . S
C477 C481 1.385 . S
C478 H459 0.951 . S
C478 C476 1.388 . S
C478 C479 1.366 . S
C479 C478 1.366 . S
C479 C480 1.414 . S
C479 C482 1.499 . S
C480 H460 0.950 . S
C480 C479 1.414 . S
C480 C481 1.374 . S
C481 H461 0.950 . S
C481 C477 1.385 . S
C481 C480 1.374 . S
C482 C479 1.499 . S
C482 C483 1.373 . S
C482 C484 1.389 . S
C483 H462 0.950 . S
C483 C482 1.373 . S
C483 C499 1.377 . S
C484 C482 1.389 . S
C484 C485 1.524 . S
C484 C498 1.377 . S
C485 C484 1.524 . S
C485 C486 1.397 . S
C485 C490 1.363 . S
C486 H463 0.950 . S
C486 C485 1.397 . S
C486 C487 1.334 . S
C487 H464 0.950 1_655 S
C487 C486 1.334 . S
C487 C488 1.287 1_655 S
C488 C487 1.287 1_455 S
C488 C489 1.524 1_455 S
C488 H507 0.913 . S
C489 H465 0.950 1_655 S
C489 C488 1.524 1_655 S
C489 C490 1.415 . S
C490 H466 0.950 . S
C490 C485 1.363 . S
C490 C489 1.415 . S
C491 H467 0.951 . S
C491 C492 1.366 . S
C491 C493 1.388 . S
C492 C491 1.366 . S
C492 C496 1.385 . S
C493 H468 0.951 . S
C493 C491 1.388 . S
C493 C494 1.366 . S
C494 C493 1.366 . S
C494 C495 1.414 . S
C494 C497 1.499 . S
C495 H469 0.950 . S
C495 C494 1.414 . S
C495 C496 1.374 . S
C496 H470 0.950 . S
C496 C492 1.385 . S
C496 C495 1.374 . S
C497 C494 1.499 . S
C497 C498 1.373 . S
C497 C499 1.389 . S
C498 H471 0.950 . S
C498 C484 1.377 . S
C498 C497 1.373 . S
C499 C483 1.377 . S
C499 C497 1.389 . S
C499 C500 1.524 . S
C500 C499 1.524 . S
C500 C501 1.397 . S
C500 C505 1.363 . S
C501 H472 0.950 . S
C501 C500 1.397 . S
C501 C502 1.334 . S
C502 H473 0.950 . S
C502 C501 1.334 . S
C502 C503 1.287 . S
C503 C502 1.287 . S
C503 C504 1.524 . S
C503 H506 0.999 . S
C504 H474 0.950 . S
C504 C503 1.524 . S
C504 C505 1.415 . S
C505 H475 0.950 . S
C505 C500 1.363 . S
C505 C504 1.415 . S
H506 C503 0.999 . S
H507 C488 0.913 . S
H508 C526 0.951 . S
H509 C528 0.951 . S
H510 C530 0.950 . S
H511 C531 0.950 . S
H512 C533 0.950 . S
H513 C536 0.950 . S
H514 C537 0.950 . S
H515 C539 0.950 . S
H516 C540 0.950 . S
H517 C541 0.951 . S
H518 C543 0.951 . S
H519 C545 0.950 . S
H520 C546 0.950 . S
H521 C548 0.950 . S
H522 C551 0.950 . S
H523 C552 0.950 . S
H524 C554 0.950 . S
H525 C555 0.950 . S
C526 H508 0.951 . S
C526 C527 1.366 . S
C526 C528 1.388 . S
C527 C526 1.366 . S
C527 C531 1.385 . S
C528 H509 0.951 . S
C528 C526 1.388 . S
C528 C529 1.366 . S
C529 C528 1.366 . S
C529 C530 1.414 . S
C529 C532 1.499 . S
C530 H510 0.950 . S
C530 C529 1.414 . S
C530 C531 1.374 . S
C531 H511 0.950 . S
C531 C527 1.385 . S
C531 C530 1.374 . S
C532 C529 1.499 . S
C532 C533 1.373 . S
C532 C534 1.389 . S
C533 H512 0.950 . S
C533 C532 1.373 . S
C533 C549 1.377 . S
C534 C532 1.389 . S
C534 C535 1.524 . S
C534 C548 1.377 . S
C535 C534 1.524 . S
C535 C536 1.397 . S
C535 C540 1.363 . S
C536 H513 0.950 . S
C536 C535 1.397 . S
C536 C537 1.334 . S
C537 H514 0.950 . S
C537 C536 1.334 . S
C537 C538 1.287 . S
C538 C537 1.287 . S
C538 C539 1.524 . S
C538 H557 0.913 . S
C539 H515 0.950 . S
C539 C538 1.524 . S
C539 C540 1.415 . S
C540 H516 0.950 . S
C540 C535 1.363 . S
C540 C539 1.415 . S
C541 H517 0.951 . S
C541 C542 1.366 . S
C541 C543 1.388 . S
C542 C541 1.366 . S
C542 C546 1.385 . S
C543 H518 0.951 . S
C543 C541 1.388 . S
C543 C544 1.366 . S
C544 C543 1.366 . S
C544 C545 1.414 . S
C544 C547 1.499 . S
C545 H519 0.950 . S
C545 C544 1.414 . S
C545 C546 1.374 . S
C546 H520 0.950 . S
C546 C542 1.385 . S
C546 C545 1.374 . S
C547 C544 1.499 . S
C547 C548 1.373 . S
C547 C549 1.389 . S
C548 H521 0.950 . S
C548 C534 1.377 . S
C548 C547 1.373 . S
C549 C533 1.377 . S
C549 C547 1.389 . S
C549 C550 1.524 . S
C550 C549 1.524 . S
C550 C551 1.397 . S
C550 C555 1.363 . S
C551 H522 0.950 . S
C551 C550 1.397 . S
C551 C552 1.334 . S
C552 H523 0.950 . S
C552 C551 1.334 . S
C552 C553 1.287 . S
C553 C552 1.287 . S
C553 C554 1.524 . S
C553 H556 0.999 . S
C554 H524 0.950 . S
C554 C553 1.524 . S
C554 C555 1.415 . S
C555 H525 0.950 . S
C555 C550 1.363 . S
C555 C554 1.415 . S
H556 C553 0.999 . S
H557 C538 0.913 . S
H558 C576 0.951 . S
H559 C578 0.951 . S
H560 C580 0.950 . S
H561 C581 0.950 . S
H562 C583 0.950 . S
H563 C586 0.950 . S
H564 C587 0.950 . S
H565 C589 0.950 . S
H566 C590 0.950 . S
H567 C591 0.951 . S
H568 C593 0.951 . S
H569 C595 0.950 . S
H570 C596 0.950 . S
H571 C598 0.950 . S
H572 C601 0.950 . S
H573 C602 0.950 . S
H574 C604 0.950 . S
H575 C605 0.950 . S
C576 H558 0.951 . S
C576 C577 1.366 . S
C576 C578 1.388 . S
C577 C576 1.366 . S
C577 C581 1.385 . S
C578 H559 0.951 . S
C578 C576 1.388 . S
C578 C579 1.366 . S
C579 C578 1.366 . S
C579 C580 1.414 . S
C579 C582 1.499 . S
C580 H560 0.950 . S
C580 C579 1.414 . S
C580 C581 1.374 . S
C581 H561 0.950 . S
C581 C577 1.385 . S
C581 C580 1.374 . S
C582 C579 1.499 . S
C582 C583 1.373 . S
C582 C584 1.389 . S
C583 H562 0.950 . S
C583 C582 1.373 . S
C583 C599 1.377 . S
C584 C582 1.389 . S
C584 C585 1.524 . S
C584 C598 1.377 . S
C585 C584 1.524 . S
C585 C586 1.397 . S
C585 C590 1.363 . S
C586 H563 0.950 . S
C586 C585 1.397 . S
C586 C587 1.334 . S
C587 H564 0.950 . S
C587 C586 1.334 . S
C587 C588 1.287 . S
C588 C587 1.287 . S
C588 C589 1.524 . S
C588 H607 0.913 . S
C589 H565 0.950 . S
C589 C588 1.524 . S
C589 C590 1.415 . S
C590 H566 0.950 . S
C590 C585 1.363 . S
C590 C589 1.415 . S
C591 H567 0.951 . S
C591 C592 1.366 . S
C591 C593 1.388 . S
C592 C591 1.366 . S
C592 C596 1.385 . S
C593 H568 0.951 . S
C593 C591 1.388 . S
C593 C594 1.366 . S
C594 C593 1.366 . S
C594 C595 1.414 . S
C594 C597 1.499 . S
C595 H569 0.950 . S
C595 C594 1.414 . S
C595 C596 1.374 . S
C596 H570 0.950 . S
C596 C592 1.385 . S
C596 C595 1.374 . S
C597 C594 1.499 . S
C597 C598 1.373 . S
C597 C599 1.389 . S
C598 H571 0.950 . S
C598 C584 1.377 . S
C598 C597 1.373 . S
C599 C583 1.377 . S
C599 C597 1.389 . S
C599 C600 1.524 . S
C600 C599 1.524 . S
C600 C601 1.397 . S
C600 C605 1.363 . S
C601 H572 0.950 . S
C601 C600 1.397 . S
C601 C602 1.334 . S
C602 H573 0.950 . S
C602 C601 1.334 . S
C602 C603 1.287 . S
C603 C602 1.287 . S
C603 C604 1.524 . S
C603 H606 0.999 . S
C604 H574 0.950 . S
C604 C603 1.524 . S
C604 C605 1.415 . S
C605 H575 0.950 . S
C605 C600 1.363 . S
C605 C604 1.415 . S
H606 C603 0.999 . S
H607 C588 0.913 . S
H608 C626 0.951 1_455 S
H609 C628 0.951 . S
H610 C630 0.950 . S
H611 C631 0.950 . S
H612 C633 0.950 . S
H613 C636 0.950 . S
H614 C637 0.950 . S
H615 C639 0.950 . S
H616 C640 0.950 . S
H617 C641 0.951 . S
H618 C643 0.951 . S
H619 C645 0.950 . S
H620 C646 0.950 . S
H621 C648 0.950 . S
H622 C651 0.950 . S
H623 C652 0.950 . S
H624 C654 0.950 . S
H625 C655 0.950 1_556 S
C626 H608 0.951 1_655 S
C626 C627 1.366 . S
C626 C628 1.388 . S
C627 C626 1.366 . S
C627 C631 1.385 . S
C628 H609 0.951 . S
C628 C626 1.388 . S
C628 C629 1.366 . S
C629 C628 1.366 . S
C629 C630 1.414 . S
C629 C632 1.499 . S
C630 H610 0.950 . S
C630 C629 1.414 . S
C630 C631 1.374 . S
C631 H611 0.950 . S
C631 C627 1.385 . S
C631 C630 1.374 . S
C632 C629 1.499 . S
C632 C633 1.373 . S
C632 C634 1.389 . S
C633 H612 0.950 . S
C633 C632 1.373 . S
C633 C649 1.377 . S
C634 C632 1.389 . S
C634 C635 1.524 . S
C634 C648 1.377 . S
C635 C634 1.524 . S
C635 C636 1.397 . S
C635 C640 1.363 . S
C636 H613 0.950 . S
C636 C635 1.397 . S
C636 C637 1.334 . S
C637 H614 0.950 . S
C637 C636 1.334 . S
C637 C638 1.287 . S
C638 C637 1.287 . S
C638 C639 1.524 . S
C638 H657 0.913 . S
C639 H615 0.950 . S
C639 C638 1.524 . S
C639 C640 1.415 . S
C640 H616 0.950 . S
C640 C635 1.363 . S
C640 C639 1.415 . S
C641 H617 0.951 . S
C641 C642 1.366 . S
C641 C643 1.388 . S
C642 C641 1.366 . S
C642 C646 1.384 1_556 S
C643 H618 0.951 . S
C643 C641 1.388 . S
C643 C644 1.366 . S
C644 C643 1.366 . S
C644 C645 1.414 . S
C644 C647 1.499 . S
C645 H619 0.950 . S
C645 C644 1.414 . S
C645 C646 1.374 1_556 S
C646 H620 0.950 . S
C646 C642 1.384 1_554 S
C646 C645 1.374 1_554 S
C647 C644 1.499 . S
C647 C648 1.373 . S
C647 C649 1.389 . S
C648 H621 0.950 . S
C648 C634 1.377 . S
C648 C647 1.373 . S
C649 C633 1.377 . S
C649 C647 1.389 . S
C649 C650 1.524 1_556 S
C650 C649 1.524 1_554 S
C650 C651 1.397 . S
C650 C655 1.363 . S
C651 H622 0.950 . S
C651 C650 1.397 . S
C651 C652 1.334 . S
C652 H623 0.950 . S
C652 C651 1.334 . S
C652 C653 1.287 . S
C653 C652 1.287 . S
C653 C654 1.524 . S
C653 H656 0.999 . S
C654 H624 0.950 . S
C654 C653 1.524 . S
C654 C655 1.415 . S
C655 H625 0.950 1_554 S
C655 C650 1.363 . S
C655 C654 1.415 . S
H656 C653 0.999 . S
H657 C638 0.913 . S
H658 C676 0.951 . S
H659 C678 0.951 . S
H660 C680 0.950 . S
H661 C681 0.950 . S
H662 C683 0.950 . S
H663 C686 0.950 . S
H664 C687 0.950 . S
H665 C689 0.950 . S
H666 C690 0.950 . S
H667 C691 0.951 . S
H668 C693 0.951 . S
H669 C695 0.950 . S
H670 C696 0.950 . S
H671 C698 0.950 . S
H672 C701 0.950 . S
H673 C702 0.950 . S
H674 C704 0.950 . S
H675 C705 0.950 . S
C676 H658 0.951 . S
C676 C677 1.366 . S
C676 C678 1.388 . S
C677 C676 1.366 . S
C677 C681 1.385 . S
C678 H659 0.951 . S
C678 C676 1.388 . S
C678 C679 1.366 . S
C679 C678 1.366 . S
C679 C680 1.414 . S
C679 C682 1.499 . S
C680 H660 0.950 . S
C680 C679 1.414 . S
C680 C681 1.374 . S
C681 H661 0.950 . S
C681 C677 1.385 . S
C681 C680 1.374 . S
C682 C679 1.499 . S
C682 C683 1.373 . S
C682 C684 1.389 . S
C683 H662 0.950 . S
C683 C682 1.373 . S
C683 C699 1.377 . S
C684 C682 1.389 . S
C684 C685 1.524 . S
C684 C698 1.377 . S
C685 C684 1.524 . S
C685 C686 1.397 . S
C685 C690 1.363 . S
C686 H663 0.950 . S
C686 C685 1.397 . S
C686 C687 1.334 . S
C687 H664 0.950 . S
C687 C686 1.334 . S
C687 C688 1.287 . S
C688 C687 1.287 . S
C688 C689 1.524 . S
C688 H707 0.913 . S
C689 H665 0.950 . S
C689 C688 1.524 . S
C689 C690 1.415 . S
C690 H666 0.950 . S
C690 C685 1.363 . S
C690 C689 1.415 . S
C691 H667 0.951 . S
C691 C692 1.366 . S
C691 C693 1.388 . S
C692 C691 1.366 . S
C692 C696 1.385 . S
C693 H668 0.951 . S
C693 C691 1.388 . S
C693 C694 1.366 . S
C694 C693 1.366 . S
C694 C695 1.414 . S
C694 C697 1.499 . S
C695 H669 0.950 . S
C695 C694 1.414 . S
C695 C696 1.374 . S
C696 H670 0.950 . S
C696 C692 1.385 . S
C696 C695 1.374 . S
C697 C694 1.499 . S
C697 C698 1.373 . S
C697 C699 1.389 . S
C698 H671 0.950 . S
C698 C684 1.377 . S
C698 C697 1.373 . S
C699 C683 1.377 . S
C699 C697 1.389 . S
C699 C700 1.524 . S
C700 C699 1.524 . S
C700 C701 1.397 . S
C700 C705 1.363 . S
C701 H672 0.950 . S
C701 C700 1.397 . S
C701 C702 1.334 . S
C702 H673 0.950 . S
C702 C701 1.334 . S
C702 C703 1.287 . S
C703 C702 1.287 . S
C703 C704 1.524 . S
C703 H706 0.999 . S
C704 H674 0.950 . S
C704 C703 1.524 . S
C704 C705 1.415 . S
C705 H675 0.950 . S
C705 C700 1.363 . S
C705 C704 1.415 . S
H706 C703 0.999 . S
H707 C688 0.913 . S
H708 C726 0.951 . S
H709 C728 0.951 . S
H710 C730 0.950 . S
H711 C731 0.950 . S
H712 C733 0.950 . S
H713 C736 0.950 . S
H714 C737 0.950 . S
H715 C739 0.950 . S
H716 C740 0.950 . S
H717 C741 0.951 . S
H718 C743 0.951 . S
H719 C745 0.950 . S
H720 C746 0.950 . S
H721 C748 0.950 . S
H722 C751 0.950 . S
H723 C752 0.950 . S
H724 C754 0.950 . S
H725 C755 0.950 . S
C726 H708 0.951 . S
C726 C727 1.366 . S
C726 C728 1.388 . S
C727 C726 1.366 . S
C727 C731 1.385 . S
C728 H709 0.951 . S
C728 C726 1.388 . S
C728 C729 1.366 . S
C729 C728 1.366 . S
C729 C730 1.414 . S
C729 C732 1.499 . S
C730 H710 0.950 . S
C730 C729 1.414 . S
C730 C731 1.374 . S
C731 H711 0.950 . S
C731 C727 1.385 . S
C731 C730 1.374 . S
C732 C729 1.499 . S
C732 C733 1.373 . S
C732 C734 1.389 . S
C733 H712 0.950 . S
C733 C732 1.373 . S
C733 C749 1.377 . S
C734 C732 1.389 . S
C734 C735 1.524 . S
C734 C748 1.377 . S
C735 C734 1.524 . S
C735 C736 1.397 . S
C735 C740 1.363 . S
C736 H713 0.950 . S
C736 C735 1.397 . S
C736 C737 1.334 . S
C737 H714 0.950 . S
C737 C736 1.334 . S
C737 C738 1.287 . S
C738 C737 1.287 . S
C738 C739 1.524 . S
C738 H757 0.913 . S
C739 H715 0.950 . S
C739 C738 1.524 . S
C739 C740 1.415 . S
C740 H716 0.950 . S
C740 C735 1.363 . S
C740 C739 1.415 . S
C741 H717 0.951 . S
C741 C742 1.366 . S
C741 C743 1.388 . S
C742 C741 1.366 . S
C742 C746 1.385 . S
C743 H718 0.951 . S
C743 C741 1.388 . S
C743 C744 1.366 . S
C744 C743 1.366 . S
C744 C745 1.414 . S
C744 C747 1.499 . S
C745 H719 0.950 . S
C745 C744 1.414 . S
C745 C746 1.374 . S
C746 H720 0.950 . S
C746 C742 1.385 . S
C746 C745 1.374 . S
C747 C744 1.499 . S
C747 C748 1.373 . S
C747 C749 1.389 . S
C748 H721 0.950 . S
C748 C734 1.377 . S
C748 C747 1.373 . S
C749 C733 1.377 . S
C749 C747 1.389 . S
C749 C750 1.524 . S
C750 C749 1.524 . S
C750 C751 1.397 . S
C750 C755 1.363 . S
C751 H722 0.950 . S
C751 C750 1.397 . S
C751 C752 1.334 . S
C752 H723 0.950 . S
C752 C751 1.334 . S
C752 C753 1.287 . S
C753 C752 1.287 . S
C753 C754 1.524 . S
C753 H756 0.999 . S
C754 H724 0.950 . S
C754 C753 1.524 . S
C754 C755 1.415 . S
C755 H725 0.950 . S
C755 C750 1.363 . S
C755 C754 1.415 . S
H756 C753 0.999 . S
H757 C738 0.913 . S
H758 C776 0.951 . S
H759 C778 0.951 . S
H760 C780 0.950 . S
H761 C781 0.950 . S
H762 C783 0.950 . S
H763 C786 0.950 . S
H764 C787 0.950 . S
H765 C789 0.950 . S
H766 C790 0.950 . S
H767 C791 0.951 . S
H768 C793 0.951 . S
H769 C795 0.950 . S
H770 C796 0.950 . S
H771 C798 0.950 . S
H772 C801 0.950 . S
H773 C802 0.950 . S
H774 C804 0.950 . S
H775 C805 0.950 . S
C776 H758 0.951 . S
C776 C777 1.366 . S
C776 C778 1.388 . S
C777 C776 1.366 . S
C777 C781 1.385 . S
C778 H759 0.951 . S
C778 C776 1.388 . S
C778 C779 1.366 . S
C779 C778 1.366 . S
C779 C780 1.414 . S
C779 C782 1.499 . S
C780 H760 0.950 . S
C780 C779 1.414 . S
C780 C781 1.374 . S
C781 H761 0.950 . S
C781 C777 1.385 . S
C781 C780 1.374 . S
C782 C779 1.499 . S
C782 C783 1.373 . S
C782 C784 1.389 . S
C783 H762 0.950 . S
C783 C782 1.373 . S
C783 C799 1.377 . S
C784 C782 1.389 . S
C784 C785 1.524 . S
C784 C798 1.377 . S
C785 C784 1.524 . S
C785 C786 1.397 . S
C785 C790 1.363 . S
C786 H763 0.950 . S
C786 C785 1.397 . S
C786 C787 1.334 . S
C787 H764 0.950 . S
C787 C786 1.334 . S
C787 C788 1.287 . S
C788 C787 1.287 . S
C788 C789 1.524 . S
C788 H807 0.913 . S
C789 H765 0.950 . S
C789 C788 1.524 . S
C789 C790 1.415 . S
C790 H766 0.950 . S
C790 C785 1.363 . S
C790 C789 1.415 . S
C791 H767 0.951 . S
C791 C792 1.366 . S
C791 C793 1.388 . S
C792 C791 1.366 . S
C792 C796 1.385 . S
C793 H768 0.951 . S
C793 C791 1.388 . S
C793 C794 1.366 . S
C794 C793 1.366 . S
C794 C795 1.414 . S
C794 C797 1.499 . S
C795 H769 0.950 . S
C795 C794 1.414 . S
C795 C796 1.374 . S
C796 H770 0.950 . S
C796 C792 1.385 . S
C796 C795 1.374 . S
C797 C794 1.499 . S
C797 C798 1.373 . S
C797 C799 1.389 . S
C798 H771 0.950 . S
C798 C784 1.377 . S
C798 C797 1.373 . S
C799 C783 1.377 . S
C799 C797 1.389 . S
C799 C800 1.524 . S
C800 C799 1.524 . S
C800 C801 1.397 . S
C800 C805 1.363 . S
C801 H772 0.950 . S
C801 C800 1.397 . S
C801 C802 1.334 . S
C802 H773 0.950 . S
C802 C801 1.334 . S
C802 C803 1.287 . S
C803 C802 1.287 . S
C803 C804 1.524 . S
C803 H806 0.999 . S
C804 H774 0.950 . S
C804 C803 1.524 . S
C804 C805 1.415 . S
C805 H775 0.950 . S
C805 C800 1.363 . S
C805 C804 1.415 . S
H806 C803 0.999 . S
H807 C788 0.913 . S
H808 C826 0.951 . S
H809 C828 0.951 . S
H810 C830 0.950 . S
H811 C831 0.928 1_455 S
H812 C833 0.950 . S
H813 C836 0.950 . S
H814 C837 0.949 . S
H815 C839 0.950 . S
H816 C840 0.950 . S
H817 C841 0.951 . S
H818 C843 0.951 . S
H819 C845 0.950 . S
H820 C846 0.950 . S
H821 C848 0.950 . S
H822 C851 0.950 . S
H823 C852 0.950 . S
H824 C854 0.950 . S
H825 C855 0.950 . S
C826 H808 0.951 . S
C826 C827 1.366 . S
C826 C828 1.388 . S
C827 C826 1.366 . S
C827 C831 1.385 . S
C828 H809 0.951 . S
C828 C826 1.388 . S
C828 C829 1.366 . S
C829 C828 1.366 . S
C829 C830 1.414 . S
C829 C832 1.499 . S
C830 H810 0.950 . S
C830 C829 1.414 . S
C830 C831 1.374 . S
C831 H811 0.928 1_655 S
C831 C827 1.385 . S
C831 C830 1.374 . S
C832 C829 1.499 . S
C832 C833 1.373 . S
C832 C834 1.389 . S
C833 H812 0.950 . S
C833 C832 1.373 . S
C833 C849 1.377 . S
C834 C832 1.389 . S
C834 C835 1.524 . S
C834 C848 1.377 . S
C835 C834 1.524 . S
C835 C836 1.397 . S
C835 C840 1.363 . S
C836 H813 0.950 . S
C836 C835 1.397 . S
C836 C837 1.334 . S
C837 H814 0.949 . S
C837 C836 1.334 . S
C837 C838 1.287 . S
C838 C837 1.287 . S
C838 C839 1.524 . S
C838 H857 0.913 . S
C839 H815 0.950 . S
C839 C838 1.524 . S
C839 C840 1.415 . S
C840 H816 0.950 . S
C840 C835 1.363 . S
C840 C839 1.415 . S
C841 H817 0.951 . S
C841 C842 1.366 . S
C841 C843 1.388 . S
C842 C841 1.366 . S
C842 C846 1.385 . S
C843 H818 0.951 . S
C843 C841 1.388 . S
C843 C844 1.366 . S
C844 C843 1.366 . S
C844 C845 1.414 . S
C844 C847 1.499 . S
C845 H819 0.950 . S
C845 C844 1.414 . S
C845 C846 1.374 . S
C846 H820 0.950 . S
C846 C842 1.385 . S
C846 C845 1.374 . S
C847 C844 1.499 . S
C847 C848 1.373 . S
C847 C849 1.389 . S
C848 H821 0.950 . S
C848 C834 1.377 . S
C848 C847 1.373 . S
C849 C833 1.377 . S
C849 C847 1.389 . S
C849 C850 1.524 . S
C850 C849 1.524 . S
C850 C851 1.397 . S
C850 C855 1.363 . S
C851 H822 0.950 . S
C851 C850 1.397 . S
C851 C852 1.334 . S
C852 H823 0.950 . S
C852 C851 1.334 . S
C852 C853 1.287 . S
C853 C852 1.287 . S
C853 C854 1.524 . S
C853 H856 0.999 . S
C854 H824 0.950 . S
C854 C853 1.524 . S
C854 C855 1.415 . S
C855 H825 0.950 . S
C855 C850 1.363 . S
C855 C854 1.415 . S
H856 C853 0.999 . S
H857 C838 0.913 . S
H858 C876 0.951 . S
H859 C878 0.951 . S
H860 C880 0.950 . S
H861 C881 0.950 . S
H862 C883 0.950 . S
H863 C886 0.950 . S
H864 C887 0.950 . S
H865 C889 0.950 . S
H866 C890 0.950 . S
H867 C891 0.951 . S
H868 C893 0.951 . S
H869 C895 0.950 . S
H870 C896 0.950 . S
H871 C898 0.950 . S
H872 C901 0.950 . S
H873 C902 0.950 . S
H874 C904 0.950 . S
H875 C905 0.950 . S
C876 H858 0.951 . S
C876 C877 1.366 . S
C876 C878 1.388 . S
C877 C876 1.366 . S
C877 C881 1.385 . S
C878 H859 0.951 . S
C878 C876 1.388 . S
C878 C879 1.366 . S
C879 C878 1.366 . S
C879 C880 1.414 . S
C879 C882 1.499 . S
C880 H860 0.950 . S
C880 C879 1.414 . S
C880 C881 1.374 . S
C881 H861 0.950 . S
C881 C877 1.385 . S
C881 C880 1.374 . S
C882 C879 1.499 . S
C882 C883 1.373 . S
C882 C884 1.389 . S
C883 H862 0.950 . S
C883 C882 1.373 . S
C883 C899 1.377 . S
C884 C882 1.389 . S
C884 C885 1.524 . S
C884 C898 1.377 . S
C885 C884 1.524 . S
C885 C886 1.397 1_556 S
C885 C890 1.363 . S
C886 H863 0.950 . S
C886 C885 1.397 1_554 S
C886 C887 1.334 . S
C887 H864 0.950 . S
C887 C886 1.334 . S
C887 C888 1.287 . S
C888 C887 1.287 . S
C888 C889 1.524 1_554 S
C888 H907 0.913 . S
C889 H865 0.950 . S
C889 C888 1.524 1_556 S
C889 C890 1.415 . S
C890 H866 0.950 . S
C890 C885 1.363 . S
C890 C889 1.415 . S
C891 H867 0.951 . S
C891 C892 1.366 1_554 S
C891 C893 1.388 1_554 S
C892 C891 1.366 1_556 S
C892 C896 1.385 . S
C893 H868 0.951 . S
C893 C891 1.388 1_556 S
C893 C894 1.366 . S
C894 C893 1.366 . S
C894 C895 1.414 . S
C894 C897 1.499 . S
C895 H869 0.950 . S
C895 C894 1.414 . S
C895 C896 1.374 . S
C896 H870 0.950 . S
C896 C892 1.385 . S
C896 C895 1.374 . S
C897 C894 1.499 . S
C897 C898 1.373 . S
C897 C899 1.389 . S
C898 H871 0.950 . S
C898 C884 1.377 . S
C898 C897 1.373 . S
C899 C883 1.377 . S
C899 C897 1.389 . S
C899 C900 1.524 . S
C900 C899 1.524 . S
C900 C901 1.397 . S
C900 C905 1.363 . S
C901 H872 0.950 . S
C901 C900 1.397 . S
C901 C902 1.334 . S
C902 H873 0.950 . S
C902 C901 1.334 . S
C902 C903 1.287 . S
C903 C902 1.287 . S
C903 C904 1.524 . S
C903 H906 0.999 . S
C904 H874 0.950 . S
C904 C903 1.524 . S
C904 C905 1.415 . S
C905 H875 0.950 . S
C905 C900 1.363 . S
C905 C904 1.415 . S
H906 C903 0.999 . S
H907 C888 0.913 . S
H908 C926 0.951 . S
H909 C928 0.951 . S
H910 C930 0.950 . S
H911 C931 0.950 . S
H912 C933 0.950 . S
H913 C936 0.950 . S
H914 C937 0.950 . S
H915 C939 0.950 . S
H916 C940 0.950 . S
H917 C941 0.951 . S
H918 C943 0.951 . S
H919 C945 0.950 . S
H920 C946 0.950 . S
H921 C948 0.950 . S
H922 C951 0.950 . S
H923 C952 0.950 . S
H924 C954 0.950 . S
H925 C955 0.950 . S
C926 H908 0.951 . S
C926 C927 1.366 . S
C926 C928 1.388 . S
C927 C926 1.366 . S
C927 C931 1.385 . S
C928 H909 0.951 . S
C928 C926 1.388 . S
C928 C929 1.366 . S
C929 C928 1.366 . S
C929 C930 1.414 . S
C929 C932 1.499 . S
C930 H910 0.950 . S
C930 C929 1.414 . S
C930 C931 1.374 . S
C931 H911 0.950 . S
C931 C927 1.385 . S
C931 C930 1.374 . S
C932 C929 1.499 . S
C932 C933 1.373 . S
C932 C934 1.389 . S
C933 H912 0.950 . S
C933 C932 1.373 . S
C933 C949 1.377 . S
C934 C932 1.389 . S
C934 C935 1.524 . S
C934 C948 1.377 . S
C935 C934 1.524 . S
C935 C936 1.397 . S
C935 C940 1.363 . S
C936 H913 0.950 . S
C936 C935 1.397 . S
C936 C937 1.334 . S
C937 H914 0.950 . S
C937 C936 1.334 . S
C937 C938 1.287 . S
C938 C937 1.287 . S
C938 C939 1.524 . S
C938 H957 0.913 . S
C939 H915 0.950 . S
C939 C938 1.524 . S
C939 C940 1.415 . S
C940 H916 0.950 . S
C940 C935 1.363 . S
C940 C939 1.415 . S
C941 H917 0.951 . S
C941 C942 1.366 . S
C941 C943 1.388 . S
C942 C941 1.366 . S
C942 C946 1.385 . S
C943 H918 0.951 . S
C943 C941 1.388 . S
C943 C944 1.366 . S
C944 C943 1.366 . S
C944 C945 1.414 . S
C944 C947 1.499 . S
C945 H919 0.950 . S
C945 C944 1.414 . S
C945 C946 1.374 . S
C946 H920 0.950 . S
C946 C942 1.385 . S
C946 C945 1.374 . S
C947 C944 1.499 . S
C947 C948 1.373 . S
C947 C949 1.389 . S
C948 H921 0.950 . S
C948 C934 1.377 . S
C948 C947 1.373 . S
C949 C933 1.377 . S
C949 C947 1.389 . S
C949 C950 1.524 . S
C950 C949 1.524 . S
C950 C951 1.397 . S
C950 C955 1.363 . S
C951 H922 0.950 . S
C951 C950 1.397 . S
C951 C952 1.334 . S
C952 H923 0.950 . S
C952 C951 1.334 . S
C952 C953 1.287 . S
C953 C952 1.287 . S
C953 C954 1.524 . S
C953 H956 0.999 . S
C954 H924 0.950 . S
C954 C953 1.524 . S
C954 C955 1.415 . S
C955 H925 0.950 . S
C955 C950 1.363 . S
C955 C954 1.415 . S
H956 C953 0.999 . S
H957 C938 0.913 . S
H958 C976 0.951 . S
H959 C978 0.951 . S
H960 C980 0.950 . S
H961 C981 0.950 . S
H962 C983 0.950 . S
H963 C986 0.950 . S
H964 C987 0.950 . S
H965 C989 0.950 . S
H966 C990 0.950 . S
H967 C991 0.951 . S
H968 C993 0.951 . S
H969 C995 0.950 . S
H970 C996 0.950 . S
H971 C998 0.950 . S
H972 C1001 0.950 . S
H973 C1002 0.950 . S
H974 C1004 0.950 . S
H975 C1005 0.950 . S
C976 H958 0.951 . S
C976 C977 1.366 . S
C976 C978 1.388 . S
C977 C976 1.366 . S
C977 C981 1.385 . S
C978 H959 0.951 . S
C978 C976 1.388 . S
C978 C979 1.366 . S
C979 C978 1.366 . S
C979 C980 1.414 . S
C979 C982 1.499 . S
C980 H960 0.950 . S
C980 C979 1.414 . S
C980 C981 1.374 . S
C981 H961 0.950 . S
C981 C977 1.385 . S
C981 C980 1.374 . S
C982 C979 1.499 . S
C982 C983 1.373 . S
C982 C984 1.389 . S
C983 H962 0.950 . S
C983 C982 1.373 . S
C983 C999 1.377 . S
C984 C982 1.389 . S
C984 C985 1.524 . S
C984 C998 1.377 . S
C985 C984 1.524 . S
C985 C986 1.397 . S
C985 C990 1.363 . S
C986 H963 0.950 . S
C986 C985 1.397 . S
C986 C987 1.334 . S
C987 H964 0.950 . S
C987 C986 1.334 . S
C987 C988 1.287 . S
C988 C987 1.287 . S
C988 C989 1.524 . S
C988 H1007 0.913 . S
C989 H965 0.950 . S
C989 C988 1.524 . S
C989 C990 1.415 . S
C990 H966 0.950 . S
C990 C985 1.363 . S
C990 C989 1.415 . S
C991 H967 0.951 . S
C991 C992 1.366 . S
C991 C993 1.388 . S
C992 C991 1.366 . S
C992 C996 1.385 . S
C993 H968 0.951 . S
C993 C991 1.388 . S
C993 C994 1.366 . S
C994 C993 1.366 . S
C994 C995 1.414 . S
C994 C997 1.499 . S
C995 H969 0.950 . S
C995 C994 1.414 . S
C995 C996 1.374 . S
C996 H970 0.950 . S
C996 C992 1.385 . S
C996 C995 1.374 . S
C997 C994 1.499 . S
C997 C998 1.373 . S
C997 C999 1.389 . S
C998 H971 0.950 . S
C998 C984 1.377 . S
C998 C997 1.373 . S
C999 C983 1.377 . S
C999 C997 1.389 . S
C999 C1000 1.524 . S
C1000 C999 1.524 . S
C1000 C1001 1.397 . S
C1000 C1005 1.363 . S
C1001 H972 0.950 . S
C1001 C1000 1.397 . S
C1001 C1002 1.334 . S
C1002 H973 0.950 . S
C1002 C1001 1.334 . S
C1002 C1003 1.287 . S
C1003 C1002 1.287 . S
C1003 C1004 1.524 . S
C1003 H1006 0.999 . S
C1004 H974 0.950 . S
C1004 C1003 1.524 . S
C1004 C1005 1.415 . S
C1005 H975 0.950 . S
C1005 C1000 1.363 . S
C1005 C1004 1.415 . S
H1006 C1003 0.999 . S
H1007 C988 0.913 . S
H1008 C1026 0.951 . S
H1009 C1028 0.951 . S
H1010 C1030 0.950 . S
H1011 C1031 0.950 . S
H1012 C1033 0.950 . S
H1013 C1036 0.950 . S
H1014 C1037 0.950 . S
H1015 C1039 0.950 . S
H1016 C1040 0.950 . S
H1017 C1041 0.951 . S
H1018 C1043 0.951 . S
H1019 C1045 0.950 . S
H1020 C1046 0.950 . S
H1021 C1048 0.950 . S
H1022 C1051 0.945 1_655 S
H1023 C1052 0.950 . S
H1024 C1054 0.950 . S
H1025 C1055 0.950 . S
C1026 H1008 0.951 . S
C1026 C1027 1.366 . S
C1026 C1028 1.388 . S
C1027 C1026 1.366 . S
C1027 C1031 1.385 . S
C1028 H1009 0.951 . S
C1028 C1026 1.388 . S
C1028 C1029 1.366 . S
C1029 C1028 1.366 . S
C1029 C1030 1.414 . S
C1029 C1032 1.499 . S
C1030 H1010 0.950 . S
C1030 C1029 1.414 . S
C1030 C1031 1.374 . S
C1031 H1011 0.950 . S
C1031 C1027 1.385 . S
C1031 C1030 1.374 . S
C1032 C1029 1.499 . S
C1032 C1033 1.373 . S
C1032 C1034 1.389 . S
C1033 H1012 0.950 . S
C1033 C1032 1.373 . S
C1033 C1049 1.377 . S
C1034 C1032 1.389 . S
C1034 C1035 1.524 . S
C1034 C1048 1.377 . S
C1035 C1034 1.524 . S
C1035 C1036 1.397 . S
C1035 C1040 1.363 . S
C1036 H1013 0.950 . S
C1036 C1035 1.397 . S
C1036 C1037 1.334 . S
C1037 H1014 0.950 . S
C1037 C1036 1.334 . S
C1037 C1038 1.287 . S
C1038 C1037 1.287 . S
C1038 C1039 1.524 . S
C1038 H1057 0.913 . S
C1039 H1015 0.950 . S
C1039 C1038 1.524 . S
C1039 C1040 1.415 . S
C1040 H1016 0.950 . S
C1040 C1035 1.363 . S
C1040 C1039 1.415 . S
C1041 H1017 0.951 . S
C1041 C1042 1.366 . S
C1041 C1043 1.388 . S
C1042 C1041 1.366 . S
C1042 C1046 1.385 . S
C1043 H1018 0.951 . S
C1043 C1041 1.388 . S
C1043 C1044 1.366 . S
C1044 C1043 1.366 . S
C1044 C1045 1.414 1_556 S
C1044 C1047 1.499 1_556 S
C1045 H1019 0.950 . S
C1045 C1044 1.414 1_554 S
C1045 C1046 1.374 1_554 S
C1046 H1020 0.950 . S
C1046 C1042 1.385 . S
C1046 C1045 1.374 1_556 S
C1047 C1044 1.499 1_554 S
C1047 C1048 1.373 . S
C1047 C1049 1.389 . S
C1048 H1021 0.950 . S
C1048 C1034 1.377 . S
C1048 C1047 1.373 . S
C1049 C1033 1.377 . S
C1049 C1047 1.389 . S
C1049 C1050 1.524 1_554 S
C1050 C1049 1.524 1_556 S
C1050 C1051 1.397 . S
C1050 C1055 1.363 . S
C1051 H1022 0.945 1_455 S
C1051 C1050 1.397 . S
C1051 C1052 1.334 1_455 S
C1052 H1023 0.950 . S
C1052 C1051 1.334 1_655 S
C1052 C1053 1.287 1_655 S
C1053 C1052 1.287 1_455 S
C1053 C1054 1.522 . S
C1053 H1056 1.000 1_455 S
C1054 H1024 0.950 . S
C1054 C1053 1.522 . S
C1054 C1055 1.415 . S
C1055 H1025 0.950 . S
C1055 C1050 1.363 . S
C1055 C1054 1.415 . S
H1056 C1053 1.000 1_655 S
H1057 C1038 0.913 . S
H1058 C1076 0.951 . S
H1059 C1078 0.951 . S
H1060 C1080 0.950 . S
H1061 C1081 0.950 . S
H1062 C1083 0.950 . S
H1063 C1086 0.950 . S
H1064 C1087 0.950 . S
H1065 C1089 0.950 . S
H1066 C1090 0.950 . S
H1067 C1091 0.951 . S
H1068 C1093 0.951 . S
H1069 C1095 0.950 . S
H1070 C1096 0.950 . S
H1071 C1098 0.950 . S
H1072 C1101 0.950 . S
H1073 C1102 0.950 . S
H1074 C1104 0.950 . S
H1075 C1105 0.950 . S
C1076 H1058 0.951 . S
C1076 C1077 1.366 . S
C1076 C1078 1.388 . S
C1077 C1076 1.366 . S
C1077 C1081 1.385 . S
C1078 H1059 0.951 . S
C1078 C1076 1.388 . S
C1078 C1079 1.366 . S
C1079 C1078 1.366 . S
C1079 C1080 1.414 . S
C1079 C1082 1.499 . S
C1080 H1060 0.950 . S
C1080 C1079 1.414 . S
C1080 C1081 1.374 . S
C1081 H1061 0.950 . S
C1081 C1077 1.385 . S
C1081 C1080 1.374 . S
C1082 C1079 1.499 . S
C1082 C1083 1.373 . S
C1082 C1084 1.389 . S
C1083 H1062 0.950 . S
C1083 C1082 1.373 . S
C1083 C1099 1.377 . S
C1084 C1082 1.389 . S
C1084 C1085 1.524 . S
C1084 C1098 1.377 . S
C1085 C1084 1.524 . S
C1085 C1086 1.397 . S
C1085 C1090 1.363 . S
C1086 H1063 0.950 . S
C1086 C1085 1.397 . S
C1086 C1087 1.334 . S
C1087 H1064 0.950 . S
C1087 C1086 1.334 . S
C1087 C1088 1.287 . S
C1088 C1087 1.287 . S
C1088 C1089 1.524 . S
C1088 H1107 0.913 . S
C1089 H1065 0.950 . S
C1089 C1088 1.524 . S
C1089 C1090 1.415 . S
C1090 H1066 0.950 . S
C1090 C1085 1.363 . S
C1090 C1089 1.415 . S
C1091 H1067 0.951 . S
C1091 C1092 1.366 . S
C1091 C1093 1.388 . S
C1092 C1091 1.366 . S
C1092 C1096 1.385 . S
C1093 H1068 0.951 . S
C1093 C1091 1.388 . S
C1093 C1094 1.366 . S
C1094 C1093 1.366 . S
C1094 C1095 1.414 . S
C1094 C1097 1.499 . S
C1095 H1069 0.950 . S
C1095 C1094 1.414 . S
C1095 C1096 1.374 . S
C1096 H1070 0.950 . S
C1096 C1092 1.385 . S
C1096 C1095 1.374 . S
C1097 C1094 1.499 . S
C1097 C1098 1.373 . S
C1097 C1099 1.389 . S
C1098 H1071 0.950 . S
C1098 C1084 1.377 . S
C1098 C1097 1.373 . S
C1099 C1083 1.377 . S
C1099 C1097 1.389 . S
C1099 C1100 1.524 . S
C1100 C1099 1.524 . S
C1100 C1101 1.397 . S
C1100 C1105 1.363 . S
C1101 H1072 0.950 . S
C1101 C1100 1.397 . S
C1101 C1102 1.334 . S
C1102 H1073 0.950 . S
C1102 C1101 1.334 . S
C1102 C1103 1.287 . S
C1103 C1102 1.287 . S
C1103 C1104 1.524 . S
C1103 H1106 0.999 . S
C1104 H1074 0.950 . S
C1104 C1103 1.524 . S
C1104 C1105 1.415 . S
C1105 H1075 0.950 . S
C1105 C1100 1.363 . S
C1105 C1104 1.415 . S
H1106 C1103 0.999 . S
H1107 C1088 0.913 . S
H1108 C1126 0.951 . S
H1109 C1128 0.951 . S
H1110 C1130 0.950 . S
H1111 C1131 0.950 . S
H1112 C1133 0.950 . S
H1113 C1136 0.950 . S
H1114 C1137 0.950 . S
H1115 C1139 0.950 . S
H1116 C1140 0.950 . S
H1117 C1141 0.951 . S
H1118 C1143 0.951 . S
H1119 C1145 0.950 . S
H1120 C1146 0.950 . S
H1121 C1148 0.950 . S
H1122 C1151 0.950 . S
H1123 C1152 0.950 . S
H1124 C1154 0.950 . S
H1125 C1155 0.950 . S
C1126 H1108 0.951 . S
C1126 C1127 1.366 . S
C1126 C1128 1.388 . S
C1127 C1126 1.366 . S
C1127 C1131 1.385 . S
C1128 H1109 0.951 . S
C1128 C1126 1.388 . S
C1128 C1129 1.366 . S
C1129 C1128 1.366 . S
C1129 C1130 1.414 . S
C1129 C1132 1.499 . S
C1130 H1110 0.950 . S
C1130 C1129 1.414 . S
C1130 C1131 1.374 . S
C1131 H1111 0.950 . S
C1131 C1127 1.385 . S
C1131 C1130 1.374 . S
C1132 C1129 1.499 . S
C1132 C1133 1.373 . S
C1132 C1134 1.389 . S
C1133 H1112 0.950 . S
C1133 C1132 1.373 . S
C1133 C1149 1.377 . S
C1134 C1132 1.389 . S
C1134 C1135 1.524 . S
C1134 C1148 1.377 . S
C1135 C1134 1.524 . S
C1135 C1136 1.397 . S
C1135 C1140 1.363 . S
C1136 H1113 0.950 . S
C1136 C1135 1.397 . S
C1136 C1137 1.334 . S
C1137 H1114 0.950 . S
C1137 C1136 1.334 . S
C1137 C1138 1.287 . S
C1138 C1137 1.287 . S
C1138 C1139 1.524 . S
C1138 H1157 0.913 . S
C1139 H1115 0.950 . S
C1139 C1138 1.524 . S
C1139 C1140 1.415 . S
C1140 H1116 0.950 . S
C1140 C1135 1.363 . S
C1140 C1139 1.415 . S
C1141 H1117 0.951 . S
C1141 C1142 1.366 . S
C1141 C1143 1.388 . S
C1142 C1141 1.366 . S
C1142 C1146 1.385 . S
C1143 H1118 0.951 . S
C1143 C1141 1.388 . S
C1143 C1144 1.366 . S
C1144 C1143 1.366 . S
C1144 C1145 1.414 . S
C1144 C1147 1.499 . S
C1145 H1119 0.950 . S
C1145 C1144 1.414 . S
C1145 C1146 1.374 . S
C1146 H1120 0.950 . S
C1146 C1142 1.385 . S
C1146 C1145 1.374 . S
C1147 C1144 1.499 . S
C1147 C1148 1.373 . S
C1147 C1149 1.389 . S
C1148 H1121 0.950 . S
C1148 C1134 1.377 . S
C1148 C1147 1.373 . S
C1149 C1133 1.377 . S
C1149 C1147 1.389 . S
C1149 C1150 1.524 . S
C1150 C1149 1.524 . S
C1150 C1151 1.397 . S
C1150 C1155 1.363 . S
C1151 H1122 0.950 . S
C1151 C1150 1.397 . S
C1151 C1152 1.334 . S
C1152 H1123 0.950 . S
C1152 C1151 1.334 . S
C1152 C1153 1.287 . S
C1153 C1152 1.287 . S
C1153 C1154 1.524 . S
C1153 H1156 0.999 . S
C1154 H1124 0.950 . S
C1154 C1153 1.524 . S
C1154 C1155 1.415 . S
C1155 H1125 0.950 . S
C1155 C1150 1.363 . S
C1155 C1154 1.415 . S
H1156 C1153 0.999 . S
H1157 C1138 0.913 . S
H1158 C1176 0.951 1_554 S
H1159 C1178 0.951 . S
H1160 C1180 0.950 . S
H1161 C1181 0.950 . S
H1162 C1183 0.950 . S
H1163 C1186 0.950 . S
H1164 C1187 0.950 . S
H1165 C1189 0.950 . S
H1166 C1190 0.950 . S
H1167 C1191 0.951 . S
H1168 C1193 0.951 . S
H1169 C1195 0.950 . S
H1170 C1196 0.950 . S
H1171 C1198 0.950 . S
H1172 C1201 0.950 . S
H1173 C1202 0.950 . S
H1174 C1204 0.950 . S
H1175 C1205 0.950 . S
C1176 H1158 0.951 1_556 S
C1176 C1177 1.366 . S
C1176 C1178 1.388 . S
C1177 C1176 1.366 . S
C1177 C1181 1.385 . S
C1178 H1159 0.951 . S
C1178 C1176 1.388 . S
C1178 C1179 1.366 . S
C1179 C1178 1.366 . S
C1179 C1180 1.414 . S
C1179 C1182 1.499 . S
C1180 H1160 0.950 . S
C1180 C1179 1.414 . S
C1180 C1181 1.374 . S
C1181 H1161 0.950 . S
C1181 C1177 1.385 . S
C1181 C1180 1.374 . S
C1182 C1179 1.499 . S
C1182 C1183 1.373 . S
C1182 C1184 1.389 . S
C1183 H1162 0.950 . S
C1183 C1182 1.373 . S
C1183 C1199 1.377 . S
C1184 C1182 1.389 . S
C1184 C1185 1.524 . S
C1184 C1198 1.377 . S
C1185 C1184 1.524 . S
C1185 C1186 1.397 . S
C1185 C1190 1.363 . S
C1186 H1163 0.950 . S
C1186 C1185 1.397 . S
C1186 C1187 1.334 . S
C1187 H1164 0.950 . S
C1187 C1186 1.334 . S
C1187 C1188 1.287 . S
C1188 C1187 1.287 . S
C1188 C1189 1.524 . S
C1188 H1207 0.913 . S
C1189 H1165 0.950 . S
C1189 C1188 1.524 . S
C1189 C1190 1.415 . S
C1190 H1166 0.950 . S
C1190 C1185 1.363 . S
C1190 C1189 1.415 . S
C1191 H1167 0.951 . S
C1191 C1192 1.366 . S
C1191 C1193 1.388 . S
C1192 C1191 1.366 . S
C1192 C1196 1.385 . S
C1193 H1168 0.951 . S
C1193 C1191 1.388 . S
C1193 C1194 1.366 . S
C1194 C1193 1.366 . S
C1194 C1195 1.414 . S
C1194 C1197 1.499 . S
C1195 H1169 0.950 . S
C1195 C1194 1.414 . S
C1195 C1196 1.374 . S
C1196 H1170 0.950 . S
C1196 C1192 1.385 . S
C1196 C1195 1.374 . S
C1197 C1194 1.499 . S
C1197 C1198 1.373 . S
C1197 C1199 1.389 . S
C1198 H1171 0.950 . S
C1198 C1184 1.377 . S
C1198 C1197 1.373 . S
C1199 C1183 1.377 . S
C1199 C1197 1.389 . S
C1199 C1200 1.524 . S
C1200 C1199 1.524 . S
C1200 C1201 1.397 . S
C1200 C1205 1.363 . S
C1201 H1172 0.950 . S
C1201 C1200 1.397 . S
C1201 C1202 1.334 . S
C1202 H1173 0.950 . S
C1202 C1201 1.334 . S
C1202 C1203 1.287 . S
C1203 C1202 1.287 . S
C1203 C1204 1.524 . S
C1203 H1206 0.999 . S
C1204 H1174 0.950 . S
C1204 C1203 1.524 . S
C1204 C1205 1.415 . S
C1205 H1175 0.950 . S
C1205 C1200 1.363 . S
C1205 C1204 1.415 . S
H1206 C1203 0.999 . S
H1207 C1188 0.913 . S
H1208 C1226 0.951 . S
H1209 C1228 0.951 . S
H1210 C1230 0.950 . S
H1211 C1231 0.950 1_554 S
H1212 C1233 0.950 . S
H1213 C1236 0.950 . S
H1214 C1237 0.950 . S
H1215 C1239 0.950 . S
H1216 C1240 0.950 . S
H1217 C1241 0.951 . S
H1218 C1243 0.951 . S
H1219 C1245 0.950 . S
H1220 C1246 0.950 . S
H1221 C1248 0.950 . S
H1222 C1251 0.950 . S
H1223 C1252 0.950 . S
H1224 C1254 0.950 . S
H1225 C1255 0.950 . S
C1226 H1208 0.951 . S
C1226 C1227 1.366 . S
C1226 C1228 1.388 . S
C1227 C1226 1.366 . S
C1227 C1231 1.385 . S
C1228 H1209 0.951 . S
C1228 C1226 1.388 . S
C1228 C1229 1.366 . S
C1229 C1228 1.366 . S
C1229 C1230 1.414 . S
C1229 C1232 1.499 . S
C1230 H1210 0.950 . S
C1230 C1229 1.414 . S
C1230 C1231 1.374 . S
C1231 H1211 0.950 1_556 S
C1231 C1227 1.385 . S
C1231 C1230 1.374 . S
C1232 C1229 1.499 . S
C1232 C1233 1.373 . S
C1232 C1234 1.389 . S
C1233 H1212 0.950 . S
C1233 C1232 1.373 . S
C1233 C1249 1.377 . S
C1234 C1232 1.389 . S
C1234 C1235 1.524 . S
C1234 C1248 1.377 . S
C1235 C1234 1.524 . S
C1235 C1236 1.397 . S
C1235 C1240 1.363 . S
C1236 H1213 0.950 . S
C1236 C1235 1.397 . S
C1236 C1237 1.334 . S
C1237 H1214 0.950 . S
C1237 C1236 1.334 . S
C1237 C1238 1.287 . S
C1238 C1237 1.287 . S
C1238 C1239 1.524 . S
C1238 H1257 0.913 . S
C1239 H1215 0.950 . S
C1239 C1238 1.524 . S
C1239 C1240 1.415 . S
C1240 H1216 0.950 . S
C1240 C1235 1.363 . S
C1240 C1239 1.415 . S
C1241 H1217 0.951 . S
C1241 C1242 1.366 . S
C1241 C1243 1.388 . S
C1242 C1241 1.366 . S
C1242 C1246 1.385 . S
C1243 H1218 0.951 . S
C1243 C1241 1.388 . S
C1243 C1244 1.366 . S
C1244 C1243 1.366 . S
C1244 C1245 1.414 . S
C1244 C1247 1.499 . S
C1245 H1219 0.950 . S
C1245 C1244 1.414 . S
C1245 C1246 1.374 . S
C1246 H1220 0.950 . S
C1246 C1242 1.385 . S
C1246 C1245 1.374 . S
C1247 C1244 1.499 . S
C1247 C1248 1.373 . S
C1247 C1249 1.389 . S
C1248 H1221 0.950 . S
C1248 C1234 1.377 . S
C1248 C1247 1.373 . S
C1249 C1233 1.377 . S
C1249 C1247 1.389 . S
C1249 C1250 1.524 . S
C1250 C1249 1.524 . S
C1250 C1251 1.397 . S
C1250 C1255 1.363 . S
C1251 H1222 0.950 . S
C1251 C1250 1.397 . S
C1251 C1252 1.334 . S
C1252 H1223 0.950 . S
C1252 C1251 1.334 . S
C1252 C1253 1.287 . S
C1253 C1252 1.287 . S
C1253 C1254 1.524 . S
C1253 H1256 0.999 . S
C1254 H1224 0.950 . S
C1254 C1253 1.524 . S
C1254 C1255 1.415 . S
C1255 H1225 0.950 . S
C1255 C1250 1.363 . S
C1255 C1254 1.415 . S
H1256 C1253 0.999 . S
H1257 C1238 0.913 . S
H1258 C1276 0.951 . S
H1259 C1278 0.951 . S
H1260 C1280 0.950 . S
H1261 C1281 0.950 . S
H1262 C1283 0.950 . S
H1263 C1286 0.950 . S
H1264 C1287 0.950 . S
H1265 C1289 0.950 . S
H1266 C1290 0.950 . S
H1267 C1291 0.951 . S
H1268 C1293 0.951 . S
H1269 C1295 0.950 . S
H1270 C1296 0.950 . S
H1271 C1298 0.950 . S
H1272 C1301 0.950 . S
H1273 C1302 0.950 . S
H1274 C1304 0.950 . S
H1275 C1305 0.950 . S
C1276 H1258 0.951 . S
C1276 C1277 1.366 . S
C1276 C1278 1.388 . S
C1277 C1276 1.366 . S
C1277 C1281 1.385 . S
C1278 H1259 0.951 . S
C1278 C1276 1.388 . S
C1278 C1279 1.366 . S
C1279 C1278 1.366 . S
C1279 C1280 1.414 . S
C1279 C1282 1.499 . S
C1280 H1260 0.950 . S
C1280 C1279 1.414 . S
C1280 C1281 1.374 . S
C1281 H1261 0.950 . S
C1281 C1277 1.385 . S
C1281 C1280 1.374 . S
C1282 C1279 1.499 . S
C1282 C1283 1.373 . S
C1282 C1284 1.389 . S
C1283 H1262 0.950 . S
C1283 C1282 1.373 . S
C1283 C1299 1.377 . S
C1284 C1282 1.389 . S
C1284 C1285 1.524 . S
C1284 C1298 1.377 . S
C1285 C1284 1.524 . S
C1285 C1286 1.397 . S
C1285 C1290 1.363 . S
C1286 H1263 0.950 . S
C1286 C1285 1.397 . S
C1286 C1287 1.334 . S
C1287 H1264 0.950 . S
C1287 C1286 1.334 . S
C1287 C1288 1.287 . S
C1288 C1287 1.287 . S
C1288 C1289 1.524 . S
C1288 H1307 0.913 . S
C1289 H1265 0.950 . S
C1289 C1288 1.524 . S
C1289 C1290 1.415 . S
C1290 H1266 0.950 . S
C1290 C1285 1.363 . S
C1290 C1289 1.415 . S
C1291 H1267 0.951 . S
C1291 C1292 1.366 . S
C1291 C1293 1.388 . S
C1292 C1291 1.366 . S
C1292 C1296 1.385 . S
C1293 H1268 0.951 . S
C1293 C1291 1.388 . S
C1293 C1294 1.366 . S
C1294 C1293 1.366 . S
C1294 C1295 1.414 . S
C1294 C1297 1.499 . S
C1295 H1269 0.950 . S
C1295 C1294 1.414 . S
C1295 C1296 1.374 . S
C1296 H1270 0.950 . S
C1296 C1292 1.385 . S
C1296 C1295 1.374 . S
C1297 C1294 1.499 . S
C1297 C1298 1.373 . S
C1297 C1299 1.389 . S
C1298 H1271 0.950 . S
C1298 C1284 1.377 . S
C1298 C1297 1.373 . S
C1299 C1283 1.377 . S
C1299 C1297 1.389 . S
C1299 C1300 1.524 . S
C1300 C1299 1.524 . S
C1300 C1301 1.397 . S
C1300 C1305 1.363 . S
C1301 H1272 0.950 . S
C1301 C1300 1.397 . S
C1301 C1302 1.334 . S
C1302 H1273 0.950 . S
C1302 C1301 1.334 . S
C1302 C1303 1.287 . S
C1303 C1302 1.287 . S
C1303 C1304 1.524 . S
C1303 H1306 0.999 . S
C1304 H1274 0.950 . S
C1304 C1303 1.524 . S
C1304 C1305 1.415 . S
C1305 H1275 0.950 . S
C1305 C1300 1.363 . S
C1305 C1304 1.415 . S
H1306 C1303 0.999 . S
H1307 C1288 0.913 . S
H1308 C1326 0.951 . S
H1309 C1328 0.951 . S
H1310 C1330 0.950 . S
H1311 C1331 0.950 . S
H1312 C1333 0.950 . S
H1313 C1336 0.950 1_565 S
H1314 C1337 0.950 . S
H1315 C1339 0.950 . S
H1316 C1340 0.950 . S
H1317 C1341 0.951 . S
H1318 C1343 0.951 . S
H1319 C1345 0.950 . S
H1320 C1346 0.950 . S
H1321 C1348 0.950 . S
H1322 C1351 0.950 1_545 S
H1323 C1352 0.950 . S
H1324 C1354 0.950 . S
H1325 C1355 0.950 . S
C1326 H1308 0.951 . S
C1326 C1327 1.366 . S
C1326 C1328 1.388 . S
C1327 C1326 1.366 . S
C1327 C1331 1.385 . S
C1328 H1309 0.951 . S
C1328 C1326 1.388 . S
C1328 C1329 1.366 . S
C1329 C1328 1.366 . S
C1329 C1330 1.414 . S
C1329 C1332 1.499 . S
C1330 H1310 0.950 . S
C1330 C1329 1.414 . S
C1330 C1331 1.374 . S
C1331 H1311 0.950 . S
C1331 C1327 1.385 . S
C1331 C1330 1.374 . S
C1332 C1329 1.499 . S
C1332 C1333 1.373 . S
C1332 C1334 1.389 1_565 S
C1333 H1312 0.950 . S
C1333 C1332 1.373 . S
C1333 C1349 1.377 . S
C1334 C1332 1.389 1_545 S
C1334 C1335 1.524 . S
C1334 C1348 1.377 . S
C1335 C1334 1.524 . S
C1335 C1336 1.397 . S
C1335 C1340 1.363 . S
C1336 H1313 0.950 1_545 S
C1336 C1335 1.397 . S
C1336 C1337 1.334 . S
C1337 H1314 0.950 . S
C1337 C1336 1.334 . S
C1337 C1338 1.287 . S
C1338 C1337 1.287 . S
C1338 C1339 1.524 . S
C1338 H1357 0.913 . S
C1339 H1315 0.950 . S
C1339 C1338 1.524 . S
C1339 C1340 1.415 . S
C1340 H1316 0.950 . S
C1340 C1335 1.363 . S
C1340 C1339 1.415 . S
C1341 H1317 0.951 . S
C1341 C1342 1.366 . S
C1341 C1343 1.388 . S
C1342 C1341 1.366 . S
C1342 C1346 1.385 . S
C1343 H1318 0.951 . S
C1343 C1341 1.388 . S
C1343 C1344 1.366 . S
C1344 C1343 1.366 . S
C1344 C1345 1.414 . S
C1344 C1347 1.499 . S
C1345 H1319 0.950 . S
C1345 C1344 1.414 . S
C1345 C1346 1.374 . S
C1346 H1320 0.950 . S
C1346 C1342 1.385 . S
C1346 C1345 1.374 . S
C1347 C1344 1.499 . S
C1347 C1348 1.373 . S
C1347 C1349 1.389 1_545 S
C1348 H1321 0.950 . S
C1348 C1334 1.377 . S
C1348 C1347 1.373 . S
C1349 C1333 1.377 . S
C1349 C1347 1.389 1_565 S
C1349 C1350 1.524 . S
C1350 C1349 1.524 . S
C1350 C1351 1.397 . S
C1350 C1355 1.363 . S
C1351 H1322 0.950 1_565 S
C1351 C1350 1.397 . S
C1351 C1352 1.334 . S
C1352 H1323 0.950 . S
C1352 C1351 1.334 . S
C1352 C1353 1.287 . S
C1353 C1352 1.287 . S
C1353 C1354 1.524 . S
C1353 H1356 0.999 . S
C1354 H1324 0.950 . S
C1354 C1353 1.524 . S
C1354 C1355 1.415 . S
C1355 H1325 0.950 . S
C1355 C1350 1.363 . S
C1355 C1354 1.415 . S
H1356 C1353 0.999 . S
H1357 C1338 0.913 . S
H1358 C1376 0.951 . S
H1359 C1378 0.951 . S
H1360 C1380 0.950 . S
H1361 C1381 0.950 . S
H1362 C1383 0.950 . S
H1363 C1386 0.950 . S
H1364 C1387 0.950 . S
H1365 C1389 0.950 . S
H1366 C1390 0.950 . S
H1367 C1391 0.951 . S
H1368 C1393 0.951 . S
H1369 C1395 0.950 . S
H1370 C1396 0.950 . S
H1371 C1398 0.950 . S
H1372 C1401 0.950 . S
H1373 C1402 0.950 . S
H1374 C1404 0.950 . S
H1375 C1405 0.950 . S
C1376 H1358 0.951 . S
C1376 C1377 1.366 . S
C1376 C1378 1.388 . S
C1377 C1376 1.366 . S
C1377 C1381 1.385 . S
C1378 H1359 0.951 . S
C1378 C1376 1.388 . S
C1378 C1379 1.386 . S
C1379 C1378 1.386 . S
C1379 C1380 1.410 1_556 S
C1379 C1382 1.483 1_556 S
C1380 H1360 0.950 . S
C1380 C1379 1.410 1_554 S
C1380 C1381 1.374 1_554 S
C1381 H1361 0.950 . S
C1381 C1377 1.385 . S
C1381 C1380 1.374 1_556 S
C1382 C1379 1.483 1_554 S
C1382 C1383 1.373 . S
C1382 C1384 1.389 . S
C1383 H1362 0.950 . S
C1383 C1382 1.373 . S
C1383 C1399 1.377 1_545 S
C1384 C1382 1.389 . S
C1384 C1385 1.524 1_455 S
C1384 C1398 1.377 1_545 S
C1385 C1384 1.524 1_655 S
C1385 C1386 1.397 . S
C1385 C1390 1.363 1_545 S
C1386 H1363 0.950 . S
C1386 C1385 1.397 . S
C1386 C1387 1.334 . S
C1387 H1364 0.950 . S
C1387 C1386 1.334 . S
C1387 C1388 1.287 1_554 S
C1388 C1387 1.287 1_556 S
C1388 C1389 1.524 1_545 S
C1388 H1407 0.913 . S
C1389 H1365 0.950 . S
C1389 C1388 1.524 1_565 S
C1389 C1390 1.415 1_556 S
C1390 H1366 0.950 . S
C1390 C1385 1.363 1_565 S
C1390 C1389 1.415 1_554 S
C1391 H1367 0.951 . S
C1391 C1392 1.366 . S
C1391 C1393 1.388 . S
C1392 C1391 1.366 . S
C1392 C1396 1.385 . S
C1393 H1368 0.951 . S
C1393 C1391 1.388 . S
C1393 C1394 1.366 . S
C1394 C1393 1.366 . S
C1394 C1395 1.414 . S
C1394 C1397 1.499 . S
C1395 H1369 0.950 . S
C1395 C1394 1.414 . S
C1395 C1396 1.374 . S
C1396 H1370 0.950 . S
C1396 C1392 1.385 . S
C1396 C1395 1.374 . S
C1397 C1394 1.499 . S
C1397 C1398 1.373 . S
C1397 C1399 1.389 . S
C1398 H1371 0.950 . S
C1398 C1384 1.377 1_565 S
C1398 C1397 1.373 . S
C1399 C1383 1.377 1_565 S
C1399 C1397 1.389 . S
C1399 C1400 1.524 . S
C1400 C1399 1.524 . S
C1400 C1401 1.397 . S
C1400 C1405 1.363 1_565 S
C1401 H1372 0.950 . S
C1401 C1400 1.397 . S
C1401 C1402 1.334 . S
C1402 H1373 0.950 . S
C1402 C1401 1.334 . S
C1402 C1403 1.287 . S
C1403 C1402 1.287 . S
C1403 C1404 1.524 1_565 S
C1403 H1406 0.999 . S
C1404 H1374 0.950 . S
C1404 C1403 1.524 1_545 S
C1404 C1405 1.415 . S
C1405 H1375 0.950 . S
C1405 C1400 1.363 1_545 S
C1405 C1404 1.415 . S
H1406 C1403 0.999 . S
H1407 C1388 0.913 . S
H1408 C1426 0.951 . S
H1409 C1428 0.951 . S
H1410 C1430 0.950 . S
H1411 C1431 0.950 . S
H1412 C1433 0.950 . S
H1413 C1436 0.950 . S
H1414 C1437 0.950 . S
H1415 C1439 0.950 . S
H1416 C1440 0.950 . S
H1417 C1441 0.951 . S
H1418 C1443 0.951 . S
H1419 C1445 0.950 . S
H1420 C1446 0.950 . S
H1421 C1448 0.950 . S
H1422 C1451 0.950 . S
H1423 C1452 0.950 . S
H1424 C1454 0.950 . S
H1425 C1455 0.950 . S
C1426 H1408 0.951 . S
C1426 C1427 1.366 . S
C1426 C1428 1.388 . S
C1427 C1426 1.366 . S
C1427 C1431 1.385 . S
C1428 H1409 0.951 . S
C1428 C1426 1.388 . S
C1428 C1429 1.366 . S
C1429 C1428 1.366 . S
C1429 C1430 1.414 . S
C1429 C1432 1.499 . S
C1430 H1410 0.950 . S
C1430 C1429 1.414 . S
C1430 C1431 1.374 . S
C1431 H1411 0.950 . S
C1431 C1427 1.385 . S
C1431 C1430 1.374 . S
C1432 C1429 1.499 . S
C1432 C1433 1.373 . S
C1432 C1434 1.389 . S
C1433 H1412 0.950 . S
C1433 C1432 1.373 . S
C1433 C1449 1.377 . S
C1434 C1432 1.389 . S
C1434 C1435 1.524 . S
C1434 C1448 1.377 . S
C1435 C1434 1.524 . S
C1435 C1436 1.397 1_455 S
C1435 C1440 1.363 . S
C1436 H1413 0.950 . S
C1436 C1435 1.397 1_655 S
C1436 C1437 1.334 . S
C1437 H1414 0.950 . S
C1437 C1436 1.334 . S
C1437 C1438 1.287 . S
C1438 C1437 1.287 . S
C1438 C1439 1.524 . S
C1438 H1457 0.913 . S
C1439 H1415 0.950 . S
C1439 C1438 1.524 . S
C1439 C1440 1.415 1_655 S
C1440 H1416 0.950 . S
C1440 C1435 1.363 . S
C1440 C1439 1.415 1_455 S
C1441 H1417 0.951 . S
C1441 C1442 1.366 . S
C1441 C1443 1.388 . S
C1442 C1441 1.366 . S
C1442 C1446 1.385 . S
C1443 H1418 0.951 . S
C1443 C1441 1.388 . S
C1443 C1444 1.366 . S
C1444 C1443 1.366 . S
C1444 C1445 1.414 . S
C1444 C1447 1.499 . S
C1445 H1419 0.950 . S
C1445 C1444 1.414 . S
C1445 C1446 1.374 . S
C1446 H1420 0.950 . S
C1446 C1442 1.385 . S
C1446 C1445 1.374 . S
C1447 C1444 1.499 . S
C1447 C1448 1.373 . S
C1447 C1449 1.389 . S
C1448 H1421 0.950 . S
C1448 C1434 1.377 . S
C1448 C1447 1.373 . S
C1449 C1433 1.377 . S
C1449 C1447 1.389 . S
C1449 C1450 1.524 . S
C1450 C1449 1.524 . S
C1450 C1451 1.397 . S
C1450 C1455 1.363 . S
C1451 H1422 0.950 . S
C1451 C1450 1.397 . S
C1451 C1452 1.334 . S
C1452 H1423 0.950 . S
C1452 C1451 1.334 . S
C1452 C1453 1.287 . S
C1453 C1452 1.287 . S
C1453 C1454 1.524 . S
C1453 H1456 0.999 . S
C1454 H1424 0.950 . S
C1454 C1453 1.524 . S
C1454 C1455 1.415 . S
C1455 H1425 0.950 . S
C1455 C1450 1.363 . S
C1455 C1454 1.415 . S
H1456 C1453 0.999 . S
H1457 C1438 0.913 . S
H1458 C1476 0.951 . S
H1459 C1478 0.951 . S
H1460 C1480 0.950 . S
H1461 C1481 0.950 1_554 S
H1462 C1483 0.950 . S
H1463 C1486 0.950 . S
H1464 C1487 0.950 . S
H1465 C1489 0.950 . S
H1466 C1490 0.950 . S
H1467 C1491 0.951 . S
H1468 C1493 0.951 . S
H1469 C1495 0.950 . S
H1470 C1496 0.950 . S
H1471 C1498 0.950 . S
H1472 C1501 0.950 . S
H1473 C1502 0.950 . S
H1474 C1504 0.950 . S
H1475 C1505 0.950 . S
C1476 H1458 0.951 . S
C1476 C1477 1.366 . S
C1476 C1478 1.388 . S
C1477 C1476 1.366 . S
C1477 C1481 1.385 . S
C1478 H1459 0.951 . S
C1478 C1476 1.388 . S
C1478 C1479 1.366 . S
C1479 C1478 1.366 . S
C1479 C1480 1.414 . S
C1479 C1482 1.499 . S
C1480 H1460 0.950 . S
C1480 C1479 1.414 . S
C1480 C1481 1.374 . S
C1481 H1461 0.950 1_556 S
C1481 C1477 1.385 . S
C1481 C1480 1.374 . S
C1482 C1479 1.499 . S
C1482 C1483 1.373 . S
C1482 C1484 1.389 . S
C1483 H1462 0.950 . S
C1483 C1482 1.373 . S
C1483 C1499 1.377 . S
C1484 C1482 1.389 . S
C1484 C1485 1.524 . S
C1484 C1498 1.377 . S
C1485 C1484 1.524 . S
C1485 C1486 1.397 . S
C1485 C1490 1.363 . S
C1486 H1463 0.950 . S
C1486 C1485 1.397 . S
C1486 C1487 1.334 . S
C1487 H1464 0.950 . S
C1487 C1486 1.334 . S
C1487 C1488 1.287 . S
C1488 C1487 1.287 . S
C1488 C1489 1.524 . S
C1488 H1507 0.913 . S
C1489 H1465 0.950 . S
C1489 C1488 1.524 . S
C1489 C1490 1.415 . S
C1490 H1466 0.950 . S
C1490 C1485 1.363 . S
C1490 C1489 1.415 . S
C1491 H1467 0.951 . S
C1491 C1492 1.366 . S
C1491 C1493 1.388 . S
C1492 C1491 1.366 . S
C1492 C1496 1.385 . S
C1493 H1468 0.951 . S
C1493 C1491 1.388 . S
C1493 C1494 1.366 . S
C1494 C1493 1.366 . S
C1494 C1495 1.414 . S
C1494 C1497 1.499 . S
C1495 H1469 0.950 . S
C1495 C1494 1.414 . S
C1495 C1496 1.374 . S
C1496 H1470 0.950 . S
C1496 C1492 1.385 . S
C1496 C1495 1.374 . S
C1497 C1494 1.499 . S
C1497 C1498 1.373 . S
C1497 C1499 1.389 . S
C1498 H1471 0.950 . S
C1498 C1484 1.377 . S
C1498 C1497 1.373 . S
C1499 C1483 1.377 . S
C1499 C1497 1.389 . S
C1499 C1500 1.524 . S
C1500 C1499 1.524 . S
C1500 C1501 1.397 . S
C1500 C1505 1.363 . S
C1501 H1472 0.950 . S
C1501 C1500 1.397 . S
C1501 C1502 1.334 . S
C1502 H1473 0.950 . S
C1502 C1501 1.334 . S
C1502 C1503 1.287 . S
C1503 C1502 1.287 . S
C1503 C1504 1.524 . S
C1503 H1506 0.999 . S
C1504 H1474 0.950 . S
C1504 C1503 1.524 . S
C1504 C1505 1.415 . S
C1505 H1475 0.950 . S
C1505 C1500 1.363 . S
C1505 C1504 1.415 . S
H1506 C1503 0.999 . S
H1507 C1488 0.913 . S
H1508 C1526 0.951 . S
H1509 C1528 0.951 . S
H1510 C1530 0.950 . S
H1511 C1531 0.950 . S
H1512 C1533 0.950 . S
H1513 C1536 0.950 . S
H1514 C1537 0.950 . S
H1515 C1539 0.950 . S
H1516 C1540 0.950 . S
H1517 C1541 0.951 . S
H1518 C1543 0.951 . S
H1519 C1545 0.950 . S
H1520 C1546 0.950 . S
H1521 C1548 0.950 . S
H1522 C1551 0.950 . S
H1523 C1552 0.950 . S
H1524 C1554 0.950 . S
H1525 C1555 0.950 1_554 S
C1526 H1508 0.951 . S
C1526 C1527 1.366 . S
C1526 C1528 1.388 . S
C1527 C1526 1.366 . S
C1527 C1531 1.385 . S
C1528 H1509 0.951 . S
C1528 C1526 1.388 . S
C1528 C1529 1.366 . S
C1529 C1528 1.366 . S
C1529 C1530 1.414 . S
C1529 C1532 1.499 . S
C1530 H1510 0.950 . S
C1530 C1529 1.414 . S
C1530 C1531 1.374 . S
C1531 H1511 0.950 . S
C1531 C1527 1.385 . S
C1531 C1530 1.374 . S
C1532 C1529 1.499 . S
C1532 C1533 1.373 . S
C1532 C1534 1.389 . S
C1533 H1512 0.950 . S
C1533 C1532 1.373 . S
C1533 C1549 1.377 . S
C1534 C1532 1.389 . S
C1534 C1535 1.524 . S
C1534 C1548 1.377 . S
C1535 C1534 1.524 . S
C1535 C1536 1.397 . S
C1535 C1540 1.363 . S
C1536 H1513 0.950 . S
C1536 C1535 1.397 . S
C1536 C1537 1.334 . S
C1537 H1514 0.950 . S
C1537 C1536 1.334 . S
C1537 C1538 1.287 . S
C1538 C1537 1.287 . S
C1538 C1539 1.524 . S
C1538 H1557 0.913 . S
C1539 H1515 0.950 . S
C1539 C1538 1.524 . S
C1539 C1540 1.415 . S
C1540 H1516 0.950 . S
C1540 C1535 1.363 . S
C1540 C1539 1.415 . S
C1541 H1517 0.951 . S
C1541 C1542 1.366 . S
C1541 C1543 1.388 . S
C1542 C1541 1.366 . S
C1542 C1546 1.385 . S
C1543 H1518 0.951 . S
C1543 C1541 1.388 . S
C1543 C1544 1.366 . S
C1544 C1543 1.366 . S
C1544 C1545 1.414 . S
C1544 C1547 1.499 1_556 S
C1545 H1519 0.950 . S
C1545 C1544 1.414 . S
C1545 C1546 1.374 . S
C1546 H1520 0.950 . S
C1546 C1542 1.385 . S
C1546 C1545 1.374 . S
C1547 C1544 1.499 1_554 S
C1547 C1548 1.373 . S
C1547 C1549 1.389 . S
C1548 H1521 0.950 . S
C1548 C1534 1.377 . S
C1548 C1547 1.373 . S
C1549 C1533 1.377 . S
C1549 C1547 1.389 . S
C1549 C1550 1.524 1_554 S
C1550 C1549 1.524 1_556 S
C1550 C1551 1.397 . S
C1550 C1555 1.363 . S
C1551 H1522 0.950 . S
C1551 C1550 1.397 . S
C1551 C1552 1.334 . S
C1552 H1523 0.950 . S
C1552 C1551 1.334 . S
C1552 C1553 1.287 . S
C1553 C1552 1.287 . S
C1553 C1554 1.524 . S
C1553 H1556 0.999 . S
C1554 H1524 0.950 . S
C1554 C1553 1.524 . S
C1554 C1555 1.415 . S
C1555 H1525 0.950 1_556 S
C1555 C1550 1.363 . S
C1555 C1554 1.415 . S
H1556 C1553 0.999 . S
H1557 C1538 0.913 . S
H1558 C1576 0.951 . S
H1559 C1578 0.951 . S
H1560 C1580 0.950 . S
H1561 C1581 0.950 . S
H1562 C1583 0.950 . S
H1563 C1586 0.950 . S
H1564 C1587 0.950 . S
H1565 C1589 0.950 . S
H1566 C1590 0.950 . S
H1567 C1591 0.951 . S
H1568 C1593 0.951 . S
H1569 C1595 0.950 . S
H1570 C1596 0.950 . S
H1571 C1598 0.950 . S
H1572 C1601 0.950 . S
H1573 C1602 0.950 . S
H1574 C1604 0.950 . S
H1575 C1605 0.950 . S
C1576 H1558 0.951 . S
C1576 C1577 1.366 . S
C1576 C1578 1.388 . S
C1577 C1576 1.366 . S
C1577 C1581 1.385 . S
C1578 H1559 0.951 . S
C1578 C1576 1.388 . S
C1578 C1579 1.366 . S
C1579 C1578 1.366 . S
C1579 C1580 1.414 . S
C1579 C1582 1.499 . S
C1580 H1560 0.950 . S
C1580 C1579 1.414 . S
C1580 C1581 1.374 . S
C1581 H1561 0.950 . S
C1581 C1577 1.385 . S
C1581 C1580 1.374 . S
C1582 C1579 1.499 . S
C1582 C1583 1.373 . S
C1582 C1584 1.389 . S
C1583 H1562 0.950 . S
C1583 C1582 1.373 . S
C1583 C1599 1.377 . S
C1584 C1582 1.389 . S
C1584 C1585 1.524 . S
C1584 C1598 1.377 . S
C1585 C1584 1.524 . S
C1585 C1586 1.397 . S
C1585 C1590 1.363 . S
C1586 H1563 0.950 . S
C1586 C1585 1.397 . S
C1586 C1587 1.334 . S
C1587 H1564 0.950 . S
C1587 C1586 1.334 . S
C1587 C1588 1.287 . S
C1588 C1587 1.287 . S
C1588 C1589 1.524 . S
C1588 H1607 0.913 . S
C1589 H1565 0.950 . S
C1589 C1588 1.524 . S
C1589 C1590 1.415 . S
C1590 H1566 0.950 . S
C1590 C1585 1.363 . S
C1590 C1589 1.415 . S
C1591 H1567 0.951 . S
C1591 C1592 1.366 . S
C1591 C1593 1.388 . S
C1592 C1591 1.366 . S
C1592 C1596 1.385 . S
C1593 H1568 0.951 . S
C1593 C1591 1.388 . S
C1593 C1594 1.366 . S
C1594 C1593 1.366 . S
C1594 C1595 1.414 . S
C1594 C1597 1.499 . S
C1595 H1569 0.950 . S
C1595 C1594 1.414 . S
C1595 C1596 1.374 . S
C1596 H1570 0.950 . S
C1596 C1592 1.385 . S
C1596 C1595 1.374 . S
C1597 C1594 1.499 . S
C1597 C1598 1.373 . S
C1597 C1599 1.389 . S
C1598 H1571 0.950 . S
C1598 C1584 1.377 . S
C1598 C1597 1.373 . S
C1599 C1583 1.377 . S
C1599 C1597 1.389 . S
C1599 C1600 1.524 . S
C1600 C1599 1.524 . S
C1600 C1601 1.397 . S
C1600 C1605 1.363 . S
C1601 H1572 0.950 . S
C1601 C1600 1.397 . S
C1601 C1602 1.334 . S
C1602 H1573 0.950 . S
C1602 C1601 1.334 . S
C1602 C1603 1.287 . S
C1603 C1602 1.287 . S
C1603 C1604 1.524 . S
C1603 H1606 0.999 . S
C1604 H1574 0.950 . S
C1604 C1603 1.524 . S
C1604 C1605 1.415 . S
C1605 H1575 0.950 . S
C1605 C1600 1.363 . S
C1605 C1604 1.415 . S
H1606 C1603 0.999 . S
H1607 C1588 0.913 . S
H1608 C1626 0.951 . S
H1609 C1628 0.951 . S
H1610 C1630 0.950 . S
H1611 C1631 0.950 . S
H1612 C1633 0.950 . S
H1613 C1636 0.950 . S
H1614 C1637 0.950 . S
H1615 C1639 0.950 . S
H1616 C1640 0.950 . S
H1617 C1641 0.951 . S
H1618 C1643 0.951 . S
H1619 C1645 0.950 . S
H1620 C1646 0.950 . S
H1621 C1648 0.950 . S
H1622 C1651 0.950 . S
H1623 C1652 0.950 . S
H1624 C1654 0.950 . S
H1625 C1655 0.950 . S
C1626 H1608 0.951 . S
C1626 C1627 1.366 . S
C1626 C1628 1.388 . S
C1627 C1626 1.366 . S
C1627 C1631 1.385 . S
C1628 H1609 0.951 . S
C1628 C1626 1.388 . S
C1628 C1629 1.366 . S
C1629 C1628 1.366 . S
C1629 C1630 1.414 . S
C1629 C1632 1.499 . S
C1630 H1610 0.950 . S
C1630 C1629 1.414 . S
C1630 C1631 1.374 . S
C1631 H1611 0.950 . S
C1631 C1627 1.385 . S
C1631 C1630 1.374 . S
C1632 C1629 1.499 . S
C1632 C1633 1.373 . S
C1632 C1634 1.389 . S
C1633 H1612 0.950 . S
C1633 C1632 1.373 . S
C1633 C1649 1.377 . S
C1634 C1632 1.389 . S
C1634 C1635 1.524 . S
C1634 C1648 1.377 . S
C1635 C1634 1.524 . S
C1635 C1636 1.397 . S
C1635 C1640 1.363 . S
C1636 H1613 0.950 . S
C1636 C1635 1.397 . S
C1636 C1637 1.334 . S
C1637 H1614 0.950 . S
C1637 C1636 1.334 . S
C1637 C1638 1.287 . S
C1638 C1637 1.287 . S
C1638 C1639 1.524 . S
C1638 H1657 0.913 . S
C1639 H1615 0.950 . S
C1639 C1638 1.524 . S
C1639 C1640 1.415 . S
C1640 H1616 0.950 . S
C1640 C1635 1.363 . S
C1640 C1639 1.415 . S
C1641 H1617 0.951 . S
C1641 C1642 1.366 . S
C1641 C1643 1.388 . S
C1642 C1641 1.366 . S
C1642 C1646 1.385 . S
C1643 H1618 0.951 . S
C1643 C1641 1.388 . S
C1643 C1644 1.366 . S
C1644 C1643 1.366 . S
C1644 C1645 1.414 . S
C1644 C1647 1.499 . S
C1645 H1619 0.950 . S
C1645 C1644 1.414 . S
C1645 C1646 1.374 . S
C1646 H1620 0.950 . S
C1646 C1642 1.385 . S
C1646 C1645 1.374 . S
C1647 C1644 1.499 . S
C1647 C1648 1.373 . S
C1647 C1649 1.389 . S
C1648 H1621 0.950 . S
C1648 C1634 1.377 . S
C1648 C1647 1.373 . S
C1649 C1633 1.377 . S
C1649 C1647 1.389 . S
C1649 C1650 1.524 . S
C1650 C1649 1.524 . S
C1650 C1651 1.397 . S
C1650 C1655 1.363 . S
C1651 H1622 0.950 . S
C1651 C1650 1.397 . S
C1651 C1652 1.334 . S
C1652 H1623 0.950 . S
C1652 C1651 1.334 . S
C1652 C1653 1.287 . S
C1653 C1652 1.287 . S
C1653 C1654 1.524 . S
C1653 H1656 0.999 . S
C1654 H1624 0.950 . S
C1654 C1653 1.524 . S
C1654 C1655 1.415 . S
C1655 H1625 0.950 . S
C1655 C1650 1.363 . S
C1655 C1654 1.415 . S
H1656 C1653 0.999 . S
H1657 C1638 0.913 . S
H1658 C1676 0.951 . S
H1659 C1678 0.951 . S
H1660 C1680 0.950 . S
H1661 C1681 0.950 . S
H1662 C1683 0.950 . S
H1663 C1686 0.950 . S
H1664 C1687 0.950 . S
H1665 C1689 0.950 . S
H1666 C1690 0.950 . S
H1667 C1691 0.951 1_554 S
H1668 C1693 0.951 . S
H1669 C1695 0.950 . S
H1670 C1696 0.950 . S
H1671 C1698 0.950 . S
H1672 C1701 0.950 . S
H1673 C1702 0.950 . S
H1674 C1704 0.950 . S
H1675 C1705 0.950 . S
C1676 H1658 0.951 . S
C1676 C1677 1.366 . S
C1676 C1678 1.388 . S
C1677 C1676 1.366 . S
C1677 C1681 1.385 . S
C1678 H1659 0.951 . S
C1678 C1676 1.388 . S
C1678 C1679 1.366 . S
C1679 C1678 1.366 . S
C1679 C1680 1.414 . S
C1679 C1682 1.499 . S
C1680 H1660 0.950 . S
C1680 C1679 1.414 . S
C1680 C1681 1.374 . S
C1681 H1661 0.950 . S
C1681 C1677 1.385 . S
C1681 C1680 1.374 . S
C1682 C1679 1.499 . S
C1682 C1683 1.373 . S
C1682 C1684 1.389 . S
C1683 H1662 0.950 . S
C1683 C1682 1.373 . S
C1683 C1699 1.377 . S
C1684 C1682 1.389 . S
C1684 C1685 1.524 . S
C1684 C1698 1.377 . S
C1685 C1684 1.524 . S
C1685 C1686 1.397 . S
C1685 C1690 1.363 . S
C1686 H1663 0.950 . S
C1686 C1685 1.397 . S
C1686 C1687 1.334 . S
C1687 H1664 0.950 . S
C1687 C1686 1.334 . S
C1687 C1688 1.287 . S
C1688 C1687 1.287 . S
C1688 C1689 1.524 . S
C1688 H1707 0.913 . S
C1689 H1665 0.950 . S
C1689 C1688 1.524 . S
C1689 C1690 1.415 . S
C1690 H1666 0.950 . S
C1690 C1685 1.363 . S
C1690 C1689 1.415 . S
C1691 H1667 0.951 1_556 S
C1691 C1692 1.366 . S
C1691 C1693 1.388 . S
C1692 C1691 1.366 . S
C1692 C1696 1.385 . S
C1693 H1668 0.951 . S
C1693 C1691 1.388 . S
C1693 C1694 1.366 . S
C1694 C1693 1.366 . S
C1694 C1695 1.414 . S
C1694 C1697 1.499 . S
C1695 H1669 0.950 . S
C1695 C1694 1.414 . S
C1695 C1696 1.374 . S
C1696 H1670 0.950 . S
C1696 C1692 1.385 . S
C1696 C1695 1.374 . S
C1697 C1694 1.499 . S
C1697 C1698 1.373 . S
C1697 C1699 1.389 . S
C1698 H1671 0.950 . S
C1698 C1684 1.377 . S
C1698 C1697 1.373 . S
C1699 C1683 1.377 . S
C1699 C1697 1.389 . S
C1699 C1700 1.524 . S
C1700 C1699 1.524 . S
C1700 C1701 1.397 . S
C1700 C1705 1.363 . S
C1701 H1672 0.950 . S
C1701 C1700 1.397 . S
C1701 C1702 1.334 . S
C1702 H1673 0.950 . S
C1702 C1701 1.334 . S
C1702 C1703 1.287 . S
C1703 C1702 1.287 . S
C1703 C1704 1.524 . S
C1703 H1706 0.999 . S
C1704 H1674 0.950 . S
C1704 C1703 1.524 . S
C1704 C1705 1.415 . S
C1705 H1675 0.950 . S
C1705 C1700 1.363 . S
C1705 C1704 1.415 . S
H1706 C1703 0.999 . S
H1707 C1688 0.913 . S
H1708 C1726 0.951 . S
H1709 C1728 0.951 . S
H1710 C1730 0.950 . S
H1711 C1731 0.950 . S
H1712 C1733 0.950 . S
H1713 C1736 0.950 . S
H1714 C1737 0.950 . S
H1715 C1739 0.950 . S
H1716 C1740 0.950 . S
H1717 C1741 0.951 . S
H1718 C1743 0.951 . S
H1719 C1745 0.950 1_554 S
H1720 C1746 0.950 . S
H1721 C1748 0.950 . S
H1722 C1751 0.950 1_554 S
H1723 C1752 0.950 . S
H1724 C1754 0.950 . S
H1725 C1755 0.950 . S
C1726 H1708 0.951 . S
C1726 C1727 1.366 . S
C1726 C1728 1.388 . S
C1727 C1726 1.366 . S
C1727 C1731 1.385 . S
C1728 H1709 0.951 . S
C1728 C1726 1.388 . S
C1728 C1729 1.366 . S
C1729 C1728 1.366 . S
C1729 C1730 1.414 . S
C1729 C1732 1.499 . S
C1730 H1710 0.950 . S
C1730 C1729 1.414 . S
C1730 C1731 1.374 . S
C1731 H1711 0.950 . S
C1731 C1727 1.385 . S
C1731 C1730 1.374 . S
C1732 C1729 1.499 . S
C1732 C1733 1.373 . S
C1732 C1734 1.389 1_565 S
C1733 H1712 0.950 . S
C1733 C1732 1.373 . S
C1733 C1749 1.377 . S
C1734 C1732 1.389 1_545 S
C1734 C1735 1.524 . S
C1734 C1748 1.377 . S
C1735 C1734 1.524 . S
C1735 C1736 1.397 1_545 S
C1735 C1740 1.363 . S
C1736 H1713 0.950 . S
C1736 C1735 1.397 1_565 S
C1736 C1737 1.334 . S
C1737 H1714 0.950 . S
C1737 C1736 1.334 . S
C1737 C1738 1.287 1_565 S
C1738 C1737 1.287 1_545 S
C1738 C1739 1.524 . S
C1738 H1757 0.913 . S
C1739 H1715 0.950 . S
C1739 C1738 1.524 . S
C1739 C1740 1.415 . S
C1740 H1716 0.950 . S
C1740 C1735 1.363 . S
C1740 C1739 1.415 . S
C1741 H1717 0.951 . S
C1741 C1742 1.366 . S
C1741 C1743 1.388 . S
C1742 C1741 1.366 . S
C1742 C1746 1.385 . S
C1743 H1718 0.951 . S
C1743 C1741 1.388 . S
C1743 C1744 1.366 . S
C1744 C1743 1.366 . S
C1744 C1745 1.414 . S
C1744 C1747 1.499 1_556 S
C1745 H1719 0.950 1_556 S
C1745 C1744 1.414 . S
C1745 C1746 1.374 . S
C1746 H1720 0.950 . S
C1746 C1742 1.385 . S
C1746 C1745 1.374 . S
C1747 C1744 1.499 1_554 S
C1747 C1748 1.373 . S
C1747 C1749 1.389 1_545 S
C1748 H1721 0.950 . S
C1748 C1734 1.377 . S
C1748 C1747 1.373 . S
C1749 C1733 1.377 . S
C1749 C1747 1.389 1_565 S
C1749 C1750 1.524 . S
C1750 C1749 1.524 . S
C1750 C1751 1.397 1_564 S
C1750 C1755 1.363 1_554 S
C1751 H1722 0.950 1_556 S
C1751 C1750 1.397 1_546 S
C1751 C1752 1.334 . S
C1752 H1723 0.950 . S
C1752 C1751 1.334 . S
C1752 C1753 1.287 1_545 S
C1753 C1752 1.287 1_565 S
C1753 C1754 1.524 . S
C1753 H1756 0.999 . S
C1754 H1724 0.950 . S
C1754 C1753 1.524 . S
C1754 C1755 1.415 . S
C1755 H1725 0.950 . S
C1755 C1750 1.363 1_556 S
C1755 C1754 1.415 . S
H1756 C1753 0.999 . S
H1757 C1738 0.913 . S
H1758 C1776 0.951 . S
H1759 C1778 0.951 . S
H1760 C1780 0.950 . S
H1761 C1781 0.950 . S
H1762 C1783 0.922 1_655 S
H1763 C1786 0.950 . S
H1764 C1787 0.950 . S
H1765 C1789 0.950 . S
H1766 C1790 0.950 1_565 S
H1767 C1791 0.951 . S
H1768 C1793 0.951 . S
H1769 C1795 0.950 . S
H1770 C1796 0.950 . S
H1771 C1798 0.950 . S
H1772 C1801 0.950 1_455 S
H1773 C1802 0.950 . S
H1774 C1804 0.950 . S
H1775 C1805 0.950 1_545 S
C1776 H1758 0.951 . S
C1776 C1777 1.366 . S
C1776 C1778 1.388 . S
C1777 C1776 1.366 . S
C1777 C1781 1.385 . S
C1778 H1759 0.951 . S
C1778 C1776 1.388 . S
C1778 C1779 1.366 . S
C1779 C1778 1.366 . S
C1779 C1780 1.414 . S
C1779 C1782 1.499 . S
C1780 H1760 0.950 . S
C1780 C1779 1.414 . S
C1780 C1781 1.374 . S
C1781 H1761 0.950 . S
C1781 C1777 1.385 . S
C1781 C1780 1.374 . S
C1782 C1779 1.499 . S
C1782 C1783 1.373 . S
C1782 C1784 1.389 . S
C1783 H1762 0.922 1_455 S
C1783 C1782 1.373 . S
C1783 C1799 1.377 1_545 S
C1784 C1782 1.389 . S
C1784 C1785 1.524 . S
C1784 C1798 1.377 1_545 S
C1785 C1784 1.524 . S
C1785 C1786 1.397 . S
C1785 C1790 1.363 . S
C1786 H1763 0.950 . S
C1786 C1785 1.397 . S
C1786 C1787 1.334 . S
C1787 H1764 0.950 . S
C1787 C1786 1.334 . S
C1787 C1788 1.287 . S
C1788 C1787 1.287 . S
C1788 C1789 1.524 . S
C1788 H1807 0.913 . S
C1789 H1765 0.950 . S
C1789 C1788 1.524 . S
C1789 C1790 1.415 . S
C1790 H1766 0.950 1_545 S
C1790 C1785 1.363 . S
C1790 C1789 1.415 . S
C1791 H1767 0.951 . S
C1791 C1792 1.366 . S
C1791 C1793 1.388 . S
C1792 C1791 1.366 . S
C1792 C1796 1.385 . S
C1793 H1768 0.951 . S
C1793 C1791 1.388 . S
C1793 C1794 1.366 . S
C1794 C1793 1.366 . S
C1794 C1795 1.414 . S
C1794 C1797 1.499 . S
C1795 H1769 0.950 . S
C1795 C1794 1.414 . S
C1795 C1796 1.374 . S
C1796 H1770 0.950 . S
C1796 C1792 1.385 . S
C1796 C1795 1.374 . S
C1797 C1794 1.499 . S
C1797 C1798 1.373 . S
C1797 C1799 1.389 . S
C1798 H1771 0.950 . S
C1798 C1784 1.377 1_565 S
C1798 C1797 1.373 . S
C1799 C1783 1.377 1_565 S
C1799 C1797 1.389 . S
C1799 C1800 1.524 1_455 S
C1800 C1799 1.524 1_655 S
C1800 C1801 1.397 . S
C1800 C1805 1.363 . S
C1801 H1772 0.950 1_655 S
C1801 C1800 1.397 . S
C1801 C1802 1.334 . S
C1802 H1773 0.950 . S
C1802 C1801 1.334 . S
C1802 C1803 1.287 . S
C1803 C1802 1.287 . S
C1803 C1804 1.524 . S
C1803 H1806 0.999 . S
C1804 H1774 0.950 . S
C1804 C1803 1.524 . S
C1804 C1805 1.415 . S
C1805 H1775 0.950 1_565 S
C1805 C1800 1.363 . S
C1805 C1804 1.415 . S
H1806 C1803 0.999 . S
H1807 C1788 0.913 . S
C227 C127 1.385 . S
C242 C10 1.385 . S
C277 C192 1.384 . S
C292 C23 1.384 . S
C327 C36 1.385 . S
C342 C114 1.385 . S
C377 C49 1.384 . S
C392 C205 1.387 1_655 S
C427 C62 1.385 . S
C442 C140 1.385 . S
C477 C179 1.387 1_655 S
C492 C75 1.385 . S
C527 C153 1.385 . S
C542 C88 1.385 . S
C577 C101 1.385 . S
C592 C166 1.385 . S
C627 C57 1.409 1_655 S
C642 C44 1.408 1_556 S
C677 C161 1.409 . S
C692 C109 1.409 . S
C727 C83 1.408 . S
C742 C18 1.409 . S
C777 C122 1.410 . S
C792 C174 1.409 . S
C827 C5 1.410 1_655 S
C842 C70 1.409 . S
C877 C200 1.409 . S
C892 C135 1.409 1_556 S
C927 C96 1.410 . S
C942 C31 1.409 . S
C977 C148 1.409 . S
C992 C187 1.409 . S
C1027 C8 0.294 . S
C1042 C60 0.296 . S
C1077 C73 0.298 . S
C1092 C21 0.295 . S
C1127 C86 0.296 . S
C1142 C34 0.299 . S
C1177 C47 0.295 . S
C1192 C99 0.298 . S
C1227 C138 0.298 . S
C1242 C112 0.295 . S
C1277 C151 0.294 . S
C1292 C125 0.297 . S
C1327 C190 0.294 . S
C1342 C164 0.296 . S
C1377 C203 0.295 . S
C1392 C177 0.298 . S
C1427 C52 1.755 . S
C1442 C0 1.756 . S
C1477 C65 1.756 1_556 S
C1492 C13 1.755 . S
C1527 C78 1.756 . S
C1542 C26 1.756 . S
C1577 C39 1.756 . S
C1592 C91 1.756 . S
C1627 C104 1.756 . S
C1642 C130 1.755 . S
C1677 C143 1.755 . S
C1692 C117 1.756 1_556 S
C1727 C182 1.755 . S
C1742 C156 1.756 . S
C1777 C195 1.756 . S
C1792 C169 1.756 . S
