# Generated by pormake.
# Topology lcy-e, (6)-cn, num edge types: 1
# Building blocks:
#     Node 0, Type 0, BuildingBlock: PAMTOO_clean_sbu_0, # of connection points: 6
#     Node 1, Type 0, BuildingBlock: PAMTOO_clean_sbu_0, # of connection points: 6
#     Node 2, Type 0, BuildingBlock: PAMTOO_clean_sbu_0, # of connection points: 6
#     Node 3, Type 0, BuildingBlock: PAMTOO_clean_sbu_0, # of connection points: 6
#     Node 4, Type 0, BuildingBlock: PAMTOO_clean_sbu_0, # of connection points: 6
#     Node 5, Type 0, BuildingBlock: PAMTOO_clean_sbu_0, # of connection points: 6
#     Node 6, Type 0, BuildingBlock: PAMTOO_clean_sbu_0, # of connection points: 6
#     Node 7, Type 0, BuildingBlock: PAMTOO_clean_sbu_0, # of connection points: 6
#     Node 8, Type 0, BuildingBlock: PAMTOO_clean_sbu_0, # of connection points: 6
#     Node 9, Type 0, BuildingBlock: PAMTOO_clean_sbu_0, # of connection points: 6
#     Node 10, Type 0, BuildingBlock: PAMTOO_clean_sbu_0, # of connection points: 6
#     Node 11, Type 0, BuildingBlock: PAMTOO_clean_sbu_0, # of connection points: 6
#     Edge 12, Type (0, 0), BuildingBlock: OJICUG_clean_linker_0, # of connection points: 2
#     Edge 13, Type (0, 0), BuildingBlock: OJICUG_clean_linker_0, # of connection points: 2
#     Edge 14, Type (0, 0), BuildingBlock: OJICUG_clean_linker_0, # of connection points: 2
#     Edge 15, Type (0, 0), BuildingBlock: OJICUG_clean_linker_0, # of connection points: 2
#     Edge 16, Type (0, 0), BuildingBlock: OJICUG_clean_linker_0, # of connection points: 2
#     Edge 17, Type (0, 0), BuildingBlock: OJICUG_clean_linker_0, # of connection points: 2
#     Edge 18, Type (0, 0), BuildingBlock: OJICUG_clean_linker_0, # of connection points: 2
#     Edge 19, Type (0, 0), BuildingBlock: OJICUG_clean_linker_0, # of connection points: 2
#     Edge 20, Type (0, 0), BuildingBlock: OJICUG_clean_linker_0, # of connection points: 2
#     Edge 21, Type (0, 0), BuildingBlock: OJICUG_clean_linker_0, # of connection points: 2
#     Edge 22, Type (0, 0), BuildingBlock: OJICUG_clean_linker_0, # of connection points: 2
#     Edge 23, Type (0, 0), BuildingBlock: OJICUG_clean_linker_0, # of connection points: 2
#     Edge 24, Type (0, 0), BuildingBlock: OJICUG_clean_linker_0, # of connection points: 2
#     Edge 25, Type (0, 0), BuildingBlock: OJICUG_clean_linker_0, # of connection points: 2
#     Edge 26, Type (0, 0), BuildingBlock: OJICUG_clean_linker_0, # of connection points: 2
#     Edge 27, Type (0, 0), BuildingBlock: OJICUG_clean_linker_0, # of connection points: 2
#     Edge 28, Type (0, 0), BuildingBlock: OJICUG_clean_linker_0, # of connection points: 2
#     Edge 29, Type (0, 0), BuildingBlock: OJICUG_clean_linker_0, # of connection points: 2
#     Edge 30, Type (0, 0), BuildingBlock: OJICUG_clean_linker_0, # of connection points: 2
#     Edge 31, Type (0, 0), BuildingBlock: OJICUG_clean_linker_0, # of connection points: 2
#     Edge 32, Type (0, 0), BuildingBlock: OJICUG_clean_linker_0, # of connection points: 2
#     Edge 33, Type (0, 0), BuildingBlock: OJICUG_clean_linker_0, # of connection points: 2
#     Edge 34, Type (0, 0), BuildingBlock: OJICUG_clean_linker_0, # of connection points: 2
#     Edge 35, Type (0, 0), BuildingBlock: OJICUG_clean_linker_0, # of connection points: 2
#     Edge 36, Type (0, 0), BuildingBlock: OJICUG_clean_linker_0, # of connection points: 2
#     Edge 37, Type (0, 0), BuildingBlock: OJICUG_clean_linker_0, # of connection points: 2
#     Edge 38, Type (0, 0), BuildingBlock: OJICUG_clean_linker_0, # of connection points: 2
#     Edge 39, Type (0, 0), BuildingBlock: OJICUG_clean_linker_0, # of connection points: 2
#     Edge 40, Type (0, 0), BuildingBlock: OJICUG_clean_linker_0, # of connection points: 2
#     Edge 41, Type (0, 0), BuildingBlock: OJICUG_clean_linker_0, # of connection points: 2
#     Edge 42, Type (0, 0), BuildingBlock: OJICUG_clean_linker_0, # of connection points: 2
#     Edge 43, Type (0, 0), BuildingBlock: OJICUG_clean_linker_0, # of connection points: 2
#     Edge 44, Type (0, 0), BuildingBlock: OJICUG_clean_linker_0, # of connection points: 2
#     Edge 45, Type (0, 0), BuildingBlock: OJICUG_clean_linker_0, # of connection points: 2
#     Edge 46, Type (0, 0), BuildingBlock: OJICUG_clean_linker_0, # of connection points: 2
#     Edge 47, Type (0, 0), BuildingBlock: OJICUG_clean_linker_0, # of connection points: 2
# Relax obj value: 0.146
# Max RMSD: 0.316
# Mean RMSD: 0.296
data_MOF--net-lcy-e--node1-PAMTOO_clean_sbu_0--edge1-OJICUG_clean_linker_0
_symmetry_space_group_name_H-M    P1
_symmetry_Int_Tables_number       1
_symmetry_cell_setting            triclinic
loop_
_symmetry_equiv_pos_as_xyz
'x, y, z'
_cell_length_a     34.66348
_cell_length_b     34.196022
_cell_length_c     35.034268
_cell_angle_alpha  89.741899
_cell_angle_beta   89.737852
_cell_angle_gamma 88.953486
loop_
_atom_site_label
_atom_site_type_symbol
_atom_site_fract_x
_atom_site_fract_y
_atom_site_fract_z
_atom_type_partial_charge
Dy0 Dy 0.12392 0.29294 0.46147 0.0
Dy1 Dy 0.1485 0.22844 0.52538 0.0
C2 C 0.19756 0.23663 0.45133 0.0
O3 O 0.07478 0.25313 0.46628 0.0
O4 O 0.10974 0.19873 0.48287 0.0
O5 O 0.09916 0.30404 0.40611 0.0
O6 O 0.11947 0.35235 0.43998 0.0
O7 O 0.09078 0.24988 0.54267 0.0
O8 O 0.09743 0.31143 0.51874 0.0
O9 O 0.1696 0.28765 0.54462 0.0
O10 O 0.17895 0.3132 0.48509 0.0
O11 O 0.15505 0.20911 0.5837 0.0
O12 O 0.17357 0.17144 0.53705 0.0
C13 C 0.07862 0.21509 0.46777 0.0
O14 O 0.1661 0.24979 0.43427 0.0
O15 O 0.19944 0.236 0.48849 0.0
C16 C 0.12759 0.35617 0.373 0.0
C17 C 0.16622 0.38554 0.30808 0.0
C18 C 0.18009 0.35159 0.32664 0.0
C19 C 0.16101 0.33711 0.35898 0.0
C20 C 0.11339 0.38959 0.35423 0.0
C21 C 0.13249 0.40416 0.32212 0.0
C22 C 0.10699 0.34119 0.40672 0.0
C23 C 0.08375 0.28741 0.54516 0.0
C24 C 0.184 0.31474 0.52195 0.0
C25 C 0.14581 0.14108 0.59034 0.0
C26 C 0.1065 0.07707 0.62149 0.0
C27 C 0.08714 0.11307 0.61573 0.0
C28 C 0.10656 0.14476 0.60004 0.0
C29 C 0.16499 0.10499 0.59535 0.0
C30 C 0.14546 0.07315 0.6107 0.0
C31 C 0.16662 0.17406 0.57359 0.0
H32 H 0.20613 0.33681 0.31673 0.0
H33 H 0.17241 0.31118 0.37314 0.0
H34 H 0.08753 0.4045 0.36446 0.0
H35 H 0.12079 0.43008 0.30819 0.0
H36 H 0.05703 0.11673 0.62359 0.0
H37 H 0.09096 0.17216 0.59571 0.0
H38 H 0.19516 0.10154 0.5876 0.0
H39 H 0.16112 0.04583 0.61524 0.0
Dy40 Dy 0.05561 0.9093 0.78833 0.0
Dy41 Dy 0.99152 0.87911 0.72808 0.0
C42 C 0.06731 0.83181 0.73968 0.0
O43 O 0.04516 0.95741 0.74724 0.0
O44 O 0.034 0.9172 0.69725 0.0
O45 O 0.11076 0.93667 0.79407 0.0
O46 O 0.07944 0.91824 0.84454 0.0
O47 O 0.97 0.93684 0.74769 0.0
O48 O 0.99722 0.93408 0.80702 0.0
O49 O 0.97375 0.85827 0.78692 0.0
O50 O 0.03334 0.8556 0.81516 0.0
O51 O 0.93325 0.87134 0.70834 0.0
O52 O 0.9818 0.85106 0.67392 0.0
C53 C 0.04447 0.95123 0.71054 0.0
O54 O 0.08329 0.86514 0.74846 0.0
O55 O 0.0299 0.82875 0.7404 0.0
C56 C 0.14712 0.91038 0.84468 0.0
C57 C 0.2128 0.87055 0.87341 0.0
C58 C 0.19213 0.8549 0.84284 0.0
C59 C 0.15939 0.87459 0.82869 0.0
C60 C 0.16832 0.92661 0.87435 0.0
C61 C 0.20087 0.90689 0.88861 0.0
C62 C 0.11211 0.93065 0.83083 0.0
C63 C 0.96903 0.94557 0.78398 0.0
C64 C 0.99645 0.84817 0.81579 0.0
C65 C 0.9285 0.87797 0.64093 0.0
C66 C 0.89858 0.91488 0.57484 0.0
C67 C 0.89846 0.93454 0.61003 0.0
C68 C 0.91347 0.91637 0.64271 0.0
C69 C 0.92922 0.85853 0.60573 0.0
C70 C 0.91453 0.87685 0.57293 0.0
C71 C 0.94473 0.85836 0.67506 0.0
H72 H 0.20041 0.82682 0.83084 0.0
H73 H 0.1433 0.86162 0.80569 0.0
H74 H 0.1594 0.95428 0.88684 0.0
H75 H 0.21647 0.91984 0.91196 0.0
H76 H 0.88665 0.96399 0.61228 0.0
H77 H 0.91318 0.93235 0.66934 0.0
H78 H 0.94099 0.82904 0.60366 0.0
H79 H 0.91464 0.86085 0.54631 0.0
Dy80 Dy 0.40803 0.7267 0.96027 0.0
Dy81 Dy 0.38305 0.78892 0.02581 0.0
C82 C 0.33665 0.78629 0.9503 0.0
O83 O 0.45763 0.76532 0.96747 0.0
O84 O 0.42297 0.81971 0.98438 0.0
O85 O 0.43368 0.71715 0.90489 0.0
O86 O 0.41335 0.6679 0.93808 0.0
O87 O 0.44013 0.7657 0.04282 0.0
O88 O 0.43134 0.70526 1.01775 0.0
O89 O 0.35909 0.72934 0.04189 0.0
O90 O 0.35148 0.70738 0.98116 0.0
O91 O 0.37766 0.80648 0.08483 0.0
O92 O 0.35702 0.8448 0.03945 0.0
C93 C 0.45424 0.80335 0.96938 0.0
O94 O 0.36783 0.77198 0.93336 0.0
O95 O 0.33338 0.78468 0.98736 0.0
C96 C 0.40664 0.66529 0.87116 0.0
C97 C 0.36901 0.63579 0.80648 0.0
C98 C 0.35211 0.66654 0.82758 0.0
C99 C 0.37075 0.6811 0.85982 0.0
C100 C 0.42397 0.63538 0.84964 0.0
C101 C 0.40537 0.62075 0.8176 0.0
C102 C 0.4264 0.67987 0.90511 0.0
C103 C 0.44592 0.72796 0.04436 0.0
C104 C 0.34541 0.70336 1.01775 0.0
C105 C 0.38306 0.87446 0.09358 0.0
C106 C 0.41878 0.93818 0.12866 0.0
C107 C 0.43568 0.92043 0.0964 0.0
C108 C 0.418 0.88864 0.07905 0.0
C109 C 0.36583 0.89251 0.12523 0.0
C110 C 0.3835 0.92409 0.14265 0.0
C111 C 0.36409 0.84117 0.07585 0.0
H112 H 0.32403 0.67845 0.81989 0.0
H113 H 0.35702 0.70438 0.87613 0.0
H114 H 0.45178 0.6231 0.8578 0.0
H115 H 0.41932 0.59737 0.80164 0.0
H116 H 0.46297 0.93047 0.08523 0.0
H117 H 0.43165 0.87496 0.0545 0.0
H118 H 0.33875 0.88208 0.1366 0.0
H119 H 0.36956 0.93749 0.16717 0.0
Dy120 Dy 0.48049 0.11091 0.28827 0.0
Dy121 Dy 0.54379 0.136 0.22464 0.0
C122 C 0.46778 0.18421 0.23361 0.0
O123 O 0.48749 0.06044 0.24982 0.0
O124 O 0.50136 0.09587 0.19658 0.0
O125 O 0.42533 0.08503 0.29927 0.0
O126 O 0.45893 0.10721 0.34628 0.0
O127 O 0.56417 0.0786 0.24612 0.0
O128 O 0.53877 0.08498 0.30609 0.0
O129 O 0.56361 0.15875 0.28189 0.0
O130 O 0.50355 0.16701 0.3082 0.0
O131 O 0.60172 0.14119 0.20252 0.0
O132 O 0.55289 0.16362 0.16997 0.0
C133 C 0.48811 0.06393 0.21271 0.0
O134 O 0.45166 0.15198 0.24592 0.0
O135 O 0.50522 0.18701 0.23359 0.0
C136 C 0.39125 0.11575 0.34942 0.0
C137 C 0.32657 0.15776 0.3779 0.0
C138 C 0.34194 0.16687 0.34184 0.0
C139 C 0.37421 0.14619 0.3278 0.0
C140 C 0.3755 0.10613 0.385 0.0
C141 C 0.3435 0.12693 0.39914 0.0
C142 C 0.42558 0.0942 0.33537 0.0
C143 C 0.56603 0.07146 0.28274 0.0
C144 C 0.54066 0.17301 0.30884 0.0
C145 C 0.60376 0.13502 0.13527 0.0
C146 C 0.62896 0.09719 0.06822 0.0
C147 C 0.62276 0.07562 0.10188 0.0
C148 C 0.61001 0.09434 0.13509 0.0
C149 C 0.60913 0.15649 0.10156 0.0
C150 C 0.62155 0.13773 0.06822 0.0
C151 C 0.5897 0.15507 0.16976 0.0
H152 H 0.32971 0.19065 0.32503 0.0
H153 H 0.38608 0.15419 0.30025 0.0
H154 H 0.38815 0.0827 0.402 0.0
H155 H 0.33202 0.11896 0.42686 0.0
H156 H 0.62807 0.04431 0.10255 0.0
H157 H 0.60523 0.07707 0.16063 0.0
H158 H 0.60393 0.18783 0.1011 0.0
H159 H 0.62655 0.1551 0.0428 0.0
Dy160 Dy 0.65468 0.29102 0.47119 0.0
Dy161 Dy 0.63104 0.22932 0.53725 0.0
C162 C 0.58131 0.30486 0.52458 0.0
O163 O 0.70446 0.28601 0.50984 0.0
O164 O 0.6697 0.27436 0.56364 0.0
O165 O 0.68019 0.34646 0.45825 0.0
O166 O 0.65868 0.31046 0.41243 0.0
O167 O 0.68772 0.20849 0.51601 0.0
O168 O 0.68024 0.23145 0.4552 0.0
O169 O 0.60811 0.20701 0.48093 0.0
O170 O 0.59949 0.26667 0.45218 0.0
O171 O 0.62623 0.17109 0.56058 0.0
O172 O 0.60551 0.22133 0.59293 0.0
C173 C 0.70091 0.28769 0.54687 0.0
O174 O 0.61267 0.32146 0.5114 0.0
O175 O 0.57981 0.26689 0.52745 0.0
C176 C 0.6504 0.37884 0.40662 0.0
C177 C 0.60957 0.44338 0.37556 0.0
C178 C 0.60029 0.42937 0.41214 0.0
C179 C 0.62041 0.39713 0.42747 0.0
C180 C 0.66012 0.3932 0.37047 0.0
C181 C 0.63988 0.42515 0.35504 0.0
C182 C 0.67148 0.34468 0.42212 0.0
C183 C 0.69409 0.20489 0.4794 0.0
C184 C 0.5936 0.22907 0.45326 0.0
C185 C 0.63515 0.17046 0.62736 0.0
C186 C 0.67568 0.1464 0.69301 0.0
C187 C 0.6955 0.15333 0.65862 0.0
C188 C 0.67543 0.16552 0.62611 0.0
C189 C 0.61537 0.16435 0.66178 0.0
C190 C 0.63549 0.15248 0.69443 0.0
C191 C 0.61384 0.184 0.59357 0.0
H192 H 0.5769 0.44266 0.4284 0.0
H193 H 0.61235 0.38631 0.45545 0.0
H194 H 0.68322 0.37954 0.35405 0.0
H195 H 0.64791 0.43562 0.32692 0.0
H196 H 0.7265 0.14906 0.65686 0.0
H197 H 0.69134 0.17092 0.59997 0.0
H198 H 0.58435 0.16856 0.66332 0.0
H199 H 0.61949 0.14689 0.72046 0.0
Dy200 Dy 0.97676 0.40097 0.7196 0.0
Dy201 Dy 0.04058 0.37256 0.78165 0.0
C202 C 0.96436 0.32696 0.77358 0.0
O203 O 0.98462 0.45044 0.75869 0.0
O204 O 0.99765 0.41342 0.81113 0.0
O205 O 0.92107 0.42831 0.7104 0.0
O206 O 0.9555 0.40875 0.66206 0.0
O207 O 0.06152 0.42931 0.76046 0.0
O208 O 0.03508 0.42432 0.70105 0.0
O209 O 0.05911 0.34982 0.72304 0.0
O210 O 0.99888 0.34451 0.69751 0.0
O211 O 0.09925 0.36474 0.8015 0.0
O212 O 0.05132 0.34555 0.83639 0.0
C213 C 0.984 0.44601 0.79568 0.0
O214 O 0.94835 0.36002 0.76175 0.0
O215 O 1.00186 0.32262 0.77352 0.0
C216 C 0.88803 0.40269 0.65806 0.0
C217 C 0.82389 0.36539 0.62635 0.0
C218 C 0.84371 0.34832 0.65732 0.0
C219 C 0.87569 0.36678 0.67296 0.0
C220 C 0.86781 0.4202 0.62785 0.0
C221 C 0.83603 0.40174 0.61212 0.0
C222 C 0.92194 0.42203 0.67371 0.0
C223 C 0.06238 0.43695 0.72392 0.0
C224 C 0.03595 0.33729 0.69593 0.0
C225 C 0.10533 0.36971 0.86842 0.0
C226 C 0.13912 0.40423 0.9329 0.0
C227 C 0.1095 0.42398 0.91288 0.0
C228 C 0.0928 0.40688 0.88078 0.0
C229 C 0.1342 0.34965 0.88874 0.0
C230 C 0.15094 0.36669 0.92066 0.0
C231 C 0.08837 0.3513 0.8347 0.0
H232 H 0.83525 0.32021 0.66862 0.0
H233 H 0.89105 0.35286 0.69637 0.0
H234 H 0.87681 0.448 0.61619 0.0
H235 H 0.82106 0.41581 0.58855 0.0
H236 H 0.10001 0.45302 0.9214 0.0
H237 H 0.07037 0.42275 0.86541 0.0
H238 H 0.14397 0.32081 0.87981 0.0
H239 H 0.1733 0.35047 0.93576 0.0
Dy240 Dy 0.87365 0.72785 0.97226 0.0
Dy241 Dy 0.90307 0.78187 0.0431 0.0
C242 C 0.94208 0.70168 0.02475 0.0
O243 O 0.84909 0.70399 0.02578 0.0
O244 O 0.84461 0.76049 0.05999 0.0
O245 O 0.83622 0.68401 0.94843 0.0
O246 O 0.88472 0.70584 0.91588 0.0
O247 O 0.85709 0.81947 0.01928 0.0
O248 O 0.83344 0.78125 0.97031 0.0
O249 O 0.94126 0.79244 0.99085 0.0
O250 O 0.89355 0.78258 0.9477 0.0
O251 O 0.92126 0.83558 0.0694 0.0
O252 O 0.92557 0.78094 0.1005 0.0
C253 C 0.83278 0.72503 0.05268 0.0
O254 O 0.93326 0.70759 0.9889 0.0
O255 O 0.92357 0.72095 0.05123 0.0
C256 C 0.87087 0.63968 0.9082 0.0
C257 C 0.90412 0.56987 0.8791 0.0
C258 C 0.91993 0.58778 0.91137 0.0
C259 C 0.90345 0.62248 0.92576 0.0
C260 C 0.8536 0.62051 0.87769 0.0
C261 C 0.86994 0.58587 0.86337 0.0
C262 C 0.85792 0.67967 0.91808 0.0
C263 C 0.8339 0.81417 0.99043 0.0
C264 C 0.92652 0.79755 0.95636 0.0
C265 C 0.90582 0.8361 0.13523 0.0
C266 C 0.86471 0.8658 0.19882 0.0
C267 C 0.84665 0.86263 0.16312 0.0
C268 C 0.86694 0.84772 0.13168 0.0
C269 C 0.92382 0.83866 0.17087 0.0
C270 C 0.90342 0.85333 0.20247 0.0
C271 C 0.92676 0.81888 0.10256 0.0
H272 H 0.94628 0.57633 0.92402 0.0
H273 H 0.91729 0.63693 0.94936 0.0
H274 H 0.82848 0.63328 0.86379 0.0
H275 H 0.85667 0.57241 0.83889 0.0
H276 H 0.81676 0.87164 0.15952 0.0
H277 H 0.85223 0.84518 0.1046 0.0
H278 H 0.95364 0.82929 0.17426 0.0
H279 H 0.91818 0.85579 0.22951 0.0
Dy280 Dy 0.48115 0.64716 0.28252 0.0
Dy281 Dy 0.54702 0.62044 0.22158 0.0
C282 C 0.53617 0.57279 0.29673 0.0
O283 O 0.52086 0.69663 0.2769 0.0
O284 O 0.57476 0.65984 0.26493 0.0
O285 O 0.46858 0.67467 0.33644 0.0
O286 O 0.42192 0.65302 0.30188 0.0
O287 O 0.52503 0.67792 0.20184 0.0
O288 O 0.46377 0.6696 0.22353 0.0
O289 O 0.49004 0.59554 0.20225 0.0
O290 O 0.46213 0.59014 0.26119 0.0
O291 O 0.56825 0.61438 0.1639 0.0
O292 O 0.6031 0.59399 0.21167 0.0
C293 C 0.55831 0.69207 0.27817 0.0
O294 O 0.52229 0.60504 0.31246 0.0
O295 O 0.53895 0.56991 0.2597 0.0
C296 C 0.41608 0.64721 0.36884 0.0
C297 C 0.38487 0.61004 0.43374 0.0
C298 C 0.41862 0.59505 0.41638 0.0
C299 C 0.43401 0.61341 0.38403 0.0
C300 C 0.38287 0.66257 0.38644 0.0
C301 C 0.36739 0.64419 0.41857 0.0
C302 C 0.43193 0.66689 0.33497 0.0
C303 C 0.48795 0.68345 0.19772 0.0
C304 C 0.46235 0.58232 0.22472 0.0
C305 C 0.63591 0.62063 0.15933 0.0
C306 C 0.70212 0.65661 0.12968 0.0
C307 C 0.66881 0.67908 0.13817 0.0
C308 C 0.63596 0.66123 0.15302 0.0
C309 C 0.66928 0.59834 0.15176 0.0
C310 C 0.70212 0.61614 0.13721 0.0
C311 C 0.60196 0.60117 0.17509 0.0
H312 H 0.43251 0.56865 0.42721 0.0
H313 H 0.45975 0.60112 0.37073 0.0
H314 H 0.36882 0.68874 0.37527 0.0
H315 H 0.34161 0.65671 0.43159 0.0
H316 H 0.66778 0.71023 0.13246 0.0
H317 H 0.61055 0.67903 0.15927 0.0
H318 H 0.66992 0.5671 0.1571 0.0
H319 H 0.72754 0.59811 0.13173 0.0
Dy320 Dy 0.2972 0.46543 0.10646 0.0
Dy321 Dy 0.23426 0.5332 0.12652 0.0
C322 C 0.24047 0.45877 0.17812 0.0
O323 O 0.25956 0.47193 0.05608 0.0
O324 O 0.20521 0.48925 0.08868 0.0
O325 O 0.30678 0.40782 0.08335 0.0
O326 O 0.35536 0.44174 0.10227 0.0
O327 O 0.25892 0.55038 0.07088 0.0
O328 O 0.31828 0.52293 0.08172 0.0
O329 O 0.29161 0.55134 0.15111 0.0
O330 O 0.31788 0.49011 0.16063 0.0
O331 O 0.21366 0.59327 0.12564 0.0
O332 O 0.18004 0.54818 0.15319 0.0
C333 C 0.22198 0.47366 0.05846 0.0
O334 O 0.25432 0.4398 0.14827 0.0
O335 O 0.23989 0.49692 0.17844 0.0
C336 C 0.35832 0.37361 0.11231 0.0
C337 C 0.38873 0.3099 0.15427 0.0
C338 C 0.35303 0.32689 0.1646 0.0
C339 C 0.33803 0.35875 0.14389 0.0
C340 C 0.3934 0.35608 0.10143 0.0
C341 C 0.40852 0.32453 0.12223 0.0
C342 C 0.34359 0.40769 0.09091 0.0
C343 C 0.29623 0.55049 0.06607 0.0
C344 C 0.31819 0.52786 0.16618 0.0
C345 C 0.14525 0.59712 0.11961 0.0
C346 C 0.07753 0.62155 0.08125 0.0
C347 C 0.11341 0.6371 0.07103 0.0
C348 C 0.14698 0.62503 0.09006 0.0
C349 C 0.10945 0.58117 0.1293 0.0
C350 C 0.07607 0.59298 0.11015 0.0
C351 C 0.18029 0.58404 0.14028 0.0
H352 H 0.3374 0.31636 0.18933 0.0
H353 H 0.31087 0.37208 0.1528 0.0
H354 H 0.40934 0.36709 0.07709 0.0
H355 H 0.43595 0.31169 0.11346 0.0
H356 H 0.11538 0.65959 0.04928 0.0
H357 H 0.17413 0.63792 0.08192 0.0
H358 H 0.10713 0.55962 0.15192 0.0
H359 H 0.04894 0.58012 0.11842 0.0
Dy360 Dy 0.72923 0.98669 0.8646 0.0
Dy361 Dy 0.79081 0.05053 0.89579 0.0
C362 C 0.71231 0.03969 0.93765 0.0
O363 O 0.74013 0.02751 0.81705 0.0
O364 O 0.749 0.08009 0.85528 0.0
O365 O 0.67468 0.9778 0.83698 0.0
O366 O 0.70962 0.92786 0.85505 0.0
O367 O 0.81448 0.02878 0.84111 0.0
O368 O 0.78937 0.96756 0.84539 0.0
O369 O 0.80721 0.99102 0.92107 0.0
O370 O 0.74714 0.96383 0.92064 0.0
O371 O 0.84867 0.07038 0.90599 0.0
O372 O 0.79947 0.10827 0.91881 0.0
C373 C 0.74004 0.06528 0.82201 0.0
O374 O 0.69825 0.0284 0.90472 0.0
O375 O 0.74946 0.04213 0.94289 0.0
C376 C 0.64206 0.92315 0.86097 0.0
C377 C 0.57806 0.88879 0.89715 0.0
C378 C 0.59622 0.92088 0.91382 0.0
C379 C 0.62813 0.93782 0.89594 0.0
C380 C 0.62347 0.89183 0.84387 0.0
C381 C 0.59178 0.8748 0.86175 0.0
C382 C 0.67611 0.94002 0.84236 0.0
C383 C 0.8167 0.99141 0.83389 0.0
C384 C 0.78312 0.96319 0.93138 0.0
C385 C 0.85393 0.1381 0.89171 0.0
C386 C 0.88414 0.20066 0.84843 0.0
C387 C 0.88294 0.16273 0.83313 0.0
C388 C 0.86779 0.13185 0.85442 0.0
C389 C 0.85468 0.17599 0.90692 0.0
C390 C 0.86953 0.20702 0.88546 0.0
C391 C 0.8368 0.10592 0.91406 0.0
H392 H 0.58655 0.93206 0.94118 0.0
H393 H 0.64222 0.96204 0.90961 0.0
H394 H 0.6337 0.88027 0.81683 0.0
H395 H 0.57812 0.85039 0.84798 0.0
H396 H 0.8936 0.15696 0.80456 0.0
H397 H 0.86688 0.10309 0.84164 0.0
H398 H 0.84375 0.18158 0.93544 0.0
H399 H 0.8704 0.2358 0.89818 0.0
Dy400 Dy 0.7402 0.96308 0.39713 0.0
Dy401 Dy 0.80304 0.0272 0.3691 0.0
C402 C 0.79514 0.94872 0.32549 0.0
O403 O 0.77876 0.97188 0.44623 0.0
O404 O 0.8322 0.98565 0.41084 0.0
O405 O 0.73012 0.9063 0.4219 0.0
O406 O 0.68172 0.94333 0.4048 0.0
O407 O 0.78074 0.05005 0.42387 0.0
O408 O 0.72104 0.0229 0.41928 0.0
O409 O 0.74408 0.04579 0.34635 0.0
O410 O 0.7189 0.98469 0.34146 0.0
O411 O 0.82273 0.08626 0.36037 0.0
O412 O 0.85875 0.03672 0.34348 0.0
C413 C 0.81623 0.97382 0.44296 0.0
O414 O 0.78346 0.93326 0.35789 0.0
O415 O 0.79534 0.98661 0.321 0.0
C416 C 0.67603 0.87534 0.39607 0.0
C417 C 0.64146 0.81315 0.35695 0.0
C418 C 0.67484 0.83058 0.34222 0.0
C419 C 0.69189 0.86158 0.36154 0.0
C420 C 0.64329 0.85752 0.41121 0.0
C421 C 0.62615 0.82674 0.39187 0.0
C422 C 0.69297 0.90857 0.41618 0.0
C423 C 0.74381 0.05087 0.43136 0.0
C424 C 0.71719 0.0221 0.33396 0.0
C425 C 0.89023 0.09237 0.36606 0.0
C426 C 0.95442 0.12802 0.39978 0.0
C427 C 0.93517 0.09778 0.41892 0.0
C428 C 0.9032 0.08016 0.40222 0.0
C429 C 0.90982 0.12186 0.34661 0.0
C430 C 0.94159 0.13951 0.36326 0.0
C431 C 0.8566 0.07453 0.34809 0.0
H432 H 0.68708 0.82102 0.31526 0.0
H433 H 0.71715 0.87513 0.34933 0.0
H434 H 0.63075 0.86765 0.43786 0.0
H435 H 0.60072 0.81362 0.40419 0.0
H436 H 0.94415 0.08852 0.44717 0.0
H437 H 0.88839 0.0573 0.41762 0.0
H438 H 0.90041 0.13141 0.31857 0.0
H439 H 0.95609 0.16235 0.34755 0.0
Dy440 Dy 0.2334 0.54947 0.61305 0.0
Dy441 Dy 0.29657 0.48221 0.63411 0.0
C442 C 0.29197 0.55846 0.68203 0.0
O443 O 0.26984 0.54199 0.56186 0.0
O444 O 0.32481 0.52477 0.59331 0.0
O445 O 0.22242 0.60632 0.5884 0.0
O446 O 0.17491 0.5724 0.61065 0.0
O447 O 0.27226 0.46403 0.57903 0.0
O448 O 0.21271 0.49186 0.58911 0.0
O449 O 0.23877 0.46419 0.65936 0.0
O450 O 0.21475 0.52592 0.66873 0.0
O451 O 0.31736 0.42219 0.63696 0.0
O452 O 0.35206 0.46923 0.65886 0.0
C453 C 0.30742 0.53954 0.563 0.0
O454 O 0.27768 0.57643 0.65179 0.0
O455 O 0.29139 0.52041 0.68436 0.0
C456 C 0.17204 0.64052 0.61947 0.0
C457 C 0.14325 0.70389 0.66253 0.0
C458 C 0.1809 0.6895 0.66866 0.0
C459 C 0.19512 0.65779 0.64745 0.0
C460 C 0.13482 0.65538 0.61281 0.0
C461 C 0.12049 0.68677 0.6342 0.0
C462 C 0.18599 0.60635 0.59793 0.0
C463 C 0.235 0.46433 0.57374 0.0
C464 C 0.21232 0.48822 0.67411 0.0
C465 C 0.38497 0.41641 0.63007 0.0
C466 C 0.45019 0.38499 0.59212 0.0
C467 C 0.43377 0.4208 0.58011 0.0
C468 C 0.40119 0.43632 0.59884 0.0
C469 C 0.40171 0.38111 0.64247 0.0
C470 C 0.434 0.3655 0.62366 0.0
C471 C 0.3509 0.43222 0.65018 0.0
H472 H 0.19884 0.70203 0.69051 0.0
H473 H 0.22391 0.64646 0.65322 0.0
H474 H 0.11668 0.64241 0.59137 0.0
H475 H 0.09148 0.69762 0.6287 0.0
H476 H 0.4455 0.43623 0.55573 0.0
H477 H 0.38854 0.46369 0.58886 0.0
H478 H 0.38971 0.36553 0.66663 0.0
H479 H 0.44635 0.33805 0.63379 0.0
C480 C 0.17956 0.3707 0.56755 0.0
C481 C 0.19859 0.35175 0.53715 0.0
H482 H 0.17432 0.42292 0.60115 0.0
C483 C 0.22762 0.37149 0.51719 0.0
H484 H 0.15665 0.35634 0.58294 0.0
C485 C 0.23817 0.40904 0.52804 0.0
C486 C 0.21887 0.42825 0.55808 0.0
H487 H 0.24225 0.35776 0.49321 0.0
H488 H 0.2617 0.42302 0.51314 0.0
C489 C 0.18915 0.40897 0.57748 0.0
C490 C 0.87017 0.99344 0.78667 0.0
C491 C 0.85415 0.97668 0.81958 0.0
H492 H 0.91945 0.99684 0.74974 0.0
C493 C 0.8773 0.95213 0.8426 0.0
H494 H 0.8532 0.01346 0.7692 0.0
C495 C 0.91591 0.94433 0.83263 0.0
C496 C 0.93159 0.96015 0.799 0.0
H497 H 0.86592 0.94007 0.86891 0.0
H498 H 0.93311 0.92502 0.85056 0.0
C499 C 0.90825 0.98464 0.77607 0.0
C500 C 0.31783 0.63766 1.00403 0.0
C501 C 0.33083 0.66498 0.03097 0.0
H502 H 0.29753 0.57961 0.99399 0.0
C503 C 0.33371 0.65332 0.06934 0.0
H504 H 0.31508 0.64552 0.97417 0.0
C505 C 0.32459 0.6151 0.08027 0.0
C506 C 0.31245 0.58779 0.05314 0.0
H507 H 0.34331 0.67354 0.09086 0.0
H508 H 0.32577 0.60738 0.11021 0.0
C509 C 0.30841 0.59963 1.01509 0.0
C510 C 0.63007 0.03835 0.27161 0.0
C511 C 0.60343 0.05577 0.29724 0.0
H512 H 0.68729 0.01467 0.26309 0.0
C513 C 0.61526 0.06284 0.33483 0.0
H514 H 0.62196 0.03236 0.24242 0.0
C515 C 0.65319 0.0539 0.34608 0.0
C516 C 0.67984 0.03743 0.3201 0.0
H517 H 0.59555 0.07605 0.3553 0.0
H518 H 0.66134 0.05883 0.37543 0.0
C519 C 0.6677 0.02886 0.28309 0.0
C520 C 0.7246 0.13927 0.49274 0.0
C521 C 0.70926 0.16638 0.46609 0.0
H522 H 0.74687 0.08106 0.50269 0.0
C523 C 0.7042 0.15424 0.42823 0.0
H524 H 0.72903 0.14755 0.52218 0.0
C525 C 0.7133 0.11569 0.41759 0.0
C526 C 0.72783 0.08863 0.44448 0.0
H527 H 0.69264 0.17426 0.40696 0.0
H528 H 0.7101 0.10738 0.38801 0.0
C529 C 0.73417 0.10096 0.48192 0.0
C530 C 0.12585 0.42397 0.69241 0.0
C531 C 0.09935 0.45084 0.70857 0.0
H532 H 0.18304 0.41404 0.67022 0.0
C533 C 0.11138 0.48878 0.71643 0.0
H534 H 0.11789 0.39388 0.68801 0.0
C535 C 0.14869 0.50027 0.70664 0.0
C536 C 0.17516 0.47376 0.68953 0.0
H537 H 0.09196 0.5095 0.7303 0.0
H538 H 0.15668 0.53018 0.71221 0.0
C539 C 0.16345 0.43525 0.68308 0.0
C540 C 0.80088 0.91995 0.98626 0.0
C541 C 0.79724 0.9257 0.94692 0.0
H542 H 0.81366 0.87924 0.0312 0.0
C543 C 0.80073 0.89342 0.92234 0.0
H544 H 0.79679 0.94419 1.00576 0.0
C545 C 0.8095 0.85607 0.93671 0.0
C546 C 0.81471 0.85034 0.97604 0.0
H547 H 0.79678 0.89718 0.89187 0.0
H548 H 0.81397 0.83218 0.91688 0.0
C549 C 0.80965 0.88262 1.0007 0.0
C550 C 0.39933 0.54894 0.23359 0.0
C551 C 0.42693 0.56529 0.20882 0.0
H552 H 0.3428 0.5248 0.23945 0.0
C553 C 0.41793 0.56955 0.16998 0.0
H554 H 0.40536 0.54505 0.2637 0.0
C555 C 0.3817 0.55883 0.15652 0.0
C556 C 0.35392 0.54367 0.18159 0.0
H557 H 0.4385 0.58189 0.15014 0.0
H558 H 0.37576 0.5615 0.12631 0.0
C559 C 0.36331 0.53788 0.22 0.0
C560 C 0.53566 0.21893 0.36347 0.0
C561 C 0.5562 0.18908 0.34439 0.0
H562 H 0.53149 0.2549 0.41333 0.0
C563 C 0.58756 0.17056 0.3627 0.0
H564 H 0.51094 0.23318 0.35018 0.0
C565 C 0.59782 0.18138 0.39976 0.0
C566 C 0.57777 0.21185 0.41841 0.0
H567 H 0.60342 0.14705 0.34879 0.0
H568 H 0.62221 0.16691 0.41328 0.0
C569 C 0.54685 0.23076 0.3998 0.0
C570 C 0.07444 0.34023 0.5947 0.0
C571 C 0.06867 0.30169 0.58256 0.0
H572 H 0.06953 0.38131 0.64072 0.0
C573 C 0.05301 0.27478 0.60883 0.0
H574 H 0.08622 0.36174 0.57533 0.0
C575 C 0.04401 0.28588 0.64628 0.0
C576 C 0.05117 0.32388 0.65871 0.0
H577 H 0.048 0.24481 0.60058 0.0
H578 H 0.03121 0.2648 0.6655 0.0
C579 C 0.06581 0.35117 0.63243 0.0
C580 C 1.00289 0.82137 0.88272 0.0
C581 C 0.97946 0.83518 0.85244 0.0
H582 H 1.00472 0.799 0.94034 0.0
C583 C 0.93985 0.84051 0.85886 0.0
H584 H 0.03374 0.81754 0.8788 0.0
C585 C 0.92385 0.83167 0.89425 0.0
C586 C 0.94671 0.81606 0.92399 0.0
H587 H 0.92107 0.85192 0.83666 0.0
H588 H 0.89295 0.83563 0.89783 0.0
C589 C 0.98658 0.8116 0.91822 0.0
C590 C 0.44528 0.67692 0.14037 0.0
C591 C 0.47497 0.69632 0.15939 0.0
H592 H 0.41453 0.66977 0.08773 0.0
C593 C 0.49699 0.72348 0.13893 0.0
H594 H 0.42842 0.6552 0.15519 0.0
C595 C 0.48889 0.73194 0.1007 0.0
C596 C 0.45945 0.71246 0.08152 0.0
H597 H 0.52055 0.7383 0.15261 0.0
H598 H 0.50533 0.75424 0.08619 0.0
C599 C 0.43793 0.68455 0.10159 0.0
C600 C 0.20174 0.37993 0.24487 0.0
C601 C 0.18748 0.4029 0.27532 0.0
H602 H 0.22971 0.37941 0.18983 0.0
C603 C 0.19293 0.4434 0.2742 0.0
H604 H 0.19798 0.34856 0.245 0.0
C605 C 0.21094 0.46083 0.24307 0.0
C606 C 0.22407 0.43836 0.21186 0.0
H607 H 0.18312 0.46183 0.29751 0.0
H608 H 0.21402 0.49229 0.24342 0.0
C609 C 0.2198 0.39755 0.21329 0.0
C610 C 0.89687 0.93158 0.50454 0.0
C611 C 0.87956 0.93291 0.54098 0.0
H612 H 0.89074 0.94441 0.44465 0.0
C613 C 0.8427 0.9501 0.54487 0.0
H614 H 0.9254 0.9187 0.5008 0.0
C615 C 0.82297 0.96435 0.51301 0.0
C616 C 0.83969 0.9622 0.47643 0.0
H617 H 0.82846 0.95128 0.57244 0.0
H618 H 0.79416 0.97653 0.51701 0.0
C619 C 0.87722 0.9465 0.47252 0.0
C620 C 0.31059 0.62081 0.71569 0.0
C621 C 0.31019 0.57974 0.71386 0.0
H622 H 0.32956 0.6711 0.74675 0.0
C623 C 0.32834 0.55792 0.74307 0.0
H624 H 0.29678 0.63843 0.69373 0.0
C625 C 0.34694 0.57635 0.77289 0.0
C626 C 0.348 0.61724 0.77464 0.0
H627 H 0.32863 0.52624 0.74293 0.0
H628 H 0.36043 0.55841 0.79482 0.0
C629 C 0.3292 0.63945 0.74604 0.0
C630 C 0.63269 0.08577 0.99729 0.0
C631 C 0.64663 0.0782 0.03434 0.0
H632 H 0.64224 0.07841 0.93699 0.0
C633 C 0.6798 0.05459 0.03892 0.0
H634 H 0.60699 0.10375 0.99309 0.0
C635 C 0.69991 0.04065 1.00716 0.0
C636 C 0.68702 0.04953 0.97014 0.0
H637 H 0.69137 0.04852 0.06704 0.0
H638 H 0.72633 0.02383 1.01158 0.0
C639 C 0.65258 0.07112 0.96532 0.0
C640 C 0.72063 0.09669 0.72105 0.0
C641 C 0.69626 0.12945 0.72625 0.0
H642 H 0.75371 0.05095 0.74761 0.0
C643 C 0.68963 0.14364 0.7634 0.0
H644 H 0.72602 0.08496 0.69281 0.0
C645 C 0.70596 0.12432 0.79494 0.0
C646 C 0.72838 0.09019 0.78962 0.0
H647 H 0.67111 0.16904 0.76805 0.0
H648 H 0.69937 0.13478 0.82341 0.0
C649 C 0.7363 0.07714 0.75242 0.0
C650 C 0.15914 0.46024 0.02463 0.0
C651 C 0.19959 0.45706 0.02652 0.0
H652 H 0.10801 0.44606 0.99334 0.0
C653 C 0.21952 0.43718 0.99714 0.0
H654 H 0.14296 0.47545 0.04672 0.0
C655 C 0.19974 0.4205 0.96699 0.0
C656 C 0.15938 0.42316 0.9651 0.0
H657 H 0.25067 0.43413 0.99737 0.0
H658 H 0.21625 0.40566 0.94488 0.0
C659 C 0.13919 0.44359 0.99402 0.0
C660 C 0.80639 0.9395 0.25605 0.0
C661 C 0.80911 0.92441 0.29334 0.0
H662 H 0.82169 0.93285 0.19728 0.0
C663 C 0.82815 0.8883 0.29926 0.0
H664 H 0.79173 0.9672 0.25057 0.0
C665 C 0.8458 0.86866 0.2685 0.0
C666 C 0.84397 0.88451 0.23135 0.0
H667 H 0.83079 0.87613 0.32774 0.0
H668 H 0.86123 0.84137 0.27379 0.0
C669 C 0.8234 0.91972 0.22544 0.0
C670 C 0.30803 0.56714 0.49716 0.0
C671 C 0.32896 0.55463 0.52947 0.0
H672 H 0.30924 0.59372 0.44199 0.0
C673 C 0.36928 0.55841 0.5293 0.0
H674 H 0.277 0.56428 0.49582 0.0
C675 C 0.38794 0.57562 0.49786 0.0
C676 C 0.36648 0.58945 0.46634 0.0
H677 H 0.38623 0.54892 0.55365 0.0
H678 H 0.41891 0.57915 0.49868 0.0
C679 C 0.32648 0.58428 0.46617 0.0
C680 C 0.26578 0.21298 0.44997 0.0
C681 C 0.23129 0.22058 0.43 0.0
H682 H 0.32253 0.18775 0.4491 0.0
C683 C 0.22928 0.21003 0.39133 0.0
H684 H 0.26877 0.22125 0.47961 0.0
C685 C 0.26064 0.19054 0.37369 0.0
C686 C 0.29425 0.18124 0.39458 0.0
H687 H 0.20317 0.21558 0.37518 0.0
H688 H 0.25809 0.18149 0.34424 0.0
C689 C 0.29671 0.19357 0.43256 0.0
C690 C 0.06753 0.05244 0.67601 0.0
C691 C 0.08709 0.04477 0.64165 0.0
H692 H 0.03867 0.02867 0.72454 0.0
C693 C 0.08991 1.00607 0.62832 0.0
H694 H 0.06519 0.08192 0.68709 0.0
C695 C 0.07428 0.97541 0.64969 0.0
C696 C 0.05642 0.98309 0.68497 0.0
H697 H 0.1047 0.99952 0.60175 0.0
H698 H 0.07765 0.94568 0.63948 0.0
C699 C 0.05258 0.02191 0.69754 0.0
C700 C 0.27425 0.82937 0.87045 0.0
C701 C 0.24464 0.84787 0.89179 0.0
H702 H 0.3272 0.79537 0.87208 0.0
C703 C 0.2451 0.84455 0.93163 0.0
H704 H 0.27448 0.83142 0.83959 0.0
C705 C 0.27466 0.82402 0.94995 0.0
C706 C 0.30493 0.80619 0.92904 0.0
H707 H 0.22233 0.85772 0.94884 0.0
H708 H 0.27376 0.82261 0.98083 0.0
C709 C 0.30438 0.80885 0.88898 0.0
C710 C 0.47124 0.03257 0.14987 0.0
C711 C 0.47242 0.03148 0.18997 0.0
H712 H 0.45323 1.00366 0.09872 0.0
C713 C 0.4573 0.99888 0.20916 0.0
H714 H 0.48276 0.05718 0.13427 0.0
C715 C 0.44054 0.96867 0.18905 0.0
C716 C 0.43842 0.97001 0.14913 0.0
H717 H 0.45789 0.9967 0.24001 0.0
H718 H 0.42916 0.94413 0.20489 0.0
C719 C 0.45448 1.00194 0.12957 0.0
C720 C 0.79199 0.34268 0.56713 0.0
C721 C 0.79231 0.34447 0.60708 0.0
H722 H 0.76348 0.32349 0.51725 0.0
C723 C 0.76261 0.32629 0.62778 0.0
H724 H 0.8148 0.35571 0.55037 0.0
C725 C 0.73266 0.30749 0.60862 0.0
C726 C 0.7323 0.30625 0.56851 0.0
H727 H 0.76218 0.32724 0.65868 0.0
H728 H 0.70986 0.29414 0.6251 0.0
C729 C 0.76254 0.32385 0.54815 0.0
C730 C 0.96202 0.47581 0.85861 0.0
C731 C 0.96525 0.47762 0.81859 0.0
H732 H 0.93996 0.50363 0.90949 0.0
C733 C 0.94884 0.51006 0.79938 0.0
H734 H 0.97436 0.45129 0.87428 0.0
C735 C 0.92916 0.53944 0.81922 0.0
C736 C 0.92522 0.53759 0.85904 0.0
H737 H 0.95077 0.51286 0.76862 0.0
H738 H 0.91728 0.56398 0.80321 0.0
C739 C 0.94234 0.50573 0.87872 0.0
C740 C 0.78094 0.72826 0.10337 0.0
C741 C 0.8001 0.70795 0.07386 0.0
H742 H 0.73499 0.72777 0.14466 0.0
C743 C 0.78697 0.67087 0.06337 0.0
H744 H 0.79033 0.7569 0.11205 0.0
C745 C 0.75538 0.65452 0.0816 0.0
C746 C 0.73608 0.67459 0.11109 0.0
H747 H 0.80072 0.65442 0.04056 0.0
H748 H 0.74564 0.62632 0.07199 0.0
C749 C 0.74915 0.71169 0.12184 0.0
C750 C 0.57467 0.47187 0.31988 0.0
C751 C 0.58693 0.47574 0.35769 0.0
H752 H 0.54838 0.49898 0.27162 0.0
C753 C 0.57869 0.51088 0.37718 0.0
H754 H 0.57971 0.44484 0.30447 0.0
C755 C 0.56048 0.54241 0.3582 0.0
C756 C 0.55026 0.53901 0.3196 0.0
H757 H 0.58773 0.5145 0.40648 0.0
H758 H 0.55587 0.56976 0.37317 0.0
C759 C 0.55656 0.50299 0.30114 0.0
C760 C 0.38671 0.24501 0.18883 0.0
C761 C 0.40687 0.27864 0.17783 0.0
H762 H 0.3902 0.18814 0.21534 0.0
C763 C 0.44555 0.28211 0.18844 0.0
H764 H 0.35673 0.2418 0.1811 0.0
C765 C 0.46438 0.25198 0.20797 0.0
C766 C 0.44514 0.21732 0.21731 0.0
H767 H 0.46151 0.30807 0.18113 0.0
H768 H 0.49452 0.25566 0.2149 0.0
C769 C 0.4058 0.21441 0.20838 0.0
C770 C 0.90479 0.30117 0.80598 0.0
C771 C 0.94119 0.29451 0.78917 0.0
H772 H 0.85817 0.27668 0.83836 0.0
C773 C 0.95736 0.25651 0.79016 0.0
H774 H 0.8917 0.33018 0.8058 0.0
C775 C 0.93826 0.22608 0.80845 0.0
C776 C 0.9026 0.23286 0.82663 0.0
H777 H 0.98531 0.25033 0.77737 0.0
H778 H 0.95214 0.19746 0.8095 0.0
C779 C 0.88581 0.27066 0.82487 0.0
C780 C 0.03838 0.64757 0.02574 0.0
C781 C 0.04128 0.63774 0.06473 0.0
H782 H 1.00397 0.6751 0.98194 0.0
C783 C 1.0098 0.64573 0.08895 0.0
H784 H 0.06209 0.64136 1.00634 0.0
C785 C 0.97688 0.66453 0.07507 0.0
C786 C 0.97454 0.67607 0.03662 0.0
H787 H 1.01118 0.6391 0.11918 0.0
H788 H 0.95372 0.6713 0.09499 0.0
C789 C 1.00508 0.66648 1.01171 0.0
C790 C 0.64137 0.75074 0.31832 0.0
C791 C 0.62122 0.78236 0.33531 0.0
H792 H 0.63742 0.69697 0.28698 0.0
C793 C 0.58096 0.78455 0.33183 0.0
H794 H 0.67247 0.7483 0.32056 0.0
C795 C 0.56112 0.7556 0.31266 0.0
C796 C 0.58088 0.72336 0.29644 0.0
H797 H 0.56463 0.80886 0.34389 0.0
H798 H 0.52999 0.75844 0.31106 0.0
C799 C 0.62134 0.72135 0.29919 0.0
C800 C 0.54829 0.36804 0.54494 0.0
C801 C 0.54707 0.3277 0.5376 0.0
H802 H 0.51821 0.41819 0.56828 0.0
C803 C 0.51275 0.30771 0.5453 0.0
H804 H 0.57425 0.38424 0.53914 0.0
C805 C 0.48122 0.32683 0.56184 0.0
C806 C 0.48292 0.36655 0.5711 0.0
H807 H 0.51037 0.27679 0.53938 0.0
H808 H 0.45556 0.31025 0.568 0.0
C809 C 0.51631 0.3874 0.56155 0.0
C810 C 0.08991 0.73104 0.70244 0.0
C811 C 0.12667 0.73555 0.68645 0.0
H812 H 0.04296 0.75753 0.73258 0.0
C813 C 0.14614 0.7708 0.69202 0.0
H814 H 0.07468 0.70384 0.69934 0.0
C815 C 0.12785 0.802 0.71121 0.0
C816 C 0.09001 0.79807 0.72508 0.0
H817 H 0.17467 0.77482 0.68007 0.0
H818 H 0.14256 0.82955 0.71361 0.0
C819 C 0.07186 0.76184 0.7216 0.0
C820 C 0.48533 0.86777 0.95238 0.0
C821 C 0.48617 0.82664 0.95307 0.0
H822 H 0.51393 0.92002 0.93403 0.0
C823 C 0.51799 0.80677 0.93657 0.0
H824 H 0.46134 0.88395 0.96491 0.0
C825 C 0.5476 0.82714 0.91899 0.0
C826 C 0.54655 0.8681 0.91737 0.0
H827 H 0.52005 0.77512 0.93669 0.0
H828 H 0.57152 0.81066 0.90664 0.0
C829 C 0.51543 0.88837 0.9348 0.0
C830 C 0.0163 0.12959 0.43796 0.0
C831 C 0.98631 0.14932 0.41831 0.0
H832 H 0.06951 0.13471 0.46889 0.0
C833 C 0.9868 0.19026 0.41607 0.0
H834 H 0.01669 0.09798 0.44011 0.0
C835 C 0.01663 0.21104 0.43239 0.0
C836 C 0.04708 0.19159 0.4515 0.0
H837 H 0.96384 0.20644 0.40182 0.0
H838 H 0.01575 0.24261 0.42968 0.0
C839 C 0.04658 0.15056 0.45427 0.0
loop_
_geom_bond_atom_site_label_1
_geom_bond_atom_site_label_2
_geom_bond_distance
_geom_bond_site_symmetry_2
_ccdc_geom_bond_type
Dy0 O3 2.307 . S
Dy0 O5 2.395 . S
Dy0 O6 2.379 . S
Dy0 O8 2.339 . S
Dy0 O10 2.298 . S
Dy0 O14 2.275 . S
Dy0 C22 2.738 . S
Dy1 O4 2.298 . S
Dy1 O7 2.275 . S
Dy1 O9 2.307 . S
Dy1 O11 2.395 . S
Dy1 O12 2.379 . S
Dy1 O15 2.339 . S
Dy1 C31 2.738 . S
C2 O14 1.254 . S
C2 O15 1.257 . S
O3 Dy0 2.307 . S
O3 C13 1.266 . S
O4 Dy1 2.298 . S
O4 C13 1.236 . S
O5 Dy0 2.395 . S
O5 C22 1.255 . S
O6 Dy0 2.379 . S
O6 C22 1.249 . S
O7 Dy1 2.275 . S
O7 C23 1.254 . S
O8 Dy0 2.339 . S
O8 C23 1.257 . S
O9 Dy1 2.307 . S
O9 C24 1.266 . S
O10 Dy0 2.298 . S
O10 C24 1.236 . S
O11 Dy1 2.395 . S
O11 C31 1.255 . S
O12 Dy1 2.379 . S
O12 C31 1.249 . S
C13 O3 1.266 . S
C13 O4 1.236 . S
O14 Dy0 2.275 . S
O14 C2 1.254 . S
O15 Dy1 2.339 . S
O15 C2 1.257 . S
C16 C19 1.344 . S
C16 C20 1.328 . S
C16 C22 1.516 . S
C17 C18 1.304 . S
C17 C21 1.323 . S
C18 C17 1.304 . S
C18 C19 1.371 . S
C18 H32 0.930 . S
C19 C16 1.344 . S
C19 C18 1.371 . S
C19 H33 0.931 . S
C20 C16 1.328 . S
C20 C21 1.433 . S
C20 H34 0.931 . S
C21 C17 1.323 . S
C21 C20 1.433 . S
C21 H35 0.933 . S
C22 Dy0 2.738 . S
C22 O5 1.255 . S
C22 O6 1.249 . S
C22 C16 1.516 . S
C23 O7 1.254 . S
C23 O8 1.257 . S
C24 O9 1.266 . S
C24 O10 1.236 . S
C25 C28 1.344 . S
C25 C29 1.328 . S
C25 C31 1.516 . S
C26 C27 1.304 . S
C26 C30 1.323 . S
C27 C26 1.304 . S
C27 C28 1.371 . S
C27 H36 0.930 . S
C28 C25 1.344 . S
C28 C27 1.371 . S
C28 H37 0.931 . S
C29 C25 1.328 . S
C29 C30 1.433 . S
C29 H38 0.931 . S
C30 C26 1.323 . S
C30 C29 1.433 . S
C30 H39 0.933 . S
C31 Dy1 2.738 . S
C31 O11 1.255 . S
C31 O12 1.249 . S
C31 C25 1.516 . S
H32 C18 0.930 . S
H33 C19 0.931 . S
H34 C20 0.931 . S
H35 C21 0.933 . S
H36 C27 0.930 . S
H37 C28 0.931 . S
H38 C29 0.931 . S
H39 C30 0.933 . S
Dy40 O43 2.307 . S
Dy40 O45 2.395 . S
Dy40 O46 2.379 . S
Dy40 O48 2.339 . S
Dy40 O50 2.298 . S
Dy40 O54 2.275 . S
Dy40 C62 2.738 . S
Dy41 O44 2.298 1_655 S
Dy41 O47 2.275 . S
Dy41 O49 2.307 . S
Dy41 O51 2.395 . S
Dy41 O52 2.379 . S
Dy41 O55 2.339 1_655 S
Dy41 C71 2.738 . S
C42 O54 1.254 . S
C42 O55 1.257 . S
O43 Dy40 2.307 . S
O43 C53 1.266 . S
O44 Dy41 2.298 1_455 S
O44 C53 1.236 . S
O45 Dy40 2.395 . S
O45 C62 1.255 . S
O46 Dy40 2.379 . S
O46 C62 1.249 . S
O47 Dy41 2.275 . S
O47 C63 1.254 . S
O48 Dy40 2.339 . S
O48 C63 1.257 1_455 S
O49 Dy41 2.307 . S
O49 C64 1.266 . S
O50 Dy40 2.298 . S
O50 C64 1.236 1_455 S
O51 Dy41 2.395 . S
O51 C71 1.255 . S
O52 Dy41 2.379 . S
O52 C71 1.249 . S
C53 O43 1.266 . S
C53 O44 1.236 . S
O54 Dy40 2.275 . S
O54 C42 1.254 . S
O55 Dy41 2.339 1_455 S
O55 C42 1.257 . S
C56 C59 1.344 . S
C56 C60 1.328 . S
C56 C62 1.516 . S
C57 C58 1.304 . S
C57 C61 1.323 . S
C58 C57 1.304 . S
C58 C59 1.371 . S
C58 H72 0.930 . S
C59 C56 1.344 . S
C59 C58 1.371 . S
C59 H73 0.931 . S
C60 C56 1.328 . S
C60 C61 1.433 . S
C60 H74 0.931 . S
C61 C57 1.323 . S
C61 C60 1.433 . S
C61 H75 0.933 . S
C62 Dy40 2.738 . S
C62 O45 1.255 . S
C62 O46 1.249 . S
C62 C56 1.516 . S
C63 O47 1.254 . S
C63 O48 1.257 1_655 S
C64 O49 1.266 . S
C64 O50 1.236 1_655 S
C65 C68 1.344 . S
C65 C69 1.328 . S
C65 C71 1.516 . S
C66 C67 1.304 . S
C66 C70 1.323 . S
C67 C66 1.304 . S
C67 C68 1.371 . S
C67 H76 0.930 . S
C68 C65 1.344 . S
C68 C67 1.371 . S
C68 H77 0.931 . S
C69 C65 1.328 . S
C69 C70 1.433 . S
C69 H78 0.931 . S
C70 C66 1.323 . S
C70 C69 1.433 . S
C70 H79 0.933 . S
C71 Dy41 2.738 . S
C71 O51 1.255 . S
C71 O52 1.249 . S
C71 C65 1.516 . S
H72 C58 0.930 . S
H73 C59 0.931 . S
H74 C60 0.931 . S
H75 C61 0.933 . S
H76 C67 0.930 . S
H77 C68 0.931 . S
H78 C69 0.931 . S
H79 C70 0.933 . S
Dy80 O83 2.307 . S
Dy80 O85 2.395 . S
Dy80 O86 2.379 . S
Dy80 O88 2.339 . S
Dy80 O90 2.298 . S
Dy80 O94 2.275 . S
Dy80 C102 2.738 . S
Dy81 O84 2.298 1_554 S
Dy81 O87 2.275 . S
Dy81 O89 2.307 . S
Dy81 O91 2.395 . S
Dy81 O92 2.379 . S
Dy81 O95 2.339 1_554 S
Dy81 C111 2.738 . S
C82 O94 1.254 . S
C82 O95 1.257 . S
O83 Dy80 2.307 . S
O83 C93 1.266 . S
O84 Dy81 2.298 1_556 S
O84 C93 1.236 . S
O85 Dy80 2.395 . S
O85 C102 1.255 . S
O86 Dy80 2.379 . S
O86 C102 1.249 . S
O87 Dy81 2.275 . S
O87 C103 1.254 . S
O88 Dy80 2.339 . S
O88 C103 1.257 1_556 S
O89 Dy81 2.307 . S
O89 C104 1.266 1_554 S
O90 Dy80 2.298 . S
O90 C104 1.236 . S
O91 Dy81 2.395 . S
O91 C111 1.255 . S
O92 Dy81 2.379 . S
O92 C111 1.249 . S
C93 O83 1.266 . S
C93 O84 1.236 . S
O94 Dy80 2.275 . S
O94 C82 1.254 . S
O95 Dy81 2.339 1_556 S
O95 C82 1.257 . S
C96 C99 1.344 . S
C96 C100 1.328 . S
C96 C102 1.516 . S
C97 C98 1.304 . S
C97 C101 1.323 . S
C98 C97 1.304 . S
C98 C99 1.371 . S
C98 H112 0.930 . S
C99 C96 1.344 . S
C99 C98 1.371 . S
C99 H113 0.931 . S
C100 C96 1.328 . S
C100 C101 1.433 . S
C100 H114 0.931 . S
C101 C97 1.323 . S
C101 C100 1.433 . S
C101 H115 0.933 . S
C102 Dy80 2.738 . S
C102 O85 1.255 . S
C102 O86 1.249 . S
C102 C96 1.516 . S
C103 O87 1.254 . S
C103 O88 1.257 1_554 S
C104 O89 1.266 1_556 S
C104 O90 1.236 . S
C105 C108 1.344 . S
C105 C109 1.328 . S
C105 C111 1.516 . S
C106 C107 1.304 . S
C106 C110 1.323 . S
C107 C106 1.304 . S
C107 C108 1.371 . S
C107 H116 0.930 . S
C108 C105 1.344 . S
C108 C107 1.371 . S
C108 H117 0.931 . S
C109 C105 1.328 . S
C109 C110 1.433 . S
C109 H118 0.931 . S
C110 C106 1.323 . S
C110 C109 1.433 . S
C110 H119 0.933 . S
C111 Dy81 2.738 . S
C111 O91 1.255 . S
C111 O92 1.249 . S
C111 C105 1.516 . S
H112 C98 0.930 . S
H113 C99 0.931 . S
H114 C100 0.931 . S
H115 C101 0.933 . S
H116 C107 0.930 . S
H117 C108 0.931 . S
H118 C109 0.931 . S
H119 C110 0.933 . S
Dy120 O123 2.307 . S
Dy120 O125 2.395 . S
Dy120 O126 2.379 . S
Dy120 O128 2.339 . S
Dy120 O130 2.298 . S
Dy120 O134 2.275 . S
Dy120 C142 2.738 . S
Dy121 O124 2.298 . S
Dy121 O127 2.275 . S
Dy121 O129 2.307 . S
Dy121 O131 2.395 . S
Dy121 O132 2.379 . S
Dy121 O135 2.339 . S
Dy121 C151 2.738 . S
C122 O134 1.254 . S
C122 O135 1.257 . S
O123 Dy120 2.307 . S
O123 C133 1.266 . S
O124 Dy121 2.298 . S
O124 C133 1.236 . S
O125 Dy120 2.395 . S
O125 C142 1.255 . S
O126 Dy120 2.379 . S
O126 C142 1.249 . S
O127 Dy121 2.275 . S
O127 C143 1.254 . S
O128 Dy120 2.339 . S
O128 C143 1.257 . S
O129 Dy121 2.307 . S
O129 C144 1.266 . S
O130 Dy120 2.298 . S
O130 C144 1.236 . S
O131 Dy121 2.395 . S
O131 C151 1.255 . S
O132 Dy121 2.379 . S
O132 C151 1.249 . S
C133 O123 1.266 . S
C133 O124 1.236 . S
O134 Dy120 2.275 . S
O134 C122 1.254 . S
O135 Dy121 2.339 . S
O135 C122 1.257 . S
C136 C139 1.344 . S
C136 C140 1.328 . S
C136 C142 1.516 . S
C137 C138 1.304 . S
C137 C141 1.323 . S
C138 C137 1.304 . S
C138 C139 1.371 . S
C138 H152 0.930 . S
C139 C136 1.344 . S
C139 C138 1.371 . S
C139 H153 0.931 . S
C140 C136 1.328 . S
C140 C141 1.433 . S
C140 H154 0.931 . S
C141 C137 1.323 . S
C141 C140 1.433 . S
C141 H155 0.933 . S
C142 Dy120 2.738 . S
C142 O125 1.255 . S
C142 O126 1.249 . S
C142 C136 1.516 . S
C143 O127 1.254 . S
C143 O128 1.257 . S
C144 O129 1.266 . S
C144 O130 1.236 . S
C145 C148 1.344 . S
C145 C149 1.328 . S
C145 C151 1.516 . S
C146 C147 1.304 . S
C146 C150 1.323 . S
C147 C146 1.304 . S
C147 C148 1.371 . S
C147 H156 0.930 . S
C148 C145 1.344 . S
C148 C147 1.371 . S
C148 H157 0.931 . S
C149 C145 1.328 . S
C149 C150 1.433 . S
C149 H158 0.931 . S
C150 C146 1.323 . S
C150 C149 1.433 . S
C150 H159 0.933 . S
C151 Dy121 2.738 . S
C151 O131 1.255 . S
C151 O132 1.249 . S
C151 C145 1.516 . S
H152 C138 0.930 . S
H153 C139 0.931 . S
H154 C140 0.931 . S
H155 C141 0.933 . S
H156 C147 0.930 . S
H157 C148 0.931 . S
H158 C149 0.931 . S
H159 C150 0.933 . S
Dy160 O163 2.307 . S
Dy160 O165 2.395 . S
Dy160 O166 2.379 . S
Dy160 O168 2.339 . S
Dy160 O170 2.298 . S
Dy160 O174 2.275 . S
Dy160 C182 2.738 . S
Dy161 O164 2.298 . S
Dy161 O167 2.275 . S
Dy161 O169 2.307 . S
Dy161 O171 2.395 . S
Dy161 O172 2.379 . S
Dy161 O175 2.339 . S
Dy161 C191 2.738 . S
C162 O174 1.254 . S
C162 O175 1.257 . S
O163 Dy160 2.307 . S
O163 C173 1.266 . S
O164 Dy161 2.298 . S
O164 C173 1.236 . S
O165 Dy160 2.395 . S
O165 C182 1.255 . S
O166 Dy160 2.379 . S
O166 C182 1.249 . S
O167 Dy161 2.275 . S
O167 C183 1.254 . S
O168 Dy160 2.339 . S
O168 C183 1.257 . S
O169 Dy161 2.307 . S
O169 C184 1.266 . S
O170 Dy160 2.298 . S
O170 C184 1.236 . S
O171 Dy161 2.395 . S
O171 C191 1.255 . S
O172 Dy161 2.379 . S
O172 C191 1.249 . S
C173 O163 1.266 . S
C173 O164 1.236 . S
O174 Dy160 2.275 . S
O174 C162 1.254 . S
O175 Dy161 2.339 . S
O175 C162 1.257 . S
C176 C179 1.344 . S
C176 C180 1.328 . S
C176 C182 1.516 . S
C177 C178 1.304 . S
C177 C181 1.323 . S
C178 C177 1.304 . S
C178 C179 1.371 . S
C178 H192 0.930 . S
C179 C176 1.344 . S
C179 C178 1.371 . S
C179 H193 0.931 . S
C180 C176 1.328 . S
C180 C181 1.433 . S
C180 H194 0.931 . S
C181 C177 1.323 . S
C181 C180 1.433 . S
C181 H195 0.933 . S
C182 Dy160 2.738 . S
C182 O165 1.255 . S
C182 O166 1.249 . S
C182 C176 1.516 . S
C183 O167 1.254 . S
C183 O168 1.257 . S
C184 O169 1.266 . S
C184 O170 1.236 . S
C185 C188 1.344 . S
C185 C189 1.328 . S
C185 C191 1.516 . S
C186 C187 1.304 . S
C186 C190 1.323 . S
C187 C186 1.304 . S
C187 C188 1.371 . S
C187 H196 0.930 . S
C188 C185 1.344 . S
C188 C187 1.371 . S
C188 H197 0.931 . S
C189 C185 1.328 . S
C189 C190 1.433 . S
C189 H198 0.931 . S
C190 C186 1.323 . S
C190 C189 1.433 . S
C190 H199 0.933 . S
C191 Dy161 2.738 . S
C191 O171 1.255 . S
C191 O172 1.249 . S
C191 C185 1.516 . S
H192 C178 0.930 . S
H193 C179 0.931 . S
H194 C180 0.931 . S
H195 C181 0.933 . S
H196 C187 0.930 . S
H197 C188 0.931 . S
H198 C189 0.931 . S
H199 C190 0.933 . S
Dy200 O203 2.307 . S
Dy200 O205 2.395 . S
Dy200 O206 2.379 . S
Dy200 O208 2.339 . S
Dy200 O210 2.298 . S
Dy200 O214 2.275 . S
Dy200 C222 2.738 . S
Dy201 O204 2.298 1_455 S
Dy201 O207 2.275 . S
Dy201 O209 2.307 . S
Dy201 O211 2.395 . S
Dy201 O212 2.379 . S
Dy201 O215 2.339 1_455 S
Dy201 C231 2.738 . S
C202 O214 1.254 . S
C202 O215 1.257 . S
O203 Dy200 2.307 . S
O203 C213 1.266 . S
O204 Dy201 2.298 1_655 S
O204 C213 1.236 . S
O205 Dy200 2.395 . S
O205 C222 1.255 . S
O206 Dy200 2.379 . S
O206 C222 1.249 . S
O207 Dy201 2.275 . S
O207 C223 1.254 . S
O208 Dy200 2.339 . S
O208 C223 1.257 1_655 S
O209 Dy201 2.307 . S
O209 C224 1.266 . S
O210 Dy200 2.298 . S
O210 C224 1.236 1_655 S
O211 Dy201 2.395 . S
O211 C231 1.255 . S
O212 Dy201 2.379 . S
O212 C231 1.249 . S
C213 O203 1.266 . S
C213 O204 1.236 . S
O214 Dy200 2.275 . S
O214 C202 1.254 . S
O215 Dy201 2.339 1_655 S
O215 C202 1.257 . S
C216 C219 1.344 . S
C216 C220 1.328 . S
C216 C222 1.516 . S
C217 C218 1.304 . S
C217 C221 1.323 . S
C218 C217 1.304 . S
C218 C219 1.371 . S
C218 H232 0.930 . S
C219 C216 1.344 . S
C219 C218 1.371 . S
C219 H233 0.931 . S
C220 C216 1.328 . S
C220 C221 1.433 . S
C220 H234 0.931 . S
C221 C217 1.323 . S
C221 C220 1.433 . S
C221 H235 0.933 . S
C222 Dy200 2.738 . S
C222 O205 1.255 . S
C222 O206 1.249 . S
C222 C216 1.516 . S
C223 O207 1.254 . S
C223 O208 1.257 1_455 S
C224 O209 1.266 . S
C224 O210 1.236 1_455 S
C225 C228 1.344 . S
C225 C229 1.328 . S
C225 C231 1.516 . S
C226 C227 1.304 . S
C226 C230 1.323 . S
C227 C226 1.304 . S
C227 C228 1.371 . S
C227 H236 0.930 . S
C228 C225 1.344 . S
C228 C227 1.371 . S
C228 H237 0.931 . S
C229 C225 1.328 . S
C229 C230 1.433 . S
C229 H238 0.931 . S
C230 C226 1.323 . S
C230 C229 1.433 . S
C230 H239 0.933 . S
C231 Dy201 2.738 . S
C231 O211 1.255 . S
C231 O212 1.249 . S
C231 C225 1.516 . S
H232 C218 0.930 . S
H233 C219 0.931 . S
H234 C220 0.931 . S
H235 C221 0.933 . S
H236 C227 0.930 . S
H237 C228 0.931 . S
H238 C229 0.931 . S
H239 C230 0.933 . S
Dy240 O243 2.307 1_556 S
Dy240 O245 2.395 . S
Dy240 O246 2.379 . S
Dy240 O248 2.339 . S
Dy240 O250 2.298 . S
Dy240 O254 2.275 1_556 S
Dy240 C262 2.738 . S
Dy241 O244 2.298 . S
Dy241 O247 2.275 1_554 S
Dy241 O249 2.307 1_554 S
Dy241 O251 2.395 . S
Dy241 O252 2.379 . S
Dy241 O255 2.339 . S
Dy241 C271 2.738 . S
C242 O254 1.254 . S
C242 O255 1.257 . S
O243 Dy240 2.307 1_554 S
O243 C253 1.266 . S
O244 Dy241 2.298 . S
O244 C253 1.236 . S
O245 Dy240 2.395 . S
O245 C262 1.255 . S
O246 Dy240 2.379 . S
O246 C262 1.249 . S
O247 Dy241 2.275 1_556 S
O247 C263 1.254 . S
O248 Dy240 2.339 . S
O248 C263 1.257 . S
O249 Dy241 2.307 1_556 S
O249 C264 1.266 . S
O250 Dy240 2.298 . S
O250 C264 1.236 . S
O251 Dy241 2.395 . S
O251 C271 1.255 . S
O252 Dy241 2.379 . S
O252 C271 1.249 . S
C253 O243 1.266 . S
C253 O244 1.236 . S
O254 Dy240 2.275 1_554 S
O254 C242 1.254 . S
O255 Dy241 2.339 . S
O255 C242 1.257 . S
C256 C259 1.344 . S
C256 C260 1.328 . S
C256 C262 1.516 . S
C257 C258 1.304 . S
C257 C261 1.323 . S
C258 C257 1.304 . S
C258 C259 1.371 . S
C258 H272 0.930 . S
C259 C256 1.344 . S
C259 C258 1.371 . S
C259 H273 0.931 . S
C260 C256 1.328 . S
C260 C261 1.433 . S
C260 H274 0.931 . S
C261 C257 1.323 . S
C261 C260 1.433 . S
C261 H275 0.933 . S
C262 Dy240 2.738 . S
C262 O245 1.255 . S
C262 O246 1.249 . S
C262 C256 1.516 . S
C263 O247 1.254 . S
C263 O248 1.257 . S
C264 O249 1.266 . S
C264 O250 1.236 . S
C265 C268 1.344 . S
C265 C269 1.328 . S
C265 C271 1.516 . S
C266 C267 1.304 . S
C266 C270 1.323 . S
C267 C266 1.304 . S
C267 C268 1.371 . S
C267 H276 0.930 . S
C268 C265 1.344 . S
C268 C267 1.371 . S
C268 H277 0.931 . S
C269 C265 1.328 . S
C269 C270 1.433 . S
C269 H278 0.931 . S
C270 C266 1.323 . S
C270 C269 1.433 . S
C270 H279 0.933 . S
C271 Dy241 2.738 . S
C271 O251 1.255 . S
C271 O252 1.249 . S
C271 C265 1.516 . S
H272 C258 0.930 . S
H273 C259 0.931 . S
H274 C260 0.931 . S
H275 C261 0.933 . S
H276 C267 0.930 . S
H277 C268 0.931 . S
H278 C269 0.931 . S
H279 C270 0.933 . S
Dy280 O283 2.307 . S
Dy280 O285 2.395 . S
Dy280 O286 2.379 . S
Dy280 O288 2.339 . S
Dy280 O290 2.298 . S
Dy280 O294 2.275 . S
Dy280 C302 2.738 . S
Dy281 O284 2.298 . S
Dy281 O287 2.275 . S
Dy281 O289 2.307 . S
Dy281 O291 2.395 . S
Dy281 O292 2.379 . S
Dy281 O295 2.339 . S
Dy281 C311 2.738 . S
C282 O294 1.254 . S
C282 O295 1.257 . S
O283 Dy280 2.307 . S
O283 C293 1.266 . S
O284 Dy281 2.298 . S
O284 C293 1.236 . S
O285 Dy280 2.395 . S
O285 C302 1.255 . S
O286 Dy280 2.379 . S
O286 C302 1.249 . S
O287 Dy281 2.275 . S
O287 C303 1.254 . S
O288 Dy280 2.339 . S
O288 C303 1.257 . S
O289 Dy281 2.307 . S
O289 C304 1.266 . S
O290 Dy280 2.298 . S
O290 C304 1.236 . S
O291 Dy281 2.395 . S
O291 C311 1.255 . S
O292 Dy281 2.379 . S
O292 C311 1.249 . S
C293 O283 1.266 . S
C293 O284 1.236 . S
O294 Dy280 2.275 . S
O294 C282 1.254 . S
O295 Dy281 2.339 . S
O295 C282 1.257 . S
C296 C299 1.344 . S
C296 C300 1.328 . S
C296 C302 1.516 . S
C297 C298 1.304 . S
C297 C301 1.323 . S
C298 C297 1.304 . S
C298 C299 1.371 . S
C298 H312 0.930 . S
C299 C296 1.344 . S
C299 C298 1.371 . S
C299 H313 0.931 . S
C300 C296 1.328 . S
C300 C301 1.433 . S
C300 H314 0.931 . S
C301 C297 1.323 . S
C301 C300 1.433 . S
C301 H315 0.933 . S
C302 Dy280 2.738 . S
C302 O285 1.255 . S
C302 O286 1.249 . S
C302 C296 1.516 . S
C303 O287 1.254 . S
C303 O288 1.257 . S
C304 O289 1.266 . S
C304 O290 1.236 . S
C305 C308 1.344 . S
C305 C309 1.328 . S
C305 C311 1.516 . S
C306 C307 1.304 . S
C306 C310 1.323 . S
C307 C306 1.304 . S
C307 C308 1.371 . S
C307 H316 0.930 . S
C308 C305 1.344 . S
C308 C307 1.371 . S
C308 H317 0.931 . S
C309 C305 1.328 . S
C309 C310 1.433 . S
C309 H318 0.931 . S
C310 C306 1.323 . S
C310 C309 1.433 . S
C310 H319 0.933 . S
C311 Dy281 2.738 . S
C311 O291 1.255 . S
C311 O292 1.249 . S
C311 C305 1.516 . S
H312 C298 0.930 . S
H313 C299 0.931 . S
H314 C300 0.931 . S
H315 C301 0.933 . S
H316 C307 0.930 . S
H317 C308 0.931 . S
H318 C309 0.931 . S
H319 C310 0.933 . S
Dy320 O323 2.307 . S
Dy320 O325 2.395 . S
Dy320 O326 2.379 . S
Dy320 O328 2.339 . S
Dy320 O330 2.298 . S
Dy320 O334 2.275 . S
Dy320 C342 2.738 . S
Dy321 O324 2.298 . S
Dy321 O327 2.275 . S
Dy321 O329 2.307 . S
Dy321 O331 2.395 . S
Dy321 O332 2.379 . S
Dy321 O335 2.339 . S
Dy321 C351 2.738 . S
C322 O334 1.254 . S
C322 O335 1.257 . S
O323 Dy320 2.307 . S
O323 C333 1.266 . S
O324 Dy321 2.298 . S
O324 C333 1.236 . S
O325 Dy320 2.395 . S
O325 C342 1.255 . S
O326 Dy320 2.379 . S
O326 C342 1.249 . S
O327 Dy321 2.275 . S
O327 C343 1.254 . S
O328 Dy320 2.339 . S
O328 C343 1.257 . S
O329 Dy321 2.307 . S
O329 C344 1.266 . S
O330 Dy320 2.298 . S
O330 C344 1.236 . S
O331 Dy321 2.395 . S
O331 C351 1.255 . S
O332 Dy321 2.379 . S
O332 C351 1.249 . S
C333 O323 1.266 . S
C333 O324 1.236 . S
O334 Dy320 2.275 . S
O334 C322 1.254 . S
O335 Dy321 2.339 . S
O335 C322 1.257 . S
C336 C339 1.344 . S
C336 C340 1.328 . S
C336 C342 1.516 . S
C337 C338 1.304 . S
C337 C341 1.323 . S
C338 C337 1.304 . S
C338 C339 1.371 . S
C338 H352 0.930 . S
C339 C336 1.344 . S
C339 C338 1.371 . S
C339 H353 0.931 . S
C340 C336 1.328 . S
C340 C341 1.433 . S
C340 H354 0.931 . S
C341 C337 1.323 . S
C341 C340 1.433 . S
C341 H355 0.933 . S
C342 Dy320 2.738 . S
C342 O325 1.255 . S
C342 O326 1.249 . S
C342 C336 1.516 . S
C343 O327 1.254 . S
C343 O328 1.257 . S
C344 O329 1.266 . S
C344 O330 1.236 . S
C345 C348 1.344 . S
C345 C349 1.328 . S
C345 C351 1.516 . S
C346 C347 1.304 . S
C346 C350 1.323 . S
C347 C346 1.304 . S
C347 C348 1.371 . S
C347 H356 0.930 . S
C348 C345 1.344 . S
C348 C347 1.371 . S
C348 H357 0.931 . S
C349 C345 1.328 . S
C349 C350 1.433 . S
C349 H358 0.931 . S
C350 C346 1.323 . S
C350 C349 1.433 . S
C350 H359 0.933 . S
C351 Dy321 2.738 . S
C351 O331 1.255 . S
C351 O332 1.249 . S
C351 C345 1.516 . S
H352 C338 0.930 . S
H353 C339 0.931 . S
H354 C340 0.931 . S
H355 C341 0.933 . S
H356 C347 0.930 . S
H357 C348 0.931 . S
H358 C349 0.931 . S
H359 C350 0.933 . S
Dy360 O363 2.307 1_565 S
Dy360 O365 2.395 . S
Dy360 O366 2.379 . S
Dy360 O368 2.339 . S
Dy360 O370 2.298 . S
Dy360 O374 2.275 1_565 S
Dy360 C382 2.738 . S
Dy361 O364 2.298 . S
Dy361 O367 2.275 1_545 S
Dy361 O369 2.307 1_545 S
Dy361 O371 2.395 . S
Dy361 O372 2.379 . S
Dy361 O375 2.339 . S
Dy361 C391 2.738 . S
C362 O374 1.254 . S
C362 O375 1.257 . S
O363 Dy360 2.307 1_545 S
O363 C373 1.266 . S
O364 Dy361 2.298 . S
O364 C373 1.236 . S
O365 Dy360 2.395 . S
O365 C382 1.255 . S
O366 Dy360 2.379 . S
O366 C382 1.249 . S
O367 Dy361 2.275 1_565 S
O367 C383 1.254 . S
O368 Dy360 2.339 . S
O368 C383 1.257 . S
O369 Dy361 2.307 1_565 S
O369 C384 1.266 . S
O370 Dy360 2.298 . S
O370 C384 1.236 . S
O371 Dy361 2.395 . S
O371 C391 1.255 . S
O372 Dy361 2.379 . S
O372 C391 1.249 . S
C373 O363 1.266 . S
C373 O364 1.236 . S
O374 Dy360 2.275 1_545 S
O374 C362 1.254 . S
O375 Dy361 2.339 . S
O375 C362 1.257 . S
C376 C379 1.344 . S
C376 C380 1.328 . S
C376 C382 1.516 . S
C377 C378 1.304 . S
C377 C381 1.323 . S
C378 C377 1.304 . S
C378 C379 1.371 . S
C378 H392 0.930 . S
C379 C376 1.344 . S
C379 C378 1.371 . S
C379 H393 0.931 . S
C380 C376 1.328 . S
C380 C381 1.433 . S
C380 H394 0.931 . S
C381 C377 1.323 . S
C381 C380 1.433 . S
C381 H395 0.933 . S
C382 Dy360 2.738 . S
C382 O365 1.255 . S
C382 O366 1.249 . S
C382 C376 1.516 . S
C383 O367 1.254 . S
C383 O368 1.257 . S
C384 O369 1.266 . S
C384 O370 1.236 . S
C385 C388 1.344 . S
C385 C389 1.328 . S
C385 C391 1.516 . S
C386 C387 1.304 . S
C386 C390 1.323 . S
C387 C386 1.304 . S
C387 C388 1.371 . S
C387 H396 0.930 . S
C388 C385 1.344 . S
C388 C387 1.371 . S
C388 H397 0.931 . S
C389 C385 1.328 . S
C389 C390 1.433 . S
C389 H398 0.931 . S
C390 C386 1.323 . S
C390 C389 1.433 . S
C390 H399 0.933 . S
C391 Dy361 2.738 . S
C391 O371 1.255 . S
C391 O372 1.249 . S
C391 C385 1.516 . S
H392 C378 0.930 . S
H393 C379 0.931 . S
H394 C380 0.931 . S
H395 C381 0.933 . S
H396 C387 0.930 . S
H397 C388 0.931 . S
H398 C389 0.931 . S
H399 C390 0.933 . S
Dy400 O403 2.307 . S
Dy400 O405 2.395 . S
Dy400 O406 2.379 . S
Dy400 O408 2.339 1_565 S
Dy400 O410 2.298 . S
Dy400 O414 2.275 . S
Dy400 C422 2.738 . S
Dy401 O404 2.298 1_545 S
Dy401 O407 2.275 . S
Dy401 O409 2.307 . S
Dy401 O411 2.395 . S
Dy401 O412 2.379 . S
Dy401 O415 2.339 1_545 S
Dy401 C431 2.738 . S
C402 O414 1.254 . S
C402 O415 1.257 . S
O403 Dy400 2.307 . S
O403 C413 1.266 . S
O404 Dy401 2.298 1_565 S
O404 C413 1.236 . S
O405 Dy400 2.395 . S
O405 C422 1.255 . S
O406 Dy400 2.379 . S
O406 C422 1.249 . S
O407 Dy401 2.275 . S
O407 C423 1.254 . S
O408 Dy400 2.339 1_545 S
O408 C423 1.257 . S
O409 Dy401 2.307 . S
O409 C424 1.266 . S
O410 Dy400 2.298 . S
O410 C424 1.236 1_565 S
O411 Dy401 2.395 . S
O411 C431 1.255 . S
O412 Dy401 2.379 . S
O412 C431 1.249 . S
C413 O403 1.266 . S
C413 O404 1.236 . S
O414 Dy400 2.275 . S
O414 C402 1.254 . S
O415 Dy401 2.339 1_565 S
O415 C402 1.257 . S
C416 C419 1.344 . S
C416 C420 1.328 . S
C416 C422 1.516 . S
C417 C418 1.304 . S
C417 C421 1.323 . S
C418 C417 1.304 . S
C418 C419 1.371 . S
C418 H432 0.930 . S
C419 C416 1.344 . S
C419 C418 1.371 . S
C419 H433 0.931 . S
C420 C416 1.328 . S
C420 C421 1.433 . S
C420 H434 0.931 . S
C421 C417 1.323 . S
C421 C420 1.433 . S
C421 H435 0.933 . S
C422 Dy400 2.738 . S
C422 O405 1.255 . S
C422 O406 1.249 . S
C422 C416 1.516 . S
C423 O407 1.254 . S
C423 O408 1.257 . S
C424 O409 1.266 . S
C424 O410 1.236 1_545 S
C425 C428 1.344 . S
C425 C429 1.328 . S
C425 C431 1.516 . S
C426 C427 1.304 . S
C426 C430 1.323 . S
C427 C426 1.304 . S
C427 C428 1.371 . S
C427 H436 0.930 . S
C428 C425 1.344 . S
C428 C427 1.371 . S
C428 H437 0.931 . S
C429 C425 1.328 . S
C429 C430 1.433 . S
C429 H438 0.931 . S
C430 C426 1.323 . S
C430 C429 1.433 . S
C430 H439 0.933 . S
C431 Dy401 2.738 . S
C431 O411 1.255 . S
C431 O412 1.249 . S
C431 C425 1.516 . S
H432 C418 0.930 . S
H433 C419 0.931 . S
H434 C420 0.931 . S
H435 C421 0.933 . S
H436 C427 0.930 . S
H437 C428 0.931 . S
H438 C429 0.931 . S
H439 C430 0.933 . S
Dy440 O443 2.307 . S
Dy440 O445 2.395 . S
Dy440 O446 2.379 . S
Dy440 O448 2.339 . S
Dy440 O450 2.298 . S
Dy440 O454 2.275 . S
Dy440 C462 2.738 . S
Dy441 O444 2.298 . S
Dy441 O447 2.275 . S
Dy441 O449 2.307 . S
Dy441 O451 2.395 . S
Dy441 O452 2.379 . S
Dy441 O455 2.339 . S
Dy441 C471 2.738 . S
C442 O454 1.254 . S
C442 O455 1.257 . S
O443 Dy440 2.307 . S
O443 C453 1.266 . S
O444 Dy441 2.298 . S
O444 C453 1.236 . S
O445 Dy440 2.395 . S
O445 C462 1.255 . S
O446 Dy440 2.379 . S
O446 C462 1.249 . S
O447 Dy441 2.275 . S
O447 C463 1.254 . S
O448 Dy440 2.339 . S
O448 C463 1.257 . S
O449 Dy441 2.307 . S
O449 C464 1.266 . S
O450 Dy440 2.298 . S
O450 C464 1.236 . S
O451 Dy441 2.395 . S
O451 C471 1.255 . S
O452 Dy441 2.379 . S
O452 C471 1.249 . S
C453 O443 1.266 . S
C453 O444 1.236 . S
O454 Dy440 2.275 . S
O454 C442 1.254 . S
O455 Dy441 2.339 . S
O455 C442 1.257 . S
C456 C459 1.344 . S
C456 C460 1.328 . S
C456 C462 1.516 . S
C457 C458 1.304 . S
C457 C461 1.323 . S
C458 C457 1.304 . S
C458 C459 1.371 . S
C458 H472 0.930 . S
C459 C456 1.344 . S
C459 C458 1.371 . S
C459 H473 0.931 . S
C460 C456 1.328 . S
C460 C461 1.433 . S
C460 H474 0.931 . S
C461 C457 1.323 . S
C461 C460 1.433 . S
C461 H475 0.933 . S
C462 Dy440 2.738 . S
C462 O445 1.255 . S
C462 O446 1.249 . S
C462 C456 1.516 . S
C463 O447 1.254 . S
C463 O448 1.257 . S
C464 O449 1.266 . S
C464 O450 1.236 . S
C465 C468 1.344 . S
C465 C469 1.328 . S
C465 C471 1.516 . S
C466 C467 1.304 . S
C466 C470 1.323 . S
C467 C466 1.304 . S
C467 C468 1.371 . S
C467 H476 0.930 . S
C468 C465 1.344 . S
C468 C467 1.371 . S
C468 H477 0.931 . S
C469 C465 1.328 . S
C469 C470 1.433 . S
C469 H478 0.931 . S
C470 C466 1.323 . S
C470 C469 1.433 . S
C470 H479 0.933 . S
C471 Dy441 2.738 . S
C471 O451 1.255 . S
C471 O452 1.249 . S
C471 C465 1.516 . S
H472 C458 0.930 . S
H473 C459 0.931 . S
H474 C460 0.931 . S
H475 C461 0.933 . S
H476 C467 0.930 . S
H477 C468 0.931 . S
H478 C469 0.931 . S
H479 C470 0.933 . S
C480 C481 1.387 . S
C480 H484 0.950 . S
C480 C489 1.390 . S
C481 C480 1.387 . S
C481 C483 1.387 . S
H482 C489 0.950 . S
C483 C481 1.387 . S
C483 C485 1.390 . S
C483 H487 0.950 . S
H484 C480 0.950 . S
C485 C483 1.390 . S
C485 C486 1.387 . S
C485 H488 0.950 . S
C486 C485 1.387 . S
C486 C489 1.387 . S
H487 C483 0.950 . S
H488 C485 0.950 . S
C489 C480 1.390 . S
C489 H482 0.950 . S
C489 C486 1.387 . S
C490 C491 1.387 . S
C490 H494 0.950 . S
C490 C499 1.390 . S
C491 C490 1.387 . S
C491 C493 1.387 . S
H492 C499 0.950 . S
C493 C491 1.387 . S
C493 C495 1.390 . S
C493 H497 0.950 . S
H494 C490 0.950 . S
C495 C493 1.390 . S
C495 C496 1.387 . S
C495 H498 0.950 . S
C496 C495 1.387 . S
C496 C499 1.387 . S
H497 C493 0.950 . S
H498 C495 0.950 . S
C499 C490 1.390 . S
C499 H492 0.950 . S
C499 C496 1.387 . S
C500 C501 1.387 1_556 S
C500 H504 0.950 . S
C500 C509 1.382 1_556 S
C501 C500 1.387 1_554 S
C501 C503 1.387 . S
H502 C509 0.937 1_556 S
C503 C501 1.387 . S
C503 C505 1.390 . S
C503 H507 0.950 . S
H504 C500 0.950 . S
C505 C503 1.390 . S
C505 C506 1.387 . S
C505 H508 0.950 . S
C506 C505 1.387 . S
C506 C509 1.408 . S
H507 C503 0.950 . S
H508 C505 0.950 . S
C509 C500 1.382 1_554 S
C509 H502 0.937 1_554 S
C509 C506 1.408 . S
C510 C511 1.387 . S
C510 H514 0.950 . S
C510 C519 1.390 . S
C511 C510 1.387 . S
C511 C513 1.387 . S
H512 C519 0.950 . S
C513 C511 1.387 . S
C513 C515 1.390 . S
C513 H517 0.950 . S
H514 C510 0.950 . S
C515 C513 1.390 . S
C515 C516 1.387 . S
C515 H518 0.950 . S
C516 C515 1.387 . S
C516 C519 1.387 . S
H517 C513 0.950 . S
H518 C515 0.950 . S
C519 C510 1.390 . S
C519 H512 0.950 . S
C519 C516 1.387 . S
C520 C521 1.387 . S
C520 H524 0.950 . S
C520 C529 1.390 . S
C521 C520 1.387 . S
C521 C523 1.387 . S
H522 C529 0.950 . S
C523 C521 1.387 . S
C523 C525 1.390 . S
C523 H527 0.950 . S
H524 C520 0.950 . S
C525 C523 1.390 . S
C525 C526 1.387 . S
C525 H528 0.950 . S
C526 C525 1.387 . S
C526 C529 1.387 . S
H527 C523 0.950 . S
H528 C525 0.950 . S
C529 C520 1.390 . S
C529 H522 0.950 . S
C529 C526 1.387 . S
C530 C531 1.387 . S
C530 H534 0.950 . S
C530 C539 1.390 . S
C531 C530 1.387 . S
C531 C533 1.387 . S
H532 C539 0.950 . S
C533 C531 1.387 . S
C533 C535 1.390 . S
C533 H537 0.950 . S
H534 C530 0.950 . S
C535 C533 1.390 . S
C535 C536 1.387 . S
C535 H538 0.950 . S
C536 C535 1.387 . S
C536 C539 1.387 . S
H537 C533 0.950 . S
H538 C535 0.950 . S
C539 C530 1.390 . S
C539 H532 0.950 . S
C539 C536 1.387 . S
C540 C541 1.387 . S
C540 H544 0.950 1_556 S
C540 C549 1.390 . S
C541 C540 1.387 . S
C541 C543 1.387 . S
H542 C549 0.950 1_554 S
C543 C541 1.387 . S
C543 C545 1.390 . S
C543 H547 0.950 . S
H544 C540 0.950 1_554 S
C545 C543 1.390 . S
C545 C546 1.387 . S
C545 H548 0.950 . S
C546 C545 1.387 . S
C546 C549 1.387 . S
H547 C543 0.950 . S
H548 C545 0.950 . S
C549 C540 1.390 . S
C549 H542 0.950 1_556 S
C549 C546 1.387 . S
C550 C551 1.387 . S
C550 H554 0.950 . S
C550 C559 1.390 . S
C551 C550 1.387 . S
C551 C553 1.387 . S
H552 C559 0.950 . S
C553 C551 1.387 . S
C553 C555 1.390 . S
C553 H557 0.950 . S
H554 C550 0.950 . S
C555 C553 1.390 . S
C555 C556 1.387 . S
C555 H558 0.950 . S
C556 C555 1.387 . S
C556 C559 1.387 . S
H557 C553 0.950 . S
H558 C555 0.950 . S
C559 C550 1.390 . S
C559 H552 0.950 . S
C559 C556 1.387 . S
C560 C561 1.387 . S
C560 H564 0.950 . S
C560 C569 1.390 . S
C561 C560 1.387 . S
C561 C563 1.387 . S
H562 C569 0.950 . S
C563 C561 1.387 . S
C563 C565 1.390 . S
C563 H567 0.950 . S
H564 C560 0.950 . S
C565 C563 1.390 . S
C565 C566 1.387 . S
C565 H568 0.950 . S
C566 C565 1.387 . S
C566 C569 1.387 . S
H567 C563 0.950 . S
H568 C565 0.950 . S
C569 C560 1.390 . S
C569 H562 0.950 . S
C569 C566 1.387 . S
C570 C571 1.387 . S
C570 H574 0.950 . S
C570 C579 1.390 . S
C571 C570 1.387 . S
C571 C573 1.387 . S
H572 C579 0.950 . S
C573 C571 1.387 . S
C573 C575 1.390 . S
C573 H577 0.950 . S
H574 C570 0.950 . S
C575 C573 1.390 . S
C575 C576 1.387 . S
C575 H578 0.950 . S
C576 C575 1.387 . S
C576 C579 1.387 . S
H577 C573 0.950 . S
H578 C575 0.950 . S
C579 C570 1.390 . S
C579 H572 0.950 . S
C579 C576 1.387 . S
C580 C581 1.388 . S
C580 H584 0.949 1_655 S
C580 C589 1.390 . S
C581 C580 1.388 . S
C581 C583 1.387 . S
H582 C589 0.950 1_455 S
C583 C581 1.387 . S
C583 C585 1.390 . S
C583 H587 0.950 . S
H584 C580 0.949 1_455 S
C585 C583 1.390 . S
C585 C586 1.387 . S
C585 H588 0.950 . S
C586 C585 1.387 . S
C586 C589 1.387 . S
H587 C583 0.950 . S
H588 C585 0.950 . S
C589 C580 1.390 . S
C589 H582 0.950 1_655 S
C589 C586 1.387 . S
C590 C591 1.387 . S
C590 H594 0.950 . S
C590 C599 1.390 . S
C591 C590 1.387 . S
C591 C593 1.387 . S
H592 C599 0.950 . S
C593 C591 1.387 . S
C593 C595 1.390 . S
C593 H597 0.950 . S
H594 C590 0.950 . S
C595 C593 1.390 . S
C595 C596 1.387 . S
C595 H598 0.950 . S
C596 C595 1.387 . S
C596 C599 1.387 . S
H597 C593 0.950 . S
H598 C595 0.950 . S
C599 C590 1.390 . S
C599 H592 0.950 . S
C599 C596 1.387 . S
C600 C601 1.387 . S
C600 H604 0.950 . S
C600 C609 1.390 . S
C601 C600 1.387 . S
C601 C603 1.387 . S
H602 C609 0.950 . S
C603 C601 1.387 . S
C603 C605 1.390 . S
C603 H607 0.950 . S
H604 C600 0.950 . S
C605 C603 1.390 . S
C605 C606 1.387 . S
C605 H608 0.950 . S
C606 C605 1.387 . S
C606 C609 1.387 . S
H607 C603 0.950 . S
H608 C605 0.950 . S
C609 C600 1.390 . S
C609 H602 0.950 . S
C609 C606 1.387 . S
C610 C611 1.387 . S
C610 H614 0.950 . S
C610 C619 1.390 . S
C611 C610 1.387 . S
C611 C613 1.387 . S
H612 C619 0.950 . S
C613 C611 1.387 . S
C613 C615 1.390 . S
C613 H617 0.950 . S
H614 C610 0.950 . S
C615 C613 1.390 . S
C615 C616 1.387 . S
C615 H618 0.950 1_565 S
C616 C615 1.387 . S
C616 C619 1.387 . S
H617 C613 0.950 . S
H618 C615 0.950 1_545 S
C619 C610 1.390 . S
C619 H612 0.950 . S
C619 C616 1.387 . S
C620 C621 1.387 . S
C620 H624 0.950 . S
C620 C629 1.390 . S
C621 C620 1.387 . S
C621 C623 1.387 . S
H622 C629 0.950 . S
C623 C621 1.387 . S
C623 C625 1.390 . S
C623 H627 0.950 . S
H624 C620 0.950 . S
C625 C623 1.390 . S
C625 C626 1.387 . S
C625 H628 0.950 . S
C626 C625 1.387 . S
C626 C629 1.387 . S
H627 C623 0.950 . S
H628 C625 0.950 . S
C629 C620 1.390 . S
C629 H622 0.950 . S
C629 C626 1.387 . S
C630 C631 1.387 1_556 S
C630 H634 0.950 . S
C630 C639 1.390 . S
C631 C630 1.387 1_554 S
C631 C633 1.387 . S
H632 C639 0.950 . S
C633 C631 1.387 . S
C633 C635 1.390 1_554 S
C633 H637 0.950 . S
H634 C630 0.950 . S
C635 C633 1.390 1_556 S
C635 C636 1.387 . S
C635 H638 0.950 . S
C636 C635 1.387 . S
C636 C639 1.387 . S
H637 C633 0.950 . S
H638 C635 0.950 . S
C639 C630 1.390 . S
C639 H632 0.950 . S
C639 C636 1.387 . S
C640 C641 1.387 . S
C640 H644 0.950 . S
C640 C649 1.390 . S
C641 C640 1.387 . S
C641 C643 1.387 . S
H642 C649 0.950 . S
C643 C641 1.387 . S
C643 C645 1.390 . S
C643 H647 0.950 . S
H644 C640 0.950 . S
C645 C643 1.390 . S
C645 C646 1.387 . S
C645 H648 0.950 . S
C646 C645 1.387 . S
C646 C649 1.387 . S
H647 C643 0.950 . S
H648 C645 0.950 . S
C649 C640 1.390 . S
C649 H642 0.950 . S
C649 C646 1.387 . S
C650 C651 1.387 1_556 S
C650 H654 0.950 1_556 S
C650 C659 1.390 . S
C651 C650 1.387 1_554 S
C651 C653 1.387 . S
H652 C659 0.950 . S
C653 C651 1.387 . S
C653 C655 1.390 1_554 S
C653 H657 0.950 . S
H654 C650 0.950 1_554 S
C655 C653 1.390 1_556 S
C655 C656 1.387 . S
C655 H658 0.950 . S
C656 C655 1.387 . S
C656 C659 1.387 . S
H657 C653 0.950 . S
H658 C655 0.950 . S
C659 C650 1.390 . S
C659 H652 0.950 . S
C659 C656 1.387 . S
C660 C661 1.387 . S
C660 H664 0.950 . S
C660 C669 1.390 . S
C661 C660 1.387 . S
C661 C663 1.387 . S
H662 C669 0.950 . S
C663 C661 1.387 . S
C663 C665 1.390 . S
C663 H667 0.950 . S
H664 C660 0.950 . S
C665 C663 1.390 . S
C665 C666 1.387 . S
C665 H668 0.950 . S
C666 C665 1.387 . S
C666 C669 1.387 . S
H667 C663 0.950 . S
H668 C665 0.950 . S
C669 C660 1.390 . S
C669 H662 0.950 . S
C669 C666 1.387 . S
C670 C671 1.387 . S
C670 H674 0.950 . S
C670 C679 1.390 . S
C671 C670 1.387 . S
C671 C673 1.387 . S
H672 C679 0.950 . S
C673 C671 1.387 . S
C673 C675 1.390 . S
C673 H677 0.950 . S
H674 C670 0.950 . S
C675 C673 1.390 . S
C675 C676 1.387 . S
C675 H678 0.950 . S
C676 C675 1.387 . S
C676 C679 1.387 . S
H677 C673 0.950 . S
H678 C675 0.950 . S
C679 C670 1.390 . S
C679 H672 0.950 . S
C679 C676 1.387 . S
C680 C681 1.387 . S
C680 H684 0.950 . S
C680 C689 1.390 . S
C681 C680 1.387 . S
C681 C683 1.387 . S
H682 C689 0.950 . S
C683 C681 1.387 . S
C683 C685 1.390 . S
C683 H687 0.950 . S
H684 C680 0.950 . S
C685 C683 1.390 . S
C685 C686 1.387 . S
C685 H688 0.950 . S
C686 C685 1.387 . S
C686 C689 1.387 . S
H687 C683 0.950 . S
H688 C685 0.950 . S
C689 C680 1.390 . S
C689 H682 0.950 . S
C689 C686 1.387 . S
C690 C691 1.387 . S
C690 H694 0.950 . S
C690 C699 1.390 1_545 S
C691 C690 1.387 . S
C691 C693 1.387 . S
H692 C699 0.950 . S
C693 C691 1.387 . S
C693 C695 1.390 1_545 S
C693 H697 0.950 . S
H694 C690 0.950 . S
C695 C693 1.390 1_565 S
C695 C696 1.387 . S
C695 H698 0.950 . S
C696 C695 1.387 . S
C696 C699 1.387 . S
H697 C693 0.950 . S
H698 C695 0.950 . S
C699 C690 1.390 1_565 S
C699 H692 0.950 . S
C699 C696 1.387 . S
C700 C701 1.387 . S
C700 H704 0.950 . S
C700 C709 1.390 . S
C701 C700 1.387 . S
C701 C703 1.387 . S
H702 C709 0.950 . S
C703 C701 1.387 . S
C703 C705 1.390 . S
C703 H707 0.950 . S
H704 C700 0.950 . S
C705 C703 1.390 . S
C705 C706 1.387 . S
C705 H708 0.950 . S
C706 C705 1.387 . S
C706 C709 1.387 . S
H707 C703 0.950 . S
H708 C705 0.950 . S
C709 C700 1.390 . S
C709 H702 0.950 . S
C709 C706 1.387 . S
C710 C711 1.387 . S
C710 H714 0.950 . S
C710 C719 1.390 1_545 S
C711 C710 1.387 . S
C711 C713 1.387 . S
H712 C719 0.950 . S
C713 C711 1.387 . S
C713 C715 1.390 1_545 S
C713 H717 0.950 . S
H714 C710 0.950 . S
C715 C713 1.390 1_565 S
C715 C716 1.387 . S
C715 H718 0.950 . S
C716 C715 1.387 . S
C716 C719 1.387 . S
H717 C713 0.950 . S
H718 C715 0.950 . S
C719 C710 1.390 1_565 S
C719 H712 0.950 . S
C719 C716 1.387 . S
C720 C721 1.387 . S
C720 H724 0.950 . S
C720 C729 1.390 . S
C721 C720 1.387 . S
C721 C723 1.387 . S
H722 C729 0.950 . S
C723 C721 1.387 . S
C723 C725 1.390 . S
C723 H727 0.950 . S
H724 C720 0.950 . S
C725 C723 1.390 . S
C725 C726 1.387 . S
C725 H728 0.950 . S
C726 C725 1.387 . S
C726 C729 1.387 . S
H727 C723 0.950 . S
H728 C725 0.950 . S
C729 C720 1.390 . S
C729 H722 0.950 . S
C729 C726 1.387 . S
C730 C731 1.387 . S
C730 H734 0.950 . S
C730 C739 1.390 . S
C731 C730 1.387 . S
C731 C733 1.387 . S
H732 C739 0.950 . S
C733 C731 1.387 . S
C733 C735 1.390 . S
C733 H737 0.950 . S
H734 C730 0.950 . S
C735 C733 1.390 . S
C735 C736 1.387 . S
C735 H738 0.950 . S
C736 C735 1.387 . S
C736 C739 1.387 . S
H737 C733 0.950 . S
H738 C735 0.950 . S
C739 C730 1.390 . S
C739 H732 0.950 . S
C739 C736 1.387 . S
C740 C741 1.387 . S
C740 H744 0.950 . S
C740 C749 1.390 . S
C741 C740 1.387 . S
C741 C743 1.387 . S
H742 C749 0.950 . S
C743 C741 1.387 . S
C743 C745 1.390 . S
C743 H747 0.950 . S
H744 C740 0.950 . S
C745 C743 1.390 . S
C745 C746 1.387 . S
C745 H748 0.950 . S
C746 C745 1.387 . S
C746 C749 1.387 . S
H747 C743 0.950 . S
H748 C745 0.950 . S
C749 C740 1.390 . S
C749 H742 0.950 . S
C749 C746 1.387 . S
C750 C751 1.387 . S
C750 H754 0.950 . S
C750 C759 1.390 . S
C751 C750 1.387 . S
C751 C753 1.387 . S
H752 C759 0.950 . S
C753 C751 1.387 . S
C753 C755 1.390 . S
C753 H757 0.950 . S
H754 C750 0.950 . S
C755 C753 1.390 . S
C755 C756 1.387 . S
C755 H758 0.950 . S
C756 C755 1.387 . S
C756 C759 1.387 . S
H757 C753 0.950 . S
H758 C755 0.950 . S
C759 C750 1.390 . S
C759 H752 0.950 . S
C759 C756 1.387 . S
C760 C761 1.387 . S
C760 H764 0.950 . S
C760 C769 1.390 . S
C761 C760 1.387 . S
C761 C763 1.387 . S
H762 C769 0.950 . S
C763 C761 1.387 . S
C763 C765 1.390 . S
C763 H767 0.950 . S
H764 C760 0.950 . S
C765 C763 1.390 . S
C765 C766 1.387 . S
C765 H768 0.950 . S
C766 C765 1.387 . S
C766 C769 1.387 . S
H767 C763 0.950 . S
H768 C765 0.950 . S
C769 C760 1.390 . S
C769 H762 0.950 . S
C769 C766 1.387 . S
C770 C771 1.387 . S
C770 H774 0.950 . S
C770 C779 1.390 . S
C771 C770 1.387 . S
C771 C773 1.387 . S
H772 C779 0.950 . S
C773 C771 1.387 . S
C773 C775 1.390 . S
C773 H777 0.950 . S
H774 C770 0.950 . S
C775 C773 1.390 . S
C775 C776 1.387 . S
C775 H778 0.950 . S
C776 C775 1.387 . S
C776 C779 1.387 . S
H777 C773 0.950 . S
H778 C775 0.950 . S
C779 C770 1.390 . S
C779 H772 0.950 . S
C779 C776 1.387 . S
C780 C781 1.387 . S
C780 H784 0.950 . S
C780 C789 1.390 1_455 S
C781 C780 1.387 . S
C781 C783 1.387 . S
H782 C789 0.950 1_556 S
C783 C781 1.387 . S
C783 C785 1.390 1_455 S
C783 H787 0.950 . S
H784 C780 0.950 . S
C785 C783 1.390 1_655 S
C785 C786 1.387 . S
C785 H788 0.950 . S
C786 C785 1.387 . S
C786 C789 1.387 . S
H787 C783 0.950 . S
H788 C785 0.950 . S
C789 C780 1.390 1_655 S
C789 H782 0.950 1_554 S
C789 C786 1.387 . S
C790 C791 1.387 . S
C790 H794 0.950 . S
C790 C799 1.390 . S
C791 C790 1.387 . S
C791 C793 1.387 . S
H792 C799 0.950 . S
C793 C791 1.387 . S
C793 C795 1.390 . S
C793 H797 0.950 . S
H794 C790 0.950 . S
C795 C793 1.390 . S
C795 C796 1.387 . S
C795 H798 0.950 . S
C796 C795 1.387 . S
C796 C799 1.387 . S
H797 C793 0.950 . S
H798 C795 0.950 . S
C799 C790 1.390 . S
C799 H792 0.950 . S
C799 C796 1.387 . S
C800 C801 1.387 . S
C800 H804 0.950 . S
C800 C809 1.390 . S
C801 C800 1.387 . S
C801 C803 1.387 . S
H802 C809 0.950 . S
C803 C801 1.387 . S
C803 C805 1.390 . S
C803 H807 0.950 . S
H804 C800 0.950 . S
C805 C803 1.390 . S
C805 C806 1.387 . S
C805 H808 0.950 . S
C806 C805 1.387 . S
C806 C809 1.387 . S
H807 C803 0.950 . S
H808 C805 0.950 . S
C809 C800 1.390 . S
C809 H802 0.950 . S
C809 C806 1.387 . S
C810 C811 1.387 . S
C810 H814 0.950 1_455 S
C810 C819 1.390 . S
C811 C810 1.387 . S
C811 C813 1.387 . S
H812 C819 0.950 . S
C813 C811 1.387 . S
C813 C815 1.390 . S
C813 H817 0.950 . S
H814 C810 0.950 1_655 S
C815 C813 1.390 . S
C815 C816 1.387 . S
C815 H818 0.950 . S
C816 C815 1.387 . S
C816 C819 1.387 . S
H817 C813 0.950 . S
H818 C815 0.950 . S
C819 C810 1.390 . S
C819 H812 0.950 . S
C819 C816 1.387 . S
C820 C821 1.387 . S
C820 H824 0.950 . S
C820 C829 1.390 . S
C821 C820 1.387 . S
C821 C823 1.387 . S
H822 C829 0.950 . S
C823 C821 1.387 . S
C823 C825 1.390 . S
C823 H827 0.950 . S
H824 C820 0.950 . S
C825 C823 1.390 . S
C825 C826 1.387 . S
C825 H828 0.950 . S
C826 C825 1.387 . S
C826 C829 1.387 . S
H827 C823 0.950 . S
H828 C825 0.950 . S
C829 C820 1.390 . S
C829 H822 0.950 . S
C829 C826 1.387 . S
C830 C831 1.387 . S
C830 H834 0.950 . S
C830 C839 1.390 1_655 S
C831 C830 1.387 . S
C831 C833 1.387 . S
H832 C839 0.950 . S
C833 C831 1.387 . S
C833 C835 1.390 1_655 S
C833 H837 0.950 . S
H834 C830 0.950 . S
C835 C833 1.390 1_455 S
C835 C836 1.387 . S
C835 H838 0.950 . S
C836 C835 1.387 . S
C836 C839 1.387 . S
H837 C833 0.950 . S
H838 C835 0.950 . S
C839 C830 1.390 1_455 S
C839 H832 0.950 . S
C839 C836 1.387 . S
C481 C24 1.488 . S
C486 C463 1.571 . S
C491 C383 1.866 . S
C496 C63 1.862 . S
C501 C104 1.531 1_554 S
C506 C343 1.581 . S
C511 C143 1.809 . S
C516 C424 1.733 . S
C521 C183 1.947 . S
C526 C423 1.956 . S
C531 C223 1.719 . S
C536 C464 1.662 . S
C541 C384 1.725 . S
C546 C263 1.807 . S
C551 C304 1.576 . S
C556 C344 1.579 . S
C561 C144 1.622 . S
C566 C184 1.652 . S
C571 C23 1.876 . S
C576 C224 1.807 . S
C581 C64 1.767 . S
C586 C264 1.755 . S
C591 C303 1.899 . S
C596 C103 1.892 . S
C601 C17 1.825 . S
C606 C322 1.844 . S
C611 C66 1.627 . S
C616 C413 1.640 . S
C621 C442 2.268 . S
C626 C97 2.236 . S
C631 C146 1.360 . S
C636 C362 1.322 . S
C641 C186 1.793 . S
C646 C373 1.802 . S
C651 C333 1.722 . S
C656 C226 1.716 . S
C661 C402 1.297 . S
C666 C266 1.345 . S
C671 C453 2.184 . S
C676 C297 2.030 . S
C681 C2 2.061 . S
C686 C137 2.046 . S
C691 C26 1.554 . S
C696 C53 1.558 . S
C701 C57 2.085 . S
C706 C82 2.085 . S
C711 C133 1.714 . S
C716 C106 1.709 . S
C721 C217 1.735 . S
C726 C173 1.854 . S
C731 C213 1.661 . S
C736 C257 1.559 . S
C741 C253 1.680 . S
C746 C306 1.668 . S
C751 C177 1.673 . S
C756 C282 1.688 . S
C761 C337 1.578 . S
C766 C122 1.575 . S
C771 C202 1.501 . S
C776 C386 1.563 . S
C781 C346 1.138 . S
C786 C242 1.106 . S
C791 C417 1.959 . S
C796 C293 2.090 . S
C801 C162 1.594 . S
C806 C466 1.661 . S
C811 C457 1.785 . S
C816 C42 1.792 . S
C821 C93 2.031 . S
C826 C377 1.907 . S
C831 C426 1.374 . S
C836 C13 1.378 . S
