# Generated by pormake.
# Topology vby, (6)-cn, num edge types: 1
# Building blocks:
#     Node 0, Type 0, BuildingBlock: BETGAK_clean_sbu_0, # of connection points: 6
#     Node 1, Type 0, BuildingBlock: BETGAK_clean_sbu_0, # of connection points: 6
#     Node 2, Type 0, BuildingBlock: BETGAK_clean_sbu_0, # of connection points: 6
#     Node 3, Type 0, BuildingBlock: BETGAK_clean_sbu_0, # of connection points: 6
#     Node 4, Type 0, BuildingBlock: BETGAK_clean_sbu_0, # of connection points: 6
#     Node 5, Type 0, BuildingBlock: BETGAK_clean_sbu_0, # of connection points: 6
#     Node 6, Type 0, BuildingBlock: BETGAK_clean_sbu_0, # of connection points: 6
#     Node 7, Type 0, BuildingBlock: BETGAK_clean_sbu_0, # of connection points: 6
#     Edge 8, Type (0, 0), BuildingBlock: CIFDUS_clean_linker_0, # of connection points: 2
#     Edge 9, Type (0, 0), BuildingBlock: CIFDUS_clean_linker_0, # of connection points: 2
#     Edge 10, Type (0, 0), BuildingBlock: CIFDUS_clean_linker_0, # of connection points: 2
#     Edge 11, Type (0, 0), BuildingBlock: CIFDUS_clean_linker_0, # of connection points: 2
#     Edge 12, Type (0, 0), BuildingBlock: CIFDUS_clean_linker_0, # of connection points: 2
#     Edge 13, Type (0, 0), BuildingBlock: CIFDUS_clean_linker_0, # of connection points: 2
#     Edge 14, Type (0, 0), BuildingBlock: CIFDUS_clean_linker_0, # of connection points: 2
#     Edge 15, Type (0, 0), BuildingBlock: CIFDUS_clean_linker_0, # of connection points: 2
#     Edge 16, Type (0, 0), BuildingBlock: CIFDUS_clean_linker_0, # of connection points: 2
#     Edge 17, Type (0, 0), BuildingBlock: CIFDUS_clean_linker_0, # of connection points: 2
#     Edge 18, Type (0, 0), BuildingBlock: CIFDUS_clean_linker_0, # of connection points: 2
#     Edge 19, Type (0, 0), BuildingBlock: CIFDUS_clean_linker_0, # of connection points: 2
#     Edge 20, Type (0, 0), BuildingBlock: CIFDUS_clean_linker_0, # of connection points: 2
#     Edge 21, Type (0, 0), BuildingBlock: CIFDUS_clean_linker_0, # of connection points: 2
#     Edge 22, Type (0, 0), BuildingBlock: CIFDUS_clean_linker_0, # of connection points: 2
#     Edge 23, Type (0, 0), BuildingBlock: CIFDUS_clean_linker_0, # of connection points: 2
#     Edge 24, Type (0, 0), BuildingBlock: CIFDUS_clean_linker_0, # of connection points: 2
#     Edge 25, Type (0, 0), BuildingBlock: CIFDUS_clean_linker_0, # of connection points: 2
#     Edge 26, Type (0, 0), BuildingBlock: CIFDUS_clean_linker_0, # of connection points: 2
#     Edge 27, Type (0, 0), BuildingBlock: CIFDUS_clean_linker_0, # of connection points: 2
#     Edge 28, Type (0, 0), BuildingBlock: CIFDUS_clean_linker_0, # of connection points: 2
#     Edge 29, Type (0, 0), BuildingBlock: CIFDUS_clean_linker_0, # of connection points: 2
#     Edge 30, Type (0, 0), BuildingBlock: CIFDUS_clean_linker_0, # of connection points: 2
#     Edge 31, Type (0, 0), BuildingBlock: CIFDUS_clean_linker_0, # of connection points: 2
# Relax obj value: 0.197
# Max RMSD: 0.215
# Mean RMSD: 0.215
data_MOF--net-vby--node1-BETGAK_clean_sbu_0--edge1-CIFDUS_clean_linker_0
_symmetry_space_group_name_H-M    P1
_symmetry_Int_Tables_number       1
_symmetry_cell_setting            triclinic
loop_
_symmetry_equiv_pos_as_xyz
'x, y, z'
_cell_length_a     13.599733
_cell_length_b     95.703107
_cell_length_c     25.523767
_cell_angle_alpha  90.004938
_cell_angle_beta   85.271649
_cell_angle_gamma 89.751029
loop_
_atom_site_label
_atom_site_type_symbol
_atom_site_fract_x
_atom_site_fract_y
_atom_site_fract_z
_atom_type_partial_charge
La0 La 0.06115 0.41624 0.02876 0.0
La1 La 0.06447 0.38597 0.0313 0.0
C2 C 1.04025 0.44223 0.01893 0.0
C3 C 1.02725 0.45762 0.01526 0.0
C4 C 1.00456 0.46558 0.06103 0.0
C5 C 1.00409 0.48021 0.05911 0.0
C6 C 1.02617 0.4873 1.01131 0.0
C7 C 1.04541 0.47929 0.96519 0.0
C8 C 0.04618 0.46464 0.96717 0.0
C9 C 0.08857 0.40538 0.12247 0.0
C10 C 0.85952 0.39982 0.03848 0.0
C11 C 0.08318 0.36031 0.05355 0.0
C12 C 0.13748 0.347 0.04315 0.0
C13 C 0.15833 0.34177 0.99197 0.0
C14 C 0.19335 0.32805 0.98401 0.0
C15 C 0.20783 0.31923 0.02701 0.0
C16 C 0.19102 0.32478 0.07807 0.0
C17 C 0.15627 0.33848 0.08595 0.0
C18 C 1.04379 0.3964 0.9355 0.0
C19 C 0.27019 0.40263 0.01779 0.0
O20 O 1.01584 0.43545 0.06243 0.0
O21 O 0.07242 0.43421 0.97956 0.0
O22 O 0.13579 0.4159 0.10142 0.0
O23 O 1.02755 0.40118 0.09125 0.0
O24 O 0.90641 0.41077 0.01698 0.0
O25 O 0.91075 0.38968 0.05844 0.0
O26 O 1.02969 0.36507 0.01722 0.0
O27 O 0.12556 0.37038 0.07792 0.0
O28 O 1.00349 0.38508 0.95434 0.0
O29 O 0.09951 0.40094 0.96881 0.0
O30 O 0.22479 0.39061 0.02941 0.0
O31 O 0.21905 0.41407 1.00955 0.0
H32 H 0.99045 0.46051 0.09884 0.0
H33 H 0.99016 0.48594 0.09556 0.0
H34 H 0.06107 0.48434 0.92749 0.0
H35 H 0.06397 0.45882 0.93122 0.0
H36 H 0.14438 0.34809 0.95815 0.0
H37 H 0.20716 0.32427 0.94409 0.0
H38 H 0.20006 0.31833 0.11222 0.0
H39 H 0.13966 0.3422 0.12581 0.0
La40 La 1.04576 0.67287 0.02838 0.0
La41 La 1.01983 0.64249 0.02754 0.0
C42 C 0.04676 0.6988 1.00793 0.0
C43 C 0.98801 0.7119 0.01346 0.0
C44 C 0.94517 0.71655 0.06243 0.0
C45 C 0.90112 0.72982 0.06744 0.0
C46 C 0.89896 0.73877 0.02367 0.0
C47 C 0.93938 0.73388 0.97448 0.0
C48 C 0.98344 0.72063 0.96952 0.0
C49 C 1.0456 0.66124 0.12264 0.0
C50 C 0.82623 0.65988 0.03258 0.0
C51 C 1.01968 0.61628 0.03632 0.0
C52 C 1.02044 0.60077 0.03913 0.0
C53 C 1.03935 0.59282 0.99305 0.0
C54 C 1.03441 0.57821 0.99448 0.0
C55 C 1.01065 0.57111 0.04211 0.0
C56 C 0.9933 0.5791 0.08843 0.0
C57 C 0.99798 0.59375 0.08693 0.0
C58 C 1.02166 0.65481 0.93414 0.0
C59 C 0.23577 0.65528 0.02796 0.0
O60 O 0.07806 0.69335 0.05049 0.0
O61 O 1.01918 0.68922 0.97567 0.0
O62 O 0.09872 0.67181 0.10667 0.0
O63 O 0.98972 0.65805 0.08733 0.0
O64 O 0.88398 0.67099 0.025 0.0
O65 O 0.86379 0.64737 0.04016 0.0
O66 O 0.04843 0.62287 0.99298 0.0
O67 O 0.99313 0.62455 0.07596 0.0
O68 O 0.96157 0.64503 0.9506 0.0
O69 O 0.07814 0.65731 0.96968 0.0
O70 O 0.17614 0.64491 0.04389 0.0
O71 O 0.1992 0.66697 1.00998 0.0
H72 H 0.94799 0.7101 0.09715 0.0
H73 H 0.87162 0.73323 0.10606 0.0
H74 H 0.93762 0.74032 0.9397 0.0
H75 H 1.01632 0.71733 0.93138 0.0
H76 H 0.05614 0.59789 0.95545 0.0
H77 H 0.04671 0.57251 0.95787 0.0
H78 H 0.97616 0.57403 0.12598 0.0
H79 H 0.98309 0.59957 0.12312 0.0
La80 La 0.05789 0.67263 0.52707 0.0
La81 La 0.05198 0.64186 0.52863 0.0
C82 C 0.07831 0.69841 0.54668 0.0
C83 C 0.13985 0.71122 0.53938 0.0
C84 C 0.13089 0.72008 0.49596 0.0
C85 C 0.17447 0.73335 0.49382 0.0
C86 C 0.22789 0.73817 0.53512 0.0
C87 C 0.23956 0.72912 0.57771 0.0
C88 C 0.19578 0.71586 0.5799 0.0
C89 C 1.04194 0.66116 0.43341 0.0
C90 C 0.26171 0.65513 0.51971 0.0
C91 C 1.02934 0.61586 0.51996 0.0
C92 C 1.01505 0.60048 0.51643 0.0
C93 C 0.98149 0.59278 0.5613 0.0
C94 C 0.97473 0.57818 0.55938 0.0
C95 C 1.0014 0.57084 0.51253 0.0
C96 C 1.03361 0.57859 0.46741 0.0
C97 C 1.04042 0.59322 0.46936 0.0
C98 C 0.06741 0.65403 0.62138 0.0
C99 C 0.85152 0.65909 0.53227 0.0
O100 O 1.03583 0.69357 0.50634 0.0
O101 O 0.10702 0.68834 0.57674 0.0
O102 O 1.0019 0.67284 0.44927 0.0
O103 O 0.0949 0.65677 0.46834 0.0
O104 O 0.21695 0.66741 0.5282 0.0
O105 O 0.21066 0.64364 0.51314 0.0
O106 O 1.00698 0.62277 0.56347 0.0
O107 O 0.06136 0.62374 0.48023 0.0
O108 O 0.1152 0.64296 0.6049 0.0
O109 O 1.013 0.65778 0.58632 0.0
O110 O 0.89825 0.64761 0.51464 0.0
O111 O 0.90194 0.66961 0.54998 0.0
H112 H 0.08724 0.71698 0.46433 0.0
H113 H 0.16506 0.73991 0.46003 0.0
H114 H 0.27913 0.73249 0.61056 0.0
H115 H 0.2025 0.70947 0.61445 0.0
H116 H 0.9615 0.59802 0.59828 0.0
H117 H 0.94809 0.57265 0.59471 0.0
H118 H 0.05587 0.57334 0.43073 0.0
H119 H 0.0673 0.59881 0.4342 0.0
La120 La 0.99401 0.41556 0.52836 0.0
La121 La 1.02168 0.3855 0.52732 0.0
C122 C 0.99822 0.44178 0.53744 0.0
C123 C 1.00205 0.4573 0.5407 0.0
C124 C 1.03416 0.46521 0.49613 0.0
C125 C 1.03614 0.47984 0.49827 0.0
C126 C 1.00624 0.487 0.54509 0.0
C127 C 0.97444 0.47905 0.5898 0.0
C128 C 0.9722 0.46439 0.58759 0.0
C129 C 0.98385 0.40386 0.43458 0.0
C130 C 0.21059 0.40284 0.52457 0.0
C131 C 1.0207 0.3595 0.50716 0.0
C132 C 0.96507 0.34628 0.51723 0.0
C133 C 0.94999 0.34055 0.56801 0.0
C134 C 0.91139 0.32706 0.57548 0.0
C135 C 0.88703 0.31891 0.53244 0.0
C136 C 0.8984 0.3249 0.48194 0.0
C137 C 0.93721 0.33839 0.47447 0.0
C138 C 1.02763 0.39667 0.62285 0.0
C139 C 0.80081 0.39839 0.53561 0.0
O140 O 1.03156 0.43507 0.49506 0.0
O141 O 0.96355 0.43362 0.5758 0.0
O142 O 0.926 0.41359 0.45421 0.0
O143 O 0.04639 0.40096 0.46705 0.0
O144 O 0.15054 0.4129 0.54338 0.0
O145 O 0.1738 0.39139 0.50522 0.0
O146 O 0.06318 0.36507 0.54614 0.0
O147 O 0.98342 0.36902 0.47771 0.0
O148 O 0.08045 0.38625 0.60452 0.0
O149 O 0.9688 0.39998 0.58891 0.0
O150 O 0.85922 0.38731 0.52742 0.0
O151 O 0.83797 0.41091 0.54281 0.0
H152 H 0.05769 0.46011 0.45931 0.0
H153 H 0.06248 0.48554 0.46326 0.0
H154 H 0.94987 0.48417 0.62643 0.0
H155 H 0.9467 0.45861 0.62256 0.0
H156 H 0.97073 0.34631 0.6019 0.0
H157 H 0.90215 0.32292 0.61506 0.0
H158 H 0.88144 0.31895 0.44776 0.0
H159 H 0.94901 0.34245 0.43484 0.0
La160 La 0.56315 0.91592 0.0269 0.0
La161 La 0.56967 0.88524 0.02601 0.0
C162 C 0.54505 0.94197 0.01765 0.0
C163 C 0.53408 0.9574 0.01457 0.0
C164 C 0.52031 0.96538 0.0609 0.0
C165 C 0.52361 0.98 0.05912 0.0
C166 C 0.54069 0.98708 1.01091 0.0
C167 C 0.55067 0.97907 0.96436 0.0
C168 C 0.54761 0.96442 0.96619 0.0
C169 C 0.57736 0.90397 0.12017 0.0
C170 C 0.36269 0.89893 0.03125 0.0
C171 C 0.58976 0.85951 0.04627 0.0
C172 C 0.65193 0.84677 0.03948 0.0
C173 C 0.69174 0.84221 0.98979 0.0
C174 C 0.73694 0.82901 0.98388 0.0
C175 C 0.74273 0.82007 0.02744 0.0
C176 C 0.7058 0.82492 0.07729 0.0
C177 C 0.66099 0.83809 0.08317 0.0
C178 C 0.5541 0.89665 0.93209 0.0
C179 C 0.773 0.90248 0.01816 0.0
O180 O 0.52702 0.93528 0.06196 0.0
O181 O 0.56836 0.93383 0.97723 0.0
O182 O 0.62596 0.91486 0.10323 0.0
O183 O 0.52353 0.90015 0.08504 0.0
O184 O 0.40871 0.91045 0.01397 0.0
O185 O 0.41365 0.88837 0.04864 0.0
O186 O 0.54906 0.86433 1.00525 0.0
O187 O 0.61773 0.86955 0.07649 0.0
O188 O 0.51356 0.88506 0.94815 0.0
O189 O 0.60724 0.90092 0.96698 0.0
O190 O 0.72861 0.89028 0.02768 0.0
O191 O 0.72148 0.91391 1.01053 0.0
H192 H 0.51064 0.96032 0.09893 0.0
H193 H 0.5168 0.98572 0.09586 0.0
H194 H 0.56222 0.98412 0.9264 0.0
H195 H 0.55865 0.95858 0.9298 0.0
H196 H 0.6852 0.84862 0.95528 0.0
H197 H 0.764 0.82562 0.94484 0.0
H198 H 0.71047 0.81847 0.11185 0.0
H199 H 0.63033 0.84132 0.12184 0.0
La200 La 0.52824 0.17207 0.02193 0.0
La201 La 0.53121 0.14196 0.0258 0.0
C202 C 0.50945 0.19763 0.99804 0.0
C203 C 0.4557 0.21097 1.00851 0.0
C204 C 0.43502 0.2162 0.05972 0.0
C205 C 0.40014 0.22992 0.06773 0.0
C206 C 0.3856 0.23876 0.02477 0.0
C207 C 0.40233 0.23322 0.97368 0.0
C208 C 0.43693 0.21952 0.96575 0.0
C209 C 0.55168 0.16235 0.11832 0.0
C210 C 0.32236 0.15561 0.03712 0.0
C211 C 0.54933 0.11593 0.0359 0.0
C212 C 0.56032 0.10051 0.03924 0.0
C213 C 0.57554 0.09251 0.99304 0.0
C214 C 0.57207 0.07789 0.9949 0.0
C215 C 0.55353 0.07084 0.04307 0.0
C216 C 0.54216 0.07887 0.08953 0.0
C217 C 0.54517 0.09352 0.08761 0.0
C218 C 0.50344 0.1526 0.93132 0.0
C219 C 0.73317 0.15817 0.01519 0.0
O220 O 0.56474 0.19302 0.03381 0.0
O221 O 0.46545 0.18747 0.97509 0.0
O222 O 0.59052 0.17359 0.09804 0.0
O223 O 0.4952 0.15734 0.08606 0.0
O224 O 0.3678 0.16756 0.02478 0.0
O225 O 0.37353 0.1442 0.04565 0.0
O226 O 0.57534 0.12268 0.99255 0.0
O227 O 0.51808 0.12401 0.07525 0.0
O228 O 0.45526 0.14228 0.95332 0.0
O229 O 0.56502 0.15676 0.96227 0.0
O230 O 0.6862 0.1473 0.03726 0.0
O231 O 0.68189 0.16822 0.99468 0.0
H232 H 0.44895 0.20986 0.09349 0.0
H233 H 0.38641 0.2337 0.10767 0.0
H234 H 0.39325 0.23967 0.93956 0.0
H235 H 0.45338 0.21579 0.92587 0.0
H236 H 0.5863 0.09755 0.95502 0.0
H237 H 0.57989 0.07216 0.9582 0.0
H238 H 0.52955 0.07385 0.12749 0.0
H239 H 0.533 0.09938 0.12389 0.0
La240 La 0.56525 0.17416 0.53009 0.0
La241 La 0.58992 0.1423 0.52386 0.0
C242 C 0.55601 0.19879 0.56602 0.0
C243 C 0.59907 0.21285 0.55544 0.0
C244 C 0.60976 0.21856 0.50455 0.0
C245 C 0.6438 0.23229 0.4965 0.0
C246 C 0.6682 0.24063 0.53908 0.0
C247 C 0.65943 0.23471 0.58976 0.0
C248 C 0.62521 0.22102 0.59777 0.0
C249 C 0.58663 0.16653 0.42869 0.0
C250 C 0.7821 0.16027 0.51652 0.0
C251 C 0.58434 0.11621 0.51342 0.0
C252 C 0.57915 0.10071 0.50957 0.0
C253 C 0.53827 0.09284 0.55247 0.0
C254 C 0.53755 0.0782 0.55055 0.0
C255 C 0.57745 0.07101 0.5056 0.0
C256 C 0.61734 0.07891 0.46238 0.0
C257 C 0.61845 0.09358 0.46441 0.0
C258 C 0.60386 0.15393 0.61795 0.0
C259 C 0.37524 0.1561 0.52197 0.0
O260 O 0.49695 0.19388 0.53237 0.0
O261 O 0.61464 0.18911 0.5825 0.0
O262 O 0.57973 0.17928 0.44552 0.0
O263 O 0.58543 0.15883 0.46891 0.0
O264 O 0.72562 0.17113 0.53195 0.0
O265 O 0.74377 0.1481 0.50417 0.0
O266 O 0.5395 0.12296 0.5532 0.0
O267 O 0.63068 0.12431 0.47795 0.0
O268 O 0.65752 0.14371 0.59864 0.0
O269 O 0.5429 0.15717 0.58507 0.0
O270 O 0.43441 0.14542 0.50805 0.0
O271 O 0.41036 0.16798 0.53919 0.0
H272 H 0.59062 0.2125 0.47105 0.0
H273 H 0.65092 0.23638 0.45681 0.0
H274 H 0.67623 0.2408 0.62364 0.0
H275 H 0.61723 0.21689 0.63741 0.0
H276 H 0.50754 0.09797 0.58798 0.0
H277 H 0.50487 0.07253 0.58428 0.0
H278 H 0.64954 0.07375 0.42725 0.0
H279 H 0.65098 0.09933 0.43081 0.0
La280 La 0.54218 0.91626 0.5264 0.0
La281 La 0.5362 0.88554 0.52768 0.0
C282 C 0.56408 0.94227 0.53522 0.0
C283 C 0.57806 0.95764 0.539 0.0
C284 C 0.61779 0.96526 0.49517 0.0
C285 C 0.62316 0.97988 0.49682 0.0
C286 C 0.58871 0.98732 0.54232 0.0
C287 C 0.55058 0.97964 0.58652 0.0
C288 C 0.54534 0.965 0.58486 0.0
C289 C 0.52787 0.90424 0.43325 0.0
C290 C 0.7425 0.89905 0.52291 0.0
C291 C 0.51594 0.85975 0.50811 0.0
C292 C 0.45438 0.84694 0.51549 0.0
C293 C 0.46339 0.83809 0.55893 0.0
C294 C 0.41974 0.82483 0.56114 0.0
C295 C 0.3662 0.82 0.51989 0.0
C296 C 0.3545 0.82904 0.47728 0.0
C297 C 0.39833 0.8423 0.47502 0.0
C298 C 0.55187 0.897 0.62152 0.0
C299 C 0.3324 0.903 0.53474 0.0
O300 O 0.58893 0.93533 0.49203 0.0
O301 O 0.53036 0.93439 0.57462 0.0
O302 O 0.4799 0.91527 0.44995 0.0
O303 O 0.58163 0.90038 0.46845 0.0
O304 O 0.6957 0.91051 0.5408 0.0
O305 O 0.69214 0.88858 0.50487 0.0
O306 O 0.55847 0.8646 0.54842 0.0
O307 O 0.48716 0.86982 0.47804 0.0
O308 O 0.59211 0.88534 0.60555 0.0
O309 O 0.49875 0.90133 0.58657 0.0
O310 O 0.37716 0.89073 0.52632 0.0
O311 O 0.38344 0.91449 0.54134 0.0
H312 H 0.64355 0.95995 0.45913 0.0
H313 H 0.65457 0.98535 0.46231 0.0
H314 H 0.52226 0.98495 0.62211 0.0
H315 H 0.51349 0.95946 0.61915 0.0
H316 H 0.50711 0.8412 0.59053 0.0
H317 H 0.42918 0.81827 0.59495 0.0
H318 H 0.31485 0.82567 0.44447 0.0
H319 H 0.39158 0.84868 0.44045 0.0
H320 H 0.40347 0.38409 0.055 0.0
H321 H 0.38599 0.42368 0.97537 0.0
H322 H 0.56418 0.42645 0.97495 0.0
H323 H 0.72666 0.41789 0.99819 0.0
H324 H 0.74392 0.37849 0.07922 0.0
H325 H 0.56616 0.37552 0.07816 0.0
C326 C 0.43865 0.39327 0.03715 0.0
C327 C 0.38042 0.40362 0.01512 0.0
C328 C 0.54201 0.39493 0.03759 0.0
C329 C 0.42806 0.41551 0.99271 0.0
C330 C 0.53046 0.41713 0.99248 0.0
C331 C 0.69164 0.40867 0.01579 0.0
C332 C 0.74966 0.39848 0.03888 0.0
C333 C 0.58838 0.40697 0.01512 0.0
C334 C 0.70205 0.38658 0.06126 0.0
C335 C 0.59988 0.38482 0.06059 0.0
H336 H 0.3767 0.67553 1.01215 0.0
H337 H 0.34047 0.63187 0.05106 0.0
H338 H 0.51825 0.62951 0.05668 0.0
H339 H 0.6847 0.63974 0.05004 0.0
H340 H 0.7208 0.6835 1.01236 0.0
H341 H 0.54298 0.68587 1.00711 0.0
C342 C 0.40752 0.66547 0.02173 0.0
C343 C 0.3446 0.65388 0.03091 0.0
C344 C 0.5102 0.6642 0.02533 0.0
C345 C 0.3865 0.64098 0.04371 0.0
C346 C 0.48846 0.63962 0.04696 0.0
C347 C 0.65393 0.64983 0.04083 0.0
C348 C 0.71696 0.66142 0.0316 0.0
C349 C 0.55113 0.65115 0.03784 0.0
C350 C 0.67481 0.67438 0.01977 0.0
C351 C 0.57281 0.67575 0.01662 0.0
H352 H 0.71833 0.63969 0.50229 0.0
H353 H 0.7368 0.68163 0.56277 0.0
H354 H 0.5586 0.68433 0.5629 0.0
H355 H 0.39544 0.67482 0.54669 0.0
H356 H 0.37667 0.63275 0.48753 0.0
H357 H 0.55519 0.63019 0.48598 0.0
C358 C 0.68349 0.64942 0.51555 0.0
C359 C 0.74185 0.6604 0.53257 0.0
C360 C 0.58 0.65094 0.51571 0.0
C361 C 0.69457 0.67294 0.54954 0.0
C362 C 0.59217 0.67453 0.54958 0.0
C363 C 0.43033 0.66511 0.53318 0.0
C364 C 0.37174 0.65402 0.51723 0.0
C365 C 0.53387 0.66361 0.53279 0.0
C366 C 0.41903 0.6415 0.5002 0.0
C367 C 0.52163 0.63999 0.49928 0.0
H368 H 0.65711 0.41854 0.55098 0.0
H369 H 0.6977 0.37467 0.51573 0.0
H370 H 0.52084 0.37222 0.50799 0.0
H371 H 0.35358 0.38253 0.5102 0.0
H372 H 0.31313 0.4263 0.54701 0.0
H373 H 0.48997 0.42873 0.55479 0.0
C374 C 0.62748 0.40841 0.54187 0.0
C375 C 0.69162 0.39681 0.53407 0.0
C376 C 0.52512 0.40704 0.53736 0.0
C377 C 0.65089 0.3838 0.52218 0.0
C378 C 0.54939 0.38239 0.51754 0.0
C379 C 0.38339 0.39263 0.51968 0.0
C380 C 0.31942 0.40423 0.5277 0.0
C381 C 0.48569 0.39394 0.52475 0.0
C382 C 0.35995 0.41717 0.54052 0.0
C383 C 0.46141 0.41858 0.54506 0.0
H384 H 0.90802 0.88303 0.04679 0.0
H385 H 0.88617 0.9247 0.98399 0.0
H386 H 0.06437 0.92738 0.98244 0.0
H387 H 0.22815 0.9181 0.99977 0.0
H388 H 0.24968 0.87655 0.06369 0.0
H389 H 0.07183 0.87373 0.06392 0.0
C390 C 0.9422 0.89267 0.03249 0.0
C391 C 0.88287 0.90361 0.01554 0.0
C392 C 1.04556 0.89424 0.03208 0.0
C393 C 0.92918 0.91606 0.99746 0.0
C394 C 1.03158 0.91763 0.99653 0.0
C395 C 0.19403 0.90844 0.01383 0.0
C396 C 0.25315 0.8976 0.03176 0.0
C397 C 0.09072 0.90684 0.01399 0.0
C398 C 0.20684 0.88514 0.04972 0.0
C399 C 0.10463 0.88347 0.04983 0.0
H400 H 0.18921 0.17396 0.99871 0.0
H401 H 0.20633 0.13472 0.08071 0.0
H402 H 1.02817 0.1319 0.08092 0.0
H403 H 0.86585 0.14031 0.05678 0.0
H404 H 0.84899 0.17935 0.97335 0.0
H405 H 1.02667 0.18239 0.97466 0.0
C406 C 0.15395 0.16485 0.01706 0.0
C407 C 0.21208 0.15461 0.03982 0.0
C408 C 0.05062 0.16316 0.01646 0.0
C409 C 0.16434 0.14281 0.06282 0.0
C410 C 0.06197 0.14115 0.06292 0.0
C411 C 0.90094 0.14946 0.0387 0.0
C412 C 0.84304 0.15954 0.01486 0.0
C413 C 1.00416 0.1512 0.03954 0.0
C414 C 0.89075 0.17135 0.99189 0.0
C415 C 0.99288 0.17315 0.9927 0.0
H416 H 0.23092 0.17623 0.53708 0.0
H417 H 0.2728 0.13268 0.49709 0.0
H418 H 0.09565 0.13015 0.49038 0.0
H419 H 0.92683 0.14016 0.49708 0.0
H420 H 0.8864 0.18379 0.5367 0.0
H421 H 0.06343 0.18633 0.54194 0.0
C422 C 0.2016 0.16616 0.52692 0.0
C423 C 0.26627 0.15467 0.51782 0.0
C424 C 0.09899 0.16476 0.52287 0.0
C425 C 0.22578 0.14175 0.5044 0.0
C426 C 0.12398 0.14028 0.50052 0.0
C427 C 0.95658 0.15026 0.50654 0.0
C428 C 0.892 0.16174 0.51645 0.0
C429 C 0.05957 0.15169 0.50975 0.0
C430 C 0.93311 0.17471 0.52883 0.0
C431 C 1.03492 0.1762 0.53196 0.0
H432 H 0.87585 0.91847 0.55255 0.0
H433 H 0.85697 0.87647 0.49269 0.0
H434 H 1.0352 0.87377 0.49234 0.0
H435 H 0.1985 0.8833 0.50815 0.0
H436 H 0.21765 0.92543 0.56667 0.0
H437 H 1.03912 0.92799 0.56846 0.0
C438 C 0.91061 0.90873 0.5394 0.0
C439 C 0.85214 0.89773 0.5226 0.0
C440 C 1.01411 0.9072 0.53909 0.0
C441 C 0.8993 0.88518 0.50574 0.0
C442 C 1.00172 0.88358 0.50557 0.0
C443 C 0.16369 0.89302 0.52156 0.0
C444 C 0.22239 0.90412 0.53726 0.0
C445 C 0.06014 0.89452 0.5221 0.0
C446 C 0.1752 0.91667 0.55419 0.0
C447 C 0.0726 0.91817 0.55526 0.0
H448 H 0.12483 0.55181 0.98545 0.0
H449 H 0.87491 0.55516 0.10058 0.0
H450 H 0.85731 0.52979 0.10109 0.0
H451 H 0.91064 0.50658 0.06775 0.0
H452 H 0.16071 0.50332 0.95263 0.0
H453 H 0.17776 0.52866 0.95198 0.0
C454 C 0.06586 0.54704 1.01036 0.0
C455 C 1.00152 0.55551 0.04302 0.0
C456 C 0.05527 0.5324 1.01006 0.0
C457 C 0.92671 0.54899 0.07563 0.0
C458 C 0.91597 0.53445 0.07563 0.0
C459 C 0.96935 0.51138 0.04273 0.0
C460 C 1.03391 0.50292 1.01011 0.0
C461 C 0.97972 0.52603 0.04297 0.0
C462 C 0.1086 0.50946 0.97748 0.0
C463 C 0.11909 0.524 0.97741 0.0
H464 H 0.95584 0.50581 0.47062 0.0
H465 H 0.06418 0.50355 0.62464 0.0
H466 H 0.07108 0.52902 0.62845 0.0
H467 H 0.04969 0.55202 0.58749 0.0
H468 H 0.94084 0.55428 0.43356 0.0
H469 H 0.93335 0.52882 0.42992 0.0
C470 C 0.98172 0.51086 0.50491 0.0
C471 C 1.0093 0.50265 0.54731 0.0
C472 C 0.98611 0.52557 0.50677 0.0
C473 C 1.0411 0.5095 0.59168 0.0
C474 C 1.04572 0.52411 0.59377 0.0
C475 C 1.02331 0.54698 0.55331 0.0
C476 C 0.99607 0.55519 0.51082 0.0
C477 C 1.01847 0.53226 0.55156 0.0
C478 C 0.96372 0.54833 0.46658 0.0
C479 C 0.95878 0.53373 0.46458 0.0
H480 H 0.4391 1.00687 0.07191 0.0
H481 H 0.67175 1.00244 0.94728 0.0
H482 H 0.69661 1.02765 0.94644 0.0
H483 H 0.65537 0.05102 0.98222 0.0
H484 H 0.42219 0.05546 0.10659 0.0
H485 H 0.39756 0.03025 0.10754 0.0
C486 C 0.49577 1.01137 0.04475 0.0
C487 C 0.55303 1.00263 1.00956 0.0
C488 C 0.51072 1.02594 0.04484 0.0
C489 C 0.6251 1.00881 0.97422 0.0
C490 C 0.64013 1.02328 0.97401 0.0
C491 C 0.59857 0.04652 1.00933 0.0
C492 C 0.54119 0.05527 0.04444 0.0
C493 C 0.58357 0.03195 1.00921 0.0
C494 C 0.46901 0.04909 0.07973 0.0
C495 C 0.45408 0.03462 0.07999 0.0
H496 H 0.61637 0.05263 0.58371 0.0
H497 H 0.53724 0.05404 0.42351 0.0
H498 H 0.53483 1.02853 0.4205 0.0
H499 H 0.55177 1.00574 0.46378 0.0
H500 H 0.6326 1.00435 0.62374 0.0
H501 H 0.63526 0.02983 0.62664 0.0
C502 C 0.59785 0.04738 0.54821 0.0
C503 C 0.57702 0.05535 0.50389 0.0
C504 C 0.59624 0.03265 0.54676 0.0
C505 C 0.55481 0.04826 0.45803 0.0
C506 C 0.55282 0.03363 0.45637 0.0
C507 C 0.5711 1.01097 0.49915 0.0
C508 C 0.59173 1.00299 0.54352 0.0
C509 C 0.57336 1.0257 0.50048 0.0
C510 C 0.61488 1.0101 0.5892 0.0
C511 C 0.61707 1.02472 0.59081 0.0
H512 H 0.33141 0.30306 0.08188 0.0
H513 H 0.14199 0.30114 0.95444 0.0
H514 H 0.17886 0.27632 0.9429 0.0
H515 H 0.26192 0.25493 0.96996 0.0
H516 H 0.45138 0.25684 0.0974 0.0
H517 H 0.41446 0.28166 0.10896 0.0
C518 C 0.29761 0.29722 0.05175 0.0
C519 C 0.23425 0.30411 0.01896 0.0
C520 C 0.31807 0.28283 0.04568 0.0
C521 C 0.19249 0.2963 0.97969 0.0
C522 C 0.21277 0.28202 0.97335 0.0
C523 C 0.29574 0.26076 1.0001 0.0
C524 C 0.35913 0.25387 0.03287 0.0
C525 C 0.27526 0.27515 1.00618 0.0
C526 C 0.40087 0.26168 0.07215 0.0
C527 C 0.38055 0.27596 0.07851 0.0
H528 H 0.67292 0.79599 0.07436 0.0
H529 H 0.9062 0.81153 0.96524 0.0
H530 H 0.97364 0.78791 0.95386 0.0
H531 H 0.96843 0.76287 0.97607 0.0
H532 H 0.73401 0.74734 0.08463 0.0
H533 H 0.66676 0.77093 0.09588 0.0
C534 C 0.73913 0.79426 0.04846 0.0
C535 C 0.7844 0.80562 0.02084 0.0
C536 C 0.77776 0.78062 0.04215 0.0
C537 C 0.86908 0.80304 0.98666 0.0
C538 C 0.90806 0.78952 0.98031 0.0
C539 C 0.90194 0.76458 1.00175 0.0
C540 C 0.85671 0.75323 0.02948 0.0
C541 C 0.86303 0.77822 1.00784 0.0
C542 C 0.77148 0.75581 0.06328 0.0
C543 C 0.7325 0.76933 0.06954 0.0
H544 H 0.141 0.76232 0.5037 0.0
H545 H 0.40604 0.7469 0.56626 0.0
H546 H 0.47049 0.77066 0.56832 0.0
H547 H 0.45304 0.79585 0.55138 0.0
H548 H 0.18799 0.81127 0.48882 0.0
H549 H 0.12351 0.78752 0.4868 0.0
C550 C 0.21339 0.76411 0.51724 0.0
C551 C 0.26836 0.75272 0.53476 0.0
C552 C 0.25034 0.77785 0.51824 0.0
C553 C 0.36134 0.75539 0.55306 0.0
C554 C 0.39857 0.769 0.55404 0.0
C555 C 0.38063 0.79407 0.53785 0.0
C556 C 0.32568 0.80545 0.52031 0.0
C557 C 0.34367 0.78033 0.53687 0.0
C558 C 0.23268 0.80278 0.50204 0.0
C559 C 0.19544 0.78917 0.50106 0.0
H560 H 0.74505 0.30465 0.48351 0.0
H561 H 0.95926 0.29936 0.59772 0.0
H562 H 0.91146 0.27497 0.60965 0.0
H563 H 0.81058 0.25491 0.5871 0.0
H564 H 0.59586 0.26011 0.47313 0.0
H565 H 0.64392 0.28451 0.46087 0.0
C566 C 0.78172 0.29816 0.51083 0.0
C567 C 0.85535 0.30399 0.53992 0.0
C568 C 0.75434 0.28401 0.51731 0.0
C569 C 0.90108 0.29535 0.57549 0.0
C570 C 0.87432 0.28131 0.58207 0.0
C571 C 0.77363 0.26138 0.55983 0.0
C572 C 0.69966 0.25554 0.53104 0.0
C573 C 0.80101 0.27552 0.55325 0.0
C574 C 0.65406 0.26415 0.4953 0.0
C575 C 0.68101 0.27819 0.48852 0.0
H576 H 0.93005 0.39871 0.19152 0.0
H577 H 0.24349 0.4058 0.18225 0.0
H578 H 0.24246 0.40402 0.27796 0.0
H579 H 0.14966 0.40281 0.36561 0.0
H580 H 0.83376 0.39842 0.37495 0.0
H581 H 0.83813 0.39662 0.2791 0.0
C582 C 0.99825 0.39957 0.21049 0.0
C583 C 0.08693 0.40228 0.17973 0.0
C584 C 0.99641 0.39911 0.26604 0.0
C585 C 0.17438 0.40367 0.20502 0.0
C586 C 0.17378 0.4027 0.25985 0.0
C587 C 0.08227 0.40113 0.34659 0.0
C588 C 0.99156 0.40056 0.3774 0.0
C589 C 0.08493 0.40074 0.29101 0.0
C590 C 0.90451 0.39877 0.3521 0.0
C591 C 0.90694 0.39781 0.29721 0.0
H592 H 0.18065 0.65642 0.19252 0.0
H593 H 0.86749 0.65955 0.17971 0.0
H594 H 0.83764 0.65896 0.27579 0.0
H595 H 0.90288 0.66007 0.36361 0.0
H596 H 0.21486 0.65493 0.37636 0.0
H597 H 0.24338 0.6536 0.28036 0.0
C598 C 0.10583 0.65666 0.21092 0.0
C599 C 1.02632 0.6581 0.17932 0.0
C600 C 0.08935 0.65606 0.26612 0.0
C601 C 0.92967 0.65836 0.2033 0.0
C602 C 0.91275 0.65813 0.25823 0.0
C603 C 0.97676 0.65836 0.34523 0.0
C604 C 0.05681 0.6577 0.37678 0.0
C605 C 0.9922 0.65734 0.29006 0.0
C606 C 0.15217 0.65542 0.35281 0.0
C607 C 0.16849 0.65475 0.29793 0.0
H608 H 0.89657 0.65864 0.85811 0.0
H609 H 0.20547 0.65586 0.88316 0.0
H610 H 0.24817 0.65589 0.788 0.0
H611 H 0.19596 0.65467 0.6973 0.0
H612 H 0.88815 0.65962 0.67244 0.0
H613 H 0.84651 0.66092 0.76746 0.0
C614 C 0.97323 0.65828 0.84256 0.0
C615 C 0.04775 0.65714 0.87739 0.0
C616 C 0.99726 0.6586 0.78781 0.0
C617 C 0.14689 0.65678 0.85704 0.0
C618 C 0.17127 0.65672 0.80263 0.0
C619 C 0.12007 0.65626 0.71285 0.0
C620 C 1.04512 0.65692 0.6781 0.0
C621 C 0.09694 0.65732 0.76759 0.0
C622 C 0.94711 0.6591 0.69847 0.0
C623 C 0.92321 0.65977 0.75282 0.0
H624 H 0.16747 0.40067 0.69124 0.0
H625 H 0.85286 0.39792 0.68406 0.0
H626 H 0.82941 0.39801 0.78046 0.0
H627 H 0.90023 0.39689 0.86721 0.0
H628 H 0.21351 0.40189 0.87428 0.0
H629 H 0.23594 0.40303 0.77803 0.0
C630 C 0.09369 0.40037 0.71089 0.0
C631 C 1.01196 0.39925 0.68051 0.0
C632 C 0.08079 0.40072 0.76644 0.0
C633 C 0.91681 0.39889 0.70644 0.0
C634 C 0.90353 0.39884 0.76163 0.0
C635 C 0.97316 0.39846 0.84758 0.0
C636 C 0.05525 0.39921 0.87788 0.0
C637 C 0.98511 0.39946 0.7921 0.0
C638 C 0.1492 0.40133 0.85199 0.0
C639 C 0.16204 0.40191 0.79687 0.0
H640 H 0.70412 0.90264 0.19676 0.0
H641 H 0.39567 0.90008 0.17081 0.0
H642 H 0.35221 0.89949 0.26581 0.0
H643 H 0.4018 0.90157 0.35677 0.0
H644 H 0.71084 0.90183 0.38268 0.0
H645 H 0.75454 0.90132 0.28769 0.0
C646 C 0.62762 0.90173 0.21209 0.0
C647 C 0.55316 0.90151 0.17702 0.0
C648 C 0.60336 0.90106 0.26681 0.0
C649 C 0.45427 0.90023 0.1971 0.0
C650 C 0.42936 0.89996 0.25143 0.0
C651 C 0.47858 0.90129 0.34143 0.0
C652 C 0.55302 0.90182 0.37646 0.0
C653 C 0.50315 0.90065 0.28672 0.0
C654 C 0.65232 0.90136 0.35639 0.0
C655 C 0.67732 0.90115 0.30208 0.0
H656 H 0.68616 0.17036 0.18447 0.0
H657 H 0.41526 0.14734 0.18205 0.0
H658 H 0.40739 0.14486 0.2783 0.0
H659 H 0.47045 0.15144 0.36487 0.0
H660 H 0.74076 0.17476 0.36421 0.0
H661 H 0.75701 0.17469 0.26826 0.0
C662 C 0.62584 0.16465 0.20488 0.0
C663 C 0.55091 0.15917 0.17589 0.0
C664 C 0.62207 0.16327 0.26013 0.0
C665 C 0.4739 0.15169 0.20316 0.0
C666 C 0.46934 0.15031 0.25837 0.0
C667 C 0.53452 0.15606 0.34357 0.0
C668 C 0.60564 0.16286 0.37191 0.0
C669 C 0.54212 0.1563 0.28759 0.0
C670 C 0.68623 0.16924 0.34356 0.0
C671 C 0.69501 0.16933 0.28855 0.0
H672 H 0.66125 0.15928 0.86106 0.0
H673 H 0.34827 0.15174 0.87172 0.0
H674 H 0.34784 0.1534 0.77607 0.0
H675 H 0.43906 0.15475 0.68793 0.0
H676 H 0.75454 0.15968 0.67701 0.0
H677 H 0.75168 0.16145 0.77287 0.0
C678 C 0.5928 0.15828 0.84243 0.0
C679 C 0.50468 0.15549 0.87371 0.0
C680 C 0.59376 0.1587 0.7868 0.0
C681 C 0.41701 0.15392 0.84869 0.0
C682 C 0.41676 0.15484 0.79384 0.0
C683 C 0.50669 0.15656 0.70659 0.0
C684 C 0.59681 0.15732 0.67522 0.0
C685 C 0.50495 0.15693 0.76223 0.0
C686 C 0.68417 0.15923 0.70017 0.0
C687 C 0.68261 0.16016 0.75512 0.0
H688 H 0.69056 0.90019 0.69061 0.0
H689 H 0.37625 0.90051 0.6795 0.0
H690 H 0.34846 0.90124 0.77564 0.0
H691 H 0.41456 0.89929 0.86304 0.0
H692 H 0.72858 0.90102 0.87421 0.0
H693 H 0.75608 0.90217 0.77812 0.0
C694 C 0.61612 0.90074 0.70939 0.0
C695 C 0.53548 0.90024 0.67826 0.0
C696 C 0.60092 0.90142 0.76465 0.0
C697 C 0.43932 0.90098 0.70275 0.0
C698 C 0.42351 0.90129 0.7577 0.0
C699 C 0.48879 0.90022 0.8443 0.0
C700 C 0.56954 0.89999 0.87541 0.0
C701 C 0.50375 0.90115 0.78909 0.0
C702 C 0.6654 0.90125 0.85098 0.0
C703 C 0.68108 0.90181 0.79605 0.0
loop_
_geom_bond_atom_site_label_1
_geom_bond_atom_site_label_2
_geom_bond_distance
_geom_bond_site_symmetry_2
_ccdc_geom_bond_type
La0 C2 2.928 1_455 S
La0 O20 2.521 . S
La0 O21 2.628 1_454 S
La0 O22 2.554 . S
La0 O23 2.757 . S
La0 O24 2.470 1_455 S
La0 O29 2.482 1_554 S
La0 O31 2.503 . S
La1 C11 2.928 . S
La1 O23 2.482 . S
La1 O25 2.503 1_455 S
La1 O26 2.521 1_554 S
La1 O27 2.628 . S
La1 O28 2.554 1_554 S
La1 O29 2.757 1_554 S
La1 O30 2.470 1_554 S
C2 La0 2.928 1_655 S
C2 C3 1.503 . S
C2 O20 1.261 1_655 S
C2 O21 1.243 1_554 S
C3 C2 1.503 . S
C3 C4 1.394 . S
C3 C8 1.373 1_554 S
C4 C3 1.394 . S
C4 C5 1.380 . S
C4 H32 0.930 . S
C5 C4 1.380 . S
C5 C6 1.376 . S
C5 H33 0.930 . S
C6 C5 1.376 . S
C6 C7 1.370 1_554 S
C7 C6 1.370 1_556 S
C7 C8 1.396 . S
C7 H34 0.929 . S
C8 C3 1.373 1_556 S
C8 C7 1.396 . S
C8 H35 0.929 . S
C9 O22 1.240 . S
C9 O23 1.289 . S
C10 O24 1.258 . S
C10 O25 1.256 . S
C11 La1 2.928 . S
C11 C12 1.503 . S
C11 O26 1.261 1_554 S
C11 O27 1.243 . S
C12 C11 1.503 . S
C12 C13 1.394 1_554 S
C12 C17 1.373 . S
C13 C12 1.394 1_556 S
C13 C14 1.380 . S
C13 H36 0.930 . S
C14 C13 1.380 . S
C14 C15 1.376 1_556 S
C14 H37 0.930 . S
C15 C14 1.376 1_554 S
C15 C16 1.370 . S
C16 C15 1.370 . S
C16 C17 1.396 . S
C16 H38 0.929 . S
C17 C12 1.373 . S
C17 C16 1.396 . S
C17 H39 0.929 . S
C18 O28 1.240 . S
C18 O29 1.289 . S
C19 O30 1.258 1_554 S
C19 O31 1.256 . S
O20 La0 2.521 . S
O20 C2 1.261 1_455 S
O21 La0 2.628 1_656 S
O21 C2 1.243 1_556 S
O22 La0 2.554 . S
O22 C9 1.240 . S
O23 La0 2.757 . S
O23 La1 2.482 . S
O23 C9 1.289 . S
O24 La0 2.470 1_655 S
O24 C10 1.258 . S
O25 La1 2.503 1_655 S
O25 C10 1.256 . S
O26 La1 2.521 1_556 S
O26 C11 1.261 1_556 S
O27 La1 2.628 . S
O27 C11 1.243 . S
O28 La1 2.554 1_556 S
O28 C18 1.240 . S
O29 La0 2.482 1_556 S
O29 La1 2.757 1_556 S
O29 C18 1.289 . S
O30 La1 2.470 1_556 S
O30 C19 1.258 1_556 S
O31 La0 2.503 . S
O31 C19 1.256 . S
H32 C4 0.930 . S
H33 C5 0.930 . S
H34 C7 0.929 . S
H35 C8 0.929 . S
H36 C13 0.930 . S
H37 C14 0.930 . S
H38 C16 0.929 . S
H39 C17 0.929 . S
La40 C42 2.928 . S
La40 O60 2.521 . S
La40 O61 2.628 1_554 S
La40 O62 2.554 . S
La40 O63 2.757 . S
La40 O64 2.470 . S
La40 O69 2.482 1_554 S
La40 O71 2.503 1_655 S
La41 C51 2.928 1_655 S
La41 O63 2.482 . S
La41 O65 2.503 . S
La41 O66 2.521 1_554 S
La41 O67 2.628 1_655 S
La41 O68 2.554 1_554 S
La41 O69 2.757 1_554 S
La41 O70 2.470 1_654 S
C42 La40 2.928 . S
C42 C43 1.503 . S
C42 O60 1.261 . S
C42 O61 1.243 1_554 S
C43 C42 1.503 . S
C43 C44 1.394 . S
C43 C48 1.373 1_554 S
C44 C43 1.394 . S
C44 C45 1.380 . S
C44 H72 0.930 . S
C45 C44 1.380 . S
C45 C46 1.376 . S
C45 H73 0.930 . S
C46 C45 1.376 . S
C46 C47 1.370 1_554 S
C47 C46 1.370 1_556 S
C47 C48 1.396 . S
C47 H74 0.929 . S
C48 C43 1.373 1_556 S
C48 C47 1.396 . S
C48 H75 0.929 . S
C49 O62 1.240 . S
C49 O63 1.289 . S
C50 O64 1.258 . S
C50 O65 1.256 . S
C51 La41 2.928 1_455 S
C51 C52 1.503 . S
C51 O66 1.261 1_454 S
C51 O67 1.243 . S
C52 C51 1.503 . S
C52 C53 1.394 1_554 S
C52 C57 1.373 . S
C53 C52 1.394 1_556 S
C53 C54 1.380 . S
C53 H76 0.930 . S
C54 C53 1.380 . S
C54 C55 1.376 1_556 S
C54 H77 0.930 . S
C55 C54 1.376 1_554 S
C55 C56 1.370 . S
C56 C55 1.370 . S
C56 C57 1.396 . S
C56 H78 0.929 . S
C57 C52 1.373 . S
C57 C56 1.396 . S
C57 H79 0.929 . S
C58 O68 1.240 . S
C58 O69 1.289 . S
C59 O70 1.258 1_554 S
C59 O71 1.256 . S
O60 La40 2.521 . S
O60 C42 1.261 . S
O61 La40 2.628 1_556 S
O61 C42 1.243 1_556 S
O62 La40 2.554 . S
O62 C49 1.240 . S
O63 La40 2.757 . S
O63 La41 2.482 . S
O63 C49 1.289 . S
O64 La40 2.470 . S
O64 C50 1.258 . S
O65 La41 2.503 . S
O65 C50 1.256 . S
O66 La41 2.521 1_556 S
O66 C51 1.261 1_656 S
O67 La41 2.628 1_455 S
O67 C51 1.243 . S
O68 La41 2.554 1_556 S
O68 C58 1.240 . S
O69 La40 2.482 1_556 S
O69 La41 2.757 1_556 S
O69 C58 1.289 . S
O70 La41 2.470 1_456 S
O70 C59 1.258 1_556 S
O71 La40 2.503 1_455 S
O71 C59 1.256 . S
H72 C44 0.930 . S
H73 C45 0.930 . S
H74 C47 0.929 . S
H75 C48 0.929 . S
H76 C53 0.930 . S
H77 C54 0.930 . S
H78 C56 0.929 . S
H79 C57 0.929 . S
La80 C82 2.928 . S
La80 O100 2.521 . S
La80 O101 2.628 . S
La80 O102 2.554 . S
La80 O103 2.757 . S
La80 O104 2.470 . S
La80 O109 2.482 . S
La80 O111 2.503 1_455 S
La81 C91 2.928 1_455 S
La81 O103 2.482 . S
La81 O105 2.503 . S
La81 O106 2.521 . S
La81 O107 2.628 1_455 S
La81 O108 2.554 . S
La81 O109 2.757 . S
La81 O110 2.470 1_455 S
C82 La80 2.928 . S
C82 C83 1.503 . S
C82 O100 1.261 . S
C82 O101 1.243 . S
C83 C82 1.503 . S
C83 C84 1.394 . S
C83 C88 1.373 . S
C84 C83 1.394 . S
C84 C85 1.380 . S
C84 H112 0.930 . S
C85 C84 1.380 . S
C85 C86 1.376 . S
C85 H113 0.930 . S
C86 C85 1.376 . S
C86 C87 1.370 . S
C87 C86 1.370 . S
C87 C88 1.396 . S
C87 H114 0.929 . S
C88 C83 1.373 . S
C88 C87 1.396 . S
C88 H115 0.929 . S
C89 O102 1.240 . S
C89 O103 1.289 . S
C90 O104 1.258 . S
C90 O105 1.256 . S
C91 La81 2.928 1_655 S
C91 C92 1.503 . S
C91 O106 1.261 1_655 S
C91 O107 1.243 . S
C92 C91 1.503 . S
C92 C93 1.394 . S
C92 C97 1.373 . S
C93 C92 1.394 . S
C93 C94 1.380 . S
C93 H116 0.930 . S
C94 C93 1.380 . S
C94 C95 1.376 . S
C94 H117 0.930 . S
C95 C94 1.376 . S
C95 C96 1.370 . S
C96 C95 1.370 . S
C96 C97 1.396 . S
C96 H118 0.929 . S
C97 C92 1.373 . S
C97 C96 1.396 . S
C97 H119 0.929 . S
C98 O108 1.240 . S
C98 O109 1.289 . S
C99 O110 1.258 . S
C99 O111 1.256 . S
O100 La80 2.521 . S
O100 C82 1.261 . S
O101 La80 2.628 . S
O101 C82 1.243 . S
O102 La80 2.554 . S
O102 C89 1.240 . S
O103 La80 2.757 . S
O103 La81 2.482 . S
O103 C89 1.289 . S
O104 La80 2.470 . S
O104 C90 1.258 . S
O105 La81 2.503 . S
O105 C90 1.256 . S
O106 La81 2.521 . S
O106 C91 1.261 1_455 S
O107 La81 2.628 1_655 S
O107 C91 1.243 . S
O108 La81 2.554 . S
O108 C98 1.240 . S
O109 La80 2.482 . S
O109 La81 2.757 . S
O109 C98 1.289 . S
O110 La81 2.470 1_655 S
O110 C99 1.258 . S
O111 La80 2.503 1_655 S
O111 C99 1.256 . S
H112 C84 0.930 . S
H113 C85 0.930 . S
H114 C87 0.929 . S
H115 C88 0.929 . S
H116 C93 0.930 . S
H117 C94 0.930 . S
H118 C96 0.929 . S
H119 C97 0.929 . S
La120 C122 2.928 1_655 S
La120 O140 2.521 . S
La120 O141 2.628 1_655 S
La120 O142 2.554 . S
La120 O143 2.757 . S
La120 O144 2.470 1_655 S
La120 O149 2.482 . S
La120 O151 2.503 . S
La121 C131 2.928 . S
La121 O143 2.482 . S
La121 O145 2.503 1_655 S
La121 O146 2.521 . S
La121 O147 2.628 . S
La121 O148 2.554 . S
La121 O149 2.757 . S
La121 O150 2.470 . S
C122 La120 2.928 1_455 S
C122 C123 1.503 . S
C122 O140 1.261 1_455 S
C122 O141 1.243 . S
C123 C122 1.503 . S
C123 C124 1.394 . S
C123 C128 1.373 . S
C124 C123 1.394 . S
C124 C125 1.380 . S
C124 H152 0.930 . S
C125 C124 1.380 . S
C125 C126 1.376 . S
C125 H153 0.930 . S
C126 C125 1.376 . S
C126 C127 1.370 . S
C127 C126 1.370 . S
C127 C128 1.396 . S
C127 H154 0.929 . S
C128 C123 1.373 . S
C128 C127 1.396 . S
C128 H155 0.929 . S
C129 O142 1.240 . S
C129 O143 1.289 . S
C130 O144 1.258 . S
C130 O145 1.256 . S
C131 La121 2.928 . S
C131 C132 1.503 . S
C131 O146 1.261 . S
C131 O147 1.243 . S
C132 C131 1.503 . S
C132 C133 1.394 . S
C132 C137 1.373 . S
C133 C132 1.394 . S
C133 C134 1.380 . S
C133 H156 0.930 . S
C134 C133 1.380 . S
C134 C135 1.376 . S
C134 H157 0.930 . S
C135 C134 1.376 . S
C135 C136 1.370 . S
C136 C135 1.370 . S
C136 C137 1.396 . S
C136 H158 0.929 . S
C137 C132 1.373 . S
C137 C136 1.396 . S
C137 H159 0.929 . S
C138 O148 1.240 . S
C138 O149 1.289 . S
C139 O150 1.258 . S
C139 O151 1.256 . S
O140 La120 2.521 . S
O140 C122 1.261 1_655 S
O141 La120 2.628 1_455 S
O141 C122 1.243 . S
O142 La120 2.554 . S
O142 C129 1.240 . S
O143 La120 2.757 . S
O143 La121 2.482 . S
O143 C129 1.289 . S
O144 La120 2.470 1_455 S
O144 C130 1.258 . S
O145 La121 2.503 1_455 S
O145 C130 1.256 . S
O146 La121 2.521 . S
O146 C131 1.261 . S
O147 La121 2.628 . S
O147 C131 1.243 . S
O148 La121 2.554 . S
O148 C138 1.240 . S
O149 La120 2.482 . S
O149 La121 2.757 . S
O149 C138 1.289 . S
O150 La121 2.470 . S
O150 C139 1.258 . S
O151 La120 2.503 . S
O151 C139 1.256 . S
H152 C124 0.930 . S
H153 C125 0.930 . S
H154 C127 0.929 . S
H155 C128 0.929 . S
H156 C133 0.930 . S
H157 C134 0.930 . S
H158 C136 0.929 . S
H159 C137 0.929 . S
La160 C162 2.928 . S
La160 O180 2.521 . S
La160 O181 2.628 1_554 S
La160 O182 2.554 . S
La160 O183 2.757 . S
La160 O184 2.470 . S
La160 O189 2.482 1_554 S
La160 O191 2.503 . S
La161 C171 2.928 . S
La161 O183 2.482 . S
La161 O185 2.503 . S
La161 O186 2.521 1_554 S
La161 O187 2.628 . S
La161 O188 2.554 1_554 S
La161 O189 2.757 1_554 S
La161 O190 2.470 1_554 S
C162 La160 2.928 . S
C162 C163 1.503 . S
C162 O180 1.261 . S
C162 O181 1.243 1_554 S
C163 C162 1.503 . S
C163 C164 1.394 . S
C163 C168 1.373 1_554 S
C164 C163 1.394 . S
C164 C165 1.380 . S
C164 H192 0.930 . S
C165 C164 1.380 . S
C165 C166 1.376 . S
C165 H193 0.930 . S
C166 C165 1.376 . S
C166 C167 1.370 1_554 S
C167 C166 1.370 1_556 S
C167 C168 1.396 . S
C167 H194 0.929 . S
C168 C163 1.373 1_556 S
C168 C167 1.396 . S
C168 H195 0.929 . S
C169 O182 1.240 . S
C169 O183 1.289 . S
C170 O184 1.258 . S
C170 O185 1.256 . S
C171 La161 2.928 . S
C171 C172 1.503 . S
C171 O186 1.261 1_554 S
C171 O187 1.243 . S
C172 C171 1.503 . S
C172 C173 1.394 1_554 S
C172 C177 1.373 . S
C173 C172 1.394 1_556 S
C173 C174 1.380 . S
C173 H196 0.930 . S
C174 C173 1.380 . S
C174 C175 1.376 1_556 S
C174 H197 0.930 . S
C175 C174 1.376 1_554 S
C175 C176 1.370 . S
C176 C175 1.370 . S
C176 C177 1.396 . S
C176 H198 0.929 . S
C177 C172 1.373 . S
C177 C176 1.396 . S
C177 H199 0.929 . S
C178 O188 1.240 . S
C178 O189 1.289 . S
C179 O190 1.258 1_554 S
C179 O191 1.256 . S
O180 La160 2.521 . S
O180 C162 1.261 . S
O181 La160 2.628 1_556 S
O181 C162 1.243 1_556 S
O182 La160 2.554 . S
O182 C169 1.240 . S
O183 La160 2.757 . S
O183 La161 2.482 . S
O183 C169 1.289 . S
O184 La160 2.470 . S
O184 C170 1.258 . S
O185 La161 2.503 . S
O185 C170 1.256 . S
O186 La161 2.521 1_556 S
O186 C171 1.261 1_556 S
O187 La161 2.628 . S
O187 C171 1.243 . S
O188 La161 2.554 1_556 S
O188 C178 1.240 . S
O189 La160 2.482 1_556 S
O189 La161 2.757 1_556 S
O189 C178 1.289 . S
O190 La161 2.470 1_556 S
O190 C179 1.258 1_556 S
O191 La160 2.503 . S
O191 C179 1.256 . S
H192 C164 0.930 . S
H193 C165 0.930 . S
H194 C167 0.929 . S
H195 C168 0.929 . S
H196 C173 0.930 . S
H197 C174 0.930 . S
H198 C176 0.929 . S
H199 C177 0.929 . S
La200 C202 2.928 . S
La200 O220 2.521 . S
La200 O221 2.628 1_554 S
La200 O222 2.554 . S
La200 O223 2.757 . S
La200 O224 2.470 . S
La200 O229 2.482 1_554 S
La200 O231 2.503 . S
La201 C211 2.928 . S
La201 O223 2.482 . S
La201 O225 2.503 . S
La201 O226 2.521 1_554 S
La201 O227 2.628 . S
La201 O228 2.554 1_554 S
La201 O229 2.757 1_554 S
La201 O230 2.470 1_554 S
C202 La200 2.928 . S
C202 C203 1.503 . S
C202 O220 1.261 . S
C202 O221 1.243 1_554 S
C203 C202 1.503 . S
C203 C204 1.394 . S
C203 C208 1.373 1_554 S
C204 C203 1.394 . S
C204 C205 1.380 . S
C204 H232 0.930 . S
C205 C204 1.380 . S
C205 C206 1.376 . S
C205 H233 0.930 . S
C206 C205 1.376 . S
C206 C207 1.370 1_554 S
C207 C206 1.370 1_556 S
C207 C208 1.396 . S
C207 H234 0.929 . S
C208 C203 1.373 1_556 S
C208 C207 1.396 . S
C208 H235 0.929 . S
C209 O222 1.240 . S
C209 O223 1.289 . S
C210 O224 1.258 . S
C210 O225 1.256 . S
C211 La201 2.928 . S
C211 C212 1.503 . S
C211 O226 1.261 1_554 S
C211 O227 1.243 . S
C212 C211 1.503 . S
C212 C213 1.394 1_554 S
C212 C217 1.373 . S
C213 C212 1.394 1_556 S
C213 C214 1.380 . S
C213 H236 0.930 . S
C214 C213 1.380 . S
C214 C215 1.376 1_556 S
C214 H237 0.930 . S
C215 C214 1.376 1_554 S
C215 C216 1.370 . S
C216 C215 1.370 . S
C216 C217 1.396 . S
C216 H238 0.929 . S
C217 C212 1.373 . S
C217 C216 1.396 . S
C217 H239 0.929 . S
C218 O228 1.240 . S
C218 O229 1.289 . S
C219 O230 1.258 1_554 S
C219 O231 1.256 . S
O220 La200 2.521 . S
O220 C202 1.261 . S
O221 La200 2.628 1_556 S
O221 C202 1.243 1_556 S
O222 La200 2.554 . S
O222 C209 1.240 . S
O223 La200 2.757 . S
O223 La201 2.482 . S
O223 C209 1.289 . S
O224 La200 2.470 . S
O224 C210 1.258 . S
O225 La201 2.503 . S
O225 C210 1.256 . S
O226 La201 2.521 1_556 S
O226 C211 1.261 1_556 S
O227 La201 2.628 . S
O227 C211 1.243 . S
O228 La201 2.554 1_556 S
O228 C218 1.240 . S
O229 La200 2.482 1_556 S
O229 La201 2.757 1_556 S
O229 C218 1.289 . S
O230 La201 2.470 1_556 S
O230 C219 1.258 1_556 S
O231 La200 2.503 . S
O231 C219 1.256 . S
H232 C204 0.930 . S
H233 C205 0.930 . S
H234 C207 0.929 . S
H235 C208 0.929 . S
H236 C213 0.930 . S
H237 C214 0.930 . S
H238 C216 0.929 . S
H239 C217 0.929 . S
La240 C242 2.928 . S
La240 O260 2.521 . S
La240 O261 2.628 . S
La240 O262 2.554 . S
La240 O263 2.757 . S
La240 O264 2.470 . S
La240 O269 2.482 . S
La240 O271 2.503 . S
La241 C251 2.928 . S
La241 O263 2.482 . S
La241 O265 2.503 . S
La241 O266 2.521 . S
La241 O267 2.628 . S
La241 O268 2.554 . S
La241 O269 2.757 . S
La241 O270 2.470 . S
C242 La240 2.928 . S
C242 C243 1.503 . S
C242 O260 1.261 . S
C242 O261 1.243 . S
C243 C242 1.503 . S
C243 C244 1.394 . S
C243 C248 1.373 . S
C244 C243 1.394 . S
C244 C245 1.380 . S
C244 H272 0.930 . S
C245 C244 1.380 . S
C245 C246 1.376 . S
C245 H273 0.930 . S
C246 C245 1.376 . S
C246 C247 1.370 . S
C247 C246 1.370 . S
C247 C248 1.396 . S
C247 H274 0.929 . S
C248 C243 1.373 . S
C248 C247 1.396 . S
C248 H275 0.929 . S
C249 O262 1.240 . S
C249 O263 1.289 . S
C250 O264 1.258 . S
C250 O265 1.256 . S
C251 La241 2.928 . S
C251 C252 1.503 . S
C251 O266 1.261 . S
C251 O267 1.243 . S
C252 C251 1.503 . S
C252 C253 1.394 . S
C252 C257 1.373 . S
C253 C252 1.394 . S
C253 C254 1.380 . S
C253 H276 0.930 . S
C254 C253 1.380 . S
C254 C255 1.376 . S
C254 H277 0.930 . S
C255 C254 1.376 . S
C255 C256 1.370 . S
C256 C255 1.370 . S
C256 C257 1.396 . S
C256 H278 0.929 . S
C257 C252 1.373 . S
C257 C256 1.396 . S
C257 H279 0.929 . S
C258 O268 1.240 . S
C258 O269 1.289 . S
C259 O270 1.258 . S
C259 O271 1.256 . S
O260 La240 2.521 . S
O260 C242 1.261 . S
O261 La240 2.628 . S
O261 C242 1.243 . S
O262 La240 2.554 . S
O262 C249 1.240 . S
O263 La240 2.757 . S
O263 La241 2.482 . S
O263 C249 1.289 . S
O264 La240 2.470 . S
O264 C250 1.258 . S
O265 La241 2.503 . S
O265 C250 1.256 . S
O266 La241 2.521 . S
O266 C251 1.261 . S
O267 La241 2.628 . S
O267 C251 1.243 . S
O268 La241 2.554 . S
O268 C258 1.240 . S
O269 La240 2.482 . S
O269 La241 2.757 . S
O269 C258 1.289 . S
O270 La241 2.470 . S
O270 C259 1.258 . S
O271 La240 2.503 . S
O271 C259 1.256 . S
H272 C244 0.930 . S
H273 C245 0.930 . S
H274 C247 0.929 . S
H275 C248 0.929 . S
H276 C253 0.930 . S
H277 C254 0.930 . S
H278 C256 0.929 . S
H279 C257 0.929 . S
La280 C282 2.928 . S
La280 O300 2.521 . S
La280 O301 2.628 . S
La280 O302 2.554 . S
La280 O303 2.757 . S
La280 O304 2.470 . S
La280 O309 2.482 . S
La280 O311 2.503 . S
La281 C291 2.928 . S
La281 O303 2.482 . S
La281 O305 2.503 . S
La281 O306 2.521 . S
La281 O307 2.628 . S
La281 O308 2.554 . S
La281 O309 2.757 . S
La281 O310 2.470 . S
C282 La280 2.928 . S
C282 C283 1.503 . S
C282 O300 1.261 . S
C282 O301 1.243 . S
C283 C282 1.503 . S
C283 C284 1.394 . S
C283 C288 1.373 . S
C284 C283 1.394 . S
C284 C285 1.380 . S
C284 H312 0.930 . S
C285 C284 1.380 . S
C285 C286 1.376 . S
C285 H313 0.930 . S
C286 C285 1.376 . S
C286 C287 1.370 . S
C287 C286 1.370 . S
C287 C288 1.396 . S
C287 H314 0.929 . S
C288 C283 1.373 . S
C288 C287 1.396 . S
C288 H315 0.929 . S
C289 O302 1.240 . S
C289 O303 1.289 . S
C290 O304 1.258 . S
C290 O305 1.256 . S
C291 La281 2.928 . S
C291 C292 1.503 . S
C291 O306 1.261 . S
C291 O307 1.243 . S
C292 C291 1.503 . S
C292 C293 1.394 . S
C292 C297 1.373 . S
C293 C292 1.394 . S
C293 C294 1.380 . S
C293 H316 0.930 . S
C294 C293 1.380 . S
C294 C295 1.376 . S
C294 H317 0.930 . S
C295 C294 1.376 . S
C295 C296 1.370 . S
C296 C295 1.370 . S
C296 C297 1.396 . S
C296 H318 0.929 . S
C297 C292 1.373 . S
C297 C296 1.396 . S
C297 H319 0.929 . S
C298 O308 1.240 . S
C298 O309 1.289 . S
C299 O310 1.258 . S
C299 O311 1.256 . S
O300 La280 2.521 . S
O300 C282 1.261 . S
O301 La280 2.628 . S
O301 C282 1.243 . S
O302 La280 2.554 . S
O302 C289 1.240 . S
O303 La280 2.757 . S
O303 La281 2.482 . S
O303 C289 1.289 . S
O304 La280 2.470 . S
O304 C290 1.258 . S
O305 La281 2.503 . S
O305 C290 1.256 . S
O306 La281 2.521 . S
O306 C291 1.261 . S
O307 La281 2.628 . S
O307 C291 1.243 . S
O308 La281 2.554 . S
O308 C298 1.240 . S
O309 La280 2.482 . S
O309 La281 2.757 . S
O309 C298 1.289 . S
O310 La281 2.470 . S
O310 C299 1.258 . S
O311 La280 2.503 . S
O311 C299 1.256 . S
H312 C284 0.930 . S
H313 C285 0.930 . S
H314 C287 0.929 . S
H315 C288 0.929 . S
H316 C293 0.930 . S
H317 C294 0.930 . S
H318 C296 0.929 . S
H319 C297 0.929 . S
H320 C326 0.930 . S
H321 C329 0.930 . S
H322 C330 0.930 . S
H323 C331 0.930 . S
H324 C334 0.930 . S
H325 C335 0.930 . S
C326 H320 0.930 . S
C326 C327 1.355 . S
C326 C328 1.415 . S
C327 C326 1.355 . S
C327 C329 1.419 . S
C328 C326 1.415 . S
C328 C333 1.425 . S
C328 C335 1.409 . S
C329 H321 0.930 . S
C329 C327 1.419 . S
C329 C330 1.362 . S
C330 H322 0.930 . S
C330 C329 1.362 . S
C330 C333 1.409 . S
C331 H323 0.930 . S
C331 C332 1.355 . S
C331 C333 1.415 . S
C332 C331 1.355 . S
C332 C334 1.419 . S
C333 C328 1.425 . S
C333 C330 1.409 . S
C333 C331 1.415 . S
C334 H324 0.930 . S
C334 C332 1.419 . S
C334 C335 1.362 . S
C335 H325 0.930 . S
C335 C328 1.409 . S
C335 C334 1.362 . S
H336 C342 0.930 . S
H337 C345 0.930 . S
H338 C346 0.930 . S
H339 C347 0.930 1_556 S
H340 C350 0.930 . S
H341 C351 0.930 . S
C342 H336 0.930 . S
C342 C343 1.355 . S
C342 C344 1.415 . S
C343 C342 1.355 . S
C343 C345 1.419 1_554 S
C344 C342 1.415 . S
C344 C349 1.425 . S
C344 C351 1.409 . S
C345 H337 0.930 . S
C345 C343 1.419 1_556 S
C345 C346 1.362 . S
C346 H338 0.930 . S
C346 C345 1.362 . S
C346 C349 1.409 1_556 S
C347 H339 0.930 1_554 S
C347 C348 1.355 . S
C347 C349 1.415 . S
C348 C347 1.355 . S
C348 C350 1.419 . S
C349 C344 1.425 . S
C349 C346 1.409 1_554 S
C349 C347 1.415 . S
C350 H340 0.930 . S
C350 C348 1.419 . S
C350 C351 1.362 . S
C351 H341 0.930 . S
C351 C344 1.409 . S
C351 C350 1.362 . S
H352 C358 0.930 . S
H353 C361 0.930 . S
H354 C362 0.930 . S
H355 C363 0.930 . S
H356 C366 0.930 . S
H357 C367 0.930 . S
C358 H352 0.930 . S
C358 C359 1.355 . S
C358 C360 1.415 . S
C359 C358 1.355 . S
C359 C361 1.419 . S
C360 C358 1.415 . S
C360 C365 1.425 . S
C360 C367 1.409 . S
C361 H353 0.930 . S
C361 C359 1.419 . S
C361 C362 1.362 . S
C362 H354 0.930 . S
C362 C361 1.362 . S
C362 C365 1.409 . S
C363 H355 0.930 . S
C363 C364 1.355 . S
C363 C365 1.415 . S
C364 C363 1.355 . S
C364 C366 1.419 . S
C365 C360 1.425 . S
C365 C362 1.409 . S
C365 C363 1.415 . S
C366 H356 0.930 . S
C366 C364 1.419 . S
C366 C367 1.362 . S
C367 H357 0.930 . S
C367 C360 1.409 . S
C367 C366 1.362 . S
H368 C374 0.930 . S
H369 C377 0.930 . S
H370 C378 0.930 . S
H371 C379 0.930 . S
H372 C382 0.930 . S
H373 C383 0.930 . S
C374 H368 0.930 . S
C374 C375 1.355 . S
C374 C376 1.415 . S
C375 C374 1.355 . S
C375 C377 1.419 . S
C376 C374 1.415 . S
C376 C381 1.425 . S
C376 C383 1.409 . S
C377 H369 0.930 . S
C377 C375 1.419 . S
C377 C378 1.362 . S
C378 H370 0.930 . S
C378 C377 1.362 . S
C378 C381 1.409 . S
C379 H371 0.930 . S
C379 C380 1.355 . S
C379 C381 1.415 . S
C380 C379 1.355 . S
C380 C382 1.419 . S
C381 C376 1.425 . S
C381 C378 1.409 . S
C381 C379 1.415 . S
C382 H372 0.930 . S
C382 C380 1.419 . S
C382 C383 1.362 . S
C383 H373 0.930 . S
C383 C376 1.409 . S
C383 C382 1.362 . S
H384 C390 0.930 . S
H385 C393 0.930 . S
H386 C394 0.930 1_455 S
H387 C395 0.930 . S
H388 C398 0.930 . S
H389 C399 0.930 . S
C390 H384 0.930 . S
C390 C391 1.355 1_556 S
C390 C392 1.415 1_655 S
C391 C390 1.355 1_554 S
C391 C393 1.419 . S
C392 C390 1.415 1_455 S
C392 C397 1.425 1_556 S
C392 C399 1.409 . S
C393 H385 0.930 . S
C393 C391 1.419 . S
C393 C394 1.362 . S
C394 H386 0.930 1_655 S
C394 C393 1.362 . S
C394 C397 1.409 1_655 S
C395 H387 0.930 . S
C395 C396 1.355 . S
C395 C397 1.415 . S
C396 C395 1.355 . S
C396 C398 1.419 1_554 S
C397 C392 1.425 1_554 S
C397 C394 1.409 1_455 S
C397 C395 1.415 . S
C398 H388 0.930 . S
C398 C396 1.419 1_556 S
C398 C399 1.362 . S
C399 H389 0.930 . S
C399 C392 1.409 . S
C399 C398 1.362 . S
H400 C406 0.930 . S
H401 C409 0.930 . S
H402 C410 0.932 . S
H403 C411 0.930 . S
H404 C414 0.930 . S
H405 C415 0.930 . S
C406 H400 0.930 . S
C406 C407 1.355 . S
C406 C408 1.415 1_455 S
C407 C406 1.355 . S
C407 C409 1.419 . S
C408 C406 1.415 1_655 S
C408 C413 1.425 . S
C408 C415 1.409 . S
C409 H401 0.930 . S
C409 C407 1.419 . S
C409 C410 1.362 . S
C410 H402 0.932 . S
C410 C409 1.362 . S
C410 C413 1.409 1_455 S
C411 H403 0.930 . S
C411 C412 1.355 . S
C411 C413 1.415 . S
C412 C411 1.355 . S
C412 C414 1.419 . S
C413 C408 1.425 . S
C413 C410 1.409 1_655 S
C413 C411 1.415 . S
C414 H404 0.930 . S
C414 C412 1.419 . S
C414 C415 1.362 . S
C415 H405 0.930 . S
C415 C408 1.409 . S
C415 C414 1.362 . S
H416 C422 0.930 . S
H417 C425 0.930 . S
H418 C426 0.930 . S
H419 C427 0.930 . S
H420 C430 0.930 . S
H421 C431 0.930 . S
C422 H416 0.930 . S
C422 C423 1.355 . S
C422 C424 1.415 . S
C423 C422 1.355 . S
C423 C425 1.419 . S
C424 C422 1.415 . S
C424 C429 1.425 . S
C424 C431 1.409 . S
C425 H417 0.930 . S
C425 C423 1.419 . S
C425 C426 1.362 . S
C426 H418 0.930 . S
C426 C425 1.362 . S
C426 C429 1.409 . S
C427 H419 0.930 . S
C427 C428 1.355 . S
C427 C429 1.415 1_655 S
C428 C427 1.355 . S
C428 C430 1.419 . S
C429 C424 1.425 . S
C429 C426 1.409 . S
C429 C427 1.415 1_455 S
C430 H420 0.930 . S
C430 C428 1.419 . S
C430 C431 1.362 1_655 S
C431 H421 0.930 . S
C431 C424 1.409 . S
C431 C430 1.362 1_455 S
H432 C438 0.930 . S
H433 C441 0.930 . S
H434 C442 0.930 . S
H435 C443 0.930 . S
H436 C446 0.930 . S
H437 C447 0.930 . S
C438 H432 0.930 . S
C438 C439 1.355 . S
C438 C440 1.415 . S
C439 C438 1.355 . S
C439 C441 1.419 . S
C440 C438 1.415 . S
C440 C445 1.425 . S
C440 C447 1.409 . S
C441 H433 0.930 . S
C441 C439 1.419 . S
C441 C442 1.362 . S
C442 H434 0.930 . S
C442 C441 1.362 . S
C442 C445 1.409 . S
C443 H435 0.930 . S
C443 C444 1.355 . S
C443 C445 1.415 1_455 S
C444 C443 1.355 . S
C444 C446 1.419 . S
C445 C440 1.425 . S
C445 C442 1.409 . S
C445 C443 1.415 1_655 S
C446 H436 0.930 . S
C446 C444 1.419 . S
C446 C447 1.362 1_455 S
C447 H437 0.930 . S
C447 C440 1.409 . S
C447 C446 1.362 1_655 S
H448 C454 0.930 . S
H449 C457 0.930 . S
H450 C458 0.930 . S
H451 C459 0.930 . S
H452 C462 0.930 . S
H453 C463 0.930 . S
C454 H448 0.930 . S
C454 C455 1.355 1_556 S
C454 C456 1.415 . S
C455 C454 1.355 1_554 S
C455 C457 1.419 . S
C456 C454 1.415 . S
C456 C461 1.425 1_456 S
C456 C463 1.409 . S
C457 H449 0.930 . S
C457 C455 1.419 . S
C457 C458 1.362 1_455 S
C458 H450 0.930 . S
C458 C457 1.362 1_655 S
C458 C461 1.409 . S
C459 H451 0.930 . S
C459 C460 1.355 . S
C459 C461 1.415 . S
C460 C459 1.355 . S
C460 C462 1.419 1_554 S
C461 C456 1.425 1_654 S
C461 C458 1.409 . S
C461 C459 1.415 . S
C462 H452 0.930 . S
C462 C460 1.419 1_556 S
C462 C463 1.362 1_655 S
C463 H453 0.930 . S
C463 C456 1.409 . S
C463 C462 1.362 1_455 S
H464 C470 0.930 1_655 S
H465 C473 0.930 . S
H466 C474 0.930 . S
H467 C475 0.930 1_455 S
H468 C478 0.930 . S
H469 C479 0.930 . S
C470 H464 0.930 1_455 S
C470 C471 1.355 . S
C470 C472 1.415 1_455 S
C471 C470 1.355 . S
C471 C473 1.419 . S
C472 C470 1.415 1_655 S
C472 C477 1.425 1_655 S
C472 C479 1.409 . S
C473 H465 0.930 . S
C473 C471 1.419 . S
C473 C474 1.362 . S
C474 H466 0.930 . S
C474 C473 1.362 . S
C474 C477 1.409 . S
C475 H467 0.930 1_655 S
C475 C476 1.355 . S
C475 C477 1.415 1_655 S
C476 C475 1.355 . S
C476 C478 1.419 . S
C477 C472 1.425 1_455 S
C477 C474 1.409 . S
C477 C475 1.415 1_455 S
C478 H468 0.930 . S
C478 C476 1.419 . S
C478 C479 1.362 . S
C479 H469 0.930 . S
C479 C472 1.409 . S
C479 C478 1.362 . S
H480 C486 0.930 . S
H481 C489 0.930 . S
H482 C490 0.930 . S
H483 C491 0.930 . S
H484 C494 0.930 . S
H485 C495 0.930 . S
C486 H480 0.930 . S
C486 C487 1.355 . S
C486 C488 1.415 . S
C487 C486 1.355 . S
C487 C489 1.419 1_554 S
C488 C486 1.415 . S
C488 C493 1.425 1_564 S
C488 C495 1.409 1_565 S
C489 H481 0.930 . S
C489 C487 1.419 1_556 S
C489 C490 1.362 . S
C490 H482 0.930 . S
C490 C489 1.362 . S
C490 C493 1.409 1_565 S
C491 H483 0.930 . S
C491 C492 1.355 1_556 S
C491 C493 1.415 . S
C492 C491 1.355 1_554 S
C492 C494 1.419 . S
C493 C488 1.425 1_546 S
C493 C490 1.409 1_545 S
C493 C491 1.415 . S
C494 H484 0.930 . S
C494 C492 1.419 . S
C494 C495 1.362 . S
C495 H485 0.930 . S
C495 C488 1.409 1_545 S
C495 C494 1.362 . S
H496 C502 0.930 . S
H497 C505 0.930 . S
H498 C506 0.930 . S
H499 C507 0.930 . S
H500 C510 0.930 . S
H501 C511 0.930 . S
C502 H496 0.930 . S
C502 C503 1.355 . S
C502 C504 1.415 . S
C503 C502 1.355 . S
C503 C505 1.419 . S
C504 C502 1.415 . S
C504 C509 1.425 1_545 S
C504 C511 1.409 . S
C505 H497 0.930 . S
C505 C503 1.419 . S
C505 C506 1.362 1_545 S
C506 H498 0.930 . S
C506 C505 1.362 1_565 S
C506 C509 1.409 . S
C507 H499 0.930 . S
C507 C508 1.355 . S
C507 C509 1.415 . S
C508 C507 1.355 . S
C508 C510 1.419 . S
C509 C504 1.425 1_565 S
C509 C506 1.409 . S
C509 C507 1.415 . S
C510 H500 0.930 . S
C510 C508 1.419 . S
C510 C511 1.362 1_565 S
C511 H501 0.930 . S
C511 C504 1.409 . S
C511 C510 1.362 1_545 S
H512 C518 0.930 . S
H513 C521 0.930 . S
H514 C522 0.930 . S
H515 C523 0.930 . S
H516 C526 0.930 1_556 S
H517 C527 0.930 . S
C518 H512 0.930 . S
C518 C519 1.355 . S
C518 C520 1.415 . S
C519 C518 1.355 . S
C519 C521 1.419 . S
C520 C518 1.415 . S
C520 C525 1.425 . S
C520 C527 1.409 . S
C521 H513 0.930 . S
C521 C519 1.419 . S
C521 C522 1.362 . S
C522 H514 0.930 . S
C522 C521 1.362 . S
C522 C525 1.409 . S
C523 H515 0.930 . S
C523 C524 1.355 . S
C523 C525 1.415 . S
C524 C523 1.355 . S
C524 C526 1.419 . S
C525 C520 1.425 . S
C525 C522 1.409 . S
C525 C523 1.415 . S
C526 H516 0.930 1_554 S
C526 C524 1.419 . S
C526 C527 1.362 . S
C527 H517 0.930 . S
C527 C520 1.409 . S
C527 C526 1.362 . S
H528 C534 0.930 . S
H529 C537 0.930 . S
H530 C538 0.930 . S
H531 C539 0.930 . S
H532 C542 0.930 . S
H533 C543 0.930 . S
C534 H528 0.930 . S
C534 C535 1.355 . S
C534 C536 1.415 . S
C535 C534 1.355 . S
C535 C537 1.419 1_554 S
C536 C534 1.415 . S
C536 C541 1.425 1_554 S
C536 C543 1.409 . S
C537 H529 0.930 . S
C537 C535 1.419 1_556 S
C537 C538 1.362 . S
C538 H530 0.930 . S
C538 C537 1.362 . S
C538 C541 1.409 . S
C539 H531 0.930 . S
C539 C540 1.355 1_556 S
C539 C541 1.415 . S
C540 C539 1.355 1_554 S
C540 C542 1.419 . S
C541 C536 1.425 1_556 S
C541 C538 1.409 . S
C541 C539 1.415 . S
C542 H532 0.930 . S
C542 C540 1.419 . S
C542 C543 1.362 . S
C543 H533 0.930 . S
C543 C536 1.409 . S
C543 C542 1.362 . S
H544 C550 0.930 . S
H545 C553 0.930 . S
H546 C554 0.930 . S
H547 C555 0.930 . S
H548 C558 0.930 . S
H549 C559 0.930 . S
C550 H544 0.930 . S
C550 C551 1.355 . S
C550 C552 1.415 . S
C551 C550 1.355 . S
C551 C553 1.419 . S
C552 C550 1.415 . S
C552 C557 1.425 . S
C552 C559 1.409 . S
C553 H545 0.930 . S
C553 C551 1.419 . S
C553 C554 1.362 . S
C554 H546 0.930 . S
C554 C553 1.362 . S
C554 C557 1.409 . S
C555 H547 0.930 . S
C555 C556 1.355 . S
C555 C557 1.415 . S
C556 C555 1.355 . S
C556 C558 1.419 . S
C557 C552 1.425 . S
C557 C554 1.409 . S
C557 C555 1.415 . S
C558 H548 0.930 . S
C558 C556 1.419 . S
C558 C559 1.362 . S
C559 H549 0.930 . S
C559 C552 1.409 . S
C559 C558 1.362 . S
H560 C566 0.930 . S
H561 C569 0.930 . S
H562 C570 0.930 . S
H563 C571 0.930 . S
H564 C574 0.930 . S
H565 C575 0.930 . S
C566 H560 0.930 . S
C566 C567 1.355 . S
C566 C568 1.415 . S
C567 C566 1.355 . S
C567 C569 1.419 . S
C568 C566 1.415 . S
C568 C573 1.425 . S
C568 C575 1.409 . S
C569 H561 0.930 . S
C569 C567 1.419 . S
C569 C570 1.362 . S
C570 H562 0.930 . S
C570 C569 1.362 . S
C570 C573 1.409 . S
C571 H563 0.930 . S
C571 C572 1.355 . S
C571 C573 1.415 . S
C572 C571 1.355 . S
C572 C574 1.419 . S
C573 C568 1.425 . S
C573 C570 1.409 . S
C573 C571 1.415 . S
C574 H564 0.930 . S
C574 C572 1.419 . S
C574 C575 1.362 . S
C575 H565 0.930 . S
C575 C568 1.409 . S
C575 C574 1.362 . S
H576 C582 0.930 . S
H577 C585 0.930 . S
H578 C586 0.930 . S
H579 C587 0.930 . S
H580 C590 0.930 . S
H581 C591 0.930 . S
C582 H576 0.930 . S
C582 C583 1.355 1_655 S
C582 C584 1.415 . S
C583 C582 1.355 1_455 S
C583 C585 1.419 . S
C584 C582 1.415 . S
C584 C589 1.425 1_655 S
C584 C591 1.409 . S
C585 H577 0.930 . S
C585 C583 1.419 . S
C585 C586 1.362 . S
C586 H578 0.930 . S
C586 C585 1.362 . S
C586 C589 1.409 . S
C587 H579 0.930 . S
C587 C588 1.355 1_455 S
C587 C589 1.415 . S
C588 C587 1.355 1_655 S
C588 C590 1.419 . S
C589 C584 1.425 1_455 S
C589 C586 1.409 . S
C589 C587 1.415 . S
C590 H580 0.930 . S
C590 C588 1.419 . S
C590 C591 1.362 . S
C591 H581 0.930 . S
C591 C584 1.409 . S
C591 C590 1.362 . S
H592 C598 0.930 . S
H593 C601 0.930 . S
H594 C602 0.930 . S
H595 C603 0.930 . S
H596 C606 0.930 . S
H597 C607 0.930 . S
C598 H592 0.930 . S
C598 C599 1.355 1_455 S
C598 C600 1.415 . S
C599 C598 1.355 1_655 S
C599 C601 1.419 . S
C600 C598 1.415 . S
C600 C605 1.425 1_455 S
C600 C607 1.409 . S
C601 H593 0.930 . S
C601 C599 1.419 . S
C601 C602 1.362 . S
C602 H594 0.930 . S
C602 C601 1.362 . S
C602 C605 1.409 . S
C603 H595 0.930 . S
C603 C604 1.355 1_655 S
C603 C605 1.415 . S
C604 C603 1.355 1_455 S
C604 C606 1.419 . S
C605 C600 1.425 1_655 S
C605 C602 1.409 . S
C605 C603 1.415 . S
C606 H596 0.930 . S
C606 C604 1.419 . S
C606 C607 1.362 . S
C607 H597 0.930 . S
C607 C600 1.409 . S
C607 C606 1.362 . S
H608 C614 0.930 . S
H609 C617 0.930 . S
H610 C618 0.930 . S
H611 C619 0.930 . S
H612 C622 0.930 . S
H613 C623 0.930 . S
C614 H608 0.930 . S
C614 C615 1.355 . S
C614 C616 1.415 . S
C615 C614 1.355 . S
C615 C617 1.419 1_655 S
C616 C614 1.415 . S
C616 C621 1.425 1_655 S
C616 C623 1.409 . S
C617 H609 0.930 . S
C617 C615 1.419 1_455 S
C617 C618 1.362 . S
C618 H610 0.930 . S
C618 C617 1.362 . S
C618 C621 1.409 . S
C619 H611 0.930 . S
C619 C620 1.355 . S
C619 C621 1.415 . S
C620 C619 1.355 . S
C620 C622 1.419 1_455 S
C621 C616 1.425 1_455 S
C621 C618 1.409 . S
C621 C619 1.415 . S
C622 H612 0.930 . S
C622 C620 1.419 1_655 S
C622 C623 1.362 . S
C623 H613 0.930 . S
C623 C616 1.409 . S
C623 C622 1.362 . S
H624 C630 0.930 . S
H625 C633 0.930 . S
H626 C634 0.930 . S
H627 C635 0.930 . S
H628 C638 0.930 . S
H629 C639 0.930 . S
C630 H624 0.930 . S
C630 C631 1.355 1_455 S
C630 C632 1.415 . S
C631 C630 1.355 1_655 S
C631 C633 1.419 . S
C632 C630 1.415 . S
C632 C637 1.425 1_455 S
C632 C639 1.409 . S
C633 H625 0.930 . S
C633 C631 1.419 . S
C633 C634 1.362 . S
C634 H626 0.930 . S
C634 C633 1.362 . S
C634 C637 1.409 . S
C635 H627 0.930 . S
C635 C636 1.355 1_655 S
C635 C637 1.415 . S
C636 C635 1.355 1_455 S
C636 C638 1.419 . S
C637 C632 1.425 1_655 S
C637 C634 1.409 . S
C637 C635 1.415 . S
C638 H628 0.930 . S
C638 C636 1.419 . S
C638 C639 1.362 . S
C639 H629 0.930 . S
C639 C632 1.409 . S
C639 C638 1.362 . S
H640 C646 0.930 . S
H641 C649 0.930 . S
H642 C650 0.930 . S
H643 C651 0.930 . S
H644 C654 0.930 . S
H645 C655 0.930 . S
C646 H640 0.930 . S
C646 C647 1.355 . S
C646 C648 1.415 . S
C647 C646 1.355 . S
C647 C649 1.419 . S
C648 C646 1.415 . S
C648 C653 1.425 . S
C648 C655 1.409 . S
C649 H641 0.930 . S
C649 C647 1.419 . S
C649 C650 1.362 . S
C650 H642 0.930 . S
C650 C649 1.362 . S
C650 C653 1.409 . S
C651 H643 0.930 . S
C651 C652 1.355 . S
C651 C653 1.415 . S
C652 C651 1.355 . S
C652 C654 1.419 . S
C653 C648 1.425 . S
C653 C650 1.409 . S
C653 C651 1.415 . S
C654 H644 0.930 . S
C654 C652 1.419 . S
C654 C655 1.362 . S
C655 H645 0.930 . S
C655 C648 1.409 . S
C655 C654 1.362 . S
H656 C662 0.930 . S
H657 C665 0.930 . S
H658 C666 0.930 . S
H659 C667 0.930 . S
H660 C670 0.930 . S
H661 C671 0.930 . S
C662 H656 0.930 . S
C662 C663 1.355 . S
C662 C664 1.415 . S
C663 C662 1.355 . S
C663 C665 1.419 . S
C664 C662 1.415 . S
C664 C669 1.425 . S
C664 C671 1.409 . S
C665 H657 0.930 . S
C665 C663 1.419 . S
C665 C666 1.362 . S
C666 H658 0.930 . S
C666 C665 1.362 . S
C666 C669 1.409 . S
C667 H659 0.930 . S
C667 C668 1.355 . S
C667 C669 1.415 . S
C668 C667 1.355 . S
C668 C670 1.419 . S
C669 C664 1.425 . S
C669 C666 1.409 . S
C669 C667 1.415 . S
C670 H660 0.930 . S
C670 C668 1.419 . S
C670 C671 1.362 . S
C671 H661 0.930 . S
C671 C664 1.409 . S
C671 C670 1.362 . S
H672 C678 0.930 . S
H673 C681 0.930 . S
H674 C682 0.930 . S
H675 C683 0.930 . S
H676 C686 0.930 . S
H677 C687 0.930 . S
C678 H672 0.930 . S
C678 C679 1.355 . S
C678 C680 1.415 . S
C679 C678 1.355 . S
C679 C681 1.419 . S
C680 C678 1.415 . S
C680 C685 1.425 . S
C680 C687 1.409 . S
C681 H673 0.930 . S
C681 C679 1.419 . S
C681 C682 1.362 . S
C682 H674 0.930 . S
C682 C681 1.362 . S
C682 C685 1.409 . S
C683 H675 0.930 . S
C683 C684 1.355 . S
C683 C685 1.415 . S
C684 C683 1.355 . S
C684 C686 1.419 . S
C685 C680 1.425 . S
C685 C682 1.409 . S
C685 C683 1.415 . S
C686 H676 0.930 . S
C686 C684 1.419 . S
C686 C687 1.362 . S
C687 H677 0.930 . S
C687 C680 1.409 . S
C687 C686 1.362 . S
H688 C694 0.930 . S
H689 C697 0.930 . S
H690 C698 0.930 . S
H691 C699 0.930 . S
H692 C702 0.930 . S
H693 C703 0.930 . S
C694 H688 0.930 . S
C694 C695 1.355 . S
C694 C696 1.415 . S
C695 C694 1.355 . S
C695 C697 1.419 . S
C696 C694 1.415 . S
C696 C701 1.425 . S
C696 C703 1.409 . S
C697 H689 0.930 . S
C697 C695 1.419 . S
C697 C698 1.362 . S
C698 H690 0.930 . S
C698 C697 1.362 . S
C698 C701 1.409 . S
C699 H691 0.930 . S
C699 C700 1.355 . S
C699 C701 1.415 . S
C700 C699 1.355 . S
C700 C702 1.419 . S
C701 C696 1.425 . S
C701 C698 1.409 . S
C701 C699 1.415 . S
C702 H692 0.930 . S
C702 C700 1.419 . S
C702 C703 1.362 . S
C703 H693 0.930 . S
C703 C696 1.409 . S
C703 C702 1.362 . S
C327 C19 2.243 . S
C332 C10 2.243 . S
C343 C59 2.270 . S
C348 C50 2.270 . S
C359 C99 2.253 . S
C364 C90 2.253 . S
C375 C139 2.286 . S
C380 C130 2.286 . S
C391 C179 2.269 . S
C396 C170 2.269 . S
C407 C210 2.236 . S
C412 C219 2.236 . S
C423 C259 2.250 . S
C428 C250 2.250 . S
C439 C290 2.240 . S
C444 C299 2.240 . S
C455 C55 2.704 . S
C460 C6 2.704 . S
C471 C126 2.753 . S
C476 C95 2.753 . S
C487 C166 2.738 . S
C492 C215 2.738 . S
C503 C255 2.752 . S
C508 C286 2.752 . S
C519 C15 1.861 . S
C524 C206 1.861 . S
C535 C175 1.915 . S
C540 C46 1.915 . S
C551 C86 1.925 . S
C556 C295 1.925 . S
C567 C135 1.862 . S
C572 C246 1.862 . S
C583 C9 1.477 . S
C588 C129 1.487 . S
C599 C49 1.608 . S
C604 C89 1.577 . S
C615 C58 1.467 . S
C620 C98 1.472 . S
C631 C138 1.596 . S
C636 C18 1.596 . S
C647 C169 1.509 . S
C652 C289 1.441 . S
C663 C209 1.598 . S
C668 C249 1.534 . S
C679 C218 1.471 . S
C684 C258 1.494 . S
C695 C298 1.535 . S
C700 C178 1.600 . S
