# Generated by pormake.
# Topology qtz-e, (6)-cn, num edge types: 1
# Building blocks:
#     Node 0, Type 0, BuildingBlock: KUMBOL_clean_sbu_0, # of connection points: 6
#     Node 1, Type 0, BuildingBlock: KUMBOL_clean_sbu_0, # of connection points: 6
#     Node 2, Type 0, BuildingBlock: KUMBOL_clean_sbu_0, # of connection points: 6
#     Node 3, Type 0, BuildingBlock: KUMBOL_clean_sbu_0, # of connection points: 6
#     Node 4, Type 0, BuildingBlock: KUMBOL_clean_sbu_0, # of connection points: 6
#     Node 5, Type 0, BuildingBlock: KUMBOL_clean_sbu_0, # of connection points: 6
#     Edge 6, Type (0, 0), BuildingBlock: CIFDUS_clean_linker_0, # of connection points: 2
#     Edge 7, Type (0, 0), BuildingBlock: CIFDUS_clean_linker_0, # of connection points: 2
#     Edge 8, Type (0, 0), BuildingBlock: CIFDUS_clean_linker_0, # of connection points: 2
#     Edge 9, Type (0, 0), BuildingBlock: CIFDUS_clean_linker_0, # of connection points: 2
#     Edge 10, Type (0, 0), BuildingBlock: CIFDUS_clean_linker_0, # of connection points: 2
#     Edge 11, Type (0, 0), BuildingBlock: CIFDUS_clean_linker_0, # of connection points: 2
#     Edge 12, Type (0, 0), BuildingBlock: CIFDUS_clean_linker_0, # of connection points: 2
#     Edge 13, Type (0, 0), BuildingBlock: CIFDUS_clean_linker_0, # of connection points: 2
#     Edge 14, Type (0, 0), BuildingBlock: CIFDUS_clean_linker_0, # of connection points: 2
#     Edge 15, Type (0, 0), BuildingBlock: CIFDUS_clean_linker_0, # of connection points: 2
#     Edge 16, Type (0, 0), BuildingBlock: CIFDUS_clean_linker_0, # of connection points: 2
#     Edge 17, Type (0, 0), BuildingBlock: CIFDUS_clean_linker_0, # of connection points: 2
#     Edge 18, Type (0, 0), BuildingBlock: CIFDUS_clean_linker_0, # of connection points: 2
#     Edge 19, Type (0, 0), BuildingBlock: CIFDUS_clean_linker_0, # of connection points: 2
#     Edge 20, Type (0, 0), BuildingBlock: CIFDUS_clean_linker_0, # of connection points: 2
#     Edge 21, Type (0, 0), BuildingBlock: CIFDUS_clean_linker_0, # of connection points: 2
#     Edge 22, Type (0, 0), BuildingBlock: CIFDUS_clean_linker_0, # of connection points: 2
#     Edge 23, Type (0, 0), BuildingBlock: CIFDUS_clean_linker_0, # of connection points: 2
# Relax obj value: 0.060
# Max RMSD: 0.148
# Mean RMSD: 0.148
data_MOF--net-qtz-e--node1-KUMBOL_clean_sbu_0--edge1-CIFDUS_clean_linker_0
_symmetry_space_group_name_H-M    P1
_symmetry_Int_Tables_number       1
_symmetry_cell_setting            triclinic
loop_
_symmetry_equiv_pos_as_xyz
'x, y, z'
_cell_length_a     26.13437
_cell_length_b     26.139839
_cell_length_c     42.476081
_cell_angle_alpha  90.424113
_cell_angle_beta   89.845874
_cell_angle_gamma 119.86026
loop_
_atom_site_label
_atom_site_type_symbol
_atom_site_fract_x
_atom_site_fract_y
_atom_site_fract_z
_atom_type_partial_charge
Gd0 Gd 0.20484 0.38174 0.99984 0.0
Gd1 Gd 0.27023 0.51963 0.04614 0.0
C2 C 0.41742 0.6853 1.00019 0.0
C3 C 0.50269 0.70454 0.03178 0.0
C4 C 0.40605 0.62143 0.0438 0.0
C5 C 0.38192 0.63502 0.01849 0.0
C6 C 0.46618 0.65733 0.05148 0.0
C7 C 0.47834 0.71849 1.00613 0.0
C8 C 0.39007 0.70287 0.97786 0.0
C9 C 0.32859 0.67294 0.97579 0.0
N10 N 0.32259 0.60332 0.01421 0.0
C11 C 0.29531 0.62392 0.99488 0.0
H12 H 0.24778 0.6012 0.99327 0.0
C13 C 0.38817 0.56854 0.09132 0.0
N14 N 0.36928 0.576 0.0626 0.0
C15 C 0.44748 0.60304 0.09998 0.0
C16 C 0.48699 0.64665 0.0796 0.0
H17 H 0.35775 0.53466 0.10704 0.0
H18 H 0.50646 0.75673 0.99201 0.0
H19 H 0.28418 0.35469 0.0534 0.0
H20 H 0.41573 0.74119 0.96329 0.0
H21 H 0.30677 0.68758 0.95954 0.0
H22 H 0.54923 0.73214 0.03699 0.0
H23 H 0.0766 0.33131 0.96271 0.0
H24 H 0.17113 0.18884 0.09641 0.0
H25 H 0.2693 0.2779 0.09102 0.0
H26 H 0.98562 0.12218 0.04466 0.0
H27 H 0.46273 0.5958 0.12227 0.0
H28 H 0.53288 0.67334 0.08639 0.0
H29 H 0.06539 0.13115 0.07904 0.0
H30 H 0.97605 0.24467 0.96387 0.0
N31 N 0.19539 0.3102 0.03679 0.0
C32 C 0.17748 0.22238 0.07953 0.0
C33 C 0.23293 0.27252 0.07651 0.0
C34 C 0.13092 0.21601 0.06062 0.0
C35 C 0.1415 0.26111 0.03911 0.0
C36 C 0.24127 0.31598 0.05482 0.0
N37 N 0.10838 0.30077 1.0 0.0
C38 C 0.09659 0.25625 0.02007 0.0
C39 C 1.00943 0.24747 0.97995 0.0
C40 C 0.996 0.20213 1.00128 0.0
C41 C 0.0663 0.29647 0.97943 0.0
C42 C 0.03988 0.20594 0.02157 0.0
H43 H 0.9519 0.16419 1.00167 0.0
O44 O 0.18624 0.35333 0.95068 0.0
O45 O 0.263 0.47876 0.99886 0.0
O46 O 0.18595 0.50599 0.02338 0.0
O47 O 0.13242 0.40681 1.00715 0.0
O48 O 0.19897 0.43988 0.96375 0.0
O49 O 0.25511 0.34744 0.97519 0.0
O50 O 0.24987 0.5315 0.09426 0.0
O51 O 0.20395 0.42355 0.04581 0.0
O52 O 0.30401 0.41563 1.00798 0.0
O53 O 0.3438 0.50053 0.03949 0.0
O54 O 0.25517 0.45622 0.08553 0.0
O55 O 0.24902 0.58818 0.05769 0.0
C56 C 0.24319 0.4885 0.97381 0.0
C57 C 0.02895 0.16106 0.04306 0.0
C58 C 0.07437 0.16614 0.0626 0.0
C59 C 0.22716 0.33885 0.94854 0.0
C60 C 0.21308 0.28462 0.93023 0.0
C61 C 0.16721 0.22986 0.94009 0.0
C62 C 0.24522 0.28738 0.90256 0.0
C63 C 0.23171 0.23545 0.8851 0.0
C64 C 0.15317 0.17881 0.92292 0.0
C65 C 0.18481 0.18144 0.89581 0.0
C66 C 0.13676 0.45915 0.01336 0.0
C67 C 0.21078 0.41009 0.07348 0.0
C68 C 0.25039 0.58033 0.08787 0.0
C69 C 0.29251 0.63137 0.10681 0.0
C70 C 0.3429 0.67815 0.09309 0.0
C71 C 0.28638 0.62927 0.1396 0.0
C72 C 0.33128 0.67187 0.15896 0.0
C73 C 0.3882 0.71983 0.11199 0.0
C74 C 0.38301 0.71632 0.1447 0.0
C75 C 0.34854 0.45993 0.02341 0.0
H76 H 0.14207 0.22661 0.96104 0.0
H77 H 0.28104 0.32963 0.89499 0.0
H78 H 0.11732 0.13677 0.93065 0.0
H79 H 0.17186 0.14085 0.88297 0.0
H80 H 0.34817 0.68168 0.06784 0.0
H81 H 0.24625 0.59421 0.1498 0.0
H82 H 0.4277 0.75473 0.10124 0.0
H83 H 0.41934 0.74888 0.15871 0.0
Gd84 Gd 0.8221 0.19763 0.33263 0.0
Gd85 Gd 0.73382 0.2365 0.38519 0.0
C86 C 0.66686 0.36499 0.36461 0.0
C87 C 0.71803 0.44127 0.40417 0.0
C88 C 0.73323 0.35675 0.40115 0.0
C89 C 0.6951 0.33461 0.37587 0.0
C90 C 0.74477 0.41012 0.4158 0.0
C91 C 0.67912 0.41874 0.37863 0.0
C92 C 0.62619 0.33991 0.34002 0.0
C93 C 0.61329 0.28511 0.32788 0.0
N94 N 0.68425 0.28256 0.36284 0.0
C95 C 0.64206 0.25654 0.33996 0.0
H96 H 0.63106 0.21432 0.33012 0.0
C97 C 0.79378 0.34436 0.43794 0.0
N98 N 0.75861 0.32574 0.4117 0.0
C99 C 0.80669 0.39707 0.45313 0.0
C100 C 0.78241 0.43034 0.44189 0.0
H101 H 0.81298 0.31931 0.44701 0.0
H102 H 0.6581 0.44278 0.37017 0.0
H103 H 0.94277 0.27627 0.3784 0.0
H104 H 0.60369 0.36188 0.33069 0.0
H105 H 0.58109 0.26472 0.30922 0.0
H106 H 0.72658 0.48245 0.41502 0.0
H107 H 0.75011 0.07489 0.28815 0.0
H108 H 0.99266 0.15748 0.41738 0.0
H109 H 1.00916 0.25858 0.41137 0.0
H110 H 0.85934 0.9725 0.36893 0.0
H111 H 0.83531 0.41195 0.47355 0.0
H112 H 0.79241 0.47113 0.45375 0.0
H113 H 0.93502 0.05048 0.4024 0.0
H114 H 0.73424 0.97341 0.28687 0.0
N115 N 0.88844 0.18597 0.36518 0.0
C116 C 0.96335 0.16496 0.40258 0.0
C117 C 0.9729 0.2221 0.39917 0.0
C118 C 0.91706 0.11841 0.38618 0.0
C119 C 0.88038 0.13057 0.36702 0.0
C120 C 0.93479 0.23188 0.38037 0.0
N121 N 0.8062 0.1008 0.32837 0.0
C122 C 0.83766 0.08659 0.34824 0.0
C123 C 0.76292 1.00455 0.30449 0.0
C124 C 0.79159 0.98787 0.32633 0.0
C125 C 0.77187 0.0619 0.30535 0.0
C126 C 0.83066 0.02944 0.34804 0.0
H127 H 0.78504 0.94356 0.32544 0.0
O128 O 0.8325 0.19364 0.28207 0.0
O129 O 0.77562 0.24769 0.33853 0.0
O130 O 0.67488 0.16338 0.35208 0.0
O131 O 0.72846 0.11796 0.33719 0.0
O132 O 0.76576 0.20737 0.29532 0.0
O133 O 0.9098 0.24456 0.31082 0.0
O134 O 0.69805 0.21148 0.43237 0.0
O135 O 0.77981 0.18352 0.38028 0.0
O136 O 0.87788 0.2959 0.34933 0.0
O137 O 0.81662 0.32149 0.37767 0.0
O138 O 0.79051 0.22807 0.42192 0.0
O139 O 0.6417 0.17215 0.3917 0.0
C140 C 0.75357 0.24189 0.31151 0.0
C141 C 0.86464 0.01632 0.36848 0.0
C142 C 0.90779 0.06075 0.3875 0.0
C143 C 0.88976 0.22691 0.28233 0.0
C144 C 0.9233 0.20909 0.26073 0.0
C145 C 0.91244 0.15086 0.26084 0.0
C146 C 0.96323 0.24898 0.23816 0.0
C147 C 0.99031 0.22989 0.21552 0.0
C148 C 0.93901 0.13199 0.23858 0.0
C149 C 0.97723 0.17093 0.21599 0.0
C150 C 0.67786 0.11787 0.34088 0.0
C151 C 0.80394 0.19346 0.40719 0.0
C152 C 0.64398 0.1828 0.42179 0.0
C153 C 0.6036 0.20287 0.43332 0.0
C154 C 0.55882 0.20002 0.41375 0.0
C155 C 0.61257 0.22943 0.46312 0.0
C156 C 0.5777 0.25326 0.47337 0.0
C157 C 0.52456 0.2243 0.42365 0.0
C158 C 0.53383 0.25082 0.45326 0.0
C159 C 0.86771 0.33514 0.36457 0.0
H160 H 0.88281 0.11965 0.27789 0.0
H161 H 0.9726 0.29429 0.23795 0.0
H162 H 0.92987 0.0868 0.23883 0.0
H163 H 0.9977 0.15528 0.19919 0.0
H164 H 0.55074 0.1799 0.39058 0.0
H165 H 0.64715 0.23207 0.47827 0.0
H166 H 0.49041 0.22218 0.40841 0.0
H167 H 0.50539 0.26772 0.46075 0.0
Gd168 Gd 0.64402 0.81411 0.6623 0.0
Gd169 Gd 0.51645 0.74224 0.71605 0.0
C170 C 0.32855 0.70217 0.69546 0.0
C171 C 0.31684 0.76677 0.73258 0.0
C172 C 0.40884 0.76474 0.73057 0.0
C173 C 0.38667 0.72353 0.70643 0.0
C174 C 0.374 0.78646 0.74412 0.0
C175 C 0.29413 0.72465 0.70833 0.0
C176 C 0.3063 0.65796 0.67232 0.0
C177 C 0.34114 0.63496 0.6614 0.0
N178 N 0.42119 0.70293 0.69436 0.0
C179 C 0.39837 0.65737 0.67311 0.0
H180 H 0.42444 0.63881 0.66444 0.0
C181 C 0.48675 0.82107 0.76618 0.0
N182 N 0.46447 0.78331 0.741 0.0
C183 C 0.45395 0.844 0.78026 0.0
C184 C 0.3975 0.82699 0.76904 0.0
H185 H 0.53042 0.83463 0.77495 0.0
H186 H 0.24959 0.7091 0.70001 0.0
H187 H 0.69036 0.92492 0.71613 0.0
H188 H 0.26194 0.64047 0.66323 0.0
H189 H 0.32398 0.59994 0.64395 0.0
H190 H 0.28956 0.78324 0.74255 0.0
H191 H 0.67985 0.73182 0.61709 0.0
H192 H 0.86035 0.9647 0.74913 0.0
H193 H 0.77612 0.98281 0.75007 0.0
H194 H 0.90292 0.83453 0.68912 0.0
H195 H 0.47223 0.87477 0.79977 0.0
H196 H 0.37219 0.84483 0.78 0.0
H197 H 0.90705 0.90887 0.72648 0.0
H198 H 0.7617 0.71061 0.61132 0.0
N199 N 0.72495 0.87392 0.69534 0.0
C200 C 0.82282 0.93923 0.73384 0.0
C201 C 0.77541 0.94964 0.73439 0.0
C202 C 0.8214 0.89635 0.71341 0.0
C203 C 0.77133 0.86417 0.6941 0.0
C204 C 0.72679 0.91675 0.71478 0.0
N205 N 0.71978 0.79144 0.65543 0.0
C206 C 0.76863 0.82164 0.67353 0.0
C207 C 0.76405 0.74159 0.62909 0.0
C208 C 0.81331 0.76994 0.64873 0.0
C209 C 0.71781 0.75358 0.63247 0.0
C210 C 0.81641 0.81105 0.67105 0.0
H211 H 0.84912 0.76062 0.64607 0.0
O212 O 0.6581 0.82218 0.61159 0.0
O213 O 0.54881 0.77797 0.66864 0.0
O214 O 0.5222 0.6747 0.68513 0.0
O215 O 0.62012 0.71731 0.66851 0.0
O216 O 0.57435 0.75871 0.62616 0.0
O217 O 0.68484 0.90046 0.63995 0.0
O218 O 0.49739 0.7075 0.76362 0.0
O219 O 0.61228 0.7746 0.70985 0.0
O220 O 0.61464 0.88073 0.67817 0.0
O221 O 0.52517 0.83011 0.70545 0.0
O222 O 0.58703 0.78974 0.75291 0.0
O223 O 0.47671 0.64858 0.72346 0.0
C224 C 0.5302 0.75393 0.64219 0.0
C225 C 0.86598 0.84238 0.69051 0.0
C226 C 0.86839 0.88481 0.71172 0.0
C227 C 0.68217 0.87945 0.61161 0.0
C228 C 0.73383 0.9125 0.59069 0.0
C229 C 0.78803 0.91682 0.5981 0.0
C230 C 0.72894 0.93957 0.5629 0.0
C231 C 0.77825 0.9713 0.54282 0.0
C232 C 0.83654 0.94728 0.57831 0.0
C233 C 0.83184 0.97421 0.55101 0.0
C234 C 0.56762 0.67042 0.67467 0.0
C235 C 0.6313 0.79476 0.73709 0.0
C236 C 0.46785 0.65313 0.75327 0.0
C237 C 0.40629 0.61772 0.76399 0.0
C238 C 0.36204 0.57717 0.74357 0.0
C239 C 0.39092 0.62593 0.79447 0.0
C240 C 0.33212 0.59417 0.80464 0.0
C241 C 0.30341 0.54661 0.75328 0.0
C242 C 0.28838 0.55488 0.78363 0.0
C243 C 0.56748 0.87825 0.69215 0.0
H244 H 0.79283 0.89656 0.61916 0.0
H245 H 0.68719 0.93674 0.55726 0.0
H246 H 0.87815 0.95009 0.58416 0.0
H247 H 0.87033 0.99703 0.53611 0.0
H248 H 0.37244 0.56913 0.72002 0.0
H249 H 0.42481 0.65696 0.81032 0.0
H250 H 0.26963 0.51572 0.7374 0.0
H251 H 0.24281 0.52883 0.79097 0.0
Gd252 Gd 0.82659 0.64259 0.99803 0.0
Gd253 Gd 0.78474 0.53038 0.05813 0.0
C254 C 0.62907 0.34908 0.03339 0.0
C255 C 0.55233 0.34375 0.06796 0.0
C256 C 0.65113 0.42908 0.0699 0.0
C257 C 0.66899 0.40523 0.04593 0.0
C258 C 0.59318 0.39775 0.08185 0.0
C259 C 0.57023 0.31947 0.04375 0.0
C260 C 0.65005 0.32315 1.01185 0.0
C261 C 0.71005 0.3517 1.00464 0.0
N262 N 0.72647 0.43456 0.03676 0.0
C263 C 0.74799 0.40707 0.01787 0.0
H264 H 0.79395 0.42808 1.01186 0.0
C265 C 0.67921 0.50113 0.11023 0.0
N266 N 0.69161 0.4815 0.08284 0.0
C267 C 0.62229 0.47168 0.12286 0.0
C268 C 0.5787 0.4205 0.10818 0.0
H269 H 0.71264 0.54065 0.12173 0.0
H270 H 0.5388 0.27673 0.03404 0.0
H271 H 0.74033 0.69341 0.03626 0.0
H272 H 0.62082 0.28017 1.00163 0.0
H273 H 0.72713 0.33122 0.98877 0.0
H274 H 0.50736 0.31943 0.0765 0.0
H275 H 0.95885 0.68865 0.96377 0.0
H276 H 0.85681 0.85773 0.0789 0.0
H277 H 0.7563 0.77537 0.06913 0.0
H278 H 0.04694 0.90428 0.04116 0.0
H279 H 0.61207 0.48848 0.14388 0.0
H280 H 0.53465 0.39772 0.11805 0.0
H281 H 0.96453 0.90497 0.06858 0.0
H282 H 0.05999 0.77183 0.96763 0.0
N283 N 0.8322 0.72417 0.02718 0.0
C284 C 0.8505 0.82089 0.06426 0.0
C285 C 0.79379 0.77447 0.05885 0.0
C286 C 0.89826 0.82004 0.05008 0.0
C287 C 0.88779 0.77084 0.03124 0.0
C288 C 0.78525 0.72683 0.04 0.0
N289 N 0.924 0.72273 0.99832 0.0
C290 C 0.93468 0.77017 0.01626 0.0
C291 C 0.0254 0.77171 0.98176 0.0
C292 C 0.03804 0.8188 1.00191 0.0
C293 C 0.9678 0.72434 0.97986 0.0
C294 C 0.99242 0.81899 0.01908 0.0
H295 H 0.0828 0.85547 1.00342 0.0
O296 O 0.8483 0.63927 0.94884 0.0
O297 O 0.79214 0.5469 1.00681 0.0
O298 O 0.8545 0.52582 0.0292 0.0
O299 O 0.89725 0.61301 1.00026 0.0
O300 O 0.74489 0.56735 0.97633 0.0
O301 O 0.80889 0.69226 0.9627 0.0
O302 O 0.85737 0.55462 0.09085 0.0
O303 O 0.84408 0.62538 0.047 0.0
O304 O 0.73096 0.61318 1.01129 0.0
O305 O 0.70838 0.54634 0.05246 0.0
O306 O 0.79582 0.60755 0.08763 0.0
O307 O 0.78402 0.46639 0.09098 0.0
C308 C 0.74954 0.52441 0.98774 0.0
C309 C 1.00283 0.86689 0.03844 0.0
C310 C 0.95591 0.8673 0.054 0.0
C311 C 0.82754 0.67292 0.93947 0.0
C312 C 0.85222 0.70948 0.9108 0.0
C313 C 0.90875 0.725 0.89979 0.0
C314 C 0.81605 0.72371 0.89231 0.0
C315 C 0.83561 0.75176 0.86281 0.0
C316 C 0.92869 0.75361 0.87096 0.0
C317 C 0.89238 0.76645 0.85248 0.0
C318 C 0.89819 0.56617 1.01215 0.0
C319 C 0.83839 0.64903 0.07191 0.0
C320 C 0.82861 0.5064 0.10679 0.0
C321 C 0.81669 0.51302 0.1401 0.0
C322 C 0.83052 0.5685 0.15239 0.0
C323 C 0.78482 0.46289 0.15871 0.0
C324 C 0.76465 0.46757 0.18877 0.0
C325 C 0.80889 0.57336 0.18155 0.0
C326 C 0.77519 0.52314 0.19945 0.0
C327 C 0.69463 0.57643 0.03292 0.0
H328 H 0.93718 0.71404 0.91307 0.0
H329 H 0.77191 0.71101 0.90032 0.0
H330 H 0.97233 0.76523 0.86266 0.0
H331 H 0.90892 0.78842 0.83017 0.0
H332 H 0.85682 0.60797 0.13912 0.0
H333 H 0.77672 0.42057 0.14977 0.0
H334 H 0.81838 0.6162 0.19032 0.0
H335 H 0.75887 0.52814 0.22205 0.0
Gd336 Gd 0.18566 0.80983 0.33337 0.0
Gd337 Gd 0.25926 0.7677 0.39118 0.0
C338 C 0.31366 0.63171 0.36441 0.0
C339 C 0.25082 0.54959 0.39832 0.0
C340 C 0.24708 0.64069 0.40092 0.0
C341 C 0.28926 0.66479 0.37734 0.0
C342 C 0.22843 0.58335 0.41211 0.0
C343 C 0.29327 0.57368 0.37451 0.0
C344 C 0.35898 0.65835 0.34229 0.0
C345 C 0.38029 0.71714 0.33435 0.0
N346 N 0.30852 0.72133 0.36816 0.0
C347 C 0.35507 0.74828 0.34789 0.0
H348 H 0.3715 0.7929 0.34062 0.0
C349 C 0.18994 0.65495 0.43964 0.0
N350 N 0.22545 0.67401 0.4136 0.0
C351 C 0.1704 0.5985 0.45152 0.0
C352 C 0.18888 0.56212 0.43735 0.0
H353 H 0.17589 0.6828 0.45112 0.0
H354 H 0.31114 0.54756 0.36458 0.0
H355 H 0.03642 0.71358 0.34369 0.0
H356 H 0.37867 0.63437 0.33174 0.0
H357 H 0.41589 0.73848 0.31754 0.0
H358 H 0.23655 0.50526 0.40638 0.0
H359 H 0.27122 0.95581 0.31763 0.0
H360 H 0.97033 0.79513 0.40623 0.0
H361 H 0.95641 0.70797 0.376 0.0
H362 H 0.1254 0.99628 0.40924 0.0
H363 H 0.14125 0.58315 0.47167 0.0
H364 H 0.17365 0.51837 0.44663 0.0
H365 H 0.03412 0.90261 0.41888 0.0
H366 H 0.28849 0.05022 0.33949 0.0
N367 N 0.09975 0.80131 0.35835 0.0
C368 C 1.0066 0.79756 0.39262 0.0
C369 C 0.9987 0.74824 0.37575 0.0
C370 C 0.06008 0.85039 0.39021 0.0
C371 C 0.10596 0.85113 0.37219 0.0
C372 C 0.04531 0.75133 0.35801 0.0
N373 N 0.19857 0.90324 0.34774 0.0
C374 C 0.15726 0.90369 0.36692 0.0
C375 C 0.25213 0.00929 0.34805 0.0
C376 C 0.21339 0.01012 0.3704 0.0
C377 C 0.24306 0.95529 0.33631 0.0
C378 C 0.16408 0.95704 0.37931 0.0
H379 H 0.2202 0.05201 0.37932 0.0
O380 O 0.21084 0.84984 0.28686 0.0
O381 O 0.25003 0.77855 0.34009 0.0
O382 O 0.33263 0.84519 0.36683 0.0
O383 O 0.28681 0.87839 0.33173 0.0
O384 O 0.1841 0.73312 0.30807 0.0
O385 O 0.11944 0.78751 0.29654 0.0
O386 O 0.29639 0.83653 0.42707 0.0
O387 O 0.21556 0.82195 0.3834 0.0
O388 O 0.12339 0.71243 0.34693 0.0
O389 O 0.17696 0.68436 0.37937 0.0
O390 O 0.18109 0.75954 0.41801 0.0
O391 O 0.32196 0.77032 0.42582 0.0
C392 C 0.23199 0.73822 0.31949 0.0
C393 C 0.12039 0.95591 0.39905 0.0
C394 C 0.06841 0.90262 0.40449 0.0
C395 C 0.15732 0.82109 0.27556 0.0
C396 C 0.13814 0.84921 0.25145 0.0
C397 C 0.16998 0.91041 0.24673 0.0
C398 C 0.09045 0.81375 0.23087 0.0
C399 C 0.07596 0.83923 0.20556 0.0
C400 C 0.15545 0.93568 0.2219 0.0
C401 C 0.1092 0.90047 0.20136 0.0
C402 C 0.33494 0.88407 0.34635 0.0
C403 C 0.18014 0.80446 0.40644 0.0
C404 C 0.31862 0.81 0.44282 0.0
C405 C 0.29674 0.79238 0.47524 0.0
C406 C 0.24905 0.79766 0.48679 0.0
C407 C 0.32005 0.76508 0.49395 0.0
C408 C 0.29593 0.74307 0.52371 0.0
C409 C 0.22394 0.77448 0.51592 0.0
C410 C 0.24706 0.74702 0.53433 0.0
C411 C 0.12979 0.67238 0.36299 0.0
H412 H 0.20672 0.93868 0.26191 0.0
H413 H 0.06557 0.76639 0.23409 0.0
H414 H 0.18055 0.9829 0.2184 0.0
H415 H 0.09893 0.92117 0.18228 0.0
H416 H 0.23038 0.81881 0.47326 0.0
H417 H 0.35793 0.76241 0.48564 0.0
H418 H 0.18687 0.77836 0.52433 0.0
H419 H 0.22797 0.73043 0.55726 0.0
Gd420 Gd 0.37846 0.18171 0.67097 0.0
Gd421 Gd 0.51941 0.24796 0.71414 0.0
C422 C 0.69098 0.28449 0.66646 0.0
C423 C 0.71008 0.21159 0.69062 0.0
C424 C 0.62407 0.21856 0.70597 0.0
C425 C 0.63919 0.26368 0.6846 0.0
C426 C 0.65983 0.19267 0.70958 0.0
C427 C 0.72562 0.2574 0.6691 0.0
C428 C 0.70737 0.33306 0.64689 0.0
C429 C 0.67367 0.36097 0.64671 0.0
N430 N 0.60524 0.28954 0.68296 0.0
C431 C 0.62303 0.3391 0.66539 0.0
H432 H 0.59732 0.36094 0.66496 0.0
C433 C 0.56122 0.16048 0.74718 0.0
N434 N 0.57487 0.20096 0.72381 0.0
C435 C 0.59529 0.13344 0.75154 0.0
C436 C 0.64446 0.14915 0.73246 0.0
H437 H 0.52332 0.14795 0.76203 0.0
H438 H 0.76526 0.27244 0.65513 0.0
H439 H 0.32098 0.06287 0.71846 0.0
H440 H 0.74673 0.35028 0.63251 0.0
H441 H 0.6866 0.3993 0.63215 0.0
H442 H 0.73781 0.19185 0.69283 0.0
H443 H 0.34446 0.26577 0.62727 0.0
H444 H 0.16915 0.04961 0.76424 0.0
H445 H 0.2391 0.013 0.75581 0.0
H446 H 0.14282 0.19804 0.71338 0.0
H447 H 0.58356 0.10043 0.76958 0.0
H448 H 0.67069 0.12804 0.73588 0.0
H449 H 0.13419 0.11983 0.74871 0.0
H450 H 0.27175 0.30021 0.62688 0.0
N451 N 0.29878 0.12817 0.70573 0.0
C452 C 0.20507 0.07172 0.74765 0.0
C453 C 0.24431 0.0508 0.74286 0.0
C454 C 0.21142 0.11959 0.7301 0.0
C455 C 0.259 0.14676 0.70886 0.0
C456 C 0.29083 0.07934 0.7215 0.0
N457 N 0.30801 0.21249 0.66782 0.0
C458 C 0.26382 0.19052 0.68918 0.0
C459 C 0.26912 0.26952 0.64464 0.0
C460 C 0.22504 0.24957 0.66758 0.0
C461 C 0.30999 0.24978 0.64484 0.0
C462 C 0.22131 0.20873 0.68991 0.0
H463 H 0.19326 0.26471 0.66733 0.0
O464 O 0.35917 0.16944 0.62061 0.0
O465 O 0.47493 0.22018 0.66796 0.0
O466 O 0.50517 0.32094 0.69569 0.0
O467 O 0.40498 0.27808 0.68228 0.0
O468 O 0.43568 0.24513 0.63382 0.0
O469 O 0.33431 0.09362 0.64953 0.0
O470 O 0.53 0.26716 0.76412 0.0
O471 O 0.4226 0.21669 0.71735 0.0
O472 O 0.40545 0.1126 0.68561 0.0
O473 O 0.50723 0.16541 0.69198 0.0
O474 O 0.45736 0.1873 0.75135 0.0
O475 O 0.58509 0.3352 0.73092 0.0
C476 C 0.48488 0.25047 0.64338 0.0
C477 C 0.17556 0.18418 0.71216 0.0
C478 C 0.17066 0.13967 0.73227 0.0
C479 C 0.33441 0.11229 0.62113 0.0
C480 C 0.28025 0.07856 0.60166 0.0
C481 C 0.22738 0.07518 0.61122 0.0
C482 C 0.28141 0.05056 0.573 0.0
C483 C 0.22974 0.01904 0.55418 0.0
C484 C 0.17662 0.04484 0.59284 0.0
C485 C 0.17768 0.01726 0.5647 0.0
C486 C 0.45824 0.3249 0.68772 0.0
C487 C 0.41048 0.18802 0.74274 0.0
C488 C 0.576 0.31914 0.76038 0.0
C489 C 0.62727 0.32954 0.77935 0.0
C490 C 0.67313 0.32318 0.76631 0.0
C491 C 0.62673 0.33914 0.81178 0.0
C492 C 0.67024 0.33987 0.83162 0.0
C493 C 0.71551 0.3222 0.7857 0.0
C494 C 0.71363 0.32943 0.81817 0.0
C495 C 0.4579 0.11555 0.6874 0.0
H496 H 0.22546 0.09638 0.63286 0.0
H497 H 0.32223 0.05288 0.56565 0.0
H498 H 0.1361 0.04292 0.60036 0.0
H499 H 0.13754 0.9952 0.55092 0.0
H500 H 0.67575 0.31805 0.74129 0.0
H501 H 0.59239 0.34648 0.82126 0.0
H502 H 0.74983 0.31557 0.77554 0.0
H503 H 0.74668 0.32746 0.83258 0.0
H504 H 0.22315 0.63892 0.29436 0.0
H505 H 0.32558 0.82864 0.2912 0.0
H506 H 0.37335 0.82411 0.24323 0.0
H507 H 0.37072 0.76777 0.19732 0.0
H508 H 0.27036 0.57731 0.19892 0.0
H509 H 0.23649 0.58065 0.25208 0.0
C510 C 0.25743 0.67894 0.28359 0.0
C511 C 0.27151 0.73396 0.29647 0.0
C512 C 0.28369 0.67601 0.25524 0.0
C513 C 0.31514 0.7858 0.28226 0.0
C514 C 0.34194 0.78324 0.25448 0.0
C515 C 0.34328 0.72665 0.20946 0.0
C516 C 0.32177 0.6725 0.19351 0.0
C517 C 0.32446 0.72875 0.24003 0.0
C518 C 0.28578 0.61993 0.21001 0.0
C519 C 0.26669 0.62168 0.24057 0.0
H520 H 0.52714 0.33594 0.60086 0.0
H521 H 0.54094 0.18723 0.63283 0.0
H522 H 0.58482 0.18344 0.58272 0.0
H523 H 0.59367 0.20598 0.52648 0.0
H524 H 0.57396 0.35104 0.49342 0.0
H525 H 0.55774 0.3728 0.54732 0.0
C526 C 0.54192 0.30421 0.59711 0.0
C527 C 0.53029 0.26145 0.62 0.0
C528 C 0.56424 0.30056 0.56778 0.0
C529 C 0.54959 0.22058 0.61543 0.0
C530 C 0.57394 0.21795 0.58661 0.0
C531 C 0.58801 0.24372 0.53112 0.0
C532 C 0.58317 0.27577 0.50596 0.0
C533 C 0.57762 0.25518 0.562 0.0
C534 C 0.57589 0.32456 0.51238 0.0
C535 C 0.56689 0.33717 0.54316 0.0
H536 H 0.20305 0.53652 0.93305 0.0
H537 H 0.36073 0.5358 0.96162 0.0
H538 H 0.40826 0.58132 0.9117 0.0
H539 H 0.39476 0.59834 0.85642 0.0
H540 H 0.23546 0.59644 0.82761 0.0
H541 H 0.1985 0.57517 0.88149 0.0
C542 C 0.24856 0.54833 0.9286 0.0
C543 C 0.27841 0.53253 0.95031 0.0
C544 C 0.27454 0.57265 0.89974 0.0
C545 C 0.33728 0.54786 0.94495 0.0
C546 C 0.36407 0.57326 0.91637 0.0
C547 C 0.35294 0.59548 0.86207 0.0
C548 C 0.31701 0.59712 0.83793 0.0
C549 C 0.33172 0.5825 0.89295 0.0
C550 C 0.26297 0.59339 0.84568 0.0
C551 C 0.24194 0.58146 0.87645 0.0
H552 H 0.69661 0.23027 0.25653 0.0
H553 H 0.79011 0.35431 0.33117 0.0
H554 H 0.79167 0.43321 0.30163 0.0
H555 H 0.78317 0.47011 0.25134 0.0
H556 H 0.69105 0.34957 0.17471 0.0
H557 H 0.67249 0.26624 0.2081 0.0
C558 C 0.71622 0.27443 0.26643 0.0
C559 C 0.74373 0.28642 0.29604 0.0
C560 C 0.71816 0.32042 0.24867 0.0
C561 C 0.76897 0.34364 0.30863 0.0
C562 C 0.76993 0.38909 0.29159 0.0
C563 C 0.75698 0.42569 0.24205 0.0
C564 C 0.73981 0.4164 0.21031 0.0
C565 C 0.74697 0.37842 0.2611 0.0
C566 C 0.70649 0.35817 0.19884 0.0
C567 C 0.69567 0.31047 0.21792 0.0
H568 H 0.47525 0.68736 0.59108 0.0
H569 H 0.46871 0.80948 0.65746 0.0
H570 H 0.38738 0.8069 0.62954 0.0
H571 H 0.32696 0.78073 0.58279 0.0
H572 H 0.33786 0.6671 0.51227 0.0
H573 H 0.40809 0.65492 0.54514 0.0
C574 C 0.45528 0.71266 0.5995 0.0
C575 C 0.47732 0.74769 0.62669 0.0
C576 C 0.40946 0.71266 0.58242 0.0
C577 C 0.45209 0.78124 0.63715 0.0
C578 C 0.40549 0.78001 0.62102 0.0
C579 C 0.34325 0.75178 0.57504 0.0
C580 C 0.32759 0.72483 0.54535 0.0
C581 C 0.38489 0.74709 0.59326 0.0
C582 C 0.34985 0.68845 0.53515 0.0
C583 C 0.39004 0.68175 0.55381 0.0
H584 H 0.64726 0.4371 0.96367 0.0
H585 H 0.83615 0.5134 0.95943 0.0
H586 H 0.82736 0.45597 0.91262 0.0
H587 H 0.76821 0.39921 0.86823 0.0
H588 H 0.57815 0.31709 0.87214 0.0
H589 H 0.58538 0.36248 0.9235 0.0
C590 C 0.68608 0.43948 0.95289 0.0
C591 C 0.74214 0.47877 0.96505 0.0
C592 C 0.68074 0.40677 0.92549 0.0
C593 C 0.79248 0.48243 0.95094 0.0
C594 C 0.78753 0.45012 0.92387 0.0
C595 C 0.72789 0.38903 0.88052 0.0
C596 C 0.67287 0.3561 0.86555 0.0
C597 C 0.73212 0.41412 0.91025 0.0
C598 C 0.6215 0.34437 0.88228 0.0
C599 C 0.62544 0.36986 0.91187 0.0
H600 H 0.43235 0.49952 0.06864 0.0
H601 H 0.40255 0.44424 0.97154 0.0
H602 H 0.50852 0.47989 0.96484 0.0
H603 H 0.61106 0.53102 0.98656 0.0
H604 H 0.63833 0.58659 0.08377 0.0
H605 H 0.53261 0.54935 0.09022 0.0
C606 C 0.44907 0.49566 0.04595 0.0
C607 C 0.40961 0.46982 0.02059 0.0
C608 C 0.50999 0.51792 0.04213 0.0
C609 C 0.43175 0.46324 0.99158 0.0
C610 C 0.49253 0.48454 0.98764 0.0
C611 C 0.59378 0.53623 1.00886 0.0
C612 C 0.63259 0.56316 0.03447 0.0
C613 C 0.53233 0.5131 0.0126 0.0
C614 C 0.60948 0.56735 0.06361 0.0
C615 C 0.54898 0.54546 0.06737 0.0
H616 H 1.00931 0.61506 0.36756 0.0
H617 H 0.15559 0.58649 0.35007 0.0
H618 H 0.08912 0.47992 0.34809 0.0
H619 H 0.9884 0.39317 0.35318 0.0
H620 H 0.84402 0.42447 0.37298 0.0
H621 H 0.90966 0.52946 0.37207 0.0
C622 C 0.02632 0.58547 0.36283 0.0
C623 C 0.0871 0.60864 0.35893 0.0
C624 C 0.98792 0.52387 0.36239 0.0
C625 C 0.10877 0.56961 0.35338 0.0
C626 C 0.07079 0.50854 0.35221 0.0
C627 C 0.97141 0.42298 0.35723 0.0
C628 C 0.91098 0.39986 0.36346 0.0
C629 C 1.01011 0.48482 0.35706 0.0
C630 C 0.89014 0.43984 0.36864 0.0
C631 C 0.92777 0.50063 0.36794 0.0
H632 H 0.55505 0.11112 0.66949 0.0
H633 H 0.37676 0.99998 0.70206 0.0
H634 H 0.39576 0.91715 0.70658 0.0
H635 H 0.46452 0.8786 0.70352 0.0
H636 H 0.64407 0.99171 0.67301 0.0
H637 H 0.62335 0.0726 0.66624 0.0
C638 C 0.52016 0.06887 0.67771 0.0
C639 C 0.46457 0.06213 0.68582 0.0
C640 C 0.53204 0.02234 0.68108 0.0
C641 C 0.41969 1.00649 0.69555 0.0
C642 C 0.43086 0.95937 0.69843 0.0
C643 C 0.49961 0.92099 0.69578 0.0
C644 C 0.55632 0.92888 0.68924 0.0
C645 C 0.48721 0.96719 0.6918 0.0
C646 C 0.60033 0.98414 0.67844 0.0
C647 C 0.58836 0.03038 0.67444 0.0
H648 H 0.46221 0.56785 0.67279 0.0
H649 H 0.65013 0.63427 0.67101 0.0
H650 H 0.63225 0.53305 0.67428 0.0
H651 H 0.56366 0.42691 0.68119 0.0
H652 H 0.37584 0.36092 0.68347 0.0
H653 H 0.39357 0.46143 0.67686 0.0
C654 C 0.49954 0.56052 0.67286 0.0
C655 C 0.55771 0.60916 0.6718 0.0
C656 C 0.48889 0.50233 0.67525 0.0
C657 C 0.60506 0.59808 0.67159 0.0
C658 C 0.59478 0.54012 0.67375 0.0
C659 C 0.52633 0.4341 0.68014 0.0
C660 C 0.46822 0.3858 0.68295 0.0
C661 C 0.53693 0.49206 0.6762 0.0
C662 C 0.42083 0.39673 0.68128 0.0
C663 C 0.43104 0.45434 0.67755 0.0
H664 H 0.13792 0.56251 1.00276 0.0
H665 H 0.01897 0.37562 0.01322 0.0
H666 H 0.93464 0.39225 1.01119 0.0
H667 H 0.89553 0.4606 1.01073 0.0
H668 H 0.01411 0.64732 0.99984 0.0
H669 H 0.09792 0.6299 0.99733 0.0
C670 C 0.09355 0.5252 1.0044 0.0
C671 C 0.08498 0.46776 1.00855 0.0
C672 C 0.04529 0.53516 1.00315 0.0
C673 C 0.02702 0.42012 1.01006 0.0
C674 C 0.97878 0.42972 1.00903 0.0
C675 C 0.93955 0.4976 1.00742 0.0
C676 C 0.94827 0.55545 1.00559 0.0
C677 C 0.98748 0.48716 1.0062 0.0
C678 C 1.00581 0.60247 1.00102 0.0
C679 C 0.05384 0.59248 0.99988 0.0
H680 H 0.43813 0.88437 0.35635 0.0
H681 H 0.37097 0.99132 0.31711 0.0
H682 H 0.47224 0.07096 0.30843 0.0
H683 H 0.57959 0.11264 0.31636 0.0
H684 H 0.6453 1.00326 0.35354 0.0
H685 H 0.54405 0.92033 0.3571 0.0
C686 C 0.44481 0.92423 0.34513 0.0
C687 C 0.39589 0.93128 0.33753 0.0
C688 C 0.50309 0.96917 0.3396 0.0
C689 C 0.40694 0.98417 0.32334 0.0
C690 C 0.4651 0.02984 0.31836 0.0
C691 C 0.57182 0.07028 0.32468 0.0
C692 C 0.61996 0.06422 0.33496 0.0
C693 C 0.51345 0.02316 0.32697 0.0
C694 C 0.60927 0.00894 0.34527 0.0
C695 C 0.55129 0.96184 0.34768 0.0
H696 H 0.36823 0.26527 0.75456 0.0
H697 H 0.36249 0.10753 0.78854 0.0
H698 H 0.30715 0.10792 0.83479 0.0
H699 H 0.26561 0.1556 0.86756 0.0
H700 H 0.27385 0.31604 0.83628 0.0
H701 H 0.32399 0.31302 0.78791 0.0
C702 C 0.35374 0.2304 0.77181 0.0
C703 C 0.36855 0.18552 0.76763 0.0
C704 C 0.32348 0.23215 0.79936 0.0
C705 C 0.351 0.14191 0.79082 0.0
C706 C 0.31966 0.14237 0.81747 0.0
C707 C 0.27771 0.1898 0.85012 0.0
C708 C 0.26535 0.23592 0.8559 0.0
C709 C 0.30652 0.18774 0.82232 0.0
C710 C 0.28303 0.28027 0.83297 0.0
C711 C 0.31135 0.27825 0.80504 0.0
H712 H 0.97878 0.2399 0.15182 0.0
H713 H 0.10468 0.30904 0.22777 0.0
H714 H 0.18418 0.36561 0.19026 0.0
H715 H 0.21857 0.39429 0.13591 0.0
H716 H 0.09196 0.33749 0.06037 0.0
H717 H 0.01275 0.27586 0.09704 0.0
C718 C 0.02351 0.26824 0.1601 0.0
C719 C 0.0357 0.27092 0.19269 0.0
C720 C 0.06915 0.3015 0.13825 0.0
C721 C 0.09399 0.30709 0.20301 0.0
C722 C 0.13955 0.33896 0.18148 0.0
C723 C 0.17371 0.36805 0.1273 0.0
C724 C 0.16204 0.36854 0.09486 0.0
C725 C 0.12781 0.33613 0.14903 0.0
C726 C 0.10312 0.33567 0.08465 0.0
C727 C 0.05749 0.30129 0.10588 0.0
H728 H 0.8601 0.08031 0.52181 0.0
H729 H 0.68983 0.93278 0.49801 0.0
H730 H 0.68688 0.98389 0.45037 0.0
H731 H 0.73066 0.07438 0.41688 0.0
H732 H 0.89545 0.22409 0.44563 0.0
H733 H 0.90415 0.16764 0.4885 0.0
C734 C 0.82257 0.05872 0.50604 0.0
C735 C 0.77532 1.00242 0.51372 0.0
C736 C 0.82097 0.08859 0.47886 0.0
C737 C 0.72661 0.97622 0.4931 0.0
C738 C 0.72516 1.00533 0.46561 0.0
C739 C 0.76948 0.09359 0.43183 0.0
C740 C 0.81433 0.15252 0.42676 0.0
C741 C 0.77197 0.06188 0.45827 0.0
C742 C 0.86228 0.17797 0.44773 0.0
C743 C 0.86657 0.14603 0.47279 0.0
H744 H 0.67126 0.8333 0.79602 0.0
H745 H 0.69282 0.7396 0.71798 0.0
H746 H 0.76104 0.72189 0.7491 0.0
H747 H 0.80923 0.72679 0.8002 0.0
H748 H 0.7766 0.80919 0.88008 0.0
H749 H 0.71681 0.83585 0.84712 0.0
C750 C 0.69161 0.80974 0.78565 0.0
C751 C 0.6787 0.79002 0.75412 0.0
C752 C 0.72771 0.79631 0.80447 0.0
C753 C 0.70398 0.75784 0.74152 0.0
C754 C 0.74222 0.74671 0.75961 0.0
C755 C 0.78915 0.75075 0.81034 0.0
C756 C 0.79746 0.76597 0.84266 0.0
C757 C 0.75368 0.76488 0.79131 0.0
C758 C 0.77054 0.79645 0.85545 0.0
C759 C 0.73665 0.81204 0.83653 0.0
H760 H 0.07996 0.80664 0.1446 0.0
H761 H 0.95897 0.79368 0.21726 0.0
H762 H 0.87588 0.74258 0.18061 0.0
H763 H 0.83703 0.6988 0.12824 0.0
H764 H 0.9565 0.69851 0.05821 0.0
H765 H 0.04039 0.75963 0.09244 0.0
C766 C 0.03528 0.79214 0.15239 0.0
C767 C 0.02552 0.80337 0.18375 0.0
C768 C 0.98748 0.76172 0.13123 0.0
C769 C 0.96749 0.7848 0.19345 0.0
C770 C 0.92006 0.75607 0.17237 0.0
C771 C 0.88156 0.71311 0.12023 0.0
C772 C 0.89012 0.69512 0.09016 0.0
C773 C 0.92944 0.74424 0.14118 0.0
C774 C 0.94824 0.71298 0.08063 0.0
C775 C 0.99636 0.74708 0.10056 0.0
H776 H 0.14123 0.91359 0.53052 0.0
H777 H 0.31593 0.05471 0.50819 0.0
H778 H 0.31268 1.006 0.45811 0.0
H779 H 0.26167 0.92029 0.42133 0.0
H780 H 0.08946 0.77776 0.44598 0.0
H781 H 0.089 0.83146 0.49325 0.0
C782 C 0.17851 0.93447 0.51464 0.0
C783 C 0.22885 0.98832 0.5236 0.0
C784 C 0.17625 0.90624 0.48571 0.0
C785 C 0.27687 0.01318 0.50255 0.0
C786 C 0.27476 0.98552 0.47359 0.0
C787 C 0.22342 0.90175 0.43662 0.0
C788 C 0.17515 0.84503 0.42978 0.0
C789 C 0.22477 0.93181 0.4649 0.0
C790 C 0.12666 0.82138 0.45036 0.0
C791 C 0.12678 0.85184 0.47767 0.0
loop_
_geom_bond_atom_site_label_1
_geom_bond_atom_site_label_2
_geom_bond_distance
_geom_bond_site_symmetry_2
_ccdc_geom_bond_type
Gd0 N31 2.661 1_556 S
Gd0 N37 2.601 . S
Gd0 O44 2.545 . S
Gd0 O45 2.606 . S
Gd0 O47 2.429 . S
Gd0 O48 2.545 . S
Gd0 O49 2.412 . S
Gd0 O51 2.362 1_556 S
Gd0 O52 2.324 1_556 S
Gd0 C59 2.828 . S
Gd1 N10 2.661 . S
Gd1 N14 2.601 . S
Gd1 O45 2.362 1_554 S
Gd1 O46 2.324 . S
Gd1 O50 2.545 . S
Gd1 O51 2.606 . S
Gd1 O53 2.429 . S
Gd1 O54 2.545 . S
Gd1 O55 2.412 . S
Gd1 C68 2.828 . S
C2 C5 1.417 1_556 S
C2 C7 1.431 . S
C2 C8 1.412 . S
C3 C6 1.437 . S
C3 C7 1.317 1_554 S
C3 H22 0.929 . S
C4 C5 1.426 . S
C4 C6 1.413 . S
C4 N14 1.359 . S
C5 C2 1.417 1_554 S
C5 C4 1.426 . S
C5 N10 1.350 . S
C6 C3 1.437 . S
C6 C4 1.413 . S
C6 C16 1.391 . S
C7 C2 1.431 . S
C7 C3 1.317 1_556 S
C7 H18 0.930 . S
C8 C2 1.412 . S
C8 C9 1.355 . S
C8 H20 0.930 . S
C9 C8 1.355 . S
C9 C11 1.402 . S
C9 H21 0.930 . S
N10 Gd1 2.661 . S
N10 C5 1.350 . S
N10 C11 1.307 1_554 S
C11 C9 1.402 . S
C11 N10 1.307 1_556 S
C11 H12 0.930 . S
H12 C11 0.930 . S
C13 N14 1.334 . S
C13 C15 1.394 . S
C13 H17 0.930 . S
N14 Gd1 2.601 . S
N14 C4 1.359 . S
N14 C13 1.334 . S
C15 C13 1.394 . S
C15 C16 1.359 . S
C15 H27 0.930 . S
C16 C6 1.391 . S
C16 C15 1.359 . S
C16 H28 0.929 . S
H17 C13 0.930 . S
H18 C7 0.930 . S
H19 C36 0.930 . S
H20 C8 0.930 . S
H21 C9 0.930 . S
H22 C3 0.929 . S
H23 C41 0.930 . S
H24 C32 0.930 . S
H25 C33 0.930 . S
H26 C57 0.929 . S
H27 C15 0.930 . S
H28 C16 0.929 . S
H29 C58 0.930 . S
H30 C39 0.930 . S
N31 Gd0 2.661 1_554 S
N31 C35 1.350 . S
N31 C36 1.307 . S
C32 H24 0.930 . S
C32 C33 1.355 . S
C32 C34 1.412 . S
C33 H25 0.930 . S
C33 C32 1.355 . S
C33 C36 1.402 . S
C34 C32 1.412 . S
C34 C35 1.417 . S
C34 C58 1.431 . S
C35 N31 1.350 . S
C35 C34 1.417 . S
C35 C38 1.426 . S
C36 H19 0.930 . S
C36 N31 1.307 . S
C36 C33 1.402 . S
N37 Gd0 2.601 . S
N37 C38 1.359 1_556 S
N37 C41 1.334 . S
C38 C35 1.426 . S
C38 N37 1.359 1_554 S
C38 C42 1.413 1_455 S
C39 H30 0.930 . S
C39 C40 1.359 . S
C39 C41 1.394 1_655 S
C40 C39 1.359 . S
C40 C42 1.391 1_556 S
C40 H43 0.929 . S
C41 H23 0.930 . S
C41 N37 1.334 . S
C41 C39 1.394 1_455 S
C42 C38 1.413 1_655 S
C42 C40 1.391 1_554 S
C42 C57 1.437 . S
H43 C40 0.929 . S
O44 Gd0 2.545 . S
O44 C59 1.258 . S
O45 Gd0 2.606 . S
O45 Gd1 2.362 1_556 S
O45 C56 1.284 . S
O46 Gd1 2.324 . S
O46 C66 1.254 . S
O47 Gd0 2.429 . S
O47 C66 1.268 1_556 S
O48 Gd0 2.545 . S
O48 C56 1.250 . S
O49 Gd0 2.412 . S
O49 C59 1.252 . S
O50 Gd1 2.545 . S
O50 C68 1.258 . S
O51 Gd0 2.362 1_554 S
O51 Gd1 2.606 . S
O51 C67 1.284 . S
O52 Gd0 2.324 1_554 S
O52 C75 1.254 . S
O53 Gd1 2.429 . S
O53 C75 1.268 . S
O54 Gd1 2.545 . S
O54 C67 1.250 . S
O55 Gd1 2.412 . S
O55 C68 1.252 . S
C56 O45 1.284 . S
C56 O48 1.250 . S
C57 H26 0.929 . S
C57 C42 1.437 . S
C57 C58 1.317 1_655 S
C58 H29 0.930 . S
C58 C34 1.431 . S
C58 C57 1.317 1_455 S
C59 Gd0 2.828 . S
C59 O44 1.258 . S
C59 O49 1.252 . S
C59 C60 1.497 . S
C60 C59 1.497 . S
C60 C61 1.395 . S
C60 C62 1.380 . S
C61 C60 1.395 . S
C61 C64 1.398 . S
C61 H76 0.930 . S
C62 C60 1.380 . S
C62 C63 1.391 . S
C62 H77 0.930 . S
C63 C62 1.391 . S
C63 C65 1.387 . S
C64 C61 1.398 . S
C64 C65 1.380 . S
C64 H78 0.930 . S
C65 C63 1.387 . S
C65 C64 1.380 . S
C65 H79 0.930 . S
C66 O46 1.254 . S
C66 O47 1.268 1_554 S
C67 O51 1.284 . S
C67 O54 1.250 . S
C68 Gd1 2.828 . S
C68 O50 1.258 . S
C68 O55 1.252 . S
C68 C69 1.497 . S
C69 C68 1.497 . S
C69 C70 1.395 . S
C69 C71 1.380 . S
C70 C69 1.395 . S
C70 C73 1.398 . S
C70 H80 0.930 . S
C71 C69 1.380 . S
C71 C72 1.391 . S
C71 H81 0.930 . S
C72 C71 1.391 . S
C72 C74 1.387 . S
C73 C70 1.398 . S
C73 C74 1.380 . S
C73 H82 0.930 . S
C74 C72 1.387 . S
C74 C73 1.380 . S
C74 H83 0.930 . S
C75 O52 1.254 . S
C75 O53 1.268 . S
H76 C61 0.930 . S
H77 C62 0.930 . S
H78 C64 0.930 . S
H79 C65 0.930 . S
H80 C70 0.930 . S
H81 C71 0.930 . S
H82 C73 0.930 . S
H83 C74 0.930 . S
Gd84 N115 2.661 . S
Gd84 N121 2.601 . S
Gd84 O128 2.545 . S
Gd84 O129 2.606 . S
Gd84 O131 2.429 . S
Gd84 O132 2.545 . S
Gd84 O133 2.412 . S
Gd84 O135 2.362 . S
Gd84 O136 2.324 . S
Gd84 C143 2.828 . S
Gd85 N94 2.661 . S
Gd85 N98 2.601 . S
Gd85 O129 2.362 . S
Gd85 O130 2.324 . S
Gd85 O134 2.545 . S
Gd85 O135 2.606 . S
Gd85 O137 2.429 . S
Gd85 O138 2.545 . S
Gd85 O139 2.412 . S
Gd85 C152 2.828 . S
C86 C89 1.417 . S
C86 C91 1.431 . S
C86 C92 1.412 . S
C87 C90 1.437 . S
C87 C91 1.317 . S
C87 H106 0.929 . S
C88 C89 1.426 . S
C88 C90 1.413 . S
C88 N98 1.359 . S
C89 C86 1.417 . S
C89 C88 1.426 . S
C89 N94 1.350 . S
C90 C87 1.437 . S
C90 C88 1.413 . S
C90 C100 1.391 . S
C91 C86 1.431 . S
C91 C87 1.317 . S
C91 H102 0.930 . S
C92 C86 1.412 . S
C92 C93 1.355 . S
C92 H104 0.930 . S
C93 C92 1.355 . S
C93 C95 1.402 . S
C93 H105 0.930 . S
N94 Gd85 2.661 . S
N94 C89 1.350 . S
N94 C95 1.307 . S
C95 C93 1.402 . S
C95 N94 1.307 . S
C95 H96 0.930 . S
H96 C95 0.930 . S
C97 N98 1.334 . S
C97 C99 1.394 . S
C97 H101 0.930 . S
N98 Gd85 2.601 . S
N98 C88 1.359 . S
N98 C97 1.334 . S
C99 C97 1.394 . S
C99 C100 1.359 . S
C99 H111 0.930 . S
C100 C90 1.391 . S
C100 C99 1.359 . S
C100 H112 0.929 . S
H101 C97 0.930 . S
H102 C91 0.930 . S
H103 C120 0.930 . S
H104 C92 0.930 . S
H105 C93 0.930 . S
H106 C87 0.929 . S
H107 C125 0.930 . S
H108 C116 0.930 . S
H109 C117 0.930 1_455 S
H110 C141 0.929 . S
H111 C99 0.930 . S
H112 C100 0.929 . S
H113 C142 0.930 . S
H114 C123 0.930 . S
N115 Gd84 2.661 . S
N115 C119 1.350 . S
N115 C120 1.307 . S
C116 H108 0.930 . S
C116 C117 1.355 . S
C116 C118 1.412 . S
C117 H109 0.930 1_655 S
C117 C116 1.355 . S
C117 C120 1.402 . S
C118 C116 1.412 . S
C118 C119 1.417 . S
C118 C142 1.431 . S
C119 N115 1.350 . S
C119 C118 1.417 . S
C119 C122 1.426 . S
C120 H103 0.930 . S
C120 N115 1.307 . S
C120 C117 1.402 . S
N121 Gd84 2.601 . S
N121 C122 1.359 . S
N121 C125 1.334 . S
C122 C119 1.426 . S
C122 N121 1.359 . S
C122 C126 1.413 1_545 S
C123 H114 0.930 . S
C123 C124 1.359 . S
C123 C125 1.394 1_565 S
C124 C123 1.359 . S
C124 C126 1.391 . S
C124 H127 0.929 . S
C125 H107 0.930 . S
C125 N121 1.334 . S
C125 C123 1.394 1_545 S
C126 C122 1.413 1_565 S
C126 C124 1.391 . S
C126 C141 1.437 . S
H127 C124 0.929 . S
O128 Gd84 2.545 . S
O128 C143 1.258 . S
O129 Gd84 2.606 . S
O129 Gd85 2.362 . S
O129 C140 1.284 . S
O130 Gd85 2.324 . S
O130 C150 1.254 . S
O131 Gd84 2.429 . S
O131 C150 1.268 . S
O132 Gd84 2.545 . S
O132 C140 1.250 . S
O133 Gd84 2.412 . S
O133 C143 1.252 . S
O134 Gd85 2.545 . S
O134 C152 1.258 . S
O135 Gd84 2.362 . S
O135 Gd85 2.606 . S
O135 C151 1.284 . S
O136 Gd84 2.324 . S
O136 C159 1.254 . S
O137 Gd85 2.429 . S
O137 C159 1.268 . S
O138 Gd85 2.545 . S
O138 C151 1.250 . S
O139 Gd85 2.412 . S
O139 C152 1.252 . S
C140 O129 1.284 . S
C140 O132 1.250 . S
C141 H110 0.929 . S
C141 C126 1.437 . S
C141 C142 1.317 1_565 S
C142 H113 0.930 . S
C142 C118 1.431 . S
C142 C141 1.317 1_545 S
C143 Gd84 2.828 . S
C143 O128 1.258 . S
C143 O133 1.252 . S
C143 C144 1.497 . S
C144 C143 1.497 . S
C144 C145 1.395 . S
C144 C146 1.380 . S
C145 C144 1.395 . S
C145 C148 1.398 . S
C145 H160 0.930 . S
C146 C144 1.380 . S
C146 C147 1.391 . S
C146 H161 0.930 . S
C147 C146 1.391 . S
C147 C149 1.387 . S
C148 C145 1.398 . S
C148 C149 1.380 . S
C148 H162 0.930 . S
C149 C147 1.387 . S
C149 C148 1.380 . S
C149 H163 0.930 . S
C150 O130 1.254 . S
C150 O131 1.268 . S
C151 O135 1.284 . S
C151 O138 1.250 . S
C152 Gd85 2.828 . S
C152 O134 1.258 . S
C152 O139 1.252 . S
C152 C153 1.497 . S
C153 C152 1.497 . S
C153 C154 1.395 . S
C153 C155 1.380 . S
C154 C153 1.395 . S
C154 C157 1.398 . S
C154 H164 0.930 . S
C155 C153 1.380 . S
C155 C156 1.391 . S
C155 H165 0.930 . S
C156 C155 1.391 . S
C156 C158 1.387 . S
C157 C154 1.398 . S
C157 C158 1.380 . S
C157 H166 0.930 . S
C158 C156 1.387 . S
C158 C157 1.380 . S
C158 H167 0.930 . S
C159 O136 1.254 . S
C159 O137 1.268 . S
H160 C145 0.930 . S
H161 C146 0.930 . S
H162 C148 0.930 . S
H163 C149 0.930 . S
H164 C154 0.930 . S
H165 C155 0.930 . S
H166 C157 0.930 . S
H167 C158 0.930 . S
Gd168 N199 2.661 . S
Gd168 N205 2.601 . S
Gd168 O212 2.545 . S
Gd168 O213 2.606 . S
Gd168 O215 2.429 . S
Gd168 O216 2.545 . S
Gd168 O217 2.412 . S
Gd168 O219 2.362 . S
Gd168 O220 2.324 . S
Gd168 C227 2.828 . S
Gd169 N178 2.661 . S
Gd169 N182 2.601 . S
Gd169 O213 2.362 . S
Gd169 O214 2.324 . S
Gd169 O218 2.545 . S
Gd169 O219 2.606 . S
Gd169 O221 2.429 . S
Gd169 O222 2.545 . S
Gd169 O223 2.412 . S
Gd169 C236 2.828 . S
C170 C173 1.417 . S
C170 C175 1.431 . S
C170 C176 1.412 . S
C171 C174 1.437 . S
C171 C175 1.317 . S
C171 H190 0.929 . S
C172 C173 1.426 . S
C172 C174 1.413 . S
C172 N182 1.359 . S
C173 C170 1.417 . S
C173 C172 1.426 . S
C173 N178 1.350 . S
C174 C171 1.437 . S
C174 C172 1.413 . S
C174 C184 1.391 . S
C175 C170 1.431 . S
C175 C171 1.317 . S
C175 H186 0.930 . S
C176 C170 1.412 . S
C176 C177 1.355 . S
C176 H188 0.930 . S
C177 C176 1.355 . S
C177 C179 1.402 . S
C177 H189 0.930 . S
N178 Gd169 2.661 . S
N178 C173 1.350 . S
N178 C179 1.307 . S
C179 C177 1.402 . S
C179 N178 1.307 . S
C179 H180 0.930 . S
H180 C179 0.930 . S
C181 N182 1.334 . S
C181 C183 1.394 . S
C181 H185 0.930 . S
N182 Gd169 2.601 . S
N182 C172 1.359 . S
N182 C181 1.334 . S
C183 C181 1.394 . S
C183 C184 1.359 . S
C183 H195 0.930 . S
C184 C174 1.391 . S
C184 C183 1.359 . S
C184 H196 0.929 . S
H185 C181 0.930 . S
H186 C175 0.930 . S
H187 C204 0.930 . S
H188 C176 0.930 . S
H189 C177 0.930 . S
H190 C171 0.929 . S
H191 C209 0.930 . S
H192 C200 0.930 . S
H193 C201 0.930 1_545 S
H194 C225 0.929 . S
H195 C183 0.930 . S
H196 C184 0.929 . S
H197 C226 0.930 . S
H198 C207 0.930 . S
N199 Gd168 2.661 . S
N199 C203 1.350 . S
N199 C204 1.307 . S
C200 H192 0.930 . S
C200 C201 1.355 . S
C200 C202 1.412 . S
C201 H193 0.930 1_565 S
C201 C200 1.355 . S
C201 C204 1.402 . S
C202 C200 1.412 . S
C202 C203 1.417 . S
C202 C226 1.431 . S
C203 N199 1.350 . S
C203 C202 1.417 . S
C203 C206 1.426 . S
C204 H187 0.930 . S
C204 N199 1.307 . S
C204 C201 1.402 . S
N205 Gd168 2.601 . S
N205 C206 1.359 . S
N205 C209 1.334 . S
C206 C203 1.426 . S
C206 N205 1.359 . S
C206 C210 1.413 . S
C207 H198 0.930 . S
C207 C208 1.359 . S
C207 C209 1.394 . S
C208 C207 1.359 . S
C208 C210 1.391 . S
C208 H211 0.929 . S
C209 H191 0.930 . S
C209 N205 1.334 . S
C209 C207 1.394 . S
C210 C206 1.413 . S
C210 C208 1.391 . S
C210 C225 1.437 . S
H211 C208 0.929 . S
O212 Gd168 2.545 . S
O212 C227 1.258 . S
O213 Gd168 2.606 . S
O213 Gd169 2.362 . S
O213 C224 1.284 . S
O214 Gd169 2.324 . S
O214 C234 1.254 . S
O215 Gd168 2.429 . S
O215 C234 1.268 . S
O216 Gd168 2.545 . S
O216 C224 1.250 . S
O217 Gd168 2.412 . S
O217 C227 1.252 . S
O218 Gd169 2.545 . S
O218 C236 1.258 . S
O219 Gd168 2.362 . S
O219 Gd169 2.606 . S
O219 C235 1.284 . S
O220 Gd168 2.324 . S
O220 C243 1.254 . S
O221 Gd169 2.429 . S
O221 C243 1.268 . S
O222 Gd169 2.545 . S
O222 C235 1.250 . S
O223 Gd169 2.412 . S
O223 C236 1.252 . S
C224 O213 1.284 . S
C224 O216 1.250 . S
C225 H194 0.929 . S
C225 C210 1.437 . S
C225 C226 1.317 . S
C226 H197 0.930 . S
C226 C202 1.431 . S
C226 C225 1.317 . S
C227 Gd168 2.828 . S
C227 O212 1.258 . S
C227 O217 1.252 . S
C227 C228 1.497 . S
C228 C227 1.497 . S
C228 C229 1.395 . S
C228 C230 1.380 . S
C229 C228 1.395 . S
C229 C232 1.398 . S
C229 H244 0.930 . S
C230 C228 1.380 . S
C230 C231 1.391 . S
C230 H245 0.930 . S
C231 C230 1.391 . S
C231 C233 1.387 . S
C232 C229 1.398 . S
C232 C233 1.380 . S
C232 H246 0.930 . S
C233 C231 1.387 . S
C233 C232 1.380 . S
C233 H247 0.930 . S
C234 O214 1.254 . S
C234 O215 1.268 . S
C235 O219 1.284 . S
C235 O222 1.250 . S
C236 Gd169 2.828 . S
C236 O218 1.258 . S
C236 O223 1.252 . S
C236 C237 1.497 . S
C237 C236 1.497 . S
C237 C238 1.395 . S
C237 C239 1.380 . S
C238 C237 1.395 . S
C238 C241 1.398 . S
C238 H248 0.930 . S
C239 C237 1.380 . S
C239 C240 1.391 . S
C239 H249 0.930 . S
C240 C239 1.391 . S
C240 C242 1.387 . S
C241 C238 1.398 . S
C241 C242 1.380 . S
C241 H250 0.930 . S
C242 C240 1.387 . S
C242 C241 1.380 . S
C242 H251 0.930 . S
C243 O220 1.254 . S
C243 O221 1.268 . S
H244 C229 0.930 . S
H245 C230 0.930 . S
H246 C232 0.930 . S
H247 C233 0.930 . S
H248 C238 0.930 . S
H249 C239 0.930 . S
H250 C241 0.930 . S
H251 C242 0.930 . S
Gd252 N283 2.661 1_556 S
Gd252 N289 2.601 . S
Gd252 O296 2.545 . S
Gd252 O297 2.606 . S
Gd252 O299 2.429 . S
Gd252 O300 2.545 . S
Gd252 O301 2.412 . S
Gd252 O303 2.362 1_556 S
Gd252 O304 2.324 1_556 S
Gd252 C311 2.828 . S
Gd253 N262 2.661 . S
Gd253 N266 2.601 . S
Gd253 O297 2.362 1_554 S
Gd253 O298 2.324 . S
Gd253 O302 2.545 . S
Gd253 O303 2.606 . S
Gd253 O305 2.429 . S
Gd253 O306 2.545 . S
Gd253 O307 2.412 . S
Gd253 C320 2.828 . S
C254 C257 1.417 1_556 S
C254 C259 1.431 . S
C254 C260 1.412 . S
C255 C258 1.437 . S
C255 C259 1.317 1_554 S
C255 H274 0.929 . S
C256 C257 1.426 . S
C256 C258 1.413 . S
C256 N266 1.359 . S
C257 C254 1.417 1_554 S
C257 C256 1.426 . S
C257 N262 1.350 . S
C258 C255 1.437 . S
C258 C256 1.413 . S
C258 C268 1.391 . S
C259 C254 1.431 . S
C259 C255 1.317 1_556 S
C259 H270 0.930 . S
C260 C254 1.412 . S
C260 C261 1.355 . S
C260 H272 0.930 . S
C261 C260 1.355 . S
C261 C263 1.402 . S
C261 H273 0.930 . S
N262 Gd253 2.661 . S
N262 C257 1.350 . S
N262 C263 1.307 1_554 S
C263 C261 1.402 . S
C263 N262 1.307 1_556 S
C263 H264 0.930 . S
H264 C263 0.930 . S
C265 N266 1.334 . S
C265 C267 1.394 . S
C265 H269 0.930 . S
N266 Gd253 2.601 . S
N266 C256 1.359 . S
N266 C265 1.334 . S
C267 C265 1.394 . S
C267 C268 1.359 . S
C267 H279 0.930 . S
C268 C258 1.391 . S
C268 C267 1.359 . S
C268 H280 0.929 . S
H269 C265 0.930 . S
H270 C259 0.930 . S
H271 C288 0.930 . S
H272 C260 0.930 . S
H273 C261 0.930 . S
H274 C255 0.929 . S
H275 C293 0.930 . S
H276 C284 0.930 . S
H277 C285 0.930 . S
H278 C309 0.929 . S
H279 C267 0.930 . S
H280 C268 0.929 . S
H281 C310 0.930 . S
H282 C291 0.930 . S
N283 Gd252 2.661 1_554 S
N283 C287 1.350 . S
N283 C288 1.307 . S
C284 H276 0.930 . S
C284 C285 1.355 . S
C284 C286 1.412 . S
C285 H277 0.930 . S
C285 C284 1.355 . S
C285 C288 1.402 . S
C286 C284 1.412 . S
C286 C287 1.417 . S
C286 C310 1.431 . S
C287 N283 1.350 . S
C287 C286 1.417 . S
C287 C290 1.426 . S
C288 H271 0.930 . S
C288 N283 1.307 . S
C288 C285 1.402 . S
N289 Gd252 2.601 . S
N289 C290 1.359 1_556 S
N289 C293 1.334 . S
C290 C287 1.426 . S
C290 N289 1.359 1_554 S
C290 C294 1.413 1_655 S
C291 H282 0.930 . S
C291 C292 1.359 . S
C291 C293 1.394 1_455 S
C292 C291 1.359 . S
C292 C294 1.391 1_556 S
C292 H295 0.929 . S
C293 H275 0.930 . S
C293 N289 1.334 . S
C293 C291 1.394 1_655 S
C294 C290 1.413 1_455 S
C294 C292 1.391 1_554 S
C294 C309 1.437 . S
H295 C292 0.929 . S
O296 Gd252 2.545 . S
O296 C311 1.258 . S
O297 Gd252 2.606 . S
O297 Gd253 2.362 1_556 S
O297 C308 1.284 . S
O298 Gd253 2.324 . S
O298 C318 1.254 . S
O299 Gd252 2.429 . S
O299 C318 1.268 1_556 S
O300 Gd252 2.545 . S
O300 C308 1.250 . S
O301 Gd252 2.412 . S
O301 C311 1.252 . S
O302 Gd253 2.545 . S
O302 C320 1.258 . S
O303 Gd252 2.362 1_554 S
O303 Gd253 2.606 . S
O303 C319 1.284 . S
O304 Gd252 2.324 1_554 S
O304 C327 1.254 . S
O305 Gd253 2.429 . S
O305 C327 1.268 . S
O306 Gd253 2.545 . S
O306 C319 1.250 . S
O307 Gd253 2.412 . S
O307 C320 1.252 . S
C308 O297 1.284 . S
C308 O300 1.250 . S
C309 H278 0.929 . S
C309 C294 1.437 . S
C309 C310 1.317 1_455 S
C310 H281 0.930 . S
C310 C286 1.431 . S
C310 C309 1.317 1_655 S
C311 Gd252 2.828 . S
C311 O296 1.258 . S
C311 O301 1.252 . S
C311 C312 1.497 . S
C312 C311 1.497 . S
C312 C313 1.395 . S
C312 C314 1.380 . S
C313 C312 1.395 . S
C313 C316 1.398 . S
C313 H328 0.930 . S
C314 C312 1.380 . S
C314 C315 1.391 . S
C314 H329 0.930 . S
C315 C314 1.391 . S
C315 C317 1.387 . S
C316 C313 1.398 . S
C316 C317 1.380 . S
C316 H330 0.930 . S
C317 C315 1.387 . S
C317 C316 1.380 . S
C317 H331 0.930 . S
C318 O298 1.254 . S
C318 O299 1.268 1_554 S
C319 O303 1.284 . S
C319 O306 1.250 . S
C320 Gd253 2.828 . S
C320 O302 1.258 . S
C320 O307 1.252 . S
C320 C321 1.497 . S
C321 C320 1.497 . S
C321 C322 1.395 . S
C321 C323 1.380 . S
C322 C321 1.395 . S
C322 C325 1.398 . S
C322 H332 0.930 . S
C323 C321 1.380 . S
C323 C324 1.391 . S
C323 H333 0.930 . S
C324 C323 1.391 . S
C324 C326 1.387 . S
C325 C322 1.398 . S
C325 C326 1.380 . S
C325 H334 0.930 . S
C326 C324 1.387 . S
C326 C325 1.380 . S
C326 H335 0.930 . S
C327 O304 1.254 . S
C327 O305 1.268 . S
H328 C313 0.930 . S
H329 C314 0.930 . S
H330 C316 0.930 . S
H331 C317 0.930 . S
H332 C322 0.930 . S
H333 C323 0.930 . S
H334 C325 0.930 . S
H335 C326 0.930 . S
Gd336 N367 2.661 . S
Gd336 N373 2.601 . S
Gd336 O380 2.545 . S
Gd336 O381 2.606 . S
Gd336 O383 2.429 . S
Gd336 O384 2.545 . S
Gd336 O385 2.412 . S
Gd336 O387 2.362 . S
Gd336 O388 2.324 . S
Gd336 C395 2.828 . S
Gd337 N346 2.661 . S
Gd337 N350 2.601 . S
Gd337 O381 2.362 . S
Gd337 O382 2.324 . S
Gd337 O386 2.545 . S
Gd337 O387 2.606 . S
Gd337 O389 2.429 . S
Gd337 O390 2.545 . S
Gd337 O391 2.412 . S
Gd337 C404 2.828 . S
C338 C341 1.417 . S
C338 C343 1.431 . S
C338 C344 1.412 . S
C339 C342 1.437 . S
C339 C343 1.317 . S
C339 H358 0.929 . S
C340 C341 1.426 . S
C340 C342 1.413 . S
C340 N350 1.359 . S
C341 C338 1.417 . S
C341 C340 1.426 . S
C341 N346 1.350 . S
C342 C339 1.437 . S
C342 C340 1.413 . S
C342 C352 1.391 . S
C343 C338 1.431 . S
C343 C339 1.317 . S
C343 H354 0.930 . S
C344 C338 1.412 . S
C344 C345 1.355 . S
C344 H356 0.930 . S
C345 C344 1.355 . S
C345 C347 1.402 . S
C345 H357 0.930 . S
N346 Gd337 2.661 . S
N346 C341 1.350 . S
N346 C347 1.307 . S
C347 C345 1.402 . S
C347 N346 1.307 . S
C347 H348 0.930 . S
H348 C347 0.930 . S
C349 N350 1.334 . S
C349 C351 1.394 . S
C349 H353 0.930 . S
N350 Gd337 2.601 . S
N350 C340 1.359 . S
N350 C349 1.334 . S
C351 C349 1.394 . S
C351 C352 1.359 . S
C351 H363 0.930 . S
C352 C342 1.391 . S
C352 C351 1.359 . S
C352 H364 0.929 . S
H353 C349 0.930 . S
H354 C343 0.930 . S
H355 C372 0.930 . S
H356 C344 0.930 . S
H357 C345 0.930 . S
H358 C339 0.929 . S
H359 C377 0.930 . S
H360 C368 0.930 . S
H361 C369 0.930 1_655 S
H362 C393 0.929 . S
H363 C351 0.930 . S
H364 C352 0.929 . S
H365 C394 0.930 . S
H366 C375 0.930 . S
N367 Gd336 2.661 . S
N367 C371 1.350 . S
N367 C372 1.307 . S
C368 H360 0.930 . S
C368 C369 1.355 . S
C368 C370 1.412 . S
C369 H361 0.930 1_455 S
C369 C368 1.355 . S
C369 C372 1.402 . S
C370 C368 1.412 . S
C370 C371 1.417 . S
C370 C394 1.431 . S
C371 N367 1.350 . S
C371 C370 1.417 . S
C371 C374 1.426 . S
C372 H355 0.930 . S
C372 N367 1.307 . S
C372 C369 1.402 . S
N373 Gd336 2.601 . S
N373 C374 1.359 . S
N373 C377 1.334 . S
C374 C371 1.426 . S
C374 N373 1.359 . S
C374 C378 1.413 1_565 S
C375 H366 0.930 . S
C375 C376 1.359 . S
C375 C377 1.394 1_545 S
C376 C375 1.359 . S
C376 C378 1.391 . S
C376 H379 0.929 . S
C377 H359 0.930 . S
C377 N373 1.334 . S
C377 C375 1.394 1_565 S
C378 C374 1.413 1_545 S
C378 C376 1.391 . S
C378 C393 1.437 . S
H379 C376 0.929 . S
O380 Gd336 2.545 . S
O380 C395 1.258 . S
O381 Gd336 2.606 . S
O381 Gd337 2.362 . S
O381 C392 1.284 . S
O382 Gd337 2.324 . S
O382 C402 1.254 . S
O383 Gd336 2.429 . S
O383 C402 1.268 . S
O384 Gd336 2.545 . S
O384 C392 1.250 . S
O385 Gd336 2.412 . S
O385 C395 1.252 . S
O386 Gd337 2.545 . S
O386 C404 1.258 . S
O387 Gd336 2.362 . S
O387 Gd337 2.606 . S
O387 C403 1.284 . S
O388 Gd336 2.324 . S
O388 C411 1.254 . S
O389 Gd337 2.429 . S
O389 C411 1.268 . S
O390 Gd337 2.545 . S
O390 C403 1.250 . S
O391 Gd337 2.412 . S
O391 C404 1.252 . S
C392 O381 1.284 . S
C392 O384 1.250 . S
C393 H362 0.929 . S
C393 C378 1.437 . S
C393 C394 1.317 1_545 S
C394 H365 0.930 . S
C394 C370 1.431 . S
C394 C393 1.317 1_565 S
C395 Gd336 2.828 . S
C395 O380 1.258 . S
C395 O385 1.252 . S
C395 C396 1.497 . S
C396 C395 1.497 . S
C396 C397 1.395 . S
C396 C398 1.380 . S
C397 C396 1.395 . S
C397 C400 1.398 . S
C397 H412 0.930 . S
C398 C396 1.380 . S
C398 C399 1.391 . S
C398 H413 0.930 . S
C399 C398 1.391 . S
C399 C401 1.387 . S
C400 C397 1.398 . S
C400 C401 1.380 . S
C400 H414 0.930 . S
C401 C399 1.387 . S
C401 C400 1.380 . S
C401 H415 0.930 . S
C402 O382 1.254 . S
C402 O383 1.268 . S
C403 O387 1.284 . S
C403 O390 1.250 . S
C404 Gd337 2.828 . S
C404 O386 1.258 . S
C404 O391 1.252 . S
C404 C405 1.497 . S
C405 C404 1.497 . S
C405 C406 1.395 . S
C405 C407 1.380 . S
C406 C405 1.395 . S
C406 C409 1.398 . S
C406 H416 0.930 . S
C407 C405 1.380 . S
C407 C408 1.391 . S
C407 H417 0.930 . S
C408 C407 1.391 . S
C408 C410 1.387 . S
C409 C406 1.398 . S
C409 C410 1.380 . S
C409 H418 0.930 . S
C410 C408 1.387 . S
C410 C409 1.380 . S
C410 H419 0.930 . S
C411 O388 1.254 . S
C411 O389 1.268 . S
H412 C397 0.930 . S
H413 C398 0.930 . S
H414 C400 0.930 . S
H415 C401 0.930 . S
H416 C406 0.930 . S
H417 C407 0.930 . S
H418 C409 0.930 . S
H419 C410 0.930 . S
Gd420 N451 2.661 . S
Gd420 N457 2.601 . S
Gd420 O464 2.545 . S
Gd420 O465 2.606 . S
Gd420 O467 2.429 . S
Gd420 O468 2.545 . S
Gd420 O469 2.412 . S
Gd420 O471 2.362 . S
Gd420 O472 2.324 . S
Gd420 C479 2.828 . S
Gd421 N430 2.661 . S
Gd421 N434 2.601 . S
Gd421 O465 2.362 . S
Gd421 O466 2.324 . S
Gd421 O470 2.545 . S
Gd421 O471 2.606 . S
Gd421 O473 2.429 . S
Gd421 O474 2.545 . S
Gd421 O475 2.412 . S
Gd421 C488 2.828 . S
C422 C425 1.417 . S
C422 C427 1.431 . S
C422 C428 1.412 . S
C423 C426 1.437 . S
C423 C427 1.317 . S
C423 H442 0.929 . S
C424 C425 1.426 . S
C424 C426 1.413 . S
C424 N434 1.359 . S
C425 C422 1.417 . S
C425 C424 1.426 . S
C425 N430 1.350 . S
C426 C423 1.437 . S
C426 C424 1.413 . S
C426 C436 1.391 . S
C427 C422 1.431 . S
C427 C423 1.317 . S
C427 H438 0.930 . S
C428 C422 1.412 . S
C428 C429 1.355 . S
C428 H440 0.930 . S
C429 C428 1.355 . S
C429 C431 1.402 . S
C429 H441 0.930 . S
N430 Gd421 2.661 . S
N430 C425 1.350 . S
N430 C431 1.307 . S
C431 C429 1.402 . S
C431 N430 1.307 . S
C431 H432 0.930 . S
H432 C431 0.930 . S
C433 N434 1.334 . S
C433 C435 1.394 . S
C433 H437 0.930 . S
N434 Gd421 2.601 . S
N434 C424 1.359 . S
N434 C433 1.334 . S
C435 C433 1.394 . S
C435 C436 1.359 . S
C435 H447 0.930 . S
C436 C426 1.391 . S
C436 C435 1.359 . S
C436 H448 0.929 . S
H437 C433 0.930 . S
H438 C427 0.930 . S
H439 C456 0.930 . S
H440 C428 0.930 . S
H441 C429 0.930 . S
H442 C423 0.929 . S
H443 C461 0.930 . S
H444 C452 0.930 . S
H445 C453 0.930 1_565 S
H446 C477 0.929 . S
H447 C435 0.930 . S
H448 C436 0.929 . S
H449 C478 0.930 . S
H450 C459 0.930 . S
N451 Gd420 2.661 . S
N451 C455 1.350 . S
N451 C456 1.307 . S
C452 H444 0.930 . S
C452 C453 1.355 . S
C452 C454 1.412 . S
C453 H445 0.930 1_545 S
C453 C452 1.355 . S
C453 C456 1.402 . S
C454 C452 1.412 . S
C454 C455 1.417 . S
C454 C478 1.431 . S
C455 N451 1.350 . S
C455 C454 1.417 . S
C455 C458 1.426 . S
C456 H439 0.930 . S
C456 N451 1.307 . S
C456 C453 1.402 . S
N457 Gd420 2.601 . S
N457 C458 1.359 . S
N457 C461 1.334 . S
C458 C455 1.426 . S
C458 N457 1.359 . S
C458 C462 1.413 . S
C459 H450 0.930 . S
C459 C460 1.359 . S
C459 C461 1.394 . S
C460 C459 1.359 . S
C460 C462 1.391 . S
C460 H463 0.929 . S
C461 H443 0.930 . S
C461 N457 1.334 . S
C461 C459 1.394 . S
C462 C458 1.413 . S
C462 C460 1.391 . S
C462 C477 1.437 . S
H463 C460 0.929 . S
O464 Gd420 2.545 . S
O464 C479 1.258 . S
O465 Gd420 2.606 . S
O465 Gd421 2.362 . S
O465 C476 1.284 . S
O466 Gd421 2.324 . S
O466 C486 1.254 . S
O467 Gd420 2.429 . S
O467 C486 1.268 . S
O468 Gd420 2.545 . S
O468 C476 1.250 . S
O469 Gd420 2.412 . S
O469 C479 1.252 . S
O470 Gd421 2.545 . S
O470 C488 1.258 . S
O471 Gd420 2.362 . S
O471 Gd421 2.606 . S
O471 C487 1.284 . S
O472 Gd420 2.324 . S
O472 C495 1.254 . S
O473 Gd421 2.429 . S
O473 C495 1.268 . S
O474 Gd421 2.545 . S
O474 C487 1.250 . S
O475 Gd421 2.412 . S
O475 C488 1.252 . S
C476 O465 1.284 . S
C476 O468 1.250 . S
C477 H446 0.929 . S
C477 C462 1.437 . S
C477 C478 1.317 . S
C478 H449 0.930 . S
C478 C454 1.431 . S
C478 C477 1.317 . S
C479 Gd420 2.828 . S
C479 O464 1.258 . S
C479 O469 1.252 . S
C479 C480 1.497 . S
C480 C479 1.497 . S
C480 C481 1.395 . S
C480 C482 1.380 . S
C481 C480 1.395 . S
C481 C484 1.398 . S
C481 H496 0.930 . S
C482 C480 1.380 . S
C482 C483 1.391 . S
C482 H497 0.930 . S
C483 C482 1.391 . S
C483 C485 1.387 . S
C484 C481 1.398 . S
C484 C485 1.380 . S
C484 H498 0.930 . S
C485 C483 1.387 . S
C485 C484 1.380 . S
C485 H499 0.930 . S
C486 O466 1.254 . S
C486 O467 1.268 . S
C487 O471 1.284 . S
C487 O474 1.250 . S
C488 Gd421 2.828 . S
C488 O470 1.258 . S
C488 O475 1.252 . S
C488 C489 1.497 . S
C489 C488 1.497 . S
C489 C490 1.395 . S
C489 C491 1.380 . S
C490 C489 1.395 . S
C490 C493 1.398 . S
C490 H500 0.930 . S
C491 C489 1.380 . S
C491 C492 1.391 . S
C491 H501 0.930 . S
C492 C491 1.391 . S
C492 C494 1.387 . S
C493 C490 1.398 . S
C493 C494 1.380 . S
C493 H502 0.930 . S
C494 C492 1.387 . S
C494 C493 1.380 . S
C494 H503 0.930 . S
C495 O472 1.254 . S
C495 O473 1.268 . S
H496 C481 0.930 . S
H497 C482 0.930 . S
H498 C484 0.930 . S
H499 C485 0.930 . S
H500 C490 0.930 . S
H501 C491 0.930 . S
H502 C493 0.930 . S
H503 C494 0.930 . S
H504 C510 0.930 . S
H505 C513 0.930 . S
H506 C514 0.930 . S
H507 C515 0.930 . S
H508 C518 0.930 . S
H509 C519 0.930 . S
C510 H504 0.930 . S
C510 C511 1.355 . S
C510 C512 1.415 . S
C511 C510 1.355 . S
C511 C513 1.419 . S
C512 C510 1.415 . S
C512 C517 1.425 . S
C512 C519 1.409 . S
C513 H505 0.930 . S
C513 C511 1.419 . S
C513 C514 1.362 . S
C514 H506 0.930 . S
C514 C513 1.362 . S
C514 C517 1.409 . S
C515 H507 0.930 . S
C515 C516 1.355 . S
C515 C517 1.415 . S
C516 C515 1.355 . S
C516 C518 1.419 . S
C517 C512 1.425 . S
C517 C514 1.409 . S
C517 C515 1.415 . S
C518 H508 0.930 . S
C518 C516 1.419 . S
C518 C519 1.362 . S
C519 H509 0.930 . S
C519 C512 1.409 . S
C519 C518 1.362 . S
H520 C526 0.930 . S
H521 C529 0.930 . S
H522 C530 0.930 . S
H523 C531 0.930 . S
H524 C534 0.930 . S
H525 C535 0.930 . S
C526 H520 0.930 . S
C526 C527 1.355 . S
C526 C528 1.415 . S
C527 C526 1.355 . S
C527 C529 1.419 . S
C528 C526 1.415 . S
C528 C533 1.425 . S
C528 C535 1.409 . S
C529 H521 0.930 . S
C529 C527 1.419 . S
C529 C530 1.362 . S
C530 H522 0.930 . S
C530 C529 1.362 . S
C530 C533 1.409 . S
C531 H523 0.930 . S
C531 C532 1.355 . S
C531 C533 1.415 . S
C532 C531 1.355 . S
C532 C534 1.419 . S
C533 C528 1.425 . S
C533 C530 1.409 . S
C533 C531 1.415 . S
C534 H524 0.930 . S
C534 C532 1.419 . S
C534 C535 1.362 . S
C535 H525 0.930 . S
C535 C528 1.409 . S
C535 C534 1.362 . S
H536 C542 0.930 . S
H537 C545 0.930 . S
H538 C546 0.930 . S
H539 C547 0.930 . S
H540 C550 0.930 . S
H541 C551 0.930 . S
C542 H536 0.930 . S
C542 C543 1.355 . S
C542 C544 1.415 . S
C543 C542 1.355 . S
C543 C545 1.419 . S
C544 C542 1.415 . S
C544 C549 1.425 . S
C544 C551 1.409 . S
C545 H537 0.930 . S
C545 C543 1.419 . S
C545 C546 1.362 . S
C546 H538 0.930 . S
C546 C545 1.362 . S
C546 C549 1.409 . S
C547 H539 0.930 . S
C547 C548 1.355 . S
C547 C549 1.415 . S
C548 C547 1.355 . S
C548 C550 1.419 . S
C549 C544 1.425 . S
C549 C546 1.409 . S
C549 C547 1.415 . S
C550 H540 0.930 . S
C550 C548 1.419 . S
C550 C551 1.362 . S
C551 H541 0.930 . S
C551 C544 1.409 . S
C551 C550 1.362 . S
H552 C558 0.930 . S
H553 C561 0.930 . S
H554 C562 0.930 . S
H555 C563 0.930 . S
H556 C566 0.930 . S
H557 C567 0.930 . S
C558 H552 0.930 . S
C558 C559 1.355 . S
C558 C560 1.415 . S
C559 C558 1.355 . S
C559 C561 1.419 . S
C560 C558 1.415 . S
C560 C565 1.425 . S
C560 C567 1.409 . S
C561 H553 0.930 . S
C561 C559 1.419 . S
C561 C562 1.362 . S
C562 H554 0.930 . S
C562 C561 1.362 . S
C562 C565 1.409 . S
C563 H555 0.930 . S
C563 C564 1.355 . S
C563 C565 1.415 . S
C564 C563 1.355 . S
C564 C566 1.419 . S
C565 C560 1.425 . S
C565 C562 1.409 . S
C565 C563 1.415 . S
C566 H556 0.930 . S
C566 C564 1.419 . S
C566 C567 1.362 . S
C567 H557 0.930 . S
C567 C560 1.409 . S
C567 C566 1.362 . S
H568 C574 0.930 . S
H569 C577 0.930 . S
H570 C578 0.930 . S
H571 C579 0.930 . S
H572 C582 0.930 . S
H573 C583 0.930 . S
C574 H568 0.930 . S
C574 C575 1.355 . S
C574 C576 1.415 . S
C575 C574 1.355 . S
C575 C577 1.419 . S
C576 C574 1.415 . S
C576 C581 1.425 . S
C576 C583 1.409 . S
C577 H569 0.930 . S
C577 C575 1.419 . S
C577 C578 1.362 . S
C578 H570 0.930 . S
C578 C577 1.362 . S
C578 C581 1.409 . S
C579 H571 0.930 . S
C579 C580 1.355 . S
C579 C581 1.415 . S
C580 C579 1.355 . S
C580 C582 1.419 . S
C581 C576 1.425 . S
C581 C578 1.409 . S
C581 C579 1.415 . S
C582 H572 0.930 . S
C582 C580 1.419 . S
C582 C583 1.362 . S
C583 H573 0.930 . S
C583 C576 1.409 . S
C583 C582 1.362 . S
H584 C590 0.930 . S
H585 C593 0.930 . S
H586 C594 0.930 . S
H587 C595 0.930 . S
H588 C598 0.930 . S
H589 C599 0.930 . S
C590 H584 0.930 . S
C590 C591 1.355 . S
C590 C592 1.415 . S
C591 C590 1.355 . S
C591 C593 1.419 . S
C592 C590 1.415 . S
C592 C597 1.425 . S
C592 C599 1.409 . S
C593 H585 0.930 . S
C593 C591 1.419 . S
C593 C594 1.362 . S
C594 H586 0.930 . S
C594 C593 1.362 . S
C594 C597 1.409 . S
C595 H587 0.930 . S
C595 C596 1.355 . S
C595 C597 1.415 . S
C596 C595 1.355 . S
C596 C598 1.419 . S
C597 C592 1.425 . S
C597 C594 1.409 . S
C597 C595 1.415 . S
C598 H588 0.930 . S
C598 C596 1.419 . S
C598 C599 1.362 . S
C599 H589 0.930 . S
C599 C592 1.409 . S
C599 C598 1.362 . S
H600 C606 0.930 . S
H601 C609 0.930 . S
H602 C610 0.930 . S
H603 C611 0.930 1_556 S
H604 C614 0.930 . S
H605 C615 0.930 . S
C606 H600 0.930 . S
C606 C607 1.355 . S
C606 C608 1.415 . S
C607 C606 1.355 . S
C607 C609 1.419 1_554 S
C608 C606 1.415 . S
C608 C613 1.425 . S
C608 C615 1.409 . S
C609 H601 0.930 . S
C609 C607 1.419 1_556 S
C609 C610 1.362 . S
C610 H602 0.930 . S
C610 C609 1.362 . S
C610 C613 1.409 1_556 S
C611 H603 0.930 1_554 S
C611 C612 1.355 . S
C611 C613 1.415 . S
C612 C611 1.355 . S
C612 C614 1.419 . S
C613 C608 1.425 . S
C613 C610 1.409 1_554 S
C613 C611 1.415 . S
C614 H604 0.930 . S
C614 C612 1.419 . S
C614 C615 1.362 . S
C615 H605 0.930 . S
C615 C608 1.409 . S
C615 C614 1.362 . S
H616 C622 0.930 1_655 S
H617 C625 0.930 . S
H618 C626 0.930 . S
H619 C627 0.930 1_455 S
H620 C630 0.930 . S
H621 C631 0.930 . S
C622 H616 0.930 1_455 S
C622 C623 1.355 . S
C622 C624 1.415 1_455 S
C623 C622 1.355 . S
C623 C625 1.419 . S
C624 C622 1.415 1_655 S
C624 C629 1.425 1_655 S
C624 C631 1.409 . S
C625 H617 0.930 . S
C625 C623 1.419 . S
C625 C626 1.362 . S
C626 H618 0.930 . S
C626 C625 1.362 . S
C626 C629 1.409 . S
C627 H619 0.930 1_655 S
C627 C628 1.355 . S
C627 C629 1.415 1_655 S
C628 C627 1.355 . S
C628 C630 1.419 . S
C629 C624 1.425 1_455 S
C629 C626 1.409 . S
C629 C627 1.415 1_455 S
C630 H620 0.930 . S
C630 C628 1.419 . S
C630 C631 1.362 . S
C631 H621 0.930 . S
C631 C624 1.409 . S
C631 C630 1.362 . S
H632 C638 0.930 . S
H633 C641 0.930 . S
H634 C642 0.930 . S
H635 C643 0.930 . S
H636 C646 0.930 . S
H637 C647 0.930 . S
C638 H632 0.930 . S
C638 C639 1.355 . S
C638 C640 1.415 . S
C639 C638 1.355 . S
C639 C641 1.419 1_545 S
C640 C638 1.415 . S
C640 C645 1.425 1_545 S
C640 C647 1.409 . S
C641 H633 0.930 . S
C641 C639 1.419 1_565 S
C641 C642 1.362 . S
C642 H634 0.930 . S
C642 C641 1.362 . S
C642 C645 1.409 . S
C643 H635 0.930 . S
C643 C644 1.355 . S
C643 C645 1.415 . S
C644 C643 1.355 . S
C644 C646 1.419 1_565 S
C645 C640 1.425 1_565 S
C645 C642 1.409 . S
C645 C643 1.415 . S
C646 H636 0.930 . S
C646 C644 1.419 1_545 S
C646 C647 1.362 . S
C647 H637 0.930 . S
C647 C640 1.409 . S
C647 C646 1.362 . S
H648 C654 0.930 . S
H649 C657 0.930 . S
H650 C658 0.930 . S
H651 C659 0.930 . S
H652 C662 0.930 . S
H653 C663 0.930 . S
C654 H648 0.930 . S
C654 C655 1.355 . S
C654 C656 1.415 . S
C655 C654 1.355 . S
C655 C657 1.419 . S
C656 C654 1.415 . S
C656 C661 1.425 . S
C656 C663 1.409 . S
C657 H649 0.930 . S
C657 C655 1.419 . S
C657 C658 1.362 . S
C658 H650 0.930 . S
C658 C657 1.362 . S
C658 C661 1.409 . S
C659 H651 0.930 . S
C659 C660 1.355 . S
C659 C661 1.415 . S
C660 C659 1.355 . S
C660 C662 1.419 . S
C661 C656 1.425 . S
C661 C658 1.409 . S
C661 C659 1.415 . S
C662 H652 0.930 . S
C662 C660 1.419 . S
C662 C663 1.362 . S
C663 H653 0.930 . S
C663 C656 1.409 . S
C663 C662 1.362 . S
H664 C670 0.930 . S
H665 C673 0.930 . S
H666 C674 0.930 . S
H667 C675 0.930 . S
H668 C678 0.930 . S
H669 C679 0.930 . S
C670 H664 0.930 . S
C670 C671 1.355 1_556 S
C670 C672 1.415 1_556 S
C671 C670 1.355 1_554 S
C671 C673 1.419 . S
C672 C670 1.415 1_554 S
C672 C677 1.425 1_455 S
C672 C679 1.409 1_554 S
C673 H665 0.930 . S
C673 C671 1.419 . S
C673 C674 1.362 1_455 S
C674 H666 0.930 . S
C674 C673 1.362 1_655 S
C674 C677 1.409 . S
C675 H667 0.930 . S
C675 C676 1.355 . S
C675 C677 1.415 . S
C676 C675 1.355 . S
C676 C678 1.419 1_554 S
C677 C672 1.425 1_655 S
C677 C674 1.409 . S
C677 C675 1.415 . S
C678 H668 0.930 . S
C678 C676 1.419 1_556 S
C678 C679 1.362 1_655 S
C679 H669 0.930 . S
C679 C672 1.409 1_556 S
C679 C678 1.362 1_455 S
H680 C686 0.930 . S
H681 C689 0.930 . S
H682 C690 0.930 . S
H683 C691 0.930 . S
H684 C694 0.930 . S
H685 C695 0.930 . S
C686 H680 0.930 . S
C686 C687 1.355 . S
C686 C688 1.415 1_565 S
C687 C686 1.355 . S
C687 C689 1.419 . S
C688 C686 1.415 1_545 S
C688 C693 1.425 1_545 S
C688 C695 1.409 . S
C689 H681 0.930 . S
C689 C687 1.419 . S
C689 C690 1.362 . S
C690 H682 0.930 . S
C690 C689 1.362 . S
C690 C693 1.409 . S
C691 H683 0.930 . S
C691 C692 1.355 . S
C691 C693 1.415 1_545 S
C692 C691 1.355 . S
C692 C694 1.419 . S
C693 C688 1.425 1_565 S
C693 C690 1.409 . S
C693 C691 1.415 1_565 S
C694 H684 0.930 . S
C694 C692 1.419 . S
C694 C695 1.362 . S
C695 H685 0.930 . S
C695 C688 1.409 . S
C695 C694 1.362 . S
H696 C702 0.930 . S
H697 C705 0.930 . S
H698 C706 0.930 . S
H699 C707 0.930 . S
H700 C710 0.930 . S
H701 C711 0.930 . S
C702 H696 0.930 . S
C702 C703 1.355 . S
C702 C704 1.415 . S
C703 C702 1.355 . S
C703 C705 1.419 . S
C704 C702 1.415 . S
C704 C709 1.425 . S
C704 C711 1.409 . S
C705 H697 0.930 . S
C705 C703 1.419 . S
C705 C706 1.362 . S
C706 H698 0.930 . S
C706 C705 1.362 . S
C706 C709 1.409 . S
C707 H699 0.930 . S
C707 C708 1.355 . S
C707 C709 1.415 . S
C708 C707 1.355 . S
C708 C710 1.419 . S
C709 C704 1.425 . S
C709 C706 1.409 . S
C709 C707 1.415 . S
C710 H700 0.930 . S
C710 C708 1.419 . S
C710 C711 1.362 . S
C711 H701 0.930 . S
C711 C704 1.409 . S
C711 C710 1.362 . S
H712 C718 0.930 1_655 S
H713 C721 0.930 . S
H714 C722 0.930 . S
H715 C723 0.930 . S
H716 C726 0.930 . S
H717 C727 0.930 1_655 S
C718 H712 0.930 1_455 S
C718 C719 1.355 . S
C718 C720 1.415 . S
C719 C718 1.355 . S
C719 C721 1.419 . S
C720 C718 1.415 . S
C720 C725 1.425 . S
C720 C727 1.409 . S
C721 H713 0.930 . S
C721 C719 1.419 . S
C721 C722 1.362 . S
C722 H714 0.930 . S
C722 C721 1.362 . S
C722 C725 1.409 . S
C723 H715 0.930 . S
C723 C724 1.355 . S
C723 C725 1.415 . S
C724 C723 1.355 . S
C724 C726 1.419 . S
C725 C720 1.425 . S
C725 C722 1.409 . S
C725 C723 1.415 . S
C726 H716 0.930 . S
C726 C724 1.419 . S
C726 C727 1.362 . S
C727 H717 0.930 1_455 S
C727 C720 1.409 . S
C727 C726 1.362 . S
H728 C734 0.930 . S
H729 C737 0.930 . S
H730 C738 0.930 1_565 S
H731 C739 0.930 . S
H732 C742 0.930 . S
H733 C743 0.930 . S
C734 H728 0.930 . S
C734 C735 1.355 . S
C734 C736 1.415 . S
C735 C734 1.355 . S
C735 C737 1.419 1_545 S
C736 C734 1.415 . S
C736 C741 1.425 . S
C736 C743 1.409 . S
C737 H729 0.930 . S
C737 C735 1.419 1_565 S
C737 C738 1.362 1_565 S
C738 H730 0.930 1_545 S
C738 C737 1.362 1_545 S
C738 C741 1.409 . S
C739 H731 0.930 . S
C739 C740 1.355 . S
C739 C741 1.415 . S
C740 C739 1.355 . S
C740 C742 1.419 . S
C741 C736 1.425 . S
C741 C738 1.409 . S
C741 C739 1.415 . S
C742 H732 0.930 . S
C742 C740 1.419 . S
C742 C743 1.362 . S
C743 H733 0.930 . S
C743 C736 1.409 . S
C743 C742 1.362 . S
H744 C750 0.930 . S
H745 C753 0.930 . S
H746 C754 0.930 . S
H747 C755 0.930 . S
H748 C758 0.930 . S
H749 C759 0.930 . S
C750 H744 0.930 . S
C750 C751 1.355 . S
C750 C752 1.415 . S
C751 C750 1.355 . S
C751 C753 1.419 . S
C752 C750 1.415 . S
C752 C757 1.425 . S
C752 C759 1.409 . S
C753 H745 0.930 . S
C753 C751 1.419 . S
C753 C754 1.362 . S
C754 H746 0.930 . S
C754 C753 1.362 . S
C754 C757 1.409 . S
C755 H747 0.930 . S
C755 C756 1.355 . S
C755 C757 1.415 . S
C756 C755 1.355 . S
C756 C758 1.419 . S
C757 C752 1.425 . S
C757 C754 1.409 . S
C757 C755 1.415 . S
C758 H748 0.930 . S
C758 C756 1.419 . S
C758 C759 1.362 . S
C759 H749 0.930 . S
C759 C752 1.409 . S
C759 C758 1.362 . S
H760 C766 0.930 . S
H761 C769 0.930 1_455 S
H762 C770 0.930 . S
H763 C771 0.930 . S
H764 C774 0.930 . S
H765 C775 0.930 . S
C766 H760 0.930 . S
C766 C767 1.355 . S
C766 C768 1.415 . S
C767 C766 1.355 . S
C767 C769 1.419 . S
C768 C766 1.415 . S
C768 C773 1.425 . S
C768 C775 1.409 . S
C769 H761 0.930 1_655 S
C769 C767 1.419 . S
C769 C770 1.362 . S
C770 H762 0.930 . S
C770 C769 1.362 . S
C770 C773 1.409 . S
C771 H763 0.930 . S
C771 C772 1.355 . S
C771 C773 1.415 . S
C772 C771 1.355 . S
C772 C774 1.419 . S
C773 C768 1.425 . S
C773 C770 1.409 . S
C773 C771 1.415 . S
C774 H764 0.930 . S
C774 C772 1.419 . S
C774 C775 1.362 . S
C775 H765 0.930 . S
C775 C768 1.409 . S
C775 C774 1.362 . S
H776 C782 0.930 . S
H777 C785 0.930 . S
H778 C786 0.930 . S
H779 C787 0.930 . S
H780 C790 0.930 . S
H781 C791 0.930 . S
C782 H776 0.930 . S
C782 C783 1.355 . S
C782 C784 1.415 . S
C783 C782 1.355 . S
C783 C785 1.419 . S
C784 C782 1.415 . S
C784 C789 1.425 . S
C784 C791 1.409 . S
C785 H777 0.930 . S
C785 C783 1.419 . S
C785 C786 1.362 . S
C786 H778 0.930 . S
C786 C785 1.362 . S
C786 C789 1.409 . S
C787 H779 0.930 . S
C787 C788 1.355 . S
C787 C789 1.415 . S
C788 C787 1.355 . S
C788 C790 1.419 . S
C789 C784 1.425 . S
C789 C786 1.409 . S
C789 C787 1.415 . S
C790 H780 0.930 . S
C790 C788 1.419 . S
C790 C791 1.362 . S
C791 H781 0.930 . S
C791 C784 1.409 . S
C791 C790 1.362 . S
C511 C392 1.104 . S
C516 C72 1.041 . S
C527 C476 1.116 . S
C532 C156 0.942 . S
C543 C56 1.109 . S
C548 C240 0.948 . S
C559 C140 1.155 . S
C564 C324 0.943 . S
C575 C224 1.192 . S
C580 C408 0.981 . S
C591 C308 1.112 . S
C596 C492 1.058 . S
C607 C75 1.882 . S
C612 C327 1.872 . S
C623 C411 1.875 . S
C628 C159 1.875 . S
C639 C495 1.910 . S
C644 C243 1.925 . S
C655 C234 1.887 . S
C660 C486 1.887 . S
C671 C66 1.885 . S
C676 C318 1.848 . S
C687 C402 1.850 . S
C692 C150 1.825 . S
C703 C487 1.187 . S
C708 C63 1.175 . S
C719 C147 1.229 1_455 S
C724 C67 1.240 . S
C735 C231 1.249 1_545 S
C740 C151 1.254 . S
C751 C235 1.207 . S
C756 C315 1.196 . S
C767 C399 1.172 1_655 S
C772 C319 1.183 . S
C783 C483 1.289 1_565 S
C788 C403 1.294 . S
