# Generated by pormake.
# Topology lta, (4)-cn, num edge types: 1
# Building blocks:
#     Node 0, Type 0, BuildingBlock: ICAMEG_clean_sbu_1, # of connection points: 4
#     Node 1, Type 0, BuildingBlock: ICAMEG_clean_sbu_1, # of connection points: 4
#     Node 2, Type 0, BuildingBlock: ICAMEG_clean_sbu_1, # of connection points: 4
#     Node 3, Type 0, BuildingBlock: ICAMEG_clean_sbu_1, # of connection points: 4
#     Node 4, Type 0, BuildingBlock: ICAMEG_clean_sbu_1, # of connection points: 4
#     Node 5, Type 0, BuildingBlock: ICAMEG_clean_sbu_1, # of connection points: 4
#     Node 6, Type 0, BuildingBlock: ICAMEG_clean_sbu_1, # of connection points: 4
#     Node 7, Type 0, BuildingBlock: ICAMEG_clean_sbu_1, # of connection points: 4
#     Node 8, Type 0, BuildingBlock: ICAMEG_clean_sbu_1, # of connection points: 4
#     Node 9, Type 0, BuildingBlock: ICAMEG_clean_sbu_1, # of connection points: 4
#     Node 10, Type 0, BuildingBlock: ICAMEG_clean_sbu_1, # of connection points: 4
#     Node 11, Type 0, BuildingBlock: ICAMEG_clean_sbu_1, # of connection points: 4
#     Node 12, Type 0, BuildingBlock: ICAMEG_clean_sbu_1, # of connection points: 4
#     Node 13, Type 0, BuildingBlock: ICAMEG_clean_sbu_1, # of connection points: 4
#     Node 14, Type 0, BuildingBlock: ICAMEG_clean_sbu_1, # of connection points: 4
#     Node 15, Type 0, BuildingBlock: ICAMEG_clean_sbu_1, # of connection points: 4
#     Node 16, Type 0, BuildingBlock: ICAMEG_clean_sbu_1, # of connection points: 4
#     Node 17, Type 0, BuildingBlock: ICAMEG_clean_sbu_1, # of connection points: 4
#     Node 18, Type 0, BuildingBlock: ICAMEG_clean_sbu_1, # of connection points: 4
#     Node 19, Type 0, BuildingBlock: ICAMEG_clean_sbu_1, # of connection points: 4
#     Node 20, Type 0, BuildingBlock: ICAMEG_clean_sbu_1, # of connection points: 4
#     Node 21, Type 0, BuildingBlock: ICAMEG_clean_sbu_1, # of connection points: 4
#     Node 22, Type 0, BuildingBlock: ICAMEG_clean_sbu_1, # of connection points: 4
#     Node 23, Type 0, BuildingBlock: ICAMEG_clean_sbu_1, # of connection points: 4
#     Edge 24, Type (0, 0), BuildingBlock: UVAHIK_clean_linker_0, # of connection points: 2
#     Edge 25, Type (0, 0), BuildingBlock: UVAHIK_clean_linker_0, # of connection points: 2
#     Edge 26, Type (0, 0), BuildingBlock: UVAHIK_clean_linker_0, # of connection points: 2
#     Edge 27, Type (0, 0), BuildingBlock: UVAHIK_clean_linker_0, # of connection points: 2
#     Edge 28, Type (0, 0), BuildingBlock: UVAHIK_clean_linker_0, # of connection points: 2
#     Edge 29, Type (0, 0), BuildingBlock: UVAHIK_clean_linker_0, # of connection points: 2
#     Edge 30, Type (0, 0), BuildingBlock: UVAHIK_clean_linker_0, # of connection points: 2
#     Edge 31, Type (0, 0), BuildingBlock: UVAHIK_clean_linker_0, # of connection points: 2
#     Edge 32, Type (0, 0), BuildingBlock: UVAHIK_clean_linker_0, # of connection points: 2
#     Edge 33, Type (0, 0), BuildingBlock: UVAHIK_clean_linker_0, # of connection points: 2
#     Edge 34, Type (0, 0), BuildingBlock: UVAHIK_clean_linker_0, # of connection points: 2
#     Edge 35, Type (0, 0), BuildingBlock: UVAHIK_clean_linker_0, # of connection points: 2
#     Edge 36, Type (0, 0), BuildingBlock: UVAHIK_clean_linker_0, # of connection points: 2
#     Edge 37, Type (0, 0), BuildingBlock: UVAHIK_clean_linker_0, # of connection points: 2
#     Edge 38, Type (0, 0), BuildingBlock: UVAHIK_clean_linker_0, # of connection points: 2
#     Edge 39, Type (0, 0), BuildingBlock: UVAHIK_clean_linker_0, # of connection points: 2
#     Edge 40, Type (0, 0), BuildingBlock: UVAHIK_clean_linker_0, # of connection points: 2
#     Edge 41, Type (0, 0), BuildingBlock: UVAHIK_clean_linker_0, # of connection points: 2
#     Edge 42, Type (0, 0), BuildingBlock: UVAHIK_clean_linker_0, # of connection points: 2
#     Edge 43, Type (0, 0), BuildingBlock: UVAHIK_clean_linker_0, # of connection points: 2
#     Edge 44, Type (0, 0), BuildingBlock: UVAHIK_clean_linker_0, # of connection points: 2
#     Edge 45, Type (0, 0), BuildingBlock: UVAHIK_clean_linker_0, # of connection points: 2
#     Edge 46, Type (0, 0), BuildingBlock: UVAHIK_clean_linker_0, # of connection points: 2
#     Edge 47, Type (0, 0), BuildingBlock: UVAHIK_clean_linker_0, # of connection points: 2
#     Edge 48, Type (0, 0), BuildingBlock: UVAHIK_clean_linker_0, # of connection points: 2
#     Edge 49, Type (0, 0), BuildingBlock: UVAHIK_clean_linker_0, # of connection points: 2
#     Edge 50, Type (0, 0), BuildingBlock: UVAHIK_clean_linker_0, # of connection points: 2
#     Edge 51, Type (0, 0), BuildingBlock: UVAHIK_clean_linker_0, # of connection points: 2
#     Edge 52, Type (0, 0), BuildingBlock: UVAHIK_clean_linker_0, # of connection points: 2
#     Edge 53, Type (0, 0), BuildingBlock: UVAHIK_clean_linker_0, # of connection points: 2
#     Edge 54, Type (0, 0), BuildingBlock: UVAHIK_clean_linker_0, # of connection points: 2
#     Edge 55, Type (0, 0), BuildingBlock: UVAHIK_clean_linker_0, # of connection points: 2
#     Edge 56, Type (0, 0), BuildingBlock: UVAHIK_clean_linker_0, # of connection points: 2
#     Edge 57, Type (0, 0), BuildingBlock: UVAHIK_clean_linker_0, # of connection points: 2
#     Edge 58, Type (0, 0), BuildingBlock: UVAHIK_clean_linker_0, # of connection points: 2
#     Edge 59, Type (0, 0), BuildingBlock: UVAHIK_clean_linker_0, # of connection points: 2
#     Edge 60, Type (0, 0), BuildingBlock: UVAHIK_clean_linker_0, # of connection points: 2
#     Edge 61, Type (0, 0), BuildingBlock: UVAHIK_clean_linker_0, # of connection points: 2
#     Edge 62, Type (0, 0), BuildingBlock: UVAHIK_clean_linker_0, # of connection points: 2
#     Edge 63, Type (0, 0), BuildingBlock: UVAHIK_clean_linker_0, # of connection points: 2
#     Edge 64, Type (0, 0), BuildingBlock: UVAHIK_clean_linker_0, # of connection points: 2
#     Edge 65, Type (0, 0), BuildingBlock: UVAHIK_clean_linker_0, # of connection points: 2
#     Edge 66, Type (0, 0), BuildingBlock: UVAHIK_clean_linker_0, # of connection points: 2
#     Edge 67, Type (0, 0), BuildingBlock: UVAHIK_clean_linker_0, # of connection points: 2
#     Edge 68, Type (0, 0), BuildingBlock: UVAHIK_clean_linker_0, # of connection points: 2
#     Edge 69, Type (0, 0), BuildingBlock: UVAHIK_clean_linker_0, # of connection points: 2
#     Edge 70, Type (0, 0), BuildingBlock: UVAHIK_clean_linker_0, # of connection points: 2
#     Edge 71, Type (0, 0), BuildingBlock: UVAHIK_clean_linker_0, # of connection points: 2
# Relax obj value: 0.360
# Max RMSD: 0.249
# Mean RMSD: 0.249
data_MOF--net-lta--node1-ICAMEG_clean_sbu_1--edge1-UVAHIK_clean_linker_0
_symmetry_space_group_name_H-M    P1
_symmetry_Int_Tables_number       1
_symmetry_cell_setting            triclinic
loop_
_symmetry_equiv_pos_as_xyz
'x, y, z'
_cell_length_a     76.049837
_cell_length_b     76.04476
_cell_length_c     76.043685
_cell_angle_alpha  90.013669
_cell_angle_beta   89.988147
_cell_angle_gamma 90.009701
loop_
_atom_site_label
_atom_site_type_symbol
_atom_site_fract_x
_atom_site_fract_y
_atom_site_fract_z
_atom_type_partial_charge
Co0 Co 0.13121 0.34472 0.49057 0.0
Co1 Co 0.12559 0.30014 0.49698 0.0
O2 O 0.13649 0.32019 0.48517 0.0
C3 C 0.12471 0.34274 0.45214 0.0
O4 O 0.11478 0.32889 0.45497 0.0
C5 C 0.16378 0.29384 0.50146 0.0
O6 O 0.16531 0.31021 0.50672 0.0
O7 O 0.13071 0.31022 0.52068 0.0
O8 O 0.13032 0.33949 0.51616 0.0
H9 H 0.08602 0.2705 0.54082 0.0
H10 H 0.16213 0.33605 0.46843 0.0
O11 O 0.13217 0.35054 0.46495 0.0
H12 H 0.18609 0.36706 0.5201 0.0
H13 H 0.13799 0.41017 0.48322 0.0
H14 H 0.10671 0.36296 0.51482 0.0
H15 H 0.15415 0.36239 0.51705 0.0
H16 H 0.14459 0.37901 0.47704 0.0
O17 O 0.14878 0.28773 0.49718 0.0
H18 H 0.09971 0.2958 0.52583 0.0
H19 H 0.12894 0.26126 0.49308 0.0
H20 H 0.09979 0.39394 0.5215 0.0
H21 H 0.19415 0.34061 0.47087 0.0
H22 H 0.11549 0.41779 0.50564 0.0
H23 H 0.20633 0.35616 0.49689 0.0
O24 O 0.10539 0.34035 0.48884 0.0
H25 H 0.14018 0.28319 0.4348 0.0
H26 H 0.09388 0.28423 0.48016 0.0
H27 H 0.08708 0.27251 0.4507 0.0
H28 H 0.11035 0.27191 0.42778 0.0
H29 H 0.14635 0.29497 0.46438 0.0
H30 H 0.1157 0.23558 0.50783 0.0
H31 H 0.09401 0.24012 0.53184 0.0
O32 O 0.10222 0.31207 0.49689 0.0
C33 C 0.13102 0.32607 0.52613 0.0
C34 C 0.09542 0.26835 0.53035 0.0
C35 C 0.11209 0.24875 0.51185 0.0
N36 N 0.11502 0.28 0.50853 0.0
C37 C 0.10318 0.28262 0.52178 0.0
C38 C 0.11959 0.26334 0.50359 0.0
C39 C 0.09992 0.25131 0.52531 0.0
C40 C 0.16732 0.343 0.47969 0.0
N41 N 0.15627 0.34903 0.49252 0.0
C42 C 0.18546 0.34547 0.48104 0.0
C43 C 0.19229 0.35418 0.49566 0.0
C44 C 0.18094 0.36029 0.50869 0.0
C45 C 0.16287 0.35757 0.5069 0.0
C46 C 0.13108 0.39989 0.49023 0.0
C47 C 0.11366 0.37327 0.50793 0.0
C48 C 0.13473 0.38223 0.48676 0.0
N49 N 0.12611 0.36919 0.49564 0.0
C50 C 0.10966 0.39078 0.51174 0.0
C51 C 0.11846 0.40416 0.50282 0.0
C52 C 0.09591 0.32711 0.49292 0.0
C53 C 0.12994 0.28336 0.44468 0.0
C54 C 0.10403 0.28412 0.47023 0.0
C55 C 0.10013 0.2774 0.45359 0.0
C56 C 0.11319 0.27705 0.44074 0.0
N57 N 0.12049 0.29028 0.474 0.0
C58 C 0.13337 0.28996 0.46147 0.0
Co59 Co 0.65617 0.13151 0.49021 0.0
Co60 Co 0.69961 0.12665 0.50321 0.0
O61 O 0.68141 0.13569 0.48724 0.0
C62 C 0.66308 0.12636 0.45114 0.0
O63 O 0.67982 0.13029 0.45241 0.0
C64 C 0.7056 0.16516 0.50297 0.0
O65 O 0.68867 0.16732 0.50559 0.0
O66 O 0.6865 0.13473 0.52445 0.0
O67 O 0.65821 0.13586 0.51595 0.0
H68 H 0.72264 0.09361 0.5556 0.0
H69 H 0.66977 0.15891 0.46538 0.0
O70 O 0.65294 0.1267 0.46447 0.0
H71 H 0.62897 0.19006 0.50486 0.0
H72 H 0.59211 0.13556 0.47375 0.0
H73 H 0.63489 0.11207 0.51643 0.0
H74 H 0.63396 0.15824 0.50819 0.0
H75 H 0.62382 0.14141 0.47022 0.0
O76 O 0.71209 0.14976 0.502 0.0
H77 H 0.69975 0.10486 0.53557 0.0
H78 H 0.73868 0.12982 0.50425 0.0
H79 H 0.60328 0.10606 0.52057 0.0
H80 H 0.665 0.19061 0.46142 0.0
H81 H 0.58165 0.11784 0.49912 0.0
H82 H 0.6445 0.20648 0.48128 0.0
O83 O 0.66027 0.10586 0.49364 0.0
H84 H 0.7276 0.13326 0.44366 0.0
H85 H 0.71612 0.0926 0.49284 0.0
H86 H 0.73245 0.08205 0.4669 0.0
H87 H 0.73835 0.10246 0.44209 0.0
H88 H 0.71106 0.14319 0.46971 0.0
H89 H 0.76198 0.11896 0.52401 0.0
H90 H 0.75402 0.10066 0.54987 0.0
O91 O 0.68756 0.10344 0.50467 0.0
C92 C 0.67021 0.13714 0.52757 0.0
C93 C 0.72628 0.10155 0.54436 0.0
C94 C 0.74836 0.11579 0.52664 0.0
N95 N 0.71787 0.11792 0.51872 0.0
C96 C 0.71338 0.10793 0.53296 0.0
C97 C 0.7351 0.12194 0.51553 0.0
C98 C 0.74388 0.10551 0.54114 0.0
C99 C 0.6606 0.16553 0.47388 0.0
N100 N 0.65195 0.15653 0.48682 0.0
C101 C 0.65805 0.18358 0.47166 0.0
C102 C 0.64659 0.19249 0.48283 0.0
C103 C 0.63788 0.18329 0.49606 0.0
C104 C 0.64078 0.16525 0.4979 0.0
C105 C 0.6014 0.13039 0.4832 0.0
C106 C 0.62555 0.11735 0.50712 0.0
C107 C 0.61938 0.13361 0.48125 0.0
N108 N 0.63118 0.12721 0.4932 0.0
C109 C 0.60767 0.11386 0.5095 0.0
C110 C 0.59555 0.12045 0.49744 0.0
C111 C 0.67285 0.09685 0.50008 0.0
C112 C 0.72513 0.12425 0.45439 0.0
C113 C 0.71846 0.10152 0.48203 0.0
C114 C 0.7278 0.09549 0.46741 0.0
C115 C 0.73113 0.10696 0.45351 0.0
N116 N 0.71258 0.1185 0.48278 0.0
C117 C 0.71583 0.12982 0.46922 0.0
Co118 Co 0.86582 0.65439 0.49479 0.0
Co119 Co 0.87469 0.69852 0.50122 0.0
O120 O 0.86241 0.67923 0.48952 0.0
C121 C 0.87409 0.65517 0.45641 0.0
O122 O 0.88621 0.66714 0.45922 0.0
C123 C 0.83702 0.70618 0.50706 0.0
O124 O 0.83508 0.68976 0.51201 0.0
O125 O 0.87022 0.68832 0.52505 0.0
O126 O 0.86609 0.65936 0.52045 0.0
H127 H 0.9176 0.72557 0.54358 0.0
H128 H 0.83629 0.66606 0.47215 0.0
O129 O 0.86514 0.64891 0.46911 0.0
H130 H 0.80863 0.63451 0.5216 0.0
H131 H 0.85527 0.58957 0.48623 0.0
H132 H 0.88814 0.63437 0.51967 0.0
H133 H 0.8409 0.63707 0.51964 0.0
H134 H 0.85083 0.62114 0.48027 0.0
O135 O 0.85211 0.71192 0.5026 0.0
H136 H 0.90216 0.70118 0.52877 0.0
H137 H 0.87281 0.73758 0.49825 0.0
H138 H 0.89288 0.60294 0.52615 0.0
H139 H 0.80397 0.66367 0.47349 0.0
H140 H 0.87637 0.58029 0.50936 0.0
H141 H 0.78993 0.64787 0.49839 0.0
O142 O 0.89198 0.657 0.49389 0.0
H143 H 0.8583 0.717 0.43993 0.0
H144 H 0.90626 0.71354 0.48339 0.0
H145 H 0.91234 0.7255 0.45387 0.0
H146 H 0.88823 0.72732 0.43191 0.0
H147 H 0.85286 0.70496 0.46955 0.0
H148 H 0.88781 0.76237 0.51283 0.0
H149 H 0.91044 0.75643 0.53562 0.0
O150 O 0.89734 0.68549 0.49987 0.0
C151 C 0.86749 0.67269 0.5305 0.0
C152 C 0.90779 0.72833 0.53364 0.0
C153 C 0.89106 0.74898 0.5164 0.0
N154 N 0.88667 0.71795 0.51261 0.0
C155 C 0.89904 0.71457 0.52518 0.0
C156 C 0.88257 0.73489 0.50823 0.0
C157 C 0.90376 0.74564 0.52918 0.0
C158 C 0.83028 0.65906 0.48296 0.0
N159 N 0.84047 0.65175 0.49584 0.0
C160 C 0.81197 0.65779 0.48368 0.0
C161 C 0.8041 0.64894 0.49766 0.0
C162 C 0.81459 0.64146 0.5107 0.0
C163 C 0.83285 0.64301 0.50956 0.0
C164 C 0.86251 0.59931 0.49365 0.0
C165 C 0.88083 0.62459 0.51239 0.0
C166 C 0.86009 0.6172 0.49031 0.0
N167 N 0.86913 0.62958 0.4997 0.0
C168 C 0.8836 0.60681 0.51608 0.0
C169 C 0.87435 0.59412 0.50664 0.0
C170 C 0.90247 0.66982 0.49673 0.0
C171 C 0.86891 0.71628 0.44939 0.0
C172 C 0.89575 0.71416 0.47387 0.0
C173 C 0.89925 0.72102 0.4572 0.0
C174 C 0.88571 0.72205 0.44489 0.0
N175 N 0.87924 0.70852 0.47819 0.0
C176 C 0.8659 0.70951 0.46619 0.0
Co177 Co 0.34235 0.86619 0.48449 0.0
Co178 Co 0.29879 0.86955 0.49611 0.0
O179 O 0.31767 0.85953 0.48178 0.0
C180 C 0.33687 0.87133 0.44606 0.0
O181 O 0.32308 0.88111 0.44955 0.0
C182 C 0.29331 0.83112 0.49957 0.0
O183 O 0.31027 0.82939 0.50226 0.0
O184 O 0.31149 0.86351 0.51819 0.0
O185 O 0.33976 0.86779 0.51056 0.0
H186 H 0.27357 0.90614 0.54504 0.0
H187 H 0.33325 0.83397 0.46449 0.0
O188 O 0.34572 0.86445 0.45848 0.0
H189 H 0.3709 0.81386 0.5133 0.0
H190 H 0.40704 0.86265 0.47076 0.0
H191 H 0.36145 0.89272 0.50573 0.0
H192 H 0.36402 0.84533 0.5097 0.0
H193 H 0.37588 0.85404 0.4681 0.0
O194 O 0.2867 0.84623 0.4967 0.0
H195 H 0.29728 0.89366 0.52674 0.0
H196 H 0.25973 0.86598 0.49602 0.0
H197 H 0.39247 0.90166 0.50889 0.0
H198 H 0.33998 0.80238 0.46747 0.0
H199 H 0.41551 0.88658 0.49132 0.0
H200 H 0.35887 0.79214 0.49207 0.0
O201 O 0.33631 0.8916 0.48222 0.0
H202 H 0.27509 0.85752 0.43563 0.0
H203 H 0.28124 0.90193 0.4825 0.0
H204 H 0.26627 0.90987 0.45485 0.0
H205 H 0.26309 0.88757 0.4312 0.0
H206 H 0.2901 0.85018 0.46344 0.0
H207 H 0.23563 0.87802 0.51409 0.0
H208 H 0.24249 0.89832 0.53875 0.0
O209 O 0.31023 0.89315 0.49592 0.0
C210 C 0.32774 0.8651 0.52191 0.0
C211 C 0.27041 0.89735 0.5343 0.0
C212 C 0.24912 0.88155 0.51694 0.0
N213 N 0.27988 0.87922 0.51025 0.0
C214 C 0.28377 0.89028 0.52386 0.0
C215 C 0.26282 0.87474 0.50678 0.0
C216 C 0.25297 0.89294 0.53077 0.0
C217 C 0.34163 0.82963 0.47511 0.0
N218 N 0.34826 0.84149 0.48687 0.0
C219 C 0.34533 0.81172 0.47678 0.0
C220 C 0.35591 0.80598 0.4906 0.0
C221 C 0.36266 0.81816 0.50252 0.0
C222 C 0.35867 0.83596 0.50044 0.0
C223 C 0.39712 0.8693 0.4785 0.0
C224 C 0.37141 0.88603 0.49812 0.0
C225 C 0.37945 0.86451 0.47703 0.0
N226 N 0.36687 0.87279 0.48684 0.0
C227 C 0.38895 0.89118 0.49993 0.0
C228 C 0.40187 0.88272 0.49005 0.0
C229 C 0.32376 0.90034 0.4891 0.0
C230 C 0.27635 0.86733 0.44586 0.0
C231 C 0.27996 0.89216 0.47225 0.0
C232 C 0.27143 0.89673 0.45664 0.0
C233 C 0.26964 0.8842 0.44337 0.0
N234 N 0.28646 0.87557 0.47461 0.0
C235 C 0.28478 0.86323 0.46166 0.0
Co236 Co 0.12482 0.65101 0.51336 0.0
Co237 Co 0.12003 0.69438 0.50194 0.0
O238 O 0.1307 0.6758 0.516 0.0
C239 C 0.11978 0.65639 0.55171 0.0
O240 O 0.10884 0.66926 0.54815 0.0
C241 C 0.15825 0.70038 0.49773 0.0
O242 O 0.15982 0.68364 0.4938 0.0
O243 O 0.12592 0.68183 0.47968 0.0
O244 O 0.12233 0.65354 0.48735 0.0
H245 H 0.08183 0.71895 0.45398 0.0
H246 H 0.1571 0.66116 0.53277 0.0
O247 O 0.12723 0.64789 0.53934 0.0
H248 H 0.17757 0.62458 0.48329 0.0
H249 H 0.13137 0.58657 0.52701 0.0
H250 H 0.09829 0.63082 0.4931 0.0
H251 H 0.14594 0.63033 0.48754 0.0
H252 H 0.13874 0.61807 0.52941 0.0
O253 O 0.14318 0.70685 0.50115 0.0
H254 H 0.09508 0.69547 0.472 0.0
H255 H 0.12311 0.73347 0.50184 0.0
H256 H 0.09057 0.59945 0.49019 0.0
H257 H 0.18884 0.6556 0.5291 0.0
H258 H 0.10718 0.57707 0.50723 0.0
H259 H 0.19926 0.63723 0.50417 0.0
O260 O 0.09931 0.65615 0.51602 0.0
H261 H 0.13262 0.71814 0.56231 0.0
H262 H 0.08765 0.71148 0.51608 0.0
H263 H 0.0799 0.72631 0.54386 0.0
H264 H 0.10248 0.72975 0.5672 0.0
H265 H 0.13976 0.70325 0.53438 0.0
H266 H 0.11029 0.75736 0.48403 0.0
H267 H 0.08943 0.75016 0.45995 0.0
O268 O 0.09664 0.68233 0.50258 0.0
C269 C 0.12426 0.66559 0.47585 0.0
C270 C 0.09086 0.72226 0.46446 0.0
C271 C 0.10685 0.74382 0.48132 0.0
N272 N 0.10975 0.71311 0.48803 0.0
C273 C 0.09837 0.70903 0.47474 0.0
C274 C 0.11411 0.73023 0.49132 0.0
C275 C 0.09515 0.73977 0.46781 0.0
C276 C 0.16152 0.653 0.522 0.0
N277 N 0.14967 0.64601 0.51044 0.0
C278 C 0.17951 0.64996 0.51994 0.0
C279 C 0.18535 0.63968 0.50594 0.0
C280 C 0.17319 0.63259 0.4942 0.0
C281 C 0.1553 0.63593 0.49666 0.0
C282 C 0.12408 0.59618 0.51947 0.0
C283 C 0.10567 0.62115 0.50043 0.0
C284 C 0.12818 0.61404 0.52079 0.0
N285 N 0.11909 0.62624 0.51123 0.0
C286 C 0.1012 0.60341 0.49879 0.0
C287 C 0.1105 0.59087 0.50837 0.0
C288 C 0.09004 0.66843 0.50933 0.0
C289 C 0.12267 0.71675 0.55222 0.0
C290 C 0.09753 0.71285 0.5262 0.0
C291 C 0.09308 0.72131 0.54188 0.0
C292 C 0.10576 0.72325 0.55497 0.0
N293 N 0.11416 0.70655 0.52359 0.0
C294 C 0.12665 0.70839 0.53636 0.0
Co295 Co 0.34387 0.1217 0.50988 0.0
Co296 Co 0.30056 0.122 0.49724 0.0
O297 O 0.31962 0.13002 0.51271 0.0
C298 C 0.33801 0.12473 0.54928 0.0
O299 O 0.32191 0.13059 0.5474 0.0
C300 C 0.2964 0.16083 0.49695 0.0
O301 O 0.31346 0.16227 0.49473 0.0
O302 O 0.31397 0.12966 0.47616 0.0
O303 O 0.34122 0.12117 0.48367 0.0
H304 H 0.27511 0.09113 0.44464 0.0
H305 H 0.33669 0.15477 0.53005 0.0
O306 O 0.3477 0.12132 0.53604 0.0
H307 H 0.37751 0.17184 0.48276 0.0
H308 H 0.40867 0.11953 0.52342 0.0
H309 H 0.36076 0.09449 0.48759 0.0
H310 H 0.36768 0.14112 0.48565 0.0
H311 H 0.3783 0.13048 0.52656 0.0
O312 O 0.28932 0.14574 0.49853 0.0
H313 H 0.29884 0.10093 0.46446 0.0
H314 H 0.26165 0.12699 0.49697 0.0
H315 H 0.39096 0.08325 0.48394 0.0
H316 H 0.34638 0.18551 0.52782 0.0
H317 H 0.41516 0.09579 0.50194 0.0
H318 H 0.36693 0.19429 0.504 0.0
O319 O 0.33581 0.09699 0.51138 0.0
H320 H 0.27421 0.12992 0.55733 0.0
H321 H 0.28206 0.08894 0.50769 0.0
H322 H 0.26569 0.07925 0.53393 0.0
H323 H 0.26163 0.09982 0.55898 0.0
H324 H 0.29069 0.13901 0.53091 0.0
H325 H 0.23753 0.11762 0.47742 0.0
H326 H 0.2442 0.09949 0.45107 0.0
O327 O 0.31111 0.09787 0.49536 0.0
C328 C 0.32989 0.12616 0.47239 0.0
C329 C 0.27204 0.09899 0.4561 0.0
C330 C 0.25095 0.11387 0.47449 0.0
N331 N 0.28163 0.11441 0.48192 0.0
C332 C 0.28541 0.10454 0.4674 0.0
C333 C 0.26466 0.11917 0.48549 0.0
C334 C 0.25469 0.10369 0.45971 0.0
C335 C 0.34587 0.15829 0.51988 0.0
N336 N 0.35184 0.14597 0.50825 0.0
C337 C 0.35122 0.17582 0.51858 0.0
C338 C 0.3627 0.18075 0.50518 0.0
C339 C 0.36864 0.16817 0.49327 0.0
C340 C 0.363 0.15077 0.49498 0.0
C341 C 0.39824 0.11398 0.51548 0.0
C342 C 0.37124 0.1001 0.49539 0.0
C343 C 0.38101 0.12011 0.51722 0.0
N344 N 0.36779 0.11323 0.50716 0.0
C345 C 0.3883 0.09364 0.4933 0.0
C346 C 0.40187 0.10067 0.50342 0.0
C347 C 0.32358 0.08945 0.5028 0.0
C348 C 0.2759 0.12083 0.54651 0.0
C349 C 0.28053 0.09792 0.5186 0.0
C350 C 0.27115 0.09238 0.53339 0.0
C351 C 0.26886 0.10394 0.54743 0.0
N352 N 0.28744 0.1145 0.51782 0.0
C353 C 0.28519 0.12592 0.5315 0.0
Co354 Co 0.87332 0.34448 0.51108 0.0
Co355 Co 0.87764 0.3009 0.49984 0.0
O356 O 0.86657 0.31982 0.51323 0.0
C357 C 0.87599 0.33907 0.54963 0.0
O358 O 0.88633 0.32557 0.54662 0.0
C359 C 0.83962 0.29601 0.49308 0.0
O360 O 0.83849 0.31299 0.49017 0.0
O361 O 0.87385 0.31365 0.47719 0.0
O362 O 0.87735 0.34185 0.48536 0.0
H363 H 0.91881 0.27528 0.45494 0.0
H364 H 0.83969 0.33543 0.52864 0.0
O365 O 0.86951 0.34777 0.53688 0.0
H366 H 0.82323 0.37226 0.47788 0.0
H367 H 0.8679 0.40909 0.5245 0.0
H368 H 0.90127 0.36397 0.49202 0.0
H369 H 0.85437 0.36559 0.48398 0.0
H370 H 0.85956 0.37781 0.5265 0.0
O371 O 0.85432 0.28909 0.4971 0.0
H372 H 0.90482 0.29912 0.47192 0.0
H373 H 0.87346 0.26191 0.49934 0.0
H374 H 0.90997 0.3951 0.48954 0.0
H375 H 0.80839 0.34192 0.52313 0.0
H376 H 0.89323 0.41792 0.50586 0.0
H377 H 0.79999 0.36041 0.49755 0.0
O378 O 0.89852 0.33869 0.5152 0.0
H379 H 0.85965 0.27754 0.55897 0.0
H380 H 0.90825 0.28269 0.51636 0.0
H381 H 0.91335 0.26763 0.54462 0.0
H382 H 0.88892 0.26495 0.56614 0.0
H383 H 0.85519 0.29264 0.53061 0.0
H384 H 0.88697 0.23768 0.48253 0.0
H385 H 0.90988 0.2443 0.4602 0.0
O386 O 0.90126 0.31223 0.50232 0.0
C387 C 0.87611 0.32989 0.4737 0.0
C388 C 0.90887 0.27222 0.46467 0.0
C389 C 0.89099 0.25112 0.48013 0.0
N390 N 0.88842 0.2819 0.48668 0.0
C391 C 0.90094 0.28566 0.47435 0.0
C392 C 0.88334 0.2649 0.48957 0.0
C393 C 0.90385 0.25484 0.46761 0.0
C394 C 0.83614 0.34364 0.5176 0.0
N395 N 0.84884 0.35018 0.5067 0.0
C396 C 0.8184 0.34721 0.5145 0.0
C397 C 0.81369 0.35756 0.50013 0.0
C398 C 0.82672 0.36419 0.48908 0.0
C399 C 0.84433 0.36034 0.49257 0.0
C400 C 0.87527 0.39928 0.5173 0.0
C401 C 0.89385 0.37382 0.49907 0.0
C402 C 0.87064 0.38154 0.51841 0.0
N403 N 0.87984 0.36908 0.50928 0.0
C404 C 0.89887 0.39143 0.49766 0.0
C405 C 0.88948 0.40422 0.50683 0.0
C406 C 0.90782 0.32604 0.50926 0.0
C407 C 0.87039 0.27859 0.54968 0.0
C408 C 0.89759 0.28166 0.52569 0.0
C409 C 0.90053 0.27307 0.54165 0.0
C410 C 0.88682 0.27155 0.55371 0.0
N411 N 0.88144 0.28851 0.52182 0.0
C412 C 0.86793 0.28708 0.53359 0.0
Co413 Co 0.65766 0.87292 0.52 0.0
Co414 Co 0.69896 0.87778 0.50142 0.0
O415 O 0.68301 0.8688 0.51952 0.0
C416 C 0.65286 0.88934 0.55489 0.0
O417 O 0.64641 0.90295 0.54647 0.0
C418 C 0.70433 0.83925 0.50043 0.0
O419 O 0.68717 0.83742 0.50089 0.0
O420 O 0.68298 0.87007 0.48211 0.0
O421 O 0.65595 0.86925 0.49407 0.0
H422 H 0.71502 0.91116 0.44669 0.0
H423 H 0.67375 0.84644 0.54364 0.0
O424 O 0.65898 0.87633 0.54622 0.0
H425 H 0.63072 0.81357 0.50796 0.0
H426 H 0.5964 0.86655 0.54457 0.0
H427 H 0.63282 0.8934 0.4981 0.0
H428 H 0.63432 0.84557 0.50415 0.0
H429 H 0.62837 0.86119 0.54351 0.0
O430 O 0.7112 0.85453 0.50055 0.0
H431 H 0.69495 0.89994 0.46957 0.0
H432 H 0.73749 0.87423 0.49502 0.0
H433 H 0.60087 0.89903 0.49862 0.0
H434 H 0.67043 0.81449 0.54807 0.0
H435 H 0.58245 0.88557 0.52199 0.0
H436 H 0.64885 0.79782 0.53009 0.0
O437 O 0.66132 0.89869 0.51606 0.0
H438 H 0.73322 0.8704 0.55744 0.0
H439 H 0.7178 0.91123 0.50948 0.0
H440 H 0.73741 0.92126 0.53329 0.0
H441 H 0.74529 0.90076 0.55746 0.0
H442 H 0.71352 0.86097 0.53345 0.0
H443 H 0.758 0.88505 0.47234 0.0
H444 H 0.7468 0.90372 0.44799 0.0
O445 O 0.68714 0.90108 0.50191 0.0
C446 C 0.66638 0.86801 0.48099 0.0
C447 C 0.72007 0.90307 0.45725 0.0
C448 C 0.74418 0.8884 0.47163 0.0
N449 N 0.71505 0.88652 0.48365 0.0
C450 C 0.70877 0.89671 0.47027 0.0
C451 C 0.7325 0.88227 0.48441 0.0
C452 C 0.73789 0.89888 0.45798 0.0
C453 C 0.66422 0.83931 0.53587 0.0
N454 N 0.65427 0.84787 0.5236 0.0
C455 C 0.66245 0.8212 0.53839 0.0
C456 C 0.65036 0.81185 0.52828 0.0
C457 C 0.6402 0.82068 0.51585 0.0
C458 C 0.64236 0.83879 0.51367 0.0
C459 C 0.60429 0.87247 0.53431 0.0
C460 C 0.62487 0.88744 0.50828 0.0
C461 C 0.62239 0.8695 0.53365 0.0
N462 N 0.63244 0.87694 0.52072 0.0
C463 C 0.6068 0.8907 0.50852 0.0
C464 C 0.59647 0.88315 0.52164 0.0
C465 C 0.67311 0.90772 0.50823 0.0
C466 C 0.72991 0.87944 0.54695 0.0
C467 C 0.7211 0.90226 0.52 0.0
C468 C 0.73224 0.908 0.53342 0.0
C469 C 0.73667 0.89648 0.54697 0.0
N470 N 0.71459 0.8855 0.52004 0.0
C471 C 0.71881 0.87416 0.53331 0.0
Co472 Co 0.48995 0.12745 0.34301 0.0
Co473 Co 0.5009 0.12352 0.29939 0.0
O474 O 0.48731 0.134 0.31843 0.0
C475 C 0.45143 0.12259 0.33874 0.0
O476 O 0.45451 0.11063 0.32668 0.0
C477 C 0.50605 0.1618 0.29467 0.0
O478 O 0.51052 0.16269 0.31132 0.0
O479 O 0.52354 0.12821 0.3119 0.0
O480 O 0.51576 0.12429 0.34017 0.0
H481 H 0.54716 0.08441 0.273 0.0
H482 H 0.47135 0.16048 0.33379 0.0
O483 O 0.46404 0.13053 0.34637 0.0
H484 H 0.52161 0.1787 0.3705 0.0
H485 H 0.47668 0.13249 0.40768 0.0
H486 H 0.51018 0.10029 0.36244 0.0
H487 H 0.51645 0.14734 0.364 0.0
H488 H 0.47422 0.14069 0.37639 0.0
O489 O 0.50225 0.14703 0.28774 0.0
H490 H 0.52987 0.09752 0.29712 0.0
H491 H 0.50086 0.12803 0.26044 0.0
H492 H 0.51313 0.09174 0.39357 0.0
H493 H 0.47593 0.19197 0.3401 0.0
H494 H 0.49629 0.10789 0.41644 0.0
H495 H 0.50125 0.20125 0.35852 0.0
O496 O 0.48678 0.10209 0.33725 0.0
H497 H 0.44065 0.1388 0.27696 0.0
H498 H 0.48566 0.09234 0.28106 0.0
H499 H 0.45751 0.08598 0.2663 0.0
H500 H 0.43478 0.10934 0.26413 0.0
H501 H 0.46893 0.14452 0.29176 0.0
H502 H 0.51795 0.11537 0.23593 0.0
H503 H 0.54123 0.09333 0.24215 0.0
O504 O 0.49957 0.09978 0.31067 0.0
C505 C 0.52725 0.12601 0.3281 0.0
C506 C 0.53702 0.09396 0.27012 0.0
C507 C 0.52064 0.11136 0.24932 0.0
N508 N 0.5143 0.11344 0.28018 0.0
C509 C 0.52716 0.1014 0.28372 0.0
C510 C 0.51104 0.11852 0.26325 0.0
C511 C 0.5337 0.09899 0.25281 0.0
C512 C 0.48228 0.1644 0.34198 0.0
N513 N 0.49355 0.15208 0.34861 0.0
C514 C 0.48486 0.18226 0.34544 0.0
C515 C 0.49908 0.18746 0.35576 0.0
C516 C 0.51052 0.17481 0.36247 0.0
C517 C 0.50755 0.15708 0.35872 0.0
C518 C 0.4841 0.12537 0.39783 0.0
C519 C 0.50289 0.10745 0.37231 0.0
C520 C 0.48274 0.12993 0.3801 0.0
N521 N 0.49214 0.12105 0.36761 0.0
C522 C 0.50458 0.10252 0.38992 0.0
C523 C 0.49512 0.11157 0.40275 0.0
C524 C 0.49294 0.093 0.32454 0.0
C525 C 0.45046 0.12853 0.27779 0.0
C526 C 0.47581 0.10252 0.28027 0.0
C527 C 0.45991 0.09887 0.27184 0.0
C528 C 0.44717 0.11199 0.27062 0.0
N529 N 0.47896 0.11878 0.28725 0.0
C530 C 0.46652 0.1317 0.28612 0.0
Co531 Co 0.86991 0.48922 0.34145 0.0
Co532 Co 0.87597 0.50062 0.29766 0.0
O533 O 0.86575 0.48581 0.31624 0.0
C534 C 0.876 0.45023 0.33517 0.0
O535 O 0.87273 0.45129 0.31828 0.0
C536 C 0.8374 0.50469 0.29319 0.0
O537 O 0.83583 0.50498 0.31038 0.0
O538 O 0.87136 0.52284 0.31104 0.0
O539 O 0.8654 0.5147 0.33882 0.0
H540 H 0.91514 0.54808 0.27356 0.0
H541 H 0.84313 0.46323 0.329 0.0
O542 O 0.87493 0.46362 0.34519 0.0
H543 H 0.81082 0.50449 0.36707 0.0
H544 H 0.86526 0.47412 0.40578 0.0
H545 H 0.88904 0.516 0.36234 0.0
H546 H 0.84264 0.50812 0.36221 0.0
H547 H 0.85977 0.46989 0.37409 0.0
O548 O 0.85246 0.50298 0.28607 0.0
H549 H 0.90203 0.52962 0.2968 0.0
H550 H 0.87147 0.50247 0.25873 0.0
H551 H 0.8947 0.52082 0.39392 0.0
H552 H 0.81143 0.459 0.33366 0.0
H553 H 0.88278 0.49978 0.41588 0.0
H554 H 0.79499 0.47974 0.35279 0.0
O555 O 0.89563 0.49289 0.33753 0.0
H556 H 0.85984 0.4425 0.27061 0.0
H557 H 0.90725 0.48589 0.27912 0.0
H558 H 0.91329 0.45875 0.26243 0.0
H559 H 0.88945 0.43685 0.25802 0.0
H560 H 0.85448 0.46968 0.28748 0.0
H561 H 0.88411 0.52075 0.23511 0.0
H562 H 0.90617 0.54369 0.24246 0.0
O563 O 0.89951 0.49863 0.3088 0.0
C564 C 0.86694 0.52624 0.32684 0.0
C565 C 0.90557 0.53809 0.27019 0.0
C566 C 0.88814 0.52277 0.24861 0.0
N567 N 0.88608 0.51492 0.27912 0.0
C568 C 0.89814 0.52757 0.28328 0.0
C569 C 0.88099 0.5125 0.26205 0.0
C570 C 0.90052 0.53564 0.25274 0.0
C571 C 0.83625 0.47213 0.33759 0.0
N572 N 0.84491 0.48569 0.34558 0.0
C573 C 0.8182 0.46975 0.34007 0.0
C574 C 0.80898 0.48141 0.35077 0.0
C575 C 0.81785 0.4953 0.35878 0.0
C576 C 0.83589 0.49727 0.35598 0.0
C577 C 0.8705 0.48339 0.39634 0.0
C578 C 0.8837 0.50685 0.37183 0.0
C579 C 0.86747 0.48104 0.37838 0.0
N580 N 0.87397 0.49276 0.36639 0.0
C581 C 0.887 0.50962 0.38969 0.0
C582 C 0.88032 0.4978 0.402 0.0
C583 C 0.90541 0.49608 0.32427 0.0
C584 C 0.87033 0.45195 0.27243 0.0
C585 C 0.89688 0.47634 0.27745 0.0
C586 C 0.90034 0.46104 0.26789 0.0
C587 C 0.88695 0.44877 0.2654 0.0
N588 N 0.88056 0.47935 0.28433 0.0
C589 C 0.86736 0.4674 0.2819 0.0
Co590 Co 0.50286 0.87056 0.3476 0.0
Co591 Co 0.49806 0.8733 0.30285 0.0
O592 O 0.50842 0.86281 0.32382 0.0
C593 C 0.54186 0.87171 0.34749 0.0
O594 O 0.54116 0.8813 0.33315 0.0
C595 C 0.49109 0.83525 0.29762 0.0
O596 O 0.48327 0.83499 0.31301 0.0
O597 O 0.47377 0.86977 0.31234 0.0
O598 O 0.47788 0.87501 0.34113 0.0
H599 H 0.45738 0.91329 0.26954 0.0
H600 H 0.52035 0.83616 0.34207 0.0
O601 O 0.52777 0.86628 0.35474 0.0
H602 H 0.46461 0.82245 0.37224 0.0
H603 H 0.50657 0.86747 0.41363 0.0
H604 H 0.48215 0.89982 0.36304 0.0
H605 H 0.47257 0.85315 0.36548 0.0
H606 H 0.51279 0.85777 0.38331 0.0
O607 O 0.49744 0.84952 0.29158 0.0
H608 H 0.4707 0.90024 0.29607 0.0
H609 H 0.50325 0.86774 0.26438 0.0
H610 H 0.47548 0.90989 0.39313 0.0
H611 H 0.51298 0.80528 0.34872 0.0
H612 H 0.48773 0.89367 0.41869 0.0
H613 H 0.48491 0.79826 0.36387 0.0
O614 O 0.50856 0.89532 0.34148 0.0
H615 H 0.56009 0.85513 0.28911 0.0
H616 H 0.51693 0.9034 0.28613 0.0
H617 H 0.54707 0.90827 0.27521 0.0
H618 H 0.56889 0.88401 0.27663 0.0
H619 H 0.52986 0.8509 0.30005 0.0
H620 H 0.49017 0.88032 0.2375 0.0
H621 H 0.46712 0.90333 0.23998 0.0
O622 O 0.49881 0.89736 0.31365 0.0
C623 C 0.46799 0.87297 0.32776 0.0
C624 C 0.46745 0.90331 0.26828 0.0
C625 C 0.48584 0.88479 0.2503 0.0
N626 N 0.48782 0.88334 0.28177 0.0
C627 C 0.47507 0.8959 0.28326 0.0
C628 C 0.49316 0.87768 0.26557 0.0
C629 C 0.47291 0.8977 0.2517 0.0
C630 C 0.50819 0.83322 0.34881 0.0
N631 N 0.49696 0.84645 0.35347 0.0
C632 C 0.50405 0.81571 0.35248 0.0
C633 C 0.48829 0.81178 0.36096 0.0
C634 C 0.47689 0.82534 0.36565 0.0
C635 C 0.48145 0.8427 0.36176 0.0
C636 C 0.50112 0.87462 0.40261 0.0
C637 C 0.48742 0.89262 0.37409 0.0
C638 C 0.50462 0.86921 0.3854 0.0
N639 N 0.49771 0.87814 0.37142 0.0
C640 C 0.48365 0.89842 0.3911 0.0
C641 C 0.49054 0.88932 0.40544 0.0
C642 C 0.50429 0.90428 0.32796 0.0
C643 C 0.5507 0.8658 0.2884 0.0
C644 C 0.52637 0.89282 0.2869 0.0
C645 C 0.5434 0.89563 0.28063 0.0
C646 C 0.55563 0.88201 0.28142 0.0
N647 N 0.52162 0.87689 0.29372 0.0
C648 C 0.53354 0.86347 0.29452 0.0
Co649 Co 0.12785 0.51299 0.34494 0.0
Co650 Co 0.12386 0.50146 0.30159 0.0
O651 O 0.13463 0.51521 0.32033 0.0
C652 C 0.12504 0.55145 0.33921 0.0
O653 O 0.11482 0.54825 0.32566 0.0
C654 C 0.162 0.49544 0.29566 0.0
O655 O 0.16343 0.49018 0.31205 0.0
O656 O 0.1288 0.47904 0.31437 0.0
O657 O 0.12409 0.48716 0.34239 0.0
H658 H 0.08459 0.45467 0.27637 0.0
H659 H 0.16139 0.53056 0.33562 0.0
O660 O 0.13145 0.53882 0.34813 0.0
H661 H 0.17809 0.4804 0.37315 0.0
H662 H 0.13302 0.52661 0.40953 0.0
H663 H 0.09974 0.49411 0.36435 0.0
H664 H 0.14692 0.48627 0.36641 0.0
H665 H 0.14151 0.52848 0.37827 0.0
O666 O 0.14714 0.50007 0.28951 0.0
H667 H 0.09799 0.47231 0.30007 0.0
H668 H 0.12771 0.50111 0.26255 0.0
H669 H 0.09089 0.49175 0.39545 0.0
H670 H 0.19272 0.52526 0.34216 0.0
H671 H 0.10759 0.50808 0.4183 0.0
H672 H 0.20124 0.5 0.36102 0.0
O673 O 0.10266 0.51693 0.33899 0.0
H674 H 0.13875 0.56136 0.27799 0.0
H675 H 0.09231 0.51648 0.28369 0.0
H676 H 0.08571 0.54442 0.26863 0.0
H677 H 0.10905 0.56708 0.26567 0.0
H678 H 0.14471 0.5333 0.29311 0.0
H679 H 0.11475 0.48367 0.23846 0.0
H680 H 0.09296 0.46031 0.24531 0.0
O681 O 0.10027 0.50284 0.31315 0.0
C682 C 0.12615 0.47547 0.33055 0.0
C683 C 0.09403 0.46484 0.27322 0.0
C684 C 0.11098 0.4811 0.25194 0.0
N685 N 0.11352 0.4878 0.28269 0.0
C686 C 0.10163 0.4749 0.28658 0.0
C687 C 0.1183 0.4909 0.26564 0.0
C688 C 0.09875 0.468 0.25579 0.0
C689 C 0.16499 0.51964 0.34397 0.0
N690 N 0.15234 0.5088 0.35071 0.0
C691 C 0.18275 0.51666 0.34757 0.0
C692 C 0.18752 0.50247 0.35813 0.0
C693 C 0.17454 0.49146 0.36493 0.0
C694 C 0.15692 0.49483 0.36104 0.0
C695 C 0.12568 0.51939 0.3997 0.0
C696 C 0.10716 0.50113 0.37422 0.0
C697 C 0.1304 0.52041 0.38198 0.0
N698 N 0.12125 0.51125 0.36952 0.0
C699 C 0.10205 0.4998 0.39181 0.0
C700 C 0.11141 0.50898 0.40462 0.0
C701 C 0.09351 0.51022 0.32663 0.0
C702 C 0.12848 0.55157 0.27917 0.0
C703 C 0.1025 0.5263 0.28255 0.0
C704 C 0.0987 0.54208 0.27395 0.0
C705 C 0.11181 0.55479 0.27228 0.0
N706 N 0.11888 0.52324 0.28925 0.0
C707 C 0.13179 0.53564 0.28767 0.0
Co708 Co 0.49389 0.87408 0.65529 0.0
Co709 Co 0.49696 0.88 0.69999 0.0
O710 O 0.48699 0.86857 0.67934 0.0
C711 C 0.45515 0.8787 0.65346 0.0
O712 O 0.45627 0.89048 0.66603 0.0
C713 C 0.50213 0.84213 0.70767 0.0
O714 O 0.50979 0.84056 0.69228 0.0
O715 O 0.52141 0.87502 0.69179 0.0
O716 O 0.51893 0.8771 0.66236 0.0
H717 H 0.53787 0.92063 0.73226 0.0
H718 H 0.47361 0.84157 0.66268 0.0
O719 O 0.46889 0.87102 0.64771 0.0
H720 H 0.52908 0.82152 0.63573 0.0
H721 H 0.49181 0.86632 0.58958 0.0
H722 H 0.51749 0.90026 0.63853 0.0
H723 H 0.52329 0.85315 0.6399 0.0
H724 H 0.48392 0.85949 0.6203 0.0
O725 O 0.49638 0.85701 0.71277 0.0
H726 H 0.52505 0.90635 0.70611 0.0
H727 H 0.49013 0.87717 0.7385 0.0
H728 H 0.52584 0.90744 0.60802 0.0
H729 H 0.4788 0.80982 0.65859 0.0
H730 H 0.51297 0.89041 0.58329 0.0
H731 H 0.50673 0.79961 0.64508 0.0
O732 O 0.49 0.89968 0.6593 0.0
H733 H 0.43382 0.86491 0.71232 0.0
H734 H 0.4786 0.91177 0.71395 0.0
H735 H 0.44827 0.91838 0.7233 0.0
H736 H 0.42564 0.89483 0.72256 0.0
H737 H 0.46429 0.85893 0.70292 0.0
H738 H 0.50269 0.89101 0.76502 0.0
H739 H 0.52669 0.91297 0.76198 0.0
O740 O 0.49752 0.90324 0.68766 0.0
C741 C 0.52799 0.87597 0.6764 0.0
C742 C 0.52739 0.91112 0.73376 0.0
C743 C 0.50766 0.89448 0.75214 0.0
N744 N 0.50678 0.89104 0.72077 0.0
C745 C 0.52004 0.90303 0.71899 0.0
C746 C 0.50063 0.88665 0.73708 0.0
C747 C 0.52112 0.9068 0.75043 0.0
C748 C 0.48572 0.83724 0.65663 0.0
N749 N 0.49808 0.84921 0.65144 0.0
C750 C 0.48862 0.81924 0.65441 0.0
C751 C 0.5043 0.81352 0.64685 0.0
C752 C 0.51685 0.8258 0.64161 0.0
C753 C 0.51351 0.8437 0.64404 0.0
C754 C 0.49753 0.87382 0.60024 0.0
C755 C 0.51191 0.89272 0.62784 0.0
C756 C 0.49309 0.87004 0.61766 0.0
N757 N 0.50033 0.87939 0.63119 0.0
C758 C 0.51665 0.89688 0.61059 0.0
C759 C 0.50941 0.88733 0.59673 0.0
C760 C 0.4936 0.90937 0.67252 0.0
C761 C 0.44357 0.87528 0.71273 0.0
C762 C 0.46882 0.90149 0.71349 0.0
C763 C 0.45167 0.90529 0.71886 0.0
C764 C 0.43899 0.89207 0.71845 0.0
N765 N 0.47323 0.88498 0.70791 0.0
C766 C 0.46086 0.87196 0.70747 0.0
Co767 Co 0.13159 0.4916 0.65274 0.0
Co768 Co 0.12479 0.49846 0.69713 0.0
O769 O 0.13585 0.48632 0.67743 0.0
C770 C 0.12207 0.45355 0.6539 0.0
O771 O 0.10988 0.45692 0.66564 0.0
C772 C 0.16286 0.50304 0.70331 0.0
O773 O 0.16424 0.50817 0.68688 0.0
O774 O 0.12979 0.52206 0.68674 0.0
O775 O 0.13219 0.51731 0.6576 0.0
H776 H 0.08462 0.54238 0.72586 0.0
H777 H 0.161 0.46828 0.66343 0.0
O778 O 0.13144 0.46585 0.64747 0.0
H779 H 0.18861 0.51679 0.63042 0.0
H780 H 0.13932 0.48237 0.58761 0.0
H781 H 0.10921 0.51701 0.63345 0.0
H782 H 0.15643 0.51568 0.63428 0.0
H783 H 0.14483 0.47647 0.61903 0.0
O784 O 0.14791 0.49891 0.70963 0.0
H785 H 0.09853 0.52706 0.70088 0.0
H786 H 0.12805 0.49532 0.73607 0.0
H787 H 0.10342 0.52344 0.60219 0.0
H788 H 0.19322 0.46877 0.65974 0.0
H789 H 0.11853 0.50605 0.57902 0.0
H790 H 0.20724 0.4932 0.64319 0.0
O791 O 0.10552 0.49152 0.65638 0.0
H792 H 0.1394 0.43661 0.71525 0.0
H793 H 0.09298 0.48179 0.71294 0.0
H794 H 0.08616 0.45255 0.72517 0.0
H795 H 0.10948 0.42972 0.72641 0.0
H796 H 0.14559 0.46599 0.70299 0.0
H797 H 0.11458 0.51039 0.76145 0.0
H798 H 0.09264 0.53406 0.75642 0.0
O799 O 0.10166 0.49811 0.68496 0.0
C800 C 0.13182 0.52741 0.67097 0.0
C801 C 0.09414 0.53206 0.72823 0.0
C802 C 0.11097 0.51413 0.7482 0.0
N803 N 0.11402 0.51026 0.71701 0.0
C804 C 0.10203 0.52332 0.71413 0.0
C805 C 0.11859 0.50568 0.73378 0.0
C806 C 0.09865 0.5274 0.74537 0.0
C807 C 0.16699 0.47889 0.6561 0.0
N808 N 0.15685 0.49196 0.6491 0.0
C809 C 0.18525 0.47912 0.6541 0.0
C810 C 0.1931 0.49284 0.64483 0.0
C811 C 0.18267 0.50609 0.63768 0.0
C812 C 0.16446 0.50543 0.63996 0.0
C813 C 0.13267 0.49006 0.59759 0.0
C814 C 0.11592 0.50946 0.62344 0.0
C815 C 0.13571 0.48675 0.61539 0.0
N816 N 0.12744 0.49647 0.62805 0.0
C817 C 0.11255 0.51313 0.60576 0.0
C818 C 0.12102 0.50335 0.59277 0.0
C819 C 0.09573 0.49505 0.66958 0.0
C820 C 0.12913 0.44645 0.71481 0.0
C821 C 0.10316 0.47191 0.71335 0.0
C822 C 0.09924 0.45539 0.72034 0.0
C823 C 0.11234 0.44259 0.72105 0.0
N824 N 0.11967 0.47561 0.70729 0.0
C825 C 0.13257 0.46313 0.70792 0.0
Co826 Co 0.50665 0.13313 0.65488 0.0
Co827 Co 0.50011 0.12736 0.69941 0.0
O828 O 0.51159 0.13878 0.67945 0.0
C829 C 0.54544 0.12873 0.65678 0.0
O830 O 0.54332 0.11831 0.67039 0.0
C831 C 0.49448 0.16541 0.70581 0.0
O832 O 0.49029 0.16707 0.68915 0.0
O833 O 0.4763 0.13148 0.68916 0.0
O834 O 0.4811 0.13079 0.65995 0.0
H835 H 0.45775 0.08585 0.72857 0.0
H836 H 0.52704 0.16528 0.66343 0.0
O837 O 0.53218 0.13556 0.64919 0.0
H838 H 0.47423 0.18619 0.63215 0.0
H839 H 0.51404 0.14007 0.58945 0.0
H840 H 0.48397 0.10721 0.63658 0.0
H841 H 0.47898 0.1545 0.63706 0.0
H842 H 0.5196 0.14716 0.62061 0.0
O843 O 0.49873 0.15044 0.71199 0.0
H844 H 0.47231 0.1003 0.70343 0.0
H845 H 0.50364 0.13063 0.73834 0.0
H846 H 0.47793 0.09977 0.60559 0.0
H847 H 0.52289 0.19709 0.65861 0.0
H848 H 0.49303 0.11626 0.58178 0.0
H849 H 0.4963 0.20773 0.64293 0.0
O850 O 0.5098 0.10744 0.65933 0.0
H851 H 0.56144 0.14452 0.71699 0.0
H852 H 0.51819 0.09625 0.71509 0.0
H853 H 0.54781 0.09066 0.72703 0.0
H854 H 0.56967 0.11491 0.72806 0.0
H855 H 0.53171 0.14948 0.70501 0.0
H856 H 0.4893 0.11664 0.76385 0.0
H857 H 0.46623 0.09401 0.75904 0.0
O858 O 0.50124 0.10407 0.6874 0.0
C859 C 0.47098 0.13132 0.67327 0.0
C860 C 0.46781 0.09566 0.73083 0.0
C861 C 0.4855 0.11296 0.75064 0.0
N862 N 0.48888 0.11621 0.71942 0.0
C863 C 0.47613 0.10385 0.71666 0.0
C864 C 0.49354 0.12087 0.73614 0.0
C865 C 0.47257 0.10026 0.74793 0.0
C866 C 0.51553 0.1698 0.65642 0.0
N867 N 0.50331 0.15804 0.65047 0.0
C868 C 0.51321 0.18783 0.6538 0.0
C869 C 0.49827 0.19379 0.64503 0.0
C870 C 0.48588 0.18172 0.63899 0.0
C871 C 0.48863 0.16379 0.64185 0.0
C872 C 0.50736 0.13281 0.59971 0.0
C873 C 0.49051 0.11451 0.62629 0.0
C874 C 0.51048 0.13674 0.61738 0.0
N875 N 0.50203 0.12768 0.6304 0.0
C876 C 0.48708 0.11021 0.60877 0.0
C877 C 0.49557 0.11945 0.59541 0.0
C878 C 0.5058 0.09784 0.6725 0.0
C879 C 0.55202 0.13385 0.71665 0.0
C880 C 0.52765 0.10684 0.71542 0.0
C881 C 0.54439 0.10361 0.72225 0.0
C882 C 0.55664 0.11723 0.72283 0.0
N883 N 0.52321 0.12318 0.7094 0.0
C884 C 0.53515 0.1366 0.70993 0.0
Co885 Co 0.87288 0.51415 0.6522 0.0
Co886 Co 0.87863 0.50143 0.69525 0.0
O887 O 0.86729 0.51572 0.67719 0.0
C888 C 0.87782 0.55234 0.65876 0.0
O889 O 0.88892 0.54841 0.67139 0.0
C890 C 0.84058 0.49554 0.70124 0.0
O891 O 0.83876 0.49334 0.68422 0.0
O892 O 0.87377 0.47938 0.68186 0.0
O893 O 0.87569 0.48812 0.6537 0.0
H894 H 0.91919 0.45443 0.71781 0.0
H895 H 0.84058 0.5329 0.66342 0.0
O896 O 0.8702 0.54022 0.65007 0.0
H897 H 0.82007 0.48452 0.6254 0.0
H898 H 0.86525 0.53017 0.58842 0.0
H899 H 0.89936 0.495 0.63087 0.0
H900 H 0.85173 0.48885 0.63093 0.0
H901 H 0.8583 0.53127 0.62009 0.0
O902 O 0.85564 0.49887 0.70776 0.0
H903 H 0.90501 0.47273 0.69509 0.0
H904 H 0.87573 0.49964 0.73433 0.0
H905 H 0.90666 0.49338 0.59931 0.0
H906 H 0.8088 0.52916 0.6581 0.0
H907 H 0.88953 0.51106 0.57784 0.0
H908 H 0.79837 0.50478 0.63901 0.0
O909 O 0.89846 0.5169 0.65701 0.0
H910 H 0.86304 0.5602 0.72109 0.0
H911 H 0.91018 0.51641 0.7132 0.0
H912 H 0.91652 0.54398 0.72905 0.0
H913 H 0.89283 0.5661 0.73311 0.0
H914 H 0.85734 0.53252 0.70517 0.0
H915 H 0.88947 0.48151 0.75745 0.0
H916 H 0.91143 0.45877 0.74924 0.0
O917 O 0.90193 0.50375 0.68325 0.0
C918 C 0.87474 0.47617 0.66543 0.0
C919 C 0.90968 0.46433 0.72155 0.0
C920 C 0.89298 0.47951 0.7438 0.0
N921 N 0.88965 0.48731 0.71339 0.0
C922 C 0.90164 0.47476 0.70876 0.0
C923 C 0.88521 0.4897 0.73065 0.0
C924 C 0.90531 0.46676 0.73919 0.0
C925 C 0.83615 0.52238 0.65495 0.0
N926 N 0.848 0.51116 0.64743 0.0
C927 C 0.81813 0.52027 0.65205 0.0
C928 C 0.81229 0.50658 0.64136 0.0
C929 C 0.82446 0.4952 0.63373 0.0
C930 C 0.84237 0.49768 0.63695 0.0
C931 C 0.87276 0.52236 0.59764 0.0
C932 C 0.89174 0.5026 0.62159 0.0
C933 C 0.8689 0.52294 0.61558 0.0
N934 N 0.87828 0.51303 0.62729 0.0
C935 C 0.89598 0.50169 0.60374 0.0
C936 C 0.88639 0.51163 0.59171 0.0
C937 C 0.90809 0.5107 0.66926 0.0
C938 C 0.87347 0.55066 0.71942 0.0
C939 C 0.89984 0.52601 0.71481 0.0
C940 C 0.90349 0.54157 0.72386 0.0
C941 C 0.89019 0.55397 0.72615 0.0
N942 N 0.88341 0.52285 0.70827 0.0
C943 C 0.8703 0.53494 0.71047 0.0
Co944 Co 0.34627 0.49046 0.12683 0.0
Co945 Co 0.30187 0.49659 0.12437 0.0
O946 O 0.32238 0.48464 0.13398 0.0
C947 C 0.34528 0.45172 0.12273 0.0
O948 O 0.33123 0.45361 0.11288 0.0
C949 C 0.29591 0.49912 0.16281 0.0
O950 O 0.31146 0.50649 0.16429 0.0
O951 O 0.31176 0.51987 0.13116 0.0
O952 O 0.34026 0.51594 0.12434 0.0
H953 H 0.27023 0.54289 0.08944 0.0
H954 H 0.34029 0.47054 0.15982 0.0
O955 O 0.35289 0.46513 0.12928 0.0
H956 H 0.37136 0.52457 0.17774 0.0
H957 H 0.41221 0.48532 0.12968 0.0
H958 H 0.36213 0.5132 0.09938 0.0
H959 H 0.36464 0.51902 0.14652 0.0
H960 H 0.38175 0.47887 0.13881 0.0
O961 O 0.29009 0.49452 0.14779 0.0
H962 H 0.29621 0.52746 0.10122 0.0
H963 H 0.2632 0.49143 0.12827 0.0
H964 H 0.39236 0.52011 0.0899 0.0
H965 H 0.34693 0.47548 0.19119 0.0
H966 H 0.41766 0.50612 0.10509 0.0
H967 H 0.36253 0.50268 0.20032 0.0
O968 O 0.34011 0.48669 0.10172 0.0
H969 H 0.2861 0.43318 0.13423 0.0
H970 H 0.28602 0.48199 0.09155 0.0
H971 H 0.27459 0.45298 0.08264 0.0
H972 H 0.27455 0.42833 0.10407 0.0
H973 H 0.29756 0.46236 0.14255 0.0
H974 H 0.23686 0.50656 0.11691 0.0
H975 H 0.24029 0.53244 0.09728 0.0
O976 O 0.31318 0.49871 0.10062 0.0
C977 C 0.32718 0.5257 0.12818 0.0
C978 C 0.26856 0.53159 0.09793 0.0
C979 C 0.24983 0.51122 0.11337 0.0
N980 N 0.28122 0.50847 0.11528 0.0
C981 C 0.28323 0.52277 0.1046 0.0
C982 C 0.2648 0.50273 0.11979 0.0
C983 C 0.25177 0.52573 0.10235 0.0
C984 C 0.34724 0.48232 0.16368 0.0
N985 N 0.35216 0.49442 0.15134 0.0
C986 C 0.3509 0.48508 0.18146 0.0
C987 C 0.35963 0.50036 0.18658 0.0
C988 C 0.36458 0.51265 0.17392 0.0
C989 C 0.36071 0.50945 0.15626 0.0
C990 C 0.4013 0.49152 0.12297 0.0
C991 C 0.37307 0.50713 0.10612 0.0
C992 C 0.38402 0.4879 0.12807 0.0
N993 N 0.37019 0.49576 0.11972 0.0
C994 C 0.39016 0.51106 0.10066 0.0
C995 C 0.40435 0.5032 0.10918 0.0
C996 C 0.32706 0.49286 0.09319 0.0
C997 C 0.286 0.44383 0.12479 0.0
C998 C 0.2861 0.47132 0.10094 0.0
C999 C 0.27958 0.45493 0.09583 0.0
C1000 C 0.27955 0.44111 0.10786 0.0
N1001 N 0.29238 0.47389 0.11759 0.0
C1002 C 0.29241 0.4604 0.12945 0.0
Co1003 Co 0.34276 0.51601 0.86951 0.0
Co1004 Co 0.30077 0.49877 0.87325 0.0
O1005 O 0.31753 0.51631 0.86466 0.0
C1006 C 0.34815 0.55077 0.88603 0.0
O1007 O 0.35423 0.54219 0.89972 0.0
C1008 C 0.29636 0.49773 0.83458 0.0
O1009 O 0.31356 0.49795 0.8331 0.0
O1010 O 0.31634 0.47896 0.86606 0.0
O1011 O 0.34378 0.49002 0.86593 0.0
H1012 H 0.28207 0.44469 0.90631 0.0
H1013 H 0.32828 0.5402 0.84259 0.0
O1014 O 0.34211 0.54227 0.87288 0.0
H1015 H 0.37086 0.50293 0.81094 0.0
H1016 H 0.40488 0.53869 0.86477 0.0
H1017 H 0.36636 0.4934 0.89068 0.0
H1018 H 0.36619 0.49924 0.84281 0.0
H1019 H 0.37305 0.5386 0.85856 0.0
O1020 O 0.28916 0.49813 0.84969 0.0
H1021 H 0.30315 0.46688 0.89559 0.0
H1022 H 0.26216 0.4936 0.86869 0.0
H1023 H 0.39814 0.49295 0.89717 0.0
H1024 H 0.33269 0.54451 0.81076 0.0
H1025 H 0.41763 0.51572 0.88418 0.0
H1026 H 0.35405 0.52574 0.79469 0.0
O1027 O 0.33829 0.51222 0.89519 0.0
H1028 H 0.26849 0.55578 0.86467 0.0
H1029 H 0.28129 0.50761 0.90615 0.0
H1030 H 0.26216 0.53206 0.91552 0.0
H1031 H 0.25559 0.55634 0.89468 0.0
H1032 H 0.28768 0.53114 0.8559 0.0
H1033 H 0.24066 0.47162 0.87899 0.0
H1034 H 0.25056 0.44698 0.898 0.0
O1035 O 0.31194 0.49897 0.89686 0.0
C1036 C 0.33295 0.47729 0.86444 0.0
C1037 C 0.27758 0.45538 0.89806 0.0
C1038 C 0.25434 0.47049 0.88271 0.0
N1039 N 0.28389 0.48157 0.8816 0.0
C1040 C 0.28945 0.46801 0.89199 0.0
C1041 C 0.26659 0.48287 0.87688 0.0
C1042 C 0.25991 0.45667 0.89338 0.0
C1043 C 0.33772 0.53209 0.83573 0.0
N1044 N 0.34696 0.51946 0.84456 0.0
C1045 C 0.34011 0.53454 0.81769 0.0
C1046 C 0.35207 0.52399 0.80868 0.0
C1047 C 0.36149 0.51117 0.81778 0.0
C1048 C 0.35873 0.50907 0.83582 0.0
C1049 C 0.39653 0.52868 0.87049 0.0
C1050 C 0.37477 0.50332 0.88493 0.0
C1051 C 0.3785 0.52857 0.86703 0.0
N1052 N 0.36787 0.51597 0.87422 0.0
C1053 C 0.39275 0.50301 0.88867 0.0
C1054 C 0.40367 0.5158 0.88139 0.0
C1055 C 0.326 0.50477 0.90388 0.0
C1056 C 0.27121 0.54525 0.87385 0.0
C1057 C 0.27857 0.51817 0.89703 0.0
C1058 C 0.26769 0.53196 0.9024 0.0
C1059 C 0.264 0.54557 0.8907 0.0
N1060 N 0.28552 0.51791 0.88046 0.0
C1061 C 0.28203 0.53125 0.86894 0.0
Co1062 Co 0.4939 0.34636 0.87596 0.0
Co1063 Co 0.50457 0.3024 0.87831 0.0
O1064 O 0.49057 0.32184 0.86869 0.0
C1065 C 0.45442 0.34168 0.87246 0.0
O1066 O 0.45587 0.32486 0.86903 0.0
C1067 C 0.50725 0.29717 0.8396 0.0
O1068 O 0.51097 0.31394 0.83783 0.0
O1069 O 0.52695 0.31471 0.8723 0.0
O1070 O 0.51981 0.3428 0.8778 0.0
H1071 H 0.55299 0.27558 0.91438 0.0
H1072 H 0.47445 0.33826 0.84286 0.0
O1073 O 0.46797 0.35122 0.87494 0.0
H1074 H 0.52414 0.3758 0.82496 0.0
H1075 H 0.48293 0.41166 0.8738 0.0
H1076 H 0.51519 0.36393 0.90353 0.0
H1077 H 0.51986 0.36795 0.85611 0.0
H1078 H 0.47916 0.38085 0.86437 0.0
O1079 O 0.50462 0.29066 0.85479 0.0
H1080 H 0.53513 0.29985 0.90238 0.0
H1081 H 0.50376 0.2634 0.87397 0.0
H1082 H 0.51949 0.39456 0.91327 0.0
H1083 H 0.47811 0.34597 0.81165 0.0
H1084 H 0.50329 0.41868 0.89836 0.0
H1085 H 0.50313 0.36484 0.80248 0.0
O1086 O 0.4912 0.33971 0.90103 0.0
H1087 H 0.44434 0.27823 0.86567 0.0
H1088 H 0.49063 0.28478 0.91054 0.0
H1089 H 0.46305 0.2696 0.91822 0.0
H1090 H 0.43967 0.26619 0.89567 0.0
H1091 H 0.472 0.2936 0.85866 0.0
H1092 H 0.52137 0.23875 0.88554 0.0
H1093 H 0.54614 0.24477 0.90596 0.0
O1094 O 0.50473 0.3135 0.90223 0.0
C1095 C 0.53108 0.33074 0.87495 0.0
C1096 C 0.5422 0.27279 0.90552 0.0
C1097 C 0.52447 0.25212 0.88932 0.0
N1098 N 0.51836 0.28304 0.88756 0.0
C1099 C 0.53202 0.28647 0.89872 0.0
C1100 C 0.51458 0.26613 0.88277 0.0
C1101 C 0.53836 0.25551 0.90078 0.0
C1102 C 0.48518 0.34672 0.83909 0.0
N1103 N 0.49673 0.35287 0.85141 0.0
C1104 C 0.48727 0.35093 0.82134 0.0
C1105 C 0.50134 0.36149 0.81619 0.0
C1106 C 0.51313 0.36763 0.8288 0.0
C1107 C 0.51064 0.36312 0.84642 0.0
C1108 C 0.49012 0.40127 0.88035 0.0
C1109 C 0.50823 0.37437 0.89686 0.0
C1110 C 0.48802 0.3838 0.87509 0.0
N1111 N 0.49713 0.37062 0.88324 0.0
C1112 C 0.51066 0.39168 0.90248 0.0
C1113 C 0.50154 0.4052 0.89413 0.0
C1114 C 0.49805 0.32704 0.90959 0.0
C1115 C 0.45441 0.27966 0.87562 0.0
C1116 C 0.48043 0.28361 0.90074 0.0
C1117 C 0.46488 0.27487 0.90512 0.0
C1118 C 0.45179 0.27293 0.89246 0.0
N1119 N 0.48288 0.29027 0.88423 0.0
C1120 C 0.47013 0.28831 0.87172 0.0
Co1121 Co 0.65801 0.48847 0.86784 0.0
Co1122 Co 0.70143 0.49976 0.87322 0.0
O1123 O 0.68293 0.48529 0.86275 0.0
C1124 C 0.66295 0.45021 0.87447 0.0
O1125 O 0.67622 0.45393 0.88488 0.0
C1126 C 0.70842 0.50176 0.83502 0.0
O1127 O 0.69177 0.50578 0.83287 0.0
O1128 O 0.68936 0.52181 0.86582 0.0
O1129 O 0.6608 0.51454 0.8686 0.0
H1130 H 0.72572 0.54957 0.90924 0.0
H1131 H 0.66891 0.46733 0.83694 0.0
O1132 O 0.65449 0.46246 0.86684 0.0
H1133 H 0.63265 0.51543 0.81294 0.0
H1134 H 0.59348 0.47516 0.86117 0.0
H1135 H 0.63768 0.51089 0.89241 0.0
H1136 H 0.63765 0.51293 0.84488 0.0
H1137 H 0.62505 0.47188 0.85447 0.0
O1138 O 0.71452 0.49911 0.8504 0.0
H1139 H 0.70232 0.5312 0.89631 0.0
H1140 H 0.74057 0.49906 0.87135 0.0
H1141 H 0.60624 0.51469 0.89942 0.0
H1142 H 0.66409 0.46922 0.80491 0.0
H1143 H 0.5839 0.49674 0.88375 0.0
H1144 H 0.6459 0.49345 0.79272 0.0
O1145 O 0.66263 0.4871 0.8936 0.0
H1146 H 0.72488 0.43858 0.86468 0.0
H1147 H 0.71709 0.48717 0.90692 0.0
H1148 H 0.73126 0.45969 0.91666 0.0
H1149 H 0.73527 0.43516 0.89545 0.0
H1150 H 0.71063 0.46623 0.85553 0.0
H1151 H 0.76439 0.51717 0.88387 0.0
H1152 H 0.75703 0.54259 0.90303 0.0
O1153 O 0.68875 0.50065 0.89626 0.0
C1154 C 0.67308 0.52571 0.8663 0.0
C1155 C 0.7291 0.53849 0.90096 0.0
C1156 C 0.75081 0.52033 0.8867 0.0
N1157 N 0.72008 0.51399 0.88322 0.0
C1158 C 0.71591 0.52802 0.89365 0.0
C1159 C 0.73726 0.51014 0.87962 0.0
C1160 C 0.74666 0.53458 0.89746 0.0
C1161 C 0.66083 0.4778 0.83174 0.0
N1162 N 0.65354 0.48997 0.84277 0.0
C1163 C 0.65821 0.47885 0.81359 0.0
C1164 C 0.64802 0.49247 0.80676 0.0
C1165 C 0.64059 0.5048 0.81809 0.0
C1166 C 0.64351 0.50334 0.83616 0.0
C1167 C 0.60309 0.48308 0.86807 0.0
C1168 C 0.62803 0.50311 0.88546 0.0
C1169 C 0.62098 0.48125 0.86436 0.0
N1170 N 0.63318 0.49128 0.87295 0.0
C1171 C 0.61025 0.50528 0.88952 0.0
C1172 C 0.59772 0.4952 0.88073 0.0
C1173 C 0.67471 0.49421 0.90283 0.0
C1174 C 0.72326 0.44919 0.87402 0.0
C1175 C 0.71874 0.47654 0.89762 0.0
C1176 C 0.72681 0.46102 0.90321 0.0
C1177 C 0.72906 0.44727 0.8913 0.0
N1178 N 0.71311 0.47834 0.88065 0.0
C1179 C 0.71526 0.46491 0.86891 0.0
Co1180 Co 0.50501 0.65567 0.87284 0.0
Co1181 Co 0.50102 0.70032 0.87871 0.0
O1182 O 0.51138 0.67985 0.86728 0.0
C1183 C 0.54377 0.65478 0.87741 0.0
O1184 O 0.54237 0.66744 0.88906 0.0
C1185 C 0.4956 0.70795 0.84083 0.0
O1186 O 0.48815 0.69245 0.83921 0.0
O1187 O 0.47672 0.69159 0.87384 0.0
O1188 O 0.47984 0.66221 0.87583 0.0
H1189 H 0.45961 0.7318 0.91946 0.0
H1190 H 0.52513 0.66345 0.84032 0.0
O1191 O 0.53017 0.64863 0.86981 0.0
H1192 H 0.47027 0.63524 0.82031 0.0
H1193 H 0.50854 0.59 0.86524 0.0
H1194 H 0.48169 0.63845 0.89898 0.0
H1195 H 0.47596 0.63961 0.85193 0.0
H1196 H 0.51577 0.62087 0.85836 0.0
O1197 O 0.50128 0.71308 0.85572 0.0
H1198 H 0.47292 0.70589 0.90516 0.0
H1199 H 0.50703 0.73897 0.8758 0.0
H1200 H 0.474 0.60779 0.90622 0.0
H1201 H 0.52004 0.65917 0.80857 0.0
H1202 H 0.48747 0.58331 0.88929 0.0
H1203 H 0.49242 0.64502 0.79839 0.0
O1204 O 0.50879 0.65979 0.89844 0.0
H1205 H 0.56388 0.71371 0.86338 0.0
H1206 H 0.51918 0.71491 0.91032 0.0
H1207 H 0.54936 0.72484 0.9168 0.0
H1208 H 0.57195 0.72431 0.89321 0.0
H1209 H 0.53358 0.70374 0.85754 0.0
H1210 H 0.49398 0.76524 0.88965 0.0
H1211 H 0.47015 0.76173 0.91172 0.0
O1212 O 0.50081 0.68803 0.90197 0.0
C1213 C 0.47048 0.67605 0.87477 0.0
C1214 C 0.47003 0.73349 0.9099 0.0
C1215 C 0.4893 0.75226 0.89316 0.0
N1216 N 0.49082 0.72091 0.88976 0.0
C1217 C 0.47764 0.71887 0.9018 0.0
C1218 C 0.4966 0.73734 0.88532 0.0
C1219 C 0.47593 0.75028 0.90554 0.0
C1220 C 0.51316 0.65712 0.836 0.0
N1221 N 0.50091 0.65168 0.84797 0.0
C1222 C 0.51032 0.6548 0.818 0.0
C1223 C 0.4948 0.64688 0.81229 0.0
C1224 C 0.48237 0.6414 0.82459 0.0
C1225 C 0.48565 0.64394 0.84248 0.0
C1226 C 0.50257 0.60056 0.87269 0.0
C1227 C 0.48754 0.62788 0.89149 0.0
C1228 C 0.50664 0.61806 0.86888 0.0
N1229 N 0.49908 0.63145 0.87819 0.0
C1230 C 0.48316 0.61054 0.89568 0.0
C1231 C 0.49074 0.59681 0.88618 0.0
C1232 C 0.50498 0.67297 0.90811 0.0
C1233 C 0.55415 0.71402 0.87377 0.0
C1234 C 0.52896 0.71453 0.90003 0.0
C1235 C 0.54601 0.72023 0.90375 0.0
C1236 C 0.55868 0.71995 0.89051 0.0
N1237 N 0.52461 0.70874 0.88358 0.0
C1238 C 0.53696 0.70844 0.87053 0.0
Co1239 Co 0.65484 0.50936 0.12518 0.0
Co1240 Co 0.69905 0.50219 0.12191 0.0
O1241 O 0.67899 0.51459 0.13199 0.0
C1242 C 0.6565 0.54821 0.12186 0.0
O1243 O 0.67056 0.54633 0.11201 0.0
C1244 C 0.70519 0.49978 0.16026 0.0
O1245 O 0.68901 0.49396 0.16187 0.0
O1246 O 0.68871 0.47914 0.12873 0.0
O1247 O 0.66028 0.48377 0.12219 0.0
H1248 H 0.72882 0.45533 0.08607 0.0
H1249 H 0.66158 0.52879 0.15831 0.0
O1250 O 0.6487 0.53477 0.1281 0.0
H1251 H 0.62988 0.47506 0.17604 0.0
H1252 H 0.58906 0.51568 0.12922 0.0
H1253 H 0.63811 0.48739 0.0976 0.0
H1254 H 0.63629 0.48085 0.14478 0.0
H1255 H 0.61977 0.5214 0.13796 0.0
O1256 O 0.71131 0.50361 0.14514 0.0
H1257 H 0.70347 0.47138 0.09841 0.0
H1258 H 0.7379 0.50633 0.1251 0.0
H1259 H 0.6076 0.48121 0.08852 0.0
H1260 H 0.65525 0.52361 0.1897 0.0
H1261 H 0.58282 0.4954 0.10438 0.0
H1262 H 0.63935 0.49655 0.19874 0.0
O1263 O 0.66071 0.51338 0.10005 0.0
H1264 H 0.7167 0.56503 0.13217 0.0
H1265 H 0.71468 0.51671 0.08895 0.0
H1266 H 0.72674 0.5455 0.08015 0.0
H1267 H 0.72783 0.5699 0.10185 0.0
H1268 H 0.7046 0.53608 0.14037 0.0
H1269 H 0.76363 0.49057 0.11318 0.0
H1270 H 0.75916 0.46492 0.09344 0.0
O1271 O 0.68726 0.50059 0.09832 0.0
C1272 C 0.67316 0.47367 0.12581 0.0
C1273 C 0.73094 0.46653 0.0946 0.0
C1274 C 0.75047 0.48629 0.10984 0.0
N1275 N 0.71921 0.48986 0.11233 0.0
C1276 C 0.71663 0.47569 0.10159 0.0
C1277 C 0.73586 0.49514 0.11658 0.0
C1278 C 0.74796 0.4719 0.09876 0.0
C1279 C 0.65448 0.51708 0.16213 0.0
N1280 N 0.64924 0.50518 0.14972 0.0
C1281 C 0.65101 0.51418 0.17993 0.0
C1282 C 0.64211 0.49898 0.18499 0.0
C1283 C 0.6368 0.48691 0.17226 0.0
C1284 C 0.64051 0.49024 0.15459 0.0
C1285 C 0.59975 0.50939 0.12223 0.0
C1286 C 0.6274 0.49354 0.10463 0.0
C1287 C 0.61716 0.5126 0.12709 0.0
N1288 N 0.63072 0.50463 0.11838 0.0
C1289 C 0.61015 0.49003 0.0994 0.0
C1290 C 0.59625 0.49801 0.10829 0.0
C1291 C 0.67341 0.50691 0.0912 0.0
C1292 C 0.71634 0.55449 0.12261 0.0
C1293 C 0.71506 0.52728 0.09846 0.0
C1294 C 0.72194 0.54354 0.0934 0.0
C1295 C 0.72256 0.55722 0.10559 0.0
N1296 N 0.70901 0.5247 0.11519 0.0
C1297 C 0.70957 0.53805 0.1272 0.0
Co1298 Co 0.48554 0.65414 0.1306 0.0
Co1299 Co 0.49679 0.69763 0.12699 0.0
O1300 O 0.48292 0.67871 0.13721 0.0
C1301 C 0.44706 0.65858 0.12538 0.0
O1302 O 0.45032 0.67061 0.11343 0.0
C1303 C 0.50178 0.70293 0.1653 0.0
O1304 O 0.50735 0.68662 0.16634 0.0
O1305 O 0.51922 0.68499 0.13232 0.0
O1306 O 0.51145 0.65684 0.12769 0.0
H1307 H 0.54425 0.72366 0.08909 0.0
H1308 H 0.46679 0.66353 0.16351 0.0
O1309 O 0.45957 0.65092 0.13345 0.0
H1310 H 0.51653 0.62629 0.18204 0.0
H1311 H 0.47198 0.58953 0.13554 0.0
H1312 H 0.50554 0.63467 0.1033 0.0
H1313 H 0.51168 0.63288 0.15065 0.0
H1314 H 0.46968 0.62082 0.14381 0.0
O1315 O 0.49742 0.70945 0.15051 0.0
H1316 H 0.52651 0.69967 0.10181 0.0
H1317 H 0.49675 0.73661 0.13131 0.0
H1318 H 0.50836 0.60354 0.09469 0.0
H1319 H 0.47107 0.65714 0.19502 0.0
H1320 H 0.49149 0.58071 0.11087 0.0
H1321 H 0.49612 0.63844 0.20446 0.0
O1322 O 0.48263 0.65999 0.10524 0.0
H1323 H 0.43621 0.72036 0.14043 0.0
H1324 H 0.4825 0.71577 0.09526 0.0
H1325 H 0.45459 0.73061 0.08804 0.0
H1326 H 0.43122 0.73301 0.11074 0.0
H1327 H 0.46426 0.70549 0.14703 0.0
H1328 H 0.51427 0.76099 0.11903 0.0
H1329 H 0.53817 0.75458 0.0977 0.0
O1330 O 0.4961 0.68623 0.10325 0.0
C1331 C 0.52298 0.66882 0.12986 0.0
C1332 C 0.53385 0.72663 0.09834 0.0
C1333 C 0.51704 0.74757 0.11516 0.0
N1334 N 0.51054 0.71675 0.11719 0.0
C1335 C 0.52373 0.7131 0.10555 0.0
C1336 C 0.50719 0.73371 0.12211 0.0
C1337 C 0.53044 0.74397 0.10319 0.0
C1338 C 0.47762 0.65523 0.1675 0.0
N1339 N 0.4889 0.64849 0.15525 0.0
C1340 C 0.48002 0.65173 0.18537 0.0
C1341 C 0.49409 0.64125 0.19066 0.0
C1342 C 0.50556 0.63444 0.17809 0.0
C1343 C 0.50276 0.63824 0.16034 0.0
C1344 C 0.47944 0.59935 0.12843 0.0
C1345 C 0.49828 0.62481 0.1105 0.0
C1346 C 0.47817 0.61708 0.13303 0.0
N1347 N 0.48762 0.62954 0.12416 0.0
C1348 C 0.49987 0.6072 0.10552 0.0
C1349 C 0.49039 0.59441 0.11458 0.0
C1350 C 0.4893 0.67253 0.09629 0.0
C1351 C 0.4463 0.71943 0.13044 0.0
C1352 C 0.47237 0.71668 0.10517 0.0
C1353 C 0.45661 0.72515 0.10103 0.0
C1354 C 0.44351 0.7265 0.11377 0.0
N1355 N 0.47503 0.70981 0.12156 0.0
C1356 C 0.46224 0.71107 0.13411 0.0
Co1357 Co 0.51981 0.34446 0.13233 0.0
Co1358 Co 0.50561 0.30163 0.12825 0.0
O1359 O 0.52052 0.31965 0.13881 0.0
C1360 C 0.55786 0.33752 0.12635 0.0
O1361 O 0.5537 0.32596 0.11423 0.0
C1362 C 0.49953 0.29755 0.16653 0.0
O1363 O 0.4983 0.31472 0.16777 0.0
O1364 O 0.48402 0.31602 0.13231 0.0
O1365 O 0.49375 0.34381 0.12974 0.0
H1366 H 0.45811 0.27898 0.08829 0.0
H1367 H 0.53844 0.33371 0.16489 0.0
O1368 O 0.54598 0.3457 0.13484 0.0
H1369 H 0.49166 0.37417 0.18439 0.0
H1370 H 0.53837 0.40779 0.13764 0.0
H1371 H 0.50123 0.36562 0.10531 0.0
H1372 H 0.49549 0.36735 0.15291 0.0
H1373 H 0.53829 0.37637 0.14566 0.0
O1374 O 0.50243 0.29029 0.15172 0.0
H1375 H 0.47715 0.30162 0.10161 0.0
H1376 H 0.50225 0.26281 0.13295 0.0
H1377 H 0.50077 0.39694 0.09695 0.0
H1378 H 0.53518 0.34032 0.19648 0.0
H1379 H 0.51945 0.41828 0.11317 0.0
H1380 H 0.51162 0.36063 0.20641 0.0
O1381 O 0.52198 0.33867 0.10684 0.0
H1382 H 0.56339 0.27462 0.14542 0.0
H1383 H 0.51994 0.28136 0.09782 0.0
H1384 H 0.54693 0.26421 0.09243 0.0
H1385 H 0.56887 0.26072 0.11637 0.0
H1386 H 0.53629 0.2918 0.15015 0.0
H1387 H 0.48336 0.23978 0.12011 0.0
H1388 H 0.46115 0.24781 0.09755 0.0
O1389 O 0.50853 0.31243 0.1045 0.0
C1390 C 0.48141 0.33252 0.13086 0.0
C1391 C 0.46777 0.27532 0.09808 0.0
C1392 C 0.48192 0.25332 0.11595 0.0
N1393 N 0.49087 0.28353 0.11796 0.0
C1394 C 0.47862 0.28807 0.10563 0.0
C1395 C 0.49254 0.26642 0.12322 0.0
C1396 C 0.46947 0.25783 0.10329 0.0
C1397 C 0.52828 0.34272 0.16909 0.0
N1398 N 0.51722 0.3502 0.15706 0.0
C1399 C 0.52644 0.34634 0.187 0.0
C1400 C 0.5132 0.35772 0.19257 0.0
C1401 C 0.50198 0.3653 0.18022 0.0
C1402 C 0.50419 0.36135 0.16242 0.0
C1403 C 0.53012 0.39864 0.13052 0.0
C1404 C 0.50925 0.37484 0.11254 0.0
C1405 C 0.53004 0.38082 0.13498 0.0
N1406 N 0.51959 0.3692 0.1261 0.0
C1407 C 0.509 0.39255 0.1077 0.0
C1408 C 0.5195 0.40451 0.11679 0.0
C1409 C 0.51562 0.32607 0.09775 0.0
C1410 C 0.55393 0.27604 0.13489 0.0
C1411 C 0.52948 0.28002 0.10823 0.0
C1412 C 0.54471 0.27023 0.10514 0.0
C1413 C 0.557 0.26826 0.11858 0.0
N1414 N 0.52656 0.28761 0.12425 0.0
C1415 C 0.53854 0.28572 0.1375 0.0
C1416 C 0.13527 0.44366 0.32897 0.0
C1417 C 0.12475 0.45698 0.33627 0.0
C1418 C 0.13506 0.42667 0.33621 0.0
C1419 C 0.14152 0.39896 0.36519 0.0
H1420 H 0.09863 0.37909 0.38438 0.0
C1421 C 0.13894 0.3636 0.43117 0.0
C1422 C 0.12658 0.3502 0.43426 0.0
C1423 C 0.13968 0.37208 0.41494 0.0
C1424 C 0.11074 0.38413 0.37884 0.0
H1425 H 0.10497 0.46277 0.35598 0.0
H1426 H 0.10449 0.43344 0.36838 0.0
H1427 H 0.09691 0.40235 0.36244 0.0
H1428 H 0.10594 0.33453 0.42236 0.0
H1429 H 0.10717 0.34951 0.39387 0.0
H1430 H 0.15536 0.38124 0.38214 0.0
C1431 C 0.11294 0.43592 0.35718 0.0
C1432 C 0.10975 0.39758 0.36636 0.0
C1433 C 0.11336 0.45282 0.35019 0.0
C1434 C 0.11554 0.34488 0.42042 0.0
C1435 C 0.11621 0.35348 0.40413 0.0
C1436 C 0.14252 0.38551 0.37769 0.0
C1437 C 0.12403 0.42273 0.35056 0.0
C1438 C 0.12511 0.40569 0.36002 0.0
C1439 C 0.12806 0.36743 0.40134 0.0
C1440 C 0.12714 0.37851 0.38525 0.0
H1441 H 0.14417 0.44657 0.31824 0.0
H1442 H 0.14374 0.41674 0.33085 0.0
H1443 H 0.15359 0.40495 0.36057 0.0
H1444 H 0.14775 0.36794 0.4415 0.0
H1445 H 0.14879 0.38291 0.41338 0.0
C1446 C 0.64264 0.10937 0.43248 0.0
C1447 C 0.65497 0.12296 0.43394 0.0
C1448 C 0.63203 0.10804 0.41762 0.0
C1449 C 0.62301 0.12563 0.37271 0.0
H1450 H 0.57508 0.11519 0.38664 0.0
C1451 C 0.55797 0.13731 0.33203 0.0
C1452 C 0.5456 0.12369 0.33356 0.0
C1453 C 0.57396 0.13629 0.34121 0.0
C1454 C 0.58842 0.11795 0.38248 0.0
H1455 H 0.66668 0.14533 0.4208 0.0
H1456 H 0.64754 0.14348 0.39488 0.0
H1457 H 0.59814 0.11491 0.40852 0.0
H1458 H 0.54054 0.09786 0.34436 0.0
H1459 H 0.5684 0.09592 0.36002 0.0
H1460 H 0.61272 0.12924 0.34656 0.0
C1461 C 0.64635 0.13356 0.40503 0.0
C1462 C 0.60171 0.11769 0.39502 0.0
C1463 C 0.65731 0.13464 0.41983 0.0
C1464 C 0.54991 0.10853 0.34309 0.0
C1465 C 0.56579 0.10746 0.35208 0.0
C1466 C 0.60954 0.12605 0.36007 0.0
C1467 C 0.63311 0.12064 0.40411 0.0
C1468 C 0.61924 0.12122 0.39031 0.0
C1469 C 0.57761 0.12165 0.35192 0.0
C1470 C 0.59217 0.12192 0.36486 0.0
H1471 H 0.64072 0.10015 0.44318 0.0
H1472 H 0.62238 0.09757 0.41711 0.0
H1473 H 0.63636 0.12849 0.36867 0.0
H1474 H 0.55475 0.14918 0.32484 0.0
H1475 H 0.58285 0.14741 0.34093 0.0
C1476 C 0.88481 0.64721 0.42615 0.0
C1477 C 0.87126 0.64769 0.43871 0.0
C1478 C 0.88273 0.63746 0.41062 0.0
C1479 C 0.85809 0.59879 0.39599 0.0
H1480 H 0.87602 0.60952 0.34948 0.0
C1481 C 0.84899 0.5487 0.34193 0.0
C1482 C 0.86415 0.54453 0.33234 0.0
C1483 C 0.84811 0.5643 0.35151 0.0
C1484 C 0.87098 0.60636 0.36242 0.0
H1485 H 0.8444 0.63983 0.44419 0.0
H1486 H 0.84065 0.62331 0.41711 0.0
H1487 H 0.87807 0.63163 0.37296 0.0
H1488 H 0.88984 0.55363 0.3242 0.0
H1489 H 0.88859 0.58084 0.34146 0.0
H1490 H 0.85149 0.57351 0.38597 0.0
C1491 C 0.85307 0.62991 0.4194 0.0
C1492 C 0.87217 0.61899 0.37584 0.0
C1493 C 0.8552 0.63942 0.4349 0.0
C1494 C 0.87793 0.55676 0.33137 0.0
C1495 C 0.8772 0.5723 0.34127 0.0
C1496 C 0.85694 0.58626 0.38271 0.0
C1497 C 0.86703 0.62819 0.40741 0.0
C1498 C 0.86564 0.61532 0.39276 0.0
C1499 C 0.86259 0.5758 0.35212 0.0
C1500 C 0.86328 0.58985 0.36573 0.0
H1501 H 0.89732 0.6535 0.42876 0.0
H1502 H 0.89374 0.63638 0.40164 0.0
H1503 H 0.85341 0.5953 0.40899 0.0
H1504 H 0.83822 0.53941 0.34282 0.0
H1505 H 0.83646 0.56683 0.35931 0.0
C1506 C 0.33702 0.8798 0.41402 0.0
C1507 C 0.34335 0.86923 0.4278 0.0
C1508 C 0.34495 0.87916 0.39737 0.0
C1509 C 0.37783 0.85399 0.37051 0.0
H1510 H 0.39106 0.90017 0.35353 0.0
C1511 C 0.44305 0.88719 0.34304 0.0
C1512 C 0.44894 0.87459 0.33093 0.0
C1513 C 0.42573 0.88709 0.34894 0.0
C1514 C 0.38734 0.88715 0.35795 0.0
H1515 H 0.36217 0.84885 0.43456 0.0
H1516 H 0.37603 0.84796 0.40596 0.0
H1517 H 0.36825 0.89749 0.37579 0.0
H1518 H 0.44117 0.8526 0.31462 0.0
H1519 H 0.41056 0.85225 0.32512 0.0
H1520 H 0.39802 0.84381 0.35379 0.0
C1521 C 0.36489 0.85664 0.40776 0.0
C1522 C 0.37411 0.88559 0.37062 0.0
C1523 C 0.35704 0.85731 0.42431 0.0
C1524 C 0.43688 0.86249 0.32393 0.0
C1525 C 0.41944 0.86224 0.33002 0.0
C1526 C 0.39115 0.85557 0.35793 0.0
C1527 C 0.35928 0.86786 0.39418 0.0
C1528 C 0.36982 0.86906 0.37771 0.0
C1529 C 0.41383 0.87426 0.34298 0.0
C1530 C 0.39668 0.87225 0.35219 0.0
H1531 H 0.32643 0.88905 0.41626 0.0
H1532 H 0.34019 0.88785 0.38716 0.0
H1533 H 0.37455 0.84102 0.37538 0.0
H1534 H 0.45209 0.89672 0.34857 0.0
H1535 H 0.42204 0.89639 0.35908 0.0
C1536 C 0.12112 0.55833 0.6743 0.0
C1537 C 0.13346 0.54638 0.66754 0.0
C1538 C 0.1206 0.57564 0.66798 0.0
C1539 C 0.14508 0.60831 0.64096 0.0
H1540 H 0.09964 0.61829 0.62014 0.0
C1541 C 0.13731 0.63992 0.5739 0.0
C1542 C 0.12276 0.6506 0.57002 0.0
C1543 C 0.13924 0.63248 0.59053 0.0
C1544 C 0.11232 0.61606 0.62621 0.0
H1545 H 0.15578 0.54332 0.65016 0.0
H1546 H 0.15508 0.57337 0.63933 0.0
H1547 H 0.10222 0.59521 0.64219 0.0
H1548 H 0.09926 0.66261 0.58079 0.0
H1549 H 0.10252 0.64932 0.60999 0.0
H1550 H 0.15536 0.62845 0.62419 0.0
C1551 C 0.14574 0.56955 0.64938 0.0
C1552 C 0.1138 0.60282 0.63888 0.0
C1553 C 0.14606 0.55227 0.65545 0.0
C1554 C 0.11059 0.65441 0.58341 0.0
C1555 C 0.11242 0.64676 0.60008 0.0
C1556 C 0.1436 0.62157 0.62833 0.0
C1557 C 0.13264 0.58127 0.6551 0.0
C1558 C 0.13035 0.59823 0.64572 0.0
C1559 C 0.1266 0.63542 0.60369 0.0
C1560 C 0.12736 0.62496 0.62017 0.0
H1561 H 0.11121 0.55401 0.68357 0.0
H1562 H 0.11038 0.58441 0.67263 0.0
H1563 H 0.15796 0.60525 0.64622 0.0
H1564 H 0.14699 0.63684 0.5639 0.0
H1565 H 0.15017 0.62363 0.59274 0.0
C1566 C 0.3462 0.13789 0.5782 0.0
C1567 C 0.34594 0.12338 0.56684 0.0
C1568 C 0.35649 0.13752 0.59348 0.0
C1569 C 0.39508 0.11314 0.61141 0.0
H1570 H 0.38722 0.14278 0.65216 0.0
C1571 C 0.44422 0.11384 0.66785 0.0
C1572 C 0.45212 0.1304 0.66954 0.0
C1573 C 0.42814 0.11214 0.65913 0.0
C1574 C 0.38945 0.13435 0.64089 0.0
H1575 H 0.35495 0.09672 0.56291 0.0
H1576 H 0.37172 0.09541 0.59012 0.0
H1577 H 0.36445 0.1405 0.6295 0.0
H1578 H 0.44939 0.15822 0.66437 0.0
H1579 H 0.42085 0.15535 0.64956 0.0
H1580 H 0.41994 0.10687 0.62293 0.0
C1581 C 0.3649 0.1075 0.58698 0.0
C1582 C 0.37651 0.13313 0.62781 0.0
C1583 C 0.3551 0.1081 0.57148 0.0
C1584 C 0.44323 0.14539 0.66355 0.0
C1585 C 0.42699 0.14373 0.65506 0.0
C1586 C 0.40774 0.11405 0.62462 0.0
C1587 C 0.36637 0.12244 0.59786 0.0
C1588 C 0.37926 0.1227 0.61272 0.0
C1589 C 0.41971 0.127 0.65211 0.0
C1590 C 0.40517 0.12482 0.63935 0.0
H1591 H 0.33935 0.14989 0.57472 0.0
H1592 H 0.35734 0.14937 0.60131 0.0
H1593 H 0.3981 0.10539 0.59986 0.0
H1594 H 0.45112 0.10209 0.67204 0.0
H1595 H 0.42279 0.09911 0.65696 0.0
C1596 C 0.86739 0.44402 0.66878 0.0
C1597 C 0.87545 0.45773 0.65933 0.0
C1598 C 0.86751 0.4268 0.66211 0.0
C1599 C 0.85925 0.39701 0.63507 0.0
H1600 H 0.90169 0.3789 0.61332 0.0
C1601 C 0.8601 0.35821 0.57099 0.0
C1602 C 0.87343 0.34586 0.56768 0.0
C1603 C 0.85935 0.36707 0.58703 0.0
C1604 C 0.88977 0.38344 0.61964 0.0
H1605 H 0.89053 0.46402 0.63594 0.0
H1606 H 0.89098 0.43423 0.6246 0.0
H1607 H 0.90347 0.40404 0.63308 0.0
H1608 H 0.89565 0.33212 0.57907 0.0
H1609 H 0.89444 0.34779 0.60718 0.0
H1610 H 0.8454 0.37702 0.62079 0.0
C1611 C 0.8845 0.43669 0.63705 0.0
C1612 C 0.89079 0.39794 0.63086 0.0
C1613 C 0.88408 0.45381 0.64348 0.0
C1614 C 0.88527 0.34163 0.58122 0.0
C1615 C 0.88462 0.35065 0.59727 0.0
C1616 C 0.8582 0.38255 0.62373 0.0
C1617 C 0.87609 0.42303 0.64616 0.0
C1618 C 0.87546 0.40532 0.63806 0.0
C1619 C 0.87198 0.36387 0.60012 0.0
C1620 C 0.87337 0.37609 0.61532 0.0
H1621 H 0.86062 0.44669 0.68102 0.0
H1622 H 0.86087 0.41648 0.66933 0.0
H1623 H 0.84723 0.40247 0.64043 0.0
H1624 H 0.85068 0.36165 0.56086 0.0
H1625 H 0.84956 0.37729 0.58868 0.0
C1626 C 0.55707 0.86113 0.67454 0.0
C1627 C 0.5471 0.87662 0.67419 0.0
C1628 C 0.57422 0.86105 0.66781 0.0
C1629 C 0.60992 0.88997 0.65021 0.0
H1630 H 0.61366 0.85403 0.61426 0.0
C1631 C 0.64199 0.90154 0.58339 0.0
C1632 C 0.6492 0.88741 0.57392 0.0
C1633 C 0.63501 0.89894 0.60017 0.0
C1634 C 0.6132 0.86392 0.6245 0.0
H1635 H 0.54709 0.90423 0.66748 0.0
H1636 H 0.57697 0.90427 0.65594 0.0
H1637 H 0.59108 0.85159 0.63667 0.0
H1638 H 0.65614 0.85976 0.57529 0.0
H1639 H 0.64405 0.85526 0.60469 0.0
H1640 H 0.63148 0.90278 0.63738 0.0
C1641 C 0.57188 0.89222 0.66157 0.0
C1642 C 0.6002 0.86251 0.6374 0.0
C1643 C 0.55476 0.89223 0.66814 0.0
C1644 C 0.65058 0.87092 0.58219 0.0
C1645 C 0.64355 0.86831 0.59899 0.0
C1646 C 0.62295 0.89137 0.63731 0.0
C1647 C 0.58158 0.87649 0.66067 0.0
C1648 C 0.59792 0.87589 0.64995 0.0
C1649 C 0.63508 0.88214 0.6079 0.0
C1650 C 0.62425 0.87874 0.62385 0.0
H1651 H 0.5512 0.84889 0.67887 0.0
H1652 H 0.58139 0.84875 0.66737 0.0
H1653 H 0.60869 0.90035 0.65989 0.0
H1654 H 0.64083 0.91444 0.57746 0.0
H1655 H 0.62848 0.90988 0.60653 0.0
C1656 C 0.33369 0.14262 0.44421 0.0
C1657 C 0.33567 0.12711 0.454 0.0
C1658 C 0.34164 0.14413 0.42766 0.0
C1659 C 0.36022 0.12033 0.39042 0.0
H1660 H 0.39909 0.15321 0.39209 0.0
C1661 C 0.42221 0.11117 0.34825 0.0
C1662 C 0.43349 0.12546 0.3454 0.0
C1663 C 0.40667 0.11341 0.35783 0.0
C1664 C 0.38806 0.1443 0.39094 0.0
H1665 H 0.34644 0.10076 0.45409 0.0
H1666 H 0.35973 0.10316 0.4249 0.0
H1667 H 0.37722 0.15349 0.41527 0.0
H1668 H 0.4368 0.15352 0.34879 0.0
H1669 H 0.40912 0.15776 0.36431 0.0
H1670 H 0.37089 0.11106 0.36613 0.0
C1671 C 0.35225 0.11416 0.43001 0.0
C1672 C 0.37554 0.14446 0.40437 0.0
C1673 C 0.34476 0.11283 0.44669 0.0
C1674 C 0.42835 0.14226 0.35101 0.0
C1675 C 0.41257 0.14461 0.3601 0.0
C1676 C 0.3725 0.12043 0.37672 0.0
C1677 C 0.35116 0.12996 0.42056 0.0
C1678 C 0.36189 0.13211 0.40452 0.0
C1679 C 0.40187 0.1301 0.36438 0.0
C1680 C 0.387 0.13198 0.37712 0.0
H1681 H 0.32684 0.15382 0.44974 0.0
H1682 H 0.3408 0.15648 0.42061 0.0
H1683 H 0.34973 0.11069 0.3903 0.0
H1684 H 0.42599 0.09805 0.34416 0.0
H1685 H 0.39904 0.10181 0.36094 0.0
C1686 C 0.89335 0.34617 0.45169 0.0
C1687 C 0.87877 0.33555 0.45544 0.0
C1688 C 0.89457 0.35494 0.4357 0.0
C1689 C 0.87749 0.36048 0.39085 0.0
H1690 H 0.88618 0.40969 0.40107 0.0
C1691 C 0.86834 0.41882 0.34128 0.0
C1692 C 0.87967 0.43322 0.34355 0.0
C1693 C 0.8695 0.40427 0.35257 0.0
C1694 C 0.88406 0.39598 0.39785 0.0
H1695 H 0.85457 0.32469 0.44516 0.0
H1696 H 0.85653 0.34044 0.41688 0.0
H1697 H 0.88581 0.38857 0.42482 0.0
H1698 H 0.90198 0.44325 0.35805 0.0
H1699 H 0.90466 0.41766 0.37706 0.0
H1700 H 0.87571 0.36816 0.36368 0.0
C1701 C 0.86711 0.34175 0.42632 0.0
C1702 C 0.88377 0.38386 0.41152 0.0
C1703 C 0.86597 0.33277 0.44243 0.0
C1704 C 0.89305 0.4323 0.35617 0.0
C1705 C 0.89444 0.41772 0.36714 0.0
C1706 C 0.87788 0.37271 0.377 0.0
C1707 C 0.88108 0.35349 0.42317 0.0
C1708 C 0.88074 0.36597 0.40821 0.0
C1709 C 0.88213 0.40395 0.36611 0.0
C1710 C 0.88145 0.39058 0.38037 0.0
H1711 H 0.90345 0.34834 0.46151 0.0
H1712 H 0.90565 0.36362 0.43348 0.0
H1713 H 0.87501 0.34675 0.38798 0.0
H1714 H 0.85782 0.41938 0.3317 0.0
H1715 H 0.85983 0.39389 0.35144 0.0
C1716 C 0.55934 0.85655 0.37072 0.0
C1717 C 0.55886 0.86798 0.35621 0.0
C1718 C 0.57483 0.8541 0.38017 0.0
C1719 C 0.61567 0.87693 0.39139 0.0
H1720 H 0.62504 0.83301 0.41559 0.0
C1721 C 0.66658 0.87074 0.44805 0.0
C1722 C 0.65851 0.86458 0.46352 0.0
C1723 C 0.65801 0.86917 0.43181 0.0
C1724 C 0.62271 0.84531 0.40878 0.0
H1725 H 0.57454 0.88523 0.33978 0.0
H1726 H 0.6018 0.88087 0.35638 0.0
H1727 H 0.60349 0.83375 0.39183 0.0
H1728 H 0.63558 0.8512 0.47392 0.0
H1729 H 0.62094 0.84809 0.44572 0.0
H1730 H 0.63458 0.88853 0.4088 0.0
C1731 C 0.59005 0.87395 0.36049 0.0
C1732 C 0.61032 0.84577 0.39524 0.0
C1733 C 0.57447 0.87639 0.35094 0.0
C1734 C 0.64214 0.85612 0.46231 0.0
C1735 C 0.63379 0.85423 0.44611 0.0
C1736 C 0.62821 0.87641 0.40485 0.0
C1737 C 0.59033 0.86297 0.37539 0.0
C1738 C 0.60608 0.86174 0.38692 0.0
C1739 C 0.64145 0.86103 0.43075 0.0
C1740 C 0.6313 0.86075 0.41413 0.0
H1741 H 0.5476 0.84978 0.37512 0.0
H1742 H 0.57442 0.84578 0.39172 0.0
H1743 H 0.61267 0.88946 0.38535 0.0
H1744 H 0.67916 0.87739 0.44857 0.0
H1745 H 0.66417 0.87453 0.42013 0.0
C1746 C 0.13268 0.66971 0.44406 0.0
C1747 C 0.12385 0.66016 0.4572 0.0
C1748 C 0.13284 0.6636 0.42664 0.0
C1749 C 0.10964 0.63364 0.39622 0.0
H1750 H 0.15552 0.62281 0.37685 0.0
C1751 C 0.14073 0.57303 0.35825 0.0
C1752 C 0.12763 0.5696 0.34568 0.0
C1753 C 0.14146 0.58924 0.36678 0.0
C1754 C 0.14259 0.62596 0.38193 0.0
H1755 H 0.10762 0.63724 0.46227 0.0
H1756 H 0.10771 0.62684 0.43215 0.0
H1757 H 0.15319 0.64228 0.40235 0.0
H1758 H 0.10589 0.58097 0.33117 0.0
H1759 H 0.10709 0.6094 0.34625 0.0
H1760 H 0.09907 0.61637 0.37677 0.0
C1761 C 0.11456 0.63896 0.43519 0.0
C1762 C 0.14126 0.63722 0.39643 0.0
C1763 C 0.11468 0.64483 0.45251 0.0
C1764 C 0.11607 0.58319 0.34088 0.0
C1765 C 0.11672 0.59944 0.34955 0.0
C1766 C 0.11095 0.62246 0.38172 0.0
C1767 C 0.12378 0.64813 0.42209 0.0
C1768 C 0.12483 0.64043 0.40422 0.0
C1769 C 0.12907 0.60241 0.36301 0.0
C1770 C 0.12751 0.6178 0.37497 0.0
H1771 H 0.13986 0.68157 0.44733 0.0
H1772 H 0.14011 0.67085 0.41677 0.0
H1773 H 0.09679 0.63606 0.40189 0.0
H1774 H 0.14995 0.56288 0.36212 0.0
H1775 H 0.15103 0.59096 0.37719 0.0
C1776 C 0.33452 0.87858 0.55082 0.0
C1777 C 0.33349 0.86355 0.54021 0.0
C1778 C 0.3442 0.8782 0.56647 0.0
C1779 C 0.38302 0.85589 0.58311 0.0
H1780 H 0.37338 0.8805 0.62671 0.0
C1781 C 0.43559 0.85867 0.63651 0.0
C1782 C 0.43815 0.8749 0.64491 0.0
C1783 C 0.42048 0.8556 0.62658 0.0
C1784 C 0.37631 0.87366 0.61457 0.0
H1785 H 0.3408 0.8362 0.53767 0.0
H1786 H 0.35749 0.83536 0.56516 0.0
H1787 H 0.35035 0.87804 0.60432 0.0
H1788 H 0.42661 0.90039 0.65019 0.0
H1789 H 0.40046 0.89535 0.63219 0.0
H1790 H 0.40906 0.85216 0.59267 0.0
C1791 C 0.35096 0.84746 0.56145 0.0
C1792 C 0.36309 0.87219 0.6018 0.0
C1793 C 0.34131 0.84787 0.54585 0.0
C1794 C 0.42493 0.88774 0.64386 0.0
C1795 C 0.40991 0.88479 0.6336 0.0
C1796 C 0.39621 0.85748 0.59572 0.0
C1797 C 0.35311 0.86281 0.57157 0.0
C1798 C 0.36636 0.86333 0.5859 0.0
C1799 C 0.40773 0.86883 0.62444 0.0
C1800 C 0.39311 0.86644 0.61161 0.0
H1801 H 0.32883 0.89089 0.54644 0.0
H1802 H 0.34575 0.89027 0.57388 0.0
H1803 H 0.38613 0.84937 0.57082 0.0
H1804 H 0.44545 0.84842 0.63734 0.0
H1805 H 0.41904 0.84295 0.6202 0.0
C1806 C 0.14144 0.43054 0.64116 0.0
C1807 C 0.12472 0.43557 0.64713 0.0
C1808 C 0.1438 0.41462 0.63241 0.0
C1809 C 0.12187 0.37261 0.61911 0.0
H1810 H 0.15159 0.37843 0.57809 0.0
C1811 C 0.11689 0.33218 0.55477 0.0
C1812 C 0.1323 0.32969 0.54497 0.0
C1813 C 0.1175 0.34106 0.57087 0.0
C1814 C 0.14355 0.37636 0.58967 0.0
H1815 H 0.09751 0.42755 0.64952 0.0
H1816 H 0.10142 0.39992 0.63348 0.0
H1817 H 0.1496 0.40188 0.59941 0.0
H1818 H 0.16047 0.33341 0.54442 0.0
H1819 H 0.16172 0.34849 0.5728 0.0
H1820 H 0.11521 0.34725 0.60858 0.0
C1821 C 0.11283 0.40808 0.63592 0.0
C1822 C 0.14239 0.38987 0.60197 0.0
C1823 C 0.11055 0.42394 0.64505 0.0
C1824 C 0.14848 0.33496 0.55198 0.0
C1825 C 0.14913 0.34376 0.56809 0.0
C1826 C 0.12294 0.35905 0.60665 0.0
C1827 C 0.1294 0.40351 0.62899 0.0
C1828 C 0.13144 0.38829 0.6168 0.0
C1829 C 0.13355 0.34768 0.57728 0.0
C1830 C 0.1337 0.36087 0.59171 0.0
H1831 H 0.15266 0.43916 0.64287 0.0
H1832 H 0.15685 0.4113 0.62778 0.0
H1833 H 0.11343 0.37087 0.63044 0.0
H1834 H 0.10424 0.32853 0.54932 0.0
H1835 H 0.10526 0.344 0.57752 0.0
C1836 C 0.57777 0.12194 0.65422 0.0
C1837 C 0.56314 0.13219 0.64945 0.0
C1838 C 0.59401 0.1244 0.64583 0.0
C1839 C 0.61835 0.1553 0.61643 0.0
H1840 H 0.63889 0.11292 0.59693 0.0
C1841 C 0.64995 0.15167 0.54873 0.0
C1842 C 0.66444 0.14064 0.54576 0.0
C1843 C 0.6423 0.15272 0.56535 0.0
C1844 C 0.63363 0.12488 0.6026 0.0
H1845 H 0.55433 0.15364 0.6328 0.0
H1846 H 0.58232 0.15778 0.61822 0.0
H1847 H 0.61625 0.11061 0.61953 0.0
H1848 H 0.68287 0.12271 0.558 0.0
H1849 H 0.66915 0.12424 0.58719 0.0
H1850 H 0.63492 0.16951 0.59863 0.0
C1851 C 0.58144 0.14794 0.62848 0.0
C1852 C 0.62064 0.12356 0.61557 0.0
C1853 C 0.56528 0.14542 0.63673 0.0
C1854 C 0.67175 0.13138 0.55997 0.0
C1855 C 0.66386 0.13217 0.57661 0.0
C1856 C 0.63124 0.15661 0.60341 0.0
C1857 C 0.59594 0.13728 0.63267 0.0
C1858 C 0.61232 0.13875 0.62207 0.0
C1859 C 0.6488 0.14255 0.57934 0.0
C1860 C 0.63848 0.14139 0.59586 0.0
H1861 H 0.57654 0.11168 0.66402 0.0
H1862 H 0.60497 0.11605 0.64942 0.0
H1863 H 0.61248 0.16726 0.62147 0.0
H1864 H 0.64414 0.15905 0.53805 0.0
H1865 H 0.63061 0.16071 0.56697 0.0
C1866 C 0.86058 0.57513 0.64277 0.0
C1867 C 0.87516 0.57079 0.65324 0.0
C1868 C 0.85905 0.59183 0.63538 0.0
C1869 C 0.88687 0.6266 0.61855 0.0
H1870 H 0.84187 0.64842 0.60865 0.0
C1871 C 0.87915 0.67526 0.56117 0.0
C1872 C 0.86612 0.66934 0.54951 0.0
C1873 C 0.87974 0.66879 0.57843 0.0
C1874 C 0.85458 0.64263 0.61144 0.0
H1875 H 0.89912 0.58084 0.66495 0.0
H1876 H 0.89655 0.61015 0.65174 0.0
H1877 H 0.844 0.62611 0.63164 0.0
H1878 H 0.84271 0.65337 0.54696 0.0
H1879 H 0.84357 0.64225 0.57688 0.0
H1880 H 0.89723 0.6423 0.59762 0.0
C1881 C 0.88631 0.60055 0.64931 0.0
C1882 C 0.85579 0.62985 0.62458 0.0
C1883 C 0.88774 0.58382 0.65692 0.0
C1884 C 0.85296 0.658 0.55568 0.0
C1885 C 0.85339 0.65177 0.5729 0.0
C1886 C 0.88566 0.63939 0.60539 0.0
C1887 C 0.87212 0.60459 0.63815 0.0
C1888 C 0.87177 0.62108 0.62768 0.0
C1889 C 0.86712 0.65658 0.5843 0.0
C1890 C 0.86931 0.64691 0.60113 0.0
H1891 H 0.8506 0.5654 0.63977 0.0
H1892 H 0.84807 0.59439 0.62667 0.0
H1893 H 0.89936 0.62004 0.62054 0.0
H1894 H 0.88949 0.68394 0.55662 0.0
H1895 H 0.89044 0.67277 0.58695 0.0
C1896 C 0.34895 0.41994 0.11447 0.0
C1897 C 0.35323 0.43418 0.12544 0.0
C1898 C 0.35817 0.40405 0.11583 0.0
C1899 C 0.38969 0.37908 0.14382 0.0
H1900 H 0.41066 0.3655 0.09937 0.0
C1901 C 0.45999 0.35449 0.11971 0.0
C1902 C 0.46322 0.33922 0.12956 0.0
C1903 C 0.44315 0.36155 0.11868 0.0
C1904 C 0.40469 0.36892 0.11185 0.0
H1905 H 0.36966 0.44257 0.14722 0.0
H1906 H 0.38565 0.41503 0.14955 0.0
H1907 H 0.38629 0.38632 0.09967 0.0
H1908 H 0.45127 0.31914 0.14587 0.0
H1909 H 0.42155 0.33199 0.14455 0.0
H1910 H 0.40892 0.36245 0.15601 0.0
C1911 C 0.3752 0.41602 0.13992 0.0
C1912 C 0.39066 0.38075 0.11203 0.0
C1913 C 0.36614 0.43189 0.13846 0.0
C1914 C 0.44912 0.33093 0.13818 0.0
C1915 C 0.43219 0.33826 0.13745 0.0
C1916 C 0.40367 0.36712 0.14362 0.0
C1917 C 0.37166 0.40207 0.12833 0.0
C1918 C 0.38351 0.38655 0.12805 0.0
C1919 C 0.4291 0.35366 0.12768 0.0
C1920 C 0.41178 0.36256 0.12768 0.0
H1921 H 0.33901 0.42128 0.10436 0.0
H1922 H 0.35511 0.39349 0.10678 0.0
H1923 H 0.3843 0.38317 0.15635 0.0
H1924 H 0.47051 0.3611 0.11277 0.0
H1925 H 0.44122 0.37357 0.11127 0.0
C1926 C 0.44143 0.67362 0.85994 0.0
C1927 C 0.45142 0.67339 0.87543 0.0
C1928 C 0.42452 0.6663 0.85977 0.0
C1929 C 0.38949 0.64697 0.88841 0.0
H1930 H 0.38694 0.61156 0.85183 0.0
C1931 C 0.35898 0.57912 0.89868 0.0
C1932 C 0.35188 0.56982 0.88437 0.0
C1933 C 0.36575 0.59603 0.89639 0.0
C1934 C 0.38707 0.62162 0.86191 0.0
H1935 H 0.45166 0.66628 0.90294 0.0
H1936 H 0.4222 0.65373 0.90281 0.0
H1937 H 0.40877 0.63474 0.84981 0.0
H1938 H 0.34504 0.57158 0.85672 0.0
H1939 H 0.35678 0.6012 0.85277 0.0
H1940 H 0.36835 0.63321 0.90097 0.0
C1941 C 0.42709 0.6597 0.89084 0.0
C1942 C 0.39964 0.63497 0.86074 0.0
C1943 C 0.44397 0.66686 0.89095 0.0
C1944 C 0.35051 0.57834 0.86801 0.0
C1945 C 0.35733 0.59528 0.86571 0.0
C1946 C 0.37689 0.63361 0.88958 0.0
C1947 C 0.41743 0.65868 0.87509 0.0
C1948 C 0.40148 0.64737 0.87434 0.0
C1949 C 0.3656 0.60407 0.87973 0.0
C1950 C 0.37603 0.62036 0.8767 0.0
H1951 H 0.44715 0.6783 0.84776 0.0
H1952 H 0.41737 0.66578 0.84746 0.0
H1953 H 0.39039 0.6565 0.89896 0.0
H1954 H 0.36015 0.57299 0.91148 0.0
H1955 H 0.37214 0.6023 0.90746 0.0
C1956 C 0.4343 0.36525 0.88279 0.0
C1957 C 0.43709 0.35036 0.87224 0.0
C1958 C 0.41873 0.37482 0.88144 0.0
C1959 C 0.38067 0.38789 0.88063 0.0
H1960 H 0.3742 0.40849 0.83442 0.0
C1961 C 0.33153 0.4445 0.86797 0.0
C1962 C 0.34033 0.4595 0.86165 0.0
C1963 C 0.33971 0.42801 0.8675 0.0
C1964 C 0.37565 0.40261 0.84732 0.0
H1965 H 0.4257 0.3335 0.8523 0.0
H1966 H 0.39849 0.35077 0.84947 0.0
H1967 H 0.39509 0.38428 0.83832 0.0
H1968 H 0.3641 0.46874 0.84888 0.0
H1969 H 0.3781 0.44 0.84765 0.0
H1970 H 0.36179 0.40669 0.88979 0.0
C1971 C 0.40831 0.35475 0.85899 0.0
C1972 C 0.3875 0.38873 0.84952 0.0
C1973 C 0.42379 0.34488 0.86065 0.0
C1974 C 0.35699 0.45749 0.85392 0.0
C1975 C 0.36498 0.441 0.85311 0.0
C1976 C 0.3686 0.40155 0.87837 0.0
C1977 C 0.40576 0.3699 0.86926 0.0
C1978 C 0.39058 0.3817 0.86632 0.0
C1979 C 0.35662 0.42619 0.86028 0.0
C1980 C 0.36647 0.40946 0.86182 0.0
H1981 H 0.44435 0.36974 0.89185 0.0
H1982 H 0.41717 0.38657 0.88936 0.0
H1983 H 0.38284 0.38266 0.8937 0.0
H1984 H 0.3187 0.44562 0.87404 0.0
H1985 H 0.33302 0.41676 0.87312 0.0
C1986 C 0.64384 0.42811 0.85958 0.0
C1987 C 0.65661 0.43191 0.87239 0.0
C1988 C 0.63596 0.41158 0.85884 0.0
C1989 C 0.62408 0.37598 0.88854 0.0
H1990 H 0.60277 0.35755 0.84601 0.0
C1991 C 0.56262 0.32799 0.86503 0.0
C1992 C 0.54978 0.33593 0.8757 0.0
C1993 C 0.57991 0.33451 0.86493 0.0
C1994 C 0.60891 0.36218 0.858 0.0
H1995 H 0.67201 0.42092 0.89371 0.0
H1996 H 0.65817 0.39186 0.89241 0.0
H1997 H 0.62693 0.37856 0.84387 0.0
H1998 H 0.54517 0.35604 0.89538 0.0
H1999 H 0.57492 0.36723 0.89526 0.0
H2000 H 0.60562 0.36012 0.90265 0.0
C2001 C 0.65414 0.40182 0.88306 0.0
C2002 C 0.62262 0.37438 0.85679 0.0
C2003 C 0.66211 0.41844 0.88377 0.0
C2004 C 0.5547 0.34979 0.88685 0.0
C2005 C 0.57186 0.35607 0.88695 0.0
C2006 C 0.61043 0.36375 0.88974 0.0
C2007 C 0.64062 0.39836 0.87088 0.0
C2008 C 0.62972 0.38213 0.87204 0.0
C2009 C 0.58462 0.34876 0.87579 0.0
C2010 C 0.60207 0.35746 0.8745 0.0
H2011 H 0.6394 0.43812 0.85048 0.0
H2012 H 0.62545 0.40956 0.84945 0.0
H2013 H 0.62918 0.38163 0.90057 0.0
H2014 H 0.55915 0.31727 0.85633 0.0
H2015 H 0.58949 0.32865 0.85617 0.0
C2016 C 0.66686 0.55525 0.87863 0.0
C2017 C 0.66758 0.54401 0.86403 0.0
C2018 C 0.65703 0.5708 0.87784 0.0
C2019 C 0.61741 0.58576 0.85574 0.0
H2020 H 0.62636 0.63036 0.87876 0.0
C2021 C 0.56361 0.63788 0.8576 0.0
C2022 C 0.56098 0.64661 0.87364 0.0
C2023 C 0.57895 0.62829 0.85461 0.0
C2024 C 0.62363 0.61794 0.87236 0.0
H2025 H 0.65975 0.54037 0.83696 0.0
H2026 H 0.64288 0.56768 0.83536 0.0
H2027 H 0.64992 0.60849 0.87658 0.0
H2028 H 0.57264 0.65287 0.89886 0.0
H2029 H 0.59924 0.63549 0.89396 0.0
H2030 H 0.59108 0.59454 0.85218 0.0
C2031 C 0.64969 0.56452 0.84746 0.0
C2032 C 0.63715 0.60547 0.87106 0.0
C2033 C 0.65945 0.549 0.84829 0.0
C2034 C 0.57436 0.64626 0.88636 0.0
C2035 C 0.58964 0.63636 0.88349 0.0
C2036 C 0.60394 0.59808 0.85716 0.0
C2037 C 0.64772 0.57518 0.86246 0.0
C2038 C 0.63414 0.58921 0.86277 0.0
C2039 C 0.59189 0.62685 0.86775 0.0
C2040 C 0.6068 0.61432 0.86553 0.0
H2041 H 0.6728 0.55139 0.89099 0.0
H2042 H 0.65565 0.57865 0.88964 0.0
H2043 H 0.61449 0.57319 0.8497 0.0
H2044 H 0.55363 0.63817 0.84743 0.0
H2045 H 0.58044 0.62161 0.84212 0.0
C2046 C 0.65429 0.58057 0.1153 0.0
C2047 C 0.64881 0.56582 0.12501 0.0
C2048 C 0.64553 0.59669 0.1171 0.0
C2049 C 0.61263 0.62067 0.14466 0.0
H2050 H 0.59692 0.63963 0.10005 0.0
C2051 C 0.54598 0.65028 0.1162 0.0
C2052 C 0.54152 0.66332 0.12848 0.0
C2053 C 0.5629 0.64338 0.11565 0.0
C2054 C 0.60138 0.63467 0.11263 0.0
H2055 H 0.63057 0.55672 0.145 0.0
H2056 H 0.61533 0.58456 0.14799 0.0
H2057 H 0.62024 0.61769 0.10055 0.0
H2058 H 0.55138 0.67989 0.14942 0.0
H2059 H 0.58127 0.66737 0.14878 0.0
H2060 H 0.59284 0.63679 0.15659 0.0
C2061 C 0.62642 0.58384 0.13907 0.0
C2062 C 0.61485 0.62219 0.11294 0.0
C2063 C 0.63506 0.56777 0.13721 0.0
C2064 C 0.55454 0.66985 0.13982 0.0
C2065 C 0.57156 0.66267 0.13948 0.0
C2066 C 0.59916 0.6332 0.14435 0.0
C2067 C 0.63125 0.59839 0.12876 0.0
C2068 C 0.62008 0.61445 0.12889 0.0
C2069 C 0.57581 0.64918 0.1275 0.0
C2070 C 0.59286 0.6397 0.12825 0.0
H2071 H 0.6649 0.57952 0.10586 0.0
H2072 H 0.64966 0.6077 0.10907 0.0
H2073 H 0.61659 0.61518 0.15719 0.0
H2074 H 0.53623 0.64513 0.10718 0.0
H2075 H 0.56563 0.63285 0.10645 0.0
C2076 C 0.33725 0.55331 0.11432 0.0
C2077 C 0.33058 0.54463 0.12915 0.0
C2078 C 0.34428 0.57019 0.11585 0.0
C2079 C 0.37029 0.59384 0.14653 0.0
H2080 H 0.3658 0.63293 0.11413 0.0
C2081 C 0.42387 0.64634 0.14494 0.0
C2082 C 0.42904 0.65212 0.12821 0.0
C2083 C 0.40794 0.6375 0.14723 0.0
C2084 C 0.36734 0.6221 0.12323 0.0
H2085 H 0.32541 0.54665 0.15704 0.0
H2086 H 0.33825 0.57618 0.1599 0.0
H2087 H 0.34403 0.60928 0.11372 0.0
H2088 H 0.42141 0.65396 0.10087 0.0
H2089 H 0.39413 0.63762 0.10451 0.0
H2090 H 0.39425 0.60545 0.15507 0.0
C2091 C 0.33764 0.57009 0.14704 0.0
C2092 C 0.35474 0.60867 0.12309 0.0
C2093 C 0.33024 0.55331 0.14541 0.0
C2094 C 0.41763 0.64971 0.11393 0.0
C2095 C 0.40191 0.6404 0.1161 0.0
C2096 C 0.38306 0.60701 0.14643 0.0
C2097 C 0.34516 0.57845 0.13235 0.0
C2098 C 0.35633 0.59425 0.1345 0.0
C2099 C 0.39709 0.63366 0.13271 0.0
C2100 C 0.38203 0.62115 0.13448 0.0
H2101 H 0.33782 0.54666 0.10172 0.0
H2102 H 0.35021 0.57623 0.10439 0.0
H2103 H 0.372 0.58271 0.15526 0.0
H2104 H 0.4324 0.64824 0.15619 0.0
H2105 H 0.40449 0.63312 0.16032 0.0
C2106 C 0.67286 0.44494 0.14164 0.0
C2107 C 0.66948 0.45474 0.12638 0.0
C2108 C 0.66626 0.42782 0.14325 0.0
C2109 C 0.64811 0.38987 0.11973 0.0
H2110 H 0.61179 0.38929 0.15543 0.0
C2111 C 0.58651 0.34681 0.11349 0.0
C2112 C 0.57615 0.3435 0.12837 0.0
C2113 C 0.60218 0.35631 0.11505 0.0
C2114 C 0.62217 0.38875 0.14571 0.0
H2115 H 0.65766 0.4543 0.1005 0.0
H2116 H 0.64674 0.42416 0.10301 0.0
H2117 H 0.63279 0.41321 0.15476 0.0
H2118 H 0.57467 0.34586 0.15668 0.0
H2119 H 0.60262 0.3612 0.15967 0.0
H2120 H 0.63758 0.36548 0.11055 0.0
C2121 C 0.65432 0.42966 0.11375 0.0
C2122 C 0.63419 0.40261 0.14533 0.0
C2123 C 0.66047 0.44688 0.11234 0.0
C2124 C 0.58241 0.34843 0.14499 0.0
C2125 C 0.59834 0.35743 0.14664 0.0
C2126 C 0.63635 0.37573 0.12035 0.0
C2127 C 0.65665 0.42019 0.12941 0.0
C2128 C 0.64684 0.40362 0.13197 0.0
C2129 C 0.60802 0.36232 0.13161 0.0
C2130 C 0.62272 0.37533 0.13292 0.0
H2131 H 0.67961 0.4509 0.15269 0.0
H2132 H 0.66807 0.42077 0.15549 0.0
H2133 H 0.65783 0.39039 0.10932 0.0
H2134 H 0.58183 0.34327 0.10051 0.0
H2135 H 0.609 0.35988 0.10309 0.0
C2136 C 0.06855 0.34583 0.49365 0.0
C2137 C 0.07651 0.32911 0.49342 0.0
C2138 C 0.05023 0.34744 0.49497 0.0
C2139 C 0.00949 0.32339 0.48618 0.0
H2140 H 0.98831 0.35135 0.52321 0.0
C2141 C 0.93774 0.313 0.50535 0.0
C2142 C 0.92725 0.32771 0.50928 0.0
C2143 C 0.95589 0.31467 0.50352 0.0
C2144 C 0.99399 0.3437 0.51263 0.0
H2145 H 0.07133 0.30103 0.49438 0.0
H2146 H 0.03962 0.30389 0.49619 0.0
H2147 H 0.02023 0.35214 0.51884 0.0
H2148 H 0.92782 0.35569 0.51488 0.0
H2149 H 0.95963 0.35866 0.51133 0.0
H2150 H 0.9835 0.31496 0.47979 0.0
C2151 C 0.04751 0.31572 0.49537 0.0
C2152 C 0.01225 0.34416 0.51014 0.0
C2153 C 0.06573 0.31411 0.49435 0.0
C2154 C 0.9355 0.34407 0.51189 0.0
C2155 C 0.95374 0.34578 0.50988 0.0
C2156 C 0.99131 0.32306 0.48852 0.0
C2157 C 0.03956 0.33237 0.49575 0.0
C2158 C 0.02017 0.33368 0.49715 0.0
C2159 C 0.96411 0.33113 0.50534 0.0
C2160 C 0.98335 0.33284 0.50206 0.0
H2161 H 0.07647 0.35766 0.4931 0.0
H2162 H 0.04439 0.36042 0.49522 0.0
H2163 H 0.01525 0.3154 0.47588 0.0
H2164 H 0.93192 0.30016 0.50335 0.0
H2165 H 0.96349 0.303 0.50052 0.0
C2166 C 0.68221 0.06803 0.51281 0.0
C2167 C 0.6706 0.0776 0.50208 0.0
C2168 C 0.68093 0.04978 0.51402 0.0
C2169 C 0.68382 0.01154 0.50488 0.0
H2170 H 0.63958 0.9862 0.50406 0.0
C2171 C 0.6827 0.93684 0.49631 0.0
C2172 C 0.67082 0.92703 0.50654 0.0
C2173 C 0.6814 0.9551 0.49536 0.0
C2174 C 0.65204 0.99309 0.50445 0.0
H2175 H 0.64822 0.07548 0.48454 0.0
H2176 H 0.64629 0.04347 0.48625 0.0
H2177 H 0.63951 0.01834 0.50427 0.0
H2178 H 0.64773 0.92885 0.52321 0.0
H2179 H 0.64583 0.96085 0.52205 0.0
H2180 H 0.69639 0.98649 0.50567 0.0
C2181 C 0.6562 0.05015 0.49399 0.0
C2182 C 0.65201 0.01151 0.50436 0.0
C2183 C 0.65736 0.0685 0.49294 0.0
C2184 C 0.65723 0.93596 0.51537 0.0
C2185 C 0.65605 0.95433 0.51458 0.0
C2186 C 0.68385 0.99321 0.50511 0.0
C2187 C 0.66816 0.04054 0.50435 0.0
C2188 C 0.66792 0.02096 0.50457 0.0
C2189 C 0.66831 0.96414 0.50478 0.0
C2190 C 0.66799 0.98371 0.50478 0.0
H2191 H 0.69242 0.07461 0.52024 0.0
H2192 H 0.69007 0.0429 0.52249 0.0
H2193 H 0.69635 0.01831 0.50476 0.0
H2194 H 0.69318 0.93047 0.48907 0.0
H2195 H 0.69078 0.96214 0.48729 0.0
C2196 C 0.9333 0.68095 0.49484 0.0
C2197 C 0.92169 0.66664 0.49639 0.0
C2198 C 0.95142 0.67837 0.49499 0.0
C2199 C 0.98585 0.65035 0.51167 0.0
H2200 H 0.01438 0.67443 0.47692 0.0
C2201 C 0.06259 0.65016 0.51263 0.0
C2202 C 0.07068 0.66629 0.50849 0.0
C2203 C 0.0444 0.64799 0.51052 0.0
C2204 C 0.00663 0.66772 0.48681 0.0
H2205 H 0.92014 0.63832 0.49949 0.0
H2206 H 0.95214 0.63386 0.50014 0.0
H2207 H 0.98251 0.67427 0.4739 0.0
H2208 H 0.0658 0.69293 0.4994 0.0
H2209 H 0.03435 0.68929 0.49621 0.0
H2210 H 0.00999 0.64444 0.52499 0.0
C2211 C 0.94698 0.64705 0.49861 0.0
C2212 C 0.98839 0.66754 0.48499 0.0
C2213 C 0.92872 0.64961 0.49815 0.0
C2214 C 0.06012 0.68028 0.50263 0.0
C2215 C 0.04203 0.67814 0.50063 0.0
C2216 C 0.00418 0.65065 0.51358 0.0
C2217 C 0.95846 0.66144 0.49695 0.0
C2218 C 0.9778 0.65924 0.49762 0.0
C2219 C 0.03396 0.66192 0.50426 0.0
C2220 C 0.01473 0.65977 0.50141 0.0
H2221 H 0.92844 0.69426 0.49357 0.0
H2222 H 0.95996 0.68972 0.49393 0.0
H2223 H 0.97794 0.64394 0.52163 0.0
H2224 H 0.07032 0.63908 0.51711 0.0
H2225 H 0.03861 0.63531 0.51339 0.0
C2226 C 0.33652 0.0599 0.50995 0.0
C2227 C 0.32416 0.07008 0.50071 0.0
C2228 C 0.33713 0.04165 0.50775 0.0
C2229 C 0.34169 0.00429 0.49418 0.0
H2230 H 0.29756 0.97928 0.48922 0.0
C2231 C 0.33804 0.92908 0.48069 0.0
C2232 C 0.32471 0.91982 0.48955 0.0
C2233 C 0.33853 0.9475 0.48119 0.0
C2234 C 0.31002 0.98602 0.49071 0.0
H2235 H 0.30296 0.069 0.48161 0.0
H2236 H 0.30429 0.03738 0.4775 0.0
H2237 H 0.29738 0.01102 0.49234 0.0
H2238 H 0.30165 0.92276 0.50621 0.0
H2239 H 0.30278 0.9545 0.50738 0.0
H2240 H 0.35424 0.97909 0.49327 0.0
C2241 C 0.31325 0.0434 0.48678 0.0
C2242 C 0.30993 0.0043 0.49226 0.0
C2243 C 0.31255 0.06159 0.48909 0.0
C2244 C 0.31204 0.92938 0.49906 0.0
C2245 C 0.3126 0.94768 0.49965 0.0
C2246 C 0.34177 0.98594 0.49275 0.0
C2247 C 0.32547 0.03316 0.49615 0.0
C2248 C 0.32574 0.01369 0.4941 0.0
C2249 C 0.32574 0.95701 0.49062 0.0
C2250 C 0.32591 0.97657 0.49117 0.0
H2251 H 0.34567 0.066 0.51901 0.0
H2252 H 0.34654 0.03417 0.51538 0.0
H2253 H 0.35414 0.01111 0.49533 0.0
H2254 H 0.348 0.92213 0.47324 0.0
H2255 H 0.34876 0.95429 0.47398 0.0
C2256 C 0.50602 0.93239 0.34532 0.0
C2257 C 0.50493 0.92374 0.32899 0.0
C2258 C 0.50543 0.95077 0.34622 0.0
C2259 C 0.51383 0.99047 0.32053 0.0
H2260 H 0.47888 0.01305 0.35002 0.0
C2261 C 0.49696 0.06318 0.31124 0.0
C2262 C 0.49325 0.07357 0.32608 0.0
C2263 C 0.49853 0.04498 0.3127 0.0
C2264 C 0.48892 0.00701 0.34193 0.0
H2265 H 0.5026 0.92774 0.30081 0.0
H2266 H 0.50211 0.95967 0.30241 0.0
H2267 H 0.48232 0.9811 0.35098 0.0
H2268 H 0.48811 0.07281 0.35414 0.0
H2269 H 0.49136 0.04099 0.35678 0.0
H2270 H 0.52071 0.01617 0.3116 0.0
C2271 C 0.50333 0.95222 0.31449 0.0
C2272 C 0.49085 0.98871 0.34247 0.0
C2273 C 0.5036 0.9339 0.3136 0.0
C2274 C 0.49087 0.06521 0.34241 0.0
C2275 C 0.49269 0.04694 0.34392 0.0
C2276 C 0.51209 0.00873 0.32015 0.0
C2277 C 0.50408 0.96083 0.3308 0.0
C2278 C 0.5031 0.98027 0.33153 0.0
C2279 C 0.49675 0.03661 0.32909 0.0
C2280 C 0.49935 0.01724 0.33055 0.0
H2281 H 0.50696 0.92498 0.35745 0.0
H2282 H 0.50609 0.95713 0.35895 0.0
H2283 H 0.52355 0.98429 0.31214 0.0
H2284 H 0.49881 0.0691 0.29843 0.0
H2285 H 0.50118 0.03747 0.30089 0.0
C2286 C 0.9321 0.49902 0.34367 0.0
C2287 C 0.92471 0.49697 0.32682 0.0
C2288 C 0.95037 0.50023 0.34577 0.0
C2289 C 0.99158 0.48778 0.32438 0.0
H2290 H 0.01291 0.52718 0.34878 0.0
C2291 C 0.06379 0.50469 0.31376 0.0
C2292 C 0.07407 0.51006 0.32816 0.0
C2293 C 0.04561 0.50313 0.3153 0.0
C2294 C 0.00717 0.51595 0.34217 0.0
H2295 H 0.9308 0.49454 0.29902 0.0
H2296 H 0.96245 0.4963 0.30275 0.0
H2297 H 0.98086 0.52375 0.34889 0.0
H2298 H 0.07312 0.51835 0.35545 0.0
H2299 H 0.04121 0.51532 0.35822 0.0
H2300 H 0.01764 0.47985 0.31764 0.0
C2301 C 0.95415 0.497 0.31431 0.0
C2302 C 0.98884 0.51401 0.34223 0.0
C2303 C 0.93598 0.49606 0.31219 0.0
C2304 C 0.0656 0.51423 0.34408 0.0
C2305 C 0.04731 0.51253 0.34566 0.0
C2306 C 0.00982 0.48961 0.32445 0.0
C2307 C 0.96154 0.4991 0.33109 0.0
C2308 C 0.9809 0.50014 0.33296 0.0
C2309 C 0.03715 0.50668 0.33134 0.0
C2310 C 0.01784 0.50397 0.33292 0.0
H2311 H 0.92378 0.49988 0.35521 0.0
H2312 H 0.95578 0.50184 0.35884 0.0
H2313 H 0.98579 0.4768 0.31739 0.0
H2314 H 0.06978 0.50145 0.30125 0.0
H2315 H 0.03818 0.49906 0.30386 0.0
C2316 C 0.49473 0.9397 0.68525 0.0
C2317 C 0.49359 0.92877 0.67037 0.0
C2318 C 0.49515 0.95794 0.68347 0.0
C2319 C 0.50725 0.9935 0.6538 0.0
H2320 H 0.47816 0.02148 0.68495 0.0
C2321 C 0.50664 0.0704 0.65384 0.0
C2322 C 0.50558 0.07842 0.67049 0.0
C2323 C 0.50482 0.05211 0.65212 0.0
C2324 C 0.4865 0.01389 0.67626 0.0
H2325 H 0.49227 0.92859 0.64185 0.0
H2326 H 0.49326 0.96067 0.63878 0.0
H2327 H 0.47521 0.98963 0.68492 0.0
H2328 H 0.50245 0.07331 0.69843 0.0
H2329 H 0.49979 0.04177 0.69547 0.0
H2330 H 0.51893 0.01782 0.64552 0.0
C2331 C 0.49368 0.95495 0.65182 0.0
C2332 C 0.48474 0.99564 0.6762 0.0
C2333 C 0.49301 0.9366 0.6536 0.0
C2334 C 0.50323 0.0677 0.68537 0.0
C2335 C 0.50152 0.04954 0.68366 0.0
C2336 C 0.50913 0.01184 0.65394 0.0
C2337 C 0.49466 0.96577 0.66677 0.0
C2338 C 0.49533 0.98521 0.66525 0.0
C2339 C 0.50193 0.04152 0.66702 0.0
C2340 C 0.49904 0.02221 0.66549 0.0
H2341 H 0.49537 0.93421 0.69837 0.0
H2342 H 0.49616 0.96594 0.69522 0.0
H2343 H 0.51564 0.98575 0.64528 0.0
H2344 H 0.50838 0.07825 0.64209 0.0
H2345 H 0.50516 0.04635 0.6391 0.0
C2346 C 0.93839 0.50757 0.68165 0.0
C2347 C 0.92747 0.51115 0.66717 0.0
C2348 C 0.95662 0.50741 0.6798 0.0
C2349 C 0.99195 0.49935 0.64894 0.0
H2350 H 0.02019 0.52391 0.68358 0.0
C2351 C 0.06883 0.49748 0.6503 0.0
C2352 C 0.07642 0.49627 0.66713 0.0
C2353 C 0.05068 0.50021 0.64842 0.0
C2354 C 0.01251 0.51685 0.67387 0.0
H2355 H 0.92727 0.51716 0.63926 0.0
H2356 H 0.95935 0.51652 0.63601 0.0
H2357 H 0.98838 0.52745 0.68371 0.0
H2358 H 0.07068 0.49625 0.69513 0.0
H2359 H 0.03937 0.50044 0.69183 0.0
H2360 H 0.0161 0.4882 0.63954 0.0
C2361 C 0.95362 0.51403 0.64881 0.0
C2362 C 0.99431 0.51897 0.67391 0.0
C2363 C 0.93529 0.51448 0.65072 0.0
C2364 C 0.0654 0.49726 0.68195 0.0
C2365 C 0.04739 0.49985 0.68007 0.0
C2366 C 0.01024 0.49708 0.649 0.0
C2367 C 0.96442 0.51057 0.66338 0.0
C2368 C 0.98381 0.50995 0.66172 0.0
C2369 C 0.03981 0.50174 0.66333 0.0
C2370 C 0.02067 0.50546 0.66178 0.0
H2371 H 0.9329 0.50477 0.69448 0.0
H2372 H 0.96464 0.50448 0.6912 0.0
H2373 H 0.98411 0.4922 0.63944 0.0
H2374 H 0.07694 0.49683 0.63861 0.0
H2375 H 0.04525 0.50162 0.63533 0.0
C2376 C 0.31578 0.49213 0.93246 0.0
C2377 C 0.32783 0.50267 0.9232 0.0
C2378 C 0.31682 0.49049 0.95069 0.0
C2379 C 0.31407 0.49818 0.98924 0.0
H2380 H 0.3583 0.49713 0.01454 0.0
C2381 C 0.31583 0.50402 0.06438 0.0
C2382 C 0.3281 0.49386 0.07376 0.0
C2383 C 0.31664 0.50514 0.0461 0.0
C2384 C 0.34583 0.49722 0.00767 0.0
H2385 H 0.35082 0.51932 0.92595 0.0
H2386 H 0.35225 0.517 0.95792 0.0
H2387 H 0.35839 0.49826 0.98247 0.0
H2388 H 0.35094 0.47697 0.07119 0.0
H2389 H 0.35202 0.47849 0.03913 0.0
H2390 H 0.30146 0.49647 0.01424 0.0
C2391 C 0.34214 0.50976 0.95099 0.0
C2392 C 0.34588 0.49812 0.98927 0.0
C2393 C 0.34123 0.51122 0.93264 0.0
C2394 C 0.34128 0.48492 0.06437 0.0
C2395 C 0.34198 0.48589 0.04599 0.0
C2396 C 0.31402 0.49711 0.00755 0.0
C2397 C 0.32979 0.49954 0.96026 0.0
C2398 C 0.32998 0.49861 0.97983 0.0
C2399 C 0.32959 0.49596 0.03662 0.0
C2400 C 0.32987 0.49672 0.01704 0.0
H2401 H 0.30542 0.48511 0.92568 0.0
H2402 H 0.30738 0.48211 0.95727 0.0
H2403 H 0.30155 0.49884 0.9825 0.0
H2404 H 0.30561 0.51127 0.07115 0.0
H2405 H 0.30713 0.51336 0.03941 0.0
C2406 C 0.5033 0.31335 0.93907 0.0
C2407 C 0.49895 0.32825 0.92902 0.0
C2408 C 0.5046 0.31445 0.95733 0.0
C2409 C 0.51512 0.34346 0.99327 0.0
H2410 H 0.4887 0.31045 0.02174 0.0
C2411 C 0.51696 0.34381 0.06985 0.0
C2412 C 0.5156 0.32744 0.07832 0.0
C2413 C 0.51493 0.34506 0.05158 0.0
C2414 C 0.4964 0.3196 0.01403 0.0
H2415 H 0.49286 0.35612 0.93038 0.0
H2416 H 0.49564 0.35807 0.96242 0.0
H2417 H 0.48493 0.31049 0.98998 0.0
H2418 H 0.51196 0.29945 0.07408 0.0
H2419 H 0.50938 0.30148 0.04248 0.0
H2420 H 0.52718 0.35211 0.01721 0.0
C2421 C 0.49778 0.34553 0.95601 0.0
C2422 C 0.4941 0.31969 0.99584 0.0
C2423 C 0.49611 0.34436 0.93771 0.0
C2424 C 0.51295 0.3123 0.06807 0.0
C2425 C 0.51124 0.3135 0.04987 0.0
C2426 C 0.51767 0.34318 0.01151 0.0
C2427 C 0.50195 0.33055 0.96594 0.0
C2428 C 0.50356 0.33148 0.98529 0.0
C2429 C 0.51174 0.32992 0.04139 0.0
C2430 C 0.50852 0.33105 0.0221 0.0
H2431 H 0.50578 0.30078 0.93287 0.0
H2432 H 0.50799 0.30276 0.96472 0.0
H2433 H 0.52262 0.35261 0.98534 0.0
H2434 H 0.51894 0.35574 0.07738 0.0
H2435 H 0.51531 0.35795 0.04554 0.0
C2436 C 0.65987 0.48515 0.93101 0.0
C2437 C 0.67239 0.49548 0.92214 0.0
C2438 C 0.65806 0.48635 0.94931 0.0
C2439 C 0.66613 0.51578 0.98676 0.0
H2440 H 0.66829 0.47326 0.01483 0.0
C2441 C 0.65861 0.51523 0.06281 0.0
C2442 C 0.6718 0.50587 0.0718 0.0
C2443 C 0.65708 0.51394 0.04451 0.0
C2444 C 0.6676 0.48523 0.00713 0.0
H2445 H 0.69259 0.5154 0.92557 0.0
H2446 H 0.68921 0.51761 0.95729 0.0
H2447 H 0.66821 0.47117 0.9827 0.0
H2448 H 0.69359 0.4877 0.06854 0.0
H2449 H 0.69073 0.48536 0.03674 0.0
H2450 H 0.66575 0.52986 0.01119 0.0
C2451 C 0.68084 0.50857 0.95012 0.0
C2452 C 0.66742 0.48402 0.98878 0.0
C2453 C 0.68285 0.50719 0.93194 0.0
C2454 C 0.68331 0.49514 0.06208 0.0
C2455 C 0.68161 0.49367 0.04386 0.0
C2456 C 0.66605 0.51698 0.00511 0.0
C2457 C 0.6685 0.49813 0.95901 0.0
C2458 C 0.667 0.4993 0.97842 0.0
C2459 C 0.66851 0.50307 0.03488 0.0
C2460 C 0.66711 0.50173 0.01547 0.0
H2461 H 0.65163 0.47599 0.92386 0.0
H2462 H 0.64841 0.47818 0.95587 0.0
H2463 H 0.66568 0.52777 0.97907 0.0
H2464 H 0.64952 0.5236 0.06989 0.0
H2465 H 0.64683 0.52129 0.0379 0.0
C2466 C 0.50467 0.65403 0.93529 0.0
C2467 C 0.50495 0.67081 0.92749 0.0
C2468 C 0.50369 0.65225 0.95362 0.0
C2469 C 0.5135 0.67553 0.99452 0.0
H2470 H 0.47584 0.64842 0.0157 0.0
C2471 C 0.49496 0.68555 0.06662 0.0
C2472 C 0.49009 0.67095 0.07686 0.0
C2473 C 0.49702 0.684 0.04847 0.0
C2474 C 0.48662 0.6558 0.01004 0.0
H2475 H 0.50449 0.69885 0.93296 0.0
H2476 H 0.50331 0.6957 0.9647 0.0
H2477 H 0.47988 0.64792 0.98376 0.0
H2478 H 0.48328 0.64326 0.07587 0.0
H2479 H 0.48727 0.64045 0.04411 0.0
H2480 H 0.52042 0.68338 0.02056 0.0
C2481 C 0.50381 0.68394 0.95666 0.0
C2482 C 0.4889 0.65551 0.99175 0.0
C2483 C 0.50447 0.68572 0.93843 0.0
C2484 C 0.48698 0.65479 0.06839 0.0
C2485 C 0.48923 0.6532 0.05016 0.0
C2486 C 0.51137 0.67566 0.01274 0.0
C2487 C 0.50331 0.66722 0.96444 0.0
C2488 C 0.50211 0.66571 0.98383 0.0
C2489 C 0.49451 0.66775 0.04001 0.0
C2490 C 0.49762 0.66618 0.02073 0.0
H2491 H 0.50489 0.64227 0.92726 0.0
H2492 H 0.50334 0.63921 0.95934 0.0
H2493 H 0.52395 0.6833 0.98875 0.0
H2494 H 0.4974 0.69823 0.07262 0.0
H2495 H 0.50062 0.69562 0.04107 0.0
C2496 C 0.17733 0.26463 0.49511 0.0
C2497 C 0.1794 0.28227 0.50019 0.0
C2498 C 0.19185 0.25354 0.4937 0.0
C2499 C 0.23747 0.24734 0.50858 0.0
H2500 H 0.23757 0.21274 0.4711 0.0
C2501 C 0.2919 0.19363 0.49857 0.0
C2502 C 0.28495 0.17657 0.4968 0.0
C2503 C 0.28076 0.20833 0.4982 0.0
C2504 C 0.23775 0.22235 0.48161 0.0
H2505 H 0.19843 0.30211 0.50782 0.0
H2506 H 0.22396 0.28262 0.50525 0.0
H2507 H 0.21501 0.23544 0.47161 0.0
H2508 H 0.26089 0.16161 0.49322 0.0
H2509 H 0.24169 0.18708 0.49236 0.0
H2510 H 0.26022 0.23394 0.51862 0.0
C2511 C 0.21101 0.2774 0.50248 0.0
C2512 C 0.22479 0.23532 0.48196 0.0
C2513 C 0.19639 0.28856 0.5039 0.0
C2514 C 0.26671 0.17453 0.49465 0.0
C2515 C 0.25569 0.18914 0.49403 0.0
C2516 C 0.25057 0.23438 0.50815 0.0
C2517 C 0.20888 0.25977 0.49727 0.0
C2518 C 0.22414 0.24763 0.49574 0.0
C2519 C 0.26256 0.20618 0.49573 0.0
C2520 C 0.25048 0.22146 0.49494 0.0
H2521 H 0.16445 0.25927 0.49224 0.0
H2522 H 0.18966 0.23995 0.49003 0.0
H2523 H 0.23731 0.2566 0.51941 0.0
H2524 H 0.3059 0.19561 0.50031 0.0
H2525 H 0.28636 0.22135 0.49955 0.0
C2526 C 0.73534 0.17783 0.49732 0.0
C2527 C 0.71734 0.18051 0.50054 0.0
C2528 C 0.74658 0.19204 0.49467 0.0
C2529 C 0.75204 0.23917 0.50337 0.0
H2530 H 0.78902 0.23436 0.46856 0.0
C2531 C 0.80682 0.29175 0.49184 0.0
C2532 C 0.8239 0.28463 0.49182 0.0
C2533 C 0.7921 0.28066 0.49121 0.0
C2534 C 0.77875 0.23591 0.47831 0.0
H2535 H 0.69704 0.20033 0.50353 0.0
H2536 H 0.71686 0.22533 0.49889 0.0
H2537 H 0.76615 0.21202 0.47055 0.0
H2538 H 0.8389 0.26037 0.49086 0.0
H2539 H 0.81339 0.24121 0.48963 0.0
H2540 H 0.76499 0.26296 0.51131 0.0
C2541 C 0.72219 0.21214 0.49851 0.0
C2542 C 0.76568 0.22311 0.47949 0.0
C2543 C 0.71086 0.19783 0.50112 0.0
C2544 C 0.82595 0.2663 0.49092 0.0
C2545 C 0.81132 0.2553 0.49008 0.0
C2546 C 0.76514 0.25207 0.50213 0.0
C2547 C 0.74017 0.20936 0.49513 0.0
C2548 C 0.75249 0.22429 0.49239 0.0
C2549 C 0.79425 0.26232 0.49027 0.0
C2550 C 0.77892 0.25026 0.48994 0.0
H2551 H 0.74083 0.16469 0.49682 0.0
H2552 H 0.76041 0.18944 0.49247 0.0
H2553 H 0.74208 0.24042 0.51347 0.0
H2554 H 0.80484 0.30584 0.4926 0.0
H2555 H 0.77907 0.28641 0.49136 0.0
C2556 C 0.80458 0.7121 0.50982 0.0
C2557 C 0.82165 0.71807 0.50592 0.0
C2558 C 0.79015 0.72345 0.50825 0.0
C2559 C 0.77669 0.76483 0.48651 0.0
H2560 H 0.74164 0.76792 0.52343 0.0
C2561 C 0.73391 0.82581 0.49601 0.0
C2562 C 0.71596 0.82368 0.49983 0.0
C2563 C 0.74514 0.81134 0.49561 0.0
C2564 C 0.75117 0.767 0.51288 0.0
H2565 H 0.83694 0.74067 0.49749 0.0
H2566 H 0.81196 0.76033 0.49495 0.0
H2567 H 0.76451 0.74531 0.525 0.0
H2568 H 0.69571 0.80467 0.50633 0.0
H2569 H 0.71554 0.77923 0.50578 0.0
H2570 H 0.76372 0.78677 0.47464 0.0
C2571 C 0.80962 0.74685 0.49894 0.0
C2572 C 0.76425 0.75407 0.51378 0.0
C2573 C 0.82399 0.73559 0.50053 0.0
C2574 C 0.70947 0.80671 0.50328 0.0
C2575 C 0.72081 0.79218 0.50304 0.0
C2576 C 0.76369 0.77773 0.48565 0.0
C2577 C 0.79253 0.74092 0.50266 0.0
C2578 C 0.77742 0.75316 0.50082 0.0
C2579 C 0.73875 0.79437 0.49914 0.0
C2580 C 0.75106 0.77925 0.49904 0.0
H2581 H 0.80234 0.69866 0.51395 0.0
H2582 H 0.77712 0.71848 0.51114 0.0
H2583 H 0.78639 0.7642 0.4761 0.0
H2584 H 0.73935 0.83869 0.4933 0.0
H2585 H 0.75894 0.81349 0.49283 0.0
C2586 C 0.17187 0.72991 0.50221 0.0
C2587 C 0.17392 0.71189 0.49867 0.0
C2588 C 0.18646 0.7409 0.5035 0.0
C2589 C 0.23294 0.74538 0.49083 0.0
H2590 H 0.23174 0.78241 0.5259 0.0
C2591 C 0.28802 0.79842 0.49998 0.0
C2592 C 0.28146 0.81571 0.50043 0.0
C2593 C 0.27648 0.78405 0.50079 0.0
C2594 C 0.23227 0.77211 0.51606 0.0
H2595 H 0.19302 0.6913 0.49364 0.0
H2596 H 0.21867 0.71064 0.49599 0.0
H2597 H 0.2087 0.76017 0.52557 0.0
H2598 H 0.25769 0.83145 0.50215 0.0
H2599 H 0.23779 0.80655 0.50375 0.0
H2600 H 0.25651 0.75764 0.48123 0.0
C2601 C 0.20567 0.71621 0.49763 0.0
C2602 C 0.21905 0.75941 0.51582 0.0
C2603 C 0.19099 0.70514 0.49633 0.0
C2604 C 0.26321 0.81833 0.50176 0.0
C2605 C 0.25179 0.80405 0.5028 0.0
C2606 C 0.24628 0.75809 0.49114 0.0
C2607 C 0.20355 0.7342 0.50136 0.0
C2608 C 0.21891 0.74621 0.50287 0.0
C2609 C 0.25826 0.78678 0.50238 0.0
C2610 C 0.24576 0.77186 0.50345 0.0
H2611 H 0.15893 0.7356 0.50398 0.0
H2612 H 0.18431 0.75476 0.50599 0.0
H2613 H 0.23318 0.73541 0.48066 0.0
H2614 H 0.30201 0.796 0.49888 0.0
H2615 H 0.28179 0.77084 0.50044 0.0
C2616 C 0.50794 0.19467 0.29103 0.0
C2617 C 0.50448 0.17794 0.28391 0.0
C2618 C 0.50585 0.20981 0.28072 0.0
C2619 C 0.4833 0.22539 0.24054 0.0
H2620 H 0.51998 0.26075 0.2383 0.0
C2621 C 0.4941 0.26829 0.18015 0.0
C2622 C 0.49778 0.28627 0.18225 0.0
C2623 C 0.49308 0.25722 0.1947 0.0
C2624 C 0.50947 0.25116 0.23904 0.0
H2625 H 0.49626 0.16404 0.26035 0.0
H2626 H 0.4928 0.19022 0.24253 0.0
H2627 H 0.5219 0.23712 0.26011 0.0
H2628 H 0.5032 0.3068 0.20128 0.0
H2629 H 0.50167 0.28719 0.22693 0.0
H2630 H 0.47121 0.23895 0.21908 0.0
C2631 C 0.49686 0.19174 0.2561 0.0
C2632 C 0.51057 0.23764 0.2515 0.0
C2633 C 0.499 0.17669 0.26631 0.0
C2634 C 0.50027 0.293 0.19929 0.0
C2635 C 0.49948 0.2818 0.21393 0.0
C2636 C 0.48223 0.23881 0.22811 0.0
C2637 C 0.50013 0.20848 0.26319 0.0
C2638 C 0.49778 0.22429 0.25197 0.0
C2639 C 0.49587 0.2638 0.21173 0.0
C2640 C 0.49558 0.25151 0.22685 0.0
H2641 H 0.51213 0.19608 0.30457 0.0
H2642 H 0.50844 0.22256 0.28654 0.0
H2643 H 0.47301 0.21554 0.24087 0.0
H2644 H 0.49208 0.26269 0.16721 0.0
H2645 H 0.49052 0.24337 0.19257 0.0
C2646 C 0.80469 0.50339 0.28845 0.0
C2647 C 0.82172 0.50618 0.28179 0.0
C2648 C 0.79006 0.50423 0.27728 0.0
C2649 C 0.7756 0.52232 0.23475 0.0
H2650 H 0.74295 0.48317 0.23325 0.0
C2651 C 0.73388 0.50806 0.17393 0.0
C2652 C 0.71657 0.50191 0.17592 0.0
C2653 C 0.74486 0.50998 0.18848 0.0
C2654 C 0.75173 0.49437 0.23371 0.0
H2655 H 0.83672 0.51236 0.2583 0.0
H2656 H 0.81132 0.51399 0.23899 0.0
H2657 H 0.76549 0.48427 0.25618 0.0
H2658 H 0.69716 0.49309 0.19487 0.0
H2659 H 0.71642 0.49653 0.22044 0.0
H2660 H 0.76215 0.53233 0.2122 0.0
C2661 C 0.80922 0.51117 0.2528 0.0
C2662 C 0.76464 0.49498 0.24683 0.0
C2663 C 0.82379 0.51011 0.26386 0.0
C2664 C 0.71045 0.49781 0.19288 0.0
C2665 C 0.72149 0.49972 0.20752 0.0
C2666 C 0.76268 0.52176 0.22174 0.0
C2667 C 0.79222 0.50818 0.25934 0.0
C2668 C 0.77701 0.50871 0.24715 0.0
C2669 C 0.73883 0.50585 0.20546 0.0
C2670 C 0.75093 0.50752 0.22073 0.0
H2671 H 0.8027 0.50027 0.30221 0.0
H2672 H 0.77708 0.50189 0.28265 0.0
H2673 H 0.78476 0.53323 0.23488 0.0
H2674 H 0.73908 0.51131 0.16106 0.0
H2675 H 0.75823 0.51439 0.18635 0.0
C2676 C 0.48987 0.72926 0.18092 0.0
C2677 C 0.50014 0.71389 0.1813 0.0
C2678 C 0.48843 0.73992 0.19579 0.0
C2679 C 0.51211 0.75333 0.23491 0.0
H2680 H 0.4672 0.77298 0.2491 0.0
C2681 C 0.5049 0.81824 0.27314 0.0
C2682 C 0.49266 0.81902 0.28699 0.0
C2683 C 0.50609 0.80331 0.26254 0.0
C2684 C 0.47981 0.76743 0.24545 0.0
H2685 H 0.51683 0.69758 0.19766 0.0
H2686 H 0.51462 0.71656 0.22366 0.0
H2687 H 0.46823 0.75041 0.22618 0.0
H2688 H 0.47226 0.80462 0.30074 0.0
H2689 H 0.47409 0.77854 0.28183 0.0
H2690 H 0.52374 0.77084 0.2537 0.0
C2691 C 0.50761 0.7202 0.21181 0.0
C2692 C 0.48041 0.75463 0.23226 0.0
C2693 C 0.50884 0.70934 0.19697 0.0
C2694 C 0.48181 0.8044 0.29017 0.0
C2695 C 0.48281 0.78952 0.27934 0.0
C2696 C 0.51153 0.76631 0.24793 0.0
C2697 C 0.49739 0.7356 0.21134 0.0
C2698 C 0.49659 0.74767 0.22665 0.0
C2699 C 0.49493 0.78888 0.26538 0.0
C2700 C 0.4954 0.77371 0.25311 0.0
H2701 H 0.48292 0.7331 0.16909 0.0
H2702 H 0.48062 0.75181 0.19498 0.0
H2703 H 0.52477 0.74826 0.23077 0.0
H2704 H 0.51353 0.82925 0.2704 0.0
H2705 H 0.51541 0.80326 0.25177 0.0
C2706 C 0.17644 0.5051 0.26789 0.0
C2707 C 0.17751 0.49599 0.28393 0.0
C2708 C 0.1905 0.50503 0.25615 0.0
C2709 C 0.23808 0.49568 0.25148 0.0
H2710 H 0.22518 0.49162 0.20233 0.0
C2711 C 0.27039 0.48484 0.17762 0.0
C2712 C 0.28459 0.49662 0.17841 0.0
C2713 C 0.25869 0.48337 0.19166 0.0
C2714 C 0.22911 0.49251 0.21599 0.0
H2715 H 0.19442 0.48011 0.30048 0.0
H2716 H 0.21901 0.47964 0.27965 0.0
H2717 H 0.20243 0.49166 0.22457 0.0
H2718 H 0.29808 0.51562 0.19482 0.0
H2719 H 0.27725 0.5135 0.21923 0.0
H2720 H 0.2649 0.49608 0.24274 0.0
C2721 C 0.2073 0.48701 0.2763 0.0
C2722 C 0.21599 0.49282 0.22877 0.0
C2723 C 0.1932 0.48721 0.28819 0.0
C2724 C 0.28723 0.50644 0.19384 0.0
C2725 C 0.27534 0.50514 0.20786 0.0
C2726 C 0.25129 0.49526 0.23863 0.0
C2727 C 0.20597 0.49569 0.26 0.0
C2728 C 0.22025 0.49463 0.24666 0.0
C2729 C 0.2607 0.49385 0.20676 0.0
C2730 C 0.24694 0.49374 0.2207 0.0
H2731 H 0.16466 0.51226 0.2643 0.0
H2732 H 0.18917 0.51226 0.24395 0.0
H2733 H 0.24181 0.49716 0.26514 0.0
H2734 H 0.26817 0.47686 0.16602 0.0
H2735 H 0.24788 0.47417 0.19053 0.0
C2736 C 0.50782 0.73496 0.82676 0.0
C2737 C 0.49716 0.71992 0.82556 0.0
C2738 C 0.50866 0.74696 0.81293 0.0
C2739 C 0.49858 0.7535 0.76562 0.0
H2740 H 0.49883 0.80259 0.77941 0.0
C2741 C 0.50976 0.81115 0.71643 0.0
C2742 C 0.50042 0.82679 0.71955 0.0
C2743 C 0.50888 0.79721 0.72846 0.0
C2744 C 0.49857 0.78896 0.77527 0.0
H2745 H 0.47944 0.70537 0.8086 0.0
H2746 H 0.48059 0.72664 0.78447 0.0
H2747 H 0.49824 0.77997 0.80184 0.0
H2748 H 0.48209 0.83971 0.73722 0.0
H2749 H 0.48026 0.81541 0.75783 0.0
H2750 H 0.49843 0.76269 0.73894 0.0
C2751 C 0.48848 0.72901 0.79609 0.0
C2752 C 0.49851 0.77595 0.78818 0.0
C2753 C 0.48774 0.71687 0.80994 0.0
C2754 C 0.48968 0.82795 0.73455 0.0
C2755 C 0.4887 0.81402 0.74643 0.0
C2756 C 0.49858 0.76659 0.75264 0.0
C2757 C 0.49873 0.74436 0.79756 0.0
C2758 C 0.4986 0.75805 0.78356 0.0
C2759 C 0.49855 0.79861 0.74376 0.0
C2760 C 0.49854 0.7845 0.75733 0.0
H2761 H 0.51547 0.73759 0.8385 0.0
H2762 H 0.51704 0.75839 0.81436 0.0
H2763 H 0.49877 0.73984 0.7616 0.0
H2764 H 0.51812 0.80985 0.70497 0.0
H2765 H 0.51672 0.78557 0.72603 0.0
C2766 C 0.2917 0.5005 0.80195 0.0
C2767 C 0.28505 0.49682 0.81881 0.0
C2768 C 0.28061 0.49993 0.78724 0.0
C2769 C 0.23867 0.48107 0.77206 0.0
H2770 H 0.23586 0.52124 0.74078 0.0
C2771 C 0.19546 0.50596 0.70817 0.0
C2772 C 0.17867 0.50153 0.71455 0.0
C2773 C 0.21028 0.50429 0.71898 0.0
C2774 C 0.2367 0.50978 0.74919 0.0
H2775 H 0.26165 0.48946 0.83343 0.0
H2776 H 0.24251 0.48836 0.80792 0.0
H2777 H 0.25898 0.52004 0.76316 0.0
H2778 H 0.1643 0.49191 0.73729 0.0
H2779 H 0.18995 0.48917 0.75601 0.0
H2780 H 0.21625 0.47095 0.75847 0.0
C2781 C 0.25624 0.49162 0.806 0.0
C2782 C 0.24993 0.5091 0.76199 0.0
C2783 C 0.26721 0.49239 0.82064 0.0
C2784 C 0.17702 0.4954 0.7319 0.0
C2785 C 0.19177 0.49369 0.74263 0.0
C2786 C 0.22554 0.48172 0.75928 0.0
C2787 C 0.26278 0.4954 0.78915 0.0
C2788 C 0.25067 0.49498 0.77389 0.0
C2789 C 0.20858 0.49804 0.7363 0.0
C2790 C 0.22406 0.49633 0.74808 0.0
H2791 H 0.30539 0.50402 0.80015 0.0
H2792 H 0.28597 0.50289 0.77437 0.0
H2793 H 0.23916 0.46986 0.78084 0.0
H2794 H 0.19717 0.51067 0.69484 0.0
H2795 H 0.22308 0.50769 0.71374 0.0
C2796 C 0.49408 0.1981 0.71108 0.0
C2797 C 0.49429 0.18082 0.7177 0.0
C2798 C 0.49427 0.21251 0.7226 0.0
C2799 C 0.48327 0.2247 0.76803 0.0
H2800 H 0.51819 0.26158 0.76335 0.0
C2801 C 0.50237 0.2675 0.82646 0.0
C2802 C 0.50542 0.28557 0.82403 0.0
C2803 C 0.49996 0.25639 0.81211 0.0
C2804 C 0.50816 0.25156 0.76467 0.0
H2805 H 0.4947 0.16515 0.74155 0.0
H2806 H 0.4948 0.19014 0.76146 0.0
H2807 H 0.51549 0.23909 0.7404 0.0
H2808 H 0.50852 0.30609 0.80447 0.0
H2809 H 0.50421 0.2865 0.77919 0.0
H2810 H 0.47599 0.23686 0.79228 0.0
C2811 C 0.49449 0.19259 0.74743 0.0
C2812 C 0.50663 0.23869 0.75155 0.0
C2813 C 0.49454 0.17826 0.73599 0.0
C2814 C 0.50623 0.29222 0.80679 0.0
C2815 C 0.50379 0.28101 0.79232 0.0
C2816 C 0.48471 0.23755 0.78103 0.0
C2817 C 0.49436 0.20986 0.74089 0.0
C2818 C 0.4945 0.22486 0.75338 0.0
C2819 C 0.50044 0.26299 0.79486 0.0
C2820 C 0.49753 0.25083 0.7798 0.0
H2821 H 0.49398 0.20048 0.69703 0.0
H2822 H 0.49415 0.2257 0.71722 0.0
H2823 H 0.47357 0.21438 0.76961 0.0
H2824 H 0.50178 0.26184 0.83952 0.0
H2825 H 0.49784 0.24252 0.81456 0.0
C2826 C 0.71392 0.50182 0.80238 0.0
C2827 C 0.72025 0.49991 0.81965 0.0
C2828 C 0.72527 0.49985 0.78799 0.0
C2829 C 0.76853 0.48077 0.77593 0.0
H2830 H 0.76756 0.51428 0.7375 0.0
C2831 C 0.82789 0.49262 0.73135 0.0
C2832 C 0.82524 0.49427 0.71314 0.0
C2833 C 0.81363 0.49173 0.74282 0.0
C2834 C 0.7678 0.50466 0.748 0.0
H2835 H 0.7435 0.49453 0.83532 0.0
H2836 H 0.76317 0.49135 0.81042 0.0
H2837 H 0.74513 0.51579 0.76053 0.0
H2838 H 0.80549 0.49635 0.69267 0.0
H2839 H 0.78039 0.49502 0.71294 0.0
H2840 H 0.79149 0.47002 0.76375 0.0
C2841 C 0.74942 0.49406 0.8079 0.0
C2842 C 0.75496 0.50551 0.76118 0.0
C2843 C 0.73813 0.49602 0.82221 0.0
C2844 C 0.80794 0.49501 0.70664 0.0
C2845 C 0.7936 0.49433 0.71821 0.0
C2846 C 0.78136 0.47999 0.76284 0.0
C2847 C 0.74315 0.49586 0.79061 0.0
C2848 C 0.75545 0.49384 0.77553 0.0
C2849 C 0.79634 0.49263 0.73642 0.0
C2850 C 0.7814 0.49218 0.74897 0.0
H2851 H 0.7002 0.50476 0.79995 0.0
H2852 H 0.72001 0.50122 0.77483 0.0
H2853 H 0.76903 0.47131 0.78655 0.0
H2854 H 0.84104 0.49199 0.7368 0.0
H2855 H 0.81617 0.49068 0.7568 0.0
loop_
_geom_bond_atom_site_label_1
_geom_bond_atom_site_label_2
_geom_bond_distance
_geom_bond_site_symmetry_2
_ccdc_geom_bond_type
Co0 O2 2.143 . S
Co0 O8 2.074 . S
Co0 O11 2.093 . S
Co0 O24 2.097 . S
Co0 N41 2.151 . S
Co0 N49 2.214 . S
Co1 O2 2.160 . S
Co1 O7 2.058 . S
Co1 O17 2.057 . S
Co1 O32 2.037 . S
Co1 N36 2.145 . S
Co1 N57 2.257 . S
O2 Co0 2.143 . S
O2 Co1 2.160 . S
C3 O4 1.278 . S
C3 O11 1.224 . S
O4 C3 1.278 . S
C5 O6 1.245 . S
C5 O17 1.232 . S
O6 C5 1.245 . S
O7 Co1 2.058 . S
O7 C33 1.269 . S
O8 Co0 2.074 . S
O8 C33 1.257 . S
H9 C34 0.930 . S
H10 C40 0.930 . S
O11 Co0 2.093 . S
O11 C3 1.224 . S
H12 C44 0.929 . S
H13 C46 0.930 . S
H14 C47 0.930 . S
H15 C45 0.929 . S
H16 C48 0.928 . S
O17 Co1 2.057 . S
O17 C5 1.232 . S
H18 C37 0.929 . S
H19 C38 0.929 . S
H20 C50 0.931 . S
H21 C42 0.929 . S
H22 C51 0.930 . S
H23 C43 0.931 . S
O24 Co0 2.097 . S
O24 C52 1.214 . S
H25 C53 0.929 . S
H26 C54 0.929 . S
H27 C55 0.930 . S
H28 C56 0.929 . S
H29 C58 0.930 . S
H30 C35 0.930 . S
H31 C39 0.930 . S
O32 Co1 2.037 . S
O32 C52 1.234 . S
C33 O7 1.269 . S
C33 O8 1.257 . S
C34 H9 0.930 . S
C34 C37 1.388 . S
C34 C39 1.418 . S
C35 H30 0.930 . S
C35 C38 1.404 . S
C35 C39 1.353 . S
N36 Co1 2.145 . S
N36 C37 1.397 . S
N36 C38 1.334 . S
C37 H18 0.929 . S
C37 C34 1.388 . S
C37 N36 1.397 . S
C38 H19 0.929 . S
C38 C35 1.404 . S
C38 N36 1.334 . S
C39 H31 0.930 . S
C39 C34 1.418 . S
C39 C35 1.353 . S
C40 H10 0.930 . S
C40 N41 1.330 . S
C40 C42 1.446 . S
N41 Co0 2.151 . S
N41 C40 1.330 . S
N41 C45 1.418 . S
C42 H21 0.929 . S
C42 C40 1.446 . S
C42 C43 1.332 . S
C43 H23 0.931 . S
C43 C42 1.332 . S
C43 C44 1.267 . S
C44 H12 0.929 . S
C44 C43 1.267 . S
C44 C45 1.251 . S
C45 H15 0.929 . S
C45 N41 1.418 . S
C45 C44 1.251 . S
C46 H13 0.930 . S
C46 C48 1.406 . S
C46 C51 1.261 . S
C47 H14 0.930 . S
C47 N49 1.325 . S
C47 C50 1.357 . S
C48 H16 0.928 . S
C48 C46 1.406 . S
C48 N49 1.261 . S
N49 Co0 2.214 . S
N49 C47 1.325 . S
N49 C48 1.261 . S
C50 H20 0.931 . S
C50 C47 1.357 . S
C50 C51 1.312 . S
C51 H22 0.930 . S
C51 C46 1.261 . S
C51 C50 1.312 . S
C52 O24 1.214 . S
C52 O32 1.234 . S
C53 H25 0.929 . S
C53 C56 1.391 . S
C53 C58 1.391 . S
C54 H26 0.929 . S
C54 C55 1.390 . S
C54 N57 1.391 . S
C55 H27 0.930 . S
C55 C54 1.390 . S
C55 C56 1.392 . S
C56 H28 0.929 . S
C56 C53 1.391 . S
C56 C55 1.392 . S
N57 Co1 2.257 . S
N57 C54 1.391 . S
N57 C58 1.388 . S
C58 H29 0.930 . S
C58 C53 1.391 . S
C58 N57 1.388 . S
Co59 O61 2.143 . S
Co59 O67 2.074 . S
Co59 O70 2.093 . S
Co59 O83 2.097 . S
Co59 N100 2.151 . S
Co59 N108 2.214 . S
Co60 O61 2.160 . S
Co60 O66 2.058 . S
Co60 O76 2.057 . S
Co60 O91 2.037 . S
Co60 N95 2.145 . S
Co60 N116 2.257 . S
O61 Co59 2.143 . S
O61 Co60 2.160 . S
C62 O63 1.278 . S
C62 O70 1.224 . S
O63 C62 1.278 . S
C64 O65 1.245 . S
C64 O76 1.232 . S
O65 C64 1.245 . S
O66 Co60 2.058 . S
O66 C92 1.269 . S
O67 Co59 2.074 . S
O67 C92 1.257 . S
H68 C93 0.930 . S
H69 C99 0.930 . S
O70 Co59 2.093 . S
O70 C62 1.224 . S
H71 C103 0.929 . S
H72 C105 0.930 . S
H73 C106 0.930 . S
H74 C104 0.929 . S
H75 C107 0.928 . S
O76 Co60 2.057 . S
O76 C64 1.232 . S
H77 C96 0.929 . S
H78 C97 0.929 . S
H79 C109 0.931 . S
H80 C101 0.929 . S
H81 C110 0.930 . S
H82 C102 0.931 . S
O83 Co59 2.097 . S
O83 C111 1.214 . S
H84 C112 0.929 . S
H85 C113 0.929 . S
H86 C114 0.930 . S
H87 C115 0.929 . S
H88 C117 0.930 . S
H89 C94 0.930 . S
H90 C98 0.930 . S
O91 Co60 2.037 . S
O91 C111 1.234 . S
C92 O66 1.269 . S
C92 O67 1.257 . S
C93 H68 0.930 . S
C93 C96 1.388 . S
C93 C98 1.418 . S
C94 H89 0.930 . S
C94 C97 1.404 . S
C94 C98 1.353 . S
N95 Co60 2.145 . S
N95 C96 1.397 . S
N95 C97 1.334 . S
C96 H77 0.929 . S
C96 C93 1.388 . S
C96 N95 1.397 . S
C97 H78 0.929 . S
C97 C94 1.404 . S
C97 N95 1.334 . S
C98 H90 0.930 . S
C98 C93 1.418 . S
C98 C94 1.353 . S
C99 H69 0.930 . S
C99 N100 1.330 . S
C99 C101 1.446 . S
N100 Co59 2.151 . S
N100 C99 1.330 . S
N100 C104 1.418 . S
C101 H80 0.929 . S
C101 C99 1.446 . S
C101 C102 1.332 . S
C102 H82 0.931 . S
C102 C101 1.332 . S
C102 C103 1.267 . S
C103 H71 0.929 . S
C103 C102 1.267 . S
C103 C104 1.251 . S
C104 H74 0.929 . S
C104 N100 1.418 . S
C104 C103 1.251 . S
C105 H72 0.930 . S
C105 C107 1.406 . S
C105 C110 1.261 . S
C106 H73 0.930 . S
C106 N108 1.325 . S
C106 C109 1.357 . S
C107 H75 0.928 . S
C107 C105 1.406 . S
C107 N108 1.261 . S
N108 Co59 2.214 . S
N108 C106 1.325 . S
N108 C107 1.261 . S
C109 H79 0.931 . S
C109 C106 1.357 . S
C109 C110 1.312 . S
C110 H81 0.930 . S
C110 C105 1.261 . S
C110 C109 1.312 . S
C111 O83 1.214 . S
C111 O91 1.234 . S
C112 H84 0.929 . S
C112 C115 1.391 . S
C112 C117 1.391 . S
C113 H85 0.929 . S
C113 C114 1.390 . S
C113 N116 1.391 . S
C114 H86 0.930 . S
C114 C113 1.390 . S
C114 C115 1.392 . S
C115 H87 0.929 . S
C115 C112 1.391 . S
C115 C114 1.392 . S
N116 Co60 2.257 . S
N116 C113 1.391 . S
N116 C117 1.388 . S
C117 H88 0.930 . S
C117 C112 1.391 . S
C117 N116 1.388 . S
Co118 O120 2.143 . S
Co118 O126 2.074 . S
Co118 O129 2.093 . S
Co118 O142 2.097 . S
Co118 N159 2.151 . S
Co118 N167 2.214 . S
Co119 O120 2.160 . S
Co119 O125 2.058 . S
Co119 O135 2.057 . S
Co119 O150 2.037 . S
Co119 N154 2.145 . S
Co119 N175 2.257 . S
O120 Co118 2.143 . S
O120 Co119 2.160 . S
C121 O122 1.278 . S
C121 O129 1.224 . S
O122 C121 1.278 . S
C123 O124 1.245 . S
C123 O135 1.232 . S
O124 C123 1.245 . S
O125 Co119 2.058 . S
O125 C151 1.269 . S
O126 Co118 2.074 . S
O126 C151 1.257 . S
H127 C152 0.930 . S
H128 C158 0.930 . S
O129 Co118 2.093 . S
O129 C121 1.224 . S
H130 C162 0.929 . S
H131 C164 0.930 . S
H132 C165 0.930 . S
H133 C163 0.929 . S
H134 C166 0.928 . S
O135 Co119 2.057 . S
O135 C123 1.232 . S
H136 C155 0.929 . S
H137 C156 0.929 . S
H138 C168 0.931 . S
H139 C160 0.929 . S
H140 C169 0.930 . S
H141 C161 0.931 . S
O142 Co118 2.097 . S
O142 C170 1.214 . S
H143 C171 0.929 . S
H144 C172 0.929 . S
H145 C173 0.930 . S
H146 C174 0.929 . S
H147 C176 0.930 . S
H148 C153 0.930 . S
H149 C157 0.930 . S
O150 Co119 2.037 . S
O150 C170 1.234 . S
C151 O125 1.269 . S
C151 O126 1.257 . S
C152 H127 0.930 . S
C152 C155 1.388 . S
C152 C157 1.418 . S
C153 H148 0.930 . S
C153 C156 1.404 . S
C153 C157 1.353 . S
N154 Co119 2.145 . S
N154 C155 1.397 . S
N154 C156 1.334 . S
C155 H136 0.929 . S
C155 C152 1.388 . S
C155 N154 1.397 . S
C156 H137 0.929 . S
C156 C153 1.404 . S
C156 N154 1.334 . S
C157 H149 0.930 . S
C157 C152 1.418 . S
C157 C153 1.353 . S
C158 H128 0.930 . S
C158 N159 1.330 . S
C158 C160 1.446 . S
N159 Co118 2.151 . S
N159 C158 1.330 . S
N159 C163 1.418 . S
C160 H139 0.929 . S
C160 C158 1.446 . S
C160 C161 1.332 . S
C161 H141 0.931 . S
C161 C160 1.332 . S
C161 C162 1.267 . S
C162 H130 0.929 . S
C162 C161 1.267 . S
C162 C163 1.251 . S
C163 H133 0.929 . S
C163 N159 1.418 . S
C163 C162 1.251 . S
C164 H131 0.930 . S
C164 C166 1.406 . S
C164 C169 1.261 . S
C165 H132 0.930 . S
C165 N167 1.325 . S
C165 C168 1.357 . S
C166 H134 0.928 . S
C166 C164 1.406 . S
C166 N167 1.261 . S
N167 Co118 2.214 . S
N167 C165 1.325 . S
N167 C166 1.261 . S
C168 H138 0.931 . S
C168 C165 1.357 . S
C168 C169 1.312 . S
C169 H140 0.930 . S
C169 C164 1.261 . S
C169 C168 1.312 . S
C170 O142 1.214 . S
C170 O150 1.234 . S
C171 H143 0.929 . S
C171 C174 1.391 . S
C171 C176 1.391 . S
C172 H144 0.929 . S
C172 C173 1.390 . S
C172 N175 1.391 . S
C173 H145 0.930 . S
C173 C172 1.390 . S
C173 C174 1.392 . S
C174 H146 0.929 . S
C174 C171 1.391 . S
C174 C173 1.392 . S
N175 Co119 2.257 . S
N175 C172 1.391 . S
N175 C176 1.388 . S
C176 H147 0.930 . S
C176 C171 1.391 . S
C176 N175 1.388 . S
Co177 O179 2.143 . S
Co177 O185 2.074 . S
Co177 O188 2.093 . S
Co177 O201 2.097 . S
Co177 N218 2.151 . S
Co177 N226 2.214 . S
Co178 O179 2.160 . S
Co178 O184 2.058 . S
Co178 O194 2.057 . S
Co178 O209 2.037 . S
Co178 N213 2.145 . S
Co178 N234 2.257 . S
O179 Co177 2.143 . S
O179 Co178 2.160 . S
C180 O181 1.278 . S
C180 O188 1.224 . S
O181 C180 1.278 . S
C182 O183 1.245 . S
C182 O194 1.232 . S
O183 C182 1.245 . S
O184 Co178 2.058 . S
O184 C210 1.269 . S
O185 Co177 2.074 . S
O185 C210 1.257 . S
H186 C211 0.930 . S
H187 C217 0.930 . S
O188 Co177 2.093 . S
O188 C180 1.224 . S
H189 C221 0.929 . S
H190 C223 0.930 . S
H191 C224 0.930 . S
H192 C222 0.929 . S
H193 C225 0.928 . S
O194 Co178 2.057 . S
O194 C182 1.232 . S
H195 C214 0.929 . S
H196 C215 0.929 . S
H197 C227 0.931 . S
H198 C219 0.929 . S
H199 C228 0.930 . S
H200 C220 0.931 . S
O201 Co177 2.097 . S
O201 C229 1.214 . S
H202 C230 0.929 . S
H203 C231 0.929 . S
H204 C232 0.930 . S
H205 C233 0.929 . S
H206 C235 0.930 . S
H207 C212 0.930 . S
H208 C216 0.930 . S
O209 Co178 2.037 . S
O209 C229 1.234 . S
C210 O184 1.269 . S
C210 O185 1.257 . S
C211 H186 0.930 . S
C211 C214 1.388 . S
C211 C216 1.418 . S
C212 H207 0.930 . S
C212 C215 1.404 . S
C212 C216 1.353 . S
N213 Co178 2.145 . S
N213 C214 1.397 . S
N213 C215 1.334 . S
C214 H195 0.929 . S
C214 C211 1.388 . S
C214 N213 1.397 . S
C215 H196 0.929 . S
C215 C212 1.404 . S
C215 N213 1.334 . S
C216 H208 0.930 . S
C216 C211 1.418 . S
C216 C212 1.353 . S
C217 H187 0.930 . S
C217 N218 1.330 . S
C217 C219 1.446 . S
N218 Co177 2.151 . S
N218 C217 1.330 . S
N218 C222 1.418 . S
C219 H198 0.929 . S
C219 C217 1.446 . S
C219 C220 1.332 . S
C220 H200 0.931 . S
C220 C219 1.332 . S
C220 C221 1.267 . S
C221 H189 0.929 . S
C221 C220 1.267 . S
C221 C222 1.251 . S
C222 H192 0.929 . S
C222 N218 1.418 . S
C222 C221 1.251 . S
C223 H190 0.930 . S
C223 C225 1.406 . S
C223 C228 1.261 . S
C224 H191 0.930 . S
C224 N226 1.325 . S
C224 C227 1.357 . S
C225 H193 0.928 . S
C225 C223 1.406 . S
C225 N226 1.261 . S
N226 Co177 2.214 . S
N226 C224 1.325 . S
N226 C225 1.261 . S
C227 H197 0.931 . S
C227 C224 1.357 . S
C227 C228 1.312 . S
C228 H199 0.930 . S
C228 C223 1.261 . S
C228 C227 1.312 . S
C229 O201 1.214 . S
C229 O209 1.234 . S
C230 H202 0.929 . S
C230 C233 1.391 . S
C230 C235 1.391 . S
C231 H203 0.929 . S
C231 C232 1.390 . S
C231 N234 1.391 . S
C232 H204 0.930 . S
C232 C231 1.390 . S
C232 C233 1.392 . S
C233 H205 0.929 . S
C233 C230 1.391 . S
C233 C232 1.392 . S
N234 Co178 2.257 . S
N234 C231 1.391 . S
N234 C235 1.388 . S
C235 H206 0.930 . S
C235 C230 1.391 . S
C235 N234 1.388 . S
Co236 O238 2.143 . S
Co236 O244 2.074 . S
Co236 O247 2.093 . S
Co236 O260 2.097 . S
Co236 N277 2.151 . S
Co236 N285 2.214 . S
Co237 O238 2.160 . S
Co237 O243 2.058 . S
Co237 O253 2.057 . S
Co237 O268 2.037 . S
Co237 N272 2.145 . S
Co237 N293 2.257 . S
O238 Co236 2.143 . S
O238 Co237 2.160 . S
C239 O240 1.278 . S
C239 O247 1.224 . S
O240 C239 1.278 . S
C241 O242 1.245 . S
C241 O253 1.232 . S
O242 C241 1.245 . S
O243 Co237 2.058 . S
O243 C269 1.269 . S
O244 Co236 2.074 . S
O244 C269 1.257 . S
H245 C270 0.930 . S
H246 C276 0.930 . S
O247 Co236 2.093 . S
O247 C239 1.224 . S
H248 C280 0.929 . S
H249 C282 0.930 . S
H250 C283 0.930 . S
H251 C281 0.929 . S
H252 C284 0.928 . S
O253 Co237 2.057 . S
O253 C241 1.232 . S
H254 C273 0.929 . S
H255 C274 0.929 . S
H256 C286 0.931 . S
H257 C278 0.929 . S
H258 C287 0.930 . S
H259 C279 0.931 . S
O260 Co236 2.097 . S
O260 C288 1.214 . S
H261 C289 0.929 . S
H262 C290 0.929 . S
H263 C291 0.930 . S
H264 C292 0.929 . S
H265 C294 0.930 . S
H266 C271 0.930 . S
H267 C275 0.930 . S
O268 Co237 2.037 . S
O268 C288 1.234 . S
C269 O243 1.269 . S
C269 O244 1.257 . S
C270 H245 0.930 . S
C270 C273 1.388 . S
C270 C275 1.418 . S
C271 H266 0.930 . S
C271 C274 1.404 . S
C271 C275 1.353 . S
N272 Co237 2.145 . S
N272 C273 1.397 . S
N272 C274 1.334 . S
C273 H254 0.929 . S
C273 C270 1.388 . S
C273 N272 1.397 . S
C274 H255 0.929 . S
C274 C271 1.404 . S
C274 N272 1.334 . S
C275 H267 0.930 . S
C275 C270 1.418 . S
C275 C271 1.353 . S
C276 H246 0.930 . S
C276 N277 1.330 . S
C276 C278 1.446 . S
N277 Co236 2.151 . S
N277 C276 1.330 . S
N277 C281 1.418 . S
C278 H257 0.929 . S
C278 C276 1.446 . S
C278 C279 1.332 . S
C279 H259 0.931 . S
C279 C278 1.332 . S
C279 C280 1.267 . S
C280 H248 0.929 . S
C280 C279 1.267 . S
C280 C281 1.251 . S
C281 H251 0.929 . S
C281 N277 1.418 . S
C281 C280 1.251 . S
C282 H249 0.930 . S
C282 C284 1.406 . S
C282 C287 1.261 . S
C283 H250 0.930 . S
C283 N285 1.325 . S
C283 C286 1.357 . S
C284 H252 0.928 . S
C284 C282 1.406 . S
C284 N285 1.261 . S
N285 Co236 2.214 . S
N285 C283 1.325 . S
N285 C284 1.261 . S
C286 H256 0.931 . S
C286 C283 1.357 . S
C286 C287 1.312 . S
C287 H258 0.930 . S
C287 C282 1.261 . S
C287 C286 1.312 . S
C288 O260 1.214 . S
C288 O268 1.234 . S
C289 H261 0.929 . S
C289 C292 1.391 . S
C289 C294 1.391 . S
C290 H262 0.929 . S
C290 C291 1.390 . S
C290 N293 1.391 . S
C291 H263 0.930 . S
C291 C290 1.390 . S
C291 C292 1.392 . S
C292 H264 0.929 . S
C292 C289 1.391 . S
C292 C291 1.392 . S
N293 Co237 2.257 . S
N293 C290 1.391 . S
N293 C294 1.388 . S
C294 H265 0.930 . S
C294 C289 1.391 . S
C294 N293 1.388 . S
Co295 O297 2.143 . S
Co295 O303 2.074 . S
Co295 O306 2.093 . S
Co295 O319 2.097 . S
Co295 N336 2.151 . S
Co295 N344 2.214 . S
Co296 O297 2.160 . S
Co296 O302 2.058 . S
Co296 O312 2.057 . S
Co296 O327 2.037 . S
Co296 N331 2.145 . S
Co296 N352 2.257 . S
O297 Co295 2.143 . S
O297 Co296 2.160 . S
C298 O299 1.278 . S
C298 O306 1.224 . S
O299 C298 1.278 . S
C300 O301 1.245 . S
C300 O312 1.232 . S
O301 C300 1.245 . S
O302 Co296 2.058 . S
O302 C328 1.269 . S
O303 Co295 2.074 . S
O303 C328 1.257 . S
H304 C329 0.930 . S
H305 C335 0.930 . S
O306 Co295 2.093 . S
O306 C298 1.224 . S
H307 C339 0.929 . S
H308 C341 0.930 . S
H309 C342 0.930 . S
H310 C340 0.929 . S
H311 C343 0.928 . S
O312 Co296 2.057 . S
O312 C300 1.232 . S
H313 C332 0.929 . S
H314 C333 0.929 . S
H315 C345 0.931 . S
H316 C337 0.929 . S
H317 C346 0.930 . S
H318 C338 0.931 . S
O319 Co295 2.097 . S
O319 C347 1.214 . S
H320 C348 0.929 . S
H321 C349 0.929 . S
H322 C350 0.930 . S
H323 C351 0.929 . S
H324 C353 0.930 . S
H325 C330 0.930 . S
H326 C334 0.930 . S
O327 Co296 2.037 . S
O327 C347 1.234 . S
C328 O302 1.269 . S
C328 O303 1.257 . S
C329 H304 0.930 . S
C329 C332 1.388 . S
C329 C334 1.418 . S
C330 H325 0.930 . S
C330 C333 1.404 . S
C330 C334 1.353 . S
N331 Co296 2.145 . S
N331 C332 1.397 . S
N331 C333 1.334 . S
C332 H313 0.929 . S
C332 C329 1.388 . S
C332 N331 1.397 . S
C333 H314 0.929 . S
C333 C330 1.404 . S
C333 N331 1.334 . S
C334 H326 0.930 . S
C334 C329 1.418 . S
C334 C330 1.353 . S
C335 H305 0.930 . S
C335 N336 1.330 . S
C335 C337 1.446 . S
N336 Co295 2.151 . S
N336 C335 1.330 . S
N336 C340 1.418 . S
C337 H316 0.929 . S
C337 C335 1.446 . S
C337 C338 1.332 . S
C338 H318 0.931 . S
C338 C337 1.332 . S
C338 C339 1.267 . S
C339 H307 0.929 . S
C339 C338 1.267 . S
C339 C340 1.251 . S
C340 H310 0.929 . S
C340 N336 1.418 . S
C340 C339 1.251 . S
C341 H308 0.930 . S
C341 C343 1.406 . S
C341 C346 1.261 . S
C342 H309 0.930 . S
C342 N344 1.325 . S
C342 C345 1.357 . S
C343 H311 0.928 . S
C343 C341 1.406 . S
C343 N344 1.261 . S
N344 Co295 2.214 . S
N344 C342 1.325 . S
N344 C343 1.261 . S
C345 H315 0.931 . S
C345 C342 1.357 . S
C345 C346 1.312 . S
C346 H317 0.930 . S
C346 C341 1.261 . S
C346 C345 1.312 . S
C347 O319 1.214 . S
C347 O327 1.234 . S
C348 H320 0.929 . S
C348 C351 1.391 . S
C348 C353 1.391 . S
C349 H321 0.929 . S
C349 C350 1.390 . S
C349 N352 1.391 . S
C350 H322 0.930 . S
C350 C349 1.390 . S
C350 C351 1.392 . S
C351 H323 0.929 . S
C351 C348 1.391 . S
C351 C350 1.392 . S
N352 Co296 2.257 . S
N352 C349 1.391 . S
N352 C353 1.388 . S
C353 H324 0.930 . S
C353 C348 1.391 . S
C353 N352 1.388 . S
Co354 O356 2.143 . S
Co354 O362 2.074 . S
Co354 O365 2.093 . S
Co354 O378 2.097 . S
Co354 N395 2.151 . S
Co354 N403 2.214 . S
Co355 O356 2.160 . S
Co355 O361 2.058 . S
Co355 O371 2.057 . S
Co355 O386 2.037 . S
Co355 N390 2.145 . S
Co355 N411 2.257 . S
O356 Co354 2.143 . S
O356 Co355 2.160 . S
C357 O358 1.278 . S
C357 O365 1.224 . S
O358 C357 1.278 . S
C359 O360 1.245 . S
C359 O371 1.232 . S
O360 C359 1.245 . S
O361 Co355 2.058 . S
O361 C387 1.269 . S
O362 Co354 2.074 . S
O362 C387 1.257 . S
H363 C388 0.930 . S
H364 C394 0.930 . S
O365 Co354 2.093 . S
O365 C357 1.224 . S
H366 C398 0.929 . S
H367 C400 0.930 . S
H368 C401 0.930 . S
H369 C399 0.929 . S
H370 C402 0.928 . S
O371 Co355 2.057 . S
O371 C359 1.232 . S
H372 C391 0.929 . S
H373 C392 0.929 . S
H374 C404 0.931 . S
H375 C396 0.929 . S
H376 C405 0.930 . S
H377 C397 0.931 . S
O378 Co354 2.097 . S
O378 C406 1.214 . S
H379 C407 0.929 . S
H380 C408 0.929 . S
H381 C409 0.930 . S
H382 C410 0.929 . S
H383 C412 0.930 . S
H384 C389 0.930 . S
H385 C393 0.930 . S
O386 Co355 2.037 . S
O386 C406 1.234 . S
C387 O361 1.269 . S
C387 O362 1.257 . S
C388 H363 0.930 . S
C388 C391 1.388 . S
C388 C393 1.418 . S
C389 H384 0.930 . S
C389 C392 1.404 . S
C389 C393 1.353 . S
N390 Co355 2.145 . S
N390 C391 1.397 . S
N390 C392 1.334 . S
C391 H372 0.929 . S
C391 C388 1.388 . S
C391 N390 1.397 . S
C392 H373 0.929 . S
C392 C389 1.404 . S
C392 N390 1.334 . S
C393 H385 0.930 . S
C393 C388 1.418 . S
C393 C389 1.353 . S
C394 H364 0.930 . S
C394 N395 1.330 . S
C394 C396 1.446 . S
N395 Co354 2.151 . S
N395 C394 1.330 . S
N395 C399 1.418 . S
C396 H375 0.929 . S
C396 C394 1.446 . S
C396 C397 1.332 . S
C397 H377 0.931 . S
C397 C396 1.332 . S
C397 C398 1.267 . S
C398 H366 0.929 . S
C398 C397 1.267 . S
C398 C399 1.251 . S
C399 H369 0.929 . S
C399 N395 1.418 . S
C399 C398 1.251 . S
C400 H367 0.930 . S
C400 C402 1.406 . S
C400 C405 1.261 . S
C401 H368 0.930 . S
C401 N403 1.325 . S
C401 C404 1.357 . S
C402 H370 0.928 . S
C402 C400 1.406 . S
C402 N403 1.261 . S
N403 Co354 2.214 . S
N403 C401 1.325 . S
N403 C402 1.261 . S
C404 H374 0.931 . S
C404 C401 1.357 . S
C404 C405 1.312 . S
C405 H376 0.930 . S
C405 C400 1.261 . S
C405 C404 1.312 . S
C406 O378 1.214 . S
C406 O386 1.234 . S
C407 H379 0.929 . S
C407 C410 1.391 . S
C407 C412 1.391 . S
C408 H380 0.929 . S
C408 C409 1.390 . S
C408 N411 1.391 . S
C409 H381 0.930 . S
C409 C408 1.390 . S
C409 C410 1.392 . S
C410 H382 0.929 . S
C410 C407 1.391 . S
C410 C409 1.392 . S
N411 Co355 2.257 . S
N411 C408 1.391 . S
N411 C412 1.388 . S
C412 H383 0.930 . S
C412 C407 1.391 . S
C412 N411 1.388 . S
Co413 O415 2.143 . S
Co413 O421 2.074 . S
Co413 O424 2.093 . S
Co413 O437 2.097 . S
Co413 N454 2.151 . S
Co413 N462 2.214 . S
Co414 O415 2.160 . S
Co414 O420 2.058 . S
Co414 O430 2.057 . S
Co414 O445 2.037 . S
Co414 N449 2.145 . S
Co414 N470 2.257 . S
O415 Co413 2.143 . S
O415 Co414 2.160 . S
C416 O417 1.278 . S
C416 O424 1.224 . S
O417 C416 1.278 . S
C418 O419 1.245 . S
C418 O430 1.232 . S
O419 C418 1.245 . S
O420 Co414 2.058 . S
O420 C446 1.269 . S
O421 Co413 2.074 . S
O421 C446 1.257 . S
H422 C447 0.930 . S
H423 C453 0.930 . S
O424 Co413 2.093 . S
O424 C416 1.224 . S
H425 C457 0.929 . S
H426 C459 0.930 . S
H427 C460 0.930 . S
H428 C458 0.929 . S
H429 C461 0.928 . S
O430 Co414 2.057 . S
O430 C418 1.232 . S
H431 C450 0.929 . S
H432 C451 0.929 . S
H433 C463 0.931 . S
H434 C455 0.929 . S
H435 C464 0.930 . S
H436 C456 0.931 . S
O437 Co413 2.097 . S
O437 C465 1.214 . S
H438 C466 0.929 . S
H439 C467 0.929 . S
H440 C468 0.930 . S
H441 C469 0.929 . S
H442 C471 0.930 . S
H443 C448 0.930 . S
H444 C452 0.930 . S
O445 Co414 2.037 . S
O445 C465 1.234 . S
C446 O420 1.269 . S
C446 O421 1.257 . S
C447 H422 0.930 . S
C447 C450 1.388 . S
C447 C452 1.418 . S
C448 H443 0.930 . S
C448 C451 1.404 . S
C448 C452 1.353 . S
N449 Co414 2.145 . S
N449 C450 1.397 . S
N449 C451 1.334 . S
C450 H431 0.929 . S
C450 C447 1.388 . S
C450 N449 1.397 . S
C451 H432 0.929 . S
C451 C448 1.404 . S
C451 N449 1.334 . S
C452 H444 0.930 . S
C452 C447 1.418 . S
C452 C448 1.353 . S
C453 H423 0.930 . S
C453 N454 1.330 . S
C453 C455 1.446 . S
N454 Co413 2.151 . S
N454 C453 1.330 . S
N454 C458 1.418 . S
C455 H434 0.929 . S
C455 C453 1.446 . S
C455 C456 1.332 . S
C456 H436 0.931 . S
C456 C455 1.332 . S
C456 C457 1.267 . S
C457 H425 0.929 . S
C457 C456 1.267 . S
C457 C458 1.251 . S
C458 H428 0.929 . S
C458 N454 1.418 . S
C458 C457 1.251 . S
C459 H426 0.930 . S
C459 C461 1.406 . S
C459 C464 1.261 . S
C460 H427 0.930 . S
C460 N462 1.325 . S
C460 C463 1.357 . S
C461 H429 0.928 . S
C461 C459 1.406 . S
C461 N462 1.261 . S
N462 Co413 2.214 . S
N462 C460 1.325 . S
N462 C461 1.261 . S
C463 H433 0.931 . S
C463 C460 1.357 . S
C463 C464 1.312 . S
C464 H435 0.930 . S
C464 C459 1.261 . S
C464 C463 1.312 . S
C465 O437 1.214 . S
C465 O445 1.234 . S
C466 H438 0.929 . S
C466 C469 1.391 . S
C466 C471 1.391 . S
C467 H439 0.929 . S
C467 C468 1.390 . S
C467 N470 1.391 . S
C468 H440 0.930 . S
C468 C467 1.390 . S
C468 C469 1.392 . S
C469 H441 0.929 . S
C469 C466 1.391 . S
C469 C468 1.392 . S
N470 Co414 2.257 . S
N470 C467 1.391 . S
N470 C471 1.388 . S
C471 H442 0.930 . S
C471 C466 1.391 . S
C471 N470 1.388 . S
Co472 O474 2.143 . S
Co472 O480 2.074 . S
Co472 O483 2.093 . S
Co472 O496 2.097 . S
Co472 N513 2.151 . S
Co472 N521 2.214 . S
Co473 O474 2.160 . S
Co473 O479 2.058 . S
Co473 O489 2.057 . S
Co473 O504 2.037 . S
Co473 N508 2.145 . S
Co473 N529 2.257 . S
O474 Co472 2.143 . S
O474 Co473 2.160 . S
C475 O476 1.278 . S
C475 O483 1.224 . S
O476 C475 1.278 . S
C477 O478 1.245 . S
C477 O489 1.232 . S
O478 C477 1.245 . S
O479 Co473 2.058 . S
O479 C505 1.269 . S
O480 Co472 2.074 . S
O480 C505 1.257 . S
H481 C506 0.930 . S
H482 C512 0.930 . S
O483 Co472 2.093 . S
O483 C475 1.224 . S
H484 C516 0.929 . S
H485 C518 0.930 . S
H486 C519 0.930 . S
H487 C517 0.929 . S
H488 C520 0.928 . S
O489 Co473 2.057 . S
O489 C477 1.232 . S
H490 C509 0.929 . S
H491 C510 0.929 . S
H492 C522 0.931 . S
H493 C514 0.929 . S
H494 C523 0.930 . S
H495 C515 0.931 . S
O496 Co472 2.097 . S
O496 C524 1.214 . S
H497 C525 0.929 . S
H498 C526 0.929 . S
H499 C527 0.930 . S
H500 C528 0.929 . S
H501 C530 0.930 . S
H502 C507 0.930 . S
H503 C511 0.930 . S
O504 Co473 2.037 . S
O504 C524 1.234 . S
C505 O479 1.269 . S
C505 O480 1.257 . S
C506 H481 0.930 . S
C506 C509 1.388 . S
C506 C511 1.418 . S
C507 H502 0.930 . S
C507 C510 1.404 . S
C507 C511 1.353 . S
N508 Co473 2.145 . S
N508 C509 1.397 . S
N508 C510 1.334 . S
C509 H490 0.929 . S
C509 C506 1.388 . S
C509 N508 1.397 . S
C510 H491 0.929 . S
C510 C507 1.404 . S
C510 N508 1.334 . S
C511 H503 0.930 . S
C511 C506 1.418 . S
C511 C507 1.353 . S
C512 H482 0.930 . S
C512 N513 1.330 . S
C512 C514 1.446 . S
N513 Co472 2.151 . S
N513 C512 1.330 . S
N513 C517 1.418 . S
C514 H493 0.929 . S
C514 C512 1.446 . S
C514 C515 1.332 . S
C515 H495 0.931 . S
C515 C514 1.332 . S
C515 C516 1.267 . S
C516 H484 0.929 . S
C516 C515 1.267 . S
C516 C517 1.251 . S
C517 H487 0.929 . S
C517 N513 1.418 . S
C517 C516 1.251 . S
C518 H485 0.930 . S
C518 C520 1.406 . S
C518 C523 1.261 . S
C519 H486 0.930 . S
C519 N521 1.325 . S
C519 C522 1.357 . S
C520 H488 0.928 . S
C520 C518 1.406 . S
C520 N521 1.261 . S
N521 Co472 2.214 . S
N521 C519 1.325 . S
N521 C520 1.261 . S
C522 H492 0.931 . S
C522 C519 1.357 . S
C522 C523 1.312 . S
C523 H494 0.930 . S
C523 C518 1.261 . S
C523 C522 1.312 . S
C524 O496 1.214 . S
C524 O504 1.234 . S
C525 H497 0.929 . S
C525 C528 1.391 . S
C525 C530 1.391 . S
C526 H498 0.929 . S
C526 C527 1.390 . S
C526 N529 1.391 . S
C527 H499 0.930 . S
C527 C526 1.390 . S
C527 C528 1.392 . S
C528 H500 0.929 . S
C528 C525 1.391 . S
C528 C527 1.392 . S
N529 Co473 2.257 . S
N529 C526 1.391 . S
N529 C530 1.388 . S
C530 H501 0.930 . S
C530 C525 1.391 . S
C530 N529 1.388 . S
Co531 O533 2.143 . S
Co531 O539 2.074 . S
Co531 O542 2.093 . S
Co531 O555 2.097 . S
Co531 N572 2.151 . S
Co531 N580 2.214 . S
Co532 O533 2.160 . S
Co532 O538 2.058 . S
Co532 O548 2.057 . S
Co532 O563 2.037 . S
Co532 N567 2.145 . S
Co532 N588 2.257 . S
O533 Co531 2.143 . S
O533 Co532 2.160 . S
C534 O535 1.278 . S
C534 O542 1.224 . S
O535 C534 1.278 . S
C536 O537 1.245 . S
C536 O548 1.232 . S
O537 C536 1.245 . S
O538 Co532 2.058 . S
O538 C564 1.269 . S
O539 Co531 2.074 . S
O539 C564 1.257 . S
H540 C565 0.930 . S
H541 C571 0.930 . S
O542 Co531 2.093 . S
O542 C534 1.224 . S
H543 C575 0.929 . S
H544 C577 0.930 . S
H545 C578 0.930 . S
H546 C576 0.929 . S
H547 C579 0.928 . S
O548 Co532 2.057 . S
O548 C536 1.232 . S
H549 C568 0.929 . S
H550 C569 0.929 . S
H551 C581 0.931 . S
H552 C573 0.929 . S
H553 C582 0.930 . S
H554 C574 0.931 . S
O555 Co531 2.097 . S
O555 C583 1.214 . S
H556 C584 0.929 . S
H557 C585 0.929 . S
H558 C586 0.930 . S
H559 C587 0.929 . S
H560 C589 0.930 . S
H561 C566 0.930 . S
H562 C570 0.930 . S
O563 Co532 2.037 . S
O563 C583 1.234 . S
C564 O538 1.269 . S
C564 O539 1.257 . S
C565 H540 0.930 . S
C565 C568 1.388 . S
C565 C570 1.418 . S
C566 H561 0.930 . S
C566 C569 1.404 . S
C566 C570 1.353 . S
N567 Co532 2.145 . S
N567 C568 1.397 . S
N567 C569 1.334 . S
C568 H549 0.929 . S
C568 C565 1.388 . S
C568 N567 1.397 . S
C569 H550 0.929 . S
C569 C566 1.404 . S
C569 N567 1.334 . S
C570 H562 0.930 . S
C570 C565 1.418 . S
C570 C566 1.353 . S
C571 H541 0.930 . S
C571 N572 1.330 . S
C571 C573 1.446 . S
N572 Co531 2.151 . S
N572 C571 1.330 . S
N572 C576 1.418 . S
C573 H552 0.929 . S
C573 C571 1.446 . S
C573 C574 1.332 . S
C574 H554 0.931 . S
C574 C573 1.332 . S
C574 C575 1.267 . S
C575 H543 0.929 . S
C575 C574 1.267 . S
C575 C576 1.251 . S
C576 H546 0.929 . S
C576 N572 1.418 . S
C576 C575 1.251 . S
C577 H544 0.930 . S
C577 C579 1.406 . S
C577 C582 1.261 . S
C578 H545 0.930 . S
C578 N580 1.325 . S
C578 C581 1.357 . S
C579 H547 0.928 . S
C579 C577 1.406 . S
C579 N580 1.261 . S
N580 Co531 2.214 . S
N580 C578 1.325 . S
N580 C579 1.261 . S
C581 H551 0.931 . S
C581 C578 1.357 . S
C581 C582 1.312 . S
C582 H553 0.930 . S
C582 C577 1.261 . S
C582 C581 1.312 . S
C583 O555 1.214 . S
C583 O563 1.234 . S
C584 H556 0.929 . S
C584 C587 1.391 . S
C584 C589 1.391 . S
C585 H557 0.929 . S
C585 C586 1.390 . S
C585 N588 1.391 . S
C586 H558 0.930 . S
C586 C585 1.390 . S
C586 C587 1.392 . S
C587 H559 0.929 . S
C587 C584 1.391 . S
C587 C586 1.392 . S
N588 Co532 2.257 . S
N588 C585 1.391 . S
N588 C589 1.388 . S
C589 H560 0.930 . S
C589 C584 1.391 . S
C589 N588 1.388 . S
Co590 O592 2.143 . S
Co590 O598 2.074 . S
Co590 O601 2.093 . S
Co590 O614 2.097 . S
Co590 N631 2.151 . S
Co590 N639 2.214 . S
Co591 O592 2.160 . S
Co591 O597 2.058 . S
Co591 O607 2.057 . S
Co591 O622 2.037 . S
Co591 N626 2.145 . S
Co591 N647 2.257 . S
O592 Co590 2.143 . S
O592 Co591 2.160 . S
C593 O594 1.278 . S
C593 O601 1.224 . S
O594 C593 1.278 . S
C595 O596 1.245 . S
C595 O607 1.232 . S
O596 C595 1.245 . S
O597 Co591 2.058 . S
O597 C623 1.269 . S
O598 Co590 2.074 . S
O598 C623 1.257 . S
H599 C624 0.930 . S
H600 C630 0.930 . S
O601 Co590 2.093 . S
O601 C593 1.224 . S
H602 C634 0.929 . S
H603 C636 0.930 . S
H604 C637 0.930 . S
H605 C635 0.929 . S
H606 C638 0.928 . S
O607 Co591 2.057 . S
O607 C595 1.232 . S
H608 C627 0.929 . S
H609 C628 0.929 . S
H610 C640 0.931 . S
H611 C632 0.929 . S
H612 C641 0.930 . S
H613 C633 0.931 . S
O614 Co590 2.097 . S
O614 C642 1.214 . S
H615 C643 0.929 . S
H616 C644 0.929 . S
H617 C645 0.930 . S
H618 C646 0.929 . S
H619 C648 0.930 . S
H620 C625 0.930 . S
H621 C629 0.930 . S
O622 Co591 2.037 . S
O622 C642 1.234 . S
C623 O597 1.269 . S
C623 O598 1.257 . S
C624 H599 0.930 . S
C624 C627 1.388 . S
C624 C629 1.418 . S
C625 H620 0.930 . S
C625 C628 1.404 . S
C625 C629 1.353 . S
N626 Co591 2.145 . S
N626 C627 1.397 . S
N626 C628 1.334 . S
C627 H608 0.929 . S
C627 C624 1.388 . S
C627 N626 1.397 . S
C628 H609 0.929 . S
C628 C625 1.404 . S
C628 N626 1.334 . S
C629 H621 0.930 . S
C629 C624 1.418 . S
C629 C625 1.353 . S
C630 H600 0.930 . S
C630 N631 1.330 . S
C630 C632 1.446 . S
N631 Co590 2.151 . S
N631 C630 1.330 . S
N631 C635 1.418 . S
C632 H611 0.929 . S
C632 C630 1.446 . S
C632 C633 1.332 . S
C633 H613 0.931 . S
C633 C632 1.332 . S
C633 C634 1.267 . S
C634 H602 0.929 . S
C634 C633 1.267 . S
C634 C635 1.251 . S
C635 H605 0.929 . S
C635 N631 1.418 . S
C635 C634 1.251 . S
C636 H603 0.930 . S
C636 C638 1.406 . S
C636 C641 1.261 . S
C637 H604 0.930 . S
C637 N639 1.325 . S
C637 C640 1.357 . S
C638 H606 0.928 . S
C638 C636 1.406 . S
C638 N639 1.261 . S
N639 Co590 2.214 . S
N639 C637 1.325 . S
N639 C638 1.261 . S
C640 H610 0.931 . S
C640 C637 1.357 . S
C640 C641 1.312 . S
C641 H612 0.930 . S
C641 C636 1.261 . S
C641 C640 1.312 . S
C642 O614 1.214 . S
C642 O622 1.234 . S
C643 H615 0.929 . S
C643 C646 1.391 . S
C643 C648 1.391 . S
C644 H616 0.929 . S
C644 C645 1.390 . S
C644 N647 1.391 . S
C645 H617 0.930 . S
C645 C644 1.390 . S
C645 C646 1.392 . S
C646 H618 0.929 . S
C646 C643 1.391 . S
C646 C645 1.392 . S
N647 Co591 2.257 . S
N647 C644 1.391 . S
N647 C648 1.388 . S
C648 H619 0.930 . S
C648 C643 1.391 . S
C648 N647 1.388 . S
Co649 O651 2.143 . S
Co649 O657 2.074 . S
Co649 O660 2.093 . S
Co649 O673 2.097 . S
Co649 N690 2.151 . S
Co649 N698 2.214 . S
Co650 O651 2.160 . S
Co650 O656 2.058 . S
Co650 O666 2.057 . S
Co650 O681 2.037 . S
Co650 N685 2.145 . S
Co650 N706 2.257 . S
O651 Co649 2.143 . S
O651 Co650 2.160 . S
C652 O653 1.278 . S
C652 O660 1.224 . S
O653 C652 1.278 . S
C654 O655 1.245 . S
C654 O666 1.232 . S
O655 C654 1.245 . S
O656 Co650 2.058 . S
O656 C682 1.269 . S
O657 Co649 2.074 . S
O657 C682 1.257 . S
H658 C683 0.930 . S
H659 C689 0.930 . S
O660 Co649 2.093 . S
O660 C652 1.224 . S
H661 C693 0.929 . S
H662 C695 0.930 . S
H663 C696 0.930 . S
H664 C694 0.929 . S
H665 C697 0.928 . S
O666 Co650 2.057 . S
O666 C654 1.232 . S
H667 C686 0.929 . S
H668 C687 0.929 . S
H669 C699 0.931 . S
H670 C691 0.929 . S
H671 C700 0.930 . S
H672 C692 0.931 . S
O673 Co649 2.097 . S
O673 C701 1.214 . S
H674 C702 0.929 . S
H675 C703 0.929 . S
H676 C704 0.930 . S
H677 C705 0.929 . S
H678 C707 0.930 . S
H679 C684 0.930 . S
H680 C688 0.930 . S
O681 Co650 2.037 . S
O681 C701 1.234 . S
C682 O656 1.269 . S
C682 O657 1.257 . S
C683 H658 0.930 . S
C683 C686 1.388 . S
C683 C688 1.418 . S
C684 H679 0.930 . S
C684 C687 1.404 . S
C684 C688 1.353 . S
N685 Co650 2.145 . S
N685 C686 1.397 . S
N685 C687 1.334 . S
C686 H667 0.929 . S
C686 C683 1.388 . S
C686 N685 1.397 . S
C687 H668 0.929 . S
C687 C684 1.404 . S
C687 N685 1.334 . S
C688 H680 0.930 . S
C688 C683 1.418 . S
C688 C684 1.353 . S
C689 H659 0.930 . S
C689 N690 1.330 . S
C689 C691 1.446 . S
N690 Co649 2.151 . S
N690 C689 1.330 . S
N690 C694 1.418 . S
C691 H670 0.929 . S
C691 C689 1.446 . S
C691 C692 1.332 . S
C692 H672 0.931 . S
C692 C691 1.332 . S
C692 C693 1.267 . S
C693 H661 0.929 . S
C693 C692 1.267 . S
C693 C694 1.251 . S
C694 H664 0.929 . S
C694 N690 1.418 . S
C694 C693 1.251 . S
C695 H662 0.930 . S
C695 C697 1.406 . S
C695 C700 1.261 . S
C696 H663 0.930 . S
C696 N698 1.325 . S
C696 C699 1.357 . S
C697 H665 0.928 . S
C697 C695 1.406 . S
C697 N698 1.261 . S
N698 Co649 2.214 . S
N698 C696 1.325 . S
N698 C697 1.261 . S
C699 H669 0.931 . S
C699 C696 1.357 . S
C699 C700 1.312 . S
C700 H671 0.930 . S
C700 C695 1.261 . S
C700 C699 1.312 . S
C701 O673 1.214 . S
C701 O681 1.234 . S
C702 H674 0.929 . S
C702 C705 1.391 . S
C702 C707 1.391 . S
C703 H675 0.929 . S
C703 C704 1.390 . S
C703 N706 1.391 . S
C704 H676 0.930 . S
C704 C703 1.390 . S
C704 C705 1.392 . S
C705 H677 0.929 . S
C705 C702 1.391 . S
C705 C704 1.392 . S
N706 Co650 2.257 . S
N706 C703 1.391 . S
N706 C707 1.388 . S
C707 H678 0.930 . S
C707 C702 1.391 . S
C707 N706 1.388 . S
Co708 O710 2.143 . S
Co708 O716 2.074 . S
Co708 O719 2.093 . S
Co708 O732 2.097 . S
Co708 N749 2.151 . S
Co708 N757 2.214 . S
Co709 O710 2.160 . S
Co709 O715 2.058 . S
Co709 O725 2.057 . S
Co709 O740 2.037 . S
Co709 N744 2.145 . S
Co709 N765 2.257 . S
O710 Co708 2.143 . S
O710 Co709 2.160 . S
C711 O712 1.278 . S
C711 O719 1.224 . S
O712 C711 1.278 . S
C713 O714 1.245 . S
C713 O725 1.232 . S
O714 C713 1.245 . S
O715 Co709 2.058 . S
O715 C741 1.269 . S
O716 Co708 2.074 . S
O716 C741 1.257 . S
H717 C742 0.930 . S
H718 C748 0.930 . S
O719 Co708 2.093 . S
O719 C711 1.224 . S
H720 C752 0.929 . S
H721 C754 0.930 . S
H722 C755 0.930 . S
H723 C753 0.929 . S
H724 C756 0.928 . S
O725 Co709 2.057 . S
O725 C713 1.232 . S
H726 C745 0.929 . S
H727 C746 0.929 . S
H728 C758 0.931 . S
H729 C750 0.929 . S
H730 C759 0.930 . S
H731 C751 0.931 . S
O732 Co708 2.097 . S
O732 C760 1.214 . S
H733 C761 0.929 . S
H734 C762 0.929 . S
H735 C763 0.930 . S
H736 C764 0.929 . S
H737 C766 0.930 . S
H738 C743 0.930 . S
H739 C747 0.930 . S
O740 Co709 2.037 . S
O740 C760 1.234 . S
C741 O715 1.269 . S
C741 O716 1.257 . S
C742 H717 0.930 . S
C742 C745 1.388 . S
C742 C747 1.418 . S
C743 H738 0.930 . S
C743 C746 1.404 . S
C743 C747 1.353 . S
N744 Co709 2.145 . S
N744 C745 1.397 . S
N744 C746 1.334 . S
C745 H726 0.929 . S
C745 C742 1.388 . S
C745 N744 1.397 . S
C746 H727 0.929 . S
C746 C743 1.404 . S
C746 N744 1.334 . S
C747 H739 0.930 . S
C747 C742 1.418 . S
C747 C743 1.353 . S
C748 H718 0.930 . S
C748 N749 1.330 . S
C748 C750 1.446 . S
N749 Co708 2.151 . S
N749 C748 1.330 . S
N749 C753 1.418 . S
C750 H729 0.929 . S
C750 C748 1.446 . S
C750 C751 1.332 . S
C751 H731 0.931 . S
C751 C750 1.332 . S
C751 C752 1.267 . S
C752 H720 0.929 . S
C752 C751 1.267 . S
C752 C753 1.251 . S
C753 H723 0.929 . S
C753 N749 1.418 . S
C753 C752 1.251 . S
C754 H721 0.930 . S
C754 C756 1.406 . S
C754 C759 1.261 . S
C755 H722 0.930 . S
C755 N757 1.325 . S
C755 C758 1.357 . S
C756 H724 0.928 . S
C756 C754 1.406 . S
C756 N757 1.261 . S
N757 Co708 2.214 . S
N757 C755 1.325 . S
N757 C756 1.261 . S
C758 H728 0.931 . S
C758 C755 1.357 . S
C758 C759 1.312 . S
C759 H730 0.930 . S
C759 C754 1.261 . S
C759 C758 1.312 . S
C760 O732 1.214 . S
C760 O740 1.234 . S
C761 H733 0.929 . S
C761 C764 1.391 . S
C761 C766 1.391 . S
C762 H734 0.929 . S
C762 C763 1.390 . S
C762 N765 1.391 . S
C763 H735 0.930 . S
C763 C762 1.390 . S
C763 C764 1.392 . S
C764 H736 0.929 . S
C764 C761 1.391 . S
C764 C763 1.392 . S
N765 Co709 2.257 . S
N765 C762 1.391 . S
N765 C766 1.388 . S
C766 H737 0.930 . S
C766 C761 1.391 . S
C766 N765 1.388 . S
Co767 O769 2.143 . S
Co767 O775 2.074 . S
Co767 O778 2.093 . S
Co767 O791 2.097 . S
Co767 N808 2.151 . S
Co767 N816 2.214 . S
Co768 O769 2.160 . S
Co768 O774 2.058 . S
Co768 O784 2.057 . S
Co768 O799 2.037 . S
Co768 N803 2.145 . S
Co768 N824 2.257 . S
O769 Co767 2.143 . S
O769 Co768 2.160 . S
C770 O771 1.278 . S
C770 O778 1.224 . S
O771 C770 1.278 . S
C772 O773 1.245 . S
C772 O784 1.232 . S
O773 C772 1.245 . S
O774 Co768 2.058 . S
O774 C800 1.269 . S
O775 Co767 2.074 . S
O775 C800 1.257 . S
H776 C801 0.930 . S
H777 C807 0.930 . S
O778 Co767 2.093 . S
O778 C770 1.224 . S
H779 C811 0.929 . S
H780 C813 0.930 . S
H781 C814 0.930 . S
H782 C812 0.929 . S
H783 C815 0.928 . S
O784 Co768 2.057 . S
O784 C772 1.232 . S
H785 C804 0.929 . S
H786 C805 0.929 . S
H787 C817 0.931 . S
H788 C809 0.929 . S
H789 C818 0.930 . S
H790 C810 0.931 . S
O791 Co767 2.097 . S
O791 C819 1.214 . S
H792 C820 0.929 . S
H793 C821 0.929 . S
H794 C822 0.930 . S
H795 C823 0.929 . S
H796 C825 0.930 . S
H797 C802 0.930 . S
H798 C806 0.930 . S
O799 Co768 2.037 . S
O799 C819 1.234 . S
C800 O774 1.269 . S
C800 O775 1.257 . S
C801 H776 0.930 . S
C801 C804 1.388 . S
C801 C806 1.418 . S
C802 H797 0.930 . S
C802 C805 1.404 . S
C802 C806 1.353 . S
N803 Co768 2.145 . S
N803 C804 1.397 . S
N803 C805 1.334 . S
C804 H785 0.929 . S
C804 C801 1.388 . S
C804 N803 1.397 . S
C805 H786 0.929 . S
C805 C802 1.404 . S
C805 N803 1.334 . S
C806 H798 0.930 . S
C806 C801 1.418 . S
C806 C802 1.353 . S
C807 H777 0.930 . S
C807 N808 1.330 . S
C807 C809 1.446 . S
N808 Co767 2.151 . S
N808 C807 1.330 . S
N808 C812 1.418 . S
C809 H788 0.929 . S
C809 C807 1.446 . S
C809 C810 1.332 . S
C810 H790 0.931 . S
C810 C809 1.332 . S
C810 C811 1.267 . S
C811 H779 0.929 . S
C811 C810 1.267 . S
C811 C812 1.251 . S
C812 H782 0.929 . S
C812 N808 1.418 . S
C812 C811 1.251 . S
C813 H780 0.930 . S
C813 C815 1.406 . S
C813 C818 1.261 . S
C814 H781 0.930 . S
C814 N816 1.325 . S
C814 C817 1.357 . S
C815 H783 0.928 . S
C815 C813 1.406 . S
C815 N816 1.261 . S
N816 Co767 2.214 . S
N816 C814 1.325 . S
N816 C815 1.261 . S
C817 H787 0.931 . S
C817 C814 1.357 . S
C817 C818 1.312 . S
C818 H789 0.930 . S
C818 C813 1.261 . S
C818 C817 1.312 . S
C819 O791 1.214 . S
C819 O799 1.234 . S
C820 H792 0.929 . S
C820 C823 1.391 . S
C820 C825 1.391 . S
C821 H793 0.929 . S
C821 C822 1.390 . S
C821 N824 1.391 . S
C822 H794 0.930 . S
C822 C821 1.390 . S
C822 C823 1.392 . S
C823 H795 0.929 . S
C823 C820 1.391 . S
C823 C822 1.392 . S
N824 Co768 2.257 . S
N824 C821 1.391 . S
N824 C825 1.388 . S
C825 H796 0.930 . S
C825 C820 1.391 . S
C825 N824 1.388 . S
Co826 O828 2.143 . S
Co826 O834 2.074 . S
Co826 O837 2.093 . S
Co826 O850 2.097 . S
Co826 N867 2.151 . S
Co826 N875 2.214 . S
Co827 O828 2.160 . S
Co827 O833 2.058 . S
Co827 O843 2.057 . S
Co827 O858 2.037 . S
Co827 N862 2.145 . S
Co827 N883 2.257 . S
O828 Co826 2.143 . S
O828 Co827 2.160 . S
C829 O830 1.278 . S
C829 O837 1.224 . S
O830 C829 1.278 . S
C831 O832 1.245 . S
C831 O843 1.232 . S
O832 C831 1.245 . S
O833 Co827 2.058 . S
O833 C859 1.269 . S
O834 Co826 2.074 . S
O834 C859 1.257 . S
H835 C860 0.930 . S
H836 C866 0.930 . S
O837 Co826 2.093 . S
O837 C829 1.224 . S
H838 C870 0.929 . S
H839 C872 0.930 . S
H840 C873 0.930 . S
H841 C871 0.929 . S
H842 C874 0.928 . S
O843 Co827 2.057 . S
O843 C831 1.232 . S
H844 C863 0.929 . S
H845 C864 0.929 . S
H846 C876 0.931 . S
H847 C868 0.929 . S
H848 C877 0.930 . S
H849 C869 0.931 . S
O850 Co826 2.097 . S
O850 C878 1.214 . S
H851 C879 0.929 . S
H852 C880 0.929 . S
H853 C881 0.930 . S
H854 C882 0.929 . S
H855 C884 0.930 . S
H856 C861 0.930 . S
H857 C865 0.930 . S
O858 Co827 2.037 . S
O858 C878 1.234 . S
C859 O833 1.269 . S
C859 O834 1.257 . S
C860 H835 0.930 . S
C860 C863 1.388 . S
C860 C865 1.418 . S
C861 H856 0.930 . S
C861 C864 1.404 . S
C861 C865 1.353 . S
N862 Co827 2.145 . S
N862 C863 1.397 . S
N862 C864 1.334 . S
C863 H844 0.929 . S
C863 C860 1.388 . S
C863 N862 1.397 . S
C864 H845 0.929 . S
C864 C861 1.404 . S
C864 N862 1.334 . S
C865 H857 0.930 . S
C865 C860 1.418 . S
C865 C861 1.353 . S
C866 H836 0.930 . S
C866 N867 1.330 . S
C866 C868 1.446 . S
N867 Co826 2.151 . S
N867 C866 1.330 . S
N867 C871 1.418 . S
C868 H847 0.929 . S
C868 C866 1.446 . S
C868 C869 1.332 . S
C869 H849 0.931 . S
C869 C868 1.332 . S
C869 C870 1.267 . S
C870 H838 0.929 . S
C870 C869 1.267 . S
C870 C871 1.251 . S
C871 H841 0.929 . S
C871 N867 1.418 . S
C871 C870 1.251 . S
C872 H839 0.930 . S
C872 C874 1.406 . S
C872 C877 1.261 . S
C873 H840 0.930 . S
C873 N875 1.325 . S
C873 C876 1.357 . S
C874 H842 0.928 . S
C874 C872 1.406 . S
C874 N875 1.261 . S
N875 Co826 2.214 . S
N875 C873 1.325 . S
N875 C874 1.261 . S
C876 H846 0.931 . S
C876 C873 1.357 . S
C876 C877 1.312 . S
C877 H848 0.930 . S
C877 C872 1.261 . S
C877 C876 1.312 . S
C878 O850 1.214 . S
C878 O858 1.234 . S
C879 H851 0.929 . S
C879 C882 1.391 . S
C879 C884 1.391 . S
C880 H852 0.929 . S
C880 C881 1.390 . S
C880 N883 1.391 . S
C881 H853 0.930 . S
C881 C880 1.390 . S
C881 C882 1.392 . S
C882 H854 0.929 . S
C882 C879 1.391 . S
C882 C881 1.392 . S
N883 Co827 2.257 . S
N883 C880 1.391 . S
N883 C884 1.388 . S
C884 H855 0.930 . S
C884 C879 1.391 . S
C884 N883 1.388 . S
Co885 O887 2.143 . S
Co885 O893 2.074 . S
Co885 O896 2.093 . S
Co885 O909 2.097 . S
Co885 N926 2.151 . S
Co885 N934 2.214 . S
Co886 O887 2.160 . S
Co886 O892 2.058 . S
Co886 O902 2.057 . S
Co886 O917 2.037 . S
Co886 N921 2.145 . S
Co886 N942 2.257 . S
O887 Co885 2.143 . S
O887 Co886 2.160 . S
C888 O889 1.278 . S
C888 O896 1.224 . S
O889 C888 1.278 . S
C890 O891 1.245 . S
C890 O902 1.232 . S
O891 C890 1.245 . S
O892 Co886 2.058 . S
O892 C918 1.269 . S
O893 Co885 2.074 . S
O893 C918 1.257 . S
H894 C919 0.930 . S
H895 C925 0.930 . S
O896 Co885 2.093 . S
O896 C888 1.224 . S
H897 C929 0.929 . S
H898 C931 0.930 . S
H899 C932 0.930 . S
H900 C930 0.929 . S
H901 C933 0.928 . S
O902 Co886 2.057 . S
O902 C890 1.232 . S
H903 C922 0.929 . S
H904 C923 0.929 . S
H905 C935 0.931 . S
H906 C927 0.929 . S
H907 C936 0.930 . S
H908 C928 0.931 . S
O909 Co885 2.097 . S
O909 C937 1.214 . S
H910 C938 0.929 . S
H911 C939 0.929 . S
H912 C940 0.930 . S
H913 C941 0.929 . S
H914 C943 0.930 . S
H915 C920 0.930 . S
H916 C924 0.930 . S
O917 Co886 2.037 . S
O917 C937 1.234 . S
C918 O892 1.269 . S
C918 O893 1.257 . S
C919 H894 0.930 . S
C919 C922 1.388 . S
C919 C924 1.418 . S
C920 H915 0.930 . S
C920 C923 1.404 . S
C920 C924 1.353 . S
N921 Co886 2.145 . S
N921 C922 1.397 . S
N921 C923 1.334 . S
C922 H903 0.929 . S
C922 C919 1.388 . S
C922 N921 1.397 . S
C923 H904 0.929 . S
C923 C920 1.404 . S
C923 N921 1.334 . S
C924 H916 0.930 . S
C924 C919 1.418 . S
C924 C920 1.353 . S
C925 H895 0.930 . S
C925 N926 1.330 . S
C925 C927 1.446 . S
N926 Co885 2.151 . S
N926 C925 1.330 . S
N926 C930 1.418 . S
C927 H906 0.929 . S
C927 C925 1.446 . S
C927 C928 1.332 . S
C928 H908 0.931 . S
C928 C927 1.332 . S
C928 C929 1.267 . S
C929 H897 0.929 . S
C929 C928 1.267 . S
C929 C930 1.251 . S
C930 H900 0.929 . S
C930 N926 1.418 . S
C930 C929 1.251 . S
C931 H898 0.930 . S
C931 C933 1.406 . S
C931 C936 1.261 . S
C932 H899 0.930 . S
C932 N934 1.325 . S
C932 C935 1.357 . S
C933 H901 0.928 . S
C933 C931 1.406 . S
C933 N934 1.261 . S
N934 Co885 2.214 . S
N934 C932 1.325 . S
N934 C933 1.261 . S
C935 H905 0.931 . S
C935 C932 1.357 . S
C935 C936 1.312 . S
C936 H907 0.930 . S
C936 C931 1.261 . S
C936 C935 1.312 . S
C937 O909 1.214 . S
C937 O917 1.234 . S
C938 H910 0.929 . S
C938 C941 1.391 . S
C938 C943 1.391 . S
C939 H911 0.929 . S
C939 C940 1.390 . S
C939 N942 1.391 . S
C940 H912 0.930 . S
C940 C939 1.390 . S
C940 C941 1.392 . S
C941 H913 0.929 . S
C941 C938 1.391 . S
C941 C940 1.392 . S
N942 Co886 2.257 . S
N942 C939 1.391 . S
N942 C943 1.388 . S
C943 H914 0.930 . S
C943 C938 1.391 . S
C943 N942 1.388 . S
Co944 O946 2.143 . S
Co944 O952 2.074 . S
Co944 O955 2.093 . S
Co944 O968 2.097 . S
Co944 N985 2.151 . S
Co944 N993 2.214 . S
Co945 O946 2.160 . S
Co945 O951 2.058 . S
Co945 O961 2.057 . S
Co945 O976 2.037 . S
Co945 N980 2.145 . S
Co945 N1001 2.257 . S
O946 Co944 2.143 . S
O946 Co945 2.160 . S
C947 O948 1.278 . S
C947 O955 1.224 . S
O948 C947 1.278 . S
C949 O950 1.245 . S
C949 O961 1.232 . S
O950 C949 1.245 . S
O951 Co945 2.058 . S
O951 C977 1.269 . S
O952 Co944 2.074 . S
O952 C977 1.257 . S
H953 C978 0.930 . S
H954 C984 0.930 . S
O955 Co944 2.093 . S
O955 C947 1.224 . S
H956 C988 0.929 . S
H957 C990 0.930 . S
H958 C991 0.930 . S
H959 C989 0.929 . S
H960 C992 0.928 . S
O961 Co945 2.057 . S
O961 C949 1.232 . S
H962 C981 0.929 . S
H963 C982 0.929 . S
H964 C994 0.931 . S
H965 C986 0.929 . S
H966 C995 0.930 . S
H967 C987 0.931 . S
O968 Co944 2.097 . S
O968 C996 1.214 . S
H969 C997 0.929 . S
H970 C998 0.929 . S
H971 C999 0.930 . S
H972 C1000 0.929 . S
H973 C1002 0.930 . S
H974 C979 0.930 . S
H975 C983 0.930 . S
O976 Co945 2.037 . S
O976 C996 1.234 . S
C977 O951 1.269 . S
C977 O952 1.257 . S
C978 H953 0.930 . S
C978 C981 1.388 . S
C978 C983 1.418 . S
C979 H974 0.930 . S
C979 C982 1.404 . S
C979 C983 1.353 . S
N980 Co945 2.145 . S
N980 C981 1.397 . S
N980 C982 1.334 . S
C981 H962 0.929 . S
C981 C978 1.388 . S
C981 N980 1.397 . S
C982 H963 0.929 . S
C982 C979 1.404 . S
C982 N980 1.334 . S
C983 H975 0.930 . S
C983 C978 1.418 . S
C983 C979 1.353 . S
C984 H954 0.930 . S
C984 N985 1.330 . S
C984 C986 1.446 . S
N985 Co944 2.151 . S
N985 C984 1.330 . S
N985 C989 1.418 . S
C986 H965 0.929 . S
C986 C984 1.446 . S
C986 C987 1.332 . S
C987 H967 0.931 . S
C987 C986 1.332 . S
C987 C988 1.267 . S
C988 H956 0.929 . S
C988 C987 1.267 . S
C988 C989 1.251 . S
C989 H959 0.929 . S
C989 N985 1.418 . S
C989 C988 1.251 . S
C990 H957 0.930 . S
C990 C992 1.406 . S
C990 C995 1.261 . S
C991 H958 0.930 . S
C991 N993 1.325 . S
C991 C994 1.357 . S
C992 H960 0.928 . S
C992 C990 1.406 . S
C992 N993 1.261 . S
N993 Co944 2.214 . S
N993 C991 1.325 . S
N993 C992 1.261 . S
C994 H964 0.931 . S
C994 C991 1.357 . S
C994 C995 1.312 . S
C995 H966 0.930 . S
C995 C990 1.261 . S
C995 C994 1.312 . S
C996 O968 1.214 . S
C996 O976 1.234 . S
C997 H969 0.929 . S
C997 C1000 1.391 . S
C997 C1002 1.391 . S
C998 H970 0.929 . S
C998 C999 1.390 . S
C998 N1001 1.391 . S
C999 H971 0.930 . S
C999 C998 1.390 . S
C999 C1000 1.392 . S
C1000 H972 0.929 . S
C1000 C997 1.391 . S
C1000 C999 1.392 . S
N1001 Co945 2.257 . S
N1001 C998 1.391 . S
N1001 C1002 1.388 . S
C1002 H973 0.930 . S
C1002 C997 1.391 . S
C1002 N1001 1.388 . S
Co1003 O1005 2.143 . S
Co1003 O1011 2.074 . S
Co1003 O1014 2.093 . S
Co1003 O1027 2.097 . S
Co1003 N1044 2.151 . S
Co1003 N1052 2.214 . S
Co1004 O1005 2.160 . S
Co1004 O1010 2.058 . S
Co1004 O1020 2.057 . S
Co1004 O1035 2.037 . S
Co1004 N1039 2.145 . S
Co1004 N1060 2.257 . S
O1005 Co1003 2.143 . S
O1005 Co1004 2.160 . S
C1006 O1007 1.278 . S
C1006 O1014 1.224 . S
O1007 C1006 1.278 . S
C1008 O1009 1.245 . S
C1008 O1020 1.232 . S
O1009 C1008 1.245 . S
O1010 Co1004 2.058 . S
O1010 C1036 1.269 . S
O1011 Co1003 2.074 . S
O1011 C1036 1.257 . S
H1012 C1037 0.930 . S
H1013 C1043 0.930 . S
O1014 Co1003 2.093 . S
O1014 C1006 1.224 . S
H1015 C1047 0.929 . S
H1016 C1049 0.930 . S
H1017 C1050 0.930 . S
H1018 C1048 0.929 . S
H1019 C1051 0.928 . S
O1020 Co1004 2.057 . S
O1020 C1008 1.232 . S
H1021 C1040 0.929 . S
H1022 C1041 0.929 . S
H1023 C1053 0.931 . S
H1024 C1045 0.929 . S
H1025 C1054 0.930 . S
H1026 C1046 0.931 . S
O1027 Co1003 2.097 . S
O1027 C1055 1.214 . S
H1028 C1056 0.929 . S
H1029 C1057 0.929 . S
H1030 C1058 0.930 . S
H1031 C1059 0.929 . S
H1032 C1061 0.930 . S
H1033 C1038 0.930 . S
H1034 C1042 0.930 . S
O1035 Co1004 2.037 . S
O1035 C1055 1.234 . S
C1036 O1010 1.269 . S
C1036 O1011 1.257 . S
C1037 H1012 0.930 . S
C1037 C1040 1.388 . S
C1037 C1042 1.418 . S
C1038 H1033 0.930 . S
C1038 C1041 1.404 . S
C1038 C1042 1.353 . S
N1039 Co1004 2.145 . S
N1039 C1040 1.397 . S
N1039 C1041 1.334 . S
C1040 H1021 0.929 . S
C1040 C1037 1.388 . S
C1040 N1039 1.397 . S
C1041 H1022 0.929 . S
C1041 C1038 1.404 . S
C1041 N1039 1.334 . S
C1042 H1034 0.930 . S
C1042 C1037 1.418 . S
C1042 C1038 1.353 . S
C1043 H1013 0.930 . S
C1043 N1044 1.330 . S
C1043 C1045 1.446 . S
N1044 Co1003 2.151 . S
N1044 C1043 1.330 . S
N1044 C1048 1.418 . S
C1045 H1024 0.929 . S
C1045 C1043 1.446 . S
C1045 C1046 1.332 . S
C1046 H1026 0.931 . S
C1046 C1045 1.332 . S
C1046 C1047 1.267 . S
C1047 H1015 0.929 . S
C1047 C1046 1.267 . S
C1047 C1048 1.251 . S
C1048 H1018 0.929 . S
C1048 N1044 1.418 . S
C1048 C1047 1.251 . S
C1049 H1016 0.930 . S
C1049 C1051 1.406 . S
C1049 C1054 1.261 . S
C1050 H1017 0.930 . S
C1050 N1052 1.325 . S
C1050 C1053 1.357 . S
C1051 H1019 0.928 . S
C1051 C1049 1.406 . S
C1051 N1052 1.261 . S
N1052 Co1003 2.214 . S
N1052 C1050 1.325 . S
N1052 C1051 1.261 . S
C1053 H1023 0.931 . S
C1053 C1050 1.357 . S
C1053 C1054 1.312 . S
C1054 H1025 0.930 . S
C1054 C1049 1.261 . S
C1054 C1053 1.312 . S
C1055 O1027 1.214 . S
C1055 O1035 1.234 . S
C1056 H1028 0.929 . S
C1056 C1059 1.391 . S
C1056 C1061 1.391 . S
C1057 H1029 0.929 . S
C1057 C1058 1.390 . S
C1057 N1060 1.391 . S
C1058 H1030 0.930 . S
C1058 C1057 1.390 . S
C1058 C1059 1.392 . S
C1059 H1031 0.929 . S
C1059 C1056 1.391 . S
C1059 C1058 1.392 . S
N1060 Co1004 2.257 . S
N1060 C1057 1.391 . S
N1060 C1061 1.388 . S
C1061 H1032 0.930 . S
C1061 C1056 1.391 . S
C1061 N1060 1.388 . S
Co1062 O1064 2.143 . S
Co1062 O1070 2.074 . S
Co1062 O1073 2.093 . S
Co1062 O1086 2.097 . S
Co1062 N1103 2.151 . S
Co1062 N1111 2.214 . S
Co1063 O1064 2.160 . S
Co1063 O1069 2.058 . S
Co1063 O1079 2.057 . S
Co1063 O1094 2.037 . S
Co1063 N1098 2.145 . S
Co1063 N1119 2.257 . S
O1064 Co1062 2.143 . S
O1064 Co1063 2.160 . S
C1065 O1066 1.278 . S
C1065 O1073 1.224 . S
O1066 C1065 1.278 . S
C1067 O1068 1.245 . S
C1067 O1079 1.232 . S
O1068 C1067 1.245 . S
O1069 Co1063 2.058 . S
O1069 C1095 1.269 . S
O1070 Co1062 2.074 . S
O1070 C1095 1.257 . S
H1071 C1096 0.930 . S
H1072 C1102 0.930 . S
O1073 Co1062 2.093 . S
O1073 C1065 1.224 . S
H1074 C1106 0.929 . S
H1075 C1108 0.930 . S
H1076 C1109 0.930 . S
H1077 C1107 0.929 . S
H1078 C1110 0.928 . S
O1079 Co1063 2.057 . S
O1079 C1067 1.232 . S
H1080 C1099 0.929 . S
H1081 C1100 0.929 . S
H1082 C1112 0.931 . S
H1083 C1104 0.929 . S
H1084 C1113 0.930 . S
H1085 C1105 0.931 . S
O1086 Co1062 2.097 . S
O1086 C1114 1.214 . S
H1087 C1115 0.929 . S
H1088 C1116 0.929 . S
H1089 C1117 0.930 . S
H1090 C1118 0.929 . S
H1091 C1120 0.930 . S
H1092 C1097 0.930 . S
H1093 C1101 0.930 . S
O1094 Co1063 2.037 . S
O1094 C1114 1.234 . S
C1095 O1069 1.269 . S
C1095 O1070 1.257 . S
C1096 H1071 0.930 . S
C1096 C1099 1.388 . S
C1096 C1101 1.418 . S
C1097 H1092 0.930 . S
C1097 C1100 1.404 . S
C1097 C1101 1.353 . S
N1098 Co1063 2.145 . S
N1098 C1099 1.397 . S
N1098 C1100 1.334 . S
C1099 H1080 0.929 . S
C1099 C1096 1.388 . S
C1099 N1098 1.397 . S
C1100 H1081 0.929 . S
C1100 C1097 1.404 . S
C1100 N1098 1.334 . S
C1101 H1093 0.930 . S
C1101 C1096 1.418 . S
C1101 C1097 1.353 . S
C1102 H1072 0.930 . S
C1102 N1103 1.330 . S
C1102 C1104 1.446 . S
N1103 Co1062 2.151 . S
N1103 C1102 1.330 . S
N1103 C1107 1.418 . S
C1104 H1083 0.929 . S
C1104 C1102 1.446 . S
C1104 C1105 1.332 . S
C1105 H1085 0.931 . S
C1105 C1104 1.332 . S
C1105 C1106 1.267 . S
C1106 H1074 0.929 . S
C1106 C1105 1.267 . S
C1106 C1107 1.251 . S
C1107 H1077 0.929 . S
C1107 N1103 1.418 . S
C1107 C1106 1.251 . S
C1108 H1075 0.930 . S
C1108 C1110 1.406 . S
C1108 C1113 1.261 . S
C1109 H1076 0.930 . S
C1109 N1111 1.325 . S
C1109 C1112 1.357 . S
C1110 H1078 0.928 . S
C1110 C1108 1.406 . S
C1110 N1111 1.261 . S
N1111 Co1062 2.214 . S
N1111 C1109 1.325 . S
N1111 C1110 1.261 . S
C1112 H1082 0.931 . S
C1112 C1109 1.357 . S
C1112 C1113 1.312 . S
C1113 H1084 0.930 . S
C1113 C1108 1.261 . S
C1113 C1112 1.312 . S
C1114 O1086 1.214 . S
C1114 O1094 1.234 . S
C1115 H1087 0.929 . S
C1115 C1118 1.391 . S
C1115 C1120 1.391 . S
C1116 H1088 0.929 . S
C1116 C1117 1.390 . S
C1116 N1119 1.391 . S
C1117 H1089 0.930 . S
C1117 C1116 1.390 . S
C1117 C1118 1.392 . S
C1118 H1090 0.929 . S
C1118 C1115 1.391 . S
C1118 C1117 1.392 . S
N1119 Co1063 2.257 . S
N1119 C1116 1.391 . S
N1119 C1120 1.388 . S
C1120 H1091 0.930 . S
C1120 C1115 1.391 . S
C1120 N1119 1.388 . S
Co1121 O1123 2.143 . S
Co1121 O1129 2.074 . S
Co1121 O1132 2.093 . S
Co1121 O1145 2.097 . S
Co1121 N1162 2.151 . S
Co1121 N1170 2.214 . S
Co1122 O1123 2.160 . S
Co1122 O1128 2.058 . S
Co1122 O1138 2.057 . S
Co1122 O1153 2.037 . S
Co1122 N1157 2.145 . S
Co1122 N1178 2.257 . S
O1123 Co1121 2.143 . S
O1123 Co1122 2.160 . S
C1124 O1125 1.278 . S
C1124 O1132 1.224 . S
O1125 C1124 1.278 . S
C1126 O1127 1.245 . S
C1126 O1138 1.232 . S
O1127 C1126 1.245 . S
O1128 Co1122 2.058 . S
O1128 C1154 1.269 . S
O1129 Co1121 2.074 . S
O1129 C1154 1.257 . S
H1130 C1155 0.930 . S
H1131 C1161 0.930 . S
O1132 Co1121 2.093 . S
O1132 C1124 1.224 . S
H1133 C1165 0.929 . S
H1134 C1167 0.930 . S
H1135 C1168 0.930 . S
H1136 C1166 0.929 . S
H1137 C1169 0.928 . S
O1138 Co1122 2.057 . S
O1138 C1126 1.232 . S
H1139 C1158 0.929 . S
H1140 C1159 0.929 . S
H1141 C1171 0.931 . S
H1142 C1163 0.929 . S
H1143 C1172 0.930 . S
H1144 C1164 0.931 . S
O1145 Co1121 2.097 . S
O1145 C1173 1.214 . S
H1146 C1174 0.929 . S
H1147 C1175 0.929 . S
H1148 C1176 0.930 . S
H1149 C1177 0.929 . S
H1150 C1179 0.930 . S
H1151 C1156 0.930 . S
H1152 C1160 0.930 . S
O1153 Co1122 2.037 . S
O1153 C1173 1.234 . S
C1154 O1128 1.269 . S
C1154 O1129 1.257 . S
C1155 H1130 0.930 . S
C1155 C1158 1.388 . S
C1155 C1160 1.418 . S
C1156 H1151 0.930 . S
C1156 C1159 1.404 . S
C1156 C1160 1.353 . S
N1157 Co1122 2.145 . S
N1157 C1158 1.397 . S
N1157 C1159 1.334 . S
C1158 H1139 0.929 . S
C1158 C1155 1.388 . S
C1158 N1157 1.397 . S
C1159 H1140 0.929 . S
C1159 C1156 1.404 . S
C1159 N1157 1.334 . S
C1160 H1152 0.930 . S
C1160 C1155 1.418 . S
C1160 C1156 1.353 . S
C1161 H1131 0.930 . S
C1161 N1162 1.330 . S
C1161 C1163 1.446 . S
N1162 Co1121 2.151 . S
N1162 C1161 1.330 . S
N1162 C1166 1.418 . S
C1163 H1142 0.929 . S
C1163 C1161 1.446 . S
C1163 C1164 1.332 . S
C1164 H1144 0.931 . S
C1164 C1163 1.332 . S
C1164 C1165 1.267 . S
C1165 H1133 0.929 . S
C1165 C1164 1.267 . S
C1165 C1166 1.251 . S
C1166 H1136 0.929 . S
C1166 N1162 1.418 . S
C1166 C1165 1.251 . S
C1167 H1134 0.930 . S
C1167 C1169 1.406 . S
C1167 C1172 1.261 . S
C1168 H1135 0.930 . S
C1168 N1170 1.325 . S
C1168 C1171 1.357 . S
C1169 H1137 0.928 . S
C1169 C1167 1.406 . S
C1169 N1170 1.261 . S
N1170 Co1121 2.214 . S
N1170 C1168 1.325 . S
N1170 C1169 1.261 . S
C1171 H1141 0.931 . S
C1171 C1168 1.357 . S
C1171 C1172 1.312 . S
C1172 H1143 0.930 . S
C1172 C1167 1.261 . S
C1172 C1171 1.312 . S
C1173 O1145 1.214 . S
C1173 O1153 1.234 . S
C1174 H1146 0.929 . S
C1174 C1177 1.391 . S
C1174 C1179 1.391 . S
C1175 H1147 0.929 . S
C1175 C1176 1.390 . S
C1175 N1178 1.391 . S
C1176 H1148 0.930 . S
C1176 C1175 1.390 . S
C1176 C1177 1.392 . S
C1177 H1149 0.929 . S
C1177 C1174 1.391 . S
C1177 C1176 1.392 . S
N1178 Co1122 2.257 . S
N1178 C1175 1.391 . S
N1178 C1179 1.388 . S
C1179 H1150 0.930 . S
C1179 C1174 1.391 . S
C1179 N1178 1.388 . S
Co1180 O1182 2.143 . S
Co1180 O1188 2.074 . S
Co1180 O1191 2.093 . S
Co1180 O1204 2.097 . S
Co1180 N1221 2.151 . S
Co1180 N1229 2.214 . S
Co1181 O1182 2.160 . S
Co1181 O1187 2.058 . S
Co1181 O1197 2.057 . S
Co1181 O1212 2.037 . S
Co1181 N1216 2.145 . S
Co1181 N1237 2.257 . S
O1182 Co1180 2.143 . S
O1182 Co1181 2.160 . S
C1183 O1184 1.278 . S
C1183 O1191 1.224 . S
O1184 C1183 1.278 . S
C1185 O1186 1.245 . S
C1185 O1197 1.232 . S
O1186 C1185 1.245 . S
O1187 Co1181 2.058 . S
O1187 C1213 1.269 . S
O1188 Co1180 2.074 . S
O1188 C1213 1.257 . S
H1189 C1214 0.930 . S
H1190 C1220 0.930 . S
O1191 Co1180 2.093 . S
O1191 C1183 1.224 . S
H1192 C1224 0.929 . S
H1193 C1226 0.930 . S
H1194 C1227 0.930 . S
H1195 C1225 0.929 . S
H1196 C1228 0.928 . S
O1197 Co1181 2.057 . S
O1197 C1185 1.232 . S
H1198 C1217 0.929 . S
H1199 C1218 0.929 . S
H1200 C1230 0.931 . S
H1201 C1222 0.929 . S
H1202 C1231 0.930 . S
H1203 C1223 0.931 . S
O1204 Co1180 2.097 . S
O1204 C1232 1.214 . S
H1205 C1233 0.929 . S
H1206 C1234 0.929 . S
H1207 C1235 0.930 . S
H1208 C1236 0.929 . S
H1209 C1238 0.930 . S
H1210 C1215 0.930 . S
H1211 C1219 0.930 . S
O1212 Co1181 2.037 . S
O1212 C1232 1.234 . S
C1213 O1187 1.269 . S
C1213 O1188 1.257 . S
C1214 H1189 0.930 . S
C1214 C1217 1.388 . S
C1214 C1219 1.418 . S
C1215 H1210 0.930 . S
C1215 C1218 1.404 . S
C1215 C1219 1.353 . S
N1216 Co1181 2.145 . S
N1216 C1217 1.397 . S
N1216 C1218 1.334 . S
C1217 H1198 0.929 . S
C1217 C1214 1.388 . S
C1217 N1216 1.397 . S
C1218 H1199 0.929 . S
C1218 C1215 1.404 . S
C1218 N1216 1.334 . S
C1219 H1211 0.930 . S
C1219 C1214 1.418 . S
C1219 C1215 1.353 . S
C1220 H1190 0.930 . S
C1220 N1221 1.330 . S
C1220 C1222 1.446 . S
N1221 Co1180 2.151 . S
N1221 C1220 1.330 . S
N1221 C1225 1.418 . S
C1222 H1201 0.929 . S
C1222 C1220 1.446 . S
C1222 C1223 1.332 . S
C1223 H1203 0.931 . S
C1223 C1222 1.332 . S
C1223 C1224 1.267 . S
C1224 H1192 0.929 . S
C1224 C1223 1.267 . S
C1224 C1225 1.251 . S
C1225 H1195 0.929 . S
C1225 N1221 1.418 . S
C1225 C1224 1.251 . S
C1226 H1193 0.930 . S
C1226 C1228 1.406 . S
C1226 C1231 1.261 . S
C1227 H1194 0.930 . S
C1227 N1229 1.325 . S
C1227 C1230 1.357 . S
C1228 H1196 0.928 . S
C1228 C1226 1.406 . S
C1228 N1229 1.261 . S
N1229 Co1180 2.214 . S
N1229 C1227 1.325 . S
N1229 C1228 1.261 . S
C1230 H1200 0.931 . S
C1230 C1227 1.357 . S
C1230 C1231 1.312 . S
C1231 H1202 0.930 . S
C1231 C1226 1.261 . S
C1231 C1230 1.312 . S
C1232 O1204 1.214 . S
C1232 O1212 1.234 . S
C1233 H1205 0.929 . S
C1233 C1236 1.391 . S
C1233 C1238 1.391 . S
C1234 H1206 0.929 . S
C1234 C1235 1.390 . S
C1234 N1237 1.391 . S
C1235 H1207 0.930 . S
C1235 C1234 1.390 . S
C1235 C1236 1.392 . S
C1236 H1208 0.929 . S
C1236 C1233 1.391 . S
C1236 C1235 1.392 . S
N1237 Co1181 2.257 . S
N1237 C1234 1.391 . S
N1237 C1238 1.388 . S
C1238 H1209 0.930 . S
C1238 C1233 1.391 . S
C1238 N1237 1.388 . S
Co1239 O1241 2.143 . S
Co1239 O1247 2.074 . S
Co1239 O1250 2.093 . S
Co1239 O1263 2.097 . S
Co1239 N1280 2.151 . S
Co1239 N1288 2.214 . S
Co1240 O1241 2.160 . S
Co1240 O1246 2.058 . S
Co1240 O1256 2.057 . S
Co1240 O1271 2.037 . S
Co1240 N1275 2.145 . S
Co1240 N1296 2.257 . S
O1241 Co1239 2.143 . S
O1241 Co1240 2.160 . S
C1242 O1243 1.278 . S
C1242 O1250 1.224 . S
O1243 C1242 1.278 . S
C1244 O1245 1.245 . S
C1244 O1256 1.232 . S
O1245 C1244 1.245 . S
O1246 Co1240 2.058 . S
O1246 C1272 1.269 . S
O1247 Co1239 2.074 . S
O1247 C1272 1.257 . S
H1248 C1273 0.930 . S
H1249 C1279 0.930 . S
O1250 Co1239 2.093 . S
O1250 C1242 1.224 . S
H1251 C1283 0.929 . S
H1252 C1285 0.930 . S
H1253 C1286 0.930 . S
H1254 C1284 0.929 . S
H1255 C1287 0.928 . S
O1256 Co1240 2.057 . S
O1256 C1244 1.232 . S
H1257 C1276 0.929 . S
H1258 C1277 0.929 . S
H1259 C1289 0.931 . S
H1260 C1281 0.929 . S
H1261 C1290 0.930 . S
H1262 C1282 0.931 . S
O1263 Co1239 2.097 . S
O1263 C1291 1.214 . S
H1264 C1292 0.929 . S
H1265 C1293 0.929 . S
H1266 C1294 0.930 . S
H1267 C1295 0.929 . S
H1268 C1297 0.930 . S
H1269 C1274 0.930 . S
H1270 C1278 0.930 . S
O1271 Co1240 2.037 . S
O1271 C1291 1.234 . S
C1272 O1246 1.269 . S
C1272 O1247 1.257 . S
C1273 H1248 0.930 . S
C1273 C1276 1.388 . S
C1273 C1278 1.418 . S
C1274 H1269 0.930 . S
C1274 C1277 1.404 . S
C1274 C1278 1.353 . S
N1275 Co1240 2.145 . S
N1275 C1276 1.397 . S
N1275 C1277 1.334 . S
C1276 H1257 0.929 . S
C1276 C1273 1.388 . S
C1276 N1275 1.397 . S
C1277 H1258 0.929 . S
C1277 C1274 1.404 . S
C1277 N1275 1.334 . S
C1278 H1270 0.930 . S
C1278 C1273 1.418 . S
C1278 C1274 1.353 . S
C1279 H1249 0.930 . S
C1279 N1280 1.330 . S
C1279 C1281 1.446 . S
N1280 Co1239 2.151 . S
N1280 C1279 1.330 . S
N1280 C1284 1.418 . S
C1281 H1260 0.929 . S
C1281 C1279 1.446 . S
C1281 C1282 1.332 . S
C1282 H1262 0.931 . S
C1282 C1281 1.332 . S
C1282 C1283 1.267 . S
C1283 H1251 0.929 . S
C1283 C1282 1.267 . S
C1283 C1284 1.251 . S
C1284 H1254 0.929 . S
C1284 N1280 1.418 . S
C1284 C1283 1.251 . S
C1285 H1252 0.930 . S
C1285 C1287 1.406 . S
C1285 C1290 1.261 . S
C1286 H1253 0.930 . S
C1286 N1288 1.325 . S
C1286 C1289 1.357 . S
C1287 H1255 0.928 . S
C1287 C1285 1.406 . S
C1287 N1288 1.261 . S
N1288 Co1239 2.214 . S
N1288 C1286 1.325 . S
N1288 C1287 1.261 . S
C1289 H1259 0.931 . S
C1289 C1286 1.357 . S
C1289 C1290 1.312 . S
C1290 H1261 0.930 . S
C1290 C1285 1.261 . S
C1290 C1289 1.312 . S
C1291 O1263 1.214 . S
C1291 O1271 1.234 . S
C1292 H1264 0.929 . S
C1292 C1295 1.391 . S
C1292 C1297 1.391 . S
C1293 H1265 0.929 . S
C1293 C1294 1.390 . S
C1293 N1296 1.391 . S
C1294 H1266 0.930 . S
C1294 C1293 1.390 . S
C1294 C1295 1.392 . S
C1295 H1267 0.929 . S
C1295 C1292 1.391 . S
C1295 C1294 1.392 . S
N1296 Co1240 2.257 . S
N1296 C1293 1.391 . S
N1296 C1297 1.388 . S
C1297 H1268 0.930 . S
C1297 C1292 1.391 . S
C1297 N1296 1.388 . S
Co1298 O1300 2.143 . S
Co1298 O1306 2.074 . S
Co1298 O1309 2.093 . S
Co1298 O1322 2.097 . S
Co1298 N1339 2.151 . S
Co1298 N1347 2.214 . S
Co1299 O1300 2.160 . S
Co1299 O1305 2.058 . S
Co1299 O1315 2.057 . S
Co1299 O1330 2.037 . S
Co1299 N1334 2.145 . S
Co1299 N1355 2.257 . S
O1300 Co1298 2.143 . S
O1300 Co1299 2.160 . S
C1301 O1302 1.278 . S
C1301 O1309 1.224 . S
O1302 C1301 1.278 . S
C1303 O1304 1.245 . S
C1303 O1315 1.232 . S
O1304 C1303 1.245 . S
O1305 Co1299 2.058 . S
O1305 C1331 1.269 . S
O1306 Co1298 2.074 . S
O1306 C1331 1.257 . S
H1307 C1332 0.930 . S
H1308 C1338 0.930 . S
O1309 Co1298 2.093 . S
O1309 C1301 1.224 . S
H1310 C1342 0.929 . S
H1311 C1344 0.930 . S
H1312 C1345 0.930 . S
H1313 C1343 0.929 . S
H1314 C1346 0.928 . S
O1315 Co1299 2.057 . S
O1315 C1303 1.232 . S
H1316 C1335 0.929 . S
H1317 C1336 0.929 . S
H1318 C1348 0.931 . S
H1319 C1340 0.929 . S
H1320 C1349 0.930 . S
H1321 C1341 0.931 . S
O1322 Co1298 2.097 . S
O1322 C1350 1.214 . S
H1323 C1351 0.929 . S
H1324 C1352 0.929 . S
H1325 C1353 0.930 . S
H1326 C1354 0.929 . S
H1327 C1356 0.930 . S
H1328 C1333 0.930 . S
H1329 C1337 0.930 . S
O1330 Co1299 2.037 . S
O1330 C1350 1.234 . S
C1331 O1305 1.269 . S
C1331 O1306 1.257 . S
C1332 H1307 0.930 . S
C1332 C1335 1.388 . S
C1332 C1337 1.418 . S
C1333 H1328 0.930 . S
C1333 C1336 1.404 . S
C1333 C1337 1.353 . S
N1334 Co1299 2.145 . S
N1334 C1335 1.397 . S
N1334 C1336 1.334 . S
C1335 H1316 0.929 . S
C1335 C1332 1.388 . S
C1335 N1334 1.397 . S
C1336 H1317 0.929 . S
C1336 C1333 1.404 . S
C1336 N1334 1.334 . S
C1337 H1329 0.930 . S
C1337 C1332 1.418 . S
C1337 C1333 1.353 . S
C1338 H1308 0.930 . S
C1338 N1339 1.330 . S
C1338 C1340 1.446 . S
N1339 Co1298 2.151 . S
N1339 C1338 1.330 . S
N1339 C1343 1.418 . S
C1340 H1319 0.929 . S
C1340 C1338 1.446 . S
C1340 C1341 1.332 . S
C1341 H1321 0.931 . S
C1341 C1340 1.332 . S
C1341 C1342 1.267 . S
C1342 H1310 0.929 . S
C1342 C1341 1.267 . S
C1342 C1343 1.251 . S
C1343 H1313 0.929 . S
C1343 N1339 1.418 . S
C1343 C1342 1.251 . S
C1344 H1311 0.930 . S
C1344 C1346 1.406 . S
C1344 C1349 1.261 . S
C1345 H1312 0.930 . S
C1345 N1347 1.325 . S
C1345 C1348 1.357 . S
C1346 H1314 0.928 . S
C1346 C1344 1.406 . S
C1346 N1347 1.261 . S
N1347 Co1298 2.214 . S
N1347 C1345 1.325 . S
N1347 C1346 1.261 . S
C1348 H1318 0.931 . S
C1348 C1345 1.357 . S
C1348 C1349 1.312 . S
C1349 H1320 0.930 . S
C1349 C1344 1.261 . S
C1349 C1348 1.312 . S
C1350 O1322 1.214 . S
C1350 O1330 1.234 . S
C1351 H1323 0.929 . S
C1351 C1354 1.391 . S
C1351 C1356 1.391 . S
C1352 H1324 0.929 . S
C1352 C1353 1.390 . S
C1352 N1355 1.391 . S
C1353 H1325 0.930 . S
C1353 C1352 1.390 . S
C1353 C1354 1.392 . S
C1354 H1326 0.929 . S
C1354 C1351 1.391 . S
C1354 C1353 1.392 . S
N1355 Co1299 2.257 . S
N1355 C1352 1.391 . S
N1355 C1356 1.388 . S
C1356 H1327 0.930 . S
C1356 C1351 1.391 . S
C1356 N1355 1.388 . S
Co1357 O1359 2.143 . S
Co1357 O1365 2.074 . S
Co1357 O1368 2.093 . S
Co1357 O1381 2.097 . S
Co1357 N1398 2.151 . S
Co1357 N1406 2.214 . S
Co1358 O1359 2.160 . S
Co1358 O1364 2.058 . S
Co1358 O1374 2.057 . S
Co1358 O1389 2.037 . S
Co1358 N1393 2.145 . S
Co1358 N1414 2.257 . S
O1359 Co1357 2.143 . S
O1359 Co1358 2.160 . S
C1360 O1361 1.278 . S
C1360 O1368 1.224 . S
O1361 C1360 1.278 . S
C1362 O1363 1.245 . S
C1362 O1374 1.232 . S
O1363 C1362 1.245 . S
O1364 Co1358 2.058 . S
O1364 C1390 1.269 . S
O1365 Co1357 2.074 . S
O1365 C1390 1.257 . S
H1366 C1391 0.930 . S
H1367 C1397 0.930 . S
O1368 Co1357 2.093 . S
O1368 C1360 1.224 . S
H1369 C1401 0.929 . S
H1370 C1403 0.930 . S
H1371 C1404 0.930 . S
H1372 C1402 0.929 . S
H1373 C1405 0.928 . S
O1374 Co1358 2.057 . S
O1374 C1362 1.232 . S
H1375 C1394 0.929 . S
H1376 C1395 0.929 . S
H1377 C1407 0.931 . S
H1378 C1399 0.929 . S
H1379 C1408 0.930 . S
H1380 C1400 0.931 . S
O1381 Co1357 2.097 . S
O1381 C1409 1.214 . S
H1382 C1410 0.929 . S
H1383 C1411 0.929 . S
H1384 C1412 0.930 . S
H1385 C1413 0.929 . S
H1386 C1415 0.930 . S
H1387 C1392 0.930 . S
H1388 C1396 0.930 . S
O1389 Co1358 2.037 . S
O1389 C1409 1.234 . S
C1390 O1364 1.269 . S
C1390 O1365 1.257 . S
C1391 H1366 0.930 . S
C1391 C1394 1.388 . S
C1391 C1396 1.418 . S
C1392 H1387 0.930 . S
C1392 C1395 1.404 . S
C1392 C1396 1.353 . S
N1393 Co1358 2.145 . S
N1393 C1394 1.397 . S
N1393 C1395 1.334 . S
C1394 H1375 0.929 . S
C1394 C1391 1.388 . S
C1394 N1393 1.397 . S
C1395 H1376 0.929 . S
C1395 C1392 1.404 . S
C1395 N1393 1.334 . S
C1396 H1388 0.930 . S
C1396 C1391 1.418 . S
C1396 C1392 1.353 . S
C1397 H1367 0.930 . S
C1397 N1398 1.330 . S
C1397 C1399 1.446 . S
N1398 Co1357 2.151 . S
N1398 C1397 1.330 . S
N1398 C1402 1.418 . S
C1399 H1378 0.929 . S
C1399 C1397 1.446 . S
C1399 C1400 1.332 . S
C1400 H1380 0.931 . S
C1400 C1399 1.332 . S
C1400 C1401 1.267 . S
C1401 H1369 0.929 . S
C1401 C1400 1.267 . S
C1401 C1402 1.251 . S
C1402 H1372 0.929 . S
C1402 N1398 1.418 . S
C1402 C1401 1.251 . S
C1403 H1370 0.930 . S
C1403 C1405 1.406 . S
C1403 C1408 1.261 . S
C1404 H1371 0.930 . S
C1404 N1406 1.325 . S
C1404 C1407 1.357 . S
C1405 H1373 0.928 . S
C1405 C1403 1.406 . S
C1405 N1406 1.261 . S
N1406 Co1357 2.214 . S
N1406 C1404 1.325 . S
N1406 C1405 1.261 . S
C1407 H1377 0.931 . S
C1407 C1404 1.357 . S
C1407 C1408 1.312 . S
C1408 H1379 0.930 . S
C1408 C1403 1.261 . S
C1408 C1407 1.312 . S
C1409 O1381 1.214 . S
C1409 O1389 1.234 . S
C1410 H1382 0.929 . S
C1410 C1413 1.391 . S
C1410 C1415 1.391 . S
C1411 H1383 0.929 . S
C1411 C1412 1.390 . S
C1411 N1414 1.391 . S
C1412 H1384 0.930 . S
C1412 C1411 1.390 . S
C1412 C1413 1.392 . S
C1413 H1385 0.929 . S
C1413 C1410 1.391 . S
C1413 C1412 1.392 . S
N1414 Co1358 2.257 . S
N1414 C1411 1.391 . S
N1414 C1415 1.388 . S
C1415 H1386 0.930 . S
C1415 C1410 1.391 . S
C1415 N1414 1.388 . S
C1416 C1417 1.349 . S
C1416 C1418 1.327 . S
C1416 H1441 0.950 . S
C1417 C1416 1.349 . S
C1417 C1433 1.349 . S
C1418 C1416 1.327 . S
C1418 C1437 1.429 . S
C1418 H1442 0.950 . S
C1419 C1436 1.574 . S
C1419 C1438 1.368 . S
C1419 H1443 0.949 . S
H1420 C1424 0.949 . S
C1421 C1422 1.349 . S
C1421 C1423 1.327 . S
C1421 H1444 0.950 . S
C1422 C1421 1.349 . S
C1422 C1434 1.349 . S
C1423 C1421 1.327 . S
C1423 C1439 1.429 . S
C1423 H1445 0.950 . S
C1424 H1420 0.949 . S
C1424 C1432 1.574 . S
C1424 C1440 1.368 . S
H1425 C1433 0.950 . S
H1426 C1431 0.950 . S
H1427 C1432 0.949 . S
H1428 C1434 0.950 . S
H1429 C1435 0.950 . S
H1430 C1436 0.949 . S
C1431 H1426 0.950 . S
C1431 C1433 1.327 . S
C1431 C1437 1.429 . S
C1432 C1424 1.574 . S
C1432 H1427 0.949 . S
C1432 C1438 1.368 . S
C1433 C1417 1.349 . S
C1433 H1425 0.950 . S
C1433 C1431 1.327 . S
C1434 C1422 1.349 . S
C1434 H1428 0.950 . S
C1434 C1435 1.327 . S
C1435 H1429 0.950 . S
C1435 C1434 1.327 . S
C1435 C1439 1.429 . S
C1436 C1419 1.574 . S
C1436 H1430 0.949 . S
C1436 C1440 1.368 . S
C1437 C1418 1.429 . S
C1437 C1431 1.429 . S
C1437 C1438 1.523 . S
C1438 C1419 1.368 . S
C1438 C1432 1.368 . S
C1438 C1437 1.523 . S
C1439 C1423 1.429 . S
C1439 C1435 1.429 . S
C1439 C1440 1.523 . S
C1440 C1424 1.368 . S
C1440 C1436 1.368 . S
C1440 C1439 1.523 . S
H1441 C1416 0.950 . S
H1442 C1418 0.950 . S
H1443 C1419 0.949 . S
H1444 C1421 0.950 . S
H1445 C1423 0.950 . S
C1446 C1447 1.349 . S
C1446 C1448 1.327 . S
C1446 H1471 0.950 . S
C1447 C1446 1.349 . S
C1447 C1463 1.349 . S
C1448 C1446 1.327 . S
C1448 C1467 1.429 . S
C1448 H1472 0.950 . S
C1449 C1466 1.574 . S
C1449 C1468 1.368 . S
C1449 H1473 0.949 . S
H1450 C1454 0.949 . S
C1451 C1452 1.349 . S
C1451 C1453 1.327 . S
C1451 H1474 0.950 . S
C1452 C1451 1.349 . S
C1452 C1464 1.349 . S
C1453 C1451 1.327 . S
C1453 C1469 1.429 . S
C1453 H1475 0.950 . S
C1454 H1450 0.949 . S
C1454 C1462 1.574 . S
C1454 C1470 1.368 . S
H1455 C1463 0.950 . S
H1456 C1461 0.950 . S
H1457 C1462 0.949 . S
H1458 C1464 0.950 . S
H1459 C1465 0.950 . S
H1460 C1466 0.949 . S
C1461 H1456 0.950 . S
C1461 C1463 1.327 . S
C1461 C1467 1.429 . S
C1462 C1454 1.574 . S
C1462 H1457 0.949 . S
C1462 C1468 1.368 . S
C1463 C1447 1.349 . S
C1463 H1455 0.950 . S
C1463 C1461 1.327 . S
C1464 C1452 1.349 . S
C1464 H1458 0.950 . S
C1464 C1465 1.327 . S
C1465 H1459 0.950 . S
C1465 C1464 1.327 . S
C1465 C1469 1.429 . S
C1466 C1449 1.574 . S
C1466 H1460 0.949 . S
C1466 C1470 1.368 . S
C1467 C1448 1.429 . S
C1467 C1461 1.429 . S
C1467 C1468 1.523 . S
C1468 C1449 1.368 . S
C1468 C1462 1.368 . S
C1468 C1467 1.523 . S
C1469 C1453 1.429 . S
C1469 C1465 1.429 . S
C1469 C1470 1.523 . S
C1470 C1454 1.368 . S
C1470 C1466 1.368 . S
C1470 C1469 1.523 . S
H1471 C1446 0.950 . S
H1472 C1448 0.950 . S
H1473 C1449 0.949 . S
H1474 C1451 0.950 . S
H1475 C1453 0.950 . S
C1476 C1477 1.349 . S
C1476 C1478 1.327 . S
C1476 H1501 0.950 . S
C1477 C1476 1.349 . S
C1477 C1493 1.349 . S
C1478 C1476 1.327 . S
C1478 C1497 1.429 . S
C1478 H1502 0.950 . S
C1479 C1496 1.574 . S
C1479 C1498 1.368 . S
C1479 H1503 0.949 . S
H1480 C1484 0.949 . S
C1481 C1482 1.349 . S
C1481 C1483 1.327 . S
C1481 H1504 0.950 . S
C1482 C1481 1.349 . S
C1482 C1494 1.349 . S
C1483 C1481 1.327 . S
C1483 C1499 1.429 . S
C1483 H1505 0.950 . S
C1484 H1480 0.949 . S
C1484 C1492 1.574 . S
C1484 C1500 1.368 . S
H1485 C1493 0.950 . S
H1486 C1491 0.950 . S
H1487 C1492 0.949 . S
H1488 C1494 0.950 . S
H1489 C1495 0.950 . S
H1490 C1496 0.949 . S
C1491 H1486 0.950 . S
C1491 C1493 1.327 . S
C1491 C1497 1.429 . S
C1492 C1484 1.574 . S
C1492 H1487 0.949 . S
C1492 C1498 1.368 . S
C1493 C1477 1.349 . S
C1493 H1485 0.950 . S
C1493 C1491 1.327 . S
C1494 C1482 1.349 . S
C1494 H1488 0.950 . S
C1494 C1495 1.327 . S
C1495 H1489 0.950 . S
C1495 C1494 1.327 . S
C1495 C1499 1.429 . S
C1496 C1479 1.574 . S
C1496 H1490 0.949 . S
C1496 C1500 1.368 . S
C1497 C1478 1.429 . S
C1497 C1491 1.429 . S
C1497 C1498 1.523 . S
C1498 C1479 1.368 . S
C1498 C1492 1.368 . S
C1498 C1497 1.523 . S
C1499 C1483 1.429 . S
C1499 C1495 1.429 . S
C1499 C1500 1.523 . S
C1500 C1484 1.368 . S
C1500 C1496 1.368 . S
C1500 C1499 1.523 . S
H1501 C1476 0.950 . S
H1502 C1478 0.950 . S
H1503 C1479 0.949 . S
H1504 C1481 0.950 . S
H1505 C1483 0.950 . S
C1506 C1507 1.349 . S
C1506 C1508 1.327 . S
C1506 H1531 0.950 . S
C1507 C1506 1.349 . S
C1507 C1523 1.349 . S
C1508 C1506 1.327 . S
C1508 C1527 1.429 . S
C1508 H1532 0.950 . S
C1509 C1526 1.574 . S
C1509 C1528 1.368 . S
C1509 H1533 0.949 . S
H1510 C1514 0.949 . S
C1511 C1512 1.349 . S
C1511 C1513 1.327 . S
C1511 H1534 0.950 . S
C1512 C1511 1.349 . S
C1512 C1524 1.349 . S
C1513 C1511 1.327 . S
C1513 C1529 1.429 . S
C1513 H1535 0.950 . S
C1514 H1510 0.949 . S
C1514 C1522 1.574 . S
C1514 C1530 1.368 . S
H1515 C1523 0.950 . S
H1516 C1521 0.950 . S
H1517 C1522 0.949 . S
H1518 C1524 0.950 . S
H1519 C1525 0.950 . S
H1520 C1526 0.949 . S
C1521 H1516 0.950 . S
C1521 C1523 1.327 . S
C1521 C1527 1.429 . S
C1522 C1514 1.574 . S
C1522 H1517 0.949 . S
C1522 C1528 1.368 . S
C1523 C1507 1.349 . S
C1523 H1515 0.950 . S
C1523 C1521 1.327 . S
C1524 C1512 1.349 . S
C1524 H1518 0.950 . S
C1524 C1525 1.327 . S
C1525 H1519 0.950 . S
C1525 C1524 1.327 . S
C1525 C1529 1.429 . S
C1526 C1509 1.574 . S
C1526 H1520 0.949 . S
C1526 C1530 1.368 . S
C1527 C1508 1.429 . S
C1527 C1521 1.429 . S
C1527 C1528 1.523 . S
C1528 C1509 1.368 . S
C1528 C1522 1.368 . S
C1528 C1527 1.523 . S
C1529 C1513 1.429 . S
C1529 C1525 1.429 . S
C1529 C1530 1.523 . S
C1530 C1514 1.368 . S
C1530 C1526 1.368 . S
C1530 C1529 1.523 . S
H1531 C1506 0.950 . S
H1532 C1508 0.950 . S
H1533 C1509 0.949 . S
H1534 C1511 0.950 . S
H1535 C1513 0.950 . S
C1536 C1537 1.349 . S
C1536 C1538 1.327 . S
C1536 H1561 0.950 . S
C1537 C1536 1.349 . S
C1537 C1553 1.349 . S
C1538 C1536 1.327 . S
C1538 C1557 1.429 . S
C1538 H1562 0.950 . S
C1539 C1556 1.574 . S
C1539 C1558 1.368 . S
C1539 H1563 0.949 . S
H1540 C1544 0.949 . S
C1541 C1542 1.349 . S
C1541 C1543 1.327 . S
C1541 H1564 0.950 . S
C1542 C1541 1.349 . S
C1542 C1554 1.349 . S
C1543 C1541 1.327 . S
C1543 C1559 1.429 . S
C1543 H1565 0.950 . S
C1544 H1540 0.949 . S
C1544 C1552 1.574 . S
C1544 C1560 1.368 . S
H1545 C1553 0.950 . S
H1546 C1551 0.950 . S
H1547 C1552 0.949 . S
H1548 C1554 0.950 . S
H1549 C1555 0.950 . S
H1550 C1556 0.949 . S
C1551 H1546 0.950 . S
C1551 C1553 1.327 . S
C1551 C1557 1.429 . S
C1552 C1544 1.574 . S
C1552 H1547 0.949 . S
C1552 C1558 1.368 . S
C1553 C1537 1.349 . S
C1553 H1545 0.950 . S
C1553 C1551 1.327 . S
C1554 C1542 1.349 . S
C1554 H1548 0.950 . S
C1554 C1555 1.327 . S
C1555 H1549 0.950 . S
C1555 C1554 1.327 . S
C1555 C1559 1.429 . S
C1556 C1539 1.574 . S
C1556 H1550 0.949 . S
C1556 C1560 1.368 . S
C1557 C1538 1.429 . S
C1557 C1551 1.429 . S
C1557 C1558 1.523 . S
C1558 C1539 1.368 . S
C1558 C1552 1.368 . S
C1558 C1557 1.523 . S
C1559 C1543 1.429 . S
C1559 C1555 1.429 . S
C1559 C1560 1.523 . S
C1560 C1544 1.368 . S
C1560 C1556 1.368 . S
C1560 C1559 1.523 . S
H1561 C1536 0.950 . S
H1562 C1538 0.950 . S
H1563 C1539 0.949 . S
H1564 C1541 0.950 . S
H1565 C1543 0.950 . S
C1566 C1567 1.349 . S
C1566 C1568 1.327 . S
C1566 H1591 0.950 . S
C1567 C1566 1.349 . S
C1567 C1583 1.349 . S
C1568 C1566 1.327 . S
C1568 C1587 1.429 . S
C1568 H1592 0.950 . S
C1569 C1586 1.574 . S
C1569 C1588 1.368 . S
C1569 H1593 0.949 . S
H1570 C1574 0.949 . S
C1571 C1572 1.349 . S
C1571 C1573 1.327 . S
C1571 H1594 0.950 . S
C1572 C1571 1.349 . S
C1572 C1584 1.349 . S
C1573 C1571 1.327 . S
C1573 C1589 1.429 . S
C1573 H1595 0.950 . S
C1574 H1570 0.949 . S
C1574 C1582 1.574 . S
C1574 C1590 1.368 . S
H1575 C1583 0.950 . S
H1576 C1581 0.950 . S
H1577 C1582 0.949 . S
H1578 C1584 0.950 . S
H1579 C1585 0.950 . S
H1580 C1586 0.949 . S
C1581 H1576 0.950 . S
C1581 C1583 1.327 . S
C1581 C1587 1.429 . S
C1582 C1574 1.574 . S
C1582 H1577 0.949 . S
C1582 C1588 1.368 . S
C1583 C1567 1.349 . S
C1583 H1575 0.950 . S
C1583 C1581 1.327 . S
C1584 C1572 1.349 . S
C1584 H1578 0.950 . S
C1584 C1585 1.327 . S
C1585 H1579 0.950 . S
C1585 C1584 1.327 . S
C1585 C1589 1.429 . S
C1586 C1569 1.574 . S
C1586 H1580 0.949 . S
C1586 C1590 1.368 . S
C1587 C1568 1.429 . S
C1587 C1581 1.429 . S
C1587 C1588 1.523 . S
C1588 C1569 1.368 . S
C1588 C1582 1.368 . S
C1588 C1587 1.523 . S
C1589 C1573 1.429 . S
C1589 C1585 1.429 . S
C1589 C1590 1.523 . S
C1590 C1574 1.368 . S
C1590 C1586 1.368 . S
C1590 C1589 1.523 . S
H1591 C1566 0.950 . S
H1592 C1568 0.950 . S
H1593 C1569 0.949 . S
H1594 C1571 0.950 . S
H1595 C1573 0.950 . S
C1596 C1597 1.349 . S
C1596 C1598 1.327 . S
C1596 H1621 0.950 . S
C1597 C1596 1.349 . S
C1597 C1613 1.349 . S
C1598 C1596 1.327 . S
C1598 C1617 1.429 . S
C1598 H1622 0.950 . S
C1599 C1616 1.574 . S
C1599 C1618 1.368 . S
C1599 H1623 0.949 . S
H1600 C1604 0.949 . S
C1601 C1602 1.349 . S
C1601 C1603 1.327 . S
C1601 H1624 0.950 . S
C1602 C1601 1.349 . S
C1602 C1614 1.349 . S
C1603 C1601 1.327 . S
C1603 C1619 1.429 . S
C1603 H1625 0.950 . S
C1604 H1600 0.949 . S
C1604 C1612 1.574 . S
C1604 C1620 1.368 . S
H1605 C1613 0.950 . S
H1606 C1611 0.950 . S
H1607 C1612 0.949 . S
H1608 C1614 0.950 . S
H1609 C1615 0.950 . S
H1610 C1616 0.949 . S
C1611 H1606 0.950 . S
C1611 C1613 1.327 . S
C1611 C1617 1.429 . S
C1612 C1604 1.574 . S
C1612 H1607 0.949 . S
C1612 C1618 1.368 . S
C1613 C1597 1.349 . S
C1613 H1605 0.950 . S
C1613 C1611 1.327 . S
C1614 C1602 1.349 . S
C1614 H1608 0.950 . S
C1614 C1615 1.327 . S
C1615 H1609 0.950 . S
C1615 C1614 1.327 . S
C1615 C1619 1.429 . S
C1616 C1599 1.574 . S
C1616 H1610 0.949 . S
C1616 C1620 1.368 . S
C1617 C1598 1.429 . S
C1617 C1611 1.429 . S
C1617 C1618 1.523 . S
C1618 C1599 1.368 . S
C1618 C1612 1.368 . S
C1618 C1617 1.523 . S
C1619 C1603 1.429 . S
C1619 C1615 1.429 . S
C1619 C1620 1.523 . S
C1620 C1604 1.368 . S
C1620 C1616 1.368 . S
C1620 C1619 1.523 . S
H1621 C1596 0.950 . S
H1622 C1598 0.950 . S
H1623 C1599 0.949 . S
H1624 C1601 0.950 . S
H1625 C1603 0.950 . S
C1626 C1627 1.349 . S
C1626 C1628 1.327 . S
C1626 H1651 0.950 . S
C1627 C1626 1.349 . S
C1627 C1643 1.349 . S
C1628 C1626 1.327 . S
C1628 C1647 1.429 . S
C1628 H1652 0.950 . S
C1629 C1646 1.574 . S
C1629 C1648 1.368 . S
C1629 H1653 0.949 . S
H1630 C1634 0.949 . S
C1631 C1632 1.349 . S
C1631 C1633 1.327 . S
C1631 H1654 0.950 . S
C1632 C1631 1.349 . S
C1632 C1644 1.349 . S
C1633 C1631 1.327 . S
C1633 C1649 1.429 . S
C1633 H1655 0.950 . S
C1634 H1630 0.949 . S
C1634 C1642 1.574 . S
C1634 C1650 1.368 . S
H1635 C1643 0.950 . S
H1636 C1641 0.950 . S
H1637 C1642 0.949 . S
H1638 C1644 0.950 . S
H1639 C1645 0.950 . S
H1640 C1646 0.949 . S
C1641 H1636 0.950 . S
C1641 C1643 1.327 . S
C1641 C1647 1.429 . S
C1642 C1634 1.574 . S
C1642 H1637 0.949 . S
C1642 C1648 1.368 . S
C1643 C1627 1.349 . S
C1643 H1635 0.950 . S
C1643 C1641 1.327 . S
C1644 C1632 1.349 . S
C1644 H1638 0.950 . S
C1644 C1645 1.327 . S
C1645 H1639 0.950 . S
C1645 C1644 1.327 . S
C1645 C1649 1.429 . S
C1646 C1629 1.574 . S
C1646 H1640 0.949 . S
C1646 C1650 1.368 . S
C1647 C1628 1.429 . S
C1647 C1641 1.429 . S
C1647 C1648 1.523 . S
C1648 C1629 1.368 . S
C1648 C1642 1.368 . S
C1648 C1647 1.523 . S
C1649 C1633 1.429 . S
C1649 C1645 1.429 . S
C1649 C1650 1.523 . S
C1650 C1634 1.368 . S
C1650 C1646 1.368 . S
C1650 C1649 1.523 . S
H1651 C1626 0.950 . S
H1652 C1628 0.950 . S
H1653 C1629 0.949 . S
H1654 C1631 0.950 . S
H1655 C1633 0.950 . S
C1656 C1657 1.349 . S
C1656 C1658 1.327 . S
C1656 H1681 0.950 . S
C1657 C1656 1.349 . S
C1657 C1673 1.349 . S
C1658 C1656 1.327 . S
C1658 C1677 1.429 . S
C1658 H1682 0.950 . S
C1659 C1676 1.574 . S
C1659 C1678 1.368 . S
C1659 H1683 0.949 . S
H1660 C1664 0.949 . S
C1661 C1662 1.349 . S
C1661 C1663 1.327 . S
C1661 H1684 0.950 . S
C1662 C1661 1.349 . S
C1662 C1674 1.349 . S
C1663 C1661 1.327 . S
C1663 C1679 1.429 . S
C1663 H1685 0.950 . S
C1664 H1660 0.949 . S
C1664 C1672 1.574 . S
C1664 C1680 1.368 . S
H1665 C1673 0.950 . S
H1666 C1671 0.950 . S
H1667 C1672 0.949 . S
H1668 C1674 0.950 . S
H1669 C1675 0.950 . S
H1670 C1676 0.949 . S
C1671 H1666 0.950 . S
C1671 C1673 1.327 . S
C1671 C1677 1.429 . S
C1672 C1664 1.574 . S
C1672 H1667 0.949 . S
C1672 C1678 1.368 . S
C1673 C1657 1.349 . S
C1673 H1665 0.950 . S
C1673 C1671 1.327 . S
C1674 C1662 1.349 . S
C1674 H1668 0.950 . S
C1674 C1675 1.327 . S
C1675 H1669 0.950 . S
C1675 C1674 1.327 . S
C1675 C1679 1.429 . S
C1676 C1659 1.574 . S
C1676 H1670 0.949 . S
C1676 C1680 1.368 . S
C1677 C1658 1.429 . S
C1677 C1671 1.429 . S
C1677 C1678 1.523 . S
C1678 C1659 1.368 . S
C1678 C1672 1.368 . S
C1678 C1677 1.523 . S
C1679 C1663 1.429 . S
C1679 C1675 1.429 . S
C1679 C1680 1.523 . S
C1680 C1664 1.368 . S
C1680 C1676 1.368 . S
C1680 C1679 1.523 . S
H1681 C1656 0.950 . S
H1682 C1658 0.950 . S
H1683 C1659 0.949 . S
H1684 C1661 0.950 . S
H1685 C1663 0.950 . S
C1686 C1687 1.349 . S
C1686 C1688 1.327 . S
C1686 H1711 0.950 . S
C1687 C1686 1.349 . S
C1687 C1703 1.349 . S
C1688 C1686 1.327 . S
C1688 C1707 1.429 . S
C1688 H1712 0.950 . S
C1689 C1706 1.574 . S
C1689 C1708 1.368 . S
C1689 H1713 0.949 . S
H1690 C1694 0.949 . S
C1691 C1692 1.349 . S
C1691 C1693 1.327 . S
C1691 H1714 0.950 . S
C1692 C1691 1.349 . S
C1692 C1704 1.349 . S
C1693 C1691 1.327 . S
C1693 C1709 1.429 . S
C1693 H1715 0.950 . S
C1694 H1690 0.949 . S
C1694 C1702 1.574 . S
C1694 C1710 1.368 . S
H1695 C1703 0.950 . S
H1696 C1701 0.950 . S
H1697 C1702 0.949 . S
H1698 C1704 0.950 . S
H1699 C1705 0.950 . S
H1700 C1706 0.949 . S
C1701 H1696 0.950 . S
C1701 C1703 1.327 . S
C1701 C1707 1.429 . S
C1702 C1694 1.574 . S
C1702 H1697 0.949 . S
C1702 C1708 1.368 . S
C1703 C1687 1.349 . S
C1703 H1695 0.950 . S
C1703 C1701 1.327 . S
C1704 C1692 1.349 . S
C1704 H1698 0.950 . S
C1704 C1705 1.327 . S
C1705 H1699 0.950 . S
C1705 C1704 1.327 . S
C1705 C1709 1.429 . S
C1706 C1689 1.574 . S
C1706 H1700 0.949 . S
C1706 C1710 1.368 . S
C1707 C1688 1.429 . S
C1707 C1701 1.429 . S
C1707 C1708 1.523 . S
C1708 C1689 1.368 . S
C1708 C1702 1.368 . S
C1708 C1707 1.523 . S
C1709 C1693 1.429 . S
C1709 C1705 1.429 . S
C1709 C1710 1.523 . S
C1710 C1694 1.368 . S
C1710 C1706 1.368 . S
C1710 C1709 1.523 . S
H1711 C1686 0.950 . S
H1712 C1688 0.950 . S
H1713 C1689 0.949 . S
H1714 C1691 0.950 . S
H1715 C1693 0.950 . S
C1716 C1717 1.349 . S
C1716 C1718 1.327 . S
C1716 H1741 0.950 . S
C1717 C1716 1.349 . S
C1717 C1733 1.349 . S
C1718 C1716 1.327 . S
C1718 C1737 1.429 . S
C1718 H1742 0.950 . S
C1719 C1736 1.574 . S
C1719 C1738 1.368 . S
C1719 H1743 0.949 . S
H1720 C1724 0.949 . S
C1721 C1722 1.349 . S
C1721 C1723 1.327 . S
C1721 H1744 0.950 . S
C1722 C1721 1.349 . S
C1722 C1734 1.349 . S
C1723 C1721 1.327 . S
C1723 C1739 1.429 . S
C1723 H1745 0.950 . S
C1724 H1720 0.949 . S
C1724 C1732 1.574 . S
C1724 C1740 1.368 . S
H1725 C1733 0.950 . S
H1726 C1731 0.950 . S
H1727 C1732 0.949 . S
H1728 C1734 0.950 . S
H1729 C1735 0.950 . S
H1730 C1736 0.949 . S
C1731 H1726 0.950 . S
C1731 C1733 1.327 . S
C1731 C1737 1.429 . S
C1732 C1724 1.574 . S
C1732 H1727 0.949 . S
C1732 C1738 1.368 . S
C1733 C1717 1.349 . S
C1733 H1725 0.950 . S
C1733 C1731 1.327 . S
C1734 C1722 1.349 . S
C1734 H1728 0.950 . S
C1734 C1735 1.327 . S
C1735 H1729 0.950 . S
C1735 C1734 1.327 . S
C1735 C1739 1.429 . S
C1736 C1719 1.574 . S
C1736 H1730 0.949 . S
C1736 C1740 1.368 . S
C1737 C1718 1.429 . S
C1737 C1731 1.429 . S
C1737 C1738 1.523 . S
C1738 C1719 1.368 . S
C1738 C1732 1.368 . S
C1738 C1737 1.523 . S
C1739 C1723 1.429 . S
C1739 C1735 1.429 . S
C1739 C1740 1.523 . S
C1740 C1724 1.368 . S
C1740 C1736 1.368 . S
C1740 C1739 1.523 . S
H1741 C1716 0.950 . S
H1742 C1718 0.950 . S
H1743 C1719 0.949 . S
H1744 C1721 0.950 . S
H1745 C1723 0.950 . S
C1746 C1747 1.349 . S
C1746 C1748 1.327 . S
C1746 H1771 0.950 . S
C1747 C1746 1.349 . S
C1747 C1763 1.349 . S
C1748 C1746 1.327 . S
C1748 C1767 1.429 . S
C1748 H1772 0.950 . S
C1749 C1766 1.574 . S
C1749 C1768 1.368 . S
C1749 H1773 0.949 . S
H1750 C1754 0.949 . S
C1751 C1752 1.349 . S
C1751 C1753 1.327 . S
C1751 H1774 0.950 . S
C1752 C1751 1.349 . S
C1752 C1764 1.349 . S
C1753 C1751 1.327 . S
C1753 C1769 1.429 . S
C1753 H1775 0.950 . S
C1754 H1750 0.949 . S
C1754 C1762 1.574 . S
C1754 C1770 1.368 . S
H1755 C1763 0.950 . S
H1756 C1761 0.950 . S
H1757 C1762 0.949 . S
H1758 C1764 0.950 . S
H1759 C1765 0.950 . S
H1760 C1766 0.949 . S
C1761 H1756 0.950 . S
C1761 C1763 1.327 . S
C1761 C1767 1.429 . S
C1762 C1754 1.574 . S
C1762 H1757 0.949 . S
C1762 C1768 1.368 . S
C1763 C1747 1.349 . S
C1763 H1755 0.950 . S
C1763 C1761 1.327 . S
C1764 C1752 1.349 . S
C1764 H1758 0.950 . S
C1764 C1765 1.327 . S
C1765 H1759 0.950 . S
C1765 C1764 1.327 . S
C1765 C1769 1.429 . S
C1766 C1749 1.574 . S
C1766 H1760 0.949 . S
C1766 C1770 1.368 . S
C1767 C1748 1.429 . S
C1767 C1761 1.429 . S
C1767 C1768 1.523 . S
C1768 C1749 1.368 . S
C1768 C1762 1.368 . S
C1768 C1767 1.523 . S
C1769 C1753 1.429 . S
C1769 C1765 1.429 . S
C1769 C1770 1.523 . S
C1770 C1754 1.368 . S
C1770 C1766 1.368 . S
C1770 C1769 1.523 . S
H1771 C1746 0.950 . S
H1772 C1748 0.950 . S
H1773 C1749 0.949 . S
H1774 C1751 0.950 . S
H1775 C1753 0.950 . S
C1776 C1777 1.349 . S
C1776 C1778 1.327 . S
C1776 H1801 0.950 . S
C1777 C1776 1.349 . S
C1777 C1793 1.349 . S
C1778 C1776 1.327 . S
C1778 C1797 1.429 . S
C1778 H1802 0.950 . S
C1779 C1796 1.574 . S
C1779 C1798 1.368 . S
C1779 H1803 0.949 . S
H1780 C1784 0.949 . S
C1781 C1782 1.349 . S
C1781 C1783 1.327 . S
C1781 H1804 0.950 . S
C1782 C1781 1.349 . S
C1782 C1794 1.349 . S
C1783 C1781 1.327 . S
C1783 C1799 1.429 . S
C1783 H1805 0.950 . S
C1784 H1780 0.949 . S
C1784 C1792 1.574 . S
C1784 C1800 1.368 . S
H1785 C1793 0.950 . S
H1786 C1791 0.950 . S
H1787 C1792 0.949 . S
H1788 C1794 0.950 . S
H1789 C1795 0.950 . S
H1790 C1796 0.949 . S
C1791 H1786 0.950 . S
C1791 C1793 1.327 . S
C1791 C1797 1.429 . S
C1792 C1784 1.574 . S
C1792 H1787 0.949 . S
C1792 C1798 1.368 . S
C1793 C1777 1.349 . S
C1793 H1785 0.950 . S
C1793 C1791 1.327 . S
C1794 C1782 1.349 . S
C1794 H1788 0.950 . S
C1794 C1795 1.327 . S
C1795 H1789 0.950 . S
C1795 C1794 1.327 . S
C1795 C1799 1.429 . S
C1796 C1779 1.574 . S
C1796 H1790 0.949 . S
C1796 C1800 1.368 . S
C1797 C1778 1.429 . S
C1797 C1791 1.429 . S
C1797 C1798 1.523 . S
C1798 C1779 1.368 . S
C1798 C1792 1.368 . S
C1798 C1797 1.523 . S
C1799 C1783 1.429 . S
C1799 C1795 1.429 . S
C1799 C1800 1.523 . S
C1800 C1784 1.368 . S
C1800 C1796 1.368 . S
C1800 C1799 1.523 . S
H1801 C1776 0.950 . S
H1802 C1778 0.950 . S
H1803 C1779 0.949 . S
H1804 C1781 0.950 . S
H1805 C1783 0.950 . S
C1806 C1807 1.349 . S
C1806 C1808 1.327 . S
C1806 H1831 0.950 . S
C1807 C1806 1.349 . S
C1807 C1823 1.349 . S
C1808 C1806 1.327 . S
C1808 C1827 1.429 . S
C1808 H1832 0.950 . S
C1809 C1826 1.574 . S
C1809 C1828 1.368 . S
C1809 H1833 0.949 . S
H1810 C1814 0.949 . S
C1811 C1812 1.349 . S
C1811 C1813 1.327 . S
C1811 H1834 0.950 . S
C1812 C1811 1.349 . S
C1812 C1824 1.349 . S
C1813 C1811 1.327 . S
C1813 C1829 1.429 . S
C1813 H1835 0.950 . S
C1814 H1810 0.949 . S
C1814 C1822 1.574 . S
C1814 C1830 1.368 . S
H1815 C1823 0.950 . S
H1816 C1821 0.950 . S
H1817 C1822 0.949 . S
H1818 C1824 0.950 . S
H1819 C1825 0.950 . S
H1820 C1826 0.949 . S
C1821 H1816 0.950 . S
C1821 C1823 1.327 . S
C1821 C1827 1.429 . S
C1822 C1814 1.574 . S
C1822 H1817 0.949 . S
C1822 C1828 1.368 . S
C1823 C1807 1.349 . S
C1823 H1815 0.950 . S
C1823 C1821 1.327 . S
C1824 C1812 1.349 . S
C1824 H1818 0.950 . S
C1824 C1825 1.327 . S
C1825 H1819 0.950 . S
C1825 C1824 1.327 . S
C1825 C1829 1.429 . S
C1826 C1809 1.574 . S
C1826 H1820 0.949 . S
C1826 C1830 1.368 . S
C1827 C1808 1.429 . S
C1827 C1821 1.429 . S
C1827 C1828 1.523 . S
C1828 C1809 1.368 . S
C1828 C1822 1.368 . S
C1828 C1827 1.523 . S
C1829 C1813 1.429 . S
C1829 C1825 1.429 . S
C1829 C1830 1.523 . S
C1830 C1814 1.368 . S
C1830 C1826 1.368 . S
C1830 C1829 1.523 . S
H1831 C1806 0.950 . S
H1832 C1808 0.950 . S
H1833 C1809 0.949 . S
H1834 C1811 0.950 . S
H1835 C1813 0.950 . S
C1836 C1837 1.349 . S
C1836 C1838 1.327 . S
C1836 H1861 0.950 . S
C1837 C1836 1.349 . S
C1837 C1853 1.349 . S
C1838 C1836 1.327 . S
C1838 C1857 1.429 . S
C1838 H1862 0.950 . S
C1839 C1856 1.574 . S
C1839 C1858 1.368 . S
C1839 H1863 0.949 . S
H1840 C1844 0.949 . S
C1841 C1842 1.349 . S
C1841 C1843 1.327 . S
C1841 H1864 0.950 . S
C1842 C1841 1.349 . S
C1842 C1854 1.349 . S
C1843 C1841 1.327 . S
C1843 C1859 1.429 . S
C1843 H1865 0.950 . S
C1844 H1840 0.949 . S
C1844 C1852 1.574 . S
C1844 C1860 1.368 . S
H1845 C1853 0.950 . S
H1846 C1851 0.950 . S
H1847 C1852 0.949 . S
H1848 C1854 0.950 . S
H1849 C1855 0.950 . S
H1850 C1856 0.949 . S
C1851 H1846 0.950 . S
C1851 C1853 1.327 . S
C1851 C1857 1.429 . S
C1852 C1844 1.574 . S
C1852 H1847 0.949 . S
C1852 C1858 1.368 . S
C1853 C1837 1.349 . S
C1853 H1845 0.950 . S
C1853 C1851 1.327 . S
C1854 C1842 1.349 . S
C1854 H1848 0.950 . S
C1854 C1855 1.327 . S
C1855 H1849 0.950 . S
C1855 C1854 1.327 . S
C1855 C1859 1.429 . S
C1856 C1839 1.574 . S
C1856 H1850 0.949 . S
C1856 C1860 1.368 . S
C1857 C1838 1.429 . S
C1857 C1851 1.429 . S
C1857 C1858 1.523 . S
C1858 C1839 1.368 . S
C1858 C1852 1.368 . S
C1858 C1857 1.523 . S
C1859 C1843 1.429 . S
C1859 C1855 1.429 . S
C1859 C1860 1.523 . S
C1860 C1844 1.368 . S
C1860 C1856 1.368 . S
C1860 C1859 1.523 . S
H1861 C1836 0.950 . S
H1862 C1838 0.950 . S
H1863 C1839 0.949 . S
H1864 C1841 0.950 . S
H1865 C1843 0.950 . S
C1866 C1867 1.349 . S
C1866 C1868 1.327 . S
C1866 H1891 0.950 . S
C1867 C1866 1.349 . S
C1867 C1883 1.349 . S
C1868 C1866 1.327 . S
C1868 C1887 1.429 . S
C1868 H1892 0.950 . S
C1869 C1886 1.574 . S
C1869 C1888 1.368 . S
C1869 H1893 0.949 . S
H1870 C1874 0.949 . S
C1871 C1872 1.349 . S
C1871 C1873 1.327 . S
C1871 H1894 0.950 . S
C1872 C1871 1.349 . S
C1872 C1884 1.349 . S
C1873 C1871 1.327 . S
C1873 C1889 1.429 . S
C1873 H1895 0.950 . S
C1874 H1870 0.949 . S
C1874 C1882 1.574 . S
C1874 C1890 1.368 . S
H1875 C1883 0.950 . S
H1876 C1881 0.950 . S
H1877 C1882 0.949 . S
H1878 C1884 0.950 . S
H1879 C1885 0.950 . S
H1880 C1886 0.949 . S
C1881 H1876 0.950 . S
C1881 C1883 1.327 . S
C1881 C1887 1.429 . S
C1882 C1874 1.574 . S
C1882 H1877 0.949 . S
C1882 C1888 1.368 . S
C1883 C1867 1.349 . S
C1883 H1875 0.950 . S
C1883 C1881 1.327 . S
C1884 C1872 1.349 . S
C1884 H1878 0.950 . S
C1884 C1885 1.327 . S
C1885 H1879 0.950 . S
C1885 C1884 1.327 . S
C1885 C1889 1.429 . S
C1886 C1869 1.574 . S
C1886 H1880 0.949 . S
C1886 C1890 1.368 . S
C1887 C1868 1.429 . S
C1887 C1881 1.429 . S
C1887 C1888 1.523 . S
C1888 C1869 1.368 . S
C1888 C1882 1.368 . S
C1888 C1887 1.523 . S
C1889 C1873 1.429 . S
C1889 C1885 1.429 . S
C1889 C1890 1.523 . S
C1890 C1874 1.368 . S
C1890 C1886 1.368 . S
C1890 C1889 1.523 . S
H1891 C1866 0.950 . S
H1892 C1868 0.950 . S
H1893 C1869 0.949 . S
H1894 C1871 0.950 . S
H1895 C1873 0.950 . S
C1896 C1897 1.349 . S
C1896 C1898 1.327 . S
C1896 H1921 0.950 . S
C1897 C1896 1.349 . S
C1897 C1913 1.349 . S
C1898 C1896 1.327 . S
C1898 C1917 1.429 . S
C1898 H1922 0.950 . S
C1899 C1916 1.574 . S
C1899 C1918 1.368 . S
C1899 H1923 0.949 . S
H1900 C1904 0.949 . S
C1901 C1902 1.349 . S
C1901 C1903 1.327 . S
C1901 H1924 0.950 . S
C1902 C1901 1.349 . S
C1902 C1914 1.349 . S
C1903 C1901 1.327 . S
C1903 C1919 1.429 . S
C1903 H1925 0.950 . S
C1904 H1900 0.949 . S
C1904 C1912 1.574 . S
C1904 C1920 1.368 . S
H1905 C1913 0.950 . S
H1906 C1911 0.950 . S
H1907 C1912 0.949 . S
H1908 C1914 0.950 . S
H1909 C1915 0.950 . S
H1910 C1916 0.949 . S
C1911 H1906 0.950 . S
C1911 C1913 1.327 . S
C1911 C1917 1.429 . S
C1912 C1904 1.574 . S
C1912 H1907 0.949 . S
C1912 C1918 1.368 . S
C1913 C1897 1.349 . S
C1913 H1905 0.950 . S
C1913 C1911 1.327 . S
C1914 C1902 1.349 . S
C1914 H1908 0.950 . S
C1914 C1915 1.327 . S
C1915 H1909 0.950 . S
C1915 C1914 1.327 . S
C1915 C1919 1.429 . S
C1916 C1899 1.574 . S
C1916 H1910 0.949 . S
C1916 C1920 1.368 . S
C1917 C1898 1.429 . S
C1917 C1911 1.429 . S
C1917 C1918 1.523 . S
C1918 C1899 1.368 . S
C1918 C1912 1.368 . S
C1918 C1917 1.523 . S
C1919 C1903 1.429 . S
C1919 C1915 1.429 . S
C1919 C1920 1.523 . S
C1920 C1904 1.368 . S
C1920 C1916 1.368 . S
C1920 C1919 1.523 . S
H1921 C1896 0.950 . S
H1922 C1898 0.950 . S
H1923 C1899 0.949 . S
H1924 C1901 0.950 . S
H1925 C1903 0.950 . S
C1926 C1927 1.349 . S
C1926 C1928 1.327 . S
C1926 H1951 0.950 . S
C1927 C1926 1.349 . S
C1927 C1943 1.349 . S
C1928 C1926 1.327 . S
C1928 C1947 1.429 . S
C1928 H1952 0.950 . S
C1929 C1946 1.574 . S
C1929 C1948 1.368 . S
C1929 H1953 0.949 . S
H1930 C1934 0.949 . S
C1931 C1932 1.349 . S
C1931 C1933 1.327 . S
C1931 H1954 0.950 . S
C1932 C1931 1.349 . S
C1932 C1944 1.349 . S
C1933 C1931 1.327 . S
C1933 C1949 1.429 . S
C1933 H1955 0.950 . S
C1934 H1930 0.949 . S
C1934 C1942 1.574 . S
C1934 C1950 1.368 . S
H1935 C1943 0.950 . S
H1936 C1941 0.950 . S
H1937 C1942 0.949 . S
H1938 C1944 0.950 . S
H1939 C1945 0.950 . S
H1940 C1946 0.949 . S
C1941 H1936 0.950 . S
C1941 C1943 1.327 . S
C1941 C1947 1.429 . S
C1942 C1934 1.574 . S
C1942 H1937 0.949 . S
C1942 C1948 1.368 . S
C1943 C1927 1.349 . S
C1943 H1935 0.950 . S
C1943 C1941 1.327 . S
C1944 C1932 1.349 . S
C1944 H1938 0.950 . S
C1944 C1945 1.327 . S
C1945 H1939 0.950 . S
C1945 C1944 1.327 . S
C1945 C1949 1.429 . S
C1946 C1929 1.574 . S
C1946 H1940 0.949 . S
C1946 C1950 1.368 . S
C1947 C1928 1.429 . S
C1947 C1941 1.429 . S
C1947 C1948 1.523 . S
C1948 C1929 1.368 . S
C1948 C1942 1.368 . S
C1948 C1947 1.523 . S
C1949 C1933 1.429 . S
C1949 C1945 1.429 . S
C1949 C1950 1.523 . S
C1950 C1934 1.368 . S
C1950 C1946 1.368 . S
C1950 C1949 1.523 . S
H1951 C1926 0.950 . S
H1952 C1928 0.950 . S
H1953 C1929 0.949 . S
H1954 C1931 0.950 . S
H1955 C1933 0.950 . S
C1956 C1957 1.349 . S
C1956 C1958 1.327 . S
C1956 H1981 0.950 . S
C1957 C1956 1.349 . S
C1957 C1973 1.349 . S
C1958 C1956 1.327 . S
C1958 C1977 1.429 . S
C1958 H1982 0.950 . S
C1959 C1976 1.574 . S
C1959 C1978 1.368 . S
C1959 H1983 0.949 . S
H1960 C1964 0.949 . S
C1961 C1962 1.349 . S
C1961 C1963 1.327 . S
C1961 H1984 0.950 . S
C1962 C1961 1.349 . S
C1962 C1974 1.349 . S
C1963 C1961 1.327 . S
C1963 C1979 1.429 . S
C1963 H1985 0.950 . S
C1964 H1960 0.949 . S
C1964 C1972 1.574 . S
C1964 C1980 1.368 . S
H1965 C1973 0.950 . S
H1966 C1971 0.950 . S
H1967 C1972 0.949 . S
H1968 C1974 0.950 . S
H1969 C1975 0.950 . S
H1970 C1976 0.949 . S
C1971 H1966 0.950 . S
C1971 C1973 1.327 . S
C1971 C1977 1.429 . S
C1972 C1964 1.574 . S
C1972 H1967 0.949 . S
C1972 C1978 1.368 . S
C1973 C1957 1.349 . S
C1973 H1965 0.950 . S
C1973 C1971 1.327 . S
C1974 C1962 1.349 . S
C1974 H1968 0.950 . S
C1974 C1975 1.327 . S
C1975 H1969 0.950 . S
C1975 C1974 1.327 . S
C1975 C1979 1.429 . S
C1976 C1959 1.574 . S
C1976 H1970 0.949 . S
C1976 C1980 1.368 . S
C1977 C1958 1.429 . S
C1977 C1971 1.429 . S
C1977 C1978 1.523 . S
C1978 C1959 1.368 . S
C1978 C1972 1.368 . S
C1978 C1977 1.523 . S
C1979 C1963 1.429 . S
C1979 C1975 1.429 . S
C1979 C1980 1.523 . S
C1980 C1964 1.368 . S
C1980 C1976 1.368 . S
C1980 C1979 1.523 . S
H1981 C1956 0.950 . S
H1982 C1958 0.950 . S
H1983 C1959 0.949 . S
H1984 C1961 0.950 . S
H1985 C1963 0.950 . S
C1986 C1987 1.349 . S
C1986 C1988 1.327 . S
C1986 H2011 0.950 . S
C1987 C1986 1.349 . S
C1987 C2003 1.349 . S
C1988 C1986 1.327 . S
C1988 C2007 1.429 . S
C1988 H2012 0.950 . S
C1989 C2006 1.574 . S
C1989 C2008 1.368 . S
C1989 H2013 0.949 . S
H1990 C1994 0.949 . S
C1991 C1992 1.349 . S
C1991 C1993 1.327 . S
C1991 H2014 0.950 . S
C1992 C1991 1.349 . S
C1992 C2004 1.349 . S
C1993 C1991 1.327 . S
C1993 C2009 1.429 . S
C1993 H2015 0.950 . S
C1994 H1990 0.949 . S
C1994 C2002 1.574 . S
C1994 C2010 1.368 . S
H1995 C2003 0.950 . S
H1996 C2001 0.950 . S
H1997 C2002 0.949 . S
H1998 C2004 0.950 . S
H1999 C2005 0.950 . S
H2000 C2006 0.949 . S
C2001 H1996 0.950 . S
C2001 C2003 1.327 . S
C2001 C2007 1.429 . S
C2002 C1994 1.574 . S
C2002 H1997 0.949 . S
C2002 C2008 1.368 . S
C2003 C1987 1.349 . S
C2003 H1995 0.950 . S
C2003 C2001 1.327 . S
C2004 C1992 1.349 . S
C2004 H1998 0.950 . S
C2004 C2005 1.327 . S
C2005 H1999 0.950 . S
C2005 C2004 1.327 . S
C2005 C2009 1.429 . S
C2006 C1989 1.574 . S
C2006 H2000 0.949 . S
C2006 C2010 1.368 . S
C2007 C1988 1.429 . S
C2007 C2001 1.429 . S
C2007 C2008 1.523 . S
C2008 C1989 1.368 . S
C2008 C2002 1.368 . S
C2008 C2007 1.523 . S
C2009 C1993 1.429 . S
C2009 C2005 1.429 . S
C2009 C2010 1.523 . S
C2010 C1994 1.368 . S
C2010 C2006 1.368 . S
C2010 C2009 1.523 . S
H2011 C1986 0.950 . S
H2012 C1988 0.950 . S
H2013 C1989 0.949 . S
H2014 C1991 0.950 . S
H2015 C1993 0.950 . S
C2016 C2017 1.349 . S
C2016 C2018 1.327 . S
C2016 H2041 0.950 . S
C2017 C2016 1.349 . S
C2017 C2033 1.349 . S
C2018 C2016 1.327 . S
C2018 C2037 1.429 . S
C2018 H2042 0.950 . S
C2019 C2036 1.574 . S
C2019 C2038 1.368 . S
C2019 H2043 0.949 . S
H2020 C2024 0.949 . S
C2021 C2022 1.349 . S
C2021 C2023 1.327 . S
C2021 H2044 0.950 . S
C2022 C2021 1.349 . S
C2022 C2034 1.349 . S
C2023 C2021 1.327 . S
C2023 C2039 1.429 . S
C2023 H2045 0.950 . S
C2024 H2020 0.949 . S
C2024 C2032 1.574 . S
C2024 C2040 1.368 . S
H2025 C2033 0.950 . S
H2026 C2031 0.950 . S
H2027 C2032 0.949 . S
H2028 C2034 0.950 . S
H2029 C2035 0.950 . S
H2030 C2036 0.949 . S
C2031 H2026 0.950 . S
C2031 C2033 1.327 . S
C2031 C2037 1.429 . S
C2032 C2024 1.574 . S
C2032 H2027 0.949 . S
C2032 C2038 1.368 . S
C2033 C2017 1.349 . S
C2033 H2025 0.950 . S
C2033 C2031 1.327 . S
C2034 C2022 1.349 . S
C2034 H2028 0.950 . S
C2034 C2035 1.327 . S
C2035 H2029 0.950 . S
C2035 C2034 1.327 . S
C2035 C2039 1.429 . S
C2036 C2019 1.574 . S
C2036 H2030 0.949 . S
C2036 C2040 1.368 . S
C2037 C2018 1.429 . S
C2037 C2031 1.429 . S
C2037 C2038 1.523 . S
C2038 C2019 1.368 . S
C2038 C2032 1.368 . S
C2038 C2037 1.523 . S
C2039 C2023 1.429 . S
C2039 C2035 1.429 . S
C2039 C2040 1.523 . S
C2040 C2024 1.368 . S
C2040 C2036 1.368 . S
C2040 C2039 1.523 . S
H2041 C2016 0.950 . S
H2042 C2018 0.950 . S
H2043 C2019 0.949 . S
H2044 C2021 0.950 . S
H2045 C2023 0.950 . S
C2046 C2047 1.349 . S
C2046 C2048 1.327 . S
C2046 H2071 0.950 . S
C2047 C2046 1.349 . S
C2047 C2063 1.349 . S
C2048 C2046 1.327 . S
C2048 C2067 1.429 . S
C2048 H2072 0.950 . S
C2049 C2066 1.574 . S
C2049 C2068 1.368 . S
C2049 H2073 0.949 . S
H2050 C2054 0.949 . S
C2051 C2052 1.349 . S
C2051 C2053 1.327 . S
C2051 H2074 0.950 . S
C2052 C2051 1.349 . S
C2052 C2064 1.349 . S
C2053 C2051 1.327 . S
C2053 C2069 1.429 . S
C2053 H2075 0.950 . S
C2054 H2050 0.949 . S
C2054 C2062 1.574 . S
C2054 C2070 1.368 . S
H2055 C2063 0.950 . S
H2056 C2061 0.950 . S
H2057 C2062 0.949 . S
H2058 C2064 0.950 . S
H2059 C2065 0.950 . S
H2060 C2066 0.949 . S
C2061 H2056 0.950 . S
C2061 C2063 1.327 . S
C2061 C2067 1.429 . S
C2062 C2054 1.574 . S
C2062 H2057 0.949 . S
C2062 C2068 1.368 . S
C2063 C2047 1.349 . S
C2063 H2055 0.950 . S
C2063 C2061 1.327 . S
C2064 C2052 1.349 . S
C2064 H2058 0.950 . S
C2064 C2065 1.327 . S
C2065 H2059 0.950 . S
C2065 C2064 1.327 . S
C2065 C2069 1.429 . S
C2066 C2049 1.574 . S
C2066 H2060 0.949 . S
C2066 C2070 1.368 . S
C2067 C2048 1.429 . S
C2067 C2061 1.429 . S
C2067 C2068 1.523 . S
C2068 C2049 1.368 . S
C2068 C2062 1.368 . S
C2068 C2067 1.523 . S
C2069 C2053 1.429 . S
C2069 C2065 1.429 . S
C2069 C2070 1.523 . S
C2070 C2054 1.368 . S
C2070 C2066 1.368 . S
C2070 C2069 1.523 . S
H2071 C2046 0.950 . S
H2072 C2048 0.950 . S
H2073 C2049 0.949 . S
H2074 C2051 0.950 . S
H2075 C2053 0.950 . S
C2076 C2077 1.349 . S
C2076 C2078 1.327 . S
C2076 H2101 0.950 . S
C2077 C2076 1.349 . S
C2077 C2093 1.349 . S
C2078 C2076 1.327 . S
C2078 C2097 1.429 . S
C2078 H2102 0.950 . S
C2079 C2096 1.574 . S
C2079 C2098 1.368 . S
C2079 H2103 0.949 . S
H2080 C2084 0.949 . S
C2081 C2082 1.349 . S
C2081 C2083 1.327 . S
C2081 H2104 0.950 . S
C2082 C2081 1.349 . S
C2082 C2094 1.349 . S
C2083 C2081 1.327 . S
C2083 C2099 1.429 . S
C2083 H2105 0.950 . S
C2084 H2080 0.949 . S
C2084 C2092 1.574 . S
C2084 C2100 1.368 . S
H2085 C2093 0.950 . S
H2086 C2091 0.950 . S
H2087 C2092 0.949 . S
H2088 C2094 0.950 . S
H2089 C2095 0.950 . S
H2090 C2096 0.949 . S
C2091 H2086 0.950 . S
C2091 C2093 1.327 . S
C2091 C2097 1.429 . S
C2092 C2084 1.574 . S
C2092 H2087 0.949 . S
C2092 C2098 1.368 . S
C2093 C2077 1.349 . S
C2093 H2085 0.950 . S
C2093 C2091 1.327 . S
C2094 C2082 1.349 . S
C2094 H2088 0.950 . S
C2094 C2095 1.327 . S
C2095 H2089 0.950 . S
C2095 C2094 1.327 . S
C2095 C2099 1.429 . S
C2096 C2079 1.574 . S
C2096 H2090 0.949 . S
C2096 C2100 1.368 . S
C2097 C2078 1.429 . S
C2097 C2091 1.429 . S
C2097 C2098 1.523 . S
C2098 C2079 1.368 . S
C2098 C2092 1.368 . S
C2098 C2097 1.523 . S
C2099 C2083 1.429 . S
C2099 C2095 1.429 . S
C2099 C2100 1.523 . S
C2100 C2084 1.368 . S
C2100 C2096 1.368 . S
C2100 C2099 1.523 . S
H2101 C2076 0.950 . S
H2102 C2078 0.950 . S
H2103 C2079 0.949 . S
H2104 C2081 0.950 . S
H2105 C2083 0.950 . S
C2106 C2107 1.349 . S
C2106 C2108 1.327 . S
C2106 H2131 0.950 . S
C2107 C2106 1.349 . S
C2107 C2123 1.349 . S
C2108 C2106 1.327 . S
C2108 C2127 1.429 . S
C2108 H2132 0.950 . S
C2109 C2126 1.574 . S
C2109 C2128 1.368 . S
C2109 H2133 0.949 . S
H2110 C2114 0.949 . S
C2111 C2112 1.349 . S
C2111 C2113 1.327 . S
C2111 H2134 0.950 . S
C2112 C2111 1.349 . S
C2112 C2124 1.349 . S
C2113 C2111 1.327 . S
C2113 C2129 1.429 . S
C2113 H2135 0.950 . S
C2114 H2110 0.949 . S
C2114 C2122 1.574 . S
C2114 C2130 1.368 . S
H2115 C2123 0.950 . S
H2116 C2121 0.950 . S
H2117 C2122 0.949 . S
H2118 C2124 0.950 . S
H2119 C2125 0.950 . S
H2120 C2126 0.949 . S
C2121 H2116 0.950 . S
C2121 C2123 1.327 . S
C2121 C2127 1.429 . S
C2122 C2114 1.574 . S
C2122 H2117 0.949 . S
C2122 C2128 1.368 . S
C2123 C2107 1.349 . S
C2123 H2115 0.950 . S
C2123 C2121 1.327 . S
C2124 C2112 1.349 . S
C2124 H2118 0.950 . S
C2124 C2125 1.327 . S
C2125 H2119 0.950 . S
C2125 C2124 1.327 . S
C2125 C2129 1.429 . S
C2126 C2109 1.574 . S
C2126 H2120 0.949 . S
C2126 C2130 1.368 . S
C2127 C2108 1.429 . S
C2127 C2121 1.429 . S
C2127 C2128 1.523 . S
C2128 C2109 1.368 . S
C2128 C2122 1.368 . S
C2128 C2127 1.523 . S
C2129 C2113 1.429 . S
C2129 C2125 1.429 . S
C2129 C2130 1.523 . S
C2130 C2114 1.368 . S
C2130 C2126 1.368 . S
C2130 C2129 1.523 . S
H2131 C2106 0.950 . S
H2132 C2108 0.950 . S
H2133 C2109 0.949 . S
H2134 C2111 0.950 . S
H2135 C2113 0.950 . S
C2136 C2137 1.349 . S
C2136 C2138 1.327 . S
C2136 H2161 0.950 . S
C2137 C2136 1.349 . S
C2137 C2153 1.349 . S
C2138 C2136 1.327 . S
C2138 C2157 1.429 . S
C2138 H2162 0.950 . S
C2139 C2156 1.574 1_455 S
C2139 C2158 1.368 . S
C2139 H2163 0.949 . S
H2140 C2144 0.949 . S
C2141 C2142 1.349 . S
C2141 C2143 1.327 . S
C2141 H2164 0.950 . S
C2142 C2141 1.349 . S
C2142 C2154 1.349 . S
C2143 C2141 1.327 . S
C2143 C2159 1.429 . S
C2143 H2165 0.950 . S
C2144 H2140 0.949 . S
C2144 C2152 1.574 1_655 S
C2144 C2160 1.368 . S
H2145 C2153 0.950 . S
H2146 C2151 0.950 . S
H2147 C2152 0.949 . S
H2148 C2154 0.950 . S
H2149 C2155 0.950 . S
H2150 C2156 0.949 . S
C2151 H2146 0.950 . S
C2151 C2153 1.327 . S
C2151 C2157 1.429 . S
C2152 C2144 1.574 1_455 S
C2152 H2147 0.949 . S
C2152 C2158 1.368 . S
C2153 C2137 1.349 . S
C2153 H2145 0.950 . S
C2153 C2151 1.327 . S
C2154 C2142 1.349 . S
C2154 H2148 0.950 . S
C2154 C2155 1.327 . S
C2155 H2149 0.950 . S
C2155 C2154 1.327 . S
C2155 C2159 1.429 . S
C2156 C2139 1.574 1_655 S
C2156 H2150 0.949 . S
C2156 C2160 1.368 . S
C2157 C2138 1.429 . S
C2157 C2151 1.429 . S
C2157 C2158 1.523 . S
C2158 C2139 1.368 . S
C2158 C2152 1.368 . S
C2158 C2157 1.523 . S
C2159 C2143 1.429 . S
C2159 C2155 1.429 . S
C2159 C2160 1.523 . S
C2160 C2144 1.368 . S
C2160 C2156 1.368 . S
C2160 C2159 1.523 . S
H2161 C2136 0.950 . S
H2162 C2138 0.950 . S
H2163 C2139 0.949 . S
H2164 C2141 0.950 . S
H2165 C2143 0.950 . S
C2166 C2167 1.349 . S
C2166 C2168 1.327 . S
C2166 H2191 0.950 . S
C2167 C2166 1.349 . S
C2167 C2183 1.349 . S
C2168 C2166 1.327 . S
C2168 C2187 1.429 . S
C2168 H2192 0.950 . S
C2169 C2186 1.574 1_545 S
C2169 C2188 1.368 . S
C2169 H2193 0.949 . S
H2170 C2174 0.949 . S
C2171 C2172 1.349 . S
C2171 C2173 1.327 . S
C2171 H2194 0.950 . S
C2172 C2171 1.349 . S
C2172 C2184 1.349 . S
C2173 C2171 1.327 . S
C2173 C2189 1.429 . S
C2173 H2195 0.950 . S
C2174 H2170 0.949 . S
C2174 C2182 1.574 1_565 S
C2174 C2190 1.368 . S
H2175 C2183 0.950 . S
H2176 C2181 0.950 . S
H2177 C2182 0.949 . S
H2178 C2184 0.950 . S
H2179 C2185 0.950 . S
H2180 C2186 0.949 . S
C2181 H2176 0.950 . S
C2181 C2183 1.327 . S
C2181 C2187 1.429 . S
C2182 C2174 1.574 1_545 S
C2182 H2177 0.949 . S
C2182 C2188 1.368 . S
C2183 C2167 1.349 . S
C2183 H2175 0.950 . S
C2183 C2181 1.327 . S
C2184 C2172 1.349 . S
C2184 H2178 0.950 . S
C2184 C2185 1.327 . S
C2185 H2179 0.950 . S
C2185 C2184 1.327 . S
C2185 C2189 1.429 . S
C2186 C2169 1.574 1_565 S
C2186 H2180 0.949 . S
C2186 C2190 1.368 . S
C2187 C2168 1.429 . S
C2187 C2181 1.429 . S
C2187 C2188 1.523 . S
C2188 C2169 1.368 . S
C2188 C2182 1.368 . S
C2188 C2187 1.523 . S
C2189 C2173 1.429 . S
C2189 C2185 1.429 . S
C2189 C2190 1.523 . S
C2190 C2174 1.368 . S
C2190 C2186 1.368 . S
C2190 C2189 1.523 . S
H2191 C2166 0.950 . S
H2192 C2168 0.950 . S
H2193 C2169 0.949 . S
H2194 C2171 0.950 . S
H2195 C2173 0.950 . S
C2196 C2197 1.349 . S
C2196 C2198 1.327 . S
C2196 H2221 0.950 . S
C2197 C2196 1.349 . S
C2197 C2213 1.349 . S
C2198 C2196 1.327 . S
C2198 C2217 1.429 . S
C2198 H2222 0.950 . S
C2199 C2216 1.574 1_655 S
C2199 C2218 1.368 . S
C2199 H2223 0.949 . S
H2200 C2204 0.949 . S
C2201 C2202 1.349 . S
C2201 C2203 1.327 . S
C2201 H2224 0.950 . S
C2202 C2201 1.349 . S
C2202 C2214 1.349 . S
C2203 C2201 1.327 . S
C2203 C2219 1.429 . S
C2203 H2225 0.950 . S
C2204 H2200 0.949 . S
C2204 C2212 1.574 1_455 S
C2204 C2220 1.368 . S
H2205 C2213 0.950 . S
H2206 C2211 0.950 . S
H2207 C2212 0.949 . S
H2208 C2214 0.950 . S
H2209 C2215 0.950 . S
H2210 C2216 0.949 . S
C2211 H2206 0.950 . S
C2211 C2213 1.327 . S
C2211 C2217 1.429 . S
C2212 C2204 1.574 1_655 S
C2212 H2207 0.949 . S
C2212 C2218 1.368 . S
C2213 C2197 1.349 . S
C2213 H2205 0.950 . S
C2213 C2211 1.327 . S
C2214 C2202 1.349 . S
C2214 H2208 0.950 . S
C2214 C2215 1.327 . S
C2215 H2209 0.950 . S
C2215 C2214 1.327 . S
C2215 C2219 1.429 . S
C2216 C2199 1.574 1_455 S
C2216 H2210 0.949 . S
C2216 C2220 1.368 . S
C2217 C2198 1.429 . S
C2217 C2211 1.429 . S
C2217 C2218 1.523 . S
C2218 C2199 1.368 . S
C2218 C2212 1.368 . S
C2218 C2217 1.523 . S
C2219 C2203 1.429 . S
C2219 C2215 1.429 . S
C2219 C2220 1.523 . S
C2220 C2204 1.368 . S
C2220 C2216 1.368 . S
C2220 C2219 1.523 . S
H2221 C2196 0.950 . S
H2222 C2198 0.950 . S
H2223 C2199 0.949 . S
H2224 C2201 0.950 . S
H2225 C2203 0.950 . S
C2226 C2227 1.349 . S
C2226 C2228 1.327 . S
C2226 H2251 0.950 . S
C2227 C2226 1.349 . S
C2227 C2243 1.349 . S
C2228 C2226 1.327 . S
C2228 C2247 1.429 . S
C2228 H2252 0.950 . S
C2229 C2246 1.574 1_545 S
C2229 C2248 1.368 . S
C2229 H2253 0.949 . S
H2230 C2234 0.949 . S
C2231 C2232 1.349 . S
C2231 C2233 1.327 . S
C2231 H2254 0.950 . S
C2232 C2231 1.349 . S
C2232 C2244 1.349 . S
C2233 C2231 1.327 . S
C2233 C2249 1.429 . S
C2233 H2255 0.950 . S
C2234 H2230 0.949 . S
C2234 C2242 1.574 1_565 S
C2234 C2250 1.368 . S
H2235 C2243 0.950 . S
H2236 C2241 0.950 . S
H2237 C2242 0.949 . S
H2238 C2244 0.950 . S
H2239 C2245 0.950 . S
H2240 C2246 0.949 . S
C2241 H2236 0.950 . S
C2241 C2243 1.327 . S
C2241 C2247 1.429 . S
C2242 C2234 1.574 1_545 S
C2242 H2237 0.949 . S
C2242 C2248 1.368 . S
C2243 C2227 1.349 . S
C2243 H2235 0.950 . S
C2243 C2241 1.327 . S
C2244 C2232 1.349 . S
C2244 H2238 0.950 . S
C2244 C2245 1.327 . S
C2245 H2239 0.950 . S
C2245 C2244 1.327 . S
C2245 C2249 1.429 . S
C2246 C2229 1.574 1_565 S
C2246 H2240 0.949 . S
C2246 C2250 1.368 . S
C2247 C2228 1.429 . S
C2247 C2241 1.429 . S
C2247 C2248 1.523 . S
C2248 C2229 1.368 . S
C2248 C2242 1.368 . S
C2248 C2247 1.523 . S
C2249 C2233 1.429 . S
C2249 C2245 1.429 . S
C2249 C2250 1.523 . S
C2250 C2234 1.368 . S
C2250 C2246 1.368 . S
C2250 C2249 1.523 . S
H2251 C2226 0.950 . S
H2252 C2228 0.950 . S
H2253 C2229 0.949 . S
H2254 C2231 0.950 . S
H2255 C2233 0.950 . S
C2256 C2257 1.349 . S
C2256 C2258 1.327 . S
C2256 H2281 0.950 . S
C2257 C2256 1.349 . S
C2257 C2273 1.349 . S
C2258 C2256 1.327 . S
C2258 C2277 1.429 . S
C2258 H2282 0.950 . S
C2259 C2276 1.574 1_565 S
C2259 C2278 1.368 . S
C2259 H2283 0.949 . S
H2260 C2264 0.949 . S
C2261 C2262 1.349 . S
C2261 C2263 1.327 . S
C2261 H2284 0.950 . S
C2262 C2261 1.349 . S
C2262 C2274 1.349 . S
C2263 C2261 1.327 . S
C2263 C2279 1.429 . S
C2263 H2285 0.950 . S
C2264 H2260 0.949 . S
C2264 C2272 1.574 1_545 S
C2264 C2280 1.368 . S
H2265 C2273 0.950 . S
H2266 C2271 0.950 . S
H2267 C2272 0.949 . S
H2268 C2274 0.950 . S
H2269 C2275 0.950 . S
H2270 C2276 0.949 . S
C2271 H2266 0.950 . S
C2271 C2273 1.327 . S
C2271 C2277 1.429 . S
C2272 C2264 1.574 1_565 S
C2272 H2267 0.949 . S
C2272 C2278 1.368 . S
C2273 C2257 1.349 . S
C2273 H2265 0.950 . S
C2273 C2271 1.327 . S
C2274 C2262 1.349 . S
C2274 H2268 0.950 . S
C2274 C2275 1.327 . S
C2275 H2269 0.950 . S
C2275 C2274 1.327 . S
C2275 C2279 1.429 . S
C2276 C2259 1.574 1_545 S
C2276 H2270 0.949 . S
C2276 C2280 1.368 . S
C2277 C2258 1.429 . S
C2277 C2271 1.429 . S
C2277 C2278 1.523 . S
C2278 C2259 1.368 . S
C2278 C2272 1.368 . S
C2278 C2277 1.523 . S
C2279 C2263 1.429 . S
C2279 C2275 1.429 . S
C2279 C2280 1.523 . S
C2280 C2264 1.368 . S
C2280 C2276 1.368 . S
C2280 C2279 1.523 . S
H2281 C2256 0.950 . S
H2282 C2258 0.950 . S
H2283 C2259 0.949 . S
H2284 C2261 0.950 . S
H2285 C2263 0.950 . S
C2286 C2287 1.349 . S
C2286 C2288 1.327 . S
C2286 H2311 0.950 . S
C2287 C2286 1.349 . S
C2287 C2303 1.349 . S
C2288 C2286 1.327 . S
C2288 C2307 1.429 . S
C2288 H2312 0.950 . S
C2289 C2306 1.574 1_655 S
C2289 C2308 1.368 . S
C2289 H2313 0.949 . S
H2290 C2294 0.949 . S
C2291 C2292 1.349 . S
C2291 C2293 1.327 . S
C2291 H2314 0.950 . S
C2292 C2291 1.349 . S
C2292 C2304 1.349 . S
C2293 C2291 1.327 . S
C2293 C2309 1.429 . S
C2293 H2315 0.950 . S
C2294 H2290 0.949 . S
C2294 C2302 1.574 1_455 S
C2294 C2310 1.368 . S
H2295 C2303 0.950 . S
H2296 C2301 0.950 . S
H2297 C2302 0.949 . S
H2298 C2304 0.950 . S
H2299 C2305 0.950 . S
H2300 C2306 0.949 . S
C2301 H2296 0.950 . S
C2301 C2303 1.327 . S
C2301 C2307 1.429 . S
C2302 C2294 1.574 1_655 S
C2302 H2297 0.949 . S
C2302 C2308 1.368 . S
C2303 C2287 1.349 . S
C2303 H2295 0.950 . S
C2303 C2301 1.327 . S
C2304 C2292 1.349 . S
C2304 H2298 0.950 . S
C2304 C2305 1.327 . S
C2305 H2299 0.950 . S
C2305 C2304 1.327 . S
C2305 C2309 1.429 . S
C2306 C2289 1.574 1_455 S
C2306 H2300 0.949 . S
C2306 C2310 1.368 . S
C2307 C2288 1.429 . S
C2307 C2301 1.429 . S
C2307 C2308 1.523 . S
C2308 C2289 1.368 . S
C2308 C2302 1.368 . S
C2308 C2307 1.523 . S
C2309 C2293 1.429 . S
C2309 C2305 1.429 . S
C2309 C2310 1.523 . S
C2310 C2294 1.368 . S
C2310 C2306 1.368 . S
C2310 C2309 1.523 . S
H2311 C2286 0.950 . S
H2312 C2288 0.950 . S
H2313 C2289 0.949 . S
H2314 C2291 0.950 . S
H2315 C2293 0.950 . S
C2316 C2317 1.349 . S
C2316 C2318 1.327 . S
C2316 H2341 0.950 . S
C2317 C2316 1.349 . S
C2317 C2333 1.349 . S
C2318 C2316 1.327 . S
C2318 C2337 1.429 . S
C2318 H2342 0.950 . S
C2319 C2336 1.574 1_565 S
C2319 C2338 1.368 . S
C2319 H2343 0.949 . S
H2320 C2324 0.949 . S
C2321 C2322 1.349 . S
C2321 C2323 1.327 . S
C2321 H2344 0.950 . S
C2322 C2321 1.349 . S
C2322 C2334 1.349 . S
C2323 C2321 1.327 . S
C2323 C2339 1.429 . S
C2323 H2345 0.950 . S
C2324 H2320 0.949 . S
C2324 C2332 1.574 1_545 S
C2324 C2340 1.368 . S
H2325 C2333 0.950 . S
H2326 C2331 0.950 . S
H2327 C2332 0.949 . S
H2328 C2334 0.950 . S
H2329 C2335 0.950 . S
H2330 C2336 0.949 . S
C2331 H2326 0.950 . S
C2331 C2333 1.327 . S
C2331 C2337 1.429 . S
C2332 C2324 1.574 1_565 S
C2332 H2327 0.949 . S
C2332 C2338 1.368 . S
C2333 C2317 1.349 . S
C2333 H2325 0.950 . S
C2333 C2331 1.327 . S
C2334 C2322 1.349 . S
C2334 H2328 0.950 . S
C2334 C2335 1.327 . S
C2335 H2329 0.950 . S
C2335 C2334 1.327 . S
C2335 C2339 1.429 . S
C2336 C2319 1.574 1_545 S
C2336 H2330 0.949 . S
C2336 C2340 1.368 . S
C2337 C2318 1.429 . S
C2337 C2331 1.429 . S
C2337 C2338 1.523 . S
C2338 C2319 1.368 . S
C2338 C2332 1.368 . S
C2338 C2337 1.523 . S
C2339 C2323 1.429 . S
C2339 C2335 1.429 . S
C2339 C2340 1.523 . S
C2340 C2324 1.368 . S
C2340 C2336 1.368 . S
C2340 C2339 1.523 . S
H2341 C2316 0.950 . S
H2342 C2318 0.950 . S
H2343 C2319 0.949 . S
H2344 C2321 0.950 . S
H2345 C2323 0.950 . S
C2346 C2347 1.349 . S
C2346 C2348 1.327 . S
C2346 H2371 0.950 . S
C2347 C2346 1.349 . S
C2347 C2363 1.349 . S
C2348 C2346 1.327 . S
C2348 C2367 1.429 . S
C2348 H2372 0.950 . S
C2349 C2366 1.574 1_655 S
C2349 C2368 1.368 . S
C2349 H2373 0.949 . S
H2350 C2354 0.949 . S
C2351 C2352 1.349 . S
C2351 C2353 1.327 . S
C2351 H2374 0.950 . S
C2352 C2351 1.349 . S
C2352 C2364 1.349 . S
C2353 C2351 1.327 . S
C2353 C2369 1.429 . S
C2353 H2375 0.950 . S
C2354 H2350 0.949 . S
C2354 C2362 1.574 1_455 S
C2354 C2370 1.368 . S
H2355 C2363 0.950 . S
H2356 C2361 0.950 . S
H2357 C2362 0.949 . S
H2358 C2364 0.950 . S
H2359 C2365 0.950 . S
H2360 C2366 0.949 . S
C2361 H2356 0.950 . S
C2361 C2363 1.327 . S
C2361 C2367 1.429 . S
C2362 C2354 1.574 1_655 S
C2362 H2357 0.949 . S
C2362 C2368 1.368 . S
C2363 C2347 1.349 . S
C2363 H2355 0.950 . S
C2363 C2361 1.327 . S
C2364 C2352 1.349 . S
C2364 H2358 0.950 . S
C2364 C2365 1.327 . S
C2365 H2359 0.950 . S
C2365 C2364 1.327 . S
C2365 C2369 1.429 . S
C2366 C2349 1.574 1_455 S
C2366 H2360 0.949 . S
C2366 C2370 1.368 . S
C2367 C2348 1.429 . S
C2367 C2361 1.429 . S
C2367 C2368 1.523 . S
C2368 C2349 1.368 . S
C2368 C2362 1.368 . S
C2368 C2367 1.523 . S
C2369 C2353 1.429 . S
C2369 C2365 1.429 . S
C2369 C2370 1.523 . S
C2370 C2354 1.368 . S
C2370 C2366 1.368 . S
C2370 C2369 1.523 . S
H2371 C2346 0.950 . S
H2372 C2348 0.950 . S
H2373 C2349 0.949 . S
H2374 C2351 0.950 . S
H2375 C2353 0.950 . S
C2376 C2377 1.349 . S
C2376 C2378 1.327 . S
C2376 H2401 0.950 . S
C2377 C2376 1.349 . S
C2377 C2393 1.349 . S
C2378 C2376 1.327 . S
C2378 C2397 1.429 . S
C2378 H2402 0.950 . S
C2379 C2396 1.574 1_556 S
C2379 C2398 1.368 . S
C2379 H2403 0.949 . S
H2380 C2384 0.949 . S
C2381 C2382 1.349 . S
C2381 C2383 1.327 . S
C2381 H2404 0.950 . S
C2382 C2381 1.349 . S
C2382 C2394 1.349 . S
C2383 C2381 1.327 . S
C2383 C2399 1.429 . S
C2383 H2405 0.950 . S
C2384 H2380 0.949 . S
C2384 C2392 1.574 1_554 S
C2384 C2400 1.368 . S
H2385 C2393 0.950 . S
H2386 C2391 0.950 . S
H2387 C2392 0.949 . S
H2388 C2394 0.950 . S
H2389 C2395 0.950 . S
H2390 C2396 0.949 . S
C2391 H2386 0.950 . S
C2391 C2393 1.327 . S
C2391 C2397 1.429 . S
C2392 C2384 1.574 1_556 S
C2392 H2387 0.949 . S
C2392 C2398 1.368 . S
C2393 C2377 1.349 . S
C2393 H2385 0.950 . S
C2393 C2391 1.327 . S
C2394 C2382 1.349 . S
C2394 H2388 0.950 . S
C2394 C2395 1.327 . S
C2395 H2389 0.950 . S
C2395 C2394 1.327 . S
C2395 C2399 1.429 . S
C2396 C2379 1.574 1_554 S
C2396 H2390 0.949 . S
C2396 C2400 1.368 . S
C2397 C2378 1.429 . S
C2397 C2391 1.429 . S
C2397 C2398 1.523 . S
C2398 C2379 1.368 . S
C2398 C2392 1.368 . S
C2398 C2397 1.523 . S
C2399 C2383 1.429 . S
C2399 C2395 1.429 . S
C2399 C2400 1.523 . S
C2400 C2384 1.368 . S
C2400 C2396 1.368 . S
C2400 C2399 1.523 . S
H2401 C2376 0.950 . S
H2402 C2378 0.950 . S
H2403 C2379 0.949 . S
H2404 C2381 0.950 . S
H2405 C2383 0.950 . S
C2406 C2407 1.349 . S
C2406 C2408 1.327 . S
C2406 H2431 0.950 . S
C2407 C2406 1.349 . S
C2407 C2423 1.349 . S
C2408 C2406 1.327 . S
C2408 C2427 1.429 . S
C2408 H2432 0.950 . S
C2409 C2426 1.574 1_556 S
C2409 C2428 1.368 . S
C2409 H2433 0.949 . S
H2410 C2414 0.949 . S
C2411 C2412 1.349 . S
C2411 C2413 1.327 . S
C2411 H2434 0.950 . S
C2412 C2411 1.349 . S
C2412 C2424 1.349 . S
C2413 C2411 1.327 . S
C2413 C2429 1.429 . S
C2413 H2435 0.950 . S
C2414 H2410 0.949 . S
C2414 C2422 1.574 1_554 S
C2414 C2430 1.368 . S
H2415 C2423 0.950 . S
H2416 C2421 0.950 . S
H2417 C2422 0.949 . S
H2418 C2424 0.950 . S
H2419 C2425 0.950 . S
H2420 C2426 0.949 . S
C2421 H2416 0.950 . S
C2421 C2423 1.327 . S
C2421 C2427 1.429 . S
C2422 C2414 1.574 1_556 S
C2422 H2417 0.949 . S
C2422 C2428 1.368 . S
C2423 C2407 1.349 . S
C2423 H2415 0.950 . S
C2423 C2421 1.327 . S
C2424 C2412 1.349 . S
C2424 H2418 0.950 . S
C2424 C2425 1.327 . S
C2425 H2419 0.950 . S
C2425 C2424 1.327 . S
C2425 C2429 1.429 . S
C2426 C2409 1.574 1_554 S
C2426 H2420 0.949 . S
C2426 C2430 1.368 . S
C2427 C2408 1.429 . S
C2427 C2421 1.429 . S
C2427 C2428 1.523 . S
C2428 C2409 1.368 . S
C2428 C2422 1.368 . S
C2428 C2427 1.523 . S
C2429 C2413 1.429 . S
C2429 C2425 1.429 . S
C2429 C2430 1.523 . S
C2430 C2414 1.368 . S
C2430 C2426 1.368 . S
C2430 C2429 1.523 . S
H2431 C2406 0.950 . S
H2432 C2408 0.950 . S
H2433 C2409 0.949 . S
H2434 C2411 0.950 . S
H2435 C2413 0.950 . S
C2436 C2437 1.349 . S
C2436 C2438 1.327 . S
C2436 H2461 0.950 . S
C2437 C2436 1.349 . S
C2437 C2453 1.349 . S
C2438 C2436 1.327 . S
C2438 C2457 1.429 . S
C2438 H2462 0.950 . S
C2439 C2456 1.574 1_556 S
C2439 C2458 1.368 . S
C2439 H2463 0.949 . S
H2440 C2444 0.949 . S
C2441 C2442 1.349 . S
C2441 C2443 1.327 . S
C2441 H2464 0.950 . S
C2442 C2441 1.349 . S
C2442 C2454 1.349 . S
C2443 C2441 1.327 . S
C2443 C2459 1.429 . S
C2443 H2465 0.950 . S
C2444 H2440 0.949 . S
C2444 C2452 1.574 1_554 S
C2444 C2460 1.368 . S
H2445 C2453 0.950 . S
H2446 C2451 0.950 . S
H2447 C2452 0.949 . S
H2448 C2454 0.950 . S
H2449 C2455 0.950 . S
H2450 C2456 0.949 . S
C2451 H2446 0.950 . S
C2451 C2453 1.327 . S
C2451 C2457 1.429 . S
C2452 C2444 1.574 1_556 S
C2452 H2447 0.949 . S
C2452 C2458 1.368 . S
C2453 C2437 1.349 . S
C2453 H2445 0.950 . S
C2453 C2451 1.327 . S
C2454 C2442 1.349 . S
C2454 H2448 0.950 . S
C2454 C2455 1.327 . S
C2455 H2449 0.950 . S
C2455 C2454 1.327 . S
C2455 C2459 1.429 . S
C2456 C2439 1.574 1_554 S
C2456 H2450 0.949 . S
C2456 C2460 1.368 . S
C2457 C2438 1.429 . S
C2457 C2451 1.429 . S
C2457 C2458 1.523 . S
C2458 C2439 1.368 . S
C2458 C2452 1.368 . S
C2458 C2457 1.523 . S
C2459 C2443 1.429 . S
C2459 C2455 1.429 . S
C2459 C2460 1.523 . S
C2460 C2444 1.368 . S
C2460 C2456 1.368 . S
C2460 C2459 1.523 . S
H2461 C2436 0.950 . S
H2462 C2438 0.950 . S
H2463 C2439 0.949 . S
H2464 C2441 0.950 . S
H2465 C2443 0.950 . S
C2466 C2467 1.349 . S
C2466 C2468 1.327 . S
C2466 H2491 0.950 . S
C2467 C2466 1.349 . S
C2467 C2483 1.349 . S
C2468 C2466 1.327 . S
C2468 C2487 1.429 . S
C2468 H2492 0.950 . S
C2469 C2486 1.574 1_556 S
C2469 C2488 1.368 . S
C2469 H2493 0.949 . S
H2470 C2474 0.949 . S
C2471 C2472 1.349 . S
C2471 C2473 1.327 . S
C2471 H2494 0.950 . S
C2472 C2471 1.349 . S
C2472 C2484 1.349 . S
C2473 C2471 1.327 . S
C2473 C2489 1.429 . S
C2473 H2495 0.950 . S
C2474 H2470 0.949 . S
C2474 C2482 1.574 1_554 S
C2474 C2490 1.368 . S
H2475 C2483 0.950 . S
H2476 C2481 0.950 . S
H2477 C2482 0.949 . S
H2478 C2484 0.950 . S
H2479 C2485 0.950 . S
H2480 C2486 0.949 . S
C2481 H2476 0.950 . S
C2481 C2483 1.327 . S
C2481 C2487 1.429 . S
C2482 C2474 1.574 1_556 S
C2482 H2477 0.949 . S
C2482 C2488 1.368 . S
C2483 C2467 1.349 . S
C2483 H2475 0.950 . S
C2483 C2481 1.327 . S
C2484 C2472 1.349 . S
C2484 H2478 0.950 . S
C2484 C2485 1.327 . S
C2485 H2479 0.950 . S
C2485 C2484 1.327 . S
C2485 C2489 1.429 . S
C2486 C2469 1.574 1_554 S
C2486 H2480 0.949 . S
C2486 C2490 1.368 . S
C2487 C2468 1.429 . S
C2487 C2481 1.429 . S
C2487 C2488 1.523 . S
C2488 C2469 1.368 . S
C2488 C2482 1.368 . S
C2488 C2487 1.523 . S
C2489 C2473 1.429 . S
C2489 C2485 1.429 . S
C2489 C2490 1.523 . S
C2490 C2474 1.368 . S
C2490 C2486 1.368 . S
C2490 C2489 1.523 . S
H2491 C2466 0.950 . S
H2492 C2468 0.950 . S
H2493 C2469 0.949 . S
H2494 C2471 0.950 . S
H2495 C2473 0.950 . S
C2496 C2497 1.349 . S
C2496 C2498 1.327 . S
C2496 H2521 0.950 . S
C2497 C2496 1.349 . S
C2497 C2513 1.349 . S
C2498 C2496 1.327 . S
C2498 C2517 1.429 . S
C2498 H2522 0.950 . S
C2499 C2516 1.574 . S
C2499 C2518 1.368 . S
C2499 H2523 0.949 . S
H2500 C2504 0.949 . S
C2501 C2502 1.349 . S
C2501 C2503 1.327 . S
C2501 H2524 0.950 . S
C2502 C2501 1.349 . S
C2502 C2514 1.349 . S
C2503 C2501 1.327 . S
C2503 C2519 1.429 . S
C2503 H2525 0.950 . S
C2504 H2500 0.949 . S
C2504 C2512 1.574 . S
C2504 C2520 1.368 . S
H2505 C2513 0.950 . S
H2506 C2511 0.950 . S
H2507 C2512 0.949 . S
H2508 C2514 0.950 . S
H2509 C2515 0.950 . S
H2510 C2516 0.949 . S
C2511 H2506 0.950 . S
C2511 C2513 1.327 . S
C2511 C2517 1.429 . S
C2512 C2504 1.574 . S
C2512 H2507 0.949 . S
C2512 C2518 1.368 . S
C2513 C2497 1.349 . S
C2513 H2505 0.950 . S
C2513 C2511 1.327 . S
C2514 C2502 1.349 . S
C2514 H2508 0.950 . S
C2514 C2515 1.327 . S
C2515 H2509 0.950 . S
C2515 C2514 1.327 . S
C2515 C2519 1.429 . S
C2516 C2499 1.574 . S
C2516 H2510 0.949 . S
C2516 C2520 1.368 . S
C2517 C2498 1.429 . S
C2517 C2511 1.429 . S
C2517 C2518 1.523 . S
C2518 C2499 1.368 . S
C2518 C2512 1.368 . S
C2518 C2517 1.523 . S
C2519 C2503 1.429 . S
C2519 C2515 1.429 . S
C2519 C2520 1.523 . S
C2520 C2504 1.368 . S
C2520 C2516 1.368 . S
C2520 C2519 1.523 . S
H2521 C2496 0.950 . S
H2522 C2498 0.950 . S
H2523 C2499 0.949 . S
H2524 C2501 0.950 . S
H2525 C2503 0.950 . S
C2526 C2527 1.349 . S
C2526 C2528 1.327 . S
C2526 H2551 0.950 . S
C2527 C2526 1.349 . S
C2527 C2543 1.349 . S
C2528 C2526 1.327 . S
C2528 C2547 1.429 . S
C2528 H2552 0.950 . S
C2529 C2546 1.574 . S
C2529 C2548 1.368 . S
C2529 H2553 0.949 . S
H2530 C2534 0.949 . S
C2531 C2532 1.349 . S
C2531 C2533 1.327 . S
C2531 H2554 0.950 . S
C2532 C2531 1.349 . S
C2532 C2544 1.349 . S
C2533 C2531 1.327 . S
C2533 C2549 1.429 . S
C2533 H2555 0.950 . S
C2534 H2530 0.949 . S
C2534 C2542 1.574 . S
C2534 C2550 1.368 . S
H2535 C2543 0.950 . S
H2536 C2541 0.950 . S
H2537 C2542 0.949 . S
H2538 C2544 0.950 . S
H2539 C2545 0.950 . S
H2540 C2546 0.949 . S
C2541 H2536 0.950 . S
C2541 C2543 1.327 . S
C2541 C2547 1.429 . S
C2542 C2534 1.574 . S
C2542 H2537 0.949 . S
C2542 C2548 1.368 . S
C2543 C2527 1.349 . S
C2543 H2535 0.950 . S
C2543 C2541 1.327 . S
C2544 C2532 1.349 . S
C2544 H2538 0.950 . S
C2544 C2545 1.327 . S
C2545 H2539 0.950 . S
C2545 C2544 1.327 . S
C2545 C2549 1.429 . S
C2546 C2529 1.574 . S
C2546 H2540 0.949 . S
C2546 C2550 1.368 . S
C2547 C2528 1.429 . S
C2547 C2541 1.429 . S
C2547 C2548 1.523 . S
C2548 C2529 1.368 . S
C2548 C2542 1.368 . S
C2548 C2547 1.523 . S
C2549 C2533 1.429 . S
C2549 C2545 1.429 . S
C2549 C2550 1.523 . S
C2550 C2534 1.368 . S
C2550 C2546 1.368 . S
C2550 C2549 1.523 . S
H2551 C2526 0.950 . S
H2552 C2528 0.950 . S
H2553 C2529 0.949 . S
H2554 C2531 0.950 . S
H2555 C2533 0.950 . S
C2556 C2557 1.349 . S
C2556 C2558 1.327 . S
C2556 H2581 0.950 . S
C2557 C2556 1.349 . S
C2557 C2573 1.349 . S
C2558 C2556 1.327 . S
C2558 C2577 1.429 . S
C2558 H2582 0.950 . S
C2559 C2576 1.574 . S
C2559 C2578 1.368 . S
C2559 H2583 0.949 . S
H2560 C2564 0.949 . S
C2561 C2562 1.349 . S
C2561 C2563 1.327 . S
C2561 H2584 0.950 . S
C2562 C2561 1.349 . S
C2562 C2574 1.349 . S
C2563 C2561 1.327 . S
C2563 C2579 1.429 . S
C2563 H2585 0.950 . S
C2564 H2560 0.949 . S
C2564 C2572 1.574 . S
C2564 C2580 1.368 . S
H2565 C2573 0.950 . S
H2566 C2571 0.950 . S
H2567 C2572 0.949 . S
H2568 C2574 0.950 . S
H2569 C2575 0.950 . S
H2570 C2576 0.949 . S
C2571 H2566 0.950 . S
C2571 C2573 1.327 . S
C2571 C2577 1.429 . S
C2572 C2564 1.574 . S
C2572 H2567 0.949 . S
C2572 C2578 1.368 . S
C2573 C2557 1.349 . S
C2573 H2565 0.950 . S
C2573 C2571 1.327 . S
C2574 C2562 1.349 . S
C2574 H2568 0.950 . S
C2574 C2575 1.327 . S
C2575 H2569 0.950 . S
C2575 C2574 1.327 . S
C2575 C2579 1.429 . S
C2576 C2559 1.574 . S
C2576 H2570 0.949 . S
C2576 C2580 1.368 . S
C2577 C2558 1.429 . S
C2577 C2571 1.429 . S
C2577 C2578 1.523 . S
C2578 C2559 1.368 . S
C2578 C2572 1.368 . S
C2578 C2577 1.523 . S
C2579 C2563 1.429 . S
C2579 C2575 1.429 . S
C2579 C2580 1.523 . S
C2580 C2564 1.368 . S
C2580 C2576 1.368 . S
C2580 C2579 1.523 . S
H2581 C2556 0.950 . S
H2582 C2558 0.950 . S
H2583 C2559 0.949 . S
H2584 C2561 0.950 . S
H2585 C2563 0.950 . S
C2586 C2587 1.349 . S
C2586 C2588 1.327 . S
C2586 H2611 0.950 . S
C2587 C2586 1.349 . S
C2587 C2603 1.349 . S
C2588 C2586 1.327 . S
C2588 C2607 1.429 . S
C2588 H2612 0.950 . S
C2589 C2606 1.574 . S
C2589 C2608 1.368 . S
C2589 H2613 0.949 . S
H2590 C2594 0.949 . S
C2591 C2592 1.349 . S
C2591 C2593 1.327 . S
C2591 H2614 0.950 . S
C2592 C2591 1.349 . S
C2592 C2604 1.349 . S
C2593 C2591 1.327 . S
C2593 C2609 1.429 . S
C2593 H2615 0.950 . S
C2594 H2590 0.949 . S
C2594 C2602 1.574 . S
C2594 C2610 1.368 . S
H2595 C2603 0.950 . S
H2596 C2601 0.950 . S
H2597 C2602 0.949 . S
H2598 C2604 0.950 . S
H2599 C2605 0.950 . S
H2600 C2606 0.949 . S
C2601 H2596 0.950 . S
C2601 C2603 1.327 . S
C2601 C2607 1.429 . S
C2602 C2594 1.574 . S
C2602 H2597 0.949 . S
C2602 C2608 1.368 . S
C2603 C2587 1.349 . S
C2603 H2595 0.950 . S
C2603 C2601 1.327 . S
C2604 C2592 1.349 . S
C2604 H2598 0.950 . S
C2604 C2605 1.327 . S
C2605 H2599 0.950 . S
C2605 C2604 1.327 . S
C2605 C2609 1.429 . S
C2606 C2589 1.574 . S
C2606 H2600 0.949 . S
C2606 C2610 1.368 . S
C2607 C2588 1.429 . S
C2607 C2601 1.429 . S
C2607 C2608 1.523 . S
C2608 C2589 1.368 . S
C2608 C2602 1.368 . S
C2608 C2607 1.523 . S
C2609 C2593 1.429 . S
C2609 C2605 1.429 . S
C2609 C2610 1.523 . S
C2610 C2594 1.368 . S
C2610 C2606 1.368 . S
C2610 C2609 1.523 . S
H2611 C2586 0.950 . S
H2612 C2588 0.950 . S
H2613 C2589 0.949 . S
H2614 C2591 0.950 . S
H2615 C2593 0.950 . S
C2616 C2617 1.349 . S
C2616 C2618 1.327 . S
C2616 H2641 0.950 . S
C2617 C2616 1.349 . S
C2617 C2633 1.349 . S
C2618 C2616 1.327 . S
C2618 C2637 1.429 . S
C2618 H2642 0.950 . S
C2619 C2636 1.574 . S
C2619 C2638 1.368 . S
C2619 H2643 0.949 . S
H2620 C2624 0.949 . S
C2621 C2622 1.349 . S
C2621 C2623 1.327 . S
C2621 H2644 0.950 . S
C2622 C2621 1.349 . S
C2622 C2634 1.349 . S
C2623 C2621 1.327 . S
C2623 C2639 1.429 . S
C2623 H2645 0.950 . S
C2624 H2620 0.949 . S
C2624 C2632 1.574 . S
C2624 C2640 1.368 . S
H2625 C2633 0.950 . S
H2626 C2631 0.950 . S
H2627 C2632 0.949 . S
H2628 C2634 0.950 . S
H2629 C2635 0.950 . S
H2630 C2636 0.949 . S
C2631 H2626 0.950 . S
C2631 C2633 1.327 . S
C2631 C2637 1.429 . S
C2632 C2624 1.574 . S
C2632 H2627 0.949 . S
C2632 C2638 1.368 . S
C2633 C2617 1.349 . S
C2633 H2625 0.950 . S
C2633 C2631 1.327 . S
C2634 C2622 1.349 . S
C2634 H2628 0.950 . S
C2634 C2635 1.327 . S
C2635 H2629 0.950 . S
C2635 C2634 1.327 . S
C2635 C2639 1.429 . S
C2636 C2619 1.574 . S
C2636 H2630 0.949 . S
C2636 C2640 1.368 . S
C2637 C2618 1.429 . S
C2637 C2631 1.429 . S
C2637 C2638 1.523 . S
C2638 C2619 1.368 . S
C2638 C2632 1.368 . S
C2638 C2637 1.523 . S
C2639 C2623 1.429 . S
C2639 C2635 1.429 . S
C2639 C2640 1.523 . S
C2640 C2624 1.368 . S
C2640 C2636 1.368 . S
C2640 C2639 1.523 . S
H2641 C2616 0.950 . S
H2642 C2618 0.950 . S
H2643 C2619 0.949 . S
H2644 C2621 0.950 . S
H2645 C2623 0.950 . S
C2646 C2647 1.349 . S
C2646 C2648 1.327 . S
C2646 H2671 0.950 . S
C2647 C2646 1.349 . S
C2647 C2663 1.349 . S
C2648 C2646 1.327 . S
C2648 C2667 1.429 . S
C2648 H2672 0.950 . S
C2649 C2666 1.574 . S
C2649 C2668 1.368 . S
C2649 H2673 0.949 . S
H2650 C2654 0.949 . S
C2651 C2652 1.349 . S
C2651 C2653 1.327 . S
C2651 H2674 0.950 . S
C2652 C2651 1.349 . S
C2652 C2664 1.349 . S
C2653 C2651 1.327 . S
C2653 C2669 1.429 . S
C2653 H2675 0.950 . S
C2654 H2650 0.949 . S
C2654 C2662 1.574 . S
C2654 C2670 1.368 . S
H2655 C2663 0.950 . S
H2656 C2661 0.950 . S
H2657 C2662 0.949 . S
H2658 C2664 0.950 . S
H2659 C2665 0.950 . S
H2660 C2666 0.949 . S
C2661 H2656 0.950 . S
C2661 C2663 1.327 . S
C2661 C2667 1.429 . S
C2662 C2654 1.574 . S
C2662 H2657 0.949 . S
C2662 C2668 1.368 . S
C2663 C2647 1.349 . S
C2663 H2655 0.950 . S
C2663 C2661 1.327 . S
C2664 C2652 1.349 . S
C2664 H2658 0.950 . S
C2664 C2665 1.327 . S
C2665 H2659 0.950 . S
C2665 C2664 1.327 . S
C2665 C2669 1.429 . S
C2666 C2649 1.574 . S
C2666 H2660 0.949 . S
C2666 C2670 1.368 . S
C2667 C2648 1.429 . S
C2667 C2661 1.429 . S
C2667 C2668 1.523 . S
C2668 C2649 1.368 . S
C2668 C2662 1.368 . S
C2668 C2667 1.523 . S
C2669 C2653 1.429 . S
C2669 C2665 1.429 . S
C2669 C2670 1.523 . S
C2670 C2654 1.368 . S
C2670 C2666 1.368 . S
C2670 C2669 1.523 . S
H2671 C2646 0.950 . S
H2672 C2648 0.950 . S
H2673 C2649 0.949 . S
H2674 C2651 0.950 . S
H2675 C2653 0.950 . S
C2676 C2677 1.349 . S
C2676 C2678 1.327 . S
C2676 H2701 0.950 . S
C2677 C2676 1.349 . S
C2677 C2693 1.349 . S
C2678 C2676 1.327 . S
C2678 C2697 1.429 . S
C2678 H2702 0.950 . S
C2679 C2696 1.574 . S
C2679 C2698 1.368 . S
C2679 H2703 0.949 . S
H2680 C2684 0.949 . S
C2681 C2682 1.349 . S
C2681 C2683 1.327 . S
C2681 H2704 0.950 . S
C2682 C2681 1.349 . S
C2682 C2694 1.349 . S
C2683 C2681 1.327 . S
C2683 C2699 1.429 . S
C2683 H2705 0.950 . S
C2684 H2680 0.949 . S
C2684 C2692 1.574 . S
C2684 C2700 1.368 . S
H2685 C2693 0.950 . S
H2686 C2691 0.950 . S
H2687 C2692 0.949 . S
H2688 C2694 0.950 . S
H2689 C2695 0.950 . S
H2690 C2696 0.949 . S
C2691 H2686 0.950 . S
C2691 C2693 1.327 . S
C2691 C2697 1.429 . S
C2692 C2684 1.574 . S
C2692 H2687 0.949 . S
C2692 C2698 1.368 . S
C2693 C2677 1.349 . S
C2693 H2685 0.950 . S
C2693 C2691 1.327 . S
C2694 C2682 1.349 . S
C2694 H2688 0.950 . S
C2694 C2695 1.327 . S
C2695 H2689 0.950 . S
C2695 C2694 1.327 . S
C2695 C2699 1.429 . S
C2696 C2679 1.574 . S
C2696 H2690 0.949 . S
C2696 C2700 1.368 . S
C2697 C2678 1.429 . S
C2697 C2691 1.429 . S
C2697 C2698 1.523 . S
C2698 C2679 1.368 . S
C2698 C2692 1.368 . S
C2698 C2697 1.523 . S
C2699 C2683 1.429 . S
C2699 C2695 1.429 . S
C2699 C2700 1.523 . S
C2700 C2684 1.368 . S
C2700 C2696 1.368 . S
C2700 C2699 1.523 . S
H2701 C2676 0.950 . S
H2702 C2678 0.950 . S
H2703 C2679 0.949 . S
H2704 C2681 0.950 . S
H2705 C2683 0.950 . S
C2706 C2707 1.349 . S
C2706 C2708 1.327 . S
C2706 H2731 0.950 . S
C2707 C2706 1.349 . S
C2707 C2723 1.349 . S
C2708 C2706 1.327 . S
C2708 C2727 1.429 . S
C2708 H2732 0.950 . S
C2709 C2726 1.574 . S
C2709 C2728 1.368 . S
C2709 H2733 0.949 . S
H2710 C2714 0.949 . S
C2711 C2712 1.349 . S
C2711 C2713 1.327 . S
C2711 H2734 0.950 . S
C2712 C2711 1.349 . S
C2712 C2724 1.349 . S
C2713 C2711 1.327 . S
C2713 C2729 1.429 . S
C2713 H2735 0.950 . S
C2714 H2710 0.949 . S
C2714 C2722 1.574 . S
C2714 C2730 1.368 . S
H2715 C2723 0.950 . S
H2716 C2721 0.950 . S
H2717 C2722 0.949 . S
H2718 C2724 0.950 . S
H2719 C2725 0.950 . S
H2720 C2726 0.949 . S
C2721 H2716 0.950 . S
C2721 C2723 1.327 . S
C2721 C2727 1.429 . S
C2722 C2714 1.574 . S
C2722 H2717 0.949 . S
C2722 C2728 1.368 . S
C2723 C2707 1.349 . S
C2723 H2715 0.950 . S
C2723 C2721 1.327 . S
C2724 C2712 1.349 . S
C2724 H2718 0.950 . S
C2724 C2725 1.327 . S
C2725 H2719 0.950 . S
C2725 C2724 1.327 . S
C2725 C2729 1.429 . S
C2726 C2709 1.574 . S
C2726 H2720 0.949 . S
C2726 C2730 1.368 . S
C2727 C2708 1.429 . S
C2727 C2721 1.429 . S
C2727 C2728 1.523 . S
C2728 C2709 1.368 . S
C2728 C2722 1.368 . S
C2728 C2727 1.523 . S
C2729 C2713 1.429 . S
C2729 C2725 1.429 . S
C2729 C2730 1.523 . S
C2730 C2714 1.368 . S
C2730 C2726 1.368 . S
C2730 C2729 1.523 . S
H2731 C2706 0.950 . S
H2732 C2708 0.950 . S
H2733 C2709 0.949 . S
H2734 C2711 0.950 . S
H2735 C2713 0.950 . S
C2736 C2737 1.349 . S
C2736 C2738 1.327 . S
C2736 H2761 0.950 . S
C2737 C2736 1.349 . S
C2737 C2753 1.349 . S
C2738 C2736 1.327 . S
C2738 C2757 1.429 . S
C2738 H2762 0.950 . S
C2739 C2756 1.574 . S
C2739 C2758 1.368 . S
C2739 H2763 0.949 . S
H2740 C2744 0.949 . S
C2741 C2742 1.349 . S
C2741 C2743 1.327 . S
C2741 H2764 0.950 . S
C2742 C2741 1.349 . S
C2742 C2754 1.349 . S
C2743 C2741 1.327 . S
C2743 C2759 1.429 . S
C2743 H2765 0.950 . S
C2744 H2740 0.949 . S
C2744 C2752 1.574 . S
C2744 C2760 1.368 . S
H2745 C2753 0.950 . S
H2746 C2751 0.950 . S
H2747 C2752 0.949 . S
H2748 C2754 0.950 . S
H2749 C2755 0.950 . S
H2750 C2756 0.949 . S
C2751 H2746 0.950 . S
C2751 C2753 1.327 . S
C2751 C2757 1.429 . S
C2752 C2744 1.574 . S
C2752 H2747 0.949 . S
C2752 C2758 1.368 . S
C2753 C2737 1.349 . S
C2753 H2745 0.950 . S
C2753 C2751 1.327 . S
C2754 C2742 1.349 . S
C2754 H2748 0.950 . S
C2754 C2755 1.327 . S
C2755 H2749 0.950 . S
C2755 C2754 1.327 . S
C2755 C2759 1.429 . S
C2756 C2739 1.574 . S
C2756 H2750 0.949 . S
C2756 C2760 1.368 . S
C2757 C2738 1.429 . S
C2757 C2751 1.429 . S
C2757 C2758 1.523 . S
C2758 C2739 1.368 . S
C2758 C2752 1.368 . S
C2758 C2757 1.523 . S
C2759 C2743 1.429 . S
C2759 C2755 1.429 . S
C2759 C2760 1.523 . S
C2760 C2744 1.368 . S
C2760 C2756 1.368 . S
C2760 C2759 1.523 . S
H2761 C2736 0.950 . S
H2762 C2738 0.950 . S
H2763 C2739 0.949 . S
H2764 C2741 0.950 . S
H2765 C2743 0.950 . S
C2766 C2767 1.349 . S
C2766 C2768 1.327 . S
C2766 H2791 0.950 . S
C2767 C2766 1.349 . S
C2767 C2783 1.349 . S
C2768 C2766 1.327 . S
C2768 C2787 1.429 . S
C2768 H2792 0.950 . S
C2769 C2786 1.574 . S
C2769 C2788 1.368 . S
C2769 H2793 0.949 . S
H2770 C2774 0.949 . S
C2771 C2772 1.349 . S
C2771 C2773 1.327 . S
C2771 H2794 0.950 . S
C2772 C2771 1.349 . S
C2772 C2784 1.349 . S
C2773 C2771 1.327 . S
C2773 C2789 1.429 . S
C2773 H2795 0.950 . S
C2774 H2770 0.949 . S
C2774 C2782 1.574 . S
C2774 C2790 1.368 . S
H2775 C2783 0.950 . S
H2776 C2781 0.950 . S
H2777 C2782 0.949 . S
H2778 C2784 0.950 . S
H2779 C2785 0.950 . S
H2780 C2786 0.949 . S
C2781 H2776 0.950 . S
C2781 C2783 1.327 . S
C2781 C2787 1.429 . S
C2782 C2774 1.574 . S
C2782 H2777 0.949 . S
C2782 C2788 1.368 . S
C2783 C2767 1.349 . S
C2783 H2775 0.950 . S
C2783 C2781 1.327 . S
C2784 C2772 1.349 . S
C2784 H2778 0.950 . S
C2784 C2785 1.327 . S
C2785 H2779 0.950 . S
C2785 C2784 1.327 . S
C2785 C2789 1.429 . S
C2786 C2769 1.574 . S
C2786 H2780 0.949 . S
C2786 C2790 1.368 . S
C2787 C2768 1.429 . S
C2787 C2781 1.429 . S
C2787 C2788 1.523 . S
C2788 C2769 1.368 . S
C2788 C2782 1.368 . S
C2788 C2787 1.523 . S
C2789 C2773 1.429 . S
C2789 C2785 1.429 . S
C2789 C2790 1.523 . S
C2790 C2774 1.368 . S
C2790 C2786 1.368 . S
C2790 C2789 1.523 . S
H2791 C2766 0.950 . S
H2792 C2768 0.950 . S
H2793 C2769 0.949 . S
H2794 C2771 0.950 . S
H2795 C2773 0.950 . S
C2796 C2797 1.349 . S
C2796 C2798 1.327 . S
C2796 H2821 0.950 . S
C2797 C2796 1.349 . S
C2797 C2813 1.349 . S
C2798 C2796 1.327 . S
C2798 C2817 1.429 . S
C2798 H2822 0.950 . S
C2799 C2816 1.574 . S
C2799 C2818 1.368 . S
C2799 H2823 0.949 . S
H2800 C2804 0.949 . S
C2801 C2802 1.349 . S
C2801 C2803 1.327 . S
C2801 H2824 0.950 . S
C2802 C2801 1.349 . S
C2802 C2814 1.349 . S
C2803 C2801 1.327 . S
C2803 C2819 1.429 . S
C2803 H2825 0.950 . S
C2804 H2800 0.949 . S
C2804 C2812 1.574 . S
C2804 C2820 1.368 . S
H2805 C2813 0.950 . S
H2806 C2811 0.950 . S
H2807 C2812 0.949 . S
H2808 C2814 0.950 . S
H2809 C2815 0.950 . S
H2810 C2816 0.949 . S
C2811 H2806 0.950 . S
C2811 C2813 1.327 . S
C2811 C2817 1.429 . S
C2812 C2804 1.574 . S
C2812 H2807 0.949 . S
C2812 C2818 1.368 . S
C2813 C2797 1.349 . S
C2813 H2805 0.950 . S
C2813 C2811 1.327 . S
C2814 C2802 1.349 . S
C2814 H2808 0.950 . S
C2814 C2815 1.327 . S
C2815 H2809 0.950 . S
C2815 C2814 1.327 . S
C2815 C2819 1.429 . S
C2816 C2799 1.574 . S
C2816 H2810 0.949 . S
C2816 C2820 1.368 . S
C2817 C2798 1.429 . S
C2817 C2811 1.429 . S
C2817 C2818 1.523 . S
C2818 C2799 1.368 . S
C2818 C2812 1.368 . S
C2818 C2817 1.523 . S
C2819 C2803 1.429 . S
C2819 C2815 1.429 . S
C2819 C2820 1.523 . S
C2820 C2804 1.368 . S
C2820 C2816 1.368 . S
C2820 C2819 1.523 . S
H2821 C2796 0.950 . S
H2822 C2798 0.950 . S
H2823 C2799 0.949 . S
H2824 C2801 0.950 . S
H2825 C2803 0.950 . S
C2826 C2827 1.349 . S
C2826 C2828 1.327 . S
C2826 H2851 0.950 . S
C2827 C2826 1.349 . S
C2827 C2843 1.349 . S
C2828 C2826 1.327 . S
C2828 C2847 1.429 . S
C2828 H2852 0.950 . S
C2829 C2846 1.574 . S
C2829 C2848 1.368 . S
C2829 H2853 0.949 . S
H2830 C2834 0.949 . S
C2831 C2832 1.349 . S
C2831 C2833 1.327 . S
C2831 H2854 0.950 . S
C2832 C2831 1.349 . S
C2832 C2844 1.349 . S
C2833 C2831 1.327 . S
C2833 C2849 1.429 . S
C2833 H2855 0.950 . S
C2834 H2830 0.949 . S
C2834 C2842 1.574 . S
C2834 C2850 1.368 . S
H2835 C2843 0.950 . S
H2836 C2841 0.950 . S
H2837 C2842 0.949 . S
H2838 C2844 0.950 . S
H2839 C2845 0.950 . S
H2840 C2846 0.949 . S
C2841 H2836 0.950 . S
C2841 C2843 1.327 . S
C2841 C2847 1.429 . S
C2842 C2834 1.574 . S
C2842 H2837 0.949 . S
C2842 C2848 1.368 . S
C2843 C2827 1.349 . S
C2843 H2835 0.950 . S
C2843 C2841 1.327 . S
C2844 C2832 1.349 . S
C2844 H2838 0.950 . S
C2844 C2845 1.327 . S
C2845 H2839 0.950 . S
C2845 C2844 1.327 . S
C2845 C2849 1.429 . S
C2846 C2829 1.574 . S
C2846 H2840 0.949 . S
C2846 C2850 1.368 . S
C2847 C2828 1.429 . S
C2847 C2841 1.429 . S
C2847 C2848 1.523 . S
C2848 C2829 1.368 . S
C2848 C2842 1.368 . S
C2848 C2847 1.523 . S
C2849 C2833 1.429 . S
C2849 C2845 1.429 . S
C2849 C2850 1.523 . S
C2850 C2834 1.368 . S
C2850 C2846 1.368 . S
C2850 C2849 1.523 . S
H2851 C2826 0.950 . S
H2852 C2828 0.950 . S
H2853 C2829 0.949 . S
H2854 C2831 0.950 . S
H2855 C2833 0.950 . S
C1417 C682 1.496 . S
C1422 C3 1.443 . S
C1447 C62 1.443 . S
C1452 C505 1.496 . S
C1477 C121 1.443 . S
C1482 C564 1.496 . S
C1507 C180 1.443 . S
C1512 C623 1.496 . S
C1537 C800 1.496 . S
C1542 C239 1.443 . S
C1567 C298 1.443 . S
C1572 C859 1.496 . S
C1597 C918 1.496 . S
C1602 C357 1.443 . S
C1627 C741 1.496 . S
C1632 C416 1.443 . S
C1657 C328 1.496 . S
C1662 C475 1.443 . S
C1687 C387 1.496 . S
C1692 C534 1.443 . S
C1717 C593 1.443 . S
C1722 C446 1.496 . S
C1747 C269 1.496 . S
C1752 C652 1.443 . S
C1777 C210 1.496 . S
C1782 C711 1.443 . S
C1807 C770 1.443 . S
C1812 C33 1.496 . S
C1837 C829 1.443 . S
C1842 C92 1.496 . S
C1867 C888 1.443 . S
C1872 C151 1.496 . S
C1897 C947 1.443 . S
C1902 C1390 1.496 . S
C1927 C1213 1.496 . S
C1932 C1006 1.443 . S
C1957 C1065 1.443 . S
C1962 C1036 1.496 . S
C1987 C1124 1.443 . S
C1992 C1095 1.496 . S
C2017 C1154 1.496 . S
C2022 C1183 1.443 . S
C2047 C1242 1.443 . S
C2052 C1331 1.496 . S
C2077 C977 1.496 . S
C2082 C1301 1.443 . S
C2107 C1272 1.496 . S
C2112 C1360 1.443 . S
C2137 C52 1.685 . S
C2142 C406 1.685 . S
C2167 C111 1.685 . S
C2172 C465 1.685 . S
C2197 C170 1.685 . S
C2202 C288 1.685 . S
C2227 C347 1.685 . S
C2232 C229 1.685 . S
C2257 C642 1.685 . S
C2262 C524 1.685 . S
C2287 C583 1.685 . S
C2292 C701 1.685 . S
C2317 C760 1.685 . S
C2322 C878 1.685 . S
C2347 C937 1.685 . S
C2352 C819 1.685 . S
C2377 C1055 1.685 . S
C2382 C996 1.685 . S
C2407 C1114 1.685 . S
C2412 C1409 1.685 . S
C2437 C1173 1.685 . S
C2442 C1291 1.685 . S
C2467 C1232 1.685 . S
C2472 C1350 1.685 . S
C2497 C5 1.031 . S
C2502 C300 1.031 . S
C2527 C64 1.031 . S
C2532 C359 1.031 . S
C2557 C123 1.031 . S
C2562 C418 1.031 . S
C2587 C241 1.031 . S
C2592 C182 1.031 . S
C2617 C477 1.031 . S
C2622 C1362 1.031 . S
C2647 C536 1.031 . S
C2652 C1244 1.031 . S
C2677 C1303 1.031 . S
C2682 C595 1.031 . S
C2707 C654 1.031 . S
C2712 C949 1.031 . S
C2737 C1185 1.031 . S
C2742 C713 1.031 . S
C2767 C1008 1.031 . S
C2772 C772 1.031 . S
C2797 C831 1.031 . S
C2802 C1067 1.031 . S
C2827 C1126 1.031 . S
C2832 C890 1.031 . S
