# Generated by pormake.
# Topology lcy-a-x, (5)-cn, num edge types: 1
# Building blocks:
#     Node 0, Type 0, BuildingBlock: XOMCOT_clean_sbu_1, # of connection points: 5
#     Node 1, Type 0, BuildingBlock: XOMCOT_clean_sbu_1, # of connection points: 5
#     Node 2, Type 0, BuildingBlock: XOMCOT_clean_sbu_1, # of connection points: 5
#     Node 3, Type 0, BuildingBlock: XOMCOT_clean_sbu_1, # of connection points: 5
#     Node 4, Type 0, BuildingBlock: XOMCOT_clean_sbu_1, # of connection points: 5
#     Node 5, Type 0, BuildingBlock: XOMCOT_clean_sbu_1, # of connection points: 5
#     Node 6, Type 0, BuildingBlock: XOMCOT_clean_sbu_1, # of connection points: 5
#     Node 7, Type 0, BuildingBlock: XOMCOT_clean_sbu_1, # of connection points: 5
#     Node 8, Type 0, BuildingBlock: XOMCOT_clean_sbu_1, # of connection points: 5
#     Node 9, Type 0, BuildingBlock: XOMCOT_clean_sbu_1, # of connection points: 5
#     Node 10, Type 0, BuildingBlock: XOMCOT_clean_sbu_1, # of connection points: 5
#     Node 11, Type 0, BuildingBlock: XOMCOT_clean_sbu_1, # of connection points: 5
#     Node 12, Type 0, BuildingBlock: XOMCOT_clean_sbu_1, # of connection points: 5
#     Node 13, Type 0, BuildingBlock: XOMCOT_clean_sbu_1, # of connection points: 5
#     Node 14, Type 0, BuildingBlock: XOMCOT_clean_sbu_1, # of connection points: 5
#     Node 15, Type 0, BuildingBlock: XOMCOT_clean_sbu_1, # of connection points: 5
#     Node 16, Type 0, BuildingBlock: XOMCOT_clean_sbu_1, # of connection points: 5
#     Node 17, Type 0, BuildingBlock: XOMCOT_clean_sbu_1, # of connection points: 5
#     Node 18, Type 0, BuildingBlock: XOMCOT_clean_sbu_1, # of connection points: 5
#     Node 19, Type 0, BuildingBlock: XOMCOT_clean_sbu_1, # of connection points: 5
#     Node 20, Type 0, BuildingBlock: XOMCOT_clean_sbu_1, # of connection points: 5
#     Node 21, Type 0, BuildingBlock: XOMCOT_clean_sbu_1, # of connection points: 5
#     Node 22, Type 0, BuildingBlock: XOMCOT_clean_sbu_1, # of connection points: 5
#     Node 23, Type 0, BuildingBlock: XOMCOT_clean_sbu_1, # of connection points: 5
#     Edge 24, Type (0, 0), BuildingBlock: XUDNAN_clean_linker_2, # of connection points: 2
#     Edge 25, Type (0, 0), BuildingBlock: XUDNAN_clean_linker_2, # of connection points: 2
#     Edge 26, Type (0, 0), BuildingBlock: XUDNAN_clean_linker_2, # of connection points: 2
#     Edge 27, Type (0, 0), BuildingBlock: XUDNAN_clean_linker_2, # of connection points: 2
#     Edge 28, Type (0, 0), BuildingBlock: XUDNAN_clean_linker_2, # of connection points: 2
#     Edge 29, Type (0, 0), BuildingBlock: XUDNAN_clean_linker_2, # of connection points: 2
#     Edge 30, Type (0, 0), BuildingBlock: XUDNAN_clean_linker_2, # of connection points: 2
#     Edge 31, Type (0, 0), BuildingBlock: XUDNAN_clean_linker_2, # of connection points: 2
#     Edge 32, Type (0, 0), BuildingBlock: XUDNAN_clean_linker_2, # of connection points: 2
#     Edge 33, Type (0, 0), BuildingBlock: XUDNAN_clean_linker_2, # of connection points: 2
#     Edge 34, Type (0, 0), BuildingBlock: XUDNAN_clean_linker_2, # of connection points: 2
#     Edge 35, Type (0, 0), BuildingBlock: XUDNAN_clean_linker_2, # of connection points: 2
#     Edge 36, Type (0, 0), BuildingBlock: XUDNAN_clean_linker_2, # of connection points: 2
#     Edge 37, Type (0, 0), BuildingBlock: XUDNAN_clean_linker_2, # of connection points: 2
#     Edge 38, Type (0, 0), BuildingBlock: XUDNAN_clean_linker_2, # of connection points: 2
#     Edge 39, Type (0, 0), BuildingBlock: XUDNAN_clean_linker_2, # of connection points: 2
#     Edge 40, Type (0, 0), BuildingBlock: XUDNAN_clean_linker_2, # of connection points: 2
#     Edge 41, Type (0, 0), BuildingBlock: XUDNAN_clean_linker_2, # of connection points: 2
#     Edge 42, Type (0, 0), BuildingBlock: XUDNAN_clean_linker_2, # of connection points: 2
#     Edge 43, Type (0, 0), BuildingBlock: XUDNAN_clean_linker_2, # of connection points: 2
#     Edge 44, Type (0, 0), BuildingBlock: XUDNAN_clean_linker_2, # of connection points: 2
#     Edge 45, Type (0, 0), BuildingBlock: XUDNAN_clean_linker_2, # of connection points: 2
#     Edge 46, Type (0, 0), BuildingBlock: XUDNAN_clean_linker_2, # of connection points: 2
#     Edge 47, Type (0, 0), BuildingBlock: XUDNAN_clean_linker_2, # of connection points: 2
#     Edge 48, Type (0, 0), BuildingBlock: XUDNAN_clean_linker_2, # of connection points: 2
#     Edge 49, Type (0, 0), BuildingBlock: XUDNAN_clean_linker_2, # of connection points: 2
#     Edge 50, Type (0, 0), BuildingBlock: XUDNAN_clean_linker_2, # of connection points: 2
#     Edge 51, Type (0, 0), BuildingBlock: XUDNAN_clean_linker_2, # of connection points: 2
#     Edge 52, Type (0, 0), BuildingBlock: XUDNAN_clean_linker_2, # of connection points: 2
#     Edge 53, Type (0, 0), BuildingBlock: XUDNAN_clean_linker_2, # of connection points: 2
#     Edge 54, Type (0, 0), BuildingBlock: XUDNAN_clean_linker_2, # of connection points: 2
#     Edge 55, Type (0, 0), BuildingBlock: XUDNAN_clean_linker_2, # of connection points: 2
#     Edge 56, Type (0, 0), BuildingBlock: XUDNAN_clean_linker_2, # of connection points: 2
#     Edge 57, Type (0, 0), BuildingBlock: XUDNAN_clean_linker_2, # of connection points: 2
#     Edge 58, Type (0, 0), BuildingBlock: XUDNAN_clean_linker_2, # of connection points: 2
#     Edge 59, Type (0, 0), BuildingBlock: XUDNAN_clean_linker_2, # of connection points: 2
#     Edge 60, Type (0, 0), BuildingBlock: XUDNAN_clean_linker_2, # of connection points: 2
#     Edge 61, Type (0, 0), BuildingBlock: XUDNAN_clean_linker_2, # of connection points: 2
#     Edge 62, Type (0, 0), BuildingBlock: XUDNAN_clean_linker_2, # of connection points: 2
#     Edge 63, Type (0, 0), BuildingBlock: XUDNAN_clean_linker_2, # of connection points: 2
#     Edge 64, Type (0, 0), BuildingBlock: XUDNAN_clean_linker_2, # of connection points: 2
#     Edge 65, Type (0, 0), BuildingBlock: XUDNAN_clean_linker_2, # of connection points: 2
#     Edge 66, Type (0, 0), BuildingBlock: XUDNAN_clean_linker_2, # of connection points: 2
#     Edge 67, Type (0, 0), BuildingBlock: XUDNAN_clean_linker_2, # of connection points: 2
#     Edge 68, Type (0, 0), BuildingBlock: XUDNAN_clean_linker_2, # of connection points: 2
#     Edge 69, Type (0, 0), BuildingBlock: XUDNAN_clean_linker_2, # of connection points: 2
#     Edge 70, Type (0, 0), BuildingBlock: XUDNAN_clean_linker_2, # of connection points: 2
#     Edge 71, Type (0, 0), BuildingBlock: XUDNAN_clean_linker_2, # of connection points: 2
#     Edge 72, Type (0, 0), BuildingBlock: XUDNAN_clean_linker_2, # of connection points: 2
#     Edge 73, Type (0, 0), BuildingBlock: XUDNAN_clean_linker_2, # of connection points: 2
#     Edge 74, Type (0, 0), BuildingBlock: XUDNAN_clean_linker_2, # of connection points: 2
#     Edge 75, Type (0, 0), BuildingBlock: XUDNAN_clean_linker_2, # of connection points: 2
#     Edge 76, Type (0, 0), BuildingBlock: XUDNAN_clean_linker_2, # of connection points: 2
#     Edge 77, Type (0, 0), BuildingBlock: XUDNAN_clean_linker_2, # of connection points: 2
#     Edge 78, Type (0, 0), BuildingBlock: XUDNAN_clean_linker_2, # of connection points: 2
#     Edge 79, Type (0, 0), BuildingBlock: XUDNAN_clean_linker_2, # of connection points: 2
#     Edge 80, Type (0, 0), BuildingBlock: XUDNAN_clean_linker_2, # of connection points: 2
#     Edge 81, Type (0, 0), BuildingBlock: XUDNAN_clean_linker_2, # of connection points: 2
#     Edge 82, Type (0, 0), BuildingBlock: XUDNAN_clean_linker_2, # of connection points: 2
#     Edge 83, Type (0, 0), BuildingBlock: XUDNAN_clean_linker_2, # of connection points: 2
# Relax obj value: 0.879
# Max RMSD: 0.223
# Mean RMSD: 0.223
data_MOF--net-lcy-a-x--node1-XOMCOT_clean_sbu_1--edge1-XUDNAN_clean_linker_2
_symmetry_space_group_name_H-M    P1
_symmetry_Int_Tables_number       1
_symmetry_cell_setting            triclinic
loop_
_symmetry_equiv_pos_as_xyz
'x, y, z'
_cell_length_a     58.059299
_cell_length_b     58.035249
_cell_length_c     58.066422
_cell_angle_alpha  89.896775
_cell_angle_beta   89.996269
_cell_angle_gamma 89.969235
loop_
_atom_site_label
_atom_site_type_symbol
_atom_site_fract_x
_atom_site_fract_y
_atom_site_fract_z
_atom_type_partial_charge
C0 C 0.05223 0.01929 0.70884 0.0
C1 C 0.03484 0.0154 0.72445 0.0
N2 N 0.01631 0.02784 0.71798 0.0
N3 N 0.04457 0.03388 0.69246 0.0
C4 C 0.02271 0.03886 0.6985 0.0
H5 H 0.06956 0.0125 0.70972 0.0
Co6 Co 0.0619 0.04694 0.6691 0.0
C7 C 0.03495 0.04046 0.62706 0.0
O8 O 0.05471 0.03624 0.61684 0.0
N9 N 0.07971 0.06156 0.64619 0.0
C10 C 0.10727 0.07709 0.62451 0.0
C11 C 0.10237 0.06073 0.64098 0.0
C12 C 0.07159 0.07926 0.63331 0.0
N13 N 0.08779 0.08873 0.61963 0.0
O14 O 0.05404 0.07664 0.68036 0.0
H15 H 0.11502 0.04985 0.64908 0.0
H16 H 0.05387 0.08496 0.63397 0.0
O17 O 0.0348 0.04644 0.64832 0.0
C18 C 0.06825 0.08264 0.6959 0.0
O19 O 0.08487 0.06826 0.70143 0.0
N20 N 0.07045 0.01678 0.65957 0.0
C21 C 0.08211 0.97024 0.6542 0.0
C22 C 0.05939 0.97776 0.65123 0.0
C23 C 0.05386 0.0008 0.65458 0.0
C24 C 0.09256 0.00968 0.6632 0.0
C25 C 0.0989 0.98662 0.66005 0.0
H26 H 0.03583 0.00524 0.65492 0.0
H27 H 0.10497 0.02138 0.67047 0.0
H28 H 0.01191 0.05077 0.68904 0.0
H29 H 0.03612 0.00502 0.7399 0.0
H30 H 0.12408 0.08048 0.61721 0.0
H31 H 0.04551 0.96567 0.64824 0.0
H32 H 0.11651 0.98149 0.66346 0.0
C33 C 0.23437 0.77514 0.00082 0.0
C34 C 0.23502 0.75637 0.0153 0.0
N35 N 0.25085 0.74149 0.00715 0.0
N36 N 0.24954 0.77197 0.98356 0.0
C37 C 0.25944 0.75136 0.98793 0.0
H38 H 0.22302 0.78986 0.00228 0.0
Co39 Co 0.25208 0.79163 0.95868 0.0
C40 C 0.28493 0.76993 0.92647 0.0
O41 O 0.29433 0.79019 0.92271 0.0
N42 N 0.25376 0.81191 0.93318 0.0
C43 C 0.24879 0.8427 0.91076 0.0
C44 C 0.25573 0.83511 0.93216 0.0
C45 C 0.24625 0.80593 0.912 0.0
N46 N 0.2427 0.82424 0.8982 0.0
O47 O 0.22349 0.78012 0.9476 0.0
H48 H 0.25949 0.84627 0.94648 0.0
H49 H 0.2407 0.78865 0.90772 0.0
O50 O 0.26834 0.76801 0.94085 0.0
C51 C 0.20704 0.79454 0.94855 0.0
O52 O 0.21114 0.8155 0.95602 0.0
N53 N 0.27891 0.80357 0.97142 0.0
C54 C 0.31524 0.82552 0.99344 0.0
C55 C 0.31819 0.80356 0.98374 0.0
C56 C 0.29959 0.79259 0.97335 0.0
C57 C 0.27522 0.82385 0.9826 0.0
C58 C 0.29326 0.83542 0.99331 0.0
H59 H 0.30195 0.77525 0.96718 0.0
H60 H 0.25807 0.83112 0.98308 0.0
H61 H 0.27193 0.74321 0.97677 0.0
H62 H 0.22443 0.75366 0.03041 0.0
H63 H 0.24629 0.86047 0.90564 0.0
H64 H 0.33476 0.79501 0.98382 0.0
H65 H 0.29002 0.85188 0.00147 0.0
C66 C 0.55233 0.01267 0.28303 0.0
C67 C 0.57258 0.01786 0.29427 0.0
N68 N 0.58709 0.02743 0.27892 0.0
N69 N 0.55429 0.01879 0.26072 0.0
C70 C 0.5756 0.02786 0.25877 0.0
H71 H 0.53793 0.00321 0.29012 0.0
Co72 Co 0.5359 0.00792 0.23719 0.0
C73 C 0.53689 0.0439 0.20114 0.0
O74 O 0.51425 0.04355 0.20039 0.0
N75 N 0.51804 0.99566 0.21308 0.0
C76 C 0.49665 0.97209 0.19157 0.0
C77 C 0.49907 0.9821 0.213 0.0
C78 C 0.52671 0.99341 0.19162 0.0
N79 N 0.51407 0.9795 0.17826 0.0
O80 O 0.5608 0.98878 0.22827 0.0
H81 H 0.48895 0.97759 0.22789 0.0
H82 H 0.54348 -0.00024 0.18654 0.0
O83 O 0.54759 0.03144 0.21589 0.0
C84 C 0.56001 0.96696 0.22872 0.0
O85 O 0.54058 0.95658 0.23384 0.0
N86 N 0.51178 0.02683 0.24748 0.0
C87 C 0.47738 0.0545 0.26605 0.0
C88 C 0.49776 0.06421 0.25758 0.0
C89 C 0.51499 0.05006 0.2491 0.0
C90 C 0.49277 0.01692 0.25719 0.0
C91 C 0.47511 0.03052 0.26641 0.0
H92 H 0.53119 0.05786 0.24437 0.0
H93 H 0.49176 0.99846 0.2589 0.0
H94 H 0.58348 0.03234 0.24247 0.0
H95 H 0.57685 0.01365 0.31194 0.0
H96 H 0.48408 0.95924 0.18668 0.0
H97 H 0.50082 0.08261 0.25851 0.0
H98 H 0.4602 0.02244 0.27419 0.0
C99 C 0.25355 0.27279 0.49337 0.0
C100 C 0.24346 0.29266 0.50166 0.0
N101 N 0.25736 0.31059 0.49658 0.0
N102 N 0.2736 0.27829 0.48306 0.0
C103 C 0.27553 0.30127 0.4855 0.0
H104 H 0.2467 0.25551 0.49469 0.0
Co105 Co 0.29517 0.25956 0.46888 0.0
C106 C 0.30487 0.28189 0.42436 0.0
O107 O 0.30419 0.26138 0.41482 0.0
N108 N 0.31811 0.24107 0.45493 0.0
C109 C 0.33992 0.21721 0.43417 0.0
C110 C 0.31882 0.22011 0.44469 0.0
C111 C 0.33933 0.2499 0.45112 0.0
N112 N 0.35269 0.23604 0.43838 0.0
O113 O 0.31816 0.27173 0.48882 0.0
H114 H 0.30479 0.20807 0.44341 0.0
H115 H 0.34419 0.26733 0.4556 0.0
O116 O 0.30152 0.28393 0.44606 0.0
C117 C 0.3211 0.26102 0.5077 0.0
O118 O 0.30772 0.24338 0.51244 0.0
N119 N 0.27148 0.24707 0.45053 0.0
C120 C 0.23257 0.22819 0.42927 0.0
C121 C 0.23852 0.2514 0.42593 0.0
C122 C 0.25775 0.26055 0.43693 0.0
C123 C 0.26534 0.22486 0.45497 0.0
C124 C 0.24648 0.21482 0.44391 0.0
H125 H 0.26071 0.27886 0.43553 0.0
H126 H 0.2748 0.215 0.46765 0.0
H127 H 0.29038 0.31088 0.47965 0.0
H128 H 0.22709 0.29377 0.5105 0.0
H129 H 0.345 0.20301 0.42322 0.0
H130 H 0.22768 0.26293 0.41605 0.0
H131 H 0.24247 0.19696 0.44749 0.0
C132 C 0.56475 0.53345 0.33427 0.0
C133 C 0.55218 0.5376 0.31454 0.0
N134 N 0.53315 0.52437 0.31528 0.0
N135 N 0.55337 0.51803 0.34746 0.0
C136 C 0.53433 0.51271 0.33534 0.0
H137 H 0.58104 0.54126 0.33877 0.0
Co138 Co 0.56152 0.50601 0.37597 0.0
C139 C 0.52064 0.5127 0.40539 0.0
O140 O 0.53455 0.51922 0.422 0.0
N141 N 0.56989 0.4928 0.40465 0.0
C142 C 0.58338 0.48467 0.43966 0.0
C143 C 0.58686 0.4974 0.41995 0.0
C144 C 0.55733 0.47613 0.41509 0.0
N145 N 0.56476 0.47133 0.43651 0.0
O146 O 0.5575 0.47583 0.36418 0.0
H147 H 0.60027 0.51002 0.41791 0.0
H148 H 0.54152 0.46925 0.40801 0.0
O149 O 0.52887 0.50707 0.38572 0.0
C150 C 0.57477 0.4684 0.35295 0.0
O151 O 0.59284 0.48183 0.35063 0.0
N152 N 0.56676 0.53621 0.38643 0.0
C153 C 0.57824 0.58209 0.39486 0.0
C154 C 0.55527 0.5756 0.39147 0.0
C155 C 0.54996 0.55274 0.3867 0.0
C156 C 0.58927 0.54242 0.38863 0.0
C157 C 0.59539 0.56512 0.39352 0.0
H158 H 0.53252 0.54881 0.3817 0.0
H159 H 0.60267 0.52989 0.38539 0.0
H160 H 0.52136 0.50069 0.34129 0.0
H161 H 0.55676 0.54919 0.30065 0.0
H162 H 0.59263 0.48648 0.45574 0.0
H163 H 0.54161 0.58831 0.39083 0.0
H164 H 0.61344 0.5695 0.3952 0.0
C165 C 0.75298 0.28524 0.56821 0.0
C166 C 0.74384 0.26483 0.56017 0.0
N167 N 0.75685 0.24733 0.56824 0.0
N168 N 0.77148 0.28047 0.58139 0.0
C169 C 0.77333 0.25736 0.58113 0.0
H170 H 0.74702 0.30242 0.56409 0.0
Co171 Co 0.79259 0.30026 0.59466 0.0
C172 C 0.79915 0.28257 0.64182 0.0
O173 O 0.80074 0.30394 0.64909 0.0
N174 N 0.81496 0.31995 0.60766 0.0
C175 C 0.83626 0.34691 0.62484 0.0
C176 C 0.81513 0.34206 0.6151 0.0
C177 C 0.83636 0.31215 0.61257 0.0
N178 N 0.84953 0.32804 0.62293 0.0
O179 O 0.8165 0.28545 0.57777 0.0
H180 H 0.80081 0.35386 0.61455 0.0
H181 H 0.84177 0.29446 0.61017 0.0
O182 O 0.79654 0.27856 0.62034 0.0
C183 C 0.81902 0.2938 0.5577 0.0
O184 O 0.80449 0.30971 0.5507 0.0
N185 N 0.76817 0.31543 0.60961 0.0
C186 C 0.72833 0.338 0.62418 0.0
C187 C 0.73407 0.31628 0.63301 0.0
C188 C 0.75369 0.305 0.62501 0.0
C189 C 0.76245 0.33625 0.60036 0.0
C190 C 0.74282 0.34804 0.60767 0.0
H191 H 0.75624 0.28734 0.63018 0.0
H192 H 0.77287 0.34343 0.58666 0.0
H193 H 0.787 0.24813 0.58981 0.0
H194 H 0.72944 0.26313 0.54847 0.0
H195 H 0.84124 0.36275 0.63331 0.0
H196 H 0.72266 0.30739 0.6448 0.0
H197 H 0.7386 0.3645 0.59991 0.0
C198 C 0.01268 0.56006 0.85229 0.0
C199 C 0.03171 0.55616 0.83872 0.0
N200 N 0.04692 0.54382 0.85112 0.0
N201 N 0.01615 0.5505 0.87317 0.0
C202 C 0.03716 0.5406 0.87192 0.0
H203 H 0.99768 0.57011 0.84765 0.0
Co204 Co 0.99658 0.55502 0.89779 0.0
C205 C 0.01483 0.52665 0.93579 0.0
O206 O 0.99367 0.52007 0.94045 0.0
N207 N 0.97668 0.56087 0.92261 0.0
C208 C 0.94785 0.57387 0.94435 0.0
C209 C 0.95354 0.56312 0.92389 0.0
C210 C 0.98447 0.5702 0.9424 0.0
N211 N 0.96746 0.57811 0.95593 0.0
O212 O 0.01096 0.58413 0.90276 0.0
H213 H 0.94161 0.55919 0.91022 0.0
H214 H 0.00255 0.57321 0.94585 0.0
O215 O 0.01858 0.54048 0.91899 0.0
C216 C -0.00027 0.60135 0.89515 0.0
O217 O 0.97901 0.59787 0.88672 0.0
N218 N 0.98228 0.52685 0.89071 0.0
C219 C 0.96536 0.4892 0.86615 0.0
C220 C 0.98525 0.48716 0.87958 0.0
C221 C 0.9938 0.50629 0.8911 0.0
C222 C 0.96242 0.52894 0.87832 0.0
C223 C 0.95355 0.51026 0.86597 0.0
H224 H 0.01088 0.50483 0.89814 0.0
H225 H 0.95466 0.54571 0.87608 0.0
H226 H 0.04575 0.5323 0.88624 0.0
H227 H 0.03448 0.56244 0.82137 0.0
H228 H 0.93084 0.57946 0.94958 0.0
H229 H 0.99555 0.47158 0.87924 0.0
H230 H 0.93853 0.51271 0.85518 0.0
C231 C 0.80961 0.80884 0.04657 0.0
C232 C 0.8126 0.83028 0.03667 0.0
N233 N 0.79613 0.84456 0.04479 0.0
N234 N 0.79146 0.80967 0.06096 0.0
C235 C 0.78348 0.83145 0.05926 0.0
H236 H 0.8202 0.79376 0.04378 0.0
Co237 Co 0.77975 0.78674 0.07999 0.0
C238 C 0.77049 0.81153 0.12365 0.0
O239 O 0.7765 0.79316 0.1355 0.0
N240 N 0.76677 0.76338 0.09884 0.0
C241 C 0.75831 0.73247 0.12011 0.0
C242 C 0.77382 0.74197 0.10491 0.0
C243 C 0.7461 0.76562 0.10941 0.0
N244 N 0.74094 0.74748 0.12294 0.0
O245 O 0.75139 0.78922 0.0648 0.0
H246 H 0.78915 0.73339 0.09906 0.0
H247 H 0.73564 0.78103 0.10837 0.0
O248 O 0.76972 0.81048 0.1017 0.0
C249 C 0.74443 0.77506 0.04971 0.0
O250 O 0.7576 0.75765 0.04377 0.0
N251 N 0.80872 0.78468 0.09474 0.0
C252 C 0.84953 0.77977 0.11934 0.0
C253 C 0.83811 0.80098 0.11873 0.0
C254 C 0.8182 0.80328 0.10564 0.0
C255 C 0.82125 0.76497 0.09261 0.0
C256 C 0.84137 0.76181 0.10541 0.0
H257 H 0.81046 0.82013 0.10437 0.0
H258 H 0.81576 0.75173 0.0808 0.0
H259 H 0.76889 0.83766 0.06895 0.0
H260 H 0.82598 0.83489 0.02455 0.0
H261 H 0.75991 0.71602 0.1288 0.0
H262 H 0.84451 0.81572 0.1282 0.0
H263 H 0.85076 0.74574 0.10395 0.0
C264 C 0.74637 0.04455 0.04285 0.0
C265 C 0.7627 0.02745 0.04089 0.0
N266 N 0.75181 0.00697 0.03976 0.0
N267 N 0.72523 0.03496 0.04265 0.0
C268 C 0.72914 0.01208 0.04107 0.0
H269 H 0.74981 0.06274 0.04481 0.0
Co270 Co 0.69688 0.0496 0.04614 0.0
C271 C 0.66447 0.02426 0.01514 0.0
O272 O 0.65125 0.04235 0.01189 0.0
N273 N 0.66804 0.06447 0.05037 0.0
C274 C 0.64044 0.09077 0.05528 0.0
C275 C 0.66115 0.08606 0.04477 0.0
C276 C 0.65068 0.05629 0.06359 0.0
N277 N 0.63414 0.07211 0.06747 0.0
O278 O 0.69176 0.03131 0.07268 0.0
H279 H 0.67082 0.09835 0.03476 0.0
H280 H 0.65059 0.03928 0.07121 0.0
O281 O 0.68255 0.02582 0.02753 0.0
C282 C 0.69459 0.04183 0.09162 0.0
O283 O 0.69935 0.06397 0.09114 0.0
N284 N 0.70368 0.06836 0.02114 0.0
C285 C 0.72173 0.09901 0.98913 0.0
C286 C 0.71157 0.07828 0.98195 0.0
C287 C 0.70292 0.06292 -0.00168 0.0
C288 C 0.71344 0.08845 0.02834 0.0
C289 C 0.72244 0.10413 0.01263 0.0
H290 H 0.69675 0.04641 0.99258 0.0
H291 H 0.71459 0.09202 0.04659 0.0
H292 H 0.71555 -0.00062 0.04123 0.0
H293 H 0.78117 0.02993 0.04097 0.0
H294 H 0.63168 0.10723 0.05535 0.0
H295 H 0.71146 0.07341 0.96394 0.0
H296 H 0.73036 0.11984 0.01882 0.0
C297 C 0.35351 0.48404 0.22944 0.0
C298 C 0.37311 0.49721 0.22648 0.0
N299 N 0.38884 0.49023 0.242 0.0
N300 N 0.35679 0.46905 0.24703 0.0
C301 C 0.3785 0.47339 0.25412 0.0
H302 H 0.33821 0.48537 0.219 0.0
Co303 Co 0.33954 0.44481 0.26036 0.0
C304 C 0.37296 0.41789 0.24207 0.0
O305 O 0.36075 0.42219 0.22349 0.0
N306 N 0.32342 0.42057 0.27346 0.0
C307 C 0.30276 0.38869 0.27813 0.0
C308 C 0.31011 0.40506 0.26249 0.0
C309 C 0.32393 0.41339 0.29558 0.0
N310 N 0.31144 0.39416 0.29893 0.0
O311 O 0.34655 0.45676 0.2908 0.0
H312 H 0.30644 0.40539 0.24423 0.0
H313 H 0.33404 0.42143 0.30893 0.0
O314 O 0.36657 0.42649 0.26115 0.0
C315 C 0.34758 0.47716 0.29891 0.0
O316 O 0.34365 0.49493 0.2854 0.0
N317 N 0.31208 0.46147 0.25861 0.0
C318 C 0.26923 0.4811 0.25074 0.0
C319 C 0.28237 0.47266 0.23242 0.0
C320 C 0.30352 0.46236 0.23684 0.0
C321 C 0.2988 0.46826 0.27689 0.0
C322 C 0.27731 0.47858 0.27325 0.0
H323 H 0.31311 0.4547 0.22284 0.0
H324 H 0.30422 0.46503 0.29437 0.0
H325 H 0.3865 0.46445 0.2684 0.0
H326 H 0.37571 0.51051 0.21365 0.0
H327 H 0.29205 0.37387 0.27449 0.0
H328 H 0.27609 0.47362 0.21487 0.0
H329 H 0.26703 0.48415 0.28778 0.0
C330 C 0.7866 0.05042 0.51827 0.0
C331 C 0.77224 0.06934 0.51829 0.0
N332 N 0.78112 0.0852 0.53274 0.0
N333 N 0.80446 0.0545 0.5325 0.0
C334 C 0.80051 0.07559 0.54126 0.0
H335 H 0.78438 0.03484 0.50834 0.0
Co336 Co 0.82886 0.03516 0.5391 0.0
C337 C 0.86996 0.06525 0.53578 0.0
O338 O 0.88101 0.04832 0.52559 0.0
N339 N 0.85278 0.01473 0.54707 0.0
C340 C 0.87379 0.98319 0.55308 0.0
C341 C 0.85427 0.99191 0.54284 0.0
C342 C 0.87045 0.01885 0.5617 0.0
N343 N 0.88409 0.00032 0.56476 0.0
O344 O 0.82146 0.03693 0.57048 0.0
H345 H 0.84161 0.98182 0.53377 0.0
H346 H 0.87356 0.03535 0.56971 0.0
O347 O 0.84929 0.06214 0.54287 0.0
C348 C 0.81094 0.02155 0.58189 0.0
O349 O 0.80367 0.00284 0.57146 0.0
N350 N 0.83616 0.03412 0.50712 0.0
C351 C 0.85246 0.03458 0.46172 0.0
C352 C 0.84912 0.05512 0.47394 0.0
C353 C 0.83982 0.05453 0.49592 0.0
C354 C 0.83684 0.01413 0.49487 0.0
C355 C 0.84503 0.01393 0.47218 0.0
H356 H 0.83653 0.07078 0.5043 0.0
H357 H 0.83074 0.99832 0.50234 0.0
H358 H 0.81162 0.08361 0.55386 0.0
H359 H 0.7568 0.07141 0.50806 0.0
H360 H 0.87982 0.96557 0.5521 0.0
H361 H 0.85397 0.07174 0.46711 0.0
H362 H 0.84531 0.9977 0.46307 0.0
C363 C 0.2441 0.53873 0.7953 0.0
C364 C 0.22327 0.52733 0.79609 0.0
N365 N 0.20847 0.54033 0.80831 0.0
N366 N 0.24224 0.55871 0.80699 0.0
C367 C 0.22044 0.55904 0.81487 0.0
H368 H 0.25969 0.53273 0.78706 0.0
Co369 Co 0.26534 0.57967 0.81311 0.0
C370 C 0.24214 0.62559 0.81334 0.0
O371 O 0.2604 0.63502 0.80381 0.0
N372 N 0.28923 0.60034 0.8202 0.0
C373 C 0.32155 0.62075 0.82228 0.0
C374 C 0.31026 0.60338 0.8108 0.0
C375 C 0.28871 0.6153 0.83801 0.0
N376 N 0.3078 0.62854 0.83931 0.0
O377 O 0.26343 0.57177 0.84467 0.0
H378 H 0.31725 0.59378 0.79654 0.0
H379 H 0.27393 0.61699 0.84918 0.0
O380 O 0.24216 0.60401 0.81798 0.0
C381 C 0.27592 0.5553 0.85188 0.0
O382 O 0.29009 0.54516 0.83744 0.0
N383 N 0.26711 0.5862 0.78127 0.0
C384 C 0.27004 0.59089 0.73331 0.0
C385 C 0.25156 0.60035 0.74565 0.0
C386 C 0.24986 0.59684 0.76928 0.0
C387 C 0.28471 0.57598 0.7696 0.0
C388 C 0.28662 0.5782 0.74568 0.0
H389 H 0.23406 0.60198 0.77748 0.0
H390 H 0.29692 0.56533 0.77881 0.0
H391 H 0.21367 0.57225 0.82608 0.0
H392 H 0.21928 0.51088 0.78829 0.0
H393 H 0.33849 0.62719 0.81803 0.0
H394 H 0.23805 0.61006 0.73725 0.0
H395 H 0.30056 0.56936 0.73705 0.0
C396 C 0.24901 0.54549 0.06807 0.0
C397 C 0.26126 0.5659 0.06849 0.0
N398 N 0.24932 0.58171 0.05637 0.0
N399 N 0.22961 0.54861 0.05567 0.0
C400 C 0.23047 0.57073 0.04862 0.0
H401 H 0.25393 0.52941 0.07613 0.0
Co402 Co 0.20701 0.52732 0.04816 0.0
C403 C 0.16497 0.55648 0.05039 0.0
O404 O 0.15422 0.54106 0.06306 0.0
N405 N 0.1847 0.5055 0.03928 0.0
C406 C 0.16647 0.47292 0.03019 0.0
C407 C 0.18496 0.48232 0.0417 0.0
C408 C 0.1669 0.50941 0.02479 0.0
N409 N 0.15519 0.49012 0.01954 0.0
O410 O 0.21634 0.52923 0.01705 0.0
H411 H 0.19841 0.4725 0.04998 0.0
H412 H 0.16283 0.52607 0.01757 0.0
O413 O 0.18531 0.55252 0.04303 0.0
C414 C 0.23262 0.51619 0.01048 0.0
O415 O 0.24162 0.50155 0.02524 0.0
N416 N 0.19864 0.52548 0.07973 0.0
C417 C 0.18992 0.52252 0.12697 0.0
C418 C 0.1896 0.54386 0.11576 0.0
C419 C 0.19443 0.54502 0.09227 0.0
C420 C 0.20009 0.50476 0.09071 0.0
C421 C 0.19524 0.50279 0.11415 0.0
H422 H 0.19536 0.56183 0.08432 0.0
H423 H 0.20631 0.48983 0.08178 0.0
H424 H 0.21782 0.57863 0.03743 0.0
H425 H 0.27749 0.56894 0.07713 0.0
H426 H 0.16222 0.4548 0.02898 0.0
H427 H 0.18643 0.55962 0.12522 0.0
H428 H 0.19712 0.48615 0.12245 0.0
C429 C 0.79119 0.02225 0.28614 0.0
C430 C 0.77172 0.03288 0.29444 0.0
N431 N 0.75364 0.01879 0.29094 0.0
N432 N 0.7854 0.00155 0.27736 0.0
C433 C 0.76247 -0.00028 0.28101 0.0
H434 H 0.80802 0.03006 0.28461 0.0
Co435 Co 0.80346 0.98417 0.25723 0.0
C436 C 0.78427 0.93794 0.26192 0.0
O437 O 0.78163 0.93723 0.23948 0.0
N438 N 0.82171 0.96682 0.23672 0.0
C439 C 0.84466 0.93921 0.22349 0.0
C440 C 0.83975 0.95306 0.24197 0.0
C441 C 0.81661 0.96146 0.21464 0.0
N442 N 0.82956 0.94398 0.20651 0.0
O443 O 0.77825 0.9832 0.23627 0.0
H444 H 0.84749 0.95144 0.25881 0.0
H445 H 0.80168 0.96801 0.20567 0.0
O446 O 0.79258 0.95591 0.27143 0.0
C447 C 0.77062 0.0015 0.22702 0.0
O448 O 0.78044 0.02132 0.23181 0.0
N449 N 0.82801 0.9863 0.27767 0.0
C450 C 0.8624 0.99768 0.30886 0.0
C451 C 0.84489 0.98214 0.31495 0.0
C452 C 0.82771 0.97683 0.29917 0.0
C453 C 0.84556 0.00035 0.27092 0.0
C454 C 0.86307 0.00622 0.28627 0.0
H455 H 0.81344 0.96638 0.30489 0.0
H456 H 0.84527 0.00793 0.25389 0.0
H457 H 0.75204 0.98599 0.27393 0.0
H458 H 0.77064 0.0504 0.30073 0.0
H459 H 0.85684 0.92508 0.22352 0.0
H460 H 0.84324 0.97569 0.33239 0.0
H461 H 0.87619 0.0184 0.28097 0.0
C462 C 0.27095 0.5142 0.52065 0.0
C463 C 0.2577 0.49469 0.5236 0.0
N464 N 0.27044 0.4763 0.51743 0.0
N465 N 0.29198 0.50799 0.51298 0.0
C466 C 0.29107 0.48487 0.51112 0.0
H467 H 0.26549 0.53177 0.52361 0.0
Co468 Co 0.31684 0.52626 0.50478 0.0
C469 C 0.35588 0.50609 0.53151 0.0
O470 O 0.36456 0.52658 0.53561 0.0
N471 N 0.34191 0.54446 0.49524 0.0
C472 C 0.36115 0.57073 0.47481 0.0
C473 C 0.34187 0.56664 0.48805 0.0
C474 C 0.36138 0.53554 0.48604 0.0
N475 N 0.37331 0.55108 0.47367 0.0
O476 O 0.31984 0.5095 0.47699 0.0
H477 H 0.32772 0.57852 0.48988 0.0
H478 H 0.36542 0.51733 0.4861 0.0
O479 O 0.33748 0.50418 0.51958 0.0
C480 C 0.31372 0.51874 0.45813 0.0
O481 O 0.30377 0.53908 0.45851 0.0
N482 N 0.31309 0.54318 0.53224 0.0
C483 C 0.30225 0.5683 0.57162 0.0
C484 C 0.31094 0.54591 0.5734 0.0
C485 C 0.31552 0.53339 0.55354 0.0
C486 C 0.30375 0.56466 0.53022 0.0
C487 C 0.29833 0.57765 0.54974 0.0
H488 H 0.31973 0.51541 0.55552 0.0
H489 H 0.29915 0.57127 0.51347 0.0
H490 H 0.30535 0.47451 0.50509 0.0
H491 H 0.23993 0.49413 0.52922 0.0
H492 H 0.36511 0.5864 0.46548 0.0
H493 H 0.31285 0.53763 0.59004 0.0
H494 H 0.29058 0.59453 0.54778 0.0
C495 C 0.83599 0.07611 0.80454 0.0
C496 C 0.85681 0.06493 0.80619 0.0
N497 N 0.86992 0.07116 0.78804 0.0
N498 N 0.83604 0.08952 0.78557 0.0
C499 C 0.85692 0.08621 0.77594 0.0
H500 H 0.82147 0.07386 0.81597 0.0
Co501 Co 0.81152 0.10567 0.77292 0.0
C502 C 0.82863 0.15327 0.76748 0.0
O503 O 0.80841 0.16064 0.77457 0.0
N504 N 0.78647 0.12138 0.75913 0.0
C505 C 0.75331 0.13883 0.75105 0.0
C506 C 0.76415 0.12343 0.76544 0.0
C507 C 0.78808 0.1343 0.73976 0.0
N508 N 0.76856 0.14597 0.73513 0.0
O509 O 0.81755 0.09212 0.74407 0.0
H510 H 0.7561 0.11522 0.78 0.0
H511 H 0.80406 0.13697 0.73053 0.0
O512 O 0.83241 0.13157 0.76591 0.0
C513 C 0.80783 0.07258 0.74221 0.0
O514 O 0.79632 0.06439 0.75992 0.0
N515 N 0.80475 0.11751 0.80221 0.0
C516 C 0.79143 0.13018 0.84651 0.0
C517 C 0.81158 0.1392 0.8367 0.0
C518 C 0.81838 0.13199 0.81482 0.0
C519 C 0.78634 0.10712 0.81228 0.0
C520 C 0.77913 0.11342 0.8342 0.0
H521 H 0.83486 0.13769 0.80844 0.0
H522 H 0.77753 0.09335 0.80338 0.0
H523 H 0.86188 0.09364 0.75957 0.0
H524 H 0.8616 0.05266 0.8194 0.0
H525 H 0.736 0.14547 0.75311 0.0
H526 H 0.8222 0.15143 0.84591 0.0
H527 H 0.76446 0.10464 0.84166 0.0
C528 C 0.0104 0.78984 0.0404 0.0
C529 C -0.00013 0.79873 0.02102 0.0
N530 N 0.00208 0.78338 0.00376 0.0
N531 N 0.01915 0.76884 0.0355 0.0
C532 C 0.01325 0.76532 0.01327 0.0
H533 H 0.01341 0.79935 0.05605 0.0
Co534 Co 0.04249 0.75135 0.05013 0.0
C535 C 0.0068 0.7166 0.03739 0.0
O536 O 0.98984 0.73111 0.04119 0.0
N537 N 0.0658 0.7342 0.06364 0.0
C538 C 0.0917 0.71822 0.08696 0.0
C539 C 0.07527 0.7353 0.08487 0.0
C540 C 0.07697 0.71681 0.05307 0.0
N541 N 0.09276 0.70691 0.06679 0.0
O542 O 0.05963 0.75155 0.02207 0.0
H543 H 0.07041 0.74746 0.09808 0.0
H544 H 0.0732 0.71107 0.03575 0.0
O545 O 0.02769 0.72273 0.0406 0.0
C546 C 0.06673 0.77049 0.01371 0.0
O547 O 0.0621 0.78989 0.02439 0.0
N548 N 0.02681 0.7519 0.07826 0.0
C549 C 0.00288 0.75789 0.11932 0.0
C550 C 0.0037 0.73623 0.10856 0.0
C551 C 0.0163 0.73345 0.08836 0.0
C552 C 0.02887 0.77207 0.09001 0.0
C553 C 0.01701 0.7755 0.1106 0.0
H554 H 0.01718 0.71652 0.08085 0.0
H555 H 0.03941 0.78577 0.08305 0.0
H556 H 0.01891 0.75038 0.00375 0.0
H557 H 0.99323 0.81607 0.01927 0.0
H558 H 0.10205 0.71442 0.102 0.0
H559 H 0.99363 0.7218 0.11473 0.0
H560 H 0.01796 0.79216 0.1189 0.0
C561 C 0.52124 0.81721 0.05639 0.0
C562 C 0.51812 0.81193 0.07931 0.0
N563 N 0.53506 0.82208 0.09141 0.0
N564 N 0.53976 0.83107 0.05419 0.0
C565 C 0.54809 0.83333 0.07582 0.0
H566 H 0.51022 0.81192 0.04236 0.0
Co567 Co 0.54981 0.84603 0.0276 0.0
C568 C 0.55924 0.89417 0.04251 0.0
O569 O 0.5534 0.90239 0.02225 0.0
N570 N 0.56071 0.86093 0.00071 0.0
C571 C 0.56489 0.88188 0.96879 0.0
C572 C 0.55025 0.86774 0.98101 0.0
C573 C 0.58205 0.87017 -0.00073 0.0
N574 N 0.58483 0.88343 0.98044 0.0
O575 O 0.57912 0.83302 0.03174 0.0
H576 H 0.53262 0.86435 0.97632 0.0
H577 H 0.59438 0.86959 0.01326 0.0
O578 O 0.55873 0.87246 0.04624 0.0
C579 C 0.58345 0.81434 0.02124 0.0
O580 O 0.56722 0.80468 0.00879 0.0
N581 N 0.52001 0.85759 0.02349 0.0
C582 C 0.47296 0.86492 0.01981 0.0
C583 C 0.4858 0.87716 0.03597 0.0
C584 C 0.5093 0.87278 0.03798 0.0
C585 C 0.50757 0.84554 0.0077 0.0
C586 C 0.48399 0.84908 0.00542 0.0
H587 H 0.51816 0.88035 0.05236 0.0
H588 H 0.51593 0.83235 0.99755 0.0
H589 H 0.56285 0.84381 0.08023 0.0
H590 H 0.50431 0.80172 0.08658 0.0
H591 H 0.56059 0.89167 0.95349 0.0
H592 H 0.47746 0.88872 0.04801 0.0
H593 H 0.47427 0.83886 0.99321 0.0
C594 C 0.54733 0.24363 0.35446 0.0
C595 C 0.55451 0.24608 0.37698 0.0
N596 N 0.5474 0.26682 0.3845 0.0
N597 N 0.53541 0.26261 0.34819 0.0
C598 C 0.53588 0.27641 0.3668 0.0
H599 H 0.55056 0.22902 0.34339 0.0
Co600 Co 0.52184 0.26981 0.32027 0.0
C601 C 0.47335 0.27985 0.33154 0.0
O602 O 0.46739 0.27054 0.3118 0.0
N603 N 0.50889 0.27824 0.29159 0.0
C604 C 0.49722 0.28276 0.25529 0.0
C605 C 0.50826 0.26832 0.27054 0.0
C606 C 0.4991 0.29913 0.28818 0.0
N607 N 0.49132 0.30215 0.26651 0.0
O608 O 0.53525 0.29944 0.32179 0.0
H609 H 0.51553 0.25192 0.26594 0.0
H610 H 0.49763 0.31188 0.30164 0.0
O611 O 0.49473 0.28181 0.33657 0.0
C612 C 0.55349 0.30621 0.31184 0.0
O613 O 0.56545 0.29169 0.29927 0.0
N614 N 0.50846 0.23997 0.31966 0.0
C615 C 0.48593 0.1977 0.31727 0.0
C616 C 0.48231 0.21231 0.336 0.0
C617 C 0.49429 0.233 0.33721 0.0
C618 C 0.51455 0.22458 0.30308 0.0
C619 C 0.50296 0.20357 0.3011 0.0
H620 H 0.49193 0.24349 0.35237 0.0
H621 H 0.52856 0.22844 0.2915 0.0
H622 H 0.52776 0.2932 0.3674 0.0
H623 H 0.56449 0.23381 0.3869 0.0
H624 H 0.49355 0.27898 0.23743 0.0
H625 H 0.47014 0.20798 0.34947 0.0
H626 H 0.50749 0.19192 0.28727 0.0
C627 C 0.03656 0.27577 0.4896 0.0
C628 C 0.04585 0.28863 0.50728 0.0
N629 N 0.03932 0.279 0.52738 0.0
N630 N 0.02471 0.25795 0.49868 0.0
C631 C 0.02654 0.26052 0.52164 0.0
H632 H 0.03831 0.27913 0.47135 0.0
Co633 Co 0.00786 0.23516 0.48397 0.0
C634 C 0.0262 0.1923 0.50334 0.0
O635 O 0.02604 0.18425 0.48218 0.0
N636 N 0.98912 0.2131 0.46967 0.0
C637 C 0.95787 0.20136 0.45058 0.0
C638 C 0.9763 0.21638 0.45048 0.0
C639 C 0.97771 0.19643 0.48129 0.0
N640 N 0.95904 0.18882 0.47001 0.0
O641 O 0.98154 0.24367 0.50163 0.0
H642 H 0.97832 0.23068 0.4387 0.0
H643 H 0.98096 0.19212 0.49911 0.0
O644 O 0.01805 0.21241 0.50749 0.0
C645 C 0.97043 0.25929 0.49098 0.0
O646 O 0.97947 0.26789 0.47207 0.0
N647 N 0.03408 0.22767 0.46559 0.0
C648 C 0.07348 0.21618 0.44033 0.0
C649 C 0.07467 0.21996 0.46411 0.0
C650 C 0.05498 0.22574 0.4763 0.0
C651 C 0.03278 0.22541 0.4422 0.0
C652 C 0.05225 0.21938 0.42925 0.0
H653 H 0.05662 0.22842 0.49463 0.0
H654 H 0.01683 0.2284 0.4333 0.0
H655 H 0.01866 0.24894 0.53396 0.0
H656 H 0.05617 0.30406 0.50553 0.0
H657 H 0.94379 0.20098 0.43837 0.0
H658 H 0.09083 0.21884 0.47337 0.0
H659 H 0.05067 0.21725 0.41079 0.0
C660 C 0.02428 0.80022 0.80055 0.0
C661 C 0.01066 0.80619 0.81915 0.0
N662 N 0.02218 0.80079 0.83856 0.0
N663 N 0.04435 0.79142 0.80833 0.0
C664 C 0.04253 0.79223 0.83145 0.0
H665 H 0.01925 0.80082 0.78262 0.0
Co666 Co 0.06693 0.77476 0.79248 0.0
C667 C 0.09832 0.80607 0.82168 0.0
O668 O 0.08324 0.82032 0.83071 0.0
N669 N 0.09007 0.75773 0.77728 0.0
C670 C 0.12466 0.75037 0.76246 0.0
C671 C 0.1077 0.76663 0.7649 0.0
C672 C 0.09682 0.73589 0.78194 0.0
N673 N 0.11801 0.73116 0.77363 0.0
O674 O 0.06606 0.75193 0.81641 0.0
H675 H 0.10935 0.78452 0.75995 0.0
H676 H 0.08759 0.72439 0.79331 0.0
O677 O 0.09187 0.79006 0.80817 0.0
C678 C 0.04795 0.73968 0.81785 0.0
O679 O 0.03127 0.74305 0.80291 0.0
N680 N 0.06687 0.79678 0.76867 0.0
C681 C 0.07192 0.82717 0.73177 0.0
C682 C 0.07295 0.83506 0.75459 0.0
C683 C 0.07042 0.81961 0.77274 0.0
C684 C 0.06332 0.78914 0.74674 0.0
C685 C 0.06627 0.80396 0.72795 0.0
H686 H 0.0713 0.8261 0.79004 0.0
H687 H 0.05952 0.77114 0.74376 0.0
H688 H 0.05557 0.78543 0.84292 0.0
H689 H 0.99311 0.81245 0.81841 0.0
H690 H 0.14138 0.75319 0.7547 0.0
H691 H 0.07583 0.85306 0.75851 0.0
H692 H 0.06491 0.79707 0.71069 0.0
C693 C 0.52519 0.31067 0.5798 0.0
C694 C 0.53684 0.30087 0.56154 0.0
N695 N 0.53261 0.31373 0.5427 0.0
N696 N 0.51371 0.32946 0.57231 0.0
C697 C 0.51841 0.33069 0.54963 0.0
H698 H 0.5249 0.3044 0.59735 0.0
Co699 Co 0.49451 0.34813 0.58956 0.0
C700 C 0.4907 0.3931 0.5643 0.0
O701 O 0.48794 0.40439 0.58367 0.0
N702 N 0.47441 0.36643 0.60723 0.0
C703 C 0.45858 0.39272 0.63026 0.0
C704 C 0.47733 0.37843 0.62698 0.0
C705 C 0.45341 0.37292 0.5996 0.0
N706 N 0.44362 0.38906 0.61296 0.0
O707 O 0.46871 0.3331 0.57615 0.0
H708 H 0.49272 0.37838 0.63739 0.0
H709 H 0.44654 0.36809 0.58296 0.0
O710 O 0.49372 0.37123 0.56457 0.0
C711 C 0.4599 0.31626 0.58702 0.0
O712 O 0.46927 0.30974 0.60658 0.0
N713 N 0.52074 0.36144 0.60307 0.0
C714 C 0.56458 0.36965 0.62112 0.0
C715 C 0.55697 0.38119 0.6013 0.0
C716 C 0.53542 0.37623 0.59212 0.0
C717 C 0.52723 0.35111 0.62315 0.0
C718 C 0.54908 0.35496 0.63252 0.0
H719 H 0.53175 0.38308 0.57533 0.0
H720 H 0.51589 0.33865 0.63113 0.0
H721 H 0.51093 0.34321 0.53808 0.0
H722 H 0.54759 0.28564 0.56205 0.0
H723 H 0.4568 0.40584 0.64336 0.0
H724 H 0.56816 0.39285 0.59197 0.0
H725 H 0.55424 0.34526 0.6476 0.0
C726 C 0.05341 0.30722 0.73023 0.0
C727 C 0.06219 0.3124 0.70876 0.0
N728 N 0.05035 0.30024 0.69292 0.0
N729 N 0.03606 0.292 0.72781 0.0
C730 C 0.03487 0.28784 0.70504 0.0
H731 H 0.05892 0.31445 0.74647 0.0
Co732 Co 0.01684 0.27976 0.75006 0.0
C733 C 0.97005 0.28513 0.73085 0.0
O734 O 0.96281 0.29117 0.75143 0.0
N735 N 0.99749 0.26622 0.77258 0.0
C736 C 0.97506 0.25752 0.80245 0.0
C737 C 0.99313 0.27092 0.79497 0.0
C738 C 0.98285 0.24878 0.76756 0.0
N739 N 0.96867 0.24362 0.78512 0.0
O740 O 0.02524 0.24969 0.74051 0.0
H741 H 0.00141 0.28393 0.80522 0.0
H742 H 0.98094 0.24158 0.75047 0.0
O743 O 0.9912 0.27966 0.72788 0.0
C744 C 0.0417 0.2402 0.75136 0.0
O745 O 0.05196 0.25177 0.76786 0.0
N746 N 0.00955 0.31013 0.75952 0.0
C747 C 0.99753 0.35388 0.77544 0.0
C748 C 0.99225 0.3471 0.75289 0.0
C749 C -0.00073 0.3256 0.745 0.0
C750 C 0.01752 0.31747 0.7803 0.0
C751 C 0.01129 0.33911 0.78886 0.0
H752 H 0.99611 0.3214 0.72718 0.0
H753 H 0.02863 0.30642 0.79038 0.0
H754 H 0.02281 0.27579 0.69757 0.0
H755 H 0.07579 0.32462 0.70513 0.0
H756 H 0.96614 0.25911 0.81875 0.0
H757 H 0.98239 0.35801 0.74141 0.0
H758 H 0.01726 0.34416 0.80578 0.0
C759 C 0.58137 0.79839 0.29046 0.0
C760 C 0.56546 0.80185 0.27321 0.0
N761 N 0.57681 0.80604 0.25334 0.0
N762 N 0.60271 0.80011 0.28155 0.0
C763 C 0.59935 0.80481 0.25899 0.0
H764 H 0.57754 0.79531 0.30842 0.0
Co765 Co 0.63096 0.79943 0.29672 0.0
C766 C 0.66066 0.76946 0.267 0.0
O767 O 0.67265 0.76126 0.28437 0.0
N768 N 0.65979 0.79943 0.31201 0.0
C769 C 0.68728 0.80207 0.33868 0.0
C770 C 0.66513 0.79502 0.33428 0.0
C771 C 0.67931 0.80864 0.30328 0.0
N772 N 0.69607 0.81098 0.3192 0.0
O773 O 0.63846 0.82747 0.2817 0.0
H774 H 0.65351 0.78875 0.34729 0.0
H775 H 0.68045 0.8155 0.28598 0.0
O776 O 0.64413 0.78348 0.27058 0.0
C777 C 0.64357 0.84703 0.29004 0.0
O778 O 0.64612 0.8495 0.31238 0.0
N779 N 0.62225 0.77237 0.31173 0.0
C780 C 0.60915 0.73525 0.33909 0.0
C781 C 0.61529 0.73196 0.31592 0.0
C782 C 0.62153 0.75083 0.30241 0.0
C783 C 0.61413 0.77612 0.3334 0.0
C784 C 0.608 0.75778 0.34761 0.0
H785 H 0.62537 0.74796 0.2845 0.0
H786 H 0.61325 0.79354 0.33996 0.0
H787 H 0.61332 0.80823 0.24718 0.0
H788 H 0.54696 0.8014 0.27534 0.0
H789 H 0.69562 0.80212 0.35535 0.0
H790 H 0.61513 0.71498 0.30823 0.0
H791 H 0.603 0.76125 0.36523 0.0
H792 H 0.10916 0.94764 0.68541 0.0
H793 H 0.06441 0.93596 0.62679 0.0
H794 H 0.06252 0.89468 0.63665 0.0
H795 H 0.13891 0.88773 0.68324 0.0
H796 H 0.14011 0.88725 0.71426 0.0
H797 H 0.14297 0.91417 0.69897 0.0
H798 H 0.10939 0.93093 0.72303 0.0
H799 H 0.10591 0.90407 0.73791 0.0
H800 H 0.08184 0.91658 0.72278 0.0
H801 H 0.05679 0.85824 0.65879 0.0
H802 H 0.05146 0.82865 0.68883 0.0
H803 H 0.10298 0.86264 0.73098 0.0
C804 C 0.10007 0.93624 0.67381 0.0
C805 C 0.08682 0.94509 0.65543 0.0
C806 C 0.07451 0.9296 0.64114 0.0
C807 C 0.07345 0.90608 0.64652 0.0
C808 C 0.08535 0.89819 0.66581 0.0
C809 C 0.09908 0.91269 0.67881 0.0
C810 C 0.10779 0.90072 0.70028 0.0
C811 C 0.134 0.89726 0.69911 0.0
C812 C 0.10079 0.91386 0.72227 0.0
C813 C 0.09524 0.878 0.69833 0.0
C814 C 0.0827 0.87663 0.67817 0.0
C815 C 0.06721 0.85869 0.67423 0.0
C816 C 0.06428 0.84192 0.69144 0.0
C817 C 0.07674 0.84326 0.71238 0.0
C818 C 0.09297 0.86116 0.71533 0.0
H819 H 0.44426 0.83064 0.0317 0.0
H820 H 0.44557 0.90152 0.00841 0.0
H821 H 0.40289 0.90133 0.00541 0.0
H822 H 0.40389 0.81111 0.99477 0.0
H823 H 0.38973 0.79174 0.01451 0.0
H824 H 0.41947 0.79901 0.01879 0.0
H825 H 0.41025 0.81315 0.06013 0.0
H826 H 0.38036 0.80583 0.05598 0.0
H827 H 0.38824 0.83464 0.06443 0.0
H828 H 0.36158 0.89085 -0.00151 0.0
H829 H 0.32517 0.8714 0.98848 0.0
H830 H 0.35081 0.80798 0.01878 0.0
C831 C 0.4354 0.84624 0.0265 0.0
C832 C 0.44778 0.86606 0.02017 0.0
C833 C 0.43604 0.88625 0.01334 0.0
C834 C 0.41193 0.88628 0.01173 0.0
C835 C 0.40011 0.86616 0.01756 0.0
C836 C 0.41148 0.84661 0.02513 0.0
C837 C 0.39526 0.82653 0.0282 0.0
C838 C 0.40252 0.80591 0.01316 0.0
C839 C 0.39342 0.81964 0.05371 0.0
C840 C 0.37319 0.83735 0.01974 0.0
C841 C 0.37616 0.86032 0.01409 0.0
C842 C 0.35884 0.87308 0.00345 0.0
C843 C 0.3382 0.86189 0.99788 0.0
C844 C 0.33521 0.83817 0.00286 0.0
C845 C 0.35264 0.82609 0.01468 0.0
H846 H 0.46693 0.17997 0.2784 0.0
H847 H 0.47592 0.16639 0.3512 0.0
H848 H 0.45895 0.12787 0.34624 0.0
H849 H 0.41332 0.13963 0.27006 0.0
H850 H 0.42413 0.13136 0.24217 0.0
H851 H 0.42854 0.1603 0.25256 0.0
H852 H 0.4726 0.15602 0.2464 0.0
H853 H 0.46815 0.12756 0.23568 0.0
H854 H 0.48745 0.13208 0.25959 0.0
H855 H 0.45342 0.08877 0.33235 0.0
H856 H 0.46375 0.0538 0.3108 0.0
H857 H 0.45634 0.09094 0.24674 0.0
C858 C 0.4646 0.16905 0.29336 0.0
C859 C 0.47274 0.17602 0.3151 0.0
C860 C 0.46954 0.16146 0.33439 0.0
C861 C 0.45973 0.13958 0.33175 0.0
C862 C 0.45285 0.13267 0.3098 0.0
C863 C 0.45488 0.14717 0.29093 0.0
C864 C 0.45073 0.13439 0.26865 0.0
C865 C 0.42781 0.14187 0.25773 0.0
C866 C 0.47094 0.13768 0.25164 0.0
C867 C 0.4492 0.10995 0.27768 0.0
C868 C 0.44916 0.1094 0.30156 0.0
C869 C 0.45258 0.08889 0.31373 0.0
C870 C 0.45829 0.06898 0.30137 0.0
C871 C 0.46069 0.06996 0.27722 0.0
C872 C 0.45402 0.08998 0.26522 0.0
H873 H 0.10796 0.18756 0.45417 0.0
H874 H 0.08786 0.23302 0.39838 0.0
H875 H 0.12737 0.23134 0.38292 0.0
H876 H 0.15385 0.21679 0.46774 0.0
H877 H 0.17209 0.19307 0.47616 0.0
H878 H 0.14145 0.19002 0.47752 0.0
H879 H 0.14363 0.1541 0.45114 0.0
H880 H 0.17453 0.15704 0.44975 0.0
H881 H 0.15784 0.15607 0.4236 0.0
H882 H 0.17001 0.23273 0.37906 0.0
H883 H 0.21079 0.23943 0.38848 0.0
H884 H 0.20317 0.19751 0.44999 0.0
C885 C 0.1117 0.19654 0.43824 0.0
C886 C 0.09488 0.2105 0.42755 0.0
C887 C 0.10035 0.22193 0.40671 0.0
C888 C 0.12282 0.22107 0.3978 0.0
C889 C 0.13953 0.20865 0.40989 0.0
C890 C 0.13413 0.19643 0.42965 0.0
C891 C 0.15556 0.18878 0.44237 0.0
C892 C 0.15574 0.19773 0.46739 0.0
C893 C 0.15803 0.16243 0.44166 0.0
C894 C 0.17384 0.20028 0.42781 0.0
C895 C 0.16439 0.21069 0.40856 0.0
C896 C 0.17761 0.22435 0.39389 0.0
C897 C 0.20074 0.2283 0.39957 0.0
C898 C 0.21026 0.21929 0.42021 0.0
C899 C 0.19677 0.20429 0.43385 0.0
H900 H 0.61337 0.60386 0.37257 0.0
H901 H 0.55579 0.61634 0.41852 0.0
H902 H 0.56066 0.65826 0.41302 0.0
H903 H 0.64765 0.65716 0.38914 0.0
H904 H 0.65721 0.66068 0.35981 0.0
H905 H 0.65215 0.63222 0.37124 0.0
H906 H 0.62419 0.62407 0.33745 0.0
H907 H 0.62864 0.65256 0.32622 0.0
H908 H 0.5999 0.64291 0.33288 0.0
H909 H 0.56686 0.6976 0.39653 0.0
H910 H 0.57589 0.73166 0.37272 0.0
H911 H 0.63085 0.69347 0.33935 0.0
C912 C 0.60249 0.61537 0.3824 0.0
C913 C 0.58425 0.60685 0.39602 0.0
C914 C 0.56982 0.62254 0.40789 0.0
C915 C 0.57254 0.64635 0.40499 0.0
C916 C 0.59001 0.65414 0.39049 0.0
C917 C 0.60506 0.63911 0.37978 0.0
C918 C 0.62079 0.65157 0.36318 0.0
C919 C 0.64594 0.65034 0.37134 0.0
C920 C 0.6182 0.64222 0.33849 0.0
C921 C 0.61135 0.67572 0.36522 0.0
C922 C 0.59383 0.67697 0.38127 0.0
C923 C 0.58101 0.69702 0.38443 0.0
C924 C 0.58627 0.71628 0.3708 0.0
C925 C 0.60414 0.71528 0.3542 0.0
C926 C 0.617 0.69479 0.35176 0.0
H927 H 0.60156 0.37173 0.5921 0.0
H928 H 0.58395 0.36782 0.66469 0.0
H929 H 0.62531 0.36385 0.67419 0.0
H930 H 0.64303 0.3308 0.59195 0.0
H931 H 0.6618 0.34499 0.57167 0.0
H932 H 0.6314 0.35064 0.57104 0.0
H933 H 0.6391 0.39439 0.57568 0.0
H934 H 0.66966 0.3889 0.57617 0.0
H935 H 0.6563 0.40444 0.59947 0.0
H936 H 0.66813 0.35495 0.67489 0.0
H937 H 0.70827 0.34293 0.66674 0.0
H938 H 0.69692 0.35491 0.59393 0.0
C939 C 0.60625 0.37104 0.61012 0.0
C940 C 0.58936 0.37036 0.62765 0.0
C941 C 0.5965 0.36831 0.65091 0.0
C942 C 0.61998 0.36624 0.65649 0.0
C943 C 0.63607 0.36659 0.63865 0.0
C944 C 0.62945 0.36924 0.61595 0.0
C945 C 0.64966 0.36723 0.59969 0.0
C946 C 0.64626 0.34723 0.5826 0.0
C947 C 0.65393 0.39011 0.58701 0.0
C948 C 0.66867 0.36214 0.61667 0.0
C949 C 0.66063 0.36202 0.6391 0.0
C950 C 0.6747 0.35552 0.65746 0.0
C951 C 0.69741 0.34865 0.65269 0.0
C952 C 0.70573 0.34838 0.62976 0.0
C953 C 0.69125 0.35567 0.61168 0.0
H954 H 0.98506 0.36369 0.82011 0.0
H955 H 0.99034 0.39479 0.75215 0.0
H956 H 0.97459 0.43093 0.76749 0.0
H957 H 0.93355 0.39468 0.8401 0.0
H958 H 0.94484 0.39824 0.86879 0.0
H959 H 0.95291 0.37344 0.85194 0.0
H960 H 0.99613 0.38351 0.85713 0.0
H961 H 0.98816 0.40798 0.87431 0.0
H962 H 0.00614 0.41187 0.84929 0.0
H963 H 0.96159 0.46466 0.79046 0.0
H964 H 0.95823 0.49477 0.82016 0.0
H965 H 0.96337 0.44269 0.87354 0.0
C966 C 0.98292 0.37802 0.80836 0.0
C967 C 0.98866 0.37607 0.78477 0.0
C968 C 0.98547 0.39542 0.77012 0.0
C969 C 0.97652 0.41612 0.77868 0.0
C970 C 0.97095 0.41735 0.80196 0.0
C971 C 0.97435 0.39893 0.81666 0.0
C972 C 0.9697 0.40556 0.84143 0.0
C973 C 0.94902 0.39218 0.85113 0.0
C974 C 0.99132 0.40203 0.85641 0.0
C975 C 0.96402 0.43084 0.83843 0.0
C976 C 0.96415 0.43713 0.81545 0.0
C977 C 0.96108 0.45991 0.80848 0.0
C978 C 0.95897 0.47688 0.82548 0.0
C979 C 0.96032 0.47097 0.8491 0.0
C980 C 0.96194 0.44757 0.85558 0.0
H981 H 0.97885 0.79788 0.12303 0.0
H982 H 0.98365 0.72935 0.15243 0.0
H983 H 0.94376 0.73265 0.16617 0.0
H984 H 0.93198 0.82105 0.16772 0.0
H985 H 0.9194 0.83744 0.14451 0.0
H986 H 0.95024 0.83399 0.14618 0.0
H987 H 0.95019 0.81818 0.1046 0.0
H988 H 0.91962 0.82076 0.10291 0.0
H989 H 0.933 0.79317 0.09788 0.0
H990 H 0.90187 0.73655 0.16225 0.0
H991 H 0.86307 0.7433 0.1462 0.0
H992 H 0.88515 0.80987 0.12074 0.0
C993 C 0.97219 0.78416 0.13374 0.0
C994 C 0.9842 0.76312 0.13605 0.0
C995 C 0.97457 0.74544 0.14984 0.0
C996 C 0.95193 0.74727 0.15796 0.0
C997 C 0.9395 0.76721 0.15285 0.0
C998 C 0.94964 0.78583 0.14188 0.0
C999 C 0.93182 0.80335 0.13435 0.0
C1000 C 0.93346 0.82525 0.14908 0.0
C1001 C 0.93378 0.80913 0.10842 0.0
C1002 C 0.91006 0.79018 0.13975 0.0
C1003 C 0.91472 0.76979 0.15125 0.0
C1004 C 0.89786 0.75289 0.15419 0.0
C1005 C 0.87597 0.7567 0.14475 0.0
C1006 C 0.8712 0.77719 0.13243 0.0
C1007 C 0.8882 0.7944 0.13072 0.0
H1008 H 0.70584 0.11376 0.94747 0.0
H1009 H 0.76509 0.11646 0.99274 0.0
H1010 H 0.78794 0.13452 0.96187 0.0
H1011 H 0.73271 0.09506 0.90152 0.0
H1012 H 0.7174 0.11137 0.87994 0.0
H1013 H 0.70387 0.10525 0.907 0.0
H1014 H 0.69705 0.14884 0.91381 0.0
H1015 H 0.71046 0.15515 0.8865 0.0
H1016 H 0.72099 0.16856 0.91242 0.0
H1017 H 0.80657 0.1416 0.92448 0.0
H1018 H 0.81894 0.13877 0.88412 0.0
H1019 H 0.74745 0.13456 0.86266 0.0
C1020 C 0.72338 0.11901 0.95104 0.0
C1021 C 0.73373 0.11388 0.97238 0.0
C1022 C 0.75677 0.12062 0.97657 0.0
C1023 C 0.76986 0.13092 0.95914 0.0
C1024 C 0.75949 0.13477 0.93784 0.0
C1025 C 0.73658 0.12948 0.93387 0.0
C1026 C 0.73046 0.13215 0.9087 0.0
C1027 C 0.72056 0.10962 0.89873 0.0
C1028 C 0.71376 0.15239 0.90515 0.0
C1029 C 0.75395 0.13759 0.89887 0.0
C1030 C 0.77037 0.13964 0.91598 0.0
C1031 C 0.7938 0.14095 0.91092 0.0
C1032 C 0.80068 0.13935 0.88786 0.0
C1033 C 0.78415 0.13644 0.87016 0.0
C1034 C 0.7605 0.13669 0.8758 0.0
H1035 H 0.21304 0.54899 0.15741 0.0
H1036 H 0.16583 0.49153 0.15324 0.0
H1037 H 0.17299 0.48258 0.19413 0.0
H1038 H 0.25377 0.52262 0.18149 0.0
H1039 H 0.2644 0.54469 0.20056 0.0
H1040 H 0.24857 0.55269 0.17545 0.0
H1041 H 0.21942 0.5752 0.2006 0.0
H1042 H 0.23538 0.5672 0.22605 0.0
H1043 H 0.20505 0.5609 0.22414 0.0
H1044 H 0.19394 0.47215 0.22893 0.0
H1045 H 0.22745 0.4604 0.25227 0.0
H1046 H 0.26206 0.52388 0.23486 0.0
C1047 C 0.20317 0.53544 0.16558 0.0
C1048 C 0.18877 0.52108 0.15238 0.0
C1049 C 0.17684 0.50281 0.1632 0.0
C1050 C 0.18068 0.49775 0.18649 0.0
C1051 C 0.19641 0.5112 0.19873 0.0
C1052 C 0.20723 0.52998 0.18868 0.0
C1053 C 0.22711 0.53838 0.2033 0.0
C1054 C 0.24976 0.5396 0.18937 0.0
C1055 C 0.22139 0.56181 0.21417 0.0
C1056 C 0.22771 0.51963 0.22142 0.0
C1057 C 0.20907 0.50486 0.21932 0.0
C1058 C 0.20808 0.48404 0.23139 0.0
C1059 C 0.22713 0.47747 0.24468 0.0
C1060 C 0.24685 0.49161 0.24555 0.0
C1061 C 0.24663 0.5134 0.23495 0.0
H1062 H 0.87484 -0.00075 0.43868 0.0
H1063 H 0.85292 0.07049 0.43002 0.0
H1064 H 0.86853 0.0706 0.3913 0.0
H1065 H 0.92451 -0.00061 0.39527 0.0
H1066 H 0.91606 0.97143 0.38479 0.0
H1067 H 0.91191 0.97869 0.4147 0.0
H1068 H 0.86844 0.96882 0.4114 0.0
H1069 H 0.87271 0.96112 0.38187 0.0
H1070 H 0.85147 0.98256 0.38926 0.0
H1071 H 0.87758 0.06192 0.35185 0.0
H1072 H 0.8705 0.0434 0.31474 0.0
H1073 H 0.88317 0.97653 0.34554 0.0
C1074 C 0.87351 0.01505 0.4289 0.0
C1075 C 0.86291 0.03496 0.43817 0.0
C1076 C 0.86173 0.05513 0.42431 0.0
C1077 C 0.87065 0.05545 0.40198 0.0
C1078 C 0.88036 0.03538 0.39324 0.0
C1079 C 0.88147 0.01538 0.40616 0.0
C1080 C 0.88723 0.99482 0.39119 0.0
C1081 C 0.91137 0.98554 0.39683 0.0
C1082 C 0.86886 0.97575 0.39356 0.0
C1083 C 0.8868 0.00606 0.36761 0.0
C1084 C 0.88431 0.02971 0.36936 0.0
C1085 C 0.88008 0.04352 0.35018 0.0
C1086 C 0.8762 0.03281 0.32901 0.0
C1087 C 0.87614 0.00849 0.32738 0.0
C1088 C 0.88329 0.99516 0.34645 0.0
H1089 H 0.32762 0.57685 0.61013 0.0
H1090 H 0.25945 0.58486 0.58083 0.0
H1091 H 0.24441 0.59639 0.61892 0.0
H1092 H 0.31193 0.55121 0.65969 0.0
H1093 H 0.33218 0.56524 0.67855 0.0
H1094 H 0.33876 0.56215 0.64848 0.0
H1095 H 0.34448 0.60624 0.64453 0.0
H1096 H 0.3384 0.60949 0.6748 0.0
H1097 H 0.32199 0.62552 0.65384 0.0
H1098 H 0.23553 0.59793 0.66064 0.0
H1099 H 0.23383 0.59507 0.70258 0.0
H1100 H 0.30862 0.59047 0.70519 0.0
C1101 C 0.30974 0.58193 0.61166 0.0
C1102 C 0.29466 0.58022 0.59269 0.0
C1103 C 0.27127 0.5865 0.59517 0.0
C1104 C 0.2626 0.59295 0.61672 0.0
C1105 C 0.2777 0.5935 0.63538 0.0
C1106 C 0.30092 0.58878 0.63296 0.0
C1107 C 0.31307 0.58885 0.65604 0.0
C1108 C 0.32465 0.56547 0.66096 0.0
C1109 C 0.33052 0.60871 0.65738 0.0
C1110 C 0.29281 0.59297 0.67192 0.0
C1111 C 0.27263 0.5957 0.65963 0.0
C1112 C 0.25132 0.59683 0.67048 0.0
C1113 C 0.25061 0.59532 0.69452 0.0
C1114 C 0.27114 0.59311 0.70769 0.0
C1115 C 0.29252 0.59219 0.69598 0.0
H1116 H 0.01562 0.1813 0.54839 0.0
H1117 H 0.06863 0.17541 0.49612 0.0
H1118 H 0.09218 0.15178 0.52235 0.0
H1119 H 0.05489 0.18114 0.59961 0.0
H1120 H 0.03558 0.16353 0.61639 0.0
H1121 H 0.02424 0.18299 0.59497 0.0
H1122 H 0.00288 0.14901 0.57546 0.0
H1123 H 0.01422 0.12947 0.59672 0.0
H1124 H 0.01901 0.12402 0.56655 0.0
H1125 H 0.10816 0.12583 0.55188 0.0
H1126 H 0.11537 0.09797 0.58292 0.0
H1127 H 0.05229 0.11982 0.61683 0.0
C1128 C 0.03246 0.17548 0.54285 0.0
C1129 C 0.0405 0.18023 0.52041 0.0
C1130 C 0.06227 0.1719 0.51332 0.0
C1131 C 0.07582 0.15858 0.52811 0.0
C1132 C 0.06728 0.15363 0.54994 0.0
C1133 C 0.04614 0.16176 0.55739 0.0
C1134 C 0.04018 0.15186 0.58085 0.0
C1135 C 0.03863 0.17103 0.59903 0.0
C1136 C 0.01775 0.13776 0.57982 0.0
C1137 C 0.06095 0.1365 0.58498 0.0
C1138 C 0.07648 0.1381 0.56707 0.0
C1139 C 0.09633 0.12466 0.56625 0.0
C1140 C 0.10033 0.1089 0.58407 0.0
C1141 C 0.0845 0.10654 0.60251 0.0
C1142 C 0.06474 0.12092 0.60303 0.0
H1143 H 0.20601 0.85189 0.89096 0.0
H1144 H 0.24403 0.79423 0.86299 0.0
H1145 H 0.21249 0.78686 0.83535 0.0
H1146 H 0.15372 0.82594 0.89203 0.0
H1147 H 0.13727 0.85119 0.88477 0.0
H1148 H 0.16487 0.85428 0.8984 0.0
H1149 H 0.17747 0.8806 0.86396 0.0
H1150 H 0.14984 0.87639 0.85042 0.0
H1151 H 0.1759 0.86951 0.83502 0.0
H1152 H 0.17448 0.78093 0.817 0.0
H1153 H 0.13336 0.77801 0.80739 0.0
H1154 H 0.11948 0.83967 0.84733 0.0
C1155 C 0.20818 0.83855 0.87815 0.0
C1156 C 0.22757 0.82388 0.87866 0.0
C1157 C 0.22942 0.80582 0.86246 0.0
C1158 C 0.21161 0.80154 0.84678 0.0
C1159 C 0.19215 0.81561 0.84748 0.0
C1160 C 0.19044 0.83398 0.86253 0.0
C1161 C 0.16658 0.84457 0.86187 0.0
C1162 C 0.15497 0.84396 0.88571 0.0
C1163 C 0.16751 0.86923 0.85224 0.0
C1164 C 0.15476 0.8284 0.84525 0.0
C1165 C 0.16993 0.81211 0.8368 0.0
C1166 C 0.16257 0.79396 0.823 0.0
C1167 C 0.1391 0.79239 0.81775 0.0
C1168 C 0.12317 0.80873 0.82647 0.0
C1169 C 0.13125 0.82709 0.84017 0.0
H1170 H 0.54776 0.88432 0.08701 0.0
H1171 H 0.56956 0.93995 0.04204 0.0
H1172 H 0.56194 0.96796 0.07314 0.0
H1173 H 0.50096 0.91208 0.10885 0.0
H1174 H 0.50298 0.90097 0.13779 0.0
H1175 H 0.51448 0.8846 0.11416 0.0
H1176 H 0.55449 0.88316 0.13356 0.0
H1177 H 0.54313 0.89898 0.15769 0.0
H1178 H 0.5681 0.90956 0.14259 0.0
H1179 H 0.54844 0.99 0.10741 0.0
H1180 H 0.53098 0.00472 0.14339 0.0
H1181 H 0.51532 0.93489 0.16469 0.0
C1182 C 0.55182 0.90226 0.08399 0.0
C1183 C 0.55955 0.91002 0.06225 0.0
C1184 C 0.56386 0.93373 0.05869 0.0
C1185 C 0.55954 0.94972 0.07621 0.0
C1186 C 0.55081 0.94162 0.09706 0.0
C1187 C 0.54718 0.91843 0.10112 0.0
C1188 C 0.53548 0.91441 0.12408 0.0
C1189 C 0.51209 0.90231 0.12101 0.0
C1190 C 0.55125 0.90073 0.14045 0.0
C1191 C 0.53249 0.93905 0.13201 0.0
C1192 C 0.5418 0.95443 0.11634 0.0
C1193 C 0.54113 0.97815 0.11983 0.0
C1194 C 0.53107 0.98635 0.14012 0.0
C1195 C 0.5215 0.9709 0.15639 0.0
C1196 C 0.52204 0.947 0.15218 0.0
H1197 H 0.36146 0.23278 0.39295 0.0
H1198 H 0.38918 0.25727 0.45763 0.0
H1199 H 0.4224 0.27451 0.43694 0.0
H1200 H 0.41515 0.21881 0.36526 0.0
H1201 H 0.40557 0.22877 0.33745 0.0
H1202 H 0.38498 0.21789 0.35791 0.0
H1203 H 0.36206 0.25621 0.35452 0.0
H1204 H 0.38297 0.26743 0.33451 0.0
H1205 H 0.37636 0.28312 0.36044 0.0
H1206 H 0.45303 0.28797 0.40881 0.0
H1207 H 0.47917 0.29522 0.37596 0.0
H1208 H 0.42911 0.26437 0.3298 0.0
C1209 C 0.37485 0.24131 0.40273 0.0
C1210 C 0.37324 0.24333 0.42683 0.0
C1211 C 0.39051 0.25534 0.43913 0.0
C1212 C 0.40924 0.26528 0.42752 0.0
C1213 C 0.41009 0.26339 0.40361 0.0
C1214 C 0.39333 0.2517 0.39138 0.0
C1215 C 0.39791 0.25249 0.36579 0.0
C1216 C 0.4011 0.22804 0.35604 0.0
C1217 C 0.37869 0.26559 0.35307 0.0
C1218 C 0.42021 0.26591 0.36553 0.0
C1219 C 0.42696 0.27216 0.38746 0.0
C1220 C 0.44779 0.28339 0.39153 0.0
C1221 C 0.46247 0.28755 0.37276 0.0
C1222 C 0.45615 0.28051 0.35027 0.0
C1223 C 0.43438 0.2703 0.34667 0.0
H1224 H 0.51787 0.38107 0.5275 0.0
H1225 H 0.47501 0.43604 0.55431 0.0
H1226 H 0.48741 0.46129 0.52237 0.0
H1227 H 0.56449 0.41559 0.51257 0.0
H1228 H 0.57185 0.39974 0.48693 0.0
H1229 H 0.55734 0.38553 0.51032 0.0
H1230 H 0.52437 0.37314 0.48187 0.0
H1231 H 0.53976 0.38729 0.45889 0.0
H1232 H 0.51026 0.39493 0.46486 0.0
H1233 H 0.5086 0.48205 0.49152 0.0
H1234 H 0.53496 0.49616 0.46113 0.0
H1235 H 0.56286 0.42761 0.45281 0.0
C1236 C 0.51039 0.39806 0.52615 0.0
C1237 C 0.4952 0.40651 0.54317 0.0
C1238 C 0.48654 0.42923 0.54132 0.0
C1239 C 0.49348 0.44367 0.52327 0.0
C1240 C 0.50908 0.43507 0.5072 0.0
C1241 C 0.51724 0.41273 0.50827 0.0
C1242 C 0.5352 0.40835 0.48982 0.0
C1243 C 0.55859 0.40191 0.50055 0.0
C1244 C 0.52691 0.38983 0.47285 0.0
C1245 C 0.5362 0.43186 0.47853 0.0
C1246 C 0.52098 0.447 0.48889 0.0
C1247 C 0.52014 0.47022 0.48289 0.0
C1248 C 0.53507 0.4781 0.4657 0.0
C1249 C 0.55032 0.46279 0.45454 0.0
C1250 C 0.55097 0.43942 0.46098 0.0
H1251 H 0.92943 0.30849 0.73044 0.0
H1252 H 0.977 0.27184 0.68589 0.0
H1253 H 0.95234 0.28114 0.6523 0.0
H1254 H 0.87751 0.29185 0.70256 0.0
H1255 H 0.8639 0.31945 0.70673 0.0
H1256 H 0.88536 0.30954 0.72681 0.0
H1257 H 0.90878 0.34698 0.71991 0.0
H1258 H 0.88754 0.35686 0.69954 0.0
H1259 H 0.91732 0.35461 0.69104 0.0
H1260 H 0.92096 0.29293 0.62407 0.0
H1261 H 0.88587 0.30651 0.60375 0.0
H1262 H 0.8611 0.33755 0.66674 0.0
C1263 C 0.93466 0.30222 0.71368 0.0
C1264 C 0.95501 0.28924 0.71079 0.0
C1265 C 0.96136 0.28169 0.68848 0.0
C1266 C 0.94753 0.28698 0.66933 0.0
C1267 C 0.92767 0.30007 0.67282 0.0
C1268 C 0.92135 0.30763 0.69445 0.0
C1269 C 0.89931 0.32149 0.69378 0.0
C1270 C 0.88041 0.30988 0.70832 0.0
C1271 C 0.9035 0.34647 0.70153 0.0
C1272 C 0.89392 0.3203 0.66838 0.0
C1273 C 0.91042 0.30783 0.65653 0.0
C1274 C 0.90817 0.30304 0.63312 0.0
C1275 C 0.88832 0.31082 0.62172 0.0
C1276 C 0.87125 0.32345 0.63368 0.0
C1277 C 0.87434 0.3286 0.65715 0.0
H1278 H 0.97048 0.70121 0.01181 0.0
H1279 H 0.03202 0.67831 0.0475 0.0
H1280 H 0.02419 0.63827 0.03546 0.0
H1281 H 0.93477 0.64905 0.02134 0.0
H1282 H 0.9228 0.65015 0.99272 0.0
H1283 H 0.9311 0.67641 0.00703 0.0
H1284 H 0.95763 0.68707 0.97269 0.0
H1285 H 0.94919 0.66104 0.95823 0.0
H1286 H 0.97925 0.66681 0.96338 0.0
H1287 H 0.01187 0.60178 0.01699 0.0
H1288 H -0.00144 0.5721 0.98963 0.0
H1289 H 0.94583 0.61858 0.96458 0.0
C1290 C 0.98197 0.68763 0.01749 0.0
C1291 C 0.00167 0.69268 0.03079 0.0
C1292 C 0.01679 0.6747 0.03735 0.0
C1293 C 0.01236 0.65191 0.03078 0.0
C1294 C 0.99286 0.64748 0.01752 0.0
C1295 C 0.97804 0.66485 0.0107 0.0
C1296 C 0.96001 0.65594 0.99408 0.0
C1297 C 0.93573 0.65801 0.00442 0.0
C1298 C 0.96164 0.66845 0.97072 0.0
C1299 C 0.96735 0.63097 0.99217 0.0
C1300 C 0.98603 0.62637 0.00624 0.0
C1301 C 0.99706 0.60506 0.00616 0.0
C1302 C 0.98939 0.58832 0.99064 0.0
C1303 C 0.97105 0.59303 0.97529 0.0
C1304 C 0.95941 0.61434 0.97663 0.0
H1305 H 0.74578 0.73257 0.16671 0.0
H1306 H 0.69719 0.76281 0.11883 0.0
H1307 H 0.6689 0.76738 0.15043 0.0
H1308 H 0.70323 0.703 0.20501 0.0
H1309 H 0.71954 0.70998 0.23047 0.0
H1310 H 0.73415 0.70543 0.20346 0.0
H1311 H 0.75326 0.74562 0.20706 0.0
H1312 H 0.73861 0.75038 0.23391 0.0
H1313 H 0.73534 0.77074 0.21066 0.0
H1314 H 0.64799 0.77261 0.18771 0.0
H1315 H 0.63612 0.77906 0.22788 0.0
H1316 H 0.69908 0.74648 0.25181 0.0
C1317 C 0.72884 0.7393 0.16277 0.0
C1318 C 0.72338 0.74695 0.14035 0.0
C1319 C 0.70147 0.75666 0.13592 0.0
C1320 C 0.68535 0.75923 0.15372 0.0
C1321 C 0.69151 0.75208 0.17581 0.0
C1322 C 0.71272 0.74227 0.1804 0.0
C1323 C 0.71615 0.73849 0.20598 0.0
C1324 C 0.71839 0.71269 0.21156 0.0
C1325 C 0.73707 0.75213 0.21492 0.0
C1326 C 0.6938 0.74824 0.21515 0.0
C1327 C 0.67968 0.75567 0.19745 0.0
C1328 C 0.65876 0.76659 0.20169 0.0
C1329 C 0.65223 0.77029 0.22461 0.0
C1330 C 0.66668 0.7633 0.24304 0.0
C1331 C 0.68753 0.75177 0.23815 0.0
H1332 H 0.63583 0.04763 0.10733 0.0
H1333 H 0.59333 0.09494 0.06794 0.0
H1334 H 0.56468 0.09521 0.09954 0.0
H1335 H 0.5892 0.01405 0.13069 0.0
H1336 H 0.60339 0.00975 0.15796 0.0
H1337 H 0.62022 0.01362 0.1322 0.0
H1338 H 0.64171 0.04762 0.15156 0.0
H1339 H 0.62464 0.04415 0.17722 0.0
H1340 H 0.62543 0.07161 0.16268 0.0
H1341 H 0.54036 0.08929 0.13501 0.0
H1342 H 0.52139 0.07654 0.17094 0.0
H1343 H 0.58063 0.03379 0.18702 0.0
C1344 C 0.62035 0.05777 0.10509 0.0
C1345 C 0.61669 0.07114 0.08505 0.0
C1346 C 0.59645 0.08463 0.08317 0.0
C1347 C 0.58015 0.0849 0.10102 0.0
C1348 C 0.58447 0.07168 0.12062 0.0
C1349 C 0.60402 0.05828 0.12269 0.0
C1350 C 0.60451 0.04536 0.14533 0.0
C1351 C 0.60431 0.01915 0.14129 0.0
C1352 C 0.6253 0.05263 0.16006 0.0
C1353 C 0.58209 0.05355 0.15573 0.0
C1354 C 0.57077 0.06871 0.14122 0.0
C1355 C 0.54914 0.0776 0.14659 0.0
C1356 C 0.53854 0.07031 0.16704 0.0
C1357 C 0.54965 0.05439 0.18185 0.0
C1358 C 0.57191 0.04636 0.1763 0.0
H1359 H 0.30975 0.34776 0.30408 0.0
H1360 H 0.30937 0.4121 0.34186 0.0
H1361 H 0.30822 0.39052 0.37863 0.0
H1362 H 0.27156 0.31626 0.34165 0.0
H1363 H 0.28721 0.28959 0.33878 0.0
H1364 H 0.2874 0.31028 0.31563 0.0
H1365 H 0.33211 0.31084 0.31654 0.0
H1366 H 0.33192 0.29019 0.33971 0.0
H1367 H 0.34672 0.31725 0.34317 0.0
H1368 H 0.30675 0.36156 0.41137 0.0
H1369 H 0.30548 0.32757 0.43718 0.0
H1370 H 0.30828 0.28261 0.37753 0.0
C1371 C 0.3091 0.35726 0.32009 0.0
C1372 C 0.3095 0.38155 0.32019 0.0
C1373 C 0.30915 0.39345 0.34148 0.0
C1374 C 0.30846 0.38136 0.36241 0.0
C1375 C 0.30835 0.35737 0.36173 0.0
C1376 C 0.30872 0.34547 0.34111 0.0
C1377 C 0.30904 0.31971 0.34507 0.0
C1378 C 0.28752 0.3083 0.33467 0.0
C1379 C 0.33127 0.30888 0.33556 0.0
C1380 C 0.30856 0.31899 0.3711 0.0
C1381 C 0.30812 0.34084 0.38046 0.0
C1382 C 0.3072 0.34435 0.40422 0.0
C1383 C 0.30652 0.32497 0.41875 0.0
C1384 C 0.30685 0.30244 0.4094 0.0
C1385 C 0.30809 0.29957 0.38528 0.0
H1386 H 0.90031 0.02804 0.59911 0.0
H1387 H 0.91985 0.97329 0.55211 0.0
H1388 H 0.96016 0.97709 0.5644 0.0
H1389 H 0.94819 0.06331 0.58919 0.0
H1390 H 0.95164 0.07282 0.61852 0.0
H1391 H 0.92364 0.06443 0.60817 0.0
H1392 H 0.91999 0.0345 0.64109 0.0
H1393 H 0.94785 0.043 0.6518 0.0
H1394 H 0.94229 0.01323 0.64501 0.0
H1395 H 0.99829 0.98973 0.57748 0.0
H1396 H 0.03266 0.00712 0.59468 0.0
H1397 H 0.98957 0.05324 0.63486 0.0
C1398 C 0.91302 0.01663 0.59167 0.0
C1399 C 0.90685 0.00031 0.57463 0.0
C1400 C 0.92401 0.98563 0.56542 0.0
C1401 C 0.94702 0.98779 0.57215 0.0
C1402 C 0.9526 0.00454 0.58834 0.0
C1403 C 0.93613 0.01844 0.59836 0.0
C1404 C 0.94707 0.03553 0.61486 0.0
C1405 C 0.94235 0.0605 0.60722 0.0
C1406 C 0.93881 0.03131 0.63966 0.0
C1407 C 0.97231 0.02935 0.61207 0.0
C1408 C 0.97495 0.0115 0.59655 0.0
C1409 C 0.99648 0.00347 0.58992 0.0
C1410 C 0.01592 0.01368 0.59965 0.0
C1411 C 0.0138 0.0316 0.61608 0.0
C1412 C 0.99166 0.0395 0.62243 0.0
H1413 H 0.26666 0.72623 0.92538 0.0
H1414 H 0.32368 0.76746 0.89995 0.0
H1415 H 0.33801 0.73412 0.878 0.0
H1416 H 0.29839 0.67115 0.92965 0.0
H1417 H 0.27404 0.65451 0.91999 0.0
H1418 H 0.26953 0.68091 0.93566 0.0
H1419 H 0.24417 0.69649 0.90232 0.0
H1420 H 0.24862 0.67019 0.88659 0.0
H1421 H 0.25578 0.69745 0.87353 0.0
H1422 H 0.34438 0.69763 0.85632 0.0
H1423 H 0.34178 0.66105 0.83551 0.0
H1424 H 0.28104 0.64298 0.87558 0.0
C1425 C 0.28237 0.72813 0.9155 0.0
C1426 C 0.29408 0.74944 0.91444 0.0
C1427 C 0.3144 0.75131 0.90105 0.0
C1428 C 0.32276 0.73244 0.88859 0.0
C1429 C 0.31067 0.71177 0.88974 0.0
C1430 C 0.29093 0.70946 0.90287 0.0
C1431 C 0.28033 0.68581 0.89984 0.0
C1432 C 0.2806 0.6723 0.92264 0.0
C1433 C 0.25578 0.68761 0.88998 0.0
C1434 C 0.29687 0.67546 0.88251 0.0
C1435 C 0.31436 0.69062 0.87713 0.0
C1436 C 0.33091 0.68546 0.86059 0.0
C1437 C 0.32927 0.66446 0.84884 0.0
C1438 C 0.31109 0.64876 0.85354 0.0
C1439 C 0.29509 0.65432 0.87114 0.0
H1440 H 0.14278 0.51798 0.98401 0.0
H1441 H 0.12018 0.45984 0.02523 0.0
H1442 H 0.08221 0.46114 0.006 0.0
H1443 H 0.09192 0.54921 0.98729 0.0
H1444 H 0.09292 0.56027 0.95828 0.0
H1445 H 0.11921 0.55291 0.97295 0.0
H1446 H 0.1304 0.52531 0.93973 0.0
H1447 H 0.1042 0.53275 0.92481 0.0
H1448 H 0.11063 0.50301 0.93108 0.0
H1449 H 0.04556 0.47187 0.98599 0.0
H1450 H 0.01339 0.48933 0.96442 0.0
H1451 H 0.06002 0.54051 0.93603 0.0
C1452 C 0.12995 0.50534 0.98881 0.0
C1453 C 0.13437 0.48883 0.00618 0.0
C1454 C 0.11722 0.47243 0.01178 0.0
C1455 C 0.0956 0.47313 0.00104 0.0
C1456 C 0.09157 0.49016 0.98456 0.0
C1457 C 0.10837 0.50576 0.97822 0.0
C1458 C 0.0993 0.52313 0.96096 0.0
C1459 C 0.10093 0.54783 0.97045 0.0
C1460 C 0.11188 0.5209 0.93777 0.0
C1461 C 0.07453 0.51528 0.9591 0.0
C1462 C 0.07047 0.49618 0.97278 0.0
C1463 C 0.0486 0.4866 0.97495 0.0
C1464 C 0.03042 0.49675 0.96274 0.0
C1465 C 0.03423 0.51623 0.9485 0.0
C1466 C 0.05663 0.52549 0.9466 0.0
H1467 H 0.79327 0.82113 0.16326 0.0
H1468 H 0.75629 0.85367 0.10697 0.0
H1469 H 0.76917 0.89194 0.12075 0.0
H1470 H 0.78357 0.86505 0.20633 0.0
H1471 H 0.812 0.8614 0.21828 0.0
H1472 H 0.79778 0.83745 0.20474 0.0
H1473 H 0.83299 0.83259 0.17755 0.0
H1474 H 0.84698 0.85703 0.19051 0.0
H1475 H 0.842 0.85649 0.15987 0.0
H1476 H 0.78752 0.92676 0.14087 0.0
H1477 H 0.80727 0.95448 0.16661 0.0
H1478 H 0.8333 0.89745 0.2074 0.0
C1479 C 0.78726 0.83627 0.15414 0.0
C1480 C 0.77355 0.83443 0.13421 0.0
C1481 C 0.76665 0.85473 0.12244 0.0
C1482 C 0.77402 0.8765 0.13003 0.0
C1483 C 0.78845 0.87754 0.14921 0.0
C1484 C 0.79481 0.8579 0.16113 0.0
C1485 C 0.8111 0.86326 0.1806 0.0
C1486 C 0.80048 0.85638 0.20386 0.0
C1487 C 0.83466 0.85165 0.1769 0.0
C1488 C 0.81277 0.88906 0.17809 0.0
C1489 C 0.79965 0.89711 0.15993 0.0
C1490 C 0.7979 0.92059 0.15508 0.0
C1491 C 0.80922 0.93619 0.16971 0.0
C1492 C 0.82209 0.9282 0.1889 0.0
C1493 C 0.82424 0.90426 0.19261 0.0
H1494 H 0.49734 0.50377 0.44474 0.0
H1495 H 0.48809 0.52802 0.37476 0.0
H1496 H 0.44781 0.53902 0.38403 0.0
H1497 H 0.4378 0.48097 0.45226 0.0
H1498 H 0.43721 0.48945 0.48211 0.0
H1499 H 0.46405 0.48128 0.46885 0.0
H1500 H 0.48178 0.52026 0.48114 0.0
H1501 H 0.45496 0.5288 0.49405 0.0
H1502 H 0.46809 0.54675 0.47235 0.0
H1503 H 0.41067 0.55257 0.40308 0.0
H1504 H 0.37807 0.56284 0.42876 0.0
H1505 H 0.41146 0.52759 0.4854 0.0
C1506 C 0.48666 0.51084 0.43122 0.0
C1507 C 0.49567 0.51506 0.40908 0.0
C1508 C 0.48129 0.52443 0.39177 0.0
C1509 C 0.4585 0.53083 0.39694 0.0
C1510 C 0.45038 0.5272 0.4193 0.0
C1511 C 0.4639 0.51685 0.43597 0.0
C1512 C 0.4516 0.51552 0.4589 0.0
C1513 C 0.44741 0.49031 0.46593 0.0
C1514 C 0.46491 0.52862 0.4777 0.0
C1515 C 0.42933 0.52756 0.45284 0.0
C1516 C 0.42889 0.53422 0.42994 0.0
C1517 C 0.41069 0.5471 0.4209 0.0
C1518 C 0.39243 0.55307 0.4356 0.0
C1519 C 0.39249 0.546 0.45894 0.0
C1520 C 0.41108 0.53298 0.46754 0.0
H1521 H 0.80602 0.23565 0.63797 0.0
H1522 H 0.77889 0.28848 0.6834 0.0
H1523 H 0.76542 0.2586 0.71024 0.0
H1524 H 0.76195 0.19297 0.64733 0.0
H1525 H 0.78151 0.16884 0.6478 0.0
H1526 H 0.78852 0.19422 0.63133 0.0
H1527 H 0.82719 0.19804 0.65329 0.0
H1528 H 0.82037 0.17251 0.6696 0.0
H1529 H 0.82706 0.19899 0.68433 0.0
H1530 H 0.75348 0.22384 0.73137 0.0
H1531 H 0.74953 0.18572 0.74954 0.0
H1532 H 0.78665 0.15457 0.69273 0.0
C1533 C 0.79737 0.24083 0.65366 0.0
C1534 C 0.7935 0.26436 0.65863 0.0
C1535 C 0.78225 0.27058 0.67935 0.0
C1536 C 0.7743 0.25373 0.6946 0.0
C1537 C 0.77805 0.23073 0.6891 0.0
C1538 C 0.78978 0.22417 0.66947 0.0
C1539 C 0.7927 0.19818 0.66863 0.0
C1540 C 0.78043 0.18796 0.64752 0.0
C1541 C 0.81835 0.19155 0.66899 0.0
C1542 C 0.78074 0.1913 0.69087 0.0
C1543 C 0.77203 0.2104 0.70206 0.0
C1544 C 0.76022 0.20871 0.72283 0.0
C1545 C 0.75784 0.18695 0.7329 0.0
C1546 C 0.76755 0.16721 0.7224 0.0
C1547 C 0.77891 0.16941 0.70095 0.0
H1548 H 0.13638 0.57855 0.08016 0.0
H1549 H 0.17269 0.58705 0.01542 0.0
H1550 H 0.15849 0.62723 0.01272 0.0
H1551 H 0.08663 0.61326 0.06666 0.0
H1552 H 0.08472 0.62522 0.09523 0.0
H1553 H 0.0967 0.5969 0.09109 0.0
H1554 H 0.13396 0.60965 0.11214 0.0
H1555 H 0.12221 0.6381 0.1161 0.0
H1556 H 0.14955 0.63448 0.10184 0.0
H1557 H 0.13961 0.66618 0.01698 0.0
H1558 H 0.11812 0.70131 0.02841 0.0
H1559 H 0.09734 0.66811 0.09188 0.0
C1560 C 0.14103 0.58876 0.06523 0.0
C1561 C 0.15526 0.57972 0.04778 0.0
C1562 C 0.16159 0.59373 0.02884 0.0
C1563 C 0.15368 0.61652 0.02722 0.0
C1564 C 0.13995 0.62506 0.04494 0.0
C1565 C 0.13378 0.61164 0.06364 0.0
C1566 C 0.1196 0.62512 0.08081 0.0
C1567 C 0.09548 0.61449 0.0836 0.0
C1568 C 0.13208 0.62694 0.1041 0.0
C1569 C 0.11851 0.6482 0.06877 0.0
C1570 C 0.13021 0.64778 0.04801 0.0
C1571 C 0.13061 0.66677 0.03329 0.0
C1572 C 0.11846 0.68657 0.03987 0.0
C1573 C 0.10656 0.6873 0.06112 0.0
C1574 C 0.10683 0.668 0.07583 0.0
H1575 H 0.62324 0.01183 0.9958 0.0
H1576 H 0.69138 0.9856 0.01191 0.0
H1577 H 0.67962 0.94695 -0.00091 0.0
H1578 H 0.5934 0.9656 0.01679 0.0
H1579 H 0.57109 0.96523 0.9952 0.0
H1580 H 0.5856 0.99173 0.00191 0.0
H1581 H 0.59738 0.99704 0.95929 0.0
H1582 H 0.58256 0.97073 0.95206 0.0
H1583 H 0.61251 0.97424 0.94462 0.0
H1584 H 0.65894 0.9103 0.99017 0.0
H1585 H 0.63071 0.87865 0.98543 0.0
H1586 H 0.57666 0.92863 0.97358 0.0
C1587 C 0.63589 0.99811 0.99604 0.0
C1588 C 0.65821 0.00176 0.00495 0.0
C1589 C 0.67411 0.98323 0.00538 0.0
C1590 C 0.66765 0.96121 0.99792 0.0
C1591 C 0.64532 0.95804 0.98979 0.0
C1592 C 0.62972 0.97603 0.98861 0.0
C1593 C 0.60616 0.96763 0.98128 0.0
C1594 C 0.588 0.97285 -0.0001 0.0
C1595 C 0.59925 0.97803 0.95792 0.0
C1596 C 0.61074 0.94203 0.97928 0.0
C1597 C 0.6335 0.93686 0.98403 0.0
C1598 C 0.64124 0.91416 0.98576 0.0
C1599 C 0.62519 0.89632 0.98303 0.0
C1600 C 0.60179 0.9013 0.97848 0.0
C1601 C 0.59465 0.92442 0.97606 0.0
H1602 H 0.46767 0.3337 0.29204 0.0
H1603 H 0.48342 0.31386 0.22164 0.0
H1604 H 0.45706 0.34402 0.20749 0.0
H1605 H 0.41007 0.3431 0.28512 0.0
H1606 H 0.40827 0.36783 0.30376 0.0
H1607 H 0.43036 0.34659 0.30836 0.0
H1608 H 0.46181 0.37819 0.30534 0.0
H1609 H 0.43976 0.39964 0.30097 0.0
H1610 H 0.46272 0.39659 0.28031 0.0
H1611 H 0.42592 0.37337 0.20123 0.0
H1612 H 0.39308 0.40029 0.20331 0.0
H1613 H 0.39908 0.40165 0.27783 0.0
C1614 C 0.46628 0.33598 0.27362 0.0
C1615 C 0.47776 0.32121 0.25801 0.0
C1616 C 0.4747 0.32467 0.23403 0.0
C1617 C 0.45989 0.34192 0.22579 0.0
C1618 C 0.44855 0.3558 0.24173 0.0
C1619 C 0.4518 0.3532 0.26514 0.0
C1620 C 0.43655 0.36934 0.27876 0.0
C1621 C 0.42036 0.3559 0.29494 0.0
C1622 C 0.45108 0.38699 0.29213 0.0
C1623 C 0.42343 0.38074 0.25936 0.0
C1624 C 0.4308 0.37293 0.23812 0.0
C1625 C 0.42024 0.37989 0.21773 0.0
C1626 C 0.40154 0.3951 0.21911 0.0
C1627 C 0.39356 0.40307 0.24074 0.0
C1628 C 0.40492 0.39602 0.26104 0.0
H1629 H 0.96689 0.14877 0.49163 0.0
H1630 H 0.91285 0.19592 0.47113 0.0
H1631 H 0.88406 0.17178 0.49163 0.0
H1632 H 0.93481 0.09776 0.48307 0.0
H1633 H 0.94766 0.08275 0.50705 0.0
H1634 H 0.96352 0.10499 0.49244 0.0
H1635 H 0.9691 0.12609 0.53143 0.0
H1636 H 0.95271 0.10411 0.54603 0.0
H1637 H 0.94422 0.1339 0.54826 0.0
H1638 H 0.86136 0.14176 0.51399 0.0
H1639 H 0.84575 0.1054 0.52979 0.0
H1640 H 0.91492 0.07751 0.53402 0.0
C1641 C 0.94896 0.15392 0.49154 0.0
C1642 C 0.94191 0.174 0.47985 0.0
C1643 C 0.91839 0.18035 0.47979 0.0
C1644 C 0.90207 0.16695 0.49165 0.0
C1645 C 0.90966 0.14731 0.50332 0.0
C1646 C 0.93253 0.14065 0.50298 0.0
C1647 C 0.93611 0.11784 0.51505 0.0
C1648 C 0.9461 0.09978 0.49841 0.0
C1649 C 0.95144 0.12067 0.53646 0.0
C1650 C 0.91157 0.11231 0.52171 0.0
C1651 C 0.89661 0.12978 0.51542 0.0
C1652 C 0.87293 0.12802 0.51904 0.0
C1653 C 0.86422 0.10738 0.5282 0.0
C1654 C 0.87919 0.08871 0.53303 0.0
C1655 C 0.90316 0.09161 0.53057 0.0
H1656 H 0.23639 0.67167 0.80599 0.0
H1657 H 0.19821 0.60878 0.81931 0.0
H1658 H 0.1618 0.6294 0.8119 0.0
H1659 H 0.19323 0.71178 0.83091 0.0
H1660 H 0.19895 0.73327 0.80921 0.0
H1661 H 0.22156 0.71408 0.81842 0.0
H1662 H 0.22796 0.70172 0.77602 0.0
H1663 H 0.20509 0.72046 0.7667 0.0
H1664 H 0.20416 0.69021 0.75976 0.0
H1665 H 0.12978 0.65614 0.79907 0.0
H1666 H 0.10483 0.68753 0.7844 0.0
H1667 H 0.16439 0.73244 0.77987 0.0
C1668 C 0.22037 0.66232 0.8079 0.0
C1669 C 0.22021 0.63857 0.81319 0.0
C1670 C 0.19883 0.62698 0.8154 0.0
C1671 C 0.17802 0.63854 0.81117 0.0
C1672 C 0.17889 0.66175 0.80506 0.0
C1673 C 0.19951 0.6736 0.80383 0.0
C1674 C 0.19595 0.69813 0.79578 0.0
C1675 C 0.20282 0.71533 0.81471 0.0
C1676 C 0.20906 0.70289 0.77323 0.0
C1677 C 0.17021 0.69804 0.79196 0.0
C1678 C 0.16059 0.677 0.79757 0.0
C1679 C 0.13711 0.67277 0.79486 0.0
C1680 C 0.12308 0.69064 0.78648 0.0
C1681 C 0.13263 0.71238 0.78077 0.0
C1682 C 0.15654 0.71595 0.78358 0.0
H1683 H 0.44422 0.43547 0.60984 0.0
H1684 H 0.40259 0.37504 0.59698 0.0
H1685 H 0.37417 0.39901 0.576 0.0
H1686 H 0.39628 0.47784 0.61556 0.0
H1687 H 0.41222 0.49993 0.60063 0.0
H1688 H 0.42727 0.47857 0.61744 0.0
H1689 H 0.45173 0.46779 0.58156 0.0
H1690 H 0.43656 0.48901 0.56475 0.0
H1691 H 0.4373 0.45945 0.55536 0.0
H1692 H 0.35284 0.42857 0.55302 0.0
H1693 H 0.3384 0.46226 0.53153 0.0
H1694 H 0.39451 0.50358 0.55867 0.0
C1695 C 0.42859 0.42758 0.60347 0.0
C1696 C 0.42511 0.4036 0.60546 0.0
C1697 C 0.40511 0.3935 0.59595 0.0
C1698 C 0.38903 0.40694 0.58395 0.0
C1699 C 0.39335 0.43044 0.58155 0.0
C1700 C 0.41252 0.44074 0.59121 0.0
C1701 C 0.41409 0.46592 0.58447 0.0
C1702 C 0.41235 0.48149 0.6058 0.0
C1703 C 0.43624 0.47081 0.57073 0.0
C1704 C 0.39295 0.4681 0.56937 0.0
C1705 C 0.38122 0.44744 0.56793 0.0
C1706 C 0.3617 0.44493 0.55424 0.0
C1707 C 0.35372 0.46415 0.54197 0.0
C1708 C 0.36527 0.48561 0.54346 0.0
C1709 C 0.38521 0.48747 0.55727 0.0
H1710 H 0.87546 0.14489 0.76628 0.0
H1711 H 0.82453 0.19975 0.76466 0.0
H1712 H 0.85537 0.22856 0.76774 0.0
H1713 H 0.91138 0.16913 0.80736 0.0
H1714 H 0.93831 0.16064 0.79444 0.0
H1715 H 0.91274 0.14387 0.78937 0.0
H1716 H 0.91773 0.1486 0.74537 0.0
H1717 H 0.94363 0.16499 0.75022 0.0
H1718 H 0.92061 0.17706 0.73321 0.0
H1719 H 0.89028 0.2511 0.77594 0.0
H1720 H 0.929 0.26683 0.7841 0.0
H1721 H 0.95835 0.19847 0.77872 0.0
C1722 C 0.87089 0.16298 0.76595 0.0
C1723 C 0.84758 0.17008 0.76536 0.0
C1724 C 0.84224 0.1939 0.76525 0.0
C1725 C 0.85963 0.21043 0.76698 0.0
C1726 C 0.88232 0.2029 0.7685 0.0
C1727 C 0.88814 0.17982 0.76753 0.0
C1728 C 0.91394 0.17655 0.77039 0.0
C1729 C 0.9194 0.16167 0.79166 0.0
C1730 C 0.92461 0.16619 0.74849 0.0
C1731 C 0.92148 0.20134 0.77384 0.0
C1732 C 0.90287 0.21618 0.7727 0.0
C1733 C 0.90506 0.23974 0.77658 0.0
C1734 C 0.92694 0.24849 0.78143 0.0
C1735 C 0.94629 0.23375 0.78221 0.0
C1736 C 0.94362 0.20992 0.77826 0.0
H1737 H 0.72062 0.81952 0.2806 0.0
H1738 H 0.71497 0.83759 0.3528 0.0
H1739 H 0.74246 0.86936 0.34698 0.0
H1740 H 0.78254 0.83742 0.27334 0.0
H1741 H 0.77705 0.84848 0.24493 0.0
H1742 H 0.76094 0.82413 0.25542 0.0
H1743 H 0.7227 0.84548 0.24733 0.0
H1744 H 0.73837 0.86988 0.23652 0.0
H1745 H 0.718 0.87358 0.25967 0.0
H1746 H 0.76445 0.90335 0.33187 0.0
H1747 H 0.78035 0.93556 0.30898 0.0
H1748 H 0.77098 0.8956 0.24655 0.0
C1749 C 0.72568 0.82976 0.29531 0.0
C1750 C 0.71567 0.82601 0.31711 0.0
C1751 C 0.72268 0.83981 0.33598 0.0
C1752 C 0.73823 0.85802 0.33283 0.0
C1753 C 0.7468 0.86202 0.31078 0.0
C1754 C 0.74101 0.84805 0.29241 0.0
C1755 C 0.75055 0.8573 0.27004 0.0
C1756 C 0.76886 0.84084 0.26037 0.0
C1757 C 0.73125 0.86183 0.25238 0.0
C1758 C 0.76128 0.87948 0.27841 0.0
C1759 C 0.75943 0.88167 0.30204 0.0
C1760 C 0.76646 0.90161 0.31342 0.0
C1761 C 0.77538 0.91985 0.30028 0.0
C1762 C 0.77688 0.91809 0.276 0.0
C1763 C 0.77013 0.89745 0.26509 0.0
H1764 H 0.0382 0.11842 0.6869 0.0
H1765 H 0.09512 0.09794 0.73102 0.0
H1766 H 0.09403 0.13574 0.74999 0.0
H1767 H 0.05605 0.17687 0.67892 0.0
H1768 H 0.02733 0.18866 0.67973 0.0
H1769 H 0.0319 0.15962 0.66985 0.0
H1770 H 0.00303 0.14448 0.70039 0.0
H1771 H -0.00168 0.1735 0.71034 0.0
H1772 H 0.00738 0.15148 0.73031 0.0
H1773 H 0.08774 0.17556 0.7637 0.0
H1774 H 0.07606 0.21553 0.77184 0.0
H1775 H 0.02316 0.21086 0.71911 0.0
C1776 C 0.05033 0.12188 0.70064 0.0
C1777 C 0.06675 0.10522 0.70746 0.0
C1778 C 0.08239 0.11041 0.72545 0.0
C1779 C 0.08193 0.13184 0.73637 0.0
C1780 C 0.0657 0.14793 0.72916 0.0
C1781 C 0.05012 0.14327 0.71178 0.0
C1782 C 0.03467 0.16386 0.70726 0.0
C1783 C 0.03768 0.17278 0.68247 0.0
C1784 C 0.00935 0.15797 0.71239 0.0
C1785 C 0.04421 0.18079 0.72469 0.0
C1786 C 0.06205 0.17116 0.73714 0.0
C1787 C 0.07375 0.18334 0.75412 0.0
C1788 C 0.067 0.20604 0.75859 0.0
C1789 C 0.04873 0.21633 0.74611 0.0
C1790 C 0.03722 0.20348 0.72892 0.0
H1791 H 0.10054 0.74039 0.00242 0.0
H1792 H 0.06569 0.80221 0.97943 0.0
H1793 H 0.09506 0.80777 0.94933 0.0
H1794 H 0.15155 0.76219 0.00376 0.0
H1795 H 0.1681 0.73777 0.99403 0.0
H1796 H 0.14055 0.73331 0.00708 0.0
H1797 H 0.12686 0.711 0.97104 0.0
H1798 H 0.15459 0.71545 0.95775 0.0
H1799 H 0.12872 0.72429 0.94301 0.0
H1800 H 0.13208 0.81381 0.93175 0.0
H1801 H 0.17388 0.82015 0.92864 0.0
H1802 H 0.18668 0.75456 0.96161 0.0
C1803 C 0.09861 0.75436 0.99017 0.0
C1804 C 0.081 0.77082 0.99292 0.0
C1805 C 0.07918 0.78946 0.97742 0.0
C1806 C 0.09566 0.79258 0.96014 0.0
C1807 C 0.11383 0.77691 0.9587 0.0
C1808 C 0.11532 0.75796 0.97317 0.0
C1809 C 0.13885 0.74672 0.97164 0.0
C1810 C 0.15042 0.74494 0.99553 0.0
C1811 C 0.13715 0.72296 0.96017 0.0
C1812 C 0.1511 0.76377 0.9561 0.0
C1813 C 0.13604 0.78048 0.94802 0.0
C1814 C 0.14388 0.80039 0.93708 0.0
C1815 C 0.16762 0.80392 0.93541 0.0
C1816 C 0.18318 0.78757 0.94441 0.0
C1817 C 0.17492 0.76676 0.95379 0.0
H1818 H 0.56573 0.92257 0.21554 0.0
H1819 H 0.60218 0.9815 0.2431 0.0
H1820 H 0.63472 0.95646 0.25371 0.0
H1821 H 0.57499 0.88712 0.25646 0.0
H1822 H 0.57991 0.86096 0.24053 0.0
H1823 H 0.56345 0.8837 0.22781 0.0
H1824 H 0.59095 0.88499 0.19293 0.0
H1825 H 0.60758 0.86185 0.20543 0.0
H1826 H 0.62149 0.88843 0.19736 0.0
H1827 H 0.65498 0.92479 0.27369 0.0
H1828 H 0.66434 0.88924 0.29539 0.0
H1829 H 0.61782 0.85075 0.25167 0.0
C1830 C 0.58111 0.93025 0.22277 0.0
C1831 C 0.58154 0.95374 0.22862 0.0
C1832 C 0.60166 0.96347 0.23831 0.0
C1833 C 0.62024 0.94937 0.24443 0.0
C1834 C 0.61865 0.92583 0.24007 0.0
C1835 C 0.59994 0.91643 0.22859 0.0
C1836 C 0.60075 0.89041 0.22889 0.0
C1837 C 0.57848 0.87998 0.23905 0.0
C1838 C 0.60549 0.88088 0.20469 0.0
C1839 C 0.62123 0.88671 0.24452 0.0
C1840 C 0.63167 0.90726 0.25048 0.0
C1841 C 0.64776 0.90846 0.26835 0.0
C1842 C 0.65285 0.88829 0.28073 0.0
C1843 C 0.64202 0.8673 0.27492 0.0
C1844 C 0.62689 0.86643 0.25598 0.0
H1845 H 0.43614 0.32545 0.54708 0.0
H1846 H 0.43562 0.28175 0.60789 0.0
H1847 H 0.39965 0.26361 0.59452 0.0
H1848 H 0.37505 0.33469 0.54407 0.0
H1849 H 0.37388 0.33367 0.51307 0.0
H1850 H 0.39971 0.34331 0.52728 0.0
H1851 H 0.42344 0.31229 0.50566 0.0
H1852 H 0.39771 0.30261 0.4913 0.0
H1853 H 0.4149 0.28248 0.50756 0.0
H1854 H 0.36385 0.25031 0.57487 0.0
H1855 H 0.33096 0.24174 0.54947 0.0
H1856 H 0.35465 0.29386 0.50119 0.0
C1857 C 0.42849 0.31202 0.55756 0.0
C1858 C 0.4387 0.30501 0.57855 0.0
C1859 C 0.42815 0.28739 0.59175 0.0
C1860 C 0.40768 0.27701 0.58433 0.0
C1861 C 0.39802 0.28439 0.56365 0.0
C1862 C 0.40809 0.30141 0.55037 0.0
C1863 C 0.39422 0.30598 0.52872 0.0
C1864 C 0.38518 0.33089 0.52827 0.0
C1865 C 0.40842 0.30051 0.50703 0.0
C1866 C 0.37479 0.28887 0.53195 0.0
C1867 C 0.37731 0.27665 0.55224 0.0
C1868 C 0.36167 0.25975 0.55893 0.0
C1869 C 0.34303 0.25503 0.54438 0.0
C1870 C 0.3402 0.26714 0.52336 0.0
C1871 C 0.35626 0.28438 0.5172 0.0
H1872 H 0.54152 0.43502 0.35693 0.0
H1873 H 0.60851 0.44885 0.32665 0.0
H1874 H 0.60975 0.40927 0.31132 0.0
H1875 H 0.55348 0.37817 0.37493 0.0
H1876 H 0.5252 0.36715 0.36844 0.0
H1877 H 0.52883 0.39706 0.37574 0.0
H1878 H 0.50906 0.40903 0.33745 0.0
H1879 H 0.50531 0.37912 0.33008 0.0
H1880 H 0.52011 0.3982 0.31056 0.0
H1881 H 0.60452 0.36759 0.30072 0.0
H1882 H 0.59298 0.32685 0.2958 0.0
H1883 H 0.52971 0.34059 0.33328 0.0
C1884 C 0.55635 0.42981 0.34688 0.0
C1885 C 0.57492 0.44501 0.34299 0.0
C1886 C 0.59408 0.43749 0.32987 0.0
C1887 C 0.59494 0.41505 0.32104 0.0
C1888 C 0.57648 0.4004 0.32541 0.0
C1889 C 0.5575 0.40748 0.33795 0.0
C1890 C 0.54033 0.38812 0.3409 0.0
C1891 C 0.53676 0.38228 0.36652 0.0
C1892 C 0.51735 0.39397 0.32904 0.0
C1893 C 0.55283 0.36897 0.32845 0.0
C1894 C 0.57355 0.3764 0.31946 0.0
C1895 C 0.58826 0.36157 0.30759 0.0
C1896 C 0.5816 0.33848 0.30491 0.0
C1897 C 0.56051 0.33053 0.3142 0.0
C1898 C 0.54598 0.34609 0.326 0.0
H1899 H 0.94678 0.24871 0.53107 0.0
H1900 H 0.94041 0.28452 0.46558 0.0
H1901 H 0.90045 0.29463 0.47484 0.0
H1902 H 0.88835 0.22619 0.53281 0.0
H1903 H 0.88484 0.2306 0.56333 0.0
H1904 H 0.91306 0.22515 0.55159 0.0
H1905 H 0.92832 0.26296 0.56984 0.0
H1906 H 0.90024 0.26822 0.5819 0.0
H1907 H 0.91366 0.28971 0.56393 0.0
H1908 H 0.86181 0.3013 0.49049 0.0
H1909 H 0.82671 0.30696 0.51346 0.0
H1910 H 0.8572 0.26799 0.56971 0.0
C1911 C 0.93692 0.25867 0.51873 0.0
C1912 C 0.94675 0.26581 0.49759 0.0
C1913 C 0.93336 0.2789 0.48191 0.0
C1914 C 0.91055 0.28464 0.48693 0.0
C1915 C 0.90134 0.27729 0.50777 0.0
C1916 C 0.91405 0.2648 0.52358 0.0
C1917 C 0.89997 0.25997 0.54509 0.0
C1918 C 0.89634 0.23393 0.54839 0.0
C1919 C 0.91122 0.27087 0.56645 0.0
C1920 C 0.87756 0.27198 0.53889 0.0
C1921 C 0.87876 0.28156 0.51713 0.0
C1922 C 0.86057 0.29389 0.50756 0.0
C1923 C 0.8407 0.29699 0.52076 0.0
C1924 C 0.83919 0.28794 0.54337 0.0
C1925 C 0.85777 0.27495 0.5524 0.0
H1926 H 0.97954 0.64085 0.88006 0.0
H1927 H 0.04516 0.61286 0.90235 0.0
H1928 H 0.06445 0.64889 0.8902 0.0
H1929 H 0.99827 0.66343 0.83018 0.0
H1930 H 0.98048 0.6889 0.83048 0.0
H1931 H 0.9713 0.66352 0.84559 0.0
H1932 H 0.96771 0.68701 0.88318 0.0
H1933 H 0.97722 0.71273 0.86852 0.0
H1934 H 0.99217 0.70278 0.89387 0.0
H1935 H 0.0772 0.68532 0.86967 0.0
H1936 H 0.082 0.71815 0.84275 0.0
H1937 H 0.00797 0.72114 0.83343 0.0
C1938 C 0.99787 0.64253 0.88308 0.0
C1939 C 0.01084 0.62408 0.89219 0.0
C1940 C 0.03484 0.62687 0.89558 0.0
C1941 C 0.04593 0.64729 0.88875 0.0
C1942 C 0.03273 0.6648 0.87885 0.0
C1943 C 0.00913 0.66266 0.8763 0.0
C1944 C -0.00089 0.68255 0.86277 0.0
C1945 C 0.98658 0.67408 0.84097 0.0
C1946 C 0.98311 0.69714 0.87799 0.0
C1947 C 0.02086 0.69552 0.85686 0.0
C1948 C 0.04006 0.68545 0.86675 0.0
C1949 C 0.06224 0.69357 0.86221 0.0
C1950 C 0.06482 0.71217 0.84687 0.0
C1951 C 0.04535 0.72203 0.83597 0.0
C1952 C 0.02316 0.71389 0.8415 0.0
H1953 H 0.62097 0.83225 0.04286 0.0
H1954 H 0.59867 0.77433 0.00121 0.0
H1955 H 0.63823 0.75849 0.00223 0.0
H1956 H 0.67694 0.83886 0.01707 0.0
H1957 H 0.69062 0.84623 0.04392 0.0
H1958 H 0.6607 0.85308 0.03937 0.0
H1959 H 0.64975 0.83046 0.07639 0.0
H1960 H 0.67963 0.82367 0.0811 0.0
H1961 H 0.65867 0.80084 0.0794 0.0
H1962 H 0.6803 0.7487 0.00878 0.0
H1963 H 0.72097 0.74536 0.02124 0.0
H1964 H 0.71459 0.81014 0.05803 0.0
C1965 C 0.62434 0.81623 0.03392 0.0
C1966 C 0.60679 0.80448 0.02199 0.0
C1967 C 0.61192 0.7836 0.01049 0.0
C1968 C 0.63431 0.77451 0.01091 0.0
C1969 C 0.65125 0.78661 0.02282 0.0
C1970 C 0.64647 0.807 0.03412 0.0
C1971 C 0.66746 0.81651 0.04609 0.0
C1972 C 0.67433 0.84006 0.036 0.0
C1973 C 0.66364 0.81794 0.07229 0.0
C1974 C 0.68479 0.79814 0.04 0.0
C1975 C 0.67525 0.78107 0.02648 0.0
C1976 C 0.688 0.76202 0.01928 0.0
C1977 C 0.71105 0.76029 0.02639 0.0
C1978 C 0.7209 0.77747 0.04059 0.0
C1979 C 0.70759 0.79671 0.04715 0.0
H1980 H 0.74209 0.03648 0.21489 0.0
H1981 H 0.75636 0.96436 0.20191 0.0
H1982 H 0.72861 0.96473 0.16974 0.0
H1983 H 0.67826 0.03459 0.19417 0.0
H1984 H 0.68126 0.06311 0.18225 0.0
H1985 H 0.69651 0.05538 0.20822 0.0
H1986 H 0.73501 0.06758 0.18908 0.0
H1987 H 0.71998 0.07521 0.16326 0.0
H1988 H 0.74327 0.05468 0.16206 0.0
H1989 H 0.70809 0.97529 0.13397 0.0
H1990 H 0.69712 0.99512 0.09801 0.0
H1991 H 0.69491 0.06017 0.1345 0.0
C1992 C 0.73873 0.0206 0.20573 0.0
C1993 C 0.75137 0.00049 0.21064 0.0
C1994 C 0.74672 0.97997 0.19839 0.0
C1995 C 0.73086 0.97998 0.18021 0.0
C1996 C 0.71939 0.00046 0.175 0.0
C1997 C 0.72278 0.02031 0.18775 0.0
C1998 C 0.7112 0.04088 0.17668 0.0
C1999 C 0.69058 0.04896 0.1912 0.0
C2000 C 0.7284 0.06071 0.17251 0.0
C2001 C 0.70318 0.03009 0.15442 0.0
C2002 C 0.70714 0.00657 0.15415 0.0
C2003 C 0.7042 0.99353 0.1342 0.0
C2004 C 0.69804 0.00494 0.11382 0.0
C2005 C 0.69533 0.02917 0.11357 0.0
C2006 C 0.69678 0.04161 0.13432 0.0
H2007 H 0.31332 0.5389 0.41559 0.0
H2008 H 0.33075 0.47533 0.45109 0.0
H2009 H 0.34458 0.45875 0.41442 0.0
H2010 H 0.2926 0.51364 0.36408 0.0
H2011 H 0.30441 0.53567 0.34563 0.0
H2012 H 0.29666 0.54248 0.37483 0.0
H2013 H 0.3381 0.55744 0.38217 0.0
H2014 H 0.34611 0.55036 0.35305 0.0
H2015 H 0.3623 0.53871 0.37688 0.0
H2016 H 0.35512 0.44873 0.37366 0.0
H2017 H 0.35996 0.44538 0.33157 0.0
H2018 H 0.33613 0.51582 0.32319 0.0
C2019 C 0.31994 0.52145 0.41566 0.0
C2020 C 0.32085 0.50834 0.43612 0.0
C2021 C 0.32986 0.48565 0.43555 0.0
C2022 C 0.33785 0.47614 0.41486 0.0
C2023 C 0.33691 0.48964 0.39502 0.0
C2024 C 0.32816 0.51179 0.39526 0.0
C2025 C 0.32857 0.52252 0.37152 0.0
C2026 C 0.30411 0.52894 0.36355 0.0
C2027 C 0.34474 0.5435 0.37087 0.0
C2028 C 0.33828 0.5027 0.35773 0.0
C2029 C 0.34323 0.48398 0.37163 0.0
C2030 C 0.35143 0.46332 0.36262 0.0
C2031 C 0.35406 0.46156 0.3387 0.0
C2032 C 0.34832 0.4803 0.3241 0.0
C2033 C 0.3409 0.50128 0.33388 0.0
H2034 H 0.82612 0.05758 0.60773 0.0
H2035 H 0.79013 0.99216 0.61269 0.0
H2036 H 0.78685 0.99733 0.65488 0.0
H2037 H 0.85858 0.05204 0.66019 0.0
H2038 H 0.85635 0.08222 0.66711 0.0
H2039 H 0.8561 0.07311 0.63747 0.0
H2040 H 0.81718 0.09415 0.63111 0.0
H2041 H 0.81735 0.10343 0.66067 0.0
H2042 H 0.79311 0.08754 0.64959 0.0
H2043 H 0.787 0.01019 0.69626 0.0
H2044 H 0.78953 0.03009 0.73369 0.0
H2045 H 0.82576 0.08685 0.701 0.0
C2046 C 0.81753 0.04428 0.61761 0.0
C2047 C 0.80834 0.02445 0.60696 0.0
C2048 C 0.79726 0.00749 0.62054 0.0
C2049 C 0.79538 0.01025 0.64447 0.0
C2050 C 0.80475 0.03 0.6544 0.0
C2051 C 0.81557 0.04671 0.64137 0.0
C2052 C 0.82389 0.06652 0.65604 0.0
C2053 C 0.8503 0.06858 0.65515 0.0
C2054 C 0.81218 0.08925 0.64893 0.0
C2055 C 0.81581 0.05849 0.67943 0.0
C2056 C 0.80492 0.03734 0.67815 0.0
C2057 C 0.79555 0.0267 0.69749 0.0
C2058 C 0.79709 0.03815 0.71865 0.0
C2059 C 0.80787 0.06 0.72022 0.0
C2060 C 0.81755 0.07011 0.70037 0.0
H2061 H 0.24576 0.57032 0.88492 0.0
H2062 H 0.3005 0.52081 0.87264 0.0
H2063 H 0.29536 0.50539 0.91195 0.0
H2064 H 0.25948 0.58167 0.9446 0.0
H2065 H 0.22973 0.584 0.95315 0.0
H2066 H 0.23817 0.59149 0.92424 0.0
H2067 H 0.20833 0.56248 0.90808 0.0
H2068 H 0.1999 0.55481 0.93693 0.0
H2069 H 0.2094 0.5328 0.91724 0.0
H2070 H 0.28378 0.49488 0.95224 0.0
H2071 H 0.26708 0.49054 0.9911 0.0
H2072 H 0.21975 0.54677 0.97682 0.0
C2073 C 0.25678 0.55634 0.89053 0.0
C2074 C 0.27356 0.54677 0.87573 0.0
C2075 C 0.28755 0.52842 0.88369 0.0
C2076 C 0.28476 0.51953 0.90598 0.0
C2077 C 0.2679 0.52919 0.92003 0.0
C2078 C 0.2542 0.54723 0.91267 0.0
C2079 C 0.23717 0.55435 0.93107 0.0
C2080 C 0.2414 0.57936 0.93871 0.0
C2081 C 0.21223 0.55089 0.92283 0.0
C2082 C 0.24339 0.53742 0.94991 0.0
C2083 C 0.26117 0.52307 0.94322 0.0
C2084 C 0.26988 0.50603 0.95771 0.0
C2085 C 0.26025 0.50368 0.97973 0.0
C2086 C 0.24211 0.51829 0.98698 0.0
C2087 C 0.23357 0.53529 0.97177 0.0
H2088 H 0.90206 0.09073 0.75992 0.0
H2089 H 0.88741 0.0294 0.80032 0.0
H2090 H 0.92371 0.01203 0.78711 0.0
H2091 H 0.92547 0.0612 0.71135 0.0
H2092 H 0.94725 0.08256 0.70556 0.0
H2093 H 0.92062 0.09088 0.71911 0.0
H2094 H 0.94324 0.10855 0.75325 0.0
H2095 H 0.96995 0.10046 0.73971 0.0
H2096 H 0.96378 0.09104 0.76865 0.0
H2097 H 0.96075 0.00056 0.76847 0.0
H2098 H 0.99675 0.99625 0.74632 0.0
H2099 H 0.98725 0.06478 0.71774 0.0
C2100 C 0.90643 0.07365 0.76599 0.0
C2101 C 0.89179 0.06152 0.78126 0.0
C2102 C 0.89839 0.03927 0.78896 0.0
C2103 C 0.91895 0.02914 0.78141 0.0
C2104 C 0.93276 0.04144 0.76615 0.0
C2105 C 0.92686 0.06324 0.75858 0.0
C2106 C 0.9446 0.07258 0.74186 0.0
C2107 C 0.93384 0.07706 0.71806 0.0
C2108 C 0.95607 0.09445 0.75145 0.0
C2109 C 0.96131 0.05254 0.74115 0.0
C2110 C 0.95415 0.03478 0.75531 0.0
C2111 C 0.96663 0.01439 0.75742 0.0
C2112 C 0.9871 0.01214 0.74484 0.0
C2113 C 0.9949 0.03016 0.73031 0.0
C2114 C 0.98168 0.05057 0.72845 0.0
H2115 H 0.22036 0.71117 0.02505 0.0
H2116 H 0.29241 0.72038 0.008 0.0
H2117 H 0.30072 0.68076 0.02175 0.0
H2118 H 0.22808 0.67568 0.07648 0.0
H2119 H 0.2037 0.65763 0.06988 0.0
H2120 H 0.20402 0.68726 0.06057 0.0
H2121 H 0.19707 0.67412 0.01857 0.0
H2122 H 0.19697 0.64449 0.02773 0.0
H2123 H 0.2166 0.65377 0.00554 0.0
H2124 H 0.30072 0.63964 0.03671 0.0
H2125 H 0.2918 0.59945 0.04833 0.0
H2126 H 0.21957 0.61735 0.05403 0.0
C2127 C 0.23794 0.70497 0.02465 0.0
C2128 C 0.25584 0.71882 0.01579 0.0
C2129 C 0.27853 0.70994 0.0148 0.0
C2130 C 0.28339 0.68757 0.02268 0.0
C2131 C 0.2653 0.6743 0.03127 0.0
C2132 C 0.24299 0.68263 0.0321 0.0
C2133 C 0.22633 0.66442 0.04047 0.0
C2134 C 0.21487 0.67169 0.06321 0.0
C2135 C 0.20819 0.65889 0.02196 0.0
C2136 C 0.24271 0.64448 0.04406 0.0
C2137 C 0.26516 0.65054 0.03901 0.0
C2138 C 0.28321 0.63473 0.04078 0.0
C2139 C 0.27805 0.61203 0.04748 0.0
C2140 C 0.25504 0.60539 0.05195 0.0
C2141 C 0.23729 0.62197 0.05052 0.0
H2142 H 0.71709 0.99278 0.30398 0.0
H2143 H 0.73633 0.05941 0.27626 0.0
H2144 H 0.69529 0.06974 0.27211 0.0
H2145 H 0.66891 0.98278 0.26818 0.0
H2146 H 0.65162 0.96966 0.29044 0.0
H2147 H 0.68251 0.96817 0.292 0.0
H2148 H 0.68083 0.98658 0.33269 0.0
H2149 H 0.64989 0.98832 0.3308 0.0
H2150 H 0.66653 0.01389 0.33648 0.0
H2151 H 0.65253 0.07126 0.26723 0.0
H2152 H 0.61034 0.06497 0.26493 0.0
H2153 H 0.61836 -0.00142 0.29807 0.0
C2154 C 0.71253 0.00964 0.2974 0.0
C2155 C 0.72978 0.02542 0.29069 0.0
C2156 C 0.72334 0.04729 0.28193 0.0
C2157 C 0.7001 0.05324 0.27938 0.0
C2158 C 0.68348 0.03726 0.28601 0.0
C2159 C 0.68935 0.01604 0.29516 0.0
C2160 C 0.66805 0.00198 0.30069 0.0
C2161 C 0.66777 0.97932 0.28699 0.0
C2162 C 0.66622 0.99743 0.32672 0.0
C2163 C 0.64936 0.01835 0.29258 0.0
C2164 C 0.65866 0.03859 0.28413 0.0
C2165 C 0.64498 0.0557 0.27423 0.0
C2166 C 0.62115 0.05203 0.27295 0.0
C2167 C 0.61127 0.03161 0.28179 0.0
C2168 C 0.62554 0.01464 0.29185 0.0
H2169 H 0.28554 0.44366 0.48776 0.0
H2170 H 0.23979 0.45496 0.54568 0.0
H2171 H 0.22953 0.41352 0.54558 0.0
H2172 H 0.25039 0.40097 0.45858 0.0
H2173 H 0.27501 0.38448 0.44929 0.0
H2174 H 0.27752 0.41515 0.45334 0.0
H2175 H 0.31152 0.40857 0.48155 0.0
H2176 H 0.30904 0.37792 0.47762 0.0
H2177 H 0.30757 0.39 0.50616 0.0
H2178 H 0.22645 0.37006 0.54044 0.0
H2179 H 0.23023 0.32888 0.53033 0.0
H2180 H 0.27719 0.34722 0.47506 0.0
C2181 C 0.27337 0.43745 0.50045 0.0
C2182 C 0.26354 0.45248 0.51682 0.0
C2183 C 0.24738 0.44374 0.53288 0.0
C2184 C 0.24153 0.42025 0.533 0.0
C2185 C 0.25183 0.40585 0.51677 0.0
C2186 C 0.26728 0.41421 0.5007 0.0
C2187 C 0.27639 0.39522 0.48541 0.0
C2188 C 0.2694 0.3992 0.46016 0.0
C2189 C 0.30268 0.39279 0.48785 0.0
C2190 C 0.26396 0.37475 0.49563 0.0
C2191 C 0.24982 0.38114 0.51365 0.0
C2192 C 0.2373 0.36491 0.52619 0.0
C2193 C 0.23948 0.34154 0.52025 0.0
C2194 C 0.25409 0.33465 0.50194 0.0
C2195 C 0.26615 0.35168 0.48937 0.0
H2196 H 0.50893 0.48648 0.30378 0.0
H2197 H 0.51574 0.55948 0.28976 0.0
H2198 H 0.48125 0.55791 0.26463 0.0
H2199 H 0.48699 0.46977 0.24585 0.0
H2200 H 0.46789 0.44852 0.25804 0.0
H2201 H 0.49479 0.45505 0.27208 0.0
H2202 H 0.47278 0.46417 0.30983 0.0
H2203 H 0.44592 0.45777 0.29587 0.0
H2204 H 0.45006 0.48538 0.30943 0.0
H2205 H 0.44285 0.54906 0.24558 0.0
H2206 H 0.40483 0.53361 0.23391 0.0
H2207 H 0.42485 0.46617 0.25922 0.0
C2208 C 0.50335 0.50204 0.2951 0.0
C2209 C 0.51486 0.52311 0.29867 0.0
C2210 C 0.50721 0.54314 0.287 0.0
C2211 C 0.48767 0.54238 0.27276 0.0
C2212 C 0.47632 0.52137 0.27008 0.0
C2213 C 0.48413 0.50149 0.28071 0.0
C2214 C 0.46815 0.48141 0.27645 0.0
C2215 C 0.48018 0.46258 0.26225 0.0
C2216 C 0.45867 0.47163 0.29925 0.0
C2217 C 0.44957 0.49329 0.26263 0.0
C2218 C 0.45461 0.51625 0.25884 0.0
C2219 C 0.43894 0.53099 0.24805 0.0
C2220 C 0.41743 0.52209 0.24141 0.0
C2221 C 0.41181 0.49874 0.24578 0.0
C2222 C 0.42847 0.48416 0.25588 0.0
H2223 H 0.80575 0.12192 0.548 0.0
H2224 H 0.73697 0.10057 0.52793 0.0
H2225 H 0.72273 0.14002 0.5353 0.0
H2226 H 0.78793 0.15942 0.59455 0.0
H2227 H 0.81045 0.18 0.58886 0.0
H2228 H 0.81487 0.15 0.58231 0.0
H2229 H 0.82473 0.16067 0.54005 0.0
H2230 H 0.82032 0.19068 0.54644 0.0
H2231 H 0.80446 0.1773 0.52337 0.0
H2232 H 0.71637 0.18247 0.54448 0.0
H2233 H 0.71857 0.2238 0.55471 0.0
H2234 H 0.79164 0.21599 0.56853 0.0
C2235 C 0.7876 0.12528 0.54548 0.0
C2236 C 0.77249 0.10801 0.53744 0.0
C2237 C 0.74896 0.11352 0.53386 0.0
C2238 C 0.74068 0.13585 0.53814 0.0
C2239 C 0.75613 0.15242 0.54606 0.0
C2240 C 0.77908 0.14731 0.54975 0.0
C2241 C 0.79233 0.16811 0.55799 0.0
C2242 C 0.80195 0.16414 0.58237 0.0
C2243 C 0.81159 0.17457 0.54094 0.0
C2244 C 0.7733 0.18586 0.55808 0.0
C2245 C 0.7525 0.17656 0.55129 0.0
C2246 C 0.73258 0.18991 0.54987 0.0
C2247 C 0.73401 0.21339 0.55559 0.0
C2248 C 0.75522 0.22321 0.56259 0.0
C2249 C 0.77503 0.2091 0.56376 0.0
H2250 H 0.07845 0.57297 0.83368 0.0
H2251 H 0.06757 0.50239 0.85514 0.0
H2252 H 0.10796 0.49288 0.84459 0.0
H2253 H 0.11679 0.56268 0.78581 0.0
H2254 H 0.13486 0.58709 0.79223 0.0
H2255 H 0.10482 0.5876 0.79995 0.0
H2256 H 0.11596 0.59624 0.84222 0.0
H2257 H 0.14606 0.59542 0.83482 0.0
H2258 H 0.13513 0.57695 0.85726 0.0
H2259 H 0.14951 0.4914 0.83096 0.0
H2260 H 0.18996 0.49888 0.81932 0.0
H2261 H 0.17373 0.5711 0.80957 0.0
C2262 C 0.08459 0.55547 0.83579 0.0
C2263 C 0.07007 0.53821 0.84474 0.0
C2264 C 0.07863 0.51565 0.84808 0.0
C2265 C 0.1014 0.51016 0.84209 0.0
C2266 C 0.11537 0.52761 0.83324 0.0
C2267 C 0.10736 0.5499 0.83044 0.0
C2268 C 0.12622 0.56589 0.82225 0.0
C2269 C 0.12031 0.57642 0.79865 0.0
C2270 C 0.13112 0.58473 0.84021 0.0
C2271 C 0.14602 0.54908 0.82052 0.0
C2272 C 0.13944 0.52703 0.82669 0.0
C2273 C 0.15487 0.50861 0.82618 0.0
C2274 C 0.1777 0.51294 0.81945 0.0
C2275 C 0.18483 0.53554 0.81372 0.0
C2276 C 0.16871 0.55372 0.81414 0.0
H2277 H 0.73299 0.96579 0.05266 0.0
H2278 H 0.79426 0.9966 0.02278 0.0
H2279 H 0.8121 0.95813 0.02 0.0
H2280 H 0.7617 0.92312 0.08624 0.0
H2281 H 0.74025 0.90122 0.08143 0.0
H2282 H 0.73218 0.93118 0.08094 0.0
H2283 H 0.71509 0.92625 0.03997 0.0
H2284 H 0.72297 0.89622 0.04039 0.0
H2285 H 0.73287 0.91459 0.01736 0.0
H2286 H 0.82356 0.91613 0.02115 0.0
H2287 H 0.82778 0.87422 0.02644 0.0
H2288 H 0.75809 0.87104 0.05364 0.0
C2289 C 0.75004 0.96454 0.04527 0.0
C2290 C 0.76218 0.9844 0.03796 0.0
C2291 C 0.78468 0.9818 0.0288 0.0
C2292 C 0.79492 0.95996 0.02699 0.0
C2293 C 0.78245 0.94082 0.03435 0.0
C2294 C 0.76049 0.9429 0.04328 0.0
C2295 C 0.75084 0.91966 0.0502 0.0
C2296 C 0.74596 0.91875 0.07624 0.0
C2297 C 0.72916 0.91384 0.03614 0.0
C2298 C 0.77083 0.90419 0.04378 0.0
C2299 C 0.78891 0.91668 0.0347 0.0
C2300 C 0.80943 0.90614 0.0281 0.0
C2301 C 0.81161 0.88221 0.03106 0.0
C2302 C 0.79334 0.86899 0.0405 0.0
C2303 C 0.77261 0.88034 0.04664 0.0
H2304 H 0.03418 0.77086 0.87235 0.0
H2305 H 0.99077 0.82993 0.8577 0.0
H2306 H 0.97795 0.83026 0.89851 0.0
H2307 H 0.99685 0.74299 0.91371 0.0
H2308 H 0.02063 0.73362 0.93135 0.0
H2309 H 0.02446 0.73714 0.90076 0.0
H2310 H 0.05854 0.76514 0.90809 0.0
H2311 H 0.05485 0.76153 0.93861 0.0
H2312 H 0.05415 0.79 0.92614 0.0
H2313 H 0.97207 0.82508 0.94208 0.0
H2314 H 0.97419 0.81556 0.98358 0.0
H2315 H 0.02333 0.76127 0.96806 0.0
C2316 C 0.02209 0.78402 0.87762 0.0
C2317 C 0.01369 0.80059 0.86188 0.0
C2318 C 0.99736 0.81704 0.86948 0.0
C2319 C 0.99003 0.81736 0.8926 0.0
C2320 C -0.00089 0.80099 0.90775 0.0
C2321 C 0.01477 0.78463 0.90044 0.0
C2322 C 0.02294 0.76957 0.92002 0.0
C2323 C 0.01579 0.74434 0.91623 0.0
C2324 C 0.04917 0.77171 0.92342 0.0
C2325 C 0.00981 0.78028 0.93974 0.0
C2326 C 0.99593 0.79819 0.93242 0.0
C2327 C 0.98282 0.81101 0.94794 0.0
C2328 C 0.98423 0.80554 0.97152 0.0
C2329 C -0.00118 0.78756 0.9794 0.0
C2330 C 0.01151 0.77474 0.96302 0.0
H2331 H 0.59847 0.80508 0.21133 0.0
H2332 H 0.53272 0.81958 0.2441 0.0
H2333 H 0.51555 0.82691 0.20615 0.0
H2334 H 0.59291 0.84934 0.1653 0.0
H2335 H 0.60722 0.83109 0.14475 0.0
H2336 H 0.61431 0.82888 0.17489 0.0
H2337 H 0.605 0.78504 0.17287 0.0
H2338 H 0.59716 0.78779 0.143 0.0
H2339 H 0.57688 0.77597 0.16334 0.0
H2340 H 0.50452 0.82977 0.1646 0.0
H2341 H 0.50113 0.82965 0.1221 0.0
H2342 H 0.57414 0.81561 0.11615 0.0
C2343 C 0.58057 0.81018 0.21074 0.0
C2344 C 0.56701 0.81146 0.23102 0.0
C2345 C 0.54352 0.81795 0.22904 0.0
C2346 C 0.53359 0.8224 0.20748 0.0
C2347 C 0.54736 0.82061 0.18794 0.0
C2348 C 0.57041 0.81493 0.18935 0.0
C2349 C 0.58118 0.81346 0.16557 0.0
C2350 C 0.60003 0.83178 0.16247 0.0
C2351 C 0.5906 0.78911 0.16093 0.0
C2352 C 0.56044 0.81873 0.15061 0.0
C2353 C 0.54111 0.82283 0.1639 0.0
C2354 C 0.51959 0.82686 0.15403 0.0
C2355 C 0.51778 0.82664 0.12996 0.0
C2356 C 0.53737 0.82267 0.11604 0.0
C2357 C 0.559 0.81895 0.12651 0.0
H2358 H 0.53708 0.27304 0.52016 0.0
H2359 H 0.54569 0.34677 0.51312 0.0
H2360 H 0.55539 0.34199 0.47199 0.0
H2361 H 0.58263 0.25576 0.47763 0.0
H2362 H 0.56554 0.23216 0.46694 0.0
H2363 H 0.56295 0.24098 0.49658 0.0
H2364 H 0.51897 0.24633 0.49112 0.0
H2365 H 0.52144 0.23767 0.4615 0.0
H2366 H 0.50859 0.26505 0.46857 0.0
H2367 H 0.55861 0.3301 0.4313 0.0
H2368 H 0.5563 0.31154 0.39314 0.0
H2369 H 0.54578 0.24522 0.42588 0.0
C2370 C 0.54172 0.28801 0.51003 0.0
C2371 C 0.54082 0.3103 0.51965 0.0
C2372 C 0.54629 0.32964 0.50587 0.0
C2373 C 0.5519 0.32705 0.48261 0.0
C2374 C 0.55195 0.30493 0.4734 0.0
C2375 C 0.54716 0.28569 0.48664 0.0
C2376 C 0.54623 0.26416 0.47193 0.0
C2377 C 0.56549 0.24727 0.47867 0.0
C2378 C 0.52239 0.25264 0.47337 0.0
C2379 C 0.55048 0.27445 0.44831 0.0
C2380 C 0.55398 0.29797 0.44963 0.0
C2381 C 0.55634 0.31163 0.43004 0.0
C2382 C 0.55485 0.30101 0.40849 0.0
C2383 C 0.55104 0.277 0.40671 0.0
C2384 C 0.54925 0.26352 0.42688 0.0
H2385 H 0.0181 0.28807 0.66119 0.0
H2386 H 0.08797 0.31379 0.66819 0.0
H2387 H 0.09201 0.31382 0.62582 0.0
H2388 H 0.03015 0.2489 0.61627 0.0
H2389 H 0.00295 0.25328 0.60197 0.0
H2390 H 0.00509 0.2572 0.63263 0.0
H2391 H 0.98899 0.29866 0.62856 0.0
H2392 H 0.98674 0.29486 0.59787 0.0
H2393 H 0.00294 0.31871 0.60936 0.0
H2394 H 0.08866 0.30942 0.58234 0.0
H2395 H 0.07875 0.29936 0.54205 0.0
H2396 H 0.01177 0.27542 0.5647 0.0
C2397 C 0.03436 0.2936 0.65401 0.0
C2398 C 0.05276 0.30085 0.66819 0.0
C2399 C 0.07353 0.30838 0.65777 0.0
C2400 C 0.07601 0.30839 0.6337 0.0
C2401 C 0.05756 0.30085 0.62032 0.0
C2402 C 0.03717 0.29354 0.63018 0.0
C2403 C 0.02027 0.28521 0.61225 0.0
C2404 C 0.01428 0.25963 0.61601 0.0
C2405 C -0.00155 0.30027 0.612 0.0
C2406 C 0.03443 0.28866 0.59071 0.0
C2407 C 0.0558 0.29794 0.5956 0.0
C2408 C 0.07194 0.30224 0.57832 0.0
C2409 C 0.06616 0.2966 0.55552 0.0
C2410 C 0.04457 0.28653 0.55035 0.0
C2411 C 0.0285 0.28285 0.5682 0.0
loop_
_geom_bond_atom_site_label_1
_geom_bond_atom_site_label_2
_geom_bond_distance
_geom_bond_site_symmetry_2
_ccdc_geom_bond_type
C0 C1 1.351 1_455 S
C0 N3 1.368 . S
C0 H5 0.931 . S
C1 C0 1.351 1_655 S
C1 N2 1.373 . S
C1 H29 0.930 . S
N2 C1 1.373 . S
N2 C4 1.340 . S
N3 C0 1.368 . S
N3 C4 1.321 1_455 S
N3 Co6 2.135 . S
C4 N2 1.340 . S
C4 N3 1.321 1_655 S
C4 H28 0.930 . S
H5 C0 0.931 . S
Co6 N3 2.135 . S
Co6 N9 2.121 . S
Co6 O14 2.055 . S
Co6 O17 2.039 . S
Co6 N20 2.140 . S
C7 O8 1.227 1_655 S
C7 O17 1.265 1_655 S
O8 C7 1.227 1_455 S
N9 Co6 2.121 . S
N9 C11 1.375 . S
N9 C12 1.313 . S
C10 C11 1.338 . S
C10 N13 1.377 . S
C10 H30 0.930 . S
C11 N9 1.375 . S
C11 C10 1.338 . S
C11 H15 0.931 . S
C12 N9 1.313 . S
C12 N13 1.344 . S
C12 H16 0.930 . S
N13 C10 1.377 . S
N13 C12 1.344 . S
O14 Co6 2.055 . S
O14 C18 1.253 . S
H15 C11 0.931 . S
H16 C12 0.930 . S
O17 Co6 2.039 . S
O17 C7 1.265 1_455 S
C18 O14 1.253 . S
C18 O19 1.227 . S
O19 C18 1.227 . S
N20 Co6 2.140 . S
N20 C23 1.346 . S
N20 C24 1.345 . S
C21 C22 1.387 . S
C21 C25 1.391 1_565 S
C22 C21 1.387 . S
C22 C23 1.369 1_565 S
C22 H31 0.929 . S
C23 N20 1.346 . S
C23 C22 1.369 1_545 S
C23 H26 0.928 . S
C24 N20 1.345 . S
C24 C25 1.371 . S
C24 H27 0.931 . S
C25 C21 1.391 1_545 S
C25 C24 1.371 . S
C25 H32 0.930 . S
H26 C23 0.928 . S
H27 C24 0.931 . S
H28 C4 0.930 . S
H29 C1 0.930 . S
H30 C10 0.930 . S
H31 C22 0.929 . S
H32 C25 0.930 . S
C33 C34 1.351 . S
C33 N36 1.368 . S
C33 H38 0.931 . S
C34 C33 1.351 . S
C34 N35 1.373 . S
C34 H62 0.930 . S
N35 C34 1.373 . S
N35 C37 1.340 . S
N36 C33 1.368 . S
N36 C37 1.321 . S
N36 Co39 2.135 1_554 S
C37 N35 1.340 . S
C37 N36 1.321 . S
C37 H61 0.930 1_554 S
H38 C33 0.931 . S
Co39 N36 2.135 1_556 S
Co39 N42 2.121 . S
Co39 O47 2.055 . S
Co39 O50 2.039 . S
Co39 N53 2.140 . S
C40 O41 1.227 . S
C40 O50 1.265 . S
O41 C40 1.227 . S
N42 Co39 2.121 . S
N42 C44 1.375 . S
N42 C45 1.313 . S
C43 C44 1.338 . S
C43 N46 1.377 . S
C43 H63 0.930 . S
C44 N42 1.375 . S
C44 C43 1.338 . S
C44 H48 0.931 . S
C45 N42 1.313 . S
C45 N46 1.344 . S
C45 H49 0.930 . S
N46 C43 1.377 . S
N46 C45 1.344 . S
O47 Co39 2.055 . S
O47 C51 1.253 . S
H48 C44 0.931 . S
H49 C45 0.930 . S
O50 Co39 2.039 . S
O50 C40 1.265 . S
C51 O47 1.253 . S
C51 O52 1.227 1_556 S
O52 C51 1.227 1_554 S
N53 Co39 2.140 . S
N53 C56 1.346 . S
N53 C57 1.345 . S
C54 C55 1.386 1_554 S
C54 C58 1.389 1_554 S
C55 C54 1.386 1_556 S
C55 C56 1.369 . S
C55 H64 0.929 1_556 S
C56 N53 1.346 . S
C56 C55 1.369 . S
C56 H59 0.928 . S
C57 N53 1.345 . S
C57 C58 1.371 . S
C57 H60 0.931 . S
C58 C54 1.389 1_556 S
C58 C57 1.371 . S
C58 H65 0.930 . S
H59 C56 0.928 . S
H60 C57 0.931 . S
H61 C37 0.930 1_556 S
H62 C34 0.930 . S
H63 C43 0.930 . S
H64 C55 0.929 1_554 S
H65 C58 0.930 . S
C66 C67 1.351 . S
C66 N69 1.368 . S
C66 H71 0.931 . S
C67 C66 1.351 . S
C67 N68 1.373 . S
C67 H95 0.930 . S
N68 C67 1.373 . S
N68 C70 1.340 . S
N69 C66 1.368 . S
N69 C70 1.321 . S
N69 Co72 2.135 . S
C70 N68 1.340 . S
C70 N69 1.321 . S
C70 H94 0.930 . S
H71 C66 0.931 . S
Co72 N69 2.135 . S
Co72 N75 2.121 . S
Co72 O80 2.055 1_545 S
Co72 O83 2.039 . S
Co72 N86 2.140 . S
C73 O74 1.227 . S
C73 O83 1.265 . S
O74 C73 1.227 . S
N75 Co72 2.121 . S
N75 C77 1.375 . S
N75 C78 1.314 . S
C76 C77 1.338 . S
C76 N79 1.377 . S
C76 H96 0.930 . S
C77 N75 1.375 . S
C77 C76 1.338 . S
C77 H81 0.931 . S
C78 N75 1.314 . S
C78 N79 1.344 . S
C78 H82 0.929 1_545 S
N79 C76 1.377 . S
N79 C78 1.344 . S
O80 Co72 2.055 1_565 S
O80 C84 1.253 . S
H81 C77 0.931 . S
H82 C78 0.929 1_565 S
O83 Co72 2.039 . S
O83 C73 1.265 . S
C84 O80 1.253 . S
C84 O85 1.191 1_565 S
O85 C84 1.191 1_545 S
N86 Co72 2.140 . S
N86 C89 1.346 . S
N86 C90 1.345 . S
C87 C88 1.387 . S
C87 C91 1.391 . S
C88 C87 1.387 . S
C88 C89 1.369 . S
C88 H97 0.929 . S
C89 N86 1.346 . S
C89 C88 1.369 . S
C89 H92 0.928 . S
C90 N86 1.345 . S
C90 C91 1.371 . S
C90 H93 0.931 . S
C91 C87 1.391 . S
C91 C90 1.371 . S
C91 H98 0.930 . S
H92 C89 0.928 . S
H93 C90 0.931 . S
H94 C70 0.930 . S
H95 C67 0.930 . S
H96 C76 0.930 . S
H97 C88 0.929 . S
H98 C91 0.930 . S
C99 C100 1.351 . S
C99 N102 1.368 . S
C99 H104 0.931 . S
C100 C99 1.351 . S
C100 N101 1.373 . S
C100 H128 0.930 . S
N101 C100 1.373 . S
N101 C103 1.340 . S
N102 C99 1.368 . S
N102 C103 1.321 . S
N102 Co105 2.135 . S
C103 N101 1.340 . S
C103 N102 1.321 . S
C103 H127 0.930 . S
H104 C99 0.931 . S
Co105 N102 2.135 . S
Co105 N108 2.121 . S
Co105 O113 2.055 . S
Co105 O116 2.039 . S
Co105 N119 2.140 . S
C106 O107 1.227 . S
C106 O116 1.265 . S
O107 C106 1.227 . S
N108 Co105 2.121 . S
N108 C110 1.375 . S
N108 C111 1.313 . S
C109 C110 1.338 . S
C109 N112 1.377 . S
C109 H129 0.930 . S
C110 N108 1.375 . S
C110 C109 1.338 . S
C110 H114 0.931 . S
C111 N108 1.313 . S
C111 N112 1.344 . S
C111 H115 0.930 . S
N112 C109 1.377 . S
N112 C111 1.344 . S
O113 Co105 2.055 . S
O113 C117 1.253 . S
H114 C110 0.931 . S
H115 C111 0.930 . S
O116 Co105 2.039 . S
O116 C106 1.265 . S
C117 O113 1.253 . S
C117 O118 1.227 . S
O118 C117 1.227 . S
N119 Co105 2.140 . S
N119 C122 1.346 . S
N119 C123 1.345 . S
C120 C121 1.387 . S
C120 C124 1.391 . S
C121 C120 1.387 . S
C121 C122 1.369 . S
C121 H130 0.929 . S
C122 N119 1.346 . S
C122 C121 1.369 . S
C122 H125 0.928 . S
C123 N119 1.345 . S
C123 C124 1.371 . S
C123 H126 0.931 . S
C124 C120 1.391 . S
C124 C123 1.371 . S
C124 H131 0.930 . S
H125 C122 0.928 . S
H126 C123 0.931 . S
H127 C103 0.930 . S
H128 C100 0.930 . S
H129 C109 0.930 . S
H130 C121 0.929 . S
H131 C124 0.930 . S
C132 C133 1.351 . S
C132 N135 1.368 . S
C132 H137 0.931 . S
C133 C132 1.351 . S
C133 N134 1.373 . S
C133 H161 0.930 . S
N134 C133 1.373 . S
N134 C136 1.340 . S
N135 C132 1.368 . S
N135 C136 1.321 . S
N135 Co138 2.135 . S
C136 N134 1.340 . S
C136 N135 1.321 . S
C136 H160 0.930 . S
H137 C132 0.931 . S
Co138 N135 2.135 . S
Co138 N141 2.121 . S
Co138 O146 2.055 . S
Co138 O149 2.039 . S
Co138 N152 2.140 . S
C139 O140 1.227 . S
C139 O149 1.265 . S
O140 C139 1.227 . S
N141 Co138 2.121 . S
N141 C143 1.375 . S
N141 C144 1.313 . S
C142 C143 1.338 . S
C142 N145 1.377 . S
C142 H162 0.930 . S
C143 N141 1.375 . S
C143 C142 1.338 . S
C143 H147 0.931 . S
C144 N141 1.313 . S
C144 N145 1.344 . S
C144 H148 0.930 . S
N145 C142 1.377 . S
N145 C144 1.344 . S
O146 Co138 2.055 . S
O146 C150 1.253 . S
H147 C143 0.931 . S
H148 C144 0.930 . S
O149 Co138 2.039 . S
O149 C139 1.265 . S
C150 O146 1.253 . S
C150 O151 1.227 . S
O151 C150 1.227 . S
N152 Co138 2.140 . S
N152 C155 1.346 . S
N152 C156 1.345 . S
C153 C154 1.387 . S
C153 C157 1.391 . S
C154 C153 1.387 . S
C154 C155 1.369 . S
C154 H163 0.929 . S
C155 N152 1.346 . S
C155 C154 1.369 . S
C155 H158 0.928 . S
C156 N152 1.345 . S
C156 C157 1.371 . S
C156 H159 0.931 . S
C157 C153 1.391 . S
C157 C156 1.371 . S
C157 H164 0.930 . S
H158 C155 0.928 . S
H159 C156 0.931 . S
H160 C136 0.930 . S
H161 C133 0.930 . S
H162 C142 0.930 . S
H163 C154 0.929 . S
H164 C157 0.930 . S
C165 C166 1.351 . S
C165 N168 1.368 . S
C165 H170 0.931 . S
C166 C165 1.351 . S
C166 N167 1.373 . S
C166 H194 0.930 . S
N167 C166 1.373 . S
N167 C169 1.340 . S
N168 C165 1.368 . S
N168 C169 1.321 . S
N168 Co171 2.135 . S
C169 N167 1.340 . S
C169 N168 1.321 . S
C169 H193 0.930 . S
H170 C165 0.931 . S
Co171 N168 2.135 . S
Co171 N174 2.121 . S
Co171 O179 2.055 . S
Co171 O182 2.039 . S
Co171 N185 2.140 . S
C172 O173 1.227 . S
C172 O182 1.265 . S
O173 C172 1.227 . S
N174 Co171 2.121 . S
N174 C176 1.375 . S
N174 C177 1.313 . S
C175 C176 1.338 . S
C175 N178 1.377 . S
C175 H195 0.930 . S
C176 N174 1.375 . S
C176 C175 1.338 . S
C176 H180 0.931 . S
C177 N174 1.313 . S
C177 N178 1.344 . S
C177 H181 0.930 . S
N178 C175 1.377 . S
N178 C177 1.344 . S
O179 Co171 2.055 . S
O179 C183 1.253 . S
H180 C176 0.931 . S
H181 C177 0.930 . S
O182 Co171 2.039 . S
O182 C172 1.265 . S
C183 O179 1.253 . S
C183 O184 1.227 . S
O184 C183 1.227 . S
N185 Co171 2.140 . S
N185 C188 1.346 . S
N185 C189 1.345 . S
C186 C187 1.387 . S
C186 C190 1.391 . S
C187 C186 1.387 . S
C187 C188 1.369 . S
C187 H196 0.929 . S
C188 N185 1.346 . S
C188 C187 1.369 . S
C188 H191 0.928 . S
C189 N185 1.345 . S
C189 C190 1.371 . S
C189 H192 0.931 . S
C190 C186 1.391 . S
C190 C189 1.371 . S
C190 H197 0.930 . S
H191 C188 0.928 . S
H192 C189 0.931 . S
H193 C169 0.930 . S
H194 C166 0.930 . S
H195 C175 0.930 . S
H196 C187 0.929 . S
H197 C190 0.930 . S
C198 C199 1.351 . S
C198 N201 1.368 . S
C198 H203 0.931 . S
C199 C198 1.351 . S
C199 N200 1.373 . S
C199 H227 0.930 . S
N200 C199 1.373 . S
N200 C202 1.340 . S
N201 C198 1.368 . S
N201 C202 1.321 . S
N201 Co204 2.135 . S
C202 N200 1.340 . S
C202 N201 1.321 . S
C202 H226 0.930 . S
H203 C198 0.931 . S
Co204 N201 2.135 . S
Co204 N207 2.121 . S
Co204 O212 2.055 . S
Co204 O215 2.039 . S
Co204 N218 2.140 . S
C205 O206 1.227 . S
C205 O215 1.265 . S
O206 C205 1.227 . S
N207 Co204 2.121 . S
N207 C209 1.375 . S
N207 C210 1.313 . S
C208 C209 1.338 . S
C208 N211 1.377 1_455 S
C208 H228 0.930 1_455 S
C209 N207 1.375 . S
C209 C208 1.338 . S
C209 H213 0.931 . S
C210 N207 1.313 . S
C210 N211 1.344 1_455 S
C210 H214 0.930 . S
N211 C208 1.377 1_655 S
N211 C210 1.344 1_655 S
O212 Co204 2.055 . S
O212 C216 1.253 . S
H213 C209 0.931 . S
H214 C210 0.930 . S
O215 Co204 2.039 . S
O215 C205 1.265 . S
C216 O212 1.253 . S
C216 O217 1.227 . S
O217 C216 1.227 . S
N218 Co204 2.140 . S
N218 C221 1.346 . S
N218 C222 1.345 . S
C219 C220 1.387 . S
C219 C223 1.391 1_455 S
C220 C219 1.387 . S
C220 C221 1.369 . S
C220 H229 0.929 . S
C221 N218 1.346 . S
C221 C220 1.369 . S
C221 H224 0.928 . S
C222 N218 1.345 . S
C222 C223 1.371 1_455 S
C222 H225 0.931 1_455 S
C223 C219 1.391 1_655 S
C223 C222 1.371 1_655 S
C223 H230 0.930 . S
H224 C221 0.928 . S
H225 C222 0.931 1_655 S
H226 C202 0.930 . S
H227 C199 0.930 . S
H228 C208 0.930 1_655 S
H229 C220 0.929 . S
H230 C223 0.930 . S
C231 C232 1.351 . S
C231 N234 1.368 . S
C231 H236 0.931 . S
C232 C231 1.351 . S
C232 N233 1.373 . S
C232 H260 0.930 . S
N233 C232 1.373 . S
N233 C235 1.340 . S
N234 C231 1.368 . S
N234 C235 1.321 . S
N234 Co237 2.135 . S
C235 N233 1.340 . S
C235 N234 1.321 . S
C235 H259 0.930 . S
H236 C231 0.931 . S
Co237 N234 2.135 . S
Co237 N240 2.121 . S
Co237 O245 2.055 . S
Co237 O248 2.039 . S
Co237 N251 2.140 . S
C238 O239 1.227 . S
C238 O248 1.265 . S
O239 C238 1.227 . S
N240 Co237 2.121 . S
N240 C242 1.375 . S
N240 C243 1.313 . S
C241 C242 1.338 . S
C241 N244 1.377 . S
C241 H261 0.930 . S
C242 N240 1.375 . S
C242 C241 1.338 . S
C242 H246 0.931 . S
C243 N240 1.313 . S
C243 N244 1.344 . S
C243 H247 0.930 . S
N244 C241 1.377 . S
N244 C243 1.344 . S
O245 Co237 2.055 . S
O245 C249 1.253 . S
H246 C242 0.931 . S
H247 C243 0.930 . S
O248 Co237 2.039 . S
O248 C238 1.265 . S
C249 O245 1.253 . S
C249 O250 1.227 . S
O250 C249 1.227 . S
N251 Co237 2.140 . S
N251 C254 1.346 . S
N251 C255 1.345 . S
C252 C253 1.387 . S
C252 C256 1.391 . S
C253 C252 1.387 . S
C253 C254 1.369 . S
C253 H262 0.929 . S
C254 N251 1.346 . S
C254 C253 1.369 . S
C254 H257 0.928 . S
C255 N251 1.345 . S
C255 C256 1.371 . S
C255 H258 0.931 . S
C256 C252 1.391 . S
C256 C255 1.371 . S
C256 H263 0.930 . S
H257 C254 0.928 . S
H258 C255 0.931 . S
H259 C235 0.930 . S
H260 C232 0.930 . S
H261 C241 0.930 . S
H262 C253 0.929 . S
H263 C256 0.930 . S
C264 C265 1.351 1_545 S
C264 N267 1.368 . S
C264 H269 0.931 . S
C265 C264 1.351 1_565 S
C265 N266 1.373 . S
C265 H293 0.930 . S
N266 C265 1.373 . S
N266 C268 1.340 . S
N267 C264 1.368 . S
N267 C268 1.321 1_545 S
N267 Co270 2.135 . S
C268 N266 1.340 . S
C268 N267 1.321 1_565 S
C268 H292 0.930 . S
H269 C264 0.931 . S
Co270 N267 2.135 . S
Co270 N273 2.121 . S
Co270 O278 2.055 . S
Co270 O281 2.039 . S
Co270 N284 2.140 . S
C271 O272 1.227 1_565 S
C271 O281 1.265 1_565 S
O272 C271 1.227 1_545 S
N273 Co270 2.121 . S
N273 C275 1.375 . S
N273 C276 1.313 . S
C274 C275 1.338 . S
C274 N277 1.377 . S
C274 H294 0.930 . S
C275 N273 1.375 . S
C275 C274 1.338 . S
C275 H279 0.931 . S
C276 N273 1.313 . S
C276 N277 1.344 . S
C276 H280 0.930 . S
N277 C274 1.377 . S
N277 C276 1.344 . S
O278 Co270 2.055 . S
O278 C282 1.253 . S
H279 C275 0.931 . S
H280 C276 0.930 . S
O281 Co270 2.039 . S
O281 C271 1.265 1_545 S
C282 O278 1.253 . S
C282 O283 1.227 . S
O283 C282 1.227 . S
N284 Co270 2.140 . S
N284 C287 1.346 . S
N284 C288 1.345 . S
C285 C286 1.387 . S
C285 C289 1.391 1_556 S
C286 C285 1.387 . S
C286 C287 1.369 1_556 S
C286 H295 0.929 . S
C287 N284 1.346 . S
C287 C286 1.369 1_554 S
C287 H290 0.928 . S
C288 N284 1.345 . S
C288 C289 1.371 . S
C288 H291 0.931 . S
C289 C285 1.391 1_554 S
C289 C288 1.371 . S
C289 H296 0.930 . S
H290 C287 0.928 . S
H291 C288 0.931 . S
H292 C268 0.930 . S
H293 C265 0.930 . S
H294 C274 0.930 . S
H295 C286 0.929 . S
H296 C289 0.930 . S
C297 C298 1.351 . S
C297 N300 1.368 . S
C297 H302 0.931 . S
C298 C297 1.351 . S
C298 N299 1.373 . S
C298 H326 0.930 . S
N299 C298 1.373 . S
N299 C301 1.340 . S
N300 C297 1.368 . S
N300 C301 1.321 . S
N300 Co303 2.135 . S
C301 N299 1.340 . S
C301 N300 1.321 . S
C301 H325 0.930 . S
H302 C297 0.931 . S
Co303 N300 2.135 . S
Co303 N306 2.121 . S
Co303 O311 2.055 . S
Co303 O314 2.039 . S
Co303 N317 2.140 . S
C304 O305 1.227 . S
C304 O314 1.265 . S
O305 C304 1.227 . S
N306 Co303 2.121 . S
N306 C308 1.375 . S
N306 C309 1.313 . S
C307 C308 1.338 . S
C307 N310 1.377 . S
C307 H327 0.930 . S
C308 N306 1.375 . S
C308 C307 1.338 . S
C308 H312 0.931 . S
C309 N306 1.313 . S
C309 N310 1.344 . S
C309 H313 0.930 . S
N310 C307 1.377 . S
N310 C309 1.344 . S
O311 Co303 2.055 . S
O311 C315 1.253 . S
H312 C308 0.931 . S
H313 C309 0.930 . S
O314 Co303 2.039 . S
O314 C304 1.265 . S
C315 O311 1.253 . S
C315 O316 1.227 . S
O316 C315 1.227 . S
N317 Co303 2.140 . S
N317 C320 1.346 . S
N317 C321 1.345 . S
C318 C319 1.387 . S
C318 C322 1.391 . S
C319 C318 1.387 . S
C319 C320 1.369 . S
C319 H328 0.929 . S
C320 N317 1.346 . S
C320 C319 1.369 . S
C320 H323 0.928 . S
C321 N317 1.345 . S
C321 C322 1.371 . S
C321 H324 0.931 . S
C322 C318 1.391 . S
C322 C321 1.371 . S
C322 H329 0.930 . S
H323 C320 0.928 . S
H324 C321 0.931 . S
H325 C301 0.930 . S
H326 C298 0.930 . S
H327 C307 0.930 . S
H328 C319 0.929 . S
H329 C322 0.930 . S
C330 C331 1.351 . S
C330 N333 1.368 . S
C330 H335 0.931 . S
C331 C330 1.351 . S
C331 N332 1.373 . S
C331 H359 0.930 . S
N332 C331 1.373 . S
N332 C334 1.340 . S
N333 C330 1.368 . S
N333 C334 1.321 . S
N333 Co336 2.135 . S
C334 N332 1.340 . S
C334 N333 1.321 . S
C334 H358 0.930 . S
H335 C330 0.931 . S
Co336 N333 2.135 . S
Co336 N339 2.121 . S
Co336 O344 2.055 . S
Co336 O347 2.039 . S
Co336 N350 2.140 . S
C337 O338 1.227 . S
C337 O347 1.265 . S
O338 C337 1.227 . S
N339 Co336 2.121 . S
N339 C341 1.375 . S
N339 C342 1.313 . S
C340 C341 1.338 . S
C340 N343 1.377 1_545 S
C340 H360 0.930 1_545 S
C341 N339 1.375 . S
C341 C340 1.338 . S
C341 H345 0.931 . S
C342 N339 1.313 . S
C342 N343 1.344 1_545 S
C342 H346 0.930 . S
N343 C340 1.377 1_565 S
N343 C342 1.344 1_565 S
O344 Co336 2.055 . S
O344 C348 1.253 . S
H345 C341 0.931 . S
H346 C342 0.930 . S
O347 Co336 2.039 . S
O347 C337 1.265 . S
C348 O344 1.253 . S
C348 O349 1.227 . S
O349 C348 1.227 . S
N350 Co336 2.140 . S
N350 C353 1.346 . S
N350 C354 1.345 . S
C351 C352 1.387 . S
C351 C355 1.391 1_545 S
C352 C351 1.387 . S
C352 C353 1.369 . S
C352 H361 0.929 . S
C353 N350 1.346 . S
C353 C352 1.369 . S
C353 H356 0.928 . S
C354 N350 1.345 . S
C354 C355 1.371 1_545 S
C354 H357 0.931 1_545 S
C355 C351 1.391 1_565 S
C355 C354 1.371 1_565 S
C355 H362 0.930 . S
H356 C353 0.928 . S
H357 C354 0.931 1_565 S
H358 C334 0.930 . S
H359 C331 0.930 . S
H360 C340 0.930 1_565 S
H361 C352 0.929 . S
H362 C355 0.930 . S
C363 C364 1.351 . S
C363 N366 1.368 . S
C363 H368 0.931 . S
C364 C363 1.351 . S
C364 N365 1.373 . S
C364 H392 0.930 . S
N365 C364 1.373 . S
N365 C367 1.340 . S
N366 C363 1.368 . S
N366 C367 1.321 . S
N366 Co369 2.135 . S
C367 N365 1.340 . S
C367 N366 1.321 . S
C367 H391 0.930 . S
H368 C363 0.931 . S
Co369 N366 2.135 . S
Co369 N372 2.121 . S
Co369 O377 2.055 . S
Co369 O380 2.039 . S
Co369 N383 2.140 . S
C370 O371 1.227 . S
C370 O380 1.265 . S
O371 C370 1.227 . S
N372 Co369 2.121 . S
N372 C374 1.375 . S
N372 C375 1.313 . S
C373 C374 1.338 . S
C373 N376 1.377 . S
C373 H393 0.930 . S
C374 N372 1.375 . S
C374 C373 1.338 . S
C374 H378 0.931 . S
C375 N372 1.313 . S
C375 N376 1.344 . S
C375 H379 0.930 . S
N376 C373 1.377 . S
N376 C375 1.344 . S
O377 Co369 2.055 . S
O377 C381 1.253 . S
H378 C374 0.931 . S
H379 C375 0.930 . S
O380 Co369 2.039 . S
O380 C370 1.265 . S
C381 O377 1.253 . S
C381 O382 1.227 . S
O382 C381 1.227 . S
N383 Co369 2.140 . S
N383 C386 1.346 . S
N383 C387 1.345 . S
C384 C385 1.387 . S
C384 C388 1.391 . S
C385 C384 1.387 . S
C385 C386 1.369 . S
C385 H394 0.929 . S
C386 N383 1.346 . S
C386 C385 1.369 . S
C386 H389 0.928 . S
C387 N383 1.345 . S
C387 C388 1.371 . S
C387 H390 0.931 . S
C388 C384 1.391 . S
C388 C387 1.371 . S
C388 H395 0.930 . S
H389 C386 0.928 . S
H390 C387 0.931 . S
H391 C367 0.930 . S
H392 C364 0.930 . S
H393 C373 0.930 . S
H394 C385 0.929 . S
H395 C388 0.930 . S
C396 C397 1.351 . S
C396 N399 1.368 . S
C396 H401 0.931 . S
C397 C396 1.351 . S
C397 N398 1.373 . S
C397 H425 0.930 . S
N398 C397 1.373 . S
N398 C400 1.340 . S
N399 C396 1.368 . S
N399 C400 1.321 . S
N399 Co402 2.135 . S
C400 N398 1.340 . S
C400 N399 1.321 . S
C400 H424 0.930 . S
H401 C396 0.931 . S
Co402 N399 2.135 . S
Co402 N405 2.121 . S
Co402 O410 2.055 1_554 S
Co402 O413 2.039 . S
Co402 N416 2.140 . S
C403 O404 1.227 . S
C403 O413 1.265 . S
O404 C403 1.227 . S
N405 Co402 2.121 . S
N405 C407 1.375 . S
N405 C408 1.314 . S
C406 C407 1.338 . S
C406 N409 1.377 . S
C406 H426 0.930 . S
C407 N405 1.375 . S
C407 C406 1.338 . S
C407 H411 0.931 . S
C408 N405 1.314 . S
C408 N409 1.344 . S
C408 H412 0.929 1_554 S
N409 C406 1.377 . S
N409 C408 1.344 . S
O410 Co402 2.055 1_556 S
O410 C414 1.253 . S
H411 C407 0.931 . S
H412 C408 0.929 1_556 S
O413 Co402 2.039 . S
O413 C403 1.265 . S
C414 O410 1.253 . S
C414 O415 1.191 1_556 S
O415 C414 1.191 1_554 S
N416 Co402 2.140 . S
N416 C419 1.346 . S
N416 C420 1.345 . S
C417 C418 1.387 . S
C417 C421 1.391 . S
C418 C417 1.387 . S
C418 C419 1.369 . S
C418 H427 0.929 . S
C419 N416 1.346 . S
C419 C418 1.369 . S
C419 H422 0.928 . S
C420 N416 1.345 . S
C420 C421 1.371 . S
C420 H423 0.931 . S
C421 C417 1.391 . S
C421 C420 1.371 . S
C421 H428 0.930 . S
H422 C419 0.928 . S
H423 C420 0.931 . S
H424 C400 0.930 . S
H425 C397 0.930 . S
H426 C406 0.930 . S
H427 C418 0.929 . S
H428 C421 0.930 . S
C429 C430 1.351 . S
C429 N432 1.368 . S
C429 H434 0.931 . S
C430 C429 1.351 . S
C430 N431 1.373 . S
C430 H458 0.930 . S
N431 C430 1.373 . S
N431 C433 1.340 . S
N432 C429 1.368 . S
N432 C433 1.321 . S
N432 Co435 2.135 1_545 S
C433 N431 1.340 . S
C433 N432 1.321 . S
C433 H457 0.930 1_545 S
H434 C429 0.931 . S
Co435 N432 2.135 1_565 S
Co435 N438 2.121 . S
Co435 O443 2.055 . S
Co435 O446 2.039 . S
Co435 N449 2.140 . S
C436 O437 1.227 . S
C436 O446 1.265 . S
O437 C436 1.227 . S
N438 Co435 2.121 . S
N438 C440 1.375 . S
N438 C441 1.313 . S
C439 C440 1.338 . S
C439 N442 1.377 . S
C439 H459 0.930 . S
C440 N438 1.375 . S
C440 C439 1.338 . S
C440 H444 0.931 . S
C441 N438 1.313 . S
C441 N442 1.344 . S
C441 H445 0.930 . S
N442 C439 1.377 . S
N442 C441 1.344 . S
O443 Co435 2.055 . S
O443 C447 1.253 . S
H444 C440 0.931 . S
H445 C441 0.930 . S
O446 Co435 2.039 . S
O446 C436 1.265 . S
C447 O443 1.253 . S
C447 O448 1.227 1_565 S
O448 C447 1.227 1_545 S
N449 Co435 2.140 . S
N449 C452 1.346 . S
N449 C453 1.345 . S
C450 C451 1.386 1_545 S
C450 C454 1.389 1_545 S
C451 C450 1.386 1_565 S
C451 C452 1.369 . S
C451 H460 0.929 1_565 S
C452 N449 1.346 . S
C452 C451 1.369 . S
C452 H455 0.928 . S
C453 N449 1.345 . S
C453 C454 1.371 . S
C453 H456 0.931 . S
C454 C450 1.389 1_565 S
C454 C453 1.371 . S
C454 H461 0.930 . S
H455 C452 0.928 . S
H456 C453 0.931 . S
H457 C433 0.930 1_565 S
H458 C430 0.930 . S
H459 C439 0.930 . S
H460 C451 0.929 1_545 S
H461 C454 0.930 . S
C462 C463 1.351 . S
C462 N465 1.368 . S
C462 H467 0.931 . S
C463 C462 1.351 . S
C463 N464 1.373 . S
C463 H491 0.930 . S
N464 C463 1.373 . S
N464 C466 1.340 . S
N465 C462 1.368 . S
N465 C466 1.321 . S
N465 Co468 2.135 . S
C466 N464 1.340 . S
C466 N465 1.321 . S
C466 H490 0.930 . S
H467 C462 0.931 . S
Co468 N465 2.135 . S
Co468 N471 2.121 . S
Co468 O476 2.055 . S
Co468 O479 2.039 . S
Co468 N482 2.140 . S
C469 O470 1.227 . S
C469 O479 1.265 . S
O470 C469 1.227 . S
N471 Co468 2.121 . S
N471 C473 1.375 . S
N471 C474 1.313 . S
C472 C473 1.338 . S
C472 N475 1.377 . S
C472 H492 0.930 . S
C473 N471 1.375 . S
C473 C472 1.338 . S
C473 H477 0.931 . S
C474 N471 1.313 . S
C474 N475 1.344 . S
C474 H478 0.930 . S
N475 C472 1.377 . S
N475 C474 1.344 . S
O476 Co468 2.055 . S
O476 C480 1.253 . S
H477 C473 0.931 . S
H478 C474 0.930 . S
O479 Co468 2.039 . S
O479 C469 1.265 . S
C480 O476 1.253 . S
C480 O481 1.227 . S
O481 C480 1.227 . S
N482 Co468 2.140 . S
N482 C485 1.346 . S
N482 C486 1.345 . S
C483 C484 1.387 . S
C483 C487 1.391 . S
C484 C483 1.387 . S
C484 C485 1.369 . S
C484 H493 0.929 . S
C485 N482 1.346 . S
C485 C484 1.369 . S
C485 H488 0.928 . S
C486 N482 1.345 . S
C486 C487 1.371 . S
C486 H489 0.931 . S
C487 C483 1.391 . S
C487 C486 1.371 . S
C487 H494 0.930 . S
H488 C485 0.928 . S
H489 C486 0.931 . S
H490 C466 0.930 . S
H491 C463 0.930 . S
H492 C472 0.930 . S
H493 C484 0.929 . S
H494 C487 0.930 . S
C495 C496 1.351 . S
C495 N498 1.368 . S
C495 H500 0.931 . S
C496 C495 1.351 . S
C496 N497 1.373 . S
C496 H524 0.930 . S
N497 C496 1.373 . S
N497 C499 1.340 . S
N498 C495 1.368 . S
N498 C499 1.321 . S
N498 Co501 2.135 . S
C499 N497 1.340 . S
C499 N498 1.321 . S
C499 H523 0.930 . S
H500 C495 0.931 . S
Co501 N498 2.135 . S
Co501 N504 2.121 . S
Co501 O509 2.055 . S
Co501 O512 2.039 . S
Co501 N515 2.140 . S
C502 O503 1.227 . S
C502 O512 1.265 . S
O503 C502 1.227 . S
N504 Co501 2.121 . S
N504 C506 1.375 . S
N504 C507 1.313 . S
C505 C506 1.338 . S
C505 N508 1.377 . S
C505 H525 0.930 . S
C506 N504 1.375 . S
C506 C505 1.338 . S
C506 H510 0.931 . S
C507 N504 1.313 . S
C507 N508 1.344 . S
C507 H511 0.930 . S
N508 C505 1.377 . S
N508 C507 1.344 . S
O509 Co501 2.055 . S
O509 C513 1.253 . S
H510 C506 0.931 . S
H511 C507 0.930 . S
O512 Co501 2.039 . S
O512 C502 1.265 . S
C513 O509 1.253 . S
C513 O514 1.227 . S
O514 C513 1.227 . S
N515 Co501 2.140 . S
N515 C518 1.346 . S
N515 C519 1.345 . S
C516 C517 1.387 . S
C516 C520 1.391 . S
C517 C516 1.387 . S
C517 C518 1.369 . S
C517 H526 0.929 . S
C518 N515 1.346 . S
C518 C517 1.369 . S
C518 H521 0.928 . S
C519 N515 1.345 . S
C519 C520 1.371 . S
C519 H522 0.931 . S
C520 C516 1.391 . S
C520 C519 1.371 . S
C520 H527 0.930 . S
H521 C518 0.928 . S
H522 C519 0.931 . S
H523 C499 0.930 . S
H524 C496 0.930 . S
H525 C505 0.930 . S
H526 C517 0.929 . S
H527 C520 0.930 . S
C528 C529 1.351 1_554 S
C528 N531 1.368 . S
C528 H533 0.931 . S
C529 C528 1.351 1_556 S
C529 N530 1.373 . S
C529 H557 0.930 . S
N530 C529 1.373 . S
N530 C532 1.340 . S
N531 C528 1.368 . S
N531 C532 1.321 1_554 S
N531 Co534 2.135 . S
C532 N530 1.340 . S
C532 N531 1.321 1_556 S
C532 H556 0.930 . S
H533 C528 0.931 . S
Co534 N531 2.135 . S
Co534 N537 2.121 . S
Co534 O542 2.055 . S
Co534 O545 2.039 . S
Co534 N548 2.140 . S
C535 O536 1.227 1_556 S
C535 O545 1.265 1_556 S
O536 C535 1.227 1_554 S
N537 Co534 2.121 . S
N537 C539 1.375 . S
N537 C540 1.313 . S
C538 C539 1.338 . S
C538 N541 1.377 . S
C538 H558 0.930 . S
C539 N537 1.375 . S
C539 C538 1.338 . S
C539 H543 0.931 . S
C540 N537 1.313 . S
C540 N541 1.344 . S
C540 H544 0.930 . S
N541 C538 1.377 . S
N541 C540 1.344 . S
O542 Co534 2.055 . S
O542 C546 1.253 . S
H543 C539 0.931 . S
H544 C540 0.930 . S
O545 Co534 2.039 . S
O545 C535 1.265 1_554 S
C546 O542 1.253 . S
C546 O547 1.227 . S
O547 C546 1.227 . S
N548 Co534 2.140 . S
N548 C551 1.346 . S
N548 C552 1.345 . S
C549 C550 1.387 . S
C549 C553 1.391 1_655 S
C550 C549 1.387 . S
C550 C551 1.369 1_655 S
C550 H559 0.929 . S
C551 N548 1.346 . S
C551 C550 1.369 1_455 S
C551 H554 0.928 . S
C552 N548 1.345 . S
C552 C553 1.371 . S
C552 H555 0.931 . S
C553 C549 1.391 1_455 S
C553 C552 1.371 . S
C553 H560 0.930 . S
H554 C551 0.928 . S
H555 C552 0.931 . S
H556 C532 0.930 . S
H557 C529 0.930 . S
H558 C538 0.930 . S
H559 C550 0.929 . S
H560 C553 0.930 . S
C561 C562 1.351 . S
C561 N564 1.368 . S
C561 H566 0.931 . S
C562 C561 1.351 . S
C562 N563 1.373 . S
C562 H590 0.930 . S
N563 C562 1.373 . S
N563 C565 1.340 . S
N564 C561 1.368 . S
N564 C565 1.321 . S
N564 Co567 2.135 . S
C565 N563 1.340 . S
C565 N564 1.321 . S
C565 H589 0.930 . S
H566 C561 0.931 . S
Co567 N564 2.135 . S
Co567 N570 2.121 . S
Co567 O575 2.055 . S
Co567 O578 2.039 . S
Co567 N581 2.140 . S
C568 O569 1.227 . S
C568 O578 1.265 . S
O569 C568 1.227 . S
N570 Co567 2.121 . S
N570 C572 1.375 . S
N570 C573 1.313 . S
C571 C572 1.338 . S
C571 N574 1.377 1_554 S
C571 H591 0.930 1_554 S
C572 N570 1.375 . S
C572 C571 1.338 . S
C572 H576 0.931 . S
C573 N570 1.313 . S
C573 N574 1.344 1_554 S
C573 H577 0.930 . S
N574 C571 1.377 1_556 S
N574 C573 1.344 1_556 S
O575 Co567 2.055 . S
O575 C579 1.253 . S
H576 C572 0.931 . S
H577 C573 0.930 . S
O578 Co567 2.039 . S
O578 C568 1.265 . S
C579 O575 1.253 . S
C579 O580 1.227 . S
O580 C579 1.227 . S
N581 Co567 2.140 . S
N581 C584 1.346 . S
N581 C585 1.345 . S
C582 C583 1.387 . S
C582 C586 1.391 1_554 S
C583 C582 1.387 . S
C583 C584 1.369 . S
C583 H592 0.929 . S
C584 N581 1.346 . S
C584 C583 1.369 . S
C584 H587 0.928 . S
C585 N581 1.345 . S
C585 C586 1.371 1_554 S
C585 H588 0.931 1_554 S
C586 C582 1.391 1_556 S
C586 C585 1.371 1_556 S
C586 H593 0.930 . S
H587 C584 0.928 . S
H588 C585 0.931 1_556 S
H589 C565 0.930 . S
H590 C562 0.930 . S
H591 C571 0.930 1_556 S
H592 C583 0.929 . S
H593 C586 0.930 . S
C594 C595 1.351 . S
C594 N597 1.368 . S
C594 H599 0.931 . S
C595 C594 1.351 . S
C595 N596 1.373 . S
C595 H623 0.930 . S
N596 C595 1.373 . S
N596 C598 1.340 . S
N597 C594 1.368 . S
N597 C598 1.321 . S
N597 Co600 2.135 . S
C598 N596 1.340 . S
C598 N597 1.321 . S
C598 H622 0.930 . S
H599 C594 0.931 . S
Co600 N597 2.135 . S
Co600 N603 2.121 . S
Co600 O608 2.055 . S
Co600 O611 2.039 . S
Co600 N614 2.140 . S
C601 O602 1.227 . S
C601 O611 1.265 . S
O602 C601 1.227 . S
N603 Co600 2.121 . S
N603 C605 1.375 . S
N603 C606 1.313 . S
C604 C605 1.338 . S
C604 N607 1.377 . S
C604 H624 0.930 . S
C605 N603 1.375 . S
C605 C604 1.338 . S
C605 H609 0.931 . S
C606 N603 1.313 . S
C606 N607 1.344 . S
C606 H610 0.930 . S
N607 C604 1.377 . S
N607 C606 1.344 . S
O608 Co600 2.055 . S
O608 C612 1.253 . S
H609 C605 0.931 . S
H610 C606 0.930 . S
O611 Co600 2.039 . S
O611 C601 1.265 . S
C612 O608 1.253 . S
C612 O613 1.227 . S
O613 C612 1.227 . S
N614 Co600 2.140 . S
N614 C617 1.346 . S
N614 C618 1.345 . S
C615 C616 1.387 . S
C615 C619 1.391 . S
C616 C615 1.387 . S
C616 C617 1.369 . S
C616 H625 0.929 . S
C617 N614 1.346 . S
C617 C616 1.369 . S
C617 H620 0.928 . S
C618 N614 1.345 . S
C618 C619 1.371 . S
C618 H621 0.931 . S
C619 C615 1.391 . S
C619 C618 1.371 . S
C619 H626 0.930 . S
H620 C617 0.928 . S
H621 C618 0.931 . S
H622 C598 0.930 . S
H623 C595 0.930 . S
H624 C604 0.930 . S
H625 C616 0.929 . S
H626 C619 0.930 . S
C627 C628 1.351 . S
C627 N630 1.368 . S
C627 H632 0.931 . S
C628 C627 1.351 . S
C628 N629 1.373 . S
C628 H656 0.930 . S
N629 C628 1.373 . S
N629 C631 1.340 . S
N630 C627 1.368 . S
N630 C631 1.321 . S
N630 Co633 2.135 . S
C631 N629 1.340 . S
C631 N630 1.321 . S
C631 H655 0.930 . S
H632 C627 0.931 . S
Co633 N630 2.135 . S
Co633 N636 2.121 . S
Co633 O641 2.055 1_455 S
Co633 O644 2.039 . S
Co633 N647 2.140 . S
C634 O635 1.227 . S
C634 O644 1.265 . S
O635 C634 1.227 . S
N636 Co633 2.121 . S
N636 C638 1.375 . S
N636 C639 1.314 . S
C637 C638 1.338 . S
C637 N640 1.377 . S
C637 H657 0.930 . S
C638 N636 1.375 . S
C638 C637 1.338 . S
C638 H642 0.931 . S
C639 N636 1.314 . S
C639 N640 1.344 . S
C639 H643 0.929 1_455 S
N640 C637 1.377 . S
N640 C639 1.344 . S
O641 Co633 2.055 1_655 S
O641 C645 1.253 . S
H642 C638 0.931 . S
H643 C639 0.929 1_655 S
O644 Co633 2.039 . S
O644 C634 1.265 . S
C645 O641 1.253 . S
C645 O646 1.191 1_655 S
O646 C645 1.191 1_455 S
N647 Co633 2.140 . S
N647 C650 1.346 . S
N647 C651 1.345 . S
C648 C649 1.387 . S
C648 C652 1.391 . S
C649 C648 1.387 . S
C649 C650 1.369 . S
C649 H658 0.929 . S
C650 N647 1.346 . S
C650 C649 1.369 . S
C650 H653 0.928 . S
C651 N647 1.345 . S
C651 C652 1.371 . S
C651 H654 0.931 . S
C652 C648 1.391 . S
C652 C651 1.371 . S
C652 H659 0.930 . S
H653 C650 0.928 . S
H654 C651 0.931 . S
H655 C631 0.930 . S
H656 C628 0.930 . S
H657 C637 0.930 . S
H658 C649 0.929 . S
H659 C652 0.930 . S
C660 C661 1.351 . S
C660 N663 1.368 . S
C660 H665 0.931 . S
C661 C660 1.351 . S
C661 N662 1.373 . S
C661 H689 0.930 . S
N662 C661 1.373 . S
N662 C664 1.340 . S
N663 C660 1.368 . S
N663 C664 1.321 . S
N663 Co666 2.135 . S
C664 N662 1.340 . S
C664 N663 1.321 . S
C664 H688 0.930 . S
H665 C660 0.931 . S
Co666 N663 2.135 . S
Co666 N669 2.121 . S
Co666 O674 2.055 . S
Co666 O677 2.039 . S
Co666 N680 2.140 . S
C667 O668 1.227 . S
C667 O677 1.265 . S
O668 C667 1.227 . S
N669 Co666 2.121 . S
N669 C671 1.375 . S
N669 C672 1.313 . S
C670 C671 1.338 . S
C670 N673 1.377 . S
C670 H690 0.930 . S
C671 N669 1.375 . S
C671 C670 1.338 . S
C671 H675 0.931 . S
C672 N669 1.313 . S
C672 N673 1.344 . S
C672 H676 0.930 . S
N673 C670 1.377 . S
N673 C672 1.344 . S
O674 Co666 2.055 . S
O674 C678 1.253 . S
H675 C671 0.931 . S
H676 C672 0.930 . S
O677 Co666 2.039 . S
O677 C667 1.265 . S
C678 O674 1.253 . S
C678 O679 1.227 . S
O679 C678 1.227 . S
N680 Co666 2.140 . S
N680 C683 1.346 . S
N680 C684 1.345 . S
C681 C682 1.387 . S
C681 C685 1.391 . S
C682 C681 1.387 . S
C682 C683 1.369 . S
C682 H691 0.929 . S
C683 N680 1.346 . S
C683 C682 1.369 . S
C683 H686 0.928 . S
C684 N680 1.345 . S
C684 C685 1.371 . S
C684 H687 0.931 . S
C685 C681 1.391 . S
C685 C684 1.371 . S
C685 H692 0.930 . S
H686 C683 0.928 . S
H687 C684 0.931 . S
H688 C664 0.930 . S
H689 C661 0.930 . S
H690 C670 0.930 . S
H691 C682 0.929 . S
H692 C685 0.930 . S
C693 C694 1.351 . S
C693 N696 1.368 . S
C693 H698 0.931 . S
C694 C693 1.351 . S
C694 N695 1.373 . S
C694 H722 0.930 . S
N695 C694 1.373 . S
N695 C697 1.340 . S
N696 C693 1.368 . S
N696 C697 1.321 . S
N696 Co699 2.135 . S
C697 N695 1.340 . S
C697 N696 1.321 . S
C697 H721 0.930 . S
H698 C693 0.931 . S
Co699 N696 2.135 . S
Co699 N702 2.121 . S
Co699 O707 2.055 . S
Co699 O710 2.039 . S
Co699 N713 2.140 . S
C700 O701 1.227 . S
C700 O710 1.265 . S
O701 C700 1.227 . S
N702 Co699 2.121 . S
N702 C704 1.375 . S
N702 C705 1.313 . S
C703 C704 1.338 . S
C703 N706 1.377 . S
C703 H723 0.930 . S
C704 N702 1.375 . S
C704 C703 1.338 . S
C704 H708 0.931 . S
C705 N702 1.313 . S
C705 N706 1.344 . S
C705 H709 0.930 . S
N706 C703 1.377 . S
N706 C705 1.344 . S
O707 Co699 2.055 . S
O707 C711 1.253 . S
H708 C704 0.931 . S
H709 C705 0.930 . S
O710 Co699 2.039 . S
O710 C700 1.265 . S
C711 O707 1.253 . S
C711 O712 1.227 . S
O712 C711 1.227 . S
N713 Co699 2.140 . S
N713 C716 1.346 . S
N713 C717 1.345 . S
C714 C715 1.387 . S
C714 C718 1.391 . S
C715 C714 1.387 . S
C715 C716 1.369 . S
C715 H724 0.929 . S
C716 N713 1.346 . S
C716 C715 1.369 . S
C716 H719 0.928 . S
C717 N713 1.345 . S
C717 C718 1.371 . S
C717 H720 0.931 . S
C718 C714 1.391 . S
C718 C717 1.371 . S
C718 H725 0.930 . S
H719 C716 0.928 . S
H720 C717 0.931 . S
H721 C697 0.930 . S
H722 C694 0.930 . S
H723 C703 0.930 . S
H724 C715 0.929 . S
H725 C718 0.930 . S
C726 C727 1.351 . S
C726 N729 1.368 . S
C726 H731 0.931 . S
C727 C726 1.351 . S
C727 N728 1.373 . S
C727 H755 0.930 . S
N728 C727 1.373 . S
N728 C730 1.340 . S
N729 C726 1.368 . S
N729 C730 1.321 . S
N729 Co732 2.135 1_455 S
C730 N728 1.340 . S
C730 N729 1.321 . S
C730 H754 0.930 1_455 S
H731 C726 0.931 . S
Co732 N729 2.135 1_655 S
Co732 N735 2.121 . S
Co732 O740 2.055 . S
Co732 O743 2.039 . S
Co732 N746 2.140 . S
C733 O734 1.227 . S
C733 O743 1.265 . S
O734 C733 1.227 . S
N735 Co732 2.121 . S
N735 C737 1.375 . S
N735 C738 1.313 . S
C736 C737 1.338 . S
C736 N739 1.377 . S
C736 H756 0.930 . S
C737 N735 1.375 . S
C737 C736 1.338 . S
C737 H741 0.931 . S
C738 N735 1.313 . S
C738 N739 1.344 . S
C738 H742 0.930 . S
N739 C736 1.377 . S
N739 C738 1.344 . S
O740 Co732 2.055 . S
O740 C744 1.253 . S
H741 C737 0.931 . S
H742 C738 0.930 . S
O743 Co732 2.039 . S
O743 C733 1.265 . S
C744 O740 1.253 . S
C744 O745 1.227 1_655 S
O745 C744 1.227 1_455 S
N746 Co732 2.140 . S
N746 C749 1.346 . S
N746 C750 1.345 . S
C747 C748 1.386 1_455 S
C747 C751 1.389 1_455 S
C748 C747 1.386 1_655 S
C748 C749 1.369 . S
C748 H757 0.929 1_655 S
C749 N746 1.346 . S
C749 C748 1.369 . S
C749 H752 0.928 . S
C750 N746 1.345 . S
C750 C751 1.371 . S
C750 H753 0.931 . S
C751 C747 1.389 1_655 S
C751 C750 1.371 . S
C751 H758 0.930 . S
H752 C749 0.928 . S
H753 C750 0.931 . S
H754 C730 0.930 1_655 S
H755 C727 0.930 . S
H756 C736 0.930 . S
H757 C748 0.929 1_455 S
H758 C751 0.930 . S
C759 C760 1.351 . S
C759 N762 1.368 . S
C759 H764 0.931 . S
C760 C759 1.351 . S
C760 N761 1.373 . S
C760 H788 0.930 . S
N761 C760 1.373 . S
N761 C763 1.340 . S
N762 C759 1.368 . S
N762 C763 1.321 . S
N762 Co765 2.135 . S
C763 N761 1.340 . S
C763 N762 1.321 . S
C763 H787 0.930 . S
H764 C759 0.931 . S
Co765 N762 2.135 . S
Co765 N768 2.121 . S
Co765 O773 2.055 . S
Co765 O776 2.039 . S
Co765 N779 2.140 . S
C766 O767 1.227 . S
C766 O776 1.265 . S
O767 C766 1.227 . S
N768 Co765 2.121 . S
N768 C770 1.375 . S
N768 C771 1.313 . S
C769 C770 1.338 . S
C769 N772 1.377 . S
C769 H789 0.930 . S
C770 N768 1.375 . S
C770 C769 1.338 . S
C770 H774 0.931 . S
C771 N768 1.313 . S
C771 N772 1.344 . S
C771 H775 0.930 . S
N772 C769 1.377 . S
N772 C771 1.344 . S
O773 Co765 2.055 . S
O773 C777 1.253 . S
H774 C770 0.931 . S
H775 C771 0.930 . S
O776 Co765 2.039 . S
O776 C766 1.265 . S
C777 O773 1.253 . S
C777 O778 1.227 . S
O778 C777 1.227 . S
N779 Co765 2.140 . S
N779 C782 1.346 . S
N779 C783 1.345 . S
C780 C781 1.387 . S
C780 C784 1.391 . S
C781 C780 1.387 . S
C781 C782 1.369 . S
C781 H790 0.929 . S
C782 N779 1.346 . S
C782 C781 1.369 . S
C782 H785 0.928 . S
C783 N779 1.345 . S
C783 C784 1.371 . S
C783 H786 0.931 . S
C784 C780 1.391 . S
C784 C783 1.371 . S
C784 H791 0.930 . S
H785 C782 0.928 . S
H786 C783 0.931 . S
H787 C763 0.930 . S
H788 C760 0.930 . S
H789 C769 0.930 . S
H790 C781 0.929 . S
H791 C784 0.930 . S
H792 C804 0.930 . S
H793 C806 0.930 . S
H794 C807 0.930 . S
H795 C811 0.959 . S
H796 C811 0.959 . S
H797 C811 0.961 . S
H798 C812 0.960 . S
H799 C812 0.961 . S
H800 C812 0.959 . S
H801 C815 0.929 . S
H802 C816 0.931 . S
H803 C818 0.930 . S
C804 H792 0.930 . S
C804 C805 1.399 . S
C804 C809 1.399 . S
C805 C804 1.399 . S
C805 C806 1.376 . S
C806 H793 0.930 . S
C806 C805 1.376 . S
C806 C807 1.388 . S
C807 H794 0.930 . S
C807 C806 1.388 . S
C807 C808 1.390 . S
C808 C807 1.390 . S
C808 C809 1.394 . S
C808 C814 1.465 . S
C809 C804 1.399 . S
C809 C808 1.394 . S
C809 C810 1.516 . S
C810 C809 1.516 . S
C810 C811 1.502 . S
C810 C812 1.561 . S
C810 C813 1.526 . S
C811 H795 0.959 . S
C811 H796 0.959 . S
C811 H797 0.961 . S
C811 C810 1.502 . S
C812 H798 0.960 . S
C812 H799 0.961 . S
C812 H800 0.959 . S
C812 C810 1.561 . S
C813 C810 1.526 . S
C813 C814 1.396 . S
C813 C818 1.390 . S
C814 C808 1.465 . S
C814 C813 1.396 . S
C814 C815 1.399 . S
C815 H801 0.929 . S
C815 C814 1.399 . S
C815 C816 1.385 . S
C816 H802 0.931 . S
C816 C815 1.385 . S
C816 C817 1.389 . S
C817 C816 1.389 . S
C817 C818 1.387 . S
C818 H803 0.930 . S
C818 C813 1.390 . S
C818 C817 1.387 . S
H819 C831 0.930 . S
H820 C833 0.930 . S
H821 C834 0.930 . S
H822 C838 0.959 1_556 S
H823 C838 0.959 . S
H824 C838 0.961 . S
H825 C839 0.960 . S
H826 C839 0.961 . S
H827 C839 0.959 . S
H828 C842 0.929 . S
H829 C843 0.931 . S
H830 C845 0.930 . S
C831 H819 0.930 . S
C831 C832 1.399 1_554 S
C831 C836 1.399 . S
C832 C831 1.399 1_556 S
C832 C833 1.376 . S
C833 H820 0.930 . S
C833 C832 1.376 . S
C833 C834 1.388 . S
C834 H821 0.930 . S
C834 C833 1.388 . S
C834 C835 1.390 . S
C835 C834 1.390 . S
C835 C836 1.394 1_556 S
C835 C841 1.465 . S
C836 C831 1.399 . S
C836 C835 1.394 1_554 S
C836 C837 1.516 . S
C837 C836 1.516 . S
C837 C838 1.502 . S
C837 C839 1.561 . S
C837 C840 1.526 . S
C838 H822 0.959 1_554 S
C838 H823 0.959 . S
C838 H824 0.961 . S
C838 C837 1.502 . S
C839 H825 0.960 . S
C839 H826 0.961 . S
C839 H827 0.959 . S
C839 C837 1.561 . S
C840 C837 1.526 . S
C840 C841 1.396 1_554 S
C840 C845 1.390 . S
C841 C835 1.465 . S
C841 C840 1.396 1_556 S
C841 C842 1.399 . S
C842 H828 0.929 . S
C842 C841 1.399 . S
C842 C843 1.385 . S
C843 H829 0.931 . S
C843 C842 1.385 . S
C843 C844 1.389 1_556 S
C844 C843 1.389 1_554 S
C844 C845 1.387 . S
C845 H830 0.930 . S
C845 C840 1.390 . S
C845 C844 1.387 . S
H846 C858 0.930 . S
H847 C860 0.930 . S
H848 C861 0.930 . S
H849 C865 0.959 . S
H850 C865 0.959 . S
H851 C865 0.961 . S
H852 C866 0.960 . S
H853 C866 0.961 . S
H854 C866 0.959 . S
H855 C869 0.929 . S
H856 C870 0.931 . S
H857 C872 0.930 . S
C858 H846 0.930 . S
C858 C859 1.399 . S
C858 C863 1.399 . S
C859 C858 1.399 . S
C859 C860 1.376 . S
C860 H847 0.930 . S
C860 C859 1.376 . S
C860 C861 1.388 . S
C861 H848 0.930 . S
C861 C860 1.388 . S
C861 C862 1.390 . S
C862 C861 1.390 . S
C862 C863 1.394 . S
C862 C868 1.465 . S
C863 C858 1.399 . S
C863 C862 1.394 . S
C863 C864 1.516 . S
C864 C863 1.516 . S
C864 C865 1.502 . S
C864 C866 1.561 . S
C864 C867 1.526 . S
C865 H849 0.959 . S
C865 H850 0.959 . S
C865 H851 0.961 . S
C865 C864 1.502 . S
C866 H852 0.960 . S
C866 H853 0.961 . S
C866 H854 0.959 . S
C866 C864 1.561 . S
C867 C864 1.526 . S
C867 C868 1.396 . S
C867 C872 1.390 . S
C868 C862 1.465 . S
C868 C867 1.396 . S
C868 C869 1.399 . S
C869 H855 0.929 . S
C869 C868 1.399 . S
C869 C870 1.385 . S
C870 H856 0.931 . S
C870 C869 1.385 . S
C870 C871 1.389 . S
C871 C870 1.389 . S
C871 C872 1.387 . S
C872 H857 0.930 . S
C872 C867 1.390 . S
C872 C871 1.387 . S
H873 C885 0.930 . S
H874 C887 0.930 . S
H875 C888 0.930 . S
H876 C892 0.959 . S
H877 C892 0.959 . S
H878 C892 0.961 . S
H879 C893 0.960 . S
H880 C893 0.961 . S
H881 C893 0.959 . S
H882 C896 0.929 . S
H883 C897 0.931 . S
H884 C899 0.930 . S
C885 H873 0.930 . S
C885 C886 1.399 . S
C885 C890 1.399 . S
C886 C885 1.399 . S
C886 C887 1.376 . S
C887 H874 0.930 . S
C887 C886 1.376 . S
C887 C888 1.388 . S
C888 H875 0.930 . S
C888 C887 1.388 . S
C888 C889 1.390 . S
C889 C888 1.390 . S
C889 C890 1.394 . S
C889 C895 1.465 . S
C890 C885 1.399 . S
C890 C889 1.394 . S
C890 C891 1.516 . S
C891 C890 1.516 . S
C891 C892 1.502 . S
C891 C893 1.561 . S
C891 C894 1.526 . S
C892 H876 0.959 . S
C892 H877 0.959 . S
C892 H878 0.961 . S
C892 C891 1.502 . S
C893 H879 0.960 . S
C893 H880 0.961 . S
C893 H881 0.959 . S
C893 C891 1.561 . S
C894 C891 1.526 . S
C894 C895 1.396 . S
C894 C899 1.390 . S
C895 C889 1.465 . S
C895 C894 1.396 . S
C895 C896 1.399 . S
C896 H882 0.929 . S
C896 C895 1.399 . S
C896 C897 1.385 . S
C897 H883 0.931 . S
C897 C896 1.385 . S
C897 C898 1.389 . S
C898 C897 1.389 . S
C898 C899 1.387 . S
C899 H884 0.930 . S
C899 C894 1.390 . S
C899 C898 1.387 . S
H900 C912 0.930 . S
H901 C914 0.930 . S
H902 C915 0.930 . S
H903 C919 0.959 . S
H904 C919 0.959 . S
H905 C919 0.961 . S
H906 C920 0.960 . S
H907 C920 0.961 . S
H908 C920 0.959 . S
H909 C923 0.929 . S
H910 C924 0.931 . S
H911 C926 0.930 . S
C912 H900 0.930 . S
C912 C913 1.399 . S
C912 C917 1.399 . S
C913 C912 1.399 . S
C913 C914 1.376 . S
C914 H901 0.930 . S
C914 C913 1.376 . S
C914 C915 1.388 . S
C915 H902 0.930 . S
C915 C914 1.388 . S
C915 C916 1.390 . S
C916 C915 1.390 . S
C916 C917 1.394 . S
C916 C922 1.465 . S
C917 C912 1.399 . S
C917 C916 1.394 . S
C917 C918 1.516 . S
C918 C917 1.516 . S
C918 C919 1.502 . S
C918 C920 1.561 . S
C918 C921 1.526 . S
C919 H903 0.959 . S
C919 H904 0.959 . S
C919 H905 0.961 . S
C919 C918 1.502 . S
C920 H906 0.960 . S
C920 H907 0.961 . S
C920 H908 0.959 . S
C920 C918 1.561 . S
C921 C918 1.526 . S
C921 C922 1.396 . S
C921 C926 1.390 . S
C922 C916 1.465 . S
C922 C921 1.396 . S
C922 C923 1.399 . S
C923 H909 0.929 . S
C923 C922 1.399 . S
C923 C924 1.385 . S
C924 H910 0.931 . S
C924 C923 1.385 . S
C924 C925 1.389 . S
C925 C924 1.389 . S
C925 C926 1.387 . S
C926 H911 0.930 . S
C926 C921 1.390 . S
C926 C925 1.387 . S
H927 C939 0.930 . S
H928 C941 0.930 . S
H929 C942 0.930 . S
H930 C946 0.959 . S
H931 C946 0.959 . S
H932 C946 0.961 . S
H933 C947 0.960 . S
H934 C947 0.961 . S
H935 C947 0.959 . S
H936 C950 0.929 . S
H937 C951 0.931 . S
H938 C953 0.930 . S
C939 H927 0.930 . S
C939 C940 1.399 . S
C939 C944 1.399 . S
C940 C939 1.399 . S
C940 C941 1.376 . S
C941 H928 0.930 . S
C941 C940 1.376 . S
C941 C942 1.388 . S
C942 H929 0.930 . S
C942 C941 1.388 . S
C942 C943 1.390 . S
C943 C942 1.390 . S
C943 C944 1.394 . S
C943 C949 1.465 . S
C944 C939 1.399 . S
C944 C943 1.394 . S
C944 C945 1.516 . S
C945 C944 1.516 . S
C945 C946 1.502 . S
C945 C947 1.561 . S
C945 C948 1.526 . S
C946 H930 0.959 . S
C946 H931 0.959 . S
C946 H932 0.961 . S
C946 C945 1.502 . S
C947 H933 0.960 . S
C947 H934 0.961 . S
C947 H935 0.959 . S
C947 C945 1.561 . S
C948 C945 1.526 . S
C948 C949 1.396 . S
C948 C953 1.390 . S
C949 C943 1.465 . S
C949 C948 1.396 . S
C949 C950 1.399 . S
C950 H936 0.929 . S
C950 C949 1.399 . S
C950 C951 1.385 . S
C951 H937 0.931 . S
C951 C950 1.385 . S
C951 C952 1.389 . S
C952 C951 1.389 . S
C952 C953 1.387 . S
C953 H938 0.930 . S
C953 C948 1.390 . S
C953 C952 1.387 . S
H954 C966 0.930 . S
H955 C968 0.930 . S
H956 C969 0.930 . S
H957 C973 0.959 . S
H958 C973 0.959 . S
H959 C973 0.961 . S
H960 C974 0.960 . S
H961 C974 0.961 . S
H962 C974 0.959 1_455 S
H963 C977 0.929 . S
H964 C978 0.931 . S
H965 C980 0.930 . S
C966 H954 0.930 . S
C966 C967 1.399 1_655 S
C966 C971 1.399 . S
C967 C966 1.399 1_455 S
C967 C968 1.376 . S
C968 H955 0.930 . S
C968 C967 1.376 . S
C968 C969 1.388 . S
C969 H956 0.930 . S
C969 C968 1.388 . S
C969 C970 1.390 . S
C970 C969 1.390 . S
C970 C971 1.394 1_455 S
C970 C976 1.465 . S
C971 C966 1.399 . S
C971 C970 1.394 1_655 S
C971 C972 1.516 . S
C972 C971 1.516 . S
C972 C973 1.502 . S
C972 C974 1.561 . S
C972 C975 1.526 . S
C973 H957 0.959 . S
C973 H958 0.959 . S
C973 H959 0.961 . S
C973 C972 1.502 . S
C974 H960 0.960 . S
C974 H961 0.961 . S
C974 H962 0.959 1_655 S
C974 C972 1.561 . S
C975 C972 1.526 . S
C975 C976 1.396 1_655 S
C975 C980 1.390 . S
C976 C970 1.465 . S
C976 C975 1.396 1_455 S
C976 C977 1.399 . S
C977 H963 0.929 . S
C977 C976 1.399 . S
C977 C978 1.385 . S
C978 H964 0.931 . S
C978 C977 1.385 . S
C978 C979 1.389 1_455 S
C979 C978 1.389 1_655 S
C979 C980 1.387 . S
C980 H965 0.930 . S
C980 C975 1.390 . S
C980 C979 1.387 . S
H981 C993 0.930 . S
H982 C995 0.930 . S
H983 C996 0.930 . S
H984 C1000 0.959 . S
H985 C1000 0.959 . S
H986 C1000 0.961 . S
H987 C1001 0.960 . S
H988 C1001 0.961 . S
H989 C1001 0.959 . S
H990 C1004 0.929 . S
H991 C1005 0.931 . S
H992 C1007 0.930 . S
C993 H981 0.930 . S
C993 C994 1.399 . S
C993 C998 1.399 . S
C994 C993 1.399 . S
C994 C995 1.376 . S
C995 H982 0.930 . S
C995 C994 1.376 . S
C995 C996 1.388 . S
C996 H983 0.930 . S
C996 C995 1.388 . S
C996 C997 1.390 . S
C997 C996 1.390 . S
C997 C998 1.394 . S
C997 C1003 1.465 . S
C998 C993 1.399 . S
C998 C997 1.394 . S
C998 C999 1.516 . S
C999 C998 1.516 . S
C999 C1000 1.502 . S
C999 C1001 1.561 . S
C999 C1002 1.526 . S
C1000 H984 0.959 . S
C1000 H985 0.959 . S
C1000 H986 0.961 . S
C1000 C999 1.502 . S
C1001 H987 0.960 . S
C1001 H988 0.961 . S
C1001 H989 0.959 . S
C1001 C999 1.561 . S
C1002 C999 1.526 . S
C1002 C1003 1.396 . S
C1002 C1007 1.390 . S
C1003 C997 1.465 . S
C1003 C1002 1.396 . S
C1003 C1004 1.399 . S
C1004 H990 0.929 . S
C1004 C1003 1.399 . S
C1004 C1005 1.385 . S
C1005 H991 0.931 . S
C1005 C1004 1.385 . S
C1005 C1006 1.389 . S
C1006 C1005 1.389 . S
C1006 C1007 1.387 . S
C1007 H992 0.930 . S
C1007 C1002 1.390 . S
C1007 C1006 1.387 . S
H1008 C1020 0.930 . S
H1009 C1022 0.930 . S
H1010 C1023 0.930 . S
H1011 C1027 0.959 . S
H1012 C1027 0.959 . S
H1013 C1027 0.961 . S
H1014 C1028 0.960 . S
H1015 C1028 0.961 . S
H1016 C1028 0.959 . S
H1017 C1031 0.929 . S
H1018 C1032 0.931 . S
H1019 C1034 0.930 . S
C1020 H1008 0.930 . S
C1020 C1021 1.399 . S
C1020 C1025 1.399 . S
C1021 C1020 1.399 . S
C1021 C1022 1.376 . S
C1022 H1009 0.930 . S
C1022 C1021 1.376 . S
C1022 C1023 1.388 . S
C1023 H1010 0.930 . S
C1023 C1022 1.388 . S
C1023 C1024 1.390 . S
C1024 C1023 1.390 . S
C1024 C1025 1.394 . S
C1024 C1030 1.465 . S
C1025 C1020 1.399 . S
C1025 C1024 1.394 . S
C1025 C1026 1.516 . S
C1026 C1025 1.516 . S
C1026 C1027 1.502 . S
C1026 C1028 1.561 . S
C1026 C1029 1.526 . S
C1027 H1011 0.959 . S
C1027 H1012 0.959 . S
C1027 H1013 0.961 . S
C1027 C1026 1.502 . S
C1028 H1014 0.960 . S
C1028 H1015 0.961 . S
C1028 H1016 0.959 . S
C1028 C1026 1.561 . S
C1029 C1026 1.526 . S
C1029 C1030 1.396 . S
C1029 C1034 1.390 . S
C1030 C1024 1.465 . S
C1030 C1029 1.396 . S
C1030 C1031 1.399 . S
C1031 H1017 0.929 . S
C1031 C1030 1.399 . S
C1031 C1032 1.385 . S
C1032 H1018 0.931 . S
C1032 C1031 1.385 . S
C1032 C1033 1.389 . S
C1033 C1032 1.389 . S
C1033 C1034 1.387 . S
C1034 H1019 0.930 . S
C1034 C1029 1.390 . S
C1034 C1033 1.387 . S
H1035 C1047 0.930 . S
H1036 C1049 0.930 . S
H1037 C1050 0.930 . S
H1038 C1054 0.959 . S
H1039 C1054 0.959 . S
H1040 C1054 0.961 . S
H1041 C1055 0.960 . S
H1042 C1055 0.961 . S
H1043 C1055 0.959 . S
H1044 C1058 0.929 . S
H1045 C1059 0.931 . S
H1046 C1061 0.930 . S
C1047 H1035 0.930 . S
C1047 C1048 1.399 . S
C1047 C1052 1.399 . S
C1048 C1047 1.399 . S
C1048 C1049 1.376 . S
C1049 H1036 0.930 . S
C1049 C1048 1.376 . S
C1049 C1050 1.388 . S
C1050 H1037 0.930 . S
C1050 C1049 1.388 . S
C1050 C1051 1.390 . S
C1051 C1050 1.390 . S
C1051 C1052 1.394 . S
C1051 C1057 1.465 . S
C1052 C1047 1.399 . S
C1052 C1051 1.394 . S
C1052 C1053 1.516 . S
C1053 C1052 1.516 . S
C1053 C1054 1.502 . S
C1053 C1055 1.561 . S
C1053 C1056 1.526 . S
C1054 H1038 0.959 . S
C1054 H1039 0.959 . S
C1054 H1040 0.961 . S
C1054 C1053 1.502 . S
C1055 H1041 0.960 . S
C1055 H1042 0.961 . S
C1055 H1043 0.959 . S
C1055 C1053 1.561 . S
C1056 C1053 1.526 . S
C1056 C1057 1.396 . S
C1056 C1061 1.390 . S
C1057 C1051 1.465 . S
C1057 C1056 1.396 . S
C1057 C1058 1.399 . S
C1058 H1044 0.929 . S
C1058 C1057 1.399 . S
C1058 C1059 1.385 . S
C1059 H1045 0.931 . S
C1059 C1058 1.385 . S
C1059 C1060 1.389 . S
C1060 C1059 1.389 . S
C1060 C1061 1.387 . S
C1061 H1046 0.930 . S
C1061 C1056 1.390 . S
C1061 C1060 1.387 . S
H1062 C1074 0.930 . S
H1063 C1076 0.930 . S
H1064 C1077 0.930 . S
H1065 C1081 0.959 . S
H1066 C1081 0.959 . S
H1067 C1081 0.961 . S
H1068 C1082 0.960 . S
H1069 C1082 0.961 . S
H1070 C1082 0.959 . S
H1071 C1085 0.929 . S
H1072 C1086 0.931 . S
H1073 C1088 0.930 . S
C1074 H1062 0.930 . S
C1074 C1075 1.399 . S
C1074 C1079 1.399 . S
C1075 C1074 1.399 . S
C1075 C1076 1.376 1_565 S
C1076 H1063 0.930 . S
C1076 C1075 1.376 1_545 S
C1076 C1077 1.388 . S
C1077 H1064 0.930 . S
C1077 C1076 1.388 . S
C1077 C1078 1.390 . S
C1078 C1077 1.390 . S
C1078 C1079 1.394 1_545 S
C1078 C1084 1.465 . S
C1079 C1074 1.399 . S
C1079 C1078 1.394 1_565 S
C1079 C1080 1.516 . S
C1080 C1079 1.516 . S
C1080 C1081 1.502 . S
C1080 C1082 1.561 . S
C1080 C1083 1.526 . S
C1081 H1065 0.959 . S
C1081 H1066 0.959 . S
C1081 H1067 0.961 . S
C1081 C1080 1.502 . S
C1082 H1068 0.960 . S
C1082 H1069 0.961 . S
C1082 H1070 0.959 . S
C1082 C1080 1.561 . S
C1083 C1080 1.526 . S
C1083 C1084 1.396 1_565 S
C1083 C1088 1.390 . S
C1084 C1078 1.465 . S
C1084 C1083 1.396 1_545 S
C1084 C1085 1.399 . S
C1085 H1071 0.929 . S
C1085 C1084 1.399 . S
C1085 C1086 1.385 . S
C1086 H1072 0.931 . S
C1086 C1085 1.385 . S
C1086 C1087 1.389 . S
C1087 C1086 1.389 . S
C1087 C1088 1.387 1_545 S
C1088 H1073 0.930 . S
C1088 C1083 1.390 . S
C1088 C1087 1.387 1_565 S
H1089 C1101 0.930 . S
H1090 C1103 0.930 . S
H1091 C1104 0.930 . S
H1092 C1108 0.959 . S
H1093 C1108 0.959 . S
H1094 C1108 0.961 . S
H1095 C1109 0.960 . S
H1096 C1109 0.961 . S
H1097 C1109 0.959 . S
H1098 C1112 0.929 . S
H1099 C1113 0.931 . S
H1100 C1115 0.930 . S
C1101 H1089 0.930 . S
C1101 C1102 1.399 . S
C1101 C1106 1.399 . S
C1102 C1101 1.399 . S
C1102 C1103 1.376 . S
C1103 H1090 0.930 . S
C1103 C1102 1.376 . S
C1103 C1104 1.388 . S
C1104 H1091 0.930 . S
C1104 C1103 1.388 . S
C1104 C1105 1.390 . S
C1105 C1104 1.390 . S
C1105 C1106 1.394 . S
C1105 C1111 1.465 . S
C1106 C1101 1.399 . S
C1106 C1105 1.394 . S
C1106 C1107 1.516 . S
C1107 C1106 1.516 . S
C1107 C1108 1.502 . S
C1107 C1109 1.561 . S
C1107 C1110 1.526 . S
C1108 H1092 0.959 . S
C1108 H1093 0.959 . S
C1108 H1094 0.961 . S
C1108 C1107 1.502 . S
C1109 H1095 0.960 . S
C1109 H1096 0.961 . S
C1109 H1097 0.959 . S
C1109 C1107 1.561 . S
C1110 C1107 1.526 . S
C1110 C1111 1.396 . S
C1110 C1115 1.390 . S
C1111 C1105 1.465 . S
C1111 C1110 1.396 . S
C1111 C1112 1.399 . S
C1112 H1098 0.929 . S
C1112 C1111 1.399 . S
C1112 C1113 1.385 . S
C1113 H1099 0.931 . S
C1113 C1112 1.385 . S
C1113 C1114 1.389 . S
C1114 C1113 1.389 . S
C1114 C1115 1.387 . S
C1115 H1100 0.930 . S
C1115 C1110 1.390 . S
C1115 C1114 1.387 . S
H1116 C1128 0.930 . S
H1117 C1130 0.930 . S
H1118 C1131 0.930 . S
H1119 C1135 0.959 . S
H1120 C1135 0.959 . S
H1121 C1135 0.961 . S
H1122 C1136 0.960 . S
H1123 C1136 0.961 . S
H1124 C1136 0.959 . S
H1125 C1139 0.929 . S
H1126 C1140 0.931 . S
H1127 C1142 0.930 . S
C1128 H1116 0.930 . S
C1128 C1129 1.399 . S
C1128 C1133 1.399 . S
C1129 C1128 1.399 . S
C1129 C1130 1.376 . S
C1130 H1117 0.930 . S
C1130 C1129 1.376 . S
C1130 C1131 1.388 . S
C1131 H1118 0.930 . S
C1131 C1130 1.388 . S
C1131 C1132 1.390 . S
C1132 C1131 1.390 . S
C1132 C1133 1.394 . S
C1132 C1138 1.465 . S
C1133 C1128 1.399 . S
C1133 C1132 1.394 . S
C1133 C1134 1.516 . S
C1134 C1133 1.516 . S
C1134 C1135 1.502 . S
C1134 C1136 1.561 . S
C1134 C1137 1.526 . S
C1135 H1119 0.959 . S
C1135 H1120 0.959 . S
C1135 H1121 0.961 . S
C1135 C1134 1.502 . S
C1136 H1122 0.960 . S
C1136 H1123 0.961 . S
C1136 H1124 0.959 . S
C1136 C1134 1.561 . S
C1137 C1134 1.526 . S
C1137 C1138 1.396 . S
C1137 C1142 1.390 . S
C1138 C1132 1.465 . S
C1138 C1137 1.396 . S
C1138 C1139 1.399 . S
C1139 H1125 0.929 . S
C1139 C1138 1.399 . S
C1139 C1140 1.385 . S
C1140 H1126 0.931 . S
C1140 C1139 1.385 . S
C1140 C1141 1.389 . S
C1141 C1140 1.389 . S
C1141 C1142 1.387 . S
C1142 H1127 0.930 . S
C1142 C1137 1.390 . S
C1142 C1141 1.387 . S
H1143 C1155 0.930 . S
H1144 C1157 0.930 . S
H1145 C1158 0.930 . S
H1146 C1162 0.959 . S
H1147 C1162 0.959 . S
H1148 C1162 0.961 . S
H1149 C1163 0.960 . S
H1150 C1163 0.961 . S
H1151 C1163 0.959 . S
H1152 C1166 0.929 . S
H1153 C1167 0.931 . S
H1154 C1169 0.930 . S
C1155 H1143 0.930 . S
C1155 C1156 1.399 . S
C1155 C1160 1.399 . S
C1156 C1155 1.399 . S
C1156 C1157 1.376 . S
C1157 H1144 0.930 . S
C1157 C1156 1.376 . S
C1157 C1158 1.388 . S
C1158 H1145 0.930 . S
C1158 C1157 1.388 . S
C1158 C1159 1.390 . S
C1159 C1158 1.390 . S
C1159 C1160 1.394 . S
C1159 C1165 1.465 . S
C1160 C1155 1.399 . S
C1160 C1159 1.394 . S
C1160 C1161 1.516 . S
C1161 C1160 1.516 . S
C1161 C1162 1.502 . S
C1161 C1163 1.561 . S
C1161 C1164 1.526 . S
C1162 H1146 0.959 . S
C1162 H1147 0.959 . S
C1162 H1148 0.961 . S
C1162 C1161 1.502 . S
C1163 H1149 0.960 . S
C1163 H1150 0.961 . S
C1163 H1151 0.959 . S
C1163 C1161 1.561 . S
C1164 C1161 1.526 . S
C1164 C1165 1.396 . S
C1164 C1169 1.390 . S
C1165 C1159 1.465 . S
C1165 C1164 1.396 . S
C1165 C1166 1.399 . S
C1166 H1152 0.929 . S
C1166 C1165 1.399 . S
C1166 C1167 1.385 . S
C1167 H1153 0.931 . S
C1167 C1166 1.385 . S
C1167 C1168 1.389 . S
C1168 C1167 1.389 . S
C1168 C1169 1.387 . S
C1169 H1154 0.930 . S
C1169 C1164 1.390 . S
C1169 C1168 1.387 . S
H1170 C1182 0.930 . S
H1171 C1184 0.930 . S
H1172 C1185 0.930 . S
H1173 C1189 0.959 . S
H1174 C1189 0.959 . S
H1175 C1189 0.961 . S
H1176 C1190 0.960 . S
H1177 C1190 0.961 . S
H1178 C1190 0.959 . S
H1179 C1193 0.929 . S
H1180 C1194 0.931 1_545 S
H1181 C1196 0.930 . S
C1182 H1170 0.930 . S
C1182 C1183 1.399 . S
C1182 C1187 1.399 . S
C1183 C1182 1.399 . S
C1183 C1184 1.376 . S
C1184 H1171 0.930 . S
C1184 C1183 1.376 . S
C1184 C1185 1.388 . S
C1185 H1172 0.930 . S
C1185 C1184 1.388 . S
C1185 C1186 1.390 . S
C1186 C1185 1.390 . S
C1186 C1187 1.394 . S
C1186 C1192 1.465 . S
C1187 C1182 1.399 . S
C1187 C1186 1.394 . S
C1187 C1188 1.516 . S
C1188 C1187 1.516 . S
C1188 C1189 1.502 . S
C1188 C1190 1.561 . S
C1188 C1191 1.526 . S
C1189 H1173 0.959 . S
C1189 H1174 0.959 . S
C1189 H1175 0.961 . S
C1189 C1188 1.502 . S
C1190 H1176 0.960 . S
C1190 H1177 0.961 . S
C1190 H1178 0.959 . S
C1190 C1188 1.561 . S
C1191 C1188 1.526 . S
C1191 C1192 1.396 . S
C1191 C1196 1.390 . S
C1192 C1186 1.465 . S
C1192 C1191 1.396 . S
C1192 C1193 1.399 . S
C1193 H1179 0.929 . S
C1193 C1192 1.399 . S
C1193 C1194 1.385 . S
C1194 H1180 0.931 1_565 S
C1194 C1193 1.385 . S
C1194 C1195 1.389 . S
C1195 C1194 1.389 . S
C1195 C1196 1.387 . S
C1196 H1181 0.930 . S
C1196 C1191 1.390 . S
C1196 C1195 1.387 . S
H1197 C1209 0.930 . S
H1198 C1211 0.930 . S
H1199 C1212 0.930 . S
H1200 C1216 0.959 . S
H1201 C1216 0.959 . S
H1202 C1216 0.961 . S
H1203 C1217 0.960 . S
H1204 C1217 0.961 . S
H1205 C1217 0.959 . S
H1206 C1220 0.929 . S
H1207 C1221 0.931 . S
H1208 C1223 0.930 . S
C1209 H1197 0.930 . S
C1209 C1210 1.399 . S
C1209 C1214 1.399 . S
C1210 C1209 1.399 . S
C1210 C1211 1.376 . S
C1211 H1198 0.930 . S
C1211 C1210 1.376 . S
C1211 C1212 1.388 . S
C1212 H1199 0.930 . S
C1212 C1211 1.388 . S
C1212 C1213 1.390 . S
C1213 C1212 1.390 . S
C1213 C1214 1.394 . S
C1213 C1219 1.465 . S
C1214 C1209 1.399 . S
C1214 C1213 1.394 . S
C1214 C1215 1.516 . S
C1215 C1214 1.516 . S
C1215 C1216 1.502 . S
C1215 C1217 1.561 . S
C1215 C1218 1.526 . S
C1216 H1200 0.959 . S
C1216 H1201 0.959 . S
C1216 H1202 0.961 . S
C1216 C1215 1.502 . S
C1217 H1203 0.960 . S
C1217 H1204 0.961 . S
C1217 H1205 0.959 . S
C1217 C1215 1.561 . S
C1218 C1215 1.526 . S
C1218 C1219 1.396 . S
C1218 C1223 1.390 . S
C1219 C1213 1.465 . S
C1219 C1218 1.396 . S
C1219 C1220 1.399 . S
C1220 H1206 0.929 . S
C1220 C1219 1.399 . S
C1220 C1221 1.385 . S
C1221 H1207 0.931 . S
C1221 C1220 1.385 . S
C1221 C1222 1.389 . S
C1222 C1221 1.389 . S
C1222 C1223 1.387 . S
C1223 H1208 0.930 . S
C1223 C1218 1.390 . S
C1223 C1222 1.387 . S
H1224 C1236 0.930 . S
H1225 C1238 0.930 . S
H1226 C1239 0.930 . S
H1227 C1243 0.959 . S
H1228 C1243 0.959 . S
H1229 C1243 0.961 . S
H1230 C1244 0.960 . S
H1231 C1244 0.961 . S
H1232 C1244 0.959 . S
H1233 C1247 0.929 . S
H1234 C1248 0.931 . S
H1235 C1250 0.930 . S
C1236 H1224 0.930 . S
C1236 C1237 1.399 . S
C1236 C1241 1.399 . S
C1237 C1236 1.399 . S
C1237 C1238 1.376 . S
C1238 H1225 0.930 . S
C1238 C1237 1.376 . S
C1238 C1239 1.388 . S
C1239 H1226 0.930 . S
C1239 C1238 1.388 . S
C1239 C1240 1.390 . S
C1240 C1239 1.390 . S
C1240 C1241 1.394 . S
C1240 C1246 1.465 . S
C1241 C1236 1.399 . S
C1241 C1240 1.394 . S
C1241 C1242 1.516 . S
C1242 C1241 1.516 . S
C1242 C1243 1.502 . S
C1242 C1244 1.561 . S
C1242 C1245 1.526 . S
C1243 H1227 0.959 . S
C1243 H1228 0.959 . S
C1243 H1229 0.961 . S
C1243 C1242 1.502 . S
C1244 H1230 0.960 . S
C1244 H1231 0.961 . S
C1244 H1232 0.959 . S
C1244 C1242 1.561 . S
C1245 C1242 1.526 . S
C1245 C1246 1.396 . S
C1245 C1250 1.390 . S
C1246 C1240 1.465 . S
C1246 C1245 1.396 . S
C1246 C1247 1.399 . S
C1247 H1233 0.929 . S
C1247 C1246 1.399 . S
C1247 C1248 1.385 . S
C1248 H1234 0.931 . S
C1248 C1247 1.385 . S
C1248 C1249 1.389 . S
C1249 C1248 1.389 . S
C1249 C1250 1.387 . S
C1250 H1235 0.930 . S
C1250 C1245 1.390 . S
C1250 C1249 1.387 . S
H1251 C1263 0.930 . S
H1252 C1265 0.930 . S
H1253 C1266 0.930 . S
H1254 C1270 0.959 . S
H1255 C1270 0.959 . S
H1256 C1270 0.961 . S
H1257 C1271 0.960 . S
H1258 C1271 0.961 . S
H1259 C1271 0.959 . S
H1260 C1274 0.929 . S
H1261 C1275 0.931 . S
H1262 C1277 0.930 . S
C1263 H1251 0.930 . S
C1263 C1264 1.399 . S
C1263 C1268 1.399 . S
C1264 C1263 1.399 . S
C1264 C1265 1.376 . S
C1265 H1252 0.930 . S
C1265 C1264 1.376 . S
C1265 C1266 1.388 . S
C1266 H1253 0.930 . S
C1266 C1265 1.388 . S
C1266 C1267 1.390 . S
C1267 C1266 1.390 . S
C1267 C1268 1.394 . S
C1267 C1273 1.465 . S
C1268 C1263 1.399 . S
C1268 C1267 1.394 . S
C1268 C1269 1.516 . S
C1269 C1268 1.516 . S
C1269 C1270 1.502 . S
C1269 C1271 1.561 . S
C1269 C1272 1.526 . S
C1270 H1254 0.959 . S
C1270 H1255 0.959 . S
C1270 H1256 0.961 . S
C1270 C1269 1.502 . S
C1271 H1257 0.960 . S
C1271 H1258 0.961 . S
C1271 H1259 0.959 . S
C1271 C1269 1.561 . S
C1272 C1269 1.526 . S
C1272 C1273 1.396 . S
C1272 C1277 1.390 . S
C1273 C1267 1.465 . S
C1273 C1272 1.396 . S
C1273 C1274 1.399 . S
C1274 H1260 0.929 . S
C1274 C1273 1.399 . S
C1274 C1275 1.385 . S
C1275 H1261 0.931 . S
C1275 C1274 1.385 . S
C1275 C1276 1.389 . S
C1276 C1275 1.389 . S
C1276 C1277 1.387 . S
C1277 H1262 0.930 . S
C1277 C1272 1.390 . S
C1277 C1276 1.387 . S
H1278 C1290 0.930 . S
H1279 C1292 0.930 1_554 S
H1280 C1293 0.930 . S
H1281 C1297 0.959 . S
H1282 C1297 0.959 . S
H1283 C1297 0.961 . S
H1284 C1298 0.960 . S
H1285 C1298 0.961 . S
H1286 C1298 0.959 . S
H1287 C1301 0.929 . S
H1288 C1302 0.931 . S
H1289 C1304 0.930 . S
C1290 H1278 0.930 . S
C1290 C1291 1.399 . S
C1290 C1295 1.399 . S
C1291 C1290 1.399 . S
C1291 C1292 1.376 . S
C1292 H1279 0.930 1_556 S
C1292 C1291 1.376 . S
C1292 C1293 1.388 . S
C1293 H1280 0.930 . S
C1293 C1292 1.388 . S
C1293 C1294 1.390 . S
C1294 C1293 1.390 . S
C1294 C1295 1.394 . S
C1294 C1300 1.465 . S
C1295 C1290 1.399 . S
C1295 C1294 1.394 . S
C1295 C1296 1.509 1_455 S
C1296 C1295 1.509 1_655 S
C1296 C1297 1.516 . S
C1296 C1298 1.552 1_655 S
C1296 C1299 1.527 . S
C1297 H1281 0.959 . S
C1297 H1282 0.959 . S
C1297 H1283 0.961 . S
C1297 C1296 1.516 . S
C1298 H1284 0.960 . S
C1298 H1285 0.961 . S
C1298 H1286 0.959 . S
C1298 C1296 1.552 1_455 S
C1299 C1296 1.527 . S
C1299 C1300 1.396 1_655 S
C1299 C1304 1.390 . S
C1300 C1294 1.465 . S
C1300 C1299 1.396 1_455 S
C1300 C1301 1.399 . S
C1301 H1287 0.929 . S
C1301 C1300 1.399 . S
C1301 C1302 1.392 . S
C1302 H1288 0.931 . S
C1302 C1301 1.392 . S
C1302 C1303 1.382 1_455 S
C1303 C1302 1.382 1_655 S
C1303 C1304 1.387 . S
C1304 H1289 0.930 . S
C1304 C1299 1.390 . S
C1304 C1303 1.387 . S
H1305 C1317 0.930 . S
H1306 C1319 0.930 . S
H1307 C1320 0.930 . S
H1308 C1324 0.959 . S
H1309 C1324 0.959 . S
H1310 C1324 0.961 . S
H1311 C1325 0.960 . S
H1312 C1325 0.961 . S
H1313 C1325 0.959 . S
H1314 C1328 0.929 . S
H1315 C1329 0.931 . S
H1316 C1331 0.930 . S
C1317 H1305 0.930 . S
C1317 C1318 1.399 . S
C1317 C1322 1.399 . S
C1318 C1317 1.399 . S
C1318 C1319 1.376 . S
C1319 H1306 0.930 . S
C1319 C1318 1.376 . S
C1319 C1320 1.388 . S
C1320 H1307 0.930 . S
C1320 C1319 1.388 . S
C1320 C1321 1.390 . S
C1321 C1320 1.390 . S
C1321 C1322 1.394 . S
C1321 C1327 1.465 . S
C1322 C1317 1.399 . S
C1322 C1321 1.394 . S
C1322 C1323 1.516 . S
C1323 C1322 1.516 . S
C1323 C1324 1.502 . S
C1323 C1325 1.561 . S
C1323 C1326 1.526 . S
C1324 H1308 0.959 . S
C1324 H1309 0.959 . S
C1324 H1310 0.961 . S
C1324 C1323 1.502 . S
C1325 H1311 0.960 . S
C1325 H1312 0.961 . S
C1325 H1313 0.959 . S
C1325 C1323 1.561 . S
C1326 C1323 1.526 . S
C1326 C1327 1.396 . S
C1326 C1331 1.390 . S
C1327 C1321 1.465 . S
C1327 C1326 1.396 . S
C1327 C1328 1.399 . S
C1328 H1314 0.929 . S
C1328 C1327 1.399 . S
C1328 C1329 1.385 . S
C1329 H1315 0.931 . S
C1329 C1328 1.385 . S
C1329 C1330 1.389 . S
C1330 C1329 1.389 . S
C1330 C1331 1.387 . S
C1331 H1316 0.930 . S
C1331 C1326 1.390 . S
C1331 C1330 1.387 . S
H1332 C1344 0.930 . S
H1333 C1346 0.930 . S
H1334 C1347 0.930 . S
H1335 C1351 0.959 . S
H1336 C1351 0.959 . S
H1337 C1351 0.961 . S
H1338 C1352 0.960 . S
H1339 C1352 0.961 . S
H1340 C1352 0.959 . S
H1341 C1355 0.929 . S
H1342 C1356 0.931 . S
H1343 C1358 0.930 . S
C1344 H1332 0.930 . S
C1344 C1345 1.399 . S
C1344 C1349 1.399 . S
C1345 C1344 1.399 . S
C1345 C1346 1.376 . S
C1346 H1333 0.930 . S
C1346 C1345 1.376 . S
C1346 C1347 1.388 . S
C1347 H1334 0.930 . S
C1347 C1346 1.388 . S
C1347 C1348 1.390 . S
C1348 C1347 1.390 . S
C1348 C1349 1.394 . S
C1348 C1354 1.465 . S
C1349 C1344 1.399 . S
C1349 C1348 1.394 . S
C1349 C1350 1.516 . S
C1350 C1349 1.516 . S
C1350 C1351 1.502 . S
C1350 C1352 1.561 . S
C1350 C1353 1.526 . S
C1351 H1335 0.959 . S
C1351 H1336 0.959 . S
C1351 H1337 0.961 . S
C1351 C1350 1.502 . S
C1352 H1338 0.960 . S
C1352 H1339 0.961 . S
C1352 H1340 0.959 . S
C1352 C1350 1.561 . S
C1353 C1350 1.526 . S
C1353 C1354 1.396 . S
C1353 C1358 1.390 . S
C1354 C1348 1.465 . S
C1354 C1353 1.396 . S
C1354 C1355 1.399 . S
C1355 H1341 0.929 . S
C1355 C1354 1.399 . S
C1355 C1356 1.385 . S
C1356 H1342 0.931 . S
C1356 C1355 1.385 . S
C1356 C1357 1.389 . S
C1357 C1356 1.389 . S
C1357 C1358 1.387 . S
C1358 H1343 0.930 . S
C1358 C1353 1.390 . S
C1358 C1357 1.387 . S
H1359 C1371 0.930 . S
H1360 C1373 0.930 . S
H1361 C1374 0.930 . S
H1362 C1378 0.959 . S
H1363 C1378 0.959 . S
H1364 C1378 0.961 . S
H1365 C1379 0.960 . S
H1366 C1379 0.961 . S
H1367 C1379 0.959 . S
H1368 C1382 0.929 . S
H1369 C1383 0.931 . S
H1370 C1385 0.930 . S
C1371 H1359 0.930 . S
C1371 C1372 1.399 . S
C1371 C1376 1.399 . S
C1372 C1371 1.399 . S
C1372 C1373 1.376 . S
C1373 H1360 0.930 . S
C1373 C1372 1.376 . S
C1373 C1374 1.388 . S
C1374 H1361 0.930 . S
C1374 C1373 1.388 . S
C1374 C1375 1.390 . S
C1375 C1374 1.390 . S
C1375 C1376 1.394 . S
C1375 C1381 1.465 . S
C1376 C1371 1.399 . S
C1376 C1375 1.394 . S
C1376 C1377 1.516 . S
C1377 C1376 1.516 . S
C1377 C1378 1.502 . S
C1377 C1379 1.561 . S
C1377 C1380 1.526 . S
C1378 H1362 0.959 . S
C1378 H1363 0.959 . S
C1378 H1364 0.961 . S
C1378 C1377 1.502 . S
C1379 H1365 0.960 . S
C1379 H1366 0.961 . S
C1379 H1367 0.959 . S
C1379 C1377 1.561 . S
C1380 C1377 1.526 . S
C1380 C1381 1.396 . S
C1380 C1385 1.390 . S
C1381 C1375 1.465 . S
C1381 C1380 1.396 . S
C1381 C1382 1.399 . S
C1382 H1368 0.929 . S
C1382 C1381 1.399 . S
C1382 C1383 1.385 . S
C1383 H1369 0.931 . S
C1383 C1382 1.385 . S
C1383 C1384 1.389 . S
C1384 C1383 1.389 . S
C1384 C1385 1.387 . S
C1385 H1370 0.930 . S
C1385 C1380 1.390 . S
C1385 C1384 1.387 . S
H1386 C1398 0.930 . S
H1387 C1400 0.930 . S
H1388 C1401 0.930 . S
H1389 C1405 0.959 . S
H1390 C1405 0.959 . S
H1391 C1405 0.961 . S
H1392 C1406 0.960 . S
H1393 C1406 0.961 . S
H1394 C1406 0.959 . S
H1395 C1409 0.929 . S
H1396 C1410 0.913 1_565 S
H1397 C1412 0.930 . S
C1398 H1386 0.930 . S
C1398 C1399 1.399 1_545 S
C1398 C1403 1.399 . S
C1399 C1398 1.399 1_565 S
C1399 C1400 1.376 . S
C1400 H1387 0.930 . S
C1400 C1399 1.376 . S
C1400 C1401 1.388 . S
C1401 H1388 0.930 . S
C1401 C1400 1.388 . S
C1401 C1402 1.390 . S
C1402 C1401 1.390 . S
C1402 C1403 1.394 1_565 S
C1402 C1408 1.466 . S
C1403 C1398 1.399 . S
C1403 C1402 1.394 1_545 S
C1403 C1404 1.516 . S
C1404 C1403 1.516 . S
C1404 C1405 1.502 . S
C1404 C1406 1.561 . S
C1404 C1407 1.526 . S
C1405 H1389 0.959 . S
C1405 H1390 0.959 . S
C1405 H1391 0.961 . S
C1405 C1404 1.502 . S
C1406 H1392 0.960 . S
C1406 H1393 0.961 . S
C1406 H1394 0.959 . S
C1406 C1404 1.561 . S
C1407 C1404 1.526 . S
C1407 C1408 1.394 1_545 S
C1407 C1412 1.390 . S
C1408 C1402 1.466 . S
C1408 C1407 1.394 1_565 S
C1408 C1409 1.400 . S
C1409 H1395 0.929 . S
C1409 C1408 1.400 . S
C1409 C1410 1.365 1_565 S
C1410 H1396 0.913 1_545 S
C1410 C1409 1.365 1_545 S
C1410 C1411 1.429 . S
C1411 C1410 1.429 . S
C1411 C1412 1.387 . S
C1412 H1397 0.930 . S
C1412 C1407 1.390 . S
C1412 C1411 1.387 . S
H1413 C1425 0.930 . S
H1414 C1427 0.930 . S
H1415 C1428 0.930 . S
H1416 C1432 0.959 . S
H1417 C1432 0.959 . S
H1418 C1432 0.961 . S
H1419 C1433 0.960 . S
H1420 C1433 0.961 . S
H1421 C1433 0.959 . S
H1422 C1436 0.929 . S
H1423 C1437 0.931 . S
H1424 C1439 0.930 . S
C1425 H1413 0.930 . S
C1425 C1426 1.399 . S
C1425 C1430 1.399 . S
C1426 C1425 1.399 . S
C1426 C1427 1.376 . S
C1427 H1414 0.930 . S
C1427 C1426 1.376 . S
C1427 C1428 1.388 . S
C1428 H1415 0.930 . S
C1428 C1427 1.388 . S
C1428 C1429 1.390 . S
C1429 C1428 1.390 . S
C1429 C1430 1.394 . S
C1429 C1435 1.465 . S
C1430 C1425 1.399 . S
C1430 C1429 1.394 . S
C1430 C1431 1.516 . S
C1431 C1430 1.516 . S
C1431 C1432 1.502 . S
C1431 C1433 1.561 . S
C1431 C1434 1.526 . S
C1432 H1416 0.959 . S
C1432 H1417 0.959 . S
C1432 H1418 0.961 . S
C1432 C1431 1.502 . S
C1433 H1419 0.960 . S
C1433 H1420 0.961 . S
C1433 H1421 0.959 . S
C1433 C1431 1.561 . S
C1434 C1431 1.526 . S
C1434 C1435 1.396 . S
C1434 C1439 1.390 . S
C1435 C1429 1.465 . S
C1435 C1434 1.396 . S
C1435 C1436 1.399 . S
C1436 H1422 0.929 . S
C1436 C1435 1.399 . S
C1436 C1437 1.385 . S
C1437 H1423 0.931 . S
C1437 C1436 1.385 . S
C1437 C1438 1.389 . S
C1438 C1437 1.389 . S
C1438 C1439 1.387 . S
C1439 H1424 0.930 . S
C1439 C1434 1.390 . S
C1439 C1438 1.387 . S
H1440 C1452 0.930 . S
H1441 C1454 0.930 . S
H1442 C1455 0.930 . S
H1443 C1459 0.959 . S
H1444 C1459 0.959 . S
H1445 C1459 0.961 . S
H1446 C1460 0.960 . S
H1447 C1460 0.961 . S
H1448 C1460 0.959 . S
H1449 C1463 0.929 . S
H1450 C1464 0.931 . S
H1451 C1466 0.930 . S
C1452 H1440 0.930 . S
C1452 C1453 1.399 . S
C1452 C1457 1.399 . S
C1453 C1452 1.399 . S
C1453 C1454 1.376 . S
C1454 H1441 0.930 . S
C1454 C1453 1.376 . S
C1454 C1455 1.388 . S
C1455 H1442 0.930 . S
C1455 C1454 1.388 . S
C1455 C1456 1.390 . S
C1456 C1455 1.390 . S
C1456 C1457 1.394 . S
C1456 C1462 1.465 . S
C1457 C1452 1.399 . S
C1457 C1456 1.394 . S
C1457 C1458 1.516 . S
C1458 C1457 1.516 . S
C1458 C1459 1.502 . S
C1458 C1460 1.561 . S
C1458 C1461 1.526 . S
C1459 H1443 0.959 . S
C1459 H1444 0.959 . S
C1459 H1445 0.961 . S
C1459 C1458 1.502 . S
C1460 H1446 0.960 . S
C1460 H1447 0.961 . S
C1460 H1448 0.959 . S
C1460 C1458 1.561 . S
C1461 C1458 1.526 . S
C1461 C1462 1.396 . S
C1461 C1466 1.390 . S
C1462 C1456 1.465 . S
C1462 C1461 1.396 . S
C1462 C1463 1.399 . S
C1463 H1449 0.929 . S
C1463 C1462 1.399 . S
C1463 C1464 1.385 . S
C1464 H1450 0.931 . S
C1464 C1463 1.385 . S
C1464 C1465 1.389 . S
C1465 C1464 1.389 . S
C1465 C1466 1.387 . S
C1466 H1451 0.930 . S
C1466 C1461 1.390 . S
C1466 C1465 1.387 . S
H1467 C1479 0.930 . S
H1468 C1481 0.930 . S
H1469 C1482 0.930 . S
H1470 C1486 0.959 . S
H1471 C1486 0.959 . S
H1472 C1486 0.961 . S
H1473 C1487 0.960 . S
H1474 C1487 0.961 . S
H1475 C1487 0.959 . S
H1476 C1490 0.929 . S
H1477 C1491 0.931 . S
H1478 C1493 0.930 . S
C1479 H1467 0.930 . S
C1479 C1480 1.399 . S
C1479 C1484 1.399 . S
C1480 C1479 1.399 . S
C1480 C1481 1.376 . S
C1481 H1468 0.930 . S
C1481 C1480 1.376 . S
C1481 C1482 1.388 . S
C1482 H1469 0.930 . S
C1482 C1481 1.388 . S
C1482 C1483 1.390 . S
C1483 C1482 1.390 . S
C1483 C1484 1.394 . S
C1483 C1489 1.465 . S
C1484 C1479 1.399 . S
C1484 C1483 1.394 . S
C1484 C1485 1.516 . S
C1485 C1484 1.516 . S
C1485 C1486 1.502 . S
C1485 C1487 1.561 . S
C1485 C1488 1.526 . S
C1486 H1470 0.959 . S
C1486 H1471 0.959 . S
C1486 H1472 0.961 . S
C1486 C1485 1.502 . S
C1487 H1473 0.960 . S
C1487 H1474 0.961 . S
C1487 H1475 0.959 . S
C1487 C1485 1.561 . S
C1488 C1485 1.526 . S
C1488 C1489 1.396 . S
C1488 C1493 1.390 . S
C1489 C1483 1.465 . S
C1489 C1488 1.396 . S
C1489 C1490 1.399 . S
C1490 H1476 0.929 . S
C1490 C1489 1.399 . S
C1490 C1491 1.385 . S
C1491 H1477 0.931 . S
C1491 C1490 1.385 . S
C1491 C1492 1.389 . S
C1492 C1491 1.389 . S
C1492 C1493 1.387 . S
C1493 H1478 0.930 . S
C1493 C1488 1.390 . S
C1493 C1492 1.387 . S
H1494 C1506 0.930 . S
H1495 C1508 0.930 . S
H1496 C1509 0.930 . S
H1497 C1513 0.959 . S
H1498 C1513 0.959 . S
H1499 C1513 0.961 . S
H1500 C1514 0.960 . S
H1501 C1514 0.961 . S
H1502 C1514 0.959 . S
H1503 C1517 0.929 . S
H1504 C1518 0.931 . S
H1505 C1520 0.930 . S
C1506 H1494 0.930 . S
C1506 C1507 1.399 . S
C1506 C1511 1.399 . S
C1507 C1506 1.399 . S
C1507 C1508 1.376 . S
C1508 H1495 0.930 . S
C1508 C1507 1.376 . S
C1508 C1509 1.388 . S
C1509 H1496 0.930 . S
C1509 C1508 1.388 . S
C1509 C1510 1.390 . S
C1510 C1509 1.390 . S
C1510 C1511 1.394 . S
C1510 C1516 1.465 . S
C1511 C1506 1.399 . S
C1511 C1510 1.394 . S
C1511 C1512 1.516 . S
C1512 C1511 1.516 . S
C1512 C1513 1.502 . S
C1512 C1514 1.561 . S
C1512 C1515 1.526 . S
C1513 H1497 0.959 . S
C1513 H1498 0.959 . S
C1513 H1499 0.961 . S
C1513 C1512 1.502 . S
C1514 H1500 0.960 . S
C1514 H1501 0.961 . S
C1514 H1502 0.959 . S
C1514 C1512 1.561 . S
C1515 C1512 1.526 . S
C1515 C1516 1.396 . S
C1515 C1520 1.390 . S
C1516 C1510 1.465 . S
C1516 C1515 1.396 . S
C1516 C1517 1.399 . S
C1517 H1503 0.929 . S
C1517 C1516 1.399 . S
C1517 C1518 1.385 . S
C1518 H1504 0.931 . S
C1518 C1517 1.385 . S
C1518 C1519 1.389 . S
C1519 C1518 1.389 . S
C1519 C1520 1.387 . S
C1520 H1505 0.930 . S
C1520 C1515 1.390 . S
C1520 C1519 1.387 . S
H1521 C1533 0.930 . S
H1522 C1535 0.930 . S
H1523 C1536 0.930 . S
H1524 C1540 0.959 . S
H1525 C1540 0.959 . S
H1526 C1540 0.961 . S
H1527 C1541 0.960 . S
H1528 C1541 0.961 . S
H1529 C1541 0.959 . S
H1530 C1544 0.929 . S
H1531 C1545 0.931 . S
H1532 C1547 0.930 . S
C1533 H1521 0.930 . S
C1533 C1534 1.399 . S
C1533 C1538 1.399 . S
C1534 C1533 1.399 . S
C1534 C1535 1.376 . S
C1535 H1522 0.930 . S
C1535 C1534 1.376 . S
C1535 C1536 1.388 . S
C1536 H1523 0.930 . S
C1536 C1535 1.388 . S
C1536 C1537 1.390 . S
C1537 C1536 1.390 . S
C1537 C1538 1.394 . S
C1537 C1543 1.465 . S
C1538 C1533 1.399 . S
C1538 C1537 1.394 . S
C1538 C1539 1.516 . S
C1539 C1538 1.516 . S
C1539 C1540 1.502 . S
C1539 C1541 1.561 . S
C1539 C1542 1.526 . S
C1540 H1524 0.959 . S
C1540 H1525 0.959 . S
C1540 H1526 0.961 . S
C1540 C1539 1.502 . S
C1541 H1527 0.960 . S
C1541 H1528 0.961 . S
C1541 H1529 0.959 . S
C1541 C1539 1.561 . S
C1542 C1539 1.526 . S
C1542 C1543 1.396 . S
C1542 C1547 1.390 . S
C1543 C1537 1.465 . S
C1543 C1542 1.396 . S
C1543 C1544 1.399 . S
C1544 H1530 0.929 . S
C1544 C1543 1.399 . S
C1544 C1545 1.385 . S
C1545 H1531 0.931 . S
C1545 C1544 1.385 . S
C1545 C1546 1.389 . S
C1546 C1545 1.389 . S
C1546 C1547 1.387 . S
C1547 H1532 0.930 . S
C1547 C1542 1.390 . S
C1547 C1546 1.387 . S
H1548 C1560 0.930 . S
H1549 C1562 0.930 . S
H1550 C1563 0.930 . S
H1551 C1567 0.959 . S
H1552 C1567 0.959 . S
H1553 C1567 0.961 . S
H1554 C1568 0.960 . S
H1555 C1568 0.961 . S
H1556 C1568 0.959 . S
H1557 C1571 0.929 . S
H1558 C1572 0.931 . S
H1559 C1574 0.930 . S
C1560 H1548 0.930 . S
C1560 C1561 1.399 . S
C1560 C1565 1.399 . S
C1561 C1560 1.399 . S
C1561 C1562 1.376 . S
C1562 H1549 0.930 . S
C1562 C1561 1.376 . S
C1562 C1563 1.388 . S
C1563 H1550 0.930 . S
C1563 C1562 1.388 . S
C1563 C1564 1.390 . S
C1564 C1563 1.390 . S
C1564 C1565 1.394 . S
C1564 C1570 1.465 . S
C1565 C1560 1.399 . S
C1565 C1564 1.394 . S
C1565 C1566 1.516 . S
C1566 C1565 1.516 . S
C1566 C1567 1.502 . S
C1566 C1568 1.561 . S
C1566 C1569 1.526 . S
C1567 H1551 0.959 . S
C1567 H1552 0.959 . S
C1567 H1553 0.961 . S
C1567 C1566 1.502 . S
C1568 H1554 0.960 . S
C1568 H1555 0.961 . S
C1568 H1556 0.959 . S
C1568 C1566 1.561 . S
C1569 C1566 1.526 . S
C1569 C1570 1.396 . S
C1569 C1574 1.390 . S
C1570 C1564 1.465 . S
C1570 C1569 1.396 . S
C1570 C1571 1.399 . S
C1571 H1557 0.929 . S
C1571 C1570 1.399 . S
C1571 C1572 1.385 . S
C1572 H1558 0.931 . S
C1572 C1571 1.385 . S
C1572 C1573 1.389 . S
C1573 C1572 1.389 . S
C1573 C1574 1.387 . S
C1574 H1559 0.930 . S
C1574 C1569 1.390 . S
C1574 C1573 1.387 . S
H1575 C1587 0.958 . S
H1576 C1589 0.930 . S
H1577 C1590 0.930 . S
H1578 C1594 0.959 . S
H1579 C1594 0.959 1_556 S
H1580 C1594 0.961 . S
H1581 C1595 0.960 . S
H1582 C1595 0.961 . S
H1583 C1595 0.959 . S
H1584 C1598 0.929 . S
H1585 C1599 0.930 . S
H1586 C1601 0.930 . S
C1587 H1575 0.958 . S
C1587 C1588 1.399 . S
C1587 C1592 1.399 . S
C1588 C1587 1.399 . S
C1588 C1589 1.376 . S
C1589 H1576 0.930 . S
C1589 C1588 1.376 . S
C1589 C1590 1.388 . S
C1590 H1577 0.930 . S
C1590 C1589 1.388 . S
C1590 C1591 1.390 . S
C1591 C1590 1.390 . S
C1591 C1592 1.394 . S
C1591 C1597 1.465 . S
C1592 C1587 1.399 . S
C1592 C1591 1.394 . S
C1592 C1593 1.516 1_554 S
C1593 C1592 1.516 1_556 S
C1593 C1594 1.502 1_556 S
C1593 C1595 1.561 . S
C1593 C1596 1.526 . S
C1594 H1578 0.959 . S
C1594 H1579 0.959 1_554 S
C1594 H1580 0.961 . S
C1594 C1593 1.502 1_554 S
C1595 H1581 0.960 . S
C1595 H1582 0.961 . S
C1595 H1583 0.959 . S
C1595 C1593 1.561 . S
C1596 C1593 1.526 . S
C1596 C1597 1.396 1_556 S
C1596 C1601 1.390 . S
C1597 C1591 1.465 . S
C1597 C1596 1.396 1_554 S
C1597 C1598 1.399 . S
C1598 H1584 0.929 . S
C1598 C1597 1.399 . S
C1598 C1599 1.384 . S
C1599 H1585 0.930 . S
C1599 C1598 1.384 . S
C1599 C1600 1.391 1_554 S
C1600 C1599 1.391 1_556 S
C1600 C1601 1.387 . S
C1601 H1586 0.930 . S
C1601 C1596 1.390 . S
C1601 C1600 1.387 . S
H1602 C1614 0.930 . S
H1603 C1616 0.930 . S
H1604 C1617 0.930 . S
H1605 C1621 0.959 . S
H1606 C1621 0.959 . S
H1607 C1621 0.961 . S
H1608 C1622 0.960 . S
H1609 C1622 0.961 . S
H1610 C1622 0.959 . S
H1611 C1625 0.929 . S
H1612 C1626 0.931 . S
H1613 C1628 0.930 . S
C1614 H1602 0.930 . S
C1614 C1615 1.399 . S
C1614 C1619 1.399 . S
C1615 C1614 1.399 . S
C1615 C1616 1.376 . S
C1616 H1603 0.930 . S
C1616 C1615 1.376 . S
C1616 C1617 1.388 . S
C1617 H1604 0.930 . S
C1617 C1616 1.388 . S
C1617 C1618 1.390 . S
C1618 C1617 1.390 . S
C1618 C1619 1.394 . S
C1618 C1624 1.465 . S
C1619 C1614 1.399 . S
C1619 C1618 1.394 . S
C1619 C1620 1.516 . S
C1620 C1619 1.516 . S
C1620 C1621 1.502 . S
C1620 C1622 1.561 . S
C1620 C1623 1.526 . S
C1621 H1605 0.959 . S
C1621 H1606 0.959 . S
C1621 H1607 0.961 . S
C1621 C1620 1.502 . S
C1622 H1608 0.960 . S
C1622 H1609 0.961 . S
C1622 H1610 0.959 . S
C1622 C1620 1.561 . S
C1623 C1620 1.526 . S
C1623 C1624 1.396 . S
C1623 C1628 1.390 . S
C1624 C1618 1.465 . S
C1624 C1623 1.396 . S
C1624 C1625 1.399 . S
C1625 H1611 0.929 . S
C1625 C1624 1.399 . S
C1625 C1626 1.385 . S
C1626 H1612 0.931 . S
C1626 C1625 1.385 . S
C1626 C1627 1.389 . S
C1627 C1626 1.389 . S
C1627 C1628 1.387 . S
C1628 H1613 0.930 . S
C1628 C1623 1.390 . S
C1628 C1627 1.387 . S
H1629 C1641 0.930 . S
H1630 C1643 0.930 . S
H1631 C1644 0.930 . S
H1632 C1648 0.959 . S
H1633 C1648 0.959 . S
H1634 C1648 0.961 . S
H1635 C1649 0.960 . S
H1636 C1649 0.961 . S
H1637 C1649 0.959 . S
H1638 C1652 0.929 . S
H1639 C1653 0.931 . S
H1640 C1655 0.930 . S
C1641 H1629 0.930 . S
C1641 C1642 1.399 . S
C1641 C1646 1.399 . S
C1642 C1641 1.399 . S
C1642 C1643 1.376 . S
C1643 H1630 0.930 . S
C1643 C1642 1.376 . S
C1643 C1644 1.388 . S
C1644 H1631 0.930 . S
C1644 C1643 1.388 . S
C1644 C1645 1.390 . S
C1645 C1644 1.390 . S
C1645 C1646 1.394 . S
C1645 C1651 1.465 . S
C1646 C1641 1.399 . S
C1646 C1645 1.394 . S
C1646 C1647 1.516 . S
C1647 C1646 1.516 . S
C1647 C1648 1.502 . S
C1647 C1649 1.561 . S
C1647 C1650 1.526 . S
C1648 H1632 0.959 . S
C1648 H1633 0.959 . S
C1648 H1634 0.961 . S
C1648 C1647 1.502 . S
C1649 H1635 0.960 . S
C1649 H1636 0.961 . S
C1649 H1637 0.959 . S
C1649 C1647 1.561 . S
C1650 C1647 1.526 . S
C1650 C1651 1.396 . S
C1650 C1655 1.390 . S
C1651 C1645 1.465 . S
C1651 C1650 1.396 . S
C1651 C1652 1.399 . S
C1652 H1638 0.929 . S
C1652 C1651 1.399 . S
C1652 C1653 1.385 . S
C1653 H1639 0.931 . S
C1653 C1652 1.385 . S
C1653 C1654 1.389 . S
C1654 C1653 1.389 . S
C1654 C1655 1.387 . S
C1655 H1640 0.930 . S
C1655 C1650 1.390 . S
C1655 C1654 1.387 . S
H1656 C1668 0.930 . S
H1657 C1670 0.930 . S
H1658 C1671 0.930 . S
H1659 C1675 0.959 . S
H1660 C1675 0.959 . S
H1661 C1675 0.961 . S
H1662 C1676 0.960 . S
H1663 C1676 0.961 . S
H1664 C1676 0.959 . S
H1665 C1679 0.929 . S
H1666 C1680 0.931 . S
H1667 C1682 0.930 . S
C1668 H1656 0.930 . S
C1668 C1669 1.399 . S
C1668 C1673 1.399 . S
C1669 C1668 1.399 . S
C1669 C1670 1.376 . S
C1670 H1657 0.930 . S
C1670 C1669 1.376 . S
C1670 C1671 1.388 . S
C1671 H1658 0.930 . S
C1671 C1670 1.388 . S
C1671 C1672 1.390 . S
C1672 C1671 1.390 . S
C1672 C1673 1.394 . S
C1672 C1678 1.465 . S
C1673 C1668 1.399 . S
C1673 C1672 1.394 . S
C1673 C1674 1.516 . S
C1674 C1673 1.516 . S
C1674 C1675 1.502 . S
C1674 C1676 1.561 . S
C1674 C1677 1.526 . S
C1675 H1659 0.959 . S
C1675 H1660 0.959 . S
C1675 H1661 0.961 . S
C1675 C1674 1.502 . S
C1676 H1662 0.960 . S
C1676 H1663 0.961 . S
C1676 H1664 0.959 . S
C1676 C1674 1.561 . S
C1677 C1674 1.526 . S
C1677 C1678 1.396 . S
C1677 C1682 1.390 . S
C1678 C1672 1.465 . S
C1678 C1677 1.396 . S
C1678 C1679 1.399 . S
C1679 H1665 0.929 . S
C1679 C1678 1.399 . S
C1679 C1680 1.385 . S
C1680 H1666 0.931 . S
C1680 C1679 1.385 . S
C1680 C1681 1.389 . S
C1681 C1680 1.389 . S
C1681 C1682 1.387 . S
C1682 H1667 0.930 . S
C1682 C1677 1.390 . S
C1682 C1681 1.387 . S
H1683 C1695 0.930 . S
H1684 C1697 0.930 . S
H1685 C1698 0.930 . S
H1686 C1702 0.959 . S
H1687 C1702 0.959 . S
H1688 C1702 0.961 . S
H1689 C1703 0.960 . S
H1690 C1703 0.961 . S
H1691 C1703 0.959 . S
H1692 C1706 0.929 . S
H1693 C1707 0.931 . S
H1694 C1709 0.930 . S
C1695 H1683 0.930 . S
C1695 C1696 1.399 . S
C1695 C1700 1.399 . S
C1696 C1695 1.399 . S
C1696 C1697 1.376 . S
C1697 H1684 0.930 . S
C1697 C1696 1.376 . S
C1697 C1698 1.388 . S
C1698 H1685 0.930 . S
C1698 C1697 1.388 . S
C1698 C1699 1.390 . S
C1699 C1698 1.390 . S
C1699 C1700 1.394 . S
C1699 C1705 1.465 . S
C1700 C1695 1.399 . S
C1700 C1699 1.394 . S
C1700 C1701 1.516 . S
C1701 C1700 1.516 . S
C1701 C1702 1.502 . S
C1701 C1703 1.561 . S
C1701 C1704 1.526 . S
C1702 H1686 0.959 . S
C1702 H1687 0.959 . S
C1702 H1688 0.961 . S
C1702 C1701 1.502 . S
C1703 H1689 0.960 . S
C1703 H1690 0.961 . S
C1703 H1691 0.959 . S
C1703 C1701 1.561 . S
C1704 C1701 1.526 . S
C1704 C1705 1.396 . S
C1704 C1709 1.390 . S
C1705 C1699 1.465 . S
C1705 C1704 1.396 . S
C1705 C1706 1.399 . S
C1706 H1692 0.929 . S
C1706 C1705 1.399 . S
C1706 C1707 1.385 . S
C1707 H1693 0.931 . S
C1707 C1706 1.385 . S
C1707 C1708 1.389 . S
C1708 C1707 1.389 . S
C1708 C1709 1.387 . S
C1709 H1694 0.930 . S
C1709 C1704 1.390 . S
C1709 C1708 1.387 . S
H1710 C1722 0.930 . S
H1711 C1724 0.930 . S
H1712 C1725 0.930 . S
H1713 C1729 0.959 . S
H1714 C1729 0.959 . S
H1715 C1729 0.961 . S
H1716 C1730 0.960 . S
H1717 C1730 0.961 . S
H1718 C1730 0.959 . S
H1719 C1733 0.929 . S
H1720 C1734 0.931 . S
H1721 C1736 0.930 . S
C1722 H1710 0.930 . S
C1722 C1723 1.399 . S
C1722 C1727 1.399 . S
C1723 C1722 1.399 . S
C1723 C1724 1.376 . S
C1724 H1711 0.930 . S
C1724 C1723 1.376 . S
C1724 C1725 1.388 . S
C1725 H1712 0.930 . S
C1725 C1724 1.388 . S
C1725 C1726 1.390 . S
C1726 C1725 1.390 . S
C1726 C1727 1.394 . S
C1726 C1732 1.465 . S
C1727 C1722 1.399 . S
C1727 C1726 1.394 . S
C1727 C1728 1.516 . S
C1728 C1727 1.516 . S
C1728 C1729 1.502 . S
C1728 C1730 1.561 . S
C1728 C1731 1.526 . S
C1729 H1713 0.959 . S
C1729 H1714 0.959 . S
C1729 H1715 0.961 . S
C1729 C1728 1.502 . S
C1730 H1716 0.960 . S
C1730 H1717 0.961 . S
C1730 H1718 0.959 . S
C1730 C1728 1.561 . S
C1731 C1728 1.526 . S
C1731 C1732 1.396 . S
C1731 C1736 1.390 . S
C1732 C1726 1.465 . S
C1732 C1731 1.396 . S
C1732 C1733 1.399 . S
C1733 H1719 0.929 . S
C1733 C1732 1.399 . S
C1733 C1734 1.385 . S
C1734 H1720 0.931 . S
C1734 C1733 1.385 . S
C1734 C1735 1.389 . S
C1735 C1734 1.389 . S
C1735 C1736 1.387 . S
C1736 H1721 0.930 . S
C1736 C1731 1.390 . S
C1736 C1735 1.387 . S
H1737 C1749 0.930 . S
H1738 C1751 0.930 . S
H1739 C1752 0.930 . S
H1740 C1756 0.959 . S
H1741 C1756 0.959 . S
H1742 C1756 0.961 . S
H1743 C1757 0.960 . S
H1744 C1757 0.961 . S
H1745 C1757 0.959 . S
H1746 C1760 0.929 . S
H1747 C1761 0.931 . S
H1748 C1763 0.930 . S
C1749 H1737 0.930 . S
C1749 C1750 1.399 . S
C1749 C1754 1.399 . S
C1750 C1749 1.399 . S
C1750 C1751 1.376 . S
C1751 H1738 0.930 . S
C1751 C1750 1.376 . S
C1751 C1752 1.388 . S
C1752 H1739 0.930 . S
C1752 C1751 1.388 . S
C1752 C1753 1.390 . S
C1753 C1752 1.390 . S
C1753 C1754 1.394 . S
C1753 C1759 1.465 . S
C1754 C1749 1.399 . S
C1754 C1753 1.394 . S
C1754 C1755 1.516 . S
C1755 C1754 1.516 . S
C1755 C1756 1.502 . S
C1755 C1757 1.561 . S
C1755 C1758 1.526 . S
C1756 H1740 0.959 . S
C1756 H1741 0.959 . S
C1756 H1742 0.961 . S
C1756 C1755 1.502 . S
C1757 H1743 0.960 . S
C1757 H1744 0.961 . S
C1757 H1745 0.959 . S
C1757 C1755 1.561 . S
C1758 C1755 1.526 . S
C1758 C1759 1.396 . S
C1758 C1763 1.390 . S
C1759 C1753 1.465 . S
C1759 C1758 1.396 . S
C1759 C1760 1.399 . S
C1760 H1746 0.929 . S
C1760 C1759 1.399 . S
C1760 C1761 1.385 . S
C1761 H1747 0.931 . S
C1761 C1760 1.385 . S
C1761 C1762 1.389 . S
C1762 C1761 1.389 . S
C1762 C1763 1.387 . S
C1763 H1748 0.930 . S
C1763 C1758 1.390 . S
C1763 C1762 1.387 . S
H1764 C1776 0.930 . S
H1765 C1778 0.930 . S
H1766 C1779 0.930 . S
H1767 C1783 0.959 . S
H1768 C1783 0.959 . S
H1769 C1783 0.961 . S
H1770 C1784 0.960 . S
H1771 C1784 0.961 . S
H1772 C1784 0.959 1_655 S
H1773 C1787 0.929 . S
H1774 C1788 0.923 1_655 S
H1775 C1790 0.930 . S
C1776 H1764 0.930 . S
C1776 C1777 1.399 . S
C1776 C1781 1.399 . S
C1777 C1776 1.399 . S
C1777 C1778 1.376 . S
C1778 H1765 0.930 . S
C1778 C1777 1.376 . S
C1778 C1779 1.388 . S
C1779 H1766 0.930 . S
C1779 C1778 1.388 . S
C1779 C1780 1.390 . S
C1780 C1779 1.390 . S
C1780 C1781 1.394 . S
C1780 C1786 1.465 . S
C1781 C1776 1.399 . S
C1781 C1780 1.394 . S
C1781 C1782 1.516 . S
C1782 C1781 1.516 . S
C1782 C1783 1.502 . S
C1782 C1784 1.561 . S
C1782 C1785 1.526 . S
C1783 H1767 0.959 . S
C1783 H1768 0.959 . S
C1783 H1769 0.961 . S
C1783 C1782 1.502 . S
C1784 H1770 0.960 . S
C1784 H1771 0.961 . S
C1784 H1772 0.959 1_455 S
C1784 C1782 1.561 . S
C1785 C1782 1.526 . S
C1785 C1786 1.396 . S
C1785 C1790 1.390 . S
C1786 C1780 1.465 . S
C1786 C1785 1.396 . S
C1786 C1787 1.399 . S
C1787 H1773 0.929 . S
C1787 C1786 1.399 . S
C1787 C1788 1.389 . S
C1788 H1774 0.923 1_455 S
C1788 C1787 1.389 . S
C1788 C1789 1.394 . S
C1789 C1788 1.394 . S
C1789 C1790 1.387 . S
C1790 H1775 0.930 . S
C1790 C1785 1.390 . S
C1790 C1789 1.387 . S
H1791 C1803 0.930 . S
H1792 C1805 0.930 . S
H1793 C1806 0.930 . S
H1794 C1810 0.959 . S
H1795 C1810 0.959 . S
H1796 C1810 0.961 . S
H1797 C1811 0.960 . S
H1798 C1811 0.961 . S
H1799 C1811 0.959 . S
H1800 C1814 0.929 . S
H1801 C1815 0.931 . S
H1802 C1817 0.930 . S
C1803 H1791 0.930 . S
C1803 C1804 1.399 . S
C1803 C1808 1.399 . S
C1804 C1803 1.399 . S
C1804 C1805 1.376 . S
C1805 H1792 0.930 . S
C1805 C1804 1.376 . S
C1805 C1806 1.388 . S
C1806 H1793 0.930 . S
C1806 C1805 1.388 . S
C1806 C1807 1.390 . S
C1807 C1806 1.390 . S
C1807 C1808 1.394 . S
C1807 C1813 1.465 . S
C1808 C1803 1.399 . S
C1808 C1807 1.394 . S
C1808 C1809 1.516 . S
C1809 C1808 1.516 . S
C1809 C1810 1.502 . S
C1809 C1811 1.561 . S
C1809 C1812 1.526 . S
C1810 H1794 0.959 . S
C1810 H1795 0.959 . S
C1810 H1796 0.961 . S
C1810 C1809 1.502 . S
C1811 H1797 0.960 . S
C1811 H1798 0.961 . S
C1811 H1799 0.959 . S
C1811 C1809 1.561 . S
C1812 C1809 1.526 . S
C1812 C1813 1.396 . S
C1812 C1817 1.390 . S
C1813 C1807 1.465 . S
C1813 C1812 1.396 . S
C1813 C1814 1.399 1_554 S
C1814 H1800 0.929 . S
C1814 C1813 1.399 1_556 S
C1814 C1815 1.385 . S
C1815 H1801 0.931 . S
C1815 C1814 1.385 . S
C1815 C1816 1.389 1_556 S
C1816 C1815 1.389 1_554 S
C1816 C1817 1.387 . S
C1817 H1802 0.930 . S
C1817 C1812 1.390 . S
C1817 C1816 1.387 . S
H1818 C1830 0.930 . S
H1819 C1832 0.930 . S
H1820 C1833 0.930 . S
H1821 C1837 0.959 . S
H1822 C1837 0.959 . S
H1823 C1837 0.961 . S
H1824 C1838 0.960 . S
H1825 C1838 0.961 . S
H1826 C1838 0.959 . S
H1827 C1841 0.929 . S
H1828 C1842 0.931 . S
H1829 C1844 0.930 . S
C1830 H1818 0.930 . S
C1830 C1831 1.399 . S
C1830 C1835 1.399 . S
C1831 C1830 1.399 . S
C1831 C1832 1.376 . S
C1832 H1819 0.930 . S
C1832 C1831 1.376 . S
C1832 C1833 1.388 . S
C1833 H1820 0.930 . S
C1833 C1832 1.388 . S
C1833 C1834 1.390 . S
C1834 C1833 1.390 . S
C1834 C1835 1.394 . S
C1834 C1840 1.465 . S
C1835 C1830 1.399 . S
C1835 C1834 1.394 . S
C1835 C1836 1.516 . S
C1836 C1835 1.516 . S
C1836 C1837 1.502 . S
C1836 C1838 1.561 . S
C1836 C1839 1.526 . S
C1837 H1821 0.959 . S
C1837 H1822 0.959 . S
C1837 H1823 0.961 . S
C1837 C1836 1.502 . S
C1838 H1824 0.960 . S
C1838 H1825 0.961 . S
C1838 H1826 0.959 . S
C1838 C1836 1.561 . S
C1839 C1836 1.526 . S
C1839 C1840 1.396 . S
C1839 C1844 1.390 . S
C1840 C1834 1.465 . S
C1840 C1839 1.396 . S
C1840 C1841 1.399 . S
C1841 H1827 0.929 . S
C1841 C1840 1.399 . S
C1841 C1842 1.385 . S
C1842 H1828 0.931 . S
C1842 C1841 1.385 . S
C1842 C1843 1.389 . S
C1843 C1842 1.389 . S
C1843 C1844 1.387 . S
C1844 H1829 0.930 . S
C1844 C1839 1.390 . S
C1844 C1843 1.387 . S
H1845 C1857 0.930 . S
H1846 C1859 0.930 . S
H1847 C1860 0.930 . S
H1848 C1864 0.959 . S
H1849 C1864 0.959 . S
H1850 C1864 0.961 . S
H1851 C1865 0.960 . S
H1852 C1865 0.961 . S
H1853 C1865 0.959 . S
H1854 C1868 0.929 . S
H1855 C1869 0.931 . S
H1856 C1871 0.930 . S
C1857 H1845 0.930 . S
C1857 C1858 1.399 . S
C1857 C1862 1.399 . S
C1858 C1857 1.399 . S
C1858 C1859 1.376 . S
C1859 H1846 0.930 . S
C1859 C1858 1.376 . S
C1859 C1860 1.388 . S
C1860 H1847 0.930 . S
C1860 C1859 1.388 . S
C1860 C1861 1.390 . S
C1861 C1860 1.390 . S
C1861 C1862 1.394 . S
C1861 C1867 1.465 . S
C1862 C1857 1.399 . S
C1862 C1861 1.394 . S
C1862 C1863 1.516 . S
C1863 C1862 1.516 . S
C1863 C1864 1.502 . S
C1863 C1865 1.561 . S
C1863 C1866 1.526 . S
C1864 H1848 0.959 . S
C1864 H1849 0.959 . S
C1864 H1850 0.961 . S
C1864 C1863 1.502 . S
C1865 H1851 0.960 . S
C1865 H1852 0.961 . S
C1865 H1853 0.959 . S
C1865 C1863 1.561 . S
C1866 C1863 1.526 . S
C1866 C1867 1.396 . S
C1866 C1871 1.390 . S
C1867 C1861 1.465 . S
C1867 C1866 1.396 . S
C1867 C1868 1.399 . S
C1868 H1854 0.929 . S
C1868 C1867 1.399 . S
C1868 C1869 1.385 . S
C1869 H1855 0.931 . S
C1869 C1868 1.385 . S
C1869 C1870 1.389 . S
C1870 C1869 1.389 . S
C1870 C1871 1.387 . S
C1871 H1856 0.930 . S
C1871 C1866 1.390 . S
C1871 C1870 1.387 . S
H1872 C1884 0.930 . S
H1873 C1886 0.930 . S
H1874 C1887 0.930 . S
H1875 C1891 0.959 . S
H1876 C1891 0.959 . S
H1877 C1891 0.961 . S
H1878 C1892 0.960 . S
H1879 C1892 0.961 . S
H1880 C1892 0.959 . S
H1881 C1895 0.929 . S
H1882 C1896 0.931 . S
H1883 C1898 0.930 . S
C1884 H1872 0.930 . S
C1884 C1885 1.399 . S
C1884 C1889 1.399 . S
C1885 C1884 1.399 . S
C1885 C1886 1.376 . S
C1886 H1873 0.930 . S
C1886 C1885 1.376 . S
C1886 C1887 1.388 . S
C1887 H1874 0.930 . S
C1887 C1886 1.388 . S
C1887 C1888 1.390 . S
C1888 C1887 1.390 . S
C1888 C1889 1.394 . S
C1888 C1894 1.465 . S
C1889 C1884 1.399 . S
C1889 C1888 1.394 . S
C1889 C1890 1.516 . S
C1890 C1889 1.516 . S
C1890 C1891 1.502 . S
C1890 C1892 1.561 . S
C1890 C1893 1.526 . S
C1891 H1875 0.959 . S
C1891 H1876 0.959 . S
C1891 H1877 0.961 . S
C1891 C1890 1.502 . S
C1892 H1878 0.960 . S
C1892 H1879 0.961 . S
C1892 H1880 0.959 . S
C1892 C1890 1.561 . S
C1893 C1890 1.526 . S
C1893 C1894 1.396 . S
C1893 C1898 1.390 . S
C1894 C1888 1.465 . S
C1894 C1893 1.396 . S
C1894 C1895 1.399 . S
C1895 H1881 0.929 . S
C1895 C1894 1.399 . S
C1895 C1896 1.385 . S
C1896 H1882 0.931 . S
C1896 C1895 1.385 . S
C1896 C1897 1.389 . S
C1897 C1896 1.389 . S
C1897 C1898 1.387 . S
C1898 H1883 0.930 . S
C1898 C1893 1.390 . S
C1898 C1897 1.387 . S
H1899 C1911 0.930 . S
H1900 C1913 0.930 . S
H1901 C1914 0.930 . S
H1902 C1918 0.959 . S
H1903 C1918 0.959 . S
H1904 C1918 0.961 . S
H1905 C1919 0.960 . S
H1906 C1919 0.961 . S
H1907 C1919 0.959 . S
H1908 C1922 0.929 . S
H1909 C1923 0.931 . S
H1910 C1925 0.930 . S
C1911 H1899 0.930 . S
C1911 C1912 1.399 . S
C1911 C1916 1.399 . S
C1912 C1911 1.399 . S
C1912 C1913 1.376 . S
C1913 H1900 0.930 . S
C1913 C1912 1.376 . S
C1913 C1914 1.388 . S
C1914 H1901 0.930 . S
C1914 C1913 1.388 . S
C1914 C1915 1.390 . S
C1915 C1914 1.390 . S
C1915 C1916 1.394 . S
C1915 C1921 1.465 . S
C1916 C1911 1.399 . S
C1916 C1915 1.394 . S
C1916 C1917 1.516 . S
C1917 C1916 1.516 . S
C1917 C1918 1.502 . S
C1917 C1919 1.561 . S
C1917 C1920 1.526 . S
C1918 H1902 0.959 . S
C1918 H1903 0.959 . S
C1918 H1904 0.961 . S
C1918 C1917 1.502 . S
C1919 H1905 0.960 . S
C1919 H1906 0.961 . S
C1919 H1907 0.959 . S
C1919 C1917 1.561 . S
C1920 C1917 1.526 . S
C1920 C1921 1.396 . S
C1920 C1925 1.390 . S
C1921 C1915 1.465 . S
C1921 C1920 1.396 . S
C1921 C1922 1.399 . S
C1922 H1908 0.929 . S
C1922 C1921 1.399 . S
C1922 C1923 1.385 . S
C1923 H1909 0.931 . S
C1923 C1922 1.385 . S
C1923 C1924 1.389 . S
C1924 C1923 1.389 . S
C1924 C1925 1.387 . S
C1925 H1910 0.930 . S
C1925 C1920 1.390 . S
C1925 C1924 1.387 . S
H1926 C1938 0.930 . S
H1927 C1940 0.930 . S
H1928 C1941 0.930 . S
H1929 C1945 0.959 . S
H1930 C1945 0.959 . S
H1931 C1945 0.961 1_655 S
H1932 C1946 0.949 1_655 S
H1933 C1946 0.961 . S
H1934 C1946 0.959 . S
H1935 C1949 0.929 . S
H1936 C1950 0.931 . S
H1937 C1952 0.930 . S
C1938 H1926 0.930 . S
C1938 C1939 1.399 . S
C1938 C1943 1.399 . S
C1939 C1938 1.399 . S
C1939 C1940 1.376 . S
C1940 H1927 0.930 . S
C1940 C1939 1.376 . S
C1940 C1941 1.388 . S
C1941 H1928 0.930 . S
C1941 C1940 1.388 . S
C1941 C1942 1.390 . S
C1942 C1941 1.390 . S
C1942 C1943 1.394 . S
C1942 C1948 1.465 . S
C1943 C1938 1.399 . S
C1943 C1942 1.394 . S
C1943 C1944 1.516 . S
C1944 C1943 1.516 . S
C1944 C1945 1.502 . S
C1944 C1946 1.561 . S
C1944 C1947 1.526 . S
C1945 H1929 0.959 . S
C1945 H1930 0.959 . S
C1945 H1931 0.961 1_455 S
C1945 C1944 1.502 . S
C1946 H1932 0.949 1_455 S
C1946 H1933 0.961 . S
C1946 H1934 0.959 . S
C1946 C1944 1.561 . S
C1947 C1944 1.526 . S
C1947 C1948 1.396 . S
C1947 C1952 1.390 . S
C1948 C1942 1.465 . S
C1948 C1947 1.396 . S
C1948 C1949 1.399 . S
C1949 H1935 0.929 . S
C1949 C1948 1.399 . S
C1949 C1950 1.385 . S
C1950 H1936 0.931 . S
C1950 C1949 1.385 . S
C1950 C1951 1.389 . S
C1951 C1950 1.389 . S
C1951 C1952 1.387 . S
C1952 H1937 0.930 . S
C1952 C1947 1.390 . S
C1952 C1951 1.387 . S
H1953 C1965 0.930 . S
H1954 C1967 0.930 . S
H1955 C1968 0.930 . S
H1956 C1972 0.959 . S
H1957 C1972 0.959 . S
H1958 C1972 0.961 . S
H1959 C1973 0.960 . S
H1960 C1973 0.961 . S
H1961 C1973 0.959 . S
H1962 C1976 0.929 . S
H1963 C1977 0.931 . S
H1964 C1979 0.930 . S
C1965 H1953 0.930 . S
C1965 C1966 1.399 . S
C1965 C1970 1.399 . S
C1966 C1965 1.399 . S
C1966 C1967 1.376 . S
C1967 H1954 0.930 . S
C1967 C1966 1.376 . S
C1967 C1968 1.388 . S
C1968 H1955 0.930 . S
C1968 C1967 1.388 . S
C1968 C1969 1.390 . S
C1969 C1968 1.390 . S
C1969 C1970 1.394 . S
C1969 C1975 1.465 . S
C1970 C1965 1.399 . S
C1970 C1969 1.394 . S
C1970 C1971 1.516 . S
C1971 C1970 1.516 . S
C1971 C1972 1.502 . S
C1971 C1973 1.561 . S
C1971 C1974 1.526 . S
C1972 H1956 0.959 . S
C1972 H1957 0.959 . S
C1972 H1958 0.961 . S
C1972 C1971 1.502 . S
C1973 H1959 0.960 . S
C1973 H1960 0.961 . S
C1973 H1961 0.959 . S
C1973 C1971 1.561 . S
C1974 C1971 1.526 . S
C1974 C1975 1.396 . S
C1974 C1979 1.390 . S
C1975 C1969 1.465 . S
C1975 C1974 1.396 . S
C1975 C1976 1.399 . S
C1976 H1962 0.929 . S
C1976 C1975 1.399 . S
C1976 C1977 1.385 . S
C1977 H1963 0.931 . S
C1977 C1976 1.385 . S
C1977 C1978 1.389 . S
C1978 C1977 1.389 . S
C1978 C1979 1.387 . S
C1979 H1964 0.930 . S
C1979 C1974 1.390 . S
C1979 C1978 1.387 . S
H1980 C1992 0.930 . S
H1981 C1994 0.930 . S
H1982 C1995 0.930 . S
H1983 C1999 0.959 . S
H1984 C1999 0.959 . S
H1985 C1999 0.961 . S
H1986 C2000 0.960 . S
H1987 C2000 0.961 . S
H1988 C2000 0.959 . S
H1989 C2003 0.929 1_565 S
H1990 C2004 0.931 . S
H1991 C2006 0.930 . S
C1992 H1980 0.930 . S
C1992 C1993 1.399 . S
C1992 C1997 1.399 . S
C1993 C1992 1.399 . S
C1993 C1994 1.376 1_545 S
C1994 H1981 0.930 . S
C1994 C1993 1.376 1_565 S
C1994 C1995 1.388 . S
C1995 H1982 0.930 . S
C1995 C1994 1.388 . S
C1995 C1996 1.390 1_565 S
C1996 C1995 1.390 1_545 S
C1996 C1997 1.394 . S
C1996 C2002 1.465 . S
C1997 C1992 1.399 . S
C1997 C1996 1.394 . S
C1997 C1998 1.516 . S
C1998 C1997 1.516 . S
C1998 C1999 1.502 . S
C1998 C2000 1.561 . S
C1998 C2001 1.526 . S
C1999 H1983 0.959 . S
C1999 H1984 0.959 . S
C1999 H1985 0.961 . S
C1999 C1998 1.502 . S
C2000 H1986 0.960 . S
C2000 H1987 0.961 . S
C2000 H1988 0.959 . S
C2000 C1998 1.561 . S
C2001 C1998 1.526 . S
C2001 C2002 1.396 . S
C2001 C2006 1.390 . S
C2002 C1996 1.465 . S
C2002 C2001 1.396 . S
C2002 C2003 1.399 . S
C2003 H1989 0.929 1_545 S
C2003 C2002 1.399 . S
C2003 C2004 1.385 . S
C2004 H1990 0.931 . S
C2004 C2003 1.385 . S
C2004 C2005 1.389 . S
C2005 C2004 1.389 . S
C2005 C2006 1.387 . S
C2006 H1991 0.930 . S
C2006 C2001 1.390 . S
C2006 C2005 1.387 . S
H2007 C2019 0.930 . S
H2008 C2021 0.930 . S
H2009 C2022 0.930 . S
H2010 C2026 0.959 . S
H2011 C2026 0.959 . S
H2012 C2026 0.961 . S
H2013 C2027 0.960 . S
H2014 C2027 0.961 . S
H2015 C2027 0.959 . S
H2016 C2030 0.929 . S
H2017 C2031 0.931 . S
H2018 C2033 0.930 . S
C2019 H2007 0.930 . S
C2019 C2020 1.399 . S
C2019 C2024 1.399 . S
C2020 C2019 1.399 . S
C2020 C2021 1.376 . S
C2021 H2008 0.930 . S
C2021 C2020 1.376 . S
C2021 C2022 1.388 . S
C2022 H2009 0.930 . S
C2022 C2021 1.388 . S
C2022 C2023 1.390 . S
C2023 C2022 1.390 . S
C2023 C2024 1.394 . S
C2023 C2029 1.465 . S
C2024 C2019 1.399 . S
C2024 C2023 1.394 . S
C2024 C2025 1.516 . S
C2025 C2024 1.516 . S
C2025 C2026 1.502 . S
C2025 C2027 1.561 . S
C2025 C2028 1.526 . S
C2026 H2010 0.959 . S
C2026 H2011 0.959 . S
C2026 H2012 0.961 . S
C2026 C2025 1.502 . S
C2027 H2013 0.960 . S
C2027 H2014 0.961 . S
C2027 H2015 0.959 . S
C2027 C2025 1.561 . S
C2028 C2025 1.526 . S
C2028 C2029 1.396 . S
C2028 C2033 1.390 . S
C2029 C2023 1.465 . S
C2029 C2028 1.396 . S
C2029 C2030 1.399 . S
C2030 H2016 0.929 . S
C2030 C2029 1.399 . S
C2030 C2031 1.385 . S
C2031 H2017 0.931 . S
C2031 C2030 1.385 . S
C2031 C2032 1.389 . S
C2032 C2031 1.389 . S
C2032 C2033 1.387 . S
C2033 H2018 0.930 . S
C2033 C2028 1.390 . S
C2033 C2032 1.387 . S
H2034 C2046 0.930 . S
H2035 C2048 0.930 . S
H2036 C2049 0.930 . S
H2037 C2053 0.959 . S
H2038 C2053 0.959 . S
H2039 C2053 0.961 . S
H2040 C2054 0.960 . S
H2041 C2054 0.961 . S
H2042 C2054 0.959 . S
H2043 C2057 0.929 . S
H2044 C2058 0.931 . S
H2045 C2060 0.930 . S
C2046 H2034 0.930 . S
C2046 C2047 1.399 . S
C2046 C2051 1.399 . S
C2047 C2046 1.399 . S
C2047 C2048 1.376 . S
C2048 H2035 0.930 . S
C2048 C2047 1.376 . S
C2048 C2049 1.388 . S
C2049 H2036 0.930 . S
C2049 C2048 1.388 . S
C2049 C2050 1.390 . S
C2050 C2049 1.390 . S
C2050 C2051 1.394 . S
C2050 C2056 1.465 . S
C2051 C2046 1.399 . S
C2051 C2050 1.394 . S
C2051 C2052 1.516 . S
C2052 C2051 1.516 . S
C2052 C2053 1.502 . S
C2052 C2054 1.561 . S
C2052 C2055 1.526 . S
C2053 H2037 0.959 . S
C2053 H2038 0.959 . S
C2053 H2039 0.961 . S
C2053 C2052 1.502 . S
C2054 H2040 0.960 . S
C2054 H2041 0.961 . S
C2054 H2042 0.959 . S
C2054 C2052 1.561 . S
C2055 C2052 1.526 . S
C2055 C2056 1.396 . S
C2055 C2060 1.390 . S
C2056 C2050 1.465 . S
C2056 C2055 1.396 . S
C2056 C2057 1.399 . S
C2057 H2043 0.929 . S
C2057 C2056 1.399 . S
C2057 C2058 1.385 . S
C2058 H2044 0.931 . S
C2058 C2057 1.385 . S
C2058 C2059 1.389 . S
C2059 C2058 1.389 . S
C2059 C2060 1.387 . S
C2060 H2045 0.930 . S
C2060 C2055 1.390 . S
C2060 C2059 1.387 . S
H2061 C2073 0.930 . S
H2062 C2075 0.930 . S
H2063 C2076 0.930 . S
H2064 C2080 0.959 . S
H2065 C2080 0.959 . S
H2066 C2080 0.961 . S
H2067 C2081 0.960 . S
H2068 C2081 0.961 . S
H2069 C2081 0.959 . S
H2070 C2084 0.929 . S
H2071 C2085 0.931 . S
H2072 C2087 0.930 . S
C2073 H2061 0.930 . S
C2073 C2074 1.399 . S
C2073 C2078 1.399 . S
C2074 C2073 1.399 . S
C2074 C2075 1.376 . S
C2075 H2062 0.930 . S
C2075 C2074 1.376 . S
C2075 C2076 1.388 . S
C2076 H2063 0.930 . S
C2076 C2075 1.388 . S
C2076 C2077 1.390 . S
C2077 C2076 1.390 . S
C2077 C2078 1.394 . S
C2077 C2083 1.465 . S
C2078 C2073 1.399 . S
C2078 C2077 1.394 . S
C2078 C2079 1.516 . S
C2079 C2078 1.516 . S
C2079 C2080 1.502 . S
C2079 C2081 1.561 . S
C2079 C2082 1.526 . S
C2080 H2064 0.959 . S
C2080 H2065 0.959 . S
C2080 H2066 0.961 . S
C2080 C2079 1.502 . S
C2081 H2067 0.960 . S
C2081 H2068 0.961 . S
C2081 H2069 0.959 . S
C2081 C2079 1.561 . S
C2082 C2079 1.526 . S
C2082 C2083 1.396 . S
C2082 C2087 1.390 . S
C2083 C2077 1.465 . S
C2083 C2082 1.396 . S
C2083 C2084 1.399 . S
C2084 H2070 0.929 . S
C2084 C2083 1.399 . S
C2084 C2085 1.385 . S
C2085 H2071 0.931 . S
C2085 C2084 1.385 . S
C2085 C2086 1.389 . S
C2086 C2085 1.389 . S
C2086 C2087 1.387 . S
C2087 H2072 0.930 . S
C2087 C2082 1.390 . S
C2087 C2086 1.387 . S
H2088 C2100 0.930 . S
H2089 C2102 0.930 . S
H2090 C2103 0.930 . S
H2091 C2107 0.959 . S
H2092 C2107 0.959 . S
H2093 C2107 0.961 . S
H2094 C2108 0.960 . S
H2095 C2108 0.961 . S
H2096 C2108 0.959 . S
H2097 C2111 0.929 . S
H2098 C2112 0.931 . S
H2099 C2114 0.930 . S
C2100 H2088 0.930 . S
C2100 C2101 1.399 . S
C2100 C2105 1.399 . S
C2101 C2100 1.399 . S
C2101 C2102 1.376 . S
C2102 H2089 0.930 . S
C2102 C2101 1.376 . S
C2102 C2103 1.388 . S
C2103 H2090 0.930 . S
C2103 C2102 1.388 . S
C2103 C2104 1.390 . S
C2104 C2103 1.390 . S
C2104 C2105 1.394 . S
C2104 C2110 1.465 . S
C2105 C2100 1.399 . S
C2105 C2104 1.394 . S
C2105 C2106 1.516 . S
C2106 C2105 1.516 . S
C2106 C2107 1.502 . S
C2106 C2108 1.561 . S
C2106 C2109 1.526 . S
C2107 H2091 0.959 . S
C2107 H2092 0.959 . S
C2107 H2093 0.961 . S
C2107 C2106 1.502 . S
C2108 H2094 0.960 . S
C2108 H2095 0.961 . S
C2108 H2096 0.959 . S
C2108 C2106 1.561 . S
C2109 C2106 1.526 . S
C2109 C2110 1.396 . S
C2109 C2114 1.390 . S
C2110 C2104 1.465 . S
C2110 C2109 1.396 . S
C2110 C2111 1.399 . S
C2111 H2097 0.929 . S
C2111 C2110 1.399 . S
C2111 C2112 1.385 . S
C2112 H2098 0.931 . S
C2112 C2111 1.385 . S
C2112 C2113 1.389 . S
C2113 C2112 1.389 . S
C2113 C2114 1.387 . S
C2114 H2099 0.930 . S
C2114 C2109 1.390 . S
C2114 C2113 1.387 . S
H2115 C2127 0.930 . S
H2116 C2129 0.930 1_556 S
H2117 C2130 0.930 1_556 S
H2118 C2134 0.959 . S
H2119 C2134 0.959 . S
H2120 C2134 0.961 . S
H2121 C2135 0.960 . S
H2122 C2135 0.961 . S
H2123 C2135 0.959 . S
H2124 C2138 0.929 . S
H2125 C2139 0.931 . S
H2126 C2141 0.930 . S
C2127 H2115 0.930 . S
C2127 C2128 1.399 . S
C2127 C2132 1.399 . S
C2128 C2127 1.399 . S
C2128 C2129 1.376 . S
C2129 H2116 0.930 1_554 S
C2129 C2128 1.376 . S
C2129 C2130 1.388 . S
C2130 H2117 0.930 1_554 S
C2130 C2129 1.388 . S
C2130 C2131 1.390 . S
C2131 C2130 1.390 . S
C2131 C2132 1.394 . S
C2131 C2137 1.465 . S
C2132 C2127 1.399 . S
C2132 C2131 1.394 . S
C2132 C2133 1.516 . S
C2133 C2132 1.516 . S
C2133 C2134 1.502 . S
C2133 C2135 1.561 . S
C2133 C2136 1.526 . S
C2134 H2118 0.959 . S
C2134 H2119 0.959 . S
C2134 H2120 0.961 . S
C2134 C2133 1.502 . S
C2135 H2121 0.960 . S
C2135 H2122 0.961 . S
C2135 H2123 0.959 . S
C2135 C2133 1.561 . S
C2136 C2133 1.526 . S
C2136 C2137 1.396 . S
C2136 C2141 1.390 . S
C2137 C2131 1.465 . S
C2137 C2136 1.396 . S
C2137 C2138 1.399 . S
C2138 H2124 0.929 . S
C2138 C2137 1.399 . S
C2138 C2139 1.385 . S
C2139 H2125 0.931 . S
C2139 C2138 1.385 . S
C2139 C2140 1.389 . S
C2140 C2139 1.389 . S
C2140 C2141 1.387 . S
C2141 H2126 0.930 . S
C2141 C2136 1.390 . S
C2141 C2140 1.387 . S
H2142 C2154 0.930 . S
H2143 C2156 0.930 . S
H2144 C2157 0.930 . S
H2145 C2161 0.959 . S
H2146 C2161 0.959 . S
H2147 C2161 0.961 . S
H2148 C2162 0.960 . S
H2149 C2162 0.961 . S
H2150 C2162 0.959 . S
H2151 C2165 0.929 . S
H2152 C2166 0.931 . S
H2153 C2168 0.930 . S
C2154 H2142 0.930 . S
C2154 C2155 1.399 . S
C2154 C2159 1.399 . S
C2155 C2154 1.399 . S
C2155 C2156 1.376 . S
C2156 H2143 0.930 . S
C2156 C2155 1.376 . S
C2156 C2157 1.388 . S
C2157 H2144 0.930 . S
C2157 C2156 1.388 . S
C2157 C2158 1.390 . S
C2158 C2157 1.390 . S
C2158 C2159 1.394 . S
C2158 C2164 1.465 . S
C2159 C2154 1.399 . S
C2159 C2158 1.394 . S
C2159 C2160 1.516 . S
C2160 C2159 1.516 . S
C2160 C2161 1.502 . S
C2160 C2162 1.561 . S
C2160 C2163 1.526 . S
C2161 H2145 0.959 . S
C2161 H2146 0.959 . S
C2161 H2147 0.961 . S
C2161 C2160 1.502 . S
C2162 H2148 0.960 . S
C2162 H2149 0.961 . S
C2162 H2150 0.959 . S
C2162 C2160 1.561 . S
C2163 C2160 1.526 . S
C2163 C2164 1.396 . S
C2163 C2168 1.390 . S
C2164 C2158 1.465 . S
C2164 C2163 1.396 . S
C2164 C2165 1.399 . S
C2165 H2151 0.929 . S
C2165 C2164 1.399 . S
C2165 C2166 1.385 . S
C2166 H2152 0.931 . S
C2166 C2165 1.385 . S
C2166 C2167 1.389 . S
C2167 C2166 1.389 . S
C2167 C2168 1.387 . S
C2168 H2153 0.930 . S
C2168 C2163 1.390 . S
C2168 C2167 1.387 . S
H2169 C2181 0.930 . S
H2170 C2183 0.930 . S
H2171 C2184 0.930 . S
H2172 C2188 0.959 . S
H2173 C2188 0.959 . S
H2174 C2188 0.961 . S
H2175 C2189 0.960 . S
H2176 C2189 0.961 . S
H2177 C2189 0.959 . S
H2178 C2192 0.929 . S
H2179 C2193 0.931 . S
H2180 C2195 0.930 . S
C2181 H2169 0.930 . S
C2181 C2182 1.399 . S
C2181 C2186 1.399 . S
C2182 C2181 1.399 . S
C2182 C2183 1.376 . S
C2183 H2170 0.930 . S
C2183 C2182 1.376 . S
C2183 C2184 1.388 . S
C2184 H2171 0.930 . S
C2184 C2183 1.388 . S
C2184 C2185 1.390 . S
C2185 C2184 1.390 . S
C2185 C2186 1.394 . S
C2185 C2191 1.465 . S
C2186 C2181 1.399 . S
C2186 C2185 1.394 . S
C2186 C2187 1.516 . S
C2187 C2186 1.516 . S
C2187 C2188 1.502 . S
C2187 C2189 1.561 . S
C2187 C2190 1.526 . S
C2188 H2172 0.959 . S
C2188 H2173 0.959 . S
C2188 H2174 0.961 . S
C2188 C2187 1.502 . S
C2189 H2175 0.960 . S
C2189 H2176 0.961 . S
C2189 H2177 0.959 . S
C2189 C2187 1.561 . S
C2190 C2187 1.526 . S
C2190 C2191 1.396 . S
C2190 C2195 1.390 . S
C2191 C2185 1.465 . S
C2191 C2190 1.396 . S
C2191 C2192 1.399 . S
C2192 H2178 0.929 . S
C2192 C2191 1.399 . S
C2192 C2193 1.385 . S
C2193 H2179 0.931 . S
C2193 C2192 1.385 . S
C2193 C2194 1.389 . S
C2194 C2193 1.389 . S
C2194 C2195 1.387 . S
C2195 H2180 0.930 . S
C2195 C2190 1.390 . S
C2195 C2194 1.387 . S
H2196 C2208 0.930 . S
H2197 C2210 0.930 . S
H2198 C2211 0.930 . S
H2199 C2215 0.959 . S
H2200 C2215 0.959 . S
H2201 C2215 0.961 . S
H2202 C2216 0.960 . S
H2203 C2216 0.961 . S
H2204 C2216 0.959 . S
H2205 C2219 0.929 . S
H2206 C2220 0.931 . S
H2207 C2222 0.930 . S
C2208 H2196 0.930 . S
C2208 C2209 1.399 . S
C2208 C2213 1.399 . S
C2209 C2208 1.399 . S
C2209 C2210 1.376 . S
C2210 H2197 0.930 . S
C2210 C2209 1.376 . S
C2210 C2211 1.388 . S
C2211 H2198 0.930 . S
C2211 C2210 1.388 . S
C2211 C2212 1.390 . S
C2212 C2211 1.390 . S
C2212 C2213 1.394 . S
C2212 C2218 1.465 . S
C2213 C2208 1.399 . S
C2213 C2212 1.394 . S
C2213 C2214 1.516 . S
C2214 C2213 1.516 . S
C2214 C2215 1.502 . S
C2214 C2216 1.561 . S
C2214 C2217 1.526 . S
C2215 H2199 0.959 . S
C2215 H2200 0.959 . S
C2215 H2201 0.961 . S
C2215 C2214 1.502 . S
C2216 H2202 0.960 . S
C2216 H2203 0.961 . S
C2216 H2204 0.959 . S
C2216 C2214 1.561 . S
C2217 C2214 1.526 . S
C2217 C2218 1.396 . S
C2217 C2222 1.390 . S
C2218 C2212 1.465 . S
C2218 C2217 1.396 . S
C2218 C2219 1.399 . S
C2219 H2205 0.929 . S
C2219 C2218 1.399 . S
C2219 C2220 1.385 . S
C2220 H2206 0.931 . S
C2220 C2219 1.385 . S
C2220 C2221 1.389 . S
C2221 C2220 1.389 . S
C2221 C2222 1.387 . S
C2222 H2207 0.930 . S
C2222 C2217 1.390 . S
C2222 C2221 1.387 . S
H2223 C2235 0.930 . S
H2224 C2237 0.930 . S
H2225 C2238 0.930 . S
H2226 C2242 0.959 . S
H2227 C2242 0.959 . S
H2228 C2242 0.961 . S
H2229 C2243 0.960 . S
H2230 C2243 0.961 . S
H2231 C2243 0.959 . S
H2232 C2246 0.929 . S
H2233 C2247 0.931 . S
H2234 C2249 0.930 . S
C2235 H2223 0.930 . S
C2235 C2236 1.399 . S
C2235 C2240 1.399 . S
C2236 C2235 1.399 . S
C2236 C2237 1.376 . S
C2237 H2224 0.930 . S
C2237 C2236 1.376 . S
C2237 C2238 1.388 . S
C2238 H2225 0.930 . S
C2238 C2237 1.388 . S
C2238 C2239 1.390 . S
C2239 C2238 1.390 . S
C2239 C2240 1.394 . S
C2239 C2245 1.465 . S
C2240 C2235 1.399 . S
C2240 C2239 1.394 . S
C2240 C2241 1.516 . S
C2241 C2240 1.516 . S
C2241 C2242 1.502 . S
C2241 C2243 1.561 . S
C2241 C2244 1.526 . S
C2242 H2226 0.959 . S
C2242 H2227 0.959 . S
C2242 H2228 0.961 . S
C2242 C2241 1.502 . S
C2243 H2229 0.960 . S
C2243 H2230 0.961 . S
C2243 H2231 0.959 . S
C2243 C2241 1.561 . S
C2244 C2241 1.526 . S
C2244 C2245 1.396 . S
C2244 C2249 1.390 . S
C2245 C2239 1.465 . S
C2245 C2244 1.396 . S
C2245 C2246 1.399 . S
C2246 H2232 0.929 . S
C2246 C2245 1.399 . S
C2246 C2247 1.385 . S
C2247 H2233 0.931 . S
C2247 C2246 1.385 . S
C2247 C2248 1.389 . S
C2248 C2247 1.389 . S
C2248 C2249 1.387 . S
C2249 H2234 0.930 . S
C2249 C2244 1.390 . S
C2249 C2248 1.387 . S
H2250 C2262 0.930 . S
H2251 C2264 0.930 . S
H2252 C2265 0.930 . S
H2253 C2269 0.959 . S
H2254 C2269 0.959 . S
H2255 C2269 0.961 . S
H2256 C2270 0.960 . S
H2257 C2270 0.961 . S
H2258 C2270 0.959 . S
H2259 C2273 0.929 . S
H2260 C2274 0.931 . S
H2261 C2276 0.930 . S
C2262 H2250 0.930 . S
C2262 C2263 1.399 . S
C2262 C2267 1.399 . S
C2263 C2262 1.399 . S
C2263 C2264 1.376 . S
C2264 H2251 0.930 . S
C2264 C2263 1.376 . S
C2264 C2265 1.388 . S
C2265 H2252 0.930 . S
C2265 C2264 1.388 . S
C2265 C2266 1.390 . S
C2266 C2265 1.390 . S
C2266 C2267 1.394 . S
C2266 C2272 1.465 . S
C2267 C2262 1.399 . S
C2267 C2266 1.394 . S
C2267 C2268 1.516 . S
C2268 C2267 1.516 . S
C2268 C2269 1.502 . S
C2268 C2270 1.561 . S
C2268 C2271 1.526 . S
C2269 H2253 0.959 . S
C2269 H2254 0.959 . S
C2269 H2255 0.961 . S
C2269 C2268 1.502 . S
C2270 H2256 0.960 . S
C2270 H2257 0.961 . S
C2270 H2258 0.959 . S
C2270 C2268 1.561 . S
C2271 C2268 1.526 . S
C2271 C2272 1.396 . S
C2271 C2276 1.390 . S
C2272 C2266 1.465 . S
C2272 C2271 1.396 . S
C2272 C2273 1.399 . S
C2273 H2259 0.929 . S
C2273 C2272 1.399 . S
C2273 C2274 1.385 . S
C2274 H2260 0.931 . S
C2274 C2273 1.385 . S
C2274 C2275 1.389 . S
C2275 C2274 1.389 . S
C2275 C2276 1.387 . S
C2276 H2261 0.930 . S
C2276 C2271 1.390 . S
C2276 C2275 1.387 . S
H2277 C2289 0.930 . S
H2278 C2291 0.930 1_556 S
H2279 C2292 0.930 1_556 S
H2280 C2296 0.959 . S
H2281 C2296 0.959 . S
H2282 C2296 0.961 . S
H2283 C2297 0.960 . S
H2284 C2297 0.961 . S
H2285 C2297 0.959 . S
H2286 C2300 0.929 . S
H2287 C2301 0.931 . S
H2288 C2303 0.930 . S
C2289 H2277 0.930 . S
C2289 C2290 1.399 . S
C2289 C2294 1.399 . S
C2290 C2289 1.399 . S
C2290 C2291 1.376 . S
C2291 H2278 0.930 1_554 S
C2291 C2290 1.376 . S
C2291 C2292 1.388 . S
C2292 H2279 0.930 1_554 S
C2292 C2291 1.388 . S
C2292 C2293 1.390 . S
C2293 C2292 1.390 . S
C2293 C2294 1.394 . S
C2293 C2299 1.465 . S
C2294 C2289 1.399 . S
C2294 C2293 1.394 . S
C2294 C2295 1.516 . S
C2295 C2294 1.516 . S
C2295 C2296 1.502 . S
C2295 C2297 1.561 . S
C2295 C2298 1.526 . S
C2296 H2280 0.959 . S
C2296 H2281 0.959 . S
C2296 H2282 0.961 . S
C2296 C2295 1.502 . S
C2297 H2283 0.960 . S
C2297 H2284 0.961 . S
C2297 H2285 0.959 . S
C2297 C2295 1.561 . S
C2298 C2295 1.526 . S
C2298 C2299 1.396 . S
C2298 C2303 1.390 . S
C2299 C2293 1.465 . S
C2299 C2298 1.396 . S
C2299 C2300 1.399 . S
C2300 H2286 0.929 . S
C2300 C2299 1.399 . S
C2300 C2301 1.385 . S
C2301 H2287 0.931 . S
C2301 C2300 1.385 . S
C2301 C2302 1.389 . S
C2302 C2301 1.389 . S
C2302 C2303 1.387 . S
C2303 H2288 0.930 . S
C2303 C2298 1.390 . S
C2303 C2302 1.387 . S
H2304 C2316 0.930 . S
H2305 C2318 0.930 . S
H2306 C2319 0.930 . S
H2307 C2323 0.959 1_655 S
H2308 C2323 0.959 . S
H2309 C2323 0.961 . S
H2310 C2324 0.960 . S
H2311 C2324 0.961 . S
H2312 C2324 0.959 . S
H2313 C2327 0.929 . S
H2314 C2328 0.931 . S
H2315 C2330 0.930 . S
C2316 H2304 0.930 . S
C2316 C2317 1.399 . S
C2316 C2321 1.399 . S
C2317 C2316 1.399 . S
C2317 C2318 1.376 . S
C2318 H2305 0.930 . S
C2318 C2317 1.376 . S
C2318 C2319 1.388 . S
C2319 H2306 0.930 . S
C2319 C2318 1.388 . S
C2319 C2320 1.390 . S
C2320 C2319 1.390 . S
C2320 C2321 1.394 . S
C2320 C2326 1.465 . S
C2321 C2316 1.399 . S
C2321 C2320 1.394 . S
C2321 C2322 1.516 . S
C2322 C2321 1.516 . S
C2322 C2323 1.502 . S
C2322 C2324 1.561 . S
C2322 C2325 1.526 . S
C2323 H2307 0.959 1_455 S
C2323 H2308 0.959 . S
C2323 H2309 0.961 . S
C2323 C2322 1.502 . S
C2324 H2310 0.960 . S
C2324 H2311 0.961 . S
C2324 H2312 0.959 . S
C2324 C2322 1.561 . S
C2325 C2322 1.526 . S
C2325 C2326 1.396 . S
C2325 C2330 1.390 . S
C2326 C2320 1.465 . S
C2326 C2325 1.396 . S
C2326 C2327 1.399 . S
C2327 H2313 0.929 . S
C2327 C2326 1.399 . S
C2327 C2328 1.385 . S
C2328 H2314 0.931 . S
C2328 C2327 1.385 . S
C2328 C2329 1.389 . S
C2329 C2328 1.389 . S
C2329 C2330 1.387 . S
C2330 H2315 0.930 . S
C2330 C2325 1.390 . S
C2330 C2329 1.387 . S
H2331 C2343 0.930 . S
H2332 C2345 0.930 . S
H2333 C2346 0.930 . S
H2334 C2350 0.959 . S
H2335 C2350 0.959 . S
H2336 C2350 0.961 . S
H2337 C2351 0.960 . S
H2338 C2351 0.961 . S
H2339 C2351 0.959 . S
H2340 C2354 0.929 . S
H2341 C2355 0.931 . S
H2342 C2357 0.930 . S
C2343 H2331 0.930 . S
C2343 C2344 1.399 . S
C2343 C2348 1.399 . S
C2344 C2343 1.399 . S
C2344 C2345 1.376 . S
C2345 H2332 0.930 . S
C2345 C2344 1.376 . S
C2345 C2346 1.388 . S
C2346 H2333 0.930 . S
C2346 C2345 1.388 . S
C2346 C2347 1.390 . S
C2347 C2346 1.390 . S
C2347 C2348 1.394 . S
C2347 C2353 1.465 . S
C2348 C2343 1.399 . S
C2348 C2347 1.394 . S
C2348 C2349 1.516 . S
C2349 C2348 1.516 . S
C2349 C2350 1.502 . S
C2349 C2351 1.561 . S
C2349 C2352 1.526 . S
C2350 H2334 0.959 . S
C2350 H2335 0.959 . S
C2350 H2336 0.961 . S
C2350 C2349 1.502 . S
C2351 H2337 0.960 . S
C2351 H2338 0.961 . S
C2351 H2339 0.959 . S
C2351 C2349 1.561 . S
C2352 C2349 1.526 . S
C2352 C2353 1.396 . S
C2352 C2357 1.390 . S
C2353 C2347 1.465 . S
C2353 C2352 1.396 . S
C2353 C2354 1.399 . S
C2354 H2340 0.929 . S
C2354 C2353 1.399 . S
C2354 C2355 1.385 . S
C2355 H2341 0.931 . S
C2355 C2354 1.385 . S
C2355 C2356 1.389 . S
C2356 C2355 1.389 . S
C2356 C2357 1.387 . S
C2357 H2342 0.930 . S
C2357 C2352 1.390 . S
C2357 C2356 1.387 . S
H2358 C2370 0.930 . S
H2359 C2372 0.930 . S
H2360 C2373 0.930 . S
H2361 C2377 0.959 . S
H2362 C2377 0.959 . S
H2363 C2377 0.961 . S
H2364 C2378 0.960 . S
H2365 C2378 0.961 . S
H2366 C2378 0.959 . S
H2367 C2381 0.929 . S
H2368 C2382 0.931 . S
H2369 C2384 0.930 . S
C2370 H2358 0.930 . S
C2370 C2371 1.399 . S
C2370 C2375 1.399 . S
C2371 C2370 1.399 . S
C2371 C2372 1.376 . S
C2372 H2359 0.930 . S
C2372 C2371 1.376 . S
C2372 C2373 1.388 . S
C2373 H2360 0.930 . S
C2373 C2372 1.388 . S
C2373 C2374 1.390 . S
C2374 C2373 1.390 . S
C2374 C2375 1.394 . S
C2374 C2380 1.465 . S
C2375 C2370 1.399 . S
C2375 C2374 1.394 . S
C2375 C2376 1.516 . S
C2376 C2375 1.516 . S
C2376 C2377 1.502 . S
C2376 C2378 1.561 . S
C2376 C2379 1.526 . S
C2377 H2361 0.959 . S
C2377 H2362 0.959 . S
C2377 H2363 0.961 . S
C2377 C2376 1.502 . S
C2378 H2364 0.960 . S
C2378 H2365 0.961 . S
C2378 H2366 0.959 . S
C2378 C2376 1.561 . S
C2379 C2376 1.526 . S
C2379 C2380 1.396 . S
C2379 C2384 1.390 . S
C2380 C2374 1.465 . S
C2380 C2379 1.396 . S
C2380 C2381 1.399 . S
C2381 H2367 0.929 . S
C2381 C2380 1.399 . S
C2381 C2382 1.385 . S
C2382 H2368 0.931 . S
C2382 C2381 1.385 . S
C2382 C2383 1.389 . S
C2383 C2382 1.389 . S
C2383 C2384 1.387 . S
C2384 H2369 0.930 . S
C2384 C2379 1.390 . S
C2384 C2383 1.387 . S
H2385 C2397 0.930 . S
H2386 C2399 0.930 . S
H2387 C2400 0.930 . S
H2388 C2404 0.959 . S
H2389 C2404 0.959 . S
H2390 C2404 0.961 . S
H2391 C2405 0.960 . S
H2392 C2405 0.961 . S
H2393 C2405 0.959 . S
H2394 C2408 0.929 . S
H2395 C2409 0.931 . S
H2396 C2411 0.930 . S
C2397 H2385 0.930 . S
C2397 C2398 1.399 . S
C2397 C2402 1.399 . S
C2398 C2397 1.399 . S
C2398 C2399 1.376 . S
C2399 H2386 0.930 . S
C2399 C2398 1.376 . S
C2399 C2400 1.388 . S
C2400 H2387 0.930 . S
C2400 C2399 1.388 . S
C2400 C2401 1.390 . S
C2401 C2400 1.390 . S
C2401 C2402 1.394 . S
C2401 C2407 1.465 . S
C2402 C2397 1.399 . S
C2402 C2401 1.394 . S
C2402 C2403 1.516 . S
C2403 C2402 1.516 . S
C2403 C2404 1.502 . S
C2403 C2405 1.561 . S
C2403 C2406 1.526 . S
C2404 H2388 0.959 . S
C2404 H2389 0.959 . S
C2404 H2390 0.961 . S
C2404 C2403 1.502 . S
C2405 H2391 0.960 . S
C2405 H2392 0.961 . S
C2405 H2393 0.959 . S
C2405 C2403 1.561 . S
C2406 C2403 1.526 . S
C2406 C2407 1.396 . S
C2406 C2411 1.390 . S
C2407 C2401 1.465 . S
C2407 C2406 1.396 . S
C2407 C2408 1.399 . S
C2408 H2394 0.929 . S
C2408 C2407 1.399 . S
C2408 C2409 1.385 . S
C2409 H2395 0.931 . S
C2409 C2408 1.385 . S
C2409 C2410 1.389 . S
C2410 C2409 1.389 . S
C2410 C2411 1.387 . S
C2411 H2396 0.930 . S
C2411 C2406 1.390 . S
C2411 C2410 1.387 . S
C805 C21 0.775 . S
C817 C681 0.943 . S
C832 C582 0.833 1_556 S
C844 C54 0.911 . S
C859 C615 0.848 . S
C871 C87 0.868 . S
C886 C648 0.942 . S
C898 C120 0.790 . S
C913 C153 0.776 . S
C925 C780 0.946 . S
C940 C714 0.805 . S
C952 C186 0.930 . S
C967 C747 0.873 . S
C979 C219 0.847 1_655 S
C994 C549 0.814 . S
C1006 C252 0.924 . S
C1021 C285 0.849 . S
C1033 C516 0.867 . S
C1048 C417 0.926 . S
C1060 C318 0.814 . S
C1075 C351 0.844 1_565 S
C1087 C450 0.876 . S
C1102 C483 0.850 . S
C1114 C384 0.865 . S
C1129 C634 1.515 . S
C1141 N13 1.205 . S
C1156 N46 1.158 . S
C1168 C667 1.522 . S
C1183 C568 1.521 . S
C1195 N79 1.139 1_565 S
C1210 N112 1.144 . S
C1222 C601 1.514 . S
C1237 C700 1.522 . S
C1249 N145 1.153 . S
C1264 C733 1.501 . S
C1276 N178 1.186 . S
C1291 C535 1.521 . S
C1303 N211 1.168 . S
C1318 N244 1.146 . S
C1330 C766 1.522 . S
C1345 N277 1.277 . S
C1357 C73 1.482 . S
C1372 N310 1.164 . S
C1384 C106 1.507 . S
C1399 N343 1.308 . S
C1411 C7 1.484 . S
C1426 C40 1.510 . S
C1438 N376 1.230 . S
C1453 N409 1.296 1_556 S
C1465 C205 1.481 . S
C1480 C238 1.490 . S
C1492 N442 1.231 . S
C1507 C139 1.490 . S
C1519 N475 1.296 . S
C1534 C172 1.510 . S
C1546 N508 1.230 . S
C1561 C403 1.506 . S
C1573 N541 1.168 . S
C1588 C271 1.494 . S
C1600 N574 1.214 . S
C1615 N607 1.261 . S
C1627 C304 1.485 . S
C1642 N640 1.281 1_655 S
C1654 C337 1.482 . S
C1669 C370 1.481 . S
C1681 N673 1.278 . S
C1696 N706 1.136 . S
C1708 C469 1.519 . S
C1723 C502 1.522 . S
C1735 N739 1.151 . S
C1750 N772 1.250 . S
C1762 C436 1.486 . S
C1777 C18 1.124 . S
C1789 C744 1.166 1_455 S
C1804 C546 1.113 . S
C1816 C51 1.155 1_554 S
C1831 C84 1.116 . S
C1843 C777 1.159 . S
C1858 C711 1.152 . S
C1870 C117 1.178 . S
C1885 C150 1.149 . S
C1897 C612 1.178 . S
C1912 C645 1.179 . S
C1924 C183 1.160 . S
C1939 C216 1.101 . S
C1951 C678 1.119 . S
C1966 C579 1.137 . S
C1978 C249 1.174 . S
C1993 C447 1.116 1_545 S
C2005 C282 1.102 . S
C2020 C480 1.109 . S
C2032 C315 1.106 . S
C2047 C348 1.173 . S
C2059 C513 1.172 . S
C2074 C381 1.178 . S
C2086 C414 1.165 . S
C2101 N497 0.726 . S
C2113 N2 0.665 . S
C2128 N35 0.495 . S
C2140 N398 0.456 . S
C2155 N431 0.474 . S
C2167 N68 0.617 . S
C2182 N464 0.702 . S
C2194 N101 0.575 . S
C2209 N134 0.653 . S
C2221 N299 0.507 . S
C2236 N332 0.523 . S
C2248 N167 0.667 . S
C2263 N200 0.668 . S
C2275 N365 0.525 . S
C2290 N266 0.726 . S
C2302 N233 0.665 . S
C2317 N662 0.683 . S
C2329 N530 0.545 . S
C2344 N761 0.489 . S
C2356 N563 0.635 . S
C2371 N695 0.459 . S
C2383 N596 0.487 . S
C2398 N728 0.467 . S
C2410 N629 0.606 . S
