# Generated by pormake.
# Topology sqp, (5)-cn, num edge types: 1
# Building blocks:
#     Node 0, Type 0, BuildingBlock: BEQFEK_clean_sbu_0, # of connection points: 5
#     Node 1, Type 0, BuildingBlock: BEQFEK_clean_sbu_0, # of connection points: 5
#     Node 2, Type 0, BuildingBlock: BEQFEK_clean_sbu_0, # of connection points: 5
#     Node 3, Type 0, BuildingBlock: BEQFEK_clean_sbu_0, # of connection points: 5
#     Edge 4, Type (0, 0), BuildingBlock: CIFDUS_clean_linker_0, # of connection points: 2
#     Edge 5, Type (0, 0), BuildingBlock: CIFDUS_clean_linker_0, # of connection points: 2
#     Edge 6, Type (0, 0), BuildingBlock: CIFDUS_clean_linker_0, # of connection points: 2
#     Edge 7, Type (0, 0), BuildingBlock: CIFDUS_clean_linker_0, # of connection points: 2
#     Edge 8, Type (0, 0), BuildingBlock: CIFDUS_clean_linker_0, # of connection points: 2
#     Edge 9, Type (0, 0), BuildingBlock: CIFDUS_clean_linker_0, # of connection points: 2
#     Edge 10, Type (0, 0), BuildingBlock: CIFDUS_clean_linker_0, # of connection points: 2
#     Edge 11, Type (0, 0), BuildingBlock: CIFDUS_clean_linker_0, # of connection points: 2
#     Edge 12, Type (0, 0), BuildingBlock: CIFDUS_clean_linker_0, # of connection points: 2
#     Edge 13, Type (0, 0), BuildingBlock: CIFDUS_clean_linker_0, # of connection points: 2
# Relax obj value: 0.029
# Max RMSD: 0.080
# Mean RMSD: 0.080
data_MOF--net-sqp--node1-BEQFEK_clean_sbu_0--edge1-CIFDUS_clean_linker_0
_symmetry_space_group_name_H-M    P1
_symmetry_Int_Tables_number       1
_symmetry_cell_setting            triclinic
loop_
_symmetry_equiv_pos_as_xyz
'x, y, z'
_cell_length_a     21.881444
_cell_length_b     21.840783
_cell_length_c     34.159641
_cell_angle_alpha  97.436966
_cell_angle_beta   97.460956
_cell_angle_gamma 102.80923
loop_
_atom_site_label
_atom_site_type_symbol
_atom_site_fract_x
_atom_site_fract_y
_atom_site_fract_z
_atom_type_partial_charge
Co0 Co 0.05284 0.95619 0.3013 0.0
Co1 Co 0.9634 0.05162 0.30214 0.0
C2 C 0.91182 0.91498 0.26875 0.0
O3 O 0.96696 0.90629 0.27785 0.0
O4 O 0.90145 0.97029 0.27516 0.0
C5 C 0.09465 0.86623 0.25394 0.0
O6 O 0.04585 0.87298 0.2296 0.0
C7 C 0.88292 0.13734 0.27582 0.0
C8 C 0.89809 0.20678 0.33134 0.0
C9 C 0.86642 0.19222 0.29217 0.0
N10 N 0.92266 0.12113 0.30406 0.0
N11 N 0.93133 0.16292 0.33711 0.0
C12 C 0.85995 0.09939 0.23477 0.0
H13 H 0.86644 0.0504 0.23398 0.0
H14 H 0.88805 0.12216 0.21345 0.0
H15 H 0.80911 0.09771 0.22503 0.0
C16 C 0.13213 0.0584 0.26962 0.0
N17 N 0.07603 0.03132 0.27954 0.0
N18 N 0.03927 0.07155 0.27917 0.0
C19 C 0.07138 0.12598 0.26902 0.0
C20 C 0.1314 0.11943 0.2628 0.0
C21 C 0.18697 0.02775 0.26973 0.0
H22 H 0.17328 0.98393 0.24702 0.0
H23 H 0.22966 0.05944 0.26253 0.0
H24 H 0.19844 0.01386 0.29943 0.0
O25 O 0.05398 0.97701 0.35944 0.0
O26 O 0.98786 0.04122 0.35854 0.0
H27 H 0.04078 0.20012 0.30234 0.0
H28 H 0.08385 0.2257 0.26339 0.0
C29 C 0.04897 0.1861 0.27144 0.0
H30 H 1.00326 0.17764 0.25093 0.0
H31 H 0.96008 0.16152 0.36369 0.0
O32 O 0.10973 0.89965 0.2887 0.0
C33 C 0.02314 0.01177 0.37753 0.0
Co34 Co 0.09732 0.95819 0.6882 0.0
Co35 Co 1.00475 0.05045 0.68178 0.0
C36 C 0.14072 0.10029 0.71698 0.0
O37 O 0.1485 0.04429 0.71004 0.0
O38 O 0.08615 0.1115 0.70887 0.0
C39 C 0.1839 0.91591 0.73869 0.0
O40 O 0.17872 0.96689 0.76174 0.0
C41 C 0.92035 0.13367 0.70556 0.0
C42 C 0.85435 0.12127 0.64887 0.0
C43 C 0.86709 0.15184 0.68829 0.0
N44 N 0.93723 0.0939 0.67767 0.0
N45 N 0.89761 0.087 0.64387 0.0
C46 C 0.95628 0.15502 0.74725 0.0
H47 H 1.00513 0.14812 0.74887 0.0
H48 H 0.93198 0.12606 0.76767 0.0
H49 H 0.95814 0.20584 0.7575 0.0
C50 C 0.99167 0.88428 0.71937 0.0
N51 N 0.02083 0.9391 0.70873 0.0
N52 N 0.98153 0.97673 0.70649 0.0
C53 C 0.92559 0.94641 0.71562 0.0
C54 C 0.9303 0.88681 0.72397 0.0
C55 C 0.02037 0.82832 0.72131 0.0
H56 H 0.06303 0.84179 0.74489 0.0
H57 H 0.98688 0.78677 0.72848 0.0
H58 H 0.03564 0.81497 0.69233 0.0
O59 O 0.07906 0.95327 0.62956 0.0
O60 O 0.01769 0.022 0.62642 0.0
H61 H 0.85573 0.97765 0.67876 0.0
H62 H 0.82475 0.93485 0.71658 0.0
C63 C 0.86603 0.96945 0.71004 0.0
H64 H 0.87296 0.01529 0.73022 0.0
H65 H 0.89991 0.05856 0.61735 0.0
O66 O 0.15118 0.90013 0.70373 0.0
C67 C 0.04687 0.98419 0.60948 0.0
Co68 Co 0.57394 0.44144 0.79512 0.0
Co69 Co 0.48606 0.53637 0.80688 0.0
C70 C 0.43181 0.40605 0.76389 0.0
O71 O 0.48554 0.39227 0.77023 0.0
O72 O 0.42574 0.46183 0.77485 0.0
C73 C 0.63321 0.37442 0.74105 0.0
O74 O 0.59513 0.39504 0.71569 0.0
C75 C 0.40058 0.6171 0.78669 0.0
C76 C 0.41138 0.68182 0.84379 0.0
C77 C 0.37999 0.66815 0.80451 0.0
N78 N 0.44205 0.60188 0.81413 0.0
N79 N 0.4479 0.64031 0.8483 0.0
C80 C 0.38595 0.58621 0.74368 0.0
H81 H 0.42375 0.56247 0.73605 0.0
H82 H 0.38151 0.62189 0.72379 0.0
H83 H 0.34039 0.54952 0.73856 0.0
C84 C 0.65231 0.5564 0.77093 0.0
N85 N 0.59725 0.52393 0.77996 0.0
N86 N 0.55923 0.56261 0.78378 0.0
C87 C 0.58839 0.62038 0.77687 0.0
C88 C 0.64842 0.61856 0.76872 0.0
C89 C 0.71058 0.53129 0.77036 0.0
H90 H 0.7133 0.49946 0.79299 0.0
H91 H 0.70795 0.50343 0.74038 0.0
H92 H 0.75434 0.57047 0.77641 0.0
O93 O 0.57748 0.45142 0.85412 0.0
O94 O 0.51166 0.51523 0.86005 0.0
H95 H 0.55544 0.69096 0.81205 0.0
H96 H 0.59088 0.7185 0.77053 0.0
C97 C 0.56082 0.67739 0.78049 0.0
H98 H 0.51335 0.66552 0.76168 0.0
H99 H 0.47735 0.63864 0.87454 0.0
O100 O 0.63295 0.38873 0.77833 0.0
C101 C 0.54729 0.48265 0.87543 0.0
Co102 Co 0.57151 0.48111 0.18622 0.0
Co103 Co 0.4741 0.56689 0.17999 0.0
C104 C 0.60609 0.62325 0.21887 0.0
O105 O 0.62035 0.56993 0.21099 0.0
O106 O 0.54951 0.62844 0.21022 0.0
C107 C 0.64232 0.42404 0.23828 0.0
O108 O 0.62186 0.46227 0.26365 0.0
C109 C 0.39262 0.64962 0.20362 0.0
C110 C 0.3238 0.63692 0.14809 0.0
C111 C 0.33955 0.66853 0.18732 0.0
N112 N 0.40696 0.60883 0.17535 0.0
N113 N 0.36605 0.60181 0.14214 0.0
C114 C 0.42649 0.6652 0.24598 0.0
H115 H 0.45193 0.62819 0.2528 0.0
H116 H 0.39248 0.66893 0.26709 0.0
H117 H 0.46204 0.71143 0.25013 0.0
C118 C 0.46112 0.39882 0.21265 0.0
N119 N 0.4915 0.45523 0.20408 0.0
N120 N 0.45198 0.49271 0.20285 0.0
C121 C 0.39577 0.46183 0.21098 0.0
C122 C 0.39947 0.40124 0.21725 0.0
C123 C 0.48723 0.34088 0.21045 0.0
H124 H 0.51683 0.34005 0.18647 0.0
H125 H 0.51756 0.34241 0.23939 0.0
H126 H 0.44866 0.29661 0.2047 0.0
O127 O 0.55639 0.47879 0.1272 0.0
O128 O 0.49011 0.54262 0.12543 0.0
H129 H 0.32159 0.49357 0.17851 0.0
H130 H 0.29875 0.45656 0.22052 0.0
C131 C 0.33793 0.48795 0.20966 0.0
H132 H 0.34989 0.53521 0.22883 0.0
H133 H 0.36657 0.57252 0.11557 0.0
O134 O 0.62661 0.42319 0.201 0.0
C135 C 0.52174 0.50836 0.10779 0.0
H136 H 0.07456 0.9409 0.42679 0.0
H137 H 0.97525 0.09126 0.42657 0.0
H138 H 0.97234 0.09428 0.49776 0.0
H139 H 0.99684 0.05417 0.55977 0.0
H140 H 0.09652 0.90428 0.56102 0.0
H141 H 0.09981 0.90092 0.48955 0.0
C142 C 0.05267 0.97464 0.44235 0.0
C143 C 0.02521 0.01577 0.42127 0.0
C144 C 0.05068 0.97591 0.48338 0.0
C145 C 0.9967 0.05893 0.44194 0.0
C146 C 0.99486 0.06067 0.48269 0.0
C147 C 0.01905 0.02043 0.54449 0.0
C148 C 0.04624 0.97943 0.5658 0.0
C149 C 0.02133 0.01915 0.50361 0.0
C150 C 0.07511 0.93636 0.54539 0.0
C151 C 0.07718 0.93451 0.50453 0.0
H152 H 0.59169 0.45376 0.0585 0.0
H153 H 0.44371 0.55622 0.05833 0.0
H154 H 0.43959 0.55715 0.98723 0.0
H155 H 0.47804 0.5313 0.92552 0.0
H156 H 0.62499 0.4283 0.92289 0.0
H157 H 0.62935 0.42535 -0.00531 0.0
C158 C 0.55836 0.47595 0.04282 0.0
C159 C 0.51833 0.50507 0.06396 0.0
C160 C 0.55613 0.47659 0.0015 0.0
C161 C 0.47541 0.53366 0.0431 0.0
C162 C 0.47291 0.53432 0.00231 0.0
C163 C 0.51129 0.50821 0.94046 0.0
C164 C 0.55136 0.48037 0.91881 0.0
C165 C 0.51326 0.50641 0.98134 0.0
C166 C 0.59366 0.45028 0.93885 0.0
C167 C 0.59613 0.44854 0.97989 0.0
H168 H 0.14522 0.18982 0.20343 0.0
H169 H 0.24108 0.16258 0.31581 0.0
H170 H 0.33426 0.24556 0.311 0.0
H171 H 0.38795 0.32744 0.27505 0.0
H172 H 0.29138 0.35557 0.16312 0.0
H173 H 0.19925 0.2709 0.16718 0.0
C174 C 0.18663 0.20239 0.22676 0.0
C175 C 0.18686 0.17031 0.25975 0.0
C176 C 0.23982 0.25021 0.22381 0.0
C177 C 0.24044 0.18657 0.28997 0.0
C178 C 0.29356 0.23396 0.28726 0.0
C179 C 0.34672 0.31452 0.25158 0.0
C180 C 0.34578 0.34765 0.21908 0.0
C181 C 0.29382 0.26616 0.25432 0.0
C182 C 0.29248 0.33088 0.18865 0.0
C183 C 0.23994 0.28256 0.19095 0.0
H184 H 0.79772 0.26088 0.33095 0.0
H185 H 0.8418 0.21051 0.21333 0.0
H186 H 0.77413 0.27489 0.18602 0.0
H187 H 0.70477 0.34911 0.196 0.0
H188 H 0.66646 0.40307 0.31482 0.0
H189 H 0.73005 0.33461 0.34105 0.0
C190 C 0.7925 0.26371 0.29926 0.0
C191 C 0.82381 0.22931 0.2742 0.0
C192 C 0.75483 0.30221 0.28394 0.0
C193 C 0.81662 0.23413 0.23327 0.0
C194 C 0.77848 0.27187 0.21764 0.0
C195 C 0.71023 0.34572 0.2276 0.0
C196 C 0.68087 0.38142 0.25336 0.0
C197 C 0.74753 0.30639 0.24273 0.0
C198 C 0.68864 0.37652 0.29426 0.0
C199 C 0.72497 0.33722 0.30935 0.0
H200 H 0.73078 0.64173 0.21262 0.0
H201 H 0.59446 0.73769 0.25608 0.0
H202 H 0.67572 0.83811 0.27285 0.0
H203 H 0.78605 0.89897 0.27482 0.0
H204 H 0.92068 0.8016 0.23014 0.0
H205 H 0.83933 0.7021 0.21347 0.0
C206 C 0.71903 0.68438 0.2263 0.0
C207 C 0.65686 0.68204 0.23345 0.0
C208 C 0.76546 0.74216 0.23496 0.0
C209 C 0.64215 0.73812 0.25048 0.0
C210 C 0.68847 0.79567 0.25984 0.0
C211 C 0.79717 0.85617 0.26085 0.0
C212 C 0.8593 0.85783 0.25368 0.0
C213 C 0.75021 0.79844 0.25185 0.0
C214 C 0.87324 0.80171 0.23603 0.0
C215 C 0.82684 0.74459 0.22666 0.0
H216 H 0.21918 0.87095 0.27932 0.0
H217 H 0.05286 0.76183 0.19678 0.0
H218 H 0.11376 0.68985 0.17027 0.0
H219 H 0.21434 0.65976 0.16895 0.0
H220 H 0.38325 0.77296 0.24742 0.0
H221 H 0.32126 0.84075 0.27747 0.0
C222 C 0.19633 0.83101 0.25582 0.0
C223 C 0.13175 0.82155 0.24003 0.0
C224 C 0.23201 0.79045 0.24006 0.0
C225 C 0.10268 0.7702 0.20925 0.0
C226 C 0.1374 0.729 0.19409 0.0
C227 C 0.2377 0.69921 0.19268 0.0
C228 C 0.30309 0.71009 0.20654 0.0
C229 C 0.20216 0.73909 0.20896 0.0
C230 C 0.33261 0.76171 0.23714 0.0
C231 C 0.29727 0.80116 0.25404 0.0
H232 H 0.38536 0.79249 0.82629 0.0
H233 H 0.27672 0.62597 0.74362 0.0
H234 H 0.20923 0.68877 0.71421 0.0
H235 H 0.17929 0.79118 0.71299 0.0
H236 H 0.28404 0.9552 0.79918 0.0
H237 H 0.35416 0.89308 0.82641 0.0
C238 C 0.3469 0.7698 0.80184 0.0
C239 C 0.33753 0.70496 0.78647 0.0
C240 C 0.30722 0.80581 0.78579 0.0
C241 C 0.28702 0.67629 0.75503 0.0
C242 C 0.24771 0.71208 0.73848 0.0
C243 C 0.21776 0.81327 0.73755 0.0
C244 C 0.22663 0.87767 0.75397 0.0
C245 C 0.25743 0.77695 0.75358 0.0
C246 C 0.2761 0.90561 0.78611 0.0
C247 C 0.31629 0.87018 0.80169 0.0
H248 H 0.15688 0.22573 0.7095 0.0
H249 H 0.25463 0.09166 0.75491 0.0
H250 H 0.35416 0.17291 0.77013 0.0
H251 H 0.41423 0.28137 0.76996 0.0
H252 H 0.31765 0.41739 0.72652 0.0
H253 H 0.21741 0.33585 0.71035 0.0
C254 C 0.19978 0.21467 0.72327 0.0
C255 C 0.19819 0.15274 0.73108 0.0
C256 C 0.25744 0.26157 0.73154 0.0
C257 C 0.25444 0.13894 0.74852 0.0
C258 C 0.31158 0.18526 0.75705 0.0
C259 C 0.37149 0.2929 0.75632 0.0
C260 C 0.37351 0.35503 0.749 0.0
C261 C 0.31383 0.24644 0.74822 0.0
C262 C 0.31737 0.36964 0.73216 0.0
C263 C 0.25996 0.32321 0.72319 0.0
H264 H 0.80054 0.2226 0.64945 0.0
H265 H 0.84473 0.17334 0.76639 0.0
H266 H 0.77957 0.24026 0.79328 0.0
H267 H 0.70628 0.31027 0.78316 0.0
H268 H 0.65772 0.35374 0.66501 0.0
H269 H 0.72733 0.29109 0.63916 0.0
C270 C 0.79621 0.22658 0.6809 0.0
C271 C 0.8293 0.19409 0.70593 0.0
C272 C 0.7571 0.26381 0.69598 0.0
C273 C 0.8224 0.19957 0.74654 0.0
C274 C 0.78413 0.23726 0.76192 0.0
C275 C 0.71112 0.3062 0.75179 0.0
C276 C 0.67662 0.33672 0.72611 0.0
C277 C 0.751 0.26943 0.73688 0.0
C278 C 0.68335 0.33065 0.6855 0.0
C279 C 0.7233 0.29486 0.67063 0.0
H280 H 0.72002 0.6318 0.71007 0.0
H281 H 0.69326 0.72729 0.82274 0.0
H282 H 0.77697 0.8201 0.81844 0.0
H283 H 0.85827 0.8742 0.7824 0.0
H284 H 0.88582 0.77833 0.67012 0.0
H285 H 0.80153 0.6857 0.67416 0.0
C286 C 0.73289 0.673 0.73361 0.0
C287 C 0.70044 0.67342 0.76638 0.0
C288 C 0.78105 0.72605 0.73091 0.0
C289 C 0.71725 0.72666 0.79692 0.0
C290 C 0.7651 0.77955 0.79453 0.0
C291 C 0.84537 0.83295 0.7589 0.0
C292 C 0.87786 0.83241 0.72617 0.0
C293 C 0.79718 0.77991 0.76159 0.0
C294 C 0.86129 0.77912 0.6957 0.0
C295 C 0.81327 0.72633 0.69802 0.0
loop_
_geom_bond_atom_site_label_1
_geom_bond_atom_site_label_2
_geom_bond_distance
_geom_bond_site_symmetry_2
_ccdc_geom_bond_type
Co0 O3 1.970 1_455 S
Co0 N17 1.989 1_565 S
Co0 O25 1.967 . S
Co0 O32 1.920 . S
Co1 O4 1.966 1_545 S
Co1 N10 2.022 . S
Co1 N18 1.993 1_655 S
Co1 O26 1.941 . S
C2 O3 1.258 . S
C2 O4 1.263 . S
O3 Co0 1.970 1_655 S
O3 C2 1.258 . S
O4 Co1 1.966 1_565 S
O4 C2 1.263 . S
C5 O6 1.235 . S
C5 O32 1.289 . S
O6 C5 1.235 . S
C7 C9 1.400 . S
C7 N10 1.351 . S
C7 C12 1.501 . S
C8 C9 1.387 . S
C8 N11 1.341 . S
C9 C7 1.400 . S
C9 C8 1.387 . S
N10 Co1 2.022 . S
N10 C7 1.351 . S
N10 N11 1.365 . S
N11 C8 1.341 . S
N11 N10 1.365 . S
N11 H31 0.862 . S
C12 C7 1.501 . S
C12 H13 0.961 . S
C12 H14 0.961 . S
C12 H15 0.960 . S
H13 C12 0.961 . S
H14 C12 0.961 . S
H15 C12 0.960 . S
C16 N17 1.342 . S
C16 C20 1.401 . S
C16 C21 1.499 . S
N17 Co0 1.989 1_545 S
N17 C16 1.342 . S
N17 N18 1.388 . S
N18 Co1 1.993 1_455 S
N18 N17 1.388 . S
N18 C19 1.346 . S
C19 N18 1.346 . S
C19 C20 1.396 . S
C19 C29 1.510 . S
C20 C16 1.401 . S
C20 C19 1.396 . S
C21 C16 1.499 . S
C21 H22 0.959 1_545 S
C21 H23 0.960 . S
C21 H24 0.961 . S
H22 C21 0.959 1_565 S
H23 C21 0.960 . S
H24 C21 0.961 . S
O25 Co0 1.967 . S
O25 C33 1.258 1_565 S
O26 Co1 1.941 . S
O26 C33 1.266 1_655 S
H27 C29 0.959 . S
H28 C29 0.961 . S
C29 C19 1.510 . S
C29 H27 0.959 . S
C29 H28 0.961 . S
C29 H30 0.951 1_455 S
H30 C29 0.951 1_655 S
H31 N11 0.862 . S
O32 Co0 1.920 . S
O32 C5 1.289 . S
C33 O25 1.258 1_545 S
C33 O26 1.266 1_455 S
Co34 O37 1.970 1_565 S
Co34 N51 1.989 1_455 S
Co34 O59 1.967 . S
Co34 O66 1.920 . S
Co35 O38 1.966 1_655 S
Co35 N44 2.022 . S
Co35 N52 1.993 1_545 S
Co35 O60 1.941 . S
C36 O37 1.258 . S
C36 O38 1.263 . S
O37 Co34 1.970 1_545 S
O37 C36 1.258 . S
O38 Co35 1.966 1_455 S
O38 C36 1.263 . S
C39 O40 1.235 . S
C39 O66 1.289 . S
O40 C39 1.235 . S
C41 C43 1.400 . S
C41 N44 1.351 . S
C41 C46 1.501 . S
C42 C43 1.387 . S
C42 N45 1.341 . S
C43 C41 1.400 . S
C43 C42 1.387 . S
N44 Co35 2.022 . S
N44 C41 1.351 . S
N44 N45 1.365 . S
N45 C42 1.341 . S
N45 N44 1.365 . S
N45 H65 0.862 . S
C46 C41 1.501 . S
C46 H47 0.961 1_655 S
C46 H48 0.961 . S
C46 H49 0.960 . S
H47 C46 0.961 1_455 S
H48 C46 0.961 . S
H49 C46 0.960 . S
C50 N51 1.342 . S
C50 C54 1.401 . S
C50 C55 1.499 . S
N51 Co34 1.989 1_655 S
N51 C50 1.342 . S
N51 N52 1.388 . S
N52 Co35 1.993 1_565 S
N52 N51 1.388 . S
N52 C53 1.346 . S
C53 N52 1.346 . S
C53 C54 1.396 . S
C53 C63 1.510 . S
C54 C50 1.401 . S
C54 C53 1.396 . S
C55 C50 1.499 . S
C55 H56 0.959 1_655 S
C55 H57 0.960 . S
C55 H58 0.961 . S
H56 C55 0.959 1_455 S
H57 C55 0.960 . S
H58 C55 0.961 . S
O59 Co34 1.967 . S
O59 C67 1.258 1_565 S
O60 Co35 1.941 . S
O60 C67 1.266 1_655 S
H61 C63 0.959 . S
H62 C63 0.961 . S
C63 C53 1.510 . S
C63 H61 0.959 . S
C63 H62 0.961 . S
C63 H64 0.960 1_565 S
H64 C63 0.960 1_545 S
H65 N45 0.862 . S
O66 Co34 1.920 . S
O66 C39 1.289 . S
C67 O59 1.258 1_545 S
C67 O60 1.266 1_455 S
Co68 O71 1.970 . S
Co68 N85 1.989 . S
Co68 O93 1.967 . S
Co68 O100 1.920 . S
Co69 O72 1.966 . S
Co69 N78 2.022 . S
Co69 N86 1.993 . S
Co69 O94 1.941 . S
C70 O71 1.258 . S
C70 O72 1.263 . S
O71 Co68 1.970 . S
O71 C70 1.258 . S
O72 Co69 1.966 . S
O72 C70 1.263 . S
C73 O74 1.235 . S
C73 O100 1.289 . S
O74 C73 1.235 . S
C75 C77 1.400 . S
C75 N78 1.351 . S
C75 C80 1.501 . S
C76 C77 1.387 . S
C76 N79 1.341 . S
C77 C75 1.400 . S
C77 C76 1.387 . S
N78 Co69 2.022 . S
N78 C75 1.351 . S
N78 N79 1.365 . S
N79 C76 1.341 . S
N79 N78 1.365 . S
N79 H99 0.862 . S
C80 C75 1.501 . S
C80 H81 0.961 . S
C80 H82 0.961 . S
C80 H83 0.960 . S
H81 C80 0.961 . S
H82 C80 0.961 . S
H83 C80 0.960 . S
C84 N85 1.342 . S
C84 C88 1.401 . S
C84 C89 1.499 . S
N85 Co68 1.989 . S
N85 C84 1.342 . S
N85 N86 1.388 . S
N86 Co69 1.993 . S
N86 N85 1.388 . S
N86 C87 1.346 . S
C87 N86 1.346 . S
C87 C88 1.396 . S
C87 C97 1.510 . S
C88 C84 1.401 . S
C88 C87 1.396 . S
C89 C84 1.499 . S
C89 H90 0.959 . S
C89 H91 0.960 . S
C89 H92 0.961 . S
H90 C89 0.959 . S
H91 C89 0.960 . S
H92 C89 0.961 . S
O93 Co68 1.967 . S
O93 C101 1.258 . S
O94 Co69 1.941 . S
O94 C101 1.266 . S
H95 C97 0.959 . S
H96 C97 0.961 . S
C97 C87 1.510 . S
C97 H95 0.959 . S
C97 H96 0.961 . S
C97 H98 0.960 . S
H98 C97 0.960 . S
H99 N79 0.862 . S
O100 Co68 1.920 . S
O100 C73 1.289 . S
C101 O93 1.258 . S
C101 O94 1.266 . S
Co102 O105 1.970 . S
Co102 N119 1.989 . S
Co102 O127 1.967 . S
Co102 O134 1.920 . S
Co103 O106 1.966 . S
Co103 N112 2.022 . S
Co103 N120 1.993 . S
Co103 O128 1.941 . S
C104 O105 1.258 . S
C104 O106 1.263 . S
O105 Co102 1.970 . S
O105 C104 1.258 . S
O106 Co103 1.966 . S
O106 C104 1.263 . S
C107 O108 1.235 . S
C107 O134 1.289 . S
O108 C107 1.235 . S
C109 C111 1.400 . S
C109 N112 1.351 . S
C109 C114 1.501 . S
C110 C111 1.387 . S
C110 N113 1.341 . S
C111 C109 1.400 . S
C111 C110 1.387 . S
N112 Co103 2.022 . S
N112 C109 1.351 . S
N112 N113 1.365 . S
N113 C110 1.341 . S
N113 N112 1.365 . S
N113 H133 0.862 . S
C114 C109 1.501 . S
C114 H115 0.961 . S
C114 H116 0.961 . S
C114 H117 0.960 . S
H115 C114 0.961 . S
H116 C114 0.961 . S
H117 C114 0.960 . S
C118 N119 1.342 . S
C118 C122 1.401 . S
C118 C123 1.499 . S
N119 Co102 1.989 . S
N119 C118 1.342 . S
N119 N120 1.388 . S
N120 Co103 1.993 . S
N120 N119 1.388 . S
N120 C121 1.346 . S
C121 N120 1.346 . S
C121 C122 1.396 . S
C121 C131 1.510 . S
C122 C118 1.401 . S
C122 C121 1.396 . S
C123 C118 1.499 . S
C123 H124 0.959 . S
C123 H125 0.960 . S
C123 H126 0.961 . S
H124 C123 0.959 . S
H125 C123 0.960 . S
H126 C123 0.961 . S
O127 Co102 1.967 . S
O127 C135 1.258 . S
O128 Co103 1.941 . S
O128 C135 1.266 . S
H129 C131 0.959 . S
H130 C131 0.961 . S
C131 C121 1.510 . S
C131 H129 0.959 . S
C131 H130 0.961 . S
C131 H132 0.960 . S
H132 C131 0.960 . S
H133 N113 0.862 . S
O134 Co102 1.920 . S
O134 C107 1.289 . S
C135 O127 1.258 . S
C135 O128 1.266 . S
H136 C142 0.930 . S
H137 C145 0.930 . S
H138 C146 0.930 . S
H139 C147 0.930 . S
H140 C150 0.930 . S
H141 C151 0.930 . S
C142 H136 0.930 . S
C142 C143 1.355 1_545 S
C142 C144 1.415 . S
C143 C142 1.355 1_565 S
C143 C145 1.419 1_455 S
C144 C142 1.415 . S
C144 C149 1.425 1_445 S
C144 C151 1.409 . S
C145 H137 0.930 . S
C145 C143 1.419 1_655 S
C145 C146 1.362 . S
C146 H138 0.930 . S
C146 C145 1.362 . S
C146 C149 1.409 . S
C147 H139 0.930 . S
C147 C148 1.355 1_665 S
C147 C149 1.415 . S
C148 C147 1.355 1_445 S
C148 C150 1.419 . S
C149 C144 1.425 1_665 S
C149 C146 1.409 . S
C149 C147 1.415 . S
C150 H140 0.930 . S
C150 C148 1.419 . S
C150 C151 1.362 . S
C151 H141 0.930 . S
C151 C144 1.409 . S
C151 C150 1.362 . S
H152 C158 0.930 . S
H153 C161 0.930 . S
H154 C162 0.930 . S
H155 C163 0.930 . S
H156 C166 0.930 . S
H157 C167 0.930 . S
C158 H152 0.930 . S
C158 C159 1.355 . S
C158 C160 1.415 . S
C159 C158 1.355 . S
C159 C161 1.419 . S
C160 C158 1.415 . S
C160 C165 1.425 1_554 S
C160 C167 1.409 1_554 S
C161 H153 0.930 . S
C161 C159 1.419 . S
C161 C162 1.362 . S
C162 H154 0.930 . S
C162 C161 1.362 . S
C162 C165 1.409 1_554 S
C163 H155 0.930 . S
C163 C164 1.355 . S
C163 C165 1.415 . S
C164 C163 1.355 . S
C164 C166 1.419 . S
C165 C160 1.425 1_556 S
C165 C162 1.409 1_556 S
C165 C163 1.415 . S
C166 H156 0.930 . S
C166 C164 1.419 . S
C166 C167 1.362 . S
C167 H157 0.930 . S
C167 C160 1.409 1_556 S
C167 C166 1.362 . S
H168 C174 0.930 . S
H169 C177 0.930 . S
H170 C178 0.930 . S
H171 C179 0.930 . S
H172 C182 0.930 . S
H173 C183 0.930 . S
C174 H168 0.930 . S
C174 C175 1.355 . S
C174 C176 1.415 . S
C175 C174 1.355 . S
C175 C177 1.419 . S
C176 C174 1.415 . S
C176 C181 1.425 . S
C176 C183 1.409 . S
C177 H169 0.930 . S
C177 C175 1.419 . S
C177 C178 1.362 . S
C178 H170 0.930 . S
C178 C177 1.362 . S
C178 C181 1.409 . S
C179 H171 0.930 . S
C179 C180 1.355 . S
C179 C181 1.415 . S
C180 C179 1.355 . S
C180 C182 1.419 . S
C181 C176 1.425 . S
C181 C178 1.409 . S
C181 C179 1.415 . S
C182 H172 0.930 . S
C182 C180 1.419 . S
C182 C183 1.362 . S
C183 H173 0.930 . S
C183 C176 1.409 . S
C183 C182 1.362 . S
H184 C190 0.930 . S
H185 C193 0.930 . S
H186 C194 0.930 . S
H187 C195 0.930 . S
H188 C198 0.930 . S
H189 C199 0.930 . S
C190 H184 0.930 . S
C190 C191 1.355 . S
C190 C192 1.415 . S
C191 C190 1.355 . S
C191 C193 1.419 . S
C192 C190 1.415 . S
C192 C197 1.425 . S
C192 C199 1.409 . S
C193 H185 0.930 . S
C193 C191 1.419 . S
C193 C194 1.362 . S
C194 H186 0.930 . S
C194 C193 1.362 . S
C194 C197 1.409 . S
C195 H187 0.930 . S
C195 C196 1.355 . S
C195 C197 1.415 . S
C196 C195 1.355 . S
C196 C198 1.419 . S
C197 C192 1.425 . S
C197 C194 1.409 . S
C197 C195 1.415 . S
C198 H188 0.930 . S
C198 C196 1.419 . S
C198 C199 1.362 . S
C199 H189 0.930 . S
C199 C192 1.409 . S
C199 C198 1.362 . S
H200 C206 0.930 . S
H201 C209 0.930 . S
H202 C210 0.930 . S
H203 C211 0.930 . S
H204 C214 0.930 . S
H205 C215 0.930 . S
C206 H200 0.930 . S
C206 C207 1.355 . S
C206 C208 1.415 . S
C207 C206 1.355 . S
C207 C209 1.419 . S
C208 C206 1.415 . S
C208 C213 1.425 . S
C208 C215 1.409 . S
C209 H201 0.930 . S
C209 C207 1.419 . S
C209 C210 1.362 . S
C210 H202 0.930 . S
C210 C209 1.362 . S
C210 C213 1.409 . S
C211 H203 0.930 . S
C211 C212 1.355 . S
C211 C213 1.415 . S
C212 C211 1.355 . S
C212 C214 1.419 . S
C213 C208 1.425 . S
C213 C210 1.409 . S
C213 C211 1.415 . S
C214 H204 0.930 . S
C214 C212 1.419 . S
C214 C215 1.362 . S
C215 H205 0.930 . S
C215 C208 1.409 . S
C215 C214 1.362 . S
H216 C222 0.930 . S
H217 C225 0.930 . S
H218 C226 0.930 . S
H219 C227 0.930 . S
H220 C230 0.930 . S
H221 C231 0.930 . S
C222 H216 0.930 . S
C222 C223 1.355 . S
C222 C224 1.415 . S
C223 C222 1.355 . S
C223 C225 1.419 . S
C224 C222 1.415 . S
C224 C229 1.425 . S
C224 C231 1.409 . S
C225 H217 0.930 . S
C225 C223 1.419 . S
C225 C226 1.362 . S
C226 H218 0.930 . S
C226 C225 1.362 . S
C226 C229 1.409 . S
C227 H219 0.930 . S
C227 C228 1.355 . S
C227 C229 1.415 . S
C228 C227 1.355 . S
C228 C230 1.419 . S
C229 C224 1.425 . S
C229 C226 1.409 . S
C229 C227 1.415 . S
C230 H220 0.930 . S
C230 C228 1.419 . S
C230 C231 1.362 . S
C231 H221 0.930 . S
C231 C224 1.409 . S
C231 C230 1.362 . S
H232 C238 0.930 . S
H233 C241 0.930 . S
H234 C242 0.930 . S
H235 C243 0.930 . S
H236 C246 0.930 . S
H237 C247 0.930 . S
C238 H232 0.930 . S
C238 C239 1.355 . S
C238 C240 1.415 . S
C239 C238 1.355 . S
C239 C241 1.419 . S
C240 C238 1.415 . S
C240 C245 1.425 . S
C240 C247 1.409 . S
C241 H233 0.930 . S
C241 C239 1.419 . S
C241 C242 1.362 . S
C242 H234 0.930 . S
C242 C241 1.362 . S
C242 C245 1.409 . S
C243 H235 0.930 . S
C243 C244 1.355 . S
C243 C245 1.415 . S
C244 C243 1.355 . S
C244 C246 1.419 . S
C245 C240 1.425 . S
C245 C242 1.409 . S
C245 C243 1.415 . S
C246 H236 0.930 . S
C246 C244 1.419 . S
C246 C247 1.362 . S
C247 H237 0.930 . S
C247 C240 1.409 . S
C247 C246 1.362 . S
H248 C254 0.930 . S
H249 C257 0.930 . S
H250 C258 0.930 . S
H251 C259 0.930 . S
H252 C262 0.930 . S
H253 C263 0.930 . S
C254 H248 0.930 . S
C254 C255 1.355 . S
C254 C256 1.415 . S
C255 C254 1.355 . S
C255 C257 1.419 . S
C256 C254 1.415 . S
C256 C261 1.425 . S
C256 C263 1.409 . S
C257 H249 0.930 . S
C257 C255 1.419 . S
C257 C258 1.362 . S
C258 H250 0.930 . S
C258 C257 1.362 . S
C258 C261 1.409 . S
C259 H251 0.930 . S
C259 C260 1.355 . S
C259 C261 1.415 . S
C260 C259 1.355 . S
C260 C262 1.419 . S
C261 C256 1.425 . S
C261 C258 1.409 . S
C261 C259 1.415 . S
C262 H252 0.930 . S
C262 C260 1.419 . S
C262 C263 1.362 . S
C263 H253 0.930 . S
C263 C256 1.409 . S
C263 C262 1.362 . S
H264 C270 0.930 . S
H265 C273 0.930 . S
H266 C274 0.930 . S
H267 C275 0.930 . S
H268 C278 0.930 . S
H269 C279 0.930 . S
C270 H264 0.930 . S
C270 C271 1.355 . S
C270 C272 1.415 . S
C271 C270 1.355 . S
C271 C273 1.419 . S
C272 C270 1.415 . S
C272 C277 1.425 . S
C272 C279 1.409 . S
C273 H265 0.930 . S
C273 C271 1.419 . S
C273 C274 1.362 . S
C274 H266 0.930 . S
C274 C273 1.362 . S
C274 C277 1.409 . S
C275 H267 0.930 . S
C275 C276 1.355 . S
C275 C277 1.415 . S
C276 C275 1.355 . S
C276 C278 1.419 . S
C277 C272 1.425 . S
C277 C274 1.409 . S
C277 C275 1.415 . S
C278 H268 0.930 . S
C278 C276 1.419 . S
C278 C279 1.362 . S
C279 H269 0.930 . S
C279 C272 1.409 . S
C279 C278 1.362 . S
H280 C286 0.930 . S
H281 C289 0.930 . S
H282 C290 0.930 . S
H283 C291 0.930 . S
H284 C294 0.930 . S
H285 C295 0.930 . S
C286 H280 0.930 . S
C286 C287 1.355 . S
C286 C288 1.415 . S
C287 C286 1.355 . S
C287 C289 1.419 . S
C288 C286 1.415 . S
C288 C293 1.425 . S
C288 C295 1.409 . S
C289 H281 0.930 . S
C289 C287 1.419 . S
C289 C290 1.362 . S
C290 H282 0.930 . S
C290 C289 1.362 . S
C290 C293 1.409 . S
C291 H283 0.930 . S
C291 C292 1.355 . S
C291 C293 1.415 . S
C292 C291 1.355 . S
C292 C294 1.419 . S
C293 C288 1.425 . S
C293 C290 1.409 . S
C293 C291 1.415 . S
C294 H284 0.930 . S
C294 C292 1.419 . S
C294 C295 1.362 . S
C295 H285 0.930 . S
C295 C288 1.409 . S
C295 C294 1.362 . S
C143 C33 1.499 1_565 S
C148 C67 1.502 . S
C159 C135 1.496 . S
C164 C101 1.506 . S
C175 C20 1.286 . S
C180 C122 1.292 . S
C191 C9 1.527 . S
C196 C107 1.501 . S
C207 C104 1.595 . S
C212 C2 1.593 . S
C223 C5 1.515 . S
C228 C111 1.535 . S
C239 C77 1.512 . S
C244 C39 1.537 . S
C255 C36 1.572 . S
C260 C70 1.579 . S
C271 C43 1.540 . S
C276 C73 1.508 . S
C287 C88 1.286 . S
C292 C54 1.284 . S
