# Generated by pormake.
# Topology wkf, (6)-cn, num edge types: 1
# Building blocks:
#     Node 0, Type 0, BuildingBlock: KUMJIN_clean_sbu_1, # of connection points: 6
#     Node 1, Type 0, BuildingBlock: KUMJIN_clean_sbu_1, # of connection points: 6
#     Node 2, Type 0, BuildingBlock: KUMJIN_clean_sbu_1, # of connection points: 6
#     Node 3, Type 0, BuildingBlock: KUMJIN_clean_sbu_1, # of connection points: 6
#     Node 4, Type 0, BuildingBlock: KUMJIN_clean_sbu_1, # of connection points: 6
#     Node 5, Type 0, BuildingBlock: KUMJIN_clean_sbu_1, # of connection points: 6
#     Node 6, Type 0, BuildingBlock: KUMJIN_clean_sbu_1, # of connection points: 6
#     Node 7, Type 0, BuildingBlock: KUMJIN_clean_sbu_1, # of connection points: 6
#     Node 8, Type 0, BuildingBlock: KUMJIN_clean_sbu_1, # of connection points: 6
#     Node 9, Type 0, BuildingBlock: KUMJIN_clean_sbu_1, # of connection points: 6
#     Node 10, Type 0, BuildingBlock: KUMJIN_clean_sbu_1, # of connection points: 6
#     Node 11, Type 0, BuildingBlock: KUMJIN_clean_sbu_1, # of connection points: 6
#     Edge 12, Type (0, 0), BuildingBlock: KIFKEQ_clean_linker_1, # of connection points: 2
#     Edge 13, Type (0, 0), BuildingBlock: KIFKEQ_clean_linker_1, # of connection points: 2
#     Edge 14, Type (0, 0), BuildingBlock: KIFKEQ_clean_linker_1, # of connection points: 2
#     Edge 15, Type (0, 0), BuildingBlock: KIFKEQ_clean_linker_1, # of connection points: 2
#     Edge 16, Type (0, 0), BuildingBlock: KIFKEQ_clean_linker_1, # of connection points: 2
#     Edge 17, Type (0, 0), BuildingBlock: KIFKEQ_clean_linker_1, # of connection points: 2
#     Edge 18, Type (0, 0), BuildingBlock: KIFKEQ_clean_linker_1, # of connection points: 2
#     Edge 19, Type (0, 0), BuildingBlock: KIFKEQ_clean_linker_1, # of connection points: 2
#     Edge 20, Type (0, 0), BuildingBlock: KIFKEQ_clean_linker_1, # of connection points: 2
#     Edge 21, Type (0, 0), BuildingBlock: KIFKEQ_clean_linker_1, # of connection points: 2
#     Edge 22, Type (0, 0), BuildingBlock: KIFKEQ_clean_linker_1, # of connection points: 2
#     Edge 23, Type (0, 0), BuildingBlock: KIFKEQ_clean_linker_1, # of connection points: 2
#     Edge 24, Type (0, 0), BuildingBlock: KIFKEQ_clean_linker_1, # of connection points: 2
#     Edge 25, Type (0, 0), BuildingBlock: KIFKEQ_clean_linker_1, # of connection points: 2
#     Edge 26, Type (0, 0), BuildingBlock: KIFKEQ_clean_linker_1, # of connection points: 2
#     Edge 27, Type (0, 0), BuildingBlock: KIFKEQ_clean_linker_1, # of connection points: 2
#     Edge 28, Type (0, 0), BuildingBlock: KIFKEQ_clean_linker_1, # of connection points: 2
#     Edge 29, Type (0, 0), BuildingBlock: KIFKEQ_clean_linker_1, # of connection points: 2
#     Edge 30, Type (0, 0), BuildingBlock: KIFKEQ_clean_linker_1, # of connection points: 2
#     Edge 31, Type (0, 0), BuildingBlock: KIFKEQ_clean_linker_1, # of connection points: 2
#     Edge 32, Type (0, 0), BuildingBlock: KIFKEQ_clean_linker_1, # of connection points: 2
#     Edge 33, Type (0, 0), BuildingBlock: KIFKEQ_clean_linker_1, # of connection points: 2
#     Edge 34, Type (0, 0), BuildingBlock: KIFKEQ_clean_linker_1, # of connection points: 2
#     Edge 35, Type (0, 0), BuildingBlock: KIFKEQ_clean_linker_1, # of connection points: 2
#     Edge 36, Type (0, 0), BuildingBlock: KIFKEQ_clean_linker_1, # of connection points: 2
#     Edge 37, Type (0, 0), BuildingBlock: KIFKEQ_clean_linker_1, # of connection points: 2
#     Edge 38, Type (0, 0), BuildingBlock: KIFKEQ_clean_linker_1, # of connection points: 2
#     Edge 39, Type (0, 0), BuildingBlock: KIFKEQ_clean_linker_1, # of connection points: 2
#     Edge 40, Type (0, 0), BuildingBlock: KIFKEQ_clean_linker_1, # of connection points: 2
#     Edge 41, Type (0, 0), BuildingBlock: KIFKEQ_clean_linker_1, # of connection points: 2
#     Edge 42, Type (0, 0), BuildingBlock: KIFKEQ_clean_linker_1, # of connection points: 2
#     Edge 43, Type (0, 0), BuildingBlock: KIFKEQ_clean_linker_1, # of connection points: 2
#     Edge 44, Type (0, 0), BuildingBlock: KIFKEQ_clean_linker_1, # of connection points: 2
#     Edge 45, Type (0, 0), BuildingBlock: KIFKEQ_clean_linker_1, # of connection points: 2
#     Edge 46, Type (0, 0), BuildingBlock: KIFKEQ_clean_linker_1, # of connection points: 2
#     Edge 47, Type (0, 0), BuildingBlock: KIFKEQ_clean_linker_1, # of connection points: 2
# Relax obj value: 0.235
# Max RMSD: 0.285
# Mean RMSD: 0.277
data_MOF--net-wkf--node1-KUMJIN_clean_sbu_1--edge1-KIFKEQ_clean_linker_1
_symmetry_space_group_name_H-M    P1
_symmetry_Int_Tables_number       1
_symmetry_cell_setting            triclinic
loop_
_symmetry_equiv_pos_as_xyz
'x, y, z'
_cell_length_a     30.505396
_cell_length_b     30.505394
_cell_length_c     89.099691
_cell_angle_alpha  90.002115
_cell_angle_beta   90.037362
_cell_angle_gamma 119.44126
loop_
_atom_site_label
_atom_site_type_symbol
_atom_site_fract_x
_atom_site_fract_y
_atom_site_fract_z
_atom_type_partial_charge
Eu0 Eu 0.41716 0.94472 0.34644 0.0
C1 C 0.60025 0.945 0.3614 0.0
N2 N 0.57254 0.9397 0.37382 0.0
C3 C 0.59504 0.88076 0.38415 0.0
C4 C 0.62533 0.91681 0.35965 0.0
C5 C 0.57019 0.9088 0.38527 0.0
C6 C 0.62219 0.88424 0.37119 0.0
C7 C 0.63684 0.98876 0.33821 0.0
C8 C 0.60512 0.9801 0.35075 0.0
C9 C 0.65931 0.95866 0.33594 0.0
C10 C 0.65352 0.9227 0.34665 0.0
Eu11 Eu 0.527 0.98378 0.37472 0.0
N12 N 0.5829 1.00884 0.35332 0.0
C13 C 0.64761 1.02931 0.32879 0.0
C14 C 0.59847 0.05183 0.34499 0.0
C15 C 0.62975 0.06194 0.33251 0.0
H16 H 0.54756 0.90428 0.39508 0.0
H17 H 0.64051 0.09538 0.32585 0.0
H18 H 0.52598 0.96207 0.32855 0.0
H19 H 0.31341 0.04562 0.33677 0.0
H20 H 0.58939 0.08035 0.34785 0.0
H21 H 0.67199 0.03741 0.31914 0.0
H22 H 0.34074 0.99389 0.3512 0.0
H23 H 0.59239 0.85574 0.39315 0.0
H24 H 0.68296 0.96434 0.32625 0.0
H25 H 0.67234 0.90081 0.34499 0.0
H26 H 0.56874 0.99677 0.30485 0.0
H27 H 0.64092 0.86201 0.37025 0.0
H28 H 0.34998 0.07833 0.31176 0.0
N29 N 0.47155 0.98628 0.32573 0.0
C30 C 0.45509 1.01122 0.31652 0.0
C31 C 0.53697 1.00129 0.30806 0.0
C32 C 0.47988 0.03276 0.30288 0.0
C33 C 0.51206 0.98131 0.32161 0.0
C34 C 0.52091 1.02711 0.29867 0.0
N35 N 0.39213 0.99776 0.33447 0.0
C36 C 0.35738 1.0088 0.34038 0.0
C37 C 0.39947 0.04625 0.31237 0.0
C38 C 0.41433 1.01702 0.32101 0.0
C39 C 0.3622 0.05585 0.31805 0.0
C40 C 0.34161 0.03766 0.3322 0.0
H41 H 0.54069 0.04282 0.28824 0.0
H42 H 0.48187 0.07613 0.28337 0.0
H43 H 0.41222 0.0887 0.29181 0.0
O44 O 0.34064 0.91314 0.33656 0.0
O45 O 0.39923 0.9751 0.36828 0.0
O46 O 0.47553 1.01387 0.38133 0.0
O47 O 0.38038 0.8728 0.33423 0.0
O48 O 0.3868 0.90196 0.36899 0.0
O49 O 0.45474 0.92107 0.38485 0.0
O50 O 0.59393 0.03869 0.38709 0.0
O51 O 0.49108 0.90089 0.36699 0.0
O52 O 0.46378 0.90289 0.34335 0.0
O53 O 0.53398 0.97696 0.39876 0.0
O54 O 0.52775 0.05626 0.36567 0.0
O55 O 0.46817 0.03246 0.34676 0.0
C56 C 0.42918 1.0047 0.37919 0.0
C57 C 0.3316 0.87079 0.3131 0.0
C58 C 0.27737 0.8358 0.29057 0.0
C59 C 0.3201 0.86376 0.2816 0.0
C60 C 0.37313 0.89542 0.30348 0.0
C61 C 0.36732 0.89301 0.28798 0.0
C62 C 0.283 0.84023 0.30653 0.0
C63 C 0.40606 0.89623 0.3818 0.0
C64 C 0.34146 0.87602 0.32975 0.0
C65 C 0.46334 0.05962 0.2939 0.0
C66 C 0.42348 0.06659 0.29866 0.0
C67 C 0.48148 0.88289 0.35321 0.0
C68 C 0.57013 0.0552 0.41091 0.0
C69 C 0.6074 0.13856 0.42232 0.0
C70 C 0.56424 0.12257 0.43125 0.0
C71 C 0.52721 0.03976 0.42 0.0
C72 C 0.6094 0.10477 0.41197 0.0
C73 C 0.52435 0.07344 0.43002 0.0
C74 C 0.50496 0.06809 0.35489 0.0
C75 C 0.57388 1.02045 0.40009 0.0
H76 H 0.31715 0.86168 0.26946 0.0
H77 H 0.41073 0.91576 0.30792 0.0
H78 H 0.39998 0.91296 0.28084 0.0
H79 H 0.25061 0.81901 0.31367 0.0
H80 H 0.56182 0.14743 0.43948 0.0
H81 H 0.49576 1.00178 0.41938 0.0
H82 H 0.64179 0.11691 0.40469 0.0
H83 H 0.4914 0.06122 0.43703 0.0
Eu84 Eu 0.50583 0.40064 0.51342 0.0
C85 C 0.68394 0.58727 0.53171 0.0
N86 N 0.66006 0.55611 0.54337 0.0
C87 C 0.73947 0.57786 0.55484 0.0
C88 C 0.73709 0.61409 0.53099 0.0
C89 C 0.68688 0.55144 0.55497 0.0
C90 C 0.76473 0.60889 0.54271 0.0
C91 C 0.6797 0.62824 0.50898 0.0
C92 C 0.65525 0.59357 0.52077 0.0
C93 C 0.73239 0.65299 0.50779 0.0
C94 C 0.76102 0.64591 0.51878 0.0
Eu95 Eu 0.57115 0.50947 0.54273 0.0
N96 N 0.60407 0.56911 0.52226 0.0
C97 C 0.65088 0.63916 0.49912 0.0
C98 C 0.5769 0.58397 0.51339 0.0
C99 C 0.59951 0.61808 0.50162 0.0
H100 H 0.66783 0.5258 0.5641 0.0
H101 H 0.57714 0.62833 0.49453 0.0
H102 H 0.59844 0.51356 0.49788 0.0
H103 H 0.30506 0.29972 0.50033 0.0
H104 H 0.53802 0.57162 0.51515 0.0
H105 H 0.66822 0.66568 0.49 0.0
H106 H 0.38064 0.3249 0.51611 0.0
H107 H 0.76046 0.57346 0.56396 0.0
H108 H 0.75147 0.67909 0.4987 0.0
H109 H 0.80172 0.66629 0.51794 0.0
H110 H 0.61038 0.55983 0.47461 0.0
H111 H 0.80552 0.6289 0.54255 0.0
H112 H 0.31346 0.33943 0.47552 0.0
N113 N 0.52183 0.4587 0.49339 0.0
C114 C 0.48262 0.44364 0.48349 0.0
C115 C 0.57424 0.52728 0.477 0.0
C116 C 0.48811 0.47051 0.47007 0.0
C117 C 0.56711 0.50026 0.49029 0.0
C118 C 0.53472 0.51238 0.46685 0.0
N119 N 0.43064 0.37808 0.50029 0.0
C120 C 0.38427 0.34287 0.50537 0.0
C121 C 0.39395 0.38859 0.47762 0.0
C122 C 0.43596 0.40217 0.487 0.0
C123 C 0.34662 0.3507 0.48239 0.0
C124 C 0.34165 0.32834 0.49643 0.0
H125 H 0.54047 0.53377 0.45663 0.0
H126 H 0.45074 0.47532 0.44994 0.0
H127 H 0.36824 0.40432 0.45669 0.0
O128 O 0.46275 0.32509 0.50283 0.0
O129 O 0.45562 0.38013 0.53483 0.0
O130 O 0.49009 0.45526 0.54847 0.0
O131 O 0.54226 0.36405 0.50145 0.0
O132 O 0.51802 0.36968 0.53596 0.0
O133 O 0.56307 0.43679 0.55236 0.0
O134 O 0.57509 0.57291 0.55566 0.0
O135 O 0.62199 0.47749 0.5346 0.0
O136 O 0.5936 0.44704 0.51104 0.0
O137 O 0.58411 0.51567 0.56678 0.0
O138 O 0.50049 0.51002 0.5328 0.0
O139 O 0.46638 0.44998 0.51396 0.0
C140 C 0.4541 0.40901 0.54586 0.0
C141 C 0.49898 0.3182 0.47961 0.0
C142 C 0.48317 0.2669 0.45644 0.0
C143 C 0.49941 0.31125 0.44801 0.0
C144 C 0.51751 0.36117 0.47049 0.0
C145 C 0.51655 0.35762 0.45495 0.0
C146 C 0.48168 0.27034 0.47246 0.0
C147 C 0.54144 0.38844 0.54897 0.0
C148 C 0.5012 0.32602 0.49636 0.0
C149 C 0.44694 0.4552 0.46032 0.0
C150 C 0.39998 0.41458 0.46411 0.0
C151 C 0.63092 0.46719 0.52092 0.0
C152 C 0.5363 0.54477 0.57953 0.0
C153 C 0.49106 0.57759 0.59406 0.0
C154 C 0.46168 0.53007 0.6006 0.0
C155 C 0.50635 0.49724 0.58621 0.0
C156 C 0.52818 0.58457 0.58347 0.0
C157 C 0.46955 0.49022 0.59672 0.0
C158 C 0.46668 0.48694 0.52194 0.0
C159 C 0.57583 0.55299 0.5685 0.0
H160 H 0.49986 0.31027 0.43585 0.0
H161 H 0.53399 0.39816 0.4754 0.0
H162 H 0.53026 0.39137 0.44821 0.0
H163 H 0.46898 0.2368 0.47924 0.0
H164 H 0.43346 0.52404 0.60895 0.0
H165 H 0.51134 0.46543 0.5834 0.0
H166 H 0.55076 0.62102 0.57823 0.0
H167 H 0.44737 0.45391 0.602 0.0
Eu168 Eu 0.12816 0.48433 0.67949 0.0
C169 C 0.09686 0.65964 0.70184 0.0
N170 N 0.11311 0.63642 0.7115 0.0
C171 C 0.16266 0.7139 0.72481 0.0
C172 C 0.1135 0.71164 0.70327 0.0
C173 C 0.14547 0.66253 0.72291 0.0
C174 C 0.14675 0.73864 0.71491 0.0
C175 C 1.04591 0.6553 0.68046 0.0
C176 C 0.06371 0.63152 0.6905 0.0
C177 C 0.06263 0.707 0.68181 0.0
C178 C 0.09642 0.73511 0.69315 0.0
Eu179 Eu 0.0819 0.5494 0.70844 0.0
N180 N 0.04865 0.58139 0.68931 0.0
C181 C 1.01137 0.62655 0.66939 0.0
C182 C 1.01472 0.55369 0.67831 0.0
C183 C 0.99552 0.57553 0.66839 0.0
H184 H 0.15914 0.64401 0.73038 0.0
H185 H 0.96927 0.55298 0.6597 0.0
H186 H 0.12177 0.59165 0.66863 0.0
H187 H 1.01978 0.2932 0.65748 0.0
H188 H 1.00332 0.51524 0.67621 0.0
H189 H 0.99684 0.64339 0.66153 0.0
H190 H 0.07206 0.3585 0.67607 0.0
H191 H 0.18859 0.73446 0.73379 0.0
H192 H 0.04942 0.72559 0.67414 0.0
H193 H 0.10887 0.77496 0.69407 0.0
H194 H 0.09356 0.61896 0.64701 0.0
H195 H 0.16034 0.77856 0.71634 0.0
H196 H 0.9896 0.31673 0.63474 0.0
N197 N 0.0917 0.51545 0.66145 0.0
C198 C 0.06354 0.48131 0.65059 0.0
C199 C 0.08513 0.58018 0.64782 0.0
C200 C 1.04496 0.49571 0.63808 0.0
C201 C 0.10216 0.56433 0.66012 0.0
C202 C 0.05629 0.54578 0.63679 0.0
N203 N 0.07175 0.41809 0.66378 0.0
C204 C 0.05879 0.36889 0.66616 0.0
C205 C 1.024 0.39555 0.64082 0.0
C206 C 0.0538 0.43163 0.65171 0.0
C207 C 1.01247 0.34546 0.64284 0.0
C208 C 1.02935 0.33198 0.65568 0.0
H209 H 1.04287 0.55826 0.62734 0.0
H210 H 1.00192 0.47069 0.61744 0.0
H211 H 0.98299 0.38299 0.61998 0.0
O212 O 0.15793 0.43605 0.67032 0.0
O213 O 0.09926 0.43403 0.70096 0.0
O214 O 0.05842 0.46914 0.71446 0.0
O215 O 0.19701 0.5141 0.66589 0.0
O216 O 0.16914 0.49551 0.70215 0.0
O217 O 0.15371 0.55058 0.71636 0.0
O218 O 1.02397 0.55141 0.72272 0.0
O219 O 0.15765 0.60847 0.6982 0.0
O220 O 0.18128 0.57215 0.67935 0.0
O221 O 0.09072 0.55689 0.73261 0.0
O222 O 1.01202 0.47969 0.69822 0.0
O223 O 1.03961 0.44055 0.68124 0.0
C224 C 0.06919 0.43306 0.71204 0.0
C225 C 0.19707 0.4625 0.64593 0.0
C226 C 0.23414 0.44423 0.6235 0.0
C227 C 0.20171 0.45336 0.61447 0.0
C228 C 0.16836 0.47423 0.63613 0.0
C229 C 0.16948 0.46836 0.6207 0.0
C230 C 0.23095 0.4477 0.63948 0.0
C231 C 0.17747 0.52481 0.71406 0.0
C232 C 0.19377 0.47125 0.66249 0.0
C233 C 1.01628 0.46004 0.62708 0.0
C234 C 1.00571 0.41014 0.62847 0.0
C235 C 0.18887 0.6123 0.68734 0.0
C236 C 1.01601 0.51135 0.74632 0.0
C237 C 0.9418 0.47075 0.76236 0.0
C238 C 0.95968 0.44013 0.7685 0.0
C239 C 1.03354 0.48051 0.75269 0.0
C240 C 0.97005 0.50601 0.75118 0.0
C241 C 1.00553 0.44538 0.76374 0.0
C242 C 1.00245 0.44292 0.68844 0.0
C243 C 0.04612 0.55036 0.7351 0.0
H244 H 0.20253 0.45048 0.60235 0.0
H245 H 0.14617 0.48995 0.64037 0.0
H246 H 0.14627 0.4771 0.61347 0.0
H247 H 0.25565 0.44103 0.64669 0.0
H248 H 0.93894 0.41316 0.77724 0.0
H249 H 0.06911 0.4838 0.74929 0.0
H250 H 0.95641 0.52959 0.74627 0.0
H251 H 1.01974 0.42263 0.76882 0.0
Eu252 Eu 0.67973 0.11949 0.84644 0.0
C253 C 0.47815 0.10347 0.86271 0.0
N254 N 0.50953 0.11221 0.87447 0.0
C255 C 0.47485 0.15779 0.88714 0.0
C256 C 0.443 0.12097 0.86284 0.0
C257 C 0.50904 0.13984 0.88649 0.0
C258 C 0.44136 0.14796 0.87531 0.0
C259 C 0.45149 0.07094 0.83761 0.0
C260 C 0.48281 0.0791 0.85024 0.0
C261 C 0.4154 0.08681 0.83789 0.0
C262 C 0.41129 0.11193 0.85046 0.0
Eu263 Eu 0.56438 0.07805 0.87337 0.0
N264 N 0.51915 0.06539 0.85015 0.0
C265 C 0.45785 0.04788 0.82492 0.0
C266 C 0.5267 0.04529 0.83737 0.0
C267 C 0.49583 0.03527 0.82479 0.0
H268 H 0.53577 0.14929 0.89553 0.0
H269 H 0.5021 1.01865 0.81486 0.0
H270 H 0.60602 0.14074 0.82083 0.0
H271 H 0.75057 0.98643 0.84315 0.0
H272 H 0.55709 0.03796 0.83638 0.0
H273 H 0.43452 0.0408 0.81505 0.0
H274 H 0.73213 0.04785 0.8555 0.0
H275 H 0.4747 0.17961 0.8967 0.0
H276 H 0.3911 0.08063 0.82832 0.0
H277 H 0.38394 0.12484 0.85041 0.0
H278 H 0.5761 0.11624 0.79532 0.0
H279 H 0.41507 0.16217 0.87579 0.0
H280 H 0.72562 0.96227 0.81674 0.0
N281 N 0.63983 0.09375 0.82256 0.0
C282 C 0.65149 0.06192 0.81492 0.0
C283 C 0.59703 0.10049 0.80073 0.0
C284 C 0.63501 0.04745 0.79999 0.0
C285 C 0.61417 0.11412 0.81545 0.0
C286 C 0.60723 0.06689 0.793 0.0
N287 N 0.6943 0.05614 0.83651 0.0
C288 C 0.71948 0.03633 0.84413 0.0
C289 C 0.69107 1.00923 0.81441 0.0
C290 C 0.67994 0.04328 0.82197 0.0
C291 C 0.71676 0.98876 0.82216 0.0
C292 C 0.7306 1.00201 0.83711 0.0
H293 H 0.59393 0.05661 0.78157 0.0
H294 H 0.6346 1.00307 0.78094 0.0
H295 H 0.68312 0.9693 0.7936 0.0
O296 O 0.76238 0.15492 0.84518 0.0
O297 O 0.6929 0.08933 0.86907 0.0
O298 O 0.61318 0.0446 0.8797 0.0
O299 O 0.7248 0.17448 0.82868 0.0
O300 O 0.70379 0.1697 0.86765 0.0
O301 O 0.63647 0.13802 0.88435 0.0
O302 O 0.499 1.01823 0.88528 0.0
O303 O 0.59559 0.16008 0.86651 0.0
O304 O 0.63687 0.16659 0.84431 0.0
O305 O 0.5549 0.08264 0.89728 0.0
O306 O 0.55612 1.0051 0.86253 0.0
O307 O 0.62653 1.03056 0.84736 0.0
C308 C 0.66062 0.05645 0.87891 0.0
C309 C 0.80105 0.1756 0.82064 0.0
C310 C 0.85996 0.2087 0.79881 0.0
C311 C 0.86335 0.16436 0.79923 0.0
C312 C 0.80897 0.13402 0.82084 0.0
C313 C 0.83849 0.12786 0.81012 0.0
C314 C 0.82717 0.21361 0.80942 0.0
C315 C 0.68397 0.16927 0.88096 0.0
C316 C 0.76778 0.17917 0.83268 0.0
C317 C 0.64698 1.01438 0.79239 0.0
C318 C 0.67484 0.99532 0.79957 0.0
C319 C 0.6119 0.18173 0.85338 0.0
C320 C 0.52452 1.00515 0.90939 0.0
C321 C 0.49008 0.92725 0.92378 0.0
C322 C 0.53704 0.94427 0.93073 0.0
C323 C 0.57138 1.02158 0.9165 0.0
C324 C 0.48432 0.9578 0.91299 0.0
C325 C 0.57733 0.99131 0.92712 0.0
C326 C 0.58415 0.99407 0.85352 0.0
C327 C 0.51737 0.03739 0.8984 0.0
H328 H 0.88628 0.15809 0.79117 0.0
H329 H 0.79308 0.10618 0.82952 0.0
H330 H 0.84297 0.09479 0.81043 0.0
H331 H 0.82334 0.24706 0.80928 0.0
H332 H 0.5423 0.92188 0.93923 0.0
H333 H 0.6035 0.05794 0.91397 0.0
H334 H 0.44849 0.94488 0.90739 0.0
H335 H 0.61309 1.00465 0.93274 0.0
Eu336 Eu 0.59012 0.66824 0.01291 0.0
C337 C 0.40004 0.4838 0.02443 0.0
N338 N 0.42316 0.50819 0.03723 0.0
C339 C 0.34324 0.48216 0.04891 0.0
C340 C 0.34696 0.45789 0.02335 0.0
C341 C 0.3958 0.50754 0.04945 0.0
C342 C 0.31868 0.45737 0.03578 0.0
C343 C 0.40561 0.45867 0.99905 0.0
C344 C 0.42943 0.48506 0.01236 0.0
C345 C 0.35291 0.4335 0.99788 0.0
C346 C 0.32368 0.43333 1.00996 0.0
Eu347 Eu 0.51181 0.55028 0.03768 0.0
N348 N 0.48073 0.51099 0.01364 0.0
C349 C 0.43524 0.45731 0.98735 0.0
C350 C 0.50929 0.50887 1.00212 0.0
C351 C 0.48718 0.48174 0.98902 0.0
H352 H 0.41455 0.52778 0.05953 0.0
H353 H 0.51056 0.48085 0.98002 0.0
H354 H 0.49261 0.58783 0.98874 0.0
H355 H 0.79236 0.74423 1.0066 0.0
H356 H 0.54922 0.52873 1.00235 0.0
H357 H 0.41839 0.43715 0.97704 0.0
H358 H 0.714 0.72331 0.02019 0.0
H359 H 0.32174 0.48222 0.05856 0.0
H360 H 0.33433 0.41359 0.98769 0.0
H361 H 0.28304 0.41357 1.00891 0.0
H362 H 0.48483 0.5589 0.96312 0.0
H363 H 0.27792 0.43806 0.03534 0.0
H364 H 0.78866 0.71869 0.9801 0.0
N365 N 0.57338 0.62606 0.98924 0.0
C366 C 0.61568 0.63885 0.9809 0.0
C367 C 0.52187 0.58131 0.96799 0.0
C368 C 0.61211 0.62201 0.96593 0.0
C369 C 0.52687 0.59845 0.98277 0.0
C370 C 0.56453 0.59284 0.95957 0.0
N371 N 0.66636 0.68417 1.00175 0.0
C372 C 0.71186 0.71049 1.00878 0.0
C373 C 0.70724 0.68118 0.979 0.0
C374 C 0.66317 0.66894 0.98725 0.0
C375 C 0.75407 0.70878 0.98606 0.0
C376 C 0.75634 0.72299 1.00106 0.0
H377 H 0.56033 0.57931 0.94812 0.0
H378 H 0.65367 0.62239 0.94616 0.0
H379 H 0.73677 0.6736 0.95766 0.0
O380 O 0.63514 0.75097 0.01316 0.0
O381 O 0.6356 0.67473 0.03484 0.0
O382 O 0.59061 0.59602 0.04605 0.0
O383 O 0.58325 0.71607 0.9953 0.0
O384 O 0.5655 0.69059 0.0348 0.0
O385 O 0.52741 0.62129 0.05081 0.0
O386 O 0.49249 0.47524 0.04591 0.0
O387 O 0.46775 0.59106 0.03253 0.0
O388 O 0.50153 0.63 0.01023 0.0
O389 O 0.497 0.53128 0.06136 0.0
O390 O 0.57921 0.54357 0.02775 0.0
O391 O 0.62625 0.61518 0.01333 0.0
C392 C 0.63077 0.64054 0.04503 0.0
C393 C 0.65756 0.79481 0.98938 0.0
C394 C 0.68414 0.85411 0.96762 0.0
C395 C 0.73346 0.86259 0.96976 0.0
C396 C 0.70833 0.80862 0.99151 0.0
C397 C 0.74534 0.84069 0.9816 0.0
C398 C 0.64548 0.81835 0.97731 0.0
C399 C 0.54609 0.66995 0.048 0.0
C400 C 0.61906 0.75841 1.00039 0.0
C401 C 0.65598 0.63506 0.95764 0.0
C402 C 0.70333 0.66444 0.96416 0.0
C403 C 0.4621 0.60726 0.01942 0.0
C404 C 0.52798 0.47928 0.07004 0.0
C405 C 0.58158 0.44208 0.07503 0.0
C406 C 0.59048 0.46276 0.0896 0.0
C407 C 0.53709 0.499 0.08467 0.0
C408 C 0.5515 0.45216 0.06518 0.0
C409 C 0.56882 0.49144 0.09427 0.0
C410 C 0.61951 0.5721 0.01932 0.0
C411 C 0.49453 0.4879 0.05994 0.0
H412 H 0.76373 0.88733 0.96236 0.0
H413 H 0.72006 0.79536 1.00106 0.0
H414 H 0.78397 0.84947 0.9833 0.0
H415 H 0.60698 0.81022 0.97581 0.0
H416 H 0.61243 0.45525 0.09769 0.0
H417 H 0.51969 0.52035 0.08868 0.0
H418 H 0.54567 0.43823 0.05377 0.0
H419 H 0.57557 0.50672 0.10553 0.0
Eu420 Eu 0.96041 0.58358 0.18011 0.0
C421 C 1.00222 0.41055 0.19261 0.0
N422 N 0.98921 0.42692 0.20505 0.0
C423 C 0.96313 0.3474 0.21708 0.0
C424 C 0.99753 0.36217 0.19205 0.0
C425 C 0.96828 0.39554 0.21706 0.0
C426 C 0.97858 0.33089 0.20461 0.0
C427 C 1.02554 0.42303 0.16641 0.0
C428 C 1.01609 0.44062 0.18004 0.0
C429 C 1.0241 0.37632 0.16601 0.0
C430 C 1.01004 0.34587 0.17881 0.0
Eu431 Eu 1.00521 0.51131 0.2053 0.0
N432 N 1.0154 0.48475 0.18077 0.0
C433 C 1.03353 0.45163 0.15343 0.0
C434 C 1.01854 0.50994 0.16782 0.0
C435 C 1.02873 0.49467 0.15408 0.0
H436 H 0.95528 0.40728 0.22669 0.0
H437 H 1.03176 0.51547 0.14393 0.0
H438 H 1.03035 0.59402 0.14881 0.0
H439 H 0.91551 0.72127 0.20441 0.0
H440 H 1.01098 0.54047 0.16793 0.0
H441 H 1.0407 0.43941 0.14274 0.0
H442 H 0.90587 0.63679 0.20068 0.0
H443 H 0.94706 0.32299 0.2267 0.0
H444 H 1.03182 0.36254 0.15569 0.0
H445 H 1.00725 0.3091 0.17822 0.0
H446 H 0.08738 0.66073 0.13155 0.0
H447 H 0.97425 0.29344 0.2046 0.0
H448 H 0.97787 0.79324 0.18947 0.0
N449 N 1.01823 0.64348 0.16288 0.0
C450 C 1.02486 0.69086 0.16457 0.0
C451 C 0.07056 0.66981 0.14088 0.0
C452 C 0.05725 0.73012 0.15486 0.0
C453 C 1.03831 0.63208 0.15072 0.0
C454 C 0.08073 0.71917 0.1431 0.0
N455 N 0.96323 0.66115 0.18406 0.0
C456 C 0.93345 0.66807 0.19416 0.0
C457 C 1.00349 0.74871 0.17722 0.0
C458 C 0.99746 0.7 0.17555 0.0
C459 C 0.97414 0.75634 0.18786 0.0
C460 C 0.93878 0.7158 0.19629 0.0
H461 H 0.10571 0.74832 0.13542 0.0
H462 H 0.08944 0.80937 0.14961 0.0
H463 H 1.04294 0.82572 0.16925 0.0
O464 O 0.90648 0.60163 0.16869 0.0
O465 O 0.98737 0.62143 0.20354 0.0
O466 O 1.04269 0.59394 0.21028 0.0
O467 O 0.91848 0.54226 0.16023 0.0
O468 O 0.90725 0.55489 0.20045 0.0
O469 O 0.9419 0.51981 0.21646 0.0
O470 O 0.06436 0.50714 0.21837 0.0
O471 O 0.92372 0.4593 0.19908 0.0
O472 O 0.92218 0.49428 0.17651 0.0
O473 O 0.99704 0.49754 0.22922 0.0
O474 O 0.07718 0.57306 0.19318 0.0
O475 O 0.04922 0.61853 0.17906 0.0
C476 C 1.02533 0.62522 0.21176 0.0
C477 C 0.89887 0.58767 0.1418 0.0
C478 C 0.86782 0.6192 0.12087 0.0
C479 C 0.9053 0.61942 0.11166 0.0
C480 C 0.93338 0.58591 0.13171 0.0
C481 C 0.93729 0.60261 0.11699 0.0
C482 C 0.86481 0.60334 0.13614 0.0
C483 C 0.90867 0.53467 0.21349 0.0
C484 C 0.89728 0.56995 0.15772 0.0
C485 C 0.06425 0.77878 0.15686 0.0
C486 C 1.03768 0.78809 0.16804 0.0
C487 C 0.90419 0.45414 0.18565 0.0
C488 C 0.07209 0.54193 0.24284 0.0
C489 C 0.14549 0.57917 0.25923 0.0
C490 C 0.12725 0.60833 0.26617 0.0
C491 C 0.05448 0.57178 0.24984 0.0
C492 C 0.11773 0.54622 0.24752 0.0
C493 C 0.08192 0.60455 0.26146 0.0
C494 C 0.08666 0.61143 0.18405 0.0
C495 C 1.04237 0.505 0.23111 0.0
H496 H 0.90857 0.63072 0.1 0.0
H497 H 0.95708 0.57054 0.13504 0.0
H498 H 0.96468 0.60143 0.10953 0.0
H499 H 0.83623 0.60286 0.14344 0.0
H500 H 0.14758 0.63335 0.27537 0.0
H501 H 1.0193 0.56952 0.24648 0.0
H502 H 0.13158 0.5237 0.24201 0.0
H503 H 0.06775 0.62668 0.26696 0.0
Eu504 Eu 0.13336 0.6609 0.50329 0.0
C505 C 0.13348 0.47763 0.48808 0.0
N506 N 0.1379 0.50543 0.47576 0.0
C507 C 0.19604 0.48311 0.46479 0.0
C508 C 0.1618 0.45257 0.48946 0.0
C509 C 0.16788 0.50793 0.46404 0.0
C510 C 0.19351 0.45583 0.47765 0.0
C511 C 0.09171 0.44123 0.51153 0.0
C512 C 0.09923 0.47278 0.49903 0.0
C513 C 0.12195 0.41872 0.51342 0.0
C514 C 0.15697 0.42441 0.5024 0.0
Eu515 Eu 0.09389 0.55085 0.4754 0.0
N516 N 0.07031 0.49501 0.49681 0.0
C517 C 0.05215 0.43075 0.52133 0.0
C518 C 1.02823 0.47979 0.50555 0.0
C519 C 1.01929 0.44871 0.51803 0.0
H520 H 0.17131 0.53046 0.4543 0.0
H521 H 0.9866 0.43823 0.52501 0.0
H522 H 0.11535 0.55223 0.52156 0.0
H523 H 1.03417 0.76633 0.51284 0.0
H524 H 0.99969 0.48923 0.5031 0.0
H525 H 1.04494 0.40654 0.53099 0.0
H526 H 0.08394 0.73703 0.49823 0.0
H527 H 0.22034 0.4858 0.45558 0.0
H528 H 0.11713 0.39518 0.52308 0.0
H529 H 0.17899 0.40561 0.50377 0.0
H530 H 0.08248 0.51158 0.54563 0.0
H531 H 0.21581 0.4371 0.47829 0.0
H532 H 1.00433 0.73264 0.53831 0.0
N533 N 0.09318 0.60821 0.5244 0.0
C534 C 0.06987 0.62613 0.53372 0.0
C535 C 0.07856 0.54367 0.54238 0.0
C536 C 0.04954 0.6027 0.54762 0.0
C537 C 0.09745 0.56734 0.5286 0.0
C538 C 0.05466 0.56142 0.55194 0.0
N539 N 0.08164 0.68734 0.51531 0.0
C540 C 0.07017 0.72159 0.50925 0.0
C541 C 1.03588 0.68269 0.53778 0.0
C542 C 0.06387 0.66662 0.52903 0.0
C543 C 1.02589 0.71953 0.53194 0.0
C544 C 1.04246 0.73848 0.51753 0.0
H545 H 1.0398 0.54262 0.56256 0.0
H546 H 1.00862 0.60314 0.56744 0.0
H547 H 0.99596 0.67248 0.55872 0.0
O548 O 0.16512 0.73694 0.51352 0.0
O549 O 0.10222 0.67755 0.48125 0.0
O550 O 0.06079 0.59979 0.46906 0.0
O551 O 0.20696 0.69837 0.51457 0.0
O552 O 0.17452 0.69131 0.48056 0.0
O553 O 0.15751 0.62272 0.46528 0.0
O554 O 1.04256 0.48247 0.46307 0.0
O555 O 0.17693 0.58729 0.48286 0.0
O556 O 0.17432 0.61348 0.50653 0.0
O557 O 0.09823 0.54689 0.45112 0.0
O558 O 1.02136 0.54929 0.48491 0.0
O559 O 1.04576 0.60999 0.50352 0.0
C560 C 0.07124 0.64668 0.47068 0.0
C561 C 0.20985 0.74475 0.53644 0.0
C562 C 0.24048 0.79816 0.55931 0.0
C563 C 0.21755 0.7541 0.56802 0.0
C564 C 0.18939 0.70219 0.54579 0.0
C565 C 0.19263 0.70683 0.56133 0.0
C566 C 0.23653 0.79336 0.54331 0.0
C567 C 0.18117 0.67165 0.46799 0.0
C568 C 0.20322 0.73632 0.51973 0.0
C569 C 1.02411 0.62058 0.55671 0.0
C570 C 1.01707 0.66024 0.55178 0.0
C571 C 0.19452 0.59607 0.49667 0.0
C572 C 1.01902 0.50283 0.43968 0.0
C573 C 0.93125 0.46366 0.4316 0.0
C574 C 0.94589 0.49759 0.41947 0.0
C575 C 1.03287 0.53617 0.42745 0.0
C576 C 0.9681 0.46846 0.44199 0.0
C577 C 0.99629 0.53412 0.41761 0.0
C578 C 1.00985 0.57252 0.49567 0.0
C579 C 0.05746 0.50394 0.45002 0.0
H580 H 0.21994 0.75618 0.58016 0.0
H581 H 0.17119 0.66479 0.54107 0.0
H582 H 0.17611 0.67337 0.56826 0.0
H583 H 0.25366 0.82679 0.53637 0.0
H584 H 0.91902 0.49503 0.4111 0.0
H585 H 0.07192 0.56377 0.42547 0.0
H586 H 0.95741 0.44458 0.45182 0.0
H587 H 1.00724 0.55993 0.40823 0.0
Eu588 Eu 0.50028 0.112 0.67003 0.0
C589 C 0.68311 0.10822 0.65546 0.0
N590 N 0.66013 0.11333 0.64312 0.0
C591 C 0.74006 0.16912 0.63198 0.0
C592 C 0.7361 0.13514 0.65676 0.0
C593 C 0.68751 0.14229 0.63129 0.0
C594 C 0.76448 0.1661 0.64487 0.0
C595 C 0.67754 0.06622 0.67896 0.0
C596 C 0.65373 0.07455 0.66651 0.0
C597 C 0.72996 0.09504 0.68072 0.0
C598 C 0.75918 0.12951 0.66965 0.0
Eu599 Eu 0.57163 0.07019 0.64263 0.0
N600 N 0.60277 0.04711 0.66449 0.0
C601 C 0.64853 1.02728 0.68888 0.0
C602 C 0.57555 1.00617 0.67358 0.0
C603 C 0.5977 0.99619 0.68589 0.0
H604 H 0.66862 0.14585 0.62149 0.0
H605 H 0.57529 0.96434 0.69311 0.0
H606 H 0.59446 0.09888 0.68843 0.0
H607 H 0.29797 1.01117 0.68046 0.0
H608 H 0.53694 0.97961 0.6717 0.0
H609 H 0.66542 1.01943 0.69848 0.0
H610 H 0.37557 0.06268 0.66575 0.0
H611 H 0.76163 0.19269 0.62269 0.0
H612 H 0.74848 0.08956 0.69035 0.0
H613 H 0.79973 0.15042 0.67095 0.0
H614 H 0.60392 0.06541 0.71217 0.0
H615 H 0.8052 0.18731 0.64546 0.0
H616 H 0.30338 0.97796 0.7053 0.0
N617 N 0.51529 0.07127 0.69077 0.0
C618 C 0.47431 0.04503 0.69989 0.0
C619 C 0.5672 0.05915 0.70879 0.0
C620 C 0.47855 1.02405 0.71359 0.0
C621 C 0.56138 0.07854 0.69518 0.0
C622 C 0.52569 0.03159 0.71797 0.0
N623 N 0.42377 0.05845 0.68222 0.0
C624 C 0.37795 0.04771 0.67654 0.0
C625 C 0.38432 1.00962 0.70433 0.0
C626 C 0.42757 0.03887 0.69556 0.0
C627 C 0.33742 1.00039 0.6989 0.0
C628 C 0.33416 1.01891 0.68485 0.0
H629 H 0.53051 1.01642 0.72845 0.0
H630 H 0.43865 0.98045 0.73314 0.0
H631 H 0.35612 0.96696 0.72488 0.0
O632 O 0.45407 0.14449 0.67872 0.0
O633 O 0.45438 0.08252 0.64778 0.0
O634 O 0.4914 0.04129 0.6354 0.0
O635 O 0.53255 0.18259 0.68289 0.0
O636 O 0.51471 0.15497 0.64745 0.0
O637 O 0.56411 0.13454 0.63214 0.0
O638 O 0.5912 1.01851 0.63131 0.0
O639 O 0.61841 0.1532 0.64984 0.0
O640 O 0.58803 0.15477 0.67309 0.0
O641 O 0.57979 0.07125 0.61831 0.0
O642 O 0.50145 0.99829 0.65199 0.0
O643 O 0.46097 1.02407 0.66894 0.0
C644 C 0.45512 0.05233 0.63702 0.0
C645 C 0.48143 0.18412 0.70285 0.0
C646 C 0.45438 0.21571 0.72468 0.0
C647 C 0.4662 0.186 0.73408 0.0
C648 C 0.49539 0.15787 0.71296 0.0
C649 C 0.48685 0.15786 0.72829 0.0
C650 C 0.46184 0.21451 0.70886 0.0
C651 C 0.54041 0.16022 0.63487 0.0
C652 C 0.49007 0.18024 0.68636 0.0
C653 C 0.43584 0.9966 0.7226 0.0
C654 C 0.38886 0.98918 0.71795 0.0
C655 C 0.62597 0.17258 0.66342 0.0
C656 C 0.55095 0.99174 0.60756 0.0
C657 C 0.49835 0.90248 0.60162 0.0
C658 C 0.49061 0.91598 0.58712 0.0
C659 C 0.54293 1.00425 0.59305 0.0
C660 C 0.52661 0.9411 0.61196 0.0
C661 C 0.51205 0.96653 0.58301 0.0
C662 C 0.46447 0.98764 0.6618 0.0
C663 C 0.58501 0.03169 0.61794 0.0
H664 H 0.46137 0.18617 0.74612 0.0
H665 H 0.51418 0.13805 0.70906 0.0
H666 H 0.4974 0.13667 0.73579 0.0
H667 H 0.45284 0.23698 0.70139 0.0
H668 H 0.46989 0.88786 0.57866 0.0
H669 H 0.56074 0.04318 0.58945 0.0
H670 H 0.53095 0.93186 0.62339 0.0
H671 H 0.50616 0.97644 0.57182 0.0
Eu672 Eu 0.40865 0.48603 0.83529 0.0
C673 C 0.59399 0.67564 0.82414 0.0
N674 N 0.56954 0.65284 0.81132 0.0
C675 C 0.59612 0.7331 0.79977 0.0
C676 C 0.62027 0.7287 0.8253 0.0
C677 C 0.57036 0.68054 0.79916 0.0
C678 C 0.62107 0.75732 0.81292 0.0
C679 C 0.61848 0.66936 0.84955 0.0
C680 C 0.59224 0.64593 0.83619 0.0
C681 C 0.64416 0.72205 0.85078 0.0
C682 C 0.64485 0.75163 0.83872 0.0
Eu683 Eu 0.5268 0.56415 0.81072 0.0
N684 N 0.56576 0.59467 0.83484 0.0
C685 C 0.61903 0.63933 0.86126 0.0
C686 C 0.56691 0.56571 0.8464 0.0
C687 C 0.59387 0.5874 0.85956 0.0
H688 H 0.54998 0.66209 0.78907 0.0
H689 H 0.59407 0.56371 0.86858 0.0
H690 H 0.48767 0.58018 0.86037 0.0
H691 H 0.32797 0.28266 0.83994 0.0
H692 H 0.54636 0.5258 0.84615 0.0
H693 H 0.63905 0.65587 0.87161 0.0
H694 H 0.35101 0.36266 0.82703 0.0
H695 H 0.59621 0.75485 0.79017 0.0
H696 H 0.66399 0.74033 0.86101 0.0
H697 H 0.66492 0.79225 0.83983 0.0
H698 H 0.51577 0.58505 0.88602 0.0
H699 H 0.64067 0.79808 0.81342 0.0
H700 H 0.35229 0.28325 0.86644 0.0
N701 N 0.44923 0.49954 0.85912 0.0
C702 C 0.43531 0.4563 0.86709 0.0
C703 C 0.4933 0.54859 0.88082 0.0
C704 C 0.45137 0.45811 0.88209 0.0
C705 C 0.47682 0.54529 0.86602 0.0
C706 C 0.48087 0.50494 0.88885 0.0
N707 N 0.39024 0.40818 0.84583 0.0
C708 C 0.36336 0.36347 0.83844 0.0
C709 C 0.39127 0.36458 0.86822 0.0
C710 C 0.40475 0.40963 0.86034 0.0
C711 C 0.36316 0.31856 0.86077 0.0
C712 C 0.34964 0.31805 0.84578 0.0
H713 H 0.49384 0.50781 0.90032 0.0
H714 H 0.44922 0.41423 0.90149 0.0
H715 H 0.3972 0.33251 0.88929 0.0
O716 O 0.32587 0.44181 0.83535 0.0
O717 O 0.40154 0.44158 0.81308 0.0
O718 O 0.48101 0.48544 0.80232 0.0
O719 O 0.36203 0.49551 0.85274 0.0
O720 O 0.3865 0.51101 0.81344 0.0
O721 O 0.45606 0.54926 0.79755 0.0
O722 O 0.60162 0.58308 0.80239 0.0
O723 O 0.48592 0.60802 0.81585 0.0
O724 O 0.44897 0.57463 0.83833 0.0
O725 O 0.54563 0.57947 0.78706 0.0
O726 O 0.53314 0.49644 0.82063 0.0
O727 O 0.46113 0.44926 0.83488 0.0
C728 C 0.43597 0.4459 0.80305 0.0
C729 C 0.28303 0.4225 0.85929 0.0
C730 C 0.22401 0.39921 0.88099 0.0
C731 C 0.21348 0.34915 0.87923 0.0
C732 C 0.2683 0.37129 0.85771 0.0
C733 C 0.23513 0.33547 0.86773 0.0
C734 C 0.26034 0.4365 0.87112 0.0
C735 C 0.40738 0.53069 0.80029 0.0
C736 C 0.31929 0.45948 0.84795 0.0
C737 C 0.43715 0.41328 0.88999 0.0
C738 C 0.40731 0.36671 0.88308 0.0
C739 C 0.47069 0.61391 0.82906 0.0
C740 C 0.59709 0.54829 0.77811 0.0
C741 C 0.63487 0.49553 0.77266 0.0
C742 C 0.61323 0.48637 0.75821 0.0
C743 C 0.57638 0.53893 0.7636 0.0
C744 C 0.62496 0.52526 0.78269 0.0
C745 C 0.58375 0.50747 0.75383 0.0
C746 C 0.50428 0.45595 0.82896 0.0
C747 C 0.58888 0.58158 0.78837 0.0
H748 H 0.18735 0.31986 0.88667 0.0
H749 H 0.28153 0.35825 0.84847 0.0
H750 H 0.2252 0.29639 0.86637 0.0
H751 H 0.26944 0.47541 0.87228 0.0
H752 H 0.62056 0.46466 0.75 0.0
H753 H 0.55443 0.55594 0.75979 0.0
H754 H 0.63961 0.53126 0.79402 0.0
H755 H 0.5677 0.50052 0.74267 0.0
Eu756 Eu 0.95722 0.39817 1.00206 0.0
C757 C 0.95982 0.59061 0.98726 0.0
N758 N 0.95569 0.56239 0.97506 0.0
C759 C 0.90702 0.59328 0.9623 0.0
C760 C 0.93753 0.62171 0.98742 0.0
C761 C 0.92954 0.56297 0.96268 0.0
C762 C 0.91111 0.62289 0.97472 0.0
C763 C 0.98928 0.61608 0.01268 0.0
C764 C 0.98508 0.58728 0.99976 0.0
C765 C 0.9678 0.64757 0.01281 0.0
C766 C 0.94182 0.65023 1.00023 0.0
Eu767 Eu 0.99579 0.51325 0.97586 0.0
N768 N 1.00443 0.55532 0.99944 0.0
C769 C 1.01473 0.61232 0.02519 0.0
C770 C 1.02779 0.55076 0.01195 0.0
C771 C 1.03415 0.57962 0.0248 0.0
H772 H 0.92514 0.53928 0.95315 0.0
H773 H 0.05323 0.57573 0.03453 0.0
H774 H 0.9362 0.46945 0.02849 0.0
H775 H 0.09045 0.32727 1.00377 0.0
H776 H 1.04059 0.52419 0.0126 0.0
H777 H 1.01902 0.63398 0.03527 0.0
H778 H 1.02831 0.34602 0.99208 0.0
H779 H 0.88619 0.59346 0.95249 0.0
H780 H 0.97073 0.66976 0.02264 0.0
H781 H 0.92501 0.67432 1.00054 0.0
H782 H 0.96149 0.4979 0.05409 0.0
H783 H 0.89336 0.64614 0.97445 0.0
H784 H 0.11587 0.35102 0.03017 0.0
N785 N 0.98389 0.43669 0.02607 0.0
C786 C 1.01599 0.42462 0.03339 0.0
C787 C 0.97736 0.47763 0.04836 0.0
C788 C 1.03094 0.44022 0.04835 0.0
C789 C 0.96335 0.46142 0.03359 0.0
C790 C 1.0115 0.46733 0.05574 0.0
N791 N 1.02085 0.38295 0.01141 0.0
C792 C 1.04037 0.35821 1.00344 0.0
C793 C 0.06883 0.38522 0.03316 0.0
C794 C 1.03435 0.39658 0.02597 0.0
C795 C 0.08907 0.36005 0.02504 0.0
C796 C 0.07509 0.34688 1.0101 0.0
H797 H 1.0221 0.47991 0.06721 0.0
H798 H 0.07611 0.43971 0.06707 0.0
H799 H 0.10968 0.39219 0.05372 0.0
O800 O 0.92249 0.31558 1.00325 0.0
O801 O 0.98818 0.38745 0.97921 0.0
O802 O 1.0323 0.46782 0.96893 0.0
O803 O 0.9018 0.35254 0.01965 0.0
O804 O 0.90759 0.37349 0.98068 0.0
O805 O 0.93708 0.44158 0.96427 0.0
O806 O 0.04893 0.58492 0.96538 0.0
O807 O 0.9127 0.47705 0.98206 0.0
O808 O 0.91022 0.44097 1.00478 0.0
O809 O 0.99634 0.52314 0.95172 0.0
O810 O 0.06988 0.52279 0.98639 0.0
O811 O 1.04579 0.45224 1.00135 0.0
C812 C 1.02079 0.42044 0.96943 0.0
C813 C 0.90174 0.2769 0.02779 0.0
C814 C 0.86897 0.21815 0.04966 0.0
C815 C 0.91359 0.21529 0.04932 0.0
C816 C 0.9437 0.26957 0.02768 0.0
C817 C 0.95013 0.24037 0.03847 0.0
C818 C 0.86373 0.25058 0.03898 0.0
C819 C 0.90716 0.39354 0.96746 0.0
C820 C 0.89785 0.30983 0.01569 0.0
C821 C 0.06441 0.42799 0.05559 0.0
C822 C 0.08334 0.40068 0.04802 0.0
C823 C 0.89254 0.46291 0.99543 0.0
C824 C 0.07687 0.57205 0.94161 0.0
C825 C 0.16612 0.61095 0.93523 0.0
C826 C 0.15293 0.58377 0.92163 0.0
C827 C 0.06467 0.54564 0.92794 0.0
C828 C 0.12759 0.60301 0.94539 0.0
C829 C 0.10259 0.55083 0.91817 0.0
C830 C 0.08173 0.49498 0.99524 0.0
C831 C 1.03652 0.56696 0.95181 0.0
H832 H 0.92008 0.19262 0.05744 0.0
H833 H 0.97167 0.28573 0.01905 0.0
H834 H 0.98347 0.23633 0.03822 0.0
H835 H 0.83004 0.25399 0.03906 0.0
H836 H 0.18102 0.5892 0.91333 0.0
H837 H 1.02579 0.52104 0.92478 0.0
H838 H 0.13687 0.62171 0.95618 0.0
H839 H 0.09286 0.53042 0.90765 0.0
Eu840 Eu 0.59056 0.95019 0.16854 0.0
C841 C 0.41888 0.98702 0.14388 0.0
N842 N 0.44189 0.96849 0.13497 0.0
C843 C 0.36585 0.92087 0.12085 0.0
C844 C 0.36779 0.97291 0.14155 0.0
C845 C 0.41634 0.93571 0.12359 0.0
C846 C 0.34143 0.93958 0.12987 0.0
C847 C 0.42255 0.0393 0.16481 0.0
C848 C 0.4462 1.01961 0.15543 0.0
C849 C 0.37186 1.02553 0.16248 0.0
C850 C 0.34453 0.99234 0.15091 0.0
Eu851 Eu 0.52805 0.99767 0.13902 0.0
N852 N 0.49529 0.03182 0.15757 0.0
C853 C 0.45038 0.07246 0.17628 0.0
C854 C 0.5219 0.06383 0.16907 0.0
C855 C 0.50022 0.08478 0.17839 0.0
H856 H 0.43473 0.92029 0.11675 0.0
H857 H 0.52187 0.10962 0.18747 0.0
H858 H 0.4815 0.9541 0.17881 0.0
H859 H 0.77963 0.05764 0.19203 0.0
H860 H 0.55908 0.07212 0.17199 0.0
H861 H 0.43361 0.08836 0.18367 0.0
H862 H 0.71565 1.00422 0.17329 0.0
H863 H 0.34572 0.89476 0.11186 0.0
H864 H 0.35339 0.04033 0.1696 0.0
H865 H 0.3054 0.98196 0.14928 0.0
H866 H 0.45304 0.984 0.19968 0.0
H867 H 0.30221 0.92789 0.12776 0.0
H868 H 0.75517 0.09178 0.21363 0.0
N869 N 0.55789 0.98676 0.18602 0.0
C870 C 0.59155 1.01634 0.19681 0.0
C871 C 0.49207 0.99315 0.19907 0.0
C872 C 0.57642 0.03597 0.20888 0.0
C873 C 0.50864 0.9752 0.18717 0.0
C874 C 0.52608 1.0239 0.20991 0.0
N875 N 0.65559 1.00715 0.1845 0.0
C876 C 0.70469 1.01877 0.18278 0.0
C877 C 0.67693 0.05754 0.20691 0.0
C878 C 0.64143 1.02652 0.19607 0.0
C879 C 0.72694 0.06818 0.20551 0.0
C880 C 0.74092 0.04898 0.19333 0.0
H881 H 0.51306 0.0381 0.21902 0.0
H882 H 0.60045 0.08165 0.22904 0.0
H883 H 0.68841 0.10097 0.2272 0.0
O884 O 0.63808 0.9193 0.17766 0.0
O885 O 0.64216 0.97877 0.14734 0.0
O886 O 0.60846 1.02042 0.13357 0.0
O887 O 0.56087 0.88363 0.18317 0.0
O888 O 0.57991 0.90878 0.14598 0.0
O889 O 0.52616 0.92519 0.13142 0.0
O890 O 0.52781 0.05584 0.12444 0.0
O891 O 0.46716 0.92332 0.14946 0.0
O892 O 0.50271 0.89574 0.1675 0.0
O893 O 0.52272 0.98886 0.11483 0.0
O894 O 0.59649 0.06744 0.14978 0.0
O895 O 0.63583 0.039 0.16642 0.0
C896 C 0.64401 1.00907 0.1362 0.0
C897 C 0.61433 0.88343 0.20263 0.0
C898 C 0.63792 0.8497 0.22492 0.0
C899 C 0.62988 0.88287 0.23395 0.0
C900 C 0.60464 0.91348 0.21249 0.0
C901 C 0.61318 0.91397 0.22782 0.0
C902 C 0.63005 0.85009 0.20902 0.0
C903 C 0.55135 0.90091 0.13391 0.0
C904 C 0.60337 0.8854 0.18613 0.0
C905 C 0.61164 0.06638 0.21976 0.0
C906 C 0.66171 0.07724 0.21875 0.0
C907 C 0.46273 0.89001 0.15972 0.0
C908 C 0.56865 0.06342 0.101 0.0
C909 C 0.60898 0.13709 0.08472 0.0
C910 C 0.63985 0.11924 0.07876 0.0
C911 C 0.5997 0.04589 0.09481 0.0
C912 C 0.57374 0.10909 0.09593 0.0
C913 C 0.63483 0.07365 0.08372 0.0
C914 C 0.63334 0.07662 0.15949 0.0
C915 C 0.52938 0.03346 0.11217 0.0
H916 H 0.63496 0.88362 0.246 0.0
H917 H 0.58872 0.93574 0.20838 0.0
H918 H 0.6057 0.93797 0.2351 0.0
H919 H 0.63586 0.82487 0.20179 0.0
H920 H 0.66683 0.13978 0.07 0.0
H921 H 0.59652 1.01049 0.09836 0.0
H922 H 0.54994 0.12269 0.10069 0.0
H923 H 0.65776 0.05944 0.07878 0.0
Eu924 Eu 0.67621 0.57276 0.33579 0.0
C925 C 0.49499 0.39051 0.32351 0.0
N926 N 0.52062 0.41159 0.31072 0.0
C927 C 0.49793 0.33013 0.30076 0.0
C928 C 0.47108 0.33789 0.32566 0.0
C929 C 0.52171 0.38247 0.29925 0.0
C930 C 0.47305 0.30776 0.31411 0.0
C931 C 0.46174 0.3997 0.34718 0.0
C932 C 0.4912 0.42145 0.33419 0.0
C933 C 0.4406 0.34782 0.34982 0.0
C934 C 0.44528 0.31696 0.33908 0.0
Eu935 Eu 0.56394 0.50001 0.30899 0.0
N936 N 0.51202 0.47171 0.33123 0.0
C937 C 0.45165 0.43 0.35667 0.0
C938 C 0.49666 0.49941 0.33963 0.0
C939 C 0.46761 0.47954 0.35257 0.0
H940 H 0.5423 0.39988 0.2891 0.0
H941 H 0.45707 0.50247 0.35928 0.0
H942 H 0.57144 0.48894 0.35615 0.0
H943 H 0.78627 0.77709 0.34143 0.0
H944 H 0.50423 0.5362 0.33649 0.0
H945 H 0.42898 0.41472 0.36668 0.0
H946 H 0.75455 0.69521 0.32848 0.0
H947 H 0.49954 0.3072 0.29174 0.0
H948 H 0.41873 0.33086 0.35986 0.0
H949 H 0.42745 0.27677 0.34105 0.0
H950 H 0.53356 0.48785 0.38034 0.0
H951 H 0.45515 0.26724 0.31534 0.0
H952 H 0.75509 0.78032 0.3668 0.0
N953 N 0.62702 0.56674 0.35724 0.0
C954 C 0.64652 0.60975 0.36572 0.0
C955 C 0.5651 0.52244 0.37629 0.0
C956 C 0.62489 0.61053 0.37965 0.0
C957 C 0.58695 0.52339 0.36243 0.0
C958 C 0.58406 0.56607 0.38493 0.0
N959 N 0.70584 0.65319 0.34635 0.0
C960 C 0.74016 0.69659 0.33945 0.0
C961 C 0.70417 0.69992 0.36789 0.0
C962 C 0.68667 0.65413 0.36006 0.0
C963 C 0.74088 0.7444 0.36115 0.0
C964 C 0.75844 0.74279 0.3468 0.0
H965 H 0.56665 0.56511 0.39561 0.0
H966 H 0.628 0.65674 0.39853 0.0
H967 H 0.6967 0.73498 0.38814 0.0
O968 O 0.7523 0.61562 0.34608 0.0
O969 O 0.69017 0.61794 0.31326 0.0
O970 O 0.61175 0.58013 0.30136 0.0
O971 O 0.71394 0.53596 0.34697 0.0
O972 O 0.70504 0.55988 0.31301 0.0
O973 O 0.63532 0.50689 0.29841 0.0
O974 O 0.49204 0.47778 0.29791 0.0
O975 O 0.60355 0.45571 0.31629 0.0
O976 O 0.62811 0.48536 0.33988 0.0
O977 O 0.55569 0.48928 0.28476 0.0
O978 O 0.56262 0.57207 0.3176 0.0
O979 O 0.62372 0.60849 0.33604 0.0
C980 C 0.65854 0.61666 0.30259 0.0
C981 C 0.76051 0.57816 0.36892 0.0
C982 C 0.81247 0.5928 0.39195 0.0
C983 C 0.7683 0.57596 0.4005 0.0
C984 C 0.71786 0.55926 0.37818 0.0
C985 C 0.72179 0.55926 0.3937 0.0
C986 C 0.80862 0.59512 0.37594 0.0
C987 C 0.68454 0.53235 0.30073 0.0
C988 C 0.752 0.57689 0.35217 0.0
C989 C 0.64409 0.65566 0.38779 0.0
C990 C 0.68337 0.70023 0.3819 0.0
C991 C 0.61261 0.44768 0.33016 0.0
C992 C 0.50277 0.51595 0.27393 0.0
C993 C 0.46043 0.56358 0.2674 0.0
C994 C 0.48515 0.57534 0.25341 0.0
C995 C 0.52677 0.52783 0.25989 0.0
C996 C 0.47125 0.53549 0.27778 0.0
C997 C 0.51862 0.55811 0.24982 0.0
C998 C 0.58622 0.60719 0.32813 0.0
C999 C 0.51064 0.48318 0.28447 0.0
H1000 H 0.76956 0.57476 0.41264 0.0
H1001 H 0.68077 0.54327 0.37339 0.0
H1002 H 0.68821 0.54519 0.40053 0.0
H1003 H 0.84201 0.60828 0.36907 0.0
H1004 H 0.47743 0.59618 0.24499 0.0
H1005 H 0.55176 0.51364 0.2567 0.0
H1006 H 0.45431 0.52793 0.28882 0.0
H1007 H 0.53719 0.56706 0.23901 0.0
H1008 H 0.99425 0.65307 0.23764 0.0
H1009 H 0.12479 0.68995 0.21058 0.0
H1010 H 0.04969 0.70422 0.25837 0.0
H1011 H 0.17951 0.73995 0.23096 0.0
H1012 H 0.26225 0.75591 0.27376 0.0
H1013 H 0.19812 0.712 0.25472 0.0
H1014 H 0.12122 0.79194 0.26851 0.0
H1015 H 0.18718 0.8374 0.28759 0.0
C1016 C 1.03456 0.67382 0.23586 0.0
C1017 C 0.05496 0.66793 0.22231 0.0
C1018 C 0.06647 0.70273 0.24781 0.0
C1019 C 0.1194 0.72542 0.24657 0.0
C1020 C 0.13918 0.72222 0.23259 0.0
C1021 C 0.10765 0.69404 0.22075 0.0
C1022 C 0.23096 0.76324 0.27307 0.0
C1023 C 0.22984 0.7999 0.2824 0.0
C1024 C 0.19435 0.73845 0.26197 0.0
C1025 C 0.15457 0.74874 0.25979 0.0
C1026 C 0.1512 0.78293 0.26979 0.0
C1027 C 0.18872 0.80863 0.28086 0.0
H1028 H 0.39709 0.17161 0.45712 0.0
H1029 H 0.54088 0.25556 0.4352 0.0
H1030 H 0.37299 0.10302 0.43863 0.0
H1031 H 0.51656 0.18877 0.41675 0.0
H1032 H 0.44181 0.09836 0.37542 0.0
H1033 H 0.4518 0.15731 0.39546 0.0
H1034 H 0.39951 0.03695 0.4278 0.0
H1035 H 0.39136 0.97823 0.40766 0.0
C1036 C 0.42395 0.1751 0.44862 0.0
C1037 C 0.47089 0.21964 0.44769 0.0
C1038 C 0.40996 0.13597 0.4379 0.0
C1039 C 0.44224 0.14077 0.42586 0.0
C1040 C 0.49003 0.18405 0.42553 0.0
C1041 C 0.50417 0.22235 0.43626 0.0
C1042 C 0.43025 0.0839 0.38668 0.0
C1043 C 0.4141 0.03299 0.38975 0.0
C1044 C 0.43683 0.11796 0.39827 0.0
C1045 C 0.42704 0.10228 0.41339 0.0
C1046 C 0.40718 0.05054 0.41635 0.0
C1047 C 0.4017 1.0166 0.40474 0.0
H1048 H 0.3069 0.50861 0.60459 0.0
H1049 H 0.24498 0.35862 0.62247 0.0
H1050 H 0.35298 0.48964 0.58574 0.0
H1051 H 0.29252 0.33958 0.60357 0.0
H1052 H 0.43499 0.35941 0.57291 0.0
H1053 H 0.38205 0.36314 0.59318 0.0
H1054 H 0.32684 0.4353 0.56292 0.0
H1055 H 0.37785 0.42959 0.54275 0.0
C1056 C 0.30426 0.47186 0.60478 0.0
C1057 C 0.27239 0.43543 0.61524 0.0
C1058 C 0.33019 0.46065 0.59376 0.0
C1059 C 0.32589 0.41262 0.59278 0.0
C1060 C 0.29673 0.37694 0.60387 0.0
C1061 C 0.26989 0.38802 0.61486 0.0
C1062 C 0.40934 0.37342 0.57039 0.0
C1063 C 0.40964 0.39273 0.55598 0.0
C1064 C 0.3795 0.37634 0.5821 0.0
C1065 C 0.35073 0.40058 0.5799 0.0
C1066 C 0.349 0.41717 0.56524 0.0
C1067 C 0.37772 0.41312 0.55352 0.0
H1068 H 0.10669 0.41304 0.73752 0.0
H1069 H 0.97042 0.3614 0.71202 0.0
H1070 H 0.05782 0.36345 0.759 0.0
H1071 H 0.92098 0.31103 0.73325 0.0
H1072 H 0.83559 0.26142 0.77771 0.0
H1073 H 0.88722 0.31198 0.75652 0.0
H1074 H 1.00998 0.29124 0.77205 0.0
H1075 H 0.95986 0.24414 0.79337 0.0
C1076 C 0.06643 0.38897 0.73622 0.0
C1077 C 1.04299 0.38985 0.72272 0.0
C1078 C 1.03785 0.36069 0.7487 0.0
C1079 C 0.98449 0.33289 0.74826 0.0
C1080 C 0.96148 0.33235 0.73445 0.0
C1081 C 0.99012 0.36044 0.72201 0.0
C1082 C 0.87405 0.26887 0.77679 0.0
C1083 C 0.89303 0.24811 0.78737 0.0
C1084 C 0.90367 0.29714 0.76438 0.0
C1085 C 0.95326 0.30544 0.76206 0.0
C1086 C 0.97261 0.28657 0.77313 0.0
C1087 C 0.94339 0.25898 0.78549 0.0
H1088 H 0.62863 0.95621 0.88028 0.0
H1089 H 0.71904 0.09451 0.90413 0.0
H1090 H 0.6319 0.90805 0.90166 0.0
H1091 H 0.72102 0.04712 0.92589 0.0
H1092 H 0.74535 0.9538 0.96096 0.0
H1093 H 0.7453 1.00093 0.9393 0.0
H1094 H 0.6039 0.87506 0.925 0.0
H1095 H 0.60668 0.82583 0.94639 0.0
C1096 C 0.65063 0.97646 0.88999 0.0
C1097 C 0.67535 1.02949 0.89017 0.0
C1098 C 0.65156 0.94866 0.90252 0.0
C1099 C 0.67642 0.97271 0.91595 0.0
C1100 C 0.70229 1.02617 0.9159 0.0
C1101 C 0.70167 0.05393 0.90327 0.0
C1102 C 0.71419 0.93559 0.95318 0.0
C1103 C 0.67665 0.88497 0.95547 0.0
C1104 C 0.71381 0.96336 0.94064 0.0
C1105 C 0.67504 0.94257 0.92985 0.0
C1106 C 0.63561 0.89271 0.93258 0.0
C1107 C 0.63651 0.86439 0.94512 0.0
H1108 H 0.76454 0.56258 0.11907 0.0
H1109 H 0.8889 0.70413 0.10481 0.0
H1110 H 0.70925 0.57386 0.10141 0.0
H1111 H 0.83398 0.71539 0.08703 0.0
H1112 H 0.70414 0.72635 0.06049 0.0
H1113 H 0.75979 0.72716 0.08087 0.0
H1114 H 0.7034 0.56817 0.07433 0.0
H1115 H 0.64987 0.56751 0.05436 0.0
C1116 C 0.77977 0.59693 0.11255 0.0
C1117 C 0.83129 0.63243 0.11349 0.0
C1118 C 0.74824 0.60318 0.10219 0.0
C1119 C 0.76709 0.64526 0.09245 0.0
C1120 C 0.81777 0.68258 0.09424 0.0
C1121 C 0.84934 0.67611 0.10451 0.0
C1122 C 0.70452 0.69197 0.06325 0.0
C1123 C 0.67196 0.64692 0.0557 0.0
C1124 C 0.73606 0.69219 0.07505 0.0
C1125 C 0.73535 0.64731 0.07966 0.0
C1126 C 0.70424 0.60319 0.07161 0.0
C1127 C 0.67363 0.60308 0.05991 0.0
H1128 H 0.46718 0.06972 0.60717 0.0
H1129 H 0.35646 0.97737 0.63991 0.0
H1130 H 0.41416 1.01518 0.58705 0.0
H1131 H 0.30316 0.92167 0.61983 0.0
H1132 H 0.2037 0.83625 0.58051 0.0
H1133 H 0.25072 0.90364 0.59854 0.0
H1134 H 0.38937 0.93545 0.57653 0.0
H1135 H 0.34163 0.86857 0.55828 0.0
C1136 C 0.4304 0.03871 0.61002 0.0
C1137 C 0.41541 1.02914 0.62517 0.0
C1138 C 0.40027 1.00657 0.59845 0.0
C1139 C 0.35403 0.96311 0.60158 0.0
C1140 C 0.33794 0.95487 0.61675 0.0
C1141 C 0.36826 0.98724 0.62836 0.0
C1142 C 0.24416 0.85868 0.57925 0.0
C1143 C 0.26862 0.84727 0.56771 0.0
C1144 C 0.27139 0.89702 0.58979 0.0
C1145 C 0.32437 0.92536 0.58931 0.0
C1146 C 0.34872 0.91538 0.57733 0.0
C1147 C 0.32129 0.87702 0.56671 0.0
H1148 H 0.50182 0.319 0.7249 0.0
H1149 H 0.37299 0.18857 0.74311 0.0
H1150 H 0.49025 0.37233 0.74325 0.0
H1151 H 0.36114 0.24175 0.76147 0.0
H1152 H 0.34783 0.37051 0.7889 0.0
H1153 H 0.34418 0.31527 0.76796 0.0
H1154 H 0.5051 0.37751 0.77068 0.0
H1155 H 0.50868 0.43002 0.79132 0.0
C1156 C 0.46978 0.30191 0.7324 0.0
C1157 C 0.4381 0.24944 0.73234 0.0
C1158 C 0.46346 0.33239 0.74313 0.0
C1159 C 0.42502 0.31147 0.75409 0.0
C1160 C 0.39095 0.25948 0.75325 0.0
C1161 C 0.39767 0.22894 0.74264 0.0
C1162 C 0.38214 0.37162 0.78517 0.0
C1163 C 0.42851 0.40558 0.79185 0.0
C1164 C 0.38021 0.34029 0.77306 0.0
C1165 C 0.42465 0.34279 0.76723 0.0
C1166 C 0.47025 0.37532 0.77438 0.0
C1167 C 0.47207 0.40551 0.78643 0.0
H1168 H 0.11684 0.43566 0.96961 0.0
H1169 H 0.98531 0.38158 0.9417 0.0
H1170 H 0.16617 0.43479 0.94804 0.0
H1171 H 1.03424 0.38246 0.91996 0.0
H1172 H 0.12244 0.34771 0.88523 0.0
H1173 H 0.07384 0.34836 0.90659 0.0
H1174 H 0.20725 0.47303 0.92558 0.0
H1175 H 0.25679 0.4702 0.9042 0.0
C1176 C 0.09801 0.42186 0.95893 0.0
C1177 C 0.04633 0.40613 0.95761 0.0
C1178 C 0.12668 0.42259 0.94637 0.0
C1179 C 0.10497 0.4086 0.93192 0.0
C1180 C 0.05289 0.39242 0.93075 0.0
C1181 C 1.02427 0.39132 0.94333 0.0
C1182 C 0.1416 0.37576 0.89387 0.0
C1183 C 0.19398 0.40876 0.89285 0.0
C1184 C 0.11334 0.37634 0.90625 0.0
C1185 C 0.13588 0.41042 0.91822 0.0
C1186 C 0.18808 0.44524 0.9169 0.0
C1187 C 0.21664 0.4444 0.90443 0.0
H1188 H 0.71602 0.10764 0.13638 0.0
H1189 H 0.66476 0.97137 0.11092 0.0
H1190 H 0.76679 0.15706 0.1152 0.0
H1191 H 0.71474 1.02023 0.0895 0.0
H1192 H 0.83421 0.11842 0.05519 0.0
H1193 H 0.78723 0.06827 0.07653 0.0
H1194 H 0.76546 0.19055 0.09188 0.0
H1195 H 0.81584 0.24219 0.07067 0.0
C1196 C 0.71721 0.08793 0.12642 0.0
C1197 C 0.68774 0.03506 0.1257 0.0
C1198 C 0.7455 0.11656 0.11401 0.0
C1199 C 0.74511 0.09355 0.10023 0.0
C1200 C 0.71735 0.04019 0.09979 0.0
C1201 C 0.68889 1.01161 0.11223 0.0
C1202 C 0.81915 0.13476 0.06303 0.0
C1203 C 0.82964 0.18499 0.0611 0.0
C1204 C 0.79165 0.10554 0.0754 0.0
C1205 C 0.77255 0.12478 0.08643 0.0
C1206 C 0.78051 0.17422 0.08405 0.0
C1207 C 0.80866 0.20384 0.07164 0.0
H1208 H 0.69793 0.72054 0.30452 0.0
H1209 H 0.64658 0.59885 0.27274 0.0
H1210 H 0.69808 0.7762 0.28453 0.0
H1211 H 0.64713 0.65372 0.25282 0.0
H1212 H 0.58945 0.74533 0.22548 0.0
H1213 H 0.60167 0.69177 0.2436 0.0
H1214 H 0.73021 0.82281 0.26203 0.0
H1215 H 0.71717 0.87584 0.24411 0.0
C1216 C 0.6887 0.70617 0.29316 0.0
C1217 C 0.67341 0.65529 0.29028 0.0
C1218 C 0.68819 0.738 0.28161 0.0
C1219 C 0.67202 0.71993 0.26681 0.0
C1220 C 0.65893 0.66951 0.26394 0.0
C1221 C 0.6595 0.63801 0.2754 0.0
C1222 C 0.62129 0.76249 0.23306 0.0
C1223 C 0.65261 0.81514 0.23306 0.0
C1224 C 0.62827 0.73172 0.24364 0.0
C1225 C 0.66687 0.75243 0.25465 0.0
C1226 C 0.69946 0.80491 0.25412 0.0
C1227 C 0.69244 0.83549 0.24359 0.0
H1228 H 0.97625 0.63128 0.4736 0.0
H1229 H 0.09942 0.68554 0.44236 0.0
H1230 H 0.91863 0.6208 0.45307 0.0
H1231 H 1.04184 0.67632 0.42169 0.0
H1232 H 0.9066 0.68043 0.39221 0.0
H1233 H 0.97433 0.70381 0.41098 0.0
H1234 H 0.89093 0.55676 0.43101 0.0
H1235 H 0.82504 0.53315 0.41224 0.0
C1236 C 0.99163 0.64363 0.46247 0.0
C1237 C 1.04313 0.6613 0.45985 0.0
C1238 C 0.95832 0.63669 0.45058 0.0
C1239 C 0.97524 0.64743 0.43559 0.0
C1240 C 1.02733 0.66814 0.43304 0.0
C1241 C 0.06061 0.67425 0.44496 0.0
C1242 C 0.90356 0.65264 0.40032 0.0
C1243 C 0.85989 0.60484 0.40062 0.0
C1244 C 0.94218 0.6662 0.41121 0.0
C1245 C 0.93772 0.63264 0.42283 0.0
C1246 C 0.89543 0.58413 0.42253 0.0
C1247 C 0.85767 0.57042 0.41161 0.0
H1248 H 0.6073 0.6715 0.3528 0.0
H1249 H 0.52593 0.63523 0.3111 0.0
H1250 H 0.58239 0.7346 0.35809 0.0
H1251 H 0.5005 0.69872 0.31638 0.0
H1252 H 0.4955 0.85024 0.32478 0.0
H1253 H 0.51911 0.78586 0.31858 0.0
H1254 H 0.51916 0.75358 0.36563 0.0
H1255 H 0.49454 0.81651 0.37166 0.0
C1256 C 0.58415 0.6767 0.34463 0.0
C1257 C 0.56935 0.64691 0.33141 0.0
C1258 C 0.56914 0.71335 0.34777 0.0
C1259 C 0.53863 0.72326 0.33782 0.0
C1260 C 0.5241 0.69373 0.32449 0.0
C1261 C 0.53864 0.65646 0.32145 0.0
C1262 C 0.50003 0.82921 0.33386 0.0
C1263 C 0.49329 0.84032 0.34887 0.0
C1264 C 0.51385 0.79171 0.33027 0.0
C1265 C 0.52219 0.76332 0.34148 0.0
C1266 C 0.5146 0.77417 0.35644 0.0
C1267 C 0.50022 0.811 0.35998 0.0
H1268 H 0.67649 0.47713 0.49257 0.0
H1269 H 0.71165 0.48529 0.53955 0.0
H1270 H 0.76407 0.50105 0.48639 0.0
H1271 H 0.79888 0.51043 0.53354 0.0
H1272 H 0.96705 0.59614 0.52003 0.0
H1273 H 0.87957 0.57138 0.52544 0.0
H1274 H 0.83364 0.4848 0.48456 0.0
H1275 H 0.92196 0.51021 0.47915 0.0
C1276 C 0.70254 0.48391 0.50169 0.0
C1277 C 0.68541 0.47966 0.51671 0.0
C1278 C 0.75365 0.49787 0.49811 0.0
C1279 C 0.79095 0.50886 0.50932 0.0
C1280 C 0.7733 0.50386 0.52431 0.0
C1281 C 0.72229 0.48932 0.52785 0.0
C1282 C 0.9388 0.57191 0.51208 0.0
C1283 C 0.95364 0.55578 0.49906 0.0
C1284 C 0.88744 0.557 0.51529 0.0
C1285 C 0.84717 0.52522 0.50561 0.0
C1286 C 0.86205 0.50939 0.49247 0.0
C1287 C 0.91356 0.52391 0.48936 0.0
H1288 H 0.45855 0.89735 0.65148 0.0
H1289 H 0.37713 0.94806 0.67923 0.0
H1290 H 0.39595 0.80962 0.65705 0.0
H1291 H 0.31484 0.86149 0.68477 0.0
H1292 H 0.22467 0.70158 0.70339 0.0
H1293 H 0.28788 0.78702 0.69723 0.0
H1294 H 0.31712 0.73481 0.65546 0.0
H1295 H 0.25288 0.6482 0.66188 0.0
C1296 C 0.42748 0.89033 0.65882 0.0
C1297 C 0.42465 0.93179 0.665 0.0
C1298 C 0.39075 0.8391 0.66202 0.0
C1299 C 0.34892 0.82606 0.67166 0.0
C1300 C 0.34606 0.86779 0.67763 0.0
C1301 C 0.38253 0.9187 0.67438 0.0
C1302 C 0.24384 0.70769 0.6928 0.0
C1303 C 0.23178 0.66609 0.68325 0.0
C1304 C 0.28093 0.7579 0.68913 0.0
C1305 C 0.309 0.77039 0.67559 0.0
C1306 C 0.29767 0.72858 0.66607 0.0
C1307 C 0.26015 0.678 0.66978 0.0
H1308 H 0.58242 0.44473 0.81584 0.0
H1309 H 0.46656 0.37528 0.84913 0.0
H1310 H 0.60906 0.38199 0.82083 0.0
H1311 H 0.4921 0.3127 0.85406 0.0
H1312 H 0.57202 0.22841 0.87105 0.0
H1313 H 0.54762 0.29091 0.86503 0.0
H1314 H 0.59995 0.29855 0.81971 0.0
H1315 H 0.62404 0.23435 0.82585 0.0
C1316 C 0.5623 0.41633 0.82429 0.0
C1317 C 0.52175 0.41659 0.83208 0.0
C1318 C 0.5776 0.37947 0.82713 0.0
C1319 C 0.55368 0.34085 0.83806 0.0
C1320 C 0.51307 0.34128 0.84574 0.0
C1321 C 0.49767 0.37771 0.8428 0.0
C1322 C 0.5781 0.24249 0.85968 0.0
C1323 C 0.59997 0.22431 0.84905 0.0
C1324 C 0.56371 0.27919 0.85614 0.0
C1325 C 0.5706 0.30109 0.84169 0.0
C1326 C 0.59359 0.28385 0.83103 0.0
C1327 C 0.60763 0.24639 0.83458 0.0
H1328 H 0.16753 0.5568 0.97819 0.0
H1329 H 0.12708 0.47641 0.01997 0.0
H1330 H 0.25664 0.58487 0.98321 0.0
H1331 H 0.21514 0.50243 0.02486 0.0
H1332 H 0.38232 0.58919 0.03806 0.0
H1333 H 0.29496 0.56323 0.03229 0.0
H1334 H 0.32832 0.57302 0.98502 0.0
H1335 H 0.41661 0.59899 0.99096 0.0
C1336 C 0.17716 0.54463 0.98848 0.0
C1337 C 0.13816 0.51308 0.99852 0.0
C1338 C 0.2291 0.56063 0.99136 0.0
C1339 C 0.24542 0.54666 1.00457 0.0
C1340 C 0.20618 0.5153 0.0146 0.0
C1341 C 0.15442 0.49915 0.01165 0.0
C1342 C 0.37153 0.58583 0.02636 0.0
C1343 C 0.40828 0.5964 0.01512 0.0
C1344 C 0.32031 0.57039 0.02297 0.0
C1345 C 0.3021 0.56475 1.00805 0.0
C1346 C 0.33921 0.57666 0.99671 0.0
C1347 C 0.39076 0.59194 1.00014 0.0
H1348 H 0.869 0.36511 0.20157 0.0
H1349 H 0.84639 0.41636 0.15878 0.0
H1350 H 0.8072 0.27931 0.19528 0.0
H1351 H 0.78378 0.329 0.15225 0.0
H1352 H 0.6418 0.16667 0.14824 0.0
H1353 H 0.70425 0.25445 0.15361 0.0
H1354 H 0.78111 0.2036 0.18351 0.0
H1355 H 0.71867 0.11663 0.17814 0.0
C1356 C 0.85113 0.35854 0.19068 0.0
C1357 C 0.86415 0.39978 0.18084 0.0
C1358 C 0.81506 0.30799 0.18694 0.0
C1359 C 0.78891 0.29463 0.17306 0.0
C1360 C 0.80167 0.33594 0.16314 0.0
C1361 C 0.83835 0.38693 0.16688 0.0
C1362 C 0.6719 0.17383 0.15601 0.0
C1363 C 0.6735 0.13245 0.16279 0.0
C1364 C 0.70859 0.22517 0.15909 0.0
C1365 C 0.74926 0.23863 0.16924 0.0
C1366 C 0.75088 0.19702 0.17588 0.0
C1367 C 0.7144 0.14587 0.17273 0.0
H1368 H 0.2605 0.58243 0.47825 0.0
H1369 H 0.22581 0.58033 0.52509 0.0
H1370 H 0.32238 0.55638 0.48428 0.0
H1371 H 0.28905 0.55519 0.5313 0.0
H1372 H 0.43827 0.54655 0.53899 0.0
H1373 H 0.37552 0.57278 0.53365 0.0
H1374 H 0.34034 0.49223 0.49172 0.0
H1375 H 0.4028 0.46643 0.4971 0.0
C1376 C 0.26563 0.57625 0.48992 0.0
C1377 C 0.23641 0.58335 0.50103 0.0
C1378 C 0.30179 0.561 0.49346 0.0
C1379 C 0.312 0.55263 0.50841 0.0
C1380 C 0.28367 0.56105 0.51962 0.0
C1381 C 0.24685 0.57576 0.51603 0.0
C1382 C 0.41738 0.5343 0.52857 0.0
C1383 C 0.42698 0.50375 0.51857 0.0
C1384 C 0.38051 0.54931 0.5255 0.0
C1385 C 0.35146 0.53545 0.51209 0.0
C1386 C 0.36131 0.505 0.5021 0.0
C1387 C 0.39758 0.48949 0.50528 0.0
H1388 H 0.67041 0.20845 0.69187 0.0
H1389 H 0.70616 0.23423 0.6449 0.0
H1390 H 0.75787 0.27152 0.69811 0.0
H1391 H 0.7933 0.29517 0.65101 0.0
H1392 H 0.96099 0.36949 0.66585 0.0
H1393 H 0.87344 0.30802 0.6604 0.0
H1394 H 0.82601 0.36079 0.69855 0.0
H1395 H 0.91417 0.42325 0.70377 0.0
C1396 C 0.69653 0.22736 0.68278 0.0
C1397 C 0.67977 0.21447 0.66775 0.0
C1398 C 0.74745 0.26398 0.68639 0.0
C1399 C 0.78471 0.28933 0.67518 0.0
C1400 C 0.76746 0.27676 0.66019 0.0
C1401 C 0.71661 0.24105 0.65662 0.0
C1402 C 0.93241 0.36866 0.6731 0.0
C1403 C 0.94666 0.40298 0.68523 0.0
C1404 C 0.88115 0.33283 0.66992 0.0
C1405 C 0.84063 0.32821 0.67888 0.0
C1406 C 0.85485 0.36187 0.69124 0.0
C1407 C 0.90621 0.39844 0.69423 0.0
H1408 H 0.60305 0.94914 0.82871 0.0
H1409 H 0.5229 0.90823 0.87052 0.0
H1410 H 0.57687 0.86102 0.82373 0.0
H1411 H 0.49489 0.81924 0.86544 0.0
H1412 H 0.48105 0.65959 0.85757 0.0
H1413 H 0.50764 0.74799 0.86356 0.0
H1414 H 0.51486 0.78115 0.81632 0.0
H1415 H 0.48821 0.69366 0.81051 0.0
C1416 C 0.58037 0.92172 0.83702 0.0
C1417 C 0.56649 0.93781 0.85018 0.0
C1418 C 0.56416 0.86996 0.83402 0.0
C1419 C 0.53289 0.83067 0.84405 0.0
C1420 C 0.51905 0.84685 0.85729 0.0
C1421 C 0.53504 0.89872 0.8602 0.0
C1422 C 0.48764 0.68542 0.84842 0.0
C1423 C 0.48221 0.66783 0.83343 0.0
C1424 C 0.50328 0.737 0.85187 0.0
C1425 C 0.51461 0.77404 0.84055 0.0
C1426 C 0.50811 0.75579 0.82562 0.0
C1427 C 0.49227 0.70452 0.82221 0.0
H1428 H 0.69665 0.60557 0.998 0.0
H1429 H 0.63357 0.49744 0.03364 0.0
H1430 H 0.75918 0.5797 0.99321 0.0
H1431 H 0.69635 0.47071 0.02885 0.0
H1432 H 0.84624 0.4592 0.02356 0.0
H1433 H 0.78224 0.48371 0.02958 0.0
H1434 H 0.77782 0.51978 0.98306 0.0
H1435 H 0.83977 0.49437 0.97715 0.0
C1436 C 0.69576 0.57627 1.00491 0.0
C1437 C 0.65871 0.55441 0.01626 0.0
C1438 C 0.73208 0.56065 1.00206 0.0
C1439 C 0.73425 0.52219 0.01047 0.0
C1440 C 0.69745 0.50051 0.02199 0.0
C1441 C 0.6606 0.51586 0.02472 0.0
C1442 C 0.83149 0.47197 0.01455 0.0
C1443 C 0.85004 0.47488 0.99976 0.0
C1444 C 0.79422 0.48631 0.01803 0.0
C1445 C 0.77378 0.50496 1.00696 0.0
C1446 C 0.79214 0.50711 0.99222 0.0
C1447 C 0.82852 0.49222 0.98875 0.0
H1448 H 0.42766 0.81039 0.18103 0.0
H1449 H 0.37113 0.8704 0.14729 0.0
H1450 H 0.34092 0.74528 0.18686 0.0
H1451 H 0.28576 0.80587 0.15266 0.0
H1452 H 0.12628 0.7072 0.17124 0.0
H1453 H 0.21288 0.7704 0.16592 0.0
H1454 H 0.26383 0.67152 0.18355 0.0
H1455 H 0.17635 0.6083 0.18896 0.0
C1456 C 0.39717 0.80997 0.17469 0.0
C1457 C 0.40846 0.84712 0.16349 0.0
C1458 C 0.34644 0.77184 0.17803 0.0
C1459 C 0.30375 0.7686 0.17043 0.0
C1460 C 0.31555 0.80581 0.15922 0.0
C1461 C 0.36588 0.84354 0.15593 0.0
C1462 C 0.15547 0.69806 0.17376 0.0
C1463 C 0.14222 0.65084 0.18031 0.0
C1464 C 0.20641 0.73513 0.17069 0.0
C1465 C 0.24797 0.72774 0.17401 0.0
C1466 C 0.23466 0.6805 0.18074 0.0
C1467 C 0.18349 0.64334 0.18381 0.0
H1468 H 0.6038 0.36975 0.312 0.0
H1469 H 0.59349 0.4 0.35861 0.0
H1470 H 0.57852 0.28246 0.31796 0.0
H1471 H 0.56879 0.31203 0.36475 0.0
H1472 H 0.56087 0.15424 0.37275 0.0
H1473 H 0.58692 0.24296 0.36765 0.0
H1474 H 0.51385 0.20089 0.32454 0.0
H1475 H 0.48835 0.11299 0.32965 0.0
C1476 C 0.59614 0.3581 0.32362 0.0
C1477 C 0.60074 0.39362 0.33466 0.0
C1478 C 0.58121 0.30699 0.32711 0.0
C1479 C 0.57051 0.28781 0.34196 0.0
C1480 C 0.5765 0.32376 0.35314 0.0
C1481 C 0.59099 0.37506 0.3496 0.0
C1482 C 0.55028 0.16359 0.36212 0.0
C1483 C 0.52184 0.12446 0.35171 0.0
C1484 C 0.56515 0.21529 0.35918 0.0
C1485 C 0.55334 0.23134 0.34552 0.0
C1486 C 0.52501 0.19204 0.33514 0.0
C1487 C 0.5096 0.14045 0.33817 0.0
H1488 H 0.25178 0.77389 0.46879 0.0
H1489 H 0.18472 0.64766 0.43837 0.0
H1490 H 0.30381 0.82781 0.44821 0.0
H1491 H 0.23629 0.70125 0.41794 0.0
H1492 H 0.3047 0.82273 0.38057 0.0
H1493 H 0.25049 0.77047 0.40109 0.0
H1494 H 0.37468 0.84349 0.43202 0.0
H1495 H 0.42848 0.89523 0.41168 0.0
C1496 C 0.248 0.75745 0.45777 0.0
C1497 C 0.21388 0.70587 0.45549 0.0
C1498 C 0.27814 0.78848 0.44589 0.0
C1499 C 0.27475 0.76937 0.4312 0.0
C1500 C 0.24008 0.71797 0.42892 0.0
C1501 C 0.21058 0.68689 0.4408 0.0
C1502 C 0.32054 0.82767 0.39173 0.0
C1503 C 0.37153 0.86337 0.39423 0.0
C1504 C 0.28936 0.7974 0.40358 0.0
C1505 C 0.30772 0.80228 0.41843 0.0
C1506 C 0.35851 0.83852 0.42091 0.0
C1507 C 0.38974 0.86812 0.40908 0.0
H1508 H 0.56379 0.40985 0.57892 0.0
H1509 H 0.51561 0.28714 0.54746 0.0
H1510 H 0.56212 0.35547 0.59912 0.0
H1511 H 0.51395 0.23224 0.56789 0.0
H1512 H 0.56935 0.16435 0.60535 0.0
H1513 H 0.56783 0.21676 0.58492 0.0
H1514 H 0.5078 0.28473 0.61506 0.0
H1515 H 0.50929 0.23201 0.6356 0.0
C1516 C 0.5529 0.37122 0.57621 0.0
C1517 C 0.54018 0.3535 0.5613 0.0
C1518 C 0.55151 0.33963 0.58797 0.0
C1519 C 0.53786 0.28892 0.58537 0.0
C1520 C 0.52517 0.27104 0.57046 0.0
C1521 C 0.52592 0.30261 0.55867 0.0
C1522 C 0.55591 0.19052 0.60774 0.0
C1523 C 0.5398 0.19373 0.62238 0.0
C1524 C 0.55461 0.2205 0.59587 0.0
C1525 C 0.53771 0.25552 0.59811 0.0
C1526 C 0.52164 0.25884 0.61276 0.0
C1527 C 0.52231 0.2283 0.62462 0.0
H1528 H 0.4297 0.5491 0.77007 0.0
H1529 H 0.30856 0.51133 0.80139 0.0
H1530 H 0.37577 0.54727 0.74948 0.0
H1531 H 0.25465 0.50963 0.78079 0.0
H1532 H 0.18784 0.562 0.74282 0.0
H1533 H 0.24209 0.56321 0.76307 0.0
H1534 H 0.30182 0.49201 0.7341 0.0
H1535 H 0.24704 0.49062 0.71369 0.0
C1536 C 0.39164 0.54058 0.77265 0.0
C1537 C 0.37408 0.53065 0.78761 0.0
C1538 C 0.36034 0.53912 0.76072 0.0
C1539 C 0.31034 0.52833 0.76326 0.0
C1540 C 0.29288 0.51866 0.77824 0.0
C1541 C 0.32396 0.51944 0.79014 0.0
C1542 C 0.21258 0.54669 0.74062 0.0
C1543 C 0.21272 0.52643 0.72637 0.0
C1544 C 0.24367 0.54703 0.75241 0.0
C1545 C 0.27683 0.52766 0.75046 0.0
C1546 C 0.27739 0.50777 0.73616 0.0
C1547 C 0.24566 0.50679 0.72438 0.0
H1548 H 0.66006 0.16973 0.91075 0.0
H1549 H 0.78384 0.24602 0.87987 0.0
H1550 H 0.71255 0.22218 0.93118 0.0
H1551 H 0.83685 0.29853 0.90049 0.0
H1552 H 0.90407 0.41856 0.9379 0.0
H1553 H 0.85198 0.36589 0.91742 0.0
H1554 H 0.78156 0.23928 0.9476 0.0
H1555 H 0.83366 0.29241 0.96825 0.0
C1556 C 0.6985 0.19781 0.90822 0.0
C1557 C 0.71711 0.20339 0.89341 0.0
C1558 C 0.72902 0.22784 0.92011 0.0
C1559 C 0.77951 0.26509 0.91774 0.0
C1560 C 0.79817 0.27089 0.90291 0.0
C1561 C 0.76765 0.24048 0.89099 0.0
C1562 C 0.87738 0.37955 0.9403 0.0
C1563 C 0.87334 0.36031 0.95498 0.0
C1564 C 0.84757 0.34896 0.92839 0.0
C1565 C 0.81206 0.29776 0.93061 0.0
C1566 C 0.8078 0.27848 0.94531 0.0
C1567 C 0.83799 0.30908 0.95724 0.0
H1568 H 0.58513 0.83095 0.1345 0.0
H1569 H 0.51471 0.89038 0.10506 0.0
H1570 H 0.58397 0.776 0.11419 0.0
H1571 H 0.51373 0.83596 0.08491 0.0
H1572 H 0.56554 0.76884 0.04679 0.0
H1573 H 0.56709 0.82292 0.06731 0.0
H1574 H 0.52939 0.70213 0.09877 0.0
H1575 H 0.52773 0.64803 0.07826 0.0
C1576 C 0.5692 0.83234 0.12377 0.0
C1577 C 0.54978 0.86544 0.12167 0.0
C1578 C 0.56836 0.8005 0.11205 0.0
C1579 C 0.54884 0.80107 0.09768 0.0
C1580 C 0.52966 0.83435 0.09562 0.0
C1581 C 0.52986 0.86556 0.10735 0.0
C1582 C 0.5574 0.75355 0.05806 0.0
C1583 C 0.54622 0.70346 0.06064 0.0
C1584 C 0.55808 0.78473 0.06992 0.0
C1585 C 0.54833 0.76745 0.08492 0.0
C1586 C 0.5376 0.71747 0.08751 0.0
C1587 C 0.53625 0.68607 0.07563 0.0
H1588 H 0.6577 0.49722 0.27181 0.0
H1589 H 0.78795 0.56808 0.30066 0.0
H1590 H 0.71035 0.49768 0.25121 0.0
H1591 H 0.84098 0.56862 0.2799 0.0
H1592 H 0.91332 0.51522 0.24353 0.0
H1593 H 0.86109 0.51532 0.26424 0.0
H1594 H 0.77438 0.55114 0.23334 0.0
H1595 H 0.82674 0.55097 0.21255 0.0
C1596 C 0.69762 0.51286 0.27386 0.0
C1597 C 0.71805 0.53239 0.28815 0.0
C1598 C 0.72814 0.51349 0.26188 0.0
C1599 C 0.78044 0.53322 0.26365 0.0
C1600 C 0.80095 0.55256 0.27797 0.0
C1601 C 0.77041 0.55247 0.28995 0.0
C1602 C 0.88294 0.52281 0.24104 0.0
C1603 C 0.87445 0.53266 0.22613 0.0
C1604 C 0.85306 0.52336 0.25306 0.0
C1605 C 0.81301 0.53326 0.2507 0.0
C1606 C 0.80427 0.54277 0.23576 0.0
C1607 C 0.83458 0.54281 0.22374 0.0
H1608 H 0.84105 0.456 0.422 0.0
H1609 H 0.90287 0.37047 0.44334 0.0
H1610 H 0.75957 0.37918 0.4203 0.0
H1611 H 0.82151 0.29754 0.44351 0.0
H1612 H 0.70561 0.16248 0.42112 0.0
H1613 H 0.77906 0.24366 0.42372 0.0
H1614 H 0.68547 0.31079 0.43251 0.0
H1615 H 0.61039 0.22883 0.42833 0.0
C1616 C 0.83743 0.42151 0.42657 0.0
C1617 C 0.87936 0.41997 0.43263 0.0
C1618 C 0.79044 0.3777 0.42583 0.0
C1619 C 0.78449 0.33203 0.43143 0.0
C1620 C 0.82518 0.33172 0.43863 0.0
C1621 C 0.87207 0.37448 0.43886 0.0
C1622 C 0.7002 0.19446 0.42323 0.0
C1623 C 0.65191 0.18904 0.42435 0.0
C1624 C 0.74259 0.24111 0.42507 0.0
C1625 C 0.73817 0.28357 0.42869 0.0
C1626 C 0.69001 0.27867 0.42975 0.0
C1627 C 0.64711 0.23169 0.42755 0.0
H1628 H 0.41845 0.81457 0.59039 0.0
H1629 H 0.54404 0.86795 0.62138 0.0
H1630 H 0.40957 0.7309 0.59154 0.0
H1631 H 0.53059 0.78412 0.62385 0.0
H1632 H 0.5647 0.67219 0.60041 0.0
H1633 H 0.5561 0.74526 0.60564 0.0
H1634 H 0.39392 0.65344 0.60402 0.0
H1635 H 0.40296 0.57991 0.59794 0.0
C1636 C 0.44342 0.80865 0.59769 0.0
C1637 C 0.48321 0.84917 0.60531 0.0
C1638 C 0.43754 0.76027 0.59859 0.0
C1639 C 0.47052 0.75137 0.60743 0.0
C1640 C 0.50569 0.79022 0.61654 0.0
C1641 C 0.51272 0.83861 0.61528 0.0
C1642 C 0.52719 0.66752 0.60114 0.0
C1643 C 0.48456 0.62061 0.59856 0.0
C1644 C 0.52212 0.70927 0.60441 0.0
C1645 C 0.47422 0.70512 0.60541 0.0
C1646 C 0.4313 0.6578 0.60328 0.0
C1647 C 0.43645 0.61576 0.59991 0.0
H1648 H 0.63874 0.4113 0.76303 0.0
H1649 H 0.717 0.54306 0.79132 0.0
H1650 H 0.71151 0.39893 0.76409 0.0
H1651 H 0.7862 0.52685 0.79378 0.0
H1652 H 0.92613 0.54862 0.769 0.0
H1653 H 0.84781 0.5454 0.7755 0.0
H1654 H 0.77273 0.38261 0.77588 0.0
H1655 H 0.85168 0.38612 0.76844 0.0
C1656 C 0.67072 0.43697 0.76974 0.0
C1657 C 0.67231 0.47938 0.77657 0.0
C1658 C 0.71213 0.42919 0.77061 0.0
C1659 C 0.75537 0.46295 0.77864 0.0
C1660 C 0.75416 0.50121 0.78706 0.0
C1661 C 0.71365 0.50994 0.78583 0.0
C1662 C 0.89294 0.51211 0.77044 0.0
C1663 C 0.89475 0.46768 0.76793 0.0
C1664 C 0.84806 0.51016 0.77447 0.0
C1665 C 0.80384 0.46366 0.77631 0.0
C1666 C 0.80605 0.419 0.77444 0.0
C1667 C 0.85123 0.421 0.77029 0.0
H1668 H 0.39418 0.90791 0.92805 0.0
H1669 H 0.48716 0.8374 0.92969 0.0
H1670 H 0.32083 0.82837 0.93363 0.0
H1671 H 0.41336 0.7574 0.93646 0.0
H1672 H 0.2554 0.61741 0.92551 0.0
H1673 H 0.33771 0.69269 0.92514 0.0
H1674 H 0.28022 0.76983 0.95261 0.0
H1675 H 0.19747 0.69825 0.95136 0.0
C1676 C 0.39898 0.87534 0.9297 0.0
C1677 C 0.44631 0.87878 0.9282 0.0
C1678 C 0.35697 0.82976 0.93323 0.0
C1679 C 0.36123 0.78648 0.9357 0.0
C1680 C 0.40882 0.79001 0.93457 0.0
C1681 C 0.45107 0.83584 0.93083 0.0
C1682 C 0.26009 0.65052 0.93137 0.0
C1683 C 0.21876 0.65164 0.93802 0.0
C1684 C 0.3077 0.69344 0.93141 0.0
C1685 C 0.31509 0.73778 0.93846 0.0
C1686 C 0.27534 0.73684 0.94661 0.0
C1687 C 0.22765 0.69487 0.94613 0.0
H1688 H 0.69335 0.22736 0.07858 0.0
H1689 H 0.53084 0.15199 0.07772 0.0
H1690 H 0.69643 0.30608 0.07108 0.0
H1691 H 0.5336 0.23005 0.07115 0.0
H1692 H 0.53489 0.36094 0.05597 0.0
H1693 H 0.55185 0.2923 0.05316 0.0
H1694 H 0.67964 0.36669 0.08292 0.0
H1695 H 0.66649 0.43889 0.08434 0.0
C1696 C 0.65838 0.22756 0.07663 0.0
C1697 C 0.61182 0.18386 0.07897 0.0
C1698 C 0.66012 0.27261 0.07245 0.0
C1699 C 0.61533 0.27454 0.07051 0.0
C1700 C 0.56896 0.23007 0.07224 0.0
C1701 C 0.56727 0.18532 0.07631 0.0
C1702 C 0.56813 0.36435 0.0614 0.0
C1703 C 0.59837 0.40535 0.07081 0.0
C1704 C 0.57731 0.32416 0.05997 0.0
C1705 C 0.61573 0.32295 0.06832 0.0
C1706 C 0.64925 0.36602 0.07645 0.0
C1707 C 0.64101 0.40711 0.07753 0.0
H1708 H 0.45143 0.64494 0.25772 0.0
H1709 H 0.37551 0.50889 0.28436 0.0
H1710 H 0.37637 0.65366 0.25895 0.0
H1711 H 0.30407 0.52128 0.287 0.0
H1712 H 0.23501 0.66326 0.2661 0.0
H1713 H 0.31493 0.66695 0.27221 0.0
H1714 H 0.24205 0.50462 0.26897 0.0
H1715 H 0.16265 0.50106 0.26381 0.0
C1716 C 0.41945 0.61751 0.26409 0.0
C1717 C 0.41959 0.57555 0.27061 0.0
C1718 C 0.37674 0.62313 0.26504 0.0
C1719 C 0.33383 0.58744 0.27279 0.0
C1720 C 0.336 0.54862 0.28058 0.0
C1721 C 0.37779 0.54212 0.27926 0.0
C1722 C 0.23611 0.62847 0.26705 0.0
C1723 C 0.19287 0.58192 0.26428 0.0
C1724 C 0.28187 0.63059 0.27042 0.0
C1725 C 0.28495 0.58615 0.27107 0.0
C1726 C 0.24107 0.53962 0.26884 0.0
C1727 C 0.19558 0.53754 0.26561 0.0
loop_
_geom_bond_atom_site_label_1
_geom_bond_atom_site_label_2
_geom_bond_distance
_geom_bond_site_symmetry_2
_ccdc_geom_bond_type
Eu0 N29 2.600 1_565 S
Eu0 N35 2.562 . S
Eu0 O44 2.462 . S
Eu0 O45 2.373 1_565 S
Eu0 O47 2.432 . S
Eu0 O48 2.291 . S
Eu0 O52 2.335 . S
Eu0 O55 2.372 1_565 S
Eu0 C64 2.787 . S
C1 N2 1.365 . S
C1 C4 1.405 . S
C1 C8 1.448 . S
N2 C1 1.365 . S
N2 C5 1.319 . S
N2 Eu11 2.600 1_565 S
C3 C5 1.397 . S
C3 C6 1.367 . S
C3 H23 0.931 . S
C4 C1 1.405 . S
C4 C6 1.403 . S
C4 C10 1.439 . S
C5 N2 1.319 . S
C5 C3 1.397 . S
C5 H16 0.930 . S
C6 C3 1.367 . S
C6 C4 1.403 . S
C6 H27 0.929 . S
C7 C8 1.430 . S
C7 C9 1.387 . S
C7 C13 1.404 1_565 S
C8 C1 1.448 . S
C8 C7 1.430 . S
C8 N12 1.351 1_565 S
C9 C7 1.387 . S
C9 C10 1.374 . S
C9 H24 0.931 . S
C10 C4 1.439 . S
C10 C9 1.374 . S
C10 H25 0.931 . S
Eu11 N2 2.600 1_545 S
Eu11 N12 2.562 . S
Eu11 O46 2.335 . S
Eu11 O49 2.372 1_545 S
Eu11 O50 2.462 . S
Eu11 O51 2.373 1_545 S
Eu11 O53 2.432 . S
Eu11 O54 2.291 . S
Eu11 C75 2.787 . S
N12 C8 1.351 1_545 S
N12 Eu11 2.562 . S
N12 C14 1.325 . S
C13 C7 1.404 1_545 S
C13 C15 1.366 . S
C13 H21 0.930 . S
C14 N12 1.325 . S
C14 C15 1.416 . S
C14 H20 0.929 . S
C15 C13 1.366 . S
C15 C14 1.416 . S
C15 H17 0.930 . S
H16 C5 0.930 . S
H17 C15 0.930 . S
H18 C33 0.930 . S
H19 C40 0.930 . S
H20 C14 0.929 . S
H21 C13 0.930 . S
H22 C36 0.929 . S
H23 C3 0.931 . S
H24 C9 0.931 . S
H25 C10 0.931 . S
H26 C31 0.931 . S
H27 C6 0.929 . S
H28 C39 0.930 . S
N29 Eu0 2.600 1_545 S
N29 C30 1.365 . S
N29 C33 1.319 . S
C30 N29 1.365 . S
C30 C32 1.405 . S
C30 C38 1.448 . S
C31 H26 0.931 . S
C31 C33 1.397 . S
C31 C34 1.367 . S
C32 C30 1.405 . S
C32 C34 1.403 . S
C32 C65 1.439 . S
C33 H18 0.930 . S
C33 N29 1.319 . S
C33 C31 1.397 . S
C34 C31 1.367 . S
C34 C32 1.403 . S
C34 H41 0.929 . S
N35 Eu0 2.562 . S
N35 C36 1.325 . S
N35 C38 1.351 1_565 S
C36 H22 0.929 . S
C36 N35 1.325 . S
C36 C40 1.416 . S
C37 C38 1.430 . S
C37 C39 1.404 1_545 S
C37 C66 1.387 . S
C38 C30 1.448 . S
C38 N35 1.351 1_545 S
C38 C37 1.430 . S
C39 H28 0.930 . S
C39 C37 1.404 1_565 S
C39 C40 1.366 . S
C40 H19 0.930 . S
C40 C36 1.416 . S
C40 C39 1.366 . S
H41 C34 0.929 . S
H42 C65 0.931 . S
H43 C66 0.931 . S
O44 Eu0 2.462 . S
O44 C64 1.252 . S
O45 Eu0 2.373 1_545 S
O45 C56 1.249 . S
O46 Eu11 2.335 . S
O46 C56 1.264 . S
O47 Eu0 2.432 . S
O47 C64 1.268 . S
O48 Eu0 2.291 . S
O48 C63 1.255 . S
O49 Eu11 2.372 1_565 S
O49 C63 1.257 . S
O50 Eu11 2.462 . S
O50 C75 1.252 . S
O51 Eu11 2.373 1_565 S
O51 C67 1.249 . S
O52 Eu0 2.335 . S
O52 C67 1.264 . S
O53 Eu11 2.432 . S
O53 C75 1.268 . S
O54 Eu11 2.291 . S
O54 C74 1.255 . S
O55 Eu0 2.372 1_545 S
O55 C74 1.257 . S
C56 O45 1.249 . S
C56 O46 1.264 . S
C57 C60 1.382 . S
C57 C62 1.390 . S
C57 C64 1.506 . S
C58 C59 1.398 . S
C58 C62 1.392 . S
C59 C58 1.398 . S
C59 C61 1.372 . S
C59 H76 0.931 . S
C60 C57 1.382 . S
C60 C61 1.390 . S
C60 H77 0.931 . S
C61 C59 1.372 . S
C61 C60 1.390 . S
C61 H78 0.929 . S
C62 C57 1.390 . S
C62 C58 1.392 . S
C62 H79 0.930 . S
C63 O48 1.255 . S
C63 O49 1.257 . S
C64 Eu0 2.787 . S
C64 O44 1.252 . S
C64 O47 1.268 . S
C64 C57 1.506 . S
C65 C32 1.439 . S
C65 H42 0.931 . S
C65 C66 1.374 . S
C66 C37 1.387 . S
C66 H43 0.931 . S
C66 C65 1.374 . S
C67 O51 1.249 . S
C67 O52 1.264 . S
C68 C71 1.382 . S
C68 C72 1.390 . S
C68 C75 1.506 . S
C69 C70 1.398 . S
C69 C72 1.392 . S
C70 C69 1.398 . S
C70 C73 1.372 . S
C70 H80 0.931 . S
C71 C68 1.382 . S
C71 C73 1.390 . S
C71 H81 0.931 . S
C72 C68 1.390 . S
C72 C69 1.392 . S
C72 H82 0.930 . S
C73 C70 1.372 . S
C73 C71 1.390 . S
C73 H83 0.929 . S
C74 O54 1.255 . S
C74 O55 1.257 . S
C75 Eu11 2.787 . S
C75 O50 1.252 . S
C75 O53 1.268 . S
C75 C68 1.506 . S
H76 C59 0.931 . S
H77 C60 0.931 . S
H78 C61 0.929 . S
H79 C62 0.930 . S
H80 C70 0.931 . S
H81 C71 0.931 . S
H82 C72 0.930 . S
H83 C73 0.929 . S
Eu84 N113 2.600 . S
Eu84 N119 2.562 . S
Eu84 O128 2.462 . S
Eu84 O129 2.373 . S
Eu84 O131 2.432 . S
Eu84 O132 2.291 . S
Eu84 O136 2.335 . S
Eu84 O139 2.372 . S
Eu84 C148 2.787 . S
C85 N86 1.365 . S
C85 C88 1.405 . S
C85 C92 1.448 . S
N86 C85 1.365 . S
N86 C89 1.319 . S
N86 Eu95 2.600 . S
C87 C89 1.397 . S
C87 C90 1.367 . S
C87 H107 0.931 . S
C88 C85 1.405 . S
C88 C90 1.403 . S
C88 C94 1.439 . S
C89 N86 1.319 . S
C89 C87 1.397 . S
C89 H100 0.930 . S
C90 C87 1.367 . S
C90 C88 1.403 . S
C90 H111 0.929 . S
C91 C92 1.430 . S
C91 C93 1.387 . S
C91 C97 1.404 . S
C92 C85 1.448 . S
C92 C91 1.430 . S
C92 N96 1.351 . S
C93 C91 1.387 . S
C93 C94 1.374 . S
C93 H108 0.931 . S
C94 C88 1.439 . S
C94 C93 1.374 . S
C94 H109 0.931 . S
Eu95 N86 2.600 . S
Eu95 N96 2.562 . S
Eu95 O130 2.335 . S
Eu95 O133 2.372 . S
Eu95 O134 2.462 . S
Eu95 O135 2.373 . S
Eu95 O137 2.432 . S
Eu95 O138 2.291 . S
Eu95 C159 2.787 . S
N96 C92 1.351 . S
N96 Eu95 2.562 . S
N96 C98 1.325 . S
C97 C91 1.404 . S
C97 C99 1.366 . S
C97 H105 0.930 . S
C98 N96 1.325 . S
C98 C99 1.416 . S
C98 H104 0.929 . S
C99 C97 1.366 . S
C99 C98 1.416 . S
C99 H101 0.930 . S
H100 C89 0.930 . S
H101 C99 0.930 . S
H102 C117 0.930 . S
H103 C124 0.930 . S
H104 C98 0.929 . S
H105 C97 0.930 . S
H106 C120 0.929 . S
H107 C87 0.931 . S
H108 C93 0.931 . S
H109 C94 0.931 . S
H110 C115 0.931 . S
H111 C90 0.929 . S
H112 C123 0.930 . S
N113 Eu84 2.600 . S
N113 C114 1.365 . S
N113 C117 1.319 . S
C114 N113 1.365 . S
C114 C116 1.405 . S
C114 C122 1.448 . S
C115 H110 0.931 . S
C115 C117 1.397 . S
C115 C118 1.367 . S
C116 C114 1.405 . S
C116 C118 1.403 . S
C116 C149 1.439 . S
C117 H102 0.930 . S
C117 N113 1.319 . S
C117 C115 1.397 . S
C118 C115 1.367 . S
C118 C116 1.403 . S
C118 H125 0.929 . S
N119 Eu84 2.562 . S
N119 C120 1.325 . S
N119 C122 1.351 . S
C120 H106 0.929 . S
C120 N119 1.325 . S
C120 C124 1.416 . S
C121 C122 1.430 . S
C121 C123 1.404 . S
C121 C150 1.387 . S
C122 C114 1.448 . S
C122 N119 1.351 . S
C122 C121 1.430 . S
C123 H112 0.930 . S
C123 C121 1.404 . S
C123 C124 1.366 . S
C124 H103 0.930 . S
C124 C120 1.416 . S
C124 C123 1.366 . S
H125 C118 0.929 . S
H126 C149 0.931 . S
H127 C150 0.931 . S
O128 Eu84 2.462 . S
O128 C148 1.252 . S
O129 Eu84 2.373 . S
O129 C140 1.249 . S
O130 Eu95 2.335 . S
O130 C140 1.264 . S
O131 Eu84 2.432 . S
O131 C148 1.268 . S
O132 Eu84 2.291 . S
O132 C147 1.255 . S
O133 Eu95 2.372 . S
O133 C147 1.257 . S
O134 Eu95 2.462 . S
O134 C159 1.252 . S
O135 Eu95 2.373 . S
O135 C151 1.249 . S
O136 Eu84 2.335 . S
O136 C151 1.264 . S
O137 Eu95 2.432 . S
O137 C159 1.268 . S
O138 Eu95 2.291 . S
O138 C158 1.255 . S
O139 Eu84 2.372 . S
O139 C158 1.257 . S
C140 O129 1.249 . S
C140 O130 1.264 . S
C141 C144 1.382 . S
C141 C146 1.390 . S
C141 C148 1.506 . S
C142 C143 1.398 . S
C142 C146 1.392 . S
C143 C142 1.398 . S
C143 C145 1.372 . S
C143 H160 0.931 . S
C144 C141 1.382 . S
C144 C145 1.390 . S
C144 H161 0.931 . S
C145 C143 1.372 . S
C145 C144 1.390 . S
C145 H162 0.929 . S
C146 C141 1.390 . S
C146 C142 1.392 . S
C146 H163 0.930 . S
C147 O132 1.255 . S
C147 O133 1.257 . S
C148 Eu84 2.787 . S
C148 O128 1.252 . S
C148 O131 1.268 . S
C148 C141 1.506 . S
C149 C116 1.439 . S
C149 H126 0.931 . S
C149 C150 1.374 . S
C150 C121 1.387 . S
C150 H127 0.931 . S
C150 C149 1.374 . S
C151 O135 1.249 . S
C151 O136 1.264 . S
C152 C155 1.382 . S
C152 C156 1.390 . S
C152 C159 1.506 . S
C153 C154 1.398 . S
C153 C156 1.392 . S
C154 C153 1.398 . S
C154 C157 1.372 . S
C154 H164 0.931 . S
C155 C152 1.382 . S
C155 C157 1.390 . S
C155 H165 0.931 . S
C156 C152 1.390 . S
C156 C153 1.392 . S
C156 H166 0.930 . S
C157 C154 1.372 . S
C157 C155 1.390 . S
C157 H167 0.929 . S
C158 O138 1.255 . S
C158 O139 1.257 . S
C159 Eu95 2.787 . S
C159 O134 1.252 . S
C159 O137 1.268 . S
C159 C152 1.506 . S
H160 C143 0.931 . S
H161 C144 0.931 . S
H162 C145 0.929 . S
H163 C146 0.930 . S
H164 C154 0.931 . S
H165 C155 0.931 . S
H166 C156 0.930 . S
H167 C157 0.929 . S
Eu168 N197 2.600 1_455 S
Eu168 N203 2.562 . S
Eu168 O212 2.462 . S
Eu168 O213 2.373 1_455 S
Eu168 O215 2.432 . S
Eu168 O216 2.291 . S
Eu168 O220 2.335 . S
Eu168 O223 2.372 1_455 S
Eu168 C232 2.787 . S
C169 N170 1.365 . S
C169 C172 1.405 . S
C169 C176 1.448 . S
N170 C169 1.365 . S
N170 C173 1.319 . S
N170 Eu179 2.600 1_455 S
C171 C173 1.397 . S
C171 C174 1.367 . S
C171 H191 0.931 . S
C172 C169 1.405 . S
C172 C174 1.403 . S
C172 C178 1.439 . S
C173 N170 1.319 . S
C173 C171 1.397 . S
C173 H184 0.930 . S
C174 C171 1.367 . S
C174 C172 1.403 . S
C174 H195 0.929 . S
C175 C176 1.430 . S
C175 C177 1.387 . S
C175 C181 1.404 1_455 S
C176 C169 1.448 . S
C176 C175 1.430 . S
C176 N180 1.351 1_455 S
C177 C175 1.387 . S
C177 C178 1.374 . S
C177 H192 0.931 . S
C178 C172 1.439 . S
C178 C177 1.374 . S
C178 H193 0.931 . S
Eu179 N170 2.600 1_655 S
Eu179 N180 2.562 . S
Eu179 O214 2.335 . S
Eu179 O217 2.372 1_655 S
Eu179 O218 2.462 . S
Eu179 O219 2.373 1_655 S
Eu179 O221 2.432 . S
Eu179 O222 2.291 . S
Eu179 C243 2.787 . S
N180 C176 1.351 1_655 S
N180 Eu179 2.562 . S
N180 C182 1.325 . S
C181 C175 1.404 1_655 S
C181 C183 1.366 . S
C181 H189 0.930 . S
C182 N180 1.325 . S
C182 C183 1.416 . S
C182 H188 0.929 . S
C183 C181 1.366 . S
C183 C182 1.416 . S
C183 H185 0.930 . S
H184 C173 0.930 . S
H185 C183 0.930 . S
H186 C201 0.930 . S
H187 C208 0.930 . S
H188 C182 0.929 . S
H189 C181 0.930 . S
H190 C204 0.929 . S
H191 C171 0.931 . S
H192 C177 0.931 . S
H193 C178 0.931 . S
H194 C199 0.931 . S
H195 C174 0.929 . S
H196 C207 0.930 . S
N197 Eu168 2.600 1_655 S
N197 C198 1.365 . S
N197 C201 1.319 . S
C198 N197 1.365 . S
C198 C200 1.405 . S
C198 C206 1.448 . S
C199 H194 0.931 . S
C199 C201 1.397 . S
C199 C202 1.367 . S
C200 C198 1.405 . S
C200 C202 1.403 . S
C200 C233 1.439 . S
C201 H186 0.930 . S
C201 N197 1.319 . S
C201 C199 1.397 . S
C202 C199 1.367 . S
C202 C200 1.403 . S
C202 H209 0.929 . S
N203 Eu168 2.562 . S
N203 C204 1.325 . S
N203 C206 1.351 1_455 S
C204 H190 0.929 . S
C204 N203 1.325 . S
C204 C208 1.416 . S
C205 C206 1.430 . S
C205 C207 1.404 1_655 S
C205 C234 1.387 . S
C206 C198 1.448 . S
C206 N203 1.351 1_655 S
C206 C205 1.430 . S
C207 H196 0.930 . S
C207 C205 1.404 1_455 S
C207 C208 1.366 . S
C208 H187 0.930 . S
C208 C204 1.416 . S
C208 C207 1.366 . S
H209 C202 0.929 . S
H210 C233 0.931 . S
H211 C234 0.931 . S
O212 Eu168 2.462 . S
O212 C232 1.252 . S
O213 Eu168 2.373 1_655 S
O213 C224 1.249 . S
O214 Eu179 2.335 . S
O214 C224 1.264 . S
O215 Eu168 2.432 . S
O215 C232 1.268 . S
O216 Eu168 2.291 . S
O216 C231 1.255 . S
O217 Eu179 2.372 1_455 S
O217 C231 1.257 . S
O218 Eu179 2.462 . S
O218 C243 1.252 . S
O219 Eu179 2.373 1_455 S
O219 C235 1.249 . S
O220 Eu168 2.335 . S
O220 C235 1.264 . S
O221 Eu179 2.432 . S
O221 C243 1.268 . S
O222 Eu179 2.291 . S
O222 C242 1.255 . S
O223 Eu168 2.372 1_655 S
O223 C242 1.257 . S
C224 O213 1.249 . S
C224 O214 1.264 . S
C225 C228 1.382 . S
C225 C230 1.390 . S
C225 C232 1.506 . S
C226 C227 1.398 . S
C226 C230 1.392 . S
C227 C226 1.398 . S
C227 C229 1.372 . S
C227 H244 0.931 . S
C228 C225 1.382 . S
C228 C229 1.390 . S
C228 H245 0.931 . S
C229 C227 1.372 . S
C229 C228 1.390 . S
C229 H246 0.929 . S
C230 C225 1.390 . S
C230 C226 1.392 . S
C230 H247 0.930 . S
C231 O216 1.255 . S
C231 O217 1.257 . S
C232 Eu168 2.787 . S
C232 O212 1.252 . S
C232 O215 1.268 . S
C232 C225 1.506 . S
C233 C200 1.439 . S
C233 H210 0.931 . S
C233 C234 1.374 . S
C234 C205 1.387 . S
C234 H211 0.931 . S
C234 C233 1.374 . S
C235 O219 1.249 . S
C235 O220 1.264 . S
C236 C239 1.382 . S
C236 C240 1.390 . S
C236 C243 1.506 . S
C237 C238 1.398 . S
C237 C240 1.392 . S
C238 C237 1.398 . S
C238 C241 1.372 . S
C238 H248 0.931 . S
C239 C236 1.382 . S
C239 C241 1.390 . S
C239 H249 0.931 . S
C240 C236 1.390 . S
C240 C237 1.392 . S
C240 H250 0.930 . S
C241 C238 1.372 . S
C241 C239 1.390 . S
C241 H251 0.929 . S
C242 O222 1.255 . S
C242 O223 1.257 . S
C243 Eu179 2.787 . S
C243 O218 1.252 . S
C243 O221 1.268 . S
C243 C236 1.506 . S
H244 C227 0.931 . S
H245 C228 0.931 . S
H246 C229 0.929 . S
H247 C230 0.930 . S
H248 C238 0.931 . S
H249 C239 0.931 . S
H250 C240 0.930 . S
H251 C241 0.929 . S
Eu252 N281 2.600 1_545 S
Eu252 N287 2.562 . S
Eu252 O296 2.462 . S
Eu252 O297 2.373 1_545 S
Eu252 O299 2.432 . S
Eu252 O300 2.291 . S
Eu252 O304 2.335 . S
Eu252 O307 2.372 1_545 S
Eu252 C316 2.787 . S
C253 N254 1.365 . S
C253 C256 1.405 . S
C253 C260 1.448 . S
N254 C253 1.365 . S
N254 C257 1.319 . S
N254 Eu263 2.600 1_545 S
C255 C257 1.397 . S
C255 C258 1.367 . S
C255 H275 0.931 . S
C256 C253 1.405 . S
C256 C258 1.403 . S
C256 C262 1.439 . S
C257 N254 1.319 . S
C257 C255 1.397 . S
C257 H268 0.930 . S
C258 C255 1.367 . S
C258 C256 1.403 . S
C258 H279 0.929 . S
C259 C260 1.430 . S
C259 C261 1.387 . S
C259 C265 1.404 1_545 S
C260 C253 1.448 . S
C260 C259 1.430 . S
C260 N264 1.351 1_545 S
C261 C259 1.387 . S
C261 C262 1.374 . S
C261 H276 0.931 . S
C262 C256 1.439 . S
C262 C261 1.374 . S
C262 H277 0.931 . S
Eu263 N254 2.600 1_565 S
Eu263 N264 2.562 . S
Eu263 O298 2.335 . S
Eu263 O301 2.372 1_565 S
Eu263 O302 2.462 . S
Eu263 O303 2.373 1_565 S
Eu263 O305 2.432 . S
Eu263 O306 2.291 . S
Eu263 C327 2.787 . S
N264 C260 1.351 1_565 S
N264 Eu263 2.562 . S
N264 C266 1.325 . S
C265 C259 1.404 1_565 S
C265 C267 1.366 . S
C265 H273 0.930 . S
C266 N264 1.325 . S
C266 C267 1.416 . S
C266 H272 0.929 . S
C267 C265 1.366 . S
C267 C266 1.416 . S
C267 H269 0.930 . S
H268 C257 0.930 . S
H269 C267 0.930 . S
H270 C285 0.930 . S
H271 C292 0.930 . S
H272 C266 0.929 . S
H273 C265 0.930 . S
H274 C288 0.929 . S
H275 C255 0.931 . S
H276 C261 0.931 . S
H277 C262 0.931 . S
H278 C283 0.931 . S
H279 C258 0.929 . S
H280 C291 0.930 . S
N281 Eu252 2.600 1_565 S
N281 C282 1.365 . S
N281 C285 1.319 . S
C282 N281 1.365 . S
C282 C284 1.405 . S
C282 C290 1.448 . S
C283 H278 0.931 . S
C283 C285 1.397 . S
C283 C286 1.367 . S
C284 C282 1.405 . S
C284 C286 1.403 . S
C284 C317 1.439 . S
C285 H270 0.930 . S
C285 N281 1.319 . S
C285 C283 1.397 . S
C286 C283 1.367 . S
C286 C284 1.403 . S
C286 H293 0.929 . S
N287 Eu252 2.562 . S
N287 C288 1.325 . S
N287 C290 1.351 1_545 S
C288 H274 0.929 . S
C288 N287 1.325 . S
C288 C292 1.416 . S
C289 C290 1.430 . S
C289 C291 1.404 1_565 S
C289 C318 1.387 . S
C290 C282 1.448 . S
C290 N287 1.351 1_565 S
C290 C289 1.430 . S
C291 H280 0.930 . S
C291 C289 1.404 1_545 S
C291 C292 1.366 . S
C292 H271 0.930 . S
C292 C288 1.416 . S
C292 C291 1.366 . S
H293 C286 0.929 . S
H294 C317 0.931 . S
H295 C318 0.931 . S
O296 Eu252 2.462 . S
O296 C316 1.252 . S
O297 Eu252 2.373 1_565 S
O297 C308 1.249 . S
O298 Eu263 2.335 . S
O298 C308 1.264 . S
O299 Eu252 2.432 . S
O299 C316 1.268 . S
O300 Eu252 2.291 . S
O300 C315 1.255 . S
O301 Eu263 2.372 1_545 S
O301 C315 1.257 . S
O302 Eu263 2.462 . S
O302 C327 1.252 . S
O303 Eu263 2.373 1_545 S
O303 C319 1.249 . S
O304 Eu252 2.335 . S
O304 C319 1.264 . S
O305 Eu263 2.432 . S
O305 C327 1.268 . S
O306 Eu263 2.291 . S
O306 C326 1.255 . S
O307 Eu252 2.372 1_565 S
O307 C326 1.257 . S
C308 O297 1.249 . S
C308 O298 1.264 . S
C309 C312 1.382 . S
C309 C314 1.390 . S
C309 C316 1.506 . S
C310 C311 1.398 . S
C310 C314 1.392 . S
C311 C310 1.398 . S
C311 C313 1.372 . S
C311 H328 0.931 . S
C312 C309 1.382 . S
C312 C313 1.390 . S
C312 H329 0.931 . S
C313 C311 1.372 . S
C313 C312 1.390 . S
C313 H330 0.929 . S
C314 C309 1.390 . S
C314 C310 1.392 . S
C314 H331 0.930 . S
C315 O300 1.255 . S
C315 O301 1.257 . S
C316 Eu252 2.787 . S
C316 O296 1.252 . S
C316 O299 1.268 . S
C316 C309 1.506 . S
C317 C284 1.439 . S
C317 H294 0.931 . S
C317 C318 1.374 . S
C318 C289 1.387 . S
C318 H295 0.931 . S
C318 C317 1.374 . S
C319 O303 1.249 . S
C319 O304 1.264 . S
C320 C323 1.382 . S
C320 C324 1.390 . S
C320 C327 1.506 . S
C321 C322 1.398 . S
C321 C324 1.392 . S
C322 C321 1.398 . S
C322 C325 1.372 . S
C322 H332 0.931 . S
C323 C320 1.382 . S
C323 C325 1.390 . S
C323 H333 0.931 . S
C324 C320 1.390 . S
C324 C321 1.392 . S
C324 H334 0.930 . S
C325 C322 1.372 . S
C325 C323 1.390 . S
C325 H335 0.929 . S
C326 O306 1.255 . S
C326 O307 1.257 . S
C327 Eu263 2.787 . S
C327 O302 1.252 . S
C327 O305 1.268 . S
C327 C320 1.506 . S
H328 C311 0.931 . S
H329 C312 0.931 . S
H330 C313 0.929 . S
H331 C314 0.930 . S
H332 C322 0.931 . S
H333 C323 0.931 . S
H334 C324 0.930 . S
H335 C325 0.929 . S
Eu336 N365 2.600 . S
Eu336 N371 2.562 . S
Eu336 O380 2.462 . S
Eu336 O381 2.373 . S
Eu336 O383 2.432 1_554 S
Eu336 O384 2.291 . S
Eu336 O388 2.335 . S
Eu336 O391 2.372 . S
Eu336 C400 2.787 1_554 S
C337 N338 1.365 . S
C337 C340 1.405 . S
C337 C344 1.448 . S
N338 C337 1.365 . S
N338 C341 1.319 . S
N338 Eu347 2.600 . S
C339 C341 1.397 . S
C339 C342 1.367 . S
C339 H359 0.931 . S
C340 C337 1.405 . S
C340 C342 1.403 . S
C340 C346 1.439 . S
C341 N338 1.319 . S
C341 C339 1.397 . S
C341 H352 0.930 . S
C342 C339 1.367 . S
C342 C340 1.403 . S
C342 H363 0.929 . S
C343 C344 1.430 . S
C343 C345 1.387 . S
C343 C349 1.404 . S
C344 C337 1.448 . S
C344 C343 1.430 . S
C344 N348 1.351 . S
C345 C343 1.387 . S
C345 C346 1.374 . S
C345 H360 0.931 . S
C346 C340 1.439 . S
C346 C345 1.374 . S
C346 H361 0.931 . S
Eu347 N338 2.600 . S
Eu347 N348 2.562 . S
Eu347 O382 2.335 . S
Eu347 O385 2.372 . S
Eu347 O386 2.462 . S
Eu347 O387 2.373 . S
Eu347 O389 2.432 . S
Eu347 O390 2.291 . S
Eu347 C411 2.787 . S
N348 C344 1.351 . S
N348 Eu347 2.562 . S
N348 C350 1.325 . S
C349 C343 1.404 . S
C349 C351 1.366 . S
C349 H357 0.930 . S
C350 N348 1.325 . S
C350 C351 1.416 . S
C350 H356 0.929 . S
C351 C349 1.366 . S
C351 C350 1.416 . S
C351 H353 0.930 . S
H352 C341 0.930 . S
H353 C351 0.930 . S
H354 C369 0.949 . S
H355 C376 0.930 . S
H356 C350 0.929 . S
H357 C349 0.930 . S
H358 C372 0.929 . S
H359 C339 0.931 . S
H360 C345 0.931 . S
H361 C346 0.931 . S
H362 C367 0.931 . S
H363 C342 0.929 . S
H364 C375 0.930 . S
N365 Eu336 2.600 . S
N365 C366 1.365 . S
N365 C369 1.291 1_554 S
C366 N365 1.365 . S
C366 C368 1.405 . S
C366 C374 1.448 . S
C367 H362 0.931 . S
C367 C369 1.409 . S
C367 C370 1.367 1_556 S
C368 C366 1.405 . S
C368 C370 1.403 . S
C368 C401 1.439 . S
C369 H354 0.949 . S
C369 N365 1.291 1_556 S
C369 C367 1.409 . S
C370 C367 1.367 1_554 S
C370 C368 1.403 . S
C370 H377 0.929 1_554 S
N371 Eu336 2.562 . S
N371 C372 1.325 . S
N371 C374 1.351 . S
C372 H358 0.929 . S
C372 N371 1.325 . S
C372 C376 1.416 . S
C373 C374 1.430 . S
C373 C375 1.404 . S
C373 C402 1.387 . S
C374 C366 1.448 . S
C374 N371 1.351 . S
C374 C373 1.430 . S
C375 H364 0.930 . S
C375 C373 1.404 . S
C375 C376 1.366 . S
C376 H355 0.930 . S
C376 C372 1.416 . S
C376 C375 1.366 . S
H377 C370 0.929 1_556 S
H378 C401 0.931 . S
H379 C402 0.931 . S
O380 Eu336 2.462 . S
O380 C400 1.252 1_554 S
O381 Eu336 2.373 . S
O381 C392 1.249 . S
O382 Eu347 2.335 . S
O382 C392 1.264 . S
O383 Eu336 2.432 1_556 S
O383 C400 1.268 . S
O384 Eu336 2.291 . S
O384 C399 1.255 . S
O385 Eu347 2.372 . S
O385 C399 1.257 . S
O386 Eu347 2.462 . S
O386 C411 1.252 . S
O387 Eu347 2.373 . S
O387 C403 1.249 . S
O388 Eu336 2.335 . S
O388 C403 1.264 . S
O389 Eu347 2.432 . S
O389 C411 1.268 . S
O390 Eu347 2.291 . S
O390 C410 1.255 . S
O391 Eu336 2.372 . S
O391 C410 1.257 . S
C392 O381 1.249 . S
C392 O382 1.264 . S
C393 C396 1.382 . S
C393 C398 1.390 . S
C393 C400 1.506 . S
C394 C395 1.398 . S
C394 C398 1.392 . S
C395 C394 1.398 . S
C395 C397 1.372 . S
C395 H412 0.931 . S
C396 C393 1.382 . S
C396 C397 1.390 . S
C396 H413 0.931 . S
C397 C395 1.372 . S
C397 C396 1.390 . S
C397 H414 0.929 . S
C398 C393 1.390 . S
C398 C394 1.392 . S
C398 H415 0.914 1_556 S
C399 O384 1.255 . S
C399 O385 1.257 . S
C400 Eu336 2.787 1_556 S
C400 O380 1.252 1_556 S
C400 O383 1.268 . S
C400 C393 1.506 . S
C401 C368 1.439 . S
C401 H378 0.931 . S
C401 C402 1.374 . S
C402 C373 1.387 . S
C402 H379 0.931 . S
C402 C401 1.374 . S
C403 O387 1.249 . S
C403 O388 1.264 . S
C404 C407 1.382 . S
C404 C408 1.390 . S
C404 C411 1.506 . S
C405 C406 1.398 . S
C405 C408 1.392 . S
C406 C405 1.398 . S
C406 C409 1.372 . S
C406 H416 0.931 . S
C407 C404 1.382 . S
C407 C409 1.390 . S
C407 H417 0.931 . S
C408 C404 1.390 . S
C408 C405 1.392 . S
C408 H418 0.930 . S
C409 C406 1.372 . S
C409 C407 1.390 . S
C409 H419 0.929 . S
C410 O390 1.255 . S
C410 O391 1.257 . S
C411 Eu347 2.787 . S
C411 O386 1.252 . S
C411 O389 1.268 . S
C411 C404 1.506 . S
H412 C395 0.931 . S
H413 C396 0.931 . S
H414 C397 0.929 . S
H415 C398 0.914 1_554 S
H416 C406 0.931 . S
H417 C407 0.931 . S
H418 C408 0.930 . S
H419 C409 0.929 . S
Eu420 N449 2.600 1_655 S
Eu420 N455 2.562 . S
Eu420 O464 2.462 . S
Eu420 O465 2.373 1_655 S
Eu420 O467 2.432 . S
Eu420 O468 2.291 . S
Eu420 O472 2.335 . S
Eu420 O475 2.372 1_655 S
Eu420 C484 2.787 . S
C421 N422 1.365 . S
C421 C424 1.405 . S
C421 C428 1.448 . S
N422 C421 1.365 . S
N422 C425 1.319 . S
N422 Eu431 2.600 1_655 S
C423 C425 1.397 . S
C423 C426 1.367 . S
C423 H443 0.931 . S
C424 C421 1.405 . S
C424 C426 1.403 . S
C424 C430 1.439 . S
C425 N422 1.319 . S
C425 C423 1.397 . S
C425 H436 0.930 . S
C426 C423 1.367 . S
C426 C424 1.403 . S
C426 H447 0.929 . S
C427 C428 1.430 . S
C427 C429 1.387 . S
C427 C433 1.404 1_655 S
C428 C421 1.448 . S
C428 C427 1.430 . S
C428 N432 1.351 1_655 S
C429 C427 1.387 . S
C429 C430 1.374 . S
C429 H444 0.931 . S
C430 C424 1.439 . S
C430 C429 1.374 . S
C430 H445 0.931 . S
Eu431 N422 2.600 1_455 S
Eu431 N432 2.562 . S
Eu431 O466 2.335 . S
Eu431 O469 2.372 1_455 S
Eu431 O470 2.462 . S
Eu431 O471 2.373 1_455 S
Eu431 O473 2.432 . S
Eu431 O474 2.291 . S
Eu431 C495 2.787 . S
N432 C428 1.351 1_455 S
N432 Eu431 2.562 . S
N432 C434 1.325 . S
C433 C427 1.404 1_455 S
C433 C435 1.366 . S
C433 H441 0.930 . S
C434 N432 1.325 . S
C434 C435 1.416 . S
C434 H440 0.929 . S
C435 C433 1.366 . S
C435 C434 1.416 . S
C435 H437 0.930 . S
H436 C425 0.930 . S
H437 C435 0.930 . S
H438 C453 0.930 . S
H439 C460 0.930 . S
H440 C434 0.929 . S
H441 C433 0.930 . S
H442 C456 0.929 . S
H443 C423 0.931 . S
H444 C429 0.931 . S
H445 C430 0.931 . S
H446 C451 0.931 . S
H447 C426 0.929 . S
H448 C459 0.930 . S
N449 Eu420 2.600 1_455 S
N449 C450 1.365 . S
N449 C453 1.319 . S
C450 N449 1.365 . S
C450 C452 1.405 . S
C450 C458 1.448 . S
C451 H446 0.931 . S
C451 C453 1.397 . S
C451 C454 1.367 . S
C452 C450 1.405 . S
C452 C454 1.403 . S
C452 C485 1.439 . S
C453 H438 0.930 . S
C453 N449 1.319 . S
C453 C451 1.397 . S
C454 C451 1.367 . S
C454 C452 1.403 . S
C454 H461 0.929 . S
N455 Eu420 2.562 . S
N455 C456 1.325 . S
N455 C458 1.351 1_655 S
C456 H442 0.929 . S
C456 N455 1.325 . S
C456 C460 1.416 . S
C457 C458 1.430 . S
C457 C459 1.404 1_455 S
C457 C486 1.387 . S
C458 C450 1.448 . S
C458 N455 1.351 1_455 S
C458 C457 1.430 . S
C459 H448 0.930 . S
C459 C457 1.404 1_655 S
C459 C460 1.366 . S
C460 H439 0.930 . S
C460 C456 1.416 . S
C460 C459 1.366 . S
H461 C454 0.929 . S
H462 C485 0.931 . S
H463 C486 0.931 . S
O464 Eu420 2.462 . S
O464 C484 1.252 . S
O465 Eu420 2.373 1_455 S
O465 C476 1.249 . S
O466 Eu431 2.335 . S
O466 C476 1.264 . S
O467 Eu420 2.432 . S
O467 C484 1.268 . S
O468 Eu420 2.291 . S
O468 C483 1.255 . S
O469 Eu431 2.372 1_655 S
O469 C483 1.257 . S
O470 Eu431 2.462 . S
O470 C495 1.252 . S
O471 Eu431 2.373 1_655 S
O471 C487 1.249 . S
O472 Eu420 2.335 . S
O472 C487 1.264 . S
O473 Eu431 2.432 . S
O473 C495 1.268 . S
O474 Eu431 2.291 . S
O474 C494 1.255 . S
O475 Eu420 2.372 1_455 S
O475 C494 1.257 . S
C476 O465 1.249 . S
C476 O466 1.264 . S
C477 C480 1.382 . S
C477 C482 1.390 . S
C477 C484 1.506 . S
C478 C479 1.398 . S
C478 C482 1.392 . S
C479 C478 1.398 . S
C479 C481 1.372 . S
C479 H496 0.931 . S
C480 C477 1.382 . S
C480 C481 1.390 . S
C480 H497 0.931 . S
C481 C479 1.372 . S
C481 C480 1.390 . S
C481 H498 0.929 . S
C482 C477 1.390 . S
C482 C478 1.392 . S
C482 H499 0.930 . S
C483 O468 1.255 . S
C483 O469 1.257 . S
C484 Eu420 2.787 . S
C484 O464 1.252 . S
C484 O467 1.268 . S
C484 C477 1.506 . S
C485 C452 1.439 . S
C485 H462 0.931 . S
C485 C486 1.374 . S
C486 C457 1.387 . S
C486 H463 0.931 . S
C486 C485 1.374 . S
C487 O471 1.249 . S
C487 O472 1.264 . S
C488 C491 1.382 . S
C488 C492 1.390 . S
C488 C495 1.506 . S
C489 C490 1.398 . S
C489 C492 1.392 . S
C490 C489 1.398 . S
C490 C493 1.372 . S
C490 H500 0.931 . S
C491 C488 1.382 . S
C491 C493 1.390 . S
C491 H501 0.931 . S
C492 C488 1.390 . S
C492 C489 1.392 . S
C492 H502 0.930 . S
C493 C490 1.372 . S
C493 C491 1.390 . S
C493 H503 0.929 . S
C494 O474 1.255 . S
C494 O475 1.257 . S
C495 Eu431 2.787 . S
C495 O470 1.252 . S
C495 O473 1.268 . S
C495 C488 1.506 . S
H496 C479 0.931 . S
H497 C480 0.931 . S
H498 C481 0.929 . S
H499 C482 0.930 . S
H500 C490 0.931 . S
H501 C491 0.931 . S
H502 C492 0.930 . S
H503 C493 0.929 . S
Eu504 N533 2.600 1_455 S
Eu504 N539 2.562 . S
Eu504 O548 2.462 . S
Eu504 O549 2.373 1_455 S
Eu504 O551 2.432 . S
Eu504 O552 2.291 . S
Eu504 O556 2.335 . S
Eu504 O559 2.372 1_455 S
Eu504 C568 2.787 . S
C505 N506 1.365 . S
C505 C508 1.405 . S
C505 C512 1.448 . S
N506 C505 1.365 . S
N506 C509 1.319 . S
N506 Eu515 2.600 1_455 S
C507 C509 1.397 . S
C507 C510 1.367 . S
C507 H527 0.931 . S
C508 C505 1.405 . S
C508 C510 1.403 . S
C508 C514 1.439 . S
C509 N506 1.319 . S
C509 C507 1.397 . S
C509 H520 0.930 . S
C510 C507 1.367 . S
C510 C508 1.403 . S
C510 H531 0.929 . S
C511 C512 1.430 . S
C511 C513 1.387 . S
C511 C517 1.404 1_455 S
C512 C505 1.448 . S
C512 C511 1.430 . S
C512 N516 1.351 1_455 S
C513 C511 1.387 . S
C513 C514 1.374 . S
C513 H528 0.931 . S
C514 C508 1.439 . S
C514 C513 1.374 . S
C514 H529 0.931 . S
Eu515 N506 2.600 1_655 S
Eu515 N516 2.562 . S
Eu515 O550 2.335 . S
Eu515 O553 2.372 1_655 S
Eu515 O554 2.462 . S
Eu515 O555 2.373 1_655 S
Eu515 O557 2.432 . S
Eu515 O558 2.291 . S
Eu515 C579 2.787 . S
N516 C512 1.351 1_655 S
N516 Eu515 2.562 . S
N516 C518 1.325 . S
C517 C511 1.404 1_655 S
C517 C519 1.366 . S
C517 H525 0.930 . S
C518 N516 1.325 . S
C518 C519 1.416 . S
C518 H524 0.929 . S
C519 C517 1.366 . S
C519 C518 1.416 . S
C519 H521 0.930 . S
H520 C509 0.930 . S
H521 C519 0.930 . S
H522 C537 0.930 . S
H523 C544 0.930 . S
H524 C518 0.929 . S
H525 C517 0.930 . S
H526 C540 0.929 . S
H527 C507 0.931 . S
H528 C513 0.931 . S
H529 C514 0.931 . S
H530 C535 0.931 . S
H531 C510 0.929 . S
H532 C543 0.930 . S
N533 Eu504 2.600 1_655 S
N533 C534 1.365 . S
N533 C537 1.319 . S
C534 N533 1.365 . S
C534 C536 1.405 . S
C534 C542 1.448 . S
C535 H530 0.931 . S
C535 C537 1.397 . S
C535 C538 1.367 . S
C536 C534 1.405 . S
C536 C538 1.403 . S
C536 C569 1.439 . S
C537 H522 0.930 . S
C537 N533 1.319 . S
C537 C535 1.397 . S
C538 C535 1.367 . S
C538 C536 1.403 . S
C538 H545 0.929 . S
N539 Eu504 2.562 . S
N539 C540 1.325 . S
N539 C542 1.351 1_455 S
C540 H526 0.929 . S
C540 N539 1.325 . S
C540 C544 1.416 . S
C541 C542 1.430 . S
C541 C543 1.404 1_655 S
C541 C570 1.387 . S
C542 C534 1.448 . S
C542 N539 1.351 1_655 S
C542 C541 1.430 . S
C543 H532 0.930 . S
C543 C541 1.404 1_455 S
C543 C544 1.366 . S
C544 H523 0.930 . S
C544 C540 1.416 . S
C544 C543 1.366 . S
H545 C538 0.929 . S
H546 C569 0.931 . S
H547 C570 0.931 . S
O548 Eu504 2.462 . S
O548 C568 1.252 . S
O549 Eu504 2.373 1_655 S
O549 C560 1.249 . S
O550 Eu515 2.335 . S
O550 C560 1.264 . S
O551 Eu504 2.432 . S
O551 C568 1.268 . S
O552 Eu504 2.291 . S
O552 C567 1.255 . S
O553 Eu515 2.372 1_455 S
O553 C567 1.257 . S
O554 Eu515 2.462 . S
O554 C579 1.252 . S
O555 Eu515 2.373 1_455 S
O555 C571 1.249 . S
O556 Eu504 2.335 . S
O556 C571 1.264 . S
O557 Eu515 2.432 . S
O557 C579 1.268 . S
O558 Eu515 2.291 . S
O558 C578 1.255 . S
O559 Eu504 2.372 1_655 S
O559 C578 1.257 . S
C560 O549 1.249 . S
C560 O550 1.264 . S
C561 C564 1.382 . S
C561 C566 1.390 . S
C561 C568 1.506 . S
C562 C563 1.398 . S
C562 C566 1.392 . S
C563 C562 1.398 . S
C563 C565 1.372 . S
C563 H580 0.931 . S
C564 C561 1.382 . S
C564 C565 1.390 . S
C564 H581 0.931 . S
C565 C563 1.372 . S
C565 C564 1.390 . S
C565 H582 0.929 . S
C566 C561 1.390 . S
C566 C562 1.392 . S
C566 H583 0.930 . S
C567 O552 1.255 . S
C567 O553 1.257 . S
C568 Eu504 2.787 . S
C568 O548 1.252 . S
C568 O551 1.268 . S
C568 C561 1.506 . S
C569 C536 1.439 . S
C569 H546 0.931 . S
C569 C570 1.374 . S
C570 C541 1.387 . S
C570 H547 0.931 . S
C570 C569 1.374 . S
C571 O555 1.249 . S
C571 O556 1.264 . S
C572 C575 1.382 . S
C572 C576 1.390 . S
C572 C579 1.506 . S
C573 C574 1.398 . S
C573 C576 1.392 . S
C574 C573 1.398 . S
C574 C577 1.372 . S
C574 H584 0.931 . S
C575 C572 1.382 . S
C575 C577 1.390 . S
C575 H585 0.931 . S
C576 C572 1.390 . S
C576 C573 1.392 . S
C576 H586 0.930 . S
C577 C574 1.372 . S
C577 C575 1.390 . S
C577 H587 0.929 . S
C578 O558 1.255 . S
C578 O559 1.257 . S
C579 Eu515 2.787 . S
C579 O554 1.252 . S
C579 O557 1.268 . S
C579 C572 1.506 . S
H580 C563 0.931 . S
H581 C564 0.931 . S
H582 C565 0.929 . S
H583 C566 0.930 . S
H584 C574 0.931 . S
H585 C575 0.931 . S
H586 C576 0.930 . S
H587 C577 0.929 . S
Eu588 N617 2.600 1_545 S
Eu588 N623 2.562 . S
Eu588 O632 2.462 . S
Eu588 O633 2.373 1_545 S
Eu588 O635 2.432 . S
Eu588 O636 2.291 . S
Eu588 O640 2.335 . S
Eu588 O643 2.372 1_545 S
Eu588 C652 2.787 . S
C589 N590 1.365 . S
C589 C592 1.405 . S
C589 C596 1.448 . S
N590 C589 1.365 . S
N590 C593 1.319 . S
N590 Eu599 2.600 1_545 S
C591 C593 1.397 . S
C591 C594 1.367 . S
C591 H611 0.931 . S
C592 C589 1.405 . S
C592 C594 1.403 . S
C592 C598 1.439 . S
C593 N590 1.319 . S
C593 C591 1.397 . S
C593 H604 0.930 . S
C594 C591 1.367 . S
C594 C592 1.403 . S
C594 H615 0.929 . S
C595 C596 1.430 . S
C595 C597 1.387 . S
C595 C601 1.404 1_545 S
C596 C589 1.448 . S
C596 C595 1.430 . S
C596 N600 1.351 1_545 S
C597 C595 1.387 . S
C597 C598 1.374 . S
C597 H612 0.931 . S
C598 C592 1.439 . S
C598 C597 1.374 . S
C598 H613 0.931 . S
Eu599 N590 2.600 1_565 S
Eu599 N600 2.562 . S
Eu599 O634 2.335 . S
Eu599 O637 2.372 1_565 S
Eu599 O638 2.462 . S
Eu599 O639 2.373 1_565 S
Eu599 O641 2.432 . S
Eu599 O642 2.291 . S
Eu599 C663 2.787 . S
N600 C596 1.351 1_565 S
N600 Eu599 2.562 . S
N600 C602 1.325 . S
C601 C595 1.404 1_565 S
C601 C603 1.366 . S
C601 H609 0.930 . S
C602 N600 1.325 . S
C602 C603 1.416 . S
C602 H608 0.929 . S
C603 C601 1.366 . S
C603 C602 1.416 . S
C603 H605 0.930 . S
H604 C593 0.930 . S
H605 C603 0.930 . S
H606 C621 0.930 . S
H607 C628 0.930 . S
H608 C602 0.929 . S
H609 C601 0.930 . S
H610 C624 0.929 . S
H611 C591 0.931 . S
H612 C597 0.931 . S
H613 C598 0.931 . S
H614 C619 0.931 . S
H615 C594 0.929 . S
H616 C627 0.930 . S
N617 Eu588 2.600 1_565 S
N617 C618 1.365 . S
N617 C621 1.319 . S
C618 N617 1.365 . S
C618 C620 1.405 . S
C618 C626 1.448 . S
C619 H614 0.931 . S
C619 C621 1.397 . S
C619 C622 1.367 . S
C620 C618 1.405 . S
C620 C622 1.403 . S
C620 C653 1.439 . S
C621 H606 0.930 . S
C621 N617 1.319 . S
C621 C619 1.397 . S
C622 C619 1.367 . S
C622 C620 1.403 . S
C622 H629 0.929 . S
N623 Eu588 2.562 . S
N623 C624 1.325 . S
N623 C626 1.351 1_545 S
C624 H610 0.929 . S
C624 N623 1.325 . S
C624 C628 1.416 . S
C625 C626 1.430 . S
C625 C627 1.404 1_565 S
C625 C654 1.387 . S
C626 C618 1.448 . S
C626 N623 1.351 1_565 S
C626 C625 1.430 . S
C627 H616 0.930 . S
C627 C625 1.404 1_545 S
C627 C628 1.366 . S
C628 H607 0.930 . S
C628 C624 1.416 . S
C628 C627 1.366 . S
H629 C622 0.929 . S
H630 C653 0.931 . S
H631 C654 0.931 . S
O632 Eu588 2.462 . S
O632 C652 1.252 . S
O633 Eu588 2.373 1_565 S
O633 C644 1.249 . S
O634 Eu599 2.335 . S
O634 C644 1.264 . S
O635 Eu588 2.432 . S
O635 C652 1.268 . S
O636 Eu588 2.291 . S
O636 C651 1.255 . S
O637 Eu599 2.372 1_545 S
O637 C651 1.257 . S
O638 Eu599 2.462 . S
O638 C663 1.252 . S
O639 Eu599 2.373 1_545 S
O639 C655 1.249 . S
O640 Eu588 2.335 . S
O640 C655 1.264 . S
O641 Eu599 2.432 . S
O641 C663 1.268 . S
O642 Eu599 2.291 . S
O642 C662 1.255 . S
O643 Eu588 2.372 1_565 S
O643 C662 1.257 . S
C644 O633 1.249 . S
C644 O634 1.264 . S
C645 C648 1.382 . S
C645 C650 1.390 . S
C645 C652 1.506 . S
C646 C647 1.398 . S
C646 C650 1.392 . S
C647 C646 1.398 . S
C647 C649 1.372 . S
C647 H664 0.931 . S
C648 C645 1.382 . S
C648 C649 1.390 . S
C648 H665 0.931 . S
C649 C647 1.372 . S
C649 C648 1.390 . S
C649 H666 0.929 . S
C650 C645 1.390 . S
C650 C646 1.392 . S
C650 H667 0.930 . S
C651 O636 1.255 . S
C651 O637 1.257 . S
C652 Eu588 2.787 . S
C652 O632 1.252 . S
C652 O635 1.268 . S
C652 C645 1.506 . S
C653 C620 1.439 . S
C653 H630 0.931 . S
C653 C654 1.374 . S
C654 C625 1.387 . S
C654 H631 0.931 . S
C654 C653 1.374 . S
C655 O639 1.249 . S
C655 O640 1.264 . S
C656 C659 1.382 . S
C656 C660 1.390 . S
C656 C663 1.506 . S
C657 C658 1.398 . S
C657 C660 1.392 . S
C658 C657 1.398 . S
C658 C661 1.372 . S
C658 H668 0.931 . S
C659 C656 1.382 . S
C659 C661 1.390 . S
C659 H669 0.931 . S
C660 C656 1.390 . S
C660 C657 1.392 . S
C660 H670 0.930 . S
C661 C658 1.372 . S
C661 C659 1.390 . S
C661 H671 0.929 . S
C662 O642 1.255 . S
C662 O643 1.257 . S
C663 Eu599 2.787 . S
C663 O638 1.252 . S
C663 O641 1.268 . S
C663 C656 1.506 . S
H664 C647 0.931 . S
H665 C648 0.931 . S
H666 C649 0.929 . S
H667 C650 0.930 . S
H668 C658 0.931 . S
H669 C659 0.931 . S
H670 C660 0.930 . S
H671 C661 0.929 . S
Eu672 N701 2.600 . S
Eu672 N707 2.562 . S
Eu672 O716 2.462 . S
Eu672 O717 2.373 . S
Eu672 O719 2.432 . S
Eu672 O720 2.291 . S
Eu672 O724 2.335 . S
Eu672 O727 2.372 . S
Eu672 C736 2.787 . S
C673 N674 1.365 . S
C673 C676 1.405 . S
C673 C680 1.448 . S
N674 C673 1.365 . S
N674 C677 1.319 . S
N674 Eu683 2.600 . S
C675 C677 1.397 . S
C675 C678 1.367 . S
C675 H695 0.931 . S
C676 C673 1.405 . S
C676 C678 1.403 . S
C676 C682 1.439 . S
C677 N674 1.319 . S
C677 C675 1.397 . S
C677 H688 0.930 . S
C678 C675 1.367 . S
C678 C676 1.403 . S
C678 H699 0.929 . S
C679 C680 1.430 . S
C679 C681 1.387 . S
C679 C685 1.404 . S
C680 C673 1.448 . S
C680 C679 1.430 . S
C680 N684 1.351 . S
C681 C679 1.387 . S
C681 C682 1.374 . S
C681 H696 0.931 . S
C682 C676 1.439 . S
C682 C681 1.374 . S
C682 H697 0.931 . S
Eu683 N674 2.600 . S
Eu683 N684 2.562 . S
Eu683 O718 2.335 . S
Eu683 O721 2.372 . S
Eu683 O722 2.462 . S
Eu683 O723 2.373 . S
Eu683 O725 2.432 . S
Eu683 O726 2.291 . S
Eu683 C747 2.787 . S
N684 C680 1.351 . S
N684 Eu683 2.562 . S
N684 C686 1.325 . S
C685 C679 1.404 . S
C685 C687 1.366 . S
C685 H693 0.930 . S
C686 N684 1.325 . S
C686 C687 1.416 . S
C686 H692 0.929 . S
C687 C685 1.366 . S
C687 C686 1.416 . S
C687 H689 0.930 . S
H688 C677 0.930 . S
H689 C687 0.930 . S
H690 C705 0.930 . S
H691 C712 0.930 . S
H692 C686 0.929 . S
H693 C685 0.930 . S
H694 C708 0.929 . S
H695 C675 0.931 . S
H696 C681 0.931 . S
H697 C682 0.931 . S
H698 C703 0.931 . S
H699 C678 0.929 . S
H700 C711 0.930 . S
N701 Eu672 2.600 . S
N701 C702 1.365 . S
N701 C705 1.319 . S
C702 N701 1.365 . S
C702 C704 1.405 . S
C702 C710 1.448 . S
C703 H698 0.931 . S
C703 C705 1.397 . S
C703 C706 1.367 . S
C704 C702 1.405 . S
C704 C706 1.403 . S
C704 C737 1.439 . S
C705 H690 0.930 . S
C705 N701 1.319 . S
C705 C703 1.397 . S
C706 C703 1.367 . S
C706 C704 1.403 . S
C706 H713 0.929 . S
N707 Eu672 2.562 . S
N707 C708 1.325 . S
N707 C710 1.351 . S
C708 H694 0.929 . S
C708 N707 1.325 . S
C708 C712 1.416 . S
C709 C710 1.430 . S
C709 C711 1.404 . S
C709 C738 1.387 . S
C710 C702 1.448 . S
C710 N707 1.351 . S
C710 C709 1.430 . S
C711 H700 0.930 . S
C711 C709 1.404 . S
C711 C712 1.366 . S
C712 H691 0.930 . S
C712 C708 1.416 . S
C712 C711 1.366 . S
H713 C706 0.929 . S
H714 C737 0.931 . S
H715 C738 0.931 . S
O716 Eu672 2.462 . S
O716 C736 1.252 . S
O717 Eu672 2.373 . S
O717 C728 1.249 . S
O718 Eu683 2.335 . S
O718 C728 1.264 . S
O719 Eu672 2.432 . S
O719 C736 1.268 . S
O720 Eu672 2.291 . S
O720 C735 1.255 . S
O721 Eu683 2.372 . S
O721 C735 1.257 . S
O722 Eu683 2.462 . S
O722 C747 1.252 . S
O723 Eu683 2.373 . S
O723 C739 1.249 . S
O724 Eu672 2.335 . S
O724 C739 1.264 . S
O725 Eu683 2.432 . S
O725 C747 1.268 . S
O726 Eu683 2.291 . S
O726 C746 1.255 . S
O727 Eu672 2.372 . S
O727 C746 1.257 . S
C728 O717 1.249 . S
C728 O718 1.264 . S
C729 C732 1.382 . S
C729 C734 1.390 . S
C729 C736 1.506 . S
C730 C731 1.398 . S
C730 C734 1.392 . S
C731 C730 1.398 . S
C731 C733 1.372 . S
C731 H748 0.931 . S
C732 C729 1.382 . S
C732 C733 1.390 . S
C732 H749 0.931 . S
C733 C731 1.372 . S
C733 C732 1.390 . S
C733 H750 0.929 . S
C734 C729 1.390 . S
C734 C730 1.392 . S
C734 H751 0.930 . S
C735 O720 1.255 . S
C735 O721 1.257 . S
C736 Eu672 2.787 . S
C736 O716 1.252 . S
C736 O719 1.268 . S
C736 C729 1.506 . S
C737 C704 1.439 . S
C737 H714 0.931 . S
C737 C738 1.374 . S
C738 C709 1.387 . S
C738 H715 0.931 . S
C738 C737 1.374 . S
C739 O723 1.249 . S
C739 O724 1.264 . S
C740 C743 1.382 . S
C740 C744 1.390 . S
C740 C747 1.506 . S
C741 C742 1.398 . S
C741 C744 1.392 . S
C742 C741 1.398 . S
C742 C745 1.372 . S
C742 H752 0.931 . S
C743 C740 1.382 . S
C743 C745 1.390 . S
C743 H753 0.931 . S
C744 C740 1.390 . S
C744 C741 1.392 . S
C744 H754 0.930 . S
C745 C742 1.372 . S
C745 C743 1.390 . S
C745 H755 0.929 . S
C746 O726 1.255 . S
C746 O727 1.257 . S
C747 Eu683 2.787 . S
C747 O722 1.252 . S
C747 O725 1.268 . S
C747 C740 1.506 . S
H748 C731 0.931 . S
H749 C732 0.931 . S
H750 C733 0.929 . S
H751 C734 0.930 . S
H752 C742 0.931 . S
H753 C743 0.931 . S
H754 C744 0.930 . S
H755 C745 0.929 . S
Eu756 N785 2.600 1_655 S
Eu756 N791 2.562 . S
Eu756 O800 2.462 . S
Eu756 O801 2.373 1_655 S
Eu756 O803 2.432 1_556 S
Eu756 O804 2.291 . S
Eu756 O808 2.335 . S
Eu756 O811 2.372 1_655 S
Eu756 C820 2.787 1_556 S
C757 N758 1.365 . S
C757 C760 1.405 . S
C757 C764 1.448 . S
N758 C757 1.365 . S
N758 C761 1.319 . S
N758 Eu767 2.600 1_655 S
C759 C761 1.397 . S
C759 C762 1.367 . S
C759 H779 0.931 . S
C760 C757 1.405 . S
C760 C762 1.403 . S
C760 C766 1.439 . S
C761 N758 1.319 . S
C761 C759 1.397 . S
C761 H772 0.930 . S
C762 C759 1.367 . S
C762 C760 1.403 . S
C762 H783 0.929 . S
C763 C764 1.430 . S
C763 C765 1.387 . S
C763 C769 1.404 1_655 S
C764 C757 1.448 . S
C764 C763 1.430 . S
C764 N768 1.351 1_655 S
C765 C763 1.387 . S
C765 C766 1.374 . S
C765 H780 0.931 . S
C766 C760 1.439 . S
C766 C765 1.374 . S
C766 H781 0.931 . S
Eu767 N758 2.600 1_455 S
Eu767 N768 2.562 . S
Eu767 O802 2.335 . S
Eu767 O805 2.372 1_455 S
Eu767 O806 2.462 . S
Eu767 O807 2.373 1_455 S
Eu767 O809 2.432 . S
Eu767 O810 2.291 . S
Eu767 C831 2.787 . S
N768 C764 1.351 1_455 S
N768 Eu767 2.562 . S
N768 C770 1.325 . S
C769 C763 1.404 1_455 S
C769 C771 1.366 . S
C769 H777 0.930 . S
C770 N768 1.325 . S
C770 C771 1.416 . S
C770 H776 0.929 . S
C771 C769 1.366 . S
C771 C770 1.416 . S
C771 H773 0.930 . S
H772 C761 0.930 . S
H773 C771 0.930 . S
H774 C789 0.930 . S
H775 C796 0.930 . S
H776 C770 0.929 . S
H777 C769 0.930 . S
H778 C792 0.929 . S
H779 C759 0.931 . S
H780 C765 0.931 . S
H781 C766 0.931 . S
H782 C787 0.931 . S
H783 C762 0.929 . S
H784 C795 0.930 . S
N785 Eu756 2.600 1_455 S
N785 C786 1.365 . S
N785 C789 1.319 1_556 S
C786 N785 1.365 . S
C786 C788 1.405 . S
C786 C794 1.448 . S
C787 H782 0.931 . S
C787 C789 1.397 . S
C787 C790 1.354 1_554 S
C788 C786 1.405 . S
C788 C790 1.425 . S
C788 C821 1.439 . S
C789 H774 0.930 . S
C789 N785 1.319 1_554 S
C789 C787 1.397 . S
C790 C787 1.354 1_556 S
C790 C788 1.425 . S
C790 H797 0.922 1_556 S
N791 Eu756 2.562 . S
N791 C792 1.325 . S
N791 C794 1.351 1_655 S
C792 H778 0.929 . S
C792 N791 1.325 . S
C792 C796 1.416 . S
C793 C794 1.430 . S
C793 C795 1.404 1_455 S
C793 C822 1.387 . S
C794 C786 1.448 . S
C794 N791 1.351 1_455 S
C794 C793 1.430 . S
C795 H784 0.930 . S
C795 C793 1.404 1_655 S
C795 C796 1.366 . S
C796 H775 0.930 . S
C796 C792 1.416 . S
C796 C795 1.366 . S
H797 C790 0.922 1_554 S
H798 C821 0.931 . S
H799 C822 0.931 . S
O800 Eu756 2.462 . S
O800 C820 1.252 1_556 S
O801 Eu756 2.373 1_455 S
O801 C812 1.249 . S
O802 Eu767 2.335 . S
O802 C812 1.264 . S
O803 Eu756 2.432 1_554 S
O803 C820 1.268 . S
O804 Eu756 2.291 . S
O804 C819 1.255 . S
O805 Eu767 2.372 1_655 S
O805 C819 1.257 . S
O806 Eu767 2.462 . S
O806 C831 1.252 . S
O807 Eu767 2.373 1_655 S
O807 C823 1.249 . S
O808 Eu756 2.335 . S
O808 C823 1.264 . S
O809 Eu767 2.432 . S
O809 C831 1.268 . S
O810 Eu767 2.291 . S
O810 C830 1.255 . S
O811 Eu756 2.372 1_455 S
O811 C830 1.257 . S
C812 O801 1.249 . S
C812 O802 1.264 . S
C813 C816 1.382 . S
C813 C818 1.390 . S
C813 C820 1.506 . S
C814 C815 1.398 . S
C814 C818 1.392 . S
C815 C814 1.398 . S
C815 C817 1.372 . S
C815 H832 0.931 . S
C816 C813 1.382 . S
C816 C817 1.390 . S
C816 H833 0.931 . S
C817 C815 1.372 . S
C817 C816 1.390 . S
C817 H834 0.929 . S
C818 C813 1.390 . S
C818 C814 1.392 . S
C818 H835 0.930 . S
C819 O804 1.255 . S
C819 O805 1.257 . S
C820 Eu756 2.787 1_554 S
C820 O800 1.252 1_554 S
C820 O803 1.268 . S
C820 C813 1.506 . S
C821 C788 1.439 . S
C821 H798 0.931 . S
C821 C822 1.374 . S
C822 C793 1.387 . S
C822 H799 0.931 . S
C822 C821 1.374 . S
C823 O807 1.249 . S
C823 O808 1.264 . S
C824 C827 1.382 . S
C824 C828 1.390 . S
C824 C831 1.506 . S
C825 C826 1.398 . S
C825 C828 1.392 . S
C826 C825 1.398 . S
C826 C829 1.372 . S
C826 H836 0.931 . S
C827 C824 1.382 . S
C827 C829 1.390 . S
C827 H837 0.931 . S
C828 C824 1.390 . S
C828 C825 1.392 . S
C828 H838 0.930 . S
C829 C826 1.372 . S
C829 C827 1.390 . S
C829 H839 0.929 . S
C830 O810 1.255 . S
C830 O811 1.257 . S
C831 Eu767 2.787 . S
C831 O806 1.252 . S
C831 O809 1.268 . S
C831 C824 1.506 . S
H832 C815 0.931 . S
H833 C816 0.931 . S
H834 C817 0.929 . S
H835 C818 0.930 . S
H836 C826 0.931 . S
H837 C827 0.931 . S
H838 C828 0.930 . S
H839 C829 0.929 . S
Eu840 N869 2.600 1_565 S
Eu840 N875 2.562 . S
Eu840 O884 2.462 . S
Eu840 O885 2.373 1_565 S
Eu840 O887 2.432 . S
Eu840 O888 2.291 . S
Eu840 O892 2.335 . S
Eu840 O895 2.372 1_565 S
Eu840 C904 2.787 . S
C841 N842 1.365 . S
C841 C844 1.405 . S
C841 C848 1.448 . S
N842 C841 1.365 . S
N842 C845 1.319 . S
N842 Eu851 2.600 1_565 S
C843 C845 1.397 . S
C843 C846 1.367 . S
C843 H863 0.931 . S
C844 C841 1.405 . S
C844 C846 1.403 . S
C844 C850 1.439 . S
C845 N842 1.319 . S
C845 C843 1.397 . S
C845 H856 0.930 . S
C846 C843 1.367 . S
C846 C844 1.403 . S
C846 H867 0.929 . S
C847 C848 1.430 . S
C847 C849 1.387 . S
C847 C853 1.404 1_565 S
C848 C841 1.448 . S
C848 C847 1.430 . S
C848 N852 1.351 1_565 S
C849 C847 1.387 . S
C849 C850 1.374 . S
C849 H864 0.931 . S
C850 C844 1.439 . S
C850 C849 1.374 . S
C850 H865 0.931 . S
Eu851 N842 2.600 1_545 S
Eu851 N852 2.562 . S
Eu851 O886 2.335 . S
Eu851 O889 2.372 1_545 S
Eu851 O890 2.462 . S
Eu851 O891 2.373 1_545 S
Eu851 O893 2.432 . S
Eu851 O894 2.291 . S
Eu851 C915 2.787 . S
N852 C848 1.351 1_545 S
N852 Eu851 2.562 . S
N852 C854 1.325 . S
C853 C847 1.404 1_545 S
C853 C855 1.366 . S
C853 H861 0.930 . S
C854 N852 1.325 . S
C854 C855 1.416 . S
C854 H860 0.929 . S
C855 C853 1.366 . S
C855 C854 1.416 . S
C855 H857 0.930 . S
H856 C845 0.930 . S
H857 C855 0.930 . S
H858 C873 0.930 . S
H859 C880 0.930 . S
H860 C854 0.929 . S
H861 C853 0.930 . S
H862 C876 0.929 . S
H863 C843 0.931 . S
H864 C849 0.931 . S
H865 C850 0.931 . S
H866 C871 0.931 . S
H867 C846 0.929 . S
H868 C879 0.930 . S
N869 Eu840 2.600 1_545 S
N869 C870 1.365 . S
N869 C873 1.319 . S
C870 N869 1.365 . S
C870 C872 1.405 . S
C870 C878 1.448 . S
C871 H866 0.931 . S
C871 C873 1.397 . S
C871 C874 1.367 . S
C872 C870 1.405 . S
C872 C874 1.403 . S
C872 C905 1.439 . S
C873 H858 0.930 . S
C873 N869 1.319 . S
C873 C871 1.397 . S
C874 C871 1.367 . S
C874 C872 1.403 . S
C874 H881 0.929 . S
N875 Eu840 2.562 . S
N875 C876 1.325 . S
N875 C878 1.351 1_565 S
C876 H862 0.929 . S
C876 N875 1.325 . S
C876 C880 1.416 . S
C877 C878 1.430 . S
C877 C879 1.404 1_545 S
C877 C906 1.387 . S
C878 C870 1.448 . S
C878 N875 1.351 1_545 S
C878 C877 1.430 . S
C879 H868 0.930 . S
C879 C877 1.404 1_565 S
C879 C880 1.366 . S
C880 H859 0.930 . S
C880 C876 1.416 . S
C880 C879 1.366 . S
H881 C874 0.929 . S
H882 C905 0.931 . S
H883 C906 0.931 . S
O884 Eu840 2.462 . S
O884 C904 1.252 . S
O885 Eu840 2.373 1_545 S
O885 C896 1.249 . S
O886 Eu851 2.335 . S
O886 C896 1.264 . S
O887 Eu840 2.432 . S
O887 C904 1.268 . S
O888 Eu840 2.291 . S
O888 C903 1.255 . S
O889 Eu851 2.372 1_565 S
O889 C903 1.257 . S
O890 Eu851 2.462 . S
O890 C915 1.252 . S
O891 Eu851 2.373 1_565 S
O891 C907 1.249 . S
O892 Eu840 2.335 . S
O892 C907 1.264 . S
O893 Eu851 2.432 . S
O893 C915 1.268 . S
O894 Eu851 2.291 . S
O894 C914 1.255 . S
O895 Eu840 2.372 1_545 S
O895 C914 1.257 . S
C896 O885 1.249 . S
C896 O886 1.264 . S
C897 C900 1.382 . S
C897 C902 1.390 . S
C897 C904 1.506 . S
C898 C899 1.398 . S
C898 C902 1.392 . S
C899 C898 1.398 . S
C899 C901 1.372 . S
C899 H916 0.931 . S
C900 C897 1.382 . S
C900 C901 1.390 . S
C900 H917 0.931 . S
C901 C899 1.372 . S
C901 C900 1.390 . S
C901 H918 0.929 . S
C902 C897 1.390 . S
C902 C898 1.392 . S
C902 H919 0.930 . S
C903 O888 1.255 . S
C903 O889 1.257 . S
C904 Eu840 2.787 . S
C904 O884 1.252 . S
C904 O887 1.268 . S
C904 C897 1.506 . S
C905 C872 1.439 . S
C905 H882 0.931 . S
C905 C906 1.374 . S
C906 C877 1.387 . S
C906 H883 0.931 . S
C906 C905 1.374 . S
C907 O891 1.249 . S
C907 O892 1.264 . S
C908 C911 1.382 . S
C908 C912 1.390 . S
C908 C915 1.506 . S
C909 C910 1.398 . S
C909 C912 1.392 . S
C910 C909 1.398 . S
C910 C913 1.372 . S
C910 H920 0.931 . S
C911 C908 1.382 . S
C911 C913 1.390 . S
C911 H921 0.931 . S
C912 C908 1.390 . S
C912 C909 1.392 . S
C912 H922 0.930 . S
C913 C910 1.372 . S
C913 C911 1.390 . S
C913 H923 0.929 . S
C914 O894 1.255 . S
C914 O895 1.257 . S
C915 Eu851 2.787 . S
C915 O890 1.252 . S
C915 O893 1.268 . S
C915 C908 1.506 . S
H916 C899 0.931 . S
H917 C900 0.931 . S
H918 C901 0.929 . S
H919 C902 0.930 . S
H920 C910 0.931 . S
H921 C911 0.931 . S
H922 C912 0.930 . S
H923 C913 0.929 . S
Eu924 N953 2.600 . S
Eu924 N959 2.562 . S
Eu924 O968 2.462 . S
Eu924 O969 2.373 . S
Eu924 O971 2.432 . S
Eu924 O972 2.291 . S
Eu924 O976 2.335 . S
Eu924 O979 2.372 . S
Eu924 C988 2.787 . S
C925 N926 1.365 . S
C925 C928 1.405 . S
C925 C932 1.448 . S
N926 C925 1.365 . S
N926 C929 1.319 . S
N926 Eu935 2.600 . S
C927 C929 1.397 . S
C927 C930 1.367 . S
C927 H947 0.931 . S
C928 C925 1.405 . S
C928 C930 1.403 . S
C928 C934 1.439 . S
C929 N926 1.319 . S
C929 C927 1.397 . S
C929 H940 0.930 . S
C930 C927 1.367 . S
C930 C928 1.403 . S
C930 H951 0.929 . S
C931 C932 1.430 . S
C931 C933 1.387 . S
C931 C937 1.404 . S
C932 C925 1.448 . S
C932 C931 1.430 . S
C932 N936 1.351 . S
C933 C931 1.387 . S
C933 C934 1.374 . S
C933 H948 0.931 . S
C934 C928 1.439 . S
C934 C933 1.374 . S
C934 H949 0.931 . S
Eu935 N926 2.600 . S
Eu935 N936 2.562 . S
Eu935 O970 2.335 . S
Eu935 O973 2.372 . S
Eu935 O974 2.462 . S
Eu935 O975 2.373 . S
Eu935 O977 2.432 . S
Eu935 O978 2.291 . S
Eu935 C999 2.787 . S
N936 C932 1.351 . S
N936 Eu935 2.562 . S
N936 C938 1.325 . S
C937 C931 1.404 . S
C937 C939 1.366 . S
C937 H945 0.930 . S
C938 N936 1.325 . S
C938 C939 1.416 . S
C938 H944 0.929 . S
C939 C937 1.366 . S
C939 C938 1.416 . S
C939 H941 0.930 . S
H940 C929 0.930 . S
H941 C939 0.930 . S
H942 C957 0.930 . S
H943 C964 0.930 . S
H944 C938 0.929 . S
H945 C937 0.930 . S
H946 C960 0.929 . S
H947 C927 0.931 . S
H948 C933 0.931 . S
H949 C934 0.931 . S
H950 C955 0.931 . S
H951 C930 0.929 . S
H952 C963 0.930 . S
N953 Eu924 2.600 . S
N953 C954 1.365 . S
N953 C957 1.319 . S
C954 N953 1.365 . S
C954 C956 1.405 . S
C954 C962 1.448 . S
C955 H950 0.931 . S
C955 C957 1.397 . S
C955 C958 1.367 . S
C956 C954 1.405 . S
C956 C958 1.403 . S
C956 C989 1.439 . S
C957 H942 0.930 . S
C957 N953 1.319 . S
C957 C955 1.397 . S
C958 C955 1.367 . S
C958 C956 1.403 . S
C958 H965 0.929 . S
N959 Eu924 2.562 . S
N959 C960 1.325 . S
N959 C962 1.351 . S
C960 H946 0.929 . S
C960 N959 1.325 . S
C960 C964 1.416 . S
C961 C962 1.430 . S
C961 C963 1.404 . S
C961 C990 1.387 . S
C962 C954 1.448 . S
C962 N959 1.351 . S
C962 C961 1.430 . S
C963 H952 0.930 . S
C963 C961 1.404 . S
C963 C964 1.366 . S
C964 H943 0.930 . S
C964 C960 1.416 . S
C964 C963 1.366 . S
H965 C958 0.929 . S
H966 C989 0.931 . S
H967 C990 0.931 . S
O968 Eu924 2.462 . S
O968 C988 1.252 . S
O969 Eu924 2.373 . S
O969 C980 1.249 . S
O970 Eu935 2.335 . S
O970 C980 1.264 . S
O971 Eu924 2.432 . S
O971 C988 1.268 . S
O972 Eu924 2.291 . S
O972 C987 1.255 . S
O973 Eu935 2.372 . S
O973 C987 1.257 . S
O974 Eu935 2.462 . S
O974 C999 1.252 . S
O975 Eu935 2.373 . S
O975 C991 1.249 . S
O976 Eu924 2.335 . S
O976 C991 1.264 . S
O977 Eu935 2.432 . S
O977 C999 1.268 . S
O978 Eu935 2.291 . S
O978 C998 1.255 . S
O979 Eu924 2.372 . S
O979 C998 1.257 . S
C980 O969 1.249 . S
C980 O970 1.264 . S
C981 C984 1.382 . S
C981 C986 1.390 . S
C981 C988 1.506 . S
C982 C983 1.398 . S
C982 C986 1.392 . S
C983 C982 1.398 . S
C983 C985 1.372 . S
C983 H1000 0.931 . S
C984 C981 1.382 . S
C984 C985 1.390 . S
C984 H1001 0.931 . S
C985 C983 1.372 . S
C985 C984 1.390 . S
C985 H1002 0.929 . S
C986 C981 1.390 . S
C986 C982 1.392 . S
C986 H1003 0.930 . S
C987 O972 1.255 . S
C987 O973 1.257 . S
C988 Eu924 2.787 . S
C988 O968 1.252 . S
C988 O971 1.268 . S
C988 C981 1.506 . S
C989 C956 1.439 . S
C989 H966 0.931 . S
C989 C990 1.374 . S
C990 C961 1.387 . S
C990 H967 0.931 . S
C990 C989 1.374 . S
C991 O975 1.249 . S
C991 O976 1.264 . S
C992 C995 1.382 . S
C992 C996 1.390 . S
C992 C999 1.506 . S
C993 C994 1.398 . S
C993 C996 1.392 . S
C994 C993 1.398 . S
C994 C997 1.372 . S
C994 H1004 0.931 . S
C995 C992 1.382 . S
C995 C997 1.390 . S
C995 H1005 0.931 . S
C996 C992 1.390 . S
C996 C993 1.392 . S
C996 H1006 0.930 . S
C997 C994 1.372 . S
C997 C995 1.390 . S
C997 H1007 0.929 . S
C998 O978 1.255 . S
C998 O979 1.257 . S
C999 Eu935 2.787 . S
C999 O974 1.252 . S
C999 O977 1.268 . S
C999 C992 1.506 . S
H1000 C983 0.931 . S
H1001 C984 0.931 . S
H1002 C985 0.929 . S
H1003 C986 0.930 . S
H1004 C994 0.931 . S
H1005 C995 0.931 . S
H1006 C996 0.930 . S
H1007 C997 0.929 . S
H1008 C1016 0.950 . S
H1009 C1021 0.950 . S
H1010 C1018 0.950 . S
H1011 C1020 0.950 . S
H1012 C1022 0.950 . S
H1013 C1024 0.950 . S
H1014 C1026 0.950 . S
H1015 C1027 0.950 . S
C1016 H1008 0.950 . S
C1016 C1017 1.386 . S
C1016 C1018 1.391 . S
C1017 C1016 1.386 . S
C1017 C1021 1.393 . S
C1018 H1010 0.950 . S
C1018 C1016 1.391 . S
C1018 C1019 1.400 . S
C1019 C1018 1.400 . S
C1019 C1020 1.398 . S
C1019 C1025 1.491 . S
C1020 H1011 0.950 . S
C1020 C1019 1.398 . S
C1020 C1021 1.391 . S
C1021 H1009 0.950 . S
C1021 C1017 1.393 . S
C1021 C1020 1.391 . S
C1022 H1012 0.950 . S
C1022 C1023 1.386 . S
C1022 C1024 1.391 . S
C1023 C1022 1.386 . S
C1023 C1027 1.393 . S
C1024 H1013 0.950 . S
C1024 C1022 1.391 . S
C1024 C1025 1.400 . S
C1025 C1019 1.491 . S
C1025 C1024 1.400 . S
C1025 C1026 1.398 . S
C1026 H1014 0.950 . S
C1026 C1025 1.398 . S
C1026 C1027 1.391 . S
C1027 H1015 0.950 . S
C1027 C1023 1.393 . S
C1027 C1026 1.391 . S
H1028 C1036 0.950 . S
H1029 C1041 0.950 . S
H1030 C1038 0.950 . S
H1031 C1040 0.950 . S
H1032 C1042 0.950 . S
H1033 C1044 0.950 . S
H1034 C1046 0.950 . S
H1035 C1047 0.950 . S
C1036 H1028 0.950 . S
C1036 C1037 1.386 . S
C1036 C1038 1.391 . S
C1037 C1036 1.386 . S
C1037 C1041 1.393 . S
C1038 H1030 0.950 . S
C1038 C1036 1.391 . S
C1038 C1039 1.400 . S
C1039 C1038 1.400 . S
C1039 C1040 1.398 . S
C1039 C1045 1.491 . S
C1040 H1031 0.950 . S
C1040 C1039 1.398 . S
C1040 C1041 1.391 . S
C1041 H1029 0.950 . S
C1041 C1037 1.393 . S
C1041 C1040 1.391 . S
C1042 H1032 0.950 . S
C1042 C1043 1.386 . S
C1042 C1044 1.391 . S
C1043 C1042 1.386 . S
C1043 C1047 1.393 . S
C1044 H1033 0.950 . S
C1044 C1042 1.391 . S
C1044 C1045 1.400 . S
C1045 C1039 1.491 . S
C1045 C1044 1.400 . S
C1045 C1046 1.398 . S
C1046 H1034 0.950 . S
C1046 C1045 1.398 . S
C1046 C1047 1.391 . S
C1047 H1035 0.950 . S
C1047 C1043 1.393 . S
C1047 C1046 1.391 . S
H1048 C1056 0.950 . S
H1049 C1061 0.950 . S
H1050 C1058 0.950 . S
H1051 C1060 0.950 . S
H1052 C1062 0.950 . S
H1053 C1064 0.950 . S
H1054 C1066 0.950 . S
H1055 C1067 0.950 . S
C1056 H1048 0.950 . S
C1056 C1057 1.386 . S
C1056 C1058 1.391 . S
C1057 C1056 1.386 . S
C1057 C1061 1.393 . S
C1058 H1050 0.950 . S
C1058 C1056 1.391 . S
C1058 C1059 1.400 . S
C1059 C1058 1.400 . S
C1059 C1060 1.398 . S
C1059 C1065 1.491 . S
C1060 H1051 0.950 . S
C1060 C1059 1.398 . S
C1060 C1061 1.391 . S
C1061 H1049 0.950 . S
C1061 C1057 1.393 . S
C1061 C1060 1.391 . S
C1062 H1052 0.950 . S
C1062 C1063 1.386 . S
C1062 C1064 1.391 . S
C1063 C1062 1.386 . S
C1063 C1067 1.393 . S
C1064 H1053 0.950 . S
C1064 C1062 1.391 . S
C1064 C1065 1.400 . S
C1065 C1059 1.491 . S
C1065 C1064 1.400 . S
C1065 C1066 1.398 . S
C1066 H1054 0.950 . S
C1066 C1065 1.398 . S
C1066 C1067 1.391 . S
C1067 H1055 0.950 . S
C1067 C1063 1.393 . S
C1067 C1066 1.391 . S
H1068 C1076 0.950 . S
H1069 C1081 0.950 . S
H1070 C1078 0.950 . S
H1071 C1080 0.950 . S
H1072 C1082 0.950 . S
H1073 C1084 0.950 . S
H1074 C1086 0.950 . S
H1075 C1087 0.950 . S
C1076 H1068 0.950 . S
C1076 C1077 1.386 . S
C1076 C1078 1.391 . S
C1077 C1076 1.386 . S
C1077 C1081 1.393 . S
C1078 H1070 0.950 . S
C1078 C1076 1.391 . S
C1078 C1079 1.400 . S
C1079 C1078 1.400 . S
C1079 C1080 1.398 . S
C1079 C1085 1.491 . S
C1080 H1071 0.950 . S
C1080 C1079 1.398 . S
C1080 C1081 1.391 . S
C1081 H1069 0.950 . S
C1081 C1077 1.393 . S
C1081 C1080 1.391 . S
C1082 H1072 0.950 . S
C1082 C1083 1.386 . S
C1082 C1084 1.391 . S
C1083 C1082 1.386 . S
C1083 C1087 1.393 . S
C1084 H1073 0.950 . S
C1084 C1082 1.391 . S
C1084 C1085 1.400 . S
C1085 C1079 1.491 . S
C1085 C1084 1.400 . S
C1085 C1086 1.398 . S
C1086 H1074 0.950 . S
C1086 C1085 1.398 . S
C1086 C1087 1.391 . S
C1087 H1075 0.950 . S
C1087 C1083 1.393 . S
C1087 C1086 1.391 . S
H1088 C1096 0.950 . S
H1089 C1101 0.950 . S
H1090 C1098 0.950 . S
H1091 C1100 0.950 . S
H1092 C1102 0.950 . S
H1093 C1104 0.950 . S
H1094 C1106 0.950 . S
H1095 C1107 0.950 . S
C1096 H1088 0.950 . S
C1096 C1097 1.386 . S
C1096 C1098 1.391 . S
C1097 C1096 1.386 . S
C1097 C1101 1.393 . S
C1098 H1090 0.950 . S
C1098 C1096 1.391 . S
C1098 C1099 1.400 . S
C1099 C1098 1.400 . S
C1099 C1100 1.398 . S
C1099 C1105 1.491 . S
C1100 H1091 0.950 . S
C1100 C1099 1.398 . S
C1100 C1101 1.391 . S
C1101 H1089 0.950 . S
C1101 C1097 1.393 . S
C1101 C1100 1.391 . S
C1102 H1092 0.950 . S
C1102 C1103 1.386 . S
C1102 C1104 1.391 . S
C1103 C1102 1.386 . S
C1103 C1107 1.393 . S
C1104 H1093 0.950 . S
C1104 C1102 1.391 . S
C1104 C1105 1.400 . S
C1105 C1099 1.491 . S
C1105 C1104 1.400 . S
C1105 C1106 1.398 . S
C1106 H1094 0.950 . S
C1106 C1105 1.398 . S
C1106 C1107 1.391 . S
C1107 H1095 0.950 . S
C1107 C1103 1.393 . S
C1107 C1106 1.391 . S
H1108 C1116 0.950 . S
H1109 C1121 0.950 . S
H1110 C1118 0.950 . S
H1111 C1120 0.950 . S
H1112 C1122 0.950 . S
H1113 C1124 0.950 . S
H1114 C1126 0.950 . S
H1115 C1127 0.950 . S
C1116 H1108 0.950 . S
C1116 C1117 1.386 . S
C1116 C1118 1.391 . S
C1117 C1116 1.386 . S
C1117 C1121 1.393 . S
C1118 H1110 0.950 . S
C1118 C1116 1.391 . S
C1118 C1119 1.400 . S
C1119 C1118 1.400 . S
C1119 C1120 1.398 . S
C1119 C1125 1.491 . S
C1120 H1111 0.950 . S
C1120 C1119 1.398 . S
C1120 C1121 1.391 . S
C1121 H1109 0.950 . S
C1121 C1117 1.393 . S
C1121 C1120 1.391 . S
C1122 H1112 0.950 . S
C1122 C1123 1.386 . S
C1122 C1124 1.391 . S
C1123 C1122 1.386 . S
C1123 C1127 1.393 . S
C1124 H1113 0.950 . S
C1124 C1122 1.391 . S
C1124 C1125 1.400 . S
C1125 C1119 1.491 . S
C1125 C1124 1.400 . S
C1125 C1126 1.398 . S
C1126 H1114 0.950 . S
C1126 C1125 1.398 . S
C1126 C1127 1.391 . S
C1127 H1115 0.950 . S
C1127 C1123 1.393 . S
C1127 C1126 1.391 . S
H1128 C1136 0.950 . S
H1129 C1141 0.950 . S
H1130 C1138 0.950 . S
H1131 C1140 0.950 . S
H1132 C1142 0.950 . S
H1133 C1144 0.950 . S
H1134 C1146 0.950 . S
H1135 C1147 0.950 . S
C1136 H1128 0.950 . S
C1136 C1137 1.386 . S
C1136 C1138 1.391 . S
C1137 C1136 1.386 . S
C1137 C1141 1.393 . S
C1138 H1130 0.950 . S
C1138 C1136 1.391 . S
C1138 C1139 1.400 . S
C1139 C1138 1.400 . S
C1139 C1140 1.398 . S
C1139 C1145 1.491 . S
C1140 H1131 0.950 . S
C1140 C1139 1.398 . S
C1140 C1141 1.391 . S
C1141 H1129 0.950 . S
C1141 C1137 1.393 . S
C1141 C1140 1.391 . S
C1142 H1132 0.950 . S
C1142 C1143 1.386 . S
C1142 C1144 1.391 . S
C1143 C1142 1.386 . S
C1143 C1147 1.393 . S
C1144 H1133 0.950 . S
C1144 C1142 1.391 . S
C1144 C1145 1.400 . S
C1145 C1139 1.491 . S
C1145 C1144 1.400 . S
C1145 C1146 1.398 . S
C1146 H1134 0.950 . S
C1146 C1145 1.398 . S
C1146 C1147 1.391 . S
C1147 H1135 0.950 . S
C1147 C1143 1.393 . S
C1147 C1146 1.391 . S
H1148 C1156 0.950 . S
H1149 C1161 0.950 . S
H1150 C1158 0.950 . S
H1151 C1160 0.950 . S
H1152 C1162 0.950 . S
H1153 C1164 0.950 . S
H1154 C1166 0.950 . S
H1155 C1167 0.950 . S
C1156 H1148 0.950 . S
C1156 C1157 1.386 . S
C1156 C1158 1.391 . S
C1157 C1156 1.386 . S
C1157 C1161 1.393 . S
C1158 H1150 0.950 . S
C1158 C1156 1.391 . S
C1158 C1159 1.400 . S
C1159 C1158 1.400 . S
C1159 C1160 1.398 . S
C1159 C1165 1.491 . S
C1160 H1151 0.950 . S
C1160 C1159 1.398 . S
C1160 C1161 1.391 . S
C1161 H1149 0.950 . S
C1161 C1157 1.393 . S
C1161 C1160 1.391 . S
C1162 H1152 0.950 . S
C1162 C1163 1.386 . S
C1162 C1164 1.391 . S
C1163 C1162 1.386 . S
C1163 C1167 1.393 . S
C1164 H1153 0.950 . S
C1164 C1162 1.391 . S
C1164 C1165 1.400 . S
C1165 C1159 1.491 . S
C1165 C1164 1.400 . S
C1165 C1166 1.398 . S
C1166 H1154 0.950 . S
C1166 C1165 1.398 . S
C1166 C1167 1.391 . S
C1167 H1155 0.950 . S
C1167 C1163 1.393 . S
C1167 C1166 1.391 . S
H1168 C1176 0.950 . S
H1169 C1181 0.950 . S
H1170 C1178 0.950 . S
H1171 C1180 0.950 . S
H1172 C1182 0.950 . S
H1173 C1184 0.950 . S
H1174 C1186 0.950 . S
H1175 C1187 0.950 . S
C1176 H1168 0.950 . S
C1176 C1177 1.386 . S
C1176 C1178 1.391 . S
C1177 C1176 1.386 . S
C1177 C1181 1.393 . S
C1178 H1170 0.950 . S
C1178 C1176 1.391 . S
C1178 C1179 1.400 . S
C1179 C1178 1.400 . S
C1179 C1180 1.398 . S
C1179 C1185 1.491 . S
C1180 H1171 0.950 . S
C1180 C1179 1.398 . S
C1180 C1181 1.391 . S
C1181 H1169 0.950 . S
C1181 C1177 1.393 . S
C1181 C1180 1.391 . S
C1182 H1172 0.950 . S
C1182 C1183 1.386 . S
C1182 C1184 1.391 . S
C1183 C1182 1.386 . S
C1183 C1187 1.393 . S
C1184 H1173 0.950 . S
C1184 C1182 1.391 . S
C1184 C1185 1.400 . S
C1185 C1179 1.491 . S
C1185 C1184 1.400 . S
C1185 C1186 1.398 . S
C1186 H1174 0.950 . S
C1186 C1185 1.398 . S
C1186 C1187 1.391 . S
C1187 H1175 0.950 . S
C1187 C1183 1.393 . S
C1187 C1186 1.391 . S
H1188 C1196 0.950 . S
H1189 C1201 0.950 . S
H1190 C1198 0.950 . S
H1191 C1200 0.950 . S
H1192 C1202 0.950 . S
H1193 C1204 0.950 . S
H1194 C1206 0.950 . S
H1195 C1207 0.950 . S
C1196 H1188 0.950 . S
C1196 C1197 1.386 . S
C1196 C1198 1.391 . S
C1197 C1196 1.386 . S
C1197 C1201 1.393 . S
C1198 H1190 0.950 . S
C1198 C1196 1.391 . S
C1198 C1199 1.400 . S
C1199 C1198 1.400 . S
C1199 C1200 1.398 . S
C1199 C1205 1.491 . S
C1200 H1191 0.950 . S
C1200 C1199 1.398 . S
C1200 C1201 1.391 . S
C1201 H1189 0.950 . S
C1201 C1197 1.393 . S
C1201 C1200 1.391 . S
C1202 H1192 0.950 . S
C1202 C1203 1.386 . S
C1202 C1204 1.391 . S
C1203 C1202 1.386 . S
C1203 C1207 1.393 . S
C1204 H1193 0.950 . S
C1204 C1202 1.391 . S
C1204 C1205 1.400 . S
C1205 C1199 1.491 . S
C1205 C1204 1.400 . S
C1205 C1206 1.398 . S
C1206 H1194 0.950 . S
C1206 C1205 1.398 . S
C1206 C1207 1.391 . S
C1207 H1195 0.950 . S
C1207 C1203 1.393 . S
C1207 C1206 1.391 . S
H1208 C1216 0.950 . S
H1209 C1221 0.950 . S
H1210 C1218 0.950 . S
H1211 C1220 0.950 . S
H1212 C1222 0.950 . S
H1213 C1224 0.950 . S
H1214 C1226 0.950 . S
H1215 C1227 0.950 . S
C1216 H1208 0.950 . S
C1216 C1217 1.386 . S
C1216 C1218 1.391 . S
C1217 C1216 1.386 . S
C1217 C1221 1.393 . S
C1218 H1210 0.950 . S
C1218 C1216 1.391 . S
C1218 C1219 1.400 . S
C1219 C1218 1.400 . S
C1219 C1220 1.398 . S
C1219 C1225 1.491 . S
C1220 H1211 0.950 . S
C1220 C1219 1.398 . S
C1220 C1221 1.391 . S
C1221 H1209 0.950 . S
C1221 C1217 1.393 . S
C1221 C1220 1.391 . S
C1222 H1212 0.950 . S
C1222 C1223 1.386 . S
C1222 C1224 1.391 . S
C1223 C1222 1.386 . S
C1223 C1227 1.393 . S
C1224 H1213 0.950 . S
C1224 C1222 1.391 . S
C1224 C1225 1.400 . S
C1225 C1219 1.491 . S
C1225 C1224 1.400 . S
C1225 C1226 1.398 . S
C1226 H1214 0.950 . S
C1226 C1225 1.398 . S
C1226 C1227 1.391 . S
C1227 H1215 0.950 . S
C1227 C1223 1.393 . S
C1227 C1226 1.391 . S
H1228 C1236 0.950 . S
H1229 C1241 0.950 . S
H1230 C1238 0.950 . S
H1231 C1240 0.950 . S
H1232 C1242 0.950 . S
H1233 C1244 0.950 . S
H1234 C1246 0.950 . S
H1235 C1247 0.950 . S
C1236 H1228 0.950 . S
C1236 C1237 1.386 . S
C1236 C1238 1.391 . S
C1237 C1236 1.386 . S
C1237 C1241 1.393 . S
C1238 H1230 0.950 . S
C1238 C1236 1.391 . S
C1238 C1239 1.400 . S
C1239 C1238 1.400 . S
C1239 C1240 1.398 . S
C1239 C1245 1.491 . S
C1240 H1231 0.950 . S
C1240 C1239 1.398 . S
C1240 C1241 1.391 . S
C1241 H1229 0.950 . S
C1241 C1237 1.393 . S
C1241 C1240 1.391 . S
C1242 H1232 0.950 . S
C1242 C1243 1.386 . S
C1242 C1244 1.391 . S
C1243 C1242 1.386 . S
C1243 C1247 1.393 . S
C1244 H1233 0.950 . S
C1244 C1242 1.391 . S
C1244 C1245 1.400 . S
C1245 C1239 1.491 . S
C1245 C1244 1.400 . S
C1245 C1246 1.398 . S
C1246 H1234 0.950 . S
C1246 C1245 1.398 . S
C1246 C1247 1.391 . S
C1247 H1235 0.950 . S
C1247 C1243 1.393 . S
C1247 C1246 1.391 . S
H1248 C1256 0.950 . S
H1249 C1261 0.950 . S
H1250 C1258 0.950 . S
H1251 C1260 0.950 . S
H1252 C1262 0.950 . S
H1253 C1264 0.950 . S
H1254 C1266 0.950 . S
H1255 C1267 0.950 . S
C1256 H1248 0.950 . S
C1256 C1257 1.386 . S
C1256 C1258 1.391 . S
C1257 C1256 1.386 . S
C1257 C1261 1.393 . S
C1258 H1250 0.950 . S
C1258 C1256 1.391 . S
C1258 C1259 1.400 . S
C1259 C1258 1.400 . S
C1259 C1260 1.398 . S
C1259 C1265 1.491 . S
C1260 H1251 0.950 . S
C1260 C1259 1.398 . S
C1260 C1261 1.391 . S
C1261 H1249 0.950 . S
C1261 C1257 1.393 . S
C1261 C1260 1.391 . S
C1262 H1252 0.950 . S
C1262 C1263 1.386 . S
C1262 C1264 1.391 . S
C1263 C1262 1.386 . S
C1263 C1267 1.393 . S
C1264 H1253 0.950 . S
C1264 C1262 1.391 . S
C1264 C1265 1.400 . S
C1265 C1259 1.491 . S
C1265 C1264 1.400 . S
C1265 C1266 1.398 . S
C1266 H1254 0.950 . S
C1266 C1265 1.398 . S
C1266 C1267 1.391 . S
C1267 H1255 0.950 . S
C1267 C1263 1.393 . S
C1267 C1266 1.391 . S
H1268 C1276 0.950 . S
H1269 C1281 0.950 . S
H1270 C1278 0.950 . S
H1271 C1280 0.950 . S
H1272 C1282 0.950 . S
H1273 C1284 0.950 . S
H1274 C1286 0.950 . S
H1275 C1287 0.950 . S
C1276 H1268 0.950 . S
C1276 C1277 1.386 . S
C1276 C1278 1.391 . S
C1277 C1276 1.386 . S
C1277 C1281 1.393 . S
C1278 H1270 0.950 . S
C1278 C1276 1.391 . S
C1278 C1279 1.400 . S
C1279 C1278 1.400 . S
C1279 C1280 1.398 . S
C1279 C1285 1.491 . S
C1280 H1271 0.950 . S
C1280 C1279 1.398 . S
C1280 C1281 1.391 . S
C1281 H1269 0.950 . S
C1281 C1277 1.393 . S
C1281 C1280 1.391 . S
C1282 H1272 0.950 . S
C1282 C1283 1.386 . S
C1282 C1284 1.391 . S
C1283 C1282 1.386 . S
C1283 C1287 1.393 . S
C1284 H1273 0.950 . S
C1284 C1282 1.391 . S
C1284 C1285 1.400 . S
C1285 C1279 1.491 . S
C1285 C1284 1.400 . S
C1285 C1286 1.398 . S
C1286 H1274 0.950 . S
C1286 C1285 1.398 . S
C1286 C1287 1.391 . S
C1287 H1275 0.950 . S
C1287 C1283 1.393 . S
C1287 C1286 1.391 . S
H1288 C1296 0.950 . S
H1289 C1301 0.950 . S
H1290 C1298 0.950 . S
H1291 C1300 0.950 . S
H1292 C1302 0.950 . S
H1293 C1304 0.950 . S
H1294 C1306 0.950 . S
H1295 C1307 0.950 . S
C1296 H1288 0.950 . S
C1296 C1297 1.386 . S
C1296 C1298 1.391 . S
C1297 C1296 1.386 . S
C1297 C1301 1.393 . S
C1298 H1290 0.950 . S
C1298 C1296 1.391 . S
C1298 C1299 1.400 . S
C1299 C1298 1.400 . S
C1299 C1300 1.398 . S
C1299 C1305 1.491 . S
C1300 H1291 0.950 . S
C1300 C1299 1.398 . S
C1300 C1301 1.391 . S
C1301 H1289 0.950 . S
C1301 C1297 1.393 . S
C1301 C1300 1.391 . S
C1302 H1292 0.950 . S
C1302 C1303 1.386 . S
C1302 C1304 1.391 . S
C1303 C1302 1.386 . S
C1303 C1307 1.393 . S
C1304 H1293 0.950 . S
C1304 C1302 1.391 . S
C1304 C1305 1.400 . S
C1305 C1299 1.491 . S
C1305 C1304 1.400 . S
C1305 C1306 1.398 . S
C1306 H1294 0.950 . S
C1306 C1305 1.398 . S
C1306 C1307 1.391 . S
C1307 H1295 0.950 . S
C1307 C1303 1.393 . S
C1307 C1306 1.391 . S
H1308 C1316 0.950 . S
H1309 C1321 0.950 . S
H1310 C1318 0.950 . S
H1311 C1320 0.950 . S
H1312 C1322 0.950 . S
H1313 C1324 0.950 . S
H1314 C1326 0.950 . S
H1315 C1327 0.950 . S
C1316 H1308 0.950 . S
C1316 C1317 1.386 . S
C1316 C1318 1.391 . S
C1317 C1316 1.386 . S
C1317 C1321 1.393 . S
C1318 H1310 0.950 . S
C1318 C1316 1.391 . S
C1318 C1319 1.400 . S
C1319 C1318 1.400 . S
C1319 C1320 1.398 . S
C1319 C1325 1.491 . S
C1320 H1311 0.950 . S
C1320 C1319 1.398 . S
C1320 C1321 1.391 . S
C1321 H1309 0.950 . S
C1321 C1317 1.393 . S
C1321 C1320 1.391 . S
C1322 H1312 0.950 . S
C1322 C1323 1.386 . S
C1322 C1324 1.391 . S
C1323 C1322 1.386 . S
C1323 C1327 1.393 . S
C1324 H1313 0.950 . S
C1324 C1322 1.391 . S
C1324 C1325 1.400 . S
C1325 C1319 1.491 . S
C1325 C1324 1.400 . S
C1325 C1326 1.398 . S
C1326 H1314 0.950 . S
C1326 C1325 1.398 . S
C1326 C1327 1.391 . S
C1327 H1315 0.950 . S
C1327 C1323 1.393 . S
C1327 C1326 1.391 . S
H1328 C1336 0.950 . S
H1329 C1341 0.950 . S
H1330 C1338 0.950 . S
H1331 C1340 0.950 . S
H1332 C1342 0.950 . S
H1333 C1344 0.948 . S
H1334 C1346 0.952 . S
H1335 C1347 0.950 . S
C1336 H1328 0.950 . S
C1336 C1337 1.386 . S
C1336 C1338 1.391 . S
C1337 C1336 1.386 . S
C1337 C1341 1.393 . S
C1338 H1330 0.950 . S
C1338 C1336 1.391 . S
C1338 C1339 1.400 . S
C1339 C1338 1.400 . S
C1339 C1340 1.398 . S
C1339 C1345 1.502 . S
C1340 H1331 0.950 . S
C1340 C1339 1.398 . S
C1340 C1341 1.391 . S
C1341 H1329 0.950 . S
C1341 C1337 1.393 . S
C1341 C1340 1.391 . S
C1342 H1332 0.950 . S
C1342 C1343 1.386 . S
C1342 C1344 1.406 . S
C1343 C1342 1.386 . S
C1343 C1347 1.393 . S
C1344 H1333 0.948 . S
C1344 C1342 1.406 . S
C1344 C1345 1.391 1_554 S
C1345 C1339 1.502 . S
C1345 C1344 1.391 1_556 S
C1345 C1346 1.397 . S
C1346 H1334 0.952 . S
C1346 C1345 1.397 . S
C1346 C1347 1.388 1_556 S
C1347 H1335 0.950 . S
C1347 C1343 1.393 . S
C1347 C1346 1.388 1_554 S
H1348 C1356 0.950 . S
H1349 C1361 0.950 . S
H1350 C1358 0.950 . S
H1351 C1360 0.950 . S
H1352 C1362 0.950 . S
H1353 C1364 0.950 . S
H1354 C1366 0.950 . S
H1355 C1367 0.950 . S
C1356 H1348 0.950 . S
C1356 C1357 1.386 . S
C1356 C1358 1.391 . S
C1357 C1356 1.386 . S
C1357 C1361 1.393 . S
C1358 H1350 0.950 . S
C1358 C1356 1.391 . S
C1358 C1359 1.400 . S
C1359 C1358 1.400 . S
C1359 C1360 1.398 . S
C1359 C1365 1.491 . S
C1360 H1351 0.950 . S
C1360 C1359 1.398 . S
C1360 C1361 1.391 . S
C1361 H1349 0.950 . S
C1361 C1357 1.393 . S
C1361 C1360 1.391 . S
C1362 H1352 0.950 . S
C1362 C1363 1.386 . S
C1362 C1364 1.391 . S
C1363 C1362 1.386 . S
C1363 C1367 1.393 . S
C1364 H1353 0.950 . S
C1364 C1362 1.391 . S
C1364 C1365 1.400 . S
C1365 C1359 1.491 . S
C1365 C1364 1.400 . S
C1365 C1366 1.398 . S
C1366 H1354 0.950 . S
C1366 C1365 1.398 . S
C1366 C1367 1.391 . S
C1367 H1355 0.950 . S
C1367 C1363 1.393 . S
C1367 C1366 1.391 . S
H1368 C1376 0.950 . S
H1369 C1381 0.950 . S
H1370 C1378 0.950 . S
H1371 C1380 0.950 . S
H1372 C1382 0.950 . S
H1373 C1384 0.950 . S
H1374 C1386 0.950 . S
H1375 C1387 0.950 . S
C1376 H1368 0.950 . S
C1376 C1377 1.386 . S
C1376 C1378 1.391 . S
C1377 C1376 1.386 . S
C1377 C1381 1.393 . S
C1378 H1370 0.950 . S
C1378 C1376 1.391 . S
C1378 C1379 1.400 . S
C1379 C1378 1.400 . S
C1379 C1380 1.398 . S
C1379 C1385 1.491 . S
C1380 H1371 0.950 . S
C1380 C1379 1.398 . S
C1380 C1381 1.391 . S
C1381 H1369 0.950 . S
C1381 C1377 1.393 . S
C1381 C1380 1.391 . S
C1382 H1372 0.950 . S
C1382 C1383 1.386 . S
C1382 C1384 1.391 . S
C1383 C1382 1.386 . S
C1383 C1387 1.393 . S
C1384 H1373 0.950 . S
C1384 C1382 1.391 . S
C1384 C1385 1.400 . S
C1385 C1379 1.491 . S
C1385 C1384 1.400 . S
C1385 C1386 1.398 . S
C1386 H1374 0.950 . S
C1386 C1385 1.398 . S
C1386 C1387 1.391 . S
C1387 H1375 0.950 . S
C1387 C1383 1.393 . S
C1387 C1386 1.391 . S
H1388 C1396 0.950 . S
H1389 C1401 0.950 . S
H1390 C1398 0.950 . S
H1391 C1400 0.950 . S
H1392 C1402 0.950 . S
H1393 C1404 0.950 . S
H1394 C1406 0.950 . S
H1395 C1407 0.950 . S
C1396 H1388 0.950 . S
C1396 C1397 1.386 . S
C1396 C1398 1.391 . S
C1397 C1396 1.386 . S
C1397 C1401 1.393 . S
C1398 H1390 0.950 . S
C1398 C1396 1.391 . S
C1398 C1399 1.400 . S
C1399 C1398 1.400 . S
C1399 C1400 1.398 . S
C1399 C1405 1.491 . S
C1400 H1391 0.950 . S
C1400 C1399 1.398 . S
C1400 C1401 1.391 . S
C1401 H1389 0.950 . S
C1401 C1397 1.393 . S
C1401 C1400 1.391 . S
C1402 H1392 0.950 . S
C1402 C1403 1.386 . S
C1402 C1404 1.391 . S
C1403 C1402 1.386 . S
C1403 C1407 1.393 . S
C1404 H1393 0.950 . S
C1404 C1402 1.391 . S
C1404 C1405 1.400 . S
C1405 C1399 1.491 . S
C1405 C1404 1.400 . S
C1405 C1406 1.398 . S
C1406 H1394 0.950 . S
C1406 C1405 1.398 . S
C1406 C1407 1.391 . S
C1407 H1395 0.950 . S
C1407 C1403 1.393 . S
C1407 C1406 1.391 . S
H1408 C1416 0.950 . S
H1409 C1421 0.950 . S
H1410 C1418 0.950 . S
H1411 C1420 0.950 . S
H1412 C1422 0.950 . S
H1413 C1424 0.950 . S
H1414 C1426 0.950 . S
H1415 C1427 0.950 . S
C1416 H1408 0.950 . S
C1416 C1417 1.386 . S
C1416 C1418 1.391 . S
C1417 C1416 1.386 . S
C1417 C1421 1.393 . S
C1418 H1410 0.950 . S
C1418 C1416 1.391 . S
C1418 C1419 1.400 . S
C1419 C1418 1.400 . S
C1419 C1420 1.398 . S
C1419 C1425 1.491 . S
C1420 H1411 0.950 . S
C1420 C1419 1.398 . S
C1420 C1421 1.391 . S
C1421 H1409 0.950 . S
C1421 C1417 1.393 . S
C1421 C1420 1.391 . S
C1422 H1412 0.950 . S
C1422 C1423 1.386 . S
C1422 C1424 1.391 . S
C1423 C1422 1.386 . S
C1423 C1427 1.393 . S
C1424 H1413 0.950 . S
C1424 C1422 1.391 . S
C1424 C1425 1.400 . S
C1425 C1419 1.491 . S
C1425 C1424 1.400 . S
C1425 C1426 1.398 . S
C1426 H1414 0.950 . S
C1426 C1425 1.398 . S
C1426 C1427 1.391 . S
C1427 H1415 0.950 . S
C1427 C1423 1.393 . S
C1427 C1426 1.391 . S
H1428 C1436 0.950 . S
H1429 C1441 0.950 . S
H1430 C1438 0.950 1_556 S
H1431 C1440 0.950 . S
H1432 C1442 0.950 . S
H1433 C1444 0.950 . S
H1434 C1446 0.950 . S
H1435 C1447 0.950 . S
C1436 H1428 0.950 . S
C1436 C1437 1.386 . S
C1436 C1438 1.391 . S
C1437 C1436 1.386 . S
C1437 C1441 1.393 . S
C1438 H1430 0.950 1_554 S
C1438 C1436 1.391 . S
C1438 C1439 1.400 . S
C1439 C1438 1.400 . S
C1439 C1440 1.398 . S
C1439 C1445 1.491 . S
C1440 H1431 0.950 . S
C1440 C1439 1.398 . S
C1440 C1441 1.391 . S
C1441 H1429 0.950 . S
C1441 C1437 1.393 . S
C1441 C1440 1.391 . S
C1442 H1432 0.950 . S
C1442 C1443 1.386 1_554 S
C1442 C1444 1.391 . S
C1443 C1442 1.386 1_556 S
C1443 C1447 1.393 . S
C1444 H1433 0.950 . S
C1444 C1442 1.391 . S
C1444 C1445 1.400 . S
C1445 C1439 1.491 . S
C1445 C1444 1.400 . S
C1445 C1446 1.398 1_554 S
C1446 H1434 0.950 . S
C1446 C1445 1.398 1_556 S
C1446 C1447 1.391 . S
C1447 H1435 0.950 . S
C1447 C1443 1.393 . S
C1447 C1446 1.391 . S
H1448 C1456 0.950 . S
H1449 C1461 0.950 . S
H1450 C1458 0.950 . S
H1451 C1460 0.950 . S
H1452 C1462 0.950 . S
H1453 C1464 0.950 . S
H1454 C1466 0.950 . S
H1455 C1467 0.950 . S
C1456 H1448 0.950 . S
C1456 C1457 1.386 . S
C1456 C1458 1.391 . S
C1457 C1456 1.386 . S
C1457 C1461 1.393 . S
C1458 H1450 0.950 . S
C1458 C1456 1.391 . S
C1458 C1459 1.400 . S
C1459 C1458 1.400 . S
C1459 C1460 1.398 . S
C1459 C1465 1.491 . S
C1460 H1451 0.950 . S
C1460 C1459 1.398 . S
C1460 C1461 1.391 . S
C1461 H1449 0.950 . S
C1461 C1457 1.393 . S
C1461 C1460 1.391 . S
C1462 H1452 0.950 . S
C1462 C1463 1.386 . S
C1462 C1464 1.391 . S
C1463 C1462 1.386 . S
C1463 C1467 1.393 . S
C1464 H1453 0.950 . S
C1464 C1462 1.391 . S
C1464 C1465 1.400 . S
C1465 C1459 1.491 . S
C1465 C1464 1.400 . S
C1465 C1466 1.398 . S
C1466 H1454 0.950 . S
C1466 C1465 1.398 . S
C1466 C1467 1.391 . S
C1467 H1455 0.950 . S
C1467 C1463 1.393 . S
C1467 C1466 1.391 . S
H1468 C1476 0.950 . S
H1469 C1481 0.950 . S
H1470 C1478 0.950 . S
H1471 C1480 0.950 . S
H1472 C1482 0.950 . S
H1473 C1484 0.950 . S
H1474 C1486 0.950 . S
H1475 C1487 0.950 . S
C1476 H1468 0.950 . S
C1476 C1477 1.386 . S
C1476 C1478 1.391 . S
C1477 C1476 1.386 . S
C1477 C1481 1.393 . S
C1478 H1470 0.950 . S
C1478 C1476 1.391 . S
C1478 C1479 1.400 . S
C1479 C1478 1.400 . S
C1479 C1480 1.398 . S
C1479 C1485 1.491 . S
C1480 H1471 0.950 . S
C1480 C1479 1.398 . S
C1480 C1481 1.391 . S
C1481 H1469 0.950 . S
C1481 C1477 1.393 . S
C1481 C1480 1.391 . S
C1482 H1472 0.950 . S
C1482 C1483 1.386 . S
C1482 C1484 1.391 . S
C1483 C1482 1.386 . S
C1483 C1487 1.393 . S
C1484 H1473 0.950 . S
C1484 C1482 1.391 . S
C1484 C1485 1.400 . S
C1485 C1479 1.491 . S
C1485 C1484 1.400 . S
C1485 C1486 1.398 . S
C1486 H1474 0.950 . S
C1486 C1485 1.398 . S
C1486 C1487 1.391 . S
C1487 H1475 0.950 . S
C1487 C1483 1.393 . S
C1487 C1486 1.391 . S
H1488 C1496 0.950 . S
H1489 C1501 0.950 . S
H1490 C1498 0.950 . S
H1491 C1500 0.950 . S
H1492 C1502 0.950 . S
H1493 C1504 0.950 . S
H1494 C1506 0.950 . S
H1495 C1507 0.950 . S
C1496 H1488 0.950 . S
C1496 C1497 1.386 . S
C1496 C1498 1.391 . S
C1497 C1496 1.386 . S
C1497 C1501 1.393 . S
C1498 H1490 0.950 . S
C1498 C1496 1.391 . S
C1498 C1499 1.400 . S
C1499 C1498 1.400 . S
C1499 C1500 1.398 . S
C1499 C1505 1.491 . S
C1500 H1491 0.950 . S
C1500 C1499 1.398 . S
C1500 C1501 1.391 . S
C1501 H1489 0.950 . S
C1501 C1497 1.393 . S
C1501 C1500 1.391 . S
C1502 H1492 0.950 . S
C1502 C1503 1.386 . S
C1502 C1504 1.391 . S
C1503 C1502 1.386 . S
C1503 C1507 1.393 . S
C1504 H1493 0.950 . S
C1504 C1502 1.391 . S
C1504 C1505 1.400 . S
C1505 C1499 1.491 . S
C1505 C1504 1.400 . S
C1505 C1506 1.398 . S
C1506 H1494 0.950 . S
C1506 C1505 1.398 . S
C1506 C1507 1.391 . S
C1507 H1495 0.950 . S
C1507 C1503 1.393 . S
C1507 C1506 1.391 . S
H1508 C1516 0.950 . S
H1509 C1521 0.950 . S
H1510 C1518 0.950 . S
H1511 C1520 0.950 . S
H1512 C1522 0.950 . S
H1513 C1524 0.950 . S
H1514 C1526 0.950 . S
H1515 C1527 0.950 . S
C1516 H1508 0.950 . S
C1516 C1517 1.386 . S
C1516 C1518 1.391 . S
C1517 C1516 1.386 . S
C1517 C1521 1.393 . S
C1518 H1510 0.950 . S
C1518 C1516 1.391 . S
C1518 C1519 1.400 . S
C1519 C1518 1.400 . S
C1519 C1520 1.398 . S
C1519 C1525 1.491 . S
C1520 H1511 0.950 . S
C1520 C1519 1.398 . S
C1520 C1521 1.391 . S
C1521 H1509 0.950 . S
C1521 C1517 1.393 . S
C1521 C1520 1.391 . S
C1522 H1512 0.950 . S
C1522 C1523 1.386 . S
C1522 C1524 1.391 . S
C1523 C1522 1.386 . S
C1523 C1527 1.393 . S
C1524 H1513 0.950 . S
C1524 C1522 1.391 . S
C1524 C1525 1.400 . S
C1525 C1519 1.491 . S
C1525 C1524 1.400 . S
C1525 C1526 1.398 . S
C1526 H1514 0.950 . S
C1526 C1525 1.398 . S
C1526 C1527 1.391 . S
C1527 H1515 0.950 . S
C1527 C1523 1.393 . S
C1527 C1526 1.391 . S
H1528 C1536 0.950 . S
H1529 C1541 0.950 . S
H1530 C1538 0.950 . S
H1531 C1540 0.950 . S
H1532 C1542 0.950 . S
H1533 C1544 0.950 . S
H1534 C1546 0.950 . S
H1535 C1547 0.950 . S
C1536 H1528 0.950 . S
C1536 C1537 1.386 . S
C1536 C1538 1.391 . S
C1537 C1536 1.386 . S
C1537 C1541 1.393 . S
C1538 H1530 0.950 . S
C1538 C1536 1.391 . S
C1538 C1539 1.400 . S
C1539 C1538 1.400 . S
C1539 C1540 1.398 . S
C1539 C1545 1.491 . S
C1540 H1531 0.950 . S
C1540 C1539 1.398 . S
C1540 C1541 1.391 . S
C1541 H1529 0.950 . S
C1541 C1537 1.393 . S
C1541 C1540 1.391 . S
C1542 H1532 0.950 . S
C1542 C1543 1.386 . S
C1542 C1544 1.391 . S
C1543 C1542 1.386 . S
C1543 C1547 1.393 . S
C1544 H1533 0.950 . S
C1544 C1542 1.391 . S
C1544 C1545 1.400 . S
C1545 C1539 1.491 . S
C1545 C1544 1.400 . S
C1545 C1546 1.398 . S
C1546 H1534 0.950 . S
C1546 C1545 1.398 . S
C1546 C1547 1.391 . S
C1547 H1535 0.950 . S
C1547 C1543 1.393 . S
C1547 C1546 1.391 . S
H1548 C1556 0.950 . S
H1549 C1561 0.950 . S
H1550 C1558 0.950 . S
H1551 C1560 0.950 . S
H1552 C1562 0.950 . S
H1553 C1564 0.950 . S
H1554 C1566 0.950 . S
H1555 C1567 0.950 . S
C1556 H1548 0.950 . S
C1556 C1557 1.386 . S
C1556 C1558 1.391 . S
C1557 C1556 1.386 . S
C1557 C1561 1.393 . S
C1558 H1550 0.950 . S
C1558 C1556 1.391 . S
C1558 C1559 1.400 . S
C1559 C1558 1.400 . S
C1559 C1560 1.398 . S
C1559 C1565 1.491 . S
C1560 H1551 0.950 . S
C1560 C1559 1.398 . S
C1560 C1561 1.391 . S
C1561 H1549 0.950 . S
C1561 C1557 1.393 . S
C1561 C1560 1.391 . S
C1562 H1552 0.950 . S
C1562 C1563 1.386 . S
C1562 C1564 1.391 . S
C1563 C1562 1.386 . S
C1563 C1567 1.393 . S
C1564 H1553 0.950 . S
C1564 C1562 1.391 . S
C1564 C1565 1.400 . S
C1565 C1559 1.491 . S
C1565 C1564 1.400 . S
C1565 C1566 1.398 . S
C1566 H1554 0.950 . S
C1566 C1565 1.398 . S
C1566 C1567 1.391 . S
C1567 H1555 0.950 . S
C1567 C1563 1.393 . S
C1567 C1566 1.391 . S
H1568 C1576 0.950 . S
H1569 C1581 0.950 . S
H1570 C1578 0.950 . S
H1571 C1580 0.950 . S
H1572 C1582 0.950 . S
H1573 C1584 0.950 . S
H1574 C1586 0.950 . S
H1575 C1587 0.950 . S
C1576 H1568 0.950 . S
C1576 C1577 1.386 . S
C1576 C1578 1.391 . S
C1577 C1576 1.386 . S
C1577 C1581 1.393 . S
C1578 H1570 0.950 . S
C1578 C1576 1.391 . S
C1578 C1579 1.400 . S
C1579 C1578 1.400 . S
C1579 C1580 1.398 . S
C1579 C1585 1.491 . S
C1580 H1571 0.950 . S
C1580 C1579 1.398 . S
C1580 C1581 1.391 . S
C1581 H1569 0.950 . S
C1581 C1577 1.393 . S
C1581 C1580 1.391 . S
C1582 H1572 0.950 . S
C1582 C1583 1.386 . S
C1582 C1584 1.391 . S
C1583 C1582 1.386 . S
C1583 C1587 1.393 . S
C1584 H1573 0.950 . S
C1584 C1582 1.391 . S
C1584 C1585 1.400 . S
C1585 C1579 1.491 . S
C1585 C1584 1.400 . S
C1585 C1586 1.398 . S
C1586 H1574 0.950 . S
C1586 C1585 1.398 . S
C1586 C1587 1.391 . S
C1587 H1575 0.950 . S
C1587 C1583 1.393 . S
C1587 C1586 1.391 . S
H1588 C1596 0.950 . S
H1589 C1601 0.950 . S
H1590 C1598 0.950 . S
H1591 C1600 0.950 . S
H1592 C1602 0.950 . S
H1593 C1604 0.950 . S
H1594 C1606 0.950 . S
H1595 C1607 0.950 . S
C1596 H1588 0.950 . S
C1596 C1597 1.386 . S
C1596 C1598 1.391 . S
C1597 C1596 1.386 . S
C1597 C1601 1.393 . S
C1598 H1590 0.950 . S
C1598 C1596 1.391 . S
C1598 C1599 1.400 . S
C1599 C1598 1.400 . S
C1599 C1600 1.398 . S
C1599 C1605 1.491 . S
C1600 H1591 0.950 . S
C1600 C1599 1.398 . S
C1600 C1601 1.391 . S
C1601 H1589 0.950 . S
C1601 C1597 1.393 . S
C1601 C1600 1.391 . S
C1602 H1592 0.950 . S
C1602 C1603 1.386 . S
C1602 C1604 1.391 . S
C1603 C1602 1.386 . S
C1603 C1607 1.393 . S
C1604 H1593 0.950 . S
C1604 C1602 1.391 . S
C1604 C1605 1.400 . S
C1605 C1599 1.491 . S
C1605 C1604 1.400 . S
C1605 C1606 1.398 . S
C1606 H1594 0.950 . S
C1606 C1605 1.398 . S
C1606 C1607 1.391 . S
C1607 H1595 0.950 . S
C1607 C1603 1.393 . S
C1607 C1606 1.391 . S
H1608 C1616 0.950 . S
H1609 C1621 0.950 . S
H1610 C1618 0.950 . S
H1611 C1620 0.950 . S
H1612 C1622 0.950 . S
H1613 C1624 0.950 . S
H1614 C1626 0.950 . S
H1615 C1627 0.950 . S
C1616 H1608 0.950 . S
C1616 C1617 1.386 . S
C1616 C1618 1.391 . S
C1617 C1616 1.386 . S
C1617 C1621 1.393 . S
C1618 H1610 0.950 . S
C1618 C1616 1.391 . S
C1618 C1619 1.400 . S
C1619 C1618 1.400 . S
C1619 C1620 1.398 . S
C1619 C1625 1.491 . S
C1620 H1611 0.950 . S
C1620 C1619 1.398 . S
C1620 C1621 1.391 . S
C1621 H1609 0.950 . S
C1621 C1617 1.393 . S
C1621 C1620 1.391 . S
C1622 H1612 0.950 . S
C1622 C1623 1.386 . S
C1622 C1624 1.391 . S
C1623 C1622 1.386 . S
C1623 C1627 1.393 . S
C1624 H1613 0.950 . S
C1624 C1622 1.391 . S
C1624 C1625 1.400 . S
C1625 C1619 1.491 . S
C1625 C1624 1.400 . S
C1625 C1626 1.398 . S
C1626 H1614 0.950 . S
C1626 C1625 1.398 . S
C1626 C1627 1.391 . S
C1627 H1615 0.950 . S
C1627 C1623 1.393 . S
C1627 C1626 1.391 . S
H1628 C1636 0.950 . S
H1629 C1641 0.950 . S
H1630 C1638 0.950 . S
H1631 C1640 0.950 . S
H1632 C1642 0.950 . S
H1633 C1644 0.950 . S
H1634 C1646 0.950 . S
H1635 C1647 0.950 . S
C1636 H1628 0.950 . S
C1636 C1637 1.386 . S
C1636 C1638 1.391 . S
C1637 C1636 1.386 . S
C1637 C1641 1.393 . S
C1638 H1630 0.950 . S
C1638 C1636 1.391 . S
C1638 C1639 1.400 . S
C1639 C1638 1.400 . S
C1639 C1640 1.398 . S
C1639 C1645 1.491 . S
C1640 H1631 0.950 . S
C1640 C1639 1.398 . S
C1640 C1641 1.391 . S
C1641 H1629 0.950 . S
C1641 C1637 1.393 . S
C1641 C1640 1.391 . S
C1642 H1632 0.950 . S
C1642 C1643 1.386 . S
C1642 C1644 1.391 . S
C1643 C1642 1.386 . S
C1643 C1647 1.393 . S
C1644 H1633 0.950 . S
C1644 C1642 1.391 . S
C1644 C1645 1.400 . S
C1645 C1639 1.491 . S
C1645 C1644 1.400 . S
C1645 C1646 1.398 . S
C1646 H1634 0.950 . S
C1646 C1645 1.398 . S
C1646 C1647 1.391 . S
C1647 H1635 0.950 . S
C1647 C1643 1.393 . S
C1647 C1646 1.391 . S
H1648 C1656 0.950 . S
H1649 C1661 0.950 . S
H1650 C1658 0.950 . S
H1651 C1660 0.950 . S
H1652 C1662 0.950 . S
H1653 C1664 0.950 . S
H1654 C1666 0.950 . S
H1655 C1667 0.950 . S
C1656 H1648 0.950 . S
C1656 C1657 1.386 . S
C1656 C1658 1.391 . S
C1657 C1656 1.386 . S
C1657 C1661 1.393 . S
C1658 H1650 0.950 . S
C1658 C1656 1.391 . S
C1658 C1659 1.400 . S
C1659 C1658 1.400 . S
C1659 C1660 1.398 . S
C1659 C1665 1.491 . S
C1660 H1651 0.950 . S
C1660 C1659 1.398 . S
C1660 C1661 1.391 . S
C1661 H1649 0.950 . S
C1661 C1657 1.393 . S
C1661 C1660 1.391 . S
C1662 H1652 0.950 . S
C1662 C1663 1.386 . S
C1662 C1664 1.391 . S
C1663 C1662 1.386 . S
C1663 C1667 1.393 . S
C1664 H1653 0.950 . S
C1664 C1662 1.391 . S
C1664 C1665 1.400 . S
C1665 C1659 1.491 . S
C1665 C1664 1.400 . S
C1665 C1666 1.398 . S
C1666 H1654 0.950 . S
C1666 C1665 1.398 . S
C1666 C1667 1.391 . S
C1667 H1655 0.950 . S
C1667 C1663 1.393 . S
C1667 C1666 1.391 . S
H1668 C1676 0.950 . S
H1669 C1681 0.950 . S
H1670 C1678 0.950 . S
H1671 C1680 0.950 . S
H1672 C1682 0.950 . S
H1673 C1684 0.950 . S
H1674 C1686 0.950 . S
H1675 C1687 0.950 . S
C1676 H1668 0.950 . S
C1676 C1677 1.386 . S
C1676 C1678 1.391 . S
C1677 C1676 1.386 . S
C1677 C1681 1.393 . S
C1678 H1670 0.950 . S
C1678 C1676 1.391 . S
C1678 C1679 1.400 . S
C1679 C1678 1.400 . S
C1679 C1680 1.398 . S
C1679 C1685 1.491 . S
C1680 H1671 0.950 . S
C1680 C1679 1.398 . S
C1680 C1681 1.391 . S
C1681 H1669 0.950 . S
C1681 C1677 1.393 . S
C1681 C1680 1.391 . S
C1682 H1672 0.950 . S
C1682 C1683 1.386 . S
C1682 C1684 1.391 . S
C1683 C1682 1.386 . S
C1683 C1687 1.393 . S
C1684 H1673 0.950 . S
C1684 C1682 1.391 . S
C1684 C1685 1.400 . S
C1685 C1679 1.491 . S
C1685 C1684 1.400 . S
C1685 C1686 1.398 . S
C1686 H1674 0.950 . S
C1686 C1685 1.398 . S
C1686 C1687 1.391 . S
C1687 H1675 0.950 . S
C1687 C1683 1.393 . S
C1687 C1686 1.391 . S
H1688 C1696 0.950 . S
H1689 C1701 0.950 . S
H1690 C1698 0.950 . S
H1691 C1700 0.950 . S
H1692 C1702 0.950 . S
H1693 C1704 0.950 . S
H1694 C1706 0.950 . S
H1695 C1707 0.950 . S
C1696 H1688 0.950 . S
C1696 C1697 1.386 . S
C1696 C1698 1.391 . S
C1697 C1696 1.386 . S
C1697 C1701 1.393 . S
C1698 H1690 0.950 . S
C1698 C1696 1.391 . S
C1698 C1699 1.400 . S
C1699 C1698 1.400 . S
C1699 C1700 1.398 . S
C1699 C1705 1.491 . S
C1700 H1691 0.950 . S
C1700 C1699 1.398 . S
C1700 C1701 1.391 . S
C1701 H1689 0.950 . S
C1701 C1697 1.393 . S
C1701 C1700 1.391 . S
C1702 H1692 0.950 . S
C1702 C1703 1.386 . S
C1702 C1704 1.391 . S
C1703 C1702 1.386 . S
C1703 C1707 1.393 . S
C1704 H1693 0.950 . S
C1704 C1702 1.391 . S
C1704 C1705 1.400 . S
C1705 C1699 1.491 . S
C1705 C1704 1.400 . S
C1705 C1706 1.398 . S
C1706 H1694 0.950 . S
C1706 C1705 1.398 . S
C1706 C1707 1.391 . S
C1707 H1695 0.950 . S
C1707 C1703 1.393 . S
C1707 C1706 1.391 . S
H1708 C1716 0.950 . S
H1709 C1721 0.950 . S
H1710 C1718 0.950 . S
H1711 C1720 0.950 . S
H1712 C1722 0.950 . S
H1713 C1724 0.950 . S
H1714 C1726 0.950 . S
H1715 C1727 0.950 . S
C1716 H1708 0.950 . S
C1716 C1717 1.386 . S
C1716 C1718 1.391 . S
C1717 C1716 1.386 . S
C1717 C1721 1.393 . S
C1718 H1710 0.950 . S
C1718 C1716 1.391 . S
C1718 C1719 1.400 . S
C1719 C1718 1.400 . S
C1719 C1720 1.398 . S
C1719 C1725 1.491 . S
C1720 H1711 0.950 . S
C1720 C1719 1.398 . S
C1720 C1721 1.391 . S
C1721 H1709 0.950 . S
C1721 C1717 1.393 . S
C1721 C1720 1.391 . S
C1722 H1712 0.950 . S
C1722 C1723 1.386 . S
C1722 C1724 1.391 . S
C1723 C1722 1.386 . S
C1723 C1727 1.393 . S
C1724 H1713 0.950 . S
C1724 C1722 1.391 . S
C1724 C1725 1.400 . S
C1725 C1719 1.491 . S
C1725 C1724 1.400 . S
C1725 C1726 1.398 . S
C1726 H1714 0.950 . S
C1726 C1725 1.398 . S
C1726 C1727 1.391 . S
C1727 H1715 0.950 . S
C1727 C1723 1.393 . S
C1727 C1726 1.391 . S
C1017 C476 1.580 . S
C1023 C58 1.210 . S
C1037 C142 1.252 . S
C1043 C56 1.692 . S
C1057 C226 1.327 . S
C1063 C140 1.700 . S
C1077 C224 1.583 . S
C1083 C310 1.241 . S
C1097 C308 1.707 . S
C1103 C394 1.288 . S
C1117 C478 1.347 . S
C1123 C392 1.698 . S
C1137 C644 1.587 . S
C1143 C562 1.253 . S
C1157 C646 1.347 . S
C1163 C728 1.701 . S
C1177 C812 1.705 . S
C1183 C730 1.280 . S
C1197 C896 1.599 . S
C1203 C814 1.258 . S
C1217 C980 1.689 . S
C1223 C898 1.306 . S
C1237 C560 1.704 . S
C1243 C982 1.277 . S
C1257 C998 3.464 . S
C1263 C67 3.401 . S
C1277 C151 2.966 . S
C1283 C578 3.011 . S
C1297 C662 3.251 . S
C1303 C235 3.191 . S
C1317 C746 3.462 . S
C1323 C319 3.411 . S
C1337 C830 3.013 . S
C1343 C403 2.963 . S
C1357 C487 3.189 . S
C1363 C914 3.246 . S
C1377 C571 3.397 . S
C1383 C158 3.467 . S
C1397 C655 3.193 . S
C1403 C242 3.249 . S
C1417 C326 3.009 . S
C1423 C739 2.951 . S
C1437 C410 3.460 . S
C1443 C823 3.398 . S
C1457 C907 3.192 . S
C1463 C494 3.254 . S
C1477 C991 2.955 . S
C1483 C74 3.006 . S
C1497 C567 2.172 . S
C1503 C63 2.175 . S
C1517 C147 1.451 . S
C1523 C651 1.480 . S
C1537 C735 1.461 . S
C1543 C231 1.489 . S
C1557 C315 2.171 . S
C1563 C819 2.180 . S
C1577 C903 1.483 . S
C1583 C399 1.459 . S
C1597 C987 1.474 . S
C1603 C483 1.490 . S
C1617 C573 0.478 . S
C1623 C69 0.493 . S
C1637 C657 0.277 . S
C1643 C153 0.320 . S
C1657 C741 0.253 . S
C1663 C237 0.338 . S
C1677 C321 0.535 . S
C1683 C825 0.499 . S
C1697 C909 0.277 . S
C1703 C405 0.318 . S
C1717 C993 0.259 . S
C1723 C489 0.363 . S
