# Generated by pormake.
# Topology ukb, (4)-cn, num edge types: 1
# Building blocks:
#     Node 0, Type 0, BuildingBlock: AZAVOO_clean_sbu_0, # of connection points: 4
#     Node 1, Type 0, BuildingBlock: AZAVOO_clean_sbu_0, # of connection points: 4
#     Node 2, Type 0, BuildingBlock: AZAVOO_clean_sbu_0, # of connection points: 4
#     Node 3, Type 0, BuildingBlock: AZAVOO_clean_sbu_0, # of connection points: 4
#     Node 4, Type 0, BuildingBlock: AZAVOO_clean_sbu_0, # of connection points: 4
#     Node 5, Type 0, BuildingBlock: AZAVOO_clean_sbu_0, # of connection points: 4
#     Node 6, Type 0, BuildingBlock: AZAVOO_clean_sbu_0, # of connection points: 4
#     Node 7, Type 0, BuildingBlock: AZAVOO_clean_sbu_0, # of connection points: 4
#     Node 8, Type 0, BuildingBlock: AZAVOO_clean_sbu_0, # of connection points: 4
#     Node 9, Type 0, BuildingBlock: AZAVOO_clean_sbu_0, # of connection points: 4
#     Node 10, Type 0, BuildingBlock: AZAVOO_clean_sbu_0, # of connection points: 4
#     Node 11, Type 0, BuildingBlock: AZAVOO_clean_sbu_0, # of connection points: 4
#     Node 12, Type 0, BuildingBlock: AZAVOO_clean_sbu_0, # of connection points: 4
#     Node 13, Type 0, BuildingBlock: AZAVOO_clean_sbu_0, # of connection points: 4
#     Node 14, Type 0, BuildingBlock: AZAVOO_clean_sbu_0, # of connection points: 4
#     Node 15, Type 0, BuildingBlock: AZAVOO_clean_sbu_0, # of connection points: 4
#     Edge 16, Type (0, 0), BuildingBlock: ZUJKAS_clean_linker_0, # of connection points: 2
#     Edge 17, Type (0, 0), BuildingBlock: ZUJKAS_clean_linker_0, # of connection points: 2
#     Edge 18, Type (0, 0), BuildingBlock: ZUJKAS_clean_linker_0, # of connection points: 2
#     Edge 19, Type (0, 0), BuildingBlock: ZUJKAS_clean_linker_0, # of connection points: 2
#     Edge 20, Type (0, 0), BuildingBlock: ZUJKAS_clean_linker_0, # of connection points: 2
#     Edge 21, Type (0, 0), BuildingBlock: ZUJKAS_clean_linker_0, # of connection points: 2
#     Edge 22, Type (0, 0), BuildingBlock: ZUJKAS_clean_linker_0, # of connection points: 2
#     Edge 23, Type (0, 0), BuildingBlock: ZUJKAS_clean_linker_0, # of connection points: 2
#     Edge 24, Type (0, 0), BuildingBlock: ZUJKAS_clean_linker_0, # of connection points: 2
#     Edge 25, Type (0, 0), BuildingBlock: ZUJKAS_clean_linker_0, # of connection points: 2
#     Edge 26, Type (0, 0), BuildingBlock: ZUJKAS_clean_linker_0, # of connection points: 2
#     Edge 27, Type (0, 0), BuildingBlock: ZUJKAS_clean_linker_0, # of connection points: 2
#     Edge 28, Type (0, 0), BuildingBlock: ZUJKAS_clean_linker_0, # of connection points: 2
#     Edge 29, Type (0, 0), BuildingBlock: ZUJKAS_clean_linker_0, # of connection points: 2
#     Edge 30, Type (0, 0), BuildingBlock: ZUJKAS_clean_linker_0, # of connection points: 2
#     Edge 31, Type (0, 0), BuildingBlock: ZUJKAS_clean_linker_0, # of connection points: 2
#     Edge 32, Type (0, 0), BuildingBlock: ZUJKAS_clean_linker_0, # of connection points: 2
#     Edge 33, Type (0, 0), BuildingBlock: ZUJKAS_clean_linker_0, # of connection points: 2
#     Edge 34, Type (0, 0), BuildingBlock: ZUJKAS_clean_linker_0, # of connection points: 2
#     Edge 35, Type (0, 0), BuildingBlock: ZUJKAS_clean_linker_0, # of connection points: 2
#     Edge 36, Type (0, 0), BuildingBlock: ZUJKAS_clean_linker_0, # of connection points: 2
#     Edge 37, Type (0, 0), BuildingBlock: ZUJKAS_clean_linker_0, # of connection points: 2
#     Edge 38, Type (0, 0), BuildingBlock: ZUJKAS_clean_linker_0, # of connection points: 2
#     Edge 39, Type (0, 0), BuildingBlock: ZUJKAS_clean_linker_0, # of connection points: 2
#     Edge 40, Type (0, 0), BuildingBlock: ZUJKAS_clean_linker_0, # of connection points: 2
#     Edge 41, Type (0, 0), BuildingBlock: ZUJKAS_clean_linker_0, # of connection points: 2
#     Edge 42, Type (0, 0), BuildingBlock: ZUJKAS_clean_linker_0, # of connection points: 2
#     Edge 43, Type (0, 0), BuildingBlock: ZUJKAS_clean_linker_0, # of connection points: 2
#     Edge 44, Type (0, 0), BuildingBlock: ZUJKAS_clean_linker_0, # of connection points: 2
#     Edge 45, Type (0, 0), BuildingBlock: ZUJKAS_clean_linker_0, # of connection points: 2
#     Edge 46, Type (0, 0), BuildingBlock: ZUJKAS_clean_linker_0, # of connection points: 2
#     Edge 47, Type (0, 0), BuildingBlock: ZUJKAS_clean_linker_0, # of connection points: 2
# Relax obj value: 0.173
# Max RMSD: 0.198
# Mean RMSD: 0.178
data_MOF--net-ukb--node1-AZAVOO_clean_sbu_0--edge1-ZUJKAS_clean_linker_0
_symmetry_space_group_name_H-M    P1
_symmetry_Int_Tables_number       1
_symmetry_cell_setting            triclinic
loop_
_symmetry_equiv_pos_as_xyz
'x, y, z'
_cell_length_a     52.355851
_cell_length_b     55.686121
_cell_length_c     52.484508
_cell_angle_alpha  90.006025
_cell_angle_beta   90.001536
_cell_angle_gamma 90.000934
loop_
_atom_site_label
_atom_site_type_symbol
_atom_site_fract_x
_atom_site_fract_y
_atom_site_fract_z
_atom_type_partial_charge
Mg0 Mg 0.5206 0.1398 0.16477 0.0
O1 O 0.53197 0.17079 0.19165 0.0
O2 O 0.53802 0.15482 0.23029 0.0
Mg3 Mg 0.52932 0.11483 0.22874 0.0
C4 C 0.53799 0.17279 0.21518 0.0
C5 C 0.5108 0.15841 0.11095 0.0
O6 O 0.51825 0.13613 0.10738 0.0
O7 O 0.48039 0.13958 0.18136 0.0
O8 O 0.48724 0.1233 0.21965 0.0
O9 O 0.56171 0.13274 0.15721 0.0
O10 O 0.53993 0.11547 0.18825 0.0
C11 C 0.47222 0.13208 0.20285 0.0
C12 C 0.5616 0.11921 0.17727 0.0
O13 O 0.50914 0.16628 0.13364 0.0
Mg14 Mg 0.27285 0.50828 0.68572 0.0
O15 O 0.23471 0.52191 0.70301 0.0
O16 O 0.24408 0.53078 0.74352 0.0
Mg17 Mg 0.28611 0.52437 0.752 0.0
C18 C 0.22817 0.5294 0.72514 0.0
C19 C 0.26836 0.49952 0.63091 0.0
O20 O 0.28932 0.51173 0.63554 0.0
O21 O 0.27033 0.47246 0.70676 0.0
O22 O 0.28078 0.48378 0.74632 0.0
O23 O 0.2833 0.54569 0.67462 0.0
O24 O 0.2938 0.52901 0.71125 0.0
C25 C 0.27502 0.46756 0.73008 0.0
C26 C 0.29437 0.54751 0.69655 0.0
O27 O 0.25422 0.49359 0.6496 0.0
Mg28 Mg 0.97386 0.32819 0.1645 0.0
O29 O 0.96239 0.29668 0.19047 0.0
O30 O 0.95988 0.31087 0.23034 0.0
Mg31 Mg 0.96786 0.35107 0.22967 0.0
C32 C 0.95833 0.29372 0.21428 0.0
C33 C 0.98759 0.31063 0.11031 0.0
O34 O 0.98642 0.334 0.10704 0.0
O35 O 0.0147 0.32751 0.1798 0.0
O36 O 0.00948 0.34322 0.2186 0.0
O37 O 0.93275 0.33605 0.15842 0.0
O38 O 0.95566 0.35195 0.1895 0.0
C39 C 0.02377 0.33471 0.20105 0.0
C40 C 0.93363 0.34884 0.17901 0.0
O41 O 0.98387 0.30211 0.13248 0.0
Mg42 Mg 0.22128 0.95929 0.68268 0.0
O43 O 0.25699 0.94311 0.70238 0.0
O44 O 0.24387 0.93372 0.74172 0.0
Mg45 Mg 0.20152 0.94165 0.74679 0.0
C46 C 0.26128 0.93477 0.72472 0.0
C47 C 0.22993 0.98962 0.63685 0.0
O48 O 0.20751 0.99564 0.64614 0.0
O49 O 0.22434 0.99392 0.70568 0.0
O50 O 0.2089 0.9822 0.74336 0.0
O51 O 0.20972 0.9231 0.66864 0.0
O52 O 0.19751 0.93861 0.70537 0.0
C53 C 0.21728 -0.00145 0.72845 0.0
C54 C 0.19728 0.92074 0.68981 0.0
O55 O 0.24358 0.97488 0.6494 0.0
Mg56 Mg 0.52016 0.3287 0.83897 0.0
O57 O 0.53118 0.29809 0.81146 0.0
O58 O 0.53674 0.31448 0.77296 0.0
Mg59 Mg 0.52794 0.35441 0.7752 0.0
C60 C 0.53689 0.29635 0.78783 0.0
C61 C 0.50057 0.31003 0.89063 0.0
O62 O 0.49688 0.33329 0.89263 0.0
O63 O 0.47969 0.32907 0.823 0.0
O64 O 0.48605 0.3455 0.78468 0.0
O65 O 0.56131 0.33576 0.84608 0.0
O66 O 0.5391 0.35337 0.81556 0.0
C67 C 0.47127 0.33659 0.80161 0.0
C68 C 0.56091 0.34956 0.82623 0.0
O69 O 0.50939 0.30172 0.86985 0.0
Mg70 Mg 0.22095 0.50767 0.31135 0.0
O71 O 0.25953 0.52117 0.29484 0.0
O72 O 0.25072 0.53059 0.25433 0.0
Mg73 Mg 0.20874 0.52479 0.2452 0.0
C74 C 0.2664 0.52885 0.27286 0.0
C75 C 0.22343 0.49696 0.36567 0.0
O76 O 0.20205 0.50825 0.36034 0.0
O77 O 0.22352 0.47216 0.28974 0.0
O78 O 0.21357 0.48405 0.25027 0.0
O79 O 0.21098 0.54491 0.32317 0.0
O80 O 0.2008 0.52923 0.28593 0.0
C81 C 0.21904 0.46758 0.26632 0.0
C82 C 0.20054 0.54748 0.30101 0.0
O83 O 0.23875 0.49225 0.34751 0.0
Mg84 Mg 0.97805 0.1418 0.83492 0.0
O85 O 0.96669 0.17388 0.80947 0.0
O86 O 0.96138 0.15985 0.76988 0.0
Mg87 Mg 0.97015 0.11994 0.76951 0.0
C88 C 0.96112 0.17703 0.78597 0.0
C89 C 0.98905 0.15835 0.88961 0.0
O90 O 0.98428 0.13533 0.89239 0.0
O91 O 0.01855 0.14232 0.8189 0.0
O92 O 0.0119 0.12888 0.77926 0.0
O93 O 0.93698 0.13423 0.84159 0.0
O94 O 0.95922 0.11845 0.80996 0.0
C95 C 0.02669 0.13662 0.79678 0.0
C96 C 0.93742 0.12158 0.82089 0.0
O97 O 0.98872 0.16725 0.8673 0.0
Mg98 Mg 0.27579 0.96146 0.31801 0.0
O99 O 0.23826 0.94681 0.3001 0.0
O100 O 0.24901 0.93783 0.25992 0.0
Mg101 Mg 0.29107 0.94472 0.25239 0.0
C102 C 0.23255 0.93907 0.27782 0.0
C103 C 0.27362 0.97756 0.37058 0.0
O104 O 0.29698 0.97107 0.36449 0.0
O105 O 0.27276 0.99682 0.29623 0.0
O106 O 0.28456 0.98525 0.25715 0.0
O107 O 0.28676 0.92469 0.33047 0.0
O108 O 0.29739 0.94049 0.2934 0.0
C109 C 0.27788 0.00153 0.27297 0.0
C110 C 0.29784 0.92232 0.30858 0.0
O111 O 0.25648 0.97659 0.35342 0.0
Mg112 Mg 0.5059 0.74144 0.80629 0.0
O113 O 0.47157 0.7668 0.80198 0.0
O114 O 0.43625 0.74743 0.81392 0.0
Mg115 Mg 0.44828 0.71011 0.8277 0.0
C116 C 0.44741 0.76606 0.80515 0.0
C117 C 0.55596 0.77186 0.79765 0.0
O118 O 0.56706 0.75095 0.80111 0.0
O119 O 0.50673 0.7466 0.84966 0.0
O120 O 0.4715 0.7263 0.86044 0.0
O121 O 0.49721 0.72715 0.76732 0.0
O122 O 0.48219 0.71176 0.80314 0.0
C123 C 0.49125 0.73853 0.86645 0.0
C124 C 0.48241 0.71189 0.77866 0.0
O125 O 0.53181 0.77341 0.79934 0.0
Mg126 Mg 0.65345 0.43261 0.33351 0.0
O127 O 0.68799 0.42232 0.30855 0.0
O128 O 0.67336 0.41597 0.2691 0.0
Mg129 Mg 0.63047 0.42297 0.26833 0.0
C130 C 0.69161 0.41663 0.28522 0.0
C131 C 0.67062 0.44172 0.38822 0.0
O132 O 0.64702 0.434 0.39068 0.0
O133 O 0.6534 0.47024 0.31628 0.0
O134 O 0.63784 0.46269 0.27744 0.0
O135 O 0.6457 0.39381 0.341 0.0
O136 O 0.62898 0.41416 0.309 0.0
C137 C 0.64602 0.47734 0.29433 0.0
C138 C 0.63208 0.39392 0.32041 0.0
O139 O 0.67987 0.44388 0.36594 0.0
Mg140 Mg 0.98779 0.72781 0.80394 0.0
O141 O 0.019 0.69886 0.79901 0.0
O142 O 0.05576 0.71442 0.81289 0.0
Mg143 Mg 0.04818 0.75225 0.82772 0.0
C144 C 0.04303 0.69725 0.80299 0.0
C145 C 0.94221 0.70296 0.77737 0.0
O146 O 0.94369 0.72304 0.76432 0.0
O147 O 0.98559 0.72139 0.84702 0.0
O148 O 0.02272 0.73736 0.85952 0.0
O149 O 0.99841 0.7422 0.76563 0.0
O150 O 0.01526 0.7547 0.80189 0.0
C151 C 0.0015 0.72705 0.86448 0.0
C152 C 0.01516 0.75524 0.77738 0.0
O153 O 0.95757 0.69958 0.79578 0.0
Mg154 Mg 0.83874 0.0374 0.33661 0.0
O155 O 0.80562 0.04644 0.30935 0.0
O156 O 0.82251 0.05376 0.271 0.0
Mg157 Mg 0.8655 0.04731 0.27298 0.0
C158 C 0.80331 0.05237 0.28593 0.0
C159 C 0.8195 0.02781 0.39013 0.0
O160 O 0.84305 0.03546 0.39315 0.0
O161 O 0.84111 -0.00041 0.31991 0.0
O162 O 0.85779 0.00751 0.28158 0.0
O163 O 0.84422 0.07661 0.34359 0.0
O164 O 0.86433 0.05607 0.31362 0.0
C165 C 0.84927 0.99271 0.29815 0.0
C166 C 0.85942 0.07641 0.32414 0.0
O167 O 0.81078 0.0258 0.36761 0.0
Mg168 Mg 0.50639 0.72731 0.19379 0.0
O169 O 0.47517 0.69847 0.19912 0.0
O170 O 0.43844 0.71377 0.18486 0.0
Mg171 Mg 0.44607 0.75138 0.16936 0.0
C172 C 0.45116 0.69677 0.19511 0.0
C173 C 0.5509 0.70202 0.22188 0.0
O174 O 0.54838 0.72153 0.23572 0.0
O175 O 0.50875 0.72017 0.15084 0.0
O176 O 0.47168 0.73601 0.13796 0.0
O177 O 0.49545 0.74244 0.23176 0.0
O178 O 0.479 0.75426 0.19508 0.0
C179 C 0.49289 0.7256 0.13323 0.0
C180 C 0.47889 0.75532 0.21955 0.0
O181 O 0.53658 0.69916 0.20256 0.0
Mg182 Mg 0.83861 0.43352 0.66858 0.0
O183 O 0.80514 0.42339 0.69498 0.0
O184 O 0.82114 0.41759 0.734 0.0
Mg185 Mg 0.8639 0.42535 0.73315 0.0
C186 C 0.80237 0.41792 0.71847 0.0
C187 C 0.82086 0.45124 0.61615 0.0
O188 O 0.84578 0.45377 0.61496 0.0
O189 O 0.83863 0.47148 0.68497 0.0
O190 O 0.85512 0.46474 0.72361 0.0
O191 O 0.8466 0.39459 0.66194 0.0
O192 O 0.8642 0.41609 0.69263 0.0
C193 C 0.84625 0.47899 0.70669 0.0
C194 C 0.86098 0.39551 0.68199 0.0
O195 O 0.81097 0.44373 0.63679 0.0
Mg196 Mg 0.99148 0.74445 0.19065 0.0
O197 O 0.02408 0.77173 0.19569 0.0
O198 O 0.06022 0.75518 0.18159 0.0
Mg199 Mg 0.05057 0.71793 0.16604 0.0
C200 C 0.04813 0.7726 0.19181 0.0
C201 C 0.94423 0.7704 0.21413 0.0
O202 O 0.93981 0.74843 0.22214 0.0
O203 O 0.98906 0.75156 0.14761 0.0
O204 O 0.02535 0.73413 0.13486 0.0
O205 O 0.0022 0.72886 0.22853 0.0
O206 O 0.01741 0.71624 0.19161 0.0
C207 C 0.00462 0.74533 0.13003 0.0
C208 C 0.01786 0.71523 0.21607 0.0
O209 O 0.96347 0.77432 0.19997 0.0
Mg210 Mg 0.65447 0.0369 0.6714 0.0
O211 O 0.68937 0.04926 0.69491 0.0
O212 O 0.67571 0.05727 0.73437 0.0
Mg213 Mg 0.63343 0.04834 0.73696 0.0
C214 C 0.69347 0.0563 0.71775 0.0
C215 C 0.66993 0.01865 0.61815 0.0
O216 O 0.64489 0.0171 0.61737 0.0
O217 O 0.65648 -6e-05 0.69012 0.0
O218 O 0.64354 0.00882 0.72969 0.0
O219 O 0.64482 0.07509 0.66271 0.0
O220 O 0.62999 0.05523 0.69597 0.0
C221 C 0.65139 0.99381 0.71302 0.0
C222 C 0.63181 0.07516 0.68369 0.0
O223 O 0.68051 0.02562 0.63867 0.0
H224 H 0.44836 0.12267 0.24801 0.0
H225 H 0.40321 0.11413 0.25465 0.0
H226 H 0.38749 0.13154 0.17618 0.0
H227 H 0.43289 0.13997 0.16916 0.0
H228 H 0.35369 0.13853 0.24494 0.0
H229 H 0.3727 0.05827 0.18411 0.0
H230 H 0.39833 0.07622 0.1969 0.0
H231 H 0.37933 0.08745 0.17105 0.0
C232 C 0.4353 0.12515 0.23222 0.0
C233 C 0.44436 0.13148 0.20789 0.0
C234 C 0.40943 0.12045 0.23614 0.0
C235 C 0.39212 0.12193 0.21584 0.0
C236 C 0.40065 0.13013 0.19203 0.0
H237 H 0.26849 0.02071 0.22614 0.0
H238 H 0.28725 0.05765 0.20936 0.0
C239 C 0.4266 0.13491 0.18807 0.0
C240 C 0.36648 0.11114 0.21893 0.0
H241 H 0.33526 0.05862 0.20762 0.0
C242 C 0.34925 0.12131 0.23636 0.0
C243 C 0.36069 0.08879 0.20756 0.0
C244 C 0.37868 0.07686 0.18894 0.0
C245 C 0.32696 0.10904 0.24374 0.0
C246 C 0.32229 0.08574 0.23397 0.0
C247 C 0.33867 0.07647 0.21516 0.0
C248 C 0.30338 0.06895 0.24542 0.0
C249 C 0.30906 0.12097 0.26233 0.0
C250 C 0.3045 0.06385 0.27164 0.0
C251 C 0.29312 0.04307 0.28138 0.0
C252 C 0.28113 0.02672 0.2649 0.0
C253 C 0.27776 0.033 0.23921 0.0
C254 C 0.28853 0.05409 0.22961 0.0
H255 H 0.30847 0.14067 0.25904 0.0
H256 H 0.28936 0.11372 0.26086 0.0
H257 H 0.31618 0.11807 0.28201 0.0
H258 H 0.31626 0.07454 0.28425 0.0
H259 H 0.29622 0.03856 0.30122 0.0
H260 H 0.26404 0.44669 0.77582 0.0
H261 H 0.28455 0.41057 0.79287 0.0
H262 H 0.31885 0.39719 0.71949 0.0
H263 H 0.29708 0.43225 0.70204 0.0
H264 H 0.31335 0.35571 0.7456 0.0
H265 H 0.35778 0.42521 0.80786 0.0
H266 H 0.32411 0.42115 0.81227 0.0
H267 H 0.33605 0.43291 0.78261 0.0
C268 C 0.27503 0.43538 0.7631 0.0
C269 C 0.27935 0.44242 0.73775 0.0
C270 C 0.28695 0.4149 0.7729 0.0
C271 C 0.30414 0.40182 0.75775 0.0
C272 C 0.30593 0.40716 0.73165 0.0
H273 H 0.44711 0.34092 0.75582 0.0
H274 H 0.40208 0.34949 0.74852 0.0
C275 C 0.29341 0.42722 0.72165 0.0
C276 C 0.32346 0.38572 0.7695 0.0
H277 H 0.37571 0.38717 0.80843 0.0
C278 C 0.32671 0.36242 0.7597 0.0
C279 C 0.34106 0.39451 0.78784 0.0
C280 C 0.33981 0.41984 0.79814 0.0
C281 C 0.34771 0.34818 0.76684 0.0
C282 C 0.36581 0.35749 0.7842 0.0
C283 C 0.36164 0.38004 0.79527 0.0
C284 C 0.39119 0.34634 0.78815 0.0
C285 C 0.35084 0.32365 0.75511 0.0
C286 C 0.40001 0.34131 0.81285 0.0
C287 C 0.42589 0.33644 0.81712 0.0
C288 C 0.4434 0.337 0.7968 0.0
C289 C 0.43417 0.34055 0.77192 0.0
C290 C 0.40832 0.34517 0.76765 0.0
H291 H 0.33211 0.31601 0.74932 0.0
H292 H 0.36289 0.32517 0.73779 0.0
H293 H 0.36031 0.31106 0.76853 0.0
H294 H 0.38713 0.34242 0.82896 0.0
H295 H 0.43239 0.33377 0.83651 0.0
H296 H 0.04934 0.34281 0.24552 0.0
H297 H 0.09449 0.35212 0.25061 0.0
H298 H 0.10729 0.3376 0.17094 0.0
H299 H 0.0618 0.32849 0.16548 0.0
H300 H 0.14368 0.32977 0.23891 0.0
H301 H 0.12119 0.41044 0.17994 0.0
H302 H 0.09637 0.39158 0.19283 0.0
H303 H 0.11513 0.38138 0.16632 0.0
C304 C 0.06176 0.34112 0.22911 0.0
C305 C 0.05181 0.33544 0.20495 0.0
C306 C 0.08765 0.34627 0.23213 0.0
C307 C 0.10412 0.34589 0.21109 0.0
C308 C 0.09478 0.33823 0.18737 0.0
H309 H 0.22706 0.44853 0.21913 0.0
H310 H 0.2078 0.41173 0.20258 0.0
C311 C 0.06878 0.33302 0.1843 0.0
C312 C 0.12961 0.35716 0.21357 0.0
H313 H 0.15941 0.41042 0.20217 0.0
C314 C 0.14751 0.34716 0.23044 0.0
C315 C 0.1346 0.37977 0.20238 0.0
C316 C 0.11585 0.3916 0.18445 0.0
C317 C 0.16968 0.35982 0.23745 0.0
C318 C 0.1736 0.38329 0.22785 0.0
C319 C 0.15655 0.39244 0.20957 0.0
C320 C 0.19251 0.40027 0.23894 0.0
C321 C 0.18827 0.3481 0.25552 0.0
C322 C 0.19192 0.4053 0.26519 0.0
C323 C 0.20348 0.42606 0.27477 0.0
C324 C 0.2152 0.44245 0.25814 0.0
C325 C 0.21799 0.43625 0.23234 0.0
C326 C 0.20695 0.41522 0.22287 0.0
H327 H 0.18907 0.32841 0.2522 0.0
H328 H 0.20781 0.35562 0.2535 0.0
H329 H 0.18167 0.35092 0.27539 0.0
H330 H 0.18047 0.39451 0.27799 0.0
H331 H 0.20084 0.43046 0.29471 0.0
H332 H 0.21707 0.03876 0.69832 0.0
H333 H 0.19741 0.07716 0.70927 0.0
H334 H 0.18915 0.05382 0.78717 0.0
H335 H 0.20897 0.01562 0.77653 0.0
H336 H 0.14793 0.07118 0.72448 0.0
H337 H 0.19836 0.12604 0.79628 0.0
H338 H 0.21458 0.1043 0.77643 0.0
H339 H 0.19781 0.0948 0.80462 0.0
C340 C 0.21217 0.04219 0.71804 0.0
C341 C 0.214 0.02389 0.73644 0.0
C342 C 0.20095 0.06421 0.72427 0.0
C343 C 0.19171 0.06836 0.74901 0.0
C344 C 0.19641 0.05123 0.76804 0.0
H345 H 0.06462 0.12037 0.82771 0.0
H346 H 0.10819 0.11017 0.81458 0.0
C347 C 0.20754 0.02922 0.76184 0.0
C348 C 0.1718 0.08681 0.75343 0.0
H349 H 0.15203 0.12954 0.79573 0.0
C350 C 0.14905 0.08446 0.73957 0.0
C351 C 0.17319 0.10378 0.7734 0.0
C352 C 0.19742 0.10755 0.78838 0.0
C353 C 0.12704 0.09724 0.74628 0.0
C354 C 0.12806 0.11368 0.76688 0.0
C355 C 0.15126 0.11704 0.7799 0.0
C356 C 0.1045 0.12526 0.77672 0.0
C357 C 0.10246 0.09144 0.73245 0.0
C358 C 0.08852 0.13843 0.7604 0.0
C359 C 0.06342 0.14354 0.76758 0.0
C360 C 0.05432 0.13651 0.79161 0.0
C361 C 0.07124 0.12596 0.80908 0.0
C362 C 0.09614 0.12018 0.80159 0.0
H363 H 0.10384 0.07446 0.7214 0.0
H364 H 0.08629 0.08972 0.74602 0.0
H365 H 0.098 0.10607 0.71882 0.0
H366 H 0.09485 0.14322 0.74143 0.0
H367 H 0.05075 0.15198 0.75393 0.0
H368 H 0.60814 0.7766 0.79618 0.0
H369 H 0.63267 0.81232 0.78388 0.0
H370 H 0.56246 0.85058 0.76972 0.0
H371 H 0.53794 0.81545 0.78251 0.0
H372 H 0.63413 0.83754 0.73899 0.0
H373 H 0.59969 0.8961 0.81668 0.0
H374 H 0.59495 0.864 0.81693 0.0
H375 H 0.57354 0.8832 0.7994 0.0
C376 C 0.59796 0.7927 0.79062 0.0
C377 C 0.57109 0.79327 0.79058 0.0
C378 C 0.612 0.81304 0.78355 0.0
C379 C 0.59937 0.83422 0.77636 0.0
C380 C 0.57259 0.83463 0.77586 0.0
H381 H 0.63826 0.95468 0.68467 0.0
H382 H 0.63129 0.9139 0.70051 0.0
C383 C 0.55859 0.81447 0.78308 0.0
C384 C 0.61389 0.85595 0.76893 0.0
H385 H 0.61689 0.91613 0.77993 0.0
C386 C 0.63075 0.85471 0.74816 0.0
C387 C 0.60994 0.87819 0.78129 0.0
C388 C 0.59376 0.88042 0.80498 0.0
C389 C 0.64265 0.87544 0.73853 0.0
C390 C 0.63695 0.898 0.74958 0.0
C391 C 0.62114 0.89894 0.77119 0.0
C392 C 0.64569 0.92113 0.73848 0.0
C393 C 0.66108 0.87288 0.71661 0.0
C394 C 0.65626 0.93882 0.75439 0.0
C395 C 0.65947 0.96225 0.74557 0.0
C396 C 0.65266 0.96835 0.72052 0.0
C397 C 0.64392 0.95033 0.70398 0.0
C398 C 0.6401 0.92696 0.71301 0.0
H399 H 0.67054 0.85502 0.71692 0.0
H400 H 0.65042 0.87431 0.6984 0.0
H401 H 0.67601 0.88702 0.71703 0.0
H402 H 0.66078 0.9348 0.77407 0.0
H403 H 0.66637 0.97585 0.75864 0.0
H404 H 0.57945 0.69984 0.26547 0.0
H405 H 0.60569 0.66628 0.28036 0.0
H406 H 0.5884 0.62711 0.21162 0.0
H407 H 0.56224 0.6605 0.19652 0.0
H408 H 0.58607 0.62007 0.28844 0.0
H409 H 0.66594 0.61779 0.2194 0.0
H410 H 0.64611 0.644 0.22399 0.0
H411 H 0.6352 0.61958 0.20436 0.0
C412 C 0.58157 0.68425 0.25332 0.0
C413 C 0.56869 0.6828 0.22984 0.0
C414 C 0.59659 0.66512 0.26187 0.0
C415 C 0.59925 0.64438 0.24694 0.0
C416 C 0.58702 0.64317 0.22319 0.0
H417 H 0.63273 0.49838 0.24932 0.0
H418 H 0.62631 0.54085 0.2408 0.0
C419 C 0.57191 0.6622 0.21468 0.0
C420 C 0.61245 0.62296 0.25716 0.0
H421 H 0.65766 0.58112 0.24234 0.0
C422 C 0.60211 0.61176 0.27876 0.0
C423 C 0.63336 0.61229 0.24446 0.0
C424 C 0.64598 0.62415 0.2219 0.0
C425 C 0.6109 0.58925 0.28692 0.0
C426 C 0.63096 0.57794 0.27339 0.0
C427 C 0.64228 0.58982 0.25267 0.0
C428 C 0.63803 0.55262 0.2783 0.0
C429 C 0.59747 0.57706 0.30885 0.0
C430 C 0.64751 0.54516 0.30204 0.0
C431 C 0.65105 0.52069 0.30713 0.0
C432 C 0.64527 0.50336 0.28846 0.0
C433 C 0.63714 0.51113 0.26427 0.0
C434 C 0.63355 0.53547 0.25928 0.0
H435 H 0.57954 0.58643 0.31428 0.0
H436 H 0.59279 0.55816 0.30397 0.0
H437 H 0.61026 0.57689 0.32571 0.0
H438 H 0.65154 0.55818 0.31682 0.0
H439 H 0.65756 0.51535 0.32587 0.0
H440 H 0.93377 0.65982 0.80072 0.0
H441 H 0.90751 0.62658 0.78527 0.0
H442 H 0.88423 0.66908 0.72066 0.0
H443 H 0.91053 0.7025 0.73589 0.0
H444 H 0.85248 0.62472 0.77124 0.0
H445 H 0.91965 0.60752 0.69079 0.0
H446 H 0.92874 0.62528 0.71809 0.0
H447 H 0.90742 0.6375 0.69469 0.0
C448 C 0.92289 0.66223 0.78335 0.0
C449 C 0.92444 0.68372 0.76939 0.0
C450 C 0.90784 0.64325 0.77461 0.0
C451 C 0.89419 0.64537 0.75174 0.0
C452 C 0.89485 0.66708 0.73824 0.0
H453 H 0.8369 0.51655 0.67393 0.0
H454 H 0.84209 0.55951 0.68285 0.0
C455 C 0.90985 0.68614 0.74701 0.0
C456 C 0.88069 0.6242 0.74141 0.0
H457 H 0.88688 0.57964 0.69727 0.0
C458 C 0.85969 0.61502 0.75482 0.0
C459 C 0.89004 0.61179 0.71984 0.0
C460 C 0.91277 0.62084 0.70498 0.0
C461 C 0.84841 0.59313 0.74783 0.0
C462 C 0.85887 0.57989 0.72732 0.0
C463 C 0.8789 0.58981 0.71299 0.0
C464 C 0.85188 0.55451 0.72256 0.0
C465 C 0.82578 0.58416 0.76285 0.0
C466 C 0.85548 0.53752 0.74194 0.0
C467 C 0.85258 0.51311 0.73694 0.0
C468 C 0.84626 0.50506 0.71233 0.0
C469 C 0.84176 0.52214 0.69309 0.0
C470 C 0.8447 0.54668 0.69815 0.0
H471 H 0.8145 0.59936 0.77069 0.0
H472 H 0.81305 0.57279 0.75098 0.0
H473 H 0.83269 0.5733 0.77919 0.0
H474 H 0.86169 0.54304 0.76074 0.0
H475 H 0.85615 0.50051 0.75226 0.0
H476 H 0.85453 0.9724 0.25126 0.0
H477 H 0.86176 0.93027 0.24124 0.0
H478 H 0.85389 0.91194 0.32068 0.0
H479 H 0.84668 0.95438 0.33102 0.0
H480 H 0.8993 0.89604 0.29838 0.0
H481 H 0.81669 0.87023 0.23864 0.0
H482 H 0.8308 0.89804 0.22865 0.0
H483 H 0.81616 0.89599 0.25959 0.0
C484 C 0.85389 0.95941 0.26662 0.0
C485 C 0.85021 0.96678 0.29199 0.0
C486 C 0.85778 0.93527 0.26079 0.0
C487 C 0.85803 0.91795 0.28016 0.0
C488 C 0.8535 0.92505 0.30543 0.0
H489 H 0.90077 0.76857 0.24323 0.0
H490 H 0.87716 0.80257 0.26143 0.0
C491 C 0.84939 0.94928 0.3113 0.0
C492 C 0.86626 0.89317 0.27411 0.0
H493 H 0.85529 0.84684 0.23288 0.0
C494 C 0.88938 0.88503 0.2845 0.0
C495 C 0.85323 0.87878 0.25608 0.0
C496 C 0.8277 0.88609 0.24528 0.0
C497 C 0.90065 0.86362 0.27609 0.0
C498 C 0.88854 0.85016 0.25675 0.0
C499 C 0.86463 0.85742 0.24752 0.0
C500 C 0.90152 0.8296 0.2446 0.0
C501 C 0.92593 0.85595 0.28723 0.0
C502 C 0.92257 0.83372 0.22871 0.0
C503 C 0.93596 0.81447 0.21818 0.0
C504 C 0.92858 0.7907 0.22347 0.0
C505 C 0.90699 0.78666 0.23886 0.0
C506 C 0.89347 0.806 0.24927 0.0
H507 H 0.93 0.86523 0.30553 0.0
H508 H 0.92628 0.83624 0.29046 0.0
H509 H 0.94144 0.86041 0.27361 0.0
H510 H 0.92888 0.85188 0.22477 0.0
H511 H 0.95246 0.81824 0.20639 0.0
H512 H 0.55832 0.1824 0.26199 0.0
H513 H 0.57329 0.2209 0.27835 0.0
H514 H 0.55152 0.25531 0.20808 0.0
H515 H 0.53646 0.21671 0.19129 0.0
H516 H 0.61225 0.25204 0.2514 0.0
H517 H 0.51784 0.29507 0.26929 0.0
H518 H 0.52166 0.26284 0.26784 0.0
H519 H 0.52276 0.28028 0.23915 0.0
C520 C 0.55651 0.19812 0.24998 0.0
C521 C 0.54613 0.19643 0.22529 0.0
C522 C 0.56515 0.22009 0.25938 0.0
C523 C 0.56336 0.24085 0.24445 0.0
C524 C 0.55284 0.23942 0.21992 0.0
H525 H 0.60147 0.38902 0.27856 0.0
H526 H 0.58582 0.35193 0.25941 0.0
C527 C 0.54432 0.21736 0.21037 0.0
C528 C 0.57323 0.26381 0.25448 0.0
H529 H 0.55453 0.31789 0.2786 0.0
C530 C 0.5997 0.26651 0.25731 0.0
C531 C 0.55672 0.28255 0.26201 0.0
C532 C 0.52812 0.28018 0.25961 0.0
C533 C 0.61019 0.28764 0.26744 0.0
C534 C 0.59366 0.30622 0.27559 0.0
C535 C 0.56715 0.30358 0.27246 0.0
C536 C 0.60345 0.32862 0.28731 0.0
C537 C 0.63887 0.28999 0.26885 0.0
C538 C 0.61827 0.32788 0.3096 0.0
C539 C 0.62757 0.34909 0.32043 0.0
C540 C 0.62197 0.37143 0.3093 0.0
C541 C 0.60657 0.37212 0.28736 0.0
C542 C 0.59745 0.35092 0.27645 0.0
H543 H 0.64854 0.27764 0.25531 0.0
H544 H 0.64506 0.30865 0.26465 0.0
H545 H 0.64535 0.28531 0.28836 0.0
H546 H 0.62255 0.3109 0.3187 0.0
H547 H 0.63915 0.34796 0.33749 0.0
H548 H 0.19224 0.54312 0.68963 0.0
H549 H 0.15297 0.56599 0.69778 0.0
H550 H 0.16662 0.56119 0.77864 0.0
H551 H 0.20529 0.53813 0.7708 0.0
H552 H 0.11482 0.55759 0.76608 0.0
H553 H 0.16146 0.63625 0.71982 0.0
H554 H 0.15775 0.60979 0.70056 0.0
H555 H 0.17884 0.60927 0.72754 0.0
C556 C 0.18654 0.54646 0.70914 0.0
C557 C 0.20215 0.53914 0.72954 0.0
C558 C 0.16419 0.55966 0.71376 0.0
C559 C 0.15718 0.56571 0.73881 0.0
C560 C 0.17171 0.55686 0.75916 0.0
H561 H 0.09337 0.68661 0.81061 0.0
H562 H 0.11763 0.65307 0.79324 0.0
C563 C 0.19394 0.54375 0.7546 0.0
C564 C 0.13645 0.58319 0.7442 0.0
H565 H 0.12258 0.64301 0.74051 0.0
C566 C 0.1162 0.5762 0.76014 0.0
C567 C 0.13853 0.60752 0.73667 0.0
C568 C 0.16036 0.61633 0.72036 0.0
C569 C 0.09853 0.59306 0.7695 0.0
C570 C 0.1011 0.61746 0.76253 0.0
C571 C 0.12068 0.62426 0.74577 0.0
C572 C 0.08538 0.63669 0.77424 0.0
C573 C 0.07809 0.58493 0.78782 0.0
C574 C 0.05904 0.63846 0.76959 0.0
C575 C 0.04498 0.65769 0.77961 0.0
C576 C 0.05708 0.67555 0.79432 0.0
C577 C 0.08337 0.6733 0.79935 0.0
C578 C 0.09733 0.65413 0.78938 0.0
H579 H 0.08108 0.56614 0.79427 0.0
H580 H 0.07757 0.59685 0.80478 0.0
H581 H 0.05918 0.58601 0.77833 0.0
H582 H 0.04951 0.62533 0.75769 0.0
H583 H 0.0248 0.65891 0.77524 0.0
H584 H 0.83671 0.12054 0.32385 0.0
H585 H 0.85221 0.15703 0.30282 0.0
H586 H 0.92042 0.11935 0.27952 0.0
H587 H 0.90411 0.08257 0.29894 0.0
H588 H 0.88993 0.18443 0.31013 0.0
H589 H 0.90233 0.14755 0.21338 0.0
H590 H 0.88661 0.13088 0.23827 0.0
H591 H 0.92098 0.13068 0.23566 0.0
C592 C 0.85494 0.12011 0.31409 0.0
C593 C 0.86916 0.09879 0.31279 0.0
C594 C 0.86379 0.14092 0.30206 0.0
C595 C 0.88723 0.14086 0.28895 0.0
C596 C 0.90183 0.1197 0.28855 0.0
H597 H 0.97151 0.27204 0.25875 0.0
H598 H 0.95474 0.23443 0.27602 0.0
C599 C 0.89265 0.09875 0.29991 0.0
C600 C 0.89685 0.16311 0.27655 0.0
H601 H 0.92425 0.18456 0.22207 0.0
C602 C 0.89715 0.18448 0.29076 0.0
C603 C 0.90579 0.16345 0.25106 0.0
C604 C 0.90362 0.14196 0.23366 0.0
C605 C 0.9066 0.20596 0.28046 0.0
C606 C 0.91738 0.20584 0.25568 0.0
C607 C 0.91651 0.18462 0.24125 0.0
C608 C 0.92929 0.22756 0.24427 0.0
C609 C 0.90424 0.22859 0.29613 0.0
C610 C 0.92204 0.23537 0.21983 0.0
C611 C 0.93246 0.25634 0.20949 0.0
C612 C 0.94992 0.27007 0.22362 0.0
C613 C 0.9578 0.26188 0.24765 0.0
C614 C 0.94798 0.24056 0.25765 0.0
H615 H 0.88809 0.22738 0.30981 0.0
H616 H 0.92195 0.23118 0.3074 0.0
H617 H 0.90123 0.24462 0.2839 0.0
H618 H 0.90783 0.22559 0.209 0.0
H619 H 0.92601 0.26237 0.19095 0.0
H620 H 0.27963 0.92335 0.77176 0.0
H621 H 0.31736 0.89981 0.78196 0.0
H622 H 0.33781 0.89755 0.7024 0.0
H623 H 0.29955 0.921 0.69185 0.0
H624 H 0.33627 0.85303 0.72408 0.0
H625 H 0.39319 0.91337 0.78537 0.0
H626 H 0.36066 0.91162 0.79589 0.0
H627 H 0.3678 0.92423 0.7651 0.0
C628 C 0.29234 0.91828 0.75639 0.0
C629 C 0.28644 0.92398 0.73093 0.0
C630 C 0.3141 0.90496 0.76233 0.0
C631 C 0.33062 0.89714 0.74301 0.0
C632 C 0.3254 0.90356 0.71764 0.0
H633 H 0.46365 0.80844 0.7838 0.0
H634 H 0.43724 0.84105 0.76692 0.0
C635 C 0.30358 0.91702 0.71165 0.0
C636 C 0.35145 0.88003 0.74928 0.0
H637 H 0.40089 0.87077 0.79063 0.0
C638 C 0.35069 0.85706 0.73829 0.0
C639 C 0.37044 0.88532 0.76764 0.0
C640 C 0.37326 0.91007 0.77897 0.0
C641 C 0.36748 0.83887 0.74619 0.0
C642 C 0.3852 0.84367 0.76589 0.0
C643 C 0.38698 0.867 0.77584 0.0
C644 C 0.40131 0.82442 0.77701 0.0
C645 C 0.36584 0.81457 0.73357 0.0
C646 C 0.38988 0.80459 0.78893 0.0
C647 C 0.40486 0.78595 0.79864 0.0
C648 C 0.43166 0.7868 0.79675 0.0
C649 C 0.44309 0.80712 0.78553 0.0
C650 C 0.42804 0.82578 0.77584 0.0
H651 H 0.35695 0.81578 0.71439 0.0
H652 H 0.38504 0.80629 0.73163 0.0
H653 H 0.35383 0.80252 0.74541 0.0
H654 H 0.36929 0.80344 0.79056 0.0
H655 H 0.39536 0.7707 0.80726 0.0
H656 H 0.55589 0.28708 0.74039 0.0
H657 H 0.57011 0.24875 0.7232 0.0
H658 H 0.54985 0.21369 0.79362 0.0
H659 H 0.53599 0.25225 0.81135 0.0
H660 H 0.59724 0.20076 0.77667 0.0
H661 H 0.52739 0.1933 0.69778 0.0
H662 H 0.54476 0.22105 0.6971 0.0
H663 H 0.52376 0.21465 0.72339 0.0
C664 C 0.55421 0.27123 0.75224 0.0
C665 C 0.54465 0.27277 0.77726 0.0
C666 C 0.56223 0.24927 0.74228 0.0
C667 C 0.56055 0.22829 0.75693 0.0
C668 C 0.5511 0.22968 0.78193 0.0
H669 H 0.60187 0.08016 0.72599 0.0
H670 H 0.58486 0.11721 0.74414 0.0
C671 C 0.54319 0.25172 0.79201 0.0
C672 C 0.56979 0.20516 0.74645 0.0
H673 H 0.56331 0.1668 0.69606 0.0
C674 C 0.58965 0.1932 0.75919 0.0
C675 C 0.55986 0.19536 0.72361 0.0
C676 C 0.53759 0.20662 0.70981 0.0
C677 C 0.60027 0.17201 0.74935 0.0
C678 C 0.59069 0.16256 0.72628 0.0
C679 C 0.5707 0.17431 0.71365 0.0
C680 C 0.60102 0.14022 0.71515 0.0
C681 C 0.62202 0.1601 0.76335 0.0
C682 C 0.6154 0.14095 0.69262 0.0
C683 C 0.6254 0.11979 0.68228 0.0
C684 C 0.62098 0.09758 0.69425 0.0
C685 C 0.60608 0.09696 0.71655 0.0
C686 C 0.59626 0.11811 0.72694 0.0
H687 H 0.63007 0.17182 0.77848 0.0
H688 H 0.61503 0.14332 0.77238 0.0
H689 H 0.63751 0.15517 0.74987 0.0
H690 H 0.6191 0.15791 0.68321 0.0
H691 H 0.63668 0.12086 0.66502 0.0
H692 H 0.46942 0.6589 0.22352 0.0
H693 H 0.44482 0.62543 0.24141 0.0
H694 H 0.3767 0.65243 0.20524 0.0
H695 H 0.40085 0.68589 0.18754 0.0
H696 H 0.37127 0.64275 0.25777 0.0
H697 H 0.4142 0.56568 0.20547 0.0
H698 H 0.43577 0.58577 0.22156 0.0
H699 H 0.4177 0.59632 0.19476 0.0
C700 C 0.44927 0.65755 0.2191 0.0
C701 C 0.43714 0.67517 0.2041 0.0
C702 C 0.43526 0.63837 0.22931 0.0
C703 C 0.40895 0.63641 0.22457 0.0
C704 C 0.39697 0.65364 0.20917 0.0
H705 H 0.29018 0.53686 0.22757 0.0
H706 H 0.32886 0.56002 0.22011 0.0
C707 C 0.41087 0.67276 0.19902 0.0
C708 C 0.39332 0.61716 0.23636 0.0
H709 H 0.38036 0.5571 0.23352 0.0
C710 C 0.37345 0.62396 0.2528 0.0
C711 C 0.39627 0.5927 0.22978 0.0
C712 C 0.417 0.58454 0.21181 0.0
C713 C 0.35569 0.60715 0.26191 0.0
C714 C 0.35815 0.58274 0.25476 0.0
C715 C 0.37868 0.57577 0.23918 0.0
C716 C 0.3375 0.56514 0.26004 0.0
C717 C 0.33354 0.61594 0.27781 0.0
C718 C 0.33007 0.55936 0.28504 0.0
C719 C 0.30772 0.54609 0.28943 0.0
C720 C 0.29253 0.53844 0.26885 0.0
C721 C 0.30121 0.54273 0.24389 0.0
C722 C 0.32343 0.5559 0.23955 0.0
H723 H 0.33223 0.63585 0.27808 0.0
H724 H 0.31524 0.60862 0.27048 0.0
H725 H 0.33596 0.60966 0.29773 0.0
H726 H 0.34093 0.56597 0.30113 0.0
H727 H 0.30163 0.54301 0.30888 0.0
H728 H 0.84974 0.34867 0.6707 0.0
H729 H 0.86772 0.31258 0.6906 0.0
H730 H 0.91478 0.35679 0.73902 0.0
H731 H 0.89713 0.39286 0.71921 0.0
H732 H 0.94079 0.3179 0.71357 0.0
H733 H 0.85317 0.28875 0.76483 0.0
H734 H 0.84913 0.29515 0.73148 0.0
H735 H 0.85741 0.31897 0.75302 0.0
C736 C 0.8639 0.35069 0.6856 0.0
C737 C 0.87188 0.3736 0.69354 0.0
C738 C 0.87402 0.33009 0.69703 0.0
C739 C 0.89229 0.33211 0.71648 0.0
C740 C 0.90055 0.35492 0.72416 0.0
H741 H 0.94763 0.21632 0.81461 0.0
H742 H 0.93229 0.25527 0.79899 0.0
C743 C 0.89037 0.37549 0.71287 0.0
C744 C 0.90329 0.31044 0.72846 0.0
H745 H 0.88818 0.26164 0.76479 0.0
C746 C 0.92935 0.30564 0.72487 0.0
C747 C 0.88834 0.29473 0.74345 0.0
C748 C 0.86049 0.29966 0.74868 0.0
C749 C 0.94072 0.28507 0.73532 0.0
C750 C 0.92556 0.26893 0.74957 0.0
C751 C 0.89968 0.27408 0.75377 0.0
C752 C 0.93593 0.24597 0.75914 0.0
C753 C 0.96882 0.28068 0.73102 0.0
C754 C 0.94296 0.22799 0.74186 0.0
C755 C 0.95157 0.20579 0.75064 0.0
C756 C 0.95334 0.20113 0.77694 0.0
C757 C 0.94662 0.21936 0.79426 0.0
C758 C 0.93779 0.24157 0.78539 0.0
H759 H 0.97891 0.29729 0.72498 0.0
H760 H 0.97801 0.27368 0.74858 0.0
H761 H 0.97121 0.26704 0.71579 0.0
H762 H 0.94134 0.23098 0.72152 0.0
H763 H 0.95661 0.19219 0.73676 0.0
H764 H 0.03064 0.81116 0.21949 0.0
H765 H 0.05593 0.84377 0.238 0.0
H766 H 0.12405 0.81434 0.204 0.0
H767 H 0.09914 0.78159 0.18573 0.0
H768 H 0.12898 0.82434 0.25593 0.0
H769 H 0.08878 0.90234 0.2032 0.0
H770 H 0.06614 0.88331 0.21917 0.0
H771 H 0.08417 0.87174 0.1928 0.0
C772 C 0.05096 0.81177 0.21567 0.0
C773 C 0.06283 0.79368 0.20109 0.0
C774 C 0.06537 0.83048 0.22623 0.0
C775 C 0.09185 0.83156 0.22226 0.0
C776 C 0.10363 0.81384 0.20733 0.0
H777 H 0.21078 0.93164 0.23146 0.0
H778 H 0.17286 0.9081 0.22185 0.0
C779 C 0.08931 0.79514 0.19682 0.0
C780 C 0.10772 0.85044 0.23441 0.0
H781 H 0.12103 0.91048 0.23329 0.0
C782 C 0.12709 0.84323 0.25124 0.0
C783 C 0.10516 0.87504 0.2282 0.0
C784 C 0.08509 0.88368 0.20973 0.0
C785 C 0.14462 0.85978 0.26127 0.0
C786 C 0.14242 0.88435 0.25467 0.0
C787 C 0.12247 0.8917 0.23855 0.0
C788 C 0.16276 0.90186 0.26126 0.0
C789 C 0.16622 0.85061 0.27767 0.0
C790 C 0.16913 0.90709 0.28669 0.0
C791 C 0.19105 0.92059 0.29233 0.0
C792 C 0.20685 0.929 0.27257 0.0
C793 C 0.19926 0.92517 0.24717 0.0
C794 C 0.17747 0.91178 0.2416 0.0
H795 H 0.16759 0.8307 0.27735 0.0
H796 H 0.18475 0.85818 0.27124 0.0
H797 H 0.16306 0.85632 0.29768 0.0
H798 H 0.15775 0.89995 0.30216 0.0
H799 H 0.19632 0.9233 0.31207 0.0
H800 H 0.30154 0.58811 0.6681 0.0
H801 H 0.33285 0.62001 0.67588 0.0
H802 H 0.35298 0.58711 0.74747 0.0
H803 H 0.32201 0.55516 0.73987 0.0
H804 H 0.34144 0.65287 0.72007 0.0
H805 H 0.41974 0.58772 0.70271 0.0
H806 H 0.38721 0.58233 0.69275 0.0
H807 H 0.39635 0.57769 0.7254 0.0
C808 C 0.31229 0.58792 0.68573 0.0
C809 C 0.30948 0.56898 0.70327 0.0
C810 C 0.33016 0.60613 0.69009 0.0
C811 C 0.34546 0.60555 0.71198 0.0
C812 C 0.34154 0.58758 0.73027 0.0
H813 H 0.45804 0.6725 0.79641 0.0
H814 H 0.42539 0.64869 0.7751 0.0
C815 C 0.32373 0.56942 0.72595 0.0
C816 C 0.36669 0.62272 0.71523 0.0
H817 H 0.43132 0.62461 0.723 0.0
C818 C 0.36116 0.6469 0.72022 0.0
C819 C 0.39235 0.6148 0.71504 0.0
C820 C 0.39937 0.58926 0.70845 0.0
C821 C 0.38066 0.66306 0.72686 0.0
C822 C 0.4061 0.6547 0.72829 0.0
C823 C 0.41174 0.63088 0.72183 0.0
C824 C 0.42642 0.66921 0.74014 0.0
C825 C 0.37391 0.68856 0.73383 0.0
C826 C 0.43804 0.68839 0.72725 0.0
C827 C 0.45693 0.70207 0.7394 0.0
C828 C 0.46415 0.69673 0.76458 0.0
C829 C 0.45273 0.67719 0.77709 0.0
C830 C 0.43411 0.66354 0.76496 0.0
H831 H 0.35308 0.69209 0.73231 0.0
H832 H 0.38016 0.69239 0.75364 0.0
H833 H 0.38419 0.70116 0.72105 0.0
H834 H 0.43237 0.69284 0.70798 0.0
H835 H 0.4654 0.71708 0.72937 0.0
H836 H 0.88464 0.34156 0.1631 0.0
H837 H 0.84528 0.35466 0.18383 0.0
H838 H 0.88923 0.38818 0.24355 0.0
H839 H 0.92875 0.37582 0.2225 0.0
H840 H 0.82813 0.34274 0.23144 0.0
H841 H 0.84041 0.44159 0.22354 0.0
H842 H 0.85975 0.42064 0.20575 0.0
H843 H 0.8664 0.42626 0.23882 0.0
C844 C 0.88599 0.35191 0.18053 0.0
C845 C 0.90987 0.35755 0.1912 0.0
C846 C 0.86345 0.35933 0.19238 0.0
C847 C 0.86431 0.37259 0.2151 0.0
C848 C 0.88811 0.37834 0.22579 0.0
H849 H 0.73704 0.4217 0.31097 0.0
H850 H 0.7799 0.41089 0.29588 0.0
C851 C 0.9107 0.37103 0.21385 0.0
C852 C 0.84019 0.37958 0.22791 0.0
H853 H 0.80464 0.42782 0.24696 0.0
C854 C 0.82303 0.36134 0.23487 0.0
C855 C 0.83363 0.40387 0.23248 0.0
C856 C 0.85088 0.42426 0.22459 0.0
C857 C 0.79937 0.36674 0.24599 0.0
C858 C 0.79264 0.39099 0.25011 0.0
C859 C 0.80999 0.40924 0.24381 0.0
C860 C 0.76695 0.39773 0.25933 0.0
C861 C 0.78161 0.34649 0.25314 0.0
C862 C 0.74567 0.39414 0.24361 0.0
C863 C 0.72129 0.40038 0.25203 0.0
C864 C 0.71767 0.4103 0.27643 0.0
C865 C 0.73912 0.414 0.29213 0.0
C866 C 0.76361 0.4079 0.28356 0.0
H867 H 0.79175 0.32898 0.25408 0.0
H868 H 0.77243 0.35004 0.27185 0.0
H869 H 0.76629 0.34504 0.23861 0.0
H870 H 0.74796 0.38655 0.22474 0.0
H871 H 0.70526 0.39726 0.23941 0.0
H872 H 0.02554 0.75448 0.72607 0.0
H873 H 0.05983 0.77615 0.7038 0.0
H874 H 0.0838 0.80758 0.77497 0.0
H875 H 0.04969 0.78657 0.79714 0.0
H876 H 0.06794 0.82787 0.70385 0.0
H877 H 0.15019 0.77832 0.74431 0.0
H878 H 0.11815 0.76622 0.74389 0.0
H879 H 0.12743 0.78747 0.768 0.0
C880 C 0.03817 0.766 0.73693 0.0
C881 C 0.03515 0.76854 0.76343 0.0
C882 C 0.05775 0.77824 0.72421 0.0
C883 C 0.07465 0.79294 0.7379 0.0
C884 C 0.07136 0.79578 0.76421 0.0
H885 H 0.16742 0.91212 0.73135 0.0
H886 H 0.13951 0.87774 0.73874 0.0
C887 C 0.0518 0.78376 0.77685 0.0
C888 C 0.095 0.80661 0.72495 0.0
H889 H 0.15885 0.8184 0.72881 0.0
C890 C 0.08792 0.82542 0.70866 0.0
C891 C 0.12102 0.80326 0.73126 0.0
C892 C 0.12973 0.78256 0.74763 0.0
C893 C 0.10603 0.84213 0.70013 0.0
C894 C 0.13166 0.83982 0.70811 0.0
C895 C 0.13908 0.82009 0.72289 0.0
C896 C 0.15011 0.85938 0.70403 0.0
C897 C 0.09753 0.86306 0.68399 0.0
C898 C 0.16557 0.86002 0.68226 0.0
C899 C 0.18168 0.87965 0.67799 0.0
C900 C 0.18248 0.89882 0.69547 0.0
C901 C 0.16743 0.89763 0.71761 0.0
C902 C 0.1514 0.87806 0.72184 0.0
H903 H 0.07754 0.86097 0.67722 0.0
H904 H 0.09888 0.87985 0.69531 0.0
H905 H 0.11031 0.86502 0.66723 0.0
H906 H 0.16471 0.84565 0.66838 0.0
H907 H 0.19301 0.88008 0.66073 0.0
H908 H 0.61017 0.12803 0.1608 0.0
H909 H 0.65017 0.11481 0.18025 0.0
H910 H 0.60792 0.07803 0.23902 0.0
H911 H 0.56784 0.09043 0.2192 0.0
H912 H 0.668 0.12514 0.2277 0.0
H913 H 0.65749 0.0265 0.21657 0.0
H914 H 0.63732 0.04763 0.2 0.0
H915 H 0.63132 0.04051 0.23289 0.0
C916 C 0.60935 0.11692 0.17772 0.0
C917 C 0.58578 0.1104 0.18852 0.0
C918 C 0.63225 0.10943 0.18884 0.0
C919 C 0.63205 0.09522 0.21093 0.0
C920 C 0.60855 0.08859 0.2217 0.0
H921 H 0.75667 0.04631 0.30907 0.0
H922 H 0.71453 0.05669 0.29189 0.0
C923 C 0.58563 0.09594 0.21049 0.0
C924 C 0.65647 0.08825 0.22318 0.0
H925 H 0.69239 0.04005 0.24167 0.0
C926 C 0.67334 0.10654 0.23069 0.0
C927 C 0.66336 0.06395 0.22717 0.0
C928 C 0.64655 0.0435 0.21854 0.0
C929 C 0.69691 0.10119 0.24205 0.0
C930 C 0.70383 0.07694 0.24587 0.0
C931 C 0.68688 0.05863 0.23876 0.0
C932 C 0.72914 0.0703 0.25617 0.0
C933 C 0.71426 0.12149 0.25 0.0
C934 C 0.75114 0.07427 0.24158 0.0
C935 C 0.77516 0.06828 0.2512 0.0
C936 C 0.77765 0.05823 0.27569 0.0
C937 C 0.75546 0.0541 0.2902 0.0
C938 C 0.73138 0.05996 0.28043 0.0
H939 H 0.70402 0.13895 0.25065 0.0
H940 H 0.72271 0.11788 0.26903 0.0
H941 H 0.73014 0.12307 0.2361 0.0
H942 H 0.74971 0.08202 0.2227 0.0
H943 H 0.79178 0.07172 0.23948 0.0
H944 H 0.46649 0.75432 0.27042 0.0
H945 H 0.43174 0.77639 0.29151 0.0
H946 H 0.41174 0.8093 0.21986 0.0
H947 H 0.44614 0.78767 0.19884 0.0
H948 H 0.42432 0.82673 0.29365 0.0
H949 H 0.3434 0.78211 0.24518 0.0
H950 H 0.37515 0.76939 0.24597 0.0
H951 H 0.36721 0.7923 0.22309 0.0
C952 C 0.45463 0.76625 0.25921 0.0
C953 C 0.4588 0.76901 0.2329 0.0
C954 C 0.43478 0.77873 0.27124 0.0
C955 C 0.41881 0.79393 0.25706 0.0
C956 C 0.42337 0.79708 0.23097 0.0
H957 H 0.32209 0.91186 0.26385 0.0
H958 H 0.34906 0.87716 0.25471 0.0
C959 C 0.44312 0.78474 0.21901 0.0
C960 C 0.39809 0.80772 0.26934 0.0
H961 H 0.33501 0.82171 0.26231 0.0
C962 C 0.40465 0.82526 0.28736 0.0
C963 C 0.37245 0.80564 0.26111 0.0
C964 C 0.36407 0.78616 0.24296 0.0
C965 C 0.38653 0.84195 0.29595 0.0
C966 C 0.36137 0.84088 0.2863 0.0
C967 C 0.35442 0.82248 0.26949 0.0
C968 C 0.34294 0.8603 0.29131 0.0
C969 C 0.39464 0.86156 0.31406 0.0
C970 C 0.33018 0.86185 0.3147 0.0
C971 C 0.31453 0.88159 0.31993 0.0
C972 C 0.31162 0.90007 0.30187 0.0
C973 C 0.32381 0.89794 0.27812 0.0
C974 C 0.33926 0.87815 0.27287 0.0
H975 H 0.41515 0.86021 0.31933 0.0
H976 H 0.39119 0.87939 0.30523 0.0
H977 H 0.38299 0.86061 0.3317 0.0
H978 H 0.33283 0.84812 0.32908 0.0
H979 H 0.30543 0.88274 0.33842 0.0
H980 H 0.79026 0.39836 0.76464 0.0
H981 H 0.74802 0.38829 0.781 0.0
H982 H 0.71374 0.41398 0.71142 0.0
H983 H 0.75611 0.42361 0.69455 0.0
H984 H 0.70763 0.41744 0.79019 0.0
H985 H 0.68123 0.34838 0.71848 0.0
H986 H 0.71337 0.35969 0.72166 0.0
H987 H 0.68958 0.37699 0.70511 0.0
C988 C 0.77379 0.4018 0.75271 0.0
C989 C 0.77662 0.41172 0.72821 0.0
C990 C 0.74963 0.39603 0.76212 0.0
C991 C 0.72775 0.40008 0.74732 0.0
C992 C 0.73041 0.41019 0.72295 0.0
H993 H 0.56667 0.37843 0.78426 0.0
H994 H 0.60664 0.39187 0.76476 0.0
C995 C 0.75464 0.4158 0.7134 0.0
C996 C 0.70222 0.39416 0.75784 0.0
H997 H 0.64933 0.35935 0.74829 0.0
C998 C 0.69489 0.40474 0.78101 0.0
C999 C 0.6856 0.37759 0.74582 0.0
C1000 C 0.69287 0.36482 0.72152 0.0
C1001 C 0.67147 0.39913 0.79254 0.0
C1002 C 0.65503 0.38245 0.78064 0.0
C1003 C 0.66205 0.37219 0.75727 0.0
C1004 C 0.63088 0.37472 0.7927 0.0
C1005 C 0.66439 0.41107 0.81736 0.0
C1006 C 0.63138 0.36056 0.81478 0.0
C1007 C 0.60862 0.35261 0.82581 0.0
C1008 C 0.58493 0.3587 0.81494 0.0
C1009 C 0.58454 0.37315 0.79296 0.0
C1010 C 0.60734 0.38094 0.78182 0.0
H1011 H 0.67657 0.42698 0.82137 0.0
H1012 H 0.64407 0.41678 0.81714 0.0
H1013 H 0.66686 0.39805 0.83317 0.0
H1014 H 0.64942 0.35541 0.82329 0.0
H1015 H 0.60962 0.34151 0.84272 0.0
H1016 H 0.19344 0.58725 0.33065 0.0
H1017 H 0.1663 0.62197 0.32128 0.0
H1018 H 0.15016 0.59308 0.2468 0.0
H1019 H 0.17704 0.5583 0.25596 0.0
H1020 H 0.16179 0.64618 0.25094 0.0
H1021 H 0.08591 0.61211 0.31624 0.0
H1022 H 0.11817 0.61423 0.32796 0.0
H1023 H 0.11052 0.59266 0.30378 0.0
C1024 C 0.18444 0.58846 0.31212 0.0
C1025 C 0.18729 0.56996 0.29407 0.0
C1026 C 0.16889 0.60825 0.30688 0.0
C1027 C 0.1561 0.60985 0.2835 0.0
C1028 C 0.15991 0.59206 0.26498 0.0
H1029 H 0.04686 0.68007 0.19521 0.0
H1030 H 0.0818 0.65803 0.21482 0.0
C1031 C 0.1753 0.57222 0.27024 0.0
C1032 C 0.13747 0.62918 0.27863 0.0
H1033 H 0.07575 0.64531 0.29068 0.0
C1034 C 0.14312 0.64629 0.25989 0.0
C1035 C 0.11326 0.62931 0.29057 0.0
C1036 C 0.10637 0.61109 0.31072 0.0
C1037 C 0.12473 0.66298 0.25198 0.0
C1038 C 0.09994 0.66206 0.26269 0.0
C1039 C 0.09477 0.64587 0.28249 0.0
C1040 C 0.07847 0.67563 0.25143 0.0
C1041 C 0.13179 0.68106 0.23177 0.0
C1042 C 0.06428 0.69212 0.26589 0.0
C1043 C 0.04404 0.70477 0.25469 0.0
C1044 C 0.03776 0.70093 0.22896 0.0
C1045 C 0.05153 0.6838 0.21492 0.0
C1046 C 0.0716 0.67124 0.22605 0.0
H1047 H 0.15264 0.68478 0.23185 0.0
H1048 H 0.12678 0.67372 0.21276 0.0
H1049 H 0.12134 0.69822 0.23448 0.0
H1050 H 0.0691 0.69545 0.28564 0.0
H1051 H 0.03369 0.71783 0.26598 0.0
H1052 H 0.88871 0.12892 0.83768 0.0
H1053 H 0.84897 0.11561 0.81775 0.0
H1054 H 0.89178 0.08164 0.75756 0.0
H1055 H 0.93174 0.09461 0.7775 0.0
H1056 H 0.84904 0.11294 0.74183 0.0
H1057 H 0.8222 0.04478 0.81431 0.0
H1058 H 0.83101 0.07364 0.8269 0.0
H1059 H 0.85447 0.05575 0.81068 0.0
C1060 C 0.88974 0.11851 0.82028 0.0
C1061 C 0.91343 0.11294 0.80912 0.0
C1062 C 0.86701 0.11089 0.80896 0.0
C1063 C 0.86752 0.09754 0.78631 0.0
C1064 C 0.89106 0.09194 0.77506 0.0
H1065 H 0.73847 0.0496 0.69166 0.0
H1066 H 0.78177 0.05887 0.70644 0.0
C1067 C 0.91385 0.09943 0.78646 0.0
C1068 C 0.84334 0.08988 0.77423 0.0
H1069 H 0.79023 0.05575 0.78439 0.0
C1070 C 0.83624 0.10025 0.75092 0.0
C1071 C 0.82682 0.07331 0.78621 0.0
C1072 C 0.83402 0.06102 0.81081 0.0
C1073 C 0.81242 0.09524 0.73978 0.0
C1074 C 0.79561 0.07909 0.75209 0.0
C1075 C 0.80312 0.0682 0.77504 0.0
C1076 C 0.76956 0.07412 0.74237 0.0
C1077 C 0.80504 0.10804 0.71553 0.0
C1078 C 0.7484 0.07934 0.75778 0.0
C1079 C 0.72376 0.07388 0.74954 0.0
C1080 C 0.71968 0.06304 0.72567 0.0
C1081 C 0.74091 0.05809 0.71007 0.0
C1082 C 0.76566 0.06346 0.71844 0.0
H1083 H 0.8175 0.12379 0.71175 0.0
H1084 H 0.80692 0.09546 0.69924 0.0
H1085 H 0.78489 0.11421 0.71636 0.0
H1086 H 0.75098 0.08757 0.77631 0.0
H1087 H 0.7079 0.07805 0.76204 0.0
H1088 H 0.49549 0.20557 0.11112 0.0
H1089 H 0.48866 0.23168 0.07415 0.0
H1090 H 0.50815 0.17319 0.02393 0.0
H1091 H 0.51458 0.14695 0.06056 0.0
H1092 H 0.52411 0.24427 0.03797 0.0
H1093 H 0.44269 0.19789 0.99193 0.0
H1094 H 0.45221 0.19187 0.02436 0.0
H1095 H 0.4691 0.17825 0.99823 0.0
C1096 C 0.49804 0.1982 0.09219 0.0
C1097 C 0.50553 0.17415 0.0888 0.0
C1098 C 0.49413 0.21314 0.07109 0.0
C1099 C 0.49748 0.20428 0.04626 0.0
C1100 C 0.50483 0.18027 0.04286 0.0
H1101 H 0.5096 0.26164 0.89423 0.0
H1102 H 0.50702 0.23656 0.93247 0.0
C1103 C 0.50869 0.16533 0.06388 0.0
C1104 C 0.49496 0.22044 0.02392 0.0
H1105 H 0.4651 0.22662 0.96639 0.0
C1106 C 0.51099 0.24059 0.02246 0.0
C1107 C 0.47787 0.21555 0.00367 0.0
C1108 C 0.45931 0.19484 0.00468 0.0
C1109 C 0.51101 0.25555 0.00093 0.0
C1110 C 0.49427 0.25039 0.98048 0.0
C1111 C 0.47795 0.23047 0.98208 0.0
C1112 C 0.49395 0.26523 0.95704 0.0
C1113 C 0.52956 0.27628 0.99988 0.0
C1114 C 0.48679 0.28948 0.95808 0.0
C1115 C 0.48826 0.30385 0.9363 0.0
C1116 C 0.49682 0.29421 0.91304 0.0
C1117 C 0.50302 0.26965 0.91185 0.0
C1118 C 0.50154 0.25529 0.93367 0.0
H1119 H 0.54485 0.2746 0.01445 0.0
H1120 H 0.53857 0.27755 0.98078 0.0
H1121 H 0.51911 0.29328 0.00348 0.0
H1122 H 0.48043 0.29737 0.97584 0.0
H1123 H 0.48314 0.32264 0.93786 0.0
H1124 H 0.20514 0.51953 0.4073 0.0
H1125 H 0.2134 0.51055 0.45182 0.0
H1126 H 0.26187 0.4514 0.42968 0.0
H1127 H 0.25456 0.46124 0.38456 0.0
H1128 H 0.20279 0.47279 0.47959 0.0
H1129 H 0.30823 0.48543 0.47791 0.0
H1130 H 0.28831 0.49344 0.45125 0.0
H1131 H 0.29613 0.46249 0.45715 0.0
C1132 C 0.21769 0.50467 0.41184 0.0
C1133 C 0.22933 0.49116 0.39247 0.0
C1134 C 0.22231 0.49947 0.43735 0.0
C1135 C 0.23839 0.48039 0.44422 0.0
C1136 C 0.24983 0.46654 0.4249 0.0
H1137 H 0.24075 0.4611 0.61267 0.0
H1138 H 0.23363 0.45059 0.56768 0.0
C1139 C 0.2456 0.4721 0.39916 0.0
C1140 C 0.24303 0.47578 0.47173 0.0
H1141 H 0.28928 0.47808 0.51746 0.0
C1142 C 0.22173 0.4737 0.48791 0.0
C1143 C 0.26777 0.47683 0.48253 0.0
C1144 C 0.29143 0.47985 0.4664 0.0
C1145 C 0.22427 0.47456 0.51453 0.0
C1146 C 0.24894 0.47656 0.52531 0.0
C1147 C 0.27036 0.47668 0.50915 0.0
C1148 C 0.25298 0.48199 0.55274 0.0
C1149 C 0.2004 0.47505 0.53066 0.0
C1150 C 0.26656 0.50281 0.55933 0.0
C1151 C 0.27109 0.50845 0.58475 0.0
C1152 C 0.26182 0.49363 0.6043 0.0
C1153 C 0.24781 0.47296 0.59791 0.0
C1154 C 0.2437 0.467 0.57225 0.0
H1155 H 0.183 0.4785 0.5191 0.0
H1156 H 0.19801 0.45741 0.54018 0.0
H1157 H 0.20174 0.4891 0.54561 0.0
H1158 H 0.27373 0.51478 0.54471 0.0
H1159 H 0.28186 0.52455 0.5891 0.0
H1160 H 0.99469 0.3233 0.06049 0.0
H1161 H 0.99796 0.29671 0.02356 0.0
H1162 H 0.99279 0.23498 0.07288 0.0
H1163 H 0.98917 0.26142 0.10996 0.0
H1164 H 0.03308 0.25991 0.01153 0.0
H1165 H 0.93428 0.22482 0.02186 0.0
H1166 H 0.94536 0.25114 0.03859 0.0
H1167 H 0.95385 0.2217 0.04977 0.0
C1168 C 0.99434 0.30406 0.06354 0.0
C1169 C 0.99142 0.29449 0.08818 0.0
C1170 C 0.99626 0.28891 0.0424 0.0
C1171 C 0.99519 0.26391 0.04545 0.0
C1172 C 0.99316 0.25425 0.07007 0.0
H1173 H 0.99001 0.14456 0.93951 0.0
H1174 H 0.99361 0.17015 0.97713 0.0
C1175 C 0.99122 0.26939 0.09125 0.0
C1176 C 0.99562 0.24801 0.02279 0.0
H1177 H 0.96 0.20692 0.99009 0.0
C1178 C 0.01712 0.24833 0.0068 0.0
C1179 C 0.97471 0.233 0.01663 0.0
C1180 C 0.95063 0.23271 0.03245 0.0
C1181 C 0.01843 0.23371 0.985 0.0
C1182 C 0.99751 0.21871 0.97887 0.0
C1183 C 0.97605 0.21839 0.99489 0.0
C1184 C 0.99727 0.20324 0.95587 0.0
C1185 C 0.04234 0.23413 0.96896 0.0
C1186 C 0.99821 0.21336 0.93138 0.0
C1187 C 0.99616 0.19876 0.90977 0.0
C1188 C 0.99297 0.17379 0.91228 0.0
C1189 C 0.99244 0.16371 0.93685 0.0
C1190 C 0.99448 0.17831 0.95841 0.0
H1191 H 0.05883 0.2417 0.97959 0.0
H1192 H 0.04737 0.21579 0.96233 0.0
H1193 H 0.03902 0.24552 0.95194 0.0
H1194 H -0.00015 0.23262 0.92899 0.0
H1195 H 0.99653 0.2071 0.89113 0.0
H1196 H 0.30528 0.974 0.41132 0.0
H1197 H 0.29596 0.9827 0.45571 0.0
H1198 H 0.22008 0.00583 0.43507 0.0
H1199 H 0.22905 0.99629 0.39024 0.0
H1200 H 0.28342 0.02305 0.48042 0.0
H1201 H 0.20476 0.95637 0.48893 0.0
H1202 H 0.22539 0.95765 0.46146 0.0
H1203 H 0.19986 0.97899 0.46507 0.0
C1204 C 0.28656 0.98096 0.4161 0.0
C1205 C 0.2678 0.98425 0.39724 0.0
C1206 C 0.28131 0.986 0.44155 0.0
C1207 C 0.25722 0.99459 0.44882 0.0
C1208 C 0.23862 -0.00132 0.42997 0.0
H1209 H 0.20162 0.01645 0.60384 0.0
H1210 H 0.20861 0.02163 0.55818 0.0
C1211 C 0.2438 0.99336 0.40437 0.0
C1212 C 0.25184 -0.0015 0.47627 0.0
H1213 H 0.21503 0.97857 0.52565 0.0
C1214 C 0.26834 0.01345 0.49027 0.0
C1215 C 0.23223 0.98588 0.48915 0.0
C1216 C 0.21466 0.96866 0.47549 0.0
C1217 C 0.26606 0.01573 0.51682 0.0
C1218 C 0.2468 0.00278 0.52963 0.0
C1219 C 0.22976 0.9885 0.51563 0.0
C1220 C 0.24463 0.00271 0.55771 0.0
C1221 C 0.28437 0.03174 0.53108 0.0
C1222 C 0.2629 0.99074 0.57261 0.0
C1223 C 0.25892 0.98755 0.59875 0.0
C1224 C 0.23656 0.9963 0.61036 0.0
C1225 C 0.21902 0.00941 0.59553 0.0
C1226 C 0.22293 0.01241 0.56942 0.0
H1227 H 0.29476 0.0441 0.51809 0.0
H1228 H 0.27406 0.0425 0.54562 0.0
H1229 H 0.29863 0.02044 0.54114 0.0
H1230 H 0.27966 0.98291 0.5638 0.0
H1231 H 0.27277 0.97737 0.60961 0.0
H1232 H 0.53759 0.74834 0.88908 0.0
H1233 H 0.54787 0.74478 0.93469 0.0
H1234 H 0.46871 0.73021 0.95114 0.0
H1235 H 0.4583 0.73366 0.90609 0.0
H1236 H 0.52519 0.76844 0.98087 0.0
H1237 H 0.50972 0.67009 0.97698 0.0
H1238 H 0.51558 0.688 0.94887 0.0
H1239 H 0.48423 0.68708 0.96285 0.0
C1240 C 0.52233 0.74486 0.90251 0.0
C1241 C 0.49718 0.74096 0.89393 0.0
C1242 C 0.52826 0.74271 0.92849 0.0
C1243 C 0.50912 0.73665 0.94608 0.0
C1244 C 0.48382 0.73438 0.93774 0.0
H1245 H 0.46027 0.72039 0.09345 0.0
H1246 H 0.47061 0.72076 0.04815 0.0
C1247 C 0.47791 0.73645 0.91197 0.0
C1248 C 0.51513 0.73171 0.97312 0.0
H1249 H 0.50703 0.68843 0.01844 0.0
C1250 C 0.52196 0.75084 0.9891 0.0
C1251 C 0.51105 0.70865 0.98367 0.0
C1252 C 0.50498 0.68721 0.96718 0.0
C1253 C 0.52275 0.74788 0.01569 0.0
C1254 C 0.51671 0.72523 0.02632 0.0
C1255 C 0.51163 0.70576 0.0102 0.0
C1256 C 0.51148 0.72245 0.05383 0.0
C1257 C 0.52823 0.7693 0.03241 0.0
C1258 C 0.53116 0.72248 0.07199 0.0
C1259 C 0.5253 0.72201 0.09806 0.0
C1260 C 0.49968 0.72181 0.10618 0.0
C1261 C 0.48018 0.7207 0.08781 0.0
C1262 C 0.48604 0.7209 0.06192 0.0
H1263 H 0.53174 0.78587 0.02117 0.0
H1264 H 0.5119 0.7725 0.04548 0.0
H1265 H 0.54531 0.76562 0.04432 0.0
H1266 H 0.55093 0.7235 0.066 0.0
H1267 H 0.54072 0.723 0.11178 0.0
H1268 H 0.83673 0.4658 0.56905 0.0
H1269 H 0.81135 0.46878 0.53011 0.0
H1270 H 0.74401 0.44761 0.57174 0.0
H1271 H 0.76919 0.4448 0.61091 0.0
H1272 H 0.78485 0.43083 0.50788 0.0
H1273 H 0.71922 0.50596 0.53098 0.0
H1274 H 0.74817 0.50031 0.5487 0.0
H1275 H 0.72005 0.48265 0.55461 0.0
C1276 C 0.81645 0.46209 0.57005 0.0
C1277 C 0.80499 0.45503 0.59312 0.0
C1278 C 0.80199 0.46379 0.54775 0.0
C1279 C 0.77576 0.45866 0.54808 0.0
C1280 C 0.76413 0.4521 0.57115 0.0
H1281 H 0.65646 0.43703 0.438 0.0
H1282 H 0.68287 0.44259 0.47587 0.0
C1283 C 0.77859 0.45037 0.5935 0.0
C1284 C 0.76102 0.45845 0.52395 0.0
H1285 H 0.70902 0.48267 0.49425 0.0
C1286 C 0.76842 0.44233 0.50476 0.0
C1287 C 0.73957 0.47343 0.52001 0.0
C1288 C 0.73136 0.49173 0.53955 0.0
C1289 C 0.75449 0.44024 0.48202 0.0
C1290 C 0.73285 0.45502 0.47818 0.0
C1291 C 0.72565 0.47139 0.49723 0.0
C1292 C 0.71676 0.45294 0.45502 0.0
C1293 C 0.76252 0.4216 0.46273 0.0
C1294 C 0.72693 0.45737 0.43071 0.0
C1295 C 0.71188 0.4541 0.40893 0.0
C1296 C 0.68635 0.4465 0.41113 0.0
C1297 C 0.67607 0.4428 0.43558 0.0
C1298 C 0.69112 0.44602 0.45729 0.0
H1299 H 0.77565 0.40806 0.47112 0.0
H1300 H 0.74564 0.41213 0.45478 0.0
H1301 H 0.77265 0.43057 0.44679 0.0
H1302 H 0.74655 0.46318 0.42856 0.0
H1303 H 0.72033 0.45727 0.3904 0.0
H1304 H 0.03694 0.74674 0.08965 0.0
H1305 H 0.02595 0.74312 0.04471 0.0
H1306 H 0.94586 0.74621 0.06349 0.0
H1307 H 0.95674 0.74994 0.10893 0.0
H1308 H 0.992 0.70176 0.02895 0.0
H1309 H 0.95822 0.79246 0.99895 0.0
H1310 H 0.98034 0.78898 0.02511 0.0
H1311 H 0.94777 0.77981 0.02884 0.0
C1312 C 0.01697 0.74718 0.08427 0.0
C1313 C 0.9977 0.74844 0.10288 0.0
C1314 C 0.01074 0.74507 0.05857 0.0
C1315 C 0.98514 0.74424 0.05087 0.0
C1316 C 0.96575 0.74694 0.06912 0.0
H1317 H 0.95383 0.72605 0.88629 0.0
H1318 H 0.94396 0.72694 0.93213 0.0
C1319 C 0.972 0.74916 0.09502 0.0
C1320 C 0.97934 0.73826 0.02403 0.0
H1321 H 0.96517 0.76379 0.96666 0.0
C1322 C 0.98561 0.71516 0.01537 0.0
C1323 C 0.97077 0.75571 0.0065 0.0
C1324 C 0.96386 0.78071 0.0151 0.0
C1325 C 0.98504 0.70948 0.98937 0.0
C1326 C 0.97834 0.72745 0.9716 0.0
C1327 C 0.9703 0.75006 0.98038 0.0
C1328 C 0.98341 0.72433 0.94406 0.0
C1329 C 0.99268 0.68458 0.98099 0.0
C1330 C 0.00876 0.72228 0.93574 0.0
C1331 C 0.01442 0.72195 0.90981 0.0
C1332 C 0.99482 0.72354 0.89159 0.0
C1333 C 0.96929 0.72455 0.8999 0.0
C1334 C 0.96364 0.72521 0.92602 0.0
H1335 H 0.9897 0.67124 0.99644 0.0
H1336 H 0.98168 0.67889 0.96393 0.0
H1337 H 0.01328 0.68455 0.97599 0.0
H1338 H 0.02431 0.72188 0.94936 0.0
H1339 H 0.03426 0.72116 0.90401 0.0
H1340 H 0.65279 0.00442 0.57134 0.0
H1341 H 0.67738 0.00083 0.53193 0.0
H1342 H 0.74598 0.0205 0.57234 0.0
H1343 H 0.72161 0.02386 0.61193 0.0
H1344 H 0.70407 0.0377 0.5089 0.0
H1345 H 0.76907 0.96205 0.53139 0.0
H1346 H 0.7407 0.96833 0.5498 0.0
H1347 H 0.76937 0.98545 0.55492 0.0
C1348 C 0.67318 0.00766 0.57196 0.0
C1349 C 0.68523 0.01445 0.59481 0.0
C1350 C 0.68719 0.00561 0.54939 0.0
C1351 C 0.71354 0.01013 0.54924 0.0
C1352 C 0.72575 0.01644 0.5721 0.0
H1353 H 0.83276 0.0321 0.44014 0.0
H1354 H 0.80581 0.0261 0.47751 0.0
C1355 C 0.71175 0.01849 0.59471 0.0
C1356 C 0.72789 0.01003 0.52486 0.0
H1357 H 0.77969 0.9857 0.49492 0.0
C1358 C 0.72042 0.02613 0.50568 0.0
C1359 C 0.74923 0.99493 0.52076 0.0
C1360 C 0.75746 0.97654 0.5402 0.0
C1361 C 0.73428 0.02822 0.48289 0.0
C1362 C 0.75592 0.01346 0.47899 0.0
C1363 C 0.76308 0.99698 0.49795 0.0
C1364 C 0.77226 0.01587 0.45604 0.0
C1365 C 0.72623 0.04689 0.46365 0.0
C1366 C 0.76247 0.01169 0.43152 0.0
C1367 C 0.77785 0.01522 0.41 0.0
C1368 C 0.80333 0.02283 0.41269 0.0
C1369 C 0.81321 0.02633 0.43734 0.0
C1370 C 0.79785 0.02285 0.45876 0.0
H1371 H 0.71287 0.06026 0.47198 0.0
H1372 H 0.74309 0.05656 0.45593 0.0
H1373 H 0.71637 0.03792 0.44754 0.0
H1374 H 0.74291 0.00585 0.42901 0.0
H1375 H 0.76971 0.01222 0.3913 0.0
loop_
_geom_bond_atom_site_label_1
_geom_bond_atom_site_label_2
_geom_bond_distance
_geom_bond_site_symmetry_2
_ccdc_geom_bond_type
Mg0 O1 2.028 . S
Mg0 O7 1.986 . S
Mg0 O9 2.114 . S
Mg0 O10 2.251 . S
Mg0 O13 2.010 . S
O1 Mg0 2.028 . S
O1 C4 1.250 . S
O2 Mg3 2.028 . S
O2 C4 1.248 . S
Mg3 O2 2.028 . S
Mg3 O8 2.032 . S
Mg3 O10 2.079 . S
C4 O1 1.250 . S
C4 O2 1.248 . S
C5 O6 1.264 . S
C5 O13 1.249 . S
O6 C5 1.264 . S
O7 Mg0 1.986 . S
O7 C11 1.246 . S
O8 Mg3 2.032 . S
O8 C11 1.259 . S
O9 Mg0 2.114 . S
O9 C12 1.252 . S
O10 Mg0 2.251 . S
O10 Mg3 2.079 . S
O10 C12 1.273 . S
C11 O7 1.246 . S
C11 O8 1.259 . S
C12 O9 1.252 . S
C12 O10 1.273 . S
O13 Mg0 2.010 . S
O13 C5 1.249 . S
Mg14 O15 2.028 . S
Mg14 O21 1.986 . S
Mg14 O23 2.114 . S
Mg14 O24 2.251 . S
Mg14 O27 2.010 . S
O15 Mg14 2.028 . S
O15 C18 1.250 . S
O16 Mg17 2.028 . S
O16 C18 1.248 . S
Mg17 O16 2.028 . S
Mg17 O22 2.032 . S
Mg17 O24 2.079 . S
C18 O15 1.250 . S
C18 O16 1.248 . S
C19 O20 1.264 . S
C19 O27 1.249 . S
O20 C19 1.264 . S
O21 Mg14 1.986 . S
O21 C25 1.246 . S
O22 Mg17 2.032 . S
O22 C25 1.259 . S
O23 Mg14 2.114 . S
O23 C26 1.252 . S
O24 Mg14 2.251 . S
O24 Mg17 2.079 . S
O24 C26 1.273 . S
C25 O21 1.246 . S
C25 O22 1.259 . S
C26 O23 1.252 . S
C26 O24 1.273 . S
O27 Mg14 2.010 . S
O27 C19 1.249 . S
Mg28 O29 2.028 . S
Mg28 O35 1.986 1_655 S
Mg28 O37 2.114 . S
Mg28 O38 2.251 . S
Mg28 O41 2.010 . S
O29 Mg28 2.028 . S
O29 C32 1.250 . S
O30 Mg31 2.028 . S
O30 C32 1.248 . S
Mg31 O30 2.028 . S
Mg31 O36 2.032 1_655 S
Mg31 O38 2.079 . S
C32 O29 1.250 . S
C32 O30 1.248 . S
C33 O34 1.264 . S
C33 O41 1.249 . S
O34 C33 1.264 . S
O35 Mg28 1.986 1_455 S
O35 C39 1.246 . S
O36 Mg31 2.032 1_455 S
O36 C39 1.259 . S
O37 Mg28 2.114 . S
O37 C40 1.252 . S
O38 Mg28 2.251 . S
O38 Mg31 2.079 . S
O38 C40 1.273 . S
C39 O35 1.246 . S
C39 O36 1.259 . S
C40 O37 1.252 . S
C40 O38 1.273 . S
O41 Mg28 2.010 . S
O41 C33 1.249 . S
Mg42 O43 2.028 . S
Mg42 O49 1.986 . S
Mg42 O51 2.114 . S
Mg42 O52 2.251 . S
Mg42 O55 2.010 . S
O43 Mg42 2.028 . S
O43 C46 1.250 . S
O44 Mg45 2.028 . S
O44 C46 1.248 . S
Mg45 O44 2.028 . S
Mg45 O50 2.032 . S
Mg45 O52 2.079 . S
C46 O43 1.250 . S
C46 O44 1.248 . S
C47 O48 1.264 . S
C47 O55 1.249 . S
O48 C47 1.264 . S
O49 Mg42 1.986 . S
O49 C53 1.246 . S
O50 Mg45 2.032 . S
O50 C53 1.259 . S
O51 Mg42 2.114 . S
O51 C54 1.252 . S
O52 Mg42 2.251 . S
O52 Mg45 2.079 . S
O52 C54 1.273 . S
C53 O49 1.246 . S
C53 O50 1.259 . S
C54 O51 1.252 . S
C54 O52 1.273 . S
O55 Mg42 2.010 . S
O55 C47 1.249 . S
Mg56 O57 2.028 . S
Mg56 O63 1.986 . S
Mg56 O65 2.114 . S
Mg56 O66 2.251 . S
Mg56 O69 2.010 . S
O57 Mg56 2.028 . S
O57 C60 1.250 . S
O58 Mg59 2.028 . S
O58 C60 1.248 . S
Mg59 O58 2.028 . S
Mg59 O64 2.032 . S
Mg59 O66 2.079 . S
C60 O57 1.250 . S
C60 O58 1.248 . S
C61 O62 1.264 . S
C61 O69 1.249 . S
O62 C61 1.264 . S
O63 Mg56 1.986 . S
O63 C67 1.246 . S
O64 Mg59 2.032 . S
O64 C67 1.259 . S
O65 Mg56 2.114 . S
O65 C68 1.252 . S
O66 Mg56 2.251 . S
O66 Mg59 2.079 . S
O66 C68 1.273 . S
C67 O63 1.246 . S
C67 O64 1.259 . S
C68 O65 1.252 . S
C68 O66 1.273 . S
O69 Mg56 2.010 . S
O69 C61 1.249 . S
Mg70 O71 2.028 . S
Mg70 O77 1.986 . S
Mg70 O79 2.114 . S
Mg70 O80 2.251 . S
Mg70 O83 2.010 . S
O71 Mg70 2.028 . S
O71 C74 1.250 . S
O72 Mg73 2.028 . S
O72 C74 1.248 . S
Mg73 O72 2.028 . S
Mg73 O78 2.032 . S
Mg73 O80 2.079 . S
C74 O71 1.250 . S
C74 O72 1.248 . S
C75 O76 1.264 . S
C75 O83 1.249 . S
O76 C75 1.264 . S
O77 Mg70 1.986 . S
O77 C81 1.246 . S
O78 Mg73 2.032 . S
O78 C81 1.259 . S
O79 Mg70 2.114 . S
O79 C82 1.252 . S
O80 Mg70 2.251 . S
O80 Mg73 2.079 . S
O80 C82 1.273 . S
C81 O77 1.246 . S
C81 O78 1.259 . S
C82 O79 1.252 . S
C82 O80 1.273 . S
O83 Mg70 2.010 . S
O83 C75 1.249 . S
Mg84 O85 2.028 . S
Mg84 O91 1.986 1_655 S
Mg84 O93 2.114 . S
Mg84 O94 2.251 . S
Mg84 O97 2.010 . S
O85 Mg84 2.028 . S
O85 C88 1.250 . S
O86 Mg87 2.028 . S
O86 C88 1.248 . S
Mg87 O86 2.028 . S
Mg87 O92 2.032 1_655 S
Mg87 O94 2.079 . S
C88 O85 1.250 . S
C88 O86 1.248 . S
C89 O90 1.264 . S
C89 O97 1.249 . S
O90 C89 1.264 . S
O91 Mg84 1.986 1_455 S
O91 C95 1.246 . S
O92 Mg87 2.032 1_455 S
O92 C95 1.259 . S
O93 Mg84 2.114 . S
O93 C96 1.252 . S
O94 Mg84 2.251 . S
O94 Mg87 2.079 . S
O94 C96 1.273 . S
C95 O91 1.246 . S
C95 O92 1.259 . S
C96 O93 1.252 . S
C96 O94 1.273 . S
O97 Mg84 2.010 . S
O97 C89 1.249 . S
Mg98 O99 2.028 . S
Mg98 O105 1.986 . S
Mg98 O107 2.114 . S
Mg98 O108 2.251 . S
Mg98 O111 2.010 . S
O99 Mg98 2.028 . S
O99 C102 1.250 . S
O100 Mg101 2.028 . S
O100 C102 1.248 . S
Mg101 O100 2.028 . S
Mg101 O106 2.032 . S
Mg101 O108 2.079 . S
C102 O99 1.250 . S
C102 O100 1.248 . S
C103 O104 1.264 . S
C103 O111 1.249 . S
O104 C103 1.264 . S
O105 Mg98 1.986 . S
O105 C109 1.246 . S
O106 Mg101 2.032 . S
O106 C109 1.259 . S
O107 Mg98 2.114 . S
O107 C110 1.252 . S
O108 Mg98 2.251 . S
O108 Mg101 2.079 . S
O108 C110 1.273 . S
C109 O105 1.246 . S
C109 O106 1.259 . S
C110 O107 1.252 . S
C110 O108 1.273 . S
O111 Mg98 2.010 . S
O111 C103 1.249 . S
Mg112 O113 2.028 . S
Mg112 O119 1.986 . S
Mg112 O121 2.114 . S
Mg112 O122 2.251 . S
Mg112 O125 2.010 . S
O113 Mg112 2.028 . S
O113 C116 1.250 . S
O114 Mg115 2.028 . S
O114 C116 1.248 . S
Mg115 O114 2.028 . S
Mg115 O120 2.032 . S
Mg115 O122 2.079 . S
C116 O113 1.250 . S
C116 O114 1.248 . S
C117 O118 1.264 . S
C117 O125 1.249 . S
O118 C117 1.264 . S
O119 Mg112 1.986 . S
O119 C123 1.246 . S
O120 Mg115 2.032 . S
O120 C123 1.259 . S
O121 Mg112 2.114 . S
O121 C124 1.252 . S
O122 Mg112 2.251 . S
O122 Mg115 2.079 . S
O122 C124 1.273 . S
C123 O119 1.246 . S
C123 O120 1.259 . S
C124 O121 1.252 . S
C124 O122 1.273 . S
O125 Mg112 2.010 . S
O125 C117 1.249 . S
Mg126 O127 2.028 . S
Mg126 O133 1.986 . S
Mg126 O135 2.114 . S
Mg126 O136 2.251 . S
Mg126 O139 2.010 . S
O127 Mg126 2.028 . S
O127 C130 1.250 . S
O128 Mg129 2.028 . S
O128 C130 1.248 . S
Mg129 O128 2.028 . S
Mg129 O134 2.032 . S
Mg129 O136 2.079 . S
C130 O127 1.250 . S
C130 O128 1.248 . S
C131 O132 1.264 . S
C131 O139 1.249 . S
O132 C131 1.264 . S
O133 Mg126 1.986 . S
O133 C137 1.246 . S
O134 Mg129 2.032 . S
O134 C137 1.259 . S
O135 Mg126 2.114 . S
O135 C138 1.252 . S
O136 Mg126 2.251 . S
O136 Mg129 2.079 . S
O136 C138 1.273 . S
C137 O133 1.246 . S
C137 O134 1.259 . S
C138 O135 1.252 . S
C138 O136 1.273 . S
O139 Mg126 2.010 . S
O139 C131 1.249 . S
Mg140 O141 2.028 . S
Mg140 O147 1.986 . S
Mg140 O149 2.114 . S
Mg140 O150 2.251 . S
Mg140 O153 2.010 1_455 S
O141 Mg140 2.028 . S
O141 C144 1.250 . S
O142 Mg143 2.028 . S
O142 C144 1.248 . S
Mg143 O142 2.028 . S
Mg143 O148 2.032 . S
Mg143 O150 2.079 . S
C144 O141 1.250 . S
C144 O142 1.248 . S
C145 O146 1.264 . S
C145 O153 1.249 . S
O146 C145 1.264 . S
O147 Mg140 1.986 . S
O147 C151 1.246 . S
O148 Mg143 2.032 . S
O148 C151 1.259 . S
O149 Mg140 2.114 . S
O149 C152 1.252 . S
O150 Mg140 2.251 . S
O150 Mg143 2.079 . S
O150 C152 1.273 . S
C151 O147 1.246 . S
C151 O148 1.259 . S
C152 O149 1.252 . S
C152 O150 1.273 . S
O153 Mg140 2.010 1_655 S
O153 C145 1.249 . S
Mg154 O155 2.028 . S
Mg154 O161 1.986 . S
Mg154 O163 2.114 . S
Mg154 O164 2.251 . S
Mg154 O167 2.010 . S
O155 Mg154 2.028 . S
O155 C158 1.250 . S
O156 Mg157 2.028 . S
O156 C158 1.248 . S
Mg157 O156 2.028 . S
Mg157 O162 2.032 . S
Mg157 O164 2.079 . S
C158 O155 1.250 . S
C158 O156 1.248 . S
C159 O160 1.264 . S
C159 O167 1.249 . S
O160 C159 1.264 . S
O161 Mg154 1.986 . S
O161 C165 1.246 1_545 S
O162 Mg157 2.032 . S
O162 C165 1.259 1_545 S
O163 Mg154 2.114 . S
O163 C166 1.252 . S
O164 Mg154 2.251 . S
O164 Mg157 2.079 . S
O164 C166 1.273 . S
C165 O161 1.246 1_565 S
C165 O162 1.259 1_565 S
C166 O163 1.252 . S
C166 O164 1.273 . S
O167 Mg154 2.010 . S
O167 C159 1.249 . S
Mg168 O169 2.028 . S
Mg168 O175 1.986 . S
Mg168 O177 2.114 . S
Mg168 O178 2.251 . S
Mg168 O181 2.010 . S
O169 Mg168 2.028 . S
O169 C172 1.250 . S
O170 Mg171 2.028 . S
O170 C172 1.248 . S
Mg171 O170 2.028 . S
Mg171 O176 2.032 . S
Mg171 O178 2.079 . S
C172 O169 1.250 . S
C172 O170 1.248 . S
C173 O174 1.264 . S
C173 O181 1.249 . S
O174 C173 1.264 . S
O175 Mg168 1.986 . S
O175 C179 1.246 . S
O176 Mg171 2.032 . S
O176 C179 1.259 . S
O177 Mg168 2.114 . S
O177 C180 1.252 . S
O178 Mg168 2.251 . S
O178 Mg171 2.079 . S
O178 C180 1.273 . S
C179 O175 1.246 . S
C179 O176 1.259 . S
C180 O177 1.252 . S
C180 O178 1.273 . S
O181 Mg168 2.010 . S
O181 C173 1.249 . S
Mg182 O183 2.028 . S
Mg182 O189 1.986 . S
Mg182 O191 2.114 . S
Mg182 O192 2.251 . S
Mg182 O195 2.010 . S
O183 Mg182 2.028 . S
O183 C186 1.250 . S
O184 Mg185 2.028 . S
O184 C186 1.248 . S
Mg185 O184 2.028 . S
Mg185 O190 2.032 . S
Mg185 O192 2.079 . S
C186 O183 1.250 . S
C186 O184 1.248 . S
C187 O188 1.264 . S
C187 O195 1.249 . S
O188 C187 1.264 . S
O189 Mg182 1.986 . S
O189 C193 1.246 . S
O190 Mg185 2.032 . S
O190 C193 1.259 . S
O191 Mg182 2.114 . S
O191 C194 1.252 . S
O192 Mg182 2.251 . S
O192 Mg185 2.079 . S
O192 C194 1.273 . S
C193 O189 1.246 . S
C193 O190 1.259 . S
C194 O191 1.252 . S
C194 O192 1.273 . S
O195 Mg182 2.010 . S
O195 C187 1.249 . S
Mg196 O197 2.028 . S
Mg196 O203 1.986 . S
Mg196 O205 2.114 . S
Mg196 O206 2.251 . S
Mg196 O209 2.010 1_455 S
O197 Mg196 2.028 . S
O197 C200 1.250 . S
O198 Mg199 2.028 . S
O198 C200 1.248 . S
Mg199 O198 2.028 . S
Mg199 O204 2.032 . S
Mg199 O206 2.079 . S
C200 O197 1.250 . S
C200 O198 1.248 . S
C201 O202 1.264 . S
C201 O209 1.249 . S
O202 C201 1.264 . S
O203 Mg196 1.986 . S
O203 C207 1.246 . S
O204 Mg199 2.032 . S
O204 C207 1.259 . S
O205 Mg196 2.114 . S
O205 C208 1.252 . S
O206 Mg196 2.251 . S
O206 Mg199 2.079 . S
O206 C208 1.273 . S
C207 O203 1.246 . S
C207 O204 1.259 . S
C208 O205 1.252 . S
C208 O206 1.273 . S
O209 Mg196 2.010 1_655 S
O209 C201 1.249 . S
Mg210 O211 2.028 . S
Mg210 O217 1.986 . S
Mg210 O219 2.114 . S
Mg210 O220 2.251 . S
Mg210 O223 2.010 . S
O211 Mg210 2.028 . S
O211 C214 1.250 . S
O212 Mg213 2.028 . S
O212 C214 1.248 . S
Mg213 O212 2.028 . S
Mg213 O218 2.032 . S
Mg213 O220 2.079 . S
C214 O211 1.250 . S
C214 O212 1.248 . S
C215 O216 1.264 . S
C215 O223 1.249 . S
O216 C215 1.264 . S
O217 Mg210 1.986 . S
O217 C221 1.246 1_545 S
O218 Mg213 2.032 . S
O218 C221 1.259 1_545 S
O219 Mg210 2.114 . S
O219 C222 1.252 . S
O220 Mg210 2.251 . S
O220 Mg213 2.079 . S
O220 C222 1.273 . S
C221 O217 1.246 1_565 S
C221 O218 1.259 1_565 S
C222 O219 1.252 . S
C222 O220 1.273 . S
O223 Mg210 2.010 . S
O223 C215 1.249 . S
H224 C232 0.929 . S
H225 C234 0.930 . S
H226 C236 0.930 . S
H227 C239 0.929 . S
H228 C242 0.930 . S
H229 C244 0.960 . S
H230 C244 0.960 . S
H231 C244 0.960 . S
C232 H224 0.929 . S
C232 C233 1.377 . S
C232 C234 1.384 . S
C233 C232 1.377 . S
C233 C239 1.390 . S
C234 H225 0.930 . S
C234 C232 1.384 . S
C234 C235 1.372 . S
C235 C234 1.372 . S
C235 C236 1.400 . S
C235 C240 1.490 . S
C236 H226 0.930 . S
C236 C235 1.400 . S
C236 C239 1.386 . S
H237 C253 0.930 . S
H238 C254 0.931 . S
C239 H227 0.929 . S
C239 C233 1.390 . S
C239 C236 1.386 . S
C240 C235 1.490 . S
C240 C242 1.395 . S
C240 C243 1.403 . S
H241 C247 0.930 . S
C242 H228 0.930 . S
C242 C240 1.395 . S
C242 C245 1.403 . S
C243 C240 1.403 . S
C243 C244 1.524 . S
C243 C247 1.400 . S
C244 H229 0.960 . S
C244 H230 0.960 . S
C244 H231 0.960 . S
C244 C243 1.524 . S
C245 C242 1.403 . S
C245 C246 1.392 . S
C245 C249 1.495 . S
C246 C245 1.392 . S
C246 C247 1.385 . S
C246 C248 1.478 . S
C247 H241 0.930 . S
C247 C243 1.400 . S
C247 C246 1.385 . S
C248 C246 1.478 . S
C248 C250 1.381 . S
C248 C254 1.383 . S
C249 C245 1.495 . S
C249 H255 0.959 . S
C249 H256 0.961 . S
C249 H257 0.960 . S
C250 C248 1.381 . S
C250 C251 1.394 . S
C250 H258 0.930 . S
C251 C250 1.394 . S
C251 C252 1.383 . S
C251 H259 0.929 . S
C252 C251 1.383 . S
C252 C253 1.377 . S
C253 H237 0.930 . S
C253 C252 1.377 . S
C253 C254 1.379 . S
C254 H238 0.931 . S
C254 C248 1.383 . S
C254 C253 1.379 . S
H255 C249 0.959 . S
H256 C249 0.961 . S
H257 C249 0.960 . S
H258 C250 0.930 . S
H259 C251 0.929 . S
H260 C268 0.929 . S
H261 C270 0.930 . S
H262 C272 0.930 . S
H263 C275 0.929 . S
H264 C278 0.930 . S
H265 C280 0.960 . S
H266 C280 0.960 . S
H267 C280 0.960 . S
C268 H260 0.929 . S
C268 C269 1.377 . S
C268 C270 1.384 . S
C269 C268 1.377 . S
C269 C275 1.390 . S
C270 H261 0.930 . S
C270 C268 1.384 . S
C270 C271 1.372 . S
C271 C270 1.372 . S
C271 C272 1.400 . S
C271 C276 1.490 . S
C272 H262 0.930 . S
C272 C271 1.400 . S
C272 C275 1.386 . S
H273 C289 0.930 . S
H274 C290 0.931 . S
C275 H263 0.929 . S
C275 C269 1.390 . S
C275 C272 1.386 . S
C276 C271 1.490 . S
C276 C278 1.395 . S
C276 C279 1.403 . S
H277 C283 0.930 . S
C278 H264 0.930 . S
C278 C276 1.395 . S
C278 C281 1.403 . S
C279 C276 1.403 . S
C279 C280 1.524 . S
C279 C283 1.400 . S
C280 H265 0.960 . S
C280 H266 0.960 . S
C280 H267 0.960 . S
C280 C279 1.524 . S
C281 C278 1.403 . S
C281 C282 1.392 . S
C281 C285 1.495 . S
C282 C281 1.392 . S
C282 C283 1.385 . S
C282 C284 1.478 . S
C283 H277 0.930 . S
C283 C279 1.400 . S
C283 C282 1.385 . S
C284 C282 1.478 . S
C284 C286 1.381 . S
C284 C290 1.383 . S
C285 C281 1.495 . S
C285 H291 0.959 . S
C285 H292 0.961 . S
C285 H293 0.960 . S
C286 C284 1.381 . S
C286 C287 1.394 . S
C286 H294 0.930 . S
C287 C286 1.394 . S
C287 C288 1.383 . S
C287 H295 0.929 . S
C288 C287 1.383 . S
C288 C289 1.377 . S
C289 H273 0.930 . S
C289 C288 1.377 . S
C289 C290 1.379 . S
C290 H274 0.931 . S
C290 C284 1.383 . S
C290 C289 1.379 . S
H291 C285 0.959 . S
H292 C285 0.961 . S
H293 C285 0.960 . S
H294 C286 0.930 . S
H295 C287 0.929 . S
H296 C304 0.929 . S
H297 C306 0.930 . S
H298 C308 0.930 . S
H299 C311 0.929 . S
H300 C314 0.930 . S
H301 C316 0.960 . S
H302 C316 0.960 . S
H303 C316 0.960 . S
C304 H296 0.929 . S
C304 C305 1.377 . S
C304 C306 1.384 . S
C305 C304 1.377 . S
C305 C311 1.390 . S
C306 H297 0.930 . S
C306 C304 1.384 . S
C306 C307 1.372 . S
C307 C306 1.372 . S
C307 C308 1.400 . S
C307 C312 1.490 . S
C308 H298 0.930 . S
C308 C307 1.400 . S
C308 C311 1.386 . S
H309 C325 0.930 . S
H310 C326 0.931 . S
C311 H299 0.929 . S
C311 C305 1.390 . S
C311 C308 1.386 . S
C312 C307 1.490 . S
C312 C314 1.395 . S
C312 C315 1.403 . S
H313 C319 0.930 . S
C314 H300 0.930 . S
C314 C312 1.395 . S
C314 C317 1.403 . S
C315 C312 1.403 . S
C315 C316 1.524 . S
C315 C319 1.400 . S
C316 H301 0.960 . S
C316 H302 0.960 . S
C316 H303 0.960 . S
C316 C315 1.524 . S
C317 C314 1.403 . S
C317 C318 1.392 . S
C317 C321 1.495 . S
C318 C317 1.392 . S
C318 C319 1.385 . S
C318 C320 1.478 . S
C319 H313 0.930 . S
C319 C315 1.400 . S
C319 C318 1.385 . S
C320 C318 1.478 . S
C320 C322 1.381 . S
C320 C326 1.383 . S
C321 C317 1.495 . S
C321 H327 0.959 . S
C321 H328 0.961 . S
C321 H329 0.960 . S
C322 C320 1.381 . S
C322 C323 1.394 . S
C322 H330 0.930 . S
C323 C322 1.394 . S
C323 C324 1.383 . S
C323 H331 0.929 . S
C324 C323 1.383 . S
C324 C325 1.377 . S
C325 H309 0.930 . S
C325 C324 1.377 . S
C325 C326 1.379 . S
C326 H310 0.931 . S
C326 C320 1.383 . S
C326 C325 1.379 . S
H327 C321 0.959 . S
H328 C321 0.961 . S
H329 C321 0.960 . S
H330 C322 0.930 . S
H331 C323 0.929 . S
H332 C340 0.929 . S
H333 C342 0.930 . S
H334 C344 0.930 . S
H335 C347 0.929 1_565 S
H336 C350 0.930 . S
H337 C352 0.960 . S
H338 C352 0.960 . S
H339 C352 0.960 . S
C340 H332 0.929 . S
C340 C341 1.377 . S
C340 C342 1.384 . S
C341 C340 1.377 . S
C341 C347 1.390 . S
C342 H333 0.930 . S
C342 C340 1.384 . S
C342 C343 1.372 . S
C343 C342 1.372 . S
C343 C344 1.400 . S
C343 C348 1.490 . S
C344 H334 0.930 . S
C344 C343 1.400 . S
C344 C347 1.386 . S
H345 C361 0.930 . S
H346 C362 0.931 . S
C347 H335 0.929 1_545 S
C347 C341 1.390 . S
C347 C344 1.386 . S
C348 C343 1.490 . S
C348 C350 1.395 . S
C348 C351 1.403 . S
H349 C355 0.930 . S
C350 H336 0.930 . S
C350 C348 1.395 . S
C350 C353 1.403 . S
C351 C348 1.403 . S
C351 C352 1.524 . S
C351 C355 1.400 . S
C352 H337 0.960 . S
C352 H338 0.960 . S
C352 H339 0.960 . S
C352 C351 1.524 . S
C353 C350 1.403 . S
C353 C354 1.392 . S
C353 C357 1.495 . S
C354 C353 1.392 . S
C354 C355 1.385 . S
C354 C356 1.478 . S
C355 H349 0.930 . S
C355 C351 1.400 . S
C355 C354 1.385 . S
C356 C354 1.478 . S
C356 C358 1.381 . S
C356 C362 1.383 . S
C357 C353 1.495 . S
C357 H363 0.959 . S
C357 H364 0.961 . S
C357 H365 0.960 . S
C358 C356 1.381 . S
C358 C359 1.394 . S
C358 H366 0.930 . S
C359 C358 1.394 . S
C359 C360 1.383 . S
C359 H367 0.929 . S
C360 C359 1.383 . S
C360 C361 1.377 . S
C361 H345 0.930 . S
C361 C360 1.377 . S
C361 C362 1.379 . S
C362 H346 0.931 . S
C362 C356 1.383 . S
C362 C361 1.379 . S
H363 C357 0.959 . S
H364 C357 0.961 . S
H365 C357 0.960 . S
H366 C358 0.930 . S
H367 C359 0.929 . S
H368 C376 0.929 . S
H369 C378 0.930 . S
H370 C380 0.930 . S
H371 C383 0.929 . S
H372 C386 0.930 . S
H373 C388 0.960 . S
H374 C388 0.960 . S
H375 C388 0.960 . S
C376 H368 0.929 . S
C376 C377 1.377 . S
C376 C378 1.384 . S
C377 C376 1.377 . S
C377 C383 1.390 . S
C378 H369 0.930 . S
C378 C376 1.384 . S
C378 C379 1.372 . S
C379 C378 1.372 . S
C379 C380 1.400 . S
C379 C384 1.490 . S
C380 H370 0.930 . S
C380 C379 1.400 . S
C380 C383 1.386 . S
H381 C397 0.930 . S
H382 C398 0.931 . S
C383 H371 0.929 . S
C383 C377 1.390 . S
C383 C380 1.386 . S
C384 C379 1.490 . S
C384 C386 1.395 . S
C384 C387 1.403 . S
H385 C391 0.930 . S
C386 H372 0.930 . S
C386 C384 1.395 . S
C386 C389 1.403 . S
C387 C384 1.403 . S
C387 C388 1.524 . S
C387 C391 1.400 . S
C388 H373 0.960 . S
C388 H374 0.960 . S
C388 H375 0.960 . S
C388 C387 1.524 . S
C389 C386 1.403 . S
C389 C390 1.392 . S
C389 C393 1.495 . S
C390 C389 1.392 . S
C390 C391 1.385 . S
C390 C392 1.478 . S
C391 H385 0.930 . S
C391 C387 1.400 . S
C391 C390 1.385 . S
C392 C390 1.478 . S
C392 C394 1.381 . S
C392 C398 1.383 . S
C393 C389 1.495 . S
C393 H399 0.959 . S
C393 H400 0.961 . S
C393 H401 0.960 . S
C394 C392 1.381 . S
C394 C395 1.394 . S
C394 H402 0.930 . S
C395 C394 1.394 . S
C395 C396 1.383 . S
C395 H403 0.929 . S
C396 C395 1.383 . S
C396 C397 1.377 . S
C397 H381 0.930 . S
C397 C396 1.377 . S
C397 C398 1.379 . S
C398 H382 0.931 . S
C398 C392 1.383 . S
C398 C397 1.379 . S
H399 C393 0.959 . S
H400 C393 0.961 . S
H401 C393 0.960 . S
H402 C394 0.930 . S
H403 C395 0.929 . S
H404 C412 0.929 . S
H405 C414 0.930 . S
H406 C416 0.930 . S
H407 C419 0.929 . S
H408 C422 0.930 . S
H409 C424 0.960 . S
H410 C424 0.960 . S
H411 C424 0.960 . S
C412 H404 0.929 . S
C412 C413 1.377 . S
C412 C414 1.384 . S
C413 C412 1.377 . S
C413 C419 1.390 . S
C414 H405 0.930 . S
C414 C412 1.384 . S
C414 C415 1.372 . S
C415 C414 1.372 . S
C415 C416 1.400 . S
C415 C420 1.490 . S
C416 H406 0.930 . S
C416 C415 1.400 . S
C416 C419 1.386 . S
H417 C433 0.930 . S
H418 C434 0.931 . S
C419 H407 0.929 . S
C419 C413 1.390 . S
C419 C416 1.386 . S
C420 C415 1.490 . S
C420 C422 1.395 . S
C420 C423 1.403 . S
H421 C427 0.930 . S
C422 H408 0.930 . S
C422 C420 1.395 . S
C422 C425 1.403 . S
C423 C420 1.403 . S
C423 C424 1.524 . S
C423 C427 1.400 . S
C424 H409 0.960 . S
C424 H410 0.960 . S
C424 H411 0.960 . S
C424 C423 1.524 . S
C425 C422 1.403 . S
C425 C426 1.392 . S
C425 C429 1.495 . S
C426 C425 1.392 . S
C426 C427 1.385 . S
C426 C428 1.478 . S
C427 H421 0.930 . S
C427 C423 1.400 . S
C427 C426 1.385 . S
C428 C426 1.478 . S
C428 C430 1.381 . S
C428 C434 1.383 . S
C429 C425 1.495 . S
C429 H435 0.959 . S
C429 H436 0.961 . S
C429 H437 0.960 . S
C430 C428 1.381 . S
C430 C431 1.394 . S
C430 H438 0.930 . S
C431 C430 1.394 . S
C431 C432 1.383 . S
C431 H439 0.929 . S
C432 C431 1.383 . S
C432 C433 1.377 . S
C433 H417 0.930 . S
C433 C432 1.377 . S
C433 C434 1.379 . S
C434 H418 0.931 . S
C434 C428 1.383 . S
C434 C433 1.379 . S
H435 C429 0.959 . S
H436 C429 0.961 . S
H437 C429 0.960 . S
H438 C430 0.930 . S
H439 C431 0.929 . S
H440 C448 0.929 . S
H441 C450 0.930 . S
H442 C452 0.930 . S
H443 C455 0.929 . S
H444 C458 0.930 . S
H445 C460 0.960 . S
H446 C460 0.960 . S
H447 C460 0.960 . S
C448 H440 0.929 . S
C448 C449 1.377 . S
C448 C450 1.384 . S
C449 C448 1.377 . S
C449 C455 1.390 . S
C450 H441 0.930 . S
C450 C448 1.384 . S
C450 C451 1.372 . S
C451 C450 1.372 . S
C451 C452 1.400 . S
C451 C456 1.490 . S
C452 H442 0.930 . S
C452 C451 1.400 . S
C452 C455 1.386 . S
H453 C469 0.930 . S
H454 C470 0.931 . S
C455 H443 0.929 . S
C455 C449 1.390 . S
C455 C452 1.386 . S
C456 C451 1.490 . S
C456 C458 1.395 . S
C456 C459 1.403 . S
H457 C463 0.930 . S
C458 H444 0.930 . S
C458 C456 1.395 . S
C458 C461 1.403 . S
C459 C456 1.403 . S
C459 C460 1.524 . S
C459 C463 1.400 . S
C460 H445 0.960 . S
C460 H446 0.960 . S
C460 H447 0.960 . S
C460 C459 1.524 . S
C461 C458 1.403 . S
C461 C462 1.392 . S
C461 C465 1.495 . S
C462 C461 1.392 . S
C462 C463 1.385 . S
C462 C464 1.478 . S
C463 H457 0.930 . S
C463 C459 1.400 . S
C463 C462 1.385 . S
C464 C462 1.478 . S
C464 C466 1.381 . S
C464 C470 1.383 . S
C465 C461 1.495 . S
C465 H471 0.959 . S
C465 H472 0.961 . S
C465 H473 0.960 . S
C466 C464 1.381 . S
C466 C467 1.394 . S
C466 H474 0.930 . S
C467 C466 1.394 . S
C467 C468 1.383 . S
C467 H475 0.929 . S
C468 C467 1.383 . S
C468 C469 1.377 . S
C469 H453 0.930 . S
C469 C468 1.377 . S
C469 C470 1.379 . S
C470 H454 0.931 . S
C470 C464 1.383 . S
C470 C469 1.379 . S
H471 C465 0.959 . S
H472 C465 0.961 . S
H473 C465 0.960 . S
H474 C466 0.930 . S
H475 C467 0.929 . S
H476 C484 0.929 . S
H477 C486 0.930 . S
H478 C488 0.930 . S
H479 C491 0.929 . S
H480 C494 0.930 . S
H481 C496 0.960 . S
H482 C496 0.960 . S
H483 C496 0.960 . S
C484 H476 0.929 . S
C484 C485 1.377 . S
C484 C486 1.384 . S
C485 C484 1.377 . S
C485 C491 1.390 . S
C486 H477 0.930 . S
C486 C484 1.384 . S
C486 C487 1.372 . S
C487 C486 1.372 . S
C487 C488 1.400 . S
C487 C492 1.490 . S
C488 H478 0.930 . S
C488 C487 1.400 . S
C488 C491 1.386 . S
H489 C505 0.930 . S
H490 C506 0.931 . S
C491 H479 0.929 . S
C491 C485 1.390 . S
C491 C488 1.386 . S
C492 C487 1.490 . S
C492 C494 1.395 . S
C492 C495 1.403 . S
H493 C499 0.930 . S
C494 H480 0.930 . S
C494 C492 1.395 . S
C494 C497 1.403 . S
C495 C492 1.403 . S
C495 C496 1.524 . S
C495 C499 1.400 . S
C496 H481 0.960 . S
C496 H482 0.960 . S
C496 H483 0.960 . S
C496 C495 1.524 . S
C497 C494 1.403 . S
C497 C498 1.392 . S
C497 C501 1.495 . S
C498 C497 1.392 . S
C498 C499 1.385 . S
C498 C500 1.478 . S
C499 H493 0.930 . S
C499 C495 1.400 . S
C499 C498 1.385 . S
C500 C498 1.478 . S
C500 C502 1.381 . S
C500 C506 1.383 . S
C501 C497 1.495 . S
C501 H507 0.959 . S
C501 H508 0.961 . S
C501 H509 0.960 . S
C502 C500 1.381 . S
C502 C503 1.394 . S
C502 H510 0.930 . S
C503 C502 1.394 . S
C503 C504 1.383 . S
C503 H511 0.929 . S
C504 C503 1.383 . S
C504 C505 1.377 . S
C505 H489 0.930 . S
C505 C504 1.377 . S
C505 C506 1.379 . S
C506 H490 0.931 . S
C506 C500 1.383 . S
C506 C505 1.379 . S
H507 C501 0.959 . S
H508 C501 0.961 . S
H509 C501 0.960 . S
H510 C502 0.930 . S
H511 C503 0.929 . S
H512 C520 0.929 . S
H513 C522 0.930 . S
H514 C524 0.930 . S
H515 C527 0.929 . S
H516 C530 0.930 . S
H517 C532 0.960 . S
H518 C532 0.960 . S
H519 C532 0.960 . S
C520 H512 0.929 . S
C520 C521 1.377 . S
C520 C522 1.384 . S
C521 C520 1.377 . S
C521 C527 1.390 . S
C522 H513 0.930 . S
C522 C520 1.384 . S
C522 C523 1.372 . S
C523 C522 1.372 . S
C523 C524 1.400 . S
C523 C528 1.490 . S
C524 H514 0.930 . S
C524 C523 1.400 . S
C524 C527 1.386 . S
H525 C541 0.930 . S
H526 C542 0.931 . S
C527 H515 0.929 . S
C527 C521 1.390 . S
C527 C524 1.386 . S
C528 C523 1.490 . S
C528 C530 1.395 . S
C528 C531 1.403 . S
H529 C535 0.930 . S
C530 H516 0.930 . S
C530 C528 1.395 . S
C530 C533 1.403 . S
C531 C528 1.403 . S
C531 C532 1.524 . S
C531 C535 1.400 . S
C532 H517 0.960 . S
C532 H518 0.960 . S
C532 H519 0.960 . S
C532 C531 1.524 . S
C533 C530 1.403 . S
C533 C534 1.392 . S
C533 C537 1.495 . S
C534 C533 1.392 . S
C534 C535 1.385 . S
C534 C536 1.478 . S
C535 H529 0.930 . S
C535 C531 1.400 . S
C535 C534 1.385 . S
C536 C534 1.478 . S
C536 C538 1.381 . S
C536 C542 1.383 . S
C537 C533 1.495 . S
C537 H543 0.959 . S
C537 H544 0.961 . S
C537 H545 0.960 . S
C538 C536 1.381 . S
C538 C539 1.394 . S
C538 H546 0.930 . S
C539 C538 1.394 . S
C539 C540 1.383 . S
C539 H547 0.929 . S
C540 C539 1.383 . S
C540 C541 1.377 . S
C541 H525 0.930 . S
C541 C540 1.377 . S
C541 C542 1.379 . S
C542 H526 0.931 . S
C542 C536 1.383 . S
C542 C541 1.379 . S
H543 C537 0.959 . S
H544 C537 0.961 . S
H545 C537 0.960 . S
H546 C538 0.930 . S
H547 C539 0.929 . S
H548 C556 0.929 . S
H549 C558 0.930 . S
H550 C560 0.930 . S
H551 C563 0.929 . S
H552 C566 0.930 . S
H553 C568 0.960 . S
H554 C568 0.960 . S
H555 C568 0.960 . S
C556 H548 0.929 . S
C556 C557 1.377 . S
C556 C558 1.384 . S
C557 C556 1.377 . S
C557 C563 1.390 . S
C558 H549 0.930 . S
C558 C556 1.384 . S
C558 C559 1.372 . S
C559 C558 1.372 . S
C559 C560 1.400 . S
C559 C564 1.490 . S
C560 H550 0.930 . S
C560 C559 1.400 . S
C560 C563 1.386 . S
H561 C577 0.930 . S
H562 C578 0.931 . S
C563 H551 0.929 . S
C563 C557 1.390 . S
C563 C560 1.386 . S
C564 C559 1.490 . S
C564 C566 1.395 . S
C564 C567 1.403 . S
H565 C571 0.930 . S
C566 H552 0.930 . S
C566 C564 1.395 . S
C566 C569 1.403 . S
C567 C564 1.403 . S
C567 C568 1.524 . S
C567 C571 1.400 . S
C568 H553 0.960 . S
C568 H554 0.960 . S
C568 H555 0.960 . S
C568 C567 1.524 . S
C569 C566 1.403 . S
C569 C570 1.392 . S
C569 C573 1.495 . S
C570 C569 1.392 . S
C570 C571 1.385 . S
C570 C572 1.478 . S
C571 H565 0.930 . S
C571 C567 1.400 . S
C571 C570 1.385 . S
C572 C570 1.478 . S
C572 C574 1.381 . S
C572 C578 1.383 . S
C573 C569 1.495 . S
C573 H579 0.959 . S
C573 H580 0.961 . S
C573 H581 0.960 . S
C574 C572 1.381 . S
C574 C575 1.394 . S
C574 H582 0.930 . S
C575 C574 1.394 . S
C575 C576 1.383 . S
C575 H583 0.929 . S
C576 C575 1.383 . S
C576 C577 1.377 . S
C577 H561 0.930 . S
C577 C576 1.377 . S
C577 C578 1.379 . S
C578 H562 0.931 . S
C578 C572 1.383 . S
C578 C577 1.379 . S
H579 C573 0.959 . S
H580 C573 0.961 . S
H581 C573 0.960 . S
H582 C574 0.930 . S
H583 C575 0.929 . S
H584 C592 0.929 . S
H585 C594 0.930 . S
H586 C596 0.930 . S
H587 C599 0.929 . S
H588 C602 0.930 . S
H589 C604 0.960 . S
H590 C604 0.960 . S
H591 C604 0.960 . S
C592 H584 0.929 . S
C592 C593 1.377 . S
C592 C594 1.384 . S
C593 C592 1.377 . S
C593 C599 1.390 . S
C594 H585 0.930 . S
C594 C592 1.384 . S
C594 C595 1.372 . S
C595 C594 1.372 . S
C595 C596 1.400 . S
C595 C600 1.490 . S
C596 H586 0.930 . S
C596 C595 1.400 . S
C596 C599 1.386 . S
H597 C613 0.930 . S
H598 C614 0.931 . S
C599 H587 0.929 . S
C599 C593 1.390 . S
C599 C596 1.386 . S
C600 C595 1.490 . S
C600 C602 1.395 . S
C600 C603 1.403 . S
H601 C607 0.930 . S
C602 H588 0.930 . S
C602 C600 1.395 . S
C602 C605 1.403 . S
C603 C600 1.403 . S
C603 C604 1.524 . S
C603 C607 1.400 . S
C604 H589 0.960 . S
C604 H590 0.960 . S
C604 H591 0.960 . S
C604 C603 1.524 . S
C605 C602 1.403 . S
C605 C606 1.392 . S
C605 C609 1.495 . S
C606 C605 1.392 . S
C606 C607 1.385 . S
C606 C608 1.478 . S
C607 H601 0.930 . S
C607 C603 1.400 . S
C607 C606 1.385 . S
C608 C606 1.478 . S
C608 C610 1.381 . S
C608 C614 1.383 . S
C609 C605 1.495 . S
C609 H615 0.959 . S
C609 H616 0.961 . S
C609 H617 0.960 . S
C610 C608 1.381 . S
C610 C611 1.394 . S
C610 H618 0.930 . S
C611 C610 1.394 . S
C611 C612 1.383 . S
C611 H619 0.929 . S
C612 C611 1.383 . S
C612 C613 1.377 . S
C613 H597 0.930 . S
C613 C612 1.377 . S
C613 C614 1.379 . S
C614 H598 0.931 . S
C614 C608 1.383 . S
C614 C613 1.379 . S
H615 C609 0.959 . S
H616 C609 0.961 . S
H617 C609 0.960 . S
H618 C610 0.930 . S
H619 C611 0.929 . S
H620 C628 0.929 . S
H621 C630 0.930 . S
H622 C632 0.930 . S
H623 C635 0.929 . S
H624 C638 0.930 . S
H625 C640 0.960 . S
H626 C640 0.960 . S
H627 C640 0.960 . S
C628 H620 0.929 . S
C628 C629 1.377 . S
C628 C630 1.384 . S
C629 C628 1.377 . S
C629 C635 1.390 . S
C630 H621 0.930 . S
C630 C628 1.384 . S
C630 C631 1.372 . S
C631 C630 1.372 . S
C631 C632 1.400 . S
C631 C636 1.490 . S
C632 H622 0.930 . S
C632 C631 1.400 . S
C632 C635 1.386 . S
H633 C649 0.930 . S
H634 C650 0.931 . S
C635 H623 0.929 . S
C635 C629 1.390 . S
C635 C632 1.386 . S
C636 C631 1.490 . S
C636 C638 1.395 . S
C636 C639 1.403 . S
H637 C643 0.930 . S
C638 H624 0.930 . S
C638 C636 1.395 . S
C638 C641 1.403 . S
C639 C636 1.403 . S
C639 C640 1.524 . S
C639 C643 1.400 . S
C640 H625 0.960 . S
C640 H626 0.960 . S
C640 H627 0.960 . S
C640 C639 1.524 . S
C641 C638 1.403 . S
C641 C642 1.392 . S
C641 C645 1.495 . S
C642 C641 1.392 . S
C642 C643 1.385 . S
C642 C644 1.478 . S
C643 H637 0.930 . S
C643 C639 1.400 . S
C643 C642 1.385 . S
C644 C642 1.478 . S
C644 C646 1.381 . S
C644 C650 1.383 . S
C645 C641 1.495 . S
C645 H651 0.959 . S
C645 H652 0.961 . S
C645 H653 0.960 . S
C646 C644 1.381 . S
C646 C647 1.394 . S
C646 H654 0.930 . S
C647 C646 1.394 . S
C647 C648 1.383 . S
C647 H655 0.929 . S
C648 C647 1.383 . S
C648 C649 1.377 . S
C649 H633 0.930 . S
C649 C648 1.377 . S
C649 C650 1.379 . S
C650 H634 0.931 . S
C650 C644 1.383 . S
C650 C649 1.379 . S
H651 C645 0.959 . S
H652 C645 0.961 . S
H653 C645 0.960 . S
H654 C646 0.930 . S
H655 C647 0.929 . S
H656 C664 0.929 . S
H657 C666 0.930 . S
H658 C668 0.930 . S
H659 C671 0.929 . S
H660 C674 0.930 . S
H661 C676 0.960 . S
H662 C676 0.960 . S
H663 C676 0.960 . S
C664 H656 0.929 . S
C664 C665 1.377 . S
C664 C666 1.384 . S
C665 C664 1.377 . S
C665 C671 1.390 . S
C666 H657 0.930 . S
C666 C664 1.384 . S
C666 C667 1.372 . S
C667 C666 1.372 . S
C667 C668 1.400 . S
C667 C672 1.490 . S
C668 H658 0.930 . S
C668 C667 1.400 . S
C668 C671 1.386 . S
H669 C685 0.930 . S
H670 C686 0.931 . S
C671 H659 0.929 . S
C671 C665 1.390 . S
C671 C668 1.386 . S
C672 C667 1.490 . S
C672 C674 1.395 . S
C672 C675 1.403 . S
H673 C679 0.930 . S
C674 H660 0.930 . S
C674 C672 1.395 . S
C674 C677 1.403 . S
C675 C672 1.403 . S
C675 C676 1.524 . S
C675 C679 1.400 . S
C676 H661 0.960 . S
C676 H662 0.960 . S
C676 H663 0.960 . S
C676 C675 1.524 . S
C677 C674 1.403 . S
C677 C678 1.392 . S
C677 C681 1.495 . S
C678 C677 1.392 . S
C678 C679 1.385 . S
C678 C680 1.478 . S
C679 H673 0.930 . S
C679 C675 1.400 . S
C679 C678 1.385 . S
C680 C678 1.478 . S
C680 C682 1.381 . S
C680 C686 1.383 . S
C681 C677 1.495 . S
C681 H687 0.959 . S
C681 H688 0.961 . S
C681 H689 0.960 . S
C682 C680 1.381 . S
C682 C683 1.394 . S
C682 H690 0.930 . S
C683 C682 1.394 . S
C683 C684 1.383 . S
C683 H691 0.929 . S
C684 C683 1.383 . S
C684 C685 1.377 . S
C685 H669 0.930 . S
C685 C684 1.377 . S
C685 C686 1.379 . S
C686 H670 0.931 . S
C686 C680 1.383 . S
C686 C685 1.379 . S
H687 C681 0.959 . S
H688 C681 0.961 . S
H689 C681 0.960 . S
H690 C682 0.930 . S
H691 C683 0.929 . S
H692 C700 0.929 . S
H693 C702 0.930 . S
H694 C704 0.930 . S
H695 C707 0.929 . S
H696 C710 0.930 . S
H697 C712 0.960 . S
H698 C712 0.960 . S
H699 C712 0.960 . S
C700 H692 0.929 . S
C700 C701 1.377 . S
C700 C702 1.384 . S
C701 C700 1.377 . S
C701 C707 1.390 . S
C702 H693 0.930 . S
C702 C700 1.384 . S
C702 C703 1.372 . S
C703 C702 1.372 . S
C703 C704 1.400 . S
C703 C708 1.490 . S
C704 H694 0.930 . S
C704 C703 1.400 . S
C704 C707 1.386 . S
H705 C721 0.930 . S
H706 C722 0.931 . S
C707 H695 0.929 . S
C707 C701 1.390 . S
C707 C704 1.386 . S
C708 C703 1.490 . S
C708 C710 1.395 . S
C708 C711 1.403 . S
H709 C715 0.930 . S
C710 H696 0.930 . S
C710 C708 1.395 . S
C710 C713 1.403 . S
C711 C708 1.403 . S
C711 C712 1.524 . S
C711 C715 1.400 . S
C712 H697 0.960 . S
C712 H698 0.960 . S
C712 H699 0.960 . S
C712 C711 1.524 . S
C713 C710 1.403 . S
C713 C714 1.392 . S
C713 C717 1.495 . S
C714 C713 1.392 . S
C714 C715 1.385 . S
C714 C716 1.478 . S
C715 H709 0.930 . S
C715 C711 1.400 . S
C715 C714 1.385 . S
C716 C714 1.478 . S
C716 C718 1.381 . S
C716 C722 1.383 . S
C717 C713 1.495 . S
C717 H723 0.959 . S
C717 H724 0.961 . S
C717 H725 0.960 . S
C718 C716 1.381 . S
C718 C719 1.394 . S
C718 H726 0.930 . S
C719 C718 1.394 . S
C719 C720 1.383 . S
C719 H727 0.929 . S
C720 C719 1.383 . S
C720 C721 1.377 . S
C721 H705 0.930 . S
C721 C720 1.377 . S
C721 C722 1.379 . S
C722 H706 0.931 . S
C722 C716 1.383 . S
C722 C721 1.379 . S
H723 C717 0.959 . S
H724 C717 0.961 . S
H725 C717 0.960 . S
H726 C718 0.930 . S
H727 C719 0.929 . S
H728 C736 0.929 . S
H729 C738 0.930 . S
H730 C740 0.930 . S
H731 C743 0.929 . S
H732 C746 0.930 . S
H733 C748 0.960 . S
H734 C748 0.960 . S
H735 C748 0.960 . S
C736 H728 0.929 . S
C736 C737 1.377 . S
C736 C738 1.384 . S
C737 C736 1.377 . S
C737 C743 1.390 . S
C738 H729 0.930 . S
C738 C736 1.384 . S
C738 C739 1.372 . S
C739 C738 1.372 . S
C739 C740 1.400 . S
C739 C744 1.490 . S
C740 H730 0.930 . S
C740 C739 1.400 . S
C740 C743 1.386 . S
H741 C757 0.930 . S
H742 C758 0.931 . S
C743 H731 0.929 . S
C743 C737 1.390 . S
C743 C740 1.386 . S
C744 C739 1.490 . S
C744 C746 1.395 . S
C744 C747 1.403 . S
H745 C751 0.930 . S
C746 H732 0.930 . S
C746 C744 1.395 . S
C746 C749 1.403 . S
C747 C744 1.403 . S
C747 C748 1.524 . S
C747 C751 1.400 . S
C748 H733 0.960 . S
C748 H734 0.960 . S
C748 H735 0.960 . S
C748 C747 1.524 . S
C749 C746 1.403 . S
C749 C750 1.392 . S
C749 C753 1.495 . S
C750 C749 1.392 . S
C750 C751 1.385 . S
C750 C752 1.478 . S
C751 H745 0.930 . S
C751 C747 1.400 . S
C751 C750 1.385 . S
C752 C750 1.478 . S
C752 C754 1.381 . S
C752 C758 1.383 . S
C753 C749 1.495 . S
C753 H759 0.959 . S
C753 H760 0.961 . S
C753 H761 0.960 . S
C754 C752 1.381 . S
C754 C755 1.394 . S
C754 H762 0.930 . S
C755 C754 1.394 . S
C755 C756 1.383 . S
C755 H763 0.929 . S
C756 C755 1.383 . S
C756 C757 1.377 . S
C757 H741 0.930 . S
C757 C756 1.377 . S
C757 C758 1.379 . S
C758 H742 0.931 . S
C758 C752 1.383 . S
C758 C757 1.379 . S
H759 C753 0.959 . S
H760 C753 0.961 . S
H761 C753 0.960 . S
H762 C754 0.930 . S
H763 C755 0.929 . S
H764 C772 0.929 . S
H765 C774 0.930 . S
H766 C776 0.930 . S
H767 C779 0.929 . S
H768 C782 0.930 . S
H769 C784 0.960 . S
H770 C784 0.960 . S
H771 C784 0.960 . S
C772 H764 0.929 . S
C772 C773 1.377 . S
C772 C774 1.384 . S
C773 C772 1.377 . S
C773 C779 1.390 . S
C774 H765 0.930 . S
C774 C772 1.384 . S
C774 C775 1.372 . S
C775 C774 1.372 . S
C775 C776 1.400 . S
C775 C780 1.490 . S
C776 H766 0.930 . S
C776 C775 1.400 . S
C776 C779 1.386 . S
H777 C793 0.930 . S
H778 C794 0.931 . S
C779 H767 0.929 . S
C779 C773 1.390 . S
C779 C776 1.386 . S
C780 C775 1.490 . S
C780 C782 1.395 . S
C780 C783 1.403 . S
H781 C787 0.930 . S
C782 H768 0.930 . S
C782 C780 1.395 . S
C782 C785 1.403 . S
C783 C780 1.403 . S
C783 C784 1.524 . S
C783 C787 1.400 . S
C784 H769 0.960 . S
C784 H770 0.960 . S
C784 H771 0.960 . S
C784 C783 1.524 . S
C785 C782 1.403 . S
C785 C786 1.392 . S
C785 C789 1.495 . S
C786 C785 1.392 . S
C786 C787 1.385 . S
C786 C788 1.478 . S
C787 H781 0.930 . S
C787 C783 1.400 . S
C787 C786 1.385 . S
C788 C786 1.478 . S
C788 C790 1.381 . S
C788 C794 1.383 . S
C789 C785 1.495 . S
C789 H795 0.959 . S
C789 H796 0.961 . S
C789 H797 0.960 . S
C790 C788 1.381 . S
C790 C791 1.394 . S
C790 H798 0.930 . S
C791 C790 1.394 . S
C791 C792 1.383 . S
C791 H799 0.929 . S
C792 C791 1.383 . S
C792 C793 1.377 . S
C793 H777 0.930 . S
C793 C792 1.377 . S
C793 C794 1.379 . S
C794 H778 0.931 . S
C794 C788 1.383 . S
C794 C793 1.379 . S
H795 C789 0.959 . S
H796 C789 0.961 . S
H797 C789 0.960 . S
H798 C790 0.930 . S
H799 C791 0.929 . S
H800 C808 0.929 . S
H801 C810 0.930 . S
H802 C812 0.930 . S
H803 C815 0.929 . S
H804 C818 0.930 . S
H805 C820 0.960 . S
H806 C820 0.960 . S
H807 C820 0.960 . S
C808 H800 0.929 . S
C808 C809 1.377 . S
C808 C810 1.384 . S
C809 C808 1.377 . S
C809 C815 1.390 . S
C810 H801 0.930 . S
C810 C808 1.384 . S
C810 C811 1.372 . S
C811 C810 1.372 . S
C811 C812 1.400 . S
C811 C816 1.490 . S
C812 H802 0.930 . S
C812 C811 1.400 . S
C812 C815 1.386 . S
H813 C829 0.930 . S
H814 C830 0.931 . S
C815 H803 0.929 . S
C815 C809 1.390 . S
C815 C812 1.386 . S
C816 C811 1.490 . S
C816 C818 1.395 . S
C816 C819 1.403 . S
H817 C823 0.930 . S
C818 H804 0.930 . S
C818 C816 1.395 . S
C818 C821 1.403 . S
C819 C816 1.403 . S
C819 C820 1.524 . S
C819 C823 1.400 . S
C820 H805 0.960 . S
C820 H806 0.960 . S
C820 H807 0.960 . S
C820 C819 1.524 . S
C821 C818 1.403 . S
C821 C822 1.392 . S
C821 C825 1.495 . S
C822 C821 1.392 . S
C822 C823 1.385 . S
C822 C824 1.478 . S
C823 H817 0.930 . S
C823 C819 1.400 . S
C823 C822 1.385 . S
C824 C822 1.478 . S
C824 C826 1.381 . S
C824 C830 1.383 . S
C825 C821 1.495 . S
C825 H831 0.959 . S
C825 H832 0.961 . S
C825 H833 0.960 . S
C826 C824 1.381 . S
C826 C827 1.394 . S
C826 H834 0.930 . S
C827 C826 1.394 . S
C827 C828 1.383 . S
C827 H835 0.929 . S
C828 C827 1.383 . S
C828 C829 1.377 . S
C829 H813 0.930 . S
C829 C828 1.377 . S
C829 C830 1.379 . S
C830 H814 0.931 . S
C830 C824 1.383 . S
C830 C829 1.379 . S
H831 C825 0.959 . S
H832 C825 0.961 . S
H833 C825 0.960 . S
H834 C826 0.930 . S
H835 C827 0.929 . S
H836 C844 0.929 . S
H837 C846 0.930 . S
H838 C848 0.930 . S
H839 C851 0.929 . S
H840 C854 0.930 . S
H841 C856 0.960 . S
H842 C856 0.960 . S
H843 C856 0.960 . S
C844 H836 0.929 . S
C844 C845 1.377 . S
C844 C846 1.384 . S
C845 C844 1.377 . S
C845 C851 1.390 . S
C846 H837 0.930 . S
C846 C844 1.384 . S
C846 C847 1.372 . S
C847 C846 1.372 . S
C847 C848 1.400 . S
C847 C852 1.490 . S
C848 H838 0.930 . S
C848 C847 1.400 . S
C848 C851 1.386 . S
H849 C865 0.930 . S
H850 C866 0.931 . S
C851 H839 0.929 . S
C851 C845 1.390 . S
C851 C848 1.386 . S
C852 C847 1.490 . S
C852 C854 1.395 . S
C852 C855 1.403 . S
H853 C859 0.930 . S
C854 H840 0.930 . S
C854 C852 1.395 . S
C854 C857 1.403 . S
C855 C852 1.403 . S
C855 C856 1.524 . S
C855 C859 1.400 . S
C856 H841 0.960 . S
C856 H842 0.960 . S
C856 H843 0.960 . S
C856 C855 1.524 . S
C857 C854 1.403 . S
C857 C858 1.392 . S
C857 C861 1.495 . S
C858 C857 1.392 . S
C858 C859 1.385 . S
C858 C860 1.478 . S
C859 H853 0.930 . S
C859 C855 1.400 . S
C859 C858 1.385 . S
C860 C858 1.478 . S
C860 C862 1.381 . S
C860 C866 1.383 . S
C861 C857 1.495 . S
C861 H867 0.959 . S
C861 H868 0.961 . S
C861 H869 0.960 . S
C862 C860 1.381 . S
C862 C863 1.394 . S
C862 H870 0.930 . S
C863 C862 1.394 . S
C863 C864 1.383 . S
C863 H871 0.929 . S
C864 C863 1.383 . S
C864 C865 1.377 . S
C865 H849 0.930 . S
C865 C864 1.377 . S
C865 C866 1.379 . S
C866 H850 0.931 . S
C866 C860 1.383 . S
C866 C865 1.379 . S
H867 C861 0.959 . S
H868 C861 0.961 . S
H869 C861 0.960 . S
H870 C862 0.930 . S
H871 C863 0.929 . S
H872 C880 0.929 . S
H873 C882 0.930 . S
H874 C884 0.930 . S
H875 C887 0.929 . S
H876 C890 0.930 . S
H877 C892 0.960 . S
H878 C892 0.960 . S
H879 C892 0.960 . S
C880 H872 0.929 . S
C880 C881 1.377 . S
C880 C882 1.384 . S
C881 C880 1.377 . S
C881 C887 1.390 . S
C882 H873 0.930 . S
C882 C880 1.384 . S
C882 C883 1.372 . S
C883 C882 1.372 . S
C883 C884 1.400 . S
C883 C888 1.490 . S
C884 H874 0.930 . S
C884 C883 1.400 . S
C884 C887 1.386 . S
H885 C901 0.930 . S
H886 C902 0.931 . S
C887 H875 0.929 . S
C887 C881 1.390 . S
C887 C884 1.386 . S
C888 C883 1.490 . S
C888 C890 1.395 . S
C888 C891 1.403 . S
H889 C895 0.930 . S
C890 H876 0.930 . S
C890 C888 1.395 . S
C890 C893 1.403 . S
C891 C888 1.403 . S
C891 C892 1.524 . S
C891 C895 1.400 . S
C892 H877 0.960 . S
C892 H878 0.960 . S
C892 H879 0.960 . S
C892 C891 1.524 . S
C893 C890 1.403 . S
C893 C894 1.392 . S
C893 C897 1.495 . S
C894 C893 1.392 . S
C894 C895 1.385 . S
C894 C896 1.478 . S
C895 H889 0.930 . S
C895 C891 1.400 . S
C895 C894 1.385 . S
C896 C894 1.478 . S
C896 C898 1.381 . S
C896 C902 1.383 . S
C897 C893 1.495 . S
C897 H903 0.959 . S
C897 H904 0.961 . S
C897 H905 0.960 . S
C898 C896 1.381 . S
C898 C899 1.394 . S
C898 H906 0.930 . S
C899 C898 1.394 . S
C899 C900 1.383 . S
C899 H907 0.929 . S
C900 C899 1.383 . S
C900 C901 1.377 . S
C901 H885 0.930 . S
C901 C900 1.377 . S
C901 C902 1.379 . S
C902 H886 0.931 . S
C902 C896 1.383 . S
C902 C901 1.379 . S
H903 C897 0.959 . S
H904 C897 0.961 . S
H905 C897 0.960 . S
H906 C898 0.930 . S
H907 C899 0.929 . S
H908 C916 0.929 . S
H909 C918 0.930 . S
H910 C920 0.930 . S
H911 C923 0.929 . S
H912 C926 0.930 . S
H913 C928 0.960 . S
H914 C928 0.960 . S
H915 C928 0.960 . S
C916 H908 0.929 . S
C916 C917 1.377 . S
C916 C918 1.384 . S
C917 C916 1.377 . S
C917 C923 1.390 . S
C918 H909 0.930 . S
C918 C916 1.384 . S
C918 C919 1.372 . S
C919 C918 1.372 . S
C919 C920 1.400 . S
C919 C924 1.490 . S
C920 H910 0.930 . S
C920 C919 1.400 . S
C920 C923 1.386 . S
H921 C937 0.930 . S
H922 C938 0.931 . S
C923 H911 0.929 . S
C923 C917 1.390 . S
C923 C920 1.386 . S
C924 C919 1.490 . S
C924 C926 1.395 . S
C924 C927 1.403 . S
H925 C931 0.930 . S
C926 H912 0.930 . S
C926 C924 1.395 . S
C926 C929 1.403 . S
C927 C924 1.403 . S
C927 C928 1.524 . S
C927 C931 1.400 . S
C928 H913 0.960 . S
C928 H914 0.960 . S
C928 H915 0.960 . S
C928 C927 1.524 . S
C929 C926 1.403 . S
C929 C930 1.392 . S
C929 C933 1.495 . S
C930 C929 1.392 . S
C930 C931 1.385 . S
C930 C932 1.478 . S
C931 H925 0.930 . S
C931 C927 1.400 . S
C931 C930 1.385 . S
C932 C930 1.478 . S
C932 C934 1.381 . S
C932 C938 1.383 . S
C933 C929 1.495 . S
C933 H939 0.959 . S
C933 H940 0.961 . S
C933 H941 0.960 . S
C934 C932 1.381 . S
C934 C935 1.394 . S
C934 H942 0.930 . S
C935 C934 1.394 . S
C935 C936 1.383 . S
C935 H943 0.929 . S
C936 C935 1.383 . S
C936 C937 1.377 . S
C937 H921 0.930 . S
C937 C936 1.377 . S
C937 C938 1.379 . S
C938 H922 0.931 . S
C938 C932 1.383 . S
C938 C937 1.379 . S
H939 C933 0.959 . S
H940 C933 0.961 . S
H941 C933 0.960 . S
H942 C934 0.930 . S
H943 C935 0.929 . S
H944 C952 0.929 . S
H945 C954 0.930 . S
H946 C956 0.930 . S
H947 C959 0.929 . S
H948 C962 0.930 . S
H949 C964 0.960 . S
H950 C964 0.960 . S
H951 C964 0.960 . S
C952 H944 0.929 . S
C952 C953 1.377 . S
C952 C954 1.384 . S
C953 C952 1.377 . S
C953 C959 1.390 . S
C954 H945 0.930 . S
C954 C952 1.384 . S
C954 C955 1.372 . S
C955 C954 1.372 . S
C955 C956 1.400 . S
C955 C960 1.490 . S
C956 H946 0.930 . S
C956 C955 1.400 . S
C956 C959 1.386 . S
H957 C973 0.930 . S
H958 C974 0.931 . S
C959 H947 0.929 . S
C959 C953 1.390 . S
C959 C956 1.386 . S
C960 C955 1.490 . S
C960 C962 1.395 . S
C960 C963 1.403 . S
H961 C967 0.930 . S
C962 H948 0.930 . S
C962 C960 1.395 . S
C962 C965 1.403 . S
C963 C960 1.403 . S
C963 C964 1.524 . S
C963 C967 1.400 . S
C964 H949 0.960 . S
C964 H950 0.960 . S
C964 H951 0.960 . S
C964 C963 1.524 . S
C965 C962 1.403 . S
C965 C966 1.392 . S
C965 C969 1.495 . S
C966 C965 1.392 . S
C966 C967 1.385 . S
C966 C968 1.478 . S
C967 H961 0.930 . S
C967 C963 1.400 . S
C967 C966 1.385 . S
C968 C966 1.478 . S
C968 C970 1.381 . S
C968 C974 1.383 . S
C969 C965 1.495 . S
C969 H975 0.959 . S
C969 H976 0.961 . S
C969 H977 0.960 . S
C970 C968 1.381 . S
C970 C971 1.394 . S
C970 H978 0.930 . S
C971 C970 1.394 . S
C971 C972 1.383 . S
C971 H979 0.929 . S
C972 C971 1.383 . S
C972 C973 1.377 . S
C973 H957 0.930 . S
C973 C972 1.377 . S
C973 C974 1.379 . S
C974 H958 0.931 . S
C974 C968 1.383 . S
C974 C973 1.379 . S
H975 C969 0.959 . S
H976 C969 0.961 . S
H977 C969 0.960 . S
H978 C970 0.930 . S
H979 C971 0.929 . S
H980 C988 0.929 . S
H981 C990 0.930 . S
H982 C992 0.930 . S
H983 C995 0.929 . S
H984 C998 0.930 . S
H985 C1000 0.960 . S
H986 C1000 0.960 . S
H987 C1000 0.960 . S
C988 H980 0.929 . S
C988 C989 1.377 . S
C988 C990 1.384 . S
C989 C988 1.377 . S
C989 C995 1.390 . S
C990 H981 0.930 . S
C990 C988 1.384 . S
C990 C991 1.372 . S
C991 C990 1.372 . S
C991 C992 1.400 . S
C991 C996 1.490 . S
C992 H982 0.930 . S
C992 C991 1.400 . S
C992 C995 1.386 . S
H993 C1009 0.930 . S
H994 C1010 0.931 . S
C995 H983 0.929 . S
C995 C989 1.390 . S
C995 C992 1.386 . S
C996 C991 1.490 . S
C996 C998 1.395 . S
C996 C999 1.403 . S
H997 C1003 0.930 . S
C998 H984 0.930 . S
C998 C996 1.395 . S
C998 C1001 1.403 . S
C999 C996 1.403 . S
C999 C1000 1.524 . S
C999 C1003 1.400 . S
C1000 H985 0.960 . S
C1000 H986 0.960 . S
C1000 H987 0.960 . S
C1000 C999 1.524 . S
C1001 C998 1.403 . S
C1001 C1002 1.392 . S
C1001 C1005 1.495 . S
C1002 C1001 1.392 . S
C1002 C1003 1.385 . S
C1002 C1004 1.478 . S
C1003 H997 0.930 . S
C1003 C999 1.400 . S
C1003 C1002 1.385 . S
C1004 C1002 1.478 . S
C1004 C1006 1.381 . S
C1004 C1010 1.383 . S
C1005 C1001 1.495 . S
C1005 H1011 0.959 . S
C1005 H1012 0.961 . S
C1005 H1013 0.960 . S
C1006 C1004 1.381 . S
C1006 C1007 1.394 . S
C1006 H1014 0.930 . S
C1007 C1006 1.394 . S
C1007 C1008 1.383 . S
C1007 H1015 0.929 . S
C1008 C1007 1.383 . S
C1008 C1009 1.377 . S
C1009 H993 0.930 . S
C1009 C1008 1.377 . S
C1009 C1010 1.379 . S
C1010 H994 0.931 . S
C1010 C1004 1.383 . S
C1010 C1009 1.379 . S
H1011 C1005 0.959 . S
H1012 C1005 0.961 . S
H1013 C1005 0.960 . S
H1014 C1006 0.930 . S
H1015 C1007 0.929 . S
H1016 C1024 0.929 . S
H1017 C1026 0.930 . S
H1018 C1028 0.930 . S
H1019 C1031 0.929 . S
H1020 C1034 0.930 . S
H1021 C1036 0.960 . S
H1022 C1036 0.960 . S
H1023 C1036 0.960 . S
C1024 H1016 0.929 . S
C1024 C1025 1.377 . S
C1024 C1026 1.384 . S
C1025 C1024 1.377 . S
C1025 C1031 1.390 . S
C1026 H1017 0.930 . S
C1026 C1024 1.384 . S
C1026 C1027 1.372 . S
C1027 C1026 1.372 . S
C1027 C1028 1.400 . S
C1027 C1032 1.490 . S
C1028 H1018 0.930 . S
C1028 C1027 1.400 . S
C1028 C1031 1.386 . S
H1029 C1045 0.930 . S
H1030 C1046 0.931 . S
C1031 H1019 0.929 . S
C1031 C1025 1.390 . S
C1031 C1028 1.386 . S
C1032 C1027 1.490 . S
C1032 C1034 1.395 . S
C1032 C1035 1.403 . S
H1033 C1039 0.930 . S
C1034 H1020 0.930 . S
C1034 C1032 1.395 . S
C1034 C1037 1.403 . S
C1035 C1032 1.403 . S
C1035 C1036 1.524 . S
C1035 C1039 1.400 . S
C1036 H1021 0.960 . S
C1036 H1022 0.960 . S
C1036 H1023 0.960 . S
C1036 C1035 1.524 . S
C1037 C1034 1.403 . S
C1037 C1038 1.392 . S
C1037 C1041 1.495 . S
C1038 C1037 1.392 . S
C1038 C1039 1.385 . S
C1038 C1040 1.478 . S
C1039 H1033 0.930 . S
C1039 C1035 1.400 . S
C1039 C1038 1.385 . S
C1040 C1038 1.478 . S
C1040 C1042 1.381 . S
C1040 C1046 1.383 . S
C1041 C1037 1.495 . S
C1041 H1047 0.959 . S
C1041 H1048 0.961 . S
C1041 H1049 0.960 . S
C1042 C1040 1.381 . S
C1042 C1043 1.394 . S
C1042 H1050 0.930 . S
C1043 C1042 1.394 . S
C1043 C1044 1.383 . S
C1043 H1051 0.929 . S
C1044 C1043 1.383 . S
C1044 C1045 1.377 . S
C1045 H1029 0.930 . S
C1045 C1044 1.377 . S
C1045 C1046 1.379 . S
C1046 H1030 0.931 . S
C1046 C1040 1.383 . S
C1046 C1045 1.379 . S
H1047 C1041 0.959 . S
H1048 C1041 0.961 . S
H1049 C1041 0.960 . S
H1050 C1042 0.930 . S
H1051 C1043 0.929 . S
H1052 C1060 0.929 . S
H1053 C1062 0.930 . S
H1054 C1064 0.930 . S
H1055 C1067 0.929 . S
H1056 C1070 0.930 . S
H1057 C1072 0.960 . S
H1058 C1072 0.960 . S
H1059 C1072 0.960 . S
C1060 H1052 0.929 . S
C1060 C1061 1.377 . S
C1060 C1062 1.384 . S
C1061 C1060 1.377 . S
C1061 C1067 1.390 . S
C1062 H1053 0.930 . S
C1062 C1060 1.384 . S
C1062 C1063 1.372 . S
C1063 C1062 1.372 . S
C1063 C1064 1.400 . S
C1063 C1068 1.490 . S
C1064 H1054 0.930 . S
C1064 C1063 1.400 . S
C1064 C1067 1.386 . S
H1065 C1081 0.930 . S
H1066 C1082 0.931 . S
C1067 H1055 0.929 . S
C1067 C1061 1.390 . S
C1067 C1064 1.386 . S
C1068 C1063 1.490 . S
C1068 C1070 1.395 . S
C1068 C1071 1.403 . S
H1069 C1075 0.930 . S
C1070 H1056 0.930 . S
C1070 C1068 1.395 . S
C1070 C1073 1.403 . S
C1071 C1068 1.403 . S
C1071 C1072 1.524 . S
C1071 C1075 1.400 . S
C1072 H1057 0.960 . S
C1072 H1058 0.960 . S
C1072 H1059 0.960 . S
C1072 C1071 1.524 . S
C1073 C1070 1.403 . S
C1073 C1074 1.392 . S
C1073 C1077 1.495 . S
C1074 C1073 1.392 . S
C1074 C1075 1.385 . S
C1074 C1076 1.478 . S
C1075 H1069 0.930 . S
C1075 C1071 1.400 . S
C1075 C1074 1.385 . S
C1076 C1074 1.478 . S
C1076 C1078 1.381 . S
C1076 C1082 1.383 . S
C1077 C1073 1.495 . S
C1077 H1083 0.959 . S
C1077 H1084 0.961 . S
C1077 H1085 0.960 . S
C1078 C1076 1.381 . S
C1078 C1079 1.394 . S
C1078 H1086 0.930 . S
C1079 C1078 1.394 . S
C1079 C1080 1.383 . S
C1079 H1087 0.929 . S
C1080 C1079 1.383 . S
C1080 C1081 1.377 . S
C1081 H1065 0.930 . S
C1081 C1080 1.377 . S
C1081 C1082 1.379 . S
C1082 H1066 0.931 . S
C1082 C1076 1.383 . S
C1082 C1081 1.379 . S
H1083 C1077 0.959 . S
H1084 C1077 0.961 . S
H1085 C1077 0.960 . S
H1086 C1078 0.930 . S
H1087 C1079 0.929 . S
H1088 C1096 0.929 . S
H1089 C1098 0.930 . S
H1090 C1100 0.930 . S
H1091 C1103 0.929 . S
H1092 C1106 0.930 . S
H1093 C1108 0.960 1_556 S
H1094 C1108 0.960 . S
H1095 C1108 0.960 . S
C1096 H1088 0.929 . S
C1096 C1097 1.377 . S
C1096 C1098 1.384 . S
C1097 C1096 1.377 . S
C1097 C1103 1.390 . S
C1098 H1089 0.930 . S
C1098 C1096 1.384 . S
C1098 C1099 1.372 . S
C1099 C1098 1.372 . S
C1099 C1100 1.400 . S
C1099 C1104 1.490 . S
C1100 H1090 0.930 . S
C1100 C1099 1.400 . S
C1100 C1103 1.386 . S
H1101 C1117 0.930 . S
H1102 C1118 0.931 . S
C1103 H1091 0.929 . S
C1103 C1097 1.390 . S
C1103 C1100 1.386 . S
C1104 C1099 1.490 . S
C1104 C1106 1.395 . S
C1104 C1107 1.403 . S
H1105 C1111 0.930 . S
C1106 H1092 0.930 . S
C1106 C1104 1.395 . S
C1106 C1109 1.403 1_554 S
C1107 C1104 1.403 . S
C1107 C1108 1.524 . S
C1107 C1111 1.400 1_554 S
C1108 H1093 0.960 1_554 S
C1108 H1094 0.960 . S
C1108 H1095 0.960 . S
C1108 C1107 1.524 . S
C1109 C1106 1.403 1_556 S
C1109 C1110 1.392 . S
C1109 C1113 1.495 . S
C1110 C1109 1.392 . S
C1110 C1111 1.385 . S
C1110 C1112 1.478 . S
C1111 H1105 0.930 . S
C1111 C1107 1.400 1_556 S
C1111 C1110 1.385 . S
C1112 C1110 1.478 . S
C1112 C1114 1.381 . S
C1112 C1118 1.383 . S
C1113 C1109 1.495 . S
C1113 H1119 0.959 1_556 S
C1113 H1120 0.961 . S
C1113 H1121 0.960 . S
C1114 C1112 1.381 . S
C1114 C1115 1.394 . S
C1114 H1122 0.930 . S
C1115 C1114 1.394 . S
C1115 C1116 1.383 . S
C1115 H1123 0.929 . S
C1116 C1115 1.383 . S
C1116 C1117 1.377 . S
C1117 H1101 0.930 . S
C1117 C1116 1.377 . S
C1117 C1118 1.379 . S
C1118 H1102 0.931 . S
C1118 C1112 1.383 . S
C1118 C1117 1.379 . S
H1119 C1113 0.959 1_554 S
H1120 C1113 0.961 . S
H1121 C1113 0.960 . S
H1122 C1114 0.930 . S
H1123 C1115 0.929 . S
H1124 C1132 0.929 . S
H1125 C1134 0.930 . S
H1126 C1136 0.930 . S
H1127 C1139 0.929 . S
H1128 C1142 0.930 . S
H1129 C1144 0.960 . S
H1130 C1144 0.960 . S
H1131 C1144 0.960 . S
C1132 H1124 0.929 . S
C1132 C1133 1.377 . S
C1132 C1134 1.384 . S
C1133 C1132 1.377 . S
C1133 C1139 1.390 . S
C1134 H1125 0.930 . S
C1134 C1132 1.384 . S
C1134 C1135 1.372 . S
C1135 C1134 1.372 . S
C1135 C1136 1.400 . S
C1135 C1140 1.490 . S
C1136 H1126 0.930 . S
C1136 C1135 1.400 . S
C1136 C1139 1.386 . S
H1137 C1153 0.930 . S
H1138 C1154 0.931 . S
C1139 H1127 0.929 . S
C1139 C1133 1.390 . S
C1139 C1136 1.386 . S
C1140 C1135 1.490 . S
C1140 C1142 1.395 . S
C1140 C1143 1.403 . S
H1141 C1147 0.930 . S
C1142 H1128 0.930 . S
C1142 C1140 1.395 . S
C1142 C1145 1.403 . S
C1143 C1140 1.403 . S
C1143 C1144 1.524 . S
C1143 C1147 1.400 . S
C1144 H1129 0.960 . S
C1144 H1130 0.960 . S
C1144 H1131 0.960 . S
C1144 C1143 1.524 . S
C1145 C1142 1.403 . S
C1145 C1146 1.392 . S
C1145 C1149 1.495 . S
C1146 C1145 1.392 . S
C1146 C1147 1.385 . S
C1146 C1148 1.478 . S
C1147 H1141 0.930 . S
C1147 C1143 1.400 . S
C1147 C1146 1.385 . S
C1148 C1146 1.478 . S
C1148 C1150 1.381 . S
C1148 C1154 1.383 . S
C1149 C1145 1.495 . S
C1149 H1155 0.959 . S
C1149 H1156 0.961 . S
C1149 H1157 0.960 . S
C1150 C1148 1.381 . S
C1150 C1151 1.394 . S
C1150 H1158 0.930 . S
C1151 C1150 1.394 . S
C1151 C1152 1.383 . S
C1151 H1159 0.929 . S
C1152 C1151 1.383 . S
C1152 C1153 1.377 . S
C1153 H1137 0.930 . S
C1153 C1152 1.377 . S
C1153 C1154 1.379 . S
C1154 H1138 0.931 . S
C1154 C1148 1.383 . S
C1154 C1153 1.379 . S
H1155 C1149 0.959 . S
H1156 C1149 0.961 . S
H1157 C1149 0.960 . S
H1158 C1150 0.930 . S
H1159 C1151 0.929 . S
H1160 C1168 0.936 . S
H1161 C1170 0.916 1_455 S
H1162 C1172 0.930 . S
H1163 C1175 0.929 . S
H1164 C1178 0.930 . S
H1165 C1180 0.960 . S
H1166 C1180 0.960 . S
H1167 C1180 0.960 . S
C1168 H1160 0.936 . S
C1168 C1169 1.377 . S
C1168 C1170 1.384 . S
C1169 C1168 1.377 . S
C1169 C1175 1.390 . S
C1170 H1161 0.916 1_655 S
C1170 C1168 1.384 . S
C1170 C1171 1.372 . S
C1171 C1170 1.372 . S
C1171 C1172 1.400 . S
C1171 C1176 1.490 . S
C1172 H1162 0.930 . S
C1172 C1171 1.400 . S
C1172 C1175 1.386 . S
H1173 C1189 0.930 . S
H1174 C1190 0.931 . S
C1175 H1163 0.929 . S
C1175 C1169 1.390 . S
C1175 C1172 1.386 . S
C1176 C1171 1.490 . S
C1176 C1178 1.395 1_655 S
C1176 C1179 1.403 . S
H1177 C1183 0.930 . S
C1178 H1164 0.930 . S
C1178 C1176 1.395 1_455 S
C1178 C1181 1.403 1_554 S
C1179 C1176 1.403 . S
C1179 C1180 1.524 . S
C1179 C1183 1.400 1_554 S
C1180 H1165 0.960 . S
C1180 H1166 0.960 . S
C1180 H1167 0.960 . S
C1180 C1179 1.524 . S
C1181 C1178 1.403 1_556 S
C1181 C1182 1.392 1_455 S
C1181 C1185 1.495 . S
C1182 C1181 1.392 1_655 S
C1182 C1183 1.385 . S
C1182 C1184 1.478 . S
C1183 H1177 0.930 . S
C1183 C1179 1.400 1_556 S
C1183 C1182 1.385 . S
C1184 C1182 1.478 . S
C1184 C1186 1.381 . S
C1184 C1190 1.383 . S
C1185 C1181 1.495 . S
C1185 H1191 0.959 . S
C1185 H1192 0.961 . S
C1185 H1193 0.960 . S
C1186 C1184 1.381 . S
C1186 C1187 1.394 . S
C1186 H1194 0.930 1_655 S
C1187 C1186 1.394 . S
C1187 C1188 1.383 . S
C1187 H1195 0.929 . S
C1188 C1187 1.383 . S
C1188 C1189 1.377 . S
C1189 H1173 0.930 . S
C1189 C1188 1.377 . S
C1189 C1190 1.379 . S
C1190 H1174 0.931 . S
C1190 C1184 1.383 . S
C1190 C1189 1.379 . S
H1191 C1185 0.959 . S
H1192 C1185 0.961 . S
H1193 C1185 0.960 . S
H1194 C1186 0.930 1_455 S
H1195 C1187 0.929 . S
H1196 C1204 0.929 . S
H1197 C1206 0.930 . S
H1198 C1208 0.930 . S
H1199 C1211 0.929 . S
H1200 C1214 0.930 . S
H1201 C1216 0.960 . S
H1202 C1216 0.960 . S
H1203 C1216 0.960 . S
C1204 H1196 0.929 . S
C1204 C1205 1.377 . S
C1204 C1206 1.384 . S
C1205 C1204 1.377 . S
C1205 C1211 1.390 . S
C1206 H1197 0.930 . S
C1206 C1204 1.384 . S
C1206 C1207 1.372 . S
C1207 C1206 1.372 . S
C1207 C1208 1.400 . S
C1207 C1212 1.490 . S
C1208 H1198 0.930 . S
C1208 C1207 1.400 . S
C1208 C1211 1.386 . S
H1209 C1225 0.930 . S
H1210 C1226 0.931 . S
C1211 H1199 0.929 . S
C1211 C1205 1.390 . S
C1211 C1208 1.386 . S
C1212 C1207 1.490 . S
C1212 C1214 1.395 . S
C1212 C1215 1.403 . S
H1213 C1219 0.930 . S
C1214 H1200 0.930 . S
C1214 C1212 1.395 . S
C1214 C1217 1.403 . S
C1215 C1212 1.403 . S
C1215 C1216 1.524 . S
C1215 C1219 1.400 . S
C1216 H1201 0.960 . S
C1216 H1202 0.960 . S
C1216 H1203 0.960 . S
C1216 C1215 1.524 . S
C1217 C1214 1.403 . S
C1217 C1218 1.392 . S
C1217 C1221 1.495 . S
C1218 C1217 1.392 . S
C1218 C1219 1.385 . S
C1218 C1220 1.478 . S
C1219 H1213 0.930 . S
C1219 C1215 1.400 . S
C1219 C1218 1.385 . S
C1220 C1218 1.478 . S
C1220 C1222 1.381 . S
C1220 C1226 1.383 . S
C1221 C1217 1.495 . S
C1221 H1227 0.959 . S
C1221 H1228 0.961 . S
C1221 H1229 0.960 . S
C1222 C1220 1.381 . S
C1222 C1223 1.394 . S
C1222 H1230 0.930 . S
C1223 C1222 1.394 . S
C1223 C1224 1.383 . S
C1223 H1231 0.929 . S
C1224 C1223 1.383 . S
C1224 C1225 1.377 . S
C1225 H1209 0.930 . S
C1225 C1224 1.377 . S
C1225 C1226 1.379 . S
C1226 H1210 0.931 . S
C1226 C1220 1.383 . S
C1226 C1225 1.379 . S
H1227 C1221 0.959 . S
H1228 C1221 0.961 . S
H1229 C1221 0.960 . S
H1230 C1222 0.930 . S
H1231 C1223 0.929 . S
H1232 C1240 0.929 . S
H1233 C1242 0.930 . S
H1234 C1244 0.930 . S
H1235 C1247 0.929 . S
H1236 C1250 0.930 . S
H1237 C1252 0.960 . S
H1238 C1252 0.960 . S
H1239 C1252 0.960 . S
C1240 H1232 0.929 . S
C1240 C1241 1.377 . S
C1240 C1242 1.384 . S
C1241 C1240 1.377 . S
C1241 C1247 1.390 . S
C1242 H1233 0.930 . S
C1242 C1240 1.384 . S
C1242 C1243 1.372 . S
C1243 C1242 1.372 . S
C1243 C1244 1.400 . S
C1243 C1248 1.490 . S
C1244 H1234 0.930 . S
C1244 C1243 1.400 . S
C1244 C1247 1.386 . S
H1245 C1261 0.930 . S
H1246 C1262 0.931 . S
C1247 H1235 0.929 . S
C1247 C1241 1.390 . S
C1247 C1244 1.386 . S
C1248 C1243 1.490 . S
C1248 C1250 1.395 . S
C1248 C1251 1.403 . S
H1249 C1255 0.930 . S
C1250 H1236 0.930 . S
C1250 C1248 1.395 . S
C1250 C1253 1.403 1_556 S
C1251 C1248 1.403 . S
C1251 C1252 1.524 . S
C1251 C1255 1.400 1_556 S
C1252 H1237 0.960 . S
C1252 H1238 0.960 . S
C1252 H1239 0.960 . S
C1252 C1251 1.524 . S
C1253 C1250 1.403 1_554 S
C1253 C1254 1.392 . S
C1253 C1257 1.495 . S
C1254 C1253 1.392 . S
C1254 C1255 1.385 . S
C1254 C1256 1.478 . S
C1255 H1249 0.930 . S
C1255 C1251 1.400 1_554 S
C1255 C1254 1.385 . S
C1256 C1254 1.478 . S
C1256 C1258 1.381 . S
C1256 C1262 1.383 . S
C1257 C1253 1.495 . S
C1257 H1263 0.959 . S
C1257 H1264 0.961 . S
C1257 H1265 0.960 . S
C1258 C1256 1.381 . S
C1258 C1259 1.394 . S
C1258 H1266 0.930 . S
C1259 C1258 1.394 . S
C1259 C1260 1.383 . S
C1259 H1267 0.929 . S
C1260 C1259 1.383 . S
C1260 C1261 1.377 . S
C1261 H1245 0.930 . S
C1261 C1260 1.377 . S
C1261 C1262 1.379 . S
C1262 H1246 0.931 . S
C1262 C1256 1.383 . S
C1262 C1261 1.379 . S
H1263 C1257 0.959 . S
H1264 C1257 0.961 . S
H1265 C1257 0.960 . S
H1266 C1258 0.930 . S
H1267 C1259 0.929 . S
H1268 C1276 0.929 . S
H1269 C1278 0.930 . S
H1270 C1280 0.930 . S
H1271 C1283 0.929 . S
H1272 C1286 0.930 . S
H1273 C1288 0.960 . S
H1274 C1288 0.960 . S
H1275 C1288 0.960 . S
C1276 H1268 0.929 . S
C1276 C1277 1.377 . S
C1276 C1278 1.384 . S
C1277 C1276 1.377 . S
C1277 C1283 1.390 . S
C1278 H1269 0.930 . S
C1278 C1276 1.384 . S
C1278 C1279 1.372 . S
C1279 C1278 1.372 . S
C1279 C1280 1.400 . S
C1279 C1284 1.490 . S
C1280 H1270 0.930 . S
C1280 C1279 1.400 . S
C1280 C1283 1.386 . S
H1281 C1297 0.930 . S
H1282 C1298 0.931 . S
C1283 H1271 0.929 . S
C1283 C1277 1.390 . S
C1283 C1280 1.386 . S
C1284 C1279 1.490 . S
C1284 C1286 1.395 . S
C1284 C1287 1.403 . S
H1285 C1291 0.930 . S
C1286 H1272 0.930 . S
C1286 C1284 1.395 . S
C1286 C1289 1.403 . S
C1287 C1284 1.403 . S
C1287 C1288 1.524 . S
C1287 C1291 1.400 . S
C1288 H1273 0.960 . S
C1288 H1274 0.960 . S
C1288 H1275 0.960 . S
C1288 C1287 1.524 . S
C1289 C1286 1.403 . S
C1289 C1290 1.392 . S
C1289 C1293 1.495 . S
C1290 C1289 1.392 . S
C1290 C1291 1.385 . S
C1290 C1292 1.478 . S
C1291 H1285 0.930 . S
C1291 C1287 1.400 . S
C1291 C1290 1.385 . S
C1292 C1290 1.478 . S
C1292 C1294 1.381 . S
C1292 C1298 1.383 . S
C1293 C1289 1.495 . S
C1293 H1299 0.959 . S
C1293 H1300 0.961 . S
C1293 H1301 0.960 . S
C1294 C1292 1.381 . S
C1294 C1295 1.394 . S
C1294 H1302 0.930 . S
C1295 C1294 1.394 . S
C1295 C1296 1.383 . S
C1295 H1303 0.929 . S
C1296 C1295 1.383 . S
C1296 C1297 1.377 . S
C1297 H1281 0.930 . S
C1297 C1296 1.377 . S
C1297 C1298 1.379 . S
C1298 H1282 0.931 . S
C1298 C1292 1.383 . S
C1298 C1297 1.379 . S
H1299 C1293 0.959 . S
H1300 C1293 0.961 . S
H1301 C1293 0.960 . S
H1302 C1294 0.930 . S
H1303 C1295 0.929 . S
H1304 C1312 0.929 . S
H1305 C1314 0.930 . S
H1306 C1316 0.958 . S
H1307 C1319 0.929 . S
H1308 C1322 0.930 . S
H1309 C1324 0.960 1_556 S
H1310 C1324 0.960 . S
H1311 C1324 0.960 . S
C1312 H1304 0.929 . S
C1312 C1313 1.377 . S
C1312 C1314 1.384 . S
C1313 C1312 1.377 . S
C1313 C1319 1.390 1_455 S
C1314 H1305 0.930 . S
C1314 C1312 1.384 . S
C1314 C1315 1.372 . S
C1315 C1314 1.372 . S
C1315 C1316 1.371 1_455 S
C1315 C1320 1.490 . S
C1316 H1306 0.958 . S
C1316 C1315 1.371 1_655 S
C1316 C1319 1.387 . S
H1317 C1333 0.930 . S
H1318 C1334 0.931 . S
C1319 H1307 0.929 . S
C1319 C1313 1.390 1_655 S
C1319 C1316 1.387 . S
C1320 C1315 1.490 . S
C1320 C1322 1.395 . S
C1320 C1323 1.403 . S
H1321 C1327 0.930 . S
C1322 H1308 0.930 . S
C1322 C1320 1.395 . S
C1322 C1325 1.403 1_554 S
C1323 C1320 1.403 . S
C1323 C1324 1.524 . S
C1323 C1327 1.400 1_554 S
C1324 H1309 0.960 1_554 S
C1324 H1310 0.960 . S
C1324 H1311 0.960 . S
C1324 C1323 1.524 . S
C1325 C1322 1.403 1_556 S
C1325 C1326 1.392 . S
C1325 C1329 1.495 . S
C1326 C1325 1.392 . S
C1326 C1327 1.385 . S
C1326 C1328 1.478 . S
C1327 H1321 0.930 . S
C1327 C1323 1.400 1_556 S
C1327 C1326 1.385 . S
C1328 C1326 1.478 . S
C1328 C1330 1.381 . S
C1328 C1334 1.383 1_455 S
C1329 C1325 1.495 . S
C1329 H1335 0.959 1_556 S
C1329 H1336 0.961 . S
C1329 H1337 0.960 . S
C1330 C1328 1.381 . S
C1330 C1331 1.394 . S
C1330 H1338 0.930 . S
C1331 C1330 1.394 . S
C1331 C1332 1.383 . S
C1331 H1339 0.929 . S
C1332 C1331 1.383 . S
C1332 C1333 1.377 1_455 S
C1333 H1317 0.930 . S
C1333 C1332 1.377 1_655 S
C1333 C1334 1.379 . S
C1334 H1318 0.931 . S
C1334 C1328 1.383 1_655 S
C1334 C1333 1.379 . S
H1335 C1329 0.959 1_554 S
H1336 C1329 0.961 . S
H1337 C1329 0.960 . S
H1338 C1330 0.930 . S
H1339 C1331 0.929 . S
H1340 C1348 0.960 . S
H1341 C1350 0.946 . S
H1342 C1352 0.930 . S
H1343 C1355 0.929 . S
H1344 C1358 0.930 . S
H1345 C1360 0.960 . S
H1346 C1360 0.960 . S
H1347 C1360 0.960 . S
C1348 H1340 0.960 . S
C1348 C1349 1.377 . S
C1348 C1350 1.384 . S
C1349 C1348 1.377 . S
C1349 C1355 1.390 . S
C1350 H1341 0.946 . S
C1350 C1348 1.384 . S
C1350 C1351 1.372 . S
C1351 C1350 1.372 . S
C1351 C1352 1.400 . S
C1351 C1356 1.490 . S
C1352 H1342 0.930 . S
C1352 C1351 1.400 . S
C1352 C1355 1.386 . S
H1353 C1369 0.930 . S
H1354 C1370 0.931 . S
C1355 H1343 0.929 . S
C1355 C1349 1.390 . S
C1355 C1352 1.386 . S
C1356 C1351 1.490 . S
C1356 C1358 1.395 . S
C1356 C1359 1.403 . S
H1357 C1363 0.930 . S
C1358 H1344 0.930 . S
C1358 C1356 1.395 . S
C1358 C1361 1.403 . S
C1359 C1356 1.403 . S
C1359 C1360 1.524 . S
C1359 C1363 1.400 . S
C1360 H1345 0.960 . S
C1360 H1346 0.960 . S
C1360 H1347 0.960 . S
C1360 C1359 1.524 . S
C1361 C1358 1.403 . S
C1361 C1362 1.392 . S
C1361 C1365 1.495 . S
C1362 C1361 1.392 . S
C1362 C1363 1.385 . S
C1362 C1364 1.478 . S
C1363 H1357 0.930 . S
C1363 C1359 1.400 . S
C1363 C1362 1.385 . S
C1364 C1362 1.478 . S
C1364 C1366 1.381 . S
C1364 C1370 1.383 . S
C1365 C1361 1.495 . S
C1365 H1371 0.959 . S
C1365 H1372 0.961 . S
C1365 H1373 0.960 . S
C1366 C1364 1.381 . S
C1366 C1367 1.394 . S
C1366 H1374 0.930 1_545 S
C1367 C1366 1.394 . S
C1367 C1368 1.383 . S
C1367 H1375 0.911 1_545 S
C1368 C1367 1.383 . S
C1368 C1369 1.377 . S
C1369 H1353 0.930 . S
C1369 C1368 1.377 . S
C1369 C1370 1.379 . S
C1370 H1354 0.931 . S
C1370 C1364 1.383 . S
C1370 C1369 1.379 . S
H1371 C1365 0.959 . S
H1372 C1365 0.961 . S
H1373 C1365 0.960 . S
H1374 C1366 0.930 1_565 S
H1375 C1367 0.911 1_565 S
C233 C11 1.017 . S
C252 C109 1.057 1_545 S
C269 C25 1.023 . S
C288 C67 1.043 . S
C305 C39 1.018 . S
C324 C81 1.057 . S
C341 C53 1.034 1_545 S
C360 C95 0.989 . S
C377 C117 0.975 . S
C396 C221 1.063 . S
C413 C173 0.968 . S
C432 C137 1.040 . S
C449 C145 0.991 . S
C468 C193 1.014 . S
C485 C165 1.034 . S
C504 C201 1.032 . S
C521 C4 1.082 . S
C540 C138 1.126 . S
C557 C18 1.222 . S
C576 C144 1.275 . S
C593 C166 1.125 . S
C612 C32 1.036 . S
C629 C46 1.219 . S
C648 C116 1.239 . S
C665 C60 1.071 . S
C684 C222 1.117 . S
C701 C172 1.260 . S
C720 C74 1.199 . S
C737 C194 1.128 . S
C756 C88 1.112 . S
C773 C200 1.260 . S
C792 C102 1.202 . S
C809 C26 1.027 . S
C828 C124 0.986 . S
C845 C40 1.117 . S
C864 C130 1.049 . S
C881 C152 1.012 . S
C900 C54 1.021 . S
C917 C12 1.119 . S
C936 C158 1.079 . S
C953 C180 1.012 . S
C972 C110 1.020 . S
C989 C186 1.079 . S
C1008 C68 1.125 . S
C1025 C82 1.027 . S
C1044 C208 0.984 . S
C1061 C96 1.119 . S
C1080 C214 1.086 . S
C1097 C5 1.251 . S
C1116 C61 1.202 . S
C1133 C75 1.334 . S
C1152 C19 1.375 . S
C1169 C33 1.242 . S
C1188 C89 1.241 . S
C1205 C103 1.333 . S
C1224 C47 1.375 . S
C1241 C123 1.542 . S
C1260 C179 1.539 . S
C1277 C187 1.315 . S
C1296 C131 1.347 . S
C1313 C207 1.541 . S
C1332 C151 1.555 . S
C1349 C215 1.323 . S
C1368 C159 1.366 . S
