# Generated by pormake.
# Topology umd, (4)-cn, num edge types: 1
# Building blocks:
#     Node 0, Type 0, BuildingBlock: NAWXER_clean_sbu_0, # of connection points: 4
#     Node 1, Type 0, BuildingBlock: NAWXER_clean_sbu_0, # of connection points: 4
#     Node 2, Type 0, BuildingBlock: NAWXER_clean_sbu_0, # of connection points: 4
#     Node 3, Type 0, BuildingBlock: NAWXER_clean_sbu_0, # of connection points: 4
#     Node 4, Type 0, BuildingBlock: NAWXER_clean_sbu_0, # of connection points: 4
#     Node 5, Type 0, BuildingBlock: NAWXER_clean_sbu_0, # of connection points: 4
#     Node 6, Type 0, BuildingBlock: NAWXER_clean_sbu_0, # of connection points: 4
#     Node 7, Type 0, BuildingBlock: NAWXER_clean_sbu_0, # of connection points: 4
#     Node 8, Type 0, BuildingBlock: NAWXER_clean_sbu_0, # of connection points: 4
#     Node 9, Type 0, BuildingBlock: NAWXER_clean_sbu_0, # of connection points: 4
#     Node 10, Type 0, BuildingBlock: NAWXER_clean_sbu_0, # of connection points: 4
#     Node 11, Type 0, BuildingBlock: NAWXER_clean_sbu_0, # of connection points: 4
#     Node 12, Type 0, BuildingBlock: NAWXER_clean_sbu_0, # of connection points: 4
#     Node 13, Type 0, BuildingBlock: NAWXER_clean_sbu_0, # of connection points: 4
#     Node 14, Type 0, BuildingBlock: NAWXER_clean_sbu_0, # of connection points: 4
#     Node 15, Type 0, BuildingBlock: NAWXER_clean_sbu_0, # of connection points: 4
#     Edge 16, Type (0, 0), BuildingBlock: EZIPEK_clean_linker_0, # of connection points: 2
#     Edge 17, Type (0, 0), BuildingBlock: EZIPEK_clean_linker_0, # of connection points: 2
#     Edge 18, Type (0, 0), BuildingBlock: EZIPEK_clean_linker_0, # of connection points: 2
#     Edge 19, Type (0, 0), BuildingBlock: EZIPEK_clean_linker_0, # of connection points: 2
#     Edge 20, Type (0, 0), BuildingBlock: EZIPEK_clean_linker_0, # of connection points: 2
#     Edge 21, Type (0, 0), BuildingBlock: EZIPEK_clean_linker_0, # of connection points: 2
#     Edge 22, Type (0, 0), BuildingBlock: EZIPEK_clean_linker_0, # of connection points: 2
#     Edge 23, Type (0, 0), BuildingBlock: EZIPEK_clean_linker_0, # of connection points: 2
#     Edge 24, Type (0, 0), BuildingBlock: EZIPEK_clean_linker_0, # of connection points: 2
#     Edge 25, Type (0, 0), BuildingBlock: EZIPEK_clean_linker_0, # of connection points: 2
#     Edge 26, Type (0, 0), BuildingBlock: EZIPEK_clean_linker_0, # of connection points: 2
#     Edge 27, Type (0, 0), BuildingBlock: EZIPEK_clean_linker_0, # of connection points: 2
#     Edge 28, Type (0, 0), BuildingBlock: EZIPEK_clean_linker_0, # of connection points: 2
#     Edge 29, Type (0, 0), BuildingBlock: EZIPEK_clean_linker_0, # of connection points: 2
#     Edge 30, Type (0, 0), BuildingBlock: EZIPEK_clean_linker_0, # of connection points: 2
#     Edge 31, Type (0, 0), BuildingBlock: EZIPEK_clean_linker_0, # of connection points: 2
#     Edge 32, Type (0, 0), BuildingBlock: EZIPEK_clean_linker_0, # of connection points: 2
#     Edge 33, Type (0, 0), BuildingBlock: EZIPEK_clean_linker_0, # of connection points: 2
#     Edge 34, Type (0, 0), BuildingBlock: EZIPEK_clean_linker_0, # of connection points: 2
#     Edge 35, Type (0, 0), BuildingBlock: EZIPEK_clean_linker_0, # of connection points: 2
#     Edge 36, Type (0, 0), BuildingBlock: EZIPEK_clean_linker_0, # of connection points: 2
#     Edge 37, Type (0, 0), BuildingBlock: EZIPEK_clean_linker_0, # of connection points: 2
#     Edge 38, Type (0, 0), BuildingBlock: EZIPEK_clean_linker_0, # of connection points: 2
#     Edge 39, Type (0, 0), BuildingBlock: EZIPEK_clean_linker_0, # of connection points: 2
#     Edge 40, Type (0, 0), BuildingBlock: EZIPEK_clean_linker_0, # of connection points: 2
#     Edge 41, Type (0, 0), BuildingBlock: EZIPEK_clean_linker_0, # of connection points: 2
#     Edge 42, Type (0, 0), BuildingBlock: EZIPEK_clean_linker_0, # of connection points: 2
#     Edge 43, Type (0, 0), BuildingBlock: EZIPEK_clean_linker_0, # of connection points: 2
#     Edge 44, Type (0, 0), BuildingBlock: EZIPEK_clean_linker_0, # of connection points: 2
#     Edge 45, Type (0, 0), BuildingBlock: EZIPEK_clean_linker_0, # of connection points: 2
#     Edge 46, Type (0, 0), BuildingBlock: EZIPEK_clean_linker_0, # of connection points: 2
#     Edge 47, Type (0, 0), BuildingBlock: EZIPEK_clean_linker_0, # of connection points: 2
# Relax obj value: 0.021
# Max RMSD: 0.190
# Mean RMSD: 0.190
data_MOF--net-umd--node1-NAWXER_clean_sbu_0--edge1-EZIPEK_clean_linker_0
_symmetry_space_group_name_H-M    P1
_symmetry_Int_Tables_number       1
_symmetry_cell_setting            triclinic
loop_
_symmetry_equiv_pos_as_xyz
'x, y, z'
_cell_length_a     29.369901
_cell_length_b     29.463327
_cell_length_c     42.376502
_cell_angle_alpha  90.061183
_cell_angle_beta   89.971184
_cell_angle_gamma 90.121952
loop_
_atom_site_label
_atom_site_type_symbol
_atom_site_fract_x
_atom_site_fract_y
_atom_site_fract_z
_atom_type_partial_charge
C0 C 0.09412 0.46409 0.13647 0.0
C1 C 0.2256 0.36353 0.13883 0.0
O2 O 0.09479 0.42097 0.13637 0.0
Zn3 Zn 0.15993 0.41327 0.13705 0.0
O4 O 0.13186 0.48602 0.13618 0.0
Zn5 Zn 0.20358 0.47019 0.13377 0.0
O6 O 0.22117 0.49307 0.09261 0.0
O7 O 0.17793 0.43188 0.08996 0.0
O8 O 0.23746 0.40531 0.13635 0.0
O9 O 0.18375 0.35283 0.14021 0.0
O10 O 0.17929 0.44366 0.18144 0.0
O11 O 0.22581 0.50085 0.17088 0.0
C12 C 0.20085 0.46315 0.0762 0.0
C13 C 0.20436 0.47675 0.19085 0.0
C14 C 0.53539 0.2011 0.57752 0.0
C15 C 0.5209 0.19982 0.69254 0.0
O16 O 0.50698 0.22289 0.59431 0.0
Zn17 Zn 0.5282 0.20224 0.6352 0.0
O18 O 0.56605 0.17706 0.591 0.0
Zn19 Zn 0.58782 0.16286 0.6384 0.0
O20 O 0.58448 0.09776 0.64045 0.0
O21 O 0.51756 0.12965 0.63281 0.0
O22 O 0.55735 0.18036 0.68291 0.0
O23 O 0.49391 0.2176 0.67265 0.0
O24 O 0.5901 0.24058 0.64137 0.0
O25 O 0.64677 0.19181 0.63966 0.0
C26 C 0.5418 0.09384 0.63617 0.0
C27 C 0.63298 0.23256 0.64156 0.0
C28 C 0.80708 0.52834 0.19409 0.0
C29 C 0.80859 0.53701 0.07922 0.0
O30 O 0.78464 0.50474 0.17438 0.0
Zn31 Zn 0.80618 0.53365 0.13642 0.0
O32 O 0.83191 0.56108 0.184 0.0
Zn33 Zn 0.84698 0.59217 0.13924 0.0
O34 O 0.81938 0.65122 0.14192 0.0
O35 O 0.76869 0.59632 0.1369 0.0
O36 O 0.8306 0.56984 0.09206 0.0
O37 O 0.78892 0.50753 0.09635 0.0
O38 O 0.87947 0.52208 0.13728 0.0
O39 O 0.91188 0.58998 0.13895 0.0
C40 C 0.77821 0.63864 0.13946 0.0
C41 C 0.91539 0.54704 0.13821 0.0
C42 C 0.46521 0.80537 0.57508 0.0
C43 C 0.48517 0.80247 0.68955 0.0
O44 O 0.49753 0.78745 0.59059 0.0
Zn45 Zn 0.47615 0.80341 0.63254 0.0
O46 O 0.43328 0.82596 0.58983 0.0
Zn47 Zn 0.41696 0.84357 0.63745 0.0
O48 O 0.42191 0.90874 0.63648 0.0
O49 O 0.48886 0.8754 0.63429 0.0
O50 O 0.4504 0.82568 0.68094 0.0
O51 O 0.50973 0.78282 0.66896 0.0
O52 O 0.41282 0.76638 0.63689 0.0
O53 O 0.35766 0.81684 0.64241 0.0
C54 C 0.46503 0.91176 0.63505 0.0
C55 C 0.37046 0.77576 0.64052 0.0
C56 C 0.20413 0.52071 0.32394 0.0
C57 C 0.19921 0.53826 0.43813 0.0
O58 O 0.22299 0.49582 0.34459 0.0
Zn59 Zn 0.20374 0.53046 0.38071 0.0
O60 O 0.18163 0.556 0.33241 0.0
Zn61 Zn 0.16386 0.58943 0.37613 0.0
O62 O 0.19319 0.64791 0.37395 0.0
O63 O 0.24262 0.59188 0.37564 0.0
O64 O 0.17589 0.56865 0.42386 0.0
O65 O 0.22165 0.50953 0.42211 0.0
O66 O 0.13029 0.52018 0.38009 0.0
O67 O 0.09872 0.58792 0.37459 0.0
C68 C 0.2342 0.63446 0.37413 0.0
C69 C 0.09468 0.54518 0.3775 0.0
C70 C 0.46873 0.19857 0.94094 0.0
C71 C 0.47524 0.19842 0.82589 0.0
O72 O 0.49764 0.21851 0.92343 0.0
Zn73 Zn 0.47216 0.19947 0.88362 0.0
O74 O 0.43625 0.17549 0.92852 0.0
Zn75 Zn 0.41307 0.15879 0.88162 0.0
O76 O 0.4179 0.09383 0.87988 0.0
O77 O 0.48466 0.12744 0.8844 0.0
O78 O 0.44016 0.17756 0.83651 0.0
O79 O 0.50272 0.21714 0.84507 0.0
O80 O 0.40836 0.23604 0.88188 0.0
O81 O 0.35337 0.18456 0.88062 0.0
C82 C 0.46096 0.09107 0.88183 0.0
C83 C 0.36586 0.22583 0.8809 0.0
C84 C 0.81467 0.46321 0.44166 0.0
C85 C 0.80708 0.48297 0.32754 0.0
O86 O 0.79102 0.49166 0.42629 0.0
Zn87 Zn 0.80836 0.47234 0.38432 0.0
O88 O 0.83842 0.43387 0.42661 0.0
Zn89 Zn 0.84893 0.41376 0.37849 0.0
O90 O 0.91399 0.41638 0.37572 0.0
O91 O 0.88158 0.48355 0.38274 0.0
O92 O 0.83036 0.44806 0.33558 0.0
O93 O 0.78751 0.50676 0.34858 0.0
O94 O 0.7701 0.41117 0.37908 0.0
O95 O 0.81911 0.35497 0.37564 0.0
C96 C 0.91742 0.45913 0.37915 0.0
C97 C 0.77817 0.36866 0.37659 0.0
C98 C 0.52664 0.80191 0.82311 0.0
C99 C 0.53988 0.80377 0.93791 0.0
O100 O 0.50211 0.78057 0.8429 0.0
Zn101 Zn 0.53283 0.80179 0.88037 0.0
O102 O 0.55996 0.8265 0.83276 0.0
Zn103 Zn 0.59049 0.84471 0.87727 0.0
O104 O 0.65096 0.82035 0.87396 0.0
O105 O 0.59754 0.76759 0.8778 0.0
O106 O 0.57133 0.82661 0.92424 0.0
O107 O 0.50979 0.78369 0.92145 0.0
O108 O 0.51779 0.87348 0.87917 0.0
O109 O 0.58354 0.90946 0.87884 0.0
C110 C 0.63965 0.77879 0.87542 0.0
C111 C 0.5403 0.91079 0.87949 0.0
C112 C 0.80828 0.54055 0.94258 0.0
C113 C 0.80718 0.52786 0.82739 0.0
O114 O 0.83251 0.57111 0.92907 0.0
Zn115 Zn 0.84668 0.59283 0.88165 0.0
O116 O 0.78604 0.51231 0.92588 0.0
Zn117 Zn 0.80583 0.53396 0.88496 0.0
O118 O 0.87831 0.52194 0.88639 0.0
O119 O 0.91198 0.58799 0.87898 0.0
O120 O 0.78883 0.50099 0.84715 0.0
O121 O 0.82774 0.56353 0.83723 0.0
O122 O 0.81887 0.65195 0.88038 0.0
O123 O 0.76849 0.59632 0.88019 0.0
C124 C 0.91483 0.54528 0.88282 0.0
C125 C 0.77764 0.63886 0.87952 0.0
C126 C 0.48509 0.80416 0.32327 0.0
C127 C 0.46678 0.80592 0.43787 0.0
O128 O 0.45045 0.82728 0.33224 0.0
Zn129 Zn 0.41738 0.84426 0.37605 0.0
O130 O 0.50978 0.78415 0.34356 0.0
Zn131 Zn 0.47666 0.80412 0.38042 0.0
O132 O 0.41336 0.76689 0.37654 0.0
O133 O 0.35817 0.81735 0.37124 0.0
O134 O 0.49882 0.78787 0.4221 0.0
O135 O 0.43448 0.82625 0.42338 0.0
O136 O 0.42198 0.90944 0.37789 0.0
O137 O 0.48903 0.87625 0.37947 0.0
C138 C 0.37098 0.77629 0.37311 0.0
C139 C 0.46508 0.91256 0.37942 0.0
C140 C 0.2008 0.46455 0.93907 0.0
C141 C 0.20493 0.47955 0.82395 0.0
O142 O 0.18021 0.43229 0.92465 0.0
Zn143 Zn 0.162 0.415 0.87719 0.0
O144 O 0.21939 0.49617 0.92317 0.0
Zn145 Zn 0.20419 0.47268 0.88169 0.0
O146 O 0.13206 0.48707 0.88014 0.0
O147 O 0.09689 0.42088 0.8788 0.0
O148 O 0.2275 0.50222 0.84416 0.0
O149 O 0.17897 0.44729 0.83341 0.0
O150 O 0.18789 0.35544 0.87258 0.0
O151 O 0.23971 0.40869 0.88058 0.0
C152 C 0.09501 0.46395 0.88002 0.0
C153 C 0.22925 0.36682 0.87651 0.0
C154 C 0.53536 0.20107 0.44039 0.0
C155 C 0.52308 0.19992 0.32519 0.0
O156 O 0.56732 0.17852 0.42709 0.0
Zn157 Zn 0.58929 0.16349 0.37998 0.0
O158 O 0.50589 0.22121 0.42353 0.0
Zn159 Zn 0.52896 0.20217 0.38264 0.0
O160 O 0.51872 0.12982 0.38384 0.0
O161 O 0.58615 0.09805 0.37833 0.0
O162 O 0.49549 0.21743 0.34486 0.0
O163 O 0.55954 0.18094 0.33518 0.0
O164 O 0.64792 0.19291 0.37872 0.0
O165 O 0.59087 0.24124 0.37719 0.0
C166 C 0.54319 0.09411 0.38094 0.0
C167 C 0.63384 0.23359 0.37696 0.0
C168 C 0.80888 0.4805 0.69427 0.0
C169 C 0.81236 0.4643 0.57902 0.0
O170 O 0.82792 0.44389 0.68483 0.0
Zn171 Zn 0.8468 0.41287 0.64121 0.0
O172 O 0.79218 0.50782 0.67413 0.0
Zn173 Zn 0.80814 0.47358 0.63655 0.0
O174 O 0.76819 0.41298 0.64152 0.0
O175 O 0.81551 0.355 0.64295 0.0
O176 O 0.79092 0.49436 0.59466 0.0
O177 O 0.83451 0.43343 0.59366 0.0
O178 O 0.91273 0.41648 0.64358 0.0
O179 O 0.88052 0.48308 0.63559 0.0
C180 C 0.77494 0.37008 0.64279 0.0
C181 C 0.91642 0.45908 0.63921 0.0
C182 C 0.63951 0.77793 0.13771 0.0
C183 C 0.5447 0.91296 0.13344 0.0
O184 O 0.59719 0.76779 0.13451 0.0
Zn185 Zn 0.53329 0.80449 0.13231 0.0
O186 O 0.65165 0.81916 0.14025 0.0
Zn187 Zn 0.59229 0.84496 0.13598 0.0
O188 O 0.5606 0.82771 0.18026 0.0
O189 O 0.5014 0.78391 0.16953 0.0
O190 O 0.58781 0.91003 0.13427 0.0
O191 O 0.5207 0.87658 0.13362 0.0
O192 O 0.50926 0.7884 0.09125 0.0
O193 O 0.57402 0.82623 0.08874 0.0
C194 C 0.52637 0.80416 0.1896 0.0
C195 C 0.54107 0.80582 0.07488 0.0
C196 C 0.20018 0.5359 0.57515 0.0
C197 C 0.2051 0.52036 0.68973 0.0
O198 O 0.17782 0.5671 0.58933 0.0
Zn199 Zn 0.16454 0.58759 0.63679 0.0
O200 O 0.22155 0.50641 0.59117 0.0
Zn201 Zn 0.20443 0.52841 0.6327 0.0
O202 O 0.13135 0.51751 0.63395 0.0
O203 O 0.09941 0.58525 0.63784 0.0
O204 O 0.22458 0.4955 0.66925 0.0
O205 O 0.18205 0.55504 0.68083 0.0
O206 O 0.19384 0.64621 0.639 0.0
O207 O 0.24304 0.59004 0.63775 0.0
C208 C 0.09558 0.54236 0.63586 0.0
C209 C 0.23486 0.63267 0.63921 0.0
C210 C 0.46335 0.09242 0.13517 0.0
C211 C 0.36456 0.22487 0.13741 0.0
O212 O 0.48596 0.12954 0.13288 0.0
Zn213 Zn 0.47138 0.20133 0.13442 0.0
O214 O 0.42027 0.09385 0.13766 0.0
Zn215 Zn 0.41363 0.15876 0.13659 0.0
O216 O 0.43646 0.17571 0.08964 0.0
O217 O 0.49582 0.22157 0.09458 0.0
O218 O 0.35323 0.18328 0.1379 0.0
O219 O 0.40676 0.23617 0.13632 0.0
O220 O 0.5018 0.21949 0.17291 0.0
O221 O 0.44084 0.17759 0.18164 0.0
C222 C 0.46795 0.20002 0.07717 0.0
C223 C 0.47535 0.19949 0.19215 0.0
C224 C 0.03752 0.52126 0.1154 0.0
C225 C 0.04985 0.48864 0.13864 0.0
C226 C 0.97499 0.49853 0.16397 0.0
C227 C 0.96108 0.52596 0.13824 0.0
N228 N 0.97597 0.55654 0.08653 0.0
N229 N 0.03067 0.44679 0.18589 0.0
C230 C 0.9915 0.5355 0.11319 0.0
C231 C 0.01852 0.47726 0.16309 0.0
N232 N 0.06952 0.53984 0.09585 0.0
N233 N 0.94751 0.49465 0.18992 0.0
H234 H 0.06383 0.43493 0.18873 0.0
H235 H 0.00762 0.43216 0.20156 0.0
H236 H 0.91557 0.50988 0.1915 0.0
H237 H 0.95754 0.47943 0.21094 0.0
H238 H 0.06271 0.56699 0.08086 0.0
H239 H 0.10397 0.53219 0.09683 0.0
H240 H 0.99526 0.55954 0.066 0.0
H241 H 0.94226 0.56689 0.08372 0.0
C242 C 0.47215 0.98942 0.65847 0.0
C243 C 0.48745 0.95724 0.63597 0.0
C244 C 0.53925 0.0148 0.61365 0.0
C245 C 0.52057 0.04788 0.6344 0.0
N246 N 0.46093 0.06815 0.67154 0.0
N247 N 0.53492 0.93956 0.59085 0.0
C248 C 0.48441 0.03577 0.65516 0.0
C249 C 0.52121 0.96981 0.6134 0.0
N250 N 0.44806 0.97528 0.68431 0.0
N251 N 0.57401 0.02657 0.59372 0.0
H252 H 0.52652 0.90533 0.59106 0.0
H253 H 0.55342 0.94855 0.57085 0.0
H254 H 0.5837 0.0601 0.58956 0.0
H255 H 0.59422 0.00314 0.58184 0.0
H256 H 0.4405 0.99643 0.70332 0.0
H257 H 0.44046 0.94127 0.68868 0.0
H258 H 0.43115 0.06111 0.684 0.0
H259 H 0.46792 0.10267 0.67049 0.0
C260 C 0.03504 0.49885 0.40506 0.0
C261 C 0.0489 0.52396 0.37811 0.0
C262 C 0.97508 0.50926 0.35287 0.0
C263 C 0.96275 0.48115 0.37872 0.0
N264 N 0.98171 0.44536 0.42816 0.0
N265 N 0.03528 0.54827 0.32457 0.0
C266 C 0.99309 0.47463 0.40438 0.0
C267 C 0.01965 0.52817 0.35159 0.0
N268 N 0.06091 0.50013 0.43191 0.0
N269 N 0.94414 0.51793 0.32952 0.0
H270 H 0.0676 0.56267 0.32258 0.0
H271 H 0.01781 0.54756 0.30321 0.0
H272 H 0.91233 0.50228 0.32831 0.0
H273 H 0.94878 0.54266 0.31228 0.0
H274 H 0.05055 0.4866 0.45343 0.0
H275 H 0.09131 0.51831 0.43361 0.0
H276 H 0.00448 0.43475 0.44546 0.0
H277 H 0.9501 0.42932 0.42967 0.0
C278 C 0.53195 0.9887 0.85678 0.0
C279 C 0.51668 0.95558 0.87871 0.0
C280 C 0.46719 0.01248 0.90372 0.0
C281 C 0.4831 0.04568 0.88213 0.0
N282 N 0.53877 0.0678 0.84274 0.0
N283 N 0.45979 0.93332 0.91737 0.0
C284 C 0.51785 0.03459 0.86002 0.0
C285 C 0.4814 0.96656 0.90054 0.0
N286 N 0.55703 0.97547 0.83114 0.0
N287 N 0.44115 0.02559 0.92893 0.0
H288 H 0.46775 0.8991 0.9161 0.0
H289 H 0.43028 0.9389 0.93042 0.0
H290 H 0.43167 0.05919 0.93299 0.0
H291 H 0.43329 0.0044 0.94782 0.0
H292 H 0.56454 0.9967 0.81221 0.0
H293 H 0.56573 0.94176 0.82672 0.0
H294 H 0.56812 0.06233 0.82948 0.0
H295 H 0.52997 0.10188 0.84363 0.0
C296 C 0.97058 0.48681 0.86232 0.0
C297 C 0.9603 0.52282 0.8836 0.0
C298 C 0.03903 0.52013 0.90366 0.0
C299 C 0.04995 0.48714 0.88026 0.0
N300 N 0.02915 0.44948 0.83183 0.0
N301 N 0.98484 0.57446 0.92452 0.0
C302 C 0.01654 0.47336 0.85811 0.0
C303 C 0.99471 0.53984 0.90411 0.0
N304 N 0.93685 0.46455 0.84631 0.0
N305 N 0.07011 0.53131 0.92641 0.0
H306 H 0.95177 0.58547 0.92909 0.0
H307 H 0.00951 0.59332 0.93636 0.0
H308 H 0.10373 0.52044 0.92623 0.0
H309 H 0.06215 0.54961 0.94669 0.0
H310 H 0.94259 0.43491 0.83348 0.0
H311 H 0.9025 0.47241 0.84799 0.0
H312 H 0.0071 0.44289 0.8131 0.0
H313 H 0.06288 0.44103 0.82687 0.0
C314 C 0.53662 0.01593 0.40407 0.0
C315 C 0.52173 0.04824 0.38149 0.0
C316 C 0.47349 0.99036 0.35639 0.0
C317 C 0.48728 0.95818 0.37935 0.0
N318 N 0.53876 0.93784 0.42175 0.0
N319 N 0.46685 0.06896 0.34131 0.0
C320 C 0.52085 0.97016 0.40224 0.0
C321 C 0.48748 0.03636 0.35921 0.0
N322 N 0.56293 0.03005 0.4289 0.0
N323 N 0.44987 0.97625 0.3303 0.0
H324 H 0.47533 0.10317 0.34208 0.0
H325 H 0.43791 0.06283 0.32775 0.0
H326 H 0.44108 0.94245 0.32622 0.0
H327 H 0.44376 0.99689 0.31083 0.0
H328 H 0.57064 0.01003 0.44837 0.0
H329 H 0.57349 0.06361 0.43188 0.0
H330 H 0.56748 0.94297 0.43567 0.0
H331 H 0.52755 0.90444 0.42264 0.0
C332 C 0.97388 0.51556 0.65983 0.0
C333 C 0.96193 0.48125 0.63763 0.0
C334 C 0.03607 0.4915 0.61161 0.0
C335 C 0.04986 0.52091 0.63642 0.0
N336 N 0.03517 0.55258 0.68795 0.0
N337 N 0.98264 0.43475 0.59286 0.0
C338 C 0.01968 0.53066 0.66158 0.0
C339 C 0.99355 0.46834 0.61383 0.0
N340 N 0.94167 0.53479 0.67887 0.0
N341 N 0.06232 0.48779 0.58506 0.0
H342 H 0.95041 0.41999 0.59153 0.0
H343 H 0.00628 0.41994 0.57772 0.0
H344 H 0.09266 0.50567 0.582 0.0
H345 H 0.05203 0.47059 0.5648 0.0
H346 H 0.94819 0.56301 0.69302 0.0
H347 H 0.90739 0.52611 0.67829 0.0
H348 H 0.01578 0.55606 0.70841 0.0
H349 H 0.06891 0.56292 0.69076 0.0
C350 C 0.47288 0.01607 0.10995 0.0
C351 C 0.48678 0.04775 0.13332 0.0
C352 C 0.53616 0.99027 0.15737 0.0
C353 C 0.52258 0.95844 0.13399 0.0
N354 N 0.47187 0.93855 0.09101 0.0
N355 N 0.54112 0.0686 0.1738 0.0
C356 C 0.48917 0.97057 0.11111 0.0
C357 C 0.52125 0.03602 0.15537 0.0
N358 N 0.44689 0.03064 0.08514 0.0
N359 N 0.56049 0.97595 0.18304 0.0
H360 H 0.53207 0.10265 0.17332 0.0
H361 H 0.57005 0.06283 0.18741 0.0
H362 H 0.57023 0.94231 0.18645 0.0
H363 H 0.56651 0.9961 0.20281 0.0
H364 H 0.4399 0.01118 0.06522 0.0
H365 H 0.43603 0.06413 0.0827 0.0
H366 H 0.44334 0.94369 0.07693 0.0
H367 H 0.48344 0.90532 0.08977 0.0
C368 C 0.16351 0.50049 0.27412 0.0
C369 C 0.20522 0.50776 0.29018 0.0
C370 C 0.24712 0.4901 0.24161 0.0
C371 C 0.20529 0.48843 0.22486 0.0
N372 N 0.12422 0.50249 0.22414 0.0
N373 N 0.28689 0.51652 0.2883 0.0
C374 C 0.16359 0.49653 0.24082 0.0
C375 C 0.24719 0.50443 0.27371 0.0
N376 N 0.12394 0.49551 0.29076 0.0
N377 N 0.28648 0.47636 0.22731 0.0
H378 H 0.28827 0.52751 0.31169 0.0
H379 H 0.31784 0.51939 0.27644 0.0
H380 H 0.28768 0.465 0.20401 0.0
H381 H 0.31709 0.47233 0.23938 0.0
H382 H 0.0933 0.4857 0.28037 0.0
H383 H 0.12273 0.49628 0.31534 0.0
H384 H 0.09377 0.51283 0.23452 0.0
H385 H 0.12302 0.50204 0.19957 0.0
C386 C 0.50361 0.24138 0.74311 0.0
C387 C 0.50948 0.19967 0.72674 0.0
C388 C 0.48939 0.15725 0.77468 0.0
C389 C 0.48471 0.1989 0.7914 0.0
N390 N 0.47779 0.28034 0.79042 0.0
N391 N 0.51712 0.11785 0.72862 0.0
C392 C 0.48949 0.24096 0.77534 0.0
C393 C 0.50489 0.15766 0.74296 0.0
N394 N 0.51445 0.28128 0.72838 0.0
N395 N 0.47741 0.11701 0.78853 0.0
H396 H 0.5268 0.1152 0.70514 0.0
H397 H 0.52142 0.08739 0.74069 0.0
H398 H 0.46767 0.11364 0.81195 0.0
H399 H 0.47329 0.0868 0.77608 0.0
H400 H 0.51597 0.31254 0.73976 0.0
H401 H 0.5259 0.28287 0.70511 0.0
H402 H 0.47549 0.31171 0.77931 0.0
H403 H 0.46626 0.28125 0.81369 0.0
C404 C 0.80709 0.55238 0.25163 0.0
C405 C 0.80596 0.51727 0.22846 0.0
C406 C 0.79628 0.46145 0.27075 0.0
C407 C 0.8044 0.49557 0.29368 0.0
N408 N 0.82973 0.57218 0.30465 0.0
N409 N 0.81386 0.43669 0.21797 0.0
C410 C 0.8132 0.54075 0.28384 0.0
C411 C 0.80449 0.47123 0.2385 0.0
N412 N 0.80083 0.59675 0.24342 0.0
N413 N 0.77971 0.41996 0.27949 0.0
H414 H 0.82481 0.44205 0.19488 0.0
H415 H 0.8167 0.403 0.22518 0.0
H416 H 0.77082 0.41223 0.30271 0.0
H417 H 0.76984 0.39536 0.26315 0.0
H418 H 0.79698 0.62252 0.26008 0.0
H419 H 0.79444 0.60739 0.22048 0.0
H420 H 0.84091 0.60422 0.29762 0.0
H421 H 0.83727 0.56477 0.32811 0.0
C422 C 0.51436 0.75946 0.77209 0.0
C423 C 0.51546 0.80108 0.789 0.0
C424 C 0.50411 0.84291 0.73975 0.0
C425 C 0.49766 0.80133 0.72343 0.0
N426 N 0.48901 0.71987 0.72508 0.0
N427 N 0.50104 0.88179 0.78993 0.0
C428 C 0.50077 0.75945 0.73984 0.0
C429 C 0.50746 0.84268 0.77311 0.0
N430 N 0.5279 0.72021 0.78643 0.0
N431 N 0.50882 0.88258 0.72334 0.0
H432 H 0.50124 0.88283 0.81451 0.0
H433 H 0.49067 0.91216 0.77965 0.0
H434 H 0.50845 0.88403 0.69876 0.0
H435 H 0.518 0.9132 0.73391 0.0
H436 H 0.5324 0.68978 0.7743 0.0
H437 H 0.53866 0.71893 0.80986 0.0
H438 H 0.48593 0.689 0.73686 0.0
H439 H 0.47836 0.71848 0.70162 0.0
C440 C 0.84928 0.5105 0.77719 0.0
C441 C 0.8072 0.51693 0.79313 0.0
C442 C 0.76572 0.49906 0.74412 0.0
C443 C 0.80797 0.49137 0.72859 0.0
N444 N 0.88928 0.47794 0.73313 0.0
N445 N 0.72572 0.52517 0.79107 0.0
C446 C 0.84947 0.49366 0.74586 0.0
C447 C 0.7654 0.51297 0.77644 0.0
N448 N 0.88954 0.52211 0.79134 0.0
N449 N 0.72594 0.49012 0.72847 0.0
H450 H 0.72442 0.53638 0.81441 0.0
H451 H 0.69446 0.52776 0.77972 0.0
H452 H 0.72492 0.47849 0.70523 0.0
H453 H 0.69394 0.49047 0.73896 0.0
H454 H 0.92026 0.52468 0.77916 0.0
H455 H 0.89241 0.5333 0.81448 0.0
H456 H 0.91862 0.47244 0.74637 0.0
H457 H 0.89282 0.46622 0.71017 0.0
C458 C 0.49905 0.76144 0.27259 0.0
C459 C 0.49716 0.8032 0.28929 0.0
C460 C 0.50799 0.84485 0.23987 0.0
C461 C 0.51483 0.80322 0.22368 0.0
N462 N 0.52439 0.72191 0.22557 0.0
N463 N 0.50985 0.88421 0.28994 0.0
C464 C 0.51239 0.76143 0.24027 0.0
C465 C 0.50449 0.84482 0.27324 0.0
N466 N 0.48633 0.72204 0.28715 0.0
N467 N 0.50282 0.88431 0.2233 0.0
H468 H 0.50913 0.88545 0.31452 0.0
H469 H 0.51976 0.91475 0.27962 0.0
H470 H 0.50324 0.88561 0.19872 0.0
H471 H 0.49326 0.91487 0.23373 0.0
H472 H 0.48228 0.69138 0.2752 0.0
H473 H 0.4759 0.72069 0.31066 0.0
H474 H 0.52817 0.69122 0.23746 0.0
H475 H 0.53439 0.72043 0.20198 0.0
C476 C 0.20708 0.45413 0.76698 0.0
C477 C 0.20778 0.49003 0.78953 0.0
C478 C 0.21656 0.54436 0.74616 0.0
C479 C 0.20805 0.50934 0.72389 0.0
N480 N 0.18384 0.4319 0.71459 0.0
N481 N 0.20112 0.571 0.79889 0.0
C482 C 0.20022 0.46442 0.73464 0.0
C483 C 0.20934 0.53572 0.77873 0.0
N484 N 0.21442 0.41024 0.77598 0.0
N485 N 0.23276 0.58555 0.73645 0.0
H486 H 0.1917 0.56659 0.82238 0.0
H487 H 0.19805 0.60445 0.79119 0.0
H488 H 0.24102 0.59243 0.713 0.0
H489 H 0.24302 0.6108 0.75218 0.0
H490 H 0.21843 0.38387 0.7598 0.0
H491 H 0.22176 0.40082 0.79906 0.0
H492 H 0.17349 0.39992 0.72231 0.0
H493 H 0.17555 0.43829 0.69111 0.0
C494 C 0.50984 0.15833 0.27393 0.0
C495 C 0.51242 0.20004 0.29083 0.0
C496 C 0.4891 0.24151 0.24305 0.0
C497 C 0.48557 0.19965 0.22654 0.0
N498 N 0.4816 0.11751 0.22867 0.0
N499 N 0.51366 0.28181 0.29017 0.0
C500 C 0.49277 0.15794 0.24263 0.0
C501 C 0.50415 0.24181 0.27508 0.0
N502 N 0.52545 0.1189 0.28707 0.0
N503 N 0.47528 0.28066 0.22862 0.0
H504 H 0.52622 0.28333 0.31317 0.0
H505 H 0.51317 0.31341 0.27926 0.0
H506 H 0.46292 0.2815 0.20556 0.0
H507 H 0.47209 0.31171 0.2401 0.0
H508 H 0.53096 0.08932 0.27415 0.0
H509 H 0.53694 0.11586 0.31011 0.0
H510 H 0.47947 0.08697 0.24094 0.0
H511 H 0.47033 0.11421 0.20558 0.0
C512 C 0.15948 0.46168 0.99116 0.0
C513 C 0.20129 0.46505 0.97422 0.0
C514 C 0.24341 0.464 0.02449 0.0
C515 C 0.20149 0.46489 0.04117 0.0
N516 N 0.11956 0.47173 0.04044 0.0
N517 N 0.28338 0.47163 0.97469 0.0
C518 C 0.15959 0.46554 0.02451 0.0
C519 C 0.24333 0.46738 0.9909 0.0
N520 N 0.1193 0.45395 0.9757 0.0
N521 N 0.28311 0.45678 0.04058 0.0
H522 H 0.28581 0.46877 0.95025 0.0
H523 H 0.3142 0.47993 0.98539 0.0
H524 H 0.28449 0.45287 0.06501 0.0
H525 H 0.31426 0.45059 0.02969 0.0
H526 H 0.08945 0.44417 0.98713 0.0
H527 H 0.11564 0.454 0.95135 0.0
H528 H 0.08886 0.47954 0.02943 0.0
H529 H 0.11729 0.47278 0.06489 0.0
C530 C 0.57183 0.22126 0.49208 0.0
C531 C 0.53376 0.20362 0.47543 0.0
C532 C 0.49451 0.18896 0.52574 0.0
C533 C 0.53403 0.20349 0.5424 0.0
N534 N 0.61251 0.22881 0.54138 0.0
N535 N 0.46186 0.16403 0.47599 0.0
C536 C 0.5733 0.21825 0.52554 0.0
C537 C 0.49562 0.18616 0.49212 0.0
N538 N 0.60612 0.24246 0.47591 0.0
N539 N 0.45614 0.17682 0.54198 0.0
H540 H 0.46176 0.16046 0.45151 0.0
H541 H 0.43582 0.14581 0.48682 0.0
H542 H 0.45499 0.17359 0.56645 0.0
H543 H 0.42455 0.17203 0.53135 0.0
H544 H 0.63164 0.26156 0.48664 0.0
H545 H 0.60732 0.24404 0.45141 0.0
H546 H 0.64388 0.23328 0.53036 0.0
H547 H 0.61483 0.23046 0.56583 0.0
C548 C 0.82588 0.49933 0.02722 0.0
C549 C 0.80507 0.53508 0.04438 0.0
C550 C 0.78936 0.57564 0.9952 0.0
C551 C 0.80682 0.53833 0.97764 0.0
N552 N 0.83826 0.46258 0.97669 0.0
N553 N 0.75751 0.60153 0.04474 0.0
C554 C 0.82358 0.4993 0.9936 0.0
C555 C 0.78405 0.57156 0.02835 0.0
N556 N 0.85008 0.46683 0.04294 0.0
N557 N 0.77875 0.61551 0.9805 0.0
H558 H 0.75187 0.59888 0.06898 0.0
H559 H 0.73736 0.62608 0.03395 0.0
H560 H 0.78168 0.62044 0.95631 0.0
H561 H 0.77094 0.64523 0.99267 0.0
H562 H 0.87055 0.4429 0.03177 0.0
H563 H 0.85256 0.46575 0.06748 0.0
H564 H 0.84533 0.4312 0.98683 0.0
H565 H 0.84126 0.46253 0.95218 0.0
C566 C 0.46408 0.84688 0.52333 0.0
C567 C 0.46503 0.80493 0.53993 0.0
C568 C 0.46691 0.76326 0.48947 0.0
C569 C 0.467 0.80531 0.47299 0.0
N570 N 0.45877 0.88706 0.47383 0.0
N571 N 0.46842 0.72318 0.53964 0.0
C572 C 0.46368 0.84701 0.48983 0.0
C573 C 0.46694 0.7631 0.52319 0.0
N574 N 0.46621 0.88702 0.53956 0.0
N575 N 0.46319 0.72357 0.47281 0.0
H576 H 0.46363 0.72128 0.56397 0.0
H577 H 0.47579 0.69184 0.52958 0.0
H578 H 0.46154 0.72231 0.44825 0.0
H579 H 0.45831 0.69184 0.48296 0.0
H580 H 0.47377 0.91816 0.52924 0.0
H581 H 0.46327 0.88955 0.56391 0.0
H582 H 0.44833 0.91727 0.48428 0.0
H583 H 0.46243 0.89027 0.44956 0.0
C584 C 0.18615 0.49718 0.48955 0.0
C585 C 0.19987 0.53716 0.47323 0.0
C586 C 0.21701 0.57446 0.52375 0.0
C587 C 0.2013 0.53541 0.54011 0.0
N588 N 0.16401 0.46245 0.53922 0.0
N589 N 0.22195 0.61644 0.47498 0.0
C590 C 0.18442 0.49729 0.52319 0.0
C591 C 0.21332 0.57653 0.49038 0.0
N592 N 0.17375 0.45931 0.47292 0.0
N593 N 0.23723 0.60916 0.54005 0.0
H594 H 0.22308 0.61964 0.45059 0.0
H595 H 0.22511 0.6476 0.48638 0.0
H596 H 0.23881 0.61034 0.56453 0.0
H597 H 0.25553 0.63529 0.5294 0.0
H598 H 0.16977 0.42739 0.48305 0.0
H599 H 0.16896 0.45911 0.44855 0.0
H600 H 0.14605 0.43625 0.52839 0.0
H601 H 0.16169 0.46133 0.56375 0.0
C602 C 0.46271 0.24139 0.99205 0.0
C603 C 0.47282 0.20047 0.97576 0.0
C604 C 0.48656 0.16173 0.02613 0.0
C605 C 0.4723 0.20136 0.04239 0.0
N606 N 0.44243 0.27743 0.04168 0.0
N607 N 0.49214 0.12092 0.97652 0.0
C608 C 0.45966 0.24102 0.0256 0.0
C609 C 0.48414 0.1604 0.99261 0.0
N610 N 0.45566 0.2805 0.9754 0.0
N611 N 0.50383 0.12593 0.04281 0.0
H612 H 0.4943 0.11928 0.95199 0.0
H613 H 0.49452 0.08926 0.98726 0.0
H614 H 0.50638 0.12589 0.06735 0.0
H615 H 0.51902 0.09772 0.03247 0.0
H616 H 0.45329 0.31243 0.98578 0.0
H617 H 0.45502 0.28164 0.95081 0.0
H618 H 0.42757 0.30539 0.03084 0.0
H619 H 0.44004 0.2785 0.06624 0.0
C620 C 0.82514 0.50421 0.49357 0.0
C621 C 0.81484 0.46348 0.47686 0.0
C622 C 0.8008 0.42428 0.52715 0.0
C623 C 0.8127 0.46443 0.54389 0.0
N624 N 0.8461 0.53925 0.54336 0.0
N625 N 0.80112 0.38217 0.47837 0.0
C626 C 0.82716 0.50368 0.5272 0.0
C627 C 0.80525 0.42281 0.4938 0.0
N628 N 0.83431 0.54329 0.47737 0.0
N629 N 0.78344 0.38766 0.54294 0.0
H630 H 0.80046 0.3785 0.45403 0.0
H631 H 0.80153 0.35093 0.48984 0.0
H632 H 0.7825 0.38514 0.56735 0.0
H633 H 0.76697 0.36069 0.53183 0.0
H634 H 0.83507 0.57523 0.4879 0.0
H635 H 0.83967 0.54434 0.45308 0.0
H636 H 0.86204 0.56671 0.53254 0.0
H637 H 0.84999 0.53957 0.56781 0.0
C638 C 0.54107 0.84619 0.02264 0.0
C639 C 0.53953 0.8047 0.0398 0.0
C640 C 0.54009 0.76193 0.98983 0.0
C641 C 0.53797 0.80345 0.97293 0.0
N642 N 0.52896 0.88489 0.97318 0.0
N643 N 0.53455 0.72281 0.04003 0.0
C644 C 0.53652 0.84545 0.98933 0.0
C645 C 0.53766 0.76249 0.02346 0.0
N646 N 0.54761 0.88662 0.03791 0.0
N647 N 0.54742 0.72223 0.97386 0.0
H648 H 0.53749 0.72104 0.0645 0.0
H649 H 0.52691 0.69166 0.02967 0.0
H650 H 0.55009 0.72048 0.94936 0.0
H651 H 0.55469 0.6915 0.98482 0.0
H652 H 0.55589 0.91669 0.02634 0.0
H653 H 0.54801 0.89027 0.06228 0.0
H654 H 0.52077 0.91555 0.98401 0.0
H655 H 0.5271 0.88654 0.94873 0.0
C656 C 0.2667 0.30064 0.11124 0.0
C657 C 0.26086 0.32774 0.13869 0.0
C658 C 0.32363 0.28798 0.16507 0.0
C659 C 0.32913 0.26053 0.13776 0.0
N660 N 0.30573 0.23798 0.08552 0.0
N661 N 0.28562 0.35172 0.19029 0.0
C662 C 0.30054 0.26608 0.11102 0.0
C663 C 0.28994 0.32271 0.16521 0.0
N664 N 0.24151 0.30986 0.08483 0.0
N665 N 0.34917 0.27916 0.19138 0.0
H666 H 0.25974 0.37578 0.192 0.0
H667 H 0.30865 0.35379 0.20887 0.0
H668 H 0.37403 0.25397 0.19217 0.0
H669 H 0.34431 0.29462 0.21318 0.0
H670 H 0.24668 0.29482 0.06292 0.0
H671 H 0.2166 0.33501 0.08406 0.0
H672 H 0.28315 0.23624 0.06667 0.0
H673 H 0.33217 0.21457 0.08353 0.0
C674 C 0.73418 0.30487 0.66866 0.0
C675 C 0.73542 0.33828 0.64457 0.0
C676 C 0.66386 0.30803 0.62265 0.0
C677 C 0.66635 0.27068 0.64392 0.0
N678 N 0.7025 0.23439 0.68843 0.0
N679 N 0.70126 0.37197 0.59818 0.0
C680 C 0.70124 0.26932 0.66722 0.0
C681 C 0.69985 0.3404 0.6218 0.0
N682 N 0.76268 0.30889 0.69405 0.0
N683 N 0.62702 0.31326 0.60323 0.0
H684 H 0.72327 0.39956 0.59788 0.0
H685 H 0.68178 0.36981 0.5777 0.0
H686 H 0.6015 0.28924 0.60019 0.0
H687 H 0.61982 0.34327 0.59129 0.0
H688 H 0.76076 0.28852 0.71405 0.0
H689 H 0.78558 0.33573 0.69671 0.0
H690 H 0.73048 0.22745 0.70268 0.0
H691 H 0.67592 0.21126 0.69132 0.0
C692 C 0.74012 0.70441 0.11308 0.0
C693 C 0.74131 0.67289 0.13838 0.0
C694 C 0.67352 0.70813 0.16199 0.0
C695 C 0.67425 0.74151 0.13781 0.0
N696 N 0.70804 0.77303 0.09072 0.0
N697 N 0.71075 0.64433 0.18733 0.0
C698 C 0.7076 0.74015 0.11351 0.0
C699 C 0.70807 0.67428 0.16276 0.0
N700 N 0.76861 0.69861 0.08782 0.0
N701 N 0.63986 0.70905 0.18434 0.0
H702 H 0.73388 0.61764 0.18792 0.0
H703 H 0.69155 0.64656 0.20788 0.0
H704 H 0.61677 0.73568 0.18656 0.0
H705 H 0.6334 0.68287 0.20017 0.0
H706 H 0.76634 0.71694 0.06692 0.0
H707 H 0.79271 0.67274 0.08653 0.0
H708 H 0.73474 0.7779 0.07493 0.0
H709 H 0.68234 0.7971 0.08819 0.0
C710 C 0.3073 0.66795 0.61809 0.0
C711 C 0.27282 0.66616 0.6417 0.0
C712 C 0.30722 0.73288 0.66744 0.0
C713 C 0.33657 0.73844 0.64112 0.0
N714 N 0.35821 0.71624 0.58837 0.0
N715 N 0.24004 0.697 0.68947 0.0
C716 C 0.33499 0.70727 0.61567 0.0
C717 C 0.27268 0.69886 0.66649 0.0
N718 N 0.31466 0.63214 0.59824 0.0
N719 N 0.31383 0.75854 0.69397 0.0
H720 H 0.21744 0.6699 0.6919 0.0
H721 H 0.23427 0.72315 0.70551 0.0
H722 H 0.33936 0.78307 0.69578 0.0
H723 H 0.29686 0.75289 0.71518 0.0
H724 H 0.3424 0.63051 0.58295 0.0
H725 H 0.29672 0.60178 0.59924 0.0
H726 H 0.35415 0.69722 0.56781 0.0
H727 H 0.37772 0.74545 0.58505 0.0
C728 C 0.3331 0.70998 0.39911 0.0
C729 C 0.33699 0.73908 0.37262 0.0
C730 C 0.27443 0.69856 0.34641 0.0
C731 C 0.27202 0.66803 0.37236 0.0
N732 N 0.30709 0.63812 0.41974 0.0
N733 N 0.31803 0.75616 0.31862 0.0
C734 C 0.30397 0.67152 0.39749 0.0
C735 C 0.30938 0.73214 0.34559 0.0
N736 N 0.35542 0.72038 0.42654 0.0
N737 N 0.24361 0.69513 0.32234 0.0
H738 H 0.34374 0.78053 0.31703 0.0
H739 H 0.30249 0.74944 0.29705 0.0
H740 H 0.22068 0.66822 0.32023 0.0
H741 H 0.23952 0.71985 0.30504 0.0
H742 H 0.34975 0.70346 0.44775 0.0
H743 H 0.3763 0.7488 0.42906 0.0
H744 H 0.33316 0.63669 0.43636 0.0
H745 H 0.28658 0.60935 0.42001 0.0
C746 C 0.33051 0.29287 0.85425 0.0
C747 C 0.33141 0.26233 0.88008 0.0
C748 C 0.26457 0.29952 0.90317 0.0
C749 C 0.26518 0.33164 0.87816 0.0
N750 N 0.30431 0.36469 0.83351 0.0
N751 N 0.30559 0.2415 0.9321 0.0
C752 C 0.29998 0.33021 0.85486 0.0
C753 C 0.30002 0.26683 0.90533 0.0
N754 N 0.35738 0.28502 0.82844 0.0
N755 N 0.2304 0.30054 0.92511 0.0
H756 H 0.33161 0.21778 0.93477 0.0
H757 H 0.28707 0.24661 0.95274 0.0
H758 H 0.20618 0.32631 0.92625 0.0
H759 H 0.22464 0.27465 0.94134 0.0
H760 H 0.35461 0.30307 0.80742 0.0
H761 H 0.37978 0.25769 0.82685 0.0
H762 H 0.33203 0.368 0.81835 0.0
H763 H 0.28237 0.39233 0.83267 0.0
C764 C 0.66602 0.30883 0.39571 0.0
C765 C 0.66723 0.27172 0.37417 0.0
C766 C 0.73687 0.30368 0.35034 0.0
C767 C 0.7395 0.33593 0.37521 0.0
N768 N 0.70889 0.36561 0.42407 0.0
N769 N 0.70277 0.23488 0.32956 0.0
C770 C 0.70455 0.33777 0.39839 0.0
C771 C 0.70252 0.2694 0.35115 0.0
N772 N 0.62806 0.31751 0.4134 0.0
N773 N 0.76549 0.3074 0.32499 0.0
H774 H 0.6753 0.2129 0.32628 0.0
H775 H 0.73072 0.22723 0.31542 0.0
H776 H 0.79007 0.33282 0.323 0.0
H777 H 0.76227 0.28814 0.30451 0.0
H778 H 0.62378 0.34734 0.42629 0.0
H779 H 0.59865 0.29798 0.41307 0.0
H780 H 0.68807 0.36323 0.44392 0.0
H781 H 0.73542 0.38858 0.42705 0.0
C782 C 0.73957 0.7038 0.85147 0.0
C783 C 0.7403 0.67269 0.87713 0.0
C784 C 0.67749 0.71368 0.90238 0.0
C785 C 0.6749 0.743 0.87596 0.0
N786 N 0.69737 0.76131 0.82278 0.0
N787 N 0.70168 0.64131 0.92282 0.0
C788 C 0.70442 0.73697 0.8498 0.0
C789 C 0.70664 0.67539 0.90122 0.0
N790 N 0.772 0.7012 0.82838 0.0
N791 N 0.65373 0.72359 0.92929 0.0
H792 H 0.72166 0.61227 0.92317 0.0
H793 H 0.67449 0.63957 0.93857 0.0
H794 H 0.63292 0.75205 0.93151 0.0
H795 H 0.65827 0.70634 0.9505 0.0
H796 H 0.77711 0.72637 0.81151 0.0
H797 H 0.79519 0.67456 0.82668 0.0
H798 H 0.7144 0.75512 0.80167 0.0
H799 H 0.67163 0.78543 0.82056 0.0
loop_
_geom_bond_atom_site_label_1
_geom_bond_atom_site_label_2
_geom_bond_distance
_geom_bond_site_symmetry_2
_ccdc_geom_bond_type
C0 O2 1.247 . S
C0 O4 1.258 . S
C1 O8 1.247 . S
C1 O9 1.258 . S
O2 C0 1.247 . S
O2 Zn3 2.028 . S
Zn3 O2 2.028 . S
Zn3 O7 2.035 . S
Zn3 O9 2.035 . S
Zn3 O10 2.028 . S
O4 C0 1.258 . S
O4 Zn5 2.035 . S
Zn5 O4 2.035 . S
Zn5 O6 2.028 . S
Zn5 O8 2.028 . S
Zn5 O11 2.035 . S
O6 Zn5 2.028 . S
O6 C12 1.247 . S
O7 Zn3 2.035 . S
O7 C12 1.258 . S
O8 C1 1.247 . S
O8 Zn5 2.028 . S
O9 C1 1.258 . S
O9 Zn3 2.035 . S
O10 Zn3 2.028 . S
O10 C13 1.247 . S
O11 Zn5 2.035 . S
O11 C13 1.258 . S
C12 O6 1.247 . S
C12 O7 1.258 . S
C13 O10 1.247 . S
C13 O11 1.258 . S
C14 O16 1.247 . S
C14 O18 1.258 . S
C15 O22 1.247 . S
C15 O23 1.258 . S
O16 C14 1.247 . S
O16 Zn17 2.028 . S
Zn17 O16 2.028 . S
Zn17 O21 2.035 . S
Zn17 O23 2.035 . S
Zn17 O24 2.028 . S
O18 C14 1.258 . S
O18 Zn19 2.035 . S
Zn19 O18 2.035 . S
Zn19 O20 2.028 . S
Zn19 O22 2.028 . S
Zn19 O25 2.035 . S
O20 Zn19 2.028 . S
O20 C26 1.247 . S
O21 Zn17 2.035 . S
O21 C26 1.258 . S
O22 C15 1.247 . S
O22 Zn19 2.028 . S
O23 C15 1.258 . S
O23 Zn17 2.035 . S
O24 Zn17 2.028 . S
O24 C27 1.247 . S
O25 Zn19 2.035 . S
O25 C27 1.258 . S
C26 O20 1.247 . S
C26 O21 1.258 . S
C27 O24 1.247 . S
C27 O25 1.258 . S
C28 O30 1.247 . S
C28 O32 1.258 . S
C29 O36 1.247 . S
C29 O37 1.258 . S
O30 C28 1.247 . S
O30 Zn31 2.028 . S
Zn31 O30 2.028 . S
Zn31 O35 2.035 . S
Zn31 O37 2.035 . S
Zn31 O38 2.028 . S
O32 C28 1.258 . S
O32 Zn33 2.035 . S
Zn33 O32 2.035 . S
Zn33 O34 2.028 . S
Zn33 O36 2.028 . S
Zn33 O39 2.035 . S
O34 Zn33 2.028 . S
O34 C40 1.247 . S
O35 Zn31 2.035 . S
O35 C40 1.258 . S
O36 C29 1.247 . S
O36 Zn33 2.028 . S
O37 C29 1.258 . S
O37 Zn31 2.035 . S
O38 Zn31 2.028 . S
O38 C41 1.247 . S
O39 Zn33 2.035 . S
O39 C41 1.258 . S
C40 O34 1.247 . S
C40 O35 1.258 . S
C41 O38 1.247 . S
C41 O39 1.258 . S
C42 O44 1.247 . S
C42 O46 1.258 . S
C43 O50 1.247 . S
C43 O51 1.258 . S
O44 C42 1.247 . S
O44 Zn45 2.028 . S
Zn45 O44 2.028 . S
Zn45 O49 2.035 . S
Zn45 O51 2.035 . S
Zn45 O52 2.028 . S
O46 C42 1.258 . S
O46 Zn47 2.035 . S
Zn47 O46 2.035 . S
Zn47 O48 2.028 . S
Zn47 O50 2.028 . S
Zn47 O53 2.035 . S
O48 Zn47 2.028 . S
O48 C54 1.247 . S
O49 Zn45 2.035 . S
O49 C54 1.258 . S
O50 C43 1.247 . S
O50 Zn47 2.028 . S
O51 C43 1.258 . S
O51 Zn45 2.035 . S
O52 Zn45 2.028 . S
O52 C55 1.247 . S
O53 Zn47 2.035 . S
O53 C55 1.258 . S
C54 O48 1.247 . S
C54 O49 1.258 . S
C55 O52 1.247 . S
C55 O53 1.258 . S
C56 O58 1.247 . S
C56 O60 1.258 . S
C57 O64 1.247 . S
C57 O65 1.258 . S
O58 C56 1.247 . S
O58 Zn59 2.028 . S
Zn59 O58 2.028 . S
Zn59 O63 2.035 . S
Zn59 O65 2.035 . S
Zn59 O66 2.028 . S
O60 C56 1.258 . S
O60 Zn61 2.035 . S
Zn61 O60 2.035 . S
Zn61 O62 2.028 . S
Zn61 O64 2.028 . S
Zn61 O67 2.035 . S
O62 Zn61 2.028 . S
O62 C68 1.247 . S
O63 Zn59 2.035 . S
O63 C68 1.258 . S
O64 C57 1.247 . S
O64 Zn61 2.028 . S
O65 C57 1.258 . S
O65 Zn59 2.035 . S
O66 Zn59 2.028 . S
O66 C69 1.247 . S
O67 Zn61 2.035 . S
O67 C69 1.258 . S
C68 O62 1.247 . S
C68 O63 1.258 . S
C69 O66 1.247 . S
C69 O67 1.258 . S
C70 O72 1.247 . S
C70 O74 1.258 . S
C71 O78 1.247 . S
C71 O79 1.258 . S
O72 C70 1.247 . S
O72 Zn73 2.028 . S
Zn73 O72 2.028 . S
Zn73 O77 2.035 . S
Zn73 O79 2.035 . S
Zn73 O80 2.028 . S
O74 C70 1.258 . S
O74 Zn75 2.035 . S
Zn75 O74 2.035 . S
Zn75 O76 2.028 . S
Zn75 O78 2.028 . S
Zn75 O81 2.035 . S
O76 Zn75 2.028 . S
O76 C82 1.247 . S
O77 Zn73 2.035 . S
O77 C82 1.258 . S
O78 C71 1.247 . S
O78 Zn75 2.028 . S
O79 C71 1.258 . S
O79 Zn73 2.035 . S
O80 Zn73 2.028 . S
O80 C83 1.247 . S
O81 Zn75 2.035 . S
O81 C83 1.258 . S
C82 O76 1.247 . S
C82 O77 1.258 . S
C83 O80 1.247 . S
C83 O81 1.258 . S
C84 O86 1.247 . S
C84 O88 1.258 . S
C85 O92 1.247 . S
C85 O93 1.258 . S
O86 C84 1.247 . S
O86 Zn87 2.028 . S
Zn87 O86 2.028 . S
Zn87 O91 2.035 . S
Zn87 O93 2.035 . S
Zn87 O94 2.028 . S
O88 C84 1.258 . S
O88 Zn89 2.035 . S
Zn89 O88 2.035 . S
Zn89 O90 2.028 . S
Zn89 O92 2.028 . S
Zn89 O95 2.035 . S
O90 Zn89 2.028 . S
O90 C96 1.247 . S
O91 Zn87 2.035 . S
O91 C96 1.258 . S
O92 C85 1.247 . S
O92 Zn89 2.028 . S
O93 C85 1.258 . S
O93 Zn87 2.035 . S
O94 Zn87 2.028 . S
O94 C97 1.247 . S
O95 Zn89 2.035 . S
O95 C97 1.258 . S
C96 O90 1.247 . S
C96 O91 1.258 . S
C97 O94 1.247 . S
C97 O95 1.258 . S
C98 O100 1.247 . S
C98 O102 1.258 . S
C99 O106 1.247 . S
C99 O107 1.258 . S
O100 C98 1.247 . S
O100 Zn101 2.028 . S
Zn101 O100 2.028 . S
Zn101 O105 2.035 . S
Zn101 O107 2.035 . S
Zn101 O108 2.028 . S
O102 C98 1.258 . S
O102 Zn103 2.035 . S
Zn103 O102 2.035 . S
Zn103 O104 2.028 . S
Zn103 O106 2.028 . S
Zn103 O109 2.035 . S
O104 Zn103 2.028 . S
O104 C110 1.247 . S
O105 Zn101 2.035 . S
O105 C110 1.258 . S
O106 C99 1.247 . S
O106 Zn103 2.028 . S
O107 C99 1.258 . S
O107 Zn101 2.035 . S
O108 Zn101 2.028 . S
O108 C111 1.247 . S
O109 Zn103 2.035 . S
O109 C111 1.258 . S
C110 O104 1.247 . S
C110 O105 1.258 . S
C111 O108 1.247 . S
C111 O109 1.258 . S
C112 O114 1.247 . S
C112 O116 1.258 . S
C113 O120 1.247 . S
C113 O121 1.258 . S
O114 C112 1.247 . S
O114 Zn115 2.028 . S
Zn115 O114 2.028 . S
Zn115 O119 2.035 . S
Zn115 O121 2.035 . S
Zn115 O122 2.028 . S
O116 C112 1.258 . S
O116 Zn117 2.035 . S
Zn117 O116 2.035 . S
Zn117 O118 2.028 . S
Zn117 O120 2.028 . S
Zn117 O123 2.035 . S
O118 Zn117 2.028 . S
O118 C124 1.247 . S
O119 Zn115 2.035 . S
O119 C124 1.258 . S
O120 C113 1.247 . S
O120 Zn117 2.028 . S
O121 C113 1.258 . S
O121 Zn115 2.035 . S
O122 Zn115 2.028 . S
O122 C125 1.247 . S
O123 Zn117 2.035 . S
O123 C125 1.258 . S
C124 O118 1.247 . S
C124 O119 1.258 . S
C125 O122 1.247 . S
C125 O123 1.258 . S
C126 O128 1.247 . S
C126 O130 1.258 . S
C127 O134 1.247 . S
C127 O135 1.258 . S
O128 C126 1.247 . S
O128 Zn129 2.028 . S
Zn129 O128 2.028 . S
Zn129 O133 2.035 . S
Zn129 O135 2.035 . S
Zn129 O136 2.028 . S
O130 C126 1.258 . S
O130 Zn131 2.035 . S
Zn131 O130 2.035 . S
Zn131 O132 2.028 . S
Zn131 O134 2.028 . S
Zn131 O137 2.035 . S
O132 Zn131 2.028 . S
O132 C138 1.247 . S
O133 Zn129 2.035 . S
O133 C138 1.258 . S
O134 C127 1.247 . S
O134 Zn131 2.028 . S
O135 C127 1.258 . S
O135 Zn129 2.035 . S
O136 Zn129 2.028 . S
O136 C139 1.247 . S
O137 Zn131 2.035 . S
O137 C139 1.258 . S
C138 O132 1.247 . S
C138 O133 1.258 . S
C139 O136 1.247 . S
C139 O137 1.258 . S
C140 O142 1.247 . S
C140 O144 1.258 . S
C141 O148 1.247 . S
C141 O149 1.258 . S
O142 C140 1.247 . S
O142 Zn143 2.028 . S
Zn143 O142 2.028 . S
Zn143 O147 2.035 . S
Zn143 O149 2.035 . S
Zn143 O150 2.028 . S
O144 C140 1.258 . S
O144 Zn145 2.035 . S
Zn145 O144 2.035 . S
Zn145 O146 2.028 . S
Zn145 O148 2.028 . S
Zn145 O151 2.035 . S
O146 Zn145 2.028 . S
O146 C152 1.247 . S
O147 Zn143 2.035 . S
O147 C152 1.258 . S
O148 C141 1.247 . S
O148 Zn145 2.028 . S
O149 C141 1.258 . S
O149 Zn143 2.035 . S
O150 Zn143 2.028 . S
O150 C153 1.247 . S
O151 Zn145 2.035 . S
O151 C153 1.258 . S
C152 O146 1.247 . S
C152 O147 1.258 . S
C153 O150 1.247 . S
C153 O151 1.258 . S
C154 O156 1.247 . S
C154 O158 1.258 . S
C155 O162 1.247 . S
C155 O163 1.258 . S
O156 C154 1.247 . S
O156 Zn157 2.028 . S
Zn157 O156 2.028 . S
Zn157 O161 2.035 . S
Zn157 O163 2.035 . S
Zn157 O164 2.028 . S
O158 C154 1.258 . S
O158 Zn159 2.035 . S
Zn159 O158 2.035 . S
Zn159 O160 2.028 . S
Zn159 O162 2.028 . S
Zn159 O165 2.035 . S
O160 Zn159 2.028 . S
O160 C166 1.247 . S
O161 Zn157 2.035 . S
O161 C166 1.258 . S
O162 C155 1.247 . S
O162 Zn159 2.028 . S
O163 C155 1.258 . S
O163 Zn157 2.035 . S
O164 Zn157 2.028 . S
O164 C167 1.247 . S
O165 Zn159 2.035 . S
O165 C167 1.258 . S
C166 O160 1.247 . S
C166 O161 1.258 . S
C167 O164 1.247 . S
C167 O165 1.258 . S
C168 O170 1.247 . S
C168 O172 1.258 . S
C169 O176 1.247 . S
C169 O177 1.258 . S
O170 C168 1.247 . S
O170 Zn171 2.028 . S
Zn171 O170 2.028 . S
Zn171 O175 2.035 . S
Zn171 O177 2.035 . S
Zn171 O178 2.028 . S
O172 C168 1.258 . S
O172 Zn173 2.035 . S
Zn173 O172 2.035 . S
Zn173 O174 2.028 . S
Zn173 O176 2.028 . S
Zn173 O179 2.035 . S
O174 Zn173 2.028 . S
O174 C180 1.247 . S
O175 Zn171 2.035 . S
O175 C180 1.258 . S
O176 C169 1.247 . S
O176 Zn173 2.028 . S
O177 C169 1.258 . S
O177 Zn171 2.035 . S
O178 Zn171 2.028 . S
O178 C181 1.247 . S
O179 Zn173 2.035 . S
O179 C181 1.258 . S
C180 O174 1.247 . S
C180 O175 1.258 . S
C181 O178 1.247 . S
C181 O179 1.258 . S
C182 O184 1.247 . S
C182 O186 1.258 . S
C183 O190 1.247 . S
C183 O191 1.258 . S
O184 C182 1.247 . S
O184 Zn185 2.028 . S
Zn185 O184 2.028 . S
Zn185 O189 2.035 . S
Zn185 O191 2.035 . S
Zn185 O192 2.028 . S
O186 C182 1.258 . S
O186 Zn187 2.035 . S
Zn187 O186 2.035 . S
Zn187 O188 2.028 . S
Zn187 O190 2.028 . S
Zn187 O193 2.035 . S
O188 Zn187 2.028 . S
O188 C194 1.247 . S
O189 Zn185 2.035 . S
O189 C194 1.258 . S
O190 C183 1.247 . S
O190 Zn187 2.028 . S
O191 C183 1.258 . S
O191 Zn185 2.035 . S
O192 Zn185 2.028 . S
O192 C195 1.247 . S
O193 Zn187 2.035 . S
O193 C195 1.258 . S
C194 O188 1.247 . S
C194 O189 1.258 . S
C195 O192 1.247 . S
C195 O193 1.258 . S
C196 O198 1.247 . S
C196 O200 1.258 . S
C197 O204 1.247 . S
C197 O205 1.258 . S
O198 C196 1.247 . S
O198 Zn199 2.028 . S
Zn199 O198 2.028 . S
Zn199 O203 2.035 . S
Zn199 O205 2.035 . S
Zn199 O206 2.028 . S
O200 C196 1.258 . S
O200 Zn201 2.035 . S
Zn201 O200 2.035 . S
Zn201 O202 2.028 . S
Zn201 O204 2.028 . S
Zn201 O207 2.035 . S
O202 Zn201 2.028 . S
O202 C208 1.247 . S
O203 Zn199 2.035 . S
O203 C208 1.258 . S
O204 C197 1.247 . S
O204 Zn201 2.028 . S
O205 C197 1.258 . S
O205 Zn199 2.035 . S
O206 Zn199 2.028 . S
O206 C209 1.247 . S
O207 Zn201 2.035 . S
O207 C209 1.258 . S
C208 O202 1.247 . S
C208 O203 1.258 . S
C209 O206 1.247 . S
C209 O207 1.258 . S
C210 O212 1.247 . S
C210 O214 1.258 . S
C211 O218 1.247 . S
C211 O219 1.258 . S
O212 C210 1.247 . S
O212 Zn213 2.028 . S
Zn213 O212 2.028 . S
Zn213 O217 2.035 . S
Zn213 O219 2.035 . S
Zn213 O220 2.028 . S
O214 C210 1.258 . S
O214 Zn215 2.035 . S
Zn215 O214 2.035 . S
Zn215 O216 2.028 . S
Zn215 O218 2.028 . S
Zn215 O221 2.035 . S
O216 Zn215 2.028 . S
O216 C222 1.247 . S
O217 Zn213 2.035 . S
O217 C222 1.258 . S
O218 C211 1.247 . S
O218 Zn215 2.028 . S
O219 C211 1.258 . S
O219 Zn213 2.035 . S
O220 Zn213 2.028 . S
O220 C223 1.247 . S
O221 Zn215 2.035 . S
O221 C223 1.258 . S
C222 O216 1.247 . S
C222 O217 1.258 . S
C223 O220 1.247 . S
C223 O221 1.258 . S
C224 C225 1.363 . S
C224 C230 1.379 1_455 S
C224 N232 1.356 . S
C225 C224 1.363 . S
C225 C231 1.363 . S
C226 C227 1.363 . S
C226 C231 1.379 1_655 S
C226 N233 1.356 . S
C227 C226 1.363 . S
C227 C230 1.363 . S
N228 C230 1.356 . S
N228 H240 0.984 . S
N228 H241 0.985 . S
N229 C231 1.356 . S
N229 H234 0.984 . S
N229 H235 0.985 . S
C230 C224 1.379 1_655 S
C230 C227 1.363 . S
C230 N228 1.356 . S
C231 C225 1.363 . S
C231 C226 1.379 1_455 S
C231 N229 1.356 . S
N232 C224 1.356 . S
N232 H238 0.984 . S
N232 H239 0.984 . S
N233 C226 1.356 . S
N233 H236 0.984 . S
N233 H237 0.985 . S
H234 N229 0.984 . S
H235 N229 0.985 . S
H236 N233 0.984 . S
H237 N233 0.985 . S
H238 N232 0.984 . S
H239 N232 0.984 . S
H240 N228 0.984 . S
H241 N228 0.985 . S
C242 C243 1.363 . S
C242 C248 1.379 1_565 S
C242 N250 1.356 . S
C243 C242 1.363 . S
C243 C249 1.363 . S
C244 C245 1.363 . S
C244 C249 1.379 1_545 S
C244 N251 1.356 . S
C245 C244 1.363 . S
C245 C248 1.363 . S
N246 C248 1.356 . S
N246 H258 0.984 . S
N246 H259 0.985 . S
N247 C249 1.356 . S
N247 H252 0.984 . S
N247 H253 0.985 . S
C248 C242 1.379 1_545 S
C248 C245 1.363 . S
C248 N246 1.356 . S
C249 C243 1.363 . S
C249 C244 1.379 1_565 S
C249 N247 1.356 . S
N250 C242 1.356 . S
N250 H256 0.984 . S
N250 H257 0.984 . S
N251 C244 1.356 . S
N251 H254 0.984 . S
N251 H255 0.985 . S
H252 N247 0.984 . S
H253 N247 0.985 . S
H254 N251 0.984 . S
H255 N251 0.985 . S
H256 N250 0.984 . S
H257 N250 0.984 . S
H258 N246 0.984 . S
H259 N246 0.985 . S
C260 C261 1.363 . S
C260 C266 1.379 1_455 S
C260 N268 1.356 . S
C261 C260 1.363 . S
C261 C267 1.363 . S
C262 C263 1.363 . S
C262 C267 1.379 1_655 S
C262 N269 1.356 . S
C263 C262 1.363 . S
C263 C266 1.363 . S
N264 C266 1.356 . S
N264 H276 0.984 . S
N264 H277 0.985 . S
N265 C267 1.356 . S
N265 H270 0.984 . S
N265 H271 0.985 . S
C266 C260 1.379 1_655 S
C266 C263 1.363 . S
C266 N264 1.356 . S
C267 C261 1.363 . S
C267 C262 1.379 1_455 S
C267 N265 1.356 . S
N268 C260 1.356 . S
N268 H274 0.984 . S
N268 H275 0.984 . S
N269 C262 1.356 . S
N269 H272 0.984 . S
N269 H273 0.985 . S
H270 N265 0.984 . S
H271 N265 0.985 . S
H272 N269 0.984 . S
H273 N269 0.985 . S
H274 N268 0.984 . S
H275 N268 0.984 . S
H276 N264 0.984 . S
H277 N264 0.985 . S
C278 C279 1.363 . S
C278 C284 1.379 1_565 S
C278 N286 1.356 . S
C279 C278 1.363 . S
C279 C285 1.363 . S
C280 C281 1.363 . S
C280 C285 1.379 1_545 S
C280 N287 1.356 . S
C281 C280 1.363 . S
C281 C284 1.363 . S
N282 C284 1.356 . S
N282 H294 0.984 . S
N282 H295 0.985 . S
N283 C285 1.356 . S
N283 H288 0.984 . S
N283 H289 0.985 . S
C284 C278 1.379 1_545 S
C284 C281 1.363 . S
C284 N282 1.356 . S
C285 C279 1.363 . S
C285 C280 1.379 1_565 S
C285 N283 1.356 . S
N286 C278 1.356 . S
N286 H292 0.984 . S
N286 H293 0.984 . S
N287 C280 1.356 . S
N287 H290 0.984 . S
N287 H291 0.985 . S
H288 N283 0.984 . S
H289 N283 0.985 . S
H290 N287 0.984 . S
H291 N287 0.985 . S
H292 N286 0.984 . S
H293 N286 0.984 . S
H294 N282 0.984 . S
H295 N282 0.985 . S
C296 C297 1.363 . S
C296 C302 1.379 1_655 S
C296 N304 1.356 . S
C297 C296 1.363 . S
C297 C303 1.363 . S
C298 C299 1.363 . S
C298 C303 1.379 1_455 S
C298 N305 1.356 . S
C299 C298 1.363 . S
C299 C302 1.363 . S
N300 C302 1.356 . S
N300 H312 0.984 . S
N300 H313 0.985 . S
N301 C303 1.356 . S
N301 H306 0.984 . S
N301 H307 0.985 . S
C302 C296 1.379 1_455 S
C302 C299 1.363 . S
C302 N300 1.356 . S
C303 C297 1.363 . S
C303 C298 1.379 1_655 S
C303 N301 1.356 . S
N304 C296 1.356 . S
N304 H310 0.984 . S
N304 H311 0.984 . S
N305 C298 1.356 . S
N305 H308 0.984 . S
N305 H309 0.985 . S
H306 N301 0.984 . S
H307 N301 0.985 . S
H308 N305 0.984 . S
H309 N305 0.985 . S
H310 N304 0.984 . S
H311 N304 0.984 . S
H312 N300 0.984 . S
H313 N300 0.985 . S
C314 C315 1.363 . S
C314 C320 1.379 1_545 S
C314 N322 1.356 . S
C315 C314 1.363 . S
C315 C321 1.363 . S
C316 C317 1.363 . S
C316 C321 1.379 1_565 S
C316 N323 1.356 . S
C317 C316 1.363 . S
C317 C320 1.363 . S
N318 C320 1.356 . S
N318 H330 0.984 . S
N318 H331 0.985 . S
N319 C321 1.356 . S
N319 H324 0.984 . S
N319 H325 0.985 . S
C320 C314 1.379 1_565 S
C320 C317 1.363 . S
C320 N318 1.356 . S
C321 C315 1.363 . S
C321 C316 1.379 1_545 S
C321 N319 1.356 . S
N322 C314 1.356 . S
N322 H328 0.984 . S
N322 H329 0.984 . S
N323 C316 1.356 . S
N323 H326 0.984 . S
N323 H327 0.985 . S
H324 N319 0.984 . S
H325 N319 0.985 . S
H326 N323 0.984 . S
H327 N323 0.985 . S
H328 N322 0.984 . S
H329 N322 0.984 . S
H330 N318 0.984 . S
H331 N318 0.985 . S
C332 C333 1.363 . S
C332 C338 1.379 1_655 S
C332 N340 1.356 . S
C333 C332 1.363 . S
C333 C339 1.363 . S
C334 C335 1.363 . S
C334 C339 1.379 1_455 S
C334 N341 1.356 . S
C335 C334 1.363 . S
C335 C338 1.363 . S
N336 C338 1.356 . S
N336 H348 0.984 . S
N336 H349 0.985 . S
N337 C339 1.356 . S
N337 H342 0.984 . S
N337 H343 0.985 . S
C338 C332 1.379 1_455 S
C338 C335 1.363 . S
C338 N336 1.356 . S
C339 C333 1.363 . S
C339 C334 1.379 1_655 S
C339 N337 1.356 . S
N340 C332 1.356 . S
N340 H346 0.984 . S
N340 H347 0.984 . S
N341 C334 1.356 . S
N341 H344 0.984 . S
N341 H345 0.985 . S
H342 N337 0.984 . S
H343 N337 0.985 . S
H344 N341 0.984 . S
H345 N341 0.985 . S
H346 N340 0.984 . S
H347 N340 0.984 . S
H348 N336 0.984 . S
H349 N336 0.985 . S
C350 C351 1.363 . S
C350 C356 1.379 1_545 S
C350 N358 1.356 . S
C351 C350 1.363 . S
C351 C357 1.363 . S
C352 C353 1.363 . S
C352 C357 1.379 1_565 S
C352 N359 1.356 . S
C353 C352 1.363 . S
C353 C356 1.363 . S
N354 C356 1.356 . S
N354 H366 0.984 . S
N354 H367 0.985 . S
N355 C357 1.356 . S
N355 H360 0.984 . S
N355 H361 0.985 . S
C356 C350 1.379 1_565 S
C356 C353 1.363 . S
C356 N354 1.356 . S
C357 C351 1.363 . S
C357 C352 1.379 1_545 S
C357 N355 1.356 . S
N358 C350 1.356 . S
N358 H364 0.984 . S
N358 H365 0.984 . S
N359 C352 1.356 . S
N359 H362 0.984 . S
N359 H363 0.985 . S
H360 N355 0.984 . S
H361 N355 0.985 . S
H362 N359 0.984 . S
H363 N359 0.985 . S
H364 N358 0.984 . S
H365 N358 0.984 . S
H366 N354 0.984 . S
H367 N354 0.985 . S
C368 C369 1.363 . S
C368 C374 1.379 . S
C368 N376 1.356 . S
C369 C368 1.363 . S
C369 C375 1.363 . S
C370 C371 1.363 . S
C370 C375 1.379 . S
C370 N377 1.356 . S
C371 C370 1.363 . S
C371 C374 1.363 . S
N372 C374 1.356 . S
N372 H384 0.984 . S
N372 H385 0.985 . S
N373 C375 1.356 . S
N373 H378 0.984 . S
N373 H379 0.985 . S
C374 C368 1.379 . S
C374 C371 1.363 . S
C374 N372 1.356 . S
C375 C369 1.363 . S
C375 C370 1.379 . S
C375 N373 1.356 . S
N376 C368 1.356 . S
N376 H382 0.984 . S
N376 H383 0.984 . S
N377 C370 1.356 . S
N377 H380 0.984 . S
N377 H381 0.985 . S
H378 N373 0.984 . S
H379 N373 0.985 . S
H380 N377 0.984 . S
H381 N377 0.985 . S
H382 N376 0.984 . S
H383 N376 0.984 . S
H384 N372 0.984 . S
H385 N372 0.985 . S
C386 C387 1.363 . S
C386 C392 1.379 . S
C386 N394 1.356 . S
C387 C386 1.363 . S
C387 C393 1.363 . S
C388 C389 1.363 . S
C388 C393 1.379 . S
C388 N395 1.356 . S
C389 C388 1.363 . S
C389 C392 1.363 . S
N390 C392 1.356 . S
N390 H402 0.984 . S
N390 H403 0.985 . S
N391 C393 1.356 . S
N391 H396 0.984 . S
N391 H397 0.985 . S
C392 C386 1.379 . S
C392 C389 1.363 . S
C392 N390 1.356 . S
C393 C387 1.363 . S
C393 C388 1.379 . S
C393 N391 1.356 . S
N394 C386 1.356 . S
N394 H400 0.984 . S
N394 H401 0.984 . S
N395 C388 1.356 . S
N395 H398 0.984 . S
N395 H399 0.985 . S
H396 N391 0.984 . S
H397 N391 0.985 . S
H398 N395 0.984 . S
H399 N395 0.985 . S
H400 N394 0.984 . S
H401 N394 0.984 . S
H402 N390 0.984 . S
H403 N390 0.985 . S
C404 C405 1.363 . S
C404 C410 1.379 . S
C404 N412 1.356 . S
C405 C404 1.363 . S
C405 C411 1.363 . S
C406 C407 1.363 . S
C406 C411 1.379 . S
C406 N413 1.356 . S
C407 C406 1.363 . S
C407 C410 1.363 . S
N408 C410 1.356 . S
N408 H420 0.984 . S
N408 H421 0.985 . S
N409 C411 1.356 . S
N409 H414 0.984 . S
N409 H415 0.985 . S
C410 C404 1.379 . S
C410 C407 1.363 . S
C410 N408 1.356 . S
C411 C405 1.363 . S
C411 C406 1.379 . S
C411 N409 1.356 . S
N412 C404 1.356 . S
N412 H418 0.984 . S
N412 H419 0.984 . S
N413 C406 1.356 . S
N413 H416 0.984 . S
N413 H417 0.985 . S
H414 N409 0.984 . S
H415 N409 0.985 . S
H416 N413 0.984 . S
H417 N413 0.985 . S
H418 N412 0.984 . S
H419 N412 0.984 . S
H420 N408 0.984 . S
H421 N408 0.985 . S
C422 C423 1.363 . S
C422 C428 1.379 . S
C422 N430 1.356 . S
C423 C422 1.363 . S
C423 C429 1.363 . S
C424 C425 1.363 . S
C424 C429 1.379 . S
C424 N431 1.356 . S
C425 C424 1.363 . S
C425 C428 1.363 . S
N426 C428 1.356 . S
N426 H438 0.984 . S
N426 H439 0.985 . S
N427 C429 1.356 . S
N427 H432 0.984 . S
N427 H433 0.985 . S
C428 C422 1.379 . S
C428 C425 1.363 . S
C428 N426 1.356 . S
C429 C423 1.363 . S
C429 C424 1.379 . S
C429 N427 1.356 . S
N430 C422 1.356 . S
N430 H436 0.984 . S
N430 H437 0.984 . S
N431 C424 1.356 . S
N431 H434 0.984 . S
N431 H435 0.985 . S
H432 N427 0.984 . S
H433 N427 0.985 . S
H434 N431 0.984 . S
H435 N431 0.985 . S
H436 N430 0.984 . S
H437 N430 0.984 . S
H438 N426 0.984 . S
H439 N426 0.985 . S
C440 C441 1.363 . S
C440 C446 1.379 . S
C440 N448 1.356 . S
C441 C440 1.363 . S
C441 C447 1.363 . S
C442 C443 1.363 . S
C442 C447 1.379 . S
C442 N449 1.356 . S
C443 C442 1.363 . S
C443 C446 1.363 . S
N444 C446 1.356 . S
N444 H456 0.984 . S
N444 H457 0.985 . S
N445 C447 1.356 . S
N445 H450 0.984 . S
N445 H451 0.985 . S
C446 C440 1.379 . S
C446 C443 1.363 . S
C446 N444 1.356 . S
C447 C441 1.363 . S
C447 C442 1.379 . S
C447 N445 1.356 . S
N448 C440 1.356 . S
N448 H454 0.984 . S
N448 H455 0.984 . S
N449 C442 1.356 . S
N449 H452 0.984 . S
N449 H453 0.985 . S
H450 N445 0.984 . S
H451 N445 0.985 . S
H452 N449 0.984 . S
H453 N449 0.985 . S
H454 N448 0.984 . S
H455 N448 0.984 . S
H456 N444 0.984 . S
H457 N444 0.985 . S
C458 C459 1.363 . S
C458 C464 1.379 . S
C458 N466 1.356 . S
C459 C458 1.363 . S
C459 C465 1.363 . S
C460 C461 1.363 . S
C460 C465 1.379 . S
C460 N467 1.356 . S
C461 C460 1.363 . S
C461 C464 1.363 . S
N462 C464 1.356 . S
N462 H474 0.984 . S
N462 H475 0.985 . S
N463 C465 1.356 . S
N463 H468 0.984 . S
N463 H469 0.985 . S
C464 C458 1.379 . S
C464 C461 1.363 . S
C464 N462 1.356 . S
C465 C459 1.363 . S
C465 C460 1.379 . S
C465 N463 1.356 . S
N466 C458 1.356 . S
N466 H472 0.984 . S
N466 H473 0.984 . S
N467 C460 1.356 . S
N467 H470 0.984 . S
N467 H471 0.985 . S
H468 N463 0.984 . S
H469 N463 0.985 . S
H470 N467 0.984 . S
H471 N467 0.985 . S
H472 N466 0.984 . S
H473 N466 0.984 . S
H474 N462 0.984 . S
H475 N462 0.985 . S
C476 C477 1.363 . S
C476 C482 1.379 . S
C476 N484 1.356 . S
C477 C476 1.363 . S
C477 C483 1.363 . S
C478 C479 1.363 . S
C478 C483 1.379 . S
C478 N485 1.356 . S
C479 C478 1.363 . S
C479 C482 1.363 . S
N480 C482 1.356 . S
N480 H492 0.984 . S
N480 H493 0.985 . S
N481 C483 1.356 . S
N481 H486 0.984 . S
N481 H487 0.985 . S
C482 C476 1.379 . S
C482 C479 1.363 . S
C482 N480 1.356 . S
C483 C477 1.363 . S
C483 C478 1.379 . S
C483 N481 1.356 . S
N484 C476 1.356 . S
N484 H490 0.984 . S
N484 H491 0.984 . S
N485 C478 1.356 . S
N485 H488 0.984 . S
N485 H489 0.985 . S
H486 N481 0.984 . S
H487 N481 0.985 . S
H488 N485 0.984 . S
H489 N485 0.985 . S
H490 N484 0.984 . S
H491 N484 0.984 . S
H492 N480 0.984 . S
H493 N480 0.985 . S
C494 C495 1.363 . S
C494 C500 1.379 . S
C494 N502 1.356 . S
C495 C494 1.363 . S
C495 C501 1.363 . S
C496 C497 1.363 . S
C496 C501 1.379 . S
C496 N503 1.356 . S
C497 C496 1.363 . S
C497 C500 1.363 . S
N498 C500 1.356 . S
N498 H510 0.984 . S
N498 H511 0.985 . S
N499 C501 1.356 . S
N499 H504 0.984 . S
N499 H505 0.985 . S
C500 C494 1.379 . S
C500 C497 1.363 . S
C500 N498 1.356 . S
C501 C495 1.363 . S
C501 C496 1.379 . S
C501 N499 1.356 . S
N502 C494 1.356 . S
N502 H508 0.984 . S
N502 H509 0.984 . S
N503 C496 1.356 . S
N503 H506 0.984 . S
N503 H507 0.985 . S
H504 N499 0.984 . S
H505 N499 0.985 . S
H506 N503 0.984 . S
H507 N503 0.985 . S
H508 N502 0.984 . S
H509 N502 0.984 . S
H510 N498 0.984 . S
H511 N498 0.985 . S
C512 C513 1.363 . S
C512 C518 1.379 1_556 S
C512 N520 1.356 . S
C513 C512 1.363 . S
C513 C519 1.363 . S
C514 C515 1.363 . S
C514 C519 1.379 1_554 S
C514 N521 1.356 . S
C515 C514 1.363 . S
C515 C518 1.363 . S
N516 C518 1.356 . S
N516 H528 0.984 . S
N516 H529 0.985 . S
N517 C519 1.356 . S
N517 H522 0.984 . S
N517 H523 0.985 . S
C518 C512 1.379 1_554 S
C518 C515 1.363 . S
C518 N516 1.356 . S
C519 C513 1.363 . S
C519 C514 1.379 1_556 S
C519 N517 1.356 . S
N520 C512 1.356 . S
N520 H526 0.984 . S
N520 H527 0.984 . S
N521 C514 1.356 . S
N521 H524 0.984 . S
N521 H525 0.985 . S
H522 N517 0.984 . S
H523 N517 0.985 . S
H524 N521 0.984 . S
H525 N521 0.985 . S
H526 N520 0.984 . S
H527 N520 0.984 . S
H528 N516 0.984 . S
H529 N516 0.985 . S
C530 C531 1.363 . S
C530 C536 1.379 . S
C530 N538 1.356 . S
C531 C530 1.363 . S
C531 C537 1.363 . S
C532 C533 1.363 . S
C532 C537 1.379 . S
C532 N539 1.356 . S
C533 C532 1.363 . S
C533 C536 1.363 . S
N534 C536 1.356 . S
N534 H546 0.984 . S
N534 H547 0.985 . S
N535 C537 1.356 . S
N535 H540 0.984 . S
N535 H541 0.985 . S
C536 C530 1.379 . S
C536 C533 1.363 . S
C536 N534 1.356 . S
C537 C531 1.363 . S
C537 C532 1.379 . S
C537 N535 1.356 . S
N538 C530 1.356 . S
N538 H544 0.984 . S
N538 H545 0.984 . S
N539 C532 1.356 . S
N539 H542 0.984 . S
N539 H543 0.985 . S
H540 N535 0.984 . S
H541 N535 0.985 . S
H542 N539 0.984 . S
H543 N539 0.985 . S
H544 N538 0.984 . S
H545 N538 0.984 . S
H546 N534 0.984 . S
H547 N534 0.985 . S
C548 C549 1.363 . S
C548 C554 1.379 1_554 S
C548 N556 1.356 . S
C549 C548 1.363 . S
C549 C555 1.363 . S
C550 C551 1.363 . S
C550 C555 1.379 1_556 S
C550 N557 1.356 . S
C551 C550 1.363 . S
C551 C554 1.363 . S
N552 C554 1.356 . S
N552 H564 0.984 . S
N552 H565 0.985 . S
N553 C555 1.356 . S
N553 H558 0.984 . S
N553 H559 0.985 . S
C554 C548 1.379 1_556 S
C554 C551 1.363 . S
C554 N552 1.356 . S
C555 C549 1.363 . S
C555 C550 1.379 1_554 S
C555 N553 1.356 . S
N556 C548 1.356 . S
N556 H562 0.984 . S
N556 H563 0.984 . S
N557 C550 1.356 . S
N557 H560 0.984 . S
N557 H561 0.985 . S
H558 N553 0.984 . S
H559 N553 0.985 . S
H560 N557 0.984 . S
H561 N557 0.985 . S
H562 N556 0.984 . S
H563 N556 0.984 . S
H564 N552 0.984 . S
H565 N552 0.985 . S
C566 C567 1.363 . S
C566 C572 1.379 . S
C566 N574 1.356 . S
C567 C566 1.363 . S
C567 C573 1.363 . S
C568 C569 1.363 . S
C568 C573 1.379 . S
C568 N575 1.356 . S
C569 C568 1.363 . S
C569 C572 1.363 . S
N570 C572 1.356 . S
N570 H582 0.984 . S
N570 H583 0.985 . S
N571 C573 1.356 . S
N571 H576 0.984 . S
N571 H577 0.985 . S
C572 C566 1.379 . S
C572 C569 1.363 . S
C572 N570 1.356 . S
C573 C567 1.363 . S
C573 C568 1.379 . S
C573 N571 1.356 . S
N574 C566 1.356 . S
N574 H580 0.984 . S
N574 H581 0.984 . S
N575 C568 1.356 . S
N575 H578 0.984 . S
N575 H579 0.985 . S
H576 N571 0.984 . S
H577 N571 0.985 . S
H578 N575 0.984 . S
H579 N575 0.985 . S
H580 N574 0.984 . S
H581 N574 0.984 . S
H582 N570 0.984 . S
H583 N570 0.985 . S
C584 C585 1.363 . S
C584 C590 1.379 . S
C584 N592 1.356 . S
C585 C584 1.363 . S
C585 C591 1.363 . S
C586 C587 1.363 . S
C586 C591 1.379 . S
C586 N593 1.356 . S
C587 C586 1.363 . S
C587 C590 1.363 . S
N588 C590 1.356 . S
N588 H600 0.984 . S
N588 H601 0.985 . S
N589 C591 1.356 . S
N589 H594 0.984 . S
N589 H595 0.985 . S
C590 C584 1.379 . S
C590 C587 1.363 . S
C590 N588 1.356 . S
C591 C585 1.363 . S
C591 C586 1.379 . S
C591 N589 1.356 . S
N592 C584 1.356 . S
N592 H598 0.984 . S
N592 H599 0.984 . S
N593 C586 1.356 . S
N593 H596 0.984 . S
N593 H597 0.985 . S
H594 N589 0.984 . S
H595 N589 0.985 . S
H596 N593 0.984 . S
H597 N593 0.985 . S
H598 N592 0.984 . S
H599 N592 0.984 . S
H600 N588 0.984 . S
H601 N588 0.985 . S
C602 C603 1.363 . S
C602 C608 1.379 1_556 S
C602 N610 1.356 . S
C603 C602 1.363 . S
C603 C609 1.363 . S
C604 C605 1.363 . S
C604 C609 1.379 1_554 S
C604 N611 1.356 . S
C605 C604 1.363 . S
C605 C608 1.363 . S
N606 C608 1.356 . S
N606 H618 0.984 . S
N606 H619 0.985 . S
N607 C609 1.356 . S
N607 H612 0.984 . S
N607 H613 0.985 . S
C608 C602 1.379 1_554 S
C608 C605 1.363 . S
C608 N606 1.356 . S
C609 C603 1.363 . S
C609 C604 1.379 1_556 S
C609 N607 1.356 . S
N610 C602 1.356 . S
N610 H616 0.984 . S
N610 H617 0.984 . S
N611 C604 1.356 . S
N611 H614 0.984 . S
N611 H615 0.985 . S
H612 N607 0.984 . S
H613 N607 0.985 . S
H614 N611 0.984 . S
H615 N611 0.985 . S
H616 N610 0.984 . S
H617 N610 0.984 . S
H618 N606 0.984 . S
H619 N606 0.985 . S
C620 C621 1.363 . S
C620 C626 1.379 . S
C620 N628 1.356 . S
C621 C620 1.363 . S
C621 C627 1.363 . S
C622 C623 1.363 . S
C622 C627 1.379 . S
C622 N629 1.356 . S
C623 C622 1.363 . S
C623 C626 1.363 . S
N624 C626 1.356 . S
N624 H636 0.984 . S
N624 H637 0.985 . S
N625 C627 1.356 . S
N625 H630 0.984 . S
N625 H631 0.985 . S
C626 C620 1.379 . S
C626 C623 1.363 . S
C626 N624 1.356 . S
C627 C621 1.363 . S
C627 C622 1.379 . S
C627 N625 1.356 . S
N628 C620 1.356 . S
N628 H634 0.984 . S
N628 H635 0.984 . S
N629 C622 1.356 . S
N629 H632 0.984 . S
N629 H633 0.985 . S
H630 N625 0.984 . S
H631 N625 0.985 . S
H632 N629 0.984 . S
H633 N629 0.985 . S
H634 N628 0.984 . S
H635 N628 0.984 . S
H636 N624 0.984 . S
H637 N624 0.985 . S
C638 C639 1.363 . S
C638 C644 1.379 1_554 S
C638 N646 1.356 . S
C639 C638 1.363 . S
C639 C645 1.363 . S
C640 C641 1.363 . S
C640 C645 1.379 1_556 S
C640 N647 1.356 . S
C641 C640 1.363 . S
C641 C644 1.363 . S
N642 C644 1.356 . S
N642 H654 0.984 . S
N642 H655 0.985 . S
N643 C645 1.356 . S
N643 H648 0.984 . S
N643 H649 0.985 . S
C644 C638 1.379 1_556 S
C644 C641 1.363 . S
C644 N642 1.356 . S
C645 C639 1.363 . S
C645 C640 1.379 1_554 S
C645 N643 1.356 . S
N646 C638 1.356 . S
N646 H652 0.984 . S
N646 H653 0.984 . S
N647 C640 1.356 . S
N647 H650 0.984 . S
N647 H651 0.985 . S
H648 N643 0.984 . S
H649 N643 0.985 . S
H650 N647 0.984 . S
H651 N647 0.985 . S
H652 N646 0.984 . S
H653 N646 0.984 . S
H654 N642 0.984 . S
H655 N642 0.985 . S
C656 C657 1.363 . S
C656 C662 1.379 . S
C656 N664 1.356 . S
C657 C656 1.363 . S
C657 C663 1.363 . S
C658 C659 1.363 . S
C658 C663 1.379 . S
C658 N665 1.356 . S
C659 C658 1.363 . S
C659 C662 1.363 . S
N660 C662 1.356 . S
N660 H672 0.984 . S
N660 H673 0.985 . S
N661 C663 1.356 . S
N661 H666 0.984 . S
N661 H667 0.985 . S
C662 C656 1.379 . S
C662 C659 1.363 . S
C662 N660 1.356 . S
C663 C657 1.363 . S
C663 C658 1.379 . S
C663 N661 1.356 . S
N664 C656 1.356 . S
N664 H670 0.984 . S
N664 H671 0.984 . S
N665 C658 1.356 . S
N665 H668 0.984 . S
N665 H669 0.985 . S
H666 N661 0.984 . S
H667 N661 0.985 . S
H668 N665 0.984 . S
H669 N665 0.985 . S
H670 N664 0.984 . S
H671 N664 0.984 . S
H672 N660 0.984 . S
H673 N660 0.985 . S
C674 C675 1.363 . S
C674 C680 1.379 . S
C674 N682 1.356 . S
C675 C674 1.363 . S
C675 C681 1.363 . S
C676 C677 1.363 . S
C676 C681 1.379 . S
C676 N683 1.356 . S
C677 C676 1.363 . S
C677 C680 1.363 . S
N678 C680 1.356 . S
N678 H690 0.984 . S
N678 H691 0.985 . S
N679 C681 1.356 . S
N679 H684 0.984 . S
N679 H685 0.985 . S
C680 C674 1.379 . S
C680 C677 1.363 . S
C680 N678 1.356 . S
C681 C675 1.363 . S
C681 C676 1.379 . S
C681 N679 1.356 . S
N682 C674 1.356 . S
N682 H688 0.984 . S
N682 H689 0.984 . S
N683 C676 1.356 . S
N683 H686 0.984 . S
N683 H687 0.985 . S
H684 N679 0.984 . S
H685 N679 0.985 . S
H686 N683 0.984 . S
H687 N683 0.985 . S
H688 N682 0.984 . S
H689 N682 0.984 . S
H690 N678 0.984 . S
H691 N678 0.985 . S
C692 C693 1.363 . S
C692 C698 1.379 . S
C692 N700 1.356 . S
C693 C692 1.363 . S
C693 C699 1.363 . S
C694 C695 1.363 . S
C694 C699 1.379 . S
C694 N701 1.356 . S
C695 C694 1.363 . S
C695 C698 1.363 . S
N696 C698 1.356 . S
N696 H708 0.984 . S
N696 H709 0.985 . S
N697 C699 1.356 . S
N697 H702 0.984 . S
N697 H703 0.985 . S
C698 C692 1.379 . S
C698 C695 1.363 . S
C698 N696 1.356 . S
C699 C693 1.363 . S
C699 C694 1.379 . S
C699 N697 1.356 . S
N700 C692 1.356 . S
N700 H706 0.984 . S
N700 H707 0.984 . S
N701 C694 1.356 . S
N701 H704 0.984 . S
N701 H705 0.985 . S
H702 N697 0.984 . S
H703 N697 0.985 . S
H704 N701 0.984 . S
H705 N701 0.985 . S
H706 N700 0.984 . S
H707 N700 0.984 . S
H708 N696 0.984 . S
H709 N696 0.985 . S
C710 C711 1.363 . S
C710 C716 1.379 . S
C710 N718 1.356 . S
C711 C710 1.363 . S
C711 C717 1.363 . S
C712 C713 1.363 . S
C712 C717 1.379 . S
C712 N719 1.356 . S
C713 C712 1.363 . S
C713 C716 1.363 . S
N714 C716 1.356 . S
N714 H726 0.984 . S
N714 H727 0.985 . S
N715 C717 1.356 . S
N715 H720 0.984 . S
N715 H721 0.985 . S
C716 C710 1.379 . S
C716 C713 1.363 . S
C716 N714 1.356 . S
C717 C711 1.363 . S
C717 C712 1.379 . S
C717 N715 1.356 . S
N718 C710 1.356 . S
N718 H724 0.984 . S
N718 H725 0.984 . S
N719 C712 1.356 . S
N719 H722 0.984 . S
N719 H723 0.985 . S
H720 N715 0.984 . S
H721 N715 0.985 . S
H722 N719 0.984 . S
H723 N719 0.985 . S
H724 N718 0.984 . S
H725 N718 0.984 . S
H726 N714 0.984 . S
H727 N714 0.985 . S
C728 C729 1.363 . S
C728 C734 1.379 . S
C728 N736 1.356 . S
C729 C728 1.363 . S
C729 C735 1.363 . S
C730 C731 1.363 . S
C730 C735 1.379 . S
C730 N737 1.356 . S
C731 C730 1.363 . S
C731 C734 1.363 . S
N732 C734 1.356 . S
N732 H744 0.984 . S
N732 H745 0.985 . S
N733 C735 1.356 . S
N733 H738 0.984 . S
N733 H739 0.985 . S
C734 C728 1.379 . S
C734 C731 1.363 . S
C734 N732 1.356 . S
C735 C729 1.363 . S
C735 C730 1.379 . S
C735 N733 1.356 . S
N736 C728 1.356 . S
N736 H742 0.984 . S
N736 H743 0.984 . S
N737 C730 1.356 . S
N737 H740 0.984 . S
N737 H741 0.985 . S
H738 N733 0.984 . S
H739 N733 0.985 . S
H740 N737 0.984 . S
H741 N737 0.985 . S
H742 N736 0.984 . S
H743 N736 0.984 . S
H744 N732 0.984 . S
H745 N732 0.985 . S
C746 C747 1.363 . S
C746 C752 1.379 . S
C746 N754 1.356 . S
C747 C746 1.363 . S
C747 C753 1.363 . S
C748 C749 1.363 . S
C748 C753 1.379 . S
C748 N755 1.356 . S
C749 C748 1.363 . S
C749 C752 1.363 . S
N750 C752 1.356 . S
N750 H762 0.984 . S
N750 H763 0.985 . S
N751 C753 1.356 . S
N751 H756 0.984 . S
N751 H757 0.985 . S
C752 C746 1.379 . S
C752 C749 1.363 . S
C752 N750 1.356 . S
C753 C747 1.363 . S
C753 C748 1.379 . S
C753 N751 1.356 . S
N754 C746 1.356 . S
N754 H760 0.984 . S
N754 H761 0.984 . S
N755 C748 1.356 . S
N755 H758 0.984 . S
N755 H759 0.985 . S
H756 N751 0.984 . S
H757 N751 0.985 . S
H758 N755 0.984 . S
H759 N755 0.985 . S
H760 N754 0.984 . S
H761 N754 0.984 . S
H762 N750 0.984 . S
H763 N750 0.985 . S
C764 C765 1.363 . S
C764 C770 1.379 . S
C764 N772 1.356 . S
C765 C764 1.363 . S
C765 C771 1.363 . S
C766 C767 1.363 . S
C766 C771 1.379 . S
C766 N773 1.356 . S
C767 C766 1.363 . S
C767 C770 1.363 . S
N768 C770 1.356 . S
N768 H780 0.984 . S
N768 H781 0.985 . S
N769 C771 1.356 . S
N769 H774 0.984 . S
N769 H775 0.985 . S
C770 C764 1.379 . S
C770 C767 1.363 . S
C770 N768 1.356 . S
C771 C765 1.363 . S
C771 C766 1.379 . S
C771 N769 1.356 . S
N772 C764 1.356 . S
N772 H778 0.984 . S
N772 H779 0.984 . S
N773 C766 1.356 . S
N773 H776 0.984 . S
N773 H777 0.985 . S
H774 N769 0.984 . S
H775 N769 0.985 . S
H776 N773 0.984 . S
H777 N773 0.985 . S
H778 N772 0.984 . S
H779 N772 0.984 . S
H780 N768 0.984 . S
H781 N768 0.985 . S
C782 C783 1.363 . S
C782 C788 1.379 . S
C782 N790 1.356 . S
C783 C782 1.363 . S
C783 C789 1.363 . S
C784 C785 1.363 . S
C784 C789 1.379 . S
C784 N791 1.356 . S
C785 C784 1.363 . S
C785 C788 1.363 . S
N786 C788 1.356 . S
N786 H798 0.984 . S
N786 H799 0.985 . S
N787 C789 1.356 . S
N787 H792 0.984 . S
N787 H793 0.985 . S
C788 C782 1.379 . S
C788 C785 1.363 . S
C788 N786 1.356 . S
C789 C783 1.363 . S
C789 C784 1.379 . S
C789 N787 1.356 . S
N790 C782 1.356 . S
N790 H796 0.984 . S
N790 H797 0.984 . S
N791 C784 1.356 . S
N791 H794 0.984 . S
N791 H795 0.985 . S
H792 N787 0.984 . S
H793 N787 0.985 . S
H794 N791 0.984 . S
H795 N791 0.985 . S
H796 N790 0.984 . S
H797 N790 0.984 . S
H798 N786 0.984 . S
H799 N786 0.985 . S
C225 C0 1.735 . S
C227 C41 1.738 . S
C243 C54 1.735 . S
C245 C26 1.735 . S
C261 C69 1.738 . S
C263 C96 1.735 . S
C279 C111 1.738 . S
C281 C82 1.735 . S
C297 C124 1.738 . S
C299 C152 1.738 . S
C315 C166 1.738 . S
C317 C139 1.735 . S
C333 C181 1.735 . S
C335 C208 1.738 . S
C351 C210 1.738 . S
C353 C183 1.735 . S
C369 C56 1.604 . S
C371 C13 1.606 . S
C387 C15 1.605 . S
C389 C71 1.605 . S
C405 C28 1.604 . S
C407 C85 1.605 . S
C423 C98 1.604 . S
C425 C43 1.605 . S
C441 C113 1.604 . S
C443 C168 1.606 . S
C459 C126 1.605 . S
C461 C194 1.605 . S
C477 C141 1.604 . S
C479 C197 1.604 . S
C495 C155 1.604 . S
C497 C223 1.604 . S
C513 C140 1.575 . S
C515 C12 1.574 . S
C531 C154 1.575 . S
C533 C14 1.574 . S
C549 C29 1.575 . S
C551 C112 1.575 . S
C567 C42 1.574 . S
C569 C127 1.574 . S
C585 C57 1.575 . S
C587 C196 1.575 . S
C603 C70 1.574 . S
C605 C222 1.575 . S
C621 C84 1.574 . S
C623 C169 1.574 . S
C639 C195 1.574 . S
C641 C99 1.575 . S
C657 C1 1.669 . S
C659 C211 1.668 . S
C675 C180 1.669 . S
C677 C27 1.669 . S
C693 C40 1.668 . S
C695 C182 1.669 . S
C711 C209 1.668 . S
C713 C55 1.669 . S
C729 C138 1.669 . S
C731 C68 1.668 . S
C747 C83 1.669 . S
C749 C153 1.668 . S
C765 C167 1.668 . S
C767 C97 1.669 . S
C783 C125 1.668 . S
C785 C110 1.668 . S
