# Generated by pormake.
# Topology smm, (6)-cn, num edge types: 1
# Building blocks:
#     Node 0, Type 0, BuildingBlock: BETDEL_clean_sbu_0, # of connection points: 6
#     Node 1, Type 0, BuildingBlock: BETDEL_clean_sbu_0, # of connection points: 6
#     Node 2, Type 0, BuildingBlock: BETDEL_clean_sbu_0, # of connection points: 6
#     Node 3, Type 0, BuildingBlock: BETDEL_clean_sbu_0, # of connection points: 6
#     Node 4, Type 0, BuildingBlock: BETDEL_clean_sbu_0, # of connection points: 6
#     Node 5, Type 0, BuildingBlock: BETDEL_clean_sbu_0, # of connection points: 6
#     Node 6, Type 0, BuildingBlock: BETDEL_clean_sbu_0, # of connection points: 6
#     Node 7, Type 0, BuildingBlock: BETDEL_clean_sbu_0, # of connection points: 6
#     Node 8, Type 0, BuildingBlock: BETDEL_clean_sbu_0, # of connection points: 6
#     Edge 9, Type (0, 0), BuildingBlock: ZUJKAS_clean_linker_0, # of connection points: 2
#     Edge 10, Type (0, 0), BuildingBlock: ZUJKAS_clean_linker_0, # of connection points: 2
#     Edge 11, Type (0, 0), BuildingBlock: ZUJKAS_clean_linker_0, # of connection points: 2
#     Edge 12, Type (0, 0), BuildingBlock: ZUJKAS_clean_linker_0, # of connection points: 2
#     Edge 13, Type (0, 0), BuildingBlock: ZUJKAS_clean_linker_0, # of connection points: 2
#     Edge 14, Type (0, 0), BuildingBlock: ZUJKAS_clean_linker_0, # of connection points: 2
#     Edge 15, Type (0, 0), BuildingBlock: ZUJKAS_clean_linker_0, # of connection points: 2
#     Edge 16, Type (0, 0), BuildingBlock: ZUJKAS_clean_linker_0, # of connection points: 2
#     Edge 17, Type (0, 0), BuildingBlock: ZUJKAS_clean_linker_0, # of connection points: 2
#     Edge 18, Type (0, 0), BuildingBlock: ZUJKAS_clean_linker_0, # of connection points: 2
#     Edge 19, Type (0, 0), BuildingBlock: ZUJKAS_clean_linker_0, # of connection points: 2
#     Edge 20, Type (0, 0), BuildingBlock: ZUJKAS_clean_linker_0, # of connection points: 2
#     Edge 21, Type (0, 0), BuildingBlock: ZUJKAS_clean_linker_0, # of connection points: 2
#     Edge 22, Type (0, 0), BuildingBlock: ZUJKAS_clean_linker_0, # of connection points: 2
#     Edge 23, Type (0, 0), BuildingBlock: ZUJKAS_clean_linker_0, # of connection points: 2
#     Edge 24, Type (0, 0), BuildingBlock: ZUJKAS_clean_linker_0, # of connection points: 2
#     Edge 25, Type (0, 0), BuildingBlock: ZUJKAS_clean_linker_0, # of connection points: 2
#     Edge 26, Type (0, 0), BuildingBlock: ZUJKAS_clean_linker_0, # of connection points: 2
#     Edge 27, Type (0, 0), BuildingBlock: ZUJKAS_clean_linker_0, # of connection points: 2
#     Edge 28, Type (0, 0), BuildingBlock: ZUJKAS_clean_linker_0, # of connection points: 2
#     Edge 29, Type (0, 0), BuildingBlock: ZUJKAS_clean_linker_0, # of connection points: 2
#     Edge 30, Type (0, 0), BuildingBlock: ZUJKAS_clean_linker_0, # of connection points: 2
#     Edge 31, Type (0, 0), BuildingBlock: ZUJKAS_clean_linker_0, # of connection points: 2
#     Edge 32, Type (0, 0), BuildingBlock: ZUJKAS_clean_linker_0, # of connection points: 2
#     Edge 33, Type (0, 0), BuildingBlock: ZUJKAS_clean_linker_0, # of connection points: 2
#     Edge 34, Type (0, 0), BuildingBlock: ZUJKAS_clean_linker_0, # of connection points: 2
#     Edge 35, Type (0, 0), BuildingBlock: ZUJKAS_clean_linker_0, # of connection points: 2
# Relax obj value: 0.075
# Max RMSD: 0.145
# Mean RMSD: 0.145
data_MOF--net-smm--node1-BETDEL_clean_sbu_0--edge1-ZUJKAS_clean_linker_0
_symmetry_space_group_name_H-M    P1
_symmetry_Int_Tables_number       1
_symmetry_cell_setting            triclinic
loop_
_symmetry_equiv_pos_as_xyz
'x, y, z'
_cell_length_a     71.79352
_cell_length_b     71.826911
_cell_length_c     18.541853
_cell_angle_alpha  89.960544
_cell_angle_beta   90.007126
_cell_angle_gamma 119.94248
loop_
_atom_site_label
_atom_site_type_symbol
_atom_site_fract_x
_atom_site_fract_y
_atom_site_fract_z
_atom_type_partial_charge
Dy0 Dy 0.0544 0.22328 0.98086 0.0
C1 C 0.99038 0.13378 0.02325 0.0
C2 C 0.07933 0.26296 0.92039 0.0
Dy3 Dy 1.01651 0.1771 0.00543 0.0
O4 O 0.08286 0.25693 0.98258 0.0
O5 O 0.06232 0.24724 0.89104 0.0
O6 O 0.06877 0.22383 0.08814 0.0
O7 O 0.03526 0.20517 0.073 0.0
C8 C 0.05053 0.20937 0.11564 0.0
C9 C 0.02134 0.19291 0.87241 0.0
O10 O 0.99905 0.19449 0.03542 0.0
O11 O 0.02599 0.22838 -0.00253 0.0
O12 O 1.00317 0.14314 0.96939 0.0
O13 O 0.99174 0.1482 0.06906 0.0
O14 O 1.00272 0.18026 0.901 0.0
O15 O 0.03615 0.1953 0.91417 0.0
O16 O 0.07117 0.20459 0.96071 0.0
O17 O 0.04605 0.17436 0.02322 0.0
C18 C 1.00622 0.21517 0.02208 0.0
C19 C 0.06524 0.18591 -0.00726 0.0
Dy20 Dy 0.8456 0.8559 0.97624 0.0
C21 C 0.93527 0.88271 0.02384 0.0
C22 C 0.80597 0.84118 0.91515 0.0
Dy23 Dy 0.89191 0.86488 0.00401 0.0
O24 O 0.812 0.85091 0.97694 0.0
O25 O 0.82166 0.83966 0.88646 0.0
O26 O 0.84398 0.86883 0.08417 0.0
O27 O 0.86325 0.85466 0.06951 0.0
C28 C 0.85847 0.86521 0.11238 0.0
C29 C 0.87702 0.85423 0.86992 0.0
O30 O 0.87471 0.83008 0.03407 0.0
O31 O 0.84124 0.82254 -0.01064 0.0
O32 O 0.92597 0.8863 0.97017 0.0
O33 O 0.92077 0.86912 0.0684 0.0
O34 O 0.8897 0.8484 0.89936 0.0
O35 O 0.8741 0.86634 0.91147 0.0
O36 O 0.86412 0.89142 0.95695 0.0
O37 O 0.89384 0.89668 0.02306 0.0
C38 C 0.85441 0.81626 0.0167 0.0
C39 C 0.88243 0.90422 -0.00908 0.0
Dy40 Dy 0.2133 0.01465 0.98254 0.0
C41 C 0.18799 0.07878 0.02698 0.0
C42 C 0.22751 0.9892 0.92245 0.0
Dy43 Dy 0.20523 0.05266 0.00894 0.0
O44 O 0.21708 0.98531 0.98296 0.0
O45 O 0.23 1.00689 0.89449 0.0
O46 O 0.19998 1.00032 0.09041 0.0
O47 O 0.21471 0.03376 0.07512 0.0
C48 C 0.20381 0.01855 0.11801 0.0
C49 C 0.21594 0.04799 0.87543 0.0
O50 O 0.24007 0.06977 0.03893 0.0
O51 O 0.2469 0.04307 -0.00279 0.0
O52 O 0.18486 0.06628 0.97256 0.0
O53 O 0.20082 0.07717 0.07328 0.0
O54 O 0.22208 0.06657 0.90456 0.0
O55 O 0.20353 0.03313 0.91701 0.0
O56 O 0.17789 0.99837 0.96181 0.0
O57 O 0.173 0.02319 0.02703 0.0
C58 C 0.25357 0.06272 0.02328 0.0
C59 C 0.16524 1.0042 -0.00487 0.0
Dy60 Dy 0.72118 0.556 0.30443 0.0
C61 C 0.65285 0.46943 0.37093 0.0
C62 C 0.74739 0.59531 0.24308 0.0
Dy63 Dy 0.68217 0.51112 0.33633 0.0
O64 O 0.75116 0.58859 0.30346 0.0
O65 O 0.72944 0.58041 0.21567 0.0
O66 O 0.73577 0.55687 0.41154 0.0
O67 O 0.7021 0.53983 0.3994 0.0
C68 C 0.71743 0.54359 0.44111 0.0
C69 C 0.68764 0.52433 0.19923 0.0
O70 O 0.66817 0.5311 0.3737 0.0
O71 O 0.69345 0.56252 0.31672 0.0
O72 O 0.65073 0.48068 0.32031 0.0
O73 O 0.67084 0.48125 0.405 0.0
O74 O 0.66895 0.51239 0.228 0.0
O75 O 0.70216 0.52708 0.24271 0.0
O76 O 0.73652 0.5359 0.28311 0.0
O77 O 0.71001 0.50506 0.33967 0.0
C78 C 0.67469 0.55092 0.35041 0.0
C79 C 0.72955 0.51652 0.31151 0.0
Dy80 Dy 0.51436 0.19201 0.31169 0.0
C81 C 0.6015 0.21262 0.38226 0.0
C82 C 0.47425 0.17824 0.25563 0.0
Dy83 Dy 0.55984 0.19917 0.34341 0.0
O84 O 0.4795 0.18251 0.32308 0.0
O85 O 0.49104 0.18177 0.2183 0.0
O86 O 0.51415 0.20686 0.41713 0.0
O87 O 0.53111 0.19002 0.40674 0.0
C88 C 0.52739 0.20182 0.44743 0.0
C89 C 0.54694 0.1912 0.20599 0.0
O90 O 0.54 0.1654 0.3829 0.0
O91 O 0.50943 0.1583 0.31842 0.0
O92 O 0.58988 0.19673 0.33935 0.0
O93 O 0.59007 0.22074 0.40628 0.0
O94 O 0.55976 0.18548 0.2346 0.0
O95 O 0.54345 0.20239 0.24974 0.0
O96 O 0.5331 0.22761 0.29366 0.0
O97 O 0.56516 0.23284 0.34385 0.0
C98 C 0.52083 0.15165 0.35596 0.0
C99 C 0.55289 0.24038 0.31837 0.0
Dy100 Dy 0.87938 0.34922 0.31138 0.0
C101 C 0.85878 0.4161 0.37571 0.0
C102 C 0.89303 0.32236 0.25952 0.0
Dy103 Dy 0.87239 0.38784 0.33942 0.0
O104 O 0.89458 0.32864 0.32597 0.0
O105 O 0.88374 0.33057 0.2211 0.0
O106 O 0.86432 0.33471 0.41712 0.0
O107 O 0.88136 0.36846 0.4048 0.0
C108 C 0.86944 0.35316 0.44613 0.0
C109 C 0.88076 0.38238 0.20314 0.0
O110 O 0.90637 0.40218 0.3766 0.0
O111 O 0.91298 0.37823 0.3129 0.0
O112 O 0.87367 0.41966 0.32914 0.0
O113 O 0.8518 0.39728 0.40471 0.0
O114 O 0.88641 0.40101 0.23062 0.0
O115 O 0.86937 0.36786 0.24714 0.0
O116 O 0.84358 0.33195 0.29757 0.0
O117 O 0.83867 0.35966 0.34113 0.0
C118 C 0.91988 0.39647 0.34941 0.0
C119 C 0.83097 0.33946 0.31978 0.0
Dy120 Dy 0.38864 0.89078 0.64333 0.0
C121 C 0.32529 0.80115 0.68775 0.0
C122 C 0.41357 0.93069 0.58435 0.0
Dy123 Dy 0.35123 0.84451 0.66972 0.0
O124 O 0.41731 0.92426 0.64532 0.0
O125 O 0.39632 0.91523 0.55518 0.0
O126 O 0.40311 0.89192 0.75107 0.0
O127 O 0.36969 0.8729 0.73617 0.0
C128 C 0.38498 0.87744 0.779 0.0
C129 C 0.35557 0.85993 0.53629 0.0
O130 O 0.33376 0.86174 0.70123 0.0
O131 O 0.35973 0.89523 0.65713 0.0
O132 O 0.33736 0.8106 0.63244 0.0
O133 O 0.32728 0.81551 0.73496 0.0
O134 O 0.33706 0.84739 0.56574 0.0
O135 O 0.37057 0.86256 0.57755 0.0
O136 O 0.40559 0.87227 0.62291 0.0
O137 O 0.38102 0.84229 0.68762 0.0
C138 C 0.34031 0.8821 0.68449 0.0
C139 C 0.40005 0.85386 0.65623 0.0
Dy140 Dy 0.17975 0.52249 0.64674 0.0
C141 C 0.26735 0.54441 0.71767 0.0
C142 C 0.13926 0.50771 0.5929 0.0
Dy143 Dy 0.22573 0.5308 0.67816 0.0
O144 O 0.14377 0.50471 0.65817 0.0
O145 O 0.15696 0.51907 0.55681 0.0
O146 O 0.17889 0.53667 0.75299 0.0
O147 O 0.19682 0.52087 0.74125 0.0
C148 C 0.19264 0.5322 0.78256 0.0
C149 C 0.21285 0.52257 0.5408 0.0
O150 O 0.2062 0.49689 0.71605 0.0
O151 O 0.17679 0.48956 0.64484 0.0
O152 O 0.25616 0.52918 0.67204 0.0
O153 O 0.25552 0.55181 0.74389 0.0
O154 O 0.2261 0.5174 0.5693 0.0
O155 O 0.20893 0.53345 0.58459 0.0
O156 O 0.19733 0.55833 0.6353 0.0
O157 O 0.23037 0.56421 0.67882 0.0
C158 C 0.18775 0.48298 0.68511 0.0
C159 C 0.21737 0.57134 0.65735 0.0
Dy160 Dy 0.5452 0.68134 0.64693 0.0
C161 C 0.521 0.74623 0.69201 0.0
C162 C 0.55928 0.65532 0.59061 0.0
Dy163 Dy 0.53749 0.71954 0.6732 0.0
O164 O 0.55607 0.657 0.65862 0.0
O165 O 0.55447 0.66763 0.55311 0.0
O166 O 0.531 0.66696 0.75387 0.0
O167 O 0.5469 0.70059 0.7396 0.0
C168 C 0.53567 0.68537 0.7822 0.0
C169 C 0.54799 0.71476 0.53942 0.0
O170 O 0.57217 0.73621 0.70346 0.0
O171 O 0.57881 0.71026 0.65381 0.0
O172 O 0.51697 0.73315 0.63865 0.0
O173 O 0.53425 0.74483 0.73685 0.0
O174 O 0.55422 0.73337 0.56842 0.0
O175 O 0.53563 0.69997 0.58128 0.0
O176 O 0.50946 0.6645 0.63164 0.0
O177 O 0.50525 0.69034 0.69325 0.0
C178 C 0.58561 0.72952 0.68325 0.0
C179 C 0.49714 0.67096 0.66396 0.0
H180 H 0.11544 0.2971 0.97582 0.0
H181 H 0.13483 0.33395 0.92873 0.0
H182 H 0.0907 0.31501 0.74984 0.0
H183 H 0.07128 0.27815 0.79653 0.0
H184 H 0.1541 0.34928 0.78469 0.0
H185 H 0.08831 0.3662 0.84902 0.0
H186 H 0.09009 0.34431 0.88985 0.0
H187 H 0.08072 0.34204 0.79877 0.0
C188 C 0.10997 0.30079 0.92623 0.0
C189 C 0.09182 0.28483 0.88996 0.0
C190 C 0.12105 0.32181 0.8994 0.0
C191 C 0.11403 0.32724 0.83631 0.0
C192 C 0.0962 0.3112 0.79911 0.0
H193 H 0.15172 0.44934 0.62553 0.0
H194 H 0.13478 0.4113 0.65766 0.0
C195 C 0.08519 0.29016 0.82569 0.0
C196 C 0.12511 0.34976 0.81016 0.0
H197 H 0.11831 0.39314 0.78665 0.0
C198 C 0.14633 0.35892 0.78507 0.0
C199 C 0.11487 0.36222 0.81058 0.0
C200 C 0.09229 0.35334 0.83895 0.0
C201 C 0.15751 0.38018 0.75943 0.0
C202 C 0.14735 0.39276 0.76064 0.0
C203 C 0.12608 0.38351 0.78552 0.0
C204 C 0.15855 0.41569 0.73784 0.0
C205 C 0.17992 0.38878 0.72998 0.0
C206 C 0.17757 0.43086 0.77211 0.0
C207 C 0.18739 0.45261 0.75349 0.0
C208 C 0.17822 0.45972 0.70085 0.0
C209 C 0.15924 0.44446 0.66623 0.0
C210 C 0.14951 0.42269 0.6846 0.0
H211 H 0.18272 0.37559 0.71238 0.0
H212 H 0.18296 0.39972 0.68358 0.0
H213 H 0.19177 0.39793 0.77291 0.0
H214 H 0.18456 0.42598 0.81465 0.0
H215 H 0.20186 0.46392 0.7818 0.0
H216 H 0.7723 0.84454 0.96787 0.0
H217 H 0.7354 0.82721 0.92124 0.0
H218 H 0.75332 0.79929 0.74798 0.0
H219 H 0.79029 0.81668 0.794 0.0
H220 H 0.72052 0.82947 0.76911 0.0
H221 H 0.70136 0.74799 0.86101 0.0
H222 H 0.7231 0.77226 0.89927 0.0
H223 H 0.726 0.76347 0.8116 0.0
C224 C 0.7684 0.83483 0.91953 0.0
C225 C 0.7841 0.83187 0.88467 0.0
C226 C 0.74735 0.82498 0.89297 0.0
C227 C 0.74164 0.81185 0.8316 0.0
C228 C 0.7574 0.80924 0.79578 0.0
H229 H 0.61873 0.72444 0.63386 0.0
H230 H 0.65677 0.74561 0.66535 0.0
C231 C 0.77849 0.81921 0.822 0.0
C232 C 0.71904 0.80038 0.80624 0.0
H233 H 0.6746 0.75049 0.79557 0.0
C234 C 0.71042 0.8122 0.77479 0.0
C235 C 0.70601 0.77788 0.81363 0.0
C236 C 0.71442 0.76456 0.84859 0.0
C237 C 0.68911 0.80203 0.7495 0.0
C238 C 0.67593 0.7795 0.75769 0.0
C239 C 0.68466 0.76773 0.78913 0.0
C240 C 0.653 0.76772 0.73478 0.0
C241 C 0.68111 0.81547 0.71278 0.0
C242 C 0.63815 0.7731 0.76306 0.0
C243 C 0.61636 0.76112 0.74459 0.0
C244 C 0.60891 0.74329 0.69834 0.0
C245 C 0.62386 0.73805 0.66967 0.0
C246 C 0.64565 0.75013 0.68768 0.0
H247 H 0.69461 0.83068 0.69127 0.0
H248 H 0.67002 0.80655 0.66775 0.0
H249 H 0.6723 0.81972 0.75253 0.0
H250 H 0.64328 0.78622 0.80097 0.0
H251 H 0.60528 0.76548 0.76831 0.0
H252 H 0.25377 0.99852 0.80576 0.0
H253 H 0.27075 0.97839 0.76129 0.0
H254 H 0.23884 0.93089 0.92763 0.0
H255 H 0.22193 0.95103 0.97274 0.0
H256 H 0.29775 0.96726 0.8543 0.0
H257 H 0.22727 0.89633 0.73197 0.0
H258 H 0.22808 0.92165 0.74548 0.0
H259 H 0.22385 0.9043 0.82081 0.0
C260 C 0.25022 0.98368 0.83237 0.0
C261 C 0.23655 0.97631 0.89266 0.0
C262 C 0.25993 0.97222 0.80698 0.0
C263 C 0.2559 0.95308 0.84082 0.0
C264 C 0.24194 0.94548 0.90024 0.0
H265 H 0.30438 0.86479 0.77054 0.0
H266 H 0.2836 0.88172 0.80809 0.0
C267 C 0.23236 0.95703 0.92605 0.0
C268 C 0.26731 0.94177 0.81657 0.0
H269 H 0.26 0.896 0.73474 0.0
C270 C 0.28955 0.95171 0.82793 0.0
C271 C 0.25647 0.9214 0.78306 0.0
C272 C 0.23261 0.91024 0.769 0.0
C273 C 0.30127 0.94175 0.80714 0.0
C274 C 0.29055 0.92155 0.77199 0.0
C275 C 0.26823 0.91152 0.76127 0.0
C276 C 0.30233 0.91073 0.7458 0.0
C277 C 0.32495 0.95276 0.8247 0.0
C278 C 0.31935 0.9211 0.69662 0.0
C279 C 0.33134 0.91156 0.6755 0.0
C280 C 0.32636 0.89126 0.70224 0.0
C281 C 0.30867 0.88044 0.74894 0.0
C282 C 0.29678 0.89011 0.77055 0.0
H283 H 0.32916 0.96442 0.86962 0.0
H284 H 0.32994 0.94092 0.83979 0.0
H285 H 0.33433 0.96178 0.77665 0.0
H286 H 0.32354 0.93674 0.67515 0.0
H287 H 0.34467 0.92024 0.63873 0.0
H288 H 0.43806 0.16877 0.33107 0.0
H289 H 0.40097 0.15098 0.28693 0.0
H290 H 0.42314 0.14861 0.07284 0.0
H291 H 0.4604 0.16659 0.11673 0.0
H292 H 0.39073 0.16112 0.07853 0.0
H293 H 0.36762 0.08648 0.2335 0.0
H294 H 0.37969 0.11066 0.28635 0.0
H295 H 0.39529 0.10679 0.21844 0.0
C296 C 0.43505 0.16459 0.27447 0.0
C297 C 0.45209 0.16894 0.22738 0.0
C298 C 0.41385 0.15434 0.24941 0.0
C299 C 0.40926 0.14817 0.17684 0.0
C300 C 0.42632 0.15315 0.12912 0.0
H301 H 0.28583 0.05345 0.00236 0.0
H302 H 0.32361 0.07506 0.03589 0.0
C303 C 0.44757 0.1634 0.15423 0.0
C304 C 0.38662 0.13601 0.15142 0.0
H305 H 0.33956 0.08874 0.17458 0.0
C306 C 0.37953 0.14528 0.09938 0.0
C307 C 0.3721 0.11524 0.17811 0.0
C308 C 0.37903 0.10406 0.23172 0.0
C309 C 0.35818 0.13446 0.07418 0.0
C310 C 0.34353 0.11392 0.10224 0.0
C311 C 0.35074 0.10456 0.15351 0.0
C312 C 0.32074 0.10157 0.07826 0.0
C313 C 0.35156 0.14493 0.01689 0.0
C314 C 0.30649 0.10928 0.09081 0.0
C315 C 0.28476 0.09691 0.0717 0.0
C316 C 0.27683 0.07653 0.03991 0.0
C317 C 0.29127 0.06903 0.02667 0.0
C318 C 0.31293 0.08137 0.04588 0.0
H319 H 0.3657 0.15814 -0.01093 0.0
H320 H 0.34106 0.13298 0.97605 0.0
H321 H 0.34235 0.15181 0.04233 0.0
H322 H 0.31206 0.12465 0.11689 0.0
H323 H 0.27413 0.10318 0.08304 0.0
H324 H 0.91919 0.31121 0.32995 0.0
H325 H 0.93578 0.29116 0.28286 0.0
H326 H 0.90288 0.28271 0.08029 0.0
H327 H 0.88698 0.30369 0.12643 0.0
H328 H 0.9205 0.25166 0.23773 0.0
H329 H 0.96298 0.30656 0.00943 0.0
H330 H 0.9497 0.31315 0.07893 0.0
H331 H 0.9344 0.29545 0.00634 0.0
C332 C 0.91551 0.3051 0.27531 0.0
C333 C 0.90194 0.30914 0.23162 0.0
C334 C 0.92498 0.29359 0.24844 0.0
C335 C 0.92095 0.28571 0.17745 0.0
C336 C 0.90677 0.28913 0.13447 0.0
H337 H 0.96255 0.19406 0.04442 0.0
H338 H 0.94034 0.20983 0.07749 0.0
C339 C 0.89754 0.30095 0.16104 0.0
C340 C 0.93175 0.27406 0.14916 0.0
H341 H 0.96482 0.27464 0.01553 0.0
C342 C 0.93018 0.25668 0.18907 0.0
C343 C 0.94461 0.28073 0.0861 0.0
C344 C 0.94824 0.30012 0.04308 0.0
C345 C 0.94131 0.24604 0.1685 0.0
C346 C 0.95381 0.25243 0.10462 0.0
C347 C 0.9551 0.26959 0.06411 0.0
C348 C 0.96685 0.24258 0.08127 0.0
C349 C 0.94025 0.22871 0.2173 0.0
C350 C 0.989 0.25574 0.06923 0.0
C351 C 1.00161 0.24683 0.04869 0.0
C352 C 0.99242 0.22448 0.04027 0.0
C353 C 0.97018 0.21131 0.05122 0.0
C354 C 0.95748 0.2203 0.07069 0.0
H355 H 0.93514 0.22997 0.2728 0.0
H356 H 0.9283 0.21275 0.1956 0.0
H357 H 0.95606 0.22948 0.22055 0.0
H358 H 0.99667 0.27296 0.07683 0.0
H359 H 1.0187 0.25749 0.04097 0.0
H360 H 0.87222 0.79752 0.09982 0.0
H361 H 0.85614 0.75954 0.1329 0.0
H362 H 0.80028 0.74459 0.00486 0.0
H363 H 0.81611 0.78244 0.97159 0.0
H364 H 0.81413 0.73458 0.20401 0.0
H365 H 0.81852 0.69998 0.94084 0.0
H366 H 0.83537 0.72811 0.96235 0.0
H367 H 0.80771 0.71781 0.93836 0.0
C368 C 0.85662 0.78614 0.07794 0.0
C369 C 0.84547 0.79308 0.03297 0.0
C370 C 0.84745 0.76444 0.09708 0.0
C371 C 0.82712 0.74923 0.07078 0.0
C372 C 0.81612 0.75602 0.02495 0.0
H373 H 0.738 0.61324 0.12904 0.0
H374 H 0.75819 0.65062 0.08765 0.0
C375 C 0.82517 0.77771 0.0063 0.0
C376 C 0.81684 0.72646 0.09438 0.0
H377 H 0.79814 0.67531 0.03315 0.0
C378 C 0.81077 0.7216 0.1669 0.0
C379 C 0.81232 0.7096 0.04563 0.0
C380 C 0.81893 0.71403 0.96748 0.0
C381 C 0.79981 0.70026 0.19172 0.0
C382 C 0.79534 0.68332 0.14304 0.0
C383 C 0.80159 0.68825 0.07052 0.0
C384 C 0.78376 0.66038 0.16601 0.0
C385 C 0.79245 0.69608 0.26928 0.0
C386 C 0.79166 0.65322 0.22255 0.0
C387 C 0.78004 0.63194 0.24669 0.0
C388 C 0.76047 0.6173 0.21392 0.0
C389 C 0.75302 0.6242 0.15539 0.0
C390 C 0.76455 0.64555 0.1317 0.0
H391 H 0.79161 0.70985 0.293 0.0
H392 H 0.77638 0.68145 0.27424 0.0
H393 H 0.80408 0.69366 0.3016 0.0
H394 H 0.80673 0.66416 0.24857 0.0
H395 H 0.78625 0.62701 0.29153 0.0
H396 H 0.12674 0.51663 0.46404 0.0
H397 H 0.08997 0.50092 0.41682 0.0
H398 H 0.06573 0.46143 0.60739 0.0
H399 H 0.10215 0.47771 0.65578 0.0
H400 H 0.06152 0.46166 0.37987 0.0
H401 H 0.02637 0.4853 0.60167 0.0
H402 H 0.05494 0.49589 0.59345 0.0
H403 H 0.03815 0.47017 0.63558 0.0
C404 C 0.11348 0.50477 0.49604 0.0
C405 C 0.11723 0.49855 0.56387 0.0
C406 C 0.0925 0.49576 0.46902 0.0
C407 C 0.07493 0.4803 0.50919 0.0
C408 C 0.07882 0.47382 0.57634 0.0
H409 H 0.9506 0.3846 0.34579 0.0
H410 H 0.98838 0.40604 0.37985 0.0
C411 C 0.0997 0.48303 0.60375 0.0
C412 C 0.05263 0.4703 0.48005 0.0
H413 H 1.00127 0.45685 0.52503 0.0
C414 C 0.04839 0.46083 0.4113 0.0
C415 C 0.03547 0.46956 0.52013 0.0
C416 C 0.03901 0.481 0.5914 0.0
C417 C 0.02745 0.45003 0.38275 0.0
C418 C 1.01007 0.44795 0.4251 0.0
C419 C 1.01444 0.45808 0.49276 0.0
C420 C 0.98723 0.43511 0.40124 0.0
C421 C 0.02431 0.44125 0.30707 0.0
C422 C 0.97364 0.44396 0.40387 0.0
C423 C 0.95184 0.43152 0.38613 0.0
C424 C 0.94318 0.40999 0.36467 0.0
C425 C 0.95683 0.40122 0.36107 0.0
C426 C 0.97853 0.41355 0.38007 0.0
H427 H 0.03909 0.45048 0.27416 0.0
H428 H 0.02077 0.42436 0.30923 0.0
H429 H 1.0108 0.44167 0.27948 0.0
H430 H 0.97987 0.46049 0.42029 0.0
H431 H 0.94177 0.43876 0.38944 0.0
H432 H 0.57191 0.63092 0.66558 0.0
H433 H 0.59042 0.61258 0.61891 0.0
H434 H 0.58736 0.63368 0.40366 0.0
H435 H 0.56867 0.65198 0.45007 0.0
H436 H 0.57687 0.58968 0.4136 0.0
H437 H 0.65371 0.64494 0.55105 0.0
H438 H 0.63068 0.6328 0.60947 0.0
H439 H 0.63236 0.65108 0.54015 0.0
C440 C 0.57505 0.63153 0.60824 0.0
C441 C 0.56896 0.64294 0.56145 0.0
C442 C 0.58573 0.62115 0.58173 0.0
C443 C 0.59057 0.62207 0.50802 0.0
C444 C 0.58388 0.63287 0.46079 0.0
H445 H 0.68405 0.59219 0.32225 0.0
H446 H 0.66307 0.60919 0.35577 0.0
C447 C 0.57321 0.6433 0.48732 0.0
C448 C 0.60296 0.61207 0.4806 0.0
H449 H 0.65137 0.6141 0.49541 0.0
C450 C 0.59319 0.59504 0.43122 0.0
C451 C 0.62435 0.61929 0.50296 0.0
C452 C 0.63602 0.63816 0.55331 0.0
C453 C 0.60407 0.58472 0.4049 0.0
C454 C 0.6252 0.59149 0.42916 0.0
C455 C 0.63512 0.60883 0.47727 0.0
C456 C 0.6373 0.58076 0.40578 0.0
C457 C 0.59296 0.5668 0.35079 0.0
C458 C 0.62982 0.55913 0.42296 0.0
C459 C 0.64178 0.54935 0.40399 0.0
C460 C 0.66155 0.56104 0.36765 0.0
C461 C 0.6689 0.58267 0.35003 0.0
C462 C 0.65694 0.59245 0.36921 0.0
H463 H 0.57935 0.56727 0.32402 0.0
H464 H 0.6044 0.56766 0.30881 0.0
H465 H 0.58646 0.55114 0.37892 0.0
H466 H 0.61492 0.54992 0.45236 0.0
H467 H 0.63564 0.5327 0.4187 0.0
H468 H 0.53578 0.1326 0.44968 0.0
H469 H 0.51866 0.09461 0.48288 0.0
H470 H 0.46665 0.08013 0.33586 0.0
H471 H 0.4836 0.11809 0.30219 0.0
H472 H 0.47538 0.06965 0.54172 0.0
H473 H 0.48618 0.03563 0.28626 0.0
H474 H 0.50231 0.06377 0.3089 0.0
H475 H 0.47521 0.05323 0.27772 0.0
C476 C 0.52081 0.12134 0.42376 0.0
C477 C 0.51108 0.12844 0.37316 0.0
C478 C 0.51103 0.09963 0.44295 0.0
C479 C 0.49151 0.08454 0.41133 0.0
C480 C 0.48188 0.09147 0.36014 0.0
H481 H 0.40444 0.94746 0.4664 0.0
H482 H 0.4237 0.98484 0.42446 0.0
C483 C 0.49156 0.11321 0.34125 0.0
C484 C 0.48068 0.06174 0.43463 0.0
H485 H 0.46458 1.01082 0.37624 0.0
C486 C 0.4731 0.05677 0.50574 0.0
C487 C 0.47759 0.045 0.38733 0.0
C488 C 0.48586 0.04957 0.31087 0.0
C489 C 0.46218 0.03544 0.5306 0.0
C490 C 0.45927 0.01866 0.48358 0.0
C491 C 0.46686 0.02366 0.41234 0.0
C492 C 0.44821 0.99581 0.50719 0.0
C493 C 0.45331 0.03109 0.60639 0.0
C494 C 0.45587 0.98941 0.5665 0.0
C495 C 0.44479 0.96813 0.59083 0.0
C496 C 0.42604 0.95279 0.55564 0.0
C497 C 0.41883 0.95899 0.49465 0.0
C498 C 0.42983 0.98032 0.47065 0.0
H499 H 0.45139 0.04453 0.62739 0.0
H500 H 0.43748 0.01608 0.60895 0.0
H501 H 0.46462 0.02928 0.64256 0.0
H502 H 0.47033 1.00091 0.59439 0.0
H503 H 0.4508 0.96374 0.63763 0.0
H504 H 0.19528 0.11004 0.12778 0.0
H505 H 0.17883 0.13306 0.13039 0.0
H506 H 0.14176 0.10089 0.94106 0.0
H507 H 0.15834 0.07853 0.93729 0.0
H508 H 0.16003 0.14392 0.92909 0.0
H509 H 0.11817 0.11643 0.19298 0.0
H510 H 0.14678 0.12724 0.1948 0.0
H511 H 0.12996 0.1026 0.14756 0.0
C512 C 0.18356 0.10792 0.08708 0.0
C513 C 0.17807 0.0925 0.03244 0.0
C514 C 0.17411 0.12099 0.08871 0.0
C515 C 0.1589 0.1186 0.03618 0.0
C516 C 0.15347 0.10312 0.98201 0.0
H517 H 0.056 0.14506 0.0231 0.0
H518 H 0.08091 0.13149 0.0355 0.0
C519 C 0.16294 0.09028 0.9801 0.0
C520 C 0.14843 0.13202 0.03589 0.0
H521 H 0.11301 0.14169 0.12859 0.0
C522 C 0.14991 0.14363 0.97301 0.0
C523 C 0.13511 0.13148 0.09299 0.0
C524 C 0.13219 0.11866 0.16076 0.0
C525 C 0.13781 0.15396 0.96438 0.0
C526 C 0.12426 0.15321 0.02114 0.0
C527 C 0.12342 0.1423 0.08515 0.0
C528 C 0.10944 0.16199 0.01313 0.0
C529 C 0.1388 0.16456 0.89303 0.0
C530 C 0.1171 0.18371 -0.00375 0.0
C531 C 0.10277 0.19149 -0.01208 0.0
C532 C 0.08055 0.17776 -0.00229 0.0
C533 C 0.073 0.1561 0.01528 0.0
C534 C 0.08726 0.14831 0.02266 0.0
H535 H 0.14575 0.15917 0.84979 0.0
H536 H 0.12257 0.16108 0.87578 0.0
H537 H 0.14915 0.18222 0.89868 0.0
H538 H 0.13417 0.19472 -0.00979 0.0
H539 H 0.10913 0.20832 0.97532 0.0
H540 H 0.86011 0.92569 0.96894 0.0
H541 H 0.8736 0.96432 0.98287 0.0
H542 H 0.93637 0.97417 0.03632 0.0
H543 H 0.92293 0.93576 0.02484 0.0
H544 H 0.92527 0.99601 0.12645 0.0
H545 H 0.91065 1.01144 0.84411 0.0
H546 H 0.88715 0.99186 0.8913 0.0
H547 H 0.90845 0.98634 0.87159 0.0
C548 C 0.87682 0.93614 0.9832 0.0
C549 C 0.89044 0.92763 -0.00444 0.0
C550 C 0.88453 0.95824 -0.00904 0.0
C551 C 0.9061 0.97226 0.00986 0.0
C552 C 0.91967 0.96373 0.02193 0.0
H553 H 0.99121 0.10425 0.93574 0.0
H554 H 0.9685 0.06538 0.93919 0.0
C555 C 0.91194 0.94172 0.01509 0.0
C556 C 0.91487 0.99583 0.01739 0.0
H557 H 0.92558 0.04098 0.92307 0.0
C558 C 0.92519 1.00585 0.08216 0.0
C559 C 0.91483 1.00868 0.95952 0.0
C560 C 0.90486 0.99912 0.88748 0.0
C561 C 0.93617 0.02833 0.08974 0.0
C562 C 0.93638 0.04117 0.03152 0.0
C563 C 0.92531 0.03111 0.96782 0.0
C564 C 0.95001 0.06501 0.03189 0.0
C565 C 0.94839 0.03814 0.15854 0.0
C566 C 0.94731 0.07792 0.0832 0.0
C567 C 0.96058 0.10039 0.0818 0.0
C568 C 0.97652 0.11019 0.02858 0.0
C569 C 0.97906 0.0972 0.97744 0.0
C570 C 0.96601 0.07493 0.97916 0.0
H571 H 0.95019 0.02628 0.19189 0.0
H572 H 0.96464 0.05186 0.14661 0.0
H573 H 0.93958 0.04425 0.19094 0.0
H574 H 0.93483 0.07068 0.12371 0.0
H575 H 0.95819 0.11005 0.12151 0.0
H576 H 0.95906 0.87409 0.12155 0.0
H577 H 0.9985 0.89047 0.12446 0.0
H578 H 1.00374 0.93034 0.94268 0.0
H579 H 0.96482 0.91387 0.9386 0.0
H580 H 0.02831 0.91189 0.92476 0.0
H581 H 0.04267 0.95011 0.19521 0.0
H582 H 0.02469 0.92156 0.19302 0.0
H583 H 1.01714 0.93919 0.14966 0.0
C584 C 0.96872 0.88643 0.08265 0.0
C585 C 0.95889 0.89273 0.02995 0.0
C586 C 0.99122 0.89583 0.08444 0.0
C587 C 1.00413 0.91178 0.03404 0.0
C588 C 0.99419 0.91805 0.98195 0.0
H589 H 0.13395 0.01359 0.02962 0.0
H590 H 0.09542 0.98897 0.0405 0.0
C591 C 0.97189 0.90865 0.97987 0.0
C592 C 0.02799 0.92207 0.0337 0.0
H593 H 0.07306 0.95573 0.12953 0.0
C594 C 0.03813 0.92132 0.9698 0.0
C595 C 0.04077 0.93449 0.09227 0.0
C596 C 0.03085 0.93661 0.16131 0.0
C597 C 0.06058 0.93325 0.96176 0.0
C598 C 0.07337 0.94588 0.02006 0.0
C599 C 0.06327 0.946 0.08492 0.0
C600 C 0.097 0.96051 0.01307 0.0
C601 C 0.07022 0.93308 0.88959 0.0
C602 C 0.11087 0.95278 -0.00609 0.0
C603 C 0.13303 0.96696 -0.01348 0.0
C604 C 0.14175 0.98907 -0.00051 0.0
C605 C 0.12782 0.99667 0.01935 0.0
C606 C 0.10574 0.98258 0.02585 0.0
H607 H 0.05796 0.92686 0.84603 0.0
H608 H 0.08312 0.94946 0.87444 0.0
H609 H 0.07735 0.92251 0.89276 0.0
H610 H 0.10462 0.93578 -0.0147 0.0
H611 H 0.14334 0.96055 0.97204 0.0
H612 H 0.72094 0.47819 0.37041 0.0
H613 H 0.745 0.4637 0.38311 0.0
H614 H 0.795 0.51888 0.27244 0.0
H615 H 0.77104 0.53389 0.26069 0.0
H616 H 0.76458 0.45231 0.2815 0.0
H617 H 0.82592 0.5172 0.45391 0.0
H618 H 0.79998 0.51457 0.43629 0.0
H619 H 0.82089 0.52618 0.36952 0.0
C620 C 0.73703 0.48734 0.34855 0.0
C621 C 0.74404 0.50731 0.3147 0.0
C622 C 0.7508 0.47898 0.35598 0.0
C623 C 0.77194 0.49033 0.32991 0.0
C624 C 0.77891 0.51005 0.29454 0.0
H625 H 0.87169 0.45517 0.31476 0.0
H626 H 0.85127 0.4741 0.30711 0.0
C627 C 0.76513 0.51852 0.28728 0.0
C628 C 0.78631 0.48112 0.3391 0.0
H629 H 0.83328 0.48996 0.41673 0.0
C630 C 0.77958 0.46055 0.31117 0.0
C631 C 0.80591 0.49187 0.37785 0.0
C632 C 0.81358 0.51359 0.41173 0.0
C633 C 0.79188 0.45047 0.32067 0.0
C634 C 0.81133 0.46112 0.35996 0.0
C635 C 0.81828 0.4818 0.38703 0.0
C636 C 0.82475 0.45101 0.37217 0.0
C637 C 0.78409 0.4286 0.28775 0.0
C638 C 0.81697 0.43219 0.41359 0.0
C639 C 0.82866 0.42141 0.41842 0.0
C640 C 0.84831 0.42929 0.3818 0.0
C641 C 0.85659 0.44873 0.34356 0.0
C642 C 0.84494 0.45955 0.33903 0.0
H643 H 0.77145 0.42469 0.24645 0.0
H644 H 0.7976 0.42764 0.26239 0.0
H645 H 0.77718 0.41621 0.33073 0.0
H646 H 0.80154 0.4255 0.44039 0.0
H647 H 0.82188 0.40644 0.44815 0.0
H648 H 0.61757 0.44356 0.29127 0.0
H649 H 0.59801 0.4043 0.28711 0.0
H650 H 0.63758 0.40255 0.45888 0.0
H651 H 0.65746 0.44206 0.46294 0.0
H652 H 0.62151 0.38038 0.26089 0.0
H653 H 0.57238 0.35675 0.51187 0.0
H654 H 0.58176 0.38252 0.46887 0.0
H655 H 0.60015 0.37748 0.51898 0.0
C656 C 0.62186 0.43484 0.32919 0.0
C657 C 0.63905 0.44586 0.37746 0.0
C658 C 0.61069 0.4124 0.32657 0.0
C659 C 0.61631 0.40054 0.37274 0.0
C660 C 0.63287 0.41144 0.42325 0.0
H661 H 0.59463 0.27158 0.33961 0.0
H662 H 0.60909 0.31027 0.35031 0.0
C663 C 0.64419 0.43397 0.42557 0.0
C664 C 0.60607 0.37694 0.36346 0.0
H665 H 0.57195 0.32878 0.443 0.0
C666 C 0.61064 0.36909 0.30059 0.0
C667 C 0.59179 0.3623 0.41509 0.0
C668 C 0.58602 0.37005 0.48248 0.0
C669 C 0.60158 0.34693 0.2886 0.0
C670 C 0.5876 0.33228 0.34082 0.0
C671 C 0.5827 0.3401 0.40311 0.0
C672 C 0.57862 0.30879 0.33269 0.0
C673 C 0.60698 0.33929 0.22017 0.0
C674 C 0.55665 0.29512 0.31911 0.0
C675 C 0.54828 0.2729 0.31231 0.0
C676 C 0.56173 0.26399 0.32001 0.0
C677 C 0.58377 0.27784 0.33334 0.0
C678 C 0.59211 0.29999 0.33943 0.0
H679 H 0.61464 0.35231 0.1794 0.0
H680 H 0.61832 0.33347 0.23286 0.0
H681 H 0.59229 0.32569 0.19636 0.0
H682 H 0.54598 0.30165 0.31382 0.0
H683 H 0.53122 0.2627 0.30259 0.0
H684 H 0.62956 0.25127 0.44333 0.0
H685 H 0.66892 0.2702 0.4362 0.0
H686 H 0.66602 0.21547 0.32951 0.0
H687 H 0.6267 0.19671 0.33499 0.0
H688 H 0.7003 0.26168 0.48414 0.0
H689 H 0.69924 0.26315 0.18473 0.0
H690 H 0.67551 0.25542 0.23828 0.0
H691 H 0.68483 0.2367 0.22309 0.0
C692 C 0.63735 0.24317 0.41935 0.0
C693 C 0.62509 0.22259 0.38926 0.0
C694 C 0.65983 0.25402 0.41509 0.0
C695 C 0.67042 0.24447 0.38069 0.0
C696 C 0.6582 0.2234 0.35452 0.0
H697 H 0.80744 0.29674 0.28114 0.0
H698 H 0.76864 0.27248 0.29672 0.0
C699 C 0.63575 0.21261 0.35832 0.0
C700 C 0.69413 0.25686 0.37011 0.0
H701 H 0.73325 0.27719 0.24038 0.0
C702 C 0.70749 0.26503 0.43086 0.0
C703 C 0.70355 0.26126 0.30047 0.0
C704 C 0.69007 0.25386 0.23283 0.0
C705 C 0.72995 0.27744 0.42389 0.0
C706 C 0.7393 0.28202 0.35431 0.0
C707 C 0.72603 0.27356 0.29363 0.0
C708 C 0.76271 0.29663 0.3434 0.0
C709 C 0.74353 0.28555 0.49109 0.0
C710 C 0.7721 0.31833 0.36281 0.0
C711 C 0.79413 0.33221 0.35359 0.0
C712 C 0.80734 0.32474 0.3246 0.0
C713 C 0.7978 0.30305 0.3037 0.0
C714 C 0.77564 0.28915 0.31267 0.0
H715 H 0.73467 0.27623 0.53957 0.0
H716 H 0.7585 0.28472 0.48542 0.0
H717 H 0.74813 0.30259 0.5 0.0
H718 H 0.76236 0.32454 0.38529 0.0
H719 H 0.80079 0.34879 0.37018 0.0
H720 H 0.49137 0.74664 0.60376 0.0
H721 H 0.4764 0.77042 0.60668 0.0
H722 H 0.51489 0.80254 0.79352 0.0
H723 H 0.52985 0.77818 0.79158 0.0
H724 H 0.47322 0.79398 0.80695 0.0
H725 H 0.50526 0.83253 0.54365 0.0
H726 H 0.49101 0.80385 0.53499 0.0
H727 H 0.51497 0.81684 0.58945 0.0
C728 C 0.49675 0.75878 0.64551 0.0
C729 C 0.5119 0.76066 0.69722 0.0
C730 C 0.48829 0.77251 0.64668 0.0
C731 C 0.49495 0.78867 0.69902 0.0
C732 C 0.50976 0.79035 0.752 0.0
H733 H 0.44371 0.87643 0.6329 0.0
H734 H 0.46938 0.86367 0.65054 0.0
C735 C 0.51825 0.77645 0.75099 0.0
C736 C 0.48551 0.80297 0.69895 0.0
H737 H 0.47358 0.83309 0.58574 0.0
C738 C 0.47363 0.80288 0.75912 0.0
C739 C 0.48642 0.81502 0.63721 0.0
C740 C 0.50032 0.81727 0.57304 0.0
C741 C 0.46142 0.81326 0.75727 0.0
C742 C 0.46066 0.82351 0.69287 0.0
C743 C 0.47377 0.82489 0.63463 0.0
C744 C 0.44532 0.83156 0.68312 0.0
C745 C 0.44928 0.81287 0.82418 0.0
C746 C 0.42323 0.81765 0.69364 0.0
C747 C 0.40862 0.82489 0.68402 0.0
C748 C 0.41569 0.84616 0.66232 0.0
C749 C 0.43775 0.85995 0.64956 0.0
C750 C 0.45244 0.85271 0.65992 0.0
H751 H 0.45739 0.81172 0.87363 0.0
H752 H 0.44769 0.82745 0.82807 0.0
H753 H 0.43295 0.79852 0.82269 0.0
H754 H 0.41722 0.80105 0.7089 0.0
H755 H 0.39173 0.81374 0.69343 0.0
H756 H 0.19459 0.59277 0.65252 0.0
H757 H 0.20865 0.63147 0.66645 0.0
H758 H 0.27301 0.6417 0.68336 0.0
H759 H 0.25912 0.60321 0.67146 0.0
H760 H 0.26532 0.66362 0.78611 0.0
H761 H 0.23995 0.67826 0.51883 0.0
H762 H 0.21853 0.65852 0.57344 0.0
H763 H 0.2391 0.65338 0.54064 0.0
C764 C 0.21176 0.6033 0.65848 0.0
C765 C 0.22572 0.59486 0.66057 0.0
C766 C 0.21978 0.62544 0.66632 0.0
C767 C 0.24194 0.63958 0.67526 0.0
C768 C 0.25586 0.63115 0.67675 0.0
H769 H 0.32345 0.77186 0.59282 0.0
H770 H 0.30114 0.73295 0.59724 0.0
C771 C 0.24787 0.60909 0.66964 0.0
C772 C 0.25089 0.66314 0.68381 0.0
H773 H 0.25753 0.70796 0.59656 0.0
C774 C 0.26349 0.67332 0.74493 0.0
C775 C 0.24854 0.6758 0.62997 0.0
C776 C 0.23597 0.66602 0.5617 0.0
C777 C 0.27438 0.6958 0.75253 0.0
C778 C 0.27225 0.70846 0.69824 0.0
C779 C 0.25904 0.69823 0.6384 0.0
C780 C 0.28553 0.73232 0.69775 0.0
C781 C 0.28893 0.70584 0.81673 0.0
C782 C 0.28425 0.74508 0.75298 0.0
C783 C 0.29725 0.76757 0.75087 0.0
C784 C 0.31154 0.77754 0.69318 0.0
C785 C 0.31261 0.76469 0.63806 0.0
C786 C 0.29979 0.7424 0.64034 0.0
H787 H 0.29197 0.69414 0.84613 0.0
H788 H 0.3046 0.71962 0.7997 0.0
H789 H 0.28128 0.71194 0.85476 0.0
H790 H 0.27311 0.73769 0.7973 0.0
H791 H 0.29602 0.77712 0.7938 0.0
H792 H 0.46794 0.67872 0.73146 0.0
H793 H 0.42943 0.65483 0.74433 0.0
H794 H 0.43386 0.60576 0.62452 0.0
H795 H 0.47283 0.6296 0.61212 0.0
H796 H 0.39914 0.6372 0.63702 0.0
H797 H 0.3997 0.5731 0.80353 0.0
H798 H 0.42337 0.59907 0.79064 0.0
H799 H 0.41457 0.57918 0.72059 0.0
C800 C 0.46087 0.66283 0.70791 0.0
C801 C 0.4736 0.65611 0.67077 0.0
C802 C 0.43876 0.64917 0.71542 0.0
C803 C 0.42875 0.6284 0.68626 0.0
C804 C 0.4413 0.62157 0.64876 0.0
H805 H 0.29346 0.53081 0.66092 0.0
H806 H 0.33281 0.55053 0.65692 0.0
C807 C 0.46356 0.63528 0.64126 0.0
C808 C 0.40507 0.61445 0.69337 0.0
H809 H 0.36569 0.56734 0.76595 0.0
C810 C 0.39185 0.62194 0.66531 0.0
C811 C 0.39555 0.59451 0.73016 0.0
C812 C 0.40898 0.58599 0.76356 0.0
C813 C 0.36941 0.61007 0.6728 0.0
C814 C 0.35989 0.5903 0.71048 0.0
C815 C 0.37305 0.58259 0.73762 0.0
C816 C 0.33625 0.57728 0.72059 0.0
C817 C 0.35602 0.61864 0.63928 0.0
C818 C 0.32515 0.5854 0.76006 0.0
C819 C 0.30265 0.57413 0.76265 0.0
C820 C 0.29091 0.55454 0.72587 0.0
C821 C 0.30209 0.54589 0.68974 0.0
C822 C 0.32457 0.55713 0.68733 0.0
H823 H 0.36523 0.63125 0.59835 0.0
H824 H 0.34142 0.60553 0.61327 0.0
H825 H 0.35079 0.62585 0.682 0.0
H826 H 0.33389 0.60078 0.7871 0.0
H827 H 0.29445 0.58117 0.79087 0.0
H828 H 0.05936 0.21393 0.80112 0.0
H829 H 0.0645 0.21814 0.67052 0.0
H830 H 0.99581 0.18725 0.64052 0.0
H831 H 0.99058 0.18339 0.77114 0.0
H832 H 0.04732 0.18225 0.57974 0.0
H833 H 0.01913 0.23891 0.50357 0.0
H834 H 0.02639 0.23642 0.59488 0.0
H835 H 1.00068 0.21688 0.55915 0.0
C836 C 0.04541 0.20853 0.76668 0.0
C837 C 0.02458 0.19826 0.79567 0.0
C838 C 0.04837 0.21089 0.69235 0.0
C839 C 0.03053 0.20308 0.64642 0.0
C840 C 1.00976 0.19367 0.67545 0.0
H841 H 1.01262 0.18624 0.18646 0.0
H842 H 1.00748 0.18227 0.31726 0.0
C843 C 1.0068 0.19138 0.74982 0.0
C844 C 0.0335 0.20273 0.56822 0.0
H845 H 0.02452 0.22004 0.40797 0.0
C846 C 0.04249 0.19061 0.54204 0.0
C847 C 0.02698 0.21354 0.5198 0.0
C848 C 1.01792 0.22733 0.54564 0.0
C849 C 0.04493 0.18884 0.46801 0.0
C850 C 0.03837 0.19961 0.41966 0.0
C851 C 0.02936 0.21169 0.44574 0.0
C852 C 0.04149 0.19936 0.34162 0.0
C853 C 0.05421 0.17527 0.44192 0.0
C854 C 0.06232 0.20989 0.31291 0.0
C855 C 0.0653 0.21222 0.23857 0.0
C856 C 0.04746 0.20415 0.19247 0.0
C857 C 0.02662 0.19267 0.22118 0.0
C858 C 0.02366 0.1904 0.29554 0.0
H859 H 0.05383 0.1642 0.48455 0.0
H860 H 0.0453 0.16566 0.39405 0.0
H861 H 0.07121 0.18593 0.42582 0.0
H862 H 0.07623 0.2171 0.34806 0.0
H863 H 0.08151 0.22108 0.21742 0.0
H864 H 0.85546 0.87049 0.79755 0.0
H865 H 0.85095 0.87075 0.66696 0.0
H866 H 0.88232 0.83332 0.63898 0.0
H867 H 0.88692 0.83299 0.76978 0.0
H868 H 0.90074 0.87355 0.56218 0.0
H869 H 0.81252 0.82312 0.52072 0.0
H870 H 0.82064 0.84306 0.59048 0.0
H871 H 0.82588 0.82123 0.60067 0.0
C872 C 0.86097 0.86193 0.76361 0.0
C873 C 0.87163 0.85181 0.79319 0.0
C874 C 0.85831 0.86203 0.68929 0.0
C875 C 0.86622 0.85196 0.64399 0.0
C876 C 0.87608 0.8411 0.6736 0.0
H877 H 0.88151 0.85044 0.18385 0.0
H878 H 0.88505 0.84891 0.31451 0.0
C879 C 0.87868 0.84092 0.74798 0.0
C880 C 0.86617 0.85469 0.56563 0.0
H881 H 0.8332 0.84373 0.42079 0.0
C882 C 0.88602 0.86693 0.53093 0.0
C883 C 0.84688 0.84617 0.52597 0.0
C884 C 0.82524 0.83251 0.56107 0.0
C885 C 0.88708 0.87119 0.457 0.0
C886 C 0.86779 0.86262 0.41721 0.0
C887 C 0.84793 0.85033 0.45195 0.0
C888 C 0.86774 0.86566 0.3389 0.0
C889 C 0.90875 0.88515 0.42245 0.0
C890 C 0.85693 0.87566 0.30995 0.0
C891 C 0.85473 0.87639 0.23555 0.0
C892 C 0.86323 0.867 0.18954 0.0
C893 C 0.87483 0.85779 0.21847 0.0
C894 C 0.87695 0.857 0.29287 0.0
H895 H 0.92118 0.89505 0.46302 0.0
H896 H 0.91396 0.87476 0.39515 0.0
H897 H 0.90795 0.89598 0.38138 0.0
H898 H 0.84972 0.88239 0.34502 0.0
H899 H 0.84579 0.88365 0.21423 0.0
H900 H 0.23634 0.07892 0.77397 0.0
H901 H 0.23436 0.07376 0.64312 0.0
H902 H 0.19784 1.00506 0.67322 0.0
H903 H 0.1994 1.01007 0.80398 0.0
H904 H 0.24605 0.04936 0.5509 0.0
H905 H 0.15817 0.0198 0.55337 0.0
H906 H 0.17538 0.03341 0.62929 0.0
H907 H 0.16674 1.00565 0.61227 0.0
C908 C 0.22815 0.06273 0.75257 0.0
C909 C 0.21775 0.04488 0.79846 0.0
C910 C 0.22704 0.05983 0.67815 0.0
C911 C 0.21555 0.03908 0.64925 0.0
C912 C 0.20638 0.02119 0.69507 0.0
H913 H 0.18572 0.98775 0.22103 0.0
H914 H 0.18746 0.99342 0.35163 0.0
C915 C 0.2074 0.02407 0.76944 0.0
C916 C 0.21225 0.03623 0.57114 0.0
H917 H 0.1734 0.01829 0.44163 0.0
C918 C 0.23022 0.04265 0.52678 0.0
C919 C 0.19152 0.02759 0.54059 0.0
C920 C 0.17184 0.02138 0.58616 0.0
C921 C 0.22793 0.0402 0.45197 0.0
C922 C 0.20719 0.0314 0.42155 0.0
C923 C 0.18923 0.02506 0.46581 0.0
C924 C 0.20386 0.02808 0.34368 0.0
C925 C 0.24759 0.04663 0.40605 0.0
C926 C 0.21179 0.04575 0.29704 0.0
C927 C 0.21082 0.04258 0.2228 0.0
C928 C 0.20192 0.02171 0.19486 0.0
C929 C 0.19282 1.00399 0.24163 0.0
C930 C 0.19378 1.00718 0.31587 0.0
H931 H 0.2617 0.0494 0.43887 0.0
H932 H 0.24435 0.03407 0.36519 0.0
H933 H 0.2518 0.06173 0.37693 0.0
H934 H 0.21934 0.06197 0.31816 0.0
H935 H 0.21776 0.05647 0.18752 0.0
H936 H 0.74891 0.55483 0.54078 0.0
H937 H 0.74439 0.55047 0.67169 0.0
H938 H 0.67548 0.5177 0.64555 0.0
H939 H 0.67987 0.52169 0.51472 0.0
H940 H 0.72367 0.56796 0.75167 0.0
H941 H 0.68474 0.47962 0.78903 0.0
H942 H 0.69884 0.49296 0.70743 0.0
H943 H 0.67195 0.48776 0.72287 0.0
C944 C 0.73282 0.54637 0.56304 0.0
C945 C 0.71472 0.53873 0.51824 0.0
C946 C 0.73028 0.54392 0.63751 0.0
C947 C 0.70963 0.53368 0.66772 0.0
C948 C 0.69152 0.52534 0.62285 0.0
H949 H 0.65737 0.51468 0.09615 0.0
H950 H 0.66319 0.51901 0.96565 0.0
C951 C 0.69405 0.52774 0.54838 0.0
C952 C 0.70703 0.53337 0.74631 0.0
H953 H 0.68442 0.49996 0.88989 0.0
C954 C 0.71525 0.55312 0.78218 0.0
C955 C 0.69594 0.51395 0.78523 0.0
C956 C 0.68751 0.49236 0.74936 0.0
C957 C 0.71229 0.55396 0.8564 0.0
C958 C 0.70103 0.53453 0.89512 0.0
C959 C 0.69292 0.51479 0.85939 0.0
C960 C 0.69782 0.53422 0.97331 0.0
C961 C 0.72081 0.57551 0.89259 0.0
C962 C 0.71545 0.54167 0.01999 0.0
C963 C 0.71218 0.53922 0.0942 0.0
C964 C 0.69123 0.52917 0.12223 0.0
C965 C 0.67366 0.52243 0.07554 0.0
C966 C 0.67694 0.52487 0.00133 0.0
H967 H 0.72471 0.58855 0.85291 0.0
H968 H 0.70898 0.57515 0.93197 0.0
H969 H 0.73574 0.57945 0.92244 0.0
H970 H 0.73165 0.54865 -0.00109 0.0
H971 H 0.72597 0.5445 0.12936 0.0
H972 H 0.55 0.18713 0.52193 0.0
H973 H 0.55407 0.18718 0.65292 0.0
H974 H 0.52055 0.2227 0.67681 0.0
H975 H 0.51615 0.22245 0.54577 0.0
H976 H 0.57206 0.22134 0.75664 0.0
H977 H 0.48414 0.16616 0.79132 0.0
H978 H 0.49736 0.17079 0.70497 0.0
H979 H 0.49159 0.19045 0.74212 0.0
C980 C 0.54371 0.19513 0.55513 0.0
C981 C 0.53243 0.20445 0.52439 0.0
C982 C 0.54607 0.19518 0.62964 0.0
C983 C 0.53721 0.20456 0.67391 0.0
C984 C 0.5271 0.21504 0.64308 0.0
H985 H 0.52697 0.20954 0.13591 0.0
H986 H 0.52406 0.21234 0.00536 0.0
C987 C 0.52468 0.21495 0.56855 0.0
C988 C 0.53755 0.20232 0.75245 0.0
H989 H 0.50504 0.17842 0.89743 0.0
C990 C 0.55746 0.21199 0.78762 0.0
C991 C 0.51837 0.18999 0.79194 0.0
C992 C 0.49663 0.17858 0.7558 0.0
C993 C 0.5587 0.20981 0.86214 0.0
C994 C 0.53954 0.1974 0.9015 0.0
C995 C 0.51962 0.18786 0.86646 0.0
C996 C 0.53989 0.19426 0.97949 0.0
C997 C 0.58042 0.22097 0.8984 0.0
C998 C 0.54911 0.18257 0.0072 0.0
C999 C 0.55069 0.18085 0.08149 0.0
C1000 C 0.54303 0.1908 0.12851 0.0
C1001 C 0.53297 0.20172 0.10055 0.0
C1002 C 0.53135 0.20339 0.0263 0.0
H1003 H 0.59296 0.23347 0.86324 0.0
H1004 H 0.57971 0.22857 0.94967 0.0
H1005 H 0.58535 0.20896 0.91137 0.0
H1006 H 0.55543 0.17514 0.97135 0.0
H1007 H 0.5584 0.17225 0.10202 0.0
H1008 H 0.84858 0.32181 0.54584 0.0
H1009 H 0.84874 0.32653 0.67656 0.0
H1010 H 0.88434 0.39536 0.64917 0.0
H1011 H 0.88433 0.39079 0.5184 0.0
H1012 H 0.90357 0.37681 0.74066 0.0
H1013 H 0.81847 0.34974 0.81146 0.0
H1014 H 0.82272 0.33233 0.75255 0.0
H1015 H 0.82915 0.35857 0.72182 0.0
C1016 C 0.85606 0.33793 0.56772 0.0
C1017 C 0.86668 0.35595 0.52268 0.0
C1018 C 0.85604 0.34059 0.64209 0.0
C1019 C 0.8665 0.36127 0.6718 0.0
C1020 C 0.87618 0.3793 0.62665 0.0
H1021 H 0.90147 0.41248 0.09981 0.0
H1022 H 0.89932 0.40668 0.96942 0.0
C1023 C 0.87617 0.37667 0.5523 0.0
C1024 C 0.8694 0.36402 0.75006 0.0
H1025 H 0.84242 0.35596 0.90831 0.0
C1026 C 0.89026 0.37238 0.77752 0.0
C1027 C 0.85189 0.35793 0.79721 0.0
C1028 C 0.82928 0.34928 0.76952 0.0
C1029 C 0.8941 0.3747 0.85175 0.0
C1030 C 0.87662 0.36883 0.89897 0.0
C1031 C 0.85573 0.36035 0.8715 0.0
C1032 C 0.87969 0.37207 0.97713 0.0
C1033 C 0.91671 0.38308 0.87906 0.0
C1034 C 0.86936 0.35448 0.02394 0.0
C1035 C 0.87042 0.35777 0.09816 0.0
C1036 C 0.88176 0.37869 0.12611 0.0
C1037 C 0.89268 0.39621 0.07927 0.0
C1038 C 0.89157 0.39292 0.00506 0.0
H1039 H 0.927 0.38128 0.83814 0.0
H1040 H 0.92398 0.40043 0.89168 0.0
H1041 H 0.91676 0.3746 0.92909 0.0
H1042 H 0.86005 0.3383 0.00292 0.0
H1043 H 0.86174 0.34403 0.13336 0.0
H1044 H 0.39335 0.88142 0.46383 0.0
H1045 H 0.39807 0.88576 0.33317 0.0
H1046 H 0.32931 0.85468 0.30546 0.0
H1047 H 0.32444 0.85024 0.4363 0.0
H1048 H 0.35081 0.83588 0.22954 0.0
H1049 H 0.3891 0.92402 0.18541 0.0
H1050 H 0.40091 0.91594 0.25548 0.0
H1051 H 0.37392 0.91094 0.26575 0.0
C1052 C 0.37928 0.87595 0.42992 0.0
C1053 C 0.35853 0.86538 0.45959 0.0
C1054 C 0.38201 0.87851 0.35555 0.0
C1055 C 0.36402 0.87061 0.31032 0.0
C1056 C 0.34332 0.8609 0.34002 0.0
H1057 H 0.34713 0.85467 0.85037 0.0
H1058 H 0.34203 0.85127 0.98103 0.0
C1059 C 0.34059 0.85839 0.41443 0.0
C1060 C 0.36675 0.87046 0.23198 0.0
H1061 H 0.38891 0.90302 0.08629 0.0
C1062 C 0.35899 0.85052 0.19788 0.0
C1063 C 0.37762 0.88964 0.19178 0.0
C1064 C 0.38574 0.91137 0.22618 0.0
C1065 C 0.36215 0.84924 0.12405 0.0
C1066 C 0.373 0.86843 0.08374 0.0
C1067 C 0.3807 0.88837 0.11786 0.0
C1068 C 0.37607 0.86827 0.0055 0.0
C1069 C 0.35427 0.82747 0.09015 0.0
C1070 C 0.39688 0.87883 0.97659 0.0
C1071 C 0.39982 0.88095 0.9022 0.0
C1072 C 0.38196 0.87262 0.85613 0.0
C1073 C 0.36114 0.86121 0.88502 0.0
C1074 C 0.35821 0.85917 0.95942 0.0
H1075 H 0.3516 0.81509 0.13114 0.0
H1076 H 0.33873 0.82239 0.06262 0.0
H1077 H 0.36587 0.82805 0.04937 0.0
H1078 H 0.4108 0.88594 0.01169 0.0
H1079 H 0.41603 0.88973 0.88091 0.0
H1080 H 0.21784 0.52002 0.85359 0.0
H1081 H 0.2226 0.51991 -0.01579 0.0
H1082 H 0.18422 0.55017 0.01451 0.0
H1083 H 0.17942 0.55042 0.88374 0.0
H1084 H 0.22394 0.56604 0.10353 0.0
H1085 H 0.16858 0.4775 0.10863 0.0
H1086 H 0.19044 0.48728 0.04525 0.0
H1087 H 0.16974 0.49411 0.03366 0.0
C1088 C 0.21066 0.52689 0.8881 0.0
C1089 C 0.19797 0.5349 0.85926 0.0
C1090 C 0.21337 0.52679 0.96236 0.0
C1091 C 0.20342 0.53469 0.0082 0.0
C1092 C 0.19185 0.5439 0.97938 0.0
H1093 H 0.19236 0.54033 0.47038 0.0
H1094 H 0.18905 0.54261 0.33985 0.0
C1095 C 0.18912 0.544 0.90505 0.0
C1096 C 0.20389 0.53204 0.08635 0.0
H1097 H 0.18509 0.49405 0.21866 0.0
C1098 C 0.21546 0.55036 0.12901 0.0
C1099 C 0.19269 0.51149 0.11849 0.0
C1100 C 0.1795 0.49143 0.07442 0.0
C1101 C 0.21646 0.54861 0.20387 0.0
C1102 C 0.20521 0.52805 0.23608 0.0
C1103 C 0.19362 0.50974 0.19329 0.0
C1104 C 0.20558 0.52518 0.31427 0.0
C1105 C 0.22987 0.56867 0.24766 0.0
C1106 C 0.21507 0.51376 0.34226 0.0
C1107 C 0.21671 0.51219 0.41656 0.0
C1108 C 0.20886 0.522 0.46336 0.0
C1109 C 0.19852 0.53262 0.4352 0.0
C1110 C 0.19681 0.53412 0.36092 0.0
H1111 H 0.24141 0.58227 0.21343 0.0
H1112 H 0.21913 0.57354 0.27441 0.0
H1113 H 0.23898 0.56573 0.29022 0.0
H1114 H 0.22173 0.50662 0.30661 0.0
H1115 H 0.22466 0.50384 0.43728 0.0
H1116 H 0.5292 0.67695 0.46673 0.0
H1117 H 0.52851 0.67211 0.3362 0.0
H1118 H 0.56977 0.74044 0.30829 0.0
H1119 H 0.57065 0.74544 0.43922 0.0
H1120 H 0.5291 0.72068 0.23184 0.0
H1121 H 0.57524 0.67826 0.18979 0.0
H1122 H 0.55539 0.66763 0.26022 0.0
H1123 H 0.57832 0.69406 0.26935 0.0
C1124 C 0.53856 0.69087 0.43289 0.0
C1125 C 0.54997 0.71157 0.46256 0.0
C1126 C 0.53817 0.68807 0.35856 0.0
C1127 C 0.5492 0.70592 0.31331 0.0
C1128 C 0.56126 0.72652 0.34291 0.0
H1129 H 0.55182 0.72326 0.85371 0.0
H1130 H 0.55323 0.72826 -0.01568 0.0
C1131 C 0.56174 0.72933 0.41735 0.0
C1132 C 0.54633 0.70326 0.235 0.0
H1133 H 0.55533 0.67978 0.09012 0.0
C1134 C 0.53494 0.71188 0.2005 0.0
C1135 C 0.55381 0.69157 0.19528 0.0
C1136 C 0.56652 0.68246 0.23025 0.0
C1137 C 0.53051 0.70881 0.12665 0.0
C1138 C 0.53805 0.69717 0.08677 0.0
C1139 C 0.54949 0.6886 0.12135 0.0
C1140 C 0.53494 0.69425 0.00847 0.0
C1141 C 0.51747 0.71764 0.0923 0.0
C1142 C 0.52409 0.67348 0.97938 0.0
C1143 C 0.52343 0.67058 0.905 0.0
C1144 C 0.53374 0.68844 0.85916 0.0
C1145 C 0.54376 0.70925 0.88819 0.0
C1146 C 0.54448 0.71213 0.96257 0.0
H1147 H 0.50802 0.7208 0.13299 0.0
H1148 H 0.52848 0.73307 0.06515 0.0
H1149 H 0.50627 0.70639 0.05116 0.0
H1150 H 0.51668 0.65953 0.01436 0.0
H1151 H 0.51554 0.65439 0.88358 0.0
loop_
_geom_bond_atom_site_label_1
_geom_bond_atom_site_label_2
_geom_bond_distance
_geom_bond_site_symmetry_2
_ccdc_geom_bond_type
Dy0 O4 2.398 . S
Dy0 O5 2.491 1_554 S
Dy0 O6 2.403 . S
Dy0 O7 2.664 . S
Dy0 O11 2.326 . S
Dy0 O15 2.310 1_554 S
Dy0 O16 2.351 . S
C1 O12 1.185 1_554 S
C1 O13 1.355 . S
C2 O4 1.185 1_556 S
C2 O5 1.355 . S
Dy3 O7 2.310 1_655 S
Dy3 O10 2.351 . S
Dy3 O12 2.398 1_554 S
Dy3 O13 2.491 . S
Dy3 O14 2.403 1_554 S
Dy3 O15 2.664 1_654 S
Dy3 O17 2.326 1_654 S
O4 Dy0 2.398 . S
O4 C2 1.185 1_554 S
O5 Dy0 2.491 1_556 S
O5 C2 1.355 . S
O6 Dy0 2.403 . S
O6 C8 1.254 . S
O7 Dy0 2.664 . S
O7 Dy3 2.310 1_455 S
O7 C8 1.268 . S
C8 O6 1.254 . S
C8 O7 1.268 . S
C9 O14 1.254 1_455 S
C9 O15 1.268 . S
O10 Dy3 2.351 . S
O10 C18 1.249 . S
O11 Dy0 2.326 . S
O11 C18 1.267 1_455 S
O12 C1 1.185 1_556 S
O12 Dy3 2.398 1_556 S
O13 C1 1.355 . S
O13 Dy3 2.491 . S
O14 Dy3 2.403 1_556 S
O14 C9 1.254 1_655 S
O15 Dy0 2.310 1_556 S
O15 Dy3 2.664 1_456 S
O15 C9 1.268 . S
O16 Dy0 2.351 . S
O16 C19 1.249 1_554 S
O17 Dy3 2.326 1_456 S
O17 C19 1.267 . S
C18 O10 1.249 . S
C18 O11 1.267 1_655 S
C19 O16 1.249 1_556 S
C19 O17 1.267 . S
Dy20 O24 2.398 . S
Dy20 O25 2.491 1_554 S
Dy20 O26 2.403 . S
Dy20 O27 2.664 . S
Dy20 O31 2.326 . S
Dy20 O35 2.310 1_554 S
Dy20 O36 2.351 . S
C21 O32 1.185 1_554 S
C21 O33 1.355 . S
C22 O24 1.185 1_556 S
C22 O25 1.355 . S
Dy23 O27 2.310 . S
Dy23 O30 2.351 . S
Dy23 O32 2.398 1_554 S
Dy23 O33 2.491 . S
Dy23 O34 2.403 1_554 S
Dy23 O35 2.664 1_554 S
Dy23 O37 2.326 1_554 S
O24 Dy20 2.398 . S
O24 C22 1.185 1_554 S
O25 Dy20 2.491 1_556 S
O25 C22 1.355 . S
O26 Dy20 2.403 . S
O26 C28 1.254 . S
O27 Dy20 2.664 . S
O27 Dy23 2.310 . S
O27 C28 1.268 . S
C28 O26 1.254 . S
C28 O27 1.268 . S
C29 O34 1.254 . S
C29 O35 1.268 . S
O30 Dy23 2.351 . S
O30 C38 1.249 . S
O31 Dy20 2.326 . S
O31 C38 1.267 . S
O32 C21 1.185 1_556 S
O32 Dy23 2.398 1_556 S
O33 C21 1.355 . S
O33 Dy23 2.491 . S
O34 Dy23 2.403 1_556 S
O34 C29 1.254 . S
O35 Dy20 2.310 1_556 S
O35 Dy23 2.664 1_556 S
O35 C29 1.268 . S
O36 Dy20 2.351 . S
O36 C39 1.249 1_554 S
O37 Dy23 2.326 1_556 S
O37 C39 1.267 . S
C38 O30 1.249 . S
C38 O31 1.267 . S
C39 O36 1.249 1_556 S
C39 O37 1.267 . S
Dy40 O44 2.398 . S
Dy40 O45 2.491 1_554 S
Dy40 O46 2.403 . S
Dy40 O47 2.664 1_565 S
Dy40 O51 2.326 1_565 S
Dy40 O55 2.310 1_564 S
Dy40 O56 2.351 . S
C41 O52 1.185 1_554 S
C41 O53 1.355 . S
C42 O44 1.185 1_556 S
C42 O45 1.355 . S
Dy43 O47 2.310 . S
Dy43 O50 2.351 . S
Dy43 O52 2.398 1_554 S
Dy43 O53 2.491 . S
Dy43 O54 2.403 1_554 S
Dy43 O55 2.664 1_554 S
Dy43 O57 2.326 1_554 S
O44 Dy40 2.398 . S
O44 C42 1.185 1_554 S
O45 Dy40 2.491 1_556 S
O45 C42 1.355 . S
O46 Dy40 2.403 . S
O46 C48 1.254 1_565 S
O47 Dy40 2.664 1_545 S
O47 Dy43 2.310 . S
O47 C48 1.268 . S
C48 O46 1.254 1_545 S
C48 O47 1.268 . S
C49 O54 1.254 . S
C49 O55 1.268 . S
O50 Dy43 2.351 . S
O50 C58 1.249 . S
O51 Dy40 2.326 1_545 S
O51 C58 1.267 . S
O52 C41 1.185 1_556 S
O52 Dy43 2.398 1_556 S
O53 C41 1.355 . S
O53 Dy43 2.491 . S
O54 Dy43 2.403 1_556 S
O54 C49 1.254 . S
O55 Dy40 2.310 1_546 S
O55 Dy43 2.664 1_556 S
O55 C49 1.268 . S
O56 Dy40 2.351 . S
O56 C59 1.249 1_554 S
O57 Dy43 2.326 1_556 S
O57 C59 1.267 1_545 S
C58 O50 1.249 . S
C58 O51 1.267 . S
C59 O56 1.249 1_556 S
C59 O57 1.267 1_565 S
Dy60 O64 2.398 . S
Dy60 O65 2.491 . S
Dy60 O66 2.403 . S
Dy60 O67 2.664 . S
Dy60 O71 2.326 . S
Dy60 O75 2.310 . S
Dy60 O76 2.351 . S
C61 O72 1.185 . S
C61 O73 1.355 . S
C62 O64 1.185 . S
C62 O65 1.355 . S
Dy63 O67 2.310 . S
Dy63 O70 2.351 . S
Dy63 O72 2.398 . S
Dy63 O73 2.491 . S
Dy63 O74 2.403 . S
Dy63 O75 2.664 . S
Dy63 O77 2.326 . S
O64 Dy60 2.398 . S
O64 C62 1.185 . S
O65 Dy60 2.491 . S
O65 C62 1.355 . S
O66 Dy60 2.403 . S
O66 C68 1.254 . S
O67 Dy60 2.664 . S
O67 Dy63 2.310 . S
O67 C68 1.268 . S
C68 O66 1.254 . S
C68 O67 1.268 . S
C69 O74 1.254 . S
C69 O75 1.268 . S
O70 Dy63 2.351 . S
O70 C78 1.249 . S
O71 Dy60 2.326 . S
O71 C78 1.267 . S
O72 C61 1.185 . S
O72 Dy63 2.398 . S
O73 C61 1.355 . S
O73 Dy63 2.491 . S
O74 Dy63 2.403 . S
O74 C69 1.254 . S
O75 Dy60 2.310 . S
O75 Dy63 2.664 . S
O75 C69 1.268 . S
O76 Dy60 2.351 . S
O76 C79 1.249 . S
O77 Dy63 2.326 . S
O77 C79 1.267 . S
C78 O70 1.249 . S
C78 O71 1.267 . S
C79 O76 1.249 . S
C79 O77 1.267 . S
Dy80 O84 2.398 . S
Dy80 O85 2.491 . S
Dy80 O86 2.403 . S
Dy80 O87 2.664 . S
Dy80 O91 2.326 . S
Dy80 O95 2.310 . S
Dy80 O96 2.351 . S
C81 O92 1.185 . S
C81 O93 1.355 . S
C82 O84 1.185 . S
C82 O85 1.355 . S
Dy83 O87 2.310 . S
Dy83 O90 2.351 . S
Dy83 O92 2.398 . S
Dy83 O93 2.491 . S
Dy83 O94 2.403 . S
Dy83 O95 2.664 . S
Dy83 O97 2.326 . S
O84 Dy80 2.398 . S
O84 C82 1.185 . S
O85 Dy80 2.491 . S
O85 C82 1.355 . S
O86 Dy80 2.403 . S
O86 C88 1.254 . S
O87 Dy80 2.664 . S
O87 Dy83 2.310 . S
O87 C88 1.268 . S
C88 O86 1.254 . S
C88 O87 1.268 . S
C89 O94 1.254 . S
C89 O95 1.268 . S
O90 Dy83 2.351 . S
O90 C98 1.249 . S
O91 Dy80 2.326 . S
O91 C98 1.267 . S
O92 C81 1.185 . S
O92 Dy83 2.398 . S
O93 C81 1.355 . S
O93 Dy83 2.491 . S
O94 Dy83 2.403 . S
O94 C89 1.254 . S
O95 Dy80 2.310 . S
O95 Dy83 2.664 . S
O95 C89 1.268 . S
O96 Dy80 2.351 . S
O96 C99 1.249 . S
O97 Dy83 2.326 . S
O97 C99 1.267 . S
C98 O90 1.249 . S
C98 O91 1.267 . S
C99 O96 1.249 . S
C99 O97 1.267 . S
Dy100 O104 2.398 . S
Dy100 O105 2.491 . S
Dy100 O106 2.403 . S
Dy100 O107 2.664 . S
Dy100 O111 2.326 . S
Dy100 O115 2.310 . S
Dy100 O116 2.351 . S
C101 O112 1.185 . S
C101 O113 1.355 . S
C102 O104 1.185 . S
C102 O105 1.355 . S
Dy103 O107 2.310 . S
Dy103 O110 2.351 . S
Dy103 O112 2.398 . S
Dy103 O113 2.491 . S
Dy103 O114 2.403 . S
Dy103 O115 2.664 . S
Dy103 O117 2.326 . S
O104 Dy100 2.398 . S
O104 C102 1.185 . S
O105 Dy100 2.491 . S
O105 C102 1.355 . S
O106 Dy100 2.403 . S
O106 C108 1.254 . S
O107 Dy100 2.664 . S
O107 Dy103 2.310 . S
O107 C108 1.268 . S
C108 O106 1.254 . S
C108 O107 1.268 . S
C109 O114 1.254 . S
C109 O115 1.268 . S
O110 Dy103 2.351 . S
O110 C118 1.249 . S
O111 Dy100 2.326 . S
O111 C118 1.267 . S
O112 C101 1.185 . S
O112 Dy103 2.398 . S
O113 C101 1.355 . S
O113 Dy103 2.491 . S
O114 Dy103 2.403 . S
O114 C109 1.254 . S
O115 Dy100 2.310 . S
O115 Dy103 2.664 . S
O115 C109 1.268 . S
O116 Dy100 2.351 . S
O116 C119 1.249 . S
O117 Dy103 2.326 . S
O117 C119 1.267 . S
C118 O110 1.249 . S
C118 O111 1.267 . S
C119 O116 1.249 . S
C119 O117 1.267 . S
Dy120 O124 2.398 . S
Dy120 O125 2.491 . S
Dy120 O126 2.403 . S
Dy120 O127 2.664 . S
Dy120 O131 2.326 . S
Dy120 O135 2.310 . S
Dy120 O136 2.351 . S
C121 O132 1.185 . S
C121 O133 1.355 . S
C122 O124 1.185 . S
C122 O125 1.355 . S
Dy123 O127 2.310 . S
Dy123 O130 2.351 . S
Dy123 O132 2.398 . S
Dy123 O133 2.491 . S
Dy123 O134 2.403 . S
Dy123 O135 2.664 . S
Dy123 O137 2.326 . S
O124 Dy120 2.398 . S
O124 C122 1.185 . S
O125 Dy120 2.491 . S
O125 C122 1.355 . S
O126 Dy120 2.403 . S
O126 C128 1.254 . S
O127 Dy120 2.664 . S
O127 Dy123 2.310 . S
O127 C128 1.268 . S
C128 O126 1.254 . S
C128 O127 1.268 . S
C129 O134 1.254 . S
C129 O135 1.268 . S
O130 Dy123 2.351 . S
O130 C138 1.249 . S
O131 Dy120 2.326 . S
O131 C138 1.267 . S
O132 C121 1.185 . S
O132 Dy123 2.398 . S
O133 C121 1.355 . S
O133 Dy123 2.491 . S
O134 Dy123 2.403 . S
O134 C129 1.254 . S
O135 Dy120 2.310 . S
O135 Dy123 2.664 . S
O135 C129 1.268 . S
O136 Dy120 2.351 . S
O136 C139 1.249 . S
O137 Dy123 2.326 . S
O137 C139 1.267 . S
C138 O130 1.249 . S
C138 O131 1.267 . S
C139 O136 1.249 . S
C139 O137 1.267 . S
Dy140 O144 2.398 . S
Dy140 O145 2.491 . S
Dy140 O146 2.403 . S
Dy140 O147 2.664 . S
Dy140 O151 2.326 . S
Dy140 O155 2.310 . S
Dy140 O156 2.351 . S
C141 O152 1.185 . S
C141 O153 1.355 . S
C142 O144 1.185 . S
C142 O145 1.355 . S
Dy143 O147 2.310 . S
Dy143 O150 2.351 . S
Dy143 O152 2.398 . S
Dy143 O153 2.491 . S
Dy143 O154 2.403 . S
Dy143 O155 2.664 . S
Dy143 O157 2.326 . S
O144 Dy140 2.398 . S
O144 C142 1.185 . S
O145 Dy140 2.491 . S
O145 C142 1.355 . S
O146 Dy140 2.403 . S
O146 C148 1.254 . S
O147 Dy140 2.664 . S
O147 Dy143 2.310 . S
O147 C148 1.268 . S
C148 O146 1.254 . S
C148 O147 1.268 . S
C149 O154 1.254 . S
C149 O155 1.268 . S
O150 Dy143 2.351 . S
O150 C158 1.249 . S
O151 Dy140 2.326 . S
O151 C158 1.267 . S
O152 C141 1.185 . S
O152 Dy143 2.398 . S
O153 C141 1.355 . S
O153 Dy143 2.491 . S
O154 Dy143 2.403 . S
O154 C149 1.254 . S
O155 Dy140 2.310 . S
O155 Dy143 2.664 . S
O155 C149 1.268 . S
O156 Dy140 2.351 . S
O156 C159 1.249 . S
O157 Dy143 2.326 . S
O157 C159 1.267 . S
C158 O150 1.249 . S
C158 O151 1.267 . S
C159 O156 1.249 . S
C159 O157 1.267 . S
Dy160 O164 2.398 . S
Dy160 O165 2.491 . S
Dy160 O166 2.403 . S
Dy160 O167 2.664 . S
Dy160 O171 2.326 . S
Dy160 O175 2.310 . S
Dy160 O176 2.351 . S
C161 O172 1.185 . S
C161 O173 1.355 . S
C162 O164 1.185 . S
C162 O165 1.355 . S
Dy163 O167 2.310 . S
Dy163 O170 2.351 . S
Dy163 O172 2.398 . S
Dy163 O173 2.491 . S
Dy163 O174 2.403 . S
Dy163 O175 2.664 . S
Dy163 O177 2.326 . S
O164 Dy160 2.398 . S
O164 C162 1.185 . S
O165 Dy160 2.491 . S
O165 C162 1.355 . S
O166 Dy160 2.403 . S
O166 C168 1.254 . S
O167 Dy160 2.664 . S
O167 Dy163 2.310 . S
O167 C168 1.268 . S
C168 O166 1.254 . S
C168 O167 1.268 . S
C169 O174 1.254 . S
C169 O175 1.268 . S
O170 Dy163 2.351 . S
O170 C178 1.249 . S
O171 Dy160 2.326 . S
O171 C178 1.267 . S
O172 C161 1.185 . S
O172 Dy163 2.398 . S
O173 C161 1.355 . S
O173 Dy163 2.491 . S
O174 Dy163 2.403 . S
O174 C169 1.254 . S
O175 Dy160 2.310 . S
O175 Dy163 2.664 . S
O175 C169 1.268 . S
O176 Dy160 2.351 . S
O176 C179 1.249 . S
O177 Dy163 2.326 . S
O177 C179 1.267 . S
C178 O170 1.249 . S
C178 O171 1.267 . S
C179 O176 1.249 . S
C179 O177 1.267 . S
H180 C188 0.929 1_554 S
H181 C190 0.930 . S
H182 C192 0.930 . S
H183 C195 0.929 . S
H184 C198 0.930 . S
H185 C200 0.960 . S
H186 C200 0.960 . S
H187 C200 0.960 . S
C188 H180 0.929 1_556 S
C188 C189 1.377 . S
C188 C190 1.384 . S
C189 C188 1.377 . S
C189 C195 1.390 . S
C190 H181 0.930 . S
C190 C188 1.384 . S
C190 C191 1.372 . S
C191 C190 1.372 . S
C191 C192 1.400 . S
C191 C196 1.490 . S
C192 H182 0.930 . S
C192 C191 1.400 . S
C192 C195 1.386 . S
H193 C209 0.930 . S
H194 C210 0.931 . S
C195 H183 0.929 . S
C195 C189 1.390 . S
C195 C192 1.386 . S
C196 C191 1.490 . S
C196 C198 1.395 . S
C196 C199 1.403 . S
H197 C203 0.930 . S
C198 H184 0.930 . S
C198 C196 1.395 . S
C198 C201 1.403 . S
C199 C196 1.403 . S
C199 C200 1.524 . S
C199 C203 1.400 . S
C200 H185 0.960 . S
C200 H186 0.960 . S
C200 H187 0.960 . S
C200 C199 1.524 . S
C201 C198 1.403 . S
C201 C202 1.392 . S
C201 C205 1.495 . S
C202 C201 1.392 . S
C202 C203 1.385 . S
C202 C204 1.478 . S
C203 H197 0.930 . S
C203 C199 1.400 . S
C203 C202 1.385 . S
C204 C202 1.478 . S
C204 C206 1.381 . S
C204 C210 1.383 . S
C205 C201 1.495 . S
C205 H211 0.959 . S
C205 H212 0.961 . S
C205 H213 0.960 . S
C206 C204 1.381 . S
C206 C207 1.394 . S
C206 H214 0.930 . S
C207 C206 1.394 . S
C207 C208 1.383 . S
C207 H215 0.929 . S
C208 C207 1.383 . S
C208 C209 1.377 . S
C209 H193 0.930 . S
C209 C208 1.377 . S
C209 C210 1.379 . S
C210 H194 0.931 . S
C210 C204 1.383 . S
C210 C209 1.379 . S
H211 C205 0.959 . S
H212 C205 0.961 . S
H213 C205 0.960 . S
H214 C206 0.930 . S
H215 C207 0.929 . S
H216 C224 0.929 . S
H217 C226 0.930 . S
H218 C228 0.930 . S
H219 C231 0.929 . S
H220 C234 0.930 . S
H221 C236 0.960 . S
H222 C236 0.960 . S
H223 C236 0.960 . S
C224 H216 0.929 . S
C224 C225 1.377 . S
C224 C226 1.384 . S
C225 C224 1.377 . S
C225 C231 1.390 . S
C226 H217 0.930 . S
C226 C224 1.384 . S
C226 C227 1.372 . S
C227 C226 1.372 . S
C227 C228 1.400 . S
C227 C232 1.490 . S
C228 H218 0.930 . S
C228 C227 1.400 . S
C228 C231 1.386 . S
H229 C245 0.930 . S
H230 C246 0.931 . S
C231 H219 0.929 . S
C231 C225 1.390 . S
C231 C228 1.386 . S
C232 C227 1.490 . S
C232 C234 1.395 . S
C232 C235 1.403 . S
H233 C239 0.930 . S
C234 H220 0.930 . S
C234 C232 1.395 . S
C234 C237 1.403 . S
C235 C232 1.403 . S
C235 C236 1.524 . S
C235 C239 1.400 . S
C236 H221 0.960 . S
C236 H222 0.960 . S
C236 H223 0.960 . S
C236 C235 1.524 . S
C237 C234 1.403 . S
C237 C238 1.392 . S
C237 C241 1.495 . S
C238 C237 1.392 . S
C238 C239 1.385 . S
C238 C240 1.478 . S
C239 H233 0.930 . S
C239 C235 1.400 . S
C239 C238 1.385 . S
C240 C238 1.478 . S
C240 C242 1.381 . S
C240 C246 1.383 . S
C241 C237 1.495 . S
C241 H247 0.959 . S
C241 H248 0.961 . S
C241 H249 0.960 . S
C242 C240 1.381 . S
C242 C243 1.394 . S
C242 H250 0.930 . S
C243 C242 1.394 . S
C243 C244 1.383 . S
C243 H251 0.929 . S
C244 C243 1.383 . S
C244 C245 1.377 . S
C245 H229 0.930 . S
C245 C244 1.377 . S
C245 C246 1.379 . S
C246 H230 0.931 . S
C246 C240 1.383 . S
C246 C245 1.379 . S
H247 C241 0.959 . S
H248 C241 0.961 . S
H249 C241 0.960 . S
H250 C242 0.930 . S
H251 C243 0.929 . S
H252 C260 0.929 . S
H253 C262 0.930 . S
H254 C264 0.930 . S
H255 C267 0.929 . S
H256 C270 0.930 . S
H257 C272 0.960 . S
H258 C272 0.960 . S
H259 C272 0.960 . S
C260 H252 0.929 . S
C260 C261 1.377 . S
C260 C262 1.384 . S
C261 C260 1.377 . S
C261 C267 1.390 . S
C262 H253 0.930 . S
C262 C260 1.384 . S
C262 C263 1.372 . S
C263 C262 1.372 . S
C263 C264 1.400 . S
C263 C268 1.490 . S
C264 H254 0.930 . S
C264 C263 1.400 . S
C264 C267 1.386 . S
H265 C281 0.930 . S
H266 C282 0.931 . S
C267 H255 0.929 . S
C267 C261 1.390 . S
C267 C264 1.386 . S
C268 C263 1.490 . S
C268 C270 1.395 . S
C268 C271 1.403 . S
H269 C275 0.930 . S
C270 H256 0.930 . S
C270 C268 1.395 . S
C270 C273 1.403 . S
C271 C268 1.403 . S
C271 C272 1.524 . S
C271 C275 1.400 . S
C272 H257 0.960 . S
C272 H258 0.960 . S
C272 H259 0.960 . S
C272 C271 1.524 . S
C273 C270 1.403 . S
C273 C274 1.392 . S
C273 C277 1.495 . S
C274 C273 1.392 . S
C274 C275 1.385 . S
C274 C276 1.478 . S
C275 H269 0.930 . S
C275 C271 1.400 . S
C275 C274 1.385 . S
C276 C274 1.478 . S
C276 C278 1.381 . S
C276 C282 1.383 . S
C277 C273 1.495 . S
C277 H283 0.959 . S
C277 H284 0.961 . S
C277 H285 0.960 . S
C278 C276 1.381 . S
C278 C279 1.394 . S
C278 H286 0.930 . S
C279 C278 1.394 . S
C279 C280 1.383 . S
C279 H287 0.929 . S
C280 C279 1.383 . S
C280 C281 1.377 . S
C281 H265 0.930 . S
C281 C280 1.377 . S
C281 C282 1.379 . S
C282 H266 0.931 . S
C282 C276 1.383 . S
C282 C281 1.379 . S
H283 C277 0.959 . S
H284 C277 0.961 . S
H285 C277 0.960 . S
H286 C278 0.930 . S
H287 C279 0.929 . S
H288 C296 0.929 . S
H289 C298 0.930 . S
H290 C300 0.930 . S
H291 C303 0.929 . S
H292 C306 0.930 . S
H293 C308 0.960 . S
H294 C308 0.960 . S
H295 C308 0.960 . S
C296 H288 0.929 . S
C296 C297 1.377 . S
C296 C298 1.384 . S
C297 C296 1.377 . S
C297 C303 1.390 . S
C298 H289 0.930 . S
C298 C296 1.384 . S
C298 C299 1.372 . S
C299 C298 1.372 . S
C299 C300 1.400 . S
C299 C304 1.490 . S
C300 H290 0.930 . S
C300 C299 1.400 . S
C300 C303 1.386 . S
H301 C317 0.930 . S
H302 C318 0.931 . S
C303 H291 0.929 . S
C303 C297 1.390 . S
C303 C300 1.386 . S
C304 C299 1.490 . S
C304 C306 1.395 . S
C304 C307 1.403 . S
H305 C311 0.930 . S
C306 H292 0.930 . S
C306 C304 1.395 . S
C306 C309 1.403 . S
C307 C304 1.403 . S
C307 C308 1.524 . S
C307 C311 1.400 . S
C308 H293 0.960 . S
C308 H294 0.960 . S
C308 H295 0.960 . S
C308 C307 1.524 . S
C309 C306 1.403 . S
C309 C310 1.392 . S
C309 C313 1.495 . S
C310 C309 1.392 . S
C310 C311 1.385 . S
C310 C312 1.478 . S
C311 H305 0.930 . S
C311 C307 1.400 . S
C311 C310 1.385 . S
C312 C310 1.478 . S
C312 C314 1.381 . S
C312 C318 1.383 . S
C313 C309 1.495 . S
C313 H319 0.959 1_554 S
C313 H320 0.961 1_554 S
C313 H321 0.960 . S
C314 C312 1.381 . S
C314 C315 1.394 . S
C314 H322 0.930 . S
C315 C314 1.394 . S
C315 C316 1.383 . S
C315 H323 0.929 . S
C316 C315 1.383 . S
C316 C317 1.377 . S
C317 H301 0.930 . S
C317 C316 1.377 . S
C317 C318 1.379 . S
C318 H302 0.931 . S
C318 C312 1.383 . S
C318 C317 1.379 . S
H319 C313 0.959 1_556 S
H320 C313 0.961 1_556 S
H321 C313 0.960 . S
H322 C314 0.930 . S
H323 C315 0.929 . S
H324 C332 0.929 . S
H325 C334 0.930 . S
H326 C336 0.930 . S
H327 C339 0.929 . S
H328 C342 0.930 . S
H329 C344 0.960 . S
H330 C344 0.960 . S
H331 C344 0.960 . S
C332 H324 0.929 . S
C332 C333 1.377 . S
C332 C334 1.384 . S
C333 C332 1.377 . S
C333 C339 1.390 . S
C334 H325 0.930 . S
C334 C332 1.384 . S
C334 C335 1.372 . S
C335 C334 1.372 . S
C335 C336 1.400 . S
C335 C340 1.490 . S
C336 H326 0.930 . S
C336 C335 1.400 . S
C336 C339 1.386 . S
H337 C353 0.930 1_556 S
H338 C354 0.931 . S
C339 H327 0.929 . S
C339 C333 1.390 . S
C339 C336 1.386 . S
C340 C335 1.490 . S
C340 C342 1.395 . S
C340 C343 1.403 . S
H341 C347 0.930 . S
C342 H328 0.930 . S
C342 C340 1.395 . S
C342 C345 1.403 . S
C343 C340 1.403 . S
C343 C344 1.524 . S
C343 C347 1.400 . S
C344 H329 0.960 . S
C344 H330 0.960 . S
C344 H331 0.960 . S
C344 C343 1.524 . S
C345 C342 1.403 . S
C345 C346 1.392 . S
C345 C349 1.495 . S
C346 C345 1.392 . S
C346 C347 1.385 . S
C346 C348 1.478 . S
C347 H341 0.930 . S
C347 C343 1.400 . S
C347 C346 1.385 . S
C348 C346 1.478 . S
C348 C350 1.381 . S
C348 C354 1.383 . S
C349 C345 1.495 . S
C349 H355 0.959 . S
C349 H356 0.961 . S
C349 H357 0.960 . S
C350 C348 1.381 . S
C350 C351 1.394 . S
C350 H358 0.930 . S
C351 C350 1.394 . S
C351 C352 1.383 . S
C351 H359 0.929 1_655 S
C352 C351 1.383 . S
C352 C353 1.377 . S
C353 H337 0.930 1_554 S
C353 C352 1.377 . S
C353 C354 1.379 . S
C354 H338 0.931 . S
C354 C348 1.383 . S
C354 C353 1.379 . S
H355 C349 0.959 . S
H356 C349 0.961 . S
H357 C349 0.960 . S
H358 C350 0.930 . S
H359 C351 0.929 1_455 S
H360 C368 0.929 . S
H361 C370 0.930 . S
H362 C372 0.930 . S
H363 C375 0.929 . S
H364 C378 0.930 . S
H365 C380 0.960 . S
H366 C380 0.960 1_556 S
H367 C380 0.960 . S
C368 H360 0.929 . S
C368 C369 1.377 . S
C368 C370 1.384 . S
C369 C368 1.377 . S
C369 C375 1.390 . S
C370 H361 0.930 . S
C370 C368 1.384 . S
C370 C371 1.372 . S
C371 C370 1.372 . S
C371 C372 1.400 . S
C371 C376 1.490 . S
C372 H362 0.930 . S
C372 C371 1.400 . S
C372 C375 1.386 . S
H373 C389 0.930 . S
H374 C390 0.931 . S
C375 H363 0.929 . S
C375 C369 1.390 . S
C375 C372 1.386 . S
C376 C371 1.490 . S
C376 C378 1.395 . S
C376 C379 1.403 . S
H377 C383 0.930 . S
C378 H364 0.930 . S
C378 C376 1.395 . S
C378 C381 1.403 . S
C379 C376 1.403 . S
C379 C380 1.524 . S
C379 C383 1.400 . S
C380 H365 0.960 . S
C380 H366 0.960 1_554 S
C380 H367 0.960 . S
C380 C379 1.524 . S
C381 C378 1.403 . S
C381 C382 1.392 . S
C381 C385 1.495 . S
C382 C381 1.392 . S
C382 C383 1.385 . S
C382 C384 1.478 . S
C383 H377 0.930 . S
C383 C379 1.400 . S
C383 C382 1.385 . S
C384 C382 1.478 . S
C384 C386 1.381 . S
C384 C390 1.383 . S
C385 C381 1.495 . S
C385 H391 0.959 . S
C385 H392 0.961 . S
C385 H393 0.960 . S
C386 C384 1.381 . S
C386 C387 1.394 . S
C386 H394 0.930 . S
C387 C386 1.394 . S
C387 C388 1.383 . S
C387 H395 0.929 . S
C388 C387 1.383 . S
C388 C389 1.377 . S
C389 H373 0.930 . S
C389 C388 1.377 . S
C389 C390 1.379 . S
C390 H374 0.931 . S
C390 C384 1.383 . S
C390 C389 1.379 . S
H391 C385 0.959 . S
H392 C385 0.961 . S
H393 C385 0.960 . S
H394 C386 0.930 . S
H395 C387 0.929 . S
H396 C404 0.929 . S
H397 C406 0.930 . S
H398 C408 0.930 . S
H399 C411 0.929 . S
H400 C414 0.930 . S
H401 C416 0.960 1_655 S
H402 C416 0.960 . S
H403 C416 0.960 . S
C404 H396 0.929 . S
C404 C405 1.377 . S
C404 C406 1.384 . S
C405 C404 1.377 . S
C405 C411 1.390 . S
C406 H397 0.930 . S
C406 C404 1.384 . S
C406 C407 1.372 . S
C407 C406 1.372 . S
C407 C408 1.400 . S
C407 C412 1.490 . S
C408 H398 0.930 . S
C408 C407 1.400 . S
C408 C411 1.386 . S
H409 C425 0.930 . S
H410 C426 0.931 . S
C411 H399 0.929 . S
C411 C405 1.390 . S
C411 C408 1.386 . S
C412 C407 1.490 . S
C412 C414 1.395 . S
C412 C415 1.403 . S
H413 C419 0.930 . S
C414 H400 0.930 . S
C414 C412 1.395 . S
C414 C417 1.403 . S
C415 C412 1.403 . S
C415 C416 1.524 . S
C415 C419 1.400 1_455 S
C416 H401 0.960 1_455 S
C416 H402 0.960 . S
C416 H403 0.960 . S
C416 C415 1.524 . S
C417 C414 1.403 . S
C417 C418 1.392 1_455 S
C417 C421 1.495 . S
C418 C417 1.392 1_655 S
C418 C419 1.385 . S
C418 C420 1.478 . S
C419 H413 0.930 . S
C419 C415 1.400 1_655 S
C419 C418 1.385 . S
C420 C418 1.478 . S
C420 C422 1.381 . S
C420 C426 1.383 . S
C421 C417 1.495 . S
C421 H427 0.959 . S
C421 H428 0.961 1_455 S
C421 H429 0.960 1_455 S
C422 C420 1.381 . S
C422 C423 1.394 . S
C422 H430 0.930 . S
C423 C422 1.394 . S
C423 C424 1.383 . S
C423 H431 0.929 . S
C424 C423 1.383 . S
C424 C425 1.377 . S
C425 H409 0.930 . S
C425 C424 1.377 . S
C425 C426 1.379 . S
C426 H410 0.931 . S
C426 C420 1.383 . S
C426 C425 1.379 . S
H427 C421 0.959 . S
H428 C421 0.961 1_655 S
H429 C421 0.960 1_655 S
H430 C422 0.930 . S
H431 C423 0.929 . S
H432 C440 0.929 . S
H433 C442 0.930 . S
H434 C444 0.930 . S
H435 C447 0.929 . S
H436 C450 0.930 . S
H437 C452 0.960 . S
H438 C452 0.960 . S
H439 C452 0.960 . S
C440 H432 0.929 . S
C440 C441 1.377 . S
C440 C442 1.384 . S
C441 C440 1.377 . S
C441 C447 1.390 . S
C442 H433 0.930 . S
C442 C440 1.384 . S
C442 C443 1.372 . S
C443 C442 1.372 . S
C443 C444 1.400 . S
C443 C448 1.490 . S
C444 H434 0.930 . S
C444 C443 1.400 . S
C444 C447 1.386 . S
H445 C461 0.930 . S
H446 C462 0.931 . S
C447 H435 0.929 . S
C447 C441 1.390 . S
C447 C444 1.386 . S
C448 C443 1.490 . S
C448 C450 1.395 . S
C448 C451 1.403 . S
H449 C455 0.930 . S
C450 H436 0.930 . S
C450 C448 1.395 . S
C450 C453 1.403 . S
C451 C448 1.403 . S
C451 C452 1.524 . S
C451 C455 1.400 . S
C452 H437 0.960 . S
C452 H438 0.960 . S
C452 H439 0.960 . S
C452 C451 1.524 . S
C453 C450 1.403 . S
C453 C454 1.392 . S
C453 C457 1.495 . S
C454 C453 1.392 . S
C454 C455 1.385 . S
C454 C456 1.478 . S
C455 H449 0.930 . S
C455 C451 1.400 . S
C455 C454 1.385 . S
C456 C454 1.478 . S
C456 C458 1.381 . S
C456 C462 1.383 . S
C457 C453 1.495 . S
C457 H463 0.959 . S
C457 H464 0.961 . S
C457 H465 0.960 . S
C458 C456 1.381 . S
C458 C459 1.394 . S
C458 H466 0.930 . S
C459 C458 1.394 . S
C459 C460 1.383 . S
C459 H467 0.929 . S
C460 C459 1.383 . S
C460 C461 1.377 . S
C461 H445 0.930 . S
C461 C460 1.377 . S
C461 C462 1.379 . S
C462 H446 0.931 . S
C462 C456 1.383 . S
C462 C461 1.379 . S
H463 C457 0.959 . S
H464 C457 0.961 . S
H465 C457 0.960 . S
H466 C458 0.930 . S
H467 C459 0.929 . S
H468 C476 0.929 . S
H469 C478 0.930 . S
H470 C480 0.930 . S
H471 C483 0.929 . S
H472 C486 0.930 . S
H473 C488 0.960 . S
H474 C488 0.960 . S
H475 C488 0.960 . S
C476 H468 0.929 . S
C476 C477 1.377 . S
C476 C478 1.384 . S
C477 C476 1.377 . S
C477 C483 1.390 . S
C478 H469 0.930 . S
C478 C476 1.384 . S
C478 C479 1.372 . S
C479 C478 1.372 . S
C479 C480 1.400 . S
C479 C484 1.490 . S
C480 H470 0.930 . S
C480 C479 1.400 . S
C480 C483 1.386 . S
H481 C497 0.930 . S
H482 C498 0.931 . S
C483 H471 0.929 . S
C483 C477 1.390 . S
C483 C480 1.386 . S
C484 C479 1.490 . S
C484 C486 1.395 . S
C484 C487 1.403 . S
H485 C491 0.930 . S
C486 H472 0.930 . S
C486 C484 1.395 . S
C486 C489 1.403 . S
C487 C484 1.403 . S
C487 C488 1.524 . S
C487 C491 1.400 . S
C488 H473 0.960 . S
C488 H474 0.960 . S
C488 H475 0.960 . S
C488 C487 1.524 . S
C489 C486 1.403 . S
C489 C490 1.392 . S
C489 C493 1.495 . S
C490 C489 1.392 . S
C490 C491 1.385 . S
C490 C492 1.478 1_545 S
C491 H485 0.930 . S
C491 C487 1.400 . S
C491 C490 1.385 . S
C492 C490 1.478 1_565 S
C492 C494 1.381 . S
C492 C498 1.383 . S
C493 C489 1.495 . S
C493 H499 0.959 . S
C493 H500 0.961 . S
C493 H501 0.960 . S
C494 C492 1.381 . S
C494 C495 1.394 . S
C494 H502 0.930 . S
C495 C494 1.394 . S
C495 C496 1.383 . S
C495 H503 0.929 . S
C496 C495 1.383 . S
C496 C497 1.377 . S
C497 H481 0.930 . S
C497 C496 1.377 . S
C497 C498 1.379 . S
C498 H482 0.931 . S
C498 C492 1.383 . S
C498 C497 1.379 . S
H499 C493 0.959 . S
H500 C493 0.961 . S
H501 C493 0.960 . S
H502 C494 0.930 . S
H503 C495 0.929 . S
H504 C512 0.929 . S
H505 C514 0.930 . S
H506 C516 0.930 . S
H507 C519 0.929 . S
H508 C522 0.928 1_556 S
H509 C524 0.960 . S
H510 C524 0.960 . S
H511 C524 0.960 . S
C512 H504 0.929 . S
C512 C513 1.377 . S
C512 C514 1.384 . S
C513 C512 1.377 . S
C513 C519 1.390 1_554 S
C514 H505 0.930 . S
C514 C512 1.384 . S
C514 C515 1.372 . S
C515 C514 1.372 . S
C515 C516 1.400 1_554 S
C515 C520 1.490 . S
C516 H506 0.930 . S
C516 C515 1.400 1_556 S
C516 C519 1.386 . S
H517 C533 0.930 . S
H518 C534 0.931 . S
C519 H507 0.929 . S
C519 C513 1.390 1_556 S
C519 C516 1.386 . S
C520 C515 1.490 . S
C520 C522 1.395 . S
C520 C523 1.403 . S
H521 C527 0.930 . S
C522 H508 0.928 1_554 S
C522 C520 1.395 . S
C522 C525 1.404 . S
C523 C520 1.403 . S
C523 C524 1.524 . S
C523 C527 1.400 . S
C524 H509 0.960 . S
C524 H510 0.960 . S
C524 H511 0.960 . S
C524 C523 1.524 . S
C525 C522 1.404 . S
C525 C526 1.394 . S
C525 C529 1.493 1_554 S
C526 C525 1.394 . S
C526 C527 1.385 . S
C526 C528 1.478 . S
C527 H521 0.930 . S
C527 C523 1.400 . S
C527 C526 1.385 . S
C528 C526 1.478 . S
C528 C530 1.381 . S
C528 C534 1.383 1_554 S
C529 C525 1.493 1_556 S
C529 H535 0.959 . S
C529 H536 0.961 . S
C529 H537 0.960 1_556 S
C530 C528 1.381 . S
C530 C531 1.394 . S
C530 H538 0.930 . S
C531 C530 1.394 . S
C531 C532 1.383 . S
C531 H539 0.929 . S
C532 C531 1.383 . S
C532 C533 1.377 1_554 S
C533 H517 0.930 . S
C533 C532 1.377 1_556 S
C533 C534 1.379 . S
C534 H518 0.931 . S
C534 C528 1.383 1_556 S
C534 C533 1.379 . S
H535 C529 0.959 . S
H536 C529 0.961 . S
H537 C529 0.960 1_554 S
H538 C530 0.930 . S
H539 C531 0.929 . S
H540 C548 0.929 . S
H541 C550 0.930 . S
H542 C552 0.930 . S
H543 C555 0.929 . S
H544 C558 0.930 . S
H545 C560 1.005 . S
H546 C560 0.960 . S
H547 C560 0.960 . S
C548 H540 0.929 . S
C548 C549 1.377 . S
C548 C550 1.384 . S
C549 C548 1.377 . S
C549 C555 1.390 1_554 S
C550 H541 0.930 . S
C550 C548 1.384 . S
C550 C551 1.372 . S
C551 C550 1.372 . S
C551 C552 1.400 1_554 S
C551 C556 1.490 . S
C552 H542 0.930 . S
C552 C551 1.400 1_556 S
C552 C555 1.386 . S
H553 C569 0.930 . S
H554 C570 0.931 . S
C555 H543 0.929 . S
C555 C549 1.390 1_556 S
C555 C552 1.386 . S
C556 C551 1.490 . S
C556 C558 1.395 . S
C556 C559 1.403 1_554 S
H557 C563 0.930 . S
C558 H544 0.930 . S
C558 C556 1.395 . S
C558 C561 1.403 1_565 S
C559 C556 1.403 1_556 S
C559 C560 1.524 . S
C559 C563 1.400 1_565 S
C560 H545 1.005 . S
C560 H546 0.960 . S
C560 H547 0.960 . S
C560 C559 1.524 . S
C561 C558 1.403 1_545 S
C561 C562 1.392 . S
C561 C565 1.495 . S
C562 C561 1.392 . S
C562 C563 1.385 1_554 S
C562 C564 1.478 . S
C563 H557 0.930 . S
C563 C559 1.400 1_545 S
C563 C562 1.385 1_556 S
C564 C562 1.478 . S
C564 C566 1.381 . S
C564 C570 1.383 1_554 S
C565 C561 1.495 . S
C565 H571 0.959 . S
C565 H572 0.961 . S
C565 H573 0.960 . S
C566 C564 1.381 . S
C566 C567 1.394 . S
C566 H574 0.930 . S
C567 C566 1.394 . S
C567 C568 1.383 . S
C567 H575 0.929 . S
C568 C567 1.383 . S
C568 C569 1.377 1_554 S
C569 H553 0.930 . S
C569 C568 1.377 1_556 S
C569 C570 1.379 . S
C570 H554 0.931 . S
C570 C564 1.383 1_556 S
C570 C569 1.379 . S
H571 C565 0.959 . S
H572 C565 0.961 . S
H573 C565 0.960 . S
H574 C566 0.930 . S
H575 C567 0.929 . S
H576 C584 0.929 . S
H577 C586 0.930 . S
H578 C588 0.930 . S
H579 C591 0.929 . S
H580 C594 0.930 . S
H581 C596 0.960 . S
H582 C596 0.960 . S
H583 C596 0.960 . S
C584 H576 0.929 . S
C584 C585 1.377 . S
C584 C586 1.384 . S
C585 C584 1.377 . S
C585 C591 1.390 1_554 S
C586 H577 0.930 . S
C586 C584 1.384 . S
C586 C587 1.372 . S
C587 C586 1.372 . S
C587 C588 1.400 1_554 S
C587 C592 1.490 1_655 S
C588 H578 0.930 . S
C588 C587 1.400 1_556 S
C588 C591 1.386 . S
H589 C605 0.930 . S
H590 C606 0.931 . S
C591 H579 0.929 . S
C591 C585 1.390 1_556 S
C591 C588 1.386 . S
C592 C587 1.490 1_455 S
C592 C594 1.395 . S
C592 C595 1.403 . S
H593 C599 0.930 . S
C594 H580 0.930 . S
C594 C592 1.395 . S
C594 C597 1.403 . S
C595 C592 1.403 . S
C595 C596 1.524 . S
C595 C599 1.400 . S
C596 H581 0.960 . S
C596 H582 0.960 . S
C596 H583 0.960 . S
C596 C595 1.524 . S
C597 C594 1.403 . S
C597 C598 1.392 . S
C597 C601 1.495 1_554 S
C598 C597 1.392 . S
C598 C599 1.385 . S
C598 C600 1.478 . S
C599 H593 0.930 . S
C599 C595 1.400 . S
C599 C598 1.385 . S
C600 C598 1.478 . S
C600 C602 1.381 . S
C600 C606 1.383 1_554 S
C601 C597 1.495 1_556 S
C601 H607 0.959 . S
C601 H608 0.961 . S
C601 H609 0.960 1_556 S
C602 C600 1.381 . S
C602 C603 1.394 . S
C602 H610 0.930 . S
C603 C602 1.394 . S
C603 C604 1.383 . S
C603 H611 0.929 . S
C604 C603 1.383 . S
C604 C605 1.377 1_554 S
C605 H589 0.930 . S
C605 C604 1.377 1_556 S
C605 C606 1.379 . S
C606 H590 0.931 . S
C606 C600 1.383 1_556 S
C606 C605 1.379 . S
H607 C601 0.959 . S
H608 C601 0.961 . S
H609 C601 0.960 1_554 S
H610 C602 0.930 . S
H611 C603 0.929 . S
H612 C620 0.929 . S
H613 C622 0.930 . S
H614 C624 0.930 . S
H615 C627 0.929 . S
H616 C630 0.930 . S
H617 C632 0.960 . S
H618 C632 0.960 . S
H619 C632 0.960 . S
C620 H612 0.929 . S
C620 C621 1.377 . S
C620 C622 1.384 . S
C621 C620 1.377 . S
C621 C627 1.390 . S
C622 H613 0.930 . S
C622 C620 1.384 . S
C622 C623 1.372 . S
C623 C622 1.372 . S
C623 C624 1.400 . S
C623 C628 1.490 . S
C624 H614 0.930 . S
C624 C623 1.400 . S
C624 C627 1.386 . S
H625 C641 0.930 . S
H626 C642 0.931 . S
C627 H615 0.929 . S
C627 C621 1.390 . S
C627 C624 1.386 . S
C628 C623 1.490 . S
C628 C630 1.395 . S
C628 C631 1.403 . S
H629 C635 0.930 . S
C630 H616 0.930 . S
C630 C628 1.395 . S
C630 C633 1.403 . S
C631 C628 1.403 . S
C631 C632 1.524 . S
C631 C635 1.400 . S
C632 H617 0.960 . S
C632 H618 0.960 . S
C632 H619 0.960 . S
C632 C631 1.524 . S
C633 C630 1.403 . S
C633 C634 1.392 . S
C633 C637 1.495 . S
C634 C633 1.392 . S
C634 C635 1.385 . S
C634 C636 1.478 . S
C635 H629 0.930 . S
C635 C631 1.400 . S
C635 C634 1.385 . S
C636 C634 1.478 . S
C636 C638 1.381 . S
C636 C642 1.383 . S
C637 C633 1.495 . S
C637 H643 0.959 . S
C637 H644 0.961 . S
C637 H645 0.960 . S
C638 C636 1.381 . S
C638 C639 1.394 . S
C638 H646 0.930 . S
C639 C638 1.394 . S
C639 C640 1.383 . S
C639 H647 0.929 . S
C640 C639 1.383 . S
C640 C641 1.377 . S
C641 H625 0.930 . S
C641 C640 1.377 . S
C641 C642 1.379 . S
C642 H626 0.931 . S
C642 C636 1.383 . S
C642 C641 1.379 . S
H643 C637 0.959 . S
H644 C637 0.961 . S
H645 C637 0.960 . S
H646 C638 0.930 . S
H647 C639 0.929 . S
H648 C656 0.929 . S
H649 C658 0.930 . S
H650 C660 0.930 . S
H651 C663 0.929 . S
H652 C666 0.930 . S
H653 C668 0.960 . S
H654 C668 0.960 . S
H655 C668 0.960 . S
C656 H648 0.929 . S
C656 C657 1.377 . S
C656 C658 1.384 . S
C657 C656 1.377 . S
C657 C663 1.390 . S
C658 H649 0.930 . S
C658 C656 1.384 . S
C658 C659 1.372 . S
C659 C658 1.372 . S
C659 C660 1.400 . S
C659 C664 1.490 . S
C660 H650 0.930 . S
C660 C659 1.400 . S
C660 C663 1.386 . S
H661 C677 0.930 . S
H662 C678 0.931 . S
C663 H651 0.929 . S
C663 C657 1.390 . S
C663 C660 1.386 . S
C664 C659 1.490 . S
C664 C666 1.395 . S
C664 C667 1.403 . S
H665 C671 0.930 . S
C666 H652 0.930 . S
C666 C664 1.395 . S
C666 C669 1.403 . S
C667 C664 1.403 . S
C667 C668 1.524 . S
C667 C671 1.400 . S
C668 H653 0.960 . S
C668 H654 0.960 . S
C668 H655 0.960 . S
C668 C667 1.524 . S
C669 C666 1.403 . S
C669 C670 1.392 . S
C669 C673 1.495 . S
C670 C669 1.392 . S
C670 C671 1.385 . S
C670 C672 1.478 . S
C671 H665 0.930 . S
C671 C667 1.400 . S
C671 C670 1.385 . S
C672 C670 1.478 . S
C672 C674 1.381 . S
C672 C678 1.383 . S
C673 C669 1.495 . S
C673 H679 0.959 . S
C673 H680 0.961 . S
C673 H681 0.960 . S
C674 C672 1.381 . S
C674 C675 1.394 . S
C674 H682 0.930 . S
C675 C674 1.394 . S
C675 C676 1.383 . S
C675 H683 0.929 . S
C676 C675 1.383 . S
C676 C677 1.377 . S
C677 H661 0.930 . S
C677 C676 1.377 . S
C677 C678 1.379 . S
C678 H662 0.931 . S
C678 C672 1.383 . S
C678 C677 1.379 . S
H679 C673 0.959 . S
H680 C673 0.961 . S
H681 C673 0.960 . S
H682 C674 0.930 . S
H683 C675 0.929 . S
H684 C692 0.929 . S
H685 C694 0.930 . S
H686 C696 0.930 . S
H687 C699 0.929 . S
H688 C702 0.930 . S
H689 C704 0.960 . S
H690 C704 0.960 . S
H691 C704 0.960 . S
C692 H684 0.929 . S
C692 C693 1.377 . S
C692 C694 1.384 . S
C693 C692 1.377 . S
C693 C699 1.390 . S
C694 H685 0.930 . S
C694 C692 1.384 . S
C694 C695 1.372 . S
C695 C694 1.372 . S
C695 C696 1.400 . S
C695 C700 1.490 . S
C696 H686 0.930 . S
C696 C695 1.400 . S
C696 C699 1.386 . S
H697 C713 0.930 . S
H698 C714 0.931 . S
C699 H687 0.929 . S
C699 C693 1.390 . S
C699 C696 1.386 . S
C700 C695 1.490 . S
C700 C702 1.395 . S
C700 C703 1.403 . S
H701 C707 0.930 . S
C702 H688 0.930 . S
C702 C700 1.395 . S
C702 C705 1.403 . S
C703 C700 1.403 . S
C703 C704 1.524 . S
C703 C707 1.400 . S
C704 H689 0.960 . S
C704 H690 0.960 . S
C704 H691 0.960 . S
C704 C703 1.524 . S
C705 C702 1.403 . S
C705 C706 1.392 . S
C705 C709 1.495 . S
C706 C705 1.392 . S
C706 C707 1.385 . S
C706 C708 1.478 . S
C707 H701 0.930 . S
C707 C703 1.400 . S
C707 C706 1.385 . S
C708 C706 1.478 . S
C708 C710 1.381 . S
C708 C714 1.383 . S
C709 C705 1.495 . S
C709 H715 0.959 . S
C709 H716 0.961 . S
C709 H717 0.960 . S
C710 C708 1.381 . S
C710 C711 1.394 . S
C710 H718 0.930 . S
C711 C710 1.394 . S
C711 C712 1.383 . S
C711 H719 0.929 . S
C712 C711 1.383 . S
C712 C713 1.377 . S
C713 H697 0.930 . S
C713 C712 1.377 . S
C713 C714 1.379 . S
C714 H698 0.931 . S
C714 C708 1.383 . S
C714 C713 1.379 . S
H715 C709 0.959 . S
H716 C709 0.961 . S
H717 C709 0.960 . S
H718 C710 0.930 . S
H719 C711 0.929 . S
H720 C728 0.929 . S
H721 C730 0.930 . S
H722 C732 0.930 . S
H723 C735 0.929 . S
H724 C738 0.930 . S
H725 C740 0.960 . S
H726 C740 0.960 . S
H727 C740 0.960 . S
C728 H720 0.929 . S
C728 C729 1.377 . S
C728 C730 1.384 . S
C729 C728 1.377 . S
C729 C735 1.390 . S
C730 H721 0.930 . S
C730 C728 1.384 . S
C730 C731 1.372 . S
C731 C730 1.372 . S
C731 C732 1.400 . S
C731 C736 1.490 . S
C732 H722 0.930 . S
C732 C731 1.400 . S
C732 C735 1.386 . S
H733 C749 0.930 . S
H734 C750 0.931 . S
C735 H723 0.929 . S
C735 C729 1.390 . S
C735 C732 1.386 . S
C736 C731 1.490 . S
C736 C738 1.395 . S
C736 C739 1.403 . S
H737 C743 0.930 . S
C738 H724 0.930 . S
C738 C736 1.395 . S
C738 C741 1.403 . S
C739 C736 1.403 . S
C739 C740 1.524 . S
C739 C743 1.400 . S
C740 H725 0.960 . S
C740 H726 0.960 . S
C740 H727 0.960 . S
C740 C739 1.524 . S
C741 C738 1.403 . S
C741 C742 1.392 . S
C741 C745 1.495 . S
C742 C741 1.392 . S
C742 C743 1.385 . S
C742 C744 1.478 . S
C743 H737 0.930 . S
C743 C739 1.400 . S
C743 C742 1.385 . S
C744 C742 1.478 . S
C744 C746 1.381 . S
C744 C750 1.383 . S
C745 C741 1.495 . S
C745 H751 0.959 . S
C745 H752 0.961 . S
C745 H753 0.960 . S
C746 C744 1.381 . S
C746 C747 1.394 . S
C746 H754 0.930 . S
C747 C746 1.394 . S
C747 C748 1.383 . S
C747 H755 0.929 . S
C748 C747 1.383 . S
C748 C749 1.377 . S
C749 H733 0.930 . S
C749 C748 1.377 . S
C749 C750 1.379 . S
C750 H734 0.931 . S
C750 C744 1.383 . S
C750 C749 1.379 . S
H751 C745 0.959 . S
H752 C745 0.961 . S
H753 C745 0.960 . S
H754 C746 0.930 . S
H755 C747 0.929 . S
H756 C764 0.929 . S
H757 C766 0.930 . S
H758 C768 0.930 . S
H759 C771 0.929 . S
H760 C774 0.930 . S
H761 C776 0.960 . S
H762 C776 0.960 . S
H763 C776 0.960 . S
C764 H756 0.929 . S
C764 C765 1.377 . S
C764 C766 1.384 . S
C765 C764 1.377 . S
C765 C771 1.390 . S
C766 H757 0.930 . S
C766 C764 1.384 . S
C766 C767 1.372 . S
C767 C766 1.372 . S
C767 C768 1.400 . S
C767 C772 1.490 . S
C768 H758 0.930 . S
C768 C767 1.400 . S
C768 C771 1.386 . S
H769 C785 0.930 . S
H770 C786 0.931 . S
C771 H759 0.929 . S
C771 C765 1.390 . S
C771 C768 1.386 . S
C772 C767 1.490 . S
C772 C774 1.395 . S
C772 C775 1.403 . S
H773 C779 0.930 . S
C774 H760 0.930 . S
C774 C772 1.395 . S
C774 C777 1.403 . S
C775 C772 1.403 . S
C775 C776 1.524 . S
C775 C779 1.400 . S
C776 H761 0.960 . S
C776 H762 0.960 . S
C776 H763 0.960 . S
C776 C775 1.524 . S
C777 C774 1.403 . S
C777 C778 1.392 . S
C777 C781 1.495 . S
C778 C777 1.392 . S
C778 C779 1.385 . S
C778 C780 1.478 . S
C779 H773 0.930 . S
C779 C775 1.400 . S
C779 C778 1.385 . S
C780 C778 1.478 . S
C780 C782 1.381 . S
C780 C786 1.383 . S
C781 C777 1.495 . S
C781 H787 0.959 . S
C781 H788 0.961 . S
C781 H789 0.960 . S
C782 C780 1.381 . S
C782 C783 1.394 . S
C782 H790 0.930 . S
C783 C782 1.394 . S
C783 C784 1.383 . S
C783 H791 0.929 . S
C784 C783 1.383 . S
C784 C785 1.377 . S
C785 H769 0.930 . S
C785 C784 1.377 . S
C785 C786 1.379 . S
C786 H770 0.931 . S
C786 C780 1.383 . S
C786 C785 1.379 . S
H787 C781 0.959 . S
H788 C781 0.961 . S
H789 C781 0.960 . S
H790 C782 0.930 . S
H791 C783 0.929 . S
H792 C800 0.929 . S
H793 C802 0.930 . S
H794 C804 0.930 . S
H795 C807 0.929 . S
H796 C810 0.930 . S
H797 C812 0.960 . S
H798 C812 0.960 . S
H799 C812 0.960 . S
C800 H792 0.929 . S
C800 C801 1.377 . S
C800 C802 1.384 . S
C801 C800 1.377 . S
C801 C807 1.390 . S
C802 H793 0.930 . S
C802 C800 1.384 . S
C802 C803 1.372 . S
C803 C802 1.372 . S
C803 C804 1.400 . S
C803 C808 1.490 . S
C804 H794 0.930 . S
C804 C803 1.400 . S
C804 C807 1.386 . S
H805 C821 0.930 . S
H806 C822 0.931 . S
C807 H795 0.929 . S
C807 C801 1.390 . S
C807 C804 1.386 . S
C808 C803 1.490 . S
C808 C810 1.395 . S
C808 C811 1.403 . S
H809 C815 0.930 . S
C810 H796 0.930 . S
C810 C808 1.395 . S
C810 C813 1.403 . S
C811 C808 1.403 . S
C811 C812 1.524 . S
C811 C815 1.400 . S
C812 H797 0.960 . S
C812 H798 0.960 . S
C812 H799 0.960 . S
C812 C811 1.524 . S
C813 C810 1.403 . S
C813 C814 1.392 . S
C813 C817 1.495 . S
C814 C813 1.392 . S
C814 C815 1.385 . S
C814 C816 1.478 . S
C815 H809 0.930 . S
C815 C811 1.400 . S
C815 C814 1.385 . S
C816 C814 1.478 . S
C816 C818 1.381 . S
C816 C822 1.383 . S
C817 C813 1.495 . S
C817 H823 0.959 . S
C817 H824 0.961 . S
C817 H825 0.960 . S
C818 C816 1.381 . S
C818 C819 1.394 . S
C818 H826 0.930 . S
C819 C818 1.394 . S
C819 C820 1.383 . S
C819 H827 0.929 . S
C820 C819 1.383 . S
C820 C821 1.377 . S
C821 H805 0.930 . S
C821 C820 1.377 . S
C821 C822 1.379 . S
C822 H806 0.931 . S
C822 C816 1.383 . S
C822 C821 1.379 . S
H823 C817 0.959 . S
H824 C817 0.961 . S
H825 C817 0.960 . S
H826 C818 0.930 . S
H827 C819 0.929 . S
H828 C836 0.929 . S
H829 C838 0.930 . S
H830 C840 0.930 . S
H831 C843 0.929 . S
H832 C846 0.930 . S
H833 C848 0.960 . S
H834 C848 0.960 . S
H835 C848 0.960 . S
C836 H828 0.929 . S
C836 C837 1.377 . S
C836 C838 1.384 . S
C837 C836 1.377 . S
C837 C843 1.390 . S
C838 H829 0.930 . S
C838 C836 1.384 . S
C838 C839 1.372 . S
C839 C838 1.372 . S
C839 C840 1.400 . S
C839 C844 1.490 . S
C840 H830 0.930 . S
C840 C839 1.400 . S
C840 C843 1.386 . S
H841 C857 0.930 . S
H842 C858 0.931 . S
C843 H831 0.929 . S
C843 C837 1.390 . S
C843 C840 1.386 . S
C844 C839 1.490 . S
C844 C846 1.395 . S
C844 C847 1.403 . S
H845 C851 0.930 1_655 S
C846 H832 0.930 . S
C846 C844 1.395 . S
C846 C849 1.403 . S
C847 C844 1.403 . S
C847 C848 1.524 1_455 S
C847 C851 1.400 . S
C848 H833 0.960 . S
C848 H834 0.960 . S
C848 H835 0.960 . S
C848 C847 1.524 1_655 S
C849 C846 1.403 . S
C849 C850 1.392 . S
C849 C853 1.495 . S
C850 C849 1.392 . S
C850 C851 1.385 . S
C850 C852 1.478 . S
C851 H845 0.930 1_455 S
C851 C847 1.400 . S
C851 C850 1.385 . S
C852 C850 1.478 . S
C852 C854 1.381 . S
C852 C858 1.383 . S
C853 C849 1.495 . S
C853 H859 0.959 . S
C853 H860 0.961 . S
C853 H861 0.960 . S
C854 C852 1.381 . S
C854 C855 1.394 . S
C854 H862 0.930 . S
C855 C854 1.394 . S
C855 C856 1.383 . S
C855 H863 0.929 . S
C856 C855 1.383 . S
C856 C857 1.377 . S
C857 H841 0.930 . S
C857 C856 1.377 . S
C857 C858 1.379 . S
C858 H842 0.931 . S
C858 C852 1.383 . S
C858 C857 1.379 . S
H859 C853 0.959 . S
H860 C853 0.961 . S
H861 C853 0.960 . S
H862 C854 0.930 . S
H863 C855 0.929 . S
H864 C872 0.929 . S
H865 C874 0.930 . S
H866 C876 0.930 . S
H867 C879 0.929 . S
H868 C882 0.930 . S
H869 C884 0.960 . S
H870 C884 0.960 . S
H871 C884 0.960 . S
C872 H864 0.929 . S
C872 C873 1.377 . S
C872 C874 1.384 . S
C873 C872 1.377 . S
C873 C879 1.390 . S
C874 H865 0.930 . S
C874 C872 1.384 . S
C874 C875 1.372 . S
C875 C874 1.372 . S
C875 C876 1.400 . S
C875 C880 1.490 . S
C876 H866 0.930 . S
C876 C875 1.400 . S
C876 C879 1.386 . S
H877 C893 0.930 . S
H878 C894 0.931 . S
C879 H867 0.929 . S
C879 C873 1.390 . S
C879 C876 1.386 . S
C880 C875 1.490 . S
C880 C882 1.395 . S
C880 C883 1.403 . S
H881 C887 0.930 . S
C882 H868 0.930 . S
C882 C880 1.395 . S
C882 C885 1.403 . S
C883 C880 1.403 . S
C883 C884 1.524 . S
C883 C887 1.400 . S
C884 H869 0.960 . S
C884 H870 0.960 . S
C884 H871 0.960 . S
C884 C883 1.524 . S
C885 C882 1.403 . S
C885 C886 1.392 . S
C885 C889 1.495 . S
C886 C885 1.392 . S
C886 C887 1.385 . S
C886 C888 1.478 . S
C887 H881 0.930 . S
C887 C883 1.400 . S
C887 C886 1.385 . S
C888 C886 1.478 . S
C888 C890 1.381 . S
C888 C894 1.383 . S
C889 C885 1.495 . S
C889 H895 0.959 . S
C889 H896 0.961 . S
C889 H897 0.960 . S
C890 C888 1.381 . S
C890 C891 1.394 . S
C890 H898 0.930 . S
C891 C890 1.394 . S
C891 C892 1.383 . S
C891 H899 0.929 . S
C892 C891 1.383 . S
C892 C893 1.377 . S
C893 H877 0.930 . S
C893 C892 1.377 . S
C893 C894 1.379 . S
C894 H878 0.931 . S
C894 C888 1.383 . S
C894 C893 1.379 . S
H895 C889 0.959 . S
H896 C889 0.961 . S
H897 C889 0.960 . S
H898 C890 0.930 . S
H899 C891 0.929 . S
H900 C908 0.929 . S
H901 C910 0.930 . S
H902 C912 0.930 . S
H903 C915 0.929 . S
H904 C918 0.930 . S
H905 C920 0.960 . S
H906 C920 0.960 . S
H907 C920 0.960 . S
C908 H900 0.929 . S
C908 C909 1.377 . S
C908 C910 1.384 . S
C909 C908 1.377 . S
C909 C915 1.390 . S
C910 H901 0.930 . S
C910 C908 1.384 . S
C910 C911 1.372 . S
C911 C910 1.372 . S
C911 C912 1.400 . S
C911 C916 1.490 . S
C912 H902 0.930 . S
C912 C911 1.400 . S
C912 C915 1.386 . S
H913 C929 0.930 . S
H914 C930 0.931 . S
C915 H903 0.929 . S
C915 C909 1.390 . S
C915 C912 1.386 . S
C916 C911 1.490 . S
C916 C918 1.395 . S
C916 C919 1.403 . S
H917 C923 0.930 1_565 S
C918 H904 0.930 . S
C918 C916 1.395 . S
C918 C921 1.403 . S
C919 C916 1.403 . S
C919 C920 1.524 1_545 S
C919 C923 1.400 . S
C920 H905 0.960 . S
C920 H906 0.960 . S
C920 H907 0.960 . S
C920 C919 1.524 1_565 S
C921 C918 1.403 . S
C921 C922 1.392 . S
C921 C925 1.495 . S
C922 C921 1.392 . S
C922 C923 1.385 . S
C922 C924 1.478 . S
C923 H917 0.930 1_545 S
C923 C919 1.400 . S
C923 C922 1.385 . S
C924 C922 1.478 . S
C924 C926 1.381 . S
C924 C930 1.383 . S
C925 C921 1.495 . S
C925 H931 0.959 . S
C925 H932 0.961 . S
C925 H933 0.960 . S
C926 C924 1.381 . S
C926 C927 1.394 . S
C926 H934 0.930 . S
C927 C926 1.394 . S
C927 C928 1.383 . S
C927 H935 0.929 . S
C928 C927 1.383 . S
C928 C929 1.377 . S
C929 H913 0.930 . S
C929 C928 1.377 . S
C929 C930 1.379 . S
C930 H914 0.931 . S
C930 C924 1.383 . S
C930 C929 1.379 . S
H931 C925 0.959 . S
H932 C925 0.961 . S
H933 C925 0.960 . S
H934 C926 0.930 . S
H935 C927 0.929 . S
H936 C944 0.929 . S
H937 C946 0.930 . S
H938 C948 0.930 . S
H939 C951 0.929 . S
H940 C954 0.930 . S
H941 C956 0.960 . S
H942 C956 0.960 . S
H943 C956 0.960 . S
C944 H936 0.929 . S
C944 C945 1.377 . S
C944 C946 1.384 . S
C945 C944 1.377 . S
C945 C951 1.390 . S
C946 H937 0.930 . S
C946 C944 1.384 . S
C946 C947 1.372 . S
C947 C946 1.372 . S
C947 C948 1.400 . S
C947 C952 1.490 . S
C948 H938 0.930 . S
C948 C947 1.400 . S
C948 C951 1.386 . S
H949 C965 0.930 . S
H950 C966 0.931 . S
C951 H939 0.929 . S
C951 C945 1.390 . S
C951 C948 1.386 . S
C952 C947 1.490 . S
C952 C954 1.395 . S
C952 C955 1.403 . S
H953 C959 0.930 . S
C954 H940 0.930 . S
C954 C952 1.395 . S
C954 C957 1.403 . S
C955 C952 1.403 . S
C955 C956 1.524 . S
C955 C959 1.400 . S
C956 H941 0.960 . S
C956 H942 0.960 . S
C956 H943 0.960 . S
C956 C955 1.524 . S
C957 C954 1.403 . S
C957 C958 1.392 . S
C957 C961 1.495 . S
C958 C957 1.392 . S
C958 C959 1.385 . S
C958 C960 1.478 1_556 S
C959 H953 0.930 . S
C959 C955 1.400 . S
C959 C958 1.385 . S
C960 C958 1.478 1_554 S
C960 C962 1.381 . S
C960 C966 1.383 . S
C961 C957 1.495 . S
C961 H967 0.959 . S
C961 H968 0.961 . S
C961 H969 0.960 . S
C962 C960 1.381 . S
C962 C963 1.394 . S
C962 H970 0.930 . S
C963 C962 1.394 . S
C963 C964 1.383 . S
C963 H971 0.929 . S
C964 C963 1.383 . S
C964 C965 1.377 . S
C965 H949 0.930 . S
C965 C964 1.377 . S
C965 C966 1.379 . S
C966 H950 0.931 . S
C966 C960 1.383 . S
C966 C965 1.379 . S
H967 C961 0.959 . S
H968 C961 0.961 . S
H969 C961 0.960 . S
H970 C962 0.930 . S
H971 C963 0.929 . S
H972 C980 0.929 . S
H973 C982 0.930 . S
H974 C984 0.930 . S
H975 C987 0.929 . S
H976 C990 0.930 . S
H977 C992 0.960 . S
H978 C992 0.960 . S
H979 C992 0.960 . S
C980 H972 0.929 . S
C980 C981 1.377 . S
C980 C982 1.384 . S
C981 C980 1.377 . S
C981 C987 1.390 . S
C982 H973 0.930 . S
C982 C980 1.384 . S
C982 C983 1.372 . S
C983 C982 1.372 . S
C983 C984 1.400 . S
C983 C988 1.490 . S
C984 H974 0.930 . S
C984 C983 1.400 . S
C984 C987 1.386 . S
H985 C1001 0.930 . S
H986 C1002 0.931 . S
C987 H975 0.929 . S
C987 C981 1.390 . S
C987 C984 1.386 . S
C988 C983 1.490 . S
C988 C990 1.395 . S
C988 C991 1.403 . S
H989 C995 0.930 . S
C990 H976 0.930 . S
C990 C988 1.395 . S
C990 C993 1.403 . S
C991 C988 1.403 . S
C991 C992 1.524 . S
C991 C995 1.400 . S
C992 H977 0.960 . S
C992 H978 0.960 . S
C992 H979 0.960 . S
C992 C991 1.524 . S
C993 C990 1.403 . S
C993 C994 1.392 . S
C993 C997 1.495 . S
C994 C993 1.392 . S
C994 C995 1.385 . S
C994 C996 1.467 1_556 S
C995 H989 0.930 . S
C995 C991 1.400 . S
C995 C994 1.385 . S
C996 C994 1.467 1_554 S
C996 C998 1.386 . S
C996 C1002 1.388 . S
C997 C993 1.495 . S
C997 H1003 0.959 . S
C997 H1004 0.961 . S
C997 H1005 0.960 . S
C998 C996 1.386 . S
C998 C999 1.394 . S
C998 H1006 0.930 . S
C999 C998 1.394 . S
C999 C1000 1.383 . S
C999 H1007 0.929 . S
C1000 C999 1.383 . S
C1000 C1001 1.377 . S
C1001 H985 0.930 . S
C1001 C1000 1.377 . S
C1001 C1002 1.379 . S
C1002 H986 0.931 . S
C1002 C996 1.388 . S
C1002 C1001 1.379 . S
H1003 C997 0.959 . S
H1004 C997 0.961 . S
H1005 C997 0.960 . S
H1006 C998 0.930 . S
H1007 C999 0.929 . S
H1008 C1016 0.929 . S
H1009 C1018 0.930 . S
H1010 C1020 0.930 . S
H1011 C1023 0.929 . S
H1012 C1026 0.930 . S
H1013 C1028 0.960 . S
H1014 C1028 0.960 . S
H1015 C1028 0.960 . S
C1016 H1008 0.929 . S
C1016 C1017 1.377 . S
C1016 C1018 1.384 . S
C1017 C1016 1.377 . S
C1017 C1023 1.390 . S
C1018 H1009 0.930 . S
C1018 C1016 1.384 . S
C1018 C1019 1.372 . S
C1019 C1018 1.372 . S
C1019 C1020 1.400 . S
C1019 C1024 1.490 . S
C1020 H1010 0.930 . S
C1020 C1019 1.400 . S
C1020 C1023 1.386 . S
H1021 C1037 0.930 . S
H1022 C1038 0.931 . S
C1023 H1011 0.929 . S
C1023 C1017 1.390 . S
C1023 C1020 1.386 . S
C1024 C1019 1.490 . S
C1024 C1026 1.395 . S
C1024 C1027 1.403 . S
H1025 C1031 0.930 . S
C1026 H1012 0.930 . S
C1026 C1024 1.395 . S
C1026 C1029 1.403 . S
C1027 C1024 1.403 . S
C1027 C1028 1.524 . S
C1027 C1031 1.400 . S
C1028 H1013 0.960 . S
C1028 H1014 0.960 . S
C1028 H1015 0.960 . S
C1028 C1027 1.524 . S
C1029 C1026 1.403 . S
C1029 C1030 1.392 . S
C1029 C1033 1.495 . S
C1030 C1029 1.392 . S
C1030 C1031 1.385 . S
C1030 C1032 1.477 1_556 S
C1031 H1025 0.930 . S
C1031 C1027 1.400 . S
C1031 C1030 1.385 . S
C1032 C1030 1.477 1_554 S
C1032 C1034 1.381 . S
C1032 C1038 1.383 . S
C1033 C1029 1.495 . S
C1033 H1039 0.959 . S
C1033 H1040 0.961 . S
C1033 H1041 0.960 . S
C1034 C1032 1.381 . S
C1034 C1035 1.394 . S
C1034 H1042 0.930 . S
C1035 C1034 1.394 . S
C1035 C1036 1.383 . S
C1035 H1043 0.929 . S
C1036 C1035 1.383 . S
C1036 C1037 1.377 . S
C1037 H1021 0.930 . S
C1037 C1036 1.377 . S
C1037 C1038 1.379 . S
C1038 H1022 0.931 . S
C1038 C1032 1.383 . S
C1038 C1037 1.379 . S
H1039 C1033 0.959 . S
H1040 C1033 0.961 . S
H1041 C1033 0.960 . S
H1042 C1034 0.930 . S
H1043 C1035 0.929 . S
H1044 C1052 0.929 . S
H1045 C1054 0.930 . S
H1046 C1056 0.930 . S
H1047 C1059 0.929 . S
H1048 C1062 0.930 . S
H1049 C1064 0.960 . S
H1050 C1064 0.960 . S
H1051 C1064 0.960 . S
C1052 H1044 0.929 . S
C1052 C1053 1.377 . S
C1052 C1054 1.384 . S
C1053 C1052 1.377 . S
C1053 C1059 1.390 . S
C1054 H1045 0.930 . S
C1054 C1052 1.384 . S
C1054 C1055 1.372 . S
C1055 C1054 1.372 . S
C1055 C1056 1.400 . S
C1055 C1060 1.490 . S
C1056 H1046 0.930 . S
C1056 C1055 1.400 . S
C1056 C1059 1.386 . S
H1057 C1073 0.930 . S
H1058 C1074 0.931 . S
C1059 H1047 0.929 . S
C1059 C1053 1.390 . S
C1059 C1056 1.386 . S
C1060 C1055 1.490 . S
C1060 C1062 1.395 . S
C1060 C1063 1.403 . S
H1061 C1067 0.930 . S
C1062 H1048 0.930 . S
C1062 C1060 1.395 . S
C1062 C1065 1.403 . S
C1063 C1060 1.403 . S
C1063 C1064 1.524 . S
C1063 C1067 1.400 . S
C1064 H1049 0.960 . S
C1064 H1050 0.960 . S
C1064 H1051 0.960 . S
C1064 C1063 1.524 . S
C1065 C1062 1.403 . S
C1065 C1066 1.392 . S
C1065 C1069 1.495 . S
C1066 C1065 1.392 . S
C1066 C1067 1.385 . S
C1066 C1068 1.478 . S
C1067 H1061 0.930 . S
C1067 C1063 1.400 . S
C1067 C1066 1.385 . S
C1068 C1066 1.478 . S
C1068 C1070 1.381 1_554 S
C1068 C1074 1.383 1_554 S
C1069 C1065 1.495 . S
C1069 H1075 0.959 . S
C1069 H1076 0.961 . S
C1069 H1077 0.960 . S
C1070 C1068 1.381 1_556 S
C1070 C1071 1.394 . S
C1070 H1078 0.930 . S
C1071 C1070 1.394 . S
C1071 C1072 1.383 . S
C1071 H1079 0.929 . S
C1072 C1071 1.383 . S
C1072 C1073 1.377 . S
C1073 H1057 0.930 . S
C1073 C1072 1.377 . S
C1073 C1074 1.379 . S
C1074 H1058 0.931 . S
C1074 C1068 1.383 1_556 S
C1074 C1073 1.379 . S
H1075 C1069 0.959 . S
H1076 C1069 0.961 . S
H1077 C1069 0.960 . S
H1078 C1070 0.930 . S
H1079 C1071 0.929 . S
H1080 C1088 0.929 . S
H1081 C1090 0.930 . S
H1082 C1092 0.924 1_554 S
H1083 C1095 0.929 . S
H1084 C1098 0.930 . S
H1085 C1100 0.960 . S
H1086 C1100 0.960 . S
H1087 C1100 0.960 . S
C1088 H1080 0.929 . S
C1088 C1089 1.377 . S
C1088 C1090 1.384 . S
C1089 C1088 1.377 . S
C1089 C1095 1.390 . S
C1090 H1081 0.930 . S
C1090 C1088 1.384 . S
C1090 C1091 1.372 1_556 S
C1091 C1090 1.372 1_554 S
C1091 C1092 1.400 1_554 S
C1091 C1096 1.490 . S
C1092 H1082 0.924 1_556 S
C1092 C1091 1.400 1_556 S
C1092 C1095 1.386 . S
H1093 C1109 0.930 . S
H1094 C1110 0.931 . S
C1095 H1083 0.929 . S
C1095 C1089 1.390 . S
C1095 C1092 1.386 . S
C1096 C1091 1.490 . S
C1096 C1098 1.395 . S
C1096 C1099 1.403 . S
H1097 C1103 0.930 . S
C1098 H1084 0.930 . S
C1098 C1096 1.395 . S
C1098 C1101 1.403 . S
C1099 C1096 1.403 . S
C1099 C1100 1.524 . S
C1099 C1103 1.400 . S
C1100 H1085 0.960 . S
C1100 H1086 0.960 . S
C1100 H1087 0.960 . S
C1100 C1099 1.524 . S
C1101 C1098 1.403 . S
C1101 C1102 1.392 . S
C1101 C1105 1.495 . S
C1102 C1101 1.392 . S
C1102 C1103 1.385 . S
C1102 C1104 1.478 . S
C1103 H1097 0.930 . S
C1103 C1099 1.400 . S
C1103 C1102 1.385 . S
C1104 C1102 1.478 . S
C1104 C1106 1.381 . S
C1104 C1110 1.383 . S
C1105 C1101 1.495 . S
C1105 H1111 0.959 . S
C1105 H1112 0.961 . S
C1105 H1113 0.960 . S
C1106 C1104 1.381 . S
C1106 C1107 1.394 . S
C1106 H1114 0.930 . S
C1107 C1106 1.394 . S
C1107 C1108 1.383 . S
C1107 H1115 0.929 . S
C1108 C1107 1.383 . S
C1108 C1109 1.377 . S
C1109 H1093 0.930 . S
C1109 C1108 1.377 . S
C1109 C1110 1.379 . S
C1110 H1094 0.931 . S
C1110 C1104 1.383 . S
C1110 C1109 1.379 . S
H1111 C1105 0.959 . S
H1112 C1105 0.961 . S
H1113 C1105 0.960 . S
H1114 C1106 0.930 . S
H1115 C1107 0.929 . S
H1116 C1124 0.929 . S
H1117 C1126 0.930 . S
H1118 C1128 0.930 . S
H1119 C1131 0.929 . S
H1120 C1134 0.930 . S
H1121 C1136 0.960 . S
H1122 C1136 0.960 . S
H1123 C1136 0.960 . S
C1124 H1116 0.929 . S
C1124 C1125 1.377 . S
C1124 C1126 1.384 . S
C1125 C1124 1.377 . S
C1125 C1131 1.390 . S
C1126 H1117 0.930 . S
C1126 C1124 1.384 . S
C1126 C1127 1.372 . S
C1127 C1126 1.372 . S
C1127 C1128 1.400 . S
C1127 C1132 1.490 . S
C1128 H1118 0.930 . S
C1128 C1127 1.400 . S
C1128 C1131 1.386 . S
H1129 C1145 0.930 . S
H1130 C1146 0.931 . S
C1131 H1119 0.929 . S
C1131 C1125 1.390 . S
C1131 C1128 1.386 . S
C1132 C1127 1.490 . S
C1132 C1134 1.395 . S
C1132 C1135 1.403 . S
H1133 C1139 0.930 . S
C1134 H1120 0.930 . S
C1134 C1132 1.395 . S
C1134 C1137 1.403 . S
C1135 C1132 1.403 . S
C1135 C1136 1.524 . S
C1135 C1139 1.400 . S
C1136 H1121 0.960 . S
C1136 H1122 0.960 . S
C1136 H1123 0.960 . S
C1136 C1135 1.524 . S
C1137 C1134 1.403 . S
C1137 C1138 1.392 . S
C1137 C1141 1.495 . S
C1138 C1137 1.392 . S
C1138 C1139 1.385 . S
C1138 C1140 1.478 . S
C1139 H1133 0.930 . S
C1139 C1135 1.400 . S
C1139 C1138 1.385 . S
C1140 C1138 1.478 . S
C1140 C1142 1.381 1_554 S
C1140 C1146 1.383 1_554 S
C1141 C1137 1.495 . S
C1141 H1147 0.959 . S
C1141 H1148 0.961 . S
C1141 H1149 0.960 . S
C1142 C1140 1.381 1_556 S
C1142 C1143 1.394 . S
C1142 H1150 0.933 . S
C1143 C1142 1.394 . S
C1143 C1144 1.383 . S
C1143 H1151 0.929 . S
C1144 C1143 1.383 . S
C1144 C1145 1.377 . S
C1145 H1129 0.930 . S
C1145 C1144 1.377 . S
C1145 C1146 1.379 . S
C1146 H1130 0.931 . S
C1146 C1140 1.383 1_556 S
C1146 C1145 1.379 . S
H1147 C1141 0.959 . S
H1148 C1141 0.961 . S
H1149 C1141 0.960 . S
H1150 C1142 0.933 . S
H1151 C1143 0.929 . S
C189 C2 1.824 . S
C208 C158 1.754 . S
C225 C22 1.822 . S
C244 C178 1.790 . S
C261 C42 1.820 . S
C280 C138 1.754 . S
C297 C82 1.821 . S
C316 C58 1.797 . S
C333 C102 1.824 . S
C352 C18 1.754 . S
C369 C38 1.782 . S
C388 C62 1.818 . S
C405 C142 1.818 . S
C424 C118 1.796 . S
C441 C162 1.821 . S
C460 C78 1.794 . S
C477 C98 1.782 . S
C496 C122 1.822 . S
C513 C41 1.541 . S
C532 C19 1.550 1_554 S
C549 C39 1.557 1_554 S
C568 C1 1.549 . S
C585 C21 1.541 . S
C604 C59 1.550 1_554 S
C621 C79 1.559 . S
C640 C101 1.551 . S
C657 C61 1.535 . S
C676 C99 1.552 . S
C693 C81 1.540 . S
C712 C119 1.562 . S
C729 C161 1.537 . S
C748 C139 1.561 . S
C765 C159 1.558 . S
C784 C121 1.552 . S
C801 C179 1.559 . S
C820 C141 1.551 . S
C837 C9 0.860 . S
C856 C8 0.827 . S
C873 C29 0.867 . S
C892 C28 0.891 . S
C909 C49 0.859 . S
C928 C48 0.885 . S
C945 C68 0.862 . S
C964 C69 0.893 . S
C981 C88 0.859 . S
C1000 C89 0.826 . S
C1017 C108 0.854 . S
C1036 C109 0.847 . S
C1053 C129 0.863 . S
C1072 C128 0.893 . S
C1089 C148 0.867 . S
C1108 C149 0.861 . S
C1125 C169 0.864 . S
C1144 C168 0.895 . S
