# Generated by pormake.
# Topology fcu, (12)-cn, num edge types: 1
# Building blocks:
#     Node 0, Type 0, BuildingBlock: EZIPEK_clean_sbu_0, # of connection points: 12
#     Node 1, Type 0, BuildingBlock: EZIPEK_clean_sbu_0, # of connection points: 12
#     Node 2, Type 0, BuildingBlock: EZIPEK_clean_sbu_0, # of connection points: 12
#     Node 3, Type 0, BuildingBlock: EZIPEK_clean_sbu_0, # of connection points: 12
#     Edge 4, Type (0, 0), BuildingBlock: KIFKEQ_clean_linker_1, # of connection points: 2
#     Edge 5, Type (0, 0), BuildingBlock: KIFKEQ_clean_linker_1, # of connection points: 2
#     Edge 6, Type (0, 0), BuildingBlock: KIFKEQ_clean_linker_1, # of connection points: 2
#     Edge 7, Type (0, 0), BuildingBlock: KIFKEQ_clean_linker_1, # of connection points: 2
#     Edge 8, Type (0, 0), BuildingBlock: KIFKEQ_clean_linker_1, # of connection points: 2
#     Edge 9, Type (0, 0), BuildingBlock: KIFKEQ_clean_linker_1, # of connection points: 2
#     Edge 10, Type (0, 0), BuildingBlock: KIFKEQ_clean_linker_1, # of connection points: 2
#     Edge 11, Type (0, 0), BuildingBlock: KIFKEQ_clean_linker_1, # of connection points: 2
#     Edge 12, Type (0, 0), BuildingBlock: KIFKEQ_clean_linker_1, # of connection points: 2
#     Edge 13, Type (0, 0), BuildingBlock: KIFKEQ_clean_linker_1, # of connection points: 2
#     Edge 14, Type (0, 0), BuildingBlock: KIFKEQ_clean_linker_1, # of connection points: 2
#     Edge 15, Type (0, 0), BuildingBlock: KIFKEQ_clean_linker_1, # of connection points: 2
#     Edge 16, Type (0, 0), BuildingBlock: KIFKEQ_clean_linker_1, # of connection points: 2
#     Edge 17, Type (0, 0), BuildingBlock: KIFKEQ_clean_linker_1, # of connection points: 2
#     Edge 18, Type (0, 0), BuildingBlock: KIFKEQ_clean_linker_1, # of connection points: 2
#     Edge 19, Type (0, 0), BuildingBlock: KIFKEQ_clean_linker_1, # of connection points: 2
#     Edge 20, Type (0, 0), BuildingBlock: KIFKEQ_clean_linker_1, # of connection points: 2
#     Edge 21, Type (0, 0), BuildingBlock: KIFKEQ_clean_linker_1, # of connection points: 2
#     Edge 22, Type (0, 0), BuildingBlock: KIFKEQ_clean_linker_1, # of connection points: 2
#     Edge 23, Type (0, 0), BuildingBlock: KIFKEQ_clean_linker_1, # of connection points: 2
#     Edge 24, Type (0, 0), BuildingBlock: KIFKEQ_clean_linker_1, # of connection points: 2
#     Edge 25, Type (0, 0), BuildingBlock: KIFKEQ_clean_linker_1, # of connection points: 2
#     Edge 26, Type (0, 0), BuildingBlock: KIFKEQ_clean_linker_1, # of connection points: 2
#     Edge 27, Type (0, 0), BuildingBlock: KIFKEQ_clean_linker_1, # of connection points: 2
# Relax obj value: 0.000
# Max RMSD: 0.000
# Mean RMSD: 0.000
data_MOF--net-fcu--node1-EZIPEK_clean_sbu_0--edge1-KIFKEQ_clean_linker_1
_symmetry_space_group_name_H-M    P1
_symmetry_Int_Tables_number       1
_symmetry_cell_setting            triclinic
loop_
_symmetry_equiv_pos_as_xyz
'x, y, z'
_cell_length_a     27.280261
_cell_length_b     27.280288
_cell_length_c     27.28013
_cell_angle_alpha  90.003286
_cell_angle_beta   90.001185
_cell_angle_gamma 89.998737
loop_
_atom_site_label
_atom_site_type_symbol
_atom_site_fract_x
_atom_site_fract_y
_atom_site_fract_z
_atom_type_partial_charge
C0 C 1.00866 0.89037 0.12813 0.0
C1 C 0.00988 0.89082 0.89036 0.0
C2 C 0.00955 0.12812 0.12865 0.0
C3 C 0.00957 0.12867 0.89086 0.0
C4 C 0.89067 0.12835 1.00925 0.0
C5 C 0.89056 0.89056 1.00928 0.0
C6 C 0.12849 0.12822 0.00972 0.0
C7 C 0.12825 0.89049 0.00964 0.0
C8 C 0.12879 0.00972 0.89094 0.0
C9 C 0.89103 1.00914 0.89008 0.0
C10 C 0.12782 1.00922 0.12875 0.0
C11 C 0.89 0.00979 0.12782 0.0
Eu12 Eu 0.00941 0.91672 1.00928 0.0
O13 O 0.96605 0.96602 0.96552 0.0
O14 O 0.0528 0.96587 0.05313 0.0
Eu15 Eu 0.91669 1.00939 1.00909 0.0
Eu16 Eu 0.1022 1.00938 0.00969 0.0
O17 O 0.96563 0.96575 0.05289 0.0
O18 O 0.05313 0.96596 0.96583 0.0
Eu19 Eu 1.00899 1.00928 0.1023 0.0
Eu20 Eu 0.0098 0.00972 0.91659 0.0
O21 O 0.96574 0.05299 0.05293 0.0
O22 O 0.96617 0.05316 0.96591 0.0
O23 O 0.05322 0.05321 0.96606 0.0
O24 O 0.05286 0.05287 0.05331 0.0
Eu25 Eu 0.0096 0.10231 0.00973 0.0
O26 O 0.00967 0.87552 0.08148 0.0
O27 O 1.0091 0.87583 0.93696 0.0
O28 O 0.01023 0.14315 0.08207 0.0
O29 O 0.01025 0.14351 0.93752 0.0
O30 O 0.87573 0.08173 1.00821 0.0
O31 O 0.87563 0.93717 0.00982 0.0
O32 O 0.14335 0.08158 1.00883 0.0
O33 O 0.14322 0.9371 0.00943 0.0
O34 O 0.08223 0.01081 0.87584 0.0
O35 O 0.9377 0.01003 0.8753 0.0
O36 O 0.08115 1.00838 0.14353 0.0
O37 O 0.93655 0.01022 0.14298 0.0
O38 O 0.0819 0.14322 0.01056 0.0
O39 O 0.93729 0.14328 0.01034 0.0
O40 O 0.08162 0.87559 0.00981 0.0
O41 O 0.93717 0.87562 1.00871 0.0
O42 O 0.01063 0.93746 0.87546 0.0
O43 O 1.00897 0.08209 0.87581 0.0
O44 O 1.00778 0.93695 0.14315 0.0
O45 O 1.00878 0.08147 0.1435 0.0
O46 O 0.87528 1.00922 0.08114 0.0
O47 O 0.87594 1.00835 0.93665 0.0
O48 O 0.14292 0.01008 0.08217 0.0
O49 O 0.14353 1.00861 0.93761 0.0
C50 C 0.01004 0.39067 0.62842 0.0
C51 C 0.00947 0.6284 0.62832 0.0
C52 C 1.00926 0.39059 0.3906 0.0
C53 C 1.00897 0.62841 0.39055 0.0
C54 C 0.12803 0.50965 0.39037 0.0
C55 C 0.12853 0.50938 0.62817 0.0
C56 C 0.89024 0.50924 0.39078 0.0
C57 C 0.89081 0.50955 0.6285 0.0
C58 C 0.89038 0.62817 0.50922 0.0
C59 C 0.12818 0.62847 0.50943 0.0
C60 C 0.89083 0.39036 0.50987 0.0
C61 C 0.12857 0.39073 0.50919 0.0
Eu62 Eu 0.00962 0.50951 0.60219 0.0
O63 O 0.05306 0.5532 0.55294 0.0
O64 O 0.96606 0.46582 0.55301 0.0
Eu65 Eu 0.1022 0.50951 0.5094 0.0
Eu66 Eu 0.91669 0.50932 0.50954 0.0
O67 O 0.05323 0.46582 0.55307 0.0
O68 O 0.96588 0.55302 0.55304 0.0
Eu69 Eu 0.00969 0.41662 0.5095 0.0
Eu70 Eu 1.00931 0.60232 0.50946 0.0
O71 O 0.05291 0.46602 0.46576 0.0
O72 O 0.0528 0.55303 0.46585 0.0
O73 O 0.96569 0.5531 0.46588 0.0
O74 O 0.96595 0.46577 0.46592 0.0
Eu75 Eu 1.00916 0.50955 0.4166 0.0
O76 O 1.00919 0.4373 0.6433 0.0
O77 O 0.01 0.58178 0.64326 0.0
O78 O 1.00858 0.43721 0.37563 0.0
O79 O 1.0084 0.5818 0.37561 0.0
O80 O 0.14306 0.50892 0.43698 0.0
O81 O 0.14338 0.50889 0.58154 0.0
O82 O 0.87543 0.50842 0.43743 0.0
O83 O 0.87578 0.51006 0.5819 0.0
O84 O 0.93697 0.64319 0.50995 0.0
O85 O 0.08156 0.64338 0.50894 0.0
O86 O 0.93748 0.37548 0.51036 0.0
O87 O 0.08199 0.3757 0.50848 0.0
O88 O 0.93681 0.51012 0.37573 0.0
O89 O 0.08139 0.51032 0.37551 0.0
O90 O 0.93745 0.50904 0.64335 0.0
O91 O 0.08193 0.50991 0.64318 0.0
O92 O 1.00894 0.64335 0.58171 0.0
O93 O 0.00962 0.64336 0.43717 0.0
O94 O 0.01084 0.37567 0.58182 0.0
O95 O 0.00994 0.37565 0.43722 0.0
O96 O 0.14342 0.43737 0.50999 0.0
O97 O 0.14316 0.58185 0.50997 0.0
O98 O 0.87582 0.43696 0.50932 0.0
O99 O 0.87553 0.58152 0.50853 0.0
C100 C 0.50943 0.8906 0.62829 0.0
C101 C 0.50985 0.12834 0.62842 0.0
C102 C 0.50932 0.89066 0.39043 0.0
C103 C 0.50921 0.1285 0.39068 0.0
C104 C 0.6276 1.00938 0.38982 0.0
C105 C 0.62906 1.00938 0.62758 0.0
C106 C 0.38981 0.00944 0.3913 0.0
C107 C 0.39135 1.00934 0.62906 0.0
C108 C 0.39081 0.12858 0.50987 0.0
C109 C 0.62862 0.12803 0.5094 0.0
C110 C 0.39032 0.89081 0.50931 0.0
C111 C 0.62806 0.89026 0.50915 0.0
Eu112 Eu 0.51008 0.00952 0.60218 0.0
O113 O 0.55345 0.05297 0.55268 0.0
O114 O 0.46612 0.96595 0.55326 0.0
Eu115 Eu 0.60221 1.00917 0.50882 0.0
Eu116 Eu 0.4167 0.00965 0.51008 0.0
O117 O 0.55322 0.9657 0.55272 0.0
O118 O 0.4662 0.05323 0.55334 0.0
Eu119 Eu 0.50925 0.91662 0.5094 0.0
Eu120 Eu 0.50965 0.10231 0.50953 0.0
O121 O 0.55258 0.96578 0.46548 0.0
O122 O 0.55278 0.05295 0.46561 0.0
O123 O 0.46572 0.05318 0.46616 0.0
O124 O 0.46556 0.96602 0.46611 0.0
Eu125 Eu 0.50883 0.00955 0.41659 0.0
O126 O 0.51078 0.93722 0.6432 0.0
O127 O 0.51094 0.08171 0.64329 0.0
O128 O 0.5086 0.9373 0.37555 0.0
O129 O 0.50768 0.08191 0.37571 0.0
O130 O 0.64277 1.00846 0.43635 0.0
O131 O 0.64374 1.0085 0.58087 0.0
O132 O 0.37515 0.0104 0.43802 0.0
O133 O 0.37615 1.00872 0.58254 0.0
O134 O 0.43744 0.14343 0.50852 0.0
O135 O 0.58204 0.14308 0.51062 0.0
O136 O 0.4369 0.87578 0.50834 0.0
O137 O 0.58142 0.87541 0.51035 0.0
O138 O 0.43633 1.00861 0.3761 0.0
O139 O 0.5809 0.01034 0.37512 0.0
O140 O 0.43806 0.01012 0.64374 0.0
O141 O 0.58254 0.01018 0.64275 0.0
O142 O 0.50872 0.1433 0.58182 0.0
O143 O 0.51074 0.14336 0.43731 0.0
O144 O 0.50815 0.87566 0.58168 0.0
O145 O 0.51003 0.8757 0.43705 0.0
O146 O 0.64307 0.93683 0.50798 0.0
O147 O 0.64343 0.08137 0.50809 0.0
O148 O 0.37549 0.93746 0.51039 0.0
O149 O 0.37582 0.08199 0.51121 0.0
C150 C 0.50954 0.62815 0.89034 0.0
C151 C 0.50921 0.62869 0.12801 0.0
C152 C 0.50972 0.39032 0.89088 0.0
C153 C 0.50936 0.39096 0.12873 0.0
C154 C 0.62845 0.39069 0.00948 0.0
C155 C 0.62822 0.62844 0.00958 0.0
C156 C 0.3907 0.3904 0.00954 0.0
C157 C 0.39044 0.62816 1.00928 0.0
C158 C 0.38995 0.50976 0.12776 0.0
C159 C 0.62776 0.50936 0.12882 0.0
C160 C 0.39112 0.50908 0.89 0.0
C161 C 0.62888 0.50944 0.89103 0.0
Eu162 Eu 0.50937 0.60221 1.00923 0.0
O163 O 0.55279 0.55318 0.05318 0.0
O164 O 0.46604 0.55284 0.96551 0.0
Eu165 Eu 0.6022 0.50957 0.00982 0.0
Eu166 Eu 0.41668 0.50928 1.00896 0.0
O167 O 0.55324 0.55302 0.96586 0.0
O168 O 0.46557 0.55307 0.05269 0.0
Eu169 Eu 0.50993 0.50929 0.91659 0.0
Eu170 Eu 0.50893 0.50981 0.10229 0.0
O171 O 0.55318 0.46579 0.96621 0.0
O172 O 0.55276 0.46612 0.05335 0.0
O173 O 0.4657 0.46589 0.05301 0.0
O174 O 0.46624 0.46568 0.96575 0.0
Eu175 Eu 0.50954 0.41662 0.00978 0.0
O176 O 0.50814 0.64312 0.93693 0.0
O177 O 0.51058 0.64351 0.08136 0.0
O178 O 0.50895 0.37546 0.93753 0.0
O179 O 0.51035 0.3759 0.08216 0.0
O180 O 0.64332 0.43733 1.00877 0.0
O181 O 0.64316 0.58185 0.01108 0.0
O182 O 0.37573 0.43699 1.00829 0.0
O183 O 0.37557 0.58153 1.00813 0.0
O184 O 0.43649 0.51057 0.14291 0.0
O185 O 0.58109 0.51052 0.14359 0.0
O186 O 0.4378 0.5099 0.87522 0.0
O187 O 0.58234 0.50837 0.87592 0.0
O188 O 0.43732 0.37551 0.01077 0.0
O189 O 0.58185 0.3757 0.01022 0.0
O190 O 0.43705 0.64313 0.01037 0.0
O191 O 0.5816 0.64332 1.00806 0.0
O192 O 0.5079 0.58215 0.14308 0.0
O193 O 0.50827 0.43763 0.14354 0.0
O194 O 0.51101 0.58152 0.87547 0.0
O195 O 0.51041 0.4369 0.87583 0.0
O196 O 0.64361 0.51061 0.93772 0.0
O197 O 0.64285 0.50833 0.08226 0.0
O198 O 0.37602 0.5084 0.93655 0.0
O199 O 0.37523 0.50879 0.08107 0.0
H200 H 0.98415 0.11859 0.22526 0.0
H201 H 0.03509 0.22465 0.11912 0.0
H202 H 0.98333 0.18189 0.28809 0.0
H203 H 0.0358 0.28756 0.18231 0.0
H204 H 0.98388 0.39996 0.29398 0.0
H205 H 0.9832 0.33661 0.23121 0.0
H206 H 0.03572 0.2311 0.33714 0.0
H207 H 0.03484 0.29407 0.40027 0.0
C208 C 0.99561 0.15531 0.21539 0.0
C209 C 0.00962 0.16651 0.16709 0.0
C210 C 0.99535 0.19162 0.25154 0.0
C211 C 0.00954 0.23995 0.24041 0.0
C212 C 0.02381 0.25101 0.1921 0.0
C213 C 0.02363 0.21481 0.15585 0.0
C214 C 0.99535 0.36326 0.3039 0.0
C215 C 1.00932 0.35213 0.35223 0.0
C216 C 0.99519 0.32691 0.26778 0.0
C217 C 0.00946 0.27862 0.27897 0.0
C218 C 0.02367 0.26762 0.32731 0.0
C219 C 0.02339 0.30385 0.36353 0.0
H220 H 0.79337 0.98468 0.11789 0.0
H221 H 0.89927 0.03512 0.22443 0.0
H222 H 0.73033 0.9838 0.18098 0.0
H223 H 0.83588 0.03579 0.28714 0.0
H224 H 0.72409 0.98365 0.39908 0.0
H225 H 0.78688 0.98304 0.33582 0.0
H226 H 0.68111 0.0359 0.23032 0.0
H227 H 0.61789 0.03494 0.29325 0.0
C228 C 0.80314 0.99602 0.15468 0.0
C229 C 0.85144 0.0099 0.16608 0.0
C230 C 0.76687 0.99573 0.19087 0.0
C231 C 0.77788 0.00975 0.23927 0.0
C232 C 0.82618 0.02392 0.25052 0.0
C233 C 0.86255 0.02376 0.21445 0.0
C234 C 0.71419 0.99523 0.36241 0.0
C235 C 0.66589 1.00933 0.35129 0.0
C236 C 0.75033 0.9951 0.32611 0.0
C237 C 0.73922 0.00954 0.27786 0.0
C238 C 0.69089 0.02378 0.26682 0.0
C239 C 0.65462 0.02345 0.30303 0.0
H240 H 0.98309 0.89986 0.22466 0.0
H241 H 0.03417 0.79379 0.1186 0.0
H242 H 0.98242 0.83668 0.28755 0.0
H243 H 0.03506 0.73096 0.18189 0.0
H244 H 0.98354 0.61871 0.294 0.0
H245 H 0.98271 0.68185 0.23104 0.0
H246 H 0.035 0.78781 0.33664 0.0
H247 H 0.03428 0.72504 0.39998 0.0
C248 C 0.99457 0.86315 0.21481 0.0
C249 C 1.00859 0.85192 0.16651 0.0
C250 C 0.99443 0.8269 0.25101 0.0
C251 C 1.00876 0.7786 0.23994 0.0
C252 C 0.02298 0.76749 0.19162 0.0
C253 C 0.02268 0.80364 0.15531 0.0
C254 C 0.99494 0.65547 0.30381 0.0
C255 C 1.0089 0.66679 0.35211 0.0
C256 C 0.99469 0.69169 0.26758 0.0
C257 C 1.00884 0.74004 0.27861 0.0
C258 C 0.02304 0.75123 0.32692 0.0
C259 C 0.02285 0.71512 0.36327 0.0
H260 H 0.39911 0.98348 0.29489 0.0
H261 H 0.29318 0.03488 0.40093 0.0
H262 H 0.33588 0.98262 0.23208 0.0
H263 H 0.23027 0.03563 0.33767 0.0
H264 H 0.11788 0.98437 0.22548 0.0
H265 H 0.18093 0.98358 0.28854 0.0
H266 H 0.28721 0.035 0.18284 0.0
H267 H 0.22456 0.03416 0.11943 0.0
C268 C 0.36242 0.99503 0.30474 0.0
C269 C 0.35127 1.00924 0.35301 0.0
C270 C 0.32613 0.99477 0.26859 0.0
C271 C 0.27786 1.00918 0.27963 0.0
C272 C 0.26679 0.02352 0.32793 0.0
C273 C 0.30298 0.02332 0.36422 0.0
C274 C 0.15469 0.99556 0.21566 0.0
C275 C 0.16612 1.00924 0.1673 0.0
C276 C 0.19087 0.99535 0.25196 0.0
C277 C 0.23929 1.00926 0.24093 0.0
C278 C 0.25058 0.02321 0.19257 0.0
C279 C 0.21452 0.02296 0.15618 0.0
H280 H 0.98451 0.79425 0.89998 0.0
H281 H 0.03505 0.90033 0.79368 0.0
H282 H 0.98363 0.73134 0.8368 0.0
H283 H 0.03573 0.83703 0.73085 0.0
H284 H 0.98386 0.72491 0.61878 0.0
H285 H 0.9832 0.78785 0.68196 0.0
H286 H 0.03601 0.68226 0.78767 0.0
H287 H 0.03513 0.61895 0.72485 0.0
C288 C 0.99588 0.80409 0.86322 0.0
C289 C 0.00983 0.8524 0.85194 0.0
C290 C 0.99559 0.76788 0.82697 0.0
C291 C 0.00969 0.77895 0.77861 0.0
C292 C 0.02383 0.82728 0.76744 0.0
C293 C 0.02368 0.8636 0.80359 0.0
C294 C 0.99541 0.71511 0.65549 0.0
C295 C 0.00949 0.66683 0.66672 0.0
C296 C 0.99526 0.75132 0.69174 0.0
C297 C 0.00962 0.74029 0.74003 0.0
C298 C 0.02391 0.69198 0.75114 0.0
C299 C 0.02362 0.65566 0.715 0.0
H300 H 0.1196 0.0349 0.79427 0.0
H301 H 0.22539 0.98444 0.90091 0.0
H302 H 0.18304 0.03553 0.73163 0.0
H303 H 0.28847 0.98347 0.83787 0.0
H304 H 0.40105 0.03462 0.72572 0.0
H305 H 0.3378 0.03548 0.78862 0.0
H306 H 0.23206 0.98289 0.68295 0.0
H307 H 0.29488 0.98362 0.61972 0.0
C308 C 0.1563 0.02353 0.8043 0.0
C309 C 0.16736 0.00969 0.85269 0.0
C310 C 0.1927 0.02365 0.76825 0.0
C311 C 0.24099 0.00946 0.77954 0.0
C312 C 0.25195 0.99543 0.82795 0.0
C313 C 0.21565 0.99576 0.86411 0.0
C314 C 0.36432 0.02316 0.7159 0.0
C315 C 0.35306 1.00917 0.6676 0.0
C316 C 0.32803 0.02343 0.75209 0.0
C317 C 0.27969 1.00925 0.741 0.0
C318 C 0.2686 0.99492 0.69271 0.0
C319 C 0.30476 0.9951 0.65643 0.0
H320 H 0.98388 0.40025 0.72479 0.0
H321 H 0.03597 0.2942 0.61921 0.0
H322 H 0.98288 0.3371 0.78774 0.0
H323 H 0.03658 0.23143 0.68255 0.0
H324 H 0.98481 0.119 0.79412 0.0
H325 H 0.9841 0.18219 0.73124 0.0
H326 H 0.035 0.28833 0.83734 0.0
H327 H 0.03412 0.22549 0.9006 0.0
C328 C 0.99557 0.36356 0.71508 0.0
C329 C 0.00998 0.35232 0.66689 0.0
C330 C 0.99521 0.32733 0.7513 0.0
C331 C 0.00972 0.27905 0.74038 0.0
C332 C 0.02435 0.26794 0.69218 0.0
C333 C 0.02424 0.30406 0.65584 0.0
C334 C 0.99592 0.1558 0.80407 0.0
C335 C 0.00949 0.16713 0.85248 0.0
C336 C 0.99574 0.19206 0.76788 0.0
C337 C 0.00958 0.24047 0.77905 0.0
C338 C 0.02331 0.2517 0.82749 0.0
C339 C 0.02304 0.21554 0.86379 0.0
H340 H 0.72575 0.98424 0.61784 0.0
H341 H 0.61968 0.03483 0.72413 0.0
H342 H 0.78867 0.98336 0.68109 0.0
H343 H 0.68291 0.03554 0.78694 0.0
H344 H 0.79444 0.98368 0.89928 0.0
H345 H 0.73176 0.98296 0.83588 0.0
H346 H 0.8378 0.03545 0.73046 0.0
H347 H 0.90087 0.03458 0.79351 0.0
C348 C 0.71592 0.99559 0.6546 0.0
C349 C 0.66759 0.00949 0.66588 0.0
C350 C 0.75211 0.99532 0.69088 0.0
C351 C 0.741 1.00939 0.73925 0.0
C352 C 0.69269 0.02361 0.75037 0.0
C353 C 0.6564 0.02343 0.71422 0.0
C354 C 0.80441 0.99512 0.86259 0.0
C355 C 0.85275 1.0091 0.85153 0.0
C356 C 0.76834 0.99495 0.82621 0.0
C357 C 0.77957 1.00923 0.77793 0.0
C358 C 0.82793 0.02341 0.76697 0.0
C359 C 0.86412 0.02313 0.80325 0.0
H360 H 0.29431 0.39971 0.98334 0.0
H361 H 0.40011 0.29402 0.03572 0.0
H362 H 0.23147 0.33645 0.98261 0.0
H363 H 0.33687 0.23115 0.03659 0.0
H364 H 0.22529 0.11843 0.98517 0.0
H365 H 0.28817 0.18165 0.98431 0.0
H366 H 0.18207 0.28784 0.0351 0.0
H367 H 0.11883 0.225 0.03437 0.0
C368 C 0.3041 0.36308 0.99513 0.0
C369 C 0.35231 0.35198 0.00955 0.0
C370 C 0.26794 0.32679 0.99494 0.0
C371 C 0.27895 0.27858 0.00962 0.0
C372 C 0.32718 0.2676 0.02424 0.0
C373 C 0.36345 0.30378 0.02398 0.0
C374 C 0.21535 0.15525 0.99622 0.0
C375 C 0.16694 0.1666 0.00975 0.0
C376 C 0.25153 0.19152 0.99596 0.0
C377 C 0.24033 0.23996 0.00969 0.0
C378 C 0.19192 0.25119 0.02347 0.0
C379 C 0.15563 0.21502 0.02328 0.0
H380 H 0.29363 0.61851 0.98462 0.0
H381 H 0.4001 0.72491 0.03414 0.0
H382 H 0.23077 0.68175 0.98393 0.0
H383 H 0.33688 0.78775 0.03507 0.0
H384 H 0.11876 0.79404 0.03549 0.0
H385 H 0.18197 0.73112 0.03621 0.0
H386 H 0.28753 0.83661 0.9829 0.0
H387 H 0.22469 0.89989 0.98377 0.0
C388 C 0.30358 0.65529 0.99578 0.0
C389 C 0.352 0.66657 1.00937 0.0
C390 C 0.2674 0.69158 0.99563 0.0
C391 C 0.2786 0.73998 0.00951 0.0
C392 C 0.32702 0.75114 0.02333 0.0
C393 C 0.3633 0.71497 0.02303 0.0
C394 C 0.15544 0.80381 0.02385 0.0
C395 C 0.16664 0.85206 0.00964 0.0
C396 C 0.19171 0.76761 0.02403 0.0
C397 C 0.23998 0.77863 0.00955 0.0
C398 C 0.25103 0.8269 0.99512 0.0
C399 C 0.21488 0.86321 0.99539 0.0
H400 H 0.6189 0.29404 0.03463 0.0
H401 H 0.72512 0.40031 0.98436 0.0
H402 H 0.68212 0.23117 0.03536 0.0
H403 H 0.78798 0.33706 0.98348 0.0
H404 H 0.90022 0.22493 0.03473 0.0
H405 H 0.83701 0.28781 0.0356 0.0
H406 H 0.73123 0.18218 0.98304 0.0
H407 H 0.79406 0.11891 0.98379 0.0
C408 C 0.65565 0.30393 0.02329 0.0
C409 C 0.66689 0.35229 0.00946 0.0
C410 C 0.69193 0.26775 0.02348 0.0
C411 C 0.74028 0.27888 1.00939 0.0
C412 C 0.75141 0.32725 0.99537 0.0
C413 C 0.71524 0.36355 0.99563 0.0
C414 C 0.86349 0.21509 0.02329 0.0
C415 C 0.85226 0.16679 1.00925 0.0
C416 C 0.82722 0.25129 0.02355 0.0
C417 C 0.77889 0.24023 1.00933 0.0
C418 C 0.76778 0.19192 0.99506 0.0
C419 C 0.80394 0.15562 0.99525 0.0
H420 H 0.89999 0.79401 0.98373 0.0
H421 H 0.79406 0.90015 0.03492 0.0
H422 H 0.8367 0.73118 0.98302 0.0
H423 H 0.73114 0.83695 0.03579 0.0
H424 H 0.61863 0.72513 0.98444 0.0
H425 H 0.68188 0.78796 0.98356 0.0
H426 H 0.78776 0.68209 0.03546 0.0
H427 H 0.72489 0.61888 0.03473 0.0
C428 C 0.86329 0.80387 0.99526 0.0
C429 C 0.85213 0.85217 1.00933 0.0
C430 C 0.82698 0.76772 0.99508 0.0
C431 C 0.7787 0.77885 0.00942 0.0
C432 C 0.76766 0.82717 0.0237 0.0
C433 C 0.80386 0.86342 0.02343 0.0
C434 C 0.65538 0.71523 0.99573 0.0
C435 C 0.66663 0.66688 0.00959 0.0
C436 C 0.69168 0.75139 0.99546 0.0
C437 C 0.74005 0.74025 0.00949 0.0
C438 C 0.75117 0.6919 0.02359 0.0
C439 C 0.71499 0.65563 0.02342 0.0
H440 H 0.72559 0.53454 0.90069 0.0
H441 H 0.61942 0.48393 0.79449 0.0
H442 H 0.78846 0.53531 0.83742 0.0
H443 H 0.68262 0.48312 0.73165 0.0
H444 H 0.79419 0.53489 0.61923 0.0
H445 H 0.73149 0.5356 0.68264 0.0
H446 H 0.83754 0.48318 0.78808 0.0
H447 H 0.90062 0.48406 0.72504 0.0
C448 C 0.71572 0.52317 0.86394 0.0
C449 C 0.66738 0.5093 0.8527 0.0
C450 C 0.75189 0.52338 0.82764 0.0
C451 C 0.74075 0.50927 0.77929 0.0
C452 C 0.69243 0.49508 0.76821 0.0
C453 C 0.65616 0.49531 0.80438 0.0
C454 C 0.80415 0.52345 0.65593 0.0
C455 C 0.8525 0.5095 0.66701 0.0
C456 C 0.76808 0.52363 0.69231 0.0
C457 C 0.77931 0.50938 0.7406 0.0
C458 C 0.82767 0.4952 0.75156 0.0
C459 C 0.86386 0.49549 0.71529 0.0
H460 H 0.11917 0.5344 0.72488 0.0
H461 H 0.22514 0.48423 0.61828 0.0
H462 H 0.18258 0.53507 0.78758 0.0
H463 H 0.28818 0.48334 0.68134 0.0
H464 H 0.40063 0.53467 0.79343 0.0
H465 H 0.33731 0.53554 0.73059 0.0
H466 H 0.2318 0.48247 0.83624 0.0
H467 H 0.2947 0.48318 0.89941 0.0
C468 C 0.1559 0.52309 0.71488 0.0
C469 C 0.16703 0.50931 0.66649 0.0
C470 C 0.19228 0.52325 0.75096 0.0
C471 C 0.24061 0.50918 0.73967 0.0
C472 C 0.25162 0.49521 0.69126 0.0
C473 C 0.21535 0.49549 0.65508 0.0
C474 C 0.36393 0.52311 0.80325 0.0
C475 C 0.35277 0.50896 0.85152 0.0
C476 C 0.32761 0.52339 0.76711 0.0
C477 C 0.27932 0.50905 0.77821 0.0
C478 C 0.26831 0.4946 0.82648 0.0
C479 C 0.30451 0.49478 0.86272 0.0
H480 H 0.11809 0.53444 0.29365 0.0
H481 H 0.22485 0.48497 0.39978 0.0
H482 H 0.18115 0.53534 0.23062 0.0
H483 H 0.28754 0.48425 0.33637 0.0
H484 H 0.3993 0.53585 0.22414 0.0
H485 H 0.33612 0.53664 0.28702 0.0
H486 H 0.23053 0.48331 0.18156 0.0
H487 H 0.29338 0.48412 0.11826 0.0
C488 C 0.15492 0.52334 0.30349 0.0
C489 C 0.16637 0.50971 0.35186 0.0
C490 C 0.19111 0.52361 0.26721 0.0
C491 C 0.23956 0.50981 0.27825 0.0
C492 C 0.25088 0.49594 0.32663 0.0
C493 C 0.2148 0.49612 0.36302 0.0
C494 C 0.36262 0.52421 0.21434 0.0
C495 C 0.35145 0.50993 0.16609 0.0
C496 C 0.32636 0.52443 0.25053 0.0
C497 C 0.27811 0.50992 0.23954 0.0
C498 C 0.26703 0.49551 0.19126 0.0
C499 C 0.30319 0.49574 0.15494 0.0
H500 H 0.61805 0.53414 0.22561 0.0
H501 H 0.7244 0.48421 0.11928 0.0
H502 H 0.6813 0.5349 0.28849 0.0
H503 H 0.78724 0.48337 0.18249 0.0
H504 H 0.89945 0.53505 0.2943 0.0
H505 H 0.83607 0.53584 0.23159 0.0
H506 H 0.73074 0.48266 0.33738 0.0
H507 H 0.79377 0.48345 0.40048 0.0
C508 C 0.65482 0.5229 0.2157 0.0
C509 C 0.6661 0.5092 0.16732 0.0
C510 C 0.69111 0.52311 0.25188 0.0
C511 C 0.7395 0.50916 0.2407 0.0
C512 C 0.75064 0.49518 0.19233 0.0
C513 C 0.71447 0.49542 0.15605 0.0
C514 C 0.86279 0.52344 0.3042 0.0
C515 C 0.85173 0.50923 0.35247 0.0
C516 C 0.82642 0.52367 0.26811 0.0
C517 C 0.77818 0.50923 0.27927 0.0
C518 C 0.76723 0.49482 0.32757 0.0
C519 C 0.80349 0.49504 0.36377 0.0
H520 H 0.39965 0.79439 0.48327 0.0
H521 H 0.29383 0.90029 0.53519 0.0
H522 H 0.3364 0.73155 0.48248 0.0
H523 H 0.23094 0.83705 0.53599 0.0
H524 H 0.11838 0.72518 0.48458 0.0
H525 H 0.18154 0.78814 0.48375 0.0
H526 H 0.28774 0.68223 0.5349 0.0
H527 H 0.22495 0.61892 0.53415 0.0
C528 C 0.36298 0.80421 0.49493 0.0
C529 C 0.35185 0.85246 0.50922 0.0
C530 C 0.32669 0.76805 0.49471 0.0
C531 C 0.27845 0.77907 0.50925 0.0
C532 C 0.26743 0.82733 0.52374 0.0
C533 C 0.30361 0.86362 0.52351 0.0
C534 C 0.15519 0.71531 0.49573 0.0
C535 C 0.16656 0.66693 0.50939 0.0
C536 C 0.19143 0.75153 0.49548 0.0
C537 C 0.23986 0.74042 0.50932 0.0
C538 C 0.2511 0.69203 0.52319 0.0
C539 C 0.21497 0.6557 0.523 0.0
H540 H 0.22473 0.40008 0.5361 0.0
H541 H 0.11952 0.29457 0.48223 0.0
H542 H 0.28765 0.33687 0.53705 0.0
H543 H 0.18282 0.23175 0.48158 0.0
H544 H 0.29379 0.11884 0.53362 0.0
H545 H 0.23097 0.18208 0.53419 0.0
H546 H 0.3376 0.28844 0.48492 0.0
H547 H 0.4008 0.22556 0.48596 0.0
C548 C 0.21511 0.3635 0.52401 0.0
C549 C 0.16703 0.35241 0.50916 0.0
C550 C 0.2513 0.32724 0.52434 0.0
C551 C 0.24045 0.27909 0.50934 0.0
C552 C 0.19237 0.26815 0.49421 0.0
C553 C 0.15606 0.30429 0.49436 0.0
C554 C 0.30388 0.1557 0.52286 0.0
C555 C 0.35243 0.16706 0.50981 0.0
C556 C 0.26772 0.19199 0.52294 0.0
C557 C 0.27907 0.24048 0.50952 0.0
C558 C 0.32762 0.25174 0.49628 0.0
C559 C 0.36389 0.21555 0.49663 0.0
H560 H 0.89989 0.72486 0.53421 0.0
H561 H 0.79367 0.61837 0.48433 0.0
H562 H 0.83659 0.78765 0.53497 0.0
H563 H 0.73073 0.68154 0.4835 0.0
H564 H 0.61856 0.79375 0.53492 0.0
H565 H 0.6818 0.73088 0.53576 0.0
H566 H 0.78735 0.83638 0.48246 0.0
H567 H 0.72451 0.89962 0.48322 0.0
C568 C 0.86313 0.7149 0.52297 0.0
C569 C 0.85191 0.66652 0.50923 0.0
C570 C 0.82681 0.75103 0.52318 0.0
C571 C 0.77844 0.73982 0.50921 0.0
C572 C 0.76733 0.69141 0.49529 0.0
C573 C 0.80355 0.65517 0.49553 0.0
C574 C 0.65525 0.80355 0.52332 0.0
C575 C 0.66643 0.8518 0.5091 0.0
C576 C 0.69153 0.76738 0.52356 0.0
C577 C 0.7398 0.77842 0.50914 0.0
C578 C 0.75085 0.82667 0.49465 0.0
C579 C 0.71469 0.86295 0.49485 0.0
H580 H 0.72531 0.11843 0.48423 0.0
H581 H 0.61915 0.22462 0.53486 0.0
H582 H 0.7882 0.18165 0.48353 0.0
H583 H 0.6824 0.28743 0.53578 0.0
H584 H 0.79424 0.39982 0.48449 0.0
H585 H 0.73144 0.33653 0.48356 0.0
H586 H 0.83729 0.23078 0.53577 0.0
H587 H 0.90048 0.29372 0.53509 0.0
C588 C 0.71544 0.15516 0.49563 0.0
C589 C 0.6671 0.1664 0.50952 0.0
C590 C 0.75163 0.19144 0.49547 0.0
C591 C 0.74053 0.23978 0.50965 0.0
C592 C 0.69219 0.25088 0.52379 0.0
C593 C 0.65589 0.21472 0.5235 0.0
C594 C 0.80413 0.36309 0.49586 0.0
C595 C 0.85245 0.3519 0.50984 0.0
C596 C 0.768 0.32677 0.49556 0.0
C597 C 0.77914 0.27842 0.50968 0.0
C598 C 0.82748 0.26734 0.52385 0.0
C599 C 0.86373 0.30356 0.5237 0.0
H600 H 0.5359 0.39971 0.79452 0.0
H601 H 0.4839 0.29382 0.90029 0.0
H602 H 0.53678 0.33651 0.73164 0.0
H603 H 0.4832 0.23096 0.837 0.0
H604 H 0.53473 0.11851 0.72514 0.0
H605 H 0.53555 0.18164 0.78811 0.0
H606 H 0.48434 0.28786 0.68226 0.0
H607 H 0.4851 0.22511 0.61892 0.0
C608 C 0.52422 0.36304 0.80429 0.0
C609 C 0.50985 0.35187 0.8525 0.0
C610 C 0.5245 0.32678 0.76811 0.0
C611 C 0.50997 0.27852 0.77909 0.0
C612 C 0.49543 0.26746 0.82733 0.0
C613 C 0.4956 0.30362 0.86363 0.0
C614 C 0.52357 0.15532 0.71527 0.0
C615 C 0.5099 0.1667 0.6669 0.0
C616 C 0.52381 0.19154 0.75151 0.0
C617 C 0.50995 0.23996 0.74041 0.0
C618 C 0.49606 0.25122 0.69203 0.0
C619 C 0.49626 0.21511 0.65569 0.0
H620 H 0.48441 0.7939 0.61859 0.0
H621 H 0.53436 0.90013 0.72503 0.0
H622 H 0.48362 0.73098 0.68174 0.0
H623 H 0.53519 0.83683 0.78781 0.0
H624 H 0.48381 0.72465 0.89983 0.0
H625 H 0.48295 0.78753 0.83665 0.0
H626 H 0.53587 0.682 0.73093 0.0
H627 H 0.53509 0.61871 0.79374 0.0
C628 C 0.49563 0.80379 0.65537 0.0
C629 C 0.50938 0.85216 0.66669 0.0
C630 C 0.49543 0.76757 0.69161 0.0
C631 C 0.50941 0.77867 0.73999 0.0
C632 C 0.52337 0.82704 0.7512 0.0
C633 C 0.52313 0.86337 0.71507 0.0
C634 C 0.49532 0.71483 0.86312 0.0
C635 C 0.50947 0.66656 0.85191 0.0
C636 C 0.49507 0.75102 0.82687 0.0
C637 C 0.50942 0.74 0.77857 0.0
C638 C 0.52377 0.69172 0.76746 0.0
C639 C 0.52356 0.6554 0.80361 0.0
H640 H 0.47837 0.62054 0.22299 0.0
H641 H 0.53977 0.72382 0.11976 0.0
H642 H 0.47754 0.68381 0.28586 0.0
H643 H 0.54061 0.78666 0.18311 0.0
H644 H 0.48935 0.90146 0.29261 0.0
H645 H 0.4885 0.83839 0.22965 0.0
H646 H 0.52986 0.73003 0.33761 0.0
H647 H 0.52916 0.79278 0.40089 0.0
C648 C 0.49215 0.65664 0.21383 0.0
C649 C 0.50912 0.66712 0.16633 0.0
C650 C 0.49189 0.69292 0.25 0.0
C651 C 0.50911 0.74044 0.23972 0.0
C652 C 0.52627 0.75079 0.19219 0.0
C653 C 0.52601 0.71465 0.15586 0.0
C654 C 0.49833 0.8642 0.30299 0.0
C655 C 0.5093 0.85228 0.35193 0.0
C656 C 0.49808 0.828 0.26674 0.0
C657 C 0.50918 0.77901 0.2784 0.0
C658 C 0.52033 0.76717 0.32734 0.0
C659 C 0.52019 0.80329 0.36367 0.0
H660 H 0.48409 0.1191 0.29398 0.0
H661 H 0.53441 0.22514 0.40044 0.0
H662 H 0.48336 0.18244 0.23124 0.0
H663 H 0.53529 0.2881 0.33733 0.0
H664 H 0.48387 0.40049 0.22532 0.0
H665 H 0.48304 0.3372 0.28816 0.0
H666 H 0.53587 0.23161 0.18245 0.0
H667 H 0.53511 0.29449 0.11927 0.0
C668 C 0.49541 0.15583 0.30395 0.0
C669 C 0.50924 0.16698 0.35233 0.0
C670 C 0.49523 0.19217 0.26785 0.0
C671 C 0.50934 0.2405 0.27907 0.0
C672 C 0.52338 0.25154 0.32745 0.0
C673 C 0.52311 0.2153 0.36367 0.0
C674 C 0.49538 0.36378 0.21547 0.0
C675 C 0.50946 0.3526 0.16718 0.0
C676 C 0.49513 0.32747 0.25162 0.0
C677 C 0.50942 0.27917 0.24051 0.0
C678 C 0.52378 0.26813 0.19223 0.0
C679 C 0.52358 0.30432 0.15597 0.0
loop_
_geom_bond_atom_site_label_1
_geom_bond_atom_site_label_2
_geom_bond_distance
_geom_bond_site_symmetry_2
_ccdc_geom_bond_type
C0 O26 1.283 . S
C0 O44 1.283 . S
C1 O27 1.283 . S
C1 O42 1.283 . S
C2 O28 1.283 . S
C2 O45 1.283 . S
C3 O29 1.283 . S
C3 O43 1.283 . S
C4 O30 1.283 . S
C4 O39 1.283 . S
C5 O31 1.283 . S
C5 O41 1.283 . S
C6 O32 1.283 . S
C6 O38 1.283 . S
C7 O33 1.283 . S
C7 O40 1.283 . S
C8 O34 1.283 . S
C8 O49 1.283 . S
C9 O35 1.283 . S
C9 O47 1.283 . S
C10 O36 1.283 . S
C10 O48 1.283 . S
C11 O37 1.283 . S
C11 O46 1.283 . S
Eu12 O13 2.370 1_454 S
Eu12 O14 2.370 . S
Eu12 O17 2.370 1_455 S
Eu12 O18 2.370 1_554 S
Eu12 O26 2.363 . S
Eu12 O27 2.363 1_554 S
Eu12 O40 2.363 . S
Eu12 O41 2.363 1_455 S
O13 Eu12 2.370 1_656 S
O13 Eu15 2.370 1_566 S
O13 Eu20 2.370 1_665 S
O14 Eu12 2.370 . S
O14 Eu16 2.370 1_565 S
O14 Eu19 2.370 1_565 S
Eu15 O13 2.370 1_544 S
Eu15 O17 2.370 1_545 S
Eu15 O21 2.370 . S
Eu15 O22 2.370 1_554 S
Eu15 O30 2.363 . S
Eu15 O31 2.363 1_545 S
Eu15 O46 2.363 . S
Eu15 O47 2.363 1_554 S
Eu16 O14 2.370 1_545 S
Eu16 O18 2.370 1_544 S
Eu16 O23 2.370 1_554 S
Eu16 O24 2.370 . S
Eu16 O32 2.363 . S
Eu16 O33 2.363 1_545 S
Eu16 O48 2.363 . S
Eu16 O49 2.363 1_554 S
O17 Eu12 2.370 1_655 S
O17 Eu15 2.370 1_565 S
O17 Eu19 2.370 1_665 S
O18 Eu12 2.370 1_556 S
O18 Eu16 2.370 1_566 S
O18 Eu20 2.370 1_565 S
Eu19 O14 2.370 1_545 S
Eu19 O17 2.370 1_445 S
Eu19 O21 2.370 1_455 S
Eu19 O24 2.370 . S
Eu19 O36 2.363 . S
Eu19 O37 2.363 1_455 S
Eu19 O44 2.363 1_545 S
Eu19 O45 2.363 . S
Eu20 O13 2.370 1_445 S
Eu20 O18 2.370 1_545 S
Eu20 O22 2.370 1_455 S
Eu20 O23 2.370 . S
Eu20 O34 2.363 . S
Eu20 O35 2.363 1_455 S
Eu20 O42 2.363 1_545 S
Eu20 O43 2.363 . S
O21 Eu15 2.370 . S
O21 Eu19 2.370 1_655 S
O21 Eu25 2.370 1_655 S
O22 Eu15 2.370 1_556 S
O22 Eu20 2.370 1_655 S
O22 Eu25 2.370 1_656 S
O23 Eu16 2.370 1_556 S
O23 Eu20 2.370 . S
O23 Eu25 2.370 1_556 S
O24 Eu16 2.370 . S
O24 Eu19 2.370 . S
O24 Eu25 2.370 . S
Eu25 O21 2.370 1_455 S
Eu25 O22 2.370 1_454 S
Eu25 O23 2.370 1_554 S
Eu25 O24 2.370 . S
Eu25 O28 2.363 . S
Eu25 O29 2.363 1_554 S
Eu25 O38 2.363 . S
Eu25 O39 2.363 1_455 S
O26 C0 1.283 . S
O26 Eu12 2.363 . S
O27 C1 1.283 . S
O27 Eu12 2.363 1_556 S
O28 C2 1.283 . S
O28 Eu25 2.363 . S
O29 C3 1.283 . S
O29 Eu25 2.363 1_556 S
O30 C4 1.283 . S
O30 Eu15 2.363 . S
O31 C5 1.283 . S
O31 Eu15 2.363 1_565 S
O32 C6 1.283 . S
O32 Eu16 2.363 . S
O33 C7 1.283 . S
O33 Eu16 2.363 1_565 S
O34 C8 1.283 . S
O34 Eu20 2.363 . S
O35 C9 1.283 . S
O35 Eu20 2.363 1_655 S
O36 C10 1.283 . S
O36 Eu19 2.363 . S
O37 C11 1.283 . S
O37 Eu19 2.363 1_655 S
O38 C6 1.283 . S
O38 Eu25 2.363 . S
O39 C4 1.283 . S
O39 Eu25 2.363 1_655 S
O40 C7 1.283 . S
O40 Eu12 2.363 . S
O41 C5 1.283 . S
O41 Eu12 2.363 1_655 S
O42 C1 1.283 . S
O42 Eu20 2.363 1_565 S
O43 C3 1.283 . S
O43 Eu20 2.363 . S
O44 C0 1.283 . S
O44 Eu19 2.363 1_565 S
O45 C2 1.283 . S
O45 Eu19 2.363 . S
O46 C11 1.283 . S
O46 Eu15 2.363 . S
O47 C9 1.283 . S
O47 Eu15 2.363 1_556 S
O48 C10 1.283 . S
O48 Eu16 2.363 . S
O49 C8 1.283 . S
O49 Eu16 2.363 1_556 S
C50 O76 1.283 . S
C50 O94 1.283 . S
C51 O77 1.283 . S
C51 O92 1.283 . S
C52 O78 1.283 . S
C52 O95 1.283 . S
C53 O79 1.283 . S
C53 O93 1.283 . S
C54 O80 1.283 . S
C54 O89 1.283 . S
C55 O81 1.283 . S
C55 O91 1.283 . S
C56 O82 1.283 . S
C56 O88 1.283 . S
C57 O83 1.283 . S
C57 O90 1.283 . S
C58 O84 1.283 . S
C58 O99 1.283 . S
C59 O85 1.283 . S
C59 O97 1.283 . S
C60 O86 1.283 . S
C60 O98 1.283 . S
C61 O87 1.283 . S
C61 O96 1.283 . S
Eu62 O63 2.370 . S
Eu62 O64 2.370 1_455 S
Eu62 O67 2.370 . S
Eu62 O68 2.370 1_455 S
Eu62 O76 2.363 . S
Eu62 O77 2.363 . S
Eu62 O90 2.363 1_455 S
Eu62 O91 2.363 . S
O63 Eu62 2.370 . S
O63 Eu65 2.370 . S
O63 Eu70 2.370 . S
O64 Eu62 2.370 1_655 S
O64 Eu66 2.370 . S
O64 Eu69 2.370 1_655 S
Eu65 O63 2.370 . S
Eu65 O67 2.370 . S
Eu65 O71 2.370 . S
Eu65 O72 2.370 . S
Eu65 O80 2.363 . S
Eu65 O81 2.363 . S
Eu65 O96 2.363 . S
Eu65 O97 2.363 . S
Eu66 O64 2.370 . S
Eu66 O68 2.370 . S
Eu66 O73 2.370 . S
Eu66 O74 2.370 . S
Eu66 O82 2.363 . S
Eu66 O83 2.363 . S
Eu66 O98 2.363 . S
Eu66 O99 2.363 . S
O67 Eu62 2.370 . S
O67 Eu65 2.370 . S
O67 Eu69 2.370 . S
O68 Eu62 2.370 1_655 S
O68 Eu66 2.370 . S
O68 Eu70 2.370 1_655 S
Eu69 O64 2.370 1_455 S
Eu69 O67 2.370 . S
Eu69 O71 2.370 . S
Eu69 O74 2.370 1_455 S
Eu69 O86 2.363 1_455 S
Eu69 O87 2.363 . S
Eu69 O94 2.363 . S
Eu69 O95 2.363 . S
Eu70 O63 2.370 . S
Eu70 O68 2.370 1_455 S
Eu70 O72 2.370 . S
Eu70 O73 2.370 1_455 S
Eu70 O84 2.363 1_455 S
Eu70 O85 2.363 . S
Eu70 O92 2.363 . S
Eu70 O93 2.363 . S
O71 Eu65 2.370 . S
O71 Eu69 2.370 . S
O71 Eu75 2.370 . S
O72 Eu65 2.370 . S
O72 Eu70 2.370 . S
O72 Eu75 2.370 . S
O73 Eu66 2.370 . S
O73 Eu70 2.370 1_655 S
O73 Eu75 2.370 1_655 S
O74 Eu66 2.370 . S
O74 Eu69 2.370 1_655 S
O74 Eu75 2.370 1_655 S
Eu75 O71 2.370 . S
Eu75 O72 2.370 . S
Eu75 O73 2.370 1_455 S
Eu75 O74 2.370 1_455 S
Eu75 O78 2.363 . S
Eu75 O79 2.363 . S
Eu75 O88 2.363 1_455 S
Eu75 O89 2.363 . S
O76 C50 1.283 . S
O76 Eu62 2.363 . S
O77 C51 1.283 . S
O77 Eu62 2.363 . S
O78 C52 1.283 . S
O78 Eu75 2.363 . S
O79 C53 1.283 . S
O79 Eu75 2.363 . S
O80 C54 1.283 . S
O80 Eu65 2.363 . S
O81 C55 1.283 . S
O81 Eu65 2.363 . S
O82 C56 1.283 . S
O82 Eu66 2.363 . S
O83 C57 1.283 . S
O83 Eu66 2.363 . S
O84 C58 1.283 . S
O84 Eu70 2.363 1_655 S
O85 C59 1.283 . S
O85 Eu70 2.363 . S
O86 C60 1.283 . S
O86 Eu69 2.363 1_655 S
O87 C61 1.283 . S
O87 Eu69 2.363 . S
O88 C56 1.283 . S
O88 Eu75 2.363 1_655 S
O89 C54 1.283 . S
O89 Eu75 2.363 . S
O90 C57 1.283 . S
O90 Eu62 2.363 1_655 S
O91 C55 1.283 . S
O91 Eu62 2.363 . S
O92 C51 1.283 . S
O92 Eu70 2.363 . S
O93 C53 1.283 . S
O93 Eu70 2.363 . S
O94 C50 1.283 . S
O94 Eu69 2.363 . S
O95 C52 1.283 . S
O95 Eu69 2.363 . S
O96 C61 1.283 . S
O96 Eu65 2.363 . S
O97 C59 1.283 . S
O97 Eu65 2.363 . S
O98 C60 1.283 . S
O98 Eu66 2.363 . S
O99 C58 1.283 . S
O99 Eu66 2.363 . S
C100 O126 1.283 . S
C100 O144 1.283 . S
C101 O127 1.283 . S
C101 O142 1.283 . S
C102 O128 1.283 . S
C102 O145 1.283 . S
C103 O129 1.283 . S
C103 O143 1.283 . S
C104 O130 1.283 . S
C104 O139 1.283 . S
C105 O131 1.283 . S
C105 O141 1.283 . S
C106 O132 1.283 . S
C106 O138 1.283 . S
C107 O133 1.283 . S
C107 O140 1.283 . S
C108 O134 1.283 . S
C108 O149 1.283 . S
C109 O135 1.283 . S
C109 O147 1.283 . S
C110 O136 1.283 . S
C110 O148 1.283 . S
C111 O137 1.283 . S
C111 O146 1.283 . S
Eu112 O113 2.370 . S
Eu112 O114 2.370 1_545 S
Eu112 O117 2.370 1_545 S
Eu112 O118 2.370 . S
Eu112 O126 2.363 1_545 S
Eu112 O127 2.363 . S
Eu112 O140 2.363 . S
Eu112 O141 2.363 . S
O113 Eu112 2.370 . S
O113 Eu115 2.370 . S
O113 Eu120 2.370 . S
O114 Eu112 2.370 1_565 S
O114 Eu116 2.370 1_565 S
O114 Eu119 2.370 . S
Eu115 O113 2.370 . S
Eu115 O117 2.370 1_545 S
Eu115 O121 2.370 1_545 S
Eu115 O122 2.370 . S
Eu115 O130 2.363 . S
Eu115 O131 2.363 . S
Eu115 O146 2.363 1_545 S
Eu115 O147 2.363 . S
Eu116 O114 2.370 1_545 S
Eu116 O118 2.370 . S
Eu116 O123 2.370 . S
Eu116 O124 2.370 1_545 S
Eu116 O132 2.363 . S
Eu116 O133 2.363 . S
Eu116 O148 2.363 1_545 S
Eu116 O149 2.363 . S
O117 Eu112 2.370 1_565 S
O117 Eu115 2.370 1_565 S
O117 Eu119 2.370 . S
O118 Eu112 2.370 . S
O118 Eu116 2.370 . S
O118 Eu120 2.370 . S
Eu119 O114 2.370 . S
Eu119 O117 2.370 . S
Eu119 O121 2.370 . S
Eu119 O124 2.370 . S
Eu119 O136 2.363 . S
Eu119 O137 2.363 . S
Eu119 O144 2.363 . S
Eu119 O145 2.363 . S
Eu120 O113 2.370 . S
Eu120 O118 2.370 . S
Eu120 O122 2.370 . S
Eu120 O123 2.370 . S
Eu120 O134 2.363 . S
Eu120 O135 2.363 . S
Eu120 O142 2.363 . S
Eu120 O143 2.363 . S
O121 Eu115 2.370 1_565 S
O121 Eu119 2.370 . S
O121 Eu125 2.370 1_565 S
O122 Eu115 2.370 . S
O122 Eu120 2.370 . S
O122 Eu125 2.370 . S
O123 Eu116 2.370 . S
O123 Eu120 2.370 . S
O123 Eu125 2.370 . S
O124 Eu116 2.370 1_565 S
O124 Eu119 2.370 . S
O124 Eu125 2.370 1_565 S
Eu125 O121 2.370 1_545 S
Eu125 O122 2.370 . S
Eu125 O123 2.370 . S
Eu125 O124 2.370 1_545 S
Eu125 O128 2.363 1_545 S
Eu125 O129 2.363 . S
Eu125 O138 2.363 . S
Eu125 O139 2.363 . S
O126 C100 1.283 . S
O126 Eu112 2.363 1_565 S
O127 C101 1.283 . S
O127 Eu112 2.363 . S
O128 C102 1.283 . S
O128 Eu125 2.363 1_565 S
O129 C103 1.283 . S
O129 Eu125 2.363 . S
O130 C104 1.283 . S
O130 Eu115 2.363 . S
O131 C105 1.283 . S
O131 Eu115 2.363 . S
O132 C106 1.283 . S
O132 Eu116 2.363 . S
O133 C107 1.283 . S
O133 Eu116 2.363 . S
O134 C108 1.283 . S
O134 Eu120 2.363 . S
O135 C109 1.283 . S
O135 Eu120 2.363 . S
O136 C110 1.283 . S
O136 Eu119 2.363 . S
O137 C111 1.283 . S
O137 Eu119 2.363 . S
O138 C106 1.283 . S
O138 Eu125 2.363 . S
O139 C104 1.283 . S
O139 Eu125 2.363 . S
O140 C107 1.283 . S
O140 Eu112 2.363 . S
O141 C105 1.283 . S
O141 Eu112 2.363 . S
O142 C101 1.283 . S
O142 Eu120 2.363 . S
O143 C103 1.283 . S
O143 Eu120 2.363 . S
O144 C100 1.283 . S
O144 Eu119 2.363 . S
O145 C102 1.283 . S
O145 Eu119 2.363 . S
O146 C111 1.283 . S
O146 Eu115 2.363 1_565 S
O147 C109 1.283 . S
O147 Eu115 2.363 . S
O148 C110 1.283 . S
O148 Eu116 2.363 1_565 S
O149 C108 1.283 . S
O149 Eu116 2.363 . S
C150 O176 1.283 . S
C150 O194 1.283 . S
C151 O177 1.283 . S
C151 O192 1.283 . S
C152 O178 1.283 . S
C152 O195 1.283 . S
C153 O179 1.283 . S
C153 O193 1.283 . S
C154 O180 1.283 . S
C154 O189 1.283 . S
C155 O181 1.283 . S
C155 O191 1.283 . S
C156 O182 1.283 . S
C156 O188 1.283 . S
C157 O183 1.283 . S
C157 O190 1.283 . S
C158 O184 1.283 . S
C158 O199 1.283 . S
C159 O185 1.283 . S
C159 O197 1.283 . S
C160 O186 1.283 . S
C160 O198 1.283 . S
C161 O187 1.283 . S
C161 O196 1.283 . S
Eu162 O163 2.370 . S
Eu162 O164 2.370 1_554 S
Eu162 O167 2.370 1_554 S
Eu162 O168 2.370 . S
Eu162 O176 2.363 1_554 S
Eu162 O177 2.363 . S
Eu162 O190 2.363 . S
Eu162 O191 2.363 . S
O163 Eu162 2.370 . S
O163 Eu165 2.370 . S
O163 Eu170 2.370 . S
O164 Eu162 2.370 1_556 S
O164 Eu166 2.370 1_556 S
O164 Eu169 2.370 . S
Eu165 O163 2.370 . S
Eu165 O167 2.370 1_554 S
Eu165 O171 2.370 1_554 S
Eu165 O172 2.370 . S
Eu165 O180 2.363 . S
Eu165 O181 2.363 . S
Eu165 O196 2.363 1_554 S
Eu165 O197 2.363 . S
Eu166 O164 2.370 1_554 S
Eu166 O168 2.370 . S
Eu166 O173 2.370 . S
Eu166 O174 2.370 1_554 S
Eu166 O182 2.363 . S
Eu166 O183 2.363 . S
Eu166 O198 2.363 1_554 S
Eu166 O199 2.363 . S
O167 Eu162 2.370 1_556 S
O167 Eu165 2.370 1_556 S
O167 Eu169 2.370 . S
O168 Eu162 2.370 . S
O168 Eu166 2.370 . S
O168 Eu170 2.370 . S
Eu169 O164 2.370 . S
Eu169 O167 2.370 . S
Eu169 O171 2.370 . S
Eu169 O174 2.370 . S
Eu169 O186 2.363 . S
Eu169 O187 2.363 . S
Eu169 O194 2.363 . S
Eu169 O195 2.363 . S
Eu170 O163 2.370 . S
Eu170 O168 2.370 . S
Eu170 O172 2.370 . S
Eu170 O173 2.370 . S
Eu170 O184 2.363 . S
Eu170 O185 2.363 . S
Eu170 O192 2.363 . S
Eu170 O193 2.363 . S
O171 Eu165 2.370 1_556 S
O171 Eu169 2.370 . S
O171 Eu175 2.370 1_556 S
O172 Eu165 2.370 . S
O172 Eu170 2.370 . S
O172 Eu175 2.370 . S
O173 Eu166 2.370 . S
O173 Eu170 2.370 . S
O173 Eu175 2.370 . S
O174 Eu166 2.370 1_556 S
O174 Eu169 2.370 . S
O174 Eu175 2.370 1_556 S
Eu175 O171 2.370 1_554 S
Eu175 O172 2.370 . S
Eu175 O173 2.370 . S
Eu175 O174 2.370 1_554 S
Eu175 O178 2.363 1_554 S
Eu175 O179 2.363 . S
Eu175 O188 2.363 . S
Eu175 O189 2.363 . S
O176 C150 1.283 . S
O176 Eu162 2.363 1_556 S
O177 C151 1.283 . S
O177 Eu162 2.363 . S
O178 C152 1.283 . S
O178 Eu175 2.363 1_556 S
O179 C153 1.283 . S
O179 Eu175 2.363 . S
O180 C154 1.283 . S
O180 Eu165 2.363 . S
O181 C155 1.283 . S
O181 Eu165 2.363 . S
O182 C156 1.283 . S
O182 Eu166 2.363 . S
O183 C157 1.283 . S
O183 Eu166 2.363 . S
O184 C158 1.283 . S
O184 Eu170 2.363 . S
O185 C159 1.283 . S
O185 Eu170 2.363 . S
O186 C160 1.283 . S
O186 Eu169 2.363 . S
O187 C161 1.283 . S
O187 Eu169 2.363 . S
O188 C156 1.283 . S
O188 Eu175 2.363 . S
O189 C154 1.283 . S
O189 Eu175 2.363 . S
O190 C157 1.283 . S
O190 Eu162 2.363 . S
O191 C155 1.283 . S
O191 Eu162 2.363 . S
O192 C151 1.283 . S
O192 Eu170 2.363 . S
O193 C153 1.283 . S
O193 Eu170 2.363 . S
O194 C150 1.283 . S
O194 Eu169 2.363 . S
O195 C152 1.283 . S
O195 Eu169 2.363 . S
O196 C161 1.283 . S
O196 Eu165 2.363 1_556 S
O197 C159 1.283 . S
O197 Eu165 2.363 . S
O198 C160 1.283 . S
O198 Eu166 2.363 1_556 S
O199 C158 1.283 . S
O199 Eu166 2.363 . S
H200 C208 0.950 . S
H201 C213 0.950 . S
H202 C210 0.950 . S
H203 C212 0.950 . S
H204 C214 0.950 . S
H205 C216 0.950 . S
H206 C218 0.950 . S
H207 C219 0.950 . S
C208 H200 0.950 . S
C208 C209 1.386 . S
C208 C210 1.391 . S
C209 C208 1.386 . S
C209 C213 1.393 1_455 S
C210 H202 0.950 . S
C210 C208 1.391 . S
C210 C211 1.409 . S
C211 C210 1.409 . S
C211 C212 1.390 1_455 S
C211 C217 1.490 1_455 S
C212 H203 0.950 . S
C212 C211 1.390 1_655 S
C212 C213 1.391 . S
C213 H201 0.950 . S
C213 C209 1.393 1_655 S
C213 C212 1.391 . S
C214 H204 0.950 . S
C214 C215 1.386 . S
C214 C216 1.391 . S
C215 C214 1.386 . S
C215 C219 1.393 1_655 S
C216 H205 0.950 . S
C216 C214 1.391 . S
C216 C217 1.407 . S
C217 C211 1.490 1_655 S
C217 C216 1.407 . S
C217 C218 1.392 1_655 S
C218 H206 0.950 . S
C218 C217 1.392 1_455 S
C218 C219 1.391 . S
C219 H207 0.950 . S
C219 C215 1.393 1_455 S
C219 C218 1.391 . S
H220 C228 0.950 . S
H221 C233 0.950 . S
H222 C230 0.950 . S
H223 C232 0.950 . S
H224 C234 0.950 . S
H225 C236 0.950 . S
H226 C238 0.950 . S
H227 C239 0.950 . S
C228 H220 0.950 . S
C228 C229 1.368 1_545 S
C228 C230 1.391 . S
C229 C228 1.368 1_565 S
C229 C233 1.411 . S
C230 H222 0.950 . S
C230 C228 1.391 . S
C230 C231 1.393 1_545 S
C231 C230 1.393 1_565 S
C231 C232 1.405 . S
C231 C237 1.490 1_565 S
C232 H223 0.950 . S
C232 C231 1.405 . S
C232 C233 1.391 . S
C233 H221 0.950 . S
C233 C229 1.411 . S
C233 C232 1.391 . S
C234 H224 0.950 . S
C234 C235 1.386 1_565 S
C234 C236 1.391 . S
C235 C234 1.386 1_545 S
C235 C239 1.393 . S
C236 H225 0.950 . S
C236 C234 1.391 . S
C236 C237 1.389 1_565 S
C237 C231 1.490 1_545 S
C237 C236 1.389 1_545 S
C237 C238 1.410 . S
C238 H226 0.950 . S
C238 C237 1.410 . S
C238 C239 1.391 . S
C239 H227 0.950 . S
C239 C235 1.393 . S
C239 C238 1.391 . S
H240 C248 0.950 . S
H241 C253 0.950 . S
H242 C250 0.950 . S
H243 C252 0.950 . S
H244 C254 0.950 . S
H245 C256 0.950 . S
H246 C258 0.950 . S
H247 C259 0.950 . S
C248 H240 0.950 . S
C248 C249 1.400 . S
C248 C250 1.391 . S
C249 C248 1.400 . S
C249 C253 1.379 1_655 S
C250 H242 0.950 . S
C250 C248 1.391 . S
C250 C251 1.406 . S
C251 C250 1.406 . S
C251 C252 1.393 1_655 S
C251 C257 1.490 1_655 S
C252 H243 0.950 . S
C252 C251 1.393 1_455 S
C252 C253 1.391 . S
C253 H241 0.950 . S
C253 C249 1.379 1_455 S
C253 C252 1.391 . S
C254 H244 0.950 . S
C254 C255 1.386 . S
C254 C256 1.391 . S
C255 C254 1.386 . S
C255 C259 1.393 1_455 S
C256 H245 0.950 . S
C256 C254 1.391 . S
C256 C257 1.410 . S
C257 C251 1.490 1_455 S
C257 C256 1.410 . S
C257 C258 1.389 1_455 S
C258 H246 0.950 . S
C258 C257 1.389 1_655 S
C258 C259 1.391 . S
C259 H247 0.950 . S
C259 C255 1.393 1_655 S
C259 C258 1.391 . S
H260 C268 0.950 . S
H261 C273 0.950 . S
H262 C270 0.950 . S
H263 C272 0.950 . S
H264 C274 0.950 . S
H265 C276 0.950 . S
H266 C278 0.950 . S
H267 C279 0.950 . S
C268 H260 0.950 . S
C268 C269 1.386 . S
C268 C270 1.391 . S
C269 C268 1.386 . S
C269 C273 1.393 1_565 S
C270 H262 0.950 . S
C270 C268 1.391 . S
C270 C271 1.407 . S
C271 C270 1.407 . S
C271 C272 1.392 1_565 S
C271 C277 1.490 1_565 S
C272 H263 0.950 . S
C272 C271 1.392 1_545 S
C272 C273 1.391 . S
C273 H261 0.950 . S
C273 C269 1.393 1_545 S
C273 C272 1.391 . S
C274 H264 0.950 . S
C274 C275 1.386 . S
C274 C276 1.391 . S
C275 C274 1.386 . S
C275 C279 1.393 1_545 S
C276 H265 0.950 . S
C276 C274 1.391 . S
C276 C277 1.410 . S
C277 C271 1.490 1_545 S
C277 C276 1.410 . S
C277 C278 1.390 1_545 S
C278 H266 0.950 . S
C278 C277 1.390 1_565 S
C278 C279 1.391 . S
C279 H267 0.950 . S
C279 C275 1.393 1_565 S
C279 C278 1.391 . S
H280 C288 0.950 . S
H281 C293 0.950 . S
H282 C290 0.950 . S
H283 C292 0.950 . S
H284 C294 0.950 . S
H285 C296 0.950 . S
H286 C298 0.950 . S
H287 C299 0.950 . S
C288 H280 0.950 . S
C288 C289 1.386 . S
C288 C290 1.391 . S
C289 C288 1.386 . S
C289 C293 1.393 1_655 S
C290 H282 0.950 . S
C290 C288 1.391 . S
C290 C291 1.405 . S
C291 C290 1.405 . S
C291 C292 1.394 1_655 S
C291 C297 1.490 1_655 S
C292 H283 0.950 . S
C292 C291 1.394 1_455 S
C292 C293 1.391 . S
C293 H281 0.950 . S
C293 C289 1.393 1_455 S
C293 C292 1.391 . S
C294 H284 0.950 . S
C294 C295 1.386 . S
C294 C296 1.391 . S
C295 C294 1.386 . S
C295 C299 1.393 1_455 S
C296 H285 0.950 . S
C296 C294 1.391 . S
C296 C297 1.407 . S
C297 C291 1.490 1_455 S
C297 C296 1.407 . S
C297 C298 1.393 1_455 S
C298 H286 0.950 . S
C298 C297 1.393 1_655 S
C298 C299 1.391 . S
C299 H287 0.950 . S
C299 C295 1.393 1_655 S
C299 C298 1.391 . S
H300 C308 0.950 . S
H301 C313 0.950 . S
H302 C310 0.950 . S
H303 C312 0.950 . S
H304 C314 0.950 . S
H305 C316 0.950 . S
H306 C318 0.950 . S
H307 C319 0.950 . S
C308 H300 0.950 . S
C308 C309 1.386 1_565 S
C308 C310 1.391 . S
C309 C308 1.386 1_545 S
C309 C313 1.393 . S
C310 H302 0.950 . S
C310 C308 1.391 . S
C310 C311 1.390 1_565 S
C311 C310 1.390 1_545 S
C311 C312 1.409 . S
C311 C317 1.490 1_545 S
C312 H303 0.950 . S
C312 C311 1.409 . S
C312 C313 1.391 . S
C313 H301 0.950 . S
C313 C309 1.393 . S
C313 C312 1.391 . S
C314 H304 0.950 . S
C314 C315 1.386 1_545 S
C314 C316 1.391 . S
C315 C314 1.386 1_565 S
C315 C319 1.393 . S
C316 H305 0.950 . S
C316 C314 1.391 . S
C316 C317 1.393 1_545 S
C317 C311 1.490 1_565 S
C317 C316 1.393 1_565 S
C317 C318 1.407 . S
C318 H306 0.950 . S
C318 C317 1.407 . S
C318 C319 1.391 . S
C319 H307 0.950 . S
C319 C315 1.393 . S
C319 C318 1.391 . S
H320 C328 0.950 . S
H321 C333 0.950 . S
H322 C330 0.950 . S
H323 C332 0.950 . S
H324 C334 0.950 . S
H325 C336 0.950 . S
H326 C338 0.950 . S
H327 C339 0.950 . S
C328 H320 0.950 . S
C328 C329 1.384 . S
C328 C330 1.391 . S
C329 C328 1.384 . S
C329 C333 1.395 1_655 S
C330 H322 0.950 . S
C330 C328 1.391 . S
C330 C331 1.402 1_655 S
C331 C330 1.402 1_455 S
C331 C332 1.396 . S
C331 C337 1.491 . S
C332 H323 0.950 . S
C332 C331 1.396 . S
C332 C333 1.391 . S
C333 H321 0.950 . S
C333 C329 1.395 1_455 S
C333 C332 1.391 . S
C334 H324 0.950 . S
C334 C335 1.388 . S
C334 C336 1.391 . S
C335 C334 1.388 . S
C335 C339 1.390 1_455 S
C336 H325 0.950 . S
C336 C334 1.391 . S
C336 C337 1.402 . S
C337 C331 1.491 . S
C337 C336 1.402 . S
C337 C338 1.396 1_455 S
C338 H326 0.950 . S
C338 C337 1.396 1_655 S
C338 C339 1.391 . S
C339 H327 0.950 . S
C339 C335 1.390 1_655 S
C339 C338 1.391 . S
H340 C348 0.950 . S
H341 C353 0.950 . S
H342 C350 0.950 . S
H343 C352 0.950 . S
H344 C354 0.950 . S
H345 C356 0.950 . S
H346 C358 0.950 . S
H347 C359 0.950 . S
C348 H340 0.950 . S
C348 C349 1.386 . S
C348 C350 1.391 . S
C349 C348 1.386 . S
C349 C353 1.393 1_545 S
C350 H342 0.950 . S
C350 C348 1.391 . S
C350 C351 1.408 . S
C351 C350 1.408 . S
C351 C352 1.392 1_545 S
C351 C357 1.490 1_545 S
C352 H343 0.950 . S
C352 C351 1.392 1_565 S
C352 C353 1.391 . S
C353 H341 0.950 . S
C353 C349 1.393 1_565 S
C353 C352 1.391 . S
C354 H344 0.950 . S
C354 C355 1.386 . S
C354 C356 1.391 . S
C355 C354 1.386 . S
C355 C359 1.393 1_565 S
C356 H345 0.950 . S
C356 C354 1.391 . S
C356 C357 1.406 . S
C357 C351 1.490 1_565 S
C357 C356 1.406 . S
C357 C358 1.393 1_565 S
C358 H346 0.950 . S
C358 C357 1.393 1_545 S
C358 C359 1.391 . S
C359 H347 0.950 . S
C359 C355 1.393 1_545 S
C359 C358 1.391 . S
H360 C368 0.950 . S
H361 C373 0.950 . S
H362 C370 0.950 . S
H363 C372 0.950 . S
H364 C374 0.950 . S
H365 C376 0.950 . S
H366 C378 0.950 . S
H367 C379 0.950 . S
C368 H360 0.950 . S
C368 C369 1.386 . S
C368 C370 1.391 . S
C369 C368 1.386 . S
C369 C373 1.393 1_556 S
C370 H362 0.950 . S
C370 C368 1.391 . S
C370 C371 1.399 . S
C371 C370 1.399 . S
C371 C372 1.400 1_556 S
C371 C377 1.491 1_556 S
C372 H363 0.950 . S
C372 C371 1.400 1_554 S
C372 C373 1.391 . S
C373 H361 0.950 . S
C373 C369 1.393 1_554 S
C373 C372 1.391 . S
C374 H364 0.950 . S
C374 C375 1.390 . S
C374 C376 1.391 . S
C375 C374 1.390 . S
C375 C379 1.388 1_554 S
C376 H365 0.950 . S
C376 C374 1.391 . S
C376 C377 1.403 . S
C377 C371 1.491 1_554 S
C377 C376 1.403 . S
C377 C378 1.395 1_554 S
C378 H366 0.950 . S
C378 C377 1.395 1_556 S
C378 C379 1.391 . S
C379 H367 0.950 . S
C379 C375 1.388 1_556 S
C379 C378 1.391 . S
H380 C388 0.950 . S
H381 C393 0.950 . S
H382 C390 0.950 . S
H383 C392 0.950 . S
H384 C394 0.950 . S
H385 C396 0.950 . S
H386 C398 0.950 . S
H387 C399 0.950 . S
C388 H380 0.950 . S
C388 C389 1.380 1_556 S
C388 C390 1.391 . S
C389 C388 1.380 1_554 S
C389 C393 1.398 . S
C390 H382 0.950 . S
C390 C388 1.391 . S
C390 C391 1.398 1_556 S
C391 C390 1.398 1_554 S
C391 C392 1.401 . S
C391 C397 1.491 1_554 S
C392 H383 0.950 . S
C392 C391 1.401 . S
C392 C393 1.391 . S
C393 H381 0.950 . S
C393 C389 1.398 . S
C393 C392 1.391 . S
C394 H384 0.950 . S
C394 C395 1.385 1_554 S
C394 C396 1.391 . S
C395 C394 1.385 1_556 S
C395 C399 1.394 . S
C396 H385 0.950 . S
C396 C394 1.391 . S
C396 C397 1.403 1_554 S
C397 C391 1.491 1_556 S
C397 C396 1.403 1_556 S
C397 C398 1.396 . S
C398 H386 0.950 . S
C398 C397 1.396 . S
C398 C399 1.391 . S
C399 H387 0.950 . S
C399 C395 1.394 . S
C399 C398 1.391 . S
H400 C408 0.950 . S
H401 C413 0.950 . S
H402 C410 0.950 . S
H403 C412 0.950 . S
H404 C414 0.950 . S
H405 C416 0.950 . S
H406 C418 0.950 . S
H407 C419 0.950 . S
C408 H400 0.950 . S
C408 C409 1.386 . S
C408 C410 1.391 . S
C409 C408 1.386 . S
C409 C413 1.393 1_556 S
C410 H402 0.950 . S
C410 C408 1.391 . S
C410 C411 1.407 . S
C411 C410 1.407 . S
C411 C412 1.392 1_556 S
C411 C417 1.490 1_556 S
C412 H403 0.950 . S
C412 C411 1.392 1_554 S
C412 C413 1.391 . S
C413 H401 0.950 . S
C413 C409 1.393 1_554 S
C413 C412 1.391 . S
C414 H404 0.950 . S
C414 C415 1.386 . S
C414 C416 1.391 . S
C415 C414 1.386 . S
C415 C419 1.393 1_554 S
C416 H405 0.950 . S
C416 C414 1.391 . S
C416 C417 1.410 . S
C417 C411 1.490 1_554 S
C417 C416 1.410 . S
C417 C418 1.389 1_554 S
C418 H406 0.950 . S
C418 C417 1.389 1_556 S
C418 C419 1.391 . S
C419 H407 0.950 . S
C419 C415 1.393 1_556 S
C419 C418 1.391 . S
H420 C428 0.950 . S
H421 C433 0.950 . S
H422 C430 0.950 . S
H423 C432 0.950 . S
H424 C434 0.950 . S
H425 C436 0.950 . S
H426 C438 0.950 . S
H427 C439 0.950 . S
C428 H420 0.950 . S
C428 C429 1.386 . S
C428 C430 1.391 . S
C429 C428 1.386 . S
C429 C433 1.393 1_554 S
C430 H422 0.950 . S
C430 C428 1.391 . S
C430 C431 1.410 . S
C431 C430 1.410 . S
C431 C432 1.389 1_554 S
C431 C437 1.490 1_554 S
C432 H423 0.950 . S
C432 C431 1.389 1_556 S
C432 C433 1.391 . S
C433 H421 0.950 . S
C433 C429 1.393 1_556 S
C433 C432 1.391 . S
C434 H424 0.950 . S
C434 C435 1.386 . S
C434 C436 1.391 . S
C435 C434 1.386 . S
C435 C439 1.393 1_556 S
C436 H425 0.950 . S
C436 C434 1.391 . S
C436 C437 1.407 . S
C437 C431 1.490 1_556 S
C437 C436 1.407 . S
C437 C438 1.392 1_556 S
C438 H426 0.950 . S
C438 C437 1.392 1_554 S
C438 C439 1.391 . S
C439 H427 0.950 . S
C439 C435 1.393 1_554 S
C439 C438 1.391 . S
H440 C448 0.950 . S
H441 C453 0.950 . S
H442 C450 0.950 . S
H443 C452 0.950 . S
H444 C454 0.950 . S
H445 C456 0.950 . S
H446 C458 0.950 . S
H447 C459 0.950 . S
C448 H440 0.950 . S
C448 C449 1.386 . S
C448 C450 1.391 . S
C449 C448 1.386 . S
C449 C453 1.393 . S
C450 H442 0.950 . S
C450 C448 1.391 . S
C450 C451 1.400 . S
C451 C450 1.400 . S
C451 C452 1.398 . S
C451 C457 1.491 . S
C452 H443 0.950 . S
C452 C451 1.398 . S
C452 C453 1.391 . S
C453 H441 0.950 . S
C453 C449 1.393 . S
C453 C452 1.391 . S
C454 H444 0.950 . S
C454 C455 1.386 . S
C454 C456 1.391 . S
C455 C454 1.386 . S
C455 C459 1.393 . S
C456 H445 0.950 . S
C456 C454 1.391 . S
C456 C457 1.400 . S
C457 C451 1.491 . S
C457 C456 1.400 . S
C457 C458 1.398 . S
C458 H446 0.950 . S
C458 C457 1.398 . S
C458 C459 1.391 . S
C459 H447 0.950 . S
C459 C455 1.393 . S
C459 C458 1.391 . S
H460 C468 0.950 . S
H461 C473 0.950 . S
H462 C470 0.950 . S
H463 C472 0.950 . S
H464 C474 0.950 . S
H465 C476 0.950 . S
H466 C478 0.950 . S
H467 C479 0.950 . S
C468 H460 0.950 . S
C468 C469 1.386 . S
C468 C470 1.391 . S
C469 C468 1.386 . S
C469 C473 1.393 . S
C470 H462 0.950 . S
C470 C468 1.391 . S
C470 C471 1.400 . S
C471 C470 1.400 . S
C471 C472 1.398 . S
C471 C477 1.491 . S
C472 H463 0.950 . S
C472 C471 1.398 . S
C472 C473 1.391 . S
C473 H461 0.950 . S
C473 C469 1.393 . S
C473 C472 1.391 . S
C474 H464 0.950 . S
C474 C475 1.386 . S
C474 C476 1.391 . S
C475 C474 1.386 . S
C475 C479 1.393 . S
C476 H465 0.950 . S
C476 C474 1.391 . S
C476 C477 1.400 . S
C477 C471 1.491 . S
C477 C476 1.400 . S
C477 C478 1.398 . S
C478 H466 0.950 . S
C478 C477 1.398 . S
C478 C479 1.391 . S
C479 H467 0.950 . S
C479 C475 1.393 . S
C479 C478 1.391 . S
H480 C488 0.950 . S
H481 C493 0.950 . S
H482 C490 0.950 . S
H483 C492 0.950 . S
H484 C494 0.950 . S
H485 C496 0.950 . S
H486 C498 0.950 . S
H487 C499 0.950 . S
C488 H480 0.950 . S
C488 C489 1.386 . S
C488 C490 1.391 . S
C489 C488 1.386 . S
C489 C493 1.393 . S
C490 H482 0.950 . S
C490 C488 1.391 . S
C490 C491 1.400 . S
C491 C490 1.400 . S
C491 C492 1.398 . S
C491 C497 1.491 . S
C492 H483 0.950 . S
C492 C491 1.398 . S
C492 C493 1.391 . S
C493 H481 0.950 . S
C493 C489 1.393 . S
C493 C492 1.391 . S
C494 H484 0.950 . S
C494 C495 1.386 . S
C494 C496 1.391 . S
C495 C494 1.386 . S
C495 C499 1.393 . S
C496 H485 0.950 . S
C496 C494 1.391 . S
C496 C497 1.400 . S
C497 C491 1.491 . S
C497 C496 1.400 . S
C497 C498 1.398 . S
C498 H486 0.950 . S
C498 C497 1.398 . S
C498 C499 1.391 . S
C499 H487 0.950 . S
C499 C495 1.393 . S
C499 C498 1.391 . S
H500 C508 0.950 . S
H501 C513 0.950 . S
H502 C510 0.950 . S
H503 C512 0.950 . S
H504 C514 0.950 . S
H505 C516 0.950 . S
H506 C518 0.950 . S
H507 C519 0.950 . S
C508 H500 0.950 . S
C508 C509 1.386 . S
C508 C510 1.391 . S
C509 C508 1.386 . S
C509 C513 1.393 . S
C510 H502 0.950 . S
C510 C508 1.391 . S
C510 C511 1.400 . S
C511 C510 1.400 . S
C511 C512 1.398 . S
C511 C517 1.491 . S
C512 H503 0.950 . S
C512 C511 1.398 . S
C512 C513 1.391 . S
C513 H501 0.950 . S
C513 C509 1.393 . S
C513 C512 1.391 . S
C514 H504 0.950 . S
C514 C515 1.386 . S
C514 C516 1.391 . S
C515 C514 1.386 . S
C515 C519 1.393 . S
C516 H505 0.950 . S
C516 C514 1.391 . S
C516 C517 1.400 . S
C517 C511 1.491 . S
C517 C516 1.400 . S
C517 C518 1.398 . S
C518 H506 0.950 . S
C518 C517 1.398 . S
C518 C519 1.391 . S
C519 H507 0.950 . S
C519 C515 1.393 . S
C519 C518 1.391 . S
H520 C528 0.950 . S
H521 C533 0.950 . S
H522 C530 0.950 . S
H523 C532 0.950 . S
H524 C534 0.950 . S
H525 C536 0.950 . S
H526 C538 0.950 . S
H527 C539 0.950 . S
C528 H520 0.950 . S
C528 C529 1.386 . S
C528 C530 1.391 . S
C529 C528 1.386 . S
C529 C533 1.393 . S
C530 H522 0.950 . S
C530 C528 1.391 . S
C530 C531 1.400 . S
C531 C530 1.400 . S
C531 C532 1.398 . S
C531 C537 1.491 . S
C532 H523 0.950 . S
C532 C531 1.398 . S
C532 C533 1.391 . S
C533 H521 0.950 . S
C533 C529 1.393 . S
C533 C532 1.391 . S
C534 H524 0.950 . S
C534 C535 1.386 . S
C534 C536 1.391 . S
C535 C534 1.386 . S
C535 C539 1.393 . S
C536 H525 0.950 . S
C536 C534 1.391 . S
C536 C537 1.400 . S
C537 C531 1.491 . S
C537 C536 1.400 . S
C537 C538 1.398 . S
C538 H526 0.950 . S
C538 C537 1.398 . S
C538 C539 1.391 . S
C539 H527 0.950 . S
C539 C535 1.393 . S
C539 C538 1.391 . S
H540 C548 0.950 . S
H541 C553 0.950 . S
H542 C550 0.950 . S
H543 C552 0.950 . S
H544 C554 0.950 . S
H545 C556 0.950 . S
H546 C558 0.950 . S
H547 C559 0.950 . S
C548 H540 0.950 . S
C548 C549 1.386 . S
C548 C550 1.391 . S
C549 C548 1.386 . S
C549 C553 1.393 . S
C550 H542 0.950 . S
C550 C548 1.391 . S
C550 C551 1.400 . S
C551 C550 1.400 . S
C551 C552 1.398 . S
C551 C557 1.491 . S
C552 H543 0.950 . S
C552 C551 1.398 . S
C552 C553 1.391 . S
C553 H541 0.950 . S
C553 C549 1.393 . S
C553 C552 1.391 . S
C554 H544 0.950 . S
C554 C555 1.386 . S
C554 C556 1.391 . S
C555 C554 1.386 . S
C555 C559 1.393 . S
C556 H545 0.950 . S
C556 C554 1.391 . S
C556 C557 1.400 . S
C557 C551 1.491 . S
C557 C556 1.400 . S
C557 C558 1.398 . S
C558 H546 0.950 . S
C558 C557 1.398 . S
C558 C559 1.391 . S
C559 H547 0.950 . S
C559 C555 1.393 . S
C559 C558 1.391 . S
H560 C568 0.950 . S
H561 C573 0.950 . S
H562 C570 0.950 . S
H563 C572 0.950 . S
H564 C574 0.950 . S
H565 C576 0.950 . S
H566 C578 0.950 . S
H567 C579 0.950 . S
C568 H560 0.950 . S
C568 C569 1.386 . S
C568 C570 1.391 . S
C569 C568 1.386 . S
C569 C573 1.393 . S
C570 H562 0.950 . S
C570 C568 1.391 . S
C570 C571 1.400 . S
C571 C570 1.400 . S
C571 C572 1.398 . S
C571 C577 1.491 . S
C572 H563 0.950 . S
C572 C571 1.398 . S
C572 C573 1.391 . S
C573 H561 0.950 . S
C573 C569 1.393 . S
C573 C572 1.391 . S
C574 H564 0.950 . S
C574 C575 1.386 . S
C574 C576 1.391 . S
C575 C574 1.386 . S
C575 C579 1.393 . S
C576 H565 0.950 . S
C576 C574 1.391 . S
C576 C577 1.400 . S
C577 C571 1.491 . S
C577 C576 1.400 . S
C577 C578 1.398 . S
C578 H566 0.950 . S
C578 C577 1.398 . S
C578 C579 1.391 . S
C579 H567 0.950 . S
C579 C575 1.393 . S
C579 C578 1.391 . S
H580 C588 0.950 . S
H581 C593 0.950 . S
H582 C590 0.950 . S
H583 C592 0.950 . S
H584 C594 0.950 . S
H585 C596 0.950 . S
H586 C598 0.950 . S
H587 C599 0.950 . S
C588 H580 0.950 . S
C588 C589 1.386 . S
C588 C590 1.391 . S
C589 C588 1.386 . S
C589 C593 1.393 . S
C590 H582 0.950 . S
C590 C588 1.391 . S
C590 C591 1.400 . S
C591 C590 1.400 . S
C591 C592 1.398 . S
C591 C597 1.491 . S
C592 H583 0.950 . S
C592 C591 1.398 . S
C592 C593 1.391 . S
C593 H581 0.950 . S
C593 C589 1.393 . S
C593 C592 1.391 . S
C594 H584 0.950 . S
C594 C595 1.386 . S
C594 C596 1.391 . S
C595 C594 1.386 . S
C595 C599 1.393 . S
C596 H585 0.950 . S
C596 C594 1.391 . S
C596 C597 1.400 . S
C597 C591 1.491 . S
C597 C596 1.400 . S
C597 C598 1.398 . S
C598 H586 0.950 . S
C598 C597 1.398 . S
C598 C599 1.391 . S
C599 H587 0.950 . S
C599 C595 1.393 . S
C599 C598 1.391 . S
H600 C608 0.950 . S
H601 C613 0.950 . S
H602 C610 0.950 . S
H603 C612 0.950 . S
H604 C614 0.950 . S
H605 C616 0.950 . S
H606 C618 0.950 . S
H607 C619 0.950 . S
C608 H600 0.950 . S
C608 C609 1.386 . S
C608 C610 1.391 . S
C609 C608 1.386 . S
C609 C613 1.393 . S
C610 H602 0.950 . S
C610 C608 1.391 . S
C610 C611 1.400 . S
C611 C610 1.400 . S
C611 C612 1.398 . S
C611 C617 1.491 . S
C612 H603 0.950 . S
C612 C611 1.398 . S
C612 C613 1.391 . S
C613 H601 0.950 . S
C613 C609 1.393 . S
C613 C612 1.391 . S
C614 H604 0.950 . S
C614 C615 1.386 . S
C614 C616 1.391 . S
C615 C614 1.386 . S
C615 C619 1.393 . S
C616 H605 0.950 . S
C616 C614 1.391 . S
C616 C617 1.400 . S
C617 C611 1.491 . S
C617 C616 1.400 . S
C617 C618 1.398 . S
C618 H606 0.950 . S
C618 C617 1.398 . S
C618 C619 1.391 . S
C619 H607 0.950 . S
C619 C615 1.393 . S
C619 C618 1.391 . S
H620 C628 0.950 . S
H621 C633 0.950 . S
H622 C630 0.950 . S
H623 C632 0.950 . S
H624 C634 0.950 . S
H625 C636 0.950 . S
H626 C638 0.950 . S
H627 C639 0.950 . S
C628 H620 0.950 . S
C628 C629 1.386 . S
C628 C630 1.391 . S
C629 C628 1.386 . S
C629 C633 1.393 . S
C630 H622 0.950 . S
C630 C628 1.391 . S
C630 C631 1.400 . S
C631 C630 1.400 . S
C631 C632 1.398 . S
C631 C637 1.491 . S
C632 H623 0.950 . S
C632 C631 1.398 . S
C632 C633 1.391 . S
C633 H621 0.950 . S
C633 C629 1.393 . S
C633 C632 1.391 . S
C634 H624 0.950 . S
C634 C635 1.386 . S
C634 C636 1.391 . S
C635 C634 1.386 . S
C635 C639 1.393 . S
C636 H625 0.950 . S
C636 C634 1.391 . S
C636 C637 1.400 . S
C637 C631 1.491 . S
C637 C636 1.400 . S
C637 C638 1.398 . S
C638 H626 0.950 . S
C638 C637 1.398 . S
C638 C639 1.391 . S
C639 H627 0.950 . S
C639 C635 1.393 . S
C639 C638 1.391 . S
H640 C648 0.950 . S
H641 C653 0.950 . S
H642 C650 0.950 . S
H643 C652 0.950 . S
H644 C654 0.950 . S
H645 C656 0.950 . S
H646 C658 0.950 . S
H647 C659 0.950 . S
C648 H640 0.950 . S
C648 C649 1.386 . S
C648 C650 1.391 . S
C649 C648 1.386 . S
C649 C653 1.393 . S
C650 H642 0.950 . S
C650 C648 1.391 . S
C650 C651 1.400 . S
C651 C650 1.400 . S
C651 C652 1.398 . S
C651 C657 1.491 . S
C652 H643 0.950 . S
C652 C651 1.398 . S
C652 C653 1.391 . S
C653 H641 0.950 . S
C653 C649 1.393 . S
C653 C652 1.391 . S
C654 H644 0.950 . S
C654 C655 1.386 . S
C654 C656 1.391 . S
C655 C654 1.386 . S
C655 C659 1.393 . S
C656 H645 0.950 . S
C656 C654 1.391 . S
C656 C657 1.400 . S
C657 C651 1.491 . S
C657 C656 1.400 . S
C657 C658 1.398 . S
C658 H646 0.950 . S
C658 C657 1.398 . S
C658 C659 1.391 . S
C659 H647 0.950 . S
C659 C655 1.393 . S
C659 C658 1.391 . S
H660 C668 0.950 . S
H661 C673 0.950 . S
H662 C670 0.950 . S
H663 C672 0.950 . S
H664 C674 0.950 . S
H665 C676 0.950 . S
H666 C678 0.950 . S
H667 C679 0.950 . S
C668 H660 0.950 . S
C668 C669 1.386 . S
C668 C670 1.391 . S
C669 C668 1.386 . S
C669 C673 1.393 . S
C670 H662 0.950 . S
C670 C668 1.391 . S
C670 C671 1.400 . S
C671 C670 1.400 . S
C671 C672 1.398 . S
C671 C677 1.491 . S
C672 H663 0.950 . S
C672 C671 1.398 . S
C672 C673 1.391 . S
C673 H661 0.950 . S
C673 C669 1.393 . S
C673 C672 1.391 . S
C674 H664 0.950 . S
C674 C675 1.386 . S
C674 C676 1.391 . S
C675 C674 1.386 . S
C675 C679 1.393 . S
C676 H665 0.950 . S
C676 C674 1.391 . S
C676 C677 1.400 . S
C677 C671 1.491 . S
C677 C676 1.400 . S
C677 C678 1.398 . S
C678 H666 0.950 . S
C678 C677 1.398 . S
C678 C679 1.391 . S
C679 H667 0.950 . S
C679 C675 1.393 . S
C679 C678 1.391 . S
C209 C2 1.499 . S
C215 C52 1.495 1_655 S
C229 C11 1.499 1_565 S
C235 C104 1.499 . S
C249 C0 1.499 1_655 S
C255 C53 1.499 . S
C269 C106 1.499 1_565 S
C275 C10 1.495 . S
C289 C1 1.499 1_655 S
C295 C51 1.503 . S
C309 C8 1.499 . S
C315 C107 1.499 1_565 S
C329 C50 1.499 1_655 S
C335 C3 1.499 . S
C349 C105 1.499 . S
C355 C9 1.503 1_565 S
C369 C156 1.499 1_556 S
C375 C6 1.495 . S
C389 C157 1.499 . S
C395 C7 1.499 1_556 S
C409 C154 1.499 1_556 S
C415 C4 1.499 . S
C429 C5 1.499 . S
C435 C155 1.503 1_556 S
C449 C161 1.499 . S
C455 C57 1.503 . S
C469 C55 1.499 . S
C475 C160 1.499 . S
C489 C54 1.499 . S
C495 C158 1.495 . S
C509 C159 1.499 . S
C515 C56 1.499 . S
C529 C110 1.499 . S
C535 C59 1.499 . S
C549 C61 1.499 . S
C555 C108 1.495 . S
C569 C58 1.499 . S
C575 C111 1.503 . S
C589 C109 1.499 . S
C595 C60 1.499 . S
C609 C152 1.499 . S
C615 C101 1.499 . S
C629 C100 1.499 . S
C635 C150 1.503 . S
C649 C151 1.499 . S
C655 C102 1.499 . S
C669 C103 1.499 . S
C675 C153 1.495 . S
