# Generated by pormake.
# Topology can, (4)-cn, num edge types: 1
# Building blocks:
#     Node 0, Type 0, BuildingBlock: KUFVIS_clean_sbu_0, # of connection points: 4
#     Node 1, Type 0, BuildingBlock: KUFVIS_clean_sbu_0, # of connection points: 4
#     Node 2, Type 0, BuildingBlock: KUFVIS_clean_sbu_0, # of connection points: 4
#     Node 3, Type 0, BuildingBlock: KUFVIS_clean_sbu_0, # of connection points: 4
#     Node 4, Type 0, BuildingBlock: KUFVIS_clean_sbu_0, # of connection points: 4
#     Node 5, Type 0, BuildingBlock: KUFVIS_clean_sbu_0, # of connection points: 4
#     Node 6, Type 0, BuildingBlock: KUFVIS_clean_sbu_0, # of connection points: 4
#     Node 7, Type 0, BuildingBlock: KUFVIS_clean_sbu_0, # of connection points: 4
#     Node 8, Type 0, BuildingBlock: KUFVIS_clean_sbu_0, # of connection points: 4
#     Node 9, Type 0, BuildingBlock: KUFVIS_clean_sbu_0, # of connection points: 4
#     Node 10, Type 0, BuildingBlock: KUFVIS_clean_sbu_0, # of connection points: 4
#     Node 11, Type 0, BuildingBlock: KUFVIS_clean_sbu_0, # of connection points: 4
#     Edge 12, Type (0, 0), BuildingBlock: XUDNAN_clean_linker_2, # of connection points: 2
#     Edge 13, Type (0, 0), BuildingBlock: XUDNAN_clean_linker_2, # of connection points: 2
#     Edge 14, Type (0, 0), BuildingBlock: XUDNAN_clean_linker_2, # of connection points: 2
#     Edge 15, Type (0, 0), BuildingBlock: XUDNAN_clean_linker_2, # of connection points: 2
#     Edge 16, Type (0, 0), BuildingBlock: XUDNAN_clean_linker_2, # of connection points: 2
#     Edge 17, Type (0, 0), BuildingBlock: XUDNAN_clean_linker_2, # of connection points: 2
#     Edge 18, Type (0, 0), BuildingBlock: XUDNAN_clean_linker_2, # of connection points: 2
#     Edge 19, Type (0, 0), BuildingBlock: XUDNAN_clean_linker_2, # of connection points: 2
#     Edge 20, Type (0, 0), BuildingBlock: XUDNAN_clean_linker_2, # of connection points: 2
#     Edge 21, Type (0, 0), BuildingBlock: XUDNAN_clean_linker_2, # of connection points: 2
#     Edge 22, Type (0, 0), BuildingBlock: XUDNAN_clean_linker_2, # of connection points: 2
#     Edge 23, Type (0, 0), BuildingBlock: XUDNAN_clean_linker_2, # of connection points: 2
#     Edge 24, Type (0, 0), BuildingBlock: XUDNAN_clean_linker_2, # of connection points: 2
#     Edge 25, Type (0, 0), BuildingBlock: XUDNAN_clean_linker_2, # of connection points: 2
#     Edge 26, Type (0, 0), BuildingBlock: XUDNAN_clean_linker_2, # of connection points: 2
#     Edge 27, Type (0, 0), BuildingBlock: XUDNAN_clean_linker_2, # of connection points: 2
#     Edge 28, Type (0, 0), BuildingBlock: XUDNAN_clean_linker_2, # of connection points: 2
#     Edge 29, Type (0, 0), BuildingBlock: XUDNAN_clean_linker_2, # of connection points: 2
#     Edge 30, Type (0, 0), BuildingBlock: XUDNAN_clean_linker_2, # of connection points: 2
#     Edge 31, Type (0, 0), BuildingBlock: XUDNAN_clean_linker_2, # of connection points: 2
#     Edge 32, Type (0, 0), BuildingBlock: XUDNAN_clean_linker_2, # of connection points: 2
#     Edge 33, Type (0, 0), BuildingBlock: XUDNAN_clean_linker_2, # of connection points: 2
#     Edge 34, Type (0, 0), BuildingBlock: XUDNAN_clean_linker_2, # of connection points: 2
#     Edge 35, Type (0, 0), BuildingBlock: XUDNAN_clean_linker_2, # of connection points: 2
# Relax obj value: 0.068
# Max RMSD: 0.070
# Mean RMSD: 0.064
data_MOF--net-can--node1-KUFVIS_clean_sbu_0--edge1-XUDNAN_clean_linker_2
_symmetry_space_group_name_H-M    P1
_symmetry_Int_Tables_number       1
_symmetry_cell_setting            triclinic
loop_
_symmetry_equiv_pos_as_xyz
'x, y, z'
_cell_length_a     54.416044
_cell_length_b     55.123897
_cell_length_c     26.894585
_cell_angle_alpha  90.025358
_cell_angle_beta   89.941872
_cell_angle_gamma 119.51191
loop_
_atom_site_label
_atom_site_type_symbol
_atom_site_fract_x
_atom_site_fract_y
_atom_site_fract_z
_atom_type_partial_charge
Mn0 Mn 0.06596 0.40647 0.24885 0.0
Mn1 Mn 0.10996 0.44647 0.33993 0.0
C2 C 0.06512 0.44614 0.27372 0.0
C3 C 0.05677 0.39322 0.16598 0.0
C4 C 0.05556 0.39269 0.35942 0.0
O5 O 0.09432 0.39256 0.25394 0.0
O6 O 0.12436 0.42281 0.31013 0.0
C7 C 0.16024 0.48206 0.27858 0.0
N8 N 0.14018 0.47955 0.31173 0.0
C9 C 0.16182 0.52932 0.3202 0.0
C10 C 0.18275 0.53247 0.28621 0.0
C11 C 0.18185 0.50873 0.26507 0.0
C12 C 0.14049 0.50225 0.33142 0.0
H13 H 0.15983 0.46386 0.26275 0.0
C14 C 0.11708 0.40273 0.27923 0.0
O15 O 0.04235 0.37626 0.20157 0.0
O16 O 0.07709 0.4177 0.17849 0.0
N17 N 0.09922 0.47077 0.37224 0.0
C18 C 0.07766 0.46416 0.40493 0.0
C19 C 0.07515 0.48559 0.42845 0.0
C20 C 0.09529 0.51354 0.41931 0.0
C21 C 0.11781 0.51981 0.38682 0.0
C22 C 0.1189 0.4976 0.36368 0.0
H23 H 0.06238 0.44272 0.4128 0.0
O24 O 0.04415 0.42662 0.24936 0.0
O25 O 0.0868 0.44254 0.2811 0.0
O26 O 0.04736 0.38763 0.31438 0.0
O27 O 0.07916 0.4133 0.3728 0.0
C28 C 0.13945 0.5472 0.37708 0.0
C29 C 0.16141 0.55196 0.3437 0.0
H30 H 0.19962 0.553 0.27613 0.0
H31 H 0.19792 0.51098 0.23881 0.0
H32 H 0.05787 0.48056 0.45388 0.0
H33 H 0.09343 0.53001 0.43784 0.0
H34 H 0.13929 0.56479 0.39473 0.0
H35 H 0.17775 0.57315 0.33608 0.0
Mn36 Mn 0.67213 0.06352 0.74618 0.0
Mn37 Mn 0.71632 0.03683 0.74594 0.0
C38 C 0.68499 0.05239 0.67171 0.0
C39 C 0.62842 0.06121 0.75665 0.0
C40 C 0.73614 0.09798 0.76213 0.0
O41 O 0.67058 0.05068 0.81702 0.0
O42 O 0.6984 0.03108 0.81331 0.0
C43 C 0.67487 0.97694 0.75872 0.0
N44 N 0.69586 0.99781 0.73185 0.0
C45 C 0.6972 0.96501 0.67442 0.0
C46 C 0.67565 0.94314 0.70154 0.0
C47 C 0.6643 0.94915 0.74365 0.0
C48 C 0.70652 0.99229 0.6907 0.0
H49 H 0.66638 0.98144 0.79155 0.0
C50 C 0.68156 0.0372 0.83657 0.0
O51 O 0.65214 0.08352 0.76552 0.0
O52 O 0.62976 0.03968 0.74006 0.0
N53 N 0.73471 0.04038 0.6835 0.0
C54 C 0.75463 0.0639 0.66036 0.0
C55 C 0.76699 0.06157 0.61606 0.0
C56 C 0.75923 0.0351 0.59662 0.0
C57 C 0.73907 0.0112 0.62159 0.0
C58 C 0.72706 0.01483 0.66505 0.0
H59 H 0.7609 0.0843 0.67537 0.0
O60 O 0.67575 0.07009 0.67346 0.0
O61 O 0.68579 0.04098 0.71376 0.0
O62 O 0.71188 0.09555 0.75658 0.0
O63 O 0.74048 0.07728 0.75989 0.0
C64 C 0.73052 0.98391 0.6052 0.0
C65 C 0.70974 0.96083 0.6318 0.0
H66 H 0.6676 0.92168 0.69026 0.0
H67 H 0.64763 0.93239 0.76473 0.0
H68 H 0.7826 0.08013 0.5971 0.0
H69 H 0.76893 0.03338 0.5626 0.0
H70 H 0.73959 0.98044 0.57192 0.0
H71 H 0.70311 0.93995 0.61852 0.0
Mn72 Mn 0.59926 0.66311 0.2461 0.0
Mn73 Mn 0.66978 0.70492 0.23327 0.0
C74 C 0.61959 0.67178 0.16802 0.0
C75 C 0.55821 0.62095 0.26161 0.0
C76 C 0.62985 0.72731 0.25093 0.0
O77 O 0.61386 0.66362 0.31587 0.0
O78 O 0.66047 0.6922 0.30358 0.0
C79 C 0.68649 0.66212 0.25236 0.0
N80 N 0.68632 0.68181 0.222 0.0
C81 C 0.71485 0.67512 0.16112 0.0
C82 C 0.71542 0.65485 0.1918 0.0
C83 C 0.70103 0.64821 0.23749 0.0
C84 C 0.69955 0.6879 0.17746 0.0
H85 H 0.67567 0.65711 0.28771 0.0
C86 C 0.6393 0.6767 0.33127 0.0
O87 O 0.56003 0.64485 0.27053 0.0
O88 O 0.58059 0.62126 0.24362 0.0
N89 N 0.68236 0.71879 0.16754 0.0
C90 C 0.68077 0.73967 0.14323 0.0
C91 C 0.69393 0.74868 0.09673 0.0
C92 C 0.70914 0.73661 0.07624 0.0
C93 C 0.71134 0.71587 0.10275 0.0
C94 C 0.69762 0.7076 0.14878 0.0
H95 H 0.66941 0.74928 0.15905 0.0
O96 O 0.59299 0.664 0.17323 0.0
O97 O 0.63358 0.67409 0.20862 0.0
O98 O 0.60792 0.70337 0.25312 0.0
O99 O 0.65454 0.73072 0.24346 0.0
C100 C 0.7271 0.70351 0.08579 0.0
C101 C 0.72898 0.68325 0.11509 0.0
H102 H 0.72683 0.64425 0.18064 0.0
H103 H 0.70132 0.63254 0.26134 0.0
H104 H 0.69244 0.76496 0.0768 0.0
H105 H 0.71933 0.74366 0.04042 0.0
H106 H 0.73796 0.70949 0.05036 0.0
H107 H 0.74115 0.67388 0.10164 0.0
Mn108 Mn 0.95263 0.60898 0.76045 0.0
Mn109 Mn 0.89928 0.55552 0.82111 0.0
C110 C 0.9507 0.56579 0.76388 0.0
C111 C 0.96789 0.63253 0.68424 0.0
C112 C 0.94863 0.6049 0.87321 0.0
O113 O 0.92324 0.62179 0.76916 0.0
O114 O 0.88655 0.5817 0.7976 0.0
C115 C 0.85826 0.52857 0.73928 0.0
N116 N 0.87431 0.52696 0.77652 0.0
C117 C 0.85603 0.47798 0.76161 0.0
C118 C 0.83912 0.47909 0.72337 0.0
C119 C 0.84032 0.50453 0.71206 0.0
C120 C 0.87341 0.50262 0.78758 0.0
H121 H 0.85924 0.54806 0.73034 0.0
C122 C 0.89726 0.60671 0.78125 0.0
O123 O 0.98009 0.64476 0.72561 0.0
O124 O 0.94712 0.60734 0.68762 0.0
N125 N 0.90879 0.52844 0.84497 0.0
C126 C 0.92788 0.5313 0.88049 0.0
C127 C 0.92988 0.50791 0.89526 0.0
C128 C 0.91219 0.48183 0.87352 0.0
C129 C 0.89295 0.47944 0.83666 0.0
C130 C 0.89165 0.5034 0.82389 0.0
H131 H 0.94139 0.55123 0.89763 0.0
O132 O 0.97421 0.58812 0.75337 0.0
O133 O 0.92927 0.56952 0.77163 0.0
O134 O 0.96369 0.61698 0.83483 0.0
O135 O 0.92412 0.58329 0.87043 0.0
C136 C 0.87524 0.45428 0.81174 0.0
C137 C 0.85683 0.45357 0.77415 0.0
H138 H 0.82538 0.46062 0.70209 0.0
H139 H 0.82748 0.50562 0.68237 0.0
H140 H 0.94495 0.50995 0.92347 0.0
H141 H 0.91367 0.46379 0.88518 0.0
H142 H 0.87591 0.43546 0.82067 0.0
H143 H 0.84367 0.43422 0.75466 0.0
Mn144 Mn 0.3495 0.95001 0.23364 0.0
Mn145 Mn 0.30064 0.97069 0.23862 0.0
C146 C 0.33319 0.959 0.16075 0.0
C147 C 0.39627 0.95968 0.23737 0.0
C148 C 0.28653 0.91053 0.25251 0.0
O149 O 0.35109 0.96199 0.30526 0.0
O150 O 0.32036 0.97824 0.30461 0.0
C151 C 0.33811 0.03157 0.24991 0.0
N152 N 0.31776 0.0096 0.22408 0.0
C153 C 0.31325 0.04026 0.16576 0.0
C154 C 0.33407 0.06322 0.19185 0.0
C155 C 0.34666 0.05884 0.23395 0.0
C156 C 0.30581 0.01357 0.18311 0.0
H157 H 0.34769 0.02831 0.28251 0.0
C158 C 0.33893 0.97398 0.32628 0.0
O159 O 0.37543 0.93521 0.24825 0.0
O160 O 0.38996 0.97865 0.2244 0.0
N161 N 0.28047 0.96519 0.17758 0.0
C162 C 0.26153 0.94083 0.15539 0.0
C163 C 0.24805 0.9416 0.11141 0.0
C164 C 0.25382 0.96736 0.09114 0.0
C165 C 0.27305 0.99212 0.11504 0.0
C166 C 0.28609 0.99007 0.15847 0.0
H167 H 0.25689 0.92096 0.17085 0.0
O168 O 0.34507 0.94355 0.16087 0.0
O169 O 0.33181 0.96946 0.20352 0.0
O170 O 0.31152 0.91483 0.24543 0.0
O171 O 0.28037 0.9301 0.25262 0.0
C172 C 0.2798 0.01876 0.09747 0.0
C173 C 0.29973 0.04281 0.12303 0.0
H174 H 0.34066 0.08429 0.17976 0.0
H175 H 0.36281 0.07646 0.2542 0.0
H176 H 0.23319 0.92239 0.09324 0.0
H177 H 0.24334 0.96787 0.05725 0.0
H178 H 0.26997 0.02101 0.0641 0.0
H179 H 0.30495 0.06319 0.10888 0.0
Mn180 Mn 0.40864 0.34377 0.73397 0.0
Mn181 Mn 0.33845 0.29938 0.73675 0.0
C182 C 0.38354 0.32966 0.6606 0.0
C183 C 0.44604 0.38947 0.73806 0.0
C184 C 0.38232 0.28106 0.75205 0.0
O185 O 0.39821 0.34467 0.806 0.0
O186 O 0.35072 0.3186 0.80243 0.0
C187 C 0.31935 0.34111 0.74455 0.0
N188 N 0.31915 0.31936 0.72017 0.0
C189 C 0.28741 0.31945 0.65805 0.0
C190 C 0.28696 0.3416 0.6829 0.0
C191 C 0.30315 0.35258 0.72617 0.0
C192 C 0.30413 0.30903 0.67791 0.0
H193 H 0.33188 0.34972 0.77762 0.0
C194 C 0.37377 0.33436 0.8256 0.0
O195 O 0.44959 0.36847 0.74933 0.0
O196 O 0.4208 0.3839 0.72552 0.0
N197 N 0.32354 0.2797 0.67565 0.0
C198 C 0.32636 0.25841 0.65591 0.0
C199 C 0.31194 0.24548 0.61195 0.0
C200 C 0.29452 0.25433 0.58904 0.0
C201 C 0.29148 0.27587 0.61058 0.0
C202 C 0.30629 0.2879 0.65453 0.0
H203 H 0.33962 0.25143 0.67335 0.0
O204 O 0.41075 0.3401 0.66044 0.0
O205 O 0.37205 0.32846 0.70352 0.0
O206 O 0.40392 0.30496 0.74453 0.0
O207 O 0.35699 0.27689 0.75224 0.0
C208 C 0.27423 0.28578 0.59029 0.0
C209 C 0.27209 0.30745 0.61416 0.0
H210 H 0.27448 0.35048 0.66883 0.0
H211 H 0.30313 0.36984 0.74532 0.0
H212 H 0.31427 0.22876 0.59572 0.0
H213 H 0.28352 0.24439 0.55502 0.0
H214 H 0.26253 0.27689 0.55632 0.0
H215 H 0.25881 0.31495 0.59812 0.0
Mn216 Mn 0.61291 0.94954 0.27622 0.0
Mn217 Mn 0.68224 0.96968 0.27038 0.0
C218 C 0.64004 0.9664 0.34683 0.0
C219 C 0.576 0.95908 0.26535 0.0
C220 C 0.6358 0.90903 0.2704 0.0
O221 O 0.62175 0.9543 0.20261 0.0
O222 O 0.6691 0.97275 0.20216 0.0
C223 C 0.70696 0.02938 0.24451 0.0
N224 N 0.70518 0.00922 0.27599 0.0
C225 C 0.7405 0.04344 0.33 0.0
C226 C 0.74283 0.06455 0.29799 0.0
C227 C 0.72598 0.05748 0.25508 0.0
C228 C 0.72152 0.01577 0.31711 0.0
H229 H 0.69394 0.02406 0.21162 0.0
C230 C 0.64553 0.96566 0.18024 0.0
O231 O 0.57186 0.93381 0.26318 0.0
O232 O 0.60163 0.97885 0.27356 0.0
N233 N 0.69716 0.9682 0.3341 0.0
C234 C 0.69011 0.94567 0.36378 0.0
C235 C 0.70361 0.94937 0.40987 0.0
C236 C 0.72426 0.97615 0.42494 0.0
C237 C 0.7312 0.99902 0.39376 0.0
C238 C 0.71713 0.99405 0.34811 0.0
H239 H 0.67407 0.92506 0.35267 0.0
O240 O 0.61282 0.95068 0.35008 0.0
O241 O 0.65057 0.97173 0.30198 0.0
O242 O 0.61539 0.91377 0.27738 0.0
O243 O 0.66131 0.92845 0.26509 0.0
C244 C 0.75083 0.02665 0.40694 0.0
C245 C 0.75555 0.04884 0.37501 0.0
H246 H 0.7572 0.08627 0.30633 0.0
H247 H 0.72754 0.07366 0.23036 0.0
H248 H 0.69798 0.93165 0.43389 0.0
H249 H 0.73436 0.97896 0.46081 0.0
H250 H 0.762 0.03113 0.44203 0.0
H251 H 0.77032 0.07004 0.38598 0.0
Mn252 Mn 0.66649 0.60667 0.76594 0.0
Mn253 Mn 0.66655 0.55752 0.69088 0.0
C254 C 0.62444 0.56696 0.74634 0.0
C255 C 0.66857 0.62794 0.84223 0.0
C256 C 0.66875 0.60955 0.6514 0.0
O257 O 0.7079 0.61677 0.76836 0.0
O258 O 0.70537 0.58528 0.7127 0.0
C259 C 0.68597 0.5318 0.76685 0.0
N260 N 0.66685 0.52927 0.73165 0.0
C261 C 0.64323 0.47925 0.73683 0.0
C262 C 0.66265 0.4813 0.77311 0.0
C263 C 0.68396 0.50771 0.78852 0.0
C264 C 0.64574 0.504 0.71777 0.0
H265 H 0.70279 0.552 0.77802 0.0
C266 C 0.71942 0.6058 0.74218 0.0
O267 O 0.67469 0.64157 0.80067 0.0
O268 O 0.66258 0.60203 0.84001 0.0
N269 N 0.63119 0.52851 0.66639 0.0
C270 C 0.61427 0.53003 0.63064 0.0
C271 C 0.59146 0.50542 0.61211 0.0
C272 C 0.58704 0.47944 0.62882 0.0
C273 C 0.60532 0.47835 0.6643 0.0
C274 C 0.62701 0.50358 0.68286 0.0
H275 H 0.61796 0.5499 0.6168 0.0
O276 O 0.62488 0.58968 0.76029 0.0
O277 O 0.64869 0.56752 0.74502 0.0
O278 O 0.67122 0.62074 0.69394 0.0
O279 O 0.6656 0.58521 0.64548 0.0
C280 C 0.60319 0.4532 0.6813 0.0
C281 C 0.62187 0.45363 0.71808 0.0
H282 H 0.6615 0.46275 0.78919 0.0
H283 H 0.69908 0.50949 0.81642 0.0
H284 H 0.57761 0.50647 0.58441 0.0
H285 H 0.56973 0.46049 0.6138 0.0
H286 H 0.58688 0.43337 0.66707 0.0
H287 H 0.61965 0.43413 0.73156 0.0
Mn288 Mn 0.07084 0.66833 0.28569 0.0
Mn289 Mn 0.04762 0.71484 0.28354 0.0
C290 C 0.05746 0.68083 0.35927 0.0
C291 C 0.06268 0.62265 0.28152 0.0
C292 C 0.10921 0.73073 0.26949 0.0
O293 O 0.05949 0.66785 0.21306 0.0
O294 O 0.03975 0.69557 0.21756 0.0
C295 C 0.98582 0.67852 0.27213 0.0
N296 N 0.00823 0.69766 0.29897 0.0
C297 C 0.97746 0.6987 0.3623 0.0
C298 C 0.95409 0.67889 0.33542 0.0
C299 C 0.9583 0.66881 0.29008 0.0
C300 C 1.00439 0.70791 0.3422 0.0
H301 H 0.98889 0.67076 0.23724 0.0
C302 C 0.04574 0.67884 0.19399 0.0
O303 O 0.08722 0.64372 0.27103 0.0
O304 O 0.04269 0.62806 0.29286 0.0
N305 N 0.05344 0.7334 0.3463 0.0
C306 C 0.07822 0.75068 0.36974 0.0
C307 C 0.07768 0.76156 0.41669 0.0
C308 C 0.05171 0.75455 0.43912 0.0
C309 C 0.02649 0.73671 0.41439 0.0
C310 C 0.02833 0.72665 0.36748 0.0
H311 H 0.09827 0.75593 0.35307 0.0
O312 O 0.0749 0.67114 0.36011 0.0
O313 O 0.04926 0.68363 0.31532 0.0
O314 O 0.10591 0.70652 0.27712 0.0
O315 O 0.08862 0.73565 0.26847 0.0
C316 C 0.99961 0.72795 0.43504 0.0
C317 C 0.97511 0.70905 0.40893 0.0
H318 H 0.93284 0.6711 0.34942 0.0
H319 H 0.94037 0.65353 0.26909 0.0
H320 H 0.09724 0.77516 0.43569 0.0
H321 H 0.05138 0.76275 0.47557 0.0
H322 H 0.99755 0.73533 0.4713 0.0
H323 H 0.95457 0.70219 0.42549 0.0
Mn324 Mn 0.40652 0.0633 0.76777 0.0
Mn325 Mn 0.33634 0.03912 0.7586 0.0
C326 C 0.37823 0.0451 0.83713 0.0
C327 C 0.44761 0.06007 0.76433 0.0
C328 C 0.37953 0.10064 0.76087 0.0
O329 O 0.39923 0.05709 0.69353 0.0
O330 O 0.35189 0.03895 0.69101 0.0
C331 C 0.31667 0.9807 0.72866 0.0
N332 N 0.31588 0.9993 0.76104 0.0
C333 C 0.28072 0.96233 0.81126 0.0
C334 C 0.28105 0.94279 0.77827 0.0
C335 C 0.29912 0.95202 0.73683 0.0
C336 C 0.29836 0.99066 0.80081 0.0
H337 H 0.33062 0.98767 0.69687 0.0
C338 C 0.37576 0.04612 0.67004 0.0
O339 O 0.44779 0.08345 0.75847 0.0
O340 O 0.42315 0.03777 0.76978 0.0
N341 N 0.31901 0.03767 0.82137 0.0
C342 C 0.32344 0.05904 0.85231 0.0
C343 C 0.30836 0.05323 0.89718 0.0
C344 C 0.2888 0.02557 0.90969 0.0
C345 C 0.28453 1.00393 0.87721 0.0
C346 C 0.3001 0.01098 0.83289 0.0
H347 H 0.33864 0.08033 0.84315 0.0
O348 O 0.40495 0.06284 0.8417 0.0
O349 O 0.36864 0.03875 0.79177 0.0
O350 O 0.40065 0.09696 0.76594 0.0
O351 O 0.35437 0.08045 0.75654 0.0
C352 C 0.26617 0.97558 0.88789 0.0
C353 C 0.26421 0.9548 0.85488 0.0
H354 H 0.26778 0.92064 0.78474 0.0
H355 H 0.2996 0.93705 0.71135 0.0
H356 H 0.31194 0.07002 0.92225 0.0
H357 H 0.27747 0.02115 0.94464 0.0
H358 H 0.25389 0.9695 0.9219 0.0
H359 H 0.2504 0.93306 0.86396 0.0
Mn360 Mn 0.34328 0.39716 0.26453 0.0
Mn361 Mn 0.34243 0.44707 0.19259 0.0
C362 C 0.38338 0.44044 0.2577 0.0
C363 C 0.33617 0.37265 0.33855 0.0
C364 C 0.34724 0.39859 0.15105 0.0
O365 O 0.30109 0.38316 0.25563 0.0
O366 O 0.30317 0.41877 0.21076 0.0
C367 C 0.32062 0.47164 0.26658 0.0
N368 N 0.34102 0.47466 0.23376 0.0
C369 C 0.36801 0.5239 0.25017 0.0
C370 C 0.34724 0.52132 0.28402 0.0
C371 C 0.32346 0.49506 0.2923 0.0
C372 C 0.36398 0.49983 0.22551 0.0
H373 H 0.30233 0.45155 0.27307 0.0
C374 C 0.2895 0.39548 0.23366 0.0
O375 O 0.33581 0.3617 0.29573 0.0
O376 O 0.33965 0.39775 0.33848 0.0
N377 N 0.37903 0.47612 0.17307 0.0
C378 C 0.39771 0.47487 0.14083 0.0
C379 C 0.42275 0.49937 0.12884 0.0
C380 C 0.42831 0.52487 0.15003 0.0
C381 C 0.40879 0.52565 0.18306 0.0
C382 C 0.38401 0.50064 0.19309 0.0
H383 H 0.39354 0.45535 0.12433 0.0
O384 O 0.38533 0.41882 0.27098 0.0
O385 O 0.358 0.43616 0.24913 0.0
O386 O 0.34721 0.38792 0.19291 0.0
O387 O 0.3446 0.42022 0.14606 0.0
C388 C 0.4131 0.55022 0.20687 0.0
C389 C 0.39276 0.54933 0.2405 0.0
H390 H 0.34941 0.53932 0.30407 0.0
H391 H 0.30736 0.49287 0.31845 0.0
H392 H 0.43774 0.49859 0.10336 0.0
H393 H 0.44769 0.54372 0.14086 0.0
H394 H 0.43215 0.56984 0.20005 0.0
H395 H 0.39648 0.56829 0.25905 0.0
Mn396 Mn 0.94297 0.34348 0.76965 0.0
Mn397 Mn 0.97444 0.30407 0.77668 0.0
C398 C 0.96374 0.34131 0.84315 0.0
C399 C 0.94346 0.38493 0.75027 0.0
C400 C 0.91085 0.28001 0.77505 0.0
O401 O 0.94862 0.33655 0.69713 0.0
O402 O 0.97497 0.31545 0.70621 0.0
C403 C 0.03291 0.34688 0.75081 0.0
N404 N 0.01443 0.32727 0.78292 0.0
C405 C 0.05179 0.33637 0.84064 0.0
C406 C 0.07129 0.35621 0.80762 0.0
C407 C 0.06177 0.36158 0.76262 0.0
C408 C 0.02331 0.32221 0.82665 0.0
H409 H 0.02562 0.35153 0.71679 0.0
C410 C 0.96358 0.32652 0.67949 0.0
O411 O 0.9203 0.36111 0.75008 0.0
O412 O 0.96665 0.38475 0.76091 0.0
N413 N 0.9757 0.2924 0.84324 0.0
C414 C 0.95396 0.27433 0.87271 0.0
C415 C 0.95978 0.26743 0.91983 0.0
C416 C 0.98784 0.27916 0.93616 0.0
C417 C 0.00984 0.29793 0.90545 0.0
C418 C 1.0028 0.30368 0.85853 0.0
H419 H 0.93234 0.26516 0.86036 0.0
O420 O 0.94453 0.34878 0.84352 0.0
O421 O 0.97002 0.33542 0.79993 0.0
O422 O 0.91163 0.30343 0.77692 0.0
O423 O 0.93305 0.2777 0.77185 0.0
C424 C 0.03843 0.31144 0.91983 0.0
C425 C 0.05939 0.33071 0.88751 0.0
H426 H 0.09354 0.36778 0.81682 0.0
H427 H 0.07662 0.37717 0.73728 0.0
H428 H 0.94268 0.25309 0.9435 0.0
H429 H 0.99225 0.2737 0.97244 0.0
H430 H 0.04449 0.30749 0.95599 0.0
H431 H 0.08124 0.34135 0.89936 0.0
H432 H 1.00522 0.35536 0.12939 0.0
H433 H 0.09073 0.41475 0.08445 0.0
H434 H 0.07677 0.4042 0.99613 0.0
H435 H 0.98941 0.30515 0.03172 0.0
H436 H 0.95368 0.29793 0.02106 0.0
H437 H 0.96915 0.30781 0.08212 0.0
H438 H 0.96054 0.34942 0.08699 0.0
H439 H 0.94298 0.33948 0.02776 0.0
H440 H 0.972 0.37429 0.03677 0.0
H441 H 0.0528 0.39038 0.91372 0.0
H442 H 0.02019 0.3749 0.84212 0.0
H443 H 0.94989 0.32512 0.94015 0.0
C444 C 0.02113 0.36569 0.10093 0.0
C445 C 0.04914 0.38559 0.1135 0.0
C446 C 0.06921 0.39931 0.0754 0.0
C447 C 0.0615 0.39339 0.02526 0.0
C448 C 0.03358 0.37394 0.01406 0.0
C449 C 0.01365 0.36043 0.05078 0.0
C450 C 0.98456 0.34226 0.02885 0.0
C451 C 0.97352 0.31144 0.04163 0.0
C452 C 0.96381 0.35196 0.04611 0.0
C453 C 0.99117 0.34787 0.97398 0.0
C454 C 0.01963 0.36602 0.96632 0.0
C455 C 0.0306 0.37576 0.91916 0.0
C456 C 0.01199 0.36679 0.87877 0.0
C457 C 0.98287 0.34811 0.88575 0.0
C458 C 0.97226 0.33876 0.93394 0.0
H459 H 0.63355 0.94856 0.44282 0.0
H460 H 0.67721 0.02197 0.35065 0.0
H461 H 0.70082 0.05034 0.4248 0.0
H462 H 0.61744 0.98556 0.53363 0.0
H463 H 0.61826 0.96501 0.58506 0.0
H464 H 0.60923 0.95 0.52385 0.0
H465 H 0.64865 0.93735 0.52932 0.0
H466 H 0.65878 0.95302 0.58989 0.0
H467 H 0.68447 0.96415 0.53992 0.0
H468 H 0.71569 0.07142 0.50848 0.0
H469 H 0.71638 0.08523 0.59609 0.0
H470 H 0.66051 0.99901 0.63606 0.0
C471 C 0.64889 0.97043 0.43831 0.0
C472 C 0.65565 0.98273 0.39068 0.0
C473 C 0.67384 0.01178 0.38637 0.0
C474 C 0.68697 0.02809 0.42841 0.0
C475 C 0.68058 0.01519 0.47483 0.0
C476 C 0.6613 0.98719 0.48014 0.0
C477 C 0.65436 0.97942 0.53436 0.0
C478 C 0.62297 0.96942 0.54481 0.0
C479 C 0.6621 0.9572 0.54938 0.0
C480 C 0.67327 0.00734 0.55901 0.0
C481 C 0.68825 0.02765 0.52378 0.0
C482 C 0.70456 0.05567 0.53653 0.0
C483 C 0.70486 0.06334 0.58627 0.0
C484 C 0.68931 0.04307 0.62277 0.0
C485 C 0.67366 0.01468 0.60912 0.0
H486 H 0.63619 0.63608 0.13111 0.0
H487 H 0.62497 0.70612 0.09156 0.0
H488 H 0.64123 0.70517 1.00589 0.0
H489 H 0.69535 0.64676 0.04477 0.0
H490 H 0.67772 0.6099 0.03418 0.0
H491 H 0.67302 0.62314 0.09263 0.0
H492 H 0.61836 0.59278 0.07275 0.0
H493 H 0.62555 0.58384 0.01213 0.0
H494 H 0.60477 0.60097 0.01797 0.0
H495 H 0.65929 0.69707 0.92567 0.0
H496 H 0.66886 0.67725 0.85097 0.0
H497 H 0.66105 0.60754 0.93832 0.0
C498 C 0.63804 0.65167 0.10457 0.0
C499 C 0.63092 0.67221 0.11814 0.0
C500 C 0.63146 0.69101 0.08198 0.0
C501 C 0.64068 0.69061 0.03344 0.0
C502 C 0.64796 0.67037 0.0212 0.0
C503 C 0.64597 0.65071 0.05527 0.0
C504 C 0.65018 0.62831 0.03015 0.0
C505 C 0.67556 0.62697 0.0519 0.0
C506 C 0.6231 0.59979 0.03345 0.0
C507 C 0.65595 0.6391 0.97714 0.0
C508 C 0.65501 0.66363 0.97315 0.0
C509 C 0.65995 0.67781 0.92825 0.0
C510 C 0.66551 0.66641 0.88604 0.0
C511 C 0.66569 0.64081 0.88869 0.0
C512 C 0.66107 0.62713 0.93507 0.0
H513 H 0.07512 0.69673 0.45624 0.0
H514 H 1.00073 0.65436 0.36352 0.0
H515 H 0.97031 0.64516 0.4367 0.0
H516 H 0.04845 0.64822 0.55258 0.0
H517 H 0.06412 0.67272 0.60293 0.0
H518 H 0.08044 0.68084 0.54251 0.0
H519 H 0.07819 0.72674 0.54084 0.0
H520 H 0.06191 0.71873 0.60152 0.0
H521 H 0.0448 0.7255 0.5503 0.0
H522 H 0.94782 0.63628 0.51826 0.0
H523 H 0.934 0.62347 0.60547 0.0
H524 H 0.02197 0.66907 0.65001 0.0
C525 C 0.05243 0.68628 0.4515 0.0
C526 C 0.0402 0.67773 0.40381 0.0
C527 C 0.01048 0.66258 0.39922 0.0
C528 C 0.99302 0.6571 0.44068 0.0
C529 C 1.00556 0.6663 0.48701 0.0
C530 C 0.03454 0.68027 0.49301 0.0
C531 C 0.04221 0.68454 0.54794 0.0
C532 C 0.05984 0.67075 0.56232 0.0
C533 C 0.0577 0.71574 0.56092 0.0
C534 C 0.01301 0.66967 0.57164 0.0
C535 C 0.9923 0.66002 0.53544 0.0
C536 C 0.96378 0.64402 0.54704 0.0
C537 C 0.95614 0.63681 0.59672 0.0
C538 C 0.97686 0.64546 0.6345 0.0
C539 C 1.00567 0.66277 0.622 0.0
H540 H 0.38147 0.06285 0.93297 0.0
H541 H 0.34397 0.98894 0.84095 0.0
H542 H 0.31987 0.96007 0.91437 0.0
H543 H 0.39883 0.02942 0.02731 0.0
H544 H 0.39475 0.04881 0.07757 0.0
H545 H 0.40417 0.06397 0.01653 0.0
H546 H 0.36119 0.07194 0.01679 0.0
H547 H 0.3518 0.0568 0.07788 0.0
H548 H 0.32641 0.043 0.02764 0.0
H549 H 0.30375 0.9388 0.99754 0.0
H550 H 0.30287 0.92535 0.08534 0.0
H551 H 0.35378 0.01223 0.12605 0.0
C552 C 0.36736 0.04069 0.92826 0.0
C553 C 0.36254 0.02831 0.88072 0.0
C554 C 0.34592 0.99904 0.87638 0.0
C555 C 0.33244 0.98248 0.91803 0.0
C556 C 0.3368 0.9954 0.96425 0.0
C557 C 0.35454 0.02375 0.96982 0.0
C558 C 0.35972 0.03173 0.02429 0.0
C559 C 0.39123 0.04421 0.03716 0.0
C560 C 0.34908 0.05204 0.0375 0.0
C561 C 0.34202 1.00344 0.04866 0.0
C562 C 0.32867 0.98287 0.01313 0.0
C563 C 0.31361 0.95473 0.02577 0.0
C564 C 0.31315 0.94726 0.07567 0.0
C565 C 0.32743 0.96779 0.11243 0.0
C566 C 0.34155 0.99627 0.09892 0.0
H567 H 0.33837 0.39033 0.43511 0.0
H568 H 0.33339 0.32212 0.34672 0.0
H569 H 0.33917 0.30036 0.42237 0.0
H570 H 0.39133 0.39643 0.51501 0.0
H571 H 0.37735 0.40406 0.56994 0.0
H572 H 0.36972 0.41271 0.50956 0.0
H573 H 0.31711 0.38487 0.52996 0.0
H574 H 0.32301 0.3734 0.5893 0.0
H575 H 0.30086 0.34826 0.54326 0.0
H576 H 0.35566 0.29158 0.5029 0.0
H577 H 0.37482 0.29267 0.58685 0.0
H578 H 0.36305 0.36234 0.62656 0.0
C579 C 0.33776 0.37046 0.43189 0.0
C580 C 0.33542 0.35795 0.38499 0.0
C581 C 0.33507 0.3321 0.38222 0.0
C582 C 0.33834 0.31953 0.42502 0.0
C583 C 0.34144 0.33278 0.47048 0.0
C584 C 0.34069 0.35742 0.47443 0.0
C585 C 0.34611 0.36809 0.52746 0.0
C586 C 0.37271 0.39702 0.53064 0.0
C587 C 0.32023 0.36867 0.54886 0.0
C588 C 0.35078 0.34599 0.55231 0.0
C589 C 0.34834 0.326 0.51853 0.0
C590 C 0.35642 0.30628 0.53035 0.0
C591 C 0.36727 0.30703 0.57791 0.0
C592 C 0.36883 0.32656 0.61344 0.0
C593 C 0.36041 0.34619 0.60062 0.0
H594 H 1.00142 0.64854 0.90395 0.0
H595 H 0.92073 0.58306 0.95993 0.0
H596 H 0.93778 0.59528 0.04496 0.0
H597 H 0.04476 0.6401 0.99604 0.0
H598 H 0.06921 0.67679 1.00344 0.0
H599 H 0.05117 0.66376 0.94511 0.0
H600 H 0.03186 0.69823 0.94973 0.0
H601 H 0.04998 0.71149 1.00793 0.0
H602 H 0.01245 0.69836 1.00402 0.0
H603 H 0.96268 0.61155 0.12339 0.0
H604 H 0.99423 0.63474 0.19423 0.0
H605 H 0.05919 0.69213 0.09351 0.0
C606 C 0.98731 0.63697 0.93413 0.0
C607 C 0.95965 0.61468 0.9245 0.0
C608 C 0.94198 0.60012 0.96545 0.0
C609 C 0.95146 0.60686 0.01433 0.0
C610 C 0.9787 0.62844 0.02249 0.0
C611 C 0.99642 0.64361 0.98395 0.0
C612 C 0.02474 0.66599 1.00443 0.0
C613 C 0.0489 0.66138 0.98616 0.0
C614 C 0.03007 0.69526 0.99071 0.0
C615 C 0.01995 0.66072 0.0602 0.0
C616 C 0.99318 0.63873 0.06922 0.0
C617 C 0.98357 0.62902 0.11699 0.0
C618 C 1.0016 0.64232 0.15697 0.0
C619 C 0.02882 0.66533 0.14927 0.0
C620 C 0.03833 0.67465 0.10023 0.0
H621 H 0.3103 0.98517 0.40039 0.0
H622 H 0.3904 0.98947 0.3663 0.0
H623 H 0.40878 0.01052 0.4481 0.0
H624 H 0.33836 0.04952 0.47046 0.0
H625 H 0.31068 0.03577 0.51651 0.0
H626 H 0.30362 0.02183 0.45428 0.0
H627 H 0.28625 0.97219 0.48914 0.0
H628 H 0.29307 0.98596 0.55144 0.0
H629 H 0.30901 0.96601 0.52953 0.0
H630 H 0.41925 0.03184 0.53208 0.0
H631 H 0.41965 0.04777 0.61759 0.0
H632 H 0.33217 0.02777 0.60142 0.0
C633 C 0.3317 0.99059 0.41021 0.0
C634 C 0.34888 0.98564 0.37676 0.0
C635 C 0.37671 0.99282 0.39125 0.0
C636 C 0.38746 1.00499 0.43758 0.0
C637 C 0.3701 0.00965 0.46956 0.0
C638 C 0.3427 1.00236 0.45699 0.0
C639 C 0.32824 0.0085 0.49967 0.0
C640 C 0.31972 0.0302 0.4843 0.0
C641 C 0.30263 0.98156 0.51856 0.0
C642 C 0.35185 0.02037 0.53792 0.0
C643 C 0.37588 0.02114 0.51932 0.0
C644 C 0.40054 0.03129 0.54719 0.0
C645 C 0.40056 0.04042 0.59581 0.0
C646 C 0.37596 0.03911 0.61661 0.0
C647 C 0.35136 0.02913 0.58682 0.0
H648 H 0.33939 0.35226 0.86661 0.0
H649 H 0.40518 0.33238 0.90201 0.0
H650 H 0.40384 0.34481 0.98999 0.0
H651 H 0.36709 0.41293 0.94399 0.0
H652 H 0.33299 0.40792 0.9621 0.0
H653 H 0.33727 0.39516 0.9029 0.0
H654 H 0.29741 0.34553 0.92553 0.0
H655 H 0.29298 0.35814 0.98482 0.0
H656 H 0.29992 0.32939 0.98215 0.0
H657 H 0.3949 0.35851 0.07336 0.0
H658 H 0.3826 0.3773 0.14656 0.0
H659 H 0.32591 0.39303 0.05611 0.0
C660 C 0.35322 0.35023 0.8931 0.0
C661 C 0.37214 0.34103 0.87803 0.0
C662 C 0.39047 0.33926 0.91321 0.0
C663 C 0.38979 0.34619 0.96312 0.0
C664 C 0.37105 0.35539 0.97683 0.0
C665 C 0.35338 0.35784 0.94283 0.0
C666 C 0.33677 0.37022 0.96674 0.0
C667 C 0.34397 0.39822 0.94249 0.0
C668 C 0.30488 0.34958 0.96469 0.0
C669 C 0.34781 0.37423 0.01955 0.0
C670 C 0.36721 0.36508 0.02457 0.0
C671 C 0.37986 0.36587 0.0699 0.0
C672 C 0.37264 0.37647 0.11125 0.0
C673 C 0.35335 0.38661 0.10685 0.0
C674 C 0.34085 0.38556 0.06032 0.0
H675 H 0.01288 0.33702 0.63521 0.0
H676 H 0.92956 0.32501 0.603 0.0
H677 H 0.94249 0.33468 0.51395 0.0
H678 H 0.04816 0.39591 0.56046 0.0
H679 H 0.07572 0.38873 0.54149 0.0
H680 H 0.05825 0.37597 0.60023 0.0
H681 H 0.04508 0.32563 0.57487 0.0
H682 H 0.06249 0.33825 0.51586 0.0
H683 H 0.02604 0.31116 0.51783 0.0
H684 H 0.96562 0.34809 0.42935 0.0
H685 H 0.99837 0.37003 0.35878 0.0
H686 H 0.06792 0.37829 0.4495 0.0
C687 C 0.99713 0.33584 0.60936 0.0
C688 C 0.97008 0.32989 0.6258 0.0
C689 C 0.95032 0.32929 0.59095 0.0
C690 C 0.95745 0.33462 0.54038 0.0
C691 C 0.98456 0.34097 0.52559 0.0
C692 C 1.0042 0.34198 0.55927 0.0
C693 C 0.03297 0.35292 0.53552 0.0
C694 C 0.05506 0.37998 0.56093 0.0
C695 C 0.04218 0.33065 0.53605 0.0
C696 C 0.02662 0.35833 0.48327 0.0
C697 C 0.99842 0.35059 0.47789 0.0
C698 C 0.98769 0.35409 0.4331 0.0
C699 C 1.00641 0.36643 0.39318 0.0
C700 C 0.03559 0.37572 0.3988 0.0
C701 C 0.04568 0.37125 0.44423 0.0
H702 H 0.70954 0.02368 0.9082 0.0
H703 H 0.63179 0.02533 0.87968 0.0
H704 H 0.61401 1.00529 0.96224 0.0
H705 H 0.67865 0.9594 0.97908 0.0
H706 H 0.70707 0.97159 0.02349 0.0
H707 H 0.71389 0.98526 0.96107 0.0
H708 H 0.73525 0.03549 0.99563 0.0
H709 H 0.72865 0.02198 0.05813 0.0
H710 H 0.71469 0.04391 0.03761 0.0
H711 H 0.60368 0.98424 0.04553 0.0
H712 H 0.60309 0.96773 0.13035 0.0
H713 H 0.68843 0.98177 0.1102 0.0
C714 C 0.68878 0.01976 0.91944 0.0
C715 C 0.67206 0.02607 0.88736 0.0
C716 C 0.6451 0.02088 0.90359 0.0
C717 C 0.63469 0.00931 0.95035 0.0
C718 C 0.65156 1.00328 0.98095 0.0
C719 C 0.67817 0.00863 0.96673 0.0
C720 C 0.69225 1.00126 1.00832 0.0
C721 C 0.69832 0.97799 0.992 0.0
C722 C 0.71931 0.02721 0.02596 0.0
C723 C 0.66933 0.99098 0.04789 0.0
C724 C 0.64595 0.992 0.03071 0.0
C725 C 0.62187 0.9834 0.05959 0.0
C726 C 0.62175 0.9739 0.1078 0.0
C727 C 0.6457 0.97335 0.12724 0.0
C728 C 0.66978 0.9819 0.09655 0.0
H729 H 0.61962 0.62739 0.38051 0.0
H730 H 0.67355 0.71659 0.39721 0.0
H731 H 0.68634 0.70939 0.48222 0.0
H732 H 0.59522 0.61087 0.50856 0.0
H733 H 0.59696 0.57905 0.50912 0.0
H734 H 0.59013 0.59155 0.45178 0.0
H735 H 0.63281 0.59062 0.41091 0.0
H736 H 0.63988 0.57831 0.4682 0.0
H737 H 0.66715 0.60957 0.43943 0.0
H738 H 0.69271 0.69214 0.56584 0.0
H739 H 0.69495 0.66616 0.63913 0.0
H740 H 0.64089 0.58816 0.5635 0.0
C741 C 0.63367 0.64538 0.40259 0.0
C742 C 0.64521 0.67258 0.38308 0.0
C743 C 0.6643 0.69563 0.41204 0.0
C744 C 0.67165 0.69173 0.46021 0.0
C745 C 0.66018 0.66458 0.47828 0.0
C746 C 0.64183 0.64178 0.45014 0.0
C747 C 0.63412 0.61473 0.4767 0.0
C748 C 0.60222 0.59807 0.48716 0.0
C749 C 0.6441 0.59729 0.44704 0.0
C750 C 0.65086 0.62585 0.52426 0.0
C751 C 0.66542 0.65464 0.52481 0.0
C752 C 0.68155 0.66959 0.56565 0.0
C753 C 0.6827 0.65467 0.60708 0.0
C754 C 0.66827 0.62514 0.60693 0.0
C755 C 0.65239 0.61068 0.56466 0.0
H756 H 0.09437 0.60188 0.23833 0.0
H757 H 0.0211 0.5788 0.33194 0.0
H758 H 0.01575 0.53205 0.34379 0.0
H759 H 0.06463 0.53184 0.1794 0.0
H760 H 0.09893 0.53454 0.17463 0.0
H761 H 0.09568 0.56549 0.1719 0.0
H762 H 0.13175 0.5857 0.24142 0.0
H763 H 0.13364 0.55435 0.25125 0.0
H764 H 0.12381 0.56967 0.30164 0.0
H765 H 0.0177 0.4879 0.34463 0.0
H766 H 0.02592 0.44804 0.33206 0.0
H767 H 0.09915 0.49967 0.24128 0.0
C768 C 0.07708 0.58688 0.26098 0.0
C769 C 0.05821 0.59398 0.28444 0.0
C770 C 0.03573 0.57376 0.31348 0.0
C771 C 0.03258 0.5472 0.3206 0.0
C772 C 0.05184 0.54102 0.2978 0.0
C773 C 0.07328 0.56002 0.26771 0.0
C774 C 0.09063 0.54772 0.24659 0.0
C775 C 0.08725 0.54472 0.18977 0.0
C776 C 0.12183 0.56535 0.26114 0.0
C777 C 0.07651 0.51936 0.27171 0.0
C778 C 0.05378 0.5158 0.30018 0.0
C779 C 0.0357 0.49054 0.3232 0.0
C780 C 0.04056 0.4681 0.31609 0.0
C781 C 0.06381 0.47128 0.28765 0.0
C782 C 0.08209 0.49724 0.26528 0.0
H783 H 0.4661 0.02454 0.72704 0.0
H784 H 0.49007 0.09715 0.82009 0.0
H785 H 0.53679 0.10174 0.83339 0.0
H786 H 0.50703 0.99724 0.79534 0.0
H787 H 0.51787 0.98702 0.73946 0.0
H788 H 0.48465 0.98683 0.74116 0.0
H789 H 0.4997 0.01924 0.66424 0.0
H790 H 0.53294 0.01956 0.66235 0.0
H791 H 0.53235 0.05193 0.66588 0.0
H792 H 0.58086 0.10123 0.83327 0.0
H793 H 0.62283 0.09707 0.81708 0.0
H794 H 0.5738 0.02563 0.72143 0.0
C795 C 0.48113 0.04099 0.75088 0.0
C796 C 0.47455 0.06045 0.77288 0.0
C797 C 0.49479 0.08212 0.80292 0.0
C798 C 0.52132 0.08481 0.81094 0.0
C799 C 0.5275 0.06578 0.78829 0.0
C800 C 0.50825 0.04434 0.75865 0.0
C801 C 0.52176 0.02842 0.73577 0.0
C802 C 0.50694 0.99807 0.75403 0.0
C803 C 0.52168 0.02989 0.67867 0.0
C804 C 0.55162 0.04475 0.75648 0.0
C805 C 0.55401 0.0659 0.7872 0.0
C806 C 0.57931 0.08467 0.80955 0.0
C807 C 0.60311 0.08216 0.79984 0.0
C808 C 0.60171 0.0611 0.76782 0.0
C809 C 0.57545 0.04179 0.74638 0.0
H810 H 0.54195 0.56706 0.23078 0.0
H811 H 0.51321 0.61637 0.31278 0.0
H812 H 0.46662 0.57493 0.32367 0.0
H813 H 0.4819 0.52828 0.16433 0.0
H814 H 0.47929 0.4944 0.16755 0.0
H815 H 0.51322 0.52553 0.17141 0.0
H816 H 0.52524 0.51258 0.25525 0.0
H817 H 0.49288 0.47968 0.25187 0.0
H818 H 0.50013 0.50177 0.30557 0.0
H819 H 0.42313 0.52937 0.32483 0.0
H820 H 0.38344 0.48184 0.31113 0.0
H821 H 0.43808 0.46132 0.22501 0.0
C822 C 0.52599 0.56894 0.25181 0.0
C823 C 0.53129 0.59499 0.271 0.0
C824 C 0.50972 0.5967 0.29768 0.0
C825 C 0.48316 0.57324 0.3043 0.0
C826 C 0.47841 0.54805 0.28429 0.0
C827 C 0.49913 0.54556 0.25881 0.0
C828 C 0.48767 0.5161 0.23909 0.0
C829 C 0.49064 0.51604 0.18223 0.0
C830 C 0.50235 0.50168 0.26447 0.0
C831 C 0.45699 0.50303 0.25535 0.0
C832 C 0.45247 0.52173 0.28262 0.0
C833 C 0.42627 0.51459 0.30313 0.0
C834 C 0.40382 0.4877 0.29478 0.0
C835 C 0.40754 0.46858 0.26521 0.0
C836 C 0.43463 0.476 0.24647 0.0
H837 H 0.98356 0.5436 0.79598 0.0
H838 H 0.91191 0.52697 0.70321 0.0
H839 H 0.90388 0.47964 0.68592 0.0
H840 H 1.00684 0.50501 0.7121 0.0
H841 H 0.0199 0.49287 0.76229 0.0
H842 H 0.02055 0.52579 0.76754 0.0
H843 H 0.99063 0.50948 0.84974 0.0
H844 H 0.99296 0.4781 0.84456 0.0
H845 H 0.95905 0.47584 0.85005 0.0
H846 H 0.8998 0.43283 0.68762 0.0
H847 H 0.90375 0.39045 0.69826 0.0
H848 H 0.9811 0.43792 0.78227 0.0
C849 C 0.96618 0.52983 0.77221 0.0
C850 C 0.94727 0.5381 0.75308 0.0
C851 C 0.92561 0.52028 0.72022 0.0
C852 C 0.92111 0.49354 0.70978 0.0
C853 C 0.93916 0.48535 0.73111 0.0
C854 C 0.96171 0.5031 0.76064 0.0
C855 C 0.97862 0.48925 0.77669 0.0
C856 C 0.00823 0.50412 0.75325 0.0
C857 C 0.9804 0.48815 0.83363 0.0
C858 C 0.96078 0.46038 0.7546 0.0
C859 C 0.93826 0.45877 0.72816 0.0
C860 C 0.91766 0.43391 0.70725 0.0
C861 C 0.92002 0.40994 0.71368 0.0
C862 C 0.94289 0.41101 0.74052 0.0
C863 C 0.96374 0.43667 0.76064 0.0
H864 H 0.41488 0.92209 0.24915 0.0
H865 H 0.44448 0.01045 0.23077 0.0
H866 H 0.49388 0.02008 0.23555 0.0
H867 H 0.46763 0.92859 0.33598 0.0
H868 H 0.47075 0.90007 0.31004 0.0
H869 H 0.43786 0.90029 0.30528 0.0
H870 H 0.4387 0.89539 0.20953 0.0
H871 H 0.4716 0.89515 0.21398 0.0
H872 H 0.46904 0.92032 0.17477 0.0
H873 H 0.54011 0.01998 0.24441 0.0
H874 H 0.5795 0.01005 0.25376 0.0
H875 H 0.51934 0.92159 0.26364 0.0
C876 C 0.43173 0.94349 0.24618 0.0
C877 C 0.42586 0.96556 0.23974 0.0
C878 C 0.44851 0.99323 0.23568 0.0
C879 C 0.47662 0.9989 0.23841 0.0
C880 C 0.48167 0.97663 0.24483 0.0
C881 C 0.45985 0.94947 0.24838 0.0
C882 C 0.47089 0.92924 0.25461 0.0
C883 C 0.46121 0.91364 0.30444 0.0
C884 C 0.46203 0.90883 0.21059 0.0
C885 C 0.50237 0.94926 0.2543 0.0
C886 C 0.50819 0.97652 0.24881 0.0
C887 C 0.5358 0.99871 0.24848 0.0
C888 C 0.55802 0.99286 0.25388 0.0
C889 C 0.55249 0.96505 0.25922 0.0
C890 C 0.52426 0.94305 0.25926 0.0
H891 H 0.6028 0.51495 0.78848 0.0
H892 H 0.58363 0.56383 0.68564 0.0
H893 H 0.53553 0.52398 0.67397 0.0
H894 H 0.55884 0.44365 0.73488 0.0
H895 H 0.55037 0.43008 0.79678 0.0
H896 H 0.58325 0.46152 0.78535 0.0
H897 H 0.56506 0.48225 0.85673 0.0
H898 H 0.53106 0.45103 0.85858 0.0
H899 H 0.53338 0.48418 0.84577 0.0
H900 H 0.49001 0.47935 0.67294 0.0
H901 H 0.44931 0.43201 0.68236 0.0
H902 H 0.49648 0.41201 0.78897 0.0
C903 C 0.58857 0.51686 0.76268 0.0
C904 C 0.59702 0.54198 0.73649 0.0
C905 C 0.57756 0.54446 0.70507 0.0
C906 C 0.55027 0.52202 0.69834 0.0
C907 C 0.54244 0.49753 0.7247 0.0
C908 C 0.56085 0.49478 0.75657 0.0
C909 C 0.54603 0.46695 0.78356 0.0
C910 C 0.56063 0.44961 0.7746 0.0
C911 C 0.54375 0.47138 0.83947 0.0
C912 C 0.51727 0.45376 0.75887 0.0
C913 C 0.5155 0.47207 0.72594 0.0
C914 C 0.49113 0.4648 0.69859 0.0
C915 C 0.46813 0.43788 0.70423 0.0
C916 C 0.46984 0.41835 0.73616 0.0
C917 C 0.49467 0.42651 0.76412 0.0
H918 H 0.16468 0.41483 0.33265 0.0
H919 H 0.11567 0.36759 0.20499 0.0
H920 H 0.15221 0.35479 0.18539 0.0
H921 H 0.23011 0.44373 0.27621 0.0
H922 H 0.24883 0.44217 0.33025 0.0
H923 H 0.2172 0.44446 0.33765 0.0
H924 H 0.19512 0.39948 0.39117 0.0
H925 H 0.22677 0.39705 0.38384 0.0
H926 H 0.19303 0.36811 0.36645 0.0
H927 H 0.19761 0.35313 0.1728 0.0
H928 H 0.24697 0.36193 0.17036 0.0
H929 H 0.26462 0.40783 0.30841 0.0
C930 C 0.16124 0.4013 0.30113 0.0
C931 C 0.13717 0.39219 0.27047 0.0
C932 C 0.13377 0.3747 0.22933 0.0
C933 C 0.15444 0.3673 0.21789 0.0
C934 C 0.1782 0.37718 0.24832 0.0
C935 C 0.1815 0.39358 0.28943 0.0
C936 C 0.20978 0.40322 0.31424 0.0
C937 C 0.22751 0.43528 0.31457 0.0
C938 C 0.20594 0.39124 0.36706 0.0
C939 C 0.22232 0.39046 0.27982 0.0
C940 C 0.20379 0.37536 0.24209 0.0
C941 C 0.21196 0.3642 0.20294 0.0
C942 C 0.23991 0.36914 0.20187 0.0
C943 C 0.25907 0.38479 0.23997 0.0
C944 C 0.24997 0.39501 0.27979 0.0
H945 H 0.89635 0.22472 0.75808 0.0
H946 H 0.86111 0.27765 0.79912 0.0
H947 H 0.81395 0.23663 0.80388 0.0
H948 H 0.83861 0.17833 0.68038 0.0
H949 H 0.8395 0.14732 0.69871 0.0
H950 H 0.87131 0.18068 0.70048 0.0
H951 H 0.878 0.1731 0.79343 0.0
H952 H 0.84616 0.1397 0.79194 0.0
H953 H 0.84989 0.16557 0.83689 0.0
H954 H 0.77073 0.19133 0.80229 0.0
H955 H 0.73252 0.14316 0.79233 0.0
H956 H 0.79378 0.11762 0.75171 0.0
C957 C 0.87873 0.22763 0.76835 0.0
C958 C 0.88263 0.25458 0.77814 0.0
C959 C 0.85888 0.2574 0.79117 0.0
C960 C 0.8319 0.23416 0.79422 0.0
C961 C 0.82877 0.20806 0.78414 0.0
C962 C 0.85137 0.20449 0.77136 0.0
C963 C 0.84155 0.17394 0.76088 0.0
C964 C 0.84813 0.16983 0.7069 0.0
C965 C 0.85468 0.1624 0.79801 0.0
C966 C 0.80993 0.16114 0.76931 0.0
C967 C 0.80326 0.18136 0.78299 0.0
C968 C 0.77562 0.17524 0.79175 0.0
C969 C 0.75403 0.14773 0.78581 0.0
C970 C 0.76003 0.12647 0.77113 0.0
C971 C 0.7885 0.1333 0.76335 0.0
H972 H 0.67001 0.78344 0.24478 0.0
H973 H 0.58046 0.7273 0.26961 0.0
H974 H 0.57273 0.7674 0.2772 0.0
H975 H 0.67664 0.83687 0.33136 0.0
H976 H 0.70101 0.86538 0.29283 0.0
H977 H 0.69995 0.83223 0.28961 0.0
H978 H 0.69123 0.83033 0.19465 0.0
H979 H 0.69224 0.86345 0.19759 0.0
H980 H 0.66192 0.83361 0.17147 0.0
H981 H 0.57397 0.81302 0.28111 0.0
H982 H 0.58446 0.86185 0.28236 0.0
H983 H 0.67316 0.88928 0.25573 0.0
C984 C 0.6488 0.77957 0.25202 0.0
C985 C 0.6259 0.75203 0.25658 0.0
C986 C 0.59846 0.74804 0.2659 0.0
C987 C 0.59377 0.77073 0.27031 0.0
C988 C 0.61668 0.79746 0.26542 0.0
C989 C 0.64368 0.80209 0.25663 0.0
C990 C 0.66448 0.83308 0.25281 0.0
C991 C 0.68684 0.84244 0.29412 0.0
C992 C 0.67828 0.84055 0.20105 0.0
C993 C 0.64487 0.84502 0.26069 0.0
C994 C 0.61741 0.82404 0.26786 0.0
C995 C 0.59542 0.82968 0.27563 0.0
C996 C 0.60162 0.85756 0.27624 0.0
C997 C 0.62964 0.87958 0.26915 0.0
C998 C 0.6515 0.87304 0.26127 0.0
H999 H 0.85351 0.58617 0.71716 0.0
H1000 H 0.89544 0.64983 0.82918 0.0
H1001 H 0.85611 0.66061 0.82598 0.0
H1002 H 0.8218 0.62148 0.64576 0.0
H1003 H 0.79007 0.58893 0.634 0.0
H1004 H 0.8234 0.58968 0.64049 0.0
H1005 H 0.80207 0.55257 0.71037 0.0
H1006 H 0.76883 0.55185 0.70441 0.0
H1007 H 0.7863 0.55925 0.76386 0.0
H1008 H 0.8082 0.6593 0.81766 0.0
H1009 H 0.75858 0.64759 0.80301 0.0
H1010 H 0.74963 0.58473 0.69605 0.0
C1011 C 0.8547 0.60279 0.7402 0.0
C1012 C 0.87743 0.61731 0.77318 0.0
C1013 C 0.87832 0.63884 0.80305 0.0
C1014 C 0.85603 0.64496 0.80158 0.0
C1015 C 0.8333 0.62949 0.76965 0.0
C1016 C 0.83282 0.6091 0.739 0.0
C1017 C 0.80537 0.59391 0.71063 0.0
C1018 C 0.81047 0.59881 0.65438 0.0
C1019 C 0.78974 0.56256 0.72309 0.0
C1020 C 0.78996 0.60826 0.73104 0.0
C1021 C 0.80631 0.62888 0.76475 0.0
C1022 C 0.79546 0.64352 0.79066 0.0
C1023 C 0.76721 0.6367 0.78214 0.0
C1024 C 0.75007 0.61533 0.74813 0.0
C1025 C 0.76202 0.6014 0.7219 0.0
H1026 H 0.22918 0.89127 0.25728 0.0
H1027 H 0.29106 0.86317 0.25887 0.0
H1028 H 0.25257 0.81439 0.26205 0.0
H1029 H 0.17917 0.83861 0.3414 0.0
H1030 H 0.14875 0.83496 0.30832 0.0
H1031 H 0.18124 0.86775 0.30745 0.0
H1032 H 0.18101 0.86681 0.2111 0.0
H1033 H 0.14862 0.83393 0.21168 0.0
H1034 H 0.17908 0.83715 0.1792 0.0
H1035 H 0.20735 0.76849 0.26334 0.0
H1036 H 0.15872 0.7289 0.26589 0.0
H1037 H 0.12617 0.78677 0.26306 0.0
C1038 C 0.23473 0.87493 0.25879 0.0
C1039 C 0.2633 0.88124 0.25792 0.0
C1040 C 0.26944 0.85904 0.25954 0.0
C1041 C 0.24769 0.8312 0.26127 0.0
C1042 C 0.21983 0.82576 0.26136 0.0
C1043 C 0.21328 0.84699 0.26044 0.0
C1044 C 0.18157 0.83544 0.26042 0.0
C1045 C 0.17213 0.84475 0.30719 0.0
C1046 C 0.17202 0.84384 0.21276 0.0
C1047 C 0.17133 0.80441 0.26143 0.0
C1048 C 0.19375 0.79928 0.2619 0.0
C1049 C 0.18962 0.77226 0.26305 0.0
C1050 C 0.16185 0.74987 0.2644 0.0
C1051 C 0.13845 0.75456 0.26458 0.0
C1052 C 0.14346 0.78232 0.26267 0.0
H1053 H 0.34249 0.22492 0.75247 0.0
H1054 H 0.43267 0.28201 0.76527 0.0
H1055 H 0.44111 0.24214 0.77007 0.0
H1056 H 0.33985 0.17156 0.83638 0.0
H1057 H 0.31409 0.14305 0.79952 0.0
H1058 H 0.31475 0.17606 0.79943 0.0
H1059 H 0.31948 0.17824 0.70347 0.0
H1060 H 0.31895 0.1453 0.70327 0.0
H1061 H 0.34793 0.17542 0.6748 0.0
H1062 H 0.44038 0.19676 0.77031 0.0
H1063 H 0.43061 0.1483 0.76807 0.0
H1064 H 0.34077 0.11954 0.75475 0.0
C1065 C 0.364 0.22908 0.75686 0.0
C1066 C 0.38691 0.25678 0.75852 0.0
C1067 C 0.41472 0.26113 0.76384 0.0
C1068 C 0.41977 0.23858 0.76662 0.0
C1069 C 0.39682 0.21168 0.76405 0.0
C1070 C 0.36947 0.20675 0.75951 0.0
C1071 C 0.34874 0.17567 0.75634 0.0
C1072 C 0.32814 0.16602 0.80056 0.0
C1073 C 0.33284 0.16823 0.7065 0.0
C1074 C 0.3688 0.16399 0.75949 0.0
C1075 C 0.3964 0.18522 0.76401 0.0
C1076 C 0.41884 0.17993 0.767 0.0
C1077 C 0.41299 0.1522 0.7656 0.0
C1078 C 0.38487 0.12987 0.76121 0.0
C1079 C 0.3625 0.13601 0.75808 0.0
loop_
_geom_bond_atom_site_label_1
_geom_bond_atom_site_label_2
_geom_bond_distance
_geom_bond_site_symmetry_2
_ccdc_geom_bond_type
Mn0 O5 2.095 . S
Mn0 O15 2.162 . S
Mn0 O16 2.297 . S
Mn0 O24 2.385 . S
Mn0 O25 2.209 . S
Mn0 O26 2.094 . S
Mn1 O6 2.121 . S
Mn1 N8 2.257 . S
Mn1 N17 2.282 . S
Mn1 O25 2.215 . S
Mn1 O27 2.117 . S
C2 O24 1.234 . S
C2 O25 1.283 . S
C3 O15 1.281 . S
C3 O16 1.236 . S
C4 O26 1.240 . S
C4 O27 1.264 . S
O5 Mn0 2.095 . S
O5 C14 1.250 . S
O6 Mn1 2.121 . S
O6 C14 1.258 . S
C7 N8 1.326 . S
C7 C11 1.460 . S
C7 H13 0.929 . S
N8 Mn1 2.257 . S
N8 C7 1.326 . S
N8 C12 1.362 . S
C9 C10 1.258 . S
C9 C12 1.431 . S
C9 C29 1.449 . S
C10 C9 1.258 . S
C10 C11 1.477 . S
C10 H30 0.931 . S
C11 C7 1.460 . S
C11 C10 1.477 . S
C11 H31 0.930 . S
C12 N8 1.362 . S
C12 C9 1.431 . S
C12 C22 1.476 . S
H13 C7 0.929 . S
C14 O5 1.250 . S
C14 O6 1.258 . S
O15 Mn0 2.162 . S
O15 C3 1.281 . S
O16 Mn0 2.297 . S
O16 C3 1.236 . S
N17 Mn1 2.282 . S
N17 C18 1.328 . S
N17 C22 1.318 . S
C18 N17 1.328 . S
C18 C19 1.457 . S
C18 H23 0.929 . S
C19 C18 1.457 . S
C19 C20 1.291 . S
C19 H32 0.931 . S
C20 C19 1.291 . S
C20 C21 1.373 . S
C20 H33 0.929 . S
C21 C20 1.373 . S
C21 C22 1.396 . S
C21 C28 1.403 . S
C22 C12 1.476 . S
C22 N17 1.318 . S
C22 C21 1.396 . S
H23 C18 0.929 . S
O24 Mn0 2.385 . S
O24 C2 1.234 . S
O25 Mn0 2.209 . S
O25 Mn1 2.215 . S
O25 C2 1.283 . S
O26 Mn0 2.094 . S
O26 C4 1.240 . S
O27 Mn1 2.117 . S
O27 C4 1.264 . S
C28 C21 1.403 . S
C28 C29 1.399 . S
C28 H34 0.929 . S
C29 C9 1.449 . S
C29 C28 1.399 . S
C29 H35 0.930 . S
H30 C10 0.931 . S
H31 C11 0.930 . S
H32 C19 0.931 . S
H33 C20 0.929 . S
H34 C28 0.929 . S
H35 C29 0.930 . S
Mn36 O41 2.095 . S
Mn36 O51 2.162 . S
Mn36 O52 2.297 . S
Mn36 O60 2.385 . S
Mn36 O61 2.209 . S
Mn36 O62 2.094 . S
Mn37 O42 2.121 . S
Mn37 N44 2.257 1_545 S
Mn37 N53 2.282 . S
Mn37 O61 2.215 . S
Mn37 O63 2.117 . S
C38 O60 1.234 . S
C38 O61 1.283 . S
C39 O51 1.281 . S
C39 O52 1.236 . S
C40 O62 1.240 . S
C40 O63 1.264 . S
O41 Mn36 2.095 . S
O41 C50 1.250 . S
O42 Mn37 2.121 . S
O42 C50 1.258 . S
C43 N44 1.326 . S
C43 C47 1.460 . S
C43 H49 0.929 . S
N44 Mn37 2.257 1_565 S
N44 C43 1.326 . S
N44 C48 1.362 . S
C45 C46 1.258 . S
C45 C48 1.431 . S
C45 C65 1.449 . S
C46 C45 1.258 . S
C46 C47 1.477 . S
C46 H66 0.931 . S
C47 C43 1.460 . S
C47 C46 1.477 . S
C47 H67 0.930 . S
C48 N44 1.362 . S
C48 C45 1.431 . S
C48 C58 1.476 1_565 S
H49 C43 0.929 . S
C50 O41 1.250 . S
C50 O42 1.258 . S
O51 Mn36 2.162 . S
O51 C39 1.281 . S
O52 Mn36 2.297 . S
O52 C39 1.236 . S
N53 Mn37 2.282 . S
N53 C54 1.328 . S
N53 C58 1.318 . S
C54 N53 1.328 . S
C54 C55 1.457 . S
C54 H59 0.929 . S
C55 C54 1.457 . S
C55 C56 1.291 . S
C55 H68 0.931 . S
C56 C55 1.291 . S
C56 C57 1.373 . S
C56 H69 0.929 . S
C57 C56 1.373 . S
C57 C58 1.396 . S
C57 C64 1.403 1_545 S
C58 C48 1.476 1_545 S
C58 N53 1.318 . S
C58 C57 1.396 . S
H59 C54 0.929 . S
O60 Mn36 2.385 . S
O60 C38 1.234 . S
O61 Mn36 2.209 . S
O61 Mn37 2.215 . S
O61 C38 1.283 . S
O62 Mn36 2.094 . S
O62 C40 1.240 . S
O63 Mn37 2.117 . S
O63 C40 1.264 . S
C64 C57 1.403 1_565 S
C64 C65 1.399 . S
C64 H70 0.929 . S
C65 C45 1.449 . S
C65 C64 1.399 . S
C65 H71 0.930 . S
H66 C46 0.931 . S
H67 C47 0.930 . S
H68 C55 0.931 . S
H69 C56 0.929 . S
H70 C64 0.929 . S
H71 C65 0.930 . S
Mn72 O77 2.095 . S
Mn72 O87 2.162 . S
Mn72 O88 2.297 . S
Mn72 O96 2.385 . S
Mn72 O97 2.209 . S
Mn72 O98 2.094 . S
Mn73 O78 2.121 . S
Mn73 N80 2.257 . S
Mn73 N89 2.282 . S
Mn73 O97 2.215 . S
Mn73 O99 2.117 . S
C74 O96 1.234 . S
C74 O97 1.283 . S
C75 O87 1.281 . S
C75 O88 1.236 . S
C76 O98 1.240 . S
C76 O99 1.264 . S
O77 Mn72 2.095 . S
O77 C86 1.250 . S
O78 Mn73 2.121 . S
O78 C86 1.258 . S
C79 N80 1.326 . S
C79 C83 1.460 . S
C79 H85 0.929 . S
N80 Mn73 2.257 . S
N80 C79 1.326 . S
N80 C84 1.362 . S
C81 C82 1.258 . S
C81 C84 1.431 . S
C81 C101 1.449 . S
C82 C81 1.258 . S
C82 C83 1.477 . S
C82 H102 0.931 . S
C83 C79 1.460 . S
C83 C82 1.477 . S
C83 H103 0.930 . S
C84 N80 1.362 . S
C84 C81 1.431 . S
C84 C94 1.476 . S
H85 C79 0.929 . S
C86 O77 1.250 . S
C86 O78 1.258 . S
O87 Mn72 2.162 . S
O87 C75 1.281 . S
O88 Mn72 2.297 . S
O88 C75 1.236 . S
N89 Mn73 2.282 . S
N89 C90 1.328 . S
N89 C94 1.318 . S
C90 N89 1.328 . S
C90 C91 1.457 . S
C90 H95 0.929 . S
C91 C90 1.457 . S
C91 C92 1.291 . S
C91 H104 0.931 . S
C92 C91 1.291 . S
C92 C93 1.373 . S
C92 H105 0.929 . S
C93 C92 1.373 . S
C93 C94 1.396 . S
C93 C100 1.403 . S
C94 C84 1.476 . S
C94 N89 1.318 . S
C94 C93 1.396 . S
H95 C90 0.929 . S
O96 Mn72 2.385 . S
O96 C74 1.234 . S
O97 Mn72 2.209 . S
O97 Mn73 2.215 . S
O97 C74 1.283 . S
O98 Mn72 2.094 . S
O98 C76 1.240 . S
O99 Mn73 2.117 . S
O99 C76 1.264 . S
C100 C93 1.403 . S
C100 C101 1.399 . S
C100 H106 0.929 . S
C101 C81 1.449 . S
C101 C100 1.399 . S
C101 H107 0.930 . S
H102 C82 0.931 . S
H103 C83 0.930 . S
H104 C91 0.931 . S
H105 C92 0.929 . S
H106 C100 0.929 . S
H107 C101 0.930 . S
Mn108 O113 2.095 . S
Mn108 O123 2.162 . S
Mn108 O124 2.297 . S
Mn108 O132 2.385 . S
Mn108 O133 2.209 . S
Mn108 O134 2.094 . S
Mn109 O114 2.121 . S
Mn109 N116 2.257 . S
Mn109 N125 2.282 . S
Mn109 O133 2.215 . S
Mn109 O135 2.117 . S
C110 O132 1.234 . S
C110 O133 1.283 . S
C111 O123 1.281 . S
C111 O124 1.236 . S
C112 O134 1.240 . S
C112 O135 1.264 . S
O113 Mn108 2.095 . S
O113 C122 1.250 . S
O114 Mn109 2.121 . S
O114 C122 1.258 . S
C115 N116 1.326 . S
C115 C119 1.460 . S
C115 H121 0.929 . S
N116 Mn109 2.257 . S
N116 C115 1.326 . S
N116 C120 1.362 . S
C117 C118 1.258 . S
C117 C120 1.431 . S
C117 C137 1.449 . S
C118 C117 1.258 . S
C118 C119 1.477 . S
C118 H138 0.931 . S
C119 C115 1.460 . S
C119 C118 1.477 . S
C119 H139 0.930 . S
C120 N116 1.362 . S
C120 C117 1.431 . S
C120 C130 1.476 . S
H121 C115 0.929 . S
C122 O113 1.250 . S
C122 O114 1.258 . S
O123 Mn108 2.162 . S
O123 C111 1.281 . S
O124 Mn108 2.297 . S
O124 C111 1.236 . S
N125 Mn109 2.282 . S
N125 C126 1.328 . S
N125 C130 1.318 . S
C126 N125 1.328 . S
C126 C127 1.457 . S
C126 H131 0.929 . S
C127 C126 1.457 . S
C127 C128 1.291 . S
C127 H140 0.931 . S
C128 C127 1.291 . S
C128 C129 1.373 . S
C128 H141 0.929 . S
C129 C128 1.373 . S
C129 C130 1.396 . S
C129 C136 1.403 . S
C130 C120 1.476 . S
C130 N125 1.318 . S
C130 C129 1.396 . S
H131 C126 0.929 . S
O132 Mn108 2.385 . S
O132 C110 1.234 . S
O133 Mn108 2.209 . S
O133 Mn109 2.215 . S
O133 C110 1.283 . S
O134 Mn108 2.094 . S
O134 C112 1.240 . S
O135 Mn109 2.117 . S
O135 C112 1.264 . S
C136 C129 1.403 . S
C136 C137 1.399 . S
C136 H142 0.929 . S
C137 C117 1.449 . S
C137 C136 1.399 . S
C137 H143 0.930 . S
H138 C118 0.931 . S
H139 C119 0.930 . S
H140 C127 0.931 . S
H141 C128 0.929 . S
H142 C136 0.929 . S
H143 C137 0.930 . S
Mn144 O149 2.095 . S
Mn144 O159 2.162 . S
Mn144 O160 2.297 . S
Mn144 O168 2.385 . S
Mn144 O169 2.209 . S
Mn144 O170 2.094 . S
Mn145 O150 2.121 . S
Mn145 N152 2.257 1_565 S
Mn145 N161 2.282 . S
Mn145 O169 2.215 . S
Mn145 O171 2.117 . S
C146 O168 1.234 . S
C146 O169 1.283 . S
C147 O159 1.281 . S
C147 O160 1.236 . S
C148 O170 1.240 . S
C148 O171 1.264 . S
O149 Mn144 2.095 . S
O149 C158 1.250 . S
O150 Mn145 2.121 . S
O150 C158 1.258 . S
C151 N152 1.326 . S
C151 C155 1.460 . S
C151 H157 0.929 . S
N152 Mn145 2.257 1_545 S
N152 C151 1.326 . S
N152 C156 1.362 . S
C153 C154 1.258 . S
C153 C156 1.431 . S
C153 C173 1.449 . S
C154 C153 1.258 . S
C154 C155 1.477 . S
C154 H174 0.931 . S
C155 C151 1.460 . S
C155 C154 1.477 . S
C155 H175 0.930 . S
C156 N152 1.362 . S
C156 C153 1.431 . S
C156 C166 1.476 1_545 S
H157 C151 0.929 . S
C158 O149 1.250 . S
C158 O150 1.258 . S
O159 Mn144 2.162 . S
O159 C147 1.281 . S
O160 Mn144 2.297 . S
O160 C147 1.236 . S
N161 Mn145 2.282 . S
N161 C162 1.328 . S
N161 C166 1.318 . S
C162 N161 1.328 . S
C162 C163 1.457 . S
C162 H167 0.929 . S
C163 C162 1.457 . S
C163 C164 1.291 . S
C163 H176 0.931 . S
C164 C163 1.291 . S
C164 C165 1.373 . S
C164 H177 0.929 . S
C165 C164 1.373 . S
C165 C166 1.396 . S
C165 C172 1.403 1_565 S
C166 C156 1.476 1_565 S
C166 N161 1.318 . S
C166 C165 1.396 . S
H167 C162 0.929 . S
O168 Mn144 2.385 . S
O168 C146 1.234 . S
O169 Mn144 2.209 . S
O169 Mn145 2.215 . S
O169 C146 1.283 . S
O170 Mn144 2.094 . S
O170 C148 1.240 . S
O171 Mn145 2.117 . S
O171 C148 1.264 . S
C172 C165 1.403 1_545 S
C172 C173 1.399 . S
C172 H178 0.929 . S
C173 C153 1.449 . S
C173 C172 1.399 . S
C173 H179 0.930 . S
H174 C154 0.931 . S
H175 C155 0.930 . S
H176 C163 0.931 . S
H177 C164 0.929 . S
H178 C172 0.929 . S
H179 C173 0.930 . S
Mn180 O185 2.095 . S
Mn180 O195 2.162 . S
Mn180 O196 2.297 . S
Mn180 O204 2.385 . S
Mn180 O205 2.209 . S
Mn180 O206 2.094 . S
Mn181 O186 2.121 . S
Mn181 N188 2.257 . S
Mn181 N197 2.282 . S
Mn181 O205 2.215 . S
Mn181 O207 2.117 . S
C182 O204 1.234 . S
C182 O205 1.283 . S
C183 O195 1.281 . S
C183 O196 1.236 . S
C184 O206 1.240 . S
C184 O207 1.264 . S
O185 Mn180 2.095 . S
O185 C194 1.250 . S
O186 Mn181 2.121 . S
O186 C194 1.258 . S
C187 N188 1.326 . S
C187 C191 1.460 . S
C187 H193 0.929 . S
N188 Mn181 2.257 . S
N188 C187 1.326 . S
N188 C192 1.362 . S
C189 C190 1.258 . S
C189 C192 1.431 . S
C189 C209 1.449 . S
C190 C189 1.258 . S
C190 C191 1.477 . S
C190 H210 0.931 . S
C191 C187 1.460 . S
C191 C190 1.477 . S
C191 H211 0.930 . S
C192 N188 1.362 . S
C192 C189 1.431 . S
C192 C202 1.476 . S
H193 C187 0.929 . S
C194 O185 1.250 . S
C194 O186 1.258 . S
O195 Mn180 2.162 . S
O195 C183 1.281 . S
O196 Mn180 2.297 . S
O196 C183 1.236 . S
N197 Mn181 2.282 . S
N197 C198 1.328 . S
N197 C202 1.318 . S
C198 N197 1.328 . S
C198 C199 1.457 . S
C198 H203 0.929 . S
C199 C198 1.457 . S
C199 C200 1.291 . S
C199 H212 0.931 . S
C200 C199 1.291 . S
C200 C201 1.373 . S
C200 H213 0.929 . S
C201 C200 1.373 . S
C201 C202 1.396 . S
C201 C208 1.403 . S
C202 C192 1.476 . S
C202 N197 1.318 . S
C202 C201 1.396 . S
H203 C198 0.929 . S
O204 Mn180 2.385 . S
O204 C182 1.234 . S
O205 Mn180 2.209 . S
O205 Mn181 2.215 . S
O205 C182 1.283 . S
O206 Mn180 2.094 . S
O206 C184 1.240 . S
O207 Mn181 2.117 . S
O207 C184 1.264 . S
C208 C201 1.403 . S
C208 C209 1.399 . S
C208 H214 0.929 . S
C209 C189 1.449 . S
C209 C208 1.399 . S
C209 H215 0.930 . S
H210 C190 0.931 . S
H211 C191 0.930 . S
H212 C199 0.931 . S
H213 C200 0.929 . S
H214 C208 0.929 . S
H215 C209 0.930 . S
Mn216 O221 2.095 . S
Mn216 O231 2.162 . S
Mn216 O232 2.297 . S
Mn216 O240 2.385 . S
Mn216 O241 2.209 . S
Mn216 O242 2.094 . S
Mn217 O222 2.121 . S
Mn217 N224 2.257 1_565 S
Mn217 N233 2.282 . S
Mn217 O241 2.215 . S
Mn217 O243 2.117 . S
C218 O240 1.234 . S
C218 O241 1.283 . S
C219 O231 1.281 . S
C219 O232 1.236 . S
C220 O242 1.240 . S
C220 O243 1.264 . S
O221 Mn216 2.095 . S
O221 C230 1.250 . S
O222 Mn217 2.121 . S
O222 C230 1.258 . S
C223 N224 1.326 . S
C223 C227 1.460 . S
C223 H229 0.929 . S
N224 Mn217 2.257 1_545 S
N224 C223 1.326 . S
N224 C228 1.362 . S
C225 C226 1.258 . S
C225 C228 1.431 . S
C225 C245 1.449 . S
C226 C225 1.258 . S
C226 C227 1.477 . S
C226 H246 0.931 . S
C227 C223 1.460 . S
C227 C226 1.477 . S
C227 H247 0.930 . S
C228 N224 1.362 . S
C228 C225 1.431 . S
C228 C238 1.476 1_545 S
H229 C223 0.929 . S
C230 O221 1.250 . S
C230 O222 1.258 . S
O231 Mn216 2.162 . S
O231 C219 1.281 . S
O232 Mn216 2.297 . S
O232 C219 1.236 . S
N233 Mn217 2.282 . S
N233 C234 1.328 . S
N233 C238 1.318 . S
C234 N233 1.328 . S
C234 C235 1.457 . S
C234 H239 0.929 . S
C235 C234 1.457 . S
C235 C236 1.291 . S
C235 H248 0.931 . S
C236 C235 1.291 . S
C236 C237 1.373 . S
C236 H249 0.929 . S
C237 C236 1.373 . S
C237 C238 1.396 . S
C237 C244 1.403 1_565 S
C238 C228 1.476 1_565 S
C238 N233 1.318 . S
C238 C237 1.396 . S
H239 C234 0.929 . S
O240 Mn216 2.385 . S
O240 C218 1.234 . S
O241 Mn216 2.209 . S
O241 Mn217 2.215 . S
O241 C218 1.283 . S
O242 Mn216 2.094 . S
O242 C220 1.240 . S
O243 Mn217 2.117 . S
O243 C220 1.264 . S
C244 C237 1.403 1_545 S
C244 C245 1.399 . S
C244 H250 0.929 . S
C245 C225 1.449 . S
C245 C244 1.399 . S
C245 H251 0.930 . S
H246 C226 0.931 . S
H247 C227 0.930 . S
H248 C235 0.931 . S
H249 C236 0.929 . S
H250 C244 0.929 . S
H251 C245 0.930 . S
Mn252 O257 2.095 . S
Mn252 O267 2.162 . S
Mn252 O268 2.297 . S
Mn252 O276 2.385 . S
Mn252 O277 2.209 . S
Mn252 O278 2.094 . S
Mn253 O258 2.121 . S
Mn253 N260 2.257 . S
Mn253 N269 2.282 . S
Mn253 O277 2.215 . S
Mn253 O279 2.117 . S
C254 O276 1.234 . S
C254 O277 1.283 . S
C255 O267 1.281 . S
C255 O268 1.236 . S
C256 O278 1.240 . S
C256 O279 1.264 . S
O257 Mn252 2.095 . S
O257 C266 1.250 . S
O258 Mn253 2.121 . S
O258 C266 1.258 . S
C259 N260 1.326 . S
C259 C263 1.460 . S
C259 H265 0.929 . S
N260 Mn253 2.257 . S
N260 C259 1.326 . S
N260 C264 1.362 . S
C261 C262 1.258 . S
C261 C264 1.431 . S
C261 C281 1.449 . S
C262 C261 1.258 . S
C262 C263 1.477 . S
C262 H282 0.931 . S
C263 C259 1.460 . S
C263 C262 1.477 . S
C263 H283 0.930 . S
C264 N260 1.362 . S
C264 C261 1.431 . S
C264 C274 1.476 . S
H265 C259 0.929 . S
C266 O257 1.250 . S
C266 O258 1.258 . S
O267 Mn252 2.162 . S
O267 C255 1.281 . S
O268 Mn252 2.297 . S
O268 C255 1.236 . S
N269 Mn253 2.282 . S
N269 C270 1.328 . S
N269 C274 1.318 . S
C270 N269 1.328 . S
C270 C271 1.457 . S
C270 H275 0.929 . S
C271 C270 1.457 . S
C271 C272 1.291 . S
C271 H284 0.931 . S
C272 C271 1.291 . S
C272 C273 1.373 . S
C272 H285 0.929 . S
C273 C272 1.373 . S
C273 C274 1.396 . S
C273 C280 1.403 . S
C274 C264 1.476 . S
C274 N269 1.318 . S
C274 C273 1.396 . S
H275 C270 0.929 . S
O276 Mn252 2.385 . S
O276 C254 1.234 . S
O277 Mn252 2.209 . S
O277 Mn253 2.215 . S
O277 C254 1.283 . S
O278 Mn252 2.094 . S
O278 C256 1.240 . S
O279 Mn253 2.117 . S
O279 C256 1.264 . S
C280 C273 1.403 . S
C280 C281 1.399 . S
C280 H286 0.929 . S
C281 C261 1.449 . S
C281 C280 1.399 . S
C281 H287 0.930 . S
H282 C262 0.931 . S
H283 C263 0.930 . S
H284 C271 0.931 . S
H285 C272 0.929 . S
H286 C280 0.929 . S
H287 C281 0.930 . S
Mn288 O293 2.095 . S
Mn288 O303 2.162 . S
Mn288 O304 2.297 . S
Mn288 O312 2.385 . S
Mn288 O313 2.209 . S
Mn288 O314 2.094 . S
Mn289 O294 2.121 . S
Mn289 N296 2.257 1_455 S
Mn289 N305 2.282 . S
Mn289 O313 2.215 . S
Mn289 O315 2.117 . S
C290 O312 1.234 . S
C290 O313 1.283 . S
C291 O303 1.281 . S
C291 O304 1.236 . S
C292 O314 1.240 . S
C292 O315 1.264 . S
O293 Mn288 2.095 . S
O293 C302 1.250 . S
O294 Mn289 2.121 . S
O294 C302 1.258 . S
C295 N296 1.326 . S
C295 C299 1.460 . S
C295 H301 0.929 . S
N296 Mn289 2.257 1_655 S
N296 C295 1.326 . S
N296 C300 1.362 . S
C297 C298 1.258 . S
C297 C300 1.431 . S
C297 C317 1.449 . S
C298 C297 1.258 . S
C298 C299 1.477 . S
C298 H318 0.931 . S
C299 C295 1.460 . S
C299 C298 1.477 . S
C299 H319 0.930 . S
C300 N296 1.362 . S
C300 C297 1.431 . S
C300 C310 1.476 1_655 S
H301 C295 0.929 . S
C302 O293 1.250 . S
C302 O294 1.258 . S
O303 Mn288 2.162 . S
O303 C291 1.281 . S
O304 Mn288 2.297 . S
O304 C291 1.236 . S
N305 Mn289 2.282 . S
N305 C306 1.328 . S
N305 C310 1.318 . S
C306 N305 1.328 . S
C306 C307 1.457 . S
C306 H311 0.929 . S
C307 C306 1.457 . S
C307 C308 1.291 . S
C307 H320 0.931 . S
C308 C307 1.291 . S
C308 C309 1.373 . S
C308 H321 0.929 . S
C309 C308 1.373 . S
C309 C310 1.396 . S
C309 C316 1.403 1_455 S
C310 C300 1.476 1_455 S
C310 N305 1.318 . S
C310 C309 1.396 . S
H311 C306 0.929 . S
O312 Mn288 2.385 . S
O312 C290 1.234 . S
O313 Mn288 2.209 . S
O313 Mn289 2.215 . S
O313 C290 1.283 . S
O314 Mn288 2.094 . S
O314 C292 1.240 . S
O315 Mn289 2.117 . S
O315 C292 1.264 . S
C316 C309 1.403 1_655 S
C316 C317 1.399 . S
C316 H322 0.929 . S
C317 C297 1.449 . S
C317 C316 1.399 . S
C317 H323 0.930 . S
H318 C298 0.931 . S
H319 C299 0.930 . S
H320 C307 0.931 . S
H321 C308 0.929 . S
H322 C316 0.929 . S
H323 C317 0.930 . S
Mn324 O329 2.095 . S
Mn324 O339 2.162 . S
Mn324 O340 2.297 . S
Mn324 O348 2.385 . S
Mn324 O349 2.209 . S
Mn324 O350 2.094 . S
Mn325 O330 2.121 . S
Mn325 N332 2.257 1_545 S
Mn325 N341 2.282 . S
Mn325 O349 2.215 . S
Mn325 O351 2.117 . S
C326 O348 1.234 . S
C326 O349 1.283 . S
C327 O339 1.281 . S
C327 O340 1.236 . S
C328 O350 1.240 . S
C328 O351 1.264 . S
O329 Mn324 2.095 . S
O329 C338 1.250 . S
O330 Mn325 2.121 . S
O330 C338 1.258 . S
C331 N332 1.326 . S
C331 C335 1.460 . S
C331 H337 0.929 . S
N332 Mn325 2.257 1_565 S
N332 C331 1.326 . S
N332 C336 1.362 . S
C333 C334 1.258 . S
C333 C336 1.431 . S
C333 C353 1.449 . S
C334 C333 1.258 . S
C334 C335 1.477 . S
C334 H354 0.931 . S
C335 C331 1.460 . S
C335 C334 1.477 . S
C335 H355 0.930 . S
C336 N332 1.362 . S
C336 C333 1.431 . S
C336 C346 1.476 1_565 S
H337 C331 0.929 . S
C338 O329 1.250 . S
C338 O330 1.258 . S
O339 Mn324 2.162 . S
O339 C327 1.281 . S
O340 Mn324 2.297 . S
O340 C327 1.236 . S
N341 Mn325 2.282 . S
N341 C342 1.328 . S
N341 C346 1.318 . S
C342 N341 1.328 . S
C342 C343 1.457 . S
C342 H347 0.929 . S
C343 C342 1.457 . S
C343 C344 1.291 . S
C343 H356 0.931 . S
C344 C343 1.291 . S
C344 C345 1.373 . S
C344 H357 0.929 . S
C345 C344 1.373 . S
C345 C346 1.396 . S
C345 C352 1.403 1_545 S
C346 C336 1.476 1_545 S
C346 N341 1.318 . S
C346 C345 1.396 . S
H347 C342 0.929 . S
O348 Mn324 2.385 . S
O348 C326 1.234 . S
O349 Mn324 2.209 . S
O349 Mn325 2.215 . S
O349 C326 1.283 . S
O350 Mn324 2.094 . S
O350 C328 1.240 . S
O351 Mn325 2.117 . S
O351 C328 1.264 . S
C352 C345 1.403 1_565 S
C352 C353 1.399 . S
C352 H358 0.929 . S
C353 C333 1.449 . S
C353 C352 1.399 . S
C353 H359 0.930 . S
H354 C334 0.931 . S
H355 C335 0.930 . S
H356 C343 0.931 . S
H357 C344 0.929 . S
H358 C352 0.929 . S
H359 C353 0.930 . S
Mn360 O365 2.095 . S
Mn360 O375 2.162 . S
Mn360 O376 2.297 . S
Mn360 O384 2.385 . S
Mn360 O385 2.209 . S
Mn360 O386 2.094 . S
Mn361 O366 2.121 . S
Mn361 N368 2.257 . S
Mn361 N377 2.282 . S
Mn361 O385 2.215 . S
Mn361 O387 2.117 . S
C362 O384 1.234 . S
C362 O385 1.283 . S
C363 O375 1.281 . S
C363 O376 1.236 . S
C364 O386 1.240 . S
C364 O387 1.264 . S
O365 Mn360 2.095 . S
O365 C374 1.250 . S
O366 Mn361 2.121 . S
O366 C374 1.258 . S
C367 N368 1.326 . S
C367 C371 1.460 . S
C367 H373 0.929 . S
N368 Mn361 2.257 . S
N368 C367 1.326 . S
N368 C372 1.362 . S
C369 C370 1.258 . S
C369 C372 1.431 . S
C369 C389 1.449 . S
C370 C369 1.258 . S
C370 C371 1.477 . S
C370 H390 0.931 . S
C371 C367 1.460 . S
C371 C370 1.477 . S
C371 H391 0.930 . S
C372 N368 1.362 . S
C372 C369 1.431 . S
C372 C382 1.476 . S
H373 C367 0.929 . S
C374 O365 1.250 . S
C374 O366 1.258 . S
O375 Mn360 2.162 . S
O375 C363 1.281 . S
O376 Mn360 2.297 . S
O376 C363 1.236 . S
N377 Mn361 2.282 . S
N377 C378 1.328 . S
N377 C382 1.318 . S
C378 N377 1.328 . S
C378 C379 1.457 . S
C378 H383 0.929 . S
C379 C378 1.457 . S
C379 C380 1.291 . S
C379 H392 0.931 . S
C380 C379 1.291 . S
C380 C381 1.373 . S
C380 H393 0.929 . S
C381 C380 1.373 . S
C381 C382 1.396 . S
C381 C388 1.403 . S
C382 C372 1.476 . S
C382 N377 1.318 . S
C382 C381 1.396 . S
H383 C378 0.929 . S
O384 Mn360 2.385 . S
O384 C362 1.234 . S
O385 Mn360 2.209 . S
O385 Mn361 2.215 . S
O385 C362 1.283 . S
O386 Mn360 2.094 . S
O386 C364 1.240 . S
O387 Mn361 2.117 . S
O387 C364 1.264 . S
C388 C381 1.403 . S
C388 C389 1.399 . S
C388 H394 0.929 . S
C389 C369 1.449 . S
C389 C388 1.399 . S
C389 H395 0.930 . S
H390 C370 0.931 . S
H391 C371 0.930 . S
H392 C379 0.931 . S
H393 C380 0.929 . S
H394 C388 0.929 . S
H395 C389 0.930 . S
Mn396 O401 2.095 . S
Mn396 O411 2.162 . S
Mn396 O412 2.297 . S
Mn396 O420 2.385 . S
Mn396 O421 2.209 . S
Mn396 O422 2.094 . S
Mn397 O402 2.121 . S
Mn397 N404 2.257 1_655 S
Mn397 N413 2.282 . S
Mn397 O421 2.215 . S
Mn397 O423 2.117 . S
C398 O420 1.234 . S
C398 O421 1.283 . S
C399 O411 1.281 . S
C399 O412 1.236 . S
C400 O422 1.240 . S
C400 O423 1.264 . S
O401 Mn396 2.095 . S
O401 C410 1.250 . S
O402 Mn397 2.121 . S
O402 C410 1.258 . S
C403 N404 1.326 . S
C403 C407 1.460 . S
C403 H409 0.929 . S
N404 Mn397 2.257 1_455 S
N404 C403 1.326 . S
N404 C408 1.362 . S
C405 C406 1.258 . S
C405 C408 1.431 . S
C405 C425 1.449 . S
C406 C405 1.258 . S
C406 C407 1.477 . S
C406 H426 0.931 . S
C407 C403 1.460 . S
C407 C406 1.477 . S
C407 H427 0.930 . S
C408 N404 1.362 . S
C408 C405 1.431 . S
C408 C418 1.476 1_455 S
H409 C403 0.929 . S
C410 O401 1.250 . S
C410 O402 1.258 . S
O411 Mn396 2.162 . S
O411 C399 1.281 . S
O412 Mn396 2.297 . S
O412 C399 1.236 . S
N413 Mn397 2.282 . S
N413 C414 1.328 . S
N413 C418 1.318 . S
C414 N413 1.328 . S
C414 C415 1.457 . S
C414 H419 0.929 . S
C415 C414 1.457 . S
C415 C416 1.291 . S
C415 H428 0.931 . S
C416 C415 1.291 . S
C416 C417 1.373 . S
C416 H429 0.929 . S
C417 C416 1.373 . S
C417 C418 1.396 . S
C417 C424 1.403 1_655 S
C418 C408 1.476 1_655 S
C418 N413 1.318 . S
C418 C417 1.396 . S
H419 C414 0.929 . S
O420 Mn396 2.385 . S
O420 C398 1.234 . S
O421 Mn396 2.209 . S
O421 Mn397 2.215 . S
O421 C398 1.283 . S
O422 Mn396 2.094 . S
O422 C400 1.240 . S
O423 Mn397 2.117 . S
O423 C400 1.264 . S
C424 C417 1.403 1_455 S
C424 C425 1.399 . S
C424 H430 0.929 . S
C425 C405 1.449 . S
C425 C424 1.399 . S
C425 H431 0.930 . S
H426 C406 0.931 . S
H427 C407 0.930 . S
H428 C415 0.931 . S
H429 C416 0.929 . S
H430 C424 0.929 . S
H431 C425 0.930 . S
H432 C444 0.930 . S
H433 C446 0.930 . S
H434 C447 0.930 . S
H435 C451 0.959 . S
H436 C451 0.959 . S
H437 C451 0.961 . S
H438 C452 0.960 1_554 S
H439 C452 0.961 . S
H440 C452 0.963 . S
H441 C455 0.929 . S
H442 C456 0.931 . S
H443 C458 0.930 . S
C444 H432 0.930 . S
C444 C445 1.399 . S
C444 C449 1.399 . S
C445 C444 1.399 . S
C445 C446 1.376 . S
C446 H433 0.930 . S
C446 C445 1.376 . S
C446 C447 1.388 1_455 S
C447 H434 0.930 . S
C447 C446 1.388 1_655 S
C447 C448 1.390 . S
C448 C447 1.390 . S
C448 C449 1.394 1_655 S
C448 C454 1.465 1_554 S
C449 C444 1.399 . S
C449 C448 1.394 1_455 S
C449 C450 1.516 1_554 S
C450 C449 1.516 1_556 S
C450 C451 1.502 . S
C450 C452 1.561 1_455 S
C450 C453 1.526 1_455 S
C451 H435 0.959 . S
C451 H436 0.959 . S
C451 H437 0.961 . S
C451 C450 1.502 . S
C452 H438 0.960 1_556 S
C452 H439 0.961 . S
C452 H440 0.963 . S
C452 C450 1.561 1_655 S
C453 C450 1.526 1_655 S
C453 C454 1.396 . S
C453 C458 1.390 . S
C454 C448 1.465 1_556 S
C454 C453 1.396 . S
C454 C455 1.399 . S
C455 H441 0.929 . S
C455 C454 1.399 . S
C455 C456 1.385 . S
C456 H442 0.931 . S
C456 C455 1.385 . S
C456 C457 1.389 . S
C457 C456 1.389 . S
C457 C458 1.387 . S
C458 H443 0.930 . S
C458 C453 1.390 . S
C458 C457 1.387 . S
H459 C471 0.930 . S
H460 C473 0.930 . S
H461 C474 0.930 . S
H462 C478 0.959 . S
H463 C478 0.959 . S
H464 C478 0.961 . S
H465 C479 0.960 . S
H466 C479 0.961 . S
H467 C479 0.959 . S
H468 C482 0.929 . S
H469 C483 0.931 . S
H470 C485 0.930 . S
C471 H459 0.930 . S
C471 C472 1.399 . S
C471 C476 1.399 . S
C472 C471 1.399 . S
C472 C473 1.376 1_565 S
C473 H460 0.930 . S
C473 C472 1.376 1_545 S
C473 C474 1.388 . S
C474 H461 0.930 . S
C474 C473 1.388 . S
C474 C475 1.390 . S
C475 C474 1.390 . S
C475 C476 1.394 1_545 S
C475 C481 1.465 . S
C476 C471 1.399 . S
C476 C475 1.394 1_565 S
C476 C477 1.516 . S
C477 C476 1.516 . S
C477 C478 1.502 . S
C477 C479 1.561 . S
C477 C480 1.526 . S
C478 H462 0.959 . S
C478 H463 0.959 . S
C478 H464 0.961 . S
C478 C477 1.502 . S
C479 H465 0.960 . S
C479 H466 0.961 . S
C479 H467 0.959 . S
C479 C477 1.561 . S
C480 C477 1.526 . S
C480 C481 1.396 1_565 S
C480 C485 1.390 . S
C481 C475 1.465 . S
C481 C480 1.396 1_545 S
C481 C482 1.399 . S
C482 H468 0.929 . S
C482 C481 1.399 . S
C482 C483 1.385 . S
C483 H469 0.931 . S
C483 C482 1.385 . S
C483 C484 1.389 . S
C484 C483 1.389 . S
C484 C485 1.387 1_545 S
C485 H470 0.930 . S
C485 C480 1.390 . S
C485 C484 1.387 1_565 S
H486 C498 0.930 . S
H487 C500 0.930 . S
H488 C501 0.930 . S
H489 C505 0.959 . S
H490 C505 0.959 . S
H491 C505 0.961 . S
H492 C506 0.960 . S
H493 C506 0.961 1_556 S
H494 C506 0.959 1_556 S
H495 C509 0.929 . S
H496 C510 0.931 . S
H497 C512 0.930 . S
C498 H486 0.930 . S
C498 C499 1.399 . S
C498 C503 1.399 . S
C499 C498 1.399 . S
C499 C500 1.376 . S
C500 H487 0.930 . S
C500 C499 1.376 . S
C500 C501 1.388 . S
C501 H488 0.930 . S
C501 C500 1.388 . S
C501 C502 1.390 . S
C502 C501 1.390 . S
C502 C503 1.394 . S
C502 C508 1.465 1_554 S
C503 C498 1.399 . S
C503 C502 1.394 . S
C503 C504 1.516 . S
C504 C503 1.516 . S
C504 C505 1.502 . S
C504 C506 1.561 . S
C504 C507 1.526 1_554 S
C505 H489 0.959 . S
C505 H490 0.959 . S
C505 H491 0.961 . S
C505 C504 1.502 . S
C506 H492 0.960 . S
C506 H493 0.961 1_554 S
C506 H494 0.959 1_554 S
C506 C504 1.561 . S
C507 C504 1.526 1_556 S
C507 C508 1.396 . S
C507 C512 1.390 . S
C508 C502 1.465 1_556 S
C508 C507 1.396 . S
C508 C509 1.399 . S
C509 H495 0.929 . S
C509 C508 1.399 . S
C509 C510 1.385 . S
C510 H496 0.931 . S
C510 C509 1.385 . S
C510 C511 1.389 . S
C511 C510 1.389 . S
C511 C512 1.387 . S
C512 H497 0.930 . S
C512 C507 1.390 . S
C512 C511 1.387 . S
H513 C525 0.930 . S
H514 C527 0.930 . S
H515 C528 0.930 . S
H516 C532 0.959 . S
H517 C532 0.959 . S
H518 C532 0.961 . S
H519 C533 0.960 . S
H520 C533 0.961 . S
H521 C533 0.959 1_655 S
H522 C536 0.929 . S
H523 C537 0.931 . S
H524 C539 0.930 1_455 S
C525 H513 0.930 . S
C525 C526 1.399 . S
C525 C530 1.399 . S
C526 C525 1.399 . S
C526 C527 1.376 1_455 S
C527 H514 0.930 . S
C527 C526 1.376 1_655 S
C527 C528 1.388 . S
C528 H515 0.930 . S
C528 C527 1.388 . S
C528 C529 1.390 . S
C529 C528 1.390 . S
C529 C530 1.394 1_655 S
C529 C535 1.465 . S
C530 C525 1.399 . S
C530 C529 1.394 1_455 S
C530 C531 1.516 . S
C531 C530 1.516 . S
C531 C532 1.502 . S
C531 C533 1.561 . S
C531 C534 1.526 1_455 S
C532 H516 0.959 . S
C532 H517 0.959 . S
C532 H518 0.961 . S
C532 C531 1.502 . S
C533 H519 0.960 . S
C533 H520 0.961 . S
C533 H521 0.959 1_455 S
C533 C531 1.561 . S
C534 C531 1.526 1_655 S
C534 C535 1.396 . S
C534 C539 1.390 . S
C535 C529 1.465 . S
C535 C534 1.396 . S
C535 C536 1.399 . S
C536 H522 0.929 . S
C536 C535 1.399 . S
C536 C537 1.385 . S
C537 H523 0.931 . S
C537 C536 1.385 . S
C537 C538 1.389 . S
C538 C537 1.389 . S
C538 C539 1.387 . S
C539 H524 0.930 1_655 S
C539 C534 1.390 . S
C539 C538 1.387 . S
H540 C552 0.930 . S
H541 C554 0.930 . S
H542 C555 0.930 . S
H543 C559 0.960 1_566 S
H544 C559 0.959 . S
H545 C559 0.961 1_556 S
H546 C560 0.951 1_556 S
H547 C560 0.961 . S
H548 C560 0.959 . S
H549 C563 0.929 . S
H550 C564 0.931 . S
H551 C566 0.930 1_545 S
C552 H540 0.930 . S
C552 C553 1.399 . S
C552 C557 1.399 . S
C553 C552 1.399 . S
C553 C554 1.376 . S
C554 H541 0.930 . S
C554 C553 1.376 . S
C554 C555 1.388 1_545 S
C555 H542 0.930 . S
C555 C554 1.388 1_565 S
C555 C556 1.390 . S
C556 C555 1.390 . S
C556 C557 1.394 1_565 S
C556 C562 1.466 1_556 S
C557 C552 1.399 . S
C557 C556 1.394 1_545 S
C557 C558 1.516 1_556 S
C558 C557 1.516 1_554 S
C558 C559 1.502 . S
C558 C560 1.561 . S
C558 C561 1.526 . S
C559 H543 0.960 1_544 S
C559 H544 0.959 . S
C559 H545 0.961 1_554 S
C559 C558 1.502 . S
C560 H546 0.951 1_554 S
C560 H547 0.961 . S
C560 H548 0.959 . S
C560 C558 1.561 . S
C561 C558 1.526 . S
C561 C562 1.396 1_545 S
C561 C566 1.390 1_545 S
C562 C556 1.466 1_554 S
C562 C561 1.396 1_565 S
C562 C563 1.399 . S
C563 H549 0.929 . S
C563 C562 1.399 . S
C563 C564 1.385 . S
C564 H550 0.931 . S
C564 C563 1.385 . S
C564 C565 1.389 . S
C565 C564 1.389 . S
C565 C566 1.387 . S
C566 H551 0.930 1_565 S
C566 C561 1.390 1_565 S
C566 C565 1.387 . S
H567 C579 0.930 . S
H568 C581 0.930 . S
H569 C582 0.930 . S
H570 C586 0.959 . S
H571 C586 0.959 . S
H572 C586 0.961 . S
H573 C587 0.960 . S
H574 C587 0.961 . S
H575 C587 0.959 . S
H576 C590 0.929 . S
H577 C591 0.931 . S
H578 C593 0.930 . S
C579 H567 0.930 . S
C579 C580 1.399 . S
C579 C584 1.399 . S
C580 C579 1.399 . S
C580 C581 1.376 . S
C581 H568 0.930 . S
C581 C580 1.376 . S
C581 C582 1.388 . S
C582 H569 0.930 . S
C582 C581 1.388 . S
C582 C583 1.390 . S
C583 C582 1.390 . S
C583 C584 1.394 . S
C583 C589 1.465 . S
C584 C579 1.399 . S
C584 C583 1.394 . S
C584 C585 1.516 . S
C585 C584 1.516 . S
C585 C586 1.502 . S
C585 C587 1.561 . S
C585 C588 1.526 . S
C586 H570 0.959 . S
C586 H571 0.959 . S
C586 H572 0.961 . S
C586 C585 1.502 . S
C587 H573 0.960 . S
C587 H574 0.961 . S
C587 H575 0.959 . S
C587 C585 1.561 . S
C588 C585 1.526 . S
C588 C589 1.396 . S
C588 C593 1.390 . S
C589 C583 1.465 . S
C589 C588 1.396 . S
C589 C590 1.399 . S
C590 H576 0.929 . S
C590 C589 1.399 . S
C590 C591 1.385 . S
C591 H577 0.931 . S
C591 C590 1.385 . S
C591 C592 1.389 . S
C592 C591 1.389 . S
C592 C593 1.387 . S
C593 H578 0.930 . S
C593 C588 1.390 . S
C593 C592 1.387 . S
H594 C606 0.930 1_455 S
H595 C608 0.930 . S
H596 C609 0.930 . S
H597 C613 0.959 . S
H598 C613 0.959 . S
H599 C613 0.961 . S
H600 C614 0.960 . S
H601 C614 0.961 1_554 S
H602 C614 0.955 1_554 S
H603 C617 0.929 . S
H604 C618 0.931 . S
H605 C620 0.930 . S
C606 H594 0.930 1_655 S
C606 C607 1.399 . S
C606 C611 1.399 1_655 S
C607 C606 1.399 . S
C607 C608 1.376 . S
C608 H595 0.930 . S
C608 C607 1.376 . S
C608 C609 1.388 . S
C609 H596 0.930 . S
C609 C608 1.388 . S
C609 C610 1.390 . S
C610 C609 1.390 . S
C610 C611 1.394 1_655 S
C610 C616 1.465 1_556 S
C611 C606 1.399 1_455 S
C611 C610 1.394 1_455 S
C611 C612 1.516 . S
C612 C611 1.516 . S
C612 C613 1.502 . S
C612 C614 1.561 . S
C612 C615 1.526 1_556 S
C613 H597 0.959 . S
C613 H598 0.959 . S
C613 H599 0.961 . S
C613 C612 1.502 . S
C614 H600 0.960 . S
C614 H601 0.961 1_556 S
C614 H602 0.955 1_556 S
C614 C612 1.561 . S
C615 C612 1.526 1_554 S
C615 C616 1.396 1_455 S
C615 C620 1.390 . S
C616 C610 1.465 1_554 S
C616 C615 1.396 1_655 S
C616 C617 1.399 . S
C617 H603 0.929 . S
C617 C616 1.399 . S
C617 C618 1.385 . S
C618 H604 0.931 . S
C618 C617 1.385 . S
C618 C619 1.389 1_655 S
C619 C618 1.389 1_455 S
C619 C620 1.387 . S
C620 H605 0.930 . S
C620 C615 1.390 . S
C620 C619 1.387 . S
H621 C633 0.930 . S
H622 C635 0.930 . S
H623 C636 0.930 . S
H624 C640 0.959 . S
H625 C640 0.959 . S
H626 C640 0.961 . S
H627 C641 0.960 . S
H628 C641 0.961 . S
H629 C641 0.959 . S
H630 C644 0.929 . S
H631 C645 0.931 . S
H632 C647 0.930 . S
C633 H621 0.930 . S
C633 C634 1.399 . S
C633 C638 1.399 . S
C634 C633 1.399 . S
C634 C635 1.376 1_565 S
C635 H622 0.930 . S
C635 C634 1.376 1_545 S
C635 C636 1.388 . S
C636 H623 0.930 . S
C636 C635 1.388 . S
C636 C637 1.390 . S
C637 C636 1.390 . S
C637 C638 1.394 1_545 S
C637 C643 1.465 . S
C638 C633 1.399 . S
C638 C637 1.394 1_565 S
C638 C639 1.516 . S
C639 C638 1.516 . S
C639 C640 1.502 . S
C639 C641 1.561 . S
C639 C642 1.526 . S
C640 H624 0.959 . S
C640 H625 0.959 . S
C640 H626 0.961 . S
C640 C639 1.502 . S
C641 H627 0.960 . S
C641 H628 0.961 . S
C641 H629 0.959 . S
C641 C639 1.561 . S
C642 C639 1.526 . S
C642 C643 1.396 1_565 S
C642 C647 1.390 . S
C643 C637 1.465 . S
C643 C642 1.396 1_545 S
C643 C644 1.399 . S
C644 H630 0.929 . S
C644 C643 1.399 . S
C644 C645 1.385 . S
C645 H631 0.931 . S
C645 C644 1.385 . S
C645 C646 1.389 . S
C646 C645 1.389 . S
C646 C647 1.387 1_545 S
C647 H632 0.930 . S
C647 C642 1.390 . S
C647 C646 1.387 1_565 S
H648 C660 0.930 . S
H649 C662 0.930 . S
H650 C663 0.930 . S
H651 C667 0.959 . S
H652 C667 0.959 1_554 S
H653 C667 0.961 . S
H654 C668 0.960 1_556 S
H655 C668 0.961 . S
H656 C668 0.959 . S
H657 C671 0.929 . S
H658 C672 0.931 . S
H659 C674 0.930 . S
C660 H648 0.930 . S
C660 C661 1.399 . S
C660 C665 1.399 . S
C661 C660 1.399 . S
C661 C662 1.376 . S
C662 H649 0.930 . S
C662 C661 1.376 . S
C662 C663 1.388 . S
C663 H650 0.930 . S
C663 C662 1.388 . S
C663 C664 1.390 . S
C664 C663 1.390 . S
C664 C665 1.394 . S
C664 C670 1.465 1_556 S
C665 C660 1.399 . S
C665 C664 1.394 . S
C665 C666 1.516 . S
C666 C665 1.516 . S
C666 C667 1.502 . S
C666 C668 1.561 1_556 S
C666 C669 1.526 1_556 S
C667 H651 0.959 . S
C667 H652 0.959 1_556 S
C667 H653 0.961 . S
C667 C666 1.502 . S
C668 H654 0.960 1_554 S
C668 H655 0.961 . S
C668 H656 0.959 . S
C668 C666 1.561 1_554 S
C669 C666 1.526 1_554 S
C669 C670 1.396 . S
C669 C674 1.390 . S
C670 C664 1.465 1_554 S
C670 C669 1.396 . S
C670 C671 1.399 . S
C671 H657 0.929 . S
C671 C670 1.399 . S
C671 C672 1.385 . S
C672 H658 0.931 . S
C672 C671 1.385 . S
C672 C673 1.389 . S
C673 C672 1.389 . S
C673 C674 1.387 . S
C674 H659 0.930 . S
C674 C669 1.390 . S
C674 C673 1.387 . S
H675 C687 0.930 . S
H676 C689 0.930 . S
H677 C690 0.930 . S
H678 C694 0.959 . S
H679 C694 0.959 . S
H680 C694 0.961 . S
H681 C695 0.960 . S
H682 C695 0.961 . S
H683 C695 0.959 . S
H684 C698 0.929 . S
H685 C699 0.931 . S
H686 C701 0.930 . S
C687 H675 0.930 . S
C687 C688 1.399 . S
C687 C692 1.399 . S
C688 C687 1.399 . S
C688 C689 1.376 . S
C689 H676 0.930 . S
C689 C688 1.376 . S
C689 C690 1.388 . S
C690 H677 0.930 . S
C690 C689 1.388 . S
C690 C691 1.390 . S
C691 C690 1.390 . S
C691 C692 1.394 . S
C691 C697 1.465 1_655 S
C692 C687 1.399 . S
C692 C691 1.394 . S
C692 C693 1.516 . S
C693 C692 1.516 . S
C693 C694 1.502 1_655 S
C693 C695 1.561 . S
C693 C696 1.526 1_655 S
C694 H678 0.959 . S
C694 H679 0.959 . S
C694 H680 0.961 . S
C694 C693 1.502 1_455 S
C695 H681 0.960 . S
C695 H682 0.961 . S
C695 H683 0.959 . S
C695 C693 1.561 . S
C696 C693 1.526 1_455 S
C696 C697 1.396 . S
C696 C701 1.390 . S
C697 C691 1.465 1_455 S
C697 C696 1.396 . S
C697 C698 1.399 . S
C698 H684 0.929 . S
C698 C697 1.399 . S
C698 C699 1.385 . S
C699 H685 0.931 . S
C699 C698 1.385 . S
C699 C700 1.389 . S
C700 C699 1.389 . S
C700 C701 1.387 . S
C701 H686 0.930 . S
C701 C696 1.390 . S
C701 C700 1.387 . S
H702 C714 0.930 . S
H703 C716 0.930 . S
H704 C717 0.930 . S
H705 C721 0.959 . S
H706 C721 0.950 1_554 S
H707 C721 0.961 . S
H708 C722 0.960 . S
H709 C722 0.961 . S
H710 C722 0.959 . S
H711 C725 0.929 . S
H712 C726 0.931 . S
H713 C728 0.930 . S
C714 H702 0.930 . S
C714 C715 1.399 1_565 S
C714 C719 1.399 . S
C715 C714 1.399 1_545 S
C715 C716 1.376 . S
C716 H703 0.930 . S
C716 C715 1.376 . S
C716 C717 1.388 . S
C717 H704 0.930 . S
C717 C716 1.388 . S
C717 C718 1.390 . S
C718 C717 1.390 . S
C718 C719 1.394 1_545 S
C718 C724 1.465 1_556 S
C719 C714 1.399 . S
C719 C718 1.394 1_565 S
C719 C720 1.516 . S
C720 C719 1.516 . S
C720 C721 1.502 . S
C720 C722 1.561 . S
C720 C723 1.526 1_556 S
C721 H705 0.959 . S
C721 H706 0.950 1_556 S
C721 H707 0.961 . S
C721 C720 1.502 . S
C722 H708 0.960 . S
C722 H709 0.961 . S
C722 H710 0.959 . S
C722 C720 1.561 . S
C723 C720 1.526 1_554 S
C723 C724 1.396 1_565 S
C723 C728 1.390 . S
C724 C718 1.465 1_554 S
C724 C723 1.396 1_545 S
C724 C725 1.399 . S
C725 H711 0.929 . S
C725 C724 1.399 . S
C725 C726 1.385 . S
C726 H712 0.931 . S
C726 C725 1.385 . S
C726 C727 1.389 1_545 S
C727 C726 1.389 1_565 S
C727 C728 1.387 . S
C728 H713 0.930 . S
C728 C723 1.390 . S
C728 C727 1.387 . S
H729 C741 0.930 . S
H730 C743 0.930 . S
H731 C744 0.930 . S
H732 C748 0.959 . S
H733 C748 0.959 . S
H734 C748 0.961 . S
H735 C749 0.960 . S
H736 C749 0.961 . S
H737 C749 0.959 . S
H738 C752 0.929 . S
H739 C753 0.931 . S
H740 C755 0.930 . S
C741 H729 0.930 . S
C741 C742 1.399 . S
C741 C746 1.399 . S
C742 C741 1.399 . S
C742 C743 1.376 . S
C743 H730 0.930 . S
C743 C742 1.376 . S
C743 C744 1.388 . S
C744 H731 0.930 . S
C744 C743 1.388 . S
C744 C745 1.390 . S
C745 C744 1.390 . S
C745 C746 1.394 . S
C745 C751 1.465 . S
C746 C741 1.399 . S
C746 C745 1.394 . S
C746 C747 1.516 . S
C747 C746 1.516 . S
C747 C748 1.502 . S
C747 C749 1.561 . S
C747 C750 1.526 . S
C748 H732 0.959 . S
C748 H733 0.959 . S
C748 H734 0.961 . S
C748 C747 1.502 . S
C749 H735 0.960 . S
C749 H736 0.961 . S
C749 H737 0.959 . S
C749 C747 1.561 . S
C750 C747 1.526 . S
C750 C751 1.396 . S
C750 C755 1.390 . S
C751 C745 1.465 . S
C751 C750 1.396 . S
C751 C752 1.399 . S
C752 H738 0.929 . S
C752 C751 1.399 . S
C752 C753 1.385 . S
C753 H739 0.931 . S
C753 C752 1.385 . S
C753 C754 1.389 . S
C754 C753 1.389 . S
C754 C755 1.387 . S
C755 H740 0.930 . S
C755 C750 1.390 . S
C755 C754 1.387 . S
H756 C768 0.930 . S
H757 C770 0.930 . S
H758 C771 0.930 . S
H759 C775 0.959 . S
H760 C775 0.959 . S
H761 C775 0.961 . S
H762 C776 0.960 . S
H763 C776 0.961 . S
H764 C776 0.959 . S
H765 C779 0.929 . S
H766 C780 0.931 . S
H767 C782 0.930 . S
C768 H756 0.930 . S
C768 C769 1.399 . S
C768 C773 1.399 . S
C769 C768 1.399 . S
C769 C770 1.376 . S
C770 H757 0.930 . S
C770 C769 1.376 . S
C770 C771 1.388 . S
C771 H758 0.930 . S
C771 C770 1.388 . S
C771 C772 1.390 . S
C772 C771 1.390 . S
C772 C773 1.394 . S
C772 C778 1.465 . S
C773 C768 1.399 . S
C773 C772 1.394 . S
C773 C774 1.516 . S
C774 C773 1.516 . S
C774 C775 1.502 . S
C774 C776 1.561 . S
C774 C777 1.526 . S
C775 H759 0.959 . S
C775 H760 0.959 . S
C775 H761 0.961 . S
C775 C774 1.502 . S
C776 H762 0.960 . S
C776 H763 0.961 . S
C776 H764 0.959 . S
C776 C774 1.561 . S
C777 C774 1.526 . S
C777 C778 1.396 . S
C777 C782 1.390 . S
C778 C772 1.465 . S
C778 C777 1.396 . S
C778 C779 1.399 . S
C779 H765 0.929 . S
C779 C778 1.399 . S
C779 C780 1.385 . S
C780 H766 0.931 . S
C780 C779 1.385 . S
C780 C781 1.389 . S
C781 C780 1.389 . S
C781 C782 1.387 . S
C782 H767 0.930 . S
C782 C777 1.390 . S
C782 C781 1.387 . S
H783 C795 0.930 . S
H784 C797 0.930 . S
H785 C798 0.930 . S
H786 C802 0.959 1_545 S
H787 C802 0.959 . S
H788 C802 0.961 . S
H789 C803 0.960 1_565 S
H790 C803 0.923 1_565 S
H791 C803 0.983 . S
H792 C806 0.929 . S
H793 C807 0.931 . S
H794 C809 0.930 . S
C795 H783 0.930 . S
C795 C796 1.399 . S
C795 C800 1.399 . S
C796 C795 1.399 . S
C796 C797 1.376 . S
C797 H784 0.930 . S
C797 C796 1.376 . S
C797 C798 1.388 . S
C798 H785 0.930 . S
C798 C797 1.388 . S
C798 C799 1.390 . S
C799 C798 1.390 . S
C799 C800 1.394 . S
C799 C805 1.465 . S
C800 C795 1.399 . S
C800 C799 1.394 . S
C800 C801 1.516 . S
C801 C800 1.516 . S
C801 C802 1.502 1_545 S
C801 C803 1.577 . S
C801 C804 1.526 . S
C802 H786 0.959 1_565 S
C802 H787 0.959 . S
C802 H788 0.961 . S
C802 C801 1.502 1_565 S
C803 H789 0.960 1_545 S
C803 H790 0.923 1_545 S
C803 H791 0.983 . S
C803 C801 1.577 . S
C804 C801 1.526 . S
C804 C805 1.396 . S
C804 C809 1.390 . S
C805 C799 1.465 . S
C805 C804 1.396 . S
C805 C806 1.399 . S
C806 H792 0.929 . S
C806 C805 1.399 . S
C806 C807 1.385 . S
C807 H793 0.931 . S
C807 C806 1.385 . S
C807 C808 1.389 . S
C808 C807 1.389 . S
C808 C809 1.387 . S
C809 H794 0.930 . S
C809 C804 1.390 . S
C809 C808 1.387 . S
H810 C822 0.930 . S
H811 C824 0.930 . S
H812 C825 0.930 . S
H813 C829 0.959 . S
H814 C829 0.959 . S
H815 C829 0.961 . S
H816 C830 0.960 . S
H817 C830 0.961 . S
H818 C830 0.959 . S
H819 C833 0.929 . S
H820 C834 0.931 . S
H821 C836 0.930 . S
C822 H810 0.930 . S
C822 C823 1.399 . S
C822 C827 1.399 . S
C823 C822 1.399 . S
C823 C824 1.376 . S
C824 H811 0.930 . S
C824 C823 1.376 . S
C824 C825 1.388 . S
C825 H812 0.930 . S
C825 C824 1.388 . S
C825 C826 1.390 . S
C826 C825 1.390 . S
C826 C827 1.394 . S
C826 C832 1.465 . S
C827 C822 1.399 . S
C827 C826 1.394 . S
C827 C828 1.516 . S
C828 C827 1.516 . S
C828 C829 1.502 . S
C828 C830 1.561 . S
C828 C831 1.526 . S
C829 H813 0.959 . S
C829 H814 0.959 . S
C829 H815 0.961 . S
C829 C828 1.502 . S
C830 H816 0.960 . S
C830 H817 0.961 . S
C830 H818 0.959 . S
C830 C828 1.561 . S
C831 C828 1.526 . S
C831 C832 1.396 . S
C831 C836 1.390 . S
C832 C826 1.465 . S
C832 C831 1.396 . S
C832 C833 1.399 . S
C833 H819 0.929 . S
C833 C832 1.399 . S
C833 C834 1.385 . S
C834 H820 0.931 . S
C834 C833 1.385 . S
C834 C835 1.389 . S
C835 C834 1.389 . S
C835 C836 1.387 . S
C836 H821 0.930 . S
C836 C831 1.390 . S
C836 C835 1.387 . S
H837 C849 0.930 . S
H838 C851 0.930 . S
H839 C852 0.930 . S
H840 C856 0.959 . S
H841 C856 0.959 . S
H842 C856 0.961 . S
H843 C857 0.960 . S
H844 C857 0.961 . S
H845 C857 0.959 . S
H846 C860 0.929 . S
H847 C861 0.931 . S
H848 C863 0.930 . S
C849 H837 0.930 . S
C849 C850 1.399 . S
C849 C854 1.399 . S
C850 C849 1.399 . S
C850 C851 1.376 . S
C851 H838 0.930 . S
C851 C850 1.376 . S
C851 C852 1.388 . S
C852 H839 0.930 . S
C852 C851 1.388 . S
C852 C853 1.390 . S
C853 C852 1.390 . S
C853 C854 1.394 . S
C853 C859 1.465 . S
C854 C849 1.399 . S
C854 C853 1.394 . S
C854 C855 1.516 . S
C855 C854 1.516 . S
C855 C856 1.502 . S
C855 C857 1.561 . S
C855 C858 1.526 . S
C856 H840 0.959 . S
C856 H841 0.959 . S
C856 H842 0.961 . S
C856 C855 1.502 . S
C857 H843 0.960 . S
C857 H844 0.961 . S
C857 H845 0.959 . S
C857 C855 1.561 . S
C858 C855 1.526 . S
C858 C859 1.396 . S
C858 C863 1.390 . S
C859 C853 1.465 . S
C859 C858 1.396 . S
C859 C860 1.399 . S
C860 H846 0.929 . S
C860 C859 1.399 . S
C860 C861 1.385 . S
C861 H847 0.931 . S
C861 C860 1.385 . S
C861 C862 1.389 . S
C862 C861 1.389 . S
C862 C863 1.387 . S
C863 H848 0.930 . S
C863 C858 1.390 . S
C863 C862 1.387 . S
H864 C876 0.930 . S
H865 C878 0.930 . S
H866 C879 0.930 . S
H867 C883 0.959 . S
H868 C883 0.959 . S
H869 C883 0.961 . S
H870 C884 0.960 . S
H871 C884 0.961 . S
H872 C884 0.959 . S
H873 C887 0.929 . S
H874 C888 0.931 . S
H875 C890 0.930 . S
C876 H864 0.930 . S
C876 C877 1.399 . S
C876 C881 1.399 . S
C877 C876 1.399 . S
C877 C878 1.376 . S
C878 H865 0.930 . S
C878 C877 1.376 . S
C878 C879 1.388 . S
C879 H866 0.930 . S
C879 C878 1.388 . S
C879 C880 1.390 . S
C880 C879 1.390 . S
C880 C881 1.394 . S
C880 C886 1.465 . S
C881 C876 1.399 . S
C881 C880 1.394 . S
C881 C882 1.516 . S
C882 C881 1.516 . S
C882 C883 1.502 . S
C882 C884 1.561 . S
C882 C885 1.526 . S
C883 H867 0.959 . S
C883 H868 0.959 . S
C883 H869 0.961 . S
C883 C882 1.502 . S
C884 H870 0.960 . S
C884 H871 0.961 . S
C884 H872 0.959 . S
C884 C882 1.561 . S
C885 C882 1.526 . S
C885 C886 1.396 . S
C885 C890 1.390 . S
C886 C880 1.465 . S
C886 C885 1.396 . S
C886 C887 1.399 . S
C887 H873 0.929 . S
C887 C886 1.399 . S
C887 C888 1.385 . S
C888 H874 0.931 . S
C888 C887 1.385 . S
C888 C889 1.389 . S
C889 C888 1.389 . S
C889 C890 1.387 . S
C890 H875 0.930 . S
C890 C885 1.390 . S
C890 C889 1.387 . S
H891 C903 0.930 . S
H892 C905 0.930 . S
H893 C906 0.930 . S
H894 C910 0.959 . S
H895 C910 0.959 . S
H896 C910 0.961 . S
H897 C911 0.960 . S
H898 C911 0.961 . S
H899 C911 0.959 . S
H900 C914 0.929 . S
H901 C915 0.931 . S
H902 C917 0.930 . S
C903 H891 0.930 . S
C903 C904 1.399 . S
C903 C908 1.399 . S
C904 C903 1.399 . S
C904 C905 1.376 . S
C905 H892 0.930 . S
C905 C904 1.376 . S
C905 C906 1.388 . S
C906 H893 0.930 . S
C906 C905 1.388 . S
C906 C907 1.390 . S
C907 C906 1.390 . S
C907 C908 1.394 . S
C907 C913 1.465 . S
C908 C903 1.399 . S
C908 C907 1.394 . S
C908 C909 1.516 . S
C909 C908 1.516 . S
C909 C910 1.502 . S
C909 C911 1.561 . S
C909 C912 1.526 . S
C910 H894 0.959 . S
C910 H895 0.959 . S
C910 H896 0.961 . S
C910 C909 1.502 . S
C911 H897 0.960 . S
C911 H898 0.961 . S
C911 H899 0.959 . S
C911 C909 1.561 . S
C912 C909 1.526 . S
C912 C913 1.396 . S
C912 C917 1.390 . S
C913 C907 1.465 . S
C913 C912 1.396 . S
C913 C914 1.399 . S
C914 H900 0.929 . S
C914 C913 1.399 . S
C914 C915 1.385 . S
C915 H901 0.931 . S
C915 C914 1.385 . S
C915 C916 1.389 . S
C916 C915 1.389 . S
C916 C917 1.387 . S
C917 H902 0.930 . S
C917 C912 1.390 . S
C917 C916 1.387 . S
H918 C930 0.930 . S
H919 C932 0.930 . S
H920 C933 0.930 . S
H921 C937 0.959 . S
H922 C937 0.959 . S
H923 C937 0.961 . S
H924 C938 0.960 . S
H925 C938 0.961 . S
H926 C938 0.959 . S
H927 C941 0.929 . S
H928 C942 0.931 . S
H929 C944 0.930 . S
C930 H918 0.930 . S
C930 C931 1.399 . S
C930 C935 1.399 . S
C931 C930 1.399 . S
C931 C932 1.376 . S
C932 H919 0.930 . S
C932 C931 1.376 . S
C932 C933 1.388 . S
C933 H920 0.930 . S
C933 C932 1.388 . S
C933 C934 1.390 . S
C934 C933 1.390 . S
C934 C935 1.394 . S
C934 C940 1.465 . S
C935 C930 1.399 . S
C935 C934 1.394 . S
C935 C936 1.516 . S
C936 C935 1.516 . S
C936 C937 1.502 . S
C936 C938 1.561 . S
C936 C939 1.526 . S
C937 H921 0.959 . S
C937 H922 0.959 . S
C937 H923 0.961 . S
C937 C936 1.502 . S
C938 H924 0.960 . S
C938 H925 0.961 . S
C938 H926 0.959 . S
C938 C936 1.561 . S
C939 C936 1.526 . S
C939 C940 1.396 . S
C939 C944 1.390 . S
C940 C934 1.465 . S
C940 C939 1.396 . S
C940 C941 1.399 . S
C941 H927 0.929 . S
C941 C940 1.399 . S
C941 C942 1.385 . S
C942 H928 0.931 . S
C942 C941 1.385 . S
C942 C943 1.389 . S
C943 C942 1.389 . S
C943 C944 1.387 . S
C944 H929 0.930 . S
C944 C939 1.390 . S
C944 C943 1.387 . S
H945 C957 0.930 . S
H946 C959 0.930 . S
H947 C960 0.930 . S
H948 C964 0.959 . S
H949 C964 0.959 . S
H950 C964 0.961 . S
H951 C965 0.960 . S
H952 C965 0.961 . S
H953 C965 0.959 . S
H954 C968 0.929 . S
H955 C969 0.931 . S
H956 C971 0.930 . S
C957 H945 0.930 . S
C957 C958 1.399 . S
C957 C962 1.399 . S
C958 C957 1.399 . S
C958 C959 1.376 . S
C959 H946 0.930 . S
C959 C958 1.376 . S
C959 C960 1.388 . S
C960 H947 0.930 . S
C960 C959 1.388 . S
C960 C961 1.390 . S
C961 C960 1.390 . S
C961 C962 1.394 . S
C961 C967 1.465 . S
C962 C957 1.399 . S
C962 C961 1.394 . S
C962 C963 1.516 . S
C963 C962 1.516 . S
C963 C964 1.502 . S
C963 C965 1.561 . S
C963 C966 1.526 . S
C964 H948 0.959 . S
C964 H949 0.959 . S
C964 H950 0.961 . S
C964 C963 1.502 . S
C965 H951 0.960 . S
C965 H952 0.961 . S
C965 H953 0.959 . S
C965 C963 1.561 . S
C966 C963 1.526 . S
C966 C967 1.396 . S
C966 C971 1.390 . S
C967 C961 1.465 . S
C967 C966 1.396 . S
C967 C968 1.399 . S
C968 H954 0.929 . S
C968 C967 1.399 . S
C968 C969 1.385 . S
C969 H955 0.931 . S
C969 C968 1.385 . S
C969 C970 1.389 . S
C970 C969 1.389 . S
C970 C971 1.387 . S
C971 H956 0.930 . S
C971 C966 1.390 . S
C971 C970 1.387 . S
H972 C984 0.930 . S
H973 C986 0.930 . S
H974 C987 0.930 . S
H975 C991 0.959 . S
H976 C991 0.959 . S
H977 C991 0.961 . S
H978 C992 0.960 . S
H979 C992 0.961 . S
H980 C992 0.959 . S
H981 C995 0.929 . S
H982 C996 0.931 . S
H983 C998 0.930 . S
C984 H972 0.930 . S
C984 C985 1.399 . S
C984 C989 1.399 . S
C985 C984 1.399 . S
C985 C986 1.376 . S
C986 H973 0.930 . S
C986 C985 1.376 . S
C986 C987 1.388 . S
C987 H974 0.930 . S
C987 C986 1.388 . S
C987 C988 1.390 . S
C988 C987 1.390 . S
C988 C989 1.394 . S
C988 C994 1.465 . S
C989 C984 1.399 . S
C989 C988 1.394 . S
C989 C990 1.516 . S
C990 C989 1.516 . S
C990 C991 1.502 . S
C990 C992 1.561 . S
C990 C993 1.526 . S
C991 H975 0.959 . S
C991 H976 0.959 . S
C991 H977 0.961 . S
C991 C990 1.502 . S
C992 H978 0.960 . S
C992 H979 0.961 . S
C992 H980 0.959 . S
C992 C990 1.561 . S
C993 C990 1.526 . S
C993 C994 1.396 . S
C993 C998 1.390 . S
C994 C988 1.465 . S
C994 C993 1.396 . S
C994 C995 1.399 . S
C995 H981 0.929 . S
C995 C994 1.399 . S
C995 C996 1.385 . S
C996 H982 0.931 . S
C996 C995 1.385 . S
C996 C997 1.389 . S
C997 C996 1.389 . S
C997 C998 1.387 . S
C998 H983 0.930 . S
C998 C993 1.390 . S
C998 C997 1.387 . S
H999 C1011 0.930 . S
H1000 C1013 0.930 . S
H1001 C1014 0.930 . S
H1002 C1018 0.959 . S
H1003 C1018 0.959 . S
H1004 C1018 0.961 . S
H1005 C1019 0.960 . S
H1006 C1019 0.961 . S
H1007 C1019 0.959 . S
H1008 C1022 0.929 . S
H1009 C1023 0.931 . S
H1010 C1025 0.930 . S
C1011 H999 0.930 . S
C1011 C1012 1.399 . S
C1011 C1016 1.399 . S
C1012 C1011 1.399 . S
C1012 C1013 1.376 . S
C1013 H1000 0.930 . S
C1013 C1012 1.376 . S
C1013 C1014 1.388 . S
C1014 H1001 0.930 . S
C1014 C1013 1.388 . S
C1014 C1015 1.390 . S
C1015 C1014 1.390 . S
C1015 C1016 1.394 . S
C1015 C1021 1.465 . S
C1016 C1011 1.399 . S
C1016 C1015 1.394 . S
C1016 C1017 1.516 . S
C1017 C1016 1.516 . S
C1017 C1018 1.502 . S
C1017 C1019 1.561 . S
C1017 C1020 1.526 . S
C1018 H1002 0.959 . S
C1018 H1003 0.959 . S
C1018 H1004 0.961 . S
C1018 C1017 1.502 . S
C1019 H1005 0.960 . S
C1019 H1006 0.961 . S
C1019 H1007 0.959 . S
C1019 C1017 1.561 . S
C1020 C1017 1.526 . S
C1020 C1021 1.396 . S
C1020 C1025 1.390 . S
C1021 C1015 1.465 . S
C1021 C1020 1.396 . S
C1021 C1022 1.399 . S
C1022 H1008 0.929 . S
C1022 C1021 1.399 . S
C1022 C1023 1.385 . S
C1023 H1009 0.931 . S
C1023 C1022 1.385 . S
C1023 C1024 1.389 . S
C1024 C1023 1.389 . S
C1024 C1025 1.387 . S
C1025 H1010 0.930 . S
C1025 C1020 1.390 . S
C1025 C1024 1.387 . S
H1026 C1038 0.930 . S
H1027 C1040 0.930 . S
H1028 C1041 0.930 . S
H1029 C1045 0.959 . S
H1030 C1045 0.959 . S
H1031 C1045 0.961 . S
H1032 C1046 0.960 . S
H1033 C1046 0.961 . S
H1034 C1046 0.959 . S
H1035 C1049 0.929 . S
H1036 C1050 0.931 . S
H1037 C1052 0.930 . S
C1038 H1026 0.930 . S
C1038 C1039 1.399 . S
C1038 C1043 1.399 . S
C1039 C1038 1.399 . S
C1039 C1040 1.376 . S
C1040 H1027 0.930 . S
C1040 C1039 1.376 . S
C1040 C1041 1.388 . S
C1041 H1028 0.930 . S
C1041 C1040 1.388 . S
C1041 C1042 1.390 . S
C1042 C1041 1.390 . S
C1042 C1043 1.394 . S
C1042 C1048 1.465 . S
C1043 C1038 1.399 . S
C1043 C1042 1.394 . S
C1043 C1044 1.516 . S
C1044 C1043 1.516 . S
C1044 C1045 1.502 . S
C1044 C1046 1.561 . S
C1044 C1047 1.526 . S
C1045 H1029 0.959 . S
C1045 H1030 0.959 . S
C1045 H1031 0.961 . S
C1045 C1044 1.502 . S
C1046 H1032 0.960 . S
C1046 H1033 0.961 . S
C1046 H1034 0.959 . S
C1046 C1044 1.561 . S
C1047 C1044 1.526 . S
C1047 C1048 1.396 . S
C1047 C1052 1.390 . S
C1048 C1042 1.465 . S
C1048 C1047 1.396 . S
C1048 C1049 1.399 . S
C1049 H1035 0.929 . S
C1049 C1048 1.399 . S
C1049 C1050 1.385 . S
C1050 H1036 0.931 . S
C1050 C1049 1.385 . S
C1050 C1051 1.389 . S
C1051 C1050 1.389 . S
C1051 C1052 1.387 . S
C1052 H1037 0.930 . S
C1052 C1047 1.390 . S
C1052 C1051 1.387 . S
H1053 C1065 0.930 . S
H1054 C1067 0.930 . S
H1055 C1068 0.930 . S
H1056 C1072 0.959 . S
H1057 C1072 0.959 . S
H1058 C1072 0.961 . S
H1059 C1073 0.960 . S
H1060 C1073 0.961 . S
H1061 C1073 0.959 . S
H1062 C1076 0.929 . S
H1063 C1077 0.931 . S
H1064 C1079 0.930 . S
C1065 H1053 0.930 . S
C1065 C1066 1.399 . S
C1065 C1070 1.399 . S
C1066 C1065 1.399 . S
C1066 C1067 1.376 . S
C1067 H1054 0.930 . S
C1067 C1066 1.376 . S
C1067 C1068 1.388 . S
C1068 H1055 0.930 . S
C1068 C1067 1.388 . S
C1068 C1069 1.390 . S
C1069 C1068 1.390 . S
C1069 C1070 1.394 . S
C1069 C1075 1.465 . S
C1070 C1065 1.399 . S
C1070 C1069 1.394 . S
C1070 C1071 1.516 . S
C1071 C1070 1.516 . S
C1071 C1072 1.502 . S
C1071 C1073 1.561 . S
C1071 C1074 1.526 . S
C1072 H1056 0.959 . S
C1072 H1057 0.959 . S
C1072 H1058 0.961 . S
C1072 C1071 1.502 . S
C1073 H1059 0.960 . S
C1073 H1060 0.961 . S
C1073 H1061 0.959 . S
C1073 C1071 1.561 . S
C1074 C1071 1.526 . S
C1074 C1075 1.396 . S
C1074 C1079 1.390 . S
C1075 C1069 1.465 . S
C1075 C1074 1.396 . S
C1075 C1076 1.399 . S
C1076 H1062 0.929 . S
C1076 C1075 1.399 . S
C1076 C1077 1.385 . S
C1077 H1063 0.931 . S
C1077 C1076 1.385 . S
C1077 C1078 1.389 . S
C1078 C1077 1.389 . S
C1078 C1079 1.387 . S
C1079 H1064 0.930 . S
C1079 C1074 1.390 . S
C1079 C1078 1.387 . S
C445 C3 1.320 . S
C457 C398 1.267 . S
C472 C218 1.488 . S
C484 C38 1.427 . S
C499 C74 1.288 . S
C511 C255 1.334 . S
C526 C290 1.316 . S
C538 C111 1.314 . S
C553 C326 1.479 . S
C565 C146 1.464 . S
C580 C363 1.331 . S
C592 C182 1.318 . S
C607 C112 1.223 . S
C619 C302 1.264 . S
C634 C158 1.407 . S
C646 C338 1.384 . S
C661 C194 1.265 . S
C673 C364 1.221 . S
C688 C410 1.273 . S
C700 C4 1.212 . S
C715 C50 1.358 . S
C727 C230 1.384 . S
C742 C86 1.227 . S
C754 C256 1.268 . S
C769 C291 1.600 . S
C781 C2 1.575 . S
C796 C327 1.572 . S
C808 C39 1.575 . S
C823 C75 1.592 . S
C835 C362 1.595 . S
C850 C110 1.601 . S
C862 C399 1.591 . S
C877 C147 1.580 . S
C889 C219 1.589 . S
C904 C254 1.568 . S
C916 C183 1.607 . S
C931 C14 1.469 . S
C943 C374 1.409 . S
C958 C400 1.539 . S
C970 C40 1.531 . S
C985 C76 1.539 . S
C997 C220 1.530 . S
C1012 C122 1.408 . S
C1024 C266 1.475 . S
C1039 C148 1.536 . S
C1051 C292 1.532 . S
C1066 C184 1.539 . S
C1078 C328 1.529 . S
