# Generated by pormake.
# Topology unp, (4)-cn, num edge types: 1
# Building blocks:
#     Node 0, Type 0, BuildingBlock: GALJAG_clean_sbu_0, # of connection points: 4
#     Node 1, Type 0, BuildingBlock: GALJAG_clean_sbu_0, # of connection points: 4
#     Node 2, Type 0, BuildingBlock: GALJAG_clean_sbu_0, # of connection points: 4
#     Node 3, Type 0, BuildingBlock: GALJAG_clean_sbu_0, # of connection points: 4
#     Node 4, Type 0, BuildingBlock: GALJAG_clean_sbu_0, # of connection points: 4
#     Node 5, Type 0, BuildingBlock: GALJAG_clean_sbu_0, # of connection points: 4
#     Node 6, Type 0, BuildingBlock: GALJAG_clean_sbu_0, # of connection points: 4
#     Node 7, Type 0, BuildingBlock: GALJAG_clean_sbu_0, # of connection points: 4
#     Node 8, Type 0, BuildingBlock: GALJAG_clean_sbu_0, # of connection points: 4
#     Node 9, Type 0, BuildingBlock: GALJAG_clean_sbu_0, # of connection points: 4
#     Node 10, Type 0, BuildingBlock: GALJAG_clean_sbu_0, # of connection points: 4
#     Node 11, Type 0, BuildingBlock: GALJAG_clean_sbu_0, # of connection points: 4
#     Node 12, Type 0, BuildingBlock: GALJAG_clean_sbu_0, # of connection points: 4
#     Node 13, Type 0, BuildingBlock: GALJAG_clean_sbu_0, # of connection points: 4
#     Node 14, Type 0, BuildingBlock: GALJAG_clean_sbu_0, # of connection points: 4
#     Node 15, Type 0, BuildingBlock: GALJAG_clean_sbu_0, # of connection points: 4
#     Node 16, Type 0, BuildingBlock: GALJAG_clean_sbu_0, # of connection points: 4
#     Node 17, Type 0, BuildingBlock: GALJAG_clean_sbu_0, # of connection points: 4
#     Edge 18, Type (0, 0), BuildingBlock: OJICUG_clean_linker_0, # of connection points: 2
#     Edge 19, Type (0, 0), BuildingBlock: OJICUG_clean_linker_0, # of connection points: 2
#     Edge 20, Type (0, 0), BuildingBlock: OJICUG_clean_linker_0, # of connection points: 2
#     Edge 21, Type (0, 0), BuildingBlock: OJICUG_clean_linker_0, # of connection points: 2
#     Edge 22, Type (0, 0), BuildingBlock: OJICUG_clean_linker_0, # of connection points: 2
#     Edge 23, Type (0, 0), BuildingBlock: OJICUG_clean_linker_0, # of connection points: 2
#     Edge 24, Type (0, 0), BuildingBlock: OJICUG_clean_linker_0, # of connection points: 2
#     Edge 25, Type (0, 0), BuildingBlock: OJICUG_clean_linker_0, # of connection points: 2
#     Edge 26, Type (0, 0), BuildingBlock: OJICUG_clean_linker_0, # of connection points: 2
#     Edge 27, Type (0, 0), BuildingBlock: OJICUG_clean_linker_0, # of connection points: 2
#     Edge 28, Type (0, 0), BuildingBlock: OJICUG_clean_linker_0, # of connection points: 2
#     Edge 29, Type (0, 0), BuildingBlock: OJICUG_clean_linker_0, # of connection points: 2
#     Edge 30, Type (0, 0), BuildingBlock: OJICUG_clean_linker_0, # of connection points: 2
#     Edge 31, Type (0, 0), BuildingBlock: OJICUG_clean_linker_0, # of connection points: 2
#     Edge 32, Type (0, 0), BuildingBlock: OJICUG_clean_linker_0, # of connection points: 2
#     Edge 33, Type (0, 0), BuildingBlock: OJICUG_clean_linker_0, # of connection points: 2
#     Edge 34, Type (0, 0), BuildingBlock: OJICUG_clean_linker_0, # of connection points: 2
#     Edge 35, Type (0, 0), BuildingBlock: OJICUG_clean_linker_0, # of connection points: 2
#     Edge 36, Type (0, 0), BuildingBlock: OJICUG_clean_linker_0, # of connection points: 2
#     Edge 37, Type (0, 0), BuildingBlock: OJICUG_clean_linker_0, # of connection points: 2
#     Edge 38, Type (0, 0), BuildingBlock: OJICUG_clean_linker_0, # of connection points: 2
#     Edge 39, Type (0, 0), BuildingBlock: OJICUG_clean_linker_0, # of connection points: 2
#     Edge 40, Type (0, 0), BuildingBlock: OJICUG_clean_linker_0, # of connection points: 2
#     Edge 41, Type (0, 0), BuildingBlock: OJICUG_clean_linker_0, # of connection points: 2
#     Edge 42, Type (0, 0), BuildingBlock: OJICUG_clean_linker_0, # of connection points: 2
#     Edge 43, Type (0, 0), BuildingBlock: OJICUG_clean_linker_0, # of connection points: 2
#     Edge 44, Type (0, 0), BuildingBlock: OJICUG_clean_linker_0, # of connection points: 2
#     Edge 45, Type (0, 0), BuildingBlock: OJICUG_clean_linker_0, # of connection points: 2
#     Edge 46, Type (0, 0), BuildingBlock: OJICUG_clean_linker_0, # of connection points: 2
#     Edge 47, Type (0, 0), BuildingBlock: OJICUG_clean_linker_0, # of connection points: 2
#     Edge 48, Type (0, 0), BuildingBlock: OJICUG_clean_linker_0, # of connection points: 2
#     Edge 49, Type (0, 0), BuildingBlock: OJICUG_clean_linker_0, # of connection points: 2
#     Edge 50, Type (0, 0), BuildingBlock: OJICUG_clean_linker_0, # of connection points: 2
#     Edge 51, Type (0, 0), BuildingBlock: OJICUG_clean_linker_0, # of connection points: 2
#     Edge 52, Type (0, 0), BuildingBlock: OJICUG_clean_linker_0, # of connection points: 2
#     Edge 53, Type (0, 0), BuildingBlock: OJICUG_clean_linker_0, # of connection points: 2
# Relax obj value: 0.397
# Max RMSD: 0.140
# Mean RMSD: 0.140
data_MOF--net-unp--node1-GALJAG_clean_sbu_0--edge1-OJICUG_clean_linker_0
_symmetry_space_group_name_H-M    P1
_symmetry_Int_Tables_number       1
_symmetry_cell_setting            triclinic
loop_
_symmetry_equiv_pos_as_xyz
'x, y, z'
_cell_length_a     36.519053
_cell_length_b     36.499978
_cell_length_c     31.323601
_cell_angle_alpha  90.086248
_cell_angle_beta   90.054981
_cell_angle_gamma 119.99446
loop_
_atom_site_label
_atom_site_type_symbol
_atom_site_fract_x
_atom_site_fract_y
_atom_site_fract_z
_atom_type_partial_charge
In0 In 0.15905 0.14125 0.15054 0.0
O1 O 0.21978 0.20158 0.17325 0.0
O2 O 0.22238 0.16924 0.1183 0.0
C3 C 0.0983 0.14868 0.19199 0.0
C4 C 0.12161 0.12804 0.07368 0.0
C5 C 0.15299 0.06954 0.18092 0.0
O6 O 0.11258 0.1257 0.20534 0.0
O7 O 0.11754 0.17095 0.16005 0.0
O8 O 0.15444 0.0776 0.14158 0.0
O9 O 0.15632 0.09863 0.20541 0.0
C10 C 0.24176 0.2003 0.14281 0.0
O11 O 0.12538 0.09963 0.09267 0.0
O12 O 0.13615 0.1625 0.09376 0.0
In13 In 0.84202 0.00995 0.17605 0.0
O14 O 0.77495 -0.0002 0.17633 0.0
O15 O 0.82226 0.05165 0.2113 0.0
C16 C 0.82634 0.93397 0.20627 0.0
C17 C 0.84699 0.00904 0.09024 0.0
C18 C 0.92131 0.07052 0.19726 0.0
O19 O 0.83918 0.96609 0.22984 0.0
O20 O 0.81821 0.93946 0.16853 0.0
O21 O 0.90255 0.07286 0.16444 0.0
O22 O 0.89978 0.03807 0.2197 0.0
C23 C 0.78472 0.0326 0.19785 0.0
O24 O 0.8702 0.00124 0.11406 0.0
O25 O 0.82193 0.01749 0.10975 0.0
In26 In 0.9718 0.83529 0.17206 0.0
O27 O 0.94133 0.82862 0.10734 0.0
O28 O -0.0019 0.88598 0.12 0.0
C29 C 0.90436 0.837 0.20545 0.0
C30 C 0.96606 0.75858 0.16948 0.0
C31 C 0.0474 0.8965 0.20149 0.0
O32 O 0.90427 0.82223 0.1691 0.0
O33 O 0.93795 0.84876 0.22651 0.0
O34 O 0.01299 0.88716 0.21969 0.0
O35 O 0.04366 0.87265 0.17058 0.0
C36 C 0.96939 0.864 0.09349 0.0
O37 O 0.97874 0.78415 0.13898 0.0
O38 O 0.95824 0.77243 0.2032 0.0
In39 In 0.14516 0.16271 0.81624 0.0
O40 O 0.20436 0.21379 0.84777 0.0
O41 O 0.19395 0.22465 0.78371 0.0
C42 C 0.16276 0.10245 0.79147 0.0
C43 C 0.11114 0.13779 0.89457 0.0
C44 C 0.07614 0.15911 0.77991 0.0
O45 O 0.14234 0.11421 0.76807 0.0
O46 O 0.17678 0.12343 0.82553 0.0
O47 O 0.09457 0.18146 0.81213 0.0
O48 O 0.09416 0.14041 0.76411 0.0
C49 C 0.21643 0.23897 0.81691 0.0
O50 O 0.12244 0.17386 0.87956 0.0
O51 O 0.11561 0.11333 0.86942 0.0
In52 In 0.84118 0.99317 0.82056 0.0
O53 O 0.8693 0.99017 0.88501 0.0
O54 O 0.82071 0.00612 0.88441 0.0
C55 C 0.86328 0.93529 0.79937 0.0
C56 C 0.75922 0.96248 0.79983 0.0
C57 C 0.90166 0.06743 0.78744 0.0
O58 O 0.8419 0.9319 0.83235 0.0
O59 O 0.87318 0.96769 0.77708 0.0
O60 O 0.87724 0.03654 0.76418 0.0
O61 O 0.89344 0.06165 0.82667 0.0
C62 C 0.84598 -0.00021 0.90636 0.0
O63 O 0.78166 -0.00087 0.8149 0.0
O64 O 0.7789 0.94308 0.79241 0.0
In65 In 0.02721 0.85986 0.84135 0.0
O66 O 0.03555 0.90132 0.89946 0.0
O67 O 0.98035 0.84067 0.89553 0.0
C68 C 0.09512 0.92987 0.81166 0.0
C69 C 0.04785 0.79877 0.8511 0.0
C70 C 0.96092 0.85529 0.7986 0.0
O71 O 0.08747 0.92213 0.85094 0.0
O72 O 0.06929 0.90107 0.78689 0.0
O73 O -0.00125 0.88016 0.78816 0.0
O74 O 0.95654 0.82964 0.82777 0.0
C75 C 0.00122 0.87442 0.91649 0.0
O76 O 0.02752 0.79952 0.81878 0.0
O77 O 0.05808 0.8288 0.8767 0.0
In78 In 0.83185 0.47116 0.48727 0.0
O79 O 0.89248 0.531 0.51119 0.0
O80 O 0.89673 0.49495 0.46043 0.0
C81 C 0.76926 0.47529 0.52893 0.0
C82 C 0.80007 0.46736 0.4091 0.0
C83 C 0.82252 0.39659 0.51187 0.0
O84 O 0.78524 0.45386 0.54244 0.0
O85 O 0.78819 0.49829 0.49733 0.0
O86 O 0.82296 0.40658 0.4732 0.0
O87 O 0.82797 0.42491 0.5386 0.0
C88 C 0.91563 0.52705 0.48375 0.0
O89 O 0.79803 0.43529 0.4267 0.0
O90 O 0.81781 0.50082 0.43106 0.0
In91 In 0.51133 0.33169 0.50605 0.0
O92 O 0.44571 0.32533 0.50934 0.0
O93 O 0.497 0.37892 0.53819 0.0
C94 C 0.49602 0.25614 0.5372 0.0
C95 C 0.51107 0.3278 0.42005 0.0
C96 C 0.59108 0.39024 0.52771 0.0
O97 O 0.50344 0.28681 0.56125 0.0
O98 O 0.49364 0.2629 0.49822 0.0
O99 O 0.57227 0.39447 0.49585 0.0
O100 O 0.56954 0.35664 0.54865 0.0
C101 C 0.45858 0.36032 0.52781 0.0
O102 O 0.54292 0.33443 0.4419 0.0
O103 O 0.47991 0.32316 0.44159 0.0
In104 In 0.64138 0.16086 0.50233 0.0
O105 O 0.65013 0.11161 0.46767 0.0
O106 O 0.63181 0.09909 0.53251 0.0
C107 C 0.71856 0.22226 0.52733 0.0
C108 C 0.63184 0.1884 0.42558 0.0
C109 C 0.57519 0.1613 0.54061 0.0
O110 O 0.68629 0.2097 0.55068 0.0
O111 O 0.71211 0.20149 0.4932 0.0
O112 O 0.57187 0.1413 0.5067 0.0
O113 O 0.61161 0.17879 0.55712 0.0
C114 C 0.63956 0.0861 0.49814 0.0
O115 O 0.66042 0.21215 0.45142 0.0
O116 O 0.60744 0.15162 0.43922 0.0
In117 In 0.80905 0.50426 0.14936 0.0
O118 O 0.79629 0.51957 0.21572 0.0
O119 O 0.78237 0.45654 0.20398 0.0
C120 C 0.73721 0.49976 0.11996 0.0
C121 C 0.88002 0.58068 0.1445 0.0
C122 C 0.82135 0.44082 0.12267 0.0
O123 O 0.75353 0.51551 0.15557 0.0
O124 O 0.75851 0.48826 0.09768 0.0
O125 O 0.79892 0.45212 0.1021 0.0
O126 O 0.84006 0.4638 0.15452 0.0
C127 C 0.78375 0.48316 0.23063 0.0
O128 O 0.87224 0.55518 0.17453 0.0
O129 O 0.85335 0.56652 0.11447 0.0
In130 In 0.5005 0.32556 0.15013 0.0
O131 O 0.53583 0.3302 0.21232 0.0
O132 O 0.47257 0.31797 0.21622 0.0
C133 C 0.51864 0.26527 0.12609 0.0
C134 C 0.42094 0.30408 0.12783 0.0
C135 C 0.56164 0.40216 0.12222 0.0
O136 O 0.49701 0.26173 0.15882 0.0
O137 O 0.53044 0.29882 0.10523 0.0
O138 O 0.54139 0.37122 0.09743 0.0
O139 O 0.54865 0.39528 0.16018 0.0
C140 C 0.50515 0.32374 0.23595 0.0
O141 O 0.44389 0.33628 0.15018 0.0
O142 O 0.4393 0.28504 0.11402 0.0
In143 In 0.68401 0.19409 0.17136 0.0
O144 O 0.68898 0.23389 0.22984 0.0
O145 O 0.63805 0.17052 0.22653 0.0
C146 C 0.74984 0.26668 0.14309 0.0
C147 C 0.70925 0.1363 0.17983 0.0
C148 C 0.61669 0.18657 0.12797 0.0
O149 O 0.74176 0.25824 0.1822 0.0
O150 O 0.72538 0.23763 0.11776 0.0
O151 O 0.65427 0.21072 0.11622 0.0
O152 O 0.61309 0.16315 0.15909 0.0
C153 C 0.65655 0.20453 0.24753 0.0
O154 O 0.68604 0.13452 0.14905 0.0
O155 O 0.72016 0.16728 0.20428 0.0
In156 In 0.49513 0.80536 0.81897 0.0
O157 O 0.55605 0.86619 0.84033 0.0
O158 O 0.56038 0.82523 0.79531 0.0
C159 C 0.43436 0.81299 0.86041 0.0
C160 C 0.46569 0.80161 0.73963 0.0
C161 C 0.48266 0.73013 0.84572 0.0
O162 O 0.45182 0.79381 0.87622 0.0
O163 O 0.4506 0.83176 0.82594 0.0
O164 O 0.48355 0.73938 0.80675 0.0
O165 O 0.48894 0.75933 0.87162 0.0
C166 C 0.57934 0.85931 0.81571 0.0
O167 O 0.46088 0.76904 0.75871 0.0
O168 O 0.48473 0.8355 0.76083 0.0
In169 In 0.17777 0.67066 0.84584 0.0
O170 O 0.11076 0.66049 0.84515 0.0
O171 O 0.15671 0.71023 0.88334 0.0
C172 C 0.16132 0.59394 0.87444 0.0
C173 C 0.18339 0.67155 0.76 0.0
C174 C 0.25707 0.73124 0.8674 0.0
O175 O 0.17441 0.62568 0.89863 0.0
O176 O 0.15345 0.60024 0.83688 0.0
O177 O 0.23766 0.73447 0.83562 0.0
O178 O 0.23621 0.69782 0.8887 0.0
C179 C 0.11968 0.692 0.86847 0.0
O180 O 0.20527 0.66167 0.78347 0.0
O181 O 0.15939 0.68119 0.7799 0.0
In182 In 0.30416 0.49227 0.83987 0.0
O183 O 0.31497 0.44195 0.81052 0.0
O184 O 0.29018 0.43028 0.87317 0.0
C185 C 0.37968 0.5557 0.86672 0.0
C186 C 0.29955 0.51678 0.76003 0.0
C187 C 0.23677 0.49449 0.87257 0.0
O188 O 0.34574 0.54515 0.88647 0.0
O189 O 0.3757 0.53196 0.83566 0.0
O190 O 0.23684 0.47987 0.83616 0.0
O191 O 0.27007 0.5057 0.89397 0.0
C192 C 0.30076 0.41662 0.84116 0.0
O193 O 0.2743 0.48042 0.77422 0.0
O194 O 0.3263 0.54165 0.78677 0.0
In195 In 0.48448 0.83372 0.47865 0.0
O196 O 0.54833 0.88376 0.50306 0.0
O197 O 0.52962 0.89493 0.44279 0.0
C198 C 0.49808 0.77027 0.45581 0.0
C199 C 0.45687 0.81541 0.55965 0.0
C200 C 0.41328 0.82898 0.44689 0.0
O201 O 0.47881 0.78288 0.43182 0.0
O202 O 0.51297 0.79185 0.48935 0.0
O203 O 0.43209 0.85004 0.47966 0.0
O204 O 0.43189 0.81219 0.42827 0.0
C205 C 0.5565 0.90898 0.47267 0.0
O206 O 0.47232 0.8519 0.54392 0.0
O207 O 0.45395 0.78739 0.534 0.0
In208 In 0.17743 0.66083 0.49006 0.0
O209 O 0.20435 0.65467 0.55407 0.0
O210 O 0.15837 0.67416 0.55449 0.0
C211 C 0.19838 0.60252 0.46704 0.0
C212 C 0.09552 0.6316 0.46982 0.0
C213 C 0.23852 0.73552 0.45823 0.0
O214 O 0.17641 0.5984 0.49975 0.0
O215 O 0.20949 0.63589 0.44598 0.0
O216 O 0.21337 0.70556 0.43439 0.0
O217 O 0.23086 0.72862 0.49745 0.0
C218 C 0.18238 0.66564 0.57595 0.0
O219 O 0.11791 0.66704 0.48737 0.0
O220 O 0.11522 0.61281 0.45977 0.0
In221 In 0.35997 0.52422 0.50536 0.0
O222 O 0.36432 0.56219 0.56516 0.0
O223 O 0.31428 0.49842 0.56053 0.0
C224 C 0.42619 0.59653 0.47766 0.0
C225 C 0.38549 0.46661 0.51197 0.0
C226 C 0.29346 0.51987 0.46308 0.0
O227 O 0.41718 0.58846 0.51672 0.0
O228 O 0.40235 0.56729 0.45216 0.0
O229 O 0.33119 0.54377 0.45169 0.0
O230 O 0.2892 0.49481 0.4928 0.0
C231 C 0.33211 0.53197 0.58229 0.0
O232 O 0.36069 0.46416 0.48251 0.0
O233 O 0.39764 0.49808 0.53603 0.0
C234 C 0.3517 0.25149 0.09715 0.0
C235 C 0.37461 0.28428 0.12632 0.0
H236 H 0.29175 0.1995 0.07953 0.0
C237 C 0.35287 0.29232 0.15872 0.0
H238 H 0.3677 0.24463 0.07193 0.0
C239 C 0.30919 0.26586 0.16367 0.0
C240 C 0.28681 0.23138 0.13601 0.0
H241 H 0.36994 0.31724 0.18191 0.0
H242 H 0.29333 0.2714 0.18999 0.0
C243 C 0.30824 0.22545 0.10181 0.0
C244 C 0.76914 0.08663 0.22664 0.0
C245 C 0.75856 0.05284 0.1986 0.0
H246 H 0.76165 0.13928 0.24261 0.0
C247 C 0.72829 0.04395 0.16644 0.0
H248 H 0.79242 0.09419 0.25162 0.0
C249 C 0.71112 0.07037 0.16065 0.0
C250 C 0.72373 0.10568 0.18724 0.0
H251 H 0.71991 0.01825 0.1441 0.0
H252 H 0.6892 0.06403 0.13459 0.0
C253 C 0.75175 0.11264 0.22116 0.0
C254 C 0.92316 0.65334 0.11461 0.0
C255 C 0.91125 0.6259 0.14956 0.0
H256 H 0.95143 0.71745 0.09372 0.0
C257 C 0.92379 0.64285 0.19092 0.0
H258 H 0.91392 0.64105 0.08249 0.0
C259 C 0.94415 0.68651 0.19758 0.0
C260 C 0.95334 0.71383 0.16285 0.0
H261 H 0.91492 0.62235 0.21854 0.0
H262 H 0.95072 0.6987 0.22993 0.0
C263 C 0.94462 0.69703 0.12117 0.0
C264 C 0.28427 0.35514 0.7944 0.0
C265 C 0.28913 0.37201 0.83584 0.0
H266 H 0.25683 0.29914 0.75567 0.0
C267 C 0.27664 0.34473 0.87096 0.0
H268 H 0.29374 0.37553 0.76665 0.0
C269 C 0.25654 0.30105 0.86458 0.0
C270 C 0.24763 0.28406 0.82298 0.0
H271 H 0.28024 0.35696 0.90316 0.0
H272 H 0.24497 0.28062 0.89225 0.0
C273 C 0.26314 0.31144 0.78798 0.0
C274 C 0.69022 0.95373 0.82485 0.0
C275 C 0.71276 0.9405 0.79869 0.0
H276 H 0.62986 0.93787 0.85156 0.0
C277 C 0.69077 0.90213 0.7765 0.0
H278 H 0.70662 0.98306 0.84268 0.0
C279 C 0.64738 0.87645 0.78174 0.0
C280 C 0.62496 0.8884 0.80954 0.0
H281 H 0.70737 0.89116 0.75621 0.0
H282 H 0.6316 0.84658 0.76474 0.0
C283 C 0.64651 0.92772 0.83037 0.0
C284 C 0.10312 0.74478 0.899 0.0
C285 C 0.09368 0.71241 0.86942 0.0
H286 H 0.09571 0.79719 0.91639 0.0
C287 C 0.06513 0.70553 0.83601 0.0
H288 H 0.12507 0.75078 0.92496 0.0
C289 C 0.04887 0.73276 0.83047 0.0
C290 C 0.06059 0.76682 0.85859 0.0
H291 H 0.05763 0.68097 0.81249 0.0
H292 H 0.02853 0.72813 0.80337 0.0
C293 C 0.08655 0.77154 0.89379 0.0
C294 C 0.98366 0.54751 0.44777 0.0
C295 C 0.96119 0.55691 0.47811 0.0
H296 H 0.04376 0.5644 0.42086 0.0
C297 C 0.98272 0.59425 0.50223 0.0
H298 H 0.96792 0.51922 0.42827 0.0
C299 C 0.02645 0.62069 0.49734 0.0
C300 C 0.04906 0.6098 0.46857 0.0
H301 H 0.96604 0.60244 0.52548 0.0
H302 H 0.04282 0.64834 0.51762 0.0
C303 C 0.0271 0.57354 0.4432 0.0
C304 C 0.43081 0.4444 0.55011 0.0
C305 C 0.40018 0.43605 0.51855 0.0
H306 H 0.47276 0.42634 0.57824 0.0
C307 C 0.38486 0.39919 0.49375 0.0
H308 H 0.44293 0.47232 0.57012 0.0
C309 C 0.40153 0.37227 0.49911 0.0
C310 C 0.43402 0.38223 0.52897 0.0
H311 H 0.36094 0.3918 0.46954 0.0
H312 H 0.39076 0.3451 0.47823 0.0
C313 C 0.44771 0.41792 0.55509 0.0
C314 C 0.62091 0.01466 0.52551 0.0
C315 C 0.62864 0.04191 0.49102 0.0
H316 H 0.59328 0.95057 0.54624 0.0
C317 C 0.61966 0.02525 0.44929 0.0
H318 H 0.62777 0.02677 0.55789 0.0
C319 C 0.59895 0.9816 0.44259 0.0
C320 C 0.58803 0.95413 0.47743 0.0
H321 H 0.62545 0.04563 0.422 0.0
H322 H 0.58919 0.96933 0.41054 0.0
C323 C 0.60129 0.97108 0.51869 0.0
C324 C 0.03417 0.15388 0.1767 0.0
C325 C 0.05554 0.13996 0.20364 0.0
H326 H 0.97419 0.14245 0.15354 0.0
C327 C 0.03252 0.10947 0.23489 0.0
H328 H 0.05109 0.17752 0.15243 0.0
C329 C 0.98842 0.08941 0.23553 0.0
C330 C 0.96681 0.09947 0.20481 0.0
H331 H 0.04818 0.09834 0.25629 0.0
H332 H 0.97129 0.06359 0.25767 0.0
C333 C 0.99006 0.13359 0.17713 0.0
C334 C 0.81977 0.86453 0.18848 0.0
C335 C 0.83293 0.89835 0.21725 0.0
H336 H 0.83169 0.81717 0.16302 0.0
C337 C 0.8615 0.90327 0.24993 0.0
H338 H 0.79738 0.85965 0.16331 0.0
C339 C 0.88154 0.87911 0.24956 0.0
C340 C 0.87295 0.84965 0.21669 0.0
H341 H 0.87203 0.9289 0.27278 0.0
H342 H 0.90683 0.88672 0.27218 0.0
C343 C 0.83953 0.84023 0.18829 0.0
C344 C 0.14212 -0.00246 0.16856 0.0
C345 C 0.13845 0.02613 0.19573 0.0
H346 H 0.11684 0.93292 0.15037 0.0
C347 C 0.11246 0.01067 0.23192 0.0
H348 H 0.16229 0.00876 0.14067 0.0
C349 C 0.08582 0.9671 0.23718 0.0
C350 C 0.08537 0.93865 0.2066 0.0
H351 H 0.10916 0.03209 0.25345 0.0
H352 H 0.06273 0.95608 0.26267 0.0
C353 C 0.11609 0.95405 0.17423 0.0
C354 C 0.15621 0.0015 0.82516 0.0
C355 C 0.12493 0.97309 0.79702 0.0
H356 H 0.19452 0.06597 0.8443 0.0
C357 C 0.11579 0.98879 0.76005 0.0
H358 H 0.16417 0.99013 0.85364 0.0
C359 C 0.13279 0.0324 0.7549 0.0
C360 C 0.15933 0.06059 0.78652 0.0
H361 H 0.09187 0.96751 0.73774 0.0
H362 H 0.12157 0.04354 0.72871 0.0
C363 C 0.17359 0.045 0.81974 0.0
C364 C 0.01014 0.1602 0.79664 0.0
C365 C 0.03201 0.14697 0.76955 0.0
H366 H 0.95021 0.14493 0.82319 0.0
C367 C 0.00899 0.11484 0.73954 0.0
H368 H 0.02701 0.18529 0.81972 0.0
C369 C 0.96478 0.09222 0.74103 0.0
C370 C 0.94333 0.10118 0.77292 0.0
H371 H 0.02502 0.10428 0.71796 0.0
H372 H 0.94796 0.0646 0.72078 0.0
C373 C 0.96608 0.13719 0.79858 0.0
C374 C 0.93548 0.89728 0.75882 0.0
C375 C 0.92737 0.86516 0.78833 0.0
H376 H 0.921 0.94466 0.73898 0.0
C377 C 0.89214 0.85061 0.8154 0.0
H378 H 0.9623 0.90899 0.73745 0.0
C379 C 0.86891 0.87153 0.81679 0.0
C380 C 0.88022 0.90684 0.79071 0.0
H381 H 0.88504 0.82586 0.83846 0.0
H382 H 0.84411 0.86192 0.84037 0.0
C383 C 0.91198 0.9179 0.75991 0.0
C384 C 0.70367 0.47751 0.51257 0.0
C385 C 0.72527 0.46355 0.53917 0.0
H386 H 0.64374 0.46485 0.48791 0.0
C387 C 0.70195 0.43059 0.5681 0.0
H388 H 0.72074 0.50296 0.49003 0.0
C389 C 0.65779 0.40871 0.56679 0.0
C390 C 0.63633 0.41943 0.53649 0.0
H391 H 0.71771 0.41925 0.58911 0.0
H392 H 0.64068 0.38142 0.58725 0.0
C393 C 0.65952 0.45546 0.51108 0.0
C394 C 0.48866 0.18579 0.52385 0.0
C395 C 0.50252 0.22114 0.55064 0.0
H396 H 0.50023 0.13741 0.50088 0.0
C397 C 0.53223 0.2282 0.58278 0.0
H398 H 0.46548 0.17945 0.49909 0.0
C399 C 0.5528 0.20454 0.58338 0.0
C400 C 0.5434 0.17335 0.55217 0.0
H401 H 0.54341 0.25521 0.60396 0.0
H402 H 0.57906 0.21382 0.60517 0.0
C403 C 0.50871 0.16177 0.52487 0.0
C404 C 0.81074 0.32519 0.49431 0.0
C405 C 0.80806 0.35251 0.52404 0.0
H406 H 0.78533 0.2614 0.47321 0.0
C407 C 0.78371 0.33554 0.56106 0.0
H408 H 0.82974 0.3376 0.46576 0.0
C409 C 0.75771 0.29173 0.56513 0.0
C410 C 0.75622 0.2646 0.53241 0.0
H411 H 0.78124 0.35602 0.58454 0.0
H412 H 0.73583 0.27956 0.59166 0.0
C413 C 0.78534 0.28151 0.49869 0.0
C414 C 0.811 0.33823 0.15703 0.0
C415 C 0.77927 0.3102 0.12905 0.0
H416 H 0.85103 0.40257 0.1757 0.0
C417 C 0.77007 0.32627 0.0924 0.0
H418 H 0.81892 0.32653 0.1853 0.0
C419 C 0.78799 0.36999 0.08717 0.0
C420 C 0.81566 0.39798 0.11828 0.0
H421 H 0.74573 0.30526 0.07028 0.0
H422 H 0.77703 0.38156 0.06112 0.0
C423 C 0.82944 0.38183 0.15142 0.0
C424 C 0.67107 0.45776 0.07738 0.0
C425 C 0.6926 0.48646 0.11064 0.0
H426 H 0.61131 0.40866 0.05426 0.0
C427 C 0.66919 0.49496 0.14064 0.0
H428 H 0.68829 0.45086 0.05357 0.0
C429 C 0.62515 0.47065 0.1412 0.0
C430 C 0.6039 0.43775 0.11156 0.0
H431 H 0.68492 0.51741 0.1663 0.0
H432 H 0.60816 0.47487 0.16732 0.0
C433 C 0.62689 0.43363 0.07773 0.0
C434 C 0.52332 0.20099 0.1433 0.0
C435 C 0.53481 0.23624 0.11708 0.0
H436 H 0.53981 0.15595 0.16612 0.0
C437 C 0.5668 0.24724 0.08657 0.0
H438 H 0.49832 0.1914 0.16665 0.0
C439 C 0.59063 0.22695 0.08625 0.0
C440 C 0.58266 0.19533 0.11634 0.0
H441 H 0.57592 0.27391 0.06548 0.0
H442 H 0.61774 0.2388 0.06525 0.0
C443 C 0.54694 0.18047 0.14276 0.0
C444 C 0.32499 0.79559 0.84792 0.0
C445 C 0.30252 0.76062 0.87483 0.0
H446 H 0.38546 0.84113 0.82335 0.0
C447 C 0.3249 0.75047 0.90454 0.0
H448 H 0.30853 0.80456 0.82515 0.0
C449 C 0.36906 0.7715 0.9036 0.0
C450 C 0.39136 0.80294 0.87292 0.0
H451 H 0.30836 0.72399 0.92609 0.0
H452 H 0.38534 0.76036 0.92413 0.0
C453 C 0.36912 0.81673 0.84709 0.0
C454 C 0.17308 0.49955 0.85468 0.0
C455 C 0.20574 0.50769 0.88362 0.0
H456 H 0.13223 0.52057 0.82964 0.0
C457 C 0.21418 0.5365 0.91712 0.0
H458 H 0.16536 0.47701 0.8289 0.0
C459 C 0.19483 0.5613 0.91773 0.0
C460 C 0.16711 0.55768 0.88468 0.0
H461 H 0.23887 0.54312 0.94017 0.0
H462 H 0.20528 0.58641 0.94119 0.0
C463 C 0.15399 0.52448 0.85512 0.0
C464 C 0.47086 0.65818 0.83092 0.0
C465 C 0.46765 0.68629 0.85917 0.0
H466 H 0.44647 0.59377 0.81249 0.0
C467 C 0.44298 0.6704 0.89615 0.0
H468 H 0.49008 0.66979 0.80242 0.0
C469 C 0.41738 0.62672 0.90166 0.0
C470 C 0.41672 0.59861 0.87054 0.0
H471 H 0.44012 0.69152 0.91848 0.0
H472 H 0.39533 0.61523 0.92808 0.0
C473 C 0.44597 0.61462 0.83685 0.0
C474 C 0.46595 0.69941 0.4205 0.0
C475 C 0.4927 0.72752 0.45204 0.0
H476 H 0.42408 0.6346 0.40362 0.0
C477 C 0.50565 0.71156 0.48607 0.0
H478 H 0.45567 0.71084 0.39376 0.0
C479 C 0.4871 0.66802 0.49202 0.0
C480 C 0.45606 0.63988 0.46356 0.0
H481 H 0.52665 0.73244 0.51064 0.0
H482 H 0.4943 0.65648 0.52087 0.0
C483 C 0.44787 0.65572 0.42613 0.0
C484 C 0.30316 0.80493 0.4701 0.0
C485 C 0.28004 0.76958 0.44371 0.0
H486 H 0.36435 0.85294 0.49065 0.0
C487 C 0.30096 0.76158 0.41049 0.0
H488 H 0.28768 0.81191 0.49575 0.0
C489 C 0.34513 0.78462 0.40801 0.0
C490 C 0.36864 0.81618 0.43838 0.0
H491 H 0.28384 0.73445 0.38971 0.0
H492 H 0.36084 0.77485 0.38515 0.0
C493 C 0.34714 0.82833 0.4672 0.0
C494 C 0.22518 0.51608 0.48046 0.0
C495 C 0.26038 0.53058 0.45335 0.0
H496 H 0.17783 0.52796 0.50629 0.0
C497 C 0.26905 0.5634 0.42454 0.0
H498 H 0.2176 0.49076 0.50295 0.0
C499 C 0.24625 0.58471 0.42651 0.0
C500 C 0.21457 0.57361 0.45741 0.0
H501 H 0.29585 0.5751 0.40314 0.0
H502 H 0.25574 0.61197 0.40616 0.0
C503 C 0.2026 0.53763 0.48266 0.0
C504 C 0.10276 0.1565 0.01074 0.0
C505 C 0.10732 0.12398 0.02913 0.0
H506 H 0.09934 0.18578 0.95308 0.0
C507 C 0.10425 0.09117 0.00312 0.0
H508 H 0.10434 0.18183 0.03018 0.0
C509 C 0.10142 0.09345 0.9588 0.0
C510 C 0.10156 0.12851 0.94019 0.0
H511 H 0.10731 0.06552 0.01663 0.0
H512 H 0.10248 0.06957 0.93912 0.0
C513 C 0.09982 0.15871 0.96659 0.0
C514 C 0.82051 0.01399 0.9747 0.0
C515 C 0.84748 0.00304 0.95335 0.0
H516 H 0.79939 0.02455 0.03459 0.0
C517 C 0.87512 0.99481 0.97731 0.0
H518 H 0.79889 0.02056 0.95711 0.0
C519 C 0.87542 -0.0029 0.02195 0.0
C520 C 0.84807 0.00767 0.0432 0.0
H521 H 0.89627 0.98632 0.96163 0.0
H522 H 0.89676 0.99031 0.03976 0.0
C523 C 0.82082 0.01629 0.01912 0.0
C524 C 0.94951 0.84842 0.97596 0.0
C525 C 0.98895 0.87906 0.95995 0.0
H526 H 0.91192 0.82032 0.03142 0.0
C527 C 0.01838 0.9103 0.98752 0.0
H528 H 0.92596 0.82441 0.9552 0.0
C529 C 0.01033 0.90796 0.03132 0.0
C530 C 0.97273 0.87441 0.04782 0.0
H531 H 0.04887 0.93455 0.97583 0.0
H532 H 0.03487 0.93036 0.05243 0.0
C533 C 0.94142 0.84617 0.01958 0.0
C534 C 0.77333 0.43702 0.29352 0.0
C535 C 0.77801 0.47479 0.27673 0.0
H536 H 0.77642 0.40484 0.34937 0.0
C537 C 0.78336 0.5072 0.30467 0.0
H538 H 0.76898 0.41146 0.27261 0.0
C539 C 0.78784 0.50351 0.34833 0.0
C540 C 0.78684 0.46729 0.36476 0.0
H541 H 0.78666 0.53651 0.29262 0.0
H542 H 0.79427 0.52998 0.36889 0.0
C543 C 0.77766 0.43326 0.33737 0.0
C544 C 0.54394 0.33142 0.3046 0.0
C545 C 0.507 0.32373 0.28301 0.0
H546 H 0.5743 0.33873 0.36525 0.0
C547 C 0.47152 0.31673 0.30681 0.0
H548 H 0.57175 0.33692 0.287 0.0
C549 C 0.47299 0.31781 0.35127 0.0
C550 C 0.50995 0.32589 0.37297 0.0
H551 H 0.44258 0.31069 0.2911 0.0
H552 H 0.44512 0.31253 0.36862 0.0
C553 C 0.5454 0.33248 0.34929 0.0
C554 C 0.66685 0.23548 0.36323 0.0
C555 C 0.63202 0.19931 0.38038 0.0
H556 H 0.70188 0.26582 0.30674 0.0
C557 C 0.60114 0.16962 0.35273 0.0
H558 H 0.69098 0.25902 0.3839 0.0
C559 C 0.60745 0.17342 0.30875 0.0
C560 C 0.64465 0.20703 0.29182 0.0
H561 H 0.57368 0.14172 0.36511 0.0
H562 H 0.58463 0.14843 0.2883 0.0
C563 C 0.67312 0.23935 0.3191 0.0
C564 C 0.45562 0.84161 0.63248 0.0
C565 C 0.44932 0.80804 0.60576 0.0
H566 H 0.46536 0.86561 0.69619 0.0
C567 C 0.44176 0.76975 0.62403 0.0
H568 H 0.46111 0.87135 0.61926 0.0
C569 C 0.44414 0.76644 0.66827 0.0
C570 C 0.45424 0.80143 0.69459 0.0
H571 H 0.43664 0.74331 0.60409 0.0
H572 H 0.44071 0.73749 0.68152 0.0
C573 C 0.45814 0.83836 0.67652 0.0
C574 C 0.21011 0.65734 0.64646 0.0
C575 C 0.18397 0.66803 0.62299 0.0
H576 H 0.23055 0.65013 0.70857 0.0
C577 C 0.15859 0.68067 0.64489 0.0
H578 H 0.23003 0.64752 0.63035 0.0
C579 C 0.15892 0.68219 0.68935 0.0
C580 C 0.18462 0.67109 0.71294 0.0
H581 H 0.13816 0.68916 0.6277 0.0
H582 H 0.13869 0.69178 0.70522 0.0
C583 C 0.21043 0.65885 0.69114 0.0
C584 C 0.28166 0.49926 0.64224 0.0
C585 C 0.31893 0.53354 0.62626 0.0
H586 H 0.24576 0.46757 0.69761 0.0
C587 C 0.34572 0.56636 0.65401 0.0
H588 H 0.26012 0.47383 0.62138 0.0
C589 C 0.33746 0.56278 0.69781 0.0
C590 C 0.30231 0.52638 0.71419 0.0
H591 H 0.37449 0.59333 0.64237 0.0
H592 H 0.36016 0.587 0.719 0.0
C593 C 0.27337 0.49573 0.68586 0.0
loop_
_geom_bond_atom_site_label_1
_geom_bond_atom_site_label_2
_geom_bond_distance
_geom_bond_site_symmetry_2
_ccdc_geom_bond_type
In0 O1 2.294 . S
In0 O2 2.326 . S
In0 O6 2.266 . S
In0 O7 2.326 . S
In0 O8 2.266 . S
In0 O9 2.326 . S
In0 O11 2.294 . S
In0 O12 2.326 . S
O1 In0 2.294 . S
O1 C10 1.240 . S
O2 In0 2.326 . S
O2 C10 1.252 . S
C3 O6 1.252 . S
C3 O7 1.260 . S
C4 O11 1.240 . S
C4 O12 1.252 . S
C5 O8 1.252 . S
C5 O9 1.260 . S
O6 In0 2.266 . S
O6 C3 1.252 . S
O7 In0 2.326 . S
O7 C3 1.260 . S
O8 In0 2.266 . S
O8 C5 1.252 . S
O9 In0 2.326 . S
O9 C5 1.260 . S
C10 O1 1.240 . S
C10 O2 1.252 . S
O11 In0 2.294 . S
O11 C4 1.240 . S
O12 In0 2.326 . S
O12 C4 1.252 . S
In13 O14 2.294 . S
In13 O15 2.326 . S
In13 O19 2.266 1_545 S
In13 O20 2.326 1_545 S
In13 O21 2.266 . S
In13 O22 2.326 . S
In13 O24 2.294 . S
In13 O25 2.326 1_545 S
O14 In13 2.294 . S
O14 C23 1.240 . S
O15 In13 2.326 . S
O15 C23 1.252 . S
C16 O19 1.252 . S
C16 O20 1.260 . S
C17 O24 1.240 1_565 S
C17 O25 1.252 . S
C18 O21 1.252 . S
C18 O22 1.260 . S
O19 In13 2.266 1_565 S
O19 C16 1.252 . S
O20 In13 2.326 1_565 S
O20 C16 1.260 . S
O21 In13 2.266 . S
O21 C18 1.252 . S
O22 In13 2.326 . S
O22 C18 1.260 . S
C23 O14 1.240 . S
C23 O15 1.252 . S
O24 In13 2.294 . S
O24 C17 1.240 1_545 S
O25 In13 2.326 1_565 S
O25 C17 1.252 . S
In26 O27 2.294 . S
In26 O28 2.326 1_655 S
In26 O32 2.266 . S
In26 O33 2.326 . S
In26 O34 2.266 1_655 S
In26 O35 2.326 1_655 S
In26 O37 2.294 . S
In26 O38 2.326 . S
O27 In26 2.294 . S
O27 C36 1.240 1_655 S
O28 In26 2.326 1_455 S
O28 C36 1.252 . S
C29 O32 1.252 . S
C29 O33 1.260 . S
C30 O37 1.240 . S
C30 O38 1.252 . S
C31 O34 1.252 . S
C31 O35 1.260 . S
O32 In26 2.266 . S
O32 C29 1.252 . S
O33 In26 2.326 . S
O33 C29 1.260 . S
O34 In26 2.266 1_455 S
O34 C31 1.252 . S
O35 In26 2.326 1_455 S
O35 C31 1.260 . S
C36 O27 1.240 1_455 S
C36 O28 1.252 . S
O37 In26 2.294 . S
O37 C30 1.240 . S
O38 In26 2.326 . S
O38 C30 1.252 . S
In39 O40 2.294 . S
In39 O41 2.326 . S
In39 O45 2.266 . S
In39 O46 2.326 . S
In39 O47 2.266 . S
In39 O48 2.326 . S
In39 O50 2.294 . S
In39 O51 2.326 . S
O40 In39 2.294 . S
O40 C49 1.240 . S
O41 In39 2.326 . S
O41 C49 1.252 . S
C42 O45 1.252 . S
C42 O46 1.260 . S
C43 O50 1.240 . S
C43 O51 1.252 . S
C44 O47 1.252 . S
C44 O48 1.260 . S
O45 In39 2.266 . S
O45 C42 1.252 . S
O46 In39 2.326 . S
O46 C42 1.260 . S
O47 In39 2.266 . S
O47 C44 1.252 . S
O48 In39 2.326 . S
O48 C44 1.260 . S
C49 O40 1.240 . S
C49 O41 1.252 . S
O50 In39 2.294 . S
O50 C43 1.240 . S
O51 In39 2.326 . S
O51 C43 1.252 . S
In52 O53 2.294 . S
In52 O54 2.326 1_565 S
In52 O58 2.266 . S
In52 O59 2.326 . S
In52 O60 2.266 1_565 S
In52 O61 2.326 1_565 S
In52 O63 2.294 . S
In52 O64 2.326 . S
O53 In52 2.294 . S
O53 C62 1.240 1_565 S
O54 In52 2.326 1_545 S
O54 C62 1.252 . S
C55 O58 1.252 . S
C55 O59 1.260 . S
C56 O63 1.240 . S
C56 O64 1.252 . S
C57 O60 1.252 . S
C57 O61 1.260 . S
O58 In52 2.266 . S
O58 C55 1.252 . S
O59 In52 2.326 . S
O59 C55 1.260 . S
O60 In52 2.266 1_545 S
O60 C57 1.252 . S
O61 In52 2.326 1_545 S
O61 C57 1.260 . S
C62 O53 1.240 1_545 S
C62 O54 1.252 . S
O63 In52 2.294 . S
O63 C56 1.240 . S
O64 In52 2.326 . S
O64 C56 1.252 . S
In65 O66 2.294 . S
In65 O67 2.326 1_455 S
In65 O71 2.266 . S
In65 O72 2.326 . S
In65 O73 2.266 1_455 S
In65 O74 2.326 1_455 S
In65 O76 2.294 . S
In65 O77 2.326 . S
O66 In65 2.294 . S
O66 C75 1.240 1_455 S
O67 In65 2.326 1_655 S
O67 C75 1.252 . S
C68 O71 1.252 . S
C68 O72 1.260 . S
C69 O76 1.240 . S
C69 O77 1.252 . S
C70 O73 1.252 . S
C70 O74 1.260 . S
O71 In65 2.266 . S
O71 C68 1.252 . S
O72 In65 2.326 . S
O72 C68 1.260 . S
O73 In65 2.266 1_655 S
O73 C70 1.252 . S
O74 In65 2.326 1_655 S
O74 C70 1.260 . S
C75 O66 1.240 1_655 S
C75 O67 1.252 . S
O76 In65 2.294 . S
O76 C69 1.240 . S
O77 In65 2.326 . S
O77 C69 1.252 . S
In78 O79 2.294 . S
In78 O80 2.326 . S
In78 O84 2.266 . S
In78 O85 2.326 . S
In78 O86 2.266 . S
In78 O87 2.326 . S
In78 O89 2.294 . S
In78 O90 2.326 . S
O79 In78 2.294 . S
O79 C88 1.240 . S
O80 In78 2.326 . S
O80 C88 1.252 . S
C81 O84 1.252 . S
C81 O85 1.260 . S
C82 O89 1.240 . S
C82 O90 1.252 . S
C83 O86 1.252 . S
C83 O87 1.260 . S
O84 In78 2.266 . S
O84 C81 1.252 . S
O85 In78 2.326 . S
O85 C81 1.260 . S
O86 In78 2.266 . S
O86 C83 1.252 . S
O87 In78 2.326 . S
O87 C83 1.260 . S
C88 O79 1.240 . S
C88 O80 1.252 . S
O89 In78 2.294 . S
O89 C82 1.240 . S
O90 In78 2.326 . S
O90 C82 1.252 . S
In91 O92 2.294 . S
In91 O93 2.326 . S
In91 O97 2.266 . S
In91 O98 2.326 . S
In91 O99 2.266 . S
In91 O100 2.326 . S
In91 O102 2.294 . S
In91 O103 2.326 . S
O92 In91 2.294 . S
O92 C101 1.240 . S
O93 In91 2.326 . S
O93 C101 1.252 . S
C94 O97 1.252 . S
C94 O98 1.260 . S
C95 O102 1.240 . S
C95 O103 1.252 . S
C96 O99 1.252 . S
C96 O100 1.260 . S
O97 In91 2.266 . S
O97 C94 1.252 . S
O98 In91 2.326 . S
O98 C94 1.260 . S
O99 In91 2.266 . S
O99 C96 1.252 . S
O100 In91 2.326 . S
O100 C96 1.260 . S
C101 O92 1.240 . S
C101 O93 1.252 . S
O102 In91 2.294 . S
O102 C95 1.240 . S
O103 In91 2.326 . S
O103 C95 1.252 . S
In104 O105 2.294 . S
In104 O106 2.326 . S
In104 O110 2.266 . S
In104 O111 2.326 . S
In104 O112 2.266 . S
In104 O113 2.326 . S
In104 O115 2.294 . S
In104 O116 2.326 . S
O105 In104 2.294 . S
O105 C114 1.240 . S
O106 In104 2.326 . S
O106 C114 1.252 . S
C107 O110 1.252 . S
C107 O111 1.260 . S
C108 O115 1.240 . S
C108 O116 1.252 . S
C109 O112 1.252 . S
C109 O113 1.260 . S
O110 In104 2.266 . S
O110 C107 1.252 . S
O111 In104 2.326 . S
O111 C107 1.260 . S
O112 In104 2.266 . S
O112 C109 1.252 . S
O113 In104 2.326 . S
O113 C109 1.260 . S
C114 O105 1.240 . S
C114 O106 1.252 . S
O115 In104 2.294 . S
O115 C108 1.240 . S
O116 In104 2.326 . S
O116 C108 1.252 . S
In117 O118 2.294 . S
In117 O119 2.326 . S
In117 O123 2.266 . S
In117 O124 2.326 . S
In117 O125 2.266 . S
In117 O126 2.326 . S
In117 O128 2.294 . S
In117 O129 2.326 . S
O118 In117 2.294 . S
O118 C127 1.240 . S
O119 In117 2.326 . S
O119 C127 1.252 . S
C120 O123 1.252 . S
C120 O124 1.260 . S
C121 O128 1.240 . S
C121 O129 1.252 . S
C122 O125 1.252 . S
C122 O126 1.260 . S
O123 In117 2.266 . S
O123 C120 1.252 . S
O124 In117 2.326 . S
O124 C120 1.260 . S
O125 In117 2.266 . S
O125 C122 1.252 . S
O126 In117 2.326 . S
O126 C122 1.260 . S
C127 O118 1.240 . S
C127 O119 1.252 . S
O128 In117 2.294 . S
O128 C121 1.240 . S
O129 In117 2.326 . S
O129 C121 1.252 . S
In130 O131 2.294 . S
In130 O132 2.326 . S
In130 O136 2.266 . S
In130 O137 2.326 . S
In130 O138 2.266 . S
In130 O139 2.326 . S
In130 O141 2.294 . S
In130 O142 2.326 . S
O131 In130 2.294 . S
O131 C140 1.240 . S
O132 In130 2.326 . S
O132 C140 1.252 . S
C133 O136 1.252 . S
C133 O137 1.260 . S
C134 O141 1.240 . S
C134 O142 1.252 . S
C135 O138 1.252 . S
C135 O139 1.260 . S
O136 In130 2.266 . S
O136 C133 1.252 . S
O137 In130 2.326 . S
O137 C133 1.260 . S
O138 In130 2.266 . S
O138 C135 1.252 . S
O139 In130 2.326 . S
O139 C135 1.260 . S
C140 O131 1.240 . S
C140 O132 1.252 . S
O141 In130 2.294 . S
O141 C134 1.240 . S
O142 In130 2.326 . S
O142 C134 1.252 . S
In143 O144 2.294 . S
In143 O145 2.326 . S
In143 O149 2.266 . S
In143 O150 2.326 . S
In143 O151 2.266 . S
In143 O152 2.326 . S
In143 O154 2.294 . S
In143 O155 2.326 . S
O144 In143 2.294 . S
O144 C153 1.240 . S
O145 In143 2.326 . S
O145 C153 1.252 . S
C146 O149 1.252 . S
C146 O150 1.260 . S
C147 O154 1.240 . S
C147 O155 1.252 . S
C148 O151 1.252 . S
C148 O152 1.260 . S
O149 In143 2.266 . S
O149 C146 1.252 . S
O150 In143 2.326 . S
O150 C146 1.260 . S
O151 In143 2.266 . S
O151 C148 1.252 . S
O152 In143 2.326 . S
O152 C148 1.260 . S
C153 O144 1.240 . S
C153 O145 1.252 . S
O154 In143 2.294 . S
O154 C147 1.240 . S
O155 In143 2.326 . S
O155 C147 1.252 . S
In156 O157 2.294 . S
In156 O158 2.326 . S
In156 O162 2.266 . S
In156 O163 2.326 . S
In156 O164 2.266 . S
In156 O165 2.326 . S
In156 O167 2.294 . S
In156 O168 2.326 . S
O157 In156 2.294 . S
O157 C166 1.240 . S
O158 In156 2.326 . S
O158 C166 1.252 . S
C159 O162 1.252 . S
C159 O163 1.260 . S
C160 O167 1.240 . S
C160 O168 1.252 . S
C161 O164 1.252 . S
C161 O165 1.260 . S
O162 In156 2.266 . S
O162 C159 1.252 . S
O163 In156 2.326 . S
O163 C159 1.260 . S
O164 In156 2.266 . S
O164 C161 1.252 . S
O165 In156 2.326 . S
O165 C161 1.260 . S
C166 O157 1.240 . S
C166 O158 1.252 . S
O167 In156 2.294 . S
O167 C160 1.240 . S
O168 In156 2.326 . S
O168 C160 1.252 . S
In169 O170 2.294 . S
In169 O171 2.326 . S
In169 O175 2.266 . S
In169 O176 2.326 . S
In169 O177 2.266 . S
In169 O178 2.326 . S
In169 O180 2.294 . S
In169 O181 2.326 . S
O170 In169 2.294 . S
O170 C179 1.240 . S
O171 In169 2.326 . S
O171 C179 1.252 . S
C172 O175 1.252 . S
C172 O176 1.260 . S
C173 O180 1.240 . S
C173 O181 1.252 . S
C174 O177 1.252 . S
C174 O178 1.260 . S
O175 In169 2.266 . S
O175 C172 1.252 . S
O176 In169 2.326 . S
O176 C172 1.260 . S
O177 In169 2.266 . S
O177 C174 1.252 . S
O178 In169 2.326 . S
O178 C174 1.260 . S
C179 O170 1.240 . S
C179 O171 1.252 . S
O180 In169 2.294 . S
O180 C173 1.240 . S
O181 In169 2.326 . S
O181 C173 1.252 . S
In182 O183 2.294 . S
In182 O184 2.326 . S
In182 O188 2.266 . S
In182 O189 2.326 . S
In182 O190 2.266 . S
In182 O191 2.326 . S
In182 O193 2.294 . S
In182 O194 2.326 . S
O183 In182 2.294 . S
O183 C192 1.240 . S
O184 In182 2.326 . S
O184 C192 1.252 . S
C185 O188 1.252 . S
C185 O189 1.260 . S
C186 O193 1.240 . S
C186 O194 1.252 . S
C187 O190 1.252 . S
C187 O191 1.260 . S
O188 In182 2.266 . S
O188 C185 1.252 . S
O189 In182 2.326 . S
O189 C185 1.260 . S
O190 In182 2.266 . S
O190 C187 1.252 . S
O191 In182 2.326 . S
O191 C187 1.260 . S
C192 O183 1.240 . S
C192 O184 1.252 . S
O193 In182 2.294 . S
O193 C186 1.240 . S
O194 In182 2.326 . S
O194 C186 1.252 . S
In195 O196 2.294 . S
In195 O197 2.326 . S
In195 O201 2.266 . S
In195 O202 2.326 . S
In195 O203 2.266 . S
In195 O204 2.326 . S
In195 O206 2.294 . S
In195 O207 2.326 . S
O196 In195 2.294 . S
O196 C205 1.240 . S
O197 In195 2.326 . S
O197 C205 1.252 . S
C198 O201 1.252 . S
C198 O202 1.260 . S
C199 O206 1.240 . S
C199 O207 1.252 . S
C200 O203 1.252 . S
C200 O204 1.260 . S
O201 In195 2.266 . S
O201 C198 1.252 . S
O202 In195 2.326 . S
O202 C198 1.260 . S
O203 In195 2.266 . S
O203 C200 1.252 . S
O204 In195 2.326 . S
O204 C200 1.260 . S
C205 O196 1.240 . S
C205 O197 1.252 . S
O206 In195 2.294 . S
O206 C199 1.240 . S
O207 In195 2.326 . S
O207 C199 1.252 . S
In208 O209 2.294 . S
In208 O210 2.326 . S
In208 O214 2.266 . S
In208 O215 2.326 . S
In208 O216 2.266 . S
In208 O217 2.326 . S
In208 O219 2.294 . S
In208 O220 2.326 . S
O209 In208 2.294 . S
O209 C218 1.240 . S
O210 In208 2.326 . S
O210 C218 1.252 . S
C211 O214 1.252 . S
C211 O215 1.260 . S
C212 O219 1.240 . S
C212 O220 1.252 . S
C213 O216 1.252 . S
C213 O217 1.260 . S
O214 In208 2.266 . S
O214 C211 1.252 . S
O215 In208 2.326 . S
O215 C211 1.260 . S
O216 In208 2.266 . S
O216 C213 1.252 . S
O217 In208 2.326 . S
O217 C213 1.260 . S
C218 O209 1.240 . S
C218 O210 1.252 . S
O219 In208 2.294 . S
O219 C212 1.240 . S
O220 In208 2.326 . S
O220 C212 1.252 . S
In221 O222 2.294 . S
In221 O223 2.326 . S
In221 O227 2.266 . S
In221 O228 2.326 . S
In221 O229 2.266 . S
In221 O230 2.326 . S
In221 O232 2.294 . S
In221 O233 2.326 . S
O222 In221 2.294 . S
O222 C231 1.240 . S
O223 In221 2.326 . S
O223 C231 1.252 . S
C224 O227 1.252 . S
C224 O228 1.260 . S
C225 O232 1.240 . S
C225 O233 1.252 . S
C226 O229 1.252 . S
C226 O230 1.260 . S
O227 In221 2.266 . S
O227 C224 1.252 . S
O228 In221 2.326 . S
O228 C224 1.260 . S
O229 In221 2.266 . S
O229 C226 1.252 . S
O230 In221 2.326 . S
O230 C226 1.260 . S
C231 O222 1.240 . S
C231 O223 1.252 . S
O232 In221 2.294 . S
O232 C225 1.240 . S
O233 In221 2.326 . S
O233 C225 1.252 . S
C234 C235 1.387 . S
C234 H238 0.950 . S
C234 C243 1.390 . S
C235 C234 1.387 . S
C235 C237 1.387 . S
H236 C243 0.950 . S
C237 C235 1.387 . S
C237 C239 1.390 . S
C237 H241 0.950 . S
H238 C234 0.950 . S
C239 C237 1.390 . S
C239 C240 1.387 . S
C239 H242 0.950 . S
C240 C239 1.387 . S
C240 C243 1.387 . S
H241 C237 0.950 . S
H242 C239 0.950 . S
C243 C234 1.390 . S
C243 H236 0.950 . S
C243 C240 1.387 . S
C244 C245 1.387 . S
C244 H248 0.950 . S
C244 C253 1.390 . S
C245 C244 1.387 . S
C245 C247 1.387 . S
H246 C253 0.950 . S
C247 C245 1.387 . S
C247 C249 1.390 . S
C247 H251 0.950 . S
H248 C244 0.950 . S
C249 C247 1.390 . S
C249 C250 1.387 . S
C249 H252 0.950 . S
C250 C249 1.387 . S
C250 C253 1.387 . S
H251 C247 0.950 . S
H252 C249 0.950 . S
C253 C244 1.390 . S
C253 H246 0.950 . S
C253 C250 1.387 . S
C254 C255 1.387 . S
C254 H258 0.950 . S
C254 C263 1.390 . S
C255 C254 1.387 . S
C255 C257 1.387 . S
H256 C263 0.950 . S
C257 C255 1.387 . S
C257 C259 1.390 . S
C257 H261 0.950 . S
H258 C254 0.950 . S
C259 C257 1.390 . S
C259 C260 1.387 . S
C259 H262 0.950 . S
C260 C259 1.387 . S
C260 C263 1.387 . S
H261 C257 0.950 . S
H262 C259 0.950 . S
C263 C254 1.390 . S
C263 H256 0.950 . S
C263 C260 1.387 . S
C264 C265 1.387 . S
C264 H268 0.950 . S
C264 C273 1.390 . S
C265 C264 1.387 . S
C265 C267 1.387 . S
H266 C273 0.950 . S
C267 C265 1.387 . S
C267 C269 1.390 . S
C267 H271 0.950 . S
H268 C264 0.950 . S
C269 C267 1.390 . S
C269 C270 1.387 . S
C269 H272 0.950 . S
C270 C269 1.387 . S
C270 C273 1.387 . S
H271 C267 0.950 . S
H272 C269 0.950 . S
C273 C264 1.390 . S
C273 H266 0.950 . S
C273 C270 1.387 . S
C274 C275 1.387 . S
C274 H278 0.950 . S
C274 C283 1.390 . S
C275 C274 1.387 . S
C275 C277 1.387 . S
H276 C283 0.950 . S
C277 C275 1.387 . S
C277 C279 1.390 . S
C277 H281 0.950 . S
H278 C274 0.950 . S
C279 C277 1.390 . S
C279 C280 1.387 . S
C279 H282 0.950 . S
C280 C279 1.387 . S
C280 C283 1.387 . S
H281 C277 0.950 . S
H282 C279 0.950 . S
C283 C274 1.390 . S
C283 H276 0.950 . S
C283 C280 1.387 . S
C284 C285 1.387 . S
C284 H288 0.950 . S
C284 C293 1.390 . S
C285 C284 1.387 . S
C285 C287 1.387 . S
H286 C293 0.950 . S
C287 C285 1.387 . S
C287 C289 1.390 . S
C287 H291 0.950 . S
H288 C284 0.950 . S
C289 C287 1.390 . S
C289 C290 1.387 . S
C289 H292 0.950 . S
C290 C289 1.387 . S
C290 C293 1.387 . S
H291 C287 0.950 . S
H292 C289 0.950 . S
C293 C284 1.390 . S
C293 H286 0.950 . S
C293 C290 1.387 . S
C294 C295 1.387 . S
C294 H298 0.950 . S
C294 C303 1.390 1_655 S
C295 C294 1.387 . S
C295 C297 1.387 . S
H296 C303 0.950 . S
C297 C295 1.387 . S
C297 C299 1.390 1_655 S
C297 H301 0.950 . S
H298 C294 0.950 . S
C299 C297 1.390 1_455 S
C299 C300 1.387 . S
C299 H302 0.950 . S
C300 C299 1.387 . S
C300 C303 1.387 . S
H301 C297 0.950 . S
H302 C299 0.950 . S
C303 C294 1.390 1_455 S
C303 H296 0.950 . S
C303 C300 1.387 . S
C304 C305 1.387 . S
C304 H308 0.950 . S
C304 C313 1.390 . S
C305 C304 1.387 . S
C305 C307 1.387 . S
H306 C313 0.950 . S
C307 C305 1.387 . S
C307 C309 1.390 . S
C307 H311 0.950 . S
H308 C304 0.950 . S
C309 C307 1.390 . S
C309 C310 1.387 . S
C309 H312 0.950 . S
C310 C309 1.387 . S
C310 C313 1.387 . S
H311 C307 0.950 . S
H312 C309 0.950 . S
C313 C304 1.390 . S
C313 H306 0.950 . S
C313 C310 1.387 . S
C314 C315 1.387 . S
C314 H318 0.950 . S
C314 C323 1.390 1_545 S
C315 C314 1.387 . S
C315 C317 1.387 . S
H316 C323 0.950 . S
C317 C315 1.387 . S
C317 C319 1.390 1_545 S
C317 H321 0.950 . S
H318 C314 0.950 . S
C319 C317 1.390 1_565 S
C319 C320 1.387 . S
C319 H322 0.950 . S
C320 C319 1.387 . S
C320 C323 1.387 . S
H321 C317 0.950 . S
H322 C319 0.950 . S
C323 C314 1.390 1_565 S
C323 H316 0.950 . S
C323 C320 1.387 . S
C324 C325 1.387 . S
C324 H328 0.950 . S
C324 C333 1.390 1_455 S
C325 C324 1.387 . S
C325 C327 1.387 . S
H326 C333 0.950 . S
C327 C325 1.387 . S
C327 C329 1.390 1_455 S
C327 H331 0.950 . S
H328 C324 0.950 . S
C329 C327 1.390 1_655 S
C329 C330 1.387 . S
C329 H332 0.950 . S
C330 C329 1.387 . S
C330 C333 1.387 . S
H331 C327 0.950 . S
H332 C329 0.950 . S
C333 C324 1.390 1_655 S
C333 H326 0.950 . S
C333 C330 1.387 . S
C334 C335 1.387 . S
C334 H338 0.950 . S
C334 C343 1.390 . S
C335 C334 1.387 . S
C335 C337 1.387 . S
H336 C343 0.950 . S
C337 C335 1.387 . S
C337 C339 1.390 . S
C337 H341 0.950 . S
H338 C334 0.950 . S
C339 C337 1.390 . S
C339 C340 1.387 . S
C339 H342 0.950 . S
C340 C339 1.387 . S
C340 C343 1.387 . S
H341 C337 0.950 . S
H342 C339 0.950 . S
C343 C334 1.390 . S
C343 H336 0.950 . S
C343 C340 1.387 . S
C344 C345 1.387 . S
C344 H348 0.950 . S
C344 C353 1.390 1_545 S
C345 C344 1.387 . S
C345 C347 1.387 . S
H346 C353 0.950 . S
C347 C345 1.387 . S
C347 C349 1.390 1_545 S
C347 H351 0.950 . S
H348 C344 0.950 . S
C349 C347 1.390 1_565 S
C349 C350 1.387 . S
C349 H352 0.950 . S
C350 C349 1.387 . S
C350 C353 1.387 . S
H351 C347 0.950 . S
H352 C349 0.950 . S
C353 C344 1.390 1_565 S
C353 H346 0.950 . S
C353 C350 1.387 . S
C354 C355 1.387 . S
C354 H358 0.950 . S
C354 C363 1.390 1_565 S
C355 C354 1.387 . S
C355 C357 1.387 . S
H356 C363 0.950 . S
C357 C355 1.387 . S
C357 C359 1.390 1_565 S
C357 H361 0.950 . S
H358 C354 0.950 . S
C359 C357 1.390 1_545 S
C359 C360 1.387 . S
C359 H362 0.950 . S
C360 C359 1.387 . S
C360 C363 1.387 . S
H361 C357 0.950 . S
H362 C359 0.950 . S
C363 C354 1.390 1_545 S
C363 H356 0.950 . S
C363 C360 1.387 . S
C364 C365 1.387 . S
C364 H368 0.950 . S
C364 C373 1.390 1_455 S
C365 C364 1.387 . S
C365 C367 1.387 . S
H366 C373 0.950 . S
C367 C365 1.387 . S
C367 C369 1.390 1_455 S
C367 H371 0.950 . S
H368 C364 0.950 . S
C369 C367 1.390 1_655 S
C369 C370 1.387 . S
C369 H372 0.950 . S
C370 C369 1.387 . S
C370 C373 1.387 . S
H371 C367 0.950 . S
H372 C369 0.950 . S
C373 C364 1.390 1_655 S
C373 H366 0.950 . S
C373 C370 1.387 . S
C374 C375 1.387 . S
C374 H378 0.950 . S
C374 C383 1.390 . S
C375 C374 1.387 . S
C375 C377 1.387 . S
H376 C383 0.950 . S
C377 C375 1.387 . S
C377 C379 1.390 . S
C377 H381 0.950 . S
H378 C374 0.950 . S
C379 C377 1.390 . S
C379 C380 1.387 . S
C379 H382 0.950 . S
C380 C379 1.387 . S
C380 C383 1.387 . S
H381 C377 0.950 . S
H382 C379 0.950 . S
C383 C374 1.390 . S
C383 H376 0.950 . S
C383 C380 1.387 . S
C384 C385 1.387 . S
C384 H388 0.950 . S
C384 C393 1.390 . S
C385 C384 1.387 . S
C385 C387 1.387 . S
H386 C393 0.950 . S
C387 C385 1.387 . S
C387 C389 1.390 . S
C387 H391 0.950 . S
H388 C384 0.950 . S
C389 C387 1.390 . S
C389 C390 1.387 . S
C389 H392 0.950 . S
C390 C389 1.387 . S
C390 C393 1.387 . S
H391 C387 0.950 . S
H392 C389 0.950 . S
C393 C384 1.390 . S
C393 H386 0.950 . S
C393 C390 1.387 . S
C394 C395 1.387 . S
C394 H398 0.950 . S
C394 C403 1.390 . S
C395 C394 1.387 . S
C395 C397 1.387 . S
H396 C403 0.950 . S
C397 C395 1.387 . S
C397 C399 1.390 . S
C397 H401 0.950 . S
H398 C394 0.950 . S
C399 C397 1.390 . S
C399 C400 1.387 . S
C399 H402 0.950 . S
C400 C399 1.387 . S
C400 C403 1.387 . S
H401 C397 0.950 . S
H402 C399 0.950 . S
C403 C394 1.390 . S
C403 H396 0.950 . S
C403 C400 1.387 . S
C404 C405 1.387 . S
C404 H408 0.950 . S
C404 C413 1.390 . S
C405 C404 1.387 . S
C405 C407 1.387 . S
H406 C413 0.950 . S
C407 C405 1.387 . S
C407 C409 1.390 . S
C407 H411 0.950 . S
H408 C404 0.950 . S
C409 C407 1.390 . S
C409 C410 1.387 . S
C409 H412 0.950 . S
C410 C409 1.387 . S
C410 C413 1.387 . S
H411 C407 0.950 . S
H412 C409 0.950 . S
C413 C404 1.390 . S
C413 H406 0.950 . S
C413 C410 1.387 . S
C414 C415 1.387 . S
C414 H418 0.950 . S
C414 C423 1.390 . S
C415 C414 1.387 . S
C415 C417 1.387 . S
H416 C423 0.950 . S
C417 C415 1.387 . S
C417 C419 1.390 . S
C417 H421 0.950 . S
H418 C414 0.950 . S
C419 C417 1.390 . S
C419 C420 1.387 . S
C419 H422 0.950 . S
C420 C419 1.387 . S
C420 C423 1.387 . S
H421 C417 0.950 . S
H422 C419 0.950 . S
C423 C414 1.390 . S
C423 H416 0.950 . S
C423 C420 1.387 . S
C424 C425 1.387 . S
C424 H428 0.950 . S
C424 C433 1.390 . S
C425 C424 1.387 . S
C425 C427 1.387 . S
H426 C433 0.950 . S
C427 C425 1.387 . S
C427 C429 1.390 . S
C427 H431 0.950 . S
H428 C424 0.950 . S
C429 C427 1.390 . S
C429 C430 1.387 . S
C429 H432 0.950 . S
C430 C429 1.387 . S
C430 C433 1.387 . S
H431 C427 0.950 . S
H432 C429 0.950 . S
C433 C424 1.390 . S
C433 H426 0.950 . S
C433 C430 1.387 . S
C434 C435 1.387 . S
C434 H438 0.950 . S
C434 C443 1.390 . S
C435 C434 1.387 . S
C435 C437 1.387 . S
H436 C443 0.950 . S
C437 C435 1.387 . S
C437 C439 1.390 . S
C437 H441 0.950 . S
H438 C434 0.950 . S
C439 C437 1.390 . S
C439 C440 1.387 . S
C439 H442 0.950 . S
C440 C439 1.387 . S
C440 C443 1.387 . S
H441 C437 0.950 . S
H442 C439 0.950 . S
C443 C434 1.390 . S
C443 H436 0.950 . S
C443 C440 1.387 . S
C444 C445 1.387 . S
C444 H448 0.950 . S
C444 C453 1.390 . S
C445 C444 1.387 . S
C445 C447 1.387 . S
H446 C453 0.950 . S
C447 C445 1.387 . S
C447 C449 1.390 . S
C447 H451 0.950 . S
H448 C444 0.950 . S
C449 C447 1.390 . S
C449 C450 1.387 . S
C449 H452 0.950 . S
C450 C449 1.387 . S
C450 C453 1.387 . S
H451 C447 0.950 . S
H452 C449 0.950 . S
C453 C444 1.390 . S
C453 H446 0.950 . S
C453 C450 1.387 . S
C454 C455 1.387 . S
C454 H458 0.950 . S
C454 C463 1.390 . S
C455 C454 1.387 . S
C455 C457 1.387 . S
H456 C463 0.950 . S
C457 C455 1.387 . S
C457 C459 1.390 . S
C457 H461 0.950 . S
H458 C454 0.950 . S
C459 C457 1.390 . S
C459 C460 1.387 . S
C459 H462 0.950 . S
C460 C459 1.387 . S
C460 C463 1.387 . S
H461 C457 0.950 . S
H462 C459 0.950 . S
C463 C454 1.390 . S
C463 H456 0.950 . S
C463 C460 1.387 . S
C464 C465 1.387 . S
C464 H468 0.950 . S
C464 C473 1.390 . S
C465 C464 1.387 . S
C465 C467 1.387 . S
H466 C473 0.950 . S
C467 C465 1.387 . S
C467 C469 1.390 . S
C467 H471 0.950 . S
H468 C464 0.950 . S
C469 C467 1.390 . S
C469 C470 1.387 . S
C469 H472 0.950 . S
C470 C469 1.387 . S
C470 C473 1.387 . S
H471 C467 0.950 . S
H472 C469 0.950 . S
C473 C464 1.390 . S
C473 H466 0.950 . S
C473 C470 1.387 . S
C474 C475 1.387 . S
C474 H478 0.950 . S
C474 C483 1.390 . S
C475 C474 1.387 . S
C475 C477 1.387 . S
H476 C483 0.950 . S
C477 C475 1.387 . S
C477 C479 1.390 . S
C477 H481 0.950 . S
H478 C474 0.950 . S
C479 C477 1.390 . S
C479 C480 1.387 . S
C479 H482 0.950 . S
C480 C479 1.387 . S
C480 C483 1.387 . S
H481 C477 0.950 . S
H482 C479 0.950 . S
C483 C474 1.390 . S
C483 H476 0.950 . S
C483 C480 1.387 . S
C484 C485 1.387 . S
C484 H488 0.950 . S
C484 C493 1.390 . S
C485 C484 1.387 . S
C485 C487 1.387 . S
H486 C493 0.950 . S
C487 C485 1.387 . S
C487 C489 1.390 . S
C487 H491 0.950 . S
H488 C484 0.950 . S
C489 C487 1.390 . S
C489 C490 1.387 . S
C489 H492 0.950 . S
C490 C489 1.387 . S
C490 C493 1.387 . S
H491 C487 0.950 . S
H492 C489 0.950 . S
C493 C484 1.390 . S
C493 H486 0.950 . S
C493 C490 1.387 . S
C494 C495 1.387 . S
C494 H498 0.950 . S
C494 C503 1.390 . S
C495 C494 1.387 . S
C495 C497 1.387 . S
H496 C503 0.950 . S
C497 C495 1.387 . S
C497 C499 1.390 . S
C497 H501 0.950 . S
H498 C494 0.950 . S
C499 C497 1.390 . S
C499 C500 1.387 . S
C499 H502 0.950 . S
C500 C499 1.387 . S
C500 C503 1.387 . S
H501 C497 0.950 . S
H502 C499 0.950 . S
C503 C494 1.390 . S
C503 H496 0.950 . S
C503 C500 1.387 . S
C504 C505 1.387 . S
C504 H508 0.950 . S
C504 C513 1.390 1_554 S
C505 C504 1.387 . S
C505 C507 1.387 . S
H506 C513 0.950 . S
C507 C505 1.387 . S
C507 C509 1.390 1_554 S
C507 H511 0.950 . S
H508 C504 0.950 . S
C509 C507 1.390 1_556 S
C509 C510 1.387 . S
C509 H512 0.950 . S
C510 C509 1.387 . S
C510 C513 1.387 . S
H511 C507 0.950 . S
H512 C509 0.950 . S
C513 C504 1.390 1_556 S
C513 H506 0.950 . S
C513 C510 1.387 . S
C514 C515 1.387 . S
C514 H518 0.950 . S
C514 C523 1.390 1_546 S
C515 C514 1.387 . S
C515 C517 1.387 . S
H516 C523 0.950 . S
C517 C515 1.387 . S
C517 C519 1.391 1_556 S
C517 H521 0.950 . S
H518 C514 0.950 . S
C519 C517 1.391 1_554 S
C519 C520 1.388 1_545 S
C519 H522 0.948 1_545 S
C520 C519 1.388 1_565 S
C520 C523 1.387 . S
H521 C517 0.950 . S
H522 C519 0.948 1_565 S
C523 C514 1.390 1_564 S
C523 H516 0.950 . S
C523 C520 1.387 . S
C524 C525 1.387 . S
C524 H528 0.950 . S
C524 C533 1.390 1_556 S
C525 C524 1.387 . S
C525 C527 1.387 1_655 S
H526 C533 0.950 . S
C527 C525 1.387 1_455 S
C527 C529 1.390 1_556 S
C527 H531 0.950 . S
H528 C524 0.950 . S
C529 C527 1.390 1_554 S
C529 C530 1.387 . S
C529 H532 0.950 . S
C530 C529 1.387 . S
C530 C533 1.387 1_455 S
H531 C527 0.950 . S
H532 C529 0.950 . S
C533 C524 1.390 1_554 S
C533 H526 0.950 . S
C533 C530 1.387 1_655 S
C534 C535 1.387 . S
C534 H538 0.950 . S
C534 C543 1.390 . S
C535 C534 1.387 . S
C535 C537 1.387 . S
H536 C543 0.950 . S
C537 C535 1.387 . S
C537 C539 1.390 . S
C537 H541 0.950 . S
H538 C534 0.950 . S
C539 C537 1.390 . S
C539 C540 1.387 . S
C539 H542 0.950 . S
C540 C539 1.387 . S
C540 C543 1.387 . S
H541 C537 0.950 . S
H542 C539 0.950 . S
C543 C534 1.390 . S
C543 H536 0.950 . S
C543 C540 1.387 . S
C544 C545 1.387 . S
C544 H548 0.950 . S
C544 C553 1.390 . S
C545 C544 1.387 . S
C545 C547 1.387 . S
H546 C553 0.950 . S
C547 C545 1.387 . S
C547 C549 1.390 . S
C547 H551 0.950 . S
H548 C544 0.950 . S
C549 C547 1.390 . S
C549 C550 1.387 . S
C549 H552 0.950 . S
C550 C549 1.387 . S
C550 C553 1.387 . S
H551 C547 0.950 . S
H552 C549 0.950 . S
C553 C544 1.390 . S
C553 H546 0.950 . S
C553 C550 1.387 . S
C554 C555 1.387 . S
C554 H558 0.950 . S
C554 C563 1.390 . S
C555 C554 1.387 . S
C555 C557 1.387 . S
H556 C563 0.950 . S
C557 C555 1.387 . S
C557 C559 1.390 . S
C557 H561 0.950 . S
H558 C554 0.950 . S
C559 C557 1.390 . S
C559 C560 1.387 . S
C559 H562 0.950 . S
C560 C559 1.387 . S
C560 C563 1.387 . S
H561 C557 0.950 . S
H562 C559 0.950 . S
C563 C554 1.390 . S
C563 H556 0.950 . S
C563 C560 1.387 . S
C564 C565 1.387 . S
C564 H568 0.950 . S
C564 C573 1.390 . S
C565 C564 1.387 . S
C565 C567 1.387 . S
H566 C573 0.950 . S
C567 C565 1.387 . S
C567 C569 1.390 . S
C567 H571 0.950 . S
H568 C564 0.950 . S
C569 C567 1.390 . S
C569 C570 1.387 . S
C569 H572 0.950 . S
C570 C569 1.387 . S
C570 C573 1.387 . S
H571 C567 0.950 . S
H572 C569 0.950 . S
C573 C564 1.390 . S
C573 H566 0.950 . S
C573 C570 1.387 . S
C574 C575 1.387 . S
C574 H578 0.950 . S
C574 C583 1.390 . S
C575 C574 1.387 . S
C575 C577 1.387 . S
H576 C583 0.950 . S
C577 C575 1.387 . S
C577 C579 1.390 . S
C577 H581 0.950 . S
H578 C574 0.950 . S
C579 C577 1.390 . S
C579 C580 1.387 . S
C579 H582 0.950 . S
C580 C579 1.387 . S
C580 C583 1.387 . S
H581 C577 0.950 . S
H582 C579 0.950 . S
C583 C574 1.390 . S
C583 H576 0.950 . S
C583 C580 1.387 . S
C584 C585 1.387 . S
C584 H588 0.950 . S
C584 C593 1.390 . S
C585 C584 1.387 . S
C585 C587 1.387 . S
H586 C593 0.950 . S
C587 C585 1.387 . S
C587 C589 1.390 . S
C587 H591 0.950 . S
H588 C584 0.950 . S
C589 C587 1.390 . S
C589 C590 1.387 . S
C589 H592 0.950 . S
C590 C589 1.387 . S
C590 C593 1.387 . S
H591 C587 0.950 . S
H592 C589 0.950 . S
C593 C584 1.390 . S
C593 H586 0.950 . S
C593 C590 1.387 . S
C235 C134 1.461 . S
C240 C10 1.461 . S
C245 C23 1.462 . S
C250 C147 1.461 . S
C255 C121 1.463 . S
C260 C30 1.463 . S
C265 C192 1.463 . S
C270 C49 1.463 . S
C275 C56 1.459 . S
C280 C166 1.459 . S
C285 C179 1.462 . S
C290 C69 1.462 . S
C295 C88 1.462 . S
C300 C212 1.462 . S
C305 C225 1.461 . S
C310 C101 1.462 . S
C315 C114 1.458 . S
C320 C205 1.458 . S
C325 C3 1.415 . S
C330 C18 1.432 . S
C335 C16 1.416 . S
C340 C29 1.432 . S
C345 C5 1.432 . S
C350 C31 1.416 . S
C355 C68 1.432 . S
C360 C42 1.415 . S
C365 C44 1.432 . S
C370 C57 1.416 . S
C375 C70 1.412 . S
C380 C55 1.432 . S
C385 C81 1.415 . S
C390 C96 1.432 . S
C395 C94 1.416 . S
C400 C109 1.432 . S
C405 C83 1.433 . S
C410 C107 1.415 . S
C415 C146 1.432 . S
C420 C122 1.415 . S
C425 C120 1.433 . S
C430 C135 1.412 . S
C435 C133 1.432 . S
C440 C148 1.415 . S
C445 C174 1.432 . S
C450 C159 1.415 . S
C455 C187 1.432 . S
C460 C172 1.415 . S
C465 C161 1.431 . S
C470 C185 1.416 . S
C475 C198 1.413 . S
C480 C224 1.432 . S
C485 C213 1.416 . S
C490 C200 1.431 . S
C495 C226 1.415 . S
C500 C211 1.432 . S
C505 C4 1.736 . S
C510 C43 1.737 . S
C515 C62 1.737 . S
C520 C17 1.737 . S
C525 C75 1.736 . S
C530 C36 1.737 . S
C535 C127 1.735 . S
C540 C82 1.736 . S
C545 C140 1.735 . S
C550 C95 1.735 . S
C555 C108 1.735 . S
C560 C153 1.735 . S
C565 C199 1.737 . S
C570 C160 1.736 . S
C575 C218 1.735 . S
C580 C173 1.735 . S
C585 C231 1.736 . S
C590 C186 1.737 . S
