# Generated by pormake.
# Topology hcp, (12)-cn, num edge types: 1
# Building blocks:
#     Node 0, Type 0, BuildingBlock: UKIBUN_clean_sbu_0, # of connection points: 12
#     Node 1, Type 0, BuildingBlock: UKIBUN_clean_sbu_0, # of connection points: 12
#     Edge 2, Type (0, 0), BuildingBlock: UVAHIK_clean_linker_0, # of connection points: 2
#     Edge 3, Type (0, 0), BuildingBlock: UVAHIK_clean_linker_0, # of connection points: 2
#     Edge 4, Type (0, 0), BuildingBlock: UVAHIK_clean_linker_0, # of connection points: 2
#     Edge 5, Type (0, 0), BuildingBlock: UVAHIK_clean_linker_0, # of connection points: 2
#     Edge 6, Type (0, 0), BuildingBlock: UVAHIK_clean_linker_0, # of connection points: 2
#     Edge 7, Type (0, 0), BuildingBlock: UVAHIK_clean_linker_0, # of connection points: 2
#     Edge 8, Type (0, 0), BuildingBlock: UVAHIK_clean_linker_0, # of connection points: 2
#     Edge 9, Type (0, 0), BuildingBlock: UVAHIK_clean_linker_0, # of connection points: 2
#     Edge 10, Type (0, 0), BuildingBlock: UVAHIK_clean_linker_0, # of connection points: 2
#     Edge 11, Type (0, 0), BuildingBlock: UVAHIK_clean_linker_0, # of connection points: 2
#     Edge 12, Type (0, 0), BuildingBlock: UVAHIK_clean_linker_0, # of connection points: 2
#     Edge 13, Type (0, 0), BuildingBlock: UVAHIK_clean_linker_0, # of connection points: 2
# Relax obj value: 0.181
# Max RMSD: 0.266
# Mean RMSD: 0.266
data_MOF--net-hcp--node1-UKIBUN_clean_sbu_0--edge1-UVAHIK_clean_linker_0
_symmetry_space_group_name_H-M    P1
_symmetry_Int_Tables_number       1
_symmetry_cell_setting            triclinic
loop_
_symmetry_equiv_pos_as_xyz
'x, y, z'
_cell_length_a     22.259378
_cell_length_b     22.306738
_cell_length_c     37.132489
_cell_angle_alpha  90.060505
_cell_angle_beta   89.994427
_cell_angle_gamma 120.09719
loop_
_atom_site_label
_atom_site_type_symbol
_atom_site_fract_x
_atom_site_fract_y
_atom_site_fract_z
_atom_type_partial_charge
C0 C 0.87951 0.48093 0.25083 0.0
C1 C 0.81371 0.25822 0.25277 0.0
O2 O 0.72701 0.41583 0.27095 0.0
O3 O 0.65381 0.32234 0.20058 0.0
O4 O 0.63345 0.39212 0.23757 0.0
O5 O 0.74696 0.34578 0.23575 0.0
Hf6 Hf 0.72816 0.42011 0.21571 0.0
O7 O 0.65966 0.32531 0.30775 0.0
Hf8 Hf 0.75612 0.3485 0.29072 0.0
O9 O 0.56583 0.30189 0.27345 0.0
Hf10 Hf 0.63523 0.3985 0.29268 0.0
O11 O 0.67992 0.2551 0.27156 0.0
Hf12 Hf 0.55734 0.2988 0.21832 0.0
Hf13 Hf 0.67865 0.2495 0.21632 0.0
O14 O 0.58701 0.23225 0.23813 0.0
Hf15 Hf 0.58494 0.22758 0.29328 0.0
C16 C 0.55237 0.1911 0.15911 0.0
C17 C 0.76113 0.45583 0.34982 0.0
C18 C 0.497 0.38543 0.2578 0.0
C19 C 0.71957 0.54559 0.25305 0.0
O20 O 0.74106 0.52353 0.22667 0.0
O21 O 0.78362 0.40705 0.1695 0.0
C22 C 0.78431 0.35354 0.15663 0.0
O23 O 0.57228 0.12425 0.2822 0.0
O24 O 0.4548 0.20761 0.23053 0.0
O25 O 0.56686 0.36668 0.17261 0.0
O26 O 0.53613 0.24267 0.3423 0.0
O27 O 0.744 0.28753 0.34045 0.0
O28 O 0.85994 0.43585 0.27644 0.0
O29 O 0.76951 0.23651 0.22662 0.0
O30 O 0.60713 0.19189 0.17134 0.0
C31 C 0.53826 0.29755 0.35523 0.0
O32 O 0.54307 0.40971 0.28306 0.0
O33 O 0.70416 0.45265 0.33945 0.0
C34 C 0.59414 0.10235 0.25589 0.0
O35 O 0.62939 0.20215 0.3396 0.0
O36 O 0.68301 0.44601 0.16933 0.0
O37 O 0.83964 0.48413 0.22673 0.0
O38 O 0.47346 0.16347 0.28234 0.0
O39 O 0.63204 0.13925 0.22947 0.0
O40 O 0.57082 0.35842 0.34125 0.0
C41 C 0.43471 0.16363 0.25665 0.0
O42 O 0.68216 0.50885 0.27964 0.0
O43 O 0.78908 0.42343 0.33518 0.0
O44 O 0.74809 0.29132 0.16903 0.0
O45 O 0.49391 0.3454 0.23201 0.0
O46 O 0.52714 0.2278 0.17172 0.0
O47 O 0.81592 0.29713 0.27894 0.0
C48 C 0.69075 0.23277 0.35326 0.0
C49 C 0.61966 0.41994 0.15848 0.0
C50 C 0.44397 0.68869 0.85446 0.0
C51 C 0.29524 0.75496 0.85488 0.0
O52 O 0.41509 0.68455 0.77246 0.0
O53 O 0.25308 0.57116 0.77173 0.0
O54 O 0.34573 0.59436 0.737 0.0
O55 O 0.32305 0.66234 0.80734 0.0
Hf56 Hf 0.34572 0.58819 0.79205 0.0
O57 O 0.3933 0.75473 0.73784 0.0
Hf58 Hf 0.39782 0.7597 0.79296 0.0
O59 O 0.32426 0.66416 0.70092 0.0
Hf60 Hf 0.42141 0.68745 0.71723 0.0
O61 O 0.30194 0.73297 0.77261 0.0
Hf62 Hf 0.25026 0.56652 0.7164 0.0
Hf63 Hf 0.22606 0.63992 0.79215 0.0
O64 O 0.23264 0.64147 0.73708 0.0
Hf65 Hf 0.3006 0.73753 0.71741 0.0
C66 C 0.10165 0.50446 0.75477 0.0
C67 C 0.54662 0.82124 0.75511 0.0
C68 C 0.35666 0.56492 0.65812 0.0
C69 C 0.48253 0.60062 0.75571 0.0
O70 O 0.43729 0.57666 0.78134 0.0
O71 O 0.28013 0.53722 0.84037 0.0
C72 C 0.22958 0.54225 0.85431 0.0
O73 O 0.2103 0.7509 0.72849 0.0
O74 O 0.19572 0.58004 0.67004 0.0
O75 O 0.23724 0.46285 0.7269 0.0
O76 O 0.37056 0.79542 0.67222 0.0
O77 O 0.40887 0.86279 0.78299 0.0
O78 O 0.44772 0.74417 0.84138 0.0
O79 O 0.23974 0.70478 0.84059 0.0
O80 O 0.123 0.54851 0.78096 0.0
C81 C 0.42412 0.79543 0.65884 0.0
O82 O 0.40992 0.61866 0.67161 0.0
O83 O 0.525 0.77767 0.72873 0.0
C84 C 0.16589 0.72812 0.75448 0.0
O85 O 0.34726 0.84771 0.73091 0.0
O86 O 0.29737 0.47754 0.7794 0.0
O87 O 0.41042 0.62783 0.84049 0.0
O88 O 0.22959 0.69542 0.67066 0.0
O89 O 0.1638 0.68858 0.78024 0.0
O90 O 0.44936 0.75795 0.67034 0.0
C91 C 0.19444 0.63349 0.65768 0.0
O92 O 0.48488 0.64044 0.73002 0.0
O93 O 0.50907 0.82232 0.78118 0.0
O94 O 0.20257 0.57643 0.84085 0.0
O95 O 0.29367 0.53903 0.6696 0.0
O96 O 0.13925 0.50328 0.72873 0.0
O97 O 0.35687 0.78194 0.84177 0.0
C98 C 0.38578 0.88461 0.75722 0.0
C99 C 0.25924 0.44071 0.753 0.0
C100 C 0.33227 0.77667 0.91826 0.0
C101 C 0.29136 0.78069 0.89075 0.0
C102 C 0.3424 0.81266 0.95041 0.0
C103 C 0.35215 0.97112 0.98382 0.0
H104 H 0.38261 0.9059 0.07503 0.0
C105 C 0.46061 0.14649 0.11081 0.0
C106 C 0.51398 0.14262 0.12913 0.0
C107 C 0.42263 0.09904 0.08356 0.0
C108 C 0.37447 0.92492 0.04973 0.0
H109 H 0.22705 0.82364 0.87524 0.0
H110 H 0.24475 0.88761 0.93205 0.0
H111 H 0.3282 0.82449 0.0254 0.0
H112 H 0.56876 0.08521 0.13301 0.0
H113 H 0.50272 0.00288 0.08552 0.0
H114 H 0.39995 0.07196 0.00806 0.0
C115 C 0.26877 0.85608 0.92869 0.0
C116 C 0.34309 0.87827 0.02132 0.0
C117 C 0.25796 0.81904 0.89643 0.0
C118 C 0.52838 0.09014 0.11944 0.0
C119 C 0.49001 0.04242 0.09243 0.0
C120 C 0.38327 0.0178 0.01236 0.0
C121 C 0.31254 0.85453 0.9557 0.0
C122 C 0.33348 0.90115 0.98766 0.0
C123 C 0.43657 0.04616 0.07424 0.0
C124 C 0.3966 -0.00445 0.04528 0.0
H125 H 0.35938 0.74826 0.91413 0.0
H126 H 0.37729 0.811 0.97019 0.0
H127 H 0.34629 0.99072 0.95818 0.0
H128 H 0.44792 0.1861 0.11754 0.0
H129 H 0.3816 0.1031 0.07015 0.0
C130 C 0.31615 0.48414 0.60467 0.0
C131 C 0.36976 0.52908 0.62801 0.0
C132 C 0.32945 0.45047 0.5765 0.0
C133 C 0.47686 0.46012 0.52359 0.0
H134 H 0.33899 0.27589 0.49178 0.0
C135 C 0.54702 0.31412 0.4211 0.0
C136 C 0.50549 0.29372 0.39009 0.0
C137 C 0.52482 0.33208 0.45239 0.0
C138 C 0.37787 0.32735 0.50046 0.0
H139 H 0.47886 0.57175 0.6407 0.0
H140 H 0.50136 0.51169 0.59289 0.0
H141 H 0.31216 0.33039 0.54174 0.0
H142 H 0.40762 0.27361 0.3674 0.0
H143 H 0.36743 0.30305 0.42271 0.0
H144 H 0.54287 0.45652 0.48282 0.0
C145 C 0.44952 0.50412 0.59522 0.0
C146 C 0.36246 0.35891 0.5289 0.0
C147 C 0.43652 0.53849 0.62291 0.0
C148 C 0.43955 0.2874 0.3914 0.0
C149 C 0.41688 0.30465 0.42292 0.0
C150 C 0.49252 0.42822 0.4957 0.0
C151 C 0.39648 0.46017 0.5713 0.0
C152 C 0.41186 0.42584 0.5409 0.0
C153 C 0.46059 0.32988 0.45322 0.0
C154 C 0.44336 0.36152 0.48383 0.0
H155 H 0.2641 0.47574 0.60783 0.0
H156 H 0.28736 0.4178 0.55846 0.0
H157 H 0.51569 0.51232 0.53116 0.0
H158 H 0.59872 0.32087 0.42033 0.0
H159 H 0.55937 0.35098 0.47541 0.0
C160 C 0.88429 0.43253 0.11682 0.0
C161 C 0.83274 0.36497 0.12637 0.0
C162 C 0.93255 0.44344 0.08985 0.0
C163 C 0.96104 0.3643 0.00968 0.0
H164 H 0.15361 0.5054 0.0242 0.0
C165 C 0.16358 0.44072 0.89544 0.0
C166 C 0.20302 0.51253 0.89008 0.0
C167 C 0.12528 0.41432 0.92734 0.0
C168 C 0.10004 0.46586 0.01965 0.0
H169 H 0.79144 0.25589 0.11443 0.0
H170 H 0.87536 0.27529 0.06701 0.0
H171 H 0.0705 0.47635 0.07314 0.0
H172 H 0.23636 0.61303 0.91378 0.0
H173 H 0.17092 0.56778 0.96915 0.0
H174 H 0.98998 0.35568 0.95573 0.0
C175 C 0.87826 0.31969 0.08055 0.0
C176 C 0.0524 0.44933 0.0477 0.0
C177 C 0.83025 0.30866 0.10781 0.0
C178 C 0.20689 0.55738 0.91762 0.0
C179 C 0.1694 0.53128 0.9494 0.0
C180 C 0.00869 0.38116 0.98149 0.0
C181 C 0.93035 0.3872 0.0715 0.0
C182 C 0.98201 0.39958 0.04278 0.0
C183 C 0.12638 0.45948 0.9543 0.0
C184 C 0.07847 0.43344 0.98583 0.0
H185 H 0.88821 0.47724 0.13053 0.0
H186 H 0.97139 0.49616 0.08315 0.0
H187 H 0.90712 0.32591 1.005 0.0
H188 H 0.15913 0.40532 0.87424 0.0
H189 H 0.09312 0.35875 0.9304 0.0
C190 C 0.45598 0.90434 0.625 0.0
C191 C 0.46065 0.84416 0.62882 0.0
C192 C 0.49146 0.9516 0.59741 0.0
C193 C 0.63087 0.00019 0.52795 0.0
H194 H 0.54457 0.09797 0.48645 0.0
C195 C 0.69229 0.13901 0.38839 0.0
C196 C 0.697 0.20413 0.3877 0.0
C197 C 0.67671 0.10137 0.42054 0.0
C198 C 0.56974 0.07169 0.49809 0.0
H199 H 0.50623 0.7863 0.60645 0.0
H200 H 0.56541 0.86686 0.55715 0.0
H201 H 0.48727 0.01712 0.5355 0.0
H202 H 0.69116 0.28215 0.41964 0.0
H203 H 0.66269 0.21586 0.47588 0.0
H204 H 0.71146 0.05271 0.48856 0.0
C205 C 0.53615 0.87896 0.57615 0.0
C206 C 0.53705 0.02536 0.5264 0.0
C207 C 0.50167 0.83228 0.60428 0.0
C208 C 0.68935 0.23269 0.41983 0.0
C209 C 0.6724 0.19452 0.45182 0.0
C210 C 0.6629 0.04565 0.49903 0.0
C211 C 0.53154 0.9394 0.57227 0.0
C212 C 0.56712 0.98898 0.54193 0.0
C213 C 0.66373 0.12759 0.45219 0.0
C214 C 0.63272 0.08204 0.48398 0.0
H215 H 0.42579 0.91573 0.64378 0.0
H216 H 0.48783 -0.00185 0.59614 0.0
H217 H 0.65646 0.97425 0.53941 0.0
H218 H 0.6963 0.11544 0.36365 0.0
H219 H 0.6697 0.04967 0.42003 0.0
C220 C 0.6606 0.50313 0.10629 0.0
C221 C 0.60612 0.45497 0.12818 0.0
C222 C 0.6475 0.53674 0.07813 0.0
C223 C 0.50313 0.52068 0.02097 0.0
H224 H 0.63274 0.71223 0.99643 0.0
C225 C 0.42703 0.66026 0.91889 0.0
C226 C 0.4733 0.69106 0.89014 0.0
C227 C 0.44835 0.64225 0.95034 0.0
C228 C 0.59628 0.65867 1.00298 0.0
H229 H 0.49532 0.40606 0.13812 0.0
H230 H 0.47286 0.46548 0.08987 0.0
H231 H 0.65918 0.65744 0.04638 0.0
H232 H 0.5784 0.72913 0.87164 0.0
H233 H 0.61654 0.69804 0.92721 0.0
H234 H 0.44001 0.5219 0.97798 0.0
C235 C 0.52551 0.47599 0.09365 0.0
C236 C 0.61146 0.62709 0.03145 0.0
C237 C 0.53845 0.44194 0.1215 0.0
C238 C 0.54252 0.70716 0.89397 0.0
C239 C 0.56405 0.689 0.92561 0.0
C240 C 0.48776 0.55232 0.99292 0.0
C241 C 0.57969 0.52345 0.07137 0.0
C242 C 0.56483 0.55767 0.0409 0.0
C243 C 0.51623 0.65374 0.95347 0.0
C244 C 0.53385 0.62172 0.98371 0.0
H245 H 0.71339 0.51445 0.11064 0.0
H246 H 0.69041 0.57226 0.0613 0.0
H247 H 0.4668 0.46671 0.0267 0.0
H248 H 0.37292 0.64568 0.91606 0.0
H249 H 0.41058 0.61588 0.97148 0.0
C250 C 0.76735 0.48316 0.41548 0.0
C251 C 0.79846 0.49829 0.3813 0.0
C252 C 0.80863 0.50901 0.44649 0.0
C253 C 0.9838 0.55443 0.47363 0.0
H254 H 0.9451 0.61857 0.56301 0.0
C255 C 0.12084 0.56135 0.60605 0.0
C256 C 0.14804 0.62249 0.62659 0.0
C257 C 0.07669 0.55053 0.57697 0.0
C258 C 0.95663 0.60102 0.53812 0.0
H259 H 0.89498 0.55674 0.35225 0.0
H260 H 0.96675 0.60289 0.40602 0.0
H261 H 0.87012 0.59751 0.51037 0.0
H262 H 0.14869 0.71961 0.63292 0.0
H263 H 0.07118 0.70028 0.58211 0.0
H264 H 0.06949 0.557 0.5011 0.0
C265 C 0.91111 0.57011 0.40916 0.0
C266 C 0.91357 0.58864 0.50813 0.0
C267 C 0.87011 0.54417 0.37839 0.0
C268 C 0.12917 0.67215 0.61755 0.0
C269 C 0.0843 0.6609 0.58865 0.0
C270 C 0.02613 0.56599 0.50355 0.0
C271 C 0.88135 0.55017 0.44355 0.0
C272 C 0.92697 0.56545 0.47552 0.0
C273 C 0.05805 0.60021 0.56789 0.0
C274 C 0.01302 0.58923 0.53615 0.0
H275 H 0.71223 0.44708 0.4183 0.0
H276 H 0.78427 0.49271 0.47266 0.0
H277 H -0.00509 0.5355 0.44908 0.0
H278 H 0.13402 0.52187 0.61222 0.0
H279 H 0.05673 0.50293 0.56166 0.0
C280 C 0.57634 -0.00359 0.225 0.0
C281 C 0.58224 0.03158 0.25734 0.0
C282 C 0.58632 0.93966 0.22465 0.0
C283 C 0.60849 0.81595 0.28092 0.0
H284 H 0.74144 0.83843 0.20684 0.0
C285 C 0.73704 0.65164 0.28372 0.0
C286 C 0.73114 0.61625 0.25146 0.0
C287 C 0.72679 0.70822 0.28395 0.0
C288 C 0.7041 0.83134 0.22751 0.0
H289 H 0.59649 0.03179 0.31506 0.0
H290 H 0.61447 0.93242 0.3145 0.0
H291 H 0.69469 0.91657 0.20848 0.0
H292 H 0.71648 0.61544 0.19375 0.0
H293 H 0.69813 0.7146 0.1941 0.0
H294 H 0.61794 0.73075 0.29997 0.0
C295 C 0.60185 0.94846 0.28946 0.0
C296 C 0.67692 0.87563 0.22834 0.0
C297 C 0.59127 0.00509 0.28984 0.0
C298 C 0.72178 0.64235 0.2189 0.0
C299 C 0.71096 0.69883 0.21917 0.0
C300 C 0.63568 0.77167 0.2801 0.0
C301 C 0.60292 0.91759 0.25659 0.0
C302 C 0.62876 0.86825 0.25502 0.0
C303 C 0.70992 0.72991 0.25197 0.0
C304 C 0.68388 0.77909 0.25344 0.0
H305 H 0.56862 0.01566 0.19965 0.0
H306 H 0.58495 0.91551 0.19909 0.0
H307 H 0.57116 0.80887 0.3016 0.0
H308 H 0.74498 0.63269 0.30911 0.0
H309 H 0.72817 0.73253 0.30945 0.0
C310 C 0.07259 0.73374 0.72076 0.0
C311 C 0.10752 0.74095 0.75331 0.0
C312 C 0.00535 0.72347 0.72112 0.0
C313 C 0.85628 0.64496 0.78137 0.0
H314 H 0.77052 0.70596 0.71066 0.0
C315 C 0.57629 0.59696 0.79003 0.0
C316 C 0.54156 0.58889 0.75731 0.0
C317 C 0.64391 0.60822 0.79001 0.0
C318 C 0.79369 0.68769 0.73026 0.0
H319 H 0.10437 0.75191 0.81118 0.0
H320 H 0.98782 0.73612 0.81172 0.0
H321 H 0.89597 0.7541 0.70967 0.0
H322 H 0.54564 0.57764 0.69954 0.0
H323 H 0.66287 0.59523 0.69957 0.0
H324 H 0.75397 0.57852 0.80195 0.0
C325 C 0.01106 0.73595 0.78611 0.0
C326 C 0.86545 0.71566 0.72982 0.0
C327 C 0.07782 0.74561 0.78577 0.0
C328 C 0.57199 0.58454 0.72505 0.0
C329 C 0.63913 0.59524 0.72504 0.0
C330 C 0.78452 0.61702 0.78183 0.0
C331 C 0.97284 0.7209 0.75403 0.0
C332 C 0.8974 0.69461 0.75539 0.0
C333 C 0.677 0.61099 0.75727 0.0
C334 C 0.75256 0.63794 0.75619 0.0
H335 H 0.09441 0.72949 0.69545 0.0
H336 H 0.97704 0.71208 0.69597 0.0
H337 H 0.8794 0.62658 0.80094 0.0
H338 H 0.55391 0.60105 0.81519 0.0
H339 H 0.67198 0.62014 0.81526 0.0
C340 C 0.33444 0.0728 0.22213 0.0
C341 C 0.36439 0.10316 0.25534 0.0
C342 C 0.2786 0.00499 0.22095 0.0
C343 C 0.14928 0.85999 0.27704 0.0
H344 H 0.18194 0.74685 0.20922 0.0
C345 C 0.98655 0.56623 0.28329 0.0
C346 C 0.95154 0.53858 0.25071 0.0
C347 C 0.04467 0.63269 0.28405 0.0
C348 C 0.17241 0.77793 0.2283 0.0
H349 H 0.35515 0.09035 0.31333 0.0
H350 H 0.25817 0.97247 0.31131 0.0
H351 H 0.25725 0.87253 0.20852 0.0
H352 H 0.95492 0.5535 0.19286 0.0
H353 H 0.05666 0.66881 0.19413 0.0
H354 H 0.06467 0.76531 0.29691 0.0
C355 C 0.27754 0.00024 0.28619 0.0
C356 C 0.21479 0.84979 0.22761 0.0
C357 C 0.33326 0.06772 0.28736 0.0
C358 C 0.98043 0.57433 0.21843 0.0
C359 C 0.03883 0.6402 0.21913 0.0
C360 C 0.10719 0.78817 0.27784 0.0
C361 C 0.25194 0.96709 0.25296 0.0
C362 C 0.20352 0.89152 0.25193 0.0
C363 C 0.06896 0.67139 0.25214 0.0
C364 C 0.11835 0.74654 0.25346 0.0
H365 H 0.3576 0.09903 0.19705 0.0
H366 H 0.25875 0.98099 0.19499 0.0
H367 H 0.13911 0.89088 0.29592 0.0
H368 H 0.9658 0.53923 0.30847 0.0
H369 H 0.06806 0.65538 0.30976 0.0
C370 C 0.24298 0.33496 0.78347 0.0
C371 C 0.24738 0.36987 0.75128 0.0
C372 C 0.25295 0.27817 0.78337 0.0
C373 C 0.35323 0.21991 0.73254 0.0
H374 H 0.26515 0.05987 0.79539 0.0
C375 C 0.40152 0.99033 0.72702 0.0
C376 C 0.39713 0.95523 0.75914 0.0
C377 C 0.39137 0.047 0.72723 0.0
C378 C 0.29102 0.10506 0.77821 0.0
H379 H 0.25907 0.36946 0.69336 0.0
H380 H 0.27581 0.26909 0.69308 0.0
H381 H 0.21681 0.1364 0.79042 0.0
H382 H 0.38515 0.95508 0.81704 0.0
H383 H 0.36809 0.0553 0.81754 0.0
H384 H 0.42745 0.1886 0.72034 0.0
C385 C 0.26564 0.2864 0.71843 0.0
C386 C 0.26288 0.14834 0.77508 0.0
C387 C 0.25512 0.34311 0.71851 0.0
C388 C 0.3891 0.98161 0.79196 0.0
C389 C 0.37841 0.03822 0.79216 0.0
C390 C 0.38137 0.17665 0.73569 0.0
C391 C 0.26784 0.25557 0.75106 0.0
C392 C 0.29367 0.20614 0.75218 0.0
C393 C 0.37632 0.06931 0.75959 0.0
C394 C 0.35055 0.11881 0.75855 0.0
H395 H 0.23677 0.35464 0.80907 0.0
H396 H 0.2544 0.25556 0.80893 0.0
H397 H 0.37908 0.26508 0.71535 0.0
H398 H 0.40794 0.97093 0.70139 0.0
H399 H 0.39 0.06977 0.70172 0.0
C400 C 0.40202 0.38655 0.29221 0.0
C401 C 0.43818 0.39741 0.25973 0.0
C402 C 0.3343 0.3751 0.29188 0.0
C403 C 0.1871 0.30069 0.23009 0.0
H404 H 0.0979 0.35529 0.30215 0.0
C405 C 0.90835 0.25506 0.21906 0.0
C406 C 0.87185 0.24504 0.25136 0.0
C407 C 0.97566 0.26547 0.21978 0.0
C408 C 0.12198 0.3387 0.28216 0.0
H409 H 0.4365 0.41317 0.20226 0.0
H410 H 0.3192 0.39545 0.20182 0.0
H411 H 0.22324 0.40309 0.30453 0.0
H412 H 0.8724 0.22945 0.30891 0.0
H413 H 0.98898 0.24533 0.31003 0.0
H414 H 0.08588 0.23635 0.2077 0.0
C415 C 0.34185 0.39341 0.22729 0.0
C416 C 0.19371 0.3665 0.28342 0.0
C417 C 0.40906 0.40426 0.22758 0.0
C418 C 0.90011 0.23781 0.28373 0.0
C419 C 0.96693 0.24759 0.28441 0.0
C420 C 0.11537 0.27287 0.22884 0.0
C421 C 0.30254 0.37491 0.25909 0.0
C422 C 0.22696 0.34798 0.25731 0.0
C423 C 0.00669 0.26538 0.25278 0.0
C424 C 0.08212 0.29155 0.25488 0.0
H425 H 0.42339 0.38043 0.31725 0.0
H426 H 0.30514 0.36104 0.31681 0.0
H427 H 0.21121 0.28423 0.21006 0.0
H428 H 0.88769 0.26144 0.19384 0.0
H429 H 0.00516 0.27901 0.19497 0.0
C430 C 0.00332 0.41122 0.78889 0.0
C431 C 0.03078 0.4453 0.75614 0.0
C432 C 0.94683 0.34375 0.78891 0.0
C433 C 0.87789 0.19331 0.72986 0.0
H434 H 0.72976 0.10865 0.8001 0.0
C435 C 0.64555 0.91424 0.72122 0.0
C436 C 0.61773 0.88 0.75391 0.0
C437 C 0.70238 0.9815 0.72136 0.0
C438 C 0.77163 0.13152 0.78066 0.0
H439 H 0.01651 0.44024 0.69824 0.0
H440 H 0.91665 0.3232 0.69835 0.0
H441 H 0.8067 0.23394 0.80053 0.0
H442 H 0.6317 0.88452 0.81182 0.0
H443 H 0.73213 0.00121 0.81197 0.0
H444 H 0.84279 0.09089 0.70997 0.0
C445 C 0.93995 0.34736 0.72384 0.0
C446 C 0.81519 0.20317 0.78078 0.0
C447 C -0.00345 0.41438 0.7238 0.0
C448 C 0.65193 0.91051 0.78631 0.0
C449 C 0.70887 0.97733 0.78643 0.0
C450 C 0.83433 0.12166 0.72974 0.0
C451 C 0.91713 0.31015 0.75617 0.0
C452 C 0.86856 0.23472 0.75531 0.0
C453 C 0.73207 0.01475 0.75417 0.0
C454 C 0.78091 0.09012 0.75518 0.0
H455 H 0.02925 0.43399 0.81413 0.0
H456 H 0.93012 0.31619 0.81424 0.0
H457 H 0.91973 0.21619 0.7104 0.0
H458 H 0.61966 0.89181 0.69593 0.0
H459 H 0.71935 0.00923 0.69608 0.0
loop_
_geom_bond_atom_site_label_1
_geom_bond_atom_site_label_2
_geom_bond_distance
_geom_bond_site_symmetry_2
_ccdc_geom_bond_type
C0 O28 1.281 . S
C0 O37 1.281 . S
C1 O29 1.281 . S
C1 O47 1.281 . S
O2 Hf6 2.202 . S
O2 Hf8 2.202 . S
O2 Hf10 2.202 . S
O3 Hf6 2.202 . S
O3 Hf12 2.202 . S
O3 Hf13 2.202 . S
O4 Hf6 2.072 . S
O4 Hf10 2.072 . S
O4 Hf12 2.072 . S
O5 Hf6 2.072 . S
O5 Hf8 2.072 . S
O5 Hf13 2.072 . S
Hf6 O2 2.202 . S
Hf6 O3 2.202 . S
Hf6 O4 2.072 . S
Hf6 O5 2.072 . S
Hf6 O20 2.209 . S
Hf6 O21 2.209 . S
Hf6 O36 2.209 . S
Hf6 O37 2.209 . S
O7 Hf8 2.072 . S
O7 Hf10 2.072 . S
O7 Hf15 2.072 . S
Hf8 O2 2.202 . S
Hf8 O5 2.072 . S
Hf8 O7 2.072 . S
Hf8 O11 2.202 . S
Hf8 O27 2.209 . S
Hf8 O28 2.209 . S
Hf8 O43 2.209 . S
Hf8 O47 2.209 . S
O9 Hf10 2.202 . S
O9 Hf12 2.202 . S
O9 Hf15 2.202 . S
Hf10 O2 2.202 . S
Hf10 O4 2.072 . S
Hf10 O7 2.072 . S
Hf10 O9 2.202 . S
Hf10 O32 2.209 . S
Hf10 O33 2.209 . S
Hf10 O40 2.209 . S
Hf10 O42 2.209 . S
O11 Hf8 2.202 . S
O11 Hf13 2.202 . S
O11 Hf15 2.202 . S
Hf12 O3 2.202 . S
Hf12 O4 2.072 . S
Hf12 O9 2.202 . S
Hf12 O14 2.072 . S
Hf12 O24 2.209 . S
Hf12 O25 2.209 . S
Hf12 O45 2.209 . S
Hf12 O46 2.209 . S
Hf13 O3 2.202 . S
Hf13 O5 2.072 . S
Hf13 O11 2.202 . S
Hf13 O14 2.072 . S
Hf13 O29 2.209 . S
Hf13 O30 2.209 . S
Hf13 O39 2.209 . S
Hf13 O44 2.209 . S
O14 Hf12 2.072 . S
O14 Hf13 2.072 . S
O14 Hf15 2.072 . S
Hf15 O7 2.072 . S
Hf15 O9 2.202 . S
Hf15 O11 2.202 . S
Hf15 O14 2.072 . S
Hf15 O23 2.209 . S
Hf15 O26 2.209 . S
Hf15 O35 2.209 . S
Hf15 O38 2.209 . S
C16 O30 1.281 . S
C16 O46 1.281 . S
C17 O33 1.281 . S
C17 O43 1.281 . S
C18 O32 1.281 . S
C18 O45 1.281 . S
C19 O20 1.281 . S
C19 O42 1.281 . S
O20 Hf6 2.209 . S
O20 C19 1.281 . S
O21 Hf6 2.209 . S
O21 C22 1.281 . S
C22 O21 1.281 . S
C22 O44 1.281 . S
O23 Hf15 2.209 . S
O23 C34 1.281 . S
O24 Hf12 2.209 . S
O24 C41 1.281 . S
O25 Hf12 2.209 . S
O25 C49 1.281 . S
O26 Hf15 2.209 . S
O26 C31 1.281 . S
O27 Hf8 2.209 . S
O27 C48 1.281 . S
O28 C0 1.281 . S
O28 Hf8 2.209 . S
O29 C1 1.281 . S
O29 Hf13 2.209 . S
O30 Hf13 2.209 . S
O30 C16 1.281 . S
C31 O26 1.281 . S
C31 O40 1.281 . S
O32 Hf10 2.209 . S
O32 C18 1.281 . S
O33 Hf10 2.209 . S
O33 C17 1.281 . S
C34 O23 1.281 . S
C34 O39 1.281 . S
O35 Hf15 2.209 . S
O35 C48 1.281 . S
O36 Hf6 2.209 . S
O36 C49 1.281 . S
O37 C0 1.281 . S
O37 Hf6 2.209 . S
O38 Hf15 2.209 . S
O38 C41 1.281 . S
O39 Hf13 2.209 . S
O39 C34 1.281 . S
O40 Hf10 2.209 . S
O40 C31 1.281 . S
C41 O24 1.281 . S
C41 O38 1.281 . S
O42 Hf10 2.209 . S
O42 C19 1.281 . S
O43 Hf8 2.209 . S
O43 C17 1.281 . S
O44 Hf13 2.209 . S
O44 C22 1.281 . S
O45 Hf12 2.209 . S
O45 C18 1.281 . S
O46 Hf12 2.209 . S
O46 C16 1.281 . S
O47 C1 1.281 . S
O47 Hf8 2.209 . S
C48 O27 1.281 . S
C48 O35 1.281 . S
C49 O25 1.281 . S
C49 O36 1.281 . S
C50 O78 1.281 . S
C50 O87 1.281 . S
C51 O79 1.281 . S
C51 O97 1.281 . S
O52 Hf56 2.202 . S
O52 Hf58 2.202 . S
O52 Hf60 2.202 . S
O53 Hf56 2.202 . S
O53 Hf62 2.202 . S
O53 Hf63 2.202 . S
O54 Hf56 2.072 . S
O54 Hf60 2.072 . S
O54 Hf62 2.072 . S
O55 Hf56 2.072 . S
O55 Hf58 2.072 . S
O55 Hf63 2.072 . S
Hf56 O52 2.202 . S
Hf56 O53 2.202 . S
Hf56 O54 2.072 . S
Hf56 O55 2.072 . S
Hf56 O70 2.209 . S
Hf56 O71 2.209 . S
Hf56 O86 2.209 . S
Hf56 O87 2.209 . S
O57 Hf58 2.072 . S
O57 Hf60 2.072 . S
O57 Hf65 2.072 . S
Hf58 O52 2.202 . S
Hf58 O55 2.072 . S
Hf58 O57 2.072 . S
Hf58 O61 2.202 . S
Hf58 O77 2.209 . S
Hf58 O78 2.209 . S
Hf58 O93 2.209 . S
Hf58 O97 2.209 . S
O59 Hf60 2.202 . S
O59 Hf62 2.202 . S
O59 Hf65 2.202 . S
Hf60 O52 2.202 . S
Hf60 O54 2.072 . S
Hf60 O57 2.072 . S
Hf60 O59 2.202 . S
Hf60 O82 2.209 . S
Hf60 O83 2.209 . S
Hf60 O90 2.209 . S
Hf60 O92 2.209 . S
O61 Hf58 2.202 . S
O61 Hf63 2.202 . S
O61 Hf65 2.202 . S
Hf62 O53 2.202 . S
Hf62 O54 2.072 . S
Hf62 O59 2.202 . S
Hf62 O64 2.072 . S
Hf62 O74 2.209 . S
Hf62 O75 2.209 . S
Hf62 O95 2.209 . S
Hf62 O96 2.209 . S
Hf63 O53 2.202 . S
Hf63 O55 2.072 . S
Hf63 O61 2.202 . S
Hf63 O64 2.072 . S
Hf63 O79 2.209 . S
Hf63 O80 2.209 . S
Hf63 O89 2.209 . S
Hf63 O94 2.209 . S
O64 Hf62 2.072 . S
O64 Hf63 2.072 . S
O64 Hf65 2.072 . S
Hf65 O57 2.072 . S
Hf65 O59 2.202 . S
Hf65 O61 2.202 . S
Hf65 O64 2.072 . S
Hf65 O73 2.209 . S
Hf65 O76 2.209 . S
Hf65 O85 2.209 . S
Hf65 O88 2.209 . S
C66 O80 1.281 . S
C66 O96 1.281 . S
C67 O83 1.281 . S
C67 O93 1.281 . S
C68 O82 1.281 . S
C68 O95 1.281 . S
C69 O70 1.281 . S
C69 O92 1.281 . S
O70 Hf56 2.209 . S
O70 C69 1.281 . S
O71 Hf56 2.209 . S
O71 C72 1.281 . S
C72 O71 1.281 . S
C72 O94 1.281 . S
O73 Hf65 2.209 . S
O73 C84 1.281 . S
O74 Hf62 2.209 . S
O74 C91 1.281 . S
O75 Hf62 2.209 . S
O75 C99 1.281 . S
O76 Hf65 2.209 . S
O76 C81 1.281 . S
O77 Hf58 2.209 . S
O77 C98 1.281 . S
O78 C50 1.281 . S
O78 Hf58 2.209 . S
O79 C51 1.281 . S
O79 Hf63 2.209 . S
O80 Hf63 2.209 . S
O80 C66 1.281 . S
C81 O76 1.281 . S
C81 O90 1.281 . S
O82 Hf60 2.209 . S
O82 C68 1.281 . S
O83 Hf60 2.209 . S
O83 C67 1.281 . S
C84 O73 1.281 . S
C84 O89 1.281 . S
O85 Hf65 2.209 . S
O85 C98 1.281 . S
O86 Hf56 2.209 . S
O86 C99 1.281 . S
O87 C50 1.281 . S
O87 Hf56 2.209 . S
O88 Hf65 2.209 . S
O88 C91 1.281 . S
O89 Hf63 2.209 . S
O89 C84 1.281 . S
O90 Hf60 2.209 . S
O90 C81 1.281 . S
C91 O74 1.281 . S
C91 O88 1.281 . S
O92 Hf60 2.209 . S
O92 C69 1.281 . S
O93 Hf58 2.209 . S
O93 C67 1.281 . S
O94 Hf63 2.209 . S
O94 C72 1.281 . S
O95 Hf62 2.209 . S
O95 C68 1.281 . S
O96 Hf62 2.209 . S
O96 C66 1.281 . S
O97 C51 1.281 . S
O97 Hf58 2.209 . S
C98 O77 1.281 . S
C98 O85 1.281 . S
C99 O75 1.281 . S
C99 O86 1.281 . S
C100 C101 1.349 . S
C100 C102 1.327 . S
C100 H125 0.950 . S
C101 C100 1.349 . S
C101 C117 1.349 . S
C102 C100 1.327 . S
C102 C121 1.429 . S
C102 H126 0.950 . S
C103 C120 1.574 1_566 S
C103 C122 1.368 . S
C103 H127 0.949 . S
H104 C108 0.949 . S
C105 C106 1.349 . S
C105 C107 1.327 . S
C105 H128 0.950 . S
C106 C105 1.349 . S
C106 C118 1.349 . S
C107 C105 1.327 . S
C107 C123 1.429 . S
C107 H129 0.950 . S
C108 H104 0.949 . S
C108 C116 1.574 1_554 S
C108 C124 1.368 1_565 S
H109 C117 0.950 . S
H110 C115 0.950 . S
H111 C116 0.949 . S
H112 C118 0.950 . S
H113 C119 0.950 1_565 S
H114 C120 0.949 . S
C115 H110 0.950 . S
C115 C117 1.327 . S
C115 C121 1.429 . S
C116 C108 1.574 1_556 S
C116 H111 0.949 . S
C116 C122 1.368 . S
C117 C101 1.349 . S
C117 H109 0.950 . S
C117 C115 1.327 . S
C118 C106 1.349 . S
C118 H112 0.950 . S
C118 C119 1.327 . S
C119 H113 0.950 1_545 S
C119 C118 1.327 . S
C119 C123 1.429 . S
C120 C103 1.574 1_544 S
C120 H114 0.949 . S
C120 C124 1.368 . S
C121 C102 1.429 . S
C121 C115 1.429 . S
C121 C122 1.523 . S
C122 C103 1.368 . S
C122 C116 1.368 . S
C122 C121 1.523 . S
C123 C107 1.429 . S
C123 C119 1.429 . S
C123 C124 1.523 . S
C124 C108 1.368 1_545 S
C124 C120 1.368 . S
C124 C123 1.523 . S
H125 C100 0.950 . S
H126 C102 0.950 . S
H127 C103 0.949 . S
H128 C105 0.950 . S
H129 C107 0.950 . S
C130 C131 1.349 . S
C130 C132 1.327 . S
C130 H155 0.950 . S
C131 C130 1.349 . S
C131 C147 1.349 . S
C132 C130 1.327 . S
C132 C151 1.429 . S
C132 H156 0.950 . S
C133 C150 1.574 . S
C133 C152 1.368 . S
C133 H157 0.949 . S
H134 C138 0.949 . S
C135 C136 1.349 . S
C135 C137 1.327 . S
C135 H158 0.950 . S
C136 C135 1.349 . S
C136 C148 1.349 . S
C137 C135 1.327 . S
C137 C153 1.429 . S
C137 H159 0.950 . S
C138 H134 0.949 . S
C138 C146 1.574 . S
C138 C154 1.368 . S
H139 C147 0.950 . S
H140 C145 0.950 . S
H141 C146 0.949 . S
H142 C148 0.950 . S
H143 C149 0.950 . S
H144 C150 0.949 . S
C145 H140 0.950 . S
C145 C147 1.327 . S
C145 C151 1.429 . S
C146 C138 1.574 . S
C146 H141 0.949 . S
C146 C152 1.368 . S
C147 C131 1.349 . S
C147 H139 0.950 . S
C147 C145 1.327 . S
C148 C136 1.349 . S
C148 H142 0.950 . S
C148 C149 1.327 . S
C149 H143 0.950 . S
C149 C148 1.327 . S
C149 C153 1.429 . S
C150 C133 1.574 . S
C150 H144 0.949 . S
C150 C154 1.368 . S
C151 C132 1.429 . S
C151 C145 1.429 . S
C151 C152 1.523 . S
C152 C133 1.368 . S
C152 C146 1.368 . S
C152 C151 1.523 . S
C153 C137 1.429 . S
C153 C149 1.429 . S
C153 C154 1.523 . S
C154 C138 1.368 . S
C154 C150 1.368 . S
C154 C153 1.523 . S
H155 C130 0.950 . S
H156 C132 0.950 . S
H157 C133 0.949 . S
H158 C135 0.950 . S
H159 C137 0.950 . S
C160 C161 1.349 . S
C160 C162 1.327 . S
C160 H185 0.950 . S
C161 C160 1.349 . S
C161 C177 1.349 . S
C162 C160 1.327 . S
C162 C181 1.429 . S
C162 H186 0.950 1_655 S
C163 C180 1.574 1_654 S
C163 C182 1.368 . S
C163 H187 0.949 . S
H164 C168 0.954 . S
C165 C166 1.349 . S
C165 C167 1.327 . S
C165 H188 0.950 . S
C166 C165 1.349 . S
C166 C178 1.349 . S
C167 C165 1.327 . S
C167 C183 1.429 . S
C167 H189 0.950 . S
C168 H164 0.954 . S
C168 C176 1.551 1_556 S
C168 C184 1.386 . S
H169 C177 0.950 . S
H170 C175 0.950 . S
H171 C176 0.949 . S
H172 C178 0.950 . S
H173 C179 0.950 . S
H174 C180 0.949 . S
C175 H170 0.950 . S
C175 C177 1.327 . S
C175 C181 1.429 . S
C176 C168 1.551 1_554 S
C176 H171 0.949 . S
C176 C182 1.368 1_455 S
C177 C161 1.349 . S
C177 H169 0.950 . S
C177 C175 1.327 . S
C178 C166 1.349 . S
C178 H172 0.950 . S
C178 C179 1.327 . S
C179 H173 0.950 . S
C179 C178 1.327 . S
C179 C183 1.429 . S
C180 C163 1.574 1_456 S
C180 H174 0.949 . S
C180 C184 1.368 . S
C181 C162 1.429 . S
C181 C175 1.429 . S
C181 C182 1.523 . S
C182 C163 1.368 . S
C182 C176 1.368 1_655 S
C182 C181 1.523 . S
C183 C167 1.429 . S
C183 C179 1.429 . S
C183 C184 1.523 . S
C184 C168 1.386 . S
C184 C180 1.368 . S
C184 C183 1.523 . S
H185 C160 0.950 . S
H186 C162 0.950 1_455 S
H187 C163 0.949 . S
H188 C165 0.950 . S
H189 C167 0.950 . S
C190 C191 1.349 . S
C190 C192 1.327 . S
C190 H215 0.950 . S
C191 C190 1.349 . S
C191 C207 1.349 . S
C192 C190 1.327 . S
C192 C211 1.429 . S
C192 H216 0.950 . S
C193 C210 1.574 . S
C193 C212 1.368 1_545 S
C193 H217 0.949 . S
H194 C198 0.949 . S
C195 C196 1.349 . S
C195 C197 1.327 . S
C195 H218 0.950 . S
C196 C195 1.349 . S
C196 C208 1.349 . S
C197 C195 1.327 . S
C197 C213 1.429 . S
C197 H219 0.950 . S
C198 H194 0.949 . S
C198 C206 1.574 1_545 S
C198 C214 1.368 . S
H199 C207 0.950 . S
H200 C205 0.950 . S
H201 C206 0.949 . S
H202 C208 0.950 . S
H203 C209 0.950 . S
H204 C210 0.949 . S
C205 H200 0.950 . S
C205 C207 1.327 . S
C205 C211 1.429 . S
C206 C198 1.574 1_565 S
C206 H201 0.949 . S
C206 C212 1.368 . S
C207 C191 1.349 . S
C207 H199 0.950 . S
C207 C205 1.327 . S
C208 C196 1.349 . S
C208 H202 0.950 . S
C208 C209 1.327 . S
C209 H203 0.950 . S
C209 C208 1.327 . S
C209 C213 1.429 . S
C210 C193 1.574 . S
C210 H204 0.949 . S
C210 C214 1.368 . S
C211 C192 1.429 . S
C211 C205 1.429 . S
C211 C212 1.523 . S
C212 C193 1.368 1_565 S
C212 C206 1.368 . S
C212 C211 1.523 . S
C213 C197 1.429 . S
C213 C209 1.429 . S
C213 C214 1.523 . S
C214 C198 1.368 . S
C214 C210 1.368 . S
C214 C213 1.523 . S
H215 C190 0.950 . S
H216 C192 0.950 . S
H217 C193 0.949 . S
H218 C195 0.950 . S
H219 C197 0.950 . S
C220 C221 1.349 . S
C220 C222 1.327 . S
C220 H245 0.950 . S
C221 C220 1.349 . S
C221 C237 1.349 . S
C222 C220 1.327 . S
C222 C241 1.429 . S
C222 H246 0.950 . S
C223 C240 1.574 1_554 S
C223 C242 1.368 . S
C223 H247 0.949 . S
H224 C228 0.949 . S
C225 C226 1.349 . S
C225 C227 1.327 . S
C225 H248 0.950 . S
C226 C225 1.349 . S
C226 C238 1.349 . S
C227 C225 1.327 . S
C227 C243 1.429 . S
C227 H249 0.950 . S
C228 H224 0.949 . S
C228 C236 1.574 1_556 S
C228 C244 1.368 . S
H229 C237 0.950 . S
H230 C235 0.950 . S
H231 C236 0.949 . S
H232 C238 0.950 . S
H233 C239 0.950 . S
H234 C240 0.949 . S
C235 H230 0.950 . S
C235 C237 1.327 . S
C235 C241 1.429 . S
C236 C228 1.574 1_554 S
C236 H231 0.949 . S
C236 C242 1.368 . S
C237 C221 1.349 . S
C237 H229 0.950 . S
C237 C235 1.327 . S
C238 C226 1.349 . S
C238 H232 0.950 . S
C238 C239 1.327 . S
C239 H233 0.950 . S
C239 C238 1.327 . S
C239 C243 1.429 . S
C240 C223 1.574 1_556 S
C240 H234 0.949 . S
C240 C244 1.368 . S
C241 C222 1.429 . S
C241 C235 1.429 . S
C241 C242 1.523 . S
C242 C223 1.368 . S
C242 C236 1.368 . S
C242 C241 1.523 . S
C243 C227 1.429 . S
C243 C239 1.429 . S
C243 C244 1.523 . S
C244 C228 1.368 . S
C244 C240 1.368 . S
C244 C243 1.523 . S
H245 C220 0.950 . S
H246 C222 0.950 . S
H247 C223 0.949 . S
H248 C225 0.950 . S
H249 C227 0.950 . S
C250 C251 1.349 . S
C250 C252 1.327 . S
C250 H275 0.950 . S
C251 C250 1.349 . S
C251 C267 1.349 . S
C252 C250 1.327 . S
C252 C271 1.429 . S
C252 H276 0.950 . S
C253 C270 1.574 1_655 S
C253 C272 1.368 . S
C253 H277 0.949 . S
H254 C258 0.949 . S
C255 C256 1.349 . S
C255 C257 1.327 . S
C255 H278 0.950 . S
C256 C255 1.349 . S
C256 C268 1.349 . S
C257 C255 1.327 . S
C257 C273 1.429 . S
C257 H279 0.950 . S
C258 H254 0.949 . S
C258 C266 1.574 . S
C258 C274 1.368 1_655 S
H259 C267 0.950 . S
H260 C265 0.950 . S
H261 C266 0.949 . S
H262 C268 0.950 . S
H263 C269 0.950 1_655 S
H264 C270 0.949 . S
C265 H260 0.950 . S
C265 C267 1.327 . S
C265 C271 1.429 . S
C266 C258 1.574 . S
C266 H261 0.949 . S
C266 C272 1.368 . S
C267 C251 1.349 . S
C267 H259 0.950 . S
C267 C265 1.327 . S
C268 C256 1.349 . S
C268 H262 0.950 . S
C268 C269 1.327 . S
C269 H263 0.950 1_455 S
C269 C268 1.327 . S
C269 C273 1.429 . S
C270 C253 1.574 1_455 S
C270 H264 0.949 . S
C270 C274 1.368 . S
C271 C252 1.429 . S
C271 C265 1.429 . S
C271 C272 1.523 . S
C272 C253 1.368 . S
C272 C266 1.368 . S
C272 C271 1.523 . S
C273 C257 1.429 . S
C273 C269 1.429 . S
C273 C274 1.523 . S
C274 C258 1.368 1_455 S
C274 C270 1.368 . S
C274 C273 1.523 . S
H275 C250 0.950 . S
H276 C252 0.950 . S
H277 C253 0.949 . S
H278 C255 0.950 . S
H279 C257 0.950 . S
C280 C281 1.349 . S
C280 C282 1.327 . S
C280 H305 0.950 . S
C281 C280 1.349 . S
C281 C297 1.349 . S
C282 C280 1.327 . S
C282 C301 1.429 1_545 S
C282 H306 0.955 . S
C283 C300 1.574 . S
C283 C302 1.368 . S
C283 H307 0.949 . S
H284 C288 0.949 . S
C285 C286 1.349 . S
C285 C287 1.327 . S
C285 H308 0.950 . S
C286 C285 1.349 . S
C286 C298 1.349 . S
C287 C285 1.327 . S
C287 C303 1.429 . S
C287 H309 0.950 . S
C288 H284 0.949 . S
C288 C296 1.574 . S
C288 C304 1.368 . S
H289 C297 0.950 . S
H290 C295 0.950 . S
H291 C296 0.949 . S
H292 C298 0.950 . S
H293 C299 0.950 . S
H294 C300 0.949 . S
C295 H290 0.950 . S
C295 C297 1.327 1_565 S
C295 C301 1.429 . S
C296 C288 1.574 . S
C296 H291 0.949 . S
C296 C302 1.368 . S
C297 C281 1.349 . S
C297 H289 0.950 . S
C297 C295 1.327 1_545 S
C298 C286 1.349 . S
C298 H292 0.950 . S
C298 C299 1.327 . S
C299 H293 0.950 . S
C299 C298 1.327 . S
C299 C303 1.429 . S
C300 C283 1.574 . S
C300 H294 0.949 . S
C300 C304 1.368 . S
C301 C282 1.429 1_565 S
C301 C295 1.429 . S
C301 C302 1.523 . S
C302 C283 1.368 . S
C302 C296 1.368 . S
C302 C301 1.523 . S
C303 C287 1.429 . S
C303 C299 1.429 . S
C303 C304 1.523 . S
C304 C288 1.368 . S
C304 C300 1.368 . S
C304 C303 1.523 . S
H305 C280 0.950 . S
H306 C282 0.955 . S
H307 C283 0.949 . S
H308 C285 0.950 . S
H309 C287 0.950 . S
C310 C311 1.349 . S
C310 C312 1.327 1_455 S
C310 H335 0.950 . S
C311 C310 1.349 . S
C311 C327 1.349 . S
C312 C310 1.327 1_655 S
C312 C331 1.429 . S
C312 H336 0.950 . S
C313 C330 1.574 . S
C313 C332 1.368 . S
C313 H337 0.949 . S
H314 C318 0.949 . S
C315 C316 1.349 . S
C315 C317 1.327 . S
C315 H338 0.950 . S
C316 C315 1.349 . S
C316 C328 1.349 . S
C317 C315 1.327 . S
C317 C333 1.429 . S
C317 H339 0.950 . S
C318 H314 0.949 . S
C318 C326 1.574 . S
C318 C334 1.368 . S
H319 C327 0.950 . S
H320 C325 0.950 . S
H321 C326 0.949 . S
H322 C328 0.950 . S
H323 C329 0.950 . S
H324 C330 0.949 . S
C325 H320 0.950 . S
C325 C327 1.327 . S
C325 C331 1.429 1_455 S
C326 C318 1.574 . S
C326 H321 0.949 . S
C326 C332 1.368 . S
C327 C311 1.349 . S
C327 H319 0.950 . S
C327 C325 1.327 . S
C328 C316 1.349 . S
C328 H322 0.950 . S
C328 C329 1.327 . S
C329 H323 0.950 . S
C329 C328 1.327 . S
C329 C333 1.429 . S
C330 C313 1.574 . S
C330 H324 0.949 . S
C330 C334 1.368 . S
C331 C312 1.429 . S
C331 C325 1.429 1_655 S
C331 C332 1.523 . S
C332 C313 1.368 . S
C332 C326 1.368 . S
C332 C331 1.523 . S
C333 C317 1.429 . S
C333 C329 1.429 . S
C333 C334 1.523 . S
C334 C318 1.368 . S
C334 C330 1.368 . S
C334 C333 1.523 . S
H335 C310 0.950 . S
H336 C312 0.950 . S
H337 C313 0.949 . S
H338 C315 0.950 . S
H339 C317 0.950 . S
C340 C341 1.349 . S
C340 C342 1.327 1_545 S
C340 H365 0.950 . S
C341 C340 1.349 . S
C341 C357 1.349 . S
C342 C340 1.327 1_565 S
C342 C361 1.429 . S
C342 H366 0.950 . S
C343 C360 1.574 . S
C343 C362 1.368 . S
C343 H367 0.949 . S
H344 C348 0.949 . S
C345 C346 1.349 . S
C345 C347 1.327 . S
C345 H368 0.950 . S
C346 C345 1.349 . S
C346 C358 1.349 . S
C347 C345 1.327 . S
C347 C363 1.429 1_655 S
C347 H369 0.946 . S
C348 H344 0.949 . S
C348 C356 1.574 . S
C348 C364 1.368 . S
H349 C357 0.950 . S
H350 C355 0.950 . S
H351 C356 0.949 . S
H352 C358 0.950 . S
H353 C359 0.950 . S
H354 C360 0.949 . S
C355 H350 0.950 . S
C355 C357 1.327 . S
C355 C361 1.429 1_545 S
C356 C348 1.574 . S
C356 H351 0.949 . S
C356 C362 1.368 . S
C357 C341 1.349 . S
C357 H349 0.950 . S
C357 C355 1.327 . S
C358 C346 1.349 . S
C358 H352 0.950 . S
C358 C359 1.327 1_655 S
C359 H353 0.950 . S
C359 C358 1.327 1_455 S
C359 C363 1.429 . S
C360 C343 1.574 . S
C360 H354 0.949 . S
C360 C364 1.368 . S
C361 C342 1.429 . S
C361 C355 1.429 1_565 S
C361 C362 1.523 . S
C362 C343 1.368 . S
C362 C356 1.368 . S
C362 C361 1.523 . S
C363 C347 1.429 1_455 S
C363 C359 1.429 . S
C363 C364 1.523 . S
C364 C348 1.368 . S
C364 C360 1.368 . S
C364 C363 1.523 . S
H365 C340 0.950 . S
H366 C342 0.950 . S
H367 C343 0.949 . S
H368 C345 0.950 . S
H369 C347 0.946 . S
C370 C371 1.349 . S
C370 C372 1.327 . S
C370 H395 0.950 . S
C371 C370 1.349 . S
C371 C387 1.349 . S
C372 C370 1.327 . S
C372 C391 1.429 . S
C372 H396 0.950 . S
C373 C390 1.574 . S
C373 C392 1.368 . S
C373 H397 0.949 . S
H374 C378 0.949 . S
C375 C376 1.349 . S
C375 C377 1.327 1_565 S
C375 H398 0.950 . S
C376 C375 1.349 . S
C376 C388 1.349 . S
C377 C375 1.327 1_545 S
C377 C393 1.429 . S
C377 H399 0.950 . S
C378 H374 0.949 . S
C378 C386 1.574 . S
C378 C394 1.368 . S
H379 C387 0.950 . S
H380 C385 0.950 . S
H381 C386 0.949 . S
H382 C388 0.950 . S
H383 C389 0.955 . S
H384 C390 0.949 . S
C385 H380 0.950 . S
C385 C387 1.327 . S
C385 C391 1.429 . S
C386 C378 1.574 . S
C386 H381 0.949 . S
C386 C392 1.368 . S
C387 C371 1.349 . S
C387 H379 0.950 . S
C387 C385 1.327 . S
C388 C376 1.349 . S
C388 H382 0.950 . S
C388 C389 1.327 . S
C389 H383 0.955 . S
C389 C388 1.327 . S
C389 C393 1.429 1_565 S
C390 C373 1.574 . S
C390 H384 0.949 . S
C390 C394 1.368 . S
C391 C372 1.429 . S
C391 C385 1.429 . S
C391 C392 1.523 . S
C392 C373 1.368 . S
C392 C386 1.368 . S
C392 C391 1.523 . S
C393 C377 1.429 . S
C393 C389 1.429 1_545 S
C393 C394 1.523 . S
C394 C378 1.368 . S
C394 C390 1.368 . S
C394 C393 1.523 . S
H395 C370 0.950 . S
H396 C372 0.950 . S
H397 C373 0.949 . S
H398 C375 0.950 . S
H399 C377 0.950 . S
C400 C401 1.349 . S
C400 C402 1.327 . S
C400 H425 0.950 . S
C401 C400 1.349 . S
C401 C417 1.349 . S
C402 C400 1.327 . S
C402 C421 1.429 . S
C402 H426 0.950 . S
C403 C420 1.574 . S
C403 C422 1.368 . S
C403 H427 0.949 . S
H404 C408 0.949 . S
C405 C406 1.349 . S
C405 C407 1.327 . S
C405 H428 0.950 . S
C406 C405 1.349 . S
C406 C418 1.349 . S
C407 C405 1.327 . S
C407 C423 1.429 1_655 S
C407 H429 0.950 . S
C408 H404 0.949 . S
C408 C416 1.574 . S
C408 C424 1.368 . S
H409 C417 0.950 . S
H410 C415 0.950 . S
H411 C416 0.949 . S
H412 C418 0.950 . S
H413 C419 0.950 . S
H414 C420 0.949 . S
C415 H410 0.950 . S
C415 C417 1.327 . S
C415 C421 1.429 . S
C416 C408 1.574 . S
C416 H411 0.949 . S
C416 C422 1.368 . S
C417 C401 1.349 . S
C417 H409 0.950 . S
C417 C415 1.327 . S
C418 C406 1.349 . S
C418 H412 0.950 . S
C418 C419 1.327 1_655 S
C419 H413 0.950 . S
C419 C418 1.327 1_455 S
C419 C423 1.429 . S
C420 C403 1.574 . S
C420 H414 0.949 . S
C420 C424 1.368 . S
C421 C402 1.429 . S
C421 C415 1.429 . S
C421 C422 1.523 . S
C422 C403 1.368 . S
C422 C416 1.368 . S
C422 C421 1.523 . S
C423 C407 1.429 1_455 S
C423 C419 1.429 . S
C423 C424 1.523 . S
C424 C408 1.368 . S
C424 C420 1.368 . S
C424 C423 1.523 . S
H425 C400 0.950 . S
H426 C402 0.950 . S
H427 C403 0.949 . S
H428 C405 0.950 . S
H429 C407 0.950 . S
C430 C431 1.349 . S
C430 C432 1.327 1_455 S
C430 H455 0.950 . S
C431 C430 1.349 . S
C431 C447 1.349 . S
C432 C430 1.327 1_655 S
C432 C451 1.429 . S
C432 H456 0.950 . S
C433 C450 1.574 . S
C433 C452 1.368 . S
C433 H457 0.949 . S
H434 C438 0.949 . S
C435 C436 1.349 . S
C435 C437 1.327 . S
C435 H458 0.950 . S
C436 C435 1.349 . S
C436 C448 1.349 . S
C437 C435 1.327 . S
C437 C453 1.429 1_565 S
C437 H459 0.950 . S
C438 H434 0.949 . S
C438 C446 1.574 . S
C438 C454 1.368 . S
H439 C447 0.950 . S
H440 C445 0.946 . S
H441 C446 0.949 . S
H442 C448 0.950 . S
H443 C449 0.950 . S
H444 C450 0.949 . S
C445 H440 0.946 . S
C445 C447 1.327 . S
C445 C451 1.429 1_455 S
C446 C438 1.574 . S
C446 H441 0.949 . S
C446 C452 1.368 . S
C447 C431 1.349 . S
C447 H439 0.950 . S
C447 C445 1.327 . S
C448 C436 1.349 . S
C448 H442 0.950 . S
C448 C449 1.327 1_565 S
C449 H443 0.950 . S
C449 C448 1.327 1_545 S
C449 C453 1.429 . S
C450 C433 1.574 . S
C450 H444 0.949 . S
C450 C454 1.368 . S
C451 C432 1.429 . S
C451 C445 1.429 1_655 S
C451 C452 1.523 . S
C452 C433 1.368 . S
C452 C446 1.368 . S
C452 C451 1.523 . S
C453 C437 1.429 1_545 S
C453 C449 1.429 . S
C453 C454 1.523 . S
C454 C438 1.368 . S
C454 C450 1.368 . S
C454 C453 1.523 . S
H455 C430 0.950 . S
H456 C432 0.950 . S
H457 C433 0.949 . S
H458 C435 0.950 . S
H459 C437 0.950 . S
C101 C51 1.668 . S
C106 C16 1.757 . S
C131 C68 1.757 . S
C136 C31 1.668 . S
C161 C22 1.757 . S
C166 C72 1.668 . S
C191 C81 1.757 . S
C196 C48 1.668 . S
C221 C49 1.757 . S
C226 C50 1.668 . S
C251 C17 1.668 . S
C256 C91 1.757 . S
C281 C34 1.039 . S
C286 C19 1.044 . S
C311 C84 1.044 . S
C316 C69 1.039 . S
C341 C41 1.044 . S
C346 C0 1.039 . S
C371 C99 1.044 . S
C376 C98 1.039 . S
C401 C18 1.039 . S
C406 C1 1.044 . S
C431 C66 1.039 . S
C436 C67 1.044 . S
