# Generated by pormake.
# Topology unp, (4)-cn, num edge types: 1
# Building blocks:
#     Node 0, Type 0, BuildingBlock: KUFVIS_clean_sbu_0, # of connection points: 4
#     Node 1, Type 0, BuildingBlock: KUFVIS_clean_sbu_0, # of connection points: 4
#     Node 2, Type 0, BuildingBlock: KUFVIS_clean_sbu_0, # of connection points: 4
#     Node 3, Type 0, BuildingBlock: KUFVIS_clean_sbu_0, # of connection points: 4
#     Node 4, Type 0, BuildingBlock: KUFVIS_clean_sbu_0, # of connection points: 4
#     Node 5, Type 0, BuildingBlock: KUFVIS_clean_sbu_0, # of connection points: 4
#     Node 6, Type 0, BuildingBlock: KUFVIS_clean_sbu_0, # of connection points: 4
#     Node 7, Type 0, BuildingBlock: KUFVIS_clean_sbu_0, # of connection points: 4
#     Node 8, Type 0, BuildingBlock: KUFVIS_clean_sbu_0, # of connection points: 4
#     Node 9, Type 0, BuildingBlock: KUFVIS_clean_sbu_0, # of connection points: 4
#     Node 10, Type 0, BuildingBlock: KUFVIS_clean_sbu_0, # of connection points: 4
#     Node 11, Type 0, BuildingBlock: KUFVIS_clean_sbu_0, # of connection points: 4
#     Node 12, Type 0, BuildingBlock: KUFVIS_clean_sbu_0, # of connection points: 4
#     Node 13, Type 0, BuildingBlock: KUFVIS_clean_sbu_0, # of connection points: 4
#     Node 14, Type 0, BuildingBlock: KUFVIS_clean_sbu_0, # of connection points: 4
#     Node 15, Type 0, BuildingBlock: KUFVIS_clean_sbu_0, # of connection points: 4
#     Node 16, Type 0, BuildingBlock: KUFVIS_clean_sbu_0, # of connection points: 4
#     Node 17, Type 0, BuildingBlock: KUFVIS_clean_sbu_0, # of connection points: 4
#     Edge 18, Type (0, 0), BuildingBlock: OJICUG_clean_linker_0, # of connection points: 2
#     Edge 19, Type (0, 0), BuildingBlock: OJICUG_clean_linker_0, # of connection points: 2
#     Edge 20, Type (0, 0), BuildingBlock: OJICUG_clean_linker_0, # of connection points: 2
#     Edge 21, Type (0, 0), BuildingBlock: OJICUG_clean_linker_0, # of connection points: 2
#     Edge 22, Type (0, 0), BuildingBlock: OJICUG_clean_linker_0, # of connection points: 2
#     Edge 23, Type (0, 0), BuildingBlock: OJICUG_clean_linker_0, # of connection points: 2
#     Edge 24, Type (0, 0), BuildingBlock: OJICUG_clean_linker_0, # of connection points: 2
#     Edge 25, Type (0, 0), BuildingBlock: OJICUG_clean_linker_0, # of connection points: 2
#     Edge 26, Type (0, 0), BuildingBlock: OJICUG_clean_linker_0, # of connection points: 2
#     Edge 27, Type (0, 0), BuildingBlock: OJICUG_clean_linker_0, # of connection points: 2
#     Edge 28, Type (0, 0), BuildingBlock: OJICUG_clean_linker_0, # of connection points: 2
#     Edge 29, Type (0, 0), BuildingBlock: OJICUG_clean_linker_0, # of connection points: 2
#     Edge 30, Type (0, 0), BuildingBlock: OJICUG_clean_linker_0, # of connection points: 2
#     Edge 31, Type (0, 0), BuildingBlock: OJICUG_clean_linker_0, # of connection points: 2
#     Edge 32, Type (0, 0), BuildingBlock: OJICUG_clean_linker_0, # of connection points: 2
#     Edge 33, Type (0, 0), BuildingBlock: OJICUG_clean_linker_0, # of connection points: 2
#     Edge 34, Type (0, 0), BuildingBlock: OJICUG_clean_linker_0, # of connection points: 2
#     Edge 35, Type (0, 0), BuildingBlock: OJICUG_clean_linker_0, # of connection points: 2
#     Edge 36, Type (0, 0), BuildingBlock: OJICUG_clean_linker_0, # of connection points: 2
#     Edge 37, Type (0, 0), BuildingBlock: OJICUG_clean_linker_0, # of connection points: 2
#     Edge 38, Type (0, 0), BuildingBlock: OJICUG_clean_linker_0, # of connection points: 2
#     Edge 39, Type (0, 0), BuildingBlock: OJICUG_clean_linker_0, # of connection points: 2
#     Edge 40, Type (0, 0), BuildingBlock: OJICUG_clean_linker_0, # of connection points: 2
#     Edge 41, Type (0, 0), BuildingBlock: OJICUG_clean_linker_0, # of connection points: 2
#     Edge 42, Type (0, 0), BuildingBlock: OJICUG_clean_linker_0, # of connection points: 2
#     Edge 43, Type (0, 0), BuildingBlock: OJICUG_clean_linker_0, # of connection points: 2
#     Edge 44, Type (0, 0), BuildingBlock: OJICUG_clean_linker_0, # of connection points: 2
#     Edge 45, Type (0, 0), BuildingBlock: OJICUG_clean_linker_0, # of connection points: 2
#     Edge 46, Type (0, 0), BuildingBlock: OJICUG_clean_linker_0, # of connection points: 2
#     Edge 47, Type (0, 0), BuildingBlock: OJICUG_clean_linker_0, # of connection points: 2
#     Edge 48, Type (0, 0), BuildingBlock: OJICUG_clean_linker_0, # of connection points: 2
#     Edge 49, Type (0, 0), BuildingBlock: OJICUG_clean_linker_0, # of connection points: 2
#     Edge 50, Type (0, 0), BuildingBlock: OJICUG_clean_linker_0, # of connection points: 2
#     Edge 51, Type (0, 0), BuildingBlock: OJICUG_clean_linker_0, # of connection points: 2
#     Edge 52, Type (0, 0), BuildingBlock: OJICUG_clean_linker_0, # of connection points: 2
#     Edge 53, Type (0, 0), BuildingBlock: OJICUG_clean_linker_0, # of connection points: 2
# Relax obj value: 0.407
# Max RMSD: 0.192
# Mean RMSD: 0.190
data_MOF--net-unp--node1-KUFVIS_clean_sbu_0--edge1-OJICUG_clean_linker_0
_symmetry_space_group_name_H-M    P1
_symmetry_Int_Tables_number       1
_symmetry_cell_setting            triclinic
loop_
_symmetry_equiv_pos_as_xyz
'x, y, z'
_cell_length_a     35.608481
_cell_length_b     35.675508
_cell_length_c     42.743329
_cell_angle_alpha  90.044138
_cell_angle_beta   89.970113
_cell_angle_gamma 120.35248
loop_
_atom_site_label
_atom_site_type_symbol
_atom_site_fract_x
_atom_site_fract_y
_atom_site_fract_z
_atom_type_partial_charge
Mn0 Mn 0.13608 0.15072 0.12614 0.0
Mn1 Mn 0.20557 0.11806 0.10812 0.0
C2 C 0.13023 0.09028 0.15173 0.0
C3 C 0.06979 0.14486 0.11445 0.0
C4 C 0.23039 0.20594 0.1358 0.0
O5 O 0.16022 0.17576 0.08291 0.0
O6 O 0.18725 0.13291 0.06827 0.0
C7 C 0.15156 0.03531 0.07399 0.0
N8 N 0.17713 0.05718 0.0989 0.0
C9 C 0.16397 0.99034 0.12272 0.0
C10 C 0.13719 0.96718 0.09753 0.0
C11 C 0.13064 0.98968 0.0733 0.0
C12 C 0.18323 0.03565 0.12263 0.0
H13 H 0.14589 0.0525 0.05551 0.0
C14 C 0.17424 0.15989 0.06206 0.0
O15 O 0.10007 0.17949 0.12826 0.0
O16 O 0.07841 0.1147 0.10763 0.0
N17 N 0.22341 0.10327 0.14632 0.0
C18 C 0.24904 0.13004 0.16967 0.0
C19 C 0.25872 0.11248 0.1957 0.0
C20 C 0.24196 0.06754 0.19757 0.0
C21 C 0.21596 0.04062 0.17322 0.0
C22 C 0.20794 0.06008 0.14759 0.0
H23 H 0.26266 0.16463 0.1684 0.0
O24 O 0.11508 0.11281 0.1649 0.0
O25 O 0.15207 0.10807 0.12665 0.0
O26 O 0.19289 0.19524 0.14645 0.0
O27 O 0.23751 0.18095 0.11841 0.0
C28 C 0.19757 -0.0048 0.17346 0.0
C29 C 0.17134 0.97004 0.14832 0.0
H30 H 0.1208 0.93204 0.09682 0.0
H31 H 0.10845 0.97142 0.05475 0.0
H32 H 0.27921 0.13361 0.21423 0.0
H33 H 0.24934 0.05406 0.21776 0.0
H34 H 0.20308 0.97925 0.193 0.0
H35 H 0.15682 0.93506 0.14896 0.0
Mn36 Mn 0.8295 0.03903 0.07054 0.0
Mn37 Mn 0.88398 0.12929 0.02722 0.0
C38 C 0.89377 0.09811 0.08877 0.0
C39 C 0.82117 0.97254 0.08545 0.0
C40 C 0.79895 0.10353 0.06023 0.0
O41 O 0.80519 0.01834 0.0266 0.0
O42 O 0.84901 0.0793 -0.00081 0.0
C43 C 0.9428 0.103 -0.00113 0.0
N44 N 0.9373 0.13322 0.01442 0.0
C45 C 0.01436 0.17758 0.02341 0.0
C46 C 0.02095 0.14775 0.00644 0.0
C47 C 0.98497 0.10993 -0.00541 0.0
C48 C 0.97155 0.16872 0.02722 0.0
H49 H 0.91516 0.07356 0.99013 0.0
C50 C 0.81923 0.03918 0.0008 0.0
O51 O 0.79015 0.98094 0.09057 0.0
O52 O 0.85507 0.0015 0.07054 0.0
N53 N 0.9197 0.17956 0.05219 0.0
C54 C 0.90729 0.20096 0.0723 0.0
C55 C 0.93916 0.23785 0.08819 0.0
C56 C 0.98341 0.25219 0.08338 0.0
C57 C -0.0046 0.22954 0.06267 0.0
C58 C 0.96222 0.19352 0.04698 0.0
H59 H 0.87334 0.18992 0.07629 0.0
O60 O 0.86599 0.07018 0.10842 0.0
O61 O 0.88099 0.09108 0.06005 0.0
O62 O 0.79538 0.07025 0.07418 0.0
O63 O 0.82991 0.12714 0.04128 0.0
C64 C 0.03888 0.24045 0.05776 0.0
C65 C 0.04833 0.21437 0.03827 0.0
H66 H 0.05332 0.15276 0.00326 0.0
H67 H -0.01028 0.08622 0.98214 0.0
H68 H 0.92962 0.25502 0.10426 0.0
H69 H 0.00789 0.28027 0.09605 0.0
H70 H 0.06523 0.26811 0.06958 0.0
H71 H 0.08175 0.22231 0.03551 0.0
Mn72 Mn 0.92467 0.84817 0.1477 0.0
Mn73 Mn 0.8369 0.77253 0.10972 0.0
C74 C 0.86261 0.85447 0.14425 0.0
C75 C -0.00892 0.9132 0.14765 0.0
C76 C 0.87477 0.75632 0.16785 0.0
O77 O 0.94695 0.81865 0.11744 0.0
O78 O 0.88866 0.78358 0.08506 0.0
C79 C 0.83383 0.81184 0.04957 0.0
N80 N 0.81636 0.79573 0.07818 0.0
C81 C 0.75768 0.80956 0.06911 0.0
C82 C 0.77543 0.82691 0.03978 0.0
C83 C 0.8135 0.82786 0.03001 0.0
C84 C 0.77911 0.79376 0.08761 0.0
H85 H 0.86331 0.81294 0.04198 0.0
C86 C 0.92923 0.79922 0.09154 0.0
O87 O 0.98226 0.88375 0.16872 0.0
O88 O 0.96181 0.90441 0.12631 0.0
N89 N 0.78666 0.7626 0.13316 0.0
C90 C 0.77344 0.7447 0.16213 0.0
C91 C 0.73578 0.74136 0.17538 0.0
C92 C 0.71196 0.75631 0.15872 0.0
C93 C 0.72585 0.77417 0.12885 0.0
C94 C 0.76353 0.77644 0.11676 0.0
H95 H 0.79127 0.7329 0.17513 0.0
O96 O 0.89011 0.87343 0.167 0.0
O97 O 0.87145 0.83042 0.12687 0.0
O98 O 0.89722 0.79564 0.17644 0.0
O99 O 0.85449 0.74468 0.14187 0.0
C100 C 0.70389 0.79004 0.11067 0.0
C101 C 0.7198 0.80773 0.08081 0.0
H102 H 0.76019 0.83969 0.02461 0.0
H103 H 0.82722 0.84125 0.00756 0.0
H104 H 0.72516 0.7273 0.1984 0.0
H105 H 0.68302 0.75384 0.16908 0.0
H106 H 0.67477 0.78886 0.11946 0.0
H107 H 0.70271 0.81993 0.06706 0.0
Mn108 Mn 0.14392 0.15204 0.86744 0.0
Mn109 Mn 0.11113 0.22127 0.88602 0.0
C110 C 0.08475 0.14774 0.84086 0.0
C111 C 0.13985 0.0864 0.87766 0.0
C112 C 0.19996 0.24634 0.86009 0.0
O113 O 0.1672 0.17425 0.91138 0.0
O114 O 0.12452 0.20165 0.92593 0.0
C115 C 0.02791 0.17193 0.92053 0.0
N116 N 0.05014 0.19433 0.89463 0.0
C117 C 0.98446 0.18467 0.87082 0.0
C118 C 0.96079 0.16063 0.89687 0.0
C119 C 0.98261 0.15444 0.9218 0.0
C120 C 0.02949 0.20129 0.8707 0.0
H121 H 0.04461 0.1669 0.9397 0.0
C122 C 0.15085 0.18778 0.93224 0.0
O123 O 0.17435 0.11799 0.8647 0.0
O124 O 0.10821 0.0931 0.88437 0.0
N125 N 0.09776 0.23991 0.84757 0.0
C126 C 0.12521 0.26468 0.82422 0.0
C127 C 0.10854 0.27483 0.79787 0.0
C128 C 0.06379 0.25951 0.79572 0.0
C129 C 0.03614 0.23428 0.82002 0.0
C130 C 0.05468 0.22539 0.84582 0.0
H131 H 0.1597 0.27726 0.82569 0.0
O132 O 0.10777 0.13297 0.82787 0.0
O133 O 0.1006 0.16755 0.86704 0.0
O134 O 0.18909 0.20944 0.84849 0.0
O135 O 0.17433 0.25292 0.87704 0.0
C136 C -0.0091 0.2177 0.81964 0.0
C137 C 0.96505 0.19282 0.84501 0.0
H138 H 0.92586 0.14691 0.89805 0.0
H139 H 0.96417 0.13602 0.94173 0.0
H140 H 0.13023 0.29467 0.77935 0.0
H141 H 0.05105 0.26746 0.77537 0.0
H142 H 0.97567 0.22394 0.79998 0.0
H143 H 0.93028 0.18024 0.84449 0.0
Mn144 Mn 0.84634 0.94089 0.83389 0.0
Mn145 Mn 0.78003 0.85096 0.87464 0.0
C146 C 0.85926 0.88283 0.83576 0.0
C147 C 0.90862 0.00975 0.83446 0.0
C148 C 0.75386 0.87927 0.81563 0.0
O149 O 0.81473 0.95999 0.86448 0.0
O150 O 0.78336 0.90136 0.89637 0.0
C151 C 0.83429 0.86902 0.93113 0.0
N152 N 0.81192 0.84216 0.90689 0.0
C153 C 0.83748 0.79335 0.92025 0.0
C154 C 0.86025 0.82015 0.94565 0.0
C155 C 0.85948 0.85869 0.95059 0.0
C156 C 0.81387 0.80593 0.90108 0.0
H157 H 0.83414 0.89889 0.93488 0.0
C158 C 0.79504 0.94087 0.88985 0.0
O159 O 0.87882 -0.00037 0.81329 0.0
O160 O 0.90181 0.98035 0.855 0.0
N161 N 0.77619 0.80071 0.85526 0.0
C162 C 0.75757 0.7818 0.82745 0.0
C163 C 0.75806 0.74446 0.81769 0.0
C164 C 0.77777 0.72702 0.83656 0.0
C165 C 0.79675 0.74705 0.86509 0.0
C166 C 0.79466 0.78379 0.87384 0.0
H167 H 0.74247 0.79508 0.81279 0.0
O168 O 0.87532 0.9108 0.81306 0.0
O169 O 0.83435 0.88903 0.85418 0.0
O170 O 0.79178 0.90869 0.8071 0.0
O171 O 0.74567 0.85797 0.84124 0.0
C172 C 0.81872 0.73271 0.88475 0.0
C173 C 0.83927 0.75598 0.91223 0.0
H174 H 0.87975 0.81235 0.96077 0.0
H175 H 0.87868 0.88066 0.96917 0.0
H176 H 0.74345 0.72925 0.79559 0.0
H177 H 0.77853 0.69851 0.82876 0.0
H178 H 0.82097 0.70446 0.87854 0.0
H179 H 0.85729 0.74548 0.92661 0.0
Mn180 Mn 0.04193 0.84796 0.9143 0.0
Mn181 Mn 0.13018 0.89586 0.96015 0.0
C182 C 0.1027 0.91288 0.89935 0.0
C183 C 0.97799 0.84369 0.89778 0.0
C184 C 0.10379 0.81383 0.92282 0.0
O185 O 0.01806 0.82051 0.95694 0.0
O186 O 0.0781 0.85965 0.98664 0.0
C187 C 0.105 0.95378 0.99129 0.0
N188 N 0.13524 0.94871 0.9753 0.0
C189 C 0.17974 0.02599 0.96763 0.0
C190 C 0.14963 0.03197 0.98477 0.0
C191 C 0.1117 -0.00431 -0.00396 0.0
C192 C 0.17097 0.98338 0.96306 0.0
H193 H 0.07531 0.92598 -0.00048 0.0
C194 C 0.03741 0.83172 0.98349 0.0
O195 O 0.98502 0.81195 0.89198 0.0
O196 O 0.0063 0.87533 0.91482 0.0
N197 N 0.18184 0.93257 0.93663 0.0
C198 C 0.20341 0.921 0.916 0.0
C199 C 0.24059 0.9534 0.90069 0.0
C200 C 0.25496 -0.00264 0.90648 0.0
C201 C 0.2321 0.00852 0.92765 0.0
C202 C 0.19593 0.97481 0.94287 0.0
H203 H 0.19223 0.88732 0.91106 0.0
O204 O 0.07599 0.88692 0.87831 0.0
O205 O 0.09404 0.89746 0.9274 0.0
O206 O 0.07133 0.81262 0.90929 0.0
O207 O 0.12719 0.84236 0.94338 0.0
C208 C 0.24288 0.05173 0.93334 0.0
C209 C 0.21652 0.06044 0.95313 0.0
H210 H 0.15438 0.0641 0.98832 0.0
H211 H 0.08755 1e-05 0.00831 0.0
H212 H 0.25786 0.9445 0.88422 0.0
H213 H 0.28317 0.02226 0.89418 0.0
H214 H 0.27056 0.07843 0.92181 0.0
H215 H 0.22411 0.09368 0.95633 0.0
Mn216 Mn 0.81191 0.42524 0.47145 0.0
Mn217 Mn 0.88312 0.40541 0.43436 0.0
C218 C 0.7984 0.3541 0.4669 0.0
C219 C 0.75128 0.43422 0.47037 0.0
C220 C 0.90155 0.45432 0.49542 0.0
O221 O 0.84735 0.47851 0.44319 0.0
O222 O 0.88172 0.45341 0.41247 0.0
C223 C 0.83927 0.37348 0.37379 0.0
N224 N 0.85672 0.3669 0.40002 0.0
C225 C 0.83349 0.29343 0.38488 0.0
C226 C 0.81553 0.29953 0.35754 0.0
C227 C 0.81787 0.33958 0.35232 0.0
C228 C 0.85383 0.32829 0.40579 0.0
H229 H 0.84024 0.40383 0.36984 0.0
C230 C 0.86838 0.48007 0.41825 0.0
O231 O 0.78015 0.45117 0.4924 0.0
O232 O 0.75799 0.41275 0.44869 0.0
N233 N 0.88449 0.35785 0.45412 0.0
C234 C 0.89887 0.35573 0.48324 0.0
C235 C 0.89662 0.31712 0.49312 0.0
C236 C 0.87951 0.28104 0.47302 0.0
C237 C 0.86496 0.28396 0.44316 0.0
C238 C 0.86866 0.32352 0.43442 0.0
H239 H 0.91195 0.38322 0.49887 0.0
O240 O 0.77993 0.364 0.48909 0.0
O241 O 0.82529 0.38673 0.45017 0.0
O242 O 0.86262 0.44404 0.50163 0.0
O243 O 0.91317 0.44487 0.46977 0.0
C244 C 0.8459 0.24884 0.42203 0.0
C245 C 0.82999 0.25351 0.39295 0.0
H246 H 0.79854 0.27311 0.3411 0.0
H247 H 0.80221 0.3444 0.33244 0.0
H248 H 0.90786 0.3151 0.51623 0.0
H249 H 0.87736 0.25114 0.48087 0.0
H250 H 0.84246 0.2178 0.42819 0.0
H251 H 0.81431 0.22594 0.37726 0.0
Mn252 Mn 0.51382 0.34005 0.45403 0.0
Mn253 Mn 0.53872 0.43974 0.43439 0.0
C254 C 0.57675 0.39812 0.47442 0.0
C255 C 0.51883 0.2794 0.44212 0.0
C256 C 0.45753 0.37539 0.46934 0.0
O257 O 0.48053 0.33428 0.41384 0.0
O258 O 0.5169 0.40355 0.39565 0.0
C259 C 0.61158 0.47722 0.38933 0.0
N260 N 0.59649 0.47557 0.4188 0.0
C261 C 0.66564 0.53564 0.43515 0.0
C262 C 0.68235 0.53686 0.40531 0.0
C263 C 0.65496 0.50821 0.3822 0.0
C264 C 0.62195 0.50471 0.4408 0.0
H265 H 0.59028 0.45556 0.37143 0.0
C266 C 0.49013 0.36242 0.39204 0.0
O267 O 0.48678 0.27579 0.45898 0.0
O268 O 0.5472 0.31778 0.43223 0.0
N269 N 0.55984 0.47429 0.47173 0.0
C270 C 0.53764 0.47227 0.49829 0.0
C271 C 0.55955 0.50076 0.52316 0.0
C272 C 0.60406 0.53131 0.52049 0.0
C273 C 0.62616 0.53326 0.49285 0.0
C274 C 0.60259 0.50388 0.46886 0.0
H275 H 0.50334 0.44959 0.50049 0.0
O276 O 0.55733 0.36115 0.48913 0.0
O277 O 0.5559 0.39963 0.45012 0.0
O278 O 0.47185 0.35128 0.47893 0.0
O279 O 0.47872 0.40681 0.45048 0.0
C280 C 0.67052 0.56365 0.48801 0.0
C281 C 0.69024 0.56491 0.45914 0.0
H282 H 0.71575 0.56058 0.39958 0.0
H283 H 0.66729 0.5109 0.35889 0.0
H284 H 0.54205 0.4994 0.54424 0.0
H285 H 0.62082 0.55344 0.53965 0.0
H286 H 0.6896 0.58667 0.50617 0.0
H287 H 0.72416 0.589 0.45543 0.0
Mn288 Mn 0.61301 0.13445 0.39673 0.0
Mn289 Mn 0.51673 0.09422 0.36041 0.0
C290 C 0.55924 0.14623 0.4166 0.0
C291 C 0.68195 0.19334 0.40647 0.0
C292 C 0.54226 0.0391 0.39874 0.0
O293 O 0.62646 0.12156 0.35275 0.0
O294 O 0.56097 0.09851 0.33019 0.0
C295 C 0.54365 0.17153 0.32062 0.0
N296 N 0.51556 0.14247 0.34194 0.0
C297 C 0.48107 0.18495 0.34974 0.0
C298 C 0.50959 0.21525 0.32783 0.0
C299 C 0.54095 0.20844 0.31315 0.0
C300 C 0.48544 0.14889 0.35637 0.0
H301 H 0.56858 0.16709 0.30987 0.0
C302 C 0.60092 0.10839 0.32899 0.0
O303 O 0.67268 0.15425 0.41403 0.0
O304 O 0.65286 0.19702 0.39091 0.0
N305 N 0.4718 0.08978 0.38747 0.0
C306 C 0.45089 0.06096 0.41108 0.0
C307 C 0.41878 0.06362 0.42838 0.0
C308 C 0.40875 0.09603 0.42139 0.0
C309 C 0.43076 0.12535 0.39701 0.0
C310 C 0.46166 0.12044 0.38004 0.0
H311 H 0.45876 0.03625 0.41678 0.0
O312 O 0.58902 0.14804 0.43495 0.0
O313 O 0.56126 0.1354 0.38807 0.0
O314 O 0.57957 0.07013 0.40699 0.0
O315 O 0.51636 0.04399 0.38063 0.0
C316 C 0.4243 0.16014 0.38961 0.0
C317 C 0.44967 0.19005 0.36615 0.0
H318 H 0.50783 0.24394 0.32222 0.0
H319 H 0.56319 0.23174 0.29631 0.0
H320 H 0.4021 0.04099 0.44725 0.0
H321 H 0.38454 0.09849 0.43516 0.0
H322 H 0.40076 0.1649 0.40241 0.0
H323 H 0.44535 0.21731 0.36131 0.0
Mn324 Mn 0.79766 0.50993 0.23931 0.0
Mn325 Mn 0.74944 0.54915 0.28549 0.0
C326 C 0.72976 0.49954 0.22672 0.0
C327 C 0.80327 0.45019 0.22463 0.0
C328 C 0.82335 0.60523 0.2413 0.0
O329 O 0.83153 0.52152 0.28035 0.0
O330 O 0.7941 0.54415 0.30975 0.0
C331 C 0.70533 0.47072 0.32519 0.0
N332 N 0.70301 0.50024 0.30627 0.0
C333 C 0.62481 0.45782 0.30541 0.0
C334 C 0.62637 0.42717 0.32508 0.0
C335 C 0.66682 0.43374 0.3351 0.0
C336 C 0.66424 0.49412 0.29637 0.0
H337 H 0.73634 0.47497 0.33229 0.0
C338 C 0.82374 0.53416 0.30639 0.0
O339 O 0.83273 0.48902 0.21576 0.0
O340 O 0.77399 0.44733 0.24386 0.0
N341 N 0.70478 0.55438 0.2646 0.0
C342 C 0.70897 0.58411 0.2428 0.0
C343 C 0.6715 0.58193 0.23022 0.0
C344 C 0.63016 0.54904 0.24 0.0
C345 C 0.62669 0.51883 0.26246 0.0
C346 C 0.66518 0.52333 0.27481 0.0
H347 H 0.74066 0.60919 0.23496 0.0
O348 O 0.75417 0.49766 0.20509 0.0
O349 O 0.7471 0.50909 0.25426 0.0
O350 O 0.82798 0.57464 0.22995 0.0
O351 O 0.79605 0.59977 0.2629 0.0
C352 C 0.5866 0.48347 0.2722 0.0
C353 C 0.58576 0.45281 0.29339 0.0
H354 H 0.59672 0.39838 0.33249 0.0
H355 H 0.66831 0.41016 0.35016 0.0
H356 H 0.67447 0.60527 0.21279 0.0
H357 H 0.60132 0.54693 0.22978 0.0
H358 H 0.55627 0.47881 0.26281 0.0
H359 H 0.55503 0.42489 0.29969 0.0
Mn360 Mn 0.47939 0.31653 0.20243 0.0
Mn361 Mn 0.40146 0.21833 0.22373 0.0
C362 C 0.47667 0.25651 0.17906 0.0
C363 C 0.54895 0.37421 0.2114 0.0
C364 C 0.38659 0.28555 0.1918 0.0
O365 O 0.45803 0.32411 0.24494 0.0
O366 O 0.42247 0.25456 0.26244 0.0
C367 C 0.43722 0.17743 0.26502 0.0
N368 N 0.42148 0.18005 0.23662 0.0
C369 C 0.42328 0.11717 0.21799 0.0
C370 C 0.44089 0.11477 0.24663 0.0
C371 C 0.44689 0.14434 0.27041 0.0
C372 C 0.41319 0.15008 0.21412 0.0
H373 H 0.44139 0.19987 0.2835 0.0
C374 C 0.44076 0.29594 0.26691 0.0
O375 O 0.52022 0.38032 0.19718 0.0
O376 O 0.53691 0.33514 0.22055 0.0
N377 N 0.38194 0.18343 0.18644 0.0
C378 C 0.36001 0.18673 0.16144 0.0
C379 C 0.34886 0.15772 0.13628 0.0
C380 C 0.36002 0.12525 0.13709 0.0
C381 C 0.38202 0.12199 0.16316 0.0
C382 C 0.39252 0.15205 0.1875 0.0
H383 H 0.35035 0.21076 0.16074 0.0
O384 O 0.49517 0.29376 0.16473 0.0
O385 O 0.45796 0.25609 0.20511 0.0
O386 O 0.4249 0.30882 0.18121 0.0
O387 O 0.37611 0.25393 0.2105 0.0
C388 C 0.39334 0.08963 0.16613 0.0
C389 C 0.41385 0.08714 0.19359 0.0
H390 H 0.44854 0.08946 0.25101 0.0
H391 H 0.45799 0.14067 0.29297 0.0
H392 H 0.3313 0.16013 0.11646 0.0
H393 H 0.35108 0.1027 0.11774 0.0
H394 H 0.38574 0.06604 0.14767 0.0
H395 H 0.42155 0.06152 0.19592 0.0
Mn396 Mn 0.67511 0.21736 0.16047 0.0
Mn397 Mn 0.76998 0.23255 0.18859 0.0
C398 C 0.73665 0.2871 0.16241 0.0
C399 C 0.6076 0.21178 0.16821 0.0
C400 C 0.72799 0.18497 0.1286 0.0
O401 O 0.6582 0.16347 0.18758 0.0
O402 O 0.72207 0.18519 0.2125 0.0
C403 C 0.76993 0.26346 0.25239 0.0
N404 N 0.78927 0.27015 0.22391 0.0
C405 C 0.84592 0.34174 0.23862 0.0
C406 C 0.82668 0.33557 0.26818 0.0
C407 C 0.78815 0.29639 0.27488 0.0
C408 C 0.82589 0.30786 0.21693 0.0
H409 H 0.74006 0.23375 0.25758 0.0
C410 C 0.68077 0.16017 0.20977 0.0
O411 O 0.61482 0.19394 0.1443 0.0
O412 O 0.63934 0.23231 0.18793 0.0
N413 N 0.81781 0.27936 0.16684 0.0
C414 C 0.82996 0.28155 0.13636 0.0
C415 C 0.86665 0.31934 0.12523 0.0
C416 C 0.8905 0.35453 0.14553 0.0
C417 C 0.87754 0.35148 0.17685 0.0
C418 C 0.84102 0.31276 0.18669 0.0
H419 H 0.81191 0.2547 0.12063 0.0
O420 O 0.70528 0.27872 0.14296 0.0
O421 O 0.73114 0.25393 0.17815 0.0
O422 O 0.6995 0.19614 0.1262 0.0
O423 O 0.75334 0.19403 0.15196 0.0
C424 C 0.8989 0.38566 0.19852 0.0
C425 C 0.88302 0.38084 0.22937 0.0
H426 H 0.84061 0.36128 0.28543 0.0
H427 H 0.77156 0.29147 0.2969 0.0
H428 H 0.87647 0.32138 0.10103 0.0
H429 H 0.91855 0.38379 0.13679 0.0
H430 H 0.92713 0.41605 0.19156 0.0
H431 H 0.89911 0.40768 0.24564 0.0
Mn432 Mn 0.50692 0.80828 0.74199 0.0
Mn433 Mn 0.54149 0.7528 0.69913 0.0
C434 C 0.49145 0.73985 0.7571 0.0
C435 C 0.44932 0.81909 0.75404 0.0
C436 C 0.59979 0.82521 0.7435 0.0
O437 O 0.52217 0.8409 0.70033 0.0
O438 O 0.5438 0.80041 0.67386 0.0
C439 C 0.46764 0.71582 0.65462 0.0
N440 N 0.49174 0.70991 0.67674 0.0
C441 C 0.44242 0.63273 0.67679 0.0
C442 C 0.41716 0.63796 0.65397 0.0
C443 C 0.42997 0.67969 0.64273 0.0
C444 C 0.47989 0.66983 0.68754 0.0
H445 H 0.4768 0.74786 0.64628 0.0
C446 C 0.53607 0.83173 0.67549 0.0
O447 O 0.48851 0.84693 0.76349 0.0
O448 O 0.44523 0.78851 0.73573 0.0
N449 N 0.53948 0.70492 0.72088 0.0
C450 C 0.5668 0.70545 0.7434 0.0
C451 C 0.55924 0.66607 0.75638 0.0
C452 C 0.52359 0.62664 0.74619 0.0
C453 C 0.49604 0.62692 0.72289 0.0
C454 C 0.50578 0.66708 0.71032 0.0
H455 H 0.59401 0.73571 0.75149 0.0
O456 O 0.49082 0.76628 0.7775 0.0
O457 O 0.50194 0.75502 0.72895 0.0
O458 O 0.57118 0.83443 0.75271 0.0
O459 O 0.59266 0.79584 0.72322 0.0
C460 C 0.45859 0.5891 0.71228 0.0
C461 C 0.43158 0.59217 0.68953 0.0
H462 H 0.38793 0.61017 0.64489 0.0
H463 H 0.41062 0.68404 0.62517 0.0
H464 H 0.58059 0.66613 0.77442 0.0
H465 H 0.51742 0.5964 0.75666 0.0
H466 H 0.44979 0.55765 0.72193 0.0
H467 H 0.40219 0.56336 0.68218 0.0
Mn468 Mn 0.21458 0.6923 0.81543 0.0
Mn469 Mn 0.22826 0.78523 0.78516 0.0
C470 C 0.28427 0.75378 0.81231 0.0
C471 C 0.20782 0.62398 0.81019 0.0
C472 C 0.1818 0.74548 0.84587 0.0
O473 O 0.16003 0.67417 0.78847 0.0
O474 O 0.18171 0.73632 0.76137 0.0
C475 C 0.26011 0.78553 0.7215 0.0
N476 N 0.26624 0.8048 0.74997 0.0
C477 C 0.33723 0.86278 0.7352 0.0
C478 C 0.33162 0.84361 0.70568 0.0
C479 C 0.2931 0.80443 0.69903 0.0
C480 C 0.30339 0.84208 0.75689 0.0
H481 H 0.23084 0.75522 0.71633 0.0
C482 C 0.15688 0.69521 0.76513 0.0
O483 O 0.19082 0.63328 0.83355 0.0
O484 O 0.22843 0.65424 0.78941 0.0
N485 N 0.27437 0.83387 0.80683 0.0
C486 C 0.27607 0.84635 0.83719 0.0
C487 C 0.31335 0.88365 0.84824 0.0
C488 C 0.34853 0.90784 0.82799 0.0
C489 C 0.34598 0.89461 0.7968 0.0
C490 C 0.30777 0.8574 0.78703 0.0
H491 H 0.24923 0.82817 0.85289 0.0
O492 O 0.27634 0.72323 0.83236 0.0
O493 O 0.25087 0.74742 0.79629 0.0
O494 O 0.19472 0.71855 0.84913 0.0
O495 O 0.18899 0.76878 0.82157 0.0
C496 C 0.38013 0.91651 0.77516 0.0
C497 C 0.37579 0.90055 0.74438 0.0
H498 H 0.35726 0.8582 0.6884 0.0
H499 H 0.2889 0.78796 0.67706 0.0
H500 H 0.31496 0.89372 0.87234 0.0
H501 H 0.37737 0.93642 0.83667 0.0
H502 H 0.4101 0.94531 0.78206 0.0
H503 H 0.40258 0.91716 0.72811 0.0
Mn504 Mn 0.30983 0.49197 0.78976 0.0
Mn505 Mn 0.21337 0.41179 0.76787 0.0
C506 C 0.24826 0.48986 0.80962 0.0
C507 C 0.36675 0.56106 0.77933 0.0
C508 C 0.28034 0.40092 0.80421 0.0
O509 O 0.32016 0.468 0.74948 0.0
O510 O 0.25159 0.43041 0.73001 0.0
C511 C 0.17395 0.44421 0.72227 0.0
N512 N 0.17504 0.42993 0.75157 0.0
C513 C 0.11056 0.43157 0.76642 0.0
C514 C 0.10957 0.44753 0.73677 0.0
C515 C 0.14079 0.45298 0.71448 0.0
C516 C 0.14371 0.42245 0.77276 0.0
H517 H 0.19772 0.44802 0.70495 0.0
C518 C 0.29331 0.44845 0.72708 0.0
O519 O 0.37316 0.53419 0.79586 0.0
O520 O 0.32789 0.54742 0.76883 0.0
N521 N 0.17669 0.39435 0.80429 0.0
C522 C 0.17943 0.37478 0.83088 0.0
C523 C 0.14898 0.36466 0.85495 0.0
C524 C 0.11576 0.37453 0.85147 0.0
C525 C 0.11327 0.39431 0.82386 0.0
C526 C 0.14471 0.40381 0.80069 0.0
H527 H 0.20412 0.36619 0.83366 0.0
O528 O 0.28478 0.50961 0.82495 0.0
O529 O 0.2494 0.4695 0.7849 0.0
O530 O 0.3023 0.43973 0.81402 0.0
O531 O 0.24921 0.38861 0.78471 0.0
C532 C 0.08044 0.40446 0.8183 0.0
C533 C 0.07903 0.423 0.78955 0.0
H534 H 0.08422 0.45447 0.73052 0.0
H535 H 0.13841 0.46305 0.69126 0.0
H536 H 0.15088 0.3489 0.87602 0.0
H537 H 0.09212 0.3664 0.87 0.0
H538 H 0.05576 0.39756 0.8358 0.0
H539 H 0.05315 0.42992 0.78528 0.0
Mn540 Mn 0.43363 0.80635 0.50819 0.0
Mn541 Mn 0.41287 0.88114 0.53791 0.0
C542 C 0.36214 0.7929 0.51037 0.0
C543 C 0.44357 0.74674 0.51461 0.0
C544 C 0.46295 0.89242 0.47828 0.0
O545 O 0.48658 0.84559 0.53583 0.0
O546 O 0.46015 0.88211 0.56269 0.0
C547 C 0.37896 0.84605 0.60062 0.0
N548 N 0.37316 0.85923 0.5721 0.0
C549 C 0.29956 0.83938 0.58473 0.0
C550 C 0.30481 0.82579 0.61429 0.0
C551 C 0.34454 0.8286 0.62207 0.0
C552 C 0.33489 0.85601 0.56411 0.0
H553 H 0.40918 0.84763 0.60658 0.0
C554 C 0.48739 0.86887 0.55916 0.0
O555 O 0.46048 0.77316 0.4912 0.0
O556 O 0.42155 0.75535 0.5347 0.0
N557 N 0.36603 0.88027 0.51508 0.0
C558 C 0.36502 0.89138 0.48472 0.0
C559 C 0.32691 0.88832 0.47264 0.0
C560 C 0.29019 0.87393 0.49188 0.0
C561 C 0.29203 0.86296 0.52309 0.0
C562 C 0.3311 0.86713 0.53392 0.0
H563 H 0.39301 0.90262 0.46977 0.0
O564 O 0.37237 0.77188 0.4905 0.0
O565 O 0.39454 0.82173 0.52636 0.0
O566 O 0.45234 0.85297 0.47466 0.0
O567 O 0.45346 0.9069 0.50245 0.0
C568 C 0.25636 0.84725 0.5437 0.0
C569 C 0.26008 0.83535 0.57449 0.0
H570 H 0.27799 0.81202 0.63065 0.0
H571 H 0.34863 0.81649 0.64415 0.0
H572 H 0.32581 0.89696 0.44853 0.0
H573 H 0.26072 0.87125 0.48241 0.0
H574 H 0.22569 0.84354 0.53596 0.0
H575 H 0.23216 0.82244 0.58994 0.0
Mn576 Mn 0.1414 0.61641 0.58214 0.0
Mn577 Mn 0.10184 0.52329 0.62239 0.0
C578 C 0.15662 0.56332 0.5668 0.0
C579 C 0.19941 0.68523 0.5712 0.0
C580 C 0.04759 0.54203 0.57746 0.0
O581 O 0.12491 0.63213 0.62402 0.0
O582 O 0.10073 0.56827 0.64908 0.0
C583 C 0.17458 0.55606 0.66771 0.0
N584 N 0.14968 0.52678 0.64529 0.0
C585 C 0.19705 0.49699 0.64398 0.0
C586 C 0.22314 0.52681 0.66705 0.0
C587 C 0.21167 0.55628 0.6791 0.0
C588 C 0.16026 0.49804 0.63369 0.0
H589 H 0.16668 0.57961 0.67649 0.0
C590 C 0.10991 0.60795 0.64836 0.0
O591 O 0.16039 0.67406 0.56174 0.0
O592 O 0.2032 0.65837 0.58935 0.0
N593 N 0.10273 0.47788 0.59906 0.0
C594 C 0.07635 0.45367 0.57511 0.0
C595 C 0.08307 0.42206 0.56085 0.0
C596 C 0.11704 0.41593 0.57118 0.0
C597 C 0.14375 0.44124 0.59587 0.0
C598 C 0.13477 0.47145 0.60973 0.0
H599 H 0.05051 0.45858 0.56682 0.0
O600 O 0.15852 0.59126 0.54665 0.0
O601 O 0.14424 0.56678 0.59459 0.0
O602 O 0.07786 0.57996 0.56972 0.0
O603 O 0.05228 0.51809 0.5976 0.0
C604 C 0.17983 0.43873 0.60655 0.0
C605 C 0.20664 0.46688 0.63037 0.0
H606 H 0.25199 0.52731 0.67569 0.0
H607 H 0.23164 0.57943 0.69688 0.0
H608 H 0.06244 0.4028 0.54171 0.0
H609 H 0.12267 0.39212 0.55971 0.0
H610 H 0.18792 0.41605 0.59606 0.0
H611 H 0.235 0.46573 0.63771 0.0
Mn612 Mn 0.34897 0.51192 0.54033 0.0
Mn613 Mn 0.44725 0.53578 0.56329 0.0
C614 C 0.40856 0.57313 0.51963 0.0
C615 C 0.28883 0.51909 0.54929 0.0
C616 C 0.38338 0.45378 0.52897 0.0
O617 O 0.3407 0.48002 0.58149 0.0
O618 O 0.4092 0.51597 0.6013 0.0
C619 C 0.48328 0.61083 0.60645 0.0
N620 N 0.48313 0.59405 0.57787 0.0
C621 C 0.54469 0.66186 0.56111 0.0
C622 C 0.54464 0.68018 0.59001 0.0
C623 C 0.51443 0.65434 0.6129 0.0
C624 C 0.51355 0.61812 0.55611 0.0
H625 H 0.46025 0.59083 0.62419 0.0
C626 C 0.36777 0.48967 0.60408 0.0
O627 O 0.28501 0.48599 0.53375 0.0
O628 O 0.32708 0.54716 0.55964 0.0
N629 N 0.48359 0.55474 0.5267 0.0
C630 C 0.48238 0.53121 0.50115 0.0
C631 C 0.5122 0.55162 0.47669 0.0
C632 C 0.54328 0.59598 0.47876 0.0
C633 C 0.54437 0.61945 0.50538 0.0
C634 C 0.51367 0.59736 0.529 0.0
H635 H 0.45929 0.497 0.49944 0.0
O636 O 0.37209 0.5535 0.50422 0.0
O637 O 0.4087 0.55336 0.54499 0.0
O638 O 0.3601 0.46826 0.51789 0.0
O639 O 0.41414 0.47523 0.54832 0.0
C640 C 0.57513 0.66378 0.50956 0.0
C641 C 0.57534 0.68497 0.53745 0.0
H642 H 0.56845 0.7137 0.59524 0.0
H643 H 0.51611 0.66802 0.63556 0.0
H644 H 0.51146 0.53307 0.45641 0.0
H645 H 0.56643 0.61156 0.45992 0.0
H646 H 0.59917 0.68172 0.49167 0.0
H647 H 0.59966 0.71888 0.54068 0.0
C648 C 0.31225 0.27399 0.19496 0.0
C649 C 0.35017 0.28722 0.17723 0.0
H650 H 0.24272 0.23784 0.19494 0.0
C651 C 0.34769 0.28684 0.1445 0.0
H652 H 0.31363 0.27459 0.2203 0.0
C653 C 0.30705 0.26492 0.13002 0.0
C654 C 0.269 0.24452 0.14824 0.0
H655 H 0.37652 0.29709 0.13034 0.0
H656 H 0.30559 0.25939 0.105 0.0
C657 C 0.27164 0.25291 0.18044 0.0
C658 C 0.77783 0.16061 0.06134 0.0
C659 C 0.76953 0.11911 0.07023 0.0
H660 H 0.76947 0.21437 0.07316 0.0
C661 C 0.73781 0.09595 0.09319 0.0
H662 H 0.80159 0.17908 0.04342 0.0
C663 C 0.71977 0.11631 0.11011 0.0
C664 C 0.73246 0.15957 0.10381 0.0
H665 H 0.72992 0.0636 0.10019 0.0
H666 H 0.69906 0.09964 0.12998 0.0
C667 C 0.75936 0.18081 0.07818 0.0
C668 C 0.84663 0.68425 0.23848 0.0
C669 C 0.84578 0.64766 0.2253 0.0
H670 H 0.85751 0.74839 0.23039 0.0
C671 C 0.86063 0.65005 0.19448 0.0
H672 H 0.83552 0.6834 0.2622 0.0
C673 C 0.87218 0.68663 0.17631 0.0
C674 C 0.87021 0.72188 0.18884 0.0
H675 H 0.86044 0.62255 0.18356 0.0
H676 H 0.88098 0.68668 0.15202 0.0
C677 C 0.85923 0.72139 0.22039 0.0
C678 C 0.27278 0.32845 0.80292 0.0
C679 C 0.28306 0.36603 0.82011 0.0
H680 H 0.23807 0.25908 0.80294 0.0
C681 C 0.27989 0.36375 0.85279 0.0
H682 H 0.27572 0.32979 0.77765 0.0
C683 C 0.2576 0.3232 0.86721 0.0
C684 C 0.23945 0.28518 0.84898 0.0
H685 H 0.28797 0.3924 0.86653 0.0
H686 H 0.24975 0.32167 0.89185 0.0
C687 C 0.25112 0.28794 0.8174 0.0
C688 C 0.67988 0.86788 0.80972 0.0
C689 C 0.71672 0.87032 0.79587 0.0
H690 H 0.61433 0.85305 0.80355 0.0
C691 C 0.71667 0.86214 0.76379 0.0
H692 H 0.67955 0.87444 0.83445 0.0
C693 C 0.67899 0.84904 0.74612 0.0
C694 C 0.64157 0.84532 0.76024 0.0
H695 H 0.74493 0.86389 0.75279 0.0
H696 H 0.67874 0.8408 0.72169 0.0
C697 C 0.6428 0.85607 0.79197 0.0
C698 C 0.11472 0.7402 0.86595 0.0
C699 C 0.1578 0.7512 0.87123 0.0
H700 H 0.06261 0.74962 0.87948 0.0
C701 C 0.17977 0.77504 0.89792 0.0
H702 H 0.09736 0.72158 0.84545 0.0
C703 C 0.16036 0.79212 0.91723 0.0
C704 C 0.11881 0.78523 0.90991 0.0
H705 H 0.21318 0.78368 0.90223 0.0
H706 H 0.17934 0.81365 0.93611 0.0
C707 C 0.09505 0.75647 0.88544 0.0
C708 C 0.97295 0.51746 0.50864 0.0
C709 C 0.93569 0.47939 0.51834 0.0
H710 H 0.03695 0.56787 0.52013 0.0
C711 C 0.93325 0.46405 0.54891 0.0
H712 H 0.97526 0.52975 0.4851 0.0
C713 C 0.96906 0.48536 0.56899 0.0
C714 C 0.00714 0.5228 0.55887 0.0
H715 H 0.90466 0.43446 0.55664 0.0
H716 H 0.96745 0.47188 0.59198 0.0
C717 C 0.0081 0.53932 0.52882 0.0
C718 C 0.3768 0.40919 0.48269 0.0
C719 C 0.38194 0.41544 0.51509 0.0
H720 H 0.39714 0.38942 0.44199 0.0
C721 C 0.39825 0.39325 0.53245 0.0
H722 H 0.36382 0.42548 0.46885 0.0
C723 C 0.41712 0.37237 0.5171 0.0
C724 C 0.41994 0.37408 0.48442 0.0
H725 H 0.40159 0.39691 0.55764 0.0
H726 H 0.435 0.36095 0.53073 0.0
C727 C 0.39596 0.3886 0.46734 0.0
C728 C 0.54862 -0.00605 0.44055 0.0
C729 C 0.52605 -0.00322 0.41447 0.0
H730 H 0.54553 0.95796 0.48147 0.0
C731 C 0.4853 0.96079 0.40667 0.0
H732 H 0.58014 0.02083 0.44722 0.0
C733 C 0.46604 0.92428 0.42611 0.0
C734 C 0.48711 0.92373 0.45363 0.0
H735 H 0.4672 0.96181 0.38665 0.0
H736 H 0.43345 0.89806 0.42092 0.0
C737 C 0.529 0.95796 0.46018 0.0
C738 C 0.00774 0.15889 0.12292 0.0
C739 C 0.02663 0.13817 0.10667 0.0
H740 H 0.94933 0.16197 0.1303 0.0
C741 C 0.0022 0.10675 0.08406 0.0
H742 H 0.02598 0.183 0.14067 0.0
C743 C 0.95947 0.09506 0.07836 0.0
C744 C 0.94002 0.11481 0.09476 0.0
H745 H 0.01581 0.09031 0.07104 0.0
H746 H 0.94119 0.06964 0.06141 0.0
C747 C 0.96414 0.14678 0.11722 0.0
C748 C 0.80458 0.91754 0.12817 0.0
C749 C 0.82182 0.93462 0.09843 0.0
H750 H 0.80428 0.87827 0.16678 0.0
C751 C 0.84817 0.92146 0.08342 0.0
H752 H 0.7848 0.92793 0.14046 0.0
C753 C 0.85972 0.89438 0.09844 0.0
C754 C 0.84429 0.87849 0.12859 0.0
H755 H 0.86216 0.93426 0.06064 0.0
H756 H 0.8826 0.88746 0.08683 0.0
C757 C 0.8161 0.88973 0.14336 0.0
C758 C 0.07807 0.0246 0.12289 0.0
C759 C 0.10068 0.0428 0.15092 0.0
H760 H 0.0267 0.96957 0.09982 0.0
C761 C 0.08918 0.01676 0.17779 0.0
H762 H 0.08521 0.04412 0.10195 0.0
C763 C 0.05499 0.97332 0.17653 0.0
C764 C 0.03137 0.95606 0.14859 0.0
H765 H 0.10556 0.03032 0.19979 0.0
H766 H 0.0456 0.95405 0.19772 0.0
C767 C 0.04407 0.98187 0.12169 0.0
C768 C 0.09696 0.97638 0.91291 0.0
C769 C 0.11819 0.95924 0.89549 0.0
H770 H 0.08796 0.03007 0.92128 0.0
C771 C 0.14901 0.98511 0.87289 0.0
H772 H 0.07226 0.95673 0.92996 0.0
C773 C 0.15826 0.02787 0.86788 0.0
C774 C 0.13565 0.04419 0.88481 0.0
H775 H 0.1652 0.97211 0.85893 0.0
H776 H 0.18147 0.04735 0.84995 0.0
C777 C 0.10564 0.0183 0.90773 0.0
C778 C 0.01532 0.10792 0.80937 0.0
C779 C 0.03694 0.12043 0.83831 0.0
H780 H 0.95619 0.06303 0.78528 0.0
C781 C 0.01387 0.09953 0.86561 0.0
H782 H 0.03271 0.12279 0.78793 0.0
C783 C 0.9709 0.06608 0.86418 0.0
C784 C 0.94985 0.05173 0.83532 0.0
H785 H 0.03003 0.10664 0.88809 0.0
H786 H 0.955 0.04958 0.88568 0.0
C787 C 0.97167 0.07392 0.8079 0.0
C788 C 0.9209 0.82461 0.85588 0.0
C789 C 0.94322 0.84815 0.88282 0.0
H790 H 0.87629 0.81736 0.81888 0.0
C791 C 0.93687 0.88167 0.89347 0.0
H792 H 0.92586 0.79904 0.84691 0.0
C793 C 0.90983 0.89226 0.87749 0.0
C794 C 0.88758 0.86929 0.85065 0.0
H795 H 0.95355 0.90063 0.91401 0.0
H796 H 0.90628 0.91877 0.88635 0.0
C797 C 0.89321 0.83537 0.83965 0.0
C798 C 0.69198 0.43732 0.49988 0.0
C799 C 0.71056 0.43574 0.47119 0.0
H800 H 0.63405 0.42673 0.52353 0.0
C801 C 0.68729 0.43027 0.44349 0.0
H802 H 0.70925 0.44142 0.52163 0.0
C803 C 0.64497 0.42305 0.44457 0.0
C804 C 0.62477 0.42066 0.47341 0.0
H805 H 0.70088 0.42915 0.42105 0.0
H806 H 0.62677 0.41528 0.42291 0.0
C807 C 0.6491 0.42919 0.50102 0.0
C808 C 0.50691 0.20503 0.45369 0.0
C809 C 0.5244 0.24229 0.43466 0.0
H810 H 0.50488 0.14466 0.46316 0.0
C811 C 0.55088 0.24593 0.40923 0.0
H812 H 0.4867 0.20178 0.47362 0.0
C813 C 0.56063 0.2136 0.40323 0.0
C814 C 0.54404 0.1768 0.4224 0.0
H815 H 0.56473 0.27418 0.39413 0.0
H816 H 0.5821 0.21789 0.38386 0.0
C817 C 0.51733 0.17262 0.44786 0.0
C818 C 0.75586 0.31154 0.42166 0.0
C819 C 0.77328 0.31179 0.45111 0.0
H820 H 0.71579 0.27411 0.38371 0.0
C821 C 0.76437 0.27228 0.46463 0.0
H822 H 0.76147 0.34151 0.41102 0.0
C823 C 0.73759 0.23293 0.44879 0.0
C824 C 0.71917 0.23301 0.41961 0.0
H825 H 0.77734 0.27183 0.48745 0.0
H826 H 0.72926 0.20257 0.46014 0.0
C827 C 0.72968 0.27285 0.40597 0.0
C828 C 0.75032 0.33156 0.20938 0.0
C829 C 0.75991 0.32987 0.1778 0.0
H830 H 0.75945 0.37057 0.24942 0.0
C831 C 0.78892 0.36852 0.16223 0.0
H832 H 0.72715 0.30241 0.22173 0.0
C833 C 0.80733 0.4085 0.17826 0.0
C834 C 0.79639 0.40983 0.20979 0.0
H835 H 0.79646 0.36788 0.13776 0.0
H836 H 0.82767 0.4383 0.16555 0.0
C837 C 0.7689 0.37074 0.22529 0.0
C838 C 0.66326 0.43292 0.2419 0.0
C839 C 0.68271 0.47079 0.22378 0.0
H840 H 0.60563 0.37345 0.25263 0.0
C841 C 0.65782 0.4778 0.20167 0.0
H842 H 0.68222 0.42644 0.25856 0.0
C843 C 0.61336 0.44733 0.19836 0.0
C844 C 0.59413 0.40915 0.21645 0.0
H845 H 0.6727 0.50657 0.1871 0.0
H846 H 0.59449 0.4529 0.18107 0.0
C847 C 0.61948 0.40251 0.23835 0.0
C848 C 0.51963 0.22742 0.20355 0.0
C849 C 0.49903 0.23131 0.17667 0.0
H850 H 0.57048 0.21844 0.22188 0.0
C851 C 0.51005 0.22199 0.14733 0.0
H852 H 0.51281 0.23563 0.22644 0.0
C853 C 0.54319 0.21187 0.14477 0.0
C854 C 0.56654 0.21225 0.17144 0.0
H855 H 0.49521 0.22554 0.12627 0.0
H856 H 0.55284 0.20728 0.12171 0.0
C857 C 0.55325 0.2183 0.20094 0.0
C858 C 0.33061 0.77078 0.76586 0.0
C859 C 0.32763 0.77834 0.79768 0.0
H860 H 0.37132 0.78145 0.72653 0.0
C861 C 0.36587 0.80561 0.81443 0.0
H862 H 0.3019 0.74853 0.75267 0.0
C863 C 0.40665 0.82392 0.79939 0.0
C864 C 0.4092 0.81476 0.76763 0.0
H865 H 0.36431 0.8114 0.83914 0.0
H866 H 0.43601 0.84229 0.81309 0.0
C867 C 0.37057 0.78962 0.75087 0.0
C868 C 0.22202 0.53222 0.78056 0.0
C869 C 0.22326 0.51252 0.80879 0.0
H870 H 0.21677 0.58356 0.75891 0.0
C871 C 0.21245 0.5254 0.83675 0.0
H872 H 0.23126 0.52378 0.75868 0.0
C873 C 0.20386 0.55962 0.83679 0.0
C874 C 0.20721 0.58225 0.80899 0.0
H875 H 0.2139 0.51126 0.85882 0.0
H876 H 0.19809 0.57057 0.85897 0.0
C877 C 0.21448 0.56704 0.7807 0.0
C878 C 0.46948 0.67091 0.78614 0.0
C879 C 0.46247 0.69344 0.76214 0.0
H880 H 0.44485 0.60979 0.80985 0.0
C881 C 0.42453 0.67241 0.74413 0.0
H882 H 0.49825 0.6872 0.8007 0.0
C883 C 0.39425 0.62908 0.74942 0.0
C884 C 0.40115 0.60591 0.77302 0.0
H885 H 0.41806 0.68972 0.72606 0.0
H886 H 0.36522 0.61382 0.73504 0.0
C887 C 0.43917 0.62692 0.79125 0.0
C888 C 0.44914 0.68616 0.48951 0.0
C889 C 0.44558 0.70636 0.51675 0.0
H890 H 0.44045 0.62719 0.46905 0.0
C891 C 0.43889 0.68509 0.54554 0.0
H892 H 0.45431 0.70185 0.46696 0.0
C893 C 0.43228 0.64304 0.54679 0.0
C894 C 0.43158 0.62111 0.51919 0.0
H895 H 0.43635 0.70001 0.56691 0.0
H896 H 0.4235 0.62629 0.56906 0.0
C897 C 0.44155 0.64358 0.49067 0.0
C898 C 0.27879 0.73398 0.5726 0.0
C899 C 0.23934 0.72116 0.55727 0.0
H900 H 0.34767 0.76472 0.56903 0.0
C901 C 0.24024 0.73501 0.52624 0.0
H902 H 0.27929 0.72354 0.59632 0.0
C903 C 0.28017 0.75934 0.51043 0.0
C904 C 0.31927 0.77029 0.52574 0.0
H905 H 0.2102 0.72472 0.51363 0.0
H906 H 0.28047 0.7687 0.48629 0.0
C907 C 0.31804 0.75755 0.55691 0.0
C908 C 0.21561 0.50827 0.53487 0.0
C909 C 0.25217 0.52619 0.55466 0.0
H910 H 0.15604 0.5067 0.52288 0.0
C911 C 0.25554 0.55438 0.57879 0.0
H912 H 0.21263 0.48683 0.51588 0.0
C913 C 0.22343 0.56503 0.5829 0.0
C914 C 0.18718 0.54767 0.56308 0.0
H915 H 0.28334 0.56868 0.59439 0.0
H916 H 0.22734 0.58757 0.60137 0.0
C917 C 0.1835 0.51963 0.53875 0.0
C918 C 0.1524 0.19489 0.02068 0.0
C919 C 0.17246 0.17098 0.02893 0.0
H920 H 0.12992 0.21913 0.98382 0.0
C921 C 0.18846 0.15573 0.00507 0.0
H922 H 0.14007 0.20747 0.03848 0.0
C923 C 0.18267 0.16241 0.97369 0.0
C924 C 0.16079 0.1846 0.96543 0.0
H925 H 0.20459 0.13769 0.01057 0.0
H926 H 0.19425 0.14899 0.95594 0.0
C927 C 0.14655 0.20156 0.9893 0.0
C928 C 0.76939 0.94618 0.94323 0.0
C929 C 0.79171 0.9669 0.91553 0.0
H930 H 0.76033 0.95268 0.99197 0.0
C931 C 0.81684 0.01241 0.91499 0.0
H932 H 0.74921 0.91114 0.94438 0.0
C933 C 0.82311 0.03626 0.94237 0.0
C934 C 0.80442 0.01507 0.97085 0.0
H935 H 0.83434 0.02947 0.89409 0.0
H936 H 0.84495 0.07108 0.9415 0.0
C937 C 0.77577 0.97 0.97062 0.0
C938 C 0.02939 0.8332 0.04182 0.0
C939 C 0.01069 0.81596 0.01241 0.0
H940 H 0.01853 0.84118 0.08998 0.0
C941 C 0.96546 0.78776 0.01063 0.0
H942 H 0.06414 0.85492 0.04421 0.0
C943 C 0.93929 0.77973 0.03702 0.0
C944 C 0.95765 0.79982 0.06585 0.0
H945 H 0.94989 0.77359 0.98851 0.0
H946 H 0.90437 0.75958 0.03431 0.0
C947 C 0.00318 0.82525 0.06821 0.0
C948 C 0.83246 0.53967 0.36474 0.0
C949 C 0.84549 0.5319 0.33542 0.0
H950 H 0.83012 0.53016 0.41425 0.0
C951 C 0.87468 0.5164 0.33475 0.0
H952 H 0.81056 0.55235 0.36633 0.0
C953 C 0.88658 0.50438 0.36251 0.0
C954 C 0.86898 0.50695 0.3915 0.0
H955 H 0.886 0.5107 0.31272 0.0
H956 H 0.90662 0.48959 0.36082 0.0
C957 C 0.84395 0.52721 0.39245 0.0
C958 C 0.46755 0.35763 0.30512 0.0
C959 C 0.44654 0.31261 0.29937 0.0
H960 H 0.49771 0.40882 0.3389 0.0
C961 C 0.43498 0.28423 0.32493 0.0
H962 H 0.4761 0.38049 0.28604 0.0
C963 C 0.44716 0.30057 0.35523 0.0
C964 C 0.47156 0.34564 0.36065 0.0
H965 H 0.41809 0.24938 0.32147 0.0
H966 H 0.43885 0.27776 0.37429 0.0
C967 C 0.48005 0.37397 0.33543 0.0
C968 C 0.66301 0.12256 0.29347 0.0
C969 C 0.61903 0.10978 0.29741 0.0
H970 H 0.71685 0.14658 0.26207 0.0
C971 C 0.59357 0.10384 0.27055 0.0
H972 H 0.68341 0.12668 0.31348 0.0
C973 C 0.61279 0.11564 0.24098 0.0
C974 C 0.65784 0.13336 0.23758 0.0
H975 H 0.5593 0.09327 0.27252 0.0
H976 H 0.59291 0.11434 0.22136 0.0
C977 C 0.68213 0.13385 0.26382 0.0
C978 C 0.50985 0.89166 0.61469 0.0
C979 C 0.51403 0.87252 0.58698 0.0
H980 H 0.51346 0.89378 0.6647 0.0
C981 C 0.53553 0.8487 0.58849 0.0
H982 H 0.49426 0.91102 0.61444 0.0
C983 C 0.54705 0.83929 0.61742 0.0
C984 C 0.53696 0.85316 0.64549 0.0
H985 H 0.53993 0.83397 0.56769 0.0
H986 H 0.56042 0.81795 0.61778 0.0
C987 C 0.52088 0.88179 0.64368 0.0
C988 C 0.122 0.67197 0.68082 0.0
C989 C 0.10914 0.62782 0.6788 0.0
H990 H 0.1452 0.72775 0.71017 0.0
C991 C 0.1019 0.60418 0.70681 0.0
H992 H 0.12714 0.69105 0.65988 0.0
C993 C 0.11282 0.62532 0.73577 0.0
C994 C 0.1308 0.67051 0.73742 0.0
H995 H 0.09123 0.56987 0.70634 0.0
H996 H 0.11068 0.60677 0.75643 0.0
C997 C 0.1323 0.69299 0.70984 0.0
C998 C 0.30371 0.4469 0.63926 0.0
C999 C 0.34916 0.47195 0.6353 0.0
H1000 H 0.2503 0.4192 0.67136 0.0
C1001 C 0.37592 0.48226 0.66173 0.0
H1002 H 0.28197 0.43698 0.61933 0.0
C1003 C 0.3576 0.47206 0.69165 0.0
C1004 C 0.31214 0.45108 0.69569 0.0
H1005 H 0.41104 0.50043 0.65951 0.0
H1006 H 0.37929 0.48274 0.71162 0.0
C1007 C 0.28541 0.43657 0.66913 0.0
loop_
_geom_bond_atom_site_label_1
_geom_bond_atom_site_label_2
_geom_bond_distance
_geom_bond_site_symmetry_2
_ccdc_geom_bond_type
Mn0 O5 2.095 . S
Mn0 O15 2.162 . S
Mn0 O16 2.297 . S
Mn0 O24 2.385 . S
Mn0 O25 2.209 . S
Mn0 O26 2.094 . S
Mn1 O6 2.121 . S
Mn1 N8 2.257 . S
Mn1 N17 2.282 . S
Mn1 O25 2.215 . S
Mn1 O27 2.117 . S
C2 O24 1.234 . S
C2 O25 1.283 . S
C3 O15 1.281 . S
C3 O16 1.236 . S
C4 O26 1.240 . S
C4 O27 1.264 . S
O5 Mn0 2.095 . S
O5 C14 1.250 . S
O6 Mn1 2.121 . S
O6 C14 1.258 . S
C7 N8 1.326 . S
C7 C11 1.460 . S
C7 H13 0.929 . S
N8 Mn1 2.257 . S
N8 C7 1.326 . S
N8 C12 1.362 . S
C9 C10 1.258 . S
C9 C12 1.431 . S
C9 C29 1.449 1_545 S
C10 C9 1.258 . S
C10 C11 1.477 . S
C10 H30 0.931 1_545 S
C11 C7 1.460 . S
C11 C10 1.477 . S
C11 H31 0.930 . S
C12 N8 1.362 . S
C12 C9 1.431 . S
C12 C22 1.476 . S
H13 C7 0.929 . S
C14 O5 1.250 . S
C14 O6 1.258 . S
O15 Mn0 2.162 . S
O15 C3 1.281 . S
O16 Mn0 2.297 . S
O16 C3 1.236 . S
N17 Mn1 2.282 . S
N17 C18 1.328 . S
N17 C22 1.318 . S
C18 N17 1.328 . S
C18 C19 1.457 . S
C18 H23 0.929 . S
C19 C18 1.457 . S
C19 C20 1.291 . S
C19 H32 0.931 . S
C20 C19 1.291 . S
C20 C21 1.373 . S
C20 H33 0.929 . S
C21 C20 1.373 . S
C21 C22 1.396 . S
C21 C28 1.403 1_545 S
C22 C12 1.476 . S
C22 N17 1.318 . S
C22 C21 1.396 . S
H23 C18 0.929 . S
O24 Mn0 2.385 . S
O24 C2 1.234 . S
O25 Mn0 2.209 . S
O25 Mn1 2.215 . S
O25 C2 1.283 . S
O26 Mn0 2.094 . S
O26 C4 1.240 . S
O27 Mn1 2.117 . S
O27 C4 1.264 . S
C28 C21 1.403 1_565 S
C28 C29 1.399 . S
C28 H34 0.929 . S
C29 C9 1.449 1_565 S
C29 C28 1.399 . S
C29 H35 0.930 . S
H30 C10 0.931 1_565 S
H31 C11 0.930 . S
H32 C19 0.931 . S
H33 C20 0.929 . S
H34 C28 0.929 . S
H35 C29 0.930 . S
Mn36 O41 2.095 . S
Mn36 O51 2.162 . S
Mn36 O52 2.297 . S
Mn36 O60 2.385 1_565 S
Mn36 O61 2.209 1_565 S
Mn36 O62 2.094 1_565 S
Mn37 O42 2.121 . S
Mn37 N44 2.257 . S
Mn37 N53 2.282 . S
Mn37 O61 2.215 . S
Mn37 O63 2.117 . S
C38 O60 1.234 . S
C38 O61 1.283 . S
C39 O51 1.281 . S
C39 O52 1.236 . S
C40 O62 1.240 . S
C40 O63 1.264 . S
O41 Mn36 2.095 . S
O41 C50 1.257 . S
O42 Mn37 2.121 . S
O42 C50 1.242 1_545 S
C43 N44 1.326 . S
C43 C47 1.460 . S
C43 H49 0.929 . S
N44 Mn37 2.257 . S
N44 C43 1.326 . S
N44 C48 1.362 . S
C45 C46 1.258 . S
C45 C48 1.431 . S
C45 C65 1.449 1_655 S
C46 C45 1.258 . S
C46 C47 1.477 . S
C46 H66 0.931 1_655 S
C47 C43 1.460 . S
C47 C46 1.477 . S
C47 H67 0.930 . S
C48 N44 1.362 . S
C48 C45 1.431 . S
C48 C58 1.476 . S
H49 C43 0.929 . S
C50 O41 1.257 . S
C50 O42 1.242 1_565 S
O51 Mn36 2.162 . S
O51 C39 1.281 . S
O52 Mn36 2.297 . S
O52 C39 1.236 . S
N53 Mn37 2.282 . S
N53 C54 1.328 . S
N53 C58 1.318 . S
C54 N53 1.328 . S
C54 C55 1.457 . S
C54 H59 0.929 . S
C55 C54 1.457 . S
C55 C56 1.291 . S
C55 H68 0.931 . S
C56 C55 1.291 . S
C56 C57 1.373 . S
C56 H69 0.929 . S
C57 C56 1.373 . S
C57 C58 1.396 . S
C57 C64 1.403 1_655 S
C58 C48 1.476 . S
C58 N53 1.318 . S
C58 C57 1.396 . S
H59 C54 0.929 . S
O60 Mn36 2.385 1_545 S
O60 C38 1.234 . S
O61 Mn36 2.209 1_545 S
O61 Mn37 2.215 . S
O61 C38 1.283 . S
O62 Mn36 2.094 1_545 S
O62 C40 1.240 . S
O63 Mn37 2.117 . S
O63 C40 1.264 . S
C64 C57 1.403 1_455 S
C64 C65 1.399 . S
C64 H70 0.929 . S
C65 C45 1.449 1_455 S
C65 C64 1.399 . S
C65 H71 0.930 . S
H66 C46 0.931 1_455 S
H67 C47 0.930 . S
H68 C55 0.931 . S
H69 C56 0.929 . S
H70 C64 0.929 . S
H71 C65 0.930 . S
Mn72 O77 2.095 . S
Mn72 O87 2.162 . S
Mn72 O88 2.297 . S
Mn72 O96 2.385 1_455 S
Mn72 O97 2.209 1_455 S
Mn72 O98 2.094 1_455 S
Mn73 O78 2.121 . S
Mn73 N80 2.257 . S
Mn73 N89 2.282 . S
Mn73 O97 2.215 . S
Mn73 O99 2.117 . S
C74 O96 1.234 . S
C74 O97 1.283 . S
C75 O87 1.281 . S
C75 O88 1.236 . S
C76 O98 1.240 . S
C76 O99 1.264 . S
O77 Mn72 2.095 . S
O77 C86 1.259 . S
O78 Mn73 2.121 . S
O78 C86 1.239 1_655 S
C79 N80 1.326 . S
C79 C83 1.460 . S
C79 H85 0.929 . S
N80 Mn73 2.257 . S
N80 C79 1.326 . S
N80 C84 1.362 . S
C81 C82 1.258 . S
C81 C84 1.431 . S
C81 C101 1.449 . S
C82 C81 1.258 . S
C82 C83 1.477 . S
C82 H102 0.931 . S
C83 C79 1.460 . S
C83 C82 1.477 . S
C83 H103 0.930 . S
C84 N80 1.362 . S
C84 C81 1.431 . S
C84 C94 1.476 . S
H85 C79 0.929 . S
C86 O77 1.259 . S
C86 O78 1.239 1_455 S
O87 Mn72 2.162 . S
O87 C75 1.281 . S
O88 Mn72 2.297 . S
O88 C75 1.236 . S
N89 Mn73 2.282 . S
N89 C90 1.328 . S
N89 C94 1.318 . S
C90 N89 1.328 . S
C90 C91 1.457 . S
C90 H95 0.929 . S
C91 C90 1.457 . S
C91 C92 1.291 . S
C91 H104 0.931 . S
C92 C91 1.291 . S
C92 C93 1.373 . S
C92 H105 0.929 . S
C93 C92 1.373 . S
C93 C94 1.396 . S
C93 C100 1.403 . S
C94 C84 1.476 . S
C94 N89 1.318 . S
C94 C93 1.396 . S
H95 C90 0.929 . S
O96 Mn72 2.385 1_655 S
O96 C74 1.234 . S
O97 Mn72 2.209 1_655 S
O97 Mn73 2.215 . S
O97 C74 1.283 . S
O98 Mn72 2.094 1_655 S
O98 C76 1.240 . S
O99 Mn73 2.117 . S
O99 C76 1.264 . S
C100 C93 1.403 . S
C100 C101 1.399 . S
C100 H106 0.929 . S
C101 C81 1.449 . S
C101 C100 1.399 . S
C101 H107 0.930 . S
H102 C82 0.931 . S
H103 C83 0.930 . S
H104 C91 0.931 . S
H105 C92 0.929 . S
H106 C100 0.929 . S
H107 C101 0.930 . S
Mn108 O113 2.095 . S
Mn108 O123 2.162 . S
Mn108 O124 2.297 . S
Mn108 O132 2.385 . S
Mn108 O133 2.209 . S
Mn108 O134 2.094 . S
Mn109 O114 2.121 . S
Mn109 N116 2.257 . S
Mn109 N125 2.282 . S
Mn109 O133 2.215 . S
Mn109 O135 2.117 . S
C110 O132 1.234 . S
C110 O133 1.283 . S
C111 O123 1.281 . S
C111 O124 1.236 . S
C112 O134 1.240 . S
C112 O135 1.264 . S
O113 Mn108 2.095 . S
O113 C122 1.250 . S
O114 Mn109 2.121 . S
O114 C122 1.258 . S
C115 N116 1.326 . S
C115 C119 1.460 . S
C115 H121 0.929 . S
N116 Mn109 2.257 . S
N116 C115 1.326 . S
N116 C120 1.362 . S
C117 C118 1.258 . S
C117 C120 1.431 . S
C117 C137 1.449 1_455 S
C118 C117 1.258 . S
C118 C119 1.477 . S
C118 H138 0.931 1_455 S
C119 C115 1.460 . S
C119 C118 1.477 . S
C119 H139 0.930 . S
C120 N116 1.362 . S
C120 C117 1.431 . S
C120 C130 1.476 . S
H121 C115 0.929 . S
C122 O113 1.250 . S
C122 O114 1.258 . S
O123 Mn108 2.162 . S
O123 C111 1.281 . S
O124 Mn108 2.297 . S
O124 C111 1.236 . S
N125 Mn109 2.282 . S
N125 C126 1.328 . S
N125 C130 1.318 . S
C126 N125 1.328 . S
C126 C127 1.457 . S
C126 H131 0.929 . S
C127 C126 1.457 . S
C127 C128 1.291 . S
C127 H140 0.931 . S
C128 C127 1.291 . S
C128 C129 1.373 . S
C128 H141 0.929 . S
C129 C128 1.373 . S
C129 C130 1.396 . S
C129 C136 1.403 1_455 S
C130 C120 1.476 . S
C130 N125 1.318 . S
C130 C129 1.396 . S
H131 C126 0.929 . S
O132 Mn108 2.385 . S
O132 C110 1.234 . S
O133 Mn108 2.209 . S
O133 Mn109 2.215 . S
O133 C110 1.283 . S
O134 Mn108 2.094 . S
O134 C112 1.240 . S
O135 Mn109 2.117 . S
O135 C112 1.264 . S
C136 C129 1.403 1_655 S
C136 C137 1.399 . S
C136 H142 0.929 . S
C137 C117 1.449 1_655 S
C137 C136 1.399 . S
C137 H143 0.930 . S
H138 C118 0.931 1_655 S
H139 C119 0.930 . S
H140 C127 0.931 . S
H141 C128 0.929 . S
H142 C136 0.929 . S
H143 C137 0.930 . S
Mn144 O149 2.095 . S
Mn144 O159 2.162 . S
Mn144 O160 2.297 . S
Mn144 O168 2.385 1_545 S
Mn144 O169 2.209 1_545 S
Mn144 O170 2.094 1_545 S
Mn145 O150 2.121 . S
Mn145 N152 2.257 . S
Mn145 N161 2.282 . S
Mn145 O169 2.215 . S
Mn145 O171 2.117 . S
C146 O168 1.234 . S
C146 O169 1.283 . S
C147 O159 1.281 . S
C147 O160 1.236 . S
C148 O170 1.240 . S
C148 O171 1.264 . S
O149 Mn144 2.095 . S
O149 C158 1.259 . S
O150 Mn145 2.121 . S
O150 C158 1.239 1_565 S
C151 N152 1.326 . S
C151 C155 1.460 . S
C151 H157 0.929 . S
N152 Mn145 2.257 . S
N152 C151 1.326 . S
N152 C156 1.362 . S
C153 C154 1.258 . S
C153 C156 1.431 . S
C153 C173 1.449 . S
C154 C153 1.258 . S
C154 C155 1.477 . S
C154 H174 0.931 . S
C155 C151 1.460 . S
C155 C154 1.477 . S
C155 H175 0.930 . S
C156 N152 1.362 . S
C156 C153 1.431 . S
C156 C166 1.476 . S
H157 C151 0.929 . S
C158 O149 1.259 . S
C158 O150 1.239 1_545 S
O159 Mn144 2.162 . S
O159 C147 1.281 . S
O160 Mn144 2.297 . S
O160 C147 1.236 . S
N161 Mn145 2.282 . S
N161 C162 1.328 . S
N161 C166 1.318 . S
C162 N161 1.328 . S
C162 C163 1.457 . S
C162 H167 0.929 . S
C163 C162 1.457 . S
C163 C164 1.291 . S
C163 H176 0.931 . S
C164 C163 1.291 . S
C164 C165 1.373 . S
C164 H177 0.929 . S
C165 C164 1.373 . S
C165 C166 1.396 . S
C165 C172 1.403 . S
C166 C156 1.476 . S
C166 N161 1.318 . S
C166 C165 1.396 . S
H167 C162 0.929 . S
O168 Mn144 2.385 1_565 S
O168 C146 1.234 . S
O169 Mn144 2.209 1_565 S
O169 Mn145 2.215 . S
O169 C146 1.283 . S
O170 Mn144 2.094 1_565 S
O170 C148 1.240 . S
O171 Mn145 2.117 . S
O171 C148 1.264 . S
C172 C165 1.403 . S
C172 C173 1.399 . S
C172 H178 0.929 . S
C173 C153 1.449 . S
C173 C172 1.399 . S
C173 H179 0.930 . S
H174 C154 0.931 . S
H175 C155 0.930 . S
H176 C163 0.931 . S
H177 C164 0.929 . S
H178 C172 0.929 . S
H179 C173 0.930 . S
Mn180 O185 2.095 . S
Mn180 O195 2.162 . S
Mn180 O196 2.297 . S
Mn180 O204 2.385 1_655 S
Mn180 O205 2.209 1_655 S
Mn180 O206 2.094 1_655 S
Mn181 O186 2.121 . S
Mn181 N188 2.257 . S
Mn181 N197 2.282 . S
Mn181 O205 2.215 . S
Mn181 O207 2.117 . S
C182 O204 1.234 . S
C182 O205 1.283 . S
C183 O195 1.281 . S
C183 O196 1.236 . S
C184 O206 1.240 . S
C184 O207 1.264 . S
O185 Mn180 2.095 . S
O185 C194 1.257 . S
O186 Mn181 2.121 . S
O186 C194 1.242 1_455 S
C187 N188 1.326 . S
C187 C191 1.460 . S
C187 H193 0.929 . S
N188 Mn181 2.257 . S
N188 C187 1.326 . S
N188 C192 1.362 . S
C189 C190 1.258 . S
C189 C192 1.431 . S
C189 C209 1.449 1_565 S
C190 C189 1.258 . S
C190 C191 1.477 . S
C190 H210 0.931 1_565 S
C191 C187 1.460 . S
C191 C190 1.477 . S
C191 H211 0.930 . S
C192 N188 1.362 . S
C192 C189 1.431 . S
C192 C202 1.476 . S
H193 C187 0.929 . S
C194 O185 1.257 . S
C194 O186 1.242 1_655 S
O195 Mn180 2.162 . S
O195 C183 1.281 . S
O196 Mn180 2.297 . S
O196 C183 1.236 . S
N197 Mn181 2.282 . S
N197 C198 1.328 . S
N197 C202 1.318 . S
C198 N197 1.328 . S
C198 C199 1.457 . S
C198 H203 0.929 . S
C199 C198 1.457 . S
C199 C200 1.291 . S
C199 H212 0.931 . S
C200 C199 1.291 . S
C200 C201 1.373 . S
C200 H213 0.929 . S
C201 C200 1.373 . S
C201 C202 1.396 . S
C201 C208 1.403 1_565 S
C202 C192 1.476 . S
C202 N197 1.318 . S
C202 C201 1.396 . S
H203 C198 0.929 . S
O204 Mn180 2.385 1_455 S
O204 C182 1.234 . S
O205 Mn180 2.209 1_455 S
O205 Mn181 2.215 . S
O205 C182 1.283 . S
O206 Mn180 2.094 1_455 S
O206 C184 1.240 . S
O207 Mn181 2.117 . S
O207 C184 1.264 . S
C208 C201 1.403 1_545 S
C208 C209 1.399 . S
C208 H214 0.929 . S
C209 C189 1.449 1_545 S
C209 C208 1.399 . S
C209 H215 0.930 . S
H210 C190 0.931 1_545 S
H211 C191 0.930 . S
H212 C199 0.931 . S
H213 C200 0.929 . S
H214 C208 0.929 . S
H215 C209 0.930 . S
Mn216 O221 2.095 . S
Mn216 O231 2.162 . S
Mn216 O232 2.297 . S
Mn216 O240 2.385 . S
Mn216 O241 2.209 . S
Mn216 O242 2.094 . S
Mn217 O222 2.121 . S
Mn217 N224 2.257 . S
Mn217 N233 2.282 . S
Mn217 O241 2.215 . S
Mn217 O243 2.117 . S
C218 O240 1.234 . S
C218 O241 1.283 . S
C219 O231 1.281 . S
C219 O232 1.236 . S
C220 O242 1.240 . S
C220 O243 1.264 . S
O221 Mn216 2.095 . S
O221 C230 1.250 . S
O222 Mn217 2.121 . S
O222 C230 1.258 . S
C223 N224 1.326 . S
C223 C227 1.460 . S
C223 H229 0.929 . S
N224 Mn217 2.257 . S
N224 C223 1.326 . S
N224 C228 1.362 . S
C225 C226 1.258 . S
C225 C228 1.431 . S
C225 C245 1.449 . S
C226 C225 1.258 . S
C226 C227 1.477 . S
C226 H246 0.931 . S
C227 C223 1.460 . S
C227 C226 1.477 . S
C227 H247 0.930 . S
C228 N224 1.362 . S
C228 C225 1.431 . S
C228 C238 1.476 . S
H229 C223 0.929 . S
C230 O221 1.250 . S
C230 O222 1.258 . S
O231 Mn216 2.162 . S
O231 C219 1.281 . S
O232 Mn216 2.297 . S
O232 C219 1.236 . S
N233 Mn217 2.282 . S
N233 C234 1.328 . S
N233 C238 1.318 . S
C234 N233 1.328 . S
C234 C235 1.457 . S
C234 H239 0.929 . S
C235 C234 1.457 . S
C235 C236 1.291 . S
C235 H248 0.931 . S
C236 C235 1.291 . S
C236 C237 1.373 . S
C236 H249 0.929 . S
C237 C236 1.373 . S
C237 C238 1.396 . S
C237 C244 1.403 . S
C238 C228 1.476 . S
C238 N233 1.318 . S
C238 C237 1.396 . S
H239 C234 0.929 . S
O240 Mn216 2.385 . S
O240 C218 1.234 . S
O241 Mn216 2.209 . S
O241 Mn217 2.215 . S
O241 C218 1.283 . S
O242 Mn216 2.094 . S
O242 C220 1.240 . S
O243 Mn217 2.117 . S
O243 C220 1.264 . S
C244 C237 1.403 . S
C244 C245 1.399 . S
C244 H250 0.929 . S
C245 C225 1.449 . S
C245 C244 1.399 . S
C245 H251 0.930 . S
H246 C226 0.931 . S
H247 C227 0.930 . S
H248 C235 0.931 . S
H249 C236 0.929 . S
H250 C244 0.929 . S
H251 C245 0.930 . S
Mn252 O257 2.095 . S
Mn252 O267 2.162 . S
Mn252 O268 2.297 . S
Mn252 O276 2.385 . S
Mn252 O277 2.209 . S
Mn252 O278 2.094 . S
Mn253 O258 2.121 . S
Mn253 N260 2.257 . S
Mn253 N269 2.282 . S
Mn253 O277 2.215 . S
Mn253 O279 2.117 . S
C254 O276 1.234 . S
C254 O277 1.283 . S
C255 O267 1.281 . S
C255 O268 1.236 . S
C256 O278 1.240 . S
C256 O279 1.264 . S
O257 Mn252 2.095 . S
O257 C266 1.250 . S
O258 Mn253 2.121 . S
O258 C266 1.258 . S
C259 N260 1.326 . S
C259 C263 1.460 . S
C259 H265 0.929 . S
N260 Mn253 2.257 . S
N260 C259 1.326 . S
N260 C264 1.362 . S
C261 C262 1.258 . S
C261 C264 1.431 . S
C261 C281 1.449 . S
C262 C261 1.258 . S
C262 C263 1.477 . S
C262 H282 0.931 . S
C263 C259 1.460 . S
C263 C262 1.477 . S
C263 H283 0.930 . S
C264 N260 1.362 . S
C264 C261 1.431 . S
C264 C274 1.476 . S
H265 C259 0.929 . S
C266 O257 1.250 . S
C266 O258 1.258 . S
O267 Mn252 2.162 . S
O267 C255 1.281 . S
O268 Mn252 2.297 . S
O268 C255 1.236 . S
N269 Mn253 2.282 . S
N269 C270 1.328 . S
N269 C274 1.318 . S
C270 N269 1.328 . S
C270 C271 1.457 . S
C270 H275 0.929 . S
C271 C270 1.457 . S
C271 C272 1.291 . S
C271 H284 0.931 . S
C272 C271 1.291 . S
C272 C273 1.373 . S
C272 H285 0.929 . S
C273 C272 1.373 . S
C273 C274 1.396 . S
C273 C280 1.403 . S
C274 C264 1.476 . S
C274 N269 1.318 . S
C274 C273 1.396 . S
H275 C270 0.929 . S
O276 Mn252 2.385 . S
O276 C254 1.234 . S
O277 Mn252 2.209 . S
O277 Mn253 2.215 . S
O277 C254 1.283 . S
O278 Mn252 2.094 . S
O278 C256 1.240 . S
O279 Mn253 2.117 . S
O279 C256 1.264 . S
C280 C273 1.403 . S
C280 C281 1.399 . S
C280 H286 0.929 . S
C281 C261 1.449 . S
C281 C280 1.399 . S
C281 H287 0.930 . S
H282 C262 0.931 . S
H283 C263 0.930 . S
H284 C271 0.931 . S
H285 C272 0.929 . S
H286 C280 0.929 . S
H287 C281 0.930 . S
Mn288 O293 2.095 . S
Mn288 O303 2.162 . S
Mn288 O304 2.297 . S
Mn288 O312 2.385 . S
Mn288 O313 2.209 . S
Mn288 O314 2.094 . S
Mn289 O294 2.121 . S
Mn289 N296 2.257 . S
Mn289 N305 2.282 . S
Mn289 O313 2.215 . S
Mn289 O315 2.117 . S
C290 O312 1.234 . S
C290 O313 1.283 . S
C291 O303 1.281 . S
C291 O304 1.236 . S
C292 O314 1.240 . S
C292 O315 1.264 . S
O293 Mn288 2.095 . S
O293 C302 1.250 . S
O294 Mn289 2.121 . S
O294 C302 1.258 . S
C295 N296 1.326 . S
C295 C299 1.460 . S
C295 H301 0.929 . S
N296 Mn289 2.257 . S
N296 C295 1.326 . S
N296 C300 1.362 . S
C297 C298 1.258 . S
C297 C300 1.431 . S
C297 C317 1.449 . S
C298 C297 1.258 . S
C298 C299 1.477 . S
C298 H318 0.931 . S
C299 C295 1.460 . S
C299 C298 1.477 . S
C299 H319 0.930 . S
C300 N296 1.362 . S
C300 C297 1.431 . S
C300 C310 1.476 . S
H301 C295 0.929 . S
C302 O293 1.250 . S
C302 O294 1.258 . S
O303 Mn288 2.162 . S
O303 C291 1.281 . S
O304 Mn288 2.297 . S
O304 C291 1.236 . S
N305 Mn289 2.282 . S
N305 C306 1.328 . S
N305 C310 1.318 . S
C306 N305 1.328 . S
C306 C307 1.457 . S
C306 H311 0.929 . S
C307 C306 1.457 . S
C307 C308 1.291 . S
C307 H320 0.931 . S
C308 C307 1.291 . S
C308 C309 1.373 . S
C308 H321 0.929 . S
C309 C308 1.373 . S
C309 C310 1.396 . S
C309 C316 1.403 . S
C310 C300 1.476 . S
C310 N305 1.318 . S
C310 C309 1.396 . S
H311 C306 0.929 . S
O312 Mn288 2.385 . S
O312 C290 1.234 . S
O313 Mn288 2.209 . S
O313 Mn289 2.215 . S
O313 C290 1.283 . S
O314 Mn288 2.094 . S
O314 C292 1.240 . S
O315 Mn289 2.117 . S
O315 C292 1.264 . S
C316 C309 1.403 . S
C316 C317 1.399 . S
C316 H322 0.929 . S
C317 C297 1.449 . S
C317 C316 1.399 . S
C317 H323 0.930 . S
H318 C298 0.931 . S
H319 C299 0.930 . S
H320 C307 0.931 . S
H321 C308 0.929 . S
H322 C316 0.929 . S
H323 C317 0.930 . S
Mn324 O329 2.095 . S
Mn324 O339 2.162 . S
Mn324 O340 2.297 . S
Mn324 O348 2.385 . S
Mn324 O349 2.209 . S
Mn324 O350 2.094 . S
Mn325 O330 2.121 . S
Mn325 N332 2.257 . S
Mn325 N341 2.282 . S
Mn325 O349 2.215 . S
Mn325 O351 2.117 . S
C326 O348 1.234 . S
C326 O349 1.283 . S
C327 O339 1.281 . S
C327 O340 1.236 . S
C328 O350 1.240 . S
C328 O351 1.264 . S
O329 Mn324 2.095 . S
O329 C338 1.250 . S
O330 Mn325 2.121 . S
O330 C338 1.258 . S
C331 N332 1.326 . S
C331 C335 1.460 . S
C331 H337 0.929 . S
N332 Mn325 2.257 . S
N332 C331 1.326 . S
N332 C336 1.362 . S
C333 C334 1.258 . S
C333 C336 1.431 . S
C333 C353 1.449 . S
C334 C333 1.258 . S
C334 C335 1.477 . S
C334 H354 0.931 . S
C335 C331 1.460 . S
C335 C334 1.477 . S
C335 H355 0.930 . S
C336 N332 1.362 . S
C336 C333 1.431 . S
C336 C346 1.476 . S
H337 C331 0.929 . S
C338 O329 1.250 . S
C338 O330 1.258 . S
O339 Mn324 2.162 . S
O339 C327 1.281 . S
O340 Mn324 2.297 . S
O340 C327 1.236 . S
N341 Mn325 2.282 . S
N341 C342 1.328 . S
N341 C346 1.318 . S
C342 N341 1.328 . S
C342 C343 1.457 . S
C342 H347 0.929 . S
C343 C342 1.457 . S
C343 C344 1.291 . S
C343 H356 0.931 . S
C344 C343 1.291 . S
C344 C345 1.373 . S
C344 H357 0.929 . S
C345 C344 1.373 . S
C345 C346 1.396 . S
C345 C352 1.403 . S
C346 C336 1.476 . S
C346 N341 1.318 . S
C346 C345 1.396 . S
H347 C342 0.929 . S
O348 Mn324 2.385 . S
O348 C326 1.234 . S
O349 Mn324 2.209 . S
O349 Mn325 2.215 . S
O349 C326 1.283 . S
O350 Mn324 2.094 . S
O350 C328 1.240 . S
O351 Mn325 2.117 . S
O351 C328 1.264 . S
C352 C345 1.403 . S
C352 C353 1.399 . S
C352 H358 0.929 . S
C353 C333 1.449 . S
C353 C352 1.399 . S
C353 H359 0.930 . S
H354 C334 0.931 . S
H355 C335 0.930 . S
H356 C343 0.931 . S
H357 C344 0.929 . S
H358 C352 0.929 . S
H359 C353 0.930 . S
Mn360 O365 2.095 . S
Mn360 O375 2.162 . S
Mn360 O376 2.297 . S
Mn360 O384 2.385 . S
Mn360 O385 2.209 . S
Mn360 O386 2.094 . S
Mn361 O366 2.121 . S
Mn361 N368 2.257 . S
Mn361 N377 2.282 . S
Mn361 O385 2.215 . S
Mn361 O387 2.117 . S
C362 O384 1.234 . S
C362 O385 1.283 . S
C363 O375 1.281 . S
C363 O376 1.236 . S
C364 O386 1.240 . S
C364 O387 1.264 . S
O365 Mn360 2.095 . S
O365 C374 1.250 . S
O366 Mn361 2.121 . S
O366 C374 1.258 . S
C367 N368 1.326 . S
C367 C371 1.460 . S
C367 H373 0.929 . S
N368 Mn361 2.257 . S
N368 C367 1.326 . S
N368 C372 1.362 . S
C369 C370 1.258 . S
C369 C372 1.431 . S
C369 C389 1.449 . S
C370 C369 1.258 . S
C370 C371 1.477 . S
C370 H390 0.931 . S
C371 C367 1.460 . S
C371 C370 1.477 . S
C371 H391 0.930 . S
C372 N368 1.362 . S
C372 C369 1.431 . S
C372 C382 1.476 . S
H373 C367 0.929 . S
C374 O365 1.250 . S
C374 O366 1.258 . S
O375 Mn360 2.162 . S
O375 C363 1.281 . S
O376 Mn360 2.297 . S
O376 C363 1.236 . S
N377 Mn361 2.282 . S
N377 C378 1.328 . S
N377 C382 1.318 . S
C378 N377 1.328 . S
C378 C379 1.457 . S
C378 H383 0.929 . S
C379 C378 1.457 . S
C379 C380 1.291 . S
C379 H392 0.931 . S
C380 C379 1.291 . S
C380 C381 1.373 . S
C380 H393 0.929 . S
C381 C380 1.373 . S
C381 C382 1.396 . S
C381 C388 1.403 . S
C382 C372 1.476 . S
C382 N377 1.318 . S
C382 C381 1.396 . S
H383 C378 0.929 . S
O384 Mn360 2.385 . S
O384 C362 1.234 . S
O385 Mn360 2.209 . S
O385 Mn361 2.215 . S
O385 C362 1.283 . S
O386 Mn360 2.094 . S
O386 C364 1.240 . S
O387 Mn361 2.117 . S
O387 C364 1.264 . S
C388 C381 1.403 . S
C388 C389 1.399 . S
C388 H394 0.929 . S
C389 C369 1.449 . S
C389 C388 1.399 . S
C389 H395 0.930 . S
H390 C370 0.931 . S
H391 C371 0.930 . S
H392 C379 0.931 . S
H393 C380 0.929 . S
H394 C388 0.929 . S
H395 C389 0.930 . S
Mn396 O401 2.095 . S
Mn396 O411 2.162 . S
Mn396 O412 2.297 . S
Mn396 O420 2.385 . S
Mn396 O421 2.209 . S
Mn396 O422 2.094 . S
Mn397 O402 2.121 . S
Mn397 N404 2.257 . S
Mn397 N413 2.282 . S
Mn397 O421 2.215 . S
Mn397 O423 2.117 . S
C398 O420 1.234 . S
C398 O421 1.283 . S
C399 O411 1.281 . S
C399 O412 1.236 . S
C400 O422 1.240 . S
C400 O423 1.264 . S
O401 Mn396 2.095 . S
O401 C410 1.250 . S
O402 Mn397 2.121 . S
O402 C410 1.258 . S
C403 N404 1.326 . S
C403 C407 1.460 . S
C403 H409 0.929 . S
N404 Mn397 2.257 . S
N404 C403 1.326 . S
N404 C408 1.362 . S
C405 C406 1.258 . S
C405 C408 1.431 . S
C405 C425 1.449 . S
C406 C405 1.258 . S
C406 C407 1.477 . S
C406 H426 0.931 . S
C407 C403 1.460 . S
C407 C406 1.477 . S
C407 H427 0.930 . S
C408 N404 1.362 . S
C408 C405 1.431 . S
C408 C418 1.476 . S
H409 C403 0.929 . S
C410 O401 1.250 . S
C410 O402 1.258 . S
O411 Mn396 2.162 . S
O411 C399 1.281 . S
O412 Mn396 2.297 . S
O412 C399 1.236 . S
N413 Mn397 2.282 . S
N413 C414 1.328 . S
N413 C418 1.318 . S
C414 N413 1.328 . S
C414 C415 1.457 . S
C414 H419 0.929 . S
C415 C414 1.457 . S
C415 C416 1.291 . S
C415 H428 0.931 . S
C416 C415 1.291 . S
C416 C417 1.373 . S
C416 H429 0.929 . S
C417 C416 1.373 . S
C417 C418 1.396 . S
C417 C424 1.403 . S
C418 C408 1.476 . S
C418 N413 1.318 . S
C418 C417 1.396 . S
H419 C414 0.929 . S
O420 Mn396 2.385 . S
O420 C398 1.234 . S
O421 Mn396 2.209 . S
O421 Mn397 2.215 . S
O421 C398 1.283 . S
O422 Mn396 2.094 . S
O422 C400 1.240 . S
O423 Mn397 2.117 . S
O423 C400 1.264 . S
C424 C417 1.403 . S
C424 C425 1.399 . S
C424 H430 0.929 . S
C425 C405 1.449 . S
C425 C424 1.399 . S
C425 H431 0.930 . S
H426 C406 0.931 . S
H427 C407 0.930 . S
H428 C415 0.931 . S
H429 C416 0.929 . S
H430 C424 0.929 . S
H431 C425 0.930 . S
Mn432 O437 2.095 . S
Mn432 O447 2.162 . S
Mn432 O448 2.297 . S
Mn432 O456 2.385 . S
Mn432 O457 2.209 . S
Mn432 O458 2.094 . S
Mn433 O438 2.121 . S
Mn433 N440 2.257 . S
Mn433 N449 2.282 . S
Mn433 O457 2.215 . S
Mn433 O459 2.117 . S
C434 O456 1.234 . S
C434 O457 1.283 . S
C435 O447 1.281 . S
C435 O448 1.236 . S
C436 O458 1.240 . S
C436 O459 1.264 . S
O437 Mn432 2.095 . S
O437 C446 1.250 . S
O438 Mn433 2.121 . S
O438 C446 1.258 . S
C439 N440 1.326 . S
C439 C443 1.460 . S
C439 H445 0.929 . S
N440 Mn433 2.257 . S
N440 C439 1.326 . S
N440 C444 1.362 . S
C441 C442 1.258 . S
C441 C444 1.431 . S
C441 C461 1.449 . S
C442 C441 1.258 . S
C442 C443 1.477 . S
C442 H462 0.931 . S
C443 C439 1.460 . S
C443 C442 1.477 . S
C443 H463 0.930 . S
C444 N440 1.362 . S
C444 C441 1.431 . S
C444 C454 1.476 . S
H445 C439 0.929 . S
C446 O437 1.250 . S
C446 O438 1.258 . S
O447 Mn432 2.162 . S
O447 C435 1.281 . S
O448 Mn432 2.297 . S
O448 C435 1.236 . S
N449 Mn433 2.282 . S
N449 C450 1.328 . S
N449 C454 1.318 . S
C450 N449 1.328 . S
C450 C451 1.457 . S
C450 H455 0.929 . S
C451 C450 1.457 . S
C451 C452 1.291 . S
C451 H464 0.931 . S
C452 C451 1.291 . S
C452 C453 1.373 . S
C452 H465 0.929 . S
C453 C452 1.373 . S
C453 C454 1.396 . S
C453 C460 1.403 . S
C454 C444 1.476 . S
C454 N449 1.318 . S
C454 C453 1.396 . S
H455 C450 0.929 . S
O456 Mn432 2.385 . S
O456 C434 1.234 . S
O457 Mn432 2.209 . S
O457 Mn433 2.215 . S
O457 C434 1.283 . S
O458 Mn432 2.094 . S
O458 C436 1.240 . S
O459 Mn433 2.117 . S
O459 C436 1.264 . S
C460 C453 1.403 . S
C460 C461 1.399 . S
C460 H466 0.929 . S
C461 C441 1.449 . S
C461 C460 1.399 . S
C461 H467 0.930 . S
H462 C442 0.931 . S
H463 C443 0.930 . S
H464 C451 0.931 . S
H465 C452 0.929 . S
H466 C460 0.929 . S
H467 C461 0.930 . S
Mn468 O473 2.095 . S
Mn468 O483 2.162 . S
Mn468 O484 2.297 . S
Mn468 O492 2.385 . S
Mn468 O493 2.209 . S
Mn468 O494 2.094 . S
Mn469 O474 2.121 . S
Mn469 N476 2.257 . S
Mn469 N485 2.282 . S
Mn469 O493 2.215 . S
Mn469 O495 2.117 . S
C470 O492 1.234 . S
C470 O493 1.283 . S
C471 O483 1.281 . S
C471 O484 1.236 . S
C472 O494 1.240 . S
C472 O495 1.264 . S
O473 Mn468 2.095 . S
O473 C482 1.250 . S
O474 Mn469 2.121 . S
O474 C482 1.258 . S
C475 N476 1.326 . S
C475 C479 1.460 . S
C475 H481 0.929 . S
N476 Mn469 2.257 . S
N476 C475 1.326 . S
N476 C480 1.362 . S
C477 C478 1.258 . S
C477 C480 1.431 . S
C477 C497 1.449 . S
C478 C477 1.258 . S
C478 C479 1.477 . S
C478 H498 0.931 . S
C479 C475 1.460 . S
C479 C478 1.477 . S
C479 H499 0.930 . S
C480 N476 1.362 . S
C480 C477 1.431 . S
C480 C490 1.476 . S
H481 C475 0.929 . S
C482 O473 1.250 . S
C482 O474 1.258 . S
O483 Mn468 2.162 . S
O483 C471 1.281 . S
O484 Mn468 2.297 . S
O484 C471 1.236 . S
N485 Mn469 2.282 . S
N485 C486 1.328 . S
N485 C490 1.318 . S
C486 N485 1.328 . S
C486 C487 1.457 . S
C486 H491 0.929 . S
C487 C486 1.457 . S
C487 C488 1.291 . S
C487 H500 0.931 . S
C488 C487 1.291 . S
C488 C489 1.373 . S
C488 H501 0.929 . S
C489 C488 1.373 . S
C489 C490 1.396 . S
C489 C496 1.403 . S
C490 C480 1.476 . S
C490 N485 1.318 . S
C490 C489 1.396 . S
H491 C486 0.929 . S
O492 Mn468 2.385 . S
O492 C470 1.234 . S
O493 Mn468 2.209 . S
O493 Mn469 2.215 . S
O493 C470 1.283 . S
O494 Mn468 2.094 . S
O494 C472 1.240 . S
O495 Mn469 2.117 . S
O495 C472 1.264 . S
C496 C489 1.403 . S
C496 C497 1.399 . S
C496 H502 0.929 . S
C497 C477 1.449 . S
C497 C496 1.399 . S
C497 H503 0.930 . S
H498 C478 0.931 . S
H499 C479 0.930 . S
H500 C487 0.931 . S
H501 C488 0.929 . S
H502 C496 0.929 . S
H503 C497 0.930 . S
Mn504 O509 2.095 . S
Mn504 O519 2.162 . S
Mn504 O520 2.297 . S
Mn504 O528 2.385 . S
Mn504 O529 2.209 . S
Mn504 O530 2.094 . S
Mn505 O510 2.121 . S
Mn505 N512 2.257 . S
Mn505 N521 2.282 . S
Mn505 O529 2.215 . S
Mn505 O531 2.117 . S
C506 O528 1.234 . S
C506 O529 1.283 . S
C507 O519 1.281 . S
C507 O520 1.236 . S
C508 O530 1.240 . S
C508 O531 1.264 . S
O509 Mn504 2.095 . S
O509 C518 1.250 . S
O510 Mn505 2.121 . S
O510 C518 1.258 . S
C511 N512 1.326 . S
C511 C515 1.460 . S
C511 H517 0.929 . S
N512 Mn505 2.257 . S
N512 C511 1.326 . S
N512 C516 1.362 . S
C513 C514 1.258 . S
C513 C516 1.431 . S
C513 C533 1.449 . S
C514 C513 1.258 . S
C514 C515 1.477 . S
C514 H534 0.931 . S
C515 C511 1.460 . S
C515 C514 1.477 . S
C515 H535 0.930 . S
C516 N512 1.362 . S
C516 C513 1.431 . S
C516 C526 1.476 . S
H517 C511 0.929 . S
C518 O509 1.250 . S
C518 O510 1.258 . S
O519 Mn504 2.162 . S
O519 C507 1.281 . S
O520 Mn504 2.297 . S
O520 C507 1.236 . S
N521 Mn505 2.282 . S
N521 C522 1.328 . S
N521 C526 1.318 . S
C522 N521 1.328 . S
C522 C523 1.457 . S
C522 H527 0.929 . S
C523 C522 1.457 . S
C523 C524 1.291 . S
C523 H536 0.931 . S
C524 C523 1.291 . S
C524 C525 1.373 . S
C524 H537 0.929 . S
C525 C524 1.373 . S
C525 C526 1.396 . S
C525 C532 1.403 . S
C526 C516 1.476 . S
C526 N521 1.318 . S
C526 C525 1.396 . S
H527 C522 0.929 . S
O528 Mn504 2.385 . S
O528 C506 1.234 . S
O529 Mn504 2.209 . S
O529 Mn505 2.215 . S
O529 C506 1.283 . S
O530 Mn504 2.094 . S
O530 C508 1.240 . S
O531 Mn505 2.117 . S
O531 C508 1.264 . S
C532 C525 1.403 . S
C532 C533 1.399 . S
C532 H538 0.929 . S
C533 C513 1.449 . S
C533 C532 1.399 . S
C533 H539 0.930 . S
H534 C514 0.931 . S
H535 C515 0.930 . S
H536 C523 0.931 . S
H537 C524 0.929 . S
H538 C532 0.929 . S
H539 C533 0.930 . S
Mn540 O545 2.095 . S
Mn540 O555 2.162 . S
Mn540 O556 2.297 . S
Mn540 O564 2.385 . S
Mn540 O565 2.209 . S
Mn540 O566 2.094 . S
Mn541 O546 2.121 . S
Mn541 N548 2.257 . S
Mn541 N557 2.282 . S
Mn541 O565 2.215 . S
Mn541 O567 2.117 . S
C542 O564 1.234 . S
C542 O565 1.283 . S
C543 O555 1.281 . S
C543 O556 1.236 . S
C544 O566 1.240 . S
C544 O567 1.264 . S
O545 Mn540 2.095 . S
O545 C554 1.250 . S
O546 Mn541 2.121 . S
O546 C554 1.258 . S
C547 N548 1.326 . S
C547 C551 1.460 . S
C547 H553 0.929 . S
N548 Mn541 2.257 . S
N548 C547 1.326 . S
N548 C552 1.362 . S
C549 C550 1.258 . S
C549 C552 1.431 . S
C549 C569 1.449 . S
C550 C549 1.258 . S
C550 C551 1.477 . S
C550 H570 0.931 . S
C551 C547 1.460 . S
C551 C550 1.477 . S
C551 H571 0.930 . S
C552 N548 1.362 . S
C552 C549 1.431 . S
C552 C562 1.476 . S
H553 C547 0.929 . S
C554 O545 1.250 . S
C554 O546 1.258 . S
O555 Mn540 2.162 . S
O555 C543 1.281 . S
O556 Mn540 2.297 . S
O556 C543 1.236 . S
N557 Mn541 2.282 . S
N557 C558 1.328 . S
N557 C562 1.318 . S
C558 N557 1.328 . S
C558 C559 1.457 . S
C558 H563 0.929 . S
C559 C558 1.457 . S
C559 C560 1.291 . S
C559 H572 0.931 . S
C560 C559 1.291 . S
C560 C561 1.373 . S
C560 H573 0.929 . S
C561 C560 1.373 . S
C561 C562 1.396 . S
C561 C568 1.403 . S
C562 C552 1.476 . S
C562 N557 1.318 . S
C562 C561 1.396 . S
H563 C558 0.929 . S
O564 Mn540 2.385 . S
O564 C542 1.234 . S
O565 Mn540 2.209 . S
O565 Mn541 2.215 . S
O565 C542 1.283 . S
O566 Mn540 2.094 . S
O566 C544 1.240 . S
O567 Mn541 2.117 . S
O567 C544 1.264 . S
C568 C561 1.403 . S
C568 C569 1.399 . S
C568 H574 0.929 . S
C569 C549 1.449 . S
C569 C568 1.399 . S
C569 H575 0.930 . S
H570 C550 0.931 . S
H571 C551 0.930 . S
H572 C559 0.931 . S
H573 C560 0.929 . S
H574 C568 0.929 . S
H575 C569 0.930 . S
Mn576 O581 2.095 . S
Mn576 O591 2.162 . S
Mn576 O592 2.297 . S
Mn576 O600 2.385 . S
Mn576 O601 2.209 . S
Mn576 O602 2.094 . S
Mn577 O582 2.121 . S
Mn577 N584 2.257 . S
Mn577 N593 2.282 . S
Mn577 O601 2.215 . S
Mn577 O603 2.117 . S
C578 O600 1.234 . S
C578 O601 1.283 . S
C579 O591 1.281 . S
C579 O592 1.236 . S
C580 O602 1.240 . S
C580 O603 1.264 . S
O581 Mn576 2.095 . S
O581 C590 1.250 . S
O582 Mn577 2.121 . S
O582 C590 1.258 . S
C583 N584 1.326 . S
C583 C587 1.460 . S
C583 H589 0.929 . S
N584 Mn577 2.257 . S
N584 C583 1.326 . S
N584 C588 1.362 . S
C585 C586 1.258 . S
C585 C588 1.431 . S
C585 C605 1.449 . S
C586 C585 1.258 . S
C586 C587 1.477 . S
C586 H606 0.931 . S
C587 C583 1.460 . S
C587 C586 1.477 . S
C587 H607 0.930 . S
C588 N584 1.362 . S
C588 C585 1.431 . S
C588 C598 1.476 . S
H589 C583 0.929 . S
C590 O581 1.250 . S
C590 O582 1.258 . S
O591 Mn576 2.162 . S
O591 C579 1.281 . S
O592 Mn576 2.297 . S
O592 C579 1.236 . S
N593 Mn577 2.282 . S
N593 C594 1.328 . S
N593 C598 1.318 . S
C594 N593 1.328 . S
C594 C595 1.457 . S
C594 H599 0.929 . S
C595 C594 1.457 . S
C595 C596 1.291 . S
C595 H608 0.931 . S
C596 C595 1.291 . S
C596 C597 1.373 . S
C596 H609 0.929 . S
C597 C596 1.373 . S
C597 C598 1.396 . S
C597 C604 1.403 . S
C598 C588 1.476 . S
C598 N593 1.318 . S
C598 C597 1.396 . S
H599 C594 0.929 . S
O600 Mn576 2.385 . S
O600 C578 1.234 . S
O601 Mn576 2.209 . S
O601 Mn577 2.215 . S
O601 C578 1.283 . S
O602 Mn576 2.094 . S
O602 C580 1.240 . S
O603 Mn577 2.117 . S
O603 C580 1.264 . S
C604 C597 1.403 . S
C604 C605 1.399 . S
C604 H610 0.929 . S
C605 C585 1.449 . S
C605 C604 1.399 . S
C605 H611 0.930 . S
H606 C586 0.931 . S
H607 C587 0.930 . S
H608 C595 0.931 . S
H609 C596 0.929 . S
H610 C604 0.929 . S
H611 C605 0.930 . S
Mn612 O617 2.095 . S
Mn612 O627 2.162 . S
Mn612 O628 2.297 . S
Mn612 O636 2.385 . S
Mn612 O637 2.209 . S
Mn612 O638 2.094 . S
Mn613 O618 2.121 . S
Mn613 N620 2.257 . S
Mn613 N629 2.282 . S
Mn613 O637 2.215 . S
Mn613 O639 2.117 . S
C614 O636 1.234 . S
C614 O637 1.283 . S
C615 O627 1.281 . S
C615 O628 1.236 . S
C616 O638 1.240 . S
C616 O639 1.264 . S
O617 Mn612 2.095 . S
O617 C626 1.250 . S
O618 Mn613 2.121 . S
O618 C626 1.258 . S
C619 N620 1.326 . S
C619 C623 1.460 . S
C619 H625 0.929 . S
N620 Mn613 2.257 . S
N620 C619 1.326 . S
N620 C624 1.362 . S
C621 C622 1.258 . S
C621 C624 1.431 . S
C621 C641 1.449 . S
C622 C621 1.258 . S
C622 C623 1.477 . S
C622 H642 0.931 . S
C623 C619 1.460 . S
C623 C622 1.477 . S
C623 H643 0.930 . S
C624 N620 1.362 . S
C624 C621 1.431 . S
C624 C634 1.476 . S
H625 C619 0.929 . S
C626 O617 1.250 . S
C626 O618 1.258 . S
O627 Mn612 2.162 . S
O627 C615 1.281 . S
O628 Mn612 2.297 . S
O628 C615 1.236 . S
N629 Mn613 2.282 . S
N629 C630 1.328 . S
N629 C634 1.318 . S
C630 N629 1.328 . S
C630 C631 1.457 . S
C630 H635 0.929 . S
C631 C630 1.457 . S
C631 C632 1.291 . S
C631 H644 0.931 . S
C632 C631 1.291 . S
C632 C633 1.373 . S
C632 H645 0.929 . S
C633 C632 1.373 . S
C633 C634 1.396 . S
C633 C640 1.403 . S
C634 C624 1.476 . S
C634 N629 1.318 . S
C634 C633 1.396 . S
H635 C630 0.929 . S
O636 Mn612 2.385 . S
O636 C614 1.234 . S
O637 Mn612 2.209 . S
O637 Mn613 2.215 . S
O637 C614 1.283 . S
O638 Mn612 2.094 . S
O638 C616 1.240 . S
O639 Mn613 2.117 . S
O639 C616 1.264 . S
C640 C633 1.403 . S
C640 C641 1.399 . S
C640 H646 0.929 . S
C641 C621 1.449 . S
C641 C640 1.399 . S
C641 H647 0.930 . S
H642 C622 0.931 . S
H643 C623 0.930 . S
H644 C631 0.931 . S
H645 C632 0.929 . S
H646 C640 0.929 . S
H647 C641 0.930 . S
C648 C649 1.387 . S
C648 H652 0.950 . S
C648 C657 1.390 . S
C649 C648 1.387 . S
C649 C651 1.387 . S
H650 C657 0.950 . S
C651 C649 1.387 . S
C651 C653 1.390 . S
C651 H655 0.950 . S
H652 C648 0.950 . S
C653 C651 1.390 . S
C653 C654 1.387 . S
C653 H656 0.950 . S
C654 C653 1.387 . S
C654 C657 1.387 . S
H655 C651 0.950 . S
H656 C653 0.950 . S
C657 C648 1.390 . S
C657 H650 0.950 . S
C657 C654 1.387 . S
C658 C659 1.387 . S
C658 H662 0.950 . S
C658 C667 1.390 . S
C659 C658 1.387 . S
C659 C661 1.387 . S
H660 C667 0.950 . S
C661 C659 1.387 . S
C661 C663 1.390 . S
C661 H665 0.950 . S
H662 C658 0.950 . S
C663 C661 1.390 . S
C663 C664 1.387 . S
C663 H666 0.950 . S
C664 C663 1.387 . S
C664 C667 1.387 . S
H665 C661 0.950 . S
H666 C663 0.950 . S
C667 C658 1.390 . S
C667 H660 0.950 . S
C667 C664 1.387 . S
C668 C669 1.387 . S
C668 H672 0.950 . S
C668 C677 1.390 . S
C669 C668 1.387 . S
C669 C671 1.387 . S
H670 C677 0.950 . S
C671 C669 1.387 . S
C671 C673 1.390 . S
C671 H675 0.950 . S
H672 C668 0.950 . S
C673 C671 1.390 . S
C673 C674 1.387 . S
C673 H676 0.950 . S
C674 C673 1.387 . S
C674 C677 1.387 . S
H675 C671 0.950 . S
H676 C673 0.950 . S
C677 C668 1.390 . S
C677 H670 0.950 . S
C677 C674 1.387 . S
C678 C679 1.387 . S
C678 H682 0.950 . S
C678 C687 1.390 . S
C679 C678 1.387 . S
C679 C681 1.387 . S
H680 C687 0.950 . S
C681 C679 1.387 . S
C681 C683 1.390 . S
C681 H685 0.950 . S
H682 C678 0.950 . S
C683 C681 1.390 . S
C683 C684 1.387 . S
C683 H686 0.950 . S
C684 C683 1.387 . S
C684 C687 1.387 . S
H685 C681 0.950 . S
H686 C683 0.950 . S
C687 C678 1.390 . S
C687 H680 0.950 . S
C687 C684 1.387 . S
C688 C689 1.387 . S
C688 H692 0.950 . S
C688 C697 1.390 . S
C689 C688 1.387 . S
C689 C691 1.387 . S
H690 C697 0.950 . S
C691 C689 1.387 . S
C691 C693 1.390 . S
C691 H695 0.950 . S
H692 C688 0.950 . S
C693 C691 1.390 . S
C693 C694 1.387 . S
C693 H696 0.950 . S
C694 C693 1.387 . S
C694 C697 1.387 . S
H695 C691 0.950 . S
H696 C693 0.950 . S
C697 C688 1.390 . S
C697 H690 0.950 . S
C697 C694 1.387 . S
C698 C699 1.387 . S
C698 H702 0.950 . S
C698 C707 1.390 . S
C699 C698 1.387 . S
C699 C701 1.387 . S
H700 C707 0.950 . S
C701 C699 1.387 . S
C701 C703 1.390 . S
C701 H705 0.950 . S
H702 C698 0.950 . S
C703 C701 1.390 . S
C703 C704 1.387 . S
C703 H706 0.950 . S
C704 C703 1.387 . S
C704 C707 1.387 . S
H705 C701 0.950 . S
H706 C703 0.950 . S
C707 C698 1.390 . S
C707 H700 0.950 . S
C707 C704 1.387 . S
C708 C709 1.387 . S
C708 H712 0.950 . S
C708 C717 1.390 1_655 S
C709 C708 1.387 . S
C709 C711 1.387 . S
H710 C717 0.950 . S
C711 C709 1.387 . S
C711 C713 1.390 1_655 S
C711 H715 0.950 . S
H712 C708 0.950 . S
C713 C711 1.390 1_455 S
C713 C714 1.387 . S
C713 H716 0.950 . S
C714 C713 1.387 . S
C714 C717 1.387 . S
H715 C711 0.950 . S
H716 C713 0.950 . S
C717 C708 1.390 1_455 S
C717 H710 0.950 . S
C717 C714 1.387 . S
C718 C719 1.387 . S
C718 H722 0.950 . S
C718 C727 1.390 . S
C719 C718 1.387 . S
C719 C721 1.387 . S
H720 C727 0.950 . S
C721 C719 1.387 . S
C721 C723 1.390 . S
C721 H725 0.950 . S
H722 C718 0.950 . S
C723 C721 1.390 . S
C723 C724 1.387 . S
C723 H726 0.950 . S
C724 C723 1.387 . S
C724 C727 1.387 . S
H725 C721 0.950 . S
H726 C723 0.950 . S
C727 C718 1.390 . S
C727 H720 0.950 . S
C727 C724 1.387 . S
C728 C729 1.387 . S
C728 H732 0.950 . S
C728 C737 1.390 1_545 S
C729 C728 1.387 . S
C729 C731 1.387 . S
H730 C737 0.950 . S
C731 C729 1.387 . S
C731 C733 1.390 1_545 S
C731 H735 0.950 . S
H732 C728 0.950 . S
C733 C731 1.390 1_565 S
C733 C734 1.387 . S
C733 H736 0.950 . S
C734 C733 1.387 . S
C734 C737 1.387 . S
H735 C731 0.950 . S
H736 C733 0.950 . S
C737 C728 1.390 1_565 S
C737 H730 0.950 . S
C737 C734 1.387 . S
C738 C739 1.387 . S
C738 H742 0.950 . S
C738 C747 1.390 1_455 S
C739 C738 1.387 . S
C739 C741 1.387 . S
H740 C747 0.950 . S
C741 C739 1.387 . S
C741 C743 1.390 1_455 S
C741 H745 0.950 . S
H742 C738 0.950 . S
C743 C741 1.390 1_655 S
C743 C744 1.387 . S
C743 H746 0.950 . S
C744 C743 1.387 . S
C744 C747 1.387 . S
H745 C741 0.950 . S
H746 C743 0.950 . S
C747 C738 1.390 1_655 S
C747 H740 0.950 . S
C747 C744 1.387 . S
C748 C749 1.387 . S
C748 H752 0.950 . S
C748 C757 1.390 . S
C749 C748 1.387 . S
C749 C751 1.387 . S
H750 C757 0.950 . S
C751 C749 1.387 . S
C751 C753 1.390 . S
C751 H755 0.950 . S
H752 C748 0.950 . S
C753 C751 1.390 . S
C753 C754 1.387 . S
C753 H756 0.950 . S
C754 C753 1.387 . S
C754 C757 1.387 . S
H755 C751 0.950 . S
H756 C753 0.950 . S
C757 C748 1.390 . S
C757 H750 0.950 . S
C757 C754 1.387 . S
C758 C759 1.387 . S
C758 H762 0.950 . S
C758 C767 1.390 1_545 S
C759 C758 1.387 . S
C759 C761 1.387 . S
H760 C767 0.950 . S
C761 C759 1.387 . S
C761 C763 1.390 1_545 S
C761 H765 0.950 . S
H762 C758 0.950 . S
C763 C761 1.390 1_565 S
C763 C764 1.387 . S
C763 H766 0.950 . S
C764 C763 1.387 . S
C764 C767 1.387 . S
H765 C761 0.950 . S
H766 C763 0.950 . S
C767 C758 1.390 1_565 S
C767 H760 0.950 . S
C767 C764 1.387 . S
C768 C769 1.387 . S
C768 H772 0.950 . S
C768 C777 1.390 1_565 S
C769 C768 1.387 . S
C769 C771 1.387 . S
H770 C777 0.950 . S
C771 C769 1.387 . S
C771 C773 1.390 1_565 S
C771 H775 0.950 . S
H772 C768 0.950 . S
C773 C771 1.390 1_545 S
C773 C774 1.387 . S
C773 H776 0.950 . S
C774 C773 1.387 . S
C774 C777 1.387 . S
H775 C771 0.950 . S
H776 C773 0.950 . S
C777 C768 1.390 1_545 S
C777 H770 0.950 . S
C777 C774 1.387 . S
C778 C779 1.387 . S
C778 H782 0.950 . S
C778 C787 1.390 1_455 S
C779 C778 1.387 . S
C779 C781 1.387 . S
H780 C787 0.950 . S
C781 C779 1.387 . S
C781 C783 1.390 1_455 S
C781 H785 0.950 . S
H782 C778 0.950 . S
C783 C781 1.390 1_655 S
C783 C784 1.387 . S
C783 H786 0.950 . S
C784 C783 1.387 . S
C784 C787 1.387 . S
H785 C781 0.950 . S
H786 C783 0.950 . S
C787 C778 1.390 1_655 S
C787 H780 0.950 . S
C787 C784 1.387 . S
C788 C789 1.387 . S
C788 H792 0.950 . S
C788 C797 1.390 . S
C789 C788 1.387 . S
C789 C791 1.387 . S
H790 C797 0.950 . S
C791 C789 1.387 . S
C791 C793 1.390 . S
C791 H795 0.950 . S
H792 C788 0.950 . S
C793 C791 1.390 . S
C793 C794 1.387 . S
C793 H796 0.950 . S
C794 C793 1.387 . S
C794 C797 1.387 . S
H795 C791 0.950 . S
H796 C793 0.950 . S
C797 C788 1.390 . S
C797 H790 0.950 . S
C797 C794 1.387 . S
C798 C799 1.387 . S
C798 H802 0.950 . S
C798 C807 1.390 . S
C799 C798 1.387 . S
C799 C801 1.387 . S
H800 C807 0.950 . S
C801 C799 1.387 . S
C801 C803 1.390 . S
C801 H805 0.950 . S
H802 C798 0.950 . S
C803 C801 1.390 . S
C803 C804 1.387 . S
C803 H806 0.950 . S
C804 C803 1.387 . S
C804 C807 1.387 . S
H805 C801 0.950 . S
H806 C803 0.950 . S
C807 C798 1.390 . S
C807 H800 0.950 . S
C807 C804 1.387 . S
C808 C809 1.387 . S
C808 H812 0.950 . S
C808 C817 1.390 . S
C809 C808 1.387 . S
C809 C811 1.387 . S
H810 C817 0.950 . S
C811 C809 1.387 . S
C811 C813 1.390 . S
C811 H815 0.950 . S
H812 C808 0.950 . S
C813 C811 1.390 . S
C813 C814 1.387 . S
C813 H816 0.950 . S
C814 C813 1.387 . S
C814 C817 1.387 . S
H815 C811 0.950 . S
H816 C813 0.950 . S
C817 C808 1.390 . S
C817 H810 0.950 . S
C817 C814 1.387 . S
C818 C819 1.387 . S
C818 H822 0.950 . S
C818 C827 1.390 . S
C819 C818 1.387 . S
C819 C821 1.387 . S
H820 C827 0.950 . S
C821 C819 1.387 . S
C821 C823 1.390 . S
C821 H825 0.950 . S
H822 C818 0.950 . S
C823 C821 1.390 . S
C823 C824 1.387 . S
C823 H826 0.950 . S
C824 C823 1.387 . S
C824 C827 1.387 . S
H825 C821 0.950 . S
H826 C823 0.950 . S
C827 C818 1.390 . S
C827 H820 0.950 . S
C827 C824 1.387 . S
C828 C829 1.387 . S
C828 H832 0.950 . S
C828 C837 1.390 . S
C829 C828 1.387 . S
C829 C831 1.387 . S
H830 C837 0.950 . S
C831 C829 1.387 . S
C831 C833 1.390 . S
C831 H835 0.950 . S
H832 C828 0.950 . S
C833 C831 1.390 . S
C833 C834 1.387 . S
C833 H836 0.950 . S
C834 C833 1.387 . S
C834 C837 1.387 . S
H835 C831 0.950 . S
H836 C833 0.950 . S
C837 C828 1.390 . S
C837 H830 0.950 . S
C837 C834 1.387 . S
C838 C839 1.387 . S
C838 H842 0.950 . S
C838 C847 1.390 . S
C839 C838 1.387 . S
C839 C841 1.387 . S
H840 C847 0.950 . S
C841 C839 1.387 . S
C841 C843 1.390 . S
C841 H845 0.950 . S
H842 C838 0.950 . S
C843 C841 1.390 . S
C843 C844 1.387 . S
C843 H846 0.950 . S
C844 C843 1.387 . S
C844 C847 1.387 . S
H845 C841 0.950 . S
H846 C843 0.950 . S
C847 C838 1.390 . S
C847 H840 0.950 . S
C847 C844 1.387 . S
C848 C849 1.387 . S
C848 H852 0.950 . S
C848 C857 1.390 . S
C849 C848 1.387 . S
C849 C851 1.387 . S
H850 C857 0.950 . S
C851 C849 1.387 . S
C851 C853 1.390 . S
C851 H855 0.950 . S
H852 C848 0.950 . S
C853 C851 1.390 . S
C853 C854 1.387 . S
C853 H856 0.950 . S
C854 C853 1.387 . S
C854 C857 1.387 . S
H855 C851 0.950 . S
H856 C853 0.950 . S
C857 C848 1.390 . S
C857 H850 0.950 . S
C857 C854 1.387 . S
C858 C859 1.387 . S
C858 H862 0.950 . S
C858 C867 1.390 . S
C859 C858 1.387 . S
C859 C861 1.387 . S
H860 C867 0.950 . S
C861 C859 1.387 . S
C861 C863 1.390 . S
C861 H865 0.950 . S
H862 C858 0.950 . S
C863 C861 1.390 . S
C863 C864 1.387 . S
C863 H866 0.950 . S
C864 C863 1.387 . S
C864 C867 1.387 . S
H865 C861 0.950 . S
H866 C863 0.950 . S
C867 C858 1.390 . S
C867 H860 0.950 . S
C867 C864 1.387 . S
C868 C869 1.387 . S
C868 H872 0.950 . S
C868 C877 1.390 . S
C869 C868 1.387 . S
C869 C871 1.387 . S
H870 C877 0.950 . S
C871 C869 1.387 . S
C871 C873 1.390 . S
C871 H875 0.950 . S
H872 C868 0.950 . S
C873 C871 1.390 . S
C873 C874 1.387 . S
C873 H876 0.950 . S
C874 C873 1.387 . S
C874 C877 1.387 . S
H875 C871 0.950 . S
H876 C873 0.950 . S
C877 C868 1.390 . S
C877 H870 0.950 . S
C877 C874 1.387 . S
C878 C879 1.387 . S
C878 H882 0.950 . S
C878 C887 1.390 . S
C879 C878 1.387 . S
C879 C881 1.387 . S
H880 C887 0.950 . S
C881 C879 1.387 . S
C881 C883 1.390 . S
C881 H885 0.950 . S
H882 C878 0.950 . S
C883 C881 1.390 . S
C883 C884 1.387 . S
C883 H886 0.950 . S
C884 C883 1.387 . S
C884 C887 1.387 . S
H885 C881 0.950 . S
H886 C883 0.950 . S
C887 C878 1.390 . S
C887 H880 0.950 . S
C887 C884 1.387 . S
C888 C889 1.387 . S
C888 H892 0.950 . S
C888 C897 1.390 . S
C889 C888 1.387 . S
C889 C891 1.387 . S
H890 C897 0.950 . S
C891 C889 1.387 . S
C891 C893 1.390 . S
C891 H895 0.950 . S
H892 C888 0.950 . S
C893 C891 1.390 . S
C893 C894 1.387 . S
C893 H896 0.950 . S
C894 C893 1.387 . S
C894 C897 1.387 . S
H895 C891 0.950 . S
H896 C893 0.950 . S
C897 C888 1.390 . S
C897 H890 0.950 . S
C897 C894 1.387 . S
C898 C899 1.387 . S
C898 H902 0.950 . S
C898 C907 1.390 . S
C899 C898 1.387 . S
C899 C901 1.387 . S
H900 C907 0.950 . S
C901 C899 1.387 . S
C901 C903 1.390 . S
C901 H905 0.950 . S
H902 C898 0.950 . S
C903 C901 1.390 . S
C903 C904 1.387 . S
C903 H906 0.950 . S
C904 C903 1.387 . S
C904 C907 1.387 . S
H905 C901 0.950 . S
H906 C903 0.950 . S
C907 C898 1.390 . S
C907 H900 0.950 . S
C907 C904 1.387 . S
C908 C909 1.387 . S
C908 H912 0.950 . S
C908 C917 1.390 . S
C909 C908 1.387 . S
C909 C911 1.387 . S
H910 C917 0.950 . S
C911 C909 1.387 . S
C911 C913 1.390 . S
C911 H915 0.950 . S
H912 C908 0.950 . S
C913 C911 1.390 . S
C913 C914 1.387 . S
C913 H916 0.950 . S
C914 C913 1.387 . S
C914 C917 1.387 . S
H915 C911 0.950 . S
H916 C913 0.950 . S
C917 C908 1.390 . S
C917 H910 0.950 . S
C917 C914 1.387 . S
C918 C919 1.387 . S
C918 H922 0.950 . S
C918 C927 1.390 1_554 S
C919 C918 1.387 . S
C919 C921 1.387 . S
H920 C927 0.950 . S
C921 C919 1.387 . S
C921 C923 1.390 1_554 S
C921 H925 0.950 . S
H922 C918 0.950 . S
C923 C921 1.390 1_556 S
C923 C924 1.387 . S
C923 H926 0.950 . S
C924 C923 1.387 . S
C924 C927 1.387 . S
H925 C921 0.950 . S
H926 C923 0.950 . S
C927 C918 1.390 1_556 S
C927 H920 0.950 . S
C927 C924 1.387 . S
C928 C929 1.387 1_565 S
C928 H932 0.950 . S
C928 C937 1.390 1_556 S
C929 C928 1.387 1_545 S
C929 C931 1.387 . S
H930 C937 0.950 . S
C931 C929 1.387 . S
C931 C933 1.390 1_556 S
C931 H935 0.950 . S
H932 C928 0.950 . S
C933 C931 1.390 1_554 S
C933 C934 1.387 1_545 S
C933 H936 0.950 . S
C934 C933 1.387 1_565 S
C934 C937 1.387 . S
H935 C931 0.950 . S
H936 C933 0.950 . S
C937 C928 1.390 1_554 S
C937 H930 0.950 . S
C937 C934 1.387 . S
C938 C939 1.387 1_455 S
C938 H942 0.950 . S
C938 C947 1.390 1_556 S
C939 C938 1.387 1_655 S
C939 C941 1.387 . S
H940 C947 0.950 . S
C941 C939 1.387 . S
C941 C943 1.390 1_556 S
C941 H945 0.950 . S
H942 C938 0.950 . S
C943 C941 1.390 1_554 S
C943 C944 1.387 1_655 S
C943 H946 0.950 . S
C944 C943 1.387 1_455 S
C944 C947 1.387 . S
H945 C941 0.950 . S
H946 C943 0.950 . S
C947 C938 1.390 1_554 S
C947 H940 0.950 . S
C947 C944 1.387 . S
C948 C949 1.387 . S
C948 H952 0.950 . S
C948 C957 1.390 . S
C949 C948 1.387 . S
C949 C951 1.387 . S
H950 C957 0.950 . S
C951 C949 1.387 . S
C951 C953 1.390 . S
C951 H955 0.950 . S
H952 C948 0.950 . S
C953 C951 1.390 . S
C953 C954 1.387 . S
C953 H956 0.950 . S
C954 C953 1.387 . S
C954 C957 1.387 . S
H955 C951 0.950 . S
H956 C953 0.950 . S
C957 C948 1.390 . S
C957 H950 0.950 . S
C957 C954 1.387 . S
C958 C959 1.387 . S
C958 H962 0.950 . S
C958 C967 1.390 . S
C959 C958 1.387 . S
C959 C961 1.387 . S
H960 C967 0.950 . S
C961 C959 1.387 . S
C961 C963 1.390 . S
C961 H965 0.950 . S
H962 C958 0.950 . S
C963 C961 1.390 . S
C963 C964 1.387 . S
C963 H966 0.950 . S
C964 C963 1.387 . S
C964 C967 1.387 . S
H965 C961 0.950 . S
H966 C963 0.950 . S
C967 C958 1.390 . S
C967 H960 0.950 . S
C967 C964 1.387 . S
C968 C969 1.387 . S
C968 H972 0.950 . S
C968 C977 1.390 . S
C969 C968 1.387 . S
C969 C971 1.387 . S
H970 C977 0.950 . S
C971 C969 1.387 . S
C971 C973 1.390 . S
C971 H975 0.950 . S
H972 C968 0.950 . S
C973 C971 1.390 . S
C973 C974 1.387 . S
C973 H976 0.950 . S
C974 C973 1.387 . S
C974 C977 1.387 . S
H975 C971 0.950 . S
H976 C973 0.950 . S
C977 C968 1.390 . S
C977 H970 0.950 . S
C977 C974 1.387 . S
C978 C979 1.387 . S
C978 H982 0.950 . S
C978 C987 1.390 . S
C979 C978 1.387 . S
C979 C981 1.387 . S
H980 C987 0.950 . S
C981 C979 1.387 . S
C981 C983 1.390 . S
C981 H985 0.950 . S
H982 C978 0.950 . S
C983 C981 1.390 . S
C983 C984 1.387 . S
C983 H986 0.950 . S
C984 C983 1.387 . S
C984 C987 1.387 . S
H985 C981 0.950 . S
H986 C983 0.950 . S
C987 C978 1.390 . S
C987 H980 0.950 . S
C987 C984 1.387 . S
C988 C989 1.387 . S
C988 H992 0.950 . S
C988 C997 1.390 . S
C989 C988 1.387 . S
C989 C991 1.387 . S
H990 C997 0.950 . S
C991 C989 1.387 . S
C991 C993 1.390 . S
C991 H995 0.950 . S
H992 C988 0.950 . S
C993 C991 1.390 . S
C993 C994 1.387 . S
C993 H996 0.950 . S
C994 C993 1.387 . S
C994 C997 1.387 . S
H995 C991 0.950 . S
H996 C993 0.950 . S
C997 C988 1.390 . S
C997 H990 0.950 . S
C997 C994 1.387 . S
C998 C999 1.387 . S
C998 H1002 0.950 . S
C998 C1007 1.390 . S
C999 C998 1.387 . S
C999 C1001 1.387 . S
H1000 C1007 0.950 . S
C1001 C999 1.387 . S
C1001 C1003 1.390 . S
C1001 H1005 0.950 . S
H1002 C998 0.950 . S
C1003 C1001 1.390 . S
C1003 C1004 1.387 . S
C1003 H1006 0.950 . S
C1004 C1003 1.387 . S
C1004 C1007 1.387 . S
H1005 C1001 0.950 . S
H1006 C1003 0.950 . S
C1007 C998 1.390 . S
C1007 H1000 0.950 . S
C1007 C1004 1.387 . S
C649 C364 1.253 . S
C654 C4 1.253 . S
C659 C40 1.248 . S
C664 C400 1.241 . S
C669 C328 1.247 . S
C674 C76 1.253 . S
C679 C508 1.252 . S
C684 C112 1.251 . S
C689 C148 1.251 . S
C694 C436 1.248 . S
C699 C472 1.242 . S
C704 C184 1.248 . S
C709 C220 1.259 . S
C714 C580 1.264 . S
C719 C616 1.264 . S
C724 C256 1.261 . S
C729 C292 1.263 . S
C734 C544 1.258 . S
C739 C3 1.221 . S
C744 C38 1.287 . S
C749 C39 1.220 . S
C754 C74 1.278 . S
C759 C2 1.299 . S
C764 C75 1.239 . S
C769 C182 1.287 . S
C774 C111 1.226 . S
C779 C110 1.300 . S
C784 C147 1.235 . S
C789 C183 1.220 . S
C794 C146 1.278 . S
C799 C219 1.237 . S
C804 C254 1.306 . S
C809 C255 1.230 . S
C814 C290 1.298 . S
C819 C218 1.297 . S
C824 C291 1.236 . S
C829 C398 1.308 . S
C834 C327 1.244 . S
C839 C326 1.289 . S
C844 C363 1.228 . S
C849 C362 1.296 . S
C854 C399 1.232 . S
C859 C470 1.308 . S
C864 C435 1.244 . S
C869 C506 1.296 . S
C874 C471 1.232 . S
C879 C434 1.290 . S
C884 C507 1.224 . S
C889 C543 1.237 . S
C894 C614 1.306 . S
C899 C579 1.236 . S
C904 C542 1.297 . S
C909 C615 1.230 . S
C914 C578 1.298 . S
C919 C14 1.563 . S
C924 C122 1.563 . S
C929 C158 1.563 . S
C934 C50 1.564 . S
C939 C194 1.560 . S
C944 C86 1.561 . S
C949 C338 1.566 . S
C954 C230 1.566 . S
C959 C374 1.556 . S
C964 C266 1.555 . S
C969 C302 1.566 . S
C974 C410 1.565 . S
C979 C554 1.567 . S
C984 C446 1.567 . S
C989 C590 1.569 . S
C994 C482 1.568 . S
C999 C626 1.558 . S
C1004 C518 1.560 . S
