# Generated by pormake.
# Topology ukn, (4)-cn, num edge types: 1
# Building blocks:
#     Node 0, Type 0, BuildingBlock: CEKHIL_clean_sbu_0, # of connection points: 4
#     Node 1, Type 0, BuildingBlock: CEKHIL_clean_sbu_0, # of connection points: 4
#     Node 2, Type 0, BuildingBlock: CEKHIL_clean_sbu_0, # of connection points: 4
#     Node 3, Type 0, BuildingBlock: CEKHIL_clean_sbu_0, # of connection points: 4
#     Node 4, Type 0, BuildingBlock: CEKHIL_clean_sbu_0, # of connection points: 4
#     Node 5, Type 0, BuildingBlock: CEKHIL_clean_sbu_0, # of connection points: 4
#     Node 6, Type 0, BuildingBlock: CEKHIL_clean_sbu_0, # of connection points: 4
#     Node 7, Type 0, BuildingBlock: CEKHIL_clean_sbu_0, # of connection points: 4
#     Node 8, Type 0, BuildingBlock: CEKHIL_clean_sbu_0, # of connection points: 4
#     Node 9, Type 0, BuildingBlock: CEKHIL_clean_sbu_0, # of connection points: 4
#     Node 10, Type 0, BuildingBlock: CEKHIL_clean_sbu_0, # of connection points: 4
#     Node 11, Type 0, BuildingBlock: CEKHIL_clean_sbu_0, # of connection points: 4
#     Node 12, Type 0, BuildingBlock: CEKHIL_clean_sbu_0, # of connection points: 4
#     Node 13, Type 0, BuildingBlock: CEKHIL_clean_sbu_0, # of connection points: 4
#     Node 14, Type 0, BuildingBlock: CEKHIL_clean_sbu_0, # of connection points: 4
#     Node 15, Type 0, BuildingBlock: CEKHIL_clean_sbu_0, # of connection points: 4
#     Node 16, Type 0, BuildingBlock: CEKHIL_clean_sbu_0, # of connection points: 4
#     Node 17, Type 0, BuildingBlock: CEKHIL_clean_sbu_0, # of connection points: 4
#     Node 18, Type 0, BuildingBlock: CEKHIL_clean_sbu_0, # of connection points: 4
#     Node 19, Type 0, BuildingBlock: CEKHIL_clean_sbu_0, # of connection points: 4
#     Node 20, Type 0, BuildingBlock: CEKHIL_clean_sbu_0, # of connection points: 4
#     Node 21, Type 0, BuildingBlock: CEKHIL_clean_sbu_0, # of connection points: 4
#     Node 22, Type 0, BuildingBlock: CEKHIL_clean_sbu_0, # of connection points: 4
#     Node 23, Type 0, BuildingBlock: CEKHIL_clean_sbu_0, # of connection points: 4
#     Node 24, Type 0, BuildingBlock: CEKHIL_clean_sbu_0, # of connection points: 4
#     Node 25, Type 0, BuildingBlock: CEKHIL_clean_sbu_0, # of connection points: 4
#     Node 26, Type 0, BuildingBlock: CEKHIL_clean_sbu_0, # of connection points: 4
#     Node 27, Type 0, BuildingBlock: CEKHIL_clean_sbu_0, # of connection points: 4
#     Node 28, Type 0, BuildingBlock: CEKHIL_clean_sbu_0, # of connection points: 4
#     Node 29, Type 0, BuildingBlock: CEKHIL_clean_sbu_0, # of connection points: 4
#     Node 30, Type 0, BuildingBlock: CEKHIL_clean_sbu_0, # of connection points: 4
#     Node 31, Type 0, BuildingBlock: CEKHIL_clean_sbu_0, # of connection points: 4
#     Node 32, Type 0, BuildingBlock: CEKHIL_clean_sbu_0, # of connection points: 4
#     Node 33, Type 0, BuildingBlock: CEKHIL_clean_sbu_0, # of connection points: 4
#     Node 34, Type 0, BuildingBlock: CEKHIL_clean_sbu_0, # of connection points: 4
#     Node 35, Type 0, BuildingBlock: CEKHIL_clean_sbu_0, # of connection points: 4
#     Edge 36, Type (0, 0), BuildingBlock: KIFKEQ_clean_linker_1, # of connection points: 2
#     Edge 37, Type (0, 0), BuildingBlock: KIFKEQ_clean_linker_1, # of connection points: 2
#     Edge 38, Type (0, 0), BuildingBlock: KIFKEQ_clean_linker_1, # of connection points: 2
#     Edge 39, Type (0, 0), BuildingBlock: KIFKEQ_clean_linker_1, # of connection points: 2
#     Edge 40, Type (0, 0), BuildingBlock: KIFKEQ_clean_linker_1, # of connection points: 2
#     Edge 41, Type (0, 0), BuildingBlock: KIFKEQ_clean_linker_1, # of connection points: 2
#     Edge 42, Type (0, 0), BuildingBlock: KIFKEQ_clean_linker_1, # of connection points: 2
#     Edge 43, Type (0, 0), BuildingBlock: KIFKEQ_clean_linker_1, # of connection points: 2
#     Edge 44, Type (0, 0), BuildingBlock: KIFKEQ_clean_linker_1, # of connection points: 2
#     Edge 45, Type (0, 0), BuildingBlock: KIFKEQ_clean_linker_1, # of connection points: 2
#     Edge 46, Type (0, 0), BuildingBlock: KIFKEQ_clean_linker_1, # of connection points: 2
#     Edge 47, Type (0, 0), BuildingBlock: KIFKEQ_clean_linker_1, # of connection points: 2
#     Edge 48, Type (0, 0), BuildingBlock: KIFKEQ_clean_linker_1, # of connection points: 2
#     Edge 49, Type (0, 0), BuildingBlock: KIFKEQ_clean_linker_1, # of connection points: 2
#     Edge 50, Type (0, 0), BuildingBlock: KIFKEQ_clean_linker_1, # of connection points: 2
#     Edge 51, Type (0, 0), BuildingBlock: KIFKEQ_clean_linker_1, # of connection points: 2
#     Edge 52, Type (0, 0), BuildingBlock: KIFKEQ_clean_linker_1, # of connection points: 2
#     Edge 53, Type (0, 0), BuildingBlock: KIFKEQ_clean_linker_1, # of connection points: 2
#     Edge 54, Type (0, 0), BuildingBlock: KIFKEQ_clean_linker_1, # of connection points: 2
#     Edge 55, Type (0, 0), BuildingBlock: KIFKEQ_clean_linker_1, # of connection points: 2
#     Edge 56, Type (0, 0), BuildingBlock: KIFKEQ_clean_linker_1, # of connection points: 2
#     Edge 57, Type (0, 0), BuildingBlock: KIFKEQ_clean_linker_1, # of connection points: 2
#     Edge 58, Type (0, 0), BuildingBlock: KIFKEQ_clean_linker_1, # of connection points: 2
#     Edge 59, Type (0, 0), BuildingBlock: KIFKEQ_clean_linker_1, # of connection points: 2
#     Edge 60, Type (0, 0), BuildingBlock: KIFKEQ_clean_linker_1, # of connection points: 2
#     Edge 61, Type (0, 0), BuildingBlock: KIFKEQ_clean_linker_1, # of connection points: 2
#     Edge 62, Type (0, 0), BuildingBlock: KIFKEQ_clean_linker_1, # of connection points: 2
#     Edge 63, Type (0, 0), BuildingBlock: KIFKEQ_clean_linker_1, # of connection points: 2
#     Edge 64, Type (0, 0), BuildingBlock: KIFKEQ_clean_linker_1, # of connection points: 2
#     Edge 65, Type (0, 0), BuildingBlock: KIFKEQ_clean_linker_1, # of connection points: 2
#     Edge 66, Type (0, 0), BuildingBlock: KIFKEQ_clean_linker_1, # of connection points: 2
#     Edge 67, Type (0, 0), BuildingBlock: KIFKEQ_clean_linker_1, # of connection points: 2
#     Edge 68, Type (0, 0), BuildingBlock: KIFKEQ_clean_linker_1, # of connection points: 2
#     Edge 69, Type (0, 0), BuildingBlock: KIFKEQ_clean_linker_1, # of connection points: 2
#     Edge 70, Type (0, 0), BuildingBlock: KIFKEQ_clean_linker_1, # of connection points: 2
#     Edge 71, Type (0, 0), BuildingBlock: KIFKEQ_clean_linker_1, # of connection points: 2
#     Edge 72, Type (0, 0), BuildingBlock: KIFKEQ_clean_linker_1, # of connection points: 2
#     Edge 73, Type (0, 0), BuildingBlock: KIFKEQ_clean_linker_1, # of connection points: 2
#     Edge 74, Type (0, 0), BuildingBlock: KIFKEQ_clean_linker_1, # of connection points: 2
#     Edge 75, Type (0, 0), BuildingBlock: KIFKEQ_clean_linker_1, # of connection points: 2
#     Edge 76, Type (0, 0), BuildingBlock: KIFKEQ_clean_linker_1, # of connection points: 2
#     Edge 77, Type (0, 0), BuildingBlock: KIFKEQ_clean_linker_1, # of connection points: 2
#     Edge 78, Type (0, 0), BuildingBlock: KIFKEQ_clean_linker_1, # of connection points: 2
#     Edge 79, Type (0, 0), BuildingBlock: KIFKEQ_clean_linker_1, # of connection points: 2
#     Edge 80, Type (0, 0), BuildingBlock: KIFKEQ_clean_linker_1, # of connection points: 2
#     Edge 81, Type (0, 0), BuildingBlock: KIFKEQ_clean_linker_1, # of connection points: 2
#     Edge 82, Type (0, 0), BuildingBlock: KIFKEQ_clean_linker_1, # of connection points: 2
#     Edge 83, Type (0, 0), BuildingBlock: KIFKEQ_clean_linker_1, # of connection points: 2
#     Edge 84, Type (0, 0), BuildingBlock: KIFKEQ_clean_linker_1, # of connection points: 2
#     Edge 85, Type (0, 0), BuildingBlock: KIFKEQ_clean_linker_1, # of connection points: 2
#     Edge 86, Type (0, 0), BuildingBlock: KIFKEQ_clean_linker_1, # of connection points: 2
#     Edge 87, Type (0, 0), BuildingBlock: KIFKEQ_clean_linker_1, # of connection points: 2
#     Edge 88, Type (0, 0), BuildingBlock: KIFKEQ_clean_linker_1, # of connection points: 2
#     Edge 89, Type (0, 0), BuildingBlock: KIFKEQ_clean_linker_1, # of connection points: 2
#     Edge 90, Type (0, 0), BuildingBlock: KIFKEQ_clean_linker_1, # of connection points: 2
#     Edge 91, Type (0, 0), BuildingBlock: KIFKEQ_clean_linker_1, # of connection points: 2
#     Edge 92, Type (0, 0), BuildingBlock: KIFKEQ_clean_linker_1, # of connection points: 2
#     Edge 93, Type (0, 0), BuildingBlock: KIFKEQ_clean_linker_1, # of connection points: 2
#     Edge 94, Type (0, 0), BuildingBlock: KIFKEQ_clean_linker_1, # of connection points: 2
#     Edge 95, Type (0, 0), BuildingBlock: KIFKEQ_clean_linker_1, # of connection points: 2
#     Edge 96, Type (0, 0), BuildingBlock: KIFKEQ_clean_linker_1, # of connection points: 2
#     Edge 97, Type (0, 0), BuildingBlock: KIFKEQ_clean_linker_1, # of connection points: 2
#     Edge 98, Type (0, 0), BuildingBlock: KIFKEQ_clean_linker_1, # of connection points: 2
#     Edge 99, Type (0, 0), BuildingBlock: KIFKEQ_clean_linker_1, # of connection points: 2
#     Edge 100, Type (0, 0), BuildingBlock: KIFKEQ_clean_linker_1, # of connection points: 2
#     Edge 101, Type (0, 0), BuildingBlock: KIFKEQ_clean_linker_1, # of connection points: 2
#     Edge 102, Type (0, 0), BuildingBlock: KIFKEQ_clean_linker_1, # of connection points: 2
#     Edge 103, Type (0, 0), BuildingBlock: KIFKEQ_clean_linker_1, # of connection points: 2
#     Edge 104, Type (0, 0), BuildingBlock: KIFKEQ_clean_linker_1, # of connection points: 2
#     Edge 105, Type (0, 0), BuildingBlock: KIFKEQ_clean_linker_1, # of connection points: 2
#     Edge 106, Type (0, 0), BuildingBlock: KIFKEQ_clean_linker_1, # of connection points: 2
#     Edge 107, Type (0, 0), BuildingBlock: KIFKEQ_clean_linker_1, # of connection points: 2
# Relax obj value: 0.077
# Max RMSD: 0.097
# Mean RMSD: 0.097
data_MOF--net-ukn--node1-CEKHIL_clean_sbu_0--edge1-KIFKEQ_clean_linker_1
_symmetry_space_group_name_H-M    P1
_symmetry_Int_Tables_number       1
_symmetry_cell_setting            triclinic
loop_
_symmetry_equiv_pos_as_xyz
'x, y, z'
_cell_length_a     106.42697
_cell_length_b     106.45282
_cell_length_c     26.98236
_cell_angle_alpha  89.992905
_cell_angle_beta   90.013476
_cell_angle_gamma 120.02847
loop_
_atom_site_label
_atom_site_type_symbol
_atom_site_fract_x
_atom_site_fract_y
_atom_site_fract_z
_atom_type_partial_charge
Co0 Co 0.0884 0.30823 0.08731 0.0
O1 O 0.06954 0.30616 0.07842 0.0
O2 O 0.07495 0.28926 0.05904 0.0
C3 C 0.09177 0.31778 0.16397 0.0
O4 O 0.10675 0.30651 0.09344 0.0
Co5 Co 0.1154 0.339 0.10516 0.0
O6 O 0.12448 0.32749 0.12548 0.0
C7 C 0.10204 0.33052 0.00577 0.0
C8 C 0.06525 0.29331 0.06088 0.0
C9 C 0.11949 0.3143 0.11268 0.0
O10 O 0.09428 0.31717 0.01932 0.0
O11 O 0.11001 0.34082 0.03565 0.0
O12 O 0.08448 0.30375 0.15837 0.0
O13 O 0.0958 0.32522 0.12382 0.0
Co14 Co 0.71729 0.78786 0.08324 0.0
O15 O 0.71806 0.7703 0.07463 0.0
O16 O 0.73576 0.79215 0.05407 0.0
C17 C 0.70806 0.78264 0.16041 0.0
O18 O 0.72051 0.80855 0.08832 0.0
Co19 Co 0.68769 0.78669 0.10178 0.0
O20 O 0.70046 0.80709 0.12234 0.0
C21 C 0.69489 0.78026 0.00278 0.0
C22 C 0.73095 0.77825 0.05621 0.0
C23 C 0.71363 0.8144 0.10824 0.0
O24 O 0.70816 0.78501 0.01587 0.0
O25 O 0.68499 0.77904 0.03261 0.0
O26 O 0.72198 0.78828 0.15393 0.0
O27 O 0.70041 0.77952 0.12071 0.0
Co28 Co 0.23694 0.93484 0.08236 0.0
O29 O 0.25358 0.95382 0.07428 0.0
O30 O 0.23122 0.94823 0.05489 0.0
C31 C 0.24303 0.93113 0.15869 0.0
O32 O 0.21706 0.9162 0.08789 0.0
Co33 Co 0.24177 0.90836 0.09694 0.0
O34 O 0.22105 0.8986 0.11658 0.0
C35 C 0.24696 0.92284 1e-05 0.0
C36 C 0.24495 0.95802 0.0568 0.0
C37 C 0.21251 0.90335 0.10559 0.0
O38 O 0.24018 0.92943 0.01394 0.0
O39 O 0.24997 0.91522 0.02914 0.0
O40 O 0.23622 0.93836 0.15366 0.0
O41 O 0.24671 0.92753 0.11816 0.0
Co42 Co 0.30967 0.08341 0.89363 0.0
O43 O 0.30794 0.06455 0.89867 0.0
O44 O 0.29108 0.06955 0.92281 0.0
C45 C 0.31862 0.08804 0.81588 0.0
O46 O 0.30745 0.10151 0.89291 0.0
Co47 Co 0.33973 0.11135 0.87625 0.0
O48 O 0.32754 0.11991 0.8586 0.0
C49 C 0.33248 0.0968 0.97385 0.0
C50 C 0.29525 0.06001 0.91829 0.0
C51 C 0.31455 0.11439 0.87421 0.0
O52 O 0.31913 0.08863 0.9609 0.0
O53 O 0.3424 0.10561 0.94429 0.0
O54 O 0.30467 0.08015 0.82273 0.0
O55 O 0.32641 0.09179 0.85535 0.0
Co56 Co 0.93989 0.23282 0.89663 0.0
O57 O 0.95831 0.25003 0.90794 0.0
O58 O 0.95374 0.2278 0.92428 0.0
C59 C 0.93646 0.23941 0.82066 0.0
O60 O 0.92217 0.21239 0.88802 0.0
Co61 Co 0.91193 0.23496 0.87858 0.0
O62 O 0.90406 0.21482 0.85492 0.0
C63 C 0.92456 0.23911 0.97899 0.0
C64 C 0.96301 0.24168 0.92434 0.0
C65 C 0.90952 0.20703 0.86761 0.0
O66 O 0.93328 0.2347 0.96484 0.0
O67 O 0.91625 0.241 0.94942 0.0
O68 O 0.94445 0.2334 0.82566 0.0
O69 O 0.93188 0.24204 0.86117 0.0
Co70 Co 0.79159 0.71261 0.89851 0.0
O71 O 0.77406 0.71351 0.90607 0.0
O72 O 0.7959 0.73112 0.92715 0.0
C73 C 0.78658 0.70327 0.82131 0.0
O74 O 0.81228 0.71577 0.89467 0.0
Co75 Co 0.79037 0.68294 0.88107 0.0
O76 O 0.8112 0.69544 0.86501 0.0
C77 C 0.7833 0.69017 0.979 0.0
C78 C 0.78203 0.72641 0.92438 0.0
C79 C 0.81832 0.70871 0.87793 0.0
O80 O 0.78852 0.70353 0.96612 0.0
O81 O 0.78188 0.68022 0.94901 0.0
O82 O 0.79226 0.7172 0.82756 0.0
O83 O 0.78332 0.69569 0.86118 0.0
Co84 Co 0.93955 0.71151 0.89588 0.0
O85 O 0.95835 0.71337 0.90439 0.0
O86 O 0.95308 0.73024 0.92552 0.0
C87 C 0.9362 0.70243 0.81855 0.0
O88 O 0.92128 0.71342 0.89073 0.0
Co89 Co 0.91234 0.68104 0.87602 0.0
O90 O 0.90358 0.69288 0.85619 0.0
C91 C 0.92541 0.6888 0.97603 0.0
C92 C 0.96269 0.72609 0.92321 0.0
C93 C 0.90861 0.70594 0.87064 0.0
O94 O 0.93359 0.70216 0.96316 0.0
O95 O 0.91719 0.67874 0.94579 0.0
O96 O 0.94355 0.71642 0.8251 0.0
O97 O 0.93206 0.69473 0.85815 0.0
Co98 Co 0.31185 0.23305 0.9014 0.0
O99 O 0.3095 0.24983 0.9031 0.0
O100 O 0.29269 0.22784 0.92641 0.0
C101 C 0.32205 0.23731 0.82554 0.0
O102 O 0.31027 0.21306 0.90299 0.0
Co103 Co 0.34299 0.23714 0.89424 0.0
O104 O 0.33249 0.21564 0.8925 0.0
C105 C 0.33339 0.24489 0.9852 0.0
C106 C 0.29662 0.24148 0.92098 0.0
C107 C 0.31881 0.2078 0.89838 0.0
O108 O 0.3201 0.23762 0.97059 0.0
O109 O 0.34419 0.24748 0.95754 0.0
O110 O 0.30799 0.23083 0.82973 0.0
O111 O 0.32919 0.24188 0.86626 0.0
Co112 Co 0.79337 0.0835 0.89813 0.0
O113 O 0.77592 0.06501 0.9059 0.0
O114 O 0.79786 0.06935 0.92619 0.0
C115 C 0.78827 0.08796 0.82119 0.0
O116 O 0.81396 0.10107 0.89379 0.0
Co117 Co 0.79171 0.11176 0.88268 0.0
O118 O 0.81251 0.12025 0.86544 0.0
C119 C 0.78451 0.09687 0.97929 0.0
C120 C 0.78399 0.06015 0.92387 0.0
C121 C 0.8198 0.11417 0.87719 0.0
O122 O 0.79042 0.08938 0.9662 0.0
O123 O 0.78266 0.10521 0.94969 0.0
O124 O 0.79394 0.07969 0.82703 0.0
O125 O 0.78496 0.09212 0.86134 0.0
Co126 Co 0.71601 0.93536 0.08998 0.0
O127 O 0.71862 0.95447 0.08289 0.0
O128 O 0.73508 0.94858 0.06203 0.0
C129 C 0.70648 0.93151 0.16677 0.0
O130 O 0.71706 0.91664 0.09409 0.0
Co131 Co 0.68467 0.90902 0.10486 0.0
O132 O 0.6955 0.89897 0.12272 0.0
C133 C 0.69379 0.92347 0.00784 0.0
C134 C 0.73135 0.9585 0.06472 0.0
C135 C 0.70875 0.90372 0.11112 0.0
O136 O 0.70717 0.93017 0.02175 0.0
O137 O 0.68319 0.91578 0.037 0.0
O138 O 0.72051 0.93863 0.16118 0.0
O139 O 0.69904 0.92811 0.12656 0.0
Co140 Co 0.08825 0.78676 0.08753 0.0
O141 O 0.06973 0.76937 0.07901 0.0
O142 O 0.0742 0.79135 0.05912 0.0
C143 C 0.09233 0.78129 0.16455 0.0
O144 O 0.10591 0.80736 0.09249 0.0
Co145 Co 0.11654 0.78529 0.10546 0.0
O146 O 0.12458 0.80582 0.12523 0.0
C147 C 0.10271 0.77895 0.00658 0.0
C148 C 0.06494 0.7775 0.06116 0.0
C149 C 0.11875 0.81317 0.1115 0.0
O150 O 0.09439 0.78394 0.0197 0.0
O151 O 0.1112 0.77746 0.03659 0.0
O152 O 0.08421 0.78713 0.15864 0.0
O153 O 0.09668 0.77819 0.12445 0.0
Co154 Co 0.23491 0.30523 0.08418 0.0
O155 O 0.25238 0.30438 0.07441 0.0
O156 O 0.23041 0.28675 0.05469 0.0
C157 C 0.24049 0.31449 0.16135 0.0
O158 O 0.21427 0.3021 0.09031 0.0
Co159 Co 0.23629 0.33488 0.10372 0.0
O160 O 0.21583 0.32223 0.12398 0.0
C161 C 0.24253 0.32774 0.0043 0.0
C162 C 0.24431 0.29151 0.05604 0.0
C163 C 0.20848 0.30905 0.11008 0.0
O164 O 0.23751 0.31439 0.01693 0.0
O165 O 0.24407 0.33765 0.03471 0.0
O166 O 0.23475 0.30056 0.15485 0.0
O167 O 0.24346 0.3221 0.12163 0.0
Co168 Co 0.75481 0.64028 0.41902 0.0
O169 O 0.73664 0.63957 0.40657 0.0
O170 O 0.74075 0.62152 0.39131 0.0
C171 C 0.75833 0.65026 0.4951 0.0
O172 O 0.77222 0.63709 0.42784 0.0
Co173 Co 0.78319 0.66997 0.4376 0.0
O174 O 0.7907 0.65736 0.46102 0.0
C175 C 0.77044 0.6619 0.33719 0.0
C176 C 0.7318 0.62651 0.38999 0.0
C177 C 0.78492 0.6441 0.44802 0.0
O178 O 0.76166 0.64877 0.35104 0.0
O179 O 0.77888 0.672 0.36692 0.0
O180 O 0.75005 0.6363 0.48986 0.0
O181 O 0.76312 0.6575 0.45471 0.0
Co182 Co 0.38153 0.11785 0.41399 0.0
O183 O 0.38281 0.10045 0.40959 0.0
O184 O 0.4003 0.12226 0.38758 0.0
C185 C 0.37168 0.11342 0.49042 0.0
O186 O 0.3844 0.13842 0.41491 0.0
Co187 Co 0.3515 0.11621 0.42626 0.0
O188 O 0.36353 0.13731 0.43871 0.0
C189 C 0.35959 0.10841 0.33135 0.0
C190 C 0.39578 0.10847 0.39181 0.0
C191 C 0.37697 0.14445 0.42787 0.0
O192 O 0.37291 0.11412 0.34543 0.0
O193 O 0.34936 0.10696 0.35996 0.0
O194 O 0.38567 0.11918 0.48548 0.0
O195 O 0.36435 0.10967 0.44993 0.0
Co196 Co 0.90246 0.26759 0.41747 0.0
O197 O 0.92005 0.28588 0.40846 0.0
O198 O 0.8982 0.28173 0.38787 0.0
C199 C 0.90771 0.26371 0.49482 0.0
O200 O 0.88174 0.25015 0.4228 0.0
Co201 Co 0.90361 0.23919 0.43671 0.0
O202 O 0.8831 0.23143 0.45616 0.0
C203 C 0.91026 0.25283 0.33771 0.0
C204 C 0.91212 0.29079 0.38982 0.0
C205 C 0.87584 0.23735 0.44219 0.0
O206 O 0.90521 0.26113 0.35028 0.0
O207 O 0.91169 0.24438 0.36807 0.0
O208 O 0.9021 0.27199 0.48812 0.0
O209 O 0.91078 0.25911 0.45521 0.0
Co210 Co 0.97859 0.41703 0.23299 0.0
O211 O 0.97734 0.39837 0.23787 0.0
O212 O 0.95996 0.40277 0.26047 0.0
C213 C 0.98811 0.42227 0.15602 0.0
O214 O 0.97567 0.43468 0.23201 0.0
Co215 Co 1.00856 0.44542 0.21919 0.0
O216 O 0.9966 0.45473 0.21048 0.0
C217 C 1.00091 0.4298 0.31446 0.0
C218 C 0.96446 0.39349 0.25633 0.0
C219 C 0.98312 0.44827 0.22081 0.0
O220 O 0.98752 0.42219 0.30112 0.0
O221 O 1.01104 0.43842 0.28518 0.0
O222 O 0.97415 0.41399 0.1617 0.0
O223 O 0.99561 0.42598 0.19613 0.0
Co224 Co 0.60507 0.56493 0.23441 0.0
O225 O 0.62312 0.5826 0.2464 0.0
O226 O 0.61936 0.56059 0.26211 0.0
C227 C 0.60132 0.57115 0.15812 0.0
O228 O 0.58796 0.54414 0.22614 0.0
Co229 Co 0.5763 0.56545 0.21582 0.0
O230 O 0.56889 0.54515 0.19437 0.0
C231 C 0.58954 0.57115 0.31568 0.0
C232 C 0.62817 0.57456 0.26299 0.0
C233 C 0.57513 0.53809 0.20697 0.0
O234 O 0.59816 0.56654 0.30236 0.0
O235 O 0.58111 0.5727 0.28555 0.0
O236 O 0.60978 0.56569 0.16349 0.0
O237 O 0.59643 0.57349 0.19848 0.0
Co238 Co 0.45917 0.04527 0.23662 0.0
O239 O 0.44124 0.04525 0.24701 0.0
O240 O 0.46297 0.06364 0.26499 0.0
C241 C 0.45351 0.03553 0.16009 0.0
O242 O 0.48016 0.04947 0.22959 0.0
Co243 Co 0.45957 0.01647 0.21808 0.0
O244 O 0.47972 0.02984 0.19622 0.0
C245 C 0.45339 0.02354 0.31787 0.0
C246 C 0.44897 0.05831 0.26433 0.0
C247 C 0.4865 0.04309 0.20959 0.0
O248 O 0.45733 0.03661 0.30438 0.0
O249 O 0.4525 0.01377 0.28808 0.0
O250 O 0.4587 0.04941 0.16583 0.0
O251 O 0.45113 0.02818 0.20019 0.0
Co252 Co 0.60652 0.04508 0.22917 0.0
O253 O 0.62496 0.04626 0.23997 0.0
O254 O 0.62043 0.06391 0.25699 0.0
C255 C 0.60289 0.03514 0.15295 0.0
O256 O 0.58882 0.04787 0.22117 0.0
Co257 Co 0.57848 0.01503 0.21153 0.0
O258 O 0.57064 0.02736 0.18821 0.0
C259 C 0.59138 0.02337 0.31155 0.0
C260 C 0.62968 0.05928 0.25677 0.0
C261 C 0.57616 0.04062 0.20087 0.0
O262 O 0.60004 0.03651 0.29742 0.0
O263 O 0.58295 0.01319 0.28208 0.0
O264 O 0.61095 0.04913 0.15812 0.0
O265 O 0.59839 0.02789 0.19342 0.0
Co266 Co 0.97713 0.56501 0.23036 0.0
O267 O 0.97543 0.5821 0.23621 0.0
O268 O 0.9585 0.56017 0.25948 0.0
C269 C 0.98614 0.5695 0.15277 0.0
O270 O 0.97506 0.54476 0.22824 0.0
Co271 Co 1.00769 0.56812 0.21454 0.0
O272 O 0.99589 0.54726 0.19741 0.0
C273 C 0.99988 0.57542 0.31055 0.0
C274 C 0.96273 0.57392 0.25563 0.0
C275 C 0.98268 0.53941 0.21067 0.0
O276 O 0.98641 0.56896 0.29785 0.0
O277 O 1.01013 0.57747 0.28091 0.0
O278 O 0.97219 0.56347 0.15948 0.0
O279 O 0.99389 0.57358 0.19234 0.0
Co280 Co 0.45752 0.41635 0.23244 0.0
O281 O 0.44076 0.39753 0.24263 0.0
O282 O 0.46316 0.40305 0.26106 0.0
C283 C 0.45122 0.41955 0.15573 0.0
O284 O 0.47761 0.43471 0.22503 0.0
Co285 Co 0.45362 0.44328 0.21448 0.0
O286 O 0.47414 0.45236 0.19348 0.0
C287 C 0.44867 0.42991 0.31348 0.0
C288 C 0.44941 0.39334 0.26011 0.0
C289 C 0.48244 0.44743 0.20568 0.0
O290 O 0.4547 0.42251 0.30028 0.0
O291 O 0.44607 0.43762 0.28338 0.0
O292 O 0.4577 0.41203 0.16153 0.0
O293 O 0.44793 0.42371 0.19586 0.0
Co294 Co 0.38414 0.26809 0.42191 0.0
O295 O 0.38685 0.28731 0.41794 0.0
O296 O 0.40315 0.28154 0.39381 0.0
C297 C 0.37484 0.26357 0.4992 0.0
O298 O 0.38506 0.24926 0.42247 0.0
Co299 Co 0.35283 0.24163 0.43639 0.0
O300 O 0.36372 0.23152 0.45245 0.0
C301 C 0.36158 0.25716 0.34095 0.0
C302 C 0.3995 0.29147 0.39877 0.0
C303 C 0.37685 0.23628 0.43931 0.0
O304 O 0.37502 0.26364 0.35404 0.0
O305 O 0.35111 0.24915 0.37017 0.0
O306 O 0.38886 0.27067 0.49315 0.0
O307 O 0.36731 0.26054 0.45929 0.0
Co308 Co 0.75517 0.11834 0.41938 0.0
O309 O 0.73629 0.10144 0.41176 0.0
O310 O 0.74146 0.1237 0.3926 0.0
C311 C 0.75948 0.11265 0.4957 0.0
O312 O 0.77351 0.13846 0.42439 0.0
Co313 Co 0.78224 0.11438 0.43207 0.0
O314 O 0.79168 0.1351 0.45138 0.0
C315 C 0.76735 0.1088 0.33597 0.0
C316 C 0.73184 0.10993 0.3947 0.0
C317 C 0.78653 0.14334 0.44108 0.0
O318 O 0.76055 0.1153 0.35052 0.0
O319 O 0.77523 0.106 0.36459 0.0
O320 O 0.75173 0.11892 0.49087 0.0
O321 O 0.76308 0.10904 0.45496 0.0
Co322 Co 0.90245 0.6393 0.41659 0.0
O323 O 0.9198 0.63803 0.41016 0.0
O324 O 0.89784 0.62052 0.38963 0.0
C325 C 0.90765 0.64921 0.49293 0.0
O326 O 0.8819 0.63643 0.41957 0.0
Co327 Co 0.9041 0.66925 0.43108 0.0
O328 O 0.88303 0.65722 0.4443 0.0
C329 C 0.91125 0.66129 0.33451 0.0
C330 C 0.91168 0.62507 0.39249 0.0
C331 C 0.87589 0.64378 0.43339 0.0
O332 O 0.90573 0.64796 0.3482 0.0
O333 O 0.91281 0.67146 0.36371 0.0
O334 O 0.90159 0.6352 0.48803 0.0
O335 O 0.911 0.65649 0.4524 0.0
Co336 Co 0.42166 0.97281 0.7573 0.0
O337 O 0.40291 0.97102 0.74809 0.0
O338 O 0.4081 0.95396 0.72884 0.0
C339 C 0.42529 0.98235 0.83416 0.0
O340 O 0.43979 0.9707 0.76326 0.0
Co341 Co 0.44912 1.00328 0.77517 0.0
O342 O 0.45785 0.99145 0.7955 0.0
C343 C 0.43565 0.99511 0.67601 0.0
C344 C 0.39853 0.95816 0.73038 0.0
C345 C 0.45259 0.97826 0.78233 0.0
O346 O 0.42773 0.98176 0.6894 0.0
O347 O 0.44374 1.00532 0.70596 0.0
O348 O 0.41756 0.96835 0.82837 0.0
O349 O 0.42944 0.98979 0.794 0.0
Co350 Co 0.05095 0.45506 0.75354 0.0
O351 O 0.05216 0.43771 0.74587 0.0
O352 O 0.06964 0.45967 0.72545 0.0
C353 C 0.04137 0.44977 0.83045 0.0
O354 O 0.05374 0.47562 0.75777 0.0
Co355 Co 0.02102 0.45332 0.77032 0.0
O356 O 0.03348 0.47371 0.7915 0.0
C357 C 0.02884 0.44721 0.67172 0.0
C358 C 0.06507 0.44582 0.7279 0.0
C359 C 0.04664 0.48125 0.77754 0.0
O360 O 0.04206 0.45198 0.68553 0.0
O361 O 0.01879 0.4459 0.701 0.0
O362 O 0.05535 0.45566 0.82471 0.0
O363 O 0.03392 0.44648 0.79028 0.0
Co364 Co 0.56776 0.60035 0.75475 0.0
O365 O 0.58557 0.61839 0.74441 0.0
O366 O 0.56377 0.61474 0.72586 0.0
C367 C 0.57343 0.59644 0.83167 0.0
O368 O 0.54684 0.58339 0.76146 0.0
Co369 Co 0.56766 0.57134 0.77431 0.0
O370 O 0.54738 0.56431 0.79523 0.0
C371 C 0.57373 0.58436 0.67404 0.0
C372 C 0.57773 0.62356 0.72672 0.0
C373 C 0.54054 0.57066 0.78134 0.0
O374 O 0.56978 0.59351 0.68716 0.0
O375 O 0.57468 0.57559 0.70424 0.0
O376 O 0.56808 0.60498 0.82555 0.0
O377 O 0.57592 0.5915 0.79172 0.0
Co378 Co 0.64542 0.74896 0.56262 0.0
O379 O 0.64364 0.7302 0.57125 0.0
O380 O 0.62651 0.73531 0.59054 0.0
C381 C 0.65513 0.75284 0.48607 0.0
O382 O 0.6434 0.76716 0.55697 0.0
Co383 Co 0.67607 0.77635 0.54626 0.0
O384 O 0.66437 0.78523 0.52604 0.0
C385 C 0.66753 0.7625 0.64464 0.0
C386 C 0.63075 0.72576 0.58881 0.0
C387 C 0.65112 0.78001 0.53844 0.0
O388 O 0.6542 0.75479 0.63078 0.0
O389 O 0.67787 0.7706 0.61516 0.0
O390 O 0.64111 0.74509 0.49142 0.0
O391 O 0.66248 0.75681 0.52644 0.0
Co392 Co 0.27405 0.89946 0.56101 0.0
O393 O 0.29306 0.91603 0.56922 0.0
O394 O 0.28727 0.89368 0.58955 0.0
C395 C 0.2706 0.90543 0.48418 0.0
O396 O 0.25538 0.87963 0.5556 0.0
Co397 Co 0.24767 0.90435 0.54448 0.0
O398 O 0.23789 0.88358 0.52546 0.0
C399 C 0.26171 0.90952 0.6423 0.0
C400 C 0.29713 0.90738 0.58738 0.0
C401 C 0.24258 0.87505 0.5374 0.0
O402 O 0.26849 0.90289 0.62893 0.0
O403 O 0.25413 0.91245 0.61263 0.0
O404 O 0.27772 0.89853 0.48995 0.0
O405 O 0.26692 0.90923 0.52429 0.0
Co406 Co 0.1258 0.38072 0.56619 0.0
O407 O 0.10839 0.38173 0.57559 0.0
O408 O 0.1304 0.39935 0.59483 0.0
C409 C 0.11986 0.37116 0.4895 0.0
O410 O 0.1464 0.38377 0.56019 0.0
Co411 Co 0.12451 0.35114 0.5468 0.0
O412 O 0.14487 0.36381 0.52533 0.0
C413 C 0.11882 0.35855 0.64699 0.0
C414 C 0.11651 0.39466 0.59336 0.0
C415 C 0.15221 0.37695 0.53967 0.0
O416 O 0.12319 0.37175 0.63381 0.0
O417 O 0.11759 0.34868 0.61697 0.0
O418 O 0.12598 0.38515 0.49528 0.0
O419 O 0.117 0.36369 0.5295 0.0
Co420 Co 0.27193 0.3775 0.56339 0.0
O421 O 0.29031 0.37861 0.5747 0.0
O422 O 0.28586 0.39633 0.59127 0.0
C423 C 0.26852 0.36755 0.48732 0.0
O424 O 0.25425 0.38029 0.5547 0.0
Co425 Co 0.24395 0.34741 0.54524 0.0
O426 O 0.23611 0.35972 0.52184 0.0
C427 C 0.25668 0.35577 0.6455 0.0
C428 C 0.29507 0.39166 0.59122 0.0
C429 C 0.24159 0.37299 0.53435 0.0
O430 O 0.26528 0.36895 0.63151 0.0
O431 O 0.2484 0.34557 0.61582 0.0
O432 O 0.27655 0.38154 0.49246 0.0
O433 O 0.26389 0.36031 0.52775 0.0
Co434 Co 0.64339 0.89637 0.56883 0.0
O435 O 0.64218 0.91372 0.57515 0.0
O436 O 0.62458 0.89183 0.59575 0.0
C437 C 0.65329 0.90158 0.49244 0.0
O438 O 0.6407 0.87589 0.56566 0.0
Co439 Co 0.67362 0.89857 0.55526 0.0
O440 O 0.6616 0.87769 0.53856 0.0
C441 C 0.66535 0.90574 0.65095 0.0
C442 C 0.62922 0.90569 0.5928 0.0
C443 C 0.6482 0.87023 0.54988 0.0
O444 O 0.65197 0.89961 0.6373 0.0
O445 O 0.67571 0.90771 0.62197 0.0
O446 O 0.63927 0.89549 0.49739 0.0
O447 O 0.66057 0.90501 0.53301 0.0
Co448 Co 0.1259 0.75155 0.56681 0.0
O449 O 0.10846 0.73319 0.57715 0.0
O450 O 0.13054 0.7375 0.59482 0.0
C451 C 0.11983 0.75532 0.49034 0.0
O452 O 0.14655 0.76899 0.5598 0.0
Co453 Co 0.12486 0.78003 0.54843 0.0
O454 O 0.14505 0.78751 0.52565 0.0
C455 C 0.11942 0.7669 0.64845 0.0
C456 C 0.11664 0.72835 0.5942 0.0
C457 C 0.15236 0.78163 0.5393 0.0
O458 O 0.12372 0.75806 0.63481 0.0
O459 O 0.11809 0.77553 0.61867 0.0
O460 O 0.1256 0.74713 0.49581 0.0
O461 O 0.11718 0.75998 0.53064 0.0
Co462 Co 0.04913 0.60257 0.75115 0.0
O463 O 0.05187 0.62178 0.74629 0.0
O464 O 0.06842 0.61604 0.72514 0.0
C465 C 0.03909 0.59776 0.82728 0.0
O466 O 0.0499 0.58364 0.75356 0.0
Co467 Co 0.01731 0.57655 0.76056 0.0
O468 O 0.02761 0.56586 0.7762 0.0
C469 C 0.02762 0.59242 0.66692 0.0
C470 C 0.06472 0.62597 0.72892 0.0
C471 C 0.04101 0.57046 0.76737 0.0
O472 O 0.04084 0.59822 0.68203 0.0
O473 O 0.01664 0.5848 0.69471 0.0
O474 O 0.05315 0.60515 0.82276 0.0
O475 O 0.03194 0.59496 0.78654 0.0
Co476 Co 0.42088 0.45222 0.75364 0.0
O477 O 0.40256 0.43487 0.74227 0.0
O478 O 0.40691 0.457 0.72546 0.0
C479 C 0.4243 0.44582 0.82988 0.0
O480 O 0.43844 0.47279 0.76238 0.0
Co481 Co 0.44904 0.45051 0.77231 0.0
O482 O 0.45655 0.47055 0.79645 0.0
C483 C 0.43648 0.44606 0.67182 0.0
C484 C 0.39775 0.4431 0.7256 0.0
C485 C 0.451 0.47824 0.78351 0.0
O486 O 0.42763 0.45032 0.68567 0.0
O487 O 0.44492 0.4444 0.70151 0.0
O488 O 0.41617 0.45165 0.82442 0.0
O489 O 0.42903 0.44323 0.78963 0.0
Co490 Co 0.56982 0.97244 0.75015 0.0
O491 O 0.58722 0.97127 0.74259 0.0
O492 O 0.56526 0.95385 0.72164 0.0
C493 C 0.57486 0.9818 0.82731 0.0
O494 O 0.54923 0.96945 0.75401 0.0
Co495 Co 0.57129 1.00221 0.7673 0.0
O496 O 0.55041 0.98989 0.78301 0.0
C497 C 0.57842 0.99492 0.66964 0.0
C498 C 0.57909 0.95838 0.72437 0.0
C499 C 0.54324 0.97659 0.77041 0.0
O500 O 0.573 0.98153 0.68245 0.0
O501 O 0.57993 1.0049 0.69964 0.0
O502 O 0.5691 0.96786 0.82113 0.0
O503 O 0.57822 0.98938 0.7874 0.0
H504 H 0.12023 0.29252 0.05912 0.0
H505 H 0.14155 0.32299 0.17827 0.0
H506 H 0.13933 0.28597 0.0615 0.0
H507 H 0.16051 0.31683 0.18 0.0
H508 H 0.19239 0.30366 0.19313 0.0
H509 H 0.16783 0.29983 0.1981 0.0
H510 H 0.16482 0.29758 0.03826 0.0
H511 H 0.18916 0.30061 0.03396 0.0
C512 C 0.12881 0.2976 0.0864 0.0
C513 C 0.12943 0.30837 0.11821 0.0
C514 C 0.13981 0.29394 0.08753 0.0
C515 C 0.15153 0.30085 0.12092 0.0
C516 C 0.15161 0.31104 0.1543 0.0
C517 C 0.14076 0.31472 0.15296 0.0
C518 C 0.18619 0.30171 0.15929 0.0
C519 C 0.19258 0.30236 0.11324 0.0
C520 C 0.17219 0.29971 0.16197 0.0
C521 C 0.16443 0.2988 0.11851 0.0
C522 C 0.17039 0.29818 0.07253 0.0
C523 C 0.18434 0.2999 0.06997 0.0
H524 H 0.71852 0.83031 0.19135 0.0
H525 H 0.72262 0.8339 0.03242 0.0
H526 H 0.72214 0.85478 0.19622 0.0
H527 H 0.72554 0.85821 0.03663 0.0
H528 H 0.69873 0.88073 0.17336 0.0
H529 H 0.70476 0.86167 0.17508 0.0
H530 H 0.73726 0.88385 0.062 0.0
H531 H 0.73093 0.90311 0.05976 0.0
C532 C 0.72069 0.83658 0.15758 0.0
C533 C 0.72036 0.8303 0.11158 0.0
C534 C 0.72257 0.85053 0.1602 0.0
C535 C 0.72374 0.85836 0.11672 0.0
C536 C 0.72473 0.85255 0.0709 0.0
C537 C 0.72309 0.83863 0.0684 0.0
C538 C 0.70731 0.8817 0.14921 0.0
C539 C 0.71425 0.8934 0.1161 0.0
C540 C 0.7109 0.87079 0.15057 0.0
C541 C 0.72156 0.87117 0.1188 0.0
C542 C 0.72895 0.88317 0.08682 0.0
C543 C 0.7254 0.89425 0.08576 0.0
H544 H 0.12872 0.83236 0.03472 0.0
H545 H 0.13047 0.82947 0.19358 0.0
H546 H 0.1499 0.85683 0.03697 0.0
H547 H 0.15107 0.85415 0.1966 0.0
H548 H 0.20016 0.88117 0.17101 0.0
H549 H 0.17524 0.86181 0.17498 0.0
H550 H 0.16374 0.88242 0.05961 0.0
H551 H 0.18922 0.90196 0.05493 0.0
C552 C 0.13323 0.83726 0.0703 0.0
C553 C 0.12803 0.82909 0.11399 0.0
C554 C 0.14539 0.85129 0.07168 0.0
C555 C 0.15246 0.8574 0.1169 0.0
C556 C 0.1462 0.84968 0.16096 0.0
C557 C 0.13428 0.8356 0.15943 0.0
C558 C 0.19233 0.88174 0.14683 0.0
C559 C 0.19674 0.89306 0.11229 0.0
C560 C 0.17791 0.87066 0.14949 0.0
C561 C 0.16734 0.87047 0.1177 0.0
C562 C 0.17159 0.88215 0.08445 0.0
C563 C 0.18615 0.8934 0.082 0.0
H564 H 0.31471 0.13186 0.80082 0.0
H565 H 0.30171 0.11966 0.95271 0.0
H566 H 0.31081 0.15251 0.80982 0.0
H567 H 0.29823 0.14067 0.96227 0.0
H568 H 0.32684 0.19337 0.9612 0.0
H569 H 0.32045 0.16792 0.95688 0.0
H570 H 0.29187 0.1613 0.83378 0.0
H571 H 0.29796 0.18683 0.83938 0.0
C572 C 0.31055 0.13335 0.83563 0.0
C573 C 0.30846 0.12417 0.87602 0.0
C574 C 0.30829 0.14514 0.84076 0.0
C575 C 0.30427 0.14821 0.88679 0.0
C576 C 0.30129 0.13851 0.92637 0.0
C577 C 0.3032 0.12646 0.92083 0.0
C578 C 0.31886 0.18635 0.93425 0.0
C579 C 0.31284 0.19197 0.90075 0.0
C580 C 0.31514 0.17178 0.9319 0.0
C581 C 0.30563 0.16263 0.89511 0.0
C582 C 0.29917 0.16812 0.86267 0.0
C583 C 0.3026 0.18266 0.86593 0.0
H584 H 0.83883 0.12652 0.95314 0.0
H585 H 0.83615 0.12305 0.794 0.0
H586 H 0.86351 0.14715 0.94683 0.0
H587 H 0.86106 0.14315 0.78718 0.0
H588 H 0.88886 0.19306 0.79786 0.0
H589 H 0.86961 0.16802 0.79806 0.0
H590 H 0.88895 0.15955 0.9253 0.0
H591 H 0.90829 0.1851 0.9256 0.0
C592 C 0.84382 0.12978 0.9169 0.0
C593 C 0.83569 0.12325 0.87404 0.0
C594 C 0.85798 0.1416 0.91317 0.0
C595 C 0.86426 0.14705 0.8664 0.0
C596 C 0.85649 0.13951 0.82376 0.0
C597 C 0.84228 0.12788 0.82755 0.0
C598 C 0.88921 0.18581 0.82531 0.0
C599 C 0.90002 0.19111 0.86203 0.0
C600 C 0.87818 0.17133 0.82521 0.0
C601 C 0.87759 0.16166 0.8619 0.0
C602 C 0.88896 0.16672 0.89683 0.0
C603 C 0.90013 0.18132 0.89674 0.0
H604 H 0.83652 0.71424 0.95573 0.0
H605 H 0.83556 0.71729 0.79675 0.0
H606 H 0.86117 0.71809 0.95134 0.0
H607 H 0.86043 0.72184 0.79198 0.0
H608 H 0.88792 0.69939 0.8011 0.0
H609 H 0.8685 0.70496 0.80186 0.0
H610 H 0.88698 0.73152 0.9323 0.0
H611 H 0.90654 0.72561 0.93184 0.0
C612 C 0.84189 0.71644 0.92005 0.0
C613 C 0.83426 0.71557 0.87658 0.0
C614 C 0.85602 0.71864 0.91743 0.0
C615 C 0.86276 0.72002 0.87119 0.0
C616 C 0.85549 0.72048 0.82814 0.0
C617 C 0.84132 0.71807 0.83078 0.0
C618 C 0.88803 0.70665 0.82948 0.0
C619 C 0.89871 0.71194 0.86665 0.0
C620 C 0.87691 0.70997 0.8297 0.0
C621 C 0.87606 0.71869 0.86724 0.0
C622 C 0.88721 0.72467 0.90307 0.0
C623 C 0.89849 0.7214 0.90258 0.0
H624 H 0.85797 0.63169 0.51221 0.0
H625 H 0.85838 0.64159 0.35723 0.0
H626 H 0.83274 0.62615 0.5185 0.0
H627 H 0.83334 0.63648 0.36329 0.0
H628 H 0.78744 0.62583 0.38213 0.0
H629 H 0.80731 0.62043 0.37883 0.0
H630 H 0.82375 0.64292 0.51785 0.0
H631 H 0.80404 0.64815 0.52102 0.0
C632 C 0.85245 0.63221 0.47918 0.0
C633 C 0.85997 0.6369 0.43417 0.0
C634 C 0.83807 0.62918 0.48277 0.0
C635 C 0.83102 0.63102 0.44154 0.0
C636 C 0.83831 0.63475 0.39566 0.0
C637 C 0.85266 0.63771 0.3921 0.0
C638 C 0.79503 0.62914 0.41274 0.0
C639 C 0.79425 0.63748 0.45171 0.0
C640 C 0.8065 0.62619 0.41063 0.0
C641 C 0.81724 0.63135 0.44783 0.0
C642 C 0.81566 0.63863 0.48874 0.0
C643 C 0.80437 0.64171 0.4905 0.0
H644 H 0.38739 0.16225 0.50747 0.0
H645 H 0.38056 0.16204 0.35006 0.0
H646 H 0.39224 0.18724 0.5124 0.0
H647 H 0.38499 0.1869 0.35472 0.0
H648 H 0.36994 0.21531 0.50795 0.0
H649 H 0.37477 0.19534 0.50551 0.0
H650 H 0.40041 0.21316 0.3729 0.0
H651 H 0.39545 0.23337 0.37549 0.0
C652 C 0.38743 0.16777 0.4737 0.0
C653 C 0.38379 0.16037 0.42835 0.0
C654 C 0.39005 0.18202 0.47649 0.0
C655 C 0.38881 0.18904 0.43406 0.0
C656 C 0.38619 0.18192 0.38803 0.0
C657 C 0.38366 0.16769 0.38527 0.0
C658 C 0.37686 0.21515 0.47879 0.0
C659 C 0.38223 0.22586 0.44175 0.0
C660 C 0.37974 0.20373 0.47757 0.0
C661 C 0.38798 0.20258 0.43894 0.0
C662 C 0.39396 0.21368 0.40302 0.0
C663 C 0.39122 0.2253 0.40467 0.0
H664 H 0.85962 0.22636 0.52481 0.0
H665 H 0.85659 0.22688 0.36569 0.0
H666 H 0.835 0.20568 0.52896 0.0
H667 H 0.83216 0.20564 0.36917 0.0
H668 H 0.7873 0.16615 0.38928 0.0
H669 H 0.80653 0.19178 0.39259 0.0
H670 H 0.82775 0.1814 0.50904 0.0
H671 H 0.8087 0.15631 0.50628 0.0
C672 C 0.85346 0.22229 0.49082 0.0
C673 C 0.85992 0.2282 0.445 0.0
C674 C 0.83942 0.21032 0.49303 0.0
C675 C 0.83169 0.20369 0.44931 0.0
C676 C 0.83772 0.21045 0.40362 0.0
C677 C 0.85171 0.22264 0.40153 0.0
C678 C 0.79592 0.1695 0.41632 0.0
C679 C 0.79654 0.15918 0.44724 0.0
C680 C 0.80699 0.18414 0.41798 0.0
C681 C 0.81875 0.18874 0.45109 0.0
C682 C 0.81883 0.17845 0.4836 0.0
C683 C 0.80792 0.16394 0.48168 0.0
H684 H 0.96554 0.51879 0.27902 0.0
H685 H 0.98677 0.52436 0.13796 0.0
H686 H 0.96047 0.49361 0.28248 0.0
H687 H 0.98171 0.49944 0.14104 0.0
H688 H 0.96933 0.4535 0.14582 0.0
H689 H 0.96394 0.47334 0.14196 0.0
H690 H 0.97755 0.48414 0.29438 0.0
H691 H 0.98271 0.46422 0.29798 0.0
C692 C 0.96869 0.51449 0.24809 0.0
C693 C 0.9766 0.52352 0.20833 0.0
C694 C 0.9659 0.50013 0.2502 0.0
C695 C 0.97074 0.49451 0.21214 0.0
C696 C 0.97768 0.5033 0.17076 0.0
C697 C 0.98066 0.51764 0.16908 0.0
C698 C 0.97061 0.4598 0.1789 0.0
C699 C 0.97627 0.45732 0.22232 0.0
C700 C 0.96765 0.47122 0.17667 0.0
C701 C 0.97042 0.48042 0.21775 0.0
C702 C 0.9751 0.47719 0.26228 0.0
C703 C 0.97808 0.4658 0.2644 0.0
H704 H 0.5647 0.52194 0.12371 0.0
H705 H 0.56475 0.5187 0.28282 0.0
H706 H 0.5446 0.49702 0.11868 0.0
H707 H 0.54403 0.49402 0.27855 0.0
H708 H 0.50534 0.44904 0.25953 0.0
H709 H 0.53078 0.46867 0.25647 0.0
H710 H 0.52015 0.48843 0.13574 0.0
H711 H 0.4953 0.46892 0.13801 0.0
C712 C 0.56064 0.51569 0.15753 0.0
C713 C 0.56627 0.52215 0.20357 0.0
C714 C 0.54898 0.50147 0.15484 0.0
C715 C 0.54235 0.49356 0.19829 0.0
C716 C 0.54883 0.49967 0.24425 0.0
C717 C 0.56073 0.51383 0.2468 0.0
C718 C 0.50861 0.4574 0.23155 0.0
C719 C 0.49827 0.45749 0.19932 0.0
C720 C 0.52315 0.46873 0.23005 0.0
C721 C 0.52763 0.48025 0.19596 0.0
C722 C 0.51734 0.47973 0.16202 0.0
C723 C 0.50294 0.46855 0.16365 0.0
H724 H 0.55549 0.03389 0.13117 0.0
H725 H 0.5751 0.06157 0.25816 0.0
H726 H 0.53638 0.03983 0.13082 0.0
H727 H 0.55591 0.06798 0.25723 0.0
H728 H 0.50583 0.05107 0.28519 0.0
H729 H 0.5306 0.05545 0.27891 0.0
H730 H 0.52775 0.05592 0.11913 0.0
H731 H 0.50271 0.05067 0.12599 0.0
C732 C 0.55592 0.04159 0.15835 0.0
C733 C 0.56673 0.04711 0.19505 0.0
C734 C 0.54496 0.04514 0.1579 0.0
C735 C 0.54445 0.05436 0.19419 0.0
C736 C 0.55584 0.0607 0.22906 0.0
C737 C 0.56693 0.05715 0.22934 0.0
C738 C 0.51075 0.05266 0.24889 0.0
C739 C 0.50244 0.05056 0.20606 0.0
C740 C 0.52497 0.05517 0.24516 0.0
C741 C 0.53115 0.05571 0.19843 0.0
C742 C 0.52325 0.05515 0.15573 0.0
C743 C 0.50897 0.05235 0.15952 0.0
H744 H 0.47313 0.98449 0.85212 0.0
H745 H 0.45465 0.95883 0.72023 0.0
H746 H 0.4927 0.97912 0.85022 0.0
H747 H 0.47437 0.95317 0.71846 0.0
H748 H 0.525 0.97174 0.69339 0.0
H749 H 0.50021 0.96743 0.69908 0.0
H750 H 0.50108 0.96229 0.85774 0.0
H751 H 0.52608 0.96723 0.85173 0.0
C752 C 0.47307 0.97737 0.82332 0.0
C753 C 0.46241 0.97218 0.78613 0.0
C754 C 0.48427 0.97417 0.8224 0.0
C755 C 0.48522 0.96573 0.78405 0.0
C756 C 0.47405 0.9598 0.74831 0.0
C757 C 0.46269 0.96292 0.74954 0.0
C758 C 0.51963 0.96915 0.72913 0.0
C759 C 0.52732 0.96972 0.77212 0.0
C760 C 0.50542 0.96667 0.7325 0.0
C761 C 0.49867 0.96472 0.77901 0.0
C762 C 0.50603 0.96404 0.82144 0.0
C763 C 0.52027 0.9667 0.81808 0.0
H764 H 0.02754 0.54528 0.81891 0.0
H765 H 0.06553 0.57104 0.72885 0.0
H766 H 0.03358 0.52633 0.82404 0.0
H767 H 0.07179 0.5517 0.73473 0.0
H768 H 0.05853 0.50133 0.70311 0.0
H769 H 0.06104 0.52556 0.70392 0.0
H770 H 0.05119 0.52092 0.86038 0.0
H771 H 0.04816 0.49667 0.85885 0.0
C772 C 0.03734 0.54701 0.80055 0.0
C773 C 0.046 0.55974 0.77323 0.0
C774 C 0.0409 0.53613 0.80399 0.0
C775 C 0.05328 0.53752 0.78032 0.0
C776 C 0.06218 0.55031 0.75345 0.0
C777 C 0.05864 0.5614 0.7503 0.0
C778 C 0.05749 0.50579 0.73795 0.0
C779 C 0.05307 0.49715 0.78088 0.0
C780 C 0.05889 0.51964 0.73844 0.0
C781 C 0.05596 0.52503 0.78197 0.0
C782 C 0.05318 0.51696 0.82597 0.0
C783 C 0.05157 0.50312 0.82528 0.0
H784 H 0.47105 0.49202 0.85506 0.0
H785 H 0.45238 0.50037 0.72606 0.0
H786 H 0.49013 0.51708 0.85683 0.0
H787 H 0.47152 0.526 0.72845 0.0
H788 H 0.52168 0.55943 0.70444 0.0
H789 H 0.4969 0.53894 0.70891 0.0
H790 H 0.49877 0.54172 0.86888 0.0
H791 H 0.52383 0.56159 0.86383 0.0
C792 C 0.47082 0.49936 0.82774 0.0
C793 C 0.4603 0.49415 0.79007 0.0
C794 C 0.48175 0.51387 0.82899 0.0
C795 C 0.48253 0.52371 0.79259 0.0
C796 C 0.4714 0.51872 0.75673 0.0
C797 C 0.46033 0.50408 0.75561 0.0
C798 C 0.51654 0.55595 0.74039 0.0
C799 C 0.52459 0.56202 0.7838 0.0
C800 C 0.50232 0.54419 0.74308 0.0
C801 C 0.49586 0.53838 0.78934 0.0
C802 C 0.50349 0.54558 0.83261 0.0
C803 C 0.51779 0.5571 0.82986 0.0
H804 H 0.64153 0.85114 0.62579 0.0
H805 H 0.64119 0.85397 0.46661 0.0
H806 H 0.63772 0.82654 0.61946 0.0
H807 H 0.63667 0.82917 0.45977 0.0
H808 H 0.6587 0.80139 0.47092 0.0
H809 H 0.65322 0.82084 0.47185 0.0
H810 H 0.62461 0.801 0.59693 0.0
H811 H 0.63047 0.78141 0.59643 0.0
C812 C 0.63997 0.8462 0.58952 0.0
C813 C 0.64159 0.85435 0.54667 0.0
C814 C 0.63777 0.8321 0.58578 0.0
C815 C 0.63714 0.8259 0.53903 0.0
C816 C 0.63745 0.83368 0.49636 0.0
C817 C 0.63986 0.84783 0.50015 0.0
C818 C 0.65101 0.80099 0.4981 0.0
C819 C 0.64514 0.78992 0.53388 0.0
C820 C 0.64774 0.81213 0.4984 0.0
C821 C 0.63847 0.81261 0.53458 0.0
C822 C 0.6319 0.80107 0.56881 0.0
C823 C 0.63514 0.78977 0.56827 0.0
H824 H 0.17206 0.7918 0.61449 0.0
H825 H 0.16814 0.79271 0.45579 0.0
H826 H 0.19657 0.81285 0.61007 0.0
H827 H 0.19286 0.81316 0.45059 0.0
H828 H 0.22007 0.86238 0.4732 0.0
H829 H 0.20072 0.83745 0.47084 0.0
H830 H 0.22196 0.82653 0.58569 0.0
H831 H 0.24147 0.85202 0.58879 0.0
C832 C 0.17674 0.79609 0.57847 0.0
C833 C 0.16827 0.79071 0.53547 0.0
C834 C 0.1908 0.80818 0.57584 0.0
C835 C 0.19662 0.81498 0.53004 0.0
C836 C 0.1886 0.8085 0.48664 0.0
C837 C 0.1745 0.79666 0.48943 0.0
C838 C 0.22078 0.85468 0.49761 0.0
C839 C 0.23226 0.85926 0.53158 0.0
C840 C 0.2097 0.84024 0.49587 0.0
C841 C 0.2097 0.82984 0.52802 0.0
C842 C 0.22154 0.83425 0.56062 0.0
C843 C 0.23278 0.84883 0.56216 0.0
H844 H 0.22087 0.366 0.46468 0.0
H845 H 0.2405 0.39409 0.59074 0.0
H846 H 0.20175 0.37192 0.46361 0.0
H847 H 0.22132 0.40051 0.58898 0.0
H848 H 0.17146 0.38469 0.61565 0.0
H849 H 0.19603 0.38842 0.6103 0.0
H850 H 0.19327 0.388 0.45036 0.0
H851 H 0.16843 0.38337 0.45636 0.0
C852 C 0.2213 0.37378 0.49151 0.0
C853 C 0.23213 0.37944 0.52814 0.0
C854 C 0.21034 0.37732 0.49064 0.0
C855 C 0.20984 0.38669 0.52637 0.0
C856 C 0.22123 0.39312 0.56124 0.0
C857 C 0.23232 0.38958 0.56197 0.0
C858 C 0.17636 0.3859 0.57947 0.0
C859 C 0.16812 0.38374 0.5364 0.0
C860 C 0.19046 0.38805 0.57628 0.0
C861 C 0.19661 0.3882 0.52985 0.0
C862 C 0.18879 0.38752 0.48679 0.0
C863 C 0.17462 0.38506 0.49007 0.0
H864 H 0.04324 0.29898 0.07066 0.0
H865 H 0.05281 0.26701 0.01133 0.0
H866 H 0.01876 0.28544 0.0383 0.0
H867 H 0.028 0.25337 0.97784 0.0
H868 H 0.97638 0.2278 0.96733 0.0
H869 H 1.00115 0.23914 0.0011 0.0
H870 H 1.00848 0.28116 0.95532 0.0
H871 H 0.98402 0.27003 0.92267 0.0
C872 C 0.04013 0.28903 0.05065 0.0
C873 C 0.05008 0.28418 0.04316 0.0
C874 C 0.02605 0.28127 0.03185 0.0
C875 C 0.02146 0.26843 0.00472 0.0
C876 C 0.0312 0.26322 -0.00139 0.0
C877 C 0.04541 0.27105 0.0176 0.0
C878 C 0.98334 0.23945 0.96441 0.0
C879 C 0.97815 0.24801 0.94276 0.0
C880 C 0.99754 0.24593 0.98353 0.0
C881 C 1.00674 0.26109 0.98154 0.0
C882 C 1.00161 0.2695 0.95851 0.0
C883 C 0.98755 0.26308 0.93953 0.0
H884 H 0.79526 0.75317 0.97005 0.0
H885 H 0.75365 0.71905 0.91836 0.0
H886 H 0.78363 0.76642 0.00208 0.0
H887 H 0.74217 0.73229 0.94924 0.0
H888 H 0.72318 0.74975 0.0603 0.0
H889 H 0.73618 0.73813 0.02869 0.0
H890 H 0.77081 0.7796 0.97801 0.0
H891 H 0.75777 0.79139 0.01078 0.0
C892 C 0.78368 0.74855 0.96521 0.0
C893 C 0.77538 0.73499 0.94199 0.0
C894 C 0.77702 0.75617 0.98335 0.0
C895 C 0.76192 0.75036 0.97875 0.0
C896 C 0.75376 0.73697 0.95443 0.0
C897 C 0.76038 0.7294 0.93642 0.0
C898 C 0.73358 0.75646 0.04254 0.0
C899 C 0.73938 0.77151 0.03787 0.0
C900 C 0.74102 0.74975 0.02409 0.0
C901 C 0.75449 0.75787 0.00021 0.0
C902 C 0.76049 0.77301 -0.00362 0.0
C903 C 0.753 0.77976 0.01495 0.0
H904 H 0.23078 0.97061 0.01011 0.0
H905 H 0.27291 0.97976 0.06222 0.0
H906 H 0.24186 0.99529 0.97551 0.0
H907 H 0.28377 1.00406 0.02849 0.0
H908 H 0.30188 0.03852 0.91127 0.0
H909 H 0.2886 0.01403 0.94419 0.0
H910 H 0.25532 0.02226 -0.00069 0.0
H911 H 0.26868 0.04701 0.96559 0.0
C912 C 0.24233 0.97788 0.01455 0.0
C913 C 0.25096 0.97314 0.03852 0.0
C914 C 0.24867 0.99201 -0.00512 0.0
C915 C 0.26374 1.00157 -0.00142 0.0
C916 C 0.27219 0.9969 0.02397 0.0
C917 C 0.26591 0.98293 0.04359 0.0
C918 C 0.2917 0.03516 0.93015 0.0
C919 C 0.28642 0.0448 0.93612 0.0
C920 C 0.2841 0.0211 0.94926 0.0
C921 C 0.27098 0.01623 0.97499 0.0
C922 C 0.26538 0.02567 0.97959 0.0
C923 C 0.27306 0.03986 0.96046 0.0
H924 H 0.98422 0.71955 0.91744 0.0
H925 H 0.97544 0.75258 0.97155 0.0
H926 H 1.00859 0.73281 0.95089 0.0
H927 H 1.00013 0.76594 0.00606 0.0
H928 H 0.05153 0.79105 0.01648 0.0
H929 H 0.02674 0.77957 0.98317 0.0
H930 H 0.01927 0.73784 0.03306 0.0
H931 H 0.04383 0.74914 0.06533 0.0
C932 C 0.98748 0.72968 0.93654 0.0
C933 C 0.97779 0.73493 0.94209 0.0
C934 C 1.00149 0.73726 0.95603 0.0
C935 C 1.0063 0.75035 0.98185 0.0
C936 C 0.99678 0.75589 0.9863 0.0
C937 C 0.98263 0.74823 0.9667 0.0
C938 C 0.04454 0.77944 0.02044 0.0
C939 C 0.04973 0.771 0.04314 0.0
C940 C 0.03032 0.77287 0.00158 0.0
C941 C 0.02105 0.75775 0.00485 0.0
C942 C 0.02618 0.74946 0.02889 0.0
C943 C 0.04029 0.75598 0.04766 0.0
H944 H 0.30225 0.26914 0.90827 0.0
H945 H 0.2703 0.22789 0.96974 0.0
H946 H 0.28869 0.28022 0.93956 0.0
H947 H 0.25669 0.23915 0.00195 0.0
H948 H 0.2308 0.26434 0.01296 0.0
H949 H 0.24239 0.25131 0.9783 0.0
H950 H 0.28433 0.28666 0.02174 0.0
H951 H 0.27291 0.29961 0.05546 0.0
C952 C 0.29228 0.26239 0.92834 0.0
C953 C 0.28744 0.24764 0.93683 0.0
C954 C 0.28453 0.26879 0.94656 0.0
C955 C 0.2717 0.26064 0.97395 0.0
C956 C 0.26651 0.24573 0.98091 0.0
C957 C 0.27432 0.23929 0.9626 0.0
C958 C 0.24248 0.26927 0.01514 0.0
C959 C 0.25092 0.28307 0.03667 0.0
C960 C 0.24912 0.26179 -0.00451 0.0
C961 C 0.26431 0.26801 -0.00331 0.0
C962 C 0.27264 0.28166 0.0192 0.0
C963 C 0.26605 0.28907 0.03885 0.0
H964 H 0.75552 0.03932 0.92084 0.0
H965 H 0.79742 0.04661 0.96829 0.0
H966 H 0.74405 0.01491 0.95448 0.0
H967 H 0.78576 0.02195 0.00282 0.0
H968 H 0.75762 0.97049 0.01522 0.0
H969 H 0.77138 0.99508 0.98012 0.0
H970 H 0.73957 1.00498 0.03856 0.0
H971 H 0.72592 0.98073 0.07274 0.0
C972 C 0.76232 0.03571 0.93841 0.0
C973 C 0.7774 0.04499 0.94222 0.0
C974 C 0.75571 0.0217 0.95795 0.0
C975 C 0.76395 0.01652 0.98199 0.0
C976 C 0.77911 0.0256 0.98445 0.0
C977 C 0.78577 0.03973 0.96487 0.0
C978 C 0.75367 0.97799 0.02078 0.0
C979 C 0.74059 0.97358 0.04637 0.0
C980 C 0.76156 0.99207 0.00081 0.0
C981 C 0.75645 1.00192 0.00589 0.0
C982 C 0.74365 0.99759 0.03296 0.0
C983 C 0.73585 0.98366 0.05283 0.0
H984 H 0.6439 0.60121 0.30408 0.0
H985 H 0.64621 0.563 0.26723 0.0
H986 H 0.66849 0.61284 0.33562 0.0
H987 H 0.67144 0.57502 0.29565 0.0
H988 H 0.71349 0.59691 0.38861 0.0
H989 H 0.68831 0.58371 0.3596 0.0
H990 H 0.69208 0.62431 0.31221 0.0
H991 H 0.71661 0.6373 0.34435 0.0
C992 C 0.64979 0.59536 0.30218 0.0
C993 C 0.64315 0.58123 0.28288 0.0
C994 C 0.66403 0.60209 0.31986 0.0
C995 C 0.67229 0.59509 0.31749 0.0
C996 C 0.66552 0.58081 0.29867 0.0
C997 C 0.65106 0.5739 0.28205 0.0
C998 C 0.70884 0.60293 0.37198 0.0
C999 C 0.71693 0.61814 0.36933 0.0
C1000 C 0.6944 0.59537 0.35504 0.0
C1001 C 0.68787 0.60286 0.33406 0.0
C1002 C 0.69635 0.61807 0.32969 0.0
C1003 C 0.71055 0.62558 0.34771 0.0
H1004 H 0.42016 0.04947 0.26406 0.0
H1005 H 0.46179 0.08554 0.30643 0.0
H1006 H 0.40819 0.06218 0.29535 0.0
H1007 H 0.44968 0.09827 0.33893 0.0
H1008 H 0.42229 0.12163 0.34474 0.0
H1009 H 0.4358 0.11012 0.31432 0.0
H1010 H 0.40273 0.06905 0.37359 0.0
H1011 H 0.3892 0.08041 0.4028 0.0
C1012 C 0.42678 0.06012 0.28024 0.0
C1013 C 0.44195 0.06645 0.2829 0.0
C1014 C 0.41989 0.06739 0.29853 0.0
C1015 C 0.42793 0.08121 0.32022 0.0
C1016 C 0.44315 0.08768 0.32223 0.0
C1017 C 0.45009 0.08036 0.30383 0.0
C1018 C 0.41797 0.11016 0.35141 0.0
C1019 C 0.4046 0.10193 0.37583 0.0
C1020 C 0.42574 0.10357 0.33417 0.0
C1021 C 0.42029 0.0886 0.34097 0.0
C1022 C 0.40712 0.08052 0.36667 0.0
C1023 C 0.39938 0.08707 0.38373 0.0
H1024 H 0.94069 0.31137 0.39253 0.0
H1025 H 0.899 0.30451 0.3445 0.0
H1026 H 0.95239 0.33589 0.35984 0.0
H1027 H 0.91086 0.32923 0.31073 0.0
H1028 H 0.93781 0.38019 0.3025 0.0
H1029 H 0.9244 0.35531 0.33456 0.0
H1030 H 0.95794 0.34743 0.27951 0.0
H1031 H 0.97134 0.37215 0.24849 0.0
C1032 C 0.93399 0.31508 0.37487 0.0
C1033 C 0.9189 0.30591 0.37092 0.0
C1034 C 0.94074 0.32916 0.3558 0.0
C1035 C 0.93261 0.33452 0.33204 0.0
C1036 C 0.91744 0.32547 0.32895 0.0
C1037 C 0.91065 0.31129 0.3481 0.0
C1038 C 0.94226 0.37309 0.29709 0.0
C1039 C 0.95571 0.3782 0.27329 0.0
C1040 C 0.93454 0.35882 0.31527 0.0
C1041 C 0.94015 0.3494 0.31014 0.0
C1042 C 0.95342 0.35445 0.28508 0.0
C1043 C 0.96108 0.36864 0.26699 0.0
H1044 H 0.71922 0.1237 0.34592 0.0
H1045 H 0.70993 0.08213 0.40413 0.0
H1046 H 0.69444 0.11245 0.31228 0.0
H1047 H 0.68545 0.07109 0.37161 0.0
H1048 H 0.65062 0.05184 0.25574 0.0
H1049 H 0.67502 0.06508 0.28909 0.0
H1050 H 0.66772 0.0998 0.3346 0.0
H1051 H 0.64304 0.08646 0.30015 0.0
C1052 C 0.71188 0.11223 0.35196 0.0
C1053 C 0.71662 0.10379 0.37724 0.0
C1054 C 0.69768 0.1058 0.33285 0.0
C1055 C 0.68801 0.09081 0.33856 0.0
C1056 C 0.69268 0.08258 0.36545 0.0
C1057 C 0.70675 0.08895 0.38437 0.0
C1058 C 0.65415 0.06231 0.27269 0.0
C1059 C 0.64479 0.06801 0.27559 0.0
C1060 C 0.66817 0.06989 0.29211 0.0
C1061 C 0.6733 0.08343 0.31524 0.0
C1062 C 0.66412 0.08941 0.31696 0.0
C1063 C 0.64997 0.08175 0.29743 0.0
H1064 H 0.94003 0.63231 0.39728 0.0
H1065 H 0.89813 0.59814 0.34791 0.0
H1066 H 0.95135 0.61908 0.36485 0.0
H1067 H 0.90961 0.58487 0.31454 0.0
H1068 H 0.93627 0.56042 0.30361 0.0
H1069 H 0.92308 0.57189 0.33788 0.0
H1070 H 0.95643 0.6134 0.28264 0.0
H1071 H 0.96955 0.6021 0.2493 0.0
C1072 C 0.9332 0.62194 0.37953 0.0
C1073 C 0.91818 0.61635 0.37489 0.0
C1074 C 0.93972 0.61438 0.36065 0.0
C1075 C 0.93143 0.60099 0.33645 0.0
C1076 C 0.91631 0.59513 0.33308 0.0
C1077 C 0.90974 0.60276 0.35202 0.0
C1078 C 0.94071 0.57197 0.29864 0.0
C1079 C 0.95402 0.58035 0.27403 0.0
C1080 C 0.93313 0.57854 0.31812 0.0
C1081 C 0.93879 0.5936 0.31358 0.0
C1082 C 0.9519 0.60183 0.28779 0.0
C1083 C 0.9594 0.59531 0.26835 0.0
H1084 H 0.46399 0.38067 0.30313 0.0
H1085 H 0.42127 0.3718 0.25937 0.0
H1086 H 0.45326 0.35602 0.33773 0.0
H1087 H 0.41075 0.34751 0.29316 0.0
H1088 H 0.42546 0.30387 0.34702 0.0
H1089 H 0.43887 0.32867 0.31326 0.0
H1090 H 0.40751 0.33809 0.3788 0.0
H1091 H 0.39423 0.31367 0.4118 0.0
C1092 C 0.45237 0.37347 0.30059 0.0
C1093 C 0.44349 0.37828 0.27892 0.0
C1094 C 0.44625 0.35935 0.3202 0.0
C1095 C 0.43113 0.34987 0.3188 0.0
C1096 C 0.42239 0.35461 0.29578 0.0
C1097 C 0.42847 0.36858 0.27618 0.0
C1098 C 0.42155 0.31132 0.35452 0.0
C1099 C 0.40868 0.30671 0.38165 0.0
C1100 C 0.42925 0.32551 0.33533 0.0
C1101 C 0.42412 0.33528 0.34272 0.0
C1102 C 0.41159 0.33077 0.37152 0.0
C1103 C 0.404 0.31673 0.39065 0.0
H1104 H 0.30932 0.8933 0.63726 0.0
H1105 H 0.31917 0.93512 0.5796 0.0
H1106 H 0.3339 0.90441 0.67284 0.0
H1107 H 0.34337 0.94599 0.61428 0.0
H1108 H 0.37699 0.96474 0.73381 0.0
H1109 H 0.35268 0.95125 0.69972 0.0
H1110 H 0.36118 0.91766 0.6501 0.0
H1111 H 0.3858 0.93126 0.68507 0.0
C1112 C 0.31673 0.90478 0.63178 0.0
C1113 C 0.31221 0.91334 0.60604 0.0
C1114 C 0.3308 0.91113 0.652 0.0
C1115 C 0.34052 0.92613 0.64705 0.0
C1116 C 0.33608 0.93448 0.61976 0.0
C1117 C 0.32217 0.92819 0.59964 0.0
C1118 C 0.37374 0.95445 0.71586 0.0
C1119 C 0.38343 0.94917 0.71176 0.0
C1120 C 0.35977 0.94673 0.69611 0.0
C1121 C 0.35504 0.93347 0.67152 0.0
C1122 C 0.3645 0.92784 0.66886 0.0
C1123 C 0.37861 0.93565 0.68869 0.0
H1124 H 0.05794 0.41753 0.73373 0.0
H1125 H 0.09183 0.45923 0.68183 0.0
H1126 H 0.07117 0.40616 0.70199 0.0
H1127 H 0.10509 0.44768 0.64894 0.0
H1128 H 0.12994 0.42152 0.63875 0.0
H1129 H 0.11836 0.43471 0.67208 0.0
H1130 H 0.07671 0.40036 0.62155 0.0
H1131 H 0.08811 0.38722 0.5894 0.0
C1132 C 0.06824 0.42431 0.71547 0.0
C1133 C 0.07376 0.4393 0.71005 0.0
C1134 C 0.07581 0.41775 0.69696 0.0
C1135 C 0.08913 0.42595 0.67225 0.0
C1136 C 0.09489 0.44104 0.66791 0.0
C1137 C 0.08727 0.44765 0.68656 0.0
C1138 C 0.11832 0.41684 0.63472 0.0
C1139 C 0.10995 0.40325 0.61177 0.0
C1140 C 0.11169 0.42442 0.6536 0.0
C1141 C 0.09656 0.41852 0.65007 0.0
C1142 C 0.08833 0.40511 0.62598 0.0
C1143 C 0.09491 0.39759 0.60723 0.0
H1144 H 0.60642 0.64389 0.72805 0.0
H1145 H 0.56471 0.63753 0.68273 0.0
H1146 H 0.61821 0.6684 0.69515 0.0
H1147 H 0.57665 0.66222 0.64866 0.0
H1148 H 0.60429 0.71318 0.63689 0.0
H1149 H 0.59068 0.68848 0.67076 0.0
H1150 H 0.62338 0.67953 0.6144 0.0
H1151 H 0.63693 0.70399 0.58174 0.0
C1152 C 0.59974 0.64771 0.71096 0.0
C1153 C 0.58461 0.63868 0.70777 0.0
C1154 C 0.60653 0.66178 0.69178 0.0
C1155 C 0.59842 0.66727 0.66863 0.0
C1156 C 0.58322 0.65837 0.66641 0.0
C1157 C 0.57639 0.6442 0.68571 0.0
C1158 C 0.60849 0.70588 0.63163 0.0
C1159 C 0.62177 0.71062 0.607 0.0
C1160 C 0.60068 0.69172 0.65086 0.0
C1161 C 0.60602 0.68205 0.64592 0.0
C1162 C 0.61908 0.68674 0.61997 0.0
C1163 C 0.62683 0.7008 0.60093 0.0
H1164 H 0.37663 0.4148 0.73027 0.0
H1165 H 0.38439 0.45663 0.68021 0.0
H1166 H 0.35203 0.40349 0.69868 0.0
H1167 H 0.35955 0.44512 0.64725 0.0
H1168 H 0.30836 0.41855 0.63671 0.0
H1169 H 0.3332 0.43191 0.66984 0.0
H1170 H 0.3408 0.39787 0.61838 0.0
H1171 H 0.31624 0.38457 0.58661 0.0
C1172 C 0.3731 0.42162 0.71235 0.0
C1173 C 0.38257 0.43663 0.70741 0.0
C1174 C 0.35896 0.41509 0.69394 0.0
C1175 C 0.35382 0.42333 0.66968 0.0
C1176 C 0.36313 0.43844 0.66583 0.0
C1177 C 0.37738 0.44503 0.68448 0.0
C1178 C 0.31539 0.41399 0.63246 0.0
C1179 C 0.31025 0.40042 0.60945 0.0
C1180 C 0.32963 0.42167 0.65122 0.0
C1181 C 0.33897 0.41589 0.64741 0.0
C1182 C 0.33386 0.40252 0.6231 0.0
C1183 C 0.31973 0.3949 0.60458 0.0
H1184 H 0.63662 0.934 0.58563 0.0
H1185 H 0.60249 0.89265 0.63914 0.0
H1186 H 0.62375 0.94575 0.6172 0.0
H1187 H 0.58956 0.90459 0.67177 0.0
H1188 H 0.56539 0.93148 0.67978 0.0
H1189 H 0.57663 0.91788 0.64746 0.0
H1190 H 0.61848 0.95185 0.69799 0.0
H1191 H 0.60739 0.96542 0.72926 0.0
C1192 C 0.62633 0.92738 0.60416 0.0
C1193 C 0.62064 0.91238 0.61012 0.0
C1194 C 0.61898 0.93416 0.62259 0.0
C1195 C 0.60571 0.92618 0.6477 0.0
C1196 C 0.59975 0.91106 0.65251 0.0
C1197 C 0.60717 0.90423 0.63397 0.0
C1198 C 0.57698 0.93599 0.68406 0.0
C1199 C 0.58551 0.9496 0.70672 0.0
C1200 C 0.58341 0.92817 0.66576 0.0
C1201 C 0.5985 0.93384 0.66959 0.0
C1202 C 0.60689 0.94728 0.69342 0.0
C1203 C 0.6005 0.95504 0.71164 0.0
H1204 H 0.05996 0.6484 0.74408 0.0
H1205 H 0.09059 0.63819 0.67678 0.0
H1206 H 0.07351 0.67294 0.71223 0.0
H1207 H 0.10425 0.66307 0.64397 0.0
H1208 H 0.13047 0.71458 0.63402 0.0
H1209 H 0.11913 0.68984 0.6678 0.0
H1210 H 0.0769 0.68332 0.62921 0.0
H1211 H 0.08807 0.70779 0.59633 0.0
C1212 C 0.06964 0.6514 0.72253 0.0
C1213 C 0.07408 0.64124 0.71256 0.0
C1214 C 0.0774 0.6655 0.70403 0.0
C1215 C 0.08983 0.66992 0.67478 0.0
C1216 C 0.0947 0.65999 0.66639 0.0
C1217 C 0.08687 0.64575 0.68506 0.0
C1218 C 0.11877 0.70781 0.63268 0.0
C1219 C 0.11018 0.71322 0.61285 0.0
C1220 C 0.11229 0.69363 0.6518 0.0
C1221 C 0.0971 0.68465 0.65177 0.0
C1222 C 0.08861 0.69001 0.63077 0.0
C1223 C 0.09504 0.70407 0.61165 0.0
H1224 H 0.11371 0.37341 0.71975 0.0
H1225 H 0.11497 0.33402 0.69233 0.0
H1226 H 0.10717 0.36609 0.80596 0.0
H1227 H 0.10887 0.32697 0.77825 0.0
H1228 H 0.08785 0.31245 0.9273 0.0
H1229 H 0.08992 0.31908 0.83981 0.0
H1230 H 0.11924 0.36393 0.87795 0.0
H1231 H 0.1169 0.35749 0.96471 0.0
C1232 C 0.11266 0.36325 0.73213 0.0
C1233 C 0.11494 0.35435 0.69929 0.0
C1234 C 0.10891 0.35905 0.78143 0.0
C1235 C 0.10748 0.34593 0.79886 0.0
C1236 C 0.1096 0.33699 0.76581 0.0
C1237 C 0.11324 0.34112 0.71659 0.0
C1238 C 0.09461 0.32373 0.91699 0.0
C1239 C 0.10233 0.33439 0.95301 0.0
C1240 C 0.09584 0.32752 0.86691 0.0
C1241 C 0.10481 0.34202 0.85199 0.0
C1242 C 0.1121 0.3527 0.88819 0.0
C1243 C 0.11085 0.34895 0.93804 0.0
H1244 H 0.67014 0.77559 0.9568 0.0
H1245 H 0.70993 0.77489 0.93161 0.0
H1246 H 0.66319 0.7689 0.87109 0.0
H1247 H 0.70271 0.76775 0.84573 0.0
H1248 H 0.69438 0.7774 0.68642 0.0
H1249 H 0.70059 0.77966 0.77332 0.0
H1250 H 0.65571 0.74987 0.80999 0.0
H1251 H 0.64931 0.74789 0.72229 0.0
C1252 C 0.67735 0.77385 0.93309 0.0
C1253 C 0.69067 0.77592 0.95084 0.0
C1254 C 0.67327 0.76986 0.88403 0.0
C1255 C 0.68238 0.76776 0.85169 0.0
C1256 C 0.69555 0.76948 0.8697 0.0
C1257 C 0.69969 0.77358 0.9188 0.0
C1258 C 0.68579 0.77122 0.71277 0.0
C1259 C 0.67128 0.76262 0.69738 0.0
C1260 C 0.68941 0.77241 0.76271 0.0
C1261 C 0.67864 0.76499 0.79852 0.0
C1262 C 0.66421 0.75589 0.78316 0.0
C1263 C 0.66055 0.75472 0.73298 0.0
H1264 H 0.23424 0.92727 0.91911 0.0
H1265 H 0.26908 0.91992 0.96301 0.0
H1266 H 0.23953 0.92557 0.83232 0.0
H1267 H 0.27482 0.91887 0.87647 0.0
H1268 H 0.26672 0.89731 0.7234 0.0
H1269 H 0.26459 0.90232 0.81008 0.0
H1270 H 0.25595 0.93633 0.76575 0.0
H1271 H 0.25746 0.93086 0.67923 0.0
C1272 C 0.24321 0.92559 0.91012 0.0
C1273 C 0.25112 0.92353 0.94765 0.0
C1274 C 0.24631 0.92468 0.86042 0.0
C1275 C 0.25753 0.92194 0.84741 0.0
C1276 C 0.26589 0.92063 0.88516 0.0
C1277 C 0.26264 0.92131 0.93474 0.0
C1278 C 0.26452 0.90594 0.73229 0.0
C1279 C 0.26208 0.91357 0.69467 0.0
C1280 C 0.26336 0.90889 0.78195 0.0
C1281 C 0.25998 0.91967 0.79489 0.0
C1282 C 0.25823 0.92774 0.7571 0.0
C1283 C 0.25917 0.92465 0.70754 0.0
H1284 H 0.35771 0.11606 0.01935 0.0
H1285 H 0.31708 0.07645 0.04511 0.0
H1286 H 0.3645 0.11625 0.10505 0.0
H1287 H 0.32415 0.07643 0.13119 0.0
H1288 H 0.33272 0.09585 0.2893 0.0
H1289 H 0.32656 0.09081 0.20261 0.0
H1290 H 0.37134 0.10486 0.16806 0.0
H1291 H 0.3777 0.11042 0.25539 0.0
C1292 C 0.35029 0.10726 0.04314 0.0
C1293 C 0.33676 0.09633 0.02554 0.0
C1294 C 0.35428 0.10729 0.09227 0.0
C1295 C 0.34489 0.09635 0.12494 0.0
C1296 C 0.33155 0.08512 0.107 0.0
C1297 C 0.32749 0.08514 0.05777 0.0
C1298 C 0.34129 0.09779 0.26346 0.0
C1299 C 0.35578 0.10383 0.27923 0.0
C1300 C 0.33769 0.09472 0.21365 0.0
C1301 C 0.34847 0.09753 0.17838 0.0
C1302 C 0.36284 0.10282 0.19437 0.0
C1303 C 0.36647 0.10596 0.24437 0.0
H1304 H 0.92137 0.23689 0.2978 0.0
H1305 H 0.90863 0.26843 0.25961 0.0
H1306 H 0.92645 0.23507 0.21136 0.0
H1307 H 0.91411 0.26682 0.1729 0.0
H1308 H 0.90395 0.243 0.02415 0.0
H1309 H 0.90239 0.24805 0.11059 0.0
H1310 H 0.94205 0.24759 0.14072 0.0
H1311 H 0.9435 0.24217 0.05348 0.0
C1312 C 0.91979 0.24356 0.27107 0.0
C1313 C 0.91435 0.25264 0.28556 0.0
C1314 C 0.92286 0.24261 0.22153 0.0
C1315 C 0.92059 0.25073 0.18537 0.0
C1316 C 0.91574 0.26026 0.19999 0.0
C1317 C 0.91263 0.2612 0.24963 0.0
C1318 C 0.91242 0.24404 0.04897 0.0
C1319 C 0.92385 0.24216 0.03191 0.0
C1320 C 0.91157 0.24707 0.09853 0.0
C1321 C 0.92217 0.24836 0.13231 0.0
C1322 C 0.93367 0.24656 0.11544 0.0
C1323 C 0.9345 0.24345 0.06561 0.0
H1324 H 0.75086 0.64648 0.26388 0.0
H1325 H 0.79113 0.68632 0.29154 0.0
H1326 H 0.75179 0.65356 0.17719 0.0
H1327 H 0.79218 0.69315 0.20541 0.0
H1328 H 0.78572 0.70766 0.05741 0.0
H1329 H 0.78056 0.70067 0.14436 0.0
H1330 H 0.76659 0.65622 0.10526 0.0
H1331 H 0.77132 0.66302 0.01875 0.0
C1332 C 0.75992 0.65668 0.25146 0.0
C1333 C 0.77093 0.66581 0.28451 0.0
C1334 C 0.76044 0.66074 0.20193 0.0
C1335 C 0.77201 0.67396 0.18464 0.0
C1336 C 0.78296 0.68306 0.21781 0.0
C1337 C 0.78241 0.67906 0.26715 0.0
C1338 C 0.7814 0.69638 0.06732 0.0
C1339 C 0.77915 0.68596 0.03119 0.0
C1340 C 0.77849 0.69238 0.1171 0.0
C1341 C 0.7733 0.67792 0.13161 0.0
C1342 C 0.77045 0.66742 0.09524 0.0
C1343 C 0.77332 0.67138 0.04561 0.0
H1344 H 0.90563 0.6636 0.02031 0.0
H1345 H 0.9446 0.70448 0.04996 0.0
H1346 H 0.90441 0.65683 0.10655 0.0
H1347 H 0.94357 0.69745 0.13669 0.0
H1348 H 0.92293 0.68814 0.29271 0.0
H1349 H 0.92825 0.69455 0.20622 0.0
H1350 H 0.91554 0.65013 0.17112 0.0
H1351 H 0.90974 0.64352 0.25816 0.0
C1352 C 0.91407 0.67108 0.04512 0.0
C1353 C 0.92516 0.68465 0.02835 0.0
C1354 C 0.91344 0.66712 0.09457 0.0
C1355 C 0.92392 0.67657 0.12843 0.0
C1356 C 0.93524 0.69 0.11151 0.0
C1357 C 0.93582 0.69404 0.06192 0.0
C1358 C 0.92133 0.6797 0.26677 0.0
C1359 C 0.91566 0.66524 0.28232 0.0
C1360 C 0.92455 0.68344 0.21712 0.0
C1361 C 0.92225 0.67284 0.18178 0.0
C1362 C 0.9172 0.65849 0.19749 0.0
C1363 C 0.91392 0.65471 0.24733 0.0
H1364 H 0.31599 0.23255 0.06573 0.0
H1365 H 0.35803 0.26769 0.02197 0.0
H1366 H 0.32296 0.2378 0.15246 0.0
H1367 H 0.36482 0.27342 0.10865 0.0
H1368 H 0.37868 0.26351 0.25874 0.0
H1369 H 0.37138 0.26272 0.17278 0.0
H1370 H 0.32884 0.2535 0.22105 0.0
H1371 H 0.33598 0.25366 0.30677 0.0
C1372 C 0.32658 0.24164 0.07475 0.0
C1373 C 0.33655 0.24957 0.03726 0.0
C1374 C 0.33058 0.24472 0.12447 0.0
C1375 C 0.34455 0.25593 0.13757 0.0
C1376 C 0.35413 0.26447 0.09988 0.0
C1377 C 0.35021 0.26125 0.05025 0.0
C1378 C 0.36784 0.26148 0.25092 0.0
C1379 C 0.35784 0.25844 0.28933 0.0
C1380 C 0.36365 0.26112 0.20165 0.0
C1381 C 0.34946 0.25793 0.18993 0.0
C1382 C 0.33973 0.25566 0.22867 0.0
C1383 C 0.34385 0.25581 0.2778 0.0
H1384 H 0.79509 0.09044 0.06179 0.0
H1385 H 0.76345 0.10195 0.01352 0.0
H1386 H 0.78895 0.09184 0.14778 0.0
H1387 H 0.75678 0.10267 0.0992 0.0
H1388 H 0.76385 0.12234 0.25563 0.0
H1389 H 0.76644 0.11782 0.16874 0.0
H1390 H 0.77162 0.08147 0.2112 0.0
H1391 H 0.76975 0.0865 0.29795 0.0
C1392 C 0.78663 0.093 0.06961 0.0
C1393 C 0.77989 0.09627 0.03111 0.0
C1394 C 0.78303 0.09372 0.11887 0.0
C1395 C 0.77241 0.09747 0.13053 0.0
C1396 C 0.76523 0.10009 0.0917 0.0
C1397 C 0.76901 0.09961 0.04258 0.0
C1398 C 0.76536 0.11329 0.24619 0.0
C1399 C 0.7668 0.1049 0.28338 0.0
C1400 C 0.76679 0.11064 0.1964 0.0
C1401 C 0.76942 0.09937 0.18291 0.0
C1402 C 0.77 0.09048 0.22024 0.0
C1403 C 0.76883 0.09329 0.26993 0.0
H1404 H 0.69108 0.92742 0.68561 0.0
H1405 H 0.64818 0.89483 0.73288 0.0
H1406 H 0.69815 0.93427 0.77144 0.0
H1407 H 0.65541 0.90114 0.81904 0.0
H1408 H 0.66873 0.92029 0.9697 0.0
H1409 H 0.66186 0.91833 0.88286 0.0
H1410 H 0.7039 0.92476 0.84071 0.0
H1411 H 0.71096 0.92742 0.92756 0.0
C1412 C 0.68317 0.9217 0.71449 0.0
C1413 C 0.66913 0.91049 0.70274 0.0
C1414 C 0.68724 0.92558 0.76369 0.0
C1415 C 0.67743 0.91816 0.80227 0.0
C1416 C 0.66321 0.90724 0.79031 0.0
C1417 C 0.65906 0.90354 0.74096 0.0
C1418 C 0.67655 0.92146 0.94174 0.0
C1419 C 0.69033 0.92387 0.95526 0.0
C1420 C 0.67258 0.92025 0.892 0.0
C1421 C 0.68223 0.92117 0.85473 0.0
C1422 C 0.69624 0.92416 0.86832 0.0
C1423 C 0.70029 0.92562 0.91811 0.0
H1424 H 0.11516 0.74733 0.72202 0.0
H1425 H 0.11511 0.7873 0.69352 0.0
H1426 H 0.10872 0.74817 0.80839 0.0
H1427 H 0.10906 0.78828 0.77938 0.0
H1428 H 0.08789 0.78163 0.92767 0.0
H1429 H 0.09002 0.77673 0.84061 0.0
H1430 H 0.12059 0.76292 0.88028 0.0
H1431 H 0.11822 0.76738 0.96674 0.0
C1432 C 0.11384 0.75631 0.73416 0.0
C1433 C 0.1157 0.76727 0.70094 0.0
C1434 C 0.11014 0.75678 0.78355 0.0
C1435 C 0.10831 0.76826 0.80059 0.0
C1436 C 0.11008 0.77913 0.76722 0.0
C1437 C 0.11369 0.77862 0.71801 0.0
C1438 C 0.09494 0.7774 0.91783 0.0
C1439 C 0.10302 0.77509 0.95415 0.0
C1440 C 0.0962 0.77465 0.86798 0.0
C1441 C 0.10556 0.76954 0.8536 0.0
C1442 C 0.11317 0.7667 0.89014 0.0
C1443 C 0.11191 0.76941 0.93979 0.0
H1444 H 0.24164 0.31069 0.92663 0.0
H1445 H 0.25264 0.35459 0.96377 0.0
H1446 H 0.24712 0.31778 0.83989 0.0
H1447 H 0.25772 0.36147 0.87736 0.0
H1448 H 0.27516 0.37201 0.72051 0.0
H1449 H 0.27374 0.36515 0.80771 0.0
H1450 H 0.23517 0.32414 0.77645 0.0
H1451 H 0.2367 0.33075 0.69002 0.0
C1452 C 0.24524 0.32183 0.91641 0.0
C1453 C 0.2465 0.33201 0.95207 0.0
C1454 C 0.24836 0.32588 0.86676 0.0
C1455 C 0.25276 0.34016 0.85187 0.0
C1456 C 0.25451 0.35043 0.88775 0.0
C1457 C 0.25144 0.34641 0.93729 0.0
C1458 C 0.26641 0.36153 0.73236 0.0
C1459 C 0.25604 0.35195 0.69835 0.0
C1460 C 0.2656 0.3576 0.78218 0.0
C1461 C 0.25439 0.34407 0.79876 0.0
C1462 C 0.24412 0.33451 0.76465 0.0
C1463 C 0.24494 0.33838 0.71508 0.0
H1464 H 0.04391 0.44158 0.60112 0.0
H1465 H 1.00447 0.44306 0.6246 0.0
H1466 H 0.03672 0.4343 0.51515 0.0
H1467 H 0.99757 0.43624 0.53909 0.0
H1468 H 0.98297 0.41507 0.39249 0.0
H1469 H 0.9897 0.41686 0.47973 0.0
H1470 H 0.03463 0.44569 0.44117 0.0
H1471 H 0.02808 0.44358 0.3545 0.0
C1472 C 0.03376 0.44042 0.58792 0.0
C1473 C 0.0248 0.44296 0.61957 0.0
C1474 C 0.02964 0.43622 0.53879 0.0
C1475 C 0.01653 0.43461 0.52043 0.0
C1476 C 1.00755 0.43704 0.55231 0.0
C1477 C 1.01161 0.44112 0.6013 0.0
C1478 C 0.9943 0.42161 0.4026 0.0
C1479 C 1.00493 0.42939 0.36659 0.0
C1480 C 0.99815 0.42268 0.45256 0.0
C1481 C 1.01268 0.43157 0.46736 0.0
C1482 C 0.02337 0.43867 0.43105 0.0
C1483 C 0.01955 0.43756 0.38126 0.0
H1484 H 0.57338 0.58191 0.35608 0.0
H1485 H 0.60455 0.56868 0.39441 0.0
H1486 H 0.5712 0.58653 0.44255 0.0
H1487 H 0.60256 0.5737 0.48149 0.0
H1488 H 0.57823 0.56386 0.63041 0.0
H1489 H 0.58385 0.56234 0.54442 0.0
H1490 H 0.58365 0.60203 0.51271 0.0
H1491 H 0.57765 0.60344 0.59915 0.0
C1492 C 0.57988 0.58009 0.38288 0.0
C1493 C 0.58901 0.57472 0.36829 0.0
C1494 C 0.57873 0.58291 0.43251 0.0
C1495 C 0.58668 0.58045 0.46882 0.0
C1496 C 0.59616 0.57551 0.45427 0.0
C1497 C 0.59732 0.57267 0.40443 0.0
C1498 C 0.57944 0.57234 0.6053 0.0
C1499 C 0.57738 0.58373 0.62163 0.0
C1500 C 0.58281 0.57152 0.55602 0.0
C1501 C 0.58426 0.58209 0.52185 0.0
C1502 C 0.58245 0.59364 0.53819 0.0
C1503 C 0.57901 0.59444 0.58763 0.0
H1504 H 0.42171 0.97714 0.59707 0.0
H1505 H 0.45046 0.02216 0.63561 0.0
H1506 H 0.42408 0.98391 0.50964 0.0
H1507 H 0.45309 0.02874 0.54894 0.0
H1508 H 0.44792 0.03825 0.39019 0.0
H1509 H 0.44116 0.03086 0.4762 0.0
H1510 H 0.44349 0.99204 0.44937 0.0
H1511 H 0.44985 0.99917 0.36362 0.0
C1512 C 0.42845 0.98845 0.58703 0.0
C1513 C 0.43603 0.99906 0.62332 0.0
C1514 C 0.42986 0.99232 0.537 0.0
C1515 C 0.43885 1.00685 0.52245 0.0
C1516 C 0.44595 0.01749 0.55891 0.0
C1517 C 0.44454 0.01365 0.60871 0.0
C1518 C 0.44698 0.02815 0.40272 0.0
C1519 C 0.4495 0.01935 0.37016 0.0
C1520 C 0.44309 0.0239 0.4519 0.0
C1521 C 0.44174 0.01084 0.46946 0.0
C1522 C 0.44414 1.00202 0.43675 0.0
C1523 C 0.44794 1.0062 0.38765 0.0
H1524 H 0.57556 0.97738 0.59084 0.0
H1525 H 0.5911 0.02218 0.63041 0.0
H1526 H 0.58081 0.98445 0.50398 0.0
H1527 H 0.5959 0.02908 0.54398 0.0
H1528 H 0.61121 0.03865 0.38455 0.0
H1529 H 0.61031 0.03153 0.47127 0.0
H1530 H 0.56945 0.99239 0.44373 0.0
H1531 H 0.57047 0.99924 0.35771 0.0
C1532 C 0.58015 0.98871 0.58114 0.0
C1533 C 0.58267 0.99915 0.6175 0.0
C1534 C 0.58311 0.99276 0.53141 0.0
C1535 C 0.58861 1.0073 0.51715 0.0
C1536 C 0.59177 0.01781 0.55377 0.0
C1537 C 0.58886 0.0138 0.60336 0.0
C1538 C 0.60205 0.02854 0.39716 0.0
C1539 C 0.59092 0.01953 0.36431 0.0
C1540 C 0.60155 0.02445 0.44669 0.0
C1541 C 0.58986 0.01133 0.46416 0.0
C1542 C 0.57877 1.00238 0.4312 0.0
C1543 C 0.57931 1.0064 0.3819 0.0
H1544 H 0.98267 0.56566 0.39277 0.0
H1545 H 0.02612 0.59652 0.34443 0.0
H1546 H 0.99004 0.57236 0.47852 0.0
H1547 H 0.03336 0.60371 0.42995 0.0
H1548 H 0.04491 0.59577 0.58763 0.0
H1549 H 0.03827 0.59373 0.50044 0.0
H1550 H 0.9973 0.59027 0.54068 0.0
H1551 H 1.00372 0.59163 0.62786 0.0
C1552 C 0.99372 0.57407 0.40046 0.0
C1553 C 1.00386 0.58041 0.36206 0.0
C1554 C 0.99794 0.578 0.44959 0.0
C1555 C 1.01234 0.58853 0.46119 0.0
C1556 C 0.02228 0.59535 0.42243 0.0
C1557 C 0.01812 0.59126 0.37342 0.0
C1558 C 0.0346 0.5948 0.57768 0.0
C1559 C 0.02473 0.59362 0.61434 0.0
C1560 C 0.03079 0.59369 0.52771 0.0
C1561 C 0.01714 0.59162 0.51357 0.0
C1562 C 1.00772 0.59145 0.55034 0.0
C1563 C 1.01143 0.59232 0.60023 0.0
H1564 H 0.43499 0.44339 0.35323 0.0
H1565 H 0.45366 0.4168 0.39278 0.0
H1566 H 0.4307 0.44578 0.43979 0.0
H1567 H 0.44891 0.41889 0.48002 0.0
H1568 H 0.45822 0.44437 0.62534 0.0
H1569 H 0.45938 0.43845 0.53944 0.0
H1570 H 0.41715 0.43371 0.51317 0.0
H1571 H 0.41613 0.44006 0.59955 0.0
C1572 C 0.43804 0.4379 0.38033 0.0
C1573 C 0.44492 0.43009 0.36606 0.0
C1574 C 0.43542 0.43916 0.43005 0.0
C1575 C 0.43954 0.43261 0.46674 0.0
C1576 C 0.44583 0.42426 0.45249 0.0
C1577 C 0.44851 0.42302 0.40257 0.0
C1578 C 0.44913 0.44203 0.60138 0.0
C1579 C 0.43709 0.44273 0.61916 0.0
C1580 C 0.44975 0.43848 0.5522 0.0
C1581 C 0.43831 0.43547 0.51965 0.0
C1582 C 0.42619 0.43609 0.53737 0.0
C1583 C 0.42561 0.43976 0.58671 0.0
H1584 H 0.09347 0.30679 0.25423 0.0
H1585 H 0.09961 0.34565 0.18194 0.0
H1586 H 0.10154 0.32006 0.33258 0.0
H1587 H 0.10688 0.35867 0.25985 0.0
H1588 H 0.13121 0.38244 0.39791 0.0
H1589 H 0.12532 0.36924 0.31922 0.0
H1590 H 0.09396 0.33009 0.3946 0.0
H1591 H 0.1004 0.34304 0.4726 0.0
C1592 C 0.09638 0.3181 0.25533 0.0
C1593 C 0.09592 0.32519 0.21224 0.0
C1594 C 0.10097 0.32572 0.3001 0.0
C1595 C 0.10491 0.3405 0.30265 0.0
C1596 C 0.10428 0.34745 0.2593 0.0
C1597 C 0.09995 0.33992 0.21465 0.0
C1598 C 0.12309 0.37102 0.39732 0.0
C1599 C 0.11628 0.36376 0.44116 0.0
C1600 C 0.11966 0.36344 0.35236 0.0
C1601 C 0.10916 0.34853 0.35046 0.0
C1602 C 0.10232 0.34142 0.39458 0.0
C1603 C 0.10592 0.34891 0.43934 0.0
H1604 H 0.64378 0.74405 0.39273 0.0
H1605 H 0.68342 0.77272 0.47094 0.0
H1606 H 0.65698 0.75171 0.31413 0.0
H1607 H 0.69631 0.78084 0.3933 0.0
H1608 H 0.71878 0.78031 0.25004 0.0
H1609 H 0.70567 0.77297 0.32873 0.0
H1610 H 0.66844 0.77168 0.25898 0.0
H1611 H 0.68124 0.7783 0.18062 0.0
C1612 C 0.65523 0.7521 0.39307 0.0
C1613 C 0.66254 0.75776 0.43792 0.0
C1614 C 0.6628 0.75655 0.34816 0.0
C1615 C 0.67775 0.76687 0.34743 0.0
C1616 C 0.68491 0.77268 0.39243 0.0
C1617 C 0.67743 0.7681 0.43705 0.0
C1618 C 0.70785 0.77857 0.25186 0.0
C1619 C 0.70103 0.77983 0.20929 0.0
C1620 C 0.70032 0.77438 0.29685 0.0
C1621 C 0.68592 0.7716 0.30008 0.0
C1622 C 0.67935 0.77337 0.25764 0.0
C1623 C 0.68678 0.77733 0.21275 0.0
H1624 H 0.26194 0.92169 0.17527 0.0
H1625 H 0.23142 0.93069 0.24995 0.0
H1626 H 0.26805 0.91481 0.25325 0.0
H1627 H 0.23701 0.92307 0.32848 0.0
H1628 H 0.26303 0.92562 0.46535 0.0
H1629 H 0.25568 0.93115 0.38723 0.0
H1630 H 0.26028 0.89726 0.31604 0.0
H1631 H 0.26841 0.89223 0.39462 0.0
C1632 C 0.2564 0.92204 0.20848 0.0
C1633 C 0.24626 0.92681 0.20671 0.0
C1634 C 0.25981 0.91794 0.25321 0.0
C1635 C 0.25302 0.91832 0.2973 0.0
C1636 C 0.24265 0.92287 0.29536 0.0
C1637 C 0.23938 0.92719 0.25047 0.0
C1638 C 0.26249 0.91935 0.43296 0.0
C1639 C 0.26635 0.90853 0.43585 0.0
C1640 C 0.25812 0.92243 0.3882 0.0
C1641 C 0.25726 0.91461 0.34523 0.0
C1642 C 0.26102 0.90365 0.34824 0.0
C1643 C 0.26564 0.90073 0.39314 0.0
H1644 H 0.34384 0.10684 0.50531 0.0
H1645 H 0.38257 0.11483 0.5836 0.0
H1646 H 0.33073 0.10171 0.58294 0.0
H1647 H 0.36922 0.10905 0.66176 0.0
H1648 H 0.34567 0.11034 0.79738 0.0
H1649 H 0.35836 0.11753 0.71905 0.0
H1650 H 0.32048 0.08356 0.64524 0.0
H1651 H 0.30746 0.07677 0.72429 0.0
C1652 C 0.34958 0.10751 0.53923 0.0
C1653 C 0.36426 0.11126 0.53843 0.0
C1654 C 0.34198 0.10442 0.58376 0.0
C1655 C 0.34884 0.10484 0.62863 0.0
C1656 C 0.36363 0.10881 0.62792 0.0
C1657 C 0.37129 0.11208 0.58322 0.0
C1658 C 0.33994 0.10448 0.76445 0.0
C1659 C 0.32555 0.09295 0.76698 0.0
C1660 C 0.34731 0.10854 0.71948 0.0
C1661 C 0.34056 0.10101 0.67587 0.0
C1662 C 0.32599 0.08969 0.67809 0.0
C1663 C 0.31851 0.08575 0.72328 0.0
H1664 H 0.94611 0.23796 0.72763 0.0
H1665 H 0.91663 0.24787 0.80537 0.0
H1666 H 0.93889 0.24403 0.64916 0.0
H1667 H 0.90898 0.25322 0.72768 0.0
H1668 H 0.90967 0.27655 0.58473 0.0
H1669 H 0.91694 0.27077 0.66362 0.0
H1670 H 0.91904 0.23535 0.59338 0.0
H1671 H 0.91247 0.24151 0.51498 0.0
C1672 C 0.938 0.24127 0.72788 0.0
C1673 C 0.93194 0.24241 0.77256 0.0
C1674 C 0.9338 0.24468 0.68303 0.0
C1675 C 0.92335 0.24914 0.68214 0.0
C1676 C 0.91723 0.2501 0.72697 0.0
C1677 C 0.92154 0.24687 0.77158 0.0
C1678 C 0.91158 0.26748 0.58649 0.0
C1679 C 0.91054 0.25953 0.54378 0.0
C1680 C 0.91573 0.26413 0.63157 0.0
C1681 C 0.91872 0.25265 0.63472 0.0
C1682 C 0.9172 0.24447 0.59212 0.0
C1683 C 0.91326 0.24792 0.54719 0.0
H1684 H 0.78096 0.67594 0.80249 0.0
H1685 H 0.78565 0.71429 0.73042 0.0
H1686 H 0.7746 0.66312 0.72416 0.0
H1687 H 0.77862 0.70119 0.65162 0.0
H1688 H 0.77896 0.67825 0.51127 0.0
H1689 H 0.78655 0.69113 0.5892 0.0
H1690 H 0.75519 0.65242 0.66642 0.0
H1691 H 0.74801 0.63923 0.58775 0.0
C1692 C 0.78064 0.68165 0.76979 0.0
C1693 C 0.78383 0.69614 0.77253 0.0
C1694 C 0.77683 0.67422 0.72488 0.0
C1695 C 0.77592 0.68103 0.68162 0.0
C1696 C 0.77936 0.69565 0.68417 0.0
C1697 C 0.78337 0.70317 0.72922 0.0
C1698 C 0.77372 0.6724 0.54483 0.0
C1699 C 0.7629 0.65768 0.54341 0.0
C1700 C 0.778 0.67988 0.58958 0.0
C1701 C 0.77143 0.67289 0.63412 0.0
C1702 C 0.76062 0.6581 0.63282 0.0
C1703 C 0.75644 0.65054 0.58783 0.0
H1704 H 0.92533 0.6779 0.50845 0.0
H1705 H 0.89726 0.63784 0.58525 0.0
H1706 H 0.93181 0.69094 0.58625 0.0
H1707 H 0.90318 0.65108 0.66377 0.0
H1708 H 0.93004 0.67523 0.7979 0.0
H1709 H 0.9224 0.66238 0.71979 0.0
H1710 H 0.92447 0.70018 0.65167 0.0
H1711 H 0.93293 0.71333 0.7302 0.0
C1712 C 0.92038 0.67189 0.5421 0.0
C1713 C 0.91085 0.65681 0.54091 0.0
C1714 C 0.92401 0.67943 0.58679 0.0
C1715 C 0.91805 0.67213 0.6315 0.0
C1716 C 0.90821 0.65704 0.63015 0.0
C1717 C 0.90474 0.64943 0.58526 0.0
C1718 C 0.92891 0.68082 0.76614 0.0
C1719 C 0.93212 0.69528 0.76987 0.0
C1720 C 0.92436 0.67338 0.7214 0.0
C1721 C 0.92264 0.68013 0.67933 0.0
C1722 C 0.92585 0.69467 0.68313 0.0
C1723 C 0.93068 0.70223 0.72798 0.0
H1724 H 0.35059 0.25567 0.80841 0.0
H1725 H 0.31098 0.22444 0.73571 0.0
H1726 H 0.36351 0.26103 0.73034 0.0
H1727 H 0.32411 0.2292 0.65733 0.0
H1728 H 0.34678 0.25475 0.51875 0.0
H1729 H 0.33418 0.24731 0.59718 0.0
H1730 H 0.3734 0.25345 0.66755 0.0
H1731 H 0.38628 0.26169 0.58848 0.0
C1732 C 0.34468 0.24978 0.77569 0.0
C1733 C 0.32974 0.23973 0.77797 0.0
C1734 C 0.35215 0.25276 0.73089 0.0
C1735 C 0.34491 0.2456 0.68727 0.0
C1736 C 0.33 0.23516 0.68995 0.0
C1737 C 0.32246 0.23236 0.73481 0.0
C1738 C 0.35274 0.2545 0.55094 0.0
C1739 C 0.36755 0.25887 0.54762 0.0
C1740 C 0.34544 0.25007 0.59597 0.0
C1741 C 0.35269 0.24966 0.6389 0.0
C1742 C 0.36751 0.25383 0.63542 0.0
C1743 C 0.3749 0.25851 0.5902 0.0
H1744 H 0.78722 0.07613 0.73002 0.0
H1745 H 0.78308 0.11 0.80284 0.0
H1746 H 0.7804 0.08247 0.65139 0.0
H1747 H 0.77697 0.11678 0.72459 0.0
H1748 H 0.75018 0.11433 0.58894 0.0
H1749 H 0.75769 0.10857 0.66729 0.0
H1750 H 0.78809 0.10014 0.58843 0.0
H1751 H 0.7801 0.10517 0.51072 0.0
C1752 C 0.78511 0.08508 0.72902 0.0
C1753 C 0.78563 0.09251 0.77252 0.0
C1754 C 0.78123 0.08876 0.68401 0.0
C1755 C 0.77801 0.10009 0.68164 0.0
C1756 C 0.77902 0.10779 0.7251 0.0
C1757 C 0.78268 0.10398 0.76999 0.0
C1758 C 0.75849 0.11129 0.58858 0.0
C1759 C 0.76451 0.11017 0.54374 0.0
C1760 C 0.76287 0.10805 0.63342 0.0
C1761 C 0.77348 0.10381 0.63424 0.0
C1762 C 0.77968 0.10304 0.58927 0.0
C1763 C 0.77518 0.10608 0.54462 0.0
H1764 H 0.67883 0.92421 0.18687 0.0
H1765 H 0.71734 0.92808 0.25479 0.0
H1766 H 0.66594 0.91615 0.26487 0.0
H1767 H 0.70418 0.91919 0.333 0.0
H1768 H 0.6819 0.91959 0.47644 0.0
H1769 H 0.6948 0.92625 0.39837 0.0
H1770 H 0.65498 0.89709 0.32154 0.0
H1771 H 0.64187 0.89102 0.40034 0.0
C1772 C 0.6845 0.92319 0.2186 0.0
C1773 C 0.69911 0.92684 0.215 0.0
C1774 C 0.67704 0.9184 0.26328 0.0
C1775 C 0.68393 0.91689 0.3054 0.0
C1776 C 0.69857 0.92043 0.30158 0.0
C1777 C 0.70613 0.92549 0.25685 0.0
C1778 C 0.67588 0.91456 0.44288 0.0
C1779 C 0.66085 0.90484 0.44436 0.0
C1780 C 0.68334 0.91829 0.39802 0.0
C1781 C 0.676 0.91223 0.3534 0.0
C1782 C 0.66096 0.9022 0.35504 0.0
C1783 C 0.65343 0.89864 0.40011 0.0
H1784 H 0.11297 0.77627 0.4733 0.0
H1785 H 0.11943 0.74407 0.39842 0.0
H1786 H 0.10681 0.78311 0.39542 0.0
H1787 H 0.11257 0.7505 0.31997 0.0
H1788 H 0.11355 0.77485 0.1818 0.0
H1789 H 0.12069 0.7691 0.25979 0.0
H1790 H 0.08811 0.77488 0.33539 0.0
H1791 H 0.08138 0.78135 0.25669 0.0
C1792 C 0.11306 0.77061 0.44009 0.0
C1793 C 0.11675 0.75964 0.44194 0.0
C1794 C 0.10935 0.77445 0.3954 0.0
C1795 C 0.10906 0.76731 0.35138 0.0
C1796 C 0.11286 0.75638 0.35311 0.0
C1797 C 0.11675 0.75264 0.39798 0.0
C1798 C 0.10796 0.77504 0.21504 0.0
C1799 C 0.0969 0.7786 0.21312 0.0
C1800 C 0.11197 0.77157 0.25982 0.0
C1801 C 0.1049 0.77135 0.30391 0.0
C1802 C 0.09391 0.77508 0.30218 0.0
C1803 C 0.09001 0.77876 0.25717 0.0
H1804 H 0.24592 0.34171 0.1808 0.0
H1805 H 0.24193 0.3035 0.25179 0.0
H1806 H 0.25235 0.35445 0.25911 0.0
H1807 H 0.24907 0.31658 0.33069 0.0
H1808 H 0.24837 0.33938 0.47145 0.0
H1809 H 0.24102 0.3264 0.39364 0.0
H1810 H 0.27185 0.36534 0.31619 0.0
H1811 H 0.27876 0.37861 0.39471 0.0
C1812 C 0.24642 0.336 0.21325 0.0
C1813 C 0.2434 0.32157 0.21021 0.0
C1814 C 0.25028 0.34341 0.25816 0.0
C1815 C 0.25142 0.33664 0.30114 0.0
C1816 C 0.24817 0.32208 0.29833 0.0
C1817 C 0.2441 0.31458 0.25324 0.0
C1818 C 0.25354 0.34525 0.43785 0.0
C1819 C 0.26411 0.36007 0.43913 0.0
C1820 C 0.24941 0.33773 0.39319 0.0
C1821 C 0.25588 0.34476 0.34863 0.0
C1822 C 0.26649 0.35962 0.34982 0.0
C1823 C 0.27051 0.36723 0.39471 0.0
H1824 H 1.01365 0.44322 0.84731 0.0
H1825 H 0.05244 0.45025 0.9228 0.0
H1826 H 1.00073 0.43754 0.92528 0.0
H1827 H 0.03923 0.44387 0.00144 0.0
H1828 H 0.0155 0.44423 0.13942 0.0
H1829 H 0.02845 0.45181 0.06143 0.0
H1830 H 0.99046 0.41883 0.98515 0.0
H1831 H 0.97723 0.41166 0.06367 0.0
C1832 C 0.01945 0.44356 0.88068 0.0
C1833 C 0.03409 0.4472 0.87894 0.0
C1834 C 1.01195 0.44014 0.92544 0.0
C1835 C 0.01885 0.44008 0.96966 0.0
C1836 C 0.03361 0.44396 0.96812 0.0
C1837 C 0.04119 0.44758 0.92314 0.0
C1838 C 1.00983 0.43867 0.10598 0.0
C1839 C 0.99533 0.42733 0.10761 0.0
C1840 C 0.01734 0.44294 0.06124 0.0
C1841 C 1.01059 0.43586 0.017 0.0
C1842 C 0.99596 0.42466 0.01847 0.0
C1843 C 0.98836 0.4205 0.06338 0.0
H1844 H 0.58066 0.57844 0.14154 0.0
H1845 H 0.61199 0.57084 0.0657 0.0
H1846 H 0.57341 0.58413 0.06352 0.0
H1847 H 0.60512 0.57717 0.98703 0.0
H1848 H 0.57945 0.57499 0.85036 0.0
H1849 H 0.58583 0.56854 0.92863 0.0
H1850 H 0.58157 0.60239 0.00151 0.0
H1851 H 0.57454 0.60849 0.9227 0.0
C1852 C 0.58605 0.57801 0.1081 0.0
C1853 C 0.59688 0.57414 0.10973 0.0
C1854 C 0.58197 0.58144 0.06332 0.0
C1855 C 0.58873 0.58123 0.01895 0.0
C1856 C 0.59955 0.57727 0.02048 0.0
C1857 C 0.60354 0.57369 0.06547 0.0
C1858 C 0.57974 0.58101 0.8831 0.0
C1859 C 0.57646 0.59225 0.88041 0.0
C1860 C 0.58357 0.57739 0.92798 0.0
C1861 C 0.58438 0.58501 0.97136 0.0
C1862 C 0.58091 0.59617 0.96886 0.0
C1863 C 0.57691 0.59971 0.92379 0.0
H1864 H 0.44822 1.00828 0.14158 0.0
H1865 H 0.45162 0.04609 0.06945 0.0
H1866 H 0.44178 0.99532 0.06349 0.0
H1867 H 0.44451 0.03284 0.99099 0.0
H1868 H 0.44549 0.01045 0.85064 0.0
H1869 H 0.4529 0.02327 0.92862 0.0
H1870 H 0.4224 0.98411 0.00573 0.0
H1871 H 0.41543 0.97098 0.92686 0.0
C1872 C 0.44758 0.01385 0.10892 0.0
C1873 C 0.45047 0.02824 0.11155 0.0
C1874 C 0.44372 1.00633 0.06418 0.0
C1875 C 0.44249 0.01295 0.02097 0.0
C1876 C 0.44553 0.02745 0.02347 0.0
C1877 C 0.44957 0.03506 0.06834 0.0
C1878 C 0.44042 1.00448 0.88416 0.0
C1879 C 0.42988 0.98966 0.88262 0.0
C1880 C 0.44458 0.01192 0.92897 0.0
C1881 C 0.43817 1.0048 0.97348 0.0
C1882 C 0.42768 0.9899 0.97212 0.0
C1883 C 0.42363 0.98237 0.92704 0.0
H1884 H 0.57597 0.97094 0.91832 0.0
H1885 H 0.58008 1.00901 0.84592 0.0
H1886 H 0.58289 0.98411 -0.003 0.0
H1887 H 0.58631 0.02188 0.92412 0.0
H1888 H 0.61286 0.04617 0.06003 0.0
H1889 H 0.60571 0.03289 0.98155 0.0
H1890 H 0.57493 0.99404 0.05953 0.0
H1891 H 0.58252 1.00703 0.13725 0.0
C1892 C 0.5781 0.98201 0.91942 0.0
C1893 C 0.57753 0.98894 0.87604 0.0
C1894 C 0.58205 0.98957 0.96441 0.0
C1895 C 0.58529 1.00414 0.96683 0.0
C1896 C 0.58425 0.01084 0.92351 0.0
C1897 C 0.58051 1.00337 0.87867 0.0
C1898 C 0.60456 0.03481 0.06015 0.0
C1899 C 0.59828 0.02767 0.10473 0.0
C1900 C 0.6004 0.02719 0.01527 0.0
C1901 C 0.58975 0.01234 0.01422 0.0
C1902 C 0.58335 1.00535 0.05892 0.0
C1903 C 0.58762 0.01289 0.10357 0.0
H1904 H 1.0109 0.5772 0.84135 0.0
H1905 H 0.0501 0.60633 0.92067 0.0
H1906 H 0.9978 0.56888 0.91894 0.0
H1907 H 0.03679 0.59854 -0.00123 0.0
H1908 H 0.97509 0.57022 0.06182 0.0
H1909 H 0.98802 0.57652 0.9827 0.0
H1910 H 0.02554 0.57916 0.05503 0.0
H1911 H 1.01294 0.57364 0.13364 0.0
C1912 C 0.01673 0.58186 0.87547 0.0
C1913 C 0.03154 0.59242 0.875 0.0
C1914 C 1.00916 0.57717 0.92002 0.0
C1915 C 0.01616 0.58308 0.96521 0.0
C1916 C 0.03107 0.59356 0.96473 0.0
C1917 C 0.03871 0.5981 0.92004 0.0
C1918 C 0.98605 0.57203 0.06047 0.0
C1919 C 0.99303 0.57155 0.10385 0.0
C1920 C 0.99347 0.5756 0.01521 0.0
C1921 C 1.00792 0.57852 0.01253 0.0
C1922 C 0.0146 0.57738 0.05581 0.0
C1923 C 1.00729 0.57407 0.10093 0.0
H1924 H 0.44368 0.43998 0.13842 0.0
H1925 H 0.45162 0.4087 0.06388 0.0
H1926 H 0.43765 0.44676 0.06036 0.0
H1927 H 0.44478 0.415 0.98509 0.0
H1928 H 0.44561 0.4395 0.84726 0.0
H1929 H 0.45259 0.43359 0.92526 0.0
H1930 H 0.4192 0.43827 -9e-05 0.0
H1931 H 0.41269 0.44498 0.92135 0.0
C1932 C 0.44411 0.4345 0.10525 0.0
C1933 C 0.44818 0.42382 0.10723 0.0
C1934 C 0.44047 0.4383 0.06043 0.0
C1935 C 0.44056 0.43135 0.01641 0.0
C1936 C 0.44475 0.4207 0.01825 0.0
C1937 C 0.44863 0.41704 0.06329 0.0
C1938 C 0.43981 0.43941 0.88031 0.0
C1939 C 0.42862 0.44277 0.87826 0.0
C1940 C 0.44373 0.43584 0.92507 0.0
C1941 C 0.43641 0.43532 0.96889 0.0
C1942 C 0.42522 0.43876 0.96693 0.0
C1943 C 0.42143 0.44255 0.92201 0.0
loop_
_geom_bond_atom_site_label_1
_geom_bond_atom_site_label_2
_geom_bond_distance
_geom_bond_site_symmetry_2
_ccdc_geom_bond_type
Co0 O1 2.216 . S
Co0 O2 2.091 . S
Co0 O4 2.004 . S
Co0 O10 2.021 . S
Co0 O12 2.137 . S
Co0 O13 2.244 . S
O1 Co0 2.216 . S
O1 C8 1.247 . S
O2 Co0 2.091 . S
O2 C8 1.261 . S
C3 O12 1.247 . S
C3 O13 1.272 . S
O4 Co0 2.004 . S
O4 C9 1.259 . S
Co5 O6 2.061 . S
Co5 O11 2.052 . S
Co5 O13 2.135 . S
O6 Co5 2.061 . S
O6 C9 1.235 . S
C7 O10 1.238 1_556 S
C7 O11 1.241 1_556 S
C8 O1 1.247 . S
C8 O2 1.261 . S
C9 O4 1.259 . S
C9 O6 1.235 . S
O10 Co0 2.021 . S
O10 C7 1.238 1_554 S
O11 Co5 2.052 . S
O11 C7 1.241 1_554 S
O12 Co0 2.137 . S
O12 C3 1.247 . S
O13 Co0 2.244 . S
O13 C3 1.272 . S
O13 Co5 2.135 . S
Co14 O15 2.216 . S
Co14 O16 2.091 . S
Co14 O18 2.004 . S
Co14 O24 2.021 . S
Co14 O26 2.137 . S
Co14 O27 2.244 . S
O15 Co14 2.216 . S
O15 C22 1.247 . S
O16 Co14 2.091 . S
O16 C22 1.261 . S
C17 O26 1.247 . S
C17 O27 1.272 . S
O18 Co14 2.004 . S
O18 C23 1.259 . S
Co19 O20 2.061 . S
Co19 O25 2.052 . S
Co19 O27 2.135 . S
O20 Co19 2.061 . S
O20 C23 1.235 . S
C21 O24 1.238 1_556 S
C21 O25 1.241 1_556 S
C22 O15 1.247 . S
C22 O16 1.261 . S
C23 O18 1.259 . S
C23 O20 1.235 . S
O24 Co14 2.021 . S
O24 C21 1.238 1_554 S
O25 Co19 2.052 . S
O25 C21 1.241 1_554 S
O26 Co14 2.137 . S
O26 C17 1.247 . S
O27 Co14 2.244 . S
O27 C17 1.272 . S
O27 Co19 2.135 . S
Co28 O29 2.216 . S
Co28 O30 2.091 . S
Co28 O32 2.004 . S
Co28 O38 2.021 . S
Co28 O40 2.137 . S
Co28 O41 2.244 . S
O29 Co28 2.216 . S
O29 C36 1.247 . S
O30 Co28 2.091 . S
O30 C36 1.261 . S
C31 O40 1.247 . S
C31 O41 1.272 . S
O32 Co28 2.004 . S
O32 C37 1.259 . S
Co33 O34 2.061 . S
Co33 O39 2.052 . S
Co33 O41 2.135 . S
O34 Co33 2.061 . S
O34 C37 1.235 . S
C35 O38 1.238 1_556 S
C35 O39 1.241 1_556 S
C36 O29 1.247 . S
C36 O30 1.261 . S
C37 O32 1.259 . S
C37 O34 1.235 . S
O38 Co28 2.021 . S
O38 C35 1.238 1_554 S
O39 Co33 2.052 . S
O39 C35 1.241 1_554 S
O40 Co28 2.137 . S
O40 C31 1.247 . S
O41 Co28 2.244 . S
O41 C31 1.272 . S
O41 Co33 2.135 . S
Co42 O43 2.216 . S
Co42 O44 2.091 . S
Co42 O46 2.004 . S
Co42 O52 2.021 . S
Co42 O54 2.137 . S
Co42 O55 2.244 . S
O43 Co42 2.216 . S
O43 C50 1.247 . S
O44 Co42 2.091 . S
O44 C50 1.261 . S
C45 O54 1.247 . S
C45 O55 1.272 . S
O46 Co42 2.004 . S
O46 C51 1.259 . S
Co47 O48 2.061 . S
Co47 O53 2.052 . S
Co47 O55 2.135 . S
O48 Co47 2.061 . S
O48 C51 1.235 . S
C49 O52 1.238 1_554 S
C49 O53 1.241 1_554 S
C50 O43 1.247 . S
C50 O44 1.261 . S
C51 O46 1.259 . S
C51 O48 1.235 . S
O52 Co42 2.021 . S
O52 C49 1.238 1_556 S
O53 Co47 2.052 . S
O53 C49 1.241 1_556 S
O54 Co42 2.137 . S
O54 C45 1.247 . S
O55 Co42 2.244 . S
O55 C45 1.272 . S
O55 Co47 2.135 . S
Co56 O57 2.216 . S
Co56 O58 2.091 . S
Co56 O60 2.004 . S
Co56 O66 2.021 . S
Co56 O68 2.137 . S
Co56 O69 2.244 . S
O57 Co56 2.216 . S
O57 C64 1.247 . S
O58 Co56 2.091 . S
O58 C64 1.261 . S
C59 O68 1.247 . S
C59 O69 1.272 . S
O60 Co56 2.004 . S
O60 C65 1.259 . S
Co61 O62 2.061 . S
Co61 O67 2.052 . S
Co61 O69 2.135 . S
O62 Co61 2.061 . S
O62 C65 1.235 . S
C63 O66 1.238 1_554 S
C63 O67 1.241 1_554 S
C64 O57 1.247 . S
C64 O58 1.261 . S
C65 O60 1.259 . S
C65 O62 1.235 . S
O66 Co56 2.021 . S
O66 C63 1.238 1_556 S
O67 Co61 2.052 . S
O67 C63 1.241 1_556 S
O68 Co56 2.137 . S
O68 C59 1.247 . S
O69 Co56 2.244 . S
O69 C59 1.272 . S
O69 Co61 2.135 . S
Co70 O71 2.216 . S
Co70 O72 2.091 . S
Co70 O74 2.004 . S
Co70 O80 2.021 . S
Co70 O82 2.137 . S
Co70 O83 2.244 . S
O71 Co70 2.216 . S
O71 C78 1.247 . S
O72 Co70 2.091 . S
O72 C78 1.261 . S
C73 O82 1.247 . S
C73 O83 1.272 . S
O74 Co70 2.004 . S
O74 C79 1.259 . S
Co75 O76 2.061 . S
Co75 O81 2.052 . S
Co75 O83 2.135 . S
O76 Co75 2.061 . S
O76 C79 1.235 . S
C77 O80 1.238 1_554 S
C77 O81 1.241 1_554 S
C78 O71 1.247 . S
C78 O72 1.261 . S
C79 O74 1.259 . S
C79 O76 1.235 . S
O80 Co70 2.021 . S
O80 C77 1.238 1_556 S
O81 Co75 2.052 . S
O81 C77 1.241 1_556 S
O82 Co70 2.137 . S
O82 C73 1.247 . S
O83 Co70 2.244 . S
O83 C73 1.272 . S
O83 Co75 2.135 . S
Co84 O85 2.216 . S
Co84 O86 2.091 . S
Co84 O88 2.004 . S
Co84 O94 2.021 . S
Co84 O96 2.137 . S
Co84 O97 2.244 . S
O85 Co84 2.216 . S
O85 C92 1.247 . S
O86 Co84 2.091 . S
O86 C92 1.261 . S
C87 O96 1.247 . S
C87 O97 1.272 . S
O88 Co84 2.004 . S
O88 C93 1.259 . S
Co89 O90 2.061 . S
Co89 O95 2.052 . S
Co89 O97 2.135 . S
O90 Co89 2.061 . S
O90 C93 1.235 . S
C91 O94 1.238 1_554 S
C91 O95 1.241 1_554 S
C92 O85 1.247 . S
C92 O86 1.261 . S
C93 O88 1.259 . S
C93 O90 1.235 . S
O94 Co84 2.021 . S
O94 C91 1.238 1_556 S
O95 Co89 2.052 . S
O95 C91 1.241 1_556 S
O96 Co84 2.137 . S
O96 C87 1.247 . S
O97 Co84 2.244 . S
O97 C87 1.272 . S
O97 Co89 2.135 . S
Co98 O99 2.216 . S
Co98 O100 2.091 . S
Co98 O102 2.004 . S
Co98 O108 2.021 . S
Co98 O110 2.137 . S
Co98 O111 2.244 . S
O99 Co98 2.216 . S
O99 C106 1.247 . S
O100 Co98 2.091 . S
O100 C106 1.261 . S
C101 O110 1.247 . S
C101 O111 1.272 . S
O102 Co98 2.004 . S
O102 C107 1.259 . S
Co103 O104 2.061 . S
Co103 O109 2.052 . S
Co103 O111 2.135 . S
O104 Co103 2.061 . S
O104 C107 1.235 . S
C105 O108 1.238 1_554 S
C105 O109 1.241 1_554 S
C106 O99 1.247 . S
C106 O100 1.261 . S
C107 O102 1.259 . S
C107 O104 1.235 . S
O108 Co98 2.021 . S
O108 C105 1.238 1_556 S
O109 Co103 2.052 . S
O109 C105 1.241 1_556 S
O110 Co98 2.137 . S
O110 C101 1.247 . S
O111 Co98 2.244 . S
O111 C101 1.272 . S
O111 Co103 2.135 . S
Co112 O113 2.216 . S
Co112 O114 2.091 . S
Co112 O116 2.004 . S
Co112 O122 2.021 . S
Co112 O124 2.137 . S
Co112 O125 2.244 . S
O113 Co112 2.216 . S
O113 C120 1.247 . S
O114 Co112 2.091 . S
O114 C120 1.261 . S
C115 O124 1.247 . S
C115 O125 1.272 . S
O116 Co112 2.004 . S
O116 C121 1.259 . S
Co117 O118 2.061 . S
Co117 O123 2.052 . S
Co117 O125 2.135 . S
O118 Co117 2.061 . S
O118 C121 1.235 . S
C119 O122 1.238 1_554 S
C119 O123 1.241 1_554 S
C120 O113 1.247 . S
C120 O114 1.261 . S
C121 O116 1.259 . S
C121 O118 1.235 . S
O122 Co112 2.021 . S
O122 C119 1.238 1_556 S
O123 Co117 2.052 . S
O123 C119 1.241 1_556 S
O124 Co112 2.137 . S
O124 C115 1.247 . S
O125 Co112 2.244 . S
O125 C115 1.272 . S
O125 Co117 2.135 . S
Co126 O127 2.216 . S
Co126 O128 2.091 . S
Co126 O130 2.004 . S
Co126 O136 2.021 . S
Co126 O138 2.137 . S
Co126 O139 2.244 . S
O127 Co126 2.216 . S
O127 C134 1.247 . S
O128 Co126 2.091 . S
O128 C134 1.261 . S
C129 O138 1.247 . S
C129 O139 1.272 . S
O130 Co126 2.004 . S
O130 C135 1.259 . S
Co131 O132 2.061 . S
Co131 O137 2.052 . S
Co131 O139 2.135 . S
O132 Co131 2.061 . S
O132 C135 1.235 . S
C133 O136 1.238 1_556 S
C133 O137 1.241 1_556 S
C134 O127 1.247 . S
C134 O128 1.261 . S
C135 O130 1.259 . S
C135 O132 1.235 . S
O136 Co126 2.021 . S
O136 C133 1.238 1_554 S
O137 Co131 2.052 . S
O137 C133 1.241 1_554 S
O138 Co126 2.137 . S
O138 C129 1.247 . S
O139 Co126 2.244 . S
O139 C129 1.272 . S
O139 Co131 2.135 . S
Co140 O141 2.216 . S
Co140 O142 2.091 . S
Co140 O144 2.004 . S
Co140 O150 2.021 . S
Co140 O152 2.137 . S
Co140 O153 2.244 . S
O141 Co140 2.216 . S
O141 C148 1.247 . S
O142 Co140 2.091 . S
O142 C148 1.261 . S
C143 O152 1.247 . S
C143 O153 1.272 . S
O144 Co140 2.004 . S
O144 C149 1.259 . S
Co145 O146 2.061 . S
Co145 O151 2.052 . S
Co145 O153 2.135 . S
O146 Co145 2.061 . S
O146 C149 1.235 . S
C147 O150 1.238 1_556 S
C147 O151 1.241 1_556 S
C148 O141 1.247 . S
C148 O142 1.261 . S
C149 O144 1.259 . S
C149 O146 1.235 . S
O150 Co140 2.021 . S
O150 C147 1.238 1_554 S
O151 Co145 2.052 . S
O151 C147 1.241 1_554 S
O152 Co140 2.137 . S
O152 C143 1.247 . S
O153 Co140 2.244 . S
O153 C143 1.272 . S
O153 Co145 2.135 . S
Co154 O155 2.216 . S
Co154 O156 2.091 . S
Co154 O158 2.004 . S
Co154 O164 2.021 . S
Co154 O166 2.137 . S
Co154 O167 2.244 . S
O155 Co154 2.216 . S
O155 C162 1.247 . S
O156 Co154 2.091 . S
O156 C162 1.261 . S
C157 O166 1.247 . S
C157 O167 1.272 . S
O158 Co154 2.004 . S
O158 C163 1.259 . S
Co159 O160 2.061 . S
Co159 O165 2.052 . S
Co159 O167 2.135 . S
O160 Co159 2.061 . S
O160 C163 1.235 . S
C161 O164 1.238 1_556 S
C161 O165 1.241 1_556 S
C162 O155 1.247 . S
C162 O156 1.261 . S
C163 O158 1.259 . S
C163 O160 1.235 . S
O164 Co154 2.021 . S
O164 C161 1.238 1_554 S
O165 Co159 2.052 . S
O165 C161 1.241 1_554 S
O166 Co154 2.137 . S
O166 C157 1.247 . S
O167 Co154 2.244 . S
O167 C157 1.272 . S
O167 Co159 2.135 . S
Co168 O169 2.216 . S
Co168 O170 2.091 . S
Co168 O172 2.004 . S
Co168 O178 2.021 . S
Co168 O180 2.137 . S
Co168 O181 2.244 . S
O169 Co168 2.216 . S
O169 C176 1.247 . S
O170 Co168 2.091 . S
O170 C176 1.261 . S
C171 O180 1.247 . S
C171 O181 1.272 . S
O172 Co168 2.004 . S
O172 C177 1.259 . S
Co173 O174 2.061 . S
Co173 O179 2.052 . S
Co173 O181 2.135 . S
O174 Co173 2.061 . S
O174 C177 1.235 . S
C175 O178 1.238 . S
C175 O179 1.241 . S
C176 O169 1.247 . S
C176 O170 1.261 . S
C177 O172 1.259 . S
C177 O174 1.235 . S
O178 Co168 2.021 . S
O178 C175 1.238 . S
O179 Co173 2.052 . S
O179 C175 1.241 . S
O180 Co168 2.137 . S
O180 C171 1.247 . S
O181 Co168 2.244 . S
O181 C171 1.272 . S
O181 Co173 2.135 . S
Co182 O183 2.216 . S
Co182 O184 2.091 . S
Co182 O186 2.004 . S
Co182 O192 2.021 . S
Co182 O194 2.137 . S
Co182 O195 2.244 . S
O183 Co182 2.216 . S
O183 C190 1.247 . S
O184 Co182 2.091 . S
O184 C190 1.261 . S
C185 O194 1.247 . S
C185 O195 1.272 . S
O186 Co182 2.004 . S
O186 C191 1.259 . S
Co187 O188 2.061 . S
Co187 O193 2.052 . S
Co187 O195 2.135 . S
O188 Co187 2.061 . S
O188 C191 1.235 . S
C189 O192 1.238 . S
C189 O193 1.241 . S
C190 O183 1.247 . S
C190 O184 1.261 . S
C191 O186 1.259 . S
C191 O188 1.235 . S
O192 Co182 2.021 . S
O192 C189 1.238 . S
O193 Co187 2.052 . S
O193 C189 1.241 . S
O194 Co182 2.137 . S
O194 C185 1.247 . S
O195 Co182 2.244 . S
O195 C185 1.272 . S
O195 Co187 2.135 . S
Co196 O197 2.216 . S
Co196 O198 2.091 . S
Co196 O200 2.004 . S
Co196 O206 2.021 . S
Co196 O208 2.137 . S
Co196 O209 2.244 . S
O197 Co196 2.216 . S
O197 C204 1.247 . S
O198 Co196 2.091 . S
O198 C204 1.261 . S
C199 O208 1.247 . S
C199 O209 1.272 . S
O200 Co196 2.004 . S
O200 C205 1.259 . S
Co201 O202 2.061 . S
Co201 O207 2.052 . S
Co201 O209 2.135 . S
O202 Co201 2.061 . S
O202 C205 1.235 . S
C203 O206 1.238 . S
C203 O207 1.241 . S
C204 O197 1.247 . S
C204 O198 1.261 . S
C205 O200 1.259 . S
C205 O202 1.235 . S
O206 Co196 2.021 . S
O206 C203 1.238 . S
O207 Co201 2.052 . S
O207 C203 1.241 . S
O208 Co196 2.137 . S
O208 C199 1.247 . S
O209 Co196 2.244 . S
O209 C199 1.272 . S
O209 Co201 2.135 . S
Co210 O211 2.216 . S
Co210 O212 2.091 . S
Co210 O214 2.004 . S
Co210 O220 2.021 . S
Co210 O222 2.137 . S
Co210 O223 2.244 . S
O211 Co210 2.216 . S
O211 C218 1.247 . S
O212 Co210 2.091 . S
O212 C218 1.261 . S
C213 O222 1.247 . S
C213 O223 1.272 . S
O214 Co210 2.004 . S
O214 C219 1.259 . S
Co215 O216 2.061 . S
Co215 O221 2.052 . S
Co215 O223 2.135 . S
O216 Co215 2.061 . S
O216 C219 1.235 . S
C217 O220 1.238 . S
C217 O221 1.241 . S
C218 O211 1.247 . S
C218 O212 1.261 . S
C219 O214 1.259 . S
C219 O216 1.235 . S
O220 Co210 2.021 . S
O220 C217 1.238 . S
O221 Co215 2.052 . S
O221 C217 1.241 . S
O222 Co210 2.137 . S
O222 C213 1.247 . S
O223 Co210 2.244 . S
O223 C213 1.272 . S
O223 Co215 2.135 . S
Co224 O225 2.216 . S
Co224 O226 2.091 . S
Co224 O228 2.004 . S
Co224 O234 2.021 . S
Co224 O236 2.137 . S
Co224 O237 2.244 . S
O225 Co224 2.216 . S
O225 C232 1.247 . S
O226 Co224 2.091 . S
O226 C232 1.261 . S
C227 O236 1.247 . S
C227 O237 1.272 . S
O228 Co224 2.004 . S
O228 C233 1.259 . S
Co229 O230 2.061 . S
Co229 O235 2.052 . S
Co229 O237 2.135 . S
O230 Co229 2.061 . S
O230 C233 1.235 . S
C231 O234 1.238 . S
C231 O235 1.241 . S
C232 O225 1.247 . S
C232 O226 1.261 . S
C233 O228 1.259 . S
C233 O230 1.235 . S
O234 Co224 2.021 . S
O234 C231 1.238 . S
O235 Co229 2.052 . S
O235 C231 1.241 . S
O236 Co224 2.137 . S
O236 C227 1.247 . S
O237 Co224 2.244 . S
O237 C227 1.272 . S
O237 Co229 2.135 . S
Co238 O239 2.216 . S
Co238 O240 2.091 . S
Co238 O242 2.004 . S
Co238 O248 2.021 . S
Co238 O250 2.137 . S
Co238 O251 2.244 . S
O239 Co238 2.216 . S
O239 C246 1.247 . S
O240 Co238 2.091 . S
O240 C246 1.261 . S
C241 O250 1.247 . S
C241 O251 1.272 . S
O242 Co238 2.004 . S
O242 C247 1.259 . S
Co243 O244 2.061 . S
Co243 O249 2.052 . S
Co243 O251 2.135 . S
O244 Co243 2.061 . S
O244 C247 1.235 . S
C245 O248 1.238 . S
C245 O249 1.241 . S
C246 O239 1.247 . S
C246 O240 1.261 . S
C247 O242 1.259 . S
C247 O244 1.235 . S
O248 Co238 2.021 . S
O248 C245 1.238 . S
O249 Co243 2.052 . S
O249 C245 1.241 . S
O250 Co238 2.137 . S
O250 C241 1.247 . S
O251 Co238 2.244 . S
O251 C241 1.272 . S
O251 Co243 2.135 . S
Co252 O253 2.216 . S
Co252 O254 2.091 . S
Co252 O256 2.004 . S
Co252 O262 2.021 . S
Co252 O264 2.137 . S
Co252 O265 2.244 . S
O253 Co252 2.216 . S
O253 C260 1.247 . S
O254 Co252 2.091 . S
O254 C260 1.261 . S
C255 O264 1.247 . S
C255 O265 1.272 . S
O256 Co252 2.004 . S
O256 C261 1.259 . S
Co257 O258 2.061 . S
Co257 O263 2.052 . S
Co257 O265 2.135 . S
O258 Co257 2.061 . S
O258 C261 1.235 . S
C259 O262 1.238 . S
C259 O263 1.241 . S
C260 O253 1.247 . S
C260 O254 1.261 . S
C261 O256 1.259 . S
C261 O258 1.235 . S
O262 Co252 2.021 . S
O262 C259 1.238 . S
O263 Co257 2.052 . S
O263 C259 1.241 . S
O264 Co252 2.137 . S
O264 C255 1.247 . S
O265 Co252 2.244 . S
O265 C255 1.272 . S
O265 Co257 2.135 . S
Co266 O267 2.216 . S
Co266 O268 2.091 . S
Co266 O270 2.004 . S
Co266 O276 2.021 . S
Co266 O278 2.137 . S
Co266 O279 2.244 . S
O267 Co266 2.216 . S
O267 C274 1.247 . S
O268 Co266 2.091 . S
O268 C274 1.261 . S
C269 O278 1.247 . S
C269 O279 1.272 . S
O270 Co266 2.004 . S
O270 C275 1.259 . S
Co271 O272 2.061 . S
Co271 O277 2.052 . S
Co271 O279 2.135 . S
O272 Co271 2.061 . S
O272 C275 1.235 . S
C273 O276 1.238 . S
C273 O277 1.241 . S
C274 O267 1.247 . S
C274 O268 1.261 . S
C275 O270 1.259 . S
C275 O272 1.235 . S
O276 Co266 2.021 . S
O276 C273 1.238 . S
O277 Co271 2.052 . S
O277 C273 1.241 . S
O278 Co266 2.137 . S
O278 C269 1.247 . S
O279 Co266 2.244 . S
O279 C269 1.272 . S
O279 Co271 2.135 . S
Co280 O281 2.216 . S
Co280 O282 2.091 . S
Co280 O284 2.004 . S
Co280 O290 2.021 . S
Co280 O292 2.137 . S
Co280 O293 2.244 . S
O281 Co280 2.216 . S
O281 C288 1.247 . S
O282 Co280 2.091 . S
O282 C288 1.261 . S
C283 O292 1.247 . S
C283 O293 1.272 . S
O284 Co280 2.004 . S
O284 C289 1.259 . S
Co285 O286 2.061 . S
Co285 O291 2.052 . S
Co285 O293 2.135 . S
O286 Co285 2.061 . S
O286 C289 1.235 . S
C287 O290 1.238 . S
C287 O291 1.241 . S
C288 O281 1.247 . S
C288 O282 1.261 . S
C289 O284 1.259 . S
C289 O286 1.235 . S
O290 Co280 2.021 . S
O290 C287 1.238 . S
O291 Co285 2.052 . S
O291 C287 1.241 . S
O292 Co280 2.137 . S
O292 C283 1.247 . S
O293 Co280 2.244 . S
O293 C283 1.272 . S
O293 Co285 2.135 . S
Co294 O295 2.216 . S
Co294 O296 2.091 . S
Co294 O298 2.004 . S
Co294 O304 2.021 . S
Co294 O306 2.137 . S
Co294 O307 2.244 . S
O295 Co294 2.216 . S
O295 C302 1.247 . S
O296 Co294 2.091 . S
O296 C302 1.261 . S
C297 O306 1.247 . S
C297 O307 1.272 . S
O298 Co294 2.004 . S
O298 C303 1.259 . S
Co299 O300 2.061 . S
Co299 O305 2.052 . S
Co299 O307 2.135 . S
O300 Co299 2.061 . S
O300 C303 1.235 . S
C301 O304 1.238 . S
C301 O305 1.241 . S
C302 O295 1.247 . S
C302 O296 1.261 . S
C303 O298 1.259 . S
C303 O300 1.235 . S
O304 Co294 2.021 . S
O304 C301 1.238 . S
O305 Co299 2.052 . S
O305 C301 1.241 . S
O306 Co294 2.137 . S
O306 C297 1.247 . S
O307 Co294 2.244 . S
O307 C297 1.272 . S
O307 Co299 2.135 . S
Co308 O309 2.216 . S
Co308 O310 2.091 . S
Co308 O312 2.004 . S
Co308 O318 2.021 . S
Co308 O320 2.137 . S
Co308 O321 2.244 . S
O309 Co308 2.216 . S
O309 C316 1.247 . S
O310 Co308 2.091 . S
O310 C316 1.261 . S
C311 O320 1.247 . S
C311 O321 1.272 . S
O312 Co308 2.004 . S
O312 C317 1.259 . S
Co313 O314 2.061 . S
Co313 O319 2.052 . S
Co313 O321 2.135 . S
O314 Co313 2.061 . S
O314 C317 1.235 . S
C315 O318 1.238 . S
C315 O319 1.241 . S
C316 O309 1.247 . S
C316 O310 1.261 . S
C317 O312 1.259 . S
C317 O314 1.235 . S
O318 Co308 2.021 . S
O318 C315 1.238 . S
O319 Co313 2.052 . S
O319 C315 1.241 . S
O320 Co308 2.137 . S
O320 C311 1.247 . S
O321 Co308 2.244 . S
O321 C311 1.272 . S
O321 Co313 2.135 . S
Co322 O323 2.216 . S
Co322 O324 2.091 . S
Co322 O326 2.004 . S
Co322 O332 2.021 . S
Co322 O334 2.137 . S
Co322 O335 2.244 . S
O323 Co322 2.216 . S
O323 C330 1.247 . S
O324 Co322 2.091 . S
O324 C330 1.261 . S
C325 O334 1.247 . S
C325 O335 1.272 . S
O326 Co322 2.004 . S
O326 C331 1.259 . S
Co327 O328 2.061 . S
Co327 O333 2.052 . S
Co327 O335 2.135 . S
O328 Co327 2.061 . S
O328 C331 1.235 . S
C329 O332 1.238 . S
C329 O333 1.241 . S
C330 O323 1.247 . S
C330 O324 1.261 . S
C331 O326 1.259 . S
C331 O328 1.235 . S
O332 Co322 2.021 . S
O332 C329 1.238 . S
O333 Co327 2.052 . S
O333 C329 1.241 . S
O334 Co322 2.137 . S
O334 C325 1.247 . S
O335 Co322 2.244 . S
O335 C325 1.272 . S
O335 Co327 2.135 . S
Co336 O337 2.216 . S
Co336 O338 2.091 . S
Co336 O340 2.004 . S
Co336 O346 2.021 . S
Co336 O348 2.137 . S
Co336 O349 2.244 . S
O337 Co336 2.216 . S
O337 C344 1.247 . S
O338 Co336 2.091 . S
O338 C344 1.261 . S
C339 O348 1.247 . S
C339 O349 1.272 . S
O340 Co336 2.004 . S
O340 C345 1.259 . S
Co341 O342 2.061 . S
Co341 O347 2.052 . S
Co341 O349 2.135 . S
O342 Co341 2.061 . S
O342 C345 1.235 . S
C343 O346 1.238 . S
C343 O347 1.241 . S
C344 O337 1.247 . S
C344 O338 1.261 . S
C345 O340 1.259 . S
C345 O342 1.235 . S
O346 Co336 2.021 . S
O346 C343 1.238 . S
O347 Co341 2.052 . S
O347 C343 1.241 . S
O348 Co336 2.137 . S
O348 C339 1.247 . S
O349 Co336 2.244 . S
O349 C339 1.272 . S
O349 Co341 2.135 . S
Co350 O351 2.216 . S
Co350 O352 2.091 . S
Co350 O354 2.004 . S
Co350 O360 2.021 . S
Co350 O362 2.137 . S
Co350 O363 2.244 . S
O351 Co350 2.216 . S
O351 C358 1.247 . S
O352 Co350 2.091 . S
O352 C358 1.261 . S
C353 O362 1.247 . S
C353 O363 1.272 . S
O354 Co350 2.004 . S
O354 C359 1.259 . S
Co355 O356 2.061 . S
Co355 O361 2.052 . S
Co355 O363 2.135 . S
O356 Co355 2.061 . S
O356 C359 1.235 . S
C357 O360 1.238 . S
C357 O361 1.241 . S
C358 O351 1.247 . S
C358 O352 1.261 . S
C359 O354 1.259 . S
C359 O356 1.235 . S
O360 Co350 2.021 . S
O360 C357 1.238 . S
O361 Co355 2.052 . S
O361 C357 1.241 . S
O362 Co350 2.137 . S
O362 C353 1.247 . S
O363 Co350 2.244 . S
O363 C353 1.272 . S
O363 Co355 2.135 . S
Co364 O365 2.216 . S
Co364 O366 2.091 . S
Co364 O368 2.004 . S
Co364 O374 2.021 . S
Co364 O376 2.137 . S
Co364 O377 2.244 . S
O365 Co364 2.216 . S
O365 C372 1.247 . S
O366 Co364 2.091 . S
O366 C372 1.261 . S
C367 O376 1.247 . S
C367 O377 1.272 . S
O368 Co364 2.004 . S
O368 C373 1.259 . S
Co369 O370 2.061 . S
Co369 O375 2.052 . S
Co369 O377 2.135 . S
O370 Co369 2.061 . S
O370 C373 1.235 . S
C371 O374 1.238 . S
C371 O375 1.241 . S
C372 O365 1.247 . S
C372 O366 1.261 . S
C373 O368 1.259 . S
C373 O370 1.235 . S
O374 Co364 2.021 . S
O374 C371 1.238 . S
O375 Co369 2.052 . S
O375 C371 1.241 . S
O376 Co364 2.137 . S
O376 C367 1.247 . S
O377 Co364 2.244 . S
O377 C367 1.272 . S
O377 Co369 2.135 . S
Co378 O379 2.216 . S
Co378 O380 2.091 . S
Co378 O382 2.004 . S
Co378 O388 2.021 . S
Co378 O390 2.137 . S
Co378 O391 2.244 . S
O379 Co378 2.216 . S
O379 C386 1.247 . S
O380 Co378 2.091 . S
O380 C386 1.261 . S
C381 O390 1.247 . S
C381 O391 1.272 . S
O382 Co378 2.004 . S
O382 C387 1.259 . S
Co383 O384 2.061 . S
Co383 O389 2.052 . S
Co383 O391 2.135 . S
O384 Co383 2.061 . S
O384 C387 1.235 . S
C385 O388 1.238 . S
C385 O389 1.241 . S
C386 O379 1.247 . S
C386 O380 1.261 . S
C387 O382 1.259 . S
C387 O384 1.235 . S
O388 Co378 2.021 . S
O388 C385 1.238 . S
O389 Co383 2.052 . S
O389 C385 1.241 . S
O390 Co378 2.137 . S
O390 C381 1.247 . S
O391 Co378 2.244 . S
O391 C381 1.272 . S
O391 Co383 2.135 . S
Co392 O393 2.216 . S
Co392 O394 2.091 . S
Co392 O396 2.004 . S
Co392 O402 2.021 . S
Co392 O404 2.137 . S
Co392 O405 2.244 . S
O393 Co392 2.216 . S
O393 C400 1.247 . S
O394 Co392 2.091 . S
O394 C400 1.261 . S
C395 O404 1.247 . S
C395 O405 1.272 . S
O396 Co392 2.004 . S
O396 C401 1.259 . S
Co397 O398 2.061 . S
Co397 O403 2.052 . S
Co397 O405 2.135 . S
O398 Co397 2.061 . S
O398 C401 1.235 . S
C399 O402 1.238 . S
C399 O403 1.241 . S
C400 O393 1.247 . S
C400 O394 1.261 . S
C401 O396 1.259 . S
C401 O398 1.235 . S
O402 Co392 2.021 . S
O402 C399 1.238 . S
O403 Co397 2.052 . S
O403 C399 1.241 . S
O404 Co392 2.137 . S
O404 C395 1.247 . S
O405 Co392 2.244 . S
O405 C395 1.272 . S
O405 Co397 2.135 . S
Co406 O407 2.216 . S
Co406 O408 2.091 . S
Co406 O410 2.004 . S
Co406 O416 2.021 . S
Co406 O418 2.137 . S
Co406 O419 2.244 . S
O407 Co406 2.216 . S
O407 C414 1.247 . S
O408 Co406 2.091 . S
O408 C414 1.261 . S
C409 O418 1.247 . S
C409 O419 1.272 . S
O410 Co406 2.004 . S
O410 C415 1.259 . S
Co411 O412 2.061 . S
Co411 O417 2.052 . S
Co411 O419 2.135 . S
O412 Co411 2.061 . S
O412 C415 1.235 . S
C413 O416 1.238 . S
C413 O417 1.241 . S
C414 O407 1.247 . S
C414 O408 1.261 . S
C415 O410 1.259 . S
C415 O412 1.235 . S
O416 Co406 2.021 . S
O416 C413 1.238 . S
O417 Co411 2.052 . S
O417 C413 1.241 . S
O418 Co406 2.137 . S
O418 C409 1.247 . S
O419 Co406 2.244 . S
O419 C409 1.272 . S
O419 Co411 2.135 . S
Co420 O421 2.216 . S
Co420 O422 2.091 . S
Co420 O424 2.004 . S
Co420 O430 2.021 . S
Co420 O432 2.137 . S
Co420 O433 2.244 . S
O421 Co420 2.216 . S
O421 C428 1.247 . S
O422 Co420 2.091 . S
O422 C428 1.261 . S
C423 O432 1.247 . S
C423 O433 1.272 . S
O424 Co420 2.004 . S
O424 C429 1.259 . S
Co425 O426 2.061 . S
Co425 O431 2.052 . S
Co425 O433 2.135 . S
O426 Co425 2.061 . S
O426 C429 1.235 . S
C427 O430 1.238 . S
C427 O431 1.241 . S
C428 O421 1.247 . S
C428 O422 1.261 . S
C429 O424 1.259 . S
C429 O426 1.235 . S
O430 Co420 2.021 . S
O430 C427 1.238 . S
O431 Co425 2.052 . S
O431 C427 1.241 . S
O432 Co420 2.137 . S
O432 C423 1.247 . S
O433 Co420 2.244 . S
O433 C423 1.272 . S
O433 Co425 2.135 . S
Co434 O435 2.216 . S
Co434 O436 2.091 . S
Co434 O438 2.004 . S
Co434 O444 2.021 . S
Co434 O446 2.137 . S
Co434 O447 2.244 . S
O435 Co434 2.216 . S
O435 C442 1.247 . S
O436 Co434 2.091 . S
O436 C442 1.261 . S
C437 O446 1.247 . S
C437 O447 1.272 . S
O438 Co434 2.004 . S
O438 C443 1.259 . S
Co439 O440 2.061 . S
Co439 O445 2.052 . S
Co439 O447 2.135 . S
O440 Co439 2.061 . S
O440 C443 1.235 . S
C441 O444 1.238 . S
C441 O445 1.241 . S
C442 O435 1.247 . S
C442 O436 1.261 . S
C443 O438 1.259 . S
C443 O440 1.235 . S
O444 Co434 2.021 . S
O444 C441 1.238 . S
O445 Co439 2.052 . S
O445 C441 1.241 . S
O446 Co434 2.137 . S
O446 C437 1.247 . S
O447 Co434 2.244 . S
O447 C437 1.272 . S
O447 Co439 2.135 . S
Co448 O449 2.216 . S
Co448 O450 2.091 . S
Co448 O452 2.004 . S
Co448 O458 2.021 . S
Co448 O460 2.137 . S
Co448 O461 2.244 . S
O449 Co448 2.216 . S
O449 C456 1.247 . S
O450 Co448 2.091 . S
O450 C456 1.261 . S
C451 O460 1.247 . S
C451 O461 1.272 . S
O452 Co448 2.004 . S
O452 C457 1.259 . S
Co453 O454 2.061 . S
Co453 O459 2.052 . S
Co453 O461 2.135 . S
O454 Co453 2.061 . S
O454 C457 1.235 . S
C455 O458 1.238 . S
C455 O459 1.241 . S
C456 O449 1.247 . S
C456 O450 1.261 . S
C457 O452 1.259 . S
C457 O454 1.235 . S
O458 Co448 2.021 . S
O458 C455 1.238 . S
O459 Co453 2.052 . S
O459 C455 1.241 . S
O460 Co448 2.137 . S
O460 C451 1.247 . S
O461 Co448 2.244 . S
O461 C451 1.272 . S
O461 Co453 2.135 . S
Co462 O463 2.216 . S
Co462 O464 2.091 . S
Co462 O466 2.004 . S
Co462 O472 2.021 . S
Co462 O474 2.137 . S
Co462 O475 2.244 . S
O463 Co462 2.216 . S
O463 C470 1.247 . S
O464 Co462 2.091 . S
O464 C470 1.261 . S
C465 O474 1.247 . S
C465 O475 1.272 . S
O466 Co462 2.004 . S
O466 C471 1.259 . S
Co467 O468 2.061 . S
Co467 O473 2.052 . S
Co467 O475 2.135 . S
O468 Co467 2.061 . S
O468 C471 1.235 . S
C469 O472 1.238 . S
C469 O473 1.241 . S
C470 O463 1.247 . S
C470 O464 1.261 . S
C471 O466 1.259 . S
C471 O468 1.235 . S
O472 Co462 2.021 . S
O472 C469 1.238 . S
O473 Co467 2.052 . S
O473 C469 1.241 . S
O474 Co462 2.137 . S
O474 C465 1.247 . S
O475 Co462 2.244 . S
O475 C465 1.272 . S
O475 Co467 2.135 . S
Co476 O477 2.216 . S
Co476 O478 2.091 . S
Co476 O480 2.004 . S
Co476 O486 2.021 . S
Co476 O488 2.137 . S
Co476 O489 2.244 . S
O477 Co476 2.216 . S
O477 C484 1.247 . S
O478 Co476 2.091 . S
O478 C484 1.261 . S
C479 O488 1.247 . S
C479 O489 1.272 . S
O480 Co476 2.004 . S
O480 C485 1.259 . S
Co481 O482 2.061 . S
Co481 O487 2.052 . S
Co481 O489 2.135 . S
O482 Co481 2.061 . S
O482 C485 1.235 . S
C483 O486 1.238 . S
C483 O487 1.241 . S
C484 O477 1.247 . S
C484 O478 1.261 . S
C485 O480 1.259 . S
C485 O482 1.235 . S
O486 Co476 2.021 . S
O486 C483 1.238 . S
O487 Co481 2.052 . S
O487 C483 1.241 . S
O488 Co476 2.137 . S
O488 C479 1.247 . S
O489 Co476 2.244 . S
O489 C479 1.272 . S
O489 Co481 2.135 . S
Co490 O491 2.216 . S
Co490 O492 2.091 . S
Co490 O494 2.004 . S
Co490 O500 2.021 . S
Co490 O502 2.137 . S
Co490 O503 2.244 . S
O491 Co490 2.216 . S
O491 C498 1.247 . S
O492 Co490 2.091 . S
O492 C498 1.261 . S
C493 O502 1.247 . S
C493 O503 1.272 . S
O494 Co490 2.004 . S
O494 C499 1.259 . S
Co495 O496 2.061 . S
Co495 O501 2.052 . S
Co495 O503 2.135 . S
O496 Co495 2.061 . S
O496 C499 1.235 . S
C497 O500 1.238 . S
C497 O501 1.241 . S
C498 O491 1.247 . S
C498 O492 1.261 . S
C499 O494 1.259 . S
C499 O496 1.235 . S
O500 Co490 2.021 . S
O500 C497 1.238 . S
O501 Co495 2.052 . S
O501 C497 1.241 . S
O502 Co490 2.137 . S
O502 C493 1.247 . S
O503 Co490 2.244 . S
O503 C493 1.272 . S
O503 Co495 2.135 . S
H504 C512 0.950 . S
H505 C517 0.950 . S
H506 C514 0.950 . S
H507 C516 0.950 . S
H508 C518 0.950 . S
H509 C520 0.950 . S
H510 C522 0.950 . S
H511 C523 0.950 . S
C512 H504 0.950 . S
C512 C513 1.386 . S
C512 C514 1.391 . S
C513 C512 1.386 . S
C513 C517 1.393 . S
C514 H506 0.950 . S
C514 C512 1.391 . S
C514 C515 1.400 . S
C515 C514 1.400 . S
C515 C516 1.398 . S
C515 C521 1.491 . S
C516 H507 0.950 . S
C516 C515 1.398 . S
C516 C517 1.391 . S
C517 H505 0.950 . S
C517 C513 1.393 . S
C517 C516 1.391 . S
C518 H508 0.950 . S
C518 C519 1.386 . S
C518 C520 1.391 . S
C519 C518 1.386 . S
C519 C523 1.393 . S
C520 H509 0.950 . S
C520 C518 1.391 . S
C520 C521 1.400 . S
C521 C515 1.491 . S
C521 C520 1.400 . S
C521 C522 1.398 . S
C522 H510 0.950 . S
C522 C521 1.398 . S
C522 C523 1.391 . S
C523 H511 0.950 . S
C523 C519 1.393 . S
C523 C522 1.391 . S
H524 C532 0.950 . S
H525 C537 0.950 . S
H526 C534 0.950 . S
H527 C536 0.950 . S
H528 C538 0.950 . S
H529 C540 0.950 . S
H530 C542 0.950 . S
H531 C543 0.950 . S
C532 H524 0.950 . S
C532 C533 1.386 . S
C532 C534 1.391 . S
C533 C532 1.386 . S
C533 C537 1.393 . S
C534 H526 0.950 . S
C534 C532 1.391 . S
C534 C535 1.400 . S
C535 C534 1.400 . S
C535 C536 1.398 . S
C535 C541 1.491 . S
C536 H527 0.950 . S
C536 C535 1.398 . S
C536 C537 1.391 . S
C537 H525 0.950 . S
C537 C533 1.393 . S
C537 C536 1.391 . S
C538 H528 0.950 . S
C538 C539 1.386 . S
C538 C540 1.391 . S
C539 C538 1.386 . S
C539 C543 1.393 . S
C540 H529 0.950 . S
C540 C538 1.391 . S
C540 C541 1.400 . S
C541 C535 1.491 . S
C541 C540 1.400 . S
C541 C542 1.398 . S
C542 H530 0.950 . S
C542 C541 1.398 . S
C542 C543 1.391 . S
C543 H531 0.950 . S
C543 C539 1.393 . S
C543 C542 1.391 . S
H544 C552 0.950 . S
H545 C557 0.950 . S
H546 C554 0.950 . S
H547 C556 0.950 . S
H548 C558 0.950 . S
H549 C560 0.950 . S
H550 C562 0.950 . S
H551 C563 0.950 . S
C552 H544 0.950 . S
C552 C553 1.386 . S
C552 C554 1.391 . S
C553 C552 1.386 . S
C553 C557 1.393 . S
C554 H546 0.950 . S
C554 C552 1.391 . S
C554 C555 1.400 . S
C555 C554 1.400 . S
C555 C556 1.398 . S
C555 C561 1.491 . S
C556 H547 0.950 . S
C556 C555 1.398 . S
C556 C557 1.391 . S
C557 H545 0.950 . S
C557 C553 1.393 . S
C557 C556 1.391 . S
C558 H548 0.950 . S
C558 C559 1.386 . S
C558 C560 1.391 . S
C559 C558 1.386 . S
C559 C563 1.393 . S
C560 H549 0.950 . S
C560 C558 1.391 . S
C560 C561 1.400 . S
C561 C555 1.491 . S
C561 C560 1.400 . S
C561 C562 1.398 . S
C562 H550 0.950 . S
C562 C561 1.398 . S
C562 C563 1.391 . S
C563 H551 0.950 . S
C563 C559 1.393 . S
C563 C562 1.391 . S
H564 C572 0.950 . S
H565 C577 0.950 . S
H566 C574 0.950 . S
H567 C576 0.950 . S
H568 C578 0.950 . S
H569 C580 0.950 . S
H570 C582 0.950 . S
H571 C583 0.950 . S
C572 H564 0.950 . S
C572 C573 1.386 . S
C572 C574 1.391 . S
C573 C572 1.386 . S
C573 C577 1.393 . S
C574 H566 0.950 . S
C574 C572 1.391 . S
C574 C575 1.400 . S
C575 C574 1.400 . S
C575 C576 1.398 . S
C575 C581 1.491 . S
C576 H567 0.950 . S
C576 C575 1.398 . S
C576 C577 1.391 . S
C577 H565 0.950 . S
C577 C573 1.393 . S
C577 C576 1.391 . S
C578 H568 0.950 . S
C578 C579 1.386 . S
C578 C580 1.391 . S
C579 C578 1.386 . S
C579 C583 1.393 . S
C580 H569 0.950 . S
C580 C578 1.391 . S
C580 C581 1.400 . S
C581 C575 1.491 . S
C581 C580 1.400 . S
C581 C582 1.398 . S
C582 H570 0.950 . S
C582 C581 1.398 . S
C582 C583 1.391 . S
C583 H571 0.950 . S
C583 C579 1.393 . S
C583 C582 1.391 . S
H584 C592 0.950 . S
H585 C597 0.950 . S
H586 C594 0.950 . S
H587 C596 0.950 . S
H588 C598 0.950 . S
H589 C600 0.950 . S
H590 C602 0.950 . S
H591 C603 0.950 . S
C592 H584 0.950 . S
C592 C593 1.386 . S
C592 C594 1.391 . S
C593 C592 1.386 . S
C593 C597 1.393 . S
C594 H586 0.950 . S
C594 C592 1.391 . S
C594 C595 1.400 . S
C595 C594 1.400 . S
C595 C596 1.398 . S
C595 C601 1.491 . S
C596 H587 0.950 . S
C596 C595 1.398 . S
C596 C597 1.391 . S
C597 H585 0.950 . S
C597 C593 1.393 . S
C597 C596 1.391 . S
C598 H588 0.950 . S
C598 C599 1.386 . S
C598 C600 1.391 . S
C599 C598 1.386 . S
C599 C603 1.393 . S
C600 H589 0.950 . S
C600 C598 1.391 . S
C600 C601 1.400 . S
C601 C595 1.491 . S
C601 C600 1.400 . S
C601 C602 1.398 . S
C602 H590 0.950 . S
C602 C601 1.398 . S
C602 C603 1.391 . S
C603 H591 0.950 . S
C603 C599 1.393 . S
C603 C602 1.391 . S
H604 C612 0.950 . S
H605 C617 0.950 . S
H606 C614 0.950 . S
H607 C616 0.950 . S
H608 C618 0.950 . S
H609 C620 0.950 . S
H610 C622 0.950 . S
H611 C623 0.950 . S
C612 H604 0.950 . S
C612 C613 1.386 . S
C612 C614 1.391 . S
C613 C612 1.386 . S
C613 C617 1.393 . S
C614 H606 0.950 . S
C614 C612 1.391 . S
C614 C615 1.400 . S
C615 C614 1.400 . S
C615 C616 1.398 . S
C615 C621 1.491 . S
C616 H607 0.950 . S
C616 C615 1.398 . S
C616 C617 1.391 . S
C617 H605 0.950 . S
C617 C613 1.393 . S
C617 C616 1.391 . S
C618 H608 0.950 . S
C618 C619 1.386 . S
C618 C620 1.391 . S
C619 C618 1.386 . S
C619 C623 1.393 . S
C620 H609 0.950 . S
C620 C618 1.391 . S
C620 C621 1.400 . S
C621 C615 1.491 . S
C621 C620 1.400 . S
C621 C622 1.398 . S
C622 H610 0.950 . S
C622 C621 1.398 . S
C622 C623 1.391 . S
C623 H611 0.950 . S
C623 C619 1.393 . S
C623 C622 1.391 . S
H624 C632 0.950 . S
H625 C637 0.950 . S
H626 C634 0.950 . S
H627 C636 0.950 . S
H628 C638 0.950 . S
H629 C640 0.950 . S
H630 C642 0.950 . S
H631 C643 0.950 . S
C632 H624 0.950 . S
C632 C633 1.386 . S
C632 C634 1.391 . S
C633 C632 1.386 . S
C633 C637 1.393 . S
C634 H626 0.950 . S
C634 C632 1.391 . S
C634 C635 1.400 . S
C635 C634 1.400 . S
C635 C636 1.398 . S
C635 C641 1.491 . S
C636 H627 0.950 . S
C636 C635 1.398 . S
C636 C637 1.391 . S
C637 H625 0.950 . S
C637 C633 1.393 . S
C637 C636 1.391 . S
C638 H628 0.950 . S
C638 C639 1.386 . S
C638 C640 1.391 . S
C639 C638 1.386 . S
C639 C643 1.393 . S
C640 H629 0.950 . S
C640 C638 1.391 . S
C640 C641 1.400 . S
C641 C635 1.491 . S
C641 C640 1.400 . S
C641 C642 1.398 . S
C642 H630 0.950 . S
C642 C641 1.398 . S
C642 C643 1.391 . S
C643 H631 0.950 . S
C643 C639 1.393 . S
C643 C642 1.391 . S
H644 C652 0.950 . S
H645 C657 0.950 . S
H646 C654 0.950 . S
H647 C656 0.950 . S
H648 C658 0.950 . S
H649 C660 0.950 . S
H650 C662 0.950 . S
H651 C663 0.950 . S
C652 H644 0.950 . S
C652 C653 1.386 . S
C652 C654 1.391 . S
C653 C652 1.386 . S
C653 C657 1.393 . S
C654 H646 0.950 . S
C654 C652 1.391 . S
C654 C655 1.400 . S
C655 C654 1.400 . S
C655 C656 1.398 . S
C655 C661 1.491 . S
C656 H647 0.950 . S
C656 C655 1.398 . S
C656 C657 1.391 . S
C657 H645 0.950 . S
C657 C653 1.393 . S
C657 C656 1.391 . S
C658 H648 0.950 . S
C658 C659 1.386 . S
C658 C660 1.391 . S
C659 C658 1.386 . S
C659 C663 1.393 . S
C660 H649 0.950 . S
C660 C658 1.391 . S
C660 C661 1.400 . S
C661 C655 1.491 . S
C661 C660 1.400 . S
C661 C662 1.398 . S
C662 H650 0.950 . S
C662 C661 1.398 . S
C662 C663 1.391 . S
C663 H651 0.950 . S
C663 C659 1.393 . S
C663 C662 1.391 . S
H664 C672 0.950 . S
H665 C677 0.950 . S
H666 C674 0.950 . S
H667 C676 0.950 . S
H668 C678 0.950 . S
H669 C680 0.950 . S
H670 C682 0.950 . S
H671 C683 0.950 . S
C672 H664 0.950 . S
C672 C673 1.386 . S
C672 C674 1.391 . S
C673 C672 1.386 . S
C673 C677 1.393 . S
C674 H666 0.950 . S
C674 C672 1.391 . S
C674 C675 1.400 . S
C675 C674 1.400 . S
C675 C676 1.398 . S
C675 C681 1.491 . S
C676 H667 0.950 . S
C676 C675 1.398 . S
C676 C677 1.391 . S
C677 H665 0.950 . S
C677 C673 1.393 . S
C677 C676 1.391 . S
C678 H668 0.950 . S
C678 C679 1.386 . S
C678 C680 1.391 . S
C679 C678 1.386 . S
C679 C683 1.393 . S
C680 H669 0.950 . S
C680 C678 1.391 . S
C680 C681 1.400 . S
C681 C675 1.491 . S
C681 C680 1.400 . S
C681 C682 1.398 . S
C682 H670 0.950 . S
C682 C681 1.398 . S
C682 C683 1.391 . S
C683 H671 0.950 . S
C683 C679 1.393 . S
C683 C682 1.391 . S
H684 C692 0.950 . S
H685 C697 0.950 . S
H686 C694 0.950 . S
H687 C696 0.950 . S
H688 C698 0.950 . S
H689 C700 0.950 . S
H690 C702 0.950 . S
H691 C703 0.950 . S
C692 H684 0.950 . S
C692 C693 1.386 . S
C692 C694 1.391 . S
C693 C692 1.386 . S
C693 C697 1.393 . S
C694 H686 0.950 . S
C694 C692 1.391 . S
C694 C695 1.400 . S
C695 C694 1.400 . S
C695 C696 1.398 . S
C695 C701 1.491 . S
C696 H687 0.950 . S
C696 C695 1.398 . S
C696 C697 1.391 . S
C697 H685 0.950 . S
C697 C693 1.393 . S
C697 C696 1.391 . S
C698 H688 0.950 . S
C698 C699 1.386 . S
C698 C700 1.391 . S
C699 C698 1.386 . S
C699 C703 1.393 . S
C700 H689 0.950 . S
C700 C698 1.391 . S
C700 C701 1.400 . S
C701 C695 1.491 . S
C701 C700 1.400 . S
C701 C702 1.398 . S
C702 H690 0.950 . S
C702 C701 1.398 . S
C702 C703 1.391 . S
C703 H691 0.950 . S
C703 C699 1.393 . S
C703 C702 1.391 . S
H704 C712 0.950 . S
H705 C717 0.950 . S
H706 C714 0.950 . S
H707 C716 0.950 . S
H708 C718 0.950 . S
H709 C720 0.950 . S
H710 C722 0.950 . S
H711 C723 0.950 . S
C712 H704 0.950 . S
C712 C713 1.386 . S
C712 C714 1.391 . S
C713 C712 1.386 . S
C713 C717 1.393 . S
C714 H706 0.950 . S
C714 C712 1.391 . S
C714 C715 1.400 . S
C715 C714 1.400 . S
C715 C716 1.398 . S
C715 C721 1.491 . S
C716 H707 0.950 . S
C716 C715 1.398 . S
C716 C717 1.391 . S
C717 H705 0.950 . S
C717 C713 1.393 . S
C717 C716 1.391 . S
C718 H708 0.950 . S
C718 C719 1.386 . S
C718 C720 1.391 . S
C719 C718 1.386 . S
C719 C723 1.393 . S
C720 H709 0.950 . S
C720 C718 1.391 . S
C720 C721 1.400 . S
C721 C715 1.491 . S
C721 C720 1.400 . S
C721 C722 1.398 . S
C722 H710 0.950 . S
C722 C721 1.398 . S
C722 C723 1.391 . S
C723 H711 0.950 . S
C723 C719 1.393 . S
C723 C722 1.391 . S
H724 C732 0.950 . S
H725 C737 0.950 . S
H726 C734 0.950 . S
H727 C736 0.950 . S
H728 C738 0.950 . S
H729 C740 0.950 . S
H730 C742 0.950 . S
H731 C743 0.950 . S
C732 H724 0.950 . S
C732 C733 1.386 . S
C732 C734 1.391 . S
C733 C732 1.386 . S
C733 C737 1.393 . S
C734 H726 0.950 . S
C734 C732 1.391 . S
C734 C735 1.400 . S
C735 C734 1.400 . S
C735 C736 1.398 . S
C735 C741 1.491 . S
C736 H727 0.950 . S
C736 C735 1.398 . S
C736 C737 1.391 . S
C737 H725 0.950 . S
C737 C733 1.393 . S
C737 C736 1.391 . S
C738 H728 0.950 . S
C738 C739 1.386 . S
C738 C740 1.391 . S
C739 C738 1.386 . S
C739 C743 1.393 . S
C740 H729 0.950 . S
C740 C738 1.391 . S
C740 C741 1.400 . S
C741 C735 1.491 . S
C741 C740 1.400 . S
C741 C742 1.398 . S
C742 H730 0.950 . S
C742 C741 1.398 . S
C742 C743 1.391 . S
C743 H731 0.950 . S
C743 C739 1.393 . S
C743 C742 1.391 . S
H744 C752 0.950 . S
H745 C757 0.950 . S
H746 C754 0.950 . S
H747 C756 0.950 . S
H748 C758 0.950 . S
H749 C760 0.950 . S
H750 C762 0.950 . S
H751 C763 0.950 . S
C752 H744 0.950 . S
C752 C753 1.386 . S
C752 C754 1.391 . S
C753 C752 1.386 . S
C753 C757 1.393 . S
C754 H746 0.950 . S
C754 C752 1.391 . S
C754 C755 1.400 . S
C755 C754 1.400 . S
C755 C756 1.398 . S
C755 C761 1.491 . S
C756 H747 0.950 . S
C756 C755 1.398 . S
C756 C757 1.391 . S
C757 H745 0.950 . S
C757 C753 1.393 . S
C757 C756 1.391 . S
C758 H748 0.950 . S
C758 C759 1.386 . S
C758 C760 1.391 . S
C759 C758 1.386 . S
C759 C763 1.393 . S
C760 H749 0.950 . S
C760 C758 1.391 . S
C760 C761 1.400 . S
C761 C755 1.491 . S
C761 C760 1.400 . S
C761 C762 1.398 . S
C762 H750 0.950 . S
C762 C761 1.398 . S
C762 C763 1.391 . S
C763 H751 0.950 . S
C763 C759 1.393 . S
C763 C762 1.391 . S
H764 C772 0.950 . S
H765 C777 0.950 . S
H766 C774 0.950 . S
H767 C776 0.950 . S
H768 C778 0.950 . S
H769 C780 0.950 . S
H770 C782 0.950 . S
H771 C783 0.950 . S
C772 H764 0.950 . S
C772 C773 1.386 . S
C772 C774 1.391 . S
C773 C772 1.386 . S
C773 C777 1.393 . S
C774 H766 0.950 . S
C774 C772 1.391 . S
C774 C775 1.400 . S
C775 C774 1.400 . S
C775 C776 1.398 . S
C775 C781 1.491 . S
C776 H767 0.950 . S
C776 C775 1.398 . S
C776 C777 1.391 . S
C777 H765 0.950 . S
C777 C773 1.393 . S
C777 C776 1.391 . S
C778 H768 0.950 . S
C778 C779 1.386 . S
C778 C780 1.391 . S
C779 C778 1.386 . S
C779 C783 1.393 . S
C780 H769 0.950 . S
C780 C778 1.391 . S
C780 C781 1.400 . S
C781 C775 1.491 . S
C781 C780 1.400 . S
C781 C782 1.398 . S
C782 H770 0.950 . S
C782 C781 1.398 . S
C782 C783 1.391 . S
C783 H771 0.950 . S
C783 C779 1.393 . S
C783 C782 1.391 . S
H784 C792 0.950 . S
H785 C797 0.950 . S
H786 C794 0.950 . S
H787 C796 0.950 . S
H788 C798 0.950 . S
H789 C800 0.950 . S
H790 C802 0.950 . S
H791 C803 0.950 . S
C792 H784 0.950 . S
C792 C793 1.386 . S
C792 C794 1.391 . S
C793 C792 1.386 . S
C793 C797 1.393 . S
C794 H786 0.950 . S
C794 C792 1.391 . S
C794 C795 1.400 . S
C795 C794 1.400 . S
C795 C796 1.398 . S
C795 C801 1.491 . S
C796 H787 0.950 . S
C796 C795 1.398 . S
C796 C797 1.391 . S
C797 H785 0.950 . S
C797 C793 1.393 . S
C797 C796 1.391 . S
C798 H788 0.950 . S
C798 C799 1.386 . S
C798 C800 1.391 . S
C799 C798 1.386 . S
C799 C803 1.393 . S
C800 H789 0.950 . S
C800 C798 1.391 . S
C800 C801 1.400 . S
C801 C795 1.491 . S
C801 C800 1.400 . S
C801 C802 1.398 . S
C802 H790 0.950 . S
C802 C801 1.398 . S
C802 C803 1.391 . S
C803 H791 0.950 . S
C803 C799 1.393 . S
C803 C802 1.391 . S
H804 C812 0.950 . S
H805 C817 0.950 . S
H806 C814 0.950 . S
H807 C816 0.950 . S
H808 C818 0.950 . S
H809 C820 0.950 . S
H810 C822 0.950 . S
H811 C823 0.950 . S
C812 H804 0.950 . S
C812 C813 1.386 . S
C812 C814 1.391 . S
C813 C812 1.386 . S
C813 C817 1.393 . S
C814 H806 0.950 . S
C814 C812 1.391 . S
C814 C815 1.400 . S
C815 C814 1.400 . S
C815 C816 1.398 . S
C815 C821 1.491 . S
C816 H807 0.950 . S
C816 C815 1.398 . S
C816 C817 1.391 . S
C817 H805 0.950 . S
C817 C813 1.393 . S
C817 C816 1.391 . S
C818 H808 0.950 . S
C818 C819 1.386 . S
C818 C820 1.391 . S
C819 C818 1.386 . S
C819 C823 1.393 . S
C820 H809 0.950 . S
C820 C818 1.391 . S
C820 C821 1.400 . S
C821 C815 1.491 . S
C821 C820 1.400 . S
C821 C822 1.398 . S
C822 H810 0.950 . S
C822 C821 1.398 . S
C822 C823 1.391 . S
C823 H811 0.950 . S
C823 C819 1.393 . S
C823 C822 1.391 . S
H824 C832 0.950 . S
H825 C837 0.950 . S
H826 C834 0.950 . S
H827 C836 0.950 . S
H828 C838 0.950 . S
H829 C840 0.950 . S
H830 C842 0.950 . S
H831 C843 0.950 . S
C832 H824 0.950 . S
C832 C833 1.386 . S
C832 C834 1.391 . S
C833 C832 1.386 . S
C833 C837 1.393 . S
C834 H826 0.950 . S
C834 C832 1.391 . S
C834 C835 1.400 . S
C835 C834 1.400 . S
C835 C836 1.398 . S
C835 C841 1.491 . S
C836 H827 0.950 . S
C836 C835 1.398 . S
C836 C837 1.391 . S
C837 H825 0.950 . S
C837 C833 1.393 . S
C837 C836 1.391 . S
C838 H828 0.950 . S
C838 C839 1.386 . S
C838 C840 1.391 . S
C839 C838 1.386 . S
C839 C843 1.393 . S
C840 H829 0.950 . S
C840 C838 1.391 . S
C840 C841 1.400 . S
C841 C835 1.491 . S
C841 C840 1.400 . S
C841 C842 1.398 . S
C842 H830 0.950 . S
C842 C841 1.398 . S
C842 C843 1.391 . S
C843 H831 0.950 . S
C843 C839 1.393 . S
C843 C842 1.391 . S
H844 C852 0.950 . S
H845 C857 0.950 . S
H846 C854 0.950 . S
H847 C856 0.950 . S
H848 C858 0.950 . S
H849 C860 0.950 . S
H850 C862 0.950 . S
H851 C863 0.950 . S
C852 H844 0.950 . S
C852 C853 1.386 . S
C852 C854 1.391 . S
C853 C852 1.386 . S
C853 C857 1.393 . S
C854 H846 0.950 . S
C854 C852 1.391 . S
C854 C855 1.400 . S
C855 C854 1.400 . S
C855 C856 1.398 . S
C855 C861 1.491 . S
C856 H847 0.950 . S
C856 C855 1.398 . S
C856 C857 1.391 . S
C857 H845 0.950 . S
C857 C853 1.393 . S
C857 C856 1.391 . S
C858 H848 0.950 . S
C858 C859 1.386 . S
C858 C860 1.391 . S
C859 C858 1.386 . S
C859 C863 1.393 . S
C860 H849 0.950 . S
C860 C858 1.391 . S
C860 C861 1.400 . S
C861 C855 1.491 . S
C861 C860 1.400 . S
C861 C862 1.398 . S
C862 H850 0.950 . S
C862 C861 1.398 . S
C862 C863 1.391 . S
C863 H851 0.950 . S
C863 C859 1.393 . S
C863 C862 1.391 . S
H864 C872 0.952 . S
H865 C877 0.950 . S
H866 C874 0.950 . S
H867 C876 0.950 . S
H868 C878 0.953 . S
H869 C880 0.950 . S
H870 C882 0.950 . S
H871 C883 0.950 . S
C872 H864 0.952 . S
C872 C873 1.386 . S
C872 C874 1.391 1_554 S
C873 C872 1.386 . S
C873 C877 1.393 . S
C874 H866 0.950 . S
C874 C872 1.391 1_556 S
C874 C875 1.400 1_556 S
C875 C874 1.400 1_554 S
C875 C876 1.398 . S
C875 C881 1.491 1_454 S
C876 H867 0.950 . S
C876 C875 1.398 . S
C876 C877 1.391 . S
C877 H865 0.950 . S
C877 C873 1.393 . S
C877 C876 1.391 . S
C878 H868 0.953 . S
C878 C879 1.386 . S
C878 C880 1.391 1_556 S
C879 C878 1.386 . S
C879 C883 1.393 . S
C880 H869 0.950 . S
C880 C878 1.391 1_554 S
C880 C881 1.400 1_554 S
C881 C875 1.491 1_656 S
C881 C880 1.400 1_556 S
C881 C882 1.398 . S
C882 H870 0.950 . S
C882 C881 1.398 . S
C882 C883 1.391 . S
C883 H871 0.950 . S
C883 C879 1.393 . S
C883 C882 1.391 . S
H884 C892 0.950 . S
H885 C897 0.950 . S
H886 C894 0.950 . S
H887 C896 0.950 . S
H888 C898 0.950 . S
H889 C900 0.950 . S
H890 C902 0.950 . S
H891 C903 0.950 . S
C892 H884 0.950 . S
C892 C893 1.386 . S
C892 C894 1.391 . S
C893 C892 1.386 . S
C893 C897 1.393 . S
C894 H886 0.950 . S
C894 C892 1.391 . S
C894 C895 1.400 . S
C895 C894 1.400 . S
C895 C896 1.398 1_556 S
C895 C901 1.491 1_556 S
C896 H887 0.950 . S
C896 C895 1.398 1_554 S
C896 C897 1.391 1_554 S
C897 H885 0.950 . S
C897 C893 1.393 . S
C897 C896 1.391 1_556 S
C898 H888 0.950 . S
C898 C899 1.386 . S
C898 C900 1.391 . S
C899 C898 1.386 . S
C899 C903 1.393 . S
C900 H889 0.950 . S
C900 C898 1.391 . S
C900 C901 1.400 . S
C901 C895 1.491 1_554 S
C901 C900 1.400 . S
C901 C902 1.398 1_554 S
C902 H890 0.950 . S
C902 C901 1.398 1_556 S
C902 C903 1.391 1_556 S
C903 H891 0.950 . S
C903 C899 1.393 . S
C903 C902 1.391 1_554 S
H904 C912 0.950 . S
H905 C917 0.950 . S
H906 C914 0.950 . S
H907 C916 0.950 . S
H908 C918 0.950 . S
H909 C920 0.950 . S
H910 C922 0.950 . S
H911 C923 0.950 . S
C912 H904 0.950 . S
C912 C913 1.386 . S
C912 C914 1.391 . S
C913 C912 1.386 . S
C913 C917 1.393 . S
C914 H906 0.950 . S
C914 C912 1.391 . S
C914 C915 1.400 . S
C915 C914 1.400 . S
C915 C916 1.398 1_554 S
C915 C921 1.491 1_564 S
C916 H907 0.950 . S
C916 C915 1.398 1_556 S
C916 C917 1.391 1_556 S
C917 H905 0.950 . S
C917 C913 1.393 . S
C917 C916 1.391 1_554 S
C918 H908 0.950 . S
C918 C919 1.386 . S
C918 C920 1.391 . S
C919 C918 1.386 . S
C919 C923 1.393 . S
C920 H909 0.950 . S
C920 C918 1.391 . S
C920 C921 1.400 . S
C921 C915 1.491 1_546 S
C921 C920 1.400 . S
C921 C922 1.398 1_556 S
C922 H910 0.950 . S
C922 C921 1.398 1_554 S
C922 C923 1.391 1_554 S
C923 H911 0.950 . S
C923 C919 1.393 . S
C923 C922 1.391 1_556 S
H924 C932 0.950 . S
H925 C937 0.950 . S
H926 C934 0.950 . S
H927 C936 0.950 . S
H928 C938 0.950 . S
H929 C940 0.950 . S
H930 C942 0.950 . S
H931 C943 0.950 . S
C932 H924 0.950 . S
C932 C933 1.386 . S
C932 C934 1.391 1_556 S
C933 C932 1.386 . S
C933 C937 1.393 . S
C934 H926 0.950 . S
C934 C932 1.391 1_554 S
C934 C935 1.400 1_554 S
C935 C934 1.400 1_556 S
C935 C936 1.398 . S
C935 C941 1.491 1_656 S
C936 H927 0.950 . S
C936 C935 1.398 . S
C936 C937 1.391 . S
C937 H925 0.950 . S
C937 C933 1.393 . S
C937 C936 1.391 . S
C938 H928 0.950 . S
C938 C939 1.386 . S
C938 C940 1.391 1_554 S
C939 C938 1.386 . S
C939 C943 1.393 . S
C940 H929 0.950 . S
C940 C938 1.391 1_556 S
C940 C941 1.400 1_556 S
C941 C935 1.491 1_454 S
C941 C940 1.400 1_554 S
C941 C942 1.398 . S
C942 H930 0.950 . S
C942 C941 1.398 . S
C942 C943 1.391 . S
C943 H931 0.950 . S
C943 C939 1.393 . S
C943 C942 1.391 . S
H944 C952 0.950 . S
H945 C957 0.950 . S
H946 C954 0.950 . S
H947 C956 0.950 1_554 S
H948 C958 0.950 . S
H949 C960 0.950 . S
H950 C962 0.950 1_556 S
H951 C963 0.950 . S
C952 H944 0.950 . S
C952 C953 1.386 . S
C952 C954 1.391 . S
C953 C952 1.386 . S
C953 C957 1.393 . S
C954 H946 0.950 . S
C954 C952 1.391 . S
C954 C955 1.400 . S
C955 C954 1.400 . S
C955 C956 1.398 . S
C955 C961 1.491 1_556 S
C956 H947 0.950 1_556 S
C956 C955 1.398 . S
C956 C957 1.391 . S
C957 H945 0.950 . S
C957 C953 1.393 . S
C957 C956 1.391 . S
C958 H948 0.950 . S
C958 C959 1.386 . S
C958 C960 1.391 . S
C959 C958 1.386 . S
C959 C963 1.393 . S
C960 H949 0.950 . S
C960 C958 1.391 . S
C960 C961 1.400 . S
C961 C955 1.491 1_554 S
C961 C960 1.400 . S
C961 C962 1.398 . S
C962 H950 0.950 1_554 S
C962 C961 1.398 . S
C962 C963 1.391 . S
C963 H951 0.950 . S
C963 C959 1.393 . S
C963 C962 1.391 . S
H964 C972 0.950 . S
H965 C977 0.950 . S
H966 C974 0.950 1_554 S
H967 C976 0.950 . S
H968 C978 0.950 . S
H969 C980 0.950 1_556 S
H970 C982 0.950 . S
H971 C983 0.950 . S
C972 H964 0.950 . S
C972 C973 1.386 . S
C972 C974 1.391 . S
C973 C972 1.386 . S
C973 C977 1.393 . S
C974 H966 0.950 1_556 S
C974 C972 1.391 . S
C974 C975 1.400 . S
C975 C974 1.400 . S
C975 C976 1.398 . S
C975 C981 1.491 1_546 S
C976 H967 0.950 . S
C976 C975 1.398 . S
C976 C977 1.391 . S
C977 H965 0.950 . S
C977 C973 1.393 . S
C977 C976 1.391 . S
C978 H968 0.950 . S
C978 C979 1.386 . S
C978 C980 1.391 . S
C979 C978 1.386 . S
C979 C983 1.393 . S
C980 H969 0.950 1_554 S
C980 C978 1.391 . S
C980 C981 1.400 . S
C981 C975 1.491 1_564 S
C981 C980 1.400 . S
C981 C982 1.398 . S
C982 H970 0.950 . S
C982 C981 1.398 . S
C982 C983 1.391 . S
C983 H971 0.950 . S
C983 C979 1.393 . S
C983 C982 1.391 . S
H984 C992 0.950 . S
H985 C997 0.950 . S
H986 C994 0.950 . S
H987 C996 0.950 . S
H988 C998 0.950 . S
H989 C1000 0.950 . S
H990 C1002 0.950 . S
H991 C1003 0.950 . S
C992 H984 0.950 . S
C992 C993 1.386 . S
C992 C994 1.391 . S
C993 C992 1.386 . S
C993 C997 1.393 . S
C994 H986 0.950 . S
C994 C992 1.391 . S
C994 C995 1.400 . S
C995 C994 1.400 . S
C995 C996 1.398 . S
C995 C1001 1.491 . S
C996 H987 0.950 . S
C996 C995 1.398 . S
C996 C997 1.391 . S
C997 H985 0.950 . S
C997 C993 1.393 . S
C997 C996 1.391 . S
C998 H988 0.950 . S
C998 C999 1.386 . S
C998 C1000 1.391 . S
C999 C998 1.386 . S
C999 C1003 1.393 . S
C1000 H989 0.950 . S
C1000 C998 1.391 . S
C1000 C1001 1.400 . S
C1001 C995 1.491 . S
C1001 C1000 1.400 . S
C1001 C1002 1.398 . S
C1002 H990 0.950 . S
C1002 C1001 1.398 . S
C1002 C1003 1.391 . S
C1003 H991 0.950 . S
C1003 C999 1.393 . S
C1003 C1002 1.391 . S
H1004 C1012 0.950 . S
H1005 C1017 0.950 . S
H1006 C1014 0.950 . S
H1007 C1016 0.950 . S
H1008 C1018 0.950 . S
H1009 C1020 0.950 . S
H1010 C1022 0.950 . S
H1011 C1023 0.950 . S
C1012 H1004 0.950 . S
C1012 C1013 1.386 . S
C1012 C1014 1.391 . S
C1013 C1012 1.386 . S
C1013 C1017 1.393 . S
C1014 H1006 0.950 . S
C1014 C1012 1.391 . S
C1014 C1015 1.400 . S
C1015 C1014 1.400 . S
C1015 C1016 1.398 . S
C1015 C1021 1.491 . S
C1016 H1007 0.950 . S
C1016 C1015 1.398 . S
C1016 C1017 1.391 . S
C1017 H1005 0.950 . S
C1017 C1013 1.393 . S
C1017 C1016 1.391 . S
C1018 H1008 0.950 . S
C1018 C1019 1.386 . S
C1018 C1020 1.391 . S
C1019 C1018 1.386 . S
C1019 C1023 1.393 . S
C1020 H1009 0.950 . S
C1020 C1018 1.391 . S
C1020 C1021 1.400 . S
C1021 C1015 1.491 . S
C1021 C1020 1.400 . S
C1021 C1022 1.398 . S
C1022 H1010 0.950 . S
C1022 C1021 1.398 . S
C1022 C1023 1.391 . S
C1023 H1011 0.950 . S
C1023 C1019 1.393 . S
C1023 C1022 1.391 . S
H1024 C1032 0.950 . S
H1025 C1037 0.950 . S
H1026 C1034 0.950 . S
H1027 C1036 0.950 . S
H1028 C1038 0.950 . S
H1029 C1040 0.950 . S
H1030 C1042 0.950 . S
H1031 C1043 0.950 . S
C1032 H1024 0.950 . S
C1032 C1033 1.386 . S
C1032 C1034 1.391 . S
C1033 C1032 1.386 . S
C1033 C1037 1.393 . S
C1034 H1026 0.950 . S
C1034 C1032 1.391 . S
C1034 C1035 1.400 . S
C1035 C1034 1.400 . S
C1035 C1036 1.398 . S
C1035 C1041 1.491 . S
C1036 H1027 0.950 . S
C1036 C1035 1.398 . S
C1036 C1037 1.391 . S
C1037 H1025 0.950 . S
C1037 C1033 1.393 . S
C1037 C1036 1.391 . S
C1038 H1028 0.950 . S
C1038 C1039 1.386 . S
C1038 C1040 1.391 . S
C1039 C1038 1.386 . S
C1039 C1043 1.393 . S
C1040 H1029 0.950 . S
C1040 C1038 1.391 . S
C1040 C1041 1.400 . S
C1041 C1035 1.491 . S
C1041 C1040 1.400 . S
C1041 C1042 1.398 . S
C1042 H1030 0.950 . S
C1042 C1041 1.398 . S
C1042 C1043 1.391 . S
C1043 H1031 0.950 . S
C1043 C1039 1.393 . S
C1043 C1042 1.391 . S
H1044 C1052 0.950 . S
H1045 C1057 0.950 . S
H1046 C1054 0.950 . S
H1047 C1056 0.950 . S
H1048 C1058 0.950 . S
H1049 C1060 0.950 . S
H1050 C1062 0.950 . S
H1051 C1063 0.950 . S
C1052 H1044 0.950 . S
C1052 C1053 1.386 . S
C1052 C1054 1.391 . S
C1053 C1052 1.386 . S
C1053 C1057 1.393 . S
C1054 H1046 0.950 . S
C1054 C1052 1.391 . S
C1054 C1055 1.400 . S
C1055 C1054 1.400 . S
C1055 C1056 1.398 . S
C1055 C1061 1.491 . S
C1056 H1047 0.950 . S
C1056 C1055 1.398 . S
C1056 C1057 1.391 . S
C1057 H1045 0.950 . S
C1057 C1053 1.393 . S
C1057 C1056 1.391 . S
C1058 H1048 0.950 . S
C1058 C1059 1.386 . S
C1058 C1060 1.391 . S
C1059 C1058 1.386 . S
C1059 C1063 1.393 . S
C1060 H1049 0.950 . S
C1060 C1058 1.391 . S
C1060 C1061 1.400 . S
C1061 C1055 1.491 . S
C1061 C1060 1.400 . S
C1061 C1062 1.398 . S
C1062 H1050 0.950 . S
C1062 C1061 1.398 . S
C1062 C1063 1.391 . S
C1063 H1051 0.950 . S
C1063 C1059 1.393 . S
C1063 C1062 1.391 . S
H1064 C1072 0.950 . S
H1065 C1077 0.950 . S
H1066 C1074 0.950 . S
H1067 C1076 0.950 . S
H1068 C1078 0.950 . S
H1069 C1080 0.950 . S
H1070 C1082 0.950 . S
H1071 C1083 0.950 . S
C1072 H1064 0.950 . S
C1072 C1073 1.386 . S
C1072 C1074 1.391 . S
C1073 C1072 1.386 . S
C1073 C1077 1.393 . S
C1074 H1066 0.950 . S
C1074 C1072 1.391 . S
C1074 C1075 1.400 . S
C1075 C1074 1.400 . S
C1075 C1076 1.398 . S
C1075 C1081 1.491 . S
C1076 H1067 0.950 . S
C1076 C1075 1.398 . S
C1076 C1077 1.391 . S
C1077 H1065 0.950 . S
C1077 C1073 1.393 . S
C1077 C1076 1.391 . S
C1078 H1068 0.950 . S
C1078 C1079 1.386 . S
C1078 C1080 1.391 . S
C1079 C1078 1.386 . S
C1079 C1083 1.393 . S
C1080 H1069 0.950 . S
C1080 C1078 1.391 . S
C1080 C1081 1.400 . S
C1081 C1075 1.491 . S
C1081 C1080 1.400 . S
C1081 C1082 1.398 . S
C1082 H1070 0.950 . S
C1082 C1081 1.398 . S
C1082 C1083 1.391 . S
C1083 H1071 0.950 . S
C1083 C1079 1.393 . S
C1083 C1082 1.391 . S
H1084 C1092 0.950 . S
H1085 C1097 0.950 . S
H1086 C1094 0.950 . S
H1087 C1096 0.950 . S
H1088 C1098 0.950 . S
H1089 C1100 0.950 . S
H1090 C1102 0.950 . S
H1091 C1103 0.950 . S
C1092 H1084 0.950 . S
C1092 C1093 1.386 . S
C1092 C1094 1.391 . S
C1093 C1092 1.386 . S
C1093 C1097 1.393 . S
C1094 H1086 0.950 . S
C1094 C1092 1.391 . S
C1094 C1095 1.400 . S
C1095 C1094 1.400 . S
C1095 C1096 1.398 . S
C1095 C1101 1.491 . S
C1096 H1087 0.950 . S
C1096 C1095 1.398 . S
C1096 C1097 1.391 . S
C1097 H1085 0.950 . S
C1097 C1093 1.393 . S
C1097 C1096 1.391 . S
C1098 H1088 0.950 . S
C1098 C1099 1.386 . S
C1098 C1100 1.391 . S
C1099 C1098 1.386 . S
C1099 C1103 1.393 . S
C1100 H1089 0.950 . S
C1100 C1098 1.391 . S
C1100 C1101 1.400 . S
C1101 C1095 1.491 . S
C1101 C1100 1.400 . S
C1101 C1102 1.398 . S
C1102 H1090 0.950 . S
C1102 C1101 1.398 . S
C1102 C1103 1.391 . S
C1103 H1091 0.950 . S
C1103 C1099 1.393 . S
C1103 C1102 1.391 . S
H1104 C1112 0.950 . S
H1105 C1117 0.950 . S
H1106 C1114 0.950 . S
H1107 C1116 0.950 . S
H1108 C1118 0.950 . S
H1109 C1120 0.950 . S
H1110 C1122 0.950 . S
H1111 C1123 0.950 . S
C1112 H1104 0.950 . S
C1112 C1113 1.386 . S
C1112 C1114 1.391 . S
C1113 C1112 1.386 . S
C1113 C1117 1.393 . S
C1114 H1106 0.950 . S
C1114 C1112 1.391 . S
C1114 C1115 1.400 . S
C1115 C1114 1.400 . S
C1115 C1116 1.398 . S
C1115 C1121 1.491 . S
C1116 H1107 0.950 . S
C1116 C1115 1.398 . S
C1116 C1117 1.391 . S
C1117 H1105 0.950 . S
C1117 C1113 1.393 . S
C1117 C1116 1.391 . S
C1118 H1108 0.950 . S
C1118 C1119 1.386 . S
C1118 C1120 1.391 . S
C1119 C1118 1.386 . S
C1119 C1123 1.393 . S
C1120 H1109 0.950 . S
C1120 C1118 1.391 . S
C1120 C1121 1.400 . S
C1121 C1115 1.491 . S
C1121 C1120 1.400 . S
C1121 C1122 1.398 . S
C1122 H1110 0.950 . S
C1122 C1121 1.398 . S
C1122 C1123 1.391 . S
C1123 H1111 0.950 . S
C1123 C1119 1.393 . S
C1123 C1122 1.391 . S
H1124 C1132 0.950 . S
H1125 C1137 0.950 . S
H1126 C1134 0.950 . S
H1127 C1136 0.950 . S
H1128 C1138 0.950 . S
H1129 C1140 0.950 . S
H1130 C1142 0.950 . S
H1131 C1143 0.950 . S
C1132 H1124 0.950 . S
C1132 C1133 1.386 . S
C1132 C1134 1.391 . S
C1133 C1132 1.386 . S
C1133 C1137 1.393 . S
C1134 H1126 0.950 . S
C1134 C1132 1.391 . S
C1134 C1135 1.400 . S
C1135 C1134 1.400 . S
C1135 C1136 1.398 . S
C1135 C1141 1.491 . S
C1136 H1127 0.950 . S
C1136 C1135 1.398 . S
C1136 C1137 1.391 . S
C1137 H1125 0.950 . S
C1137 C1133 1.393 . S
C1137 C1136 1.391 . S
C1138 H1128 0.950 . S
C1138 C1139 1.386 . S
C1138 C1140 1.391 . S
C1139 C1138 1.386 . S
C1139 C1143 1.393 . S
C1140 H1129 0.950 . S
C1140 C1138 1.391 . S
C1140 C1141 1.400 . S
C1141 C1135 1.491 . S
C1141 C1140 1.400 . S
C1141 C1142 1.398 . S
C1142 H1130 0.950 . S
C1142 C1141 1.398 . S
C1142 C1143 1.391 . S
C1143 H1131 0.950 . S
C1143 C1139 1.393 . S
C1143 C1142 1.391 . S
H1144 C1152 0.950 . S
H1145 C1157 0.950 . S
H1146 C1154 0.950 . S
H1147 C1156 0.950 . S
H1148 C1158 0.950 . S
H1149 C1160 0.950 . S
H1150 C1162 0.950 . S
H1151 C1163 0.950 . S
C1152 H1144 0.950 . S
C1152 C1153 1.386 . S
C1152 C1154 1.391 . S
C1153 C1152 1.386 . S
C1153 C1157 1.393 . S
C1154 H1146 0.950 . S
C1154 C1152 1.391 . S
C1154 C1155 1.400 . S
C1155 C1154 1.400 . S
C1155 C1156 1.398 . S
C1155 C1161 1.491 . S
C1156 H1147 0.950 . S
C1156 C1155 1.398 . S
C1156 C1157 1.391 . S
C1157 H1145 0.950 . S
C1157 C1153 1.393 . S
C1157 C1156 1.391 . S
C1158 H1148 0.950 . S
C1158 C1159 1.386 . S
C1158 C1160 1.391 . S
C1159 C1158 1.386 . S
C1159 C1163 1.393 . S
C1160 H1149 0.950 . S
C1160 C1158 1.391 . S
C1160 C1161 1.400 . S
C1161 C1155 1.491 . S
C1161 C1160 1.400 . S
C1161 C1162 1.398 . S
C1162 H1150 0.950 . S
C1162 C1161 1.398 . S
C1162 C1163 1.391 . S
C1163 H1151 0.950 . S
C1163 C1159 1.393 . S
C1163 C1162 1.391 . S
H1164 C1172 0.950 . S
H1165 C1177 0.950 . S
H1166 C1174 0.950 . S
H1167 C1176 0.950 . S
H1168 C1178 0.950 . S
H1169 C1180 0.950 . S
H1170 C1182 0.950 . S
H1171 C1183 0.950 . S
C1172 H1164 0.950 . S
C1172 C1173 1.386 . S
C1172 C1174 1.391 . S
C1173 C1172 1.386 . S
C1173 C1177 1.393 . S
C1174 H1166 0.950 . S
C1174 C1172 1.391 . S
C1174 C1175 1.400 . S
C1175 C1174 1.400 . S
C1175 C1176 1.398 . S
C1175 C1181 1.491 . S
C1176 H1167 0.950 . S
C1176 C1175 1.398 . S
C1176 C1177 1.391 . S
C1177 H1165 0.950 . S
C1177 C1173 1.393 . S
C1177 C1176 1.391 . S
C1178 H1168 0.950 . S
C1178 C1179 1.386 . S
C1178 C1180 1.391 . S
C1179 C1178 1.386 . S
C1179 C1183 1.393 . S
C1180 H1169 0.950 . S
C1180 C1178 1.391 . S
C1180 C1181 1.400 . S
C1181 C1175 1.491 . S
C1181 C1180 1.400 . S
C1181 C1182 1.398 . S
C1182 H1170 0.950 . S
C1182 C1181 1.398 . S
C1182 C1183 1.391 . S
C1183 H1171 0.950 . S
C1183 C1179 1.393 . S
C1183 C1182 1.391 . S
H1184 C1192 0.950 . S
H1185 C1197 0.950 . S
H1186 C1194 0.950 . S
H1187 C1196 0.950 . S
H1188 C1198 0.950 . S
H1189 C1200 0.950 . S
H1190 C1202 0.950 . S
H1191 C1203 0.950 . S
C1192 H1184 0.950 . S
C1192 C1193 1.386 . S
C1192 C1194 1.391 . S
C1193 C1192 1.386 . S
C1193 C1197 1.393 . S
C1194 H1186 0.950 . S
C1194 C1192 1.391 . S
C1194 C1195 1.400 . S
C1195 C1194 1.400 . S
C1195 C1196 1.398 . S
C1195 C1201 1.491 . S
C1196 H1187 0.950 . S
C1196 C1195 1.398 . S
C1196 C1197 1.391 . S
C1197 H1185 0.950 . S
C1197 C1193 1.393 . S
C1197 C1196 1.391 . S
C1198 H1188 0.950 . S
C1198 C1199 1.386 . S
C1198 C1200 1.391 . S
C1199 C1198 1.386 . S
C1199 C1203 1.393 . S
C1200 H1189 0.950 . S
C1200 C1198 1.391 . S
C1200 C1201 1.400 . S
C1201 C1195 1.491 . S
C1201 C1200 1.400 . S
C1201 C1202 1.398 . S
C1202 H1190 0.950 . S
C1202 C1201 1.398 . S
C1202 C1203 1.391 . S
C1203 H1191 0.950 . S
C1203 C1199 1.393 . S
C1203 C1202 1.391 . S
H1204 C1212 0.950 . S
H1205 C1217 0.950 . S
H1206 C1214 0.950 . S
H1207 C1216 0.950 . S
H1208 C1218 0.950 . S
H1209 C1220 0.950 . S
H1210 C1222 0.950 . S
H1211 C1223 0.950 . S
C1212 H1204 0.950 . S
C1212 C1213 1.386 . S
C1212 C1214 1.391 . S
C1213 C1212 1.386 . S
C1213 C1217 1.393 . S
C1214 H1206 0.950 . S
C1214 C1212 1.391 . S
C1214 C1215 1.400 . S
C1215 C1214 1.400 . S
C1215 C1216 1.398 . S
C1215 C1221 1.491 . S
C1216 H1207 0.950 . S
C1216 C1215 1.398 . S
C1216 C1217 1.391 . S
C1217 H1205 0.950 . S
C1217 C1213 1.393 . S
C1217 C1216 1.391 . S
C1218 H1208 0.950 . S
C1218 C1219 1.386 . S
C1218 C1220 1.391 . S
C1219 C1218 1.386 . S
C1219 C1223 1.393 . S
C1220 H1209 0.950 . S
C1220 C1218 1.391 . S
C1220 C1221 1.400 . S
C1221 C1215 1.491 . S
C1221 C1220 1.400 . S
C1221 C1222 1.398 . S
C1222 H1210 0.950 . S
C1222 C1221 1.398 . S
C1222 C1223 1.391 . S
C1223 H1211 0.950 . S
C1223 C1219 1.393 . S
C1223 C1222 1.391 . S
H1224 C1232 0.950 . S
H1225 C1237 0.950 . S
H1226 C1234 0.950 . S
H1227 C1236 0.950 . S
H1228 C1238 0.950 . S
H1229 C1240 0.950 . S
H1230 C1242 0.950 . S
H1231 C1243 0.950 . S
C1232 H1224 0.950 . S
C1232 C1233 1.386 . S
C1232 C1234 1.391 . S
C1233 C1232 1.386 . S
C1233 C1237 1.393 . S
C1234 H1226 0.950 . S
C1234 C1232 1.391 . S
C1234 C1235 1.400 . S
C1235 C1234 1.400 . S
C1235 C1236 1.398 . S
C1235 C1241 1.491 . S
C1236 H1227 0.950 . S
C1236 C1235 1.398 . S
C1236 C1237 1.391 . S
C1237 H1225 0.950 . S
C1237 C1233 1.393 . S
C1237 C1236 1.391 . S
C1238 H1228 0.950 . S
C1238 C1239 1.386 . S
C1238 C1240 1.391 . S
C1239 C1238 1.386 . S
C1239 C1243 1.393 . S
C1240 H1229 0.950 . S
C1240 C1238 1.391 . S
C1240 C1241 1.400 . S
C1241 C1235 1.491 . S
C1241 C1240 1.400 . S
C1241 C1242 1.398 . S
C1242 H1230 0.950 . S
C1242 C1241 1.398 . S
C1242 C1243 1.391 . S
C1243 H1231 0.950 . S
C1243 C1239 1.393 . S
C1243 C1242 1.391 . S
H1244 C1252 0.950 . S
H1245 C1257 0.950 . S
H1246 C1254 0.950 . S
H1247 C1256 0.950 . S
H1248 C1258 0.950 . S
H1249 C1260 0.950 . S
H1250 C1262 0.950 . S
H1251 C1263 0.950 . S
C1252 H1244 0.950 . S
C1252 C1253 1.386 . S
C1252 C1254 1.391 . S
C1253 C1252 1.386 . S
C1253 C1257 1.393 . S
C1254 H1246 0.950 . S
C1254 C1252 1.391 . S
C1254 C1255 1.400 . S
C1255 C1254 1.400 . S
C1255 C1256 1.398 . S
C1255 C1261 1.491 . S
C1256 H1247 0.950 . S
C1256 C1255 1.398 . S
C1256 C1257 1.391 . S
C1257 H1245 0.950 . S
C1257 C1253 1.393 . S
C1257 C1256 1.391 . S
C1258 H1248 0.950 . S
C1258 C1259 1.386 . S
C1258 C1260 1.391 . S
C1259 C1258 1.386 . S
C1259 C1263 1.393 . S
C1260 H1249 0.950 . S
C1260 C1258 1.391 . S
C1260 C1261 1.400 . S
C1261 C1255 1.491 . S
C1261 C1260 1.400 . S
C1261 C1262 1.398 . S
C1262 H1250 0.950 . S
C1262 C1261 1.398 . S
C1262 C1263 1.391 . S
C1263 H1251 0.950 . S
C1263 C1259 1.393 . S
C1263 C1262 1.391 . S
H1264 C1272 0.950 . S
H1265 C1277 0.950 . S
H1266 C1274 0.950 . S
H1267 C1276 0.950 . S
H1268 C1278 0.950 . S
H1269 C1280 0.950 . S
H1270 C1282 0.950 . S
H1271 C1283 0.950 . S
C1272 H1264 0.950 . S
C1272 C1273 1.386 . S
C1272 C1274 1.391 . S
C1273 C1272 1.386 . S
C1273 C1277 1.393 . S
C1274 H1266 0.950 . S
C1274 C1272 1.391 . S
C1274 C1275 1.400 . S
C1275 C1274 1.400 . S
C1275 C1276 1.398 . S
C1275 C1281 1.491 . S
C1276 H1267 0.950 . S
C1276 C1275 1.398 . S
C1276 C1277 1.391 . S
C1277 H1265 0.950 . S
C1277 C1273 1.393 . S
C1277 C1276 1.391 . S
C1278 H1268 0.950 . S
C1278 C1279 1.386 . S
C1278 C1280 1.391 . S
C1279 C1278 1.386 . S
C1279 C1283 1.393 . S
C1280 H1269 0.950 . S
C1280 C1278 1.391 . S
C1280 C1281 1.400 . S
C1281 C1275 1.491 . S
C1281 C1280 1.400 . S
C1281 C1282 1.398 . S
C1282 H1270 0.950 . S
C1282 C1281 1.398 . S
C1282 C1283 1.391 . S
C1283 H1271 0.950 . S
C1283 C1279 1.393 . S
C1283 C1282 1.391 . S
H1284 C1292 0.950 . S
H1285 C1297 0.950 . S
H1286 C1294 0.950 . S
H1287 C1296 0.950 . S
H1288 C1298 0.950 . S
H1289 C1300 0.950 . S
H1290 C1302 0.950 . S
H1291 C1303 0.950 . S
C1292 H1284 0.950 . S
C1292 C1293 1.386 . S
C1292 C1294 1.391 . S
C1293 C1292 1.386 . S
C1293 C1297 1.393 . S
C1294 H1286 0.950 . S
C1294 C1292 1.391 . S
C1294 C1295 1.400 . S
C1295 C1294 1.400 . S
C1295 C1296 1.398 . S
C1295 C1301 1.491 . S
C1296 H1287 0.950 . S
C1296 C1295 1.398 . S
C1296 C1297 1.391 . S
C1297 H1285 0.950 . S
C1297 C1293 1.393 . S
C1297 C1296 1.391 . S
C1298 H1288 0.950 . S
C1298 C1299 1.386 . S
C1298 C1300 1.391 . S
C1299 C1298 1.386 . S
C1299 C1303 1.393 . S
C1300 H1289 0.950 . S
C1300 C1298 1.391 . S
C1300 C1301 1.400 . S
C1301 C1295 1.491 . S
C1301 C1300 1.400 . S
C1301 C1302 1.398 . S
C1302 H1290 0.950 . S
C1302 C1301 1.398 . S
C1302 C1303 1.391 . S
C1303 H1291 0.950 . S
C1303 C1299 1.393 . S
C1303 C1302 1.391 . S
H1304 C1312 0.950 . S
H1305 C1317 0.950 . S
H1306 C1314 0.950 . S
H1307 C1316 0.950 . S
H1308 C1318 0.950 . S
H1309 C1320 0.950 . S
H1310 C1322 0.950 . S
H1311 C1323 0.950 . S
C1312 H1304 0.950 . S
C1312 C1313 1.386 . S
C1312 C1314 1.391 . S
C1313 C1312 1.386 . S
C1313 C1317 1.393 . S
C1314 H1306 0.950 . S
C1314 C1312 1.391 . S
C1314 C1315 1.400 . S
C1315 C1314 1.400 . S
C1315 C1316 1.398 . S
C1315 C1321 1.491 . S
C1316 H1307 0.950 . S
C1316 C1315 1.398 . S
C1316 C1317 1.391 . S
C1317 H1305 0.950 . S
C1317 C1313 1.393 . S
C1317 C1316 1.391 . S
C1318 H1308 0.950 . S
C1318 C1319 1.386 . S
C1318 C1320 1.391 . S
C1319 C1318 1.386 . S
C1319 C1323 1.393 . S
C1320 H1309 0.950 . S
C1320 C1318 1.391 . S
C1320 C1321 1.400 . S
C1321 C1315 1.491 . S
C1321 C1320 1.400 . S
C1321 C1322 1.398 . S
C1322 H1310 0.950 . S
C1322 C1321 1.398 . S
C1322 C1323 1.391 . S
C1323 H1311 0.950 . S
C1323 C1319 1.393 . S
C1323 C1322 1.391 . S
H1324 C1332 0.950 . S
H1325 C1337 0.950 . S
H1326 C1334 0.950 . S
H1327 C1336 0.950 . S
H1328 C1338 0.950 . S
H1329 C1340 0.950 . S
H1330 C1342 0.950 . S
H1331 C1343 0.950 . S
C1332 H1324 0.950 . S
C1332 C1333 1.386 . S
C1332 C1334 1.391 . S
C1333 C1332 1.386 . S
C1333 C1337 1.393 . S
C1334 H1326 0.950 . S
C1334 C1332 1.391 . S
C1334 C1335 1.400 . S
C1335 C1334 1.400 . S
C1335 C1336 1.398 . S
C1335 C1341 1.491 . S
C1336 H1327 0.950 . S
C1336 C1335 1.398 . S
C1336 C1337 1.391 . S
C1337 H1325 0.950 . S
C1337 C1333 1.393 . S
C1337 C1336 1.391 . S
C1338 H1328 0.950 . S
C1338 C1339 1.386 . S
C1338 C1340 1.391 . S
C1339 C1338 1.386 . S
C1339 C1343 1.393 . S
C1340 H1329 0.950 . S
C1340 C1338 1.391 . S
C1340 C1341 1.400 . S
C1341 C1335 1.491 . S
C1341 C1340 1.400 . S
C1341 C1342 1.398 . S
C1342 H1330 0.950 . S
C1342 C1341 1.398 . S
C1342 C1343 1.391 . S
C1343 H1331 0.950 . S
C1343 C1339 1.393 . S
C1343 C1342 1.391 . S
H1344 C1352 0.950 . S
H1345 C1357 0.950 . S
H1346 C1354 0.950 . S
H1347 C1356 0.950 . S
H1348 C1358 0.950 . S
H1349 C1360 0.950 . S
H1350 C1362 0.950 . S
H1351 C1363 0.950 . S
C1352 H1344 0.950 . S
C1352 C1353 1.386 . S
C1352 C1354 1.391 . S
C1353 C1352 1.386 . S
C1353 C1357 1.393 . S
C1354 H1346 0.950 . S
C1354 C1352 1.391 . S
C1354 C1355 1.400 . S
C1355 C1354 1.400 . S
C1355 C1356 1.398 . S
C1355 C1361 1.491 . S
C1356 H1347 0.950 . S
C1356 C1355 1.398 . S
C1356 C1357 1.391 . S
C1357 H1345 0.950 . S
C1357 C1353 1.393 . S
C1357 C1356 1.391 . S
C1358 H1348 0.950 . S
C1358 C1359 1.386 . S
C1358 C1360 1.391 . S
C1359 C1358 1.386 . S
C1359 C1363 1.393 . S
C1360 H1349 0.950 . S
C1360 C1358 1.391 . S
C1360 C1361 1.400 . S
C1361 C1355 1.491 . S
C1361 C1360 1.400 . S
C1361 C1362 1.398 . S
C1362 H1350 0.950 . S
C1362 C1361 1.398 . S
C1362 C1363 1.391 . S
C1363 H1351 0.950 . S
C1363 C1359 1.393 . S
C1363 C1362 1.391 . S
H1364 C1372 0.950 . S
H1365 C1377 0.950 . S
H1366 C1374 0.950 . S
H1367 C1376 0.950 . S
H1368 C1378 0.950 . S
H1369 C1380 0.950 . S
H1370 C1382 0.950 . S
H1371 C1383 0.950 . S
C1372 H1364 0.950 . S
C1372 C1373 1.386 . S
C1372 C1374 1.391 . S
C1373 C1372 1.386 . S
C1373 C1377 1.393 . S
C1374 H1366 0.950 . S
C1374 C1372 1.391 . S
C1374 C1375 1.400 . S
C1375 C1374 1.400 . S
C1375 C1376 1.398 . S
C1375 C1381 1.491 . S
C1376 H1367 0.950 . S
C1376 C1375 1.398 . S
C1376 C1377 1.391 . S
C1377 H1365 0.950 . S
C1377 C1373 1.393 . S
C1377 C1376 1.391 . S
C1378 H1368 0.950 . S
C1378 C1379 1.386 . S
C1378 C1380 1.391 . S
C1379 C1378 1.386 . S
C1379 C1383 1.393 . S
C1380 H1369 0.950 . S
C1380 C1378 1.391 . S
C1380 C1381 1.400 . S
C1381 C1375 1.491 . S
C1381 C1380 1.400 . S
C1381 C1382 1.398 . S
C1382 H1370 0.950 . S
C1382 C1381 1.398 . S
C1382 C1383 1.391 . S
C1383 H1371 0.950 . S
C1383 C1379 1.393 . S
C1383 C1382 1.391 . S
H1384 C1392 0.950 . S
H1385 C1397 0.950 . S
H1386 C1394 0.950 . S
H1387 C1396 0.950 . S
H1388 C1398 0.950 . S
H1389 C1400 0.950 . S
H1390 C1402 0.950 . S
H1391 C1403 0.950 . S
C1392 H1384 0.950 . S
C1392 C1393 1.386 . S
C1392 C1394 1.391 . S
C1393 C1392 1.386 . S
C1393 C1397 1.393 . S
C1394 H1386 0.950 . S
C1394 C1392 1.391 . S
C1394 C1395 1.400 . S
C1395 C1394 1.400 . S
C1395 C1396 1.398 . S
C1395 C1401 1.491 . S
C1396 H1387 0.950 . S
C1396 C1395 1.398 . S
C1396 C1397 1.391 . S
C1397 H1385 0.950 . S
C1397 C1393 1.393 . S
C1397 C1396 1.391 . S
C1398 H1388 0.950 . S
C1398 C1399 1.386 . S
C1398 C1400 1.391 . S
C1399 C1398 1.386 . S
C1399 C1403 1.393 . S
C1400 H1389 0.950 . S
C1400 C1398 1.391 . S
C1400 C1401 1.400 . S
C1401 C1395 1.491 . S
C1401 C1400 1.400 . S
C1401 C1402 1.398 . S
C1402 H1390 0.950 . S
C1402 C1401 1.398 . S
C1402 C1403 1.391 . S
C1403 H1391 0.950 . S
C1403 C1399 1.393 . S
C1403 C1402 1.391 . S
H1404 C1412 0.950 . S
H1405 C1417 0.950 . S
H1406 C1414 0.950 . S
H1407 C1416 0.950 . S
H1408 C1418 0.950 . S
H1409 C1420 0.950 . S
H1410 C1422 0.950 . S
H1411 C1423 0.950 . S
C1412 H1404 0.950 . S
C1412 C1413 1.386 . S
C1412 C1414 1.391 . S
C1413 C1412 1.386 . S
C1413 C1417 1.393 . S
C1414 H1406 0.950 . S
C1414 C1412 1.391 . S
C1414 C1415 1.400 . S
C1415 C1414 1.400 . S
C1415 C1416 1.398 . S
C1415 C1421 1.491 . S
C1416 H1407 0.950 . S
C1416 C1415 1.398 . S
C1416 C1417 1.391 . S
C1417 H1405 0.950 . S
C1417 C1413 1.393 . S
C1417 C1416 1.391 . S
C1418 H1408 0.950 . S
C1418 C1419 1.386 . S
C1418 C1420 1.391 . S
C1419 C1418 1.386 . S
C1419 C1423 1.393 . S
C1420 H1409 0.950 . S
C1420 C1418 1.391 . S
C1420 C1421 1.400 . S
C1421 C1415 1.491 . S
C1421 C1420 1.400 . S
C1421 C1422 1.398 . S
C1422 H1410 0.950 . S
C1422 C1421 1.398 . S
C1422 C1423 1.391 . S
C1423 H1411 0.950 . S
C1423 C1419 1.393 . S
C1423 C1422 1.391 . S
H1424 C1432 0.950 . S
H1425 C1437 0.950 . S
H1426 C1434 0.950 . S
H1427 C1436 0.950 . S
H1428 C1438 0.950 . S
H1429 C1440 0.950 . S
H1430 C1442 0.950 . S
H1431 C1443 0.950 . S
C1432 H1424 0.950 . S
C1432 C1433 1.386 . S
C1432 C1434 1.391 . S
C1433 C1432 1.386 . S
C1433 C1437 1.393 . S
C1434 H1426 0.950 . S
C1434 C1432 1.391 . S
C1434 C1435 1.400 . S
C1435 C1434 1.400 . S
C1435 C1436 1.398 . S
C1435 C1441 1.491 . S
C1436 H1427 0.950 . S
C1436 C1435 1.398 . S
C1436 C1437 1.391 . S
C1437 H1425 0.950 . S
C1437 C1433 1.393 . S
C1437 C1436 1.391 . S
C1438 H1428 0.950 . S
C1438 C1439 1.386 . S
C1438 C1440 1.391 . S
C1439 C1438 1.386 . S
C1439 C1443 1.393 . S
C1440 H1429 0.950 . S
C1440 C1438 1.391 . S
C1440 C1441 1.400 . S
C1441 C1435 1.491 . S
C1441 C1440 1.400 . S
C1441 C1442 1.398 . S
C1442 H1430 0.950 . S
C1442 C1441 1.398 . S
C1442 C1443 1.391 . S
C1443 H1431 0.950 . S
C1443 C1439 1.393 . S
C1443 C1442 1.391 . S
H1444 C1452 0.950 . S
H1445 C1457 0.950 . S
H1446 C1454 0.950 . S
H1447 C1456 0.950 . S
H1448 C1458 0.950 . S
H1449 C1460 0.950 . S
H1450 C1462 0.950 . S
H1451 C1463 0.950 . S
C1452 H1444 0.950 . S
C1452 C1453 1.386 . S
C1452 C1454 1.391 . S
C1453 C1452 1.386 . S
C1453 C1457 1.393 . S
C1454 H1446 0.950 . S
C1454 C1452 1.391 . S
C1454 C1455 1.400 . S
C1455 C1454 1.400 . S
C1455 C1456 1.398 . S
C1455 C1461 1.491 . S
C1456 H1447 0.950 . S
C1456 C1455 1.398 . S
C1456 C1457 1.391 . S
C1457 H1445 0.950 . S
C1457 C1453 1.393 . S
C1457 C1456 1.391 . S
C1458 H1448 0.950 . S
C1458 C1459 1.386 . S
C1458 C1460 1.391 . S
C1459 C1458 1.386 . S
C1459 C1463 1.393 . S
C1460 H1449 0.950 . S
C1460 C1458 1.391 . S
C1460 C1461 1.400 . S
C1461 C1455 1.491 . S
C1461 C1460 1.400 . S
C1461 C1462 1.398 . S
C1462 H1450 0.950 . S
C1462 C1461 1.398 . S
C1462 C1463 1.391 . S
C1463 H1451 0.950 . S
C1463 C1459 1.393 . S
C1463 C1462 1.391 . S
H1464 C1472 0.950 . S
H1465 C1477 0.950 . S
H1466 C1474 0.950 . S
H1467 C1476 0.950 . S
H1468 C1478 0.950 . S
H1469 C1480 0.950 . S
H1470 C1482 0.950 . S
H1471 C1483 0.950 . S
C1472 H1464 0.950 . S
C1472 C1473 1.386 . S
C1472 C1474 1.391 . S
C1473 C1472 1.386 . S
C1473 C1477 1.393 . S
C1474 H1466 0.950 . S
C1474 C1472 1.391 . S
C1474 C1475 1.400 . S
C1475 C1474 1.400 . S
C1475 C1476 1.398 1_455 S
C1475 C1481 1.491 1_455 S
C1476 H1467 0.950 . S
C1476 C1475 1.398 1_655 S
C1476 C1477 1.391 1_655 S
C1477 H1465 0.950 . S
C1477 C1473 1.393 . S
C1477 C1476 1.391 1_455 S
C1478 H1468 0.950 . S
C1478 C1479 1.386 . S
C1478 C1480 1.391 . S
C1479 C1478 1.386 . S
C1479 C1483 1.393 . S
C1480 H1469 0.950 . S
C1480 C1478 1.391 . S
C1480 C1481 1.400 . S
C1481 C1475 1.491 1_655 S
C1481 C1480 1.400 . S
C1481 C1482 1.398 1_655 S
C1482 H1470 0.950 . S
C1482 C1481 1.398 1_455 S
C1482 C1483 1.391 1_455 S
C1483 H1471 0.950 . S
C1483 C1479 1.393 . S
C1483 C1482 1.391 1_655 S
H1484 C1492 0.950 . S
H1485 C1497 0.950 . S
H1486 C1494 0.950 . S
H1487 C1496 0.950 . S
H1488 C1498 0.950 . S
H1489 C1500 0.950 . S
H1490 C1502 0.950 . S
H1491 C1503 0.950 . S
C1492 H1484 0.950 . S
C1492 C1493 1.386 . S
C1492 C1494 1.391 . S
C1493 C1492 1.386 . S
C1493 C1497 1.393 . S
C1494 H1486 0.950 . S
C1494 C1492 1.391 . S
C1494 C1495 1.400 . S
C1495 C1494 1.400 . S
C1495 C1496 1.398 . S
C1495 C1501 1.491 . S
C1496 H1487 0.950 . S
C1496 C1495 1.398 . S
C1496 C1497 1.391 . S
C1497 H1485 0.950 . S
C1497 C1493 1.393 . S
C1497 C1496 1.391 . S
C1498 H1488 0.950 . S
C1498 C1499 1.386 . S
C1498 C1500 1.391 . S
C1499 C1498 1.386 . S
C1499 C1503 1.393 . S
C1500 H1489 0.950 . S
C1500 C1498 1.391 . S
C1500 C1501 1.400 . S
C1501 C1495 1.491 . S
C1501 C1500 1.400 . S
C1501 C1502 1.398 . S
C1502 H1490 0.950 . S
C1502 C1501 1.398 . S
C1502 C1503 1.391 . S
C1503 H1491 0.950 . S
C1503 C1499 1.393 . S
C1503 C1502 1.391 . S
H1504 C1512 0.950 . S
H1505 C1517 0.950 . S
H1506 C1514 0.950 . S
H1507 C1516 0.948 1_545 S
H1508 C1518 0.950 . S
H1509 C1520 0.950 . S
H1510 C1522 0.949 1_565 S
H1511 C1523 0.950 . S
C1512 H1504 0.950 . S
C1512 C1513 1.386 . S
C1512 C1514 1.391 . S
C1513 C1512 1.386 . S
C1513 C1517 1.393 . S
C1514 H1506 0.950 . S
C1514 C1512 1.391 . S
C1514 C1515 1.400 . S
C1515 C1514 1.400 . S
C1515 C1516 1.400 . S
C1515 C1521 1.491 1_565 S
C1516 H1507 0.948 1_565 S
C1516 C1515 1.400 . S
C1516 C1517 1.391 . S
C1517 H1505 0.950 . S
C1517 C1513 1.393 . S
C1517 C1516 1.391 . S
C1518 H1508 0.950 . S
C1518 C1519 1.386 . S
C1518 C1520 1.391 . S
C1519 C1518 1.386 . S
C1519 C1523 1.393 . S
C1520 H1509 0.950 . S
C1520 C1518 1.391 . S
C1520 C1521 1.400 . S
C1521 C1515 1.491 1_545 S
C1521 C1520 1.400 . S
C1521 C1522 1.399 . S
C1522 H1510 0.949 1_545 S
C1522 C1521 1.399 . S
C1522 C1523 1.391 . S
C1523 H1511 0.950 . S
C1523 C1519 1.393 . S
C1523 C1522 1.391 . S
H1524 C1532 0.950 . S
H1525 C1537 0.950 . S
H1526 C1534 0.950 . S
H1527 C1536 0.950 . S
H1528 C1538 0.950 . S
H1529 C1540 0.950 . S
H1530 C1542 0.950 . S
H1531 C1543 0.950 . S
C1532 H1524 0.950 . S
C1532 C1533 1.386 . S
C1532 C1534 1.391 . S
C1533 C1532 1.386 . S
C1533 C1537 1.393 . S
C1534 H1526 0.950 . S
C1534 C1532 1.391 . S
C1534 C1535 1.400 . S
C1535 C1534 1.400 . S
C1535 C1536 1.398 . S
C1535 C1541 1.491 1_565 S
C1536 H1527 0.950 . S
C1536 C1535 1.398 . S
C1536 C1537 1.391 . S
C1537 H1525 0.950 . S
C1537 C1533 1.393 . S
C1537 C1536 1.391 . S
C1538 H1528 0.950 . S
C1538 C1539 1.386 . S
C1538 C1540 1.391 . S
C1539 C1538 1.386 . S
C1539 C1543 1.393 . S
C1540 H1529 0.950 . S
C1540 C1538 1.391 . S
C1540 C1541 1.400 . S
C1541 C1535 1.491 1_545 S
C1541 C1540 1.400 . S
C1541 C1542 1.398 . S
C1542 H1530 0.950 . S
C1542 C1541 1.398 . S
C1542 C1543 1.391 . S
C1543 H1531 0.950 . S
C1543 C1539 1.393 . S
C1543 C1542 1.391 . S
H1544 C1552 0.950 . S
H1545 C1557 0.950 1_455 S
H1546 C1554 0.950 . S
H1547 C1556 0.950 . S
H1548 C1558 0.950 . S
H1549 C1560 0.950 . S
H1550 C1562 0.950 . S
H1551 C1563 0.950 1_655 S
C1552 H1544 0.950 . S
C1552 C1553 1.386 . S
C1552 C1554 1.391 . S
C1553 C1552 1.386 . S
C1553 C1557 1.393 . S
C1554 H1546 0.950 . S
C1554 C1552 1.391 . S
C1554 C1555 1.400 . S
C1555 C1554 1.400 . S
C1555 C1556 1.398 1_655 S
C1555 C1561 1.491 1_655 S
C1556 H1547 0.950 . S
C1556 C1555 1.398 1_455 S
C1556 C1557 1.391 1_455 S
C1557 H1545 0.950 1_655 S
C1557 C1553 1.393 . S
C1557 C1556 1.391 1_655 S
C1558 H1548 0.950 . S
C1558 C1559 1.386 . S
C1558 C1560 1.391 . S
C1559 C1558 1.386 . S
C1559 C1563 1.393 . S
C1560 H1549 0.950 . S
C1560 C1558 1.391 . S
C1560 C1561 1.400 . S
C1561 C1555 1.491 1_455 S
C1561 C1560 1.400 . S
C1561 C1562 1.398 1_455 S
C1562 H1550 0.950 . S
C1562 C1561 1.398 1_655 S
C1562 C1563 1.391 1_655 S
C1563 H1551 0.950 1_455 S
C1563 C1559 1.393 . S
C1563 C1562 1.391 1_455 S
H1564 C1572 0.950 . S
H1565 C1577 0.950 . S
H1566 C1574 0.950 . S
H1567 C1576 0.950 . S
H1568 C1578 0.950 . S
H1569 C1580 0.950 . S
H1570 C1582 0.950 . S
H1571 C1583 0.950 . S
C1572 H1564 0.950 . S
C1572 C1573 1.386 . S
C1572 C1574 1.391 . S
C1573 C1572 1.386 . S
C1573 C1577 1.393 . S
C1574 H1566 0.950 . S
C1574 C1572 1.391 . S
C1574 C1575 1.400 . S
C1575 C1574 1.400 . S
C1575 C1576 1.398 . S
C1575 C1581 1.491 . S
C1576 H1567 0.950 . S
C1576 C1575 1.398 . S
C1576 C1577 1.391 . S
C1577 H1565 0.950 . S
C1577 C1573 1.393 . S
C1577 C1576 1.391 . S
C1578 H1568 0.950 . S
C1578 C1579 1.386 . S
C1578 C1580 1.391 . S
C1579 C1578 1.386 . S
C1579 C1583 1.393 . S
C1580 H1569 0.950 . S
C1580 C1578 1.391 . S
C1580 C1581 1.400 . S
C1581 C1575 1.491 . S
C1581 C1580 1.400 . S
C1581 C1582 1.398 . S
C1582 H1570 0.950 . S
C1582 C1581 1.398 . S
C1582 C1583 1.391 . S
C1583 H1571 0.950 . S
C1583 C1579 1.393 . S
C1583 C1582 1.391 . S
H1584 C1592 0.950 . S
H1585 C1597 0.950 . S
H1586 C1594 0.950 . S
H1587 C1596 0.950 . S
H1588 C1598 0.950 . S
H1589 C1600 0.950 . S
H1590 C1602 0.950 . S
H1591 C1603 0.950 . S
C1592 H1584 0.950 . S
C1592 C1593 1.386 . S
C1592 C1594 1.391 . S
C1593 C1592 1.386 . S
C1593 C1597 1.393 . S
C1594 H1586 0.950 . S
C1594 C1592 1.391 . S
C1594 C1595 1.400 . S
C1595 C1594 1.400 . S
C1595 C1596 1.398 . S
C1595 C1601 1.491 . S
C1596 H1587 0.950 . S
C1596 C1595 1.398 . S
C1596 C1597 1.391 . S
C1597 H1585 0.950 . S
C1597 C1593 1.393 . S
C1597 C1596 1.391 . S
C1598 H1588 0.950 . S
C1598 C1599 1.386 . S
C1598 C1600 1.391 . S
C1599 C1598 1.386 . S
C1599 C1603 1.393 . S
C1600 H1589 0.950 . S
C1600 C1598 1.391 . S
C1600 C1601 1.400 . S
C1601 C1595 1.491 . S
C1601 C1600 1.400 . S
C1601 C1602 1.398 . S
C1602 H1590 0.950 . S
C1602 C1601 1.398 . S
C1602 C1603 1.391 . S
C1603 H1591 0.950 . S
C1603 C1599 1.393 . S
C1603 C1602 1.391 . S
H1604 C1612 0.950 . S
H1605 C1617 0.950 . S
H1606 C1614 0.950 . S
H1607 C1616 0.950 . S
H1608 C1618 0.950 . S
H1609 C1620 0.950 . S
H1610 C1622 0.950 . S
H1611 C1623 0.950 . S
C1612 H1604 0.950 . S
C1612 C1613 1.386 . S
C1612 C1614 1.391 . S
C1613 C1612 1.386 . S
C1613 C1617 1.393 . S
C1614 H1606 0.950 . S
C1614 C1612 1.391 . S
C1614 C1615 1.400 . S
C1615 C1614 1.400 . S
C1615 C1616 1.398 . S
C1615 C1621 1.491 . S
C1616 H1607 0.950 . S
C1616 C1615 1.398 . S
C1616 C1617 1.391 . S
C1617 H1605 0.950 . S
C1617 C1613 1.393 . S
C1617 C1616 1.391 . S
C1618 H1608 0.950 . S
C1618 C1619 1.386 . S
C1618 C1620 1.391 . S
C1619 C1618 1.386 . S
C1619 C1623 1.393 . S
C1620 H1609 0.950 . S
C1620 C1618 1.391 . S
C1620 C1621 1.400 . S
C1621 C1615 1.491 . S
C1621 C1620 1.400 . S
C1621 C1622 1.398 . S
C1622 H1610 0.950 . S
C1622 C1621 1.398 . S
C1622 C1623 1.391 . S
C1623 H1611 0.950 . S
C1623 C1619 1.393 . S
C1623 C1622 1.391 . S
H1624 C1632 0.950 . S
H1625 C1637 0.950 . S
H1626 C1634 0.950 . S
H1627 C1636 0.950 . S
H1628 C1638 0.950 . S
H1629 C1640 0.950 . S
H1630 C1642 0.950 . S
H1631 C1643 0.950 . S
C1632 H1624 0.950 . S
C1632 C1633 1.386 . S
C1632 C1634 1.391 . S
C1633 C1632 1.386 . S
C1633 C1637 1.393 . S
C1634 H1626 0.950 . S
C1634 C1632 1.391 . S
C1634 C1635 1.400 . S
C1635 C1634 1.400 . S
C1635 C1636 1.398 . S
C1635 C1641 1.491 . S
C1636 H1627 0.950 . S
C1636 C1635 1.398 . S
C1636 C1637 1.391 . S
C1637 H1625 0.950 . S
C1637 C1633 1.393 . S
C1637 C1636 1.391 . S
C1638 H1628 0.950 . S
C1638 C1639 1.386 . S
C1638 C1640 1.391 . S
C1639 C1638 1.386 . S
C1639 C1643 1.393 . S
C1640 H1629 0.950 . S
C1640 C1638 1.391 . S
C1640 C1641 1.400 . S
C1641 C1635 1.491 . S
C1641 C1640 1.400 . S
C1641 C1642 1.398 . S
C1642 H1630 0.950 . S
C1642 C1641 1.398 . S
C1642 C1643 1.391 . S
C1643 H1631 0.950 . S
C1643 C1639 1.393 . S
C1643 C1642 1.391 . S
H1644 C1652 0.950 . S
H1645 C1657 0.950 . S
H1646 C1654 0.950 . S
H1647 C1656 0.950 . S
H1648 C1658 0.950 . S
H1649 C1660 0.950 . S
H1650 C1662 0.950 . S
H1651 C1663 0.950 . S
C1652 H1644 0.950 . S
C1652 C1653 1.386 . S
C1652 C1654 1.391 . S
C1653 C1652 1.386 . S
C1653 C1657 1.393 . S
C1654 H1646 0.950 . S
C1654 C1652 1.391 . S
C1654 C1655 1.400 . S
C1655 C1654 1.400 . S
C1655 C1656 1.398 . S
C1655 C1661 1.491 . S
C1656 H1647 0.950 . S
C1656 C1655 1.398 . S
C1656 C1657 1.391 . S
C1657 H1645 0.950 . S
C1657 C1653 1.393 . S
C1657 C1656 1.391 . S
C1658 H1648 0.950 . S
C1658 C1659 1.386 . S
C1658 C1660 1.391 . S
C1659 C1658 1.386 . S
C1659 C1663 1.393 . S
C1660 H1649 0.950 . S
C1660 C1658 1.391 . S
C1660 C1661 1.400 . S
C1661 C1655 1.491 . S
C1661 C1660 1.400 . S
C1661 C1662 1.398 . S
C1662 H1650 0.950 . S
C1662 C1661 1.398 . S
C1662 C1663 1.391 . S
C1663 H1651 0.950 . S
C1663 C1659 1.393 . S
C1663 C1662 1.391 . S
H1664 C1672 0.950 . S
H1665 C1677 0.950 . S
H1666 C1674 0.950 . S
H1667 C1676 0.950 . S
H1668 C1678 0.950 . S
H1669 C1680 0.950 . S
H1670 C1682 0.950 . S
H1671 C1683 0.950 . S
C1672 H1664 0.950 . S
C1672 C1673 1.386 . S
C1672 C1674 1.391 . S
C1673 C1672 1.386 . S
C1673 C1677 1.393 . S
C1674 H1666 0.950 . S
C1674 C1672 1.391 . S
C1674 C1675 1.400 . S
C1675 C1674 1.400 . S
C1675 C1676 1.398 . S
C1675 C1681 1.491 . S
C1676 H1667 0.950 . S
C1676 C1675 1.398 . S
C1676 C1677 1.391 . S
C1677 H1665 0.950 . S
C1677 C1673 1.393 . S
C1677 C1676 1.391 . S
C1678 H1668 0.950 . S
C1678 C1679 1.386 . S
C1678 C1680 1.391 . S
C1679 C1678 1.386 . S
C1679 C1683 1.393 . S
C1680 H1669 0.950 . S
C1680 C1678 1.391 . S
C1680 C1681 1.400 . S
C1681 C1675 1.491 . S
C1681 C1680 1.400 . S
C1681 C1682 1.398 . S
C1682 H1670 0.950 . S
C1682 C1681 1.398 . S
C1682 C1683 1.391 . S
C1683 H1671 0.950 . S
C1683 C1679 1.393 . S
C1683 C1682 1.391 . S
H1684 C1692 0.950 . S
H1685 C1697 0.950 . S
H1686 C1694 0.950 . S
H1687 C1696 0.950 . S
H1688 C1698 0.950 . S
H1689 C1700 0.950 . S
H1690 C1702 0.950 . S
H1691 C1703 0.950 . S
C1692 H1684 0.950 . S
C1692 C1693 1.386 . S
C1692 C1694 1.391 . S
C1693 C1692 1.386 . S
C1693 C1697 1.393 . S
C1694 H1686 0.950 . S
C1694 C1692 1.391 . S
C1694 C1695 1.400 . S
C1695 C1694 1.400 . S
C1695 C1696 1.398 . S
C1695 C1701 1.491 . S
C1696 H1687 0.950 . S
C1696 C1695 1.398 . S
C1696 C1697 1.391 . S
C1697 H1685 0.950 . S
C1697 C1693 1.393 . S
C1697 C1696 1.391 . S
C1698 H1688 0.950 . S
C1698 C1699 1.386 . S
C1698 C1700 1.391 . S
C1699 C1698 1.386 . S
C1699 C1703 1.393 . S
C1700 H1689 0.950 . S
C1700 C1698 1.391 . S
C1700 C1701 1.400 . S
C1701 C1695 1.491 . S
C1701 C1700 1.400 . S
C1701 C1702 1.398 . S
C1702 H1690 0.950 . S
C1702 C1701 1.398 . S
C1702 C1703 1.391 . S
C1703 H1691 0.950 . S
C1703 C1699 1.393 . S
C1703 C1702 1.391 . S
H1704 C1712 0.950 . S
H1705 C1717 0.950 . S
H1706 C1714 0.950 . S
H1707 C1716 0.950 . S
H1708 C1718 0.950 . S
H1709 C1720 0.950 . S
H1710 C1722 0.950 . S
H1711 C1723 0.950 . S
C1712 H1704 0.950 . S
C1712 C1713 1.386 . S
C1712 C1714 1.391 . S
C1713 C1712 1.386 . S
C1713 C1717 1.393 . S
C1714 H1706 0.950 . S
C1714 C1712 1.391 . S
C1714 C1715 1.400 . S
C1715 C1714 1.400 . S
C1715 C1716 1.398 . S
C1715 C1721 1.491 . S
C1716 H1707 0.950 . S
C1716 C1715 1.398 . S
C1716 C1717 1.391 . S
C1717 H1705 0.950 . S
C1717 C1713 1.393 . S
C1717 C1716 1.391 . S
C1718 H1708 0.950 . S
C1718 C1719 1.386 . S
C1718 C1720 1.391 . S
C1719 C1718 1.386 . S
C1719 C1723 1.393 . S
C1720 H1709 0.950 . S
C1720 C1718 1.391 . S
C1720 C1721 1.400 . S
C1721 C1715 1.491 . S
C1721 C1720 1.400 . S
C1721 C1722 1.398 . S
C1722 H1710 0.950 . S
C1722 C1721 1.398 . S
C1722 C1723 1.391 . S
C1723 H1711 0.950 . S
C1723 C1719 1.393 . S
C1723 C1722 1.391 . S
H1724 C1732 0.950 . S
H1725 C1737 0.950 . S
H1726 C1734 0.950 . S
H1727 C1736 0.950 . S
H1728 C1738 0.950 . S
H1729 C1740 0.950 . S
H1730 C1742 0.950 . S
H1731 C1743 0.950 . S
C1732 H1724 0.950 . S
C1732 C1733 1.386 . S
C1732 C1734 1.391 . S
C1733 C1732 1.386 . S
C1733 C1737 1.393 . S
C1734 H1726 0.950 . S
C1734 C1732 1.391 . S
C1734 C1735 1.400 . S
C1735 C1734 1.400 . S
C1735 C1736 1.398 . S
C1735 C1741 1.491 . S
C1736 H1727 0.950 . S
C1736 C1735 1.398 . S
C1736 C1737 1.391 . S
C1737 H1725 0.950 . S
C1737 C1733 1.393 . S
C1737 C1736 1.391 . S
C1738 H1728 0.950 . S
C1738 C1739 1.386 . S
C1738 C1740 1.391 . S
C1739 C1738 1.386 . S
C1739 C1743 1.393 . S
C1740 H1729 0.950 . S
C1740 C1738 1.391 . S
C1740 C1741 1.400 . S
C1741 C1735 1.491 . S
C1741 C1740 1.400 . S
C1741 C1742 1.398 . S
C1742 H1730 0.950 . S
C1742 C1741 1.398 . S
C1742 C1743 1.391 . S
C1743 H1731 0.950 . S
C1743 C1739 1.393 . S
C1743 C1742 1.391 . S
H1744 C1752 0.950 . S
H1745 C1757 0.950 . S
H1746 C1754 0.950 . S
H1747 C1756 0.950 . S
H1748 C1758 0.950 . S
H1749 C1760 0.950 . S
H1750 C1762 0.950 . S
H1751 C1763 0.950 . S
C1752 H1744 0.950 . S
C1752 C1753 1.386 . S
C1752 C1754 1.391 . S
C1753 C1752 1.386 . S
C1753 C1757 1.393 . S
C1754 H1746 0.950 . S
C1754 C1752 1.391 . S
C1754 C1755 1.400 . S
C1755 C1754 1.400 . S
C1755 C1756 1.398 . S
C1755 C1761 1.491 . S
C1756 H1747 0.950 . S
C1756 C1755 1.398 . S
C1756 C1757 1.391 . S
C1757 H1745 0.950 . S
C1757 C1753 1.393 . S
C1757 C1756 1.391 . S
C1758 H1748 0.950 . S
C1758 C1759 1.386 . S
C1758 C1760 1.391 . S
C1759 C1758 1.386 . S
C1759 C1763 1.393 . S
C1760 H1749 0.950 . S
C1760 C1758 1.391 . S
C1760 C1761 1.400 . S
C1761 C1755 1.491 . S
C1761 C1760 1.400 . S
C1761 C1762 1.398 . S
C1762 H1750 0.950 . S
C1762 C1761 1.398 . S
C1762 C1763 1.391 . S
C1763 H1751 0.950 . S
C1763 C1759 1.393 . S
C1763 C1762 1.391 . S
H1764 C1772 0.950 . S
H1765 C1777 0.950 . S
H1766 C1774 0.950 . S
H1767 C1776 0.950 . S
H1768 C1778 0.950 . S
H1769 C1780 0.950 . S
H1770 C1782 0.950 . S
H1771 C1783 0.950 . S
C1772 H1764 0.950 . S
C1772 C1773 1.386 . S
C1772 C1774 1.391 . S
C1773 C1772 1.386 . S
C1773 C1777 1.393 . S
C1774 H1766 0.950 . S
C1774 C1772 1.391 . S
C1774 C1775 1.400 . S
C1775 C1774 1.400 . S
C1775 C1776 1.398 . S
C1775 C1781 1.491 . S
C1776 H1767 0.950 . S
C1776 C1775 1.398 . S
C1776 C1777 1.391 . S
C1777 H1765 0.950 . S
C1777 C1773 1.393 . S
C1777 C1776 1.391 . S
C1778 H1768 0.950 . S
C1778 C1779 1.386 . S
C1778 C1780 1.391 . S
C1779 C1778 1.386 . S
C1779 C1783 1.393 . S
C1780 H1769 0.950 . S
C1780 C1778 1.391 . S
C1780 C1781 1.400 . S
C1781 C1775 1.491 . S
C1781 C1780 1.400 . S
C1781 C1782 1.398 . S
C1782 H1770 0.950 . S
C1782 C1781 1.398 . S
C1782 C1783 1.391 . S
C1783 H1771 0.950 . S
C1783 C1779 1.393 . S
C1783 C1782 1.391 . S
H1784 C1792 0.950 . S
H1785 C1797 0.950 . S
H1786 C1794 0.950 . S
H1787 C1796 0.950 . S
H1788 C1798 0.950 . S
H1789 C1800 0.950 . S
H1790 C1802 0.950 . S
H1791 C1803 0.950 . S
C1792 H1784 0.950 . S
C1792 C1793 1.386 . S
C1792 C1794 1.391 . S
C1793 C1792 1.386 . S
C1793 C1797 1.393 . S
C1794 H1786 0.950 . S
C1794 C1792 1.391 . S
C1794 C1795 1.400 . S
C1795 C1794 1.400 . S
C1795 C1796 1.398 . S
C1795 C1801 1.491 . S
C1796 H1787 0.950 . S
C1796 C1795 1.398 . S
C1796 C1797 1.391 . S
C1797 H1785 0.950 . S
C1797 C1793 1.393 . S
C1797 C1796 1.391 . S
C1798 H1788 0.950 . S
C1798 C1799 1.386 . S
C1798 C1800 1.391 . S
C1799 C1798 1.386 . S
C1799 C1803 1.393 . S
C1800 H1789 0.950 . S
C1800 C1798 1.391 . S
C1800 C1801 1.400 . S
C1801 C1795 1.491 . S
C1801 C1800 1.400 . S
C1801 C1802 1.398 . S
C1802 H1790 0.950 . S
C1802 C1801 1.398 . S
C1802 C1803 1.391 . S
C1803 H1791 0.950 . S
C1803 C1799 1.393 . S
C1803 C1802 1.391 . S
H1804 C1812 0.950 . S
H1805 C1817 0.950 . S
H1806 C1814 0.950 . S
H1807 C1816 0.950 . S
H1808 C1818 0.950 . S
H1809 C1820 0.950 . S
H1810 C1822 0.950 . S
H1811 C1823 0.950 . S
C1812 H1804 0.950 . S
C1812 C1813 1.386 . S
C1812 C1814 1.391 . S
C1813 C1812 1.386 . S
C1813 C1817 1.393 . S
C1814 H1806 0.950 . S
C1814 C1812 1.391 . S
C1814 C1815 1.400 . S
C1815 C1814 1.400 . S
C1815 C1816 1.398 . S
C1815 C1821 1.491 . S
C1816 H1807 0.950 . S
C1816 C1815 1.398 . S
C1816 C1817 1.391 . S
C1817 H1805 0.950 . S
C1817 C1813 1.393 . S
C1817 C1816 1.391 . S
C1818 H1808 0.950 . S
C1818 C1819 1.386 . S
C1818 C1820 1.391 . S
C1819 C1818 1.386 . S
C1819 C1823 1.393 . S
C1820 H1809 0.950 . S
C1820 C1818 1.391 . S
C1820 C1821 1.400 . S
C1821 C1815 1.491 . S
C1821 C1820 1.400 . S
C1821 C1822 1.398 . S
C1822 H1810 0.950 . S
C1822 C1821 1.398 . S
C1822 C1823 1.391 . S
C1823 H1811 0.950 . S
C1823 C1819 1.393 . S
C1823 C1822 1.391 . S
H1824 C1832 0.950 1_655 S
H1825 C1837 0.950 . S
H1826 C1834 0.950 . S
H1827 C1836 0.952 . S
H1828 C1838 0.950 1_455 S
H1829 C1840 0.950 . S
H1830 C1842 0.952 . S
H1831 C1843 0.950 . S
C1832 H1824 0.950 1_455 S
C1832 C1833 1.386 . S
C1832 C1834 1.391 1_455 S
C1833 C1832 1.386 . S
C1833 C1837 1.393 . S
C1834 H1826 0.950 . S
C1834 C1832 1.391 1_655 S
C1834 C1835 1.400 1_655 S
C1835 C1834 1.400 1_455 S
C1835 C1836 1.398 . S
C1835 C1841 1.491 1_456 S
C1836 H1827 0.952 . S
C1836 C1835 1.398 . S
C1836 C1837 1.391 . S
C1837 H1825 0.950 . S
C1837 C1833 1.393 . S
C1837 C1836 1.391 . S
C1838 H1828 0.950 1_655 S
C1838 C1839 1.386 . S
C1838 C1840 1.391 1_655 S
C1839 C1838 1.386 . S
C1839 C1843 1.393 . S
C1840 H1829 0.950 . S
C1840 C1838 1.391 1_455 S
C1840 C1841 1.400 1_455 S
C1841 C1835 1.491 1_654 S
C1841 C1840 1.400 1_655 S
C1841 C1842 1.398 . S
C1842 H1830 0.952 . S
C1842 C1841 1.398 . S
C1842 C1843 1.391 . S
C1843 H1831 0.950 . S
C1843 C1839 1.393 . S
C1843 C1842 1.391 . S
H1844 C1852 0.950 . S
H1845 C1857 0.950 . S
H1846 C1854 0.950 . S
H1847 C1856 0.950 1_556 S
H1848 C1858 0.950 . S
H1849 C1860 0.950 . S
H1850 C1862 0.950 1_554 S
H1851 C1863 0.950 . S
C1852 H1844 0.950 . S
C1852 C1853 1.386 . S
C1852 C1854 1.391 . S
C1853 C1852 1.386 . S
C1853 C1857 1.393 . S
C1854 H1846 0.950 . S
C1854 C1852 1.391 . S
C1854 C1855 1.400 . S
C1855 C1854 1.400 . S
C1855 C1856 1.398 . S
C1855 C1861 1.491 1_554 S
C1856 H1847 0.950 1_554 S
C1856 C1855 1.398 . S
C1856 C1857 1.391 . S
C1857 H1845 0.950 . S
C1857 C1853 1.393 . S
C1857 C1856 1.391 . S
C1858 H1848 0.950 . S
C1858 C1859 1.386 . S
C1858 C1860 1.391 . S
C1859 C1858 1.386 . S
C1859 C1863 1.393 . S
C1860 H1849 0.950 . S
C1860 C1858 1.391 . S
C1860 C1861 1.400 . S
C1861 C1855 1.491 1_556 S
C1861 C1860 1.400 . S
C1861 C1862 1.398 . S
C1862 H1850 0.950 1_556 S
C1862 C1861 1.398 . S
C1862 C1863 1.391 . S
C1863 H1851 0.950 . S
C1863 C1859 1.393 . S
C1863 C1862 1.391 . S
H1864 C1872 0.950 . S
H1865 C1877 0.950 . S
H1866 C1874 0.992 . S
H1867 C1876 0.950 . S
H1868 C1878 0.950 . S
H1869 C1880 0.991 . S
H1870 C1882 0.950 . S
H1871 C1883 0.950 . S
C1872 H1864 0.950 . S
C1872 C1873 1.386 . S
C1872 C1874 1.356 1_545 S
C1873 C1872 1.386 . S
C1873 C1877 1.393 . S
C1874 H1866 0.992 . S
C1874 C1872 1.356 1_565 S
C1874 C1875 1.404 1_565 S
C1875 C1874 1.404 1_545 S
C1875 C1876 1.398 . S
C1875 C1881 1.491 1_544 S
C1876 H1867 0.950 . S
C1876 C1875 1.398 . S
C1876 C1877 1.391 . S
C1877 H1865 0.950 . S
C1877 C1873 1.393 . S
C1877 C1876 1.391 . S
C1878 H1868 0.950 . S
C1878 C1879 1.386 . S
C1878 C1880 1.356 1_565 S
C1879 C1878 1.386 . S
C1879 C1883 1.393 . S
C1880 H1869 0.991 . S
C1880 C1878 1.356 1_545 S
C1880 C1881 1.404 1_545 S
C1881 C1875 1.491 1_566 S
C1881 C1880 1.404 1_565 S
C1881 C1882 1.398 . S
C1882 H1870 0.950 . S
C1882 C1881 1.398 . S
C1882 C1883 1.391 . S
C1883 H1871 0.950 . S
C1883 C1879 1.393 . S
C1883 C1882 1.391 . S
H1884 C1892 0.950 . S
H1885 C1897 0.950 . S
H1886 C1894 0.950 . S
H1887 C1896 0.950 . S
H1888 C1898 0.950 . S
H1889 C1900 0.950 . S
H1890 C1902 0.950 . S
H1891 C1903 0.950 . S
C1892 H1884 0.950 . S
C1892 C1893 1.386 . S
C1892 C1894 1.391 . S
C1893 C1892 1.386 . S
C1893 C1897 1.393 . S
C1894 H1886 0.950 . S
C1894 C1892 1.391 . S
C1894 C1895 1.400 . S
C1895 C1894 1.400 . S
C1895 C1896 1.398 1_565 S
C1895 C1901 1.491 1_566 S
C1896 H1887 0.950 . S
C1896 C1895 1.398 1_545 S
C1896 C1897 1.391 1_545 S
C1897 H1885 0.950 . S
C1897 C1893 1.393 . S
C1897 C1896 1.391 1_565 S
C1898 H1888 0.950 . S
C1898 C1899 1.386 . S
C1898 C1900 1.391 . S
C1899 C1898 1.386 . S
C1899 C1903 1.393 . S
C1900 H1889 0.950 . S
C1900 C1898 1.391 . S
C1900 C1901 1.400 . S
C1901 C1895 1.491 1_544 S
C1901 C1900 1.400 . S
C1901 C1902 1.398 1_545 S
C1902 H1890 0.950 . S
C1902 C1901 1.398 1_565 S
C1902 C1903 1.391 1_565 S
C1903 H1891 0.950 . S
C1903 C1899 1.393 . S
C1903 C1902 1.391 1_545 S
H1904 C1912 0.950 . S
H1905 C1917 0.950 . S
H1906 C1914 0.950 . S
H1907 C1916 0.950 . S
H1908 C1918 0.950 . S
H1909 C1920 0.950 . S
H1910 C1922 0.950 . S
H1911 C1923 0.950 . S
C1912 H1904 0.950 . S
C1912 C1913 1.386 . S
C1912 C1914 1.391 . S
C1913 C1912 1.386 . S
C1913 C1917 1.393 . S
C1914 H1906 0.950 . S
C1914 C1912 1.391 . S
C1914 C1915 1.400 . S
C1915 C1914 1.400 . S
C1915 C1916 1.398 . S
C1915 C1921 1.491 1_456 S
C1916 H1907 0.950 . S
C1916 C1915 1.398 . S
C1916 C1917 1.391 . S
C1917 H1905 0.950 . S
C1917 C1913 1.393 . S
C1917 C1916 1.391 . S
C1918 H1908 0.950 . S
C1918 C1919 1.386 . S
C1918 C1920 1.391 . S
C1919 C1918 1.386 . S
C1919 C1923 1.393 . S
C1920 H1909 0.950 . S
C1920 C1918 1.391 . S
C1920 C1921 1.400 . S
C1921 C1915 1.491 1_654 S
C1921 C1920 1.400 . S
C1921 C1922 1.398 . S
C1922 H1910 0.950 . S
C1922 C1921 1.398 . S
C1922 C1923 1.391 . S
C1923 H1911 0.950 . S
C1923 C1919 1.393 . S
C1923 C1922 1.391 . S
H1924 C1932 0.950 . S
H1925 C1937 0.950 . S
H1926 C1934 0.950 . S
H1927 C1936 0.955 . S
H1928 C1938 0.950 . S
H1929 C1940 0.950 . S
H1930 C1942 0.955 . S
H1931 C1943 0.950 . S
C1932 H1924 0.950 . S
C1932 C1933 1.386 . S
C1932 C1934 1.391 . S
C1933 C1932 1.386 . S
C1933 C1937 1.393 . S
C1934 H1926 0.950 . S
C1934 C1932 1.391 . S
C1934 C1935 1.400 . S
C1935 C1934 1.400 . S
C1935 C1936 1.398 . S
C1935 C1941 1.491 1_554 S
C1936 H1927 0.955 . S
C1936 C1935 1.398 . S
C1936 C1937 1.391 . S
C1937 H1925 0.950 . S
C1937 C1933 1.393 . S
C1937 C1936 1.391 . S
C1938 H1928 0.950 . S
C1938 C1939 1.386 . S
C1938 C1940 1.391 . S
C1939 C1938 1.386 . S
C1939 C1943 1.393 . S
C1940 H1929 0.950 . S
C1940 C1938 1.391 . S
C1940 C1941 1.400 . S
C1941 C1935 1.491 1_556 S
C1941 C1940 1.400 . S
C1941 C1942 1.398 . S
C1942 H1930 0.955 . S
C1942 C1941 1.398 . S
C1942 C1943 1.391 . S
C1943 H1931 0.950 . S
C1943 C1939 1.393 . S
C1943 C1942 1.391 . S
C513 C9 1.327 . S
C519 C163 1.339 . S
C533 C23 1.332 . S
C539 C135 1.334 . S
C553 C149 1.337 . S
C559 C37 1.329 . S
C573 C51 1.336 . S
C579 C107 1.331 . S
C593 C121 1.338 . S
C599 C65 1.328 . S
C613 C79 1.323 . S
C619 C93 1.344 . S
C633 C331 1.327 . S
C639 C177 1.339 . S
C653 C191 1.331 . S
C659 C303 1.335 . S
C673 C205 1.339 . S
C679 C317 1.327 . S
C693 C275 1.338 . S
C699 C219 1.328 . S
C713 C233 1.341 . S
C719 C289 1.325 . S
C733 C261 1.322 . S
C739 C247 1.344 . S
C753 C345 1.342 . S
C759 C499 1.324 . S
C773 C471 1.332 . S
C779 C359 1.334 . S
C793 C485 1.322 . S
C799 C373 1.344 . S
C813 C443 1.344 . S
C819 C387 1.322 . S
C833 C457 1.341 . S
C839 C401 1.326 . S
C853 C429 1.323 . S
C859 C415 1.343 . S
C873 C8 1.363 . S
C879 C64 1.361 . S
C893 C78 1.369 . S
C899 C22 1.372 . S
C913 C36 1.370 . S
C919 C50 1.372 . S
C933 C92 1.370 . S
C939 C148 1.372 . S
C953 C106 1.372 . S
C959 C162 1.371 . S
C973 C120 1.372 . S
C979 C134 1.372 . S
C993 C232 1.362 . S
C999 C176 1.364 . S
C1013 C246 1.364 . S
C1019 C190 1.361 . S
C1033 C204 1.361 . S
C1039 C218 1.362 . S
C1053 C316 1.361 . S
C1059 C260 1.361 . S
C1073 C330 1.372 . S
C1079 C274 1.371 . S
C1093 C288 1.365 . S
C1099 C302 1.368 . S
C1113 C400 1.372 . S
C1119 C344 1.370 . S
C1133 C358 1.362 . S
C1139 C414 1.360 . S
C1153 C372 1.361 . S
C1159 C386 1.361 . S
C1173 C484 1.372 . S
C1179 C428 1.371 . S
C1193 C442 1.372 . S
C1199 C498 1.372 . S
C1213 C470 1.371 . S
C1219 C456 1.372 . S
C1233 C413 1.011 . S
C1239 C7 1.003 . S
C1253 C21 1.019 . S
C1259 C385 1.027 . S
C1273 C35 1.028 . S
C1279 C399 1.008 . S
C1293 C49 1.011 . S
C1299 C189 1.029 . S
C1313 C203 1.004 . S
C1319 C63 1.009 . S
C1333 C175 1.012 . S
C1339 C77 1.002 . S
C1353 C91 1.011 . S
C1359 C329 1.003 . S
C1373 C105 1.002 . S
C1379 C301 1.019 . S
C1393 C119 1.002 . S
C1399 C315 1.021 . S
C1413 C441 1.022 . S
C1419 C133 1.002 . S
C1433 C455 1.017 . S
C1439 C147 1.028 . S
C1453 C161 1.001 . S
C1459 C427 1.015 . S
C1473 C357 1.014 . S
C1479 C217 1.002 . S
C1493 C231 1.003 . S
C1499 C371 1.010 . S
C1513 C343 1.029 . S
C1519 C245 1.014 . S
C1533 C497 1.007 . S
C1539 C259 1.005 . S
C1553 C273 1.002 . S
C1559 C469 1.022 . S
C1573 C287 1.023 . S
C1579 C483 1.025 . S
C1593 C3 1.693 . S
C1599 C409 1.696 . S
C1613 C381 1.694 . S
C1619 C17 1.697 . S
C1633 C31 1.696 . S
C1639 C395 1.695 . S
C1653 C185 1.696 . S
C1659 C45 1.693 . S
C1673 C59 1.693 . S
C1679 C199 1.697 . S
C1693 C73 1.697 . S
C1699 C171 1.693 . S
C1713 C325 1.694 . S
C1719 C87 1.695 . S
C1733 C101 1.694 . S
C1739 C297 1.697 . S
C1753 C115 1.697 . S
C1759 C311 1.693 . S
C1773 C129 1.694 . S
C1779 C437 1.697 . S
C1793 C451 1.693 . S
C1799 C143 1.697 . S
C1813 C157 1.693 . S
C1819 C423 1.697 . S
C1833 C353 1.697 . S
C1839 C213 1.693 . S
C1853 C227 1.697 . S
C1859 C367 1.693 . S
C1873 C241 1.696 . S
C1879 C339 1.693 . S
C1893 C493 1.697 . S
C1899 C255 1.694 . S
C1913 C465 1.695 . S
C1919 C269 1.695 . S
C1933 C283 1.693 . S
C1939 C479 1.698 . S
