# Generated by pormake.
# Topology uob, (4)-cn, num edge types: 1
# Building blocks:
#     Node 0, Type 0, BuildingBlock: CEKHIL_clean_sbu_0, # of connection points: 4
#     Node 1, Type 0, BuildingBlock: CEKHIL_clean_sbu_0, # of connection points: 4
#     Node 2, Type 0, BuildingBlock: CEKHIL_clean_sbu_0, # of connection points: 4
#     Node 3, Type 0, BuildingBlock: CEKHIL_clean_sbu_0, # of connection points: 4
#     Node 4, Type 0, BuildingBlock: CEKHIL_clean_sbu_0, # of connection points: 4
#     Node 5, Type 0, BuildingBlock: CEKHIL_clean_sbu_0, # of connection points: 4
#     Node 6, Type 0, BuildingBlock: CEKHIL_clean_sbu_0, # of connection points: 4
#     Node 7, Type 0, BuildingBlock: CEKHIL_clean_sbu_0, # of connection points: 4
#     Node 8, Type 0, BuildingBlock: CEKHIL_clean_sbu_0, # of connection points: 4
#     Node 9, Type 0, BuildingBlock: CEKHIL_clean_sbu_0, # of connection points: 4
#     Node 10, Type 0, BuildingBlock: CEKHIL_clean_sbu_0, # of connection points: 4
#     Node 11, Type 0, BuildingBlock: CEKHIL_clean_sbu_0, # of connection points: 4
#     Node 12, Type 0, BuildingBlock: CEKHIL_clean_sbu_0, # of connection points: 4
#     Node 13, Type 0, BuildingBlock: CEKHIL_clean_sbu_0, # of connection points: 4
#     Node 14, Type 0, BuildingBlock: CEKHIL_clean_sbu_0, # of connection points: 4
#     Node 15, Type 0, BuildingBlock: CEKHIL_clean_sbu_0, # of connection points: 4
#     Edge 16, Type (0, 0), BuildingBlock: CIFDUS_clean_linker_0, # of connection points: 2
#     Edge 17, Type (0, 0), BuildingBlock: CIFDUS_clean_linker_0, # of connection points: 2
#     Edge 18, Type (0, 0), BuildingBlock: CIFDUS_clean_linker_0, # of connection points: 2
#     Edge 19, Type (0, 0), BuildingBlock: CIFDUS_clean_linker_0, # of connection points: 2
#     Edge 20, Type (0, 0), BuildingBlock: CIFDUS_clean_linker_0, # of connection points: 2
#     Edge 21, Type (0, 0), BuildingBlock: CIFDUS_clean_linker_0, # of connection points: 2
#     Edge 22, Type (0, 0), BuildingBlock: CIFDUS_clean_linker_0, # of connection points: 2
#     Edge 23, Type (0, 0), BuildingBlock: CIFDUS_clean_linker_0, # of connection points: 2
#     Edge 24, Type (0, 0), BuildingBlock: CIFDUS_clean_linker_0, # of connection points: 2
#     Edge 25, Type (0, 0), BuildingBlock: CIFDUS_clean_linker_0, # of connection points: 2
#     Edge 26, Type (0, 0), BuildingBlock: CIFDUS_clean_linker_0, # of connection points: 2
#     Edge 27, Type (0, 0), BuildingBlock: CIFDUS_clean_linker_0, # of connection points: 2
#     Edge 28, Type (0, 0), BuildingBlock: CIFDUS_clean_linker_0, # of connection points: 2
#     Edge 29, Type (0, 0), BuildingBlock: CIFDUS_clean_linker_0, # of connection points: 2
#     Edge 30, Type (0, 0), BuildingBlock: CIFDUS_clean_linker_0, # of connection points: 2
#     Edge 31, Type (0, 0), BuildingBlock: CIFDUS_clean_linker_0, # of connection points: 2
#     Edge 32, Type (0, 0), BuildingBlock: CIFDUS_clean_linker_0, # of connection points: 2
#     Edge 33, Type (0, 0), BuildingBlock: CIFDUS_clean_linker_0, # of connection points: 2
#     Edge 34, Type (0, 0), BuildingBlock: CIFDUS_clean_linker_0, # of connection points: 2
#     Edge 35, Type (0, 0), BuildingBlock: CIFDUS_clean_linker_0, # of connection points: 2
#     Edge 36, Type (0, 0), BuildingBlock: CIFDUS_clean_linker_0, # of connection points: 2
#     Edge 37, Type (0, 0), BuildingBlock: CIFDUS_clean_linker_0, # of connection points: 2
#     Edge 38, Type (0, 0), BuildingBlock: CIFDUS_clean_linker_0, # of connection points: 2
#     Edge 39, Type (0, 0), BuildingBlock: CIFDUS_clean_linker_0, # of connection points: 2
#     Edge 40, Type (0, 0), BuildingBlock: CIFDUS_clean_linker_0, # of connection points: 2
#     Edge 41, Type (0, 0), BuildingBlock: CIFDUS_clean_linker_0, # of connection points: 2
#     Edge 42, Type (0, 0), BuildingBlock: CIFDUS_clean_linker_0, # of connection points: 2
#     Edge 43, Type (0, 0), BuildingBlock: CIFDUS_clean_linker_0, # of connection points: 2
#     Edge 44, Type (0, 0), BuildingBlock: CIFDUS_clean_linker_0, # of connection points: 2
#     Edge 45, Type (0, 0), BuildingBlock: CIFDUS_clean_linker_0, # of connection points: 2
#     Edge 46, Type (0, 0), BuildingBlock: CIFDUS_clean_linker_0, # of connection points: 2
#     Edge 47, Type (0, 0), BuildingBlock: CIFDUS_clean_linker_0, # of connection points: 2
# Relax obj value: 0.170
# Max RMSD: 0.199
# Mean RMSD: 0.199
data_MOF--net-uob--node1-CEKHIL_clean_sbu_0--edge1-CIFDUS_clean_linker_0
_symmetry_space_group_name_H-M    P1
_symmetry_Int_Tables_number       1
_symmetry_cell_setting            triclinic
loop_
_symmetry_equiv_pos_as_xyz
'x, y, z'
_cell_length_a     46.400813
_cell_length_b     46.670615
_cell_length_c     23.242313
_cell_angle_alpha  90.009198
_cell_angle_beta   89.956067
_cell_angle_gamma 89.969893
loop_
_atom_site_label
_atom_site_type_symbol
_atom_site_fract_x
_atom_site_fract_y
_atom_site_fract_z
_atom_type_partial_charge
Co0 Co 0.13678 0.08483 0.28546 0.0
O1 O 0.17653 0.09608 0.27922 0.0
O2 O 0.1619 0.05727 0.32472 0.0
C3 C 0.12354 0.09325 0.1944 0.0
O4 O 0.09681 0.0666 0.29831 0.0
Co5 Co 0.09015 0.1326 0.26668 0.0
O6 O 0.06325 0.09986 0.27542 0.0
C7 C 0.12611 0.1337 0.36877 0.0
C8 C 0.1832 0.07405 0.31047 0.0
C9 C 0.07032 0.07455 0.29079 0.0
O10 O 0.13366 0.10771 0.35812 0.0
O11 O 0.11123 0.14889 0.33402 0.0
O12 O 0.13683 0.06942 0.20681 0.0
O13 O 0.12251 0.1119 0.23497 0.0
Co14 Co 0.94565 0.63871 0.52549 0.0
O15 O 0.93708 0.67888 0.53644 0.0
O16 O 0.97465 0.6562 0.57376 0.0
C17 C 0.93681 0.63551 0.43084 0.0
O18 O 0.96207 0.59808 0.52244 0.0
Co19 Co 0.89733 0.59605 0.49102 0.0
O20 O 0.92907 0.5675 0.4869 0.0
C21 C 0.8984 0.61883 0.60781 0.0
C22 C 0.95952 0.67959 0.56982 0.0
C23 C 0.95436 0.57293 0.50526 0.0
O24 O 0.9232 0.62957 0.5966 0.0
O25 O 0.88296 0.60609 0.57008 0.0
O26 O 0.96127 0.64592 0.44871 0.0
O27 O 0.91763 0.63106 0.47012 0.0
Co28 Co 0.38114 0.45085 0.76547 0.0
O29 O 0.34179 0.43991 0.78049 0.0
O30 O 0.36145 0.48097 0.80777 0.0
C31 C 0.38353 0.43765 0.67249 0.0
O32 O 0.42081 0.46957 0.75742 0.0
Co33 Co 0.42676 0.40411 0.73485 0.0
O34 O 0.45336 0.43711 0.72668 0.0
C35 C 0.40392 0.40779 0.85207 0.0
C36 C 0.33919 0.46405 0.80782 0.0
C37 C 0.44651 0.46255 0.74131 0.0
O38 O 0.39267 0.4322 0.83978 0.0
O39 O 0.41625 0.39179 0.81473 0.0
O40 O 0.37192 0.4621 0.68642 0.0
O41 O 0.38996 0.42106 0.71493 0.0
Co42 Co 0.58017 0.87626 0.01419 0.0
O43 O 0.59536 0.83804 0.01686 0.0
O44 O 0.55421 0.85089 0.05695 0.0
C45 C 0.58884 0.88461 0.9203 0.0
O46 O 0.55805 0.9144 0.01803 0.0
Co47 Co 0.62342 0.92576 0.98768 0.0
O48 O 0.58795 0.94946 0.98773 0.0
C49 C 0.62468 0.89791 0.10036 0.0
C50 C 0.57332 0.83088 0.04796 0.0
C51 C 0.5633 0.94085 0.00482 0.0
O52 O 0.60096 0.88524 0.0877 0.0
O53 O 0.63875 0.91324 0.06438 0.0
O54 O 0.56601 0.87035 0.93572 0.0
O55 O 0.60686 0.89012 0.96101 0.0
Co56 Co 0.15773 0.44819 0.04873 0.0
O57 O 0.19642 0.43402 0.04682 0.0
O58 O 0.18319 0.47577 0.01078 0.0
C59 C 0.1478 0.43627 0.14063 0.0
O60 O 0.11875 0.46904 0.04498 0.0
Co61 Co 0.10951 0.40231 0.06458 0.0
O62 O 0.08454 0.43671 0.06873 0.0
C63 C 0.13774 0.40793 0.95267 0.0
C64 C 0.2035 0.45678 0.01826 0.0
C65 C 0.09225 0.46212 0.05554 0.0
O66 O 0.15058 0.43033 0.97164 0.0
O67 O 0.12182 0.392 0.9843 0.0
O68 O 0.16181 0.45976 0.12937 0.0
O69 O 0.14373 0.41956 0.09718 0.0
Co70 Co 0.57119 0.64492 0.27598 0.0
O71 O 0.58331 0.68392 0.26406 0.0
O72 O 0.54176 0.66619 0.23392 0.0
C73 C 0.5837 0.64112 0.36913 0.0
O74 O 0.55175 0.60544 0.28138 0.0
Co75 Co 0.61808 0.59907 0.30493 0.0
O76 O 0.58449 0.57308 0.31196 0.0
C77 C 0.61485 0.62319 0.18888 0.0
C78 C 0.55947 0.6878 0.23604 0.0
C79 C 0.55892 0.57979 0.29698 0.0
O80 O 0.59026 0.63422 0.20151 0.0
O81 O 0.63084 0.6105 0.22579 0.0
O82 O 0.55939 0.65319 0.35522 0.0
O83 O 0.60058 0.63509 0.32678 0.0
Co84 Co 0.37612 0.06419 0.51557 0.0
O85 O 0.33615 0.07542 0.5115 0.0
O86 O 0.3538 0.03596 0.47237 0.0
C87 C 0.3832 0.07339 0.60981 0.0
O88 O 0.41665 0.04613 0.51183 0.0
Co89 Co 0.42127 0.11183 0.54379 0.0
O90 O 0.44917 0.07977 0.53823 0.0
C91 C 0.39361 0.11085 0.43076 0.0
C92 C 0.33174 0.05276 0.48052 0.0
C93 C 0.44275 0.05444 0.52221 0.0
O94 O 0.38344 0.08593 0.4425 0.0
O95 O 0.40718 0.12619 0.46747 0.0
O96 O 0.37127 0.04941 0.594 0.0
O97 O 0.38705 0.09184 0.56927 0.0
Co98 Co 0.94315 0.86724 0.79015 0.0
O99 O 0.93283 0.82732 0.77945 0.0
O100 O 0.97183 0.84819 0.74382 0.0
C101 C 0.93359 0.87182 0.88484 0.0
O102 O 0.96201 0.90658 0.79235 0.0
Co103 Co 0.8976 0.91329 0.82285 0.0
O104 O 0.93103 0.93985 0.8252 0.0
C105 C 0.89821 0.89044 0.70577 0.0
C106 C 0.95579 0.82548 0.74746 0.0
C107 C 0.95596 0.93241 0.80761 0.0
O108 O 0.92184 0.87736 0.71771 0.0
O109 O 0.88362 0.90437 0.74319 0.0
O110 O 0.95751 0.8598 0.868 0.0
O111 O 0.91508 0.87701 0.84472 0.0
Co112 Co 0.65118 0.578 0.76374 0.0
O113 O 0.68929 0.59269 0.77571 0.0
O114 O 0.67404 0.55082 0.80837 0.0
C115 C 0.64689 0.58893 0.66991 0.0
O116 O 0.61281 0.55637 0.7585 0.0
Co117 Co 0.603 0.62216 0.73234 0.0
O118 O 0.5792 0.5871 0.72497 0.0
C119 C 0.62532 0.62029 0.84971 0.0
C120 C 0.69444 0.56997 0.80611 0.0
C121 C 0.58695 0.56217 0.74139 0.0
O122 O 0.63867 0.59698 0.83715 0.0
O123 O 0.61174 0.6353 0.81251 0.0
O124 O 0.66061 0.5658 0.68517 0.0
O125 O 0.63986 0.60589 0.71135 0.0
Co126 Co 0.44159 0.14206 0.00829 0.0
O127 O 0.426 0.18015 0.01199 0.0
O128 O 0.46695 0.16725 0.05275 0.0
C129 C 0.43381 0.13408 0.91386 0.0
O130 O 0.464 0.1041 0.01192 0.0
Co131 Co 0.39896 0.09236 0.97908 0.0
O132 O 0.43454 0.06883 0.98091 0.0
C133 C 0.3969 0.11886 0.09294 0.0
C134 C 0.44764 0.18712 0.04435 0.0
C135 C 0.45898 0.0776 -0.00118 0.0
O136 O 0.42033 0.13224 0.08091 0.0
O137 O 0.38323 0.10361 0.05625 0.0
O138 O 0.45632 0.14859 0.93022 0.0
O139 O 0.41552 0.12828 0.95396 0.0
Co140 Co 0.8816 0.94808 0.28235 0.0
O141 O 0.84042 0.94168 0.28883 0.0
O142 O 0.86367 0.97824 0.3275 0.0
C143 C 0.88641 0.93775 0.18783 0.0
O144 O 0.92358 0.96236 0.28358 0.0
Co145 Co 0.92262 0.89743 0.25216 0.0
O146 O 0.95257 0.92773 0.24887 0.0
C147 C 0.89698 0.90053 0.36714 0.0
C148 C 0.83953 0.96443 0.32091 0.0
C149 C 0.94864 0.9531 0.26771 0.0
O150 O 0.88776 0.92581 0.35527 0.0
O151 O 0.9095 0.88444 0.33018 0.0
O152 O 0.87718 0.96291 0.20368 0.0
O153 O 0.88913 0.91926 0.22863 0.0
Co154 Co 0.06697 0.36654 0.52304 0.0
O155 O 0.08295 0.32902 0.53152 0.0
O156 O 0.03935 0.34127 0.56129 0.0
C157 C 0.0811 0.37452 0.43173 0.0
O158 O 0.04448 0.4044 0.52009 0.0
Co159 Co 0.11225 0.41528 0.50839 0.0
O160 O 0.07696 0.43875 0.4981 0.0
C161 C 0.10541 0.38807 0.62036 0.0
C162 C 0.05988 0.32215 0.55968 0.0
C163 C 0.05116 0.43067 0.50825 0.0
O164 O 0.08242 0.37641 0.60092 0.0
O165 O 0.12248 0.40277 0.58873 0.0
O166 O 0.05784 0.35975 0.44186 0.0
O167 O 0.09647 0.38032 0.47646 0.0
Co168 Co 0.64599 0.94917 0.51991 0.0
O169 O 0.68714 0.94405 0.51122 0.0
O170 O 0.66213 0.97904 0.47101 0.0
C171 C 0.64306 0.94073 0.61511 0.0
O172 O 0.60321 0.96138 0.52162 0.0
Co173 Co 0.60906 0.89631 0.55549 0.0
O174 O 0.57866 0.92582 0.56535 0.0
C175 C 0.63116 0.89982 0.4382 0.0
C176 C 0.68681 0.96608 0.47728 0.0
C177 C 0.57993 0.95103 0.54433 0.0
O178 O 0.63954 0.92545 0.44913 0.0
O179 O 0.62004 0.88332 0.47614 0.0
O180 O 0.65111 0.96586 0.59677 0.0
O181 O 0.64085 0.92121 0.57608 0.0
Co182 Co 0.07061 0.13495 0.77962 0.0
O183 O 0.08018 0.17517 0.7761 0.0
O184 O 0.04062 0.15588 0.73976 0.0
C185 C 0.08216 0.1262 0.87141 0.0
O186 O 0.05261 0.09512 0.77601 0.0
Co187 Co 0.11779 0.08853 0.80144 0.0
O188 O 0.08464 0.06172 0.80418 0.0
C189 C 0.11841 0.12236 0.69631 0.0
C190 C 0.05656 0.17851 0.74667 0.0
C191 C 0.05928 0.06912 0.78914 0.0
O192 O 0.09197 0.12928 0.70556 0.0
O193 O 0.13372 0.10838 0.73234 0.0
O194 O 0.05749 0.13824 0.85958 0.0
O195 O 0.09973 0.12343 0.82897 0.0
Co196 Co 0.88174 0.56652 0.03107 0.0
O197 O 0.84201 0.57743 0.02387 0.0
O198 O 0.86053 0.53771 0.98751 0.0
C199 C 0.88708 0.57687 0.12484 0.0
O200 O 0.92209 0.54853 0.03156 0.0
Co201 Co 0.92657 0.6142 0.05908 0.0
O202 O 0.95394 0.58157 0.06271 0.0
C203 C 0.90002 0.61219 0.94518 0.0
C204 C 0.83829 0.55456 -0.00696 0.0
C205 C 0.94783 0.5562 0.04636 0.0
O206 O 0.89015 0.58726 0.95755 0.0
O207 O 0.91326 0.62796 0.98163 0.0
O208 O 0.87547 0.55267 0.10946 0.0
O209 O 0.8917 0.59492 0.08382 0.0
Co210 Co 0.44958 0.37225 0.27776 0.0
O211 O 0.43692 0.33344 0.2651 0.0
O212 O 0.47851 0.35084 0.23446 0.0
C213 C 0.4377 0.3759 0.37142 0.0
O214 O 0.46954 0.41146 0.28352 0.0
Co215 Co 0.40328 0.41844 0.30873 0.0
O216 O 0.43724 0.44397 0.31544 0.0
C217 C 0.40657 0.39628 0.1912 0.0
C218 C 0.46055 0.32942 0.23632 0.0
C219 C 0.46266 0.43711 0.29964 0.0
O220 O 0.43043 0.38379 0.20393 0.0
O221 O 0.39087 0.40919 0.22832 0.0
O222 O 0.46168 0.36342 0.3566 0.0
O223 O 0.42061 0.38221 0.32961 0.0
H224 H 0.3101 0.08932 0.40351 0.0
H225 H 0.29179 0.00916 0.48717 0.0
H226 H 0.24408 1.00762 0.44062 0.0
H227 H 0.20638 0.03115 0.37945 0.0
H228 H 0.22782 0.11028 0.293 0.0
H229 H 0.27529 0.10992 0.33643 0.0
C230 C 0.29573 0.07137 0.41104 0.0
C231 C 0.30424 0.04949 0.4488 0.0
C232 C 0.26876 0.07049 0.38355 0.0
C233 C 0.28564 0.02621 0.45804 0.0
C234 C 0.25835 0.02543 0.43159 0.0
C235 C 0.22157 0.04809 0.36964 0.0
C236 C 0.21317 0.07084 0.33313 0.0
C237 C 0.24945 0.04771 0.39469 0.0
C238 C 0.23335 0.09253 0.3209 0.0
C239 C 0.26065 0.09245 0.34591 0.0
H240 H 0.96073 0.76858 0.774 0.0
H241 H 0.96079 0.82808 0.63234 0.0
H242 H 0.96233 0.78842 0.56367 0.0
H243 H 0.96078 0.73639 0.54384 0.0
H244 H 0.96751 0.67694 0.68491 0.0
H245 H 0.96661 0.71663 0.75381 0.0
C246 C 0.96145 0.77271 0.7281 0.0
C247 C 0.96024 0.80107 0.70802 0.0
C248 C 0.9636 0.74977 0.68881 0.0
C249 C 0.96154 0.80634 0.64859 0.0
C250 C 0.9624 0.78368 0.60932 0.0
C251 C 0.9626 0.73228 0.58963 0.0
C252 C 0.9641 0.70391 0.60944 0.0
C253 C 0.96305 0.75527 0.62888 0.0
C254 C 0.96654 0.6987 0.66877 0.0
C255 C 0.96583 0.72137 0.70819 0.0
H256 H 0.32029 0.43005 0.89182 0.0
H257 H 0.30226 0.51023 0.8079 0.0
H258 H 0.25896 0.51656 0.8681 0.0
H259 H 0.22468 0.49718 0.94167 0.0
H260 H 0.24675 0.4184 0.02885 0.0
H261 H 0.29012 0.41399 0.97144 0.0
C262 C 0.30688 0.44896 0.88694 0.0
C263 C 0.31396 0.46938 0.84507 0.0
C264 C 0.28278 0.45275 0.92261 0.0
C265 C 0.29693 0.49411 0.83971 0.0
C266 C 0.27224 0.49769 0.87412 0.0
C267 C 0.23925 0.47936 0.94871 0.0
C268 C 0.23209 0.458 -0.01073 0.0
C269 C 0.26471 0.47692 0.91543 0.0
C270 C 0.25139 0.4351 -0.00216 0.0
C271 C 0.27626 0.4324 0.96478 0.0
H272 H 0.5296 0.80561 0.11214 0.0
H273 H 0.61582 0.79139 0.04771 0.0
H274 H 0.61866 0.7465 0.09958 0.0
H275 H 0.59826 0.712 0.16671 0.0
H276 H 0.51128 0.72229 0.22765 0.0
H277 H 0.50705 0.76768 0.17403 0.0
C278 C 0.54885 0.79253 0.10912 0.0
C279 C 0.57254 0.80221 0.07619 0.0
C280 C 0.55034 0.76606 0.13888 0.0
C281 C 0.59724 0.78477 0.07259 0.0
C282 C 0.599 0.75899 0.10249 0.0
C283 C 0.57834 0.7242 0.16818 0.0
C284 C 0.55529 0.71419 0.20165 0.0
C285 C 0.57594 0.74964 0.13635 0.0
C286 C 0.52936 0.72974 0.20226 0.0
C287 C 0.52702 0.75569 0.1717 0.0
H288 H 0.7309 0.52482 0.83315 0.0
H289 H 0.71449 0.61434 0.86636 0.0
H290 H 0.75589 0.61658 0.93015 0.0
H291 H 0.7976 0.59433 0.97368 0.0
H292 H 0.81838 0.5062 0.93674 0.0
H293 H 0.77463 0.5021 0.87753 0.0
C294 C 0.73648 0.54469 0.85458 0.0
C295 C 0.71977 0.56946 0.84477 0.0
C296 C 0.76111 0.5461 0.89048 0.0
C297 C 0.72724 0.59512 0.87257 0.0
C298 C 0.75085 0.59641 0.90931 0.0
C299 C 0.79251 0.57404 0.95331 0.0
C300 C 0.81111 0.55052 0.96021 0.0
C301 C 0.76805 0.57219 0.91817 0.0
C302 C 0.80433 0.52461 0.93246 0.0
C303 C 0.77934 0.5223 0.89847 0.0
H304 H 0.41969 0.30166 0.17732 0.0
H305 H 0.51031 0.29845 0.21631 0.0
H306 H 0.51498 0.25382 0.16039 0.0
H307 H 0.49228 0.21482 0.10147 0.0
H308 H 0.40208 0.22232 0.05801 0.0
H309 H 0.39839 0.266 0.11392 0.0
C310 C 0.44048 0.29114 0.17374 0.0
C311 C 0.4645 0.30299 0.20166 0.0
C312 C 0.44308 0.2662 0.14032 0.0
C313 C 0.49145 0.28958 0.19544 0.0
C314 C 0.49408 0.26407 0.1635 0.0
C315 C 0.47193 0.22617 0.104 0.0
C316 C 0.44748 0.21505 0.0755 0.0
C317 C 0.46994 0.25202 0.13584 0.0
C318 C 0.42132 0.23022 0.07907 0.0
C319 C 0.41907 0.25526 0.11137 0.0
H320 H 0.78332 0.96824 0.28615 0.0
H321 H 0.83793 0.97409 0.43552 0.0
H322 H 0.79552 0.97652 0.49801 0.0
H323 H 0.74265 0.97266 0.51068 0.0
H324 H 0.68784 0.97216 0.36125 0.0
H325 H 0.73023 0.97233 0.29829 0.0
C326 C 0.78583 0.97066 0.33228 0.0
C327 C 0.81369 0.97094 0.35626 0.0
C328 C 0.76125 0.97291 0.36793 0.0
C329 C 0.81671 0.9741 0.41606 0.0
C330 C 0.79245 0.97531 0.45185 0.0
C331 C 0.74007 0.97333 0.46432 0.0
C332 C 0.71219 0.97244 0.44059 0.0
C333 C 0.76459 0.97418 0.4284 0.0
C334 C 0.70907 0.97319 0.38049 0.0
C335 C 0.73333 0.97304 0.34448 0.0
H336 H 0.01766 0.28224 0.58717 0.0
H337 H 0.10537 0.30719 0.62292 0.0
H338 H 0.11108 0.26687 0.68785 0.0
H339 H 0.09272 0.22309 0.73066 0.0
H340 H 1.00656 0.19461 0.6919 0.0
H341 H 0.99863 0.23743 0.63271 0.0
C342 C 0.03788 0.27876 0.60943 0.0
C343 C 0.06117 0.29746 0.59961 0.0
C344 C 0.04137 0.25483 0.64626 0.0
C345 C 0.08729 0.29279 0.62881 0.0
C346 C 0.09058 0.2698 0.66629 0.0
C347 C 0.07202 0.22638 0.71001 0.0
C348 C 0.05024 0.20575 0.71609 0.0
C349 C 0.06797 0.25047 0.67478 0.0
C350 C 0.0237 0.21024 0.68818 0.0
C351 C 0.01919 0.23469 0.6541 0.0
H352 H 0.06955 0.01702 0.26702 0.0
H353 H 0.01643 0.08619 0.3295 0.0
H354 H 0.97428 0.055 0.32931 0.0
H355 H 0.95159 0.00879 0.30598 0.0
H356 H 1.00449 0.93995 0.24042 0.0
H357 H 0.04707 0.97011 0.24705 0.0
C358 C 0.04886 0.02505 0.28158 0.0
C359 C 0.04623 0.05389 0.29828 0.0
C360 C 0.02436 1.00712 0.28001 0.0
C361 C 0.01909 0.06409 0.31622 0.0
C362 C 0.99488 0.04628 0.31596 0.0
C363 C 0.9724 1.00033 0.29321 0.0
C364 C 0.97449 0.97206 0.2724 0.0
C365 C 0.99708 0.01789 0.29685 0.0
C366 C 1.00189 0.96161 0.25634 0.0
C367 C 0.02645 0.97885 0.26022 0.0
H368 H 0.94408 0.5152 0.50009 0.0
H369 H 0.01277 0.57723 0.51474 0.0
H370 H 0.04818 0.53867 0.51683 0.0
H371 H 0.0598 0.48791 0.51417 0.0
H372 H 0.99196 0.42491 0.50231 0.0
H373 H 0.95596 0.46345 0.4998 0.0
C374 C 0.9668 0.5203 0.50361 0.0
C375 C 0.9757 0.5492 0.50704 0.0
C376 C 0.98716 0.49791 0.5054 0.0
C377 C 1.00524 0.55531 0.51219 0.0
C378 C 0.02554 0.53324 0.51328 0.0
C379 C 0.03716 0.48241 0.51078 0.0
C380 C 0.02868 0.45342 0.5079 0.0
C381 C 0.01674 0.50454 0.50983 0.0
C382 C 0.99915 0.44696 0.50451 0.0
C383 C 0.97858 0.46901 0.50296 0.0
H384 H 0.50464 0.45403 0.74231 0.0
H385 H 0.44017 0.52081 0.74061 0.0
H386 H 0.47804 0.55714 0.74016 0.0
H387 H 0.52907 0.56994 0.74002 0.0
H388 H 0.59394 0.50364 0.74531 0.0
H389 H 0.55611 0.46701 0.74483 0.0
C390 C 0.49883 0.47653 0.74157 0.0
C391 C 0.46952 0.48465 0.74106 0.0
C392 C 0.52073 0.49734 0.74209 0.0
C393 C 0.46247 0.51392 0.74099 0.0
C394 C 0.48413 0.53472 0.74067 0.0
C395 C 0.53507 0.54748 0.7408 0.0
C396 C 0.56441 0.53957 0.74216 0.0
C397 C 0.51328 0.52666 0.74113 0.0
C398 C 0.5716 0.51035 0.74418 0.0
C399 C 0.54996 0.48941 0.74379 0.0
H400 H 0.5697 0.99874 0.00918 0.0
H401 H 0.50471 0.93255 0.01012 0.0
H402 H 0.46693 0.9692 0.0101 0.0
H403 H 0.45252 0.01978 0.00546 0.0
H404 H 0.51749 0.08599 0.00609 0.0
H405 H 0.55525 0.04937 0.01009 0.0
C406 C 0.54727 0.99222 0.00944 0.0
C407 C 0.5401 0.9628 0.00898 0.0
C408 C 0.52572 0.01339 0.00955 0.0
C409 C 0.5109 0.95492 0.01034 0.0
C410 C 0.48929 0.9759 0.01014 0.0
C411 C 0.47494 0.02631 0.00646 0.0
C412 C 0.48213 0.05572 0.00475 0.0
C413 C 0.49648 1.00516 0.00899 0.0
C414 C 0.5113 0.06362 0.00718 0.0
C415 C 0.5329 0.04266 0.00932 0.0
H416 H 0.03491 0.4522 0.04522 0.0
H417 H 0.09687 0.52099 0.05578 0.0
H418 H 0.05754 0.55607 0.05295 0.0
H419 H 1.00559 0.56692 0.05024 0.0
H420 H 0.94408 0.49774 0.03792 0.0
H421 H 0.98347 0.46298 0.03863 0.0
C422 C 0.03996 0.47487 0.04705 0.0
C423 C 0.06892 0.4839 0.05137 0.0
C424 C 0.01733 0.49479 0.04515 0.0
C425 C 0.07487 0.5134 0.0526 0.0
C426 C 0.05236 0.53345 0.05112 0.0
C427 C 1.00071 0.54423 0.04774 0.0
C428 C 0.97176 0.535 0.0445 0.0
C429 C 0.02351 0.52435 0.04788 0.0
C430 C 0.96603 0.50551 0.04049 0.0
C431 C 0.98858 0.48561 0.04103 0.0
H432 H 0.45294 0.49458 0.29938 0.0
H433 H 0.52167 0.43218 0.29624 0.0
H434 H 0.55726 0.4709 0.29543 0.0
H435 H 0.56875 0.52229 0.29637 0.0
H436 H 0.49994 0.58462 0.29609 0.0
H437 H 0.46439 0.5459 0.29738 0.0
C438 C 0.47571 0.48933 0.29876 0.0
C439 C 0.48458 0.46037 0.29838 0.0
C440 C 0.496 0.51168 0.29762 0.0
C441 C 0.51419 0.45417 0.29662 0.0
C442 C 0.53455 0.47633 0.29625 0.0
C443 C 0.54597 0.52751 0.29678 0.0
C444 C 0.53707 0.55646 0.29658 0.0
C445 C 0.52568 0.50514 0.2969 0.0
C446 C 0.50744 0.56264 0.29623 0.0
C447 C 0.4871 0.54048 0.29709 0.0
H448 H 0.45711 1.00734 0.58477 0.0
H449 H 0.48449 0.05933 0.44195 0.0
H450 H 0.52987 0.03263 0.43585 0.0
H451 H 0.56296 0.99562 0.47432 0.0
H452 H 0.53553 0.94469 0.61933 0.0
H453 H 0.48965 0.96988 0.62191 0.0
C454 C 0.47279 0.01227 0.55157 0.0
C455 C 0.46732 0.03479 0.5131 0.0
C456 C 0.49923 0.99736 0.54946 0.0
C457 C 0.48813 0.04168 0.47136 0.0
C458 C 0.51418 0.02661 0.46823 0.0
C459 C 0.54701 0.99018 0.50662 0.0
C460 C 0.55287 0.96823 0.54648 0.0
C461 C 0.52025 1.00469 0.50772 0.0
C462 C 0.5317 0.96135 0.58778 0.0
C463 C 0.50531 0.97572 0.58934 0.0
H464 H 0.0662 0.01121 0.79153 0.0
H465 H 1.00087 0.07709 0.78618 0.0
H466 H 0.96325 0.04064 0.79198 0.0
H467 H 0.9489 0.99018 0.80107 0.0
H468 H 0.01423 0.9243 0.80345 0.0
H469 H 0.05184 0.96072 0.79649 0.0
C470 C 0.04374 0.01765 0.79152 0.0
C471 C 0.03643 0.04691 0.78878 0.0
C472 C 0.0222 0.99659 0.79465 0.0
C473 C 1.00717 0.05476 0.78815 0.0
C474 C 0.98561 0.03393 0.79172 0.0
C475 C 0.97137 0.98378 0.80032 0.0
C476 C 0.97872 0.95455 0.80332 0.0
C477 C 0.99289 1.00481 0.79552 0.0
C478 C 1.00794 0.94663 0.8013 0.0
C479 C 0.02948 0.96745 0.79735 0.0
H480 H 0.10078 0.1629 0.6213 0.0
H481 H 0.16451 0.09648 0.64515 0.0
H482 H 0.17818 0.09989 0.54414 0.0
H483 H 0.16419 0.11381 0.44691 0.0
H484 H 0.0982 0.17792 0.42227 0.0
H485 H 0.09411 0.1842 0.52602 0.0
C486 C 0.11796 0.14949 0.6045 0.0
C487 C 0.13081 0.12867 0.63965 0.0
C488 C 0.12524 0.15109 0.5463 0.0
C489 C 0.15382 0.1122 0.61833 0.0
C490 C 0.16164 0.1141 0.56063 0.0
C491 C 0.14939 0.12964 0.46425 0.0
C492 C 0.13063 0.14444 0.42745 0.0
C493 C 0.14629 0.13225 0.52373 0.0
C494 C 0.1124 0.16573 0.44999 0.0
C495 C 0.10986 0.16917 0.50931 0.0
H496 H 0.91787 0.65378 0.69177 0.0
H497 H 0.85788 0.5849 0.66003 0.0
H498 H 0.85019 0.57947 0.76353 0.0
H499 H 0.86604 0.58955 0.86193 0.0
H500 H 0.9281 0.6568 0.89305 0.0
H501 H 0.92931 0.66774 0.79039 0.0
C502 C 0.90288 0.63775 0.70742 0.0
C503 C 0.88903 0.61925 0.66845 0.0
C504 C 0.89923 0.63424 0.7667 0.0
C505 C 0.86903 0.59919 0.6892 0.0
C506 C 0.86478 0.59596 0.74835 0.0
C507 C 0.87968 0.60678 0.84641 0.0
C508 C 0.89753 0.62186 0.88491 0.0
C509 C 0.88069 0.61258 0.78737 0.0
C510 C 0.91444 0.64461 0.86428 0.0
C511 C 0.9152 0.65084 0.80558 0.0
H512 H 0.42885 0.36528 0.10314 0.0
H513 H 0.36552 0.43043 0.14172 0.0
H514 H 0.35717 0.43779 0.03917 0.0
H515 H 0.37186 0.4296 0.93938 0.0
H516 H 0.43583 0.36503 0.90105 0.0
H517 H 0.43979 0.35355 0.00306 0.0
C518 C 0.41305 0.38096 0.08921 0.0
C519 C 0.3983 0.39771 0.12999 0.0
C520 C 0.40868 0.38541 0.03035 0.0
C521 C 0.37741 0.41744 0.11123 0.0
C522 C 0.3727 0.42177 0.0526 0.0
C523 C 0.38654 0.41287 0.95323 0.0
C524 C 0.40393 0.3986 0.91279 0.0
C525 C 0.38889 0.40652 0.01189 0.0
C526 C 0.42239 0.37656 0.93134 0.0
C527 C 0.42473 0.37001 -0.01033 0.0
H528 H 0.6642 0.92187 0.3532 0.0
H529 H 0.60065 0.85647 0.38727 0.0
H530 H 0.59595 0.84743 0.28415 0.0
H531 H 0.60481 0.86297 0.18503 0.0
H532 H 0.66705 0.92978 0.15148 0.0
H533 H 0.67755 0.93314 0.25405 0.0
C534 C 0.64953 0.90541 0.33814 0.0
C535 C 0.63229 0.89035 0.37766 0.0
C536 C 0.6465 0.90078 0.27899 0.0
C537 C 0.61398 0.86856 0.35766 0.0
C538 C 0.61115 0.8635 0.29871 0.0
C539 C 0.6209 0.87808 0.19998 0.0
C540 C 0.63459 0.8966 0.16073 0.0
C541 C 0.62648 0.88028 0.25903 0.0
C542 C 0.6559 0.91554 0.18077 0.0
C543 C 0.66187 0.91755 0.23945 0.0
H544 H 0.14816 0.41321 0.68348 0.0
H545 H 0.07549 0.35574 0.69774 0.0
H546 H 0.0812 0.35423 0.80153 0.0
H547 H 0.10361 0.37277 0.88903 0.0
H548 H 0.17578 0.43081 0.87565 0.0
H549 H 0.1737 0.42803 0.77104 0.0
C550 C 0.13376 0.40014 0.7092 0.0
C551 C 0.11113 0.38513 0.68272 0.0
C552 C 0.13697 0.39944 0.76924 0.0
C553 C 0.09285 0.36799 0.71682 0.0
C554 C 0.09609 0.367 0.77636 0.0
C555 C 0.11922 0.38442 0.86332 0.0
C556 C 0.13948 0.40229 0.89018 0.0
C557 C 0.11761 0.38319 0.80314 0.0
C558 C 0.15962 0.41718 0.8561 0.0
C559 C 0.15845 0.41567 0.7962 0.0
H560 H 0.59171 0.6544 0.10187 0.0
H561 H 0.65914 0.59331 0.13946 0.0
H562 H 0.67052 0.5897 0.0373 0.0
H563 H 0.65783 0.59979 0.93736 0.0
H564 H 0.58951 0.65981 0.89946 0.0
H565 H 0.58232 0.66821 0.00209 0.0
C566 C 0.60902 0.64039 0.08783 0.0
C567 C 0.62412 0.62367 0.12813 0.0
C568 C 0.61522 0.63812 0.02906 0.0
C569 C 0.64694 0.60619 0.10931 0.0
C570 C 0.65343 0.60404 0.05088 0.0
C571 C 0.64149 0.61488 0.95144 0.0
C572 C 0.62382 0.62868 0.91086 0.0
C573 C 0.63714 0.61925 0.01036 0.0
C574 C 0.60323 0.64868 0.92981 0.0
C575 C 0.59901 0.65342 0.98849 0.0
H576 H 0.36075 0.08867 0.34506 0.0
H577 H 0.42223 0.1558 0.38119 0.0
H578 H 0.42538 0.16693 0.27889 0.0
H579 H 0.41592 0.15314 0.17923 0.0
H580 H 0.35585 0.08479 0.1429 0.0
H581 H 0.34654 0.07904 0.24556 0.0
C582 C 0.37461 0.10596 0.33072 0.0
C583 C 0.39176 0.1209 0.37061 0.0
C584 C 0.37674 0.11192 0.27182 0.0
C585 C 0.40906 0.1437 0.35138 0.0
C586 C 0.41097 0.15003 0.29284 0.0
C587 C 0.40053 0.13718 0.19361 0.0
C588 C 0.38716 0.11894 0.15349 0.0
C589 C 0.39574 0.13355 0.25263 0.0
C590 C 0.36674 0.09888 0.17285 0.0
C591 C 0.36149 0.09547 0.23159 0.0
H592 H 0.91678 0.85644 0.61875 0.0
H593 H 0.85929 0.92685 0.65574 0.0
H594 H 0.85114 0.93393 0.55296 0.0
H595 H 0.86532 0.92416 0.45333 0.0
H596 H 0.9241 0.85467 0.41668 0.0
H597 H 0.92657 0.84308 0.51888 0.0
C598 C 0.90227 0.87318 0.60442 0.0
C599 C 0.88921 0.8915 0.64482 0.0
C600 C 0.89813 0.87748 0.54538 0.0
C601 C 0.86985 0.9126 0.62557 0.0
C602 C 0.86529 0.91677 0.56678 0.0
C603 C 0.87848 0.9063 0.46754 0.0
C604 C 0.895 0.89072 0.42749 0.0
C605 C 0.88014 0.9 0.52638 0.0
C606 C 0.9114 0.86723 0.44658 0.0
C607 C 0.9129 0.86063 0.50506 0.0
H608 H 0.06036 0.14115 0.97561 0.0
H609 H 0.12023 0.08337 0.89356 0.0
H610 H 0.13568 0.06532 0.98628 0.0
H611 H 0.13586 0.06915 0.09137 0.0
H612 H 0.07933 0.13 0.17372 0.0
H613 H 0.05888 0.14332 0.08123 0.0
C614 C 0.07649 0.12437 0.97822 0.0
C615 C 0.08919 0.1138 0.92785 0.0
C616 C 0.08613 0.1147 0.03206 0.0
C617 C 0.11021 0.09213 0.93163 0.0
C618 C 0.11913 0.08171 0.98478 0.0
C619 C 0.11879 0.08501 0.08895 0.0
C620 C 0.1093 0.0987 0.13904 0.0
C621 C 0.10779 0.09334 0.03534 0.0
C622 C 0.08726 0.11933 0.13559 0.0
C623 C 0.0755 0.127 0.08266 0.0
H624 H 0.89897 0.59607 0.39165 0.0
H625 H 0.96408 0.65563 0.33494 0.0
H626 H 0.95457 0.64255 0.23459 0.0
H627 H 0.92661 0.6151 0.1633 0.0
H628 H 0.86399 0.55319 0.22121 0.0
H629 H 0.87381 0.56611 0.32127 0.0
C630 C 0.91109 0.60619 0.35739 0.0
C631 C 0.93192 0.62704 0.37049 0.0
C632 C 0.90595 0.59811 0.30023 0.0
C633 C 0.94784 0.63961 0.32574 0.0
C634 C 0.94238 0.63216 0.26848 0.0
C635 C 0.91518 0.60442 0.19788 0.0
C636 C 0.89437 0.58348 0.18509 0.0
C637 C 0.92132 0.61161 0.25524 0.0
C638 C 0.88005 0.56942 0.23016 0.0
C639 C 0.88559 0.57686 0.28728 0.0
H640 H 0.42201 0.39766 0.6372 0.0
H641 H 0.36182 0.46063 0.5737 0.0
H642 H 0.37312 0.44671 0.47463 0.0
H643 H 0.39943 0.41608 0.40675 0.0
H644 H 0.46193 0.35533 0.47002 0.0
H645 H 0.45041 0.36902 0.56912 0.0
C646 C 0.41136 0.40837 0.60174 0.0
C647 C 0.39091 0.42997 0.61267 0.0
C648 C 0.41836 0.40063 0.54512 0.0
C649 C 0.37759 0.4439 0.56627 0.0
C650 C 0.384 0.43592 0.50972 0.0
C651 C 0.41055 0.40582 0.44215 0.0
C652 C 0.43132 0.38453 0.43118 0.0
C653 C 0.40423 0.4142 0.49872 0.0
C654 C 0.44581 0.37171 0.47749 0.0
C655 C 0.43921 0.37951 0.53406 0.0
H656 H 0.60619 0.90024 0.65385 0.0
H657 H 0.66108 0.96898 0.71155 0.0
H658 H 0.64883 0.95795 0.81181 0.0
H659 H 0.62373 0.92743 0.88272 0.0
H660 H 0.56591 0.86138 0.8234 0.0
H661 H 0.57769 0.87304 0.72357 0.0
C662 C 0.61536 0.91295 0.68823 0.0
C663 C 0.63474 0.9352 0.67543 0.0
C664 C 0.60763 0.90698 0.7453 0.0
C665 C 0.64618 0.95167 0.72048 0.0
C666 C 0.6392 0.94535 0.7777 0.0
C667 C 0.61365 0.91569 0.84788 0.0
C668 C 0.59429 0.89331 0.86025 0.0
C669 C 0.62016 0.92285 0.7906 0.0
C670 C 0.58097 0.8786 0.81484 0.0
C671 C 0.58777 0.88519 0.75783 0.0
H672 H 0.11954 0.41599 0.40311 0.0
H673 H 0.06092 0.35438 0.32946 0.0
H674 H 0.07615 0.36831 0.23268 0.0
H675 H 0.10731 0.39685 0.16923 0.0
H676 H 0.16424 0.4601 0.24253 0.0
H677 H 0.14839 0.44679 0.33932 0.0
C678 C 0.11009 0.40565 0.36586 0.0
C679 C 0.08938 0.38397 0.37336 0.0
C680 C 0.11867 0.41403 0.31038 0.0
C681 C 0.07698 0.37106 0.32474 0.0
C682 C 0.08572 0.37897 0.26943 0.0
C683 C 0.11622 0.40774 0.20639 0.0
C684 C 0.13715 0.4292 0.19884 0.0
C685 C 0.10674 0.40023 0.26177 0.0
C686 C 0.14817 0.44344 0.24729 0.0
C687 C 0.13917 0.4358 0.30262 0.0
H688 H 0.60596 0.62624 0.63447 0.0
H689 H 0.66708 0.56397 0.57153 0.0
H690 H 0.65267 0.57459 0.47244 0.0
H691 H 0.62357 0.6025 0.40424 0.0
H692 H 0.56055 0.66273 0.46782 0.0
H693 H 0.57476 0.65182 0.56682 0.0
C694 C 0.61613 0.61494 0.59916 0.0
C695 C 0.63777 0.59455 0.61019 0.0
C696 C 0.60739 0.6208 0.54268 0.0
C697 C 0.65046 0.57984 0.56401 0.0
C698 C 0.64225 0.58592 0.50745 0.0
C699 C 0.6129 0.61321 0.43973 0.0
C700 C 0.59124 0.6336 0.42886 0.0
C701 C 0.62088 0.60652 0.49634 0.0
C702 C 0.57733 0.647 0.47524 0.0
C703 C 0.58549 0.64082 0.53173 0.0
H704 H 0.42176 0.11288 0.64703 0.0
H705 H 0.36362 0.04729 0.70719 0.0
H706 H 0.37472 0.0599 0.80698 0.0
H707 H 0.39905 0.09124 0.87671 0.0
H708 H 0.45906 0.15517 0.81673 0.0
H709 H 0.44926 0.14143 0.71699 0.0
C710 C 0.4116 0.10128 0.68199 0.0
C711 C 0.39161 0.07945 0.66987 0.0
C712 C 0.41836 0.10841 0.73911 0.0
C713 C 0.379 0.06425 0.71552 0.0
C714 C 0.38527 0.07151 0.77252 0.0
C715 C 0.41005 0.10211 0.84182 0.0
C716 C 0.42945 0.12446 0.85394 0.0
C717 C 0.40459 0.09383 0.78477 0.0
C718 C 0.44393 0.138 0.8084 0.0
C719 C 0.43828 0.13019 0.75142 0.0
H720 H 0.92342 0.89665 0.15118 0.0
H721 H 0.86612 0.96259 0.08951 0.0
H722 H 0.87553 0.94781 -0.00994 0.0
H723 H 0.89857 0.91484 0.92134 0.0
H724 H 0.95859 0.85122 0.98263 0.0
H725 H 0.94961 0.86639 0.08196 0.0
C726 C 0.91307 0.90786 0.11598 0.0
C727 C 0.89382 0.93047 0.12764 0.0
C728 C 0.91897 0.89954 0.05906 0.0
C729 C 0.88096 0.94511 0.08158 0.0
C730 C 0.88626 0.93658 0.02479 0.0
C731 C 0.90971 0.90429 0.95636 0.0
C732 C 0.92893 0.88164 0.94472 0.0
C733 C 0.90495 0.91359 0.01311 0.0
C734 C 0.94359 0.86857 -0.00945 0.0
C735 C 0.93844 0.87723 0.04729 0.0
loop_
_geom_bond_atom_site_label_1
_geom_bond_atom_site_label_2
_geom_bond_distance
_geom_bond_site_symmetry_2
_ccdc_geom_bond_type
Co0 O1 2.216 . S
Co0 O2 2.091 . S
Co0 O4 2.004 . S
Co0 O10 2.021 . S
Co0 O12 2.137 . S
Co0 O13 2.244 . S
O1 Co0 2.216 . S
O1 C8 1.247 . S
O2 Co0 2.091 . S
O2 C8 1.261 . S
C3 O12 1.247 . S
C3 O13 1.272 . S
O4 Co0 2.004 . S
O4 C9 1.259 . S
Co5 O6 2.061 . S
Co5 O11 2.052 . S
Co5 O13 2.135 . S
O6 Co5 2.061 . S
O6 C9 1.235 . S
C7 O10 1.238 . S
C7 O11 1.241 . S
C8 O1 1.247 . S
C8 O2 1.261 . S
C9 O4 1.259 . S
C9 O6 1.235 . S
O10 Co0 2.021 . S
O10 C7 1.238 . S
O11 Co5 2.052 . S
O11 C7 1.241 . S
O12 Co0 2.137 . S
O12 C3 1.247 . S
O13 Co0 2.244 . S
O13 C3 1.272 . S
O13 Co5 2.135 . S
Co14 O15 2.216 . S
Co14 O16 2.091 . S
Co14 O18 2.004 . S
Co14 O24 2.021 . S
Co14 O26 2.137 . S
Co14 O27 2.244 . S
O15 Co14 2.216 . S
O15 C22 1.247 . S
O16 Co14 2.091 . S
O16 C22 1.261 . S
C17 O26 1.247 . S
C17 O27 1.272 . S
O18 Co14 2.004 . S
O18 C23 1.259 . S
Co19 O20 2.061 . S
Co19 O25 2.052 . S
Co19 O27 2.135 . S
O20 Co19 2.061 . S
O20 C23 1.235 . S
C21 O24 1.238 . S
C21 O25 1.241 . S
C22 O15 1.247 . S
C22 O16 1.261 . S
C23 O18 1.259 . S
C23 O20 1.235 . S
O24 Co14 2.021 . S
O24 C21 1.238 . S
O25 Co19 2.052 . S
O25 C21 1.241 . S
O26 Co14 2.137 . S
O26 C17 1.247 . S
O27 Co14 2.244 . S
O27 C17 1.272 . S
O27 Co19 2.135 . S
Co28 O29 2.216 . S
Co28 O30 2.091 . S
Co28 O32 2.004 . S
Co28 O38 2.021 . S
Co28 O40 2.137 . S
Co28 O41 2.244 . S
O29 Co28 2.216 . S
O29 C36 1.247 . S
O30 Co28 2.091 . S
O30 C36 1.261 . S
C31 O40 1.247 . S
C31 O41 1.272 . S
O32 Co28 2.004 . S
O32 C37 1.259 . S
Co33 O34 2.061 . S
Co33 O39 2.052 . S
Co33 O41 2.135 . S
O34 Co33 2.061 . S
O34 C37 1.235 . S
C35 O38 1.238 . S
C35 O39 1.241 . S
C36 O29 1.247 . S
C36 O30 1.261 . S
C37 O32 1.259 . S
C37 O34 1.235 . S
O38 Co28 2.021 . S
O38 C35 1.238 . S
O39 Co33 2.052 . S
O39 C35 1.241 . S
O40 Co28 2.137 . S
O40 C31 1.247 . S
O41 Co28 2.244 . S
O41 C31 1.272 . S
O41 Co33 2.135 . S
Co42 O43 2.216 . S
Co42 O44 2.091 . S
Co42 O46 2.004 . S
Co42 O52 2.021 . S
Co42 O54 2.137 1_554 S
Co42 O55 2.244 . S
O43 Co42 2.216 . S
O43 C50 1.247 . S
O44 Co42 2.091 . S
O44 C50 1.261 . S
C45 O54 1.247 . S
C45 O55 1.272 1_556 S
O46 Co42 2.004 . S
O46 C51 1.259 . S
Co47 O48 2.061 . S
Co47 O53 2.052 . S
Co47 O55 2.135 . S
O48 Co47 2.061 . S
O48 C51 1.235 . S
C49 O52 1.238 . S
C49 O53 1.241 . S
C50 O43 1.247 . S
C50 O44 1.261 . S
C51 O46 1.259 . S
C51 O48 1.235 . S
O52 Co42 2.021 . S
O52 C49 1.238 . S
O53 Co47 2.052 . S
O53 C49 1.241 . S
O54 Co42 2.137 1_556 S
O54 C45 1.247 . S
O55 Co42 2.244 . S
O55 C45 1.272 1_554 S
O55 Co47 2.135 . S
Co56 O57 2.216 . S
Co56 O58 2.091 1_554 S
Co56 O60 2.004 . S
Co56 O66 2.021 1_554 S
Co56 O68 2.137 . S
Co56 O69 2.244 . S
O57 Co56 2.216 . S
O57 C64 1.247 1_554 S
O58 Co56 2.091 1_556 S
O58 C64 1.261 . S
C59 O68 1.247 . S
C59 O69 1.272 . S
O60 Co56 2.004 . S
O60 C65 1.259 . S
Co61 O62 2.061 . S
Co61 O67 2.052 1_554 S
Co61 O69 2.135 . S
O62 Co61 2.061 . S
O62 C65 1.235 . S
C63 O66 1.238 . S
C63 O67 1.241 . S
C64 O57 1.247 1_556 S
C64 O58 1.261 . S
C65 O60 1.259 . S
C65 O62 1.235 . S
O66 Co56 2.021 1_556 S
O66 C63 1.238 . S
O67 Co61 2.052 1_556 S
O67 C63 1.241 . S
O68 Co56 2.137 . S
O68 C59 1.247 . S
O69 Co56 2.244 . S
O69 C59 1.272 . S
O69 Co61 2.135 . S
Co70 O71 2.216 . S
Co70 O72 2.091 . S
Co70 O74 2.004 . S
Co70 O80 2.021 . S
Co70 O82 2.137 . S
Co70 O83 2.244 . S
O71 Co70 2.216 . S
O71 C78 1.247 . S
O72 Co70 2.091 . S
O72 C78 1.261 . S
C73 O82 1.247 . S
C73 O83 1.272 . S
O74 Co70 2.004 . S
O74 C79 1.259 . S
Co75 O76 2.061 . S
Co75 O81 2.052 . S
Co75 O83 2.135 . S
O76 Co75 2.061 . S
O76 C79 1.235 . S
C77 O80 1.238 . S
C77 O81 1.241 . S
C78 O71 1.247 . S
C78 O72 1.261 . S
C79 O74 1.259 . S
C79 O76 1.235 . S
O80 Co70 2.021 . S
O80 C77 1.238 . S
O81 Co75 2.052 . S
O81 C77 1.241 . S
O82 Co70 2.137 . S
O82 C73 1.247 . S
O83 Co70 2.244 . S
O83 C73 1.272 . S
O83 Co75 2.135 . S
Co84 O85 2.216 . S
Co84 O86 2.091 . S
Co84 O88 2.004 . S
Co84 O94 2.021 . S
Co84 O96 2.137 . S
Co84 O97 2.244 . S
O85 Co84 2.216 . S
O85 C92 1.247 . S
O86 Co84 2.091 . S
O86 C92 1.261 . S
C87 O96 1.247 . S
C87 O97 1.272 . S
O88 Co84 2.004 . S
O88 C93 1.259 . S
Co89 O90 2.061 . S
Co89 O95 2.052 . S
Co89 O97 2.135 . S
O90 Co89 2.061 . S
O90 C93 1.235 . S
C91 O94 1.238 . S
C91 O95 1.241 . S
C92 O85 1.247 . S
C92 O86 1.261 . S
C93 O88 1.259 . S
C93 O90 1.235 . S
O94 Co84 2.021 . S
O94 C91 1.238 . S
O95 Co89 2.052 . S
O95 C91 1.241 . S
O96 Co84 2.137 . S
O96 C87 1.247 . S
O97 Co84 2.244 . S
O97 C87 1.272 . S
O97 Co89 2.135 . S
Co98 O99 2.216 . S
Co98 O100 2.091 . S
Co98 O102 2.004 . S
Co98 O108 2.021 . S
Co98 O110 2.137 . S
Co98 O111 2.244 . S
O99 Co98 2.216 . S
O99 C106 1.247 . S
O100 Co98 2.091 . S
O100 C106 1.261 . S
C101 O110 1.247 . S
C101 O111 1.272 . S
O102 Co98 2.004 . S
O102 C107 1.259 . S
Co103 O104 2.061 . S
Co103 O109 2.052 . S
Co103 O111 2.135 . S
O104 Co103 2.061 . S
O104 C107 1.235 . S
C105 O108 1.238 . S
C105 O109 1.241 . S
C106 O99 1.247 . S
C106 O100 1.261 . S
C107 O102 1.259 . S
C107 O104 1.235 . S
O108 Co98 2.021 . S
O108 C105 1.238 . S
O109 Co103 2.052 . S
O109 C105 1.241 . S
O110 Co98 2.137 . S
O110 C101 1.247 . S
O111 Co98 2.244 . S
O111 C101 1.272 . S
O111 Co103 2.135 . S
Co112 O113 2.216 . S
Co112 O114 2.091 . S
Co112 O116 2.004 . S
Co112 O122 2.021 . S
Co112 O124 2.137 . S
Co112 O125 2.244 . S
O113 Co112 2.216 . S
O113 C120 1.247 . S
O114 Co112 2.091 . S
O114 C120 1.261 . S
C115 O124 1.247 . S
C115 O125 1.272 . S
O116 Co112 2.004 . S
O116 C121 1.259 . S
Co117 O118 2.061 . S
Co117 O123 2.052 . S
Co117 O125 2.135 . S
O118 Co117 2.061 . S
O118 C121 1.235 . S
C119 O122 1.238 . S
C119 O123 1.241 . S
C120 O113 1.247 . S
C120 O114 1.261 . S
C121 O116 1.259 . S
C121 O118 1.235 . S
O122 Co112 2.021 . S
O122 C119 1.238 . S
O123 Co117 2.052 . S
O123 C119 1.241 . S
O124 Co112 2.137 . S
O124 C115 1.247 . S
O125 Co112 2.244 . S
O125 C115 1.272 . S
O125 Co117 2.135 . S
Co126 O127 2.216 . S
Co126 O128 2.091 . S
Co126 O130 2.004 . S
Co126 O136 2.021 . S
Co126 O138 2.137 1_554 S
Co126 O139 2.244 . S
O127 Co126 2.216 . S
O127 C134 1.247 . S
O128 Co126 2.091 . S
O128 C134 1.261 . S
C129 O138 1.247 . S
C129 O139 1.272 1_556 S
O130 Co126 2.004 . S
O130 C135 1.259 . S
Co131 O132 2.061 . S
Co131 O137 2.052 . S
Co131 O139 2.135 . S
O132 Co131 2.061 . S
O132 C135 1.235 . S
C133 O136 1.238 . S
C133 O137 1.241 . S
C134 O127 1.247 . S
C134 O128 1.261 . S
C135 O130 1.259 . S
C135 O132 1.235 . S
O136 Co126 2.021 . S
O136 C133 1.238 . S
O137 Co131 2.052 . S
O137 C133 1.241 . S
O138 Co126 2.137 1_556 S
O138 C129 1.247 . S
O139 Co126 2.244 . S
O139 C129 1.272 1_554 S
O139 Co131 2.135 . S
Co140 O141 2.216 . S
Co140 O142 2.091 . S
Co140 O144 2.004 . S
Co140 O150 2.021 . S
Co140 O152 2.137 . S
Co140 O153 2.244 . S
O141 Co140 2.216 . S
O141 C148 1.247 . S
O142 Co140 2.091 . S
O142 C148 1.261 . S
C143 O152 1.247 . S
C143 O153 1.272 . S
O144 Co140 2.004 . S
O144 C149 1.259 . S
Co145 O146 2.061 . S
Co145 O151 2.052 . S
Co145 O153 2.135 . S
O146 Co145 2.061 . S
O146 C149 1.235 . S
C147 O150 1.238 . S
C147 O151 1.241 . S
C148 O141 1.247 . S
C148 O142 1.261 . S
C149 O144 1.259 . S
C149 O146 1.235 . S
O150 Co140 2.021 . S
O150 C147 1.238 . S
O151 Co145 2.052 . S
O151 C147 1.241 . S
O152 Co140 2.137 . S
O152 C143 1.247 . S
O153 Co140 2.244 . S
O153 C143 1.272 . S
O153 Co145 2.135 . S
Co154 O155 2.216 . S
Co154 O156 2.091 . S
Co154 O158 2.004 . S
Co154 O164 2.021 . S
Co154 O166 2.137 . S
Co154 O167 2.244 . S
O155 Co154 2.216 . S
O155 C162 1.247 . S
O156 Co154 2.091 . S
O156 C162 1.261 . S
C157 O166 1.247 . S
C157 O167 1.272 . S
O158 Co154 2.004 . S
O158 C163 1.259 . S
Co159 O160 2.061 . S
Co159 O165 2.052 . S
Co159 O167 2.135 . S
O160 Co159 2.061 . S
O160 C163 1.235 . S
C161 O164 1.238 . S
C161 O165 1.241 . S
C162 O155 1.247 . S
C162 O156 1.261 . S
C163 O158 1.259 . S
C163 O160 1.235 . S
O164 Co154 2.021 . S
O164 C161 1.238 . S
O165 Co159 2.052 . S
O165 C161 1.241 . S
O166 Co154 2.137 . S
O166 C157 1.247 . S
O167 Co154 2.244 . S
O167 C157 1.272 . S
O167 Co159 2.135 . S
Co168 O169 2.216 . S
Co168 O170 2.091 . S
Co168 O172 2.004 . S
Co168 O178 2.021 . S
Co168 O180 2.137 . S
Co168 O181 2.244 . S
O169 Co168 2.216 . S
O169 C176 1.247 . S
O170 Co168 2.091 . S
O170 C176 1.261 . S
C171 O180 1.247 . S
C171 O181 1.272 . S
O172 Co168 2.004 . S
O172 C177 1.259 . S
Co173 O174 2.061 . S
Co173 O179 2.052 . S
Co173 O181 2.135 . S
O174 Co173 2.061 . S
O174 C177 1.235 . S
C175 O178 1.238 . S
C175 O179 1.241 . S
C176 O169 1.247 . S
C176 O170 1.261 . S
C177 O172 1.259 . S
C177 O174 1.235 . S
O178 Co168 2.021 . S
O178 C175 1.238 . S
O179 Co173 2.052 . S
O179 C175 1.241 . S
O180 Co168 2.137 . S
O180 C171 1.247 . S
O181 Co168 2.244 . S
O181 C171 1.272 . S
O181 Co173 2.135 . S
Co182 O183 2.216 . S
Co182 O184 2.091 . S
Co182 O186 2.004 . S
Co182 O192 2.021 . S
Co182 O194 2.137 . S
Co182 O195 2.244 . S
O183 Co182 2.216 . S
O183 C190 1.247 . S
O184 Co182 2.091 . S
O184 C190 1.261 . S
C185 O194 1.247 . S
C185 O195 1.272 . S
O186 Co182 2.004 . S
O186 C191 1.259 . S
Co187 O188 2.061 . S
Co187 O193 2.052 . S
Co187 O195 2.135 . S
O188 Co187 2.061 . S
O188 C191 1.235 . S
C189 O192 1.238 . S
C189 O193 1.241 . S
C190 O183 1.247 . S
C190 O184 1.261 . S
C191 O186 1.259 . S
C191 O188 1.235 . S
O192 Co182 2.021 . S
O192 C189 1.238 . S
O193 Co187 2.052 . S
O193 C189 1.241 . S
O194 Co182 2.137 . S
O194 C185 1.247 . S
O195 Co182 2.244 . S
O195 C185 1.272 . S
O195 Co187 2.135 . S
Co196 O197 2.216 . S
Co196 O198 2.091 1_554 S
Co196 O200 2.004 . S
Co196 O206 2.021 1_554 S
Co196 O208 2.137 . S
Co196 O209 2.244 . S
O197 Co196 2.216 . S
O197 C204 1.247 1_554 S
O198 Co196 2.091 1_556 S
O198 C204 1.261 . S
C199 O208 1.247 . S
C199 O209 1.272 . S
O200 Co196 2.004 . S
O200 C205 1.259 . S
Co201 O202 2.061 . S
Co201 O207 2.052 1_554 S
Co201 O209 2.135 . S
O202 Co201 2.061 . S
O202 C205 1.235 . S
C203 O206 1.238 . S
C203 O207 1.241 . S
C204 O197 1.247 1_556 S
C204 O198 1.261 . S
C205 O200 1.259 . S
C205 O202 1.235 . S
O206 Co196 2.021 1_556 S
O206 C203 1.238 . S
O207 Co201 2.052 1_556 S
O207 C203 1.241 . S
O208 Co196 2.137 . S
O208 C199 1.247 . S
O209 Co196 2.244 . S
O209 C199 1.272 . S
O209 Co201 2.135 . S
Co210 O211 2.216 . S
Co210 O212 2.091 . S
Co210 O214 2.004 . S
Co210 O220 2.021 . S
Co210 O222 2.137 . S
Co210 O223 2.244 . S
O211 Co210 2.216 . S
O211 C218 1.247 . S
O212 Co210 2.091 . S
O212 C218 1.261 . S
C213 O222 1.247 . S
C213 O223 1.272 . S
O214 Co210 2.004 . S
O214 C219 1.259 . S
Co215 O216 2.061 . S
Co215 O221 2.052 . S
Co215 O223 2.135 . S
O216 Co215 2.061 . S
O216 C219 1.235 . S
C217 O220 1.238 . S
C217 O221 1.241 . S
C218 O211 1.247 . S
C218 O212 1.261 . S
C219 O214 1.259 . S
C219 O216 1.235 . S
O220 Co210 2.021 . S
O220 C217 1.238 . S
O221 Co215 2.052 . S
O221 C217 1.241 . S
O222 Co210 2.137 . S
O222 C213 1.247 . S
O223 Co210 2.244 . S
O223 C213 1.272 . S
O223 Co215 2.135 . S
H224 C230 0.930 . S
H225 C233 0.930 . S
H226 C234 0.930 . S
H227 C235 0.930 . S
H228 C238 0.930 . S
H229 C239 0.930 . S
C230 H224 0.930 . S
C230 C231 1.355 . S
C230 C232 1.415 . S
C231 C230 1.355 . S
C231 C233 1.419 . S
C232 C230 1.415 . S
C232 C237 1.425 . S
C232 C239 1.409 . S
C233 H225 0.930 . S
C233 C231 1.419 . S
C233 C234 1.362 . S
C234 H226 0.930 . S
C234 C233 1.362 . S
C234 C237 1.409 . S
C235 H227 0.930 . S
C235 C236 1.355 . S
C235 C237 1.415 . S
C236 C235 1.355 . S
C236 C238 1.419 . S
C237 C232 1.425 . S
C237 C234 1.409 . S
C237 C235 1.415 . S
C238 H228 0.930 . S
C238 C236 1.419 . S
C238 C239 1.362 . S
C239 H229 0.930 . S
C239 C232 1.409 . S
C239 C238 1.362 . S
H240 C246 0.930 . S
H241 C249 0.930 . S
H242 C250 0.930 . S
H243 C251 0.930 . S
H244 C254 0.930 . S
H245 C255 0.930 . S
C246 H240 0.930 . S
C246 C247 1.355 . S
C246 C248 1.415 . S
C247 C246 1.355 . S
C247 C249 1.419 . S
C248 C246 1.415 . S
C248 C253 1.425 . S
C248 C255 1.409 . S
C249 H241 0.930 . S
C249 C247 1.419 . S
C249 C250 1.362 . S
C250 H242 0.930 . S
C250 C249 1.362 . S
C250 C253 1.409 . S
C251 H243 0.930 . S
C251 C252 1.355 . S
C251 C253 1.415 . S
C252 C251 1.355 . S
C252 C254 1.419 . S
C253 C248 1.425 . S
C253 C250 1.409 . S
C253 C251 1.415 . S
C254 H244 0.930 . S
C254 C252 1.419 . S
C254 C255 1.362 . S
C255 H245 0.930 . S
C255 C248 1.409 . S
C255 C254 1.362 . S
H256 C262 0.930 . S
H257 C265 0.930 . S
H258 C266 0.930 . S
H259 C267 0.930 . S
H260 C270 0.930 1_554 S
H261 C271 0.930 . S
C262 H256 0.930 . S
C262 C263 1.355 . S
C262 C264 1.415 . S
C263 C262 1.355 . S
C263 C265 1.419 . S
C264 C262 1.415 . S
C264 C269 1.425 . S
C264 C271 1.409 . S
C265 H257 0.930 . S
C265 C263 1.419 . S
C265 C266 1.362 . S
C266 H258 0.930 . S
C266 C265 1.362 . S
C266 C269 1.409 . S
C267 H259 0.930 . S
C267 C268 1.355 . S
C267 C269 1.415 . S
C268 C267 1.355 . S
C268 C270 1.419 . S
C269 C264 1.425 . S
C269 C266 1.409 . S
C269 C267 1.415 . S
C270 H260 0.930 1_556 S
C270 C268 1.419 . S
C270 C271 1.362 . S
C271 H261 0.930 . S
C271 C264 1.409 . S
C271 C270 1.362 . S
H272 C278 0.930 . S
H273 C281 0.930 . S
H274 C282 0.930 . S
H275 C283 0.930 . S
H276 C286 0.930 . S
H277 C287 0.930 . S
C278 H272 0.930 . S
C278 C279 1.355 . S
C278 C280 1.415 . S
C279 C278 1.355 . S
C279 C281 1.419 . S
C280 C278 1.415 . S
C280 C285 1.425 . S
C280 C287 1.409 . S
C281 H273 0.930 . S
C281 C279 1.419 . S
C281 C282 1.362 . S
C282 H274 0.930 . S
C282 C281 1.362 . S
C282 C285 1.409 . S
C283 H275 0.930 . S
C283 C284 1.355 . S
C283 C285 1.415 . S
C284 C283 1.355 . S
C284 C286 1.419 . S
C285 C280 1.425 . S
C285 C282 1.409 . S
C285 C283 1.415 . S
C286 H276 0.930 . S
C286 C284 1.419 . S
C286 C287 1.362 . S
C287 H277 0.930 . S
C287 C280 1.409 . S
C287 C286 1.362 . S
H288 C294 0.930 . S
H289 C297 0.930 . S
H290 C298 0.930 . S
H291 C299 0.930 . S
H292 C302 0.930 . S
H293 C303 0.930 . S
C294 H288 0.930 . S
C294 C295 1.355 . S
C294 C296 1.415 . S
C295 C294 1.355 . S
C295 C297 1.419 . S
C296 C294 1.415 . S
C296 C301 1.425 . S
C296 C303 1.409 . S
C297 H289 0.930 . S
C297 C295 1.419 . S
C297 C298 1.362 . S
C298 H290 0.930 . S
C298 C297 1.362 . S
C298 C301 1.409 . S
C299 H291 0.930 . S
C299 C300 1.355 . S
C299 C301 1.415 . S
C300 C299 1.355 . S
C300 C302 1.419 . S
C301 C296 1.425 . S
C301 C298 1.409 . S
C301 C299 1.415 . S
C302 H292 0.930 . S
C302 C300 1.419 . S
C302 C303 1.362 . S
C303 H293 0.930 . S
C303 C296 1.409 . S
C303 C302 1.362 . S
H304 C310 0.930 . S
H305 C313 0.930 . S
H306 C314 0.930 . S
H307 C315 0.930 . S
H308 C318 0.930 . S
H309 C319 0.930 . S
C310 H304 0.930 . S
C310 C311 1.355 . S
C310 C312 1.415 . S
C311 C310 1.355 . S
C311 C313 1.419 . S
C312 C310 1.415 . S
C312 C317 1.425 . S
C312 C319 1.409 . S
C313 H305 0.930 . S
C313 C311 1.419 . S
C313 C314 1.362 . S
C314 H306 0.930 . S
C314 C313 1.362 . S
C314 C317 1.409 . S
C315 H307 0.930 . S
C315 C316 1.355 . S
C315 C317 1.415 . S
C316 C315 1.355 . S
C316 C318 1.419 . S
C317 C312 1.425 . S
C317 C314 1.409 . S
C317 C315 1.415 . S
C318 H308 0.930 . S
C318 C316 1.419 . S
C318 C319 1.362 . S
C319 H309 0.930 . S
C319 C312 1.409 . S
C319 C318 1.362 . S
H320 C326 0.930 . S
H321 C329 0.930 . S
H322 C330 0.930 . S
H323 C331 0.930 . S
H324 C334 0.930 . S
H325 C335 0.930 . S
C326 H320 0.930 . S
C326 C327 1.355 . S
C326 C328 1.415 . S
C327 C326 1.355 . S
C327 C329 1.419 . S
C328 C326 1.415 . S
C328 C333 1.425 . S
C328 C335 1.409 . S
C329 H321 0.930 . S
C329 C327 1.419 . S
C329 C330 1.362 . S
C330 H322 0.930 . S
C330 C329 1.362 . S
C330 C333 1.409 . S
C331 H323 0.930 . S
C331 C332 1.355 . S
C331 C333 1.415 . S
C332 C331 1.355 . S
C332 C334 1.419 . S
C333 C328 1.425 . S
C333 C330 1.409 . S
C333 C331 1.415 . S
C334 H324 0.930 . S
C334 C332 1.419 . S
C334 C335 1.362 . S
C335 H325 0.930 . S
C335 C328 1.409 . S
C335 C334 1.362 . S
H336 C342 0.930 . S
H337 C345 0.930 . S
H338 C346 0.930 . S
H339 C347 0.930 . S
H340 C350 0.930 . S
H341 C351 0.930 . S
C342 H336 0.930 . S
C342 C343 1.355 . S
C342 C344 1.415 . S
C343 C342 1.355 . S
C343 C345 1.419 . S
C344 C342 1.415 . S
C344 C349 1.425 . S
C344 C351 1.409 . S
C345 H337 0.930 . S
C345 C343 1.419 . S
C345 C346 1.362 . S
C346 H338 0.930 . S
C346 C345 1.362 . S
C346 C349 1.409 . S
C347 H339 0.930 . S
C347 C348 1.355 . S
C347 C349 1.415 . S
C348 C347 1.355 . S
C348 C350 1.419 . S
C349 C344 1.425 . S
C349 C346 1.409 . S
C349 C347 1.415 . S
C350 H340 0.930 . S
C350 C348 1.419 . S
C350 C351 1.362 . S
C351 H341 0.930 . S
C351 C344 1.409 . S
C351 C350 1.362 . S
H352 C358 0.930 . S
H353 C361 0.930 . S
H354 C362 0.930 . S
H355 C363 0.930 . S
H356 C366 0.930 . S
H357 C367 0.930 . S
C358 H352 0.930 . S
C358 C359 1.355 1_565 S
C358 C360 1.415 . S
C359 C358 1.355 1_545 S
C359 C361 1.419 . S
C360 C358 1.415 . S
C360 C365 1.425 1_465 S
C360 C367 1.409 . S
C361 H353 0.930 . S
C361 C359 1.419 . S
C361 C362 1.362 1_455 S
C362 H354 0.930 . S
C362 C361 1.362 1_655 S
C362 C365 1.409 . S
C363 H355 0.930 . S
C363 C364 1.355 1_545 S
C363 C365 1.415 . S
C364 C363 1.355 1_565 S
C364 C366 1.419 . S
C365 C360 1.425 1_645 S
C365 C362 1.409 . S
C365 C363 1.415 . S
C366 H356 0.930 . S
C366 C364 1.419 . S
C366 C367 1.362 1_655 S
C367 H357 0.930 . S
C367 C360 1.409 . S
C367 C366 1.362 1_455 S
H368 C374 0.930 . S
H369 C377 0.930 . S
H370 C378 0.930 . S
H371 C379 0.930 . S
H372 C382 0.930 . S
H373 C383 0.930 . S
C374 H368 0.930 . S
C374 C375 1.355 . S
C374 C376 1.422 . S
C375 C374 1.355 . S
C375 C377 1.419 . S
C376 C374 1.422 . S
C376 C381 1.424 1_655 S
C376 C383 1.402 1_655 S
C377 H369 0.930 . S
C377 C375 1.419 . S
C377 C378 1.362 . S
C378 H370 0.930 . S
C378 C377 1.362 . S
C378 C381 1.402 1_655 S
C379 H371 0.930 . S
C379 C380 1.355 . S
C379 C381 1.422 . S
C380 C379 1.355 . S
C380 C382 1.419 . S
C381 C376 1.424 1_455 S
C381 C378 1.402 1_455 S
C381 C379 1.422 . S
C382 H372 0.930 . S
C382 C380 1.419 . S
C382 C383 1.362 . S
C383 H373 0.930 . S
C383 C376 1.402 1_455 S
C383 C382 1.362 . S
H384 C390 0.930 . S
H385 C393 0.930 . S
H386 C394 0.930 . S
H387 C395 0.930 . S
H388 C398 0.930 . S
H389 C399 0.930 . S
C390 H384 0.930 . S
C390 C391 1.355 . S
C390 C392 1.415 . S
C391 C390 1.355 . S
C391 C393 1.419 . S
C392 C390 1.415 . S
C392 C397 1.425 . S
C392 C399 1.409 . S
C393 H385 0.930 . S
C393 C391 1.419 . S
C393 C394 1.362 . S
C394 H386 0.930 . S
C394 C393 1.362 . S
C394 C397 1.409 . S
C395 H387 0.930 . S
C395 C396 1.355 . S
C395 C397 1.415 . S
C396 C395 1.355 . S
C396 C398 1.419 . S
C397 C392 1.425 . S
C397 C394 1.409 . S
C397 C395 1.415 . S
C398 H388 0.930 . S
C398 C396 1.419 . S
C398 C399 1.362 . S
C399 H389 0.930 . S
C399 C392 1.409 . S
C399 C398 1.362 . S
H400 C406 0.930 . S
H401 C409 0.930 . S
H402 C410 0.930 . S
H403 C411 0.930 . S
H404 C414 0.930 . S
H405 C415 0.930 . S
C406 H400 0.930 . S
C406 C407 1.355 . S
C406 C408 1.390 1_565 S
C407 C406 1.355 . S
C407 C409 1.419 . S
C408 C406 1.390 1_545 S
C408 C413 1.424 1_545 S
C408 C415 1.435 . S
C409 H401 0.930 . S
C409 C407 1.419 . S
C409 C410 1.362 . S
C410 H402 0.930 . S
C410 C409 1.362 . S
C410 C413 1.435 . S
C411 H403 0.930 . S
C411 C412 1.355 . S
C411 C413 1.390 1_545 S
C412 C411 1.355 . S
C412 C414 1.419 . S
C413 C408 1.424 1_565 S
C413 C410 1.435 . S
C413 C411 1.390 1_565 S
C414 H404 0.930 . S
C414 C412 1.419 . S
C414 C415 1.362 . S
C415 H405 0.930 . S
C415 C408 1.435 . S
C415 C414 1.362 . S
H416 C422 0.930 . S
H417 C425 0.930 . S
H418 C426 0.930 . S
H419 C427 0.930 . S
H420 C430 0.930 . S
H421 C431 0.930 . S
C422 H416 0.930 . S
C422 C423 1.355 . S
C422 C424 1.415 1_455 S
C423 C422 1.355 . S
C423 C425 1.419 . S
C424 C422 1.415 1_655 S
C424 C429 1.425 1_655 S
C424 C431 1.409 . S
C425 H417 0.930 . S
C425 C423 1.419 . S
C425 C426 1.362 . S
C426 H418 0.930 . S
C426 C425 1.362 . S
C426 C429 1.409 . S
C427 H419 0.930 . S
C427 C428 1.355 . S
C427 C429 1.415 1_655 S
C428 C427 1.355 . S
C428 C430 1.419 . S
C429 C424 1.425 1_455 S
C429 C426 1.409 . S
C429 C427 1.415 1_455 S
C430 H420 0.930 . S
C430 C428 1.419 . S
C430 C431 1.362 . S
C431 H421 0.930 . S
C431 C424 1.409 . S
C431 C430 1.362 . S
H432 C438 0.930 . S
H433 C441 0.930 . S
H434 C442 0.930 . S
H435 C443 0.930 . S
H436 C446 0.930 . S
H437 C447 0.930 . S
C438 H432 0.930 . S
C438 C439 1.355 . S
C438 C440 1.415 . S
C439 C438 1.355 . S
C439 C441 1.419 . S
C440 C438 1.415 . S
C440 C445 1.425 . S
C440 C447 1.409 . S
C441 H433 0.930 . S
C441 C439 1.419 . S
C441 C442 1.362 . S
C442 H434 0.930 . S
C442 C441 1.362 . S
C442 C445 1.409 . S
C443 H435 0.930 . S
C443 C444 1.355 . S
C443 C445 1.415 . S
C444 C443 1.355 . S
C444 C446 1.419 . S
C445 C440 1.425 . S
C445 C442 1.409 . S
C445 C443 1.415 . S
C446 H436 0.930 . S
C446 C444 1.419 . S
C446 C447 1.362 . S
C447 H437 0.930 . S
C447 C440 1.409 . S
C447 C446 1.362 . S
H448 C454 0.915 1_565 S
H449 C457 0.930 . S
H450 C458 0.930 . S
H451 C459 0.915 1_545 S
H452 C462 0.930 . S
H453 C463 0.930 . S
C454 H448 0.915 1_545 S
C454 C455 1.377 . S
C454 C456 1.407 1_545 S
C455 C454 1.377 . S
C455 C457 1.419 . S
C456 C454 1.407 1_565 S
C456 C461 1.425 1_565 S
C456 C463 1.409 . S
C457 H449 0.930 . S
C457 C455 1.419 . S
C457 C458 1.362 . S
C458 H450 0.930 . S
C458 C457 1.362 . S
C458 C461 1.409 . S
C459 H451 0.915 1_565 S
C459 C460 1.377 . S
C459 C461 1.407 1_565 S
C460 C459 1.377 . S
C460 C462 1.419 . S
C461 C456 1.425 1_545 S
C461 C458 1.409 . S
C461 C459 1.407 1_545 S
C462 H452 0.930 . S
C462 C460 1.419 . S
C462 C463 1.362 . S
C463 H453 0.930 . S
C463 C456 1.409 . S
C463 C462 1.362 . S
H464 C470 0.930 . S
H465 C473 0.930 . S
H466 C474 0.930 . S
H467 C475 0.930 . S
H468 C478 0.930 . S
H469 C479 0.930 . S
C470 H464 0.930 . S
C470 C471 1.355 . S
C470 C472 1.415 . S
C471 C470 1.355 . S
C471 C473 1.419 . S
C472 C470 1.415 . S
C472 C477 1.425 1_445 S
C472 C479 1.409 1_545 S
C473 H465 0.930 . S
C473 C471 1.419 . S
C473 C474 1.362 1_455 S
C474 H466 0.930 . S
C474 C473 1.362 1_655 S
C474 C477 1.409 1_545 S
C475 H467 0.930 . S
C475 C476 1.355 . S
C475 C477 1.415 . S
C476 C475 1.355 . S
C476 C478 1.419 . S
C477 C472 1.425 1_665 S
C477 C474 1.409 1_565 S
C477 C475 1.415 . S
C478 H468 0.930 . S
C478 C476 1.419 . S
C478 C479 1.362 1_655 S
C479 H469 0.930 . S
C479 C472 1.409 1_565 S
C479 C478 1.362 1_455 S
H480 C486 0.930 . S
H481 C489 0.930 . S
H482 C490 0.930 . S
H483 C491 0.930 . S
H484 C494 0.930 . S
H485 C495 0.930 . S
C486 H480 0.930 . S
C486 C487 1.355 . S
C486 C488 1.415 . S
C487 C486 1.355 . S
C487 C489 1.419 . S
C488 C486 1.415 . S
C488 C493 1.425 . S
C488 C495 1.409 . S
C489 H481 0.930 . S
C489 C487 1.419 . S
C489 C490 1.362 . S
C490 H482 0.930 . S
C490 C489 1.362 . S
C490 C493 1.409 . S
C491 H483 0.930 . S
C491 C492 1.355 . S
C491 C493 1.415 . S
C492 C491 1.355 . S
C492 C494 1.419 . S
C493 C488 1.425 . S
C493 C490 1.409 . S
C493 C491 1.415 . S
C494 H484 0.930 . S
C494 C492 1.419 . S
C494 C495 1.362 . S
C495 H485 0.930 . S
C495 C488 1.409 . S
C495 C494 1.362 . S
H496 C502 0.930 . S
H497 C505 0.930 . S
H498 C506 0.930 . S
H499 C507 0.930 . S
H500 C510 0.930 . S
H501 C511 0.930 . S
C502 H496 0.930 . S
C502 C503 1.355 . S
C502 C504 1.415 . S
C503 C502 1.355 . S
C503 C505 1.419 . S
C504 C502 1.415 . S
C504 C509 1.425 . S
C504 C511 1.409 . S
C505 H497 0.930 . S
C505 C503 1.419 . S
C505 C506 1.362 . S
C506 H498 0.930 . S
C506 C505 1.362 . S
C506 C509 1.409 . S
C507 H499 0.930 . S
C507 C508 1.355 . S
C507 C509 1.415 . S
C508 C507 1.355 . S
C508 C510 1.419 . S
C509 C504 1.425 . S
C509 C506 1.409 . S
C509 C507 1.415 . S
C510 H500 0.930 . S
C510 C508 1.419 . S
C510 C511 1.362 . S
C511 H501 0.930 . S
C511 C504 1.409 . S
C511 C510 1.362 . S
H512 C518 0.930 . S
H513 C521 0.930 . S
H514 C522 0.930 . S
H515 C523 0.930 . S
H516 C526 0.930 . S
H517 C527 0.930 . S
C518 H512 0.930 . S
C518 C519 1.355 . S
C518 C520 1.415 . S
C519 C518 1.355 . S
C519 C521 1.419 . S
C520 C518 1.415 . S
C520 C525 1.425 . S
C520 C527 1.409 . S
C521 H513 0.930 . S
C521 C519 1.419 . S
C521 C522 1.362 . S
C522 H514 0.930 . S
C522 C521 1.362 . S
C522 C525 1.409 . S
C523 H515 0.930 . S
C523 C524 1.355 . S
C523 C525 1.415 1_556 S
C524 C523 1.355 . S
C524 C526 1.419 . S
C525 C520 1.425 . S
C525 C522 1.409 . S
C525 C523 1.415 1_554 S
C526 H516 0.930 . S
C526 C524 1.419 . S
C526 C527 1.362 1_556 S
C527 H517 0.930 . S
C527 C520 1.409 . S
C527 C526 1.362 1_554 S
H528 C534 0.930 . S
H529 C537 0.930 . S
H530 C538 0.930 . S
H531 C539 0.930 . S
H532 C542 0.930 . S
H533 C543 0.930 . S
C534 H528 0.930 . S
C534 C535 1.355 . S
C534 C536 1.415 . S
C535 C534 1.355 . S
C535 C537 1.419 . S
C536 C534 1.415 . S
C536 C541 1.425 . S
C536 C543 1.409 . S
C537 H529 0.930 . S
C537 C535 1.419 . S
C537 C538 1.362 . S
C538 H530 0.930 . S
C538 C537 1.362 . S
C538 C541 1.409 . S
C539 H531 0.930 . S
C539 C540 1.355 . S
C539 C541 1.415 . S
C540 C539 1.355 . S
C540 C542 1.419 . S
C541 C536 1.425 . S
C541 C538 1.409 . S
C541 C539 1.415 . S
C542 H532 0.930 . S
C542 C540 1.419 . S
C542 C543 1.362 . S
C543 H533 0.930 . S
C543 C536 1.409 . S
C543 C542 1.362 . S
H544 C550 0.930 . S
H545 C553 0.930 . S
H546 C554 0.930 . S
H547 C555 0.930 . S
H548 C558 0.930 . S
H549 C559 0.930 . S
C550 H544 0.930 . S
C550 C551 1.355 . S
C550 C552 1.415 . S
C551 C550 1.355 . S
C551 C553 1.419 . S
C552 C550 1.415 . S
C552 C557 1.425 . S
C552 C559 1.409 . S
C553 H545 0.930 . S
C553 C551 1.419 . S
C553 C554 1.362 . S
C554 H546 0.930 . S
C554 C553 1.362 . S
C554 C557 1.409 . S
C555 H547 0.930 . S
C555 C556 1.355 . S
C555 C557 1.415 . S
C556 C555 1.355 . S
C556 C558 1.419 . S
C557 C552 1.425 . S
C557 C554 1.409 . S
C557 C555 1.415 . S
C558 H548 0.930 . S
C558 C556 1.419 . S
C558 C559 1.362 . S
C559 H549 0.930 . S
C559 C552 1.409 . S
C559 C558 1.362 . S
H560 C566 0.930 . S
H561 C569 0.930 . S
H562 C570 0.930 . S
H563 C571 0.930 . S
H564 C574 0.930 . S
H565 C575 0.930 . S
C566 H560 0.930 . S
C566 C567 1.355 . S
C566 C568 1.415 . S
C567 C566 1.355 . S
C567 C569 1.419 . S
C568 C566 1.415 . S
C568 C573 1.425 . S
C568 C575 1.409 . S
C569 H561 0.930 . S
C569 C567 1.419 . S
C569 C570 1.362 . S
C570 H562 0.930 . S
C570 C569 1.362 . S
C570 C573 1.409 . S
C571 H563 0.930 . S
C571 C572 1.355 . S
C571 C573 1.415 1_556 S
C572 C571 1.355 . S
C572 C574 1.419 . S
C573 C568 1.425 . S
C573 C570 1.409 . S
C573 C571 1.415 1_554 S
C574 H564 0.930 . S
C574 C572 1.419 . S
C574 C575 1.362 1_556 S
C575 H565 0.930 . S
C575 C568 1.409 . S
C575 C574 1.362 1_554 S
H576 C582 0.930 . S
H577 C585 0.930 . S
H578 C586 0.930 . S
H579 C587 0.930 . S
H580 C590 0.930 . S
H581 C591 0.930 . S
C582 H576 0.930 . S
C582 C583 1.355 . S
C582 C584 1.415 . S
C583 C582 1.355 . S
C583 C585 1.419 . S
C584 C582 1.415 . S
C584 C589 1.425 . S
C584 C591 1.409 . S
C585 H577 0.930 . S
C585 C583 1.419 . S
C585 C586 1.362 . S
C586 H578 0.930 . S
C586 C585 1.362 . S
C586 C589 1.409 . S
C587 H579 0.930 . S
C587 C588 1.355 . S
C587 C589 1.415 . S
C588 C587 1.355 . S
C588 C590 1.419 . S
C589 C584 1.425 . S
C589 C586 1.409 . S
C589 C587 1.415 . S
C590 H580 0.930 . S
C590 C588 1.419 . S
C590 C591 1.362 . S
C591 H581 0.930 . S
C591 C584 1.409 . S
C591 C590 1.362 . S
H592 C598 0.930 . S
H593 C601 0.930 . S
H594 C602 0.930 . S
H595 C603 0.930 . S
H596 C606 0.930 . S
H597 C607 0.930 . S
C598 H592 0.930 . S
C598 C599 1.355 . S
C598 C600 1.415 . S
C599 C598 1.355 . S
C599 C601 1.419 . S
C600 C598 1.415 . S
C600 C605 1.425 . S
C600 C607 1.409 . S
C601 H593 0.930 . S
C601 C599 1.419 . S
C601 C602 1.362 . S
C602 H594 0.930 . S
C602 C601 1.362 . S
C602 C605 1.409 . S
C603 H595 0.930 . S
C603 C604 1.355 . S
C603 C605 1.415 . S
C604 C603 1.355 . S
C604 C606 1.419 . S
C605 C600 1.425 . S
C605 C602 1.409 . S
C605 C603 1.415 . S
C606 H596 0.930 . S
C606 C604 1.419 . S
C606 C607 1.362 . S
C607 H597 0.930 . S
C607 C600 1.409 . S
C607 C606 1.362 . S
H608 C614 0.930 . S
H609 C617 0.930 . S
H610 C618 0.930 1_554 S
H611 C619 0.930 . S
H612 C622 0.930 . S
H613 C623 0.930 . S
C614 H608 0.930 . S
C614 C615 1.355 . S
C614 C616 1.415 1_556 S
C615 C614 1.355 . S
C615 C617 1.419 . S
C616 C614 1.415 1_554 S
C616 C621 1.425 . S
C616 C623 1.409 . S
C617 H609 0.930 . S
C617 C615 1.419 . S
C617 C618 1.362 . S
C618 H610 0.930 1_556 S
C618 C617 1.362 . S
C618 C621 1.409 1_556 S
C619 H611 0.930 . S
C619 C620 1.355 . S
C619 C621 1.415 . S
C620 C619 1.355 . S
C620 C622 1.419 . S
C621 C616 1.425 . S
C621 C618 1.409 1_554 S
C621 C619 1.415 . S
C622 H612 0.930 . S
C622 C620 1.419 . S
C622 C623 1.362 . S
C623 H613 0.930 . S
C623 C616 1.409 . S
C623 C622 1.362 . S
H624 C630 0.930 . S
H625 C633 0.930 . S
H626 C634 0.930 . S
H627 C635 0.930 . S
H628 C638 0.930 . S
H629 C639 0.930 . S
C630 H624 0.930 . S
C630 C631 1.355 . S
C630 C632 1.415 . S
C631 C630 1.355 . S
C631 C633 1.419 . S
C632 C630 1.415 . S
C632 C637 1.425 . S
C632 C639 1.409 . S
C633 H625 0.930 . S
C633 C631 1.419 . S
C633 C634 1.362 . S
C634 H626 0.930 . S
C634 C633 1.362 . S
C634 C637 1.409 . S
C635 H627 0.930 . S
C635 C636 1.355 . S
C635 C637 1.415 . S
C636 C635 1.355 . S
C636 C638 1.419 . S
C637 C632 1.425 . S
C637 C634 1.409 . S
C637 C635 1.415 . S
C638 H628 0.930 . S
C638 C636 1.419 . S
C638 C639 1.362 . S
C639 H629 0.930 . S
C639 C632 1.409 . S
C639 C638 1.362 . S
H640 C646 0.930 . S
H641 C649 0.930 . S
H642 C650 0.930 . S
H643 C651 0.930 . S
H644 C654 0.930 . S
H645 C655 0.930 . S
C646 H640 0.930 . S
C646 C647 1.355 . S
C646 C648 1.415 . S
C647 C646 1.355 . S
C647 C649 1.419 . S
C648 C646 1.415 . S
C648 C653 1.425 . S
C648 C655 1.409 . S
C649 H641 0.930 . S
C649 C647 1.419 . S
C649 C650 1.362 . S
C650 H642 0.930 . S
C650 C649 1.362 . S
C650 C653 1.409 . S
C651 H643 0.930 . S
C651 C652 1.355 . S
C651 C653 1.415 . S
C652 C651 1.355 . S
C652 C654 1.419 . S
C653 C648 1.425 . S
C653 C650 1.409 . S
C653 C651 1.415 . S
C654 H644 0.930 . S
C654 C652 1.419 . S
C654 C655 1.362 . S
C655 H645 0.930 . S
C655 C648 1.409 . S
C655 C654 1.362 . S
H656 C662 0.930 . S
H657 C665 0.930 . S
H658 C666 0.930 . S
H659 C667 0.930 . S
H660 C670 0.930 . S
H661 C671 0.930 . S
C662 H656 0.930 . S
C662 C663 1.355 . S
C662 C664 1.415 . S
C663 C662 1.355 . S
C663 C665 1.419 . S
C664 C662 1.415 . S
C664 C669 1.425 . S
C664 C671 1.409 . S
C665 H657 0.930 . S
C665 C663 1.419 . S
C665 C666 1.362 . S
C666 H658 0.930 . S
C666 C665 1.362 . S
C666 C669 1.409 . S
C667 H659 0.930 . S
C667 C668 1.355 . S
C667 C669 1.415 . S
C668 C667 1.355 . S
C668 C670 1.419 . S
C669 C664 1.425 . S
C669 C666 1.409 . S
C669 C667 1.415 . S
C670 H660 0.930 . S
C670 C668 1.419 . S
C670 C671 1.362 . S
C671 H661 0.930 . S
C671 C664 1.409 . S
C671 C670 1.362 . S
H672 C678 0.930 . S
H673 C681 0.930 . S
H674 C682 0.930 . S
H675 C683 0.930 . S
H676 C686 0.930 . S
H677 C687 0.930 . S
C678 H672 0.930 . S
C678 C679 1.355 . S
C678 C680 1.415 . S
C679 C678 1.355 . S
C679 C681 1.419 . S
C680 C678 1.415 . S
C680 C685 1.425 . S
C680 C687 1.409 . S
C681 H673 0.930 . S
C681 C679 1.419 . S
C681 C682 1.362 . S
C682 H674 0.930 . S
C682 C681 1.362 . S
C682 C685 1.409 . S
C683 H675 0.930 . S
C683 C684 1.355 . S
C683 C685 1.415 . S
C684 C683 1.355 . S
C684 C686 1.419 . S
C685 C680 1.425 . S
C685 C682 1.409 . S
C685 C683 1.415 . S
C686 H676 0.930 . S
C686 C684 1.419 . S
C686 C687 1.362 . S
C687 H677 0.930 . S
C687 C680 1.409 . S
C687 C686 1.362 . S
H688 C694 0.930 . S
H689 C697 0.930 . S
H690 C698 0.930 . S
H691 C699 0.930 . S
H692 C702 0.930 . S
H693 C703 0.930 . S
C694 H688 0.930 . S
C694 C695 1.355 . S
C694 C696 1.415 . S
C695 C694 1.355 . S
C695 C697 1.419 . S
C696 C694 1.415 . S
C696 C701 1.425 . S
C696 C703 1.409 . S
C697 H689 0.930 . S
C697 C695 1.419 . S
C697 C698 1.362 . S
C698 H690 0.930 . S
C698 C697 1.362 . S
C698 C701 1.409 . S
C699 H691 0.930 . S
C699 C700 1.355 . S
C699 C701 1.415 . S
C700 C699 1.355 . S
C700 C702 1.419 . S
C701 C696 1.425 . S
C701 C698 1.409 . S
C701 C699 1.415 . S
C702 H692 0.930 . S
C702 C700 1.419 . S
C702 C703 1.362 . S
C703 H693 0.930 . S
C703 C696 1.409 . S
C703 C702 1.362 . S
H704 C710 0.930 . S
H705 C713 0.930 . S
H706 C714 0.930 . S
H707 C715 0.930 . S
H708 C718 0.930 . S
H709 C719 0.930 . S
C710 H704 0.930 . S
C710 C711 1.355 . S
C710 C712 1.415 . S
C711 C710 1.355 . S
C711 C713 1.419 . S
C712 C710 1.415 . S
C712 C717 1.425 . S
C712 C719 1.409 . S
C713 H705 0.930 . S
C713 C711 1.419 . S
C713 C714 1.362 . S
C714 H706 0.930 . S
C714 C713 1.362 . S
C714 C717 1.409 . S
C715 H707 0.930 . S
C715 C716 1.355 . S
C715 C717 1.415 . S
C716 C715 1.355 . S
C716 C718 1.419 . S
C717 C712 1.425 . S
C717 C714 1.409 . S
C717 C715 1.415 . S
C718 H708 0.930 . S
C718 C716 1.419 . S
C718 C719 1.362 . S
C719 H709 0.930 . S
C719 C712 1.409 . S
C719 C718 1.362 . S
H720 C726 0.930 . S
H721 C729 0.930 . S
H722 C730 0.930 . S
H723 C731 0.930 . S
H724 C734 0.930 . S
H725 C735 0.930 . S
C726 H720 0.930 . S
C726 C727 1.355 . S
C726 C728 1.415 . S
C727 C726 1.355 . S
C727 C729 1.419 . S
C728 C726 1.415 . S
C728 C733 1.425 . S
C728 C735 1.409 . S
C729 H721 0.930 . S
C729 C727 1.419 . S
C729 C730 1.362 . S
C730 H722 0.930 . S
C730 C729 1.362 . S
C730 C733 1.409 . S
C731 H723 0.930 . S
C731 C732 1.355 . S
C731 C733 1.415 1_556 S
C732 C731 1.355 . S
C732 C734 1.419 . S
C733 C728 1.425 . S
C733 C730 1.409 . S
C733 C731 1.415 1_554 S
C734 H724 0.930 . S
C734 C732 1.419 . S
C734 C735 1.362 1_556 S
C735 H725 0.930 . S
C735 C728 1.409 . S
C735 C734 1.362 1_554 S
C231 C92 1.563 . S
C236 C8 1.561 . S
C247 C106 1.516 . S
C252 C22 1.515 . S
C263 C36 1.562 . S
C268 C64 1.560 . S
C279 C50 1.550 . S
C284 C78 1.554 . S
C295 C120 1.519 . S
C300 C204 1.522 . S
C311 C218 1.563 . S
C316 C134 1.561 . S
C327 C148 1.519 . S
C332 C176 1.517 . S
C343 C162 1.516 . S
C348 C190 1.519 . S
C359 C9 1.384 . S
C364 C149 1.386 . S
C375 C23 1.426 . S
C380 C163 1.429 . S
C391 C37 1.449 . S
C396 C121 1.448 . S
C407 C51 1.456 . S
C412 C135 1.457 . S
C423 C65 1.456 . S
C428 C205 1.455 . S
C439 C219 1.453 . S
C444 C79 1.452 . S
C455 C93 1.382 . S
C460 C177 1.381 . S
C471 C191 1.440 . S
C476 C107 1.442 . S
C487 C189 0.599 . S
C492 C7 0.651 . S
C503 C21 0.580 . S
C508 C203 0.655 . S
C519 C217 0.526 . S
C524 C35 0.633 . S
C535 C175 0.601 . S
C540 C49 0.650 . S
C551 C161 0.532 . S
C556 C63 0.572 . S
C567 C77 0.655 . S
C572 C119 0.583 . S
C583 C91 0.640 . S
C588 C133 0.620 . S
C599 C105 0.656 . S
C604 C147 0.575 . S
C615 C185 1.515 . S
C620 C3 1.514 . S
C631 C17 1.480 . S
C636 C199 1.511 . S
C647 C31 1.469 . S
C652 C213 1.489 . S
C663 C171 1.505 . S
C668 C45 1.475 . S
C679 C157 1.483 . S
C684 C59 1.513 . S
C695 C115 1.484 . S
C700 C73 1.514 . S
C711 C87 1.491 . S
C716 C129 1.469 . S
C727 C143 1.477 . S
C732 C101 1.508 . S
