# Generated by pormake.
# Topology uoc, (4)-cn, num edge types: 1
# Building blocks:
#     Node 0, Type 0, BuildingBlock: GALJAG_clean_sbu_0, # of connection points: 4
#     Node 1, Type 0, BuildingBlock: GALJAG_clean_sbu_0, # of connection points: 4
#     Node 2, Type 0, BuildingBlock: GALJAG_clean_sbu_0, # of connection points: 4
#     Node 3, Type 0, BuildingBlock: GALJAG_clean_sbu_0, # of connection points: 4
#     Node 4, Type 0, BuildingBlock: GALJAG_clean_sbu_0, # of connection points: 4
#     Node 5, Type 0, BuildingBlock: GALJAG_clean_sbu_0, # of connection points: 4
#     Node 6, Type 0, BuildingBlock: GALJAG_clean_sbu_0, # of connection points: 4
#     Node 7, Type 0, BuildingBlock: GALJAG_clean_sbu_0, # of connection points: 4
#     Edge 8, Type (0, 0), BuildingBlock: MIFKUJ_clean_linker_0, # of connection points: 2
#     Edge 9, Type (0, 0), BuildingBlock: MIFKUJ_clean_linker_0, # of connection points: 2
#     Edge 10, Type (0, 0), BuildingBlock: MIFKUJ_clean_linker_0, # of connection points: 2
#     Edge 11, Type (0, 0), BuildingBlock: MIFKUJ_clean_linker_0, # of connection points: 2
#     Edge 12, Type (0, 0), BuildingBlock: MIFKUJ_clean_linker_0, # of connection points: 2
#     Edge 13, Type (0, 0), BuildingBlock: MIFKUJ_clean_linker_0, # of connection points: 2
#     Edge 14, Type (0, 0), BuildingBlock: MIFKUJ_clean_linker_0, # of connection points: 2
#     Edge 15, Type (0, 0), BuildingBlock: MIFKUJ_clean_linker_0, # of connection points: 2
#     Edge 16, Type (0, 0), BuildingBlock: MIFKUJ_clean_linker_0, # of connection points: 2
#     Edge 17, Type (0, 0), BuildingBlock: MIFKUJ_clean_linker_0, # of connection points: 2
#     Edge 18, Type (0, 0), BuildingBlock: MIFKUJ_clean_linker_0, # of connection points: 2
#     Edge 19, Type (0, 0), BuildingBlock: MIFKUJ_clean_linker_0, # of connection points: 2
#     Edge 20, Type (0, 0), BuildingBlock: MIFKUJ_clean_linker_0, # of connection points: 2
#     Edge 21, Type (0, 0), BuildingBlock: MIFKUJ_clean_linker_0, # of connection points: 2
#     Edge 22, Type (0, 0), BuildingBlock: MIFKUJ_clean_linker_0, # of connection points: 2
#     Edge 23, Type (0, 0), BuildingBlock: MIFKUJ_clean_linker_0, # of connection points: 2
# Relax obj value: 0.017
# Max RMSD: 0.050
# Mean RMSD: 0.050
data_MOF--net-uoc--node1-GALJAG_clean_sbu_0--edge1-MIFKUJ_clean_linker_0
_symmetry_space_group_name_H-M    P1
_symmetry_Int_Tables_number       1
_symmetry_cell_setting            triclinic
loop_
_symmetry_equiv_pos_as_xyz
'x, y, z'
_cell_length_a     36.057384
_cell_length_b     36.050572
_cell_length_c     71.81653
_cell_angle_alpha  89.971416
_cell_angle_beta   89.967115
_cell_angle_gamma 90.366192
loop_
_atom_site_label
_atom_site_type_symbol
_atom_site_fract_x
_atom_site_fract_y
_atom_site_fract_z
_atom_type_partial_charge
In0 In 0.11202 0.24637 0.12234 0.0
O1 O 0.0607 0.28345 0.12424 0.0
O2 O 0.11276 0.30892 0.11859 0.0
C3 C 0.08085 0.17832 0.12276 0.0
C4 C 0.1437 0.25086 0.1562 0.0
C5 C 0.14613 0.24131 0.08911 0.0
O6 O 0.06205 0.20735 0.12018 0.0
O7 O 0.11512 0.18379 0.12516 0.0
O8 O 0.16393 0.24195 0.10425 0.0
O9 O 0.11138 0.24336 0.09082 0.0
C10 C 0.07848 0.31311 0.12114 0.0
O11 O 0.16165 0.25682 0.14138 0.0
O12 O 0.11 0.24255 0.15389 0.0
In13 In 0.74996 0.61076 0.37107 0.0
O14 O 0.74857 0.66049 0.35131 0.0
O15 O 0.75056 0.60636 0.33959 0.0
C16 C 0.74976 0.64454 0.40447 0.0
C17 C 0.81864 0.58194 0.37109 0.0
C18 C 0.68342 0.57608 0.37204 0.0
O19 O 0.74432 0.66201 0.38948 0.0
O20 O 0.75548 0.61029 0.40254 0.0
O21 O 0.71353 0.55839 0.37169 0.0
O22 O 0.68707 0.61086 0.37191 0.0
C23 C 0.74953 0.64086 0.33676 0.0
O24 O 0.78979 0.56185 0.37171 0.0
O25 O 0.81271 0.61639 0.37049 0.0
In26 In 0.38399 0.24641 0.6241 0.0
O27 O 0.43503 0.20878 0.62379 0.0
O28 O 0.38208 0.1839 0.62789 0.0
C29 C 0.41516 0.31441 0.62202 0.0
C30 C 0.35045 0.25106 0.65751 0.0
C31 C 0.35318 0.24328 0.59003 0.0
O32 O 0.43381 0.28585 0.62593 0.0
O33 O 0.3811 0.3085 0.61918 0.0
O34 O 0.33396 0.24704 0.60462 0.0
O35 O 0.38763 0.24067 0.59274 0.0
C36 C 0.41657 0.17932 0.62639 0.0
O37 O 0.33306 0.24171 0.64297 0.0
O38 O 0.3844 0.25814 0.6551 0.0
In39 In 0.74714 0.8884 0.8715 0.0
O40 O 0.73563 0.83974 0.85197 0.0
O41 O 0.75442 0.8907 0.84016 0.0
C42 C 0.7504 0.85172 0.9042 0.0
C43 C 0.68003 0.92086 0.8704 0.0
C44 C 0.81398 0.92246 0.87231 0.0
O45 O 0.76141 0.83765 0.88911 0.0
O46 O 0.73754 0.884 0.90275 0.0
O47 O 0.78447 0.93934 0.87646 0.0
O48 O 0.80953 0.8889 0.8679 0.0
C49 C 0.74435 0.85757 0.83745 0.0
O50 O 0.70981 0.93961 0.87029 0.0
O51 O 0.68436 0.88621 0.87114 0.0
In52 In 0.60819 0.7476 0.62083 0.0
O53 O 0.55727 0.78481 0.6242 0.0
O54 O 0.60986 0.81035 0.61966 0.0
C55 C 0.57344 0.68109 0.62062 0.0
C56 C 0.64323 0.75192 0.65384 0.0
C57 C 0.64173 0.74426 0.58733 0.0
O58 O 0.55655 0.71083 0.61695 0.0
O59 O 0.60737 0.68514 0.62434 0.0
O60 O 0.65711 0.73294 0.60202 0.0
O61 O 0.60965 0.75718 0.58955 0.0
C62 C 0.57559 0.81462 0.62233 0.0
O63 O 0.65921 0.75962 0.63866 0.0
O64 O 0.60983 0.74178 0.65231 0.0
In65 In 0.2487 0.11414 0.87224 0.0
O66 O 0.25556 0.16775 0.85562 0.0
O67 O 0.2381 0.11932 0.84112 0.0
C68 C 0.25069 0.14118 0.90713 0.0
C69 C 0.31562 0.08093 0.86984 0.0
C70 C 0.18041 0.08338 0.87249 0.0
O71 O 0.25004 0.16198 0.89298 0.0
O72 O 0.25039 0.10687 0.90365 0.0
O73 O 0.20899 0.06517 0.86812 0.0
O74 O 0.18639 0.11691 0.87663 0.0
C75 C 0.24647 0.15329 0.84028 0.0
O76 O 0.28579 0.06249 0.87086 0.0
O77 O 0.31145 0.11556 0.86994 0.0
In78 In 0.88715 0.74489 0.12063 0.0
O79 O 0.83618 0.74498 0.13964 0.0
O80 O 0.88971 0.74558 0.15211 0.0
C81 C 0.85591 0.74399 0.0866 0.0
C82 C 0.91766 0.6769 0.12107 0.0
C83 C 0.9203 0.81222 0.12048 0.0
O84 O 0.83707 0.7489 0.10122 0.0
O85 O 0.89012 0.73924 0.08925 0.0
O86 O 0.9384 0.78262 0.12255 0.0
O87 O 0.88585 0.80768 0.11847 0.0
C88 C 0.85505 0.74526 0.15446 0.0
O89 O 0.93684 0.70608 0.11899 0.0
O90 O 0.88326 0.68213 0.12288 0.0
In91 In 0.24853 0.38738 0.37382 0.0
O92 O 0.23825 0.33725 0.35496 0.0
O93 O 0.25521 0.3881 0.34243 0.0
C94 C 0.25169 0.35661 0.40792 0.0
C95 C 0.18259 0.42249 0.37391 0.0
C96 C 0.31744 0.41621 0.37299 0.0
O97 O 0.24822 0.33723 0.39337 0.0
O98 O 0.25317 0.39114 0.4052 0.0
O99 O 0.28882 0.43632 0.37345 0.0
O100 O 0.31114 0.3817 0.37289 0.0
C101 C 0.24603 0.3546 0.34017 0.0
O102 O 0.213 0.43995 0.37299 0.0
O103 O 0.18566 0.38777 0.37489 0.0
H104 H 0.22045 0.24194 0.08131 0.0
H105 H 0.24984 0.23429 0.05076 0.0
H106 H 0.14185 0.22324 0.02537 0.0
H107 H 0.11252 0.23187 0.0556 0.0
H108 H 0.25019 0.17866 0.02782 0.0
H109 H 0.13981 0.25581 0.98254 0.0
H110 H 0.10041 0.31127 0.98487 0.0
H111 H 0.17501 0.35864 0.02506 0.0
H112 H 0.21516 0.30374 0.02277 0.0
H113 H 0.23461 0.10317 0.93883 0.0
H114 H 0.22902 0.12787 0.97027 0.0
H115 H 0.26124 0.23643 0.95034 0.0
H116 H 0.26516 0.212 0.91859 0.0
H117 H 0.20591 0.24415 0.97136 0.0
H118 H 0.31937 0.182 0.9792 0.0
H119 H 0.36468 0.13124 0.97714 0.0
H120 H 0.29577 0.06315 0.01217 0.0
H121 H 0.24976 0.11328 0.01422 0.0
C122 C 0.20306 0.23821 0.06915 0.0
C123 C 0.16422 0.23762 0.07079 0.0
C124 C 0.21986 0.2338 0.05174 0.0
C125 C 0.19806 0.22876 0.03573 0.0
C126 C 0.15926 0.22803 0.03743 0.0
C127 C 0.14251 0.23272 0.05475 0.0
C128 C 0.21541 0.22227 0.0173 0.0
C129 C 0.24084 0.19319 0.01547 0.0
C130 C 0.20426 0.24213 0.00127 0.0
C131 C 0.18041 0.2755 0.00255 0.0
C132 C 0.14795 0.27814 0.99179 0.0
C133 C 0.12545 0.30947 0.99312 0.0
C134 C 0.13516 0.33842 0.00513 0.0
C135 C 0.16745 0.33615 0.0158 0.0
C136 C 0.19007 0.30491 0.0145 0.0
C137 C 0.24088 0.13222 0.94118 0.0
C138 C 0.25023 0.15572 0.9263 0.0
C139 C 0.23799 0.14628 0.95921 0.0
C140 C 0.24532 0.18394 0.96279 0.0
C141 C 0.25551 0.20728 0.94795 0.0
C142 C 0.25777 0.19333 0.92983 0.0
C143 C 0.23927 0.19924 0.98174 0.0
C144 C 0.21595 0.23004 0.98369 0.0
C145 C 0.25334 0.1817 -0.00211 0.0
C146 C 0.28101 0.15141 0.99679 0.0
C147 C 0.31375 0.15613 0.98637 0.0
C148 C 0.33958 0.12747 0.98522 0.0
C149 C 0.33309 0.09398 0.9945 0.0
C150 C 0.30078 0.08911 0.00499 0.0
C151 C 0.27484 0.11768 0.00618 0.0
H152 H 0.35312 0.07182 0.99359 0.0
H153 H 0.11768 0.36263 0.00615 0.0
H154 H 0.76418 0.60445 0.30455 0.0
H155 H 0.77231 0.63093 0.2736 0.0
H156 H 0.74538 0.73937 0.29501 0.0
H157 H 0.73862 0.71303 0.32632 0.0
H158 H 0.73201 0.66475 0.24935 0.0
H159 H 0.79586 0.80432 0.27141 0.0
H160 H 0.82896 0.83239 0.29804 0.0
H161 H 0.8725 0.72583 0.31294 0.0
H162 H 0.84002 0.69726 0.28628 0.0
H163 H 0.78179 0.75228 0.16395 0.0
H164 H 0.75442 0.74501 0.19503 0.0
H165 H 0.86324 0.72524 0.21789 0.0
H166 H 0.89064 0.73387 0.1872 0.0
H167 H 0.82618 0.7644 0.24131 0.0
H168 H 0.80139 0.65338 0.20509 0.0
H169 H 0.77571 0.61842 0.17849 0.0
H170 H 0.66628 0.65622 0.19207 0.0
H171 H 0.69144 0.69177 0.21864 0.0
C172 C 0.75976 0.6339 0.30266 0.0
C173 C 0.75119 0.65678 0.31786 0.0
C174 C 0.7642 0.649 0.28493 0.0
C175 C 0.75986 0.68722 0.28198 0.0
C176 C 0.74951 0.7099 0.297 0.0
C177 C 0.74559 0.69485 0.31486 0.0
C178 C 0.76858 0.70308 0.26341 0.0
C179 C 0.75229 0.68685 0.24761 0.0
C180 C 0.7952 0.73174 0.26107 0.0
C181 C 0.81513 0.74864 0.27702 0.0
C182 C 0.81256 0.78694 0.28036 0.0
C183 C 0.83121 0.80292 0.29545 0.0
C184 C 0.8527 0.78088 0.30722 0.0
C185 C 0.85573 0.74284 0.30387 0.0
C186 C 0.83719 0.72674 0.28878 0.0
C187 C 0.79981 0.74679 0.17568 0.0
C188 C 0.83828 0.74335 0.17317 0.0
C189 C 0.78417 0.74256 0.1934 0.0
C190 C 0.80672 0.73409 0.20877 0.0
C191 C 0.84525 0.73189 0.20629 0.0
C192 C 0.86089 0.73662 0.1887 0.0
C193 C 0.7906 0.72516 0.22727 0.0
C194 C 0.80525 0.74291 0.24305 0.0
C195 C 0.76348 0.69696 0.2296 0.0
C196 C 0.74833 0.67556 0.21368 0.0
C197 C 0.77189 0.65442 0.20232 0.0
C198 C 0.75743 0.63448 0.18726 0.0
C199 C 0.7194 0.6352 0.18355 0.0
C200 C 0.69574 0.65577 0.19493 0.0
C201 C 0.71008 0.6758 0.20999 0.0
H202 H 0.70825 0.61974 0.17189 0.0
H203 H 0.86708 0.7933 0.31891 0.0
H204 H 0.39054 0.24375 0.55715 0.0
H205 H 0.36527 0.25461 0.52617 0.0
H206 H 0.25456 0.25645 0.54903 0.0
H207 H 0.27993 0.24667 0.58028 0.0
H208 H 0.31964 0.22283 0.50271 0.0
H209 H 0.20553 0.32338 0.52687 0.0
H210 H 0.19162 0.36455 0.5534 0.0
H211 H 0.30805 0.37721 0.56446 0.0
H212 H 0.32261 0.33654 0.53787 0.0
H213 H 0.23331 0.28639 0.41933 0.0
H214 H 0.24154 0.25985 0.4505 0.0
H215 H 0.28873 0.3636 0.46941 0.0
H216 H 0.2788 0.39053 0.43873 0.0
H217 H 0.24771 0.33871 0.49516 0.0
H218 H 0.34226 0.2847 0.45608 0.0
H219 H 0.36576 0.2493 0.4292 0.0
H220 H 0.30458 0.15322 0.44726 0.0
H221 H 0.28038 0.18822 0.47414 0.0
C222 C 0.36077 0.24602 0.55557 0.0
C223 C 0.33722 0.24488 0.57115 0.0
C224 C 0.34633 0.25202 0.53782 0.0
C225 C 0.30808 0.25685 0.5353 0.0
C226 C 0.28424 0.2534 0.5507 0.0
C227 C 0.29873 0.24775 0.56853 0.0
C228 C 0.29394 0.26865 0.51686 0.0
C229 C 0.30357 0.24796 0.50105 0.0
C230 C 0.27353 0.30177 0.51466 0.0
C231 C 0.26508 0.32654 0.53055 0.0
C232 C 0.22812 0.33503 0.53495 0.0
C233 C 0.22014 0.35827 0.55 0.0
C234 C 0.24893 0.37336 0.56066 0.0
C235 C 0.28577 0.36538 0.55625 0.0
C236 C 0.2939 0.34222 0.5412 0.0
C237 C 0.24519 0.30347 0.43023 0.0
C238 C 0.25552 0.34043 0.42666 0.0
C239 C 0.25002 0.28829 0.44799 0.0
C240 C 0.26622 0.30955 0.46228 0.0
C241 C 0.27601 0.34664 0.45869 0.0
C242 C 0.27047 0.36199 0.44112 0.0
C243 C 0.27415 0.29339 0.48088 0.0
C244 C 0.26314 0.31317 0.49677 0.0
C245 C 0.29461 0.26025 0.48308 0.0
C246 C 0.30919 0.23918 0.46697 0.0
C247 C 0.33363 0.2561 0.45423 0.0
C248 C 0.3471 0.2361 0.43902 0.0
C249 C 0.33657 0.19907 0.43649 0.0
C250 C 0.31264 0.18193 0.44921 0.0
C251 C 0.29906 0.20182 0.46444 0.0
H252 H 0.34703 0.18364 0.4247 0.0
H253 H 0.24268 0.39131 0.57231 0.0
H254 H 0.77735 0.88305 0.80587 0.0
H255 H 0.76898 0.85986 0.77418 0.0
H256 H 0.69543 0.77418 0.79474 0.0
H257 H 0.70512 0.79635 0.8266 0.0
H258 H 0.73533 0.7474 0.76758 0.0
H259 H 0.66272 0.85709 0.77609 0.0
H260 H 0.65112 0.92243 0.78427 0.0
H261 H 0.72667 0.95818 0.74154 0.0
H262 H 0.73911 0.89299 0.73327 0.0
H263 H 0.61974 0.72488 0.68724 0.0
H264 H 0.64642 0.73742 0.71794 0.0
H265 H 0.73333 0.80267 0.69244 0.0
H266 H 0.7071 0.78975 0.66161 0.0
H267 H 0.69189 0.83909 0.72101 0.0
H268 H 0.75768 0.72566 0.71085 0.0
H269 H 0.7638 0.65948 0.70288 0.0
H270 H 0.69386 0.62982 0.74902 0.0
H271 H 0.68685 0.69589 0.75711 0.0
C272 C 0.75971 0.85903 0.80363 0.0
C273 C 0.74154 0.84169 0.81861 0.0
C274 C 0.75484 0.84588 0.78552 0.0
C275 C 0.73089 0.81581 0.78202 0.0
C276 C 0.71394 0.7975 0.79709 0.0
C277 C 0.71937 0.81023 0.81527 0.0
C278 C 0.72195 0.80476 0.76264 0.0
C279 C 0.72557 0.7674 0.75744 0.0
C280 C 0.70967 0.83094 0.74931 0.0
C281 C 0.70216 0.87017 0.75421 0.0
C282 C 0.67707 0.87889 0.76853 0.0
C283 C 0.67031 0.91589 0.77317 0.0
C284 C 0.68823 0.94444 0.76346 0.0
C285 C 0.71287 0.93603 0.74907 0.0
C286 C 0.71977 0.89907 0.74439 0.0
C287 C 0.64484 0.74144 0.68816 0.0
C288 C 0.66132 0.75649 0.67209 0.0
C289 C 0.66012 0.74843 0.70567 0.0
C290 C 0.69186 0.77083 0.70738 0.0
C291 C 0.70888 0.78519 0.69133 0.0
C292 C 0.69393 0.77775 0.67378 0.0
C293 C 0.70519 0.78185 0.72603 0.0
C294 C 0.70215 0.81923 0.7311 0.0
C295 C 0.71722 0.75557 0.73929 0.0
C296 C 0.72149 0.71579 0.73449 0.0
C297 C 0.74333 0.70506 0.7192 0.0
C298 C 0.74702 0.66755 0.71468 0.0
C299 C 0.72916 0.64046 0.72541 0.0
C300 C 0.70765 0.65083 0.74071 0.0
C301 C 0.70385 0.68831 0.74529 0.0
H302 H 0.73206 0.61144 0.72188 0.0
H303 H 0.68295 0.97307 0.76707 0.0
H304 H 0.2056 0.29371 0.33003 0.0
H305 H 0.19492 0.27074 0.29844 0.0
H306 H 0.26963 0.35442 0.27683 0.0
H307 H 0.27883 0.37852 0.30828 0.0
H308 H 0.21082 0.35503 0.25749 0.0
H309 H 0.29045 0.25768 0.27799 0.0
H310 H 0.3126 0.20797 0.29871 0.0
H311 H 0.21092 0.14756 0.29045 0.0
H312 H 0.18794 0.19716 0.26987 0.0
H313 H 0.20922 0.28444 0.16526 0.0
H314 H 0.23337 0.29643 0.1966 0.0
H315 H 0.13976 0.23839 0.22042 0.0
H316 H 0.11513 0.2268 0.18917 0.0
H317 H 0.21209 0.22321 0.23767 0.0
H318 H 0.13194 0.32427 0.2192 0.0
H319 H 0.11128 0.37368 0.19792 0.0
H320 H 0.21789 0.42681 0.20208 0.0
H321 H 0.23937 0.37732 0.22318 0.0
C322 C 0.22008 0.30681 0.31854 0.0
C323 C 0.24289 0.33793 0.32153 0.0
C324 C 0.21417 0.29355 0.30049 0.0
C325 C 0.23176 0.3106 0.28521 0.0
C326 C 0.25565 0.34087 0.28835 0.0
C327 C 0.26095 0.35458 0.30632 0.0
C328 C 0.22306 0.2989 0.26586 0.0
C329 C 0.2119 0.32625 0.25313 0.0
C330 C 0.22357 0.26126 0.26018 0.0
C331 C 0.23736 0.23131 0.27251 0.0
C332 C 0.2727 0.23393 0.2807 0.0
C333 C 0.28543 0.20574 0.2924 0.0
C334 C 0.26315 0.17467 0.29592 0.0
C335 C 0.22814 0.17166 0.28772 0.0
C336 C 0.21527 0.19978 0.27601 0.0
C337 C 0.19407 0.27384 0.17717 0.0
C338 C 0.16019 0.25496 0.17485 0.0
C339 C 0.20788 0.28067 0.19502 0.0
C340 C 0.18821 0.26835 0.21073 0.0
C341 C 0.15531 0.24797 0.20842 0.0
C342 C 0.14122 0.24159 0.1906 0.0
C343 C 0.20025 0.27936 0.22959 0.0
C344 C 0.21169 0.25195 0.24214 0.0
C345 C 0.20037 0.31694 0.23512 0.0
C346 C 0.18739 0.34689 0.22259 0.0
C347 C 0.15108 0.34632 0.21545 0.0
C348 C 0.1392 0.37436 0.20344 0.0
C349 C 0.16328 0.40332 0.19861 0.0
C350 C 0.19928 0.40433 0.20581 0.0
C351 C 0.21131 0.3763 0.2178 0.0
H352 H 0.15403 0.42501 0.18931 0.0
H353 H 0.27305 0.15288 0.30499 0.0
H354 H 0.69912 0.69991 0.577 0.0
H355 H 0.72392 0.69123 0.54563 0.0
H356 H 0.64918 0.77462 0.52475 0.0
H357 H 0.62312 0.78196 0.55594 0.0
H358 H 0.64556 0.71875 0.50347 0.0
H359 H 0.74711 0.78789 0.52844 0.0
H360 H 0.79634 0.80415 0.55087 0.0
H361 H 0.84878 0.6993 0.54122 0.0
H362 H 0.79958 0.68218 0.51892 0.0
H363 H 0.72265 0.71304 0.41286 0.0
H364 H 0.71143 0.73858 0.44397 0.0
H365 H 0.75981 0.64124 0.46876 0.0
H366 H 0.77078 0.61538 0.43776 0.0
H367 H 0.7789 0.71056 0.48696 0.0
H368 H 0.67219 0.64064 0.46455 0.0
H369 H 0.62334 0.62604 0.44162 0.0
H370 H 0.58129 0.73682 0.44631 0.0
H371 H 0.6303 0.75223 0.46907 0.0
C372 C 0.68833 0.71665 0.56573 0.0
C373 C 0.65914 0.74147 0.56883 0.0
C374 C 0.70269 0.71189 0.54782 0.0
C375 C 0.68877 0.7326 0.53281 0.0
C376 C 0.66035 0.75827 0.53608 0.0
C377 C 0.64551 0.76248 0.55389 0.0
C378 C 0.70163 0.72539 0.5135 0.0
C379 C 0.67476 0.71783 0.49985 0.0
C380 C 0.73973 0.7234 0.50874 0.0
C381 C 0.76947 0.73364 0.5221 0.0
C382 C 0.76899 0.76819 0.5312 0.0
C383 C 0.79692 0.77758 0.54387 0.0
C384 C 0.82562 0.75275 0.54749 0.0
C385 C 0.82651 0.7185 0.53841 0.0
C386 C 0.79864 0.70896 0.52573 0.0
C387 C 0.73144 0.69739 0.42494 0.0
C388 C 0.74721 0.66209 0.42295 0.0
C389 C 0.72505 0.712 0.44266 0.0
C390 C 0.73463 0.69163 0.45858 0.0
C391 C 0.75234 0.65736 0.4566 0.0
C392 C 0.75835 0.64256 0.43891 0.0
C393 C 0.72282 0.70409 0.47724 0.0
C394 C 0.74981 0.71229 0.49069 0.0
C395 C 0.68486 0.70708 0.48183 0.0
C396 C 0.65514 0.6977 0.46833 0.0
C397 C 0.65271 0.66196 0.46057 0.0
C398 C 0.62497 0.65353 0.44763 0.0
C399 C 0.5993 0.68052 0.44247 0.0
C400 C 0.60124 0.71597 0.45029 0.0
C401 C 0.62898 0.72456 0.46322 0.0
H402 H 0.57784 0.67394 0.43244 0.0
H403 H 0.84722 0.76007 0.55732 0.0
H404 H 0.37894 0.28117 0.68913 0.0
H405 H 0.35467 0.27518 0.72074 0.0
H406 H 0.25996 0.21452 0.69979 0.0
H407 H 0.28364 0.22144 0.66797 0.0
H408 H 0.24008 0.25777 0.72862 0.0
H409 H 0.33451 0.16872 0.71603 0.0
H410 H 0.39592 0.14676 0.70591 0.0
H411 H 0.44798 0.21066 0.74917 0.0
H412 H 0.38685 0.23348 0.75937 0.0
H413 H 0.21321 0.13489 0.80751 0.0
H414 H 0.22384 0.16349 0.77698 0.0
H415 H 0.29679 0.24429 0.80217 0.0
H416 H 0.28551 0.21648 0.83283 0.0
H417 H 0.32667 0.19546 0.77209 0.0
H418 H 0.22724 0.27878 0.78615 0.0
H419 H 0.16392 0.29539 0.79586 0.0
H420 H 0.11891 0.23497 0.74949 0.0
H421 H 0.18199 0.21749 0.73965 0.0
C422 C 0.35266 0.26704 0.69123 0.0
C423 C 0.33339 0.2513 0.67616 0.0
C424 C 0.33885 0.26361 0.70929 0.0
C425 C 0.30592 0.24373 0.71265 0.0
C426 C 0.28549 0.22986 0.69751 0.0
C427 C 0.2991 0.2337 0.67936 0.0
C428 C 0.29466 0.2347 0.73198 0.0
C429 C 0.25889 0.24395 0.7381 0.0
C430 C 0.31934 0.21685 0.74438 0.0
C431 C 0.35615 0.20315 0.73832 0.0
C432 C 0.35908 0.17834 0.72329 0.0
C433 C 0.39383 0.1657 0.71755 0.0
C434 C 0.42584 0.1774 0.72686 0.0
C435 C 0.42316 0.20169 0.74195 0.0
C436 C 0.38847 0.21448 0.74772 0.0
C437 C 0.23086 0.15925 0.80658 0.0
C438 C 0.24871 0.17341 0.82246 0.0
C439 C 0.23676 0.17561 0.78919 0.0
C440 C 0.261 0.20596 0.78743 0.0
C441 C 0.27781 0.22099 0.80335 0.0
C442 C 0.27132 0.20512 0.82081 0.0
C443 C 0.27231 0.21881 0.76875 0.0
C444 C 0.30806 0.20983 0.7627 0.0
C445 C 0.24734 0.23611 0.75638 0.0
C446 C 0.20936 0.2465 0.76228 0.0
C447 C 0.20384 0.26869 0.77813 0.0
C448 C 0.16798 0.27834 0.78363 0.0
C449 C 0.1374 0.26615 0.77333 0.0
C450 C 0.14262 0.24435 0.75747 0.0
C451 C 0.17843 0.23459 0.75192 0.0
H452 H 0.10966 0.27368 0.7776 0.0
H453 H 0.45272 0.16756 0.7224 0.0
H454 H 0.78657 0.76694 0.07663 0.0
H455 H 0.7634 0.77728 0.04501 0.0
H456 H 0.86607 0.73576 0.02248 0.0
H457 H 0.88962 0.72625 0.05397 0.0
H458 H 0.85015 0.80032 0.00775 0.0
H459 H 0.78298 0.68702 0.01865 0.0
H460 H 0.74115 0.64447 0.03562 0.0
H461 H 0.65202 0.72209 0.02997 0.0
H462 H 0.69347 0.76535 0.01318 0.0
H463 H 0.79691 0.79511 0.91288 0.0
H464 H 0.80926 0.76964 0.9439 0.0
H465 H 0.72543 0.84049 0.96732 0.0
H466 H 0.71364 0.8669 0.93642 0.0
H467 H 0.72985 0.75915 0.98101 0.0
H468 H 0.79755 0.87427 0.97394 0.0
H469 H 0.83861 0.91882 0.95783 0.0
H470 H 0.92578 0.83825 0.957 0.0
H471 H 0.88494 0.79297 0.97292 0.0
C472 C 0.80392 0.75951 0.06491 0.0
C473 C 0.83997 0.74606 0.06773 0.0
C474 C 0.79061 0.76525 0.04686 0.0
C475 C 0.81296 0.75714 0.03137 0.0
C476 C 0.84839 0.7423 0.03422 0.0
C477 C 0.8618 0.73686 0.05222 0.0
C478 C 0.80094 0.76715 0.01229 0.0
C479 C 0.82414 0.79066 0.00184 0.0
C480 C 0.76645 0.75559 0.00475 0.0
C481 C 0.74144 0.72958 0.0148 0.0
C482 C 0.75454 0.69516 0.02115 0.0
C483 C 0.73088 0.67088 0.03071 0.0
C484 C 0.69398 0.68061 0.03391 0.0
C485 C 0.68063 0.7146 0.0275 0.0
C486 C 0.70418 0.73899 0.01794 0.0
C487 C 0.78071 0.8048 0.92459 0.0
C488 C 0.75452 0.83311 0.92233 0.0
C489 C 0.78775 0.79024 0.94225 0.0
C490 C 0.76819 0.80326 0.95779 0.0
C491 C 0.74059 0.83003 0.95542 0.0
C492 C 0.73408 0.84519 0.93783 0.0
C493 C 0.77932 0.79172 0.97667 0.0
C494 C 0.75597 0.76826 0.98701 0.0
C495 C 0.81358 0.80335 0.98423 0.0
C496 C 0.83806 0.83012 0.97439 0.0
C497 C 0.8253 0.86589 0.97011 0.0
C498 C 0.84856 0.89131 0.96108 0.0
C499 C 0.88475 0.88136 0.95638 0.0
C500 C 0.89772 0.8459 0.96065 0.0
C501 C 0.87453 0.82035 0.96968 0.0
H502 H 0.90277 0.90125 0.94956 0.0
H503 H 0.6757 0.66178 0.04131 0.0
H504 H 0.00883 0.15872 0.11576 0.0
H505 H 0.98206 0.09614 0.11558 0.0
H506 H 0.08867 0.05072 0.13005 0.0
H507 H 0.11571 0.11305 0.12988 0.0
H508 H 0.05703 0.01113 0.10307 0.0
H509 H 0.01923 0.05888 0.1625 0.0
H510 H 0.99047 0.10372 0.18394 0.0
H511 H 0.88539 0.08812 0.15685 0.0
H512 H 0.91365 0.04353 0.13508 0.0
H513 H 0.99282 0.83016 0.12746 0.0
H514 H 0.02076 0.89227 0.1281 0.0
H515 H 0.91497 0.94006 0.11404 0.0
H516 H 0.88681 0.87829 0.11378 0.0
H517 H 0.94693 0.97819 0.14123 0.0
H518 H 0.98484 0.93114 0.08154 0.0
H519 H 0.01356 0.8864 0.06004 0.0
H520 H 0.11836 0.90076 0.08756 0.0
H521 H 0.09013 0.94524 0.1094 0.0
C522 C 0.02651 0.13538 0.11894 0.0
C523 C 0.06432 0.14075 0.12288 0.0
C524 C 0.01117 0.09967 0.1189 0.0
C525 C 0.0333 0.06878 0.12301 0.0
C526 C 0.0711 0.07413 0.12685 0.0
C527 C 0.08646 0.10978 0.1268 0.0
C528 C 0.01721 0.03081 0.12308 0.0
C529 C 0.03326 0.00378 0.1116 0.0
C530 C 0.98573 0.02144 0.13392 0.0
C531 C 0.96865 0.04813 0.14705 0.0
C532 C 0.99005 0.06522 0.16103 0.0
C533 C 0.97383 0.09055 0.17325 0.0
C534 C 0.93615 0.09883 0.17172 0.0
C535 C 0.91459 0.08171 0.158 0.0
C536 C 0.93068 0.05638 0.14573 0.0
C537 C 0.9756 0.85394 0.12447 0.0
C538 C 0.93767 0.84941 0.12054 0.0
C539 C 0.99159 0.88938 0.12477 0.0
C540 C 0.97002 0.9208 0.12094 0.0
C541 C 0.93214 0.91624 0.11706 0.0
C542 C 0.91612 0.88091 0.11686 0.0
C543 C 0.98666 0.95854 0.12117 0.0
C544 C 0.97073 0.98553 0.13271 0.0
C545 C 0.01824 0.96787 0.11038 0.0
C546 C 0.03528 0.94123 0.09722 0.0
C547 C 0.01394 0.92454 0.0831 0.0
C548 C 0.03015 0.89927 0.07083 0.0
C549 C 0.06774 0.89067 0.07246 0.0
C550 C 0.08923 0.90741 0.08633 0.0
C551 C 0.07315 0.93268 0.09865 0.0
H552 H 0.08023 0.87109 0.06295 0.0
H553 H 0.92364 0.11846 0.1812 0.0
H554 H 0.11474 0.38927 0.37473 0.0
H555 H 0.05411 0.41885 0.37365 0.0
H556 H 0.1069 0.52647 0.37115 0.0
H557 H 0.16799 0.49692 0.37239 0.0
H558 H 0.04862 0.52478 0.39574 0.0
H559 H 0.07053 0.49001 0.33247 0.0
H560 H 0.08703 0.44783 0.3068 0.0
H561 H 0.99429 0.37752 0.32032 0.0
H562 H 0.97753 0.419 0.34626 0.0
H563 H 0.88411 0.62012 0.37027 0.0
H564 H 0.94681 0.59472 0.37037 0.0
H565 H 0.90147 0.48373 0.37215 0.0
H566 H 0.83858 0.50897 0.37185 0.0
H567 H 0.95737 0.4898 0.347 0.0
H568 H 0.93696 0.52323 0.41095 0.0
H569 H 0.9206 0.56513 0.43677 0.0
H570 H 0.01061 0.63791 0.42193 0.0
H571 H 0.0272 0.59668 0.39585 0.0
C572 C 0.1135 0.41924 0.37396 0.0
C573 C 0.1461 0.44081 0.37357 0.0
C574 C 0.07883 0.43609 0.37327 0.0
C575 C 0.07603 0.47481 0.37207 0.0
C576 C 0.1085 0.49652 0.372 0.0
C577 C 0.14332 0.47963 0.37267 0.0
C578 C 0.03906 0.49238 0.371 0.0
C579 C 0.02886 0.51764 0.38491 0.0
C580 C 0.01308 0.4824 0.35708 0.0
C581 C 0.02296 0.45746 0.34142 0.0
C582 C 0.05381 0.4654 0.33006 0.0
C583 C 0.06319 0.44164 0.31545 0.0
C584 C 0.04178 0.40997 0.31195 0.0
C585 C 0.01088 0.40204 0.32305 0.0
C586 C 0.0014 0.42569 0.3377 0.0
C587 C 0.88749 0.5903 0.37069 0.0
C588 C 0.85646 0.5665 0.37111 0.0
C589 C 0.92332 0.57585 0.37081 0.0
C590 C 0.92878 0.53736 0.37146 0.0
C591 C 0.89784 0.51352 0.37167 0.0
C592 C 0.86196 0.52797 0.37155 0.0
C593 C 0.96678 0.52193 0.37184 0.0
C594 C 0.97718 0.49709 0.35777 0.0
C595 C 0.99293 0.53231 0.38561 0.0
C596 C 0.98307 0.55707 0.40133 0.0
C597 C 0.95308 0.54833 0.4131 0.0
C598 C 0.94379 0.57192 0.4278 0.0
C599 C 0.96448 0.60421 0.43096 0.0
C600 C 0.99457 0.61292 0.41945 0.0
C601 C 0.00394 0.58943 0.40471 0.0
H602 H 0.95726 0.62244 0.44235 0.0
H603 H 0.04908 0.39161 0.30063 0.0
H604 H 0.38211 0.37756 0.60974 0.0
H605 H 0.4083 0.44027 0.60897 0.0
H606 H 0.51096 0.39925 0.63162 0.0
H607 H 0.4849 0.33626 0.63241 0.0
H608 H 0.48585 0.46239 0.64958 0.0
H609 H 0.50726 0.42121 0.587 0.0
H610 H 0.49001 0.39477 0.55654 0.0
H611 H 0.41367 0.48393 0.54756 0.0
H612 H 0.43009 0.51064 0.57812 0.0
H613 H 0.6032 0.61581 0.63195 0.0
H614 H 0.57406 0.55452 0.63198 0.0
H615 H 0.4739 0.60122 0.60934 0.0
H616 H 0.50302 0.66301 0.60927 0.0
H617 H 0.49542 0.53625 0.59141 0.0
H618 H 0.47481 0.5783 0.65356 0.0
H619 H 0.49171 0.6048 0.68406 0.0
H620 H 0.56582 0.51416 0.69394 0.0
H621 H 0.54979 0.48737 0.66335 0.0
C622 C 0.41032 0.38186 0.6145 0.0
C623 C 0.43151 0.35203 0.62113 0.0
C624 C 0.42526 0.41767 0.61399 0.0
C625 C 0.46162 0.42434 0.62014 0.0
C626 C 0.48283 0.39464 0.62681 0.0
C627 C 0.46799 0.3587 0.62719 0.0
C628 C 0.47721 0.46247 0.61992 0.0
C629 C 0.48842 0.47838 0.63683 0.0
C630 C 0.47947 0.48364 0.60334 0.0
C631 C 0.46961 0.46771 0.58494 0.0
C632 C 0.48655 0.43501 0.57861 0.0
C633 C 0.47697 0.42001 0.56131 0.0
C634 C 0.45068 0.4376 0.55014 0.0
C635 C 0.43399 0.4703 0.55624 0.0
C636 C 0.44344 0.4854 0.57354 0.0
C637 C 0.57494 0.61311 0.62699 0.0
C638 C 0.55532 0.64422 0.62065 0.0
C639 C 0.55831 0.57807 0.62708 0.0
C640 C 0.52174 0.5734 0.62082 0.0
C641 C 0.50214 0.60431 0.61426 0.0
C642 C 0.51873 0.63954 0.61429 0.0
C643 C 0.50433 0.53606 0.62106 0.0
C644 C 0.49274 0.5203 0.60416 0.0
C645 C 0.50164 0.51502 0.63765 0.0
C646 C 0.51136 0.53101 0.65608 0.0
C647 C 0.49497 0.56418 0.66216 0.0
C648 C 0.50434 0.57922 0.67948 0.0
C649 C 0.5299 0.56123 0.69091 0.0
C650 C 0.54607 0.52809 0.68506 0.0
C651 C 0.53682 0.51294 0.66774 0.0
H652 H 0.53711 0.57291 0.70431 0.0
H653 H 0.44331 0.42595 0.53675 0.0
H654 H 0.66249 0.99469 0.8696 0.0
H655 H 0.60036 0.0219 0.86886 0.0
H656 H 0.55162 0.91229 0.86919 0.0
H657 H 0.61342 0.885 0.86972 0.0
H658 H 0.51776 0.9562 0.84423 0.0
H659 H 0.55375 0.9641 0.90848 0.0
H660 H 0.59419 0.98125 0.93483 0.0
H661 H 0.58421 0.09639 0.92046 0.0
H662 H 0.54411 0.07986 0.89385 0.0
H663 H 0.33286 0.00697 0.86922 0.0
H664 H 0.39494 0.97954 0.86855 0.0
H665 H 0.44395 0.08901 0.86782 0.0
H666 H 0.38228 0.11649 0.86864 0.0
H667 H 0.47762 0.04505 0.89285 0.0
H668 H 0.44111 0.03701 0.82868 0.0
H669 H 0.40055 0.01965 0.80242 0.0
H670 H 0.41121 0.90457 0.81677 0.0
H671 H 0.45145 0.9213 0.84329 0.0
C672 C 0.63851 0.97644 0.8695 0.0
C673 C 0.6428 0.93774 0.8698 0.0
C674 C 0.60306 0.992 0.86913 0.0
C675 C 0.57135 0.9691 0.86914 0.0
C676 C 0.57567 0.93047 0.86918 0.0
C677 C 0.61102 0.91494 0.86955 0.0
C678 C 0.53361 0.98527 0.86923 0.0
C679 C 0.50882 0.97529 0.85499 0.0
C680 C 0.52219 0.01069 0.88306 0.0
C681 C 0.54625 0.02071 0.89906 0.0
C682 C 0.56043 0.99305 0.91085 0.0
C683 C 0.58324 0.00266 0.92584 0.0
C684 C 0.59185 0.03988 0.92928 0.0
C685 C 0.57758 0.06757 0.91776 0.0
C686 C 0.55478 0.0581 0.90273 0.0
C687 C 0.3569 0.02512 0.86885 0.0
C688 C 0.35273 0.06385 0.86897 0.0
C689 C 0.39231 0.00945 0.86841 0.0
C690 C 0.42406 0.03227 0.86802 0.0
C691 C 0.41986 0.07091 0.86814 0.0
C692 C 0.38457 0.08654 0.86855 0.0
C693 C 0.46178 0.01606 0.86784 0.0
C694 C 0.48656 0.02599 0.88208 0.0
C695 C 0.47315 0.99057 0.85402 0.0
C696 C 0.44897 0.98044 0.83809 0.0
C697 C 0.43454 0.00803 0.82633 0.0
C698 C 0.41166 0.9983 0.81138 0.0
C699 C 0.40322 0.96104 0.80796 0.0
C700 C 0.41772 0.93343 0.81945 0.0
C701 C 0.44059 0.94301 0.83444 0.0
H702 H 0.38551 0.95356 0.79637 0.0
H703 H 0.60951 0.04726 0.9409 0.0
H704 H 0.98966 0.65786 0.11434 0.0
H705 H 0.01616 0.59547 0.11425 0.0
H706 H 0.90908 0.5491 0.12815 0.0
H707 H 0.88244 0.61134 0.12831 0.0
H708 H 0.96543 0.51908 0.14911 0.0
H709 H 0.93953 0.54336 0.08463 0.0
H710 H 0.94223 0.57908 0.05537 0.0
H711 H 0.06093 0.57027 0.05478 0.0
H712 H 0.05898 0.53494 0.08421 0.0
H713 H 0.00616 0.33042 0.12853 0.0
H714 H 0.97808 0.39218 0.12846 0.0
H715 H 0.08333 0.44068 0.11292 0.0
H716 H 0.11144 0.3792 0.11285 0.0
H717 H 0.02698 0.46932 0.09266 0.0
H718 H 0.05393 0.44669 0.15699 0.0
H719 H 0.05261 0.41176 0.18651 0.0
H720 H 0.93376 0.4182 0.1877 0.0
H721 H 0.93435 0.45279 0.15804 0.0
C722 C 0.9718 0.63437 0.1174 0.0
C723 C 0.93397 0.63943 0.12126 0.0
C724 C 0.98693 0.59876 0.11729 0.0
C725 C 0.96448 0.56767 0.12104 0.0
C726 C 0.92685 0.57273 0.1252 0.0
C727 C 0.91167 0.60828 0.12522 0.0
C728 C 0.9802 0.52981 0.12054 0.0
C729 C 0.97843 0.50797 0.1367 0.0
C730 C 0.99789 0.51572 0.10446 0.0
C731 C 0.99913 0.53682 0.08672 0.0
C732 C 0.96623 0.5493 0.07834 0.0
C733 C 0.96762 0.56943 0.06171 0.0
C734 C 0.00173 0.57702 0.05325 0.0
C735 C 0.03453 0.56441 0.06137 0.0
C736 C 0.03329 0.54431 0.07802 0.0
C737 C 0.02324 0.35426 0.12506 0.0
C738 C 0.06099 0.35003 0.12075 0.0
C739 C 0.00723 0.3895 0.12509 0.0
C740 C 0.02873 0.42102 0.12083 0.0
C741 C 0.06626 0.41673 0.11624 0.0
C742 C 0.08228 0.38159 0.11627 0.0
C743 C 0.01225 0.45858 0.12124 0.0
C744 C 0.01389 0.48037 0.10506 0.0
C745 C 0.99462 0.47269 0.13733 0.0
C746 C 0.99416 0.45198 0.15519 0.0
C747 C 0.02749 0.44038 0.16346 0.0
C748 C 0.02688 0.4207 0.18024 0.0
C749 C 0.99312 0.41266 0.18894 0.0
C750 C 0.95989 0.42439 0.18092 0.0
C751 C 0.96034 0.44407 0.16414 0.0
H752 H 0.9927 0.39742 0.20193 0.0
H753 H 0.00275 0.59261 0.04037 0.0
H754 H 0.38248 0.37818 0.37153 0.0
H755 H 0.44544 0.40374 0.37113 0.0
H756 H 0.40129 0.5146 0.37354 0.0
H757 H 0.33816 0.4892 0.37366 0.0
H758 H 0.456 0.50943 0.34809 0.0
H759 H 0.43806 0.47379 0.41204 0.0
H760 H 0.42241 0.43081 0.43762 0.0
H761 H 0.51124 0.3591 0.42119 0.0
H762 H 0.52709 0.40143 0.39533 0.0
H763 H 0.61614 0.60952 0.37375 0.0
H764 H 0.55502 0.58009 0.37362 0.0
H765 H 0.60601 0.47231 0.3707 0.0
H766 H 0.66758 0.5017 0.37108 0.0
H767 H 0.54905 0.47344 0.39557 0.0
H768 H 0.56828 0.50995 0.33223 0.0
H769 H 0.58397 0.55287 0.30663 0.0
H770 H 0.49277 0.62267 0.3218 0.0
H771 H 0.47684 0.58043 0.34768 0.0
C772 C 0.38618 0.40801 0.37197 0.0
C773 C 0.35542 0.43172 0.37268 0.0
C774 C 0.42217 0.42255 0.37182 0.0
C775 C 0.42805 0.46105 0.37252 0.0
C776 C 0.39735 0.4848 0.37302 0.0
C777 C 0.36133 0.47027 0.37314 0.0
C778 C 0.4662 0.47661 0.3726 0.0
C779 C 0.47621 0.50192 0.35861 0.0
C780 C 0.49286 0.46596 0.38602 0.0
C781 C 0.48352 0.4406 0.40163 0.0
C782 C 0.45407 0.44872 0.41379 0.0
C783 C 0.4452 0.42449 0.42836 0.0
C784 C 0.46575 0.39219 0.431 0.0
C785 C 0.4953 0.38411 0.41911 0.0
C786 C 0.50427 0.40822 0.4045 0.0
C787 C 0.6144 0.57954 0.37309 0.0
C788 C 0.64663 0.55789 0.37232 0.0
C789 C 0.57944 0.56278 0.37295 0.0
C790 C 0.57598 0.52405 0.37187 0.0
C791 C 0.60811 0.50226 0.37146 0.0
C792 C 0.6432 0.51906 0.37164 0.0
C793 C 0.5387 0.50654 0.37117 0.0
C794 C 0.52888 0.48084 0.38502 0.0
C795 C 0.51219 0.51679 0.35761 0.0
C796 C 0.52157 0.54217 0.34199 0.0
C797 C 0.55173 0.5346 0.3302 0.0
C798 C 0.56064 0.55878 0.31562 0.0
C799 C 0.53943 0.59052 0.31262 0.0
C800 C 0.5092 0.59809 0.32416 0.0
C801 C 0.50019 0.57402 0.33877 0.0
H802 H 0.54637 0.60922 0.30132 0.0
H803 H 0.45884 0.37347 0.44228 0.0
H804 H 0.48964 0.16135 0.62177 0.0
H805 H 0.51675 0.09919 0.62184 0.0
H806 H 0.4088 0.05138 0.63246 0.0
H807 H 0.38166 0.1133 0.63263 0.0
H808 H 0.46124 0.01904 0.65365 0.0
H809 H 0.44522 0.0501 0.58911 0.0
H810 H 0.45233 0.08854 0.56091 0.0
H811 H 0.57076 0.07902 0.5645 0.0
H812 H 0.56436 0.04092 0.59289 0.0
H813 H 0.50283 0.8321 0.62875 0.0
H814 H 0.47564 0.89422 0.63013 0.0
H815 H 0.58315 0.94294 0.61939 0.0
H816 H 0.61032 0.88118 0.6178 0.0
H817 H 0.5306 0.97471 0.59836 0.0
H818 H 0.5466 0.94337 0.66287 0.0
H819 H 0.5394 0.90491 0.69106 0.0
H820 H 0.421 0.91477 0.6875 0.0
H821 H 0.42748 0.95289 0.65912 0.0
C822 C 0.47176 0.13758 0.6242 0.0
C823 C 0.43352 0.14215 0.6271 0.0
C824 C 0.48723 0.1021 0.62417 0.0
C825 C 0.46469 0.07063 0.62694 0.0
C826 C 0.42668 0.07525 0.63027 0.0
C827 C 0.41121 0.11066 0.6303 0.0
C828 C 0.48054 0.0328 0.62609 0.0
C829 C 0.47603 0.00917 0.64148 0.0
C830 C 0.5004 0.02018 0.61034 0.0
C831 C 0.50431 0.04298 0.59323 0.0
C832 C 0.47278 0.05645 0.58397 0.0
C833 C 0.47669 0.07814 0.56794 0.0
C834 C 0.51198 0.0863 0.56095 0.0
C835 C 0.54344 0.07272 0.56995 0.0
C836 C 0.53969 0.05106 0.58601 0.0
C837 C 0.52061 0.85609 0.62669 0.0
C838 C 0.55869 0.85181 0.62319 0.0
C839 C 0.5051 0.89153 0.62756 0.0
C840 C 0.52746 0.92322 0.62502 0.0
C841 C 0.5654 0.9189 0.62138 0.0
C842 C 0.58089 0.88357 0.62053 0.0
C843 C 0.51142 0.96096 0.62595 0.0
C844 C 0.51584 0.98457 0.61055 0.0
C845 C 0.49148 0.97352 0.64168 0.0
C846 C 0.48751 0.95065 0.65876 0.0
C847 C 0.51901 0.93708 0.66801 0.0
C848 C 0.51507 0.91539 0.68404 0.0
C849 C 0.47976 0.90731 0.69104 0.0
C850 C 0.44833 0.921 0.68204 0.0
C851 C 0.45212 0.94267 0.66599 0.0
H852 H 0.47677 0.89053 0.70345 0.0
H853 H 0.51494 0.10309 0.54853 0.0
H854 H 0.87776 0.89478 0.85795 0.0
H855 H 0.9394 0.92298 0.85825 0.0
H856 H 0.89619 0.01774 0.88765 0.0
H857 H 0.83387 0.99002 0.88681 0.0
H858 H 0.94254 0.03931 0.86103 0.0
H859 H 0.94628 0.94709 0.90967 0.0
H860 H 0.93943 0.88413 0.92276 0.0
H861 H 0.02116 0.8434 0.8846 0.0
H862 H 0.02803 0.90588 0.87098 0.0
H863 H 0.1174 0.11391 0.88652 0.0
H864 H 0.05505 0.08707 0.88695 0.0
H865 H 0.09568 0.98946 0.85899 0.0
H866 H 0.15847 0.01576 0.8591 0.0
H867 H 0.0503 0.96983 0.88559 0.0
H868 H 0.04547 0.05848 0.83591 0.0
H869 H 0.0526 0.11991 0.82117 0.0
H870 H 0.97379 0.16574 0.8595 0.0
H871 H 0.96655 0.10466 0.87464 0.0
C872 C 0.88135 0.92163 0.8645 0.0
C873 C 0.85105 0.94013 0.87247 0.0
C874 C 0.91667 0.93764 0.86474 0.0
C875 C 0.92264 0.97214 0.87332 0.0
C876 C 0.89228 0.99099 0.88105 0.0
C877 C 0.85674 0.97514 0.88059 0.0
C878 C 0.96049 0.98863 0.874 0.0
C879 C 0.966 0.02435 0.86668 0.0
C880 C 0.99135 0.96868 0.88086 0.0
C881 C 0.98747 0.93116 0.88921 0.0
C882 C 0.96263 0.92468 0.90399 0.0
C883 C 0.95875 0.88908 0.91151 0.0
C884 C 0.97981 0.85982 0.90453 0.0
C885 C 0.00485 0.86609 0.89 0.0
C886 C 0.00875 0.90158 0.88237 0.0
C887 C 0.11304 0.08673 0.88045 0.0
C888 C 0.14276 0.06697 0.8727 0.0
C889 C 0.07733 0.07149 0.88062 0.0
C890 C 0.07048 0.03648 0.87272 0.0
C891 C 0.10025 0.01655 0.86513 0.0
C892 C 0.13609 0.03162 0.86516 0.0
C893 C 0.03239 0.02046 0.87257 0.0
C894 C 0.02682 0.98485 0.88001 0.0
C895 C 0.00155 0.04034 0.86565 0.0
C896 C 0.00575 0.07707 0.85652 0.0
C897 C 0.02986 0.08172 0.84128 0.0
C898 C 0.03389 0.11646 0.83284 0.0
C899 C 0.01374 0.14673 0.83943 0.0
C900 C 0.98942 0.14228 0.85443 0.0
C901 C 0.98532 0.1076 0.86294 0.0
H902 H 0.01689 0.17361 0.83287 0.0
H903 H 0.97674 0.83231 0.91039 0.0
loop_
_geom_bond_atom_site_label_1
_geom_bond_atom_site_label_2
_geom_bond_distance
_geom_bond_site_symmetry_2
_ccdc_geom_bond_type
In0 O1 2.294 . S
In0 O2 2.326 . S
In0 O6 2.266 . S
In0 O7 2.326 . S
In0 O8 2.266 . S
In0 O9 2.326 . S
In0 O11 2.294 . S
In0 O12 2.326 . S
O1 In0 2.294 . S
O1 C10 1.240 . S
O2 In0 2.326 . S
O2 C10 1.252 . S
C3 O6 1.252 . S
C3 O7 1.260 . S
C4 O11 1.240 . S
C4 O12 1.252 . S
C5 O8 1.252 . S
C5 O9 1.260 . S
O6 In0 2.266 . S
O6 C3 1.252 . S
O7 In0 2.326 . S
O7 C3 1.260 . S
O8 In0 2.266 . S
O8 C5 1.252 . S
O9 In0 2.326 . S
O9 C5 1.260 . S
C10 O1 1.240 . S
C10 O2 1.252 . S
O11 In0 2.294 . S
O11 C4 1.240 . S
O12 In0 2.326 . S
O12 C4 1.252 . S
In13 O14 2.294 . S
In13 O15 2.326 . S
In13 O19 2.266 . S
In13 O20 2.326 . S
In13 O21 2.266 . S
In13 O22 2.326 . S
In13 O24 2.294 . S
In13 O25 2.326 . S
O14 In13 2.294 . S
O14 C23 1.240 . S
O15 In13 2.326 . S
O15 C23 1.252 . S
C16 O19 1.252 . S
C16 O20 1.260 . S
C17 O24 1.240 . S
C17 O25 1.252 . S
C18 O21 1.252 . S
C18 O22 1.260 . S
O19 In13 2.266 . S
O19 C16 1.252 . S
O20 In13 2.326 . S
O20 C16 1.260 . S
O21 In13 2.266 . S
O21 C18 1.252 . S
O22 In13 2.326 . S
O22 C18 1.260 . S
C23 O14 1.240 . S
C23 O15 1.252 . S
O24 In13 2.294 . S
O24 C17 1.240 . S
O25 In13 2.326 . S
O25 C17 1.252 . S
In26 O27 2.294 . S
In26 O28 2.326 . S
In26 O32 2.266 . S
In26 O33 2.326 . S
In26 O34 2.266 . S
In26 O35 2.326 . S
In26 O37 2.294 . S
In26 O38 2.326 . S
O27 In26 2.294 . S
O27 C36 1.240 . S
O28 In26 2.326 . S
O28 C36 1.252 . S
C29 O32 1.252 . S
C29 O33 1.260 . S
C30 O37 1.240 . S
C30 O38 1.252 . S
C31 O34 1.252 . S
C31 O35 1.260 . S
O32 In26 2.266 . S
O32 C29 1.252 . S
O33 In26 2.326 . S
O33 C29 1.260 . S
O34 In26 2.266 . S
O34 C31 1.252 . S
O35 In26 2.326 . S
O35 C31 1.260 . S
C36 O27 1.240 . S
C36 O28 1.252 . S
O37 In26 2.294 . S
O37 C30 1.240 . S
O38 In26 2.326 . S
O38 C30 1.252 . S
In39 O40 2.294 . S
In39 O41 2.326 . S
In39 O45 2.266 . S
In39 O46 2.326 . S
In39 O47 2.266 . S
In39 O48 2.326 . S
In39 O50 2.294 . S
In39 O51 2.326 . S
O40 In39 2.294 . S
O40 C49 1.240 . S
O41 In39 2.326 . S
O41 C49 1.252 . S
C42 O45 1.252 . S
C42 O46 1.260 . S
C43 O50 1.240 . S
C43 O51 1.252 . S
C44 O47 1.252 . S
C44 O48 1.260 . S
O45 In39 2.266 . S
O45 C42 1.252 . S
O46 In39 2.326 . S
O46 C42 1.260 . S
O47 In39 2.266 . S
O47 C44 1.252 . S
O48 In39 2.326 . S
O48 C44 1.260 . S
C49 O40 1.240 . S
C49 O41 1.252 . S
O50 In39 2.294 . S
O50 C43 1.240 . S
O51 In39 2.326 . S
O51 C43 1.252 . S
In52 O53 2.294 . S
In52 O54 2.326 . S
In52 O58 2.266 . S
In52 O59 2.326 . S
In52 O60 2.266 . S
In52 O61 2.326 . S
In52 O63 2.294 . S
In52 O64 2.326 . S
O53 In52 2.294 . S
O53 C62 1.240 . S
O54 In52 2.326 . S
O54 C62 1.252 . S
C55 O58 1.252 . S
C55 O59 1.260 . S
C56 O63 1.240 . S
C56 O64 1.252 . S
C57 O60 1.252 . S
C57 O61 1.260 . S
O58 In52 2.266 . S
O58 C55 1.252 . S
O59 In52 2.326 . S
O59 C55 1.260 . S
O60 In52 2.266 . S
O60 C57 1.252 . S
O61 In52 2.326 . S
O61 C57 1.260 . S
C62 O53 1.240 . S
C62 O54 1.252 . S
O63 In52 2.294 . S
O63 C56 1.240 . S
O64 In52 2.326 . S
O64 C56 1.252 . S
In65 O66 2.294 . S
In65 O67 2.326 . S
In65 O71 2.266 . S
In65 O72 2.326 . S
In65 O73 2.266 . S
In65 O74 2.326 . S
In65 O76 2.294 . S
In65 O77 2.326 . S
O66 In65 2.294 . S
O66 C75 1.240 . S
O67 In65 2.326 . S
O67 C75 1.252 . S
C68 O71 1.252 . S
C68 O72 1.260 . S
C69 O76 1.240 . S
C69 O77 1.252 . S
C70 O73 1.252 . S
C70 O74 1.260 . S
O71 In65 2.266 . S
O71 C68 1.252 . S
O72 In65 2.326 . S
O72 C68 1.260 . S
O73 In65 2.266 . S
O73 C70 1.252 . S
O74 In65 2.326 . S
O74 C70 1.260 . S
C75 O66 1.240 . S
C75 O67 1.252 . S
O76 In65 2.294 . S
O76 C69 1.240 . S
O77 In65 2.326 . S
O77 C69 1.252 . S
In78 O79 2.294 . S
In78 O80 2.326 . S
In78 O84 2.266 . S
In78 O85 2.326 . S
In78 O86 2.266 . S
In78 O87 2.326 . S
In78 O89 2.294 . S
In78 O90 2.326 . S
O79 In78 2.294 . S
O79 C88 1.240 . S
O80 In78 2.326 . S
O80 C88 1.252 . S
C81 O84 1.252 . S
C81 O85 1.260 . S
C82 O89 1.240 . S
C82 O90 1.252 . S
C83 O86 1.252 . S
C83 O87 1.260 . S
O84 In78 2.266 . S
O84 C81 1.252 . S
O85 In78 2.326 . S
O85 C81 1.260 . S
O86 In78 2.266 . S
O86 C83 1.252 . S
O87 In78 2.326 . S
O87 C83 1.260 . S
C88 O79 1.240 . S
C88 O80 1.252 . S
O89 In78 2.294 . S
O89 C82 1.240 . S
O90 In78 2.326 . S
O90 C82 1.252 . S
In91 O92 2.294 . S
In91 O93 2.326 . S
In91 O97 2.266 . S
In91 O98 2.326 . S
In91 O99 2.266 . S
In91 O100 2.326 . S
In91 O102 2.294 . S
In91 O103 2.326 . S
O92 In91 2.294 . S
O92 C101 1.240 . S
O93 In91 2.326 . S
O93 C101 1.252 . S
C94 O97 1.252 . S
C94 O98 1.260 . S
C95 O102 1.240 . S
C95 O103 1.252 . S
C96 O99 1.252 . S
C96 O100 1.260 . S
O97 In91 2.266 . S
O97 C94 1.252 . S
O98 In91 2.326 . S
O98 C94 1.260 . S
O99 In91 2.266 . S
O99 C96 1.252 . S
O100 In91 2.326 . S
O100 C96 1.260 . S
C101 O92 1.240 . S
C101 O93 1.252 . S
O102 In91 2.294 . S
O102 C95 1.240 . S
O103 In91 2.326 . S
O103 C95 1.252 . S
H104 C122 0.951 . S
H105 C124 0.951 . S
H106 C126 0.950 . S
H107 C127 0.950 . S
H108 C129 0.950 . S
H109 C132 0.950 . S
H110 C133 0.950 . S
H111 C135 0.946 1_556 S
H112 C136 0.978 . S
H113 C137 0.951 . S
H114 C139 0.951 . S
H115 C141 0.950 . S
H116 C142 0.950 . S
H117 C144 0.950 . S
H118 C147 0.950 . S
H119 C148 0.950 . S
H120 C150 0.946 1_554 S
H121 C151 0.978 . S
C122 H104 0.951 . S
C122 C123 1.366 . S
C122 C124 1.388 . S
C123 C122 1.366 . S
C123 C127 1.385 . S
C124 H105 0.951 . S
C124 C122 1.388 . S
C124 C125 1.366 . S
C125 C124 1.366 . S
C125 C126 1.414 . S
C125 C128 1.499 . S
C126 H106 0.950 . S
C126 C125 1.414 . S
C126 C127 1.374 . S
C127 H107 0.950 . S
C127 C123 1.385 . S
C127 C126 1.374 . S
C128 C125 1.499 . S
C128 C129 1.373 . S
C128 C130 1.389 . S
C129 H108 0.950 . S
C129 C128 1.373 . S
C129 C145 1.377 1_554 S
C130 C128 1.389 . S
C130 C131 1.524 . S
C130 C144 1.377 1_554 S
C131 C130 1.524 . S
C131 C132 1.397 . S
C131 C136 1.343 1_554 S
C132 H109 0.950 . S
C132 C131 1.397 . S
C132 C133 1.334 . S
C133 H110 0.950 . S
C133 C132 1.334 . S
C133 C134 1.287 . S
C134 C133 1.287 . S
C134 C135 1.529 . S
C134 H153 0.913 . S
C135 H111 0.946 1_554 S
C135 C134 1.529 . S
C135 C136 1.412 1_554 S
C136 H112 0.978 . S
C136 C131 1.343 1_556 S
C136 C135 1.412 1_556 S
C137 H113 0.951 . S
C137 C138 1.366 . S
C137 C139 1.388 . S
C138 C137 1.366 . S
C138 C142 1.385 . S
C139 H114 0.951 . S
C139 C137 1.388 . S
C139 C140 1.366 . S
C140 C139 1.366 . S
C140 C141 1.414 . S
C140 C143 1.499 . S
C141 H115 0.950 . S
C141 C140 1.414 . S
C141 C142 1.374 . S
C142 H116 0.950 . S
C142 C138 1.385 . S
C142 C141 1.374 . S
C143 C140 1.499 . S
C143 C144 1.373 . S
C143 C145 1.389 . S
C144 H117 0.950 . S
C144 C130 1.377 1_556 S
C144 C143 1.373 . S
C145 C129 1.377 1_556 S
C145 C143 1.389 . S
C145 C146 1.524 . S
C146 C145 1.524 . S
C146 C147 1.397 . S
C146 C151 1.343 1_556 S
C147 H118 0.950 . S
C147 C146 1.397 . S
C147 C148 1.334 . S
C148 H119 0.950 . S
C148 C147 1.334 . S
C148 C149 1.287 . S
C149 C148 1.287 . S
C149 C150 1.529 . S
C149 H152 0.999 . S
C150 H120 0.946 1_556 S
C150 C149 1.529 . S
C150 C151 1.412 1_556 S
C151 H121 0.978 . S
C151 C146 1.343 1_554 S
C151 C150 1.412 1_554 S
H152 C149 0.999 . S
H153 C134 0.913 . S
H154 C172 0.951 . S
H155 C174 0.951 . S
H156 C176 0.950 . S
H157 C177 0.950 . S
H158 C179 0.950 . S
H159 C182 0.950 . S
H160 C183 0.950 . S
H161 C185 0.950 . S
H162 C186 0.950 . S
H163 C187 0.951 . S
H164 C189 0.951 . S
H165 C191 0.950 . S
H166 C192 0.950 . S
H167 C194 0.950 . S
H168 C197 0.950 . S
H169 C198 0.950 . S
H170 C200 0.950 . S
H171 C201 0.950 . S
C172 H154 0.951 . S
C172 C173 1.366 . S
C172 C174 1.388 . S
C173 C172 1.366 . S
C173 C177 1.385 . S
C174 H155 0.951 . S
C174 C172 1.388 . S
C174 C175 1.366 . S
C175 C174 1.366 . S
C175 C176 1.414 . S
C175 C178 1.499 . S
C176 H156 0.950 . S
C176 C175 1.414 . S
C176 C177 1.374 . S
C177 H157 0.950 . S
C177 C173 1.385 . S
C177 C176 1.374 . S
C178 C175 1.499 . S
C178 C179 1.373 . S
C178 C180 1.389 . S
C179 H158 0.950 . S
C179 C178 1.373 . S
C179 C195 1.377 . S
C180 C178 1.389 . S
C180 C181 1.524 . S
C180 C194 1.377 . S
C181 C180 1.524 . S
C181 C182 1.397 . S
C181 C186 1.363 . S
C182 H159 0.950 . S
C182 C181 1.397 . S
C182 C183 1.334 . S
C183 H160 0.950 . S
C183 C182 1.334 . S
C183 C184 1.287 . S
C184 C183 1.287 . S
C184 C185 1.524 . S
C184 H203 0.913 . S
C185 H161 0.950 . S
C185 C184 1.524 . S
C185 C186 1.415 . S
C186 H162 0.950 . S
C186 C181 1.363 . S
C186 C185 1.415 . S
C187 H163 0.951 . S
C187 C188 1.366 . S
C187 C189 1.388 . S
C188 C187 1.366 . S
C188 C192 1.385 . S
C189 H164 0.951 . S
C189 C187 1.388 . S
C189 C190 1.366 . S
C190 C189 1.366 . S
C190 C191 1.414 . S
C190 C193 1.499 . S
C191 H165 0.950 . S
C191 C190 1.414 . S
C191 C192 1.374 . S
C192 H166 0.950 . S
C192 C188 1.385 . S
C192 C191 1.374 . S
C193 C190 1.499 . S
C193 C194 1.373 . S
C193 C195 1.389 . S
C194 H167 0.950 . S
C194 C180 1.377 . S
C194 C193 1.373 . S
C195 C179 1.377 . S
C195 C193 1.389 . S
C195 C196 1.524 . S
C196 C195 1.524 . S
C196 C197 1.397 . S
C196 C201 1.363 . S
C197 H168 0.950 . S
C197 C196 1.397 . S
C197 C198 1.334 . S
C198 H169 0.950 . S
C198 C197 1.334 . S
C198 C199 1.287 . S
C199 C198 1.287 . S
C199 C200 1.524 . S
C199 H202 0.999 . S
C200 H170 0.950 . S
C200 C199 1.524 . S
C200 C201 1.415 . S
C201 H171 0.950 . S
C201 C196 1.363 . S
C201 C200 1.415 . S
H202 C199 0.999 . S
H203 C184 0.913 . S
H204 C222 0.951 . S
H205 C224 0.951 . S
H206 C226 0.950 . S
H207 C227 0.950 . S
H208 C229 0.950 . S
H209 C232 0.950 . S
H210 C233 0.950 . S
H211 C235 0.950 . S
H212 C236 0.950 . S
H213 C237 0.951 . S
H214 C239 0.951 . S
H215 C241 0.950 . S
H216 C242 0.950 . S
H217 C244 0.950 . S
H218 C247 0.950 . S
H219 C248 0.950 . S
H220 C250 0.950 . S
H221 C251 0.950 . S
C222 H204 0.951 . S
C222 C223 1.366 . S
C222 C224 1.388 . S
C223 C222 1.366 . S
C223 C227 1.385 . S
C224 H205 0.951 . S
C224 C222 1.388 . S
C224 C225 1.366 . S
C225 C224 1.366 . S
C225 C226 1.414 . S
C225 C228 1.499 . S
C226 H206 0.950 . S
C226 C225 1.414 . S
C226 C227 1.374 . S
C227 H207 0.950 . S
C227 C223 1.385 . S
C227 C226 1.374 . S
C228 C225 1.499 . S
C228 C229 1.373 . S
C228 C230 1.389 . S
C229 H208 0.950 . S
C229 C228 1.373 . S
C229 C245 1.377 . S
C230 C228 1.389 . S
C230 C231 1.524 . S
C230 C244 1.377 . S
C231 C230 1.524 . S
C231 C232 1.397 . S
C231 C236 1.363 . S
C232 H209 0.950 . S
C232 C231 1.397 . S
C232 C233 1.334 . S
C233 H210 0.950 . S
C233 C232 1.334 . S
C233 C234 1.287 . S
C234 C233 1.287 . S
C234 C235 1.524 . S
C234 H253 0.913 . S
C235 H211 0.950 . S
C235 C234 1.524 . S
C235 C236 1.415 . S
C236 H212 0.950 . S
C236 C231 1.363 . S
C236 C235 1.415 . S
C237 H213 0.951 . S
C237 C238 1.366 . S
C237 C239 1.388 . S
C238 C237 1.366 . S
C238 C242 1.385 . S
C239 H214 0.951 . S
C239 C237 1.388 . S
C239 C240 1.366 . S
C240 C239 1.366 . S
C240 C241 1.414 . S
C240 C243 1.499 . S
C241 H215 0.950 . S
C241 C240 1.414 . S
C241 C242 1.374 . S
C242 H216 0.950 . S
C242 C238 1.385 . S
C242 C241 1.374 . S
C243 C240 1.499 . S
C243 C244 1.373 . S
C243 C245 1.389 . S
C244 H217 0.950 . S
C244 C230 1.377 . S
C244 C243 1.373 . S
C245 C229 1.377 . S
C245 C243 1.389 . S
C245 C246 1.524 . S
C246 C245 1.524 . S
C246 C247 1.397 . S
C246 C251 1.363 . S
C247 H218 0.950 . S
C247 C246 1.397 . S
C247 C248 1.334 . S
C248 H219 0.950 . S
C248 C247 1.334 . S
C248 C249 1.287 . S
C249 C248 1.287 . S
C249 C250 1.524 . S
C249 H252 0.999 . S
C250 H220 0.950 . S
C250 C249 1.524 . S
C250 C251 1.415 . S
C251 H221 0.950 . S
C251 C246 1.363 . S
C251 C250 1.415 . S
H252 C249 0.999 . S
H253 C234 0.913 . S
H254 C272 0.951 . S
H255 C274 0.951 . S
H256 C276 0.950 . S
H257 C277 0.950 . S
H258 C279 0.950 . S
H259 C282 0.950 . S
H260 C283 0.950 . S
H261 C285 0.950 . S
H262 C286 0.950 . S
H263 C287 0.951 . S
H264 C289 0.951 . S
H265 C291 0.950 . S
H266 C292 0.950 . S
H267 C294 0.950 . S
H268 C297 0.950 . S
H269 C298 0.950 . S
H270 C300 0.950 . S
H271 C301 0.950 . S
C272 H254 0.951 . S
C272 C273 1.366 . S
C272 C274 1.388 . S
C273 C272 1.366 . S
C273 C277 1.385 . S
C274 H255 0.951 . S
C274 C272 1.388 . S
C274 C275 1.366 . S
C275 C274 1.366 . S
C275 C276 1.414 . S
C275 C278 1.499 . S
C276 H256 0.950 . S
C276 C275 1.414 . S
C276 C277 1.374 . S
C277 H257 0.950 . S
C277 C273 1.385 . S
C277 C276 1.374 . S
C278 C275 1.499 . S
C278 C279 1.373 . S
C278 C280 1.389 . S
C279 H258 0.950 . S
C279 C278 1.373 . S
C279 C295 1.377 . S
C280 C278 1.389 . S
C280 C281 1.524 . S
C280 C294 1.377 . S
C281 C280 1.524 . S
C281 C282 1.397 . S
C281 C286 1.363 . S
C282 H259 0.950 . S
C282 C281 1.397 . S
C282 C283 1.334 . S
C283 H260 0.950 . S
C283 C282 1.334 . S
C283 C284 1.287 . S
C284 C283 1.287 . S
C284 C285 1.524 . S
C284 H303 0.913 . S
C285 H261 0.950 . S
C285 C284 1.524 . S
C285 C286 1.415 . S
C286 H262 0.950 . S
C286 C281 1.363 . S
C286 C285 1.415 . S
C287 H263 0.951 . S
C287 C288 1.366 . S
C287 C289 1.388 . S
C288 C287 1.366 . S
C288 C292 1.385 . S
C289 H264 0.951 . S
C289 C287 1.388 . S
C289 C290 1.366 . S
C290 C289 1.366 . S
C290 C291 1.414 . S
C290 C293 1.499 . S
C291 H265 0.950 . S
C291 C290 1.414 . S
C291 C292 1.374 . S
C292 H266 0.950 . S
C292 C288 1.385 . S
C292 C291 1.374 . S
C293 C290 1.499 . S
C293 C294 1.373 . S
C293 C295 1.389 . S
C294 H267 0.950 . S
C294 C280 1.377 . S
C294 C293 1.373 . S
C295 C279 1.377 . S
C295 C293 1.389 . S
C295 C296 1.524 . S
C296 C295 1.524 . S
C296 C297 1.397 . S
C296 C301 1.363 . S
C297 H268 0.950 . S
C297 C296 1.397 . S
C297 C298 1.334 . S
C298 H269 0.950 . S
C298 C297 1.334 . S
C298 C299 1.287 . S
C299 C298 1.287 . S
C299 C300 1.524 . S
C299 H302 0.999 . S
C300 H270 0.950 . S
C300 C299 1.524 . S
C300 C301 1.415 . S
C301 H271 0.950 . S
C301 C296 1.363 . S
C301 C300 1.415 . S
H302 C299 0.999 . S
H303 C284 0.913 . S
H304 C322 0.951 . S
H305 C324 0.951 . S
H306 C326 0.950 . S
H307 C327 0.950 . S
H308 C329 0.950 . S
H309 C332 0.950 . S
H310 C333 0.950 . S
H311 C335 0.950 . S
H312 C336 0.950 . S
H313 C337 0.951 . S
H314 C339 0.951 . S
H315 C341 0.950 . S
H316 C342 0.950 . S
H317 C344 0.950 . S
H318 C347 0.950 . S
H319 C348 0.950 . S
H320 C350 0.950 . S
H321 C351 0.950 . S
C322 H304 0.951 . S
C322 C323 1.366 . S
C322 C324 1.388 . S
C323 C322 1.366 . S
C323 C327 1.385 . S
C324 H305 0.951 . S
C324 C322 1.388 . S
C324 C325 1.366 . S
C325 C324 1.366 . S
C325 C326 1.414 . S
C325 C328 1.499 . S
C326 H306 0.950 . S
C326 C325 1.414 . S
C326 C327 1.374 . S
C327 H307 0.950 . S
C327 C323 1.385 . S
C327 C326 1.374 . S
C328 C325 1.499 . S
C328 C329 1.373 . S
C328 C330 1.389 . S
C329 H308 0.950 . S
C329 C328 1.373 . S
C329 C345 1.377 . S
C330 C328 1.389 . S
C330 C331 1.524 . S
C330 C344 1.377 . S
C331 C330 1.524 . S
C331 C332 1.397 . S
C331 C336 1.363 . S
C332 H309 0.950 . S
C332 C331 1.397 . S
C332 C333 1.334 . S
C333 H310 0.950 . S
C333 C332 1.334 . S
C333 C334 1.287 . S
C334 C333 1.287 . S
C334 C335 1.524 . S
C334 H353 0.913 . S
C335 H311 0.950 . S
C335 C334 1.524 . S
C335 C336 1.415 . S
C336 H312 0.950 . S
C336 C331 1.363 . S
C336 C335 1.415 . S
C337 H313 0.951 . S
C337 C338 1.366 . S
C337 C339 1.388 . S
C338 C337 1.366 . S
C338 C342 1.385 . S
C339 H314 0.951 . S
C339 C337 1.388 . S
C339 C340 1.366 . S
C340 C339 1.366 . S
C340 C341 1.414 . S
C340 C343 1.499 . S
C341 H315 0.950 . S
C341 C340 1.414 . S
C341 C342 1.374 . S
C342 H316 0.950 . S
C342 C338 1.385 . S
C342 C341 1.374 . S
C343 C340 1.499 . S
C343 C344 1.373 . S
C343 C345 1.389 . S
C344 H317 0.950 . S
C344 C330 1.377 . S
C344 C343 1.373 . S
C345 C329 1.377 . S
C345 C343 1.389 . S
C345 C346 1.524 . S
C346 C345 1.524 . S
C346 C347 1.397 . S
C346 C351 1.363 . S
C347 H318 0.950 . S
C347 C346 1.397 . S
C347 C348 1.334 . S
C348 H319 0.950 . S
C348 C347 1.334 . S
C348 C349 1.287 . S
C349 C348 1.287 . S
C349 C350 1.524 . S
C349 H352 0.999 . S
C350 H320 0.950 . S
C350 C349 1.524 . S
C350 C351 1.415 . S
C351 H321 0.950 . S
C351 C346 1.363 . S
C351 C350 1.415 . S
H352 C349 0.999 . S
H353 C334 0.913 . S
H354 C372 0.951 . S
H355 C374 0.951 . S
H356 C376 0.950 . S
H357 C377 0.950 . S
H358 C379 0.950 . S
H359 C382 0.950 . S
H360 C383 0.950 . S
H361 C385 0.950 . S
H362 C386 0.950 . S
H363 C387 0.951 . S
H364 C389 0.951 . S
H365 C391 0.950 . S
H366 C392 0.950 . S
H367 C394 0.950 . S
H368 C397 0.950 . S
H369 C398 0.950 . S
H370 C400 0.950 . S
H371 C401 0.950 . S
C372 H354 0.951 . S
C372 C373 1.366 . S
C372 C374 1.388 . S
C373 C372 1.366 . S
C373 C377 1.385 . S
C374 H355 0.951 . S
C374 C372 1.388 . S
C374 C375 1.366 . S
C375 C374 1.366 . S
C375 C376 1.414 . S
C375 C378 1.499 . S
C376 H356 0.950 . S
C376 C375 1.414 . S
C376 C377 1.374 . S
C377 H357 0.950 . S
C377 C373 1.385 . S
C377 C376 1.374 . S
C378 C375 1.499 . S
C378 C379 1.373 . S
C378 C380 1.389 . S
C379 H358 0.950 . S
C379 C378 1.373 . S
C379 C395 1.377 . S
C380 C378 1.389 . S
C380 C381 1.524 . S
C380 C394 1.377 . S
C381 C380 1.524 . S
C381 C382 1.397 . S
C381 C386 1.363 . S
C382 H359 0.950 . S
C382 C381 1.397 . S
C382 C383 1.334 . S
C383 H360 0.950 . S
C383 C382 1.334 . S
C383 C384 1.287 . S
C384 C383 1.287 . S
C384 C385 1.524 . S
C384 H403 0.913 . S
C385 H361 0.950 . S
C385 C384 1.524 . S
C385 C386 1.415 . S
C386 H362 0.950 . S
C386 C381 1.363 . S
C386 C385 1.415 . S
C387 H363 0.951 . S
C387 C388 1.366 . S
C387 C389 1.388 . S
C388 C387 1.366 . S
C388 C392 1.385 . S
C389 H364 0.951 . S
C389 C387 1.388 . S
C389 C390 1.366 . S
C390 C389 1.366 . S
C390 C391 1.414 . S
C390 C393 1.499 . S
C391 H365 0.950 . S
C391 C390 1.414 . S
C391 C392 1.374 . S
C392 H366 0.950 . S
C392 C388 1.385 . S
C392 C391 1.374 . S
C393 C390 1.499 . S
C393 C394 1.373 . S
C393 C395 1.389 . S
C394 H367 0.950 . S
C394 C380 1.377 . S
C394 C393 1.373 . S
C395 C379 1.377 . S
C395 C393 1.389 . S
C395 C396 1.524 . S
C396 C395 1.524 . S
C396 C397 1.397 . S
C396 C401 1.363 . S
C397 H368 0.950 . S
C397 C396 1.397 . S
C397 C398 1.334 . S
C398 H369 0.950 . S
C398 C397 1.334 . S
C398 C399 1.287 . S
C399 C398 1.287 . S
C399 C400 1.524 . S
C399 H402 0.999 . S
C400 H370 0.950 . S
C400 C399 1.524 . S
C400 C401 1.415 . S
C401 H371 0.950 . S
C401 C396 1.363 . S
C401 C400 1.415 . S
H402 C399 0.999 . S
H403 C384 0.913 . S
H404 C422 0.951 . S
H405 C424 0.951 . S
H406 C426 0.950 . S
H407 C427 0.950 . S
H408 C429 0.950 . S
H409 C432 0.950 . S
H410 C433 0.950 . S
H411 C435 0.950 . S
H412 C436 0.950 . S
H413 C437 0.951 . S
H414 C439 0.951 . S
H415 C441 0.950 . S
H416 C442 0.950 . S
H417 C444 0.950 . S
H418 C447 0.950 . S
H419 C448 0.950 . S
H420 C450 0.950 . S
H421 C451 0.950 . S
C422 H404 0.951 . S
C422 C423 1.366 . S
C422 C424 1.388 . S
C423 C422 1.366 . S
C423 C427 1.385 . S
C424 H405 0.951 . S
C424 C422 1.388 . S
C424 C425 1.366 . S
C425 C424 1.366 . S
C425 C426 1.414 . S
C425 C428 1.499 . S
C426 H406 0.950 . S
C426 C425 1.414 . S
C426 C427 1.374 . S
C427 H407 0.950 . S
C427 C423 1.385 . S
C427 C426 1.374 . S
C428 C425 1.499 . S
C428 C429 1.373 . S
C428 C430 1.389 . S
C429 H408 0.950 . S
C429 C428 1.373 . S
C429 C445 1.377 . S
C430 C428 1.389 . S
C430 C431 1.524 . S
C430 C444 1.377 . S
C431 C430 1.524 . S
C431 C432 1.397 . S
C431 C436 1.363 . S
C432 H409 0.950 . S
C432 C431 1.397 . S
C432 C433 1.334 . S
C433 H410 0.950 . S
C433 C432 1.334 . S
C433 C434 1.287 . S
C434 C433 1.287 . S
C434 C435 1.524 . S
C434 H453 0.913 . S
C435 H411 0.950 . S
C435 C434 1.524 . S
C435 C436 1.415 . S
C436 H412 0.950 . S
C436 C431 1.363 . S
C436 C435 1.415 . S
C437 H413 0.951 . S
C437 C438 1.366 . S
C437 C439 1.388 . S
C438 C437 1.366 . S
C438 C442 1.385 . S
C439 H414 0.951 . S
C439 C437 1.388 . S
C439 C440 1.366 . S
C440 C439 1.366 . S
C440 C441 1.414 . S
C440 C443 1.499 . S
C441 H415 0.950 . S
C441 C440 1.414 . S
C441 C442 1.374 . S
C442 H416 0.950 . S
C442 C438 1.385 . S
C442 C441 1.374 . S
C443 C440 1.499 . S
C443 C444 1.373 . S
C443 C445 1.389 . S
C444 H417 0.950 . S
C444 C430 1.377 . S
C444 C443 1.373 . S
C445 C429 1.377 . S
C445 C443 1.389 . S
C445 C446 1.524 . S
C446 C445 1.524 . S
C446 C447 1.397 . S
C446 C451 1.363 . S
C447 H418 0.950 . S
C447 C446 1.397 . S
C447 C448 1.334 . S
C448 H419 0.950 . S
C448 C447 1.334 . S
C448 C449 1.287 . S
C449 C448 1.287 . S
C449 C450 1.524 . S
C449 H452 0.999 . S
C450 H420 0.950 . S
C450 C449 1.524 . S
C450 C451 1.415 . S
C451 H421 0.950 . S
C451 C446 1.363 . S
C451 C450 1.415 . S
H452 C449 0.999 . S
H453 C434 0.913 . S
H454 C472 0.951 . S
H455 C474 0.951 . S
H456 C476 0.950 . S
H457 C477 0.950 . S
H458 C479 0.950 . S
H459 C482 0.950 . S
H460 C483 0.950 . S
H461 C485 0.950 . S
H462 C486 0.950 . S
H463 C487 0.951 . S
H464 C489 0.951 . S
H465 C491 0.950 . S
H466 C492 0.950 . S
H467 C494 0.950 . S
H468 C497 0.950 . S
H469 C498 0.950 . S
H470 C500 0.950 . S
H471 C501 0.950 . S
C472 H454 0.951 . S
C472 C473 1.366 . S
C472 C474 1.388 . S
C473 C472 1.366 . S
C473 C477 1.385 . S
C474 H455 0.951 . S
C474 C472 1.388 . S
C474 C475 1.366 . S
C475 C474 1.366 . S
C475 C476 1.414 . S
C475 C478 1.499 . S
C476 H456 0.950 . S
C476 C475 1.414 . S
C476 C477 1.374 . S
C477 H457 0.950 . S
C477 C473 1.385 . S
C477 C476 1.374 . S
C478 C475 1.499 . S
C478 C479 1.373 . S
C478 C480 1.389 . S
C479 H458 0.950 . S
C479 C478 1.373 . S
C479 C495 1.377 1_554 S
C480 C478 1.389 . S
C480 C481 1.524 . S
C480 C494 1.377 1_554 S
C481 C480 1.524 . S
C481 C482 1.397 . S
C481 C486 1.363 . S
C482 H459 0.950 . S
C482 C481 1.397 . S
C482 C483 1.334 . S
C483 H460 0.950 . S
C483 C482 1.334 . S
C483 C484 1.287 . S
C484 C483 1.287 . S
C484 C485 1.524 . S
C484 H503 0.913 . S
C485 H461 0.950 . S
C485 C484 1.524 . S
C485 C486 1.415 . S
C486 H462 0.950 . S
C486 C481 1.363 . S
C486 C485 1.415 . S
C487 H463 0.951 . S
C487 C488 1.366 . S
C487 C489 1.388 . S
C488 C487 1.366 . S
C488 C492 1.385 . S
C489 H464 0.951 . S
C489 C487 1.388 . S
C489 C490 1.366 . S
C490 C489 1.366 . S
C490 C491 1.414 . S
C490 C493 1.499 . S
C491 H465 0.950 . S
C491 C490 1.414 . S
C491 C492 1.374 . S
C492 H466 0.950 . S
C492 C488 1.385 . S
C492 C491 1.374 . S
C493 C490 1.499 . S
C493 C494 1.373 . S
C493 C495 1.389 . S
C494 H467 0.950 . S
C494 C480 1.377 1_556 S
C494 C493 1.373 . S
C495 C479 1.377 1_556 S
C495 C493 1.389 . S
C495 C496 1.524 . S
C496 C495 1.524 . S
C496 C497 1.397 . S
C496 C501 1.363 . S
C497 H468 0.950 . S
C497 C496 1.397 . S
C497 C498 1.334 . S
C498 H469 0.950 . S
C498 C497 1.334 . S
C498 C499 1.287 . S
C499 C498 1.287 . S
C499 C500 1.524 . S
C499 H502 0.999 . S
C500 H470 0.950 . S
C500 C499 1.524 . S
C500 C501 1.415 . S
C501 H471 0.950 . S
C501 C496 1.363 . S
C501 C500 1.415 . S
H502 C499 0.999 . S
H503 C484 0.913 . S
H504 C522 0.951 . S
H505 C524 0.951 1_655 S
H506 C526 0.950 . S
H507 C527 0.950 . S
H508 C529 0.950 . S
H509 C532 0.950 . S
H510 C533 0.950 . S
H511 C535 0.950 . S
H512 C536 0.950 . S
H513 C537 0.951 . S
H514 C539 0.951 1_455 S
H515 C541 0.950 . S
H516 C542 0.950 . S
H517 C544 0.950 . S
H518 C547 0.950 . S
H519 C548 0.950 . S
H520 C550 0.950 . S
H521 C551 0.950 . S
C522 H504 0.951 . S
C522 C523 1.366 . S
C522 C524 1.388 . S
C523 C522 1.366 . S
C523 C527 1.385 . S
C524 H505 0.951 1_455 S
C524 C522 1.388 . S
C524 C525 1.366 . S
C525 C524 1.366 . S
C525 C526 1.414 . S
C525 C528 1.499 . S
C526 H506 0.950 . S
C526 C525 1.414 . S
C526 C527 1.374 . S
C527 H507 0.950 . S
C527 C523 1.385 . S
C527 C526 1.374 . S
C528 C525 1.499 . S
C528 C529 1.373 . S
C528 C530 1.389 1_455 S
C529 H508 0.950 . S
C529 C528 1.373 . S
C529 C545 1.377 1_545 S
C530 C528 1.389 1_655 S
C530 C531 1.524 . S
C530 C544 1.377 1_545 S
C531 C530 1.524 . S
C531 C532 1.397 . S
C531 C536 1.363 . S
C532 H509 0.950 . S
C532 C531 1.397 . S
C532 C533 1.334 . S
C533 H510 0.950 . S
C533 C532 1.334 . S
C533 C534 1.287 . S
C534 C533 1.287 . S
C534 C535 1.524 . S
C534 H553 0.913 . S
C535 H511 0.950 . S
C535 C534 1.524 . S
C535 C536 1.415 . S
C536 H512 0.950 . S
C536 C531 1.363 . S
C536 C535 1.415 . S
C537 H513 0.951 . S
C537 C538 1.366 . S
C537 C539 1.388 . S
C538 C537 1.366 . S
C538 C542 1.385 . S
C539 H514 0.951 1_655 S
C539 C537 1.388 . S
C539 C540 1.366 . S
C540 C539 1.366 . S
C540 C541 1.414 . S
C540 C543 1.499 . S
C541 H515 0.950 . S
C541 C540 1.414 . S
C541 C542 1.374 . S
C542 H516 0.950 . S
C542 C538 1.385 . S
C542 C541 1.374 . S
C543 C540 1.499 . S
C543 C544 1.373 . S
C543 C545 1.389 1_655 S
C544 H517 0.950 . S
C544 C530 1.377 1_565 S
C544 C543 1.373 . S
C545 C529 1.377 1_565 S
C545 C543 1.389 1_455 S
C545 C546 1.524 . S
C546 C545 1.524 . S
C546 C547 1.397 . S
C546 C551 1.363 . S
C547 H518 0.950 . S
C547 C546 1.397 . S
C547 C548 1.334 . S
C548 H519 0.950 . S
C548 C547 1.334 . S
C548 C549 1.287 . S
C549 C548 1.287 . S
C549 C550 1.524 . S
C549 H552 0.999 . S
C550 H520 0.950 . S
C550 C549 1.524 . S
C550 C551 1.415 . S
C551 H521 0.950 . S
C551 C546 1.363 . S
C551 C550 1.415 . S
H552 C549 0.999 . S
H553 C534 0.913 . S
H554 C572 0.951 . S
H555 C574 0.951 . S
H556 C576 0.950 . S
H557 C577 0.950 . S
H558 C579 0.950 . S
H559 C582 0.950 . S
H560 C583 0.950 . S
H561 C585 0.950 1_655 S
H562 C586 0.950 . S
H563 C587 0.951 . S
H564 C589 0.951 . S
H565 C591 0.950 . S
H566 C592 0.950 . S
H567 C594 0.950 . S
H568 C597 0.950 . S
H569 C598 0.950 . S
H570 C600 0.950 1_455 S
H571 C601 0.950 . S
C572 H554 0.951 . S
C572 C573 1.366 . S
C572 C574 1.388 . S
C573 C572 1.366 . S
C573 C577 1.385 . S
C574 H555 0.951 . S
C574 C572 1.388 . S
C574 C575 1.366 . S
C575 C574 1.366 . S
C575 C576 1.414 . S
C575 C578 1.499 . S
C576 H556 0.950 . S
C576 C575 1.414 . S
C576 C577 1.374 . S
C577 H557 0.950 . S
C577 C573 1.385 . S
C577 C576 1.374 . S
C578 C575 1.499 . S
C578 C579 1.373 . S
C578 C580 1.389 . S
C579 H558 0.950 . S
C579 C578 1.373 . S
C579 C595 1.377 1_455 S
C580 C578 1.389 . S
C580 C581 1.524 . S
C580 C594 1.377 1_455 S
C581 C580 1.524 . S
C581 C582 1.397 . S
C581 C586 1.363 1_455 S
C582 H559 0.950 . S
C582 C581 1.397 . S
C582 C583 1.334 . S
C583 H560 0.950 . S
C583 C582 1.334 . S
C583 C584 1.287 . S
C584 C583 1.287 . S
C584 C585 1.524 . S
C584 H603 0.913 . S
C585 H561 0.950 1_455 S
C585 C584 1.524 . S
C585 C586 1.415 1_455 S
C586 H562 0.950 . S
C586 C581 1.363 1_655 S
C586 C585 1.415 1_655 S
C587 H563 0.951 . S
C587 C588 1.366 . S
C587 C589 1.388 . S
C588 C587 1.366 . S
C588 C592 1.385 . S
C589 H564 0.951 . S
C589 C587 1.388 . S
C589 C590 1.366 . S
C590 C589 1.366 . S
C590 C591 1.414 . S
C590 C593 1.499 . S
C591 H565 0.950 . S
C591 C590 1.414 . S
C591 C592 1.374 . S
C592 H566 0.950 . S
C592 C588 1.385 . S
C592 C591 1.374 . S
C593 C590 1.499 . S
C593 C594 1.373 . S
C593 C595 1.389 . S
C594 H567 0.950 . S
C594 C580 1.377 1_655 S
C594 C593 1.373 . S
C595 C579 1.377 1_655 S
C595 C593 1.389 . S
C595 C596 1.524 . S
C596 C595 1.524 . S
C596 C597 1.397 . S
C596 C601 1.363 1_655 S
C597 H568 0.950 . S
C597 C596 1.397 . S
C597 C598 1.334 . S
C598 H569 0.950 . S
C598 C597 1.334 . S
C598 C599 1.287 . S
C599 C598 1.287 . S
C599 C600 1.524 . S
C599 H602 0.999 . S
C600 H570 0.950 1_655 S
C600 C599 1.524 . S
C600 C601 1.415 1_655 S
C601 H571 0.950 . S
C601 C596 1.363 1_455 S
C601 C600 1.415 1_455 S
H602 C599 0.999 . S
H603 C584 0.913 . S
H604 C622 0.951 . S
H605 C624 0.951 . S
H606 C626 0.950 . S
H607 C627 0.950 . S
H608 C629 0.950 . S
H609 C632 0.950 . S
H610 C633 0.950 . S
H611 C635 0.950 . S
H612 C636 0.950 . S
H613 C637 0.951 . S
H614 C639 0.951 . S
H615 C641 0.950 . S
H616 C642 0.950 . S
H617 C644 0.950 . S
H618 C647 0.950 . S
H619 C648 0.950 . S
H620 C650 0.950 . S
H621 C651 0.950 . S
C622 H604 0.951 . S
C622 C623 1.366 . S
C622 C624 1.388 . S
C623 C622 1.366 . S
C623 C627 1.385 . S
C624 H605 0.951 . S
C624 C622 1.388 . S
C624 C625 1.366 . S
C625 C624 1.366 . S
C625 C626 1.414 . S
C625 C628 1.499 . S
C626 H606 0.950 . S
C626 C625 1.414 . S
C626 C627 1.374 . S
C627 H607 0.950 . S
C627 C623 1.385 . S
C627 C626 1.374 . S
C628 C625 1.499 . S
C628 C629 1.373 . S
C628 C630 1.389 . S
C629 H608 0.950 . S
C629 C628 1.373 . S
C629 C645 1.377 . S
C630 C628 1.389 . S
C630 C631 1.524 . S
C630 C644 1.377 . S
C631 C630 1.524 . S
C631 C632 1.397 . S
C631 C636 1.363 . S
C632 H609 0.950 . S
C632 C631 1.397 . S
C632 C633 1.334 . S
C633 H610 0.950 . S
C633 C632 1.334 . S
C633 C634 1.287 . S
C634 C633 1.287 . S
C634 C635 1.524 . S
C634 H653 0.913 . S
C635 H611 0.950 . S
C635 C634 1.524 . S
C635 C636 1.415 . S
C636 H612 0.950 . S
C636 C631 1.363 . S
C636 C635 1.415 . S
C637 H613 0.951 . S
C637 C638 1.366 . S
C637 C639 1.388 . S
C638 C637 1.366 . S
C638 C642 1.385 . S
C639 H614 0.951 . S
C639 C637 1.388 . S
C639 C640 1.366 . S
C640 C639 1.366 . S
C640 C641 1.414 . S
C640 C643 1.499 . S
C641 H615 0.950 . S
C641 C640 1.414 . S
C641 C642 1.374 . S
C642 H616 0.950 . S
C642 C638 1.385 . S
C642 C641 1.374 . S
C643 C640 1.499 . S
C643 C644 1.373 . S
C643 C645 1.389 . S
C644 H617 0.950 . S
C644 C630 1.377 . S
C644 C643 1.373 . S
C645 C629 1.377 . S
C645 C643 1.389 . S
C645 C646 1.524 . S
C646 C645 1.524 . S
C646 C647 1.397 . S
C646 C651 1.363 . S
C647 H618 0.950 . S
C647 C646 1.397 . S
C647 C648 1.334 . S
C648 H619 0.950 . S
C648 C647 1.334 . S
C648 C649 1.287 . S
C649 C648 1.287 . S
C649 C650 1.524 . S
C649 H652 0.999 . S
C650 H620 0.950 . S
C650 C649 1.524 . S
C650 C651 1.415 . S
C651 H621 0.950 . S
C651 C646 1.363 . S
C651 C650 1.415 . S
H652 C649 0.999 . S
H653 C634 0.913 . S
H654 C672 0.951 . S
H655 C674 0.951 1_545 S
H656 C676 0.950 . S
H657 C677 0.950 . S
H658 C679 0.950 . S
H659 C682 0.950 . S
H660 C683 0.950 . S
H661 C685 0.950 . S
H662 C686 0.950 . S
H663 C687 0.951 . S
H664 C689 0.951 1_565 S
H665 C691 0.950 . S
H666 C692 0.950 . S
H667 C694 0.950 . S
H668 C697 0.950 . S
H669 C698 0.950 . S
H670 C700 0.950 . S
H671 C701 0.950 . S
C672 H654 0.951 . S
C672 C673 1.366 . S
C672 C674 1.388 . S
C673 C672 1.366 . S
C673 C677 1.385 . S
C674 H655 0.951 1_565 S
C674 C672 1.388 . S
C674 C675 1.366 . S
C675 C674 1.366 . S
C675 C676 1.414 . S
C675 C678 1.499 . S
C676 H656 0.950 . S
C676 C675 1.414 . S
C676 C677 1.374 . S
C677 H657 0.950 . S
C677 C673 1.385 . S
C677 C676 1.374 . S
C678 C675 1.499 . S
C678 C679 1.373 . S
C678 C680 1.389 1_565 S
C679 H658 0.950 . S
C679 C678 1.373 . S
C679 C695 1.377 . S
C680 C678 1.389 1_545 S
C680 C681 1.524 . S
C680 C694 1.377 . S
C681 C680 1.524 . S
C681 C682 1.397 1_545 S
C681 C686 1.363 . S
C682 H659 0.950 . S
C682 C681 1.397 1_565 S
C682 C683 1.334 . S
C683 H660 0.950 . S
C683 C682 1.334 . S
C683 C684 1.287 1_565 S
C684 C683 1.287 1_545 S
C684 C685 1.524 . S
C684 H703 0.913 . S
C685 H661 0.950 . S
C685 C684 1.524 . S
C685 C686 1.415 . S
C686 H662 0.950 . S
C686 C681 1.363 . S
C686 C685 1.415 . S
C687 H663 0.951 . S
C687 C688 1.366 . S
C687 C689 1.388 . S
C688 C687 1.366 . S
C688 C692 1.385 . S
C689 H664 0.951 1_545 S
C689 C687 1.388 . S
C689 C690 1.366 . S
C690 C689 1.366 . S
C690 C691 1.414 . S
C690 C693 1.499 . S
C691 H665 0.950 . S
C691 C690 1.414 . S
C691 C692 1.374 . S
C692 H666 0.950 . S
C692 C688 1.385 . S
C692 C691 1.374 . S
C693 C690 1.499 . S
C693 C694 1.373 . S
C693 C695 1.389 1_545 S
C694 H667 0.950 . S
C694 C680 1.377 . S
C694 C693 1.373 . S
C695 C679 1.377 . S
C695 C693 1.389 1_565 S
C695 C696 1.524 . S
C696 C695 1.524 . S
C696 C697 1.397 1_565 S
C696 C701 1.363 . S
C697 H668 0.950 . S
C697 C696 1.397 1_545 S
C697 C698 1.334 . S
C698 H669 0.950 . S
C698 C697 1.334 . S
C698 C699 1.287 1_545 S
C699 C698 1.287 1_565 S
C699 C700 1.524 . S
C699 H702 0.999 . S
C700 H670 0.950 . S
C700 C699 1.524 . S
C700 C701 1.415 . S
C701 H671 0.950 . S
C701 C696 1.363 . S
C701 C700 1.415 . S
H702 C699 0.999 . S
H703 C684 0.913 . S
H704 C722 0.951 . S
H705 C724 0.951 1_455 S
H706 C726 0.950 . S
H707 C727 0.950 . S
H708 C729 0.950 . S
H709 C732 0.950 . S
H710 C733 0.950 . S
H711 C735 0.950 . S
H712 C736 0.950 . S
H713 C737 0.951 . S
H714 C739 0.951 1_655 S
H715 C741 0.950 . S
H716 C742 0.950 . S
H717 C744 0.950 . S
H718 C747 0.950 . S
H719 C748 0.950 . S
H720 C750 0.950 . S
H721 C751 0.950 . S
C722 H704 0.951 . S
C722 C723 1.366 . S
C722 C724 1.388 . S
C723 C722 1.366 . S
C723 C727 1.385 . S
C724 H705 0.951 1_655 S
C724 C722 1.388 . S
C724 C725 1.366 . S
C725 C724 1.366 . S
C725 C726 1.414 . S
C725 C728 1.499 . S
C726 H706 0.950 . S
C726 C725 1.414 . S
C726 C727 1.374 . S
C727 H707 0.950 . S
C727 C723 1.385 . S
C727 C726 1.374 . S
C728 C725 1.499 . S
C728 C729 1.373 . S
C728 C730 1.389 1_655 S
C729 H708 0.950 . S
C729 C728 1.373 . S
C729 C745 1.377 . S
C730 C728 1.389 1_455 S
C730 C731 1.524 . S
C730 C744 1.377 . S
C731 C730 1.524 . S
C731 C732 1.397 1_455 S
C731 C736 1.363 . S
C732 H709 0.950 . S
C732 C731 1.397 1_655 S
C732 C733 1.334 . S
C733 H710 0.950 . S
C733 C732 1.334 . S
C733 C734 1.287 1_655 S
C734 C733 1.287 1_455 S
C734 C735 1.524 . S
C734 H753 0.913 . S
C735 H711 0.950 . S
C735 C734 1.524 . S
C735 C736 1.415 . S
C736 H712 0.950 . S
C736 C731 1.363 . S
C736 C735 1.415 . S
C737 H713 0.951 . S
C737 C738 1.366 . S
C737 C739 1.388 . S
C738 C737 1.366 . S
C738 C742 1.385 . S
C739 H714 0.951 1_455 S
C739 C737 1.388 . S
C739 C740 1.366 . S
C740 C739 1.366 . S
C740 C741 1.414 . S
C740 C743 1.499 . S
C741 H715 0.950 . S
C741 C740 1.414 . S
C741 C742 1.374 . S
C742 H716 0.950 . S
C742 C738 1.385 . S
C742 C741 1.374 . S
C743 C740 1.499 . S
C743 C744 1.373 . S
C743 C745 1.389 1_455 S
C744 H717 0.950 . S
C744 C730 1.377 . S
C744 C743 1.373 . S
C745 C729 1.377 . S
C745 C743 1.389 1_655 S
C745 C746 1.524 . S
C746 C745 1.524 . S
C746 C747 1.397 1_655 S
C746 C751 1.363 . S
C747 H718 0.950 . S
C747 C746 1.397 1_455 S
C747 C748 1.334 . S
C748 H719 0.950 . S
C748 C747 1.334 . S
C748 C749 1.287 1_455 S
C749 C748 1.287 1_655 S
C749 C750 1.524 . S
C749 H752 0.999 . S
C750 H720 0.950 . S
C750 C749 1.524 . S
C750 C751 1.415 . S
C751 H721 0.950 . S
C751 C746 1.363 . S
C751 C750 1.415 . S
H752 C749 0.999 . S
H753 C734 0.913 . S
H754 C772 0.951 . S
H755 C774 0.951 . S
H756 C776 0.950 . S
H757 C777 0.950 . S
H758 C779 0.950 . S
H759 C782 0.950 . S
H760 C783 0.950 . S
H761 C785 0.950 . S
H762 C786 0.950 . S
H763 C787 0.951 . S
H764 C789 0.951 . S
H765 C791 0.950 . S
H766 C792 0.950 . S
H767 C794 0.950 . S
H768 C797 0.950 . S
H769 C798 0.950 . S
H770 C800 0.950 . S
H771 C801 0.950 . S
C772 H754 0.951 . S
C772 C773 1.366 . S
C772 C774 1.388 . S
C773 C772 1.366 . S
C773 C777 1.385 . S
C774 H755 0.951 . S
C774 C772 1.388 . S
C774 C775 1.366 . S
C775 C774 1.366 . S
C775 C776 1.414 . S
C775 C778 1.499 . S
C776 H756 0.950 . S
C776 C775 1.414 . S
C776 C777 1.374 . S
C777 H757 0.950 . S
C777 C773 1.385 . S
C777 C776 1.374 . S
C778 C775 1.499 . S
C778 C779 1.373 . S
C778 C780 1.389 . S
C779 H758 0.950 . S
C779 C778 1.373 . S
C779 C795 1.377 . S
C780 C778 1.389 . S
C780 C781 1.524 . S
C780 C794 1.377 . S
C781 C780 1.524 . S
C781 C782 1.397 . S
C781 C786 1.363 . S
C782 H759 0.950 . S
C782 C781 1.397 . S
C782 C783 1.334 . S
C783 H760 0.950 . S
C783 C782 1.334 . S
C783 C784 1.287 . S
C784 C783 1.287 . S
C784 C785 1.524 . S
C784 H803 0.913 . S
C785 H761 0.950 . S
C785 C784 1.524 . S
C785 C786 1.415 . S
C786 H762 0.950 . S
C786 C781 1.363 . S
C786 C785 1.415 . S
C787 H763 0.951 . S
C787 C788 1.366 . S
C787 C789 1.388 . S
C788 C787 1.366 . S
C788 C792 1.385 . S
C789 H764 0.951 . S
C789 C787 1.388 . S
C789 C790 1.366 . S
C790 C789 1.366 . S
C790 C791 1.414 . S
C790 C793 1.499 . S
C791 H765 0.950 . S
C791 C790 1.414 . S
C791 C792 1.374 . S
C792 H766 0.950 . S
C792 C788 1.385 . S
C792 C791 1.374 . S
C793 C790 1.499 . S
C793 C794 1.373 . S
C793 C795 1.389 . S
C794 H767 0.950 . S
C794 C780 1.377 . S
C794 C793 1.373 . S
C795 C779 1.377 . S
C795 C793 1.389 . S
C795 C796 1.524 . S
C796 C795 1.524 . S
C796 C797 1.397 . S
C796 C801 1.363 . S
C797 H768 0.950 . S
C797 C796 1.397 . S
C797 C798 1.334 . S
C798 H769 0.950 . S
C798 C797 1.334 . S
C798 C799 1.287 . S
C799 C798 1.287 . S
C799 C800 1.524 . S
C799 H802 0.999 . S
C800 H770 0.950 . S
C800 C799 1.524 . S
C800 C801 1.415 . S
C801 H771 0.950 . S
C801 C796 1.363 . S
C801 C800 1.415 . S
H802 C799 0.999 . S
H803 C784 0.913 . S
H804 C822 0.951 . S
H805 C824 0.951 . S
H806 C826 0.950 . S
H807 C827 0.950 . S
H808 C829 0.950 . S
H809 C832 0.950 . S
H810 C833 0.950 . S
H811 C835 0.950 . S
H812 C836 0.950 . S
H813 C837 0.951 . S
H814 C839 0.951 . S
H815 C841 0.950 . S
H816 C842 0.950 . S
H817 C844 0.950 . S
H818 C847 0.950 . S
H819 C848 0.950 . S
H820 C850 0.950 . S
H821 C851 0.950 . S
C822 H804 0.951 . S
C822 C823 1.366 . S
C822 C824 1.388 . S
C823 C822 1.366 . S
C823 C827 1.385 . S
C824 H805 0.951 . S
C824 C822 1.388 . S
C824 C825 1.366 . S
C825 C824 1.366 . S
C825 C826 1.414 . S
C825 C828 1.499 . S
C826 H806 0.950 . S
C826 C825 1.414 . S
C826 C827 1.374 . S
C827 H807 0.950 . S
C827 C823 1.385 . S
C827 C826 1.374 . S
C828 C825 1.499 . S
C828 C829 1.373 . S
C828 C830 1.389 . S
C829 H808 0.950 . S
C829 C828 1.373 . S
C829 C845 1.377 1_545 S
C830 C828 1.389 . S
C830 C831 1.524 . S
C830 C844 1.377 1_545 S
C831 C830 1.524 . S
C831 C832 1.397 . S
C831 C836 1.363 . S
C832 H809 0.950 . S
C832 C831 1.397 . S
C832 C833 1.334 . S
C833 H810 0.950 . S
C833 C832 1.334 . S
C833 C834 1.287 . S
C834 C833 1.287 . S
C834 C835 1.524 . S
C834 H853 0.913 . S
C835 H811 0.950 . S
C835 C834 1.524 . S
C835 C836 1.415 . S
C836 H812 0.950 . S
C836 C831 1.363 . S
C836 C835 1.415 . S
C837 H813 0.951 . S
C837 C838 1.366 . S
C837 C839 1.388 . S
C838 C837 1.366 . S
C838 C842 1.385 . S
C839 H814 0.951 . S
C839 C837 1.388 . S
C839 C840 1.366 . S
C840 C839 1.366 . S
C840 C841 1.414 . S
C840 C843 1.499 . S
C841 H815 0.950 . S
C841 C840 1.414 . S
C841 C842 1.374 . S
C842 H816 0.950 . S
C842 C838 1.385 . S
C842 C841 1.374 . S
C843 C840 1.499 . S
C843 C844 1.373 . S
C843 C845 1.389 . S
C844 H817 0.950 . S
C844 C830 1.377 1_565 S
C844 C843 1.373 . S
C845 C829 1.377 1_565 S
C845 C843 1.389 . S
C845 C846 1.524 . S
C846 C845 1.524 . S
C846 C847 1.397 . S
C846 C851 1.363 . S
C847 H818 0.950 . S
C847 C846 1.397 . S
C847 C848 1.334 . S
C848 H819 0.950 . S
C848 C847 1.334 . S
C848 C849 1.287 . S
C849 C848 1.287 . S
C849 C850 1.524 . S
C849 H852 0.999 . S
C850 H820 0.950 . S
C850 C849 1.524 . S
C850 C851 1.415 . S
C851 H821 0.950 . S
C851 C846 1.363 . S
C851 C850 1.415 . S
H852 C849 0.999 . S
H853 C834 0.913 . S
H854 C872 0.951 . S
H855 C874 0.951 . S
H856 C876 0.950 . S
H857 C877 0.950 . S
H858 C879 0.950 . S
H859 C882 0.950 . S
H860 C883 0.950 . S
H861 C885 0.950 . S
H862 C886 0.950 . S
H863 C887 0.951 . S
H864 C889 0.951 . S
H865 C891 0.950 . S
H866 C892 0.950 . S
H867 C894 0.950 . S
H868 C897 0.950 . S
H869 C898 0.950 . S
H870 C900 0.950 . S
H871 C901 0.950 . S
C872 H854 0.951 . S
C872 C873 1.366 . S
C872 C874 1.388 . S
C873 C872 1.366 . S
C873 C877 1.385 . S
C874 H855 0.951 . S
C874 C872 1.388 . S
C874 C875 1.366 . S
C875 C874 1.366 . S
C875 C876 1.414 . S
C875 C878 1.499 . S
C876 H856 0.950 . S
C876 C875 1.414 . S
C876 C877 1.374 . S
C877 H857 0.950 . S
C877 C873 1.385 . S
C877 C876 1.374 . S
C878 C875 1.499 . S
C878 C879 1.373 1_565 S
C878 C880 1.389 . S
C879 H858 0.950 . S
C879 C878 1.373 1_545 S
C879 C895 1.377 1_655 S
C880 C878 1.389 . S
C880 C881 1.524 . S
C880 C894 1.377 1_655 S
C881 C880 1.524 . S
C881 C882 1.397 . S
C881 C886 1.363 1_655 S
C882 H859 0.950 . S
C882 C881 1.397 . S
C882 C883 1.334 . S
C883 H860 0.950 . S
C883 C882 1.334 . S
C883 C884 1.285 1_655 S
C884 C883 1.285 1_455 S
C884 C885 1.525 . S
C884 H903 0.913 1_455 S
C885 H861 0.950 . S
C885 C884 1.525 . S
C885 C886 1.415 . S
C886 H862 0.950 . S
C886 C881 1.363 1_455 S
C886 C885 1.415 . S
C887 H863 0.951 . S
C887 C888 1.366 . S
C887 C889 1.388 . S
C888 C887 1.366 . S
C888 C892 1.385 . S
C889 H864 0.951 . S
C889 C887 1.388 . S
C889 C890 1.366 . S
C890 C889 1.366 . S
C890 C891 1.414 . S
C890 C893 1.499 . S
C891 H865 0.950 . S
C891 C890 1.414 . S
C891 C892 1.374 . S
C892 H866 0.950 . S
C892 C888 1.385 . S
C892 C891 1.374 . S
C893 C890 1.499 . S
C893 C894 1.373 1_545 S
C893 C895 1.389 . S
C894 H867 0.950 . S
C894 C880 1.377 1_455 S
C894 C893 1.373 1_565 S
C895 C879 1.377 1_455 S
C895 C893 1.389 . S
C895 C896 1.524 . S
C896 C895 1.524 . S
C896 C897 1.397 . S
C896 C901 1.363 1_455 S
C897 H868 0.950 . S
C897 C896 1.397 . S
C897 C898 1.334 . S
C898 H869 0.950 . S
C898 C897 1.334 . S
C898 C899 1.285 1_455 S
C899 C898 1.285 1_655 S
C899 C900 1.525 . S
C899 H902 0.999 . S
C900 H870 0.950 . S
C900 C899 1.525 . S
C900 C901 1.415 . S
C901 H871 0.950 . S
C901 C896 1.363 1_655 S
C901 C900 1.415 . S
H902 C899 0.999 . S
H903 C884 0.913 1_655 S
C123 C5 1.269 . S
C138 C68 1.270 . S
C173 C23 1.274 . S
C188 C88 1.274 . S
C223 C31 1.269 . S
C238 C94 1.269 . S
C273 C49 1.274 . S
C288 C56 1.274 . S
C323 C101 1.274 . S
C338 C4 1.274 . S
C373 C57 1.269 . S
C388 C16 1.269 . S
C423 C30 1.274 . S
C438 C75 1.274 . S
C473 C81 1.269 . S
C488 C42 1.270 . S
C523 C3 1.540 . S
C538 C83 1.540 . S
C573 C95 1.534 . S
C588 C17 1.534 . S
C623 C29 1.540 . S
C638 C55 1.540 . S
C673 C43 1.534 . S
C688 C69 1.534 . S
C723 C82 1.534 . S
C738 C10 1.534 . S
C773 C96 1.540 . S
C788 C18 1.540 . S
C823 C36 1.534 . S
C838 C62 1.534 . S
C873 C44 1.540 . S
C888 C70 1.540 . S
