# Generated by pormake.
# Topology kfi, (4)-cn, num edge types: 1
# Building blocks:
#     Node 0, Type 0, BuildingBlock: CEKHIL_clean_sbu_0, # of connection points: 4
#     Node 1, Type 0, BuildingBlock: CEKHIL_clean_sbu_0, # of connection points: 4
#     Node 2, Type 0, BuildingBlock: CEKHIL_clean_sbu_0, # of connection points: 4
#     Node 3, Type 0, BuildingBlock: CEKHIL_clean_sbu_0, # of connection points: 4
#     Node 4, Type 0, BuildingBlock: CEKHIL_clean_sbu_0, # of connection points: 4
#     Node 5, Type 0, BuildingBlock: CEKHIL_clean_sbu_0, # of connection points: 4
#     Node 6, Type 0, BuildingBlock: CEKHIL_clean_sbu_0, # of connection points: 4
#     Node 7, Type 0, BuildingBlock: CEKHIL_clean_sbu_0, # of connection points: 4
#     Node 8, Type 0, BuildingBlock: CEKHIL_clean_sbu_0, # of connection points: 4
#     Node 9, Type 0, BuildingBlock: CEKHIL_clean_sbu_0, # of connection points: 4
#     Node 10, Type 0, BuildingBlock: CEKHIL_clean_sbu_0, # of connection points: 4
#     Node 11, Type 0, BuildingBlock: CEKHIL_clean_sbu_0, # of connection points: 4
#     Node 12, Type 0, BuildingBlock: CEKHIL_clean_sbu_0, # of connection points: 4
#     Node 13, Type 0, BuildingBlock: CEKHIL_clean_sbu_0, # of connection points: 4
#     Node 14, Type 0, BuildingBlock: CEKHIL_clean_sbu_0, # of connection points: 4
#     Node 15, Type 0, BuildingBlock: CEKHIL_clean_sbu_0, # of connection points: 4
#     Node 16, Type 0, BuildingBlock: CEKHIL_clean_sbu_0, # of connection points: 4
#     Node 17, Type 0, BuildingBlock: CEKHIL_clean_sbu_0, # of connection points: 4
#     Node 18, Type 0, BuildingBlock: CEKHIL_clean_sbu_0, # of connection points: 4
#     Node 19, Type 0, BuildingBlock: CEKHIL_clean_sbu_0, # of connection points: 4
#     Node 20, Type 0, BuildingBlock: CEKHIL_clean_sbu_0, # of connection points: 4
#     Node 21, Type 0, BuildingBlock: CEKHIL_clean_sbu_0, # of connection points: 4
#     Node 22, Type 0, BuildingBlock: CEKHIL_clean_sbu_0, # of connection points: 4
#     Node 23, Type 0, BuildingBlock: CEKHIL_clean_sbu_0, # of connection points: 4
#     Node 24, Type 0, BuildingBlock: CEKHIL_clean_sbu_0, # of connection points: 4
#     Node 25, Type 0, BuildingBlock: CEKHIL_clean_sbu_0, # of connection points: 4
#     Node 26, Type 0, BuildingBlock: CEKHIL_clean_sbu_0, # of connection points: 4
#     Node 27, Type 0, BuildingBlock: CEKHIL_clean_sbu_0, # of connection points: 4
#     Node 28, Type 0, BuildingBlock: CEKHIL_clean_sbu_0, # of connection points: 4
#     Node 29, Type 0, BuildingBlock: CEKHIL_clean_sbu_0, # of connection points: 4
#     Node 30, Type 0, BuildingBlock: CEKHIL_clean_sbu_0, # of connection points: 4
#     Node 31, Type 0, BuildingBlock: CEKHIL_clean_sbu_0, # of connection points: 4
#     Node 32, Type 0, BuildingBlock: CEKHIL_clean_sbu_0, # of connection points: 4
#     Node 33, Type 0, BuildingBlock: CEKHIL_clean_sbu_0, # of connection points: 4
#     Node 34, Type 0, BuildingBlock: CEKHIL_clean_sbu_0, # of connection points: 4
#     Node 35, Type 0, BuildingBlock: CEKHIL_clean_sbu_0, # of connection points: 4
#     Node 36, Type 0, BuildingBlock: CEKHIL_clean_sbu_0, # of connection points: 4
#     Node 37, Type 0, BuildingBlock: CEKHIL_clean_sbu_0, # of connection points: 4
#     Node 38, Type 0, BuildingBlock: CEKHIL_clean_sbu_0, # of connection points: 4
#     Node 39, Type 0, BuildingBlock: CEKHIL_clean_sbu_0, # of connection points: 4
#     Node 40, Type 0, BuildingBlock: CEKHIL_clean_sbu_0, # of connection points: 4
#     Node 41, Type 0, BuildingBlock: CEKHIL_clean_sbu_0, # of connection points: 4
#     Node 42, Type 0, BuildingBlock: CEKHIL_clean_sbu_0, # of connection points: 4
#     Node 43, Type 0, BuildingBlock: CEKHIL_clean_sbu_0, # of connection points: 4
#     Node 44, Type 0, BuildingBlock: CEKHIL_clean_sbu_0, # of connection points: 4
#     Node 45, Type 0, BuildingBlock: CEKHIL_clean_sbu_0, # of connection points: 4
#     Node 46, Type 0, BuildingBlock: CEKHIL_clean_sbu_0, # of connection points: 4
#     Node 47, Type 0, BuildingBlock: CEKHIL_clean_sbu_0, # of connection points: 4
#     Node 48, Type 0, BuildingBlock: CEKHIL_clean_sbu_0, # of connection points: 4
#     Node 49, Type 0, BuildingBlock: CEKHIL_clean_sbu_0, # of connection points: 4
#     Node 50, Type 0, BuildingBlock: CEKHIL_clean_sbu_0, # of connection points: 4
#     Node 51, Type 0, BuildingBlock: CEKHIL_clean_sbu_0, # of connection points: 4
#     Node 52, Type 0, BuildingBlock: CEKHIL_clean_sbu_0, # of connection points: 4
#     Node 53, Type 0, BuildingBlock: CEKHIL_clean_sbu_0, # of connection points: 4
#     Node 54, Type 0, BuildingBlock: CEKHIL_clean_sbu_0, # of connection points: 4
#     Node 55, Type 0, BuildingBlock: CEKHIL_clean_sbu_0, # of connection points: 4
#     Node 56, Type 0, BuildingBlock: CEKHIL_clean_sbu_0, # of connection points: 4
#     Node 57, Type 0, BuildingBlock: CEKHIL_clean_sbu_0, # of connection points: 4
#     Node 58, Type 0, BuildingBlock: CEKHIL_clean_sbu_0, # of connection points: 4
#     Node 59, Type 0, BuildingBlock: CEKHIL_clean_sbu_0, # of connection points: 4
#     Node 60, Type 0, BuildingBlock: CEKHIL_clean_sbu_0, # of connection points: 4
#     Node 61, Type 0, BuildingBlock: CEKHIL_clean_sbu_0, # of connection points: 4
#     Node 62, Type 0, BuildingBlock: CEKHIL_clean_sbu_0, # of connection points: 4
#     Node 63, Type 0, BuildingBlock: CEKHIL_clean_sbu_0, # of connection points: 4
#     Node 64, Type 0, BuildingBlock: CEKHIL_clean_sbu_0, # of connection points: 4
#     Node 65, Type 0, BuildingBlock: CEKHIL_clean_sbu_0, # of connection points: 4
#     Node 66, Type 0, BuildingBlock: CEKHIL_clean_sbu_0, # of connection points: 4
#     Node 67, Type 0, BuildingBlock: CEKHIL_clean_sbu_0, # of connection points: 4
#     Node 68, Type 0, BuildingBlock: CEKHIL_clean_sbu_0, # of connection points: 4
#     Node 69, Type 0, BuildingBlock: CEKHIL_clean_sbu_0, # of connection points: 4
#     Node 70, Type 0, BuildingBlock: CEKHIL_clean_sbu_0, # of connection points: 4
#     Node 71, Type 0, BuildingBlock: CEKHIL_clean_sbu_0, # of connection points: 4
#     Node 72, Type 0, BuildingBlock: CEKHIL_clean_sbu_0, # of connection points: 4
#     Node 73, Type 0, BuildingBlock: CEKHIL_clean_sbu_0, # of connection points: 4
#     Node 74, Type 0, BuildingBlock: CEKHIL_clean_sbu_0, # of connection points: 4
#     Node 75, Type 0, BuildingBlock: CEKHIL_clean_sbu_0, # of connection points: 4
#     Node 76, Type 0, BuildingBlock: CEKHIL_clean_sbu_0, # of connection points: 4
#     Node 77, Type 0, BuildingBlock: CEKHIL_clean_sbu_0, # of connection points: 4
#     Node 78, Type 0, BuildingBlock: CEKHIL_clean_sbu_0, # of connection points: 4
#     Node 79, Type 0, BuildingBlock: CEKHIL_clean_sbu_0, # of connection points: 4
#     Node 80, Type 0, BuildingBlock: CEKHIL_clean_sbu_0, # of connection points: 4
#     Node 81, Type 0, BuildingBlock: CEKHIL_clean_sbu_0, # of connection points: 4
#     Node 82, Type 0, BuildingBlock: CEKHIL_clean_sbu_0, # of connection points: 4
#     Node 83, Type 0, BuildingBlock: CEKHIL_clean_sbu_0, # of connection points: 4
#     Node 84, Type 0, BuildingBlock: CEKHIL_clean_sbu_0, # of connection points: 4
#     Node 85, Type 0, BuildingBlock: CEKHIL_clean_sbu_0, # of connection points: 4
#     Node 86, Type 0, BuildingBlock: CEKHIL_clean_sbu_0, # of connection points: 4
#     Node 87, Type 0, BuildingBlock: CEKHIL_clean_sbu_0, # of connection points: 4
#     Node 88, Type 0, BuildingBlock: CEKHIL_clean_sbu_0, # of connection points: 4
#     Node 89, Type 0, BuildingBlock: CEKHIL_clean_sbu_0, # of connection points: 4
#     Node 90, Type 0, BuildingBlock: CEKHIL_clean_sbu_0, # of connection points: 4
#     Node 91, Type 0, BuildingBlock: CEKHIL_clean_sbu_0, # of connection points: 4
#     Node 92, Type 0, BuildingBlock: CEKHIL_clean_sbu_0, # of connection points: 4
#     Node 93, Type 0, BuildingBlock: CEKHIL_clean_sbu_0, # of connection points: 4
#     Node 94, Type 0, BuildingBlock: CEKHIL_clean_sbu_0, # of connection points: 4
#     Node 95, Type 0, BuildingBlock: CEKHIL_clean_sbu_0, # of connection points: 4
#     Edge 96, Type (0, 0), BuildingBlock: ZUJKAS_clean_linker_0, # of connection points: 2
#     Edge 97, Type (0, 0), BuildingBlock: ZUJKAS_clean_linker_0, # of connection points: 2
#     Edge 98, Type (0, 0), BuildingBlock: ZUJKAS_clean_linker_0, # of connection points: 2
#     Edge 99, Type (0, 0), BuildingBlock: ZUJKAS_clean_linker_0, # of connection points: 2
#     Edge 100, Type (0, 0), BuildingBlock: ZUJKAS_clean_linker_0, # of connection points: 2
#     Edge 101, Type (0, 0), BuildingBlock: ZUJKAS_clean_linker_0, # of connection points: 2
#     Edge 102, Type (0, 0), BuildingBlock: ZUJKAS_clean_linker_0, # of connection points: 2
#     Edge 103, Type (0, 0), BuildingBlock: ZUJKAS_clean_linker_0, # of connection points: 2
#     Edge 104, Type (0, 0), BuildingBlock: ZUJKAS_clean_linker_0, # of connection points: 2
#     Edge 105, Type (0, 0), BuildingBlock: ZUJKAS_clean_linker_0, # of connection points: 2
#     Edge 106, Type (0, 0), BuildingBlock: ZUJKAS_clean_linker_0, # of connection points: 2
#     Edge 107, Type (0, 0), BuildingBlock: ZUJKAS_clean_linker_0, # of connection points: 2
#     Edge 108, Type (0, 0), BuildingBlock: ZUJKAS_clean_linker_0, # of connection points: 2
#     Edge 109, Type (0, 0), BuildingBlock: ZUJKAS_clean_linker_0, # of connection points: 2
#     Edge 110, Type (0, 0), BuildingBlock: ZUJKAS_clean_linker_0, # of connection points: 2
#     Edge 111, Type (0, 0), BuildingBlock: ZUJKAS_clean_linker_0, # of connection points: 2
#     Edge 112, Type (0, 0), BuildingBlock: ZUJKAS_clean_linker_0, # of connection points: 2
#     Edge 113, Type (0, 0), BuildingBlock: ZUJKAS_clean_linker_0, # of connection points: 2
#     Edge 114, Type (0, 0), BuildingBlock: ZUJKAS_clean_linker_0, # of connection points: 2
#     Edge 115, Type (0, 0), BuildingBlock: ZUJKAS_clean_linker_0, # of connection points: 2
#     Edge 116, Type (0, 0), BuildingBlock: ZUJKAS_clean_linker_0, # of connection points: 2
#     Edge 117, Type (0, 0), BuildingBlock: ZUJKAS_clean_linker_0, # of connection points: 2
#     Edge 118, Type (0, 0), BuildingBlock: ZUJKAS_clean_linker_0, # of connection points: 2
#     Edge 119, Type (0, 0), BuildingBlock: ZUJKAS_clean_linker_0, # of connection points: 2
#     Edge 120, Type (0, 0), BuildingBlock: ZUJKAS_clean_linker_0, # of connection points: 2
#     Edge 121, Type (0, 0), BuildingBlock: ZUJKAS_clean_linker_0, # of connection points: 2
#     Edge 122, Type (0, 0), BuildingBlock: ZUJKAS_clean_linker_0, # of connection points: 2
#     Edge 123, Type (0, 0), BuildingBlock: ZUJKAS_clean_linker_0, # of connection points: 2
#     Edge 124, Type (0, 0), BuildingBlock: ZUJKAS_clean_linker_0, # of connection points: 2
#     Edge 125, Type (0, 0), BuildingBlock: ZUJKAS_clean_linker_0, # of connection points: 2
#     Edge 126, Type (0, 0), BuildingBlock: ZUJKAS_clean_linker_0, # of connection points: 2
#     Edge 127, Type (0, 0), BuildingBlock: ZUJKAS_clean_linker_0, # of connection points: 2
#     Edge 128, Type (0, 0), BuildingBlock: ZUJKAS_clean_linker_0, # of connection points: 2
#     Edge 129, Type (0, 0), BuildingBlock: ZUJKAS_clean_linker_0, # of connection points: 2
#     Edge 130, Type (0, 0), BuildingBlock: ZUJKAS_clean_linker_0, # of connection points: 2
#     Edge 131, Type (0, 0), BuildingBlock: ZUJKAS_clean_linker_0, # of connection points: 2
#     Edge 132, Type (0, 0), BuildingBlock: ZUJKAS_clean_linker_0, # of connection points: 2
#     Edge 133, Type (0, 0), BuildingBlock: ZUJKAS_clean_linker_0, # of connection points: 2
#     Edge 134, Type (0, 0), BuildingBlock: ZUJKAS_clean_linker_0, # of connection points: 2
#     Edge 135, Type (0, 0), BuildingBlock: ZUJKAS_clean_linker_0, # of connection points: 2
#     Edge 136, Type (0, 0), BuildingBlock: ZUJKAS_clean_linker_0, # of connection points: 2
#     Edge 137, Type (0, 0), BuildingBlock: ZUJKAS_clean_linker_0, # of connection points: 2
#     Edge 138, Type (0, 0), BuildingBlock: ZUJKAS_clean_linker_0, # of connection points: 2
#     Edge 139, Type (0, 0), BuildingBlock: ZUJKAS_clean_linker_0, # of connection points: 2
#     Edge 140, Type (0, 0), BuildingBlock: ZUJKAS_clean_linker_0, # of connection points: 2
#     Edge 141, Type (0, 0), BuildingBlock: ZUJKAS_clean_linker_0, # of connection points: 2
#     Edge 142, Type (0, 0), BuildingBlock: ZUJKAS_clean_linker_0, # of connection points: 2
#     Edge 143, Type (0, 0), BuildingBlock: ZUJKAS_clean_linker_0, # of connection points: 2
#     Edge 144, Type (0, 0), BuildingBlock: ZUJKAS_clean_linker_0, # of connection points: 2
#     Edge 145, Type (0, 0), BuildingBlock: ZUJKAS_clean_linker_0, # of connection points: 2
#     Edge 146, Type (0, 0), BuildingBlock: ZUJKAS_clean_linker_0, # of connection points: 2
#     Edge 147, Type (0, 0), BuildingBlock: ZUJKAS_clean_linker_0, # of connection points: 2
#     Edge 148, Type (0, 0), BuildingBlock: ZUJKAS_clean_linker_0, # of connection points: 2
#     Edge 149, Type (0, 0), BuildingBlock: ZUJKAS_clean_linker_0, # of connection points: 2
#     Edge 150, Type (0, 0), BuildingBlock: ZUJKAS_clean_linker_0, # of connection points: 2
#     Edge 151, Type (0, 0), BuildingBlock: ZUJKAS_clean_linker_0, # of connection points: 2
#     Edge 152, Type (0, 0), BuildingBlock: ZUJKAS_clean_linker_0, # of connection points: 2
#     Edge 153, Type (0, 0), BuildingBlock: ZUJKAS_clean_linker_0, # of connection points: 2
#     Edge 154, Type (0, 0), BuildingBlock: ZUJKAS_clean_linker_0, # of connection points: 2
#     Edge 155, Type (0, 0), BuildingBlock: ZUJKAS_clean_linker_0, # of connection points: 2
#     Edge 156, Type (0, 0), BuildingBlock: ZUJKAS_clean_linker_0, # of connection points: 2
#     Edge 157, Type (0, 0), BuildingBlock: ZUJKAS_clean_linker_0, # of connection points: 2
#     Edge 158, Type (0, 0), BuildingBlock: ZUJKAS_clean_linker_0, # of connection points: 2
#     Edge 159, Type (0, 0), BuildingBlock: ZUJKAS_clean_linker_0, # of connection points: 2
#     Edge 160, Type (0, 0), BuildingBlock: ZUJKAS_clean_linker_0, # of connection points: 2
#     Edge 161, Type (0, 0), BuildingBlock: ZUJKAS_clean_linker_0, # of connection points: 2
#     Edge 162, Type (0, 0), BuildingBlock: ZUJKAS_clean_linker_0, # of connection points: 2
#     Edge 163, Type (0, 0), BuildingBlock: ZUJKAS_clean_linker_0, # of connection points: 2
#     Edge 164, Type (0, 0), BuildingBlock: ZUJKAS_clean_linker_0, # of connection points: 2
#     Edge 165, Type (0, 0), BuildingBlock: ZUJKAS_clean_linker_0, # of connection points: 2
#     Edge 166, Type (0, 0), BuildingBlock: ZUJKAS_clean_linker_0, # of connection points: 2
#     Edge 167, Type (0, 0), BuildingBlock: ZUJKAS_clean_linker_0, # of connection points: 2
#     Edge 168, Type (0, 0), BuildingBlock: ZUJKAS_clean_linker_0, # of connection points: 2
#     Edge 169, Type (0, 0), BuildingBlock: ZUJKAS_clean_linker_0, # of connection points: 2
#     Edge 170, Type (0, 0), BuildingBlock: ZUJKAS_clean_linker_0, # of connection points: 2
#     Edge 171, Type (0, 0), BuildingBlock: ZUJKAS_clean_linker_0, # of connection points: 2
#     Edge 172, Type (0, 0), BuildingBlock: ZUJKAS_clean_linker_0, # of connection points: 2
#     Edge 173, Type (0, 0), BuildingBlock: ZUJKAS_clean_linker_0, # of connection points: 2
#     Edge 174, Type (0, 0), BuildingBlock: ZUJKAS_clean_linker_0, # of connection points: 2
#     Edge 175, Type (0, 0), BuildingBlock: ZUJKAS_clean_linker_0, # of connection points: 2
#     Edge 176, Type (0, 0), BuildingBlock: ZUJKAS_clean_linker_0, # of connection points: 2
#     Edge 177, Type (0, 0), BuildingBlock: ZUJKAS_clean_linker_0, # of connection points: 2
#     Edge 178, Type (0, 0), BuildingBlock: ZUJKAS_clean_linker_0, # of connection points: 2
#     Edge 179, Type (0, 0), BuildingBlock: ZUJKAS_clean_linker_0, # of connection points: 2
#     Edge 180, Type (0, 0), BuildingBlock: ZUJKAS_clean_linker_0, # of connection points: 2
#     Edge 181, Type (0, 0), BuildingBlock: ZUJKAS_clean_linker_0, # of connection points: 2
#     Edge 182, Type (0, 0), BuildingBlock: ZUJKAS_clean_linker_0, # of connection points: 2
#     Edge 183, Type (0, 0), BuildingBlock: ZUJKAS_clean_linker_0, # of connection points: 2
#     Edge 184, Type (0, 0), BuildingBlock: ZUJKAS_clean_linker_0, # of connection points: 2
#     Edge 185, Type (0, 0), BuildingBlock: ZUJKAS_clean_linker_0, # of connection points: 2
#     Edge 186, Type (0, 0), BuildingBlock: ZUJKAS_clean_linker_0, # of connection points: 2
#     Edge 187, Type (0, 0), BuildingBlock: ZUJKAS_clean_linker_0, # of connection points: 2
#     Edge 188, Type (0, 0), BuildingBlock: ZUJKAS_clean_linker_0, # of connection points: 2
#     Edge 189, Type (0, 0), BuildingBlock: ZUJKAS_clean_linker_0, # of connection points: 2
#     Edge 190, Type (0, 0), BuildingBlock: ZUJKAS_clean_linker_0, # of connection points: 2
#     Edge 191, Type (0, 0), BuildingBlock: ZUJKAS_clean_linker_0, # of connection points: 2
#     Edge 192, Type (0, 0), BuildingBlock: ZUJKAS_clean_linker_0, # of connection points: 2
#     Edge 193, Type (0, 0), BuildingBlock: ZUJKAS_clean_linker_0, # of connection points: 2
#     Edge 194, Type (0, 0), BuildingBlock: ZUJKAS_clean_linker_0, # of connection points: 2
#     Edge 195, Type (0, 0), BuildingBlock: ZUJKAS_clean_linker_0, # of connection points: 2
#     Edge 196, Type (0, 0), BuildingBlock: ZUJKAS_clean_linker_0, # of connection points: 2
#     Edge 197, Type (0, 0), BuildingBlock: ZUJKAS_clean_linker_0, # of connection points: 2
#     Edge 198, Type (0, 0), BuildingBlock: ZUJKAS_clean_linker_0, # of connection points: 2
#     Edge 199, Type (0, 0), BuildingBlock: ZUJKAS_clean_linker_0, # of connection points: 2
#     Edge 200, Type (0, 0), BuildingBlock: ZUJKAS_clean_linker_0, # of connection points: 2
#     Edge 201, Type (0, 0), BuildingBlock: ZUJKAS_clean_linker_0, # of connection points: 2
#     Edge 202, Type (0, 0), BuildingBlock: ZUJKAS_clean_linker_0, # of connection points: 2
#     Edge 203, Type (0, 0), BuildingBlock: ZUJKAS_clean_linker_0, # of connection points: 2
#     Edge 204, Type (0, 0), BuildingBlock: ZUJKAS_clean_linker_0, # of connection points: 2
#     Edge 205, Type (0, 0), BuildingBlock: ZUJKAS_clean_linker_0, # of connection points: 2
#     Edge 206, Type (0, 0), BuildingBlock: ZUJKAS_clean_linker_0, # of connection points: 2
#     Edge 207, Type (0, 0), BuildingBlock: ZUJKAS_clean_linker_0, # of connection points: 2
#     Edge 208, Type (0, 0), BuildingBlock: ZUJKAS_clean_linker_0, # of connection points: 2
#     Edge 209, Type (0, 0), BuildingBlock: ZUJKAS_clean_linker_0, # of connection points: 2
#     Edge 210, Type (0, 0), BuildingBlock: ZUJKAS_clean_linker_0, # of connection points: 2
#     Edge 211, Type (0, 0), BuildingBlock: ZUJKAS_clean_linker_0, # of connection points: 2
#     Edge 212, Type (0, 0), BuildingBlock: ZUJKAS_clean_linker_0, # of connection points: 2
#     Edge 213, Type (0, 0), BuildingBlock: ZUJKAS_clean_linker_0, # of connection points: 2
#     Edge 214, Type (0, 0), BuildingBlock: ZUJKAS_clean_linker_0, # of connection points: 2
#     Edge 215, Type (0, 0), BuildingBlock: ZUJKAS_clean_linker_0, # of connection points: 2
#     Edge 216, Type (0, 0), BuildingBlock: ZUJKAS_clean_linker_0, # of connection points: 2
#     Edge 217, Type (0, 0), BuildingBlock: ZUJKAS_clean_linker_0, # of connection points: 2
#     Edge 218, Type (0, 0), BuildingBlock: ZUJKAS_clean_linker_0, # of connection points: 2
#     Edge 219, Type (0, 0), BuildingBlock: ZUJKAS_clean_linker_0, # of connection points: 2
#     Edge 220, Type (0, 0), BuildingBlock: ZUJKAS_clean_linker_0, # of connection points: 2
#     Edge 221, Type (0, 0), BuildingBlock: ZUJKAS_clean_linker_0, # of connection points: 2
#     Edge 222, Type (0, 0), BuildingBlock: ZUJKAS_clean_linker_0, # of connection points: 2
#     Edge 223, Type (0, 0), BuildingBlock: ZUJKAS_clean_linker_0, # of connection points: 2
#     Edge 224, Type (0, 0), BuildingBlock: ZUJKAS_clean_linker_0, # of connection points: 2
#     Edge 225, Type (0, 0), BuildingBlock: ZUJKAS_clean_linker_0, # of connection points: 2
#     Edge 226, Type (0, 0), BuildingBlock: ZUJKAS_clean_linker_0, # of connection points: 2
#     Edge 227, Type (0, 0), BuildingBlock: ZUJKAS_clean_linker_0, # of connection points: 2
#     Edge 228, Type (0, 0), BuildingBlock: ZUJKAS_clean_linker_0, # of connection points: 2
#     Edge 229, Type (0, 0), BuildingBlock: ZUJKAS_clean_linker_0, # of connection points: 2
#     Edge 230, Type (0, 0), BuildingBlock: ZUJKAS_clean_linker_0, # of connection points: 2
#     Edge 231, Type (0, 0), BuildingBlock: ZUJKAS_clean_linker_0, # of connection points: 2
#     Edge 232, Type (0, 0), BuildingBlock: ZUJKAS_clean_linker_0, # of connection points: 2
#     Edge 233, Type (0, 0), BuildingBlock: ZUJKAS_clean_linker_0, # of connection points: 2
#     Edge 234, Type (0, 0), BuildingBlock: ZUJKAS_clean_linker_0, # of connection points: 2
#     Edge 235, Type (0, 0), BuildingBlock: ZUJKAS_clean_linker_0, # of connection points: 2
#     Edge 236, Type (0, 0), BuildingBlock: ZUJKAS_clean_linker_0, # of connection points: 2
#     Edge 237, Type (0, 0), BuildingBlock: ZUJKAS_clean_linker_0, # of connection points: 2
#     Edge 238, Type (0, 0), BuildingBlock: ZUJKAS_clean_linker_0, # of connection points: 2
#     Edge 239, Type (0, 0), BuildingBlock: ZUJKAS_clean_linker_0, # of connection points: 2
#     Edge 240, Type (0, 0), BuildingBlock: ZUJKAS_clean_linker_0, # of connection points: 2
#     Edge 241, Type (0, 0), BuildingBlock: ZUJKAS_clean_linker_0, # of connection points: 2
#     Edge 242, Type (0, 0), BuildingBlock: ZUJKAS_clean_linker_0, # of connection points: 2
#     Edge 243, Type (0, 0), BuildingBlock: ZUJKAS_clean_linker_0, # of connection points: 2
#     Edge 244, Type (0, 0), BuildingBlock: ZUJKAS_clean_linker_0, # of connection points: 2
#     Edge 245, Type (0, 0), BuildingBlock: ZUJKAS_clean_linker_0, # of connection points: 2
#     Edge 246, Type (0, 0), BuildingBlock: ZUJKAS_clean_linker_0, # of connection points: 2
#     Edge 247, Type (0, 0), BuildingBlock: ZUJKAS_clean_linker_0, # of connection points: 2
#     Edge 248, Type (0, 0), BuildingBlock: ZUJKAS_clean_linker_0, # of connection points: 2
#     Edge 249, Type (0, 0), BuildingBlock: ZUJKAS_clean_linker_0, # of connection points: 2
#     Edge 250, Type (0, 0), BuildingBlock: ZUJKAS_clean_linker_0, # of connection points: 2
#     Edge 251, Type (0, 0), BuildingBlock: ZUJKAS_clean_linker_0, # of connection points: 2
#     Edge 252, Type (0, 0), BuildingBlock: ZUJKAS_clean_linker_0, # of connection points: 2
#     Edge 253, Type (0, 0), BuildingBlock: ZUJKAS_clean_linker_0, # of connection points: 2
#     Edge 254, Type (0, 0), BuildingBlock: ZUJKAS_clean_linker_0, # of connection points: 2
#     Edge 255, Type (0, 0), BuildingBlock: ZUJKAS_clean_linker_0, # of connection points: 2
#     Edge 256, Type (0, 0), BuildingBlock: ZUJKAS_clean_linker_0, # of connection points: 2
#     Edge 257, Type (0, 0), BuildingBlock: ZUJKAS_clean_linker_0, # of connection points: 2
#     Edge 258, Type (0, 0), BuildingBlock: ZUJKAS_clean_linker_0, # of connection points: 2
#     Edge 259, Type (0, 0), BuildingBlock: ZUJKAS_clean_linker_0, # of connection points: 2
#     Edge 260, Type (0, 0), BuildingBlock: ZUJKAS_clean_linker_0, # of connection points: 2
#     Edge 261, Type (0, 0), BuildingBlock: ZUJKAS_clean_linker_0, # of connection points: 2
#     Edge 262, Type (0, 0), BuildingBlock: ZUJKAS_clean_linker_0, # of connection points: 2
#     Edge 263, Type (0, 0), BuildingBlock: ZUJKAS_clean_linker_0, # of connection points: 2
#     Edge 264, Type (0, 0), BuildingBlock: ZUJKAS_clean_linker_0, # of connection points: 2
#     Edge 265, Type (0, 0), BuildingBlock: ZUJKAS_clean_linker_0, # of connection points: 2
#     Edge 266, Type (0, 0), BuildingBlock: ZUJKAS_clean_linker_0, # of connection points: 2
#     Edge 267, Type (0, 0), BuildingBlock: ZUJKAS_clean_linker_0, # of connection points: 2
#     Edge 268, Type (0, 0), BuildingBlock: ZUJKAS_clean_linker_0, # of connection points: 2
#     Edge 269, Type (0, 0), BuildingBlock: ZUJKAS_clean_linker_0, # of connection points: 2
#     Edge 270, Type (0, 0), BuildingBlock: ZUJKAS_clean_linker_0, # of connection points: 2
#     Edge 271, Type (0, 0), BuildingBlock: ZUJKAS_clean_linker_0, # of connection points: 2
#     Edge 272, Type (0, 0), BuildingBlock: ZUJKAS_clean_linker_0, # of connection points: 2
#     Edge 273, Type (0, 0), BuildingBlock: ZUJKAS_clean_linker_0, # of connection points: 2
#     Edge 274, Type (0, 0), BuildingBlock: ZUJKAS_clean_linker_0, # of connection points: 2
#     Edge 275, Type (0, 0), BuildingBlock: ZUJKAS_clean_linker_0, # of connection points: 2
#     Edge 276, Type (0, 0), BuildingBlock: ZUJKAS_clean_linker_0, # of connection points: 2
#     Edge 277, Type (0, 0), BuildingBlock: ZUJKAS_clean_linker_0, # of connection points: 2
#     Edge 278, Type (0, 0), BuildingBlock: ZUJKAS_clean_linker_0, # of connection points: 2
#     Edge 279, Type (0, 0), BuildingBlock: ZUJKAS_clean_linker_0, # of connection points: 2
#     Edge 280, Type (0, 0), BuildingBlock: ZUJKAS_clean_linker_0, # of connection points: 2
#     Edge 281, Type (0, 0), BuildingBlock: ZUJKAS_clean_linker_0, # of connection points: 2
#     Edge 282, Type (0, 0), BuildingBlock: ZUJKAS_clean_linker_0, # of connection points: 2
#     Edge 283, Type (0, 0), BuildingBlock: ZUJKAS_clean_linker_0, # of connection points: 2
#     Edge 284, Type (0, 0), BuildingBlock: ZUJKAS_clean_linker_0, # of connection points: 2
#     Edge 285, Type (0, 0), BuildingBlock: ZUJKAS_clean_linker_0, # of connection points: 2
#     Edge 286, Type (0, 0), BuildingBlock: ZUJKAS_clean_linker_0, # of connection points: 2
#     Edge 287, Type (0, 0), BuildingBlock: ZUJKAS_clean_linker_0, # of connection points: 2
# Relax obj value: 0.163
# Max RMSD: 0.097
# Mean RMSD: 0.097
data_MOF--net-kfi--node1-CEKHIL_clean_sbu_0--edge1-ZUJKAS_clean_linker_0
_symmetry_space_group_name_H-M    P1
_symmetry_Int_Tables_number       1
_symmetry_cell_setting            triclinic
loop_
_symmetry_equiv_pos_as_xyz
'x, y, z'
_cell_length_a     114.19066
_cell_length_b     114.18732
_cell_length_c     114.19139
_cell_angle_alpha  89.997854
_cell_angle_beta   90.001794
_cell_angle_gamma 90.000826
loop_
_atom_site_label
_atom_site_type_symbol
_atom_site_fract_x
_atom_site_fract_y
_atom_site_fract_z
_atom_type_partial_charge
Co0 Co 0.08196 0.197 0.32029 0.0
O1 O 0.06779 0.18941 0.31514 0.0
O2 O 0.06856 0.20444 0.32739 0.0
C3 C 0.09223 0.18054 0.32415 0.0
O4 O 0.09467 0.20689 0.32796 0.0
Co5 Co 0.1056 0.19387 0.30718 0.0
O6 O 0.11237 0.2015 0.32128 0.0
C7 C 0.08723 0.20914 0.29715 0.0
C8 C 0.06223 0.19692 0.32164 0.0
C9 C 0.10593 0.20731 0.32829 0.0
O10 O 0.08113 0.20813 0.30658 0.0
O11 O 0.09673 0.20344 0.29537 0.0
O12 O 0.08479 0.18455 0.33179 0.0
O13 O 0.0924 0.18594 0.31423 0.0
Co14 Co 0.80226 0.08288 0.3207 0.0
O15 O 0.8097 0.06865 0.31555 0.0
O16 O 0.79471 0.06954 0.32782 0.0
C17 C 0.81888 0.0929 0.32449 0.0
O18 O 0.79253 0.09571 0.32837 0.0
Co19 Co 0.80566 0.10646 0.30757 0.0
O20 O 0.79821 0.11333 0.3217 0.0
C21 C 0.79034 0.08817 0.29748 0.0
C22 C 0.80218 0.06315 0.32208 0.0
C23 C 0.79232 0.10697 0.32873 0.0
O24 O 0.79114 0.08215 0.30697 0.0
O25 O 0.79619 0.09758 0.29569 0.0
O26 O 0.81475 0.08557 0.33217 0.0
O27 O 0.81344 0.09316 0.31459 0.0
Co28 Co 0.91727 0.80269 0.3197 0.0
O29 O 0.93143 0.81013 0.3143 0.0
O30 O 0.9307 0.79549 0.32701 0.0
C31 C 0.90704 0.81927 0.32306 0.0
O32 O 0.90458 0.79307 0.32772 0.0
Co33 Co 0.89369 0.80537 0.30646 0.0
O34 O 0.88688 0.79757 0.32042 0.0
C35 C 0.91216 0.79006 0.2968 0.0
C36 C 0.93701 0.80285 0.32104 0.0
C37 C 0.89334 0.79226 0.32782 0.0
O38 O 0.91812 0.79117 0.30631 0.0
O39 O 0.90271 0.79577 0.29482 0.0
O40 O 0.91447 0.81547 0.33081 0.0
O41 O 0.90684 0.81358 0.3133 0.0
Co42 Co 0.19776 0.91773 0.32072 0.0
O43 O 0.19003 0.93188 0.31572 0.0
O44 O 0.20498 0.93113 0.32807 0.0
C45 C 0.18142 0.9072 0.32432 0.0
O46 O 0.20771 0.90501 0.32829 0.0
Co47 Co 0.19501 0.89438 0.30704 0.0
O48 O 0.20326 0.88742 0.32067 0.0
C49 C 0.20983 0.91323 0.29739 0.0
C50 C 0.19742 0.93744 0.32236 0.0
C51 C 0.20866 0.89378 0.3281 0.0
O52 O 0.20897 0.91893 0.30707 0.0
O53 O 0.2041 0.90381 0.29532 0.0
O54 O 0.18527 0.91459 0.33208 0.0
O55 O 0.18686 0.90727 0.31442 0.0
Co56 Co 0.08277 0.80216 0.67963 0.0
O57 O 0.06845 0.80947 0.68471 0.0
O58 O 0.06955 0.79469 0.67219 0.0
C59 C 0.09285 0.81883 0.67623 0.0
O60 O 0.09574 0.79262 0.67195 0.0
Co61 Co 0.10605 0.80537 0.69332 0.0
O62 O 0.11321 0.79726 0.67972 0.0
C63 C 0.08765 0.78986 0.70278 0.0
C64 C 0.06306 0.80204 0.67799 0.0
C65 C 0.10698 0.79184 0.6722 0.0
O66 O 0.08185 0.79077 0.69315 0.0
O67 O 0.09695 0.79576 0.70489 0.0
O68 O 0.0856 0.81484 0.6684 0.0
O69 O 0.09294 0.81327 0.68606 0.0
Co70 Co 0.19732 0.08243 0.68018 0.0
O71 O 0.19 0.06832 0.68589 0.0
O72 O 0.20446 0.06892 0.67297 0.0
C73 C 0.1807 0.09263 0.67686 0.0
O74 O 0.2068 0.09501 0.67182 0.0
Co75 Co 0.19473 0.10626 0.69305 0.0
O76 O 0.20238 0.11283 0.67888 0.0
C77 C 0.2104 0.08807 0.70272 0.0
C78 C 0.1972 0.06267 0.67913 0.0
C79 C 0.20761 0.10625 0.67154 0.0
O80 O 0.20907 0.08184 0.69341 0.0
O81 O 0.20467 0.09753 0.70461 0.0
O82 O 0.18437 0.08504 0.6692 0.0
O83 O 0.18651 0.09296 0.68654 0.0
Co84 Co 0.9173 0.19714 0.68055 0.0
O85 O 0.93144 0.18962 0.68589 0.0
O86 O 0.93072 0.20418 0.6731 0.0
C87 C 0.90681 0.18068 0.67733 0.0
O88 O 0.90464 0.20682 0.67255 0.0
Co89 Co 0.89378 0.19479 0.69401 0.0
O90 O 0.88695 0.20261 0.68006 0.0
C91 C 0.9125 0.20994 0.70343 0.0
C92 C 0.93702 0.19682 0.67907 0.0
C93 C 0.8934 0.20777 0.67255 0.0
O94 O 0.91835 0.20875 0.69387 0.0
O95 O 0.90303 0.2043 0.70553 0.0
O96 O 0.91428 0.18431 0.66954 0.0
O97 O 0.90678 0.18641 0.68707 0.0
Co98 Co 0.80248 0.91666 0.68082 0.0
O99 O 0.80987 0.93079 0.68635 0.0
O100 O 0.79536 0.93013 0.67349 0.0
C101 C 0.81912 0.90647 0.67759 0.0
O102 O 0.79295 0.90401 0.67263 0.0
Co103 Co 0.80505 0.89301 0.69394 0.0
O104 O 0.79736 0.88627 0.67988 0.0
C105 C 0.78962 0.91142 0.70356 0.0
C106 C 0.80267 0.93641 0.67956 0.0
C107 C 0.79213 0.89277 0.67247 0.0
O108 O 0.79082 0.91744 0.6941 0.0
O109 O 0.79533 0.90196 0.70554 0.0
O110 O 0.81537 0.91392 0.66982 0.0
O111 O 0.81332 0.90621 0.68728 0.0
Co112 Co 0.31927 0.0824 0.19744 0.0
O113 O 0.31394 0.06816 0.19012 0.0
O114 O 0.32659 0.06905 0.20479 0.0
C115 C 0.32269 0.09257 0.18082 0.0
O116 O 0.32721 0.09521 0.20697 0.0
Co117 Co 0.30589 0.1059 0.19446 0.0
O118 O 0.31981 0.11282 0.20226 0.0
C119 C 0.29635 0.0876 0.21004 0.0
C120 C 0.32065 0.06266 0.19748 0.0
C121 C 0.32722 0.10646 0.20767 0.0
O122 O 0.30586 0.08163 0.20896 0.0
O123 O 0.29432 0.09696 0.2042 0.0
O124 O 0.33043 0.08514 0.18467 0.0
O125 O 0.3129 0.09273 0.18645 0.0
Co126 Co 0.91708 0.31944 0.19754 0.0
O127 O 0.93127 0.31378 0.19036 0.0
O128 O 0.93052 0.32646 0.20502 0.0
C129 C 0.90729 0.32303 0.18073 0.0
O130 O 0.90439 0.32768 0.20697 0.0
Co131 Co 0.89319 0.30689 0.19431 0.0
O132 O 0.88663 0.32143 0.20126 0.0
C133 C 0.91102 0.29678 0.21017 0.0
C134 C 0.93685 0.32039 0.19775 0.0
C135 C 0.89314 0.32839 0.20706 0.0
O136 O 0.9174 0.30601 0.20903 0.0
O137 O 0.90156 0.29513 0.20436 0.0
O138 O 0.91476 0.33064 0.18473 0.0
O139 O 0.90675 0.31329 0.18643 0.0
Co140 Co 0.68066 0.91767 0.19725 0.0
O141 O 0.68592 0.93184 0.18975 0.0
O142 O 0.67333 0.93107 0.20449 0.0
C143 C 0.6772 0.9073 0.18078 0.0
O144 O 0.67277 0.90496 0.20695 0.0
Co145 Co 0.69408 0.89417 0.19456 0.0
O146 O 0.6802 0.88731 0.20246 0.0
C147 C 0.70366 0.91273 0.2098 0.0
C148 C 0.67924 0.9374 0.19709 0.0
C149 C 0.67278 0.89371 0.20779 0.0
O150 O 0.69411 0.91863 0.2087 0.0
O151 O 0.7057 0.9033 0.20409 0.0
O152 O 0.66947 0.91476 0.18456 0.0
O153 O 0.68702 0.90722 0.18637 0.0
Co154 Co 0.08278 0.68026 0.19815 0.0
O155 O 0.06872 0.68588 0.19069 0.0
O156 O 0.06924 0.67314 0.20531 0.0
C157 C 0.09299 0.67676 0.18158 0.0
O158 O 0.09528 0.672 0.20779 0.0
Co159 Co 0.10662 0.69304 0.19559 0.0
O160 O 0.11315 0.67896 0.20343 0.0
C161 C 0.08826 0.70303 0.21085 0.0
C162 C 0.06303 0.67921 0.19794 0.0
C163 C 0.10651 0.67168 0.20869 0.0
O164 O 0.08211 0.69364 0.20969 0.0
O165 O 0.09778 0.70483 0.20519 0.0
O166 O 0.08543 0.66913 0.18536 0.0
O167 O 0.09335 0.6865 0.1873 0.0
Co168 Co 0.31985 0.91725 0.80348 0.0
O169 O 0.31448 0.93155 0.81067 0.0
O170 O 0.32726 0.93055 0.79611 0.0
C171 C 0.32309 0.90727 0.82025 0.0
O172 O 0.32787 0.90439 0.79408 0.0
Co173 Co 0.30657 0.89372 0.80655 0.0
O174 O 0.32044 0.88677 0.7987 0.0
C175 C 0.29704 0.91192 0.79081 0.0
C176 C 0.32128 0.93699 0.80335 0.0
C177 C 0.32787 0.89314 0.79333 0.0
O178 O 0.30652 0.91794 0.79185 0.0
O179 O 0.29503 0.90261 0.79673 0.0
O180 O 0.3309 0.91459 0.81637 0.0
O181 O 0.31337 0.90703 0.8145 0.0
Co182 Co 0.08252 0.31985 0.80241 0.0
O183 O 0.06834 0.31471 0.81 0.0
O184 O 0.06914 0.32728 0.79525 0.0
C185 C 0.09299 0.32325 0.81883 0.0
O186 O 0.09521 0.32765 0.79262 0.0
Co187 Co 0.10597 0.30633 0.80497 0.0
O188 O 0.11286 0.32016 0.79701 0.0
C189 C 0.08721 0.29676 0.78995 0.0
C190 C 0.06281 0.32146 0.80271 0.0
C191 C 0.10645 0.32761 0.79172 0.0
O192 O 0.0814 0.30637 0.79099 0.0
O193 O 0.09666 0.29469 0.79563 0.0
O194 O 0.08557 0.33103 0.81506 0.0
O195 O 0.09299 0.31343 0.81324 0.0
Co196 Co 0.67974 0.08238 0.80315 0.0
O197 O 0.68505 0.06818 0.81058 0.0
O198 O 0.67243 0.069 0.79587 0.0
C199 C 0.67632 0.09259 0.81973 0.0
O200 O 0.67181 0.0951 0.79351 0.0
Co201 Co 0.69305 0.10591 0.80594 0.0
O202 O 0.67923 0.11277 0.79794 0.0
C203 C 0.70276 0.0874 0.79071 0.0
C204 C 0.67834 0.06265 0.80324 0.0
C205 C 0.67181 0.10634 0.79263 0.0
O206 O 0.6932 0.0815 0.7917 0.0
O207 O 0.70475 0.09681 0.79648 0.0
O208 O 0.66857 0.0852 0.81587 0.0
O209 O 0.68611 0.09277 0.8141 0.0
Co210 Co 0.91747 0.68008 0.80318 0.0
O211 O 0.93157 0.68521 0.81092 0.0
O212 O 0.93093 0.67277 0.79604 0.0
C213 C 0.90688 0.67646 0.81948 0.0
O214 O 0.90484 0.67235 0.79323 0.0
Co215 Co 0.89401 0.6936 0.80575 0.0
O216 O 0.88719 0.67987 0.79756 0.0
C217 C 0.91283 0.70328 0.79091 0.0
C218 C 0.93719 0.67856 0.80358 0.0
C219 C 0.89361 0.67245 0.79224 0.0
O220 O 0.91862 0.69366 0.79189 0.0
O221 O 0.90336 0.70532 0.79656 0.0
O222 O 0.91437 0.66875 0.81571 0.0
O223 O 0.90691 0.68635 0.814 0.0
Co224 Co 0.19748 0.31951 0.08316 0.0
O225 O 0.18995 0.31467 0.06886 0.0
O226 O 0.20483 0.32708 0.06995 0.0
C227 C 0.18095 0.32289 0.09347 0.0
O228 O 0.20723 0.32696 0.09609 0.0
Co229 Co 0.19449 0.30559 0.10632 0.0
O230 O 0.20263 0.31915 0.11354 0.0
C231 C 0.20972 0.29625 0.08762 0.0
C232 C 0.19735 0.32143 0.06347 0.0
C233 C 0.20807 0.32666 0.10732 0.0
O234 O 0.20876 0.30594 0.08192 0.0
O235 O 0.20394 0.29408 0.09698 0.0
O236 O 0.18491 0.33078 0.08627 0.0
O237 O 0.18645 0.31302 0.09338 0.0
Co238 Co 0.19734 0.67999 0.91755 0.0
O239 O 0.18965 0.68501 0.93171 0.0
O240 O 0.20449 0.67254 0.93093 0.0
C241 C 0.181 0.67654 0.90695 0.0
O242 O 0.20723 0.67236 0.90482 0.0
Co243 Co 0.19475 0.6938 0.89425 0.0
O244 O 0.2029 0.68012 0.88726 0.0
C245 C 0.20964 0.70323 0.91315 0.0
C246 C 0.19699 0.67831 0.93726 0.0
C247 C 0.2082 0.6726 0.89359 0.0
O248 O 0.20867 0.69352 0.91881 0.0
O249 O 0.20395 0.7054 0.90373 0.0
O250 O 0.18476 0.66874 0.91435 0.0
O251 O 0.18651 0.68641 0.90708 0.0
Co252 Co 0.31949 0.19775 0.9169 0.0
O253 O 0.31355 0.19042 0.93091 0.0
O254 O 0.32635 0.20498 0.93053 0.0
C255 C 0.32307 0.18101 0.90698 0.0
O256 O 0.32806 0.20734 0.90452 0.0
Co257 Co 0.30774 0.19501 0.89254 0.0
O258 O 0.32254 0.20176 0.88649 0.0
C259 C 0.29769 0.21144 0.90996 0.0
C260 C 0.32018 0.19765 0.93668 0.0
C261 C 0.32921 0.20755 0.8933 0.0
O262 O 0.30613 0.20936 0.91714 0.0
O263 O 0.29653 0.20625 0.90008 0.0
O264 O 0.33059 0.18486 0.91461 0.0
O265 O 0.31342 0.18684 0.90626 0.0
Co266 Co 0.80282 0.32012 0.91712 0.0
O267 O 0.81013 0.31504 0.93144 0.0
O268 O 0.79535 0.32755 0.93034 0.0
C269 C 0.8195 0.32352 0.90706 0.0
O270 O 0.79326 0.32781 0.90419 0.0
Co271 Co 0.80606 0.30658 0.89375 0.0
O272 O 0.79788 0.32018 0.88666 0.0
C273 C 0.79072 0.29693 0.91221 0.0
C274 C 0.80271 0.32177 0.93683 0.0
C275 C 0.79244 0.32764 0.89295 0.0
O276 O 0.79144 0.30659 0.91799 0.0
O277 O 0.79673 0.29488 0.90296 0.0
O278 O 0.81551 0.33136 0.9143 0.0
O279 O 0.81392 0.31371 0.90695 0.0
Co280 Co 0.68006 0.80234 0.9176 0.0
O281 O 0.68512 0.80988 0.93183 0.0
O282 O 0.67286 0.79487 0.93095 0.0
C283 C 0.67633 0.81889 0.90744 0.0
O284 O 0.67246 0.79251 0.90481 0.0
Co285 Co 0.6933 0.80556 0.89407 0.0
O286 O 0.67928 0.79793 0.88716 0.0
C287 C 0.70331 0.79039 0.91253 0.0
C288 C 0.67857 0.80238 0.93733 0.0
C289 C 0.67221 0.79211 0.89355 0.0
O290 O 0.69378 0.79123 0.9185 0.0
O291 O 0.70514 0.79618 0.90309 0.0
O292 O 0.66861 0.81482 0.91475 0.0
O293 O 0.68623 0.81345 0.90728 0.0
Co294 Co 0.80254 0.67997 0.08299 0.0
O295 O 0.8102 0.68518 0.06889 0.0
O296 O 0.79536 0.6727 0.06954 0.0
C297 C 0.81892 0.67637 0.09346 0.0
O298 O 0.79268 0.67215 0.09564 0.0
Co299 Co 0.80521 0.69338 0.10651 0.0
O300 O 0.79713 0.67957 0.11331 0.0
C301 C 0.79016 0.70308 0.08786 0.0
C302 C 0.80288 0.67853 0.06327 0.0
C303 C 0.79178 0.67218 0.10688 0.0
O304 O 0.79121 0.69352 0.08196 0.0
O305 O 0.79582 0.70507 0.09733 0.0
O306 O 0.81512 0.66867 0.08598 0.0
O307 O 0.81341 0.68624 0.09352 0.0
Co308 Co 0.31994 0.80247 0.08281 0.0
O309 O 0.31475 0.80972 0.06849 0.0
O310 O 0.32745 0.7951 0.06958 0.0
C311 C 0.32312 0.81921 0.09287 0.0
O312 O 0.32779 0.79301 0.09573 0.0
Co313 Co 0.30646 0.80552 0.10624 0.0
O314 O 0.32026 0.79764 0.1133 0.0
C315 C 0.29695 0.79003 0.0878 0.0
C316 C 0.32158 0.80239 0.06309 0.0
C317 C 0.32772 0.79226 0.10698 0.0
O318 O 0.30655 0.79092 0.08196 0.0
O319 O 0.29488 0.79598 0.09709 0.0
O320 O 0.331 0.81531 0.08562 0.0
O321 O 0.31339 0.81348 0.09301 0.0
Co322 Co 0.6806 0.19769 0.08346 0.0
O323 O 0.68681 0.1906 0.06944 0.0
O324 O 0.6737 0.20489 0.06983 0.0
C325 C 0.67723 0.18084 0.09326 0.0
O326 O 0.67169 0.20696 0.09585 0.0
Co327 Co 0.69235 0.19501 0.10784 0.0
O328 O 0.67763 0.20192 0.11389 0.0
C329 C 0.70207 0.2118 0.09064 0.0
C330 C 0.68009 0.19776 0.06368 0.0
C331 C 0.6707 0.20738 0.10707 0.0
O332 O 0.69371 0.20958 0.08341 0.0
O333 O 0.70332 0.20657 0.10048 0.0
O334 O 0.66973 0.18458 0.08556 0.0
O335 O 0.68679 0.18682 0.09408 0.0
Co336 Co 0.91749 0.80218 0.68072 0.0
O337 O 0.93184 0.80949 0.68576 0.0
O338 O 0.93068 0.79474 0.67321 0.0
C339 C 0.90737 0.81885 0.67741 0.0
O340 O 0.90452 0.79265 0.67306 0.0
Co341 Co 0.89423 0.8053 0.69446 0.0
O342 O 0.88704 0.7973 0.6808 0.0
C343 C 0.91271 0.78984 0.70386 0.0
C344 C 0.9372 0.80207 0.679 0.0
C345 C 0.89327 0.79189 0.67328 0.0
O346 O 0.91847 0.79077 0.69421 0.0
O347 O 0.9034 0.79572 0.70599 0.0
O348 O 0.9146 0.81489 0.66954 0.0
O349 O 0.90733 0.81326 0.68722 0.0
Co350 Co 0.19709 0.91694 0.68037 0.0
O351 O 0.18986 0.93109 0.68606 0.0
O352 O 0.2044 0.93041 0.67325 0.0
C353 C 0.18034 0.90699 0.67696 0.0
O354 O 0.20651 0.90427 0.67209 0.0
Co355 Co 0.19411 0.89315 0.69321 0.0
O356 O 0.20187 0.8865 0.67915 0.0
C357 C 0.20986 0.91119 0.70304 0.0
C358 C 0.19715 0.9367 0.67937 0.0
C359 C 0.20723 0.89302 0.67184 0.0
O360 O 0.20873 0.91739 0.69369 0.0
O361 O 0.204 0.9018 0.70489 0.0
O362 O 0.1842 0.91448 0.66929 0.0
O363 O 0.18609 0.90655 0.68666 0.0
Co364 Co 0.0827 0.19737 0.68009 0.0
O365 O 0.06863 0.18974 0.68546 0.0
O366 O 0.06919 0.2044 0.67276 0.0
C367 C 0.09322 0.18097 0.67669 0.0
O368 O 0.09529 0.20717 0.67211 0.0
Co369 Co 0.10627 0.19497 0.69345 0.0
O370 O 0.113 0.20286 0.6795 0.0
C371 C 0.08761 0.2101 0.70301 0.0
C372 C 0.06296 0.19695 0.67872 0.0
C373 C 0.10652 0.20811 0.67207 0.0
O374 O 0.08167 0.20889 0.69349 0.0
O375 O 0.09711 0.20449 0.70503 0.0
O376 O 0.08569 0.18464 0.66897 0.0
O377 O 0.09328 0.18663 0.68647 0.0
Co378 Co 0.80257 0.08209 0.68107 0.0
O379 O 0.80996 0.06795 0.68658 0.0
O380 O 0.79542 0.06865 0.67376 0.0
C381 C 0.81913 0.09239 0.67776 0.0
O382 O 0.793 0.09473 0.67289 0.0
Co383 Co 0.8051 0.10579 0.69418 0.0
O384 O 0.7974 0.11249 0.6801 0.0
C385 C 0.78971 0.08736 0.70382 0.0
C386 C 0.80272 0.06235 0.67981 0.0
C387 C 0.79217 0.10597 0.6727 0.0
O388 O 0.79093 0.08131 0.69438 0.0
O389 O 0.7954 0.09683 0.70577 0.0
O390 O 0.81543 0.08487 0.67004 0.0
O391 O 0.81337 0.0926 0.68748 0.0
Co392 Co 0.91655 0.19712 0.32026 0.0
O393 O 0.9307 0.18972 0.31481 0.0
O394 O 0.93001 0.20454 0.32731 0.0
C395 C 0.90653 0.18049 0.32398 0.0
O396 O 0.90389 0.20676 0.3283 0.0
Co397 Co 0.89281 0.19404 0.3074 0.0
O398 O 0.88612 0.20201 0.32133 0.0
C399 C 0.91101 0.20937 0.29725 0.0
C400 C 0.9363 0.19712 0.32139 0.0
C401 C 0.89264 0.20749 0.32855 0.0
O402 O 0.91714 0.20845 0.30668 0.0
O403 O 0.90159 0.20355 0.2955 0.0
O404 O 0.91399 0.18449 0.3316 0.0
O405 O 0.90615 0.18605 0.31415 0.0
Co406 Co 0.80267 0.91754 0.31988 0.0
O407 O 0.81005 0.9318 0.31468 0.0
O408 O 0.79537 0.93084 0.32733 0.0
C409 C 0.81929 0.90735 0.32315 0.0
O410 O 0.79309 0.90472 0.32773 0.0
Co411 Co 0.80548 0.89413 0.30638 0.0
O412 O 0.79756 0.88712 0.32019 0.0
C413 C 0.79027 0.91273 0.29682 0.0
C414 C 0.8027 0.93726 0.32144 0.0
C415 C 0.79225 0.89348 0.32766 0.0
O416 O 0.79119 0.91851 0.30646 0.0
O417 O 0.79608 0.90336 0.29474 0.0
O418 O 0.81543 0.91466 0.331 0.0
O419 O 0.81362 0.90724 0.31339 0.0
Co420 Co 0.08266 0.80342 0.31984 0.0
O421 O 0.06853 0.81101 0.31456 0.0
O422 O 0.06921 0.79623 0.3271 0.0
C423 C 0.0931 0.81982 0.32341 0.0
O424 O 0.09529 0.79363 0.32775 0.0
Co425 Co 0.10624 0.80604 0.30654 0.0
O426 O 0.113 0.7981 0.32046 0.0
C427 C 0.08762 0.79099 0.29679 0.0
C428 C 0.06293 0.80369 0.32123 0.0
C429 C 0.10653 0.79277 0.32783 0.0
O430 O 0.0817 0.79202 0.30633 0.0
O431 O 0.09708 0.79668 0.29482 0.0
O432 O 0.08559 0.81606 0.33109 0.0
O433 O 0.0932 0.81427 0.31357 0.0
Co434 Co 0.1969 0.08309 0.32046 0.0
O435 O 0.18948 0.06888 0.3152 0.0
O436 O 0.20431 0.06973 0.32768 0.0
C437 C 0.18037 0.09331 0.32412 0.0
O438 O 0.20656 0.09587 0.3283 0.0
Co439 Co 0.19382 0.10661 0.30712 0.0
O440 O 0.20187 0.11349 0.32091 0.0
C441 C 0.20935 0.08834 0.29744 0.0
C442 C 0.1969 0.06336 0.32182 0.0
C443 C 0.20733 0.10712 0.32828 0.0
O444 O 0.20828 0.08231 0.30692 0.0
O445 O 0.20353 0.09773 0.29549 0.0
O446 O 0.18428 0.08584 0.33178 0.0
O447 O 0.18586 0.09347 0.31425 0.0
Co448 Co 0.67988 0.91702 0.80315 0.0
O449 O 0.68511 0.9312 0.81064 0.0
O450 O 0.67256 0.9304 0.79587 0.0
C451 C 0.67642 0.90678 0.81971 0.0
O452 O 0.67204 0.90427 0.79345 0.0
Co453 Co 0.69328 0.89354 0.806 0.0
O454 O 0.6795 0.88664 0.79794 0.0
C455 C 0.70296 0.91208 0.79078 0.0
C456 C 0.67842 0.93674 0.8033 0.0
C457 C 0.67209 0.89303 0.79258 0.0
O458 O 0.69338 0.91795 0.79175 0.0
O459 O 0.70497 0.90268 0.79657 0.0
O460 O 0.66865 0.91415 0.81581 0.0
O461 O 0.68624 0.90664 0.81412 0.0
Co462 Co 0.08284 0.6801 0.80239 0.0
O463 O 0.06874 0.68544 0.80997 0.0
O464 O 0.06936 0.67284 0.79524 0.0
C465 C 0.09324 0.67662 0.81884 0.0
O466 O 0.09546 0.67217 0.79259 0.0
Co467 Co 0.10649 0.69329 0.80499 0.0
O468 O 0.11319 0.67891 0.79783 0.0
C469 C 0.08792 0.70302 0.78979 0.0
C470 C 0.06311 0.67876 0.80269 0.0
C471 C 0.10671 0.67176 0.79222 0.0
O472 O 0.08191 0.69356 0.79095 0.0
O473 O 0.09745 0.70495 0.79541 0.0
O474 O 0.08575 0.6689 0.81508 0.0
O475 O 0.09337 0.68641 0.81322 0.0
Co476 Co 0.32039 0.08268 0.80302 0.0
O477 O 0.31485 0.0684 0.81011 0.0
O478 O 0.32774 0.06935 0.79566 0.0
C479 C 0.32357 0.09256 0.81986 0.0
O480 O 0.32855 0.09553 0.79372 0.0
Co481 Co 0.30721 0.10627 0.80608 0.0
O482 O 0.32117 0.11317 0.79835 0.0
C483 C 0.29775 0.08825 0.79009 0.0
C484 C 0.32166 0.06293 0.80283 0.0
C485 C 0.32861 0.10678 0.79301 0.0
O486 O 0.30715 0.08213 0.79128 0.0
O487 O 0.29575 0.09758 0.79599 0.0
O488 O 0.33135 0.0852 0.816 0.0
O489 O 0.31389 0.09291 0.81405 0.0
Co490 Co 0.91725 0.32002 0.80216 0.0
O491 O 0.93146 0.31511 0.80982 0.0
O492 O 0.93057 0.32746 0.79488 0.0
C493 C 0.90682 0.32355 0.81858 0.0
O494 O 0.90445 0.32752 0.79227 0.0
Co495 Co 0.89402 0.30621 0.80499 0.0
O496 O 0.88693 0.31968 0.79658 0.0
C497 C 0.91286 0.29668 0.79008 0.0
C498 C 0.93695 0.32179 0.80241 0.0
C499 C 0.89323 0.32719 0.79123 0.0
O500 O 0.9185 0.3064 0.79094 0.0
O501 O 0.90347 0.29454 0.79584 0.0
O502 O 0.9141 0.33137 0.81464 0.0
O503 O 0.90689 0.31365 0.81313 0.0
Co504 Co 0.68071 0.08307 0.19758 0.0
O505 O 0.68599 0.06884 0.19021 0.0
O506 O 0.6735 0.06971 0.20503 0.0
C507 C 0.67715 0.09307 0.1809 0.0
O508 O 0.67287 0.09586 0.20722 0.0
Co509 Co 0.69378 0.10669 0.19441 0.0
O510 O 0.67954 0.11352 0.2017 0.0
C511 C 0.70366 0.08849 0.20998 0.0
C512 C 0.67936 0.06333 0.19763 0.0
C513 C 0.67247 0.10712 0.20748 0.0
O514 O 0.69426 0.08236 0.20892 0.0
O515 O 0.70548 0.09794 0.20421 0.0
O516 O 0.66942 0.08574 0.18492 0.0
O517 O 0.68697 0.09336 0.18649 0.0
Co518 Co 0.9174 0.68034 0.19744 0.0
O519 O 0.93149 0.68552 0.18972 0.0
O520 O 0.93087 0.67308 0.2046 0.0
C521 C 0.90686 0.6767 0.18112 0.0
O522 O 0.90478 0.67257 0.20735 0.0
Co523 Co 0.89391 0.69381 0.19481 0.0
O524 O 0.88711 0.68004 0.20296 0.0
C525 C 0.91268 0.70355 0.20967 0.0
C526 C 0.93712 0.6789 0.19706 0.0
C527 C 0.89354 0.67264 0.2083 0.0
O528 O 0.91849 0.69393 0.20872 0.0
O529 O 0.90322 0.70556 0.20398 0.0
O530 O 0.91436 0.66901 0.1849 0.0
O531 O 0.90685 0.68658 0.18659 0.0
Co532 Co 0.31938 0.91701 0.19786 0.0
O533 O 0.31422 0.93125 0.19041 0.0
O534 O 0.32685 0.93034 0.20511 0.0
C535 C 0.3227 0.90673 0.1813 0.0
O536 O 0.32717 0.90419 0.2075 0.0
Co537 Co 0.30573 0.89367 0.1951 0.0
O538 O 0.31948 0.88663 0.20307 0.0
C539 C 0.29634 0.91227 0.2104 0.0
C540 C 0.32098 0.93674 0.19774 0.0
C541 C 0.32701 0.89295 0.20837 0.0
O542 O 0.30596 0.91806 0.20933 0.0
O543 O 0.2942 0.90288 0.20465 0.0
O544 O 0.33052 0.91406 0.18515 0.0
O545 O 0.3129 0.90668 0.18692 0.0
Co546 Co 0.08254 0.31905 0.19772 0.0
O547 O 0.0684 0.31367 0.19023 0.0
O548 O 0.06908 0.32633 0.20491 0.0
C549 C 0.0928 0.32245 0.18117 0.0
O550 O 0.09519 0.32706 0.20741 0.0
Co551 Co 0.10614 0.30584 0.19506 0.0
O552 O 0.11291 0.31972 0.20305 0.0
C553 C 0.08756 0.29603 0.21013 0.0
C554 C 0.0628 0.32037 0.19752 0.0
C555 C 0.10643 0.32712 0.20832 0.0
O556 O 0.08166 0.3056 0.20918 0.0
O557 O 0.09698 0.29408 0.20438 0.0
O558 O 0.08538 0.33021 0.18498 0.0
O559 O 0.09299 0.31269 0.18685 0.0
Co560 Co 0.80279 0.68059 0.91765 0.0
O561 O 0.8104 0.68566 0.93184 0.0
O562 O 0.79536 0.67343 0.93103 0.0
C563 C 0.81922 0.67677 0.90735 0.0
O564 O 0.79288 0.67297 0.90493 0.0
Co565 Co 0.80587 0.69378 0.89406 0.0
O566 O 0.79822 0.67973 0.88724 0.0
C567 C 0.79064 0.70375 0.91249 0.0
C568 C 0.8029 0.67913 0.93738 0.0
C569 C 0.79243 0.67268 0.89368 0.0
O570 O 0.79166 0.6943 0.91856 0.0
O571 O 0.79633 0.70556 0.90299 0.0
O572 O 0.81523 0.6691 0.91476 0.0
O573 O 0.81383 0.68669 0.90723 0.0
Co574 Co 0.80319 0.32105 0.08241 0.0
O575 O 0.81056 0.31594 0.06814 0.0
O576 O 0.79582 0.32851 0.06914 0.0
C577 C 0.81979 0.3244 0.09262 0.0
O578 O 0.79362 0.32872 0.09532 0.0
Co579 Co 0.80621 0.30713 0.10559 0.0
O580 O 0.79784 0.32063 0.11276 0.0
C581 C 0.79148 0.29765 0.08671 0.0
C582 C 0.80317 0.32266 0.0627 0.0
C583 C 0.79261 0.3283 0.10654 0.0
O584 O 0.79175 0.30761 0.08145 0.0
O585 O 0.79768 0.29528 0.09575 0.0
O586 O 0.8159 0.33223 0.08533 0.0
O587 O 0.8142 0.31458 0.09264 0.0
Co588 Co 0.68052 0.80249 0.08293 0.0
O589 O 0.68554 0.81011 0.06873 0.0
O590 O 0.6731 0.79525 0.06959 0.0
C591 C 0.67703 0.81888 0.09342 0.0
O592 O 0.67289 0.79265 0.09571 0.0
Co593 Co 0.69423 0.80523 0.10627 0.0
O594 O 0.68051 0.79716 0.11328 0.0
C595 C 0.70377 0.79026 0.08748 0.0
C596 C 0.67883 0.80275 0.06323 0.0
C597 C 0.67304 0.79179 0.10695 0.0
O598 O 0.69409 0.79118 0.08176 0.0
O599 O 0.70587 0.796 0.09689 0.0
O600 O 0.66925 0.81506 0.08604 0.0
O601 O 0.6869 0.81338 0.09335 0.0
Co602 Co 0.1968 0.67978 0.08291 0.0
O603 O 0.18947 0.68494 0.06862 0.0
O604 O 0.20419 0.67235 0.06963 0.0
C605 C 0.18012 0.67644 0.093 0.0
O606 O 0.20636 0.67203 0.09583 0.0
Co607 Co 0.19364 0.69336 0.10628 0.0
O608 O 0.2017 0.67966 0.11335 0.0
C609 C 0.20912 0.70286 0.08785 0.0
C610 C 0.19684 0.67819 0.06318 0.0
C611 C 0.20714 0.6722 0.10707 0.0
O612 O 0.20826 0.69324 0.08203 0.0
O613 O 0.20316 0.70495 0.09712 0.0
O614 O 0.18406 0.6686 0.08574 0.0
O615 O 0.18575 0.68623 0.09311 0.0
Co616 Co 0.31931 0.19685 0.08238 0.0
O617 O 0.31411 0.18924 0.06824 0.0
O618 O 0.32668 0.204 0.06896 0.0
C619 C 0.32275 0.18047 0.0929 0.0
O620 O 0.32713 0.20665 0.09507 0.0
Co621 Co 0.30573 0.19431 0.10581 0.0
O622 O 0.31955 0.2023 0.1127 0.0
C623 C 0.29618 0.20925 0.08702 0.0
C624 C 0.32081 0.19656 0.06265 0.0
C625 C 0.32704 0.20757 0.10631 0.0
O626 O 0.30584 0.20827 0.08127 0.0
O627 O 0.29408 0.20355 0.09645 0.0
O628 O 0.33051 0.18419 0.08544 0.0
O629 O 0.31292 0.18604 0.09288 0.0
Co630 Co 0.19693 0.32072 0.91797 0.0
O631 O 0.1893 0.31584 0.93218 0.0
O632 O 0.20405 0.3284 0.93124 0.0
C633 C 0.1806 0.32392 0.9073 0.0
O634 O 0.20674 0.32818 0.90511 0.0
Co635 Co 0.1944 0.30633 0.895 0.0
O636 O 0.2028 0.31977 0.88775 0.0
C637 C 0.20875 0.29725 0.91433 0.0
C638 C 0.1966 0.32264 0.93764 0.0
C639 C 0.2079 0.32757 0.89391 0.0
O640 O 0.20838 0.30732 0.91938 0.0
O641 O 0.20273 0.29468 0.90524 0.0
O642 O 0.18428 0.33184 0.9146 0.0
O643 O 0.18616 0.31409 0.90761 0.0
Co644 Co 0.68029 0.19681 0.91793 0.0
O645 O 0.68581 0.18951 0.9321 0.0
O646 O 0.67313 0.20417 0.93136 0.0
C647 C 0.67681 0.18011 0.90791 0.0
O648 O 0.67219 0.20633 0.9052 0.0
Co649 Co 0.69331 0.19375 0.89424 0.0
O650 O 0.67939 0.20169 0.88749 0.0
C651 C 0.70323 0.20918 0.91249 0.0
C652 C 0.67916 0.19686 0.93768 0.0
C653 C 0.67206 0.20709 0.89395 0.0
O654 O 0.69373 0.20832 0.91851 0.0
O655 O 0.70511 0.20324 0.90316 0.0
O656 O 0.66912 0.18402 0.91534 0.0
O657 O 0.68656 0.18579 0.90757 0.0
Co658 Co 0.32004 0.80183 0.91753 0.0
O659 O 0.31501 0.80924 0.93183 0.0
O660 O 0.32754 0.79447 0.93077 0.0
C661 C 0.32339 0.81843 0.90731 0.0
O662 O 0.32771 0.79219 0.90463 0.0
Co663 Co 0.30633 0.80479 0.89425 0.0
O664 O 0.31997 0.79672 0.88712 0.0
C665 C 0.2969 0.78946 0.91283 0.0
C666 C 0.32177 0.80186 0.93724 0.0
C667 C 0.32749 0.79135 0.89339 0.0
O668 O 0.30655 0.79043 0.91859 0.0
O669 O 0.29477 0.79527 0.90347 0.0
O670 O 0.33124 0.8145 0.91457 0.0
O671 O 0.31356 0.81285 0.90728 0.0
Co672 Co 0.58294 0.69731 0.81931 0.0
O673 O 0.56879 0.68978 0.81404 0.0
O674 O 0.56951 0.70464 0.82648 0.0
C675 C 0.59322 0.68082 0.82299 0.0
O676 O 0.59563 0.70709 0.82715 0.0
Co677 Co 0.60658 0.69438 0.80617 0.0
O678 O 0.61333 0.70166 0.82046 0.0
C679 C 0.58814 0.70962 0.79625 0.0
C680 C 0.5632 0.69719 0.82062 0.0
C681 C 0.60689 0.7074 0.82755 0.0
O682 O 0.58211 0.7086 0.80572 0.0
O683 O 0.59763 0.70392 0.7944 0.0
O684 O 0.58575 0.68472 0.83066 0.0
O685 O 0.5934 0.68633 0.81314 0.0
Co686 Co 0.30249 0.58277 0.81963 0.0
O687 O 0.30991 0.56855 0.81439 0.0
O688 O 0.29517 0.56941 0.82696 0.0
C689 C 0.3191 0.59295 0.82306 0.0
O690 O 0.29286 0.59556 0.8275 0.0
Co691 Co 0.30542 0.60627 0.80626 0.0
O692 O 0.29748 0.61319 0.82009 0.0
C693 C 0.29019 0.58776 0.79655 0.0
C694 C 0.30255 0.56304 0.82108 0.0
C695 C 0.29208 0.60681 0.8275 0.0
O696 O 0.29108 0.58189 0.80614 0.0
O697 O 0.29601 0.59713 0.79455 0.0
O698 O 0.3152 0.58559 0.83083 0.0
O699 O 0.31348 0.59311 0.81326 0.0
Co700 Co 0.4181 0.30359 0.82061 0.0
O701 O 0.43224 0.31098 0.8151 0.0
O702 O 0.43156 0.29622 0.82767 0.0
C703 C 0.40797 0.32018 0.82429 0.0
O704 O 0.40546 0.29394 0.82869 0.0
Co705 Co 0.39423 0.30663 0.80787 0.0
O706 O 0.38767 0.29937 0.82225 0.0
C707 C 0.41233 0.29103 0.79782 0.0
C708 C 0.43785 0.30359 0.8217 0.0
C709 C 0.39421 0.29364 0.82926 0.0
O710 O 0.41863 0.29216 0.80711 0.0
O711 O 0.40286 0.2968 0.79612 0.0
O712 O 0.41552 0.3163 0.83189 0.0
O713 O 0.40763 0.31458 0.81449 0.0
Co714 Co 0.69777 0.41754 0.81959 0.0
O715 O 0.69046 0.4318 0.81431 0.0
O716 O 0.7051 0.43085 0.82699 0.0
C717 C 0.68114 0.40736 0.82294 0.0
O718 O 0.70729 0.40468 0.8275 0.0
Co719 Co 0.69479 0.39408 0.80612 0.0
O720 O 0.70263 0.38711 0.81998 0.0
C721 C 0.71047 0.41238 0.79671 0.0
C722 C 0.6978 0.43727 0.82107 0.0
C723 C 0.70802 0.39343 0.82744 0.0
O724 O 0.70933 0.41835 0.80622 0.0
O725 O 0.70463 0.40303 0.79464 0.0
O726 O 0.68498 0.41475 0.83071 0.0
O727 O 0.68679 0.40724 0.81316 0.0
Co728 Co 0.58246 0.30261 0.18038 0.0
O729 O 0.56828 0.30991 0.18591 0.0
O730 O 0.56906 0.29536 0.17311 0.0
C731 C 0.59257 0.31927 0.17704 0.0
O732 O 0.5951 0.29312 0.17216 0.0
Co733 Co 0.6062 0.30529 0.19331 0.0
O734 O 0.6129 0.29747 0.1793 0.0
C735 C 0.58789 0.28986 0.20313 0.0
C736 C 0.56272 0.30263 0.17915 0.0
C737 C 0.60633 0.29225 0.17193 0.0
O738 O 0.5818 0.29099 0.1937 0.0
O739 O 0.59734 0.29561 0.20501 0.0
O740 O 0.5851 0.31548 0.16933 0.0
O741 O 0.5929 0.31351 0.18675 0.0
Co742 Co 0.69715 0.58258 0.18066 0.0
O743 O 0.68962 0.56845 0.186 0.0
O744 O 0.70433 0.56913 0.17337 0.0
C745 C 0.68071 0.593 0.1772 0.0
O746 O 0.70688 0.59525 0.17271 0.0
Co747 Co 0.69452 0.60614 0.19402 0.0
O748 O 0.70242 0.61293 0.1801 0.0
C749 C 0.70976 0.58759 0.20362 0.0
C750 C 0.69692 0.56284 0.17931 0.0
C751 C 0.70773 0.60649 0.17268 0.0
O752 O 0.70863 0.58165 0.1941 0.0
O753 O 0.70407 0.59704 0.20563 0.0
O754 O 0.68444 0.5855 0.16948 0.0
O755 O 0.68632 0.59309 0.187 0.0
Co756 Co 0.41715 0.69751 0.18054 0.0
O757 O 0.43134 0.68989 0.1856 0.0
O758 O 0.4305 0.70457 0.17296 0.0
C759 C 0.40656 0.68112 0.17732 0.0
O760 O 0.40441 0.70732 0.1728 0.0
Co761 Co 0.39381 0.69511 0.1943 0.0
O762 O 0.38682 0.70302 0.18048 0.0
C763 C 0.41267 0.71019 0.20356 0.0
C764 C 0.43686 0.69712 0.17877 0.0
C765 C 0.39318 0.70826 0.17295 0.0
O766 O 0.41843 0.70901 0.19393 0.0
O767 O 0.40321 0.70457 0.20574 0.0
O768 O 0.41393 0.6848 0.16945 0.0
O769 O 0.40668 0.68676 0.18711 0.0
Co770 Co 0.30267 0.41669 0.18037 0.0
O771 O 0.31001 0.4311 0.1852 0.0
O772 O 0.29525 0.42978 0.17267 0.0
C773 C 0.31934 0.40656 0.17717 0.0
O774 O 0.29312 0.40365 0.17286 0.0
Co775 Co 0.30578 0.39356 0.1943 0.0
O776 O 0.29783 0.38623 0.18069 0.0
C777 C 0.29025 0.41211 0.2035 0.0
C778 C 0.30262 0.43637 0.17833 0.0
C779 C 0.29239 0.3924 0.17315 0.0
O780 O 0.29126 0.41784 0.19384 0.0
O781 O 0.29609 0.40279 0.2057 0.0
O782 O 0.31536 0.41367 0.16922 0.0
O783 O 0.31375 0.4066 0.18699 0.0
Co784 Co 0.82029 0.58277 0.69746 0.0
O785 O 0.81501 0.56853 0.69012 0.0
O786 O 0.82773 0.56945 0.70473 0.0
C787 C 0.82355 0.5929 0.68079 0.0
O788 O 0.82823 0.59559 0.70699 0.0
Co789 Co 0.80689 0.60626 0.69458 0.0
O790 O 0.82076 0.61321 0.70243 0.0
C791 C 0.79739 0.58785 0.7101 0.0
C792 C 0.82181 0.56304 0.69741 0.0
C793 C 0.82821 0.60684 0.70777 0.0
O794 O 0.80692 0.58191 0.70901 0.0
O795 O 0.79535 0.59723 0.70429 0.0
O796 O 0.83137 0.58558 0.68464 0.0
O797 O 0.8138 0.59307 0.6865 0.0
Co798 Co 0.41729 0.82019 0.69782 0.0
O799 O 0.43144 0.81506 0.6902 0.0
O800 O 0.4307 0.82762 0.70496 0.0
C801 C 0.40686 0.82353 0.68135 0.0
O802 O 0.40457 0.82794 0.70763 0.0
Co803 Co 0.39389 0.80658 0.6952 0.0
O804 O 0.38696 0.82029 0.70333 0.0
C805 C 0.4127 0.79704 0.71017 0.0
C806 C 0.43701 0.82178 0.6975 0.0
C807 C 0.39333 0.82777 0.70862 0.0
O808 O 0.41844 0.80671 0.70922 0.0
O809 O 0.40329 0.79494 0.70444 0.0
O810 O 0.4142 0.83137 0.68515 0.0
O811 O 0.40686 0.81374 0.68697 0.0
Co812 Co 0.18112 0.41687 0.69787 0.0
O813 O 0.18673 0.43098 0.6905 0.0
O814 O 0.17378 0.43035 0.70494 0.0
C815 C 0.17795 0.40666 0.68123 0.0
O816 O 0.17284 0.40426 0.70738 0.0
Co817 Co 0.19417 0.39316 0.69542 0.0
O818 O 0.18001 0.38648 0.70298 0.0
C819 C 0.20375 0.41155 0.71089 0.0
C820 C 0.1799 0.43661 0.69765 0.0
C821 C 0.1726 0.39301 0.70819 0.0
O822 O 0.19433 0.41763 0.70961 0.0
O823 O 0.20572 0.40208 0.70522 0.0
O824 O 0.17019 0.41414 0.68492 0.0
O825 O 0.18761 0.40638 0.68709 0.0
Co826 Co 0.58256 0.17977 0.69744 0.0
O827 O 0.56846 0.18529 0.68998 0.0
O828 O 0.56905 0.17257 0.70461 0.0
C829 C 0.59281 0.17635 0.68088 0.0
O830 O 0.59518 0.17167 0.70709 0.0
Co831 Co 0.60622 0.1929 0.69477 0.0
O832 O 0.61292 0.17893 0.70266 0.0
C833 C 0.58781 0.20263 0.71011 0.0
C834 C 0.56281 0.17862 0.69726 0.0
C835 C 0.60642 0.17156 0.70796 0.0
O836 O 0.58178 0.19316 0.70898 0.0
O837 O 0.59726 0.20457 0.70439 0.0
O838 O 0.58532 0.16865 0.68466 0.0
O839 O 0.59305 0.1861 0.68658 0.0
Co840 Co 0.81969 0.41761 0.30251 0.0
O841 O 0.81454 0.43174 0.3102 0.0
O842 O 0.82691 0.43106 0.29526 0.0
C843 C 0.82338 0.40715 0.31889 0.0
O844 O 0.82739 0.40498 0.29256 0.0
Co845 Co 0.80645 0.394 0.30528 0.0
O846 O 0.82054 0.38724 0.29763 0.0
C847 C 0.79656 0.41263 0.29026 0.0
C848 C 0.82113 0.43734 0.3028 0.0
C849 C 0.82765 0.39373 0.29198 0.0
O850 O 0.80606 0.41862 0.29129 0.0
O851 O 0.79469 0.40311 0.2959 0.0
O852 O 0.83107 0.41461 0.31503 0.0
O853 O 0.8135 0.40709 0.31341 0.0
Co854 Co 0.58307 0.82012 0.30209 0.0
O855 O 0.56886 0.81492 0.30957 0.0
O856 O 0.56973 0.82755 0.29487 0.0
C857 C 0.59336 0.82345 0.31864 0.0
O858 O 0.59583 0.82797 0.29242 0.0
Co859 Co 0.60653 0.80666 0.30479 0.0
O860 O 0.61347 0.82053 0.29695 0.0
C861 C 0.58794 0.79712 0.28954 0.0
C862 C 0.56336 0.8217 0.30227 0.0
C863 C 0.60707 0.82797 0.29161 0.0
O864 O 0.58206 0.80669 0.29062 0.0
O865 O 0.59737 0.79507 0.29525 0.0
O866 O 0.58601 0.83126 0.31481 0.0
O867 O 0.59345 0.81366 0.31299 0.0
Co868 Co 0.18107 0.58309 0.30284 0.0
O869 O 0.18708 0.56897 0.3099 0.0
O870 O 0.17388 0.56958 0.29571 0.0
C871 C 0.178 0.59299 0.31969 0.0
O872 O 0.17231 0.59562 0.29361 0.0
Co873 Co 0.19328 0.60725 0.30537 0.0
O874 O 0.1787 0.61357 0.29841 0.0
C875 C 0.20276 0.58971 0.2888 0.0
C876 C 0.18022 0.56332 0.30279 0.0
C877 C 0.17156 0.60685 0.29309 0.0
O878 O 0.19411 0.58278 0.29087 0.0
O879 O 0.20428 0.59946 0.29413 0.0
O880 O 0.17032 0.58541 0.31602 0.0
O881 O 0.18752 0.59362 0.31364 0.0
Co882 Co 0.41742 0.17944 0.30243 0.0
O883 O 0.43162 0.18434 0.31012 0.0
O884 O 0.43075 0.17194 0.29523 0.0
C885 C 0.40685 0.176 0.31878 0.0
O886 O 0.40462 0.17195 0.29252 0.0
Co887 Co 0.39423 0.1934 0.30515 0.0
O888 O 0.38713 0.17987 0.29686 0.0
C889 C 0.41317 0.20278 0.29028 0.0
C890 C 0.43712 0.17764 0.30276 0.0
C891 C 0.39339 0.17231 0.29153 0.0
O892 O 0.41876 0.19302 0.29116 0.0
O893 O 0.40379 0.20499 0.29602 0.0
O894 O 0.41417 0.16815 0.31496 0.0
O895 O 0.40703 0.18588 0.31331 0.0
Co896 Co 0.69731 0.81988 0.58261 0.0
O897 O 0.68964 0.81465 0.56852 0.0
O898 O 0.70451 0.82709 0.56914 0.0
C899 C 0.68095 0.82354 0.5931 0.0
O900 O 0.70718 0.82772 0.59523 0.0
Co901 Co 0.69466 0.80655 0.60618 0.0
O902 O 0.70273 0.82039 0.61294 0.0
C903 C 0.70955 0.79671 0.58748 0.0
C904 C 0.697 0.82125 0.56288 0.0
C905 C 0.70809 0.82775 0.60647 0.0
O906 O 0.70861 0.8063 0.58162 0.0
O907 O 0.70386 0.79476 0.59694 0.0
O908 O 0.68475 0.83121 0.58558 0.0
O909 O 0.68645 0.81367 0.59317 0.0
Co910 Co 0.69689 0.18078 0.41768 0.0
O911 O 0.68929 0.18587 0.43186 0.0
O912 O 0.70433 0.17364 0.43107 0.0
C913 C 0.68045 0.17692 0.40737 0.0
O914 O 0.7068 0.17316 0.40495 0.0
Co915 Co 0.69378 0.19399 0.3941 0.0
O916 O 0.70144 0.17994 0.38727 0.0
C917 C 0.70894 0.204 0.41256 0.0
C918 C 0.69679 0.17936 0.43741 0.0
C919 C 0.70723 0.17288 0.3937 0.0
O920 O 0.708 0.19451 0.41857 0.0
O921 O 0.70322 0.20582 0.40308 0.0
O922 O 0.68446 0.16927 0.4148 0.0
O923 O 0.68583 0.18686 0.40725 0.0
Co924 Co 0.82001 0.69783 0.41765 0.0
O925 O 0.81475 0.69038 0.43184 0.0
O926 O 0.82742 0.70504 0.43102 0.0
C927 C 0.82328 0.68125 0.40738 0.0
O928 O 0.8279 0.70747 0.40489 0.0
Co929 Co 0.80654 0.69514 0.39419 0.0
O930 O 0.82038 0.70306 0.38726 0.0
C931 C 0.79698 0.7103 0.41283 0.0
C932 C 0.82149 0.69768 0.43737 0.0
C933 C 0.82785 0.70834 0.39365 0.0
O934 O 0.80661 0.70933 0.41862 0.0
O935 O 0.7949 0.70453 0.40344 0.0
O936 O 0.83111 0.68506 0.41472 0.0
O937 O 0.81353 0.68694 0.40727 0.0
Co938 Co 0.30335 0.8201 0.41768 0.0
O939 O 0.31077 0.81488 0.43191 0.0
O940 O 0.29611 0.82756 0.43102 0.0
C941 C 0.31993 0.82338 0.40742 0.0
O942 O 0.29374 0.82795 0.40487 0.0
Co943 Co 0.30612 0.80651 0.39429 0.0
O944 O 0.2982 0.82032 0.38729 0.0
C945 C 0.29083 0.79708 0.41289 0.0
C946 C 0.30345 0.82165 0.43741 0.0
C947 C 0.2929 0.82783 0.39363 0.0
O948 O 0.29184 0.8067 0.41867 0.0
O949 O 0.29663 0.79495 0.40352 0.0
O950 O 0.31611 0.83121 0.41476 0.0
O951 O 0.31426 0.8136 0.40735 0.0
Co952 Co 0.17992 0.30272 0.417 0.0
O953 O 0.1852 0.31021 0.43116 0.0
O954 O 0.17261 0.29548 0.43041 0.0
C955 C 0.1765 0.31931 0.40678 0.0
O956 O 0.17203 0.293 0.4043 0.0
Co957 Co 0.19308 0.30551 0.39338 0.0
O958 O 0.1788 0.29827 0.38659 0.0
C959 C 0.20287 0.29024 0.41188 0.0
C960 C 0.1785 0.3029 0.43673 0.0
C961 C 0.17166 0.29262 0.39304 0.0
O962 O 0.19339 0.29131 0.41789 0.0
O963 O 0.20477 0.29593 0.40239 0.0
O964 O 0.16873 0.31543 0.41415 0.0
O965 O 0.18628 0.31364 0.40659 0.0
Co966 Co 0.30242 0.17991 0.58261 0.0
O967 O 0.30985 0.18549 0.56851 0.0
O968 O 0.29546 0.17249 0.56911 0.0
C969 C 0.31901 0.17686 0.59293 0.0
O970 O 0.29286 0.17165 0.59519 0.0
Co971 Co 0.30467 0.19307 0.60627 0.0
O972 O 0.29702 0.17897 0.61296 0.0
C973 C 0.28932 0.20253 0.58771 0.0
C974 C 0.30275 0.17862 0.56287 0.0
C975 C 0.29192 0.1715 0.60642 0.0
O976 O 0.29064 0.19307 0.58171 0.0
O977 O 0.29493 0.20457 0.59721 0.0
O978 O 0.31541 0.16905 0.58547 0.0
O979 O 0.31311 0.18649 0.59313 0.0
Co980 Co 0.81993 0.30211 0.58261 0.0
O981 O 0.8144 0.30961 0.56855 0.0
O982 O 0.82711 0.29496 0.56906 0.0
C983 C 0.82339 0.31866 0.59286 0.0
O984 O 0.82806 0.29243 0.59519 0.0
Co985 Co 0.80686 0.30472 0.60629 0.0
O986 O 0.82089 0.2969 0.61296 0.0
C987 C 0.79704 0.28952 0.58782 0.0
C988 C 0.82106 0.30235 0.56285 0.0
C989 C 0.82823 0.2916 0.60644 0.0
O990 O 0.80653 0.29059 0.58183 0.0
O991 O 0.79511 0.29524 0.59727 0.0
O992 O 0.83107 0.31487 0.58536 0.0
O993 O 0.81363 0.31296 0.59313 0.0
Co994 Co 0.18021 0.69685 0.58244 0.0
O995 O 0.18525 0.68924 0.56825 0.0
O996 O 0.17288 0.70416 0.56909 0.0
C997 C 0.17658 0.68046 0.59289 0.0
O998 O 0.17258 0.70671 0.59519 0.0
Co999 Co 0.19378 0.694 0.60584 0.0
O1000 O 0.18004 0.70207 0.6128 0.0
C1001 C 0.20345 0.70903 0.58716 0.0
C1002 C 0.17863 0.69666 0.56273 0.0
C1003 C 0.17266 0.70753 0.60644 0.0
O1004 O 0.19382 0.7081 0.58136 0.0
O1005 O 0.20549 0.70329 0.59658 0.0
O1006 O 0.16885 0.68433 0.58547 0.0
O1007 O 0.18648 0.6859 0.59288 0.0
Co1008 Co 0.41708 0.30155 0.18015 0.0
O1009 O 0.43119 0.30906 0.18554 0.0
O1010 O 0.43055 0.29445 0.1728 0.0
C1011 C 0.40676 0.31808 0.17686 0.0
O1012 O 0.40441 0.29188 0.17214 0.0
Co1013 Co 0.39356 0.30408 0.19354 0.0
O1014 O 0.38674 0.29632 0.17956 0.0
C1015 C 0.41218 0.28888 0.20306 0.0
C1016 C 0.43681 0.30183 0.1788 0.0
C1017 C 0.39317 0.29105 0.17211 0.0
O1018 O 0.41805 0.29 0.1935 0.0
O1019 O 0.40273 0.29455 0.20513 0.0
O1020 O 0.41418 0.31434 0.16907 0.0
O1021 O 0.40662 0.31237 0.1866 0.0
Co1022 Co 0.69733 0.41713 0.18017 0.0
O1023 O 0.68989 0.43127 0.18558 0.0
O1024 O 0.70451 0.43057 0.17286 0.0
C1025 C 0.68072 0.40692 0.17684 0.0
O1026 O 0.70696 0.40444 0.17214 0.0
Co1027 Co 0.69464 0.39351 0.19336 0.0
O1028 O 0.70247 0.38672 0.17941 0.0
C1029 C 0.70998 0.41197 0.20304 0.0
C1030 C 0.69716 0.43687 0.17884 0.0
C1031 C 0.7078 0.3932 0.17204 0.0
O1032 O 0.70886 0.41797 0.19355 0.0
O1033 O 0.70426 0.40252 0.20499 0.0
O1034 O 0.68453 0.41432 0.16907 0.0
O1035 O 0.68644 0.4067 0.18658 0.0
Co1036 Co 0.58247 0.69747 0.18012 0.0
O1037 O 0.56824 0.68988 0.1851 0.0
O1038 O 0.56915 0.70475 0.17267 0.0
C1039 C 0.59292 0.68105 0.17664 0.0
O1040 O 0.59529 0.70729 0.17255 0.0
Co1041 Co 0.60573 0.69463 0.19393 0.0
O1042 O 0.61281 0.70277 0.18029 0.0
C1043 C 0.58697 0.70967 0.20339 0.0
C1044 C 0.56275 0.69726 0.1784 0.0
C1045 C 0.60653 0.70816 0.17279 0.0
O1046 O 0.58128 0.70877 0.19369 0.0
O1047 O 0.59634 0.7039 0.20554 0.0
O1048 O 0.58558 0.68491 0.16883 0.0
O1049 O 0.59283 0.68653 0.18652 0.0
Co1050 Co 0.30247 0.58172 0.17875 0.0
O1051 O 0.3101 0.5674 0.18335 0.0
O1052 O 0.29539 0.56861 0.17076 0.0
C1053 C 0.31883 0.59244 0.17586 0.0
O1054 O 0.29268 0.59475 0.17157 0.0
Co1055 Co 0.30498 0.60433 0.19371 0.0
O1056 O 0.29655 0.61188 0.18046 0.0
C1057 C 0.29053 0.58482 0.20224 0.0
C1058 C 0.30283 0.56208 0.1764 0.0
C1059 C 0.29148 0.60592 0.17249 0.0
O1060 O 0.29097 0.58 0.19207 0.0
O1061 O 0.29653 0.59385 0.20507 0.0
O1062 O 0.31516 0.58533 0.16776 0.0
O1063 O 0.31324 0.59191 0.18567 0.0
Co1064 Co 0.41754 0.69716 0.81951 0.0
O1065 O 0.43175 0.68978 0.81423 0.0
O1066 O 0.43089 0.70441 0.82694 0.0
C1067 C 0.40735 0.68053 0.82277 0.0
O1068 O 0.40473 0.70674 0.82741 0.0
Co1069 Co 0.39411 0.69436 0.80601 0.0
O1070 O 0.38714 0.70217 0.81989 0.0
C1071 C 0.41258 0.70984 0.79659 0.0
C1072 C 0.43727 0.69708 0.82099 0.0
C1073 C 0.39348 0.70751 0.82736 0.0
O1074 O 0.41846 0.70871 0.80614 0.0
O1075 O 0.40318 0.70408 0.79449 0.0
O1076 O 0.41468 0.68437 0.8306 0.0
O1077 O 0.40722 0.68623 0.81301 0.0
Co1078 Co 0.30292 0.41737 0.82101 0.0
O1079 O 0.31046 0.43155 0.81585 0.0
O1080 O 0.29555 0.43076 0.82822 0.0
C1081 C 0.31939 0.40706 0.82472 0.0
O1082 O 0.29313 0.40461 0.82873 0.0
Co1083 Co 0.30592 0.3939 0.80759 0.0
O1084 O 0.29784 0.38699 0.82134 0.0
C1085 C 0.29076 0.41242 0.7978 0.0
C1086 C 0.30302 0.4371 0.82243 0.0
C1087 C 0.29236 0.39336 0.82869 0.0
O1088 O 0.29167 0.41829 0.80738 0.0
O1089 O 0.29657 0.40302 0.79582 0.0
O1090 O 0.31545 0.4145 0.83239 0.0
O1091 O 0.31394 0.40696 0.81482 0.0
Co1092 Co 0.58354 0.3022 0.81982 0.0
O1093 O 0.56951 0.30986 0.81444 0.0
O1094 O 0.57001 0.29519 0.82712 0.0
C1095 C 0.5941 0.31857 0.82323 0.0
O1096 O 0.5961 0.29237 0.82783 0.0
Co1097 Co 0.60713 0.30451 0.80649 0.0
O1098 O 0.61383 0.29657 0.82043 0.0
C1099 C 0.58835 0.28961 0.79684 0.0
C1100 C 0.56381 0.30265 0.82114 0.0
C1101 C 0.60733 0.29138 0.82788 0.0
O1102 O 0.5825 0.2907 0.80642 0.0
O1103 O 0.59784 0.29523 0.7948 0.0
O1104 O 0.58656 0.31492 0.83095 0.0
O1105 O 0.59417 0.3129 0.81345 0.0
Co1106 Co 0.69779 0.58291 0.81993 0.0
O1107 O 0.69029 0.56873 0.8147 0.0
O1108 O 0.70506 0.56952 0.82724 0.0
C1109 C 0.68128 0.59323 0.82342 0.0
O1110 O 0.70752 0.59565 0.82775 0.0
Co1111 Co 0.69496 0.60647 0.80661 0.0
O1112 O 0.7021 0.61331 0.82092 0.0
C1113 C 0.71029 0.58798 0.79694 0.0
C1114 C 0.69763 0.56318 0.82139 0.0
C1115 C 0.70779 0.60692 0.82809 0.0
O1116 O 0.70919 0.58199 0.80644 0.0
O1117 O 0.7046 0.59745 0.79498 0.0
O1118 O 0.68512 0.5858 0.83116 0.0
O1119 O 0.68687 0.59334 0.8136 0.0
Co1120 Co 0.17998 0.41758 0.30245 0.0
O1121 O 0.18552 0.43163 0.30996 0.0
O1122 O 0.17281 0.43114 0.29532 0.0
C1123 C 0.17652 0.40729 0.31899 0.0
O1124 O 0.17187 0.40497 0.29277 0.0
Co1125 Co 0.19317 0.39395 0.3051 0.0
O1126 O 0.17919 0.38726 0.29723 0.0
C1127 C 0.20293 0.41246 0.28993 0.0
C1128 C 0.17888 0.43734 0.3027 0.0
C1129 C 0.17178 0.39373 0.29193 0.0
O1130 O 0.19338 0.41838 0.29094 0.0
O1131 O 0.20491 0.40304 0.29569 0.0
O1132 O 0.16883 0.41481 0.31522 0.0
O1133 O 0.18628 0.40707 0.3133 0.0
Co1134 Co 0.58274 0.18012 0.30279 0.0
O1135 O 0.56851 0.18511 0.31038 0.0
O1136 O 0.56941 0.17284 0.29538 0.0
C1137 C 0.59308 0.17642 0.31923 0.0
O1138 O 0.59553 0.17259 0.29291 0.0
Co1139 Co 0.6062 0.19356 0.30585 0.0
O1140 O 0.61315 0.17954 0.29826 0.0
C1141 C 0.58765 0.20335 0.29066 0.0
C1142 C 0.56302 0.17853 0.3029 0.0
C1143 C 0.60679 0.17241 0.29248 0.0
O1144 O 0.58172 0.19381 0.29163 0.0
O1145 O 0.59711 0.20528 0.29638 0.0
O1146 O 0.58572 0.16869 0.31526 0.0
O1147 O 0.59311 0.18633 0.31382 0.0
Co1148 Co 0.81978 0.583 0.30288 0.0
O1149 O 0.81449 0.56885 0.31041 0.0
O1150 O 0.82713 0.56957 0.29571 0.0
C1151 C 0.82316 0.59333 0.3194 0.0
O1152 O 0.82769 0.5957 0.29317 0.0
Co1153 Co 0.80636 0.60649 0.30553 0.0
O1154 O 0.82024 0.61335 0.29761 0.0
C1155 C 0.79675 0.58786 0.29039 0.0
C1156 C 0.82123 0.56327 0.30313 0.0
C1157 C 0.82768 0.60694 0.29231 0.0
O1158 O 0.80634 0.58201 0.29141 0.0
O1159 O 0.79471 0.59729 0.29612 0.0
O1160 O 0.83093 0.58593 0.31559 0.0
O1161 O 0.81337 0.59344 0.31375 0.0
Co1162 Co 0.4178 0.82016 0.30246 0.0
O1163 O 0.43208 0.81509 0.30988 0.0
O1164 O 0.43106 0.8277 0.29518 0.0
C1165 C 0.40756 0.82339 0.31906 0.0
O1166 O 0.40493 0.82787 0.29282 0.0
Co1167 Co 0.3945 0.80647 0.30526 0.0
O1168 O 0.38739 0.82026 0.29741 0.0
C1169 C 0.41318 0.79706 0.29006 0.0
C1170 C 0.43751 0.82189 0.30254 0.0
C1171 C 0.39369 0.82775 0.29204 0.0
O1172 O 0.4189 0.80673 0.29101 0.0
O1173 O 0.40382 0.7949 0.29585 0.0
O1174 O 0.4148 0.83128 0.31519 0.0
O1175 O 0.40754 0.81361 0.31341 0.0
Co1176 Co 0.18032 0.5823 0.69708 0.0
O1177 O 0.18564 0.56817 0.68953 0.0
O1178 O 0.1732 0.56885 0.7044 0.0
C1179 C 0.17661 0.59259 0.68059 0.0
O1180 O 0.17246 0.59495 0.7069 0.0
Co1181 Co 0.19334 0.60601 0.69416 0.0
O1182 O 0.17913 0.6127 0.70165 0.0
C1183 C 0.20329 0.58766 0.7095 0.0
C1184 C 0.17908 0.56256 0.69694 0.0
C1185 C 0.17207 0.6062 0.70735 0.0
O1186 O 0.19391 0.58151 0.70837 0.0
O1187 O 0.20508 0.59718 0.70384 0.0
O1188 O 0.16896 0.5851 0.68449 0.0
O1189 O 0.18646 0.5928 0.68611 0.0
Co1190 Co 0.4171 0.18074 0.6976 0.0
O1191 O 0.43128 0.18626 0.69029 0.0
O1192 O 0.43053 0.17348 0.70486 0.0
C1193 C 0.40701 0.17739 0.68092 0.0
O1194 O 0.40441 0.17259 0.70712 0.0
Co1195 Co 0.3934 0.19378 0.69475 0.0
O1196 O 0.38667 0.17985 0.70269 0.0
C1197 C 0.41166 0.20352 0.71029 0.0
C1198 C 0.43685 0.17951 0.69756 0.0
C1199 C 0.39317 0.17248 0.70799 0.0
O1200 O 0.41775 0.19408 0.70921 0.0
O1201 O 0.40228 0.20543 0.70445 0.0
O1202 O 0.41446 0.16967 0.68473 0.0
O1203 O 0.4067 0.18711 0.68667 0.0
Co1204 Co 0.82035 0.41743 0.69661 0.0
O1205 O 0.81503 0.43179 0.68951 0.0
O1206 O 0.82785 0.43065 0.70403 0.0
C1207 C 0.82348 0.40752 0.67979 0.0
O1208 O 0.82831 0.40447 0.70592 0.0
Co1209 Co 0.8069 0.394 0.69349 0.0
O1210 O 0.82083 0.38693 0.70111 0.0
C1211 C 0.79761 0.41213 0.70946 0.0
C1212 C 0.82188 0.43716 0.69685 0.0
C1213 C 0.82829 0.39321 0.70653 0.0
O1214 O 0.80708 0.41815 0.70828 0.0
O1215 O 0.79552 0.40282 0.70357 0.0
O1216 O 0.83134 0.41478 0.68368 0.0
O1217 O 0.81377 0.4073 0.68556 0.0
Co1218 Co 0.58271 0.81995 0.6972 0.0
O1219 O 0.56854 0.81471 0.68966 0.0
O1220 O 0.56929 0.82714 0.70454 0.0
C1221 C 0.59302 0.82363 0.68073 0.0
O1222 O 0.59541 0.82777 0.70698 0.0
Co1223 Co 0.60628 0.80668 0.69427 0.0
O1224 O 0.61308 0.82046 0.70238 0.0
C1225 C 0.58781 0.79682 0.70946 0.0
C1226 C 0.56297 0.82131 0.69707 0.0
C1227 C 0.60665 0.82779 0.70782 0.0
O1228 O 0.58184 0.80634 0.70849 0.0
O1229 O 0.59725 0.79492 0.7037 0.0
O1230 O 0.58555 0.8313 0.68462 0.0
O1231 O 0.59316 0.81376 0.68622 0.0
Co1232 Co 0.30264 0.18071 0.41722 0.0
O1233 O 0.31018 0.18592 0.4314 0.0
O1234 O 0.29539 0.17338 0.43061 0.0
C1235 C 0.31909 0.17718 0.40683 0.0
O1236 O 0.29289 0.17288 0.40451 0.0
Co1237 Co 0.3054 0.19412 0.39371 0.0
O1238 O 0.2974 0.1803 0.38685 0.0
C1239 C 0.29017 0.20375 0.41226 0.0
C1240 C 0.30283 0.17923 0.43694 0.0
C1241 C 0.29204 0.1729 0.39327 0.0
O1242 O 0.29125 0.19422 0.41819 0.0
O1243 O 0.29588 0.20575 0.40282 0.0
O1244 O 0.31528 0.16946 0.41429 0.0
O1245 O 0.31354 0.18702 0.40676 0.0
Co1246 Co 0.30233 0.81944 0.58306 0.0
O1247 O 0.30978 0.81403 0.56892 0.0
O1248 O 0.29518 0.82678 0.56962 0.0
C1249 C 0.31891 0.82275 0.59333 0.0
O1250 O 0.2927 0.8275 0.59572 0.0
Co1251 Co 0.3049 0.80622 0.60667 0.0
O1252 O 0.29704 0.82017 0.61345 0.0
C1253 C 0.28965 0.79657 0.58814 0.0
C1254 C 0.30253 0.82078 0.56333 0.0
C1255 C 0.2918 0.82758 0.60696 0.0
O1256 O 0.29077 0.80608 0.58218 0.0
O1257 O 0.29535 0.79458 0.5976 0.0
O1258 O 0.31514 0.83052 0.5859 0.0
O1259 O 0.31318 0.81301 0.59352 0.0
Co1260 Co 0.18018 0.30258 0.58234 0.0
O1261 O 0.18548 0.31002 0.56815 0.0
O1262 O 0.17265 0.29549 0.56898 0.0
C1263 C 0.17709 0.31915 0.59268 0.0
O1264 O 0.17222 0.29298 0.59509 0.0
Co1265 Co 0.19374 0.30507 0.60578 0.0
O1266 O 0.17984 0.29724 0.61271 0.0
C1267 C 0.20307 0.28982 0.58709 0.0
C1268 C 0.17863 0.3028 0.56262 0.0
C1269 C 0.1723 0.29206 0.60632 0.0
O1270 O 0.19346 0.29094 0.5813 0.0
O1271 O 0.20523 0.29554 0.59649 0.0
O1272 O 0.16922 0.31546 0.58533 0.0
O1273 O 0.1868 0.31337 0.59274 0.0
Co1274 Co 0.69768 0.17943 0.5831 0.0
O1275 O 0.69023 0.18496 0.569 0.0
O1276 O 0.70479 0.17216 0.56959 0.0
C1277 C 0.68109 0.17613 0.59334 0.0
O1278 O 0.7073 0.17127 0.5957 0.0
Co1279 Co 0.69514 0.19251 0.60679 0.0
O1280 O 0.70292 0.17847 0.61347 0.0
C1281 C 0.71047 0.20221 0.58833 0.0
C1282 C 0.69745 0.17822 0.56335 0.0
C1283 C 0.70817 0.1711 0.60694 0.0
O1284 O 0.70929 0.19276 0.58229 0.0
O1285 O 0.70478 0.20415 0.59781 0.0
O1286 O 0.68483 0.16838 0.58588 0.0
O1287 O 0.68686 0.18584 0.59359 0.0
Co1288 Co 0.81972 0.69767 0.583 0.0
O1289 O 0.81462 0.69024 0.56874 0.0
O1290 O 0.82709 0.70507 0.56971 0.0
C1291 C 0.82321 0.68107 0.59317 0.0
O1292 O 0.82742 0.70733 0.59586 0.0
Co1293 Co 0.8062 0.6946 0.60639 0.0
O1294 O 0.81996 0.70256 0.61342 0.0
C1295 C 0.79659 0.70997 0.58793 0.0
C1296 C 0.8213 0.69766 0.56328 0.0
C1297 C 0.82735 0.70805 0.60711 0.0
O1298 O 0.80617 0.709 0.58206 0.0
O1299 O 0.79457 0.70416 0.59731 0.0
O1300 O 0.831 0.68505 0.58587 0.0
O1301 O 0.81336 0.68661 0.59327 0.0
Co1302 Co 0.69755 0.82007 0.41721 0.0
O1303 O 0.69004 0.81477 0.43136 0.0
O1304 O 0.70468 0.82748 0.43063 0.0
C1305 C 0.68101 0.82335 0.40688 0.0
O1306 O 0.70724 0.82801 0.40451 0.0
Co1307 Co 0.69497 0.80665 0.39371 0.0
O1308 O 0.70283 0.82056 0.38684 0.0
C1309 C 0.71022 0.79715 0.41231 0.0
C1310 C 0.69729 0.82153 0.43694 0.0
C1311 C 0.70811 0.828 0.39327 0.0
O1312 O 0.70908 0.8067 0.41821 0.0
O1313 O 0.70454 0.79509 0.40286 0.0
O1314 O 0.68478 0.83116 0.41426 0.0
O1315 O 0.68671 0.8136 0.40678 0.0
Co1316 Co 0.18038 0.69825 0.41708 0.0
O1317 O 0.18588 0.69079 0.43118 0.0
O1318 O 0.17306 0.70533 0.43057 0.0
C1319 C 0.17713 0.68167 0.4068 0.0
O1320 O 0.17224 0.70786 0.40446 0.0
Co1321 Co 0.19356 0.69577 0.39344 0.0
O1322 O 0.17953 0.70351 0.38672 0.0
C1323 C 0.20317 0.71107 0.41196 0.0
C1324 C 0.17912 0.69799 0.43682 0.0
C1325 C 0.17211 0.70874 0.39322 0.0
O1326 O 0.19369 0.70988 0.41794 0.0
O1327 O 0.20516 0.7054 0.40249 0.0
O1328 O 0.16937 0.68539 0.41426 0.0
O1329 O 0.18683 0.68745 0.40659 0.0
Co1330 Co 0.81943 0.30302 0.41716 0.0
O1331 O 0.8141 0.31054 0.43131 0.0
O1332 O 0.82662 0.29574 0.4306 0.0
C1333 C 0.82307 0.31949 0.40683 0.0
O1334 O 0.82738 0.29327 0.40453 0.0
Co1335 Co 0.8063 0.30578 0.39351 0.0
O1336 O 0.82019 0.29776 0.38678 0.0
C1337 C 0.79641 0.29061 0.41197 0.0
C1338 C 0.82073 0.30317 0.4369 0.0
C1339 C 0.82751 0.2924 0.39329 0.0
O1340 O 0.80589 0.29164 0.41799 0.0
O1341 O 0.79453 0.29632 0.4025 0.0
O1342 O 0.83071 0.31565 0.41435 0.0
O1343 O 0.81322 0.31394 0.40665 0.0
H1344 H 0.09659 0.22701 0.33816 0.0
H1345 H 0.10676 0.24176 0.3499 0.0
H1346 H 0.13815 0.22076 0.34915 0.0
H1347 H 0.1282 0.20624 0.33698 0.0
H1348 H 0.11709 0.24233 0.37053 0.0
H1349 H 0.15047 0.25088 0.33646 0.0
H1350 H 0.1378 0.24187 0.33376 0.0
H1351 H 0.15047 0.23586 0.34099 0.0
C1352 C 0.10564 0.2255 0.34056 0.0
C1353 C 0.11165 0.21554 0.33651 0.0
C1354 C 0.11145 0.23395 0.34726 0.0
C1355 C 0.12332 0.23254 0.35014 0.0
C1356 C 0.12912 0.22225 0.34669 0.0
H1357 H 0.16169 0.27287 0.40211 0.0
H1358 H 0.14925 0.25872 0.39197 0.0
C1359 C 0.12339 0.21391 0.33981 0.0
C1360 C 0.12969 0.24194 0.3565 0.0
H1361 H 0.15406 0.25919 0.35521 0.0
C1362 C 0.12514 0.24608 0.36715 0.0
C1363 C 0.14005 0.24703 0.35197 0.0
C1364 C 0.14491 0.24378 0.34011 0.0
C1365 C 0.13078 0.25499 0.3735 0.0
C1366 C 0.14148 0.25962 0.36928 0.0
C1367 C 0.14591 0.2556 0.35853 0.0
C1368 C 0.14834 0.26859 0.37578 0.0
C1369 C 0.12503 0.25951 0.38451 0.0
C1370 C 0.15221 0.27876 0.37003 0.0
C1371 C 0.15959 0.2867 0.37571 0.0
C1372 C 0.16313 0.28471 0.38733 0.0
C1373 C 0.15899 0.27471 0.3932 0.0
C1374 C 0.1518 0.26665 0.38743 0.0
H1375 H 0.1154 0.25809 0.38432 0.0
H1376 H 0.12855 0.25468 0.39217 0.0
H1377 H 0.12673 0.269 0.38578 0.0
H1378 H 0.14968 0.28046 0.36105 0.0
H1379 H 0.16261 0.29434 0.37097 0.0
H1380 H 0.72686 0.16287 0.40303 0.0
H1381 H 0.7415 0.15098 0.3929 0.0
H1382 H 0.72055 0.15194 0.36146 0.0
H1383 H 0.70615 0.16428 0.37139 0.0
H1384 H 0.74178 0.13033 0.38267 0.0
H1385 H 0.75086 0.1641 0.34911 0.0
H1386 H 0.74186 0.16699 0.36174 0.0
H1387 H 0.73578 0.15975 0.3491 0.0
C1388 C 0.72534 0.1605 0.39397 0.0
C1389 C 0.71543 0.16465 0.38796 0.0
C1390 C 0.73372 0.1537 0.38819 0.0
C1391 C 0.73229 0.15082 0.37632 0.0
C1392 C 0.72206 0.15439 0.3705 0.0
H1393 H 0.77231 0.09818 0.33844 0.0
H1394 H 0.75811 0.10854 0.35064 0.0
C1395 C 0.71379 0.16137 0.37621 0.0
C1396 C 0.74161 0.1443 0.36999 0.0
H1397 H 0.75898 0.14524 0.34569 0.0
C1398 C 0.7456 0.13361 0.37462 0.0
C1399 C 0.74679 0.1487 0.35962 0.0
C1400 C 0.7437 0.16057 0.35467 0.0
C1401 C 0.75445 0.12713 0.36905 0.0
C1402 C 0.75918 0.13124 0.35835 0.0
C1403 C 0.75531 0.142 0.35383 0.0
C1404 C 0.76814 0.12461 0.35161 0.0
C1405 C 0.75881 0.11609 0.37488 0.0
C1406 C 0.77842 0.13023 0.34784 0.0
C1407 C 0.7864 0.12443 0.34061 0.0
C1408 C 0.78434 0.11281 0.3371 0.0
C1409 C 0.77421 0.10707 0.34112 0.0
C1410 C 0.76612 0.11297 0.34818 0.0
H1411 H 0.75731 0.11633 0.38449 0.0
H1412 H 0.75394 0.10847 0.37133 0.0
H1413 H 0.7683 0.11473 0.37327 0.0
H1414 H 0.78019 0.13921 0.35035 0.0
H1415 H 0.79414 0.12906 0.33768 0.0
H1416 H 0.8311 0.71203 0.37017 0.0
H1417 H 0.84419 0.72609 0.36083 0.0
H1418 H 0.85707 0.73682 0.39466 0.0
H1419 H 0.84391 0.72283 0.40415 0.0
H1420 H 0.85041 0.75549 0.38038 0.0
H1421 H 0.87979 0.72512 0.35653 0.0
H1422 H 0.86454 0.72233 0.35388 0.0
H1423 H 0.87042 0.72038 0.36836 0.0
C1424 C 0.83679 0.71727 0.37565 0.0
C1425 C 0.83642 0.71628 0.38793 0.0
C1426 C 0.84432 0.72527 0.37028 0.0
C1427 C 0.8517 0.73239 0.37704 0.0
C1428 C 0.85148 0.73135 0.38928 0.0
H1429 H 0.90395 0.77764 0.34368 0.0
H1430 H 0.89453 0.76366 0.35691 0.0
C1431 C 0.84396 0.72333 0.39468 0.0
C1432 C 0.85909 0.7414 0.37133 0.0
H1433 H 0.88004 0.74516 0.35033 0.0
C1434 C 0.85699 0.75323 0.37391 0.0
C1435 C 0.86778 0.73844 0.36301 0.0
C1436 C 0.87087 0.72587 0.36035 0.0
C1437 C 0.86299 0.7622 0.36803 0.0
C1438 C 0.87118 0.75924 0.35922 0.0
C1439 C 0.87366 0.74741 0.357 0.0
C1440 C 0.87687 0.76826 0.35182 0.0
C1441 C 0.86046 0.77477 0.37123 0.0
C1442 C 0.87006 0.77548 0.34457 0.0
C1443 C 0.8754 0.78346 0.337 0.0
C1444 C 0.88768 0.78436 0.33645 0.0
C1445 C 0.89448 0.77722 0.34387 0.0
C1446 C 0.88912 0.76921 0.35143 0.0
H1447 H 0.85677 0.77548 0.38021 0.0
H1448 H 0.8685 0.78021 0.37071 0.0
H1449 H 0.85393 0.77839 0.36502 0.0
H1450 H 0.86061 0.77473 0.34456 0.0
H1451 H 0.86987 0.78878 0.33141 0.0
H1452 H 0.22317 0.90415 0.34425 0.0
H1453 H 0.23748 0.89456 0.357 0.0
H1454 H 0.22707 0.86087 0.34351 0.0
H1455 H 0.21267 0.87029 0.33084 0.0
H1456 H 0.22978 0.86151 0.36811 0.0
H1457 H 0.26832 0.88011 0.34481 0.0
H1458 H 0.25775 0.89055 0.35003 0.0
H1459 H 0.25375 0.88041 0.33869 0.0
C1460 C 0.22386 0.89469 0.34403 0.0
C1461 C 0.21681 0.88801 0.33643 0.0
C1462 C 0.2321 0.88924 0.35129 0.0
C1463 C 0.23345 0.87703 0.35105 0.0
C1464 C 0.22619 0.87032 0.34377 0.0
H1465 H 0.28885 0.8305 0.37013 0.0
H1466 H 0.27461 0.84335 0.3607 0.0
C1467 C 0.21798 0.87574 0.33652 0.0
C1468 C 0.24257 0.87117 0.35819 0.0
H1469 H 0.27217 0.86795 0.36104 0.0
C1470 C 0.23905 0.86297 0.36665 0.0
C1471 C 0.25465 0.87304 0.35616 0.0
C1472 C 0.25891 0.88143 0.34688 0.0
C1473 C 0.2473 0.85646 0.37303 0.0
C1474 C 0.25938 0.85832 0.37099 0.0
C1475 C 0.2629 0.86663 0.36264 0.0
C1476 C 0.26848 0.85114 0.37683 0.0
C1477 C 0.24303 0.84734 0.38159 0.0
C1478 C 0.26993 0.85146 0.38903 0.0
C1479 C 0.27807 0.84411 0.39449 0.0
C1480 C 0.28492 0.83631 0.38783 0.0
C1481 C 0.28369 0.83633 0.37556 0.0
C1482 C 0.27557 0.84369 0.37013 0.0
H1483 H 0.23358 0.84536 0.38038 0.0
H1484 H 0.24808 0.83909 0.38063 0.0
H1485 H 0.2443 0.85061 0.39065 0.0
H1486 H 0.26468 0.85731 0.39434 0.0
H1487 H 0.27882 0.84439 0.40394 0.0
H1488 H 0.15762 0.72312 0.59603 0.0
H1489 H 0.14496 0.73747 0.60568 0.0
H1490 H 0.15616 0.72481 0.63943 0.0
H1491 H 0.16879 0.71039 0.62993 0.0
H1492 H 0.1314 0.72877 0.63724 0.0
H1493 H 0.15821 0.76681 0.62277 0.0
H1494 H 0.15337 0.75701 0.61143 0.0
H1495 H 0.16358 0.75195 0.62226 0.0
C1496 C 0.15734 0.72331 0.60551 0.0
C1497 C 0.16431 0.71565 0.6122 0.0
C1498 C 0.15013 0.73156 0.611 0.0
C1499 C 0.14977 0.73229 0.62325 0.0
C1500 C 0.15638 0.72441 0.62995 0.0
H1501 H 0.13036 0.78665 0.67092 0.0
H1502 H 0.13991 0.77239 0.65821 0.0
C1503 C 0.16361 0.71619 0.62449 0.0
C1504 C 0.14275 0.74145 0.62917 0.0
H1505 H 0.14136 0.77094 0.63393 0.0
C1506 C 0.13349 0.73801 0.63646 0.0
C1507 C 0.14563 0.75346 0.62821 0.0
C1508 C 0.15579 0.75759 0.62083 0.0
C1509 C 0.12708 0.74626 0.64295 0.0
C1510 C 0.12994 0.75828 0.64198 0.0
C1511 C 0.13913 0.76173 0.63457 0.0
C1512 C 0.12405 0.76733 0.64918 0.0
C1513 C 0.11759 0.742 0.6511 0.0
C1514 C 0.11198 0.7694 0.64814 0.0
C1515 C 0.10645 0.77754 0.65544 0.0
C1516 C 0.11291 0.78382 0.66386 0.0
C1517 C 0.12508 0.78197 0.66458 0.0
C1518 C 0.13058 0.77382 0.65731 0.0
H1519 H 0.11821 0.73242 0.65272 0.0
H1520 H 0.11804 0.74663 0.65964 0.0
H1521 H 0.10891 0.74382 0.64714 0.0
H1522 H 0.10682 0.76465 0.64175 0.0
H1523 H 0.09709 0.7788 0.65457 0.0
H1524 H 0.28813 0.16782 0.62982 0.0
H1525 H 0.27404 0.15455 0.63885 0.0
H1526 H 0.26367 0.1421 0.60474 0.0
H1527 H 0.27768 0.15546 0.59556 0.0
H1528 H 0.24487 0.14857 0.6188 0.0
H1529 H 0.27483 0.11895 0.64284 0.0
H1530 H 0.27764 0.13415 0.64571 0.0
H1531 H 0.27977 0.12844 0.63118 0.0
C1532 C 0.28296 0.16218 0.62421 0.0
C1533 C 0.28405 0.16274 0.61194 0.0
C1534 C 0.27496 0.15453 0.6294 0.0
C1535 C 0.26791 0.14723 0.62247 0.0
C1536 C 0.26908 0.14762 0.61025 0.0
H1537 H 0.22212 0.09535 0.65576 0.0
H1538 H 0.23616 0.10453 0.64244 0.0
C1539 C 0.27711 0.15525 0.60503 0.0
C1540 C 0.25882 0.13981 0.62801 0.0
H1541 H 0.25473 0.11888 0.64895 0.0
C1542 C 0.24703 0.14197 0.62528 0.0
C1543 C 0.26164 0.13109 0.63633 0.0
C1544 C 0.27416 0.12792 0.63911 0.0
C1545 C 0.23796 0.13602 0.63108 0.0
C1546 C 0.24078 0.12782 0.63992 0.0
C1547 C 0.25258 0.12526 0.64225 0.0
C1548 C 0.23166 0.12227 0.64731 0.0
C1549 C 0.22545 0.13862 0.62774 0.0
C1550 C 0.22447 0.12921 0.65445 0.0
C1551 C 0.21644 0.12402 0.66207 0.0
C1552 C 0.21548 0.11175 0.66278 0.0
C1553 C 0.22258 0.10482 0.65545 0.0
C1554 C 0.23064 0.11004 0.64783 0.0
H1555 H 0.22484 0.14223 0.61872 0.0
H1556 H 0.21993 0.13064 0.62829 0.0
H1557 H 0.22183 0.14526 0.63385 0.0
H1558 H 0.22528 0.13866 0.65436 0.0
H1559 H 0.21115 0.12964 0.66759 0.0
H1560 H 0.83243 0.2886 0.62986 0.0
H1561 H 0.84553 0.27447 0.63908 0.0
H1562 H 0.85667 0.26236 0.60511 0.0
H1563 H 0.84349 0.27642 0.59573 0.0
H1564 H 0.84997 0.24434 0.62029 0.0
H1565 H 0.88135 0.27442 0.64184 0.0
H1566 H 0.86633 0.27786 0.64498 0.0
H1567 H 0.87168 0.27908 0.63021 0.0
C1568 C 0.83774 0.28303 0.62431 0.0
C1569 C 0.83688 0.28366 0.61203 0.0
C1570 C 0.84529 0.275 0.62962 0.0
C1571 C 0.85218 0.26747 0.62278 0.0
C1572 C 0.85148 0.26815 0.61053 0.0
H1573 H 0.90401 0.22158 0.65597 0.0
H1574 H 0.89466 0.23544 0.64257 0.0
C1575 C 0.84395 0.27622 0.6052 0.0
C1576 C 0.85951 0.2584 0.62848 0.0
H1577 H 0.88111 0.25462 0.64878 0.0
C1578 C 0.85688 0.24657 0.62641 0.0
C1579 C 0.86862 0.26133 0.63633 0.0
C1580 C 0.87226 0.27386 0.6384 0.0
C1581 C 0.86278 0.2376 0.6324 0.0
C1582 C 0.87141 0.24056 0.64078 0.0
C1583 C 0.87441 0.25236 0.64245 0.0
C1584 C 0.87702 0.23161 0.64832 0.0
C1585 C 0.85966 0.22503 0.62975 0.0
C1586 C 0.8702 0.22486 0.656 0.0
C1587 C 0.8755 0.21693 0.66366 0.0
C1588 C 0.88776 0.21563 0.66387 0.0
C1589 C 0.89456 0.22232 0.65605 0.0
C1590 C 0.88924 0.23026 0.64839 0.0
H1591 H 0.85568 0.22414 0.62092 0.0
H1592 H 0.86749 0.21929 0.63025 0.0
H1593 H 0.85317 0.22191 0.63628 0.0
H1594 H 0.86078 0.22593 0.65627 0.0
H1595 H 0.86997 0.21198 0.66957 0.0
H1596 H 0.78842 0.86933 0.66892 0.0
H1597 H 0.77444 0.86017 0.65563 0.0
H1598 H 0.76398 0.89416 0.64295 0.0
H1599 H 0.77788 0.90348 0.65634 0.0
H1600 H 0.74522 0.88005 0.64931 0.0
H1601 H 0.77554 0.85599 0.62009 0.0
H1602 H 0.77821 0.85319 0.63532 0.0
H1603 H 0.78035 0.8677 0.62957 0.0
C1604 C 0.78326 0.87489 0.66324 0.0
C1605 C 0.78429 0.88716 0.66374 0.0
C1606 C 0.77531 0.86962 0.65557 0.0
C1607 C 0.76828 0.87648 0.6482 0.0
C1608 C 0.76938 0.88871 0.64853 0.0
H1609 H 0.72291 0.84339 0.59581 0.0
H1610 H 0.73701 0.85652 0.60521 0.0
C1611 C 0.77735 0.89401 0.65619 0.0
C1612 C 0.75928 0.87086 0.64072 0.0
H1613 H 0.75546 0.84987 0.61979 0.0
C1614 C 0.74746 0.87356 0.64275 0.0
C1615 C 0.76222 0.86252 0.63205 0.0
C1616 C 0.77478 0.85975 0.62903 0.0
C1617 C 0.73847 0.86773 0.63671 0.0
C1618 C 0.7414 0.85888 0.62856 0.0
C1619 C 0.75323 0.85657 0.62614 0.0
C1620 C 0.73235 0.85152 0.62287 0.0
C1621 C 0.72592 0.87105 0.63917 0.0
C1622 C 0.72507 0.84435 0.6297 0.0
C1623 C 0.71702 0.83684 0.62438 0.0
C1624 C 0.71612 0.83628 0.6121 0.0
C1625 C 0.72333 0.8436 0.60529 0.0
C1626 C 0.73142 0.8511 0.61063 0.0
H1627 H 0.72526 0.88005 0.64282 0.0
H1628 H 0.72051 0.87054 0.6311 0.0
H1629 H 0.72222 0.86489 0.64571 0.0
H1630 H 0.7258 0.84437 0.63916 0.0
H1631 H 0.71164 0.83133 0.62992 0.0
H1632 H 0.34298 0.09611 0.22261 0.0
H1633 H 0.35586 0.10579 0.23674 0.0
H1634 H 0.34357 0.1395 0.22501 0.0
H1635 H 0.33075 0.12998 0.2108 0.0
H1636 H 0.36823 0.13811 0.22829 0.0
H1637 H 0.34327 0.12171 0.26679 0.0
H1638 H 0.34831 0.11075 0.25667 0.0
H1639 H 0.3375 0.1212 0.25208 0.0
C1640 C 0.34306 0.10559 0.22295 0.0
C1641 C 0.33573 0.11226 0.21561 0.0
C1642 C 0.3504 0.11109 0.23108 0.0
C1643 C 0.35052 0.12334 0.23203 0.0
C1644 C 0.34355 0.13003 0.22445 0.0
H1645 H 0.36995 0.1705 0.2868 0.0
H1646 H 0.36043 0.15782 0.2725 0.0
C1647 C 0.33621 0.12455 0.21634 0.0
C1648 C 0.35764 0.12927 0.24112 0.0
H1649 H 0.35987 0.13334 0.27066 0.0
C1650 C 0.36649 0.13701 0.23756 0.0
C1651 C 0.35522 0.12789 0.25319 0.0
C1652 C 0.34551 0.12002 0.25747 0.0
C1653 C 0.37292 0.14354 0.24576 0.0
C1654 C 0.37051 0.14216 0.25784 0.0
C1655 C 0.36175 0.1343 0.2614 0.0
C1656 C 0.37642 0.14937 0.26687 0.0
C1657 C 0.38193 0.15218 0.24142 0.0
C1658 C 0.38856 0.14866 0.26862 0.0
C1659 C 0.39407 0.15593 0.2768 0.0
C1660 C 0.38752 0.16402 0.28341 0.0
C1661 C 0.3753 0.16443 0.28185 0.0
C1662 C 0.36982 0.15717 0.27368 0.0
H1663 H 0.381 0.15394 0.2319 0.0
H1664 H 0.38124 0.1606 0.24623 0.0
H1665 H 0.39082 0.14857 0.24295 0.0
H1666 H 0.39378 0.14253 0.2636 0.0
H1667 H 0.40348 0.15531 0.27781 0.0
H1668 H 0.87149 0.33823 0.2047 0.0
H1669 H 0.8615 0.35125 0.21845 0.0
H1670 H 0.89167 0.35037 0.2412 0.0
H1671 H 0.90189 0.33785 0.22719 0.0
H1672 H 0.85483 0.34657 0.23937 0.0
H1673 H 0.88488 0.38437 0.24244 0.0
H1674 H 0.88644 0.37327 0.23132 0.0
H1675 H 0.89228 0.37095 0.2458 0.0
C1676 C 0.87606 0.34099 0.21254 0.0
C1677 C 0.88748 0.33705 0.21485 0.0
C1678 C 0.87034 0.34843 0.2204 0.0
C1679 C 0.87586 0.35194 0.23083 0.0
C1680 C 0.88733 0.34811 0.23308 0.0
H1681 H 0.83585 0.37125 0.29258 0.0
H1682 H 0.84817 0.36147 0.27807 0.0
C1683 C 0.89315 0.34087 0.22509 0.0
C1684 C 0.86923 0.35876 0.23974 0.0
H1685 H 0.87058 0.38262 0.25774 0.0
C1686 C 0.85825 0.35452 0.24329 0.0
C1687 C 0.87359 0.36922 0.24479 0.0
C1688 C 0.88489 0.37478 0.24079 0.0
C1689 C 0.85158 0.36031 0.25182 0.0
C1690 C 0.85622 0.37039 0.25735 0.0
C1691 C 0.86711 0.37478 0.25366 0.0
C1692 C 0.84976 0.37662 0.26677 0.0
C1693 C 0.8395 0.35568 0.25458 0.0
C1694 C 0.84716 0.38859 0.26564 0.0
C1695 C 0.84035 0.39428 0.27408 0.0
C1696 C 0.83594 0.38807 0.28376 0.0
C1697 C 0.83897 0.37622 0.28513 0.0
C1698 C 0.84594 0.3706 0.27679 0.0
H1699 H 0.83592 0.35043 0.24721 0.0
H1700 H 0.84 0.34988 0.26235 0.0
H1701 H 0.83329 0.36291 0.2565 0.0
H1702 H 0.85009 0.39345 0.25804 0.0
H1703 H 0.83818 0.40342 0.27278 0.0
H1704 H 0.66949 0.87023 0.21144 0.0
H1705 H 0.6564 0.86089 0.22549 0.0
H1706 H 0.64359 0.89472 0.23629 0.0
H1707 H 0.65676 0.90422 0.22231 0.0
H1708 H 0.65021 0.8804 0.25492 0.0
H1709 H 0.62082 0.85665 0.22449 0.0
H1710 H 0.63605 0.85396 0.22171 0.0
H1711 H 0.63021 0.86847 0.21977 0.0
C1712 C 0.66382 0.87572 0.2167 0.0
C1713 C 0.66421 0.888 0.21572 0.0
C1714 C 0.65628 0.87034 0.22469 0.0
C1715 C 0.64892 0.87711 0.23182 0.0
C1716 C 0.64916 0.88935 0.2308 0.0
H1717 H 0.59656 0.84388 0.27698 0.0
H1718 H 0.60606 0.85706 0.26302 0.0
C1719 C 0.65669 0.89475 0.22279 0.0
C1720 C 0.64152 0.87138 0.24081 0.0
H1721 H 0.62055 0.8504 0.24451 0.0
C1722 C 0.64362 0.87394 0.25265 0.0
C1723 C 0.63283 0.86308 0.23783 0.0
C1724 C 0.62974 0.86045 0.22525 0.0
C1725 C 0.63761 0.86804 0.2616 0.0
C1726 C 0.62941 0.85925 0.25862 0.0
C1727 C 0.62693 0.85706 0.24678 0.0
C1728 C 0.62368 0.85186 0.26762 0.0
C1729 C 0.64014 0.87122 0.27418 0.0
C1730 C 0.63045 0.84457 0.27483 0.0
C1731 C 0.62507 0.83701 0.2828 0.0
C1732 C 0.61279 0.83655 0.2837 0.0
C1733 C 0.60604 0.84401 0.27656 0.0
C1734 C 0.61144 0.85155 0.26856 0.0
H1735 H 0.64388 0.88017 0.27491 0.0
H1736 H 0.63208 0.87073 0.2796 0.0
H1737 H 0.64663 0.86496 0.27781 0.0
H1738 H 0.63991 0.84451 0.27408 0.0
H1739 H 0.63056 0.83139 0.28812 0.0
H1740 H 0.12986 0.66779 0.21259 0.0
H1741 H 0.13869 0.65449 0.22677 0.0
H1742 H 0.10442 0.64249 0.23711 0.0
H1743 H 0.09543 0.65587 0.223 0.0
H1744 H 0.11842 0.64879 0.2559 0.0
H1745 H 0.14233 0.61889 0.22615 0.0
H1746 H 0.14541 0.63404 0.22329 0.0
H1747 H 0.13081 0.6285 0.22112 0.0
C1748 C 0.12417 0.66224 0.21777 0.0
C1749 C 0.11192 0.66294 0.21664 0.0
C1750 C 0.12926 0.65458 0.22583 0.0
C1751 C 0.12222 0.64739 0.23288 0.0
C1752 C 0.11 0.64792 0.23169 0.0
H1753 H 0.15583 0.59571 0.27872 0.0
H1754 H 0.14228 0.6047 0.26476 0.0
C1755 C 0.1049 0.65557 0.22361 0.0
C1756 C 0.12764 0.63994 0.24202 0.0
H1757 H 0.14847 0.61893 0.24626 0.0
C1758 C 0.12487 0.64214 0.2538 0.0
C1759 C 0.13591 0.63115 0.23926 0.0
C1760 C 0.13871 0.6279 0.22676 0.0
C1761 C 0.1306 0.63619 0.2629 0.0
C1762 C 0.13944 0.62796 0.26014 0.0
C1763 C 0.14178 0.62534 0.24836 0.0
C1764 C 0.14686 0.62251 0.26929 0.0
C1765 C 0.12721 0.63885 0.27539 0.0
C1766 C 0.15389 0.62955 0.2765 0.0
C1767 C 0.16163 0.62447 0.28448 0.0
C1768 C 0.16258 0.61221 0.28537 0.0
C1769 C 0.15533 0.60517 0.27829 0.0
C1770 C 0.14759 0.61029 0.27029 0.0
H1771 H 0.11814 0.64234 0.27594 0.0
H1772 H 0.12786 0.63093 0.28099 0.0
H1773 H 0.13321 0.64561 0.27896 0.0
H1774 H 0.15365 0.639 0.2757 0.0
H1775 H 0.16708 0.63017 0.28975 0.0
H1776 H 0.34422 0.90354 0.77907 0.0
H1777 H 0.35707 0.894 0.76482 0.0
H1778 H 0.34355 0.86027 0.77507 0.0
H1779 H 0.33078 0.86965 0.78941 0.0
H1780 H 0.36811 0.86082 0.77225 0.0
H1781 H 0.34479 0.87985 0.73394 0.0
H1782 H 0.3501 0.89019 0.74455 0.0
H1783 H 0.33873 0.88009 0.74854 0.0
C1784 C 0.34403 0.89408 0.77837 0.0
C1785 C 0.33637 0.88738 0.78534 0.0
C1786 C 0.35134 0.88866 0.77017 0.0
C1787 C 0.35111 0.87646 0.76876 0.0
C1788 C 0.34381 0.86972 0.77598 0.0
H1789 H 0.36987 0.83047 0.71281 0.0
H1790 H 0.36054 0.84316 0.72725 0.0
C1791 C 0.3365 0.87511 0.78417 0.0
C1792 C 0.35821 0.87065 0.75958 0.0
H1793 H 0.361 0.86772 0.72994 0.0
C1794 C 0.36664 0.86238 0.763 0.0
C1795 C 0.35616 0.87264 0.74752 0.0
C1796 C 0.3469 0.8811 0.74336 0.0
C1797 C 0.37299 0.85593 0.75467 0.0
C1798 C 0.37093 0.85792 0.74261 0.0
C1799 C 0.36261 0.86629 0.7392 0.0
C1800 C 0.37673 0.85081 0.73343 0.0
C1801 C 0.38152 0.84674 0.75884 0.0
C1802 C 0.38892 0.85111 0.73193 0.0
C1803 C 0.39432 0.84384 0.72367 0.0
C1804 C 0.3876 0.83616 0.71674 0.0
C1805 C 0.37534 0.83621 0.71802 0.0
C1806 C 0.36998 0.84347 0.72627 0.0
H1807 H 0.38033 0.84467 0.76827 0.0
H1808 H 0.38052 0.83854 0.7537 0.0
H1809 H 0.39059 0.84998 0.75757 0.0
H1810 H 0.39427 0.85687 0.73724 0.0
H1811 H 0.40377 0.8441 0.72288 0.0
H1812 H 0.16855 0.3696 0.71145 0.0
H1813 H 0.15519 0.36047 0.72539 0.0
H1814 H 0.14342 0.39452 0.73666 0.0
H1815 H 0.15685 0.40381 0.72279 0.0
H1816 H 0.14981 0.37983 0.75507 0.0
H1817 H 0.11948 0.35721 0.72471 0.0
H1818 H 0.1346 0.35415 0.7217 0.0
H1819 H 0.12913 0.36883 0.72003 0.0
C1820 C 0.16304 0.37518 0.71678 0.0
C1821 C 0.16381 0.38746 0.71598 0.0
C1822 C 0.15535 0.36993 0.7247 0.0
C1823 C 0.14821 0.37681 0.73195 0.0
C1824 C 0.14881 0.38905 0.73109 0.0
H1825 H 0.09588 0.34379 0.77742 0.0
H1826 H 0.10531 0.35705 0.76348 0.0
C1827 C 0.15649 0.39433 0.72313 0.0
C1828 C 0.14074 0.37119 0.74095 0.0
H1829 H 0.11938 0.35061 0.74465 0.0
C1830 C 0.14305 0.37355 0.7528 0.0
C1831 C 0.13182 0.36313 0.73797 0.0
C1832 C 0.12851 0.36076 0.72541 0.0
C1833 C 0.13703 0.36765 0.76175 0.0
C1834 C 0.12863 0.35906 0.75876 0.0
C1835 C 0.12593 0.35711 0.74692 0.0
C1836 C 0.12295 0.3516 0.76773 0.0
C1837 C 0.1398 0.3706 0.77433 0.0
C1838 C 0.12974 0.34412 0.77472 0.0
C1839 C 0.1244 0.33653 0.78269 0.0
C1840 C 0.11213 0.3362 0.78378 0.0
C1841 C 0.10535 0.34382 0.77684 0.0
C1842 C 0.11071 0.3514 0.76885 0.0
H1843 H 0.14365 0.3795 0.77514 0.0
H1844 H 0.13183 0.37012 0.77988 0.0
H1845 H 0.14629 0.36423 0.77775 0.0
H1846 H 0.13918 0.34397 0.77383 0.0
H1847 H 0.12991 0.33078 0.78784 0.0
H1848 H 0.59574 0.15549 0.72234 0.0
H1849 H 0.60508 0.14255 0.73665 0.0
H1850 H 0.63902 0.15539 0.72624 0.0
H1851 H 0.62985 0.16824 0.71184 0.0
H1852 H 0.63801 0.13085 0.7292 0.0
H1853 H 0.61957 0.15482 0.76741 0.0
H1854 H 0.60912 0.1496 0.75686 0.0
H1855 H 0.61939 0.16078 0.75277 0.0
C1856 C 0.6052 0.15551 0.72302 0.0
C1857 C 0.61203 0.16301 0.71599 0.0
C1858 C 0.61051 0.14815 0.73125 0.0
C1859 C 0.62272 0.14817 0.73263 0.0
C1860 C 0.62957 0.1553 0.72535 0.0
H1861 H 0.66909 0.12976 0.78821 0.0
H1862 H 0.6562 0.13895 0.77386 0.0
C1863 C 0.6243 0.16266 0.71713 0.0
C1864 C 0.62844 0.14104 0.74184 0.0
H1865 H 0.63164 0.1386 0.77148 0.0
C1866 C 0.63655 0.13246 0.73845 0.0
C1867 C 0.62658 0.14326 0.75388 0.0
C1868 C 0.61827 0.15267 0.75801 0.0
C1869 C 0.64302 0.12615 0.74679 0.0
C1870 C 0.6412 0.1284 0.75884 0.0
C1871 C 0.63294 0.13685 0.76223 0.0
C1872 C 0.6484 0.12271 0.76801 0.0
C1873 C 0.65208 0.11747 0.74264 0.0
C1874 C 0.64809 0.11054 0.76967 0.0
C1875 C 0.65548 0.10522 0.77787 0.0
C1876 C 0.66329 0.112 0.7846 0.0
C1877 C 0.66325 0.12425 0.78317 0.0
C1878 C 0.65587 0.12953 0.77497 0.0
H1879 H 0.65404 0.11849 0.73316 0.0
H1880 H 0.66035 0.11845 0.74765 0.0
H1881 H 0.64876 0.10845 0.74407 0.0
H1882 H 0.64223 0.10514 0.76453 0.0
H1883 H 0.65521 0.09579 0.77878 0.0
H1884 H 0.90417 0.65628 0.7779 0.0
H1885 H 0.89476 0.64342 0.76357 0.0
H1886 H 0.86092 0.65677 0.77368 0.0
H1887 H 0.87017 0.66954 0.7881 0.0
H1888 H 0.86169 0.63217 0.771 0.0
H1889 H 0.88053 0.65551 0.7326 0.0
H1890 H 0.89089 0.65032 0.74326 0.0
H1891 H 0.88069 0.66164 0.74717 0.0
C1892 C 0.89472 0.65644 0.77714 0.0
C1893 C 0.88795 0.66404 0.78411 0.0
C1894 C 0.88937 0.64912 0.7689 0.0
C1895 C 0.87717 0.64929 0.76745 0.0
C1896 C 0.87036 0.65656 0.77464 0.0
H1897 H 0.831 0.63032 0.71182 0.0
H1898 H 0.84384 0.63968 0.7261 0.0
C1899 C 0.87568 0.66387 0.78286 0.0
C1900 C 0.87141 0.64212 0.75829 0.0
H1901 H 0.86841 0.63928 0.72867 0.0
C1902 C 0.86321 0.63364 0.76174 0.0
C1903 C 0.87337 0.64416 0.74623 0.0
C1904 C 0.88177 0.65346 0.74203 0.0
C1905 C 0.85677 0.62726 0.75345 0.0
C1906 C 0.8587 0.62932 0.74138 0.0
C1907 C 0.86703 0.63767 0.73793 0.0
C1908 C 0.85155 0.62351 0.73224 0.0
C1909 C 0.84763 0.61869 0.75765 0.0
C1910 C 0.85184 0.61132 0.73076 0.0
C1911 C 0.84448 0.6059 0.7226 0.0
C1912 C 0.83672 0.61259 0.71574 0.0
C1913 C 0.83679 0.62486 0.71698 0.0
C1914 C 0.84415 0.63025 0.72513 0.0
H1915 H 0.8456 0.61986 0.7671 0.0
H1916 H 0.8394 0.61965 0.75256 0.0
H1917 H 0.8509 0.60963 0.75638 0.0
H1918 H 0.85766 0.60598 0.73602 0.0
H1919 H 0.84473 0.59645 0.72184 0.0
H1920 H 0.2226 0.34294 0.09722 0.0
H1921 H 0.23692 0.35552 0.10701 0.0
H1922 H 0.22641 0.34159 0.14049 0.0
H1923 H 0.21201 0.32908 0.13086 0.0
H1924 H 0.22917 0.36622 0.14015 0.0
H1925 H 0.2677 0.34306 0.12138 0.0
H1926 H 0.25717 0.34838 0.11096 0.0
H1927 H 0.25311 0.33697 0.12099 0.0
C1928 C 0.22327 0.34259 0.10668 0.0
C1929 C 0.21619 0.3349 0.11324 0.0
C1930 C 0.23151 0.34975 0.11224 0.0
C1931 C 0.23284 0.34934 0.12445 0.0
C1932 C 0.22555 0.34199 0.13105 0.0
H1933 H 0.28848 0.36884 0.17081 0.0
H1934 H 0.27419 0.35916 0.1582 0.0
C1935 C 0.21733 0.33482 0.12551 0.0
C1936 C 0.24196 0.35639 0.1304 0.0
H1937 H 0.27156 0.35931 0.13353 0.0
C1938 C 0.23844 0.36478 0.13866 0.0
C1939 C 0.25403 0.35438 0.1285 0.0
C1940 C 0.25829 0.34515 0.12005 0.0
C1941 C 0.2467 0.37117 0.14516 0.0
C1942 C 0.25877 0.36919 0.14323 0.0
C1943 C 0.26229 0.36087 0.1349 0.0
C1944 C 0.26787 0.37516 0.15029 0.0
C1945 C 0.24243 0.37969 0.15431 0.0
C1946 C 0.26924 0.38736 0.14981 0.0
C1947 C 0.2774 0.39296 0.15702 0.0
C1948 C 0.28438 0.38644 0.16483 0.0
C1949 C 0.28323 0.37416 0.16497 0.0
C1950 C 0.27508 0.36859 0.15775 0.0
H1951 H 0.23301 0.37842 0.15637 0.0
H1952 H 0.24756 0.37879 0.16252 0.0
H1953 H 0.2436 0.38877 0.15103 0.0
H1954 H 0.2639 0.39256 0.14394 0.0
H1955 H 0.27809 0.40241 0.15661 0.0
H1956 H 0.22221 0.65595 0.90387 0.0
H1957 H 0.2364 0.64308 0.89425 0.0
H1958 H 0.2268 0.65744 0.86068 0.0
H1959 H 0.21253 0.67022 0.87012 0.0
H1960 H 0.229 0.63288 0.86077 0.0
H1961 H 0.26772 0.65476 0.88065 0.0
H1962 H 0.25688 0.6495 0.89077 0.0
H1963 H 0.25329 0.6612 0.8809 0.0
C1964 C 0.22306 0.65634 0.89443 0.0
C1965 C 0.21627 0.66422 0.88779 0.0
C1966 C 0.23122 0.64901 0.88896 0.0
C1967 C 0.23277 0.64945 0.87678 0.0
C1968 C 0.22577 0.65701 0.8701 0.0
H1969 H 0.28845 0.6303 0.83066 0.0
H1970 H 0.27421 0.63972 0.84353 0.0
C1971 C 0.21762 0.66433 0.87554 0.0
C1972 C 0.24183 0.64223 0.87092 0.0
H1973 H 0.27141 0.63875 0.86815 0.0
C1974 C 0.23827 0.63408 0.86244 0.0
C1975 C 0.25392 0.64392 0.87306 0.0
C1976 C 0.25824 0.65287 0.88177 0.0
C1977 C 0.24649 0.62767 0.85591 0.0
C1978 C 0.25857 0.62938 0.85803 0.0
C1979 C 0.26213 0.63741 0.86662 0.0
C1980 C 0.26765 0.62353 0.85085 0.0
C1981 C 0.24218 0.61947 0.84648 0.0
C1982 C 0.26886 0.6113 0.8509 0.0
C1983 C 0.277 0.60586 0.84353 0.0
C1984 C 0.28409 0.61256 0.83599 0.0
C1985 C 0.2831 0.62484 0.83628 0.0
C1986 C 0.27498 0.63026 0.84365 0.0
H1987 H 0.23279 0.62091 0.8444 0.0
H1988 H 0.24738 0.62055 0.83834 0.0
H1989 H 0.24323 0.61029 0.84951 0.0
H1990 H 0.26342 0.60596 0.85654 0.0
H1991 H 0.27756 0.59639 0.8436 0.0
H1992 H 0.37215 0.29519 0.83837 0.0
H1993 H 0.36232 0.28114 0.85119 0.0
H1994 H 0.39344 0.25968 0.85157 0.0
H1995 H 0.40346 0.27396 0.83921 0.0
H1996 H 0.3568 0.25977 0.84645 0.0
H1997 H 0.3855 0.25871 0.88542 0.0
H1998 H 0.38691 0.26976 0.87422 0.0
H1999 H 0.39351 0.25555 0.8723 0.0
C2000 C 0.37696 0.28757 0.84136 0.0
C2001 C 0.38859 0.28569 0.8378 0.0
C2002 C 0.37133 0.27954 0.84868 0.0
C2003 C 0.37716 0.26939 0.85249 0.0
C2004 C 0.38884 0.26758 0.84906 0.0
H2005 H 0.33896 0.2064 0.87148 0.0
H2006 H 0.35136 0.22103 0.86198 0.0
C2007 C 0.39455 0.27573 0.84191 0.0
C2008 C 0.3707 0.26029 0.8592 0.0
H2009 H 0.3719 0.24281 0.88347 0.0
C2010 C 0.36007 0.25616 0.8546 0.0
C2011 C 0.37487 0.25562 0.86991 0.0
C2012 C 0.38576 0.26023 0.87581 0.0
C2013 C 0.35357 0.24743 0.86029 0.0
C2014 C 0.35805 0.24232 0.87067 0.0
C2015 C 0.36857 0.24658 0.8754 0.0
C2016 C 0.35173 0.23279 0.87686 0.0
C2017 C 0.34184 0.24402 0.85524 0.0
C2018 C 0.34845 0.23415 0.88863 0.0
C2019 C 0.3416 0.22565 0.89418 0.0
C2020 C 0.3378 0.21568 0.88801 0.0
C2021 C 0.34158 0.21407 0.87641 0.0
C2022 C 0.3486 0.22247 0.87094 0.0
H2023 H 0.33817 0.25107 0.84963 0.0
H2024 H 0.34291 0.23611 0.8497 0.0
H2025 H 0.33541 0.24203 0.86226 0.0
H2026 H 0.35084 0.24198 0.89341 0.0
H2027 H 0.33883 0.22715 0.90313 0.0
H2028 H 0.72255 0.4037 0.84362 0.0
H2029 H 0.73678 0.39402 0.85639 0.0
H2030 H 0.72597 0.36039 0.84308 0.0
H2031 H 0.71165 0.36991 0.83039 0.0
H2032 H 0.72897 0.36101 0.86763 0.0
H2033 H 0.76736 0.37934 0.84388 0.0
H2034 H 0.75695 0.38987 0.84921 0.0
H2035 H 0.75272 0.37975 0.83794 0.0
C2036 C 0.72313 0.39424 0.84346 0.0
C2037 C 0.71601 0.3876 0.83588 0.0
C2038 C 0.73132 0.38873 0.85072 0.0
C2039 C 0.73256 0.37651 0.85052 0.0
C2040 C 0.72519 0.36984 0.84331 0.0
H2041 H 0.78819 0.33004 0.86945 0.0
H2042 H 0.77381 0.3427 0.85999 0.0
C2043 C 0.71701 0.37532 0.83604 0.0
C2044 C 0.74171 0.3706 0.85757 0.0
H2045 H 0.77132 0.36728 0.86016 0.0
C2046 C 0.73824 0.36243 0.86608 0.0
C2047 C 0.75377 0.3724 0.85541 0.0
C2048 C 0.75798 0.38074 0.84606 0.0
C2049 C 0.74652 0.35591 0.87241 0.0
C2050 C 0.75859 0.35773 0.87025 0.0
C2051 C 0.76206 0.36598 0.86184 0.0
C2052 C 0.76772 0.35059 0.8761 0.0
C2053 C 0.74229 0.34684 0.88103 0.0
C2054 C 0.76925 0.35103 0.88828 0.0
C2055 C 0.77747 0.34378 0.89375 0.0
C2056 C 0.78435 0.33598 0.88712 0.0
C2057 C 0.78303 0.33587 0.87486 0.0
C2058 C 0.77482 0.34312 0.86942 0.0
H2059 H 0.73284 0.34484 0.87988 0.0
H2060 H 0.74735 0.33858 0.88011 0.0
H2061 H 0.74359 0.35016 0.89007 0.0
H2062 H 0.764 0.3569 0.89357 0.0
H2063 H 0.77829 0.34416 0.90319 0.0
H2064 H 0.62885 0.70542 0.83678 0.0
H2065 H 0.63887 0.71922 0.84972 0.0
H2066 H 0.60826 0.7414 0.84978 0.0
H2067 H 0.59802 0.72734 0.83733 0.0
H2068 H 0.64506 0.74038 0.84531 0.0
H2069 H 0.61563 0.74206 0.8837 0.0
H2070 H 0.6141 0.73113 0.8724 0.0
H2071 H 0.60795 0.74554 0.87046 0.0
C2072 C 0.6242 0.71315 0.83972 0.0
C2073 C 0.61264 0.71528 0.83607 0.0
C2074 C 0.62993 0.72104 0.8471 0.0
C2075 C 0.62429 0.73131 0.85088 0.0
C2076 C 0.6127 0.7334 0.84731 0.0
H2077 H 0.6638 0.79318 0.87117 0.0
H2078 H 0.65156 0.77876 0.86114 0.0
C2079 C 0.60688 0.72538 0.84011 0.0
C2080 C 0.63087 0.74021 0.85775 0.0
H2081 H 0.62968 0.75758 0.88209 0.0
C2082 C 0.64172 0.74405 0.85341 0.0
C2083 C 0.62663 0.74493 0.86841 0.0
C2084 C 0.6155 0.74061 0.87408 0.0
C2085 C 0.64836 0.75253 0.8593 0.0
C2086 C 0.64382 0.75772 0.86961 0.0
C2087 C 0.63307 0.75376 0.87408 0.0
C2088 C 0.65027 0.76705 0.876 0.0
C2089 C 0.66032 0.75558 0.85454 0.0
C2090 C 0.65302 0.76564 0.88791 0.0
C2091 C 0.65977 0.77403 0.89375 0.0
C2092 C 0.664 0.78392 0.88775 0.0
C2093 C 0.66084 0.78555 0.87597 0.0
C2094 C 0.65391 0.77727 0.8702 0.0
H2095 H 0.66391 0.7484 0.84904 0.0
H2096 H 0.65961 0.7635 0.84894 0.0
H2097 H 0.66663 0.75742 0.8617 0.0
H2098 H 0.65024 0.75788 0.8926 0.0
H2099 H 0.66205 0.77252 0.90283 0.0
H2100 H 0.77761 0.65582 0.09636 0.0
H2101 H 0.76339 0.64286 0.10581 0.0
H2102 H 0.77332 0.65646 0.1396 0.0
H2103 H 0.78762 0.66932 0.13032 0.0
H2104 H 0.77087 0.63191 0.13903 0.0
H2105 H 0.73227 0.65463 0.11983 0.0
H2106 H 0.743 0.64944 0.10955 0.0
H2107 H 0.74678 0.66091 0.11962 0.0
C2108 C 0.77683 0.65602 0.10581 0.0
C2109 C 0.78371 0.66371 0.11256 0.0
C2110 C 0.76865 0.64864 0.11118 0.0
C2111 C 0.76718 0.64884 0.12338 0.0
C2112 C 0.77428 0.65621 0.13016 0.0
H2113 H 0.71166 0.62995 0.1696 0.0
H2114 H 0.7259 0.63924 0.15667 0.0
C2115 C 0.78245 0.66358 0.12482 0.0
C2116 C 0.75808 0.64161 0.12915 0.0
H2117 H 0.72848 0.6385 0.13212 0.0
C2118 C 0.7616 0.63326 0.13746 0.0
C2119 C 0.746 0.6435 0.12714 0.0
C2120 C 0.74173 0.65266 0.11863 0.0
C2121 C 0.75335 0.62687 0.14396 0.0
C2122 C 0.74127 0.62879 0.14197 0.0
C2123 C 0.73775 0.637 0.13354 0.0
C2124 C 0.73217 0.623 0.1492 0.0
C2125 C 0.75762 0.61846 0.15322 0.0
C2126 C 0.73079 0.61079 0.14908 0.0
C2127 C 0.72264 0.60542 0.15649 0.0
C2128 C 0.71571 0.61217 0.16414 0.0
C2129 C 0.71687 0.62445 0.16391 0.0
C2130 C 0.725 0.62979 0.1565 0.0
H2131 H 0.76706 0.61974 0.15524 0.0
H2132 H 0.75251 0.61949 0.16143 0.0
H2133 H 0.75642 0.60935 0.15007 0.0
H2134 H 0.7361 0.60542 0.14335 0.0
H2135 H 0.72195 0.59596 0.15638 0.0
H2136 H 0.33098 0.78884 0.13051 0.0
H2137 H 0.34395 0.77476 0.14 0.0
H2138 H 0.35668 0.76352 0.10628 0.0
H2139 H 0.34364 0.77752 0.09664 0.0
H2140 H 0.34979 0.74508 0.12083 0.0
H2141 H 0.37961 0.77544 0.14417 0.0
H2142 H 0.3644 0.7784 0.1468 0.0
H2143 H 0.37028 0.78012 0.13228 0.0
C2144 C 0.33661 0.78348 0.12508 0.0
C2145 C 0.33624 0.78434 0.11278 0.0
C2146 C 0.34408 0.77547 0.13054 0.0
C2147 C 0.35138 0.7682 0.12385 0.0
C2148 C 0.35115 0.7691 0.1116 0.0
H2149 H 0.40362 0.72276 0.15686 0.0
H2150 H 0.39408 0.73676 0.14375 0.0
C2151 C 0.34371 0.77714 0.10611 0.0
C2152 C 0.35869 0.75918 0.12965 0.0
H2153 H 0.3798 0.75545 0.15049 0.0
C2154 C 0.35645 0.74734 0.12722 0.0
C2155 C 0.36747 0.76215 0.13786 0.0
C2156 C 0.37069 0.77472 0.14037 0.0
C2157 C 0.36243 0.73838 0.13314 0.0
C2158 C 0.37074 0.74136 0.14182 0.0
C2159 C 0.37333 0.75319 0.1439 0.0
C2160 C 0.37649 0.73236 0.14921 0.0
C2161 C 0.35975 0.72581 0.13009 0.0
C2162 C 0.36975 0.72524 0.15662 0.0
C2163 C 0.37515 0.71724 0.16413 0.0
C2164 C 0.38743 0.71622 0.16443 0.0
C2165 C 0.39415 0.72327 0.15686 0.0
C2166 C 0.38872 0.7313 0.14937 0.0
H2167 H 0.35589 0.72503 0.12119 0.0
H2168 H 0.36777 0.72031 0.13052 0.0
H2169 H 0.35331 0.72228 0.13646 0.0
H2170 H 0.3603 0.72608 0.1568 0.0
H2171 H 0.36969 0.712 0.16983 0.0
H2172 H 0.66544 0.21016 0.13029 0.0
H2173 H 0.65221 0.22442 0.13905 0.0
H2174 H 0.64246 0.23673 0.10471 0.0
H2175 H 0.65582 0.22254 0.0958 0.0
H2176 H 0.64892 0.25458 0.11973 0.0
H2177 H 0.61658 0.22549 0.14111 0.0
H2178 H 0.63139 0.22175 0.14479 0.0
H2179 H 0.62648 0.2204 0.12987 0.0
C2180 C 0.66038 0.21577 0.12456 0.0
C2181 C 0.66174 0.2152 0.11232 0.0
C2182 C 0.65275 0.22388 0.1296 0.0
C2183 C 0.64624 0.23154 0.12253 0.0
C2184 C 0.64736 0.23084 0.11031 0.0
H2185 H 0.59539 0.27869 0.15539 0.0
H2186 H 0.60439 0.26466 0.14196 0.0
C2187 C 0.65499 0.22271 0.10524 0.0
C2188 C 0.639 0.24082 0.12799 0.0
H2189 H 0.61741 0.2453 0.14816 0.0
C2190 C 0.64192 0.25256 0.12582 0.0
C2191 C 0.62976 0.23818 0.1358 0.0
C2192 C 0.62578 0.22577 0.13795 0.0
C2193 C 0.63621 0.26173 0.1317 0.0
C2194 C 0.62751 0.25905 0.14009 0.0
C2195 C 0.62419 0.24733 0.14182 0.0
C2196 C 0.62213 0.26818 0.14758 0.0
C2197 C 0.63963 0.27419 0.12894 0.0
C2198 C 0.62913 0.27482 0.15519 0.0
C2199 C 0.62403 0.28286 0.16288 0.0
C2200 C 0.6118 0.28435 0.16318 0.0
C2201 C 0.60483 0.2778 0.1554 0.0
C2202 C 0.60995 0.26975 0.14772 0.0
H2203 H 0.64359 0.27491 0.12008 0.0
H2204 H 0.63196 0.28014 0.12944 0.0
H2205 H 0.64624 0.27719 0.1354 0.0
H2206 H 0.63853 0.27357 0.1554 0.0
H2207 H 0.62968 0.28771 0.16875 0.0
H2208 H 0.86979 0.78736 0.67138 0.0
H2209 H 0.8602 0.77316 0.65862 0.0
H2210 H 0.89352 0.76417 0.64332 0.0
H2211 H 0.90328 0.77827 0.65617 0.0
H2212 H 0.8596 0.77127 0.63416 0.0
H2213 H 0.88073 0.73252 0.65477 0.0
H2214 H 0.88101 0.74687 0.6614 0.0
H2215 H 0.89057 0.74354 0.64936 0.0
C2216 C 0.87511 0.78242 0.66528 0.0
C2217 C 0.88735 0.78391 0.6649 0.0
C2218 C 0.8696 0.77431 0.65798 0.0
C2219 C 0.87617 0.76749 0.65017 0.0
C2220 C 0.88832 0.76919 0.64946 0.0
H2221 H 0.843 0.72315 0.59684 0.0
H2222 H 0.85572 0.73738 0.60657 0.0
C2223 C 0.89387 0.77731 0.65677 0.0
C2224 C 0.87025 0.75846 0.64296 0.0
H2225 H 0.86802 0.72891 0.63889 0.0
C2226 C 0.86149 0.76201 0.63511 0.0
C2227 C 0.87267 0.74638 0.64435 0.0
C2228 C 0.88168 0.74204 0.65298 0.0
C2229 C 0.85497 0.7538 0.62869 0.0
C2230 C 0.85741 0.74173 0.63006 0.0
C2231 C 0.86626 0.73818 0.63781 0.0
C2232 C 0.85034 0.73263 0.6241 0.0
C2233 C 0.84526 0.75807 0.62081 0.0
C2234 C 0.84339 0.725 0.63075 0.0
C2235 C 0.83613 0.71684 0.62525 0.0
C2236 C 0.83573 0.7161 0.61295 0.0
C2237 C 0.84303 0.7235 0.60632 0.0
C2238 C 0.85027 0.73169 0.61185 0.0
H2239 H 0.843 0.76738 0.62251 0.0
H2240 H 0.84808 0.75729 0.61154 0.0
H2241 H 0.83726 0.75266 0.62197 0.0
H2242 H 0.84336 0.72556 0.64023 0.0
H2243 H 0.8307 0.71125 0.63065 0.0
H2244 H 0.222 0.90374 0.6562 0.0
H2245 H 0.23611 0.89441 0.64305 0.0
H2246 H 0.22481 0.8604 0.65493 0.0
H2247 H 0.21062 0.86958 0.66799 0.0
H2248 H 0.25449 0.87988 0.64977 0.0
H2249 H 0.22464 0.8568 0.61928 0.0
H2250 H 0.21975 0.86846 0.62879 0.0
H2251 H 0.22148 0.85384 0.6344 0.0
C2252 C 0.22239 0.89427 0.65591 0.0
C2253 C 0.21515 0.88742 0.66318 0.0
C2254 C 0.23048 0.88896 0.6484 0.0
C2255 C 0.23141 0.87672 0.64791 0.0
C2256 C 0.22408 0.86986 0.65499 0.0
H2257 H 0.28787 0.83096 0.63039 0.0
H2258 H 0.27373 0.84412 0.6395 0.0
C2259 C 0.21601 0.87515 0.66252 0.0
C2260 C 0.24054 0.87108 0.64061 0.0
H2261 H 0.24462 0.85037 0.61944 0.0
C2262 C 0.25234 0.87354 0.64303 0.0
C2263 C 0.23772 0.86293 0.63173 0.0
C2264 C 0.22521 0.86042 0.6283 0.0
C2265 C 0.2614 0.86766 0.63715 0.0
C2266 C 0.25857 0.859 0.62876 0.0
C2267 C 0.24677 0.85693 0.62597 0.0
C2268 C 0.26765 0.8516 0.62319 0.0
C2269 C 0.27393 0.87073 0.64003 0.0
C2270 C 0.26885 0.85134 0.61096 0.0
C2271 C 0.27691 0.84377 0.60569 0.0
C2272 C 0.28385 0.83623 0.61255 0.0
C2273 C 0.28271 0.83665 0.62482 0.0
C2274 C 0.27467 0.84423 0.63007 0.0
H2275 H 0.27463 0.87966 0.64384 0.0
H2276 H 0.27733 0.86442 0.64658 0.0
H2277 H 0.27956 0.87026 0.63212 0.0
H2278 H 0.26346 0.85692 0.6055 0.0
H2279 H 0.27752 0.84368 0.59623 0.0
H2280 H 0.12995 0.21206 0.66889 0.0
H2281 H 0.13917 0.22636 0.65596 0.0
H2282 H 0.10528 0.23656 0.64282 0.0
H2283 H 0.0959 0.22235 0.65585 0.0
H2284 H 0.13828 0.229 0.63139 0.0
H2285 H 0.11966 0.2675 0.65475 0.0
H2286 H 0.11947 0.25295 0.6609 0.0
H2287 H 0.10926 0.25687 0.6496 0.0
C2288 C 0.12442 0.21729 0.66323 0.0
C2289 C 0.11215 0.21612 0.66352 0.0
C2290 C 0.12972 0.22545 0.65582 0.0
C2291 C 0.12289 0.23263 0.64858 0.0
C2292 C 0.11069 0.23124 0.64851 0.0
H2293 H 0.15566 0.2782 0.59584 0.0
H2294 H 0.14259 0.26408 0.60528 0.0
C2295 C 0.10535 0.22306 0.65592 0.0
C2296 C 0.12864 0.24176 0.64136 0.0
H2297 H 0.13185 0.27137 0.63856 0.0
C2298 C 0.13681 0.23826 0.63287 0.0
C2299 C 0.12676 0.25383 0.64341 0.0
C2300 C 0.11839 0.25808 0.65271 0.0
C2301 C 0.14331 0.24653 0.6265 0.0
C2302 C 0.14147 0.2586 0.62859 0.0
C2303 C 0.13316 0.2621 0.63693 0.0
C2304 C 0.14872 0.2677 0.62283 0.0
C2305 C 0.15242 0.24227 0.61792 0.0
C2306 C 0.1562 0.27469 0.62962 0.0
C2307 C 0.16364 0.2828 0.62428 0.0
C2308 C 0.16372 0.28412 0.61203 0.0
C2309 C 0.1559 0.27738 0.60528 0.0
C2310 C 0.14846 0.26925 0.61065 0.0
H2311 H 0.15435 0.2328 0.61904 0.0
H2312 H 0.14918 0.24364 0.60886 0.0
H2313 H 0.1607 0.24728 0.61893 0.0
H2314 H 0.1565 0.27366 0.63905 0.0
H2315 H 0.16948 0.28787 0.62977 0.0
H2316 H 0.77797 0.09519 0.65658 0.0
H2317 H 0.76406 0.10444 0.64316 0.0
H2318 H 0.77442 0.13848 0.65579 0.0
H2319 H 0.78841 0.12939 0.66911 0.0
H2320 H 0.74526 0.11847 0.64948 0.0
H2321 H 0.77549 0.14264 0.62025 0.0
H2322 H 0.78035 0.13096 0.62975 0.0
H2323 H 0.77814 0.14547 0.63548 0.0
C2324 C 0.77741 0.10465 0.65641 0.0
C2325 C 0.78433 0.11153 0.66396 0.0
C2326 C 0.76944 0.10992 0.64874 0.0
C2327 C 0.76831 0.12215 0.64838 0.0
C2328 C 0.77531 0.12904 0.65575 0.0
H2329 H 0.71164 0.16725 0.63036 0.0
H2330 H 0.72577 0.15408 0.63949 0.0
C2331 C 0.78326 0.1238 0.66343 0.0
C2332 C 0.75928 0.12772 0.64089 0.0
H2333 H 0.75538 0.14873 0.62 0.0
C2334 C 0.74747 0.12498 0.64292 0.0
C2335 C 0.76219 0.13608 0.63223 0.0
C2336 C 0.77474 0.13889 0.6292 0.0
C2337 C 0.73846 0.13078 0.6369 0.0
C2338 C 0.74136 0.13966 0.62877 0.0
C2339 C 0.75318 0.14201 0.62633 0.0
C2340 C 0.73228 0.14704 0.62314 0.0
C2341 C 0.72593 0.12742 0.63936 0.0
C2342 C 0.73133 0.14755 0.61091 0.0
C2343 C 0.72327 0.15512 0.60563 0.0
C2344 C 0.7161 0.16242 0.6125 0.0
C2345 C 0.71699 0.16175 0.62477 0.0
C2346 C 0.72502 0.15417 0.63003 0.0
H2347 H 0.7253 0.1184 0.64296 0.0
H2348 H 0.72222 0.13352 0.64595 0.0
H2349 H 0.7205 0.12796 0.63131 0.0
H2350 H 0.73692 0.14217 0.60544 0.0
H2351 H 0.72286 0.15541 0.59615 0.0
H2352 H 0.9034 0.22233 0.3441 0.0
H2353 H 0.89411 0.23649 0.35722 0.0
H2354 H 0.86007 0.22522 0.34537 0.0
H2355 H 0.86922 0.21099 0.33234 0.0
H2356 H 0.87963 0.25487 0.35052 0.0
H2357 H 0.85651 0.22508 0.38103 0.0
H2358 H 0.86814 0.22017 0.3715 0.0
H2359 H 0.85351 0.22193 0.36592 0.0
C2360 C 0.89393 0.22274 0.34438 0.0
C2361 C 0.88707 0.2155 0.33713 0.0
C2362 C 0.88864 0.23086 0.35188 0.0
C2363 C 0.87641 0.23181 0.35237 0.0
C2364 C 0.86953 0.22448 0.3453 0.0
H2365 H 0.83086 0.28842 0.36987 0.0
H2366 H 0.84396 0.27421 0.36078 0.0
C2367 C 0.87479 0.21639 0.33779 0.0
C2368 C 0.87079 0.24095 0.35967 0.0
H2369 H 0.85012 0.24508 0.38086 0.0
C2370 C 0.87328 0.25274 0.35726 0.0
C2371 C 0.86264 0.23814 0.36857 0.0
C2372 C 0.86012 0.22564 0.37201 0.0
C2373 C 0.86744 0.26182 0.36314 0.0
C2374 C 0.85878 0.259 0.37153 0.0
C2375 C 0.85667 0.24722 0.37433 0.0
C2376 C 0.85139 0.26811 0.3771 0.0
C2377 C 0.87055 0.27433 0.36028 0.0
C2378 C 0.85112 0.26931 0.38933 0.0
C2379 C 0.84358 0.2774 0.39459 0.0
C2380 C 0.83609 0.28438 0.38772 0.0
C2381 C 0.83651 0.28324 0.37545 0.0
C2382 C 0.84406 0.27516 0.37021 0.0
H2383 H 0.87949 0.27501 0.35649 0.0
H2384 H 0.86426 0.27776 0.35371 0.0
H2385 H 0.87007 0.27997 0.36818 0.0
H2386 H 0.85667 0.26389 0.3948 0.0
H2387 H 0.84348 0.27802 0.40405 0.0
H2388 H 0.77787 0.90394 0.34383 0.0
H2389 H 0.76389 0.89444 0.35698 0.0
H2390 H 0.77442 0.86063 0.34387 0.0
H2391 H 0.78849 0.86999 0.33079 0.0
H2392 H 0.74515 0.88031 0.35029 0.0
H2393 H 0.77546 0.85611 0.37944 0.0
H2394 H 0.78025 0.86796 0.37013 0.0
H2395 H 0.77817 0.85353 0.36417 0.0
C2396 C 0.77733 0.89447 0.34383 0.0
C2397 C 0.78433 0.88774 0.33622 0.0
C2398 C 0.76932 0.88906 0.35135 0.0
C2399 C 0.76822 0.87683 0.3515 0.0
C2400 C 0.77529 0.87008 0.34406 0.0
H2401 H 0.7116 0.83151 0.3698 0.0
H2402 H 0.72573 0.84454 0.36048 0.0
C2403 C 0.78328 0.87546 0.33653 0.0
C2404 C 0.75921 0.87112 0.35888 0.0
H2405 H 0.75538 0.85009 0.37978 0.0
C2406 C 0.74738 0.8738 0.35683 0.0
C2407 C 0.76214 0.86275 0.36753 0.0
C2408 C 0.7747 0.85999 0.37055 0.0
C2409 C 0.7384 0.86796 0.36285 0.0
C2410 C 0.74132 0.85911 0.37101 0.0
C2411 C 0.75315 0.85679 0.37343 0.0
C2412 C 0.73227 0.85178 0.37673 0.0
C2413 C 0.72584 0.87126 0.36038 0.0
C2414 C 0.73133 0.85143 0.38897 0.0
C2415 C 0.72326 0.84395 0.39436 0.0
C2416 C 0.71607 0.83657 0.38759 0.0
C2417 C 0.71696 0.83707 0.3753 0.0
C2418 C 0.725 0.84457 0.36994 0.0
H2419 H 0.72518 0.88023 0.35667 0.0
H2420 H 0.72213 0.86506 0.35388 0.0
H2421 H 0.72044 0.8708 0.36845 0.0
H2422 H 0.73692 0.85688 0.39436 0.0
H2423 H 0.72285 0.84378 0.40383 0.0
H2424 H 0.15625 0.72327 0.40396 0.0
H2425 H 0.14296 0.73726 0.39464 0.0
H2426 H 0.1552 0.72635 0.36063 0.0
H2427 H 0.1684 0.71229 0.36979 0.0
H2428 H 0.14947 0.75583 0.38022 0.0
H2429 H 0.11955 0.72561 0.35688 0.0
H2430 H 0.12908 0.72083 0.36857 0.0
H2431 H 0.13473 0.7227 0.35399 0.0
C2432 C 0.15602 0.72372 0.39449 0.0
C2433 C 0.16342 0.71663 0.38763 0.0
C2434 C 0.14842 0.73174 0.38919 0.0
C2435 C 0.14799 0.73274 0.37695 0.0
C2436 C 0.15522 0.72556 0.37008 0.0
H2437 H 0.12997 0.78907 0.3313 0.0
H2438 H 0.13918 0.77499 0.34446 0.0
C2439 C 0.16283 0.71757 0.37536 0.0
C2440 C 0.14058 0.74178 0.37132 0.0
H2441 H 0.11946 0.74562 0.35052 0.0
C2442 C 0.1428 0.75361 0.37384 0.0
C2443 C 0.13177 0.73886 0.36312 0.0
C2444 C 0.12854 0.7263 0.36055 0.0
C2445 C 0.13683 0.7626 0.36796 0.0
C2446 C 0.12853 0.75967 0.35925 0.0
C2447 C 0.12591 0.74785 0.35712 0.0
C2448 C 0.12289 0.7687 0.35182 0.0
C2449 C 0.1395 0.77516 0.37109 0.0
C2450 C 0.11065 0.76975 0.35149 0.0
C2451 C 0.10533 0.77777 0.34391 0.0
C2452 C 0.11215 0.78482 0.33644 0.0
C2453 C 0.12443 0.78382 0.33692 0.0
C2454 C 0.12973 0.77582 0.34451 0.0
H2455 H 0.14324 0.77588 0.38004 0.0
H2456 H 0.14605 0.77868 0.36483 0.0
H2457 H 0.13151 0.78068 0.37058 0.0
H2458 H 0.10522 0.76428 0.35702 0.0
H2459 H 0.09586 0.77828 0.34377 0.0
H2460 H 0.21135 0.1306 0.33102 0.0
H2461 H 0.22577 0.14001 0.34366 0.0
H2462 H 0.23601 0.10633 0.35731 0.0
H2463 H 0.22168 0.09676 0.34457 0.0
H2464 H 0.22857 0.13963 0.36813 0.0
H2465 H 0.26691 0.12036 0.34505 0.0
H2466 H 0.25232 0.12005 0.33898 0.0
H2467 H 0.2563 0.11006 0.35045 0.0
C2468 C 0.21661 0.12516 0.33673 0.0
C2469 C 0.21541 0.11289 0.33667 0.0
C2470 C 0.22484 0.13057 0.34397 0.0
C2471 C 0.23207 0.12385 0.35128 0.0
C2472 C 0.23065 0.11165 0.35157 0.0
H2473 H 0.27776 0.15664 0.40377 0.0
H2474 H 0.26348 0.14376 0.39432 0.0
C2475 C 0.22241 0.10621 0.34432 0.0
C2476 C 0.24125 0.12969 0.35835 0.0
H2477 H 0.27089 0.13261 0.36118 0.0
C2478 C 0.23783 0.13804 0.36669 0.0
C2479 C 0.25331 0.12767 0.35634 0.0
C2480 C 0.25749 0.11912 0.34717 0.0
C2481 C 0.24615 0.14454 0.37299 0.0
C2482 C 0.2582 0.14251 0.37099 0.0
C2483 C 0.26163 0.13406 0.36275 0.0
C2484 C 0.26737 0.14966 0.37675 0.0
C2485 C 0.24197 0.15384 0.38141 0.0
C2486 C 0.27456 0.15694 0.36996 0.0
C2487 C 0.28276 0.16427 0.3753 0.0
C2488 C 0.28398 0.16444 0.38757 0.0
C2489 C 0.27702 0.15681 0.39432 0.0
C2490 C 0.26881 0.14948 0.38895 0.0
H2491 H 0.23255 0.15592 0.38016 0.0
H2492 H 0.24318 0.15068 0.39052 0.0
H2493 H 0.24713 0.16201 0.38035 0.0
H2494 H 0.27362 0.15717 0.36052 0.0
H2495 H 0.288 0.16996 0.3698 0.0
H2496 H 0.66928 0.86957 0.78843 0.0
H2497 H 0.65649 0.86028 0.77405 0.0
H2498 H 0.64284 0.89405 0.76413 0.0
H2499 H 0.65571 0.90351 0.77841 0.0
H2500 H 0.63191 0.8608 0.77142 0.0
H2501 H 0.65493 0.88013 0.73307 0.0
H2502 H 0.66109 0.88029 0.74763 0.0
H2503 H 0.64966 0.89038 0.74379 0.0
C2504 C 0.66354 0.87506 0.78325 0.0
C2505 C 0.66363 0.88732 0.78452 0.0
C2506 C 0.65621 0.86971 0.77504 0.0
C2507 C 0.64886 0.87649 0.76791 0.0
C2508 C 0.64861 0.88868 0.76941 0.0
H2509 H 0.59614 0.84397 0.72219 0.0
H2510 H 0.60559 0.85679 0.73653 0.0
C2511 C 0.65594 0.89406 0.77763 0.0
C2512 C 0.64171 0.87073 0.75875 0.0
H2513 H 0.63877 0.86793 0.72911 0.0
C2514 C 0.63333 0.86242 0.76217 0.0
C2515 C 0.64368 0.87279 0.74669 0.0
C2516 C 0.65289 0.88131 0.74251 0.0
C2517 C 0.62696 0.85598 0.75385 0.0
C2518 C 0.62895 0.85803 0.74179 0.0
C2519 C 0.63721 0.86646 0.73837 0.0
C2520 C 0.62317 0.85091 0.73261 0.0
C2521 C 0.6185 0.84672 0.75802 0.0
C2522 C 0.62995 0.84365 0.72539 0.0
C2523 C 0.62461 0.83636 0.71715 0.0
C2524 C 0.61234 0.8362 0.71593 0.0
C2525 C 0.60559 0.8438 0.72293 0.0
C2526 C 0.61097 0.85109 0.73118 0.0
H2527 H 0.61974 0.84463 0.76744 0.0
H2528 H 0.6094 0.84993 0.75682 0.0
H2529 H 0.61951 0.83855 0.75285 0.0
H2530 H 0.63939 0.84342 0.72632 0.0
H2531 H 0.63011 0.8307 0.71189 0.0
H2532 H 0.16345 0.6285 0.70636 0.0
H2533 H 0.15111 0.63836 0.72081 0.0
H2534 H 0.14996 0.60676 0.74149 0.0
H2535 H 0.16187 0.5967 0.72681 0.0
H2536 H 0.12934 0.61725 0.74189 0.0
H2537 H 0.16359 0.65024 0.75123 0.0
H2538 H 0.15927 0.65042 0.73614 0.0
H2539 H 0.16629 0.63762 0.74214 0.0
C2540 C 0.16049 0.62363 0.71394 0.0
C2541 C 0.16374 0.61186 0.71551 0.0
C2542 C 0.15351 0.6293 0.72224 0.0
C2543 C 0.14991 0.62341 0.73242 0.0
C2544 C 0.15272 0.61152 0.73376 0.0
H2545 H 0.12862 0.66243 0.79422 0.0
H2546 H 0.13859 0.64945 0.78042 0.0
C2547 C 0.15953 0.60577 0.72535 0.0
C2548 C 0.14348 0.62973 0.74181 0.0
H2549 H 0.14475 0.65392 0.75931 0.0
C2550 C 0.13273 0.62523 0.74576 0.0
C2551 C 0.14803 0.64 0.74707 0.0
C2552 C 0.15999 0.64478 0.74402 0.0
C2553 C 0.12631 0.63085 0.75463 0.0
C2554 C 0.13056 0.64147 0.75942 0.0
C2555 C 0.14141 0.64584 0.75559 0.0
C2556 C 0.12399 0.64832 0.76835 0.0
C2557 C 0.11518 0.62516 0.75894 0.0
C2558 C 0.11241 0.65191 0.76628 0.0
C2559 C 0.10661 0.65913 0.77429 0.0
C2560 C 0.11241 0.66318 0.78437 0.0
C2561 C 0.12395 0.65949 0.7865 0.0
C2562 C 0.12965 0.65208 0.77861 0.0
H2563 H 0.11532 0.61554 0.75745 0.0
H2564 H 0.11378 0.6268 0.76842 0.0
H2565 H 0.10763 0.62879 0.75402 0.0
H2566 H 0.10795 0.64945 0.75828 0.0
H2567 H 0.09776 0.66194 0.77234 0.0
H2568 H 0.33145 0.13026 0.789 0.0
H2569 H 0.34416 0.13962 0.7746 0.0
H2570 H 0.35791 0.10591 0.76461 0.0
H2571 H 0.34509 0.09638 0.7789 0.0
H2572 H 0.36862 0.13934 0.77172 0.0
H2573 H 0.34552 0.11961 0.73363 0.0
H2574 H 0.3395 0.11939 0.74824 0.0
H2575 H 0.35102 0.10943 0.7443 0.0
C2576 C 0.33721 0.1248 0.78381 0.0
C2577 C 0.33714 0.11254 0.78505 0.0
C2578 C 0.34449 0.13018 0.77559 0.0
C2579 C 0.35182 0.12344 0.76841 0.0
C2580 C 0.35214 0.11125 0.76991 0.0
H2581 H 0.40389 0.15633 0.72224 0.0
H2582 H 0.39463 0.14344 0.73663 0.0
C2583 C 0.34485 0.10583 0.77814 0.0
C2584 C 0.35885 0.12924 0.75916 0.0
H2585 H 0.36154 0.13194 0.72949 0.0
C2586 C 0.36716 0.13766 0.76249 0.0
C2587 C 0.35681 0.1271 0.74713 0.0
C2588 C 0.34767 0.11847 0.74305 0.0
C2589 C 0.37338 0.14414 0.75409 0.0
C2590 C 0.37133 0.14202 0.74205 0.0
C2591 C 0.36315 0.13348 0.73873 0.0
C2592 C 0.37698 0.14915 0.7328 0.0
C2593 C 0.38176 0.15352 0.75816 0.0
C2594 C 0.37009 0.15633 0.7256 0.0
C2595 C 0.37532 0.16366 0.71733 0.0
C2596 C 0.38758 0.16395 0.71606 0.0
C2597 C 0.39444 0.15641 0.72301 0.0
C2598 C 0.38917 0.14907 0.7313 0.0
H2599 H 0.38055 0.15565 0.76757 0.0
H2600 H 0.39088 0.15043 0.75691 0.0
H2601 H 0.38061 0.16166 0.75295 0.0
H2602 H 0.36065 0.15647 0.72659 0.0
H2603 H 0.36975 0.16928 0.7121 0.0
H2604 H 0.86986 0.32879 0.78606 0.0
H2605 H 0.8605 0.34141 0.77158 0.0
H2606 H 0.89389 0.35702 0.76338 0.0
H2607 H 0.90342 0.34431 0.77775 0.0
H2608 H 0.85973 0.36585 0.76977 0.0
H2609 H 0.8819 0.34564 0.7314 0.0
H2610 H 0.88193 0.33894 0.74572 0.0
H2611 H 0.89145 0.35108 0.74266 0.0
C2612 C 0.87525 0.33492 0.78123 0.0
C2613 C 0.88743 0.33544 0.78303 0.0
C2614 C 0.86986 0.34214 0.77296 0.0
C2615 C 0.87653 0.35001 0.76628 0.0
C2616 C 0.88862 0.35084 0.76828 0.0
H2617 H 0.8439 0.40342 0.72171 0.0
H2618 H 0.85655 0.39363 0.73596 0.0
C2619 C 0.89404 0.3436 0.77655 0.0
C2620 C 0.87074 0.3572 0.75715 0.0
H2621 H 0.86915 0.36145 0.72758 0.0
C2622 C 0.86184 0.36496 0.76055 0.0
C2623 C 0.87345 0.35592 0.74513 0.0
C2624 C 0.88263 0.34738 0.74094 0.0
C2625 C 0.85547 0.37139 0.75223 0.0
C2626 C 0.85819 0.37013 0.74022 0.0
C2627 C 0.86717 0.36246 0.73682 0.0
C2628 C 0.85129 0.37612 0.73101 0.0
C2629 C 0.8456 0.37917 0.75633 0.0
C2630 C 0.84445 0.36949 0.72325 0.0
C2631 C 0.83723 0.37504 0.71508 0.0
C2632 C 0.83676 0.38734 0.71446 0.0
C2633 C 0.84399 0.39394 0.72196 0.0
C2634 C 0.85119 0.38837 0.73016 0.0
H2635 H 0.84316 0.3774 0.76558 0.0
H2636 H 0.84836 0.38847 0.75566 0.0
H2637 H 0.83773 0.37797 0.75075 0.0
H2638 H 0.84446 0.36002 0.72374 0.0
H2639 H 0.83185 0.36966 0.70941 0.0
H2640 H 0.66271 0.09821 0.22741 0.0
H2641 H 0.65041 0.10846 0.24159 0.0
H2642 H 0.65063 0.13921 0.21961 0.0
H2643 H 0.66341 0.12917 0.20568 0.0
H2644 H 0.65514 0.14521 0.24083 0.0
H2645 H 0.61653 0.11604 0.24232 0.0
H2646 H 0.62972 0.10825 0.24572 0.0
H2647 H 0.62781 0.11453 0.23136 0.0
C2648 C 0.65999 0.1071 0.22552 0.0
C2649 C 0.66403 0.11289 0.21543 0.0
C2650 C 0.65288 0.11293 0.2336 0.0
C2651 C 0.64939 0.12456 0.2316 0.0
C2652 C 0.65317 0.13024 0.22136 0.0
H2653 H 0.59758 0.16234 0.27284 0.0
H2654 H 0.60785 0.15055 0.25821 0.0
C2655 C 0.66047 0.12449 0.21339 0.0
C2656 C 0.64258 0.13112 0.24056 0.0
H2657 H 0.61823 0.12999 0.25791 0.0
C2658 C 0.64701 0.14191 0.24448 0.0
C2659 C 0.63189 0.12692 0.24525 0.0
C2660 C 0.62615 0.11586 0.24085 0.0
C2661 C 0.64116 0.14854 0.253 0.0
C2662 C 0.63081 0.14405 0.25814 0.0
C2663 C 0.62627 0.13335 0.25412 0.0
C2664 C 0.6244 0.15051 0.26745 0.0
C2665 C 0.64601 0.16044 0.25613 0.0
C2666 C 0.63017 0.15411 0.27771 0.0
C2667 C 0.62438 0.16103 0.28598 0.0
C2668 C 0.61261 0.16421 0.28431 0.0
C2669 C 0.60665 0.16003 0.27437 0.0
C2670 C 0.61251 0.15329 0.266 0.0
H2671 H 0.65157 0.16403 0.249 0.0
H2672 H 0.63889 0.1668 0.25797 0.0
H2673 H 0.65157 0.15964 0.26407 0.0
H2674 H 0.63922 0.15172 0.27924 0.0
H2675 H 0.62915 0.16397 0.29363 0.0
H2676 H 0.8701 0.66987 0.21254 0.0
H2677 H 0.86082 0.65701 0.22685 0.0
H2678 H 0.89459 0.64327 0.23665 0.0
H2679 H 0.90404 0.65623 0.22243 0.0
H2680 H 0.86131 0.63247 0.22921 0.0
H2681 H 0.88069 0.65497 0.26784 0.0
H2682 H 0.8809 0.6613 0.25336 0.0
H2683 H 0.89092 0.64977 0.25707 0.0
C2684 C 0.8756 0.6641 0.21768 0.0
C2685 C 0.88785 0.66419 0.21638 0.0
C2686 C 0.87026 0.65674 0.22585 0.0
C2687 C 0.87703 0.64933 0.23292 0.0
C2688 C 0.88922 0.64909 0.23142 0.0
H2689 H 0.84398 0.59643 0.27808 0.0
H2690 H 0.85701 0.60589 0.26394 0.0
C2691 C 0.8946 0.65646 0.22324 0.0
C2692 C 0.87125 0.64209 0.24201 0.0
H2693 H 0.86833 0.63889 0.27161 0.0
C2694 C 0.8629 0.63379 0.23848 0.0
C2695 C 0.87329 0.64393 0.25409 0.0
C2696 C 0.88186 0.65303 0.25838 0.0
C2697 C 0.85639 0.62739 0.24672 0.0
C2698 C 0.8584 0.62926 0.2588 0.0
C2699 C 0.86688 0.63743 0.26233 0.0
C2700 C 0.85117 0.62348 0.26789 0.0
C2701 C 0.8471 0.61903 0.24244 0.0
C2702 C 0.84387 0.63026 0.27507 0.0
C2703 C 0.83645 0.62491 0.28318 0.0
C2704 C 0.83622 0.61263 0.28433 0.0
C2705 C 0.84386 0.60589 0.27739 0.0
C2706 C 0.85128 0.61127 0.26926 0.0
H2707 H 0.84508 0.62033 0.23301 0.0
H2708 H 0.8502 0.6099 0.24363 0.0
H2709 H 0.83889 0.6201 0.24755 0.0
H2710 H 0.8437 0.63971 0.27418 0.0
H2711 H 0.83075 0.6304 0.2884 0.0
H2712 H 0.34395 0.90321 0.22201 0.0
H2713 H 0.35716 0.8936 0.23587 0.0
H2714 H 0.34241 0.86005 0.22681 0.0
H2715 H 0.32929 0.86949 0.21285 0.0
H2716 H 0.3508 0.88035 0.25524 0.0
H2717 H 0.37758 0.85399 0.22454 0.0
H2718 H 0.36849 0.86601 0.21974 0.0
H2719 H 0.36212 0.85189 0.22261 0.0
C2720 C 0.34359 0.89377 0.22285 0.0
C2721 C 0.33554 0.88713 0.21628 0.0
C2722 C 0.35114 0.8883 0.2308 0.0
C2723 C 0.35087 0.87611 0.23226 0.0
C2724 C 0.34294 0.86945 0.22564 0.0
H2725 H 0.37017 0.83167 0.28939 0.0
H2726 H 0.36058 0.84456 0.27528 0.0
C2727 C 0.33539 0.87489 0.21771 0.0
C2728 C 0.35838 0.87036 0.24115 0.0
H2729 H 0.37856 0.8486 0.24478 0.0
C2730 C 0.35697 0.8735 0.25295 0.0
C2731 C 0.36653 0.86153 0.23813 0.0
C2732 C 0.36887 0.85822 0.22555 0.0
C2733 C 0.36315 0.8677 0.26186 0.0
C2734 C 0.37081 0.85844 0.25888 0.0
C2735 C 0.37259 0.85563 0.24705 0.0
C2736 C 0.37671 0.85123 0.26792 0.0
C2737 C 0.36139 0.87149 0.2744 0.0
C2738 C 0.38897 0.85064 0.26839 0.0
C2739 C 0.3945 0.84326 0.27645 0.0
C2740 C 0.38787 0.83622 0.28409 0.0
C2741 C 0.37557 0.83696 0.28366 0.0
C2742 C 0.37006 0.84438 0.27565 0.0
H2743 H 0.3579 0.88056 0.27494 0.0
H2744 H 0.35498 0.86555 0.27865 0.0
H2745 H 0.36972 0.87103 0.27938 0.0
H2746 H 0.39425 0.85582 0.26244 0.0
H2747 H 0.40398 0.84289 0.27649 0.0
H2748 H 0.16844 0.37027 0.28829 0.0
H2749 H 0.15551 0.36094 0.27408 0.0
H2750 H 0.14264 0.39477 0.26335 0.0
H2751 H 0.15567 0.40427 0.27749 0.0
H2752 H 0.131 0.36189 0.27129 0.0
H2753 H 0.15461 0.37993 0.23267 0.0
H2754 H 0.16069 0.38031 0.24726 0.0
H2755 H 0.14943 0.39049 0.24314 0.0
C2756 C 0.16284 0.37577 0.28297 0.0
C2757 C 0.16321 0.38805 0.28398 0.0
C2758 C 0.15543 0.3704 0.27486 0.0
C2759 C 0.14826 0.37717 0.26755 0.0
C2760 C 0.14826 0.3894 0.26878 0.0
H2761 H 0.09579 0.34374 0.22208 0.0
H2762 H 0.10509 0.35695 0.23616 0.0
C2763 C 0.15568 0.3948 0.27691 0.0
C2764 C 0.14105 0.37134 0.25846 0.0
H2765 H 0.13844 0.36771 0.22889 0.0
C2766 C 0.13253 0.36323 0.26202 0.0
C2767 C 0.14318 0.37304 0.24638 0.0
C2768 C 0.15253 0.38134 0.24207 0.0
C2769 C 0.12621 0.35661 0.2538 0.0
C2770 C 0.12838 0.35827 0.24172 0.0
C2771 C 0.13675 0.36653 0.23816 0.0
C2772 C 0.12269 0.35088 0.23268 0.0
C2773 C 0.11761 0.34756 0.25814 0.0
C2774 C 0.12955 0.34338 0.22578 0.0
C2775 C 0.12429 0.33587 0.21769 0.0
C2776 C 0.11204 0.33572 0.2163 0.0
C2777 C 0.10523 0.34355 0.22297 0.0
C2778 C 0.11052 0.35107 0.23107 0.0
H2779 H 0.11869 0.34575 0.26764 0.0
H2780 H 0.10856 0.35079 0.2567 0.0
H2781 H 0.11863 0.33922 0.25325 0.0
H2782 H 0.13897 0.34314 0.22686 0.0
H2783 H 0.12984 0.33002 0.21269 0.0
H2784 H 0.79338 0.66419 0.87133 0.0
H2785 H 0.77891 0.65191 0.86141 0.0
H2786 H 0.75817 0.65075 0.89297 0.0
H2787 H 0.77287 0.6626 0.90309 0.0
H2788 H 0.75783 0.63015 0.88258 0.0
H2789 H 0.7485 0.66419 0.84938 0.0
H2790 H 0.7636 0.65991 0.84924 0.0
H2791 H 0.75757 0.66698 0.86199 0.0
C2792 C 0.78577 0.66125 0.87617 0.0
C2793 C 0.7842 0.66446 0.88795 0.0
C2794 C 0.77746 0.65431 0.87047 0.0
C2795 C 0.76727 0.6507 0.87634 0.0
C2796 C 0.76591 0.65351 0.88823 0.0
H2797 H 0.70567 0.6289 0.83723 0.0
H2798 H 0.71939 0.63904 0.85016 0.0
C2799 C 0.77433 0.66027 0.89401 0.0
C2800 C 0.75792 0.64422 0.87001 0.0
H2801 H 0.74052 0.6453 0.84575 0.0
C2802 C 0.75398 0.63349 0.87456 0.0
C2803 C 0.75269 0.6487 0.8597 0.0
C2804 C 0.75571 0.66064 0.85487 0.0
C2805 C 0.74515 0.627 0.86895 0.0
C2806 C 0.74041 0.63118 0.85827 0.0
C2807 C 0.74421 0.64201 0.85386 0.0
C2808 C 0.73154 0.62452 0.85143 0.0
C2809 C 0.74085 0.6159 0.87468 0.0
C2810 C 0.73368 0.61292 0.84793 0.0
C2811 C 0.72572 0.60703 0.84073 0.0
C2812 C 0.71561 0.61273 0.83663 0.0
C2813 C 0.71341 0.62429 0.84022 0.0
C2814 C 0.72125 0.6301 0.8476 0.0
H2815 H 0.7423 0.6161 0.8843 0.0
H2816 H 0.73139 0.61446 0.873 0.0
H2817 H 0.74582 0.60834 0.87113 0.0
H2818 H 0.7417 0.60853 0.85044 0.0
H2819 H 0.72772 0.59817 0.83799 0.0
H2820 H 0.77848 0.34483 0.09633 0.0
H2821 H 0.76438 0.35775 0.10598 0.0
H2822 H 0.77421 0.34355 0.13955 0.0
H2823 H 0.78839 0.33068 0.13005 0.0
H2824 H 0.74533 0.35075 0.11958 0.0
H2825 H 0.77544 0.379 0.14509 0.0
H2826 H 0.78035 0.37 0.13305 0.0
H2827 H 0.77797 0.36364 0.14726 0.0
C2828 C 0.77776 0.34454 0.10578 0.0
C2829 C 0.7846 0.33669 0.11241 0.0
C2830 C 0.76968 0.35192 0.11127 0.0
C2831 C 0.76835 0.3517 0.12348 0.0
C2832 C 0.77525 0.34402 0.13013 0.0
H2833 H 0.71103 0.36974 0.16816 0.0
H2834 H 0.72529 0.36048 0.15523 0.0
C2835 C 0.78332 0.33661 0.12467 0.0
C2836 C 0.75928 0.35899 0.12924 0.0
H2837 H 0.75524 0.37947 0.15064 0.0
C2838 C 0.74749 0.35712 0.12628 0.0
C2839 C 0.76214 0.36741 0.13786 0.0
C2840 C 0.77467 0.37024 0.14094 0.0
C2841 C 0.73845 0.36312 0.13207 0.0
C2842 C 0.74128 0.37106 0.14114 0.0
C2843 C 0.75309 0.37329 0.14375 0.0
C2844 C 0.73214 0.37676 0.14838 0.0
C2845 C 0.72595 0.36085 0.12846 0.0
C2846 C 0.73133 0.38901 0.1489 0.0
C2847 C 0.72319 0.39436 0.15632 0.0
C2848 C 0.71579 0.38756 0.16347 0.0
C2849 C 0.71655 0.37527 0.16279 0.0
C2850 C 0.72466 0.36994 0.15534 0.0
H2851 H 0.72542 0.35729 0.11943 0.0
H2852 H 0.72202 0.35431 0.13449 0.0
H2853 H 0.72064 0.36899 0.12893 0.0
H2854 H 0.73707 0.39442 0.14364 0.0
H2855 H 0.72288 0.40384 0.15664 0.0
H2856 H 0.67019 0.78798 0.13046 0.0
H2857 H 0.65734 0.77378 0.13995 0.0
H2858 H 0.64387 0.76324 0.1063 0.0
H2859 H 0.65679 0.77735 0.09665 0.0
H2860 H 0.6327 0.77125 0.13925 0.0
H2861 H 0.6558 0.73242 0.12101 0.0
H2862 H 0.66202 0.74695 0.12063 0.0
H2863 H 0.65071 0.74295 0.11047 0.0
C2864 C 0.66448 0.78269 0.12504 0.0
C2865 C 0.66463 0.78376 0.11276 0.0
C2866 C 0.65712 0.77459 0.1305 0.0
C2867 C 0.64979 0.76735 0.12382 0.0
C2868 C 0.64962 0.76862 0.1116 0.0
H2869 H 0.59639 0.72245 0.1563 0.0
H2870 H 0.60615 0.73659 0.14349 0.0
C2871 C 0.65697 0.77674 0.10611 0.0
C2872 C 0.64256 0.75833 0.12971 0.0
H2873 H 0.63945 0.72877 0.13306 0.0
C2874 C 0.63409 0.76196 0.13784 0.0
C2875 C 0.64451 0.74623 0.12792 0.0
C2876 C 0.65381 0.74185 0.11961 0.0
C2877 C 0.62761 0.75379 0.14436 0.0
C2878 C 0.62955 0.74169 0.14257 0.0
C2879 C 0.63792 0.73806 0.13433 0.0
C2880 C 0.62359 0.73267 0.14976 0.0
C2881 C 0.61903 0.75818 0.15341 0.0
C2882 C 0.6302 0.72552 0.15724 0.0
C2883 C 0.62468 0.7174 0.16452 0.0
C2884 C 0.61241 0.71622 0.16445 0.0
C2885 C 0.60584 0.72315 0.15665 0.0
C2886 C 0.61139 0.7313 0.14936 0.0
H2887 H 0.6203 0.76763 0.15535 0.0
H2888 H 0.60998 0.75698 0.15009 0.0
H2889 H 0.61989 0.75316 0.16169 0.0
H2890 H 0.63964 0.72641 0.15763 0.0
H2891 H 0.63005 0.71218 0.17035 0.0
H2892 H 0.28697 0.62946 0.17109 0.0
H2893 H 0.27267 0.63932 0.15862 0.0
H2894 H 0.26342 0.60628 0.14286 0.0
H2895 H 0.27763 0.59627 0.15537 0.0
H2896 H 0.27058 0.63994 0.13377 0.0
H2897 H 0.23196 0.6194 0.15523 0.0
H2898 H 0.24639 0.61917 0.16169 0.0
H2899 H 0.2429 0.60945 0.14983 0.0
C2900 C 0.28195 0.62426 0.16496 0.0
C2901 C 0.28341 0.61203 0.16433 0.0
C2902 C 0.27378 0.62993 0.15782 0.0
C2903 C 0.26688 0.6235 0.14995 0.0
C2904 C 0.26853 0.61137 0.14902 0.0
H2905 H 0.22202 0.65629 0.09688 0.0
H2906 H 0.23634 0.64369 0.10665 0.0
C2907 C 0.27671 0.60568 0.15615 0.0
C2908 C 0.2578 0.62954 0.14292 0.0
H2909 H 0.22821 0.63203 0.13932 0.0
C2910 C 0.26131 0.63817 0.13491 0.0
C2911 C 0.24573 0.62728 0.14454 0.0
C2912 C 0.24145 0.61839 0.15334 0.0
C2913 C 0.25306 0.64467 0.12852 0.0
C2914 C 0.24099 0.64238 0.13011 0.0
C2915 C 0.23748 0.63369 0.13806 0.0
C2916 C 0.23186 0.64941 0.12414 0.0
C2917 C 0.2573 0.65421 0.1204 0.0
C2918 C 0.22434 0.65651 0.13077 0.0
C2919 C 0.21613 0.66369 0.12524 0.0
C2920 C 0.21521 0.66387 0.11295 0.0
C2921 C 0.22251 0.65643 0.10635 0.0
C2922 C 0.23075 0.64926 0.11191 0.0
H2923 H 0.26665 0.65642 0.12195 0.0
H2924 H 0.25638 0.65122 0.1112 0.0
H2925 H 0.25196 0.66227 0.12149 0.0
H2926 H 0.22503 0.6567 0.14023 0.0
H2927 H 0.21063 0.66924 0.13062 0.0
H2928 H 0.34332 0.22183 0.09584 0.0
H2929 H 0.35658 0.23573 0.10535 0.0
H2930 H 0.34322 0.22545 0.13913 0.0
H2931 H 0.33006 0.21148 0.12978 0.0
H2932 H 0.35017 0.2546 0.11939 0.0
H2933 H 0.37871 0.2239 0.14383 0.0
H2934 H 0.36935 0.21922 0.13197 0.0
H2935 H 0.36339 0.22144 0.14638 0.0
C2936 C 0.34329 0.22241 0.1053 0.0
C2937 C 0.3356 0.2155 0.11203 0.0
C2938 C 0.35086 0.23038 0.11071 0.0
C2939 C 0.35099 0.23151 0.12295 0.0
C2940 C 0.34344 0.22455 0.12969 0.0
H2941 H 0.36969 0.28788 0.16836 0.0
H2942 H 0.36032 0.27388 0.15522 0.0
C2943 C 0.33586 0.21661 0.12431 0.0
C2944 C 0.35848 0.24043 0.12867 0.0
H2945 H 0.37926 0.24399 0.14987 0.0
C2946 C 0.35663 0.25228 0.12596 0.0
C2947 C 0.36702 0.23738 0.13711 0.0
C2948 C 0.36984 0.22479 0.13993 0.0
C2949 C 0.36273 0.26119 0.13183 0.0
C2950 C 0.37077 0.25815 0.14075 0.0
C2951 C 0.373 0.2463 0.1431 0.0
C2952 C 0.37654 0.26713 0.14814 0.0
C2953 C 0.36047 0.27377 0.1285 0.0
C2954 C 0.38879 0.2679 0.14862 0.0
C2955 C 0.39422 0.27589 0.15616 0.0
C2956 C 0.38747 0.28317 0.16348 0.0
C2957 C 0.37518 0.28244 0.16285 0.0
C2958 C 0.36978 0.27449 0.15529 0.0
H2959 H 0.35685 0.27448 0.11949 0.0
H2960 H 0.35397 0.27758 0.13463 0.0
H2961 H 0.36861 0.27906 0.12903 0.0
H2962 H 0.39416 0.26224 0.14322 0.0
H2963 H 0.40369 0.27617 0.15643 0.0
H2964 H 0.277 0.40374 0.844 0.0
H2965 H 0.26281 0.39408 0.85684 0.0
H2966 H 0.27501 0.36035 0.84507 0.0
H2967 H 0.28926 0.36985 0.8323 0.0
H2968 H 0.24483 0.37889 0.84966 0.0
H2969 H 0.27489 0.35704 0.8809 0.0
H2970 H 0.27952 0.36887 0.87146 0.0
H2971 H 0.27836 0.35421 0.86583 0.0
C2972 C 0.27678 0.39426 0.84423 0.0
C2973 C 0.28429 0.38758 0.83709 0.0
C2974 C 0.26864 0.38877 0.85157 0.0
C2975 C 0.26796 0.37651 0.852 0.0
C2976 C 0.27554 0.36982 0.84503 0.0
H2977 H 0.21224 0.32973 0.8704 0.0
H2978 H 0.22633 0.34266 0.86084 0.0
C2979 C 0.28364 0.37529 0.83767 0.0
C2980 C 0.25888 0.37067 0.85919 0.0
H2981 H 0.25506 0.35032 0.88076 0.0
C2982 C 0.24705 0.37273 0.85655 0.0
C2983 C 0.2618 0.36276 0.86826 0.0
C2984 C 0.27433 0.36065 0.87188 0.0
C2985 C 0.23807 0.36674 0.86243 0.0
C2986 C 0.24102 0.35838 0.87107 0.0
C2987 C 0.25283 0.35666 0.87404 0.0
C2988 C 0.23204 0.35101 0.87686 0.0
C2989 C 0.22551 0.36939 0.85932 0.0
C2990 C 0.23067 0.35132 0.88906 0.0
C2991 C 0.22264 0.34391 0.89458 0.0
C2992 C 0.2159 0.33594 0.888 0.0
C2993 C 0.21724 0.33575 0.87575 0.0
C2994 C 0.22525 0.3432 0.87025 0.0
H2995 H 0.22463 0.37811 0.8551 0.0
H2996 H 0.22229 0.3627 0.85306 0.0
H2997 H 0.21983 0.36915 0.86721 0.0
H2998 H 0.23588 0.35726 0.89432 0.0
H2999 H 0.22187 0.34429 0.90403 0.0
H3000 H 0.65648 0.22204 0.90453 0.0
H3001 H 0.64341 0.23614 0.89507 0.0
H3002 H 0.65537 0.22459 0.86117 0.0
H3003 H 0.66836 0.21041 0.87048 0.0
H3004 H 0.65018 0.25442 0.88036 0.0
H3005 H 0.6197 0.22435 0.85755 0.0
H3006 H 0.62919 0.21958 0.86928 0.0
H3007 H 0.63482 0.22117 0.85465 0.0
C3008 C 0.65623 0.22237 0.89506 0.0
C3009 C 0.66349 0.21506 0.88828 0.0
C3010 C 0.64877 0.23046 0.88967 0.0
C3011 C 0.64832 0.23131 0.87742 0.0
C3012 C 0.65541 0.22392 0.87063 0.0
H3013 H 0.63075 0.28741 0.83122 0.0
H3014 H 0.63987 0.27334 0.84445 0.0
C3015 C 0.66289 0.21586 0.87599 0.0
C3016 C 0.64102 0.24039 0.87169 0.0
H3017 H 0.61983 0.24428 0.85098 0.0
C3018 C 0.64344 0.25221 0.87404 0.0
C3019 C 0.63213 0.23749 0.86357 0.0
C3020 C 0.62871 0.22496 0.86118 0.0
C3021 C 0.63755 0.26122 0.86809 0.0
C3022 C 0.62915 0.25831 0.85947 0.0
C3023 C 0.62636 0.2465 0.85751 0.0
C3024 C 0.62356 0.26733 0.85199 0.0
C3025 C 0.64043 0.27377 0.87105 0.0
C3026 C 0.61133 0.26853 0.85172 0.0
C3027 C 0.60605 0.27655 0.84411 0.0
C3028 C 0.61291 0.28344 0.83653 0.0
C3029 C 0.62518 0.28229 0.83694 0.0
C3030 C 0.63043 0.27429 0.84456 0.0
H3031 H 0.64424 0.27456 0.87996 0.0
H3032 H 0.64698 0.27712 0.8647 0.0
H3033 H 0.63252 0.27941 0.87052 0.0
H3034 H 0.60587 0.26318 0.85734 0.0
H3035 H 0.59659 0.27717 0.84403 0.0
H3036 H 0.3296 0.7869 0.86991 0.0
H3037 H 0.34235 0.77264 0.86039 0.0
H3038 H 0.35721 0.76337 0.89384 0.0
H3039 H 0.34437 0.77753 0.90352 0.0
H3040 H 0.36686 0.77059 0.86012 0.0
H3041 H 0.34562 0.73187 0.88068 0.0
H3042 H 0.33909 0.74626 0.88094 0.0
H3043 H 0.35097 0.7428 0.89066 0.0
C3044 C 0.3356 0.78188 0.87528 0.0
C3045 C 0.33586 0.78331 0.88752 0.0
C3046 C 0.34289 0.77374 0.8698 0.0
C3047 C 0.35058 0.76683 0.87643 0.0
C3048 C 0.35117 0.76847 0.88859 0.0
H3049 H 0.40381 0.72227 0.84329 0.0
H3050 H 0.39415 0.73643 0.85615 0.0
C3051 C 0.34386 0.77662 0.8941 0.0
C3052 C 0.35779 0.75778 0.87054 0.0
H3053 H 0.36158 0.7282 0.8681 0.0
C3054 C 0.36579 0.76132 0.86191 0.0
C3055 C 0.35626 0.7457 0.87284 0.0
C3056 C 0.34746 0.74137 0.88171 0.0
C3057 C 0.37221 0.7531 0.85541 0.0
C3058 C 0.37069 0.74102 0.85772 0.0
C3059 C 0.36279 0.73748 0.86644 0.0
C3060 C 0.3766 0.73193 0.8506 0.0
C3061 C 0.38025 0.75738 0.84583 0.0
C3062 C 0.36992 0.72445 0.84352 0.0
C3063 C 0.37539 0.71632 0.8362 0.0
C3064 C 0.38768 0.71547 0.83585 0.0
C3065 C 0.39434 0.72271 0.84328 0.0
C3066 C 0.38884 0.73086 0.8506 0.0
H3067 H 0.37868 0.76673 0.84365 0.0
H3068 H 0.38948 0.75647 0.84875 0.0
H3069 H 0.37913 0.75206 0.83777 0.0
H3070 H 0.36045 0.7251 0.84345 0.0
H3071 H 0.36996 0.71086 0.83066 0.0
H3072 H 0.09668 0.21241 0.27542 0.0
H3073 H 0.09167 0.22737 0.26108 0.0
H3074 H 0.06426 0.24015 0.28368 0.0
H3075 H 0.06928 0.2252 0.29826 0.0
H3076 H 0.06985 0.23239 0.24952 0.0
H3077 H 0.08553 0.26908 0.27769 0.0
H3078 H 0.08927 0.25402 0.28071 0.0
H3079 H 0.07478 0.25927 0.28373 0.0
C3080 C 0.08954 0.21834 0.27738 0.0
C3081 C 0.08347 0.21765 0.28808 0.0
C3082 C 0.08666 0.22687 0.26913 0.0
C3083 C 0.0777 0.23494 0.27138 0.0
C3084 C 0.07132 0.23408 0.28185 0.0
H3085 H 0.07042 0.29775 0.227 0.0
H3086 H 0.06516 0.28304 0.24176 0.0
C3087 C 0.07418 0.2255 0.29015 0.0
C3088 C 0.07551 0.24446 0.26286 0.0
H3089 H 0.08057 0.27357 0.2583 0.0
C3090 C 0.07199 0.24144 0.25148 0.0
C3091 C 0.07824 0.25626 0.26547 0.0
C3092 C 0.08223 0.25993 0.27753 0.0
C3093 C 0.07165 0.24981 0.2425 0.0
C3094 C 0.07514 0.26145 0.24493 0.0
C3095 C 0.07793 0.26463 0.25647 0.0
C3096 C 0.07739 0.27001 0.23545 0.0
C3097 C 0.06789 0.24606 0.23041 0.0
C3098 C 0.08602 0.26757 0.22707 0.0
C3099 C 0.08908 0.27592 0.2187 0.0
C3100 C 0.08361 0.28696 0.21855 0.0
C3101 C 0.07478 0.28933 0.22684 0.0
C3102 C 0.07177 0.28094 0.23528 0.0
H3103 H 0.06188 0.23841 0.2308 0.0
H3104 H 0.06345 0.2533 0.22567 0.0
H3105 H 0.07572 0.24341 0.22531 0.0
H3106 H 0.09067 0.2593 0.2272 0.0
H3107 H 0.0959 0.27376 0.21248 0.0
H3108 H 0.77341 0.07107 0.29883 0.0
H3109 H 0.75873 0.06606 0.28397 0.0
H3110 H 0.77347 0.09188 0.26069 0.0
H3111 H 0.78814 0.09687 0.27531 0.0
H3112 H 0.74228 0.08165 0.27465 0.0
H3113 H 0.76992 0.06336 0.23939 0.0
H3114 H 0.77497 0.06472 0.25433 0.0
H3115 H 0.7754 0.07713 0.24461 0.0
C3116 C 0.77364 0.07556 0.29048 0.0
C3117 C 0.78196 0.08439 0.28829 0.0
C3118 C 0.76524 0.07268 0.28201 0.0
C3119 C 0.76514 0.07847 0.27116 0.0
C3120 C 0.77356 0.08711 0.26889 0.0
H3121 H 0.72531 0.09807 0.21345 0.0
H3122 H 0.73959 0.09309 0.22847 0.0
C3123 C 0.78189 0.09003 0.27733 0.0
C3124 C 0.75569 0.07635 0.26252 0.0
H3125 H 0.75121 0.07132 0.23341 0.0
C3126 C 0.74414 0.07911 0.26569 0.0
C3127 C 0.75817 0.07298 0.25087 0.0
C3128 C 0.77028 0.06926 0.24712 0.0
C3129 C 0.73516 0.07947 0.25729 0.0
C3130 C 0.73782 0.07685 0.24548 0.0
C3131 C 0.74922 0.07338 0.24246 0.0
C3132 C 0.72931 0.07906 0.23595 0.0
C3133 C 0.72309 0.08341 0.26096 0.0
C3134 C 0.71886 0.07265 0.23504 0.0
C3135 C 0.7106 0.07549 0.22642 0.0
C3136 C 0.71267 0.08479 0.21859 0.0
C3137 C 0.72334 0.09091 0.21935 0.0
C3138 C 0.73156 0.08806 0.22792 0.0
H3139 H 0.72291 0.08667 0.27012 0.0
H3140 H 0.7199 0.09047 0.25508 0.0
H3141 H 0.71692 0.07594 0.26026 0.0
H3142 H 0.71703 0.06557 0.24108 0.0
H3143 H 0.70251 0.07055 0.22606 0.0
H3144 H 0.9047 0.72596 0.2119 0.0
H3145 H 0.90994 0.7403 0.22674 0.0
H3146 H 0.93494 0.71617 0.24153 0.0
H3147 H 0.92967 0.70159 0.22666 0.0
H3148 H 0.9194 0.72565 0.25789 0.0
H3149 H 0.93884 0.76087 0.23102 0.0
H3150 H 0.92505 0.75607 0.22523 0.0
H3151 H 0.93722 0.74605 0.22573 0.0
C3152 C 0.91142 0.7237 0.21819 0.0
C3153 C 0.91673 0.71258 0.21809 0.0
C3154 C 0.91449 0.73198 0.22663 0.0
C3155 C 0.92296 0.72938 0.23512 0.0
C3156 C 0.92846 0.71838 0.23497 0.0
H3157 H 0.93003 0.77392 0.29832 0.0
H3158 H 0.93533 0.75896 0.28383 0.0
C3159 C 0.92543 0.71007 0.22646 0.0
C3160 C 0.92515 0.73784 0.24471 0.0
H3161 H 0.9305 0.76683 0.24961 0.0
C3162 C 0.92213 0.73459 0.25617 0.0
C3163 C 0.92875 0.74947 0.24243 0.0
C3164 C 0.93276 0.75329 0.23045 0.0
C3165 C 0.9217 0.7429 0.26524 0.0
C3166 C 0.92452 0.7547 0.26275 0.0
C3167 C 0.92829 0.75778 0.25147 0.0
C3168 C 0.92214 0.76418 0.27127 0.0
C3169 C 0.91747 0.73917 0.27719 0.0
C3170 C 0.91321 0.77224 0.26885 0.0
C3171 C 0.91017 0.78077 0.27704 0.0
C3172 C 0.91604 0.78146 0.28785 0.0
C3173 C 0.92528 0.77361 0.29011 0.0
C3174 C 0.9283 0.76502 0.28188 0.0
H3175 H 0.9142 0.73 0.27724 0.0
H3176 H 0.92478 0.73983 0.28355 0.0
H3177 H 0.91033 0.74503 0.28023 0.0
H3178 H 0.90836 0.77174 0.2607 0.0
H3179 H 0.90307 0.78669 0.27494 0.0
H3180 H 0.22709 0.92992 0.29947 0.0
H3181 H 0.24191 0.93519 0.28483 0.0
H3182 H 0.22643 0.91092 0.26039 0.0
H3183 H 0.21164 0.90567 0.27479 0.0
H3184 H 0.25787 0.91951 0.27497 0.0
H3185 H 0.23117 0.94004 0.24025 0.0
H3186 H 0.22594 0.93829 0.25509 0.0
H3187 H 0.22513 0.9263 0.24487 0.0
C3188 C 0.22673 0.92585 0.2909 0.0
C3189 C 0.21818 0.91734 0.28833 0.0
C3190 C 0.2352 0.92888 0.28256 0.0
C3191 C 0.23516 0.92358 0.27147 0.0
C3192 C 0.22648 0.91532 0.2688 0.0
H3193 H 0.27425 0.90367 0.21364 0.0
H3194 H 0.26016 0.9091 0.22869 0.0
C3195 C 0.21808 0.91224 0.27711 0.0
C3196 C 0.24473 0.92571 0.26297 0.0
H3197 H 0.24954 0.93138 0.23402 0.0
C3198 C 0.25615 0.9224 0.26609 0.0
C3199 C 0.24245 0.92953 0.25141 0.0
C3200 C 0.23052 0.93386 0.24774 0.0
C3201 C 0.26514 0.92191 0.25771 0.0
C3202 C 0.26264 0.92495 0.24597 0.0
C3203 C 0.25141 0.929 0.24302 0.0
C3204 C 0.27105 0.92254 0.2364 0.0
C3205 C 0.27702 0.91736 0.2613 0.0
C3206 C 0.28178 0.92848 0.2356 0.0
C3207 C 0.28993 0.92539 0.22696 0.0
C3208 C 0.28746 0.91629 0.21901 0.0
C3209 C 0.27652 0.91065 0.21965 0.0
C3210 C 0.26841 0.91377 0.22823 0.0
H3211 H 0.27707 0.91395 0.27041 0.0
H3212 H 0.27988 0.91026 0.2553 0.0
H3213 H 0.28353 0.92455 0.26071 0.0
H3214 H 0.28391 0.93538 0.24175 0.0
H3215 H 0.29824 0.92995 0.22669 0.0
H3216 H 0.09611 0.72535 0.78733 0.0
H3217 H 0.09085 0.73966 0.77245 0.0
H3218 H 0.0657 0.71557 0.75787 0.0
H3219 H 0.07095 0.70103 0.7728 0.0
H3220 H 0.08145 0.72522 0.7414 0.0
H3221 H 0.06152 0.76003 0.7685 0.0
H3222 H 0.07531 0.75516 0.77426 0.0
H3223 H 0.06316 0.74514 0.77361 0.0
C3224 C 0.08936 0.72308 0.78107 0.0
C3225 C 0.08398 0.712 0.78127 0.0
C3226 C 0.08629 0.73134 0.77261 0.0
C3227 C 0.07776 0.72875 0.76418 0.0
C3228 C 0.07223 0.71777 0.76439 0.0
H3229 H 0.07019 0.77329 0.70104 0.0
H3230 H 0.06509 0.75819 0.71546 0.0
C3231 C 0.07524 0.70949 0.77293 0.0
C3232 C 0.07547 0.73723 0.75463 0.0
H3233 H 0.06955 0.76613 0.74988 0.0
C3234 C 0.07856 0.73409 0.74316 0.0
C3235 C 0.07166 0.74877 0.75697 0.0
C3236 C 0.06761 0.75245 0.76899 0.0
C3237 C 0.07884 0.74246 0.73414 0.0
C3238 C 0.07577 0.75419 0.73667 0.0
C3239 C 0.07195 0.75714 0.74797 0.0
C3240 C 0.07796 0.76377 0.7282 0.0
C3241 C 0.08317 0.73886 0.72218 0.0
C3242 C 0.08661 0.77209 0.73075 0.0
C3243 C 0.08952 0.7807 0.72261 0.0
C3244 C 0.0838 0.78122 0.7117 0.0
C3245 C 0.07481 0.77312 0.70932 0.0
C3246 C 0.07192 0.76445 0.71752 0.0
H3247 H 0.08672 0.7298 0.72212 0.0
H3248 H 0.07583 0.73929 0.71583 0.0
H3249 H 0.09011 0.74495 0.71912 0.0
H3250 H 0.09136 0.77173 0.73897 0.0
H3251 H 0.09642 0.78683 0.72481 0.0
H3252 H 0.29931 0.07064 0.77363 0.0
H3253 H 0.2856 0.06666 0.75752 0.0
H3254 H 0.26298 0.09421 0.76991 0.0
H3255 H 0.27644 0.09825 0.78593 0.0
H3256 H 0.25763 0.06314 0.75895 0.0
H3257 H 0.27455 0.10159 0.73433 0.0
H3258 H 0.28318 0.0939 0.74514 0.0
H3259 H 0.27193 0.1039 0.7497 0.0
C3260 C 0.29135 0.07575 0.77302 0.0
C3261 C 0.28906 0.08486 0.78103 0.0
C3262 C 0.28354 0.07345 0.76382 0.0
C3263 C 0.27337 0.08022 0.76253 0.0
C3264 C 0.27084 0.08895 0.77076 0.0
H3265 H 0.2146 0.09814 0.72398 0.0
H3266 H 0.23051 0.09397 0.73753 0.0
C3267 C 0.27858 0.09125 0.77991 0.0
C3268 C 0.26562 0.07885 0.75226 0.0
H3269 H 0.25604 0.09401 0.72839 0.0
C3270 C 0.25742 0.0697 0.75208 0.0
C3271 C 0.26544 0.08743 0.74336 0.0
C3272 C 0.27429 0.09723 0.74303 0.0
C3273 C 0.24854 0.06936 0.74355 0.0
C3274 C 0.24794 0.07837 0.7351 0.0
C3275 C 0.25655 0.08712 0.73492 0.0
C3276 C 0.23773 0.07979 0.72728 0.0
C3277 C 0.23942 0.05982 0.74399 0.0
C3278 C 0.23645 0.07304 0.7171 0.0
C3279 C 0.22731 0.07542 0.70924 0.0
C3280 C 0.21939 0.08462 0.71146 0.0
C3281 C 0.22055 0.09105 0.72191 0.0
C3282 C 0.22964 0.08867 0.7297 0.0
H3283 H 0.24107 0.05348 0.75118 0.0
H3284 H 0.23062 0.06376 0.74522 0.0
H3285 H 0.23932 0.05502 0.73553 0.0
H3286 H 0.24269 0.06619 0.71507 0.0
H3287 H 0.22668 0.07029 0.70129 0.0
H3288 H 0.90533 0.27408 0.78808 0.0
H3289 H 0.91074 0.25975 0.77327 0.0
H3290 H 0.93507 0.28432 0.7581 0.0
H3291 H 0.92964 0.29887 0.77293 0.0
H3292 H 0.91954 0.27446 0.74196 0.0
H3293 H 0.94001 0.23975 0.76872 0.0
H3294 H 0.9262 0.2443 0.77467 0.0
H3295 H 0.93816 0.25456 0.77397 0.0
C3296 C 0.91195 0.27644 0.78171 0.0
C3297 C 0.91702 0.28767 0.78169 0.0
C3298 C 0.91511 0.26818 0.77329 0.0
C3299 C 0.92344 0.2709 0.7647 0.0
C3300 C 0.9287 0.28201 0.76474 0.0
H3301 H 0.93022 0.22621 0.70155 0.0
H3302 H 0.93564 0.24126 0.7159 0.0
C3303 C 0.92559 0.2903 0.77323 0.0
C3304 C 0.92569 0.26244 0.75511 0.0
H3305 H 0.93153 0.23354 0.75027 0.0
C3306 C 0.92246 0.26559 0.74368 0.0
C3307 C 0.92955 0.2509 0.75739 0.0
C3308 C 0.93379 0.24721 0.76934 0.0
C3309 C 0.92207 0.25723 0.73466 0.0
C3310 C 0.92514 0.24549 0.73715 0.0
C3311 C 0.92912 0.24254 0.7484 0.0
C3312 C 0.92276 0.23593 0.72873 0.0
C3313 C 0.91761 0.26083 0.72275 0.0
C3314 C 0.91398 0.22777 0.73135 0.0
C3315 C 0.91087 0.21919 0.72323 0.0
C3316 C 0.91652 0.21854 0.7123 0.0
C3317 C 0.92564 0.22649 0.70985 0.0
C3318 C 0.92873 0.23512 0.71801 0.0
H3319 H 0.9142 0.26995 0.72269 0.0
H3320 H 0.92483 0.26023 0.71628 0.0
H3321 H 0.91051 0.25484 0.71985 0.0
H3322 H 0.90928 0.22823 0.73958 0.0
H3323 H 0.90388 0.2132 0.72549 0.0
H3324 H 0.72534 0.904 0.78851 0.0
H3325 H 0.73964 0.90908 0.77356 0.0
H3326 H 0.71547 0.93394 0.7586 0.0
H3327 H 0.70094 0.92884 0.77358 0.0
H3328 H 0.72503 0.9182 0.74234 0.0
H3329 H 0.7601 0.9381 0.7691 0.0
H3330 H 0.7553 0.92435 0.775 0.0
H3331 H 0.74526 0.93649 0.77436 0.0
C3332 C 0.72306 0.91066 0.78215 0.0
C3333 C 0.71195 0.91599 0.78225 0.0
C3334 C 0.73131 0.91363 0.77366 0.0
C3335 C 0.72869 0.92202 0.76508 0.0
C3336 C 0.7177 0.92752 0.76522 0.0
H3337 H 0.7733 0.92911 0.70192 0.0
H3338 H 0.75823 0.93429 0.71633 0.0
C3339 C 0.70942 0.9246 0.77379 0.0
C3340 C 0.73716 0.92416 0.75548 0.0
H3341 H 0.7661 0.92972 0.75056 0.0
C3342 C 0.73394 0.92101 0.74404 0.0
C3343 C 0.74875 0.92787 0.75774 0.0
C3344 C 0.75253 0.93201 0.7697 0.0
C3345 C 0.74226 0.92059 0.73499 0.0
C3346 C 0.75404 0.92354 0.73746 0.0
C3347 C 0.75707 0.92741 0.74872 0.0
C3348 C 0.76354 0.9212 0.72896 0.0
C3349 C 0.73858 0.91623 0.72307 0.0
C3350 C 0.77168 0.91236 0.73143 0.0
C3351 C 0.78027 0.90938 0.72328 0.0
C3352 C 0.78095 0.91524 0.71245 0.0
C3353 C 0.773 0.92438 0.71014 0.0
C3354 C 0.76435 0.92733 0.71833 0.0
H3355 H 0.72944 0.9129 0.72302 0.0
H3356 H 0.7392 0.9235 0.71665 0.0
H3357 H 0.74451 0.90912 0.72009 0.0
H3358 H 0.77121 0.90754 0.73959 0.0
H3359 H 0.78626 0.90236 0.72543 0.0
H3360 H 0.22566 0.0706 0.29892 0.0
H3361 H 0.24146 0.06629 0.28498 0.0
H3362 H 0.22891 0.09363 0.2622 0.0
H3363 H 0.21317 0.09801 0.27591 0.0
H3364 H 0.2387 0.06346 0.25583 0.0
H3365 H 0.26556 0.09958 0.27459 0.0
H3366 H 0.25495 0.09156 0.28318 0.0
H3367 H 0.25012 0.10226 0.27275 0.0
C3368 C 0.22616 0.07559 0.29087 0.0
C3369 C 0.21818 0.08474 0.28861 0.0
C3370 C 0.23518 0.0731 0.28293 0.0
C3371 C 0.23632 0.07969 0.27264 0.0
C3372 C 0.22814 0.08847 0.27013 0.0
H3373 H 0.27437 0.09647 0.21318 0.0
H3374 H 0.26063 0.09212 0.22891 0.0
C3375 C 0.21916 0.09097 0.27802 0.0
C3376 C 0.24645 0.07814 0.26476 0.0
H3377 H 0.27136 0.09215 0.25607 0.0
C3378 C 0.246 0.06953 0.25601 0.0
C3379 C 0.25591 0.0861 0.26507 0.0
C3380 C 0.25679 0.09538 0.27443 0.0
C3381 C 0.25454 0.06911 0.24714 0.0
C3382 C 0.26361 0.0775 0.2471 0.0
C3383 C 0.26437 0.08571 0.25619 0.0
C3384 C 0.27153 0.07892 0.23698 0.0
C3385 C 0.25353 0.06015 0.2375 0.0
C3386 C 0.28214 0.07279 0.23628 0.0
C3387 C 0.29009 0.07525 0.22725 0.0
C3388 C 0.28755 0.08397 0.21889 0.0
C3389 C 0.27669 0.08977 0.21949 0.0
C3390 C 0.26879 0.08728 0.22845 0.0
H3391 H 0.2464 0.05374 0.23918 0.0
H3392 H 0.25177 0.06466 0.22907 0.0
H3393 H 0.26193 0.05536 0.23656 0.0
H3394 H 0.28439 0.06634 0.24286 0.0
H3395 H 0.29836 0.07061 0.22706 0.0
H3396 H 0.9006 0.27561 0.21409 0.0
H3397 H 0.90537 0.26121 0.22906 0.0
H3398 H 0.934 0.28275 0.24095 0.0
H3399 H 0.92924 0.2974 0.22597 0.0
H3400 H 0.9269 0.24888 0.23325 0.0
H3401 H 0.91362 0.27735 0.27063 0.0
H3402 H 0.90942 0.28059 0.25574 0.0
H3403 H 0.9242 0.28306 0.26045 0.0
C3404 C 0.90795 0.27733 0.21983 0.0
C3405 C 0.91447 0.28774 0.21886 0.0
C3406 C 0.91068 0.26905 0.22838 0.0
C3407 C 0.91995 0.27098 0.23618 0.0
C3408 C 0.92671 0.28119 0.2351 0.0
H3409 H 0.9285 0.22594 0.29838 0.0
H3410 H 0.93339 0.24075 0.2836 0.0
C3411 C 0.92399 0.28951 0.2265 0.0
C3412 C 0.92216 0.26233 0.24558 0.0
H3413 H 0.9181 0.25777 0.27485 0.0
C3414 C 0.92517 0.25085 0.24238 0.0
C3415 C 0.91998 0.26496 0.25749 0.0
C3416 C 0.91656 0.27713 0.26136 0.0
C3417 C 0.92555 0.24182 0.25069 0.0
C3418 C 0.92261 0.2443 0.26247 0.0
C3419 C 0.92031 0.2559 0.26581 0.0
C3420 C 0.92046 0.23483 0.27108 0.0
C3421 C 0.92878 0.22964 0.24673 0.0
C3422 C 0.91155 0.22666 0.26896 0.0
C3423 C 0.90871 0.21825 0.27734 0.0
C3424 C 0.91468 0.21786 0.28812 0.0
C3425 C 0.92375 0.22596 0.29017 0.0
C3426 C 0.92656 0.23443 0.28175 0.0
H3427 H 0.93448 0.22989 0.23885 0.0
H3428 H 0.93336 0.22473 0.25377 0.0
H3429 H 0.92069 0.2248 0.24438 0.0
H3430 H 0.90654 0.22698 0.2609 0.0
H3431 H 0.90167 0.21219 0.27543 0.0
H3432 H 0.78807 0.90483 0.27437 0.0
H3433 H 0.77328 0.91017 0.26 0.0
H3434 H 0.75834 0.93494 0.28427 0.0
H3435 H 0.77316 0.92959 0.29888 0.0
H3436 H 0.74204 0.91941 0.27446 0.0
H3437 H 0.7692 0.93941 0.23976 0.0
H3438 H 0.77498 0.92558 0.24449 0.0
H3439 H 0.77433 0.93764 0.25463 0.0
C3440 C 0.78175 0.91152 0.27667 0.0
C3441 C 0.78181 0.91675 0.28782 0.0
C3442 C 0.77335 0.91464 0.26837 0.0
C3443 C 0.76483 0.92309 0.271 0.0
C3444 C 0.76492 0.92848 0.28204 0.0
H3445 H 0.70195 0.93045 0.22607 0.0
H3446 H 0.71632 0.93569 0.24117 0.0
C3447 C 0.7734 0.92541 0.29036 0.0
C3448 C 0.75531 0.92537 0.26248 0.0
H3449 H 0.75067 0.93116 0.23353 0.0
C3450 C 0.74383 0.92227 0.26558 0.0
C3451 C 0.75769 0.92916 0.25093 0.0
C3452 C 0.76971 0.93325 0.24729 0.0
C3453 C 0.73485 0.92195 0.25718 0.0
C3454 C 0.73744 0.92495 0.24544 0.0
C3455 C 0.74874 0.9288 0.24253 0.0
C3456 C 0.72902 0.92268 0.23585 0.0
C3457 C 0.72288 0.91761 0.26074 0.0
C3458 C 0.73156 0.91388 0.22768 0.0
C3459 C 0.72344 0.91088 0.21907 0.0
C3460 C 0.71257 0.91666 0.21841 0.0
C3461 C 0.7102 0.92579 0.22636 0.0
C3462 C 0.71837 0.92876 0.23502 0.0
H3463 H 0.72276 0.91419 0.26984 0.0
H3464 H 0.7165 0.92492 0.26014 0.0
H3465 H 0.71991 0.91057 0.25472 0.0
H3466 H 0.73975 0.9091 0.22816 0.0
H3467 H 0.72563 0.90388 0.21307 0.0
H3468 H 0.09781 0.72468 0.21433 0.0
H3469 H 0.09262 0.73907 0.22916 0.0
H3470 H 0.06502 0.71655 0.24167 0.0
H3471 H 0.07021 0.70191 0.22682 0.0
H3472 H 0.07056 0.75058 0.23361 0.0
H3473 H 0.08582 0.72302 0.27094 0.0
H3474 H 0.08992 0.71986 0.256 0.0
H3475 H 0.07533 0.7168 0.26096 0.0
C3476 C 0.0906 0.72274 0.22017 0.0
C3477 C 0.0845 0.71205 0.21942 0.0
C3478 C 0.08762 0.73102 0.22863 0.0
C3479 C 0.07853 0.72882 0.23657 0.0
C3480 C 0.07217 0.71833 0.2357 0.0
H3481 H 0.07049 0.77412 0.29863 0.0
H3482 H 0.06537 0.75912 0.28412 0.0
C3483 C 0.07512 0.71001 0.22718 0.0
C3484 C 0.07615 0.73746 0.24594 0.0
H3485 H 0.08085 0.7425 0.27503 0.0
C3486 C 0.0726 0.74877 0.24271 0.0
C3487 C 0.07874 0.73504 0.25781 0.0
C3488 C 0.08273 0.72306 0.26171 0.0
C3489 C 0.07212 0.75788 0.25093 0.0
C3490 C 0.0755 0.75565 0.26264 0.0
C3491 C 0.0783 0.74418 0.26604 0.0
C3492 C 0.07764 0.76529 0.27107 0.0
C3493 C 0.06833 0.76989 0.24694 0.0
C3494 C 0.08624 0.77369 0.26854 0.0
C3495 C 0.08921 0.78219 0.27678 0.0
C3496 C 0.08369 0.78247 0.28779 0.0
C3497 C 0.07489 0.77419 0.29023 0.0
C3498 C 0.07195 0.76561 0.28196 0.0
H3499 H 0.06238 0.76933 0.23927 0.0
H3500 H 0.06383 0.77473 0.25407 0.0
H3501 H 0.07616 0.77497 0.24424 0.0
H3502 H 0.09093 0.77345 0.2603 0.0
H3503 H 0.09602 0.78841 0.27456 0.0
H3504 H 0.2266 0.92852 0.70157 0.0
H3505 H 0.24257 0.93236 0.71547 0.0
H3506 H 0.22929 0.90535 0.73824 0.0
H3507 H 0.21342 0.90143 0.72457 0.0
H3508 H 0.2416 0.93689 0.7424 0.0
H3509 H 0.26419 0.89622 0.72823 0.0
H3510 H 0.25347 0.90362 0.71923 0.0
H3511 H 0.24882 0.89456 0.73123 0.0
C3512 C 0.22699 0.9235 0.70961 0.0
C3513 C 0.21879 0.91456 0.71186 0.0
C3514 C 0.23611 0.92572 0.71753 0.0
C3515 C 0.23714 0.91903 0.72777 0.0
C3516 C 0.22868 0.91052 0.7303 0.0
H3517 H 0.27518 0.90279 0.78766 0.0
H3518 H 0.26154 0.90672 0.77176 0.0
C3519 C 0.21961 0.90829 0.72245 0.0
C3520 C 0.24735 0.92027 0.73562 0.0
H3521 H 0.2703 0.9045 0.74641 0.0
C3522 C 0.24805 0.92997 0.74315 0.0
C3523 C 0.25575 0.91123 0.73649 0.0
C3524 C 0.25563 0.90085 0.7283 0.0
C3525 C 0.25657 0.93045 0.75205 0.0
C3526 C 0.26448 0.92104 0.75334 0.0
C3527 C 0.26416 0.91169 0.74539 0.0
C3528 C 0.27231 0.91996 0.76358 0.0
C3529 C 0.25668 0.94064 0.76043 0.0
C3530 C 0.28281 0.92629 0.76433 0.0
C3531 C 0.29072 0.92405 0.77345 0.0
C3532 C 0.28824 0.9154 0.78189 0.0
C3533 C 0.27746 0.90945 0.78129 0.0
C3534 C 0.26962 0.91169 0.77222 0.0
H3535 H 0.24977 0.94718 0.75838 0.0
H3536 H 0.25539 0.93743 0.76952 0.0
H3537 H 0.26535 0.94504 0.76009 0.0
H3538 H 0.28505 0.93265 0.75766 0.0
H3539 H 0.29893 0.9288 0.77364 0.0
H3540 H 0.06978 0.22627 0.70131 0.0
H3541 H 0.06445 0.24134 0.71569 0.0
H3542 H 0.0912 0.22854 0.73906 0.0
H3543 H 0.09651 0.2135 0.72493 0.0
H3544 H 0.06907 0.23361 0.75 0.0
H3545 H 0.08563 0.27025 0.72226 0.0
H3546 H 0.07503 0.26043 0.71597 0.0
H3547 H 0.08945 0.25519 0.71935 0.0
C3548 C 0.07446 0.22661 0.70955 0.0
C3549 C 0.08365 0.21872 0.7119 0.0
C3550 C 0.07143 0.23525 0.71772 0.0
C3551 C 0.07753 0.23612 0.72836 0.0
C3552 C 0.0864 0.22803 0.73088 0.0
H3553 H 0.09514 0.27434 0.78763 0.0
H3554 H 0.08985 0.26006 0.77275 0.0
C3555 C 0.08945 0.21944 0.72275 0.0
C3556 C 0.07516 0.24566 0.73682 0.0
H3557 H 0.08046 0.27469 0.7416 0.0
C3558 C 0.07135 0.24264 0.74811 0.0
C3559 C 0.07805 0.25743 0.7343 0.0
C3560 C 0.08233 0.2611 0.72235 0.0
C3561 C 0.07093 0.25099 0.75712 0.0
C3562 C 0.07462 0.26258 0.75481 0.0
C3563 C 0.07767 0.26578 0.74334 0.0
C3564 C 0.07688 0.27105 0.76438 0.0
C3565 C 0.06688 0.24723 0.76911 0.0
C3566 C 0.07143 0.28207 0.76456 0.0
C3567 C 0.07448 0.29035 0.7731 0.0
C3568 C 0.08316 0.28778 0.78147 0.0
C3569 C 0.08843 0.27665 0.78133 0.0
C3570 C 0.08534 0.2684 0.77287 0.0
H3571 H 0.06076 0.23969 0.76856 0.0
H3572 H 0.07458 0.24443 0.77435 0.0
H3573 H 0.06247 0.25452 0.77381 0.0
H3574 H 0.06496 0.28432 0.758 0.0
H3575 H 0.07027 0.29885 0.77292 0.0
H3576 H 0.70101 0.07014 0.77396 0.0
H3577 H 0.71563 0.06488 0.75911 0.0
H3578 H 0.73929 0.09069 0.77323 0.0
H3579 H 0.72493 0.09594 0.78804 0.0
H3580 H 0.72496 0.08016 0.7423 0.0
H3581 H 0.76028 0.06193 0.76988 0.0
H3582 H 0.7454 0.06346 0.77503 0.0
H3583 H 0.75523 0.07579 0.77527 0.0
C3584 C 0.7094 0.07458 0.77401 0.0
C3585 C 0.71177 0.08348 0.7822 0.0
C3586 C 0.71772 0.07156 0.76551 0.0
C3587 C 0.72861 0.07726 0.76519 0.0
C3588 C 0.73106 0.08598 0.77347 0.0
H3589 H 0.78602 0.0968 0.72547 0.0
H3590 H 0.77096 0.09165 0.73962 0.0
C3591 C 0.72277 0.08904 0.7819 0.0
C3592 C 0.73714 0.07493 0.7557 0.0
H3593 H 0.76622 0.06981 0.7511 0.0
C3594 C 0.73392 0.0776 0.74414 0.0
C3595 C 0.7488 0.07154 0.75813 0.0
C3596 C 0.75261 0.0679 0.77024 0.0
C3597 C 0.74227 0.07789 0.73511 0.0
C3598 C 0.7541 0.0753 0.73773 0.0
C3599 C 0.75716 0.07186 0.74913 0.0
C3600 C 0.76362 0.07762 0.72923 0.0
C3601 C 0.73856 0.08176 0.72303 0.0
C3602 C 0.76462 0.07128 0.71875 0.0
C3603 C 0.77327 0.07422 0.71055 0.0
C3604 C 0.78104 0.08356 0.71273 0.0
C3605 C 0.78017 0.08962 0.72342 0.0
C3606 C 0.77158 0.08666 0.73157 0.0
H3607 H 0.72935 0.0849 0.72284 0.0
H3608 H 0.74435 0.08889 0.71983 0.0
H3609 H 0.73935 0.07429 0.71687 0.0
H3610 H 0.75864 0.06417 0.71686 0.0
H3611 H 0.77372 0.06933 0.70244 0.0
H3612 H 0.92983 0.70124 0.77394 0.0
H3613 H 0.93518 0.7158 0.75907 0.0
H3614 H 0.91027 0.74005 0.7738 0.0
H3615 H 0.90494 0.72573 0.78865 0.0
H3616 H 0.91963 0.72539 0.74268 0.0
H3617 H 0.93937 0.76043 0.76959 0.0
H3618 H 0.93767 0.74559 0.77485 0.0
H3619 H 0.92556 0.75568 0.77537 0.0
C3620 C 0.92563 0.70975 0.77413 0.0
C3621 C 0.91692 0.71229 0.78249 0.0
C3622 C 0.92869 0.71804 0.76562 0.0
C3623 C 0.92325 0.72906 0.76545 0.0
C3624 C 0.91477 0.7317 0.77393 0.0
H3625 H 0.90393 0.7867 0.72587 0.0
H3626 H 0.90918 0.77171 0.74007 0.0
C3627 C 0.91166 0.72343 0.78236 0.0
C3628 C 0.9255 0.73751 0.75586 0.0
H3629 H 0.93113 0.76645 0.75099 0.0
C3630 C 0.92244 0.7343 0.7444 0.0
C3631 C 0.92921 0.7491 0.75815 0.0
C3632 C 0.93326 0.75288 0.77015 0.0
C3633 C 0.92208 0.74262 0.73535 0.0
C3634 C 0.92502 0.7544 0.73784 0.0
C3635 C 0.92883 0.75743 0.74912 0.0
C3636 C 0.9227 0.76392 0.72934 0.0
C3637 C 0.91779 0.73894 0.72341 0.0
C3638 C 0.92874 0.76465 0.71866 0.0
C3639 C 0.92574 0.77326 0.71044 0.0
C3640 C 0.91664 0.78125 0.71279 0.0
C3641 C 0.91091 0.78067 0.72369 0.0
C3642 C 0.91393 0.77212 0.73186 0.0
H3643 H 0.91437 0.72983 0.72337 0.0
H3644 H 0.91075 0.74491 0.72034 0.0
H3645 H 0.92511 0.73947 0.71704 0.0
H3646 H 0.93565 0.75849 0.71662 0.0
H3647 H 0.93037 0.77349 0.70217 0.0
H3648 H 0.21266 0.27404 0.09598 0.0
H3649 H 0.22766 0.2599 0.09059 0.0
H3650 H 0.24117 0.28379 0.06467 0.0
H3651 H 0.22616 0.29818 0.07008 0.0
H3652 H 0.23321 0.24937 0.06844 0.0
H3653 H 0.26954 0.2767 0.0863 0.0
H3654 H 0.2544 0.27961 0.08978 0.0
H3655 H 0.26003 0.28323 0.07557 0.0
C3656 C 0.21875 0.27633 0.08908 0.0
C3657 C 0.21826 0.28733 0.08356 0.0
C3658 C 0.22731 0.26819 0.08599 0.0
C3659 C 0.23559 0.27085 0.07734 0.0
C3660 C 0.23493 0.28164 0.07148 0.0
H3661 H 0.29844 0.22649 0.07033 0.0
H3662 H 0.28393 0.24142 0.06499 0.0
C3663 C 0.22632 0.28982 0.07456 0.0
C3664 C 0.24515 0.26241 0.07499 0.0
H3665 H 0.27408 0.2575 0.08072 0.0
C3666 C 0.2422 0.2512 0.07091 0.0
C3667 C 0.25688 0.26485 0.07816 0.0
C3668 C 0.26048 0.27671 0.08276 0.0
C3669 C 0.25054 0.24219 0.07047 0.0
C3670 C 0.26207 0.24442 0.0744 0.0
C3671 C 0.26522 0.25582 0.07774 0.0
C3672 C 0.2705 0.2348 0.0766 0.0
C3673 C 0.24686 0.23028 0.06612 0.0
C3674 C 0.26775 0.22617 0.08489 0.0
C3675 C 0.27599 0.21772 0.088 0.0
C3676 C 0.28721 0.21771 0.08292 0.0
C3677 C 0.28987 0.22621 0.07439 0.0
C3678 C 0.28161 0.23475 0.07133 0.0
H3679 H 0.2394 0.23094 0.05991 0.0
H3680 H 0.25421 0.22568 0.06172 0.0
H3681 H 0.24395 0.22489 0.07367 0.0
H3682 H 0.25933 0.2262 0.08926 0.0
H3683 H 0.27361 0.21131 0.09458 0.0
H3684 H 0.22683 0.7009 0.92988 0.0
H3685 H 0.24179 0.71536 0.93527 0.0
H3686 H 0.22666 0.74005 0.91104 0.0
H3687 H 0.21174 0.72583 0.90568 0.0
H3688 H 0.25792 0.72515 0.91966 0.0
H3689 H 0.23147 0.75998 0.94033 0.0
H3690 H 0.22612 0.7452 0.93848 0.0
H3691 H 0.22543 0.75548 0.92654 0.0
C3692 C 0.22658 0.70948 0.92585 0.0
C3693 C 0.21809 0.71218 0.91731 0.0
C3694 C 0.23513 0.71772 0.92894 0.0
C3695 C 0.23522 0.72883 0.92369 0.0
C3696 C 0.2266 0.73163 0.9154 0.0
H3697 H 0.27477 0.78647 0.90428 0.0
H3698 H 0.26057 0.7715 0.90961 0.0
C3699 C 0.21813 0.72342 0.91226 0.0
C3700 C 0.24487 0.73723 0.9259 0.0
H3701 H 0.24993 0.76609 0.93179 0.0
C3702 C 0.25627 0.73403 0.92261 0.0
C3703 C 0.24268 0.74878 0.92979 0.0
C3704 C 0.23077 0.75253 0.9341 0.0
C3705 C 0.26534 0.74233 0.92219 0.0
C3706 C 0.26293 0.75407 0.92531 0.0
C3707 C 0.25173 0.75709 0.92935 0.0
C3708 C 0.27143 0.76359 0.92297 0.0
C3709 C 0.2772 0.73867 0.91765 0.0
C3710 C 0.28218 0.76425 0.92889 0.0
C3711 C 0.29039 0.77285 0.92584 0.0
C3712 C 0.28797 0.7809 0.91681 0.0
C3713 C 0.27701 0.78039 0.9112 0.0
C3714 C 0.26884 0.77185 0.91427 0.0
H3715 H 0.27717 0.72958 0.91417 0.0
H3716 H 0.28013 0.74469 0.91061 0.0
H3717 H 0.2837 0.73914 0.92486 0.0
H3718 H 0.28427 0.75804 0.93574 0.0
H3719 H 0.29872 0.77302 0.93038 0.0
H3720 H 0.20458 0.27432 0.91892 0.0
H3721 H 0.21907 0.2591 0.92312 0.0
H3722 H 0.24654 0.28509 0.92186 0.0
H3723 H 0.23191 0.30037 0.91864 0.0
H3724 H 0.23397 0.25183 0.9094 0.0
H3725 H 0.25931 0.26657 0.94762 0.0
H3726 H 0.24571 0.27347 0.94353 0.0
H3727 H 0.25933 0.27796 0.93686 0.0
C3728 C 0.21369 0.27677 0.91994 0.0
C3729 C 0.21718 0.28846 0.91854 0.0
C3730 C 0.22198 0.26809 0.9223 0.0
C3731 C 0.23397 0.27088 0.92293 0.0
C3732 C 0.23738 0.28267 0.92184 0.0
H3733 H 0.28684 0.22634 0.89507 0.0
H3734 H 0.2715 0.24049 0.89952 0.0
C3735 C 0.22902 0.29142 0.91989 0.0
C3736 C 0.2429 0.26136 0.92307 0.0
H3737 H 0.26962 0.25357 0.93412 0.0
C3738 C 0.24162 0.25214 0.91502 0.0
C3739 C 0.25286 0.2615 0.93049 0.0
C3740 C 0.25429 0.27035 0.94019 0.0
C3741 C 0.25017 0.24345 0.91379 0.0
C3742 C 0.26066 0.24428 0.92035 0.0
C3743 C 0.26172 0.25309 0.92886 0.0
C3744 C 0.27075 0.23639 0.91803 0.0
C3745 C 0.24781 0.23345 0.90546 0.0
C3746 C 0.27604 0.22993 0.92708 0.0
C3747 C 0.28512 0.22204 0.92459 0.0
C3748 C 0.2889 0.22042 0.91299 0.0
C3749 C 0.28391 0.22723 0.90405 0.0
C3750 C 0.27508 0.23526 0.90658 0.0
H3751 H 0.23827 0.23172 0.90468 0.0
H3752 H 0.25107 0.23581 0.89661 0.0
H3753 H 0.2522 0.22527 0.90833 0.0
H3754 H 0.27295 0.23077 0.93601 0.0
H3755 H 0.28888 0.21693 0.93164 0.0
H3756 H 0.72559 0.21101 0.90435 0.0
H3757 H 0.73963 0.2266 0.90811 0.0
H3758 H 0.71542 0.24292 0.93203 0.0
H3759 H 0.7012 0.22721 0.92839 0.0
H3760 H 0.73336 0.25073 0.90321 0.0
H3761 H 0.74813 0.24373 0.94922 0.0
H3762 H 0.74195 0.23202 0.94053 0.0
H3763 H 0.73266 0.24336 0.94612 0.0
C3764 C 0.72326 0.2178 0.91054 0.0
C3765 C 0.7122 0.2179 0.91598 0.0
C3766 C 0.73132 0.2267 0.9127 0.0
C3767 C 0.72857 0.23588 0.92035 0.0
C3768 C 0.71775 0.23582 0.92619 0.0
H3769 H 0.77219 0.29934 0.92746 0.0
H3770 H 0.75645 0.2851 0.93103 0.0
C3771 C 0.70964 0.22686 0.92407 0.0
C3772 C 0.73663 0.24599 0.92116 0.0
H3773 H 0.75703 0.25914 0.93868 0.0
C3774 C 0.73844 0.25265 0.91101 0.0
C3775 C 0.74314 0.24852 0.93139 0.0
C3776 C 0.74147 0.24154 0.94246 0.0
C3777 C 0.7469 0.26151 0.91065 0.0
C3778 C 0.75385 0.26365 0.92066 0.0
C3779 C 0.75169 0.2574 0.93102 0.0
C3780 C 0.76399 0.27167 0.92002 0.0
C3781 C 0.74855 0.26834 0.89945 0.0
C3782 C 0.77357 0.26864 0.91298 0.0
C3783 C 0.78249 0.2767 0.91088 0.0
C3784 C 0.78205 0.28797 0.91583 0.0
C3785 C 0.77278 0.29075 0.92348 0.0
C3786 C 0.76379 0.28264 0.92554 0.0
H3787 H 0.74076 0.2677 0.89366 0.0
H3788 H 0.7503 0.27772 0.90132 0.0
H3789 H 0.75619 0.26475 0.89463 0.0
H3790 H 0.77392 0.26015 0.90875 0.0
H3791 H 0.78956 0.27418 0.90508 0.0
H3792 H 0.70186 0.77354 0.92969 0.0
H3793 H 0.71671 0.75888 0.93484 0.0
H3794 H 0.74014 0.77357 0.90913 0.0
H3795 H 0.72554 0.7882 0.904 0.0
H3796 H 0.72613 0.74239 0.91934 0.0
H3797 H 0.76127 0.77009 0.93778 0.0
H3798 H 0.74634 0.77513 0.93633 0.0
H3799 H 0.75613 0.77554 0.92397 0.0
C3800 C 0.71024 0.77376 0.92526 0.0
C3801 C 0.71248 0.78205 0.91641 0.0
C3802 C 0.7187 0.76537 0.92821 0.0
C3803 C 0.72958 0.76526 0.9225 0.0
C3804 C 0.73191 0.77366 0.91384 0.0
H3805 H 0.78733 0.7255 0.90308 0.0
H3806 H 0.77236 0.7398 0.90812 0.0
C3807 C 0.72348 0.78197 0.91085 0.0
C3808 C 0.73822 0.75583 0.92469 0.0
H3809 H 0.76731 0.75137 0.92986 0.0
C3810 C 0.73507 0.74427 0.92193 0.0
C3811 C 0.74985 0.75832 0.92811 0.0
C3812 C 0.75357 0.77043 0.93183 0.0
C3813 C 0.74348 0.7353 0.92161 0.0
C3814 C 0.75528 0.73797 0.92428 0.0
C3815 C 0.75826 0.74937 0.92776 0.0
C3816 C 0.76482 0.72947 0.92209 0.0
C3817 C 0.73984 0.72322 0.91765 0.0
C3818 C 0.7657 0.71899 0.92846 0.0
C3819 C 0.7743 0.71072 0.92559 0.0
C3820 C 0.78213 0.71281 0.91629 0.0
C3821 C 0.78142 0.72352 0.91023 0.0
C3822 C 0.77288 0.73175 0.91312 0.0
H3823 H 0.73069 0.72303 0.91435 0.0
H3824 H 0.74575 0.72003 0.91062 0.0
H3825 H 0.7405 0.71705 0.92513 0.0
H3826 H 0.75965 0.71715 0.93553 0.0
H3827 H 0.77462 0.7026 0.93048 0.0
H3828 H 0.78704 0.72508 0.09668 0.0
H3829 H 0.7721 0.73933 0.09138 0.0
H3830 H 0.759 0.71599 0.06475 0.0
H3831 H 0.77394 0.7015 0.07007 0.0
H3832 H 0.76693 0.75028 0.06926 0.0
H3833 H 0.73029 0.72273 0.08612 0.0
H3834 H 0.74537 0.71976 0.08982 0.0
H3835 H 0.73999 0.71636 0.07546 0.0
C3836 C 0.78105 0.72294 0.08965 0.0
C3837 C 0.78164 0.71206 0.08389 0.0
C3838 C 0.77253 0.73114 0.0866 0.0
C3839 C 0.76438 0.72866 0.07777 0.0
C3840 C 0.76513 0.718 0.0717 0.0
H3841 H 0.70166 0.77317 0.07062 0.0
H3842 H 0.71621 0.75828 0.06529 0.0
C3843 C 0.77371 0.70976 0.07472 0.0
C3844 C 0.75487 0.73716 0.07544 0.0
H3845 H 0.72587 0.74203 0.08082 0.0
C3846 C 0.7579 0.74843 0.07158 0.0
C3847 C 0.7431 0.73469 0.07839 0.0
C3848 C 0.73941 0.72276 0.08274 0.0
C3849 C 0.74958 0.75745 0.07115 0.0
C3850 C 0.73799 0.75519 0.07488 0.0
C3851 C 0.73478 0.74374 0.07799 0.0
C3852 C 0.72954 0.76478 0.07709 0.0
C3853 C 0.75335 0.76942 0.06703 0.0
C3854 C 0.73221 0.77334 0.08548 0.0
C3855 C 0.72395 0.78178 0.08858 0.0
C3856 C 0.71277 0.78183 0.08339 0.0
C3857 C 0.71019 0.77341 0.07476 0.0
C3858 C 0.71848 0.76489 0.07171 0.0
H3859 H 0.76087 0.76882 0.06088 0.0
H3860 H 0.74606 0.77412 0.06263 0.0
H3861 H 0.75621 0.77468 0.07469 0.0
H3862 H 0.74058 0.77326 0.08994 0.0
H3863 H 0.72627 0.78812 0.09524 0.0
H3864 H 0.22734 0.70036 0.07224 0.0
H3865 H 0.24327 0.71435 0.0686 0.0
H3866 H 0.22673 0.73924 0.09165 0.0
H3867 H 0.21089 0.72545 0.09538 0.0
H3868 H 0.2429 0.74052 0.06139 0.0
H3869 H 0.26016 0.73083 0.10582 0.0
H3870 H 0.25032 0.72108 0.09818 0.0
H3871 H 0.24475 0.73397 0.10529 0.0
C3872 C 0.22699 0.70888 0.07638 0.0
C3873 C 0.21792 0.71171 0.08425 0.0
C3874 C 0.2361 0.71685 0.07428 0.0
C3875 C 0.23621 0.72773 0.07998 0.0
C3876 C 0.22684 0.73082 0.08727 0.0
H3877 H 0.27447 0.78814 0.09561 0.0
H3878 H 0.26056 0.77249 0.09169 0.0
C3879 C 0.2178 0.7229 0.0894 0.0
C3880 C 0.24646 0.73559 0.07924 0.0
H3881 H 0.26746 0.74799 0.09647 0.0
C3882 C 0.24844 0.74203 0.06896 0.0
C3883 C 0.25368 0.73744 0.08911 0.0
C3884 C 0.25222 0.7304 0.10021 0.0
C3885 C 0.25707 0.75084 0.06858 0.0
C3886 C 0.26381 0.75312 0.07871 0.0
C3887 C 0.2622 0.74624 0.08875 0.0
C3888 C 0.27182 0.76325 0.07959 0.0
C3889 C 0.25855 0.75805 0.05763 0.0
C3890 C 0.2827 0.76335 0.07388 0.0
C3891 C 0.29076 0.77235 0.07612 0.0
C3892 C 0.28805 0.78129 0.08417 0.0
C3893 C 0.27692 0.78136 0.08945 0.0
C3894 C 0.26892 0.77243 0.0872 0.0
H3895 H 0.252 0.75577 0.0508 0.0
H3896 H 0.25773 0.76751 0.05974 0.0
H3897 H 0.26744 0.75661 0.05399 0.0
H3898 H 0.28512 0.75626 0.06807 0.0
H3899 H 0.29925 0.77202 0.07191 0.0
H3900 H 0.71222 0.21647 0.06938 0.0
H3901 H 0.72813 0.23048 0.06548 0.0
H3902 H 0.7264 0.24229 0.10134 0.0
H3903 H 0.71112 0.22793 0.10539 0.0
H3904 H 0.73111 0.25338 0.06629 0.0
H3905 H 0.75999 0.23365 0.09957 0.0
H3906 H 0.74645 0.22685 0.09516 0.0
H3907 H 0.74653 0.23816 0.10621 0.0
C3908 C 0.71526 0.2221 0.07639 0.0
C3909 C 0.71065 0.221 0.08773 0.0
C3910 C 0.72433 0.23009 0.07416 0.0
C3911 C 0.72874 0.23717 0.08323 0.0
C3912 C 0.72351 0.23659 0.09433 0.0
H3913 H 0.76859 0.30087 0.081 0.0
H3914 H 0.75381 0.28566 0.07809 0.0
C3915 C 0.71471 0.22845 0.09662 0.0
C3916 C 0.73894 0.24502 0.08129 0.0
H3917 H 0.76478 0.25328 0.09371 0.0
C3918 C 0.73858 0.25326 0.07217 0.0
C3919 C 0.74888 0.24465 0.0887 0.0
C3920 C 0.75054 0.23525 0.09786 0.0
C3921 C 0.7476 0.26152 0.07064 0.0
C3922 C 0.75699 0.26183 0.07876 0.0
C3923 C 0.75756 0.25322 0.08753 0.0
C3924 C 0.76609 0.27119 0.07878 0.0
C3925 C 0.74696 0.2697 0.06029 0.0
C3926 C 0.77796 0.26822 0.0803 0.0
C3927 C 0.78631 0.27689 0.08245 0.0
C3928 C 0.78303 0.28872 0.0828 0.0
C3929 C 0.77134 0.29179 0.0806 0.0
C3930 C 0.7629 0.28309 0.07882 0.0
H3931 H 0.74233 0.26551 0.05283 0.0
H3932 H 0.74191 0.27762 0.06277 0.0
H3933 H 0.75581 0.27242 0.05731 0.0
H3934 H 0.7807 0.25914 0.08029 0.0
H3935 H 0.79529 0.27433 0.08412 0.0
H3936 H 0.56996 0.79806 0.72565 0.0
H3937 H 0.56492 0.78348 0.74061 0.0
H3938 H 0.59208 0.7607 0.72761 0.0
H3939 H 0.59708 0.77501 0.71265 0.0
H3940 H 0.5705 0.74919 0.7327 0.0
H3941 H 0.58604 0.77733 0.76946 0.0
H3942 H 0.57519 0.78334 0.75975 0.0
H3943 H 0.58968 0.78047 0.7544 0.0
C3944 C 0.57479 0.78991 0.72591 0.0
C3945 C 0.58401 0.78778 0.718 0.0
C3946 C 0.57193 0.78162 0.7345 0.0
C3947 C 0.57823 0.77109 0.73529 0.0
C3948 C 0.58712 0.76879 0.72716 0.0
H3949 H 0.59678 0.71221 0.7741 0.0
H3950 H 0.59158 0.72699 0.75966 0.0
C3951 C 0.59 0.77703 0.71862 0.0
C3952 C 0.57606 0.76254 0.7448 0.0
H3953 H 0.58115 0.75791 0.7739 0.0
C3954 C 0.57262 0.75114 0.74175 0.0
C3955 C 0.57878 0.76513 0.75661 0.0
C3956 C 0.5827 0.7772 0.76033 0.0
C3957 C 0.57237 0.74213 0.75009 0.0
C3958 C 0.57583 0.74455 0.76173 0.0
C3959 C 0.57854 0.75609 0.76496 0.0
C3960 C 0.57811 0.73505 0.77028 0.0
C3961 C 0.56871 0.73001 0.7463 0.0
C3962 C 0.57236 0.73476 0.78114 0.0
C3963 C 0.57535 0.72629 0.7895 0.0
C3964 C 0.58427 0.71809 0.78718 0.0
C3965 C 0.58987 0.71836 0.77622 0.0
C3966 C 0.58684 0.72676 0.76788 0.0
H3967 H 0.56278 0.73037 0.7386 0.0
H3968 H 0.57661 0.72496 0.74373 0.0
H3969 H 0.56424 0.72525 0.7535 0.0
H3970 H 0.56567 0.74117 0.78319 0.0
H3971 H 0.57087 0.72636 0.79786 0.0
H3972 H 0.20212 0.56964 0.72548 0.0
H3973 H 0.21662 0.56459 0.74051 0.0
H3974 H 0.2392 0.59216 0.72804 0.0
H3975 H 0.22494 0.59721 0.71302 0.0
H3976 H 0.25077 0.57026 0.7329 0.0
H3977 H 0.22252 0.58566 0.76964 0.0
H3978 H 0.21651 0.57501 0.7597 0.0
H3979 H 0.21954 0.58956 0.75461 0.0
C3980 C 0.21021 0.57457 0.72588 0.0
C3981 C 0.2123 0.58391 0.71809 0.0
C3982 C 0.21846 0.5717 0.7345 0.0
C3983 C 0.2289 0.5781 0.73545 0.0
C3984 C 0.23117 0.58713 0.72746 0.0
H3985 H 0.28779 0.59616 0.7743 0.0
H3986 H 0.27303 0.59097 0.75986 0.0
C3987 C 0.22297 0.59003 0.71889 0.0
C3988 C 0.23741 0.57585 0.74498 0.0
H3989 H 0.24193 0.58078 0.77411 0.0
C3990 C 0.24879 0.57235 0.74195 0.0
C3991 C 0.23477 0.57851 0.75679 0.0
C3992 C 0.22271 0.58245 0.76046 0.0
C3993 C 0.25776 0.57199 0.75034 0.0
C3994 C 0.25532 0.57542 0.76198 0.0
C3995 C 0.24377 0.57818 0.76517 0.0
C3996 C 0.2648 0.57767 0.77055 0.0
C3997 C 0.26986 0.56824 0.74657 0.0
C3998 C 0.26499 0.57202 0.78147 0.0
C3999 C 0.27344 0.57502 0.78985 0.0
C4000 C 0.28173 0.58384 0.78748 0.0
C4001 C 0.28157 0.58933 0.77646 0.0
C4002 C 0.27318 0.5863 0.76812 0.0
H4003 H 0.26947 0.56225 0.73892 0.0
H4004 H 0.27495 0.57609 0.74393 0.0
H4005 H 0.2746 0.5638 0.75381 0.0
H4006 H 0.25851 0.56542 0.78356 0.0
H4007 H 0.27329 0.57063 0.79826 0.0
H4008 H 0.42861 0.20175 0.72739 0.0
H4009 H 0.43246 0.21571 0.74332 0.0
H4010 H 0.40645 0.2391 0.72917 0.0
H4011 H 0.40252 0.22538 0.71334 0.0
H4012 H 0.43744 0.24298 0.7421 0.0
H4013 H 0.39637 0.2289 0.76408 0.0
H4014 H 0.40404 0.21978 0.75366 0.0
H4015 H 0.39512 0.23172 0.74863 0.0
C4016 C 0.42383 0.20994 0.72758 0.0
C4017 C 0.41514 0.21236 0.71915 0.0
C4018 C 0.42606 0.21789 0.73667 0.0
C4019 C 0.41964 0.22834 0.73743 0.0
C4020 C 0.41141 0.23102 0.72875 0.0
H4021 H 0.40249 0.28765 0.77631 0.0
H4022 H 0.40636 0.2719 0.76249 0.0
C4023 C 0.40918 0.22314 0.71971 0.0
C4024 C 0.42076 0.23618 0.74766 0.0
H4025 H 0.40471 0.24692 0.77043 0.0
C4026 C 0.43044 0.24372 0.74848 0.0
C4027 C 0.41161 0.23704 0.75594 0.0
C4028 C 0.40122 0.22888 0.75564 0.0
C4029 C 0.43082 0.25261 0.757 0.0
C4030 C 0.42131 0.25388 0.76483 0.0
C4031 C 0.41196 0.24593 0.76437 0.0
C4032 C 0.42019 0.26405 0.77275 0.0
C4033 C 0.441 0.261 0.75723 0.0
C4034 C 0.42685 0.26494 0.78304 0.0
C4035 C 0.42464 0.27398 0.79105 0.0
C4036 C 0.41569 0.2822 0.7889 0.0
C4037 C 0.40938 0.28146 0.77834 0.0
C4038 C 0.41159 0.27247 0.77039 0.0
H4039 H 0.4474 0.25922 0.75012 0.0
H4040 H 0.43778 0.27014 0.75636 0.0
H4041 H 0.44558 0.26031 0.76578 0.0
H4042 H 0.43346 0.25844 0.78504 0.0
H4043 H 0.42967 0.27428 0.79909 0.0
H4044 H 0.71404 0.40319 0.77494 0.0
H4045 H 0.72999 0.40741 0.76143 0.0
H4046 H 0.74329 0.43374 0.78495 0.0
H4047 H 0.72727 0.4296 0.7987 0.0
H4048 H 0.74099 0.43735 0.75587 0.0
H4049 H 0.76622 0.39979 0.77401 0.0
H4050 H 0.75072 0.3977 0.77198 0.0
H4051 H 0.75583 0.40802 0.78267 0.0
C4052 C 0.72024 0.40998 0.77725 0.0
C4053 C 0.71941 0.41597 0.78799 0.0
C4054 C 0.72934 0.41239 0.76948 0.0
C4055 C 0.73779 0.42083 0.77225 0.0
C4056 C 0.7368 0.42721 0.78269 0.0
H4057 H 0.79926 0.42989 0.72574 0.0
H4058 H 0.78548 0.43423 0.74168 0.0
C4059 C 0.72765 0.42481 0.79052 0.0
C4060 C 0.74805 0.42217 0.7645 0.0
H4061 H 0.77232 0.40723 0.75558 0.0
C4062 C 0.74802 0.43098 0.75595 0.0
C4063 C 0.75715 0.4138 0.76467 0.0
C4064 C 0.75761 0.40431 0.77385 0.0
C4065 C 0.75658 0.4312 0.74709 0.0
C4066 C 0.76527 0.42239 0.74688 0.0
C4067 C 0.76563 0.41398 0.75581 0.0
C4068 C 0.77312 0.42078 0.73673 0.0
C4069 C 0.75596 0.44036 0.73762 0.0
C4070 C 0.7706 0.41189 0.72868 0.0
C4071 C 0.77838 0.40938 0.71962 0.0
C4072 C 0.78892 0.41567 0.71846 0.0
C4073 C 0.79125 0.42486 0.72637 0.0
C4074 C 0.7834 0.42737 0.73547 0.0
H4075 H 0.74879 0.44676 0.73915 0.0
H4076 H 0.7644 0.44516 0.73714 0.0
H4077 H 0.75455 0.43606 0.72901 0.0
H4078 H 0.7627 0.40671 0.72955 0.0
H4079 H 0.77623 0.40229 0.71369 0.0
H4080 H 0.59587 0.22568 0.28836 0.0
H4081 H 0.5908 0.24002 0.27343 0.0
H4082 H 0.56566 0.21604 0.25865 0.0
H4083 H 0.57074 0.20148 0.2736 0.0
H4084 H 0.58139 0.22543 0.24229 0.0
H4085 H 0.56192 0.26071 0.2691 0.0
H4086 H 0.57567 0.25581 0.2749 0.0
H4087 H 0.56345 0.24586 0.27437 0.0
C4088 C 0.58915 0.22345 0.28204 0.0
C4089 C 0.58374 0.21239 0.28218 0.0
C4090 C 0.58619 0.23173 0.27356 0.0
C4091 C 0.57772 0.22917 0.26504 0.0
C4092 C 0.57214 0.21822 0.26522 0.0
H4093 H 0.57022 0.2735 0.20173 0.0
H4094 H 0.56518 0.2585 0.21628 0.0
C4095 C 0.57505 0.20992 0.27378 0.0
C4096 C 0.5756 0.23763 0.25543 0.0
H4097 H 0.5701 0.26658 0.25045 0.0
C4098 C 0.57863 0.23436 0.24398 0.0
C4099 C 0.57196 0.24925 0.25768 0.0
C4100 C 0.56795 0.25309 0.26967 0.0
C4101 C 0.57901 0.24265 0.23489 0.0
C4102 C 0.57612 0.25444 0.23734 0.0
C4103 C 0.57237 0.25754 0.24862 0.0
C4104 C 0.57837 0.26391 0.22876 0.0
C4105 C 0.58325 0.2389 0.22295 0.0
C4106 C 0.58722 0.27207 0.23111 0.0
C4107 C 0.59011 0.28062 0.22288 0.0
C4108 C 0.58416 0.28123 0.2121 0.0
C4109 C 0.57501 0.27325 0.20991 0.0
C4110 C 0.57215 0.26465 0.21818 0.0
H4111 H 0.5866 0.22977 0.22293 0.0
H4112 H 0.57591 0.23947 0.2166 0.0
H4113 H 0.59032 0.24482 0.21986 0.0
H4114 H 0.59211 0.27166 0.23923 0.0
H4115 H 0.59714 0.28664 0.22494 0.0
H4116 H 0.77436 0.5959 0.28804 0.0
H4117 H 0.76003 0.59059 0.2732 0.0
H4118 H 0.78421 0.5656 0.25849 0.0
H4119 H 0.79878 0.57092 0.27336 0.0
H4120 H 0.77447 0.58113 0.24205 0.0
H4121 H 0.7397 0.56136 0.26929 0.0
H4122 H 0.74449 0.5752 0.27499 0.0
H4123 H 0.75457 0.56309 0.27441 0.0
C4124 C 0.77665 0.58917 0.28175 0.0
C4125 C 0.78776 0.58386 0.2819 0.0
C4126 C 0.76838 0.58607 0.27333 0.0
C4127 C 0.77098 0.57757 0.26486 0.0
C4128 C 0.78199 0.5721 0.26503 0.0
H4129 H 0.7261 0.56991 0.20196 0.0
H4130 H 0.74122 0.56477 0.21634 0.0
C4131 C 0.79029 0.57516 0.27354 0.0
C4132 C 0.76247 0.57526 0.25534 0.0
H4133 H 0.73353 0.56947 0.25069 0.0
C4134 C 0.76559 0.57829 0.24385 0.0
C4135 C 0.75092 0.5715 0.25773 0.0
C4136 C 0.74725 0.56749 0.26976 0.0
C4137 C 0.7572 0.57857 0.23485 0.0
C4138 C 0.74546 0.57558 0.23743 0.0
C4139 C 0.74253 0.57181 0.24876 0.0
C4140 C 0.73587 0.57781 0.22899 0.0
C4141 C 0.76078 0.58283 0.22286 0.0
C4142 C 0.72768 0.58659 0.23151 0.0
C4143 C 0.71906 0.58953 0.22338 0.0
C4144 C 0.7184 0.58372 0.21254 0.0
C4145 C 0.72638 0.57461 0.21019 0.0
C4146 C 0.73506 0.57168 0.21837 0.0
H4147 H 0.76989 0.58626 0.22274 0.0
H4148 H 0.7602 0.57549 0.21653 0.0
H4149 H 0.75477 0.58985 0.21983 0.0
H4150 H 0.72814 0.59141 0.23967 0.0
H4151 H 0.71303 0.59653 0.22555 0.0
H4152 H 0.40437 0.71333 0.22575 0.0
H4153 H 0.4098 0.72844 0.23975 0.0
H4154 H 0.4357 0.74171 0.2157 0.0
H4155 H 0.43025 0.72657 0.20145 0.0
H4156 H 0.43204 0.73407 0.25017 0.0
H4157 H 0.41404 0.77015 0.2226 0.0
H4158 H 0.41052 0.75499 0.21985 0.0
H4159 H 0.42473 0.76056 0.21613 0.0
C4160 C 0.41127 0.71939 0.2234 0.0
C4161 C 0.41678 0.71879 0.21239 0.0
C4162 C 0.41439 0.72801 0.23146 0.0
C4163 C 0.42305 0.73626 0.22871 0.0
C4164 C 0.42889 0.7355 0.21792 0.0
H4165 H 0.42981 0.79937 0.27277 0.0
H4166 H 0.4352 0.78485 0.25787 0.0
C4167 C 0.42579 0.72681 0.20982 0.0
C4168 C 0.4254 0.74589 0.23706 0.0
H4169 H 0.41952 0.77482 0.24179 0.0
C4170 C 0.42952 0.74303 0.24828 0.0
C4171 C 0.42218 0.75759 0.23454 0.0
C4172 C 0.41756 0.76108 0.22266 0.0
C4173 C 0.42992 0.75144 0.25724 0.0
C4174 C 0.42591 0.76293 0.25494 0.0
C4175 C 0.42255 0.76599 0.24352 0.0
C4176 C 0.42364 0.77139 0.26451 0.0
C4177 C 0.43429 0.74785 0.26917 0.0
C4178 C 0.41536 0.76863 0.27314 0.0
C4179 C 0.41222 0.77687 0.28158 0.0
C4180 C 0.41727 0.78811 0.28157 0.0
C4181 C 0.42578 0.79079 0.27306 0.0
C4182 C 0.42887 0.78252 0.26453 0.0
H4183 H 0.44054 0.74042 0.26855 0.0
H4184 H 0.43865 0.75526 0.27372 0.0
H4185 H 0.42676 0.74494 0.27459 0.0
H4186 H 0.41102 0.76019 0.27313 0.0
H4187 H 0.40565 0.77447 0.28799 0.0
H4188 H 0.28706 0.40352 0.22558 0.0
H4189 H 0.27187 0.40872 0.23959 0.0
H4190 H 0.25856 0.43483 0.21579 0.0
H4191 H 0.27375 0.4296 0.20152 0.0
H4192 H 0.26623 0.43067 0.25028 0.0
H4193 H 0.2301 0.41325 0.22242 0.0
H4194 H 0.24526 0.4098 0.21958 0.0
H4195 H 0.23966 0.42406 0.2161 0.0
C4196 C 0.28097 0.41042 0.22328 0.0
C4197 C 0.28158 0.41605 0.21234 0.0
C4198 C 0.2723 0.41341 0.23135 0.0
C4199 C 0.26402 0.42206 0.22867 0.0
C4200 C 0.26479 0.42802 0.21794 0.0
H4201 H 0.20095 0.42926 0.27276 0.0
H4202 H 0.21556 0.43446 0.25788 0.0
C4203 C 0.27351 0.42504 0.20983 0.0
C4204 C 0.25438 0.42432 0.23705 0.0
H4205 H 0.22538 0.41867 0.24163 0.0
C4206 C 0.25725 0.42826 0.24833 0.0
C4207 C 0.24267 0.42123 0.23446 0.0
C4208 C 0.23916 0.41678 0.22252 0.0
C4209 C 0.24883 0.42862 0.25727 0.0
C4210 C 0.2373 0.42478 0.25489 0.0
C4211 C 0.23424 0.42158 0.24342 0.0
C4212 C 0.22877 0.42254 0.2644 0.0
C4213 C 0.25242 0.43279 0.26927 0.0
C4214 C 0.23135 0.41411 0.27294 0.0
C4215 C 0.22306 0.41108 0.28137 0.0
C4216 C 0.21194 0.41639 0.28143 0.0
C4217 C 0.20943 0.42502 0.27299 0.0
C4218 C 0.21776 0.42801 0.26448 0.0
H4219 H 0.25997 0.43891 0.26877 0.0
H4220 H 0.24506 0.43724 0.27382 0.0
H4221 H 0.25515 0.42515 0.27462 0.0
H4222 H 0.2397 0.4096 0.27288 0.0
H4223 H 0.22532 0.4044 0.28771 0.0
H4224 H 0.71272 0.59616 0.77461 0.0
H4225 H 0.72766 0.59099 0.76032 0.0
H4226 H 0.74236 0.56594 0.78445 0.0
H4227 H 0.72739 0.57111 0.79896 0.0
H4228 H 0.75877 0.58171 0.77481 0.0
H4229 H 0.73176 0.56172 0.73996 0.0
H4230 H 0.72596 0.5755 0.7448 0.0
H4231 H 0.72662 0.56336 0.75484 0.0
C4232 C 0.71903 0.58945 0.77689 0.0
C4233 C 0.71885 0.58407 0.78797 0.0
C4234 C 0.72751 0.58643 0.76865 0.0
C4235 C 0.736 0.57795 0.77125 0.0
C4236 C 0.73581 0.57243 0.78223 0.0
H4237 H 0.7991 0.57037 0.72664 0.0
H4238 H 0.78471 0.56532 0.74178 0.0
C4239 C 0.72724 0.57539 0.7905 0.0
C4240 C 0.74556 0.57571 0.76278 0.0
H4241 H 0.75036 0.56982 0.73388 0.0
C4242 C 0.75703 0.57883 0.76593 0.0
C4243 C 0.74325 0.5719 0.75123 0.0
C4244 C 0.73124 0.56781 0.74753 0.0
C4245 C 0.76606 0.57912 0.75758 0.0
C4246 C 0.76354 0.57606 0.74584 0.0
C4247 C 0.75225 0.57221 0.74288 0.0
C4248 C 0.77202 0.57826 0.73627 0.0
C4249 C 0.778 0.58348 0.76118 0.0
C4250 C 0.76949 0.58696 0.72799 0.0
C4251 C 0.77763 0.58984 0.71936 0.0
C4252 C 0.78849 0.58405 0.71878 0.0
C4253 C 0.79085 0.57504 0.72686 0.0
C4254 C 0.78267 0.57217 0.73555 0.0
H4255 H 0.77807 0.58697 0.77026 0.0
H4256 H 0.78438 0.57616 0.76069 0.0
H4257 H 0.78103 0.59047 0.75513 0.0
H4258 H 0.7613 0.59174 0.72839 0.0
H4259 H 0.77544 0.59677 0.71326 0.0
H4260 H 0.42938 0.79923 0.72743 0.0
H4261 H 0.43472 0.78464 0.74229 0.0
H4262 H 0.41043 0.76013 0.72695 0.0
H4263 H 0.40512 0.77447 0.71214 0.0
H4264 H 0.41906 0.77466 0.75834 0.0
H4265 H 0.43977 0.74016 0.73147 0.0
H4266 H 0.43793 0.75501 0.72632 0.0
H4267 H 0.42599 0.74475 0.72549 0.0
C4268 C 0.42532 0.79066 0.72711 0.0
C4269 C 0.41679 0.78804 0.7186 0.0
C4270 C 0.42838 0.78235 0.73561 0.0
C4271 C 0.4231 0.77125 0.73561 0.0
C4272 C 0.41481 0.76854 0.72697 0.0
H4273 H 0.40382 0.71314 0.77458 0.0
H4274 H 0.40903 0.72831 0.76055 0.0
C4275 C 0.4117 0.77682 0.71855 0.0
C4276 C 0.42533 0.76274 0.74515 0.0
H4277 H 0.43127 0.73384 0.74986 0.0
C4278 C 0.42203 0.76581 0.75659 0.0
C4279 C 0.42924 0.75123 0.74283 0.0
C4280 C 0.43355 0.74762 0.73087 0.0
C4281 C 0.42163 0.7574 0.76556 0.0
C4282 C 0.42477 0.74569 0.76301 0.0
C4283 C 0.42881 0.74281 0.75177 0.0
C4284 C 0.42247 0.73607 0.7714 0.0
C4285 C 0.4171 0.76091 0.77747 0.0
C4286 C 0.42848 0.73527 0.78209 0.0
C4287 C 0.42551 0.72656 0.79021 0.0
C4288 C 0.41647 0.71853 0.78775 0.0
C4289 C 0.41076 0.7192 0.77684 0.0
C4290 C 0.41375 0.72785 0.76877 0.0
H4291 H 0.41363 0.77 0.77756 0.0
H4292 H 0.41004 0.75485 0.78032 0.0
H4293 H 0.4243 0.76033 0.78396 0.0
H4294 H 0.43534 0.74146 0.78422 0.0
H4295 H 0.43012 0.72628 0.79849 0.0
H4296 H 0.28857 0.40429 0.77542 0.0
H4297 H 0.27365 0.40933 0.76108 0.0
H4298 H 0.25863 0.43426 0.78513 0.0
H4299 H 0.27358 0.4292 0.79971 0.0
H4300 H 0.24239 0.41852 0.77561 0.0
H4301 H 0.26921 0.43824 0.7405 0.0
H4302 H 0.2751 0.4245 0.74534 0.0
H4303 H 0.27446 0.43667 0.75535 0.0
C4304 C 0.2822 0.41096 0.77767 0.0
C4305 C 0.28228 0.41632 0.78876 0.0
C4306 C 0.27373 0.4139 0.76939 0.0
C4307 C 0.26515 0.4223 0.77196 0.0
C4308 C 0.26526 0.42783 0.78294 0.0
H4309 H 0.20211 0.42932 0.72714 0.0
H4310 H 0.21648 0.43452 0.74225 0.0
C4311 C 0.27381 0.42493 0.79125 0.0
C4312 C 0.25556 0.4244 0.76347 0.0
H4313 H 0.25068 0.42983 0.73449 0.0
C4314 C 0.24411 0.42129 0.76669 0.0
C4315 C 0.25784 0.42806 0.75186 0.0
C4316 C 0.2698 0.43217 0.74808 0.0
C4317 C 0.23507 0.42083 0.75836 0.0
C4318 C 0.23756 0.42371 0.74657 0.0
C4319 C 0.24882 0.42756 0.74353 0.0
C4320 C 0.22907 0.42134 0.73706 0.0
C4321 C 0.22313 0.41652 0.76204 0.0
C4322 C 0.23153 0.41244 0.72899 0.0
C4323 C 0.2234 0.40945 0.72038 0.0
C4324 C 0.21261 0.41536 0.71961 0.0
C4325 C 0.21031 0.42456 0.7275 0.0
C4326 C 0.21847 0.42751 0.73617 0.0
H4327 H 0.22306 0.41326 0.77121 0.0
H4328 H 0.21672 0.42378 0.76133 0.0
H4329 H 0.22017 0.40936 0.75616 0.0
H4330 H 0.23967 0.40758 0.72952 0.0
H4331 H 0.22555 0.40238 0.71443 0.0
H4332 H 0.59629 0.28724 0.77442 0.0
H4333 H 0.5909 0.2724 0.76013 0.0
H4334 H 0.56593 0.25778 0.78439 0.0
H4335 H 0.57133 0.27266 0.79892 0.0
H4336 H 0.58142 0.24131 0.77472 0.0
H4337 H 0.56168 0.2684 0.73982 0.0
H4338 H 0.57552 0.27412 0.74457 0.0
H4339 H 0.56342 0.2736 0.75467 0.0
C4340 C 0.58954 0.28098 0.77673 0.0
C4341 C 0.58427 0.28114 0.78786 0.0
C4342 C 0.5864 0.27255 0.76848 0.0
C4343 C 0.57788 0.26411 0.77112 0.0
C4344 C 0.57244 0.2643 0.78214 0.0
H4345 H 0.5701 0.2011 0.72642 0.0
H4346 H 0.565 0.21553 0.7415 0.0
C4347 C 0.57554 0.27281 0.79042 0.0
C4348 C 0.57556 0.25455 0.76265 0.0
H4349 H 0.56981 0.24979 0.73372 0.0
C4350 C 0.57858 0.24307 0.76582 0.0
C4351 C 0.57182 0.25689 0.75108 0.0
C4352 C 0.56781 0.26891 0.74736 0.0
C4353 C 0.57887 0.23404 0.75748 0.0
C4354 C 0.57591 0.23658 0.74572 0.0
C4355 C 0.57214 0.24789 0.74273 0.0
C4356 C 0.57815 0.22809 0.73617 0.0
C4357 C 0.58312 0.22206 0.7611 0.0
C4358 C 0.58698 0.23053 0.72801 0.0
C4359 C 0.5899 0.22237 0.71942 0.0
C4360 C 0.58401 0.21157 0.71875 0.0
C4361 C 0.57485 0.2093 0.72671 0.0
C4362 C 0.57196 0.2175 0.73536 0.0
H4363 H 0.5865 0.22196 0.77023 0.0
H4364 H 0.57578 0.21572 0.7605 0.0
H4365 H 0.59017 0.21902 0.75514 0.0
H4366 H 0.59184 0.23867 0.72848 0.0
H4367 H 0.59693 0.22448 0.71341 0.0
H4368 H 0.79825 0.42983 0.27346 0.0
H4369 H 0.78362 0.43498 0.25859 0.0
H4370 H 0.75995 0.40931 0.27296 0.0
H4371 H 0.77433 0.40418 0.2878 0.0
H4372 H 0.77442 0.41944 0.24197 0.0
H4373 H 0.73891 0.43799 0.26911 0.0
H4374 H 0.75377 0.43656 0.27436 0.0
H4375 H 0.74397 0.42421 0.2747 0.0
C4376 C 0.78986 0.42541 0.27356 0.0
C4377 C 0.78749 0.41656 0.28183 0.0
C4378 C 0.78152 0.42837 0.26506 0.0
C4379 C 0.77064 0.42266 0.26479 0.0
C4380 C 0.76819 0.41402 0.27316 0.0
H4381 H 0.71346 0.40268 0.2248 0.0
H4382 H 0.7284 0.40793 0.23905 0.0
C4383 C 0.77649 0.41102 0.2816 0.0
C4384 C 0.76215 0.42484 0.25522 0.0
H4385 H 0.7331 0.42989 0.25038 0.0
C4386 C 0.76545 0.42202 0.24372 0.0
C4387 C 0.75048 0.42825 0.25754 0.0
C4388 C 0.7466 0.43204 0.26959 0.0
C4389 C 0.75715 0.42161 0.23465 0.0
C4390 C 0.74531 0.42424 0.23716 0.0
C4391 C 0.74218 0.42781 0.2485 0.0
C4392 C 0.73585 0.42186 0.22861 0.0
C4393 C 0.76094 0.41758 0.22265 0.0
C4394 C 0.73495 0.42812 0.21807 0.0
C4395 C 0.72638 0.42513 0.20982 0.0
C4396 C 0.71858 0.41582 0.212 0.0
C4397 C 0.71934 0.40984 0.22275 0.0
C4398 C 0.72786 0.41285 0.23095 0.0
H4399 H 0.77013 0.41441 0.22256 0.0
H4400 H 0.75514 0.41044 0.21948 0.0
H4401 H 0.76021 0.42498 0.21639 0.0
H4402 H 0.74096 0.43521 0.21617 0.0
H4403 H 0.72601 0.42995 0.20166 0.0
H4404 H 0.59663 0.77506 0.28643 0.0
H4405 H 0.59126 0.76084 0.2715 0.0
H4406 H 0.56489 0.78439 0.25826 0.0
H4407 H 0.57027 0.79885 0.27321 0.0
H4408 H 0.56893 0.75013 0.26632 0.0
H4409 H 0.58635 0.77727 0.22964 0.0
H4410 H 0.59008 0.78023 0.24471 0.0
H4411 H 0.57578 0.78384 0.2393 0.0
C4412 C 0.58964 0.77726 0.28041 0.0
C4413 C 0.58397 0.78818 0.28097 0.0
C4414 C 0.58656 0.76907 0.27189 0.0
C4415 C 0.57777 0.77161 0.26371 0.0
C4416 C 0.5718 0.78233 0.26442 0.0
H4417 H 0.57033 0.72697 0.20113 0.0
H4418 H 0.56512 0.74197 0.21561 0.0
C4419 C 0.57486 0.79056 0.273 0.0
C4420 C 0.57537 0.7631 0.25423 0.0
H4421 H 0.58083 0.75801 0.22528 0.0
C4422 C 0.57132 0.75191 0.2573 0.0
C4423 C 0.57842 0.76547 0.24246 0.0
C4424 C 0.58296 0.77732 0.23875 0.0
C4425 C 0.5708 0.74285 0.24901 0.0
C4426 C 0.57462 0.745 0.23743 0.0
C4427 C 0.57793 0.75639 0.23418 0.0
C4428 C 0.57673 0.73534 0.22903 0.0
C4429 C 0.56647 0.73096 0.25282 0.0
C4430 C 0.58497 0.72667 0.23179 0.0
C4431 C 0.588 0.71816 0.22357 0.0
C4432 C 0.5829 0.71815 0.21236 0.0
C4433 C 0.57441 0.72669 0.20969 0.0
C4434 C 0.57142 0.73527 0.21794 0.0
H4435 H 0.56029 0.7317 0.26029 0.0
H4436 H 0.56204 0.72631 0.24552 0.0
H4437 H 0.57403 0.7256 0.25574 0.0
H4438 H 0.58938 0.7267 0.24019 0.0
H4439 H 0.59456 0.71173 0.22596 0.0
H4440 H 0.29478 0.57809 0.22463 0.0
H4441 H 0.28028 0.57364 0.23977 0.0
H4442 H 0.25256 0.5789 0.21456 0.0
H4443 H 0.26713 0.58234 0.19928 0.0
H4444 H 0.26652 0.58766 0.24846 0.0
H4445 H 0.2382 0.55274 0.23122 0.0
H4446 H 0.25197 0.55638 0.22438 0.0
H4447 H 0.23879 0.56432 0.22069 0.0
C4448 C 0.28559 0.57788 0.2223 0.0
C4449 C 0.28201 0.58045 0.21084 0.0
C4450 C 0.27729 0.57538 0.23094 0.0
C4451 C 0.26524 0.57579 0.22837 0.0
C4452 C 0.26173 0.57808 0.21677 0.0
H4453 H 0.21491 0.60452 0.27481 0.0
H4454 H 0.22995 0.59969 0.2605 0.0
C4455 C 0.27006 0.58017 0.20804 0.0
C4456 C 0.25646 0.57552 0.23802 0.0
H4457 H 0.229 0.56605 0.24527 0.0
C4458 C 0.25844 0.5827 0.24782 0.0
C4459 C 0.24595 0.56892 0.23745 0.0
C4460 C 0.2437 0.56007 0.22792 0.0
C4461 C 0.25005 0.58394 0.25667 0.0
C4462 C 0.23907 0.57834 0.25545 0.0
C4463 C 0.23729 0.57061 0.24606 0.0
C4464 C 0.22919 0.58098 0.2635 0.0
C4465 C 0.2531 0.59131 0.26722 0.0
C4466 C 0.22318 0.57201 0.26942 0.0
C4467 C 0.21428 0.57476 0.27744 0.0
C4468 C 0.21139 0.58651 0.27971 0.0
C4469 C 0.21712 0.5954 0.27343 0.0
C4470 C 0.22579 0.59265 0.2653 0.0
H4471 H 0.26268 0.59118 0.26894 0.0
H4472 H 0.25058 0.60054 0.26552 0.0
H4473 H 0.24849 0.58823 0.27521 0.0
H4474 H 0.22556 0.56293 0.26806 0.0
H4475 H 0.20995 0.56773 0.28212 0.0
H4476 H 0.42978 0.20039 0.27298 0.0
H4477 H 0.43514 0.21486 0.25803 0.0
H4478 H 0.41122 0.23968 0.27343 0.0
H4479 H 0.40589 0.22545 0.28836 0.0
H4480 H 0.41951 0.22466 0.24208 0.0
H4481 H 0.44041 0.25954 0.26826 0.0
H4482 H 0.43856 0.24479 0.27368 0.0
H4483 H 0.42667 0.25512 0.27444 0.0
C4484 C 0.42581 0.209 0.2733 0.0
C4485 C 0.41737 0.21174 0.28186 0.0
C4486 C 0.42889 0.21724 0.26475 0.0
C4487 C 0.42371 0.22839 0.26473 0.0
C4488 C 0.41553 0.23122 0.27343 0.0
H4489 H 0.40355 0.28568 0.22513 0.0
H4490 H 0.40906 0.27076 0.23933 0.0
C4491 C 0.41241 0.22301 0.28191 0.0
C4492 C 0.42585 0.23677 0.25505 0.0
H4493 H 0.43159 0.26565 0.2499 0.0
C4494 C 0.42246 0.23354 0.24369 0.0
C4495 C 0.42974 0.24834 0.25719 0.0
C4496 C 0.43417 0.25212 0.26904 0.0
C4497 C 0.42194 0.24183 0.23461 0.0
C4498 C 0.42503 0.25359 0.23698 0.0
C4499 C 0.42917 0.25663 0.24814 0.0
C4500 C 0.42256 0.26307 0.2285 0.0
C4501 C 0.41731 0.23814 0.22279 0.0
C4502 C 0.42849 0.26383 0.21777 0.0
C4503 C 0.42536 0.2724 0.20956 0.0
C4504 C 0.4162 0.28031 0.21197 0.0
C4505 C 0.41056 0.2797 0.22291 0.0
C4506 C 0.41373 0.2712 0.23108 0.0
H4507 H 0.41396 0.22901 0.22283 0.0
H4508 H 0.41015 0.24408 0.21997 0.0
H4509 H 0.42443 0.23875 0.21621 0.0
H4510 H 0.43543 0.25771 0.21568 0.0
H4511 H 0.42992 0.27265 0.20126 0.0
H4512 H 0.79811 0.72623 0.57017 0.0
H4513 H 0.78362 0.7412 0.56494 0.0
H4514 H 0.7604 0.72812 0.59169 0.0
H4515 H 0.77465 0.71315 0.5969 0.0
H4516 H 0.74932 0.73327 0.56973 0.0
H4517 H 0.77704 0.76995 0.5862 0.0
H4518 H 0.78332 0.76026 0.57549 0.0
H4519 H 0.78005 0.75488 0.58988 0.0
C4520 C 0.78988 0.72648 0.57488 0.0
C4521 C 0.78761 0.71853 0.58404 0.0
C4522 C 0.78164 0.73507 0.5719 0.0
C4523 C 0.77101 0.73584 0.57803 0.0
C4524 C 0.76857 0.72768 0.58687 0.0
H4525 H 0.71173 0.77432 0.59556 0.0
H4526 H 0.72653 0.75992 0.59037 0.0
C4527 C 0.77677 0.71915 0.58986 0.0
C4528 C 0.7625 0.74535 0.57573 0.0
H4529 H 0.75773 0.7744 0.58091 0.0
C4530 C 0.7512 0.74231 0.57197 0.0
C4531 C 0.76502 0.75714 0.57858 0.0
C4532 C 0.77698 0.76083 0.58283 0.0
C4533 C 0.74219 0.75065 0.57153 0.0
C4534 C 0.74451 0.76227 0.57515 0.0
C4535 C 0.75598 0.76547 0.57817 0.0
C4536 C 0.73495 0.77077 0.57732 0.0
C4537 C 0.73018 0.74687 0.56753 0.0
C4538 C 0.73483 0.78175 0.57178 0.0
C4539 C 0.72634 0.7901 0.57477 0.0
C4540 C 0.71796 0.78765 0.58348 0.0
C4541 C 0.71804 0.77655 0.58883 0.0
C4542 C 0.72645 0.76823 0.5858 0.0
H4543 H 0.73072 0.73927 0.56147 0.0
H4544 H 0.72496 0.74414 0.57525 0.0
H4545 H 0.7255 0.75413 0.56306 0.0
H4546 H 0.7414 0.78392 0.56529 0.0
H4547 H 0.72656 0.79856 0.5705 0.0
H4548 H 0.79772 0.27435 0.42975 0.0
H4549 H 0.78312 0.25943 0.43485 0.0
H4550 H 0.7602 0.27258 0.40789 0.0
H4551 H 0.77454 0.2875 0.4028 0.0
H4552 H 0.74889 0.26751 0.42973 0.0
H4553 H 0.77657 0.23067 0.41357 0.0
H4554 H 0.78282 0.24035 0.42432 0.0
H4555 H 0.77969 0.24572 0.40989 0.0
C4556 C 0.78953 0.27413 0.42497 0.0
C4557 C 0.78737 0.28207 0.41578 0.0
C4558 C 0.78123 0.26556 0.42787 0.0
C4559 C 0.77065 0.26483 0.42164 0.0
C4560 C 0.76832 0.27299 0.41278 0.0
H4561 H 0.71123 0.22625 0.4041 0.0
H4562 H 0.72609 0.24068 0.40909 0.0
C4563 C 0.77658 0.2815 0.40986 0.0
C4564 C 0.76207 0.25536 0.42388 0.0
H4565 H 0.75722 0.2263 0.41879 0.0
C4566 C 0.75076 0.25846 0.42754 0.0
C4567 C 0.76456 0.24355 0.42108 0.0
C4568 C 0.77653 0.2398 0.41693 0.0
C4569 C 0.74171 0.25015 0.42795 0.0
C4570 C 0.74401 0.23851 0.42441 0.0
C4571 C 0.75549 0.23525 0.42147 0.0
C4572 C 0.73444 0.23 0.42232 0.0
C4573 C 0.72969 0.25399 0.43186 0.0
C4574 C 0.73427 0.21911 0.42802 0.0
C4575 C 0.72575 0.21075 0.42515 0.0
C4576 C 0.71738 0.2131 0.4164 0.0
C4577 C 0.71752 0.22411 0.41087 0.0
C4578 C 0.72596 0.23244 0.41378 0.0
H4579 H 0.7302 0.26167 0.43781 0.0
H4580 H 0.72449 0.25661 0.42407 0.0
H4581 H 0.72499 0.24679 0.4364 0.0
H4582 H 0.74082 0.21702 0.43456 0.0
H4583 H 0.72594 0.20236 0.42956 0.0
H4584 H 0.79915 0.72754 0.42953 0.0
H4585 H 0.7846 0.74245 0.4348 0.0
H4586 H 0.76018 0.72731 0.41031 0.0
H4587 H 0.77448 0.71243 0.40506 0.0
H4588 H 0.77479 0.7586 0.4191 0.0
H4589 H 0.74008 0.73183 0.43959 0.0
H4590 H 0.75492 0.72663 0.43783 0.0
H4591 H 0.74473 0.72586 0.42582 0.0
C4592 C 0.79061 0.72728 0.42541 0.0
C4593 C 0.78801 0.71879 0.41684 0.0
C4594 C 0.78233 0.73581 0.42843 0.0
C4595 C 0.77126 0.73587 0.42308 0.0
C4596 C 0.76857 0.72727 0.41474 0.0
H4597 H 0.71344 0.77512 0.4036 0.0
H4598 H 0.72851 0.76101 0.4089 0.0
C4599 C 0.77683 0.71882 0.41167 0.0
C4600 C 0.76279 0.74545 0.42528 0.0
H4601 H 0.73388 0.75028 0.43113 0.0
C4602 C 0.76592 0.75688 0.42202 0.0
C4603 C 0.75125 0.74317 0.42915 0.0
C4604 C 0.74757 0.73122 0.43341 0.0
C4605 C 0.75756 0.76589 0.42162 0.0
C4606 C 0.74582 0.76339 0.42471 0.0
C4607 C 0.74288 0.75215 0.42871 0.0
C4608 C 0.73626 0.77182 0.42237 0.0
C4609 C 0.76114 0.77779 0.41711 0.0
C4610 C 0.73548 0.78252 0.42837 0.0
C4611 C 0.72683 0.79068 0.42535 0.0
C4612 C 0.71884 0.78826 0.41626 0.0
C4613 C 0.71947 0.77735 0.41057 0.0
C4614 C 0.72806 0.76923 0.41361 0.0
H4615 H 0.77024 0.77784 0.41368 0.0
H4616 H 0.75512 0.78068 0.41004 0.0
H4617 H 0.76057 0.78427 0.42433 0.0
H4618 H 0.74165 0.78461 0.43526 0.0
H4619 H 0.72657 0.79897 0.42996 0.0
H4620 H 0.20154 0.72727 0.42976 0.0
H4621 H 0.216 0.74224 0.43511 0.0
H4622 H 0.2393 0.72936 0.40833 0.0
H4623 H 0.22508 0.71441 0.40299 0.0
H4624 H 0.25018 0.73426 0.43067 0.0
H4625 H 0.22291 0.77115 0.41388 0.0
H4626 H 0.21645 0.76132 0.42438 0.0
H4627 H 0.21994 0.75612 0.40997 0.0
C4628 C 0.20978 0.72757 0.42506 0.0
C4629 C 0.21209 0.71968 0.41586 0.0
C4630 C 0.218 0.73616 0.42811 0.0
C4631 C 0.22865 0.73697 0.42202 0.0
C4632 C 0.23112 0.72889 0.41312 0.0
H4633 H 0.28844 0.77465 0.40498 0.0
H4634 H 0.2734 0.76048 0.41014 0.0
C4635 C 0.22293 0.72036 0.41005 0.0
C4636 C 0.23718 0.74642 0.42445 0.0
H4637 H 0.24226 0.7754 0.41917 0.0
C4638 C 0.2484 0.74331 0.42837 0.0
C4639 C 0.23479 0.75822 0.42153 0.0
C4640 C 0.22291 0.76198 0.41715 0.0
C4641 C 0.25748 0.75157 0.42888 0.0
C4642 C 0.25531 0.76318 0.42515 0.0
C4643 C 0.2439 0.76648 0.42199 0.0
C4644 C 0.26498 0.77156 0.423 0.0
C4645 C 0.2694 0.74771 0.43306 0.0
C4646 C 0.26518 0.7826 0.42842 0.0
C4647 C 0.2738 0.79081 0.42545 0.0
C4648 C 0.28225 0.78816 0.41686 0.0
C4649 C 0.28209 0.77702 0.41162 0.0
C4650 C 0.27354 0.76884 0.41463 0.0
H4651 H 0.26871 0.74018 0.43918 0.0
H4652 H 0.27468 0.74485 0.42542 0.0
H4653 H 0.27411 0.75497 0.4375 0.0
H4654 H 0.25856 0.7849 0.43482 0.0
H4655 H 0.27364 0.79931 0.42963 0.0
H4656 H 0.27397 0.2022 0.43007 0.0
H4657 H 0.25885 0.21659 0.4352 0.0
H4658 H 0.27171 0.23974 0.40828 0.0
H4659 H 0.28682 0.22562 0.40319 0.0
H4660 H 0.26641 0.25098 0.43001 0.0
H4661 H 0.23002 0.22263 0.41395 0.0
H4662 H 0.23977 0.21662 0.42477 0.0
H4663 H 0.24513 0.2197 0.41033 0.0
C4664 C 0.27364 0.2104 0.42531 0.0
C4665 C 0.28156 0.21268 0.41613 0.0
C4666 C 0.26496 0.21858 0.42822 0.0
C4667 C 0.26408 0.22915 0.42201 0.0
C4668 C 0.27222 0.23161 0.41317 0.0
H4669 H 0.2251 0.28774 0.40344 0.0
H4670 H 0.23954 0.27301 0.40875 0.0
C4671 C 0.28084 0.22348 0.41024 0.0
C4672 C 0.25448 0.23758 0.42422 0.0
H4673 H 0.22539 0.24199 0.41889 0.0
C4674 C 0.2574 0.24897 0.42779 0.0
C4675 C 0.24272 0.2349 0.42138 0.0
C4676 C 0.23915 0.22284 0.41733 0.0
C4677 C 0.24898 0.2579 0.42804 0.0
C4678 C 0.2374 0.25542 0.42444 0.0
C4679 C 0.23429 0.24386 0.42161 0.0
C4680 C 0.22882 0.26486 0.42208 0.0
C4681 C 0.25263 0.27002 0.43182 0.0
C4682 C 0.2179 0.26509 0.42772 0.0
C4683 C 0.20954 0.27354 0.42467 0.0
C4684 C 0.21191 0.28177 0.4158 0.0
C4685 C 0.22294 0.28156 0.4103 0.0
C4686 C 0.23127 0.27319 0.4134 0.0
H4687 H 0.26027 0.26969 0.43784 0.0
H4688 H 0.25524 0.27515 0.42399 0.0
H4689 H 0.24534 0.27469 0.43625 0.0
H4690 H 0.21581 0.25865 0.43437 0.0
H4691 H 0.20113 0.27342 0.42906 0.0
H4692 H 0.2255 0.28732 0.59494 0.0
H4693 H 0.23962 0.27229 0.58966 0.0
H4694 H 0.21511 0.25762 0.56497 0.0
H4695 H 0.20073 0.2727 0.57028 0.0
H4696 H 0.22471 0.24121 0.58054 0.0
H4697 H 0.25976 0.26782 0.56044 0.0
H4698 H 0.25514 0.27374 0.57423 0.0
H4699 H 0.24497 0.27316 0.56219 0.0
C4700 C 0.2231 0.28101 0.58828 0.0
C4701 C 0.21194 0.28122 0.58306 0.0
C4702 C 0.23125 0.27247 0.5852 0.0
C4703 C 0.22849 0.26396 0.57679 0.0
C4704 C 0.21744 0.2642 0.5714 0.0
H4705 H 0.27313 0.20074 0.56991 0.0
H4706 H 0.25804 0.21508 0.56454 0.0
C4707 C 0.20925 0.27282 0.57444 0.0
C4708 C 0.23687 0.25431 0.57453 0.0
H4709 H 0.26579 0.2493 0.56892 0.0
C4710 C 0.23362 0.24288 0.57769 0.0
C4711 C 0.24846 0.25652 0.57077 0.0
C4712 C 0.25226 0.26847 0.5666 0.0
C4713 C 0.24192 0.23381 0.57811 0.0
C4714 C 0.2537 0.23625 0.57516 0.0
C4715 C 0.25676 0.24748 0.57123 0.0
C4716 C 0.2632 0.22777 0.57762 0.0
C4717 C 0.23822 0.2219 0.58249 0.0
C4718 C 0.27125 0.23031 0.58653 0.0
C4719 C 0.27984 0.2222 0.58961 0.0
C4720 C 0.28062 0.21136 0.5838 0.0
C4721 C 0.27276 0.20898 0.5746 0.0
C4722 C 0.2641 0.21713 0.57154 0.0
H4723 H 0.22904 0.22185 0.58572 0.0
H4724 H 0.23895 0.21544 0.57527 0.0
H4725 H 0.24407 0.21898 0.58969 0.0
H4726 H 0.2707 0.23849 0.59131 0.0
H4727 H 0.28576 0.2244 0.59668 0.0
H4728 H 0.7989 0.27256 0.57079 0.0
H4729 H 0.78434 0.25761 0.56566 0.0
H4730 H 0.76048 0.27208 0.5911 0.0
H4731 H 0.7748 0.287 0.59622 0.0
H4732 H 0.77499 0.24106 0.5813 0.0
H4733 H 0.7397 0.26811 0.5622 0.0
H4734 H 0.75456 0.27333 0.5637 0.0
H4735 H 0.74467 0.2738 0.57597 0.0
C4736 C 0.79048 0.27266 0.57517 0.0
C4737 C 0.78804 0.28098 0.58394 0.0
C4738 C 0.78219 0.26411 0.57223 0.0
C4739 C 0.77127 0.26385 0.57787 0.0
C4740 C 0.76875 0.27227 0.58644 0.0
H4741 H 0.71389 0.22401 0.59754 0.0
H4742 H 0.72888 0.23823 0.59235 0.0
C4743 C 0.77701 0.28075 0.58943 0.0
C4744 C 0.76279 0.25428 0.57567 0.0
H4745 H 0.73379 0.24944 0.57033 0.0
C4746 C 0.76605 0.2428 0.5786 0.0
C4747 C 0.75116 0.25659 0.57211 0.0
C4748 C 0.74734 0.26862 0.5682 0.0
C4749 C 0.75773 0.23374 0.57898 0.0
C4750 C 0.74592 0.23625 0.57619 0.0
C4751 C 0.74285 0.24756 0.57252 0.0
C4752 C 0.73644 0.22772 0.57853 0.0
C4753 C 0.76146 0.22175 0.58312 0.0
C4754 C 0.73558 0.21715 0.57231 0.0
C4755 C 0.72696 0.20892 0.57527 0.0
C4756 C 0.7191 0.21115 0.58451 0.0
C4757 C 0.71982 0.22193 0.59044 0.0
C4758 C 0.72837 0.23011 0.58746 0.0
H4759 H 0.77063 0.22167 0.58638 0.0
H4760 H 0.7556 0.21866 0.59024 0.0
H4761 H 0.76079 0.21545 0.57577 0.0
H4762 H 0.74164 0.21522 0.56528 0.0
H4763 H 0.72663 0.20074 0.57048 0.0
H4764 H 0.27336 0.79818 0.57042 0.0
H4765 H 0.25842 0.78367 0.56511 0.0
H4766 H 0.27158 0.76032 0.5917 0.0
H4767 H 0.2865 0.77459 0.59701 0.0
H4768 H 0.2665 0.74946 0.56944 0.0
H4769 H 0.22971 0.77667 0.58651 0.0
H4770 H 0.23942 0.78318 0.57593 0.0
H4771 H 0.24477 0.77966 0.59028 0.0
C4772 C 0.27313 0.78992 0.57508 0.0
C4773 C 0.28108 0.78761 0.58423 0.0
C4774 C 0.26456 0.78167 0.57206 0.0
C4775 C 0.26383 0.77099 0.57811 0.0
C4776 C 0.27198 0.76852 0.58694 0.0
H4777 H 0.22593 0.71115 0.595 0.0
H4778 H 0.24021 0.72611 0.58989 0.0
C4779 C 0.28049 0.77673 0.58999 0.0
C4780 C 0.25437 0.76245 0.57573 0.0
H4781 H 0.2254 0.75737 0.58106 0.0
C4782 C 0.25747 0.75124 0.57177 0.0
C4783 C 0.24259 0.76483 0.57871 0.0
C4784 C 0.23885 0.7767 0.58316 0.0
C4785 C 0.24919 0.74217 0.57126 0.0
C4786 C 0.23759 0.74434 0.575 0.0
C4787 C 0.23432 0.75574 0.57823 0.0
C4788 C 0.22917 0.73468 0.57708 0.0
C4789 C 0.25303 0.73026 0.56702 0.0
C4790 C 0.21814 0.73458 0.57166 0.0
C4791 C 0.20987 0.726 0.5746 0.0
C4792 C 0.21246 0.7175 0.58316 0.0
C4793 C 0.22361 0.71755 0.58839 0.0
C4794 C 0.23185 0.72605 0.5854 0.0
H4795 H 0.26056 0.73095 0.5609 0.0
H4796 H 0.25587 0.72493 0.57463 0.0
H4797 H 0.24577 0.72559 0.56254 0.0
H4798 H 0.21587 0.74124 0.5653 0.0
H4799 H 0.20136 0.72625 0.57044 0.0
H4800 H 0.04696 0.18245 0.31027 0.0
H4801 H 0.02556 0.1829 0.31091 0.0
H4802 H 0.0268 0.21188 0.33508 0.0
H4803 H 0.04823 0.2116 0.33438 0.0
H4804 H 0.01065 0.18029 0.33024 0.0
H4805 H 0.00495 0.22379 0.30918 0.0
H4806 H 0.01862 0.21586 0.30874 0.0
H4807 H 0.01444 0.22371 0.32172 0.0
C4808 C 0.04269 0.18894 0.31572 0.0
C4809 C 0.04929 0.19703 0.32224 0.0
C4810 C 0.03046 0.18917 0.31607 0.0
C4811 C 0.0246 0.19753 0.32291 0.0
C4812 C 0.03115 0.20551 0.32957 0.0
H4813 H 0.95041 0.21173 0.33413 0.0
H4814 H 0.97185 0.21169 0.33502 0.0
C4815 C 0.0434 0.20529 0.32921 0.0
C4816 C 0.01162 0.19774 0.32316 0.0
H4817 H 0.98785 0.21464 0.31651 0.0
C4818 C 0.00566 0.18779 0.32723 0.0
C4819 C 0.00514 0.20756 0.31925 0.0
C4820 C 0.01108 0.21831 0.31438 0.0
C4821 C 0.99337 0.18741 0.32756 0.0
C4822 C 0.9869 0.19718 0.32354 0.0
C4823 C 0.99285 0.20718 0.31959 0.0
C4824 C 0.97392 0.19709 0.32311 0.0
C4825 C 0.98744 0.17663 0.33236 0.0
C4826 C 0.96801 0.18899 0.31602 0.0
C4827 C 0.95578 0.18899 0.3155 0.0
C4828 C 0.94924 0.19713 0.32201 0.0
C4829 C 0.95519 0.20531 0.32904 0.0
C4830 C 0.96744 0.20531 0.32955 0.0
H4831 H 0.99346 0.17137 0.33791 0.0
H4832 H 0.97961 0.17899 0.33762 0.0
H4833 H 0.98454 0.17102 0.32497 0.0
H4834 H 0.97285 0.18274 0.31079 0.0
H4835 H 0.95147 0.18262 0.30994 0.0
H4836 H 0.78806 0.95111 0.33442 0.0
H4837 H 0.78745 0.97255 0.33497 0.0
H4838 H 0.81636 0.97405 0.31072 0.0
H4839 H 0.81696 0.95267 0.31002 0.0
H4840 H 0.80512 0.98865 0.34133 0.0
H4841 H 0.79136 0.99462 0.29511 0.0
H4842 H 0.79042 0.9807 0.30254 0.0
H4843 H 0.80422 0.98573 0.29685 0.0
C4844 C 0.79428 0.95601 0.3292 0.0
C4845 C 0.80251 0.9502 0.32212 0.0
C4846 C 0.79392 0.96825 0.32954 0.0
C4847 C 0.80173 0.97488 0.32274 0.0
C4848 C 0.8101 0.9691 0.31585 0.0
H4849 H 0.81657 0.04786 0.3107 0.0
H4850 H 0.8162 0.02647 0.31146 0.0
C4851 C 0.81047 0.95687 0.31551 0.0
C4852 C 0.80122 0.98784 0.32291 0.0
H4853 H 0.79741 0.01172 0.30533 0.0
C4854 C 0.80335 0.99372 0.33349 0.0
C4855 C 0.79888 0.9944 0.31266 0.0
C4856 C 0.79598 0.98856 0.30116 0.0
C4857 C 0.80356 0.00601 0.33403 0.0
C4858 C 0.80139 0.01256 0.32374 0.0
C4859 C 0.7991 0.00667 0.31319 0.0
C4860 C 0.8017 0.02553 0.32362 0.0
C4861 C 0.80643 0.01189 0.34551 0.0
C4862 C 0.79362 0.03209 0.33016 0.0
C4863 C 0.79381 0.04433 0.32974 0.0
C4864 C 0.80206 0.05021 0.32274 0.0
C4865 C 0.81012 0.0436 0.3162 0.0
C4866 C 0.80992 0.03138 0.31661 0.0
H4867 H 0.81046 0.0057 0.35184 0.0
H4868 H 0.81249 0.01936 0.34414 0.0
H4869 H 0.79825 0.01534 0.34946 0.0
H4870 H 0.78707 0.02773 0.33546 0.0
H4871 H 0.78744 0.04918 0.33484 0.0
H4872 H 0.9522 0.81716 0.30938 0.0
H4873 H 0.9736 0.81696 0.31017 0.0
H4874 H 0.97251 0.78857 0.33505 0.0
H4875 H 0.95107 0.7886 0.33421 0.0
H4876 H 0.98834 0.82019 0.32961 0.0
H4877 H 0.99468 0.77632 0.30952 0.0
H4878 H 0.98093 0.7841 0.30879 0.0
H4879 H 0.98507 0.77659 0.32198 0.0
C4880 C 0.95651 0.81085 0.31501 0.0
C4881 C 0.94995 0.80286 0.32169 0.0
C4882 C 0.96873 0.81076 0.31546 0.0
C4883 C 0.97464 0.80265 0.32254 0.0
C4884 C 0.96812 0.79475 0.32935 0.0
H4885 H 0.04888 0.78928 0.33422 0.0
H4886 H 0.02744 0.78924 0.3351 0.0
C4887 C 0.95588 0.79483 0.32891 0.0
C4888 C 0.98761 0.80259 0.32289 0.0
H4889 H 0.01161 0.78585 0.3167 0.0
C4890 C 0.99344 0.81269 0.32678 0.0
C4891 C 0.99423 0.79278 0.31922 0.0
C4892 C 0.98844 0.78186 0.31454 0.0
C4893 C 0.00571 0.81323 0.32718 0.0
C4894 C 0.01233 0.80346 0.32339 0.0
C4895 C 0.00651 0.79332 0.31961 0.0
C4896 C 0.0253 0.80368 0.32303 0.0
C4897 C 0.01149 0.82418 0.3318 0.0
C4898 C 0.03119 0.81174 0.31586 0.0
C4899 C 0.04342 0.8118 0.31534 0.0
C4900 C 0.04999 0.80374 0.32193 0.0
C4901 C 0.04407 0.79563 0.32906 0.0
C4902 C 0.03183 0.79558 0.32957 0.0
H4903 H 0.00537 0.82944 0.33725 0.0
H4904 H 0.01933 0.82201 0.33713 0.0
H4905 H 0.01433 0.82969 0.32433 0.0
H4906 H 0.02632 0.81791 0.31054 0.0
H4907 H 0.04771 0.81811 0.30971 0.0
H4908 H 0.21169 0.04939 0.33451 0.0
H4909 H 0.21216 0.02794 0.33503 0.0
H4910 H 0.18283 0.02668 0.31127 0.0
H4911 H 0.18238 0.04807 0.31059 0.0
H4912 H 0.19448 0.01199 0.34171 0.0
H4913 H 0.20734 0.00588 0.29525 0.0
H4914 H 0.20851 0.0198 0.30264 0.0
H4915 H 0.19458 0.01486 0.29723 0.0
C4916 C 0.20535 0.04454 0.32939 0.0
C4917 C 0.19704 0.05042 0.32245 0.0
C4918 C 0.20562 0.0323 0.32971 0.0
C4919 C 0.19765 0.02573 0.32305 0.0
C4920 C 0.18922 0.03158 0.31629 0.0
H4921 H 0.18272 0.95262 0.31121 0.0
H4922 H 0.18292 0.97402 0.312 0.0
C4923 C 0.18894 0.04381 0.31596 0.0
C4924 C 0.19806 0.01276 0.32322 0.0
H4925 H 0.20144 0.98883 0.30562 0.0
C4926 C 0.19608 0.00691 0.33385 0.0
C4927 C 0.20017 0.00617 0.31294 0.0
C4928 C 0.20288 0.01198 0.30138 0.0
C4929 C 0.19583 0.99462 0.33441 0.0
C4930 C 0.19778 0.98804 0.3241 0.0
C4931 C 0.19989 0.9939 0.3135 0.0
C4932 C 0.19751 0.97507 0.32403 0.0
C4933 C 0.19314 0.98878 0.34596 0.0
C4934 C 0.2057 0.96856 0.33049 0.0
C4935 C 0.20561 0.95631 0.33007 0.0
C4936 C 0.19736 0.95038 0.32311 0.0
C4937 C 0.18917 0.95693 0.31666 0.0
C4938 C 0.18927 0.96915 0.3171 0.0
H4939 H 0.18914 0.99498 0.3523 0.0
H4940 H 0.18711 0.98125 0.34472 0.0
H4941 H 0.20139 0.98542 0.34983 0.0
H4942 H 0.21228 0.97296 0.33572 0.0
H4943 H 0.21207 0.95152 0.33508 0.0
H4944 H 0.04929 0.78734 0.66495 0.0
H4945 H 0.02785 0.78674 0.66426 0.0
H4946 H 0.0262 0.81559 0.68857 0.0
H4947 H 0.04758 0.81619 0.68941 0.0
H4948 H 0.01174 0.79654 0.69453 0.0
H4949 H 0.00544 0.80995 0.64814 0.0
H4950 H 0.01523 0.79784 0.65042 0.0
H4951 H 0.01909 0.8121 0.65583 0.0
C4952 C 0.04436 0.7936 0.67009 0.0
C4953 C 0.05013 0.80183 0.67721 0.0
C4954 C 0.03211 0.79328 0.66964 0.0
C4955 C 0.02544 0.80121 0.67626 0.0
C4956 C 0.03119 0.80942 0.68336 0.0
H4957 H 0.95277 0.8162 0.69033 0.0
H4958 H 0.97414 0.81552 0.68944 0.0
C4959 C 0.04341 0.80976 0.68381 0.0
C4960 C 0.01247 0.80073 0.67616 0.0
H4961 H 0.98847 0.80447 0.6587 0.0
C4962 C 0.00665 0.79828 0.6867 0.0
C4963 C 0.00587 0.80293 0.66591 0.0
C4964 C 0.01168 0.80595 0.65444 0.0
C4965 C 0.99438 0.79797 0.68728 0.0
C4966 C 0.98776 0.80039 0.67709 0.0
C4967 C 0.99358 0.80264 0.66649 0.0
C4968 C 0.9748 0.80094 0.67735 0.0
C4969 C 0.9886 0.79493 0.69877 0.0
C4970 C 0.96808 0.79318 0.67059 0.0
C4971 C 0.95584 0.79359 0.67104 0.0
C4972 C 0.95013 0.80181 0.6782 0.0
C4973 C 0.9569 0.80972 0.68478 0.0
C4974 C 0.96911 0.8093 0.68433 0.0
H4975 H 0.99471 0.79026 0.70474 0.0
H4976 H 0.98578 0.80312 0.70319 0.0
H4977 H 0.98074 0.78938 0.69737 0.0
H4978 H 0.97232 0.78672 0.66509 0.0
H4979 H 0.95087 0.7874 0.66584 0.0
H4980 H 0.21141 0.04853 0.66602 0.0
H4981 H 0.21166 0.02709 0.66554 0.0
H4982 H 0.18337 0.02612 0.69053 0.0
H4983 H 0.18314 0.04754 0.69117 0.0
H4984 H 0.20204 0.01119 0.69608 0.0
H4985 H 0.18779 0.0052 0.64995 0.0
H4986 H 0.20018 0.0147 0.65186 0.0
H4987 H 0.18616 0.01892 0.65764 0.0
C4988 C 0.2052 0.04375 0.67137 0.0
C4989 C 0.19723 0.04972 0.67861 0.0
C4990 C 0.20531 0.03151 0.67103 0.0
C4991 C 0.19742 0.02503 0.67787 0.0
C4992 C 0.18949 0.03097 0.68513 0.0
H4993 H 0.18305 0.95182 0.69135 0.0
H4994 H 0.1834 0.97321 0.6909 0.0
C4995 C 0.18937 0.0432 0.68548 0.0
C4996 C 0.19765 0.01205 0.67776 0.0
H4997 H 0.19375 0.98816 0.66018 0.0
C4998 C 0.2002 0.00615 0.68824 0.0
C4999 C 0.1953 0.0055 0.66751 0.0
C5000 C 0.1921 0.01137 0.65611 0.0
C5001 C 0.20055 0.99387 0.68873 0.0
C5002 C 0.19809 0.98733 0.67851 0.0
C5003 C 0.19564 0.99321 0.668 0.0
C5004 C 0.19779 0.97435 0.67861 0.0
C5005 C 0.20373 0.98802 0.70015 0.0
C5006 C 0.20555 0.96789 0.67161 0.0
C5007 C 0.20533 0.95564 0.6718 0.0
C5008 C 0.19729 0.94965 0.67895 0.0
C5009 C 0.1894 0.95616 0.6858 0.0
C5010 C 0.18963 0.96839 0.68561 0.0
H5011 H 0.20835 0.99412 0.70616 0.0
H5012 H 0.19562 0.98503 0.70457 0.0
H5013 H 0.20939 0.98026 0.69863 0.0
H5014 H 0.21186 0.97233 0.6661 0.0
H5015 H 0.2115 0.95087 0.6664 0.0
H5016 H 0.9523 0.18278 0.69096 0.0
H5017 H 0.9737 0.18306 0.69014 0.0
H5018 H 0.97243 0.21091 0.66466 0.0
H5019 H 0.95101 0.21079 0.66554 0.0
H5020 H 0.98852 0.17952 0.67087 0.0
H5021 H 0.99446 0.22393 0.68984 0.0
H5022 H 0.98076 0.21609 0.69071 0.0
H5023 H 0.98491 0.22331 0.67735 0.0
C5024 C 0.95656 0.18898 0.68519 0.0
C5025 C 0.94996 0.19681 0.67836 0.0
C5026 C 0.9688 0.18912 0.68473 0.0
C5027 C 0.97465 0.19712 0.67747 0.0
C5028 C 0.96809 0.20482 0.67049 0.0
H5029 H 0.04877 0.21097 0.66544 0.0
H5030 H 0.02733 0.21077 0.66456 0.0
C5031 C 0.95585 0.2047 0.67096 0.0
C5032 C 0.98763 0.19728 0.67713 0.0
H5033 H 0.01147 0.21442 0.68282 0.0
C5034 C 0.99355 0.18714 0.6735 0.0
C5035 C 0.99416 0.20725 0.68053 0.0
C5036 C 0.98828 0.21824 0.68493 0.0
C5037 C 0.00583 0.18672 0.67309 0.0
C5038 C 0.01236 0.19665 0.6766 0.0
C5039 C 0.00644 0.20683 0.68012 0.0
C5040 C 0.02534 0.19657 0.67694 0.0
C5041 C 0.0117 0.17571 0.66873 0.0
C5042 C 0.03131 0.18873 0.68428 0.0
C5043 C 0.04354 0.1888 0.68479 0.0
C5044 C 0.05003 0.19679 0.67802 0.0
C5045 C 0.04402 0.20469 0.67073 0.0
C5046 C 0.03178 0.2046 0.67022 0.0
H5047 H 0.00564 0.17026 0.66341 0.0
H5048 H 0.01953 0.17781 0.66337 0.0
H5049 H 0.01457 0.1704 0.67635 0.0
H5050 H 0.02651 0.18263 0.68973 0.0
H5051 H 0.04789 0.18266 0.69055 0.0
H5052 H 0.78858 0.04836 0.66647 0.0
H5053 H 0.7884 0.02693 0.66566 0.0
H5054 H 0.81643 0.02567 0.69094 0.0
H5055 H 0.81678 0.04708 0.6917 0.0
H5056 H 0.81981 0.01086 0.6716 0.0
H5057 H 0.77558 0.00491 0.69099 0.0
H5058 H 0.77611 0.01449 0.67852 0.0
H5059 H 0.78346 0.0186 0.69182 0.0
C5060 C 0.7947 0.04352 0.67187 0.0
C5061 C 0.80267 0.04941 0.67918 0.0
C5062 C 0.79454 0.03128 0.67144 0.0
C5063 C 0.80228 0.02472 0.67838 0.0
C5064 C 0.81034 0.03057 0.68556 0.0
H5065 H 0.81689 0.95154 0.6914 0.0
H5066 H 0.81682 0.97292 0.69059 0.0
C5067 C 0.81052 0.04281 0.68599 0.0
C5068 C 0.80212 0.01174 0.67804 0.0
H5069 H 0.78504 0.98789 0.68389 0.0
C5070 C 0.81222 0.00582 0.6743 0.0
C5071 C 0.79218 0.00521 0.68153 0.0
C5072 C 0.78124 0.01109 0.68604 0.0
C5073 C 0.81263 0.99354 0.67387 0.0
C5074 C 0.80274 0.98702 0.67749 0.0
C5075 C 0.7926 0.99293 0.68111 0.0
C5076 C 0.80284 0.97404 0.67784 0.0
C5077 C 0.8236 0.98767 0.66941 0.0
C5078 C 0.79482 0.96757 0.67115 0.0
C5079 C 0.79478 0.95532 0.67164 0.0
C5080 C 0.80273 0.94935 0.6789 0.0
C5081 C 0.8107 0.95587 0.68566 0.0
C5082 C 0.81073 0.96809 0.68516 0.0
H5083 H 0.829 0.99374 0.66406 0.0
H5084 H 0.82897 0.98477 0.67697 0.0
H5085 H 0.82144 0.97985 0.66404 0.0
H5086 H 0.78861 0.972 0.66551 0.0
H5087 H 0.78851 0.95055 0.66636 0.0
H5088 H 0.30944 0.95207 0.18351 0.0
H5089 H 0.31028 0.97346 0.18388 0.0
H5090 H 0.33477 0.9721 0.21259 0.0
H5091 H 0.33409 0.95066 0.2122 0.0
H5092 H 0.30446 0.98817 0.20272 0.0
H5093 H 0.35079 0.99422 0.18909 0.0
H5094 H 0.34308 0.98055 0.18717 0.0
H5095 H 0.34861 0.98457 0.20133 0.0
C5096 C 0.31508 0.95631 0.18985 0.0
C5097 C 0.32173 0.94967 0.1978 0.0
C5098 C 0.31553 0.96853 0.19006 0.0
C5099 C 0.32269 0.97436 0.19816 0.0
C5100 C 0.32935 0.96777 0.20612 0.0
H5101 H 0.3337 0.04874 0.212 0.0
H5102 H 0.33421 0.02728 0.21255 0.0
C5103 C 0.32891 0.95553 0.20593 0.0
C5104 C 0.32281 0.98734 0.19851 0.0
H5105 H 0.34039 0.01125 0.1947 0.0
C5106 C 0.31231 0.99322 0.20095 0.0
C5107 C 0.33308 0.99389 0.19626 0.0
C5108 C 0.34453 0.98802 0.19322 0.0
C5109 C 0.31179 0.00549 0.20125 0.0
C5110 C 0.32201 0.01205 0.19883 0.0
C5111 C 0.33256 0.00618 0.19654 0.0
C5112 C 0.32184 0.02503 0.19837 0.0
C5113 C 0.30033 0.01133 0.20431 0.0
C5114 C 0.31488 0.03085 0.19009 0.0
C5115 C 0.31456 0.04307 0.18976 0.0
C5116 C 0.32127 0.04972 0.19766 0.0
C5117 C 0.32841 0.04387 0.20582 0.0
C5118 C 0.32872 0.03162 0.20614 0.0
H5119 H 0.29432 0.00525 0.20895 0.0
H5120 H 0.30178 0.01915 0.2099 0.0
H5121 H 0.29593 0.01422 0.19614 0.0
H5122 H 0.30969 0.02592 0.18386 0.0
H5123 H 0.30903 0.04731 0.18332 0.0
H5124 H 0.95207 0.30853 0.18364 0.0
H5125 H 0.97347 0.30914 0.18402 0.0
H5126 H 0.97234 0.334 0.21243 0.0
H5127 H 0.95091 0.33334 0.2122 0.0
H5128 H 0.98826 0.32849 0.18085 0.0
H5129 H 0.99442 0.30845 0.22477 0.0
H5130 H 0.9807 0.30775 0.21695 0.0
H5131 H 0.98485 0.32093 0.22447 0.0
C5132 C 0.95636 0.3141 0.19 0.0
C5133 C 0.94979 0.32085 0.19793 0.0
C5134 C 0.9686 0.31445 0.19019 0.0
C5135 C 0.97449 0.32149 0.19836 0.0
C5136 C 0.96796 0.32833 0.20621 0.0
H5137 H 0.04869 0.33336 0.21189 0.0
H5138 H 0.02724 0.33415 0.21192 0.0
C5139 C 0.95572 0.328 0.20602 0.0
C5140 C 0.98747 0.3218 0.19846 0.0
H5141 H 0.0114 0.31567 0.21532 0.0
C5142 C 0.99333 0.32568 0.18838 0.0
C5143 C 0.99404 0.31815 0.20831 0.0
C5144 C 0.98822 0.31349 0.21921 0.0
C5145 C 0.00561 0.32609 0.1879 0.0
C5146 C 0.01219 0.32233 0.1977 0.0
C5147 C 0.00633 0.31856 0.20783 0.0
C5148 C 0.02517 0.322 0.19753 0.0
C5149 C 0.01143 0.33069 0.17696 0.0
C5150 C 0.03109 0.31481 0.18952 0.0
C5151 C 0.04332 0.31434 0.18947 0.0
C5152 C 0.04986 0.32101 0.1975 0.0
C5153 C 0.0439 0.32815 0.20557 0.0
C5154 C 0.03166 0.3286 0.20561 0.0
H5155 H 0.00533 0.3361 0.17165 0.0
H5156 H 0.01925 0.33604 0.17915 0.0
H5157 H 0.01431 0.3232 0.17149 0.0
H5158 H 0.02624 0.30944 0.18338 0.0
H5159 H 0.04764 0.3087 0.18319 0.0
H5160 H 0.69068 0.95266 0.18268 0.0
H5161 H 0.69014 0.97405 0.1832 0.0
H5162 H 0.66608 0.97287 0.21227 0.0
H5163 H 0.66645 0.95141 0.21175 0.0
H5164 H 0.65972 0.98895 0.19459 0.0
H5165 H 0.70609 0.99459 0.20799 0.0
H5166 H 0.70417 0.98569 0.19517 0.0
H5167 H 0.69856 0.98073 0.20903 0.0
C5168 C 0.68526 0.95693 0.18919 0.0
C5169 C 0.67865 0.95034 0.19722 0.0
C5170 C 0.68502 0.96916 0.18951 0.0
C5171 C 0.67823 0.97503 0.1979 0.0
C5172 C 0.67143 0.96849 0.20578 0.0
H5173 H 0.66654 0.04935 0.2123 0.0
H5174 H 0.66585 0.02791 0.2126 0.0
C5175 C 0.67167 0.95624 0.20547 0.0
C5176 C 0.67817 0.988 0.19837 0.0
H5177 H 0.69593 0.01176 0.20208 0.0
C5178 C 0.66761 0.99395 0.19631 0.0
C5179 C 0.68847 0.99449 0.20063 0.0
C5180 C 0.69995 0.98857 0.20344 0.0
C5181 C 0.66716 0.00625 0.19612 0.0
C5182 C 0.6775 0.01273 0.19822 0.0
C5183 C 0.68802 0.00677 0.20042 0.0
C5184 C 0.67769 0.0257 0.19797 0.0
C5185 C 0.65569 0.0122 0.19332 0.0
C5186 C 0.68475 0.03156 0.1898 0.0
C5187 C 0.68521 0.04378 0.18965 0.0
C5188 C 0.67867 0.05039 0.19772 0.0
C5189 C 0.67163 0.04451 0.20593 0.0
C5190 C 0.67117 0.03226 0.20608 0.0
H5191 H 0.64933 0.00607 0.18924 0.0
H5192 H 0.65176 0.01558 0.20154 0.0
H5193 H 0.65707 0.01973 0.18733 0.0
H5194 H 0.68989 0.02666 0.18351 0.0
H5195 H 0.69074 0.04805 0.18323 0.0
H5196 H 0.04796 0.691 0.1836 0.0
H5197 H 0.02655 0.69033 0.18372 0.0
H5198 H 0.02741 0.66546 0.21213 0.0
H5199 H 0.04884 0.66617 0.21216 0.0
H5200 H 0.01175 0.67087 0.18047 0.0
H5201 H 0.0053 0.69113 0.22424 0.0
H5202 H 0.01906 0.69183 0.2165 0.0
H5203 H 0.01491 0.67867 0.22406 0.0
C5204 C 0.0436 0.68541 0.18989 0.0
C5205 C 0.05009 0.67868 0.19791 0.0
C5206 C 0.03137 0.68503 0.18994 0.0
C5207 C 0.0254 0.67797 0.19804 0.0
C5208 C 0.03185 0.67113 0.20596 0.0
H5209 H 0.95127 0.66601 0.21148 0.0
H5210 H 0.97271 0.66525 0.21147 0.0
C5211 C 0.04409 0.6715 0.20592 0.0
C5212 C 0.01243 0.67766 0.19805 0.0
H5213 H 0.98839 0.68379 0.21476 0.0
C5214 C 0.00663 0.67371 0.18795 0.0
C5215 C 0.00579 0.68134 0.20784 0.0
C5216 C 0.01155 0.68608 0.21875 0.0
C5217 C 0.99436 0.67325 0.18742 0.0
C5218 C 0.98772 0.67702 0.19717 0.0
C5219 C 0.99352 0.68088 0.2073 0.0
C5220 C 0.97474 0.67727 0.19697 0.0
C5221 C 0.98861 0.66855 0.17648 0.0
C5222 C 0.9688 0.68437 0.18889 0.0
C5223 C 0.95657 0.68481 0.18886 0.0
C5224 C 0.95006 0.67822 0.19697 0.0
C5225 C 0.95604 0.67116 0.20509 0.0
C5226 C 0.96828 0.67072 0.20511 0.0
H5227 H 0.99476 0.66313 0.17124 0.0
H5228 H 0.9808 0.66318 0.17867 0.0
H5229 H 0.98572 0.67599 0.17095 0.0
H5230 H 0.97362 0.68969 0.18269 0.0
H5231 H 0.95223 0.6904 0.18254 0.0
H5232 H 0.33477 0.9508 0.78913 0.0
H5233 H 0.33589 0.97224 0.78897 0.0
H5234 H 0.31052 0.97382 0.81689 0.0
H5235 H 0.30945 0.95245 0.81722 0.0
H5236 H 0.31792 0.98839 0.78499 0.0
H5237 H 0.3371 0.99438 0.82921 0.0
H5238 H 0.33697 0.9804 0.82181 0.0
H5239 H 0.32404 0.98563 0.82912 0.0
C5240 C 0.32948 0.95572 0.79528 0.0
C5241 C 0.32207 0.94993 0.80323 0.0
C5242 C 0.33012 0.96796 0.79516 0.0
C5243 C 0.32343 0.97461 0.80304 0.0
C5244 C 0.31595 0.96885 0.81091 0.0
H5245 H 0.3096 0.04753 0.81656 0.0
H5246 H 0.31044 0.02615 0.81613 0.0
C5247 C 0.31531 0.95663 0.81104 0.0
C5248 C 0.32398 0.98758 0.80282 0.0
H5249 H 0.32974 0.0115 0.81983 0.0
C5250 C 0.3206 0.99346 0.79256 0.0
C5251 C 0.32748 0.99416 0.81272 0.0
C5252 C 0.33171 0.98833 0.82381 0.0
C5253 C 0.32028 0.00574 0.79205 0.0
C5254 C 0.32362 0.01231 0.80202 0.0
C5255 C 0.32716 0.00644 0.81222 0.0
C5256 C 0.32321 0.02529 0.80216 0.0
C5257 C 0.31601 0.01158 0.78099 0.0
C5258 C 0.33022 0.03192 0.79454 0.0
C5259 C 0.32975 0.04416 0.79474 0.0
C5260 C 0.32231 0.04999 0.80264 0.0
C5261 C 0.31541 0.04332 0.81036 0.0
C5262 C 0.31588 0.03109 0.81013 0.0
H5263 H 0.3112 0.00538 0.77524 0.0
H5264 H 0.31018 0.01908 0.78306 0.0
H5265 H 0.32364 0.01498 0.77603 0.0
H5266 H 0.33611 0.02762 0.78847 0.0
H5267 H 0.33522 0.04905 0.78873 0.0
H5268 H 0.04888 0.33451 0.78823 0.0
H5269 H 0.02746 0.3357 0.78828 0.0
H5270 H 0.02612 0.31144 0.81719 0.0
H5271 H 0.0475 0.31029 0.8173 0.0
H5272 H 0.01139 0.31736 0.78517 0.0
H5273 H 0.00556 0.33862 0.82847 0.0
H5274 H 0.01948 0.33827 0.82096 0.0
H5275 H 0.01441 0.32562 0.82886 0.0
C5276 C 0.04403 0.32949 0.79465 0.0
C5277 C 0.04988 0.32235 0.8028 0.0
C5278 C 0.0318 0.33017 0.79465 0.0
C5279 C 0.02522 0.3238 0.80285 0.0
C5280 C 0.03104 0.31662 0.81095 0.0
H5281 H 0.95227 0.3106 0.81695 0.0
H5282 H 0.97366 0.31153 0.81666 0.0
C5283 C 0.04326 0.31593 0.81095 0.0
C5284 C 0.01225 0.32431 0.80267 0.0
H5285 H 0.98841 0.33098 0.81943 0.0
C5286 C 0.00635 0.32043 0.79261 0.0
C5287 C 0.00572 0.32831 0.81241 0.0
C5288 C 0.0116 0.33305 0.82325 0.0
C5289 C 0.99406 0.32012 0.79216 0.0
C5290 C 0.98753 0.32399 0.80195 0.0
C5291 C 0.99344 0.328 0.81195 0.0
C5292 C 0.97456 0.32364 0.80212 0.0
C5293 C 0.98819 0.3153 0.78134 0.0
C5294 C 0.96797 0.33028 0.79413 0.0
C5295 C 0.95573 0.32975 0.79426 0.0
C5296 C 0.94988 0.32263 0.80243 0.0
C5297 C 0.95651 0.31615 0.81053 0.0
C5298 C 0.96873 0.31668 0.81039 0.0
H5299 H 0.99436 0.31017 0.77584 0.0
H5300 H 0.98067 0.3096 0.78373 0.0
H5301 H 0.9848 0.32267 0.77599 0.0
H5302 H 0.9723 0.33588 0.78782 0.0
H5303 H 0.95087 0.33489 0.78794 0.0
H5304 H 0.68998 0.04734 0.81744 0.0
H5305 H 0.68919 0.02593 0.81706 0.0
H5306 H 0.66433 0.02727 0.78867 0.0
H5307 H 0.66517 0.0487 0.78889 0.0
H5308 H 0.66977 0.01117 0.82015 0.0
H5309 H 0.68985 0.00522 0.77622 0.0
H5310 H 0.69058 0.0189 0.78412 0.0
H5311 H 0.67738 0.01481 0.77658 0.0
C5312 C 0.68436 0.04308 0.8111 0.0
C5313 C 0.67768 0.04971 0.80316 0.0
C5314 C 0.68391 0.03086 0.8109 0.0
C5315 C 0.67683 0.02502 0.80273 0.0
C5316 C 0.67002 0.0316 0.79489 0.0
H5317 H 0.66535 0.95076 0.7889 0.0
H5318 H 0.66435 0.9722 0.78892 0.0
C5319 C 0.67047 0.04384 0.79508 0.0
C5320 C 0.67648 0.01205 0.80256 0.0
H5321 H 0.68269 0.9882 0.78561 0.0
C5322 C 0.6726 0.00614 0.81261 0.0
C5323 C 0.68015 0.00552 0.79269 0.0
C5324 C 0.68482 0.0114 0.78181 0.0
C5325 C 0.67221 0.99386 0.81304 0.0
C5326 C 0.67601 0.98733 0.80322 0.0
C5327 C 0.67977 0.99324 0.79311 0.0
C5328 C 0.67644 0.97435 0.80336 0.0
C5329 C 0.66761 0.98799 0.82394 0.0
C5330 C 0.68366 0.96848 0.81137 0.0
C5331 C 0.68424 0.95626 0.81139 0.0
C5332 C 0.67766 0.94968 0.80333 0.0
C5333 C 0.67049 0.95558 0.79524 0.0
C5334 C 0.66992 0.96782 0.79524 0.0
H5335 H 0.66213 0.99404 0.82924 0.0
H5336 H 0.66232 0.98013 0.82172 0.0
H5337 H 0.6751 0.98515 0.82945 0.0
H5338 H 0.68896 0.97336 0.81755 0.0
H5339 H 0.68991 0.95198 0.81768 0.0
H5340 H 0.95128 0.66544 0.78933 0.0
H5341 H 0.97271 0.66457 0.78935 0.0
H5342 H 0.97374 0.68937 0.81782 0.0
H5343 H 0.95235 0.69017 0.81797 0.0
H5344 H 0.98848 0.68291 0.7858 0.0
H5345 H 0.99478 0.66294 0.82965 0.0
H5346 H 0.9808 0.66297 0.82224 0.0
H5347 H 0.98583 0.67587 0.82975 0.0
C5348 C 0.95607 0.67064 0.79565 0.0
C5349 C 0.95012 0.67783 0.80369 0.0
C5350 C 0.96831 0.67015 0.79564 0.0
C5351 C 0.97481 0.67676 0.80371 0.0
C5352 C 0.96889 0.68399 0.81169 0.0
H5353 H 0.04798 0.69054 0.81697 0.0
H5354 H 0.02658 0.68978 0.81684 0.0
C5355 C 0.95666 0.68449 0.81172 0.0
C5356 C 0.98778 0.67645 0.8035 0.0
H5357 H 0.0118 0.67049 0.8203 0.0
C5358 C 0.99359 0.68011 0.7933 0.0
C5359 C 0.99441 0.67281 0.81331 0.0
C5360 C 0.98866 0.66832 0.82433 0.0
C5361 C 0.00587 0.68052 0.79276 0.0
C5362 C 0.0125 0.67698 0.80261 0.0
C5363 C 0.00669 0.67322 0.81277 0.0
C5364 C 0.02547 0.6773 0.80263 0.0
C5365 C 0.01163 0.68506 0.78177 0.0
C5366 C 0.03195 0.67042 0.79478 0.0
C5367 C 0.0442 0.67085 0.79481 0.0
C5368 C 0.05017 0.67812 0.80276 0.0
C5369 C 0.04365 0.68487 0.81072 0.0
C5370 C 0.03142 0.68444 0.81067 0.0
H5371 H 0.0054 0.69005 0.7762 0.0
H5372 H 0.01918 0.69081 0.78392 0.0
H5373 H 0.01495 0.67756 0.77656 0.0
H5374 H 0.02754 0.66467 0.78866 0.0
H5375 H 0.04897 0.66549 0.78861 0.0
H5376 H 0.21198 0.33456 0.04974 0.0
H5377 H 0.21224 0.33569 0.02831 0.0
H5378 H 0.18309 0.31174 0.02663 0.0
H5379 H 0.18284 0.31046 0.048 0.0
H5380 H 0.20177 0.30587 0.01176 0.0
H5381 H 0.18893 0.35255 0.00661 0.0
H5382 H 0.20118 0.34995 0.01615 0.0
H5383 H 0.18693 0.34462 0.02015 0.0
C5384 C 0.20558 0.32959 0.0448 0.0
C5385 C 0.19737 0.32244 0.05056 0.0
C5386 C 0.20571 0.3303 0.03257 0.0
C5387 C 0.19759 0.32392 0.0259 0.0
C5388 C 0.1894 0.31678 0.03163 0.0
H5389 H 0.18205 0.31151 0.95296 0.0
H5390 H 0.18262 0.31211 0.97435 0.0
C5391 C 0.18926 0.31607 0.04384 0.0
C5392 C 0.19788 0.32428 0.01293 0.0
H5393 H 0.19419 0.34232 0.98936 0.0
C5394 C 0.2001 0.31383 0.00686 0.0
C5395 C 0.19576 0.3347 0.00658 0.0
C5396 C 0.19297 0.34609 0.01267 0.0
C5397 C 0.20029 0.31352 0.99458 0.0
C5398 C 0.19798 0.32389 0.98821 0.0
C5399 C 0.19593 0.33439 0.99428 0.0
C5400 C 0.1974 0.32393 0.97525 0.0
C5401 C 0.20311 0.30211 0.98852 0.0
C5402 C 0.20529 0.33068 0.96867 0.0
C5403 C 0.20495 0.3304 0.95643 0.0
C5404 C 0.19666 0.32343 0.95057 0.0
C5405 C 0.18859 0.31691 0.9572 0.0
C5406 C 0.18894 0.3172 0.96943 0.0
H5407 H 0.20769 0.29592 0.99447 0.0
H5408 H 0.19484 0.29791 0.98563 0.0
H5409 H 0.20866 0.3036 0.98068 0.0
H5410 H 0.21184 0.33599 0.97302 0.0
H5411 H 0.21127 0.33554 0.95156 0.0
H5412 H 0.18245 0.68961 0.9525 0.0
H5413 H 0.18281 0.68892 0.97389 0.0
H5414 H 0.21186 0.66482 0.97274 0.0
H5415 H 0.21149 0.66536 0.95129 0.0
H5416 H 0.19397 0.65845 0.98875 0.0
H5417 H 0.20767 0.70472 0.99457 0.0
H5418 H 0.19491 0.70288 0.98556 0.0
H5419 H 0.20877 0.6972 0.98071 0.0
C5420 C 0.18891 0.68415 0.95678 0.0
C5421 C 0.19699 0.67759 0.9502 0.0
C5422 C 0.18915 0.68382 0.96901 0.0
C5423 C 0.19749 0.67698 0.97489 0.0
C5424 C 0.2054 0.67022 0.96836 0.0
H5425 H 0.21142 0.66513 0.04931 0.0
H5426 H 0.21179 0.66436 0.02786 0.0
C5427 C 0.20518 0.67054 0.95611 0.0
C5428 C 0.1979 0.67687 0.98787 0.0
H5429 H 0.20162 0.69456 0.01168 0.0
C5430 C 0.19572 0.66632 0.99378 0.0
C5431 C 0.20021 0.68715 0.99439 0.0
C5432 C 0.20313 0.69862 0.9885 0.0
C5433 C 0.19545 0.66584 0.00608 0.0
C5434 C 0.19761 0.67616 0.01259 0.0
C5435 C 0.19993 0.68667 0.00666 0.0
C5436 C 0.19728 0.67633 0.02557 0.0
C5437 C 0.19253 0.65439 0.01199 0.0
C5438 C 0.18913 0.68347 0.03137 0.0
C5439 C 0.18894 0.68398 0.04359 0.0
C5440 C 0.19694 0.6774 0.05025 0.0
C5441 C 0.2051 0.67026 0.04442 0.0
C5442 C 0.20529 0.66975 0.03218 0.0
H5443 H 0.18844 0.64807 0.00582 0.0
H5444 H 0.20069 0.65039 0.01542 0.0
H5445 H 0.18649 0.6558 0.01948 0.0
H5446 H 0.18291 0.68866 0.02643 0.0
H5447 H 0.18255 0.68958 0.0478 0.0
H5448 H 0.33382 0.21097 0.04861 0.0
H5449 H 0.33441 0.21128 0.02718 0.0
H5450 H 0.30974 0.18271 0.02601 0.0
H5451 H 0.30921 0.18223 0.04742 0.0
H5452 H 0.32885 0.1799 0.01083 0.0
H5453 H 0.30845 0.22378 0.00572 0.0
H5454 H 0.3211 0.22342 0.01506 0.0
H5455 H 0.30804 0.21575 0.01934 0.0
C5456 C 0.32853 0.20475 0.04379 0.0
C5457 C 0.32143 0.19661 0.04971 0.0
C5458 C 0.32882 0.20499 0.03155 0.0
C5459 C 0.32197 0.19715 0.02501 0.0
C5460 C 0.31504 0.18888 0.0309 0.0
H5461 H 0.30836 0.18321 0.95165 0.0
H5462 H 0.30917 0.18305 0.97306 0.0
C5463 C 0.31475 0.18863 0.04313 0.0
C5464 C 0.32208 0.19745 0.01203 0.0
H5465 H 0.31546 0.21467 0.98848 0.0
C5466 C 0.32591 0.18749 0.00594 0.0
C5467 C 0.31826 0.20738 0.00568 0.0
C5468 C 0.31363 0.21817 0.01175 0.0
C5469 C 0.32611 0.18722 0.99364 0.0
C5470 C 0.3222 0.19711 0.98729 0.0
C5471 C 0.31847 0.20711 0.99338 0.0
C5472 C 0.32173 0.19719 0.97432 0.0
C5473 C 0.33069 0.17641 0.98756 0.0
C5474 C 0.32831 0.20538 0.96793 0.0
C5475 C 0.32781 0.20553 0.95569 0.0
C5476 C 0.32067 0.19754 0.94963 0.0
C5477 C 0.314 0.18944 0.95606 0.0
C5478 C 0.3145 0.18928 0.96829 0.0
H5479 H 0.33615 0.17098 0.99351 0.0
H5480 H 0.32318 0.17099 0.98461 0.0
H5481 H 0.33598 0.17878 0.97976 0.0
H5482 H 0.33388 0.2116 0.97243 0.0
H5483 H 0.33303 0.21191 0.951 0.0
H5484 H 0.78809 0.33492 0.95055 0.0
H5485 H 0.78765 0.33588 0.97198 0.0
H5486 H 0.81649 0.31157 0.97372 0.0
H5487 H 0.81692 0.31046 0.95235 0.0
H5488 H 0.79765 0.30586 0.98848 0.0
H5489 H 0.81106 0.35235 0.99387 0.0
H5490 H 0.79884 0.34995 0.98425 0.0
H5491 H 0.81304 0.34444 0.98032 0.0
C5492 C 0.79438 0.32983 0.9555 0.0
C5493 C 0.80256 0.32263 0.94976 0.0
C5494 C 0.79415 0.33044 0.96773 0.0
C5495 C 0.80214 0.32391 0.97442 0.0
C5496 C 0.81029 0.31671 0.96871 0.0
H5497 H 0.81741 0.3112 0.04733 0.0
H5498 H 0.81674 0.31173 0.02595 0.0
C5499 C 0.81053 0.3161 0.9565 0.0
C5500 C 0.80178 0.32422 0.98739 0.0
H5501 H 0.80558 0.34213 0.01105 0.0
C5502 C 0.79939 0.31378 0.99342 0.0
C5503 C 0.804 0.33459 0.9938 0.0
C5504 C 0.80698 0.34597 0.98777 0.0
C5505 C 0.79913 0.31343 0.0057 0.0
C5506 C 0.80154 0.32375 0.01212 0.0
C5507 C 0.80375 0.33424 0.0061 0.0
C5508 C 0.8021 0.32373 0.02508 0.0
C5509 C 0.79616 0.30204 0.0117 0.0
C5510 C 0.79431 0.33058 0.03167 0.0
C5511 C 0.79471 0.33035 0.04392 0.0
C5512 C 0.80296 0.32331 0.04976 0.0
C5513 C 0.8109 0.31666 0.04311 0.0
C5514 C 0.81049 0.3169 0.03089 0.0
H5515 H 0.79151 0.29593 0.00572 0.0
H5516 H 0.80436 0.29771 0.0146 0.0
H5517 H 0.7906 0.30356 0.01954 0.0
H5518 H 0.78782 0.33598 0.02734 0.0
H5519 H 0.78849 0.33559 0.04881 0.0
H5520 H 0.69002 0.81728 0.04789 0.0
H5521 H 0.68894 0.81709 0.02651 0.0
H5522 H 0.66467 0.78818 0.02789 0.0
H5523 H 0.6658 0.78822 0.04932 0.0
H5524 H 0.68297 0.785 0.01185 0.0
H5525 H 0.66189 0.82836 0.00586 0.0
H5526 H 0.67488 0.82876 0.01471 0.0
H5527 H 0.66222 0.82091 0.01981 0.0
C5528 C 0.68439 0.81092 0.04366 0.0
C5529 C 0.67796 0.80279 0.0503 0.0
C5530 C 0.68374 0.81087 0.03144 0.0
C5531 C 0.67658 0.80275 0.02563 0.0
C5532 C 0.67019 0.79457 0.03222 0.0
H5533 H 0.66557 0.78782 0.95125 0.0
H5534 H 0.66463 0.78764 0.97268 0.0
C5535 C 0.67084 0.79462 0.04445 0.0
C5536 C 0.6761 0.80254 0.01265 0.0
H5537 H 0.6696 0.81929 0.98875 0.0
C5538 C 0.67995 0.79245 0.00678 0.0
C5539 C 0.67216 0.81228 0.00609 0.0
C5540 C 0.66745 0.82316 0.01192 0.0
C5541 C 0.68031 0.79197 0.9945 0.0
C5542 C 0.67652 0.80177 0.98793 0.0
C5543 C 0.67252 0.8118 0.99381 0.0
C5544 C 0.67689 0.80192 0.97495 0.0
C5545 C 0.6851 0.78112 0.98866 0.0
C5546 C 0.68386 0.81019 0.96913 0.0
C5547 C 0.68435 0.81037 0.9569 0.0
C5548 C 0.67784 0.8023 0.95027 0.0
C5549 C 0.67074 0.79411 0.95612 0.0
C5550 C 0.67024 0.79395 0.96836 0.0
H5551 H 0.69019 0.77562 0.99486 0.0
H5552 H 0.67772 0.77579 0.98528 0.0
H5553 H 0.69082 0.78346 0.98115 0.0
H5554 H 0.68902 0.81645 0.97405 0.0
H5555 H 0.68989 0.8168 0.95266 0.0
H5556 H 0.78828 0.66585 0.04912 0.0
H5557 H 0.78836 0.66499 0.02768 0.0
H5558 H 0.81757 0.68891 0.02678 0.0
H5559 H 0.81764 0.68973 0.04817 0.0
H5560 H 0.78556 0.68365 0.01186 0.0
H5561 H 0.82858 0.66186 0.00588 0.0
H5562 H 0.82101 0.66209 0.01977 0.0
H5563 H 0.8291 0.67471 0.01493 0.0
C5564 C 0.79477 0.67087 0.04436 0.0
C5565 C 0.80299 0.67782 0.05034 0.0
C5566 C 0.79479 0.67037 0.03212 0.0
C5567 C 0.80308 0.67674 0.02566 0.0
C5568 C 0.81126 0.68373 0.0316 0.0
H5569 H 0.81751 0.69026 0.95269 0.0
H5570 H 0.81717 0.68938 0.97409 0.0
C5571 C 0.81123 0.68424 0.04383 0.0
C5572 C 0.80295 0.67642 0.01268 0.0
H5573 H 0.81969 0.66981 0.9888 0.0
C5574 C 0.79297 0.68053 0.0068 0.0
C5575 C 0.81265 0.67237 0.00613 0.0
C5576 C 0.82341 0.6674 0.01198 0.0
C5577 C 0.79255 0.68101 0.99452 0.0
C5578 C 0.8023 0.67707 0.98797 0.0
C5579 C 0.81223 0.67284 0.99385 0.0
C5580 C 0.80247 0.67746 0.97499 0.0
C5581 C 0.78183 0.68605 0.98867 0.0
C5582 C 0.79441 0.67092 0.96841 0.0
C5583 C 0.79457 0.67141 0.95617 0.0
C5584 C 0.80284 0.6784 0.95031 0.0
C5585 C 0.81101 0.68481 0.95694 0.0
C5586 C 0.81084 0.68431 0.96917 0.0
H5587 H 0.77641 0.69123 0.99488 0.0
H5588 H 0.78431 0.69176 0.9812 0.0
H5589 H 0.77635 0.6788 0.98523 0.0
H5590 H 0.78802 0.6654 0.97273 0.0
H5591 H 0.7882 0.66633 0.95131 0.0
H5592 H 0.33485 0.78788 0.04938 0.0
H5593 H 0.33616 0.78773 0.02796 0.0
H5594 H 0.31155 0.81632 0.02621 0.0
H5595 H 0.31029 0.81663 0.04757 0.0
H5596 H 0.31803 0.78427 0.01172 0.0
H5597 H 0.33869 0.82783 0.00579 0.0
H5598 H 0.33833 0.82041 0.01975 0.0
H5599 H 0.32563 0.82815 0.01454 0.0
C5600 C 0.32977 0.79418 0.04443 0.0
C5601 C 0.32251 0.80231 0.05017 0.0
C5602 C 0.33052 0.79407 0.0322 0.0
C5603 C 0.32409 0.80213 0.02551 0.0
C5604 C 0.31678 0.81019 0.03121 0.0
H5605 H 0.3104 0.81607 0.95272 0.0
H5606 H 0.31148 0.81567 0.9741 0.0
C5607 C 0.31602 0.81031 0.04343 0.0
C5608 C 0.3247 0.80188 0.01254 0.0
H5609 H 0.33103 0.81872 0.98865 0.0
C5610 C 0.32098 0.79175 0.00666 0.0
C5611 C 0.32854 0.81167 0.00598 0.0
C5612 C 0.33313 0.8226 0.01182 0.0
C5613 C 0.32064 0.79127 0.99438 0.0
C5614 C 0.3243 0.80112 0.98782 0.0
C5615 C 0.3282 0.81119 0.9937 0.0
C5616 C 0.32382 0.80131 0.97484 0.0
C5617 C 0.31598 0.78037 0.98853 0.0
C5618 C 0.33053 0.79347 0.96816 0.0
C5619 C 0.32992 0.79366 0.95593 0.0
C5620 C 0.32264 0.80176 0.95017 0.0
C5621 C 0.31607 0.80971 0.95689 0.0
C5622 C 0.31668 0.8095 0.96911 0.0
H5623 H 0.31103 0.77475 0.99474 0.0
H5624 H 0.31017 0.78265 0.98107 0.0
H5625 H 0.32343 0.77517 0.98506 0.0
H5626 H 0.33627 0.78723 0.97241 0.0
H5627 H 0.33513 0.78746 0.95099 0.0
H5628 H 0.69102 0.18271 0.95285 0.0
H5629 H 0.69055 0.18312 0.97425 0.0
H5630 H 0.66601 0.2118 0.97325 0.0
H5631 H 0.66632 0.21138 0.9518 0.0
H5632 H 0.69655 0.20191 0.98893 0.0
H5633 H 0.6503 0.1883 0.99554 0.0
H5634 H 0.65783 0.18641 0.98176 0.0
H5635 H 0.65231 0.20056 0.98588 0.0
C5636 C 0.68546 0.18906 0.95717 0.0
C5637 C 0.67867 0.19699 0.95063 0.0
C5638 C 0.68521 0.18929 0.9694 0.0
C5639 C 0.67814 0.19739 0.97534 0.0
C5640 C 0.67136 0.20533 0.96884 0.0
H5641 H 0.66715 0.21196 0.04938 0.0
H5642 H 0.66684 0.21215 0.02793 0.0
C5643 C 0.6716 0.20512 0.95659 0.0
C5644 C 0.67818 0.19773 0.98832 0.0
H5645 H 0.66083 0.19415 0.01242 0.0
C5646 C 0.68875 0.20018 0.99408 0.0
C5647 C 0.66797 0.19553 0.99499 0.0
C5648 C 0.65647 0.19245 0.98926 0.0
C5649 C 0.68939 0.2006 0.00635 0.0
C5650 C 0.67922 0.19828 0.01303 0.0
C5651 C 0.66861 0.19592 0.00727 0.0
C5652 C 0.67943 0.19813 0.02601 0.0
C5653 C 0.7009 0.20371 0.01204 0.0
C5654 C 0.6865 0.19007 0.03204 0.0
C5655 C 0.68672 0.18996 0.04428 0.0
C5656 C 0.6798 0.19784 0.05072 0.0
C5657 C 0.67261 0.2058 0.04466 0.0
C5658 C 0.67241 0.20591 0.03242 0.0
H5659 H 0.70686 0.20827 0.00585 0.0
H5660 H 0.69953 0.2094 0.01981 0.0
H5661 H 0.70531 0.19557 0.01498 0.0
H5662 H 0.69181 0.18382 0.02727 0.0
H5663 H 0.69229 0.18367 0.04868 0.0
H5664 H 0.45254 0.68293 0.80928 0.0
H5665 H 0.47393 0.68327 0.81003 0.0
H5666 H 0.4727 0.71183 0.83471 0.0
H5667 H 0.45126 0.71147 0.83411 0.0
H5668 H 0.48869 0.70206 0.80429 0.0
H5669 H 0.49478 0.68821 0.85055 0.0
H5670 H 0.48108 0.68638 0.84286 0.0
H5671 H 0.48517 0.7005 0.84847 0.0
C5672 C 0.45681 0.68924 0.81494 0.0
C5673 C 0.45021 0.69715 0.82168 0.0
C5674 C 0.46903 0.68943 0.81534 0.0
C5675 C 0.4749 0.69748 0.82254 0.0
C5676 C 0.46834 0.7054 0.82927 0.0
H5677 H 0.54913 0.71165 0.83357 0.0
H5678 H 0.52768 0.71203 0.83401 0.0
C5679 C 0.4561 0.70522 0.82887 0.0
C5680 C 0.48787 0.6978 0.82264 0.0
H5681 H 0.5118 0.69396 0.84019 0.0
C5682 C 0.49375 0.70027 0.81213 0.0
C5683 C 0.49444 0.6955 0.8329 0.0
C5684 C 0.48858 0.6924 0.84433 0.0
C5685 C 0.50602 0.70059 0.81161 0.0
C5686 C 0.51259 0.69816 0.82183 0.0
C5687 C 0.50672 0.69582 0.83237 0.0
C5688 C 0.52556 0.69781 0.82168 0.0
C5689 C 0.51186 0.70368 0.80016 0.0
C5690 C 0.53146 0.68956 0.81475 0.0
C5691 C 0.54369 0.68931 0.81448 0.0
C5692 C 0.55026 0.69728 0.82118 0.0
C5693 C 0.54433 0.70541 0.82828 0.0
C5694 C 0.53208 0.70564 0.82855 0.0
H5695 H 0.50575 0.70826 0.79413 0.0
H5696 H 0.51963 0.70935 0.80162 0.0
H5697 H 0.51483 0.69553 0.79579 0.0
H5698 H 0.5266 0.68328 0.80956 0.0
H5699 H 0.54799 0.68289 0.80897 0.0
H5700 H 0.3169 0.54774 0.80964 0.0
H5701 H 0.31654 0.52635 0.81042 0.0
H5702 H 0.28764 0.52761 0.83469 0.0
H5703 H 0.28801 0.54907 0.83407 0.0
H5704 H 0.30554 0.51181 0.84115 0.0
H5705 H 0.29185 0.5053 0.79498 0.0
H5706 H 0.30457 0.51439 0.79665 0.0
H5707 H 0.29071 0.51927 0.8023 0.0
C5708 C 0.31045 0.54348 0.81514 0.0
C5709 C 0.30244 0.5501 0.82175 0.0
C5710 C 0.31022 0.53125 0.81553 0.0
C5711 C 0.30193 0.5254 0.82246 0.0
C5712 C 0.29405 0.53197 0.82923 0.0
H5713 H 0.28837 0.45113 0.83522 0.0
H5714 H 0.28793 0.47257 0.83568 0.0
C5715 C 0.29428 0.54422 0.82885 0.0
C5716 C 0.30161 0.51243 0.82272 0.0
H5717 H 0.29809 0.48836 0.80533 0.0
C5718 C 0.30383 0.50666 0.83335 0.0
C5719 C 0.29935 0.50576 0.81253 0.0
C5720 C 0.29637 0.51148 0.80099 0.0
C5721 C 0.3042 0.49438 0.83398 0.0
C5722 C 0.3021 0.48772 0.82374 0.0
C5723 C 0.29974 0.49349 0.81315 0.0
C5724 C 0.30249 0.47474 0.82375 0.0
C5725 C 0.30715 0.48863 0.8455 0.0
C5726 C 0.3107 0.46886 0.81675 0.0
C5727 C 0.31094 0.45664 0.81642 0.0
C5728 C 0.30292 0.45005 0.82305 0.0
C5729 C 0.2947 0.45595 0.83006 0.0
C5730 C 0.29447 0.4682 0.83038 0.0
H5731 H 0.31119 0.4949 0.85175 0.0
H5732 H 0.29901 0.48519 0.84954 0.0
H5733 H 0.31325 0.48117 0.84419 0.0
H5734 H 0.31693 0.47376 0.81152 0.0
H5735 H 0.31737 0.45236 0.81091 0.0
H5736 H 0.54952 0.28839 0.83408 0.0
H5737 H 0.52807 0.28828 0.83447 0.0
H5738 H 0.52742 0.31707 0.81003 0.0
H5739 H 0.54882 0.31716 0.80948 0.0
H5740 H 0.5124 0.30639 0.84064 0.0
H5741 H 0.50629 0.29252 0.79446 0.0
H5742 H 0.52015 0.29128 0.80195 0.0
H5743 H 0.51546 0.30517 0.79621 0.0
C5744 C 0.54481 0.29469 0.82878 0.0
C5745 C 0.55086 0.30275 0.82169 0.0
C5746 C 0.53256 0.29462 0.82902 0.0
C5747 C 0.52616 0.30254 0.82213 0.0
C5748 C 0.53219 0.31072 0.81523 0.0
H5749 H 0.45305 0.31782 0.80994 0.0
H5750 H 0.47446 0.31749 0.81057 0.0
C5751 C 0.54442 0.31081 0.81498 0.0
C5752 C 0.51318 0.30235 0.82225 0.0
H5753 H 0.48927 0.29878 0.80465 0.0
C5754 C 0.50732 0.30465 0.8328 0.0
C5755 C 0.50661 0.30007 0.812 0.0
C5756 C 0.51242 0.29701 0.80053 0.0
C5757 C 0.49504 0.30504 0.83332 0.0
C5758 C 0.48847 0.30288 0.82304 0.0
C5759 C 0.49434 0.30047 0.81251 0.0
C5760 C 0.47549 0.30318 0.82296 0.0
C5761 C 0.4892 0.30808 0.84477 0.0
C5762 C 0.46898 0.29519 0.82965 0.0
C5763 C 0.45673 0.29536 0.82931 0.0
C5764 C 0.4508 0.3035 0.82222 0.0
C5765 C 0.45735 0.31147 0.81551 0.0
C5766 C 0.46959 0.31128 0.81585 0.0
H5767 H 0.4954 0.31224 0.85101 0.0
H5768 H 0.48169 0.31409 0.84336 0.0
H5769 H 0.48581 0.29995 0.84888 0.0
H5770 H 0.47337 0.28872 0.83502 0.0
H5771 H 0.45193 0.28907 0.83454 0.0
H5772 H 0.68371 0.45268 0.80945 0.0
H5773 H 0.68411 0.47407 0.81039 0.0
H5774 H 0.71236 0.47253 0.8354 0.0
H5775 H 0.71212 0.45111 0.8344 0.0
H5776 H 0.6809 0.48869 0.82988 0.0
H5777 H 0.72498 0.49479 0.81015 0.0
H5778 H 0.71709 0.48111 0.80927 0.0
H5779 H 0.72452 0.48513 0.82255 0.0
C5780 C 0.69003 0.45689 0.81514 0.0
C5781 C 0.69792 0.4502 0.82181 0.0
C5782 C 0.69023 0.46911 0.81567 0.0
C5783 C 0.69837 0.47489 0.82283 0.0
C5784 C 0.70617 0.46825 0.82964 0.0
H5785 H 0.71202 0.54919 0.8345 0.0
H5786 H 0.71204 0.52776 0.83549 0.0
C5787 C 0.70597 0.45601 0.82911 0.0
C5788 C 0.69854 0.48786 0.82327 0.0
H5789 H 0.71548 0.51177 0.81724 0.0
C5790 C 0.68846 0.49375 0.82712 0.0
C5791 C 0.70842 0.49442 0.81969 0.0
C5792 C 0.71934 0.48858 0.81509 0.0
C5793 C 0.688 0.50602 0.82753 0.0
C5794 C 0.69782 0.51259 0.8238 0.0
C5795 C 0.70796 0.50671 0.8201 0.0
C5796 C 0.69765 0.52556 0.82337 0.0
C5797 C 0.67705 0.51186 0.83209 0.0
C5798 C 0.68963 0.53142 0.81613 0.0
C5799 C 0.68958 0.54365 0.81555 0.0
C5800 C 0.69761 0.55025 0.82215 0.0
C5801 C 0.70569 0.54436 0.82934 0.0
C5802 C 0.70573 0.53212 0.82991 0.0
H5803 H 0.67176 0.50579 0.83755 0.0
H5804 H 0.67922 0.51973 0.83738 0.0
H5805 H 0.67157 0.51467 0.82458 0.0
H5806 H 0.68349 0.52653 0.81081 0.0
H5807 H 0.6833 0.54791 0.80987 0.0
H5808 H 0.45104 0.28755 0.16581 0.0
H5809 H 0.47251 0.2873 0.1655 0.0
H5810 H 0.47324 0.31593 0.19011 0.0
H5811 H 0.45185 0.31617 0.19057 0.0
H5812 H 0.48835 0.30549 0.15956 0.0
H5813 H 0.49408 0.29101 0.20561 0.0
H5814 H 0.48027 0.28989 0.19798 0.0
H5815 H 0.48493 0.30369 0.20394 0.0
C5816 C 0.45578 0.29378 0.17116 0.0
C5817 C 0.44976 0.30183 0.17827 0.0
C5818 C 0.46803 0.29363 0.17097 0.0
C5819 C 0.47445 0.30147 0.17793 0.0
C5820 C 0.46845 0.30965 0.18486 0.0
H5821 H 0.54738 0.31665 0.19097 0.0
H5822 H 0.52598 0.31626 0.19013 0.0
C5823 C 0.45623 0.30982 0.18505 0.0
C5824 C 0.48742 0.3012 0.1779 0.0
H5825 H 0.51118 0.29742 0.19565 0.0
C5826 C 0.49337 0.30365 0.16742 0.0
C5827 C 0.49391 0.29879 0.18817 0.0
C5828 C 0.48799 0.29559 0.19955 0.0
C5829 C 0.50565 0.30407 0.16702 0.0
C5830 C 0.51213 0.30178 0.17733 0.0
C5831 C 0.50618 0.29921 0.18777 0.0
C5832 C 0.52511 0.30213 0.17754 0.0
C5833 C 0.51159 0.30726 0.15566 0.0
C5834 C 0.5317 0.29425 0.17081 0.0
C5835 C 0.54394 0.29446 0.17126 0.0
C5836 C 0.54979 0.30251 0.17851 0.0
C5837 C 0.54315 0.31036 0.18528 0.0
C5838 C 0.53092 0.31015 0.18482 0.0
H5839 H 0.50543 0.31149 0.14942 0.0
H5840 H 0.51907 0.31328 0.15722 0.0
H5841 H 0.51504 0.2992 0.15148 0.0
H5842 H 0.52738 0.28784 0.16531 0.0
H5843 H 0.54881 0.28825 0.16599 0.0
H5844 H 0.68293 0.45203 0.19064 0.0
H5845 H 0.68313 0.47343 0.18993 0.0
H5846 H 0.71167 0.47244 0.16522 0.0
H5847 H 0.71146 0.451 0.16577 0.0
H5848 H 0.70178 0.48834 0.19567 0.0
H5849 H 0.68789 0.49435 0.14942 0.0
H5850 H 0.68619 0.48063 0.15709 0.0
H5851 H 0.70026 0.48484 0.15146 0.0
C5852 C 0.68921 0.45635 0.18499 0.0
C5853 C 0.69715 0.44982 0.17822 0.0
C5854 C 0.68931 0.46858 0.18461 0.0
C5855 C 0.69731 0.47452 0.17741 0.0
C5856 C 0.70527 0.46803 0.17066 0.0
H5857 H 0.71128 0.54874 0.16629 0.0
H5858 H 0.71163 0.52729 0.16585 0.0
C5859 C 0.70518 0.45578 0.17104 0.0
C5860 C 0.69753 0.4875 0.17732 0.0
H5861 H 0.69362 0.5114 0.15975 0.0
C5862 C 0.69997 0.49339 0.18783 0.0
C5863 C 0.69521 0.49405 0.16706 0.0
C5864 C 0.69214 0.48818 0.15563 0.0
C5865 C 0.70024 0.50567 0.18834 0.0
C5866 C 0.69781 0.51222 0.17812 0.0
C5867 C 0.69548 0.50634 0.16758 0.0
C5868 C 0.69745 0.5252 0.17824 0.0
C5869 C 0.70332 0.51151 0.19979 0.0
C5870 C 0.68923 0.53112 0.1852 0.0
C5871 C 0.68901 0.54335 0.18547 0.0
C5872 C 0.69696 0.5499 0.17873 0.0
C5873 C 0.70505 0.54395 0.1716 0.0
C5874 C 0.70527 0.5317 0.17133 0.0
H5875 H 0.70791 0.50542 0.20583 0.0
H5876 H 0.70896 0.5193 0.19832 0.0
H5877 H 0.69516 0.51447 0.20416 0.0
H5878 H 0.68297 0.52626 0.19042 0.0
H5879 H 0.68263 0.54766 0.191 0.0
H5880 H 0.54886 0.71167 0.1652 0.0
H5881 H 0.52744 0.71183 0.1642 0.0
H5882 H 0.52601 0.68318 0.18877 0.0
H5883 H 0.5474 0.68286 0.18971 0.0
H5884 H 0.51127 0.68026 0.16936 0.0
H5885 H 0.50532 0.72407 0.18971 0.0
H5886 H 0.51489 0.72379 0.17722 0.0
H5887 H 0.51901 0.71618 0.19037 0.0
C5888 C 0.54399 0.7054 0.17039 0.0
C5889 C 0.54982 0.69728 0.17757 0.0
C5890 C 0.53174 0.70555 0.16985 0.0
C5891 C 0.52513 0.69763 0.17654 0.0
C5892 C 0.53095 0.6894 0.18357 0.0
H5893 H 0.45218 0.68259 0.18998 0.0
H5894 H 0.47356 0.68268 0.1888 0.0
C5895 C 0.54317 0.68924 0.18411 0.0
C5896 C 0.51215 0.69781 0.17618 0.0
H5897 H 0.4883 0.71468 0.18259 0.0
C5898 C 0.50624 0.68778 0.17225 0.0
C5899 C 0.50562 0.70765 0.17993 0.0
C5900 C 0.5115 0.71851 0.18464 0.0
C5901 C 0.49396 0.68733 0.17193 0.0
C5902 C 0.48742 0.69711 0.17582 0.0
C5903 C 0.49333 0.7072 0.1796 0.0
C5904 C 0.47445 0.69694 0.17634 0.0
C5905 C 0.48808 0.67644 0.16729 0.0
C5906 C 0.46786 0.70509 0.16993 0.0
C5907 C 0.45563 0.7051 0.17063 0.0
C5908 C 0.44978 0.697 0.17783 0.0
C5909 C 0.45642 0.68889 0.18429 0.0
C5910 C 0.46863 0.68888 0.18358 0.0
H5911 H 0.49411 0.67118 0.16175 0.0
H5912 H 0.48529 0.67089 0.17476 0.0
H5913 H 0.48019 0.67868 0.16206 0.0
H5914 H 0.47219 0.71143 0.16435 0.0
H5915 H 0.45077 0.71149 0.16557 0.0
H5916 H 0.28808 0.44983 0.16484 0.0
H5917 H 0.28807 0.47121 0.16297 0.0
H5918 H 0.31685 0.4734 0.18732 0.0
H5919 H 0.31702 0.45208 0.18914 0.0
H5920 H 0.28486 0.48793 0.18068 0.0
H5921 H 0.32831 0.49301 0.15957 0.0
H5922 H 0.32079 0.47912 0.16035 0.0
H5923 H 0.32867 0.48459 0.17284 0.0
C5924 C 0.29445 0.45486 0.16974 0.0
C5925 C 0.30259 0.44926 0.17709 0.0
C5926 C 0.29442 0.46707 0.16867 0.0
C5927 C 0.30258 0.47387 0.17486 0.0
C5928 C 0.31065 0.4683 0.18227 0.0
H5929 H 0.31714 0.54654 0.18752 0.0
H5930 H 0.31663 0.52517 0.18643 0.0
C5931 C 0.31068 0.45611 0.18335 0.0
C5932 C 0.30242 0.48681 0.17392 0.0
H5933 H 0.31943 0.51041 0.16696 0.0
C5934 C 0.29236 0.49286 0.17757 0.0
C5935 C 0.31223 0.4932 0.16985 0.0
C5936 C 0.32308 0.48716 0.16532 0.0
C5937 C 0.292 0.50515 0.17765 0.0
C5938 C 0.30189 0.51154 0.17379 0.0
C5939 C 0.31186 0.50548 0.16994 0.0
C5940 C 0.30224 0.52451 0.17413 0.0
C5941 C 0.28119 0.5112 0.18227 0.0
C5942 C 0.29443 0.53123 0.16742 0.0
C5943 C 0.29469 0.54346 0.16803 0.0
C5944 C 0.3028 0.54917 0.17533 0.0
C5945 C 0.31076 0.54241 0.18184 0.0
C5946 C 0.3105 0.5302 0.18122 0.0
H5947 H 0.2755 0.50513 0.18731 0.0
H5948 H 0.2836 0.51869 0.18799 0.0
H5949 H 0.27602 0.51466 0.17481 0.0
H5950 H 0.28814 0.52701 0.16171 0.0
H5951 H 0.28848 0.54844 0.16287 0.0
H5952 H 0.83515 0.54914 0.71167 0.0
H5953 H 0.83633 0.52771 0.71165 0.0
H5954 H 0.81134 0.52633 0.68337 0.0
H5955 H 0.81022 0.5477 0.68323 0.0
H5956 H 0.81824 0.51151 0.71521 0.0
H5957 H 0.83818 0.50591 0.67128 0.0
H5958 H 0.83796 0.51981 0.67882 0.0
H5959 H 0.82514 0.51469 0.67124 0.0
C5960 C 0.82996 0.54427 0.70541 0.0
C5961 C 0.82264 0.55011 0.69741 0.0
C5962 C 0.83064 0.53204 0.70541 0.0
C5963 C 0.82407 0.52544 0.69738 0.0
C5964 C 0.81668 0.53125 0.68947 0.0
H5965 H 0.81015 0.45274 0.68303 0.0
H5966 H 0.81113 0.47412 0.68364 0.0
C5967 C 0.816 0.54347 0.68945 0.0
C5968 C 0.82462 0.51247 0.6975 0.0
H5969 H 0.83063 0.48871 0.68036 0.0
C5970 C 0.82105 0.50651 0.70764 0.0
C5971 C 0.82829 0.50599 0.6876 0.0
C5972 C 0.83272 0.51191 0.67665 0.0
C5973 C 0.8207 0.49422 0.70803 0.0
C5974 C 0.82419 0.48774 0.69806 0.0
C5975 C 0.82793 0.49371 0.68798 0.0
C5976 C 0.82373 0.47477 0.69777 0.0
C5977 C 0.81622 0.48828 0.71895 0.0
C5978 C 0.8306 0.46804 0.70544 0.0
C5979 C 0.83004 0.4558 0.70513 0.0
C5980 C 0.82265 0.45009 0.6971 0.0
C5981 C 0.81591 0.45687 0.68934 0.0
C5982 C 0.81647 0.46908 0.68966 0.0
H5983 H 0.81136 0.49444 0.7247 0.0
H5984 H 0.81037 0.48084 0.7167 0.0
H5985 H 0.82375 0.48477 0.72399 0.0
H5986 H 0.83643 0.47225 0.71162 0.0
H5987 H 0.83539 0.45083 0.71118 0.0
H5988 H 0.54893 0.83411 0.71169 0.0
H5989 H 0.52748 0.8346 0.71209 0.0
H5990 H 0.52633 0.81055 0.683 0.0
H5991 H 0.54773 0.8099 0.68261 0.0
H5992 H 0.51157 0.84107 0.69424 0.0
H5993 H 0.5055 0.79475 0.70768 0.0
H5994 H 0.5194 0.8022 0.70883 0.0
H5995 H 0.51452 0.79662 0.69494 0.0
C5996 C 0.54411 0.82892 0.70538 0.0
C5997 C 0.55002 0.82191 0.69716 0.0
C5998 C 0.53186 0.82922 0.70562 0.0
C5999 C 0.52533 0.82247 0.6977 0.0
C6000 C 0.53121 0.81564 0.68934 0.0
H6001 H 0.45218 0.81036 0.683 0.0
H6002 H 0.47358 0.81113 0.68317 0.0
C6003 C 0.54344 0.81534 0.6891 0.0
C6004 C 0.51235 0.82263 0.69807 0.0
H6005 H 0.48844 0.80505 0.70172 0.0
C6006 C 0.50649 0.83322 0.69595 0.0
C6007 C 0.50577 0.81237 0.70032 0.0
C6008 C 0.5116 0.80085 0.70318 0.0
C6009 C 0.4942 0.83377 0.6957 0.0
C6010 C 0.48763 0.82348 0.69781 0.0
C6011 C 0.4935 0.81292 0.70006 0.0
C6012 C 0.47465 0.8234 0.69757 0.0
C6013 C 0.48835 0.84527 0.69284 0.0
C6014 C 0.46815 0.83 0.70565 0.0
C6015 C 0.4559 0.82959 0.70557 0.0
C6016 C 0.44995 0.82251 0.69744 0.0
C6017 C 0.45649 0.81592 0.68936 0.0
C6018 C 0.46872 0.81634 0.68945 0.0
H6019 H 0.49454 0.85155 0.68872 0.0
H6020 H 0.48081 0.84393 0.68686 0.0
H6021 H 0.48502 0.84928 0.70104 0.0
H6022 H 0.47256 0.83534 0.71214 0.0
H6023 H 0.45111 0.83472 0.71195 0.0
H6024 H 0.16604 0.54849 0.7113 0.0
H6025 H 0.16547 0.52706 0.71159 0.0
H6026 H 0.19037 0.52594 0.68322 0.0
H6027 H 0.19088 0.54736 0.68276 0.0
H6028 H 0.17134 0.51087 0.68013 0.0
H6029 H 0.19111 0.50542 0.72425 0.0
H6030 H 0.17848 0.51478 0.72382 0.0
H6031 H 0.19163 0.51909 0.71633 0.0
C6032 C 0.1714 0.54368 0.70513 0.0
C6033 C 0.17854 0.54962 0.69704 0.0
C6034 C 0.17111 0.53144 0.70535 0.0
C6035 C 0.17802 0.52492 0.69755 0.0
C6036 C 0.18502 0.53082 0.68936 0.0
H6037 H 0.19175 0.45172 0.68341 0.0
H6038 H 0.19084 0.47311 0.68335 0.0
C6039 C 0.1853 0.54305 0.68912 0.0
C6040 C 0.17785 0.51194 0.69779 0.0
H6041 H 0.18408 0.48826 0.71498 0.0
C6042 C 0.17414 0.50592 0.68773 0.0
C6043 C 0.18149 0.50551 0.70774 0.0
C6044 C 0.186 0.5115 0.71862 0.0
C6045 C 0.17388 0.49363 0.68739 0.0
C6046 C 0.1776 0.48721 0.69731 0.0
C6047 C 0.18121 0.49322 0.7074 0.0
C6048 C 0.17806 0.47423 0.6973 0.0
C6049 C 0.16945 0.48763 0.67648 0.0
C6050 C 0.17138 0.46778 0.70535 0.0
C6051 C 0.17192 0.45554 0.70545 0.0
C6052 C 0.17923 0.44955 0.69754 0.0
C6053 C 0.18598 0.45606 0.68956 0.0
C6054 C 0.18542 0.46828 0.68947 0.0
H6055 H 0.16407 0.49362 0.67101 0.0
H6056 H 0.17704 0.48472 0.67114 0.0
H6057 H 0.16413 0.47981 0.67871 0.0
H6058 H 0.1657 0.47221 0.71152 0.0
H6059 H 0.16665 0.45078 0.71173 0.0
H6060 H 0.45209 0.1914 0.6835 0.0
H6061 H 0.47349 0.19052 0.68369 0.0
H6062 H 0.47231 0.16551 0.71195 0.0
H6063 H 0.45088 0.16624 0.71176 0.0
H6064 H 0.48854 0.19586 0.70239 0.0
H6065 H 0.49394 0.14972 0.6879 0.0
H6066 H 0.48032 0.1576 0.68631 0.0
H6067 H 0.48447 0.15172 0.70031 0.0
C6068 C 0.45638 0.18566 0.68972 0.0
C6069 C 0.44979 0.17885 0.69759 0.0
C6070 C 0.4686 0.18518 0.68982 0.0
C6071 C 0.47448 0.17784 0.69772 0.0
C6072 C 0.46794 0.17106 0.70563 0.0
H6073 H 0.54857 0.16564 0.71153 0.0
H6074 H 0.52711 0.16547 0.71191 0.0
C6075 C 0.4557 0.17154 0.70555 0.0
C6076 C 0.48746 0.17758 0.69791 0.0
H6077 H 0.51112 0.15975 0.69378 0.0
C6078 C 0.49348 0.18798 0.70048 0.0
C6079 C 0.49387 0.16727 0.69547 0.0
C6080 C 0.48785 0.15595 0.69224 0.0
C6081 C 0.50576 0.18833 0.70076 0.0
C6082 C 0.51218 0.17805 0.6982 0.0
C6083 C 0.50617 0.16762 0.69574 0.0
C6084 C 0.52516 0.17801 0.69784 0.0
C6085 C 0.51176 0.19966 0.70397 0.0
C6086 C 0.53115 0.18496 0.68967 0.0
C6087 C 0.54338 0.18508 0.68943 0.0
C6088 C 0.54986 0.17819 0.69732 0.0
C6089 C 0.54383 0.17106 0.70536 0.0
C6090 C 0.53158 0.17095 0.70559 0.0
H6091 H 0.50575 0.20573 0.70862 0.0
H6092 H 0.51952 0.19802 0.7096 0.0
H6093 H 0.51479 0.20408 0.69586 0.0
H6094 H 0.52636 0.1903 0.68347 0.0
H6095 H 0.54776 0.19061 0.68309 0.0
H6096 H 0.80955 0.45256 0.31716 0.0
H6097 H 0.81032 0.47396 0.3169 0.0
H6098 H 0.8351 0.47281 0.28842 0.0
H6099 H 0.83427 0.45138 0.28851 0.0
H6100 H 0.82959 0.48878 0.32003 0.0
H6101 H 0.80963 0.49485 0.27607 0.0
H6102 H 0.80898 0.48112 0.28388 0.0
H6103 H 0.82215 0.48533 0.27637 0.0
C6104 C 0.81516 0.45685 0.31083 0.0
C6105 C 0.82181 0.45028 0.30282 0.0
C6106 C 0.81559 0.46908 0.3107 0.0
C6107 C 0.82263 0.47497 0.30253 0.0
C6108 C 0.82943 0.46844 0.29464 0.0
H6109 H 0.83434 0.54919 0.28884 0.0
H6110 H 0.83526 0.52775 0.28889 0.0
C6111 C 0.82899 0.4562 0.29475 0.0
C6112 C 0.82295 0.48795 0.3024 0.0
H6113 H 0.81686 0.51185 0.28548 0.0
C6114 C 0.82679 0.49384 0.31249 0.0
C6115 C 0.81933 0.49451 0.29253 0.0
C6116 C 0.81469 0.48866 0.28162 0.0
C6117 C 0.82719 0.50612 0.31294 0.0
C6118 C 0.82346 0.51267 0.30311 0.0
C6119 C 0.81973 0.50679 0.29299 0.0
C6120 C 0.82309 0.52565 0.30326 0.0
C6121 C 0.83175 0.51196 0.32388 0.0
C6122 C 0.81585 0.53156 0.31123 0.0
C6123 C 0.81531 0.54378 0.31123 0.0
C6124 C 0.82196 0.55033 0.3032 0.0
C6125 C 0.82915 0.54439 0.29517 0.0
C6126 C 0.82968 0.53215 0.29517 0.0
H6127 H 0.83717 0.50588 0.32922 0.0
H6128 H 0.83708 0.5198 0.3217 0.0
H6129 H 0.82424 0.51483 0.32934 0.0
H6130 H 0.81049 0.5267 0.31738 0.0
H6131 H 0.80962 0.54809 0.31749 0.0
H6132 H 0.54944 0.83482 0.28784 0.0
H6133 H 0.52801 0.83603 0.2879 0.0
H6134 H 0.52667 0.8116 0.31667 0.0
H6135 H 0.54804 0.81044 0.31676 0.0
H6136 H 0.51186 0.81777 0.28472 0.0
H6137 H 0.50623 0.83874 0.32818 0.0
H6138 H 0.52012 0.8384 0.32063 0.0
H6139 H 0.51505 0.82573 0.32848 0.0
C6140 C 0.54458 0.82976 0.29422 0.0
C6141 C 0.55043 0.82258 0.30233 0.0
C6142 C 0.53235 0.83045 0.29423 0.0
C6143 C 0.52577 0.82404 0.3024 0.0
C6144 C 0.53159 0.81681 0.31045 0.0
H6145 H 0.45297 0.81053 0.3168 0.0
H6146 H 0.47436 0.81152 0.31634 0.0
C6147 C 0.54381 0.81611 0.31044 0.0
C6148 C 0.5128 0.82459 0.30227 0.0
H6149 H 0.48903 0.83107 0.31922 0.0
C6150 C 0.50685 0.82078 0.29222 0.0
C6151 C 0.50632 0.82851 0.31207 0.0
C6152 C 0.51224 0.83318 0.32292 0.0
C6153 C 0.49456 0.82044 0.29182 0.0
C6154 C 0.48808 0.8242 0.30169 0.0
C6155 C 0.49403 0.82817 0.31168 0.0
C6156 C 0.47511 0.8238 0.30194 0.0
C6157 C 0.48863 0.8157 0.28101 0.0
C6158 C 0.46844 0.83051 0.29409 0.0
C6159 C 0.45621 0.82996 0.29431 0.0
C6160 C 0.45044 0.82273 0.30244 0.0
C6161 C 0.45715 0.81616 0.31041 0.0
C6162 C 0.46937 0.81672 0.31017 0.0
H6163 H 0.49479 0.81067 0.2754 0.0
H6164 H 0.48118 0.80993 0.28339 0.0
H6165 H 0.48516 0.8231 0.27576 0.0
H6166 H 0.4727 0.8362 0.28781 0.0
H6167 H 0.45128 0.83516 0.2881 0.0
H6168 H 0.16586 0.45174 0.28861 0.0
H6169 H 0.16585 0.47321 0.28833 0.0
H6170 H 0.19099 0.47364 0.31649 0.0
H6171 H 0.19114 0.45224 0.31678 0.0
H6172 H 0.16049 0.48913 0.30676 0.0
H6173 H 0.20624 0.49427 0.29115 0.0
H6174 H 0.19839 0.48058 0.29015 0.0
H6175 H 0.2047 0.48511 0.30384 0.0
C6176 C 0.17139 0.45641 0.29474 0.0
C6177 C 0.17854 0.45029 0.30268 0.0
C6178 C 0.17136 0.46866 0.29457 0.0
C6179 C 0.17856 0.475 0.30226 0.0
C6180 C 0.18555 0.46892 0.31033 0.0
H6181 H 0.19261 0.54809 0.31647 0.0
H6182 H 0.19176 0.52667 0.31628 0.0
C6183 C 0.18557 0.45668 0.31052 0.0
C6184 C 0.17868 0.48797 0.30198 0.0
H6185 H 0.19658 0.51152 0.29759 0.0
C6186 C 0.16835 0.49405 0.30468 0.0
C6187 C 0.18896 0.49433 0.29928 0.0
C6188 C 0.20019 0.48827 0.29583 0.0
C6189 C 0.16809 0.50634 0.30504 0.0
C6190 C 0.1784 0.5127 0.30242 0.0
C6191 C 0.18871 0.50662 0.29963 0.0
C6192 C 0.17871 0.52568 0.30258 0.0
C6193 C 0.15688 0.51241 0.30853 0.0
C6194 C 0.17175 0.53222 0.29485 0.0
C6195 C 0.1722 0.54446 0.29494 0.0
C6196 C 0.17969 0.55038 0.30272 0.0
C6197 C 0.18673 0.5438 0.31039 0.0
C6198 C 0.18626 0.53156 0.31029 0.0
H6199 H 0.15075 0.50636 0.31306 0.0
H6200 H 0.1587 0.51996 0.31438 0.0
H6201 H 0.15245 0.51576 0.30056 0.0
H6202 H 0.16603 0.52785 0.28867 0.0
H6203 H 0.16672 0.54927 0.28888 0.0
H6204 H 0.54912 0.16567 0.28819 0.0
H6205 H 0.52767 0.165 0.28775 0.0
H6206 H 0.52628 0.18887 0.31697 0.0
H6207 H 0.54766 0.18969 0.31741 0.0
H6208 H 0.51173 0.15834 0.30558 0.0
H6209 H 0.50544 0.20465 0.29222 0.0
H6210 H 0.51938 0.19727 0.29106 0.0
H6211 H 0.51448 0.20281 0.30496 0.0
C6212 C 0.54424 0.17078 0.29452 0.0
C6213 C 0.55008 0.17779 0.30279 0.0
C6214 C 0.532 0.17038 0.29426 0.0
C6215 C 0.5254 0.17703 0.3022 0.0
C6216 C 0.53121 0.18385 0.31061 0.0
H6217 H 0.45239 0.18885 0.3173 0.0
H6218 H 0.47378 0.18805 0.31699 0.0
C6219 C 0.54343 0.18426 0.31088 0.0
C6220 C 0.51243 0.1768 0.30179 0.0
H6221 H 0.48844 0.19428 0.29826 0.0
C6222 C 0.50662 0.16617 0.30389 0.0
C6223 C 0.50581 0.18703 0.29957 0.0
C6224 C 0.51158 0.19857 0.29671 0.0
C6225 C 0.49433 0.16557 0.30418 0.0
C6226 C 0.48772 0.17585 0.30213 0.0
C6227 C 0.49354 0.18643 0.29988 0.0
C6228 C 0.47474 0.1759 0.30249 0.0
C6229 C 0.48853 0.15404 0.30701 0.0
C6230 C 0.46819 0.16936 0.2944 0.0
C6231 C 0.45594 0.16979 0.29456 0.0
C6232 C 0.45005 0.17682 0.30278 0.0
C6233 C 0.45666 0.18333 0.31088 0.0
C6234 C 0.46888 0.1829 0.31071 0.0
H6235 H 0.49476 0.14774 0.31102 0.0
H6236 H 0.48105 0.15533 0.31309 0.0
H6237 H 0.4851 0.1501 0.29883 0.0
H6238 H 0.47254 0.16407 0.28784 0.0
H6239 H 0.4511 0.16473 0.28816 0.0
H6240 H 0.68282 0.81003 0.45208 0.0
H6241 H 0.68296 0.81081 0.47348 0.0
H6242 H 0.71188 0.83508 0.4725 0.0
H6243 H 0.71172 0.83447 0.45106 0.0
H6244 H 0.70141 0.80478 0.48841 0.0
H6245 H 0.68842 0.8513 0.49437 0.0
H6246 H 0.68662 0.84366 0.48064 0.0
H6247 H 0.70078 0.84903 0.48492 0.0
C6248 C 0.68916 0.8156 0.45641 0.0
C6249 C 0.69723 0.82222 0.44988 0.0
C6250 C 0.68923 0.81602 0.46863 0.0
C6251 C 0.69732 0.82311 0.47457 0.0
C6252 C 0.70541 0.82973 0.46809 0.0
H6253 H 0.71155 0.83401 0.54874 0.0
H6254 H 0.71186 0.83443 0.52729 0.0
C6255 C 0.70534 0.82932 0.45584 0.0
C6256 C 0.69753 0.82322 0.48755 0.0
H6257 H 0.69396 0.84087 0.51143 0.0
C6258 C 0.69975 0.81266 0.49345 0.0
C6259 C 0.69541 0.83352 0.49409 0.0
C6260 C 0.69257 0.84501 0.48821 0.0
C6261 C 0.70001 0.81215 0.50572 0.0
C6262 C 0.69778 0.82243 0.51227 0.0
C6263 C 0.69566 0.83301 0.50638 0.0
C6264 C 0.69744 0.82232 0.52524 0.0
C6265 C 0.70285 0.80064 0.51158 0.0
C6266 C 0.6891 0.81552 0.53118 0.0
C6267 C 0.6889 0.81525 0.54342 0.0
C6268 C 0.69701 0.82183 0.54994 0.0
C6269 C 0.70521 0.82881 0.54397 0.0
C6270 C 0.7054 0.82908 0.53172 0.0
H6271 H 0.70732 0.79451 0.50549 0.0
H6272 H 0.70852 0.802 0.51936 0.0
H6273 H 0.6946 0.79644 0.51454 0.0
H6274 H 0.68273 0.81042 0.52635 0.0
H6275 H 0.68243 0.80984 0.54775 0.0
H6276 H 0.68236 0.19073 0.4527 0.0
H6277 H 0.6828 0.19004 0.47409 0.0
H6278 H 0.71186 0.16597 0.47284 0.0
H6279 H 0.71143 0.16652 0.45138 0.0
H6280 H 0.69387 0.15949 0.48873 0.0
H6281 H 0.70767 0.20569 0.49494 0.0
H6282 H 0.69494 0.2039 0.48587 0.0
H6283 H 0.70882 0.19826 0.48103 0.0
C6284 C 0.68885 0.18528 0.45696 0.0
C6285 C 0.6969 0.17872 0.45035 0.0
C6286 C 0.68913 0.18495 0.46919 0.0
C6287 C 0.69748 0.1781 0.47504 0.0
C6288 C 0.70539 0.17136 0.46848 0.0
H6289 H 0.71175 0.16528 0.54912 0.0
H6290 H 0.71191 0.16485 0.52767 0.0
C6291 C 0.70514 0.1717 0.45623 0.0
C6292 C 0.69787 0.1779 0.48801 0.0
H6293 H 0.70174 0.19535 0.51197 0.0
C6294 C 0.69567 0.1673 0.49383 0.0
C6295 C 0.70022 0.18811 0.49461 0.0
C6296 C 0.70316 0.19962 0.48882 0.0
C6297 C 0.69543 0.16671 0.50612 0.0
C6298 C 0.69767 0.17696 0.51272 0.0
C6299 C 0.69999 0.18752 0.50688 0.0
C6300 C 0.69748 0.17698 0.5257 0.0
C6301 C 0.69248 0.15522 0.51193 0.0
C6302 C 0.68947 0.18411 0.5317 0.0
C6303 C 0.68941 0.18443 0.54393 0.0
C6304 C 0.6974 0.17767 0.5504 0.0
C6305 C 0.70544 0.17054 0.54438 0.0
C6306 C 0.7055 0.17023 0.53213 0.0
H6307 H 0.68824 0.14902 0.50574 0.0
H6308 H 0.70065 0.15109 0.51519 0.0
H6309 H 0.68655 0.15659 0.51952 0.0
H6310 H 0.68325 0.18943 0.5269 0.0
H6311 H 0.68312 0.19003 0.5483 0.0
H6312 H 0.81002 0.6833 0.54789 0.0
H6313 H 0.81094 0.68369 0.52651 0.0
H6314 H 0.83501 0.71275 0.52799 0.0
H6315 H 0.83423 0.71235 0.54942 0.0
H6316 H 0.80493 0.70241 0.51176 0.0
H6317 H 0.85151 0.68952 0.50598 0.0
H6318 H 0.84376 0.68749 0.51961 0.0
H6319 H 0.84909 0.70174 0.51559 0.0
C6320 C 0.81557 0.68973 0.54368 0.0
C6321 C 0.82209 0.69777 0.55035 0.0
C6322 C 0.81608 0.68994 0.53146 0.0
C6323 C 0.82315 0.69815 0.52567 0.0
C6324 C 0.82967 0.70621 0.53229 0.0
H6325 H 0.83436 0.71227 0.45139 0.0
H6326 H 0.83479 0.71274 0.47285 0.0
C6327 C 0.82916 0.706 0.54453 0.0
C6328 C 0.82335 0.6985 0.51269 0.0
H6329 H 0.84112 0.69499 0.48889 0.0
C6330 C 0.81283 0.70077 0.50675 0.0
C6331 C 0.83369 0.69642 0.5062 0.0
C6332 C 0.84515 0.69356 0.51213 0.0
C6333 C 0.81238 0.70107 0.49448 0.0
C6334 C 0.82268 0.69882 0.48797 0.0
C6335 C 0.83324 0.6967 0.49391 0.0
C6336 C 0.8226 0.6984 0.475 0.0
C6337 C 0.80091 0.70396 0.48858 0.0
C6338 C 0.81578 0.69004 0.46913 0.0
C6339 C 0.8155 0.68976 0.4569 0.0
C6340 C 0.82212 0.69778 0.45031 0.0
C6341 C 0.82914 0.706 0.45622 0.0
C6342 C 0.82941 0.70627 0.46847 0.0
H6343 H 0.7948 0.70851 0.49463 0.0
H6344 H 0.80231 0.70957 0.48076 0.0
H6345 H 0.79666 0.69572 0.48568 0.0
H6346 H 0.81065 0.68372 0.47401 0.0
H6347 H 0.81006 0.68327 0.45262 0.0
H6348 H 0.28905 0.83481 0.45134 0.0
H6349 H 0.28858 0.83536 0.47278 0.0
H6350 H 0.31707 0.81061 0.47413 0.0
H6351 H 0.31753 0.80991 0.45273 0.0
H6352 H 0.29807 0.80487 0.48869 0.0
H6353 H 0.31212 0.85102 0.49513 0.0
H6354 H 0.29993 0.84903 0.48538 0.0
H6355 H 0.31406 0.84337 0.48142 0.0
C6356 C 0.29527 0.82954 0.4562 0.0
C6357 C 0.30335 0.82234 0.45034 0.0
C6358 C 0.29502 0.82992 0.46845 0.0
C6359 C 0.30289 0.82314 0.47503 0.0
C6360 C 0.31096 0.81595 0.4692 0.0
H6361 H 0.31676 0.80903 0.54815 0.0
H6362 H 0.31652 0.80974 0.52676 0.0
C6363 C 0.31122 0.81557 0.45698 0.0
C6364 C 0.30246 0.82319 0.48801 0.0
H6365 H 0.3062 0.84059 0.51205 0.0
C6366 C 0.29986 0.81267 0.49381 0.0
C6367 C 0.30476 0.8334 0.49464 0.0
C6368 C 0.30797 0.84484 0.48886 0.0
C6369 C 0.29944 0.81209 0.50608 0.0
C6370 C 0.30188 0.82226 0.51271 0.0
C6371 C 0.30434 0.83282 0.50692 0.0
C6372 C 0.30214 0.82203 0.52569 0.0
C6373 C 0.2962 0.80063 0.51182 0.0
C6374 C 0.29435 0.82897 0.53219 0.0
C6375 C 0.2945 0.82863 0.54444 0.0
C6376 C 0.30251 0.8214 0.55038 0.0
C6377 C 0.31044 0.81463 0.54384 0.0
C6378 C 0.31028 0.81497 0.53161 0.0
H6379 H 0.2916 0.79468 0.50565 0.0
H6380 H 0.3043 0.79616 0.5148 0.0
H6381 H 0.29052 0.8021 0.51957 0.0
H6382 H 0.28805 0.83453 0.52778 0.0
H6383 H 0.2883 0.83397 0.54924 0.0
H6384 H 0.16544 0.28853 0.45078 0.0
H6385 H 0.16445 0.28859 0.47222 0.0
H6386 H 0.18908 0.3172 0.47331 0.0
H6387 H 0.19001 0.3173 0.45193 0.0
H6388 H 0.18279 0.28528 0.48819 0.0
H6389 H 0.16228 0.32893 0.49402 0.0
H6390 H 0.16245 0.3214 0.48011 0.0
H6391 H 0.17524 0.32912 0.48512 0.0
C6392 C 0.17058 0.29488 0.45558 0.0
C6393 C 0.17775 0.30295 0.44966 0.0
C6394 C 0.17002 0.2949 0.46782 0.0
C6395 C 0.17655 0.30302 0.47434 0.0
C6396 C 0.18377 0.31103 0.46845 0.0
H6397 H 0.19026 0.31701 0.54731 0.0
H6398 H 0.18939 0.31668 0.52591 0.0
C6399 C 0.18434 0.31102 0.45622 0.0
C6400 C 0.17613 0.30289 0.48731 0.0
H6401 H 0.16991 0.31984 0.51115 0.0
C6402 C 0.17988 0.29279 0.49322 0.0
C6403 C 0.17234 0.31272 0.49384 0.0
C6404 C 0.16774 0.32363 0.48796 0.0
C6405 C 0.18027 0.29236 0.50551 0.0
C6406 C 0.1766 0.30224 0.51203 0.0
C6407 C 0.17273 0.31229 0.50612 0.0
C6408 C 0.17696 0.30241 0.52501 0.0
C6409 C 0.18493 0.28149 0.51139 0.0
C6410 C 0.17013 0.2946 0.53159 0.0
C6411 C 0.17061 0.29476 0.54383 0.0
C6412 C 0.17788 0.30278 0.54969 0.0
C6413 C 0.18458 0.3107 0.54306 0.0
C6414 C 0.18409 0.31054 0.53084 0.0
H6415 H 0.18992 0.27587 0.50521 0.0
H6416 H 0.1907 0.28379 0.51887 0.0
H6417 H 0.17748 0.27628 0.51484 0.0
H6418 H 0.16439 0.28841 0.52726 0.0
H6419 H 0.1653 0.28858 0.54869 0.0
H6420 H 0.2888 0.16525 0.54869 0.0
H6421 H 0.28893 0.16443 0.52725 0.0
H6422 H 0.31684 0.18985 0.52639 0.0
H6423 H 0.31687 0.19063 0.54778 0.0
H6424 H 0.28514 0.18282 0.51141 0.0
H6425 H 0.32933 0.1635 0.50551 0.0
H6426 H 0.32177 0.16336 0.51939 0.0
H6427 H 0.32914 0.17639 0.51451 0.0
C6428 C 0.29501 0.17061 0.54394 0.0
C6429 C 0.30287 0.17797 0.54993 0.0
C6430 C 0.29507 0.17014 0.53169 0.0
C6431 C 0.30302 0.17694 0.52524 0.0
C6432 C 0.31081 0.18434 0.5312 0.0
H6433 H 0.3169 0.19102 0.45227 0.0
H6434 H 0.31657 0.19015 0.47367 0.0
C6435 C 0.31076 0.18482 0.54343 0.0
C6436 C 0.30292 0.17661 0.51227 0.0
H6437 H 0.32003 0.17093 0.48841 0.0
C6438 C 0.29273 0.18013 0.50637 0.0
C6439 C 0.31284 0.17311 0.50573 0.0
C6440 C 0.32386 0.16877 0.51159 0.0
C6441 C 0.2923 0.18057 0.49408 0.0
C6442 C 0.30226 0.17718 0.48754 0.0
C6443 C 0.31241 0.17354 0.49345 0.0
C6444 C 0.30243 0.17757 0.47457 0.0
C6445 C 0.2813 0.18499 0.48823 0.0
C6446 C 0.29469 0.17066 0.46797 0.0
C6447 C 0.29484 0.17115 0.45573 0.0
C6448 C 0.30279 0.17851 0.44988 0.0
C6449 C 0.31065 0.18528 0.45651 0.0
C6450 C 0.31048 0.18479 0.46874 0.0
H6451 H 0.27563 0.18991 0.49441 0.0
H6452 H 0.28345 0.19077 0.4807 0.0
H6453 H 0.27621 0.17743 0.48486 0.0
H6454 H 0.28856 0.16485 0.47229 0.0
H6455 H 0.28872 0.16578 0.45087 0.0
H6456 H 0.80904 0.3174 0.45216 0.0
H6457 H 0.80981 0.31708 0.47357 0.0
H6458 H 0.83438 0.28842 0.47234 0.0
H6459 H 0.83375 0.28875 0.45091 0.0
H6460 H 0.80408 0.29829 0.48842 0.0
H6461 H 0.85038 0.31205 0.49428 0.0
H6462 H 0.84263 0.31389 0.48062 0.0
H6463 H 0.84827 0.29977 0.48467 0.0
C6464 C 0.81467 0.31107 0.45644 0.0
C6465 C 0.82137 0.30313 0.44984 0.0
C6466 C 0.81509 0.3109 0.46867 0.0
C6467 C 0.82227 0.30283 0.47453 0.0
C6468 C 0.82895 0.29487 0.46798 0.0
H6469 H 0.83393 0.28808 0.54852 0.0
H6470 H 0.83418 0.28791 0.52705 0.0
C6471 C 0.82853 0.29503 0.45574 0.0
C6472 C 0.82243 0.30252 0.48751 0.0
H6473 H 0.84017 0.30609 0.51133 0.0
C6474 C 0.81196 0.30003 0.49344 0.0
C6475 C 0.83274 0.30474 0.49401 0.0
C6476 C 0.84414 0.30786 0.4881 0.0
C6477 C 0.81153 0.29959 0.50571 0.0
C6478 C 0.82181 0.30191 0.51222 0.0
C6479 C 0.83231 0.30431 0.5063 0.0
C6480 C 0.82177 0.30211 0.5252 0.0
C6481 C 0.80012 0.29645 0.5116 0.0
C6482 C 0.81487 0.31028 0.53125 0.0
C6483 C 0.8147 0.31039 0.54349 0.0
C6484 C 0.8215 0.30238 0.54991 0.0
C6485 C 0.82857 0.29434 0.54382 0.0
C6486 C 0.82873 0.29424 0.53157 0.0
H6487 H 0.79404 0.29193 0.50549 0.0
H6488 H 0.80163 0.29072 0.51931 0.0
H6489 H 0.79577 0.30458 0.51467 0.0
H6490 H 0.80961 0.31659 0.52651 0.0
H6491 H 0.80921 0.31674 0.5479 0.0
H6492 H 0.16571 0.71128 0.54881 0.0
H6493 H 0.1651 0.71174 0.52737 0.0
H6494 H 0.18929 0.68277 0.526 0.0
H6495 H 0.19004 0.68231 0.5474 0.0
H6496 H 0.19536 0.70169 0.51142 0.0
H6497 H 0.14895 0.6885 0.50507 0.0
H6498 H 0.15117 0.70064 0.51483 0.0
H6499 H 0.15659 0.6864 0.51875 0.0
C6500 C 0.17084 0.70495 0.54394 0.0
C6501 C 0.1779 0.69673 0.5498 0.0
C6502 C 0.17043 0.70519 0.5317 0.0
C6503 C 0.17703 0.69719 0.52511 0.0
C6504 C 0.18408 0.68898 0.53093 0.0
H6505 H 0.19076 0.68353 0.45187 0.0
H6506 H 0.19012 0.68364 0.47326 0.0
C6507 C 0.18449 0.68873 0.54316 0.0
C6508 C 0.17697 0.69762 0.51214 0.0
H6509 H 0.15942 0.69434 0.48814 0.0
C6510 C 0.18751 0.70006 0.50632 0.0
C6511 C 0.1667 0.69555 0.50553 0.0
C6512 C 0.15521 0.69253 0.51133 0.0
C6513 C 0.18806 0.70055 0.49406 0.0
C6514 C 0.17783 0.69834 0.48744 0.0
C6515 C 0.16725 0.69603 0.49325 0.0
C6516 C 0.178 0.69816 0.47446 0.0
C6517 C 0.19955 0.70363 0.4883 0.0
C6518 C 0.17113 0.70607 0.46803 0.0
C6519 C 0.17143 0.70599 0.45578 0.0
C6520 C 0.17854 0.69794 0.44976 0.0
C6521 C 0.18524 0.68989 0.45624 0.0
C6522 C 0.18494 0.68998 0.46847 0.0
H6523 H 0.20559 0.70812 0.49447 0.0
H6524 H 0.2039 0.69547 0.48528 0.0
H6525 H 0.19817 0.70936 0.48056 0.0
H6526 H 0.16566 0.7124 0.4725 0.0
H6527 H 0.16614 0.71228 0.45104 0.0
H6528 H 0.17232 0.11059 0.30991 0.0
H6529 H 0.15719 0.12504 0.31406 0.0
H6530 H 0.15186 0.10994 0.34825 0.0
H6531 H 0.16716 0.09531 0.34416 0.0
H6532 H 0.13061 0.11487 0.33442 0.0
H6533 H 0.16053 0.15294 0.33733 0.0
H6534 H 0.16301 0.14403 0.32461 0.0
H6535 H 0.16552 0.13801 0.33895 0.0
C6536 C 0.16798 0.11032 0.31834 0.0
C6537 C 0.17099 0.10184 0.32674 0.0
C6538 C 0.15936 0.11863 0.32071 0.0
C6539 C 0.15355 0.11867 0.33152 0.0
C6540 C 0.15633 0.1101 0.33988 0.0
H6541 H 0.09464 0.16785 0.3445 0.0
H6542 H 0.10923 0.15252 0.3486 0.0
C6543 C 0.16505 0.10177 0.33753 0.0
C6544 C 0.14446 0.12763 0.33379 0.0
H6545 H 0.14032 0.15722 0.33334 0.0
C6546 C 0.1327 0.12414 0.33448 0.0
C6547 C 0.14726 0.13969 0.33391 0.0
C6548 C 0.15978 0.14391 0.33378 0.0
C6549 C 0.1236 0.13245 0.33442 0.0
C6550 C 0.12641 0.14449 0.33375 0.0
C6551 C 0.1382 0.14797 0.33379 0.0
C6552 C 0.11739 0.15352 0.33153 0.0
C6553 C 0.11106 0.12832 0.3343 0.0
C6554 C 0.11722 0.15917 0.32063 0.0
C6555 C 0.10897 0.16784 0.31828 0.0
C6556 C 0.10072 0.17113 0.32681 0.0
C6557 C 0.10087 0.16547 0.33775 0.0
C6558 C 0.10916 0.15671 0.34009 0.0
H6559 H 0.11037 0.11862 0.33378 0.0
H6560 H 0.10661 0.13128 0.34242 0.0
H6561 H 0.10632 0.13221 0.32675 0.0
H6562 H 0.1235 0.15683 0.31391 0.0
H6563 H 0.1091 0.17201 0.30976 0.0
H6564 H 0.9037 0.16826 0.34454 0.0
H6565 H 0.89043 0.15164 0.34806 0.0
H6566 H 0.87827 0.15381 0.31238 0.0
H6567 H 0.89136 0.17028 0.30881 0.0
H6568 H 0.86478 0.15097 0.34448 0.0
H6569 H 0.88868 0.11908 0.31683 0.0
H6570 H 0.89544 0.13222 0.3225 0.0
H6571 H 0.88623 0.1329 0.30973 0.0
C6572 C 0.89821 0.16516 0.33746 0.0
C6573 C 0.89861 0.17053 0.32638 0.0
C6574 C 0.89065 0.15569 0.33949 0.0
C6575 C 0.88352 0.15141 0.33043 0.0
C6576 C 0.88385 0.15686 0.31943 0.0
H6577 H 0.82879 0.10836 0.30943 0.0
H6578 H 0.84511 0.12162 0.31302 0.0
C6579 C 0.89131 0.16631 0.31742 0.0
C6580 C 0.87549 0.14141 0.33228 0.0
H6581 H 0.86847 0.11475 0.32076 0.0
C6582 C 0.86569 0.14291 0.33954 0.0
C6583 C 0.87677 0.13091 0.32585 0.0
C6584 C 0.88741 0.1286 0.31837 0.0
C6585 C 0.85667 0.13453 0.33983 0.0
C6586 C 0.85761 0.12439 0.33278 0.0
C6587 C 0.86776 0.12257 0.32611 0.0
C6588 C 0.84762 0.11631 0.33103 0.0
C6589 C 0.84587 0.13688 0.34706 0.0
C6590 C 0.84363 0.10889 0.33999 0.0
C6591 C 0.83424 0.10123 0.33795 0.0
C6592 C 0.82875 0.10092 0.32692 0.0
C6593 C 0.8328 0.10838 0.31802 0.0
C6594 C 0.84215 0.11597 0.32005 0.0
H6595 H 0.84602 0.14571 0.35114 0.0
H6596 H 0.8379 0.13612 0.34154 0.0
H6597 H 0.8452 0.13024 0.35413 0.0
H6598 H 0.84783 0.10896 0.34849 0.0
H6599 H 0.83131 0.09556 0.34496 0.0
H6600 H 0.90443 0.83223 0.34318 0.0
H6601 H 0.8909 0.84869 0.34639 0.0
H6602 H 0.87791 0.84487 0.31114 0.0
H6603 H 0.89132 0.82859 0.30786 0.0
H6604 H 0.88452 0.86845 0.31806 0.0
H6605 H 0.85432 0.84668 0.34966 0.0
H6606 H 0.86981 0.84614 0.35255 0.0
H6607 H 0.86393 0.8384 0.34022 0.0
C6608 C 0.89865 0.8349 0.33615 0.0
C6609 C 0.89892 0.82911 0.32527 0.0
C6610 C 0.89092 0.84426 0.33801 0.0
C6611 C 0.88337 0.84792 0.32902 0.0
C6612 C 0.88366 0.84216 0.31819 0.0
H6613 H 0.82896 0.89219 0.30761 0.0
H6614 H 0.84536 0.87889 0.31068 0.0
C6615 C 0.89133 0.83284 0.31634 0.0
C6616 C 0.87522 0.85789 0.33061 0.0
H6617 H 0.84904 0.86542 0.34297 0.0
C6618 C 0.87685 0.86788 0.32365 0.0
C6619 C 0.86529 0.85714 0.33797 0.0
C6620 C 0.86312 0.84652 0.34552 0.0
C6621 C 0.86855 0.87692 0.32345 0.0
C6622 C 0.85826 0.87585 0.33026 0.0
C6623 C 0.85693 0.86618 0.33774 0.0
C6624 C 0.84829 0.88399 0.32869 0.0
C6625 C 0.87071 0.88741 0.31572 0.0
C6626 C 0.84431 0.89109 0.33791 0.0
C6627 C 0.83487 0.89876 0.33618 0.0
C6628 C 0.82922 0.89931 0.32524 0.0
C6629 C 0.83315 0.89203 0.31613 0.0
C6630 C 0.84256 0.88445 0.31784 0.0
H6631 H 0.88019 0.88862 0.31392 0.0
H6632 H 0.8662 0.88609 0.30721 0.0
H6633 H 0.86722 0.89554 0.31978 0.0
H6634 H 0.84857 0.89077 0.34638 0.0
H6635 H 0.832 0.90422 0.34338 0.0
H6636 H 0.11048 0.82757 0.30915 0.0
H6637 H 0.12516 0.84251 0.31323 0.0
H6638 H 0.11018 0.84817 0.34742 0.0
H6639 H 0.09532 0.83308 0.34339 0.0
H6640 H 0.11539 0.86928 0.33361 0.0
H6641 H 0.15305 0.83884 0.3364 0.0
H6642 H 0.1441 0.83653 0.32368 0.0
H6643 H 0.13806 0.83405 0.33801 0.0
C6644 C 0.11029 0.83195 0.31756 0.0
C6645 C 0.10178 0.82909 0.32598 0.0
C6646 C 0.11872 0.84045 0.31989 0.0
C6647 C 0.11886 0.8463 0.33069 0.0
C6648 C 0.11026 0.84367 0.33907 0.0
H6649 H 0.16837 0.90467 0.3444 0.0
H6650 H 0.15292 0.89012 0.34813 0.0
C6651 C 0.1018 0.83506 0.33676 0.0
C6652 C 0.12796 0.85526 0.33292 0.0
H6653 H 0.1576 0.85902 0.33257 0.0
C6654 C 0.12462 0.86707 0.33366 0.0
C6655 C 0.13998 0.8523 0.33304 0.0
C6656 C 0.14403 0.83973 0.33286 0.0
C6657 C 0.13305 0.87606 0.33367 0.0
C6658 C 0.14505 0.87309 0.33304 0.0
C6659 C 0.14837 0.86126 0.333 0.0
C6660 C 0.15424 0.88203 0.33105 0.0
C6661 C 0.12907 0.88865 0.33361 0.0
C6662 C 0.16013 0.8822 0.32028 0.0
C6663 C 0.16888 0.89043 0.31814 0.0
C6664 C 0.172 0.89864 0.32676 0.0
C6665 C 0.16613 0.89846 0.33759 0.0
C6666 C 0.15729 0.8902 0.33972 0.0
H6667 H 0.11941 0.88946 0.33283 0.0
H6668 H 0.13185 0.89295 0.34188 0.0
H6669 H 0.13322 0.89345 0.32625 0.0
H6670 H 0.1579 0.87596 0.31349 0.0
H6671 H 0.17323 0.89032 0.30971 0.0
H6672 H 0.1678 0.90411 0.65659 0.0
H6673 H 0.15124 0.89069 0.65329 0.0
H6674 H 0.15406 0.8785 0.68892 0.0
H6675 H 0.17045 0.89175 0.69227 0.0
H6676 H 0.15088 0.86511 0.65674 0.0
H6677 H 0.11918 0.88843 0.68511 0.0
H6678 H 0.13219 0.89536 0.67932 0.0
H6679 H 0.13313 0.88603 0.69198 0.0
C6680 C 0.16484 0.89859 0.66371 0.0
C6681 C 0.17038 0.89902 0.6747 0.0
C6682 C 0.15541 0.89094 0.66181 0.0
C6683 C 0.15134 0.88375 0.67092 0.0
C6684 C 0.15695 0.88412 0.68183 0.0
H6685 H 0.10821 0.82851 0.69157 0.0
H6686 H 0.12155 0.84485 0.6883 0.0
C6687 C 0.16635 0.89167 0.68371 0.0
C6688 C 0.1414 0.87561 0.66918 0.0
H6689 H 0.11495 0.86825 0.68098 0.0
C6690 C 0.14289 0.86589 0.66181 0.0
C6691 C 0.13099 0.87672 0.67579 0.0
C6692 C 0.12869 0.88726 0.68342 0.0
C6693 C 0.13456 0.85681 0.66152 0.0
C6694 C 0.1245 0.8576 0.66869 0.0
C6695 C 0.12271 0.86765 0.67553 0.0
C6696 C 0.11639 0.8476 0.67028 0.0
C6697 C 0.13691 0.84613 0.65412 0.0
C6698 C 0.10903 0.84375 0.66122 0.0
C6699 C 0.10133 0.83436 0.66307 0.0
C6700 C 0.10092 0.82872 0.67402 0.0
C6701 C 0.10832 0.83264 0.68304 0.0
C6702 C 0.11594 0.842 0.68119 0.0
H6703 H 0.14578 0.84629 0.65012 0.0
H6704 H 0.13604 0.83806 0.65949 0.0
H6705 H 0.13033 0.84564 0.64698 0.0
H6706 H 0.10916 0.84806 0.65277 0.0
H6707 H 0.09571 0.83154 0.65597 0.0
H6708 H 0.17275 0.10978 0.69129 0.0
H6709 H 0.15748 0.12417 0.68745 0.0
H6710 H 0.15184 0.10932 0.65319 0.0
H6711 H 0.16724 0.09473 0.65699 0.0
H6712 H 0.15719 0.14068 0.66801 0.0
H6713 H 0.11853 0.11085 0.66888 0.0
H6714 H 0.13236 0.10679 0.67539 0.0
H6715 H 0.13081 0.10696 0.65977 0.0
C6716 C 0.16827 0.10951 0.68293 0.0
C6717 C 0.17121 0.10111 0.67443 0.0
C6718 C 0.15954 0.11777 0.68076 0.0
C6719 C 0.15349 0.11777 0.67008 0.0
C6720 C 0.15633 0.10937 0.66155 0.0
H6721 H 0.09517 0.16722 0.65703 0.0
H6722 H 0.10982 0.15185 0.65329 0.0
C6723 C 0.16514 0.10109 0.66371 0.0
C6724 C 0.14442 0.1268 0.668 0.0
H6725 H 0.11481 0.13106 0.66762 0.0
C6726 C 0.14792 0.13857 0.66773 0.0
C6727 C 0.13236 0.12401 0.66757 0.0
C6728 C 0.12819 0.11149 0.66796 0.0
C6729 C 0.13967 0.14766 0.66755 0.0
C6730 C 0.12761 0.1449 0.66784 0.0
C6731 C 0.12408 0.13313 0.66743 0.0
C6732 C 0.11866 0.15407 0.66989 0.0
C6733 C 0.14393 0.16017 0.66738 0.0
C6734 C 0.1187 0.16022 0.68052 0.0
C6735 C 0.11038 0.16889 0.68269 0.0
C6736 C 0.10182 0.1716 0.67427 0.0
C6737 C 0.10169 0.16535 0.66365 0.0
C6738 C 0.11003 0.15658 0.66151 0.0
H6739 H 0.15293 0.16082 0.66374 0.0
H6740 H 0.138 0.16582 0.66213 0.0
H6741 H 0.14412 0.1636 0.67647 0.0
H6742 H 0.12516 0.15827 0.68719 0.0
H6743 H 0.11069 0.17348 0.69098 0.0
H6744 H 0.90459 0.16696 0.65767 0.0
H6745 H 0.88989 0.15161 0.6541 0.0
H6746 H 0.87504 0.15792 0.68824 0.0
H6747 H 0.88957 0.17312 0.69187 0.0
H6748 H 0.88503 0.13078 0.66833 0.0
H6749 H 0.84695 0.16068 0.66528 0.0
H6750 H 0.86187 0.16565 0.6635 0.0
H6751 H 0.85594 0.16331 0.67791 0.0
C6752 C 0.89817 0.16506 0.66439 0.0
C6753 C 0.8982 0.17129 0.67502 0.0
C6754 C 0.8898 0.15631 0.66234 0.0
C6755 C 0.88128 0.15378 0.67084 0.0
C6756 C 0.88141 0.15989 0.68149 0.0
H6757 H 0.82715 0.10939 0.69232 0.0
H6758 H 0.84244 0.12379 0.68856 0.0
C6759 C 0.88977 0.16855 0.68356 0.0
C6760 C 0.87228 0.14465 0.66886 0.0
H6761 H 0.84269 0.14051 0.66939 0.0
C6762 C 0.87577 0.13287 0.66829 0.0
C6763 C 0.86022 0.14745 0.66878 0.0
C6764 C 0.856 0.15997 0.66878 0.0
C6765 C 0.86746 0.12378 0.66845 0.0
C6766 C 0.85542 0.12659 0.66907 0.0
C6767 C 0.85195 0.13838 0.66898 0.0
C6768 C 0.84634 0.11756 0.67111 0.0
C6769 C 0.8716 0.11124 0.66866 0.0
C6770 C 0.84344 0.10926 0.6625 0.0
C6771 C 0.83462 0.10097 0.66462 0.0
C6772 C 0.82861 0.10089 0.67537 0.0
C6773 C 0.8316 0.1092 0.68394 0.0
C6774 C 0.84034 0.11746 0.68181 0.0
H6775 H 0.88127 0.11057 0.66953 0.0
H6776 H 0.86746 0.10645 0.67604 0.0
H6777 H 0.86895 0.10683 0.66042 0.0
H6778 H 0.84789 0.10928 0.65413 0.0
H6779 H 0.83248 0.09469 0.65785 0.0
H6780 H 0.89193 0.82833 0.69279 0.0
H6781 H 0.87843 0.84454 0.68957 0.0
H6782 H 0.89084 0.84806 0.65408 0.0
H6783 H 0.90444 0.83165 0.65722 0.0
H6784 H 0.88457 0.86797 0.68256 0.0
H6785 H 0.8544 0.84591 0.65113 0.0
H6786 H 0.86429 0.83775 0.66038 0.0
H6787 H 0.86985 0.84563 0.64799 0.0
C6788 C 0.8918 0.8325 0.68427 0.0
C6789 C 0.89924 0.8287 0.67525 0.0
C6790 C 0.88408 0.84178 0.68246 0.0
C6791 C 0.88358 0.84744 0.67158 0.0
C6792 C 0.891 0.84371 0.66251 0.0
H6793 H 0.83197 0.90358 0.65743 0.0
H6794 H 0.8486 0.8902 0.6544 0.0
C6795 C 0.89879 0.83438 0.66433 0.0
C6796 C 0.87534 0.85734 0.67001 0.0
H6797 H 0.84906 0.86468 0.65772 0.0
C6798 C 0.87689 0.86733 0.67699 0.0
C6799 C 0.86538 0.8565 0.66268 0.0
C6800 C 0.86327 0.84587 0.65514 0.0
C6801 C 0.86851 0.87629 0.67722 0.0
C6802 C 0.85822 0.87515 0.67043 0.0
C6803 C 0.85696 0.86549 0.66294 0.0
C6804 C 0.8482 0.88323 0.67201 0.0
C6805 C 0.87057 0.88679 0.68498 0.0
C6806 C 0.84239 0.88355 0.68282 0.0
C6807 C 0.83294 0.89109 0.68455 0.0
C6808 C 0.82907 0.89846 0.67548 0.0
C6809 C 0.8348 0.89804 0.66458 0.0
C6810 C 0.84427 0.89041 0.66284 0.0
H6811 H 0.88004 0.88803 0.68686 0.0
H6812 H 0.86709 0.8949 0.6809 0.0
H6813 H 0.866 0.88544 0.69345 0.0
H6814 H 0.84517 0.87793 0.68994 0.0
H6815 H 0.8287 0.89115 0.69303 0.0
H6816 H 0.30825 0.17268 0.11007 0.0
H6817 H 0.31208 0.15763 0.1247 0.0
H6818 H 0.34645 0.15196 0.11015 0.0
H6819 H 0.34267 0.16716 0.09533 0.0
H6820 H 0.3327 0.13089 0.11497 0.0
H6821 H 0.33467 0.16094 0.15299 0.0
H6822 H 0.32205 0.16328 0.14389 0.0
H6823 H 0.33645 0.16591 0.13807 0.0
C6824 C 0.31665 0.16829 0.10996 0.0
C6825 C 0.32519 0.17116 0.10158 0.0
C6826 C 0.31884 0.15971 0.11837 0.0
C6827 C 0.32961 0.15383 0.11862 0.0
C6828 C 0.33812 0.15649 0.11014 0.0
H6829 H 0.34283 0.09511 0.16786 0.0
H6830 H 0.34664 0.10971 0.15248 0.0
C6831 C 0.33595 0.16516 0.10171 0.0
C6832 C 0.33169 0.14477 0.12767 0.0
H6833 H 0.3308 0.1407 0.15726 0.0
C6834 C 0.33256 0.133 0.12423 0.0
C6835 C 0.33156 0.1476 0.13972 0.0
C6836 C 0.33125 0.16013 0.14391 0.0
C6837 C 0.33245 0.12393 0.13256 0.0
C6838 C 0.33158 0.12676 0.14458 0.0
C6839 C 0.33141 0.13856 0.14802 0.0
C6840 C 0.32951 0.11772 0.15365 0.0
C6841 C 0.33256 0.11138 0.12845 0.0
C6842 C 0.31868 0.11747 0.15942 0.0
C6843 C 0.3165 0.10921 0.16814 0.0
C6844 C 0.32513 0.10105 0.17134 0.0
C6845 C 0.336 0.10127 0.16555 0.0
C6846 C 0.33818 0.10957 0.15675 0.0
H6847 H 0.33192 0.11066 0.11877 0.0
H6848 H 0.34082 0.10712 0.1313 0.0
H6849 H 0.32518 0.10647 0.13245 0.0
H6850 H 0.31188 0.12369 0.15715 0.0
H6851 H 0.30803 0.10928 0.17241 0.0
H6852 H 0.89201 0.30786 0.1707 0.0
H6853 H 0.87895 0.31133 0.15419 0.0
H6854 H 0.89149 0.34684 0.15148 0.0
H6855 H 0.90472 0.34343 0.16816 0.0
H6856 H 0.86595 0.34372 0.15082 0.0
H6857 H 0.88913 0.31492 0.11944 0.0
H6858 H 0.8865 0.30808 0.13335 0.0
H6859 H 0.89602 0.32061 0.1325 0.0
C6860 C 0.89205 0.31642 0.1666 0.0
C6861 C 0.89944 0.32536 0.1707 0.0
C6862 C 0.8846 0.31836 0.15712 0.0
C6863 C 0.88439 0.32928 0.15151 0.0
C6864 C 0.89162 0.33833 0.15565 0.0
H6865 H 0.83268 0.34454 0.09547 0.0
H6866 H 0.84916 0.34764 0.109 0.0
C6867 C 0.89916 0.33636 0.16515 0.0
C6868 C 0.87635 0.33108 0.14149 0.0
H6869 H 0.869 0.31922 0.11507 0.0
C6870 C 0.86672 0.33859 0.14287 0.0
C6871 C 0.87743 0.3244 0.13113 0.0
C6872 C 0.88789 0.31663 0.12893 0.0
C6873 C 0.8577 0.33895 0.13449 0.0
C6874 C 0.85845 0.33169 0.12448 0.0
C6875 C 0.86842 0.32472 0.12279 0.0
C6876 C 0.84847 0.33017 0.11632 0.0
C6877 C 0.8471 0.34651 0.13672 0.0
C6878 C 0.84275 0.31932 0.1159 0.0
C6879 C 0.83342 0.31753 0.10823 0.0
C6880 C 0.82964 0.32655 0.10075 0.0
C6881 C 0.83539 0.33744 0.10115 0.0
C6882 C 0.84476 0.33924 0.10889 0.0
H6883 H 0.84726 0.35056 0.14556 0.0
H6884 H 0.84676 0.35361 0.1301 0.0
H6885 H 0.83897 0.34125 0.13583 0.0
H6886 H 0.84549 0.31221 0.12156 0.0
H6887 H 0.8292 0.30904 0.10814 0.0
H6888 H 0.69179 0.8904 0.17261 0.0
H6889 H 0.68793 0.87589 0.15744 0.0
H6890 H 0.65329 0.89006 0.15247 0.0
H6891 H 0.65711 0.90476 0.16776 0.0
H6892 H 0.66886 0.85901 0.15752 0.0
H6893 H 0.66827 0.88885 0.11887 0.0
H6894 H 0.67496 0.89305 0.13258 0.0
H6895 H 0.65932 0.89254 0.13132 0.0
C6896 C 0.68335 0.89049 0.16829 0.0
C6897 C 0.67475 0.89873 0.17138 0.0
C6898 C 0.68116 0.88217 0.15963 0.0
C6899 C 0.67036 0.88196 0.1538 0.0
C6900 C 0.66173 0.89018 0.15679 0.0
H6901 H 0.65712 0.83222 0.09576 0.0
H6902 H 0.65336 0.84751 0.11048 0.0
C6903 C 0.66391 0.89853 0.16554 0.0
C6904 C 0.66828 0.87288 0.14477 0.0
H6905 H 0.66733 0.86861 0.11517 0.0
C6906 C 0.66834 0.8611 0.14827 0.0
C6907 C 0.66752 0.87566 0.13273 0.0
C6908 C 0.66756 0.88819 0.12855 0.0
C6909 C 0.66816 0.85202 0.14002 0.0
C6910 C 0.66813 0.85479 0.12795 0.0
C6911 C 0.66739 0.86654 0.12444 0.0
C6912 C 0.67019 0.84567 0.11897 0.0
C6913 C 0.66835 0.83951 0.14427 0.0
C6914 C 0.68095 0.83977 0.11877 0.0
C6915 C 0.68313 0.83114 0.11042 0.0
C6916 C 0.67459 0.82823 0.10205 0.0
C6917 C 0.66384 0.83425 0.10214 0.0
C6918 C 0.66169 0.84297 0.11051 0.0
H6919 H 0.66492 0.83877 0.15335 0.0
H6920 H 0.6631 0.83375 0.13845 0.0
H6921 H 0.67752 0.83628 0.14427 0.0
H6922 H 0.68771 0.84187 0.1251 0.0
H6923 H 0.69153 0.82673 0.11056 0.0
H6924 H 0.16742 0.65619 0.0961 0.0
H6925 H 0.15089 0.65315 0.1096 0.0
H6926 H 0.15415 0.68881 0.12158 0.0
H6927 H 0.17048 0.69192 0.10822 0.0
H6928 H 0.15046 0.65639 0.1349 0.0
H6929 H 0.11932 0.68573 0.11208 0.0
H6930 H 0.13227 0.67993 0.10507 0.0
H6931 H 0.13332 0.69243 0.11461 0.0
C6932 C 0.16456 0.66337 0.1016 0.0
C6933 C 0.1702 0.67431 0.10105 0.0
C6934 C 0.15515 0.66162 0.1093 0.0
C6935 C 0.15119 0.67082 0.11644 0.0
C6936 C 0.15692 0.68167 0.11598 0.0
H6937 H 0.109 0.69171 0.17234 0.0
H6938 H 0.12225 0.68831 0.15595 0.0
C6939 C 0.1663 0.68341 0.10837 0.0
C6940 C 0.14126 0.66924 0.12462 0.0
H6941 H 0.11517 0.68161 0.13231 0.0
C6942 C 0.1426 0.66168 0.13423 0.0
C6943 C 0.13101 0.67612 0.12367 0.0
C6944 C 0.12881 0.68393 0.11324 0.0
C6945 C 0.13432 0.66147 0.14335 0.0
C6946 C 0.12445 0.66892 0.14272 0.0
C6947 C 0.12279 0.67595 0.13279 0.0
C6948 C 0.11643 0.67057 0.15278 0.0
C6949 C 0.1365 0.65384 0.1539 0.0
C6950 C 0.10874 0.66169 0.15643 0.0
C6951 C 0.10109 0.66362 0.16584 0.0
C6952 C 0.10105 0.67446 0.17171 0.0
C6953 C 0.10881 0.68327 0.16802 0.0
C6954 C 0.11638 0.68135 0.15864 0.0
H6955 H 0.14521 0.64952 0.15358 0.0
H6956 H 0.13591 0.65912 0.16204 0.0
H6957 H 0.12967 0.64694 0.15436 0.0
H6958 H 0.10857 0.65335 0.15192 0.0
H6959 H 0.09519 0.65668 0.16848 0.0
H6960 H 0.30751 0.89227 0.83008 0.0
H6961 H 0.31063 0.87883 0.84635 0.0
H6962 H 0.34647 0.89038 0.84925 0.0
H6963 H 0.3434 0.90398 0.8328 0.0
H6964 H 0.34282 0.86504 0.84945 0.0
H6965 H 0.31439 0.8881 0.88126 0.0
H6966 H 0.30749 0.88582 0.86732 0.0
H6967 H 0.32016 0.89513 0.86831 0.0
C6968 C 0.31606 0.89201 0.83418 0.0
C6969 C 0.3252 0.89923 0.83019 0.0
C6970 C 0.31781 0.88436 0.84352 0.0
C6971 C 0.32872 0.88375 0.84911 0.0
C6972 C 0.33795 0.89081 0.84509 0.0
H6973 H 0.34359 0.83121 0.90441 0.0
H6974 H 0.3467 0.84776 0.89098 0.0
C6975 C 0.33618 0.89856 0.83572 0.0
C6976 C 0.33034 0.87547 0.85897 0.0
H6977 H 0.31841 0.86785 0.88529 0.0
C6978 C 0.3377 0.86575 0.85742 0.0
C6979 C 0.32367 0.87646 0.86935 0.0
C6980 C 0.31606 0.887 0.87174 0.0
C6981 C 0.33795 0.85658 0.86565 0.0
C6982 C 0.33073 0.85728 0.8757 0.0
C6983 C 0.32388 0.86731 0.87754 0.0
C6984 C 0.32919 0.84724 0.88377 0.0
C6985 C 0.34536 0.84592 0.86325 0.0
C6986 C 0.3183 0.84158 0.88422 0.0
C6987 C 0.31651 0.83221 0.89183 0.0
C6988 C 0.32555 0.82832 0.89923 0.0
C6989 C 0.33647 0.834 0.8988 0.0
C6990 C 0.33828 0.84341 0.89111 0.0
H6991 H 0.34934 0.84613 0.85437 0.0
H6992 H 0.35251 0.84542 0.8698 0.0
H6993 H 0.34001 0.83784 0.86409 0.0
H6994 H 0.31118 0.84442 0.87863 0.0
H6995 H 0.30799 0.82804 0.89195 0.0
H6996 H 0.17301 0.30909 0.89031 0.0
H6997 H 0.15805 0.31261 0.87552 0.0
H6998 H 0.15211 0.34718 0.88947 0.0
H6999 H 0.16722 0.34373 0.90444 0.0
H7000 H 0.13113 0.33315 0.88476 0.0
H7001 H 0.16143 0.33486 0.84691 0.0
H7002 H 0.16377 0.32241 0.85623 0.0
H7003 H 0.16628 0.33691 0.86183 0.0
C7004 C 0.16857 0.31747 0.89025 0.0
C7005 C 0.17135 0.32616 0.89851 0.0
C7006 C 0.16005 0.31948 0.88175 0.0
C7007 C 0.15411 0.33021 0.8813 0.0
C7008 C 0.15668 0.33887 0.88964 0.0
H7009 H 0.09557 0.34328 0.83193 0.0
H7010 H 0.11017 0.34698 0.84733 0.0
C7011 C 0.1653 0.33688 0.89816 0.0
C7012 C 0.1451 0.33211 0.87216 0.0
H7013 H 0.14124 0.33104 0.84255 0.0
C7014 C 0.13331 0.33295 0.87551 0.0
C7015 C 0.14802 0.33189 0.86013 0.0
C7016 C 0.16058 0.33158 0.85603 0.0
C7017 C 0.12429 0.33278 0.86712 0.0
C7018 C 0.12721 0.33187 0.85512 0.0
C7019 C 0.13903 0.33168 0.85177 0.0
C7020 C 0.11822 0.32987 0.84599 0.0
C7021 C 0.11171 0.33287 0.87116 0.0
C7022 C 0.11801 0.31911 0.84009 0.0
C7023 C 0.10975 0.31699 0.83135 0.0
C7024 C 0.10155 0.32563 0.82826 0.0
C7025 C 0.10176 0.33645 0.83415 0.0
C7026 C 0.11005 0.33856 0.84296 0.0
H7027 H 0.11094 0.33208 0.88082 0.0
H7028 H 0.10752 0.34119 0.86842 0.0
H7029 H 0.10679 0.32557 0.86702 0.0
H7030 H 0.12424 0.3123 0.84229 0.0
H7031 H 0.10983 0.30857 0.82699 0.0
H7032 H 0.65651 0.16743 0.9051 0.0
H7033 H 0.65328 0.15086 0.89168 0.0
H7034 H 0.6888 0.15402 0.87927 0.0
H7035 H 0.69209 0.1704 0.89253 0.0
H7036 H 0.65642 0.1504 0.86619 0.0
H7037 H 0.68559 0.11918 0.88914 0.0
H7038 H 0.67979 0.13215 0.89611 0.0
H7039 H 0.69229 0.13317 0.88658 0.0
C7040 C 0.66362 0.16455 0.89952 0.0
C7041 C 0.67457 0.17017 0.89991 0.0
C7042 C 0.66176 0.15511 0.89187 0.0
C7043 C 0.67086 0.15112 0.88464 0.0
C7044 C 0.68172 0.15683 0.88494 0.0
H7045 H 0.69148 0.10833 0.82909 0.0
H7046 H 0.68819 0.12167 0.84543 0.0
C7047 C 0.68357 0.16624 0.8925 0.0
C7048 C 0.66918 0.14115 0.87651 0.0
H7049 H 0.68134 0.11491 0.86897 0.0
C7050 C 0.66164 0.1425 0.8669 0.0
C7051 C 0.67599 0.13085 0.87752 0.0
C7052 C 0.68379 0.12867 0.88796 0.0
C7053 C 0.66137 0.13418 0.85782 0.0
C7054 C 0.66874 0.12424 0.8585 0.0
C7055 C 0.67575 0.12258 0.86845 0.0
C7056 C 0.67033 0.11616 0.84848 0.0
C7057 C 0.65377 0.13638 0.84725 0.0
C7058 C 0.66135 0.10861 0.84479 0.0
C7059 C 0.66322 0.10091 0.8354 0.0
C7060 C 0.67409 0.10069 0.8296 0.0
C7061 C 0.68301 0.10829 0.83335 0.0
C7062 C 0.68115 0.11591 0.8427 0.0
H7063 H 0.64959 0.14516 0.84748 0.0
H7064 H 0.65903 0.13563 0.83911 0.0
H7065 H 0.64676 0.12966 0.84686 0.0
H7066 H 0.65297 0.10858 0.84923 0.0
H7067 H 0.65619 0.09514 0.83271 0.0
H7068 H 0.90475 0.65658 0.83288 0.0
H7069 H 0.89 0.65265 0.84809 0.0
H7070 H 0.87483 0.68671 0.84215 0.0
H7071 H 0.88942 0.6907 0.8271 0.0
H7072 H 0.88496 0.66667 0.86908 0.0
H7073 H 0.84698 0.66343 0.83908 0.0
H7074 H 0.86192 0.6618 0.83414 0.0
H7075 H 0.85586 0.67615 0.83651 0.0
C7076 C 0.89825 0.6632 0.83483 0.0
C7077 C 0.89821 0.67392 0.82876 0.0
C7078 C 0.88985 0.66095 0.8435 0.0
C7079 C 0.88123 0.66932 0.84609 0.0
C7080 C 0.88128 0.68005 0.84013 0.0
H7081 H 0.82764 0.69116 0.89041 0.0
H7082 H 0.84285 0.68706 0.87602 0.0
C7083 C 0.88967 0.68233 0.83155 0.0
C7084 C 0.87224 0.66717 0.85518 0.0
H7085 H 0.84264 0.66757 0.85925 0.0
C7086 C 0.8757 0.66658 0.86696 0.0
C7087 C 0.86018 0.667 0.85235 0.0
C7088 C 0.85599 0.66701 0.83982 0.0
C7089 C 0.86737 0.66669 0.87603 0.0
C7090 C 0.85533 0.66729 0.87319 0.0
C7091 C 0.85189 0.66716 0.8614 0.0
C7092 C 0.84626 0.66948 0.88219 0.0
C7093 C 0.87147 0.66691 0.88859 0.0
C7094 C 0.84313 0.66092 0.89044 0.0
C7095 C 0.83436 0.66323 0.89872 0.0
C7096 C 0.82863 0.67414 0.89884 0.0
C7097 C 0.83186 0.68267 0.89057 0.0
C7098 C 0.84055 0.68034 0.88232 0.0
H7099 H 0.88116 0.66752 0.88929 0.0
H7100 H 0.86751 0.67445 0.89327 0.0
H7101 H 0.86856 0.65879 0.89308 0.0
H7102 H 0.84738 0.65244 0.8904 0.0
H7103 H 0.83203 0.65649 0.90497 0.0
H7104 H 0.1682 0.34309 0.09644 0.0
H7105 H 0.15176 0.34622 0.11001 0.0
H7106 H 0.15525 0.31072 0.12241 0.0
H7107 H 0.1715 0.30751 0.10895 0.0
H7108 H 0.13184 0.31777 0.11604 0.0
H7109 H 0.15363 0.3491 0.14649 0.0
H7110 H 0.15408 0.35224 0.13105 0.0
H7111 H 0.16189 0.33983 0.13668 0.0
C7112 C 0.16546 0.33598 0.1021 0.0
C7113 C 0.17114 0.32506 0.10164 0.0
C7114 C 0.15612 0.3378 0.10986 0.0
C7115 C 0.15236 0.32872 0.11726 0.0
C7116 C 0.15803 0.31784 0.11678 0.0
H7117 H 0.10816 0.30706 0.17159 0.0
H7118 H 0.12151 0.31025 0.15525 0.0
C7119 C 0.16733 0.31603 0.10908 0.0
C7120 C 0.1424 0.33026 0.12541 0.0
H7121 H 0.13482 0.34249 0.15165 0.0
C7122 C 0.13241 0.32331 0.12374 0.0
C7123 C 0.14314 0.33757 0.13539 0.0
C7124 C 0.15376 0.3451 0.13763 0.0
C7125 C 0.12336 0.32307 0.13203 0.0
C7126 C 0.12441 0.32983 0.14235 0.0
C7127 C 0.13408 0.3373 0.14373 0.0
C7128 C 0.11626 0.32821 0.1523 0.0
C7129 C 0.11288 0.31534 0.12983 0.0
C7130 C 0.10906 0.33736 0.15624 0.0
C7131 C 0.10136 0.33556 0.16564 0.0
C7132 C 0.10088 0.32462 0.17129 0.0
C7133 C 0.10827 0.31557 0.1674 0.0
C7134 C 0.11587 0.31736 0.15803 0.0
H7135 H 0.11171 0.31352 0.12035 0.0
H7136 H 0.11418 0.30683 0.13436 0.0
H7137 H 0.10474 0.3194 0.13329 0.0
H7138 H 0.10932 0.34583 0.15197 0.0
H7139 H 0.09581 0.34271 0.16849 0.0
H7140 H 0.1676 0.65669 0.90454 0.0
H7141 H 0.15241 0.65296 0.8897 0.0
H7142 H 0.15835 0.68723 0.87503 0.0
H7143 H 0.17338 0.69103 0.88969 0.0
H7144 H 0.13141 0.66706 0.88477 0.0
H7145 H 0.16159 0.66428 0.84688 0.0
H7146 H 0.16646 0.66248 0.86183 0.0
H7147 H 0.16407 0.67689 0.85595 0.0
C7148 C 0.16565 0.6634 0.89813 0.0
C7149 C 0.17172 0.67412 0.89824 0.0
C7150 C 0.15699 0.66126 0.88968 0.0
C7151 C 0.15441 0.66975 0.88118 0.0
C7152 C 0.16037 0.68049 0.88139 0.0
H7153 H 0.11025 0.69114 0.82691 0.0
H7154 H 0.12464 0.68733 0.84219 0.0
C7155 C 0.16893 0.68265 0.88982 0.0
C7156 C 0.14536 0.6677 0.87211 0.0
H7157 H 0.14141 0.66824 0.8425 0.0
C7158 C 0.13357 0.66705 0.87552 0.0
C7159 C 0.14824 0.66764 0.86008 0.0
C7160 C 0.16079 0.66775 0.85594 0.0
C7161 C 0.12453 0.66716 0.86715 0.0
C7162 C 0.12742 0.66781 0.85513 0.0
C7163 C 0.13923 0.66779 0.85174 0.0
C7164 C 0.11843 0.66984 0.846 0.0
C7165 C 0.11196 0.6673 0.87121 0.0
C7166 C 0.11016 0.66124 0.84304 0.0
C7167 C 0.10187 0.66339 0.83423 0.0
C7168 C 0.10177 0.67417 0.82828 0.0
C7169 C 0.11007 0.68274 0.83131 0.0
C7170 C 0.11833 0.68058 0.84004 0.0
H7171 H 0.11122 0.66814 0.88088 0.0
H7172 H 0.10716 0.67466 0.86705 0.0
H7173 H 0.10761 0.65904 0.86852 0.0
H7174 H 0.11019 0.65284 0.84746 0.0
H7175 H 0.0956 0.65661 0.83205 0.0
H7176 H 0.34313 0.16777 0.90517 0.0
H7177 H 0.34655 0.15107 0.89198 0.0
H7178 H 0.31174 0.15509 0.8779 0.0
H7179 H 0.30826 0.1716 0.89096 0.0
H7180 H 0.31829 0.13148 0.88511 0.0
H7181 H 0.35075 0.1526 0.85536 0.0
H7182 H 0.35316 0.15337 0.87093 0.0
H7183 H 0.34109 0.16111 0.86455 0.0
C7184 C 0.33624 0.16509 0.89924 0.0
C7185 C 0.32543 0.171 0.89909 0.0
C7186 C 0.33822 0.15559 0.89169 0.0
C7187 C 0.32941 0.15192 0.88393 0.0
C7188 C 0.31865 0.15781 0.88382 0.0
H7189 H 0.30813 0.10782 0.82953 0.0
H7190 H 0.31123 0.12101 0.84601 0.0
C7191 C 0.31669 0.16726 0.89129 0.0
C7192 C 0.33111 0.14183 0.87595 0.0
H7193 H 0.34373 0.13401 0.84998 0.0
C7194 C 0.324 0.13193 0.87753 0.0
C7195 C 0.33862 0.14243 0.86613 0.0
C7196 C 0.34634 0.15294 0.86402 0.0
C7197 C 0.3238 0.12286 0.86927 0.0
C7198 C 0.33075 0.1238 0.85906 0.0
C7199 C 0.33839 0.13335 0.8578 0.0
C7200 C 0.32915 0.11568 0.84906 0.0
C7201 C 0.31589 0.11248 0.87136 0.0
C7202 C 0.33831 0.10848 0.84512 0.0
C7203 C 0.33656 0.10088 0.83563 0.0
C7204 C 0.32567 0.10049 0.82989 0.0
C7205 C 0.31661 0.10786 0.83379 0.0
C7206 C 0.31834 0.11537 0.84325 0.0
H7207 H 0.31401 0.1113 0.88083 0.0
H7208 H 0.30744 0.11394 0.8668 0.0
H7209 H 0.31985 0.1043 0.8679 0.0
H7210 H 0.34675 0.10868 0.84945 0.0
H7211 H 0.34372 0.09534 0.83279 0.0
H7212 H 0.89134 0.30824 0.82817 0.0
H7213 H 0.87793 0.31158 0.84444 0.0
H7214 H 0.89028 0.34712 0.84757 0.0
H7215 H 0.90381 0.34386 0.83113 0.0
H7216 H 0.8846 0.31906 0.86786 0.0
H7217 H 0.85361 0.34966 0.84578 0.0
H7218 H 0.86332 0.34024 0.83759 0.0
H7219 H 0.86905 0.35282 0.84503 0.0
C7220 C 0.8912 0.3168 0.83226 0.0
C7221 C 0.89863 0.3258 0.82836 0.0
C7222 C 0.88354 0.31868 0.84158 0.0
C7223 C 0.88307 0.32961 0.84715 0.0
C7224 C 0.89043 0.33866 0.84328 0.0
H7225 H 0.83184 0.34394 0.90364 0.0
H7226 H 0.8483 0.34706 0.89005 0.0
C7227 C 0.89817 0.33677 0.83394 0.0
C7228 C 0.87497 0.33122 0.85715 0.0
H7229 H 0.84863 0.34323 0.8647 0.0
C7230 C 0.87683 0.32449 0.86725 0.0
C7231 C 0.86489 0.33838 0.85635 0.0
C7232 C 0.86248 0.34568 0.84561 0.0
C7233 C 0.86862 0.32432 0.87638 0.0
C7234 C 0.85819 0.33091 0.87528 0.0
C7235 C 0.85663 0.33817 0.86549 0.0
C7236 C 0.84832 0.32928 0.88353 0.0
C7237 C 0.87102 0.31683 0.887 0.0
C7238 C 0.84281 0.31833 0.88418 0.0
C7239 C 0.83347 0.31654 0.89183 0.0
C7240 C 0.8294 0.32569 0.89899 0.0
C7241 C 0.83484 0.33672 0.89826 0.0
C7242 C 0.8442 0.33852 0.89052 0.0
H7243 H 0.88055 0.31524 0.88815 0.0
H7244 H 0.86752 0.32097 0.89507 0.0
H7245 H 0.86666 0.30821 0.88587 0.0
H7246 H 0.84571 0.31114 0.8787 0.0
H7247 H 0.82945 0.30796 0.89213 0.0
H7248 H 0.65604 0.9037 0.83216 0.0
H7249 H 0.65281 0.89029 0.84872 0.0
H7250 H 0.68852 0.87833 0.84597 0.0
H7251 H 0.69181 0.89159 0.82957 0.0
H7252 H 0.65635 0.86479 0.84927 0.0
H7253 H 0.68469 0.88839 0.88078 0.0
H7254 H 0.6789 0.89521 0.86772 0.0
H7255 H 0.69157 0.88589 0.86687 0.0
C7256 C 0.66319 0.89822 0.83513 0.0
C7257 C 0.6742 0.89874 0.82961 0.0
C7258 C 0.66133 0.89057 0.84456 0.0
C7259 C 0.67049 0.88347 0.84866 0.0
C7260 C 0.6814 0.88389 0.84307 0.0
H7261 H 0.69147 0.82858 0.8919 0.0
H7262 H 0.688 0.84484 0.87853 0.0
C7263 C 0.68325 0.89145 0.83365 0.0
C7264 C 0.66879 0.87538 0.85866 0.0
H7265 H 0.68061 0.86823 0.88515 0.0
C7266 C 0.66143 0.86563 0.85725 0.0
C7267 C 0.6754 0.87657 0.86906 0.0
C7268 C 0.683 0.88714 0.87128 0.0
C7269 C 0.66115 0.85662 0.86564 0.0
C7270 C 0.66834 0.85749 0.87569 0.0
C7271 C 0.67516 0.86756 0.8774 0.0
C7272 C 0.67002 0.84752 0.88382 0.0
C7273 C 0.65377 0.8459 0.86338 0.0
C7274 C 0.66102 0.84365 0.89127 0.0
C7275 C 0.66299 0.8343 0.89899 0.0
C7276 C 0.67397 0.82873 0.89934 0.0
C7277 C 0.68291 0.83266 0.89185 0.0
C7278 C 0.68095 0.84197 0.8842 0.0
H7279 H 0.6497 0.84603 0.85455 0.0
H7280 H 0.65917 0.83786 0.86423 0.0
H7281 H 0.64669 0.84541 0.87002 0.0
H7282 H 0.65256 0.84792 0.89118 0.0
H7283 H 0.65595 0.83146 0.90468 0.0
H7284 H 0.82694 0.69077 0.11061 0.0
H7285 H 0.84223 0.68685 0.12498 0.0
H7286 H 0.84753 0.6525 0.11025 0.0
H7287 H 0.83212 0.65636 0.0957 0.0
H7288 H 0.84256 0.66735 0.14157 0.0
H7289 H 0.88093 0.66817 0.11136 0.0
H7290 H 0.86709 0.67476 0.10745 0.0
H7291 H 0.86856 0.65913 0.10759 0.0
C7292 C 0.83135 0.68237 0.11038 0.0
C7293 C 0.82833 0.67387 0.10201 0.0
C7294 C 0.84008 0.68015 0.11861 0.0
C7295 C 0.84604 0.66943 0.11863 0.0
C7296 C 0.8431 0.66088 0.11029 0.0
H7297 H 0.90481 0.65682 0.16769 0.0
H7298 H 0.89004 0.65284 0.1525 0.0
C7299 C 0.83428 0.66309 0.10203 0.0
C7300 C 0.85519 0.66735 0.12757 0.0
H7301 H 0.88484 0.66706 0.13154 0.0
C7302 C 0.8518 0.66708 0.13938 0.0
C7303 C 0.86722 0.66692 0.12466 0.0
C7304 C 0.87126 0.6673 0.1121 0.0
C7305 C 0.86015 0.66695 0.14838 0.0
C7306 C 0.87218 0.66728 0.14549 0.0
C7307 C 0.87559 0.66684 0.1337 0.0
C7308 C 0.88119 0.66946 0.15455 0.0
C7309 C 0.85603 0.66682 0.16093 0.0
C7310 C 0.8812 0.68018 0.16053 0.0
C7311 C 0.88959 0.68249 0.16909 0.0
C7312 C 0.89818 0.67412 0.17185 0.0
C7313 C 0.89827 0.66341 0.16577 0.0
C7314 C 0.88986 0.66113 0.15711 0.0
H7315 H 0.84703 0.66318 0.1617 0.0
H7316 H 0.86202 0.66159 0.16653 0.0
H7317 H 0.85587 0.67592 0.16433 0.0
H7318 H 0.8747 0.68681 0.15854 0.0
H7319 H 0.88931 0.69085 0.17355 0.0
H7320 H 0.30748 0.82886 0.10791 0.0
H7321 H 0.31045 0.84517 0.12132 0.0
H7322 H 0.34624 0.84843 0.10974 0.0
H7323 H 0.34333 0.83192 0.09618 0.0
H7324 H 0.34263 0.84873 0.13506 0.0
H7325 H 0.31374 0.88005 0.11189 0.0
H7326 H 0.30701 0.86605 0.11428 0.0
H7327 H 0.31964 0.86712 0.10493 0.0
C7328 C 0.31599 0.83304 0.10815 0.0
C7329 C 0.32516 0.82914 0.10093 0.0
C7330 C 0.31765 0.8424 0.1158 0.0
C7331 C 0.3285 0.84812 0.11638 0.0
C7332 C 0.33777 0.84417 0.10933 0.0
H7333 H 0.34287 0.90391 0.16848 0.0
H7334 H 0.34606 0.89037 0.15204 0.0
C7335 C 0.33609 0.83477 0.1016 0.0
C7336 C 0.33 0.85803 0.12461 0.0
H7337 H 0.31774 0.88423 0.13212 0.0
C7338 C 0.33741 0.85663 0.13433 0.0
C7339 C 0.32319 0.86832 0.12358 0.0
C7340 C 0.31553 0.87056 0.11305 0.0
C7341 C 0.33756 0.86492 0.14344 0.0
C7342 C 0.33022 0.87486 0.1427 0.0
C7343 C 0.32331 0.87655 0.13269 0.0
C7344 C 0.32862 0.88299 0.15269 0.0
C7345 C 0.34504 0.86266 0.1541 0.0
C7346 C 0.31775 0.88339 0.15837 0.0
C7347 C 0.31591 0.89107 0.16769 0.0
C7348 C 0.32489 0.89858 0.17148 0.0
C7349 C 0.3358 0.8982 0.16577 0.0
C7350 C 0.33765 0.89046 0.15642 0.0
H7351 H 0.3491 0.85382 0.15394 0.0
H7352 H 0.35214 0.86929 0.15451 0.0
H7353 H 0.33972 0.86352 0.16219 0.0
H7354 H 0.31067 0.87771 0.15561 0.0
H7355 H 0.3074 0.89114 0.17188 0.0
H7356 H 0.65714 0.16769 0.0952 0.0
H7357 H 0.65367 0.15112 0.10855 0.0
H7358 H 0.68857 0.15501 0.12242 0.0
H7359 H 0.6921 0.17141 0.10922 0.0
H7360 H 0.68154 0.13126 0.11527 0.0
H7361 H 0.64995 0.15321 0.14536 0.0
H7362 H 0.64747 0.15403 0.1298 0.0
H7363 H 0.65975 0.16149 0.13611 0.0
C7364 C 0.66404 0.165 0.10112 0.0
C7365 C 0.67488 0.17086 0.10117 0.0
C7366 C 0.66204 0.15559 0.10875 0.0
C7367 C 0.67085 0.15192 0.1165 0.0
C7368 C 0.68166 0.15773 0.11651 0.0
H7369 H 0.69248 0.10821 0.17089 0.0
H7370 H 0.68917 0.12129 0.15437 0.0
C7371 C 0.68365 0.16711 0.10896 0.0
C7372 C 0.6691 0.14193 0.12458 0.0
H7373 H 0.65686 0.13461 0.15087 0.0
C7374 C 0.67599 0.13189 0.12295 0.0
C7375 C 0.66179 0.14277 0.13454 0.0
C7376 C 0.65432 0.15344 0.13667 0.0
C7377 C 0.67618 0.12289 0.1313 0.0
C7378 C 0.66946 0.12407 0.14164 0.0
C7379 C 0.66202 0.13377 0.14295 0.0
C7380 C 0.67116 0.11605 0.15169 0.0
C7381 C 0.68385 0.11235 0.12917 0.0
C7382 C 0.66202 0.10896 0.15586 0.0
C7383 C 0.66389 0.10141 0.16537 0.0
C7384 C 0.67489 0.10099 0.1709 0.0
C7385 C 0.68392 0.10827 0.1668 0.0
C7386 C 0.68207 0.11572 0.15731 0.0
H7387 H 0.68555 0.11105 0.11968 0.0
H7388 H 0.69241 0.11369 0.13358 0.0
H7389 H 0.6798 0.10427 0.13277 0.0
H7390 H 0.6535 0.10918 0.15168 0.0
H7391 H 0.65676 0.09594 0.16839 0.0
H7392 H 0.61025 0.67254 0.80861 0.0
H7393 H 0.62462 0.65729 0.81265 0.0
H7394 H 0.61003 0.65242 0.84713 0.0
H7395 H 0.59548 0.6678 0.84314 0.0
H7396 H 0.64128 0.6573 0.83209 0.0
H7397 H 0.61124 0.61879 0.83193 0.0
H7398 H 0.60725 0.63251 0.82513 0.0
H7399 H 0.60745 0.63129 0.84078 0.0
C7400 C 0.61004 0.66823 0.81706 0.0
C7401 C 0.60172 0.67138 0.82557 0.0
C7402 C 0.61828 0.65952 0.81935 0.0
C7403 C 0.61834 0.6537 0.83015 0.0
C7404 C 0.61004 0.65675 0.83869 0.0
H7405 H 0.66783 0.59535 0.8433 0.0
H7406 H 0.65252 0.61003 0.84714 0.0
C7407 C 0.60177 0.66554 0.83642 0.0
C7408 C 0.62734 0.64461 0.83232 0.0
H7409 H 0.63145 0.61498 0.83296 0.0
C7410 C 0.63913 0.64805 0.83249 0.0
C7411 C 0.62449 0.63257 0.83291 0.0
C7412 C 0.61194 0.62847 0.83264 0.0
C7413 C 0.64817 0.63975 0.83269 0.0
C7414 C 0.64534 0.6277 0.83253 0.0
C7415 C 0.63356 0.62424 0.83306 0.0
C7416 C 0.65444 0.6187 0.83041 0.0
C7417 C 0.66071 0.64393 0.83271 0.0
C7418 C 0.6604 0.61861 0.81967 0.0
C7419 C 0.66902 0.61027 0.81744 0.0
C7420 C 0.6719 0.60181 0.82591 0.0
C7421 C 0.66583 0.60179 0.83663 0.0
C7422 C 0.6571 0.61015 0.83884 0.0
H7423 H 0.66144 0.65297 0.83625 0.0
H7424 H 0.66636 0.63802 0.83798 0.0
H7425 H 0.66406 0.64401 0.82359 0.0
H7426 H 0.65833 0.62501 0.81298 0.0
H7427 H 0.67347 0.6105 0.80907 0.0
H7428 H 0.33208 0.59557 0.84318 0.0
H7429 H 0.34859 0.60905 0.84634 0.0
H7430 H 0.34477 0.62198 0.81107 0.0
H7431 H 0.32845 0.60861 0.80783 0.0
H7432 H 0.36829 0.61538 0.81786 0.0
H7433 H 0.34678 0.64558 0.84963 0.0
H7434 H 0.34627 0.63009 0.85255 0.0
H7435 H 0.33842 0.63595 0.84027 0.0
C7436 C 0.33476 0.60132 0.83613 0.0
C7437 C 0.32897 0.60104 0.82526 0.0
C7438 C 0.34415 0.60903 0.83796 0.0
C7439 C 0.34783 0.61655 0.82895 0.0
C7440 C 0.34206 0.61625 0.81813 0.0
H7441 H 0.39206 0.67093 0.8073 0.0
H7442 H 0.37874 0.65455 0.81043 0.0
C7443 C 0.33271 0.60861 0.81631 0.0
C7444 C 0.35783 0.62467 0.8305 0.0
H7445 H 0.36548 0.65084 0.84282 0.0
C7446 C 0.36776 0.62304 0.82346 0.0
C7447 C 0.35714 0.6346 0.83787 0.0
C7448 C 0.34658 0.63678 0.8455 0.0
C7449 C 0.3768 0.63134 0.82319 0.0
C7450 C 0.37579 0.64162 0.83001 0.0
C7451 C 0.36619 0.64295 0.83757 0.0
C7452 C 0.38395 0.65159 0.8284 0.0
C7453 C 0.38723 0.62918 0.81538 0.0
C7454 C 0.39111 0.65554 0.83758 0.0
C7455 C 0.39879 0.66496 0.83582 0.0
C7456 C 0.39929 0.67062 0.82489 0.0
C7457 C 0.39194 0.66673 0.81581 0.0
C7458 C 0.38435 0.65733 0.81756 0.0
H7459 H 0.38842 0.6197 0.81355 0.0
H7460 H 0.38584 0.6337 0.80688 0.0
H7461 H 0.39539 0.63265 0.81937 0.0
H7462 H 0.39084 0.65126 0.84604 0.0
H7463 H 0.40431 0.66781 0.84298 0.0
H7464 H 0.40576 0.33323 0.84445 0.0
H7465 H 0.39091 0.34833 0.8486 0.0
H7466 H 0.37612 0.34318 0.81424 0.0
H7467 H 0.39077 0.32828 0.81004 0.0
H7468 H 0.38566 0.36972 0.83477 0.0
H7469 H 0.34818 0.33903 0.83745 0.0
H7470 H 0.3632 0.33434 0.83916 0.0
H7471 H 0.35723 0.33676 0.82479 0.0
C7472 C 0.39933 0.33535 0.8378 0.0
C7473 C 0.39939 0.32952 0.82695 0.0
C7474 C 0.39088 0.34395 0.84018 0.0
C7475 C 0.38233 0.34671 0.83179 0.0
C7476 C 0.38252 0.34102 0.82091 0.0
H7477 H 0.32784 0.39014 0.8103 0.0
H7478 H 0.34326 0.37594 0.81432 0.0
C7479 C 0.39094 0.33253 0.81852 0.0
C7480 C 0.37319 0.35561 0.83408 0.0
H7481 H 0.34353 0.35918 0.83353 0.0
C7482 C 0.37644 0.36744 0.83479 0.0
C7483 C 0.36118 0.35258 0.83414 0.0
C7484 C 0.35721 0.33998 0.83396 0.0
C7485 C 0.36796 0.37638 0.8347 0.0
C7486 C 0.35597 0.37333 0.83399 0.0
C7487 C 0.35273 0.36148 0.83401 0.0
C7488 C 0.34675 0.38219 0.83185 0.0
C7489 C 0.37185 0.389 0.83461 0.0
C7490 C 0.34357 0.39042 0.84042 0.0
C7491 C 0.33468 0.39859 0.83815 0.0
C7492 C 0.32887 0.39862 0.82729 0.0
C7493 C 0.33212 0.39036 0.81876 0.0
C7494 C 0.34093 0.38222 0.82104 0.0
H7495 H 0.38152 0.38986 0.83392 0.0
H7496 H 0.36774 0.39373 0.82718 0.0
H7497 H 0.36897 0.39332 0.84282 0.0
H7498 H 0.34787 0.39045 0.84887 0.0
H7499 H 0.33234 0.40483 0.8449 0.0
H7500 H 0.61141 0.32621 0.80882 0.0
H7501 H 0.62584 0.34147 0.81256 0.0
H7502 H 0.61081 0.34761 0.84664 0.0
H7503 H 0.59619 0.33221 0.84296 0.0
H7504 H 0.61555 0.36847 0.83263 0.0
H7505 H 0.6539 0.33892 0.83546 0.0
H7506 H 0.64499 0.33628 0.82278 0.0
H7507 H 0.63903 0.33378 0.83714 0.0
C7508 C 0.61116 0.33075 0.81714 0.0
C7509 C 0.6027 0.32795 0.82563 0.0
C7510 C 0.61946 0.33945 0.81928 0.0
C7511 C 0.61951 0.34553 0.82994 0.0
C7512 C 0.61096 0.34293 0.83839 0.0
H7513 H 0.66809 0.4048 0.84303 0.0
H7514 H 0.65279 0.3901 0.84681 0.0
C7515 C 0.60264 0.33415 0.83628 0.0
C7516 C 0.62843 0.35473 0.83196 0.0
H7517 H 0.65797 0.35915 0.83133 0.0
C7518 C 0.62484 0.36646 0.83262 0.0
C7519 C 0.64051 0.35204 0.832 0.0
C7520 C 0.64486 0.33956 0.83193 0.0
C7521 C 0.63306 0.37564 0.83248 0.0
C7522 C 0.64512 0.37293 0.83178 0.0
C7523 C 0.64871 0.36118 0.83181 0.0
C7524 C 0.6541 0.38206 0.8297 0.0
C7525 C 0.62881 0.38814 0.83237 0.0
C7526 C 0.6599 0.38233 0.81889 0.0
C7527 C 0.66857 0.39064 0.81672 0.0
C7528 C 0.67169 0.39884 0.82535 0.0
C7529 C 0.66585 0.39861 0.8362 0.0
C7530 C 0.6571 0.39026 0.83836 0.0
H7531 H 0.61912 0.38873 0.8317 0.0
H7532 H 0.6316 0.39257 0.84055 0.0
H7533 H 0.63277 0.39296 0.8249 0.0
H7534 H 0.6577 0.37607 0.8121 0.0
H7535 H 0.67287 0.39058 0.80827 0.0
H7536 H 0.66776 0.40415 0.15672 0.0
H7537 H 0.65107 0.39083 0.15373 0.0
H7538 H 0.65471 0.37833 0.18917 0.0
H7539 H 0.67121 0.3915 0.19223 0.0
H7540 H 0.65046 0.36539 0.15677 0.0
H7541 H 0.6199 0.38843 0.18656 0.0
H7542 H 0.63284 0.39533 0.1806 0.0
H7543 H 0.63397 0.38571 0.19303 0.0
C7544 C 0.66496 0.39857 0.16387 0.0
C7545 C 0.67075 0.39892 0.17473 0.0
C7546 C 0.65546 0.39098 0.16214 0.0
C7547 C 0.65156 0.38375 0.17129 0.0
C7548 C 0.65744 0.384 0.18206 0.0
H7549 H 0.60846 0.32848 0.19214 0.0
H7550 H 0.62187 0.34475 0.18882 0.0
C7551 C 0.66692 0.3915 0.18378 0.0
C7552 C 0.6415 0.37571 0.16974 0.0
H7553 H 0.61536 0.36836 0.18221 0.0
C7554 C 0.64265 0.36614 0.16212 0.0
C7555 C 0.63131 0.37677 0.1767 0.0
C7556 C 0.62935 0.38718 0.1846 0.0
C7557 C 0.63422 0.35716 0.16189 0.0
C7558 C 0.6244 0.35789 0.1694 0.0
C7559 C 0.62294 0.3678 0.17651 0.0
C7560 C 0.61622 0.34794 0.17102 0.0
C7561 C 0.63621 0.34662 0.15418 0.0
C7562 C 0.60856 0.34436 0.1621 0.0
C7563 C 0.60082 0.33501 0.16398 0.0
C7564 C 0.60066 0.32914 0.17481 0.0
C7565 C 0.60836 0.33279 0.18369 0.0
C7566 C 0.61603 0.34211 0.18182 0.0
H7567 H 0.64496 0.34677 0.14993 0.0
H7568 H 0.63539 0.33844 0.15938 0.0
H7569 H 0.62942 0.34639 0.14723 0.0
H7570 H 0.60849 0.34885 0.15374 0.0
H7571 H 0.59497 0.33239 0.15699 0.0
H7572 H 0.59567 0.66813 0.1565 0.0
H7573 H 0.6103 0.65275 0.1528 0.0
H7574 H 0.62406 0.65748 0.18765 0.0
H7575 H 0.60962 0.67274 0.19139 0.0
H7576 H 0.6412 0.65744 0.16884 0.0
H7577 H 0.61098 0.6191 0.16764 0.0
H7578 H 0.60756 0.63161 0.15867 0.0
H7579 H 0.60681 0.63283 0.1743 0.0
C7580 C 0.6018 0.66584 0.16337 0.0
C7581 C 0.60149 0.67164 0.17424 0.0
C7582 C 0.61011 0.65704 0.16126 0.0
C7583 C 0.61819 0.65394 0.16999 0.0
C7584 C 0.61788 0.65974 0.1808 0.0
H7585 H 0.67285 0.61018 0.19164 0.0
H7586 H 0.65786 0.62483 0.18771 0.0
C7587 C 0.60961 0.66846 0.18293 0.0
C7588 C 0.62721 0.64483 0.168 0.0
H7589 H 0.63119 0.6152 0.16696 0.0
C7590 C 0.63902 0.64821 0.16824 0.0
C7591 C 0.62432 0.63282 0.16714 0.0
C7592 C 0.61175 0.62877 0.16697 0.0
C7593 C 0.64802 0.63987 0.16815 0.0
C7594 C 0.64513 0.62783 0.16802 0.0
C7595 C 0.63335 0.62444 0.1671 0.0
C7596 C 0.65413 0.61873 0.17017 0.0
C7597 C 0.66057 0.64399 0.16852 0.0
C7598 C 0.65681 0.61024 0.16169 0.0
C7599 C 0.66544 0.60178 0.16392 0.0
C7600 C 0.6714 0.60166 0.17471 0.0
C7601 C 0.66849 0.61006 0.18322 0.0
C7602 C 0.65995 0.61849 0.18097 0.0
H7603 H 0.66144 0.65306 0.16509 0.0
H7604 H 0.66366 0.64398 0.17773 0.0
H7605 H 0.66635 0.63812 0.16336 0.0
H7606 H 0.65233 0.61024 0.15333 0.0
H7607 H 0.66747 0.59539 0.15721 0.0
H7608 H 0.4038 0.66783 0.15744 0.0
H7609 H 0.38895 0.65262 0.1539 0.0
H7610 H 0.37504 0.65818 0.18856 0.0
H7611 H 0.3897 0.67326 0.19214 0.0
H7612 H 0.38444 0.63155 0.16742 0.0
H7613 H 0.34628 0.66149 0.16676 0.0
H7614 H 0.36114 0.66657 0.16482 0.0
H7615 H 0.35559 0.66359 0.17926 0.0
C7616 C 0.39755 0.6658 0.16428 0.0
C7617 C 0.39787 0.67179 0.17504 0.0
C7618 C 0.3891 0.65713 0.16225 0.0
C7619 C 0.38079 0.65443 0.17091 0.0
C7620 C 0.38123 0.66029 0.18169 0.0
H7621 H 0.32676 0.60876 0.19125 0.0
H7622 H 0.34196 0.62345 0.18817 0.0
C7623 C 0.38966 0.66888 0.18373 0.0
C7624 C 0.37171 0.64537 0.16894 0.0
H7625 H 0.34215 0.64116 0.17009 0.0
C7626 C 0.37518 0.63363 0.16776 0.0
C7627 C 0.35965 0.64815 0.16934 0.0
C7628 C 0.35542 0.66065 0.17 0.0
C7629 C 0.36688 0.62453 0.16773 0.0
C7630 C 0.35485 0.6273 0.16878 0.0
C7631 C 0.35138 0.63907 0.16936 0.0
C7632 C 0.34579 0.61815 0.1704 0.0
C7633 C 0.37103 0.612 0.16724 0.0
C7634 C 0.34288 0.6103 0.16139 0.0
C7635 C 0.33414 0.60186 0.16312 0.0
C7636 C 0.32819 0.60117 0.17389 0.0
C7637 C 0.33117 0.60905 0.18286 0.0
C7638 C 0.33985 0.61747 0.18112 0.0
H7639 H 0.3807 0.6113 0.16806 0.0
H7640 H 0.3669 0.60679 0.17433 0.0
H7641 H 0.36839 0.60807 0.15875 0.0
H7642 H 0.34728 0.61079 0.153 0.0
H7643 H 0.332 0.59593 0.15603 0.0
H7644 H 0.39113 0.32737 0.19217 0.0
H7645 H 0.37774 0.34369 0.18902 0.0
H7646 H 0.39051 0.34757 0.1537 0.0
H7647 H 0.40402 0.33108 0.15678 0.0
H7648 H 0.38446 0.36732 0.18202 0.0
H7649 H 0.35383 0.34563 0.15078 0.0
H7650 H 0.36346 0.33731 0.16018 0.0
H7651 H 0.3693 0.34497 0.14778 0.0
C7652 C 0.39109 0.33164 0.18371 0.0
C7653 C 0.39862 0.32793 0.17471 0.0
C7654 C 0.38344 0.34099 0.18193 0.0
C7655 C 0.38309 0.34678 0.17111 0.0
C7656 C 0.39057 0.34311 0.16207 0.0
H7657 H 0.3318 0.4031 0.15687 0.0
H7658 H 0.3483 0.38956 0.15387 0.0
C7659 C 0.3983 0.33374 0.16386 0.0
C7660 C 0.37498 0.35677 0.1696 0.0
H7661 H 0.34871 0.36441 0.15749 0.0
C7662 C 0.37673 0.36677 0.17652 0.0
C7663 C 0.36496 0.35605 0.16235 0.0
C7664 C 0.36266 0.34542 0.15486 0.0
C7665 C 0.36849 0.37586 0.17676 0.0
C7666 C 0.35812 0.37483 0.17007 0.0
C7667 C 0.35666 0.36514 0.16264 0.0
C7668 C 0.34823 0.38306 0.17166 0.0
C7669 C 0.3708 0.38638 0.18442 0.0
C7670 C 0.34265 0.38372 0.18258 0.0
C7671 C 0.33328 0.39135 0.1843 0.0
C7672 C 0.32925 0.39848 0.17511 0.0
C7673 C 0.33476 0.39774 0.16412 0.0
C7674 C 0.34415 0.39002 0.16239 0.0
H7675 H 0.38032 0.38755 0.18607 0.0
H7676 H 0.36729 0.3945 0.18038 0.0
H7677 H 0.36642 0.38511 0.193 0.0
H7678 H 0.34551 0.37825 0.18979 0.0
H7679 H 0.3292 0.39166 0.19285 0.0
H7680 H 0.80798 0.67146 0.60868 0.0
H7681 H 0.81136 0.65517 0.62206 0.0
H7682 H 0.84679 0.65192 0.60943 0.0
H7683 H 0.84349 0.66839 0.59594 0.0
H7684 H 0.81862 0.63175 0.61551 0.0
H7685 H 0.84974 0.6538 0.646 0.0
H7686 H 0.84031 0.662 0.6363 0.0
H7687 H 0.85277 0.65439 0.63054 0.0
C7688 C 0.81652 0.66733 0.60875 0.0
C7689 C 0.82548 0.67122 0.60126 0.0
C7690 C 0.81842 0.65801 0.61639 0.0
C7691 C 0.82934 0.6524 0.61679 0.0
C7692 C 0.83835 0.65623 0.60934 0.0
H7693 H 0.8438 0.59609 0.66815 0.0
H7694 H 0.84683 0.60956 0.65159 0.0
C7695 C 0.83643 0.66559 0.60163 0.0
C7696 C 0.83099 0.64243 0.62491 0.0
H7697 H 0.84322 0.63497 0.65118 0.0
C7698 C 0.82414 0.63237 0.62322 0.0
C7699 C 0.83826 0.64324 0.63491 0.0
C7700 C 0.84568 0.65393 0.63716 0.0
C7701 C 0.82398 0.62331 0.6315 0.0
C7702 C 0.83069 0.62444 0.64184 0.0
C7703 C 0.83806 0.63417 0.64325 0.0
C7704 C 0.82911 0.61627 0.6518 0.0
C7705 C 0.81636 0.61275 0.62928 0.0
C7706 C 0.81824 0.61576 0.65747 0.0
C7707 C 0.81651 0.60818 0.66688 0.0
C7708 C 0.82564 0.60094 0.67084 0.0
C7709 C 0.8366 0.60153 0.66524 0.0
C7710 C 0.83834 0.60921 0.65581 0.0
H7711 H 0.81461 0.61155 0.61978 0.0
H7712 H 0.82048 0.60466 0.63276 0.0
H7713 H 0.80782 0.61397 0.63375 0.0
H7714 H 0.81107 0.6213 0.65464 0.0
H7715 H 0.80798 0.60798 0.67103 0.0
H7716 H 0.33177 0.84291 0.59619 0.0
H7717 H 0.34831 0.84599 0.60966 0.0
H7718 H 0.34472 0.81054 0.62215 0.0
H7719 H 0.32835 0.80739 0.60883 0.0
H7720 H 0.3487 0.84302 0.63507 0.0
H7721 H 0.3796 0.81327 0.61242 0.0
H7722 H 0.36669 0.81913 0.60539 0.0
H7723 H 0.36554 0.80675 0.61507 0.0
C7724 C 0.33455 0.83578 0.6018 0.0
C7725 C 0.32881 0.82489 0.60141 0.0
C7726 C 0.34397 0.83756 0.60948 0.0
C7727 C 0.34783 0.82843 0.61675 0.0
C7728 C 0.342 0.81763 0.61646 0.0
H7729 H 0.3911 0.80822 0.67228 0.0
H7730 H 0.37761 0.8113 0.65603 0.0
C7731 C 0.33261 0.81586 0.60886 0.0
C7732 C 0.35781 0.83004 0.62489 0.0
H7733 H 0.384 0.81781 0.63247 0.0
C7734 C 0.35655 0.83771 0.63441 0.0
C7735 C 0.36805 0.82314 0.62393 0.0
C7736 C 0.37013 0.81519 0.61359 0.0
C7737 C 0.36492 0.83805 0.64344 0.0
C7738 C 0.37481 0.83062 0.64281 0.0
C7739 C 0.37637 0.82345 0.63296 0.0
C7740 C 0.38298 0.82917 0.65278 0.0
C7741 C 0.36282 0.84582 0.65391 0.0
C7742 C 0.39052 0.83822 0.65634 0.0
C7743 C 0.3983 0.83648 0.66568 0.0
C7744 C 0.39865 0.82566 0.67156 0.0
C7745 C 0.39106 0.81666 0.66795 0.0
C7746 C 0.38334 0.8184 0.65865 0.0
H7747 H 0.354 0.84994 0.65373 0.0
H7748 H 0.36371 0.84071 0.66214 0.0
H7749 H 0.36949 0.85288 0.65408 0.0
H7750 H 0.39046 0.84656 0.65182 0.0
H7751 H 0.40407 0.84356 0.66825 0.0
H7752 H 0.19244 0.32794 0.60857 0.0
H7753 H 0.18948 0.34413 0.62216 0.0
H7754 H 0.15439 0.34894 0.60905 0.0
H7755 H 0.15726 0.33256 0.59537 0.0
H7756 H 0.18347 0.36777 0.61605 0.0
H7757 H 0.15052 0.3468 0.64535 0.0
H7758 H 0.15966 0.33835 0.63559 0.0
H7759 H 0.1477 0.34674 0.62984 0.0
C7760 C 0.18406 0.33239 0.60858 0.0
C7761 C 0.17507 0.32896 0.6009 0.0
C7762 C 0.18239 0.34166 0.61634 0.0
C7763 C 0.1717 0.34767 0.61667 0.0
C7764 C 0.16266 0.34431 0.60903 0.0
H7765 H 0.15799 0.40413 0.66801 0.0
H7766 H 0.15502 0.39077 0.65136 0.0
C7767 C 0.16433 0.33499 0.6012 0.0
C7768 C 0.17031 0.35759 0.62492 0.0
H7769 H 0.15759 0.36534 0.65087 0.0
C7770 C 0.17769 0.36732 0.62358 0.0
C7771 C 0.1627 0.35701 0.63468 0.0
C7772 C 0.15471 0.34666 0.63657 0.0
C7773 C 0.17801 0.37627 0.63198 0.0
C7774 C 0.17091 0.37536 0.64208 0.0
C7775 C 0.16305 0.36597 0.64312 0.0
C7776 C 0.17246 0.38342 0.65213 0.0
C7777 C 0.18618 0.38649 0.63012 0.0
C7778 C 0.18315 0.38352 0.65817 0.0
C7779 C 0.18485 0.39105 0.66762 0.0
C7780 C 0.17587 0.39863 0.67128 0.0
C7781 C 0.16508 0.39842 0.66534 0.0
C7782 C 0.16337 0.39081 0.65586 0.0
H7783 H 0.18831 0.38769 0.6207 0.0
H7784 H 0.18232 0.39473 0.63354 0.0
H7785 H 0.1945 0.38483 0.63487 0.0
H7786 H 0.1902 0.37773 0.65557 0.0
H7787 H 0.19324 0.39095 0.67204 0.0
H7788 H 0.66808 0.15604 0.59606 0.0
H7789 H 0.65144 0.15303 0.60943 0.0
H7790 H 0.65524 0.18839 0.6221 0.0
H7791 H 0.67171 0.19147 0.60889 0.0
H7792 H 0.65091 0.15603 0.63497 0.0
H7793 H 0.62039 0.18588 0.61192 0.0
H7794 H 0.63329 0.17986 0.60501 0.0
H7795 H 0.6345 0.19228 0.61463 0.0
C7796 C 0.66533 0.16316 0.60169 0.0
C7797 C 0.67116 0.17401 0.60138 0.0
C7798 C 0.65585 0.16142 0.60931 0.0
C7799 C 0.65202 0.17055 0.6166 0.0
C7800 C 0.65794 0.1813 0.61639 0.0
H7801 H 0.60878 0.19141 0.67177 0.0
H7802 H 0.62227 0.18807 0.65558 0.0
C7803 C 0.66739 0.18303 0.60886 0.0
C7804 C 0.64196 0.16901 0.62464 0.0
H7805 H 0.61581 0.18148 0.63196 0.0
C7806 C 0.6431 0.16138 0.63421 0.0
C7807 C 0.63178 0.17597 0.62357 0.0
C7808 C 0.62983 0.18388 0.61317 0.0
C7809 C 0.63466 0.16116 0.64319 0.0
C7810 C 0.62483 0.16866 0.64244 0.0
C7811 C 0.62339 0.17578 0.63253 0.0
C7812 C 0.61664 0.17027 0.65237 0.0
C7813 C 0.63663 0.15344 0.65373 0.0
C7814 C 0.60896 0.16135 0.65593 0.0
C7815 C 0.60117 0.16325 0.66524 0.0
C7816 C 0.60098 0.17409 0.67108 0.0
C7817 C 0.60871 0.18296 0.66747 0.0
C7818 C 0.61642 0.18108 0.6582 0.0
H7819 H 0.64538 0.14919 0.65359 0.0
H7820 H 0.63581 0.15864 0.6619 0.0
H7821 H 0.62985 0.14649 0.65395 0.0
H7822 H 0.60891 0.153 0.65144 0.0
H7823 H 0.5953 0.15626 0.66782 0.0
H7824 H 0.84323 0.33245 0.40453 0.0
H7825 H 0.84724 0.3478 0.38995 0.0
H7826 H 0.81271 0.34301 0.37544 0.0
H7827 H 0.80867 0.32778 0.38983 0.0
H7828 H 0.83193 0.34297 0.35872 0.0
H7829 H 0.83237 0.38146 0.38878 0.0
H7830 H 0.84125 0.36895 0.39246 0.0
H7831 H 0.82561 0.36776 0.39286 0.0
C7832 C 0.8365 0.33472 0.39825 0.0
C7833 C 0.82563 0.32891 0.39833 0.0
C7834 C 0.83878 0.3435 0.38997 0.0
C7835 C 0.83023 0.34657 0.38168 0.0
C7836 C 0.81942 0.34077 0.38177 0.0
H7837 H 0.80902 0.38994 0.3268 0.0
H7838 H 0.81299 0.37539 0.34188 0.0
C7839 C 0.81712 0.33207 0.39002 0.0
C7840 C 0.83241 0.35565 0.37267 0.0
H7841 H 0.83335 0.38527 0.36857 0.0
C7842 C 0.83244 0.35221 0.36087 0.0
C7843 C 0.83316 0.36768 0.37552 0.0
C7844 C 0.83306 0.37178 0.38807 0.0
C7845 C 0.83265 0.36051 0.35183 0.0
C7846 C 0.83264 0.37257 0.35467 0.0
C7847 C 0.83333 0.37601 0.36645 0.0
C7848 C 0.8305 0.38159 0.3456 0.0
C7849 C 0.83251 0.35633 0.3393 0.0
C7850 C 0.83896 0.39009 0.34287 0.0
C7851 C 0.83671 0.39848 0.33418 0.0
C7852 C 0.82593 0.39853 0.32822 0.0
C7853 C 0.81744 0.39011 0.33116 0.0
C7854 C 0.81971 0.38175 0.33975 0.0
H7855 H 0.83598 0.34727 0.33853 0.0
H7856 H 0.82335 0.35631 0.33605 0.0
H7857 H 0.83775 0.36221 0.33359 0.0
H7858 H 0.84731 0.39015 0.34737 0.0
H7859 H 0.84339 0.40489 0.33212 0.0
H7860 H 0.66835 0.84358 0.40369 0.0
H7861 H 0.65187 0.84662 0.39013 0.0
H7862 H 0.65514 0.81094 0.37821 0.0
H7863 H 0.67145 0.80784 0.39162 0.0
H7864 H 0.65157 0.84311 0.36467 0.0
H7865 H 0.62023 0.81431 0.38793 0.0
H7866 H 0.63317 0.82021 0.39487 0.0
H7867 H 0.63424 0.80759 0.38551 0.0
C7868 C 0.66552 0.8364 0.39819 0.0
C7869 C 0.67115 0.82546 0.39876 0.0
C7870 C 0.65613 0.83815 0.39045 0.0
C7871 C 0.6522 0.82894 0.38332 0.0
C7872 C 0.65791 0.81809 0.3838 0.0
H7873 H 0.60896 0.80814 0.328 0.0
H7874 H 0.62243 0.81138 0.34425 0.0
C7875 C 0.66728 0.81636 0.39144 0.0
C7876 C 0.64226 0.83052 0.37514 0.0
H7877 H 0.61593 0.81846 0.36778 0.0
C7878 C 0.64365 0.83794 0.36544 0.0
C7879 C 0.63193 0.82378 0.37623 0.0
C7880 C 0.62972 0.8161 0.38676 0.0
C7881 C 0.6353 0.83818 0.35638 0.0
C7882 C 0.62531 0.8309 0.35717 0.0
C7883 C 0.62363 0.82398 0.36718 0.0
C7884 C 0.61715 0.82933 0.34721 0.0
C7885 C 0.63753 0.84566 0.34573 0.0
C7886 C 0.60968 0.83837 0.34351 0.0
C7887 C 0.60191 0.83653 0.33418 0.0
C7888 C 0.60152 0.82563 0.32845 0.0
C7889 C 0.60904 0.81664 0.33221 0.0
C7890 C 0.61674 0.81847 0.34151 0.0
H7891 H 0.64637 0.84972 0.34587 0.0
H7892 H 0.63666 0.84034 0.33763 0.0
H7893 H 0.63091 0.85276 0.34533 0.0
H7894 H 0.60978 0.84678 0.3479 0.0
H7895 H 0.5962 0.84361 0.33148 0.0
H7896 H 0.19229 0.67268 0.39086 0.0
H7897 H 0.18923 0.6562 0.37763 0.0
H7898 H 0.15429 0.65158 0.3912 0.0
H7899 H 0.15728 0.66823 0.40453 0.0
H7900 H 0.18316 0.63258 0.38455 0.0
H7901 H 0.1503 0.65296 0.35473 0.0
H7902 H 0.15961 0.66165 0.36411 0.0
H7903 H 0.14764 0.65355 0.37026 0.0
C7904 C 0.18392 0.66821 0.39103 0.0
C7905 C 0.17501 0.67176 0.39874 0.0
C7906 C 0.1822 0.65878 0.38346 0.0
C7907 C 0.17152 0.65273 0.38339 0.0
C7908 C 0.16256 0.65624 0.39104 0.0
H7909 H 0.15798 0.59544 0.33288 0.0
H7910 H 0.15488 0.60889 0.34943 0.0
C7911 C 0.16429 0.6657 0.39867 0.0
C7912 C 0.17009 0.64262 0.37539 0.0
H7913 H 0.15745 0.63435 0.34956 0.0
C7914 C 0.17741 0.63288 0.37699 0.0
C7915 C 0.16251 0.64301 0.3656 0.0
C7916 C 0.15458 0.65335 0.36346 0.0
C7917 C 0.17772 0.62375 0.3688 0.0
C7918 C 0.17068 0.62446 0.35864 0.0
C7919 C 0.16286 0.63386 0.35735 0.0
C7920 C 0.17232 0.61626 0.34873 0.0
C7921 C 0.18584 0.61354 0.37091 0.0
C7922 C 0.18306 0.61612 0.34278 0.0
C7923 C 0.18483 0.60854 0.33338 0.0
C7924 C 0.17588 0.60094 0.32968 0.0
C7925 C 0.16506 0.60115 0.33557 0.0
C7926 C 0.16327 0.60882 0.345 0.0
H7927 H 0.18787 0.61251 0.38038 0.0
H7928 H 0.18199 0.60525 0.3676 0.0
H7929 H 0.19421 0.6151 0.36622 0.0
H7930 H 0.19008 0.62194 0.34539 0.0
H7931 H 0.19325 0.60864 0.32901 0.0
H7932 H 0.32707 0.19162 0.3897 0.0
H7933 H 0.34203 0.1876 0.37504 0.0
H7934 H 0.34728 0.15314 0.38955 0.0
H7935 H 0.33217 0.15711 0.4044 0.0
H7936 H 0.36853 0.16667 0.38462 0.0
H7937 H 0.33823 0.16501 0.34678 0.0
H7938 H 0.3361 0.17765 0.35589 0.0
H7939 H 0.33333 0.16328 0.36173 0.0
C7940 C 0.33136 0.18316 0.3898 0.0
C7941 C 0.32838 0.17465 0.39817 0.0
C7942 C 0.33988 0.18087 0.38137 0.0
C7943 C 0.34561 0.17002 0.3811 0.0
C7944 C 0.34287 0.16154 0.38957 0.0
H7945 H 0.40396 0.1559 0.33172 0.0
H7946 H 0.3893 0.15232 0.34709 0.0
C7947 C 0.33425 0.16382 0.39803 0.0
C7948 C 0.35458 0.16781 0.372 0.0
H7949 H 0.35848 0.16856 0.34238 0.0
C7950 C 0.36636 0.16681 0.37537 0.0
C7951 C 0.35168 0.16795 0.35996 0.0
C7952 C 0.33913 0.16841 0.35585 0.0
C7953 C 0.37538 0.16678 0.36699 0.0
C7954 C 0.37249 0.16764 0.35498 0.0
C7955 C 0.36068 0.16796 0.35161 0.0
C7956 C 0.3815 0.16955 0.34585 0.0
C7957 C 0.38796 0.16654 0.37102 0.0
C7958 C 0.38188 0.18035 0.34003 0.0
C7959 C 0.39017 0.1824 0.33131 0.0
C7960 C 0.39825 0.17366 0.32817 0.0
C7961 C 0.39787 0.16281 0.33399 0.0
C7962 C 0.38954 0.16077 0.34278 0.0
H7963 H 0.38874 0.16724 0.38069 0.0
H7964 H 0.39208 0.1582 0.36822 0.0
H7965 H 0.39294 0.17382 0.36694 0.0
H7966 H 0.37574 0.18723 0.34227 0.0
H7967 H 0.39021 0.19086 0.32702 0.0
H7968 H 0.66754 0.84344 0.59512 0.0
H7969 H 0.6523 0.84743 0.60983 0.0
H7970 H 0.65819 0.81342 0.62513 0.0
H7971 H 0.67327 0.80937 0.61059 0.0
H7972 H 0.63128 0.83337 0.61492 0.0
H7973 H 0.66128 0.83687 0.65288 0.0
H7974 H 0.66621 0.83845 0.63793 0.0
H7975 H 0.66388 0.82412 0.64404 0.0
C7976 C 0.66558 0.83684 0.60164 0.0
C7977 C 0.67165 0.82612 0.60174 0.0
C7978 C 0.65689 0.83913 0.61002 0.0
C7979 C 0.65427 0.83079 0.61866 0.0
C7980 C 0.66023 0.82006 0.61866 0.0
H7981 H 0.61005 0.80923 0.67249 0.0
H7982 H 0.62443 0.81324 0.65725 0.0
C7983 C 0.66882 0.81774 0.6103 0.0
C7984 C 0.64518 0.83298 0.62764 0.0
H7985 H 0.64112 0.83272 0.65724 0.0
C7986 C 0.6334 0.83352 0.62418 0.0
C7987 C 0.64801 0.83321 0.63969 0.0
C7988 C 0.66054 0.83325 0.64388 0.0
C7989 C 0.62433 0.83343 0.63251 0.0
C7990 C 0.62718 0.8329 0.64455 0.0
C7991 C 0.63897 0.83307 0.64799 0.0
C7992 C 0.61818 0.83075 0.65364 0.0
C7993 C 0.61178 0.83315 0.62841 0.0
C7994 C 0.60988 0.8393 0.65668 0.0
C7995 C 0.6016 0.83704 0.66547 0.0
C7996 C 0.60153 0.82619 0.67131 0.0
C7997 C 0.60985 0.81768 0.66818 0.0
C7998 C 0.6181 0.81995 0.65947 0.0
H7999 H 0.61107 0.83243 0.61873 0.0
H8000 H 0.60709 0.82565 0.63246 0.0
H8001 H 0.60728 0.8413 0.63122 0.0
H8002 H 0.60989 0.84774 0.65234 0.0
H8003 H 0.59532 0.84378 0.66772 0.0
H8004 H 0.61015 0.19083 0.32737 0.0
H8005 H 0.62465 0.18683 0.34249 0.0
H8006 H 0.61007 0.15238 0.34764 0.0
H8007 H 0.59539 0.15632 0.33234 0.0
H8008 H 0.6148 0.16628 0.36899 0.0
H8009 H 0.65288 0.16392 0.33902 0.0
H8010 H 0.64377 0.17651 0.33657 0.0
H8011 H 0.63796 0.16208 0.33405 0.0
C8012 C 0.61 0.18237 0.33166 0.0
C8013 C 0.60166 0.17386 0.3286 0.0
C8014 C 0.61834 0.18009 0.34028 0.0
C8015 C 0.61853 0.16925 0.34604 0.0
C8016 C 0.6101 0.16077 0.34321 0.0
H8017 H 0.66779 0.15657 0.40493 0.0
H8018 H 0.65247 0.15245 0.39033 0.0
C8019 C 0.60174 0.16303 0.33448 0.0
C8020 C 0.62754 0.16709 0.35512 0.0
H8021 H 0.65712 0.16789 0.35924 0.0
C8022 C 0.62406 0.16634 0.36689 0.0
C8023 C 0.63959 0.16712 0.35231 0.0
C8024 C 0.6438 0.16734 0.33979 0.0
C8025 C 0.63238 0.16649 0.37598 0.0
C8026 C 0.64441 0.1673 0.37316 0.0
C8027 C 0.64788 0.16732 0.36137 0.0
C8028 C 0.65345 0.16954 0.38219 0.0
C8029 C 0.62826 0.16654 0.38853 0.0
C8030 C 0.65908 0.18044 0.38236 0.0
C8031 C 0.66775 0.1828 0.39062 0.0
C8032 C 0.67105 0.17427 0.39886 0.0
C8033 C 0.66541 0.16332 0.3987 0.0
C8034 C 0.65665 0.16097 0.39041 0.0
H8035 H 0.61857 0.16705 0.38922 0.0
H8036 H 0.63123 0.1584 0.39293 0.0
H8037 H 0.63215 0.17406 0.3933 0.0
H8038 H 0.65674 0.18716 0.37609 0.0
H8039 H 0.67191 0.19132 0.3905 0.0
H8040 H 0.80794 0.60908 0.32864 0.0
H8041 H 0.81121 0.62257 0.34486 0.0
H8042 H 0.84649 0.60966 0.34871 0.0
H8043 H 0.84329 0.59606 0.33232 0.0
H8044 H 0.8181 0.61609 0.36843 0.0
H8045 H 0.84976 0.64621 0.34663 0.0
H8046 H 0.84035 0.63654 0.33837 0.0
H8047 H 0.85267 0.63071 0.34616 0.0
C8048 C 0.81642 0.60911 0.33289 0.0
C8049 C 0.82537 0.60151 0.32919 0.0
C8050 C 0.81827 0.61682 0.34217 0.0
C8051 C 0.8291 0.61716 0.34792 0.0
C8052 C 0.8381 0.60961 0.34428 0.0
H8053 H 0.84347 0.66849 0.40427 0.0
H8054 H 0.84646 0.65194 0.39078 0.0
C8055 C 0.83625 0.60183 0.33496 0.0
C8056 C 0.83068 0.62534 0.35787 0.0
H8057 H 0.84308 0.65151 0.36538 0.0
C8058 C 0.8237 0.62375 0.36785 0.0
C8059 C 0.83806 0.63526 0.3571 0.0
C8060 C 0.84563 0.6374 0.34649 0.0
C8061 C 0.82351 0.63206 0.37687 0.0
C8062 C 0.83034 0.64234 0.37579 0.0
C8063 C 0.83784 0.64363 0.36614 0.0
C8064 C 0.8288 0.65232 0.38393 0.0
C8065 C 0.81576 0.62994 0.38736 0.0
C8066 C 0.81797 0.65809 0.38437 0.0
C8067 C 0.81627 0.66749 0.39197 0.0
C8068 C 0.82537 0.67135 0.39929 0.0
C8069 C 0.83629 0.66566 0.39876 0.0
C8070 C 0.83801 0.65624 0.39107 0.0
H8071 H 0.81391 0.62047 0.38856 0.0
H8072 H 0.81983 0.63341 0.39548 0.0
H8073 H 0.80727 0.6345 0.38603 0.0
H8074 H 0.81082 0.65533 0.37877 0.0
H8075 H 0.80777 0.67171 0.39211 0.0
H8076 H 0.40444 0.84355 0.33185 0.0
H8077 H 0.39103 0.84647 0.34847 0.0
H8078 H 0.37909 0.81081 0.34508 0.0
H8079 H 0.39236 0.80782 0.32864 0.0
H8080 H 0.36572 0.84314 0.34906 0.0
H8081 H 0.38896 0.81377 0.37987 0.0
H8082 H 0.39582 0.81967 0.36689 0.0
H8083 H 0.38629 0.80717 0.36586 0.0
C8084 C 0.39896 0.83635 0.33469 0.0
C8085 C 0.3995 0.82544 0.32899 0.0
C8086 C 0.39132 0.83803 0.34416 0.0
C8087 C 0.38422 0.8288 0.3481 0.0
C8088 C 0.38465 0.81798 0.34231 0.0
H8089 H 0.32915 0.80805 0.39176 0.0
H8090 H 0.34532 0.81124 0.37819 0.0
C8091 C 0.39221 0.81631 0.33287 0.0
C8092 C 0.37613 0.83032 0.35813 0.0
H8093 H 0.36887 0.81804 0.38439 0.0
C8094 C 0.3665 0.83786 0.35691 0.0
C8095 C 0.37724 0.82345 0.36837 0.0
C8096 C 0.3877 0.81564 0.37041 0.0
C8097 C 0.35752 0.8381 0.36534 0.0
C8098 C 0.35831 0.8307 0.37524 0.0
C8099 C 0.36826 0.82366 0.37675 0.0
C8100 C 0.34842 0.82916 0.38349 0.0
C8101 C 0.34693 0.84573 0.36329 0.0
C8102 C 0.34482 0.8382 0.39102 0.0
C8103 C 0.33552 0.83639 0.39884 0.0
C8104 C 0.32973 0.82553 0.39923 0.0
C8105 C 0.33341 0.81653 0.39167 0.0
C8106 C 0.34266 0.81833 0.38392 0.0
H8107 H 0.347 0.84982 0.35446 0.0
H8108 H 0.33878 0.84052 0.36427 0.0
H8109 H 0.34673 0.85282 0.36994 0.0
H8110 H 0.34925 0.84658 0.39091 0.0
H8111 H 0.33289 0.84347 0.40458 0.0
H8112 H 0.1915 0.39118 0.32799 0.0
H8113 H 0.18818 0.37777 0.34425 0.0
H8114 H 0.15327 0.39147 0.34865 0.0
H8115 H 0.15651 0.405 0.33219 0.0
H8116 H 0.18188 0.38442 0.36788 0.0
H8117 H 0.14908 0.35504 0.34677 0.0
H8118 H 0.15853 0.36449 0.33829 0.0
H8119 H 0.14653 0.3706 0.34636 0.0
C8120 C 0.18308 0.39134 0.33236 0.0
C8121 C 0.17426 0.39915 0.3288 0.0
C8122 C 0.18121 0.38368 0.34167 0.0
C8123 C 0.17046 0.38358 0.3476 0.0
C8124 C 0.16158 0.39133 0.34409 0.0
H8125 H 0.15638 0.33229 0.4041 0.0
H8126 H 0.15333 0.34893 0.39073 0.0
C8127 C 0.16346 0.39907 0.33473 0.0
C8128 C 0.16888 0.37546 0.35758 0.0
H8129 H 0.1561 0.34953 0.36533 0.0
C8130 C 0.1761 0.37689 0.36741 0.0
C8131 C 0.16127 0.3657 0.35697 0.0
C8132 C 0.15342 0.36375 0.34654 0.0
C8133 C 0.17632 0.36855 0.37642 0.0
C8134 C 0.16927 0.35841 0.37547 0.0
C8135 C 0.16152 0.3573 0.36599 0.0
C8136 C 0.17084 0.34836 0.38352 0.0
C8137 C 0.18435 0.37049 0.38673 0.0
C8138 C 0.18159 0.34245 0.38371 0.0
C8139 C 0.18334 0.33301 0.39124 0.0
C8140 C 0.17435 0.32923 0.39875 0.0
C8141 C 0.16349 0.33504 0.39845 0.0
C8142 C 0.16172 0.34452 0.39083 0.0
H8143 H 0.18635 0.37994 0.38795 0.0
H8144 H 0.18044 0.36702 0.39493 0.0
H8145 H 0.19274 0.36584 0.38516 0.0
H8146 H 0.18866 0.34514 0.37797 0.0
H8147 H 0.19179 0.32869 0.3912 0.0
H8148 H 0.39086 0.19238 0.67201 0.0
H8149 H 0.37748 0.18914 0.65571 0.0
H8150 H 0.3914 0.15436 0.65096 0.0
H8151 H 0.40488 0.15751 0.66747 0.0
H8152 H 0.38388 0.18336 0.63214 0.0
H8153 H 0.35521 0.14963 0.65274 0.0
H8154 H 0.3647 0.15894 0.66131 0.0
H8155 H 0.37078 0.14717 0.65289 0.0
C8156 C 0.39108 0.18401 0.66755 0.0
C8157 C 0.39892 0.17518 0.67104 0.0
C8158 C 0.38343 0.18218 0.65822 0.0
C8159 C 0.38339 0.17149 0.65219 0.0
C8160 C 0.3912 0.16262 0.65561 0.0
H8161 H 0.33252 0.15708 0.59544 0.0
H8162 H 0.34918 0.15432 0.60884 0.0
C8163 C 0.39891 0.16445 0.66499 0.0
C8164 C 0.37525 0.16995 0.6422 0.0
H8165 H 0.34961 0.15672 0.63424 0.0
C8166 C 0.37648 0.17741 0.63252 0.0
C8167 C 0.36566 0.16212 0.64268 0.0
C8168 C 0.36389 0.15402 0.65296 0.0
C8169 C 0.36812 0.17761 0.62353 0.0
C8170 C 0.35816 0.1703 0.62435 0.0
C8171 C 0.35725 0.16235 0.63368 0.0
C8172 C 0.3481 0.17171 0.61628 0.0
C8173 C 0.36985 0.18589 0.61338 0.0
C8174 C 0.34189 0.1823 0.6162 0.0
C8175 C 0.33244 0.18389 0.60864 0.0
C8176 C 0.32895 0.17489 0.601 0.0
C8177 C 0.33505 0.16419 0.6012 0.0
C8178 C 0.34454 0.16259 0.60883 0.0
H8179 H 0.37924 0.18818 0.61221 0.0
H8180 H 0.36651 0.18204 0.6051 0.0
H8181 H 0.36498 0.19412 0.6151 0.0
H8182 H 0.34436 0.18937 0.62203 0.0
H8183 H 0.32789 0.19221 0.60877 0.0
H8184 H 0.84368 0.40439 0.66704 0.0
H8185 H 0.84668 0.39085 0.65053 0.0
H8186 H 0.81098 0.379 0.6538 0.0
H8187 H 0.80791 0.3924 0.67011 0.0
H8188 H 0.84341 0.36561 0.65025 0.0
H8189 H 0.81412 0.38822 0.61891 0.0
H8190 H 0.81989 0.39531 0.63183 0.0
H8191 H 0.8074 0.38577 0.63291 0.0
C8192 C 0.83648 0.39892 0.66418 0.0
C8193 C 0.82554 0.3995 0.66983 0.0
C8194 C 0.8382 0.3912 0.65478 0.0
C8195 C 0.82899 0.38408 0.65084 0.0
C8196 C 0.81813 0.38459 0.65656 0.0
H8197 H 0.80831 0.32793 0.60874 0.0
H8198 H 0.8116 0.34437 0.62195 0.0
C8199 C 0.81642 0.39222 0.66593 0.0
C8200 C 0.83057 0.37582 0.64096 0.0
H8201 H 0.81829 0.36798 0.61487 0.0
C8202 C 0.83813 0.36623 0.64238 0.0
C8203 C 0.82371 0.3767 0.63069 0.0
C8204 C 0.8159 0.38712 0.62842 0.0
C8205 C 0.83838 0.35707 0.63415 0.0
C8206 C 0.83096 0.35763 0.62425 0.0
C8207 C 0.82392 0.36755 0.62252 0.0
C8208 C 0.82938 0.34754 0.61626 0.0
C8209 C 0.84602 0.34653 0.63641 0.0
C8210 C 0.83832 0.34387 0.60865 0.0
C8211 C 0.83645 0.33443 0.60102 0.0
C8212 C 0.82563 0.32855 0.60092 0.0
C8213 C 0.81675 0.33226 0.60859 0.0
C8214 C 0.8186 0.34167 0.61615 0.0
H8215 H 0.85026 0.34688 0.64516 0.0
H8216 H 0.84076 0.33837 0.6358 0.0
H8217 H 0.85297 0.34608 0.62964 0.0
H8218 H 0.84666 0.34838 0.60852 0.0
H8219 H 0.84344 0.33177 0.59518 0.0
H8220 H 0.15643 0.59487 0.66762 0.0
H8221 H 0.15244 0.60943 0.65224 0.0
H8222 H 0.18696 0.62395 0.65704 0.0
H8223 H 0.191 0.60958 0.67228 0.0
H8224 H 0.16762 0.64066 0.65706 0.0
H8225 H 0.16754 0.61058 0.61858 0.0
H8226 H 0.15868 0.60685 0.63109 0.0
H8227 H 0.17433 0.60656 0.63229 0.0
C8228 C 0.16316 0.60115 0.66534 0.0
C8229 C 0.17403 0.60108 0.67116 0.0
C8230 C 0.16089 0.60942 0.65655 0.0
C8231 C 0.16944 0.61771 0.65348 0.0
C8232 C 0.18025 0.61762 0.65928 0.0
H8233 H 0.19087 0.67262 0.6102 0.0
H8234 H 0.18685 0.65754 0.62476 0.0
C8235 C 0.18254 0.60939 0.66799 0.0
C8236 C 0.16728 0.62671 0.64439 0.0
H8237 H 0.16666 0.63079 0.61475 0.0
C8238 C 0.1672 0.6385 0.64782 0.0
C8239 C 0.16667 0.62385 0.63235 0.0
C8240 C 0.16685 0.61129 0.62826 0.0
C8241 C 0.16706 0.64754 0.63951 0.0
C8242 C 0.16721 0.6447 0.62746 0.0
C8243 C 0.16658 0.63291 0.62401 0.0
C8244 C 0.16939 0.65377 0.61845 0.0
C8245 C 0.16714 0.66007 0.64368 0.0
C8246 C 0.16098 0.65646 0.6099 0.0
C8247 C 0.16325 0.66515 0.60152 0.0
C8248 C 0.17402 0.67114 0.60152 0.0
C8249 C 0.18247 0.66823 0.60999 0.0
C8250 C 0.18017 0.65964 0.61835 0.0
H8251 H 0.16361 0.66084 0.65271 0.0
H8252 H 0.17628 0.66336 0.64375 0.0
H8253 H 0.16191 0.66576 0.63777 0.0
H8254 H 0.15264 0.65194 0.60979 0.0
H8255 H 0.1566 0.66718 0.59507 0.0
loop_
_geom_bond_atom_site_label_1
_geom_bond_atom_site_label_2
_geom_bond_distance
_geom_bond_site_symmetry_2
_ccdc_geom_bond_type
Co0 O1 2.216 . S
Co0 O2 2.091 . S
Co0 O4 2.004 . S
Co0 O10 2.021 . S
Co0 O12 2.137 . S
Co0 O13 2.244 . S
O1 Co0 2.216 . S
O1 C8 1.247 . S
O2 Co0 2.091 . S
O2 C8 1.261 . S
C3 O12 1.247 . S
C3 O13 1.272 . S
O4 Co0 2.004 . S
O4 C9 1.259 . S
Co5 O6 2.061 . S
Co5 O11 2.052 . S
Co5 O13 2.135 . S
O6 Co5 2.061 . S
O6 C9 1.235 . S
C7 O10 1.238 . S
C7 O11 1.241 . S
C8 O1 1.247 . S
C8 O2 1.261 . S
C9 O4 1.259 . S
C9 O6 1.235 . S
O10 Co0 2.021 . S
O10 C7 1.238 . S
O11 Co5 2.052 . S
O11 C7 1.241 . S
O12 Co0 2.137 . S
O12 C3 1.247 . S
O13 Co0 2.244 . S
O13 C3 1.272 . S
O13 Co5 2.135 . S
Co14 O15 2.216 . S
Co14 O16 2.091 . S
Co14 O18 2.004 . S
Co14 O24 2.021 . S
Co14 O26 2.137 . S
Co14 O27 2.244 . S
O15 Co14 2.216 . S
O15 C22 1.247 . S
O16 Co14 2.091 . S
O16 C22 1.261 . S
C17 O26 1.247 . S
C17 O27 1.272 . S
O18 Co14 2.004 . S
O18 C23 1.259 . S
Co19 O20 2.061 . S
Co19 O25 2.052 . S
Co19 O27 2.135 . S
O20 Co19 2.061 . S
O20 C23 1.235 . S
C21 O24 1.238 . S
C21 O25 1.241 . S
C22 O15 1.247 . S
C22 O16 1.261 . S
C23 O18 1.259 . S
C23 O20 1.235 . S
O24 Co14 2.021 . S
O24 C21 1.238 . S
O25 Co19 2.052 . S
O25 C21 1.241 . S
O26 Co14 2.137 . S
O26 C17 1.247 . S
O27 Co14 2.244 . S
O27 C17 1.272 . S
O27 Co19 2.135 . S
Co28 O29 2.216 . S
Co28 O30 2.091 . S
Co28 O32 2.004 . S
Co28 O38 2.021 . S
Co28 O40 2.137 . S
Co28 O41 2.244 . S
O29 Co28 2.216 . S
O29 C36 1.247 . S
O30 Co28 2.091 . S
O30 C36 1.261 . S
C31 O40 1.247 . S
C31 O41 1.272 . S
O32 Co28 2.004 . S
O32 C37 1.259 . S
Co33 O34 2.061 . S
Co33 O39 2.052 . S
Co33 O41 2.135 . S
O34 Co33 2.061 . S
O34 C37 1.235 . S
C35 O38 1.238 . S
C35 O39 1.241 . S
C36 O29 1.247 . S
C36 O30 1.261 . S
C37 O32 1.259 . S
C37 O34 1.235 . S
O38 Co28 2.021 . S
O38 C35 1.238 . S
O39 Co33 2.052 . S
O39 C35 1.241 . S
O40 Co28 2.137 . S
O40 C31 1.247 . S
O41 Co28 2.244 . S
O41 C31 1.272 . S
O41 Co33 2.135 . S
Co42 O43 2.216 . S
Co42 O44 2.091 . S
Co42 O46 2.004 . S
Co42 O52 2.021 . S
Co42 O54 2.137 . S
Co42 O55 2.244 . S
O43 Co42 2.216 . S
O43 C50 1.247 . S
O44 Co42 2.091 . S
O44 C50 1.261 . S
C45 O54 1.247 . S
C45 O55 1.272 . S
O46 Co42 2.004 . S
O46 C51 1.259 . S
Co47 O48 2.061 . S
Co47 O53 2.052 . S
Co47 O55 2.135 . S
O48 Co47 2.061 . S
O48 C51 1.235 . S
C49 O52 1.238 . S
C49 O53 1.241 . S
C50 O43 1.247 . S
C50 O44 1.261 . S
C51 O46 1.259 . S
C51 O48 1.235 . S
O52 Co42 2.021 . S
O52 C49 1.238 . S
O53 Co47 2.052 . S
O53 C49 1.241 . S
O54 Co42 2.137 . S
O54 C45 1.247 . S
O55 Co42 2.244 . S
O55 C45 1.272 . S
O55 Co47 2.135 . S
Co56 O57 2.216 . S
Co56 O58 2.091 . S
Co56 O60 2.004 . S
Co56 O66 2.021 . S
Co56 O68 2.137 . S
Co56 O69 2.244 . S
O57 Co56 2.216 . S
O57 C64 1.247 . S
O58 Co56 2.091 . S
O58 C64 1.261 . S
C59 O68 1.247 . S
C59 O69 1.272 . S
O60 Co56 2.004 . S
O60 C65 1.259 . S
Co61 O62 2.061 . S
Co61 O67 2.052 . S
Co61 O69 2.135 . S
O62 Co61 2.061 . S
O62 C65 1.235 . S
C63 O66 1.238 . S
C63 O67 1.241 . S
C64 O57 1.247 . S
C64 O58 1.261 . S
C65 O60 1.259 . S
C65 O62 1.235 . S
O66 Co56 2.021 . S
O66 C63 1.238 . S
O67 Co61 2.052 . S
O67 C63 1.241 . S
O68 Co56 2.137 . S
O68 C59 1.247 . S
O69 Co56 2.244 . S
O69 C59 1.272 . S
O69 Co61 2.135 . S
Co70 O71 2.216 . S
Co70 O72 2.091 . S
Co70 O74 2.004 . S
Co70 O80 2.021 . S
Co70 O82 2.137 . S
Co70 O83 2.244 . S
O71 Co70 2.216 . S
O71 C78 1.247 . S
O72 Co70 2.091 . S
O72 C78 1.261 . S
C73 O82 1.247 . S
C73 O83 1.272 . S
O74 Co70 2.004 . S
O74 C79 1.259 . S
Co75 O76 2.061 . S
Co75 O81 2.052 . S
Co75 O83 2.135 . S
O76 Co75 2.061 . S
O76 C79 1.235 . S
C77 O80 1.238 . S
C77 O81 1.241 . S
C78 O71 1.247 . S
C78 O72 1.261 . S
C79 O74 1.259 . S
C79 O76 1.235 . S
O80 Co70 2.021 . S
O80 C77 1.238 . S
O81 Co75 2.052 . S
O81 C77 1.241 . S
O82 Co70 2.137 . S
O82 C73 1.247 . S
O83 Co70 2.244 . S
O83 C73 1.272 . S
O83 Co75 2.135 . S
Co84 O85 2.216 . S
Co84 O86 2.091 . S
Co84 O88 2.004 . S
Co84 O94 2.021 . S
Co84 O96 2.137 . S
Co84 O97 2.244 . S
O85 Co84 2.216 . S
O85 C92 1.247 . S
O86 Co84 2.091 . S
O86 C92 1.261 . S
C87 O96 1.247 . S
C87 O97 1.272 . S
O88 Co84 2.004 . S
O88 C93 1.259 . S
Co89 O90 2.061 . S
Co89 O95 2.052 . S
Co89 O97 2.135 . S
O90 Co89 2.061 . S
O90 C93 1.235 . S
C91 O94 1.238 . S
C91 O95 1.241 . S
C92 O85 1.247 . S
C92 O86 1.261 . S
C93 O88 1.259 . S
C93 O90 1.235 . S
O94 Co84 2.021 . S
O94 C91 1.238 . S
O95 Co89 2.052 . S
O95 C91 1.241 . S
O96 Co84 2.137 . S
O96 C87 1.247 . S
O97 Co84 2.244 . S
O97 C87 1.272 . S
O97 Co89 2.135 . S
Co98 O99 2.216 . S
Co98 O100 2.091 . S
Co98 O102 2.004 . S
Co98 O108 2.021 . S
Co98 O110 2.137 . S
Co98 O111 2.244 . S
O99 Co98 2.216 . S
O99 C106 1.247 . S
O100 Co98 2.091 . S
O100 C106 1.261 . S
C101 O110 1.247 . S
C101 O111 1.272 . S
O102 Co98 2.004 . S
O102 C107 1.259 . S
Co103 O104 2.061 . S
Co103 O109 2.052 . S
Co103 O111 2.135 . S
O104 Co103 2.061 . S
O104 C107 1.235 . S
C105 O108 1.238 . S
C105 O109 1.241 . S
C106 O99 1.247 . S
C106 O100 1.261 . S
C107 O102 1.259 . S
C107 O104 1.235 . S
O108 Co98 2.021 . S
O108 C105 1.238 . S
O109 Co103 2.052 . S
O109 C105 1.241 . S
O110 Co98 2.137 . S
O110 C101 1.247 . S
O111 Co98 2.244 . S
O111 C101 1.272 . S
O111 Co103 2.135 . S
Co112 O113 2.216 . S
Co112 O114 2.091 . S
Co112 O116 2.004 . S
Co112 O122 2.021 . S
Co112 O124 2.137 . S
Co112 O125 2.244 . S
O113 Co112 2.216 . S
O113 C120 1.247 . S
O114 Co112 2.091 . S
O114 C120 1.261 . S
C115 O124 1.247 . S
C115 O125 1.272 . S
O116 Co112 2.004 . S
O116 C121 1.259 . S
Co117 O118 2.061 . S
Co117 O123 2.052 . S
Co117 O125 2.135 . S
O118 Co117 2.061 . S
O118 C121 1.235 . S
C119 O122 1.238 . S
C119 O123 1.241 . S
C120 O113 1.247 . S
C120 O114 1.261 . S
C121 O116 1.259 . S
C121 O118 1.235 . S
O122 Co112 2.021 . S
O122 C119 1.238 . S
O123 Co117 2.052 . S
O123 C119 1.241 . S
O124 Co112 2.137 . S
O124 C115 1.247 . S
O125 Co112 2.244 . S
O125 C115 1.272 . S
O125 Co117 2.135 . S
Co126 O127 2.216 . S
Co126 O128 2.091 . S
Co126 O130 2.004 . S
Co126 O136 2.021 . S
Co126 O138 2.137 . S
Co126 O139 2.244 . S
O127 Co126 2.216 . S
O127 C134 1.247 . S
O128 Co126 2.091 . S
O128 C134 1.261 . S
C129 O138 1.247 . S
C129 O139 1.272 . S
O130 Co126 2.004 . S
O130 C135 1.259 . S
Co131 O132 2.061 . S
Co131 O137 2.052 . S
Co131 O139 2.135 . S
O132 Co131 2.061 . S
O132 C135 1.235 . S
C133 O136 1.238 . S
C133 O137 1.241 . S
C134 O127 1.247 . S
C134 O128 1.261 . S
C135 O130 1.259 . S
C135 O132 1.235 . S
O136 Co126 2.021 . S
O136 C133 1.238 . S
O137 Co131 2.052 . S
O137 C133 1.241 . S
O138 Co126 2.137 . S
O138 C129 1.247 . S
O139 Co126 2.244 . S
O139 C129 1.272 . S
O139 Co131 2.135 . S
Co140 O141 2.216 . S
Co140 O142 2.091 . S
Co140 O144 2.004 . S
Co140 O150 2.021 . S
Co140 O152 2.137 . S
Co140 O153 2.244 . S
O141 Co140 2.216 . S
O141 C148 1.247 . S
O142 Co140 2.091 . S
O142 C148 1.261 . S
C143 O152 1.247 . S
C143 O153 1.272 . S
O144 Co140 2.004 . S
O144 C149 1.259 . S
Co145 O146 2.061 . S
Co145 O151 2.052 . S
Co145 O153 2.135 . S
O146 Co145 2.061 . S
O146 C149 1.235 . S
C147 O150 1.238 . S
C147 O151 1.241 . S
C148 O141 1.247 . S
C148 O142 1.261 . S
C149 O144 1.259 . S
C149 O146 1.235 . S
O150 Co140 2.021 . S
O150 C147 1.238 . S
O151 Co145 2.052 . S
O151 C147 1.241 . S
O152 Co140 2.137 . S
O152 C143 1.247 . S
O153 Co140 2.244 . S
O153 C143 1.272 . S
O153 Co145 2.135 . S
Co154 O155 2.216 . S
Co154 O156 2.091 . S
Co154 O158 2.004 . S
Co154 O164 2.021 . S
Co154 O166 2.137 . S
Co154 O167 2.244 . S
O155 Co154 2.216 . S
O155 C162 1.247 . S
O156 Co154 2.091 . S
O156 C162 1.261 . S
C157 O166 1.247 . S
C157 O167 1.272 . S
O158 Co154 2.004 . S
O158 C163 1.259 . S
Co159 O160 2.061 . S
Co159 O165 2.052 . S
Co159 O167 2.135 . S
O160 Co159 2.061 . S
O160 C163 1.235 . S
C161 O164 1.238 . S
C161 O165 1.241 . S
C162 O155 1.247 . S
C162 O156 1.261 . S
C163 O158 1.259 . S
C163 O160 1.235 . S
O164 Co154 2.021 . S
O164 C161 1.238 . S
O165 Co159 2.052 . S
O165 C161 1.241 . S
O166 Co154 2.137 . S
O166 C157 1.247 . S
O167 Co154 2.244 . S
O167 C157 1.272 . S
O167 Co159 2.135 . S
Co168 O169 2.216 . S
Co168 O170 2.091 . S
Co168 O172 2.004 . S
Co168 O178 2.021 . S
Co168 O180 2.137 . S
Co168 O181 2.244 . S
O169 Co168 2.216 . S
O169 C176 1.247 . S
O170 Co168 2.091 . S
O170 C176 1.261 . S
C171 O180 1.247 . S
C171 O181 1.272 . S
O172 Co168 2.004 . S
O172 C177 1.259 . S
Co173 O174 2.061 . S
Co173 O179 2.052 . S
Co173 O181 2.135 . S
O174 Co173 2.061 . S
O174 C177 1.235 . S
C175 O178 1.238 . S
C175 O179 1.241 . S
C176 O169 1.247 . S
C176 O170 1.261 . S
C177 O172 1.259 . S
C177 O174 1.235 . S
O178 Co168 2.021 . S
O178 C175 1.238 . S
O179 Co173 2.052 . S
O179 C175 1.241 . S
O180 Co168 2.137 . S
O180 C171 1.247 . S
O181 Co168 2.244 . S
O181 C171 1.272 . S
O181 Co173 2.135 . S
Co182 O183 2.216 . S
Co182 O184 2.091 . S
Co182 O186 2.004 . S
Co182 O192 2.021 . S
Co182 O194 2.137 . S
Co182 O195 2.244 . S
O183 Co182 2.216 . S
O183 C190 1.247 . S
O184 Co182 2.091 . S
O184 C190 1.261 . S
C185 O194 1.247 . S
C185 O195 1.272 . S
O186 Co182 2.004 . S
O186 C191 1.259 . S
Co187 O188 2.061 . S
Co187 O193 2.052 . S
Co187 O195 2.135 . S
O188 Co187 2.061 . S
O188 C191 1.235 . S
C189 O192 1.238 . S
C189 O193 1.241 . S
C190 O183 1.247 . S
C190 O184 1.261 . S
C191 O186 1.259 . S
C191 O188 1.235 . S
O192 Co182 2.021 . S
O192 C189 1.238 . S
O193 Co187 2.052 . S
O193 C189 1.241 . S
O194 Co182 2.137 . S
O194 C185 1.247 . S
O195 Co182 2.244 . S
O195 C185 1.272 . S
O195 Co187 2.135 . S
Co196 O197 2.216 . S
Co196 O198 2.091 . S
Co196 O200 2.004 . S
Co196 O206 2.021 . S
Co196 O208 2.137 . S
Co196 O209 2.244 . S
O197 Co196 2.216 . S
O197 C204 1.247 . S
O198 Co196 2.091 . S
O198 C204 1.261 . S
C199 O208 1.247 . S
C199 O209 1.272 . S
O200 Co196 2.004 . S
O200 C205 1.259 . S
Co201 O202 2.061 . S
Co201 O207 2.052 . S
Co201 O209 2.135 . S
O202 Co201 2.061 . S
O202 C205 1.235 . S
C203 O206 1.238 . S
C203 O207 1.241 . S
C204 O197 1.247 . S
C204 O198 1.261 . S
C205 O200 1.259 . S
C205 O202 1.235 . S
O206 Co196 2.021 . S
O206 C203 1.238 . S
O207 Co201 2.052 . S
O207 C203 1.241 . S
O208 Co196 2.137 . S
O208 C199 1.247 . S
O209 Co196 2.244 . S
O209 C199 1.272 . S
O209 Co201 2.135 . S
Co210 O211 2.216 . S
Co210 O212 2.091 . S
Co210 O214 2.004 . S
Co210 O220 2.021 . S
Co210 O222 2.137 . S
Co210 O223 2.244 . S
O211 Co210 2.216 . S
O211 C218 1.247 . S
O212 Co210 2.091 . S
O212 C218 1.261 . S
C213 O222 1.247 . S
C213 O223 1.272 . S
O214 Co210 2.004 . S
O214 C219 1.259 . S
Co215 O216 2.061 . S
Co215 O221 2.052 . S
Co215 O223 2.135 . S
O216 Co215 2.061 . S
O216 C219 1.235 . S
C217 O220 1.238 . S
C217 O221 1.241 . S
C218 O211 1.247 . S
C218 O212 1.261 . S
C219 O214 1.259 . S
C219 O216 1.235 . S
O220 Co210 2.021 . S
O220 C217 1.238 . S
O221 Co215 2.052 . S
O221 C217 1.241 . S
O222 Co210 2.137 . S
O222 C213 1.247 . S
O223 Co210 2.244 . S
O223 C213 1.272 . S
O223 Co215 2.135 . S
Co224 O225 2.216 . S
Co224 O226 2.091 . S
Co224 O228 2.004 . S
Co224 O234 2.021 . S
Co224 O236 2.137 . S
Co224 O237 2.244 . S
O225 Co224 2.216 . S
O225 C232 1.247 . S
O226 Co224 2.091 . S
O226 C232 1.261 . S
C227 O236 1.247 . S
C227 O237 1.272 . S
O228 Co224 2.004 . S
O228 C233 1.259 . S
Co229 O230 2.061 . S
Co229 O235 2.052 . S
Co229 O237 2.135 . S
O230 Co229 2.061 . S
O230 C233 1.235 . S
C231 O234 1.238 . S
C231 O235 1.241 . S
C232 O225 1.247 . S
C232 O226 1.261 . S
C233 O228 1.259 . S
C233 O230 1.235 . S
O234 Co224 2.021 . S
O234 C231 1.238 . S
O235 Co229 2.052 . S
O235 C231 1.241 . S
O236 Co224 2.137 . S
O236 C227 1.247 . S
O237 Co224 2.244 . S
O237 C227 1.272 . S
O237 Co229 2.135 . S
Co238 O239 2.216 . S
Co238 O240 2.091 . S
Co238 O242 2.004 . S
Co238 O248 2.021 . S
Co238 O250 2.137 . S
Co238 O251 2.244 . S
O239 Co238 2.216 . S
O239 C246 1.247 . S
O240 Co238 2.091 . S
O240 C246 1.261 . S
C241 O250 1.247 . S
C241 O251 1.272 . S
O242 Co238 2.004 . S
O242 C247 1.259 . S
Co243 O244 2.061 . S
Co243 O249 2.052 . S
Co243 O251 2.135 . S
O244 Co243 2.061 . S
O244 C247 1.235 . S
C245 O248 1.238 . S
C245 O249 1.241 . S
C246 O239 1.247 . S
C246 O240 1.261 . S
C247 O242 1.259 . S
C247 O244 1.235 . S
O248 Co238 2.021 . S
O248 C245 1.238 . S
O249 Co243 2.052 . S
O249 C245 1.241 . S
O250 Co238 2.137 . S
O250 C241 1.247 . S
O251 Co238 2.244 . S
O251 C241 1.272 . S
O251 Co243 2.135 . S
Co252 O253 2.216 . S
Co252 O254 2.091 . S
Co252 O256 2.004 . S
Co252 O262 2.021 . S
Co252 O264 2.137 . S
Co252 O265 2.244 . S
O253 Co252 2.216 . S
O253 C260 1.247 . S
O254 Co252 2.091 . S
O254 C260 1.261 . S
C255 O264 1.247 . S
C255 O265 1.272 . S
O256 Co252 2.004 . S
O256 C261 1.259 . S
Co257 O258 2.061 . S
Co257 O263 2.052 . S
Co257 O265 2.135 . S
O258 Co257 2.061 . S
O258 C261 1.235 . S
C259 O262 1.238 . S
C259 O263 1.241 . S
C260 O253 1.247 . S
C260 O254 1.261 . S
C261 O256 1.259 . S
C261 O258 1.235 . S
O262 Co252 2.021 . S
O262 C259 1.238 . S
O263 Co257 2.052 . S
O263 C259 1.241 . S
O264 Co252 2.137 . S
O264 C255 1.247 . S
O265 Co252 2.244 . S
O265 C255 1.272 . S
O265 Co257 2.135 . S
Co266 O267 2.216 . S
Co266 O268 2.091 . S
Co266 O270 2.004 . S
Co266 O276 2.021 . S
Co266 O278 2.137 . S
Co266 O279 2.244 . S
O267 Co266 2.216 . S
O267 C274 1.247 . S
O268 Co266 2.091 . S
O268 C274 1.261 . S
C269 O278 1.247 . S
C269 O279 1.272 . S
O270 Co266 2.004 . S
O270 C275 1.259 . S
Co271 O272 2.061 . S
Co271 O277 2.052 . S
Co271 O279 2.135 . S
O272 Co271 2.061 . S
O272 C275 1.235 . S
C273 O276 1.238 . S
C273 O277 1.241 . S
C274 O267 1.247 . S
C274 O268 1.261 . S
C275 O270 1.259 . S
C275 O272 1.235 . S
O276 Co266 2.021 . S
O276 C273 1.238 . S
O277 Co271 2.052 . S
O277 C273 1.241 . S
O278 Co266 2.137 . S
O278 C269 1.247 . S
O279 Co266 2.244 . S
O279 C269 1.272 . S
O279 Co271 2.135 . S
Co280 O281 2.216 . S
Co280 O282 2.091 . S
Co280 O284 2.004 . S
Co280 O290 2.021 . S
Co280 O292 2.137 . S
Co280 O293 2.244 . S
O281 Co280 2.216 . S
O281 C288 1.247 . S
O282 Co280 2.091 . S
O282 C288 1.261 . S
C283 O292 1.247 . S
C283 O293 1.272 . S
O284 Co280 2.004 . S
O284 C289 1.259 . S
Co285 O286 2.061 . S
Co285 O291 2.052 . S
Co285 O293 2.135 . S
O286 Co285 2.061 . S
O286 C289 1.235 . S
C287 O290 1.238 . S
C287 O291 1.241 . S
C288 O281 1.247 . S
C288 O282 1.261 . S
C289 O284 1.259 . S
C289 O286 1.235 . S
O290 Co280 2.021 . S
O290 C287 1.238 . S
O291 Co285 2.052 . S
O291 C287 1.241 . S
O292 Co280 2.137 . S
O292 C283 1.247 . S
O293 Co280 2.244 . S
O293 C283 1.272 . S
O293 Co285 2.135 . S
Co294 O295 2.216 . S
Co294 O296 2.091 . S
Co294 O298 2.004 . S
Co294 O304 2.021 . S
Co294 O306 2.137 . S
Co294 O307 2.244 . S
O295 Co294 2.216 . S
O295 C302 1.247 . S
O296 Co294 2.091 . S
O296 C302 1.261 . S
C297 O306 1.247 . S
C297 O307 1.272 . S
O298 Co294 2.004 . S
O298 C303 1.259 . S
Co299 O300 2.061 . S
Co299 O305 2.052 . S
Co299 O307 2.135 . S
O300 Co299 2.061 . S
O300 C303 1.235 . S
C301 O304 1.238 . S
C301 O305 1.241 . S
C302 O295 1.247 . S
C302 O296 1.261 . S
C303 O298 1.259 . S
C303 O300 1.235 . S
O304 Co294 2.021 . S
O304 C301 1.238 . S
O305 Co299 2.052 . S
O305 C301 1.241 . S
O306 Co294 2.137 . S
O306 C297 1.247 . S
O307 Co294 2.244 . S
O307 C297 1.272 . S
O307 Co299 2.135 . S
Co308 O309 2.216 . S
Co308 O310 2.091 . S
Co308 O312 2.004 . S
Co308 O318 2.021 . S
Co308 O320 2.137 . S
Co308 O321 2.244 . S
O309 Co308 2.216 . S
O309 C316 1.247 . S
O310 Co308 2.091 . S
O310 C316 1.261 . S
C311 O320 1.247 . S
C311 O321 1.272 . S
O312 Co308 2.004 . S
O312 C317 1.259 . S
Co313 O314 2.061 . S
Co313 O319 2.052 . S
Co313 O321 2.135 . S
O314 Co313 2.061 . S
O314 C317 1.235 . S
C315 O318 1.238 . S
C315 O319 1.241 . S
C316 O309 1.247 . S
C316 O310 1.261 . S
C317 O312 1.259 . S
C317 O314 1.235 . S
O318 Co308 2.021 . S
O318 C315 1.238 . S
O319 Co313 2.052 . S
O319 C315 1.241 . S
O320 Co308 2.137 . S
O320 C311 1.247 . S
O321 Co308 2.244 . S
O321 C311 1.272 . S
O321 Co313 2.135 . S
Co322 O323 2.216 . S
Co322 O324 2.091 . S
Co322 O326 2.004 . S
Co322 O332 2.021 . S
Co322 O334 2.137 . S
Co322 O335 2.244 . S
O323 Co322 2.216 . S
O323 C330 1.247 . S
O324 Co322 2.091 . S
O324 C330 1.261 . S
C325 O334 1.247 . S
C325 O335 1.272 . S
O326 Co322 2.004 . S
O326 C331 1.259 . S
Co327 O328 2.061 . S
Co327 O333 2.052 . S
Co327 O335 2.135 . S
O328 Co327 2.061 . S
O328 C331 1.235 . S
C329 O332 1.238 . S
C329 O333 1.241 . S
C330 O323 1.247 . S
C330 O324 1.261 . S
C331 O326 1.259 . S
C331 O328 1.235 . S
O332 Co322 2.021 . S
O332 C329 1.238 . S
O333 Co327 2.052 . S
O333 C329 1.241 . S
O334 Co322 2.137 . S
O334 C325 1.247 . S
O335 Co322 2.244 . S
O335 C325 1.272 . S
O335 Co327 2.135 . S
Co336 O337 2.216 . S
Co336 O338 2.091 . S
Co336 O340 2.004 . S
Co336 O346 2.021 . S
Co336 O348 2.137 . S
Co336 O349 2.244 . S
O337 Co336 2.216 . S
O337 C344 1.247 . S
O338 Co336 2.091 . S
O338 C344 1.261 . S
C339 O348 1.247 . S
C339 O349 1.272 . S
O340 Co336 2.004 . S
O340 C345 1.259 . S
Co341 O342 2.061 . S
Co341 O347 2.052 . S
Co341 O349 2.135 . S
O342 Co341 2.061 . S
O342 C345 1.235 . S
C343 O346 1.238 . S
C343 O347 1.241 . S
C344 O337 1.247 . S
C344 O338 1.261 . S
C345 O340 1.259 . S
C345 O342 1.235 . S
O346 Co336 2.021 . S
O346 C343 1.238 . S
O347 Co341 2.052 . S
O347 C343 1.241 . S
O348 Co336 2.137 . S
O348 C339 1.247 . S
O349 Co336 2.244 . S
O349 C339 1.272 . S
O349 Co341 2.135 . S
Co350 O351 2.216 . S
Co350 O352 2.091 . S
Co350 O354 2.004 . S
Co350 O360 2.021 . S
Co350 O362 2.137 . S
Co350 O363 2.244 . S
O351 Co350 2.216 . S
O351 C358 1.247 . S
O352 Co350 2.091 . S
O352 C358 1.261 . S
C353 O362 1.247 . S
C353 O363 1.272 . S
O354 Co350 2.004 . S
O354 C359 1.259 . S
Co355 O356 2.061 . S
Co355 O361 2.052 . S
Co355 O363 2.135 . S
O356 Co355 2.061 . S
O356 C359 1.235 . S
C357 O360 1.238 . S
C357 O361 1.241 . S
C358 O351 1.247 . S
C358 O352 1.261 . S
C359 O354 1.259 . S
C359 O356 1.235 . S
O360 Co350 2.021 . S
O360 C357 1.238 . S
O361 Co355 2.052 . S
O361 C357 1.241 . S
O362 Co350 2.137 . S
O362 C353 1.247 . S
O363 Co350 2.244 . S
O363 C353 1.272 . S
O363 Co355 2.135 . S
Co364 O365 2.216 . S
Co364 O366 2.091 . S
Co364 O368 2.004 . S
Co364 O374 2.021 . S
Co364 O376 2.137 . S
Co364 O377 2.244 . S
O365 Co364 2.216 . S
O365 C372 1.247 . S
O366 Co364 2.091 . S
O366 C372 1.261 . S
C367 O376 1.247 . S
C367 O377 1.272 . S
O368 Co364 2.004 . S
O368 C373 1.259 . S
Co369 O370 2.061 . S
Co369 O375 2.052 . S
Co369 O377 2.135 . S
O370 Co369 2.061 . S
O370 C373 1.235 . S
C371 O374 1.238 . S
C371 O375 1.241 . S
C372 O365 1.247 . S
C372 O366 1.261 . S
C373 O368 1.259 . S
C373 O370 1.235 . S
O374 Co364 2.021 . S
O374 C371 1.238 . S
O375 Co369 2.052 . S
O375 C371 1.241 . S
O376 Co364 2.137 . S
O376 C367 1.247 . S
O377 Co364 2.244 . S
O377 C367 1.272 . S
O377 Co369 2.135 . S
Co378 O379 2.216 . S
Co378 O380 2.091 . S
Co378 O382 2.004 . S
Co378 O388 2.021 . S
Co378 O390 2.137 . S
Co378 O391 2.244 . S
O379 Co378 2.216 . S
O379 C386 1.247 . S
O380 Co378 2.091 . S
O380 C386 1.261 . S
C381 O390 1.247 . S
C381 O391 1.272 . S
O382 Co378 2.004 . S
O382 C387 1.259 . S
Co383 O384 2.061 . S
Co383 O389 2.052 . S
Co383 O391 2.135 . S
O384 Co383 2.061 . S
O384 C387 1.235 . S
C385 O388 1.238 . S
C385 O389 1.241 . S
C386 O379 1.247 . S
C386 O380 1.261 . S
C387 O382 1.259 . S
C387 O384 1.235 . S
O388 Co378 2.021 . S
O388 C385 1.238 . S
O389 Co383 2.052 . S
O389 C385 1.241 . S
O390 Co378 2.137 . S
O390 C381 1.247 . S
O391 Co378 2.244 . S
O391 C381 1.272 . S
O391 Co383 2.135 . S
Co392 O393 2.216 . S
Co392 O394 2.091 . S
Co392 O396 2.004 . S
Co392 O402 2.021 . S
Co392 O404 2.137 . S
Co392 O405 2.244 . S
O393 Co392 2.216 . S
O393 C400 1.247 . S
O394 Co392 2.091 . S
O394 C400 1.261 . S
C395 O404 1.247 . S
C395 O405 1.272 . S
O396 Co392 2.004 . S
O396 C401 1.259 . S
Co397 O398 2.061 . S
Co397 O403 2.052 . S
Co397 O405 2.135 . S
O398 Co397 2.061 . S
O398 C401 1.235 . S
C399 O402 1.238 . S
C399 O403 1.241 . S
C400 O393 1.247 . S
C400 O394 1.261 . S
C401 O396 1.259 . S
C401 O398 1.235 . S
O402 Co392 2.021 . S
O402 C399 1.238 . S
O403 Co397 2.052 . S
O403 C399 1.241 . S
O404 Co392 2.137 . S
O404 C395 1.247 . S
O405 Co392 2.244 . S
O405 C395 1.272 . S
O405 Co397 2.135 . S
Co406 O407 2.216 . S
Co406 O408 2.091 . S
Co406 O410 2.004 . S
Co406 O416 2.021 . S
Co406 O418 2.137 . S
Co406 O419 2.244 . S
O407 Co406 2.216 . S
O407 C414 1.247 . S
O408 Co406 2.091 . S
O408 C414 1.261 . S
C409 O418 1.247 . S
C409 O419 1.272 . S
O410 Co406 2.004 . S
O410 C415 1.259 . S
Co411 O412 2.061 . S
Co411 O417 2.052 . S
Co411 O419 2.135 . S
O412 Co411 2.061 . S
O412 C415 1.235 . S
C413 O416 1.238 . S
C413 O417 1.241 . S
C414 O407 1.247 . S
C414 O408 1.261 . S
C415 O410 1.259 . S
C415 O412 1.235 . S
O416 Co406 2.021 . S
O416 C413 1.238 . S
O417 Co411 2.052 . S
O417 C413 1.241 . S
O418 Co406 2.137 . S
O418 C409 1.247 . S
O419 Co406 2.244 . S
O419 C409 1.272 . S
O419 Co411 2.135 . S
Co420 O421 2.216 . S
Co420 O422 2.091 . S
Co420 O424 2.004 . S
Co420 O430 2.021 . S
Co420 O432 2.137 . S
Co420 O433 2.244 . S
O421 Co420 2.216 . S
O421 C428 1.247 . S
O422 Co420 2.091 . S
O422 C428 1.261 . S
C423 O432 1.247 . S
C423 O433 1.272 . S
O424 Co420 2.004 . S
O424 C429 1.259 . S
Co425 O426 2.061 . S
Co425 O431 2.052 . S
Co425 O433 2.135 . S
O426 Co425 2.061 . S
O426 C429 1.235 . S
C427 O430 1.238 . S
C427 O431 1.241 . S
C428 O421 1.247 . S
C428 O422 1.261 . S
C429 O424 1.259 . S
C429 O426 1.235 . S
O430 Co420 2.021 . S
O430 C427 1.238 . S
O431 Co425 2.052 . S
O431 C427 1.241 . S
O432 Co420 2.137 . S
O432 C423 1.247 . S
O433 Co420 2.244 . S
O433 C423 1.272 . S
O433 Co425 2.135 . S
Co434 O435 2.216 . S
Co434 O436 2.091 . S
Co434 O438 2.004 . S
Co434 O444 2.021 . S
Co434 O446 2.137 . S
Co434 O447 2.244 . S
O435 Co434 2.216 . S
O435 C442 1.247 . S
O436 Co434 2.091 . S
O436 C442 1.261 . S
C437 O446 1.247 . S
C437 O447 1.272 . S
O438 Co434 2.004 . S
O438 C443 1.259 . S
Co439 O440 2.061 . S
Co439 O445 2.052 . S
Co439 O447 2.135 . S
O440 Co439 2.061 . S
O440 C443 1.235 . S
C441 O444 1.238 . S
C441 O445 1.241 . S
C442 O435 1.247 . S
C442 O436 1.261 . S
C443 O438 1.259 . S
C443 O440 1.235 . S
O444 Co434 2.021 . S
O444 C441 1.238 . S
O445 Co439 2.052 . S
O445 C441 1.241 . S
O446 Co434 2.137 . S
O446 C437 1.247 . S
O447 Co434 2.244 . S
O447 C437 1.272 . S
O447 Co439 2.135 . S
Co448 O449 2.216 . S
Co448 O450 2.091 . S
Co448 O452 2.004 . S
Co448 O458 2.021 . S
Co448 O460 2.137 . S
Co448 O461 2.244 . S
O449 Co448 2.216 . S
O449 C456 1.247 . S
O450 Co448 2.091 . S
O450 C456 1.261 . S
C451 O460 1.247 . S
C451 O461 1.272 . S
O452 Co448 2.004 . S
O452 C457 1.259 . S
Co453 O454 2.061 . S
Co453 O459 2.052 . S
Co453 O461 2.135 . S
O454 Co453 2.061 . S
O454 C457 1.235 . S
C455 O458 1.238 . S
C455 O459 1.241 . S
C456 O449 1.247 . S
C456 O450 1.261 . S
C457 O452 1.259 . S
C457 O454 1.235 . S
O458 Co448 2.021 . S
O458 C455 1.238 . S
O459 Co453 2.052 . S
O459 C455 1.241 . S
O460 Co448 2.137 . S
O460 C451 1.247 . S
O461 Co448 2.244 . S
O461 C451 1.272 . S
O461 Co453 2.135 . S
Co462 O463 2.216 . S
Co462 O464 2.091 . S
Co462 O466 2.004 . S
Co462 O472 2.021 . S
Co462 O474 2.137 . S
Co462 O475 2.244 . S
O463 Co462 2.216 . S
O463 C470 1.247 . S
O464 Co462 2.091 . S
O464 C470 1.261 . S
C465 O474 1.247 . S
C465 O475 1.272 . S
O466 Co462 2.004 . S
O466 C471 1.259 . S
Co467 O468 2.061 . S
Co467 O473 2.052 . S
Co467 O475 2.135 . S
O468 Co467 2.061 . S
O468 C471 1.235 . S
C469 O472 1.238 . S
C469 O473 1.241 . S
C470 O463 1.247 . S
C470 O464 1.261 . S
C471 O466 1.259 . S
C471 O468 1.235 . S
O472 Co462 2.021 . S
O472 C469 1.238 . S
O473 Co467 2.052 . S
O473 C469 1.241 . S
O474 Co462 2.137 . S
O474 C465 1.247 . S
O475 Co462 2.244 . S
O475 C465 1.272 . S
O475 Co467 2.135 . S
Co476 O477 2.216 . S
Co476 O478 2.091 . S
Co476 O480 2.004 . S
Co476 O486 2.021 . S
Co476 O488 2.137 . S
Co476 O489 2.244 . S
O477 Co476 2.216 . S
O477 C484 1.247 . S
O478 Co476 2.091 . S
O478 C484 1.261 . S
C479 O488 1.247 . S
C479 O489 1.272 . S
O480 Co476 2.004 . S
O480 C485 1.259 . S
Co481 O482 2.061 . S
Co481 O487 2.052 . S
Co481 O489 2.135 . S
O482 Co481 2.061 . S
O482 C485 1.235 . S
C483 O486 1.238 . S
C483 O487 1.241 . S
C484 O477 1.247 . S
C484 O478 1.261 . S
C485 O480 1.259 . S
C485 O482 1.235 . S
O486 Co476 2.021 . S
O486 C483 1.238 . S
O487 Co481 2.052 . S
O487 C483 1.241 . S
O488 Co476 2.137 . S
O488 C479 1.247 . S
O489 Co476 2.244 . S
O489 C479 1.272 . S
O489 Co481 2.135 . S
Co490 O491 2.216 . S
Co490 O492 2.091 . S
Co490 O494 2.004 . S
Co490 O500 2.021 . S
Co490 O502 2.137 . S
Co490 O503 2.244 . S
O491 Co490 2.216 . S
O491 C498 1.247 . S
O492 Co490 2.091 . S
O492 C498 1.261 . S
C493 O502 1.247 . S
C493 O503 1.272 . S
O494 Co490 2.004 . S
O494 C499 1.259 . S
Co495 O496 2.061 . S
Co495 O501 2.052 . S
Co495 O503 2.135 . S
O496 Co495 2.061 . S
O496 C499 1.235 . S
C497 O500 1.238 . S
C497 O501 1.241 . S
C498 O491 1.247 . S
C498 O492 1.261 . S
C499 O494 1.259 . S
C499 O496 1.235 . S
O500 Co490 2.021 . S
O500 C497 1.238 . S
O501 Co495 2.052 . S
O501 C497 1.241 . S
O502 Co490 2.137 . S
O502 C493 1.247 . S
O503 Co490 2.244 . S
O503 C493 1.272 . S
O503 Co495 2.135 . S
Co504 O505 2.216 . S
Co504 O506 2.091 . S
Co504 O508 2.004 . S
Co504 O514 2.021 . S
Co504 O516 2.137 . S
Co504 O517 2.244 . S
O505 Co504 2.216 . S
O505 C512 1.247 . S
O506 Co504 2.091 . S
O506 C512 1.261 . S
C507 O516 1.247 . S
C507 O517 1.272 . S
O508 Co504 2.004 . S
O508 C513 1.259 . S
Co509 O510 2.061 . S
Co509 O515 2.052 . S
Co509 O517 2.135 . S
O510 Co509 2.061 . S
O510 C513 1.235 . S
C511 O514 1.238 . S
C511 O515 1.241 . S
C512 O505 1.247 . S
C512 O506 1.261 . S
C513 O508 1.259 . S
C513 O510 1.235 . S
O514 Co504 2.021 . S
O514 C511 1.238 . S
O515 Co509 2.052 . S
O515 C511 1.241 . S
O516 Co504 2.137 . S
O516 C507 1.247 . S
O517 Co504 2.244 . S
O517 C507 1.272 . S
O517 Co509 2.135 . S
Co518 O519 2.216 . S
Co518 O520 2.091 . S
Co518 O522 2.004 . S
Co518 O528 2.021 . S
Co518 O530 2.137 . S
Co518 O531 2.244 . S
O519 Co518 2.216 . S
O519 C526 1.247 . S
O520 Co518 2.091 . S
O520 C526 1.261 . S
C521 O530 1.247 . S
C521 O531 1.272 . S
O522 Co518 2.004 . S
O522 C527 1.259 . S
Co523 O524 2.061 . S
Co523 O529 2.052 . S
Co523 O531 2.135 . S
O524 Co523 2.061 . S
O524 C527 1.235 . S
C525 O528 1.238 . S
C525 O529 1.241 . S
C526 O519 1.247 . S
C526 O520 1.261 . S
C527 O522 1.259 . S
C527 O524 1.235 . S
O528 Co518 2.021 . S
O528 C525 1.238 . S
O529 Co523 2.052 . S
O529 C525 1.241 . S
O530 Co518 2.137 . S
O530 C521 1.247 . S
O531 Co518 2.244 . S
O531 C521 1.272 . S
O531 Co523 2.135 . S
Co532 O533 2.216 . S
Co532 O534 2.091 . S
Co532 O536 2.004 . S
Co532 O542 2.021 . S
Co532 O544 2.137 . S
Co532 O545 2.244 . S
O533 Co532 2.216 . S
O533 C540 1.247 . S
O534 Co532 2.091 . S
O534 C540 1.261 . S
C535 O544 1.247 . S
C535 O545 1.272 . S
O536 Co532 2.004 . S
O536 C541 1.259 . S
Co537 O538 2.061 . S
Co537 O543 2.052 . S
Co537 O545 2.135 . S
O538 Co537 2.061 . S
O538 C541 1.235 . S
C539 O542 1.238 . S
C539 O543 1.241 . S
C540 O533 1.247 . S
C540 O534 1.261 . S
C541 O536 1.259 . S
C541 O538 1.235 . S
O542 Co532 2.021 . S
O542 C539 1.238 . S
O543 Co537 2.052 . S
O543 C539 1.241 . S
O544 Co532 2.137 . S
O544 C535 1.247 . S
O545 Co532 2.244 . S
O545 C535 1.272 . S
O545 Co537 2.135 . S
Co546 O547 2.216 . S
Co546 O548 2.091 . S
Co546 O550 2.004 . S
Co546 O556 2.021 . S
Co546 O558 2.137 . S
Co546 O559 2.244 . S
O547 Co546 2.216 . S
O547 C554 1.247 . S
O548 Co546 2.091 . S
O548 C554 1.261 . S
C549 O558 1.247 . S
C549 O559 1.272 . S
O550 Co546 2.004 . S
O550 C555 1.259 . S
Co551 O552 2.061 . S
Co551 O557 2.052 . S
Co551 O559 2.135 . S
O552 Co551 2.061 . S
O552 C555 1.235 . S
C553 O556 1.238 . S
C553 O557 1.241 . S
C554 O547 1.247 . S
C554 O548 1.261 . S
C555 O550 1.259 . S
C555 O552 1.235 . S
O556 Co546 2.021 . S
O556 C553 1.238 . S
O557 Co551 2.052 . S
O557 C553 1.241 . S
O558 Co546 2.137 . S
O558 C549 1.247 . S
O559 Co546 2.244 . S
O559 C549 1.272 . S
O559 Co551 2.135 . S
Co560 O561 2.216 . S
Co560 O562 2.091 . S
Co560 O564 2.004 . S
Co560 O570 2.021 . S
Co560 O572 2.137 . S
Co560 O573 2.244 . S
O561 Co560 2.216 . S
O561 C568 1.247 . S
O562 Co560 2.091 . S
O562 C568 1.261 . S
C563 O572 1.247 . S
C563 O573 1.272 . S
O564 Co560 2.004 . S
O564 C569 1.259 . S
Co565 O566 2.061 . S
Co565 O571 2.052 . S
Co565 O573 2.135 . S
O566 Co565 2.061 . S
O566 C569 1.235 . S
C567 O570 1.238 . S
C567 O571 1.241 . S
C568 O561 1.247 . S
C568 O562 1.261 . S
C569 O564 1.259 . S
C569 O566 1.235 . S
O570 Co560 2.021 . S
O570 C567 1.238 . S
O571 Co565 2.052 . S
O571 C567 1.241 . S
O572 Co560 2.137 . S
O572 C563 1.247 . S
O573 Co560 2.244 . S
O573 C563 1.272 . S
O573 Co565 2.135 . S
Co574 O575 2.216 . S
Co574 O576 2.091 . S
Co574 O578 2.004 . S
Co574 O584 2.021 . S
Co574 O586 2.137 . S
Co574 O587 2.244 . S
O575 Co574 2.216 . S
O575 C582 1.247 . S
O576 Co574 2.091 . S
O576 C582 1.261 . S
C577 O586 1.247 . S
C577 O587 1.272 . S
O578 Co574 2.004 . S
O578 C583 1.259 . S
Co579 O580 2.061 . S
Co579 O585 2.052 . S
Co579 O587 2.135 . S
O580 Co579 2.061 . S
O580 C583 1.235 . S
C581 O584 1.238 . S
C581 O585 1.241 . S
C582 O575 1.247 . S
C582 O576 1.261 . S
C583 O578 1.259 . S
C583 O580 1.235 . S
O584 Co574 2.021 . S
O584 C581 1.238 . S
O585 Co579 2.052 . S
O585 C581 1.241 . S
O586 Co574 2.137 . S
O586 C577 1.247 . S
O587 Co574 2.244 . S
O587 C577 1.272 . S
O587 Co579 2.135 . S
Co588 O589 2.216 . S
Co588 O590 2.091 . S
Co588 O592 2.004 . S
Co588 O598 2.021 . S
Co588 O600 2.137 . S
Co588 O601 2.244 . S
O589 Co588 2.216 . S
O589 C596 1.247 . S
O590 Co588 2.091 . S
O590 C596 1.261 . S
C591 O600 1.247 . S
C591 O601 1.272 . S
O592 Co588 2.004 . S
O592 C597 1.259 . S
Co593 O594 2.061 . S
Co593 O599 2.052 . S
Co593 O601 2.135 . S
O594 Co593 2.061 . S
O594 C597 1.235 . S
C595 O598 1.238 . S
C595 O599 1.241 . S
C596 O589 1.247 . S
C596 O590 1.261 . S
C597 O592 1.259 . S
C597 O594 1.235 . S
O598 Co588 2.021 . S
O598 C595 1.238 . S
O599 Co593 2.052 . S
O599 C595 1.241 . S
O600 Co588 2.137 . S
O600 C591 1.247 . S
O601 Co588 2.244 . S
O601 C591 1.272 . S
O601 Co593 2.135 . S
Co602 O603 2.216 . S
Co602 O604 2.091 . S
Co602 O606 2.004 . S
Co602 O612 2.021 . S
Co602 O614 2.137 . S
Co602 O615 2.244 . S
O603 Co602 2.216 . S
O603 C610 1.247 . S
O604 Co602 2.091 . S
O604 C610 1.261 . S
C605 O614 1.247 . S
C605 O615 1.272 . S
O606 Co602 2.004 . S
O606 C611 1.259 . S
Co607 O608 2.061 . S
Co607 O613 2.052 . S
Co607 O615 2.135 . S
O608 Co607 2.061 . S
O608 C611 1.235 . S
C609 O612 1.238 . S
C609 O613 1.241 . S
C610 O603 1.247 . S
C610 O604 1.261 . S
C611 O606 1.259 . S
C611 O608 1.235 . S
O612 Co602 2.021 . S
O612 C609 1.238 . S
O613 Co607 2.052 . S
O613 C609 1.241 . S
O614 Co602 2.137 . S
O614 C605 1.247 . S
O615 Co602 2.244 . S
O615 C605 1.272 . S
O615 Co607 2.135 . S
Co616 O617 2.216 . S
Co616 O618 2.091 . S
Co616 O620 2.004 . S
Co616 O626 2.021 . S
Co616 O628 2.137 . S
Co616 O629 2.244 . S
O617 Co616 2.216 . S
O617 C624 1.247 . S
O618 Co616 2.091 . S
O618 C624 1.261 . S
C619 O628 1.247 . S
C619 O629 1.272 . S
O620 Co616 2.004 . S
O620 C625 1.259 . S
Co621 O622 2.061 . S
Co621 O627 2.052 . S
Co621 O629 2.135 . S
O622 Co621 2.061 . S
O622 C625 1.235 . S
C623 O626 1.238 . S
C623 O627 1.241 . S
C624 O617 1.247 . S
C624 O618 1.261 . S
C625 O620 1.259 . S
C625 O622 1.235 . S
O626 Co616 2.021 . S
O626 C623 1.238 . S
O627 Co621 2.052 . S
O627 C623 1.241 . S
O628 Co616 2.137 . S
O628 C619 1.247 . S
O629 Co616 2.244 . S
O629 C619 1.272 . S
O629 Co621 2.135 . S
Co630 O631 2.216 . S
Co630 O632 2.091 . S
Co630 O634 2.004 . S
Co630 O640 2.021 . S
Co630 O642 2.137 . S
Co630 O643 2.244 . S
O631 Co630 2.216 . S
O631 C638 1.247 . S
O632 Co630 2.091 . S
O632 C638 1.261 . S
C633 O642 1.247 . S
C633 O643 1.272 . S
O634 Co630 2.004 . S
O634 C639 1.259 . S
Co635 O636 2.061 . S
Co635 O641 2.052 . S
Co635 O643 2.135 . S
O636 Co635 2.061 . S
O636 C639 1.235 . S
C637 O640 1.238 . S
C637 O641 1.241 . S
C638 O631 1.247 . S
C638 O632 1.261 . S
C639 O634 1.259 . S
C639 O636 1.235 . S
O640 Co630 2.021 . S
O640 C637 1.238 . S
O641 Co635 2.052 . S
O641 C637 1.241 . S
O642 Co630 2.137 . S
O642 C633 1.247 . S
O643 Co630 2.244 . S
O643 C633 1.272 . S
O643 Co635 2.135 . S
Co644 O645 2.216 . S
Co644 O646 2.091 . S
Co644 O648 2.004 . S
Co644 O654 2.021 . S
Co644 O656 2.137 . S
Co644 O657 2.244 . S
O645 Co644 2.216 . S
O645 C652 1.247 . S
O646 Co644 2.091 . S
O646 C652 1.261 . S
C647 O656 1.247 . S
C647 O657 1.272 . S
O648 Co644 2.004 . S
O648 C653 1.259 . S
Co649 O650 2.061 . S
Co649 O655 2.052 . S
Co649 O657 2.135 . S
O650 Co649 2.061 . S
O650 C653 1.235 . S
C651 O654 1.238 . S
C651 O655 1.241 . S
C652 O645 1.247 . S
C652 O646 1.261 . S
C653 O648 1.259 . S
C653 O650 1.235 . S
O654 Co644 2.021 . S
O654 C651 1.238 . S
O655 Co649 2.052 . S
O655 C651 1.241 . S
O656 Co644 2.137 . S
O656 C647 1.247 . S
O657 Co644 2.244 . S
O657 C647 1.272 . S
O657 Co649 2.135 . S
Co658 O659 2.216 . S
Co658 O660 2.091 . S
Co658 O662 2.004 . S
Co658 O668 2.021 . S
Co658 O670 2.137 . S
Co658 O671 2.244 . S
O659 Co658 2.216 . S
O659 C666 1.247 . S
O660 Co658 2.091 . S
O660 C666 1.261 . S
C661 O670 1.247 . S
C661 O671 1.272 . S
O662 Co658 2.004 . S
O662 C667 1.259 . S
Co663 O664 2.061 . S
Co663 O669 2.052 . S
Co663 O671 2.135 . S
O664 Co663 2.061 . S
O664 C667 1.235 . S
C665 O668 1.238 . S
C665 O669 1.241 . S
C666 O659 1.247 . S
C666 O660 1.261 . S
C667 O662 1.259 . S
C667 O664 1.235 . S
O668 Co658 2.021 . S
O668 C665 1.238 . S
O669 Co663 2.052 . S
O669 C665 1.241 . S
O670 Co658 2.137 . S
O670 C661 1.247 . S
O671 Co658 2.244 . S
O671 C661 1.272 . S
O671 Co663 2.135 . S
Co672 O673 2.216 . S
Co672 O674 2.091 . S
Co672 O676 2.004 . S
Co672 O682 2.021 . S
Co672 O684 2.137 . S
Co672 O685 2.244 . S
O673 Co672 2.216 . S
O673 C680 1.247 . S
O674 Co672 2.091 . S
O674 C680 1.261 . S
C675 O684 1.247 . S
C675 O685 1.272 . S
O676 Co672 2.004 . S
O676 C681 1.259 . S
Co677 O678 2.061 . S
Co677 O683 2.052 . S
Co677 O685 2.135 . S
O678 Co677 2.061 . S
O678 C681 1.235 . S
C679 O682 1.238 . S
C679 O683 1.241 . S
C680 O673 1.247 . S
C680 O674 1.261 . S
C681 O676 1.259 . S
C681 O678 1.235 . S
O682 Co672 2.021 . S
O682 C679 1.238 . S
O683 Co677 2.052 . S
O683 C679 1.241 . S
O684 Co672 2.137 . S
O684 C675 1.247 . S
O685 Co672 2.244 . S
O685 C675 1.272 . S
O685 Co677 2.135 . S
Co686 O687 2.216 . S
Co686 O688 2.091 . S
Co686 O690 2.004 . S
Co686 O696 2.021 . S
Co686 O698 2.137 . S
Co686 O699 2.244 . S
O687 Co686 2.216 . S
O687 C694 1.247 . S
O688 Co686 2.091 . S
O688 C694 1.261 . S
C689 O698 1.247 . S
C689 O699 1.272 . S
O690 Co686 2.004 . S
O690 C695 1.259 . S
Co691 O692 2.061 . S
Co691 O697 2.052 . S
Co691 O699 2.135 . S
O692 Co691 2.061 . S
O692 C695 1.235 . S
C693 O696 1.238 . S
C693 O697 1.241 . S
C694 O687 1.247 . S
C694 O688 1.261 . S
C695 O690 1.259 . S
C695 O692 1.235 . S
O696 Co686 2.021 . S
O696 C693 1.238 . S
O697 Co691 2.052 . S
O697 C693 1.241 . S
O698 Co686 2.137 . S
O698 C689 1.247 . S
O699 Co686 2.244 . S
O699 C689 1.272 . S
O699 Co691 2.135 . S
Co700 O701 2.216 . S
Co700 O702 2.091 . S
Co700 O704 2.004 . S
Co700 O710 2.021 . S
Co700 O712 2.137 . S
Co700 O713 2.244 . S
O701 Co700 2.216 . S
O701 C708 1.247 . S
O702 Co700 2.091 . S
O702 C708 1.261 . S
C703 O712 1.247 . S
C703 O713 1.272 . S
O704 Co700 2.004 . S
O704 C709 1.259 . S
Co705 O706 2.061 . S
Co705 O711 2.052 . S
Co705 O713 2.135 . S
O706 Co705 2.061 . S
O706 C709 1.235 . S
C707 O710 1.238 . S
C707 O711 1.241 . S
C708 O701 1.247 . S
C708 O702 1.261 . S
C709 O704 1.259 . S
C709 O706 1.235 . S
O710 Co700 2.021 . S
O710 C707 1.238 . S
O711 Co705 2.052 . S
O711 C707 1.241 . S
O712 Co700 2.137 . S
O712 C703 1.247 . S
O713 Co700 2.244 . S
O713 C703 1.272 . S
O713 Co705 2.135 . S
Co714 O715 2.216 . S
Co714 O716 2.091 . S
Co714 O718 2.004 . S
Co714 O724 2.021 . S
Co714 O726 2.137 . S
Co714 O727 2.244 . S
O715 Co714 2.216 . S
O715 C722 1.247 . S
O716 Co714 2.091 . S
O716 C722 1.261 . S
C717 O726 1.247 . S
C717 O727 1.272 . S
O718 Co714 2.004 . S
O718 C723 1.259 . S
Co719 O720 2.061 . S
Co719 O725 2.052 . S
Co719 O727 2.135 . S
O720 Co719 2.061 . S
O720 C723 1.235 . S
C721 O724 1.238 . S
C721 O725 1.241 . S
C722 O715 1.247 . S
C722 O716 1.261 . S
C723 O718 1.259 . S
C723 O720 1.235 . S
O724 Co714 2.021 . S
O724 C721 1.238 . S
O725 Co719 2.052 . S
O725 C721 1.241 . S
O726 Co714 2.137 . S
O726 C717 1.247 . S
O727 Co714 2.244 . S
O727 C717 1.272 . S
O727 Co719 2.135 . S
Co728 O729 2.216 . S
Co728 O730 2.091 . S
Co728 O732 2.004 . S
Co728 O738 2.021 . S
Co728 O740 2.137 . S
Co728 O741 2.244 . S
O729 Co728 2.216 . S
O729 C736 1.247 . S
O730 Co728 2.091 . S
O730 C736 1.261 . S
C731 O740 1.247 . S
C731 O741 1.272 . S
O732 Co728 2.004 . S
O732 C737 1.259 . S
Co733 O734 2.061 . S
Co733 O739 2.052 . S
Co733 O741 2.135 . S
O734 Co733 2.061 . S
O734 C737 1.235 . S
C735 O738 1.238 . S
C735 O739 1.241 . S
C736 O729 1.247 . S
C736 O730 1.261 . S
C737 O732 1.259 . S
C737 O734 1.235 . S
O738 Co728 2.021 . S
O738 C735 1.238 . S
O739 Co733 2.052 . S
O739 C735 1.241 . S
O740 Co728 2.137 . S
O740 C731 1.247 . S
O741 Co728 2.244 . S
O741 C731 1.272 . S
O741 Co733 2.135 . S
Co742 O743 2.216 . S
Co742 O744 2.091 . S
Co742 O746 2.004 . S
Co742 O752 2.021 . S
Co742 O754 2.137 . S
Co742 O755 2.244 . S
O743 Co742 2.216 . S
O743 C750 1.247 . S
O744 Co742 2.091 . S
O744 C750 1.261 . S
C745 O754 1.247 . S
C745 O755 1.272 . S
O746 Co742 2.004 . S
O746 C751 1.259 . S
Co747 O748 2.061 . S
Co747 O753 2.052 . S
Co747 O755 2.135 . S
O748 Co747 2.061 . S
O748 C751 1.235 . S
C749 O752 1.238 . S
C749 O753 1.241 . S
C750 O743 1.247 . S
C750 O744 1.261 . S
C751 O746 1.259 . S
C751 O748 1.235 . S
O752 Co742 2.021 . S
O752 C749 1.238 . S
O753 Co747 2.052 . S
O753 C749 1.241 . S
O754 Co742 2.137 . S
O754 C745 1.247 . S
O755 Co742 2.244 . S
O755 C745 1.272 . S
O755 Co747 2.135 . S
Co756 O757 2.216 . S
Co756 O758 2.091 . S
Co756 O760 2.004 . S
Co756 O766 2.021 . S
Co756 O768 2.137 . S
Co756 O769 2.244 . S
O757 Co756 2.216 . S
O757 C764 1.247 . S
O758 Co756 2.091 . S
O758 C764 1.261 . S
C759 O768 1.247 . S
C759 O769 1.272 . S
O760 Co756 2.004 . S
O760 C765 1.259 . S
Co761 O762 2.061 . S
Co761 O767 2.052 . S
Co761 O769 2.135 . S
O762 Co761 2.061 . S
O762 C765 1.235 . S
C763 O766 1.238 . S
C763 O767 1.241 . S
C764 O757 1.247 . S
C764 O758 1.261 . S
C765 O760 1.259 . S
C765 O762 1.235 . S
O766 Co756 2.021 . S
O766 C763 1.238 . S
O767 Co761 2.052 . S
O767 C763 1.241 . S
O768 Co756 2.137 . S
O768 C759 1.247 . S
O769 Co756 2.244 . S
O769 C759 1.272 . S
O769 Co761 2.135 . S
Co770 O771 2.216 . S
Co770 O772 2.091 . S
Co770 O774 2.004 . S
Co770 O780 2.021 . S
Co770 O782 2.137 . S
Co770 O783 2.244 . S
O771 Co770 2.216 . S
O771 C778 1.247 . S
O772 Co770 2.091 . S
O772 C778 1.261 . S
C773 O782 1.247 . S
C773 O783 1.272 . S
O774 Co770 2.004 . S
O774 C779 1.259 . S
Co775 O776 2.061 . S
Co775 O781 2.052 . S
Co775 O783 2.135 . S
O776 Co775 2.061 . S
O776 C779 1.235 . S
C777 O780 1.238 . S
C777 O781 1.241 . S
C778 O771 1.247 . S
C778 O772 1.261 . S
C779 O774 1.259 . S
C779 O776 1.235 . S
O780 Co770 2.021 . S
O780 C777 1.238 . S
O781 Co775 2.052 . S
O781 C777 1.241 . S
O782 Co770 2.137 . S
O782 C773 1.247 . S
O783 Co770 2.244 . S
O783 C773 1.272 . S
O783 Co775 2.135 . S
Co784 O785 2.216 . S
Co784 O786 2.091 . S
Co784 O788 2.004 . S
Co784 O794 2.021 . S
Co784 O796 2.137 . S
Co784 O797 2.244 . S
O785 Co784 2.216 . S
O785 C792 1.247 . S
O786 Co784 2.091 . S
O786 C792 1.261 . S
C787 O796 1.247 . S
C787 O797 1.272 . S
O788 Co784 2.004 . S
O788 C793 1.259 . S
Co789 O790 2.061 . S
Co789 O795 2.052 . S
Co789 O797 2.135 . S
O790 Co789 2.061 . S
O790 C793 1.235 . S
C791 O794 1.238 . S
C791 O795 1.241 . S
C792 O785 1.247 . S
C792 O786 1.261 . S
C793 O788 1.259 . S
C793 O790 1.235 . S
O794 Co784 2.021 . S
O794 C791 1.238 . S
O795 Co789 2.052 . S
O795 C791 1.241 . S
O796 Co784 2.137 . S
O796 C787 1.247 . S
O797 Co784 2.244 . S
O797 C787 1.272 . S
O797 Co789 2.135 . S
Co798 O799 2.216 . S
Co798 O800 2.091 . S
Co798 O802 2.004 . S
Co798 O808 2.021 . S
Co798 O810 2.137 . S
Co798 O811 2.244 . S
O799 Co798 2.216 . S
O799 C806 1.247 . S
O800 Co798 2.091 . S
O800 C806 1.261 . S
C801 O810 1.247 . S
C801 O811 1.272 . S
O802 Co798 2.004 . S
O802 C807 1.259 . S
Co803 O804 2.061 . S
Co803 O809 2.052 . S
Co803 O811 2.135 . S
O804 Co803 2.061 . S
O804 C807 1.235 . S
C805 O808 1.238 . S
C805 O809 1.241 . S
C806 O799 1.247 . S
C806 O800 1.261 . S
C807 O802 1.259 . S
C807 O804 1.235 . S
O808 Co798 2.021 . S
O808 C805 1.238 . S
O809 Co803 2.052 . S
O809 C805 1.241 . S
O810 Co798 2.137 . S
O810 C801 1.247 . S
O811 Co798 2.244 . S
O811 C801 1.272 . S
O811 Co803 2.135 . S
Co812 O813 2.216 . S
Co812 O814 2.091 . S
Co812 O816 2.004 . S
Co812 O822 2.021 . S
Co812 O824 2.137 . S
Co812 O825 2.244 . S
O813 Co812 2.216 . S
O813 C820 1.247 . S
O814 Co812 2.091 . S
O814 C820 1.261 . S
C815 O824 1.247 . S
C815 O825 1.272 . S
O816 Co812 2.004 . S
O816 C821 1.259 . S
Co817 O818 2.061 . S
Co817 O823 2.052 . S
Co817 O825 2.135 . S
O818 Co817 2.061 . S
O818 C821 1.235 . S
C819 O822 1.238 . S
C819 O823 1.241 . S
C820 O813 1.247 . S
C820 O814 1.261 . S
C821 O816 1.259 . S
C821 O818 1.235 . S
O822 Co812 2.021 . S
O822 C819 1.238 . S
O823 Co817 2.052 . S
O823 C819 1.241 . S
O824 Co812 2.137 . S
O824 C815 1.247 . S
O825 Co812 2.244 . S
O825 C815 1.272 . S
O825 Co817 2.135 . S
Co826 O827 2.216 . S
Co826 O828 2.091 . S
Co826 O830 2.004 . S
Co826 O836 2.021 . S
Co826 O838 2.137 . S
Co826 O839 2.244 . S
O827 Co826 2.216 . S
O827 C834 1.247 . S
O828 Co826 2.091 . S
O828 C834 1.261 . S
C829 O838 1.247 . S
C829 O839 1.272 . S
O830 Co826 2.004 . S
O830 C835 1.259 . S
Co831 O832 2.061 . S
Co831 O837 2.052 . S
Co831 O839 2.135 . S
O832 Co831 2.061 . S
O832 C835 1.235 . S
C833 O836 1.238 . S
C833 O837 1.241 . S
C834 O827 1.247 . S
C834 O828 1.261 . S
C835 O830 1.259 . S
C835 O832 1.235 . S
O836 Co826 2.021 . S
O836 C833 1.238 . S
O837 Co831 2.052 . S
O837 C833 1.241 . S
O838 Co826 2.137 . S
O838 C829 1.247 . S
O839 Co826 2.244 . S
O839 C829 1.272 . S
O839 Co831 2.135 . S
Co840 O841 2.216 . S
Co840 O842 2.091 . S
Co840 O844 2.004 . S
Co840 O850 2.021 . S
Co840 O852 2.137 . S
Co840 O853 2.244 . S
O841 Co840 2.216 . S
O841 C848 1.247 . S
O842 Co840 2.091 . S
O842 C848 1.261 . S
C843 O852 1.247 . S
C843 O853 1.272 . S
O844 Co840 2.004 . S
O844 C849 1.259 . S
Co845 O846 2.061 . S
Co845 O851 2.052 . S
Co845 O853 2.135 . S
O846 Co845 2.061 . S
O846 C849 1.235 . S
C847 O850 1.238 . S
C847 O851 1.241 . S
C848 O841 1.247 . S
C848 O842 1.261 . S
C849 O844 1.259 . S
C849 O846 1.235 . S
O850 Co840 2.021 . S
O850 C847 1.238 . S
O851 Co845 2.052 . S
O851 C847 1.241 . S
O852 Co840 2.137 . S
O852 C843 1.247 . S
O853 Co840 2.244 . S
O853 C843 1.272 . S
O853 Co845 2.135 . S
Co854 O855 2.216 . S
Co854 O856 2.091 . S
Co854 O858 2.004 . S
Co854 O864 2.021 . S
Co854 O866 2.137 . S
Co854 O867 2.244 . S
O855 Co854 2.216 . S
O855 C862 1.247 . S
O856 Co854 2.091 . S
O856 C862 1.261 . S
C857 O866 1.247 . S
C857 O867 1.272 . S
O858 Co854 2.004 . S
O858 C863 1.259 . S
Co859 O860 2.061 . S
Co859 O865 2.052 . S
Co859 O867 2.135 . S
O860 Co859 2.061 . S
O860 C863 1.235 . S
C861 O864 1.238 . S
C861 O865 1.241 . S
C862 O855 1.247 . S
C862 O856 1.261 . S
C863 O858 1.259 . S
C863 O860 1.235 . S
O864 Co854 2.021 . S
O864 C861 1.238 . S
O865 Co859 2.052 . S
O865 C861 1.241 . S
O866 Co854 2.137 . S
O866 C857 1.247 . S
O867 Co854 2.244 . S
O867 C857 1.272 . S
O867 Co859 2.135 . S
Co868 O869 2.216 . S
Co868 O870 2.091 . S
Co868 O872 2.004 . S
Co868 O878 2.021 . S
Co868 O880 2.137 . S
Co868 O881 2.244 . S
O869 Co868 2.216 . S
O869 C876 1.247 . S
O870 Co868 2.091 . S
O870 C876 1.261 . S
C871 O880 1.247 . S
C871 O881 1.272 . S
O872 Co868 2.004 . S
O872 C877 1.259 . S
Co873 O874 2.061 . S
Co873 O879 2.052 . S
Co873 O881 2.135 . S
O874 Co873 2.061 . S
O874 C877 1.235 . S
C875 O878 1.238 . S
C875 O879 1.241 . S
C876 O869 1.247 . S
C876 O870 1.261 . S
C877 O872 1.259 . S
C877 O874 1.235 . S
O878 Co868 2.021 . S
O878 C875 1.238 . S
O879 Co873 2.052 . S
O879 C875 1.241 . S
O880 Co868 2.137 . S
O880 C871 1.247 . S
O881 Co868 2.244 . S
O881 C871 1.272 . S
O881 Co873 2.135 . S
Co882 O883 2.216 . S
Co882 O884 2.091 . S
Co882 O886 2.004 . S
Co882 O892 2.021 . S
Co882 O894 2.137 . S
Co882 O895 2.244 . S
O883 Co882 2.216 . S
O883 C890 1.247 . S
O884 Co882 2.091 . S
O884 C890 1.261 . S
C885 O894 1.247 . S
C885 O895 1.272 . S
O886 Co882 2.004 . S
O886 C891 1.259 . S
Co887 O888 2.061 . S
Co887 O893 2.052 . S
Co887 O895 2.135 . S
O888 Co887 2.061 . S
O888 C891 1.235 . S
C889 O892 1.238 . S
C889 O893 1.241 . S
C890 O883 1.247 . S
C890 O884 1.261 . S
C891 O886 1.259 . S
C891 O888 1.235 . S
O892 Co882 2.021 . S
O892 C889 1.238 . S
O893 Co887 2.052 . S
O893 C889 1.241 . S
O894 Co882 2.137 . S
O894 C885 1.247 . S
O895 Co882 2.244 . S
O895 C885 1.272 . S
O895 Co887 2.135 . S
Co896 O897 2.216 . S
Co896 O898 2.091 . S
Co896 O900 2.004 . S
Co896 O906 2.021 . S
Co896 O908 2.137 . S
Co896 O909 2.244 . S
O897 Co896 2.216 . S
O897 C904 1.247 . S
O898 Co896 2.091 . S
O898 C904 1.261 . S
C899 O908 1.247 . S
C899 O909 1.272 . S
O900 Co896 2.004 . S
O900 C905 1.259 . S
Co901 O902 2.061 . S
Co901 O907 2.052 . S
Co901 O909 2.135 . S
O902 Co901 2.061 . S
O902 C905 1.235 . S
C903 O906 1.238 . S
C903 O907 1.241 . S
C904 O897 1.247 . S
C904 O898 1.261 . S
C905 O900 1.259 . S
C905 O902 1.235 . S
O906 Co896 2.021 . S
O906 C903 1.238 . S
O907 Co901 2.052 . S
O907 C903 1.241 . S
O908 Co896 2.137 . S
O908 C899 1.247 . S
O909 Co896 2.244 . S
O909 C899 1.272 . S
O909 Co901 2.135 . S
Co910 O911 2.216 . S
Co910 O912 2.091 . S
Co910 O914 2.004 . S
Co910 O920 2.021 . S
Co910 O922 2.137 . S
Co910 O923 2.244 . S
O911 Co910 2.216 . S
O911 C918 1.247 . S
O912 Co910 2.091 . S
O912 C918 1.261 . S
C913 O922 1.247 . S
C913 O923 1.272 . S
O914 Co910 2.004 . S
O914 C919 1.259 . S
Co915 O916 2.061 . S
Co915 O921 2.052 . S
Co915 O923 2.135 . S
O916 Co915 2.061 . S
O916 C919 1.235 . S
C917 O920 1.238 . S
C917 O921 1.241 . S
C918 O911 1.247 . S
C918 O912 1.261 . S
C919 O914 1.259 . S
C919 O916 1.235 . S
O920 Co910 2.021 . S
O920 C917 1.238 . S
O921 Co915 2.052 . S
O921 C917 1.241 . S
O922 Co910 2.137 . S
O922 C913 1.247 . S
O923 Co910 2.244 . S
O923 C913 1.272 . S
O923 Co915 2.135 . S
Co924 O925 2.216 . S
Co924 O926 2.091 . S
Co924 O928 2.004 . S
Co924 O934 2.021 . S
Co924 O936 2.137 . S
Co924 O937 2.244 . S
O925 Co924 2.216 . S
O925 C932 1.247 . S
O926 Co924 2.091 . S
O926 C932 1.261 . S
C927 O936 1.247 . S
C927 O937 1.272 . S
O928 Co924 2.004 . S
O928 C933 1.259 . S
Co929 O930 2.061 . S
Co929 O935 2.052 . S
Co929 O937 2.135 . S
O930 Co929 2.061 . S
O930 C933 1.235 . S
C931 O934 1.238 . S
C931 O935 1.241 . S
C932 O925 1.247 . S
C932 O926 1.261 . S
C933 O928 1.259 . S
C933 O930 1.235 . S
O934 Co924 2.021 . S
O934 C931 1.238 . S
O935 Co929 2.052 . S
O935 C931 1.241 . S
O936 Co924 2.137 . S
O936 C927 1.247 . S
O937 Co924 2.244 . S
O937 C927 1.272 . S
O937 Co929 2.135 . S
Co938 O939 2.216 . S
Co938 O940 2.091 . S
Co938 O942 2.004 . S
Co938 O948 2.021 . S
Co938 O950 2.137 . S
Co938 O951 2.244 . S
O939 Co938 2.216 . S
O939 C946 1.247 . S
O940 Co938 2.091 . S
O940 C946 1.261 . S
C941 O950 1.247 . S
C941 O951 1.272 . S
O942 Co938 2.004 . S
O942 C947 1.259 . S
Co943 O944 2.061 . S
Co943 O949 2.052 . S
Co943 O951 2.135 . S
O944 Co943 2.061 . S
O944 C947 1.235 . S
C945 O948 1.238 . S
C945 O949 1.241 . S
C946 O939 1.247 . S
C946 O940 1.261 . S
C947 O942 1.259 . S
C947 O944 1.235 . S
O948 Co938 2.021 . S
O948 C945 1.238 . S
O949 Co943 2.052 . S
O949 C945 1.241 . S
O950 Co938 2.137 . S
O950 C941 1.247 . S
O951 Co938 2.244 . S
O951 C941 1.272 . S
O951 Co943 2.135 . S
Co952 O953 2.216 . S
Co952 O954 2.091 . S
Co952 O956 2.004 . S
Co952 O962 2.021 . S
Co952 O964 2.137 . S
Co952 O965 2.244 . S
O953 Co952 2.216 . S
O953 C960 1.247 . S
O954 Co952 2.091 . S
O954 C960 1.261 . S
C955 O964 1.247 . S
C955 O965 1.272 . S
O956 Co952 2.004 . S
O956 C961 1.259 . S
Co957 O958 2.061 . S
Co957 O963 2.052 . S
Co957 O965 2.135 . S
O958 Co957 2.061 . S
O958 C961 1.235 . S
C959 O962 1.238 . S
C959 O963 1.241 . S
C960 O953 1.247 . S
C960 O954 1.261 . S
C961 O956 1.259 . S
C961 O958 1.235 . S
O962 Co952 2.021 . S
O962 C959 1.238 . S
O963 Co957 2.052 . S
O963 C959 1.241 . S
O964 Co952 2.137 . S
O964 C955 1.247 . S
O965 Co952 2.244 . S
O965 C955 1.272 . S
O965 Co957 2.135 . S
Co966 O967 2.216 . S
Co966 O968 2.091 . S
Co966 O970 2.004 . S
Co966 O976 2.021 . S
Co966 O978 2.137 . S
Co966 O979 2.244 . S
O967 Co966 2.216 . S
O967 C974 1.247 . S
O968 Co966 2.091 . S
O968 C974 1.261 . S
C969 O978 1.247 . S
C969 O979 1.272 . S
O970 Co966 2.004 . S
O970 C975 1.259 . S
Co971 O972 2.061 . S
Co971 O977 2.052 . S
Co971 O979 2.135 . S
O972 Co971 2.061 . S
O972 C975 1.235 . S
C973 O976 1.238 . S
C973 O977 1.241 . S
C974 O967 1.247 . S
C974 O968 1.261 . S
C975 O970 1.259 . S
C975 O972 1.235 . S
O976 Co966 2.021 . S
O976 C973 1.238 . S
O977 Co971 2.052 . S
O977 C973 1.241 . S
O978 Co966 2.137 . S
O978 C969 1.247 . S
O979 Co966 2.244 . S
O979 C969 1.272 . S
O979 Co971 2.135 . S
Co980 O981 2.216 . S
Co980 O982 2.091 . S
Co980 O984 2.004 . S
Co980 O990 2.021 . S
Co980 O992 2.137 . S
Co980 O993 2.244 . S
O981 Co980 2.216 . S
O981 C988 1.247 . S
O982 Co980 2.091 . S
O982 C988 1.261 . S
C983 O992 1.247 . S
C983 O993 1.272 . S
O984 Co980 2.004 . S
O984 C989 1.259 . S
Co985 O986 2.061 . S
Co985 O991 2.052 . S
Co985 O993 2.135 . S
O986 Co985 2.061 . S
O986 C989 1.235 . S
C987 O990 1.238 . S
C987 O991 1.241 . S
C988 O981 1.247 . S
C988 O982 1.261 . S
C989 O984 1.259 . S
C989 O986 1.235 . S
O990 Co980 2.021 . S
O990 C987 1.238 . S
O991 Co985 2.052 . S
O991 C987 1.241 . S
O992 Co980 2.137 . S
O992 C983 1.247 . S
O993 Co980 2.244 . S
O993 C983 1.272 . S
O993 Co985 2.135 . S
Co994 O995 2.216 . S
Co994 O996 2.091 . S
Co994 O998 2.004 . S
Co994 O1004 2.021 . S
Co994 O1006 2.137 . S
Co994 O1007 2.244 . S
O995 Co994 2.216 . S
O995 C1002 1.247 . S
O996 Co994 2.091 . S
O996 C1002 1.261 . S
C997 O1006 1.247 . S
C997 O1007 1.272 . S
O998 Co994 2.004 . S
O998 C1003 1.259 . S
Co999 O1000 2.061 . S
Co999 O1005 2.052 . S
Co999 O1007 2.135 . S
O1000 Co999 2.061 . S
O1000 C1003 1.235 . S
C1001 O1004 1.238 . S
C1001 O1005 1.241 . S
C1002 O995 1.247 . S
C1002 O996 1.261 . S
C1003 O998 1.259 . S
C1003 O1000 1.235 . S
O1004 Co994 2.021 . S
O1004 C1001 1.238 . S
O1005 Co999 2.052 . S
O1005 C1001 1.241 . S
O1006 Co994 2.137 . S
O1006 C997 1.247 . S
O1007 Co994 2.244 . S
O1007 C997 1.272 . S
O1007 Co999 2.135 . S
Co1008 O1009 2.216 . S
Co1008 O1010 2.091 . S
Co1008 O1012 2.004 . S
Co1008 O1018 2.021 . S
Co1008 O1020 2.137 . S
Co1008 O1021 2.244 . S
O1009 Co1008 2.216 . S
O1009 C1016 1.247 . S
O1010 Co1008 2.091 . S
O1010 C1016 1.261 . S
C1011 O1020 1.247 . S
C1011 O1021 1.272 . S
O1012 Co1008 2.004 . S
O1012 C1017 1.259 . S
Co1013 O1014 2.061 . S
Co1013 O1019 2.052 . S
Co1013 O1021 2.135 . S
O1014 Co1013 2.061 . S
O1014 C1017 1.235 . S
C1015 O1018 1.238 . S
C1015 O1019 1.241 . S
C1016 O1009 1.247 . S
C1016 O1010 1.261 . S
C1017 O1012 1.259 . S
C1017 O1014 1.235 . S
O1018 Co1008 2.021 . S
O1018 C1015 1.238 . S
O1019 Co1013 2.052 . S
O1019 C1015 1.241 . S
O1020 Co1008 2.137 . S
O1020 C1011 1.247 . S
O1021 Co1008 2.244 . S
O1021 C1011 1.272 . S
O1021 Co1013 2.135 . S
Co1022 O1023 2.216 . S
Co1022 O1024 2.091 . S
Co1022 O1026 2.004 . S
Co1022 O1032 2.021 . S
Co1022 O1034 2.137 . S
Co1022 O1035 2.244 . S
O1023 Co1022 2.216 . S
O1023 C1030 1.247 . S
O1024 Co1022 2.091 . S
O1024 C1030 1.261 . S
C1025 O1034 1.247 . S
C1025 O1035 1.272 . S
O1026 Co1022 2.004 . S
O1026 C1031 1.259 . S
Co1027 O1028 2.061 . S
Co1027 O1033 2.052 . S
Co1027 O1035 2.135 . S
O1028 Co1027 2.061 . S
O1028 C1031 1.235 . S
C1029 O1032 1.238 . S
C1029 O1033 1.241 . S
C1030 O1023 1.247 . S
C1030 O1024 1.261 . S
C1031 O1026 1.259 . S
C1031 O1028 1.235 . S
O1032 Co1022 2.021 . S
O1032 C1029 1.238 . S
O1033 Co1027 2.052 . S
O1033 C1029 1.241 . S
O1034 Co1022 2.137 . S
O1034 C1025 1.247 . S
O1035 Co1022 2.244 . S
O1035 C1025 1.272 . S
O1035 Co1027 2.135 . S
Co1036 O1037 2.216 . S
Co1036 O1038 2.091 . S
Co1036 O1040 2.004 . S
Co1036 O1046 2.021 . S
Co1036 O1048 2.137 . S
Co1036 O1049 2.244 . S
O1037 Co1036 2.216 . S
O1037 C1044 1.247 . S
O1038 Co1036 2.091 . S
O1038 C1044 1.261 . S
C1039 O1048 1.247 . S
C1039 O1049 1.272 . S
O1040 Co1036 2.004 . S
O1040 C1045 1.259 . S
Co1041 O1042 2.061 . S
Co1041 O1047 2.052 . S
Co1041 O1049 2.135 . S
O1042 Co1041 2.061 . S
O1042 C1045 1.235 . S
C1043 O1046 1.238 . S
C1043 O1047 1.241 . S
C1044 O1037 1.247 . S
C1044 O1038 1.261 . S
C1045 O1040 1.259 . S
C1045 O1042 1.235 . S
O1046 Co1036 2.021 . S
O1046 C1043 1.238 . S
O1047 Co1041 2.052 . S
O1047 C1043 1.241 . S
O1048 Co1036 2.137 . S
O1048 C1039 1.247 . S
O1049 Co1036 2.244 . S
O1049 C1039 1.272 . S
O1049 Co1041 2.135 . S
Co1050 O1051 2.216 . S
Co1050 O1052 2.091 . S
Co1050 O1054 2.004 . S
Co1050 O1060 2.021 . S
Co1050 O1062 2.137 . S
Co1050 O1063 2.244 . S
O1051 Co1050 2.216 . S
O1051 C1058 1.247 . S
O1052 Co1050 2.091 . S
O1052 C1058 1.261 . S
C1053 O1062 1.247 . S
C1053 O1063 1.272 . S
O1054 Co1050 2.004 . S
O1054 C1059 1.259 . S
Co1055 O1056 2.061 . S
Co1055 O1061 2.052 . S
Co1055 O1063 2.135 . S
O1056 Co1055 2.061 . S
O1056 C1059 1.235 . S
C1057 O1060 1.238 . S
C1057 O1061 1.241 . S
C1058 O1051 1.247 . S
C1058 O1052 1.261 . S
C1059 O1054 1.259 . S
C1059 O1056 1.235 . S
O1060 Co1050 2.021 . S
O1060 C1057 1.238 . S
O1061 Co1055 2.052 . S
O1061 C1057 1.241 . S
O1062 Co1050 2.137 . S
O1062 C1053 1.247 . S
O1063 Co1050 2.244 . S
O1063 C1053 1.272 . S
O1063 Co1055 2.135 . S
Co1064 O1065 2.216 . S
Co1064 O1066 2.091 . S
Co1064 O1068 2.004 . S
Co1064 O1074 2.021 . S
Co1064 O1076 2.137 . S
Co1064 O1077 2.244 . S
O1065 Co1064 2.216 . S
O1065 C1072 1.247 . S
O1066 Co1064 2.091 . S
O1066 C1072 1.261 . S
C1067 O1076 1.247 . S
C1067 O1077 1.272 . S
O1068 Co1064 2.004 . S
O1068 C1073 1.259 . S
Co1069 O1070 2.061 . S
Co1069 O1075 2.052 . S
Co1069 O1077 2.135 . S
O1070 Co1069 2.061 . S
O1070 C1073 1.235 . S
C1071 O1074 1.238 . S
C1071 O1075 1.241 . S
C1072 O1065 1.247 . S
C1072 O1066 1.261 . S
C1073 O1068 1.259 . S
C1073 O1070 1.235 . S
O1074 Co1064 2.021 . S
O1074 C1071 1.238 . S
O1075 Co1069 2.052 . S
O1075 C1071 1.241 . S
O1076 Co1064 2.137 . S
O1076 C1067 1.247 . S
O1077 Co1064 2.244 . S
O1077 C1067 1.272 . S
O1077 Co1069 2.135 . S
Co1078 O1079 2.216 . S
Co1078 O1080 2.091 . S
Co1078 O1082 2.004 . S
Co1078 O1088 2.021 . S
Co1078 O1090 2.137 . S
Co1078 O1091 2.244 . S
O1079 Co1078 2.216 . S
O1079 C1086 1.247 . S
O1080 Co1078 2.091 . S
O1080 C1086 1.261 . S
C1081 O1090 1.247 . S
C1081 O1091 1.272 . S
O1082 Co1078 2.004 . S
O1082 C1087 1.259 . S
Co1083 O1084 2.061 . S
Co1083 O1089 2.052 . S
Co1083 O1091 2.135 . S
O1084 Co1083 2.061 . S
O1084 C1087 1.235 . S
C1085 O1088 1.238 . S
C1085 O1089 1.241 . S
C1086 O1079 1.247 . S
C1086 O1080 1.261 . S
C1087 O1082 1.259 . S
C1087 O1084 1.235 . S
O1088 Co1078 2.021 . S
O1088 C1085 1.238 . S
O1089 Co1083 2.052 . S
O1089 C1085 1.241 . S
O1090 Co1078 2.137 . S
O1090 C1081 1.247 . S
O1091 Co1078 2.244 . S
O1091 C1081 1.272 . S
O1091 Co1083 2.135 . S
Co1092 O1093 2.216 . S
Co1092 O1094 2.091 . S
Co1092 O1096 2.004 . S
Co1092 O1102 2.021 . S
Co1092 O1104 2.137 . S
Co1092 O1105 2.244 . S
O1093 Co1092 2.216 . S
O1093 C1100 1.247 . S
O1094 Co1092 2.091 . S
O1094 C1100 1.261 . S
C1095 O1104 1.247 . S
C1095 O1105 1.272 . S
O1096 Co1092 2.004 . S
O1096 C1101 1.259 . S
Co1097 O1098 2.061 . S
Co1097 O1103 2.052 . S
Co1097 O1105 2.135 . S
O1098 Co1097 2.061 . S
O1098 C1101 1.235 . S
C1099 O1102 1.238 . S
C1099 O1103 1.241 . S
C1100 O1093 1.247 . S
C1100 O1094 1.261 . S
C1101 O1096 1.259 . S
C1101 O1098 1.235 . S
O1102 Co1092 2.021 . S
O1102 C1099 1.238 . S
O1103 Co1097 2.052 . S
O1103 C1099 1.241 . S
O1104 Co1092 2.137 . S
O1104 C1095 1.247 . S
O1105 Co1092 2.244 . S
O1105 C1095 1.272 . S
O1105 Co1097 2.135 . S
Co1106 O1107 2.216 . S
Co1106 O1108 2.091 . S
Co1106 O1110 2.004 . S
Co1106 O1116 2.021 . S
Co1106 O1118 2.137 . S
Co1106 O1119 2.244 . S
O1107 Co1106 2.216 . S
O1107 C1114 1.247 . S
O1108 Co1106 2.091 . S
O1108 C1114 1.261 . S
C1109 O1118 1.247 . S
C1109 O1119 1.272 . S
O1110 Co1106 2.004 . S
O1110 C1115 1.259 . S
Co1111 O1112 2.061 . S
Co1111 O1117 2.052 . S
Co1111 O1119 2.135 . S
O1112 Co1111 2.061 . S
O1112 C1115 1.235 . S
C1113 O1116 1.238 . S
C1113 O1117 1.241 . S
C1114 O1107 1.247 . S
C1114 O1108 1.261 . S
C1115 O1110 1.259 . S
C1115 O1112 1.235 . S
O1116 Co1106 2.021 . S
O1116 C1113 1.238 . S
O1117 Co1111 2.052 . S
O1117 C1113 1.241 . S
O1118 Co1106 2.137 . S
O1118 C1109 1.247 . S
O1119 Co1106 2.244 . S
O1119 C1109 1.272 . S
O1119 Co1111 2.135 . S
Co1120 O1121 2.216 . S
Co1120 O1122 2.091 . S
Co1120 O1124 2.004 . S
Co1120 O1130 2.021 . S
Co1120 O1132 2.137 . S
Co1120 O1133 2.244 . S
O1121 Co1120 2.216 . S
O1121 C1128 1.247 . S
O1122 Co1120 2.091 . S
O1122 C1128 1.261 . S
C1123 O1132 1.247 . S
C1123 O1133 1.272 . S
O1124 Co1120 2.004 . S
O1124 C1129 1.259 . S
Co1125 O1126 2.061 . S
Co1125 O1131 2.052 . S
Co1125 O1133 2.135 . S
O1126 Co1125 2.061 . S
O1126 C1129 1.235 . S
C1127 O1130 1.238 . S
C1127 O1131 1.241 . S
C1128 O1121 1.247 . S
C1128 O1122 1.261 . S
C1129 O1124 1.259 . S
C1129 O1126 1.235 . S
O1130 Co1120 2.021 . S
O1130 C1127 1.238 . S
O1131 Co1125 2.052 . S
O1131 C1127 1.241 . S
O1132 Co1120 2.137 . S
O1132 C1123 1.247 . S
O1133 Co1120 2.244 . S
O1133 C1123 1.272 . S
O1133 Co1125 2.135 . S
Co1134 O1135 2.216 . S
Co1134 O1136 2.091 . S
Co1134 O1138 2.004 . S
Co1134 O1144 2.021 . S
Co1134 O1146 2.137 . S
Co1134 O1147 2.244 . S
O1135 Co1134 2.216 . S
O1135 C1142 1.247 . S
O1136 Co1134 2.091 . S
O1136 C1142 1.261 . S
C1137 O1146 1.247 . S
C1137 O1147 1.272 . S
O1138 Co1134 2.004 . S
O1138 C1143 1.259 . S
Co1139 O1140 2.061 . S
Co1139 O1145 2.052 . S
Co1139 O1147 2.135 . S
O1140 Co1139 2.061 . S
O1140 C1143 1.235 . S
C1141 O1144 1.238 . S
C1141 O1145 1.241 . S
C1142 O1135 1.247 . S
C1142 O1136 1.261 . S
C1143 O1138 1.259 . S
C1143 O1140 1.235 . S
O1144 Co1134 2.021 . S
O1144 C1141 1.238 . S
O1145 Co1139 2.052 . S
O1145 C1141 1.241 . S
O1146 Co1134 2.137 . S
O1146 C1137 1.247 . S
O1147 Co1134 2.244 . S
O1147 C1137 1.272 . S
O1147 Co1139 2.135 . S
Co1148 O1149 2.216 . S
Co1148 O1150 2.091 . S
Co1148 O1152 2.004 . S
Co1148 O1158 2.021 . S
Co1148 O1160 2.137 . S
Co1148 O1161 2.244 . S
O1149 Co1148 2.216 . S
O1149 C1156 1.247 . S
O1150 Co1148 2.091 . S
O1150 C1156 1.261 . S
C1151 O1160 1.247 . S
C1151 O1161 1.272 . S
O1152 Co1148 2.004 . S
O1152 C1157 1.259 . S
Co1153 O1154 2.061 . S
Co1153 O1159 2.052 . S
Co1153 O1161 2.135 . S
O1154 Co1153 2.061 . S
O1154 C1157 1.235 . S
C1155 O1158 1.238 . S
C1155 O1159 1.241 . S
C1156 O1149 1.247 . S
C1156 O1150 1.261 . S
C1157 O1152 1.259 . S
C1157 O1154 1.235 . S
O1158 Co1148 2.021 . S
O1158 C1155 1.238 . S
O1159 Co1153 2.052 . S
O1159 C1155 1.241 . S
O1160 Co1148 2.137 . S
O1160 C1151 1.247 . S
O1161 Co1148 2.244 . S
O1161 C1151 1.272 . S
O1161 Co1153 2.135 . S
Co1162 O1163 2.216 . S
Co1162 O1164 2.091 . S
Co1162 O1166 2.004 . S
Co1162 O1172 2.021 . S
Co1162 O1174 2.137 . S
Co1162 O1175 2.244 . S
O1163 Co1162 2.216 . S
O1163 C1170 1.247 . S
O1164 Co1162 2.091 . S
O1164 C1170 1.261 . S
C1165 O1174 1.247 . S
C1165 O1175 1.272 . S
O1166 Co1162 2.004 . S
O1166 C1171 1.259 . S
Co1167 O1168 2.061 . S
Co1167 O1173 2.052 . S
Co1167 O1175 2.135 . S
O1168 Co1167 2.061 . S
O1168 C1171 1.235 . S
C1169 O1172 1.238 . S
C1169 O1173 1.241 . S
C1170 O1163 1.247 . S
C1170 O1164 1.261 . S
C1171 O1166 1.259 . S
C1171 O1168 1.235 . S
O1172 Co1162 2.021 . S
O1172 C1169 1.238 . S
O1173 Co1167 2.052 . S
O1173 C1169 1.241 . S
O1174 Co1162 2.137 . S
O1174 C1165 1.247 . S
O1175 Co1162 2.244 . S
O1175 C1165 1.272 . S
O1175 Co1167 2.135 . S
Co1176 O1177 2.216 . S
Co1176 O1178 2.091 . S
Co1176 O1180 2.004 . S
Co1176 O1186 2.021 . S
Co1176 O1188 2.137 . S
Co1176 O1189 2.244 . S
O1177 Co1176 2.216 . S
O1177 C1184 1.247 . S
O1178 Co1176 2.091 . S
O1178 C1184 1.261 . S
C1179 O1188 1.247 . S
C1179 O1189 1.272 . S
O1180 Co1176 2.004 . S
O1180 C1185 1.259 . S
Co1181 O1182 2.061 . S
Co1181 O1187 2.052 . S
Co1181 O1189 2.135 . S
O1182 Co1181 2.061 . S
O1182 C1185 1.235 . S
C1183 O1186 1.238 . S
C1183 O1187 1.241 . S
C1184 O1177 1.247 . S
C1184 O1178 1.261 . S
C1185 O1180 1.259 . S
C1185 O1182 1.235 . S
O1186 Co1176 2.021 . S
O1186 C1183 1.238 . S
O1187 Co1181 2.052 . S
O1187 C1183 1.241 . S
O1188 Co1176 2.137 . S
O1188 C1179 1.247 . S
O1189 Co1176 2.244 . S
O1189 C1179 1.272 . S
O1189 Co1181 2.135 . S
Co1190 O1191 2.216 . S
Co1190 O1192 2.091 . S
Co1190 O1194 2.004 . S
Co1190 O1200 2.021 . S
Co1190 O1202 2.137 . S
Co1190 O1203 2.244 . S
O1191 Co1190 2.216 . S
O1191 C1198 1.247 . S
O1192 Co1190 2.091 . S
O1192 C1198 1.261 . S
C1193 O1202 1.247 . S
C1193 O1203 1.272 . S
O1194 Co1190 2.004 . S
O1194 C1199 1.259 . S
Co1195 O1196 2.061 . S
Co1195 O1201 2.052 . S
Co1195 O1203 2.135 . S
O1196 Co1195 2.061 . S
O1196 C1199 1.235 . S
C1197 O1200 1.238 . S
C1197 O1201 1.241 . S
C1198 O1191 1.247 . S
C1198 O1192 1.261 . S
C1199 O1194 1.259 . S
C1199 O1196 1.235 . S
O1200 Co1190 2.021 . S
O1200 C1197 1.238 . S
O1201 Co1195 2.052 . S
O1201 C1197 1.241 . S
O1202 Co1190 2.137 . S
O1202 C1193 1.247 . S
O1203 Co1190 2.244 . S
O1203 C1193 1.272 . S
O1203 Co1195 2.135 . S
Co1204 O1205 2.216 . S
Co1204 O1206 2.091 . S
Co1204 O1208 2.004 . S
Co1204 O1214 2.021 . S
Co1204 O1216 2.137 . S
Co1204 O1217 2.244 . S
O1205 Co1204 2.216 . S
O1205 C1212 1.247 . S
O1206 Co1204 2.091 . S
O1206 C1212 1.261 . S
C1207 O1216 1.247 . S
C1207 O1217 1.272 . S
O1208 Co1204 2.004 . S
O1208 C1213 1.259 . S
Co1209 O1210 2.061 . S
Co1209 O1215 2.052 . S
Co1209 O1217 2.135 . S
O1210 Co1209 2.061 . S
O1210 C1213 1.235 . S
C1211 O1214 1.238 . S
C1211 O1215 1.241 . S
C1212 O1205 1.247 . S
C1212 O1206 1.261 . S
C1213 O1208 1.259 . S
C1213 O1210 1.235 . S
O1214 Co1204 2.021 . S
O1214 C1211 1.238 . S
O1215 Co1209 2.052 . S
O1215 C1211 1.241 . S
O1216 Co1204 2.137 . S
O1216 C1207 1.247 . S
O1217 Co1204 2.244 . S
O1217 C1207 1.272 . S
O1217 Co1209 2.135 . S
Co1218 O1219 2.216 . S
Co1218 O1220 2.091 . S
Co1218 O1222 2.004 . S
Co1218 O1228 2.021 . S
Co1218 O1230 2.137 . S
Co1218 O1231 2.244 . S
O1219 Co1218 2.216 . S
O1219 C1226 1.247 . S
O1220 Co1218 2.091 . S
O1220 C1226 1.261 . S
C1221 O1230 1.247 . S
C1221 O1231 1.272 . S
O1222 Co1218 2.004 . S
O1222 C1227 1.259 . S
Co1223 O1224 2.061 . S
Co1223 O1229 2.052 . S
Co1223 O1231 2.135 . S
O1224 Co1223 2.061 . S
O1224 C1227 1.235 . S
C1225 O1228 1.238 . S
C1225 O1229 1.241 . S
C1226 O1219 1.247 . S
C1226 O1220 1.261 . S
C1227 O1222 1.259 . S
C1227 O1224 1.235 . S
O1228 Co1218 2.021 . S
O1228 C1225 1.238 . S
O1229 Co1223 2.052 . S
O1229 C1225 1.241 . S
O1230 Co1218 2.137 . S
O1230 C1221 1.247 . S
O1231 Co1218 2.244 . S
O1231 C1221 1.272 . S
O1231 Co1223 2.135 . S
Co1232 O1233 2.216 . S
Co1232 O1234 2.091 . S
Co1232 O1236 2.004 . S
Co1232 O1242 2.021 . S
Co1232 O1244 2.137 . S
Co1232 O1245 2.244 . S
O1233 Co1232 2.216 . S
O1233 C1240 1.247 . S
O1234 Co1232 2.091 . S
O1234 C1240 1.261 . S
C1235 O1244 1.247 . S
C1235 O1245 1.272 . S
O1236 Co1232 2.004 . S
O1236 C1241 1.259 . S
Co1237 O1238 2.061 . S
Co1237 O1243 2.052 . S
Co1237 O1245 2.135 . S
O1238 Co1237 2.061 . S
O1238 C1241 1.235 . S
C1239 O1242 1.238 . S
C1239 O1243 1.241 . S
C1240 O1233 1.247 . S
C1240 O1234 1.261 . S
C1241 O1236 1.259 . S
C1241 O1238 1.235 . S
O1242 Co1232 2.021 . S
O1242 C1239 1.238 . S
O1243 Co1237 2.052 . S
O1243 C1239 1.241 . S
O1244 Co1232 2.137 . S
O1244 C1235 1.247 . S
O1245 Co1232 2.244 . S
O1245 C1235 1.272 . S
O1245 Co1237 2.135 . S
Co1246 O1247 2.216 . S
Co1246 O1248 2.091 . S
Co1246 O1250 2.004 . S
Co1246 O1256 2.021 . S
Co1246 O1258 2.137 . S
Co1246 O1259 2.244 . S
O1247 Co1246 2.216 . S
O1247 C1254 1.247 . S
O1248 Co1246 2.091 . S
O1248 C1254 1.261 . S
C1249 O1258 1.247 . S
C1249 O1259 1.272 . S
O1250 Co1246 2.004 . S
O1250 C1255 1.259 . S
Co1251 O1252 2.061 . S
Co1251 O1257 2.052 . S
Co1251 O1259 2.135 . S
O1252 Co1251 2.061 . S
O1252 C1255 1.235 . S
C1253 O1256 1.238 . S
C1253 O1257 1.241 . S
C1254 O1247 1.247 . S
C1254 O1248 1.261 . S
C1255 O1250 1.259 . S
C1255 O1252 1.235 . S
O1256 Co1246 2.021 . S
O1256 C1253 1.238 . S
O1257 Co1251 2.052 . S
O1257 C1253 1.241 . S
O1258 Co1246 2.137 . S
O1258 C1249 1.247 . S
O1259 Co1246 2.244 . S
O1259 C1249 1.272 . S
O1259 Co1251 2.135 . S
Co1260 O1261 2.216 . S
Co1260 O1262 2.091 . S
Co1260 O1264 2.004 . S
Co1260 O1270 2.021 . S
Co1260 O1272 2.137 . S
Co1260 O1273 2.244 . S
O1261 Co1260 2.216 . S
O1261 C1268 1.247 . S
O1262 Co1260 2.091 . S
O1262 C1268 1.261 . S
C1263 O1272 1.247 . S
C1263 O1273 1.272 . S
O1264 Co1260 2.004 . S
O1264 C1269 1.259 . S
Co1265 O1266 2.061 . S
Co1265 O1271 2.052 . S
Co1265 O1273 2.135 . S
O1266 Co1265 2.061 . S
O1266 C1269 1.235 . S
C1267 O1270 1.238 . S
C1267 O1271 1.241 . S
C1268 O1261 1.247 . S
C1268 O1262 1.261 . S
C1269 O1264 1.259 . S
C1269 O1266 1.235 . S
O1270 Co1260 2.021 . S
O1270 C1267 1.238 . S
O1271 Co1265 2.052 . S
O1271 C1267 1.241 . S
O1272 Co1260 2.137 . S
O1272 C1263 1.247 . S
O1273 Co1260 2.244 . S
O1273 C1263 1.272 . S
O1273 Co1265 2.135 . S
Co1274 O1275 2.216 . S
Co1274 O1276 2.091 . S
Co1274 O1278 2.004 . S
Co1274 O1284 2.021 . S
Co1274 O1286 2.137 . S
Co1274 O1287 2.244 . S
O1275 Co1274 2.216 . S
O1275 C1282 1.247 . S
O1276 Co1274 2.091 . S
O1276 C1282 1.261 . S
C1277 O1286 1.247 . S
C1277 O1287 1.272 . S
O1278 Co1274 2.004 . S
O1278 C1283 1.259 . S
Co1279 O1280 2.061 . S
Co1279 O1285 2.052 . S
Co1279 O1287 2.135 . S
O1280 Co1279 2.061 . S
O1280 C1283 1.235 . S
C1281 O1284 1.238 . S
C1281 O1285 1.241 . S
C1282 O1275 1.247 . S
C1282 O1276 1.261 . S
C1283 O1278 1.259 . S
C1283 O1280 1.235 . S
O1284 Co1274 2.021 . S
O1284 C1281 1.238 . S
O1285 Co1279 2.052 . S
O1285 C1281 1.241 . S
O1286 Co1274 2.137 . S
O1286 C1277 1.247 . S
O1287 Co1274 2.244 . S
O1287 C1277 1.272 . S
O1287 Co1279 2.135 . S
Co1288 O1289 2.216 . S
Co1288 O1290 2.091 . S
Co1288 O1292 2.004 . S
Co1288 O1298 2.021 . S
Co1288 O1300 2.137 . S
Co1288 O1301 2.244 . S
O1289 Co1288 2.216 . S
O1289 C1296 1.247 . S
O1290 Co1288 2.091 . S
O1290 C1296 1.261 . S
C1291 O1300 1.247 . S
C1291 O1301 1.272 . S
O1292 Co1288 2.004 . S
O1292 C1297 1.259 . S
Co1293 O1294 2.061 . S
Co1293 O1299 2.052 . S
Co1293 O1301 2.135 . S
O1294 Co1293 2.061 . S
O1294 C1297 1.235 . S
C1295 O1298 1.238 . S
C1295 O1299 1.241 . S
C1296 O1289 1.247 . S
C1296 O1290 1.261 . S
C1297 O1292 1.259 . S
C1297 O1294 1.235 . S
O1298 Co1288 2.021 . S
O1298 C1295 1.238 . S
O1299 Co1293 2.052 . S
O1299 C1295 1.241 . S
O1300 Co1288 2.137 . S
O1300 C1291 1.247 . S
O1301 Co1288 2.244 . S
O1301 C1291 1.272 . S
O1301 Co1293 2.135 . S
Co1302 O1303 2.216 . S
Co1302 O1304 2.091 . S
Co1302 O1306 2.004 . S
Co1302 O1312 2.021 . S
Co1302 O1314 2.137 . S
Co1302 O1315 2.244 . S
O1303 Co1302 2.216 . S
O1303 C1310 1.247 . S
O1304 Co1302 2.091 . S
O1304 C1310 1.261 . S
C1305 O1314 1.247 . S
C1305 O1315 1.272 . S
O1306 Co1302 2.004 . S
O1306 C1311 1.259 . S
Co1307 O1308 2.061 . S
Co1307 O1313 2.052 . S
Co1307 O1315 2.135 . S
O1308 Co1307 2.061 . S
O1308 C1311 1.235 . S
C1309 O1312 1.238 . S
C1309 O1313 1.241 . S
C1310 O1303 1.247 . S
C1310 O1304 1.261 . S
C1311 O1306 1.259 . S
C1311 O1308 1.235 . S
O1312 Co1302 2.021 . S
O1312 C1309 1.238 . S
O1313 Co1307 2.052 . S
O1313 C1309 1.241 . S
O1314 Co1302 2.137 . S
O1314 C1305 1.247 . S
O1315 Co1302 2.244 . S
O1315 C1305 1.272 . S
O1315 Co1307 2.135 . S
Co1316 O1317 2.216 . S
Co1316 O1318 2.091 . S
Co1316 O1320 2.004 . S
Co1316 O1326 2.021 . S
Co1316 O1328 2.137 . S
Co1316 O1329 2.244 . S
O1317 Co1316 2.216 . S
O1317 C1324 1.247 . S
O1318 Co1316 2.091 . S
O1318 C1324 1.261 . S
C1319 O1328 1.247 . S
C1319 O1329 1.272 . S
O1320 Co1316 2.004 . S
O1320 C1325 1.259 . S
Co1321 O1322 2.061 . S
Co1321 O1327 2.052 . S
Co1321 O1329 2.135 . S
O1322 Co1321 2.061 . S
O1322 C1325 1.235 . S
C1323 O1326 1.238 . S
C1323 O1327 1.241 . S
C1324 O1317 1.247 . S
C1324 O1318 1.261 . S
C1325 O1320 1.259 . S
C1325 O1322 1.235 . S
O1326 Co1316 2.021 . S
O1326 C1323 1.238 . S
O1327 Co1321 2.052 . S
O1327 C1323 1.241 . S
O1328 Co1316 2.137 . S
O1328 C1319 1.247 . S
O1329 Co1316 2.244 . S
O1329 C1319 1.272 . S
O1329 Co1321 2.135 . S
Co1330 O1331 2.216 . S
Co1330 O1332 2.091 . S
Co1330 O1334 2.004 . S
Co1330 O1340 2.021 . S
Co1330 O1342 2.137 . S
Co1330 O1343 2.244 . S
O1331 Co1330 2.216 . S
O1331 C1338 1.247 . S
O1332 Co1330 2.091 . S
O1332 C1338 1.261 . S
C1333 O1342 1.247 . S
C1333 O1343 1.272 . S
O1334 Co1330 2.004 . S
O1334 C1339 1.259 . S
Co1335 O1336 2.061 . S
Co1335 O1341 2.052 . S
Co1335 O1343 2.135 . S
O1336 Co1335 2.061 . S
O1336 C1339 1.235 . S
C1337 O1340 1.238 . S
C1337 O1341 1.241 . S
C1338 O1331 1.247 . S
C1338 O1332 1.261 . S
C1339 O1334 1.259 . S
C1339 O1336 1.235 . S
O1340 Co1330 2.021 . S
O1340 C1337 1.238 . S
O1341 Co1335 2.052 . S
O1341 C1337 1.241 . S
O1342 Co1330 2.137 . S
O1342 C1333 1.247 . S
O1343 Co1330 2.244 . S
O1343 C1333 1.272 . S
O1343 Co1335 2.135 . S
H1344 C1352 0.929 . S
H1345 C1354 0.930 . S
H1346 C1356 0.930 . S
H1347 C1359 0.929 . S
H1348 C1362 0.930 . S
H1349 C1364 0.960 . S
H1350 C1364 0.960 . S
H1351 C1364 0.960 . S
C1352 H1344 0.929 . S
C1352 C1353 1.377 . S
C1352 C1354 1.384 . S
C1353 C1352 1.377 . S
C1353 C1359 1.390 . S
C1354 H1345 0.930 . S
C1354 C1352 1.384 . S
C1354 C1355 1.372 . S
C1355 C1354 1.372 . S
C1355 C1356 1.400 . S
C1355 C1360 1.490 . S
C1356 H1346 0.930 . S
C1356 C1355 1.400 . S
C1356 C1359 1.386 . S
H1357 C1373 0.930 . S
H1358 C1374 0.931 . S
C1359 H1347 0.929 . S
C1359 C1353 1.390 . S
C1359 C1356 1.386 . S
C1360 C1355 1.490 . S
C1360 C1362 1.395 . S
C1360 C1363 1.403 . S
H1361 C1367 0.930 . S
C1362 H1348 0.930 . S
C1362 C1360 1.395 . S
C1362 C1365 1.403 . S
C1363 C1360 1.403 . S
C1363 C1364 1.524 . S
C1363 C1367 1.400 . S
C1364 H1349 0.960 . S
C1364 H1350 0.960 . S
C1364 H1351 0.960 . S
C1364 C1363 1.524 . S
C1365 C1362 1.403 . S
C1365 C1366 1.392 . S
C1365 C1369 1.495 . S
C1366 C1365 1.392 . S
C1366 C1367 1.385 . S
C1366 C1368 1.478 . S
C1367 H1361 0.930 . S
C1367 C1363 1.400 . S
C1367 C1366 1.385 . S
C1368 C1366 1.478 . S
C1368 C1370 1.381 . S
C1368 C1374 1.383 . S
C1369 C1365 1.495 . S
C1369 H1375 0.959 . S
C1369 H1376 0.961 . S
C1369 H1377 0.960 . S
C1370 C1368 1.381 . S
C1370 C1371 1.394 . S
C1370 H1378 0.930 . S
C1371 C1370 1.394 . S
C1371 C1372 1.383 . S
C1371 H1379 0.929 . S
C1372 C1371 1.383 . S
C1372 C1373 1.377 . S
C1373 H1357 0.930 . S
C1373 C1372 1.377 . S
C1373 C1374 1.379 . S
C1374 H1358 0.931 . S
C1374 C1368 1.383 . S
C1374 C1373 1.379 . S
H1375 C1369 0.959 . S
H1376 C1369 0.961 . S
H1377 C1369 0.960 . S
H1378 C1370 0.930 . S
H1379 C1371 0.929 . S
H1380 C1388 0.929 . S
H1381 C1390 0.930 . S
H1382 C1392 0.930 . S
H1383 C1395 0.929 . S
H1384 C1398 0.930 . S
H1385 C1400 0.960 . S
H1386 C1400 0.960 . S
H1387 C1400 0.960 . S
C1388 H1380 0.929 . S
C1388 C1389 1.377 . S
C1388 C1390 1.384 . S
C1389 C1388 1.377 . S
C1389 C1395 1.390 . S
C1390 H1381 0.930 . S
C1390 C1388 1.384 . S
C1390 C1391 1.372 . S
C1391 C1390 1.372 . S
C1391 C1392 1.400 . S
C1391 C1396 1.490 . S
C1392 H1382 0.930 . S
C1392 C1391 1.400 . S
C1392 C1395 1.386 . S
H1393 C1409 0.930 . S
H1394 C1410 0.931 . S
C1395 H1383 0.929 . S
C1395 C1389 1.390 . S
C1395 C1392 1.386 . S
C1396 C1391 1.490 . S
C1396 C1398 1.395 . S
C1396 C1399 1.403 . S
H1397 C1403 0.930 . S
C1398 H1384 0.930 . S
C1398 C1396 1.395 . S
C1398 C1401 1.403 . S
C1399 C1396 1.403 . S
C1399 C1400 1.524 . S
C1399 C1403 1.400 . S
C1400 H1385 0.960 . S
C1400 H1386 0.960 . S
C1400 H1387 0.960 . S
C1400 C1399 1.524 . S
C1401 C1398 1.403 . S
C1401 C1402 1.392 . S
C1401 C1405 1.495 . S
C1402 C1401 1.392 . S
C1402 C1403 1.385 . S
C1402 C1404 1.478 . S
C1403 H1397 0.930 . S
C1403 C1399 1.400 . S
C1403 C1402 1.385 . S
C1404 C1402 1.478 . S
C1404 C1406 1.381 . S
C1404 C1410 1.383 . S
C1405 C1401 1.495 . S
C1405 H1411 0.959 . S
C1405 H1412 0.961 . S
C1405 H1413 0.960 . S
C1406 C1404 1.381 . S
C1406 C1407 1.394 . S
C1406 H1414 0.930 . S
C1407 C1406 1.394 . S
C1407 C1408 1.383 . S
C1407 H1415 0.929 . S
C1408 C1407 1.383 . S
C1408 C1409 1.377 . S
C1409 H1393 0.930 . S
C1409 C1408 1.377 . S
C1409 C1410 1.379 . S
C1410 H1394 0.931 . S
C1410 C1404 1.383 . S
C1410 C1409 1.379 . S
H1411 C1405 0.959 . S
H1412 C1405 0.961 . S
H1413 C1405 0.960 . S
H1414 C1406 0.930 . S
H1415 C1407 0.929 . S
H1416 C1424 0.929 . S
H1417 C1426 0.930 . S
H1418 C1428 0.930 . S
H1419 C1431 0.929 . S
H1420 C1434 0.930 . S
H1421 C1436 0.960 . S
H1422 C1436 0.960 . S
H1423 C1436 0.960 . S
C1424 H1416 0.929 . S
C1424 C1425 1.377 . S
C1424 C1426 1.384 . S
C1425 C1424 1.377 . S
C1425 C1431 1.390 . S
C1426 H1417 0.930 . S
C1426 C1424 1.384 . S
C1426 C1427 1.372 . S
C1427 C1426 1.372 . S
C1427 C1428 1.400 . S
C1427 C1432 1.490 . S
C1428 H1418 0.930 . S
C1428 C1427 1.400 . S
C1428 C1431 1.386 . S
H1429 C1445 0.930 . S
H1430 C1446 0.931 . S
C1431 H1419 0.929 . S
C1431 C1425 1.390 . S
C1431 C1428 1.386 . S
C1432 C1427 1.490 . S
C1432 C1434 1.395 . S
C1432 C1435 1.403 . S
H1433 C1439 0.930 . S
C1434 H1420 0.930 . S
C1434 C1432 1.395 . S
C1434 C1437 1.403 . S
C1435 C1432 1.403 . S
C1435 C1436 1.524 . S
C1435 C1439 1.400 . S
C1436 H1421 0.960 . S
C1436 H1422 0.960 . S
C1436 H1423 0.960 . S
C1436 C1435 1.524 . S
C1437 C1434 1.403 . S
C1437 C1438 1.392 . S
C1437 C1441 1.495 . S
C1438 C1437 1.392 . S
C1438 C1439 1.385 . S
C1438 C1440 1.478 . S
C1439 H1433 0.930 . S
C1439 C1435 1.400 . S
C1439 C1438 1.385 . S
C1440 C1438 1.478 . S
C1440 C1442 1.381 . S
C1440 C1446 1.383 . S
C1441 C1437 1.495 . S
C1441 H1447 0.959 . S
C1441 H1448 0.961 . S
C1441 H1449 0.960 . S
C1442 C1440 1.381 . S
C1442 C1443 1.394 . S
C1442 H1450 0.930 . S
C1443 C1442 1.394 . S
C1443 C1444 1.383 . S
C1443 H1451 0.929 . S
C1444 C1443 1.383 . S
C1444 C1445 1.377 . S
C1445 H1429 0.930 . S
C1445 C1444 1.377 . S
C1445 C1446 1.379 . S
C1446 H1430 0.931 . S
C1446 C1440 1.383 . S
C1446 C1445 1.379 . S
H1447 C1441 0.959 . S
H1448 C1441 0.961 . S
H1449 C1441 0.960 . S
H1450 C1442 0.930 . S
H1451 C1443 0.929 . S
H1452 C1460 0.929 . S
H1453 C1462 0.930 . S
H1454 C1464 0.930 . S
H1455 C1467 0.929 . S
H1456 C1470 0.930 . S
H1457 C1472 0.960 . S
H1458 C1472 0.960 . S
H1459 C1472 0.960 . S
C1460 H1452 0.929 . S
C1460 C1461 1.377 . S
C1460 C1462 1.384 . S
C1461 C1460 1.377 . S
C1461 C1467 1.390 . S
C1462 H1453 0.930 . S
C1462 C1460 1.384 . S
C1462 C1463 1.372 . S
C1463 C1462 1.372 . S
C1463 C1464 1.400 . S
C1463 C1468 1.490 . S
C1464 H1454 0.930 . S
C1464 C1463 1.400 . S
C1464 C1467 1.386 . S
H1465 C1481 0.930 . S
H1466 C1482 0.931 . S
C1467 H1455 0.929 . S
C1467 C1461 1.390 . S
C1467 C1464 1.386 . S
C1468 C1463 1.490 . S
C1468 C1470 1.395 . S
C1468 C1471 1.403 . S
H1469 C1475 0.930 . S
C1470 H1456 0.930 . S
C1470 C1468 1.395 . S
C1470 C1473 1.403 . S
C1471 C1468 1.403 . S
C1471 C1472 1.524 . S
C1471 C1475 1.400 . S
C1472 H1457 0.960 . S
C1472 H1458 0.960 . S
C1472 H1459 0.960 . S
C1472 C1471 1.524 . S
C1473 C1470 1.403 . S
C1473 C1474 1.392 . S
C1473 C1477 1.495 . S
C1474 C1473 1.392 . S
C1474 C1475 1.385 . S
C1474 C1476 1.478 . S
C1475 H1469 0.930 . S
C1475 C1471 1.400 . S
C1475 C1474 1.385 . S
C1476 C1474 1.478 . S
C1476 C1478 1.381 . S
C1476 C1482 1.383 . S
C1477 C1473 1.495 . S
C1477 H1483 0.959 . S
C1477 H1484 0.961 . S
C1477 H1485 0.960 . S
C1478 C1476 1.381 . S
C1478 C1479 1.394 . S
C1478 H1486 0.930 . S
C1479 C1478 1.394 . S
C1479 C1480 1.383 . S
C1479 H1487 0.929 . S
C1480 C1479 1.383 . S
C1480 C1481 1.377 . S
C1481 H1465 0.930 . S
C1481 C1480 1.377 . S
C1481 C1482 1.379 . S
C1482 H1466 0.931 . S
C1482 C1476 1.383 . S
C1482 C1481 1.379 . S
H1483 C1477 0.959 . S
H1484 C1477 0.961 . S
H1485 C1477 0.960 . S
H1486 C1478 0.930 . S
H1487 C1479 0.929 . S
H1488 C1496 0.929 . S
H1489 C1498 0.930 . S
H1490 C1500 0.930 . S
H1491 C1503 0.929 . S
H1492 C1506 0.930 . S
H1493 C1508 0.960 . S
H1494 C1508 0.960 . S
H1495 C1508 0.960 . S
C1496 H1488 0.929 . S
C1496 C1497 1.377 . S
C1496 C1498 1.384 . S
C1497 C1496 1.377 . S
C1497 C1503 1.390 . S
C1498 H1489 0.930 . S
C1498 C1496 1.384 . S
C1498 C1499 1.372 . S
C1499 C1498 1.372 . S
C1499 C1500 1.400 . S
C1499 C1504 1.490 . S
C1500 H1490 0.930 . S
C1500 C1499 1.400 . S
C1500 C1503 1.386 . S
H1501 C1517 0.930 . S
H1502 C1518 0.931 . S
C1503 H1491 0.929 . S
C1503 C1497 1.390 . S
C1503 C1500 1.386 . S
C1504 C1499 1.490 . S
C1504 C1506 1.395 . S
C1504 C1507 1.403 . S
H1505 C1511 0.930 . S
C1506 H1492 0.930 . S
C1506 C1504 1.395 . S
C1506 C1509 1.403 . S
C1507 C1504 1.403 . S
C1507 C1508 1.524 . S
C1507 C1511 1.400 . S
C1508 H1493 0.960 . S
C1508 H1494 0.960 . S
C1508 H1495 0.960 . S
C1508 C1507 1.524 . S
C1509 C1506 1.403 . S
C1509 C1510 1.392 . S
C1509 C1513 1.495 . S
C1510 C1509 1.392 . S
C1510 C1511 1.385 . S
C1510 C1512 1.478 . S
C1511 H1505 0.930 . S
C1511 C1507 1.400 . S
C1511 C1510 1.385 . S
C1512 C1510 1.478 . S
C1512 C1514 1.381 . S
C1512 C1518 1.383 . S
C1513 C1509 1.495 . S
C1513 H1519 0.959 . S
C1513 H1520 0.961 . S
C1513 H1521 0.960 . S
C1514 C1512 1.381 . S
C1514 C1515 1.394 . S
C1514 H1522 0.930 . S
C1515 C1514 1.394 . S
C1515 C1516 1.383 . S
C1515 H1523 0.929 . S
C1516 C1515 1.383 . S
C1516 C1517 1.377 . S
C1517 H1501 0.930 . S
C1517 C1516 1.377 . S
C1517 C1518 1.379 . S
C1518 H1502 0.931 . S
C1518 C1512 1.383 . S
C1518 C1517 1.379 . S
H1519 C1513 0.959 . S
H1520 C1513 0.961 . S
H1521 C1513 0.960 . S
H1522 C1514 0.930 . S
H1523 C1515 0.929 . S
H1524 C1532 0.929 . S
H1525 C1534 0.930 . S
H1526 C1536 0.930 . S
H1527 C1539 0.929 . S
H1528 C1542 0.930 . S
H1529 C1544 0.960 . S
H1530 C1544 0.960 . S
H1531 C1544 0.960 . S
C1532 H1524 0.929 . S
C1532 C1533 1.377 . S
C1532 C1534 1.384 . S
C1533 C1532 1.377 . S
C1533 C1539 1.390 . S
C1534 H1525 0.930 . S
C1534 C1532 1.384 . S
C1534 C1535 1.372 . S
C1535 C1534 1.372 . S
C1535 C1536 1.400 . S
C1535 C1540 1.490 . S
C1536 H1526 0.930 . S
C1536 C1535 1.400 . S
C1536 C1539 1.386 . S
H1537 C1553 0.930 . S
H1538 C1554 0.931 . S
C1539 H1527 0.929 . S
C1539 C1533 1.390 . S
C1539 C1536 1.386 . S
C1540 C1535 1.490 . S
C1540 C1542 1.395 . S
C1540 C1543 1.403 . S
H1541 C1547 0.930 . S
C1542 H1528 0.930 . S
C1542 C1540 1.395 . S
C1542 C1545 1.403 . S
C1543 C1540 1.403 . S
C1543 C1544 1.524 . S
C1543 C1547 1.400 . S
C1544 H1529 0.960 . S
C1544 H1530 0.960 . S
C1544 H1531 0.960 . S
C1544 C1543 1.524 . S
C1545 C1542 1.403 . S
C1545 C1546 1.392 . S
C1545 C1549 1.495 . S
C1546 C1545 1.392 . S
C1546 C1547 1.385 . S
C1546 C1548 1.478 . S
C1547 H1541 0.930 . S
C1547 C1543 1.400 . S
C1547 C1546 1.385 . S
C1548 C1546 1.478 . S
C1548 C1550 1.381 . S
C1548 C1554 1.383 . S
C1549 C1545 1.495 . S
C1549 H1555 0.959 . S
C1549 H1556 0.961 . S
C1549 H1557 0.960 . S
C1550 C1548 1.381 . S
C1550 C1551 1.394 . S
C1550 H1558 0.930 . S
C1551 C1550 1.394 . S
C1551 C1552 1.383 . S
C1551 H1559 0.929 . S
C1552 C1551 1.383 . S
C1552 C1553 1.377 . S
C1553 H1537 0.930 . S
C1553 C1552 1.377 . S
C1553 C1554 1.379 . S
C1554 H1538 0.931 . S
C1554 C1548 1.383 . S
C1554 C1553 1.379 . S
H1555 C1549 0.959 . S
H1556 C1549 0.961 . S
H1557 C1549 0.960 . S
H1558 C1550 0.930 . S
H1559 C1551 0.929 . S
H1560 C1568 0.929 . S
H1561 C1570 0.930 . S
H1562 C1572 0.930 . S
H1563 C1575 0.929 . S
H1564 C1578 0.930 . S
H1565 C1580 0.960 . S
H1566 C1580 0.960 . S
H1567 C1580 0.960 . S
C1568 H1560 0.929 . S
C1568 C1569 1.377 . S
C1568 C1570 1.384 . S
C1569 C1568 1.377 . S
C1569 C1575 1.390 . S
C1570 H1561 0.930 . S
C1570 C1568 1.384 . S
C1570 C1571 1.372 . S
C1571 C1570 1.372 . S
C1571 C1572 1.400 . S
C1571 C1576 1.490 . S
C1572 H1562 0.930 . S
C1572 C1571 1.400 . S
C1572 C1575 1.386 . S
H1573 C1589 0.930 . S
H1574 C1590 0.931 . S
C1575 H1563 0.929 . S
C1575 C1569 1.390 . S
C1575 C1572 1.386 . S
C1576 C1571 1.490 . S
C1576 C1578 1.395 . S
C1576 C1579 1.403 . S
H1577 C1583 0.930 . S
C1578 H1564 0.930 . S
C1578 C1576 1.395 . S
C1578 C1581 1.403 . S
C1579 C1576 1.403 . S
C1579 C1580 1.524 . S
C1579 C1583 1.400 . S
C1580 H1565 0.960 . S
C1580 H1566 0.960 . S
C1580 H1567 0.960 . S
C1580 C1579 1.524 . S
C1581 C1578 1.403 . S
C1581 C1582 1.392 . S
C1581 C1585 1.495 . S
C1582 C1581 1.392 . S
C1582 C1583 1.385 . S
C1582 C1584 1.478 . S
C1583 H1577 0.930 . S
C1583 C1579 1.400 . S
C1583 C1582 1.385 . S
C1584 C1582 1.478 . S
C1584 C1586 1.381 . S
C1584 C1590 1.383 . S
C1585 C1581 1.495 . S
C1585 H1591 0.959 . S
C1585 H1592 0.961 . S
C1585 H1593 0.960 . S
C1586 C1584 1.381 . S
C1586 C1587 1.394 . S
C1586 H1594 0.930 . S
C1587 C1586 1.394 . S
C1587 C1588 1.383 . S
C1587 H1595 0.929 . S
C1588 C1587 1.383 . S
C1588 C1589 1.377 . S
C1589 H1573 0.930 . S
C1589 C1588 1.377 . S
C1589 C1590 1.379 . S
C1590 H1574 0.931 . S
C1590 C1584 1.383 . S
C1590 C1589 1.379 . S
H1591 C1585 0.959 . S
H1592 C1585 0.961 . S
H1593 C1585 0.960 . S
H1594 C1586 0.930 . S
H1595 C1587 0.929 . S
H1596 C1604 0.929 . S
H1597 C1606 0.930 . S
H1598 C1608 0.930 . S
H1599 C1611 0.929 . S
H1600 C1614 0.930 . S
H1601 C1616 0.960 . S
H1602 C1616 0.960 . S
H1603 C1616 0.960 . S
C1604 H1596 0.929 . S
C1604 C1605 1.377 . S
C1604 C1606 1.384 . S
C1605 C1604 1.377 . S
C1605 C1611 1.390 . S
C1606 H1597 0.930 . S
C1606 C1604 1.384 . S
C1606 C1607 1.372 . S
C1607 C1606 1.372 . S
C1607 C1608 1.400 . S
C1607 C1612 1.490 . S
C1608 H1598 0.930 . S
C1608 C1607 1.400 . S
C1608 C1611 1.386 . S
H1609 C1625 0.930 . S
H1610 C1626 0.931 . S
C1611 H1599 0.929 . S
C1611 C1605 1.390 . S
C1611 C1608 1.386 . S
C1612 C1607 1.490 . S
C1612 C1614 1.395 . S
C1612 C1615 1.403 . S
H1613 C1619 0.930 . S
C1614 H1600 0.930 . S
C1614 C1612 1.395 . S
C1614 C1617 1.403 . S
C1615 C1612 1.403 . S
C1615 C1616 1.524 . S
C1615 C1619 1.400 . S
C1616 H1601 0.960 . S
C1616 H1602 0.960 . S
C1616 H1603 0.960 . S
C1616 C1615 1.524 . S
C1617 C1614 1.403 . S
C1617 C1618 1.392 . S
C1617 C1621 1.495 . S
C1618 C1617 1.392 . S
C1618 C1619 1.385 . S
C1618 C1620 1.478 . S
C1619 H1613 0.930 . S
C1619 C1615 1.400 . S
C1619 C1618 1.385 . S
C1620 C1618 1.478 . S
C1620 C1622 1.381 . S
C1620 C1626 1.383 . S
C1621 C1617 1.495 . S
C1621 H1627 0.959 . S
C1621 H1628 0.961 . S
C1621 H1629 0.960 . S
C1622 C1620 1.381 . S
C1622 C1623 1.394 . S
C1622 H1630 0.930 . S
C1623 C1622 1.394 . S
C1623 C1624 1.383 . S
C1623 H1631 0.929 . S
C1624 C1623 1.383 . S
C1624 C1625 1.377 . S
C1625 H1609 0.930 . S
C1625 C1624 1.377 . S
C1625 C1626 1.379 . S
C1626 H1610 0.931 . S
C1626 C1620 1.383 . S
C1626 C1625 1.379 . S
H1627 C1621 0.959 . S
H1628 C1621 0.961 . S
H1629 C1621 0.960 . S
H1630 C1622 0.930 . S
H1631 C1623 0.929 . S
H1632 C1640 0.929 . S
H1633 C1642 0.930 . S
H1634 C1644 0.930 . S
H1635 C1647 0.929 . S
H1636 C1650 0.930 . S
H1637 C1652 0.960 . S
H1638 C1652 0.960 . S
H1639 C1652 0.960 . S
C1640 H1632 0.929 . S
C1640 C1641 1.377 . S
C1640 C1642 1.384 . S
C1641 C1640 1.377 . S
C1641 C1647 1.390 . S
C1642 H1633 0.930 . S
C1642 C1640 1.384 . S
C1642 C1643 1.372 . S
C1643 C1642 1.372 . S
C1643 C1644 1.400 . S
C1643 C1648 1.490 . S
C1644 H1634 0.930 . S
C1644 C1643 1.400 . S
C1644 C1647 1.386 . S
H1645 C1661 0.930 . S
H1646 C1662 0.931 . S
C1647 H1635 0.929 . S
C1647 C1641 1.390 . S
C1647 C1644 1.386 . S
C1648 C1643 1.490 . S
C1648 C1650 1.395 . S
C1648 C1651 1.403 . S
H1649 C1655 0.930 . S
C1650 H1636 0.930 . S
C1650 C1648 1.395 . S
C1650 C1653 1.403 . S
C1651 C1648 1.403 . S
C1651 C1652 1.524 . S
C1651 C1655 1.400 . S
C1652 H1637 0.960 . S
C1652 H1638 0.960 . S
C1652 H1639 0.960 . S
C1652 C1651 1.524 . S
C1653 C1650 1.403 . S
C1653 C1654 1.392 . S
C1653 C1657 1.495 . S
C1654 C1653 1.392 . S
C1654 C1655 1.385 . S
C1654 C1656 1.478 . S
C1655 H1649 0.930 . S
C1655 C1651 1.400 . S
C1655 C1654 1.385 . S
C1656 C1654 1.478 . S
C1656 C1658 1.381 . S
C1656 C1662 1.383 . S
C1657 C1653 1.495 . S
C1657 H1663 0.959 . S
C1657 H1664 0.961 . S
C1657 H1665 0.960 . S
C1658 C1656 1.381 . S
C1658 C1659 1.394 . S
C1658 H1666 0.930 . S
C1659 C1658 1.394 . S
C1659 C1660 1.383 . S
C1659 H1667 0.929 . S
C1660 C1659 1.383 . S
C1660 C1661 1.377 . S
C1661 H1645 0.930 . S
C1661 C1660 1.377 . S
C1661 C1662 1.379 . S
C1662 H1646 0.931 . S
C1662 C1656 1.383 . S
C1662 C1661 1.379 . S
H1663 C1657 0.959 . S
H1664 C1657 0.961 . S
H1665 C1657 0.960 . S
H1666 C1658 0.930 . S
H1667 C1659 0.929 . S
H1668 C1676 0.929 . S
H1669 C1678 0.930 . S
H1670 C1680 0.930 . S
H1671 C1683 0.929 . S
H1672 C1686 0.930 . S
H1673 C1688 0.960 . S
H1674 C1688 0.960 . S
H1675 C1688 0.960 . S
C1676 H1668 0.929 . S
C1676 C1677 1.377 . S
C1676 C1678 1.384 . S
C1677 C1676 1.377 . S
C1677 C1683 1.390 . S
C1678 H1669 0.930 . S
C1678 C1676 1.384 . S
C1678 C1679 1.372 . S
C1679 C1678 1.372 . S
C1679 C1680 1.400 . S
C1679 C1684 1.490 . S
C1680 H1670 0.930 . S
C1680 C1679 1.400 . S
C1680 C1683 1.386 . S
H1681 C1697 0.930 . S
H1682 C1698 0.931 . S
C1683 H1671 0.929 . S
C1683 C1677 1.390 . S
C1683 C1680 1.386 . S
C1684 C1679 1.490 . S
C1684 C1686 1.395 . S
C1684 C1687 1.403 . S
H1685 C1691 0.930 . S
C1686 H1672 0.930 . S
C1686 C1684 1.395 . S
C1686 C1689 1.403 . S
C1687 C1684 1.403 . S
C1687 C1688 1.524 . S
C1687 C1691 1.400 . S
C1688 H1673 0.960 . S
C1688 H1674 0.960 . S
C1688 H1675 0.960 . S
C1688 C1687 1.524 . S
C1689 C1686 1.403 . S
C1689 C1690 1.392 . S
C1689 C1693 1.495 . S
C1690 C1689 1.392 . S
C1690 C1691 1.385 . S
C1690 C1692 1.478 . S
C1691 H1685 0.930 . S
C1691 C1687 1.400 . S
C1691 C1690 1.385 . S
C1692 C1690 1.478 . S
C1692 C1694 1.381 . S
C1692 C1698 1.383 . S
C1693 C1689 1.495 . S
C1693 H1699 0.959 . S
C1693 H1700 0.961 . S
C1693 H1701 0.960 . S
C1694 C1692 1.381 . S
C1694 C1695 1.394 . S
C1694 H1702 0.930 . S
C1695 C1694 1.394 . S
C1695 C1696 1.383 . S
C1695 H1703 0.929 . S
C1696 C1695 1.383 . S
C1696 C1697 1.377 . S
C1697 H1681 0.930 . S
C1697 C1696 1.377 . S
C1697 C1698 1.379 . S
C1698 H1682 0.931 . S
C1698 C1692 1.383 . S
C1698 C1697 1.379 . S
H1699 C1693 0.959 . S
H1700 C1693 0.961 . S
H1701 C1693 0.960 . S
H1702 C1694 0.930 . S
H1703 C1695 0.929 . S
H1704 C1712 0.929 . S
H1705 C1714 0.930 . S
H1706 C1716 0.930 . S
H1707 C1719 0.929 . S
H1708 C1722 0.930 . S
H1709 C1724 0.960 . S
H1710 C1724 0.960 . S
H1711 C1724 0.960 . S
C1712 H1704 0.929 . S
C1712 C1713 1.377 . S
C1712 C1714 1.384 . S
C1713 C1712 1.377 . S
C1713 C1719 1.390 . S
C1714 H1705 0.930 . S
C1714 C1712 1.384 . S
C1714 C1715 1.372 . S
C1715 C1714 1.372 . S
C1715 C1716 1.400 . S
C1715 C1720 1.490 . S
C1716 H1706 0.930 . S
C1716 C1715 1.400 . S
C1716 C1719 1.386 . S
H1717 C1733 0.930 . S
H1718 C1734 0.931 . S
C1719 H1707 0.929 . S
C1719 C1713 1.390 . S
C1719 C1716 1.386 . S
C1720 C1715 1.490 . S
C1720 C1722 1.395 . S
C1720 C1723 1.403 . S
H1721 C1727 0.930 . S
C1722 H1708 0.930 . S
C1722 C1720 1.395 . S
C1722 C1725 1.403 . S
C1723 C1720 1.403 . S
C1723 C1724 1.524 . S
C1723 C1727 1.400 . S
C1724 H1709 0.960 . S
C1724 H1710 0.960 . S
C1724 H1711 0.960 . S
C1724 C1723 1.524 . S
C1725 C1722 1.403 . S
C1725 C1726 1.392 . S
C1725 C1729 1.495 . S
C1726 C1725 1.392 . S
C1726 C1727 1.385 . S
C1726 C1728 1.478 . S
C1727 H1721 0.930 . S
C1727 C1723 1.400 . S
C1727 C1726 1.385 . S
C1728 C1726 1.478 . S
C1728 C1730 1.381 . S
C1728 C1734 1.383 . S
C1729 C1725 1.495 . S
C1729 H1735 0.959 . S
C1729 H1736 0.961 . S
C1729 H1737 0.960 . S
C1730 C1728 1.381 . S
C1730 C1731 1.394 . S
C1730 H1738 0.930 . S
C1731 C1730 1.394 . S
C1731 C1732 1.383 . S
C1731 H1739 0.929 . S
C1732 C1731 1.383 . S
C1732 C1733 1.377 . S
C1733 H1717 0.930 . S
C1733 C1732 1.377 . S
C1733 C1734 1.379 . S
C1734 H1718 0.931 . S
C1734 C1728 1.383 . S
C1734 C1733 1.379 . S
H1735 C1729 0.959 . S
H1736 C1729 0.961 . S
H1737 C1729 0.960 . S
H1738 C1730 0.930 . S
H1739 C1731 0.929 . S
H1740 C1748 0.929 . S
H1741 C1750 0.930 . S
H1742 C1752 0.930 . S
H1743 C1755 0.929 . S
H1744 C1758 0.930 . S
H1745 C1760 0.960 . S
H1746 C1760 0.960 . S
H1747 C1760 0.960 . S
C1748 H1740 0.929 . S
C1748 C1749 1.377 . S
C1748 C1750 1.384 . S
C1749 C1748 1.377 . S
C1749 C1755 1.390 . S
C1750 H1741 0.930 . S
C1750 C1748 1.384 . S
C1750 C1751 1.372 . S
C1751 C1750 1.372 . S
C1751 C1752 1.400 . S
C1751 C1756 1.490 . S
C1752 H1742 0.930 . S
C1752 C1751 1.400 . S
C1752 C1755 1.386 . S
H1753 C1769 0.930 . S
H1754 C1770 0.931 . S
C1755 H1743 0.929 . S
C1755 C1749 1.390 . S
C1755 C1752 1.386 . S
C1756 C1751 1.490 . S
C1756 C1758 1.395 . S
C1756 C1759 1.403 . S
H1757 C1763 0.930 . S
C1758 H1744 0.930 . S
C1758 C1756 1.395 . S
C1758 C1761 1.403 . S
C1759 C1756 1.403 . S
C1759 C1760 1.524 . S
C1759 C1763 1.400 . S
C1760 H1745 0.960 . S
C1760 H1746 0.960 . S
C1760 H1747 0.960 . S
C1760 C1759 1.524 . S
C1761 C1758 1.403 . S
C1761 C1762 1.392 . S
C1761 C1765 1.495 . S
C1762 C1761 1.392 . S
C1762 C1763 1.385 . S
C1762 C1764 1.478 . S
C1763 H1757 0.930 . S
C1763 C1759 1.400 . S
C1763 C1762 1.385 . S
C1764 C1762 1.478 . S
C1764 C1766 1.381 . S
C1764 C1770 1.383 . S
C1765 C1761 1.495 . S
C1765 H1771 0.959 . S
C1765 H1772 0.961 . S
C1765 H1773 0.960 . S
C1766 C1764 1.381 . S
C1766 C1767 1.394 . S
C1766 H1774 0.930 . S
C1767 C1766 1.394 . S
C1767 C1768 1.383 . S
C1767 H1775 0.929 . S
C1768 C1767 1.383 . S
C1768 C1769 1.377 . S
C1769 H1753 0.930 . S
C1769 C1768 1.377 . S
C1769 C1770 1.379 . S
C1770 H1754 0.931 . S
C1770 C1764 1.383 . S
C1770 C1769 1.379 . S
H1771 C1765 0.959 . S
H1772 C1765 0.961 . S
H1773 C1765 0.960 . S
H1774 C1766 0.930 . S
H1775 C1767 0.929 . S
H1776 C1784 0.929 . S
H1777 C1786 0.930 . S
H1778 C1788 0.930 . S
H1779 C1791 0.929 . S
H1780 C1794 0.930 . S
H1781 C1796 0.960 . S
H1782 C1796 0.960 . S
H1783 C1796 0.960 . S
C1784 H1776 0.929 . S
C1784 C1785 1.377 . S
C1784 C1786 1.384 . S
C1785 C1784 1.377 . S
C1785 C1791 1.390 . S
C1786 H1777 0.930 . S
C1786 C1784 1.384 . S
C1786 C1787 1.372 . S
C1787 C1786 1.372 . S
C1787 C1788 1.400 . S
C1787 C1792 1.490 . S
C1788 H1778 0.930 . S
C1788 C1787 1.400 . S
C1788 C1791 1.386 . S
H1789 C1805 0.930 . S
H1790 C1806 0.931 . S
C1791 H1779 0.929 . S
C1791 C1785 1.390 . S
C1791 C1788 1.386 . S
C1792 C1787 1.490 . S
C1792 C1794 1.395 . S
C1792 C1795 1.403 . S
H1793 C1799 0.930 . S
C1794 H1780 0.930 . S
C1794 C1792 1.395 . S
C1794 C1797 1.403 . S
C1795 C1792 1.403 . S
C1795 C1796 1.524 . S
C1795 C1799 1.400 . S
C1796 H1781 0.960 . S
C1796 H1782 0.960 . S
C1796 H1783 0.960 . S
C1796 C1795 1.524 . S
C1797 C1794 1.403 . S
C1797 C1798 1.392 . S
C1797 C1801 1.495 . S
C1798 C1797 1.392 . S
C1798 C1799 1.385 . S
C1798 C1800 1.478 . S
C1799 H1793 0.930 . S
C1799 C1795 1.400 . S
C1799 C1798 1.385 . S
C1800 C1798 1.478 . S
C1800 C1802 1.381 . S
C1800 C1806 1.383 . S
C1801 C1797 1.495 . S
C1801 H1807 0.959 . S
C1801 H1808 0.961 . S
C1801 H1809 0.960 . S
C1802 C1800 1.381 . S
C1802 C1803 1.394 . S
C1802 H1810 0.930 . S
C1803 C1802 1.394 . S
C1803 C1804 1.383 . S
C1803 H1811 0.929 . S
C1804 C1803 1.383 . S
C1804 C1805 1.377 . S
C1805 H1789 0.930 . S
C1805 C1804 1.377 . S
C1805 C1806 1.379 . S
C1806 H1790 0.931 . S
C1806 C1800 1.383 . S
C1806 C1805 1.379 . S
H1807 C1801 0.959 . S
H1808 C1801 0.961 . S
H1809 C1801 0.960 . S
H1810 C1802 0.930 . S
H1811 C1803 0.929 . S
H1812 C1820 0.929 . S
H1813 C1822 0.930 . S
H1814 C1824 0.930 . S
H1815 C1827 0.929 . S
H1816 C1830 0.930 . S
H1817 C1832 0.960 . S
H1818 C1832 0.960 . S
H1819 C1832 0.960 . S
C1820 H1812 0.929 . S
C1820 C1821 1.377 . S
C1820 C1822 1.384 . S
C1821 C1820 1.377 . S
C1821 C1827 1.390 . S
C1822 H1813 0.930 . S
C1822 C1820 1.384 . S
C1822 C1823 1.372 . S
C1823 C1822 1.372 . S
C1823 C1824 1.400 . S
C1823 C1828 1.490 . S
C1824 H1814 0.930 . S
C1824 C1823 1.400 . S
C1824 C1827 1.386 . S
H1825 C1841 0.930 . S
H1826 C1842 0.931 . S
C1827 H1815 0.929 . S
C1827 C1821 1.390 . S
C1827 C1824 1.386 . S
C1828 C1823 1.490 . S
C1828 C1830 1.395 . S
C1828 C1831 1.403 . S
H1829 C1835 0.930 . S
C1830 H1816 0.930 . S
C1830 C1828 1.395 . S
C1830 C1833 1.403 . S
C1831 C1828 1.403 . S
C1831 C1832 1.524 . S
C1831 C1835 1.400 . S
C1832 H1817 0.960 . S
C1832 H1818 0.960 . S
C1832 H1819 0.960 . S
C1832 C1831 1.524 . S
C1833 C1830 1.403 . S
C1833 C1834 1.392 . S
C1833 C1837 1.495 . S
C1834 C1833 1.392 . S
C1834 C1835 1.385 . S
C1834 C1836 1.478 . S
C1835 H1829 0.930 . S
C1835 C1831 1.400 . S
C1835 C1834 1.385 . S
C1836 C1834 1.478 . S
C1836 C1838 1.381 . S
C1836 C1842 1.383 . S
C1837 C1833 1.495 . S
C1837 H1843 0.959 . S
C1837 H1844 0.961 . S
C1837 H1845 0.960 . S
C1838 C1836 1.381 . S
C1838 C1839 1.394 . S
C1838 H1846 0.930 . S
C1839 C1838 1.394 . S
C1839 C1840 1.383 . S
C1839 H1847 0.929 . S
C1840 C1839 1.383 . S
C1840 C1841 1.377 . S
C1841 H1825 0.930 . S
C1841 C1840 1.377 . S
C1841 C1842 1.379 . S
C1842 H1826 0.931 . S
C1842 C1836 1.383 . S
C1842 C1841 1.379 . S
H1843 C1837 0.959 . S
H1844 C1837 0.961 . S
H1845 C1837 0.960 . S
H1846 C1838 0.930 . S
H1847 C1839 0.929 . S
H1848 C1856 0.929 . S
H1849 C1858 0.930 . S
H1850 C1860 0.930 . S
H1851 C1863 0.929 . S
H1852 C1866 0.930 . S
H1853 C1868 0.960 . S
H1854 C1868 0.960 . S
H1855 C1868 0.960 . S
C1856 H1848 0.929 . S
C1856 C1857 1.377 . S
C1856 C1858 1.384 . S
C1857 C1856 1.377 . S
C1857 C1863 1.390 . S
C1858 H1849 0.930 . S
C1858 C1856 1.384 . S
C1858 C1859 1.372 . S
C1859 C1858 1.372 . S
C1859 C1860 1.400 . S
C1859 C1864 1.490 . S
C1860 H1850 0.930 . S
C1860 C1859 1.400 . S
C1860 C1863 1.386 . S
H1861 C1877 0.930 . S
H1862 C1878 0.931 . S
C1863 H1851 0.929 . S
C1863 C1857 1.390 . S
C1863 C1860 1.386 . S
C1864 C1859 1.490 . S
C1864 C1866 1.395 . S
C1864 C1867 1.403 . S
H1865 C1871 0.930 . S
C1866 H1852 0.930 . S
C1866 C1864 1.395 . S
C1866 C1869 1.403 . S
C1867 C1864 1.403 . S
C1867 C1868 1.524 . S
C1867 C1871 1.400 . S
C1868 H1853 0.960 . S
C1868 H1854 0.960 . S
C1868 H1855 0.960 . S
C1868 C1867 1.524 . S
C1869 C1866 1.403 . S
C1869 C1870 1.392 . S
C1869 C1873 1.495 . S
C1870 C1869 1.392 . S
C1870 C1871 1.385 . S
C1870 C1872 1.478 . S
C1871 H1865 0.930 . S
C1871 C1867 1.400 . S
C1871 C1870 1.385 . S
C1872 C1870 1.478 . S
C1872 C1874 1.381 . S
C1872 C1878 1.383 . S
C1873 C1869 1.495 . S
C1873 H1879 0.959 . S
C1873 H1880 0.961 . S
C1873 H1881 0.960 . S
C1874 C1872 1.381 . S
C1874 C1875 1.394 . S
C1874 H1882 0.930 . S
C1875 C1874 1.394 . S
C1875 C1876 1.383 . S
C1875 H1883 0.929 . S
C1876 C1875 1.383 . S
C1876 C1877 1.377 . S
C1877 H1861 0.930 . S
C1877 C1876 1.377 . S
C1877 C1878 1.379 . S
C1878 H1862 0.931 . S
C1878 C1872 1.383 . S
C1878 C1877 1.379 . S
H1879 C1873 0.959 . S
H1880 C1873 0.961 . S
H1881 C1873 0.960 . S
H1882 C1874 0.930 . S
H1883 C1875 0.929 . S
H1884 C1892 0.929 . S
H1885 C1894 0.930 . S
H1886 C1896 0.930 . S
H1887 C1899 0.929 . S
H1888 C1902 0.930 . S
H1889 C1904 0.960 . S
H1890 C1904 0.960 . S
H1891 C1904 0.960 . S
C1892 H1884 0.929 . S
C1892 C1893 1.377 . S
C1892 C1894 1.384 . S
C1893 C1892 1.377 . S
C1893 C1899 1.390 . S
C1894 H1885 0.930 . S
C1894 C1892 1.384 . S
C1894 C1895 1.372 . S
C1895 C1894 1.372 . S
C1895 C1896 1.400 . S
C1895 C1900 1.490 . S
C1896 H1886 0.930 . S
C1896 C1895 1.400 . S
C1896 C1899 1.386 . S
H1897 C1913 0.930 . S
H1898 C1914 0.931 . S
C1899 H1887 0.929 . S
C1899 C1893 1.390 . S
C1899 C1896 1.386 . S
C1900 C1895 1.490 . S
C1900 C1902 1.395 . S
C1900 C1903 1.403 . S
H1901 C1907 0.930 . S
C1902 H1888 0.930 . S
C1902 C1900 1.395 . S
C1902 C1905 1.403 . S
C1903 C1900 1.403 . S
C1903 C1904 1.524 . S
C1903 C1907 1.400 . S
C1904 H1889 0.960 . S
C1904 H1890 0.960 . S
C1904 H1891 0.960 . S
C1904 C1903 1.524 . S
C1905 C1902 1.403 . S
C1905 C1906 1.392 . S
C1905 C1909 1.495 . S
C1906 C1905 1.392 . S
C1906 C1907 1.385 . S
C1906 C1908 1.478 . S
C1907 H1901 0.930 . S
C1907 C1903 1.400 . S
C1907 C1906 1.385 . S
C1908 C1906 1.478 . S
C1908 C1910 1.381 . S
C1908 C1914 1.383 . S
C1909 C1905 1.495 . S
C1909 H1915 0.959 . S
C1909 H1916 0.961 . S
C1909 H1917 0.960 . S
C1910 C1908 1.381 . S
C1910 C1911 1.394 . S
C1910 H1918 0.930 . S
C1911 C1910 1.394 . S
C1911 C1912 1.383 . S
C1911 H1919 0.929 . S
C1912 C1911 1.383 . S
C1912 C1913 1.377 . S
C1913 H1897 0.930 . S
C1913 C1912 1.377 . S
C1913 C1914 1.379 . S
C1914 H1898 0.931 . S
C1914 C1908 1.383 . S
C1914 C1913 1.379 . S
H1915 C1909 0.959 . S
H1916 C1909 0.961 . S
H1917 C1909 0.960 . S
H1918 C1910 0.930 . S
H1919 C1911 0.929 . S
H1920 C1928 0.929 . S
H1921 C1930 0.930 . S
H1922 C1932 0.930 . S
H1923 C1935 0.929 . S
H1924 C1938 0.930 . S
H1925 C1940 0.960 . S
H1926 C1940 0.960 . S
H1927 C1940 0.960 . S
C1928 H1920 0.929 . S
C1928 C1929 1.377 . S
C1928 C1930 1.384 . S
C1929 C1928 1.377 . S
C1929 C1935 1.390 . S
C1930 H1921 0.930 . S
C1930 C1928 1.384 . S
C1930 C1931 1.372 . S
C1931 C1930 1.372 . S
C1931 C1932 1.400 . S
C1931 C1936 1.490 . S
C1932 H1922 0.930 . S
C1932 C1931 1.400 . S
C1932 C1935 1.386 . S
H1933 C1949 0.930 . S
H1934 C1950 0.931 . S
C1935 H1923 0.929 . S
C1935 C1929 1.390 . S
C1935 C1932 1.386 . S
C1936 C1931 1.490 . S
C1936 C1938 1.395 . S
C1936 C1939 1.403 . S
H1937 C1943 0.930 . S
C1938 H1924 0.930 . S
C1938 C1936 1.395 . S
C1938 C1941 1.403 . S
C1939 C1936 1.403 . S
C1939 C1940 1.524 . S
C1939 C1943 1.400 . S
C1940 H1925 0.960 . S
C1940 H1926 0.960 . S
C1940 H1927 0.960 . S
C1940 C1939 1.524 . S
C1941 C1938 1.403 . S
C1941 C1942 1.392 . S
C1941 C1945 1.495 . S
C1942 C1941 1.392 . S
C1942 C1943 1.385 . S
C1942 C1944 1.478 . S
C1943 H1937 0.930 . S
C1943 C1939 1.400 . S
C1943 C1942 1.385 . S
C1944 C1942 1.478 . S
C1944 C1946 1.381 . S
C1944 C1950 1.383 . S
C1945 C1941 1.495 . S
C1945 H1951 0.959 . S
C1945 H1952 0.961 . S
C1945 H1953 0.960 . S
C1946 C1944 1.381 . S
C1946 C1947 1.394 . S
C1946 H1954 0.930 . S
C1947 C1946 1.394 . S
C1947 C1948 1.383 . S
C1947 H1955 0.929 . S
C1948 C1947 1.383 . S
C1948 C1949 1.377 . S
C1949 H1933 0.930 . S
C1949 C1948 1.377 . S
C1949 C1950 1.379 . S
C1950 H1934 0.931 . S
C1950 C1944 1.383 . S
C1950 C1949 1.379 . S
H1951 C1945 0.959 . S
H1952 C1945 0.961 . S
H1953 C1945 0.960 . S
H1954 C1946 0.930 . S
H1955 C1947 0.929 . S
H1956 C1964 0.929 . S
H1957 C1966 0.930 . S
H1958 C1968 0.930 . S
H1959 C1971 0.929 . S
H1960 C1974 0.930 . S
H1961 C1976 0.960 . S
H1962 C1976 0.960 . S
H1963 C1976 0.960 . S
C1964 H1956 0.929 . S
C1964 C1965 1.377 . S
C1964 C1966 1.384 . S
C1965 C1964 1.377 . S
C1965 C1971 1.390 . S
C1966 H1957 0.930 . S
C1966 C1964 1.384 . S
C1966 C1967 1.372 . S
C1967 C1966 1.372 . S
C1967 C1968 1.400 . S
C1967 C1972 1.490 . S
C1968 H1958 0.930 . S
C1968 C1967 1.400 . S
C1968 C1971 1.386 . S
H1969 C1985 0.930 . S
H1970 C1986 0.931 . S
C1971 H1959 0.929 . S
C1971 C1965 1.390 . S
C1971 C1968 1.386 . S
C1972 C1967 1.490 . S
C1972 C1974 1.395 . S
C1972 C1975 1.403 . S
H1973 C1979 0.930 . S
C1974 H1960 0.930 . S
C1974 C1972 1.395 . S
C1974 C1977 1.403 . S
C1975 C1972 1.403 . S
C1975 C1976 1.524 . S
C1975 C1979 1.400 . S
C1976 H1961 0.960 . S
C1976 H1962 0.960 . S
C1976 H1963 0.960 . S
C1976 C1975 1.524 . S
C1977 C1974 1.403 . S
C1977 C1978 1.392 . S
C1977 C1981 1.495 . S
C1978 C1977 1.392 . S
C1978 C1979 1.385 . S
C1978 C1980 1.478 . S
C1979 H1973 0.930 . S
C1979 C1975 1.400 . S
C1979 C1978 1.385 . S
C1980 C1978 1.478 . S
C1980 C1982 1.381 . S
C1980 C1986 1.383 . S
C1981 C1977 1.495 . S
C1981 H1987 0.959 . S
C1981 H1988 0.961 . S
C1981 H1989 0.960 . S
C1982 C1980 1.381 . S
C1982 C1983 1.394 . S
C1982 H1990 0.930 . S
C1983 C1982 1.394 . S
C1983 C1984 1.383 . S
C1983 H1991 0.929 . S
C1984 C1983 1.383 . S
C1984 C1985 1.377 . S
C1985 H1969 0.930 . S
C1985 C1984 1.377 . S
C1985 C1986 1.379 . S
C1986 H1970 0.931 . S
C1986 C1980 1.383 . S
C1986 C1985 1.379 . S
H1987 C1981 0.959 . S
H1988 C1981 0.961 . S
H1989 C1981 0.960 . S
H1990 C1982 0.930 . S
H1991 C1983 0.929 . S
H1992 C2000 0.929 . S
H1993 C2002 0.930 . S
H1994 C2004 0.930 . S
H1995 C2007 0.929 . S
H1996 C2010 0.930 . S
H1997 C2012 0.960 . S
H1998 C2012 0.960 . S
H1999 C2012 0.960 . S
C2000 H1992 0.929 . S
C2000 C2001 1.377 . S
C2000 C2002 1.384 . S
C2001 C2000 1.377 . S
C2001 C2007 1.390 . S
C2002 H1993 0.930 . S
C2002 C2000 1.384 . S
C2002 C2003 1.372 . S
C2003 C2002 1.372 . S
C2003 C2004 1.400 . S
C2003 C2008 1.490 . S
C2004 H1994 0.930 . S
C2004 C2003 1.400 . S
C2004 C2007 1.386 . S
H2005 C2021 0.930 . S
H2006 C2022 0.931 . S
C2007 H1995 0.929 . S
C2007 C2001 1.390 . S
C2007 C2004 1.386 . S
C2008 C2003 1.490 . S
C2008 C2010 1.395 . S
C2008 C2011 1.403 . S
H2009 C2015 0.930 . S
C2010 H1996 0.930 . S
C2010 C2008 1.395 . S
C2010 C2013 1.403 . S
C2011 C2008 1.403 . S
C2011 C2012 1.524 . S
C2011 C2015 1.400 . S
C2012 H1997 0.960 . S
C2012 H1998 0.960 . S
C2012 H1999 0.960 . S
C2012 C2011 1.524 . S
C2013 C2010 1.403 . S
C2013 C2014 1.392 . S
C2013 C2017 1.495 . S
C2014 C2013 1.392 . S
C2014 C2015 1.385 . S
C2014 C2016 1.478 . S
C2015 H2009 0.930 . S
C2015 C2011 1.400 . S
C2015 C2014 1.385 . S
C2016 C2014 1.478 . S
C2016 C2018 1.381 . S
C2016 C2022 1.383 . S
C2017 C2013 1.495 . S
C2017 H2023 0.959 . S
C2017 H2024 0.961 . S
C2017 H2025 0.960 . S
C2018 C2016 1.381 . S
C2018 C2019 1.394 . S
C2018 H2026 0.930 . S
C2019 C2018 1.394 . S
C2019 C2020 1.383 . S
C2019 H2027 0.929 . S
C2020 C2019 1.383 . S
C2020 C2021 1.377 . S
C2021 H2005 0.930 . S
C2021 C2020 1.377 . S
C2021 C2022 1.379 . S
C2022 H2006 0.931 . S
C2022 C2016 1.383 . S
C2022 C2021 1.379 . S
H2023 C2017 0.959 . S
H2024 C2017 0.961 . S
H2025 C2017 0.960 . S
H2026 C2018 0.930 . S
H2027 C2019 0.929 . S
H2028 C2036 0.929 . S
H2029 C2038 0.930 . S
H2030 C2040 0.930 . S
H2031 C2043 0.929 . S
H2032 C2046 0.930 . S
H2033 C2048 0.960 . S
H2034 C2048 0.960 . S
H2035 C2048 0.960 . S
C2036 H2028 0.929 . S
C2036 C2037 1.377 . S
C2036 C2038 1.384 . S
C2037 C2036 1.377 . S
C2037 C2043 1.390 . S
C2038 H2029 0.930 . S
C2038 C2036 1.384 . S
C2038 C2039 1.372 . S
C2039 C2038 1.372 . S
C2039 C2040 1.400 . S
C2039 C2044 1.490 . S
C2040 H2030 0.930 . S
C2040 C2039 1.400 . S
C2040 C2043 1.386 . S
H2041 C2057 0.930 . S
H2042 C2058 0.931 . S
C2043 H2031 0.929 . S
C2043 C2037 1.390 . S
C2043 C2040 1.386 . S
C2044 C2039 1.490 . S
C2044 C2046 1.395 . S
C2044 C2047 1.403 . S
H2045 C2051 0.930 . S
C2046 H2032 0.930 . S
C2046 C2044 1.395 . S
C2046 C2049 1.403 . S
C2047 C2044 1.403 . S
C2047 C2048 1.524 . S
C2047 C2051 1.400 . S
C2048 H2033 0.960 . S
C2048 H2034 0.960 . S
C2048 H2035 0.960 . S
C2048 C2047 1.524 . S
C2049 C2046 1.403 . S
C2049 C2050 1.392 . S
C2049 C2053 1.495 . S
C2050 C2049 1.392 . S
C2050 C2051 1.385 . S
C2050 C2052 1.478 . S
C2051 H2045 0.930 . S
C2051 C2047 1.400 . S
C2051 C2050 1.385 . S
C2052 C2050 1.478 . S
C2052 C2054 1.381 . S
C2052 C2058 1.383 . S
C2053 C2049 1.495 . S
C2053 H2059 0.959 . S
C2053 H2060 0.961 . S
C2053 H2061 0.960 . S
C2054 C2052 1.381 . S
C2054 C2055 1.394 . S
C2054 H2062 0.930 . S
C2055 C2054 1.394 . S
C2055 C2056 1.383 . S
C2055 H2063 0.929 . S
C2056 C2055 1.383 . S
C2056 C2057 1.377 . S
C2057 H2041 0.930 . S
C2057 C2056 1.377 . S
C2057 C2058 1.379 . S
C2058 H2042 0.931 . S
C2058 C2052 1.383 . S
C2058 C2057 1.379 . S
H2059 C2053 0.959 . S
H2060 C2053 0.961 . S
H2061 C2053 0.960 . S
H2062 C2054 0.930 . S
H2063 C2055 0.929 . S
H2064 C2072 0.929 . S
H2065 C2074 0.930 . S
H2066 C2076 0.930 . S
H2067 C2079 0.929 . S
H2068 C2082 0.930 . S
H2069 C2084 0.960 . S
H2070 C2084 0.960 . S
H2071 C2084 0.960 . S
C2072 H2064 0.929 . S
C2072 C2073 1.377 . S
C2072 C2074 1.384 . S
C2073 C2072 1.377 . S
C2073 C2079 1.390 . S
C2074 H2065 0.930 . S
C2074 C2072 1.384 . S
C2074 C2075 1.372 . S
C2075 C2074 1.372 . S
C2075 C2076 1.400 . S
C2075 C2080 1.490 . S
C2076 H2066 0.930 . S
C2076 C2075 1.400 . S
C2076 C2079 1.386 . S
H2077 C2093 0.930 . S
H2078 C2094 0.931 . S
C2079 H2067 0.929 . S
C2079 C2073 1.390 . S
C2079 C2076 1.386 . S
C2080 C2075 1.490 . S
C2080 C2082 1.395 . S
C2080 C2083 1.403 . S
H2081 C2087 0.930 . S
C2082 H2068 0.930 . S
C2082 C2080 1.395 . S
C2082 C2085 1.403 . S
C2083 C2080 1.403 . S
C2083 C2084 1.524 . S
C2083 C2087 1.400 . S
C2084 H2069 0.960 . S
C2084 H2070 0.960 . S
C2084 H2071 0.960 . S
C2084 C2083 1.524 . S
C2085 C2082 1.403 . S
C2085 C2086 1.392 . S
C2085 C2089 1.495 . S
C2086 C2085 1.392 . S
C2086 C2087 1.385 . S
C2086 C2088 1.478 . S
C2087 H2081 0.930 . S
C2087 C2083 1.400 . S
C2087 C2086 1.385 . S
C2088 C2086 1.478 . S
C2088 C2090 1.381 . S
C2088 C2094 1.383 . S
C2089 C2085 1.495 . S
C2089 H2095 0.959 . S
C2089 H2096 0.961 . S
C2089 H2097 0.960 . S
C2090 C2088 1.381 . S
C2090 C2091 1.394 . S
C2090 H2098 0.930 . S
C2091 C2090 1.394 . S
C2091 C2092 1.383 . S
C2091 H2099 0.929 . S
C2092 C2091 1.383 . S
C2092 C2093 1.377 . S
C2093 H2077 0.930 . S
C2093 C2092 1.377 . S
C2093 C2094 1.379 . S
C2094 H2078 0.931 . S
C2094 C2088 1.383 . S
C2094 C2093 1.379 . S
H2095 C2089 0.959 . S
H2096 C2089 0.961 . S
H2097 C2089 0.960 . S
H2098 C2090 0.930 . S
H2099 C2091 0.929 . S
H2100 C2108 0.929 . S
H2101 C2110 0.930 . S
H2102 C2112 0.930 . S
H2103 C2115 0.929 . S
H2104 C2118 0.930 . S
H2105 C2120 0.960 . S
H2106 C2120 0.960 . S
H2107 C2120 0.960 . S
C2108 H2100 0.929 . S
C2108 C2109 1.377 . S
C2108 C2110 1.384 . S
C2109 C2108 1.377 . S
C2109 C2115 1.390 . S
C2110 H2101 0.930 . S
C2110 C2108 1.384 . S
C2110 C2111 1.372 . S
C2111 C2110 1.372 . S
C2111 C2112 1.400 . S
C2111 C2116 1.490 . S
C2112 H2102 0.930 . S
C2112 C2111 1.400 . S
C2112 C2115 1.386 . S
H2113 C2129 0.930 . S
H2114 C2130 0.931 . S
C2115 H2103 0.929 . S
C2115 C2109 1.390 . S
C2115 C2112 1.386 . S
C2116 C2111 1.490 . S
C2116 C2118 1.395 . S
C2116 C2119 1.403 . S
H2117 C2123 0.930 . S
C2118 H2104 0.930 . S
C2118 C2116 1.395 . S
C2118 C2121 1.403 . S
C2119 C2116 1.403 . S
C2119 C2120 1.524 . S
C2119 C2123 1.400 . S
C2120 H2105 0.960 . S
C2120 H2106 0.960 . S
C2120 H2107 0.960 . S
C2120 C2119 1.524 . S
C2121 C2118 1.403 . S
C2121 C2122 1.392 . S
C2121 C2125 1.495 . S
C2122 C2121 1.392 . S
C2122 C2123 1.385 . S
C2122 C2124 1.478 . S
C2123 H2117 0.930 . S
C2123 C2119 1.400 . S
C2123 C2122 1.385 . S
C2124 C2122 1.478 . S
C2124 C2126 1.381 . S
C2124 C2130 1.383 . S
C2125 C2121 1.495 . S
C2125 H2131 0.959 . S
C2125 H2132 0.961 . S
C2125 H2133 0.960 . S
C2126 C2124 1.381 . S
C2126 C2127 1.394 . S
C2126 H2134 0.930 . S
C2127 C2126 1.394 . S
C2127 C2128 1.383 . S
C2127 H2135 0.929 . S
C2128 C2127 1.383 . S
C2128 C2129 1.377 . S
C2129 H2113 0.930 . S
C2129 C2128 1.377 . S
C2129 C2130 1.379 . S
C2130 H2114 0.931 . S
C2130 C2124 1.383 . S
C2130 C2129 1.379 . S
H2131 C2125 0.959 . S
H2132 C2125 0.961 . S
H2133 C2125 0.960 . S
H2134 C2126 0.930 . S
H2135 C2127 0.929 . S
H2136 C2144 0.929 . S
H2137 C2146 0.930 . S
H2138 C2148 0.930 . S
H2139 C2151 0.929 . S
H2140 C2154 0.930 . S
H2141 C2156 0.960 . S
H2142 C2156 0.960 . S
H2143 C2156 0.960 . S
C2144 H2136 0.929 . S
C2144 C2145 1.377 . S
C2144 C2146 1.384 . S
C2145 C2144 1.377 . S
C2145 C2151 1.390 . S
C2146 H2137 0.930 . S
C2146 C2144 1.384 . S
C2146 C2147 1.372 . S
C2147 C2146 1.372 . S
C2147 C2148 1.400 . S
C2147 C2152 1.490 . S
C2148 H2138 0.930 . S
C2148 C2147 1.400 . S
C2148 C2151 1.386 . S
H2149 C2165 0.930 . S
H2150 C2166 0.931 . S
C2151 H2139 0.929 . S
C2151 C2145 1.390 . S
C2151 C2148 1.386 . S
C2152 C2147 1.490 . S
C2152 C2154 1.395 . S
C2152 C2155 1.403 . S
H2153 C2159 0.930 . S
C2154 H2140 0.930 . S
C2154 C2152 1.395 . S
C2154 C2157 1.403 . S
C2155 C2152 1.403 . S
C2155 C2156 1.524 . S
C2155 C2159 1.400 . S
C2156 H2141 0.960 . S
C2156 H2142 0.960 . S
C2156 H2143 0.960 . S
C2156 C2155 1.524 . S
C2157 C2154 1.403 . S
C2157 C2158 1.392 . S
C2157 C2161 1.495 . S
C2158 C2157 1.392 . S
C2158 C2159 1.385 . S
C2158 C2160 1.478 . S
C2159 H2153 0.930 . S
C2159 C2155 1.400 . S
C2159 C2158 1.385 . S
C2160 C2158 1.478 . S
C2160 C2162 1.381 . S
C2160 C2166 1.383 . S
C2161 C2157 1.495 . S
C2161 H2167 0.959 . S
C2161 H2168 0.961 . S
C2161 H2169 0.960 . S
C2162 C2160 1.381 . S
C2162 C2163 1.394 . S
C2162 H2170 0.930 . S
C2163 C2162 1.394 . S
C2163 C2164 1.383 . S
C2163 H2171 0.929 . S
C2164 C2163 1.383 . S
C2164 C2165 1.377 . S
C2165 H2149 0.930 . S
C2165 C2164 1.377 . S
C2165 C2166 1.379 . S
C2166 H2150 0.931 . S
C2166 C2160 1.383 . S
C2166 C2165 1.379 . S
H2167 C2161 0.959 . S
H2168 C2161 0.961 . S
H2169 C2161 0.960 . S
H2170 C2162 0.930 . S
H2171 C2163 0.929 . S
H2172 C2180 0.929 . S
H2173 C2182 0.930 . S
H2174 C2184 0.930 . S
H2175 C2187 0.929 . S
H2176 C2190 0.930 . S
H2177 C2192 0.960 . S
H2178 C2192 0.960 . S
H2179 C2192 0.960 . S
C2180 H2172 0.929 . S
C2180 C2181 1.377 . S
C2180 C2182 1.384 . S
C2181 C2180 1.377 . S
C2181 C2187 1.390 . S
C2182 H2173 0.930 . S
C2182 C2180 1.384 . S
C2182 C2183 1.372 . S
C2183 C2182 1.372 . S
C2183 C2184 1.400 . S
C2183 C2188 1.490 . S
C2184 H2174 0.930 . S
C2184 C2183 1.400 . S
C2184 C2187 1.386 . S
H2185 C2201 0.930 . S
H2186 C2202 0.931 . S
C2187 H2175 0.929 . S
C2187 C2181 1.390 . S
C2187 C2184 1.386 . S
C2188 C2183 1.490 . S
C2188 C2190 1.395 . S
C2188 C2191 1.403 . S
H2189 C2195 0.930 . S
C2190 H2176 0.930 . S
C2190 C2188 1.395 . S
C2190 C2193 1.403 . S
C2191 C2188 1.403 . S
C2191 C2192 1.524 . S
C2191 C2195 1.400 . S
C2192 H2177 0.960 . S
C2192 H2178 0.960 . S
C2192 H2179 0.960 . S
C2192 C2191 1.524 . S
C2193 C2190 1.403 . S
C2193 C2194 1.392 . S
C2193 C2197 1.495 . S
C2194 C2193 1.392 . S
C2194 C2195 1.385 . S
C2194 C2196 1.478 . S
C2195 H2189 0.930 . S
C2195 C2191 1.400 . S
C2195 C2194 1.385 . S
C2196 C2194 1.478 . S
C2196 C2198 1.381 . S
C2196 C2202 1.383 . S
C2197 C2193 1.495 . S
C2197 H2203 0.959 . S
C2197 H2204 0.961 . S
C2197 H2205 0.960 . S
C2198 C2196 1.381 . S
C2198 C2199 1.394 . S
C2198 H2206 0.930 . S
C2199 C2198 1.394 . S
C2199 C2200 1.383 . S
C2199 H2207 0.929 . S
C2200 C2199 1.383 . S
C2200 C2201 1.377 . S
C2201 H2185 0.930 . S
C2201 C2200 1.377 . S
C2201 C2202 1.379 . S
C2202 H2186 0.931 . S
C2202 C2196 1.383 . S
C2202 C2201 1.379 . S
H2203 C2197 0.959 . S
H2204 C2197 0.961 . S
H2205 C2197 0.960 . S
H2206 C2198 0.930 . S
H2207 C2199 0.929 . S
H2208 C2216 0.929 . S
H2209 C2218 0.930 . S
H2210 C2220 0.930 . S
H2211 C2223 0.929 . S
H2212 C2226 0.930 . S
H2213 C2228 0.960 . S
H2214 C2228 0.960 . S
H2215 C2228 0.960 . S
C2216 H2208 0.929 . S
C2216 C2217 1.377 . S
C2216 C2218 1.384 . S
C2217 C2216 1.377 . S
C2217 C2223 1.390 . S
C2218 H2209 0.930 . S
C2218 C2216 1.384 . S
C2218 C2219 1.372 . S
C2219 C2218 1.372 . S
C2219 C2220 1.400 . S
C2219 C2224 1.490 . S
C2220 H2210 0.930 . S
C2220 C2219 1.400 . S
C2220 C2223 1.386 . S
H2221 C2237 0.930 . S
H2222 C2238 0.931 . S
C2223 H2211 0.929 . S
C2223 C2217 1.390 . S
C2223 C2220 1.386 . S
C2224 C2219 1.490 . S
C2224 C2226 1.395 . S
C2224 C2227 1.403 . S
H2225 C2231 0.930 . S
C2226 H2212 0.930 . S
C2226 C2224 1.395 . S
C2226 C2229 1.403 . S
C2227 C2224 1.403 . S
C2227 C2228 1.524 . S
C2227 C2231 1.400 . S
C2228 H2213 0.960 . S
C2228 H2214 0.960 . S
C2228 H2215 0.960 . S
C2228 C2227 1.524 . S
C2229 C2226 1.403 . S
C2229 C2230 1.392 . S
C2229 C2233 1.495 . S
C2230 C2229 1.392 . S
C2230 C2231 1.385 . S
C2230 C2232 1.478 . S
C2231 H2225 0.930 . S
C2231 C2227 1.400 . S
C2231 C2230 1.385 . S
C2232 C2230 1.478 . S
C2232 C2234 1.381 . S
C2232 C2238 1.383 . S
C2233 C2229 1.495 . S
C2233 H2239 0.959 . S
C2233 H2240 0.961 . S
C2233 H2241 0.960 . S
C2234 C2232 1.381 . S
C2234 C2235 1.394 . S
C2234 H2242 0.930 . S
C2235 C2234 1.394 . S
C2235 C2236 1.383 . S
C2235 H2243 0.929 . S
C2236 C2235 1.383 . S
C2236 C2237 1.377 . S
C2237 H2221 0.930 . S
C2237 C2236 1.377 . S
C2237 C2238 1.379 . S
C2238 H2222 0.931 . S
C2238 C2232 1.383 . S
C2238 C2237 1.379 . S
H2239 C2233 0.959 . S
H2240 C2233 0.961 . S
H2241 C2233 0.960 . S
H2242 C2234 0.930 . S
H2243 C2235 0.929 . S
H2244 C2252 0.929 . S
H2245 C2254 0.930 . S
H2246 C2256 0.930 . S
H2247 C2259 0.929 . S
H2248 C2262 0.930 . S
H2249 C2264 0.960 . S
H2250 C2264 0.960 . S
H2251 C2264 0.960 . S
C2252 H2244 0.929 . S
C2252 C2253 1.377 . S
C2252 C2254 1.384 . S
C2253 C2252 1.377 . S
C2253 C2259 1.390 . S
C2254 H2245 0.930 . S
C2254 C2252 1.384 . S
C2254 C2255 1.372 . S
C2255 C2254 1.372 . S
C2255 C2256 1.400 . S
C2255 C2260 1.490 . S
C2256 H2246 0.930 . S
C2256 C2255 1.400 . S
C2256 C2259 1.386 . S
H2257 C2273 0.930 . S
H2258 C2274 0.931 . S
C2259 H2247 0.929 . S
C2259 C2253 1.390 . S
C2259 C2256 1.386 . S
C2260 C2255 1.490 . S
C2260 C2262 1.395 . S
C2260 C2263 1.403 . S
H2261 C2267 0.930 . S
C2262 H2248 0.930 . S
C2262 C2260 1.395 . S
C2262 C2265 1.403 . S
C2263 C2260 1.403 . S
C2263 C2264 1.524 . S
C2263 C2267 1.400 . S
C2264 H2249 0.960 . S
C2264 H2250 0.960 . S
C2264 H2251 0.960 . S
C2264 C2263 1.524 . S
C2265 C2262 1.403 . S
C2265 C2266 1.392 . S
C2265 C2269 1.495 . S
C2266 C2265 1.392 . S
C2266 C2267 1.385 . S
C2266 C2268 1.478 . S
C2267 H2261 0.930 . S
C2267 C2263 1.400 . S
C2267 C2266 1.385 . S
C2268 C2266 1.478 . S
C2268 C2270 1.381 . S
C2268 C2274 1.383 . S
C2269 C2265 1.495 . S
C2269 H2275 0.959 . S
C2269 H2276 0.961 . S
C2269 H2277 0.960 . S
C2270 C2268 1.381 . S
C2270 C2271 1.394 . S
C2270 H2278 0.930 . S
C2271 C2270 1.394 . S
C2271 C2272 1.383 . S
C2271 H2279 0.929 . S
C2272 C2271 1.383 . S
C2272 C2273 1.377 . S
C2273 H2257 0.930 . S
C2273 C2272 1.377 . S
C2273 C2274 1.379 . S
C2274 H2258 0.931 . S
C2274 C2268 1.383 . S
C2274 C2273 1.379 . S
H2275 C2269 0.959 . S
H2276 C2269 0.961 . S
H2277 C2269 0.960 . S
H2278 C2270 0.930 . S
H2279 C2271 0.929 . S
H2280 C2288 0.929 . S
H2281 C2290 0.930 . S
H2282 C2292 0.930 . S
H2283 C2295 0.929 . S
H2284 C2298 0.930 . S
H2285 C2300 0.960 . S
H2286 C2300 0.960 . S
H2287 C2300 0.960 . S
C2288 H2280 0.929 . S
C2288 C2289 1.377 . S
C2288 C2290 1.384 . S
C2289 C2288 1.377 . S
C2289 C2295 1.390 . S
C2290 H2281 0.930 . S
C2290 C2288 1.384 . S
C2290 C2291 1.372 . S
C2291 C2290 1.372 . S
C2291 C2292 1.400 . S
C2291 C2296 1.490 . S
C2292 H2282 0.930 . S
C2292 C2291 1.400 . S
C2292 C2295 1.386 . S
H2293 C2309 0.930 . S
H2294 C2310 0.931 . S
C2295 H2283 0.929 . S
C2295 C2289 1.390 . S
C2295 C2292 1.386 . S
C2296 C2291 1.490 . S
C2296 C2298 1.395 . S
C2296 C2299 1.403 . S
H2297 C2303 0.930 . S
C2298 H2284 0.930 . S
C2298 C2296 1.395 . S
C2298 C2301 1.403 . S
C2299 C2296 1.403 . S
C2299 C2300 1.524 . S
C2299 C2303 1.400 . S
C2300 H2285 0.960 . S
C2300 H2286 0.960 . S
C2300 H2287 0.960 . S
C2300 C2299 1.524 . S
C2301 C2298 1.403 . S
C2301 C2302 1.392 . S
C2301 C2305 1.495 . S
C2302 C2301 1.392 . S
C2302 C2303 1.385 . S
C2302 C2304 1.478 . S
C2303 H2297 0.930 . S
C2303 C2299 1.400 . S
C2303 C2302 1.385 . S
C2304 C2302 1.478 . S
C2304 C2306 1.381 . S
C2304 C2310 1.383 . S
C2305 C2301 1.495 . S
C2305 H2311 0.959 . S
C2305 H2312 0.961 . S
C2305 H2313 0.960 . S
C2306 C2304 1.381 . S
C2306 C2307 1.394 . S
C2306 H2314 0.930 . S
C2307 C2306 1.394 . S
C2307 C2308 1.383 . S
C2307 H2315 0.929 . S
C2308 C2307 1.383 . S
C2308 C2309 1.377 . S
C2309 H2293 0.930 . S
C2309 C2308 1.377 . S
C2309 C2310 1.379 . S
C2310 H2294 0.931 . S
C2310 C2304 1.383 . S
C2310 C2309 1.379 . S
H2311 C2305 0.959 . S
H2312 C2305 0.961 . S
H2313 C2305 0.960 . S
H2314 C2306 0.930 . S
H2315 C2307 0.929 . S
H2316 C2324 0.929 . S
H2317 C2326 0.930 . S
H2318 C2328 0.930 . S
H2319 C2331 0.929 . S
H2320 C2334 0.930 . S
H2321 C2336 0.960 . S
H2322 C2336 0.960 . S
H2323 C2336 0.960 . S
C2324 H2316 0.929 . S
C2324 C2325 1.377 . S
C2324 C2326 1.384 . S
C2325 C2324 1.377 . S
C2325 C2331 1.390 . S
C2326 H2317 0.930 . S
C2326 C2324 1.384 . S
C2326 C2327 1.372 . S
C2327 C2326 1.372 . S
C2327 C2328 1.400 . S
C2327 C2332 1.490 . S
C2328 H2318 0.930 . S
C2328 C2327 1.400 . S
C2328 C2331 1.386 . S
H2329 C2345 0.930 . S
H2330 C2346 0.931 . S
C2331 H2319 0.929 . S
C2331 C2325 1.390 . S
C2331 C2328 1.386 . S
C2332 C2327 1.490 . S
C2332 C2334 1.395 . S
C2332 C2335 1.403 . S
H2333 C2339 0.930 . S
C2334 H2320 0.930 . S
C2334 C2332 1.395 . S
C2334 C2337 1.403 . S
C2335 C2332 1.403 . S
C2335 C2336 1.524 . S
C2335 C2339 1.400 . S
C2336 H2321 0.960 . S
C2336 H2322 0.960 . S
C2336 H2323 0.960 . S
C2336 C2335 1.524 . S
C2337 C2334 1.403 . S
C2337 C2338 1.392 . S
C2337 C2341 1.495 . S
C2338 C2337 1.392 . S
C2338 C2339 1.385 . S
C2338 C2340 1.478 . S
C2339 H2333 0.930 . S
C2339 C2335 1.400 . S
C2339 C2338 1.385 . S
C2340 C2338 1.478 . S
C2340 C2342 1.381 . S
C2340 C2346 1.383 . S
C2341 C2337 1.495 . S
C2341 H2347 0.959 . S
C2341 H2348 0.961 . S
C2341 H2349 0.960 . S
C2342 C2340 1.381 . S
C2342 C2343 1.394 . S
C2342 H2350 0.930 . S
C2343 C2342 1.394 . S
C2343 C2344 1.383 . S
C2343 H2351 0.929 . S
C2344 C2343 1.383 . S
C2344 C2345 1.377 . S
C2345 H2329 0.930 . S
C2345 C2344 1.377 . S
C2345 C2346 1.379 . S
C2346 H2330 0.931 . S
C2346 C2340 1.383 . S
C2346 C2345 1.379 . S
H2347 C2341 0.959 . S
H2348 C2341 0.961 . S
H2349 C2341 0.960 . S
H2350 C2342 0.930 . S
H2351 C2343 0.929 . S
H2352 C2360 0.929 . S
H2353 C2362 0.930 . S
H2354 C2364 0.930 . S
H2355 C2367 0.929 . S
H2356 C2370 0.930 . S
H2357 C2372 0.960 . S
H2358 C2372 0.960 . S
H2359 C2372 0.960 . S
C2360 H2352 0.929 . S
C2360 C2361 1.377 . S
C2360 C2362 1.384 . S
C2361 C2360 1.377 . S
C2361 C2367 1.390 . S
C2362 H2353 0.930 . S
C2362 C2360 1.384 . S
C2362 C2363 1.372 . S
C2363 C2362 1.372 . S
C2363 C2364 1.400 . S
C2363 C2368 1.490 . S
C2364 H2354 0.930 . S
C2364 C2363 1.400 . S
C2364 C2367 1.386 . S
H2365 C2381 0.930 . S
H2366 C2382 0.931 . S
C2367 H2355 0.929 . S
C2367 C2361 1.390 . S
C2367 C2364 1.386 . S
C2368 C2363 1.490 . S
C2368 C2370 1.395 . S
C2368 C2371 1.403 . S
H2369 C2375 0.930 . S
C2370 H2356 0.930 . S
C2370 C2368 1.395 . S
C2370 C2373 1.403 . S
C2371 C2368 1.403 . S
C2371 C2372 1.524 . S
C2371 C2375 1.400 . S
C2372 H2357 0.960 . S
C2372 H2358 0.960 . S
C2372 H2359 0.960 . S
C2372 C2371 1.524 . S
C2373 C2370 1.403 . S
C2373 C2374 1.392 . S
C2373 C2377 1.495 . S
C2374 C2373 1.392 . S
C2374 C2375 1.385 . S
C2374 C2376 1.478 . S
C2375 H2369 0.930 . S
C2375 C2371 1.400 . S
C2375 C2374 1.385 . S
C2376 C2374 1.478 . S
C2376 C2378 1.381 . S
C2376 C2382 1.383 . S
C2377 C2373 1.495 . S
C2377 H2383 0.959 . S
C2377 H2384 0.961 . S
C2377 H2385 0.960 . S
C2378 C2376 1.381 . S
C2378 C2379 1.394 . S
C2378 H2386 0.930 . S
C2379 C2378 1.394 . S
C2379 C2380 1.383 . S
C2379 H2387 0.929 . S
C2380 C2379 1.383 . S
C2380 C2381 1.377 . S
C2381 H2365 0.930 . S
C2381 C2380 1.377 . S
C2381 C2382 1.379 . S
C2382 H2366 0.931 . S
C2382 C2376 1.383 . S
C2382 C2381 1.379 . S
H2383 C2377 0.959 . S
H2384 C2377 0.961 . S
H2385 C2377 0.960 . S
H2386 C2378 0.930 . S
H2387 C2379 0.929 . S
H2388 C2396 0.929 . S
H2389 C2398 0.930 . S
H2390 C2400 0.930 . S
H2391 C2403 0.929 . S
H2392 C2406 0.930 . S
H2393 C2408 0.960 . S
H2394 C2408 0.960 . S
H2395 C2408 0.960 . S
C2396 H2388 0.929 . S
C2396 C2397 1.377 . S
C2396 C2398 1.384 . S
C2397 C2396 1.377 . S
C2397 C2403 1.390 . S
C2398 H2389 0.930 . S
C2398 C2396 1.384 . S
C2398 C2399 1.372 . S
C2399 C2398 1.372 . S
C2399 C2400 1.400 . S
C2399 C2404 1.490 . S
C2400 H2390 0.930 . S
C2400 C2399 1.400 . S
C2400 C2403 1.386 . S
H2401 C2417 0.930 . S
H2402 C2418 0.931 . S
C2403 H2391 0.929 . S
C2403 C2397 1.390 . S
C2403 C2400 1.386 . S
C2404 C2399 1.490 . S
C2404 C2406 1.395 . S
C2404 C2407 1.403 . S
H2405 C2411 0.930 . S
C2406 H2392 0.930 . S
C2406 C2404 1.395 . S
C2406 C2409 1.403 . S
C2407 C2404 1.403 . S
C2407 C2408 1.524 . S
C2407 C2411 1.400 . S
C2408 H2393 0.960 . S
C2408 H2394 0.960 . S
C2408 H2395 0.960 . S
C2408 C2407 1.524 . S
C2409 C2406 1.403 . S
C2409 C2410 1.392 . S
C2409 C2413 1.495 . S
C2410 C2409 1.392 . S
C2410 C2411 1.385 . S
C2410 C2412 1.478 . S
C2411 H2405 0.930 . S
C2411 C2407 1.400 . S
C2411 C2410 1.385 . S
C2412 C2410 1.478 . S
C2412 C2414 1.381 . S
C2412 C2418 1.383 . S
C2413 C2409 1.495 . S
C2413 H2419 0.959 . S
C2413 H2420 0.961 . S
C2413 H2421 0.960 . S
C2414 C2412 1.381 . S
C2414 C2415 1.394 . S
C2414 H2422 0.930 . S
C2415 C2414 1.394 . S
C2415 C2416 1.383 . S
C2415 H2423 0.929 . S
C2416 C2415 1.383 . S
C2416 C2417 1.377 . S
C2417 H2401 0.930 . S
C2417 C2416 1.377 . S
C2417 C2418 1.379 . S
C2418 H2402 0.931 . S
C2418 C2412 1.383 . S
C2418 C2417 1.379 . S
H2419 C2413 0.959 . S
H2420 C2413 0.961 . S
H2421 C2413 0.960 . S
H2422 C2414 0.930 . S
H2423 C2415 0.929 . S
H2424 C2432 0.929 . S
H2425 C2434 0.930 . S
H2426 C2436 0.930 . S
H2427 C2439 0.929 . S
H2428 C2442 0.930 . S
H2429 C2444 0.960 . S
H2430 C2444 0.960 . S
H2431 C2444 0.960 . S
C2432 H2424 0.929 . S
C2432 C2433 1.377 . S
C2432 C2434 1.384 . S
C2433 C2432 1.377 . S
C2433 C2439 1.390 . S
C2434 H2425 0.930 . S
C2434 C2432 1.384 . S
C2434 C2435 1.372 . S
C2435 C2434 1.372 . S
C2435 C2436 1.400 . S
C2435 C2440 1.490 . S
C2436 H2426 0.930 . S
C2436 C2435 1.400 . S
C2436 C2439 1.386 . S
H2437 C2453 0.930 . S
H2438 C2454 0.931 . S
C2439 H2427 0.929 . S
C2439 C2433 1.390 . S
C2439 C2436 1.386 . S
C2440 C2435 1.490 . S
C2440 C2442 1.395 . S
C2440 C2443 1.403 . S
H2441 C2447 0.930 . S
C2442 H2428 0.930 . S
C2442 C2440 1.395 . S
C2442 C2445 1.403 . S
C2443 C2440 1.403 . S
C2443 C2444 1.524 . S
C2443 C2447 1.400 . S
C2444 H2429 0.960 . S
C2444 H2430 0.960 . S
C2444 H2431 0.960 . S
C2444 C2443 1.524 . S
C2445 C2442 1.403 . S
C2445 C2446 1.392 . S
C2445 C2449 1.495 . S
C2446 C2445 1.392 . S
C2446 C2447 1.385 . S
C2446 C2448 1.478 . S
C2447 H2441 0.930 . S
C2447 C2443 1.400 . S
C2447 C2446 1.385 . S
C2448 C2446 1.478 . S
C2448 C2450 1.381 . S
C2448 C2454 1.383 . S
C2449 C2445 1.495 . S
C2449 H2455 0.959 . S
C2449 H2456 0.961 . S
C2449 H2457 0.960 . S
C2450 C2448 1.381 . S
C2450 C2451 1.394 . S
C2450 H2458 0.930 . S
C2451 C2450 1.394 . S
C2451 C2452 1.383 . S
C2451 H2459 0.929 . S
C2452 C2451 1.383 . S
C2452 C2453 1.377 . S
C2453 H2437 0.930 . S
C2453 C2452 1.377 . S
C2453 C2454 1.379 . S
C2454 H2438 0.931 . S
C2454 C2448 1.383 . S
C2454 C2453 1.379 . S
H2455 C2449 0.959 . S
H2456 C2449 0.961 . S
H2457 C2449 0.960 . S
H2458 C2450 0.930 . S
H2459 C2451 0.929 . S
H2460 C2468 0.929 . S
H2461 C2470 0.930 . S
H2462 C2472 0.930 . S
H2463 C2475 0.929 . S
H2464 C2478 0.930 . S
H2465 C2480 0.960 . S
H2466 C2480 0.960 . S
H2467 C2480 0.960 . S
C2468 H2460 0.929 . S
C2468 C2469 1.377 . S
C2468 C2470 1.384 . S
C2469 C2468 1.377 . S
C2469 C2475 1.390 . S
C2470 H2461 0.930 . S
C2470 C2468 1.384 . S
C2470 C2471 1.372 . S
C2471 C2470 1.372 . S
C2471 C2472 1.400 . S
C2471 C2476 1.490 . S
C2472 H2462 0.930 . S
C2472 C2471 1.400 . S
C2472 C2475 1.386 . S
H2473 C2489 0.930 . S
H2474 C2490 0.931 . S
C2475 H2463 0.929 . S
C2475 C2469 1.390 . S
C2475 C2472 1.386 . S
C2476 C2471 1.490 . S
C2476 C2478 1.395 . S
C2476 C2479 1.403 . S
H2477 C2483 0.930 . S
C2478 H2464 0.930 . S
C2478 C2476 1.395 . S
C2478 C2481 1.403 . S
C2479 C2476 1.403 . S
C2479 C2480 1.524 . S
C2479 C2483 1.400 . S
C2480 H2465 0.960 . S
C2480 H2466 0.960 . S
C2480 H2467 0.960 . S
C2480 C2479 1.524 . S
C2481 C2478 1.403 . S
C2481 C2482 1.392 . S
C2481 C2485 1.495 . S
C2482 C2481 1.392 . S
C2482 C2483 1.385 . S
C2482 C2484 1.478 . S
C2483 H2477 0.930 . S
C2483 C2479 1.400 . S
C2483 C2482 1.385 . S
C2484 C2482 1.478 . S
C2484 C2486 1.381 . S
C2484 C2490 1.383 . S
C2485 C2481 1.495 . S
C2485 H2491 0.959 . S
C2485 H2492 0.961 . S
C2485 H2493 0.960 . S
C2486 C2484 1.381 . S
C2486 C2487 1.394 . S
C2486 H2494 0.930 . S
C2487 C2486 1.394 . S
C2487 C2488 1.383 . S
C2487 H2495 0.929 . S
C2488 C2487 1.383 . S
C2488 C2489 1.377 . S
C2489 H2473 0.930 . S
C2489 C2488 1.377 . S
C2489 C2490 1.379 . S
C2490 H2474 0.931 . S
C2490 C2484 1.383 . S
C2490 C2489 1.379 . S
H2491 C2485 0.959 . S
H2492 C2485 0.961 . S
H2493 C2485 0.960 . S
H2494 C2486 0.930 . S
H2495 C2487 0.929 . S
H2496 C2504 0.929 . S
H2497 C2506 0.930 . S
H2498 C2508 0.930 . S
H2499 C2511 0.929 . S
H2500 C2514 0.930 . S
H2501 C2516 0.960 . S
H2502 C2516 0.960 . S
H2503 C2516 0.960 . S
C2504 H2496 0.929 . S
C2504 C2505 1.377 . S
C2504 C2506 1.384 . S
C2505 C2504 1.377 . S
C2505 C2511 1.390 . S
C2506 H2497 0.930 . S
C2506 C2504 1.384 . S
C2506 C2507 1.372 . S
C2507 C2506 1.372 . S
C2507 C2508 1.400 . S
C2507 C2512 1.490 . S
C2508 H2498 0.930 . S
C2508 C2507 1.400 . S
C2508 C2511 1.386 . S
H2509 C2525 0.930 . S
H2510 C2526 0.931 . S
C2511 H2499 0.929 . S
C2511 C2505 1.390 . S
C2511 C2508 1.386 . S
C2512 C2507 1.490 . S
C2512 C2514 1.395 . S
C2512 C2515 1.403 . S
H2513 C2519 0.930 . S
C2514 H2500 0.930 . S
C2514 C2512 1.395 . S
C2514 C2517 1.403 . S
C2515 C2512 1.403 . S
C2515 C2516 1.524 . S
C2515 C2519 1.400 . S
C2516 H2501 0.960 . S
C2516 H2502 0.960 . S
C2516 H2503 0.960 . S
C2516 C2515 1.524 . S
C2517 C2514 1.403 . S
C2517 C2518 1.392 . S
C2517 C2521 1.495 . S
C2518 C2517 1.392 . S
C2518 C2519 1.385 . S
C2518 C2520 1.478 . S
C2519 H2513 0.930 . S
C2519 C2515 1.400 . S
C2519 C2518 1.385 . S
C2520 C2518 1.478 . S
C2520 C2522 1.381 . S
C2520 C2526 1.383 . S
C2521 C2517 1.495 . S
C2521 H2527 0.959 . S
C2521 H2528 0.961 . S
C2521 H2529 0.960 . S
C2522 C2520 1.381 . S
C2522 C2523 1.394 . S
C2522 H2530 0.930 . S
C2523 C2522 1.394 . S
C2523 C2524 1.383 . S
C2523 H2531 0.929 . S
C2524 C2523 1.383 . S
C2524 C2525 1.377 . S
C2525 H2509 0.930 . S
C2525 C2524 1.377 . S
C2525 C2526 1.379 . S
C2526 H2510 0.931 . S
C2526 C2520 1.383 . S
C2526 C2525 1.379 . S
H2527 C2521 0.959 . S
H2528 C2521 0.961 . S
H2529 C2521 0.960 . S
H2530 C2522 0.930 . S
H2531 C2523 0.929 . S
H2532 C2540 0.929 . S
H2533 C2542 0.930 . S
H2534 C2544 0.930 . S
H2535 C2547 0.929 . S
H2536 C2550 0.930 . S
H2537 C2552 0.960 . S
H2538 C2552 0.960 . S
H2539 C2552 0.960 . S
C2540 H2532 0.929 . S
C2540 C2541 1.377 . S
C2540 C2542 1.384 . S
C2541 C2540 1.377 . S
C2541 C2547 1.390 . S
C2542 H2533 0.930 . S
C2542 C2540 1.384 . S
C2542 C2543 1.372 . S
C2543 C2542 1.372 . S
C2543 C2544 1.400 . S
C2543 C2548 1.490 . S
C2544 H2534 0.930 . S
C2544 C2543 1.400 . S
C2544 C2547 1.386 . S
H2545 C2561 0.930 . S
H2546 C2562 0.931 . S
C2547 H2535 0.929 . S
C2547 C2541 1.390 . S
C2547 C2544 1.386 . S
C2548 C2543 1.490 . S
C2548 C2550 1.395 . S
C2548 C2551 1.403 . S
H2549 C2555 0.930 . S
C2550 H2536 0.930 . S
C2550 C2548 1.395 . S
C2550 C2553 1.403 . S
C2551 C2548 1.403 . S
C2551 C2552 1.524 . S
C2551 C2555 1.400 . S
C2552 H2537 0.960 . S
C2552 H2538 0.960 . S
C2552 H2539 0.960 . S
C2552 C2551 1.524 . S
C2553 C2550 1.403 . S
C2553 C2554 1.392 . S
C2553 C2557 1.495 . S
C2554 C2553 1.392 . S
C2554 C2555 1.385 . S
C2554 C2556 1.478 . S
C2555 H2549 0.930 . S
C2555 C2551 1.400 . S
C2555 C2554 1.385 . S
C2556 C2554 1.478 . S
C2556 C2558 1.381 . S
C2556 C2562 1.383 . S
C2557 C2553 1.495 . S
C2557 H2563 0.959 . S
C2557 H2564 0.961 . S
C2557 H2565 0.960 . S
C2558 C2556 1.381 . S
C2558 C2559 1.394 . S
C2558 H2566 0.930 . S
C2559 C2558 1.394 . S
C2559 C2560 1.383 . S
C2559 H2567 0.929 . S
C2560 C2559 1.383 . S
C2560 C2561 1.377 . S
C2561 H2545 0.930 . S
C2561 C2560 1.377 . S
C2561 C2562 1.379 . S
C2562 H2546 0.931 . S
C2562 C2556 1.383 . S
C2562 C2561 1.379 . S
H2563 C2557 0.959 . S
H2564 C2557 0.961 . S
H2565 C2557 0.960 . S
H2566 C2558 0.930 . S
H2567 C2559 0.929 . S
H2568 C2576 0.929 . S
H2569 C2578 0.930 . S
H2570 C2580 0.930 . S
H2571 C2583 0.929 . S
H2572 C2586 0.930 . S
H2573 C2588 0.960 . S
H2574 C2588 0.960 . S
H2575 C2588 0.960 . S
C2576 H2568 0.929 . S
C2576 C2577 1.377 . S
C2576 C2578 1.384 . S
C2577 C2576 1.377 . S
C2577 C2583 1.390 . S
C2578 H2569 0.930 . S
C2578 C2576 1.384 . S
C2578 C2579 1.372 . S
C2579 C2578 1.372 . S
C2579 C2580 1.400 . S
C2579 C2584 1.490 . S
C2580 H2570 0.930 . S
C2580 C2579 1.400 . S
C2580 C2583 1.386 . S
H2581 C2597 0.930 . S
H2582 C2598 0.931 . S
C2583 H2571 0.929 . S
C2583 C2577 1.390 . S
C2583 C2580 1.386 . S
C2584 C2579 1.490 . S
C2584 C2586 1.395 . S
C2584 C2587 1.403 . S
H2585 C2591 0.930 . S
C2586 H2572 0.930 . S
C2586 C2584 1.395 . S
C2586 C2589 1.403 . S
C2587 C2584 1.403 . S
C2587 C2588 1.524 . S
C2587 C2591 1.400 . S
C2588 H2573 0.960 . S
C2588 H2574 0.960 . S
C2588 H2575 0.960 . S
C2588 C2587 1.524 . S
C2589 C2586 1.403 . S
C2589 C2590 1.392 . S
C2589 C2593 1.495 . S
C2590 C2589 1.392 . S
C2590 C2591 1.385 . S
C2590 C2592 1.478 . S
C2591 H2585 0.930 . S
C2591 C2587 1.400 . S
C2591 C2590 1.385 . S
C2592 C2590 1.478 . S
C2592 C2594 1.381 . S
C2592 C2598 1.383 . S
C2593 C2589 1.495 . S
C2593 H2599 0.959 . S
C2593 H2600 0.961 . S
C2593 H2601 0.960 . S
C2594 C2592 1.381 . S
C2594 C2595 1.394 . S
C2594 H2602 0.930 . S
C2595 C2594 1.394 . S
C2595 C2596 1.383 . S
C2595 H2603 0.929 . S
C2596 C2595 1.383 . S
C2596 C2597 1.377 . S
C2597 H2581 0.930 . S
C2597 C2596 1.377 . S
C2597 C2598 1.379 . S
C2598 H2582 0.931 . S
C2598 C2592 1.383 . S
C2598 C2597 1.379 . S
H2599 C2593 0.959 . S
H2600 C2593 0.961 . S
H2601 C2593 0.960 . S
H2602 C2594 0.930 . S
H2603 C2595 0.929 . S
H2604 C2612 0.929 . S
H2605 C2614 0.930 . S
H2606 C2616 0.930 . S
H2607 C2619 0.929 . S
H2608 C2622 0.930 . S
H2609 C2624 0.960 . S
H2610 C2624 0.960 . S
H2611 C2624 0.960 . S
C2612 H2604 0.929 . S
C2612 C2613 1.377 . S
C2612 C2614 1.384 . S
C2613 C2612 1.377 . S
C2613 C2619 1.390 . S
C2614 H2605 0.930 . S
C2614 C2612 1.384 . S
C2614 C2615 1.372 . S
C2615 C2614 1.372 . S
C2615 C2616 1.400 . S
C2615 C2620 1.490 . S
C2616 H2606 0.930 . S
C2616 C2615 1.400 . S
C2616 C2619 1.386 . S
H2617 C2633 0.930 . S
H2618 C2634 0.931 . S
C2619 H2607 0.929 . S
C2619 C2613 1.390 . S
C2619 C2616 1.386 . S
C2620 C2615 1.490 . S
C2620 C2622 1.395 . S
C2620 C2623 1.403 . S
H2621 C2627 0.930 . S
C2622 H2608 0.930 . S
C2622 C2620 1.395 . S
C2622 C2625 1.403 . S
C2623 C2620 1.403 . S
C2623 C2624 1.524 . S
C2623 C2627 1.400 . S
C2624 H2609 0.960 . S
C2624 H2610 0.960 . S
C2624 H2611 0.960 . S
C2624 C2623 1.524 . S
C2625 C2622 1.403 . S
C2625 C2626 1.392 . S
C2625 C2629 1.495 . S
C2626 C2625 1.392 . S
C2626 C2627 1.385 . S
C2626 C2628 1.478 . S
C2627 H2621 0.930 . S
C2627 C2623 1.400 . S
C2627 C2626 1.385 . S
C2628 C2626 1.478 . S
C2628 C2630 1.381 . S
C2628 C2634 1.383 . S
C2629 C2625 1.495 . S
C2629 H2635 0.959 . S
C2629 H2636 0.961 . S
C2629 H2637 0.960 . S
C2630 C2628 1.381 . S
C2630 C2631 1.394 . S
C2630 H2638 0.930 . S
C2631 C2630 1.394 . S
C2631 C2632 1.383 . S
C2631 H2639 0.929 . S
C2632 C2631 1.383 . S
C2632 C2633 1.377 . S
C2633 H2617 0.930 . S
C2633 C2632 1.377 . S
C2633 C2634 1.379 . S
C2634 H2618 0.931 . S
C2634 C2628 1.383 . S
C2634 C2633 1.379 . S
H2635 C2629 0.959 . S
H2636 C2629 0.961 . S
H2637 C2629 0.960 . S
H2638 C2630 0.930 . S
H2639 C2631 0.929 . S
H2640 C2648 0.929 . S
H2641 C2650 0.930 . S
H2642 C2652 0.930 . S
H2643 C2655 0.929 . S
H2644 C2658 0.930 . S
H2645 C2660 0.960 . S
H2646 C2660 0.960 . S
H2647 C2660 0.960 . S
C2648 H2640 0.929 . S
C2648 C2649 1.377 . S
C2648 C2650 1.384 . S
C2649 C2648 1.377 . S
C2649 C2655 1.390 . S
C2650 H2641 0.930 . S
C2650 C2648 1.384 . S
C2650 C2651 1.372 . S
C2651 C2650 1.372 . S
C2651 C2652 1.400 . S
C2651 C2656 1.490 . S
C2652 H2642 0.930 . S
C2652 C2651 1.400 . S
C2652 C2655 1.386 . S
H2653 C2669 0.930 . S
H2654 C2670 0.931 . S
C2655 H2643 0.929 . S
C2655 C2649 1.390 . S
C2655 C2652 1.386 . S
C2656 C2651 1.490 . S
C2656 C2658 1.395 . S
C2656 C2659 1.403 . S
H2657 C2663 0.930 . S
C2658 H2644 0.930 . S
C2658 C2656 1.395 . S
C2658 C2661 1.403 . S
C2659 C2656 1.403 . S
C2659 C2660 1.524 . S
C2659 C2663 1.400 . S
C2660 H2645 0.960 . S
C2660 H2646 0.960 . S
C2660 H2647 0.960 . S
C2660 C2659 1.524 . S
C2661 C2658 1.403 . S
C2661 C2662 1.392 . S
C2661 C2665 1.495 . S
C2662 C2661 1.392 . S
C2662 C2663 1.385 . S
C2662 C2664 1.478 . S
C2663 H2657 0.930 . S
C2663 C2659 1.400 . S
C2663 C2662 1.385 . S
C2664 C2662 1.478 . S
C2664 C2666 1.381 . S
C2664 C2670 1.383 . S
C2665 C2661 1.495 . S
C2665 H2671 0.959 . S
C2665 H2672 0.961 . S
C2665 H2673 0.960 . S
C2666 C2664 1.381 . S
C2666 C2667 1.394 . S
C2666 H2674 0.930 . S
C2667 C2666 1.394 . S
C2667 C2668 1.383 . S
C2667 H2675 0.929 . S
C2668 C2667 1.383 . S
C2668 C2669 1.377 . S
C2669 H2653 0.930 . S
C2669 C2668 1.377 . S
C2669 C2670 1.379 . S
C2670 H2654 0.931 . S
C2670 C2664 1.383 . S
C2670 C2669 1.379 . S
H2671 C2665 0.959 . S
H2672 C2665 0.961 . S
H2673 C2665 0.960 . S
H2674 C2666 0.930 . S
H2675 C2667 0.929 . S
H2676 C2684 0.929 . S
H2677 C2686 0.930 . S
H2678 C2688 0.930 . S
H2679 C2691 0.929 . S
H2680 C2694 0.930 . S
H2681 C2696 0.960 . S
H2682 C2696 0.960 . S
H2683 C2696 0.960 . S
C2684 H2676 0.929 . S
C2684 C2685 1.377 . S
C2684 C2686 1.384 . S
C2685 C2684 1.377 . S
C2685 C2691 1.390 . S
C2686 H2677 0.930 . S
C2686 C2684 1.384 . S
C2686 C2687 1.372 . S
C2687 C2686 1.372 . S
C2687 C2688 1.400 . S
C2687 C2692 1.490 . S
C2688 H2678 0.930 . S
C2688 C2687 1.400 . S
C2688 C2691 1.386 . S
H2689 C2705 0.930 . S
H2690 C2706 0.931 . S
C2691 H2679 0.929 . S
C2691 C2685 1.390 . S
C2691 C2688 1.386 . S
C2692 C2687 1.490 . S
C2692 C2694 1.395 . S
C2692 C2695 1.403 . S
H2693 C2699 0.930 . S
C2694 H2680 0.930 . S
C2694 C2692 1.395 . S
C2694 C2697 1.403 . S
C2695 C2692 1.403 . S
C2695 C2696 1.524 . S
C2695 C2699 1.400 . S
C2696 H2681 0.960 . S
C2696 H2682 0.960 . S
C2696 H2683 0.960 . S
C2696 C2695 1.524 . S
C2697 C2694 1.403 . S
C2697 C2698 1.392 . S
C2697 C2701 1.495 . S
C2698 C2697 1.392 . S
C2698 C2699 1.385 . S
C2698 C2700 1.478 . S
C2699 H2693 0.930 . S
C2699 C2695 1.400 . S
C2699 C2698 1.385 . S
C2700 C2698 1.478 . S
C2700 C2702 1.381 . S
C2700 C2706 1.383 . S
C2701 C2697 1.495 . S
C2701 H2707 0.959 . S
C2701 H2708 0.961 . S
C2701 H2709 0.960 . S
C2702 C2700 1.381 . S
C2702 C2703 1.394 . S
C2702 H2710 0.930 . S
C2703 C2702 1.394 . S
C2703 C2704 1.383 . S
C2703 H2711 0.929 . S
C2704 C2703 1.383 . S
C2704 C2705 1.377 . S
C2705 H2689 0.930 . S
C2705 C2704 1.377 . S
C2705 C2706 1.379 . S
C2706 H2690 0.931 . S
C2706 C2700 1.383 . S
C2706 C2705 1.379 . S
H2707 C2701 0.959 . S
H2708 C2701 0.961 . S
H2709 C2701 0.960 . S
H2710 C2702 0.930 . S
H2711 C2703 0.929 . S
H2712 C2720 0.929 . S
H2713 C2722 0.930 . S
H2714 C2724 0.930 . S
H2715 C2727 0.929 . S
H2716 C2730 0.930 . S
H2717 C2732 0.960 . S
H2718 C2732 0.960 . S
H2719 C2732 0.960 . S
C2720 H2712 0.929 . S
C2720 C2721 1.377 . S
C2720 C2722 1.384 . S
C2721 C2720 1.377 . S
C2721 C2727 1.390 . S
C2722 H2713 0.930 . S
C2722 C2720 1.384 . S
C2722 C2723 1.372 . S
C2723 C2722 1.372 . S
C2723 C2724 1.400 . S
C2723 C2728 1.490 . S
C2724 H2714 0.930 . S
C2724 C2723 1.400 . S
C2724 C2727 1.386 . S
H2725 C2741 0.930 . S
H2726 C2742 0.931 . S
C2727 H2715 0.929 . S
C2727 C2721 1.390 . S
C2727 C2724 1.386 . S
C2728 C2723 1.490 . S
C2728 C2730 1.395 . S
C2728 C2731 1.403 . S
H2729 C2735 0.930 . S
C2730 H2716 0.930 . S
C2730 C2728 1.395 . S
C2730 C2733 1.403 . S
C2731 C2728 1.403 . S
C2731 C2732 1.524 . S
C2731 C2735 1.400 . S
C2732 H2717 0.960 . S
C2732 H2718 0.960 . S
C2732 H2719 0.960 . S
C2732 C2731 1.524 . S
C2733 C2730 1.403 . S
C2733 C2734 1.392 . S
C2733 C2737 1.495 . S
C2734 C2733 1.392 . S
C2734 C2735 1.385 . S
C2734 C2736 1.478 . S
C2735 H2729 0.930 . S
C2735 C2731 1.400 . S
C2735 C2734 1.385 . S
C2736 C2734 1.478 . S
C2736 C2738 1.381 . S
C2736 C2742 1.383 . S
C2737 C2733 1.495 . S
C2737 H2743 0.959 . S
C2737 H2744 0.961 . S
C2737 H2745 0.960 . S
C2738 C2736 1.381 . S
C2738 C2739 1.394 . S
C2738 H2746 0.930 . S
C2739 C2738 1.394 . S
C2739 C2740 1.383 . S
C2739 H2747 0.929 . S
C2740 C2739 1.383 . S
C2740 C2741 1.377 . S
C2741 H2725 0.930 . S
C2741 C2740 1.377 . S
C2741 C2742 1.379 . S
C2742 H2726 0.931 . S
C2742 C2736 1.383 . S
C2742 C2741 1.379 . S
H2743 C2737 0.959 . S
H2744 C2737 0.961 . S
H2745 C2737 0.960 . S
H2746 C2738 0.930 . S
H2747 C2739 0.929 . S
H2748 C2756 0.929 . S
H2749 C2758 0.930 . S
H2750 C2760 0.930 . S
H2751 C2763 0.929 . S
H2752 C2766 0.930 . S
H2753 C2768 0.960 . S
H2754 C2768 0.960 . S
H2755 C2768 0.960 . S
C2756 H2748 0.929 . S
C2756 C2757 1.377 . S
C2756 C2758 1.384 . S
C2757 C2756 1.377 . S
C2757 C2763 1.390 . S
C2758 H2749 0.930 . S
C2758 C2756 1.384 . S
C2758 C2759 1.372 . S
C2759 C2758 1.372 . S
C2759 C2760 1.400 . S
C2759 C2764 1.490 . S
C2760 H2750 0.930 . S
C2760 C2759 1.400 . S
C2760 C2763 1.386 . S
H2761 C2777 0.930 . S
H2762 C2778 0.931 . S
C2763 H2751 0.929 . S
C2763 C2757 1.390 . S
C2763 C2760 1.386 . S
C2764 C2759 1.490 . S
C2764 C2766 1.395 . S
C2764 C2767 1.403 . S
H2765 C2771 0.930 . S
C2766 H2752 0.930 . S
C2766 C2764 1.395 . S
C2766 C2769 1.403 . S
C2767 C2764 1.403 . S
C2767 C2768 1.524 . S
C2767 C2771 1.400 . S
C2768 H2753 0.960 . S
C2768 H2754 0.960 . S
C2768 H2755 0.960 . S
C2768 C2767 1.524 . S
C2769 C2766 1.403 . S
C2769 C2770 1.392 . S
C2769 C2773 1.495 . S
C2770 C2769 1.392 . S
C2770 C2771 1.385 . S
C2770 C2772 1.478 . S
C2771 H2765 0.930 . S
C2771 C2767 1.400 . S
C2771 C2770 1.385 . S
C2772 C2770 1.478 . S
C2772 C2774 1.381 . S
C2772 C2778 1.383 . S
C2773 C2769 1.495 . S
C2773 H2779 0.959 . S
C2773 H2780 0.961 . S
C2773 H2781 0.960 . S
C2774 C2772 1.381 . S
C2774 C2775 1.394 . S
C2774 H2782 0.930 . S
C2775 C2774 1.394 . S
C2775 C2776 1.383 . S
C2775 H2783 0.929 . S
C2776 C2775 1.383 . S
C2776 C2777 1.377 . S
C2777 H2761 0.930 . S
C2777 C2776 1.377 . S
C2777 C2778 1.379 . S
C2778 H2762 0.931 . S
C2778 C2772 1.383 . S
C2778 C2777 1.379 . S
H2779 C2773 0.959 . S
H2780 C2773 0.961 . S
H2781 C2773 0.960 . S
H2782 C2774 0.930 . S
H2783 C2775 0.929 . S
H2784 C2792 0.929 . S
H2785 C2794 0.930 . S
H2786 C2796 0.930 . S
H2787 C2799 0.929 . S
H2788 C2802 0.930 . S
H2789 C2804 0.960 . S
H2790 C2804 0.960 . S
H2791 C2804 0.960 . S
C2792 H2784 0.929 . S
C2792 C2793 1.377 . S
C2792 C2794 1.384 . S
C2793 C2792 1.377 . S
C2793 C2799 1.390 . S
C2794 H2785 0.930 . S
C2794 C2792 1.384 . S
C2794 C2795 1.372 . S
C2795 C2794 1.372 . S
C2795 C2796 1.400 . S
C2795 C2800 1.490 . S
C2796 H2786 0.930 . S
C2796 C2795 1.400 . S
C2796 C2799 1.386 . S
H2797 C2813 0.930 . S
H2798 C2814 0.931 . S
C2799 H2787 0.929 . S
C2799 C2793 1.390 . S
C2799 C2796 1.386 . S
C2800 C2795 1.490 . S
C2800 C2802 1.395 . S
C2800 C2803 1.403 . S
H2801 C2807 0.930 . S
C2802 H2788 0.930 . S
C2802 C2800 1.395 . S
C2802 C2805 1.403 . S
C2803 C2800 1.403 . S
C2803 C2804 1.524 . S
C2803 C2807 1.400 . S
C2804 H2789 0.960 . S
C2804 H2790 0.960 . S
C2804 H2791 0.960 . S
C2804 C2803 1.524 . S
C2805 C2802 1.403 . S
C2805 C2806 1.392 . S
C2805 C2809 1.495 . S
C2806 C2805 1.392 . S
C2806 C2807 1.385 . S
C2806 C2808 1.478 . S
C2807 H2801 0.930 . S
C2807 C2803 1.400 . S
C2807 C2806 1.385 . S
C2808 C2806 1.478 . S
C2808 C2810 1.381 . S
C2808 C2814 1.383 . S
C2809 C2805 1.495 . S
C2809 H2815 0.959 . S
C2809 H2816 0.961 . S
C2809 H2817 0.960 . S
C2810 C2808 1.381 . S
C2810 C2811 1.394 . S
C2810 H2818 0.930 . S
C2811 C2810 1.394 . S
C2811 C2812 1.383 . S
C2811 H2819 0.929 . S
C2812 C2811 1.383 . S
C2812 C2813 1.377 . S
C2813 H2797 0.930 . S
C2813 C2812 1.377 . S
C2813 C2814 1.379 . S
C2814 H2798 0.931 . S
C2814 C2808 1.383 . S
C2814 C2813 1.379 . S
H2815 C2809 0.959 . S
H2816 C2809 0.961 . S
H2817 C2809 0.960 . S
H2818 C2810 0.930 . S
H2819 C2811 0.929 . S
H2820 C2828 0.929 . S
H2821 C2830 0.930 . S
H2822 C2832 0.930 . S
H2823 C2835 0.929 . S
H2824 C2838 0.930 . S
H2825 C2840 0.960 . S
H2826 C2840 0.960 . S
H2827 C2840 0.960 . S
C2828 H2820 0.929 . S
C2828 C2829 1.377 . S
C2828 C2830 1.384 . S
C2829 C2828 1.377 . S
C2829 C2835 1.390 . S
C2830 H2821 0.930 . S
C2830 C2828 1.384 . S
C2830 C2831 1.372 . S
C2831 C2830 1.372 . S
C2831 C2832 1.400 . S
C2831 C2836 1.490 . S
C2832 H2822 0.930 . S
C2832 C2831 1.400 . S
C2832 C2835 1.386 . S
H2833 C2849 0.930 . S
H2834 C2850 0.931 . S
C2835 H2823 0.929 . S
C2835 C2829 1.390 . S
C2835 C2832 1.386 . S
C2836 C2831 1.490 . S
C2836 C2838 1.395 . S
C2836 C2839 1.403 . S
H2837 C2843 0.930 . S
C2838 H2824 0.930 . S
C2838 C2836 1.395 . S
C2838 C2841 1.403 . S
C2839 C2836 1.403 . S
C2839 C2840 1.524 . S
C2839 C2843 1.400 . S
C2840 H2825 0.960 . S
C2840 H2826 0.960 . S
C2840 H2827 0.960 . S
C2840 C2839 1.524 . S
C2841 C2838 1.403 . S
C2841 C2842 1.392 . S
C2841 C2845 1.495 . S
C2842 C2841 1.392 . S
C2842 C2843 1.385 . S
C2842 C2844 1.478 . S
C2843 H2837 0.930 . S
C2843 C2839 1.400 . S
C2843 C2842 1.385 . S
C2844 C2842 1.478 . S
C2844 C2846 1.381 . S
C2844 C2850 1.383 . S
C2845 C2841 1.495 . S
C2845 H2851 0.959 . S
C2845 H2852 0.961 . S
C2845 H2853 0.960 . S
C2846 C2844 1.381 . S
C2846 C2847 1.394 . S
C2846 H2854 0.930 . S
C2847 C2846 1.394 . S
C2847 C2848 1.383 . S
C2847 H2855 0.929 . S
C2848 C2847 1.383 . S
C2848 C2849 1.377 . S
C2849 H2833 0.930 . S
C2849 C2848 1.377 . S
C2849 C2850 1.379 . S
C2850 H2834 0.931 . S
C2850 C2844 1.383 . S
C2850 C2849 1.379 . S
H2851 C2845 0.959 . S
H2852 C2845 0.961 . S
H2853 C2845 0.960 . S
H2854 C2846 0.930 . S
H2855 C2847 0.929 . S
H2856 C2864 0.929 . S
H2857 C2866 0.930 . S
H2858 C2868 0.930 . S
H2859 C2871 0.929 . S
H2860 C2874 0.930 . S
H2861 C2876 0.960 . S
H2862 C2876 0.960 . S
H2863 C2876 0.960 . S
C2864 H2856 0.929 . S
C2864 C2865 1.377 . S
C2864 C2866 1.384 . S
C2865 C2864 1.377 . S
C2865 C2871 1.390 . S
C2866 H2857 0.930 . S
C2866 C2864 1.384 . S
C2866 C2867 1.372 . S
C2867 C2866 1.372 . S
C2867 C2868 1.400 . S
C2867 C2872 1.490 . S
C2868 H2858 0.930 . S
C2868 C2867 1.400 . S
C2868 C2871 1.386 . S
H2869 C2885 0.930 . S
H2870 C2886 0.931 . S
C2871 H2859 0.929 . S
C2871 C2865 1.390 . S
C2871 C2868 1.386 . S
C2872 C2867 1.490 . S
C2872 C2874 1.395 . S
C2872 C2875 1.403 . S
H2873 C2879 0.930 . S
C2874 H2860 0.930 . S
C2874 C2872 1.395 . S
C2874 C2877 1.403 . S
C2875 C2872 1.403 . S
C2875 C2876 1.524 . S
C2875 C2879 1.400 . S
C2876 H2861 0.960 . S
C2876 H2862 0.960 . S
C2876 H2863 0.960 . S
C2876 C2875 1.524 . S
C2877 C2874 1.403 . S
C2877 C2878 1.392 . S
C2877 C2881 1.495 . S
C2878 C2877 1.392 . S
C2878 C2879 1.385 . S
C2878 C2880 1.478 . S
C2879 H2873 0.930 . S
C2879 C2875 1.400 . S
C2879 C2878 1.385 . S
C2880 C2878 1.478 . S
C2880 C2882 1.381 . S
C2880 C2886 1.383 . S
C2881 C2877 1.495 . S
C2881 H2887 0.959 . S
C2881 H2888 0.961 . S
C2881 H2889 0.960 . S
C2882 C2880 1.381 . S
C2882 C2883 1.394 . S
C2882 H2890 0.930 . S
C2883 C2882 1.394 . S
C2883 C2884 1.383 . S
C2883 H2891 0.929 . S
C2884 C2883 1.383 . S
C2884 C2885 1.377 . S
C2885 H2869 0.930 . S
C2885 C2884 1.377 . S
C2885 C2886 1.379 . S
C2886 H2870 0.931 . S
C2886 C2880 1.383 . S
C2886 C2885 1.379 . S
H2887 C2881 0.959 . S
H2888 C2881 0.961 . S
H2889 C2881 0.960 . S
H2890 C2882 0.930 . S
H2891 C2883 0.929 . S
H2892 C2900 0.929 . S
H2893 C2902 0.930 . S
H2894 C2904 0.930 . S
H2895 C2907 0.929 . S
H2896 C2910 0.930 . S
H2897 C2912 0.960 . S
H2898 C2912 0.960 . S
H2899 C2912 0.960 . S
C2900 H2892 0.929 . S
C2900 C2901 1.377 . S
C2900 C2902 1.384 . S
C2901 C2900 1.377 . S
C2901 C2907 1.390 . S
C2902 H2893 0.930 . S
C2902 C2900 1.384 . S
C2902 C2903 1.372 . S
C2903 C2902 1.372 . S
C2903 C2904 1.400 . S
C2903 C2908 1.490 . S
C2904 H2894 0.930 . S
C2904 C2903 1.400 . S
C2904 C2907 1.386 . S
H2905 C2921 0.930 . S
H2906 C2922 0.931 . S
C2907 H2895 0.929 . S
C2907 C2901 1.390 . S
C2907 C2904 1.386 . S
C2908 C2903 1.490 . S
C2908 C2910 1.395 . S
C2908 C2911 1.403 . S
H2909 C2915 0.930 . S
C2910 H2896 0.930 . S
C2910 C2908 1.395 . S
C2910 C2913 1.403 . S
C2911 C2908 1.403 . S
C2911 C2912 1.524 . S
C2911 C2915 1.400 . S
C2912 H2897 0.960 . S
C2912 H2898 0.960 . S
C2912 H2899 0.960 . S
C2912 C2911 1.524 . S
C2913 C2910 1.403 . S
C2913 C2914 1.392 . S
C2913 C2917 1.495 . S
C2914 C2913 1.392 . S
C2914 C2915 1.385 . S
C2914 C2916 1.478 . S
C2915 H2909 0.930 . S
C2915 C2911 1.400 . S
C2915 C2914 1.385 . S
C2916 C2914 1.478 . S
C2916 C2918 1.381 . S
C2916 C2922 1.383 . S
C2917 C2913 1.495 . S
C2917 H2923 0.959 . S
C2917 H2924 0.961 . S
C2917 H2925 0.960 . S
C2918 C2916 1.381 . S
C2918 C2919 1.394 . S
C2918 H2926 0.930 . S
C2919 C2918 1.394 . S
C2919 C2920 1.383 . S
C2919 H2927 0.929 . S
C2920 C2919 1.383 . S
C2920 C2921 1.377 . S
C2921 H2905 0.930 . S
C2921 C2920 1.377 . S
C2921 C2922 1.379 . S
C2922 H2906 0.931 . S
C2922 C2916 1.383 . S
C2922 C2921 1.379 . S
H2923 C2917 0.959 . S
H2924 C2917 0.961 . S
H2925 C2917 0.960 . S
H2926 C2918 0.930 . S
H2927 C2919 0.929 . S
H2928 C2936 0.929 . S
H2929 C2938 0.930 . S
H2930 C2940 0.930 . S
H2931 C2943 0.929 . S
H2932 C2946 0.930 . S
H2933 C2948 0.960 . S
H2934 C2948 0.960 . S
H2935 C2948 0.960 . S
C2936 H2928 0.929 . S
C2936 C2937 1.377 . S
C2936 C2938 1.384 . S
C2937 C2936 1.377 . S
C2937 C2943 1.390 . S
C2938 H2929 0.930 . S
C2938 C2936 1.384 . S
C2938 C2939 1.372 . S
C2939 C2938 1.372 . S
C2939 C2940 1.400 . S
C2939 C2944 1.490 . S
C2940 H2930 0.930 . S
C2940 C2939 1.400 . S
C2940 C2943 1.386 . S
H2941 C2957 0.930 . S
H2942 C2958 0.931 . S
C2943 H2931 0.929 . S
C2943 C2937 1.390 . S
C2943 C2940 1.386 . S
C2944 C2939 1.490 . S
C2944 C2946 1.395 . S
C2944 C2947 1.403 . S
H2945 C2951 0.930 . S
C2946 H2932 0.930 . S
C2946 C2944 1.395 . S
C2946 C2949 1.403 . S
C2947 C2944 1.403 . S
C2947 C2948 1.524 . S
C2947 C2951 1.400 . S
C2948 H2933 0.960 . S
C2948 H2934 0.960 . S
C2948 H2935 0.960 . S
C2948 C2947 1.524 . S
C2949 C2946 1.403 . S
C2949 C2950 1.392 . S
C2949 C2953 1.495 . S
C2950 C2949 1.392 . S
C2950 C2951 1.385 . S
C2950 C2952 1.478 . S
C2951 H2945 0.930 . S
C2951 C2947 1.400 . S
C2951 C2950 1.385 . S
C2952 C2950 1.478 . S
C2952 C2954 1.381 . S
C2952 C2958 1.383 . S
C2953 C2949 1.495 . S
C2953 H2959 0.959 . S
C2953 H2960 0.961 . S
C2953 H2961 0.960 . S
C2954 C2952 1.381 . S
C2954 C2955 1.394 . S
C2954 H2962 0.930 . S
C2955 C2954 1.394 . S
C2955 C2956 1.383 . S
C2955 H2963 0.929 . S
C2956 C2955 1.383 . S
C2956 C2957 1.377 . S
C2957 H2941 0.930 . S
C2957 C2956 1.377 . S
C2957 C2958 1.379 . S
C2958 H2942 0.931 . S
C2958 C2952 1.383 . S
C2958 C2957 1.379 . S
H2959 C2953 0.959 . S
H2960 C2953 0.961 . S
H2961 C2953 0.960 . S
H2962 C2954 0.930 . S
H2963 C2955 0.929 . S
H2964 C2972 0.929 . S
H2965 C2974 0.930 . S
H2966 C2976 0.930 . S
H2967 C2979 0.929 . S
H2968 C2982 0.930 . S
H2969 C2984 0.960 . S
H2970 C2984 0.960 . S
H2971 C2984 0.960 . S
C2972 H2964 0.929 . S
C2972 C2973 1.377 . S
C2972 C2974 1.384 . S
C2973 C2972 1.377 . S
C2973 C2979 1.390 . S
C2974 H2965 0.930 . S
C2974 C2972 1.384 . S
C2974 C2975 1.372 . S
C2975 C2974 1.372 . S
C2975 C2976 1.400 . S
C2975 C2980 1.490 . S
C2976 H2966 0.930 . S
C2976 C2975 1.400 . S
C2976 C2979 1.386 . S
H2977 C2993 0.930 . S
H2978 C2994 0.931 . S
C2979 H2967 0.929 . S
C2979 C2973 1.390 . S
C2979 C2976 1.386 . S
C2980 C2975 1.490 . S
C2980 C2982 1.395 . S
C2980 C2983 1.403 . S
H2981 C2987 0.930 . S
C2982 H2968 0.930 . S
C2982 C2980 1.395 . S
C2982 C2985 1.403 . S
C2983 C2980 1.403 . S
C2983 C2984 1.524 . S
C2983 C2987 1.400 . S
C2984 H2969 0.960 . S
C2984 H2970 0.960 . S
C2984 H2971 0.960 . S
C2984 C2983 1.524 . S
C2985 C2982 1.403 . S
C2985 C2986 1.392 . S
C2985 C2989 1.495 . S
C2986 C2985 1.392 . S
C2986 C2987 1.385 . S
C2986 C2988 1.478 . S
C2987 H2981 0.930 . S
C2987 C2983 1.400 . S
C2987 C2986 1.385 . S
C2988 C2986 1.478 . S
C2988 C2990 1.381 . S
C2988 C2994 1.383 . S
C2989 C2985 1.495 . S
C2989 H2995 0.959 . S
C2989 H2996 0.961 . S
C2989 H2997 0.960 . S
C2990 C2988 1.381 . S
C2990 C2991 1.394 . S
C2990 H2998 0.930 . S
C2991 C2990 1.394 . S
C2991 C2992 1.383 . S
C2991 H2999 0.929 . S
C2992 C2991 1.383 . S
C2992 C2993 1.377 . S
C2993 H2977 0.930 . S
C2993 C2992 1.377 . S
C2993 C2994 1.379 . S
C2994 H2978 0.931 . S
C2994 C2988 1.383 . S
C2994 C2993 1.379 . S
H2995 C2989 0.959 . S
H2996 C2989 0.961 . S
H2997 C2989 0.960 . S
H2998 C2990 0.930 . S
H2999 C2991 0.929 . S
H3000 C3008 0.929 . S
H3001 C3010 0.930 . S
H3002 C3012 0.930 . S
H3003 C3015 0.929 . S
H3004 C3018 0.930 . S
H3005 C3020 0.960 . S
H3006 C3020 0.960 . S
H3007 C3020 0.960 . S
C3008 H3000 0.929 . S
C3008 C3009 1.377 . S
C3008 C3010 1.384 . S
C3009 C3008 1.377 . S
C3009 C3015 1.390 . S
C3010 H3001 0.930 . S
C3010 C3008 1.384 . S
C3010 C3011 1.372 . S
C3011 C3010 1.372 . S
C3011 C3012 1.400 . S
C3011 C3016 1.490 . S
C3012 H3002 0.930 . S
C3012 C3011 1.400 . S
C3012 C3015 1.386 . S
H3013 C3029 0.930 . S
H3014 C3030 0.931 . S
C3015 H3003 0.929 . S
C3015 C3009 1.390 . S
C3015 C3012 1.386 . S
C3016 C3011 1.490 . S
C3016 C3018 1.395 . S
C3016 C3019 1.403 . S
H3017 C3023 0.930 . S
C3018 H3004 0.930 . S
C3018 C3016 1.395 . S
C3018 C3021 1.403 . S
C3019 C3016 1.403 . S
C3019 C3020 1.524 . S
C3019 C3023 1.400 . S
C3020 H3005 0.960 . S
C3020 H3006 0.960 . S
C3020 H3007 0.960 . S
C3020 C3019 1.524 . S
C3021 C3018 1.403 . S
C3021 C3022 1.392 . S
C3021 C3025 1.495 . S
C3022 C3021 1.392 . S
C3022 C3023 1.385 . S
C3022 C3024 1.478 . S
C3023 H3017 0.930 . S
C3023 C3019 1.400 . S
C3023 C3022 1.385 . S
C3024 C3022 1.478 . S
C3024 C3026 1.381 . S
C3024 C3030 1.383 . S
C3025 C3021 1.495 . S
C3025 H3031 0.959 . S
C3025 H3032 0.961 . S
C3025 H3033 0.960 . S
C3026 C3024 1.381 . S
C3026 C3027 1.394 . S
C3026 H3034 0.930 . S
C3027 C3026 1.394 . S
C3027 C3028 1.383 . S
C3027 H3035 0.929 . S
C3028 C3027 1.383 . S
C3028 C3029 1.377 . S
C3029 H3013 0.930 . S
C3029 C3028 1.377 . S
C3029 C3030 1.379 . S
C3030 H3014 0.931 . S
C3030 C3024 1.383 . S
C3030 C3029 1.379 . S
H3031 C3025 0.959 . S
H3032 C3025 0.961 . S
H3033 C3025 0.960 . S
H3034 C3026 0.930 . S
H3035 C3027 0.929 . S
H3036 C3044 0.929 . S
H3037 C3046 0.930 . S
H3038 C3048 0.930 . S
H3039 C3051 0.929 . S
H3040 C3054 0.930 . S
H3041 C3056 0.960 . S
H3042 C3056 0.960 . S
H3043 C3056 0.960 . S
C3044 H3036 0.929 . S
C3044 C3045 1.377 . S
C3044 C3046 1.384 . S
C3045 C3044 1.377 . S
C3045 C3051 1.390 . S
C3046 H3037 0.930 . S
C3046 C3044 1.384 . S
C3046 C3047 1.372 . S
C3047 C3046 1.372 . S
C3047 C3048 1.400 . S
C3047 C3052 1.490 . S
C3048 H3038 0.930 . S
C3048 C3047 1.400 . S
C3048 C3051 1.386 . S
H3049 C3065 0.930 . S
H3050 C3066 0.931 . S
C3051 H3039 0.929 . S
C3051 C3045 1.390 . S
C3051 C3048 1.386 . S
C3052 C3047 1.490 . S
C3052 C3054 1.395 . S
C3052 C3055 1.403 . S
H3053 C3059 0.930 . S
C3054 H3040 0.930 . S
C3054 C3052 1.395 . S
C3054 C3057 1.403 . S
C3055 C3052 1.403 . S
C3055 C3056 1.524 . S
C3055 C3059 1.400 . S
C3056 H3041 0.960 . S
C3056 H3042 0.960 . S
C3056 H3043 0.960 . S
C3056 C3055 1.524 . S
C3057 C3054 1.403 . S
C3057 C3058 1.392 . S
C3057 C3061 1.495 . S
C3058 C3057 1.392 . S
C3058 C3059 1.385 . S
C3058 C3060 1.478 . S
C3059 H3053 0.930 . S
C3059 C3055 1.400 . S
C3059 C3058 1.385 . S
C3060 C3058 1.478 . S
C3060 C3062 1.381 . S
C3060 C3066 1.383 . S
C3061 C3057 1.495 . S
C3061 H3067 0.959 . S
C3061 H3068 0.961 . S
C3061 H3069 0.960 . S
C3062 C3060 1.381 . S
C3062 C3063 1.394 . S
C3062 H3070 0.930 . S
C3063 C3062 1.394 . S
C3063 C3064 1.383 . S
C3063 H3071 0.929 . S
C3064 C3063 1.383 . S
C3064 C3065 1.377 . S
C3065 H3049 0.930 . S
C3065 C3064 1.377 . S
C3065 C3066 1.379 . S
C3066 H3050 0.931 . S
C3066 C3060 1.383 . S
C3066 C3065 1.379 . S
H3067 C3061 0.959 . S
H3068 C3061 0.961 . S
H3069 C3061 0.960 . S
H3070 C3062 0.930 . S
H3071 C3063 0.929 . S
H3072 C3080 0.929 . S
H3073 C3082 0.930 . S
H3074 C3084 0.930 . S
H3075 C3087 0.929 . S
H3076 C3090 0.930 . S
H3077 C3092 0.960 . S
H3078 C3092 0.960 . S
H3079 C3092 0.960 . S
C3080 H3072 0.929 . S
C3080 C3081 1.377 . S
C3080 C3082 1.384 . S
C3081 C3080 1.377 . S
C3081 C3087 1.390 . S
C3082 H3073 0.930 . S
C3082 C3080 1.384 . S
C3082 C3083 1.372 . S
C3083 C3082 1.372 . S
C3083 C3084 1.400 . S
C3083 C3088 1.490 . S
C3084 H3074 0.930 . S
C3084 C3083 1.400 . S
C3084 C3087 1.386 . S
H3085 C3101 0.930 . S
H3086 C3102 0.931 . S
C3087 H3075 0.929 . S
C3087 C3081 1.390 . S
C3087 C3084 1.386 . S
C3088 C3083 1.490 . S
C3088 C3090 1.395 . S
C3088 C3091 1.403 . S
H3089 C3095 0.930 . S
C3090 H3076 0.930 . S
C3090 C3088 1.395 . S
C3090 C3093 1.403 . S
C3091 C3088 1.403 . S
C3091 C3092 1.524 . S
C3091 C3095 1.400 . S
C3092 H3077 0.960 . S
C3092 H3078 0.960 . S
C3092 H3079 0.960 . S
C3092 C3091 1.524 . S
C3093 C3090 1.403 . S
C3093 C3094 1.392 . S
C3093 C3097 1.495 . S
C3094 C3093 1.392 . S
C3094 C3095 1.385 . S
C3094 C3096 1.478 . S
C3095 H3089 0.930 . S
C3095 C3091 1.400 . S
C3095 C3094 1.385 . S
C3096 C3094 1.478 . S
C3096 C3098 1.381 . S
C3096 C3102 1.383 . S
C3097 C3093 1.495 . S
C3097 H3103 0.959 . S
C3097 H3104 0.961 . S
C3097 H3105 0.960 . S
C3098 C3096 1.381 . S
C3098 C3099 1.394 . S
C3098 H3106 0.930 . S
C3099 C3098 1.394 . S
C3099 C3100 1.383 . S
C3099 H3107 0.929 . S
C3100 C3099 1.383 . S
C3100 C3101 1.377 . S
C3101 H3085 0.930 . S
C3101 C3100 1.377 . S
C3101 C3102 1.379 . S
C3102 H3086 0.931 . S
C3102 C3096 1.383 . S
C3102 C3101 1.379 . S
H3103 C3097 0.959 . S
H3104 C3097 0.961 . S
H3105 C3097 0.960 . S
H3106 C3098 0.930 . S
H3107 C3099 0.929 . S
H3108 C3116 0.929 . S
H3109 C3118 0.930 . S
H3110 C3120 0.930 . S
H3111 C3123 0.929 . S
H3112 C3126 0.930 . S
H3113 C3128 0.960 . S
H3114 C3128 0.960 . S
H3115 C3128 0.960 . S
C3116 H3108 0.929 . S
C3116 C3117 1.377 . S
C3116 C3118 1.384 . S
C3117 C3116 1.377 . S
C3117 C3123 1.390 . S
C3118 H3109 0.930 . S
C3118 C3116 1.384 . S
C3118 C3119 1.372 . S
C3119 C3118 1.372 . S
C3119 C3120 1.400 . S
C3119 C3124 1.490 . S
C3120 H3110 0.930 . S
C3120 C3119 1.400 . S
C3120 C3123 1.386 . S
H3121 C3137 0.930 . S
H3122 C3138 0.931 . S
C3123 H3111 0.929 . S
C3123 C3117 1.390 . S
C3123 C3120 1.386 . S
C3124 C3119 1.490 . S
C3124 C3126 1.395 . S
C3124 C3127 1.403 . S
H3125 C3131 0.930 . S
C3126 H3112 0.930 . S
C3126 C3124 1.395 . S
C3126 C3129 1.403 . S
C3127 C3124 1.403 . S
C3127 C3128 1.524 . S
C3127 C3131 1.400 . S
C3128 H3113 0.960 . S
C3128 H3114 0.960 . S
C3128 H3115 0.960 . S
C3128 C3127 1.524 . S
C3129 C3126 1.403 . S
C3129 C3130 1.392 . S
C3129 C3133 1.495 . S
C3130 C3129 1.392 . S
C3130 C3131 1.385 . S
C3130 C3132 1.478 . S
C3131 H3125 0.930 . S
C3131 C3127 1.400 . S
C3131 C3130 1.385 . S
C3132 C3130 1.478 . S
C3132 C3134 1.381 . S
C3132 C3138 1.383 . S
C3133 C3129 1.495 . S
C3133 H3139 0.959 . S
C3133 H3140 0.961 . S
C3133 H3141 0.960 . S
C3134 C3132 1.381 . S
C3134 C3135 1.394 . S
C3134 H3142 0.930 . S
C3135 C3134 1.394 . S
C3135 C3136 1.383 . S
C3135 H3143 0.929 . S
C3136 C3135 1.383 . S
C3136 C3137 1.377 . S
C3137 H3121 0.930 . S
C3137 C3136 1.377 . S
C3137 C3138 1.379 . S
C3138 H3122 0.931 . S
C3138 C3132 1.383 . S
C3138 C3137 1.379 . S
H3139 C3133 0.959 . S
H3140 C3133 0.961 . S
H3141 C3133 0.960 . S
H3142 C3134 0.930 . S
H3143 C3135 0.929 . S
H3144 C3152 0.929 . S
H3145 C3154 0.930 . S
H3146 C3156 0.930 . S
H3147 C3159 0.929 . S
H3148 C3162 0.930 . S
H3149 C3164 0.960 . S
H3150 C3164 0.960 . S
H3151 C3164 0.960 . S
C3152 H3144 0.929 . S
C3152 C3153 1.377 . S
C3152 C3154 1.384 . S
C3153 C3152 1.377 . S
C3153 C3159 1.390 . S
C3154 H3145 0.930 . S
C3154 C3152 1.384 . S
C3154 C3155 1.372 . S
C3155 C3154 1.372 . S
C3155 C3156 1.400 . S
C3155 C3160 1.490 . S
C3156 H3146 0.930 . S
C3156 C3155 1.400 . S
C3156 C3159 1.386 . S
H3157 C3173 0.930 . S
H3158 C3174 0.931 . S
C3159 H3147 0.929 . S
C3159 C3153 1.390 . S
C3159 C3156 1.386 . S
C3160 C3155 1.490 . S
C3160 C3162 1.395 . S
C3160 C3163 1.403 . S
H3161 C3167 0.930 . S
C3162 H3148 0.930 . S
C3162 C3160 1.395 . S
C3162 C3165 1.403 . S
C3163 C3160 1.403 . S
C3163 C3164 1.524 . S
C3163 C3167 1.400 . S
C3164 H3149 0.960 . S
C3164 H3150 0.960 . S
C3164 H3151 0.960 . S
C3164 C3163 1.524 . S
C3165 C3162 1.403 . S
C3165 C3166 1.392 . S
C3165 C3169 1.495 . S
C3166 C3165 1.392 . S
C3166 C3167 1.385 . S
C3166 C3168 1.478 . S
C3167 H3161 0.930 . S
C3167 C3163 1.400 . S
C3167 C3166 1.385 . S
C3168 C3166 1.478 . S
C3168 C3170 1.381 . S
C3168 C3174 1.383 . S
C3169 C3165 1.495 . S
C3169 H3175 0.959 . S
C3169 H3176 0.961 . S
C3169 H3177 0.960 . S
C3170 C3168 1.381 . S
C3170 C3171 1.394 . S
C3170 H3178 0.930 . S
C3171 C3170 1.394 . S
C3171 C3172 1.383 . S
C3171 H3179 0.929 . S
C3172 C3171 1.383 . S
C3172 C3173 1.377 . S
C3173 H3157 0.930 . S
C3173 C3172 1.377 . S
C3173 C3174 1.379 . S
C3174 H3158 0.931 . S
C3174 C3168 1.383 . S
C3174 C3173 1.379 . S
H3175 C3169 0.959 . S
H3176 C3169 0.961 . S
H3177 C3169 0.960 . S
H3178 C3170 0.930 . S
H3179 C3171 0.929 . S
H3180 C3188 0.929 . S
H3181 C3190 0.930 . S
H3182 C3192 0.930 . S
H3183 C3195 0.929 . S
H3184 C3198 0.930 . S
H3185 C3200 0.960 . S
H3186 C3200 0.960 . S
H3187 C3200 0.960 . S
C3188 H3180 0.929 . S
C3188 C3189 1.377 . S
C3188 C3190 1.384 . S
C3189 C3188 1.377 . S
C3189 C3195 1.390 . S
C3190 H3181 0.930 . S
C3190 C3188 1.384 . S
C3190 C3191 1.372 . S
C3191 C3190 1.372 . S
C3191 C3192 1.400 . S
C3191 C3196 1.490 . S
C3192 H3182 0.930 . S
C3192 C3191 1.400 . S
C3192 C3195 1.386 . S
H3193 C3209 0.930 . S
H3194 C3210 0.931 . S
C3195 H3183 0.929 . S
C3195 C3189 1.390 . S
C3195 C3192 1.386 . S
C3196 C3191 1.490 . S
C3196 C3198 1.395 . S
C3196 C3199 1.403 . S
H3197 C3203 0.930 . S
C3198 H3184 0.930 . S
C3198 C3196 1.395 . S
C3198 C3201 1.403 . S
C3199 C3196 1.403 . S
C3199 C3200 1.524 . S
C3199 C3203 1.400 . S
C3200 H3185 0.960 . S
C3200 H3186 0.960 . S
C3200 H3187 0.960 . S
C3200 C3199 1.524 . S
C3201 C3198 1.403 . S
C3201 C3202 1.392 . S
C3201 C3205 1.495 . S
C3202 C3201 1.392 . S
C3202 C3203 1.385 . S
C3202 C3204 1.478 . S
C3203 H3197 0.930 . S
C3203 C3199 1.400 . S
C3203 C3202 1.385 . S
C3204 C3202 1.478 . S
C3204 C3206 1.381 . S
C3204 C3210 1.383 . S
C3205 C3201 1.495 . S
C3205 H3211 0.959 . S
C3205 H3212 0.961 . S
C3205 H3213 0.960 . S
C3206 C3204 1.381 . S
C3206 C3207 1.394 . S
C3206 H3214 0.930 . S
C3207 C3206 1.394 . S
C3207 C3208 1.383 . S
C3207 H3215 0.929 . S
C3208 C3207 1.383 . S
C3208 C3209 1.377 . S
C3209 H3193 0.930 . S
C3209 C3208 1.377 . S
C3209 C3210 1.379 . S
C3210 H3194 0.931 . S
C3210 C3204 1.383 . S
C3210 C3209 1.379 . S
H3211 C3205 0.959 . S
H3212 C3205 0.961 . S
H3213 C3205 0.960 . S
H3214 C3206 0.930 . S
H3215 C3207 0.929 . S
H3216 C3224 0.929 . S
H3217 C3226 0.930 . S
H3218 C3228 0.930 . S
H3219 C3231 0.929 . S
H3220 C3234 0.930 . S
H3221 C3236 0.960 . S
H3222 C3236 0.960 . S
H3223 C3236 0.960 . S
C3224 H3216 0.929 . S
C3224 C3225 1.377 . S
C3224 C3226 1.384 . S
C3225 C3224 1.377 . S
C3225 C3231 1.390 . S
C3226 H3217 0.930 . S
C3226 C3224 1.384 . S
C3226 C3227 1.372 . S
C3227 C3226 1.372 . S
C3227 C3228 1.400 . S
C3227 C3232 1.490 . S
C3228 H3218 0.930 . S
C3228 C3227 1.400 . S
C3228 C3231 1.386 . S
H3229 C3245 0.930 . S
H3230 C3246 0.931 . S
C3231 H3219 0.929 . S
C3231 C3225 1.390 . S
C3231 C3228 1.386 . S
C3232 C3227 1.490 . S
C3232 C3234 1.395 . S
C3232 C3235 1.403 . S
H3233 C3239 0.930 . S
C3234 H3220 0.930 . S
C3234 C3232 1.395 . S
C3234 C3237 1.403 . S
C3235 C3232 1.403 . S
C3235 C3236 1.524 . S
C3235 C3239 1.400 . S
C3236 H3221 0.960 . S
C3236 H3222 0.960 . S
C3236 H3223 0.960 . S
C3236 C3235 1.524 . S
C3237 C3234 1.403 . S
C3237 C3238 1.392 . S
C3237 C3241 1.495 . S
C3238 C3237 1.392 . S
C3238 C3239 1.385 . S
C3238 C3240 1.478 . S
C3239 H3233 0.930 . S
C3239 C3235 1.400 . S
C3239 C3238 1.385 . S
C3240 C3238 1.478 . S
C3240 C3242 1.381 . S
C3240 C3246 1.383 . S
C3241 C3237 1.495 . S
C3241 H3247 0.959 . S
C3241 H3248 0.961 . S
C3241 H3249 0.960 . S
C3242 C3240 1.381 . S
C3242 C3243 1.394 . S
C3242 H3250 0.930 . S
C3243 C3242 1.394 . S
C3243 C3244 1.383 . S
C3243 H3251 0.929 . S
C3244 C3243 1.383 . S
C3244 C3245 1.377 . S
C3245 H3229 0.930 . S
C3245 C3244 1.377 . S
C3245 C3246 1.379 . S
C3246 H3230 0.931 . S
C3246 C3240 1.383 . S
C3246 C3245 1.379 . S
H3247 C3241 0.959 . S
H3248 C3241 0.961 . S
H3249 C3241 0.960 . S
H3250 C3242 0.930 . S
H3251 C3243 0.929 . S
H3252 C3260 0.929 . S
H3253 C3262 0.930 . S
H3254 C3264 0.930 . S
H3255 C3267 0.929 . S
H3256 C3270 0.930 . S
H3257 C3272 0.960 . S
H3258 C3272 0.960 . S
H3259 C3272 0.960 . S
C3260 H3252 0.929 . S
C3260 C3261 1.377 . S
C3260 C3262 1.384 . S
C3261 C3260 1.377 . S
C3261 C3267 1.390 . S
C3262 H3253 0.930 . S
C3262 C3260 1.384 . S
C3262 C3263 1.372 . S
C3263 C3262 1.372 . S
C3263 C3264 1.400 . S
C3263 C3268 1.490 . S
C3264 H3254 0.930 . S
C3264 C3263 1.400 . S
C3264 C3267 1.386 . S
H3265 C3281 0.930 . S
H3266 C3282 0.931 . S
C3267 H3255 0.929 . S
C3267 C3261 1.390 . S
C3267 C3264 1.386 . S
C3268 C3263 1.490 . S
C3268 C3270 1.395 . S
C3268 C3271 1.403 . S
H3269 C3275 0.930 . S
C3270 H3256 0.930 . S
C3270 C3268 1.395 . S
C3270 C3273 1.403 . S
C3271 C3268 1.403 . S
C3271 C3272 1.524 . S
C3271 C3275 1.400 . S
C3272 H3257 0.960 . S
C3272 H3258 0.960 . S
C3272 H3259 0.960 . S
C3272 C3271 1.524 . S
C3273 C3270 1.403 . S
C3273 C3274 1.392 . S
C3273 C3277 1.495 . S
C3274 C3273 1.392 . S
C3274 C3275 1.385 . S
C3274 C3276 1.478 . S
C3275 H3269 0.930 . S
C3275 C3271 1.400 . S
C3275 C3274 1.385 . S
C3276 C3274 1.478 . S
C3276 C3278 1.381 . S
C3276 C3282 1.383 . S
C3277 C3273 1.495 . S
C3277 H3283 0.959 . S
C3277 H3284 0.961 . S
C3277 H3285 0.960 . S
C3278 C3276 1.381 . S
C3278 C3279 1.394 . S
C3278 H3286 0.930 . S
C3279 C3278 1.394 . S
C3279 C3280 1.383 . S
C3279 H3287 0.929 . S
C3280 C3279 1.383 . S
C3280 C3281 1.377 . S
C3281 H3265 0.930 . S
C3281 C3280 1.377 . S
C3281 C3282 1.379 . S
C3282 H3266 0.931 . S
C3282 C3276 1.383 . S
C3282 C3281 1.379 . S
H3283 C3277 0.959 . S
H3284 C3277 0.961 . S
H3285 C3277 0.960 . S
H3286 C3278 0.930 . S
H3287 C3279 0.929 . S
H3288 C3296 0.929 . S
H3289 C3298 0.930 . S
H3290 C3300 0.930 . S
H3291 C3303 0.929 . S
H3292 C3306 0.930 . S
H3293 C3308 0.960 . S
H3294 C3308 0.960 . S
H3295 C3308 0.960 . S
C3296 H3288 0.929 . S
C3296 C3297 1.377 . S
C3296 C3298 1.384 . S
C3297 C3296 1.377 . S
C3297 C3303 1.390 . S
C3298 H3289 0.930 . S
C3298 C3296 1.384 . S
C3298 C3299 1.372 . S
C3299 C3298 1.372 . S
C3299 C3300 1.400 . S
C3299 C3304 1.490 . S
C3300 H3290 0.930 . S
C3300 C3299 1.400 . S
C3300 C3303 1.386 . S
H3301 C3317 0.930 . S
H3302 C3318 0.931 . S
C3303 H3291 0.929 . S
C3303 C3297 1.390 . S
C3303 C3300 1.386 . S
C3304 C3299 1.490 . S
C3304 C3306 1.395 . S
C3304 C3307 1.403 . S
H3305 C3311 0.930 . S
C3306 H3292 0.930 . S
C3306 C3304 1.395 . S
C3306 C3309 1.403 . S
C3307 C3304 1.403 . S
C3307 C3308 1.524 . S
C3307 C3311 1.400 . S
C3308 H3293 0.960 . S
C3308 H3294 0.960 . S
C3308 H3295 0.960 . S
C3308 C3307 1.524 . S
C3309 C3306 1.403 . S
C3309 C3310 1.392 . S
C3309 C3313 1.495 . S
C3310 C3309 1.392 . S
C3310 C3311 1.385 . S
C3310 C3312 1.478 . S
C3311 H3305 0.930 . S
C3311 C3307 1.400 . S
C3311 C3310 1.385 . S
C3312 C3310 1.478 . S
C3312 C3314 1.381 . S
C3312 C3318 1.383 . S
C3313 C3309 1.495 . S
C3313 H3319 0.959 . S
C3313 H3320 0.961 . S
C3313 H3321 0.960 . S
C3314 C3312 1.381 . S
C3314 C3315 1.394 . S
C3314 H3322 0.930 . S
C3315 C3314 1.394 . S
C3315 C3316 1.383 . S
C3315 H3323 0.929 . S
C3316 C3315 1.383 . S
C3316 C3317 1.377 . S
C3317 H3301 0.930 . S
C3317 C3316 1.377 . S
C3317 C3318 1.379 . S
C3318 H3302 0.931 . S
C3318 C3312 1.383 . S
C3318 C3317 1.379 . S
H3319 C3313 0.959 . S
H3320 C3313 0.961 . S
H3321 C3313 0.960 . S
H3322 C3314 0.930 . S
H3323 C3315 0.929 . S
H3324 C3332 0.929 . S
H3325 C3334 0.930 . S
H3326 C3336 0.930 . S
H3327 C3339 0.929 . S
H3328 C3342 0.930 . S
H3329 C3344 0.960 . S
H3330 C3344 0.960 . S
H3331 C3344 0.960 . S
C3332 H3324 0.929 . S
C3332 C3333 1.377 . S
C3332 C3334 1.384 . S
C3333 C3332 1.377 . S
C3333 C3339 1.390 . S
C3334 H3325 0.930 . S
C3334 C3332 1.384 . S
C3334 C3335 1.372 . S
C3335 C3334 1.372 . S
C3335 C3336 1.400 . S
C3335 C3340 1.490 . S
C3336 H3326 0.930 . S
C3336 C3335 1.400 . S
C3336 C3339 1.386 . S
H3337 C3353 0.930 . S
H3338 C3354 0.931 . S
C3339 H3327 0.929 . S
C3339 C3333 1.390 . S
C3339 C3336 1.386 . S
C3340 C3335 1.490 . S
C3340 C3342 1.395 . S
C3340 C3343 1.403 . S
H3341 C3347 0.930 . S
C3342 H3328 0.930 . S
C3342 C3340 1.395 . S
C3342 C3345 1.403 . S
C3343 C3340 1.403 . S
C3343 C3344 1.524 . S
C3343 C3347 1.400 . S
C3344 H3329 0.960 . S
C3344 H3330 0.960 . S
C3344 H3331 0.960 . S
C3344 C3343 1.524 . S
C3345 C3342 1.403 . S
C3345 C3346 1.392 . S
C3345 C3349 1.495 . S
C3346 C3345 1.392 . S
C3346 C3347 1.385 . S
C3346 C3348 1.478 . S
C3347 H3341 0.930 . S
C3347 C3343 1.400 . S
C3347 C3346 1.385 . S
C3348 C3346 1.478 . S
C3348 C3350 1.381 . S
C3348 C3354 1.383 . S
C3349 C3345 1.495 . S
C3349 H3355 0.959 . S
C3349 H3356 0.961 . S
C3349 H3357 0.960 . S
C3350 C3348 1.381 . S
C3350 C3351 1.394 . S
C3350 H3358 0.930 . S
C3351 C3350 1.394 . S
C3351 C3352 1.383 . S
C3351 H3359 0.929 . S
C3352 C3351 1.383 . S
C3352 C3353 1.377 . S
C3353 H3337 0.930 . S
C3353 C3352 1.377 . S
C3353 C3354 1.379 . S
C3354 H3338 0.931 . S
C3354 C3348 1.383 . S
C3354 C3353 1.379 . S
H3355 C3349 0.959 . S
H3356 C3349 0.961 . S
H3357 C3349 0.960 . S
H3358 C3350 0.930 . S
H3359 C3351 0.929 . S
H3360 C3368 0.929 . S
H3361 C3370 0.930 . S
H3362 C3372 0.930 . S
H3363 C3375 0.929 . S
H3364 C3378 0.930 . S
H3365 C3380 0.960 . S
H3366 C3380 0.960 . S
H3367 C3380 0.960 . S
C3368 H3360 0.929 . S
C3368 C3369 1.377 . S
C3368 C3370 1.384 . S
C3369 C3368 1.377 . S
C3369 C3375 1.390 . S
C3370 H3361 0.930 . S
C3370 C3368 1.384 . S
C3370 C3371 1.372 . S
C3371 C3370 1.372 . S
C3371 C3372 1.400 . S
C3371 C3376 1.490 . S
C3372 H3362 0.930 . S
C3372 C3371 1.400 . S
C3372 C3375 1.386 . S
H3373 C3389 0.930 . S
H3374 C3390 0.931 . S
C3375 H3363 0.929 . S
C3375 C3369 1.390 . S
C3375 C3372 1.386 . S
C3376 C3371 1.490 . S
C3376 C3378 1.395 . S
C3376 C3379 1.403 . S
H3377 C3383 0.930 . S
C3378 H3364 0.930 . S
C3378 C3376 1.395 . S
C3378 C3381 1.403 . S
C3379 C3376 1.403 . S
C3379 C3380 1.524 . S
C3379 C3383 1.400 . S
C3380 H3365 0.960 . S
C3380 H3366 0.960 . S
C3380 H3367 0.960 . S
C3380 C3379 1.524 . S
C3381 C3378 1.403 . S
C3381 C3382 1.392 . S
C3381 C3385 1.495 . S
C3382 C3381 1.392 . S
C3382 C3383 1.385 . S
C3382 C3384 1.478 . S
C3383 H3377 0.930 . S
C3383 C3379 1.400 . S
C3383 C3382 1.385 . S
C3384 C3382 1.478 . S
C3384 C3386 1.381 . S
C3384 C3390 1.383 . S
C3385 C3381 1.495 . S
C3385 H3391 0.959 . S
C3385 H3392 0.961 . S
C3385 H3393 0.960 . S
C3386 C3384 1.381 . S
C3386 C3387 1.394 . S
C3386 H3394 0.930 . S
C3387 C3386 1.394 . S
C3387 C3388 1.383 . S
C3387 H3395 0.929 . S
C3388 C3387 1.383 . S
C3388 C3389 1.377 . S
C3389 H3373 0.930 . S
C3389 C3388 1.377 . S
C3389 C3390 1.379 . S
C3390 H3374 0.931 . S
C3390 C3384 1.383 . S
C3390 C3389 1.379 . S
H3391 C3385 0.959 . S
H3392 C3385 0.961 . S
H3393 C3385 0.960 . S
H3394 C3386 0.930 . S
H3395 C3387 0.929 . S
H3396 C3404 0.929 . S
H3397 C3406 0.930 . S
H3398 C3408 0.930 . S
H3399 C3411 0.929 . S
H3400 C3414 0.930 . S
H3401 C3416 0.960 . S
H3402 C3416 0.960 . S
H3403 C3416 0.960 . S
C3404 H3396 0.929 . S
C3404 C3405 1.377 . S
C3404 C3406 1.384 . S
C3405 C3404 1.377 . S
C3405 C3411 1.390 . S
C3406 H3397 0.930 . S
C3406 C3404 1.384 . S
C3406 C3407 1.372 . S
C3407 C3406 1.372 . S
C3407 C3408 1.400 . S
C3407 C3412 1.490 . S
C3408 H3398 0.930 . S
C3408 C3407 1.400 . S
C3408 C3411 1.386 . S
H3409 C3425 0.930 . S
H3410 C3426 0.931 . S
C3411 H3399 0.929 . S
C3411 C3405 1.390 . S
C3411 C3408 1.386 . S
C3412 C3407 1.490 . S
C3412 C3414 1.395 . S
C3412 C3415 1.403 . S
H3413 C3419 0.930 . S
C3414 H3400 0.930 . S
C3414 C3412 1.395 . S
C3414 C3417 1.403 . S
C3415 C3412 1.403 . S
C3415 C3416 1.524 . S
C3415 C3419 1.400 . S
C3416 H3401 0.960 . S
C3416 H3402 0.960 . S
C3416 H3403 0.960 . S
C3416 C3415 1.524 . S
C3417 C3414 1.403 . S
C3417 C3418 1.392 . S
C3417 C3421 1.495 . S
C3418 C3417 1.392 . S
C3418 C3419 1.385 . S
C3418 C3420 1.478 . S
C3419 H3413 0.930 . S
C3419 C3415 1.400 . S
C3419 C3418 1.385 . S
C3420 C3418 1.478 . S
C3420 C3422 1.381 . S
C3420 C3426 1.383 . S
C3421 C3417 1.495 . S
C3421 H3427 0.959 . S
C3421 H3428 0.961 . S
C3421 H3429 0.960 . S
C3422 C3420 1.381 . S
C3422 C3423 1.394 . S
C3422 H3430 0.930 . S
C3423 C3422 1.394 . S
C3423 C3424 1.383 . S
C3423 H3431 0.929 . S
C3424 C3423 1.383 . S
C3424 C3425 1.377 . S
C3425 H3409 0.930 . S
C3425 C3424 1.377 . S
C3425 C3426 1.379 . S
C3426 H3410 0.931 . S
C3426 C3420 1.383 . S
C3426 C3425 1.379 . S
H3427 C3421 0.959 . S
H3428 C3421 0.961 . S
H3429 C3421 0.960 . S
H3430 C3422 0.930 . S
H3431 C3423 0.929 . S
H3432 C3440 0.929 . S
H3433 C3442 0.930 . S
H3434 C3444 0.930 . S
H3435 C3447 0.929 . S
H3436 C3450 0.930 . S
H3437 C3452 0.960 . S
H3438 C3452 0.960 . S
H3439 C3452 0.960 . S
C3440 H3432 0.929 . S
C3440 C3441 1.377 . S
C3440 C3442 1.384 . S
C3441 C3440 1.377 . S
C3441 C3447 1.390 . S
C3442 H3433 0.930 . S
C3442 C3440 1.384 . S
C3442 C3443 1.372 . S
C3443 C3442 1.372 . S
C3443 C3444 1.400 . S
C3443 C3448 1.490 . S
C3444 H3434 0.930 . S
C3444 C3443 1.400 . S
C3444 C3447 1.386 . S
H3445 C3461 0.930 . S
H3446 C3462 0.931 . S
C3447 H3435 0.929 . S
C3447 C3441 1.390 . S
C3447 C3444 1.386 . S
C3448 C3443 1.490 . S
C3448 C3450 1.395 . S
C3448 C3451 1.403 . S
H3449 C3455 0.930 . S
C3450 H3436 0.930 . S
C3450 C3448 1.395 . S
C3450 C3453 1.403 . S
C3451 C3448 1.403 . S
C3451 C3452 1.524 . S
C3451 C3455 1.400 . S
C3452 H3437 0.960 . S
C3452 H3438 0.960 . S
C3452 H3439 0.960 . S
C3452 C3451 1.524 . S
C3453 C3450 1.403 . S
C3453 C3454 1.392 . S
C3453 C3457 1.495 . S
C3454 C3453 1.392 . S
C3454 C3455 1.385 . S
C3454 C3456 1.478 . S
C3455 H3449 0.930 . S
C3455 C3451 1.400 . S
C3455 C3454 1.385 . S
C3456 C3454 1.478 . S
C3456 C3458 1.381 . S
C3456 C3462 1.383 . S
C3457 C3453 1.495 . S
C3457 H3463 0.959 . S
C3457 H3464 0.961 . S
C3457 H3465 0.960 . S
C3458 C3456 1.381 . S
C3458 C3459 1.394 . S
C3458 H3466 0.930 . S
C3459 C3458 1.394 . S
C3459 C3460 1.383 . S
C3459 H3467 0.929 . S
C3460 C3459 1.383 . S
C3460 C3461 1.377 . S
C3461 H3445 0.930 . S
C3461 C3460 1.377 . S
C3461 C3462 1.379 . S
C3462 H3446 0.931 . S
C3462 C3456 1.383 . S
C3462 C3461 1.379 . S
H3463 C3457 0.959 . S
H3464 C3457 0.961 . S
H3465 C3457 0.960 . S
H3466 C3458 0.930 . S
H3467 C3459 0.929 . S
H3468 C3476 0.929 . S
H3469 C3478 0.930 . S
H3470 C3480 0.930 . S
H3471 C3483 0.929 . S
H3472 C3486 0.930 . S
H3473 C3488 0.960 . S
H3474 C3488 0.960 . S
H3475 C3488 0.960 . S
C3476 H3468 0.929 . S
C3476 C3477 1.377 . S
C3476 C3478 1.384 . S
C3477 C3476 1.377 . S
C3477 C3483 1.390 . S
C3478 H3469 0.930 . S
C3478 C3476 1.384 . S
C3478 C3479 1.372 . S
C3479 C3478 1.372 . S
C3479 C3480 1.400 . S
C3479 C3484 1.490 . S
C3480 H3470 0.930 . S
C3480 C3479 1.400 . S
C3480 C3483 1.386 . S
H3481 C3497 0.930 . S
H3482 C3498 0.931 . S
C3483 H3471 0.929 . S
C3483 C3477 1.390 . S
C3483 C3480 1.386 . S
C3484 C3479 1.490 . S
C3484 C3486 1.395 . S
C3484 C3487 1.403 . S
H3485 C3491 0.930 . S
C3486 H3472 0.930 . S
C3486 C3484 1.395 . S
C3486 C3489 1.403 . S
C3487 C3484 1.403 . S
C3487 C3488 1.524 . S
C3487 C3491 1.400 . S
C3488 H3473 0.960 . S
C3488 H3474 0.960 . S
C3488 H3475 0.960 . S
C3488 C3487 1.524 . S
C3489 C3486 1.403 . S
C3489 C3490 1.392 . S
C3489 C3493 1.495 . S
C3490 C3489 1.392 . S
C3490 C3491 1.385 . S
C3490 C3492 1.478 . S
C3491 H3485 0.930 . S
C3491 C3487 1.400 . S
C3491 C3490 1.385 . S
C3492 C3490 1.478 . S
C3492 C3494 1.381 . S
C3492 C3498 1.383 . S
C3493 C3489 1.495 . S
C3493 H3499 0.959 . S
C3493 H3500 0.961 . S
C3493 H3501 0.960 . S
C3494 C3492 1.381 . S
C3494 C3495 1.394 . S
C3494 H3502 0.930 . S
C3495 C3494 1.394 . S
C3495 C3496 1.383 . S
C3495 H3503 0.929 . S
C3496 C3495 1.383 . S
C3496 C3497 1.377 . S
C3497 H3481 0.930 . S
C3497 C3496 1.377 . S
C3497 C3498 1.379 . S
C3498 H3482 0.931 . S
C3498 C3492 1.383 . S
C3498 C3497 1.379 . S
H3499 C3493 0.959 . S
H3500 C3493 0.961 . S
H3501 C3493 0.960 . S
H3502 C3494 0.930 . S
H3503 C3495 0.929 . S
H3504 C3512 0.929 . S
H3505 C3514 0.930 . S
H3506 C3516 0.930 . S
H3507 C3519 0.929 . S
H3508 C3522 0.930 . S
H3509 C3524 0.960 . S
H3510 C3524 0.960 . S
H3511 C3524 0.960 . S
C3512 H3504 0.929 . S
C3512 C3513 1.377 . S
C3512 C3514 1.384 . S
C3513 C3512 1.377 . S
C3513 C3519 1.390 . S
C3514 H3505 0.930 . S
C3514 C3512 1.384 . S
C3514 C3515 1.372 . S
C3515 C3514 1.372 . S
C3515 C3516 1.400 . S
C3515 C3520 1.490 . S
C3516 H3506 0.930 . S
C3516 C3515 1.400 . S
C3516 C3519 1.386 . S
H3517 C3533 0.930 . S
H3518 C3534 0.931 . S
C3519 H3507 0.929 . S
C3519 C3513 1.390 . S
C3519 C3516 1.386 . S
C3520 C3515 1.490 . S
C3520 C3522 1.395 . S
C3520 C3523 1.403 . S
H3521 C3527 0.930 . S
C3522 H3508 0.930 . S
C3522 C3520 1.395 . S
C3522 C3525 1.403 . S
C3523 C3520 1.403 . S
C3523 C3524 1.524 . S
C3523 C3527 1.400 . S
C3524 H3509 0.960 . S
C3524 H3510 0.960 . S
C3524 H3511 0.960 . S
C3524 C3523 1.524 . S
C3525 C3522 1.403 . S
C3525 C3526 1.392 . S
C3525 C3529 1.495 . S
C3526 C3525 1.392 . S
C3526 C3527 1.385 . S
C3526 C3528 1.478 . S
C3527 H3521 0.930 . S
C3527 C3523 1.400 . S
C3527 C3526 1.385 . S
C3528 C3526 1.478 . S
C3528 C3530 1.381 . S
C3528 C3534 1.383 . S
C3529 C3525 1.495 . S
C3529 H3535 0.959 . S
C3529 H3536 0.961 . S
C3529 H3537 0.960 . S
C3530 C3528 1.381 . S
C3530 C3531 1.394 . S
C3530 H3538 0.930 . S
C3531 C3530 1.394 . S
C3531 C3532 1.383 . S
C3531 H3539 0.929 . S
C3532 C3531 1.383 . S
C3532 C3533 1.377 . S
C3533 H3517 0.930 . S
C3533 C3532 1.377 . S
C3533 C3534 1.379 . S
C3534 H3518 0.931 . S
C3534 C3528 1.383 . S
C3534 C3533 1.379 . S
H3535 C3529 0.959 . S
H3536 C3529 0.961 . S
H3537 C3529 0.960 . S
H3538 C3530 0.930 . S
H3539 C3531 0.929 . S
H3540 C3548 0.929 . S
H3541 C3550 0.930 . S
H3542 C3552 0.930 . S
H3543 C3555 0.929 . S
H3544 C3558 0.930 . S
H3545 C3560 0.960 . S
H3546 C3560 0.960 . S
H3547 C3560 0.960 . S
C3548 H3540 0.929 . S
C3548 C3549 1.377 . S
C3548 C3550 1.384 . S
C3549 C3548 1.377 . S
C3549 C3555 1.390 . S
C3550 H3541 0.930 . S
C3550 C3548 1.384 . S
C3550 C3551 1.372 . S
C3551 C3550 1.372 . S
C3551 C3552 1.400 . S
C3551 C3556 1.490 . S
C3552 H3542 0.930 . S
C3552 C3551 1.400 . S
C3552 C3555 1.386 . S
H3553 C3569 0.930 . S
H3554 C3570 0.931 . S
C3555 H3543 0.929 . S
C3555 C3549 1.390 . S
C3555 C3552 1.386 . S
C3556 C3551 1.490 . S
C3556 C3558 1.395 . S
C3556 C3559 1.403 . S
H3557 C3563 0.930 . S
C3558 H3544 0.930 . S
C3558 C3556 1.395 . S
C3558 C3561 1.403 . S
C3559 C3556 1.403 . S
C3559 C3560 1.524 . S
C3559 C3563 1.400 . S
C3560 H3545 0.960 . S
C3560 H3546 0.960 . S
C3560 H3547 0.960 . S
C3560 C3559 1.524 . S
C3561 C3558 1.403 . S
C3561 C3562 1.392 . S
C3561 C3565 1.495 . S
C3562 C3561 1.392 . S
C3562 C3563 1.385 . S
C3562 C3564 1.478 . S
C3563 H3557 0.930 . S
C3563 C3559 1.400 . S
C3563 C3562 1.385 . S
C3564 C3562 1.478 . S
C3564 C3566 1.381 . S
C3564 C3570 1.383 . S
C3565 C3561 1.495 . S
C3565 H3571 0.959 . S
C3565 H3572 0.961 . S
C3565 H3573 0.960 . S
C3566 C3564 1.381 . S
C3566 C3567 1.394 . S
C3566 H3574 0.930 . S
C3567 C3566 1.394 . S
C3567 C3568 1.383 . S
C3567 H3575 0.929 . S
C3568 C3567 1.383 . S
C3568 C3569 1.377 . S
C3569 H3553 0.930 . S
C3569 C3568 1.377 . S
C3569 C3570 1.379 . S
C3570 H3554 0.931 . S
C3570 C3564 1.383 . S
C3570 C3569 1.379 . S
H3571 C3565 0.959 . S
H3572 C3565 0.961 . S
H3573 C3565 0.960 . S
H3574 C3566 0.930 . S
H3575 C3567 0.929 . S
H3576 C3584 0.929 . S
H3577 C3586 0.930 . S
H3578 C3588 0.930 . S
H3579 C3591 0.929 . S
H3580 C3594 0.930 . S
H3581 C3596 0.960 . S
H3582 C3596 0.960 . S
H3583 C3596 0.960 . S
C3584 H3576 0.929 . S
C3584 C3585 1.377 . S
C3584 C3586 1.384 . S
C3585 C3584 1.377 . S
C3585 C3591 1.390 . S
C3586 H3577 0.930 . S
C3586 C3584 1.384 . S
C3586 C3587 1.372 . S
C3587 C3586 1.372 . S
C3587 C3588 1.400 . S
C3587 C3592 1.490 . S
C3588 H3578 0.930 . S
C3588 C3587 1.400 . S
C3588 C3591 1.386 . S
H3589 C3605 0.930 . S
H3590 C3606 0.931 . S
C3591 H3579 0.929 . S
C3591 C3585 1.390 . S
C3591 C3588 1.386 . S
C3592 C3587 1.490 . S
C3592 C3594 1.395 . S
C3592 C3595 1.403 . S
H3593 C3599 0.930 . S
C3594 H3580 0.930 . S
C3594 C3592 1.395 . S
C3594 C3597 1.403 . S
C3595 C3592 1.403 . S
C3595 C3596 1.524 . S
C3595 C3599 1.400 . S
C3596 H3581 0.960 . S
C3596 H3582 0.960 . S
C3596 H3583 0.960 . S
C3596 C3595 1.524 . S
C3597 C3594 1.403 . S
C3597 C3598 1.392 . S
C3597 C3601 1.495 . S
C3598 C3597 1.392 . S
C3598 C3599 1.385 . S
C3598 C3600 1.478 . S
C3599 H3593 0.930 . S
C3599 C3595 1.400 . S
C3599 C3598 1.385 . S
C3600 C3598 1.478 . S
C3600 C3602 1.381 . S
C3600 C3606 1.383 . S
C3601 C3597 1.495 . S
C3601 H3607 0.959 . S
C3601 H3608 0.961 . S
C3601 H3609 0.960 . S
C3602 C3600 1.381 . S
C3602 C3603 1.394 . S
C3602 H3610 0.930 . S
C3603 C3602 1.394 . S
C3603 C3604 1.383 . S
C3603 H3611 0.929 . S
C3604 C3603 1.383 . S
C3604 C3605 1.377 . S
C3605 H3589 0.930 . S
C3605 C3604 1.377 . S
C3605 C3606 1.379 . S
C3606 H3590 0.931 . S
C3606 C3600 1.383 . S
C3606 C3605 1.379 . S
H3607 C3601 0.959 . S
H3608 C3601 0.961 . S
H3609 C3601 0.960 . S
H3610 C3602 0.930 . S
H3611 C3603 0.929 . S
H3612 C3620 0.929 . S
H3613 C3622 0.930 . S
H3614 C3624 0.930 . S
H3615 C3627 0.929 . S
H3616 C3630 0.930 . S
H3617 C3632 0.960 . S
H3618 C3632 0.960 . S
H3619 C3632 0.960 . S
C3620 H3612 0.929 . S
C3620 C3621 1.377 . S
C3620 C3622 1.384 . S
C3621 C3620 1.377 . S
C3621 C3627 1.390 . S
C3622 H3613 0.930 . S
C3622 C3620 1.384 . S
C3622 C3623 1.372 . S
C3623 C3622 1.372 . S
C3623 C3624 1.400 . S
C3623 C3628 1.490 . S
C3624 H3614 0.930 . S
C3624 C3623 1.400 . S
C3624 C3627 1.386 . S
H3625 C3641 0.930 . S
H3626 C3642 0.931 . S
C3627 H3615 0.929 . S
C3627 C3621 1.390 . S
C3627 C3624 1.386 . S
C3628 C3623 1.490 . S
C3628 C3630 1.395 . S
C3628 C3631 1.403 . S
H3629 C3635 0.930 . S
C3630 H3616 0.930 . S
C3630 C3628 1.395 . S
C3630 C3633 1.403 . S
C3631 C3628 1.403 . S
C3631 C3632 1.524 . S
C3631 C3635 1.400 . S
C3632 H3617 0.960 . S
C3632 H3618 0.960 . S
C3632 H3619 0.960 . S
C3632 C3631 1.524 . S
C3633 C3630 1.403 . S
C3633 C3634 1.392 . S
C3633 C3637 1.495 . S
C3634 C3633 1.392 . S
C3634 C3635 1.385 . S
C3634 C3636 1.478 . S
C3635 H3629 0.930 . S
C3635 C3631 1.400 . S
C3635 C3634 1.385 . S
C3636 C3634 1.478 . S
C3636 C3638 1.381 . S
C3636 C3642 1.383 . S
C3637 C3633 1.495 . S
C3637 H3643 0.959 . S
C3637 H3644 0.961 . S
C3637 H3645 0.960 . S
C3638 C3636 1.381 . S
C3638 C3639 1.394 . S
C3638 H3646 0.930 . S
C3639 C3638 1.394 . S
C3639 C3640 1.383 . S
C3639 H3647 0.929 . S
C3640 C3639 1.383 . S
C3640 C3641 1.377 . S
C3641 H3625 0.930 . S
C3641 C3640 1.377 . S
C3641 C3642 1.379 . S
C3642 H3626 0.931 . S
C3642 C3636 1.383 . S
C3642 C3641 1.379 . S
H3643 C3637 0.959 . S
H3644 C3637 0.961 . S
H3645 C3637 0.960 . S
H3646 C3638 0.930 . S
H3647 C3639 0.929 . S
H3648 C3656 0.929 . S
H3649 C3658 0.930 . S
H3650 C3660 0.930 . S
H3651 C3663 0.929 . S
H3652 C3666 0.930 . S
H3653 C3668 0.960 . S
H3654 C3668 0.960 . S
H3655 C3668 0.960 . S
C3656 H3648 0.929 . S
C3656 C3657 1.377 . S
C3656 C3658 1.384 . S
C3657 C3656 1.377 . S
C3657 C3663 1.390 . S
C3658 H3649 0.930 . S
C3658 C3656 1.384 . S
C3658 C3659 1.372 . S
C3659 C3658 1.372 . S
C3659 C3660 1.400 . S
C3659 C3664 1.490 . S
C3660 H3650 0.930 . S
C3660 C3659 1.400 . S
C3660 C3663 1.386 . S
H3661 C3677 0.930 . S
H3662 C3678 0.931 . S
C3663 H3651 0.929 . S
C3663 C3657 1.390 . S
C3663 C3660 1.386 . S
C3664 C3659 1.490 . S
C3664 C3666 1.395 . S
C3664 C3667 1.403 . S
H3665 C3671 0.930 . S
C3666 H3652 0.930 . S
C3666 C3664 1.395 . S
C3666 C3669 1.403 . S
C3667 C3664 1.403 . S
C3667 C3668 1.524 . S
C3667 C3671 1.400 . S
C3668 H3653 0.960 . S
C3668 H3654 0.960 . S
C3668 H3655 0.960 . S
C3668 C3667 1.524 . S
C3669 C3666 1.403 . S
C3669 C3670 1.392 . S
C3669 C3673 1.495 . S
C3670 C3669 1.392 . S
C3670 C3671 1.385 . S
C3670 C3672 1.478 . S
C3671 H3665 0.930 . S
C3671 C3667 1.400 . S
C3671 C3670 1.385 . S
C3672 C3670 1.478 . S
C3672 C3674 1.381 . S
C3672 C3678 1.383 . S
C3673 C3669 1.495 . S
C3673 H3679 0.959 . S
C3673 H3680 0.961 . S
C3673 H3681 0.960 . S
C3674 C3672 1.381 . S
C3674 C3675 1.394 . S
C3674 H3682 0.930 . S
C3675 C3674 1.394 . S
C3675 C3676 1.383 . S
C3675 H3683 0.929 . S
C3676 C3675 1.383 . S
C3676 C3677 1.377 . S
C3677 H3661 0.930 . S
C3677 C3676 1.377 . S
C3677 C3678 1.379 . S
C3678 H3662 0.931 . S
C3678 C3672 1.383 . S
C3678 C3677 1.379 . S
H3679 C3673 0.959 . S
H3680 C3673 0.961 . S
H3681 C3673 0.960 . S
H3682 C3674 0.930 . S
H3683 C3675 0.929 . S
H3684 C3692 0.929 . S
H3685 C3694 0.930 . S
H3686 C3696 0.930 . S
H3687 C3699 0.929 . S
H3688 C3702 0.930 . S
H3689 C3704 0.960 . S
H3690 C3704 0.960 . S
H3691 C3704 0.960 . S
C3692 H3684 0.929 . S
C3692 C3693 1.377 . S
C3692 C3694 1.384 . S
C3693 C3692 1.377 . S
C3693 C3699 1.390 . S
C3694 H3685 0.930 . S
C3694 C3692 1.384 . S
C3694 C3695 1.372 . S
C3695 C3694 1.372 . S
C3695 C3696 1.400 . S
C3695 C3700 1.490 . S
C3696 H3686 0.930 . S
C3696 C3695 1.400 . S
C3696 C3699 1.386 . S
H3697 C3713 0.930 . S
H3698 C3714 0.931 . S
C3699 H3687 0.929 . S
C3699 C3693 1.390 . S
C3699 C3696 1.386 . S
C3700 C3695 1.490 . S
C3700 C3702 1.395 . S
C3700 C3703 1.403 . S
H3701 C3707 0.930 . S
C3702 H3688 0.930 . S
C3702 C3700 1.395 . S
C3702 C3705 1.403 . S
C3703 C3700 1.403 . S
C3703 C3704 1.524 . S
C3703 C3707 1.400 . S
C3704 H3689 0.960 . S
C3704 H3690 0.960 . S
C3704 H3691 0.960 . S
C3704 C3703 1.524 . S
C3705 C3702 1.403 . S
C3705 C3706 1.392 . S
C3705 C3709 1.495 . S
C3706 C3705 1.392 . S
C3706 C3707 1.385 . S
C3706 C3708 1.478 . S
C3707 H3701 0.930 . S
C3707 C3703 1.400 . S
C3707 C3706 1.385 . S
C3708 C3706 1.478 . S
C3708 C3710 1.381 . S
C3708 C3714 1.383 . S
C3709 C3705 1.495 . S
C3709 H3715 0.959 . S
C3709 H3716 0.961 . S
C3709 H3717 0.960 . S
C3710 C3708 1.381 . S
C3710 C3711 1.394 . S
C3710 H3718 0.930 . S
C3711 C3710 1.394 . S
C3711 C3712 1.383 . S
C3711 H3719 0.929 . S
C3712 C3711 1.383 . S
C3712 C3713 1.377 . S
C3713 H3697 0.930 . S
C3713 C3712 1.377 . S
C3713 C3714 1.379 . S
C3714 H3698 0.931 . S
C3714 C3708 1.383 . S
C3714 C3713 1.379 . S
H3715 C3709 0.959 . S
H3716 C3709 0.961 . S
H3717 C3709 0.960 . S
H3718 C3710 0.930 . S
H3719 C3711 0.929 . S
H3720 C3728 0.929 . S
H3721 C3730 0.930 . S
H3722 C3732 0.930 . S
H3723 C3735 0.929 . S
H3724 C3738 0.930 . S
H3725 C3740 0.960 . S
H3726 C3740 0.960 . S
H3727 C3740 0.960 . S
C3728 H3720 0.929 . S
C3728 C3729 1.377 . S
C3728 C3730 1.384 . S
C3729 C3728 1.377 . S
C3729 C3735 1.390 . S
C3730 H3721 0.930 . S
C3730 C3728 1.384 . S
C3730 C3731 1.372 . S
C3731 C3730 1.372 . S
C3731 C3732 1.400 . S
C3731 C3736 1.490 . S
C3732 H3722 0.930 . S
C3732 C3731 1.400 . S
C3732 C3735 1.386 . S
H3733 C3749 0.930 . S
H3734 C3750 0.931 . S
C3735 H3723 0.929 . S
C3735 C3729 1.390 . S
C3735 C3732 1.386 . S
C3736 C3731 1.490 . S
C3736 C3738 1.395 . S
C3736 C3739 1.403 . S
H3737 C3743 0.930 . S
C3738 H3724 0.930 . S
C3738 C3736 1.395 . S
C3738 C3741 1.403 . S
C3739 C3736 1.403 . S
C3739 C3740 1.524 . S
C3739 C3743 1.400 . S
C3740 H3725 0.960 . S
C3740 H3726 0.960 . S
C3740 H3727 0.960 . S
C3740 C3739 1.524 . S
C3741 C3738 1.403 . S
C3741 C3742 1.392 . S
C3741 C3745 1.495 . S
C3742 C3741 1.392 . S
C3742 C3743 1.385 . S
C3742 C3744 1.478 . S
C3743 H3737 0.930 . S
C3743 C3739 1.400 . S
C3743 C3742 1.385 . S
C3744 C3742 1.478 . S
C3744 C3746 1.381 . S
C3744 C3750 1.383 . S
C3745 C3741 1.495 . S
C3745 H3751 0.959 . S
C3745 H3752 0.961 . S
C3745 H3753 0.960 . S
C3746 C3744 1.381 . S
C3746 C3747 1.394 . S
C3746 H3754 0.930 . S
C3747 C3746 1.394 . S
C3747 C3748 1.383 . S
C3747 H3755 0.929 . S
C3748 C3747 1.383 . S
C3748 C3749 1.377 . S
C3749 H3733 0.930 . S
C3749 C3748 1.377 . S
C3749 C3750 1.379 . S
C3750 H3734 0.931 . S
C3750 C3744 1.383 . S
C3750 C3749 1.379 . S
H3751 C3745 0.959 . S
H3752 C3745 0.961 . S
H3753 C3745 0.960 . S
H3754 C3746 0.930 . S
H3755 C3747 0.929 . S
H3756 C3764 0.929 . S
H3757 C3766 0.930 . S
H3758 C3768 0.930 . S
H3759 C3771 0.929 . S
H3760 C3774 0.930 . S
H3761 C3776 0.960 . S
H3762 C3776 0.960 . S
H3763 C3776 0.960 . S
C3764 H3756 0.929 . S
C3764 C3765 1.377 . S
C3764 C3766 1.384 . S
C3765 C3764 1.377 . S
C3765 C3771 1.390 . S
C3766 H3757 0.930 . S
C3766 C3764 1.384 . S
C3766 C3767 1.372 . S
C3767 C3766 1.372 . S
C3767 C3768 1.400 . S
C3767 C3772 1.490 . S
C3768 H3758 0.930 . S
C3768 C3767 1.400 . S
C3768 C3771 1.386 . S
H3769 C3785 0.930 . S
H3770 C3786 0.931 . S
C3771 H3759 0.929 . S
C3771 C3765 1.390 . S
C3771 C3768 1.386 . S
C3772 C3767 1.490 . S
C3772 C3774 1.395 . S
C3772 C3775 1.403 . S
H3773 C3779 0.930 . S
C3774 H3760 0.930 . S
C3774 C3772 1.395 . S
C3774 C3777 1.403 . S
C3775 C3772 1.403 . S
C3775 C3776 1.524 . S
C3775 C3779 1.400 . S
C3776 H3761 0.960 . S
C3776 H3762 0.960 . S
C3776 H3763 0.960 . S
C3776 C3775 1.524 . S
C3777 C3774 1.403 . S
C3777 C3778 1.392 . S
C3777 C3781 1.495 . S
C3778 C3777 1.392 . S
C3778 C3779 1.385 . S
C3778 C3780 1.478 . S
C3779 H3773 0.930 . S
C3779 C3775 1.400 . S
C3779 C3778 1.385 . S
C3780 C3778 1.478 . S
C3780 C3782 1.381 . S
C3780 C3786 1.383 . S
C3781 C3777 1.495 . S
C3781 H3787 0.959 . S
C3781 H3788 0.961 . S
C3781 H3789 0.960 . S
C3782 C3780 1.381 . S
C3782 C3783 1.394 . S
C3782 H3790 0.930 . S
C3783 C3782 1.394 . S
C3783 C3784 1.383 . S
C3783 H3791 0.929 . S
C3784 C3783 1.383 . S
C3784 C3785 1.377 . S
C3785 H3769 0.930 . S
C3785 C3784 1.377 . S
C3785 C3786 1.379 . S
C3786 H3770 0.931 . S
C3786 C3780 1.383 . S
C3786 C3785 1.379 . S
H3787 C3781 0.959 . S
H3788 C3781 0.961 . S
H3789 C3781 0.960 . S
H3790 C3782 0.930 . S
H3791 C3783 0.929 . S
H3792 C3800 0.929 . S
H3793 C3802 0.930 . S
H3794 C3804 0.930 . S
H3795 C3807 0.929 . S
H3796 C3810 0.930 . S
H3797 C3812 0.960 . S
H3798 C3812 0.960 . S
H3799 C3812 0.960 . S
C3800 H3792 0.929 . S
C3800 C3801 1.377 . S
C3800 C3802 1.384 . S
C3801 C3800 1.377 . S
C3801 C3807 1.390 . S
C3802 H3793 0.930 . S
C3802 C3800 1.384 . S
C3802 C3803 1.372 . S
C3803 C3802 1.372 . S
C3803 C3804 1.400 . S
C3803 C3808 1.490 . S
C3804 H3794 0.930 . S
C3804 C3803 1.400 . S
C3804 C3807 1.386 . S
H3805 C3821 0.930 . S
H3806 C3822 0.931 . S
C3807 H3795 0.929 . S
C3807 C3801 1.390 . S
C3807 C3804 1.386 . S
C3808 C3803 1.490 . S
C3808 C3810 1.395 . S
C3808 C3811 1.403 . S
H3809 C3815 0.930 . S
C3810 H3796 0.930 . S
C3810 C3808 1.395 . S
C3810 C3813 1.403 . S
C3811 C3808 1.403 . S
C3811 C3812 1.524 . S
C3811 C3815 1.400 . S
C3812 H3797 0.960 . S
C3812 H3798 0.960 . S
C3812 H3799 0.960 . S
C3812 C3811 1.524 . S
C3813 C3810 1.403 . S
C3813 C3814 1.392 . S
C3813 C3817 1.495 . S
C3814 C3813 1.392 . S
C3814 C3815 1.385 . S
C3814 C3816 1.478 . S
C3815 H3809 0.930 . S
C3815 C3811 1.400 . S
C3815 C3814 1.385 . S
C3816 C3814 1.478 . S
C3816 C3818 1.381 . S
C3816 C3822 1.383 . S
C3817 C3813 1.495 . S
C3817 H3823 0.959 . S
C3817 H3824 0.961 . S
C3817 H3825 0.960 . S
C3818 C3816 1.381 . S
C3818 C3819 1.394 . S
C3818 H3826 0.930 . S
C3819 C3818 1.394 . S
C3819 C3820 1.383 . S
C3819 H3827 0.929 . S
C3820 C3819 1.383 . S
C3820 C3821 1.377 . S
C3821 H3805 0.930 . S
C3821 C3820 1.377 . S
C3821 C3822 1.379 . S
C3822 H3806 0.931 . S
C3822 C3816 1.383 . S
C3822 C3821 1.379 . S
H3823 C3817 0.959 . S
H3824 C3817 0.961 . S
H3825 C3817 0.960 . S
H3826 C3818 0.930 . S
H3827 C3819 0.929 . S
H3828 C3836 0.929 . S
H3829 C3838 0.930 . S
H3830 C3840 0.930 . S
H3831 C3843 0.929 . S
H3832 C3846 0.930 . S
H3833 C3848 0.960 . S
H3834 C3848 0.960 . S
H3835 C3848 0.960 . S
C3836 H3828 0.929 . S
C3836 C3837 1.377 . S
C3836 C3838 1.384 . S
C3837 C3836 1.377 . S
C3837 C3843 1.390 . S
C3838 H3829 0.930 . S
C3838 C3836 1.384 . S
C3838 C3839 1.372 . S
C3839 C3838 1.372 . S
C3839 C3840 1.400 . S
C3839 C3844 1.490 . S
C3840 H3830 0.930 . S
C3840 C3839 1.400 . S
C3840 C3843 1.386 . S
H3841 C3857 0.930 . S
H3842 C3858 0.931 . S
C3843 H3831 0.929 . S
C3843 C3837 1.390 . S
C3843 C3840 1.386 . S
C3844 C3839 1.490 . S
C3844 C3846 1.395 . S
C3844 C3847 1.403 . S
H3845 C3851 0.930 . S
C3846 H3832 0.930 . S
C3846 C3844 1.395 . S
C3846 C3849 1.403 . S
C3847 C3844 1.403 . S
C3847 C3848 1.524 . S
C3847 C3851 1.400 . S
C3848 H3833 0.960 . S
C3848 H3834 0.960 . S
C3848 H3835 0.960 . S
C3848 C3847 1.524 . S
C3849 C3846 1.403 . S
C3849 C3850 1.392 . S
C3849 C3853 1.495 . S
C3850 C3849 1.392 . S
C3850 C3851 1.385 . S
C3850 C3852 1.478 . S
C3851 H3845 0.930 . S
C3851 C3847 1.400 . S
C3851 C3850 1.385 . S
C3852 C3850 1.478 . S
C3852 C3854 1.381 . S
C3852 C3858 1.383 . S
C3853 C3849 1.495 . S
C3853 H3859 0.959 . S
C3853 H3860 0.961 . S
C3853 H3861 0.960 . S
C3854 C3852 1.381 . S
C3854 C3855 1.394 . S
C3854 H3862 0.930 . S
C3855 C3854 1.394 . S
C3855 C3856 1.383 . S
C3855 H3863 0.929 . S
C3856 C3855 1.383 . S
C3856 C3857 1.377 . S
C3857 H3841 0.930 . S
C3857 C3856 1.377 . S
C3857 C3858 1.379 . S
C3858 H3842 0.931 . S
C3858 C3852 1.383 . S
C3858 C3857 1.379 . S
H3859 C3853 0.959 . S
H3860 C3853 0.961 . S
H3861 C3853 0.960 . S
H3862 C3854 0.930 . S
H3863 C3855 0.929 . S
H3864 C3872 0.929 . S
H3865 C3874 0.930 . S
H3866 C3876 0.930 . S
H3867 C3879 0.929 . S
H3868 C3882 0.930 . S
H3869 C3884 0.960 . S
H3870 C3884 0.960 . S
H3871 C3884 0.960 . S
C3872 H3864 0.929 . S
C3872 C3873 1.377 . S
C3872 C3874 1.384 . S
C3873 C3872 1.377 . S
C3873 C3879 1.390 . S
C3874 H3865 0.930 . S
C3874 C3872 1.384 . S
C3874 C3875 1.372 . S
C3875 C3874 1.372 . S
C3875 C3876 1.400 . S
C3875 C3880 1.490 . S
C3876 H3866 0.930 . S
C3876 C3875 1.400 . S
C3876 C3879 1.386 . S
H3877 C3893 0.930 . S
H3878 C3894 0.931 . S
C3879 H3867 0.929 . S
C3879 C3873 1.390 . S
C3879 C3876 1.386 . S
C3880 C3875 1.490 . S
C3880 C3882 1.395 . S
C3880 C3883 1.403 . S
H3881 C3887 0.930 . S
C3882 H3868 0.930 . S
C3882 C3880 1.395 . S
C3882 C3885 1.403 . S
C3883 C3880 1.403 . S
C3883 C3884 1.524 . S
C3883 C3887 1.400 . S
C3884 H3869 0.960 . S
C3884 H3870 0.960 . S
C3884 H3871 0.960 . S
C3884 C3883 1.524 . S
C3885 C3882 1.403 . S
C3885 C3886 1.392 . S
C3885 C3889 1.495 . S
C3886 C3885 1.392 . S
C3886 C3887 1.385 . S
C3886 C3888 1.478 . S
C3887 H3881 0.930 . S
C3887 C3883 1.400 . S
C3887 C3886 1.385 . S
C3888 C3886 1.478 . S
C3888 C3890 1.381 . S
C3888 C3894 1.383 . S
C3889 C3885 1.495 . S
C3889 H3895 0.959 . S
C3889 H3896 0.961 . S
C3889 H3897 0.960 . S
C3890 C3888 1.381 . S
C3890 C3891 1.394 . S
C3890 H3898 0.930 . S
C3891 C3890 1.394 . S
C3891 C3892 1.383 . S
C3891 H3899 0.929 . S
C3892 C3891 1.383 . S
C3892 C3893 1.377 . S
C3893 H3877 0.930 . S
C3893 C3892 1.377 . S
C3893 C3894 1.379 . S
C3894 H3878 0.931 . S
C3894 C3888 1.383 . S
C3894 C3893 1.379 . S
H3895 C3889 0.959 . S
H3896 C3889 0.961 . S
H3897 C3889 0.960 . S
H3898 C3890 0.930 . S
H3899 C3891 0.929 . S
H3900 C3908 0.929 . S
H3901 C3910 0.930 . S
H3902 C3912 0.930 . S
H3903 C3915 0.929 . S
H3904 C3918 0.930 . S
H3905 C3920 0.960 . S
H3906 C3920 0.960 . S
H3907 C3920 0.960 . S
C3908 H3900 0.929 . S
C3908 C3909 1.377 . S
C3908 C3910 1.384 . S
C3909 C3908 1.377 . S
C3909 C3915 1.390 . S
C3910 H3901 0.930 . S
C3910 C3908 1.384 . S
C3910 C3911 1.372 . S
C3911 C3910 1.372 . S
C3911 C3912 1.400 . S
C3911 C3916 1.490 . S
C3912 H3902 0.930 . S
C3912 C3911 1.400 . S
C3912 C3915 1.386 . S
H3913 C3929 0.930 . S
H3914 C3930 0.931 . S
C3915 H3903 0.929 . S
C3915 C3909 1.390 . S
C3915 C3912 1.386 . S
C3916 C3911 1.490 . S
C3916 C3918 1.395 . S
C3916 C3919 1.403 . S
H3917 C3923 0.930 . S
C3918 H3904 0.930 . S
C3918 C3916 1.395 . S
C3918 C3921 1.403 . S
C3919 C3916 1.403 . S
C3919 C3920 1.524 . S
C3919 C3923 1.400 . S
C3920 H3905 0.960 . S
C3920 H3906 0.960 . S
C3920 H3907 0.960 . S
C3920 C3919 1.524 . S
C3921 C3918 1.403 . S
C3921 C3922 1.392 . S
C3921 C3925 1.495 . S
C3922 C3921 1.392 . S
C3922 C3923 1.385 . S
C3922 C3924 1.478 . S
C3923 H3917 0.930 . S
C3923 C3919 1.400 . S
C3923 C3922 1.385 . S
C3924 C3922 1.478 . S
C3924 C3926 1.381 . S
C3924 C3930 1.383 . S
C3925 C3921 1.495 . S
C3925 H3931 0.959 . S
C3925 H3932 0.961 . S
C3925 H3933 0.960 . S
C3926 C3924 1.381 . S
C3926 C3927 1.394 . S
C3926 H3934 0.930 . S
C3927 C3926 1.394 . S
C3927 C3928 1.383 . S
C3927 H3935 0.929 . S
C3928 C3927 1.383 . S
C3928 C3929 1.377 . S
C3929 H3913 0.930 . S
C3929 C3928 1.377 . S
C3929 C3930 1.379 . S
C3930 H3914 0.931 . S
C3930 C3924 1.383 . S
C3930 C3929 1.379 . S
H3931 C3925 0.959 . S
H3932 C3925 0.961 . S
H3933 C3925 0.960 . S
H3934 C3926 0.930 . S
H3935 C3927 0.929 . S
H3936 C3944 0.929 . S
H3937 C3946 0.930 . S
H3938 C3948 0.930 . S
H3939 C3951 0.929 . S
H3940 C3954 0.930 . S
H3941 C3956 0.960 . S
H3942 C3956 0.960 . S
H3943 C3956 0.960 . S
C3944 H3936 0.929 . S
C3944 C3945 1.377 . S
C3944 C3946 1.384 . S
C3945 C3944 1.377 . S
C3945 C3951 1.390 . S
C3946 H3937 0.930 . S
C3946 C3944 1.384 . S
C3946 C3947 1.372 . S
C3947 C3946 1.372 . S
C3947 C3948 1.400 . S
C3947 C3952 1.490 . S
C3948 H3938 0.930 . S
C3948 C3947 1.400 . S
C3948 C3951 1.386 . S
H3949 C3965 0.930 . S
H3950 C3966 0.931 . S
C3951 H3939 0.929 . S
C3951 C3945 1.390 . S
C3951 C3948 1.386 . S
C3952 C3947 1.490 . S
C3952 C3954 1.395 . S
C3952 C3955 1.403 . S
H3953 C3959 0.930 . S
C3954 H3940 0.930 . S
C3954 C3952 1.395 . S
C3954 C3957 1.403 . S
C3955 C3952 1.403 . S
C3955 C3956 1.524 . S
C3955 C3959 1.400 . S
C3956 H3941 0.960 . S
C3956 H3942 0.960 . S
C3956 H3943 0.960 . S
C3956 C3955 1.524 . S
C3957 C3954 1.403 . S
C3957 C3958 1.392 . S
C3957 C3961 1.495 . S
C3958 C3957 1.392 . S
C3958 C3959 1.385 . S
C3958 C3960 1.478 . S
C3959 H3953 0.930 . S
C3959 C3955 1.400 . S
C3959 C3958 1.385 . S
C3960 C3958 1.478 . S
C3960 C3962 1.381 . S
C3960 C3966 1.383 . S
C3961 C3957 1.495 . S
C3961 H3967 0.959 . S
C3961 H3968 0.961 . S
C3961 H3969 0.960 . S
C3962 C3960 1.381 . S
C3962 C3963 1.394 . S
C3962 H3970 0.930 . S
C3963 C3962 1.394 . S
C3963 C3964 1.383 . S
C3963 H3971 0.929 . S
C3964 C3963 1.383 . S
C3964 C3965 1.377 . S
C3965 H3949 0.930 . S
C3965 C3964 1.377 . S
C3965 C3966 1.379 . S
C3966 H3950 0.931 . S
C3966 C3960 1.383 . S
C3966 C3965 1.379 . S
H3967 C3961 0.959 . S
H3968 C3961 0.961 . S
H3969 C3961 0.960 . S
H3970 C3962 0.930 . S
H3971 C3963 0.929 . S
H3972 C3980 0.929 . S
H3973 C3982 0.930 . S
H3974 C3984 0.930 . S
H3975 C3987 0.929 . S
H3976 C3990 0.930 . S
H3977 C3992 0.960 . S
H3978 C3992 0.960 . S
H3979 C3992 0.960 . S
C3980 H3972 0.929 . S
C3980 C3981 1.377 . S
C3980 C3982 1.384 . S
C3981 C3980 1.377 . S
C3981 C3987 1.390 . S
C3982 H3973 0.930 . S
C3982 C3980 1.384 . S
C3982 C3983 1.372 . S
C3983 C3982 1.372 . S
C3983 C3984 1.400 . S
C3983 C3988 1.490 . S
C3984 H3974 0.930 . S
C3984 C3983 1.400 . S
C3984 C3987 1.386 . S
H3985 C4001 0.930 . S
H3986 C4002 0.931 . S
C3987 H3975 0.929 . S
C3987 C3981 1.390 . S
C3987 C3984 1.386 . S
C3988 C3983 1.490 . S
C3988 C3990 1.395 . S
C3988 C3991 1.403 . S
H3989 C3995 0.930 . S
C3990 H3976 0.930 . S
C3990 C3988 1.395 . S
C3990 C3993 1.403 . S
C3991 C3988 1.403 . S
C3991 C3992 1.524 . S
C3991 C3995 1.400 . S
C3992 H3977 0.960 . S
C3992 H3978 0.960 . S
C3992 H3979 0.960 . S
C3992 C3991 1.524 . S
C3993 C3990 1.403 . S
C3993 C3994 1.392 . S
C3993 C3997 1.495 . S
C3994 C3993 1.392 . S
C3994 C3995 1.385 . S
C3994 C3996 1.478 . S
C3995 H3989 0.930 . S
C3995 C3991 1.400 . S
C3995 C3994 1.385 . S
C3996 C3994 1.478 . S
C3996 C3998 1.381 . S
C3996 C4002 1.383 . S
C3997 C3993 1.495 . S
C3997 H4003 0.959 . S
C3997 H4004 0.961 . S
C3997 H4005 0.960 . S
C3998 C3996 1.381 . S
C3998 C3999 1.394 . S
C3998 H4006 0.930 . S
C3999 C3998 1.394 . S
C3999 C4000 1.383 . S
C3999 H4007 0.929 . S
C4000 C3999 1.383 . S
C4000 C4001 1.377 . S
C4001 H3985 0.930 . S
C4001 C4000 1.377 . S
C4001 C4002 1.379 . S
C4002 H3986 0.931 . S
C4002 C3996 1.383 . S
C4002 C4001 1.379 . S
H4003 C3997 0.959 . S
H4004 C3997 0.961 . S
H4005 C3997 0.960 . S
H4006 C3998 0.930 . S
H4007 C3999 0.929 . S
H4008 C4016 0.929 . S
H4009 C4018 0.930 . S
H4010 C4020 0.930 . S
H4011 C4023 0.929 . S
H4012 C4026 0.930 . S
H4013 C4028 0.960 . S
H4014 C4028 0.960 . S
H4015 C4028 0.960 . S
C4016 H4008 0.929 . S
C4016 C4017 1.377 . S
C4016 C4018 1.384 . S
C4017 C4016 1.377 . S
C4017 C4023 1.390 . S
C4018 H4009 0.930 . S
C4018 C4016 1.384 . S
C4018 C4019 1.372 . S
C4019 C4018 1.372 . S
C4019 C4020 1.400 . S
C4019 C4024 1.490 . S
C4020 H4010 0.930 . S
C4020 C4019 1.400 . S
C4020 C4023 1.386 . S
H4021 C4037 0.930 . S
H4022 C4038 0.931 . S
C4023 H4011 0.929 . S
C4023 C4017 1.390 . S
C4023 C4020 1.386 . S
C4024 C4019 1.490 . S
C4024 C4026 1.395 . S
C4024 C4027 1.403 . S
H4025 C4031 0.930 . S
C4026 H4012 0.930 . S
C4026 C4024 1.395 . S
C4026 C4029 1.403 . S
C4027 C4024 1.403 . S
C4027 C4028 1.524 . S
C4027 C4031 1.400 . S
C4028 H4013 0.960 . S
C4028 H4014 0.960 . S
C4028 H4015 0.960 . S
C4028 C4027 1.524 . S
C4029 C4026 1.403 . S
C4029 C4030 1.392 . S
C4029 C4033 1.495 . S
C4030 C4029 1.392 . S
C4030 C4031 1.385 . S
C4030 C4032 1.478 . S
C4031 H4025 0.930 . S
C4031 C4027 1.400 . S
C4031 C4030 1.385 . S
C4032 C4030 1.478 . S
C4032 C4034 1.381 . S
C4032 C4038 1.383 . S
C4033 C4029 1.495 . S
C4033 H4039 0.959 . S
C4033 H4040 0.961 . S
C4033 H4041 0.960 . S
C4034 C4032 1.381 . S
C4034 C4035 1.394 . S
C4034 H4042 0.930 . S
C4035 C4034 1.394 . S
C4035 C4036 1.383 . S
C4035 H4043 0.929 . S
C4036 C4035 1.383 . S
C4036 C4037 1.377 . S
C4037 H4021 0.930 . S
C4037 C4036 1.377 . S
C4037 C4038 1.379 . S
C4038 H4022 0.931 . S
C4038 C4032 1.383 . S
C4038 C4037 1.379 . S
H4039 C4033 0.959 . S
H4040 C4033 0.961 . S
H4041 C4033 0.960 . S
H4042 C4034 0.930 . S
H4043 C4035 0.929 . S
H4044 C4052 0.929 . S
H4045 C4054 0.930 . S
H4046 C4056 0.930 . S
H4047 C4059 0.929 . S
H4048 C4062 0.930 . S
H4049 C4064 0.960 . S
H4050 C4064 0.960 . S
H4051 C4064 0.960 . S
C4052 H4044 0.929 . S
C4052 C4053 1.377 . S
C4052 C4054 1.384 . S
C4053 C4052 1.377 . S
C4053 C4059 1.390 . S
C4054 H4045 0.930 . S
C4054 C4052 1.384 . S
C4054 C4055 1.372 . S
C4055 C4054 1.372 . S
C4055 C4056 1.400 . S
C4055 C4060 1.490 . S
C4056 H4046 0.930 . S
C4056 C4055 1.400 . S
C4056 C4059 1.386 . S
H4057 C4073 0.930 . S
H4058 C4074 0.931 . S
C4059 H4047 0.929 . S
C4059 C4053 1.390 . S
C4059 C4056 1.386 . S
C4060 C4055 1.490 . S
C4060 C4062 1.395 . S
C4060 C4063 1.403 . S
H4061 C4067 0.930 . S
C4062 H4048 0.930 . S
C4062 C4060 1.395 . S
C4062 C4065 1.403 . S
C4063 C4060 1.403 . S
C4063 C4064 1.524 . S
C4063 C4067 1.400 . S
C4064 H4049 0.960 . S
C4064 H4050 0.960 . S
C4064 H4051 0.960 . S
C4064 C4063 1.524 . S
C4065 C4062 1.403 . S
C4065 C4066 1.392 . S
C4065 C4069 1.495 . S
C4066 C4065 1.392 . S
C4066 C4067 1.385 . S
C4066 C4068 1.478 . S
C4067 H4061 0.930 . S
C4067 C4063 1.400 . S
C4067 C4066 1.385 . S
C4068 C4066 1.478 . S
C4068 C4070 1.381 . S
C4068 C4074 1.383 . S
C4069 C4065 1.495 . S
C4069 H4075 0.959 . S
C4069 H4076 0.961 . S
C4069 H4077 0.960 . S
C4070 C4068 1.381 . S
C4070 C4071 1.394 . S
C4070 H4078 0.930 . S
C4071 C4070 1.394 . S
C4071 C4072 1.383 . S
C4071 H4079 0.929 . S
C4072 C4071 1.383 . S
C4072 C4073 1.377 . S
C4073 H4057 0.930 . S
C4073 C4072 1.377 . S
C4073 C4074 1.379 . S
C4074 H4058 0.931 . S
C4074 C4068 1.383 . S
C4074 C4073 1.379 . S
H4075 C4069 0.959 . S
H4076 C4069 0.961 . S
H4077 C4069 0.960 . S
H4078 C4070 0.930 . S
H4079 C4071 0.929 . S
H4080 C4088 0.929 . S
H4081 C4090 0.930 . S
H4082 C4092 0.930 . S
H4083 C4095 0.929 . S
H4084 C4098 0.930 . S
H4085 C4100 0.960 . S
H4086 C4100 0.960 . S
H4087 C4100 0.960 . S
C4088 H4080 0.929 . S
C4088 C4089 1.377 . S
C4088 C4090 1.384 . S
C4089 C4088 1.377 . S
C4089 C4095 1.390 . S
C4090 H4081 0.930 . S
C4090 C4088 1.384 . S
C4090 C4091 1.372 . S
C4091 C4090 1.372 . S
C4091 C4092 1.400 . S
C4091 C4096 1.490 . S
C4092 H4082 0.930 . S
C4092 C4091 1.400 . S
C4092 C4095 1.386 . S
H4093 C4109 0.930 . S
H4094 C4110 0.931 . S
C4095 H4083 0.929 . S
C4095 C4089 1.390 . S
C4095 C4092 1.386 . S
C4096 C4091 1.490 . S
C4096 C4098 1.395 . S
C4096 C4099 1.403 . S
H4097 C4103 0.930 . S
C4098 H4084 0.930 . S
C4098 C4096 1.395 . S
C4098 C4101 1.403 . S
C4099 C4096 1.403 . S
C4099 C4100 1.524 . S
C4099 C4103 1.400 . S
C4100 H4085 0.960 . S
C4100 H4086 0.960 . S
C4100 H4087 0.960 . S
C4100 C4099 1.524 . S
C4101 C4098 1.403 . S
C4101 C4102 1.392 . S
C4101 C4105 1.495 . S
C4102 C4101 1.392 . S
C4102 C4103 1.385 . S
C4102 C4104 1.478 . S
C4103 H4097 0.930 . S
C4103 C4099 1.400 . S
C4103 C4102 1.385 . S
C4104 C4102 1.478 . S
C4104 C4106 1.381 . S
C4104 C4110 1.383 . S
C4105 C4101 1.495 . S
C4105 H4111 0.959 . S
C4105 H4112 0.961 . S
C4105 H4113 0.960 . S
C4106 C4104 1.381 . S
C4106 C4107 1.394 . S
C4106 H4114 0.930 . S
C4107 C4106 1.394 . S
C4107 C4108 1.383 . S
C4107 H4115 0.929 . S
C4108 C4107 1.383 . S
C4108 C4109 1.377 . S
C4109 H4093 0.930 . S
C4109 C4108 1.377 . S
C4109 C4110 1.379 . S
C4110 H4094 0.931 . S
C4110 C4104 1.383 . S
C4110 C4109 1.379 . S
H4111 C4105 0.959 . S
H4112 C4105 0.961 . S
H4113 C4105 0.960 . S
H4114 C4106 0.930 . S
H4115 C4107 0.929 . S
H4116 C4124 0.929 . S
H4117 C4126 0.930 . S
H4118 C4128 0.930 . S
H4119 C4131 0.929 . S
H4120 C4134 0.930 . S
H4121 C4136 0.960 . S
H4122 C4136 0.960 . S
H4123 C4136 0.960 . S
C4124 H4116 0.929 . S
C4124 C4125 1.377 . S
C4124 C4126 1.384 . S
C4125 C4124 1.377 . S
C4125 C4131 1.390 . S
C4126 H4117 0.930 . S
C4126 C4124 1.384 . S
C4126 C4127 1.372 . S
C4127 C4126 1.372 . S
C4127 C4128 1.400 . S
C4127 C4132 1.490 . S
C4128 H4118 0.930 . S
C4128 C4127 1.400 . S
C4128 C4131 1.386 . S
H4129 C4145 0.930 . S
H4130 C4146 0.931 . S
C4131 H4119 0.929 . S
C4131 C4125 1.390 . S
C4131 C4128 1.386 . S
C4132 C4127 1.490 . S
C4132 C4134 1.395 . S
C4132 C4135 1.403 . S
H4133 C4139 0.930 . S
C4134 H4120 0.930 . S
C4134 C4132 1.395 . S
C4134 C4137 1.403 . S
C4135 C4132 1.403 . S
C4135 C4136 1.524 . S
C4135 C4139 1.400 . S
C4136 H4121 0.960 . S
C4136 H4122 0.960 . S
C4136 H4123 0.960 . S
C4136 C4135 1.524 . S
C4137 C4134 1.403 . S
C4137 C4138 1.392 . S
C4137 C4141 1.495 . S
C4138 C4137 1.392 . S
C4138 C4139 1.385 . S
C4138 C4140 1.478 . S
C4139 H4133 0.930 . S
C4139 C4135 1.400 . S
C4139 C4138 1.385 . S
C4140 C4138 1.478 . S
C4140 C4142 1.381 . S
C4140 C4146 1.383 . S
C4141 C4137 1.495 . S
C4141 H4147 0.959 . S
C4141 H4148 0.961 . S
C4141 H4149 0.960 . S
C4142 C4140 1.381 . S
C4142 C4143 1.394 . S
C4142 H4150 0.930 . S
C4143 C4142 1.394 . S
C4143 C4144 1.383 . S
C4143 H4151 0.929 . S
C4144 C4143 1.383 . S
C4144 C4145 1.377 . S
C4145 H4129 0.930 . S
C4145 C4144 1.377 . S
C4145 C4146 1.379 . S
C4146 H4130 0.931 . S
C4146 C4140 1.383 . S
C4146 C4145 1.379 . S
H4147 C4141 0.959 . S
H4148 C4141 0.961 . S
H4149 C4141 0.960 . S
H4150 C4142 0.930 . S
H4151 C4143 0.929 . S
H4152 C4160 0.929 . S
H4153 C4162 0.930 . S
H4154 C4164 0.930 . S
H4155 C4167 0.929 . S
H4156 C4170 0.930 . S
H4157 C4172 0.960 . S
H4158 C4172 0.960 . S
H4159 C4172 0.960 . S
C4160 H4152 0.929 . S
C4160 C4161 1.377 . S
C4160 C4162 1.384 . S
C4161 C4160 1.377 . S
C4161 C4167 1.390 . S
C4162 H4153 0.930 . S
C4162 C4160 1.384 . S
C4162 C4163 1.372 . S
C4163 C4162 1.372 . S
C4163 C4164 1.400 . S
C4163 C4168 1.490 . S
C4164 H4154 0.930 . S
C4164 C4163 1.400 . S
C4164 C4167 1.386 . S
H4165 C4181 0.930 . S
H4166 C4182 0.931 . S
C4167 H4155 0.929 . S
C4167 C4161 1.390 . S
C4167 C4164 1.386 . S
C4168 C4163 1.490 . S
C4168 C4170 1.395 . S
C4168 C4171 1.403 . S
H4169 C4175 0.930 . S
C4170 H4156 0.930 . S
C4170 C4168 1.395 . S
C4170 C4173 1.403 . S
C4171 C4168 1.403 . S
C4171 C4172 1.524 . S
C4171 C4175 1.400 . S
C4172 H4157 0.960 . S
C4172 H4158 0.960 . S
C4172 H4159 0.960 . S
C4172 C4171 1.524 . S
C4173 C4170 1.403 . S
C4173 C4174 1.392 . S
C4173 C4177 1.495 . S
C4174 C4173 1.392 . S
C4174 C4175 1.385 . S
C4174 C4176 1.478 . S
C4175 H4169 0.930 . S
C4175 C4171 1.400 . S
C4175 C4174 1.385 . S
C4176 C4174 1.478 . S
C4176 C4178 1.381 . S
C4176 C4182 1.383 . S
C4177 C4173 1.495 . S
C4177 H4183 0.959 . S
C4177 H4184 0.961 . S
C4177 H4185 0.960 . S
C4178 C4176 1.381 . S
C4178 C4179 1.394 . S
C4178 H4186 0.930 . S
C4179 C4178 1.394 . S
C4179 C4180 1.383 . S
C4179 H4187 0.929 . S
C4180 C4179 1.383 . S
C4180 C4181 1.377 . S
C4181 H4165 0.930 . S
C4181 C4180 1.377 . S
C4181 C4182 1.379 . S
C4182 H4166 0.931 . S
C4182 C4176 1.383 . S
C4182 C4181 1.379 . S
H4183 C4177 0.959 . S
H4184 C4177 0.961 . S
H4185 C4177 0.960 . S
H4186 C4178 0.930 . S
H4187 C4179 0.929 . S
H4188 C4196 0.929 . S
H4189 C4198 0.930 . S
H4190 C4200 0.930 . S
H4191 C4203 0.929 . S
H4192 C4206 0.930 . S
H4193 C4208 0.960 . S
H4194 C4208 0.960 . S
H4195 C4208 0.960 . S
C4196 H4188 0.929 . S
C4196 C4197 1.377 . S
C4196 C4198 1.384 . S
C4197 C4196 1.377 . S
C4197 C4203 1.390 . S
C4198 H4189 0.930 . S
C4198 C4196 1.384 . S
C4198 C4199 1.372 . S
C4199 C4198 1.372 . S
C4199 C4200 1.400 . S
C4199 C4204 1.490 . S
C4200 H4190 0.930 . S
C4200 C4199 1.400 . S
C4200 C4203 1.386 . S
H4201 C4217 0.930 . S
H4202 C4218 0.931 . S
C4203 H4191 0.929 . S
C4203 C4197 1.390 . S
C4203 C4200 1.386 . S
C4204 C4199 1.490 . S
C4204 C4206 1.395 . S
C4204 C4207 1.403 . S
H4205 C4211 0.930 . S
C4206 H4192 0.930 . S
C4206 C4204 1.395 . S
C4206 C4209 1.403 . S
C4207 C4204 1.403 . S
C4207 C4208 1.524 . S
C4207 C4211 1.400 . S
C4208 H4193 0.960 . S
C4208 H4194 0.960 . S
C4208 H4195 0.960 . S
C4208 C4207 1.524 . S
C4209 C4206 1.403 . S
C4209 C4210 1.392 . S
C4209 C4213 1.495 . S
C4210 C4209 1.392 . S
C4210 C4211 1.385 . S
C4210 C4212 1.478 . S
C4211 H4205 0.930 . S
C4211 C4207 1.400 . S
C4211 C4210 1.385 . S
C4212 C4210 1.478 . S
C4212 C4214 1.381 . S
C4212 C4218 1.383 . S
C4213 C4209 1.495 . S
C4213 H4219 0.959 . S
C4213 H4220 0.961 . S
C4213 H4221 0.960 . S
C4214 C4212 1.381 . S
C4214 C4215 1.394 . S
C4214 H4222 0.930 . S
C4215 C4214 1.394 . S
C4215 C4216 1.383 . S
C4215 H4223 0.929 . S
C4216 C4215 1.383 . S
C4216 C4217 1.377 . S
C4217 H4201 0.930 . S
C4217 C4216 1.377 . S
C4217 C4218 1.379 . S
C4218 H4202 0.931 . S
C4218 C4212 1.383 . S
C4218 C4217 1.379 . S
H4219 C4213 0.959 . S
H4220 C4213 0.961 . S
H4221 C4213 0.960 . S
H4222 C4214 0.930 . S
H4223 C4215 0.929 . S
H4224 C4232 0.929 . S
H4225 C4234 0.930 . S
H4226 C4236 0.930 . S
H4227 C4239 0.929 . S
H4228 C4242 0.930 . S
H4229 C4244 0.960 . S
H4230 C4244 0.960 . S
H4231 C4244 0.960 . S
C4232 H4224 0.929 . S
C4232 C4233 1.377 . S
C4232 C4234 1.384 . S
C4233 C4232 1.377 . S
C4233 C4239 1.390 . S
C4234 H4225 0.930 . S
C4234 C4232 1.384 . S
C4234 C4235 1.372 . S
C4235 C4234 1.372 . S
C4235 C4236 1.400 . S
C4235 C4240 1.490 . S
C4236 H4226 0.930 . S
C4236 C4235 1.400 . S
C4236 C4239 1.386 . S
H4237 C4253 0.930 . S
H4238 C4254 0.931 . S
C4239 H4227 0.929 . S
C4239 C4233 1.390 . S
C4239 C4236 1.386 . S
C4240 C4235 1.490 . S
C4240 C4242 1.395 . S
C4240 C4243 1.403 . S
H4241 C4247 0.930 . S
C4242 H4228 0.930 . S
C4242 C4240 1.395 . S
C4242 C4245 1.403 . S
C4243 C4240 1.403 . S
C4243 C4244 1.524 . S
C4243 C4247 1.400 . S
C4244 H4229 0.960 . S
C4244 H4230 0.960 . S
C4244 H4231 0.960 . S
C4244 C4243 1.524 . S
C4245 C4242 1.403 . S
C4245 C4246 1.392 . S
C4245 C4249 1.495 . S
C4246 C4245 1.392 . S
C4246 C4247 1.385 . S
C4246 C4248 1.478 . S
C4247 H4241 0.930 . S
C4247 C4243 1.400 . S
C4247 C4246 1.385 . S
C4248 C4246 1.478 . S
C4248 C4250 1.381 . S
C4248 C4254 1.383 . S
C4249 C4245 1.495 . S
C4249 H4255 0.959 . S
C4249 H4256 0.961 . S
C4249 H4257 0.960 . S
C4250 C4248 1.381 . S
C4250 C4251 1.394 . S
C4250 H4258 0.930 . S
C4251 C4250 1.394 . S
C4251 C4252 1.383 . S
C4251 H4259 0.929 . S
C4252 C4251 1.383 . S
C4252 C4253 1.377 . S
C4253 H4237 0.930 . S
C4253 C4252 1.377 . S
C4253 C4254 1.379 . S
C4254 H4238 0.931 . S
C4254 C4248 1.383 . S
C4254 C4253 1.379 . S
H4255 C4249 0.959 . S
H4256 C4249 0.961 . S
H4257 C4249 0.960 . S
H4258 C4250 0.930 . S
H4259 C4251 0.929 . S
H4260 C4268 0.929 . S
H4261 C4270 0.930 . S
H4262 C4272 0.930 . S
H4263 C4275 0.929 . S
H4264 C4278 0.930 . S
H4265 C4280 0.960 . S
H4266 C4280 0.960 . S
H4267 C4280 0.960 . S
C4268 H4260 0.929 . S
C4268 C4269 1.377 . S
C4268 C4270 1.384 . S
C4269 C4268 1.377 . S
C4269 C4275 1.390 . S
C4270 H4261 0.930 . S
C4270 C4268 1.384 . S
C4270 C4271 1.372 . S
C4271 C4270 1.372 . S
C4271 C4272 1.400 . S
C4271 C4276 1.490 . S
C4272 H4262 0.930 . S
C4272 C4271 1.400 . S
C4272 C4275 1.386 . S
H4273 C4289 0.930 . S
H4274 C4290 0.931 . S
C4275 H4263 0.929 . S
C4275 C4269 1.390 . S
C4275 C4272 1.386 . S
C4276 C4271 1.490 . S
C4276 C4278 1.395 . S
C4276 C4279 1.403 . S
H4277 C4283 0.930 . S
C4278 H4264 0.930 . S
C4278 C4276 1.395 . S
C4278 C4281 1.403 . S
C4279 C4276 1.403 . S
C4279 C4280 1.524 . S
C4279 C4283 1.400 . S
C4280 H4265 0.960 . S
C4280 H4266 0.960 . S
C4280 H4267 0.960 . S
C4280 C4279 1.524 . S
C4281 C4278 1.403 . S
C4281 C4282 1.392 . S
C4281 C4285 1.495 . S
C4282 C4281 1.392 . S
C4282 C4283 1.385 . S
C4282 C4284 1.478 . S
C4283 H4277 0.930 . S
C4283 C4279 1.400 . S
C4283 C4282 1.385 . S
C4284 C4282 1.478 . S
C4284 C4286 1.381 . S
C4284 C4290 1.383 . S
C4285 C4281 1.495 . S
C4285 H4291 0.959 . S
C4285 H4292 0.961 . S
C4285 H4293 0.960 . S
C4286 C4284 1.381 . S
C4286 C4287 1.394 . S
C4286 H4294 0.930 . S
C4287 C4286 1.394 . S
C4287 C4288 1.383 . S
C4287 H4295 0.929 . S
C4288 C4287 1.383 . S
C4288 C4289 1.377 . S
C4289 H4273 0.930 . S
C4289 C4288 1.377 . S
C4289 C4290 1.379 . S
C4290 H4274 0.931 . S
C4290 C4284 1.383 . S
C4290 C4289 1.379 . S
H4291 C4285 0.959 . S
H4292 C4285 0.961 . S
H4293 C4285 0.960 . S
H4294 C4286 0.930 . S
H4295 C4287 0.929 . S
H4296 C4304 0.929 . S
H4297 C4306 0.930 . S
H4298 C4308 0.930 . S
H4299 C4311 0.929 . S
H4300 C4314 0.930 . S
H4301 C4316 0.960 . S
H4302 C4316 0.960 . S
H4303 C4316 0.960 . S
C4304 H4296 0.929 . S
C4304 C4305 1.377 . S
C4304 C4306 1.384 . S
C4305 C4304 1.377 . S
C4305 C4311 1.390 . S
C4306 H4297 0.930 . S
C4306 C4304 1.384 . S
C4306 C4307 1.372 . S
C4307 C4306 1.372 . S
C4307 C4308 1.400 . S
C4307 C4312 1.490 . S
C4308 H4298 0.930 . S
C4308 C4307 1.400 . S
C4308 C4311 1.386 . S
H4309 C4325 0.930 . S
H4310 C4326 0.931 . S
C4311 H4299 0.929 . S
C4311 C4305 1.390 . S
C4311 C4308 1.386 . S
C4312 C4307 1.490 . S
C4312 C4314 1.395 . S
C4312 C4315 1.403 . S
H4313 C4319 0.930 . S
C4314 H4300 0.930 . S
C4314 C4312 1.395 . S
C4314 C4317 1.403 . S
C4315 C4312 1.403 . S
C4315 C4316 1.524 . S
C4315 C4319 1.400 . S
C4316 H4301 0.960 . S
C4316 H4302 0.960 . S
C4316 H4303 0.960 . S
C4316 C4315 1.524 . S
C4317 C4314 1.403 . S
C4317 C4318 1.392 . S
C4317 C4321 1.495 . S
C4318 C4317 1.392 . S
C4318 C4319 1.385 . S
C4318 C4320 1.478 . S
C4319 H4313 0.930 . S
C4319 C4315 1.400 . S
C4319 C4318 1.385 . S
C4320 C4318 1.478 . S
C4320 C4322 1.381 . S
C4320 C4326 1.383 . S
C4321 C4317 1.495 . S
C4321 H4327 0.959 . S
C4321 H4328 0.961 . S
C4321 H4329 0.960 . S
C4322 C4320 1.381 . S
C4322 C4323 1.394 . S
C4322 H4330 0.930 . S
C4323 C4322 1.394 . S
C4323 C4324 1.383 . S
C4323 H4331 0.929 . S
C4324 C4323 1.383 . S
C4324 C4325 1.377 . S
C4325 H4309 0.930 . S
C4325 C4324 1.377 . S
C4325 C4326 1.379 . S
C4326 H4310 0.931 . S
C4326 C4320 1.383 . S
C4326 C4325 1.379 . S
H4327 C4321 0.959 . S
H4328 C4321 0.961 . S
H4329 C4321 0.960 . S
H4330 C4322 0.930 . S
H4331 C4323 0.929 . S
H4332 C4340 0.929 . S
H4333 C4342 0.930 . S
H4334 C4344 0.930 . S
H4335 C4347 0.929 . S
H4336 C4350 0.930 . S
H4337 C4352 0.960 . S
H4338 C4352 0.960 . S
H4339 C4352 0.960 . S
C4340 H4332 0.929 . S
C4340 C4341 1.377 . S
C4340 C4342 1.384 . S
C4341 C4340 1.377 . S
C4341 C4347 1.390 . S
C4342 H4333 0.930 . S
C4342 C4340 1.384 . S
C4342 C4343 1.372 . S
C4343 C4342 1.372 . S
C4343 C4344 1.400 . S
C4343 C4348 1.490 . S
C4344 H4334 0.930 . S
C4344 C4343 1.400 . S
C4344 C4347 1.386 . S
H4345 C4361 0.930 . S
H4346 C4362 0.931 . S
C4347 H4335 0.929 . S
C4347 C4341 1.390 . S
C4347 C4344 1.386 . S
C4348 C4343 1.490 . S
C4348 C4350 1.395 . S
C4348 C4351 1.403 . S
H4349 C4355 0.930 . S
C4350 H4336 0.930 . S
C4350 C4348 1.395 . S
C4350 C4353 1.403 . S
C4351 C4348 1.403 . S
C4351 C4352 1.524 . S
C4351 C4355 1.400 . S
C4352 H4337 0.960 . S
C4352 H4338 0.960 . S
C4352 H4339 0.960 . S
C4352 C4351 1.524 . S
C4353 C4350 1.403 . S
C4353 C4354 1.392 . S
C4353 C4357 1.495 . S
C4354 C4353 1.392 . S
C4354 C4355 1.385 . S
C4354 C4356 1.478 . S
C4355 H4349 0.930 . S
C4355 C4351 1.400 . S
C4355 C4354 1.385 . S
C4356 C4354 1.478 . S
C4356 C4358 1.381 . S
C4356 C4362 1.383 . S
C4357 C4353 1.495 . S
C4357 H4363 0.959 . S
C4357 H4364 0.961 . S
C4357 H4365 0.960 . S
C4358 C4356 1.381 . S
C4358 C4359 1.394 . S
C4358 H4366 0.930 . S
C4359 C4358 1.394 . S
C4359 C4360 1.383 . S
C4359 H4367 0.929 . S
C4360 C4359 1.383 . S
C4360 C4361 1.377 . S
C4361 H4345 0.930 . S
C4361 C4360 1.377 . S
C4361 C4362 1.379 . S
C4362 H4346 0.931 . S
C4362 C4356 1.383 . S
C4362 C4361 1.379 . S
H4363 C4357 0.959 . S
H4364 C4357 0.961 . S
H4365 C4357 0.960 . S
H4366 C4358 0.930 . S
H4367 C4359 0.929 . S
H4368 C4376 0.929 . S
H4369 C4378 0.930 . S
H4370 C4380 0.930 . S
H4371 C4383 0.929 . S
H4372 C4386 0.930 . S
H4373 C4388 0.960 . S
H4374 C4388 0.960 . S
H4375 C4388 0.960 . S
C4376 H4368 0.929 . S
C4376 C4377 1.377 . S
C4376 C4378 1.384 . S
C4377 C4376 1.377 . S
C4377 C4383 1.390 . S
C4378 H4369 0.930 . S
C4378 C4376 1.384 . S
C4378 C4379 1.372 . S
C4379 C4378 1.372 . S
C4379 C4380 1.400 . S
C4379 C4384 1.490 . S
C4380 H4370 0.930 . S
C4380 C4379 1.400 . S
C4380 C4383 1.386 . S
H4381 C4397 0.930 . S
H4382 C4398 0.931 . S
C4383 H4371 0.929 . S
C4383 C4377 1.390 . S
C4383 C4380 1.386 . S
C4384 C4379 1.490 . S
C4384 C4386 1.395 . S
C4384 C4387 1.403 . S
H4385 C4391 0.930 . S
C4386 H4372 0.930 . S
C4386 C4384 1.395 . S
C4386 C4389 1.403 . S
C4387 C4384 1.403 . S
C4387 C4388 1.524 . S
C4387 C4391 1.400 . S
C4388 H4373 0.960 . S
C4388 H4374 0.960 . S
C4388 H4375 0.960 . S
C4388 C4387 1.524 . S
C4389 C4386 1.403 . S
C4389 C4390 1.392 . S
C4389 C4393 1.495 . S
C4390 C4389 1.392 . S
C4390 C4391 1.385 . S
C4390 C4392 1.478 . S
C4391 H4385 0.930 . S
C4391 C4387 1.400 . S
C4391 C4390 1.385 . S
C4392 C4390 1.478 . S
C4392 C4394 1.381 . S
C4392 C4398 1.383 . S
C4393 C4389 1.495 . S
C4393 H4399 0.959 . S
C4393 H4400 0.961 . S
C4393 H4401 0.960 . S
C4394 C4392 1.381 . S
C4394 C4395 1.394 . S
C4394 H4402 0.930 . S
C4395 C4394 1.394 . S
C4395 C4396 1.383 . S
C4395 H4403 0.929 . S
C4396 C4395 1.383 . S
C4396 C4397 1.377 . S
C4397 H4381 0.930 . S
C4397 C4396 1.377 . S
C4397 C4398 1.379 . S
C4398 H4382 0.931 . S
C4398 C4392 1.383 . S
C4398 C4397 1.379 . S
H4399 C4393 0.959 . S
H4400 C4393 0.961 . S
H4401 C4393 0.960 . S
H4402 C4394 0.930 . S
H4403 C4395 0.929 . S
H4404 C4412 0.929 . S
H4405 C4414 0.930 . S
H4406 C4416 0.930 . S
H4407 C4419 0.929 . S
H4408 C4422 0.930 . S
H4409 C4424 0.960 . S
H4410 C4424 0.960 . S
H4411 C4424 0.960 . S
C4412 H4404 0.929 . S
C4412 C4413 1.377 . S
C4412 C4414 1.384 . S
C4413 C4412 1.377 . S
C4413 C4419 1.390 . S
C4414 H4405 0.930 . S
C4414 C4412 1.384 . S
C4414 C4415 1.372 . S
C4415 C4414 1.372 . S
C4415 C4416 1.400 . S
C4415 C4420 1.490 . S
C4416 H4406 0.930 . S
C4416 C4415 1.400 . S
C4416 C4419 1.386 . S
H4417 C4433 0.930 . S
H4418 C4434 0.931 . S
C4419 H4407 0.929 . S
C4419 C4413 1.390 . S
C4419 C4416 1.386 . S
C4420 C4415 1.490 . S
C4420 C4422 1.395 . S
C4420 C4423 1.403 . S
H4421 C4427 0.930 . S
C4422 H4408 0.930 . S
C4422 C4420 1.395 . S
C4422 C4425 1.403 . S
C4423 C4420 1.403 . S
C4423 C4424 1.524 . S
C4423 C4427 1.400 . S
C4424 H4409 0.960 . S
C4424 H4410 0.960 . S
C4424 H4411 0.960 . S
C4424 C4423 1.524 . S
C4425 C4422 1.403 . S
C4425 C4426 1.392 . S
C4425 C4429 1.495 . S
C4426 C4425 1.392 . S
C4426 C4427 1.385 . S
C4426 C4428 1.478 . S
C4427 H4421 0.930 . S
C4427 C4423 1.400 . S
C4427 C4426 1.385 . S
C4428 C4426 1.478 . S
C4428 C4430 1.381 . S
C4428 C4434 1.383 . S
C4429 C4425 1.495 . S
C4429 H4435 0.959 . S
C4429 H4436 0.961 . S
C4429 H4437 0.960 . S
C4430 C4428 1.381 . S
C4430 C4431 1.394 . S
C4430 H4438 0.930 . S
C4431 C4430 1.394 . S
C4431 C4432 1.383 . S
C4431 H4439 0.929 . S
C4432 C4431 1.383 . S
C4432 C4433 1.377 . S
C4433 H4417 0.930 . S
C4433 C4432 1.377 . S
C4433 C4434 1.379 . S
C4434 H4418 0.931 . S
C4434 C4428 1.383 . S
C4434 C4433 1.379 . S
H4435 C4429 0.959 . S
H4436 C4429 0.961 . S
H4437 C4429 0.960 . S
H4438 C4430 0.930 . S
H4439 C4431 0.929 . S
H4440 C4448 0.929 . S
H4441 C4450 0.930 . S
H4442 C4452 0.930 . S
H4443 C4455 0.929 . S
H4444 C4458 0.930 . S
H4445 C4460 0.960 . S
H4446 C4460 0.960 . S
H4447 C4460 0.960 . S
C4448 H4440 0.929 . S
C4448 C4449 1.377 . S
C4448 C4450 1.384 . S
C4449 C4448 1.377 . S
C4449 C4455 1.390 . S
C4450 H4441 0.930 . S
C4450 C4448 1.384 . S
C4450 C4451 1.372 . S
C4451 C4450 1.372 . S
C4451 C4452 1.400 . S
C4451 C4456 1.490 . S
C4452 H4442 0.930 . S
C4452 C4451 1.400 . S
C4452 C4455 1.386 . S
H4453 C4469 0.930 . S
H4454 C4470 0.931 . S
C4455 H4443 0.929 . S
C4455 C4449 1.390 . S
C4455 C4452 1.386 . S
C4456 C4451 1.490 . S
C4456 C4458 1.395 . S
C4456 C4459 1.403 . S
H4457 C4463 0.930 . S
C4458 H4444 0.930 . S
C4458 C4456 1.395 . S
C4458 C4461 1.403 . S
C4459 C4456 1.403 . S
C4459 C4460 1.524 . S
C4459 C4463 1.400 . S
C4460 H4445 0.960 . S
C4460 H4446 0.960 . S
C4460 H4447 0.960 . S
C4460 C4459 1.524 . S
C4461 C4458 1.403 . S
C4461 C4462 1.392 . S
C4461 C4465 1.495 . S
C4462 C4461 1.392 . S
C4462 C4463 1.385 . S
C4462 C4464 1.478 . S
C4463 H4457 0.930 . S
C4463 C4459 1.400 . S
C4463 C4462 1.385 . S
C4464 C4462 1.478 . S
C4464 C4466 1.381 . S
C4464 C4470 1.383 . S
C4465 C4461 1.495 . S
C4465 H4471 0.959 . S
C4465 H4472 0.961 . S
C4465 H4473 0.960 . S
C4466 C4464 1.381 . S
C4466 C4467 1.394 . S
C4466 H4474 0.930 . S
C4467 C4466 1.394 . S
C4467 C4468 1.383 . S
C4467 H4475 0.929 . S
C4468 C4467 1.383 . S
C4468 C4469 1.377 . S
C4469 H4453 0.930 . S
C4469 C4468 1.377 . S
C4469 C4470 1.379 . S
C4470 H4454 0.931 . S
C4470 C4464 1.383 . S
C4470 C4469 1.379 . S
H4471 C4465 0.959 . S
H4472 C4465 0.961 . S
H4473 C4465 0.960 . S
H4474 C4466 0.930 . S
H4475 C4467 0.929 . S
H4476 C4484 0.929 . S
H4477 C4486 0.930 . S
H4478 C4488 0.930 . S
H4479 C4491 0.929 . S
H4480 C4494 0.930 . S
H4481 C4496 0.960 . S
H4482 C4496 0.960 . S
H4483 C4496 0.960 . S
C4484 H4476 0.929 . S
C4484 C4485 1.377 . S
C4484 C4486 1.384 . S
C4485 C4484 1.377 . S
C4485 C4491 1.390 . S
C4486 H4477 0.930 . S
C4486 C4484 1.384 . S
C4486 C4487 1.372 . S
C4487 C4486 1.372 . S
C4487 C4488 1.400 . S
C4487 C4492 1.490 . S
C4488 H4478 0.930 . S
C4488 C4487 1.400 . S
C4488 C4491 1.386 . S
H4489 C4505 0.930 . S
H4490 C4506 0.931 . S
C4491 H4479 0.929 . S
C4491 C4485 1.390 . S
C4491 C4488 1.386 . S
C4492 C4487 1.490 . S
C4492 C4494 1.395 . S
C4492 C4495 1.403 . S
H4493 C4499 0.930 . S
C4494 H4480 0.930 . S
C4494 C4492 1.395 . S
C4494 C4497 1.403 . S
C4495 C4492 1.403 . S
C4495 C4496 1.524 . S
C4495 C4499 1.400 . S
C4496 H4481 0.960 . S
C4496 H4482 0.960 . S
C4496 H4483 0.960 . S
C4496 C4495 1.524 . S
C4497 C4494 1.403 . S
C4497 C4498 1.392 . S
C4497 C4501 1.495 . S
C4498 C4497 1.392 . S
C4498 C4499 1.385 . S
C4498 C4500 1.478 . S
C4499 H4493 0.930 . S
C4499 C4495 1.400 . S
C4499 C4498 1.385 . S
C4500 C4498 1.478 . S
C4500 C4502 1.381 . S
C4500 C4506 1.383 . S
C4501 C4497 1.495 . S
C4501 H4507 0.959 . S
C4501 H4508 0.961 . S
C4501 H4509 0.960 . S
C4502 C4500 1.381 . S
C4502 C4503 1.394 . S
C4502 H4510 0.930 . S
C4503 C4502 1.394 . S
C4503 C4504 1.383 . S
C4503 H4511 0.929 . S
C4504 C4503 1.383 . S
C4504 C4505 1.377 . S
C4505 H4489 0.930 . S
C4505 C4504 1.377 . S
C4505 C4506 1.379 . S
C4506 H4490 0.931 . S
C4506 C4500 1.383 . S
C4506 C4505 1.379 . S
H4507 C4501 0.959 . S
H4508 C4501 0.961 . S
H4509 C4501 0.960 . S
H4510 C4502 0.930 . S
H4511 C4503 0.929 . S
H4512 C4520 0.929 . S
H4513 C4522 0.930 . S
H4514 C4524 0.930 . S
H4515 C4527 0.929 . S
H4516 C4530 0.930 . S
H4517 C4532 0.960 . S
H4518 C4532 0.960 . S
H4519 C4532 0.960 . S
C4520 H4512 0.929 . S
C4520 C4521 1.377 . S
C4520 C4522 1.384 . S
C4521 C4520 1.377 . S
C4521 C4527 1.390 . S
C4522 H4513 0.930 . S
C4522 C4520 1.384 . S
C4522 C4523 1.372 . S
C4523 C4522 1.372 . S
C4523 C4524 1.400 . S
C4523 C4528 1.490 . S
C4524 H4514 0.930 . S
C4524 C4523 1.400 . S
C4524 C4527 1.386 . S
H4525 C4541 0.930 . S
H4526 C4542 0.931 . S
C4527 H4515 0.929 . S
C4527 C4521 1.390 . S
C4527 C4524 1.386 . S
C4528 C4523 1.490 . S
C4528 C4530 1.395 . S
C4528 C4531 1.403 . S
H4529 C4535 0.930 . S
C4530 H4516 0.930 . S
C4530 C4528 1.395 . S
C4530 C4533 1.403 . S
C4531 C4528 1.403 . S
C4531 C4532 1.524 . S
C4531 C4535 1.400 . S
C4532 H4517 0.960 . S
C4532 H4518 0.960 . S
C4532 H4519 0.960 . S
C4532 C4531 1.524 . S
C4533 C4530 1.403 . S
C4533 C4534 1.392 . S
C4533 C4537 1.495 . S
C4534 C4533 1.392 . S
C4534 C4535 1.385 . S
C4534 C4536 1.478 . S
C4535 H4529 0.930 . S
C4535 C4531 1.400 . S
C4535 C4534 1.385 . S
C4536 C4534 1.478 . S
C4536 C4538 1.381 . S
C4536 C4542 1.383 . S
C4537 C4533 1.495 . S
C4537 H4543 0.959 . S
C4537 H4544 0.961 . S
C4537 H4545 0.960 . S
C4538 C4536 1.381 . S
C4538 C4539 1.394 . S
C4538 H4546 0.930 . S
C4539 C4538 1.394 . S
C4539 C4540 1.383 . S
C4539 H4547 0.929 . S
C4540 C4539 1.383 . S
C4540 C4541 1.377 . S
C4541 H4525 0.930 . S
C4541 C4540 1.377 . S
C4541 C4542 1.379 . S
C4542 H4526 0.931 . S
C4542 C4536 1.383 . S
C4542 C4541 1.379 . S
H4543 C4537 0.959 . S
H4544 C4537 0.961 . S
H4545 C4537 0.960 . S
H4546 C4538 0.930 . S
H4547 C4539 0.929 . S
H4548 C4556 0.929 . S
H4549 C4558 0.930 . S
H4550 C4560 0.930 . S
H4551 C4563 0.929 . S
H4552 C4566 0.930 . S
H4553 C4568 0.960 . S
H4554 C4568 0.960 . S
H4555 C4568 0.960 . S
C4556 H4548 0.929 . S
C4556 C4557 1.377 . S
C4556 C4558 1.384 . S
C4557 C4556 1.377 . S
C4557 C4563 1.390 . S
C4558 H4549 0.930 . S
C4558 C4556 1.384 . S
C4558 C4559 1.372 . S
C4559 C4558 1.372 . S
C4559 C4560 1.400 . S
C4559 C4564 1.490 . S
C4560 H4550 0.930 . S
C4560 C4559 1.400 . S
C4560 C4563 1.386 . S
H4561 C4577 0.930 . S
H4562 C4578 0.931 . S
C4563 H4551 0.929 . S
C4563 C4557 1.390 . S
C4563 C4560 1.386 . S
C4564 C4559 1.490 . S
C4564 C4566 1.395 . S
C4564 C4567 1.403 . S
H4565 C4571 0.930 . S
C4566 H4552 0.930 . S
C4566 C4564 1.395 . S
C4566 C4569 1.403 . S
C4567 C4564 1.403 . S
C4567 C4568 1.524 . S
C4567 C4571 1.400 . S
C4568 H4553 0.960 . S
C4568 H4554 0.960 . S
C4568 H4555 0.960 . S
C4568 C4567 1.524 . S
C4569 C4566 1.403 . S
C4569 C4570 1.392 . S
C4569 C4573 1.495 . S
C4570 C4569 1.392 . S
C4570 C4571 1.385 . S
C4570 C4572 1.478 . S
C4571 H4565 0.930 . S
C4571 C4567 1.400 . S
C4571 C4570 1.385 . S
C4572 C4570 1.478 . S
C4572 C4574 1.381 . S
C4572 C4578 1.383 . S
C4573 C4569 1.495 . S
C4573 H4579 0.959 . S
C4573 H4580 0.961 . S
C4573 H4581 0.960 . S
C4574 C4572 1.381 . S
C4574 C4575 1.394 . S
C4574 H4582 0.930 . S
C4575 C4574 1.394 . S
C4575 C4576 1.383 . S
C4575 H4583 0.929 . S
C4576 C4575 1.383 . S
C4576 C4577 1.377 . S
C4577 H4561 0.930 . S
C4577 C4576 1.377 . S
C4577 C4578 1.379 . S
C4578 H4562 0.931 . S
C4578 C4572 1.383 . S
C4578 C4577 1.379 . S
H4579 C4573 0.959 . S
H4580 C4573 0.961 . S
H4581 C4573 0.960 . S
H4582 C4574 0.930 . S
H4583 C4575 0.929 . S
H4584 C4592 0.929 . S
H4585 C4594 0.930 . S
H4586 C4596 0.930 . S
H4587 C4599 0.929 . S
H4588 C4602 0.930 . S
H4589 C4604 0.960 . S
H4590 C4604 0.960 . S
H4591 C4604 0.960 . S
C4592 H4584 0.929 . S
C4592 C4593 1.377 . S
C4592 C4594 1.384 . S
C4593 C4592 1.377 . S
C4593 C4599 1.390 . S
C4594 H4585 0.930 . S
C4594 C4592 1.384 . S
C4594 C4595 1.372 . S
C4595 C4594 1.372 . S
C4595 C4596 1.400 . S
C4595 C4600 1.490 . S
C4596 H4586 0.930 . S
C4596 C4595 1.400 . S
C4596 C4599 1.386 . S
H4597 C4613 0.930 . S
H4598 C4614 0.931 . S
C4599 H4587 0.929 . S
C4599 C4593 1.390 . S
C4599 C4596 1.386 . S
C4600 C4595 1.490 . S
C4600 C4602 1.395 . S
C4600 C4603 1.403 . S
H4601 C4607 0.930 . S
C4602 H4588 0.930 . S
C4602 C4600 1.395 . S
C4602 C4605 1.403 . S
C4603 C4600 1.403 . S
C4603 C4604 1.524 . S
C4603 C4607 1.400 . S
C4604 H4589 0.960 . S
C4604 H4590 0.960 . S
C4604 H4591 0.960 . S
C4604 C4603 1.524 . S
C4605 C4602 1.403 . S
C4605 C4606 1.392 . S
C4605 C4609 1.495 . S
C4606 C4605 1.392 . S
C4606 C4607 1.385 . S
C4606 C4608 1.478 . S
C4607 H4601 0.930 . S
C4607 C4603 1.400 . S
C4607 C4606 1.385 . S
C4608 C4606 1.478 . S
C4608 C4610 1.381 . S
C4608 C4614 1.383 . S
C4609 C4605 1.495 . S
C4609 H4615 0.959 . S
C4609 H4616 0.961 . S
C4609 H4617 0.960 . S
C4610 C4608 1.381 . S
C4610 C4611 1.394 . S
C4610 H4618 0.930 . S
C4611 C4610 1.394 . S
C4611 C4612 1.383 . S
C4611 H4619 0.929 . S
C4612 C4611 1.383 . S
C4612 C4613 1.377 . S
C4613 H4597 0.930 . S
C4613 C4612 1.377 . S
C4613 C4614 1.379 . S
C4614 H4598 0.931 . S
C4614 C4608 1.383 . S
C4614 C4613 1.379 . S
H4615 C4609 0.959 . S
H4616 C4609 0.961 . S
H4617 C4609 0.960 . S
H4618 C4610 0.930 . S
H4619 C4611 0.929 . S
H4620 C4628 0.929 . S
H4621 C4630 0.930 . S
H4622 C4632 0.930 . S
H4623 C4635 0.929 . S
H4624 C4638 0.930 . S
H4625 C4640 0.960 . S
H4626 C4640 0.960 . S
H4627 C4640 0.960 . S
C4628 H4620 0.929 . S
C4628 C4629 1.377 . S
C4628 C4630 1.384 . S
C4629 C4628 1.377 . S
C4629 C4635 1.390 . S
C4630 H4621 0.930 . S
C4630 C4628 1.384 . S
C4630 C4631 1.372 . S
C4631 C4630 1.372 . S
C4631 C4632 1.400 . S
C4631 C4636 1.490 . S
C4632 H4622 0.930 . S
C4632 C4631 1.400 . S
C4632 C4635 1.386 . S
H4633 C4649 0.930 . S
H4634 C4650 0.931 . S
C4635 H4623 0.929 . S
C4635 C4629 1.390 . S
C4635 C4632 1.386 . S
C4636 C4631 1.490 . S
C4636 C4638 1.395 . S
C4636 C4639 1.403 . S
H4637 C4643 0.930 . S
C4638 H4624 0.930 . S
C4638 C4636 1.395 . S
C4638 C4641 1.403 . S
C4639 C4636 1.403 . S
C4639 C4640 1.524 . S
C4639 C4643 1.400 . S
C4640 H4625 0.960 . S
C4640 H4626 0.960 . S
C4640 H4627 0.960 . S
C4640 C4639 1.524 . S
C4641 C4638 1.403 . S
C4641 C4642 1.392 . S
C4641 C4645 1.495 . S
C4642 C4641 1.392 . S
C4642 C4643 1.385 . S
C4642 C4644 1.478 . S
C4643 H4637 0.930 . S
C4643 C4639 1.400 . S
C4643 C4642 1.385 . S
C4644 C4642 1.478 . S
C4644 C4646 1.381 . S
C4644 C4650 1.383 . S
C4645 C4641 1.495 . S
C4645 H4651 0.959 . S
C4645 H4652 0.961 . S
C4645 H4653 0.960 . S
C4646 C4644 1.381 . S
C4646 C4647 1.394 . S
C4646 H4654 0.930 . S
C4647 C4646 1.394 . S
C4647 C4648 1.383 . S
C4647 H4655 0.929 . S
C4648 C4647 1.383 . S
C4648 C4649 1.377 . S
C4649 H4633 0.930 . S
C4649 C4648 1.377 . S
C4649 C4650 1.379 . S
C4650 H4634 0.931 . S
C4650 C4644 1.383 . S
C4650 C4649 1.379 . S
H4651 C4645 0.959 . S
H4652 C4645 0.961 . S
H4653 C4645 0.960 . S
H4654 C4646 0.930 . S
H4655 C4647 0.929 . S
H4656 C4664 0.929 . S
H4657 C4666 0.930 . S
H4658 C4668 0.930 . S
H4659 C4671 0.929 . S
H4660 C4674 0.930 . S
H4661 C4676 0.960 . S
H4662 C4676 0.960 . S
H4663 C4676 0.960 . S
C4664 H4656 0.929 . S
C4664 C4665 1.377 . S
C4664 C4666 1.384 . S
C4665 C4664 1.377 . S
C4665 C4671 1.390 . S
C4666 H4657 0.930 . S
C4666 C4664 1.384 . S
C4666 C4667 1.372 . S
C4667 C4666 1.372 . S
C4667 C4668 1.400 . S
C4667 C4672 1.490 . S
C4668 H4658 0.930 . S
C4668 C4667 1.400 . S
C4668 C4671 1.386 . S
H4669 C4685 0.930 . S
H4670 C4686 0.931 . S
C4671 H4659 0.929 . S
C4671 C4665 1.390 . S
C4671 C4668 1.386 . S
C4672 C4667 1.490 . S
C4672 C4674 1.395 . S
C4672 C4675 1.403 . S
H4673 C4679 0.930 . S
C4674 H4660 0.930 . S
C4674 C4672 1.395 . S
C4674 C4677 1.403 . S
C4675 C4672 1.403 . S
C4675 C4676 1.524 . S
C4675 C4679 1.400 . S
C4676 H4661 0.960 . S
C4676 H4662 0.960 . S
C4676 H4663 0.960 . S
C4676 C4675 1.524 . S
C4677 C4674 1.403 . S
C4677 C4678 1.392 . S
C4677 C4681 1.495 . S
C4678 C4677 1.392 . S
C4678 C4679 1.385 . S
C4678 C4680 1.478 . S
C4679 H4673 0.930 . S
C4679 C4675 1.400 . S
C4679 C4678 1.385 . S
C4680 C4678 1.478 . S
C4680 C4682 1.381 . S
C4680 C4686 1.383 . S
C4681 C4677 1.495 . S
C4681 H4687 0.959 . S
C4681 H4688 0.961 . S
C4681 H4689 0.960 . S
C4682 C4680 1.381 . S
C4682 C4683 1.394 . S
C4682 H4690 0.930 . S
C4683 C4682 1.394 . S
C4683 C4684 1.383 . S
C4683 H4691 0.929 . S
C4684 C4683 1.383 . S
C4684 C4685 1.377 . S
C4685 H4669 0.930 . S
C4685 C4684 1.377 . S
C4685 C4686 1.379 . S
C4686 H4670 0.931 . S
C4686 C4680 1.383 . S
C4686 C4685 1.379 . S
H4687 C4681 0.959 . S
H4688 C4681 0.961 . S
H4689 C4681 0.960 . S
H4690 C4682 0.930 . S
H4691 C4683 0.929 . S
H4692 C4700 0.929 . S
H4693 C4702 0.930 . S
H4694 C4704 0.930 . S
H4695 C4707 0.929 . S
H4696 C4710 0.930 . S
H4697 C4712 0.960 . S
H4698 C4712 0.960 . S
H4699 C4712 0.960 . S
C4700 H4692 0.929 . S
C4700 C4701 1.377 . S
C4700 C4702 1.384 . S
C4701 C4700 1.377 . S
C4701 C4707 1.390 . S
C4702 H4693 0.930 . S
C4702 C4700 1.384 . S
C4702 C4703 1.372 . S
C4703 C4702 1.372 . S
C4703 C4704 1.400 . S
C4703 C4708 1.490 . S
C4704 H4694 0.930 . S
C4704 C4703 1.400 . S
C4704 C4707 1.386 . S
H4705 C4721 0.930 . S
H4706 C4722 0.931 . S
C4707 H4695 0.929 . S
C4707 C4701 1.390 . S
C4707 C4704 1.386 . S
C4708 C4703 1.490 . S
C4708 C4710 1.395 . S
C4708 C4711 1.403 . S
H4709 C4715 0.930 . S
C4710 H4696 0.930 . S
C4710 C4708 1.395 . S
C4710 C4713 1.403 . S
C4711 C4708 1.403 . S
C4711 C4712 1.524 . S
C4711 C4715 1.400 . S
C4712 H4697 0.960 . S
C4712 H4698 0.960 . S
C4712 H4699 0.960 . S
C4712 C4711 1.524 . S
C4713 C4710 1.403 . S
C4713 C4714 1.392 . S
C4713 C4717 1.495 . S
C4714 C4713 1.392 . S
C4714 C4715 1.385 . S
C4714 C4716 1.478 . S
C4715 H4709 0.930 . S
C4715 C4711 1.400 . S
C4715 C4714 1.385 . S
C4716 C4714 1.478 . S
C4716 C4718 1.381 . S
C4716 C4722 1.383 . S
C4717 C4713 1.495 . S
C4717 H4723 0.959 . S
C4717 H4724 0.961 . S
C4717 H4725 0.960 . S
C4718 C4716 1.381 . S
C4718 C4719 1.394 . S
C4718 H4726 0.930 . S
C4719 C4718 1.394 . S
C4719 C4720 1.383 . S
C4719 H4727 0.929 . S
C4720 C4719 1.383 . S
C4720 C4721 1.377 . S
C4721 H4705 0.930 . S
C4721 C4720 1.377 . S
C4721 C4722 1.379 . S
C4722 H4706 0.931 . S
C4722 C4716 1.383 . S
C4722 C4721 1.379 . S
H4723 C4717 0.959 . S
H4724 C4717 0.961 . S
H4725 C4717 0.960 . S
H4726 C4718 0.930 . S
H4727 C4719 0.929 . S
H4728 C4736 0.929 . S
H4729 C4738 0.930 . S
H4730 C4740 0.930 . S
H4731 C4743 0.929 . S
H4732 C4746 0.930 . S
H4733 C4748 0.960 . S
H4734 C4748 0.960 . S
H4735 C4748 0.960 . S
C4736 H4728 0.929 . S
C4736 C4737 1.377 . S
C4736 C4738 1.384 . S
C4737 C4736 1.377 . S
C4737 C4743 1.390 . S
C4738 H4729 0.930 . S
C4738 C4736 1.384 . S
C4738 C4739 1.372 . S
C4739 C4738 1.372 . S
C4739 C4740 1.400 . S
C4739 C4744 1.490 . S
C4740 H4730 0.930 . S
C4740 C4739 1.400 . S
C4740 C4743 1.386 . S
H4741 C4757 0.930 . S
H4742 C4758 0.931 . S
C4743 H4731 0.929 . S
C4743 C4737 1.390 . S
C4743 C4740 1.386 . S
C4744 C4739 1.490 . S
C4744 C4746 1.395 . S
C4744 C4747 1.403 . S
H4745 C4751 0.930 . S
C4746 H4732 0.930 . S
C4746 C4744 1.395 . S
C4746 C4749 1.403 . S
C4747 C4744 1.403 . S
C4747 C4748 1.524 . S
C4747 C4751 1.400 . S
C4748 H4733 0.960 . S
C4748 H4734 0.960 . S
C4748 H4735 0.960 . S
C4748 C4747 1.524 . S
C4749 C4746 1.403 . S
C4749 C4750 1.392 . S
C4749 C4753 1.495 . S
C4750 C4749 1.392 . S
C4750 C4751 1.385 . S
C4750 C4752 1.478 . S
C4751 H4745 0.930 . S
C4751 C4747 1.400 . S
C4751 C4750 1.385 . S
C4752 C4750 1.478 . S
C4752 C4754 1.381 . S
C4752 C4758 1.383 . S
C4753 C4749 1.495 . S
C4753 H4759 0.959 . S
C4753 H4760 0.961 . S
C4753 H4761 0.960 . S
C4754 C4752 1.381 . S
C4754 C4755 1.394 . S
C4754 H4762 0.930 . S
C4755 C4754 1.394 . S
C4755 C4756 1.383 . S
C4755 H4763 0.929 . S
C4756 C4755 1.383 . S
C4756 C4757 1.377 . S
C4757 H4741 0.930 . S
C4757 C4756 1.377 . S
C4757 C4758 1.379 . S
C4758 H4742 0.931 . S
C4758 C4752 1.383 . S
C4758 C4757 1.379 . S
H4759 C4753 0.959 . S
H4760 C4753 0.961 . S
H4761 C4753 0.960 . S
H4762 C4754 0.930 . S
H4763 C4755 0.929 . S
H4764 C4772 0.929 . S
H4765 C4774 0.930 . S
H4766 C4776 0.930 . S
H4767 C4779 0.929 . S
H4768 C4782 0.930 . S
H4769 C4784 0.960 . S
H4770 C4784 0.960 . S
H4771 C4784 0.960 . S
C4772 H4764 0.929 . S
C4772 C4773 1.377 . S
C4772 C4774 1.384 . S
C4773 C4772 1.377 . S
C4773 C4779 1.390 . S
C4774 H4765 0.930 . S
C4774 C4772 1.384 . S
C4774 C4775 1.372 . S
C4775 C4774 1.372 . S
C4775 C4776 1.400 . S
C4775 C4780 1.490 . S
C4776 H4766 0.930 . S
C4776 C4775 1.400 . S
C4776 C4779 1.386 . S
H4777 C4793 0.930 . S
H4778 C4794 0.931 . S
C4779 H4767 0.929 . S
C4779 C4773 1.390 . S
C4779 C4776 1.386 . S
C4780 C4775 1.490 . S
C4780 C4782 1.395 . S
C4780 C4783 1.403 . S
H4781 C4787 0.930 . S
C4782 H4768 0.930 . S
C4782 C4780 1.395 . S
C4782 C4785 1.403 . S
C4783 C4780 1.403 . S
C4783 C4784 1.524 . S
C4783 C4787 1.400 . S
C4784 H4769 0.960 . S
C4784 H4770 0.960 . S
C4784 H4771 0.960 . S
C4784 C4783 1.524 . S
C4785 C4782 1.403 . S
C4785 C4786 1.392 . S
C4785 C4789 1.495 . S
C4786 C4785 1.392 . S
C4786 C4787 1.385 . S
C4786 C4788 1.478 . S
C4787 H4781 0.930 . S
C4787 C4783 1.400 . S
C4787 C4786 1.385 . S
C4788 C4786 1.478 . S
C4788 C4790 1.381 . S
C4788 C4794 1.383 . S
C4789 C4785 1.495 . S
C4789 H4795 0.959 . S
C4789 H4796 0.961 . S
C4789 H4797 0.960 . S
C4790 C4788 1.381 . S
C4790 C4791 1.394 . S
C4790 H4798 0.930 . S
C4791 C4790 1.394 . S
C4791 C4792 1.383 . S
C4791 H4799 0.929 . S
C4792 C4791 1.383 . S
C4792 C4793 1.377 . S
C4793 H4777 0.930 . S
C4793 C4792 1.377 . S
C4793 C4794 1.379 . S
C4794 H4778 0.931 . S
C4794 C4788 1.383 . S
C4794 C4793 1.379 . S
H4795 C4789 0.959 . S
H4796 C4789 0.961 . S
H4797 C4789 0.960 . S
H4798 C4790 0.930 . S
H4799 C4791 0.929 . S
H4800 C4808 0.929 . S
H4801 C4810 0.930 . S
H4802 C4812 0.930 . S
H4803 C4815 0.929 . S
H4804 C4818 0.930 . S
H4805 C4820 0.960 . S
H4806 C4820 0.960 . S
H4807 C4820 0.960 . S
C4808 H4800 0.929 . S
C4808 C4809 1.377 . S
C4808 C4810 1.384 . S
C4809 C4808 1.377 . S
C4809 C4815 1.390 . S
C4810 H4801 0.930 . S
C4810 C4808 1.384 . S
C4810 C4811 1.372 . S
C4811 C4810 1.372 . S
C4811 C4812 1.400 . S
C4811 C4816 1.490 . S
C4812 H4802 0.930 . S
C4812 C4811 1.400 . S
C4812 C4815 1.386 . S
H4813 C4829 0.930 . S
H4814 C4830 0.931 . S
C4815 H4803 0.929 . S
C4815 C4809 1.390 . S
C4815 C4812 1.386 . S
C4816 C4811 1.490 . S
C4816 C4818 1.395 . S
C4816 C4819 1.403 . S
H4817 C4823 0.930 . S
C4818 H4804 0.930 . S
C4818 C4816 1.395 . S
C4818 C4821 1.403 1_455 S
C4819 C4816 1.403 . S
C4819 C4820 1.524 . S
C4819 C4823 1.400 1_455 S
C4820 H4805 0.960 . S
C4820 H4806 0.960 . S
C4820 H4807 0.960 . S
C4820 C4819 1.524 . S
C4821 C4818 1.403 1_655 S
C4821 C4822 1.392 . S
C4821 C4825 1.495 . S
C4822 C4821 1.392 . S
C4822 C4823 1.385 . S
C4822 C4824 1.478 . S
C4823 H4817 0.930 . S
C4823 C4819 1.400 1_655 S
C4823 C4822 1.385 . S
C4824 C4822 1.478 . S
C4824 C4826 1.381 . S
C4824 C4830 1.383 . S
C4825 C4821 1.495 . S
C4825 H4831 0.959 . S
C4825 H4832 0.961 . S
C4825 H4833 0.960 . S
C4826 C4824 1.381 . S
C4826 C4827 1.394 . S
C4826 H4834 0.930 . S
C4827 C4826 1.394 . S
C4827 C4828 1.383 . S
C4827 H4835 0.929 . S
C4828 C4827 1.383 . S
C4828 C4829 1.377 . S
C4829 H4813 0.930 . S
C4829 C4828 1.377 . S
C4829 C4830 1.379 . S
C4830 H4814 0.931 . S
C4830 C4824 1.383 . S
C4830 C4829 1.379 . S
H4831 C4825 0.959 . S
H4832 C4825 0.961 . S
H4833 C4825 0.960 . S
H4834 C4826 0.930 . S
H4835 C4827 0.929 . S
H4836 C4844 0.929 . S
H4837 C4846 0.930 . S
H4838 C4848 0.930 . S
H4839 C4851 0.929 . S
H4840 C4854 0.930 . S
H4841 C4856 0.960 . S
H4842 C4856 0.960 . S
H4843 C4856 0.960 . S
C4844 H4836 0.929 . S
C4844 C4845 1.377 . S
C4844 C4846 1.384 . S
C4845 C4844 1.377 . S
C4845 C4851 1.390 . S
C4846 H4837 0.930 . S
C4846 C4844 1.384 . S
C4846 C4847 1.372 . S
C4847 C4846 1.372 . S
C4847 C4848 1.400 . S
C4847 C4852 1.490 . S
C4848 H4838 0.930 . S
C4848 C4847 1.400 . S
C4848 C4851 1.386 . S
H4849 C4865 0.930 . S
H4850 C4866 0.931 . S
C4851 H4839 0.929 . S
C4851 C4845 1.390 . S
C4851 C4848 1.386 . S
C4852 C4847 1.490 . S
C4852 C4854 1.395 . S
C4852 C4855 1.403 . S
H4853 C4859 0.930 . S
C4854 H4840 0.930 . S
C4854 C4852 1.395 . S
C4854 C4857 1.403 1_565 S
C4855 C4852 1.403 . S
C4855 C4856 1.524 . S
C4855 C4859 1.400 1_565 S
C4856 H4841 0.960 . S
C4856 H4842 0.960 . S
C4856 H4843 0.960 . S
C4856 C4855 1.524 . S
C4857 C4854 1.403 1_545 S
C4857 C4858 1.392 . S
C4857 C4861 1.495 . S
C4858 C4857 1.392 . S
C4858 C4859 1.385 . S
C4858 C4860 1.478 . S
C4859 H4853 0.930 . S
C4859 C4855 1.400 1_545 S
C4859 C4858 1.385 . S
C4860 C4858 1.478 . S
C4860 C4862 1.381 . S
C4860 C4866 1.383 . S
C4861 C4857 1.495 . S
C4861 H4867 0.959 . S
C4861 H4868 0.961 . S
C4861 H4869 0.960 . S
C4862 C4860 1.381 . S
C4862 C4863 1.394 . S
C4862 H4870 0.930 . S
C4863 C4862 1.394 . S
C4863 C4864 1.383 . S
C4863 H4871 0.929 . S
C4864 C4863 1.383 . S
C4864 C4865 1.377 . S
C4865 H4849 0.930 . S
C4865 C4864 1.377 . S
C4865 C4866 1.379 . S
C4866 H4850 0.931 . S
C4866 C4860 1.383 . S
C4866 C4865 1.379 . S
H4867 C4861 0.959 . S
H4868 C4861 0.961 . S
H4869 C4861 0.960 . S
H4870 C4862 0.930 . S
H4871 C4863 0.929 . S
H4872 C4880 0.929 . S
H4873 C4882 0.930 . S
H4874 C4884 0.930 . S
H4875 C4887 0.929 . S
H4876 C4890 0.930 . S
H4877 C4892 0.960 . S
H4878 C4892 0.960 . S
H4879 C4892 0.960 . S
C4880 H4872 0.929 . S
C4880 C4881 1.377 . S
C4880 C4882 1.384 . S
C4881 C4880 1.377 . S
C4881 C4887 1.390 . S
C4882 H4873 0.930 . S
C4882 C4880 1.384 . S
C4882 C4883 1.372 . S
C4883 C4882 1.372 . S
C4883 C4884 1.400 . S
C4883 C4888 1.490 . S
C4884 H4874 0.930 . S
C4884 C4883 1.400 . S
C4884 C4887 1.386 . S
H4885 C4901 0.930 . S
H4886 C4902 0.931 . S
C4887 H4875 0.929 . S
C4887 C4881 1.390 . S
C4887 C4884 1.386 . S
C4888 C4883 1.490 . S
C4888 C4890 1.395 . S
C4888 C4891 1.403 . S
H4889 C4895 0.930 . S
C4890 H4876 0.930 . S
C4890 C4888 1.395 . S
C4890 C4893 1.403 1_655 S
C4891 C4888 1.403 . S
C4891 C4892 1.524 . S
C4891 C4895 1.400 1_655 S
C4892 H4877 0.960 . S
C4892 H4878 0.960 . S
C4892 H4879 0.960 . S
C4892 C4891 1.524 . S
C4893 C4890 1.403 1_455 S
C4893 C4894 1.392 . S
C4893 C4897 1.495 . S
C4894 C4893 1.392 . S
C4894 C4895 1.385 . S
C4894 C4896 1.478 . S
C4895 H4889 0.930 . S
C4895 C4891 1.400 1_455 S
C4895 C4894 1.385 . S
C4896 C4894 1.478 . S
C4896 C4898 1.381 . S
C4896 C4902 1.383 . S
C4897 C4893 1.495 . S
C4897 H4903 0.959 . S
C4897 H4904 0.961 . S
C4897 H4905 0.960 . S
C4898 C4896 1.381 . S
C4898 C4899 1.394 . S
C4898 H4906 0.930 . S
C4899 C4898 1.394 . S
C4899 C4900 1.383 . S
C4899 H4907 0.929 . S
C4900 C4899 1.383 . S
C4900 C4901 1.377 . S
C4901 H4885 0.930 . S
C4901 C4900 1.377 . S
C4901 C4902 1.379 . S
C4902 H4886 0.931 . S
C4902 C4896 1.383 . S
C4902 C4901 1.379 . S
H4903 C4897 0.959 . S
H4904 C4897 0.961 . S
H4905 C4897 0.960 . S
H4906 C4898 0.930 . S
H4907 C4899 0.929 . S
H4908 C4916 0.929 . S
H4909 C4918 0.930 . S
H4910 C4920 0.930 . S
H4911 C4923 0.929 . S
H4912 C4926 0.930 . S
H4913 C4928 0.960 . S
H4914 C4928 0.960 . S
H4915 C4928 0.960 . S
C4916 H4908 0.929 . S
C4916 C4917 1.377 . S
C4916 C4918 1.384 . S
C4917 C4916 1.377 . S
C4917 C4923 1.390 . S
C4918 H4909 0.930 . S
C4918 C4916 1.384 . S
C4918 C4919 1.372 . S
C4919 C4918 1.372 . S
C4919 C4920 1.400 . S
C4919 C4924 1.490 . S
C4920 H4910 0.930 . S
C4920 C4919 1.400 . S
C4920 C4923 1.386 . S
H4921 C4937 0.930 . S
H4922 C4938 0.931 . S
C4923 H4911 0.929 . S
C4923 C4917 1.390 . S
C4923 C4920 1.386 . S
C4924 C4919 1.490 . S
C4924 C4926 1.395 . S
C4924 C4927 1.403 . S
H4925 C4931 0.930 . S
C4926 H4912 0.930 . S
C4926 C4924 1.395 . S
C4926 C4929 1.403 1_545 S
C4927 C4924 1.403 . S
C4927 C4928 1.524 . S
C4927 C4931 1.400 1_545 S
C4928 H4913 0.960 . S
C4928 H4914 0.960 . S
C4928 H4915 0.960 . S
C4928 C4927 1.524 . S
C4929 C4926 1.403 1_565 S
C4929 C4930 1.392 . S
C4929 C4933 1.495 . S
C4930 C4929 1.392 . S
C4930 C4931 1.385 . S
C4930 C4932 1.478 . S
C4931 H4925 0.930 . S
C4931 C4927 1.400 1_565 S
C4931 C4930 1.385 . S
C4932 C4930 1.478 . S
C4932 C4934 1.381 . S
C4932 C4938 1.383 . S
C4933 C4929 1.495 . S
C4933 H4939 0.959 . S
C4933 H4940 0.961 . S
C4933 H4941 0.960 . S
C4934 C4932 1.381 . S
C4934 C4935 1.394 . S
C4934 H4942 0.930 . S
C4935 C4934 1.394 . S
C4935 C4936 1.383 . S
C4935 H4943 0.929 . S
C4936 C4935 1.383 . S
C4936 C4937 1.377 . S
C4937 H4921 0.930 . S
C4937 C4936 1.377 . S
C4937 C4938 1.379 . S
C4938 H4922 0.931 . S
C4938 C4932 1.383 . S
C4938 C4937 1.379 . S
H4939 C4933 0.959 . S
H4940 C4933 0.961 . S
H4941 C4933 0.960 . S
H4942 C4934 0.930 . S
H4943 C4935 0.929 . S
H4944 C4952 0.929 . S
H4945 C4954 0.930 . S
H4946 C4956 0.930 . S
H4947 C4959 0.929 . S
H4948 C4962 0.930 . S
H4949 C4964 0.960 . S
H4950 C4964 0.960 . S
H4951 C4964 0.960 . S
C4952 H4944 0.929 . S
C4952 C4953 1.377 . S
C4952 C4954 1.384 . S
C4953 C4952 1.377 . S
C4953 C4959 1.390 . S
C4954 H4945 0.930 . S
C4954 C4952 1.384 . S
C4954 C4955 1.372 . S
C4955 C4954 1.372 . S
C4955 C4956 1.400 . S
C4955 C4960 1.490 . S
C4956 H4946 0.930 . S
C4956 C4955 1.400 . S
C4956 C4959 1.386 . S
H4957 C4973 0.930 . S
H4958 C4974 0.931 . S
C4959 H4947 0.929 . S
C4959 C4953 1.390 . S
C4959 C4956 1.386 . S
C4960 C4955 1.490 . S
C4960 C4962 1.395 . S
C4960 C4963 1.403 . S
H4961 C4967 0.930 . S
C4962 H4948 0.930 . S
C4962 C4960 1.395 . S
C4962 C4965 1.403 1_455 S
C4963 C4960 1.403 . S
C4963 C4964 1.524 . S
C4963 C4967 1.400 1_455 S
C4964 H4949 0.960 . S
C4964 H4950 0.960 . S
C4964 H4951 0.960 . S
C4964 C4963 1.524 . S
C4965 C4962 1.403 1_655 S
C4965 C4966 1.392 . S
C4965 C4969 1.495 . S
C4966 C4965 1.392 . S
C4966 C4967 1.385 . S
C4966 C4968 1.478 . S
C4967 H4961 0.930 . S
C4967 C4963 1.400 1_655 S
C4967 C4966 1.385 . S
C4968 C4966 1.478 . S
C4968 C4970 1.381 . S
C4968 C4974 1.383 . S
C4969 C4965 1.495 . S
C4969 H4975 0.959 . S
C4969 H4976 0.961 . S
C4969 H4977 0.960 . S
C4970 C4968 1.381 . S
C4970 C4971 1.394 . S
C4970 H4978 0.930 . S
C4971 C4970 1.394 . S
C4971 C4972 1.383 . S
C4971 H4979 0.929 . S
C4972 C4971 1.383 . S
C4972 C4973 1.377 . S
C4973 H4957 0.930 . S
C4973 C4972 1.377 . S
C4973 C4974 1.379 . S
C4974 H4958 0.931 . S
C4974 C4968 1.383 . S
C4974 C4973 1.379 . S
H4975 C4969 0.959 . S
H4976 C4969 0.961 . S
H4977 C4969 0.960 . S
H4978 C4970 0.930 . S
H4979 C4971 0.929 . S
H4980 C4988 0.929 . S
H4981 C4990 0.930 . S
H4982 C4992 0.930 . S
H4983 C4995 0.929 . S
H4984 C4998 0.930 . S
H4985 C5000 0.960 . S
H4986 C5000 0.960 . S
H4987 C5000 0.960 . S
C4988 H4980 0.929 . S
C4988 C4989 1.377 . S
C4988 C4990 1.384 . S
C4989 C4988 1.377 . S
C4989 C4995 1.390 . S
C4990 H4981 0.930 . S
C4990 C4988 1.384 . S
C4990 C4991 1.372 . S
C4991 C4990 1.372 . S
C4991 C4992 1.400 . S
C4991 C4996 1.490 . S
C4992 H4982 0.930 . S
C4992 C4991 1.400 . S
C4992 C4995 1.386 . S
H4993 C5009 0.930 . S
H4994 C5010 0.931 . S
C4995 H4983 0.929 . S
C4995 C4989 1.390 . S
C4995 C4992 1.386 . S
C4996 C4991 1.490 . S
C4996 C4998 1.395 . S
C4996 C4999 1.403 . S
H4997 C5003 0.930 . S
C4998 H4984 0.930 . S
C4998 C4996 1.395 . S
C4998 C5001 1.403 1_545 S
C4999 C4996 1.403 . S
C4999 C5000 1.524 . S
C4999 C5003 1.400 1_545 S
C5000 H4985 0.960 . S
C5000 H4986 0.960 . S
C5000 H4987 0.960 . S
C5000 C4999 1.524 . S
C5001 C4998 1.403 1_565 S
C5001 C5002 1.392 . S
C5001 C5005 1.495 . S
C5002 C5001 1.392 . S
C5002 C5003 1.385 . S
C5002 C5004 1.478 . S
C5003 H4997 0.930 . S
C5003 C4999 1.400 1_565 S
C5003 C5002 1.385 . S
C5004 C5002 1.478 . S
C5004 C5006 1.381 . S
C5004 C5010 1.383 . S
C5005 C5001 1.495 . S
C5005 H5011 0.959 . S
C5005 H5012 0.961 . S
C5005 H5013 0.960 . S
C5006 C5004 1.381 . S
C5006 C5007 1.394 . S
C5006 H5014 0.930 . S
C5007 C5006 1.394 . S
C5007 C5008 1.383 . S
C5007 H5015 0.929 . S
C5008 C5007 1.383 . S
C5008 C5009 1.377 . S
C5009 H4993 0.930 . S
C5009 C5008 1.377 . S
C5009 C5010 1.379 . S
C5010 H4994 0.931 . S
C5010 C5004 1.383 . S
C5010 C5009 1.379 . S
H5011 C5005 0.959 . S
H5012 C5005 0.961 . S
H5013 C5005 0.960 . S
H5014 C5006 0.930 . S
H5015 C5007 0.929 . S
H5016 C5024 0.929 . S
H5017 C5026 0.930 . S
H5018 C5028 0.930 . S
H5019 C5031 0.929 . S
H5020 C5034 0.930 . S
H5021 C5036 0.960 . S
H5022 C5036 0.960 . S
H5023 C5036 0.960 . S
C5024 H5016 0.929 . S
C5024 C5025 1.377 . S
C5024 C5026 1.384 . S
C5025 C5024 1.377 . S
C5025 C5031 1.390 . S
C5026 H5017 0.930 . S
C5026 C5024 1.384 . S
C5026 C5027 1.372 . S
C5027 C5026 1.372 . S
C5027 C5028 1.400 . S
C5027 C5032 1.490 . S
C5028 H5018 0.930 . S
C5028 C5027 1.400 . S
C5028 C5031 1.386 . S
H5029 C5045 0.930 . S
H5030 C5046 0.931 . S
C5031 H5019 0.929 . S
C5031 C5025 1.390 . S
C5031 C5028 1.386 . S
C5032 C5027 1.490 . S
C5032 C5034 1.395 . S
C5032 C5035 1.403 . S
H5033 C5039 0.930 . S
C5034 H5020 0.930 . S
C5034 C5032 1.395 . S
C5034 C5037 1.403 1_655 S
C5035 C5032 1.403 . S
C5035 C5036 1.524 . S
C5035 C5039 1.400 1_655 S
C5036 H5021 0.960 . S
C5036 H5022 0.960 . S
C5036 H5023 0.960 . S
C5036 C5035 1.524 . S
C5037 C5034 1.403 1_455 S
C5037 C5038 1.392 . S
C5037 C5041 1.495 . S
C5038 C5037 1.392 . S
C5038 C5039 1.385 . S
C5038 C5040 1.478 . S
C5039 H5033 0.930 . S
C5039 C5035 1.400 1_455 S
C5039 C5038 1.385 . S
C5040 C5038 1.478 . S
C5040 C5042 1.381 . S
C5040 C5046 1.383 . S
C5041 C5037 1.495 . S
C5041 H5047 0.959 . S
C5041 H5048 0.961 . S
C5041 H5049 0.960 . S
C5042 C5040 1.381 . S
C5042 C5043 1.394 . S
C5042 H5050 0.930 . S
C5043 C5042 1.394 . S
C5043 C5044 1.383 . S
C5043 H5051 0.929 . S
C5044 C5043 1.383 . S
C5044 C5045 1.377 . S
C5045 H5029 0.930 . S
C5045 C5044 1.377 . S
C5045 C5046 1.379 . S
C5046 H5030 0.931 . S
C5046 C5040 1.383 . S
C5046 C5045 1.379 . S
H5047 C5041 0.959 . S
H5048 C5041 0.961 . S
H5049 C5041 0.960 . S
H5050 C5042 0.930 . S
H5051 C5043 0.929 . S
H5052 C5060 0.929 . S
H5053 C5062 0.930 . S
H5054 C5064 0.930 . S
H5055 C5067 0.929 . S
H5056 C5070 0.930 . S
H5057 C5072 0.960 . S
H5058 C5072 0.960 . S
H5059 C5072 0.960 . S
C5060 H5052 0.929 . S
C5060 C5061 1.377 . S
C5060 C5062 1.384 . S
C5061 C5060 1.377 . S
C5061 C5067 1.390 . S
C5062 H5053 0.930 . S
C5062 C5060 1.384 . S
C5062 C5063 1.372 . S
C5063 C5062 1.372 . S
C5063 C5064 1.400 . S
C5063 C5068 1.490 . S
C5064 H5054 0.930 . S
C5064 C5063 1.400 . S
C5064 C5067 1.386 . S
H5065 C5081 0.930 . S
H5066 C5082 0.931 . S
C5067 H5055 0.929 . S
C5067 C5061 1.390 . S
C5067 C5064 1.386 . S
C5068 C5063 1.490 . S
C5068 C5070 1.395 . S
C5068 C5071 1.403 . S
H5069 C5075 0.930 . S
C5070 H5056 0.930 . S
C5070 C5068 1.395 . S
C5070 C5073 1.403 1_545 S
C5071 C5068 1.403 . S
C5071 C5072 1.524 . S
C5071 C5075 1.400 1_545 S
C5072 H5057 0.960 . S
C5072 H5058 0.960 . S
C5072 H5059 0.960 . S
C5072 C5071 1.524 . S
C5073 C5070 1.403 1_565 S
C5073 C5074 1.392 . S
C5073 C5077 1.495 . S
C5074 C5073 1.392 . S
C5074 C5075 1.385 . S
C5074 C5076 1.478 . S
C5075 H5069 0.930 . S
C5075 C5071 1.400 1_565 S
C5075 C5074 1.385 . S
C5076 C5074 1.478 . S
C5076 C5078 1.381 . S
C5076 C5082 1.383 . S
C5077 C5073 1.495 . S
C5077 H5083 0.959 . S
C5077 H5084 0.961 . S
C5077 H5085 0.960 . S
C5078 C5076 1.381 . S
C5078 C5079 1.394 . S
C5078 H5086 0.930 . S
C5079 C5078 1.394 . S
C5079 C5080 1.383 . S
C5079 H5087 0.929 . S
C5080 C5079 1.383 . S
C5080 C5081 1.377 . S
C5081 H5065 0.930 . S
C5081 C5080 1.377 . S
C5081 C5082 1.379 . S
C5082 H5066 0.931 . S
C5082 C5076 1.383 . S
C5082 C5081 1.379 . S
H5083 C5077 0.959 . S
H5084 C5077 0.961 . S
H5085 C5077 0.960 . S
H5086 C5078 0.930 . S
H5087 C5079 0.929 . S
H5088 C5096 0.929 . S
H5089 C5098 0.930 . S
H5090 C5100 0.930 . S
H5091 C5103 0.929 . S
H5092 C5106 0.930 . S
H5093 C5108 0.960 . S
H5094 C5108 0.960 . S
H5095 C5108 0.960 . S
C5096 H5088 0.929 . S
C5096 C5097 1.377 . S
C5096 C5098 1.384 . S
C5097 C5096 1.377 . S
C5097 C5103 1.390 . S
C5098 H5089 0.930 . S
C5098 C5096 1.384 . S
C5098 C5099 1.372 . S
C5099 C5098 1.372 . S
C5099 C5100 1.400 . S
C5099 C5104 1.490 . S
C5100 H5090 0.930 . S
C5100 C5099 1.400 . S
C5100 C5103 1.386 . S
H5101 C5117 0.930 . S
H5102 C5118 0.931 . S
C5103 H5091 0.929 . S
C5103 C5097 1.390 . S
C5103 C5100 1.386 . S
C5104 C5099 1.490 . S
C5104 C5106 1.395 . S
C5104 C5107 1.403 . S
H5105 C5111 0.930 . S
C5106 H5092 0.930 . S
C5106 C5104 1.395 . S
C5106 C5109 1.403 1_565 S
C5107 C5104 1.403 . S
C5107 C5108 1.524 . S
C5107 C5111 1.400 1_565 S
C5108 H5093 0.960 . S
C5108 H5094 0.960 . S
C5108 H5095 0.960 . S
C5108 C5107 1.524 . S
C5109 C5106 1.403 1_545 S
C5109 C5110 1.392 . S
C5109 C5113 1.495 . S
C5110 C5109 1.392 . S
C5110 C5111 1.385 . S
C5110 C5112 1.478 . S
C5111 H5105 0.930 . S
C5111 C5107 1.400 1_545 S
C5111 C5110 1.385 . S
C5112 C5110 1.478 . S
C5112 C5114 1.381 . S
C5112 C5118 1.383 . S
C5113 C5109 1.495 . S
C5113 H5119 0.959 . S
C5113 H5120 0.961 . S
C5113 H5121 0.960 . S
C5114 C5112 1.381 . S
C5114 C5115 1.394 . S
C5114 H5122 0.930 . S
C5115 C5114 1.394 . S
C5115 C5116 1.383 . S
C5115 H5123 0.929 . S
C5116 C5115 1.383 . S
C5116 C5117 1.377 . S
C5117 H5101 0.930 . S
C5117 C5116 1.377 . S
C5117 C5118 1.379 . S
C5118 H5102 0.931 . S
C5118 C5112 1.383 . S
C5118 C5117 1.379 . S
H5119 C5113 0.959 . S
H5120 C5113 0.961 . S
H5121 C5113 0.960 . S
H5122 C5114 0.930 . S
H5123 C5115 0.929 . S
H5124 C5132 0.929 . S
H5125 C5134 0.930 . S
H5126 C5136 0.930 . S
H5127 C5139 0.929 . S
H5128 C5142 0.930 . S
H5129 C5144 0.960 . S
H5130 C5144 0.960 . S
H5131 C5144 0.960 . S
C5132 H5124 0.929 . S
C5132 C5133 1.377 . S
C5132 C5134 1.384 . S
C5133 C5132 1.377 . S
C5133 C5139 1.390 . S
C5134 H5125 0.930 . S
C5134 C5132 1.384 . S
C5134 C5135 1.372 . S
C5135 C5134 1.372 . S
C5135 C5136 1.400 . S
C5135 C5140 1.490 . S
C5136 H5126 0.930 . S
C5136 C5135 1.400 . S
C5136 C5139 1.386 . S
H5137 C5153 0.930 . S
H5138 C5154 0.931 . S
C5139 H5127 0.929 . S
C5139 C5133 1.390 . S
C5139 C5136 1.386 . S
C5140 C5135 1.490 . S
C5140 C5142 1.395 . S
C5140 C5143 1.403 . S
H5141 C5147 0.930 . S
C5142 H5128 0.930 . S
C5142 C5140 1.395 . S
C5142 C5145 1.403 1_655 S
C5143 C5140 1.403 . S
C5143 C5144 1.524 . S
C5143 C5147 1.400 1_655 S
C5144 H5129 0.960 . S
C5144 H5130 0.960 . S
C5144 H5131 0.960 . S
C5144 C5143 1.524 . S
C5145 C5142 1.403 1_455 S
C5145 C5146 1.392 . S
C5145 C5149 1.495 . S
C5146 C5145 1.392 . S
C5146 C5147 1.385 . S
C5146 C5148 1.478 . S
C5147 H5141 0.930 . S
C5147 C5143 1.400 1_455 S
C5147 C5146 1.385 . S
C5148 C5146 1.478 . S
C5148 C5150 1.381 . S
C5148 C5154 1.383 . S
C5149 C5145 1.495 . S
C5149 H5155 0.959 . S
C5149 H5156 0.961 . S
C5149 H5157 0.960 . S
C5150 C5148 1.381 . S
C5150 C5151 1.394 . S
C5150 H5158 0.930 . S
C5151 C5150 1.394 . S
C5151 C5152 1.383 . S
C5151 H5159 0.929 . S
C5152 C5151 1.383 . S
C5152 C5153 1.377 . S
C5153 H5137 0.930 . S
C5153 C5152 1.377 . S
C5153 C5154 1.379 . S
C5154 H5138 0.931 . S
C5154 C5148 1.383 . S
C5154 C5153 1.379 . S
H5155 C5149 0.959 . S
H5156 C5149 0.961 . S
H5157 C5149 0.960 . S
H5158 C5150 0.930 . S
H5159 C5151 0.929 . S
H5160 C5168 0.929 . S
H5161 C5170 0.930 . S
H5162 C5172 0.930 . S
H5163 C5175 0.929 . S
H5164 C5178 0.930 . S
H5165 C5180 0.960 . S
H5166 C5180 0.960 . S
H5167 C5180 0.960 . S
C5168 H5160 0.929 . S
C5168 C5169 1.377 . S
C5168 C5170 1.384 . S
C5169 C5168 1.377 . S
C5169 C5175 1.390 . S
C5170 H5161 0.930 . S
C5170 C5168 1.384 . S
C5170 C5171 1.372 . S
C5171 C5170 1.372 . S
C5171 C5172 1.400 . S
C5171 C5176 1.490 . S
C5172 H5162 0.930 . S
C5172 C5171 1.400 . S
C5172 C5175 1.386 . S
H5173 C5189 0.930 . S
H5174 C5190 0.931 . S
C5175 H5163 0.929 . S
C5175 C5169 1.390 . S
C5175 C5172 1.386 . S
C5176 C5171 1.490 . S
C5176 C5178 1.395 . S
C5176 C5179 1.403 . S
H5177 C5183 0.930 . S
C5178 H5164 0.930 . S
C5178 C5176 1.395 . S
C5178 C5181 1.403 1_565 S
C5179 C5176 1.403 . S
C5179 C5180 1.524 . S
C5179 C5183 1.400 1_565 S
C5180 H5165 0.960 . S
C5180 H5166 0.960 . S
C5180 H5167 0.960 . S
C5180 C5179 1.524 . S
C5181 C5178 1.403 1_545 S
C5181 C5182 1.392 . S
C5181 C5185 1.495 . S
C5182 C5181 1.392 . S
C5182 C5183 1.385 . S
C5182 C5184 1.478 . S
C5183 H5177 0.930 . S
C5183 C5179 1.400 1_545 S
C5183 C5182 1.385 . S
C5184 C5182 1.478 . S
C5184 C5186 1.381 . S
C5184 C5190 1.383 . S
C5185 C5181 1.495 . S
C5185 H5191 0.959 . S
C5185 H5192 0.961 . S
C5185 H5193 0.960 . S
C5186 C5184 1.381 . S
C5186 C5187 1.394 . S
C5186 H5194 0.930 . S
C5187 C5186 1.394 . S
C5187 C5188 1.383 . S
C5187 H5195 0.929 . S
C5188 C5187 1.383 . S
C5188 C5189 1.377 . S
C5189 H5173 0.930 . S
C5189 C5188 1.377 . S
C5189 C5190 1.379 . S
C5190 H5174 0.931 . S
C5190 C5184 1.383 . S
C5190 C5189 1.379 . S
H5191 C5185 0.959 . S
H5192 C5185 0.961 . S
H5193 C5185 0.960 . S
H5194 C5186 0.930 . S
H5195 C5187 0.929 . S
H5196 C5204 0.929 . S
H5197 C5206 0.930 . S
H5198 C5208 0.930 . S
H5199 C5211 0.929 . S
H5200 C5214 0.930 . S
H5201 C5216 0.960 . S
H5202 C5216 0.960 . S
H5203 C5216 0.960 . S
C5204 H5196 0.929 . S
C5204 C5205 1.377 . S
C5204 C5206 1.384 . S
C5205 C5204 1.377 . S
C5205 C5211 1.390 . S
C5206 H5197 0.930 . S
C5206 C5204 1.384 . S
C5206 C5207 1.372 . S
C5207 C5206 1.372 . S
C5207 C5208 1.400 . S
C5207 C5212 1.490 . S
C5208 H5198 0.930 . S
C5208 C5207 1.400 . S
C5208 C5211 1.386 . S
H5209 C5225 0.930 . S
H5210 C5226 0.931 . S
C5211 H5199 0.929 . S
C5211 C5205 1.390 . S
C5211 C5208 1.386 . S
C5212 C5207 1.490 . S
C5212 C5214 1.395 . S
C5212 C5215 1.403 . S
H5213 C5219 0.930 . S
C5214 H5200 0.930 . S
C5214 C5212 1.395 . S
C5214 C5217 1.403 1_455 S
C5215 C5212 1.403 . S
C5215 C5216 1.524 . S
C5215 C5219 1.400 1_455 S
C5216 H5201 0.960 . S
C5216 H5202 0.960 . S
C5216 H5203 0.960 . S
C5216 C5215 1.524 . S
C5217 C5214 1.403 1_655 S
C5217 C5218 1.392 . S
C5217 C5221 1.495 . S
C5218 C5217 1.392 . S
C5218 C5219 1.385 . S
C5218 C5220 1.478 . S
C5219 H5213 0.930 . S
C5219 C5215 1.400 1_655 S
C5219 C5218 1.385 . S
C5220 C5218 1.478 . S
C5220 C5222 1.381 . S
C5220 C5226 1.383 . S
C5221 C5217 1.495 . S
C5221 H5227 0.959 . S
C5221 H5228 0.961 . S
C5221 H5229 0.960 . S
C5222 C5220 1.381 . S
C5222 C5223 1.394 . S
C5222 H5230 0.930 . S
C5223 C5222 1.394 . S
C5223 C5224 1.383 . S
C5223 H5231 0.929 . S
C5224 C5223 1.383 . S
C5224 C5225 1.377 . S
C5225 H5209 0.930 . S
C5225 C5224 1.377 . S
C5225 C5226 1.379 . S
C5226 H5210 0.931 . S
C5226 C5220 1.383 . S
C5226 C5225 1.379 . S
H5227 C5221 0.959 . S
H5228 C5221 0.961 . S
H5229 C5221 0.960 . S
H5230 C5222 0.930 . S
H5231 C5223 0.929 . S
H5232 C5240 0.929 . S
H5233 C5242 0.930 . S
H5234 C5244 0.930 . S
H5235 C5247 0.929 . S
H5236 C5250 0.930 . S
H5237 C5252 0.960 . S
H5238 C5252 0.960 . S
H5239 C5252 0.960 . S
C5240 H5232 0.929 . S
C5240 C5241 1.377 . S
C5240 C5242 1.384 . S
C5241 C5240 1.377 . S
C5241 C5247 1.390 . S
C5242 H5233 0.930 . S
C5242 C5240 1.384 . S
C5242 C5243 1.372 . S
C5243 C5242 1.372 . S
C5243 C5244 1.400 . S
C5243 C5248 1.490 . S
C5244 H5234 0.930 . S
C5244 C5243 1.400 . S
C5244 C5247 1.386 . S
H5245 C5261 0.930 . S
H5246 C5262 0.931 . S
C5247 H5235 0.929 . S
C5247 C5241 1.390 . S
C5247 C5244 1.386 . S
C5248 C5243 1.490 . S
C5248 C5250 1.395 . S
C5248 C5251 1.403 . S
H5249 C5255 0.930 . S
C5250 H5236 0.930 . S
C5250 C5248 1.395 . S
C5250 C5253 1.403 1_565 S
C5251 C5248 1.403 . S
C5251 C5252 1.524 . S
C5251 C5255 1.400 1_565 S
C5252 H5237 0.960 . S
C5252 H5238 0.960 . S
C5252 H5239 0.960 . S
C5252 C5251 1.524 . S
C5253 C5250 1.403 1_545 S
C5253 C5254 1.392 . S
C5253 C5257 1.495 . S
C5254 C5253 1.392 . S
C5254 C5255 1.385 . S
C5254 C5256 1.478 . S
C5255 H5249 0.930 . S
C5255 C5251 1.400 1_545 S
C5255 C5254 1.385 . S
C5256 C5254 1.478 . S
C5256 C5258 1.381 . S
C5256 C5262 1.383 . S
C5257 C5253 1.495 . S
C5257 H5263 0.959 . S
C5257 H5264 0.961 . S
C5257 H5265 0.960 . S
C5258 C5256 1.381 . S
C5258 C5259 1.394 . S
C5258 H5266 0.930 . S
C5259 C5258 1.394 . S
C5259 C5260 1.383 . S
C5259 H5267 0.929 . S
C5260 C5259 1.383 . S
C5260 C5261 1.377 . S
C5261 H5245 0.930 . S
C5261 C5260 1.377 . S
C5261 C5262 1.379 . S
C5262 H5246 0.931 . S
C5262 C5256 1.383 . S
C5262 C5261 1.379 . S
H5263 C5257 0.959 . S
H5264 C5257 0.961 . S
H5265 C5257 0.960 . S
H5266 C5258 0.930 . S
H5267 C5259 0.929 . S
H5268 C5276 0.929 . S
H5269 C5278 0.930 . S
H5270 C5280 0.930 . S
H5271 C5283 0.929 . S
H5272 C5286 0.930 . S
H5273 C5288 0.960 . S
H5274 C5288 0.960 . S
H5275 C5288 0.960 . S
C5276 H5268 0.929 . S
C5276 C5277 1.377 . S
C5276 C5278 1.384 . S
C5277 C5276 1.377 . S
C5277 C5283 1.390 . S
C5278 H5269 0.930 . S
C5278 C5276 1.384 . S
C5278 C5279 1.372 . S
C5279 C5278 1.372 . S
C5279 C5280 1.400 . S
C5279 C5284 1.490 . S
C5280 H5270 0.930 . S
C5280 C5279 1.400 . S
C5280 C5283 1.386 . S
H5281 C5297 0.930 . S
H5282 C5298 0.931 . S
C5283 H5271 0.929 . S
C5283 C5277 1.390 . S
C5283 C5280 1.386 . S
C5284 C5279 1.490 . S
C5284 C5286 1.395 . S
C5284 C5287 1.403 . S
H5285 C5291 0.930 . S
C5286 H5272 0.930 . S
C5286 C5284 1.395 . S
C5286 C5289 1.403 1_455 S
C5287 C5284 1.403 . S
C5287 C5288 1.524 . S
C5287 C5291 1.400 1_455 S
C5288 H5273 0.960 . S
C5288 H5274 0.960 . S
C5288 H5275 0.960 . S
C5288 C5287 1.524 . S
C5289 C5286 1.403 1_655 S
C5289 C5290 1.392 . S
C5289 C5293 1.495 . S
C5290 C5289 1.392 . S
C5290 C5291 1.385 . S
C5290 C5292 1.478 . S
C5291 H5285 0.930 . S
C5291 C5287 1.400 1_655 S
C5291 C5290 1.385 . S
C5292 C5290 1.478 . S
C5292 C5294 1.381 . S
C5292 C5298 1.383 . S
C5293 C5289 1.495 . S
C5293 H5299 0.959 . S
C5293 H5300 0.961 . S
C5293 H5301 0.960 . S
C5294 C5292 1.381 . S
C5294 C5295 1.394 . S
C5294 H5302 0.930 . S
C5295 C5294 1.394 . S
C5295 C5296 1.383 . S
C5295 H5303 0.929 . S
C5296 C5295 1.383 . S
C5296 C5297 1.377 . S
C5297 H5281 0.930 . S
C5297 C5296 1.377 . S
C5297 C5298 1.379 . S
C5298 H5282 0.931 . S
C5298 C5292 1.383 . S
C5298 C5297 1.379 . S
H5299 C5293 0.959 . S
H5300 C5293 0.961 . S
H5301 C5293 0.960 . S
H5302 C5294 0.930 . S
H5303 C5295 0.929 . S
H5304 C5312 0.929 . S
H5305 C5314 0.930 . S
H5306 C5316 0.930 . S
H5307 C5319 0.929 . S
H5308 C5322 0.930 . S
H5309 C5324 0.960 . S
H5310 C5324 0.960 . S
H5311 C5324 0.960 . S
C5312 H5304 0.929 . S
C5312 C5313 1.377 . S
C5312 C5314 1.384 . S
C5313 C5312 1.377 . S
C5313 C5319 1.390 . S
C5314 H5305 0.930 . S
C5314 C5312 1.384 . S
C5314 C5315 1.372 . S
C5315 C5314 1.372 . S
C5315 C5316 1.400 . S
C5315 C5320 1.490 . S
C5316 H5306 0.930 . S
C5316 C5315 1.400 . S
C5316 C5319 1.386 . S
H5317 C5333 0.930 . S
H5318 C5334 0.931 . S
C5319 H5307 0.929 . S
C5319 C5313 1.390 . S
C5319 C5316 1.386 . S
C5320 C5315 1.490 . S
C5320 C5322 1.395 . S
C5320 C5323 1.403 . S
H5321 C5327 0.930 . S
C5322 H5308 0.930 . S
C5322 C5320 1.395 . S
C5322 C5325 1.403 1_545 S
C5323 C5320 1.403 . S
C5323 C5324 1.524 . S
C5323 C5327 1.400 1_545 S
C5324 H5309 0.960 . S
C5324 H5310 0.960 . S
C5324 H5311 0.960 . S
C5324 C5323 1.524 . S
C5325 C5322 1.403 1_565 S
C5325 C5326 1.392 . S
C5325 C5329 1.495 . S
C5326 C5325 1.392 . S
C5326 C5327 1.385 . S
C5326 C5328 1.478 . S
C5327 H5321 0.930 . S
C5327 C5323 1.400 1_565 S
C5327 C5326 1.385 . S
C5328 C5326 1.478 . S
C5328 C5330 1.381 . S
C5328 C5334 1.383 . S
C5329 C5325 1.495 . S
C5329 H5335 0.959 . S
C5329 H5336 0.961 . S
C5329 H5337 0.960 . S
C5330 C5328 1.381 . S
C5330 C5331 1.394 . S
C5330 H5338 0.930 . S
C5331 C5330 1.394 . S
C5331 C5332 1.383 . S
C5331 H5339 0.929 . S
C5332 C5331 1.383 . S
C5332 C5333 1.377 . S
C5333 H5317 0.930 . S
C5333 C5332 1.377 . S
C5333 C5334 1.379 . S
C5334 H5318 0.931 . S
C5334 C5328 1.383 . S
C5334 C5333 1.379 . S
H5335 C5329 0.959 . S
H5336 C5329 0.961 . S
H5337 C5329 0.960 . S
H5338 C5330 0.930 . S
H5339 C5331 0.929 . S
H5340 C5348 0.929 . S
H5341 C5350 0.930 . S
H5342 C5352 0.930 . S
H5343 C5355 0.929 . S
H5344 C5358 0.930 . S
H5345 C5360 0.960 . S
H5346 C5360 0.960 . S
H5347 C5360 0.960 . S
C5348 H5340 0.929 . S
C5348 C5349 1.377 . S
C5348 C5350 1.384 . S
C5349 C5348 1.377 . S
C5349 C5355 1.390 . S
C5350 H5341 0.930 . S
C5350 C5348 1.384 . S
C5350 C5351 1.372 . S
C5351 C5350 1.372 . S
C5351 C5352 1.400 . S
C5351 C5356 1.490 . S
C5352 H5342 0.930 . S
C5352 C5351 1.400 . S
C5352 C5355 1.386 . S
H5353 C5369 0.930 . S
H5354 C5370 0.931 . S
C5355 H5343 0.929 . S
C5355 C5349 1.390 . S
C5355 C5352 1.386 . S
C5356 C5351 1.490 . S
C5356 C5358 1.395 . S
C5356 C5359 1.403 . S
H5357 C5363 0.930 . S
C5358 H5344 0.930 . S
C5358 C5356 1.395 . S
C5358 C5361 1.403 1_655 S
C5359 C5356 1.403 . S
C5359 C5360 1.524 . S
C5359 C5363 1.400 1_655 S
C5360 H5345 0.960 . S
C5360 H5346 0.960 . S
C5360 H5347 0.960 . S
C5360 C5359 1.524 . S
C5361 C5358 1.403 1_455 S
C5361 C5362 1.392 . S
C5361 C5365 1.495 . S
C5362 C5361 1.392 . S
C5362 C5363 1.385 . S
C5362 C5364 1.478 . S
C5363 H5357 0.930 . S
C5363 C5359 1.400 1_455 S
C5363 C5362 1.385 . S
C5364 C5362 1.478 . S
C5364 C5366 1.381 . S
C5364 C5370 1.383 . S
C5365 C5361 1.495 . S
C5365 H5371 0.959 . S
C5365 H5372 0.961 . S
C5365 H5373 0.960 . S
C5366 C5364 1.381 . S
C5366 C5367 1.394 . S
C5366 H5374 0.930 . S
C5367 C5366 1.394 . S
C5367 C5368 1.383 . S
C5367 H5375 0.929 . S
C5368 C5367 1.383 . S
C5368 C5369 1.377 . S
C5369 H5353 0.930 . S
C5369 C5368 1.377 . S
C5369 C5370 1.379 . S
C5370 H5354 0.931 . S
C5370 C5364 1.383 . S
C5370 C5369 1.379 . S
H5371 C5365 0.959 . S
H5372 C5365 0.961 . S
H5373 C5365 0.960 . S
H5374 C5366 0.930 . S
H5375 C5367 0.929 . S
H5376 C5384 0.929 . S
H5377 C5386 0.930 . S
H5378 C5388 0.930 . S
H5379 C5391 0.929 . S
H5380 C5394 0.930 . S
H5381 C5396 0.960 . S
H5382 C5396 0.960 . S
H5383 C5396 0.960 . S
C5384 H5376 0.929 . S
C5384 C5385 1.377 . S
C5384 C5386 1.384 . S
C5385 C5384 1.377 . S
C5385 C5391 1.390 . S
C5386 H5377 0.930 . S
C5386 C5384 1.384 . S
C5386 C5387 1.372 . S
C5387 C5386 1.372 . S
C5387 C5388 1.400 . S
C5387 C5392 1.490 . S
C5388 H5378 0.930 . S
C5388 C5387 1.400 . S
C5388 C5391 1.386 . S
H5389 C5405 0.930 . S
H5390 C5406 0.931 . S
C5391 H5379 0.929 . S
C5391 C5385 1.390 . S
C5391 C5388 1.386 . S
C5392 C5387 1.490 . S
C5392 C5394 1.395 . S
C5392 C5395 1.403 . S
H5393 C5399 0.930 . S
C5394 H5380 0.930 . S
C5394 C5392 1.395 . S
C5394 C5397 1.403 1_554 S
C5395 C5392 1.403 . S
C5395 C5396 1.524 . S
C5395 C5399 1.400 1_554 S
C5396 H5381 0.960 . S
C5396 H5382 0.960 . S
C5396 H5383 0.960 . S
C5396 C5395 1.524 . S
C5397 C5394 1.403 1_556 S
C5397 C5398 1.392 . S
C5397 C5401 1.495 . S
C5398 C5397 1.392 . S
C5398 C5399 1.385 . S
C5398 C5400 1.478 . S
C5399 H5393 0.930 . S
C5399 C5395 1.400 1_556 S
C5399 C5398 1.385 . S
C5400 C5398 1.478 . S
C5400 C5402 1.381 . S
C5400 C5406 1.383 . S
C5401 C5397 1.495 . S
C5401 H5407 0.959 . S
C5401 H5408 0.961 . S
C5401 H5409 0.960 . S
C5402 C5400 1.381 . S
C5402 C5403 1.394 . S
C5402 H5410 0.930 . S
C5403 C5402 1.394 . S
C5403 C5404 1.383 . S
C5403 H5411 0.929 . S
C5404 C5403 1.383 . S
C5404 C5405 1.377 . S
C5405 H5389 0.930 . S
C5405 C5404 1.377 . S
C5405 C5406 1.379 . S
C5406 H5390 0.931 . S
C5406 C5400 1.383 . S
C5406 C5405 1.379 . S
H5407 C5401 0.959 . S
H5408 C5401 0.961 . S
H5409 C5401 0.960 . S
H5410 C5402 0.930 . S
H5411 C5403 0.929 . S
H5412 C5420 0.929 . S
H5413 C5422 0.930 . S
H5414 C5424 0.930 . S
H5415 C5427 0.929 . S
H5416 C5430 0.930 . S
H5417 C5432 0.960 . S
H5418 C5432 0.960 . S
H5419 C5432 0.960 . S
C5420 H5412 0.929 . S
C5420 C5421 1.377 . S
C5420 C5422 1.384 . S
C5421 C5420 1.377 . S
C5421 C5427 1.390 . S
C5422 H5413 0.930 . S
C5422 C5420 1.384 . S
C5422 C5423 1.372 . S
C5423 C5422 1.372 . S
C5423 C5424 1.400 . S
C5423 C5428 1.490 . S
C5424 H5414 0.930 . S
C5424 C5423 1.400 . S
C5424 C5427 1.386 . S
H5425 C5441 0.930 . S
H5426 C5442 0.931 . S
C5427 H5415 0.929 . S
C5427 C5421 1.390 . S
C5427 C5424 1.386 . S
C5428 C5423 1.490 . S
C5428 C5430 1.395 . S
C5428 C5431 1.403 . S
H5429 C5435 0.930 . S
C5430 H5416 0.930 . S
C5430 C5428 1.395 . S
C5430 C5433 1.403 1_556 S
C5431 C5428 1.403 . S
C5431 C5432 1.524 . S
C5431 C5435 1.400 1_556 S
C5432 H5417 0.960 . S
C5432 H5418 0.960 . S
C5432 H5419 0.960 . S
C5432 C5431 1.524 . S
C5433 C5430 1.403 1_554 S
C5433 C5434 1.392 . S
C5433 C5437 1.495 . S
C5434 C5433 1.392 . S
C5434 C5435 1.385 . S
C5434 C5436 1.478 . S
C5435 H5429 0.930 . S
C5435 C5431 1.400 1_554 S
C5435 C5434 1.385 . S
C5436 C5434 1.478 . S
C5436 C5438 1.381 . S
C5436 C5442 1.383 . S
C5437 C5433 1.495 . S
C5437 H5443 0.959 . S
C5437 H5444 0.961 . S
C5437 H5445 0.960 . S
C5438 C5436 1.381 . S
C5438 C5439 1.394 . S
C5438 H5446 0.930 . S
C5439 C5438 1.394 . S
C5439 C5440 1.383 . S
C5439 H5447 0.929 . S
C5440 C5439 1.383 . S
C5440 C5441 1.377 . S
C5441 H5425 0.930 . S
C5441 C5440 1.377 . S
C5441 C5442 1.379 . S
C5442 H5426 0.931 . S
C5442 C5436 1.383 . S
C5442 C5441 1.379 . S
H5443 C5437 0.959 . S
H5444 C5437 0.961 . S
H5445 C5437 0.960 . S
H5446 C5438 0.930 . S
H5447 C5439 0.929 . S
H5448 C5456 0.929 . S
H5449 C5458 0.930 . S
H5450 C5460 0.930 . S
H5451 C5463 0.929 . S
H5452 C5466 0.930 . S
H5453 C5468 0.960 . S
H5454 C5468 0.960 . S
H5455 C5468 0.960 . S
C5456 H5448 0.929 . S
C5456 C5457 1.377 . S
C5456 C5458 1.384 . S
C5457 C5456 1.377 . S
C5457 C5463 1.390 . S
C5458 H5449 0.930 . S
C5458 C5456 1.384 . S
C5458 C5459 1.372 . S
C5459 C5458 1.372 . S
C5459 C5460 1.400 . S
C5459 C5464 1.490 . S
C5460 H5450 0.930 . S
C5460 C5459 1.400 . S
C5460 C5463 1.386 . S
H5461 C5477 0.930 . S
H5462 C5478 0.931 . S
C5463 H5451 0.929 . S
C5463 C5457 1.390 . S
C5463 C5460 1.386 . S
C5464 C5459 1.490 . S
C5464 C5466 1.395 . S
C5464 C5467 1.403 . S
H5465 C5471 0.930 . S
C5466 H5452 0.930 . S
C5466 C5464 1.395 . S
C5466 C5469 1.403 1_554 S
C5467 C5464 1.403 . S
C5467 C5468 1.524 . S
C5467 C5471 1.400 1_554 S
C5468 H5453 0.960 . S
C5468 H5454 0.960 . S
C5468 H5455 0.960 . S
C5468 C5467 1.524 . S
C5469 C5466 1.403 1_556 S
C5469 C5470 1.392 . S
C5469 C5473 1.495 . S
C5470 C5469 1.392 . S
C5470 C5471 1.385 . S
C5470 C5472 1.478 . S
C5471 H5465 0.930 . S
C5471 C5467 1.400 1_556 S
C5471 C5470 1.385 . S
C5472 C5470 1.478 . S
C5472 C5474 1.381 . S
C5472 C5478 1.383 . S
C5473 C5469 1.495 . S
C5473 H5479 0.959 . S
C5473 H5480 0.961 . S
C5473 H5481 0.960 . S
C5474 C5472 1.381 . S
C5474 C5475 1.394 . S
C5474 H5482 0.930 . S
C5475 C5474 1.394 . S
C5475 C5476 1.383 . S
C5475 H5483 0.929 . S
C5476 C5475 1.383 . S
C5476 C5477 1.377 . S
C5477 H5461 0.930 . S
C5477 C5476 1.377 . S
C5477 C5478 1.379 . S
C5478 H5462 0.931 . S
C5478 C5472 1.383 . S
C5478 C5477 1.379 . S
H5479 C5473 0.959 . S
H5480 C5473 0.961 . S
H5481 C5473 0.960 . S
H5482 C5474 0.930 . S
H5483 C5475 0.929 . S
H5484 C5492 0.929 . S
H5485 C5494 0.930 . S
H5486 C5496 0.930 . S
H5487 C5499 0.929 . S
H5488 C5502 0.930 . S
H5489 C5504 0.960 . S
H5490 C5504 0.960 . S
H5491 C5504 0.960 . S
C5492 H5484 0.929 . S
C5492 C5493 1.377 . S
C5492 C5494 1.384 . S
C5493 C5492 1.377 . S
C5493 C5499 1.390 . S
C5494 H5485 0.930 . S
C5494 C5492 1.384 . S
C5494 C5495 1.372 . S
C5495 C5494 1.372 . S
C5495 C5496 1.400 . S
C5495 C5500 1.490 . S
C5496 H5486 0.930 . S
C5496 C5495 1.400 . S
C5496 C5499 1.386 . S
H5497 C5513 0.930 . S
H5498 C5514 0.931 . S
C5499 H5487 0.929 . S
C5499 C5493 1.390 . S
C5499 C5496 1.386 . S
C5500 C5495 1.490 . S
C5500 C5502 1.395 . S
C5500 C5503 1.403 . S
H5501 C5507 0.930 . S
C5502 H5488 0.930 . S
C5502 C5500 1.395 . S
C5502 C5505 1.403 1_556 S
C5503 C5500 1.403 . S
C5503 C5504 1.524 . S
C5503 C5507 1.400 1_556 S
C5504 H5489 0.960 . S
C5504 H5490 0.960 . S
C5504 H5491 0.960 . S
C5504 C5503 1.524 . S
C5505 C5502 1.403 1_554 S
C5505 C5506 1.392 . S
C5505 C5509 1.495 . S
C5506 C5505 1.392 . S
C5506 C5507 1.385 . S
C5506 C5508 1.478 . S
C5507 H5501 0.930 . S
C5507 C5503 1.400 1_554 S
C5507 C5506 1.385 . S
C5508 C5506 1.478 . S
C5508 C5510 1.381 . S
C5508 C5514 1.383 . S
C5509 C5505 1.495 . S
C5509 H5515 0.959 . S
C5509 H5516 0.961 . S
C5509 H5517 0.960 . S
C5510 C5508 1.381 . S
C5510 C5511 1.394 . S
C5510 H5518 0.930 . S
C5511 C5510 1.394 . S
C5511 C5512 1.383 . S
C5511 H5519 0.929 . S
C5512 C5511 1.383 . S
C5512 C5513 1.377 . S
C5513 H5497 0.930 . S
C5513 C5512 1.377 . S
C5513 C5514 1.379 . S
C5514 H5498 0.931 . S
C5514 C5508 1.383 . S
C5514 C5513 1.379 . S
H5515 C5509 0.959 . S
H5516 C5509 0.961 . S
H5517 C5509 0.960 . S
H5518 C5510 0.930 . S
H5519 C5511 0.929 . S
H5520 C5528 0.929 . S
H5521 C5530 0.930 . S
H5522 C5532 0.930 . S
H5523 C5535 0.929 . S
H5524 C5538 0.930 . S
H5525 C5540 0.960 . S
H5526 C5540 0.960 . S
H5527 C5540 0.960 . S
C5528 H5520 0.929 . S
C5528 C5529 1.377 . S
C5528 C5530 1.384 . S
C5529 C5528 1.377 . S
C5529 C5535 1.390 . S
C5530 H5521 0.930 . S
C5530 C5528 1.384 . S
C5530 C5531 1.372 . S
C5531 C5530 1.372 . S
C5531 C5532 1.400 . S
C5531 C5536 1.490 . S
C5532 H5522 0.930 . S
C5532 C5531 1.400 . S
C5532 C5535 1.386 . S
H5533 C5549 0.930 . S
H5534 C5550 0.931 . S
C5535 H5523 0.929 . S
C5535 C5529 1.390 . S
C5535 C5532 1.386 . S
C5536 C5531 1.490 . S
C5536 C5538 1.395 . S
C5536 C5539 1.403 . S
H5537 C5543 0.930 . S
C5538 H5524 0.930 . S
C5538 C5536 1.395 . S
C5538 C5541 1.403 1_554 S
C5539 C5536 1.403 . S
C5539 C5540 1.524 . S
C5539 C5543 1.400 1_554 S
C5540 H5525 0.960 . S
C5540 H5526 0.960 . S
C5540 H5527 0.960 . S
C5540 C5539 1.524 . S
C5541 C5538 1.403 1_556 S
C5541 C5542 1.392 . S
C5541 C5545 1.495 . S
C5542 C5541 1.392 . S
C5542 C5543 1.385 . S
C5542 C5544 1.478 . S
C5543 H5537 0.930 . S
C5543 C5539 1.400 1_556 S
C5543 C5542 1.385 . S
C5544 C5542 1.478 . S
C5544 C5546 1.381 . S
C5544 C5550 1.383 . S
C5545 C5541 1.495 . S
C5545 H5551 0.959 . S
C5545 H5552 0.961 . S
C5545 H5553 0.960 . S
C5546 C5544 1.381 . S
C5546 C5547 1.394 . S
C5546 H5554 0.930 . S
C5547 C5546 1.394 . S
C5547 C5548 1.383 . S
C5547 H5555 0.929 . S
C5548 C5547 1.383 . S
C5548 C5549 1.377 . S
C5549 H5533 0.930 . S
C5549 C5548 1.377 . S
C5549 C5550 1.379 . S
C5550 H5534 0.931 . S
C5550 C5544 1.383 . S
C5550 C5549 1.379 . S
H5551 C5545 0.959 . S
H5552 C5545 0.961 . S
H5553 C5545 0.960 . S
H5554 C5546 0.930 . S
H5555 C5547 0.929 . S
H5556 C5564 0.929 . S
H5557 C5566 0.930 . S
H5558 C5568 0.930 . S
H5559 C5571 0.929 . S
H5560 C5574 0.930 . S
H5561 C5576 0.960 . S
H5562 C5576 0.960 . S
H5563 C5576 0.960 . S
C5564 H5556 0.929 . S
C5564 C5565 1.377 . S
C5564 C5566 1.384 . S
C5565 C5564 1.377 . S
C5565 C5571 1.390 . S
C5566 H5557 0.930 . S
C5566 C5564 1.384 . S
C5566 C5567 1.372 . S
C5567 C5566 1.372 . S
C5567 C5568 1.400 . S
C5567 C5572 1.490 . S
C5568 H5558 0.930 . S
C5568 C5567 1.400 . S
C5568 C5571 1.386 . S
H5569 C5585 0.930 . S
H5570 C5586 0.931 . S
C5571 H5559 0.929 . S
C5571 C5565 1.390 . S
C5571 C5568 1.386 . S
C5572 C5567 1.490 . S
C5572 C5574 1.395 . S
C5572 C5575 1.403 . S
H5573 C5579 0.930 . S
C5574 H5560 0.930 . S
C5574 C5572 1.395 . S
C5574 C5577 1.403 1_554 S
C5575 C5572 1.403 . S
C5575 C5576 1.524 . S
C5575 C5579 1.400 1_554 S
C5576 H5561 0.960 . S
C5576 H5562 0.960 . S
C5576 H5563 0.960 . S
C5576 C5575 1.524 . S
C5577 C5574 1.403 1_556 S
C5577 C5578 1.392 . S
C5577 C5581 1.495 . S
C5578 C5577 1.392 . S
C5578 C5579 1.385 . S
C5578 C5580 1.478 . S
C5579 H5573 0.930 . S
C5579 C5575 1.400 1_556 S
C5579 C5578 1.385 . S
C5580 C5578 1.478 . S
C5580 C5582 1.381 . S
C5580 C5586 1.383 . S
C5581 C5577 1.495 . S
C5581 H5587 0.959 . S
C5581 H5588 0.961 . S
C5581 H5589 0.960 . S
C5582 C5580 1.381 . S
C5582 C5583 1.394 . S
C5582 H5590 0.930 . S
C5583 C5582 1.394 . S
C5583 C5584 1.383 . S
C5583 H5591 0.929 . S
C5584 C5583 1.383 . S
C5584 C5585 1.377 . S
C5585 H5569 0.930 . S
C5585 C5584 1.377 . S
C5585 C5586 1.379 . S
C5586 H5570 0.931 . S
C5586 C5580 1.383 . S
C5586 C5585 1.379 . S
H5587 C5581 0.959 . S
H5588 C5581 0.961 . S
H5589 C5581 0.960 . S
H5590 C5582 0.930 . S
H5591 C5583 0.929 . S
H5592 C5600 0.929 . S
H5593 C5602 0.930 . S
H5594 C5604 0.930 . S
H5595 C5607 0.929 . S
H5596 C5610 0.930 . S
H5597 C5612 0.960 . S
H5598 C5612 0.960 . S
H5599 C5612 0.960 . S
C5600 H5592 0.929 . S
C5600 C5601 1.377 . S
C5600 C5602 1.384 . S
C5601 C5600 1.377 . S
C5601 C5607 1.390 . S
C5602 H5593 0.930 . S
C5602 C5600 1.384 . S
C5602 C5603 1.372 . S
C5603 C5602 1.372 . S
C5603 C5604 1.400 . S
C5603 C5608 1.490 . S
C5604 H5594 0.930 . S
C5604 C5603 1.400 . S
C5604 C5607 1.386 . S
H5605 C5621 0.930 . S
H5606 C5622 0.931 . S
C5607 H5595 0.929 . S
C5607 C5601 1.390 . S
C5607 C5604 1.386 . S
C5608 C5603 1.490 . S
C5608 C5610 1.395 . S
C5608 C5611 1.403 . S
H5609 C5615 0.930 . S
C5610 H5596 0.930 . S
C5610 C5608 1.395 . S
C5610 C5613 1.403 1_554 S
C5611 C5608 1.403 . S
C5611 C5612 1.524 . S
C5611 C5615 1.400 1_554 S
C5612 H5597 0.960 . S
C5612 H5598 0.960 . S
C5612 H5599 0.960 . S
C5612 C5611 1.524 . S
C5613 C5610 1.403 1_556 S
C5613 C5614 1.392 . S
C5613 C5617 1.495 . S
C5614 C5613 1.392 . S
C5614 C5615 1.385 . S
C5614 C5616 1.478 . S
C5615 H5609 0.930 . S
C5615 C5611 1.400 1_556 S
C5615 C5614 1.385 . S
C5616 C5614 1.478 . S
C5616 C5618 1.381 . S
C5616 C5622 1.383 . S
C5617 C5613 1.495 . S
C5617 H5623 0.959 . S
C5617 H5624 0.961 . S
C5617 H5625 0.960 . S
C5618 C5616 1.381 . S
C5618 C5619 1.394 . S
C5618 H5626 0.930 . S
C5619 C5618 1.394 . S
C5619 C5620 1.383 . S
C5619 H5627 0.929 . S
C5620 C5619 1.383 . S
C5620 C5621 1.377 . S
C5621 H5605 0.930 . S
C5621 C5620 1.377 . S
C5621 C5622 1.379 . S
C5622 H5606 0.931 . S
C5622 C5616 1.383 . S
C5622 C5621 1.379 . S
H5623 C5617 0.959 . S
H5624 C5617 0.961 . S
H5625 C5617 0.960 . S
H5626 C5618 0.930 . S
H5627 C5619 0.929 . S
H5628 C5636 0.929 . S
H5629 C5638 0.930 . S
H5630 C5640 0.930 . S
H5631 C5643 0.929 . S
H5632 C5646 0.930 . S
H5633 C5648 0.960 . S
H5634 C5648 0.960 . S
H5635 C5648 0.960 . S
C5636 H5628 0.929 . S
C5636 C5637 1.377 . S
C5636 C5638 1.384 . S
C5637 C5636 1.377 . S
C5637 C5643 1.390 . S
C5638 H5629 0.930 . S
C5638 C5636 1.384 . S
C5638 C5639 1.372 . S
C5639 C5638 1.372 . S
C5639 C5640 1.400 . S
C5639 C5644 1.490 . S
C5640 H5630 0.930 . S
C5640 C5639 1.400 . S
C5640 C5643 1.386 . S
H5641 C5657 0.930 . S
H5642 C5658 0.931 . S
C5643 H5631 0.929 . S
C5643 C5637 1.390 . S
C5643 C5640 1.386 . S
C5644 C5639 1.490 . S
C5644 C5646 1.395 . S
C5644 C5647 1.403 . S
H5645 C5651 0.930 . S
C5646 H5632 0.930 . S
C5646 C5644 1.395 . S
C5646 C5649 1.403 1_556 S
C5647 C5644 1.403 . S
C5647 C5648 1.524 . S
C5647 C5651 1.400 1_556 S
C5648 H5633 0.960 . S
C5648 H5634 0.960 . S
C5648 H5635 0.960 . S
C5648 C5647 1.524 . S
C5649 C5646 1.403 1_554 S
C5649 C5650 1.392 . S
C5649 C5653 1.495 . S
C5650 C5649 1.392 . S
C5650 C5651 1.385 . S
C5650 C5652 1.478 . S
C5651 H5645 0.930 . S
C5651 C5647 1.400 1_554 S
C5651 C5650 1.385 . S
C5652 C5650 1.478 . S
C5652 C5654 1.381 . S
C5652 C5658 1.383 . S
C5653 C5649 1.495 . S
C5653 H5659 0.959 . S
C5653 H5660 0.961 . S
C5653 H5661 0.960 . S
C5654 C5652 1.381 . S
C5654 C5655 1.394 . S
C5654 H5662 0.930 . S
C5655 C5654 1.394 . S
C5655 C5656 1.383 . S
C5655 H5663 0.929 . S
C5656 C5655 1.383 . S
C5656 C5657 1.377 . S
C5657 H5641 0.930 . S
C5657 C5656 1.377 . S
C5657 C5658 1.379 . S
C5658 H5642 0.931 . S
C5658 C5652 1.383 . S
C5658 C5657 1.379 . S
H5659 C5653 0.959 . S
H5660 C5653 0.961 . S
H5661 C5653 0.960 . S
H5662 C5654 0.930 . S
H5663 C5655 0.929 . S
H5664 C5672 0.929 . S
H5665 C5674 0.930 . S
H5666 C5676 0.930 . S
H5667 C5679 0.929 . S
H5668 C5682 0.930 . S
H5669 C5684 0.960 . S
H5670 C5684 0.960 . S
H5671 C5684 0.960 . S
C5672 H5664 0.929 . S
C5672 C5673 1.377 . S
C5672 C5674 1.384 . S
C5673 C5672 1.377 . S
C5673 C5679 1.390 . S
C5674 H5665 0.930 . S
C5674 C5672 1.384 . S
C5674 C5675 1.372 . S
C5675 C5674 1.372 . S
C5675 C5676 1.400 . S
C5675 C5680 1.490 . S
C5676 H5666 0.930 . S
C5676 C5675 1.400 . S
C5676 C5679 1.386 . S
H5677 C5693 0.930 . S
H5678 C5694 0.931 . S
C5679 H5667 0.929 . S
C5679 C5673 1.390 . S
C5679 C5676 1.386 . S
C5680 C5675 1.490 . S
C5680 C5682 1.395 . S
C5680 C5683 1.403 . S
H5681 C5687 0.930 . S
C5682 H5668 0.930 . S
C5682 C5680 1.395 . S
C5682 C5685 1.403 . S
C5683 C5680 1.403 . S
C5683 C5684 1.524 . S
C5683 C5687 1.400 . S
C5684 H5669 0.960 . S
C5684 H5670 0.960 . S
C5684 H5671 0.960 . S
C5684 C5683 1.524 . S
C5685 C5682 1.403 . S
C5685 C5686 1.392 . S
C5685 C5689 1.495 . S
C5686 C5685 1.392 . S
C5686 C5687 1.385 . S
C5686 C5688 1.478 . S
C5687 H5681 0.930 . S
C5687 C5683 1.400 . S
C5687 C5686 1.385 . S
C5688 C5686 1.478 . S
C5688 C5690 1.381 . S
C5688 C5694 1.383 . S
C5689 C5685 1.495 . S
C5689 H5695 0.959 . S
C5689 H5696 0.961 . S
C5689 H5697 0.960 . S
C5690 C5688 1.381 . S
C5690 C5691 1.394 . S
C5690 H5698 0.930 . S
C5691 C5690 1.394 . S
C5691 C5692 1.383 . S
C5691 H5699 0.929 . S
C5692 C5691 1.383 . S
C5692 C5693 1.377 . S
C5693 H5677 0.930 . S
C5693 C5692 1.377 . S
C5693 C5694 1.379 . S
C5694 H5678 0.931 . S
C5694 C5688 1.383 . S
C5694 C5693 1.379 . S
H5695 C5689 0.959 . S
H5696 C5689 0.961 . S
H5697 C5689 0.960 . S
H5698 C5690 0.930 . S
H5699 C5691 0.929 . S
H5700 C5708 0.929 . S
H5701 C5710 0.930 . S
H5702 C5712 0.930 . S
H5703 C5715 0.929 . S
H5704 C5718 0.930 . S
H5705 C5720 0.960 . S
H5706 C5720 0.960 . S
H5707 C5720 0.960 . S
C5708 H5700 0.929 . S
C5708 C5709 1.377 . S
C5708 C5710 1.384 . S
C5709 C5708 1.377 . S
C5709 C5715 1.390 . S
C5710 H5701 0.930 . S
C5710 C5708 1.384 . S
C5710 C5711 1.372 . S
C5711 C5710 1.372 . S
C5711 C5712 1.400 . S
C5711 C5716 1.490 . S
C5712 H5702 0.930 . S
C5712 C5711 1.400 . S
C5712 C5715 1.386 . S
H5713 C5729 0.930 . S
H5714 C5730 0.931 . S
C5715 H5703 0.929 . S
C5715 C5709 1.390 . S
C5715 C5712 1.386 . S
C5716 C5711 1.490 . S
C5716 C5718 1.395 . S
C5716 C5719 1.403 . S
H5717 C5723 0.930 . S
C5718 H5704 0.930 . S
C5718 C5716 1.395 . S
C5718 C5721 1.403 . S
C5719 C5716 1.403 . S
C5719 C5720 1.524 . S
C5719 C5723 1.400 . S
C5720 H5705 0.960 . S
C5720 H5706 0.960 . S
C5720 H5707 0.960 . S
C5720 C5719 1.524 . S
C5721 C5718 1.403 . S
C5721 C5722 1.392 . S
C5721 C5725 1.495 . S
C5722 C5721 1.392 . S
C5722 C5723 1.385 . S
C5722 C5724 1.478 . S
C5723 H5717 0.930 . S
C5723 C5719 1.400 . S
C5723 C5722 1.385 . S
C5724 C5722 1.478 . S
C5724 C5726 1.381 . S
C5724 C5730 1.383 . S
C5725 C5721 1.495 . S
C5725 H5731 0.959 . S
C5725 H5732 0.961 . S
C5725 H5733 0.960 . S
C5726 C5724 1.381 . S
C5726 C5727 1.394 . S
C5726 H5734 0.930 . S
C5727 C5726 1.394 . S
C5727 C5728 1.383 . S
C5727 H5735 0.929 . S
C5728 C5727 1.383 . S
C5728 C5729 1.377 . S
C5729 H5713 0.930 . S
C5729 C5728 1.377 . S
C5729 C5730 1.379 . S
C5730 H5714 0.931 . S
C5730 C5724 1.383 . S
C5730 C5729 1.379 . S
H5731 C5725 0.959 . S
H5732 C5725 0.961 . S
H5733 C5725 0.960 . S
H5734 C5726 0.930 . S
H5735 C5727 0.929 . S
H5736 C5744 0.929 . S
H5737 C5746 0.930 . S
H5738 C5748 0.930 . S
H5739 C5751 0.929 . S
H5740 C5754 0.930 . S
H5741 C5756 0.960 . S
H5742 C5756 0.960 . S
H5743 C5756 0.960 . S
C5744 H5736 0.929 . S
C5744 C5745 1.377 . S
C5744 C5746 1.384 . S
C5745 C5744 1.377 . S
C5745 C5751 1.390 . S
C5746 H5737 0.930 . S
C5746 C5744 1.384 . S
C5746 C5747 1.372 . S
C5747 C5746 1.372 . S
C5747 C5748 1.400 . S
C5747 C5752 1.490 . S
C5748 H5738 0.930 . S
C5748 C5747 1.400 . S
C5748 C5751 1.386 . S
H5749 C5765 0.930 . S
H5750 C5766 0.931 . S
C5751 H5739 0.929 . S
C5751 C5745 1.390 . S
C5751 C5748 1.386 . S
C5752 C5747 1.490 . S
C5752 C5754 1.395 . S
C5752 C5755 1.403 . S
H5753 C5759 0.930 . S
C5754 H5740 0.930 . S
C5754 C5752 1.395 . S
C5754 C5757 1.403 . S
C5755 C5752 1.403 . S
C5755 C5756 1.524 . S
C5755 C5759 1.400 . S
C5756 H5741 0.960 . S
C5756 H5742 0.960 . S
C5756 H5743 0.960 . S
C5756 C5755 1.524 . S
C5757 C5754 1.403 . S
C5757 C5758 1.392 . S
C5757 C5761 1.495 . S
C5758 C5757 1.392 . S
C5758 C5759 1.385 . S
C5758 C5760 1.478 . S
C5759 H5753 0.930 . S
C5759 C5755 1.400 . S
C5759 C5758 1.385 . S
C5760 C5758 1.478 . S
C5760 C5762 1.381 . S
C5760 C5766 1.383 . S
C5761 C5757 1.495 . S
C5761 H5767 0.959 . S
C5761 H5768 0.961 . S
C5761 H5769 0.960 . S
C5762 C5760 1.381 . S
C5762 C5763 1.394 . S
C5762 H5770 0.930 . S
C5763 C5762 1.394 . S
C5763 C5764 1.383 . S
C5763 H5771 0.929 . S
C5764 C5763 1.383 . S
C5764 C5765 1.377 . S
C5765 H5749 0.930 . S
C5765 C5764 1.377 . S
C5765 C5766 1.379 . S
C5766 H5750 0.931 . S
C5766 C5760 1.383 . S
C5766 C5765 1.379 . S
H5767 C5761 0.959 . S
H5768 C5761 0.961 . S
H5769 C5761 0.960 . S
H5770 C5762 0.930 . S
H5771 C5763 0.929 . S
H5772 C5780 0.929 . S
H5773 C5782 0.930 . S
H5774 C5784 0.930 . S
H5775 C5787 0.929 . S
H5776 C5790 0.930 . S
H5777 C5792 0.960 . S
H5778 C5792 0.960 . S
H5779 C5792 0.960 . S
C5780 H5772 0.929 . S
C5780 C5781 1.377 . S
C5780 C5782 1.384 . S
C5781 C5780 1.377 . S
C5781 C5787 1.390 . S
C5782 H5773 0.930 . S
C5782 C5780 1.384 . S
C5782 C5783 1.372 . S
C5783 C5782 1.372 . S
C5783 C5784 1.400 . S
C5783 C5788 1.490 . S
C5784 H5774 0.930 . S
C5784 C5783 1.400 . S
C5784 C5787 1.386 . S
H5785 C5801 0.930 . S
H5786 C5802 0.931 . S
C5787 H5775 0.929 . S
C5787 C5781 1.390 . S
C5787 C5784 1.386 . S
C5788 C5783 1.490 . S
C5788 C5790 1.395 . S
C5788 C5791 1.403 . S
H5789 C5795 0.930 . S
C5790 H5776 0.930 . S
C5790 C5788 1.395 . S
C5790 C5793 1.403 . S
C5791 C5788 1.403 . S
C5791 C5792 1.524 . S
C5791 C5795 1.400 . S
C5792 H5777 0.960 . S
C5792 H5778 0.960 . S
C5792 H5779 0.960 . S
C5792 C5791 1.524 . S
C5793 C5790 1.403 . S
C5793 C5794 1.392 . S
C5793 C5797 1.495 . S
C5794 C5793 1.392 . S
C5794 C5795 1.385 . S
C5794 C5796 1.478 . S
C5795 H5789 0.930 . S
C5795 C5791 1.400 . S
C5795 C5794 1.385 . S
C5796 C5794 1.478 . S
C5796 C5798 1.381 . S
C5796 C5802 1.383 . S
C5797 C5793 1.495 . S
C5797 H5803 0.959 . S
C5797 H5804 0.961 . S
C5797 H5805 0.960 . S
C5798 C5796 1.381 . S
C5798 C5799 1.394 . S
C5798 H5806 0.930 . S
C5799 C5798 1.394 . S
C5799 C5800 1.383 . S
C5799 H5807 0.929 . S
C5800 C5799 1.383 . S
C5800 C5801 1.377 . S
C5801 H5785 0.930 . S
C5801 C5800 1.377 . S
C5801 C5802 1.379 . S
C5802 H5786 0.931 . S
C5802 C5796 1.383 . S
C5802 C5801 1.379 . S
H5803 C5797 0.959 . S
H5804 C5797 0.961 . S
H5805 C5797 0.960 . S
H5806 C5798 0.930 . S
H5807 C5799 0.929 . S
H5808 C5816 0.929 . S
H5809 C5818 0.930 . S
H5810 C5820 0.930 . S
H5811 C5823 0.929 . S
H5812 C5826 0.930 . S
H5813 C5828 0.960 . S
H5814 C5828 0.960 . S
H5815 C5828 0.960 . S
C5816 H5808 0.929 . S
C5816 C5817 1.377 . S
C5816 C5818 1.384 . S
C5817 C5816 1.377 . S
C5817 C5823 1.390 . S
C5818 H5809 0.930 . S
C5818 C5816 1.384 . S
C5818 C5819 1.372 . S
C5819 C5818 1.372 . S
C5819 C5820 1.400 . S
C5819 C5824 1.490 . S
C5820 H5810 0.930 . S
C5820 C5819 1.400 . S
C5820 C5823 1.386 . S
H5821 C5837 0.930 . S
H5822 C5838 0.931 . S
C5823 H5811 0.929 . S
C5823 C5817 1.390 . S
C5823 C5820 1.386 . S
C5824 C5819 1.490 . S
C5824 C5826 1.395 . S
C5824 C5827 1.403 . S
H5825 C5831 0.930 . S
C5826 H5812 0.930 . S
C5826 C5824 1.395 . S
C5826 C5829 1.403 . S
C5827 C5824 1.403 . S
C5827 C5828 1.524 . S
C5827 C5831 1.400 . S
C5828 H5813 0.960 . S
C5828 H5814 0.960 . S
C5828 H5815 0.960 . S
C5828 C5827 1.524 . S
C5829 C5826 1.403 . S
C5829 C5830 1.392 . S
C5829 C5833 1.495 . S
C5830 C5829 1.392 . S
C5830 C5831 1.385 . S
C5830 C5832 1.478 . S
C5831 H5825 0.930 . S
C5831 C5827 1.400 . S
C5831 C5830 1.385 . S
C5832 C5830 1.478 . S
C5832 C5834 1.381 . S
C5832 C5838 1.383 . S
C5833 C5829 1.495 . S
C5833 H5839 0.959 . S
C5833 H5840 0.961 . S
C5833 H5841 0.960 . S
C5834 C5832 1.381 . S
C5834 C5835 1.394 . S
C5834 H5842 0.930 . S
C5835 C5834 1.394 . S
C5835 C5836 1.383 . S
C5835 H5843 0.929 . S
C5836 C5835 1.383 . S
C5836 C5837 1.377 . S
C5837 H5821 0.930 . S
C5837 C5836 1.377 . S
C5837 C5838 1.379 . S
C5838 H5822 0.931 . S
C5838 C5832 1.383 . S
C5838 C5837 1.379 . S
H5839 C5833 0.959 . S
H5840 C5833 0.961 . S
H5841 C5833 0.960 . S
H5842 C5834 0.930 . S
H5843 C5835 0.929 . S
H5844 C5852 0.929 . S
H5845 C5854 0.930 . S
H5846 C5856 0.930 . S
H5847 C5859 0.929 . S
H5848 C5862 0.930 . S
H5849 C5864 0.960 . S
H5850 C5864 0.960 . S
H5851 C5864 0.960 . S
C5852 H5844 0.929 . S
C5852 C5853 1.377 . S
C5852 C5854 1.384 . S
C5853 C5852 1.377 . S
C5853 C5859 1.390 . S
C5854 H5845 0.930 . S
C5854 C5852 1.384 . S
C5854 C5855 1.372 . S
C5855 C5854 1.372 . S
C5855 C5856 1.400 . S
C5855 C5860 1.490 . S
C5856 H5846 0.930 . S
C5856 C5855 1.400 . S
C5856 C5859 1.386 . S
H5857 C5873 0.930 . S
H5858 C5874 0.931 . S
C5859 H5847 0.929 . S
C5859 C5853 1.390 . S
C5859 C5856 1.386 . S
C5860 C5855 1.490 . S
C5860 C5862 1.395 . S
C5860 C5863 1.403 . S
H5861 C5867 0.930 . S
C5862 H5848 0.930 . S
C5862 C5860 1.395 . S
C5862 C5865 1.403 . S
C5863 C5860 1.403 . S
C5863 C5864 1.524 . S
C5863 C5867 1.400 . S
C5864 H5849 0.960 . S
C5864 H5850 0.960 . S
C5864 H5851 0.960 . S
C5864 C5863 1.524 . S
C5865 C5862 1.403 . S
C5865 C5866 1.392 . S
C5865 C5869 1.495 . S
C5866 C5865 1.392 . S
C5866 C5867 1.385 . S
C5866 C5868 1.478 . S
C5867 H5861 0.930 . S
C5867 C5863 1.400 . S
C5867 C5866 1.385 . S
C5868 C5866 1.478 . S
C5868 C5870 1.381 . S
C5868 C5874 1.383 . S
C5869 C5865 1.495 . S
C5869 H5875 0.959 . S
C5869 H5876 0.961 . S
C5869 H5877 0.960 . S
C5870 C5868 1.381 . S
C5870 C5871 1.394 . S
C5870 H5878 0.930 . S
C5871 C5870 1.394 . S
C5871 C5872 1.383 . S
C5871 H5879 0.929 . S
C5872 C5871 1.383 . S
C5872 C5873 1.377 . S
C5873 H5857 0.930 . S
C5873 C5872 1.377 . S
C5873 C5874 1.379 . S
C5874 H5858 0.931 . S
C5874 C5868 1.383 . S
C5874 C5873 1.379 . S
H5875 C5869 0.959 . S
H5876 C5869 0.961 . S
H5877 C5869 0.960 . S
H5878 C5870 0.930 . S
H5879 C5871 0.929 . S
H5880 C5888 0.929 . S
H5881 C5890 0.930 . S
H5882 C5892 0.930 . S
H5883 C5895 0.929 . S
H5884 C5898 0.930 . S
H5885 C5900 0.960 . S
H5886 C5900 0.960 . S
H5887 C5900 0.960 . S
C5888 H5880 0.929 . S
C5888 C5889 1.377 . S
C5888 C5890 1.384 . S
C5889 C5888 1.377 . S
C5889 C5895 1.390 . S
C5890 H5881 0.930 . S
C5890 C5888 1.384 . S
C5890 C5891 1.372 . S
C5891 C5890 1.372 . S
C5891 C5892 1.400 . S
C5891 C5896 1.490 . S
C5892 H5882 0.930 . S
C5892 C5891 1.400 . S
C5892 C5895 1.386 . S
H5893 C5909 0.930 . S
H5894 C5910 0.931 . S
C5895 H5883 0.929 . S
C5895 C5889 1.390 . S
C5895 C5892 1.386 . S
C5896 C5891 1.490 . S
C5896 C5898 1.395 . S
C5896 C5899 1.403 . S
H5897 C5903 0.930 . S
C5898 H5884 0.930 . S
C5898 C5896 1.395 . S
C5898 C5901 1.403 . S
C5899 C5896 1.403 . S
C5899 C5900 1.524 . S
C5899 C5903 1.400 . S
C5900 H5885 0.960 . S
C5900 H5886 0.960 . S
C5900 H5887 0.960 . S
C5900 C5899 1.524 . S
C5901 C5898 1.403 . S
C5901 C5902 1.392 . S
C5901 C5905 1.495 . S
C5902 C5901 1.392 . S
C5902 C5903 1.385 . S
C5902 C5904 1.478 . S
C5903 H5897 0.930 . S
C5903 C5899 1.400 . S
C5903 C5902 1.385 . S
C5904 C5902 1.478 . S
C5904 C5906 1.381 . S
C5904 C5910 1.383 . S
C5905 C5901 1.495 . S
C5905 H5911 0.959 . S
C5905 H5912 0.961 . S
C5905 H5913 0.960 . S
C5906 C5904 1.381 . S
C5906 C5907 1.394 . S
C5906 H5914 0.930 . S
C5907 C5906 1.394 . S
C5907 C5908 1.383 . S
C5907 H5915 0.929 . S
C5908 C5907 1.383 . S
C5908 C5909 1.377 . S
C5909 H5893 0.930 . S
C5909 C5908 1.377 . S
C5909 C5910 1.379 . S
C5910 H5894 0.931 . S
C5910 C5904 1.383 . S
C5910 C5909 1.379 . S
H5911 C5905 0.959 . S
H5912 C5905 0.961 . S
H5913 C5905 0.960 . S
H5914 C5906 0.930 . S
H5915 C5907 0.929 . S
H5916 C5924 0.929 . S
H5917 C5926 0.930 . S
H5918 C5928 0.930 . S
H5919 C5931 0.929 . S
H5920 C5934 0.930 . S
H5921 C5936 0.960 . S
H5922 C5936 0.960 . S
H5923 C5936 0.960 . S
C5924 H5916 0.929 . S
C5924 C5925 1.377 . S
C5924 C5926 1.384 . S
C5925 C5924 1.377 . S
C5925 C5931 1.390 . S
C5926 H5917 0.930 . S
C5926 C5924 1.384 . S
C5926 C5927 1.372 . S
C5927 C5926 1.372 . S
C5927 C5928 1.400 . S
C5927 C5932 1.490 . S
C5928 H5918 0.930 . S
C5928 C5927 1.400 . S
C5928 C5931 1.386 . S
H5929 C5945 0.930 . S
H5930 C5946 0.931 . S
C5931 H5919 0.929 . S
C5931 C5925 1.390 . S
C5931 C5928 1.386 . S
C5932 C5927 1.490 . S
C5932 C5934 1.395 . S
C5932 C5935 1.403 . S
H5933 C5939 0.930 . S
C5934 H5920 0.930 . S
C5934 C5932 1.395 . S
C5934 C5937 1.403 . S
C5935 C5932 1.403 . S
C5935 C5936 1.524 . S
C5935 C5939 1.400 . S
C5936 H5921 0.960 . S
C5936 H5922 0.960 . S
C5936 H5923 0.960 . S
C5936 C5935 1.524 . S
C5937 C5934 1.403 . S
C5937 C5938 1.392 . S
C5937 C5941 1.495 . S
C5938 C5937 1.392 . S
C5938 C5939 1.385 . S
C5938 C5940 1.478 . S
C5939 H5933 0.930 . S
C5939 C5935 1.400 . S
C5939 C5938 1.385 . S
C5940 C5938 1.478 . S
C5940 C5942 1.381 . S
C5940 C5946 1.383 . S
C5941 C5937 1.495 . S
C5941 H5947 0.959 . S
C5941 H5948 0.961 . S
C5941 H5949 0.960 . S
C5942 C5940 1.381 . S
C5942 C5943 1.394 . S
C5942 H5950 0.930 . S
C5943 C5942 1.394 . S
C5943 C5944 1.383 . S
C5943 H5951 0.929 . S
C5944 C5943 1.383 . S
C5944 C5945 1.377 . S
C5945 H5929 0.930 . S
C5945 C5944 1.377 . S
C5945 C5946 1.379 . S
C5946 H5930 0.931 . S
C5946 C5940 1.383 . S
C5946 C5945 1.379 . S
H5947 C5941 0.959 . S
H5948 C5941 0.961 . S
H5949 C5941 0.960 . S
H5950 C5942 0.930 . S
H5951 C5943 0.929 . S
H5952 C5960 0.929 . S
H5953 C5962 0.930 . S
H5954 C5964 0.930 . S
H5955 C5967 0.929 . S
H5956 C5970 0.930 . S
H5957 C5972 0.960 . S
H5958 C5972 0.960 . S
H5959 C5972 0.960 . S
C5960 H5952 0.929 . S
C5960 C5961 1.377 . S
C5960 C5962 1.384 . S
C5961 C5960 1.377 . S
C5961 C5967 1.390 . S
C5962 H5953 0.930 . S
C5962 C5960 1.384 . S
C5962 C5963 1.372 . S
C5963 C5962 1.372 . S
C5963 C5964 1.400 . S
C5963 C5968 1.490 . S
C5964 H5954 0.930 . S
C5964 C5963 1.400 . S
C5964 C5967 1.386 . S
H5965 C5981 0.930 . S
H5966 C5982 0.931 . S
C5967 H5955 0.929 . S
C5967 C5961 1.390 . S
C5967 C5964 1.386 . S
C5968 C5963 1.490 . S
C5968 C5970 1.395 . S
C5968 C5971 1.403 . S
H5969 C5975 0.930 . S
C5970 H5956 0.930 . S
C5970 C5968 1.395 . S
C5970 C5973 1.403 . S
C5971 C5968 1.403 . S
C5971 C5972 1.524 . S
C5971 C5975 1.400 . S
C5972 H5957 0.960 . S
C5972 H5958 0.960 . S
C5972 H5959 0.960 . S
C5972 C5971 1.524 . S
C5973 C5970 1.403 . S
C5973 C5974 1.392 . S
C5973 C5977 1.495 . S
C5974 C5973 1.392 . S
C5974 C5975 1.385 . S
C5974 C5976 1.478 . S
C5975 H5969 0.930 . S
C5975 C5971 1.400 . S
C5975 C5974 1.385 . S
C5976 C5974 1.478 . S
C5976 C5978 1.381 . S
C5976 C5982 1.383 . S
C5977 C5973 1.495 . S
C5977 H5983 0.959 . S
C5977 H5984 0.961 . S
C5977 H5985 0.960 . S
C5978 C5976 1.381 . S
C5978 C5979 1.394 . S
C5978 H5986 0.930 . S
C5979 C5978 1.394 . S
C5979 C5980 1.383 . S
C5979 H5987 0.929 . S
C5980 C5979 1.383 . S
C5980 C5981 1.377 . S
C5981 H5965 0.930 . S
C5981 C5980 1.377 . S
C5981 C5982 1.379 . S
C5982 H5966 0.931 . S
C5982 C5976 1.383 . S
C5982 C5981 1.379 . S
H5983 C5977 0.959 . S
H5984 C5977 0.961 . S
H5985 C5977 0.960 . S
H5986 C5978 0.930 . S
H5987 C5979 0.929 . S
H5988 C5996 0.929 . S
H5989 C5998 0.930 . S
H5990 C6000 0.930 . S
H5991 C6003 0.929 . S
H5992 C6006 0.930 . S
H5993 C6008 0.960 . S
H5994 C6008 0.960 . S
H5995 C6008 0.960 . S
C5996 H5988 0.929 . S
C5996 C5997 1.377 . S
C5996 C5998 1.384 . S
C5997 C5996 1.377 . S
C5997 C6003 1.390 . S
C5998 H5989 0.930 . S
C5998 C5996 1.384 . S
C5998 C5999 1.372 . S
C5999 C5998 1.372 . S
C5999 C6000 1.400 . S
C5999 C6004 1.490 . S
C6000 H5990 0.930 . S
C6000 C5999 1.400 . S
C6000 C6003 1.386 . S
H6001 C6017 0.930 . S
H6002 C6018 0.931 . S
C6003 H5991 0.929 . S
C6003 C5997 1.390 . S
C6003 C6000 1.386 . S
C6004 C5999 1.490 . S
C6004 C6006 1.395 . S
C6004 C6007 1.403 . S
H6005 C6011 0.930 . S
C6006 H5992 0.930 . S
C6006 C6004 1.395 . S
C6006 C6009 1.403 . S
C6007 C6004 1.403 . S
C6007 C6008 1.524 . S
C6007 C6011 1.400 . S
C6008 H5993 0.960 . S
C6008 H5994 0.960 . S
C6008 H5995 0.960 . S
C6008 C6007 1.524 . S
C6009 C6006 1.403 . S
C6009 C6010 1.392 . S
C6009 C6013 1.495 . S
C6010 C6009 1.392 . S
C6010 C6011 1.385 . S
C6010 C6012 1.478 . S
C6011 H6005 0.930 . S
C6011 C6007 1.400 . S
C6011 C6010 1.385 . S
C6012 C6010 1.478 . S
C6012 C6014 1.381 . S
C6012 C6018 1.383 . S
C6013 C6009 1.495 . S
C6013 H6019 0.959 . S
C6013 H6020 0.961 . S
C6013 H6021 0.960 . S
C6014 C6012 1.381 . S
C6014 C6015 1.394 . S
C6014 H6022 0.930 . S
C6015 C6014 1.394 . S
C6015 C6016 1.383 . S
C6015 H6023 0.929 . S
C6016 C6015 1.383 . S
C6016 C6017 1.377 . S
C6017 H6001 0.930 . S
C6017 C6016 1.377 . S
C6017 C6018 1.379 . S
C6018 H6002 0.931 . S
C6018 C6012 1.383 . S
C6018 C6017 1.379 . S
H6019 C6013 0.959 . S
H6020 C6013 0.961 . S
H6021 C6013 0.960 . S
H6022 C6014 0.930 . S
H6023 C6015 0.929 . S
H6024 C6032 0.929 . S
H6025 C6034 0.930 . S
H6026 C6036 0.930 . S
H6027 C6039 0.929 . S
H6028 C6042 0.930 . S
H6029 C6044 0.960 . S
H6030 C6044 0.960 . S
H6031 C6044 0.960 . S
C6032 H6024 0.929 . S
C6032 C6033 1.377 . S
C6032 C6034 1.384 . S
C6033 C6032 1.377 . S
C6033 C6039 1.390 . S
C6034 H6025 0.930 . S
C6034 C6032 1.384 . S
C6034 C6035 1.372 . S
C6035 C6034 1.372 . S
C6035 C6036 1.400 . S
C6035 C6040 1.490 . S
C6036 H6026 0.930 . S
C6036 C6035 1.400 . S
C6036 C6039 1.386 . S
H6037 C6053 0.930 . S
H6038 C6054 0.931 . S
C6039 H6027 0.929 . S
C6039 C6033 1.390 . S
C6039 C6036 1.386 . S
C6040 C6035 1.490 . S
C6040 C6042 1.395 . S
C6040 C6043 1.403 . S
H6041 C6047 0.930 . S
C6042 H6028 0.930 . S
C6042 C6040 1.395 . S
C6042 C6045 1.403 . S
C6043 C6040 1.403 . S
C6043 C6044 1.524 . S
C6043 C6047 1.400 . S
C6044 H6029 0.960 . S
C6044 H6030 0.960 . S
C6044 H6031 0.960 . S
C6044 C6043 1.524 . S
C6045 C6042 1.403 . S
C6045 C6046 1.392 . S
C6045 C6049 1.495 . S
C6046 C6045 1.392 . S
C6046 C6047 1.385 . S
C6046 C6048 1.478 . S
C6047 H6041 0.930 . S
C6047 C6043 1.400 . S
C6047 C6046 1.385 . S
C6048 C6046 1.478 . S
C6048 C6050 1.381 . S
C6048 C6054 1.383 . S
C6049 C6045 1.495 . S
C6049 H6055 0.959 . S
C6049 H6056 0.961 . S
C6049 H6057 0.960 . S
C6050 C6048 1.381 . S
C6050 C6051 1.394 . S
C6050 H6058 0.930 . S
C6051 C6050 1.394 . S
C6051 C6052 1.383 . S
C6051 H6059 0.929 . S
C6052 C6051 1.383 . S
C6052 C6053 1.377 . S
C6053 H6037 0.930 . S
C6053 C6052 1.377 . S
C6053 C6054 1.379 . S
C6054 H6038 0.931 . S
C6054 C6048 1.383 . S
C6054 C6053 1.379 . S
H6055 C6049 0.959 . S
H6056 C6049 0.961 . S
H6057 C6049 0.960 . S
H6058 C6050 0.930 . S
H6059 C6051 0.929 . S
H6060 C6068 0.929 . S
H6061 C6070 0.930 . S
H6062 C6072 0.930 . S
H6063 C6075 0.929 . S
H6064 C6078 0.930 . S
H6065 C6080 0.960 . S
H6066 C6080 0.960 . S
H6067 C6080 0.960 . S
C6068 H6060 0.929 . S
C6068 C6069 1.377 . S
C6068 C6070 1.384 . S
C6069 C6068 1.377 . S
C6069 C6075 1.390 . S
C6070 H6061 0.930 . S
C6070 C6068 1.384 . S
C6070 C6071 1.372 . S
C6071 C6070 1.372 . S
C6071 C6072 1.400 . S
C6071 C6076 1.490 . S
C6072 H6062 0.930 . S
C6072 C6071 1.400 . S
C6072 C6075 1.386 . S
H6073 C6089 0.930 . S
H6074 C6090 0.931 . S
C6075 H6063 0.929 . S
C6075 C6069 1.390 . S
C6075 C6072 1.386 . S
C6076 C6071 1.490 . S
C6076 C6078 1.395 . S
C6076 C6079 1.403 . S
H6077 C6083 0.930 . S
C6078 H6064 0.930 . S
C6078 C6076 1.395 . S
C6078 C6081 1.403 . S
C6079 C6076 1.403 . S
C6079 C6080 1.524 . S
C6079 C6083 1.400 . S
C6080 H6065 0.960 . S
C6080 H6066 0.960 . S
C6080 H6067 0.960 . S
C6080 C6079 1.524 . S
C6081 C6078 1.403 . S
C6081 C6082 1.392 . S
C6081 C6085 1.495 . S
C6082 C6081 1.392 . S
C6082 C6083 1.385 . S
C6082 C6084 1.478 . S
C6083 H6077 0.930 . S
C6083 C6079 1.400 . S
C6083 C6082 1.385 . S
C6084 C6082 1.478 . S
C6084 C6086 1.381 . S
C6084 C6090 1.383 . S
C6085 C6081 1.495 . S
C6085 H6091 0.959 . S
C6085 H6092 0.961 . S
C6085 H6093 0.960 . S
C6086 C6084 1.381 . S
C6086 C6087 1.394 . S
C6086 H6094 0.930 . S
C6087 C6086 1.394 . S
C6087 C6088 1.383 . S
C6087 H6095 0.929 . S
C6088 C6087 1.383 . S
C6088 C6089 1.377 . S
C6089 H6073 0.930 . S
C6089 C6088 1.377 . S
C6089 C6090 1.379 . S
C6090 H6074 0.931 . S
C6090 C6084 1.383 . S
C6090 C6089 1.379 . S
H6091 C6085 0.959 . S
H6092 C6085 0.961 . S
H6093 C6085 0.960 . S
H6094 C6086 0.930 . S
H6095 C6087 0.929 . S
H6096 C6104 0.929 . S
H6097 C6106 0.930 . S
H6098 C6108 0.930 . S
H6099 C6111 0.929 . S
H6100 C6114 0.930 . S
H6101 C6116 0.960 . S
H6102 C6116 0.960 . S
H6103 C6116 0.960 . S
C6104 H6096 0.929 . S
C6104 C6105 1.377 . S
C6104 C6106 1.384 . S
C6105 C6104 1.377 . S
C6105 C6111 1.390 . S
C6106 H6097 0.930 . S
C6106 C6104 1.384 . S
C6106 C6107 1.372 . S
C6107 C6106 1.372 . S
C6107 C6108 1.400 . S
C6107 C6112 1.490 . S
C6108 H6098 0.930 . S
C6108 C6107 1.400 . S
C6108 C6111 1.386 . S
H6109 C6125 0.930 . S
H6110 C6126 0.931 . S
C6111 H6099 0.929 . S
C6111 C6105 1.390 . S
C6111 C6108 1.386 . S
C6112 C6107 1.490 . S
C6112 C6114 1.395 . S
C6112 C6115 1.403 . S
H6113 C6119 0.930 . S
C6114 H6100 0.930 . S
C6114 C6112 1.395 . S
C6114 C6117 1.403 . S
C6115 C6112 1.403 . S
C6115 C6116 1.524 . S
C6115 C6119 1.400 . S
C6116 H6101 0.960 . S
C6116 H6102 0.960 . S
C6116 H6103 0.960 . S
C6116 C6115 1.524 . S
C6117 C6114 1.403 . S
C6117 C6118 1.392 . S
C6117 C6121 1.495 . S
C6118 C6117 1.392 . S
C6118 C6119 1.385 . S
C6118 C6120 1.478 . S
C6119 H6113 0.930 . S
C6119 C6115 1.400 . S
C6119 C6118 1.385 . S
C6120 C6118 1.478 . S
C6120 C6122 1.381 . S
C6120 C6126 1.383 . S
C6121 C6117 1.495 . S
C6121 H6127 0.959 . S
C6121 H6128 0.961 . S
C6121 H6129 0.960 . S
C6122 C6120 1.381 . S
C6122 C6123 1.394 . S
C6122 H6130 0.930 . S
C6123 C6122 1.394 . S
C6123 C6124 1.383 . S
C6123 H6131 0.929 . S
C6124 C6123 1.383 . S
C6124 C6125 1.377 . S
C6125 H6109 0.930 . S
C6125 C6124 1.377 . S
C6125 C6126 1.379 . S
C6126 H6110 0.931 . S
C6126 C6120 1.383 . S
C6126 C6125 1.379 . S
H6127 C6121 0.959 . S
H6128 C6121 0.961 . S
H6129 C6121 0.960 . S
H6130 C6122 0.930 . S
H6131 C6123 0.929 . S
H6132 C6140 0.929 . S
H6133 C6142 0.930 . S
H6134 C6144 0.930 . S
H6135 C6147 0.929 . S
H6136 C6150 0.930 . S
H6137 C6152 0.960 . S
H6138 C6152 0.960 . S
H6139 C6152 0.960 . S
C6140 H6132 0.929 . S
C6140 C6141 1.377 . S
C6140 C6142 1.384 . S
C6141 C6140 1.377 . S
C6141 C6147 1.390 . S
C6142 H6133 0.930 . S
C6142 C6140 1.384 . S
C6142 C6143 1.372 . S
C6143 C6142 1.372 . S
C6143 C6144 1.400 . S
C6143 C6148 1.490 . S
C6144 H6134 0.930 . S
C6144 C6143 1.400 . S
C6144 C6147 1.386 . S
H6145 C6161 0.930 . S
H6146 C6162 0.931 . S
C6147 H6135 0.929 . S
C6147 C6141 1.390 . S
C6147 C6144 1.386 . S
C6148 C6143 1.490 . S
C6148 C6150 1.395 . S
C6148 C6151 1.403 . S
H6149 C6155 0.930 . S
C6150 H6136 0.930 . S
C6150 C6148 1.395 . S
C6150 C6153 1.403 . S
C6151 C6148 1.403 . S
C6151 C6152 1.524 . S
C6151 C6155 1.400 . S
C6152 H6137 0.960 . S
C6152 H6138 0.960 . S
C6152 H6139 0.960 . S
C6152 C6151 1.524 . S
C6153 C6150 1.403 . S
C6153 C6154 1.392 . S
C6153 C6157 1.495 . S
C6154 C6153 1.392 . S
C6154 C6155 1.385 . S
C6154 C6156 1.478 . S
C6155 H6149 0.930 . S
C6155 C6151 1.400 . S
C6155 C6154 1.385 . S
C6156 C6154 1.478 . S
C6156 C6158 1.381 . S
C6156 C6162 1.383 . S
C6157 C6153 1.495 . S
C6157 H6163 0.959 . S
C6157 H6164 0.961 . S
C6157 H6165 0.960 . S
C6158 C6156 1.381 . S
C6158 C6159 1.394 . S
C6158 H6166 0.930 . S
C6159 C6158 1.394 . S
C6159 C6160 1.383 . S
C6159 H6167 0.929 . S
C6160 C6159 1.383 . S
C6160 C6161 1.377 . S
C6161 H6145 0.930 . S
C6161 C6160 1.377 . S
C6161 C6162 1.379 . S
C6162 H6146 0.931 . S
C6162 C6156 1.383 . S
C6162 C6161 1.379 . S
H6163 C6157 0.959 . S
H6164 C6157 0.961 . S
H6165 C6157 0.960 . S
H6166 C6158 0.930 . S
H6167 C6159 0.929 . S
H6168 C6176 0.929 . S
H6169 C6178 0.930 . S
H6170 C6180 0.930 . S
H6171 C6183 0.929 . S
H6172 C6186 0.930 . S
H6173 C6188 0.960 . S
H6174 C6188 0.960 . S
H6175 C6188 0.960 . S
C6176 H6168 0.929 . S
C6176 C6177 1.377 . S
C6176 C6178 1.384 . S
C6177 C6176 1.377 . S
C6177 C6183 1.390 . S
C6178 H6169 0.930 . S
C6178 C6176 1.384 . S
C6178 C6179 1.372 . S
C6179 C6178 1.372 . S
C6179 C6180 1.400 . S
C6179 C6184 1.490 . S
C6180 H6170 0.930 . S
C6180 C6179 1.400 . S
C6180 C6183 1.386 . S
H6181 C6197 0.930 . S
H6182 C6198 0.931 . S
C6183 H6171 0.929 . S
C6183 C6177 1.390 . S
C6183 C6180 1.386 . S
C6184 C6179 1.490 . S
C6184 C6186 1.395 . S
C6184 C6187 1.403 . S
H6185 C6191 0.930 . S
C6186 H6172 0.930 . S
C6186 C6184 1.395 . S
C6186 C6189 1.403 . S
C6187 C6184 1.403 . S
C6187 C6188 1.524 . S
C6187 C6191 1.400 . S
C6188 H6173 0.960 . S
C6188 H6174 0.960 . S
C6188 H6175 0.960 . S
C6188 C6187 1.524 . S
C6189 C6186 1.403 . S
C6189 C6190 1.392 . S
C6189 C6193 1.495 . S
C6190 C6189 1.392 . S
C6190 C6191 1.385 . S
C6190 C6192 1.478 . S
C6191 H6185 0.930 . S
C6191 C6187 1.400 . S
C6191 C6190 1.385 . S
C6192 C6190 1.478 . S
C6192 C6194 1.381 . S
C6192 C6198 1.383 . S
C6193 C6189 1.495 . S
C6193 H6199 0.959 . S
C6193 H6200 0.961 . S
C6193 H6201 0.960 . S
C6194 C6192 1.381 . S
C6194 C6195 1.394 . S
C6194 H6202 0.930 . S
C6195 C6194 1.394 . S
C6195 C6196 1.383 . S
C6195 H6203 0.929 . S
C6196 C6195 1.383 . S
C6196 C6197 1.377 . S
C6197 H6181 0.930 . S
C6197 C6196 1.377 . S
C6197 C6198 1.379 . S
C6198 H6182 0.931 . S
C6198 C6192 1.383 . S
C6198 C6197 1.379 . S
H6199 C6193 0.959 . S
H6200 C6193 0.961 . S
H6201 C6193 0.960 . S
H6202 C6194 0.930 . S
H6203 C6195 0.929 . S
H6204 C6212 0.929 . S
H6205 C6214 0.930 . S
H6206 C6216 0.930 . S
H6207 C6219 0.929 . S
H6208 C6222 0.930 . S
H6209 C6224 0.960 . S
H6210 C6224 0.960 . S
H6211 C6224 0.960 . S
C6212 H6204 0.929 . S
C6212 C6213 1.377 . S
C6212 C6214 1.384 . S
C6213 C6212 1.377 . S
C6213 C6219 1.390 . S
C6214 H6205 0.930 . S
C6214 C6212 1.384 . S
C6214 C6215 1.372 . S
C6215 C6214 1.372 . S
C6215 C6216 1.400 . S
C6215 C6220 1.490 . S
C6216 H6206 0.930 . S
C6216 C6215 1.400 . S
C6216 C6219 1.386 . S
H6217 C6233 0.930 . S
H6218 C6234 0.931 . S
C6219 H6207 0.929 . S
C6219 C6213 1.390 . S
C6219 C6216 1.386 . S
C6220 C6215 1.490 . S
C6220 C6222 1.395 . S
C6220 C6223 1.403 . S
H6221 C6227 0.930 . S
C6222 H6208 0.930 . S
C6222 C6220 1.395 . S
C6222 C6225 1.403 . S
C6223 C6220 1.403 . S
C6223 C6224 1.524 . S
C6223 C6227 1.400 . S
C6224 H6209 0.960 . S
C6224 H6210 0.960 . S
C6224 H6211 0.960 . S
C6224 C6223 1.524 . S
C6225 C6222 1.403 . S
C6225 C6226 1.392 . S
C6225 C6229 1.495 . S
C6226 C6225 1.392 . S
C6226 C6227 1.385 . S
C6226 C6228 1.478 . S
C6227 H6221 0.930 . S
C6227 C6223 1.400 . S
C6227 C6226 1.385 . S
C6228 C6226 1.478 . S
C6228 C6230 1.381 . S
C6228 C6234 1.383 . S
C6229 C6225 1.495 . S
C6229 H6235 0.959 . S
C6229 H6236 0.961 . S
C6229 H6237 0.960 . S
C6230 C6228 1.381 . S
C6230 C6231 1.394 . S
C6230 H6238 0.930 . S
C6231 C6230 1.394 . S
C6231 C6232 1.383 . S
C6231 H6239 0.929 . S
C6232 C6231 1.383 . S
C6232 C6233 1.377 . S
C6233 H6217 0.930 . S
C6233 C6232 1.377 . S
C6233 C6234 1.379 . S
C6234 H6218 0.931 . S
C6234 C6228 1.383 . S
C6234 C6233 1.379 . S
H6235 C6229 0.959 . S
H6236 C6229 0.961 . S
H6237 C6229 0.960 . S
H6238 C6230 0.930 . S
H6239 C6231 0.929 . S
H6240 C6248 0.929 . S
H6241 C6250 0.930 . S
H6242 C6252 0.930 . S
H6243 C6255 0.929 . S
H6244 C6258 0.930 . S
H6245 C6260 0.960 . S
H6246 C6260 0.960 . S
H6247 C6260 0.960 . S
C6248 H6240 0.929 . S
C6248 C6249 1.377 . S
C6248 C6250 1.384 . S
C6249 C6248 1.377 . S
C6249 C6255 1.390 . S
C6250 H6241 0.930 . S
C6250 C6248 1.384 . S
C6250 C6251 1.372 . S
C6251 C6250 1.372 . S
C6251 C6252 1.400 . S
C6251 C6256 1.490 . S
C6252 H6242 0.930 . S
C6252 C6251 1.400 . S
C6252 C6255 1.386 . S
H6253 C6269 0.930 . S
H6254 C6270 0.931 . S
C6255 H6243 0.929 . S
C6255 C6249 1.390 . S
C6255 C6252 1.386 . S
C6256 C6251 1.490 . S
C6256 C6258 1.395 . S
C6256 C6259 1.403 . S
H6257 C6263 0.930 . S
C6258 H6244 0.930 . S
C6258 C6256 1.395 . S
C6258 C6261 1.403 . S
C6259 C6256 1.403 . S
C6259 C6260 1.524 . S
C6259 C6263 1.400 . S
C6260 H6245 0.960 . S
C6260 H6246 0.960 . S
C6260 H6247 0.960 . S
C6260 C6259 1.524 . S
C6261 C6258 1.403 . S
C6261 C6262 1.392 . S
C6261 C6265 1.495 . S
C6262 C6261 1.392 . S
C6262 C6263 1.385 . S
C6262 C6264 1.478 . S
C6263 H6257 0.930 . S
C6263 C6259 1.400 . S
C6263 C6262 1.385 . S
C6264 C6262 1.478 . S
C6264 C6266 1.381 . S
C6264 C6270 1.383 . S
C6265 C6261 1.495 . S
C6265 H6271 0.959 . S
C6265 H6272 0.961 . S
C6265 H6273 0.960 . S
C6266 C6264 1.381 . S
C6266 C6267 1.394 . S
C6266 H6274 0.930 . S
C6267 C6266 1.394 . S
C6267 C6268 1.383 . S
C6267 H6275 0.929 . S
C6268 C6267 1.383 . S
C6268 C6269 1.377 . S
C6269 H6253 0.930 . S
C6269 C6268 1.377 . S
C6269 C6270 1.379 . S
C6270 H6254 0.931 . S
C6270 C6264 1.383 . S
C6270 C6269 1.379 . S
H6271 C6265 0.959 . S
H6272 C6265 0.961 . S
H6273 C6265 0.960 . S
H6274 C6266 0.930 . S
H6275 C6267 0.929 . S
H6276 C6284 0.929 . S
H6277 C6286 0.930 . S
H6278 C6288 0.930 . S
H6279 C6291 0.929 . S
H6280 C6294 0.930 . S
H6281 C6296 0.960 . S
H6282 C6296 0.960 . S
H6283 C6296 0.960 . S
C6284 H6276 0.929 . S
C6284 C6285 1.377 . S
C6284 C6286 1.384 . S
C6285 C6284 1.377 . S
C6285 C6291 1.390 . S
C6286 H6277 0.930 . S
C6286 C6284 1.384 . S
C6286 C6287 1.372 . S
C6287 C6286 1.372 . S
C6287 C6288 1.400 . S
C6287 C6292 1.490 . S
C6288 H6278 0.930 . S
C6288 C6287 1.400 . S
C6288 C6291 1.386 . S
H6289 C6305 0.930 . S
H6290 C6306 0.931 . S
C6291 H6279 0.929 . S
C6291 C6285 1.390 . S
C6291 C6288 1.386 . S
C6292 C6287 1.490 . S
C6292 C6294 1.395 . S
C6292 C6295 1.403 . S
H6293 C6299 0.930 . S
C6294 H6280 0.930 . S
C6294 C6292 1.395 . S
C6294 C6297 1.403 . S
C6295 C6292 1.403 . S
C6295 C6296 1.524 . S
C6295 C6299 1.400 . S
C6296 H6281 0.960 . S
C6296 H6282 0.960 . S
C6296 H6283 0.960 . S
C6296 C6295 1.524 . S
C6297 C6294 1.403 . S
C6297 C6298 1.392 . S
C6297 C6301 1.495 . S
C6298 C6297 1.392 . S
C6298 C6299 1.385 . S
C6298 C6300 1.478 . S
C6299 H6293 0.930 . S
C6299 C6295 1.400 . S
C6299 C6298 1.385 . S
C6300 C6298 1.478 . S
C6300 C6302 1.381 . S
C6300 C6306 1.383 . S
C6301 C6297 1.495 . S
C6301 H6307 0.959 . S
C6301 H6308 0.961 . S
C6301 H6309 0.960 . S
C6302 C6300 1.381 . S
C6302 C6303 1.394 . S
C6302 H6310 0.930 . S
C6303 C6302 1.394 . S
C6303 C6304 1.383 . S
C6303 H6311 0.929 . S
C6304 C6303 1.383 . S
C6304 C6305 1.377 . S
C6305 H6289 0.930 . S
C6305 C6304 1.377 . S
C6305 C6306 1.379 . S
C6306 H6290 0.931 . S
C6306 C6300 1.383 . S
C6306 C6305 1.379 . S
H6307 C6301 0.959 . S
H6308 C6301 0.961 . S
H6309 C6301 0.960 . S
H6310 C6302 0.930 . S
H6311 C6303 0.929 . S
H6312 C6320 0.929 . S
H6313 C6322 0.930 . S
H6314 C6324 0.930 . S
H6315 C6327 0.929 . S
H6316 C6330 0.930 . S
H6317 C6332 0.960 . S
H6318 C6332 0.960 . S
H6319 C6332 0.960 . S
C6320 H6312 0.929 . S
C6320 C6321 1.377 . S
C6320 C6322 1.384 . S
C6321 C6320 1.377 . S
C6321 C6327 1.390 . S
C6322 H6313 0.930 . S
C6322 C6320 1.384 . S
C6322 C6323 1.372 . S
C6323 C6322 1.372 . S
C6323 C6324 1.400 . S
C6323 C6328 1.490 . S
C6324 H6314 0.930 . S
C6324 C6323 1.400 . S
C6324 C6327 1.386 . S
H6325 C6341 0.930 . S
H6326 C6342 0.931 . S
C6327 H6315 0.929 . S
C6327 C6321 1.390 . S
C6327 C6324 1.386 . S
C6328 C6323 1.490 . S
C6328 C6330 1.395 . S
C6328 C6331 1.403 . S
H6329 C6335 0.930 . S
C6330 H6316 0.930 . S
C6330 C6328 1.395 . S
C6330 C6333 1.403 . S
C6331 C6328 1.403 . S
C6331 C6332 1.524 . S
C6331 C6335 1.400 . S
C6332 H6317 0.960 . S
C6332 H6318 0.960 . S
C6332 H6319 0.960 . S
C6332 C6331 1.524 . S
C6333 C6330 1.403 . S
C6333 C6334 1.392 . S
C6333 C6337 1.495 . S
C6334 C6333 1.392 . S
C6334 C6335 1.385 . S
C6334 C6336 1.478 . S
C6335 H6329 0.930 . S
C6335 C6331 1.400 . S
C6335 C6334 1.385 . S
C6336 C6334 1.478 . S
C6336 C6338 1.381 . S
C6336 C6342 1.383 . S
C6337 C6333 1.495 . S
C6337 H6343 0.959 . S
C6337 H6344 0.961 . S
C6337 H6345 0.960 . S
C6338 C6336 1.381 . S
C6338 C6339 1.394 . S
C6338 H6346 0.930 . S
C6339 C6338 1.394 . S
C6339 C6340 1.383 . S
C6339 H6347 0.929 . S
C6340 C6339 1.383 . S
C6340 C6341 1.377 . S
C6341 H6325 0.930 . S
C6341 C6340 1.377 . S
C6341 C6342 1.379 . S
C6342 H6326 0.931 . S
C6342 C6336 1.383 . S
C6342 C6341 1.379 . S
H6343 C6337 0.959 . S
H6344 C6337 0.961 . S
H6345 C6337 0.960 . S
H6346 C6338 0.930 . S
H6347 C6339 0.929 . S
H6348 C6356 0.929 . S
H6349 C6358 0.930 . S
H6350 C6360 0.930 . S
H6351 C6363 0.929 . S
H6352 C6366 0.930 . S
H6353 C6368 0.960 . S
H6354 C6368 0.960 . S
H6355 C6368 0.960 . S
C6356 H6348 0.929 . S
C6356 C6357 1.377 . S
C6356 C6358 1.384 . S
C6357 C6356 1.377 . S
C6357 C6363 1.390 . S
C6358 H6349 0.930 . S
C6358 C6356 1.384 . S
C6358 C6359 1.372 . S
C6359 C6358 1.372 . S
C6359 C6360 1.400 . S
C6359 C6364 1.490 . S
C6360 H6350 0.930 . S
C6360 C6359 1.400 . S
C6360 C6363 1.386 . S
H6361 C6377 0.930 . S
H6362 C6378 0.931 . S
C6363 H6351 0.929 . S
C6363 C6357 1.390 . S
C6363 C6360 1.386 . S
C6364 C6359 1.490 . S
C6364 C6366 1.395 . S
C6364 C6367 1.403 . S
H6365 C6371 0.930 . S
C6366 H6352 0.930 . S
C6366 C6364 1.395 . S
C6366 C6369 1.403 . S
C6367 C6364 1.403 . S
C6367 C6368 1.524 . S
C6367 C6371 1.400 . S
C6368 H6353 0.960 . S
C6368 H6354 0.960 . S
C6368 H6355 0.960 . S
C6368 C6367 1.524 . S
C6369 C6366 1.403 . S
C6369 C6370 1.392 . S
C6369 C6373 1.495 . S
C6370 C6369 1.392 . S
C6370 C6371 1.385 . S
C6370 C6372 1.478 . S
C6371 H6365 0.930 . S
C6371 C6367 1.400 . S
C6371 C6370 1.385 . S
C6372 C6370 1.478 . S
C6372 C6374 1.381 . S
C6372 C6378 1.383 . S
C6373 C6369 1.495 . S
C6373 H6379 0.959 . S
C6373 H6380 0.961 . S
C6373 H6381 0.960 . S
C6374 C6372 1.381 . S
C6374 C6375 1.394 . S
C6374 H6382 0.930 . S
C6375 C6374 1.394 . S
C6375 C6376 1.383 . S
C6375 H6383 0.929 . S
C6376 C6375 1.383 . S
C6376 C6377 1.377 . S
C6377 H6361 0.930 . S
C6377 C6376 1.377 . S
C6377 C6378 1.379 . S
C6378 H6362 0.931 . S
C6378 C6372 1.383 . S
C6378 C6377 1.379 . S
H6379 C6373 0.959 . S
H6380 C6373 0.961 . S
H6381 C6373 0.960 . S
H6382 C6374 0.930 . S
H6383 C6375 0.929 . S
H6384 C6392 0.929 . S
H6385 C6394 0.930 . S
H6386 C6396 0.930 . S
H6387 C6399 0.929 . S
H6388 C6402 0.930 . S
H6389 C6404 0.960 . S
H6390 C6404 0.960 . S
H6391 C6404 0.960 . S
C6392 H6384 0.929 . S
C6392 C6393 1.377 . S
C6392 C6394 1.384 . S
C6393 C6392 1.377 . S
C6393 C6399 1.390 . S
C6394 H6385 0.930 . S
C6394 C6392 1.384 . S
C6394 C6395 1.372 . S
C6395 C6394 1.372 . S
C6395 C6396 1.400 . S
C6395 C6400 1.490 . S
C6396 H6386 0.930 . S
C6396 C6395 1.400 . S
C6396 C6399 1.386 . S
H6397 C6413 0.930 . S
H6398 C6414 0.931 . S
C6399 H6387 0.929 . S
C6399 C6393 1.390 . S
C6399 C6396 1.386 . S
C6400 C6395 1.490 . S
C6400 C6402 1.395 . S
C6400 C6403 1.403 . S
H6401 C6407 0.930 . S
C6402 H6388 0.930 . S
C6402 C6400 1.395 . S
C6402 C6405 1.403 . S
C6403 C6400 1.403 . S
C6403 C6404 1.524 . S
C6403 C6407 1.400 . S
C6404 H6389 0.960 . S
C6404 H6390 0.960 . S
C6404 H6391 0.960 . S
C6404 C6403 1.524 . S
C6405 C6402 1.403 . S
C6405 C6406 1.392 . S
C6405 C6409 1.495 . S
C6406 C6405 1.392 . S
C6406 C6407 1.385 . S
C6406 C6408 1.478 . S
C6407 H6401 0.930 . S
C6407 C6403 1.400 . S
C6407 C6406 1.385 . S
C6408 C6406 1.478 . S
C6408 C6410 1.381 . S
C6408 C6414 1.383 . S
C6409 C6405 1.495 . S
C6409 H6415 0.959 . S
C6409 H6416 0.961 . S
C6409 H6417 0.960 . S
C6410 C6408 1.381 . S
C6410 C6411 1.394 . S
C6410 H6418 0.930 . S
C6411 C6410 1.394 . S
C6411 C6412 1.383 . S
C6411 H6419 0.929 . S
C6412 C6411 1.383 . S
C6412 C6413 1.377 . S
C6413 H6397 0.930 . S
C6413 C6412 1.377 . S
C6413 C6414 1.379 . S
C6414 H6398 0.931 . S
C6414 C6408 1.383 . S
C6414 C6413 1.379 . S
H6415 C6409 0.959 . S
H6416 C6409 0.961 . S
H6417 C6409 0.960 . S
H6418 C6410 0.930 . S
H6419 C6411 0.929 . S
H6420 C6428 0.929 . S
H6421 C6430 0.930 . S
H6422 C6432 0.930 . S
H6423 C6435 0.929 . S
H6424 C6438 0.930 . S
H6425 C6440 0.960 . S
H6426 C6440 0.960 . S
H6427 C6440 0.960 . S
C6428 H6420 0.929 . S
C6428 C6429 1.377 . S
C6428 C6430 1.384 . S
C6429 C6428 1.377 . S
C6429 C6435 1.390 . S
C6430 H6421 0.930 . S
C6430 C6428 1.384 . S
C6430 C6431 1.372 . S
C6431 C6430 1.372 . S
C6431 C6432 1.400 . S
C6431 C6436 1.490 . S
C6432 H6422 0.930 . S
C6432 C6431 1.400 . S
C6432 C6435 1.386 . S
H6433 C6449 0.930 . S
H6434 C6450 0.931 . S
C6435 H6423 0.929 . S
C6435 C6429 1.390 . S
C6435 C6432 1.386 . S
C6436 C6431 1.490 . S
C6436 C6438 1.395 . S
C6436 C6439 1.403 . S
H6437 C6443 0.930 . S
C6438 H6424 0.930 . S
C6438 C6436 1.395 . S
C6438 C6441 1.403 . S
C6439 C6436 1.403 . S
C6439 C6440 1.524 . S
C6439 C6443 1.400 . S
C6440 H6425 0.960 . S
C6440 H6426 0.960 . S
C6440 H6427 0.960 . S
C6440 C6439 1.524 . S
C6441 C6438 1.403 . S
C6441 C6442 1.392 . S
C6441 C6445 1.495 . S
C6442 C6441 1.392 . S
C6442 C6443 1.385 . S
C6442 C6444 1.478 . S
C6443 H6437 0.930 . S
C6443 C6439 1.400 . S
C6443 C6442 1.385 . S
C6444 C6442 1.478 . S
C6444 C6446 1.381 . S
C6444 C6450 1.383 . S
C6445 C6441 1.495 . S
C6445 H6451 0.959 . S
C6445 H6452 0.961 . S
C6445 H6453 0.960 . S
C6446 C6444 1.381 . S
C6446 C6447 1.394 . S
C6446 H6454 0.930 . S
C6447 C6446 1.394 . S
C6447 C6448 1.383 . S
C6447 H6455 0.929 . S
C6448 C6447 1.383 . S
C6448 C6449 1.377 . S
C6449 H6433 0.930 . S
C6449 C6448 1.377 . S
C6449 C6450 1.379 . S
C6450 H6434 0.931 . S
C6450 C6444 1.383 . S
C6450 C6449 1.379 . S
H6451 C6445 0.959 . S
H6452 C6445 0.961 . S
H6453 C6445 0.960 . S
H6454 C6446 0.930 . S
H6455 C6447 0.929 . S
H6456 C6464 0.929 . S
H6457 C6466 0.930 . S
H6458 C6468 0.930 . S
H6459 C6471 0.929 . S
H6460 C6474 0.930 . S
H6461 C6476 0.960 . S
H6462 C6476 0.960 . S
H6463 C6476 0.960 . S
C6464 H6456 0.929 . S
C6464 C6465 1.377 . S
C6464 C6466 1.384 . S
C6465 C6464 1.377 . S
C6465 C6471 1.390 . S
C6466 H6457 0.930 . S
C6466 C6464 1.384 . S
C6466 C6467 1.372 . S
C6467 C6466 1.372 . S
C6467 C6468 1.400 . S
C6467 C6472 1.490 . S
C6468 H6458 0.930 . S
C6468 C6467 1.400 . S
C6468 C6471 1.386 . S
H6469 C6485 0.930 . S
H6470 C6486 0.931 . S
C6471 H6459 0.929 . S
C6471 C6465 1.390 . S
C6471 C6468 1.386 . S
C6472 C6467 1.490 . S
C6472 C6474 1.395 . S
C6472 C6475 1.403 . S
H6473 C6479 0.930 . S
C6474 H6460 0.930 . S
C6474 C6472 1.395 . S
C6474 C6477 1.403 . S
C6475 C6472 1.403 . S
C6475 C6476 1.524 . S
C6475 C6479 1.400 . S
C6476 H6461 0.960 . S
C6476 H6462 0.960 . S
C6476 H6463 0.960 . S
C6476 C6475 1.524 . S
C6477 C6474 1.403 . S
C6477 C6478 1.392 . S
C6477 C6481 1.495 . S
C6478 C6477 1.392 . S
C6478 C6479 1.385 . S
C6478 C6480 1.478 . S
C6479 H6473 0.930 . S
C6479 C6475 1.400 . S
C6479 C6478 1.385 . S
C6480 C6478 1.478 . S
C6480 C6482 1.381 . S
C6480 C6486 1.383 . S
C6481 C6477 1.495 . S
C6481 H6487 0.959 . S
C6481 H6488 0.961 . S
C6481 H6489 0.960 . S
C6482 C6480 1.381 . S
C6482 C6483 1.394 . S
C6482 H6490 0.930 . S
C6483 C6482 1.394 . S
C6483 C6484 1.383 . S
C6483 H6491 0.929 . S
C6484 C6483 1.383 . S
C6484 C6485 1.377 . S
C6485 H6469 0.930 . S
C6485 C6484 1.377 . S
C6485 C6486 1.379 . S
C6486 H6470 0.931 . S
C6486 C6480 1.383 . S
C6486 C6485 1.379 . S
H6487 C6481 0.959 . S
H6488 C6481 0.961 . S
H6489 C6481 0.960 . S
H6490 C6482 0.930 . S
H6491 C6483 0.929 . S
H6492 C6500 0.929 . S
H6493 C6502 0.930 . S
H6494 C6504 0.930 . S
H6495 C6507 0.929 . S
H6496 C6510 0.930 . S
H6497 C6512 0.960 . S
H6498 C6512 0.960 . S
H6499 C6512 0.960 . S
C6500 H6492 0.929 . S
C6500 C6501 1.377 . S
C6500 C6502 1.384 . S
C6501 C6500 1.377 . S
C6501 C6507 1.390 . S
C6502 H6493 0.930 . S
C6502 C6500 1.384 . S
C6502 C6503 1.372 . S
C6503 C6502 1.372 . S
C6503 C6504 1.400 . S
C6503 C6508 1.490 . S
C6504 H6494 0.930 . S
C6504 C6503 1.400 . S
C6504 C6507 1.386 . S
H6505 C6521 0.930 . S
H6506 C6522 0.931 . S
C6507 H6495 0.929 . S
C6507 C6501 1.390 . S
C6507 C6504 1.386 . S
C6508 C6503 1.490 . S
C6508 C6510 1.395 . S
C6508 C6511 1.403 . S
H6509 C6515 0.930 . S
C6510 H6496 0.930 . S
C6510 C6508 1.395 . S
C6510 C6513 1.403 . S
C6511 C6508 1.403 . S
C6511 C6512 1.524 . S
C6511 C6515 1.400 . S
C6512 H6497 0.960 . S
C6512 H6498 0.960 . S
C6512 H6499 0.960 . S
C6512 C6511 1.524 . S
C6513 C6510 1.403 . S
C6513 C6514 1.392 . S
C6513 C6517 1.495 . S
C6514 C6513 1.392 . S
C6514 C6515 1.385 . S
C6514 C6516 1.478 . S
C6515 H6509 0.930 . S
C6515 C6511 1.400 . S
C6515 C6514 1.385 . S
C6516 C6514 1.478 . S
C6516 C6518 1.381 . S
C6516 C6522 1.383 . S
C6517 C6513 1.495 . S
C6517 H6523 0.959 . S
C6517 H6524 0.961 . S
C6517 H6525 0.960 . S
C6518 C6516 1.381 . S
C6518 C6519 1.394 . S
C6518 H6526 0.930 . S
C6519 C6518 1.394 . S
C6519 C6520 1.383 . S
C6519 H6527 0.929 . S
C6520 C6519 1.383 . S
C6520 C6521 1.377 . S
C6521 H6505 0.930 . S
C6521 C6520 1.377 . S
C6521 C6522 1.379 . S
C6522 H6506 0.931 . S
C6522 C6516 1.383 . S
C6522 C6521 1.379 . S
H6523 C6517 0.959 . S
H6524 C6517 0.961 . S
H6525 C6517 0.960 . S
H6526 C6518 0.930 . S
H6527 C6519 0.929 . S
H6528 C6536 0.929 . S
H6529 C6538 0.930 . S
H6530 C6540 0.930 . S
H6531 C6543 0.929 . S
H6532 C6546 0.930 . S
H6533 C6548 0.960 . S
H6534 C6548 0.960 . S
H6535 C6548 0.960 . S
C6536 H6528 0.929 . S
C6536 C6537 1.377 . S
C6536 C6538 1.384 . S
C6537 C6536 1.377 . S
C6537 C6543 1.390 . S
C6538 H6529 0.930 . S
C6538 C6536 1.384 . S
C6538 C6539 1.372 . S
C6539 C6538 1.372 . S
C6539 C6540 1.400 . S
C6539 C6544 1.490 . S
C6540 H6530 0.930 . S
C6540 C6539 1.400 . S
C6540 C6543 1.386 . S
H6541 C6557 0.930 . S
H6542 C6558 0.931 . S
C6543 H6531 0.929 . S
C6543 C6537 1.390 . S
C6543 C6540 1.386 . S
C6544 C6539 1.490 . S
C6544 C6546 1.395 . S
C6544 C6547 1.403 . S
H6545 C6551 0.930 . S
C6546 H6532 0.930 . S
C6546 C6544 1.395 . S
C6546 C6549 1.403 . S
C6547 C6544 1.403 . S
C6547 C6548 1.524 . S
C6547 C6551 1.400 . S
C6548 H6533 0.960 . S
C6548 H6534 0.960 . S
C6548 H6535 0.960 . S
C6548 C6547 1.524 . S
C6549 C6546 1.403 . S
C6549 C6550 1.392 . S
C6549 C6553 1.495 . S
C6550 C6549 1.392 . S
C6550 C6551 1.385 . S
C6550 C6552 1.478 . S
C6551 H6545 0.930 . S
C6551 C6547 1.400 . S
C6551 C6550 1.385 . S
C6552 C6550 1.478 . S
C6552 C6554 1.381 . S
C6552 C6558 1.383 . S
C6553 C6549 1.495 . S
C6553 H6559 0.959 . S
C6553 H6560 0.961 . S
C6553 H6561 0.960 . S
C6554 C6552 1.381 . S
C6554 C6555 1.394 . S
C6554 H6562 0.930 . S
C6555 C6554 1.394 . S
C6555 C6556 1.383 . S
C6555 H6563 0.929 . S
C6556 C6555 1.383 . S
C6556 C6557 1.377 . S
C6557 H6541 0.930 . S
C6557 C6556 1.377 . S
C6557 C6558 1.379 . S
C6558 H6542 0.931 . S
C6558 C6552 1.383 . S
C6558 C6557 1.379 . S
H6559 C6553 0.959 . S
H6560 C6553 0.961 . S
H6561 C6553 0.960 . S
H6562 C6554 0.930 . S
H6563 C6555 0.929 . S
H6564 C6572 0.929 . S
H6565 C6574 0.930 . S
H6566 C6576 0.930 . S
H6567 C6579 0.929 . S
H6568 C6582 0.930 . S
H6569 C6584 0.960 . S
H6570 C6584 0.960 . S
H6571 C6584 0.960 . S
C6572 H6564 0.929 . S
C6572 C6573 1.377 . S
C6572 C6574 1.384 . S
C6573 C6572 1.377 . S
C6573 C6579 1.390 . S
C6574 H6565 0.930 . S
C6574 C6572 1.384 . S
C6574 C6575 1.372 . S
C6575 C6574 1.372 . S
C6575 C6576 1.400 . S
C6575 C6580 1.490 . S
C6576 H6566 0.930 . S
C6576 C6575 1.400 . S
C6576 C6579 1.386 . S
H6577 C6593 0.930 . S
H6578 C6594 0.931 . S
C6579 H6567 0.929 . S
C6579 C6573 1.390 . S
C6579 C6576 1.386 . S
C6580 C6575 1.490 . S
C6580 C6582 1.395 . S
C6580 C6583 1.403 . S
H6581 C6587 0.930 . S
C6582 H6568 0.930 . S
C6582 C6580 1.395 . S
C6582 C6585 1.403 . S
C6583 C6580 1.403 . S
C6583 C6584 1.524 . S
C6583 C6587 1.400 . S
C6584 H6569 0.960 . S
C6584 H6570 0.960 . S
C6584 H6571 0.960 . S
C6584 C6583 1.524 . S
C6585 C6582 1.403 . S
C6585 C6586 1.392 . S
C6585 C6589 1.495 . S
C6586 C6585 1.392 . S
C6586 C6587 1.385 . S
C6586 C6588 1.478 . S
C6587 H6581 0.930 . S
C6587 C6583 1.400 . S
C6587 C6586 1.385 . S
C6588 C6586 1.478 . S
C6588 C6590 1.381 . S
C6588 C6594 1.383 . S
C6589 C6585 1.495 . S
C6589 H6595 0.959 . S
C6589 H6596 0.961 . S
C6589 H6597 0.960 . S
C6590 C6588 1.381 . S
C6590 C6591 1.394 . S
C6590 H6598 0.930 . S
C6591 C6590 1.394 . S
C6591 C6592 1.383 . S
C6591 H6599 0.929 . S
C6592 C6591 1.383 . S
C6592 C6593 1.377 . S
C6593 H6577 0.930 . S
C6593 C6592 1.377 . S
C6593 C6594 1.379 . S
C6594 H6578 0.931 . S
C6594 C6588 1.383 . S
C6594 C6593 1.379 . S
H6595 C6589 0.959 . S
H6596 C6589 0.961 . S
H6597 C6589 0.960 . S
H6598 C6590 0.930 . S
H6599 C6591 0.929 . S
H6600 C6608 0.929 . S
H6601 C6610 0.930 . S
H6602 C6612 0.930 . S
H6603 C6615 0.929 . S
H6604 C6618 0.930 . S
H6605 C6620 0.960 . S
H6606 C6620 0.960 . S
H6607 C6620 0.960 . S
C6608 H6600 0.929 . S
C6608 C6609 1.377 . S
C6608 C6610 1.384 . S
C6609 C6608 1.377 . S
C6609 C6615 1.390 . S
C6610 H6601 0.930 . S
C6610 C6608 1.384 . S
C6610 C6611 1.372 . S
C6611 C6610 1.372 . S
C6611 C6612 1.400 . S
C6611 C6616 1.490 . S
C6612 H6602 0.930 . S
C6612 C6611 1.400 . S
C6612 C6615 1.386 . S
H6613 C6629 0.930 . S
H6614 C6630 0.931 . S
C6615 H6603 0.929 . S
C6615 C6609 1.390 . S
C6615 C6612 1.386 . S
C6616 C6611 1.490 . S
C6616 C6618 1.395 . S
C6616 C6619 1.403 . S
H6617 C6623 0.930 . S
C6618 H6604 0.930 . S
C6618 C6616 1.395 . S
C6618 C6621 1.403 . S
C6619 C6616 1.403 . S
C6619 C6620 1.524 . S
C6619 C6623 1.400 . S
C6620 H6605 0.960 . S
C6620 H6606 0.960 . S
C6620 H6607 0.960 . S
C6620 C6619 1.524 . S
C6621 C6618 1.403 . S
C6621 C6622 1.392 . S
C6621 C6625 1.495 . S
C6622 C6621 1.392 . S
C6622 C6623 1.385 . S
C6622 C6624 1.478 . S
C6623 H6617 0.930 . S
C6623 C6619 1.400 . S
C6623 C6622 1.385 . S
C6624 C6622 1.478 . S
C6624 C6626 1.381 . S
C6624 C6630 1.383 . S
C6625 C6621 1.495 . S
C6625 H6631 0.959 . S
C6625 H6632 0.961 . S
C6625 H6633 0.960 . S
C6626 C6624 1.381 . S
C6626 C6627 1.394 . S
C6626 H6634 0.930 . S
C6627 C6626 1.394 . S
C6627 C6628 1.383 . S
C6627 H6635 0.929 . S
C6628 C6627 1.383 . S
C6628 C6629 1.377 . S
C6629 H6613 0.930 . S
C6629 C6628 1.377 . S
C6629 C6630 1.379 . S
C6630 H6614 0.931 . S
C6630 C6624 1.383 . S
C6630 C6629 1.379 . S
H6631 C6625 0.959 . S
H6632 C6625 0.961 . S
H6633 C6625 0.960 . S
H6634 C6626 0.930 . S
H6635 C6627 0.929 . S
H6636 C6644 0.929 . S
H6637 C6646 0.930 . S
H6638 C6648 0.930 . S
H6639 C6651 0.929 . S
H6640 C6654 0.930 . S
H6641 C6656 0.960 . S
H6642 C6656 0.960 . S
H6643 C6656 0.960 . S
C6644 H6636 0.929 . S
C6644 C6645 1.377 . S
C6644 C6646 1.384 . S
C6645 C6644 1.377 . S
C6645 C6651 1.390 . S
C6646 H6637 0.930 . S
C6646 C6644 1.384 . S
C6646 C6647 1.372 . S
C6647 C6646 1.372 . S
C6647 C6648 1.400 . S
C6647 C6652 1.490 . S
C6648 H6638 0.930 . S
C6648 C6647 1.400 . S
C6648 C6651 1.386 . S
H6649 C6665 0.930 . S
H6650 C6666 0.931 . S
C6651 H6639 0.929 . S
C6651 C6645 1.390 . S
C6651 C6648 1.386 . S
C6652 C6647 1.490 . S
C6652 C6654 1.395 . S
C6652 C6655 1.403 . S
H6653 C6659 0.930 . S
C6654 H6640 0.930 . S
C6654 C6652 1.395 . S
C6654 C6657 1.403 . S
C6655 C6652 1.403 . S
C6655 C6656 1.524 . S
C6655 C6659 1.400 . S
C6656 H6641 0.960 . S
C6656 H6642 0.960 . S
C6656 H6643 0.960 . S
C6656 C6655 1.524 . S
C6657 C6654 1.403 . S
C6657 C6658 1.392 . S
C6657 C6661 1.495 . S
C6658 C6657 1.392 . S
C6658 C6659 1.385 . S
C6658 C6660 1.478 . S
C6659 H6653 0.930 . S
C6659 C6655 1.400 . S
C6659 C6658 1.385 . S
C6660 C6658 1.478 . S
C6660 C6662 1.381 . S
C6660 C6666 1.383 . S
C6661 C6657 1.495 . S
C6661 H6667 0.959 . S
C6661 H6668 0.961 . S
C6661 H6669 0.960 . S
C6662 C6660 1.381 . S
C6662 C6663 1.394 . S
C6662 H6670 0.930 . S
C6663 C6662 1.394 . S
C6663 C6664 1.383 . S
C6663 H6671 0.929 . S
C6664 C6663 1.383 . S
C6664 C6665 1.377 . S
C6665 H6649 0.930 . S
C6665 C6664 1.377 . S
C6665 C6666 1.379 . S
C6666 H6650 0.931 . S
C6666 C6660 1.383 . S
C6666 C6665 1.379 . S
H6667 C6661 0.959 . S
H6668 C6661 0.961 . S
H6669 C6661 0.960 . S
H6670 C6662 0.930 . S
H6671 C6663 0.929 . S
H6672 C6680 0.929 . S
H6673 C6682 0.930 . S
H6674 C6684 0.930 . S
H6675 C6687 0.929 . S
H6676 C6690 0.930 . S
H6677 C6692 0.960 . S
H6678 C6692 0.960 . S
H6679 C6692 0.960 . S
C6680 H6672 0.929 . S
C6680 C6681 1.377 . S
C6680 C6682 1.384 . S
C6681 C6680 1.377 . S
C6681 C6687 1.390 . S
C6682 H6673 0.930 . S
C6682 C6680 1.384 . S
C6682 C6683 1.372 . S
C6683 C6682 1.372 . S
C6683 C6684 1.400 . S
C6683 C6688 1.490 . S
C6684 H6674 0.930 . S
C6684 C6683 1.400 . S
C6684 C6687 1.386 . S
H6685 C6701 0.930 . S
H6686 C6702 0.931 . S
C6687 H6675 0.929 . S
C6687 C6681 1.390 . S
C6687 C6684 1.386 . S
C6688 C6683 1.490 . S
C6688 C6690 1.395 . S
C6688 C6691 1.403 . S
H6689 C6695 0.930 . S
C6690 H6676 0.930 . S
C6690 C6688 1.395 . S
C6690 C6693 1.403 . S
C6691 C6688 1.403 . S
C6691 C6692 1.524 . S
C6691 C6695 1.400 . S
C6692 H6677 0.960 . S
C6692 H6678 0.960 . S
C6692 H6679 0.960 . S
C6692 C6691 1.524 . S
C6693 C6690 1.403 . S
C6693 C6694 1.392 . S
C6693 C6697 1.495 . S
C6694 C6693 1.392 . S
C6694 C6695 1.385 . S
C6694 C6696 1.478 . S
C6695 H6689 0.930 . S
C6695 C6691 1.400 . S
C6695 C6694 1.385 . S
C6696 C6694 1.478 . S
C6696 C6698 1.381 . S
C6696 C6702 1.383 . S
C6697 C6693 1.495 . S
C6697 H6703 0.959 . S
C6697 H6704 0.961 . S
C6697 H6705 0.960 . S
C6698 C6696 1.381 . S
C6698 C6699 1.394 . S
C6698 H6706 0.930 . S
C6699 C6698 1.394 . S
C6699 C6700 1.383 . S
C6699 H6707 0.929 . S
C6700 C6699 1.383 . S
C6700 C6701 1.377 . S
C6701 H6685 0.930 . S
C6701 C6700 1.377 . S
C6701 C6702 1.379 . S
C6702 H6686 0.931 . S
C6702 C6696 1.383 . S
C6702 C6701 1.379 . S
H6703 C6697 0.959 . S
H6704 C6697 0.961 . S
H6705 C6697 0.960 . S
H6706 C6698 0.930 . S
H6707 C6699 0.929 . S
H6708 C6716 0.929 . S
H6709 C6718 0.930 . S
H6710 C6720 0.930 . S
H6711 C6723 0.929 . S
H6712 C6726 0.930 . S
H6713 C6728 0.960 . S
H6714 C6728 0.960 . S
H6715 C6728 0.960 . S
C6716 H6708 0.929 . S
C6716 C6717 1.377 . S
C6716 C6718 1.384 . S
C6717 C6716 1.377 . S
C6717 C6723 1.390 . S
C6718 H6709 0.930 . S
C6718 C6716 1.384 . S
C6718 C6719 1.372 . S
C6719 C6718 1.372 . S
C6719 C6720 1.400 . S
C6719 C6724 1.490 . S
C6720 H6710 0.930 . S
C6720 C6719 1.400 . S
C6720 C6723 1.386 . S
H6721 C6737 0.930 . S
H6722 C6738 0.931 . S
C6723 H6711 0.929 . S
C6723 C6717 1.390 . S
C6723 C6720 1.386 . S
C6724 C6719 1.490 . S
C6724 C6726 1.395 . S
C6724 C6727 1.403 . S
H6725 C6731 0.930 . S
C6726 H6712 0.930 . S
C6726 C6724 1.395 . S
C6726 C6729 1.403 . S
C6727 C6724 1.403 . S
C6727 C6728 1.524 . S
C6727 C6731 1.400 . S
C6728 H6713 0.960 . S
C6728 H6714 0.960 . S
C6728 H6715 0.960 . S
C6728 C6727 1.524 . S
C6729 C6726 1.403 . S
C6729 C6730 1.392 . S
C6729 C6733 1.495 . S
C6730 C6729 1.392 . S
C6730 C6731 1.385 . S
C6730 C6732 1.478 . S
C6731 H6725 0.930 . S
C6731 C6727 1.400 . S
C6731 C6730 1.385 . S
C6732 C6730 1.478 . S
C6732 C6734 1.381 . S
C6732 C6738 1.383 . S
C6733 C6729 1.495 . S
C6733 H6739 0.959 . S
C6733 H6740 0.961 . S
C6733 H6741 0.960 . S
C6734 C6732 1.381 . S
C6734 C6735 1.394 . S
C6734 H6742 0.930 . S
C6735 C6734 1.394 . S
C6735 C6736 1.383 . S
C6735 H6743 0.929 . S
C6736 C6735 1.383 . S
C6736 C6737 1.377 . S
C6737 H6721 0.930 . S
C6737 C6736 1.377 . S
C6737 C6738 1.379 . S
C6738 H6722 0.931 . S
C6738 C6732 1.383 . S
C6738 C6737 1.379 . S
H6739 C6733 0.959 . S
H6740 C6733 0.961 . S
H6741 C6733 0.960 . S
H6742 C6734 0.930 . S
H6743 C6735 0.929 . S
H6744 C6752 0.929 . S
H6745 C6754 0.930 . S
H6746 C6756 0.930 . S
H6747 C6759 0.929 . S
H6748 C6762 0.930 . S
H6749 C6764 0.960 . S
H6750 C6764 0.960 . S
H6751 C6764 0.960 . S
C6752 H6744 0.929 . S
C6752 C6753 1.377 . S
C6752 C6754 1.384 . S
C6753 C6752 1.377 . S
C6753 C6759 1.390 . S
C6754 H6745 0.930 . S
C6754 C6752 1.384 . S
C6754 C6755 1.372 . S
C6755 C6754 1.372 . S
C6755 C6756 1.400 . S
C6755 C6760 1.490 . S
C6756 H6746 0.930 . S
C6756 C6755 1.400 . S
C6756 C6759 1.386 . S
H6757 C6773 0.930 . S
H6758 C6774 0.931 . S
C6759 H6747 0.929 . S
C6759 C6753 1.390 . S
C6759 C6756 1.386 . S
C6760 C6755 1.490 . S
C6760 C6762 1.395 . S
C6760 C6763 1.403 . S
H6761 C6767 0.930 . S
C6762 H6748 0.930 . S
C6762 C6760 1.395 . S
C6762 C6765 1.403 . S
C6763 C6760 1.403 . S
C6763 C6764 1.524 . S
C6763 C6767 1.400 . S
C6764 H6749 0.960 . S
C6764 H6750 0.960 . S
C6764 H6751 0.960 . S
C6764 C6763 1.524 . S
C6765 C6762 1.403 . S
C6765 C6766 1.392 . S
C6765 C6769 1.495 . S
C6766 C6765 1.392 . S
C6766 C6767 1.385 . S
C6766 C6768 1.478 . S
C6767 H6761 0.930 . S
C6767 C6763 1.400 . S
C6767 C6766 1.385 . S
C6768 C6766 1.478 . S
C6768 C6770 1.381 . S
C6768 C6774 1.383 . S
C6769 C6765 1.495 . S
C6769 H6775 0.959 . S
C6769 H6776 0.961 . S
C6769 H6777 0.960 . S
C6770 C6768 1.381 . S
C6770 C6771 1.394 . S
C6770 H6778 0.930 . S
C6771 C6770 1.394 . S
C6771 C6772 1.383 . S
C6771 H6779 0.929 . S
C6772 C6771 1.383 . S
C6772 C6773 1.377 . S
C6773 H6757 0.930 . S
C6773 C6772 1.377 . S
C6773 C6774 1.379 . S
C6774 H6758 0.931 . S
C6774 C6768 1.383 . S
C6774 C6773 1.379 . S
H6775 C6769 0.959 . S
H6776 C6769 0.961 . S
H6777 C6769 0.960 . S
H6778 C6770 0.930 . S
H6779 C6771 0.929 . S
H6780 C6788 0.929 . S
H6781 C6790 0.930 . S
H6782 C6792 0.930 . S
H6783 C6795 0.929 . S
H6784 C6798 0.930 . S
H6785 C6800 0.960 . S
H6786 C6800 0.960 . S
H6787 C6800 0.960 . S
C6788 H6780 0.929 . S
C6788 C6789 1.377 . S
C6788 C6790 1.384 . S
C6789 C6788 1.377 . S
C6789 C6795 1.390 . S
C6790 H6781 0.930 . S
C6790 C6788 1.384 . S
C6790 C6791 1.372 . S
C6791 C6790 1.372 . S
C6791 C6792 1.400 . S
C6791 C6796 1.490 . S
C6792 H6782 0.930 . S
C6792 C6791 1.400 . S
C6792 C6795 1.386 . S
H6793 C6809 0.930 . S
H6794 C6810 0.931 . S
C6795 H6783 0.929 . S
C6795 C6789 1.390 . S
C6795 C6792 1.386 . S
C6796 C6791 1.490 . S
C6796 C6798 1.395 . S
C6796 C6799 1.403 . S
H6797 C6803 0.930 . S
C6798 H6784 0.930 . S
C6798 C6796 1.395 . S
C6798 C6801 1.403 . S
C6799 C6796 1.403 . S
C6799 C6800 1.524 . S
C6799 C6803 1.400 . S
C6800 H6785 0.960 . S
C6800 H6786 0.960 . S
C6800 H6787 0.960 . S
C6800 C6799 1.524 . S
C6801 C6798 1.403 . S
C6801 C6802 1.392 . S
C6801 C6805 1.495 . S
C6802 C6801 1.392 . S
C6802 C6803 1.385 . S
C6802 C6804 1.478 . S
C6803 H6797 0.930 . S
C6803 C6799 1.400 . S
C6803 C6802 1.385 . S
C6804 C6802 1.478 . S
C6804 C6806 1.381 . S
C6804 C6810 1.383 . S
C6805 C6801 1.495 . S
C6805 H6811 0.959 . S
C6805 H6812 0.961 . S
C6805 H6813 0.960 . S
C6806 C6804 1.381 . S
C6806 C6807 1.394 . S
C6806 H6814 0.930 . S
C6807 C6806 1.394 . S
C6807 C6808 1.383 . S
C6807 H6815 0.929 . S
C6808 C6807 1.383 . S
C6808 C6809 1.377 . S
C6809 H6793 0.930 . S
C6809 C6808 1.377 . S
C6809 C6810 1.379 . S
C6810 H6794 0.931 . S
C6810 C6804 1.383 . S
C6810 C6809 1.379 . S
H6811 C6805 0.959 . S
H6812 C6805 0.961 . S
H6813 C6805 0.960 . S
H6814 C6806 0.930 . S
H6815 C6807 0.929 . S
H6816 C6824 0.929 . S
H6817 C6826 0.930 . S
H6818 C6828 0.930 . S
H6819 C6831 0.929 . S
H6820 C6834 0.930 . S
H6821 C6836 0.960 . S
H6822 C6836 0.960 . S
H6823 C6836 0.960 . S
C6824 H6816 0.929 . S
C6824 C6825 1.377 . S
C6824 C6826 1.384 . S
C6825 C6824 1.377 . S
C6825 C6831 1.390 . S
C6826 H6817 0.930 . S
C6826 C6824 1.384 . S
C6826 C6827 1.372 . S
C6827 C6826 1.372 . S
C6827 C6828 1.400 . S
C6827 C6832 1.490 . S
C6828 H6818 0.930 . S
C6828 C6827 1.400 . S
C6828 C6831 1.386 . S
H6829 C6845 0.930 . S
H6830 C6846 0.931 . S
C6831 H6819 0.929 . S
C6831 C6825 1.390 . S
C6831 C6828 1.386 . S
C6832 C6827 1.490 . S
C6832 C6834 1.395 . S
C6832 C6835 1.403 . S
H6833 C6839 0.930 . S
C6834 H6820 0.930 . S
C6834 C6832 1.395 . S
C6834 C6837 1.403 . S
C6835 C6832 1.403 . S
C6835 C6836 1.524 . S
C6835 C6839 1.400 . S
C6836 H6821 0.960 . S
C6836 H6822 0.960 . S
C6836 H6823 0.960 . S
C6836 C6835 1.524 . S
C6837 C6834 1.403 . S
C6837 C6838 1.392 . S
C6837 C6841 1.495 . S
C6838 C6837 1.392 . S
C6838 C6839 1.385 . S
C6838 C6840 1.478 . S
C6839 H6833 0.930 . S
C6839 C6835 1.400 . S
C6839 C6838 1.385 . S
C6840 C6838 1.478 . S
C6840 C6842 1.381 . S
C6840 C6846 1.383 . S
C6841 C6837 1.495 . S
C6841 H6847 0.959 . S
C6841 H6848 0.961 . S
C6841 H6849 0.960 . S
C6842 C6840 1.381 . S
C6842 C6843 1.394 . S
C6842 H6850 0.930 . S
C6843 C6842 1.394 . S
C6843 C6844 1.383 . S
C6843 H6851 0.929 . S
C6844 C6843 1.383 . S
C6844 C6845 1.377 . S
C6845 H6829 0.930 . S
C6845 C6844 1.377 . S
C6845 C6846 1.379 . S
C6846 H6830 0.931 . S
C6846 C6840 1.383 . S
C6846 C6845 1.379 . S
H6847 C6841 0.959 . S
H6848 C6841 0.961 . S
H6849 C6841 0.960 . S
H6850 C6842 0.930 . S
H6851 C6843 0.929 . S
H6852 C6860 0.929 . S
H6853 C6862 0.930 . S
H6854 C6864 0.930 . S
H6855 C6867 0.929 . S
H6856 C6870 0.930 . S
H6857 C6872 0.960 . S
H6858 C6872 0.960 . S
H6859 C6872 0.960 . S
C6860 H6852 0.929 . S
C6860 C6861 1.377 . S
C6860 C6862 1.384 . S
C6861 C6860 1.377 . S
C6861 C6867 1.390 . S
C6862 H6853 0.930 . S
C6862 C6860 1.384 . S
C6862 C6863 1.372 . S
C6863 C6862 1.372 . S
C6863 C6864 1.400 . S
C6863 C6868 1.490 . S
C6864 H6854 0.930 . S
C6864 C6863 1.400 . S
C6864 C6867 1.386 . S
H6865 C6881 0.930 . S
H6866 C6882 0.931 . S
C6867 H6855 0.929 . S
C6867 C6861 1.390 . S
C6867 C6864 1.386 . S
C6868 C6863 1.490 . S
C6868 C6870 1.395 . S
C6868 C6871 1.403 . S
H6869 C6875 0.930 . S
C6870 H6856 0.930 . S
C6870 C6868 1.395 . S
C6870 C6873 1.403 . S
C6871 C6868 1.403 . S
C6871 C6872 1.524 . S
C6871 C6875 1.400 . S
C6872 H6857 0.960 . S
C6872 H6858 0.960 . S
C6872 H6859 0.960 . S
C6872 C6871 1.524 . S
C6873 C6870 1.403 . S
C6873 C6874 1.392 . S
C6873 C6877 1.495 . S
C6874 C6873 1.392 . S
C6874 C6875 1.385 . S
C6874 C6876 1.478 . S
C6875 H6869 0.930 . S
C6875 C6871 1.400 . S
C6875 C6874 1.385 . S
C6876 C6874 1.478 . S
C6876 C6878 1.381 . S
C6876 C6882 1.383 . S
C6877 C6873 1.495 . S
C6877 H6883 0.959 . S
C6877 H6884 0.961 . S
C6877 H6885 0.960 . S
C6878 C6876 1.381 . S
C6878 C6879 1.394 . S
C6878 H6886 0.930 . S
C6879 C6878 1.394 . S
C6879 C6880 1.383 . S
C6879 H6887 0.929 . S
C6880 C6879 1.383 . S
C6880 C6881 1.377 . S
C6881 H6865 0.930 . S
C6881 C6880 1.377 . S
C6881 C6882 1.379 . S
C6882 H6866 0.931 . S
C6882 C6876 1.383 . S
C6882 C6881 1.379 . S
H6883 C6877 0.959 . S
H6884 C6877 0.961 . S
H6885 C6877 0.960 . S
H6886 C6878 0.930 . S
H6887 C6879 0.929 . S
H6888 C6896 0.929 . S
H6889 C6898 0.930 . S
H6890 C6900 0.930 . S
H6891 C6903 0.929 . S
H6892 C6906 0.930 . S
H6893 C6908 0.960 . S
H6894 C6908 0.960 . S
H6895 C6908 0.960 . S
C6896 H6888 0.929 . S
C6896 C6897 1.377 . S
C6896 C6898 1.384 . S
C6897 C6896 1.377 . S
C6897 C6903 1.390 . S
C6898 H6889 0.930 . S
C6898 C6896 1.384 . S
C6898 C6899 1.372 . S
C6899 C6898 1.372 . S
C6899 C6900 1.400 . S
C6899 C6904 1.490 . S
C6900 H6890 0.930 . S
C6900 C6899 1.400 . S
C6900 C6903 1.386 . S
H6901 C6917 0.930 . S
H6902 C6918 0.931 . S
C6903 H6891 0.929 . S
C6903 C6897 1.390 . S
C6903 C6900 1.386 . S
C6904 C6899 1.490 . S
C6904 C6906 1.395 . S
C6904 C6907 1.403 . S
H6905 C6911 0.930 . S
C6906 H6892 0.930 . S
C6906 C6904 1.395 . S
C6906 C6909 1.403 . S
C6907 C6904 1.403 . S
C6907 C6908 1.524 . S
C6907 C6911 1.400 . S
C6908 H6893 0.960 . S
C6908 H6894 0.960 . S
C6908 H6895 0.960 . S
C6908 C6907 1.524 . S
C6909 C6906 1.403 . S
C6909 C6910 1.392 . S
C6909 C6913 1.495 . S
C6910 C6909 1.392 . S
C6910 C6911 1.385 . S
C6910 C6912 1.478 . S
C6911 H6905 0.930 . S
C6911 C6907 1.400 . S
C6911 C6910 1.385 . S
C6912 C6910 1.478 . S
C6912 C6914 1.381 . S
C6912 C6918 1.383 . S
C6913 C6909 1.495 . S
C6913 H6919 0.959 . S
C6913 H6920 0.961 . S
C6913 H6921 0.960 . S
C6914 C6912 1.381 . S
C6914 C6915 1.394 . S
C6914 H6922 0.930 . S
C6915 C6914 1.394 . S
C6915 C6916 1.383 . S
C6915 H6923 0.929 . S
C6916 C6915 1.383 . S
C6916 C6917 1.377 . S
C6917 H6901 0.930 . S
C6917 C6916 1.377 . S
C6917 C6918 1.379 . S
C6918 H6902 0.931 . S
C6918 C6912 1.383 . S
C6918 C6917 1.379 . S
H6919 C6913 0.959 . S
H6920 C6913 0.961 . S
H6921 C6913 0.960 . S
H6922 C6914 0.930 . S
H6923 C6915 0.929 . S
H6924 C6932 0.929 . S
H6925 C6934 0.930 . S
H6926 C6936 0.930 . S
H6927 C6939 0.929 . S
H6928 C6942 0.930 . S
H6929 C6944 0.960 . S
H6930 C6944 0.960 . S
H6931 C6944 0.960 . S
C6932 H6924 0.929 . S
C6932 C6933 1.377 . S
C6932 C6934 1.384 . S
C6933 C6932 1.377 . S
C6933 C6939 1.390 . S
C6934 H6925 0.930 . S
C6934 C6932 1.384 . S
C6934 C6935 1.372 . S
C6935 C6934 1.372 . S
C6935 C6936 1.400 . S
C6935 C6940 1.490 . S
C6936 H6926 0.930 . S
C6936 C6935 1.400 . S
C6936 C6939 1.386 . S
H6937 C6953 0.930 . S
H6938 C6954 0.931 . S
C6939 H6927 0.929 . S
C6939 C6933 1.390 . S
C6939 C6936 1.386 . S
C6940 C6935 1.490 . S
C6940 C6942 1.395 . S
C6940 C6943 1.403 . S
H6941 C6947 0.930 . S
C6942 H6928 0.930 . S
C6942 C6940 1.395 . S
C6942 C6945 1.403 . S
C6943 C6940 1.403 . S
C6943 C6944 1.524 . S
C6943 C6947 1.400 . S
C6944 H6929 0.960 . S
C6944 H6930 0.960 . S
C6944 H6931 0.960 . S
C6944 C6943 1.524 . S
C6945 C6942 1.403 . S
C6945 C6946 1.392 . S
C6945 C6949 1.495 . S
C6946 C6945 1.392 . S
C6946 C6947 1.385 . S
C6946 C6948 1.478 . S
C6947 H6941 0.930 . S
C6947 C6943 1.400 . S
C6947 C6946 1.385 . S
C6948 C6946 1.478 . S
C6948 C6950 1.381 . S
C6948 C6954 1.383 . S
C6949 C6945 1.495 . S
C6949 H6955 0.959 . S
C6949 H6956 0.961 . S
C6949 H6957 0.960 . S
C6950 C6948 1.381 . S
C6950 C6951 1.394 . S
C6950 H6958 0.930 . S
C6951 C6950 1.394 . S
C6951 C6952 1.383 . S
C6951 H6959 0.929 . S
C6952 C6951 1.383 . S
C6952 C6953 1.377 . S
C6953 H6937 0.930 . S
C6953 C6952 1.377 . S
C6953 C6954 1.379 . S
C6954 H6938 0.931 . S
C6954 C6948 1.383 . S
C6954 C6953 1.379 . S
H6955 C6949 0.959 . S
H6956 C6949 0.961 . S
H6957 C6949 0.960 . S
H6958 C6950 0.930 . S
H6959 C6951 0.929 . S
H6960 C6968 0.929 . S
H6961 C6970 0.930 . S
H6962 C6972 0.930 . S
H6963 C6975 0.929 . S
H6964 C6978 0.930 . S
H6965 C6980 0.960 . S
H6966 C6980 0.960 . S
H6967 C6980 0.960 . S
C6968 H6960 0.929 . S
C6968 C6969 1.377 . S
C6968 C6970 1.384 . S
C6969 C6968 1.377 . S
C6969 C6975 1.390 . S
C6970 H6961 0.930 . S
C6970 C6968 1.384 . S
C6970 C6971 1.372 . S
C6971 C6970 1.372 . S
C6971 C6972 1.400 . S
C6971 C6976 1.490 . S
C6972 H6962 0.930 . S
C6972 C6971 1.400 . S
C6972 C6975 1.386 . S
H6973 C6989 0.930 . S
H6974 C6990 0.931 . S
C6975 H6963 0.929 . S
C6975 C6969 1.390 . S
C6975 C6972 1.386 . S
C6976 C6971 1.490 . S
C6976 C6978 1.395 . S
C6976 C6979 1.403 . S
H6977 C6983 0.930 . S
C6978 H6964 0.930 . S
C6978 C6976 1.395 . S
C6978 C6981 1.403 . S
C6979 C6976 1.403 . S
C6979 C6980 1.524 . S
C6979 C6983 1.400 . S
C6980 H6965 0.960 . S
C6980 H6966 0.960 . S
C6980 H6967 0.960 . S
C6980 C6979 1.524 . S
C6981 C6978 1.403 . S
C6981 C6982 1.392 . S
C6981 C6985 1.495 . S
C6982 C6981 1.392 . S
C6982 C6983 1.385 . S
C6982 C6984 1.478 . S
C6983 H6977 0.930 . S
C6983 C6979 1.400 . S
C6983 C6982 1.385 . S
C6984 C6982 1.478 . S
C6984 C6986 1.381 . S
C6984 C6990 1.383 . S
C6985 C6981 1.495 . S
C6985 H6991 0.959 . S
C6985 H6992 0.961 . S
C6985 H6993 0.960 . S
C6986 C6984 1.381 . S
C6986 C6987 1.394 . S
C6986 H6994 0.930 . S
C6987 C6986 1.394 . S
C6987 C6988 1.383 . S
C6987 H6995 0.929 . S
C6988 C6987 1.383 . S
C6988 C6989 1.377 . S
C6989 H6973 0.930 . S
C6989 C6988 1.377 . S
C6989 C6990 1.379 . S
C6990 H6974 0.931 . S
C6990 C6984 1.383 . S
C6990 C6989 1.379 . S
H6991 C6985 0.959 . S
H6992 C6985 0.961 . S
H6993 C6985 0.960 . S
H6994 C6986 0.930 . S
H6995 C6987 0.929 . S
H6996 C7004 0.929 . S
H6997 C7006 0.930 . S
H6998 C7008 0.930 . S
H6999 C7011 0.929 . S
H7000 C7014 0.930 . S
H7001 C7016 0.960 . S
H7002 C7016 0.960 . S
H7003 C7016 0.960 . S
C7004 H6996 0.929 . S
C7004 C7005 1.377 . S
C7004 C7006 1.384 . S
C7005 C7004 1.377 . S
C7005 C7011 1.390 . S
C7006 H6997 0.930 . S
C7006 C7004 1.384 . S
C7006 C7007 1.372 . S
C7007 C7006 1.372 . S
C7007 C7008 1.400 . S
C7007 C7012 1.490 . S
C7008 H6998 0.930 . S
C7008 C7007 1.400 . S
C7008 C7011 1.386 . S
H7009 C7025 0.930 . S
H7010 C7026 0.931 . S
C7011 H6999 0.929 . S
C7011 C7005 1.390 . S
C7011 C7008 1.386 . S
C7012 C7007 1.490 . S
C7012 C7014 1.395 . S
C7012 C7015 1.403 . S
H7013 C7019 0.930 . S
C7014 H7000 0.930 . S
C7014 C7012 1.395 . S
C7014 C7017 1.403 . S
C7015 C7012 1.403 . S
C7015 C7016 1.524 . S
C7015 C7019 1.400 . S
C7016 H7001 0.960 . S
C7016 H7002 0.960 . S
C7016 H7003 0.960 . S
C7016 C7015 1.524 . S
C7017 C7014 1.403 . S
C7017 C7018 1.392 . S
C7017 C7021 1.495 . S
C7018 C7017 1.392 . S
C7018 C7019 1.385 . S
C7018 C7020 1.478 . S
C7019 H7013 0.930 . S
C7019 C7015 1.400 . S
C7019 C7018 1.385 . S
C7020 C7018 1.478 . S
C7020 C7022 1.381 . S
C7020 C7026 1.383 . S
C7021 C7017 1.495 . S
C7021 H7027 0.959 . S
C7021 H7028 0.961 . S
C7021 H7029 0.960 . S
C7022 C7020 1.381 . S
C7022 C7023 1.394 . S
C7022 H7030 0.930 . S
C7023 C7022 1.394 . S
C7023 C7024 1.383 . S
C7023 H7031 0.929 . S
C7024 C7023 1.383 . S
C7024 C7025 1.377 . S
C7025 H7009 0.930 . S
C7025 C7024 1.377 . S
C7025 C7026 1.379 . S
C7026 H7010 0.931 . S
C7026 C7020 1.383 . S
C7026 C7025 1.379 . S
H7027 C7021 0.959 . S
H7028 C7021 0.961 . S
H7029 C7021 0.960 . S
H7030 C7022 0.930 . S
H7031 C7023 0.929 . S
H7032 C7040 0.929 . S
H7033 C7042 0.930 . S
H7034 C7044 0.930 . S
H7035 C7047 0.929 . S
H7036 C7050 0.930 . S
H7037 C7052 0.960 . S
H7038 C7052 0.960 . S
H7039 C7052 0.960 . S
C7040 H7032 0.929 . S
C7040 C7041 1.377 . S
C7040 C7042 1.384 . S
C7041 C7040 1.377 . S
C7041 C7047 1.390 . S
C7042 H7033 0.930 . S
C7042 C7040 1.384 . S
C7042 C7043 1.372 . S
C7043 C7042 1.372 . S
C7043 C7044 1.400 . S
C7043 C7048 1.490 . S
C7044 H7034 0.930 . S
C7044 C7043 1.400 . S
C7044 C7047 1.386 . S
H7045 C7061 0.930 . S
H7046 C7062 0.931 . S
C7047 H7035 0.929 . S
C7047 C7041 1.390 . S
C7047 C7044 1.386 . S
C7048 C7043 1.490 . S
C7048 C7050 1.395 . S
C7048 C7051 1.403 . S
H7049 C7055 0.930 . S
C7050 H7036 0.930 . S
C7050 C7048 1.395 . S
C7050 C7053 1.403 . S
C7051 C7048 1.403 . S
C7051 C7052 1.524 . S
C7051 C7055 1.400 . S
C7052 H7037 0.960 . S
C7052 H7038 0.960 . S
C7052 H7039 0.960 . S
C7052 C7051 1.524 . S
C7053 C7050 1.403 . S
C7053 C7054 1.392 . S
C7053 C7057 1.495 . S
C7054 C7053 1.392 . S
C7054 C7055 1.385 . S
C7054 C7056 1.478 . S
C7055 H7049 0.930 . S
C7055 C7051 1.400 . S
C7055 C7054 1.385 . S
C7056 C7054 1.478 . S
C7056 C7058 1.381 . S
C7056 C7062 1.383 . S
C7057 C7053 1.495 . S
C7057 H7063 0.959 . S
C7057 H7064 0.961 . S
C7057 H7065 0.960 . S
C7058 C7056 1.381 . S
C7058 C7059 1.394 . S
C7058 H7066 0.930 . S
C7059 C7058 1.394 . S
C7059 C7060 1.383 . S
C7059 H7067 0.929 . S
C7060 C7059 1.383 . S
C7060 C7061 1.377 . S
C7061 H7045 0.930 . S
C7061 C7060 1.377 . S
C7061 C7062 1.379 . S
C7062 H7046 0.931 . S
C7062 C7056 1.383 . S
C7062 C7061 1.379 . S
H7063 C7057 0.959 . S
H7064 C7057 0.961 . S
H7065 C7057 0.960 . S
H7066 C7058 0.930 . S
H7067 C7059 0.929 . S
H7068 C7076 0.929 . S
H7069 C7078 0.930 . S
H7070 C7080 0.930 . S
H7071 C7083 0.929 . S
H7072 C7086 0.930 . S
H7073 C7088 0.960 . S
H7074 C7088 0.960 . S
H7075 C7088 0.960 . S
C7076 H7068 0.929 . S
C7076 C7077 1.377 . S
C7076 C7078 1.384 . S
C7077 C7076 1.377 . S
C7077 C7083 1.390 . S
C7078 H7069 0.930 . S
C7078 C7076 1.384 . S
C7078 C7079 1.372 . S
C7079 C7078 1.372 . S
C7079 C7080 1.400 . S
C7079 C7084 1.490 . S
C7080 H7070 0.930 . S
C7080 C7079 1.400 . S
C7080 C7083 1.386 . S
H7081 C7097 0.930 . S
H7082 C7098 0.931 . S
C7083 H7071 0.929 . S
C7083 C7077 1.390 . S
C7083 C7080 1.386 . S
C7084 C7079 1.490 . S
C7084 C7086 1.395 . S
C7084 C7087 1.403 . S
H7085 C7091 0.930 . S
C7086 H7072 0.930 . S
C7086 C7084 1.395 . S
C7086 C7089 1.403 . S
C7087 C7084 1.403 . S
C7087 C7088 1.524 . S
C7087 C7091 1.400 . S
C7088 H7073 0.960 . S
C7088 H7074 0.960 . S
C7088 H7075 0.960 . S
C7088 C7087 1.524 . S
C7089 C7086 1.403 . S
C7089 C7090 1.392 . S
C7089 C7093 1.495 . S
C7090 C7089 1.392 . S
C7090 C7091 1.385 . S
C7090 C7092 1.478 . S
C7091 H7085 0.930 . S
C7091 C7087 1.400 . S
C7091 C7090 1.385 . S
C7092 C7090 1.478 . S
C7092 C7094 1.381 . S
C7092 C7098 1.383 . S
C7093 C7089 1.495 . S
C7093 H7099 0.959 . S
C7093 H7100 0.961 . S
C7093 H7101 0.960 . S
C7094 C7092 1.381 . S
C7094 C7095 1.394 . S
C7094 H7102 0.930 . S
C7095 C7094 1.394 . S
C7095 C7096 1.383 . S
C7095 H7103 0.929 . S
C7096 C7095 1.383 . S
C7096 C7097 1.377 . S
C7097 H7081 0.930 . S
C7097 C7096 1.377 . S
C7097 C7098 1.379 . S
C7098 H7082 0.931 . S
C7098 C7092 1.383 . S
C7098 C7097 1.379 . S
H7099 C7093 0.959 . S
H7100 C7093 0.961 . S
H7101 C7093 0.960 . S
H7102 C7094 0.930 . S
H7103 C7095 0.929 . S
H7104 C7112 0.929 . S
H7105 C7114 0.930 . S
H7106 C7116 0.930 . S
H7107 C7119 0.929 . S
H7108 C7122 0.930 . S
H7109 C7124 0.960 . S
H7110 C7124 0.960 . S
H7111 C7124 0.960 . S
C7112 H7104 0.929 . S
C7112 C7113 1.377 . S
C7112 C7114 1.384 . S
C7113 C7112 1.377 . S
C7113 C7119 1.390 . S
C7114 H7105 0.930 . S
C7114 C7112 1.384 . S
C7114 C7115 1.372 . S
C7115 C7114 1.372 . S
C7115 C7116 1.400 . S
C7115 C7120 1.490 . S
C7116 H7106 0.930 . S
C7116 C7115 1.400 . S
C7116 C7119 1.386 . S
H7117 C7133 0.930 . S
H7118 C7134 0.931 . S
C7119 H7107 0.929 . S
C7119 C7113 1.390 . S
C7119 C7116 1.386 . S
C7120 C7115 1.490 . S
C7120 C7122 1.395 . S
C7120 C7123 1.403 . S
H7121 C7127 0.930 . S
C7122 H7108 0.930 . S
C7122 C7120 1.395 . S
C7122 C7125 1.403 . S
C7123 C7120 1.403 . S
C7123 C7124 1.524 . S
C7123 C7127 1.400 . S
C7124 H7109 0.960 . S
C7124 H7110 0.960 . S
C7124 H7111 0.960 . S
C7124 C7123 1.524 . S
C7125 C7122 1.403 . S
C7125 C7126 1.392 . S
C7125 C7129 1.495 . S
C7126 C7125 1.392 . S
C7126 C7127 1.385 . S
C7126 C7128 1.478 . S
C7127 H7121 0.930 . S
C7127 C7123 1.400 . S
C7127 C7126 1.385 . S
C7128 C7126 1.478 . S
C7128 C7130 1.381 . S
C7128 C7134 1.383 . S
C7129 C7125 1.495 . S
C7129 H7135 0.959 . S
C7129 H7136 0.961 . S
C7129 H7137 0.960 . S
C7130 C7128 1.381 . S
C7130 C7131 1.394 . S
C7130 H7138 0.930 . S
C7131 C7130 1.394 . S
C7131 C7132 1.383 . S
C7131 H7139 0.929 . S
C7132 C7131 1.383 . S
C7132 C7133 1.377 . S
C7133 H7117 0.930 . S
C7133 C7132 1.377 . S
C7133 C7134 1.379 . S
C7134 H7118 0.931 . S
C7134 C7128 1.383 . S
C7134 C7133 1.379 . S
H7135 C7129 0.959 . S
H7136 C7129 0.961 . S
H7137 C7129 0.960 . S
H7138 C7130 0.930 . S
H7139 C7131 0.929 . S
H7140 C7148 0.929 . S
H7141 C7150 0.930 . S
H7142 C7152 0.930 . S
H7143 C7155 0.929 . S
H7144 C7158 0.930 . S
H7145 C7160 0.960 . S
H7146 C7160 0.960 . S
H7147 C7160 0.960 . S
C7148 H7140 0.929 . S
C7148 C7149 1.377 . S
C7148 C7150 1.384 . S
C7149 C7148 1.377 . S
C7149 C7155 1.390 . S
C7150 H7141 0.930 . S
C7150 C7148 1.384 . S
C7150 C7151 1.372 . S
C7151 C7150 1.372 . S
C7151 C7152 1.400 . S
C7151 C7156 1.490 . S
C7152 H7142 0.930 . S
C7152 C7151 1.400 . S
C7152 C7155 1.386 . S
H7153 C7169 0.930 . S
H7154 C7170 0.931 . S
C7155 H7143 0.929 . S
C7155 C7149 1.390 . S
C7155 C7152 1.386 . S
C7156 C7151 1.490 . S
C7156 C7158 1.395 . S
C7156 C7159 1.403 . S
H7157 C7163 0.930 . S
C7158 H7144 0.930 . S
C7158 C7156 1.395 . S
C7158 C7161 1.403 . S
C7159 C7156 1.403 . S
C7159 C7160 1.524 . S
C7159 C7163 1.400 . S
C7160 H7145 0.960 . S
C7160 H7146 0.960 . S
C7160 H7147 0.960 . S
C7160 C7159 1.524 . S
C7161 C7158 1.403 . S
C7161 C7162 1.392 . S
C7161 C7165 1.495 . S
C7162 C7161 1.392 . S
C7162 C7163 1.385 . S
C7162 C7164 1.478 . S
C7163 H7157 0.930 . S
C7163 C7159 1.400 . S
C7163 C7162 1.385 . S
C7164 C7162 1.478 . S
C7164 C7166 1.381 . S
C7164 C7170 1.383 . S
C7165 C7161 1.495 . S
C7165 H7171 0.959 . S
C7165 H7172 0.961 . S
C7165 H7173 0.960 . S
C7166 C7164 1.381 . S
C7166 C7167 1.394 . S
C7166 H7174 0.930 . S
C7167 C7166 1.394 . S
C7167 C7168 1.383 . S
C7167 H7175 0.929 . S
C7168 C7167 1.383 . S
C7168 C7169 1.377 . S
C7169 H7153 0.930 . S
C7169 C7168 1.377 . S
C7169 C7170 1.379 . S
C7170 H7154 0.931 . S
C7170 C7164 1.383 . S
C7170 C7169 1.379 . S
H7171 C7165 0.959 . S
H7172 C7165 0.961 . S
H7173 C7165 0.960 . S
H7174 C7166 0.930 . S
H7175 C7167 0.929 . S
H7176 C7184 0.929 . S
H7177 C7186 0.930 . S
H7178 C7188 0.930 . S
H7179 C7191 0.929 . S
H7180 C7194 0.930 . S
H7181 C7196 0.960 . S
H7182 C7196 0.960 . S
H7183 C7196 0.960 . S
C7184 H7176 0.929 . S
C7184 C7185 1.377 . S
C7184 C7186 1.384 . S
C7185 C7184 1.377 . S
C7185 C7191 1.390 . S
C7186 H7177 0.930 . S
C7186 C7184 1.384 . S
C7186 C7187 1.372 . S
C7187 C7186 1.372 . S
C7187 C7188 1.400 . S
C7187 C7192 1.490 . S
C7188 H7178 0.930 . S
C7188 C7187 1.400 . S
C7188 C7191 1.386 . S
H7189 C7205 0.930 . S
H7190 C7206 0.931 . S
C7191 H7179 0.929 . S
C7191 C7185 1.390 . S
C7191 C7188 1.386 . S
C7192 C7187 1.490 . S
C7192 C7194 1.395 . S
C7192 C7195 1.403 . S
H7193 C7199 0.930 . S
C7194 H7180 0.930 . S
C7194 C7192 1.395 . S
C7194 C7197 1.403 . S
C7195 C7192 1.403 . S
C7195 C7196 1.524 . S
C7195 C7199 1.400 . S
C7196 H7181 0.960 . S
C7196 H7182 0.960 . S
C7196 H7183 0.960 . S
C7196 C7195 1.524 . S
C7197 C7194 1.403 . S
C7197 C7198 1.392 . S
C7197 C7201 1.495 . S
C7198 C7197 1.392 . S
C7198 C7199 1.385 . S
C7198 C7200 1.478 . S
C7199 H7193 0.930 . S
C7199 C7195 1.400 . S
C7199 C7198 1.385 . S
C7200 C7198 1.478 . S
C7200 C7202 1.381 . S
C7200 C7206 1.383 . S
C7201 C7197 1.495 . S
C7201 H7207 0.959 . S
C7201 H7208 0.961 . S
C7201 H7209 0.960 . S
C7202 C7200 1.381 . S
C7202 C7203 1.394 . S
C7202 H7210 0.930 . S
C7203 C7202 1.394 . S
C7203 C7204 1.383 . S
C7203 H7211 0.929 . S
C7204 C7203 1.383 . S
C7204 C7205 1.377 . S
C7205 H7189 0.930 . S
C7205 C7204 1.377 . S
C7205 C7206 1.379 . S
C7206 H7190 0.931 . S
C7206 C7200 1.383 . S
C7206 C7205 1.379 . S
H7207 C7201 0.959 . S
H7208 C7201 0.961 . S
H7209 C7201 0.960 . S
H7210 C7202 0.930 . S
H7211 C7203 0.929 . S
H7212 C7220 0.929 . S
H7213 C7222 0.930 . S
H7214 C7224 0.930 . S
H7215 C7227 0.929 . S
H7216 C7230 0.930 . S
H7217 C7232 0.960 . S
H7218 C7232 0.960 . S
H7219 C7232 0.960 . S
C7220 H7212 0.929 . S
C7220 C7221 1.377 . S
C7220 C7222 1.384 . S
C7221 C7220 1.377 . S
C7221 C7227 1.390 . S
C7222 H7213 0.930 . S
C7222 C7220 1.384 . S
C7222 C7223 1.372 . S
C7223 C7222 1.372 . S
C7223 C7224 1.400 . S
C7223 C7228 1.490 . S
C7224 H7214 0.930 . S
C7224 C7223 1.400 . S
C7224 C7227 1.386 . S
H7225 C7241 0.930 . S
H7226 C7242 0.931 . S
C7227 H7215 0.929 . S
C7227 C7221 1.390 . S
C7227 C7224 1.386 . S
C7228 C7223 1.490 . S
C7228 C7230 1.395 . S
C7228 C7231 1.403 . S
H7229 C7235 0.930 . S
C7230 H7216 0.930 . S
C7230 C7228 1.395 . S
C7230 C7233 1.403 . S
C7231 C7228 1.403 . S
C7231 C7232 1.524 . S
C7231 C7235 1.400 . S
C7232 H7217 0.960 . S
C7232 H7218 0.960 . S
C7232 H7219 0.960 . S
C7232 C7231 1.524 . S
C7233 C7230 1.403 . S
C7233 C7234 1.392 . S
C7233 C7237 1.495 . S
C7234 C7233 1.392 . S
C7234 C7235 1.385 . S
C7234 C7236 1.478 . S
C7235 H7229 0.930 . S
C7235 C7231 1.400 . S
C7235 C7234 1.385 . S
C7236 C7234 1.478 . S
C7236 C7238 1.381 . S
C7236 C7242 1.383 . S
C7237 C7233 1.495 . S
C7237 H7243 0.959 . S
C7237 H7244 0.961 . S
C7237 H7245 0.960 . S
C7238 C7236 1.381 . S
C7238 C7239 1.394 . S
C7238 H7246 0.930 . S
C7239 C7238 1.394 . S
C7239 C7240 1.383 . S
C7239 H7247 0.929 . S
C7240 C7239 1.383 . S
C7240 C7241 1.377 . S
C7241 H7225 0.930 . S
C7241 C7240 1.377 . S
C7241 C7242 1.379 . S
C7242 H7226 0.931 . S
C7242 C7236 1.383 . S
C7242 C7241 1.379 . S
H7243 C7237 0.959 . S
H7244 C7237 0.961 . S
H7245 C7237 0.960 . S
H7246 C7238 0.930 . S
H7247 C7239 0.929 . S
H7248 C7256 0.929 . S
H7249 C7258 0.930 . S
H7250 C7260 0.930 . S
H7251 C7263 0.929 . S
H7252 C7266 0.930 . S
H7253 C7268 0.960 . S
H7254 C7268 0.960 . S
H7255 C7268 0.960 . S
C7256 H7248 0.929 . S
C7256 C7257 1.377 . S
C7256 C7258 1.384 . S
C7257 C7256 1.377 . S
C7257 C7263 1.390 . S
C7258 H7249 0.930 . S
C7258 C7256 1.384 . S
C7258 C7259 1.372 . S
C7259 C7258 1.372 . S
C7259 C7260 1.400 . S
C7259 C7264 1.490 . S
C7260 H7250 0.930 . S
C7260 C7259 1.400 . S
C7260 C7263 1.386 . S
H7261 C7277 0.930 . S
H7262 C7278 0.931 . S
C7263 H7251 0.929 . S
C7263 C7257 1.390 . S
C7263 C7260 1.386 . S
C7264 C7259 1.490 . S
C7264 C7266 1.395 . S
C7264 C7267 1.403 . S
H7265 C7271 0.930 . S
C7266 H7252 0.930 . S
C7266 C7264 1.395 . S
C7266 C7269 1.403 . S
C7267 C7264 1.403 . S
C7267 C7268 1.524 . S
C7267 C7271 1.400 . S
C7268 H7253 0.960 . S
C7268 H7254 0.960 . S
C7268 H7255 0.960 . S
C7268 C7267 1.524 . S
C7269 C7266 1.403 . S
C7269 C7270 1.392 . S
C7269 C7273 1.495 . S
C7270 C7269 1.392 . S
C7270 C7271 1.385 . S
C7270 C7272 1.478 . S
C7271 H7265 0.930 . S
C7271 C7267 1.400 . S
C7271 C7270 1.385 . S
C7272 C7270 1.478 . S
C7272 C7274 1.381 . S
C7272 C7278 1.383 . S
C7273 C7269 1.495 . S
C7273 H7279 0.959 . S
C7273 H7280 0.961 . S
C7273 H7281 0.960 . S
C7274 C7272 1.381 . S
C7274 C7275 1.394 . S
C7274 H7282 0.930 . S
C7275 C7274 1.394 . S
C7275 C7276 1.383 . S
C7275 H7283 0.929 . S
C7276 C7275 1.383 . S
C7276 C7277 1.377 . S
C7277 H7261 0.930 . S
C7277 C7276 1.377 . S
C7277 C7278 1.379 . S
C7278 H7262 0.931 . S
C7278 C7272 1.383 . S
C7278 C7277 1.379 . S
H7279 C7273 0.959 . S
H7280 C7273 0.961 . S
H7281 C7273 0.960 . S
H7282 C7274 0.930 . S
H7283 C7275 0.929 . S
H7284 C7292 0.929 . S
H7285 C7294 0.930 . S
H7286 C7296 0.930 . S
H7287 C7299 0.929 . S
H7288 C7302 0.930 . S
H7289 C7304 0.960 . S
H7290 C7304 0.960 . S
H7291 C7304 0.960 . S
C7292 H7284 0.929 . S
C7292 C7293 1.377 . S
C7292 C7294 1.384 . S
C7293 C7292 1.377 . S
C7293 C7299 1.390 . S
C7294 H7285 0.930 . S
C7294 C7292 1.384 . S
C7294 C7295 1.372 . S
C7295 C7294 1.372 . S
C7295 C7296 1.400 . S
C7295 C7300 1.490 . S
C7296 H7286 0.930 . S
C7296 C7295 1.400 . S
C7296 C7299 1.386 . S
H7297 C7313 0.930 . S
H7298 C7314 0.931 . S
C7299 H7287 0.929 . S
C7299 C7293 1.390 . S
C7299 C7296 1.386 . S
C7300 C7295 1.490 . S
C7300 C7302 1.395 . S
C7300 C7303 1.403 . S
H7301 C7307 0.930 . S
C7302 H7288 0.930 . S
C7302 C7300 1.395 . S
C7302 C7305 1.403 . S
C7303 C7300 1.403 . S
C7303 C7304 1.524 . S
C7303 C7307 1.400 . S
C7304 H7289 0.960 . S
C7304 H7290 0.960 . S
C7304 H7291 0.960 . S
C7304 C7303 1.524 . S
C7305 C7302 1.403 . S
C7305 C7306 1.392 . S
C7305 C7309 1.495 . S
C7306 C7305 1.392 . S
C7306 C7307 1.385 . S
C7306 C7308 1.478 . S
C7307 H7301 0.930 . S
C7307 C7303 1.400 . S
C7307 C7306 1.385 . S
C7308 C7306 1.478 . S
C7308 C7310 1.381 . S
C7308 C7314 1.383 . S
C7309 C7305 1.495 . S
C7309 H7315 0.959 . S
C7309 H7316 0.961 . S
C7309 H7317 0.960 . S
C7310 C7308 1.381 . S
C7310 C7311 1.394 . S
C7310 H7318 0.930 . S
C7311 C7310 1.394 . S
C7311 C7312 1.383 . S
C7311 H7319 0.929 . S
C7312 C7311 1.383 . S
C7312 C7313 1.377 . S
C7313 H7297 0.930 . S
C7313 C7312 1.377 . S
C7313 C7314 1.379 . S
C7314 H7298 0.931 . S
C7314 C7308 1.383 . S
C7314 C7313 1.379 . S
H7315 C7309 0.959 . S
H7316 C7309 0.961 . S
H7317 C7309 0.960 . S
H7318 C7310 0.930 . S
H7319 C7311 0.929 . S
H7320 C7328 0.929 . S
H7321 C7330 0.930 . S
H7322 C7332 0.930 . S
H7323 C7335 0.929 . S
H7324 C7338 0.930 . S
H7325 C7340 0.960 . S
H7326 C7340 0.960 . S
H7327 C7340 0.960 . S
C7328 H7320 0.929 . S
C7328 C7329 1.377 . S
C7328 C7330 1.384 . S
C7329 C7328 1.377 . S
C7329 C7335 1.390 . S
C7330 H7321 0.930 . S
C7330 C7328 1.384 . S
C7330 C7331 1.372 . S
C7331 C7330 1.372 . S
C7331 C7332 1.400 . S
C7331 C7336 1.490 . S
C7332 H7322 0.930 . S
C7332 C7331 1.400 . S
C7332 C7335 1.386 . S
H7333 C7349 0.930 . S
H7334 C7350 0.931 . S
C7335 H7323 0.929 . S
C7335 C7329 1.390 . S
C7335 C7332 1.386 . S
C7336 C7331 1.490 . S
C7336 C7338 1.395 . S
C7336 C7339 1.403 . S
H7337 C7343 0.930 . S
C7338 H7324 0.930 . S
C7338 C7336 1.395 . S
C7338 C7341 1.403 . S
C7339 C7336 1.403 . S
C7339 C7340 1.524 . S
C7339 C7343 1.400 . S
C7340 H7325 0.960 . S
C7340 H7326 0.960 . S
C7340 H7327 0.960 . S
C7340 C7339 1.524 . S
C7341 C7338 1.403 . S
C7341 C7342 1.392 . S
C7341 C7345 1.495 . S
C7342 C7341 1.392 . S
C7342 C7343 1.385 . S
C7342 C7344 1.478 . S
C7343 H7337 0.930 . S
C7343 C7339 1.400 . S
C7343 C7342 1.385 . S
C7344 C7342 1.478 . S
C7344 C7346 1.381 . S
C7344 C7350 1.383 . S
C7345 C7341 1.495 . S
C7345 H7351 0.959 . S
C7345 H7352 0.961 . S
C7345 H7353 0.960 . S
C7346 C7344 1.381 . S
C7346 C7347 1.394 . S
C7346 H7354 0.930 . S
C7347 C7346 1.394 . S
C7347 C7348 1.383 . S
C7347 H7355 0.929 . S
C7348 C7347 1.383 . S
C7348 C7349 1.377 . S
C7349 H7333 0.930 . S
C7349 C7348 1.377 . S
C7349 C7350 1.379 . S
C7350 H7334 0.931 . S
C7350 C7344 1.383 . S
C7350 C7349 1.379 . S
H7351 C7345 0.959 . S
H7352 C7345 0.961 . S
H7353 C7345 0.960 . S
H7354 C7346 0.930 . S
H7355 C7347 0.929 . S
H7356 C7364 0.929 . S
H7357 C7366 0.930 . S
H7358 C7368 0.930 . S
H7359 C7371 0.929 . S
H7360 C7374 0.930 . S
H7361 C7376 0.960 . S
H7362 C7376 0.960 . S
H7363 C7376 0.960 . S
C7364 H7356 0.929 . S
C7364 C7365 1.377 . S
C7364 C7366 1.384 . S
C7365 C7364 1.377 . S
C7365 C7371 1.390 . S
C7366 H7357 0.930 . S
C7366 C7364 1.384 . S
C7366 C7367 1.372 . S
C7367 C7366 1.372 . S
C7367 C7368 1.400 . S
C7367 C7372 1.490 . S
C7368 H7358 0.930 . S
C7368 C7367 1.400 . S
C7368 C7371 1.386 . S
H7369 C7385 0.930 . S
H7370 C7386 0.931 . S
C7371 H7359 0.929 . S
C7371 C7365 1.390 . S
C7371 C7368 1.386 . S
C7372 C7367 1.490 . S
C7372 C7374 1.395 . S
C7372 C7375 1.403 . S
H7373 C7379 0.930 . S
C7374 H7360 0.930 . S
C7374 C7372 1.395 . S
C7374 C7377 1.403 . S
C7375 C7372 1.403 . S
C7375 C7376 1.524 . S
C7375 C7379 1.400 . S
C7376 H7361 0.960 . S
C7376 H7362 0.960 . S
C7376 H7363 0.960 . S
C7376 C7375 1.524 . S
C7377 C7374 1.403 . S
C7377 C7378 1.392 . S
C7377 C7381 1.495 . S
C7378 C7377 1.392 . S
C7378 C7379 1.385 . S
C7378 C7380 1.478 . S
C7379 H7373 0.930 . S
C7379 C7375 1.400 . S
C7379 C7378 1.385 . S
C7380 C7378 1.478 . S
C7380 C7382 1.381 . S
C7380 C7386 1.383 . S
C7381 C7377 1.495 . S
C7381 H7387 0.959 . S
C7381 H7388 0.961 . S
C7381 H7389 0.960 . S
C7382 C7380 1.381 . S
C7382 C7383 1.394 . S
C7382 H7390 0.930 . S
C7383 C7382 1.394 . S
C7383 C7384 1.383 . S
C7383 H7391 0.929 . S
C7384 C7383 1.383 . S
C7384 C7385 1.377 . S
C7385 H7369 0.930 . S
C7385 C7384 1.377 . S
C7385 C7386 1.379 . S
C7386 H7370 0.931 . S
C7386 C7380 1.383 . S
C7386 C7385 1.379 . S
H7387 C7381 0.959 . S
H7388 C7381 0.961 . S
H7389 C7381 0.960 . S
H7390 C7382 0.930 . S
H7391 C7383 0.929 . S
H7392 C7400 0.929 . S
H7393 C7402 0.930 . S
H7394 C7404 0.930 . S
H7395 C7407 0.929 . S
H7396 C7410 0.930 . S
H7397 C7412 0.960 . S
H7398 C7412 0.960 . S
H7399 C7412 0.960 . S
C7400 H7392 0.929 . S
C7400 C7401 1.377 . S
C7400 C7402 1.384 . S
C7401 C7400 1.377 . S
C7401 C7407 1.390 . S
C7402 H7393 0.930 . S
C7402 C7400 1.384 . S
C7402 C7403 1.372 . S
C7403 C7402 1.372 . S
C7403 C7404 1.400 . S
C7403 C7408 1.490 . S
C7404 H7394 0.930 . S
C7404 C7403 1.400 . S
C7404 C7407 1.386 . S
H7405 C7421 0.930 . S
H7406 C7422 0.931 . S
C7407 H7395 0.929 . S
C7407 C7401 1.390 . S
C7407 C7404 1.386 . S
C7408 C7403 1.490 . S
C7408 C7410 1.395 . S
C7408 C7411 1.403 . S
H7409 C7415 0.930 . S
C7410 H7396 0.930 . S
C7410 C7408 1.395 . S
C7410 C7413 1.403 . S
C7411 C7408 1.403 . S
C7411 C7412 1.524 . S
C7411 C7415 1.400 . S
C7412 H7397 0.960 . S
C7412 H7398 0.960 . S
C7412 H7399 0.960 . S
C7412 C7411 1.524 . S
C7413 C7410 1.403 . S
C7413 C7414 1.392 . S
C7413 C7417 1.495 . S
C7414 C7413 1.392 . S
C7414 C7415 1.385 . S
C7414 C7416 1.478 . S
C7415 H7409 0.930 . S
C7415 C7411 1.400 . S
C7415 C7414 1.385 . S
C7416 C7414 1.478 . S
C7416 C7418 1.381 . S
C7416 C7422 1.383 . S
C7417 C7413 1.495 . S
C7417 H7423 0.959 . S
C7417 H7424 0.961 . S
C7417 H7425 0.960 . S
C7418 C7416 1.381 . S
C7418 C7419 1.394 . S
C7418 H7426 0.930 . S
C7419 C7418 1.394 . S
C7419 C7420 1.383 . S
C7419 H7427 0.929 . S
C7420 C7419 1.383 . S
C7420 C7421 1.377 . S
C7421 H7405 0.930 . S
C7421 C7420 1.377 . S
C7421 C7422 1.379 . S
C7422 H7406 0.931 . S
C7422 C7416 1.383 . S
C7422 C7421 1.379 . S
H7423 C7417 0.959 . S
H7424 C7417 0.961 . S
H7425 C7417 0.960 . S
H7426 C7418 0.930 . S
H7427 C7419 0.929 . S
H7428 C7436 0.929 . S
H7429 C7438 0.930 . S
H7430 C7440 0.930 . S
H7431 C7443 0.929 . S
H7432 C7446 0.930 . S
H7433 C7448 0.960 . S
H7434 C7448 0.960 . S
H7435 C7448 0.960 . S
C7436 H7428 0.929 . S
C7436 C7437 1.377 . S
C7436 C7438 1.384 . S
C7437 C7436 1.377 . S
C7437 C7443 1.390 . S
C7438 H7429 0.930 . S
C7438 C7436 1.384 . S
C7438 C7439 1.372 . S
C7439 C7438 1.372 . S
C7439 C7440 1.400 . S
C7439 C7444 1.490 . S
C7440 H7430 0.930 . S
C7440 C7439 1.400 . S
C7440 C7443 1.386 . S
H7441 C7457 0.930 . S
H7442 C7458 0.931 . S
C7443 H7431 0.929 . S
C7443 C7437 1.390 . S
C7443 C7440 1.386 . S
C7444 C7439 1.490 . S
C7444 C7446 1.395 . S
C7444 C7447 1.403 . S
H7445 C7451 0.930 . S
C7446 H7432 0.930 . S
C7446 C7444 1.395 . S
C7446 C7449 1.403 . S
C7447 C7444 1.403 . S
C7447 C7448 1.524 . S
C7447 C7451 1.400 . S
C7448 H7433 0.960 . S
C7448 H7434 0.960 . S
C7448 H7435 0.960 . S
C7448 C7447 1.524 . S
C7449 C7446 1.403 . S
C7449 C7450 1.392 . S
C7449 C7453 1.495 . S
C7450 C7449 1.392 . S
C7450 C7451 1.385 . S
C7450 C7452 1.478 . S
C7451 H7445 0.930 . S
C7451 C7447 1.400 . S
C7451 C7450 1.385 . S
C7452 C7450 1.478 . S
C7452 C7454 1.381 . S
C7452 C7458 1.383 . S
C7453 C7449 1.495 . S
C7453 H7459 0.959 . S
C7453 H7460 0.961 . S
C7453 H7461 0.960 . S
C7454 C7452 1.381 . S
C7454 C7455 1.394 . S
C7454 H7462 0.930 . S
C7455 C7454 1.394 . S
C7455 C7456 1.383 . S
C7455 H7463 0.929 . S
C7456 C7455 1.383 . S
C7456 C7457 1.377 . S
C7457 H7441 0.930 . S
C7457 C7456 1.377 . S
C7457 C7458 1.379 . S
C7458 H7442 0.931 . S
C7458 C7452 1.383 . S
C7458 C7457 1.379 . S
H7459 C7453 0.959 . S
H7460 C7453 0.961 . S
H7461 C7453 0.960 . S
H7462 C7454 0.930 . S
H7463 C7455 0.929 . S
H7464 C7472 0.929 . S
H7465 C7474 0.930 . S
H7466 C7476 0.930 . S
H7467 C7479 0.929 . S
H7468 C7482 0.930 . S
H7469 C7484 0.960 . S
H7470 C7484 0.960 . S
H7471 C7484 0.960 . S
C7472 H7464 0.929 . S
C7472 C7473 1.377 . S
C7472 C7474 1.384 . S
C7473 C7472 1.377 . S
C7473 C7479 1.390 . S
C7474 H7465 0.930 . S
C7474 C7472 1.384 . S
C7474 C7475 1.372 . S
C7475 C7474 1.372 . S
C7475 C7476 1.400 . S
C7475 C7480 1.490 . S
C7476 H7466 0.930 . S
C7476 C7475 1.400 . S
C7476 C7479 1.386 . S
H7477 C7493 0.930 . S
H7478 C7494 0.931 . S
C7479 H7467 0.929 . S
C7479 C7473 1.390 . S
C7479 C7476 1.386 . S
C7480 C7475 1.490 . S
C7480 C7482 1.395 . S
C7480 C7483 1.403 . S
H7481 C7487 0.930 . S
C7482 H7468 0.930 . S
C7482 C7480 1.395 . S
C7482 C7485 1.403 . S
C7483 C7480 1.403 . S
C7483 C7484 1.524 . S
C7483 C7487 1.400 . S
C7484 H7469 0.960 . S
C7484 H7470 0.960 . S
C7484 H7471 0.960 . S
C7484 C7483 1.524 . S
C7485 C7482 1.403 . S
C7485 C7486 1.392 . S
C7485 C7489 1.495 . S
C7486 C7485 1.392 . S
C7486 C7487 1.385 . S
C7486 C7488 1.478 . S
C7487 H7481 0.930 . S
C7487 C7483 1.400 . S
C7487 C7486 1.385 . S
C7488 C7486 1.478 . S
C7488 C7490 1.381 . S
C7488 C7494 1.383 . S
C7489 C7485 1.495 . S
C7489 H7495 0.959 . S
C7489 H7496 0.961 . S
C7489 H7497 0.960 . S
C7490 C7488 1.381 . S
C7490 C7491 1.394 . S
C7490 H7498 0.930 . S
C7491 C7490 1.394 . S
C7491 C7492 1.383 . S
C7491 H7499 0.929 . S
C7492 C7491 1.383 . S
C7492 C7493 1.377 . S
C7493 H7477 0.930 . S
C7493 C7492 1.377 . S
C7493 C7494 1.379 . S
C7494 H7478 0.931 . S
C7494 C7488 1.383 . S
C7494 C7493 1.379 . S
H7495 C7489 0.959 . S
H7496 C7489 0.961 . S
H7497 C7489 0.960 . S
H7498 C7490 0.930 . S
H7499 C7491 0.929 . S
H7500 C7508 0.929 . S
H7501 C7510 0.930 . S
H7502 C7512 0.930 . S
H7503 C7515 0.929 . S
H7504 C7518 0.930 . S
H7505 C7520 0.960 . S
H7506 C7520 0.960 . S
H7507 C7520 0.960 . S
C7508 H7500 0.929 . S
C7508 C7509 1.377 . S
C7508 C7510 1.384 . S
C7509 C7508 1.377 . S
C7509 C7515 1.390 . S
C7510 H7501 0.930 . S
C7510 C7508 1.384 . S
C7510 C7511 1.372 . S
C7511 C7510 1.372 . S
C7511 C7512 1.400 . S
C7511 C7516 1.490 . S
C7512 H7502 0.930 . S
C7512 C7511 1.400 . S
C7512 C7515 1.386 . S
H7513 C7529 0.930 . S
H7514 C7530 0.931 . S
C7515 H7503 0.929 . S
C7515 C7509 1.390 . S
C7515 C7512 1.386 . S
C7516 C7511 1.490 . S
C7516 C7518 1.395 . S
C7516 C7519 1.403 . S
H7517 C7523 0.930 . S
C7518 H7504 0.930 . S
C7518 C7516 1.395 . S
C7518 C7521 1.403 . S
C7519 C7516 1.403 . S
C7519 C7520 1.524 . S
C7519 C7523 1.400 . S
C7520 H7505 0.960 . S
C7520 H7506 0.960 . S
C7520 H7507 0.960 . S
C7520 C7519 1.524 . S
C7521 C7518 1.403 . S
C7521 C7522 1.392 . S
C7521 C7525 1.495 . S
C7522 C7521 1.392 . S
C7522 C7523 1.385 . S
C7522 C7524 1.478 . S
C7523 H7517 0.930 . S
C7523 C7519 1.400 . S
C7523 C7522 1.385 . S
C7524 C7522 1.478 . S
C7524 C7526 1.381 . S
C7524 C7530 1.383 . S
C7525 C7521 1.495 . S
C7525 H7531 0.959 . S
C7525 H7532 0.961 . S
C7525 H7533 0.960 . S
C7526 C7524 1.381 . S
C7526 C7527 1.394 . S
C7526 H7534 0.930 . S
C7527 C7526 1.394 . S
C7527 C7528 1.383 . S
C7527 H7535 0.929 . S
C7528 C7527 1.383 . S
C7528 C7529 1.377 . S
C7529 H7513 0.930 . S
C7529 C7528 1.377 . S
C7529 C7530 1.379 . S
C7530 H7514 0.931 . S
C7530 C7524 1.383 . S
C7530 C7529 1.379 . S
H7531 C7525 0.959 . S
H7532 C7525 0.961 . S
H7533 C7525 0.960 . S
H7534 C7526 0.930 . S
H7535 C7527 0.929 . S
H7536 C7544 0.929 . S
H7537 C7546 0.930 . S
H7538 C7548 0.930 . S
H7539 C7551 0.929 . S
H7540 C7554 0.930 . S
H7541 C7556 0.960 . S
H7542 C7556 0.960 . S
H7543 C7556 0.960 . S
C7544 H7536 0.929 . S
C7544 C7545 1.377 . S
C7544 C7546 1.384 . S
C7545 C7544 1.377 . S
C7545 C7551 1.390 . S
C7546 H7537 0.930 . S
C7546 C7544 1.384 . S
C7546 C7547 1.372 . S
C7547 C7546 1.372 . S
C7547 C7548 1.400 . S
C7547 C7552 1.490 . S
C7548 H7538 0.930 . S
C7548 C7547 1.400 . S
C7548 C7551 1.386 . S
H7549 C7565 0.930 . S
H7550 C7566 0.931 . S
C7551 H7539 0.929 . S
C7551 C7545 1.390 . S
C7551 C7548 1.386 . S
C7552 C7547 1.490 . S
C7552 C7554 1.395 . S
C7552 C7555 1.403 . S
H7553 C7559 0.930 . S
C7554 H7540 0.930 . S
C7554 C7552 1.395 . S
C7554 C7557 1.403 . S
C7555 C7552 1.403 . S
C7555 C7556 1.524 . S
C7555 C7559 1.400 . S
C7556 H7541 0.960 . S
C7556 H7542 0.960 . S
C7556 H7543 0.960 . S
C7556 C7555 1.524 . S
C7557 C7554 1.403 . S
C7557 C7558 1.392 . S
C7557 C7561 1.495 . S
C7558 C7557 1.392 . S
C7558 C7559 1.385 . S
C7558 C7560 1.478 . S
C7559 H7553 0.930 . S
C7559 C7555 1.400 . S
C7559 C7558 1.385 . S
C7560 C7558 1.478 . S
C7560 C7562 1.381 . S
C7560 C7566 1.383 . S
C7561 C7557 1.495 . S
C7561 H7567 0.959 . S
C7561 H7568 0.961 . S
C7561 H7569 0.960 . S
C7562 C7560 1.381 . S
C7562 C7563 1.394 . S
C7562 H7570 0.930 . S
C7563 C7562 1.394 . S
C7563 C7564 1.383 . S
C7563 H7571 0.929 . S
C7564 C7563 1.383 . S
C7564 C7565 1.377 . S
C7565 H7549 0.930 . S
C7565 C7564 1.377 . S
C7565 C7566 1.379 . S
C7566 H7550 0.931 . S
C7566 C7560 1.383 . S
C7566 C7565 1.379 . S
H7567 C7561 0.959 . S
H7568 C7561 0.961 . S
H7569 C7561 0.960 . S
H7570 C7562 0.930 . S
H7571 C7563 0.929 . S
H7572 C7580 0.929 . S
H7573 C7582 0.930 . S
H7574 C7584 0.930 . S
H7575 C7587 0.929 . S
H7576 C7590 0.930 . S
H7577 C7592 0.960 . S
H7578 C7592 0.960 . S
H7579 C7592 0.960 . S
C7580 H7572 0.929 . S
C7580 C7581 1.377 . S
C7580 C7582 1.384 . S
C7581 C7580 1.377 . S
C7581 C7587 1.390 . S
C7582 H7573 0.930 . S
C7582 C7580 1.384 . S
C7582 C7583 1.372 . S
C7583 C7582 1.372 . S
C7583 C7584 1.400 . S
C7583 C7588 1.490 . S
C7584 H7574 0.930 . S
C7584 C7583 1.400 . S
C7584 C7587 1.386 . S
H7585 C7601 0.930 . S
H7586 C7602 0.931 . S
C7587 H7575 0.929 . S
C7587 C7581 1.390 . S
C7587 C7584 1.386 . S
C7588 C7583 1.490 . S
C7588 C7590 1.395 . S
C7588 C7591 1.403 . S
H7589 C7595 0.930 . S
C7590 H7576 0.930 . S
C7590 C7588 1.395 . S
C7590 C7593 1.403 . S
C7591 C7588 1.403 . S
C7591 C7592 1.524 . S
C7591 C7595 1.400 . S
C7592 H7577 0.960 . S
C7592 H7578 0.960 . S
C7592 H7579 0.960 . S
C7592 C7591 1.524 . S
C7593 C7590 1.403 . S
C7593 C7594 1.392 . S
C7593 C7597 1.495 . S
C7594 C7593 1.392 . S
C7594 C7595 1.385 . S
C7594 C7596 1.478 . S
C7595 H7589 0.930 . S
C7595 C7591 1.400 . S
C7595 C7594 1.385 . S
C7596 C7594 1.478 . S
C7596 C7598 1.381 . S
C7596 C7602 1.383 . S
C7597 C7593 1.495 . S
C7597 H7603 0.959 . S
C7597 H7604 0.961 . S
C7597 H7605 0.960 . S
C7598 C7596 1.381 . S
C7598 C7599 1.394 . S
C7598 H7606 0.930 . S
C7599 C7598 1.394 . S
C7599 C7600 1.383 . S
C7599 H7607 0.929 . S
C7600 C7599 1.383 . S
C7600 C7601 1.377 . S
C7601 H7585 0.930 . S
C7601 C7600 1.377 . S
C7601 C7602 1.379 . S
C7602 H7586 0.931 . S
C7602 C7596 1.383 . S
C7602 C7601 1.379 . S
H7603 C7597 0.959 . S
H7604 C7597 0.961 . S
H7605 C7597 0.960 . S
H7606 C7598 0.930 . S
H7607 C7599 0.929 . S
H7608 C7616 0.929 . S
H7609 C7618 0.930 . S
H7610 C7620 0.930 . S
H7611 C7623 0.929 . S
H7612 C7626 0.930 . S
H7613 C7628 0.960 . S
H7614 C7628 0.960 . S
H7615 C7628 0.960 . S
C7616 H7608 0.929 . S
C7616 C7617 1.377 . S
C7616 C7618 1.384 . S
C7617 C7616 1.377 . S
C7617 C7623 1.390 . S
C7618 H7609 0.930 . S
C7618 C7616 1.384 . S
C7618 C7619 1.372 . S
C7619 C7618 1.372 . S
C7619 C7620 1.400 . S
C7619 C7624 1.490 . S
C7620 H7610 0.930 . S
C7620 C7619 1.400 . S
C7620 C7623 1.386 . S
H7621 C7637 0.930 . S
H7622 C7638 0.931 . S
C7623 H7611 0.929 . S
C7623 C7617 1.390 . S
C7623 C7620 1.386 . S
C7624 C7619 1.490 . S
C7624 C7626 1.395 . S
C7624 C7627 1.403 . S
H7625 C7631 0.930 . S
C7626 H7612 0.930 . S
C7626 C7624 1.395 . S
C7626 C7629 1.403 . S
C7627 C7624 1.403 . S
C7627 C7628 1.524 . S
C7627 C7631 1.400 . S
C7628 H7613 0.960 . S
C7628 H7614 0.960 . S
C7628 H7615 0.960 . S
C7628 C7627 1.524 . S
C7629 C7626 1.403 . S
C7629 C7630 1.392 . S
C7629 C7633 1.495 . S
C7630 C7629 1.392 . S
C7630 C7631 1.385 . S
C7630 C7632 1.478 . S
C7631 H7625 0.930 . S
C7631 C7627 1.400 . S
C7631 C7630 1.385 . S
C7632 C7630 1.478 . S
C7632 C7634 1.381 . S
C7632 C7638 1.383 . S
C7633 C7629 1.495 . S
C7633 H7639 0.959 . S
C7633 H7640 0.961 . S
C7633 H7641 0.960 . S
C7634 C7632 1.381 . S
C7634 C7635 1.394 . S
C7634 H7642 0.930 . S
C7635 C7634 1.394 . S
C7635 C7636 1.383 . S
C7635 H7643 0.929 . S
C7636 C7635 1.383 . S
C7636 C7637 1.377 . S
C7637 H7621 0.930 . S
C7637 C7636 1.377 . S
C7637 C7638 1.379 . S
C7638 H7622 0.931 . S
C7638 C7632 1.383 . S
C7638 C7637 1.379 . S
H7639 C7633 0.959 . S
H7640 C7633 0.961 . S
H7641 C7633 0.960 . S
H7642 C7634 0.930 . S
H7643 C7635 0.929 . S
H7644 C7652 0.929 . S
H7645 C7654 0.930 . S
H7646 C7656 0.930 . S
H7647 C7659 0.929 . S
H7648 C7662 0.930 . S
H7649 C7664 0.960 . S
H7650 C7664 0.960 . S
H7651 C7664 0.960 . S
C7652 H7644 0.929 . S
C7652 C7653 1.377 . S
C7652 C7654 1.384 . S
C7653 C7652 1.377 . S
C7653 C7659 1.390 . S
C7654 H7645 0.930 . S
C7654 C7652 1.384 . S
C7654 C7655 1.372 . S
C7655 C7654 1.372 . S
C7655 C7656 1.400 . S
C7655 C7660 1.490 . S
C7656 H7646 0.930 . S
C7656 C7655 1.400 . S
C7656 C7659 1.386 . S
H7657 C7673 0.930 . S
H7658 C7674 0.931 . S
C7659 H7647 0.929 . S
C7659 C7653 1.390 . S
C7659 C7656 1.386 . S
C7660 C7655 1.490 . S
C7660 C7662 1.395 . S
C7660 C7663 1.403 . S
H7661 C7667 0.930 . S
C7662 H7648 0.930 . S
C7662 C7660 1.395 . S
C7662 C7665 1.403 . S
C7663 C7660 1.403 . S
C7663 C7664 1.524 . S
C7663 C7667 1.400 . S
C7664 H7649 0.960 . S
C7664 H7650 0.960 . S
C7664 H7651 0.960 . S
C7664 C7663 1.524 . S
C7665 C7662 1.403 . S
C7665 C7666 1.392 . S
C7665 C7669 1.495 . S
C7666 C7665 1.392 . S
C7666 C7667 1.385 . S
C7666 C7668 1.478 . S
C7667 H7661 0.930 . S
C7667 C7663 1.400 . S
C7667 C7666 1.385 . S
C7668 C7666 1.478 . S
C7668 C7670 1.381 . S
C7668 C7674 1.383 . S
C7669 C7665 1.495 . S
C7669 H7675 0.959 . S
C7669 H7676 0.961 . S
C7669 H7677 0.960 . S
C7670 C7668 1.381 . S
C7670 C7671 1.394 . S
C7670 H7678 0.930 . S
C7671 C7670 1.394 . S
C7671 C7672 1.383 . S
C7671 H7679 0.929 . S
C7672 C7671 1.383 . S
C7672 C7673 1.377 . S
C7673 H7657 0.930 . S
C7673 C7672 1.377 . S
C7673 C7674 1.379 . S
C7674 H7658 0.931 . S
C7674 C7668 1.383 . S
C7674 C7673 1.379 . S
H7675 C7669 0.959 . S
H7676 C7669 0.961 . S
H7677 C7669 0.960 . S
H7678 C7670 0.930 . S
H7679 C7671 0.929 . S
H7680 C7688 0.929 . S
H7681 C7690 0.930 . S
H7682 C7692 0.930 . S
H7683 C7695 0.929 . S
H7684 C7698 0.930 . S
H7685 C7700 0.960 . S
H7686 C7700 0.960 . S
H7687 C7700 0.960 . S
C7688 H7680 0.929 . S
C7688 C7689 1.377 . S
C7688 C7690 1.384 . S
C7689 C7688 1.377 . S
C7689 C7695 1.390 . S
C7690 H7681 0.930 . S
C7690 C7688 1.384 . S
C7690 C7691 1.372 . S
C7691 C7690 1.372 . S
C7691 C7692 1.400 . S
C7691 C7696 1.490 . S
C7692 H7682 0.930 . S
C7692 C7691 1.400 . S
C7692 C7695 1.386 . S
H7693 C7709 0.930 . S
H7694 C7710 0.931 . S
C7695 H7683 0.929 . S
C7695 C7689 1.390 . S
C7695 C7692 1.386 . S
C7696 C7691 1.490 . S
C7696 C7698 1.395 . S
C7696 C7699 1.403 . S
H7697 C7703 0.930 . S
C7698 H7684 0.930 . S
C7698 C7696 1.395 . S
C7698 C7701 1.403 . S
C7699 C7696 1.403 . S
C7699 C7700 1.524 . S
C7699 C7703 1.400 . S
C7700 H7685 0.960 . S
C7700 H7686 0.960 . S
C7700 H7687 0.960 . S
C7700 C7699 1.524 . S
C7701 C7698 1.403 . S
C7701 C7702 1.392 . S
C7701 C7705 1.495 . S
C7702 C7701 1.392 . S
C7702 C7703 1.385 . S
C7702 C7704 1.478 . S
C7703 H7697 0.930 . S
C7703 C7699 1.400 . S
C7703 C7702 1.385 . S
C7704 C7702 1.478 . S
C7704 C7706 1.381 . S
C7704 C7710 1.383 . S
C7705 C7701 1.495 . S
C7705 H7711 0.959 . S
C7705 H7712 0.961 . S
C7705 H7713 0.960 . S
C7706 C7704 1.381 . S
C7706 C7707 1.394 . S
C7706 H7714 0.930 . S
C7707 C7706 1.394 . S
C7707 C7708 1.383 . S
C7707 H7715 0.929 . S
C7708 C7707 1.383 . S
C7708 C7709 1.377 . S
C7709 H7693 0.930 . S
C7709 C7708 1.377 . S
C7709 C7710 1.379 . S
C7710 H7694 0.931 . S
C7710 C7704 1.383 . S
C7710 C7709 1.379 . S
H7711 C7705 0.959 . S
H7712 C7705 0.961 . S
H7713 C7705 0.960 . S
H7714 C7706 0.930 . S
H7715 C7707 0.929 . S
H7716 C7724 0.929 . S
H7717 C7726 0.930 . S
H7718 C7728 0.930 . S
H7719 C7731 0.929 . S
H7720 C7734 0.930 . S
H7721 C7736 0.960 . S
H7722 C7736 0.960 . S
H7723 C7736 0.960 . S
C7724 H7716 0.929 . S
C7724 C7725 1.377 . S
C7724 C7726 1.384 . S
C7725 C7724 1.377 . S
C7725 C7731 1.390 . S
C7726 H7717 0.930 . S
C7726 C7724 1.384 . S
C7726 C7727 1.372 . S
C7727 C7726 1.372 . S
C7727 C7728 1.400 . S
C7727 C7732 1.490 . S
C7728 H7718 0.930 . S
C7728 C7727 1.400 . S
C7728 C7731 1.386 . S
H7729 C7745 0.930 . S
H7730 C7746 0.931 . S
C7731 H7719 0.929 . S
C7731 C7725 1.390 . S
C7731 C7728 1.386 . S
C7732 C7727 1.490 . S
C7732 C7734 1.395 . S
C7732 C7735 1.403 . S
H7733 C7739 0.930 . S
C7734 H7720 0.930 . S
C7734 C7732 1.395 . S
C7734 C7737 1.403 . S
C7735 C7732 1.403 . S
C7735 C7736 1.524 . S
C7735 C7739 1.400 . S
C7736 H7721 0.960 . S
C7736 H7722 0.960 . S
C7736 H7723 0.960 . S
C7736 C7735 1.524 . S
C7737 C7734 1.403 . S
C7737 C7738 1.392 . S
C7737 C7741 1.495 . S
C7738 C7737 1.392 . S
C7738 C7739 1.385 . S
C7738 C7740 1.478 . S
C7739 H7733 0.930 . S
C7739 C7735 1.400 . S
C7739 C7738 1.385 . S
C7740 C7738 1.478 . S
C7740 C7742 1.381 . S
C7740 C7746 1.383 . S
C7741 C7737 1.495 . S
C7741 H7747 0.959 . S
C7741 H7748 0.961 . S
C7741 H7749 0.960 . S
C7742 C7740 1.381 . S
C7742 C7743 1.394 . S
C7742 H7750 0.930 . S
C7743 C7742 1.394 . S
C7743 C7744 1.383 . S
C7743 H7751 0.929 . S
C7744 C7743 1.383 . S
C7744 C7745 1.377 . S
C7745 H7729 0.930 . S
C7745 C7744 1.377 . S
C7745 C7746 1.379 . S
C7746 H7730 0.931 . S
C7746 C7740 1.383 . S
C7746 C7745 1.379 . S
H7747 C7741 0.959 . S
H7748 C7741 0.961 . S
H7749 C7741 0.960 . S
H7750 C7742 0.930 . S
H7751 C7743 0.929 . S
H7752 C7760 0.929 . S
H7753 C7762 0.930 . S
H7754 C7764 0.930 . S
H7755 C7767 0.929 . S
H7756 C7770 0.930 . S
H7757 C7772 0.960 . S
H7758 C7772 0.960 . S
H7759 C7772 0.960 . S
C7760 H7752 0.929 . S
C7760 C7761 1.377 . S
C7760 C7762 1.384 . S
C7761 C7760 1.377 . S
C7761 C7767 1.390 . S
C7762 H7753 0.930 . S
C7762 C7760 1.384 . S
C7762 C7763 1.372 . S
C7763 C7762 1.372 . S
C7763 C7764 1.400 . S
C7763 C7768 1.490 . S
C7764 H7754 0.930 . S
C7764 C7763 1.400 . S
C7764 C7767 1.386 . S
H7765 C7781 0.930 . S
H7766 C7782 0.931 . S
C7767 H7755 0.929 . S
C7767 C7761 1.390 . S
C7767 C7764 1.386 . S
C7768 C7763 1.490 . S
C7768 C7770 1.395 . S
C7768 C7771 1.403 . S
H7769 C7775 0.930 . S
C7770 H7756 0.930 . S
C7770 C7768 1.395 . S
C7770 C7773 1.403 . S
C7771 C7768 1.403 . S
C7771 C7772 1.524 . S
C7771 C7775 1.400 . S
C7772 H7757 0.960 . S
C7772 H7758 0.960 . S
C7772 H7759 0.960 . S
C7772 C7771 1.524 . S
C7773 C7770 1.403 . S
C7773 C7774 1.392 . S
C7773 C7777 1.495 . S
C7774 C7773 1.392 . S
C7774 C7775 1.385 . S
C7774 C7776 1.478 . S
C7775 H7769 0.930 . S
C7775 C7771 1.400 . S
C7775 C7774 1.385 . S
C7776 C7774 1.478 . S
C7776 C7778 1.381 . S
C7776 C7782 1.383 . S
C7777 C7773 1.495 . S
C7777 H7783 0.959 . S
C7777 H7784 0.961 . S
C7777 H7785 0.960 . S
C7778 C7776 1.381 . S
C7778 C7779 1.394 . S
C7778 H7786 0.930 . S
C7779 C7778 1.394 . S
C7779 C7780 1.383 . S
C7779 H7787 0.929 . S
C7780 C7779 1.383 . S
C7780 C7781 1.377 . S
C7781 H7765 0.930 . S
C7781 C7780 1.377 . S
C7781 C7782 1.379 . S
C7782 H7766 0.931 . S
C7782 C7776 1.383 . S
C7782 C7781 1.379 . S
H7783 C7777 0.959 . S
H7784 C7777 0.961 . S
H7785 C7777 0.960 . S
H7786 C7778 0.930 . S
H7787 C7779 0.929 . S
H7788 C7796 0.929 . S
H7789 C7798 0.930 . S
H7790 C7800 0.930 . S
H7791 C7803 0.929 . S
H7792 C7806 0.930 . S
H7793 C7808 0.960 . S
H7794 C7808 0.960 . S
H7795 C7808 0.960 . S
C7796 H7788 0.929 . S
C7796 C7797 1.377 . S
C7796 C7798 1.384 . S
C7797 C7796 1.377 . S
C7797 C7803 1.390 . S
C7798 H7789 0.930 . S
C7798 C7796 1.384 . S
C7798 C7799 1.372 . S
C7799 C7798 1.372 . S
C7799 C7800 1.400 . S
C7799 C7804 1.490 . S
C7800 H7790 0.930 . S
C7800 C7799 1.400 . S
C7800 C7803 1.386 . S
H7801 C7817 0.930 . S
H7802 C7818 0.931 . S
C7803 H7791 0.929 . S
C7803 C7797 1.390 . S
C7803 C7800 1.386 . S
C7804 C7799 1.490 . S
C7804 C7806 1.395 . S
C7804 C7807 1.403 . S
H7805 C7811 0.930 . S
C7806 H7792 0.930 . S
C7806 C7804 1.395 . S
C7806 C7809 1.403 . S
C7807 C7804 1.403 . S
C7807 C7808 1.524 . S
C7807 C7811 1.400 . S
C7808 H7793 0.960 . S
C7808 H7794 0.960 . S
C7808 H7795 0.960 . S
C7808 C7807 1.524 . S
C7809 C7806 1.403 . S
C7809 C7810 1.392 . S
C7809 C7813 1.495 . S
C7810 C7809 1.392 . S
C7810 C7811 1.385 . S
C7810 C7812 1.478 . S
C7811 H7805 0.930 . S
C7811 C7807 1.400 . S
C7811 C7810 1.385 . S
C7812 C7810 1.478 . S
C7812 C7814 1.381 . S
C7812 C7818 1.383 . S
C7813 C7809 1.495 . S
C7813 H7819 0.959 . S
C7813 H7820 0.961 . S
C7813 H7821 0.960 . S
C7814 C7812 1.381 . S
C7814 C7815 1.394 . S
C7814 H7822 0.930 . S
C7815 C7814 1.394 . S
C7815 C7816 1.383 . S
C7815 H7823 0.929 . S
C7816 C7815 1.383 . S
C7816 C7817 1.377 . S
C7817 H7801 0.930 . S
C7817 C7816 1.377 . S
C7817 C7818 1.379 . S
C7818 H7802 0.931 . S
C7818 C7812 1.383 . S
C7818 C7817 1.379 . S
H7819 C7813 0.959 . S
H7820 C7813 0.961 . S
H7821 C7813 0.960 . S
H7822 C7814 0.930 . S
H7823 C7815 0.929 . S
H7824 C7832 0.929 . S
H7825 C7834 0.930 . S
H7826 C7836 0.930 . S
H7827 C7839 0.929 . S
H7828 C7842 0.930 . S
H7829 C7844 0.960 . S
H7830 C7844 0.960 . S
H7831 C7844 0.960 . S
C7832 H7824 0.929 . S
C7832 C7833 1.377 . S
C7832 C7834 1.384 . S
C7833 C7832 1.377 . S
C7833 C7839 1.390 . S
C7834 H7825 0.930 . S
C7834 C7832 1.384 . S
C7834 C7835 1.372 . S
C7835 C7834 1.372 . S
C7835 C7836 1.400 . S
C7835 C7840 1.490 . S
C7836 H7826 0.930 . S
C7836 C7835 1.400 . S
C7836 C7839 1.386 . S
H7837 C7853 0.930 . S
H7838 C7854 0.931 . S
C7839 H7827 0.929 . S
C7839 C7833 1.390 . S
C7839 C7836 1.386 . S
C7840 C7835 1.490 . S
C7840 C7842 1.395 . S
C7840 C7843 1.403 . S
H7841 C7847 0.930 . S
C7842 H7828 0.930 . S
C7842 C7840 1.395 . S
C7842 C7845 1.403 . S
C7843 C7840 1.403 . S
C7843 C7844 1.524 . S
C7843 C7847 1.400 . S
C7844 H7829 0.960 . S
C7844 H7830 0.960 . S
C7844 H7831 0.960 . S
C7844 C7843 1.524 . S
C7845 C7842 1.403 . S
C7845 C7846 1.392 . S
C7845 C7849 1.495 . S
C7846 C7845 1.392 . S
C7846 C7847 1.385 . S
C7846 C7848 1.478 . S
C7847 H7841 0.930 . S
C7847 C7843 1.400 . S
C7847 C7846 1.385 . S
C7848 C7846 1.478 . S
C7848 C7850 1.381 . S
C7848 C7854 1.383 . S
C7849 C7845 1.495 . S
C7849 H7855 0.959 . S
C7849 H7856 0.961 . S
C7849 H7857 0.960 . S
C7850 C7848 1.381 . S
C7850 C7851 1.394 . S
C7850 H7858 0.930 . S
C7851 C7850 1.394 . S
C7851 C7852 1.383 . S
C7851 H7859 0.929 . S
C7852 C7851 1.383 . S
C7852 C7853 1.377 . S
C7853 H7837 0.930 . S
C7853 C7852 1.377 . S
C7853 C7854 1.379 . S
C7854 H7838 0.931 . S
C7854 C7848 1.383 . S
C7854 C7853 1.379 . S
H7855 C7849 0.959 . S
H7856 C7849 0.961 . S
H7857 C7849 0.960 . S
H7858 C7850 0.930 . S
H7859 C7851 0.929 . S
H7860 C7868 0.929 . S
H7861 C7870 0.930 . S
H7862 C7872 0.930 . S
H7863 C7875 0.929 . S
H7864 C7878 0.930 . S
H7865 C7880 0.960 . S
H7866 C7880 0.960 . S
H7867 C7880 0.960 . S
C7868 H7860 0.929 . S
C7868 C7869 1.377 . S
C7868 C7870 1.384 . S
C7869 C7868 1.377 . S
C7869 C7875 1.390 . S
C7870 H7861 0.930 . S
C7870 C7868 1.384 . S
C7870 C7871 1.372 . S
C7871 C7870 1.372 . S
C7871 C7872 1.400 . S
C7871 C7876 1.490 . S
C7872 H7862 0.930 . S
C7872 C7871 1.400 . S
C7872 C7875 1.386 . S
H7873 C7889 0.930 . S
H7874 C7890 0.931 . S
C7875 H7863 0.929 . S
C7875 C7869 1.390 . S
C7875 C7872 1.386 . S
C7876 C7871 1.490 . S
C7876 C7878 1.395 . S
C7876 C7879 1.403 . S
H7877 C7883 0.930 . S
C7878 H7864 0.930 . S
C7878 C7876 1.395 . S
C7878 C7881 1.403 . S
C7879 C7876 1.403 . S
C7879 C7880 1.524 . S
C7879 C7883 1.400 . S
C7880 H7865 0.960 . S
C7880 H7866 0.960 . S
C7880 H7867 0.960 . S
C7880 C7879 1.524 . S
C7881 C7878 1.403 . S
C7881 C7882 1.392 . S
C7881 C7885 1.495 . S
C7882 C7881 1.392 . S
C7882 C7883 1.385 . S
C7882 C7884 1.478 . S
C7883 H7877 0.930 . S
C7883 C7879 1.400 . S
C7883 C7882 1.385 . S
C7884 C7882 1.478 . S
C7884 C7886 1.381 . S
C7884 C7890 1.383 . S
C7885 C7881 1.495 . S
C7885 H7891 0.959 . S
C7885 H7892 0.961 . S
C7885 H7893 0.960 . S
C7886 C7884 1.381 . S
C7886 C7887 1.394 . S
C7886 H7894 0.930 . S
C7887 C7886 1.394 . S
C7887 C7888 1.383 . S
C7887 H7895 0.929 . S
C7888 C7887 1.383 . S
C7888 C7889 1.377 . S
C7889 H7873 0.930 . S
C7889 C7888 1.377 . S
C7889 C7890 1.379 . S
C7890 H7874 0.931 . S
C7890 C7884 1.383 . S
C7890 C7889 1.379 . S
H7891 C7885 0.959 . S
H7892 C7885 0.961 . S
H7893 C7885 0.960 . S
H7894 C7886 0.930 . S
H7895 C7887 0.929 . S
H7896 C7904 0.929 . S
H7897 C7906 0.930 . S
H7898 C7908 0.930 . S
H7899 C7911 0.929 . S
H7900 C7914 0.930 . S
H7901 C7916 0.960 . S
H7902 C7916 0.960 . S
H7903 C7916 0.960 . S
C7904 H7896 0.929 . S
C7904 C7905 1.377 . S
C7904 C7906 1.384 . S
C7905 C7904 1.377 . S
C7905 C7911 1.390 . S
C7906 H7897 0.930 . S
C7906 C7904 1.384 . S
C7906 C7907 1.372 . S
C7907 C7906 1.372 . S
C7907 C7908 1.400 . S
C7907 C7912 1.490 . S
C7908 H7898 0.930 . S
C7908 C7907 1.400 . S
C7908 C7911 1.386 . S
H7909 C7925 0.930 . S
H7910 C7926 0.931 . S
C7911 H7899 0.929 . S
C7911 C7905 1.390 . S
C7911 C7908 1.386 . S
C7912 C7907 1.490 . S
C7912 C7914 1.395 . S
C7912 C7915 1.403 . S
H7913 C7919 0.930 . S
C7914 H7900 0.930 . S
C7914 C7912 1.395 . S
C7914 C7917 1.403 . S
C7915 C7912 1.403 . S
C7915 C7916 1.524 . S
C7915 C7919 1.400 . S
C7916 H7901 0.960 . S
C7916 H7902 0.960 . S
C7916 H7903 0.960 . S
C7916 C7915 1.524 . S
C7917 C7914 1.403 . S
C7917 C7918 1.392 . S
C7917 C7921 1.495 . S
C7918 C7917 1.392 . S
C7918 C7919 1.385 . S
C7918 C7920 1.478 . S
C7919 H7913 0.930 . S
C7919 C7915 1.400 . S
C7919 C7918 1.385 . S
C7920 C7918 1.478 . S
C7920 C7922 1.381 . S
C7920 C7926 1.383 . S
C7921 C7917 1.495 . S
C7921 H7927 0.959 . S
C7921 H7928 0.961 . S
C7921 H7929 0.960 . S
C7922 C7920 1.381 . S
C7922 C7923 1.394 . S
C7922 H7930 0.930 . S
C7923 C7922 1.394 . S
C7923 C7924 1.383 . S
C7923 H7931 0.929 . S
C7924 C7923 1.383 . S
C7924 C7925 1.377 . S
C7925 H7909 0.930 . S
C7925 C7924 1.377 . S
C7925 C7926 1.379 . S
C7926 H7910 0.931 . S
C7926 C7920 1.383 . S
C7926 C7925 1.379 . S
H7927 C7921 0.959 . S
H7928 C7921 0.961 . S
H7929 C7921 0.960 . S
H7930 C7922 0.930 . S
H7931 C7923 0.929 . S
H7932 C7940 0.929 . S
H7933 C7942 0.930 . S
H7934 C7944 0.930 . S
H7935 C7947 0.929 . S
H7936 C7950 0.930 . S
H7937 C7952 0.960 . S
H7938 C7952 0.960 . S
H7939 C7952 0.960 . S
C7940 H7932 0.929 . S
C7940 C7941 1.377 . S
C7940 C7942 1.384 . S
C7941 C7940 1.377 . S
C7941 C7947 1.390 . S
C7942 H7933 0.930 . S
C7942 C7940 1.384 . S
C7942 C7943 1.372 . S
C7943 C7942 1.372 . S
C7943 C7944 1.400 . S
C7943 C7948 1.490 . S
C7944 H7934 0.930 . S
C7944 C7943 1.400 . S
C7944 C7947 1.386 . S
H7945 C7961 0.930 . S
H7946 C7962 0.931 . S
C7947 H7935 0.929 . S
C7947 C7941 1.390 . S
C7947 C7944 1.386 . S
C7948 C7943 1.490 . S
C7948 C7950 1.395 . S
C7948 C7951 1.403 . S
H7949 C7955 0.930 . S
C7950 H7936 0.930 . S
C7950 C7948 1.395 . S
C7950 C7953 1.403 . S
C7951 C7948 1.403 . S
C7951 C7952 1.524 . S
C7951 C7955 1.400 . S
C7952 H7937 0.960 . S
C7952 H7938 0.960 . S
C7952 H7939 0.960 . S
C7952 C7951 1.524 . S
C7953 C7950 1.403 . S
C7953 C7954 1.392 . S
C7953 C7957 1.495 . S
C7954 C7953 1.392 . S
C7954 C7955 1.385 . S
C7954 C7956 1.478 . S
C7955 H7949 0.930 . S
C7955 C7951 1.400 . S
C7955 C7954 1.385 . S
C7956 C7954 1.478 . S
C7956 C7958 1.381 . S
C7956 C7962 1.383 . S
C7957 C7953 1.495 . S
C7957 H7963 0.959 . S
C7957 H7964 0.961 . S
C7957 H7965 0.960 . S
C7958 C7956 1.381 . S
C7958 C7959 1.394 . S
C7958 H7966 0.930 . S
C7959 C7958 1.394 . S
C7959 C7960 1.383 . S
C7959 H7967 0.929 . S
C7960 C7959 1.383 . S
C7960 C7961 1.377 . S
C7961 H7945 0.930 . S
C7961 C7960 1.377 . S
C7961 C7962 1.379 . S
C7962 H7946 0.931 . S
C7962 C7956 1.383 . S
C7962 C7961 1.379 . S
H7963 C7957 0.959 . S
H7964 C7957 0.961 . S
H7965 C7957 0.960 . S
H7966 C7958 0.930 . S
H7967 C7959 0.929 . S
H7968 C7976 0.929 . S
H7969 C7978 0.930 . S
H7970 C7980 0.930 . S
H7971 C7983 0.929 . S
H7972 C7986 0.930 . S
H7973 C7988 0.960 . S
H7974 C7988 0.960 . S
H7975 C7988 0.960 . S
C7976 H7968 0.929 . S
C7976 C7977 1.377 . S
C7976 C7978 1.384 . S
C7977 C7976 1.377 . S
C7977 C7983 1.390 . S
C7978 H7969 0.930 . S
C7978 C7976 1.384 . S
C7978 C7979 1.372 . S
C7979 C7978 1.372 . S
C7979 C7980 1.400 . S
C7979 C7984 1.490 . S
C7980 H7970 0.930 . S
C7980 C7979 1.400 . S
C7980 C7983 1.386 . S
H7981 C7997 0.930 . S
H7982 C7998 0.931 . S
C7983 H7971 0.929 . S
C7983 C7977 1.390 . S
C7983 C7980 1.386 . S
C7984 C7979 1.490 . S
C7984 C7986 1.395 . S
C7984 C7987 1.403 . S
H7985 C7991 0.930 . S
C7986 H7972 0.930 . S
C7986 C7984 1.395 . S
C7986 C7989 1.403 . S
C7987 C7984 1.403 . S
C7987 C7988 1.524 . S
C7987 C7991 1.400 . S
C7988 H7973 0.960 . S
C7988 H7974 0.960 . S
C7988 H7975 0.960 . S
C7988 C7987 1.524 . S
C7989 C7986 1.403 . S
C7989 C7990 1.392 . S
C7989 C7993 1.495 . S
C7990 C7989 1.392 . S
C7990 C7991 1.385 . S
C7990 C7992 1.478 . S
C7991 H7985 0.930 . S
C7991 C7987 1.400 . S
C7991 C7990 1.385 . S
C7992 C7990 1.478 . S
C7992 C7994 1.381 . S
C7992 C7998 1.383 . S
C7993 C7989 1.495 . S
C7993 H7999 0.959 . S
C7993 H8000 0.961 . S
C7993 H8001 0.960 . S
C7994 C7992 1.381 . S
C7994 C7995 1.394 . S
C7994 H8002 0.930 . S
C7995 C7994 1.394 . S
C7995 C7996 1.383 . S
C7995 H8003 0.929 . S
C7996 C7995 1.383 . S
C7996 C7997 1.377 . S
C7997 H7981 0.930 . S
C7997 C7996 1.377 . S
C7997 C7998 1.379 . S
C7998 H7982 0.931 . S
C7998 C7992 1.383 . S
C7998 C7997 1.379 . S
H7999 C7993 0.959 . S
H8000 C7993 0.961 . S
H8001 C7993 0.960 . S
H8002 C7994 0.930 . S
H8003 C7995 0.929 . S
H8004 C8012 0.929 . S
H8005 C8014 0.930 . S
H8006 C8016 0.930 . S
H8007 C8019 0.929 . S
H8008 C8022 0.930 . S
H8009 C8024 0.960 . S
H8010 C8024 0.960 . S
H8011 C8024 0.960 . S
C8012 H8004 0.929 . S
C8012 C8013 1.377 . S
C8012 C8014 1.384 . S
C8013 C8012 1.377 . S
C8013 C8019 1.390 . S
C8014 H8005 0.930 . S
C8014 C8012 1.384 . S
C8014 C8015 1.372 . S
C8015 C8014 1.372 . S
C8015 C8016 1.400 . S
C8015 C8020 1.490 . S
C8016 H8006 0.930 . S
C8016 C8015 1.400 . S
C8016 C8019 1.386 . S
H8017 C8033 0.930 . S
H8018 C8034 0.931 . S
C8019 H8007 0.929 . S
C8019 C8013 1.390 . S
C8019 C8016 1.386 . S
C8020 C8015 1.490 . S
C8020 C8022 1.395 . S
C8020 C8023 1.403 . S
H8021 C8027 0.930 . S
C8022 H8008 0.930 . S
C8022 C8020 1.395 . S
C8022 C8025 1.403 . S
C8023 C8020 1.403 . S
C8023 C8024 1.524 . S
C8023 C8027 1.400 . S
C8024 H8009 0.960 . S
C8024 H8010 0.960 . S
C8024 H8011 0.960 . S
C8024 C8023 1.524 . S
C8025 C8022 1.403 . S
C8025 C8026 1.392 . S
C8025 C8029 1.495 . S
C8026 C8025 1.392 . S
C8026 C8027 1.385 . S
C8026 C8028 1.478 . S
C8027 H8021 0.930 . S
C8027 C8023 1.400 . S
C8027 C8026 1.385 . S
C8028 C8026 1.478 . S
C8028 C8030 1.381 . S
C8028 C8034 1.383 . S
C8029 C8025 1.495 . S
C8029 H8035 0.959 . S
C8029 H8036 0.961 . S
C8029 H8037 0.960 . S
C8030 C8028 1.381 . S
C8030 C8031 1.394 . S
C8030 H8038 0.930 . S
C8031 C8030 1.394 . S
C8031 C8032 1.383 . S
C8031 H8039 0.929 . S
C8032 C8031 1.383 . S
C8032 C8033 1.377 . S
C8033 H8017 0.930 . S
C8033 C8032 1.377 . S
C8033 C8034 1.379 . S
C8034 H8018 0.931 . S
C8034 C8028 1.383 . S
C8034 C8033 1.379 . S
H8035 C8029 0.959 . S
H8036 C8029 0.961 . S
H8037 C8029 0.960 . S
H8038 C8030 0.930 . S
H8039 C8031 0.929 . S
H8040 C8048 0.929 . S
H8041 C8050 0.930 . S
H8042 C8052 0.930 . S
H8043 C8055 0.929 . S
H8044 C8058 0.930 . S
H8045 C8060 0.960 . S
H8046 C8060 0.960 . S
H8047 C8060 0.960 . S
C8048 H8040 0.929 . S
C8048 C8049 1.377 . S
C8048 C8050 1.384 . S
C8049 C8048 1.377 . S
C8049 C8055 1.390 . S
C8050 H8041 0.930 . S
C8050 C8048 1.384 . S
C8050 C8051 1.372 . S
C8051 C8050 1.372 . S
C8051 C8052 1.400 . S
C8051 C8056 1.490 . S
C8052 H8042 0.930 . S
C8052 C8051 1.400 . S
C8052 C8055 1.386 . S
H8053 C8069 0.930 . S
H8054 C8070 0.931 . S
C8055 H8043 0.929 . S
C8055 C8049 1.390 . S
C8055 C8052 1.386 . S
C8056 C8051 1.490 . S
C8056 C8058 1.395 . S
C8056 C8059 1.403 . S
H8057 C8063 0.930 . S
C8058 H8044 0.930 . S
C8058 C8056 1.395 . S
C8058 C8061 1.403 . S
C8059 C8056 1.403 . S
C8059 C8060 1.524 . S
C8059 C8063 1.400 . S
C8060 H8045 0.960 . S
C8060 H8046 0.960 . S
C8060 H8047 0.960 . S
C8060 C8059 1.524 . S
C8061 C8058 1.403 . S
C8061 C8062 1.392 . S
C8061 C8065 1.495 . S
C8062 C8061 1.392 . S
C8062 C8063 1.385 . S
C8062 C8064 1.478 . S
C8063 H8057 0.930 . S
C8063 C8059 1.400 . S
C8063 C8062 1.385 . S
C8064 C8062 1.478 . S
C8064 C8066 1.381 . S
C8064 C8070 1.383 . S
C8065 C8061 1.495 . S
C8065 H8071 0.959 . S
C8065 H8072 0.961 . S
C8065 H8073 0.960 . S
C8066 C8064 1.381 . S
C8066 C8067 1.394 . S
C8066 H8074 0.930 . S
C8067 C8066 1.394 . S
C8067 C8068 1.383 . S
C8067 H8075 0.929 . S
C8068 C8067 1.383 . S
C8068 C8069 1.377 . S
C8069 H8053 0.930 . S
C8069 C8068 1.377 . S
C8069 C8070 1.379 . S
C8070 H8054 0.931 . S
C8070 C8064 1.383 . S
C8070 C8069 1.379 . S
H8071 C8065 0.959 . S
H8072 C8065 0.961 . S
H8073 C8065 0.960 . S
H8074 C8066 0.930 . S
H8075 C8067 0.929 . S
H8076 C8084 0.929 . S
H8077 C8086 0.930 . S
H8078 C8088 0.930 . S
H8079 C8091 0.929 . S
H8080 C8094 0.930 . S
H8081 C8096 0.960 . S
H8082 C8096 0.960 . S
H8083 C8096 0.960 . S
C8084 H8076 0.929 . S
C8084 C8085 1.377 . S
C8084 C8086 1.384 . S
C8085 C8084 1.377 . S
C8085 C8091 1.390 . S
C8086 H8077 0.930 . S
C8086 C8084 1.384 . S
C8086 C8087 1.372 . S
C8087 C8086 1.372 . S
C8087 C8088 1.400 . S
C8087 C8092 1.490 . S
C8088 H8078 0.930 . S
C8088 C8087 1.400 . S
C8088 C8091 1.386 . S
H8089 C8105 0.930 . S
H8090 C8106 0.931 . S
C8091 H8079 0.929 . S
C8091 C8085 1.390 . S
C8091 C8088 1.386 . S
C8092 C8087 1.490 . S
C8092 C8094 1.395 . S
C8092 C8095 1.403 . S
H8093 C8099 0.930 . S
C8094 H8080 0.930 . S
C8094 C8092 1.395 . S
C8094 C8097 1.403 . S
C8095 C8092 1.403 . S
C8095 C8096 1.524 . S
C8095 C8099 1.400 . S
C8096 H8081 0.960 . S
C8096 H8082 0.960 . S
C8096 H8083 0.960 . S
C8096 C8095 1.524 . S
C8097 C8094 1.403 . S
C8097 C8098 1.392 . S
C8097 C8101 1.495 . S
C8098 C8097 1.392 . S
C8098 C8099 1.385 . S
C8098 C8100 1.478 . S
C8099 H8093 0.930 . S
C8099 C8095 1.400 . S
C8099 C8098 1.385 . S
C8100 C8098 1.478 . S
C8100 C8102 1.381 . S
C8100 C8106 1.383 . S
C8101 C8097 1.495 . S
C8101 H8107 0.959 . S
C8101 H8108 0.961 . S
C8101 H8109 0.960 . S
C8102 C8100 1.381 . S
C8102 C8103 1.394 . S
C8102 H8110 0.930 . S
C8103 C8102 1.394 . S
C8103 C8104 1.383 . S
C8103 H8111 0.929 . S
C8104 C8103 1.383 . S
C8104 C8105 1.377 . S
C8105 H8089 0.930 . S
C8105 C8104 1.377 . S
C8105 C8106 1.379 . S
C8106 H8090 0.931 . S
C8106 C8100 1.383 . S
C8106 C8105 1.379 . S
H8107 C8101 0.959 . S
H8108 C8101 0.961 . S
H8109 C8101 0.960 . S
H8110 C8102 0.930 . S
H8111 C8103 0.929 . S
H8112 C8120 0.929 . S
H8113 C8122 0.930 . S
H8114 C8124 0.930 . S
H8115 C8127 0.929 . S
H8116 C8130 0.930 . S
H8117 C8132 0.960 . S
H8118 C8132 0.960 . S
H8119 C8132 0.960 . S
C8120 H8112 0.929 . S
C8120 C8121 1.377 . S
C8120 C8122 1.384 . S
C8121 C8120 1.377 . S
C8121 C8127 1.390 . S
C8122 H8113 0.930 . S
C8122 C8120 1.384 . S
C8122 C8123 1.372 . S
C8123 C8122 1.372 . S
C8123 C8124 1.400 . S
C8123 C8128 1.490 . S
C8124 H8114 0.930 . S
C8124 C8123 1.400 . S
C8124 C8127 1.386 . S
H8125 C8141 0.930 . S
H8126 C8142 0.931 . S
C8127 H8115 0.929 . S
C8127 C8121 1.390 . S
C8127 C8124 1.386 . S
C8128 C8123 1.490 . S
C8128 C8130 1.395 . S
C8128 C8131 1.403 . S
H8129 C8135 0.930 . S
C8130 H8116 0.930 . S
C8130 C8128 1.395 . S
C8130 C8133 1.403 . S
C8131 C8128 1.403 . S
C8131 C8132 1.524 . S
C8131 C8135 1.400 . S
C8132 H8117 0.960 . S
C8132 H8118 0.960 . S
C8132 H8119 0.960 . S
C8132 C8131 1.524 . S
C8133 C8130 1.403 . S
C8133 C8134 1.392 . S
C8133 C8137 1.495 . S
C8134 C8133 1.392 . S
C8134 C8135 1.385 . S
C8134 C8136 1.478 . S
C8135 H8129 0.930 . S
C8135 C8131 1.400 . S
C8135 C8134 1.385 . S
C8136 C8134 1.478 . S
C8136 C8138 1.381 . S
C8136 C8142 1.383 . S
C8137 C8133 1.495 . S
C8137 H8143 0.959 . S
C8137 H8144 0.961 . S
C8137 H8145 0.960 . S
C8138 C8136 1.381 . S
C8138 C8139 1.394 . S
C8138 H8146 0.930 . S
C8139 C8138 1.394 . S
C8139 C8140 1.383 . S
C8139 H8147 0.929 . S
C8140 C8139 1.383 . S
C8140 C8141 1.377 . S
C8141 H8125 0.930 . S
C8141 C8140 1.377 . S
C8141 C8142 1.379 . S
C8142 H8126 0.931 . S
C8142 C8136 1.383 . S
C8142 C8141 1.379 . S
H8143 C8137 0.959 . S
H8144 C8137 0.961 . S
H8145 C8137 0.960 . S
H8146 C8138 0.930 . S
H8147 C8139 0.929 . S
H8148 C8156 0.929 . S
H8149 C8158 0.930 . S
H8150 C8160 0.930 . S
H8151 C8163 0.929 . S
H8152 C8166 0.930 . S
H8153 C8168 0.960 . S
H8154 C8168 0.960 . S
H8155 C8168 0.960 . S
C8156 H8148 0.929 . S
C8156 C8157 1.377 . S
C8156 C8158 1.384 . S
C8157 C8156 1.377 . S
C8157 C8163 1.390 . S
C8158 H8149 0.930 . S
C8158 C8156 1.384 . S
C8158 C8159 1.372 . S
C8159 C8158 1.372 . S
C8159 C8160 1.400 . S
C8159 C8164 1.490 . S
C8160 H8150 0.930 . S
C8160 C8159 1.400 . S
C8160 C8163 1.386 . S
H8161 C8177 0.930 . S
H8162 C8178 0.931 . S
C8163 H8151 0.929 . S
C8163 C8157 1.390 . S
C8163 C8160 1.386 . S
C8164 C8159 1.490 . S
C8164 C8166 1.395 . S
C8164 C8167 1.403 . S
H8165 C8171 0.930 . S
C8166 H8152 0.930 . S
C8166 C8164 1.395 . S
C8166 C8169 1.403 . S
C8167 C8164 1.403 . S
C8167 C8168 1.524 . S
C8167 C8171 1.400 . S
C8168 H8153 0.960 . S
C8168 H8154 0.960 . S
C8168 H8155 0.960 . S
C8168 C8167 1.524 . S
C8169 C8166 1.403 . S
C8169 C8170 1.392 . S
C8169 C8173 1.495 . S
C8170 C8169 1.392 . S
C8170 C8171 1.385 . S
C8170 C8172 1.478 . S
C8171 H8165 0.930 . S
C8171 C8167 1.400 . S
C8171 C8170 1.385 . S
C8172 C8170 1.478 . S
C8172 C8174 1.381 . S
C8172 C8178 1.383 . S
C8173 C8169 1.495 . S
C8173 H8179 0.959 . S
C8173 H8180 0.961 . S
C8173 H8181 0.960 . S
C8174 C8172 1.381 . S
C8174 C8175 1.394 . S
C8174 H8182 0.930 . S
C8175 C8174 1.394 . S
C8175 C8176 1.383 . S
C8175 H8183 0.929 . S
C8176 C8175 1.383 . S
C8176 C8177 1.377 . S
C8177 H8161 0.930 . S
C8177 C8176 1.377 . S
C8177 C8178 1.379 . S
C8178 H8162 0.931 . S
C8178 C8172 1.383 . S
C8178 C8177 1.379 . S
H8179 C8173 0.959 . S
H8180 C8173 0.961 . S
H8181 C8173 0.960 . S
H8182 C8174 0.930 . S
H8183 C8175 0.929 . S
H8184 C8192 0.929 . S
H8185 C8194 0.930 . S
H8186 C8196 0.930 . S
H8187 C8199 0.929 . S
H8188 C8202 0.930 . S
H8189 C8204 0.960 . S
H8190 C8204 0.960 . S
H8191 C8204 0.960 . S
C8192 H8184 0.929 . S
C8192 C8193 1.377 . S
C8192 C8194 1.384 . S
C8193 C8192 1.377 . S
C8193 C8199 1.390 . S
C8194 H8185 0.930 . S
C8194 C8192 1.384 . S
C8194 C8195 1.372 . S
C8195 C8194 1.372 . S
C8195 C8196 1.400 . S
C8195 C8200 1.490 . S
C8196 H8186 0.930 . S
C8196 C8195 1.400 . S
C8196 C8199 1.386 . S
H8197 C8213 0.930 . S
H8198 C8214 0.931 . S
C8199 H8187 0.929 . S
C8199 C8193 1.390 . S
C8199 C8196 1.386 . S
C8200 C8195 1.490 . S
C8200 C8202 1.395 . S
C8200 C8203 1.403 . S
H8201 C8207 0.930 . S
C8202 H8188 0.930 . S
C8202 C8200 1.395 . S
C8202 C8205 1.403 . S
C8203 C8200 1.403 . S
C8203 C8204 1.524 . S
C8203 C8207 1.400 . S
C8204 H8189 0.960 . S
C8204 H8190 0.960 . S
C8204 H8191 0.960 . S
C8204 C8203 1.524 . S
C8205 C8202 1.403 . S
C8205 C8206 1.392 . S
C8205 C8209 1.495 . S
C8206 C8205 1.392 . S
C8206 C8207 1.385 . S
C8206 C8208 1.478 . S
C8207 H8201 0.930 . S
C8207 C8203 1.400 . S
C8207 C8206 1.385 . S
C8208 C8206 1.478 . S
C8208 C8210 1.381 . S
C8208 C8214 1.383 . S
C8209 C8205 1.495 . S
C8209 H8215 0.959 . S
C8209 H8216 0.961 . S
C8209 H8217 0.960 . S
C8210 C8208 1.381 . S
C8210 C8211 1.394 . S
C8210 H8218 0.930 . S
C8211 C8210 1.394 . S
C8211 C8212 1.383 . S
C8211 H8219 0.929 . S
C8212 C8211 1.383 . S
C8212 C8213 1.377 . S
C8213 H8197 0.930 . S
C8213 C8212 1.377 . S
C8213 C8214 1.379 . S
C8214 H8198 0.931 . S
C8214 C8208 1.383 . S
C8214 C8213 1.379 . S
H8215 C8209 0.959 . S
H8216 C8209 0.961 . S
H8217 C8209 0.960 . S
H8218 C8210 0.930 . S
H8219 C8211 0.929 . S
H8220 C8228 0.929 . S
H8221 C8230 0.930 . S
H8222 C8232 0.930 . S
H8223 C8235 0.929 . S
H8224 C8238 0.930 . S
H8225 C8240 0.960 . S
H8226 C8240 0.960 . S
H8227 C8240 0.960 . S
C8228 H8220 0.929 . S
C8228 C8229 1.377 . S
C8228 C8230 1.384 . S
C8229 C8228 1.377 . S
C8229 C8235 1.390 . S
C8230 H8221 0.930 . S
C8230 C8228 1.384 . S
C8230 C8231 1.372 . S
C8231 C8230 1.372 . S
C8231 C8232 1.400 . S
C8231 C8236 1.490 . S
C8232 H8222 0.930 . S
C8232 C8231 1.400 . S
C8232 C8235 1.386 . S
H8233 C8249 0.930 . S
H8234 C8250 0.931 . S
C8235 H8223 0.929 . S
C8235 C8229 1.390 . S
C8235 C8232 1.386 . S
C8236 C8231 1.490 . S
C8236 C8238 1.395 . S
C8236 C8239 1.403 . S
H8237 C8243 0.930 . S
C8238 H8224 0.930 . S
C8238 C8236 1.395 . S
C8238 C8241 1.403 . S
C8239 C8236 1.403 . S
C8239 C8240 1.524 . S
C8239 C8243 1.400 . S
C8240 H8225 0.960 . S
C8240 H8226 0.960 . S
C8240 H8227 0.960 . S
C8240 C8239 1.524 . S
C8241 C8238 1.403 . S
C8241 C8242 1.392 . S
C8241 C8245 1.495 . S
C8242 C8241 1.392 . S
C8242 C8243 1.385 . S
C8242 C8244 1.478 . S
C8243 H8237 0.930 . S
C8243 C8239 1.400 . S
C8243 C8242 1.385 . S
C8244 C8242 1.478 . S
C8244 C8246 1.381 . S
C8244 C8250 1.383 . S
C8245 C8241 1.495 . S
C8245 H8251 0.959 . S
C8245 H8252 0.961 . S
C8245 H8253 0.960 . S
C8246 C8244 1.381 . S
C8246 C8247 1.394 . S
C8246 H8254 0.930 . S
C8247 C8246 1.394 . S
C8247 C8248 1.383 . S
C8247 H8255 0.929 . S
C8248 C8247 1.383 . S
C8248 C8249 1.377 . S
C8249 H8233 0.930 . S
C8249 C8248 1.377 . S
C8249 C8250 1.379 . S
C8250 H8234 0.931 . S
C8250 C8244 1.383 . S
C8250 C8249 1.379 . S
H8251 C8245 0.959 . S
H8252 C8245 0.961 . S
H8253 C8245 0.960 . S
H8254 C8246 0.930 . S
H8255 C8247 0.929 . S
C1353 C9 1.689 . S
C1372 C961 1.702 . S
C1389 C919 1.689 . S
C1408 C23 1.701 . S
C1425 C933 1.690 . S
C1444 C37 1.687 . S
C1461 C51 1.693 . S
C1480 C947 1.692 . S
C1497 C1003 1.690 . S
C1516 C65 1.701 . S
C1533 C975 1.689 . S
C1552 C79 1.697 . S
C1569 C989 1.693 . S
C1588 C93 1.676 . S
C1605 C107 1.689 . S
C1624 C905 1.698 . S
C1641 C121 1.691 . S
C1660 C891 1.699 . S
C1677 C135 1.695 . S
C1696 C849 1.676 . S
C1713 C149 1.689 . S
C1732 C863 1.699 . S
C1749 C163 1.692 . S
C1768 C877 1.679 . S
C1785 C177 1.694 . S
C1804 C807 1.687 . S
C1821 C821 1.691 . S
C1840 C191 1.684 . S
C1857 C835 1.692 . S
C1876 C205 1.696 . S
C1893 C219 1.693 . S
C1912 C793 1.688 . S
C1929 C233 1.694 . S
C1948 C779 1.686 . S
C1965 C247 1.695 . S
C1984 C695 1.677 . S
C2001 C709 1.695 . S
C2020 C261 1.675 . S
C2037 C723 1.694 . S
C2056 C275 1.686 . S
C2073 C681 1.694 . S
C2092 C289 1.674 . S
C2109 C303 1.694 . S
C2128 C751 1.682 . S
C2145 C317 1.690 . S
C2164 C765 1.685 . S
C2181 C331 1.690 . S
C2200 C737 1.686 . S
C2217 C345 1.692 . S
C2236 C1297 1.674 . S
C2253 C359 1.695 . S
C2272 C1255 1.687 . S
C2289 C373 1.689 . S
C2308 C1269 1.685 . S
C2325 C387 1.693 . S
C2344 C1283 1.700 . S
C2361 C401 1.695 . S
C2380 C1339 1.690 . S
C2397 C415 1.694 . S
C2416 C1311 1.695 . S
C2433 C1325 1.695 . S
C2452 C429 1.686 . S
C2469 C443 1.689 . S
C2488 C1241 1.680 . S
C2505 C457 1.689 . S
C2524 C1227 1.691 . S
C2541 C1185 1.689 . S
C2560 C471 1.697 . S
C2577 C485 1.690 . S
C2596 C1199 1.679 . S
C2613 C499 1.692 . S
C2632 C1213 1.674 . S
C2649 C513 1.693 . S
C2668 C1143 1.675 . S
C2685 C527 1.690 . S
C2704 C1157 1.676 . S
C2721 C541 1.691 . S
C2740 C1171 1.702 . S
C2757 C1129 1.689 . S
C2776 C555 1.690 . S
C2793 C569 1.690 . S
C2812 C1115 1.699 . S
C2829 C583 1.694 . S
C2848 C1031 1.696 . S
C2865 C597 1.689 . S
C2884 C1045 1.691 . S
C2901 C1059 1.689 . S
C2920 C611 1.684 . S
C2937 C625 1.693 . S
C2956 C1017 1.700 . S
C2973 C1087 1.695 . S
C2992 C639 1.688 . S
C3009 C653 1.694 . S
C3028 C1101 1.681 . S
C3045 C667 1.691 . S
C3064 C1073 1.674 . S
C3081 C7 1.453 . S
C3100 C553 1.458 . S
C3117 C21 1.461 . S
C3136 C511 1.451 . S
C3153 C525 1.453 . S
C3172 C35 1.457 . S
C3189 C49 1.461 . S
C3208 C539 1.451 . S
C3225 C469 1.454 . S
C3244 C63 1.445 . S
C3261 C483 1.454 . S
C3280 C77 1.476 . S
C3297 C497 1.453 . S
C3316 C91 1.460 . S
C3333 C455 1.455 . S
C3352 C105 1.442 . S
C3369 C441 1.456 . S
C3388 C119 1.475 . S
C3405 C133 1.456 . S
C3424 C399 1.437 . S
C3441 C413 1.453 . S
C3460 C147 1.453 . S
C3477 C161 1.454 . S
C3496 C427 1.446 . S
C3513 C357 1.453 . S
C3532 C175 1.473 . S
C3549 C371 1.462 . S
C3568 C189 1.446 . S
C3585 C203 1.457 . S
C3604 C385 1.473 . S
C3621 C217 1.459 . S
C3640 C343 1.467 . S
C3657 C231 1.453 . S
C3676 C623 1.470 . S
C3693 C245 1.461 . S
C3712 C665 1.455 . S
C3729 C637 1.462 . S
C3748 C259 1.441 . S
C3765 C651 1.462 . S
C3784 C273 1.442 . S
C3801 C287 1.461 . S
C3820 C567 1.451 . S
C3837 C301 1.453 . S
C3856 C595 1.454 . S
C3873 C609 1.452 . S
C3892 C315 1.466 . S
C3909 C329 1.457 . S
C3928 C581 1.474 . S
C3945 C1225 1.461 . S
C3964 C679 1.448 . S
C3981 C1183 1.462 . S
C4000 C693 1.445 . S
C4017 C1197 1.453 . S
C4036 C707 1.472 . S
C4053 C721 1.455 . S
C4072 C1211 1.476 . S
C4089 C1141 1.455 . S
C4108 C735 1.442 . S
C4125 C1155 1.453 . S
C4144 C749 1.451 . S
C4161 C763 1.453 . S
C4180 C1169 1.473 . S
C4197 C777 1.453 . S
C4216 C1127 1.459 . S
C4233 C1113 1.456 . S
C4252 C791 1.439 . S
C4269 C805 1.461 . S
C4288 C1071 1.436 . S
C4305 C1085 1.454 . S
C4324 C819 1.448 . S
C4341 C1099 1.454 . S
C4360 C833 1.448 . S
C4377 C847 1.460 . S
C4396 C1029 1.463 . S
C4413 C861 1.453 . S
C4432 C1043 1.471 . S
C4449 C1057 1.462 . S
C4468 C875 1.443 . S
C4485 C889 1.461 . S
C4504 C1015 1.436 . S
C4521 C1295 1.461 . S
C4540 C903 1.458 . S
C4557 C1337 1.458 . S
C4576 C917 1.469 . S
C4593 C931 1.460 . S
C4612 C1309 1.432 . S
C4629 C1323 1.461 . S
C4648 C945 1.457 . S
C4665 C1239 1.461 . S
C4684 C959 1.449 . S
C4701 C1267 1.453 . S
C4720 C973 1.455 . S
C4737 C987 1.462 . S
C4756 C1281 1.444 . S
C4773 C1253 1.458 . S
C4792 C1001 1.471 . S
C4809 C8 1.116 . S
C4828 C400 1.124 . S
C4845 C414 1.111 . S
C4864 C22 1.113 . S
C4881 C36 1.115 . S
C4900 C428 1.126 . S
C4917 C442 1.114 . S
C4936 C50 1.097 . S
C4953 C64 1.112 . S
C4972 C344 1.107 . S
C4989 C78 1.111 . S
C5008 C358 1.117 . S
C5025 C92 1.111 . S
C5044 C372 1.123 . S
C5061 C386 1.112 . S
C5080 C106 1.129 . S
C5097 C540 1.118 . S
C5116 C120 1.101 . S
C5133 C134 1.116 . S
C5152 C554 1.123 . S
C5169 C148 1.118 . S
C5188 C512 1.104 . S
C5205 C162 1.116 . S
C5224 C526 1.125 . S
C5241 C176 1.118 . S
C5260 C484 1.102 . S
C5277 C190 1.113 . S
C5296 C498 1.101 . S
C5313 C204 1.114 . S
C5332 C456 1.129 . S
C5349 C218 1.118 . S
C5368 C470 1.101 . S
C5385 C232 1.111 . S
C5404 C638 1.120 . S
C5421 C246 1.118 . S
C5440 C610 1.113 . S
C5457 C624 1.111 . S
C5476 C260 1.127 . S
C5493 C274 1.112 . S
C5512 C582 1.109 . S
C5529 C596 1.116 . S
C5548 C288 1.095 . S
C5565 C302 1.112 . S
C5584 C568 1.106 . S
C5601 C316 1.118 . S
C5620 C666 1.097 . S
C5637 C652 1.115 . S
C5656 C330 1.128 . S
C5673 C1072 1.118 . S
C5692 C680 1.099 . S
C5709 C694 1.118 . S
C5728 C1086 1.113 . S
C5745 C1100 1.111 . S
C5764 C708 1.115 . S
C5781 C722 1.112 . S
C5800 C1114 1.129 . S
C5817 C1016 1.112 . S
C5836 C736 1.108 . S
C5853 C1030 1.118 . S
C5872 C750 1.112 . S
C5889 C1044 1.112 . S
C5908 C764 1.130 . S
C5925 C778 1.116 . S
C5944 C1058 1.094 . S
C5961 C792 1.118 . S
C5980 C1212 1.099 . S
C5997 C1226 1.112 . S
C6016 C806 1.105 . S
C6033 C1184 1.112 . S
C6052 C820 1.130 . S
C6069 C1198 1.118 . S
C6088 C834 1.100 . S
C6105 C848 1.111 . S
C6124 C1156 1.126 . S
C6141 C862 1.113 . S
C6160 C1170 1.100 . S
C6177 C1128 1.111 . S
C6196 C876 1.126 . S
C6213 C1142 1.111 . S
C6232 C890 1.122 . S
C6249 C1310 1.115 . S
C6268 C904 1.125 . S
C6285 C918 1.117 . S
C6304 C1282 1.116 . S
C6321 C1296 1.115 . S
C6340 C932 1.127 . S
C6357 C946 1.112 . S
C6376 C1254 1.107 . S
C6393 C960 1.112 . S
C6412 C1268 1.105 . S
C6429 C974 1.118 . S
C6448 C1240 1.100 . S
C6465 C1338 1.118 . S
C6484 C988 1.105 . S
C6501 C1002 1.111 . S
C6520 C1324 1.118 . S
C6537 C437 1.219 . S
C6556 C3 1.225 . S
C6573 C395 1.220 . S
C6592 C17 1.203 . S
C6609 C31 1.218 . S
C6628 C409 1.228 . S
C6645 C423 1.218 . S
C6664 C45 1.228 . S
C6681 C353 1.220 . S
C6700 C59 1.203 . S
C6717 C73 1.220 . S
C6736 C367 1.202 . S
C6753 C87 1.216 . S
C6772 C381 1.229 . S
C6789 C339 1.216 . S
C6808 C101 1.228 . S
C6825 C619 1.219 . S
C6844 C115 1.225 . S
C6861 C129 1.217 . S
C6880 C577 1.207 . S
C6897 C143 1.221 . S
C6916 C591 1.204 . S
C6933 C605 1.221 . S
C6952 C157 1.217 . S
C6969 C171 1.218 . S
C6988 C661 1.204 . S
C7005 C633 1.218 . S
C7024 C185 1.229 . S
C7041 C647 1.221 . S
C7060 C199 1.213 . S
C7077 C213 1.216 . S
C7096 C563 1.228 . S
C7113 C227 1.220 . S
C7132 C549 1.222 . S
C7149 C241 1.217 . S
C7168 C465 1.229 . S
C7185 C255 1.220 . S
C7204 C479 1.223 . S
C7221 C493 1.216 . S
C7240 C269 1.229 . S
C7257 C451 1.220 . S
C7276 C283 1.202 . S
C7293 C297 1.219 . S
C7312 C521 1.203 . S
C7329 C311 1.217 . S
C7348 C535 1.209 . S
C7365 C325 1.218 . S
C7384 C507 1.228 . S
C7401 C675 1.220 . S
C7420 C1109 1.203 . S
C7437 C689 1.219 . S
C7456 C1067 1.225 . S
C7473 C703 1.216 . S
C7492 C1081 1.220 . S
C7509 C1095 1.218 . S
C7528 C717 1.227 . S
C7545 C1025 1.221 . S
C7564 C731 1.213 . S
C7581 C1039 1.217 . S
C7600 C745 1.208 . S
C7617 C759 1.216 . S
C7636 C1053 1.227 . S
C7653 C1011 1.217 . S
C7672 C773 1.229 . S
C7689 C1291 1.217 . S
C7708 C787 1.229 . S
C7725 C1249 1.221 . S
C7744 C801 1.214 . S
C7761 C1263 1.216 . S
C7780 C815 1.218 . S
C7797 C1277 1.221 . S
C7816 C829 1.204 . S
C7833 C1333 1.217 . S
C7852 C843 1.208 . S
C7869 C1305 1.220 . S
C7888 C857 1.202 . S
C7905 C1319 1.215 . S
C7924 C871 1.224 . S
C7941 C1235 1.219 . S
C7960 C885 1.224 . S
C7977 C899 1.217 . S
C7996 C1221 1.229 . S
C8013 C1137 1.219 . S
C8032 C913 1.225 . S
C8049 C1151 1.217 . S
C8068 C927 1.229 . S
C8085 C1165 1.221 . S
C8104 C941 1.215 . S
C8121 C1123 1.217 . S
C8140 C955 1.209 . S
C8157 C1193 1.217 . S
C8176 C969 1.208 . S
C8193 C1207 1.221 . S
C8212 C983 1.211 . S
C8229 C1179 1.219 . S
C8248 C997 1.203 . S
