# Generated by pormake.
# Topology dei, (4)-cn, num edge types: 1
# Building blocks:
#     Node 0, Type 0, BuildingBlock: QUQFOY_clean_sbu_1, # of connection points: 4
#     Node 1, Type 0, BuildingBlock: QUQFOY_clean_sbu_1, # of connection points: 4
#     Node 2, Type 0, BuildingBlock: QUQFOY_clean_sbu_1, # of connection points: 4
#     Node 3, Type 0, BuildingBlock: QUQFOY_clean_sbu_1, # of connection points: 4
#     Node 4, Type 0, BuildingBlock: QUQFOY_clean_sbu_1, # of connection points: 4
#     Node 5, Type 0, BuildingBlock: QUQFOY_clean_sbu_1, # of connection points: 4
#     Node 6, Type 0, BuildingBlock: QUQFOY_clean_sbu_1, # of connection points: 4
#     Node 7, Type 0, BuildingBlock: QUQFOY_clean_sbu_1, # of connection points: 4
#     Node 8, Type 0, BuildingBlock: QUQFOY_clean_sbu_1, # of connection points: 4
#     Node 9, Type 0, BuildingBlock: QUQFOY_clean_sbu_1, # of connection points: 4
#     Node 10, Type 0, BuildingBlock: QUQFOY_clean_sbu_1, # of connection points: 4
#     Node 11, Type 0, BuildingBlock: QUQFOY_clean_sbu_1, # of connection points: 4
#     Node 12, Type 0, BuildingBlock: QUQFOY_clean_sbu_1, # of connection points: 4
#     Node 13, Type 0, BuildingBlock: QUQFOY_clean_sbu_1, # of connection points: 4
#     Node 14, Type 0, BuildingBlock: QUQFOY_clean_sbu_1, # of connection points: 4
#     Node 15, Type 0, BuildingBlock: QUQFOY_clean_sbu_1, # of connection points: 4
#     Node 16, Type 0, BuildingBlock: QUQFOY_clean_sbu_1, # of connection points: 4
#     Node 17, Type 0, BuildingBlock: QUQFOY_clean_sbu_1, # of connection points: 4
#     Node 18, Type 0, BuildingBlock: QUQFOY_clean_sbu_1, # of connection points: 4
#     Node 19, Type 0, BuildingBlock: QUQFOY_clean_sbu_1, # of connection points: 4
#     Node 20, Type 0, BuildingBlock: QUQFOY_clean_sbu_1, # of connection points: 4
#     Node 21, Type 0, BuildingBlock: QUQFOY_clean_sbu_1, # of connection points: 4
#     Node 22, Type 0, BuildingBlock: QUQFOY_clean_sbu_1, # of connection points: 4
#     Node 23, Type 0, BuildingBlock: QUQFOY_clean_sbu_1, # of connection points: 4
#     Node 24, Type 0, BuildingBlock: QUQFOY_clean_sbu_1, # of connection points: 4
#     Node 25, Type 0, BuildingBlock: QUQFOY_clean_sbu_1, # of connection points: 4
#     Node 26, Type 0, BuildingBlock: QUQFOY_clean_sbu_1, # of connection points: 4
#     Node 27, Type 0, BuildingBlock: QUQFOY_clean_sbu_1, # of connection points: 4
#     Node 28, Type 0, BuildingBlock: QUQFOY_clean_sbu_1, # of connection points: 4
#     Node 29, Type 0, BuildingBlock: QUQFOY_clean_sbu_1, # of connection points: 4
#     Node 30, Type 0, BuildingBlock: QUQFOY_clean_sbu_1, # of connection points: 4
#     Node 31, Type 0, BuildingBlock: QUQFOY_clean_sbu_1, # of connection points: 4
#     Edge 32, Type (0, 0), BuildingBlock: XIVTED_clean_linker_0, # of connection points: 2
#     Edge 33, Type (0, 0), BuildingBlock: XIVTED_clean_linker_0, # of connection points: 2
#     Edge 34, Type (0, 0), BuildingBlock: XIVTED_clean_linker_0, # of connection points: 2
#     Edge 35, Type (0, 0), BuildingBlock: XIVTED_clean_linker_0, # of connection points: 2
#     Edge 36, Type (0, 0), BuildingBlock: XIVTED_clean_linker_0, # of connection points: 2
#     Edge 37, Type (0, 0), BuildingBlock: XIVTED_clean_linker_0, # of connection points: 2
#     Edge 38, Type (0, 0), BuildingBlock: XIVTED_clean_linker_0, # of connection points: 2
#     Edge 39, Type (0, 0), BuildingBlock: XIVTED_clean_linker_0, # of connection points: 2
#     Edge 40, Type (0, 0), BuildingBlock: XIVTED_clean_linker_0, # of connection points: 2
#     Edge 41, Type (0, 0), BuildingBlock: XIVTED_clean_linker_0, # of connection points: 2
#     Edge 42, Type (0, 0), BuildingBlock: XIVTED_clean_linker_0, # of connection points: 2
#     Edge 43, Type (0, 0), BuildingBlock: XIVTED_clean_linker_0, # of connection points: 2
#     Edge 44, Type (0, 0), BuildingBlock: XIVTED_clean_linker_0, # of connection points: 2
#     Edge 45, Type (0, 0), BuildingBlock: XIVTED_clean_linker_0, # of connection points: 2
#     Edge 46, Type (0, 0), BuildingBlock: XIVTED_clean_linker_0, # of connection points: 2
#     Edge 47, Type (0, 0), BuildingBlock: XIVTED_clean_linker_0, # of connection points: 2
#     Edge 48, Type (0, 0), BuildingBlock: XIVTED_clean_linker_0, # of connection points: 2
#     Edge 49, Type (0, 0), BuildingBlock: XIVTED_clean_linker_0, # of connection points: 2
#     Edge 50, Type (0, 0), BuildingBlock: XIVTED_clean_linker_0, # of connection points: 2
#     Edge 51, Type (0, 0), BuildingBlock: XIVTED_clean_linker_0, # of connection points: 2
#     Edge 52, Type (0, 0), BuildingBlock: XIVTED_clean_linker_0, # of connection points: 2
#     Edge 53, Type (0, 0), BuildingBlock: XIVTED_clean_linker_0, # of connection points: 2
#     Edge 54, Type (0, 0), BuildingBlock: XIVTED_clean_linker_0, # of connection points: 2
#     Edge 55, Type (0, 0), BuildingBlock: XIVTED_clean_linker_0, # of connection points: 2
#     Edge 56, Type (0, 0), BuildingBlock: XIVTED_clean_linker_0, # of connection points: 2
#     Edge 57, Type (0, 0), BuildingBlock: XIVTED_clean_linker_0, # of connection points: 2
#     Edge 58, Type (0, 0), BuildingBlock: XIVTED_clean_linker_0, # of connection points: 2
#     Edge 59, Type (0, 0), BuildingBlock: XIVTED_clean_linker_0, # of connection points: 2
#     Edge 60, Type (0, 0), BuildingBlock: XIVTED_clean_linker_0, # of connection points: 2
#     Edge 61, Type (0, 0), BuildingBlock: XIVTED_clean_linker_0, # of connection points: 2
#     Edge 62, Type (0, 0), BuildingBlock: XIVTED_clean_linker_0, # of connection points: 2
#     Edge 63, Type (0, 0), BuildingBlock: XIVTED_clean_linker_0, # of connection points: 2
#     Edge 64, Type (0, 0), BuildingBlock: XIVTED_clean_linker_0, # of connection points: 2
#     Edge 65, Type (0, 0), BuildingBlock: XIVTED_clean_linker_0, # of connection points: 2
#     Edge 66, Type (0, 0), BuildingBlock: XIVTED_clean_linker_0, # of connection points: 2
#     Edge 67, Type (0, 0), BuildingBlock: XIVTED_clean_linker_0, # of connection points: 2
#     Edge 68, Type (0, 0), BuildingBlock: XIVTED_clean_linker_0, # of connection points: 2
#     Edge 69, Type (0, 0), BuildingBlock: XIVTED_clean_linker_0, # of connection points: 2
#     Edge 70, Type (0, 0), BuildingBlock: XIVTED_clean_linker_0, # of connection points: 2
#     Edge 71, Type (0, 0), BuildingBlock: XIVTED_clean_linker_0, # of connection points: 2
#     Edge 72, Type (0, 0), BuildingBlock: XIVTED_clean_linker_0, # of connection points: 2
#     Edge 73, Type (0, 0), BuildingBlock: XIVTED_clean_linker_0, # of connection points: 2
#     Edge 74, Type (0, 0), BuildingBlock: XIVTED_clean_linker_0, # of connection points: 2
#     Edge 75, Type (0, 0), BuildingBlock: XIVTED_clean_linker_0, # of connection points: 2
#     Edge 76, Type (0, 0), BuildingBlock: XIVTED_clean_linker_0, # of connection points: 2
#     Edge 77, Type (0, 0), BuildingBlock: XIVTED_clean_linker_0, # of connection points: 2
#     Edge 78, Type (0, 0), BuildingBlock: XIVTED_clean_linker_0, # of connection points: 2
#     Edge 79, Type (0, 0), BuildingBlock: XIVTED_clean_linker_0, # of connection points: 2
#     Edge 80, Type (0, 0), BuildingBlock: XIVTED_clean_linker_0, # of connection points: 2
#     Edge 81, Type (0, 0), BuildingBlock: XIVTED_clean_linker_0, # of connection points: 2
#     Edge 82, Type (0, 0), BuildingBlock: XIVTED_clean_linker_0, # of connection points: 2
#     Edge 83, Type (0, 0), BuildingBlock: XIVTED_clean_linker_0, # of connection points: 2
#     Edge 84, Type (0, 0), BuildingBlock: XIVTED_clean_linker_0, # of connection points: 2
#     Edge 85, Type (0, 0), BuildingBlock: XIVTED_clean_linker_0, # of connection points: 2
#     Edge 86, Type (0, 0), BuildingBlock: XIVTED_clean_linker_0, # of connection points: 2
#     Edge 87, Type (0, 0), BuildingBlock: XIVTED_clean_linker_0, # of connection points: 2
#     Edge 88, Type (0, 0), BuildingBlock: XIVTED_clean_linker_0, # of connection points: 2
#     Edge 89, Type (0, 0), BuildingBlock: XIVTED_clean_linker_0, # of connection points: 2
#     Edge 90, Type (0, 0), BuildingBlock: XIVTED_clean_linker_0, # of connection points: 2
#     Edge 91, Type (0, 0), BuildingBlock: XIVTED_clean_linker_0, # of connection points: 2
#     Edge 92, Type (0, 0), BuildingBlock: XIVTED_clean_linker_0, # of connection points: 2
#     Edge 93, Type (0, 0), BuildingBlock: XIVTED_clean_linker_0, # of connection points: 2
#     Edge 94, Type (0, 0), BuildingBlock: XIVTED_clean_linker_0, # of connection points: 2
#     Edge 95, Type (0, 0), BuildingBlock: XIVTED_clean_linker_0, # of connection points: 2
# Relax obj value: 0.262
# Max RMSD: 0.145
# Mean RMSD: 0.145
data_MOF--net-dei--node1-QUQFOY_clean_sbu_1--edge1-XIVTED_clean_linker_0
_symmetry_space_group_name_H-M    P1
_symmetry_Int_Tables_number       1
_symmetry_cell_setting            triclinic
loop_
_symmetry_equiv_pos_as_xyz
'x, y, z'
_cell_length_a     58.071071
_cell_length_b     58.07082
_cell_length_c     93.401118
_cell_angle_alpha  90.005522
_cell_angle_beta   90.006025
_cell_angle_gamma 90.004884
loop_
_atom_site_label
_atom_site_type_symbol
_atom_site_fract_x
_atom_site_fract_y
_atom_site_fract_z
_atom_type_partial_charge
O0 O 0.10928 0.63132 0.02054 0.0
Cd1 Cd 0.14464 0.63091 0.02027 0.0
Cd2 Cd 0.14051 0.64111 0.05034 0.0
O3 O 0.10716 0.63384 0.04407 0.0
O4 O 0.15443 0.60902 0.00495 0.0
O5 O 0.15918 0.6022 0.02811 0.0
C6 C 0.16057 0.59503 0.01502 0.0
C7 C 0.14453 0.6373 0.07541 0.0
C8 C 0.09745 0.63151 0.03196 0.0
C9 C 0.16314 0.67624 0.02972 0.0
O10 O 0.15654 0.67011 0.04214 0.0
O11 O 0.16081 0.66277 0.01907 0.0
O12 O 0.13289 0.6536 0.06962 0.0
O13 O 0.1546 0.62293 0.06695 0.0
O14 O 0.60232 0.9055 0.29276 0.0
Cd15 Cd 0.63153 0.88974 0.30092 0.0
Cd16 Cd 0.64161 0.89462 0.27083 0.0
O17 O 0.60966 0.91061 0.26975 0.0
O18 O 0.6189 0.88129 0.32002 0.0
O19 O 0.64915 0.90372 0.3178 0.0
C20 C 0.63485 0.89312 0.32605 0.0
C21 C 0.6775 0.91084 0.26596 0.0
C22 C 0.59613 0.91243 0.28042 0.0
C23 C 0.64179 0.84726 0.28214 0.0
O24 O 0.64145 0.85927 0.2708 0.0
O25 O 0.63959 0.85672 0.29434 0.0
O26 O 0.66369 0.90492 0.25574 0.0
O27 O 0.67011 0.90911 0.279 0.0
O28 O 0.41304 0.39065 0.52072 0.0
Cd29 Cd 0.3777 0.39097 0.52019 0.0
Cd30 Cd 0.38128 0.38069 0.5503 0.0
O31 O 0.4147 0.38816 0.54426 0.0
O32 O 0.36804 0.41318 0.505 0.0
O33 O 0.36294 0.41944 0.5282 0.0
C34 C 0.36172 0.42691 0.51516 0.0
C35 C 0.37693 0.3841 0.57537 0.0
C36 C 0.42464 0.39053 0.53224 0.0
C37 C 0.35906 0.34561 0.52942 0.0
O38 O 0.36542 0.35174 0.54189 0.0
O39 O 0.3616 0.3591 0.51879 0.0
O40 O 0.38866 0.3679 0.56953 0.0
O41 O 0.36697 0.39861 0.56695 0.0
O42 O 0.9199 0.1163 0.79221 0.0
Cd43 Cd 0.89088 0.1323 0.80043 0.0
Cd44 Cd 0.88062 0.12774 0.77036 0.0
O45 O 0.91253 0.11169 0.76917 0.0
O46 O 0.90365 0.14042 0.81956 0.0
O47 O 0.87309 0.11843 0.81728 0.0
C48 C 0.88754 0.12878 0.82556 0.0
C49 C 0.84472 0.11153 0.76553 0.0
C50 C 0.92603 0.10956 0.77983 0.0
C51 C 0.88088 0.17504 0.78183 0.0
O52 O 0.88085 0.1631 0.77045 0.0
O53 O 0.88324 0.16547 0.79398 0.0
O54 O 0.85845 0.11756 0.7553 0.0
O55 O 0.85219 0.11317 0.77855 0.0
O56 O 0.10936 0.39083 0.98814 0.0
Cd57 Cd 0.1447 0.39112 0.98814 0.0
Cd58 Cd 0.13997 0.38164 0.95793 0.0
O59 O 0.10692 0.38941 0.96458 0.0
O60 O 0.15495 0.41294 1.00339 0.0
O61 O 0.15905 0.41983 0.98018 0.0
C62 C 0.16078 0.42697 0.99327 0.0
C63 C 0.14314 0.38525 0.9328 0.0
C64 C 0.09739 0.39134 0.97678 0.0
C65 C 0.16286 0.34599 0.97817 0.0
O66 O 0.156 0.35244 0.96587 0.0
O67 O 0.16081 0.35922 0.98897 0.0
O68 O 0.13145 0.36918 0.93879 0.0
O69 O 0.15374 0.39952 0.94107 0.0
O70 O 0.91991 0.90561 0.21616 0.0
Cd71 Cd 0.89043 0.89016 0.20814 0.0
Cd72 Cd 0.88095 0.89441 0.23826 0.0
O73 O 0.91295 0.91032 0.23925 0.0
O74 O 0.90249 0.88192 0.18886 0.0
O75 O 0.87244 0.90449 0.19152 0.0
C76 C 0.8864 0.89385 0.18306 0.0
C77 C 0.84512 0.91068 0.24321 0.0
C78 C 0.92633 0.91228 0.22851 0.0
C79 C 0.88037 0.84732 0.22663 0.0
O80 O 0.88103 0.85906 0.23809 0.0
O81 O 0.88234 0.85707 0.21452 0.0
O82 O 0.85894 0.90465 0.2534 0.0
O83 O 0.85248 0.90904 0.23016 0.0
O84 O 0.41312 0.63082 0.48822 0.0
Cd85 Cd 0.37778 0.63062 0.48808 0.0
Cd86 Cd 0.38276 0.64051 0.45803 0.0
O87 O 0.41573 0.63241 0.46468 0.0
O88 O 0.36731 0.60843 0.50306 0.0
O89 O 0.36344 0.60217 0.47976 0.0
C90 C 0.36156 0.59469 0.49277 0.0
C91 C 0.37955 0.63704 0.4329 0.0
C92 C 0.42516 0.63033 0.47689 0.0
C93 C 0.36003 0.67605 0.4784 0.0
O94 O 0.36703 0.66981 0.46609 0.0
O95 O 0.36176 0.66255 0.48909 0.0
O96 O 0.39138 0.65299 0.43892 0.0
O97 O 0.36883 0.62283 0.44115 0.0
O98 O 0.60271 0.11666 0.71617 0.0
Cd99 Cd 0.6324 0.13227 0.70858 0.0
Cd100 Cd 0.64106 0.12728 0.73869 0.0
O101 O 0.60907 0.11134 0.73927 0.0
O102 O 0.6208 0.14117 0.68931 0.0
O103 O 0.65059 0.11823 0.69196 0.0
C104 C 0.63688 0.12923 0.68351 0.0
C105 C 0.67692 0.11093 0.74333 0.0
C106 C 0.59598 0.10965 0.72838 0.0
C107 C 0.64212 0.17462 0.72763 0.0
O108 O 0.64097 0.16262 0.73895 0.0
O109 O 0.64056 0.16514 0.71539 0.0
O110 O 0.66313 0.11648 0.75364 0.0
O111 O 0.66951 0.11306 0.73032 0.0
O112 O 0.91325 0.39135 0.98777 0.0
Cd113 Cd 0.87791 0.39165 0.98797 0.0
Cd114 Cd 0.88197 0.3824 0.95779 0.0
O115 O 0.91516 0.39012 0.96419 0.0
O116 O 0.86778 0.41377 1.00308 0.0
O117 O 0.86349 0.4202 0.97983 0.0
C118 C 0.86186 0.4276 0.99287 0.0
C119 C 0.87836 0.38644 0.93271 0.0
C120 C 0.92496 0.39196 0.9763 0.0
C121 C 0.85956 0.34656 0.97807 0.0
O122 O 0.86616 0.35308 0.96573 0.0
O123 O 0.86182 0.35974 0.98889 0.0
O124 O 0.89012 0.37024 0.93852 0.0
O125 O 0.86787 0.40054 0.94115 0.0
O126 O 0.38053 0.16286 0.73825 0.0
Cd127 Cd 0.3805 0.12751 0.73837 0.0
Cd128 Cd 0.38981 0.13202 0.70813 0.0
O129 O 0.38116 0.1649 0.71467 0.0
O130 O 0.35874 0.11724 0.75364 0.0
O131 O 0.35188 0.11292 0.73044 0.0
C132 C 0.34475 0.11126 0.74354 0.0
C133 C 0.38646 0.12879 0.68299 0.0
C134 C 0.3794 0.1746 0.72681 0.0
C135 C 0.42584 0.10989 0.72847 0.0
O136 O 0.41936 0.11672 0.71617 0.0
O137 O 0.4125 0.11163 0.73924 0.0
O138 O 0.40223 0.14083 0.68904 0.0
O139 O 0.37241 0.11783 0.69121 0.0
O140 O 0.60922 0.63109 0.48813 0.0
Cd141 Cd 0.64456 0.63094 0.48836 0.0
Cd142 Cd 0.6405 0.64016 0.45819 0.0
O143 O 0.60736 0.63215 0.46455 0.0
O144 O 0.65476 0.60879 0.50343 0.0
O145 O 0.65909 0.60251 0.48016 0.0
C146 C 0.66073 0.59504 0.49319 0.0
C147 C 0.64425 0.63629 0.43311 0.0
C148 C 0.59754 0.63032 0.47665 0.0
C149 C 0.6627 0.67611 0.47853 0.0
O150 O 0.65612 0.66956 0.46619 0.0
O151 O 0.66053 0.6629 0.48933 0.0
O152 O 0.63234 0.65236 0.43893 0.0
O153 O 0.65478 0.6222 0.44154 0.0
O154 O 0.14135 0.85918 0.2385 0.0
Cd155 Cd 0.14151 0.89452 0.2384 0.0
Cd156 Cd 0.13219 0.8896 0.2082 0.0
O157 O 0.14027 0.85667 0.21494 0.0
O158 O 0.16358 0.90503 0.25345 0.0
O159 O 0.17003 0.90888 0.23017 0.0
C160 C 0.1774 0.91078 0.24321 0.0
C161 C 0.1357 0.89261 0.18306 0.0
C162 C 0.14211 0.84719 0.22716 0.0
C163 C 0.09634 0.91239 0.22837 0.0
O164 O 0.10286 0.90545 0.2161 0.0
O165 O 0.10955 0.91053 0.23919 0.0
O166 O 0.11977 0.88079 0.1891 0.0
O167 O 0.14988 0.90341 0.19129 0.0
O168 O 0.91326 0.63169 0.02118 0.0
Cd169 Cd 0.87792 0.63129 0.02072 0.0
Cd170 Cd 0.88165 0.64147 0.05094 0.0
O171 O 0.91501 0.63412 0.04473 0.0
O172 O 0.86823 0.6091 0.00552 0.0
O173 O 0.86331 0.60273 0.02872 0.0
C174 C 0.86202 0.59531 0.01567 0.0
C175 C 0.87781 0.63833 0.07605 0.0
C176 C 0.92491 0.6318 0.03269 0.0
C177 C 0.85907 0.67647 0.03013 0.0
O178 O 0.86544 0.67027 0.04258 0.0
O179 O 0.86175 0.66313 0.01943 0.0
O180 O 0.88933 0.65452 0.07006 0.0
O181 O 0.86776 0.62366 0.06778 0.0
O182 O 0.14061 0.16308 0.77053 0.0
Cd183 Cd 0.14091 0.12773 0.7704 0.0
Cd184 Cd 0.13101 0.13226 0.8006 0.0
O185 O 0.13853 0.16543 0.79407 0.0
O186 O 0.16275 0.11764 0.75512 0.0
O187 O 0.16959 0.11323 0.77831 0.0
C188 C 0.17674 0.11163 0.76522 0.0
C189 C 0.13441 0.12886 0.82573 0.0
C190 C 0.14072 0.17501 0.7819 0.0
C191 C 0.09573 0.10932 0.78014 0.0
O192 O 0.10203 0.11605 0.79249 0.0
O193 O 0.10902 0.1116 0.76939 0.0
O194 O 0.11828 0.14046 0.81972 0.0
O195 O 0.14888 0.11852 0.81747 0.0
O196 O 0.60906 0.39078 0.5204 0.0
Cd197 Cd 0.64441 0.3912 0.52023 0.0
Cd198 Cd 0.64019 0.38124 0.55031 0.0
O199 O 0.60685 0.38839 0.54394 0.0
O200 O 0.65445 0.41346 0.50517 0.0
O201 O 0.65884 0.4197 0.52844 0.0
C202 C 0.66043 0.4272 0.51542 0.0
C203 C 0.64404 0.38499 0.57539 0.0
C204 C 0.59719 0.39065 0.5318 0.0
C205 C 0.6631 0.34607 0.5298 0.0
O206 O 0.65649 0.35233 0.54219 0.0
O207 O 0.66062 0.35937 0.51907 0.0
O208 O 0.63247 0.36867 0.56955 0.0
O209 O 0.65409 0.39944 0.56697 0.0
O210 O 0.38132 0.85948 0.27066 0.0
Cd211 Cd 0.38107 0.89483 0.27063 0.0
Cd212 Cd 0.39055 0.89022 0.30074 0.0
O213 O 0.38285 0.85708 0.29421 0.0
O214 O 0.35897 0.90511 0.25554 0.0
O215 O 0.35254 0.90923 0.2788 0.0
C216 C 0.34515 0.91096 0.26576 0.0
C217 C 0.38672 0.89384 0.32583 0.0
C218 C 0.38088 0.84753 0.28202 0.0
C219 C 0.42625 0.91295 0.28049 0.0
O220 O 0.4198 0.90614 0.2928 0.0
O221 O 0.41301 0.91089 0.26969 0.0
O222 O 0.40283 0.88203 0.31998 0.0
O223 O 0.37251 0.90427 0.31743 0.0
O224 O 0.60892 0.13141 0.52178 0.0
Cd225 Cd 0.64426 0.13103 0.52119 0.0
Cd226 Cd 0.64071 0.14188 0.55126 0.0
O227 O 0.60723 0.13454 0.5453 0.0
O228 O 0.65375 0.10877 0.50599 0.0
O229 O 0.65906 0.10255 0.52918 0.0
C230 C 0.66016 0.09505 0.51614 0.0
C231 C 0.64516 0.13891 0.57634 0.0
C232 C 0.5973 0.1319 0.53329 0.0
C233 C 0.66302 0.1765 0.53013 0.0
O234 O 0.65671 0.17059 0.54265 0.0
O235 O 0.66038 0.16286 0.51958 0.0
O236 O 0.63354 0.1551 0.57041 0.0
O237 O 0.65491 0.12413 0.56802 0.0
O238 O 0.10238 0.40676 0.7923 0.0
Cd239 Cd 0.13144 0.39078 0.80048 0.0
Cd240 Cd 0.14112 0.39446 0.77022 0.0
O241 O 0.10922 0.41055 0.76913 0.0
O242 O 0.1189 0.38305 0.81972 0.0
O243 O 0.14949 0.4049 0.81714 0.0
C244 C 0.13513 0.39472 0.82556 0.0
C245 C 0.17692 0.41046 0.76483 0.0
C246 C 0.09599 0.41313 0.77988 0.0
C247 C 0.14102 0.34752 0.78221 0.0
O248 O 0.14083 0.35912 0.77069 0.0
O249 O 0.13892 0.35744 0.79426 0.0
O250 O 0.1629 0.40418 0.75481 0.0
O251 O 0.16983 0.40917 0.77795 0.0
O252 O 0.91341 0.89111 0.02115 0.0
Cd253 Cd 0.87806 0.89149 0.02058 0.0
Cd254 Cd 0.88168 0.88102 0.05078 0.0
O255 O 0.91507 0.88846 0.04469 0.0
O256 O 0.86857 0.91339 0.00519 0.0
O257 O 0.86331 0.92019 0.02831 0.0
C258 C 0.86219 0.92737 0.0152 0.0
C259 C 0.87764 0.88412 0.07589 0.0
C260 C 0.92501 0.89089 0.03267 0.0
C261 C 0.85936 0.84611 0.02982 0.0
O262 O 0.8657 0.85217 0.0423 0.0
O263 O 0.86194 0.85962 0.01921 0.0
O264 O 0.88922 0.86795 0.06991 0.0
O265 O 0.86763 0.89877 0.06759 0.0
O266 O 0.4202 0.61645 0.29231 0.0
Cd267 Cd 0.39095 0.632 0.30055 0.0
Cd268 Cd 0.38108 0.6281 0.27037 0.0
O269 O 0.41305 0.61218 0.26921 0.0
O270 O 0.40344 0.63984 0.31979 0.0
O271 O 0.37313 0.6176 0.31722 0.0
C272 C 0.38738 0.62794 0.32563 0.0
C273 C 0.34531 0.61196 0.26507 0.0
C274 C 0.42649 0.60997 0.2799 0.0
C275 C 0.38083 0.67509 0.2823 0.0
O276 O 0.3812 0.66345 0.2708 0.0
O277 O 0.38299 0.66522 0.29436 0.0
O278 O 0.35927 0.61825 0.25502 0.0
O279 O 0.35247 0.6133 0.27817 0.0
O280 O 0.6089 0.89132 0.48835 0.0
Cd281 Cd 0.64425 0.89146 0.48857 0.0
Cd282 Cd 0.64003 0.88186 0.45842 0.0
O283 O 0.60695 0.89008 0.46477 0.0
O284 O 0.6544 0.91358 0.50368 0.0
O285 O 0.65882 0.91992 0.48043 0.0
C286 C 0.66041 0.92735 0.49346 0.0
C287 C 0.64383 0.88551 0.43333 0.0
C288 C 0.59718 0.89203 0.47688 0.0
C289 C 0.66217 0.8461 0.47891 0.0
O290 O 0.65548 0.85246 0.46655 0.0
O291 O 0.6602 0.85951 0.48963 0.0
O292 O 0.63184 0.86953 0.4392 0.0
O293 O 0.65441 0.89962 0.44173 0.0
O294 O 0.41917 0.40467 0.71548 0.0
Cd295 Cd 0.3896 0.38899 0.70777 0.0
Cd296 Cd 0.38065 0.39431 0.73797 0.0
O297 O 0.41265 0.41025 0.73854 0.0
O298 O 0.40168 0.37982 0.68866 0.0
O299 O 0.37185 0.40281 0.69088 0.0
C300 C 0.38579 0.39174 0.68264 0.0
C301 C 0.34489 0.41065 0.74297 0.0
C302 C 0.42581 0.41181 0.72768 0.0
C303 C 0.37962 0.34688 0.72696 0.0
O304 O 0.38073 0.35898 0.73825 0.0
O305 O 0.38127 0.35622 0.71469 0.0
O306 O 0.35893 0.40503 0.75313 0.0
O307 O 0.35198 0.40859 0.72989 0.0
O308 O 0.91322 0.13142 0.98773 0.0
Cd309 Cd 0.87787 0.13123 0.98802 0.0
Cd310 Cd 0.88195 0.1409 0.95786 0.0
O311 O 0.91511 0.1329 0.96416 0.0
O312 O 0.86792 0.10939 1.00334 0.0
O313 O 0.86328 0.10254 0.98016 0.0
C314 C 0.86183 0.09539 0.99326 0.0
C315 C 0.8781 0.13711 0.93278 0.0
C316 C 0.92492 0.13088 0.97625 0.0
C317 C 0.85981 0.17659 0.97836 0.0
O318 O 0.86643 0.17025 0.96598 0.0
O319 O 0.86189 0.16318 0.98907 0.0
O320 O 0.89 0.15318 0.9386 0.0
O321 O 0.86761 0.12298 0.94121 0.0
O322 O 0.10294 0.6164 0.21579 0.0
Cd323 Cd 0.13228 0.63214 0.2078 0.0
Cd324 Cd 0.14152 0.62771 0.2381 0.0
O325 O 0.10957 0.6117 0.23892 0.0
O326 O 0.11976 0.64082 0.18871 0.0
O327 O 0.14988 0.61821 0.19088 0.0
C328 C 0.13567 0.62898 0.18266 0.0
C329 C 0.17732 0.61157 0.24326 0.0
C330 C 0.09639 0.60965 0.22809 0.0
C331 C 0.14225 0.67483 0.22653 0.0
O332 O 0.14135 0.66306 0.23796 0.0
O333 O 0.14048 0.66513 0.21438 0.0
O334 O 0.16331 0.6175 0.25337 0.0
O335 O 0.17018 0.61324 0.23017 0.0
O336 O 0.41282 0.89094 0.48857 0.0
Cd337 Cd 0.37748 0.89113 0.48845 0.0
Cd338 Cd 0.38242 0.88185 0.45828 0.0
O339 O 0.41536 0.88993 0.46501 0.0
O340 O 0.36697 0.91325 0.50346 0.0
O341 O 0.3632 0.91963 0.48017 0.0
C342 C 0.36128 0.92705 0.4932 0.0
C343 C 0.37934 0.88532 0.43314 0.0
C344 C 0.42483 0.89174 0.47724 0.0
C345 C 0.35959 0.84599 0.47843 0.0
O346 O 0.36657 0.85251 0.46617 0.0
O347 O 0.36144 0.85919 0.48926 0.0
O348 O 0.39118 0.86941 0.43918 0.0
O349 O 0.36858 0.89953 0.44137 0.0
O350 O 0.88122 0.66294 0.23847 0.0
Cd351 Cd 0.88106 0.62759 0.23834 0.0
Cd352 Cd 0.89058 0.63241 0.20833 0.0
O353 O 0.88263 0.66544 0.21492 0.0
O354 O 0.85893 0.6171 0.25335 0.0
O355 O 0.85259 0.61323 0.23006 0.0
C356 C 0.84516 0.61134 0.24308 0.0
C357 C 0.88643 0.62892 0.18326 0.0
C358 C 0.88066 0.67494 0.22712 0.0
C359 C 0.92641 0.60984 0.22852 0.0
O360 O 0.92004 0.61678 0.21622 0.0
O361 O 0.91302 0.6116 0.23926 0.0
O362 O 0.90255 0.64082 0.18905 0.0
O363 O 0.87248 0.61825 0.19171 0.0
O364 O 0.10929 0.13104 0.98814 0.0
Cd365 Cd 0.14464 0.13077 0.98819 0.0
Cd366 Cd 0.13999 0.14056 0.95809 0.0
O367 O 0.10689 0.13274 0.96459 0.0
O368 O 0.15478 0.10896 1.00346 0.0
O369 O 0.15908 0.10206 0.98027 0.0
C370 C 0.16071 0.09494 0.99337 0.0
C371 C 0.14359 0.1367 0.93299 0.0
C372 C 0.09734 0.13067 0.97677 0.0
C373 C 0.16261 0.17613 0.97845 0.0
O374 O 0.15574 0.16985 0.96612 0.0
O375 O 0.1607 0.1627 0.98916 0.0
O376 O 0.13176 0.15281 0.93885 0.0
O377 O 0.15411 0.12257 0.9414 0.0
O378 O 0.64126 0.35877 0.73806 0.0
Cd379 Cd 0.64128 0.39412 0.73803 0.0
Cd380 Cd 0.63204 0.38925 0.70782 0.0
O381 O 0.64073 0.35644 0.71449 0.0
O382 O 0.66306 0.40458 0.75324 0.0
O383 O 0.66989 0.40861 0.73002 0.0
C384 C 0.67704 0.41044 0.7431 0.0
C385 C 0.63544 0.39239 0.68268 0.0
C386 C 0.64244 0.34688 0.72668 0.0
C387 C 0.59594 0.41155 0.72804 0.0
O388 O 0.60244 0.40455 0.71578 0.0
O389 O 0.60928 0.40999 0.73882 0.0
O390 O 0.61972 0.38029 0.68873 0.0
O391 O 0.64944 0.40342 0.69091 0.0
O392 O 0.41295 0.13124 0.52097 0.0
Cd393 Cd 0.37761 0.1308 0.52063 0.0
Cd394 Cd 0.38148 0.14104 0.55069 0.0
O395 O 0.41493 0.13408 0.5445 0.0
O396 O 0.3678 0.10859 0.50548 0.0
O397 O 0.36303 0.10228 0.5287 0.0
C398 C 0.36164 0.09483 0.51566 0.0
C399 C 0.37739 0.13721 0.57575 0.0
C400 C 0.42472 0.13165 0.53241 0.0
C401 C 0.35875 0.17601 0.53001 0.0
O402 O 0.36517 0.16985 0.54246 0.0
O403 O 0.36141 0.16264 0.51933 0.0
O404 O 0.38887 0.15363 0.56998 0.0
O405 O 0.36751 0.12271 0.56728 0.0
O406 O 0.64148 0.66322 0.27082 0.0
Cd407 Cd 0.64158 0.62788 0.27048 0.0
Cd408 Cd 0.63204 0.63186 0.30074 0.0
O409 O 0.64006 0.66501 0.2944 0.0
O410 O 0.66367 0.6178 0.25533 0.0
O411 O 0.67001 0.61317 0.27857 0.0
C412 C 0.67743 0.61165 0.26553 0.0
C413 C 0.63525 0.62828 0.32587 0.0
C414 C 0.64206 0.67486 0.28231 0.0
C415 C 0.59639 0.6096 0.28018 0.0
O416 O 0.60284 0.6161 0.29256 0.0
O417 O 0.60962 0.61193 0.26941 0.0
O418 O 0.61929 0.64009 0.31985 0.0
O419 O 0.64963 0.6178 0.31761 0.0
O420 O 0.10941 0.89063 0.0208 0.0
Cd421 Cd 0.14476 0.89105 0.02054 0.0
Cd422 Cd 0.14056 0.88107 0.0507 0.0
O423 O 0.10724 0.88828 0.04434 0.0
O424 O 0.15459 0.9129 0.0052 0.0
O425 O 0.15925 0.9198 0.02837 0.0
C426 C 0.16067 0.92693 0.01526 0.0
C427 C 0.14443 0.88483 0.07578 0.0
C428 C 0.09756 0.89053 0.0322 0.0
C429 C 0.1634 0.84588 0.03017 0.0
O430 O 0.15679 0.85213 0.04256 0.0
O431 O 0.16096 0.8592 0.01944 0.0
O432 O 0.13283 0.86853 0.06994 0.0
O433 O 0.15452 0.89925 0.06735 0.0
O434 O 0.88108 0.35914 0.77068 0.0
Cd435 Cd 0.88086 0.39448 0.77018 0.0
Cd436 Cd 0.89104 0.39071 0.8004 0.0
O437 O 0.88325 0.35742 0.79424 0.0
O438 O 0.85901 0.40415 0.7548 0.0
O439 O 0.85221 0.40927 0.77794 0.0
C440 C 0.84505 0.41049 0.76484 0.0
C441 C 0.88792 0.39468 0.82551 0.0
C442 C 0.88096 0.34752 0.78219 0.0
C443 C 0.92624 0.4129 0.77957 0.0
O444 O 0.92006 0.40647 0.79201 0.0
O445 O 0.91277 0.4105 0.76891 0.0
O446 O 0.90397 0.38292 0.81953 0.0
O447 O 0.8734 0.40489 0.81722 0.0
H448 H 0.10909 0.65257 0.16383 0.0
H449 H 0.16743 0.6052 0.09213 0.0
H450 H 0.16628 0.60514 0.16537 0.0
H451 H 0.12304 0.66469 0.09476 0.0
H452 H 0.16615 0.60207 0.11846 0.0
H453 H 0.11227 0.65385 0.138 0.0
C454 C 0.12235 0.64232 0.15873 0.0
C455 C 0.1375 0.62877 0.16683 0.0
C456 C 0.15682 0.61582 0.1132 0.0
C457 C 0.1413 0.63024 0.13695 0.0
C458 C 0.15753 0.61762 0.09821 0.0
C459 C 0.14527 0.63519 0.09121 0.0
C460 C 0.14358 0.63159 0.12113 0.0
C461 C 0.13273 0.65081 0.09962 0.0
C462 C 0.1242 0.64314 0.14391 0.0
C463 C 0.15429 0.61586 0.15953 0.0
N464 N 0.13215 0.64856 0.11404 0.0
N465 N 0.15575 0.61689 0.14495 0.0
H466 H 0.66773 0.91667 0.41646 0.0
H467 H 0.60752 0.87058 0.34498 0.0
H468 H 0.62097 0.85898 0.41412 0.0
H469 H 0.66603 0.91638 0.34326 0.0
H470 H 0.61062 0.86955 0.37081 0.0
H471 H 0.66632 0.91969 0.39013 0.0
C472 C 0.65727 0.90463 0.41044 0.0
C473 C 0.64442 0.88758 0.41752 0.0
C474 C 0.62286 0.87985 0.36486 0.0
C475 C 0.64259 0.89107 0.3876 0.0
C476 C 0.62106 0.88052 0.35004 0.0
C477 C 0.63661 0.89354 0.34188 0.0
C478 C 0.64032 0.89234 0.37177 0.0
C479 C 0.65372 0.90608 0.34914 0.0
C480 C 0.65649 0.90637 0.39545 0.0
C481 C 0.63116 0.87244 0.4092 0.0
N482 N 0.65514 0.90518 0.36372 0.0
N483 N 0.63054 0.87462 0.39477 0.0
H484 H 0.41116 0.36684 0.66381 0.0
H485 H 0.3546 0.41651 0.59216 0.0
H486 H 0.35586 0.41647 0.66537 0.0
H487 H 0.39737 0.35583 0.59466 0.0
H488 H 0.35571 0.41927 0.61851 0.0
H489 H 0.4078 0.36555 0.638 0.0
C490 C 0.39827 0.37757 0.65872 0.0
C491 C 0.38373 0.39177 0.66682 0.0
C492 C 0.36471 0.40534 0.61322 0.0
C493 C 0.37972 0.39031 0.63695 0.0
C494 C 0.36409 0.40374 0.59822 0.0
C495 C 0.37598 0.38596 0.59118 0.0
C496 C 0.37746 0.38913 0.62112 0.0
C497 C 0.388 0.36989 0.59955 0.0
C498 C 0.39631 0.37674 0.64391 0.0
C499 C 0.36739 0.40525 0.65952 0.0
N500 N 0.38849 0.37195 0.61399 0.0
N501 N 0.36583 0.40422 0.64495 0.0
H502 H 0.85417 0.10587 0.91597 0.0
H503 H 0.91535 0.15062 0.84453 0.0
H504 H 0.90109 0.1634 0.91352 0.0
H505 H 0.85585 0.10613 0.84271 0.0
H506 H 0.91215 0.15176 0.87036 0.0
H507 H 0.85571 0.10258 0.88965 0.0
C508 C 0.86469 0.11782 0.90993 0.0
C509 C 0.87756 0.13491 0.91697 0.0
C510 C 0.89971 0.14173 0.86439 0.0
C511 C 0.87955 0.1311 0.88707 0.0
C512 C 0.90157 0.14098 0.84957 0.0
C513 C 0.88577 0.12832 0.84138 0.0
C514 C 0.88193 0.12965 0.87126 0.0
C515 C 0.86836 0.11615 0.84861 0.0
C516 C 0.86554 0.11593 0.89495 0.0
C517 C 0.89089 0.14993 0.90863 0.0
N518 N 0.86688 0.11712 0.86319 0.0
N519 N 0.8916 0.14759 0.89421 0.0
H520 H 0.12005 0.35843 0.91385 0.0
H521 H 0.16695 0.41785 0.84238 0.0
H522 H 0.16665 0.4163 0.91563 0.0
H523 H 0.10794 0.37278 0.84482 0.0
H524 H 0.17001 0.41641 0.86871 0.0
H525 H 0.11888 0.36174 0.88803 0.0
C526 C 0.13014 0.37187 0.90881 0.0
C527 C 0.14342 0.38717 0.91698 0.0
C528 C 0.15638 0.40697 0.86341 0.0
C529 C 0.14206 0.39113 0.8871 0.0
C530 C 0.15462 0.40777 0.84842 0.0
C531 C 0.1372 0.39537 0.84137 0.0
C532 C 0.14074 0.3935 0.87128 0.0
C533 C 0.1217 0.38259 0.84972 0.0
C534 C 0.12937 0.3738 0.89399 0.0
C535 C 0.15613 0.40419 0.90974 0.0
N536 N 0.12392 0.38193 0.86414 0.0
N537 N 0.15516 0.40572 0.89516 0.0
H538 H 0.89792 0.85527 0.09492 0.0
H539 H 0.85561 0.9184 0.16628 0.0
H540 H 0.85596 0.91657 0.09299 0.0
H541 H 0.91175 0.86982 0.1638 0.0
H542 H 0.852 0.91666 0.13998 0.0
H543 H 0.89898 0.85842 0.12076 0.0
C544 C 0.88882 0.86943 0.09993 0.0
C545 C 0.87693 0.88577 0.09171 0.0
C546 C 0.86512 0.9065 0.14527 0.0
C547 C 0.87819 0.88955 0.1216 0.0
C548 C 0.86719 0.90747 0.16024 0.0
C549 C 0.88399 0.89422 0.16727 0.0
C550 C 0.8798 0.89199 0.1374 0.0
C551 C 0.89853 0.88035 0.15892 0.0
C552 C 0.88952 0.87126 0.11476 0.0
C553 C 0.86539 0.90364 0.09892 0.0
N554 N 0.89601 0.87955 0.14452 0.0
N555 N 0.86632 0.90509 0.1135 0.0
H556 H 0.40286 0.66374 0.414 0.0
H557 H 0.35569 0.60465 0.34246 0.0
H558 H 0.35584 0.60621 0.41568 0.0
H559 H 0.41459 0.64986 0.3449 0.0
H560 H 0.3527 0.60599 0.36879 0.0
H561 H 0.40404 0.66049 0.38817 0.0
C562 C 0.39268 0.65039 0.40893 0.0
C563 C 0.37927 0.63517 0.41707 0.0
C564 C 0.36629 0.61549 0.36349 0.0
C565 C 0.38063 0.63128 0.38719 0.0
C566 C 0.36801 0.61474 0.3485 0.0
C567 C 0.38538 0.62721 0.34144 0.0
C568 C 0.38192 0.62896 0.37137 0.0
C569 C 0.40088 0.64 0.3498 0.0
C570 C 0.39345 0.64849 0.39411 0.0
C571 C 0.36645 0.61826 0.40981 0.0
N572 N 0.39869 0.6406 0.36423 0.0
N573 N 0.36742 0.61676 0.39523 0.0
H574 H 0.66671 0.10367 0.66664 0.0
H575 H 0.62657 0.16879 0.59544 0.0
H576 H 0.613 0.15495 0.66438 0.0
H577 H 0.66597 0.10583 0.59338 0.0
H578 H 0.6259 0.16588 0.62129 0.0
H579 H 0.67042 0.10556 0.64035 0.0
C580 C 0.65571 0.11525 0.66065 0.0
C581 C 0.63951 0.12917 0.66773 0.0
C582 C 0.63472 0.15263 0.61526 0.0
C583 C 0.64384 0.13155 0.63787 0.0
C584 C 0.63519 0.15431 0.60043 0.0
C585 C 0.64622 0.13743 0.59217 0.0
C586 C 0.6454 0.13392 0.62207 0.0
C587 C 0.6572 0.11918 0.59934 0.0
C588 C 0.65783 0.11629 0.64569 0.0
C589 C 0.62571 0.14386 0.65945 0.0
N590 N 0.65647 0.11786 0.61393 0.0
N591 N 0.62827 0.1447 0.64505 0.0
H592 H 0.91632 0.37374 0.84453 0.0
H593 H 0.85422 0.41751 0.9159 0.0
H594 H 0.85591 0.41698 0.84262 0.0
H595 H 0.90192 0.36062 0.91347 0.0
H596 H 0.8559 0.42094 0.88959 0.0
H597 H 0.91321 0.37278 0.87037 0.0
C598 C 0.90236 0.38314 0.84955 0.0
C599 C 0.88627 0.39537 0.84134 0.0
C600 C 0.86588 0.4077 0.89489 0.0
C601 C 0.88253 0.39424 0.87122 0.0
C602 C 0.86495 0.40574 0.90987 0.0
C603 C 0.87797 0.38877 0.91691 0.0
C604 C 0.88013 0.39275 0.88703 0.0
C605 C 0.89158 0.37398 0.90857 0.0
C606 C 0.90056 0.3825 0.86437 0.0
C607 C 0.86865 0.40728 0.84854 0.0
N608 N 0.89235 0.3764 0.89416 0.0
N609 N 0.86721 0.4064 0.86312 0.0
H610 H 0.41262 0.15285 0.66416 0.0
H611 H 0.35502 0.10468 0.59244 0.0
H612 H 0.35619 0.1045 0.66569 0.0
H613 H 0.39828 0.165 0.59514 0.0
H614 H 0.35635 0.10153 0.61877 0.0
H615 H 0.40935 0.15417 0.63834 0.0
C616 C 0.39951 0.14241 0.65906 0.0
C617 C 0.3846 0.12858 0.66716 0.0
C618 C 0.36541 0.11547 0.61352 0.0
C619 C 0.38069 0.1301 0.63729 0.0
C620 C 0.36468 0.11728 0.59854 0.0
C621 C 0.37662 0.13509 0.59156 0.0
C622 C 0.37835 0.13147 0.62147 0.0
C623 C 0.38885 0.15094 0.59998 0.0
C624 C 0.3976 0.14325 0.64425 0.0
C625 C 0.368 0.11543 0.65985 0.0
N626 N 0.38946 0.14867 0.6144 0.0
N627 N 0.36648 0.11649 0.64528 0.0
H628 H 0.66819 0.60506 0.41631 0.0
H629 H 0.60757 0.65035 0.34479 0.0
H630 H 0.62127 0.6626 0.41385 0.0
H631 H 0.66666 0.60532 0.34307 0.0
H632 H 0.61063 0.6514 0.37063 0.0
H633 H 0.66674 0.60185 0.38998 0.0
C634 C 0.65769 0.61703 0.41027 0.0
C635 C 0.6448 0.6341 0.41731 0.0
C636 C 0.62301 0.64127 0.36468 0.0
C637 C 0.64292 0.63038 0.3874 0.0
C638 C 0.62123 0.64058 0.34985 0.0
C639 C 0.63695 0.62779 0.34169 0.0
C640 C 0.64063 0.62901 0.37158 0.0
C641 C 0.65421 0.61544 0.34895 0.0
C642 C 0.65689 0.61518 0.39528 0.0
C643 C 0.63149 0.64914 0.40896 0.0
N644 N 0.65561 0.61636 0.36353 0.0
N645 N 0.63085 0.64685 0.39454 0.0
H646 H 0.10932 0.86881 0.16422 0.0
H647 H 0.16734 0.91683 0.09257 0.0
H648 H 0.16618 0.91665 0.16578 0.0
H649 H 0.12287 0.85739 0.09507 0.0
H650 H 0.16611 0.91977 0.11891 0.0
H651 H 0.11245 0.86765 0.13838 0.0
C652 C 0.1225 0.87917 0.15912 0.0
C653 C 0.13756 0.89281 0.16723 0.0
C654 C 0.15675 0.90608 0.11362 0.0
C655 C 0.1413 0.89148 0.13735 0.0
C656 C 0.15743 0.90439 0.09863 0.0
C657 C 0.14514 0.88687 0.09159 0.0
C658 C 0.14352 0.89026 0.12152 0.0
C659 C 0.13259 0.87121 0.09995 0.0
C660 C 0.12433 0.87842 0.1443 0.0
C661 C 0.15425 0.90586 0.15993 0.0
N662 N 0.13205 0.87336 0.11439 0.0
N663 N 0.15568 0.9049 0.14535 0.0
H664 H 0.89842 0.66703 0.09504 0.0
H665 H 0.85565 0.60437 0.16647 0.0
H666 H 0.85596 0.60606 0.0932 0.0
H667 H 0.91179 0.65296 0.164 0.0
H668 H 0.85213 0.60602 0.14016 0.0
H669 H 0.89946 0.66398 0.12089 0.0
C670 C 0.88921 0.65296 0.10008 0.0
C671 C 0.87717 0.63669 0.09188 0.0
C672 C 0.86522 0.6162 0.14545 0.0
C673 C 0.8784 0.63303 0.12177 0.0
C674 C 0.86724 0.61529 0.16043 0.0
C675 C 0.88402 0.62857 0.16746 0.0
C676 C 0.87994 0.63068 0.13758 0.0
C677 C 0.89858 0.64241 0.15912 0.0
C678 C 0.8899 0.6512 0.1149 0.0
C679 C 0.86551 0.61893 0.09911 0.0
N680 N 0.89612 0.64315 0.14471 0.0
N681 N 0.86642 0.61754 0.11369 0.0
H682 H 0.10665 0.1508 0.84469 0.0
H683 H 0.16761 0.10562 0.91613 0.0
H684 H 0.166 0.1061 0.84291 0.0
H685 H 0.12038 0.16291 0.91378 0.0
H686 H 0.16612 0.10249 0.88981 0.0
H687 H 0.10974 0.15181 0.87053 0.0
C688 C 0.12038 0.1411 0.84974 0.0
C689 C 0.13616 0.12841 0.84156 0.0
C690 C 0.1562 0.11575 0.89513 0.0
C691 C 0.13986 0.12958 0.87145 0.0
C692 C 0.15702 0.11755 0.91011 0.0
C693 C 0.14407 0.13453 0.91719 0.0
C694 C 0.14215 0.1309 0.88728 0.0
C695 C 0.13065 0.14953 0.90887 0.0
C696 C 0.12217 0.14176 0.86456 0.0
C697 C 0.1535 0.11615 0.8488 0.0
N698 N 0.13 0.14728 0.89444 0.0
N699 N 0.15491 0.11704 0.86339 0.0
H700 H 0.66668 0.41716 0.5922 0.0
H701 H 0.60943 0.36817 0.66385 0.0
H702 H 0.62281 0.35726 0.59466 0.0
H703 H 0.66548 0.41696 0.6654 0.0
H704 H 0.61254 0.36709 0.63802 0.0
H705 H 0.66547 0.42001 0.61854 0.0
C706 C 0.6569 0.4046 0.59825 0.0
C707 C 0.64477 0.38699 0.5912 0.0
C708 C 0.62424 0.37806 0.64393 0.0
C709 C 0.64319 0.39026 0.62114 0.0
C710 C 0.62243 0.37876 0.65875 0.0
C711 C 0.63727 0.39265 0.66686 0.0
C712 C 0.64099 0.39142 0.63697 0.0
C713 C 0.65373 0.40598 0.65955 0.0
C714 C 0.65624 0.40624 0.61324 0.0
C715 C 0.63239 0.37118 0.59956 0.0
N716 N 0.65515 0.40506 0.64497 0.0
N717 N 0.63187 0.37327 0.61399 0.0
H718 H 0.35529 0.91742 0.34269 0.0
H719 H 0.40261 0.85852 0.41428 0.0
H720 H 0.41356 0.87141 0.34506 0.0
H721 H 0.35558 0.91604 0.41587 0.0
H722 H 0.40361 0.86151 0.38844 0.0
H723 H 0.3524 0.91618 0.36903 0.0
C724 C 0.36748 0.90716 0.34872 0.0
C725 C 0.38466 0.89446 0.34164 0.0
C726 C 0.39305 0.87356 0.39436 0.0
C727 C 0.38134 0.89285 0.37158 0.0
C728 C 0.3924 0.87182 0.40919 0.0
C729 C 0.37903 0.8871 0.41731 0.0
C730 C 0.38018 0.89069 0.38741 0.0
C731 C 0.36616 0.90393 0.41002 0.0
C732 C 0.36582 0.90648 0.36371 0.0
C733 C 0.4 0.88146 0.34998 0.0
N734 N 0.36703 0.90529 0.39543 0.0
N735 N 0.3979 0.88095 0.36441 0.0
H736 H 0.06935 0.62951 0.00821 0.0
H737 H 0.9543 0.6287 0.05536 0.0
H738 H 0.06761 0.62909 0.05445 0.0
H739 H 0.95344 0.63022 0.00912 0.0
H740 H 0.99605 0.62689 0.05483 0.0
H741 H 0.02715 0.62788 0.00794 0.0
C742 C 0.06014 0.62898 0.01829 0.0
C743 C 0.07207 0.62955 0.03137 0.0
C744 C 0.9868 0.62756 0.04477 0.0
C745 C 0.02391 0.62771 0.03112 0.0
C746 C 0.96288 0.6286 0.04506 0.0
C747 C 0.95029 0.62974 0.03226 0.0
C748 C 0.9984 0.62772 0.03159 0.0
C749 C 0.96246 0.62942 0.01926 0.0
C750 C 0.03608 0.62807 0.01812 0.0
C751 C 0.05923 0.62879 0.04409 0.0
N752 N 0.98588 0.62854 0.01925 0.0
N753 N 0.03592 0.62797 0.04364 0.0
H754 H 0.64779 0.70403 0.30489 0.0
H755 H 0.64255 0.81946 0.25823 0.0
H756 H 0.64192 0.70352 0.25879 0.0
H757 H 0.6465 0.81726 0.3044 0.0
H758 H 0.6447 0.77728 0.25774 0.0
H759 H 0.64985 0.74576 0.30441 0.0
C760 C 0.64699 0.71269 0.29463 0.0
C761 C 0.64451 0.7002 0.28186 0.0
C762 C 0.64519 0.7861 0.26795 0.0
C763 C 0.6468 0.7483 0.28125 0.0
C764 C 0.64399 0.81015 0.26824 0.0
C765 C 0.64419 0.82193 0.28138 0.0
C766 C 0.64666 0.77381 0.28088 0.0
C767 C 0.64612 0.80898 0.29401 0.0
C768 C 0.64818 0.73659 0.29437 0.0
C769 C 0.64376 0.71246 0.2689 0.0
N770 N 0.6472 0.78569 0.29343 0.0
N771 N 0.64476 0.73588 0.26892 0.0
H772 H 0.45393 0.39382 0.55496 0.0
H773 H 0.56919 0.39255 0.50801 0.0
H774 H 0.45328 0.392 0.50872 0.0
H775 H 0.56726 0.39322 0.55424 0.0
H776 H 0.52699 0.39427 0.50767 0.0
H777 H 0.49568 0.39561 0.5545 0.0
C778 C 0.46256 0.39385 0.54468 0.0
C779 C 0.45002 0.39263 0.53185 0.0
C780 C 0.53587 0.39412 0.51786 0.0
C781 C 0.49814 0.39462 0.53126 0.0
C782 C 0.55994 0.39316 0.51807 0.0
C783 C 0.57181 0.39262 0.53118 0.0
C784 C 0.52366 0.39457 0.53084 0.0
C785 C 0.55892 0.39347 0.54387 0.0
C786 C 0.48648 0.39488 0.54443 0.0
C787 C 0.46225 0.39287 0.51887 0.0
N788 N 0.53561 0.39434 0.54338 0.0
N789 N 0.48568 0.39373 0.5189 0.0
H790 H 0.87687 0.31827 0.80487 0.0
H791 H 0.87925 0.20295 0.75799 0.0
H792 H 0.87992 0.31889 0.75866 0.0
H793 H 0.87759 0.205 0.80421 0.0
H794 H 0.87739 0.24515 0.75759 0.0
H795 H 0.87493 0.27653 0.8044 0.0
C796 C 0.87708 0.30964 0.79459 0.0
C797 C 0.8787 0.32216 0.78178 0.0
C798 C 0.87735 0.23629 0.7678 0.0
C799 C 0.87654 0.27405 0.78117 0.0
C800 C 0.87839 0.21223 0.76803 0.0
C801 C 0.87871 0.2004 0.78115 0.0
C802 C 0.87659 0.24854 0.78076 0.0
C803 C 0.87752 0.21332 0.79383 0.0
C804 C 0.87596 0.28572 0.79433 0.0
C805 C 0.87874 0.30992 0.7688 0.0
N806 N 0.87658 0.23661 0.79331 0.0
N807 N 0.8778 0.2865 0.76882 0.0
H808 H 0.95427 0.39756 0.95379 0.0
H809 H 0.06948 0.39183 1.00064 0.0
H810 H 0.95351 0.39156 0.99988 0.0
H811 H 0.06748 0.39614 0.95449 0.0
H812 H 0.0273 0.39395 1.00107 0.0
H813 H 0.996 0.39942 0.95435 0.0
C814 C 0.96287 0.39668 0.96406 0.0
C815 C 0.95032 0.39424 0.97681 0.0
C816 C 0.03616 0.39452 0.99088 0.0
C817 C 0.99842 0.3963 0.97751 0.0
C818 C 0.06022 0.39333 0.99062 0.0
C819 C 0.07206 0.39366 0.9775 0.0
C820 C 0.02393 0.3961 0.97793 0.0
C821 C 0.05916 0.39567 0.96486 0.0
C822 C 0.98678 0.39776 0.96437 0.0
C823 C 0.96251 0.39337 0.98979 0.0
N824 N 0.03587 0.39674 0.9654 0.0
N825 N 0.98593 0.39428 0.98981 0.0
H826 H 0.87429 0.81803 0.20417 0.0
H827 H 0.88034 0.70283 0.251 0.0
H828 H 0.88082 0.8188 0.25023 0.0
H829 H 0.8755 0.70484 0.20487 0.0
H830 H 0.87817 0.74502 0.25145 0.0
H831 H 0.87223 0.77631 0.20475 0.0
C832 C 0.87524 0.80943 0.21444 0.0
C833 C 0.8779 0.82198 0.22717 0.0
C834 C 0.87749 0.73615 0.24126 0.0
C835 C 0.87561 0.7739 0.2279 0.0
C836 C 0.8787 0.71209 0.24099 0.0
C837 C 0.87825 0.70026 0.22787 0.0
C838 C 0.87577 0.74838 0.22832 0.0
C839 C 0.87607 0.71316 0.21524 0.0
C840 C 0.87404 0.78552 0.21476 0.0
C841 C 0.87883 0.8098 0.24015 0.0
N842 N 0.87499 0.73645 0.21579 0.0
N843 N 0.87783 0.78638 0.24019 0.0
H844 H 0.45297 0.63006 0.50081 0.0
H845 H 0.56835 0.62406 0.45415 0.0
H846 H 0.45515 0.62512 0.45468 0.0
H847 H 0.56892 0.63087 0.5002 0.0
H848 H 0.52663 0.6219 0.45467 0.0
H849 H 0.49516 0.62796 0.50132 0.0
C850 C 0.46227 0.62841 0.49081 0.0
C851 C 0.45049 0.62792 0.47768 0.0
C852 C 0.53581 0.6238 0.4647 0.0
C853 C 0.49861 0.62551 0.47819 0.0
C854 C 0.55971 0.62505 0.46441 0.0
C855 C 0.57221 0.62782 0.47715 0.0
C856 C 0.52412 0.62541 0.47781 0.0
C857 C 0.55997 0.62881 0.49011 0.0
C858 C 0.48633 0.62723 0.49111 0.0
C859 C 0.46343 0.62573 0.46506 0.0
N860 N 0.53655 0.62774 0.49011 0.0
N861 N 0.48672 0.62468 0.46565 0.0
H862 H 0.64108 0.20262 0.75146 0.0
H863 H 0.65044 0.31747 0.70452 0.0
H864 H 0.64915 0.20435 0.70549 0.0
H865 H 0.64069 0.3186 0.75036 0.0
H866 H 0.65272 0.27577 0.7053 0.0
H867 H 0.64347 0.2448 0.75188 0.0
C868 C 0.64348 0.21182 0.74148 0.0
C869 C 0.64475 0.19992 0.72841 0.0
C870 C 0.65016 0.28506 0.71522 0.0
C871 C 0.6475 0.24802 0.72883 0.0
C872 C 0.64884 0.30895 0.71478 0.0
C873 C 0.64518 0.32159 0.72738 0.0
C874 C 0.6477 0.27353 0.72834 0.0
C875 C 0.64345 0.30952 0.74037 0.0
C876 C 0.64483 0.23587 0.74173 0.0
C877 C 0.64791 0.21273 0.71582 0.0
N878 N 0.64457 0.28611 0.74052 0.0
N879 N 0.64909 0.23601 0.71636 0.0
H880 H 0.38048 0.31916 0.75091 0.0
H881 H 0.37154 0.20373 0.70449 0.0
H882 H 0.37277 0.31687 0.70493 0.0
H883 H 0.38099 0.20319 0.75036 0.0
H884 H 0.36922 0.24543 0.70506 0.0
H885 H 0.37811 0.27699 0.75152 0.0
C886 C 0.37816 0.30984 0.74097 0.0
C887 C 0.37699 0.32158 0.72784 0.0
C888 C 0.37173 0.23627 0.71504 0.0
C889 C 0.37427 0.27348 0.72847 0.0
C890 C 0.37307 0.21238 0.71472 0.0
C891 C 0.37665 0.1999 0.72739 0.0
C892 C 0.37409 0.24797 0.72811 0.0
C893 C 0.3783 0.21214 0.74032 0.0
C894 C 0.37683 0.28579 0.74133 0.0
C895 C 0.37394 0.30862 0.71531 0.0
N896 N 0.37715 0.23555 0.74035 0.0
N897 N 0.37277 0.28534 0.71594 0.0
H898 H 0.14905 0.70415 0.20416 0.0
H899 H 0.14188 0.81927 0.25102 0.0
H900 H 0.14127 0.70329 0.25015 0.0
H901 H 0.14794 0.81732 0.20494 0.0
H902 H 0.14406 0.77708 0.25146 0.0
H903 H 0.15122 0.74586 0.2048 0.0
C904 C 0.14785 0.71273 0.21443 0.0
C905 C 0.1448 0.70015 0.22712 0.0
C906 C 0.14501 0.78596 0.24128 0.0
C907 C 0.14721 0.74823 0.22792 0.0
C908 C 0.1438 0.81002 0.24102 0.0
C909 C 0.14457 0.82187 0.22792 0.0
C910 C 0.14707 0.77375 0.22836 0.0
C911 C 0.1471 0.80899 0.2153 0.0
C912 C 0.14911 0.73663 0.21479 0.0
C913 C 0.14355 0.71231 0.2401 0.0
N914 N 0.14818 0.7857 0.21585 0.0
N915 N 0.14463 0.73572 0.24017 0.0
H916 H 0.14212 0.20292 0.75806 0.0
H917 H 0.14523 0.31828 0.80489 0.0
H918 H 0.1442 0.20499 0.80427 0.0
H919 H 0.14172 0.31885 0.75869 0.0
H920 H 0.14702 0.27653 0.80443 0.0
H921 H 0.14404 0.24511 0.75764 0.0
C922 C 0.14309 0.2122 0.7681 0.0
C923 C 0.14287 0.20037 0.78122 0.0
C924 C 0.14592 0.28571 0.79436 0.0
C925 C 0.14506 0.24851 0.78081 0.0
C926 C 0.14488 0.30963 0.79461 0.0
C927 C 0.14318 0.32214 0.7818 0.0
C928 C 0.14517 0.27403 0.78121 0.0
C929 C 0.14296 0.30989 0.76883 0.0
C930 C 0.14416 0.23626 0.76785 0.0
C931 C 0.14418 0.2133 0.79389 0.0
N932 N 0.14383 0.28647 0.76886 0.0
N933 N 0.14515 0.23659 0.79336 0.0
H934 H 0.37568 0.70429 0.30491 0.0
H935 H 0.38011 0.81965 0.25815 0.0
H936 H 0.38056 0.70373 0.25877 0.0
H937 H 0.3765 0.81757 0.30433 0.0
H938 H 0.37809 0.77746 0.2577 0.0
H939 H 0.37367 0.74603 0.30444 0.0
C940 C 0.37628 0.71294 0.29465 0.0
C941 C 0.37845 0.70044 0.28186 0.0
C942 C 0.37765 0.78631 0.26791 0.0
C943 C 0.37622 0.74854 0.28124 0.0
C944 C 0.37878 0.81037 0.26817 0.0
C945 C 0.37861 0.82219 0.2813 0.0
C946 C 0.37632 0.77405 0.28085 0.0
C947 C 0.37684 0.80926 0.29395 0.0
C948 C 0.37511 0.73685 0.29438 0.0
C949 C 0.37896 0.71268 0.26889 0.0
N950 N 0.37583 0.78597 0.2934 0.0
N951 N 0.37798 0.7361 0.26891 0.0
H952 H 0.45291 0.12902 0.50874 0.0
H953 H 0.56787 0.12979 0.556 0.0
H954 H 0.4545 0.13009 0.55498 0.0
H955 H 0.56877 0.12953 0.50975 0.0
H956 H 0.52611 0.12809 0.55548 0.0
H957 H 0.4951 0.12745 0.50855 0.0
C958 C 0.46208 0.12884 0.51884 0.0
C959 C 0.45012 0.1298 0.5319 0.0
C960 C 0.53537 0.12834 0.54541 0.0
C961 C 0.49828 0.12802 0.53173 0.0
C962 C 0.5593 0.12932 0.5457 0.0
C963 C 0.57191 0.12992 0.53289 0.0
C964 C 0.52379 0.12802 0.53222 0.0
C965 C 0.55975 0.12915 0.51989 0.0
C966 C 0.48615 0.12795 0.51871 0.0
C967 C 0.46292 0.12948 0.54464 0.0
N968 N 0.53633 0.12833 0.51988 0.0
N969 N 0.48623 0.12867 0.54422 0.0
H970 H 0.95431 0.8939 0.05539 0.0
H971 H 0.06955 0.89261 0.00842 0.0
H972 H 0.95364 0.89246 0.00915 0.0
H973 H 0.06764 0.89301 0.05466 0.0
H974 H 0.02736 0.89442 0.00809 0.0
H975 H 0.99607 0.89554 0.05494 0.0
C976 C 0.96294 0.89398 0.04511 0.0
C977 C 0.9504 0.89291 0.03228 0.0
C978 C 0.03624 0.89419 0.01829 0.0
C979 C 0.99852 0.89473 0.03169 0.0
C980 C 0.0603 0.89317 0.01849 0.0
C981 C 0.07218 0.89254 0.03159 0.0
C982 C 0.02403 0.89461 0.03127 0.0
C983 C 0.05929 0.89334 0.04429 0.0
C984 C 0.98686 0.89492 0.04486 0.0
C985 C 0.96262 0.89321 0.0193 0.0
N986 N 0.03599 0.89427 0.0438 0.0
N987 N 0.98605 0.89398 0.01933 0.0
H988 H 0.45267 0.89165 0.50113 0.0
H989 H 0.56796 0.89853 0.45443 0.0
H990 H 0.45476 0.89747 0.45505 0.0
H991 H 0.56862 0.89131 0.50046 0.0
H992 H 0.52623 0.90066 0.45499 0.0
H993 H 0.49486 0.89388 0.50163 0.0
C994 C 0.46195 0.89352 0.49114 0.0
C995 C 0.45014 0.89422 0.47802 0.0
C996 C 0.53543 0.89868 0.465 0.0
C997 C 0.49826 0.89677 0.47852 0.0
C998 C 0.55933 0.89745 0.46469 0.0
C999 C 0.57186 0.89456 0.47741 0.0
C1000 C 0.52377 0.89692 0.47812 0.0
C1001 C 0.55965 0.89346 0.49038 0.0
C1002 C 0.48601 0.89476 0.49144 0.0
C1003 C 0.46306 0.89669 0.46542 0.0
N1004 N 0.53623 0.8945 0.49041 0.0
N1005 N 0.48635 0.8978 0.46599 0.0
H1006 H 0.0694 0.12999 1.00062 0.0
H1007 H 0.95419 0.12544 0.95371 0.0
H1008 H 0.06743 0.1262 0.95445 0.0
H1009 H 0.95346 0.1308 0.99983 0.0
H1010 H 0.99592 0.12334 0.95426 0.0
H1011 H 0.02721 0.12804 1.00102 0.0
C1012 C 0.06014 0.12863 0.99059 0.0
C1013 C 0.07199 0.1284 0.97747 0.0
C1014 C 0.98671 0.12491 0.9643 0.0
C1015 C 0.02386 0.12617 0.97787 0.0
C1016 C 0.9628 0.12612 0.96399 0.0
C1017 C 0.95026 0.12846 0.97675 0.0
C1018 C 0.99834 0.12612 0.97745 0.0
C1019 C 0.96245 0.12908 0.98973 0.0
C1020 C 0.03608 0.12754 0.99083 0.0
C1021 C 0.0591 0.12659 0.96482 0.0
N1022 N 0.98587 0.12804 0.98975 0.0
N1023 N 0.0358 0.12562 0.96534 0.0
H1024 H 0.16661 0.44687 0.01964 0.0
H1025 H 0.16584 0.57513 0.9886 0.0
H1026 H 0.16806 0.46267 0.97451 0.0
H1027 H 0.16845 0.55937 0.03372 0.0
H1028 H 0.17034 0.5342 0.98323 0.0
H1029 H 0.17099 0.48783 0.02498 0.0
C1030 C 0.16819 0.4589 0.01083 0.0
C1031 C 0.16686 0.45125 0.99659 0.0
C1032 C 0.17021 0.53969 0.99431 0.0
C1033 C 0.1716 0.49839 1.00266 0.0
C1034 C 0.16769 0.56311 0.9974 0.0
C1035 C 0.16666 0.57076 0.01165 0.0
C1036 C 0.17155 0.52365 0.00555 0.0
C1037 C 0.16913 0.55431 0.02257 0.0
C1038 C 0.17063 0.48234 0.0139 0.0
C1039 C 0.16898 0.46772 0.98565 0.0
N1040 N 0.17123 0.53156 0.0193 0.0
N1041 N 0.17101 0.49049 0.98891 0.0
H1042 H 0.81004 0.91912 0.2242 0.0
H1043 H 0.71261 0.91893 0.28502 0.0
H1044 H 0.82456 0.91567 0.26946 0.0
H1045 H 0.69808 0.91607 0.23974 0.0
H1046 H 0.75357 0.92341 0.27953 0.0
H1047 H 0.76909 0.92368 0.22971 0.0
C1048 C 0.80469 0.91969 0.2353 0.0
C1049 C 0.82082 0.91688 0.24637 0.0
C1050 C 0.7414 0.92206 0.27079 0.0
C1051 C 0.77382 0.92188 0.25277 0.0
C1052 C 0.71796 0.91961 0.27392 0.0
C1053 C 0.70182 0.917 0.26283 0.0
C1054 C 0.74884 0.9219 0.25646 0.0
C1055 C 0.70986 0.91794 0.24865 0.0
C1056 C 0.78126 0.92218 0.23844 0.0
C1057 C 0.81279 0.91768 0.26056 0.0
N1058 N 0.73277 0.92013 0.24588 0.0
N1059 N 0.78989 0.91992 0.26334 0.0
H1060 H 0.35275 0.46187 0.53418 0.0
H1061 H 0.3539 0.55967 0.47358 0.0
H1062 H 0.35739 0.44764 0.48892 0.0
H1063 H 0.35592 0.57393 0.51891 0.0
H1064 H 0.34947 0.51866 0.47895 0.0
H1065 H 0.34821 0.50283 0.52872 0.0
C1066 C 0.35246 0.46728 0.52308 0.0
C1067 C 0.35558 0.45123 0.512 0.0
C1068 C 0.35062 0.53078 0.48772 0.0
C1069 C 0.35059 0.49825 0.50567 0.0
C1070 C 0.35304 0.55425 0.48467 0.0
C1071 C 0.35541 0.57033 0.4958 0.0
C1072 C 0.35055 0.52326 0.50203 0.0
C1073 C 0.35425 0.5622 0.50996 0.0
C1074 C 0.34997 0.49072 0.51997 0.0
C1075 C 0.35512 0.45935 0.49782 0.0
N1076 N 0.35209 0.53927 0.51266 0.0
N1077 N 0.35287 0.48226 0.49508 0.0
H1078 H 0.80982 0.10288 0.78464 0.0
H1079 H 0.71191 0.10327 0.72412 0.0
H1080 H 0.82395 0.10662 0.73934 0.0
H1081 H 0.69771 0.10526 0.76946 0.0
H1082 H 0.75293 0.0989 0.72947 0.0
H1083 H 0.76885 0.09817 0.77925 0.0
C1084 C 0.80439 0.10235 0.77355 0.0
C1085 C 0.82041 0.10528 0.76244 0.0
C1086 C 0.74082 0.10003 0.73825 0.0
C1087 C 0.77338 0.1001 0.75617 0.0
C1088 C 0.71734 0.10242 0.73521 0.0
C1089 C 0.70128 0.10477 0.74635 0.0
C1090 C 0.74837 0.09999 0.75256 0.0
C1091 C 0.70943 0.10361 0.76051 0.0
C1092 C 0.78094 0.09976 0.77048 0.0
C1093 C 0.81226 0.10451 0.74827 0.0
N1094 N 0.73237 0.10149 0.76319 0.0
N1095 N 0.78935 0.10219 0.74556 0.0
H1096 H 0.85343 0.56021 0.03465 0.0
H1097 H 0.85388 0.46273 0.97382 0.0
H1098 H 0.85746 0.57469 0.98941 0.0
H1099 H 0.85673 0.44821 0.0191 0.0
H1100 H 0.8495 0.50371 0.97931 0.0
H1101 H 0.84896 0.51925 0.02912 0.0
C1102 C 0.85302 0.55485 0.02354 0.0
C1103 C 0.85595 0.57097 0.01249 0.0
C1104 C 0.85083 0.49153 0.98805 0.0
C1105 C 0.85104 0.52397 0.00607 0.0
C1106 C 0.85322 0.46809 0.98493 0.0
C1107 C 0.8558 0.45195 0.99601 0.0
C1108 C 0.851 0.49898 1.00238 0.0
C1109 C 0.85489 0.45999 0.0102 0.0
C1110 C 0.85057 0.53142 0.0204 0.0
C1111 C 0.85535 0.56293 0.99829 0.0
N1112 N 0.85275 0.4829 0.01296 0.0
N1113 N 0.85314 0.54002 0.99551 0.0
H1114 H 0.19662 0.10601 0.73883 0.0
H1115 H 0.32486 0.10553 0.76992 0.0
H1116 H 0.21237 0.10389 0.78396 0.0
H1117 H 0.30909 0.10373 0.72478 0.0
H1118 H 0.2839 0.10114 0.77525 0.0
H1119 H 0.23755 0.10141 0.73349 0.0
C1120 C 0.20864 0.10425 0.74763 0.0
C1121 C 0.20098 0.10545 0.76188 0.0
C1122 C 0.2894 0.10142 0.76418 0.0
C1123 C 0.24809 0.10044 0.75581 0.0
C1124 C 0.31283 0.10387 0.76111 0.0
C1125 C 0.32049 0.10512 0.74686 0.0
C1126 C 0.27335 0.10036 0.75293 0.0
C1127 C 0.30403 0.10288 0.73592 0.0
C1128 C 0.23206 0.10167 0.74456 0.0
C1129 C 0.21743 0.10307 0.77282 0.0
N1130 N 0.28126 0.10085 0.73918 0.0
N1131 N 0.24018 0.10092 0.76956 0.0
H1132 H 0.66873 0.46214 0.53456 0.0
H1133 H 0.66893 0.56008 0.47405 0.0
H1134 H 0.66543 0.44801 0.48925 0.0
H1135 H 0.66575 0.57425 0.51936 0.0
H1136 H 0.67332 0.51907 0.47942 0.0
H1137 H 0.67329 0.50313 0.52919 0.0
C1138 C 0.66932 0.46758 0.52347 0.0
C1139 C 0.66657 0.45155 0.51235 0.0
C1140 C 0.67192 0.53117 0.4882 0.0
C1141 C 0.67158 0.4986 0.50611 0.0
C1142 C 0.66952 0.55464 0.48514 0.0
C1143 C 0.66684 0.57069 0.49626 0.0
C1144 C 0.67165 0.52362 0.5025 0.0
C1145 C 0.66766 0.56254 0.51042 0.0
C1146 C 0.67182 0.49104 0.52041 0.0
C1147 C 0.6674 0.45971 0.49818 0.0
N1148 N 0.66981 0.53961 0.51312 0.0
N1149 N 0.66965 0.48263 0.49549 0.0
H1150 H 0.21247 0.91881 0.22411 0.0
H1151 H 0.31008 0.91917 0.28483 0.0
H1152 H 0.19806 0.91612 0.2694 0.0
H1153 H 0.32448 0.91599 0.23955 0.0
H1154 H 0.26911 0.92361 0.27937 0.0
H1155 H 0.25344 0.92333 0.22956 0.0
C1156 C 0.21784 0.91953 0.23521 0.0
C1157 C 0.20174 0.91696 0.24631 0.0
C1158 C 0.28125 0.9222 0.27062 0.0
C1159 C 0.24877 0.92191 0.25263 0.0
C1160 C 0.3047 0.91977 0.27373 0.0
C1161 C 0.32081 0.91708 0.26264 0.0
C1162 C 0.27377 0.92194 0.2563 0.0
C1163 C 0.31273 0.91792 0.24846 0.0
C1164 C 0.24129 0.92201 0.23831 0.0
C1165 C 0.20981 0.91795 0.26049 0.0
N1166 N 0.28981 0.92009 0.24571 0.0
N1167 N 0.23273 0.92017 0.26323 0.0
H1168 H 0.66897 0.06004 0.53514 0.0
H1169 H 0.66848 0.96243 0.47439 0.0
H1170 H 0.6646 0.07439 0.48989 0.0
H1171 H 0.66558 0.948 0.51968 0.0
H1172 H 0.67286 1.00342 0.47985 0.0
H1173 H 0.67351 0.01908 0.52964 0.0
C1174 C 0.66933 0.05465 0.52403 0.0
C1175 C 0.66628 0.07073 0.51297 0.0
C1176 C 0.67153 0.99126 0.4886 0.0
C1177 C 0.67127 0.02373 0.50659 0.0
C1178 C 0.66913 0.96781 0.48549 0.0
C1179 C 0.66653 0.95169 0.49658 0.0
C1180 C 0.67134 0.99873 0.50292 0.0
C1181 C 0.66743 0.95977 0.51076 0.0
C1182 C 0.67182 0.03121 0.52091 0.0
C1183 C 0.66681 0.06265 0.49878 0.0
N1184 N 0.66958 0.98268 0.51351 0.0
N1185 N 0.66906 0.03975 0.49602 0.0
H1186 H 0.19672 0.41539 0.73837 0.0
H1187 H 0.32505 0.41711 0.76931 0.0
H1188 H 0.2126 0.41877 0.78345 0.0
H1189 H 0.30915 0.4175 0.72417 0.0
H1190 H 0.2841 0.42154 0.77463 0.0
H1191 H 0.23763 0.41994 0.73293 0.0
C1192 C 0.20876 0.41742 0.74714 0.0
C1193 C 0.20115 0.41658 0.76141 0.0
C1194 C 0.28956 0.42094 0.76356 0.0
C1195 C 0.24823 0.42154 0.75523 0.0
C1196 C 0.313 0.41847 0.76049 0.0
C1197 C 0.32062 0.41682 0.74625 0.0
C1198 C 0.27349 0.42162 0.75232 0.0
C1199 C 0.30412 0.41868 0.73531 0.0
C1200 C 0.23217 0.41997 0.74401 0.0
C1201 C 0.21762 0.4193 0.7723 0.0
N1202 N 0.28136 0.42073 0.73857 0.0
N1203 N 0.24036 0.42142 0.76899 0.0
H1204 H 0.85718 0.94721 0.98875 0.0
H1205 H 0.85626 0.07554 0.01967 0.0
H1206 H 0.85409 0.96306 0.03385 0.0
H1207 H 0.85439 0.05965 0.97455 0.0
H1208 H 0.85194 0.03458 0.02505 0.0
H1209 H 0.85266 0.98813 0.98334 0.0
C1210 C 0.85522 0.95924 0.99753 0.0
C1211 C 0.85612 0.95162 0.0118 0.0
C1212 C 0.85219 0.04005 0.01396 0.0
C1213 C 0.85121 0.99872 0.00564 0.0
C1214 C 0.8546 0.06348 0.01087 0.0
C1215 C 0.85579 0.07111 0.99662 0.0
C1216 C 0.85113 0.02398 1.00273 0.0
C1217 C 0.85357 0.05462 0.98569 0.0
C1218 C 0.85269 0.98266 0.99442 0.0
C1219 C 0.85351 0.96809 0.0227 0.0
N1220 N 0.85159 0.03185 0.98898 0.0
N1221 N 0.85142 0.99084 0.0194 0.0
H1222 H 0.32546 0.60668 0.23864 0.0
H1223 H 0.19719 0.60573 0.26964 0.0
H1224 H 0.30968 0.60387 0.28375 0.0
H1225 H 0.21301 0.60422 0.22451 0.0
H1226 H 0.23815 0.60134 0.27499 0.0
H1227 H 0.28454 0.60209 0.23325 0.0
C1228 C 0.31344 0.60477 0.24743 0.0
C1229 C 0.32108 0.60577 0.26168 0.0
C1230 C 0.23267 0.60169 0.26391 0.0
C1231 C 0.27399 0.60078 0.25556 0.0
C1232 C 0.20923 0.60414 0.26083 0.0
C1233 C 0.20159 0.60546 0.24659 0.0
C1234 C 0.24872 0.6007 0.25267 0.0
C1235 C 0.21806 0.60331 0.23565 0.0
C1236 C 0.29002 0.60219 0.24433 0.0
C1237 C 0.30463 0.60321 0.2726 0.0
N1238 N 0.24083 0.60128 0.23892 0.0
N1239 N 0.28188 0.60107 0.26931 0.0
H1240 H 0.35293 0.05984 0.5347 0.0
H1241 H 0.35358 0.96211 0.47405 0.0
H1242 H 0.35707 0.07411 0.48943 0.0
H1243 H 0.35577 0.94777 0.51936 0.0
H1244 H 0.34922 1.00311 0.47945 0.0
H1245 H 0.34835 0.01887 0.52924 0.0
C1246 C 0.35252 0.05443 0.5236 0.0
C1247 C 0.35551 0.0705 0.51252 0.0
C1248 C 0.3504 0.99097 0.48822 0.0
C1249 C 0.35048 0.02348 0.50618 0.0
C1250 C 0.35278 0.96751 0.48514 0.0
C1251 C 0.35517 0.95141 0.49626 0.0
C1252 C 0.3504 0.99848 0.50253 0.0
C1253 C 0.35408 0.95952 0.51043 0.0
C1254 C 0.35001 0.03099 0.52049 0.0
C1255 C 0.35491 0.06239 0.49834 0.0
N1256 N 0.35196 0.98244 0.51314 0.0
N1257 N 0.35264 0.03949 0.49559 0.0
H1258 H 0.71241 0.60295 0.28457 0.0
H1259 H 0.81012 0.6035 0.22393 0.0
H1260 H 0.6981 0.60689 0.2393 0.0
H1261 H 0.82444 0.60585 0.26924 0.0
H1262 H 0.76912 0.59907 0.22933 0.0
H1263 H 0.75336 0.59834 0.27911 0.0
C1264 C 0.7178 0.60248 0.27347 0.0
C1265 C 0.70173 0.60544 0.26238 0.0
C1266 C 0.78126 0.60029 0.23809 0.0
C1267 C 0.74875 0.60038 0.25605 0.0
C1268 C 0.80472 0.60272 0.23502 0.0
C1269 C 0.82081 0.60518 0.24614 0.0
C1270 C 0.77375 0.60032 0.25241 0.0
C1271 C 0.8127 0.60411 0.26031 0.0
C1272 C 0.74124 0.59996 0.27036 0.0
C1273 C 0.70983 0.60476 0.24821 0.0
N1274 N 0.78977 0.60195 0.26302 0.0
N1275 N 0.73274 0.60248 0.24546 0.0
H1276 H 0.16597 0.94676 0.98883 0.0
H1277 H 0.16645 0.0751 0.01976 0.0
H1278 H 0.16846 0.96265 0.03394 0.0
H1279 H 0.16812 0.05921 0.97464 0.0
H1280 H 0.17086 0.03416 0.02514 0.0
H1281 H 0.17042 0.98769 0.98343 0.0
C1282 C 0.16778 0.95881 0.99762 0.0
C1283 C 0.16673 0.95119 0.01188 0.0
C1284 C 0.17055 0.03962 0.01406 0.0
C1285 C 0.17156 0.99829 0.00574 0.0
C1286 C 0.16808 0.06305 0.01097 0.0
C1287 C 0.1668 0.07067 0.99671 0.0
C1288 C 0.17159 0.02355 1.00282 0.0
C1289 C 0.169 0.05418 0.98579 0.0
C1290 C 0.17027 0.98223 0.99451 0.0
C1291 C 0.16916 0.96768 0.02279 0.0
N1292 N 0.17104 0.03142 0.98907 0.0
N1293 N 0.17123 0.99043 0.01949 0.0
H1294 H 0.82516 0.41547 0.73839 0.0
H1295 H 0.69693 0.41662 0.76944 0.0
H1296 H 0.80942 0.41871 0.7835 0.0
H1297 H 0.7127 0.41763 0.7243 0.0
H1298 H 0.73789 0.42111 0.77476 0.0
H1299 H 0.78423 0.41996 0.733 0.0
C1300 C 0.81315 0.41746 0.74718 0.0
C1301 C 0.8208 0.4166 0.76144 0.0
C1302 C 0.73239 0.42064 0.76368 0.0
C1303 C 0.7737 0.42148 0.75532 0.0
C1304 C 0.70895 0.41813 0.76063 0.0
C1305 C 0.7013 0.41664 0.74639 0.0
C1306 C 0.74843 0.42151 0.75243 0.0
C1307 C 0.71776 0.41868 0.73544 0.0
C1308 C 0.78973 0.41997 0.74408 0.0
C1309 C 0.80436 0.41926 0.77235 0.0
N1310 N 0.74053 0.42077 0.73869 0.0
N1311 N 0.7816 0.42134 0.76907 0.0
H1312 H 0.18242 0.81794 0.05035 0.0
H1313 H 0.16247 0.70275 0.00521 0.0
H1314 H 0.16171 0.8186 0.006 0.0
H1315 H 0.18077 0.70509 0.04995 0.0
H1316 H 0.16827 0.74463 1.0038 0.0
H1317 H 0.18833 0.77652 0.04885 0.0
C1318 C 0.17947 0.8094 0.0402 0.0
C1319 C 0.17138 0.82178 0.02832 0.0
C1320 C 0.17139 0.73588 0.01385 0.0
C1321 C 0.17767 0.77395 0.02658 0.0
C1322 C 0.16824 0.71195 0.01464 0.0
C1323 C 0.17096 0.70039 0.02775 0.0
C1324 C 0.1774 0.74827 0.02625 0.0
C1325 C 0.17825 0.71325 0.03965 0.0
C1326 C 0.18278 0.78566 0.03935 0.0
C1327 C 0.16799 0.80974 0.01543 0.0
N1328 N 0.181 0.73642 0.03863 0.0
N1329 N 0.1708 0.78642 0.01495 0.0
H1330 H 0.5697 0.91255 0.25585 0.0
H1331 H 0.45421 0.93103 0.301 0.0
H1332 H 0.56707 0.92897 0.30087 0.0
H1333 H 0.45375 0.91179 0.25639 0.0
H1334 H 0.49567 0.93672 0.2997 0.0
H1335 H 0.5278 0.91828 0.25445 0.0
C1336 C 0.56043 0.91788 0.26536 0.0
C1337 C 0.57192 0.92011 0.27853 0.0
C1338 C 0.48657 0.93154 0.2901 0.0
C1339 C 0.52403 0.92648 0.27703 0.0
C1340 C 0.4628 0.92835 0.29084 0.0
C1341 C 0.45046 0.92075 0.27881 0.0
C1342 C 0.49834 0.9268 0.2773 0.0
C1343 C 0.46257 0.9177 0.26592 0.0
C1344 C 0.53649 0.92099 0.26457 0.0
C1345 C 0.55897 0.92684 0.29052 0.0
N1346 N 0.48591 0.92038 0.26555 0.0
N1347 N 0.5358 0.92958 0.28949 0.0
H1348 H 0.33922 0.204 0.54998 0.0
H1349 H 0.36031 0.31905 0.50492 0.0
H1350 H 0.36096 0.20321 0.50583 0.0
H1351 H 0.3409 0.31683 0.54948 0.0
H1352 H 0.3545 0.27718 0.50349 0.0
H1353 H 0.33333 0.24541 0.54838 0.0
C1354 C 0.34239 0.21251 0.53985 0.0
C1355 C 0.35076 0.20009 0.52805 0.0
C1356 C 0.35114 0.28595 0.5135 0.0
C1357 C 0.34451 0.24792 0.5262 0.0
C1358 C 0.35429 0.30988 0.5143 0.0
C1359 C 0.35127 0.32147 0.52738 0.0
C1360 C 0.34481 0.2736 0.52585 0.0
C1361 C 0.34367 0.30864 0.53921 0.0
C1362 C 0.33909 0.23624 0.53894 0.0
C1363 C 0.35445 0.21209 0.51518 0.0
N1364 N 0.34092 0.28548 0.53819 0.0
N1365 N 0.35166 0.23541 0.51465 0.0
H1366 H 0.9525 0.10995 0.75529 0.0
H1367 H 0.06779 0.09065 0.80045 0.0
H1368 H 0.95495 0.0923 0.80013 0.0
H1369 H 0.06838 0.11074 0.75599 0.0
H1370 H 0.02637 0.08476 0.79901 0.0
H1371 H 0.99439 0.10418 0.75388 0.0
C1372 C 0.96173 0.10433 0.76474 0.0
C1373 C 0.9502 0.10178 0.77788 0.0
C1374 C 0.03549 0.09016 0.78948 0.0
C1375 C 0.99808 0.09537 0.77638 0.0
C1376 C 0.05924 0.09346 0.79029 0.0
C1377 C 0.0716 0.10137 0.77835 0.0
C1378 C 0.02376 0.0951 0.77669 0.0
C1379 C 0.05954 0.1046 0.76545 0.0
C1380 C 0.98566 0.10119 0.76395 0.0
C1381 C 0.96309 0.09469 0.78981 0.0
N1382 N 0.03621 0.10181 0.76501 0.0
N1383 N 0.98625 0.09195 0.78879 0.0
H1384 H 0.16277 0.20267 1.00297 0.0
H1385 H 0.18077 0.318 0.95762 0.0
H1386 H 0.17911 0.20511 0.95794 0.0
H1387 H 0.16199 0.31858 1.0023 0.0
H1388 H 0.18656 0.27655 0.95896 0.0
H1389 H 0.16846 0.24457 1.0043 0.0
C1390 C 0.16808 0.2119 0.99345 0.0
C1391 C 0.17029 0.20035 0.98029 0.0
C1392 C 0.18146 0.28568 0.96856 0.0
C1393 C 0.17661 0.24826 0.98171 0.0
C1394 C 0.17822 0.30943 0.9678 0.0
C1395 C 0.17071 0.32181 0.97984 0.0
C1396 C 0.17688 0.27394 0.9814 0.0
C1397 C 0.16782 0.30973 0.99276 0.0
C1398 C 0.17117 0.23584 0.9942 0.0
C1399 C 0.17699 0.21326 0.96828 0.0
N1400 N 0.17055 0.2864 0.99315 0.0
N1401 N 0.1797 0.23643 0.96927 0.0
H1402 H 0.95289 0.91241 0.25303 0.0
H1403 H 0.06834 0.92996 0.20771 0.0
H1404 H 0.95542 0.92848 0.20796 0.0
H1405 H 0.06884 0.91167 0.25247 0.0
H1406 H 0.02688 0.93566 0.20898 0.0
H1407 H 0.9948 0.91797 0.25436 0.0
C1408 C 0.96214 0.91762 0.2435 0.0
C1409 C 0.95061 0.9198 0.23033 0.0
C1410 C 0.03599 0.93069 0.21861 0.0
C1411 C 0.99854 0.92598 0.23175 0.0
C1412 C 0.05975 0.92749 0.2179 0.0
C1413 C 0.07211 0.92016 0.22998 0.0
C1414 C 0.02422 0.92623 0.23146 0.0
C1415 C 0.06 0.91737 0.2429 0.0
C1416 C 0.98609 0.92064 0.24425 0.0
C1417 C 0.96355 0.92639 0.21831 0.0
N1418 N 0.03666 0.92006 0.24325 0.0
N1419 N 0.98673 0.92903 0.2193 0.0
H1420 H 0.35958 0.70248 0.50297 0.0
H1421 H 0.34202 0.81804 0.45775 0.0
H1422 H 0.34388 0.70516 0.45785 0.0
H1423 H 0.3603 0.81844 0.50251 0.0
H1424 H 0.33633 0.77657 0.45898 0.0
H1425 H 0.35389 0.74438 0.50434 0.0
C1426 C 0.35441 0.71176 0.49343 0.0
C1427 C 0.35238 0.70028 0.48024 0.0
C1428 C 0.3413 0.78566 0.46862 0.0
C1429 C 0.34605 0.74818 0.48172 0.0
C1430 C 0.34449 0.80943 0.46792 0.0
C1431 C 0.35182 0.82176 0.48002 0.0
C1432 C 0.34576 0.77387 0.48146 0.0
C1433 C 0.35461 0.80962 0.49293 0.0
C1434 C 0.35132 0.7357 0.49421 0.0
C1435 C 0.34586 0.71325 0.46822 0.0
N1436 N 0.35193 0.78628 0.49326 0.0
N1437 N 0.34314 0.73642 0.46923 0.0
H1438 H 0.45245 0.10924 0.75297 0.0
H1439 H 0.5679 0.09295 0.70747 0.0
H1440 H 0.45496 0.09432 0.70775 0.0
H1441 H 0.5684 0.10979 0.75245 0.0
H1442 H 0.52643 0.08734 0.70865 0.0
H1443 H 0.49437 0.10371 0.75423 0.0
C1444 C 0.4617 0.10429 0.74338 0.0
C1445 C 0.45016 0.10242 0.7302 0.0
C1446 C 0.53554 0.09198 0.71834 0.0
C1447 C 0.49809 0.09628 0.73154 0.0
C1448 C 0.55931 0.09512 0.71768 0.0
C1449 C 0.57168 0.10202 0.72985 0.0
C1450 C 0.52378 0.09603 0.73124 0.0
C1451 C 0.55957 0.10444 0.7428 0.0
C1452 C 0.48566 0.10129 0.74409 0.0
C1453 C 0.4631 0.09617 0.71811 0.0
N1454 N 0.53622 0.1018 0.74312 0.0
N1455 N 0.48628 0.09353 0.71906 0.0
H1456 H 0.84148 0.31852 0.9576 0.0
H1457 H 0.86003 0.20317 1.00286 0.0
H1458 H 0.8608 0.3191 1.00219 0.0
H1459 H 0.84314 0.20561 0.95791 0.0
H1460 H 0.85443 0.24508 1.00421 0.0
H1461 H 0.83578 0.27706 0.95895 0.0
C1462 C 0.84417 0.30995 0.96776 0.0
C1463 C 0.8518 0.32234 0.97977 0.0
C1464 C 0.85158 0.23635 0.99412 0.0
C1465 C 0.84573 0.27445 0.98135 0.0
C1466 C 0.85463 0.2124 0.99336 0.0
C1467 C 0.85223 0.20085 0.98022 0.0
C1468 C 0.846 0.24877 0.98166 0.0
C1469 C 0.8454 0.21376 0.96824 0.0
C1470 C 0.84098 0.28619 0.96853 0.0
C1471 C 0.85488 0.31025 0.99267 0.0
N1472 N 0.84274 0.23693 0.96923 0.0
N1473 N 0.85218 0.28691 0.99307 0.0
H1474 H 0.66209 0.81949 0.5034 0.0
H1475 H 0.68062 0.70421 0.45804 0.0
H1476 H 0.6787 0.81711 0.45841 0.0
H1477 H 0.66145 0.70354 0.50265 0.0
H1478 H 0.68622 0.74568 0.4594 0.0
H1479 H 0.66774 0.77758 0.50471 0.0
C1480 C 0.66744 0.81027 0.49388 0.0
C1481 C 0.66975 0.82184 0.48074 0.0
C1482 C 0.68107 0.73653 0.46898 0.0
C1483 C 0.67603 0.77393 0.48214 0.0
C1484 C 0.67793 0.71276 0.46821 0.0
C1485 C 0.67038 0.70035 0.48022 0.0
C1486 C 0.67634 0.74825 0.48181 0.0
C1487 C 0.66731 0.71241 0.49313 0.0
C1488 C 0.67051 0.78632 0.49462 0.0
C1489 C 0.6765 0.80895 0.46874 0.0
N1490 N 0.66996 0.73576 0.49354 0.0
N1491 N 0.6792 0.78577 0.46971 0.0
H1492 H 0.83947 0.70438 0.05012 0.0
H1493 H 0.86063 0.81965 0.00528 0.0
H1494 H 0.86137 0.70379 0.00599 0.0
H1495 H 0.84119 0.81722 0.04983 0.0
H1496 H 0.85485 0.77778 1.00377 0.0
H1497 H 0.83359 0.7458 0.04859 0.0
C1498 C 0.84269 0.71293 0.04001 0.0
C1499 C 0.8511 0.70057 0.0282 0.0
C1500 C 0.85147 0.78651 0.0138 0.0
C1501 C 0.84485 0.74841 0.02643 0.0
C1502 C 0.85461 0.81044 0.01465 0.0
C1503 C 0.85157 0.82197 0.02774 0.0
C1504 C 0.84514 0.77409 0.02612 0.0
C1505 C 0.84397 0.80908 0.03955 0.0
C1506 C 0.8394 0.73667 0.03914 0.0
C1507 C 0.85483 0.71263 0.01536 0.0
N1508 N 0.84123 0.78592 0.03848 0.0
N1509 N 0.85204 0.73595 0.01487 0.0
H1510 H 0.6826 0.31838 0.54993 0.0
H1511 H 0.66163 0.2027 0.50549 0.0
H1512 H 0.66101 0.31856 0.50575 0.0
H1513 H 0.68135 0.20556 0.54999 0.0
H1514 H 0.66739 0.24456 0.50383 0.0
H1515 H 0.68858 0.27697 0.54854 0.0
C1516 C 0.67948 0.30973 0.53984 0.0
C1517 C 0.67113 0.32198 0.52797 0.0
C1518 C 0.67084 0.23593 0.51387 0.0
C1519 C 0.67748 0.27414 0.52636 0.0
C1520 C 0.66771 0.21201 0.51481 0.0
C1521 C 0.67083 0.2006 0.52794 0.0
C1522 C 0.67723 0.24846 0.52614 0.0
C1523 C 0.6785 0.2136 0.53969 0.0
C1524 C 0.68283 0.286 0.53905 0.0
C1525 C 0.66751 0.30981 0.51515 0.0
N1526 N 0.68122 0.23675 0.53853 0.0
N1527 N 0.67034 0.28649 0.51475 0.0
H1528 H 0.95275 0.41201 0.75505 0.0
H1529 H 0.06804 0.43211 0.80008 0.0
H1530 H 0.95517 0.43051 0.79975 0.0
H1531 H 0.06861 0.41124 0.75576 0.0
H1532 H 0.02661 0.43794 0.79861 0.0
H1533 H 0.99463 0.41771 0.75361 0.0
C1534 C 0.96197 0.4178 0.76446 0.0
C1535 C 0.95043 0.4206 0.77758 0.0
C1536 C 0.03573 0.43237 0.78912 0.0
C1537 C 0.99831 0.42695 0.77604 0.0
C1538 C 0.05948 0.42911 0.78994 0.0
C1539 C 0.07184 0.421 0.77806 0.0
C1540 C 0.024 0.42721 0.77636 0.0
C1541 C 0.05978 0.41754 0.76519 0.0
C1542 C 0.9859 0.4209 0.76366 0.0
C1543 C 0.96332 0.42792 0.78946 0.0
N1544 N 0.03645 0.42031 0.76473 0.0
N1545 N 0.98648 0.43062 0.78842 0.0
H1546 H 0.45303 0.61054 0.25538 0.0
H1547 H 0.56836 0.59115 0.30053 0.0
H1548 H 0.45548 0.59289 0.30022 0.0
H1549 H 0.56896 0.61123 0.25606 0.0
H1550 H 0.52691 0.58546 0.29912 0.0
H1551 H 0.49493 0.60489 0.25399 0.0
C1552 C 0.46226 0.60496 0.26484 0.0
C1553 C 0.45072 0.60236 0.27797 0.0
C1554 C 0.53604 0.59082 0.28958 0.0
C1555 C 0.49862 0.59608 0.27648 0.0
C1556 C 0.5598 0.59401 0.29037 0.0
C1557 C 0.57218 0.60185 0.27843 0.0
C1558 C 0.5243 0.59579 0.27679 0.0
C1559 C 0.56011 0.60514 0.26554 0.0
C1560 C 0.48621 0.60189 0.26406 0.0
C1561 C 0.46363 0.59531 0.2899 0.0
N1562 N 0.53677 0.60244 0.26511 0.0
N1563 N 0.4868 0.59263 0.28889 0.0
H1564 H 0.45396 0.42841 0.70679 0.0
H1565 H 0.56926 0.41242 0.75251 0.0
H1566 H 0.45329 0.41181 0.7518 0.0
H1567 H 0.56688 0.42693 0.70723 0.0
H1568 H 0.52732 0.41796 0.75369 0.0
H1569 H 0.49543 0.43402 0.70802 0.0
C1570 C 0.46251 0.42629 0.71701 0.0
C1571 C 0.45009 0.41946 0.72918 0.0
C1572 C 0.53607 0.42029 0.74356 0.0
C1573 C 0.498 0.42545 0.73064 0.0
C1574 C 0.56003 0.41728 0.74289 0.0
C1575 C 0.57162 0.41903 0.72972 0.0
C1576 C 0.52368 0.42519 0.73097 0.0
C1577 C 0.55872 0.42517 0.71759 0.0
C1578 C 0.48628 0.42943 0.71771 0.0
C1579 C 0.46216 0.41711 0.74215 0.0
N1580 N 0.53553 0.42782 0.7185 0.0
N1581 N 0.48551 0.41975 0.7425 0.0
H1582 H 0.95304 0.60949 0.25301 0.0
H1583 H 0.0683 0.59204 0.20748 0.0
H1584 H 0.9554 0.59373 0.20789 0.0
H1585 H 0.06897 0.61042 0.25223 0.0
H1586 H 0.02685 0.58631 0.20882 0.0
H1587 H 0.99496 0.60389 0.25427 0.0
C1588 C 0.96226 0.60433 0.24345 0.0
C1589 C 0.95068 0.60225 0.2303 0.0
C1590 C 0.036 0.59132 0.21843 0.0
C1591 C 0.9986 0.59603 0.23163 0.0
C1592 C 0.05976 0.59453 0.21768 0.0
C1593 C 0.07216 0.6019 0.22973 0.0
C1594 C 0.02428 0.59578 0.2313 0.0
C1595 C 0.0601 0.6047 0.24267 0.0
C1596 C 0.98621 0.60129 0.24416 0.0
C1597 C 0.96357 0.59574 0.21824 0.0
N1598 N 0.03677 0.60199 0.24307 0.0
N1599 N 0.98675 0.59307 0.21918 0.0
loop_
_geom_bond_atom_site_label_1
_geom_bond_atom_site_label_2
_geom_bond_distance
_geom_bond_site_symmetry_2
_ccdc_geom_bond_type
O0 Cd1 2.223 . S
O0 C8 1.315 . S
Cd1 O0 2.223 . S
Cd1 O4 2.297 . S
Cd1 O5 2.439 . S
Cd1 O11 2.240 . S
Cd2 O3 2.240 . S
Cd2 O10 2.223 . S
Cd2 O12 2.297 . S
Cd2 O13 2.439 . S
O3 Cd2 2.240 . S
O3 C8 1.279 . S
O4 Cd1 2.297 . S
O4 C6 1.247 . S
O5 Cd1 2.439 . S
O5 C6 1.208 . S
C6 O4 1.247 . S
C6 O5 1.208 . S
C7 O12 1.247 . S
C7 O13 1.208 . S
C8 O0 1.315 . S
C8 O3 1.279 . S
C9 O10 1.315 . S
C9 O11 1.279 . S
O10 Cd2 2.223 . S
O10 C9 1.315 . S
O11 Cd1 2.240 . S
O11 C9 1.279 . S
O12 Cd2 2.297 . S
O12 C7 1.247 . S
O13 Cd2 2.439 . S
O13 C7 1.208 . S
O14 Cd15 2.223 . S
O14 C22 1.315 . S
Cd15 O14 2.223 . S
Cd15 O18 2.297 . S
Cd15 O19 2.439 . S
Cd15 O25 2.240 . S
Cd16 O17 2.240 . S
Cd16 O24 2.223 . S
Cd16 O26 2.297 . S
Cd16 O27 2.439 . S
O17 Cd16 2.240 . S
O17 C22 1.279 . S
O18 Cd15 2.297 . S
O18 C20 1.247 . S
O19 Cd15 2.439 . S
O19 C20 1.208 . S
C20 O18 1.247 . S
C20 O19 1.208 . S
C21 O26 1.247 . S
C21 O27 1.208 . S
C22 O14 1.315 . S
C22 O17 1.279 . S
C23 O24 1.315 . S
C23 O25 1.279 . S
O24 Cd16 2.223 . S
O24 C23 1.315 . S
O25 Cd15 2.240 . S
O25 C23 1.279 . S
O26 Cd16 2.297 . S
O26 C21 1.247 . S
O27 Cd16 2.439 . S
O27 C21 1.208 . S
O28 Cd29 2.223 . S
O28 C36 1.315 . S
Cd29 O28 2.223 . S
Cd29 O32 2.297 . S
Cd29 O33 2.439 . S
Cd29 O39 2.240 . S
Cd30 O31 2.240 . S
Cd30 O38 2.223 . S
Cd30 O40 2.297 . S
Cd30 O41 2.439 . S
O31 Cd30 2.240 . S
O31 C36 1.279 . S
O32 Cd29 2.297 . S
O32 C34 1.247 . S
O33 Cd29 2.439 . S
O33 C34 1.208 . S
C34 O32 1.247 . S
C34 O33 1.208 . S
C35 O40 1.247 . S
C35 O41 1.208 . S
C36 O28 1.315 . S
C36 O31 1.279 . S
C37 O38 1.315 . S
C37 O39 1.279 . S
O38 Cd30 2.223 . S
O38 C37 1.315 . S
O39 Cd29 2.240 . S
O39 C37 1.279 . S
O40 Cd30 2.297 . S
O40 C35 1.247 . S
O41 Cd30 2.439 . S
O41 C35 1.208 . S
O42 Cd43 2.223 . S
O42 C50 1.315 . S
Cd43 O42 2.223 . S
Cd43 O46 2.297 . S
Cd43 O47 2.439 . S
Cd43 O53 2.240 . S
Cd44 O45 2.240 . S
Cd44 O52 2.223 . S
Cd44 O54 2.297 . S
Cd44 O55 2.439 . S
O45 Cd44 2.240 . S
O45 C50 1.279 . S
O46 Cd43 2.297 . S
O46 C48 1.247 . S
O47 Cd43 2.439 . S
O47 C48 1.208 . S
C48 O46 1.247 . S
C48 O47 1.208 . S
C49 O54 1.247 . S
C49 O55 1.208 . S
C50 O42 1.315 . S
C50 O45 1.279 . S
C51 O52 1.315 . S
C51 O53 1.279 . S
O52 Cd44 2.223 . S
O52 C51 1.315 . S
O53 Cd43 2.240 . S
O53 C51 1.279 . S
O54 Cd44 2.297 . S
O54 C49 1.247 . S
O55 Cd44 2.439 . S
O55 C49 1.208 . S
O56 Cd57 2.223 . S
O56 C64 1.315 . S
Cd57 O56 2.223 . S
Cd57 O60 2.297 . S
Cd57 O61 2.439 . S
Cd57 O67 2.240 . S
Cd58 O59 2.240 . S
Cd58 O66 2.223 . S
Cd58 O68 2.297 . S
Cd58 O69 2.439 . S
O59 Cd58 2.240 . S
O59 C64 1.279 . S
O60 Cd57 2.297 . S
O60 C62 1.247 . S
O61 Cd57 2.439 . S
O61 C62 1.208 . S
C62 O60 1.247 . S
C62 O61 1.208 . S
C63 O68 1.247 . S
C63 O69 1.208 . S
C64 O56 1.315 . S
C64 O59 1.279 . S
C65 O66 1.315 . S
C65 O67 1.279 . S
O66 Cd58 2.223 . S
O66 C65 1.315 . S
O67 Cd57 2.240 . S
O67 C65 1.279 . S
O68 Cd58 2.297 . S
O68 C63 1.247 . S
O69 Cd58 2.439 . S
O69 C63 1.208 . S
O70 Cd71 2.223 . S
O70 C78 1.315 . S
Cd71 O70 2.223 . S
Cd71 O74 2.297 . S
Cd71 O75 2.439 . S
Cd71 O81 2.240 . S
Cd72 O73 2.240 . S
Cd72 O80 2.223 . S
Cd72 O82 2.297 . S
Cd72 O83 2.439 . S
O73 Cd72 2.240 . S
O73 C78 1.279 . S
O74 Cd71 2.297 . S
O74 C76 1.247 . S
O75 Cd71 2.439 . S
O75 C76 1.208 . S
C76 O74 1.247 . S
C76 O75 1.208 . S
C77 O82 1.247 . S
C77 O83 1.208 . S
C78 O70 1.315 . S
C78 O73 1.279 . S
C79 O80 1.315 . S
C79 O81 1.279 . S
O80 Cd72 2.223 . S
O80 C79 1.315 . S
O81 Cd71 2.240 . S
O81 C79 1.279 . S
O82 Cd72 2.297 . S
O82 C77 1.247 . S
O83 Cd72 2.439 . S
O83 C77 1.208 . S
O84 Cd85 2.223 . S
O84 C92 1.315 . S
Cd85 O84 2.223 . S
Cd85 O88 2.297 . S
Cd85 O89 2.439 . S
Cd85 O95 2.240 . S
Cd86 O87 2.240 . S
Cd86 O94 2.223 . S
Cd86 O96 2.297 . S
Cd86 O97 2.439 . S
O87 Cd86 2.240 . S
O87 C92 1.279 . S
O88 Cd85 2.297 . S
O88 C90 1.247 . S
O89 Cd85 2.439 . S
O89 C90 1.208 . S
C90 O88 1.247 . S
C90 O89 1.208 . S
C91 O96 1.247 . S
C91 O97 1.208 . S
C92 O84 1.315 . S
C92 O87 1.279 . S
C93 O94 1.315 . S
C93 O95 1.279 . S
O94 Cd86 2.223 . S
O94 C93 1.315 . S
O95 Cd85 2.240 . S
O95 C93 1.279 . S
O96 Cd86 2.297 . S
O96 C91 1.247 . S
O97 Cd86 2.439 . S
O97 C91 1.208 . S
O98 Cd99 2.223 . S
O98 C106 1.315 . S
Cd99 O98 2.223 . S
Cd99 O102 2.297 . S
Cd99 O103 2.439 . S
Cd99 O109 2.240 . S
Cd100 O101 2.240 . S
Cd100 O108 2.223 . S
Cd100 O110 2.297 . S
Cd100 O111 2.439 . S
O101 Cd100 2.240 . S
O101 C106 1.279 . S
O102 Cd99 2.297 . S
O102 C104 1.247 . S
O103 Cd99 2.439 . S
O103 C104 1.208 . S
C104 O102 1.247 . S
C104 O103 1.208 . S
C105 O110 1.247 . S
C105 O111 1.208 . S
C106 O98 1.315 . S
C106 O101 1.279 . S
C107 O108 1.315 . S
C107 O109 1.279 . S
O108 Cd100 2.223 . S
O108 C107 1.315 . S
O109 Cd99 2.240 . S
O109 C107 1.279 . S
O110 Cd100 2.297 . S
O110 C105 1.247 . S
O111 Cd100 2.439 . S
O111 C105 1.208 . S
O112 Cd113 2.223 . S
O112 C120 1.315 . S
Cd113 O112 2.223 . S
Cd113 O116 2.297 . S
Cd113 O117 2.439 . S
Cd113 O123 2.240 . S
Cd114 O115 2.240 . S
Cd114 O122 2.223 . S
Cd114 O124 2.297 . S
Cd114 O125 2.439 . S
O115 Cd114 2.240 . S
O115 C120 1.279 . S
O116 Cd113 2.297 . S
O116 C118 1.247 . S
O117 Cd113 2.439 . S
O117 C118 1.208 . S
C118 O116 1.247 . S
C118 O117 1.208 . S
C119 O124 1.247 . S
C119 O125 1.208 . S
C120 O112 1.315 . S
C120 O115 1.279 . S
C121 O122 1.315 . S
C121 O123 1.279 . S
O122 Cd114 2.223 . S
O122 C121 1.315 . S
O123 Cd113 2.240 . S
O123 C121 1.279 . S
O124 Cd114 2.297 . S
O124 C119 1.247 . S
O125 Cd114 2.439 . S
O125 C119 1.208 . S
O126 Cd127 2.223 . S
O126 C134 1.315 . S
Cd127 O126 2.223 . S
Cd127 O130 2.297 . S
Cd127 O131 2.439 . S
Cd127 O137 2.240 . S
Cd128 O129 2.240 . S
Cd128 O136 2.223 . S
Cd128 O138 2.297 . S
Cd128 O139 2.439 . S
O129 Cd128 2.240 . S
O129 C134 1.279 . S
O130 Cd127 2.297 . S
O130 C132 1.247 . S
O131 Cd127 2.439 . S
O131 C132 1.208 . S
C132 O130 1.247 . S
C132 O131 1.208 . S
C133 O138 1.247 . S
C133 O139 1.208 . S
C134 O126 1.315 . S
C134 O129 1.279 . S
C135 O136 1.315 . S
C135 O137 1.279 . S
O136 Cd128 2.223 . S
O136 C135 1.315 . S
O137 Cd127 2.240 . S
O137 C135 1.279 . S
O138 Cd128 2.297 . S
O138 C133 1.247 . S
O139 Cd128 2.439 . S
O139 C133 1.208 . S
O140 Cd141 2.223 . S
O140 C148 1.315 . S
Cd141 O140 2.223 . S
Cd141 O144 2.297 . S
Cd141 O145 2.439 . S
Cd141 O151 2.240 . S
Cd142 O143 2.240 . S
Cd142 O150 2.223 . S
Cd142 O152 2.297 . S
Cd142 O153 2.439 . S
O143 Cd142 2.240 . S
O143 C148 1.279 . S
O144 Cd141 2.297 . S
O144 C146 1.247 . S
O145 Cd141 2.439 . S
O145 C146 1.208 . S
C146 O144 1.247 . S
C146 O145 1.208 . S
C147 O152 1.247 . S
C147 O153 1.208 . S
C148 O140 1.315 . S
C148 O143 1.279 . S
C149 O150 1.315 . S
C149 O151 1.279 . S
O150 Cd142 2.223 . S
O150 C149 1.315 . S
O151 Cd141 2.240 . S
O151 C149 1.279 . S
O152 Cd142 2.297 . S
O152 C147 1.247 . S
O153 Cd142 2.439 . S
O153 C147 1.208 . S
O154 Cd155 2.223 . S
O154 C162 1.315 . S
Cd155 O154 2.223 . S
Cd155 O158 2.297 . S
Cd155 O159 2.439 . S
Cd155 O165 2.240 . S
Cd156 O157 2.240 . S
Cd156 O164 2.223 . S
Cd156 O166 2.297 . S
Cd156 O167 2.439 . S
O157 Cd156 2.240 . S
O157 C162 1.279 . S
O158 Cd155 2.297 . S
O158 C160 1.247 . S
O159 Cd155 2.439 . S
O159 C160 1.208 . S
C160 O158 1.247 . S
C160 O159 1.208 . S
C161 O166 1.247 . S
C161 O167 1.208 . S
C162 O154 1.315 . S
C162 O157 1.279 . S
C163 O164 1.315 . S
C163 O165 1.279 . S
O164 Cd156 2.223 . S
O164 C163 1.315 . S
O165 Cd155 2.240 . S
O165 C163 1.279 . S
O166 Cd156 2.297 . S
O166 C161 1.247 . S
O167 Cd156 2.439 . S
O167 C161 1.208 . S
O168 Cd169 2.223 . S
O168 C176 1.315 . S
Cd169 O168 2.223 . S
Cd169 O172 2.297 . S
Cd169 O173 2.439 . S
Cd169 O179 2.240 . S
Cd170 O171 2.240 . S
Cd170 O178 2.223 . S
Cd170 O180 2.297 . S
Cd170 O181 2.439 . S
O171 Cd170 2.240 . S
O171 C176 1.279 . S
O172 Cd169 2.297 . S
O172 C174 1.247 . S
O173 Cd169 2.439 . S
O173 C174 1.208 . S
C174 O172 1.247 . S
C174 O173 1.208 . S
C175 O180 1.247 . S
C175 O181 1.208 . S
C176 O168 1.315 . S
C176 O171 1.279 . S
C177 O178 1.315 . S
C177 O179 1.279 . S
O178 Cd170 2.223 . S
O178 C177 1.315 . S
O179 Cd169 2.240 . S
O179 C177 1.279 . S
O180 Cd170 2.297 . S
O180 C175 1.247 . S
O181 Cd170 2.439 . S
O181 C175 1.208 . S
O182 Cd183 2.223 . S
O182 C190 1.315 . S
Cd183 O182 2.223 . S
Cd183 O186 2.297 . S
Cd183 O187 2.439 . S
Cd183 O193 2.240 . S
Cd184 O185 2.240 . S
Cd184 O192 2.223 . S
Cd184 O194 2.297 . S
Cd184 O195 2.439 . S
O185 Cd184 2.240 . S
O185 C190 1.279 . S
O186 Cd183 2.297 . S
O186 C188 1.247 . S
O187 Cd183 2.439 . S
O187 C188 1.208 . S
C188 O186 1.247 . S
C188 O187 1.208 . S
C189 O194 1.247 . S
C189 O195 1.208 . S
C190 O182 1.315 . S
C190 O185 1.279 . S
C191 O192 1.315 . S
C191 O193 1.279 . S
O192 Cd184 2.223 . S
O192 C191 1.315 . S
O193 Cd183 2.240 . S
O193 C191 1.279 . S
O194 Cd184 2.297 . S
O194 C189 1.247 . S
O195 Cd184 2.439 . S
O195 C189 1.208 . S
O196 Cd197 2.223 . S
O196 C204 1.315 . S
Cd197 O196 2.223 . S
Cd197 O200 2.297 . S
Cd197 O201 2.439 . S
Cd197 O207 2.240 . S
Cd198 O199 2.240 . S
Cd198 O206 2.223 . S
Cd198 O208 2.297 . S
Cd198 O209 2.439 . S
O199 Cd198 2.240 . S
O199 C204 1.279 . S
O200 Cd197 2.297 . S
O200 C202 1.247 . S
O201 Cd197 2.439 . S
O201 C202 1.208 . S
C202 O200 1.247 . S
C202 O201 1.208 . S
C203 O208 1.247 . S
C203 O209 1.208 . S
C204 O196 1.315 . S
C204 O199 1.279 . S
C205 O206 1.315 . S
C205 O207 1.279 . S
O206 Cd198 2.223 . S
O206 C205 1.315 . S
O207 Cd197 2.240 . S
O207 C205 1.279 . S
O208 Cd198 2.297 . S
O208 C203 1.247 . S
O209 Cd198 2.439 . S
O209 C203 1.208 . S
O210 Cd211 2.223 . S
O210 C218 1.315 . S
Cd211 O210 2.223 . S
Cd211 O214 2.297 . S
Cd211 O215 2.439 . S
Cd211 O221 2.240 . S
Cd212 O213 2.240 . S
Cd212 O220 2.223 . S
Cd212 O222 2.297 . S
Cd212 O223 2.439 . S
O213 Cd212 2.240 . S
O213 C218 1.279 . S
O214 Cd211 2.297 . S
O214 C216 1.247 . S
O215 Cd211 2.439 . S
O215 C216 1.208 . S
C216 O214 1.247 . S
C216 O215 1.208 . S
C217 O222 1.247 . S
C217 O223 1.208 . S
C218 O210 1.315 . S
C218 O213 1.279 . S
C219 O220 1.315 . S
C219 O221 1.279 . S
O220 Cd212 2.223 . S
O220 C219 1.315 . S
O221 Cd211 2.240 . S
O221 C219 1.279 . S
O222 Cd212 2.297 . S
O222 C217 1.247 . S
O223 Cd212 2.439 . S
O223 C217 1.208 . S
O224 Cd225 2.223 . S
O224 C232 1.315 . S
Cd225 O224 2.223 . S
Cd225 O228 2.297 . S
Cd225 O229 2.439 . S
Cd225 O235 2.240 . S
Cd226 O227 2.240 . S
Cd226 O234 2.223 . S
Cd226 O236 2.297 . S
Cd226 O237 2.439 . S
O227 Cd226 2.240 . S
O227 C232 1.279 . S
O228 Cd225 2.297 . S
O228 C230 1.247 . S
O229 Cd225 2.439 . S
O229 C230 1.208 . S
C230 O228 1.247 . S
C230 O229 1.208 . S
C231 O236 1.247 . S
C231 O237 1.208 . S
C232 O224 1.315 . S
C232 O227 1.279 . S
C233 O234 1.315 . S
C233 O235 1.279 . S
O234 Cd226 2.223 . S
O234 C233 1.315 . S
O235 Cd225 2.240 . S
O235 C233 1.279 . S
O236 Cd226 2.297 . S
O236 C231 1.247 . S
O237 Cd226 2.439 . S
O237 C231 1.208 . S
O238 Cd239 2.223 . S
O238 C246 1.315 . S
Cd239 O238 2.223 . S
Cd239 O242 2.297 . S
Cd239 O243 2.439 . S
Cd239 O249 2.240 . S
Cd240 O241 2.240 . S
Cd240 O248 2.223 . S
Cd240 O250 2.297 . S
Cd240 O251 2.439 . S
O241 Cd240 2.240 . S
O241 C246 1.279 . S
O242 Cd239 2.297 . S
O242 C244 1.247 . S
O243 Cd239 2.439 . S
O243 C244 1.208 . S
C244 O242 1.247 . S
C244 O243 1.208 . S
C245 O250 1.247 . S
C245 O251 1.208 . S
C246 O238 1.315 . S
C246 O241 1.279 . S
C247 O248 1.315 . S
C247 O249 1.279 . S
O248 Cd240 2.223 . S
O248 C247 1.315 . S
O249 Cd239 2.240 . S
O249 C247 1.279 . S
O250 Cd240 2.297 . S
O250 C245 1.247 . S
O251 Cd240 2.439 . S
O251 C245 1.208 . S
O252 Cd253 2.223 . S
O252 C260 1.315 . S
Cd253 O252 2.223 . S
Cd253 O256 2.297 . S
Cd253 O257 2.439 . S
Cd253 O263 2.240 . S
Cd254 O255 2.240 . S
Cd254 O262 2.223 . S
Cd254 O264 2.297 . S
Cd254 O265 2.439 . S
O255 Cd254 2.240 . S
O255 C260 1.279 . S
O256 Cd253 2.297 . S
O256 C258 1.247 . S
O257 Cd253 2.439 . S
O257 C258 1.208 . S
C258 O256 1.247 . S
C258 O257 1.208 . S
C259 O264 1.247 . S
C259 O265 1.208 . S
C260 O252 1.315 . S
C260 O255 1.279 . S
C261 O262 1.315 . S
C261 O263 1.279 . S
O262 Cd254 2.223 . S
O262 C261 1.315 . S
O263 Cd253 2.240 . S
O263 C261 1.279 . S
O264 Cd254 2.297 . S
O264 C259 1.247 . S
O265 Cd254 2.439 . S
O265 C259 1.208 . S
O266 Cd267 2.223 . S
O266 C274 1.315 . S
Cd267 O266 2.223 . S
Cd267 O270 2.297 . S
Cd267 O271 2.439 . S
Cd267 O277 2.240 . S
Cd268 O269 2.240 . S
Cd268 O276 2.223 . S
Cd268 O278 2.297 . S
Cd268 O279 2.439 . S
O269 Cd268 2.240 . S
O269 C274 1.279 . S
O270 Cd267 2.297 . S
O270 C272 1.247 . S
O271 Cd267 2.439 . S
O271 C272 1.208 . S
C272 O270 1.247 . S
C272 O271 1.208 . S
C273 O278 1.247 . S
C273 O279 1.208 . S
C274 O266 1.315 . S
C274 O269 1.279 . S
C275 O276 1.315 . S
C275 O277 1.279 . S
O276 Cd268 2.223 . S
O276 C275 1.315 . S
O277 Cd267 2.240 . S
O277 C275 1.279 . S
O278 Cd268 2.297 . S
O278 C273 1.247 . S
O279 Cd268 2.439 . S
O279 C273 1.208 . S
O280 Cd281 2.223 . S
O280 C288 1.315 . S
Cd281 O280 2.223 . S
Cd281 O284 2.297 . S
Cd281 O285 2.439 . S
Cd281 O291 2.240 . S
Cd282 O283 2.240 . S
Cd282 O290 2.223 . S
Cd282 O292 2.297 . S
Cd282 O293 2.439 . S
O283 Cd282 2.240 . S
O283 C288 1.279 . S
O284 Cd281 2.297 . S
O284 C286 1.247 . S
O285 Cd281 2.439 . S
O285 C286 1.208 . S
C286 O284 1.247 . S
C286 O285 1.208 . S
C287 O292 1.247 . S
C287 O293 1.208 . S
C288 O280 1.315 . S
C288 O283 1.279 . S
C289 O290 1.315 . S
C289 O291 1.279 . S
O290 Cd282 2.223 . S
O290 C289 1.315 . S
O291 Cd281 2.240 . S
O291 C289 1.279 . S
O292 Cd282 2.297 . S
O292 C287 1.247 . S
O293 Cd282 2.439 . S
O293 C287 1.208 . S
O294 Cd295 2.223 . S
O294 C302 1.315 . S
Cd295 O294 2.223 . S
Cd295 O298 2.297 . S
Cd295 O299 2.439 . S
Cd295 O305 2.240 . S
Cd296 O297 2.240 . S
Cd296 O304 2.223 . S
Cd296 O306 2.297 . S
Cd296 O307 2.439 . S
O297 Cd296 2.240 . S
O297 C302 1.279 . S
O298 Cd295 2.297 . S
O298 C300 1.247 . S
O299 Cd295 2.439 . S
O299 C300 1.208 . S
C300 O298 1.247 . S
C300 O299 1.208 . S
C301 O306 1.247 . S
C301 O307 1.208 . S
C302 O294 1.315 . S
C302 O297 1.279 . S
C303 O304 1.315 . S
C303 O305 1.279 . S
O304 Cd296 2.223 . S
O304 C303 1.315 . S
O305 Cd295 2.240 . S
O305 C303 1.279 . S
O306 Cd296 2.297 . S
O306 C301 1.247 . S
O307 Cd296 2.439 . S
O307 C301 1.208 . S
O308 Cd309 2.223 . S
O308 C316 1.315 . S
Cd309 O308 2.223 . S
Cd309 O312 2.297 . S
Cd309 O313 2.439 . S
Cd309 O319 2.240 . S
Cd310 O311 2.240 . S
Cd310 O318 2.223 . S
Cd310 O320 2.297 . S
Cd310 O321 2.439 . S
O311 Cd310 2.240 . S
O311 C316 1.279 . S
O312 Cd309 2.297 . S
O312 C314 1.247 . S
O313 Cd309 2.439 . S
O313 C314 1.208 . S
C314 O312 1.247 . S
C314 O313 1.208 . S
C315 O320 1.247 . S
C315 O321 1.208 . S
C316 O308 1.315 . S
C316 O311 1.279 . S
C317 O318 1.315 . S
C317 O319 1.279 . S
O318 Cd310 2.223 . S
O318 C317 1.315 . S
O319 Cd309 2.240 . S
O319 C317 1.279 . S
O320 Cd310 2.297 . S
O320 C315 1.247 . S
O321 Cd310 2.439 . S
O321 C315 1.208 . S
O322 Cd323 2.223 . S
O322 C330 1.315 . S
Cd323 O322 2.223 . S
Cd323 O326 2.297 . S
Cd323 O327 2.439 . S
Cd323 O333 2.240 . S
Cd324 O325 2.240 . S
Cd324 O332 2.223 . S
Cd324 O334 2.297 . S
Cd324 O335 2.439 . S
O325 Cd324 2.240 . S
O325 C330 1.279 . S
O326 Cd323 2.297 . S
O326 C328 1.247 . S
O327 Cd323 2.439 . S
O327 C328 1.208 . S
C328 O326 1.247 . S
C328 O327 1.208 . S
C329 O334 1.247 . S
C329 O335 1.208 . S
C330 O322 1.315 . S
C330 O325 1.279 . S
C331 O332 1.315 . S
C331 O333 1.279 . S
O332 Cd324 2.223 . S
O332 C331 1.315 . S
O333 Cd323 2.240 . S
O333 C331 1.279 . S
O334 Cd324 2.297 . S
O334 C329 1.247 . S
O335 Cd324 2.439 . S
O335 C329 1.208 . S
O336 Cd337 2.223 . S
O336 C344 1.315 . S
Cd337 O336 2.223 . S
Cd337 O340 2.297 . S
Cd337 O341 2.439 . S
Cd337 O347 2.240 . S
Cd338 O339 2.240 . S
Cd338 O346 2.223 . S
Cd338 O348 2.297 . S
Cd338 O349 2.439 . S
O339 Cd338 2.240 . S
O339 C344 1.279 . S
O340 Cd337 2.297 . S
O340 C342 1.247 . S
O341 Cd337 2.439 . S
O341 C342 1.208 . S
C342 O340 1.247 . S
C342 O341 1.208 . S
C343 O348 1.247 . S
C343 O349 1.208 . S
C344 O336 1.315 . S
C344 O339 1.279 . S
C345 O346 1.315 . S
C345 O347 1.279 . S
O346 Cd338 2.223 . S
O346 C345 1.315 . S
O347 Cd337 2.240 . S
O347 C345 1.279 . S
O348 Cd338 2.297 . S
O348 C343 1.247 . S
O349 Cd338 2.439 . S
O349 C343 1.208 . S
O350 Cd351 2.223 . S
O350 C358 1.315 . S
Cd351 O350 2.223 . S
Cd351 O354 2.297 . S
Cd351 O355 2.439 . S
Cd351 O361 2.240 . S
Cd352 O353 2.240 . S
Cd352 O360 2.223 . S
Cd352 O362 2.297 . S
Cd352 O363 2.439 . S
O353 Cd352 2.240 . S
O353 C358 1.279 . S
O354 Cd351 2.297 . S
O354 C356 1.247 . S
O355 Cd351 2.439 . S
O355 C356 1.208 . S
C356 O354 1.247 . S
C356 O355 1.208 . S
C357 O362 1.247 . S
C357 O363 1.208 . S
C358 O350 1.315 . S
C358 O353 1.279 . S
C359 O360 1.315 . S
C359 O361 1.279 . S
O360 Cd352 2.223 . S
O360 C359 1.315 . S
O361 Cd351 2.240 . S
O361 C359 1.279 . S
O362 Cd352 2.297 . S
O362 C357 1.247 . S
O363 Cd352 2.439 . S
O363 C357 1.208 . S
O364 Cd365 2.223 . S
O364 C372 1.315 . S
Cd365 O364 2.223 . S
Cd365 O368 2.297 . S
Cd365 O369 2.439 . S
Cd365 O375 2.240 . S
Cd366 O367 2.240 . S
Cd366 O374 2.223 . S
Cd366 O376 2.297 . S
Cd366 O377 2.439 . S
O367 Cd366 2.240 . S
O367 C372 1.279 . S
O368 Cd365 2.297 . S
O368 C370 1.247 . S
O369 Cd365 2.439 . S
O369 C370 1.208 . S
C370 O368 1.247 . S
C370 O369 1.208 . S
C371 O376 1.247 . S
C371 O377 1.208 . S
C372 O364 1.315 . S
C372 O367 1.279 . S
C373 O374 1.315 . S
C373 O375 1.279 . S
O374 Cd366 2.223 . S
O374 C373 1.315 . S
O375 Cd365 2.240 . S
O375 C373 1.279 . S
O376 Cd366 2.297 . S
O376 C371 1.247 . S
O377 Cd366 2.439 . S
O377 C371 1.208 . S
O378 Cd379 2.223 . S
O378 C386 1.315 . S
Cd379 O378 2.223 . S
Cd379 O382 2.297 . S
Cd379 O383 2.439 . S
Cd379 O389 2.240 . S
Cd380 O381 2.240 . S
Cd380 O388 2.223 . S
Cd380 O390 2.297 . S
Cd380 O391 2.439 . S
O381 Cd380 2.240 . S
O381 C386 1.279 . S
O382 Cd379 2.297 . S
O382 C384 1.247 . S
O383 Cd379 2.439 . S
O383 C384 1.208 . S
C384 O382 1.247 . S
C384 O383 1.208 . S
C385 O390 1.247 . S
C385 O391 1.208 . S
C386 O378 1.315 . S
C386 O381 1.279 . S
C387 O388 1.315 . S
C387 O389 1.279 . S
O388 Cd380 2.223 . S
O388 C387 1.315 . S
O389 Cd379 2.240 . S
O389 C387 1.279 . S
O390 Cd380 2.297 . S
O390 C385 1.247 . S
O391 Cd380 2.439 . S
O391 C385 1.208 . S
O392 Cd393 2.223 . S
O392 C400 1.315 . S
Cd393 O392 2.223 . S
Cd393 O396 2.297 . S
Cd393 O397 2.439 . S
Cd393 O403 2.240 . S
Cd394 O395 2.240 . S
Cd394 O402 2.223 . S
Cd394 O404 2.297 . S
Cd394 O405 2.439 . S
O395 Cd394 2.240 . S
O395 C400 1.279 . S
O396 Cd393 2.297 . S
O396 C398 1.247 . S
O397 Cd393 2.439 . S
O397 C398 1.208 . S
C398 O396 1.247 . S
C398 O397 1.208 . S
C399 O404 1.247 . S
C399 O405 1.208 . S
C400 O392 1.315 . S
C400 O395 1.279 . S
C401 O402 1.315 . S
C401 O403 1.279 . S
O402 Cd394 2.223 . S
O402 C401 1.315 . S
O403 Cd393 2.240 . S
O403 C401 1.279 . S
O404 Cd394 2.297 . S
O404 C399 1.247 . S
O405 Cd394 2.439 . S
O405 C399 1.208 . S
O406 Cd407 2.223 . S
O406 C414 1.315 . S
Cd407 O406 2.223 . S
Cd407 O410 2.297 . S
Cd407 O411 2.439 . S
Cd407 O417 2.240 . S
Cd408 O409 2.240 . S
Cd408 O416 2.223 . S
Cd408 O418 2.297 . S
Cd408 O419 2.439 . S
O409 Cd408 2.240 . S
O409 C414 1.279 . S
O410 Cd407 2.297 . S
O410 C412 1.247 . S
O411 Cd407 2.439 . S
O411 C412 1.208 . S
C412 O410 1.247 . S
C412 O411 1.208 . S
C413 O418 1.247 . S
C413 O419 1.208 . S
C414 O406 1.315 . S
C414 O409 1.279 . S
C415 O416 1.315 . S
C415 O417 1.279 . S
O416 Cd408 2.223 . S
O416 C415 1.315 . S
O417 Cd407 2.240 . S
O417 C415 1.279 . S
O418 Cd408 2.297 . S
O418 C413 1.247 . S
O419 Cd408 2.439 . S
O419 C413 1.208 . S
O420 Cd421 2.223 . S
O420 C428 1.315 . S
Cd421 O420 2.223 . S
Cd421 O424 2.297 . S
Cd421 O425 2.439 . S
Cd421 O431 2.240 . S
Cd422 O423 2.240 . S
Cd422 O430 2.223 . S
Cd422 O432 2.297 . S
Cd422 O433 2.439 . S
O423 Cd422 2.240 . S
O423 C428 1.279 . S
O424 Cd421 2.297 . S
O424 C426 1.247 . S
O425 Cd421 2.439 . S
O425 C426 1.208 . S
C426 O424 1.247 . S
C426 O425 1.208 . S
C427 O432 1.247 . S
C427 O433 1.208 . S
C428 O420 1.315 . S
C428 O423 1.279 . S
C429 O430 1.315 . S
C429 O431 1.279 . S
O430 Cd422 2.223 . S
O430 C429 1.315 . S
O431 Cd421 2.240 . S
O431 C429 1.279 . S
O432 Cd422 2.297 . S
O432 C427 1.247 . S
O433 Cd422 2.439 . S
O433 C427 1.208 . S
O434 Cd435 2.223 . S
O434 C442 1.315 . S
Cd435 O434 2.223 . S
Cd435 O438 2.297 . S
Cd435 O439 2.439 . S
Cd435 O445 2.240 . S
Cd436 O437 2.240 . S
Cd436 O444 2.223 . S
Cd436 O446 2.297 . S
Cd436 O447 2.439 . S
O437 Cd436 2.240 . S
O437 C442 1.279 . S
O438 Cd435 2.297 . S
O438 C440 1.247 . S
O439 Cd435 2.439 . S
O439 C440 1.208 . S
C440 O438 1.247 . S
C440 O439 1.208 . S
C441 O446 1.247 . S
C441 O447 1.208 . S
C442 O434 1.315 . S
C442 O437 1.279 . S
C443 O444 1.315 . S
C443 O445 1.279 . S
O444 Cd436 2.223 . S
O444 C443 1.315 . S
O445 Cd435 2.240 . S
O445 C443 1.279 . S
O446 Cd436 2.297 . S
O446 C441 1.247 . S
O447 Cd436 2.439 . S
O447 C441 1.208 . S
H448 C454 0.930 . S
H449 C458 0.930 . S
H450 C463 0.929 . S
H451 C461 0.929 . S
H452 C456 0.929 . S
H453 C462 0.929 . S
C454 H448 0.930 . S
C454 C455 1.367 . S
C454 C462 1.378 . S
C455 C454 1.367 . S
C455 C463 1.433 . S
C456 H452 0.929 . S
C456 C458 1.378 . S
C456 C460 1.350 . S
C457 C460 1.463 . S
C457 C462 1.350 . S
C457 N465 1.427 . S
C458 H449 0.930 . S
C458 C456 1.378 . S
C458 C459 1.367 . S
C459 C458 1.367 . S
C459 C461 1.433 . S
C460 C456 1.350 . S
C460 C457 1.463 . S
C460 N464 1.427 . S
C461 H451 0.929 . S
C461 C459 1.433 . S
C461 N464 1.384 . S
C462 H453 0.929 . S
C462 C454 1.378 . S
C462 C457 1.350 . S
C463 H450 0.929 . S
C463 C455 1.433 . S
C463 N465 1.384 . S
N464 C460 1.427 . S
N464 C461 1.384 . S
N465 C457 1.427 . S
N465 C463 1.384 . S
H466 C472 0.930 . S
H467 C476 0.930 . S
H468 C481 0.929 . S
H469 C479 0.929 . S
H470 C474 0.929 . S
H471 C480 0.929 . S
C472 H466 0.930 . S
C472 C473 1.367 . S
C472 C480 1.378 . S
C473 C472 1.367 . S
C473 C481 1.433 . S
C474 H470 0.929 . S
C474 C476 1.378 . S
C474 C478 1.350 . S
C475 C478 1.463 . S
C475 C480 1.350 . S
C475 N483 1.427 . S
C476 H467 0.930 . S
C476 C474 1.378 . S
C476 C477 1.367 . S
C477 C476 1.367 . S
C477 C479 1.433 . S
C478 C474 1.350 . S
C478 C475 1.463 . S
C478 N482 1.427 . S
C479 H469 0.929 . S
C479 C477 1.433 . S
C479 N482 1.384 . S
C480 H471 0.929 . S
C480 C472 1.378 . S
C480 C475 1.350 . S
C481 H468 0.929 . S
C481 C473 1.433 . S
C481 N483 1.384 . S
N482 C478 1.427 . S
N482 C479 1.384 . S
N483 C475 1.427 . S
N483 C481 1.384 . S
H484 C490 0.930 . S
H485 C494 0.930 . S
H486 C499 0.929 . S
H487 C497 0.929 . S
H488 C492 0.929 . S
H489 C498 0.929 . S
C490 H484 0.930 . S
C490 C491 1.367 . S
C490 C498 1.378 . S
C491 C490 1.367 . S
C491 C499 1.433 . S
C492 H488 0.929 . S
C492 C494 1.378 . S
C492 C496 1.350 . S
C493 C496 1.463 . S
C493 C498 1.350 . S
C493 N501 1.427 . S
C494 H485 0.930 . S
C494 C492 1.378 . S
C494 C495 1.367 . S
C495 C494 1.367 . S
C495 C497 1.433 . S
C496 C492 1.350 . S
C496 C493 1.463 . S
C496 N500 1.427 . S
C497 H487 0.929 . S
C497 C495 1.433 . S
C497 N500 1.384 . S
C498 H489 0.929 . S
C498 C490 1.378 . S
C498 C493 1.350 . S
C499 H486 0.929 . S
C499 C491 1.433 . S
C499 N501 1.384 . S
N500 C496 1.427 . S
N500 C497 1.384 . S
N501 C493 1.427 . S
N501 C499 1.384 . S
H502 C508 0.930 . S
H503 C512 0.930 . S
H504 C517 0.929 . S
H505 C515 0.929 . S
H506 C510 0.929 . S
H507 C516 0.929 . S
C508 H502 0.930 . S
C508 C509 1.367 . S
C508 C516 1.378 . S
C509 C508 1.367 . S
C509 C517 1.433 . S
C510 H506 0.929 . S
C510 C512 1.378 . S
C510 C514 1.350 . S
C511 C514 1.463 . S
C511 C516 1.350 . S
C511 N519 1.427 . S
C512 H503 0.930 . S
C512 C510 1.378 . S
C512 C513 1.367 . S
C513 C512 1.367 . S
C513 C515 1.433 . S
C514 C510 1.350 . S
C514 C511 1.463 . S
C514 N518 1.427 . S
C515 H505 0.929 . S
C515 C513 1.433 . S
C515 N518 1.384 . S
C516 H507 0.929 . S
C516 C508 1.378 . S
C516 C511 1.350 . S
C517 H504 0.929 . S
C517 C509 1.433 . S
C517 N519 1.384 . S
N518 C514 1.427 . S
N518 C515 1.384 . S
N519 C511 1.427 . S
N519 C517 1.384 . S
H520 C526 0.930 . S
H521 C530 0.930 . S
H522 C535 0.929 . S
H523 C533 0.929 . S
H524 C528 0.929 . S
H525 C534 0.929 . S
C526 H520 0.930 . S
C526 C527 1.367 . S
C526 C534 1.378 . S
C527 C526 1.367 . S
C527 C535 1.433 . S
C528 H524 0.929 . S
C528 C530 1.378 . S
C528 C532 1.350 . S
C529 C532 1.463 . S
C529 C534 1.350 . S
C529 N537 1.427 . S
C530 H521 0.930 . S
C530 C528 1.378 . S
C530 C531 1.367 . S
C531 C530 1.367 . S
C531 C533 1.433 . S
C532 C528 1.350 . S
C532 C529 1.463 . S
C532 N536 1.427 . S
C533 H523 0.929 . S
C533 C531 1.433 . S
C533 N536 1.384 . S
C534 H525 0.929 . S
C534 C526 1.378 . S
C534 C529 1.350 . S
C535 H522 0.929 . S
C535 C527 1.433 . S
C535 N537 1.384 . S
N536 C532 1.427 . S
N536 C533 1.384 . S
N537 C529 1.427 . S
N537 C535 1.384 . S
H538 C544 0.930 . S
H539 C548 0.930 . S
H540 C553 0.929 . S
H541 C551 0.929 . S
H542 C546 0.929 . S
H543 C552 0.929 . S
C544 H538 0.930 . S
C544 C545 1.367 . S
C544 C552 1.378 . S
C545 C544 1.367 . S
C545 C553 1.433 . S
C546 H542 0.929 . S
C546 C548 1.378 . S
C546 C550 1.350 . S
C547 C550 1.463 . S
C547 C552 1.350 . S
C547 N555 1.427 . S
C548 H539 0.930 . S
C548 C546 1.378 . S
C548 C549 1.367 . S
C549 C548 1.367 . S
C549 C551 1.433 . S
C550 C546 1.350 . S
C550 C547 1.463 . S
C550 N554 1.427 . S
C551 H541 0.929 . S
C551 C549 1.433 . S
C551 N554 1.384 . S
C552 H543 0.929 . S
C552 C544 1.378 . S
C552 C547 1.350 . S
C553 H540 0.929 . S
C553 C545 1.433 . S
C553 N555 1.384 . S
N554 C550 1.427 . S
N554 C551 1.384 . S
N555 C547 1.427 . S
N555 C553 1.384 . S
H556 C562 0.930 . S
H557 C566 0.930 . S
H558 C571 0.929 . S
H559 C569 0.929 . S
H560 C564 0.929 . S
H561 C570 0.929 . S
C562 H556 0.930 . S
C562 C563 1.367 . S
C562 C570 1.378 . S
C563 C562 1.367 . S
C563 C571 1.433 . S
C564 H560 0.929 . S
C564 C566 1.378 . S
C564 C568 1.350 . S
C565 C568 1.463 . S
C565 C570 1.350 . S
C565 N573 1.427 . S
C566 H557 0.930 . S
C566 C564 1.378 . S
C566 C567 1.367 . S
C567 C566 1.367 . S
C567 C569 1.433 . S
C568 C564 1.350 . S
C568 C565 1.463 . S
C568 N572 1.427 . S
C569 H559 0.929 . S
C569 C567 1.433 . S
C569 N572 1.384 . S
C570 H561 0.929 . S
C570 C562 1.378 . S
C570 C565 1.350 . S
C571 H558 0.929 . S
C571 C563 1.433 . S
C571 N573 1.384 . S
N572 C568 1.427 . S
N572 C569 1.384 . S
N573 C565 1.427 . S
N573 C571 1.384 . S
H574 C580 0.930 . S
H575 C584 0.930 . S
H576 C589 0.929 . S
H577 C587 0.929 . S
H578 C582 0.929 . S
H579 C588 0.929 . S
C580 H574 0.930 . S
C580 C581 1.367 . S
C580 C588 1.378 . S
C581 C580 1.367 . S
C581 C589 1.433 . S
C582 H578 0.929 . S
C582 C584 1.378 . S
C582 C586 1.350 . S
C583 C586 1.463 . S
C583 C588 1.350 . S
C583 N591 1.427 . S
C584 H575 0.930 . S
C584 C582 1.378 . S
C584 C585 1.367 . S
C585 C584 1.367 . S
C585 C587 1.433 . S
C586 C582 1.350 . S
C586 C583 1.463 . S
C586 N590 1.427 . S
C587 H577 0.929 . S
C587 C585 1.433 . S
C587 N590 1.384 . S
C588 H579 0.929 . S
C588 C580 1.378 . S
C588 C583 1.350 . S
C589 H576 0.929 . S
C589 C581 1.433 . S
C589 N591 1.384 . S
N590 C586 1.427 . S
N590 C587 1.384 . S
N591 C583 1.427 . S
N591 C589 1.384 . S
H592 C598 0.930 . S
H593 C602 0.930 . S
H594 C607 0.929 . S
H595 C605 0.929 . S
H596 C600 0.929 . S
H597 C606 0.929 . S
C598 H592 0.930 . S
C598 C599 1.367 . S
C598 C606 1.378 . S
C599 C598 1.367 . S
C599 C607 1.433 . S
C600 H596 0.929 . S
C600 C602 1.378 . S
C600 C604 1.350 . S
C601 C604 1.463 . S
C601 C606 1.350 . S
C601 N609 1.427 . S
C602 H593 0.930 . S
C602 C600 1.378 . S
C602 C603 1.367 . S
C603 C602 1.367 . S
C603 C605 1.433 . S
C604 C600 1.350 . S
C604 C601 1.463 . S
C604 N608 1.427 . S
C605 H595 0.929 . S
C605 C603 1.433 . S
C605 N608 1.384 . S
C606 H597 0.929 . S
C606 C598 1.378 . S
C606 C601 1.350 . S
C607 H594 0.929 . S
C607 C599 1.433 . S
C607 N609 1.384 . S
N608 C604 1.427 . S
N608 C605 1.384 . S
N609 C601 1.427 . S
N609 C607 1.384 . S
H610 C616 0.930 . S
H611 C620 0.930 . S
H612 C625 0.929 . S
H613 C623 0.929 . S
H614 C618 0.929 . S
H615 C624 0.929 . S
C616 H610 0.930 . S
C616 C617 1.367 . S
C616 C624 1.378 . S
C617 C616 1.367 . S
C617 C625 1.433 . S
C618 H614 0.929 . S
C618 C620 1.378 . S
C618 C622 1.350 . S
C619 C622 1.463 . S
C619 C624 1.350 . S
C619 N627 1.427 . S
C620 H611 0.930 . S
C620 C618 1.378 . S
C620 C621 1.367 . S
C621 C620 1.367 . S
C621 C623 1.433 . S
C622 C618 1.350 . S
C622 C619 1.463 . S
C622 N626 1.427 . S
C623 H613 0.929 . S
C623 C621 1.433 . S
C623 N626 1.384 . S
C624 H615 0.929 . S
C624 C616 1.378 . S
C624 C619 1.350 . S
C625 H612 0.929 . S
C625 C617 1.433 . S
C625 N627 1.384 . S
N626 C622 1.427 . S
N626 C623 1.384 . S
N627 C619 1.427 . S
N627 C625 1.384 . S
H628 C634 0.930 . S
H629 C638 0.930 . S
H630 C643 0.929 . S
H631 C641 0.929 . S
H632 C636 0.929 . S
H633 C642 0.929 . S
C634 H628 0.930 . S
C634 C635 1.367 . S
C634 C642 1.378 . S
C635 C634 1.367 . S
C635 C643 1.433 . S
C636 H632 0.929 . S
C636 C638 1.378 . S
C636 C640 1.350 . S
C637 C640 1.463 . S
C637 C642 1.350 . S
C637 N645 1.427 . S
C638 H629 0.930 . S
C638 C636 1.378 . S
C638 C639 1.367 . S
C639 C638 1.367 . S
C639 C641 1.433 . S
C640 C636 1.350 . S
C640 C637 1.463 . S
C640 N644 1.427 . S
C641 H631 0.929 . S
C641 C639 1.433 . S
C641 N644 1.384 . S
C642 H633 0.929 . S
C642 C634 1.378 . S
C642 C637 1.350 . S
C643 H630 0.929 . S
C643 C635 1.433 . S
C643 N645 1.384 . S
N644 C640 1.427 . S
N644 C641 1.384 . S
N645 C637 1.427 . S
N645 C643 1.384 . S
H646 C652 0.930 . S
H647 C656 0.930 . S
H648 C661 0.929 . S
H649 C659 0.929 . S
H650 C654 0.929 . S
H651 C660 0.929 . S
C652 H646 0.930 . S
C652 C653 1.367 . S
C652 C660 1.378 . S
C653 C652 1.367 . S
C653 C661 1.433 . S
C654 H650 0.929 . S
C654 C656 1.378 . S
C654 C658 1.350 . S
C655 C658 1.463 . S
C655 C660 1.350 . S
C655 N663 1.427 . S
C656 H647 0.930 . S
C656 C654 1.378 . S
C656 C657 1.367 . S
C657 C656 1.367 . S
C657 C659 1.433 . S
C658 C654 1.350 . S
C658 C655 1.463 . S
C658 N662 1.427 . S
C659 H649 0.929 . S
C659 C657 1.433 . S
C659 N662 1.384 . S
C660 H651 0.929 . S
C660 C652 1.378 . S
C660 C655 1.350 . S
C661 H648 0.929 . S
C661 C653 1.433 . S
C661 N663 1.384 . S
N662 C658 1.427 . S
N662 C659 1.384 . S
N663 C655 1.427 . S
N663 C661 1.384 . S
H664 C670 0.930 . S
H665 C674 0.930 . S
H666 C679 0.929 . S
H667 C677 0.929 . S
H668 C672 0.929 . S
H669 C678 0.929 . S
C670 H664 0.930 . S
C670 C671 1.367 . S
C670 C678 1.378 . S
C671 C670 1.367 . S
C671 C679 1.433 . S
C672 H668 0.929 . S
C672 C674 1.378 . S
C672 C676 1.350 . S
C673 C676 1.463 . S
C673 C678 1.350 . S
C673 N681 1.427 . S
C674 H665 0.930 . S
C674 C672 1.378 . S
C674 C675 1.367 . S
C675 C674 1.367 . S
C675 C677 1.433 . S
C676 C672 1.350 . S
C676 C673 1.463 . S
C676 N680 1.427 . S
C677 H667 0.929 . S
C677 C675 1.433 . S
C677 N680 1.384 . S
C678 H669 0.929 . S
C678 C670 1.378 . S
C678 C673 1.350 . S
C679 H666 0.929 . S
C679 C671 1.433 . S
C679 N681 1.384 . S
N680 C676 1.427 . S
N680 C677 1.384 . S
N681 C673 1.427 . S
N681 C679 1.384 . S
H682 C688 0.930 . S
H683 C692 0.930 . S
H684 C697 0.929 . S
H685 C695 0.929 . S
H686 C690 0.929 . S
H687 C696 0.929 . S
C688 H682 0.930 . S
C688 C689 1.367 . S
C688 C696 1.378 . S
C689 C688 1.367 . S
C689 C697 1.433 . S
C690 H686 0.929 . S
C690 C692 1.378 . S
C690 C694 1.350 . S
C691 C694 1.463 . S
C691 C696 1.350 . S
C691 N699 1.427 . S
C692 H683 0.930 . S
C692 C690 1.378 . S
C692 C693 1.367 . S
C693 C692 1.367 . S
C693 C695 1.433 . S
C694 C690 1.350 . S
C694 C691 1.463 . S
C694 N698 1.427 . S
C695 H685 0.929 . S
C695 C693 1.433 . S
C695 N698 1.384 . S
C696 H687 0.929 . S
C696 C688 1.378 . S
C696 C691 1.350 . S
C697 H684 0.929 . S
C697 C689 1.433 . S
C697 N699 1.384 . S
N698 C694 1.427 . S
N698 C695 1.384 . S
N699 C691 1.427 . S
N699 C697 1.384 . S
H700 C706 0.930 . S
H701 C710 0.930 . S
H702 C715 0.929 . S
H703 C713 0.929 . S
H704 C708 0.929 . S
H705 C714 0.929 . S
C706 H700 0.930 . S
C706 C707 1.367 . S
C706 C714 1.378 . S
C707 C706 1.367 . S
C707 C715 1.433 . S
C708 H704 0.929 . S
C708 C710 1.378 . S
C708 C712 1.350 . S
C709 C712 1.463 . S
C709 C714 1.350 . S
C709 N717 1.427 . S
C710 H701 0.930 . S
C710 C708 1.378 . S
C710 C711 1.367 . S
C711 C710 1.367 . S
C711 C713 1.433 . S
C712 C708 1.350 . S
C712 C709 1.463 . S
C712 N716 1.427 . S
C713 H703 0.929 . S
C713 C711 1.433 . S
C713 N716 1.384 . S
C714 H705 0.929 . S
C714 C706 1.378 . S
C714 C709 1.350 . S
C715 H702 0.929 . S
C715 C707 1.433 . S
C715 N717 1.384 . S
N716 C712 1.427 . S
N716 C713 1.384 . S
N717 C709 1.427 . S
N717 C715 1.384 . S
H718 C724 0.930 . S
H719 C728 0.930 . S
H720 C733 0.929 . S
H721 C731 0.929 . S
H722 C726 0.929 . S
H723 C732 0.929 . S
C724 H718 0.930 . S
C724 C725 1.367 . S
C724 C732 1.378 . S
C725 C724 1.367 . S
C725 C733 1.433 . S
C726 H722 0.929 . S
C726 C728 1.378 . S
C726 C730 1.350 . S
C727 C730 1.463 . S
C727 C732 1.350 . S
C727 N735 1.427 . S
C728 H719 0.930 . S
C728 C726 1.378 . S
C728 C729 1.367 . S
C729 C728 1.367 . S
C729 C731 1.433 . S
C730 C726 1.350 . S
C730 C727 1.463 . S
C730 N734 1.427 . S
C731 H721 0.929 . S
C731 C729 1.433 . S
C731 N734 1.384 . S
C732 H723 0.929 . S
C732 C724 1.378 . S
C732 C727 1.350 . S
C733 H720 0.929 . S
C733 C725 1.433 . S
C733 N735 1.384 . S
N734 C730 1.427 . S
N734 C731 1.384 . S
N735 C727 1.427 . S
N735 C733 1.384 . S
H736 C742 0.930 . S
H737 C746 0.930 . S
H738 C751 0.929 . S
H739 C749 0.929 . S
H740 C744 0.929 . S
H741 C750 0.929 . S
C742 H736 0.930 . S
C742 C743 1.367 . S
C742 C750 1.378 . S
C743 C742 1.367 . S
C743 C751 1.433 . S
C744 H740 0.929 . S
C744 C746 1.378 . S
C744 C748 1.350 . S
C745 C748 1.463 1_455 S
C745 C750 1.350 . S
C745 N753 1.427 . S
C746 H737 0.930 . S
C746 C744 1.378 . S
C746 C747 1.367 . S
C747 C746 1.367 . S
C747 C749 1.433 . S
C748 C744 1.350 . S
C748 C745 1.463 1_655 S
C748 N752 1.427 . S
C749 H739 0.929 . S
C749 C747 1.433 . S
C749 N752 1.384 . S
C750 H741 0.929 . S
C750 C742 1.378 . S
C750 C745 1.350 . S
C751 H738 0.929 . S
C751 C743 1.433 . S
C751 N753 1.384 . S
N752 C748 1.427 . S
N752 C749 1.384 . S
N753 C745 1.427 . S
N753 C751 1.384 . S
H754 C760 0.930 . S
H755 C764 0.930 . S
H756 C769 0.929 . S
H757 C767 0.929 . S
H758 C762 0.929 . S
H759 C768 0.929 . S
C760 H754 0.930 . S
C760 C761 1.367 . S
C760 C768 1.378 . S
C761 C760 1.367 . S
C761 C769 1.433 . S
C762 H758 0.929 . S
C762 C764 1.378 . S
C762 C766 1.350 . S
C763 C766 1.463 . S
C763 C768 1.350 . S
C763 N771 1.427 . S
C764 H755 0.930 . S
C764 C762 1.378 . S
C764 C765 1.367 . S
C765 C764 1.367 . S
C765 C767 1.433 . S
C766 C762 1.350 . S
C766 C763 1.463 . S
C766 N770 1.427 . S
C767 H757 0.929 . S
C767 C765 1.433 . S
C767 N770 1.384 . S
C768 H759 0.929 . S
C768 C760 1.378 . S
C768 C763 1.350 . S
C769 H756 0.929 . S
C769 C761 1.433 . S
C769 N771 1.384 . S
N770 C766 1.427 . S
N770 C767 1.384 . S
N771 C763 1.427 . S
N771 C769 1.384 . S
H772 C778 0.930 . S
H773 C782 0.930 . S
H774 C787 0.929 . S
H775 C785 0.929 . S
H776 C780 0.929 . S
H777 C786 0.929 . S
C778 H772 0.930 . S
C778 C779 1.367 . S
C778 C786 1.378 . S
C779 C778 1.367 . S
C779 C787 1.433 . S
C780 H776 0.929 . S
C780 C782 1.378 . S
C780 C784 1.350 . S
C781 C784 1.463 . S
C781 C786 1.350 . S
C781 N789 1.427 . S
C782 H773 0.930 . S
C782 C780 1.378 . S
C782 C783 1.367 . S
C783 C782 1.367 . S
C783 C785 1.433 . S
C784 C780 1.350 . S
C784 C781 1.463 . S
C784 N788 1.427 . S
C785 H775 0.929 . S
C785 C783 1.433 . S
C785 N788 1.384 . S
C786 H777 0.929 . S
C786 C778 1.378 . S
C786 C781 1.350 . S
C787 H774 0.929 . S
C787 C779 1.433 . S
C787 N789 1.384 . S
N788 C784 1.427 . S
N788 C785 1.384 . S
N789 C781 1.427 . S
N789 C787 1.384 . S
H790 C796 0.930 . S
H791 C800 0.930 . S
H792 C805 0.929 . S
H793 C803 0.929 . S
H794 C798 0.929 . S
H795 C804 0.929 . S
C796 H790 0.930 . S
C796 C797 1.367 . S
C796 C804 1.378 . S
C797 C796 1.367 . S
C797 C805 1.433 . S
C798 H794 0.929 . S
C798 C800 1.378 . S
C798 C802 1.350 . S
C799 C802 1.463 . S
C799 C804 1.350 . S
C799 N807 1.427 . S
C800 H791 0.930 . S
C800 C798 1.378 . S
C800 C801 1.367 . S
C801 C800 1.367 . S
C801 C803 1.433 . S
C802 C798 1.350 . S
C802 C799 1.463 . S
C802 N806 1.427 . S
C803 H793 0.929 . S
C803 C801 1.433 . S
C803 N806 1.384 . S
C804 H795 0.929 . S
C804 C796 1.378 . S
C804 C799 1.350 . S
C805 H792 0.929 . S
C805 C797 1.433 . S
C805 N807 1.384 . S
N806 C802 1.427 . S
N806 C803 1.384 . S
N807 C799 1.427 . S
N807 C805 1.384 . S
H808 C814 0.930 . S
H809 C818 0.930 . S
H810 C823 0.929 . S
H811 C821 0.929 . S
H812 C816 0.929 . S
H813 C822 0.929 . S
C814 H808 0.930 . S
C814 C815 1.367 . S
C814 C822 1.378 . S
C815 C814 1.367 . S
C815 C823 1.433 . S
C816 H812 0.929 . S
C816 C818 1.378 . S
C816 C820 1.350 . S
C817 C820 1.463 1_655 S
C817 C822 1.350 . S
C817 N825 1.427 . S
C818 H809 0.930 . S
C818 C816 1.378 . S
C818 C819 1.367 . S
C819 C818 1.367 . S
C819 C821 1.433 . S
C820 C816 1.350 . S
C820 C817 1.463 1_455 S
C820 N824 1.427 . S
C821 H811 0.929 . S
C821 C819 1.433 . S
C821 N824 1.384 . S
C822 H813 0.929 . S
C822 C814 1.378 . S
C822 C817 1.350 . S
C823 H810 0.929 . S
C823 C815 1.433 . S
C823 N825 1.384 . S
N824 C820 1.427 . S
N824 C821 1.384 . S
N825 C817 1.427 . S
N825 C823 1.384 . S
H826 C832 0.930 . S
H827 C836 0.930 . S
H828 C841 0.929 . S
H829 C839 0.929 . S
H830 C834 0.929 . S
H831 C840 0.929 . S
C832 H826 0.930 . S
C832 C833 1.367 . S
C832 C840 1.378 . S
C833 C832 1.367 . S
C833 C841 1.433 . S
C834 H830 0.929 . S
C834 C836 1.378 . S
C834 C838 1.350 . S
C835 C838 1.463 . S
C835 C840 1.350 . S
C835 N843 1.427 . S
C836 H827 0.930 . S
C836 C834 1.378 . S
C836 C837 1.367 . S
C837 C836 1.367 . S
C837 C839 1.433 . S
C838 C834 1.350 . S
C838 C835 1.463 . S
C838 N842 1.427 . S
C839 H829 0.929 . S
C839 C837 1.433 . S
C839 N842 1.384 . S
C840 H831 0.929 . S
C840 C832 1.378 . S
C840 C835 1.350 . S
C841 H828 0.929 . S
C841 C833 1.433 . S
C841 N843 1.384 . S
N842 C838 1.427 . S
N842 C839 1.384 . S
N843 C835 1.427 . S
N843 C841 1.384 . S
H844 C850 0.930 . S
H845 C854 0.930 . S
H846 C859 0.929 . S
H847 C857 0.929 . S
H848 C852 0.929 . S
H849 C858 0.929 . S
C850 H844 0.930 . S
C850 C851 1.367 . S
C850 C858 1.378 . S
C851 C850 1.367 . S
C851 C859 1.433 . S
C852 H848 0.929 . S
C852 C854 1.378 . S
C852 C856 1.350 . S
C853 C856 1.463 . S
C853 C858 1.350 . S
C853 N861 1.427 . S
C854 H845 0.930 . S
C854 C852 1.378 . S
C854 C855 1.367 . S
C855 C854 1.367 . S
C855 C857 1.433 . S
C856 C852 1.350 . S
C856 C853 1.463 . S
C856 N860 1.427 . S
C857 H847 0.929 . S
C857 C855 1.433 . S
C857 N860 1.384 . S
C858 H849 0.929 . S
C858 C850 1.378 . S
C858 C853 1.350 . S
C859 H846 0.929 . S
C859 C851 1.433 . S
C859 N861 1.384 . S
N860 C856 1.427 . S
N860 C857 1.384 . S
N861 C853 1.427 . S
N861 C859 1.384 . S
H862 C868 0.930 . S
H863 C872 0.930 . S
H864 C877 0.929 . S
H865 C875 0.929 . S
H866 C870 0.929 . S
H867 C876 0.929 . S
C868 H862 0.930 . S
C868 C869 1.367 . S
C868 C876 1.378 . S
C869 C868 1.367 . S
C869 C877 1.433 . S
C870 H866 0.929 . S
C870 C872 1.378 . S
C870 C874 1.350 . S
C871 C874 1.463 . S
C871 C876 1.350 . S
C871 N879 1.427 . S
C872 H863 0.930 . S
C872 C870 1.378 . S
C872 C873 1.367 . S
C873 C872 1.367 . S
C873 C875 1.433 . S
C874 C870 1.350 . S
C874 C871 1.463 . S
C874 N878 1.427 . S
C875 H865 0.929 . S
C875 C873 1.433 . S
C875 N878 1.384 . S
C876 H867 0.929 . S
C876 C868 1.378 . S
C876 C871 1.350 . S
C877 H864 0.929 . S
C877 C869 1.433 . S
C877 N879 1.384 . S
N878 C874 1.427 . S
N878 C875 1.384 . S
N879 C871 1.427 . S
N879 C877 1.384 . S
H880 C886 0.930 . S
H881 C890 0.930 . S
H882 C895 0.929 . S
H883 C893 0.929 . S
H884 C888 0.929 . S
H885 C894 0.929 . S
C886 H880 0.930 . S
C886 C887 1.367 . S
C886 C894 1.378 . S
C887 C886 1.367 . S
C887 C895 1.433 . S
C888 H884 0.929 . S
C888 C890 1.378 . S
C888 C892 1.350 . S
C889 C892 1.463 . S
C889 C894 1.350 . S
C889 N897 1.427 . S
C890 H881 0.930 . S
C890 C888 1.378 . S
C890 C891 1.367 . S
C891 C890 1.367 . S
C891 C893 1.433 . S
C892 C888 1.350 . S
C892 C889 1.463 . S
C892 N896 1.427 . S
C893 H883 0.929 . S
C893 C891 1.433 . S
C893 N896 1.384 . S
C894 H885 0.929 . S
C894 C886 1.378 . S
C894 C889 1.350 . S
C895 H882 0.929 . S
C895 C887 1.433 . S
C895 N897 1.384 . S
N896 C892 1.427 . S
N896 C893 1.384 . S
N897 C889 1.427 . S
N897 C895 1.384 . S
H898 C904 0.930 . S
H899 C908 0.930 . S
H900 C913 0.929 . S
H901 C911 0.929 . S
H902 C906 0.929 . S
H903 C912 0.929 . S
C904 H898 0.930 . S
C904 C905 1.367 . S
C904 C912 1.378 . S
C905 C904 1.367 . S
C905 C913 1.433 . S
C906 H902 0.929 . S
C906 C908 1.378 . S
C906 C910 1.350 . S
C907 C910 1.463 . S
C907 C912 1.350 . S
C907 N915 1.427 . S
C908 H899 0.930 . S
C908 C906 1.378 . S
C908 C909 1.367 . S
C909 C908 1.367 . S
C909 C911 1.433 . S
C910 C906 1.350 . S
C910 C907 1.463 . S
C910 N914 1.427 . S
C911 H901 0.929 . S
C911 C909 1.433 . S
C911 N914 1.384 . S
C912 H903 0.929 . S
C912 C904 1.378 . S
C912 C907 1.350 . S
C913 H900 0.929 . S
C913 C905 1.433 . S
C913 N915 1.384 . S
N914 C910 1.427 . S
N914 C911 1.384 . S
N915 C907 1.427 . S
N915 C913 1.384 . S
H916 C922 0.930 . S
H917 C926 0.930 . S
H918 C931 0.929 . S
H919 C929 0.929 . S
H920 C924 0.929 . S
H921 C930 0.929 . S
C922 H916 0.930 . S
C922 C923 1.367 . S
C922 C930 1.378 . S
C923 C922 1.367 . S
C923 C931 1.433 . S
C924 H920 0.929 . S
C924 C926 1.378 . S
C924 C928 1.350 . S
C925 C928 1.463 . S
C925 C930 1.350 . S
C925 N933 1.427 . S
C926 H917 0.930 . S
C926 C924 1.378 . S
C926 C927 1.367 . S
C927 C926 1.367 . S
C927 C929 1.433 . S
C928 C924 1.350 . S
C928 C925 1.463 . S
C928 N932 1.427 . S
C929 H919 0.929 . S
C929 C927 1.433 . S
C929 N932 1.384 . S
C930 H921 0.929 . S
C930 C922 1.378 . S
C930 C925 1.350 . S
C931 H918 0.929 . S
C931 C923 1.433 . S
C931 N933 1.384 . S
N932 C928 1.427 . S
N932 C929 1.384 . S
N933 C925 1.427 . S
N933 C931 1.384 . S
H934 C940 0.930 . S
H935 C944 0.930 . S
H936 C949 0.929 . S
H937 C947 0.929 . S
H938 C942 0.929 . S
H939 C948 0.929 . S
C940 H934 0.930 . S
C940 C941 1.367 . S
C940 C948 1.378 . S
C941 C940 1.367 . S
C941 C949 1.433 . S
C942 H938 0.929 . S
C942 C944 1.378 . S
C942 C946 1.350 . S
C943 C946 1.463 . S
C943 C948 1.350 . S
C943 N951 1.427 . S
C944 H935 0.930 . S
C944 C942 1.378 . S
C944 C945 1.367 . S
C945 C944 1.367 . S
C945 C947 1.433 . S
C946 C942 1.350 . S
C946 C943 1.463 . S
C946 N950 1.427 . S
C947 H937 0.929 . S
C947 C945 1.433 . S
C947 N950 1.384 . S
C948 H939 0.929 . S
C948 C940 1.378 . S
C948 C943 1.350 . S
C949 H936 0.929 . S
C949 C941 1.433 . S
C949 N951 1.384 . S
N950 C946 1.427 . S
N950 C947 1.384 . S
N951 C943 1.427 . S
N951 C949 1.384 . S
H952 C958 0.930 . S
H953 C962 0.930 . S
H954 C967 0.929 . S
H955 C965 0.929 . S
H956 C960 0.929 . S
H957 C966 0.929 . S
C958 H952 0.930 . S
C958 C959 1.367 . S
C958 C966 1.378 . S
C959 C958 1.367 . S
C959 C967 1.433 . S
C960 H956 0.929 . S
C960 C962 1.378 . S
C960 C964 1.350 . S
C961 C964 1.463 . S
C961 C966 1.350 . S
C961 N969 1.427 . S
C962 H953 0.930 . S
C962 C960 1.378 . S
C962 C963 1.367 . S
C963 C962 1.367 . S
C963 C965 1.433 . S
C964 C960 1.350 . S
C964 C961 1.463 . S
C964 N968 1.427 . S
C965 H955 0.929 . S
C965 C963 1.433 . S
C965 N968 1.384 . S
C966 H957 0.929 . S
C966 C958 1.378 . S
C966 C961 1.350 . S
C967 H954 0.929 . S
C967 C959 1.433 . S
C967 N969 1.384 . S
N968 C964 1.427 . S
N968 C965 1.384 . S
N969 C961 1.427 . S
N969 C967 1.384 . S
H970 C976 0.930 . S
H971 C980 0.930 . S
H972 C985 0.929 . S
H973 C983 0.929 . S
H974 C978 0.929 . S
H975 C984 0.929 . S
C976 H970 0.930 . S
C976 C977 1.367 . S
C976 C984 1.378 . S
C977 C976 1.367 . S
C977 C985 1.433 . S
C978 H974 0.929 . S
C978 C980 1.378 . S
C978 C982 1.350 . S
C979 C982 1.463 1_655 S
C979 C984 1.350 . S
C979 N987 1.427 . S
C980 H971 0.930 . S
C980 C978 1.378 . S
C980 C981 1.367 . S
C981 C980 1.367 . S
C981 C983 1.433 . S
C982 C978 1.350 . S
C982 C979 1.463 1_455 S
C982 N986 1.427 . S
C983 H973 0.929 . S
C983 C981 1.433 . S
C983 N986 1.384 . S
C984 H975 0.929 . S
C984 C976 1.378 . S
C984 C979 1.350 . S
C985 H972 0.929 . S
C985 C977 1.433 . S
C985 N987 1.384 . S
N986 C982 1.427 . S
N986 C983 1.384 . S
N987 C979 1.427 . S
N987 C985 1.384 . S
H988 C994 0.930 . S
H989 C998 0.930 . S
H990 C1003 0.929 . S
H991 C1001 0.929 . S
H992 C996 0.929 . S
H993 C1002 0.929 . S
C994 H988 0.930 . S
C994 C995 1.367 . S
C994 C1002 1.378 . S
C995 C994 1.367 . S
C995 C1003 1.433 . S
C996 H992 0.929 . S
C996 C998 1.378 . S
C996 C1000 1.350 . S
C997 C1000 1.463 . S
C997 C1002 1.350 . S
C997 N1005 1.427 . S
C998 H989 0.930 . S
C998 C996 1.378 . S
C998 C999 1.367 . S
C999 C998 1.367 . S
C999 C1001 1.433 . S
C1000 C996 1.350 . S
C1000 C997 1.463 . S
C1000 N1004 1.427 . S
C1001 H991 0.929 . S
C1001 C999 1.433 . S
C1001 N1004 1.384 . S
C1002 H993 0.929 . S
C1002 C994 1.378 . S
C1002 C997 1.350 . S
C1003 H990 0.929 . S
C1003 C995 1.433 . S
C1003 N1005 1.384 . S
N1004 C1000 1.427 . S
N1004 C1001 1.384 . S
N1005 C997 1.427 . S
N1005 C1003 1.384 . S
H1006 C1012 0.930 . S
H1007 C1016 0.930 . S
H1008 C1021 0.929 . S
H1009 C1019 0.929 . S
H1010 C1014 0.929 . S
H1011 C1020 0.929 . S
C1012 H1006 0.930 . S
C1012 C1013 1.367 . S
C1012 C1020 1.378 . S
C1013 C1012 1.367 . S
C1013 C1021 1.433 . S
C1014 H1010 0.929 . S
C1014 C1016 1.378 . S
C1014 C1018 1.350 . S
C1015 C1018 1.463 1_455 S
C1015 C1020 1.350 . S
C1015 N1023 1.427 . S
C1016 H1007 0.930 . S
C1016 C1014 1.378 . S
C1016 C1017 1.367 . S
C1017 C1016 1.367 . S
C1017 C1019 1.433 . S
C1018 C1014 1.350 . S
C1018 C1015 1.463 1_655 S
C1018 N1022 1.427 . S
C1019 H1009 0.929 . S
C1019 C1017 1.433 . S
C1019 N1022 1.384 . S
C1020 H1011 0.929 . S
C1020 C1012 1.378 . S
C1020 C1015 1.350 . S
C1021 H1008 0.929 . S
C1021 C1013 1.433 . S
C1021 N1023 1.384 . S
N1022 C1018 1.427 . S
N1022 C1019 1.384 . S
N1023 C1015 1.427 . S
N1023 C1021 1.384 . S
H1024 C1030 0.958 . S
H1025 C1034 0.958 . S
H1026 C1039 0.929 . S
H1027 C1037 0.929 . S
H1028 C1032 0.929 . S
H1029 C1038 0.929 . S
C1030 H1024 0.958 . S
C1030 C1031 1.323 1_554 S
C1030 C1038 1.396 . S
C1031 C1030 1.323 1_556 S
C1031 C1039 1.433 . S
C1032 H1028 0.929 . S
C1032 C1034 1.395 . S
C1032 C1036 1.350 1_556 S
C1033 C1036 1.463 1_556 S
C1033 C1038 1.350 1_556 S
C1033 N1041 1.427 . S
C1034 H1025 0.958 . S
C1034 C1032 1.395 . S
C1034 C1035 1.323 1_556 S
C1035 C1034 1.323 1_554 S
C1035 C1037 1.433 . S
C1036 C1032 1.350 1_554 S
C1036 C1033 1.463 1_554 S
C1036 N1040 1.427 . S
C1037 H1027 0.929 . S
C1037 C1035 1.433 . S
C1037 N1040 1.384 . S
C1038 H1029 0.929 . S
C1038 C1030 1.396 . S
C1038 C1033 1.350 1_554 S
C1039 H1026 0.929 . S
C1039 C1031 1.433 . S
C1039 N1041 1.384 . S
N1040 C1036 1.427 . S
N1040 C1037 1.384 . S
N1041 C1033 1.427 . S
N1041 C1039 1.384 . S
H1042 C1048 0.930 . S
H1043 C1052 0.930 . S
H1044 C1057 0.929 . S
H1045 C1055 0.929 . S
H1046 C1050 0.929 . S
H1047 C1056 0.929 . S
C1048 H1042 0.930 . S
C1048 C1049 1.367 . S
C1048 C1056 1.378 . S
C1049 C1048 1.367 . S
C1049 C1057 1.433 . S
C1050 H1046 0.929 . S
C1050 C1052 1.378 . S
C1050 C1054 1.350 . S
C1051 C1054 1.463 . S
C1051 C1056 1.350 . S
C1051 N1059 1.427 . S
C1052 H1043 0.930 . S
C1052 C1050 1.378 . S
C1052 C1053 1.367 . S
C1053 C1052 1.367 . S
C1053 C1055 1.433 . S
C1054 C1050 1.350 . S
C1054 C1051 1.463 . S
C1054 N1058 1.427 . S
C1055 H1045 0.929 . S
C1055 C1053 1.433 . S
C1055 N1058 1.384 . S
C1056 H1047 0.929 . S
C1056 C1048 1.378 . S
C1056 C1051 1.350 . S
C1057 H1044 0.929 . S
C1057 C1049 1.433 . S
C1057 N1059 1.384 . S
N1058 C1054 1.427 . S
N1058 C1055 1.384 . S
N1059 C1051 1.427 . S
N1059 C1057 1.384 . S
H1060 C1066 0.930 . S
H1061 C1070 0.930 . S
H1062 C1075 0.929 . S
H1063 C1073 0.929 . S
H1064 C1068 0.929 . S
H1065 C1074 0.929 . S
C1066 H1060 0.930 . S
C1066 C1067 1.367 . S
C1066 C1074 1.378 . S
C1067 C1066 1.367 . S
C1067 C1075 1.433 . S
C1068 H1064 0.929 . S
C1068 C1070 1.378 . S
C1068 C1072 1.350 . S
C1069 C1072 1.463 . S
C1069 C1074 1.350 . S
C1069 N1077 1.427 . S
C1070 H1061 0.930 . S
C1070 C1068 1.378 . S
C1070 C1071 1.367 . S
C1071 C1070 1.367 . S
C1071 C1073 1.433 . S
C1072 C1068 1.350 . S
C1072 C1069 1.463 . S
C1072 N1076 1.427 . S
C1073 H1063 0.929 . S
C1073 C1071 1.433 . S
C1073 N1076 1.384 . S
C1074 H1065 0.929 . S
C1074 C1066 1.378 . S
C1074 C1069 1.350 . S
C1075 H1062 0.929 . S
C1075 C1067 1.433 . S
C1075 N1077 1.384 . S
N1076 C1072 1.427 . S
N1076 C1073 1.384 . S
N1077 C1069 1.427 . S
N1077 C1075 1.384 . S
H1078 C1084 0.930 . S
H1079 C1088 0.930 . S
H1080 C1093 0.929 . S
H1081 C1091 0.929 . S
H1082 C1086 0.929 . S
H1083 C1092 0.929 . S
C1084 H1078 0.930 . S
C1084 C1085 1.367 . S
C1084 C1092 1.378 . S
C1085 C1084 1.367 . S
C1085 C1093 1.433 . S
C1086 H1082 0.929 . S
C1086 C1088 1.378 . S
C1086 C1090 1.350 . S
C1087 C1090 1.463 . S
C1087 C1092 1.350 . S
C1087 N1095 1.427 . S
C1088 H1079 0.930 . S
C1088 C1086 1.378 . S
C1088 C1089 1.367 . S
C1089 C1088 1.367 . S
C1089 C1091 1.433 . S
C1090 C1086 1.350 . S
C1090 C1087 1.463 . S
C1090 N1094 1.427 . S
C1091 H1081 0.929 . S
C1091 C1089 1.433 . S
C1091 N1094 1.384 . S
C1092 H1083 0.929 . S
C1092 C1084 1.378 . S
C1092 C1087 1.350 . S
C1093 H1080 0.929 . S
C1093 C1085 1.433 . S
C1093 N1095 1.384 . S
N1094 C1090 1.427 . S
N1094 C1091 1.384 . S
N1095 C1087 1.427 . S
N1095 C1093 1.384 . S
H1096 C1102 0.930 . S
H1097 C1106 0.930 . S
H1098 C1111 0.929 . S
H1099 C1109 0.929 . S
H1100 C1104 0.929 . S
H1101 C1110 0.929 . S
C1102 H1096 0.930 . S
C1102 C1103 1.367 . S
C1102 C1110 1.378 . S
C1103 C1102 1.367 . S
C1103 C1111 1.433 1_554 S
C1104 H1100 0.929 . S
C1104 C1106 1.378 . S
C1104 C1108 1.350 . S
C1105 C1108 1.463 1_554 S
C1105 C1110 1.350 . S
C1105 N1113 1.427 1_554 S
C1106 H1097 0.930 . S
C1106 C1104 1.378 . S
C1106 C1107 1.367 . S
C1107 C1106 1.367 . S
C1107 C1109 1.433 1_556 S
C1108 C1104 1.350 . S
C1108 C1105 1.463 1_556 S
C1108 N1112 1.427 1_556 S
C1109 H1099 0.929 . S
C1109 C1107 1.433 1_554 S
C1109 N1112 1.384 . S
C1110 H1101 0.929 . S
C1110 C1102 1.378 . S
C1110 C1105 1.350 . S
C1111 H1098 0.929 . S
C1111 C1103 1.433 1_556 S
C1111 N1113 1.384 . S
N1112 C1108 1.427 1_554 S
N1112 C1109 1.384 . S
N1113 C1105 1.427 1_556 S
N1113 C1111 1.384 . S
H1114 C1120 0.930 . S
H1115 C1124 0.930 . S
H1116 C1129 0.929 . S
H1117 C1127 0.929 . S
H1118 C1122 0.929 . S
H1119 C1128 0.929 . S
C1120 H1114 0.930 . S
C1120 C1121 1.367 . S
C1120 C1128 1.378 . S
C1121 C1120 1.367 . S
C1121 C1129 1.433 . S
C1122 H1118 0.929 . S
C1122 C1124 1.378 . S
C1122 C1126 1.350 . S
C1123 C1126 1.463 . S
C1123 C1128 1.350 . S
C1123 N1131 1.427 . S
C1124 H1115 0.930 . S
C1124 C1122 1.378 . S
C1124 C1125 1.367 . S
C1125 C1124 1.367 . S
C1125 C1127 1.433 . S
C1126 C1122 1.350 . S
C1126 C1123 1.463 . S
C1126 N1130 1.427 . S
C1127 H1117 0.929 . S
C1127 C1125 1.433 . S
C1127 N1130 1.384 . S
C1128 H1119 0.929 . S
C1128 C1120 1.378 . S
C1128 C1123 1.350 . S
C1129 H1116 0.929 . S
C1129 C1121 1.433 . S
C1129 N1131 1.384 . S
N1130 C1126 1.427 . S
N1130 C1127 1.384 . S
N1131 C1123 1.427 . S
N1131 C1129 1.384 . S
H1132 C1138 0.930 . S
H1133 C1142 0.930 . S
H1134 C1147 0.929 . S
H1135 C1145 0.929 . S
H1136 C1140 0.929 . S
H1137 C1146 0.929 . S
C1138 H1132 0.930 . S
C1138 C1139 1.367 . S
C1138 C1146 1.378 . S
C1139 C1138 1.367 . S
C1139 C1147 1.433 . S
C1140 H1136 0.929 . S
C1140 C1142 1.378 . S
C1140 C1144 1.350 . S
C1141 C1144 1.463 . S
C1141 C1146 1.350 . S
C1141 N1149 1.427 . S
C1142 H1133 0.930 . S
C1142 C1140 1.378 . S
C1142 C1143 1.367 . S
C1143 C1142 1.367 . S
C1143 C1145 1.433 . S
C1144 C1140 1.350 . S
C1144 C1141 1.463 . S
C1144 N1148 1.427 . S
C1145 H1135 0.929 . S
C1145 C1143 1.433 . S
C1145 N1148 1.384 . S
C1146 H1137 0.929 . S
C1146 C1138 1.378 . S
C1146 C1141 1.350 . S
C1147 H1134 0.929 . S
C1147 C1139 1.433 . S
C1147 N1149 1.384 . S
N1148 C1144 1.427 . S
N1148 C1145 1.384 . S
N1149 C1141 1.427 . S
N1149 C1147 1.384 . S
H1150 C1156 0.930 . S
H1151 C1160 0.930 . S
H1152 C1165 0.929 . S
H1153 C1163 0.929 . S
H1154 C1158 0.929 . S
H1155 C1164 0.929 . S
C1156 H1150 0.930 . S
C1156 C1157 1.367 . S
C1156 C1164 1.378 . S
C1157 C1156 1.367 . S
C1157 C1165 1.433 . S
C1158 H1154 0.929 . S
C1158 C1160 1.378 . S
C1158 C1162 1.350 . S
C1159 C1162 1.463 . S
C1159 C1164 1.350 . S
C1159 N1167 1.427 . S
C1160 H1151 0.930 . S
C1160 C1158 1.378 . S
C1160 C1161 1.367 . S
C1161 C1160 1.367 . S
C1161 C1163 1.433 . S
C1162 C1158 1.350 . S
C1162 C1159 1.463 . S
C1162 N1166 1.427 . S
C1163 H1153 0.929 . S
C1163 C1161 1.433 . S
C1163 N1166 1.384 . S
C1164 H1155 0.929 . S
C1164 C1156 1.378 . S
C1164 C1159 1.350 . S
C1165 H1152 0.929 . S
C1165 C1157 1.433 . S
C1165 N1167 1.384 . S
N1166 C1162 1.427 . S
N1166 C1163 1.384 . S
N1167 C1159 1.427 . S
N1167 C1165 1.384 . S
H1168 C1174 0.930 . S
H1169 C1178 0.930 . S
H1170 C1183 0.929 . S
H1171 C1181 0.929 . S
H1172 C1176 0.929 . S
H1173 C1182 0.929 . S
C1174 H1168 0.930 . S
C1174 C1175 1.367 . S
C1174 C1182 1.378 . S
C1175 C1174 1.367 . S
C1175 C1183 1.433 . S
C1176 H1172 0.929 . S
C1176 C1178 1.378 . S
C1176 C1180 1.350 . S
C1177 C1180 1.463 1_545 S
C1177 C1182 1.350 . S
C1177 N1185 1.427 . S
C1178 H1169 0.930 . S
C1178 C1176 1.378 . S
C1178 C1179 1.367 . S
C1179 C1178 1.367 . S
C1179 C1181 1.433 . S
C1180 C1176 1.350 . S
C1180 C1177 1.463 1_565 S
C1180 N1184 1.427 . S
C1181 H1171 0.929 . S
C1181 C1179 1.433 . S
C1181 N1184 1.384 . S
C1182 H1173 0.929 . S
C1182 C1174 1.378 . S
C1182 C1177 1.350 . S
C1183 H1170 0.929 . S
C1183 C1175 1.433 . S
C1183 N1185 1.384 . S
N1184 C1180 1.427 . S
N1184 C1181 1.384 . S
N1185 C1177 1.427 . S
N1185 C1183 1.384 . S
H1186 C1192 0.930 . S
H1187 C1196 0.930 . S
H1188 C1201 0.929 . S
H1189 C1199 0.929 . S
H1190 C1194 0.929 . S
H1191 C1200 0.929 . S
C1192 H1186 0.930 . S
C1192 C1193 1.367 . S
C1192 C1200 1.378 . S
C1193 C1192 1.367 . S
C1193 C1201 1.433 . S
C1194 H1190 0.929 . S
C1194 C1196 1.378 . S
C1194 C1198 1.350 . S
C1195 C1198 1.463 . S
C1195 C1200 1.350 . S
C1195 N1203 1.427 . S
C1196 H1187 0.930 . S
C1196 C1194 1.378 . S
C1196 C1197 1.367 . S
C1197 C1196 1.367 . S
C1197 C1199 1.433 . S
C1198 C1194 1.350 . S
C1198 C1195 1.463 . S
C1198 N1202 1.427 . S
C1199 H1189 0.929 . S
C1199 C1197 1.433 . S
C1199 N1202 1.384 . S
C1200 H1191 0.929 . S
C1200 C1192 1.378 . S
C1200 C1195 1.350 . S
C1201 H1188 0.929 . S
C1201 C1193 1.433 . S
C1201 N1203 1.384 . S
N1202 C1198 1.427 . S
N1202 C1199 1.384 . S
N1203 C1195 1.427 . S
N1203 C1201 1.384 . S
H1204 C1210 0.930 . S
H1205 C1214 0.930 . S
H1206 C1219 0.929 . S
H1207 C1217 0.929 . S
H1208 C1212 0.929 . S
H1209 C1218 0.929 . S
C1210 H1204 0.930 . S
C1210 C1211 1.367 1_556 S
C1210 C1218 1.378 . S
C1211 C1210 1.367 1_554 S
C1211 C1219 1.433 . S
C1212 H1208 0.929 . S
C1212 C1214 1.378 . S
C1212 C1216 1.350 1_554 S
C1213 C1216 1.463 1_564 S
C1213 C1218 1.350 1_554 S
C1213 N1221 1.427 . S
C1214 H1205 0.930 . S
C1214 C1212 1.378 . S
C1214 C1215 1.367 1_554 S
C1215 C1214 1.367 1_556 S
C1215 C1217 1.433 . S
C1216 C1212 1.350 1_556 S
C1216 C1213 1.463 1_546 S
C1216 N1220 1.427 . S
C1217 H1207 0.929 . S
C1217 C1215 1.433 . S
C1217 N1220 1.384 . S
C1218 H1209 0.929 . S
C1218 C1210 1.378 . S
C1218 C1213 1.350 1_556 S
C1219 H1206 0.929 . S
C1219 C1211 1.433 . S
C1219 N1221 1.384 . S
N1220 C1216 1.427 . S
N1220 C1217 1.384 . S
N1221 C1213 1.427 . S
N1221 C1219 1.384 . S
H1222 C1228 0.930 . S
H1223 C1232 0.930 . S
H1224 C1237 0.929 . S
H1225 C1235 0.929 . S
H1226 C1230 0.929 . S
H1227 C1236 0.929 . S
C1228 H1222 0.930 . S
C1228 C1229 1.367 . S
C1228 C1236 1.378 . S
C1229 C1228 1.367 . S
C1229 C1237 1.433 . S
C1230 H1226 0.929 . S
C1230 C1232 1.378 . S
C1230 C1234 1.350 . S
C1231 C1234 1.463 . S
C1231 C1236 1.350 . S
C1231 N1239 1.427 . S
C1232 H1223 0.930 . S
C1232 C1230 1.378 . S
C1232 C1233 1.367 . S
C1233 C1232 1.367 . S
C1233 C1235 1.433 . S
C1234 C1230 1.350 . S
C1234 C1231 1.463 . S
C1234 N1238 1.427 . S
C1235 H1225 0.929 . S
C1235 C1233 1.433 . S
C1235 N1238 1.384 . S
C1236 H1227 0.929 . S
C1236 C1228 1.378 . S
C1236 C1231 1.350 . S
C1237 H1224 0.929 . S
C1237 C1229 1.433 . S
C1237 N1239 1.384 . S
N1238 C1234 1.427 . S
N1238 C1235 1.384 . S
N1239 C1231 1.427 . S
N1239 C1237 1.384 . S
H1240 C1246 0.930 . S
H1241 C1250 0.930 . S
H1242 C1255 0.929 . S
H1243 C1253 0.929 . S
H1244 C1248 0.929 . S
H1245 C1254 0.929 . S
C1246 H1240 0.930 . S
C1246 C1247 1.367 . S
C1246 C1254 1.378 . S
C1247 C1246 1.367 . S
C1247 C1255 1.433 . S
C1248 H1244 0.929 . S
C1248 C1250 1.378 . S
C1248 C1252 1.350 . S
C1249 C1252 1.463 1_545 S
C1249 C1254 1.350 . S
C1249 N1257 1.427 . S
C1250 H1241 0.930 . S
C1250 C1248 1.378 . S
C1250 C1251 1.367 . S
C1251 C1250 1.367 . S
C1251 C1253 1.433 . S
C1252 C1248 1.350 . S
C1252 C1249 1.463 1_565 S
C1252 N1256 1.427 . S
C1253 H1243 0.929 . S
C1253 C1251 1.433 . S
C1253 N1256 1.384 . S
C1254 H1245 0.929 . S
C1254 C1246 1.378 . S
C1254 C1249 1.350 . S
C1255 H1242 0.929 . S
C1255 C1247 1.433 . S
C1255 N1257 1.384 . S
N1256 C1252 1.427 . S
N1256 C1253 1.384 . S
N1257 C1249 1.427 . S
N1257 C1255 1.384 . S
H1258 C1264 0.930 . S
H1259 C1268 0.930 . S
H1260 C1273 0.929 . S
H1261 C1271 0.929 . S
H1262 C1266 0.929 . S
H1263 C1272 0.929 . S
C1264 H1258 0.930 . S
C1264 C1265 1.367 . S
C1264 C1272 1.378 . S
C1265 C1264 1.367 . S
C1265 C1273 1.433 . S
C1266 H1262 0.929 . S
C1266 C1268 1.378 . S
C1266 C1270 1.350 . S
C1267 C1270 1.463 . S
C1267 C1272 1.350 . S
C1267 N1275 1.427 . S
C1268 H1259 0.930 . S
C1268 C1266 1.378 . S
C1268 C1269 1.367 . S
C1269 C1268 1.367 . S
C1269 C1271 1.433 . S
C1270 C1266 1.350 . S
C1270 C1267 1.463 . S
C1270 N1274 1.427 . S
C1271 H1261 0.929 . S
C1271 C1269 1.433 . S
C1271 N1274 1.384 . S
C1272 H1263 0.929 . S
C1272 C1264 1.378 . S
C1272 C1267 1.350 . S
C1273 H1260 0.929 . S
C1273 C1265 1.433 . S
C1273 N1275 1.384 . S
N1274 C1270 1.427 . S
N1274 C1271 1.384 . S
N1275 C1267 1.427 . S
N1275 C1273 1.384 . S
H1276 C1282 0.929 . S
H1277 C1286 0.929 . S
H1278 C1291 0.929 . S
H1279 C1289 0.929 . S
H1280 C1284 0.929 . S
H1281 C1290 0.929 . S
C1282 H1276 0.929 . S
C1282 C1283 1.369 1_556 S
C1282 C1290 1.377 . S
C1283 C1282 1.369 1_554 S
C1283 C1291 1.433 . S
C1284 H1280 0.929 . S
C1284 C1286 1.377 . S
C1284 C1288 1.350 1_554 S
C1285 C1288 1.463 1_564 S
C1285 C1290 1.350 1_554 S
C1285 N1293 1.427 . S
C1286 H1277 0.929 . S
C1286 C1284 1.377 . S
C1286 C1287 1.369 1_554 S
C1287 C1286 1.369 1_556 S
C1287 C1289 1.433 . S
C1288 C1284 1.350 1_556 S
C1288 C1285 1.463 1_546 S
C1288 N1292 1.427 . S
C1289 H1279 0.929 . S
C1289 C1287 1.433 . S
C1289 N1292 1.384 . S
C1290 H1281 0.929 . S
C1290 C1282 1.377 . S
C1290 C1285 1.350 1_556 S
C1291 H1278 0.929 . S
C1291 C1283 1.433 . S
C1291 N1293 1.384 . S
N1292 C1288 1.427 . S
N1292 C1289 1.384 . S
N1293 C1285 1.427 . S
N1293 C1291 1.384 . S
H1294 C1300 0.930 . S
H1295 C1304 0.930 . S
H1296 C1309 0.929 . S
H1297 C1307 0.929 . S
H1298 C1302 0.929 . S
H1299 C1308 0.929 . S
C1300 H1294 0.930 . S
C1300 C1301 1.367 . S
C1300 C1308 1.378 . S
C1301 C1300 1.367 . S
C1301 C1309 1.433 . S
C1302 H1298 0.929 . S
C1302 C1304 1.378 . S
C1302 C1306 1.350 . S
C1303 C1306 1.463 . S
C1303 C1308 1.350 . S
C1303 N1311 1.427 . S
C1304 H1295 0.930 . S
C1304 C1302 1.378 . S
C1304 C1305 1.367 . S
C1305 C1304 1.367 . S
C1305 C1307 1.433 . S
C1306 C1302 1.350 . S
C1306 C1303 1.463 . S
C1306 N1310 1.427 . S
C1307 H1297 0.929 . S
C1307 C1305 1.433 . S
C1307 N1310 1.384 . S
C1308 H1299 0.929 . S
C1308 C1300 1.378 . S
C1308 C1303 1.350 . S
C1309 H1296 0.929 . S
C1309 C1301 1.433 . S
C1309 N1311 1.384 . S
N1310 C1306 1.427 . S
N1310 C1307 1.384 . S
N1311 C1303 1.427 . S
N1311 C1309 1.384 . S
H1312 C1318 0.930 . S
H1313 C1322 0.930 . S
H1314 C1327 0.929 . S
H1315 C1325 0.929 . S
H1316 C1320 0.929 . S
H1317 C1326 0.929 . S
C1318 H1312 0.930 . S
C1318 C1319 1.367 . S
C1318 C1326 1.378 . S
C1319 C1318 1.367 . S
C1319 C1327 1.433 . S
C1320 H1316 0.929 . S
C1320 C1322 1.378 . S
C1320 C1324 1.350 . S
C1321 C1324 1.463 . S
C1321 C1326 1.350 . S
C1321 N1329 1.427 . S
C1322 H1313 0.930 . S
C1322 C1320 1.378 . S
C1322 C1323 1.367 . S
C1323 C1322 1.367 . S
C1323 C1325 1.433 . S
C1324 C1320 1.350 . S
C1324 C1321 1.463 . S
C1324 N1328 1.427 . S
C1325 H1315 0.929 . S
C1325 C1323 1.433 . S
C1325 N1328 1.384 . S
C1326 H1317 0.929 . S
C1326 C1318 1.378 . S
C1326 C1321 1.350 . S
C1327 H1314 0.929 . S
C1327 C1319 1.433 . S
C1327 N1329 1.384 . S
N1328 C1324 1.427 . S
N1328 C1325 1.384 . S
N1329 C1321 1.427 . S
N1329 C1327 1.384 . S
H1330 C1336 0.930 . S
H1331 C1340 0.930 . S
H1332 C1345 0.929 . S
H1333 C1343 0.929 . S
H1334 C1338 0.929 . S
H1335 C1344 0.929 . S
C1336 H1330 0.930 . S
C1336 C1337 1.367 . S
C1336 C1344 1.378 . S
C1337 C1336 1.367 . S
C1337 C1345 1.433 . S
C1338 H1334 0.929 . S
C1338 C1340 1.378 . S
C1338 C1342 1.350 . S
C1339 C1342 1.463 . S
C1339 C1344 1.350 . S
C1339 N1347 1.427 . S
C1340 H1331 0.930 . S
C1340 C1338 1.378 . S
C1340 C1341 1.367 . S
C1341 C1340 1.367 . S
C1341 C1343 1.433 . S
C1342 C1338 1.350 . S
C1342 C1339 1.463 . S
C1342 N1346 1.427 . S
C1343 H1333 0.929 . S
C1343 C1341 1.433 . S
C1343 N1346 1.384 . S
C1344 H1335 0.929 . S
C1344 C1336 1.378 . S
C1344 C1339 1.350 . S
C1345 H1332 0.929 . S
C1345 C1337 1.433 . S
C1345 N1347 1.384 . S
N1346 C1342 1.427 . S
N1346 C1343 1.384 . S
N1347 C1339 1.427 . S
N1347 C1345 1.384 . S
H1348 C1354 0.930 . S
H1349 C1358 0.930 . S
H1350 C1363 0.929 . S
H1351 C1361 0.929 . S
H1352 C1356 0.929 . S
H1353 C1362 0.929 . S
C1354 H1348 0.930 . S
C1354 C1355 1.367 . S
C1354 C1362 1.378 . S
C1355 C1354 1.367 . S
C1355 C1363 1.433 . S
C1356 H1352 0.929 . S
C1356 C1358 1.378 . S
C1356 C1360 1.350 . S
C1357 C1360 1.463 . S
C1357 C1362 1.350 . S
C1357 N1365 1.427 . S
C1358 H1349 0.930 . S
C1358 C1356 1.378 . S
C1358 C1359 1.367 . S
C1359 C1358 1.367 . S
C1359 C1361 1.433 . S
C1360 C1356 1.350 . S
C1360 C1357 1.463 . S
C1360 N1364 1.427 . S
C1361 H1351 0.929 . S
C1361 C1359 1.433 . S
C1361 N1364 1.384 . S
C1362 H1353 0.929 . S
C1362 C1354 1.378 . S
C1362 C1357 1.350 . S
C1363 H1350 0.929 . S
C1363 C1355 1.433 . S
C1363 N1365 1.384 . S
N1364 C1360 1.427 . S
N1364 C1361 1.384 . S
N1365 C1357 1.427 . S
N1365 C1363 1.384 . S
H1366 C1372 0.930 . S
H1367 C1376 0.930 . S
H1368 C1381 0.929 . S
H1369 C1379 0.929 . S
H1370 C1374 0.929 . S
H1371 C1380 0.929 . S
C1372 H1366 0.930 . S
C1372 C1373 1.367 . S
C1372 C1380 1.378 . S
C1373 C1372 1.367 . S
C1373 C1381 1.433 . S
C1374 H1370 0.929 . S
C1374 C1376 1.378 . S
C1374 C1378 1.350 . S
C1375 C1378 1.463 1_655 S
C1375 C1380 1.350 . S
C1375 N1383 1.427 . S
C1376 H1367 0.930 . S
C1376 C1374 1.378 . S
C1376 C1377 1.367 . S
C1377 C1376 1.367 . S
C1377 C1379 1.433 . S
C1378 C1374 1.350 . S
C1378 C1375 1.463 1_455 S
C1378 N1382 1.427 . S
C1379 H1369 0.929 . S
C1379 C1377 1.433 . S
C1379 N1382 1.384 . S
C1380 H1371 0.929 . S
C1380 C1372 1.378 . S
C1380 C1375 1.350 . S
C1381 H1368 0.929 . S
C1381 C1373 1.433 . S
C1381 N1383 1.384 . S
N1382 C1378 1.427 . S
N1382 C1379 1.384 . S
N1383 C1375 1.427 . S
N1383 C1381 1.384 . S
H1384 C1390 0.930 . S
H1385 C1394 0.930 . S
H1386 C1399 0.929 . S
H1387 C1397 0.929 . S
H1388 C1392 0.929 . S
H1389 C1398 0.929 . S
C1390 H1384 0.930 . S
C1390 C1391 1.367 . S
C1390 C1398 1.378 . S
C1391 C1390 1.367 . S
C1391 C1399 1.433 . S
C1392 H1388 0.929 . S
C1392 C1394 1.378 . S
C1392 C1396 1.350 . S
C1393 C1396 1.463 . S
C1393 C1398 1.350 . S
C1393 N1401 1.427 . S
C1394 H1385 0.930 . S
C1394 C1392 1.378 . S
C1394 C1395 1.367 . S
C1395 C1394 1.367 . S
C1395 C1397 1.433 . S
C1396 C1392 1.350 . S
C1396 C1393 1.463 . S
C1396 N1400 1.427 . S
C1397 H1387 0.929 . S
C1397 C1395 1.433 . S
C1397 N1400 1.384 . S
C1398 H1389 0.929 . S
C1398 C1390 1.378 . S
C1398 C1393 1.350 . S
C1399 H1386 0.929 . S
C1399 C1391 1.433 . S
C1399 N1401 1.384 . S
N1400 C1396 1.427 . S
N1400 C1397 1.384 . S
N1401 C1393 1.427 . S
N1401 C1399 1.384 . S
H1402 C1408 0.930 . S
H1403 C1412 0.930 . S
H1404 C1417 0.929 . S
H1405 C1415 0.929 . S
H1406 C1410 0.929 . S
H1407 C1416 0.929 . S
C1408 H1402 0.930 . S
C1408 C1409 1.367 . S
C1408 C1416 1.378 . S
C1409 C1408 1.367 . S
C1409 C1417 1.433 . S
C1410 H1406 0.929 . S
C1410 C1412 1.378 . S
C1410 C1414 1.350 . S
C1411 C1414 1.463 1_655 S
C1411 C1416 1.350 . S
C1411 N1419 1.427 . S
C1412 H1403 0.930 . S
C1412 C1410 1.378 . S
C1412 C1413 1.367 . S
C1413 C1412 1.367 . S
C1413 C1415 1.433 . S
C1414 C1410 1.350 . S
C1414 C1411 1.463 1_455 S
C1414 N1418 1.427 . S
C1415 H1405 0.929 . S
C1415 C1413 1.433 . S
C1415 N1418 1.384 . S
C1416 H1407 0.929 . S
C1416 C1408 1.378 . S
C1416 C1411 1.350 . S
C1417 H1404 0.929 . S
C1417 C1409 1.433 . S
C1417 N1419 1.384 . S
N1418 C1414 1.427 . S
N1418 C1415 1.384 . S
N1419 C1411 1.427 . S
N1419 C1417 1.384 . S
H1420 C1426 0.930 . S
H1421 C1430 0.930 . S
H1422 C1435 0.929 . S
H1423 C1433 0.929 . S
H1424 C1428 0.929 . S
H1425 C1434 0.929 . S
C1426 H1420 0.930 . S
C1426 C1427 1.367 . S
C1426 C1434 1.378 . S
C1427 C1426 1.367 . S
C1427 C1435 1.433 . S
C1428 H1424 0.929 . S
C1428 C1430 1.378 . S
C1428 C1432 1.350 . S
C1429 C1432 1.463 . S
C1429 C1434 1.350 . S
C1429 N1437 1.427 . S
C1430 H1421 0.930 . S
C1430 C1428 1.378 . S
C1430 C1431 1.367 . S
C1431 C1430 1.367 . S
C1431 C1433 1.433 . S
C1432 C1428 1.350 . S
C1432 C1429 1.463 . S
C1432 N1436 1.427 . S
C1433 H1423 0.929 . S
C1433 C1431 1.433 . S
C1433 N1436 1.384 . S
C1434 H1425 0.929 . S
C1434 C1426 1.378 . S
C1434 C1429 1.350 . S
C1435 H1422 0.929 . S
C1435 C1427 1.433 . S
C1435 N1437 1.384 . S
N1436 C1432 1.427 . S
N1436 C1433 1.384 . S
N1437 C1429 1.427 . S
N1437 C1435 1.384 . S
H1438 C1444 0.930 . S
H1439 C1448 0.930 . S
H1440 C1453 0.929 . S
H1441 C1451 0.929 . S
H1442 C1446 0.929 . S
H1443 C1452 0.929 . S
C1444 H1438 0.930 . S
C1444 C1445 1.367 . S
C1444 C1452 1.378 . S
C1445 C1444 1.367 . S
C1445 C1453 1.433 . S
C1446 H1442 0.929 . S
C1446 C1448 1.378 . S
C1446 C1450 1.350 . S
C1447 C1450 1.463 . S
C1447 C1452 1.350 . S
C1447 N1455 1.427 . S
C1448 H1439 0.930 . S
C1448 C1446 1.378 . S
C1448 C1449 1.367 . S
C1449 C1448 1.367 . S
C1449 C1451 1.433 . S
C1450 C1446 1.350 . S
C1450 C1447 1.463 . S
C1450 N1454 1.427 . S
C1451 H1441 0.929 . S
C1451 C1449 1.433 . S
C1451 N1454 1.384 . S
C1452 H1443 0.929 . S
C1452 C1444 1.378 . S
C1452 C1447 1.350 . S
C1453 H1440 0.929 . S
C1453 C1445 1.433 . S
C1453 N1455 1.384 . S
N1454 C1450 1.427 . S
N1454 C1451 1.384 . S
N1455 C1447 1.427 . S
N1455 C1453 1.384 . S
H1456 C1462 0.930 . S
H1457 C1466 0.930 . S
H1458 C1471 0.929 . S
H1459 C1469 0.929 . S
H1460 C1464 0.929 . S
H1461 C1470 0.929 . S
C1462 H1456 0.930 . S
C1462 C1463 1.367 . S
C1462 C1470 1.378 . S
C1463 C1462 1.367 . S
C1463 C1471 1.433 . S
C1464 H1460 0.929 . S
C1464 C1466 1.378 . S
C1464 C1468 1.350 . S
C1465 C1468 1.463 . S
C1465 C1470 1.350 . S
C1465 N1473 1.427 . S
C1466 H1457 0.930 . S
C1466 C1464 1.378 . S
C1466 C1467 1.367 . S
C1467 C1466 1.367 . S
C1467 C1469 1.433 . S
C1468 C1464 1.350 . S
C1468 C1465 1.463 . S
C1468 N1472 1.427 . S
C1469 H1459 0.929 . S
C1469 C1467 1.433 . S
C1469 N1472 1.384 . S
C1470 H1461 0.929 . S
C1470 C1462 1.378 . S
C1470 C1465 1.350 . S
C1471 H1458 0.929 . S
C1471 C1463 1.433 . S
C1471 N1473 1.384 . S
N1472 C1468 1.427 . S
N1472 C1469 1.384 . S
N1473 C1465 1.427 . S
N1473 C1471 1.384 . S
H1474 C1480 0.930 . S
H1475 C1484 0.930 . S
H1476 C1489 0.929 . S
H1477 C1487 0.929 . S
H1478 C1482 0.929 . S
H1479 C1488 0.929 . S
C1480 H1474 0.930 . S
C1480 C1481 1.367 . S
C1480 C1488 1.378 . S
C1481 C1480 1.367 . S
C1481 C1489 1.433 . S
C1482 H1478 0.929 . S
C1482 C1484 1.378 . S
C1482 C1486 1.350 . S
C1483 C1486 1.463 . S
C1483 C1488 1.350 . S
C1483 N1491 1.427 . S
C1484 H1475 0.930 . S
C1484 C1482 1.378 . S
C1484 C1485 1.367 . S
C1485 C1484 1.367 . S
C1485 C1487 1.433 . S
C1486 C1482 1.350 . S
C1486 C1483 1.463 . S
C1486 N1490 1.427 . S
C1487 H1477 0.929 . S
C1487 C1485 1.433 . S
C1487 N1490 1.384 . S
C1488 H1479 0.929 . S
C1488 C1480 1.378 . S
C1488 C1483 1.350 . S
C1489 H1476 0.929 . S
C1489 C1481 1.433 . S
C1489 N1491 1.384 . S
N1490 C1486 1.427 . S
N1490 C1487 1.384 . S
N1491 C1483 1.427 . S
N1491 C1489 1.384 . S
H1492 C1498 0.930 . S
H1493 C1502 0.930 . S
H1494 C1507 0.929 . S
H1495 C1505 0.929 . S
H1496 C1500 0.929 . S
H1497 C1506 0.929 . S
C1498 H1492 0.930 . S
C1498 C1499 1.367 . S
C1498 C1506 1.378 . S
C1499 C1498 1.367 . S
C1499 C1507 1.433 . S
C1500 H1496 0.929 . S
C1500 C1502 1.378 . S
C1500 C1504 1.350 . S
C1501 C1504 1.463 . S
C1501 C1506 1.350 . S
C1501 N1509 1.427 . S
C1502 H1493 0.930 . S
C1502 C1500 1.378 . S
C1502 C1503 1.367 . S
C1503 C1502 1.367 . S
C1503 C1505 1.433 . S
C1504 C1500 1.350 . S
C1504 C1501 1.463 . S
C1504 N1508 1.427 . S
C1505 H1495 0.929 . S
C1505 C1503 1.433 . S
C1505 N1508 1.384 . S
C1506 H1497 0.929 . S
C1506 C1498 1.378 . S
C1506 C1501 1.350 . S
C1507 H1494 0.929 . S
C1507 C1499 1.433 . S
C1507 N1509 1.384 . S
N1508 C1504 1.427 . S
N1508 C1505 1.384 . S
N1509 C1501 1.427 . S
N1509 C1507 1.384 . S
H1510 C1516 0.930 . S
H1511 C1520 0.930 . S
H1512 C1525 0.929 . S
H1513 C1523 0.929 . S
H1514 C1518 0.929 . S
H1515 C1524 0.929 . S
C1516 H1510 0.930 . S
C1516 C1517 1.367 . S
C1516 C1524 1.378 . S
C1517 C1516 1.367 . S
C1517 C1525 1.433 . S
C1518 H1514 0.929 . S
C1518 C1520 1.378 . S
C1518 C1522 1.350 . S
C1519 C1522 1.463 . S
C1519 C1524 1.350 . S
C1519 N1527 1.427 . S
C1520 H1511 0.930 . S
C1520 C1518 1.378 . S
C1520 C1521 1.367 . S
C1521 C1520 1.367 . S
C1521 C1523 1.433 . S
C1522 C1518 1.350 . S
C1522 C1519 1.463 . S
C1522 N1526 1.427 . S
C1523 H1513 0.929 . S
C1523 C1521 1.433 . S
C1523 N1526 1.384 . S
C1524 H1515 0.929 . S
C1524 C1516 1.378 . S
C1524 C1519 1.350 . S
C1525 H1512 0.929 . S
C1525 C1517 1.433 . S
C1525 N1527 1.384 . S
N1526 C1522 1.427 . S
N1526 C1523 1.384 . S
N1527 C1519 1.427 . S
N1527 C1525 1.384 . S
H1528 C1534 0.930 . S
H1529 C1538 0.930 . S
H1530 C1543 0.929 . S
H1531 C1541 0.929 . S
H1532 C1536 0.929 . S
H1533 C1542 0.929 . S
C1534 H1528 0.930 . S
C1534 C1535 1.367 . S
C1534 C1542 1.378 . S
C1535 C1534 1.367 . S
C1535 C1543 1.433 . S
C1536 H1532 0.929 . S
C1536 C1538 1.378 . S
C1536 C1540 1.350 . S
C1537 C1540 1.463 1_655 S
C1537 C1542 1.350 . S
C1537 N1545 1.427 . S
C1538 H1529 0.930 . S
C1538 C1536 1.378 . S
C1538 C1539 1.367 . S
C1539 C1538 1.367 . S
C1539 C1541 1.433 . S
C1540 C1536 1.350 . S
C1540 C1537 1.463 1_455 S
C1540 N1544 1.427 . S
C1541 H1531 0.929 . S
C1541 C1539 1.433 . S
C1541 N1544 1.384 . S
C1542 H1533 0.929 . S
C1542 C1534 1.378 . S
C1542 C1537 1.350 . S
C1543 H1530 0.929 . S
C1543 C1535 1.433 . S
C1543 N1545 1.384 . S
N1544 C1540 1.427 . S
N1544 C1541 1.384 . S
N1545 C1537 1.427 . S
N1545 C1543 1.384 . S
H1546 C1552 0.930 . S
H1547 C1556 0.930 . S
H1548 C1561 0.929 . S
H1549 C1559 0.929 . S
H1550 C1554 0.929 . S
H1551 C1560 0.929 . S
C1552 H1546 0.930 . S
C1552 C1553 1.367 . S
C1552 C1560 1.378 . S
C1553 C1552 1.367 . S
C1553 C1561 1.433 . S
C1554 H1550 0.929 . S
C1554 C1556 1.378 . S
C1554 C1558 1.350 . S
C1555 C1558 1.463 . S
C1555 C1560 1.350 . S
C1555 N1563 1.427 . S
C1556 H1547 0.930 . S
C1556 C1554 1.378 . S
C1556 C1557 1.367 . S
C1557 C1556 1.367 . S
C1557 C1559 1.433 . S
C1558 C1554 1.350 . S
C1558 C1555 1.463 . S
C1558 N1562 1.427 . S
C1559 H1549 0.929 . S
C1559 C1557 1.433 . S
C1559 N1562 1.384 . S
C1560 H1551 0.929 . S
C1560 C1552 1.378 . S
C1560 C1555 1.350 . S
C1561 H1548 0.929 . S
C1561 C1553 1.433 . S
C1561 N1563 1.384 . S
N1562 C1558 1.427 . S
N1562 C1559 1.384 . S
N1563 C1555 1.427 . S
N1563 C1561 1.384 . S
H1564 C1570 0.930 . S
H1565 C1574 0.930 . S
H1566 C1579 0.929 . S
H1567 C1577 0.929 . S
H1568 C1572 0.929 . S
H1569 C1578 0.929 . S
C1570 H1564 0.930 . S
C1570 C1571 1.367 . S
C1570 C1578 1.378 . S
C1571 C1570 1.367 . S
C1571 C1579 1.433 . S
C1572 H1568 0.929 . S
C1572 C1574 1.378 . S
C1572 C1576 1.350 . S
C1573 C1576 1.463 . S
C1573 C1578 1.350 . S
C1573 N1581 1.427 . S
C1574 H1565 0.930 . S
C1574 C1572 1.378 . S
C1574 C1575 1.367 . S
C1575 C1574 1.367 . S
C1575 C1577 1.433 . S
C1576 C1572 1.350 . S
C1576 C1573 1.463 . S
C1576 N1580 1.427 . S
C1577 H1567 0.929 . S
C1577 C1575 1.433 . S
C1577 N1580 1.384 . S
C1578 H1569 0.929 . S
C1578 C1570 1.378 . S
C1578 C1573 1.350 . S
C1579 H1566 0.929 . S
C1579 C1571 1.433 . S
C1579 N1581 1.384 . S
N1580 C1576 1.427 . S
N1580 C1577 1.384 . S
N1581 C1573 1.427 . S
N1581 C1579 1.384 . S
H1582 C1588 0.930 . S
H1583 C1592 0.930 . S
H1584 C1597 0.929 . S
H1585 C1595 0.929 . S
H1586 C1590 0.929 . S
H1587 C1596 0.929 . S
C1588 H1582 0.930 . S
C1588 C1589 1.367 . S
C1588 C1596 1.378 . S
C1589 C1588 1.367 . S
C1589 C1597 1.433 . S
C1590 H1586 0.929 . S
C1590 C1592 1.378 . S
C1590 C1594 1.350 . S
C1591 C1594 1.463 1_655 S
C1591 C1596 1.350 . S
C1591 N1599 1.427 . S
C1592 H1583 0.930 . S
C1592 C1590 1.378 . S
C1592 C1593 1.367 . S
C1593 C1592 1.367 . S
C1593 C1595 1.433 . S
C1594 C1590 1.350 . S
C1594 C1591 1.463 1_455 S
C1594 N1598 1.427 . S
C1595 H1585 0.929 . S
C1595 C1593 1.433 . S
C1595 N1598 1.384 . S
C1596 H1587 0.929 . S
C1596 C1588 1.378 . S
C1596 C1591 1.350 . S
C1597 H1584 0.929 . S
C1597 C1589 1.433 . S
C1597 N1599 1.384 . S
N1598 C1594 1.427 . S
N1598 C1595 1.384 . S
N1599 C1591 1.427 . S
N1599 C1597 1.384 . S
C455 C328 1.716 . S
C459 C7 1.725 . S
C473 C287 1.731 . S
C477 C20 1.717 . S
C491 C300 1.717 . S
C495 C35 1.731 . S
C509 C315 1.732 . S
C513 C48 1.717 . S
C527 C63 1.720 . S
C531 C244 1.734 . S
C545 C259 1.724 . S
C549 C76 1.735 . S
C563 C91 1.717 . S
C567 C272 1.731 . S
C581 C104 1.733 . S
C585 C231 1.731 . S
C599 C441 1.719 . S
C603 C119 1.734 . S
C617 C133 1.716 . S
C621 C399 1.724 . S
C635 C147 1.728 . S
C639 C413 1.716 . S
C653 C161 1.717 . S
C657 C427 1.730 . S
C671 C175 1.718 . S
C675 C357 1.732 . S
C689 C189 1.719 . S
C693 C371 1.733 . S
C707 C203 1.720 . S
C711 C385 1.718 . S
C725 C217 1.733 . S
C729 C343 1.719 . S
C743 C8 1.280 . S
C747 C176 1.285 . S
C761 C414 1.282 . S
C765 C23 1.282 . S
C779 C36 1.280 . S
C783 C204 1.285 . S
C797 C442 1.285 . S
C801 C51 1.281 . S
C815 C120 1.283 . S
C819 C64 1.282 . S
C833 C79 1.284 . S
C837 C358 1.281 . S
C851 C92 1.284 . S
C855 C148 1.280 . S
C869 C107 1.282 . S
C873 C386 1.283 . S
C887 C303 1.282 . S
C891 C134 1.283 . S
C905 C331 1.281 . S
C909 C162 1.284 . S
C923 C190 1.285 . S
C927 C247 1.280 . S
C941 C275 1.284 . S
C945 C218 1.281 . S
C959 C400 1.282 . S
C963 C232 1.282 . S
C977 C260 1.284 . S
C981 C428 1.281 . S
C995 C344 1.285 . S
C999 C288 1.279 . S
C1013 C372 1.283 . S
C1017 C316 1.282 . S
C1031 C62 1.292 . S
C1035 C6 1.289 . S
C1049 C77 1.298 . S
C1053 C21 1.294 . S
C1067 C34 1.297 . S
C1071 C90 1.292 . S
C1085 C49 1.292 . S
C1089 C105 1.297 . S
C1103 C174 1.297 . S
C1107 C118 1.297 . S
C1121 C188 1.290 . S
C1125 C132 1.292 . S
C1139 C202 1.298 . S
C1143 C146 1.294 . S
C1157 C160 1.297 . S
C1161 C216 1.292 . S
C1175 C230 1.294 . S
C1179 C286 1.298 . S
C1193 C245 1.290 . S
C1197 C301 1.294 . S
C1211 C258 1.290 . S
C1215 C314 1.291 . S
C1229 C273 1.290 . S
C1233 C329 1.294 . S
C1247 C398 1.298 . S
C1251 C342 1.294 . S
C1265 C412 1.298 . S
C1269 C356 1.294 . S
C1283 C426 1.290 . S
C1287 C370 1.292 . S
C1301 C440 1.293 . S
C1305 C384 1.290 . S
C1319 C429 1.639 . S
C1323 C9 1.651 . S
C1337 C22 1.648 . S
C1341 C219 1.641 . S
C1355 C401 1.641 . S
C1359 C37 1.649 . S
C1373 C50 1.645 . S
C1377 C191 1.644 . S
C1391 C373 1.651 . S
C1395 C65 1.639 . S
C1409 C78 1.649 . S
C1413 C163 1.641 . S
C1427 C93 1.647 . S
C1431 C345 1.642 . S
C1445 C135 1.647 . S
C1449 C106 1.642 . S
C1463 C121 1.638 . S
C1467 C317 1.652 . S
C1481 C289 1.650 . S
C1485 C149 1.640 . S
C1499 C177 1.638 . S
C1503 C261 1.651 . S
C1517 C205 1.638 . S
C1521 C233 1.652 . S
C1535 C443 1.649 . S
C1539 C246 1.641 . S
C1553 C274 1.651 . S
C1557 C415 1.638 . S
C1571 C302 1.643 . S
C1575 C387 1.647 . S
C1589 C359 1.647 . S
C1593 C330 1.643 . S
