# Generated by pormake.
# Topology ukg, (4)-cn, num edge types: 1
# Building blocks:
#     Node 0, Type 0, BuildingBlock: CEKHIL_clean_sbu_0, # of connection points: 4
#     Node 1, Type 0, BuildingBlock: CEKHIL_clean_sbu_0, # of connection points: 4
#     Node 2, Type 0, BuildingBlock: CEKHIL_clean_sbu_0, # of connection points: 4
#     Node 3, Type 0, BuildingBlock: CEKHIL_clean_sbu_0, # of connection points: 4
#     Node 4, Type 0, BuildingBlock: CEKHIL_clean_sbu_0, # of connection points: 4
#     Node 5, Type 0, BuildingBlock: CEKHIL_clean_sbu_0, # of connection points: 4
#     Node 6, Type 0, BuildingBlock: CEKHIL_clean_sbu_0, # of connection points: 4
#     Node 7, Type 0, BuildingBlock: CEKHIL_clean_sbu_0, # of connection points: 4
#     Edge 8, Type (0, 0), BuildingBlock: UVAHIK_clean_linker_0, # of connection points: 2
#     Edge 9, Type (0, 0), BuildingBlock: UVAHIK_clean_linker_0, # of connection points: 2
#     Edge 10, Type (0, 0), BuildingBlock: UVAHIK_clean_linker_0, # of connection points: 2
#     Edge 11, Type (0, 0), BuildingBlock: UVAHIK_clean_linker_0, # of connection points: 2
#     Edge 12, Type (0, 0), BuildingBlock: UVAHIK_clean_linker_0, # of connection points: 2
#     Edge 13, Type (0, 0), BuildingBlock: UVAHIK_clean_linker_0, # of connection points: 2
#     Edge 14, Type (0, 0), BuildingBlock: UVAHIK_clean_linker_0, # of connection points: 2
#     Edge 15, Type (0, 0), BuildingBlock: UVAHIK_clean_linker_0, # of connection points: 2
#     Edge 16, Type (0, 0), BuildingBlock: UVAHIK_clean_linker_0, # of connection points: 2
#     Edge 17, Type (0, 0), BuildingBlock: UVAHIK_clean_linker_0, # of connection points: 2
#     Edge 18, Type (0, 0), BuildingBlock: UVAHIK_clean_linker_0, # of connection points: 2
#     Edge 19, Type (0, 0), BuildingBlock: UVAHIK_clean_linker_0, # of connection points: 2
#     Edge 20, Type (0, 0), BuildingBlock: UVAHIK_clean_linker_0, # of connection points: 2
#     Edge 21, Type (0, 0), BuildingBlock: UVAHIK_clean_linker_0, # of connection points: 2
#     Edge 22, Type (0, 0), BuildingBlock: UVAHIK_clean_linker_0, # of connection points: 2
#     Edge 23, Type (0, 0), BuildingBlock: UVAHIK_clean_linker_0, # of connection points: 2
# Relax obj value: 0.123
# Max RMSD: 0.207
# Mean RMSD: 0.202
data_MOF--net-ukg--node1-CEKHIL_clean_sbu_0--edge1-UVAHIK_clean_linker_0
_symmetry_space_group_name_H-M    P1
_symmetry_Int_Tables_number       1
_symmetry_cell_setting            triclinic
loop_
_symmetry_equiv_pos_as_xyz
'x, y, z'
_cell_length_a     39.168791
_cell_length_b     38.607461
_cell_length_c     48.398163
_cell_angle_alpha  89.93145
_cell_angle_beta   89.919188
_cell_angle_gamma 89.722434
loop_
_atom_site_label
_atom_site_type_symbol
_atom_site_fract_x
_atom_site_fract_y
_atom_site_fract_z
_atom_type_partial_charge
Co0 Co 0.03236 0.61877 0.15545 0.0
O1 O 0.05369 0.58076 0.13636 0.0
O2 O 0.03601 0.6294 0.11659 0.0
C3 C 0.99462 0.58678 0.1797 0.0
O4 O 0.0077 0.66261 0.16771 0.0
Co5 Co 0.03511 0.62569 0.21933 0.0
O6 O 0.99554 0.65701 0.2129 0.0
C7 C 0.094 0.6488 0.18554 0.0
C8 C 0.04864 0.59839 0.11384 0.0
C9 C 0.99155 0.67189 0.18963 0.0
O10 O 0.07792 0.641 0.16321 0.0
O11 O 0.08202 0.64291 0.20975 0.0
O12 O 0.9889 0.59475 0.15408 0.0
O13 O 0.02444 0.59515 0.18897 0.0
Co14 Co 0.35248 0.51513 0.64663 0.0
O15 O 0.39226 0.52832 0.62626 0.0
O16 O 0.34514 0.50777 0.60733 0.0
C17 C 0.38019 0.48338 0.6785 0.0
O18 O 0.307 0.49782 0.66219 0.0
Co19 Co 0.34634 0.53979 0.70785 0.0
O20 O 0.30861 0.50584 0.70828 0.0
C21 C 0.32842 0.58774 0.66241 0.0
C22 C 0.37648 0.51831 0.60421 0.0
C23 C 0.29432 0.49389 0.68664 0.0
O24 O 0.33367 0.56375 0.64442 0.0
O25 O 0.3345 0.58393 0.68823 0.0
O26 O 0.37274 0.47018 0.65464 0.0
O27 O 0.37427 0.51613 0.68109 0.0
Co28 Co 0.46278 0.87744 0.15995 0.0
O29 O 0.44736 0.91482 0.13708 0.0
O30 O 0.46126 0.86256 0.12173 0.0
C31 C 0.50193 0.90793 0.1838 0.0
O32 O 0.48074 0.83309 0.17759 0.0
Co33 Co 0.45143 0.88166 0.22343 0.0
O34 O 0.48384 0.8421 0.22343 0.0
C35 C 0.39432 0.86067 0.18743 0.0
C36 C 0.45162 0.89414 0.11626 0.0
C37 C 0.48988 0.82377 0.20205 0.0
O38 O 0.41425 0.86186 0.16627 0.0
O39 O 0.4037 0.86977 0.2117 0.0
O40 O 0.50892 0.89578 0.15946 0.0
O41 O 0.47047 0.90474 0.19158 0.0
Co42 Co 0.1485 0.97274 0.64829 0.0
O43 O 0.10466 0.97097 0.63091 0.0
O44 O 0.15336 0.97863 0.60856 0.0
C45 C 0.13382 0.00949 0.68212 0.0
O46 O 0.19825 0.97748 0.66052 0.0
Co47 Co 0.15433 0.94406 0.70828 0.0
O48 O 0.19969 0.96646 0.70626 0.0
C49 C 0.15119 0.89547 0.66169 0.0
C50 C 0.12018 0.97634 0.60767 0.0
C51 C 0.21396 0.97651 0.68395 0.0
O52 O 0.1536 0.92097 0.64467 0.0
O53 O 0.14793 0.89951 0.68781 0.0
O54 O 0.14155 0.0211 0.65774 0.0
O55 O 0.13103 0.97628 0.68425 0.0
Co56 Co 0.96638 0.32295 0.8508 0.0
O57 O 0.93023 0.31017 0.87555 0.0
O58 O 0.92403 0.34468 0.83932 0.0
C59 C 0.98578 0.26858 0.8445 0.0
O60 O 0.99778 0.3403 0.81983 0.0
Co61 Co 0.04236 0.30875 0.86572 0.0
O62 O 0.0485 0.3137 0.82533 0.0
C63 C 0.00669 0.37031 0.8888 0.0
C64 C 0.90993 0.32734 0.85937 0.0
C65 C 0.02761 0.33142 0.81086 0.0
O66 O 0.97929 0.3632 0.87525 0.0
O67 O 0.03351 0.35118 0.88851 0.0
O68 O 0.95985 0.28018 0.83064 0.0
O69 O 0.99733 0.28902 0.86342 0.0
Co70 Co 0.6256 0.46382 0.33861 0.0
O71 O 0.58586 0.4445 0.35586 0.0
O72 O 0.63336 0.45826 0.3779 0.0
C73 C 0.59725 0.50486 0.31471 0.0
O74 O 0.67112 0.48538 0.32747 0.0
Co75 Co 0.6334 0.46213 0.27462 0.0
O76 O 0.66784 0.4984 0.28219 0.0
C77 C 0.65115 0.39999 0.30787 0.0
C78 C 0.60191 0.44756 0.37912 0.0
C79 C 0.68249 0.50051 0.3056 0.0
O80 O 0.64446 0.41636 0.33042 0.0
O81 O 0.6464 0.41304 0.28381 0.0
O82 O 0.6051 0.50959 0.34044 0.0
O83 O 0.60384 0.47439 0.30496 0.0
Co84 Co 0.53549 0.16219 0.84617 0.0
O85 O 0.57263 0.17538 0.86957 0.0
O86 O 0.57662 0.1373 0.83553 0.0
C87 C 0.51879 0.21693 0.8372 0.0
O88 O 0.50239 0.14354 0.81704 0.0
Co89 Co 0.46094 0.18219 0.86218 0.0
O90 O 0.45181 0.17035 0.82313 0.0
C91 C 0.49626 0.12418 0.89077 0.0
C92 C 0.59177 0.15544 0.85456 0.0
C93 C 0.47184 0.15115 0.80903 0.0
O94 O 0.52135 0.12532 0.87353 0.0
O95 O 0.47165 0.14618 0.89077 0.0
O96 O 0.54343 0.2028 0.82321 0.0
O97 O 0.50686 0.19864 0.85732 0.0
Co98 Co 0.8767 0.02928 0.33368 0.0
O99 O 0.92047 0.04079 0.34884 0.0
O100 O 0.87289 0.03607 0.37326 0.0
C101 C 0.89479 0.98398 0.30832 0.0
O102 O 0.82729 0.01672 0.3248 0.0
Co103 Co 0.86565 0.03455 0.26993 0.0
O104 O 0.82339 0.00866 0.27872 0.0
C105 C 0.86194 0.09774 0.30435 0.0
C106 C 0.90573 0.0412 0.37284 0.0
C107 C 0.81095 0.00715 0.30303 0.0
O108 O 0.86604 0.07953 0.3264 0.0
O109 O 0.86364 0.08496 0.27996 0.0
O110 O 0.88871 0.98039 0.33451 0.0
O111 O 0.89344 0.01535 0.29903 0.0
C112 C 0.97832 0.41526 0.91861 0.0
C113 C 0.00785 0.40197 0.90588 0.0
C114 C 0.98073 0.44268 0.93741 0.0
C115 C 0.03698 0.51245 0.96297 0.0
H116 H -0.00038 0.48939 0.03487 0.0
C117 C 0.04141 0.5993 0.06235 0.0
C118 C 0.05111 0.58152 0.08651 0.0
C119 C 0.03669 0.58127 0.03756 0.0
C120 C 0.01009 0.49621 0.01487 0.0
H121 H 0.06253 0.40855 0.90117 0.0
H122 H 0.06659 0.45648 0.9336 0.0
H123 H 0.98684 0.4527 0.99524 0.0
H124 H 0.06585 0.53139 0.10312 0.0
H125 H 0.05742 0.50013 0.06003 0.0
H126 H 0.06074 0.55573 0.98297 0.0
C127 C 0.04169 0.44566 0.9293 0.0
C128 C 0.00244 0.47547 0.99215 0.0
C129 C 0.03939 0.41797 0.91094 0.0
C130 C 0.0582 0.54586 0.08495 0.0
C131 C 0.05313 0.52787 0.06034 0.0
C132 C 0.04423 0.53356 0.9857 0.0
C133 C 0.01258 0.45766 0.94331 0.0
C134 C 0.01643 0.4829 0.96611 0.0
C135 C 0.04126 0.5452 0.0367 0.0
C136 C 0.03157 0.52502 0.01197 0.0
H137 H 0.95369 0.40346 0.91502 0.0
H138 H 0.95788 0.45161 0.94789 0.0
H139 H 0.048 0.51877 0.94306 0.0
H140 H 0.03576 0.62678 0.0629 0.0
H141 H 0.02767 0.59519 0.01952 0.0
C142 C 0.42803 0.53019 0.57577 0.0
C143 C 0.39555 0.51512 0.57793 0.0
C144 C 0.44942 0.5224 0.55357 0.0
C145 C 0.4652 0.4537 0.50226 0.0
H146 H 0.5283 0.52086 0.47188 0.0
C147 C 0.54998 0.43071 0.40566 0.0
C148 C 0.58276 0.44539 0.4054 0.0
C149 C 0.52805 0.436 0.42806 0.0
C150 C 0.51118 0.50168 0.48045 0.0
H151 H 0.35926 0.48146 0.55771 0.0
H152 H 0.39653 0.46829 0.51834 0.0
H153 H 0.48561 0.53939 0.50541 0.0
H154 H 0.61917 0.475 0.42924 0.0
H155 H 0.58084 0.48414 0.46852 0.0
H156 H 0.49064 0.41612 0.47682 0.0
C157 C 0.40565 0.48567 0.53422 0.0
C158 C 0.48657 0.51233 0.49959 0.0
C159 C 0.38412 0.49355 0.55655 0.0
C160 C 0.5941 0.46328 0.42887 0.0
C161 C 0.57201 0.46886 0.45121 0.0
C162 C 0.48971 0.44309 0.48293 0.0
C163 C 0.4389 0.49937 0.53284 0.0
C164 C 0.4634 0.48845 0.51091 0.0
C165 C 0.53834 0.45632 0.45058 0.0
C166 C 0.51313 0.46693 0.47196 0.0
H167 H 0.43762 0.54696 0.5919 0.0
H168 H 0.47488 0.53321 0.55343 0.0
H169 H 0.44818 0.43448 0.51088 0.0
H170 H 0.54053 0.41675 0.38786 0.0
H171 H 0.50229 0.42602 0.42692 0.0
C172 C 0.47074 0.89407 0.06679 0.0
C173 C 0.45023 0.90809 0.08791 0.0
C174 C 0.47627 0.91281 0.04236 0.0
C175 C 0.48038 0.00354 0.02263 0.0
H176 H 0.4803 0.97352 0.94619 0.0
C177 C 0.47304 0.09999 0.93461 0.0
C178 C 0.49505 0.09634 0.91183 0.0
C179 C 0.4707 0.07406 0.95446 0.0
C180 C 0.48096 0.982 0.96751 0.0
H181 H 0.41654 0.95056 0.09896 0.0
H182 H 0.42556 0.98272 0.05636 0.0
H183 H 0.4673 0.93173 0.98316 0.0
H184 H 0.53176 0.0622 0.89198 0.0
H185 H 0.52741 0.01628 0.92709 0.0
H186 H 0.49346 0.05365 0.00736 0.0
C187 C 0.43816 0.95787 0.05886 0.0
C188 C 0.47339 0.9582 0.98857 0.0
C189 C 0.43282 0.93936 0.08317 0.0
C190 C 0.51471 0.06586 0.90938 0.0
C191 C 0.51207 0.03953 0.9293 0.0
C192 C 0.48794 0.02709 0.00177 0.0
C193 C 0.46124 0.94566 0.03885 0.0
C194 C 0.47202 0.96914 0.01625 0.0
C195 C 0.4902 0.04363 0.95212 0.0
C196 C 0.48733 0.01689 0.97396 0.0
H197 H 0.48453 0.87001 0.06999 0.0
H198 H 0.49404 0.90276 0.02715 0.0
H199 H 0.48054 0.01245 0.04385 0.0
H200 H 0.45752 0.12306 0.93726 0.0
H201 H 0.45329 0.07774 0.97164 0.0
C202 C 0.913 0.03277 0.42393 0.0
C203 C 0.9265 0.043 0.39831 0.0
C204 C 0.93442 0.02877 0.44689 0.0
C205 C 0.02501 0.01122 0.46319 0.0
H206 H 0.99722 0.0323 0.53819 0.0
C207 C 0.11505 0.9951 0.55798 0.0
C208 C 0.10009 0.98188 0.58216 0.0
C209 C 0.09469 0.0036 0.53511 0.0
C210 C 0.00526 0.02598 0.51737 0.0
H211 H 0.97255 0.05924 0.37708 0.0
H212 H 0.00959 0.05305 0.41712 0.0
H213 H 0.95961 0.04743 0.49989 0.0
H214 H 0.0523 0.9658 0.60088 0.0
H215 H 0.01721 0.98002 0.56113 0.0
H216 H 0.07055 0.98952 0.48072 0.0
C217 C 0.98271 0.04719 0.4194 0.0
C218 C 0.98368 0.03469 0.49542 0.0
C219 C 0.96139 0.05104 0.39649 0.0
C220 C 0.06466 0.97623 0.58266 0.0
C221 C 0.04443 0.98465 0.55993 0.0
C222 C 0.04661 0.00254 0.48515 0.0
C223 C 0.96971 0.03506 0.44467 0.0
C224 C 0.99318 0.02722 0.46806 0.0
C225 C 0.05904 -0.00097 0.53605 0.0
C226 C 0.03685 0.00952 0.51252 0.0
H227 H 0.88626 0.0262 0.42593 0.0
H228 H 0.92356 0.01921 0.466 0.0
H229 H 0.03291 0.00453 0.44242 0.0
H230 H 0.14225 -0.00014 0.55703 0.0
H231 H 0.10672 0.01472 0.51702 0.0
C232 C 0.14056 0.67702 0.15753 0.0
C233 C 0.1265 0.66836 0.18341 0.0
C234 C 0.16892 0.69891 0.15573 0.0
C235 C 0.21163 0.76794 0.19457 0.0
H236 H 0.28984 0.74864 0.14782 0.0
C237 C 0.33937 0.83885 0.20748 0.0
C238 C 0.35998 0.84497 0.18418 0.0
C239 C 0.30916 0.82001 0.20518 0.0
C240 C 0.26793 0.7548 0.16061 0.0
H241 H 0.13235 0.67504 0.22773 0.0
H242 H 0.18151 0.71295 0.22448 0.0
H243 H 0.24141 0.70901 0.14791 0.0
H244 H 0.36382 0.83745 0.13983 0.0
H245 H 0.31067 0.80519 0.13577 0.0
H246 H 0.23783 0.81366 0.20729 0.0
C247 C 0.17033 0.70318 0.20559 0.0
C248 C 0.24026 0.73197 0.16073 0.0
C249 C 0.14226 0.68117 0.20741 0.0
C250 C 0.34874 0.83308 0.15827 0.0
C251 C 0.31837 0.81432 0.15596 0.0
C252 C 0.2391 0.79086 0.1943 0.0
C253 C 0.1836 0.71282 0.17975 0.0
C254 C 0.21211 0.73798 0.17811 0.0
C255 C 0.29855 0.80694 0.17949 0.0
C256 C 0.26791 0.78429 0.17771 0.0
H257 H 0.12914 0.66767 0.1386 0.0
H258 H 0.17861 0.70591 0.13552 0.0
H259 H 0.18995 0.77364 0.20776 0.0
H260 H 0.34713 0.84747 0.2278 0.0
H261 H 0.29485 0.81454 0.22383 0.0
C262 C 0.30408 0.6268 0.62554 0.0
C263 C 0.31058 0.61982 0.65364 0.0
C264 C 0.28288 0.65455 0.61793 0.0
C265 C 0.20938 0.70058 0.64113 0.0
H266 H 0.24297 0.78649 0.61008 0.0
C267 C 0.15363 0.83148 0.66921 0.0
C268 C 0.15671 0.85986 0.65121 0.0
C269 C 0.16559 0.79887 0.66144 0.0
C270 C 0.23275 0.76241 0.61797 0.0
H271 H 0.30087 0.63748 0.6956 0.0
H272 H 0.26375 0.68513 0.68219 0.0
H273 H 0.2801 0.73544 0.61113 0.0
H274 H 0.17173 0.87543 0.60982 0.0
H275 H 0.19233 0.8182 0.59616 0.0
H276 H 0.16252 0.72744 0.64894 0.0
C277 C 0.27506 0.66912 0.6662 0.0
C278 C 0.25412 0.73331 0.61863 0.0
C279 C 0.29653 0.64195 0.67378 0.0
C280 C 0.16928 0.8542 0.62433 0.0
C281 C 0.18129 0.82146 0.61653 0.0
C282 C 0.18788 0.72945 0.64016 0.0
C283 C 0.26756 0.67519 0.63833 0.0
C284 C 0.24299 0.70275 0.6313 0.0
C285 C 0.18079 0.79377 0.6354 0.0
C286 C 0.1999 0.76119 0.62983 0.0
H287 H 0.31455 0.6103 0.60952 0.0
H288 H 0.27749 0.65914 0.59628 0.0
H289 H 0.20036 0.67704 0.65088 0.0
H290 H 0.14377 0.83477 0.68997 0.0
H291 H 0.16501 0.77829 0.67665 0.0
C292 C 0.64768 0.1626 0.83071 0.0
C293 C 0.62908 0.16005 0.85546 0.0
C294 C 0.67984 0.17832 0.8305 0.0
C295 C 0.75147 0.20773 0.87361 0.0
H296 H 0.75426 0.2868 0.82413 0.0
C297 C 0.85806 0.30746 0.88437 0.0
C298 C 0.87307 0.31962 0.8599 0.0
C299 C 0.82693 0.28997 0.88367 0.0
C300 C 0.75422 0.26462 0.83783 0.0
H301 H 0.6305 0.16896 0.89959 0.0
H302 H 0.68719 0.19496 0.89942 0.0
H303 H 0.70638 0.24669 0.82197 0.0
H304 H 0.86623 0.32512 0.81571 0.0
H305 H 0.81238 0.29397 0.81426 0.0
H306 H 0.79942 0.22491 0.8892 0.0
C307 C 0.67683 0.18539 0.88016 0.0
C308 C 0.72679 0.24158 0.83652 0.0
C309 C 0.64446 0.17038 0.88028 0.0
C310 C 0.85505 0.31642 0.83497 0.0
C311 C 0.82416 0.29832 0.83417 0.0
C312 C 0.77913 0.23043 0.87467 0.0
C313 C 0.69412 0.19099 0.85511 0.0
C314 C 0.72498 0.21312 0.8546 0.0
C315 C 0.81043 0.28356 0.85837 0.0
C316 C 0.7807 0.25952 0.85707 0.0
H317 H 0.63619 0.15531 0.81123 0.0
H318 H 0.69283 0.18204 0.81095 0.0
H319 H 0.75079 0.1859 0.88768 0.0
H320 H 0.87139 0.30966 0.90389 0.0
H321 H 0.81659 0.28016 0.90289 0.0
C322 C 0.67881 0.3487 0.2854 0.0
C323 C 0.66861 0.3659 0.30966 0.0
C324 C 0.69973 0.31943 0.28672 0.0
C325 C 0.76272 0.27679 0.33215 0.0
H326 H 0.75417 0.2025 0.27882 0.0
C327 C 0.83931 0.14682 0.33312 0.0
C328 C 0.84947 0.13387 0.30718 0.0
C329 C 0.81996 0.17729 0.33497 0.0
C330 C 0.75708 0.22327 0.29366 0.0
H331 H 0.67103 0.36452 0.35447 0.0
H332 H 0.70697 0.31281 0.35673 0.0
H333 H 0.7115 0.24844 0.27994 0.0
H334 H 0.85031 0.14487 0.26315 0.0
H335 H 0.81677 0.19786 0.2665 0.0
H336 H 0.80821 0.25091 0.34606 0.0
C337 C 0.69938 0.32258 0.33666 0.0
C338 C 0.73261 0.24956 0.29434 0.0
C339 C 0.67848 0.35203 0.33535 0.0
C340 C 0.84252 0.15372 0.28344 0.0
C341 C 0.82312 0.184 0.28529 0.0
C342 C 0.78712 0.25019 0.33162 0.0
C343 C 0.71081 0.30638 0.31232 0.0
C344 C 0.73536 0.27694 0.3133 0.0
C345 C 0.81043 0.19524 0.31092 0.0
C346 C 0.78477 0.22349 0.31206 0.0
H347 H 0.6718 0.35857 0.26523 0.0
H348 H 0.70832 0.30789 0.26753 0.0
H349 H 0.76584 0.2977 0.34681 0.0
H350 H 0.84435 0.13235 0.35187 0.0
H351 H 0.81062 0.1855 0.355 0.0
C352 C 0.74518 0.49701 0.31289 0.0
C353 C 0.71631 0.51677 0.30589 0.0
C354 C 0.7778 0.50826 0.30528 0.0
C355 C 0.81508 0.56363 0.25089 0.0
H356 H 0.90097 0.53456 0.28338 0.0
C357 C 0.93616 0.56315 0.18581 0.0
C358 C 0.96648 0.57514 0.19777 0.0
C359 C 0.90769 0.55619 0.20217 0.0
C360 C 0.87723 0.5432 0.27418 0.0
H361 H 0.69861 0.56501 0.28815 0.0
H362 H 0.7555 0.58599 0.2767 0.0
H363 H 0.84787 0.52671 0.30918 0.0
H364 H 0.99142 0.58745 0.23646 0.0
H365 H 0.94116 0.5763 0.26512 0.0
H366 H 0.84412 0.58087 0.21629 0.0
C367 C 0.7532 0.56105 0.28678 0.0
C368 C 0.84671 0.53842 0.28887 0.0
C369 C 0.72062 0.54937 0.29369 0.0
C370 C 0.9683 0.57843 0.22665 0.0
C371 C 0.93953 0.57191 0.24308 0.0
C372 C 0.84542 0.56871 0.23644 0.0
C373 C 0.78205 0.53974 0.29095 0.0
C374 C 0.81514 0.54812 0.27721 0.0
C375 C 0.9086 0.56158 0.2309 0.0
C376 C 0.87682 0.55787 0.24755 0.0
H377 H 0.74232 0.47152 0.32198 0.0
H378 H 0.79923 0.491 0.30878 0.0
H379 H 0.79145 0.57089 0.24081 0.0
H380 H 0.93413 0.55984 0.16365 0.0
H381 H 0.8847 0.54716 0.19215 0.0
C382 C 0.40434 0.47617 0.72602 0.0
C383 C 0.39121 0.46149 0.70173 0.0
C384 C 0.41537 0.45487 0.74767 0.0
C385 C 0.4072 0.36683 0.77584 0.0
H386 H 0.50154 0.37638 0.79872 0.0
C387 C 0.47376 0.26266 0.84166 0.0
C388 C 0.50411 0.25067 0.82941 0.0
C389 C 0.45887 0.29371 0.83286 0.0
C390 C 0.47503 0.37368 0.79278 0.0
H391 H 0.37837 0.41336 0.68122 0.0
H392 H 0.39729 0.37638 0.71895 0.0
H393 H 0.47512 0.42138 0.77014 0.0
H394 H 0.54356 0.2623 0.79936 0.0
H395 H 0.51755 0.31632 0.78394 0.0
H396 H 0.40756 0.31828 0.7971 0.0
C397 C 0.39903 0.40421 0.72135 0.0
C398 C 0.45987 0.3995 0.77665 0.0
C399 C 0.38853 0.42537 0.69966 0.0
C400 C 0.52004 0.27085 0.80905 0.0
C401 C 0.50535 0.30196 0.80043 0.0
C402 C 0.42224 0.34117 0.79211 0.0
C403 C 0.41276 0.41871 0.74546 0.0
C404 C 0.42627 0.39556 0.76716 0.0
C405 C 0.47432 0.31339 0.8119 0.0
C406 C 0.45669 0.34373 0.79981 0.0
H407 H 0.4066 0.50399 0.72809 0.0
H408 H 0.42597 0.46656 0.76608 0.0
H409 H 0.38113 0.36343 0.76894 0.0
H410 H 0.46106 0.24768 0.85753 0.0
H411 H 0.43499 0.30204 0.84207 0.0
C412 C 0.52421 0.92639 0.23023 0.0
C413 C 0.5291 0.92197 0.20167 0.0
C414 C 0.55103 0.9381 0.24691 0.0
C415 C 0.63099 0.98691 0.24406 0.0
H416 H 0.66046 0.93227 0.30707 0.0
C417 C 0.76448 0.96371 0.30091 0.0
C418 C 0.77474 -0.00195 0.30504 0.0
C419 C 0.73029 0.95622 0.29522 0.0
C420 C 0.65225 0.94795 0.28971 0.0
H421 H 0.56557 0.9268 0.16813 0.0
H422 H 0.61186 0.94774 0.19702 0.0
H423 H 0.60793 0.91672 0.28247 0.0
H424 H 0.75784 0.05138 0.30734 0.0
H425 H 0.69802 0.03842 0.29706 0.0
H426 H 0.67559 0.01752 0.25061 0.0
C427 C 0.58747 0.94214 0.20657 0.0
C428 C 0.62218 0.93919 0.27576 0.0
C429 C 0.56098 0.93 0.19006 0.0
C430 C 0.75022 0.02462 0.3048 0.0
C431 C 0.71615 0.01724 0.29867 0.0
C432 C 0.66066 -0.00405 0.2582 0.0
C433 C 0.58287 0.94617 0.23516 0.0
C434 C 0.6118 0.95808 0.25236 0.0
C435 C 0.70608 0.9831 0.29291 0.0
C436 C 0.67204 0.97612 0.28078 0.0
H437 H 0.49993 0.92026 0.23973 0.0
H438 H 0.54687 0.94105 0.26891 0.0
H439 H 0.62348 0.00197 0.22615 0.0
H440 H 0.78323 0.94299 0.30045 0.0
H441 H 0.72333 0.92973 0.29059 0.0
C442 C 0.99069 0.21751 0.81378 0.0
C443 C 0.00406 0.23716 0.83556 0.0
C444 C 0.00966 0.19062 0.80232 0.0
C445 C 0.0689 0.16365 0.76874 0.0
H446 H 0.1047 0.08057 0.80358 0.0
C447 C 0.14197 0.06688 0.70403 0.0
C448 C 0.12938 0.03301 0.7057 0.0
C449 C 0.13436 0.09084 0.72463 0.0
C450 C 0.095 0.1038 0.79371 0.0
H451 H 0.04664 0.24262 0.86382 0.0
H452 H 0.08008 0.19499 0.84351 0.0
H453 H 0.0741 0.12398 0.83158 0.0
H454 H 0.10126 -0.00338 0.73102 0.0
H455 H 0.08673 0.03906 0.76673 0.0
H456 H 0.08831 0.14368 0.73088 0.0
C457 C 0.0549 0.20076 0.83543 0.0
C458 C 0.07775 0.12855 0.80969 0.0
C459 C 0.03587 0.22797 0.8469 0.0
C460 C 0.111 0.02274 0.72922 0.0
C461 C 0.10296 0.04693 0.74974 0.0
C462 C 0.08622 0.13927 0.75292 0.0
C463 C 0.04228 0.18274 0.81248 0.0
C464 C 0.06389 0.15817 0.79707 0.0
C465 C 0.11353 0.08153 0.74706 0.0
C466 C 0.09895 0.10879 0.76508 0.0
H467 H 0.96607 0.2237 0.80482 0.0
H468 H -0.00066 0.1767 0.78481 0.0
H469 H 0.0586 0.18651 0.75867 0.0
H470 H 0.15686 0.07521 0.68638 0.0
H471 H 0.14348 0.11714 0.72234 0.0
C472 C 0.06833 0.32879 0.77134 0.0
C473 C 0.04071 0.34542 0.78442 0.0
C474 C 0.08655 0.34538 0.75044 0.0
C475 C 0.10997 0.43388 0.73366 0.0
H476 H 0.16803 0.38754 0.68005 0.0
C477 C 0.24697 0.4739 0.7172 0.0
C478 C 0.26077 0.47667 0.69042 0.0
C479 C 0.21467 0.46007 0.72143 0.0
C480 C 0.1516 0.40109 0.69451 0.0
H481 H 0.00829 0.39104 0.78384 0.0
H482 H 0.04007 0.42014 0.747 0.0
H483 H 0.11727 0.3582 0.69785 0.0
H484 H 0.25139 0.46595 0.6471 0.0
H485 H 0.1945 0.4409 0.65476 0.0
H486 H 0.14492 0.47614 0.73114 0.0
C487 C 0.04797 0.3944 0.75331 0.0
C488 C 0.12268 0.38422 0.70489 0.0
C489 C 0.02959 0.37765 0.77427 0.0
C490 C 0.24154 0.46428 0.66797 0.0
C491 C 0.20901 0.45001 0.67232 0.0
C492 C 0.13875 0.45066 0.7233 0.0
C493 C 0.07765 0.37911 0.74207 0.0
C494 C 0.10244 0.3998 0.72557 0.0
C495 C 0.1951 0.44837 0.6991 0.0
C496 C 0.16076 0.4338 0.70465 0.0
H497 H 0.07724 0.3037 0.77845 0.0
H498 H 0.10927 0.33276 0.74249 0.0
H499 H 0.09525 0.44672 0.74963 0.0
H500 H 0.26092 0.48279 0.73512 0.0
H501 H 0.20507 0.45832 0.74239 0.0
C502 C 0.5747 0.56474 0.3104 0.0
C503 C 0.58383 0.53344 0.29765 0.0
C504 C 0.56234 0.59231 0.29479 0.0
C505 C 0.56372 0.63152 0.22665 0.0
H506 H 0.48914 0.68536 0.25773 0.0
C507 C 0.50449 0.7636 0.18558 0.0
C508 C 0.505 0.78901 0.20645 0.0
C509 C 0.51389 0.72932 0.19159 0.0
C510 C 0.50976 0.67037 0.24867 0.0
H511 H 0.58748 0.50638 0.2585 0.0
H512 H 0.56586 0.55524 0.23091 0.0
H513 H 0.50371 0.62933 0.27784 0.0
H514 H 0.51836 0.79885 0.2493 0.0
H515 H 0.5342 0.73941 0.25959 0.0
H516 H 0.57018 0.6736 0.19796 0.0
C517 C 0.56827 0.55813 0.25308 0.0
C518 C 0.51815 0.63844 0.26018 0.0
C519 C 0.58047 0.53024 0.26884 0.0
C520 C 0.51711 0.77994 0.23282 0.0
C521 C 0.52617 0.7459 0.23878 0.0
C522 C 0.55512 0.66362 0.21496 0.0
C523 C 0.55887 0.58932 0.26602 0.0
C524 C 0.54609 0.61938 0.25006 0.0
C525 C 0.52365 0.72017 0.21851 0.0
C526 C 0.52894 0.68376 0.22666 0.0
H527 H 0.57712 0.56806 0.33253 0.0
H528 H 0.55594 0.61627 0.30526 0.0
H529 H 0.58539 0.6173 0.2185 0.0
H530 H 0.49539 0.76978 0.16504 0.0
H531 H 0.51194 0.70974 0.17566 0.0
C532 C 0.47194 0.10472 0.77236 0.0
C533 C 0.45748 0.13485 0.78386 0.0
C534 C 0.45461 0.08644 0.75167 0.0
C535 C 0.37749 0.09073 0.70535 0.0
H536 H 0.37166 0.99284 0.72219 0.0
C537 C 0.26516 0.00847 0.66515 0.0
C538 C 0.24986 0.9884 0.68599 0.0
C539 C 0.29768 0.02276 0.66918 0.0
C540 C 0.37302 0.02012 0.7171 0.0
H541 H 0.41497 0.17095 0.78091 0.0
H542 H 0.38477 0.13911 0.7458 0.0
H543 H 0.41623 0.0273 0.74328 0.0
H544 H 0.25769 0.96598 0.7267 0.0
H545 H 0.31319 0.99111 0.73384 0.0
H546 H 0.33235 0.0841 0.68116 0.0
C547 C 0.40948 0.12943 0.75229 0.0
C548 C 0.39899 0.03987 0.72892 0.0
C549 C 0.42671 0.1476 0.77281 0.0
C550 C 0.26846 0.98152 0.71023 0.0
C551 C 0.3007 -0.00434 0.71422 0.0
C552 C 0.35123 0.07105 0.69382 0.0
C553 C 0.42256 0.098 0.74203 0.0
C554 C 0.4006 0.07578 0.72424 0.0
C555 C 0.31555 0.01706 0.69405 0.0
C556 C 0.34771 0.03583 0.70062 0.0
H557 H 0.49571 0.0943 0.78029 0.0
H558 H 0.46574 0.06262 0.74394 0.0
H559 H 0.37849 0.11813 0.70065 0.0
H560 H 0.25157 0.0142 0.64621 0.0
H561 H 0.30848 0.03887 0.6531 0.0
C562 C 0.93806 0.7037 0.20052 0.0
C563 C 0.97093 0.70361 0.18913 0.0
C564 C 0.92107 0.73497 0.20533 0.0
C565 C 0.93084 0.83199 0.19965 0.0
H566 H 0.8858 0.82835 0.2709 0.0
C567 C 0.89476 0.95588 0.26162 0.0
C568 C 0.89956 0.95364 0.29032 0.0
C569 C 0.89743 0.9262 0.24515 0.0
C570 C 0.89854 0.82994 0.25106 0.0
H571 H 0.01135 0.73526 0.17236 0.0
H572 H 0.98307 0.78997 0.18244 0.0
H573 H 0.90042 0.77517 0.24775 0.0
H574 H 0.91212 0.91918 0.32422 0.0
H575 H 0.91838 0.86807 0.29565 0.0
H576 H 0.93161 0.88707 0.20455 0.0
C577 C 0.96938 0.76628 0.1867 0.0
C578 C 0.90632 0.79923 0.23734 0.0
C579 C 0.98583 0.73491 0.18102 0.0
C580 C 0.90789 0.92157 0.30218 0.0
C581 C 0.9111 0.89217 0.28577 0.0
C582 C 0.9237 0.86281 0.21374 0.0
C583 C 0.93733 0.76678 0.2 0.0
C584 C 0.92355 0.79968 0.2118 0.0
C585 C 0.90539 0.89391 0.2571 0.0
C586 C 0.90854 0.86202 0.24008 0.0
H587 H 0.92608 0.67963 0.20666 0.0
H588 H 0.89591 0.73412 0.21457 0.0
H589 H 0.94326 0.83355 0.17969 0.0
H590 H 0.88821 0.98033 0.25198 0.0
H591 H 0.89273 0.92848 0.22318 0.0
loop_
_geom_bond_atom_site_label_1
_geom_bond_atom_site_label_2
_geom_bond_distance
_geom_bond_site_symmetry_2
_ccdc_geom_bond_type
Co0 O1 2.216 . S
Co0 O2 2.091 . S
Co0 O4 2.004 1_455 S
Co0 O10 2.021 . S
Co0 O12 2.137 1_455 S
Co0 O13 2.244 . S
O1 Co0 2.216 . S
O1 C8 1.247 . S
O2 Co0 2.091 . S
O2 C8 1.261 . S
C3 O12 1.247 . S
C3 O13 1.272 1_655 S
O4 Co0 2.004 1_655 S
O4 C9 1.256 1_655 S
Co5 O6 2.061 . S
Co5 O11 2.052 . S
Co5 O13 2.135 . S
O6 Co5 2.061 . S
O6 C9 1.244 . S
C7 O10 1.238 . S
C7 O11 1.241 . S
C8 O1 1.247 . S
C8 O2 1.261 . S
C9 O4 1.256 1_455 S
C9 O6 1.244 . S
O10 Co0 2.021 . S
O10 C7 1.238 . S
O11 Co5 2.052 . S
O11 C7 1.241 . S
O12 Co0 2.137 1_655 S
O12 C3 1.247 . S
O13 Co0 2.244 . S
O13 C3 1.272 1_455 S
O13 Co5 2.135 . S
Co14 O15 2.216 . S
Co14 O16 2.091 . S
Co14 O18 2.004 . S
Co14 O24 2.021 . S
Co14 O26 2.137 . S
Co14 O27 2.244 . S
O15 Co14 2.216 . S
O15 C22 1.247 . S
O16 Co14 2.091 . S
O16 C22 1.261 . S
C17 O26 1.247 . S
C17 O27 1.272 . S
O18 Co14 2.004 . S
O18 C23 1.259 . S
Co19 O20 2.061 . S
Co19 O25 2.052 . S
Co19 O27 2.135 . S
O20 Co19 2.061 . S
O20 C23 1.235 . S
C21 O24 1.238 . S
C21 O25 1.241 . S
C22 O15 1.247 . S
C22 O16 1.261 . S
C23 O18 1.259 . S
C23 O20 1.235 . S
O24 Co14 2.021 . S
O24 C21 1.238 . S
O25 Co19 2.052 . S
O25 C21 1.241 . S
O26 Co14 2.137 . S
O26 C17 1.247 . S
O27 Co14 2.244 . S
O27 C17 1.272 . S
O27 Co19 2.135 . S
Co28 O29 2.216 . S
Co28 O30 2.091 . S
Co28 O32 2.004 . S
Co28 O38 2.021 . S
Co28 O40 2.137 . S
Co28 O41 2.244 . S
O29 Co28 2.216 . S
O29 C36 1.247 . S
O30 Co28 2.091 . S
O30 C36 1.261 . S
C31 O40 1.247 . S
C31 O41 1.272 . S
O32 Co28 2.004 . S
O32 C37 1.259 . S
Co33 O34 2.061 . S
Co33 O39 2.052 . S
Co33 O41 2.135 . S
O34 Co33 2.061 . S
O34 C37 1.235 . S
C35 O38 1.238 . S
C35 O39 1.241 . S
C36 O29 1.247 . S
C36 O30 1.261 . S
C37 O32 1.259 . S
C37 O34 1.235 . S
O38 Co28 2.021 . S
O38 C35 1.238 . S
O39 Co33 2.052 . S
O39 C35 1.241 . S
O40 Co28 2.137 . S
O40 C31 1.247 . S
O41 Co28 2.244 . S
O41 C31 1.272 . S
O41 Co33 2.135 . S
Co42 O43 2.216 . S
Co42 O44 2.091 . S
Co42 O46 2.004 1_565 S
Co42 O52 2.021 . S
Co42 O54 2.137 1_565 S
Co42 O55 2.244 . S
O43 Co42 2.216 . S
O43 C50 1.247 . S
O44 Co42 2.091 . S
O44 C50 1.261 . S
C45 O54 1.247 . S
C45 O55 1.272 1_545 S
O46 Co42 2.004 1_545 S
O46 C51 1.259 . S
Co47 O48 2.061 . S
Co47 O53 2.052 . S
Co47 O55 2.135 . S
O48 Co47 2.061 . S
O48 C51 1.235 1_565 S
C49 O52 1.238 . S
C49 O53 1.241 . S
C50 O43 1.247 . S
C50 O44 1.261 . S
C51 O46 1.259 . S
C51 O48 1.235 1_545 S
O52 Co42 2.021 . S
O52 C49 1.238 . S
O53 Co47 2.052 . S
O53 C49 1.241 . S
O54 Co42 2.137 1_545 S
O54 C45 1.247 . S
O55 Co42 2.244 . S
O55 C45 1.272 1_565 S
O55 Co47 2.135 . S
Co56 O57 2.216 . S
Co56 O58 2.091 . S
Co56 O60 2.005 . S
Co56 O66 2.021 . S
Co56 O68 2.137 . S
Co56 O69 2.244 1_655 S
O57 Co56 2.216 . S
O57 C64 1.247 . S
O58 Co56 2.091 . S
O58 C64 1.261 . S
C59 O68 1.247 1_455 S
C59 O69 1.272 . S
O60 Co56 2.005 . S
O60 C65 1.258 1_655 S
Co61 O62 2.061 . S
Co61 O67 2.052 . S
Co61 O69 2.135 . S
O62 Co61 2.061 . S
O62 C65 1.235 . S
C63 O66 1.238 . S
C63 O67 1.241 1_655 S
C64 O57 1.247 . S
C64 O58 1.261 . S
C65 O60 1.258 1_455 S
C65 O62 1.235 . S
O66 Co56 2.021 . S
O66 C63 1.238 . S
O67 Co61 2.052 . S
O67 C63 1.241 1_455 S
O68 Co56 2.137 . S
O68 C59 1.247 1_655 S
O69 Co56 2.244 1_455 S
O69 C59 1.272 . S
O69 Co61 2.135 . S
Co70 O71 2.216 . S
Co70 O72 2.091 . S
Co70 O74 2.004 . S
Co70 O80 2.021 . S
Co70 O82 2.137 . S
Co70 O83 2.244 . S
O71 Co70 2.216 . S
O71 C78 1.247 . S
O72 Co70 2.091 . S
O72 C78 1.261 . S
C73 O82 1.247 . S
C73 O83 1.272 . S
O74 Co70 2.004 . S
O74 C79 1.259 . S
Co75 O76 2.061 . S
Co75 O81 2.052 . S
Co75 O83 2.135 . S
O76 Co75 2.061 . S
O76 C79 1.235 . S
C77 O80 1.238 . S
C77 O81 1.241 . S
C78 O71 1.247 . S
C78 O72 1.261 . S
C79 O74 1.259 . S
C79 O76 1.235 . S
O80 Co70 2.021 . S
O80 C77 1.238 . S
O81 Co75 2.052 . S
O81 C77 1.241 . S
O82 Co70 2.137 . S
O82 C73 1.247 . S
O83 Co70 2.244 . S
O83 C73 1.272 . S
O83 Co75 2.135 . S
Co84 O85 2.216 . S
Co84 O86 2.091 . S
Co84 O88 2.004 . S
Co84 O94 2.021 . S
Co84 O96 2.137 . S
Co84 O97 2.244 . S
O85 Co84 2.216 . S
O85 C92 1.247 . S
O86 Co84 2.091 . S
O86 C92 1.261 . S
C87 O96 1.247 . S
C87 O97 1.272 . S
O88 Co84 2.004 . S
O88 C93 1.259 . S
Co89 O90 2.061 . S
Co89 O95 2.052 . S
Co89 O97 2.135 . S
O90 Co89 2.061 . S
O90 C93 1.235 . S
C91 O94 1.238 . S
C91 O95 1.241 . S
C92 O85 1.247 . S
C92 O86 1.261 . S
C93 O88 1.259 . S
C93 O90 1.235 . S
O94 Co84 2.021 . S
O94 C91 1.238 . S
O95 Co89 2.052 . S
O95 C91 1.241 . S
O96 Co84 2.137 . S
O96 C87 1.247 . S
O97 Co84 2.244 . S
O97 C87 1.272 . S
O97 Co89 2.135 . S
Co98 O99 2.216 . S
Co98 O100 2.091 . S
Co98 O102 2.004 1_545 S
Co98 O108 2.021 . S
Co98 O110 2.137 1_545 S
Co98 O111 2.244 . S
O99 Co98 2.216 . S
O99 C106 1.247 . S
O100 Co98 2.091 . S
O100 C106 1.261 . S
C101 O110 1.247 . S
C101 O111 1.272 1_565 S
O102 Co98 2.004 1_565 S
O102 C107 1.259 . S
Co103 O104 2.061 . S
Co103 O109 2.052 . S
Co103 O111 2.135 . S
O104 Co103 2.061 . S
O104 C107 1.235 1_545 S
C105 O108 1.238 . S
C105 O109 1.241 . S
C106 O99 1.247 . S
C106 O100 1.261 . S
C107 O102 1.259 . S
C107 O104 1.235 1_565 S
O108 Co98 2.021 . S
O108 C105 1.238 . S
O109 Co103 2.052 . S
O109 C105 1.241 . S
O110 Co98 2.137 1_565 S
O110 C101 1.247 . S
O111 Co98 2.244 . S
O111 C101 1.272 1_545 S
O111 Co103 2.135 . S
C112 C113 1.347 1_455 S
C112 C114 1.328 . S
C112 H137 0.951 . S
C113 C112 1.347 1_655 S
C113 C129 1.349 . S
C114 C112 1.328 . S
C114 C133 1.429 1_455 S
C114 H138 0.950 . S
C115 C132 1.576 . S
C115 C134 1.368 1_655 S
C115 H139 0.949 . S
H116 C120 0.949 . S
C117 C118 1.349 . S
C117 C119 1.327 . S
C117 H140 0.950 . S
C118 C117 1.349 . S
C118 C130 1.349 . S
C119 C117 1.327 . S
C119 C135 1.429 . S
C119 H141 0.956 . S
C120 H116 0.949 . S
C120 C128 1.574 . S
C120 C136 1.368 . S
H121 C129 0.950 . S
H122 C127 0.950 . S
H123 C128 0.949 . S
H124 C130 0.950 . S
H125 C131 0.950 . S
H126 C132 0.952 . S
C127 H122 0.950 . S
C127 C129 1.327 . S
C127 C133 1.429 . S
C128 C120 1.574 . S
C128 H123 0.949 . S
C128 C134 1.368 1_554 S
C129 C113 1.349 . S
C129 H121 0.950 . S
C129 C127 1.327 . S
C130 C118 1.349 . S
C130 H124 0.950 . S
C130 C131 1.327 . S
C131 H125 0.950 . S
C131 C130 1.327 . S
C131 C135 1.429 . S
C132 C115 1.576 . S
C132 H126 0.952 . S
C132 C136 1.363 1_656 S
C133 C114 1.429 1_655 S
C133 C127 1.429 . S
C133 C134 1.523 1_655 S
C134 C115 1.368 1_455 S
C134 C128 1.368 1_556 S
C134 C133 1.523 1_455 S
C135 C119 1.429 . S
C135 C131 1.429 . S
C135 C136 1.523 . S
C136 C120 1.368 . S
C136 C132 1.363 1_454 S
C136 C135 1.523 . S
H137 C112 0.951 . S
H138 C114 0.950 . S
H139 C115 0.949 . S
H140 C117 0.950 . S
H141 C119 0.956 . S
C142 C143 1.349 . S
C142 C144 1.327 . S
C142 H167 0.950 . S
C143 C142 1.349 . S
C143 C159 1.349 . S
C144 C142 1.327 . S
C144 C163 1.429 . S
C144 H168 0.950 . S
C145 C162 1.574 . S
C145 C164 1.368 . S
C145 H169 0.949 . S
H146 C150 0.949 . S
C147 C148 1.349 . S
C147 C149 1.327 . S
C147 H170 0.950 . S
C148 C147 1.349 . S
C148 C160 1.349 . S
C149 C147 1.327 . S
C149 C165 1.429 . S
C149 H171 0.950 . S
C150 H146 0.949 . S
C150 C158 1.574 . S
C150 C166 1.368 . S
H151 C159 0.950 . S
H152 C157 0.950 . S
H153 C158 0.949 . S
H154 C160 0.950 . S
H155 C161 0.950 . S
H156 C162 0.949 . S
C157 H152 0.950 . S
C157 C159 1.327 . S
C157 C163 1.429 . S
C158 C150 1.574 . S
C158 H153 0.949 . S
C158 C164 1.368 . S
C159 C143 1.349 . S
C159 H151 0.950 . S
C159 C157 1.327 . S
C160 C148 1.349 . S
C160 H154 0.950 . S
C160 C161 1.327 . S
C161 H155 0.950 . S
C161 C160 1.327 . S
C161 C165 1.429 . S
C162 C145 1.574 . S
C162 H156 0.949 . S
C162 C166 1.368 . S
C163 C144 1.429 . S
C163 C157 1.429 . S
C163 C164 1.523 . S
C164 C145 1.368 . S
C164 C158 1.368 . S
C164 C163 1.523 . S
C165 C149 1.429 . S
C165 C161 1.429 . S
C165 C166 1.523 . S
C166 C150 1.368 . S
C166 C162 1.368 . S
C166 C165 1.523 . S
H167 C142 0.950 . S
H168 C144 0.950 . S
H169 C145 0.949 . S
H170 C147 0.950 . S
H171 C149 0.950 . S
C172 C173 1.349 . S
C172 C174 1.327 . S
C172 H197 0.950 . S
C173 C172 1.349 . S
C173 C189 1.349 . S
C174 C172 1.327 . S
C174 C193 1.429 . S
C174 H198 0.950 . S
C175 C192 1.574 . S
C175 C194 1.368 1_545 S
C175 H199 0.949 . S
H176 C180 0.950 1_565 S
C177 C178 1.349 . S
C177 C179 1.327 . S
C177 H200 0.950 . S
C178 C177 1.349 . S
C178 C190 1.349 . S
C179 C177 1.327 . S
C179 C195 1.429 . S
C179 H201 0.950 . S
C180 H176 0.950 1_545 S
C180 C188 1.576 1_545 S
C180 C196 1.366 . S
H181 C189 0.950 . S
H182 C187 0.950 . S
H183 C188 0.949 . S
H184 C190 0.950 . S
H185 C191 0.950 . S
H186 C192 0.949 . S
C187 H182 0.950 . S
C187 C189 1.327 . S
C187 C193 1.429 . S
C188 C180 1.576 1_565 S
C188 H183 0.949 . S
C188 C194 1.368 1_556 S
C189 C173 1.349 . S
C189 H181 0.950 . S
C189 C187 1.327 . S
C190 C178 1.349 . S
C190 H184 0.950 . S
C190 C191 1.327 . S
C191 H185 0.950 . S
C191 C190 1.327 . S
C191 C195 1.429 . S
C192 C175 1.574 . S
C192 H186 0.949 . S
C192 C196 1.368 1_554 S
C193 C174 1.429 . S
C193 C187 1.429 . S
C193 C194 1.523 . S
C194 C175 1.368 1_565 S
C194 C188 1.368 1_554 S
C194 C193 1.523 . S
C195 C179 1.429 . S
C195 C191 1.429 . S
C195 C196 1.523 . S
C196 C180 1.366 . S
C196 C192 1.368 1_556 S
C196 C195 1.523 . S
H197 C172 0.950 . S
H198 C174 0.950 . S
H199 C175 0.949 . S
H200 C177 0.950 . S
H201 C179 0.950 . S
C202 C203 1.349 1_565 S
C202 C204 1.327 . S
C202 H227 0.950 . S
C203 C202 1.349 1_545 S
C203 C219 1.349 . S
C204 C202 1.327 . S
C204 C223 1.429 1_565 S
C204 H228 0.950 . S
C205 C222 1.574 . S
C205 C224 1.368 . S
C205 H229 0.949 . S
H206 C210 0.949 . S
C207 C208 1.349 1_545 S
C207 C209 1.327 . S
C207 H230 0.950 . S
C208 C207 1.349 1_565 S
C208 C220 1.349 . S
C209 C207 1.327 . S
C209 C225 1.429 1_545 S
C209 H231 0.950 . S
C210 H206 0.949 . S
C210 C218 1.574 1_455 S
C210 C226 1.368 . S
H211 C219 0.950 . S
H212 C217 0.950 . S
H213 C218 0.949 . S
H214 C220 0.950 . S
H215 C221 0.950 . S
H216 C222 0.949 . S
C217 H212 0.950 . S
C217 C219 1.327 . S
C217 C223 1.429 . S
C218 C210 1.574 1_655 S
C218 H213 0.949 . S
C218 C224 1.368 1_565 S
C219 C203 1.349 . S
C219 H211 0.950 . S
C219 C217 1.327 . S
C220 C208 1.349 . S
C220 H214 0.950 . S
C220 C221 1.327 . S
C221 H215 0.950 . S
C221 C220 1.327 . S
C221 C225 1.429 . S
C222 C205 1.574 . S
C222 H216 0.949 . S
C222 C226 1.368 1_645 S
C223 C204 1.429 1_545 S
C223 C217 1.429 . S
C223 C224 1.523 . S
C224 C205 1.368 . S
C224 C218 1.368 1_545 S
C224 C223 1.523 . S
C225 C209 1.429 1_565 S
C225 C221 1.429 . S
C225 C226 1.523 . S
C226 C210 1.368 . S
C226 C222 1.368 1_465 S
C226 C225 1.523 . S
H227 C202 0.950 . S
H228 C204 0.950 . S
H229 C205 0.949 . S
H230 C207 0.950 . S
H231 C209 0.950 . S
C232 C233 1.349 . S
C232 C234 1.327 . S
C232 H257 0.950 . S
C233 C232 1.349 . S
C233 C249 1.349 . S
C234 C232 1.327 . S
C234 C253 1.429 . S
C234 H258 0.950 . S
C235 C252 1.574 . S
C235 C254 1.368 . S
C235 H259 0.949 . S
H236 C240 0.949 . S
C237 C238 1.349 . S
C237 C239 1.327 . S
C237 H260 0.950 . S
C238 C237 1.349 . S
C238 C250 1.349 . S
C239 C237 1.327 . S
C239 C255 1.429 . S
C239 H261 0.950 . S
C240 H236 0.949 . S
C240 C248 1.574 . S
C240 C256 1.368 . S
H241 C249 0.950 . S
H242 C247 0.950 . S
H243 C248 0.949 . S
H244 C250 0.950 . S
H245 C251 0.950 . S
H246 C252 0.949 . S
C247 H242 0.950 . S
C247 C249 1.327 . S
C247 C253 1.429 . S
C248 C240 1.574 . S
C248 H243 0.949 . S
C248 C254 1.368 . S
C249 C233 1.349 . S
C249 H241 0.950 . S
C249 C247 1.327 . S
C250 C238 1.349 . S
C250 H244 0.950 . S
C250 C251 1.327 . S
C251 H245 0.950 . S
C251 C250 1.327 . S
C251 C255 1.429 . S
C252 C235 1.574 . S
C252 H246 0.949 . S
C252 C256 1.368 . S
C253 C234 1.429 . S
C253 C247 1.429 . S
C253 C254 1.523 . S
C254 C235 1.368 . S
C254 C248 1.368 . S
C254 C253 1.523 . S
C255 C239 1.429 . S
C255 C251 1.429 . S
C255 C256 1.523 . S
C256 C240 1.368 . S
C256 C252 1.368 . S
C256 C255 1.523 . S
H257 C232 0.950 . S
H258 C234 0.950 . S
H259 C235 0.949 . S
H260 C237 0.950 . S
H261 C239 0.950 . S
C262 C263 1.349 . S
C262 C264 1.327 . S
C262 H287 0.950 . S
C263 C262 1.349 . S
C263 C279 1.349 . S
C264 C262 1.327 . S
C264 C283 1.429 . S
C264 H288 0.950 . S
C265 C282 1.574 . S
C265 C284 1.368 . S
C265 H289 0.949 . S
H266 C270 0.949 . S
C267 C268 1.349 . S
C267 C269 1.327 . S
C267 H290 0.950 . S
C268 C267 1.349 . S
C268 C280 1.349 . S
C269 C267 1.327 . S
C269 C285 1.429 . S
C269 H291 0.950 . S
C270 H266 0.949 . S
C270 C278 1.574 . S
C270 C286 1.368 . S
H271 C279 0.950 . S
H272 C277 0.950 . S
H273 C278 0.949 . S
H274 C280 0.950 . S
H275 C281 0.950 . S
H276 C282 0.949 . S
C277 H272 0.950 . S
C277 C279 1.327 . S
C277 C283 1.429 . S
C278 C270 1.574 . S
C278 H273 0.949 . S
C278 C284 1.368 . S
C279 C263 1.349 . S
C279 H271 0.950 . S
C279 C277 1.327 . S
C280 C268 1.349 . S
C280 H274 0.950 . S
C280 C281 1.327 . S
C281 H275 0.950 . S
C281 C280 1.327 . S
C281 C285 1.429 . S
C282 C265 1.574 . S
C282 H276 0.949 . S
C282 C286 1.368 . S
C283 C264 1.429 . S
C283 C277 1.429 . S
C283 C284 1.523 . S
C284 C265 1.368 . S
C284 C278 1.368 . S
C284 C283 1.523 . S
C285 C269 1.429 . S
C285 C281 1.429 . S
C285 C286 1.523 . S
C286 C270 1.368 . S
C286 C282 1.368 . S
C286 C285 1.523 . S
H287 C262 0.950 . S
H288 C264 0.950 . S
H289 C265 0.949 . S
H290 C267 0.950 . S
H291 C269 0.950 . S
C292 C293 1.349 . S
C292 C294 1.327 . S
C292 H317 0.950 . S
C293 C292 1.349 . S
C293 C309 1.349 . S
C294 C292 1.327 . S
C294 C313 1.429 . S
C294 H318 0.950 . S
C295 C312 1.574 . S
C295 C314 1.368 . S
C295 H319 0.949 . S
H296 C300 0.949 . S
C297 C298 1.349 . S
C297 C299 1.327 . S
C297 H320 0.950 . S
C298 C297 1.349 . S
C298 C310 1.349 . S
C299 C297 1.327 . S
C299 C315 1.429 . S
C299 H321 0.950 . S
C300 H296 0.949 . S
C300 C308 1.574 . S
C300 C316 1.368 . S
H301 C309 0.950 . S
H302 C307 0.950 . S
H303 C308 0.949 . S
H304 C310 0.950 . S
H305 C311 0.950 . S
H306 C312 0.949 . S
C307 H302 0.950 . S
C307 C309 1.327 . S
C307 C313 1.429 . S
C308 C300 1.574 . S
C308 H303 0.949 . S
C308 C314 1.368 . S
C309 C293 1.349 . S
C309 H301 0.950 . S
C309 C307 1.327 . S
C310 C298 1.349 . S
C310 H304 0.950 . S
C310 C311 1.327 . S
C311 H305 0.950 . S
C311 C310 1.327 . S
C311 C315 1.429 . S
C312 C295 1.574 . S
C312 H306 0.949 . S
C312 C316 1.368 . S
C313 C294 1.429 . S
C313 C307 1.429 . S
C313 C314 1.523 . S
C314 C295 1.368 . S
C314 C308 1.368 . S
C314 C313 1.523 . S
C315 C299 1.429 . S
C315 C311 1.429 . S
C315 C316 1.523 . S
C316 C300 1.368 . S
C316 C312 1.368 . S
C316 C315 1.523 . S
H317 C292 0.950 . S
H318 C294 0.950 . S
H319 C295 0.949 . S
H320 C297 0.950 . S
H321 C299 0.950 . S
C322 C323 1.349 . S
C322 C324 1.327 . S
C322 H347 0.950 . S
C323 C322 1.349 . S
C323 C339 1.349 . S
C324 C322 1.327 . S
C324 C343 1.429 . S
C324 H348 0.950 . S
C325 C342 1.574 . S
C325 C344 1.368 . S
C325 H349 0.949 . S
H326 C330 0.949 . S
C327 C328 1.349 . S
C327 C329 1.327 . S
C327 H350 0.950 . S
C328 C327 1.349 . S
C328 C340 1.349 . S
C329 C327 1.327 . S
C329 C345 1.429 . S
C329 H351 0.950 . S
C330 H326 0.949 . S
C330 C338 1.574 . S
C330 C346 1.368 . S
H331 C339 0.950 . S
H332 C337 0.950 . S
H333 C338 0.949 . S
H334 C340 0.950 . S
H335 C341 0.950 . S
H336 C342 0.949 . S
C337 H332 0.950 . S
C337 C339 1.327 . S
C337 C343 1.429 . S
C338 C330 1.574 . S
C338 H333 0.949 . S
C338 C344 1.368 . S
C339 C323 1.349 . S
C339 H331 0.950 . S
C339 C337 1.327 . S
C340 C328 1.349 . S
C340 H334 0.950 . S
C340 C341 1.327 . S
C341 H335 0.950 . S
C341 C340 1.327 . S
C341 C345 1.429 . S
C342 C325 1.574 . S
C342 H336 0.949 . S
C342 C346 1.368 . S
C343 C324 1.429 . S
C343 C337 1.429 . S
C343 C344 1.523 . S
C344 C325 1.368 . S
C344 C338 1.368 . S
C344 C343 1.523 . S
C345 C329 1.429 . S
C345 C341 1.429 . S
C345 C346 1.523 . S
C346 C330 1.368 . S
C346 C342 1.368 . S
C346 C345 1.523 . S
H347 C322 0.950 . S
H348 C324 0.950 . S
H349 C325 0.949 . S
H350 C327 0.950 . S
H351 C329 0.950 . S
C352 C353 1.349 . S
C352 C354 1.327 . S
C352 H377 0.950 . S
C353 C352 1.349 . S
C353 C369 1.349 . S
C354 C352 1.327 . S
C354 C373 1.429 . S
C354 H378 0.950 . S
C355 C372 1.574 . S
C355 C374 1.368 . S
C355 H379 0.949 . S
H356 C360 0.949 . S
C357 C358 1.349 . S
C357 C359 1.327 . S
C357 H380 0.950 . S
C358 C357 1.349 . S
C358 C370 1.349 . S
C359 C357 1.327 . S
C359 C375 1.429 . S
C359 H381 0.950 . S
C360 H356 0.949 . S
C360 C368 1.574 . S
C360 C376 1.368 . S
H361 C369 0.950 . S
H362 C367 0.950 . S
H363 C368 0.949 . S
H364 C370 0.975 . S
H365 C371 0.950 . S
H366 C372 0.949 . S
C367 H362 0.950 . S
C367 C369 1.327 . S
C367 C373 1.429 . S
C368 C360 1.574 . S
C368 H363 0.949 . S
C368 C374 1.368 . S
C369 C353 1.349 . S
C369 H361 0.950 . S
C369 C367 1.327 . S
C370 C358 1.349 . S
C370 H364 0.975 . S
C370 C371 1.327 . S
C371 H365 0.950 . S
C371 C370 1.327 . S
C371 C375 1.429 . S
C372 C355 1.574 . S
C372 H366 0.949 . S
C372 C376 1.368 . S
C373 C354 1.429 . S
C373 C367 1.429 . S
C373 C374 1.523 . S
C374 C355 1.368 . S
C374 C368 1.368 . S
C374 C373 1.523 . S
C375 C359 1.429 . S
C375 C371 1.429 . S
C375 C376 1.523 . S
C376 C360 1.368 . S
C376 C372 1.368 . S
C376 C375 1.523 . S
H377 C352 0.950 . S
H378 C354 0.950 . S
H379 C355 0.949 . S
H380 C357 0.950 . S
H381 C359 0.950 . S
C382 C383 1.349 . S
C382 C384 1.327 . S
C382 H407 0.950 . S
C383 C382 1.349 . S
C383 C399 1.349 . S
C384 C382 1.327 . S
C384 C403 1.429 . S
C384 H408 0.950 . S
C385 C402 1.574 . S
C385 C404 1.368 . S
C385 H409 0.949 . S
H386 C390 0.949 . S
C387 C388 1.349 . S
C387 C389 1.327 . S
C387 H410 0.950 . S
C388 C387 1.349 . S
C388 C400 1.349 . S
C389 C387 1.327 . S
C389 C405 1.429 . S
C389 H411 0.950 . S
C390 H386 0.949 . S
C390 C398 1.574 . S
C390 C406 1.368 . S
H391 C399 0.950 . S
H392 C397 0.950 . S
H393 C398 0.949 . S
H394 C400 0.950 . S
H395 C401 0.950 . S
H396 C402 0.949 . S
C397 H392 0.950 . S
C397 C399 1.327 . S
C397 C403 1.429 . S
C398 C390 1.574 . S
C398 H393 0.949 . S
C398 C404 1.368 . S
C399 C383 1.349 . S
C399 H391 0.950 . S
C399 C397 1.327 . S
C400 C388 1.349 . S
C400 H394 0.950 . S
C400 C401 1.327 . S
C401 H395 0.950 . S
C401 C400 1.327 . S
C401 C405 1.429 . S
C402 C385 1.574 . S
C402 H396 0.949 . S
C402 C406 1.368 . S
C403 C384 1.429 . S
C403 C397 1.429 . S
C403 C404 1.523 . S
C404 C385 1.368 . S
C404 C398 1.368 . S
C404 C403 1.523 . S
C405 C389 1.429 . S
C405 C401 1.429 . S
C405 C406 1.523 . S
C406 C390 1.368 . S
C406 C402 1.368 . S
C406 C405 1.523 . S
H407 C382 0.950 . S
H408 C384 0.950 . S
H409 C385 0.949 . S
H410 C387 0.950 . S
H411 C389 0.950 . S
C412 C413 1.349 . S
C412 C414 1.327 . S
C412 H437 0.950 . S
C413 C412 1.349 . S
C413 C429 1.349 . S
C414 C412 1.327 . S
C414 C433 1.429 . S
C414 H438 0.950 . S
C415 C432 1.574 . S
C415 C434 1.368 . S
C415 H439 0.949 . S
H416 C420 0.949 . S
C417 C418 1.349 . S
C417 C419 1.327 . S
C417 H440 0.950 . S
C418 C417 1.349 . S
C418 C430 1.349 1_565 S
C419 C417 1.327 . S
C419 C435 1.429 . S
C419 H441 0.950 . S
C420 H416 0.949 . S
C420 C428 1.574 . S
C420 C436 1.368 . S
H421 C429 0.950 . S
H422 C427 0.950 . S
H423 C428 0.949 . S
H424 C430 0.950 . S
H425 C431 0.950 1_545 S
H426 C432 0.949 . S
C427 H422 0.950 . S
C427 C429 1.327 . S
C427 C433 1.429 . S
C428 C420 1.574 . S
C428 H423 0.949 . S
C428 C434 1.368 . S
C429 C413 1.349 . S
C429 H421 0.950 . S
C429 C427 1.327 . S
C430 C418 1.349 1_545 S
C430 H424 0.950 . S
C430 C431 1.327 1_545 S
C431 H425 0.950 1_565 S
C431 C430 1.327 1_565 S
C431 C435 1.429 . S
C432 C415 1.574 . S
C432 H426 0.949 . S
C432 C436 1.368 . S
C433 C414 1.429 . S
C433 C427 1.429 . S
C433 C434 1.523 . S
C434 C415 1.368 . S
C434 C428 1.368 . S
C434 C433 1.523 . S
C435 C419 1.429 . S
C435 C431 1.429 . S
C435 C436 1.523 . S
C436 C420 1.368 . S
C436 C432 1.368 . S
C436 C435 1.523 . S
H437 C412 0.950 . S
H438 C414 0.950 . S
H439 C415 0.949 . S
H440 C417 0.950 . S
H441 C419 0.950 . S
C442 C443 1.349 . S
C442 C444 1.327 . S
C442 H467 0.950 1_455 S
C443 C442 1.349 . S
C443 C459 1.349 . S
C444 C442 1.327 . S
C444 C463 1.429 . S
C444 H468 0.950 . S
C445 C462 1.574 . S
C445 C464 1.368 . S
C445 H469 0.949 . S
H446 C450 0.949 . S
C447 C448 1.349 . S
C447 C449 1.327 . S
C447 H470 0.950 . S
C448 C447 1.349 . S
C448 C460 1.349 . S
C449 C447 1.327 . S
C449 C465 1.429 . S
C449 H471 0.950 . S
C450 H446 0.949 . S
C450 C458 1.574 . S
C450 C466 1.368 . S
H451 C459 0.950 . S
H452 C457 0.950 . S
H453 C458 0.949 . S
H454 C460 0.956 . S
H455 C461 0.950 . S
H456 C462 0.949 . S
C457 H452 0.950 . S
C457 C459 1.327 . S
C457 C463 1.429 . S
C458 C450 1.574 . S
C458 H453 0.949 . S
C458 C464 1.368 . S
C459 C443 1.349 . S
C459 H451 0.950 . S
C459 C457 1.327 . S
C460 C448 1.349 . S
C460 H454 0.956 . S
C460 C461 1.327 . S
C461 H455 0.950 . S
C461 C460 1.327 . S
C461 C465 1.429 . S
C462 C445 1.574 . S
C462 H456 0.949 . S
C462 C466 1.368 . S
C463 C444 1.429 . S
C463 C457 1.429 . S
C463 C464 1.523 . S
C464 C445 1.368 . S
C464 C458 1.368 . S
C464 C463 1.523 . S
C465 C449 1.429 . S
C465 C461 1.429 . S
C465 C466 1.523 . S
C466 C450 1.368 . S
C466 C462 1.368 . S
C466 C465 1.523 . S
H467 C442 0.950 1_655 S
H468 C444 0.950 . S
H469 C445 0.949 . S
H470 C447 0.950 . S
H471 C449 0.950 . S
C472 C473 1.349 . S
C472 C474 1.327 . S
C472 H497 0.950 . S
C473 C472 1.349 . S
C473 C489 1.349 . S
C474 C472 1.327 . S
C474 C493 1.429 . S
C474 H498 0.950 . S
C475 C492 1.574 . S
C475 C494 1.368 . S
C475 H499 0.949 . S
H476 C480 0.949 . S
C477 C478 1.349 . S
C477 C479 1.327 . S
C477 H500 0.950 . S
C478 C477 1.349 . S
C478 C490 1.349 . S
C479 C477 1.327 . S
C479 C495 1.429 . S
C479 H501 0.950 . S
C480 H476 0.949 . S
C480 C488 1.574 . S
C480 C496 1.368 . S
H481 C489 0.950 . S
H482 C487 0.950 . S
H483 C488 0.949 . S
H484 C490 0.950 . S
H485 C491 0.950 . S
H486 C492 0.949 . S
C487 H482 0.950 . S
C487 C489 1.327 . S
C487 C493 1.429 . S
C488 C480 1.574 . S
C488 H483 0.949 . S
C488 C494 1.368 . S
C489 C473 1.349 . S
C489 H481 0.950 . S
C489 C487 1.327 . S
C490 C478 1.349 . S
C490 H484 0.950 . S
C490 C491 1.327 . S
C491 H485 0.950 . S
C491 C490 1.327 . S
C491 C495 1.429 . S
C492 C475 1.574 . S
C492 H486 0.949 . S
C492 C496 1.368 . S
C493 C474 1.429 . S
C493 C487 1.429 . S
C493 C494 1.523 . S
C494 C475 1.368 . S
C494 C488 1.368 . S
C494 C493 1.523 . S
C495 C479 1.429 . S
C495 C491 1.429 . S
C495 C496 1.523 . S
C496 C480 1.368 . S
C496 C492 1.368 . S
C496 C495 1.523 . S
H497 C472 0.950 . S
H498 C474 0.950 . S
H499 C475 0.949 . S
H500 C477 0.950 . S
H501 C479 0.950 . S
C502 C503 1.349 . S
C502 C504 1.327 . S
C502 H527 0.950 . S
C503 C502 1.349 . S
C503 C519 1.349 . S
C504 C502 1.327 . S
C504 C523 1.429 . S
C504 H528 0.950 . S
C505 C522 1.574 . S
C505 C524 1.368 . S
C505 H529 0.949 . S
H506 C510 0.949 . S
C507 C508 1.349 . S
C507 C509 1.327 . S
C507 H530 0.950 . S
C508 C507 1.349 . S
C508 C520 1.349 . S
C509 C507 1.327 . S
C509 C525 1.429 . S
C509 H531 0.950 . S
C510 H506 0.949 . S
C510 C518 1.574 . S
C510 C526 1.368 . S
H511 C519 0.950 . S
H512 C517 0.950 . S
H513 C518 0.949 . S
H514 C520 0.950 . S
H515 C521 0.950 . S
H516 C522 0.949 . S
C517 H512 0.950 . S
C517 C519 1.327 . S
C517 C523 1.429 . S
C518 C510 1.574 . S
C518 H513 0.949 . S
C518 C524 1.368 . S
C519 C503 1.349 . S
C519 H511 0.950 . S
C519 C517 1.327 . S
C520 C508 1.349 . S
C520 H514 0.950 . S
C520 C521 1.327 . S
C521 H515 0.950 . S
C521 C520 1.327 . S
C521 C525 1.429 . S
C522 C505 1.574 . S
C522 H516 0.949 . S
C522 C526 1.368 . S
C523 C504 1.429 . S
C523 C517 1.429 . S
C523 C524 1.523 . S
C524 C505 1.368 . S
C524 C518 1.368 . S
C524 C523 1.523 . S
C525 C509 1.429 . S
C525 C521 1.429 . S
C525 C526 1.523 . S
C526 C510 1.368 . S
C526 C522 1.368 . S
C526 C525 1.523 . S
H527 C502 0.950 . S
H528 C504 0.950 . S
H529 C505 0.949 . S
H530 C507 0.950 . S
H531 C509 0.950 . S
C532 C533 1.349 . S
C532 C534 1.327 . S
C532 H557 0.950 . S
C533 C532 1.349 . S
C533 C549 1.349 . S
C534 C532 1.327 . S
C534 C553 1.429 . S
C534 H558 0.950 . S
C535 C552 1.574 . S
C535 C554 1.368 . S
C535 H559 0.949 . S
H536 C540 0.949 . S
C537 C538 1.349 . S
C537 C539 1.327 . S
C537 H560 0.950 . S
C538 C537 1.349 . S
C538 C550 1.349 . S
C539 C537 1.327 . S
C539 C555 1.429 . S
C539 H561 0.950 . S
C540 H536 0.949 . S
C540 C548 1.574 . S
C540 C556 1.368 . S
H541 C549 0.950 . S
H542 C547 0.950 . S
H543 C548 0.949 . S
H544 C550 0.950 . S
H545 C551 0.950 . S
H546 C552 0.949 . S
C547 H542 0.950 . S
C547 C549 1.327 . S
C547 C553 1.429 . S
C548 C540 1.574 . S
C548 H543 0.949 . S
C548 C554 1.368 . S
C549 C533 1.349 . S
C549 H541 0.950 . S
C549 C547 1.327 . S
C550 C538 1.349 . S
C550 H544 0.950 . S
C550 C551 1.327 . S
C551 H545 0.950 . S
C551 C550 1.327 . S
C551 C555 1.429 . S
C552 C535 1.574 . S
C552 H546 0.949 . S
C552 C556 1.368 . S
C553 C534 1.429 . S
C553 C547 1.429 . S
C553 C554 1.523 . S
C554 C535 1.368 . S
C554 C548 1.368 . S
C554 C553 1.523 . S
C555 C539 1.429 . S
C555 C551 1.429 . S
C555 C556 1.523 . S
C556 C540 1.368 . S
C556 C552 1.368 . S
C556 C555 1.523 . S
H557 C532 0.950 . S
H558 C534 0.950 . S
H559 C535 0.949 . S
H560 C537 0.950 . S
H561 C539 0.950 . S
C562 C563 1.349 . S
C562 C564 1.327 . S
C562 H587 0.950 1_655 S
C563 C562 1.349 . S
C563 C579 1.349 . S
C564 C562 1.327 . S
C564 C583 1.429 . S
C564 H588 0.950 . S
C565 C582 1.574 . S
C565 C584 1.368 . S
C565 H589 0.949 . S
H566 C570 0.949 . S
C567 C568 1.349 . S
C567 C569 1.327 . S
C567 H590 0.950 . S
C568 C567 1.349 . S
C568 C580 1.349 . S
C569 C567 1.327 . S
C569 C585 1.429 . S
C569 H591 0.950 . S
C570 H566 0.949 . S
C570 C578 1.574 . S
C570 C586 1.368 . S
H571 C579 0.950 . S
H572 C577 0.950 . S
H573 C578 0.949 . S
H574 C580 0.950 . S
H575 C581 0.950 . S
H576 C582 0.949 . S
C577 H572 0.950 . S
C577 C579 1.327 . S
C577 C583 1.429 . S
C578 C570 1.574 . S
C578 H573 0.949 . S
C578 C584 1.368 . S
C579 C563 1.349 . S
C579 H571 0.950 . S
C579 C577 1.327 . S
C580 C568 1.349 . S
C580 H574 0.950 . S
C580 C581 1.327 . S
C581 H575 0.950 . S
C581 C580 1.327 . S
C581 C585 1.429 . S
C582 C565 1.574 . S
C582 H576 0.949 . S
C582 C586 1.368 . S
C583 C564 1.429 . S
C583 C577 1.429 . S
C583 C584 1.523 . S
C584 C565 1.368 . S
C584 C578 1.368 . S
C584 C583 1.523 . S
C585 C569 1.429 . S
C585 C581 1.429 . S
C585 C586 1.523 . S
C586 C570 1.368 . S
C586 C582 1.368 . S
C586 C585 1.523 . S
H587 C562 0.950 1_455 S
H588 C564 0.950 . S
H589 C565 0.949 . S
H590 C567 0.950 . S
H591 C569 0.950 . S
C113 C63 1.578 . S
C118 C8 1.609 . S
C143 C22 1.625 . S
C148 C78 1.624 . S
C173 C36 1.608 . S
C178 C91 1.578 . S
C203 C106 1.624 . S
C208 C50 1.625 . S
C233 C7 1.455 . S
C238 C35 1.455 . S
C263 C21 1.369 . S
C268 C49 1.369 . S
C293 C92 1.335 . S
C298 C64 1.335 . S
C323 C77 1.338 . S
C328 C105 1.338 . S
C353 C79 0.897 . S
C358 C3 0.904 . S
C383 C17 0.792 . S
C388 C87 0.793 . S
C413 C31 0.904 . S
C418 C107 0.897 . S
C443 C59 0.793 . S
C448 C45 0.792 . S
C473 C65 0.815 . S
C478 C23 0.815 . S
C503 C73 0.854 . S
C508 C37 0.847 . S
C533 C93 0.815 . S
C538 C51 0.815 . S
C563 C9 0.840 1_655 S
C568 C101 0.854 . S
