# Generated by pormake.
# Topology bto, (3)-cn, num edge types: 1
# Building blocks:
#     Node 0, Type 0, BuildingBlock: WUSLED_clean_sbu_0, # of connection points: 3
#     Node 1, Type 0, BuildingBlock: WUSLED_clean_sbu_0, # of connection points: 3
#     Node 2, Type 0, BuildingBlock: WUSLED_clean_sbu_0, # of connection points: 3
#     Node 3, Type 0, BuildingBlock: WUSLED_clean_sbu_0, # of connection points: 3
#     Node 4, Type 0, BuildingBlock: WUSLED_clean_sbu_0, # of connection points: 3
#     Node 5, Type 0, BuildingBlock: WUSLED_clean_sbu_0, # of connection points: 3
#     Edge 6, Type (0, 0), BuildingBlock: CIFDUS_clean_linker_0, # of connection points: 2
#     Edge 7, Type (0, 0), BuildingBlock: CIFDUS_clean_linker_0, # of connection points: 2
#     Edge 8, Type (0, 0), BuildingBlock: CIFDUS_clean_linker_0, # of connection points: 2
#     Edge 9, Type (0, 0), BuildingBlock: CIFDUS_clean_linker_0, # of connection points: 2
#     Edge 10, Type (0, 0), BuildingBlock: CIFDUS_clean_linker_0, # of connection points: 2
#     Edge 11, Type (0, 0), BuildingBlock: CIFDUS_clean_linker_0, # of connection points: 2
#     Edge 12, Type (0, 0), BuildingBlock: CIFDUS_clean_linker_0, # of connection points: 2
#     Edge 13, Type (0, 0), BuildingBlock: CIFDUS_clean_linker_0, # of connection points: 2
#     Edge 14, Type (0, 0), BuildingBlock: CIFDUS_clean_linker_0, # of connection points: 2
# Relax obj value: 0.000
# Max RMSD: 0.002
# Mean RMSD: 0.002
data_MOF--net-bto--node1-WUSLED_clean_sbu_0--edge1-CIFDUS_clean_linker_0
_symmetry_space_group_name_H-M    P1
_symmetry_Int_Tables_number       1
_symmetry_cell_setting            triclinic
loop_
_symmetry_equiv_pos_as_xyz
'x, y, z'
_cell_length_a     36.970189
_cell_length_b     37.013963
_cell_length_c     92.946944
_cell_angle_alpha  89.107072
_cell_angle_beta   90.600326
_cell_angle_gamma 120.02486
loop_
_atom_site_label
_atom_site_type_symbol
_atom_site_fract_x
_atom_site_fract_y
_atom_site_fract_z
_atom_type_partial_charge
C0 C 0.98691 0.54089 0.04817 0.0
C1 C 0.94846 0.51864 0.05535 0.0
C2 C 0.91623 0.54442 0.03805 0.0
C3 C 0.91341 0.52026 0.0503 0.0
C4 C 0.95494 0.56688 0.031 0.0
C5 C 0.98983 0.56505 0.036 0.0
U6 U 0.05733 0.53302 0.07742 0.0
O7 O 0.09097 0.49794 0.07745 0.0
O8 O 0.12596 0.56615 0.07899 0.0
C9 C 0.12793 0.53186 0.07774 0.0
C10 C 1.0242 0.53904 0.05297 0.0
C11 C 0.15873 0.53376 0.06738 0.0
C12 C 0.22359 0.53406 0.06296 0.0
C13 C 0.1936 0.53201 0.07251 0.0
C14 C 0.18409 0.53954 0.04293 0.0
C15 C 0.21931 0.5379 0.04803 0.0
C16 C 0.15406 0.53747 0.05252 0.0
C17 C 1.0266 0.52465 0.11753 0.0
C18 C 1.0042 0.48372 0.13978 0.0
C19 C 0.06014 0.55559 0.14037 0.0
C20 C 0.05658 0.55889 0.12544 0.0
C21 C 1.03384 0.51802 0.14774 0.0
C22 C 1.00052 0.48707 0.12489 0.0
C23 C 1.02006 0.5283 0.10189 0.0
O24 O 0.05249 0.57162 0.06003 0.0
O25 O 1.01751 0.50334 0.05855 0.0
O26 O 1.01101 0.49555 0.09404 0.0
O27 O 0.04595 0.56381 0.09545 0.0
H28 H 0.94549 0.49996 0.06483 0.0
H29 H 0.88423 0.50299 0.05608 0.0
H30 H 0.95816 0.5854 1.02146 0.0
H31 H 1.01915 0.58239 0.03028 0.0
H32 H 0.25052 0.53335 0.06731 0.0
H33 H 0.19779 0.52928 0.08395 0.0
H34 H 0.17951 0.54201 0.03151 0.0
H35 H 0.12724 0.53877 0.04836 0.0
H36 H 0.98301 0.45451 0.14512 0.0
H37 H 0.08355 0.58249 0.14614 0.0
H38 H 0.07703 0.58846 0.12017 0.0
H39 H 0.97668 0.46034 0.11915 0.0
C40 C 0.63117 0.11741 0.38297 0.0
C41 C 0.65911 0.14387 0.39343 0.0
C42 C 0.70402 0.192 0.37469 0.0
C43 C 0.6952 0.18082 0.38933 0.0
C44 C 0.67581 0.16518 0.36428 0.0
C45 C 0.63978 0.12828 0.36839 0.0
U46 U 0.55647 0.04101 0.4113 0.0
O47 O 0.48767 1.00598 0.4117 0.0
O48 O 0.52249 0.97234 0.41182 0.0
C49 C 0.48564 0.96956 0.41113 0.0
C50 C 0.59293 0.07855 0.38706 0.0
C51 C 0.45599 0.9401 0.40054 0.0
C52 C 0.38706 0.88141 0.39535 0.0
C53 C 0.41589 0.91 0.40509 0.0
C54 C 0.43811 0.91271 0.37628 0.0
C55 C 0.39775 0.88227 0.38081 0.0
C56 C 0.46696 0.94139 0.38606 0.0
C57 C 0.5815 0.06562 0.45145 0.0
C58 C 0.55354 1.01604 0.47144 0.0
C59 C 0.58719 0.09019 0.47594 0.0
C60 C 0.59446 0.0984 0.46119 0.0
C61 C 0.56691 0.0489 0.4813 0.0
C62 C 0.56064 0.02431 0.45666 0.0
C63 C 0.59074 0.07535 0.436 0.0
O64 O 0.59876 0.04986 0.3934 0.0
O65 O 0.56382 0.08335 0.39325 0.0
O66 O 0.56534 0.08425 0.42881 0.0
O67 O 0.60058 0.05102 0.42891 0.0
H68 H 0.653 0.13592 0.40475 0.0
H69 H 0.71642 0.2004 0.39764 0.0
H70 H 0.6812 0.17301 0.35293 0.0
H71 H 0.61848 0.10829 0.36016 0.0
H72 H 0.35614 0.85899 0.3992 0.0
H73 H 0.40679 0.90866 0.41622 0.0
H74 H 0.44762 0.91406 0.36522 0.0
H75 H 0.49781 0.96444 0.38234 0.0
H76 H 0.53826 0.9839 0.47514 0.0
H77 H 0.59725 0.11626 0.48314 0.0
H78 H 0.6104 0.13049 0.45738 0.0
H79 H 0.55023 0.99846 0.44933 0.0
C80 C 0.55524 0.60795 0.71601 0.0
C81 C 0.56046 0.62092 0.70156 0.0
C82 C 0.55679 0.68273 0.70791 0.0
C83 C 0.56124 0.65791 0.69754 0.0
C84 C 0.55146 0.66944 0.72242 0.0
C85 C 0.55075 0.63243 0.72643 0.0
U86 U 0.55725 0.53184 0.74403 0.0
O87 O 0.52255 0.46305 0.74457 0.0
O88 O 0.59104 0.49699 0.74381 0.0
C89 C 0.55659 0.46047 0.74346 0.0
C90 C 0.55498 0.56911 0.72 0.0
C91 C 0.55521 0.43072 0.73279 0.0
C92 C 0.54195 0.361 0.72747 0.0
C93 C 0.5427 0.38978 0.73722 0.0
C94 C 0.56603 0.41374 0.70861 0.0
C95 C 0.55381 0.37259 0.71304 0.0
C96 C 0.56669 0.44253 0.71839 0.0
C97 C 0.56247 0.55669 0.78449 0.0
C98 C 0.53074 0.54129 0.80831 0.0
C99 C 0.60079 0.55303 0.80545 0.0
C100 C 0.59858 0.55919 0.79064 0.0
C101 C 0.56699 0.54419 0.81451 0.0
C102 C 0.5286 0.54764 0.79351 0.0
C103 C 0.56046 0.56586 0.76898 0.0
O104 O 0.58974 0.57399 0.72575 0.0
O105 O 0.52131 0.54055 0.72666 0.0
O106 O 0.52524 0.5412 0.76227 0.0
O107 O 0.59368 0.57562 0.76119 0.0
H108 H 0.56419 0.60252 0.69337 0.0
H109 H 0.56606 0.6674 0.68632 0.0
H110 H 0.54745 0.68744 0.73068 0.0
H111 H 0.54668 0.6229 0.73766 0.0
H112 H 0.53165 0.32949 0.73123 0.0
H113 H 0.53355 0.38003 0.74828 0.0
H114 H 0.57574 0.42391 0.69763 0.0
H115 H 0.57645 0.47404 0.71475 0.0
H116 H 0.50387 0.534 0.81489 0.0
H117 H 0.62947 0.55618 0.80983 0.0
H118 H 0.62548 0.56652 0.78407 0.0
H119 H 0.50049 0.54583 0.78911 0.0
C120 C 0.55132 0.95474 0.66565 0.0
C121 C 0.54527 0.94174 0.6801 0.0
C122 C 0.54775 0.87915 0.67396 0.0
C123 C 0.5435 0.90435 0.68423 0.0
C124 C 0.55375 0.89239 0.65944 0.0
C125 C 0.5555 0.92982 0.65533 0.0
U126 U 0.55741 0.03366 0.63728 0.0
O127 O 0.52609 0.0709 0.63634 0.0
O128 O 0.59451 0.10237 0.63714 0.0
C129 C 0.56128 0.10659 0.63736 0.0
C130 C 0.55339 0.99435 0.66155 0.0
C131 C 0.56195 0.13623 0.64792 0.0
C132 C 0.57463 0.20582 0.65314 0.0
C133 C 0.57426 0.1771 0.64344 0.0
C134 C 0.55046 0.15312 0.67202 0.0
C135 C 0.56261 0.19423 0.66756 0.0
C136 C 0.55016 0.1244 0.66229 0.0
C137 C 0.56016 1.0104 0.59725 0.0
C138 C 0.57917 0.06124 0.57775 0.0
C139 C 0.55087 0.98813 0.57235 0.0
C140 C 0.54753 0.9787 0.58708 0.0
C141 C 0.56706 0.02957 0.56749 0.0
C142 C 0.57564 0.05172 0.5925 0.0
C143 C 0.55785 0.99974 0.61268 0.0
O144 O 0.5887 1.02274 0.65571 0.0
O145 O 0.5203 0.9909 0.65487 0.0
O146 O 0.52336 0.99196 0.61927 0.0
O147 O 0.59174 1.02295 0.62027 0.0
H148 H 0.54185 0.96052 0.68821 0.0
H149 H 0.53821 0.89491 0.69545 0.0
H150 H 0.55765 0.8741 0.65126 0.0
H151 H 0.56027 0.93941 0.64411 0.0
H152 H 0.58485 0.23729 0.64936 0.0
H153 H 0.58362 0.18685 0.6324 0.0
H154 H 0.5406 0.14294 0.68299 0.0
H155 H 0.54053 0.09294 0.66595 0.0
H156 H 0.59129 0.09339 0.57437 0.0
H157 H 0.54173 0.96307 0.56477 0.0
H158 H 0.53556 0.94663 0.59054 0.0
H159 H 0.58533 0.07663 0.60019 0.0
C160 C 0.62723 0.52164 1.00017 0.0
C161 C 0.66561 0.54378 0.99294 0.0
C162 C 0.69781 0.51762 1.01011 0.0
C163 C 0.7006 0.5419 0.9979 0.0
C164 C 0.65914 0.49519 1.01719 0.0
C165 C 0.62431 0.49727 1.01228 0.0
U166 U 0.5558 0.52963 0.97132 0.0
O167 O 0.48715 0.49759 0.97029 0.0
O168 O 0.52331 0.56586 0.97143 0.0
C169 C 0.48602 0.53235 0.97144 0.0
C170 C 0.59009 0.52405 0.99555 0.0
C171 C 0.45601 0.53152 0.98193 0.0
C172 C 0.39178 0.53224 0.98657 0.0
C173 C 0.42128 0.53372 0.97692 0.0
C174 C 0.43153 0.52653 1.00647 0.0
C175 C 0.3964 0.52853 1.00148 0.0
C176 C 0.46108 0.52802 0.99677 0.0
C177 C 0.58225 0.53453 0.93101 0.0
C178 C 0.57835 0.57299 0.91008 0.0
C179 C 0.56813 0.50365 0.90717 0.0
C180 C 0.57415 0.50121 0.92197 0.0
C181 C 0.57042 0.53969 0.90099 0.0
C182 C 0.58416 0.57045 0.92489 0.0
C183 C 0.59059 0.53192 0.94654 0.0
O184 O 0.59712 0.5597 0.98983 0.0
O185 O 0.56095 0.49136 0.98876 0.0
O186 O 0.56456 0.49696 0.95323 0.0
O187 O 0.60127 0.56524 0.9543 0.0
H188 H 0.66861 0.56263 0.98351 0.0
H189 H 0.72975 0.55915 0.99209 0.0
H190 H 0.65594 0.47657 0.0267 0.0
H191 H 0.59506 0.48003 1.01804 0.0
H192 H 0.3649 0.5332 0.98231 0.0
H193 H 0.41677 0.53626 0.96549 0.0
H194 H 0.43637 0.52414 1.01787 0.0
H195 H 0.48778 0.52633 1.00084 0.0
H196 H 0.58097 0.6015 0.90571 0.0
H197 H 0.5615 0.47714 0.90059 0.0
H198 H 0.57274 0.47324 0.92636 0.0
H199 H 0.59064 0.59689 0.93149 0.0
C200 C 0.98412 0.4601 0.33287 0.0
C201 C 0.95604 0.43379 0.32241 0.0
C202 C 0.91112 0.38567 0.34115 0.0
C203 C 0.91988 0.39691 0.32651 0.0
C204 C 0.93943 0.41238 0.35156 0.0
C205 C 0.97555 0.4492 0.34745 0.0
U206 U 0.05786 0.53747 0.30454 0.0
O207 O 0.09261 0.60611 0.30449 0.0
O208 O 0.12667 0.57177 0.3037 0.0
C209 C 0.12925 0.60836 0.30475 0.0
C210 C 1.02249 0.49883 0.32877 0.0
C211 C 0.15961 0.63702 0.31535 0.0
C212 C 0.22913 0.69484 0.32047 0.0
C213 C 0.19982 0.66665 0.31074 0.0
C214 C 0.17837 0.66397 0.33964 0.0
C215 C 0.21879 0.69405 0.33505 0.0
C216 C 0.14906 0.63569 0.32989 0.0
C217 C 1.02902 0.51521 0.26417 0.0
C218 C 0.05741 0.50991 0.24122 0.0
C219 C 1.01293 0.54044 0.24199 0.0
C220 C 1.00884 0.53381 0.25689 0.0
C221 C 1.03702 0.52831 0.23394 0.0
C222 C 0.05341 0.50337 0.25615 0.0
C223 C 1.02169 0.50526 0.27981 0.0
O224 O 0.05081 0.49381 0.32209 0.0
O225 O 1.01692 0.52825 0.32292 0.0
O226 O 1.01279 0.52937 0.28746 0.0
O227 O 0.04687 0.49512 0.28655 0.0
H228 H 0.96211 0.44178 0.31109 0.0
H229 H 0.89857 0.37741 0.3182 0.0
H230 H 0.93408 0.40451 0.36291 0.0
H231 H 0.99695 0.46909 0.35567 0.0
H232 H 0.26007 0.71698 0.31657 0.0
H233 H 0.2086 0.66803 0.29957 0.0
H234 H 0.16914 0.66267 0.35074 0.0
H235 H 0.11812 0.61301 0.33365 0.0
H236 H 0.07649 0.50051 0.23538 0.0
H237 H 0.99622 0.55405 0.23672 0.0
H238 H 0.98915 0.54257 0.26267 0.0
H239 H 0.069 0.48848 0.26134 0.0
H240 H 0.04302 0.57507 0.16782 0.0
H241 H 1.03022 0.45329 0.16355 0.0
H242 H 1.03109 0.44616 0.1897 0.0
H243 H 1.03327 0.47352 0.21383 0.0
H244 H 0.04672 0.59558 0.21811 0.0
H245 H 0.0479 0.60356 0.19196 0.0
C246 C 0.04098 0.5472 0.1726 0.0
C247 C 1.03645 0.51473 0.16369 0.0
C248 C 0.0414 0.54323 0.18768 0.0
C249 C 1.03319 0.47856 0.17012 0.0
C250 C 1.03386 0.47452 0.18509 0.0
C251 C 1.03704 0.50213 0.20906 0.0
C252 C 0.0398 0.53385 0.21798 0.0
C253 C 0.03764 0.50651 0.19398 0.0
C254 C 0.04398 0.57041 0.21154 0.0
C255 C 0.04485 0.5751 0.19657 0.0
H256 H 0.5128 0.98735 0.54564 0.0
H257 H 0.63375 0.09461 0.55401 0.0
H258 H 0.64406 0.11032 0.52827 0.0
H259 H 0.61987 0.09236 0.50332 0.0
H260 H 0.4984 0.98572 0.49491 0.0
H261 H 0.48776 0.97048 0.52066 0.0
C262 C 0.5415 1.01407 0.54183 0.0
C263 C 0.57244 0.03973 0.55179 0.0
C264 C 0.54734 1.02284 0.52697 0.0
C265 C 0.60917 0.07459 0.54664 0.0
C266 C 0.61523 0.08345 0.53189 0.0
C267 C 0.59079 0.06608 0.50709 0.0
C268 C 0.56009 0.0402 0.49709 0.0
C269 C 0.58462 0.0577 0.52195 0.0
C270 C 0.52294 1.00585 0.50227 0.0
C271 C 0.51667 0.99724 0.51703 0.0
H272 H 0.59883 0.5114 0.87927 0.0
H273 H 0.53003 0.57515 0.88693 0.0
H274 H 0.52311 0.58225 0.86106 0.0
H275 H 0.53738 0.57134 0.83622 0.0
H276 H 0.60326 0.50464 0.82859 0.0
H277 H 0.61031 0.49769 0.85445 0.0
C278 C 0.5818 0.52635 0.87532 0.0
C279 C 0.56514 0.54282 0.88514 0.0
C280 C 0.57751 0.52998 0.86039 0.0
C281 C 0.54383 0.56275 0.8797 0.0
C282 C 0.53959 0.56661 0.86488 0.0
C283 C 0.55278 0.55475 0.84018 0.0
C284 C 0.56988 0.53871 0.83037 0.0
C285 C 0.55642 0.55047 0.85511 0.0
C286 C 0.59037 0.51796 0.83581 0.0
C287 C 0.59422 0.51371 0.85063 0.0
H288 H 0.26083 0.49407 0.04904 0.0
H289 H 0.25115 0.58841 1.02421 0.0
H290 H 0.30477 0.59387 1.00776 0.0
H291 H 0.35528 0.57276 1.00059 0.0
H292 H 0.36488 0.47834 0.0254 0.0
H293 H 0.31144 0.47304 0.04189 0.0
C294 C 0.27066 0.51611 0.04011 0.0
C295 C 0.25177 0.54073 0.0379 0.0
C296 C 0.30183 0.51938 0.03073 0.0
C297 C 0.26457 0.5686 0.02609 0.0
C298 C 0.29551 0.57198 1.01672 0.0
C299 C 0.34549 0.55076 1.00953 0.0
C300 C 0.36428 0.52603 1.0117 0.0
C301 C 0.31437 0.54754 1.01893 0.0
C302 C 0.35154 0.49822 1.02353 0.0
C303 C 0.32069 0.49493 0.03293 0.0
H304 H 0.75621 0.20489 0.35213 0.0
H305 H 0.73774 0.26858 0.38734 0.0
H306 H 0.79988 0.33357 0.38019 0.0
H307 H 0.85895 0.37281 0.36372 0.0
H308 H 0.87737 0.30913 0.3285 0.0
H309 H 0.81523 0.24413 0.33565 0.0
C310 C 0.76551 0.23304 0.35818 0.0
C311 C 0.74218 0.23163 0.37029 0.0
C312 C 0.80119 0.27051 0.35394 0.0
C313 C 0.75529 0.26843 0.3781 0.0
C314 C 0.79073 0.30576 0.37396 0.0
C315 C 0.84962 0.34466 0.35766 0.0
C316 C 0.87294 0.34607 0.34555 0.0
C317 C 0.81394 0.30719 0.3619 0.0
C318 C 0.85982 0.30928 0.33773 0.0
C319 C 0.82439 0.27194 0.34188 0.0
H320 H 0.58159 0.86356 0.69792 0.0
H321 H 0.50903 0.80448 0.65991 0.0
H322 H 0.50557 0.73903 0.66697 0.0
H323 H 0.52225 0.6981 0.68409 0.0
H324 H 0.59496 0.75724 0.72207 0.0
H325 H 0.59812 0.82258 0.71507 0.0
C326 C 0.56466 0.83629 0.69123 0.0
C327 C 0.54567 0.83917 0.67836 0.0
C328 C 0.56251 0.79855 0.69541 0.0
C329 C 0.52447 0.80352 0.66975 0.0
C330 C 0.52222 0.76591 0.67384 0.0
C331 C 0.53911 0.72535 0.69079 0.0
C332 C 0.55828 0.72252 0.70362 0.0
C333 C 0.54115 0.76306 0.68663 0.0
C334 C 0.57938 0.75814 0.71225 0.0
C335 C 0.58147 0.7957 0.7082 0.0
H336 H 0.83588 0.48024 0.03537 0.0
H337 H 0.91309 0.61299 0.02839 0.0
H338 H 0.85298 0.61632 1.01889 0.0
H339 H 0.77818 0.58174 1.01275 0.0
H340 H 0.70095 0.44899 1.01973 0.0
H341 H 0.76107 0.44564 0.02921 0.0
C342 C 0.83949 0.50997 0.03189 0.0
C343 C 0.87908 0.54628 0.03258 0.0
C344 C 0.8047 0.51171 0.02644 0.0
C345 C 0.88319 0.58444 0.02782 0.0
C346 C 0.84875 0.58642 1.02244 0.0
C347 C 0.77457 0.552 1.01622 0.0
C348 C 0.73497 0.5157 1.01553 0.0
C349 C 0.80936 0.55025 1.02166 0.0
C350 C 0.73086 0.47754 1.02028 0.0
C351 C 0.76531 0.47554 0.02566 0.0
H352 H 0.34239 0.79931 0.3853 0.0
H353 H 0.3831 0.89666 0.35292 0.0
H354 H 0.33193 0.84729 0.33601 0.0
H355 H 0.27454 0.77686 0.33051 0.0
H356 H 0.23376 0.67951 0.36289 0.0
H357 H 0.2851 0.72882 0.37978 0.0
C358 C 0.33987 0.80989 0.37459 0.0
C359 C 0.36674 0.8518 0.37044 0.0
C360 C 0.31005 0.78138 0.36492 0.0
C361 C 0.36336 0.86457 0.3564 0.0
C362 C 0.33384 0.83639 0.34672 0.0
C363 C 0.2771 0.76625 0.34121 0.0
C364 C 0.25013 0.72438 0.34537 0.0
C365 C 0.30698 0.79473 0.35087 0.0
C366 C 0.25357 0.71157 0.35941 0.0
C367 C 0.28318 0.73973 0.36907 0.0
H368 H 0.53857 0.25225 0.66264 0.0
H369 H 0.58793 0.2057 0.69575 0.0
H370 H 0.58932 0.25625 0.71263 0.0
H371 H 0.57782 0.31458 0.71792 0.0
H372 H 0.52844 0.36115 0.68483 0.0
H373 H 0.52704 0.3106 0.66794 0.0
C374 C 0.55001 0.25336 0.67351 0.0
C375 C 0.56309 0.22502 0.67787 0.0
C376 C 0.55107 0.2828 0.68316 0.0
C377 C 0.57711 0.22661 0.69211 0.0
C378 C 0.5782 0.25576 0.70176 0.0
C379 C 0.56636 0.31347 0.70706 0.0
C380 C 0.55327 0.3418 0.70271 0.0
C381 C 0.56528 0.28402 0.69741 0.0
C382 C 0.53925 0.34023 0.68847 0.0
C383 C 0.53816 0.31108 0.67882 0.0
loop_
_geom_bond_atom_site_label_1
_geom_bond_atom_site_label_2
_geom_bond_distance
_geom_bond_site_symmetry_2
_ccdc_geom_bond_type
C0 C1 1.264 . S
C0 C5 1.479 . S
C0 C10 1.465 . S
C1 C0 1.264 . S
C1 C3 1.339 . S
C1 H28 0.931 . S
C2 C3 1.395 . S
C2 C4 1.320 . S
C3 C1 1.339 . S
C3 C2 1.395 . S
C3 H29 0.929 . S
C4 C2 1.320 . S
C4 C5 1.405 . S
C4 H30 0.930 . S
C5 C0 1.479 . S
C5 C4 1.405 . S
C5 H31 0.931 . S
U6 O7 2.454 . S
U6 O8 2.458 . S
U6 C9 2.984 . S
U6 C10 2.847 1_455 S
U6 C23 2.882 . S
U6 O24 2.441 1_455 S
U6 O25 2.420 1_455 S
U6 O26 2.455 . S
U6 O27 2.449 1_455 S
O7 U6 2.454 . S
O7 C9 1.353 . S
O8 U6 2.458 . S
O8 C9 1.286 . S
C9 U6 2.984 . S
C9 O7 1.353 . S
C9 O8 1.286 . S
C9 C11 1.363 . S
C10 C0 1.465 . S
C10 U6 2.847 1_655 S
C10 O24 1.249 . S
C10 O25 1.202 . S
C11 C9 1.363 . S
C11 C13 1.408 . S
C11 C16 1.342 . S
C12 C13 1.310 . S
C12 C15 1.461 . S
C12 H32 0.932 . S
C13 C11 1.408 . S
C13 C12 1.310 . S
C13 H33 0.930 . S
C14 C15 1.474 . S
C14 C16 1.285 . S
C14 H34 0.929 . S
C15 C12 1.461 . S
C15 C14 1.474 . S
C16 C11 1.342 . S
C16 C14 1.285 . S
C16 H35 0.930 . S
C17 C20 1.424 1_455 S
C17 C22 1.245 . S
C17 C23 1.428 . S
C18 C21 1.260 . S
C18 C22 1.477 . S
C18 H36 0.932 . S
C19 C20 1.384 . S
C19 C21 1.479 1_655 S
C19 H37 0.929 . S
C20 C17 1.424 1_655 S
C20 C19 1.384 . S
C20 H38 0.928 . S
C21 C18 1.260 . S
C21 C19 1.479 1_455 S
C22 C17 1.245 . S
C22 C18 1.477 . S
C22 H39 0.932 . S
C23 U6 2.882 . S
C23 C17 1.428 . S
C23 O26 1.301 . S
C23 O27 1.282 1_455 S
O24 U6 2.441 1_655 S
O24 C10 1.249 . S
O25 U6 2.420 1_655 S
O25 C10 1.202 . S
O26 U6 2.455 . S
O26 C23 1.301 . S
O27 U6 2.449 1_655 S
O27 C23 1.282 1_655 S
H28 C1 0.931 . S
H29 C3 0.929 . S
H30 C4 0.930 . S
H31 C5 0.931 . S
H32 C12 0.932 . S
H33 C13 0.930 . S
H34 C14 0.929 . S
H35 C16 0.930 . S
H36 C18 0.932 . S
H37 C19 0.929 . S
H38 C20 0.928 . S
H39 C22 0.932 . S
C40 C41 1.264 . S
C40 C45 1.479 . S
C40 C50 1.465 . S
C41 C40 1.264 . S
C41 C43 1.339 . S
C41 H68 0.931 . S
C42 C43 1.395 . S
C42 C44 1.320 . S
C43 C41 1.339 . S
C43 C42 1.395 . S
C43 H69 0.929 . S
C44 C42 1.320 . S
C44 C45 1.405 . S
C44 H70 0.930 . S
C45 C40 1.479 . S
C45 C44 1.405 . S
C45 H71 0.931 . S
U46 O47 2.454 1_545 S
U46 O48 2.458 1_545 S
U46 C49 2.984 1_545 S
U46 C50 2.847 . S
U46 C63 2.882 . S
U46 O64 2.441 . S
U46 O65 2.420 . S
U46 O66 2.455 1_545 S
U46 O67 2.449 . S
O47 U46 2.454 1_565 S
O47 C49 1.353 . S
O48 U46 2.458 1_565 S
O48 C49 1.286 . S
C49 U46 2.984 1_565 S
C49 O47 1.353 . S
C49 O48 1.286 . S
C49 C51 1.363 . S
C50 C40 1.465 . S
C50 U46 2.847 . S
C50 O64 1.249 . S
C50 O65 1.202 . S
C51 C49 1.363 . S
C51 C53 1.408 . S
C51 C56 1.342 . S
C52 C53 1.310 . S
C52 C55 1.461 . S
C52 H72 0.932 . S
C53 C51 1.408 . S
C53 C52 1.310 . S
C53 H73 0.930 . S
C54 C55 1.474 . S
C54 C56 1.285 . S
C54 H74 0.929 . S
C55 C52 1.461 . S
C55 C54 1.474 . S
C56 C51 1.342 . S
C56 C54 1.285 . S
C56 H75 0.930 . S
C57 C60 1.424 . S
C57 C62 1.245 1_545 S
C57 C63 1.428 . S
C58 C61 1.260 1_565 S
C58 C62 1.477 . S
C58 H76 0.932 . S
C59 C60 1.384 . S
C59 C61 1.479 . S
C59 H77 0.929 . S
C60 C57 1.424 . S
C60 C59 1.384 . S
C60 H78 0.928 . S
C61 C58 1.260 1_545 S
C61 C59 1.479 . S
C62 C57 1.245 1_565 S
C62 C58 1.477 . S
C62 H79 0.932 . S
C63 U46 2.882 . S
C63 C57 1.428 . S
C63 O66 1.301 1_545 S
C63 O67 1.282 . S
O64 U46 2.441 . S
O64 C50 1.249 . S
O65 U46 2.420 . S
O65 C50 1.202 . S
O66 U46 2.455 1_565 S
O66 C63 1.301 1_565 S
O67 U46 2.449 . S
O67 C63 1.282 . S
H68 C41 0.931 . S
H69 C43 0.929 . S
H70 C44 0.930 . S
H71 C45 0.931 . S
H72 C52 0.932 . S
H73 C53 0.930 . S
H74 C54 0.929 . S
H75 C56 0.930 . S
H76 C58 0.932 . S
H77 C59 0.929 . S
H78 C60 0.928 . S
H79 C62 0.932 . S
C80 C81 1.264 . S
C80 C85 1.479 . S
C80 C90 1.465 . S
C81 C80 1.264 . S
C81 C83 1.339 . S
C81 H108 0.931 . S
C82 C83 1.395 . S
C82 C84 1.320 . S
C83 C81 1.339 . S
C83 C82 1.395 . S
C83 H109 0.929 . S
C84 C82 1.320 . S
C84 C85 1.405 . S
C84 H110 0.930 . S
C85 C80 1.479 . S
C85 C84 1.405 . S
C85 H111 0.931 . S
U86 O87 2.454 . S
U86 O88 2.458 . S
U86 C89 2.984 . S
U86 C90 2.847 . S
U86 C103 2.882 . S
U86 O104 2.441 . S
U86 O105 2.420 . S
U86 O106 2.455 . S
U86 O107 2.449 . S
O87 U86 2.454 . S
O87 C89 1.353 . S
O88 U86 2.458 . S
O88 C89 1.286 . S
C89 U86 2.984 . S
C89 O87 1.353 . S
C89 O88 1.286 . S
C89 C91 1.363 . S
C90 C80 1.465 . S
C90 U86 2.847 . S
C90 O104 1.249 . S
C90 O105 1.202 . S
C91 C89 1.363 . S
C91 C93 1.408 . S
C91 C96 1.342 . S
C92 C93 1.310 . S
C92 C95 1.461 . S
C92 H112 0.932 . S
C93 C91 1.408 . S
C93 C92 1.310 . S
C93 H113 0.930 . S
C94 C95 1.474 . S
C94 C96 1.285 . S
C94 H114 0.929 . S
C95 C92 1.461 . S
C95 C94 1.474 . S
C96 C91 1.342 . S
C96 C94 1.285 . S
C96 H115 0.930 . S
C97 C100 1.424 . S
C97 C102 1.245 . S
C97 C103 1.428 . S
C98 C101 1.260 . S
C98 C102 1.477 . S
C98 H116 0.932 . S
C99 C100 1.384 . S
C99 C101 1.479 . S
C99 H117 0.929 . S
C100 C97 1.424 . S
C100 C99 1.384 . S
C100 H118 0.928 . S
C101 C98 1.260 . S
C101 C99 1.479 . S
C102 C97 1.245 . S
C102 C98 1.477 . S
C102 H119 0.932 . S
C103 U86 2.882 . S
C103 C97 1.428 . S
C103 O106 1.301 . S
C103 O107 1.282 . S
O104 U86 2.441 . S
O104 C90 1.249 . S
O105 U86 2.420 . S
O105 C90 1.202 . S
O106 U86 2.455 . S
O106 C103 1.301 . S
O107 U86 2.449 . S
O107 C103 1.282 . S
H108 C81 0.931 . S
H109 C83 0.929 . S
H110 C84 0.930 . S
H111 C85 0.931 . S
H112 C92 0.932 . S
H113 C93 0.930 . S
H114 C94 0.929 . S
H115 C96 0.930 . S
H116 C98 0.932 . S
H117 C99 0.929 . S
H118 C100 0.928 . S
H119 C102 0.932 . S
C120 C121 1.264 . S
C120 C125 1.479 . S
C120 C130 1.465 . S
C121 C120 1.264 . S
C121 C123 1.339 . S
C121 H148 0.931 . S
C122 C123 1.395 . S
C122 C124 1.320 . S
C123 C121 1.339 . S
C123 C122 1.395 . S
C123 H149 0.929 . S
C124 C122 1.320 . S
C124 C125 1.405 . S
C124 H150 0.930 . S
C125 C120 1.479 . S
C125 C124 1.405 . S
C125 H151 0.931 . S
U126 O127 2.454 . S
U126 O128 2.458 . S
U126 C129 2.984 . S
U126 C130 2.847 1_545 S
U126 C143 2.882 . S
U126 O144 2.441 1_545 S
U126 O145 2.420 1_545 S
U126 O146 2.455 . S
U126 O147 2.449 1_545 S
O127 U126 2.454 . S
O127 C129 1.353 . S
O128 U126 2.458 . S
O128 C129 1.286 . S
C129 U126 2.984 . S
C129 O127 1.353 . S
C129 O128 1.286 . S
C129 C131 1.363 . S
C130 C120 1.465 . S
C130 U126 2.847 1_565 S
C130 O144 1.249 . S
C130 O145 1.202 . S
C131 C129 1.363 . S
C131 C133 1.408 . S
C131 C136 1.342 . S
C132 C133 1.310 . S
C132 C135 1.461 . S
C132 H152 0.932 . S
C133 C131 1.408 . S
C133 C132 1.310 . S
C133 H153 0.930 . S
C134 C135 1.474 . S
C134 C136 1.285 . S
C134 H154 0.929 . S
C135 C132 1.461 . S
C135 C134 1.474 . S
C136 C131 1.342 . S
C136 C134 1.285 . S
C136 H155 0.930 . S
C137 C140 1.424 1_545 S
C137 C142 1.245 . S
C137 C143 1.428 . S
C138 C141 1.260 . S
C138 C142 1.477 . S
C138 H156 0.932 . S
C139 C140 1.384 . S
C139 C141 1.479 1_565 S
C139 H157 0.929 . S
C140 C137 1.424 1_565 S
C140 C139 1.384 . S
C140 H158 0.928 . S
C141 C138 1.260 . S
C141 C139 1.479 1_545 S
C142 C137 1.245 . S
C142 C138 1.477 . S
C142 H159 0.932 . S
C143 U126 2.882 . S
C143 C137 1.428 . S
C143 O146 1.301 . S
C143 O147 1.282 1_545 S
O144 U126 2.441 1_565 S
O144 C130 1.249 . S
O145 U126 2.420 1_565 S
O145 C130 1.202 . S
O146 U126 2.455 . S
O146 C143 1.301 . S
O147 U126 2.449 1_565 S
O147 C143 1.282 1_565 S
H148 C121 0.931 . S
H149 C123 0.929 . S
H150 C124 0.930 . S
H151 C125 0.931 . S
H152 C132 0.932 . S
H153 C133 0.930 . S
H154 C134 0.929 . S
H155 C136 0.930 . S
H156 C138 0.932 . S
H157 C139 0.929 . S
H158 C140 0.928 . S
H159 C142 0.932 . S
C160 C161 1.264 . S
C160 C165 1.479 . S
C160 C170 1.465 . S
C161 C160 1.264 . S
C161 C163 1.339 . S
C161 H188 0.931 . S
C162 C163 1.395 . S
C162 C164 1.320 . S
C163 C161 1.339 . S
C163 C162 1.395 . S
C163 H189 0.929 . S
C164 C162 1.320 . S
C164 C165 1.405 . S
C164 H190 0.930 . S
C165 C160 1.479 . S
C165 C164 1.405 . S
C165 H191 0.931 . S
U166 O167 2.454 . S
U166 O168 2.458 . S
U166 C169 2.984 . S
U166 C170 2.847 . S
U166 C183 2.882 . S
U166 O184 2.441 . S
U166 O185 2.420 . S
U166 O186 2.455 . S
U166 O187 2.449 . S
O167 U166 2.454 . S
O167 C169 1.353 . S
O168 U166 2.458 . S
O168 C169 1.286 . S
C169 U166 2.984 . S
C169 O167 1.353 . S
C169 O168 1.286 . S
C169 C171 1.363 . S
C170 C160 1.465 . S
C170 U166 2.847 . S
C170 O184 1.249 . S
C170 O185 1.202 . S
C171 C169 1.363 . S
C171 C173 1.408 . S
C171 C176 1.342 . S
C172 C173 1.310 . S
C172 C175 1.461 . S
C172 H192 0.932 . S
C173 C171 1.408 . S
C173 C172 1.310 . S
C173 H193 0.930 . S
C174 C175 1.474 . S
C174 C176 1.285 . S
C174 H194 0.929 . S
C175 C172 1.461 . S
C175 C174 1.474 . S
C176 C171 1.342 . S
C176 C174 1.285 . S
C176 H195 0.930 . S
C177 C180 1.424 . S
C177 C182 1.245 . S
C177 C183 1.428 . S
C178 C181 1.260 . S
C178 C182 1.477 . S
C178 H196 0.932 . S
C179 C180 1.384 . S
C179 C181 1.479 . S
C179 H197 0.929 . S
C180 C177 1.424 . S
C180 C179 1.384 . S
C180 H198 0.928 . S
C181 C178 1.260 . S
C181 C179 1.479 . S
C182 C177 1.245 . S
C182 C178 1.477 . S
C182 H199 0.932 . S
C183 U166 2.882 . S
C183 C177 1.428 . S
C183 O186 1.301 . S
C183 O187 1.282 . S
O184 U166 2.441 . S
O184 C170 1.249 . S
O185 U166 2.420 . S
O185 C170 1.202 . S
O186 U166 2.455 . S
O186 C183 1.301 . S
O187 U166 2.449 . S
O187 C183 1.282 . S
H188 C161 0.931 . S
H189 C163 0.929 . S
H190 C164 0.930 . S
H191 C165 0.931 . S
H192 C172 0.932 . S
H193 C173 0.930 . S
H194 C174 0.929 . S
H195 C176 0.930 . S
H196 C178 0.932 . S
H197 C179 0.929 . S
H198 C180 0.928 . S
H199 C182 0.932 . S
C200 C201 1.264 . S
C200 C205 1.479 . S
C200 C210 1.465 . S
C201 C200 1.264 . S
C201 C203 1.339 . S
C201 H228 0.931 . S
C202 C203 1.395 . S
C202 C204 1.320 . S
C203 C201 1.339 . S
C203 C202 1.395 . S
C203 H229 0.929 . S
C204 C202 1.320 . S
C204 C205 1.405 . S
C204 H230 0.930 . S
C205 C200 1.479 . S
C205 C204 1.405 . S
C205 H231 0.931 . S
U206 O207 2.454 . S
U206 O208 2.458 . S
U206 C209 2.984 . S
U206 C210 2.847 1_455 S
U206 C223 2.882 . S
U206 O224 2.441 1_455 S
U206 O225 2.420 1_455 S
U206 O226 2.455 . S
U206 O227 2.449 1_455 S
O207 U206 2.454 . S
O207 C209 1.353 . S
O208 U206 2.458 . S
O208 C209 1.286 . S
C209 U206 2.984 . S
C209 O207 1.353 . S
C209 O208 1.286 . S
C209 C211 1.363 . S
C210 C200 1.465 . S
C210 U206 2.847 1_655 S
C210 O224 1.249 . S
C210 O225 1.202 . S
C211 C209 1.363 . S
C211 C213 1.408 . S
C211 C216 1.342 . S
C212 C213 1.310 . S
C212 C215 1.461 . S
C212 H232 0.932 . S
C213 C211 1.408 . S
C213 C212 1.310 . S
C213 H233 0.930 . S
C214 C215 1.474 . S
C214 C216 1.285 . S
C214 H234 0.929 . S
C215 C212 1.461 . S
C215 C214 1.474 . S
C216 C211 1.342 . S
C216 C214 1.285 . S
C216 H235 0.930 . S
C217 C220 1.424 1_455 S
C217 C222 1.245 . S
C217 C223 1.428 . S
C218 C221 1.260 . S
C218 C222 1.477 . S
C218 H236 0.932 . S
C219 C220 1.384 . S
C219 C221 1.479 1_655 S
C219 H237 0.929 . S
C220 C217 1.424 1_655 S
C220 C219 1.384 . S
C220 H238 0.928 . S
C221 C218 1.260 . S
C221 C219 1.479 1_455 S
C222 C217 1.245 . S
C222 C218 1.477 . S
C222 H239 0.932 . S
C223 U206 2.882 . S
C223 C217 1.428 . S
C223 O226 1.301 . S
C223 O227 1.282 1_455 S
O224 U206 2.441 1_655 S
O224 C210 1.249 . S
O225 U206 2.420 1_655 S
O225 C210 1.202 . S
O226 U206 2.455 . S
O226 C223 1.301 . S
O227 U206 2.449 1_655 S
O227 C223 1.282 1_655 S
H228 C201 0.931 . S
H229 C203 0.929 . S
H230 C204 0.930 . S
H231 C205 0.931 . S
H232 C212 0.932 . S
H233 C213 0.930 . S
H234 C214 0.929 . S
H235 C216 0.930 . S
H236 C218 0.932 . S
H237 C219 0.929 . S
H238 C220 0.928 . S
H239 C222 0.932 . S
H240 C246 0.930 . S
H241 C249 0.930 . S
H242 C250 0.930 . S
H243 C251 0.930 . S
H244 C254 0.930 . S
H245 C255 0.930 . S
C246 H240 0.930 . S
C246 C247 1.355 1_655 S
C246 C248 1.415 . S
C247 C246 1.355 1_455 S
C247 C249 1.419 . S
C248 C246 1.415 . S
C248 C253 1.425 1_655 S
C248 C255 1.409 . S
C249 H241 0.930 . S
C249 C247 1.419 . S
C249 C250 1.362 . S
C250 H242 0.930 . S
C250 C249 1.362 . S
C250 C253 1.409 . S
C251 H243 0.930 . S
C251 C252 1.355 . S
C251 C253 1.415 . S
C252 C251 1.355 . S
C252 C254 1.419 1_455 S
C253 C248 1.425 1_455 S
C253 C250 1.409 . S
C253 C251 1.415 . S
C254 H244 0.930 . S
C254 C252 1.419 1_655 S
C254 C255 1.362 . S
C255 H245 0.930 . S
C255 C248 1.409 . S
C255 C254 1.362 . S
H256 C262 0.930 . S
H257 C265 0.930 . S
H258 C266 0.930 . S
H259 C267 0.930 . S
H260 C270 0.930 . S
H261 C271 0.930 . S
C262 H256 0.930 . S
C262 C263 1.355 1_565 S
C262 C264 1.414 1_565 S
C263 C262 1.355 1_545 S
C263 C265 1.419 . S
C264 C262 1.414 1_545 S
C264 C269 1.430 . S
C264 C271 1.406 1_545 S
C265 H257 0.930 . S
C265 C263 1.419 . S
C265 C266 1.362 . S
C266 H258 0.930 . S
C266 C265 1.362 . S
C266 C269 1.409 . S
C267 H259 0.930 . S
C267 C268 1.355 . S
C267 C269 1.415 . S
C268 C267 1.355 . S
C268 C270 1.419 1_545 S
C269 C264 1.430 . S
C269 C266 1.409 . S
C269 C267 1.415 . S
C270 H260 0.930 . S
C270 C268 1.419 1_565 S
C270 C271 1.362 . S
C271 H261 0.930 . S
C271 C264 1.406 1_565 S
C271 C270 1.362 . S
H272 C278 0.930 . S
H273 C281 0.930 . S
H274 C282 0.930 . S
H275 C283 0.930 . S
H276 C286 0.930 . S
H277 C287 0.930 . S
C278 H272 0.930 . S
C278 C279 1.355 . S
C278 C280 1.415 . S
C279 C278 1.355 . S
C279 C281 1.419 . S
C280 C278 1.415 . S
C280 C285 1.425 . S
C280 C287 1.409 . S
C281 H273 0.930 . S
C281 C279 1.419 . S
C281 C282 1.362 . S
C282 H274 0.930 . S
C282 C281 1.362 . S
C282 C285 1.409 . S
C283 H275 0.930 . S
C283 C284 1.355 . S
C283 C285 1.415 . S
C284 C283 1.355 . S
C284 C286 1.419 . S
C285 C280 1.425 . S
C285 C282 1.409 . S
C285 C283 1.415 . S
C286 H276 0.930 . S
C286 C284 1.419 . S
C286 C287 1.362 . S
C287 H277 0.930 . S
C287 C280 1.409 . S
C287 C286 1.362 . S
H288 C294 0.934 1_556 S
H289 C297 0.930 . S
H290 C298 0.930 . S
H291 C299 0.924 . S
H292 C302 0.930 . S
H293 C303 0.930 . S
C294 H288 0.934 1_554 S
C294 C295 1.348 . S
C294 C296 1.417 1_554 S
C295 C294 1.348 . S
C295 C297 1.419 . S
C296 C294 1.417 1_556 S
C296 C301 1.425 1_556 S
C296 C303 1.409 . S
C297 H289 0.930 . S
C297 C295 1.419 . S
C297 C298 1.362 . S
C298 H290 0.930 . S
C298 C297 1.362 . S
C298 C301 1.409 . S
C299 H291 0.924 . S
C299 C300 1.363 1_554 S
C299 C301 1.412 . S
C300 C299 1.363 1_556 S
C300 C302 1.419 . S
C301 C296 1.425 1_554 S
C301 C298 1.409 . S
C301 C299 1.412 . S
C302 H292 0.930 . S
C302 C300 1.419 . S
C302 C303 1.362 . S
C303 H293 0.930 . S
C303 C296 1.409 . S
C303 C302 1.362 . S
H304 C310 0.930 . S
H305 C313 0.930 . S
H306 C314 0.930 . S
H307 C315 0.930 . S
H308 C318 0.930 . S
H309 C319 0.930 . S
C310 H304 0.930 . S
C310 C311 1.355 . S
C310 C312 1.415 . S
C311 C310 1.355 . S
C311 C313 1.419 . S
C312 C310 1.415 . S
C312 C317 1.425 . S
C312 C319 1.409 . S
C313 H305 0.930 . S
C313 C311 1.419 . S
C313 C314 1.362 . S
C314 H306 0.930 . S
C314 C313 1.362 . S
C314 C317 1.409 . S
C315 H307 0.930 . S
C315 C316 1.355 . S
C315 C317 1.415 . S
C316 C315 1.355 . S
C316 C318 1.419 . S
C317 C312 1.425 . S
C317 C314 1.409 . S
C317 C315 1.415 . S
C318 H308 0.930 . S
C318 C316 1.419 . S
C318 C319 1.362 . S
C319 H309 0.930 . S
C319 C312 1.409 . S
C319 C318 1.362 . S
H320 C326 0.930 . S
H321 C329 0.930 . S
H322 C330 0.930 . S
H323 C331 0.930 . S
H324 C334 0.930 . S
H325 C335 0.930 . S
C326 H320 0.930 . S
C326 C327 1.355 . S
C326 C328 1.415 . S
C327 C326 1.355 . S
C327 C329 1.419 . S
C328 C326 1.415 . S
C328 C333 1.425 . S
C328 C335 1.409 . S
C329 H321 0.930 . S
C329 C327 1.419 . S
C329 C330 1.362 . S
C330 H322 0.930 . S
C330 C329 1.362 . S
C330 C333 1.409 . S
C331 H323 0.930 . S
C331 C332 1.355 . S
C331 C333 1.415 . S
C332 C331 1.355 . S
C332 C334 1.419 . S
C333 C328 1.425 . S
C333 C330 1.409 . S
C333 C331 1.415 . S
C334 H324 0.930 . S
C334 C332 1.419 . S
C334 C335 1.362 . S
C335 H325 0.930 . S
C335 C328 1.409 . S
C335 C334 1.362 . S
H336 C342 0.930 . S
H337 C345 0.928 1_556 S
H338 C346 0.930 . S
H339 C347 0.930 . S
H340 C350 0.929 1_554 S
H341 C351 0.930 . S
C342 H336 0.930 . S
C342 C343 1.355 . S
C342 C344 1.415 . S
C343 C342 1.355 . S
C343 C345 1.427 . S
C344 C342 1.415 . S
C344 C349 1.425 1_554 S
C344 C351 1.409 . S
C345 H337 0.928 1_554 S
C345 C343 1.427 . S
C345 C346 1.356 1_554 S
C346 H338 0.930 . S
C346 C345 1.356 1_556 S
C346 C349 1.409 . S
C347 H339 0.930 . S
C347 C348 1.355 . S
C347 C349 1.415 . S
C348 C347 1.355 . S
C348 C350 1.423 . S
C349 C344 1.425 1_556 S
C349 C346 1.409 . S
C349 C347 1.415 . S
C350 H340 0.929 1_556 S
C350 C348 1.423 . S
C350 C351 1.359 1_556 S
C351 H341 0.930 . S
C351 C344 1.409 . S
C351 C350 1.359 1_554 S
H352 C358 0.930 . S
H353 C361 0.930 . S
H354 C362 0.930 . S
H355 C363 0.930 . S
H356 C366 0.930 . S
H357 C367 0.930 . S
C358 H352 0.930 . S
C358 C359 1.355 . S
C358 C360 1.415 . S
C359 C358 1.355 . S
C359 C361 1.419 . S
C360 C358 1.415 . S
C360 C365 1.425 . S
C360 C367 1.409 . S
C361 H353 0.930 . S
C361 C359 1.419 . S
C361 C362 1.362 . S
C362 H354 0.930 . S
C362 C361 1.362 . S
C362 C365 1.409 . S
C363 H355 0.930 . S
C363 C364 1.355 . S
C363 C365 1.415 . S
C364 C363 1.355 . S
C364 C366 1.419 . S
C365 C360 1.425 . S
C365 C362 1.409 . S
C365 C363 1.415 . S
C366 H356 0.930 . S
C366 C364 1.419 . S
C366 C367 1.362 . S
C367 H357 0.930 . S
C367 C360 1.409 . S
C367 C366 1.362 . S
H368 C374 0.930 . S
H369 C377 0.930 . S
H370 C378 0.930 . S
H371 C379 0.930 . S
H372 C382 0.930 . S
H373 C383 0.930 . S
C374 H368 0.930 . S
C374 C375 1.355 . S
C374 C376 1.415 . S
C375 C374 1.355 . S
C375 C377 1.419 . S
C376 C374 1.415 . S
C376 C381 1.425 . S
C376 C383 1.409 . S
C377 H369 0.930 . S
C377 C375 1.419 . S
C377 C378 1.362 . S
C378 H370 0.930 . S
C378 C377 1.362 . S
C378 C381 1.409 . S
C379 H371 0.930 . S
C379 C380 1.355 . S
C379 C381 1.415 . S
C380 C379 1.355 . S
C380 C382 1.419 . S
C381 C376 1.425 . S
C381 C378 1.409 . S
C381 C379 1.415 . S
C382 H372 0.930 . S
C382 C380 1.419 . S
C382 C383 1.362 . S
C383 H373 0.930 . S
C383 C376 1.409 . S
C383 C382 1.362 . S
C247 C21 1.499 . S
C252 C221 1.480 . S
C263 C141 1.499 . S
C268 C61 1.471 . S
C279 C181 1.478 . S
C284 C101 1.500 . S
C295 C15 1.500 . S
C300 C175 1.500 . S
C311 C42 1.472 . S
C316 C202 1.502 . S
C327 C122 1.487 . S
C332 C82 1.461 . S
C343 C2 1.486 . S
C348 C162 1.466 . S
C359 C55 1.499 . S
C364 C215 1.498 . S
C375 C135 1.493 . S
C380 C95 1.497 . S
