# Generated by pormake.
# Topology kag, (6)-cn, num edge types: 1
# Building blocks:
#     Node 0, Type 0, BuildingBlock: KUMBUR_clean_sbu_0, # of connection points: 6
#     Node 1, Type 0, BuildingBlock: KUMBUR_clean_sbu_0, # of connection points: 6
#     Node 2, Type 0, BuildingBlock: KUMBUR_clean_sbu_0, # of connection points: 6
#     Edge 3, Type (0, 0), BuildingBlock: XUDNAN_clean_linker_2, # of connection points: 2
#     Edge 4, Type (0, 0), BuildingBlock: XUDNAN_clean_linker_2, # of connection points: 2
#     Edge 5, Type (0, 0), BuildingBlock: XUDNAN_clean_linker_2, # of connection points: 2
#     Edge 6, Type (0, 0), BuildingBlock: XUDNAN_clean_linker_2, # of connection points: 2
#     Edge 7, Type (0, 0), BuildingBlock: XUDNAN_clean_linker_2, # of connection points: 2
#     Edge 8, Type (0, 0), BuildingBlock: XUDNAN_clean_linker_2, # of connection points: 2
#     Edge 9, Type (0, 0), BuildingBlock: XUDNAN_clean_linker_2, # of connection points: 2
#     Edge 10, Type (0, 0), BuildingBlock: XUDNAN_clean_linker_2, # of connection points: 2
#     Edge 11, Type (0, 0), BuildingBlock: XUDNAN_clean_linker_2, # of connection points: 2
# Relax obj value: 0.071
# Max RMSD: 0.191
# Mean RMSD: 0.141
data_MOF--net-kag--node1-KUMBUR_clean_sbu_0--edge1-XUDNAN_clean_linker_2
_symmetry_space_group_name_H-M    P1
_symmetry_Int_Tables_number       1
_symmetry_cell_setting            triclinic
loop_
_symmetry_equiv_pos_as_xyz
'x, y, z'
_cell_length_a     39.282835
_cell_length_b     28.903179
_cell_length_c     15.085499
_cell_angle_alpha  93.929385
_cell_angle_beta   113.40679
_cell_angle_gamma 96.77988
loop_
_atom_site_label
_atom_site_type_symbol
_atom_site_fract_x
_atom_site_fract_y
_atom_site_fract_z
_atom_type_partial_charge
Tb0 Tb 0.02481 0.50529 0.04014 0.0
C1 C 1.00343 0.69446 0.16265 0.0
C2 C 0.94084 0.69729 0.04288 0.0
C3 C 0.96171 0.73725 0.20709 0.0
C4 C 0.97582 0.68165 0.06976 0.0
C5 C 0.9972 0.72365 0.23159 0.0
C6 C 0.93355 0.72405 0.11283 0.0
C7 C 0.06275 0.7283 0.3389 0.0
N8 N 0.03736 0.68098 0.18303 0.0
C9 C 0.06757 0.69956 0.26765 0.0
C10 C 0.02723 0.73971 0.32152 0.0
Tb11 Tb 0.0414 0.63123 0.06403 0.0
N12 N 0.98411 0.65612 0.00424 0.0
C13 C 0.95924 0.6472 0.90861 0.0
C14 C 0.91475 0.68677 0.94592 0.0
C15 C 0.92418 0.6621 0.87828 0.0
H16 H 0.09496 0.69031 0.28163 0.0
H17 H 0.90435 0.65426 0.80287 0.0
H18 H 0.90665 0.73587 0.09398 0.0
H19 H 0.08637 0.74153 0.40718 0.0
H20 H 0.96586 0.62765 0.85566 0.0
H21 H 0.16348 0.45984 0.2251 0.0
H22 H 0.88765 0.69843 0.92213 0.0
H23 H 0.95289 0.45522 0.83385 0.0
H24 H 0.10929 0.49814 0.21166 0.0
H25 H 0.94244 0.39734 0.69495 0.0
H26 H 0.95615 0.75916 0.25945 0.0
H27 H 0.16077 0.40728 0.0852 0.0
H28 H 0.12279 0.36561 0.91602 0.0
H29 H 0.0236 0.76212 0.37664 0.0
H30 H 0.06235 0.34775 0.77258 0.0
N31 N 0.07639 0.4697 0.06344 0.0
C32 C 0.10757 0.47563 0.1495 0.0
C33 C 0.13684 0.4242 0.07863 0.0
C34 C 0.10383 0.41545 0.99326 0.0
C35 C 0.13845 0.45378 0.15773 0.0
C36 C 0.07361 0.43864 0.98834 0.0
H37 H 0.99478 0.35888 0.69015 0.0
N38 N 1.01118 0.45099 0.90756 0.0
C39 C 0.97002 0.406 0.75421 0.0
C40 C 0.03968 0.42836 0.90822 0.0
C41 C 0.97614 0.43896 0.83349 0.0
C42 C 0.99962 0.38433 0.75178 0.0
C43 C 0.03491 0.39501 0.82986 0.0
O44 O 0.97807 0.47049 0.05628 0.0
O45 O 1.0035 0.5694 0.05443 0.0
O46 O 0.03936 0.61074 0.19953 0.0
O47 O 0.05545 0.53615 0.19325 0.0
O48 O 0.96589 0.51618 0.96249 0.0
O49 O 0.03313 0.45446 0.13804 0.0
O50 O 0.08967 0.68089 0.09719 0.0
O51 O 0.06417 0.56771 0.05232 0.0
O52 O 0.02749 0.52094 0.90482 0.0
O53 O 0.02659 0.60199 0.90949 0.0
O54 O 0.09967 0.62257 0.15009 0.0
O55 O 0.03983 0.68006 0.96573 0.0
C56 C 0.9687 0.55816 0.00195 0.0
C57 C 0.98017 0.39401 0.09513 0.0
C58 C 0.92572 0.33667 0.07395 0.0
C59 C 0.94509 0.38293 0.09886 0.0
C60 C 0.94268 0.30096 0.04795 0.0
C61 C 0.99656 0.35819 0.06771 0.0
C62 C 0.9779 0.31178 0.04495 0.0
C63 C 0.05044 0.5731 0.24102 0.0
C64 C 0.99736 0.44373 0.11601 0.0
C65 C 0.06533 0.37315 0.83249 0.0
C66 C 0.09976 0.38338 0.91405 0.0
C67 C 0.09823 0.58089 0.11131 0.0
C68 C 0.07908 0.75327 0.03875 0.0
C69 C 0.11114 0.77911 0.03615 0.0
C70 C 0.11882 0.82819 0.05953 0.0
C71 C 0.09395 0.85126 0.08543 0.0
C72 C 0.05408 0.77686 0.06277 0.0
C73 C 0.0616 0.82566 0.08624 0.0
C74 C 0.0262 0.56031 0.86471 0.0
C75 C 0.07362 0.70177 0.02096 0.0
H76 H 0.93273 0.41078 0.12082 0.0
H77 H 0.92843 0.26495 0.02806 0.0
H78 H 0.02344 0.36603 0.06323 0.0
H79 H 0.99056 0.28417 0.02374 0.0
H80 H 0.13056 0.76091 0.01785 0.0
H81 H 0.09925 0.88909 0.10349 0.0
H82 H 0.02896 0.75772 0.06386 0.0
H83 H 0.04233 0.84367 0.10529 0.0
Tb84 Tb 0.57636 0.06776 0.01861 0.0
C85 C 0.42951 0.11312 0.75775 0.0
C86 C 0.42776 0.18765 0.83763 0.0
C87 C 0.39657 0.17067 0.66124 0.0
C88 C 0.4398 0.14348 0.84169 0.0
C89 C 0.40694 0.1257 0.66661 0.0
C90 C 0.40692 0.2016 0.74672 0.0
C91 C 0.40275 1.04664 0.59528 0.0
N92 N 0.43979 0.06986 0.76649 0.0
C93 C 0.42495 1.03571 0.68752 0.0
C94 C 0.39427 0.09208 0.58445 0.0
Tb95 Tb 0.47706 1.05581 0.92101 0.0
N96 N 0.45942 0.12832 0.92789 0.0
C97 C 0.46554 0.1544 0.01343 0.0
C98 C 0.43574 0.21557 0.92507 0.0
C99 C 0.45404 0.19844 0.01332 0.0
H100 H 0.43139 1.00051 0.69532 0.0
H101 H 0.45965 0.21933 0.0814 0.0
H102 H 0.3977 0.23558 0.74196 0.0
H103 H 0.39213 1.01998 0.53267 0.0
H104 H 0.47992 0.14186 0.08223 0.0
H105 H 0.65073 1.03229 0.79044 0.0
H106 H 0.42693 0.24966 0.92524 0.0
H107 H 0.56551 1.00887 0.1924 0.0
H108 H 0.61714 0.07887 0.861 0.0
H109 H 0.58368 0.93837 0.26648 0.0
H110 H 0.37955 0.18127 0.59182 0.0
H111 H 0.66455 0.95503 0.84323 0.0
H112 H 0.66414 0.89617 0.95675 0.0
H113 H 0.37688 0.10034 0.51301 0.0
H114 H 0.64886 0.87303 0.09126 0.0
N115 N 0.60747 1.02646 0.94521 0.0
C116 C 0.62137 1.04431 0.88178 0.0
C117 C 0.64876 0.97484 0.87249 0.0
C118 C 0.63775 0.95858 0.94366 0.0
C119 C 0.64099 1.01831 0.84246 0.0
C120 C 0.6171 0.98563 0.97941 0.0
H121 H 0.61876 0.88807 0.20685 0.0
N122 N 0.58863 0.99951 0.08731 0.0
C123 C 0.59063 0.94736 0.20654 0.0
C124 C 0.60793 0.97211 0.05403 0.0
C125 C 0.58019 0.98769 0.16344 0.0
C126 C 0.61029 0.91897 0.17254 0.0
C127 C 0.61909 0.93105 0.09526 0.0
O128 O 0.61618 0.09336 0.16159 0.0
O129 O 0.52917 0.10634 0.98933 0.0
O130 O 0.49388 0.0737 0.80425 0.0
O131 O 0.55386 1.05388 0.85954 0.0
O132 O 0.57147 0.13398 0.95386 0.0
O133 O 0.62807 0.10598 0.03795 0.0
O134 O 0.43383 0.99775 0.88271 0.0
O135 O 0.52528 1.01831 0.98247 0.0
O136 O 0.56167 0.08662 0.14027 0.0
O137 O 0.49715 1.0616 0.07987 0.0
O138 O 0.48085 0.98677 0.858 0.0
O139 O 0.43832 1.05538 0.98574 0.0
C140 C 0.54016 0.14182 0.9555 0.0
C141 C 0.65418 0.16559 0.16851 0.0
C142 C 0.69767 0.23541 0.17768 0.0
C143 C 0.68508 0.18679 0.15305 0.0
C144 C 0.67942 0.26257 0.22043 0.0
C145 C 0.6363 0.19329 0.2111 0.0
C146 C 0.64905 0.24149 0.23742 0.0
C147 C 0.52375 1.06503 0.79084 0.0
C148 C 0.63942 0.1156 0.13111 0.0
C149 C 0.63923 0.90386 0.05925 0.0
C150 C 0.64817 0.91726 0.9829 0.0
C151 C 0.51321 0.98125 0.92054 0.0
C152 C 0.37756 1.01332 0.89268 0.0
C153 C 0.35603 0.99196 0.93857 0.0
C154 C 0.3166 0.98788 0.89595 0.0
C155 C 0.29898 1.00575 0.80745 0.0
C156 C 0.35938 1.03161 0.80517 0.0
C157 C 0.32033 1.02774 0.7628 0.0
C158 C 0.53 0.07792 0.15199 0.0
C159 C 0.4187 1.01563 0.93685 0.0
H160 H 0.69829 0.16562 0.11777 0.0
H161 H 0.68862 0.30007 0.24064 0.0
H162 H 0.61213 0.17799 0.22225 0.0
H163 H 0.63499 0.2627 0.26973 0.0
H164 H 0.36987 0.97789 0.00644 0.0
H165 H 0.26869 1.00336 0.77362 0.0
H166 H 0.37504 1.04877 0.76912 0.0
H167 H 0.30659 1.04186 0.6951 0.0
Tb168 Tb 0.47266 0.54623 0.93294 0.0
C169 C 0.59782 0.68829 0.07965 0.0
C170 C 0.62461 0.71691 0.97027 0.0
C171 C 0.62294 0.77118 0.09786 0.0
C172 C 0.60647 0.67988 0.00024 0.0
C173 C 0.60629 0.73414 0.12968 0.0
C174 C 0.63209 0.76269 0.01826 0.0
C175 C 0.58188 0.70383 0.24075 0.0
N176 N 0.58182 0.65156 0.10906 0.0
C177 C 0.57411 0.65907 0.18941 0.0
C178 C 0.5982 0.74152 0.21112 0.0
Tb179 Tb 0.57324 0.57894 0.02249 0.0
N180 N 0.59881 0.6352 0.9554 0.0
C181 C 0.61327 0.62464 0.88849 0.0
C182 C 0.63585 0.70661 0.89511 0.0
C183 C 0.63076 0.66009 0.85527 0.0
H184 H 0.5625 0.63138 0.217 0.0
H185 H 0.64088 0.65138 0.80013 0.0
H186 H 0.64563 0.79156 -0.00435 0.0
H187 H 0.57565 0.70908 0.30413 0.0
H188 H 0.61102 0.58862 0.85985 0.0
H189 H 0.45814 0.37939 0.06522 0.0
H190 H 0.64981 0.73403 0.87009 0.0
H191 H 0.42515 0.57796 0.71525 0.0
H192 H 0.47678 0.46493 0.07953 0.0
H193 H 0.38698 0.53938 0.54741 0.0
H194 H 0.62932 0.80628 0.13585 0.0
H195 H 0.42684 0.33251 0.90269 0.0
H196 H 0.39818 0.33079 0.72038 0.0
H197 H 0.60479 0.77604 0.25221 0.0
H198 H 0.37922 0.37452 0.57837 0.0
N199 N 0.45704 0.46672 0.92656 0.0
C200 C 0.46312 0.44505 0.00806 0.0
C201 C 0.43508 0.37005 0.9085 0.0
C202 C 0.42707 0.39276 0.82524 0.0
C203 C 0.45255 0.39646 0.00031 0.0
C204 C 0.43827 0.44175 0.83704 0.0
H205 H 0.37443 0.45264 0.51312 0.0
N206 N 0.43592 0.51369 0.77458 0.0
C207 C 0.39837 0.51835 0.60585 0.0
C208 C 0.42736 0.46614 0.75775 0.0
C209 C 0.41992 0.54008 0.70104 0.0
C210 C 0.39149 0.46937 0.5867 0.0
C211 C 0.40518 0.44259 0.66358 0.0
O212 O 0.42474 0.58002 0.90142 0.0
O213 O 0.5201 0.60461 0.9909 0.0
O214 O 0.562 0.55461 0.14533 0.0
O215 O 0.49701 0.55149 0.09274 0.0
O216 O 0.47097 0.6164 0.88441 0.0
O217 O 0.43825 0.53409 0.01006 0.0
O218 O 0.62335 0.58552 0.15035 0.0
O219 O 0.52702 0.52104 0.99278 0.0
O220 O 0.48998 0.53321 0.81204 0.0
O221 O 0.54763 0.58248 0.86621 0.0
O222 O 0.56873 0.50733 0.95316 0.0
O223 O 0.61998 0.55119 0.0164 0.0
C224 C 0.5047 0.63585 0.93897 0.0
C225 C 0.37313 0.53792 0.92463 0.0
C226 C 0.31075 0.52894 0.93351 0.0
C227 C 0.34917 0.55091 0.96946 0.0
C228 C 0.29767 0.49352 0.85337 0.0
C229 C 0.35814 0.50311 0.84412 0.0
C230 C 0.32098 0.48113 0.80919 0.0
C231 C 0.53074 0.54981 0.16088 0.0
C232 C 0.41372 0.55955 0.96178 0.0
C233 C 0.39594 0.39341 0.65026 0.0
C234 C 0.40676 0.36851 0.73112 0.0
C235 C 0.53803 0.48783 0.95586 0.0
C236 C 0.67897 0.59764 0.11808 0.0
C237 C 0.70763 0.57793 0.09969 0.0
C238 C 0.74135 0.60706 0.11047 0.0
C239 C 0.74518 0.65557 0.13644 0.0
C240 C 0.68535 0.64608 0.14884 0.0
C241 C 0.71757 0.67475 0.15563 0.0
C242 C 0.51848 0.55524 0.7975 0.0
C243 C 0.64242 0.56874 0.10501 0.0
H244 H 0.36039 0.5781 0.03123 0.0
H245 H 0.26937 0.47432 0.82517 0.0
H246 H 0.37518 0.49249 0.80811 0.0
H247 H 0.3102 0.45386 0.74759 0.0
H248 H 0.70413 0.54042 0.07962 0.0
H249 H 0.77049 0.67864 0.14547 0.0
H250 H 0.66544 0.66215 0.16835 0.0
H251 H 0.72154 0.7121 0.178 0.0
H252 H 1.00973 0.62082 0.7201 0.0
H253 H 0.05747 0.49391 0.80239 0.0
H254 H 0.07205 0.48818 0.66042 0.0
H255 H 0.9666 0.57999 0.45905 0.0
H256 H 0.97589 0.63673 0.42336 0.0
H257 H 0.96958 0.63272 0.53469 0.0
H258 H 0.0343 0.68535 0.62999 0.0
H259 H 0.04081 0.68872 0.5187 0.0
H260 H 0.07554 0.66798 0.62102 0.0
H261 H 0.08302 0.49465 0.51442 0.0
H262 H 0.08302 0.5084 0.35585 0.0
H263 H 0.02639 0.62903 0.35454 0.0
C264 C 0.0231 0.59185 0.7077 0.0
C265 C 0.03202 0.55761 0.77296 0.0
C266 C 0.04945 0.52015 0.75358 0.0
C267 C 0.05839 0.51675 0.67317 0.0
C268 C 0.04957 0.55082 0.611 0.0
C269 C 0.03177 0.58729 0.6255 0.0
C270 C 0.02394 0.61737 0.54255 0.0
C271 C 0.98148 0.61664 0.48661 0.0
C272 C 0.0449 0.66786 0.58036 0.0
C273 C 0.04011 0.59174 0.48038 0.0
C274 C 0.05516 0.5539 0.52273 0.0
C275 C 0.07128 0.52412 0.48001 0.0
C276 C 0.07114 0.5323 0.38975 0.0
C277 C 0.05474 0.56979 0.34237 0.0
C278 C 0.0396 0.60045 0.38935 0.0
H279 H 0.48088 1.03789 0.22442 0.0
H280 H 0.58404 0.13602 0.3054 0.0
H281 H 0.58964 0.14815 0.47367 0.0
H282 H 0.44616 0.09669 0.39127 0.0
H283 H 0.4286 1.04184 0.41984 0.0
H284 H 0.4298 1.04515 0.3022 0.0
H285 H 0.46899 0.97713 0.32936 0.0
H286 H 0.46803 0.97397 0.44711 0.0
H287 H 0.51238 0.98257 0.43638 0.0
H288 H 0.58645 0.14717 0.63309 0.0
H289 H 0.57658 0.12946 0.77927 0.0
H290 H 0.47794 1.02801 0.60144 0.0
C291 C 0.50421 1.06261 0.27727 0.0
C292 C 0.53185 0.0865 0.25151 0.0
C293 C 0.56245 0.11763 0.32313 0.0
C294 C 0.5658 0.1249 0.41895 0.0
C295 C 0.53844 0.10048 0.44232 0.0
C296 C 0.5083 0.06977 0.37404 0.0
C297 C 0.48472 1.04502 0.421 0.0
C298 C 0.44496 1.05796 0.38119 0.0
C299 C 0.48348 0.99151 0.40767 0.0
C300 C 0.50695 1.06586 0.52653 0.0
C301 C 0.53742 0.09838 0.53641 0.0
C302 C 0.56278 0.12171 0.62646 0.0
C303 C 0.55722 0.11102 0.70907 0.0
C304 C 0.52701 0.0768 0.70126 0.0
C305 C 0.50111 1.05451 0.60884 0.0
H306 H 0.47226 0.5705 0.61214 0.0
H307 H 0.57325 0.51437 0.7765 0.0
H308 H 0.58607 0.50362 0.62977 0.0
H309 H 0.44632 0.49176 0.38083 0.0
H310 H 0.42913 0.53719 0.30638 0.0
H311 H 0.42627 0.53693 0.42271 0.0
H312 H 0.46271 0.62189 0.47525 0.0
H313 H 0.46608 0.62225 0.35972 0.0
H314 H 0.50808 0.63465 0.47111 0.0
H315 H 0.5917 0.50659 0.47141 0.0
H316 H 0.58694 0.51719 0.30596 0.0
H317 H 0.48082 0.56784 0.23976 0.0
C318 C 0.4964 0.55475 0.61606 0.0
C319 C 0.52191 0.54335 0.70526 0.0
C320 C 0.55368 0.52376 0.70874 0.0
C321 C 0.56111 0.51734 0.62579 0.0
C322 C 0.53616 0.53014 0.53933 0.0
C323 C 0.50413 0.54777 0.53319 0.0
C324 C 0.4828 0.56027 0.43178 0.0
C325 C 0.44382 0.52971 0.3825 0.0
C326 C 0.47976 0.61289 0.4347 0.0
C327 C 0.50836 0.54799 0.38311 0.0
C328 C 0.53896 0.53067 0.44657 0.0
C329 C 0.56757 0.51944 0.42039 0.0
C330 C 0.56476 0.52583 0.32652 0.0
C331 C 0.53346 0.54301 0.25976 0.0
C332 C 0.50486 0.55397 0.28866 0.0
H333 H 0.10817 0.54667 0.94653 0.0
H334 H 0.16723 0.5895 0.25685 0.0
H335 H 0.22746 0.58044 0.24703 0.0
H336 H 0.16895 0.46079 0.92656 0.0
H337 H 0.16614 0.47661 0.81063 0.0
H338 H 0.12778 0.48191 0.84561 0.0
H339 H 0.13257 0.5699 0.81755 0.0
H340 H 0.17113 0.5641 0.78386 0.0
H341 H 0.17678 0.60835 0.881 0.0
H342 H 0.2825 0.57041 0.20227 0.0
H343 H 0.32681 0.55754 0.12733 0.0
H344 H 0.2329 0.52634 0.84356 0.0
C345 C 0.13363 0.55284 0.01253 0.0
C346 C 0.13274 0.56781 0.10301 0.0
C347 C 0.16707 0.57729 0.18715 0.0
C348 C 0.20151 0.57237 0.18219 0.0
C349 C 0.20165 0.55848 0.09199 0.0
C350 C 0.16858 0.54866 0.00857 0.0
C351 C 0.1769 0.53666 0.9201 0.0
C352 C 0.15887 0.48599 0.87293 0.0
C353 C 0.16355 0.57184 0.84627 0.0
C354 C 0.21971 0.54176 0.96667 0.0
C355 C 0.23341 0.55406 0.06597 0.0
C356 C 0.27199 0.56072 0.1244 0.0
C357 C 0.29716 0.55381 0.08079 0.0
C358 C 0.28403 0.54056 0.979 0.0
C359 C 0.24449 0.53536 0.92176 0.0
H360 H 0.7647 0.20516 0.20764 0.0
H361 H 0.70017 0.31591 0.09368 0.0
H362 H 0.75054 0.35209 0.04961 0.0
H363 H 0.85522 0.27798 0.3113 0.0
H364 H 0.87903 0.23396 0.28074 0.0
H365 H 0.83764 0.21652 0.30196 0.0
H366 H 0.80636 0.16672 0.13219 0.0
H367 H 0.84759 0.18427 0.11018 0.0
H368 H 0.80227 0.19421 0.02544 0.0
H369 H 0.80735 0.37577 0.01671 0.0
H370 H 0.86856 0.38813 0.00527 0.0
H371 H 0.89699 0.26273 0.14315 0.0
C372 C 0.76113 0.23691 0.17299 0.0
C373 C 0.72856 0.25781 0.15421 0.0
C374 C 0.72509 0.29966 0.10984 0.0
C375 C 0.75339 0.32023 0.08385 0.0
C376 C 0.78502 0.29859 0.10292 0.0
C377 C 0.78919 0.25804 0.147 0.0
C378 C 0.82639 0.24255 0.16151 0.0
C379 C 0.85102 0.24279 0.27034 0.0
C380 C 0.82027 0.19406 0.10388 0.0
C381 C 0.84255 0.28083 0.11894 0.0
C382 C 0.81809 0.3126 0.08504 0.0
C383 C 0.82681 0.35125 0.04341 0.0
C384 C 0.86174 0.35808 0.03771 0.0
C385 C 0.88775 0.32664 0.07411 0.0
C386 C 0.87765 0.28715 0.11398 0.0
H387 H 0.50407 0.91559 0.04113 0.0
H388 H 0.54187 0.93398 0.81092 0.0
H389 H 0.54892 0.85002 0.80013 0.0
H390 H 0.5639 0.82746 0.15679 0.0
H391 H 0.52787 0.79349 0.18144 0.0
H392 H 0.52899 0.85592 0.17807 0.0
H393 H 0.46089 0.84165 0.04751 0.0
H394 H 0.45924 0.77925 0.05039 0.0
H395 H 0.44896 0.80307 0.93683 0.0
H396 H 0.54399 0.76041 0.79936 0.0
H397 H 0.53212 0.67619 0.8171 0.0
H398 H 0.50014 0.71323 0.05271 0.0
C399 C 0.51515 0.90228 0.99096 0.0
C400 C 0.52412 0.93258 0.92979 0.0
C401 C 0.5362 0.9125 0.86108 0.0
C402 C 0.54005 0.86447 0.85405 0.0
C403 C 0.53095 0.8356 0.91486 0.0
C404 C 0.51893 0.85386 0.98258 0.0
C405 C 0.50875 0.8144 0.0349 0.0
C406 C 0.53386 0.82335 0.14439 0.0
C407 C 0.46698 0.80931 0.01629 0.0
C408 C 0.51691 0.77123 0.98639 0.0
C409 C 0.52937 0.78431 0.91661 0.0
C410 C 0.5354 0.75028 0.85603 0.0
C411 C 0.52885 0.70222 0.86709 0.0
C412 C 0.51778 0.68758 0.94084 0.0
C413 C 0.51102 0.72304 -0.00012 0.0
H414 H 0.89268 0.55718 0.88926 0.0
H415 H 0.9752 0.58061 0.18829 0.0
H416 H 0.92559 0.58917 0.24519 0.0
H417 H 0.83421 0.64285 0.92498 0.0
H418 H 0.79118 0.60729 0.84016 0.0
H419 H 0.83428 0.60458 0.82547 0.0
H420 H 0.82279 0.5141 0.82667 0.0
H421 H 0.78084 0.51786 0.84661 0.0
H422 H 0.81812 0.49146 0.9304 0.0
H423 H 0.86661 0.59073 0.27209 0.0
H424 H 0.80397 0.59904 0.26643 0.0
H425 H 0.75746 0.57995 0.95111 0.0
C426 C 0.9003 0.56488 0.96661 0.0
C427 C 0.93849 0.5693 0.03401 0.0
C428 C 0.94689 0.57855 0.13461 0.0
C429 C 0.91854 0.58284 0.16793 0.0
C430 C 0.88137 0.57797 0.10005 0.0
C431 C 0.87214 0.57028 0.00127 0.0
C432 C 0.82986 0.56828 0.94421 0.0
C433 C 0.82193 0.60811 0.87985 0.0
C434 C 0.81185 0.52005 0.88336 0.0
C435 C 0.81684 0.57564 0.02635 0.0
C436 C 0.84715 0.5803 0.11559 0.0
C437 C 0.84273 0.58723 0.20257 0.0
C438 C 0.80687 0.59137 0.19869 0.0
C439 C 0.77545 0.58905 0.10868 0.0
C440 C 0.78056 0.58048 0.0211 0.0
H441 H 0.14063 0.82517 0.90892 0.0
H442 H 0.17285 0.89219 0.20273 0.0
H443 H 0.22962 0.93714 0.19722 0.0
H444 H 0.23434 0.81645 0.92532 0.0
H445 H 0.22373 0.82983 0.80308 0.0
H446 H 0.18711 0.80102 0.83285 0.0
H447 H 0.14743 0.86673 0.7692 0.0
H448 H 0.18383 0.89565 0.73898 0.0
H449 H 0.1676 0.92712 0.81803 0.0
H450 H 0.28285 0.97474 0.15846 0.0
H451 H 0.32503 1.00748 0.08419 0.0
H452 H 0.25587 0.91832 0.81344 0.0
C453 C 0.1599 0.84899 0.97235 0.0
C454 C 0.15272 0.85512 0.05656 0.0
C455 C 0.17801 0.88719 0.13759 0.0
C456 C 0.21034 0.91258 0.13525 0.0
C457 C 0.21665 0.90573 0.05096 0.0
C458 C 0.19191 0.87506 0.97064 0.0
C459 C 0.20387 0.8761 0.88694 0.0
C460 C 0.2128 0.82799 0.86053 0.0
C461 C 0.1739 0.89238 0.79807 0.0
C462 C 0.23907 0.9124 0.93233 0.0
C463 C 0.24635 0.92859 0.02747 0.0
C464 C 0.27741 0.96233 0.08403 0.0
C465 C 0.30127 0.98056 0.04157 0.0
C466 C 0.29352 0.96545 0.94328 0.0
C467 C 0.26225 0.93061 0.88863 0.0
H468 H 0.52033 0.40795 0.82159 0.0
H469 H 0.55107 0.45128 0.1274 0.0
H470 H 0.55135 0.36825 0.15866 0.0
H471 H 0.45987 0.29555 0.80062 0.0
H472 H 0.47544 0.26487 0.71933 0.0
H473 H 0.47502 0.32724 0.72045 0.0
H474 H 0.54572 0.34023 0.75382 0.0
H475 H 0.54613 0.27797 0.75369 0.0
H476 H 0.57865 0.3182 0.85758 0.0
H477 H 0.55035 0.27873 0.15793 0.0
H478 H 0.54992 0.19337 0.12582 0.0
H479 H 0.52158 0.20618 0.82151 0.0
C480 C 0.52632 0.39978 0.89477 0.0
C481 C 0.53409 0.43655 0.97141 0.0
C482 C 0.5436 0.42413 0.06678 0.0
C483 C 0.544 0.37679 0.08526 0.0
C484 C 0.53548 0.34138 0.00809 0.0
C485 C 0.52693 0.35235 0.91457 0.0
C486 C 0.52073 0.30776 0.84558 0.0
C487 C 0.48036 0.29833 0.76673 0.0
C488 C 0.54952 0.31126 0.79997 0.0
C489 C 0.52727 0.27011 0.9145 0.0
C490 C 0.53552 0.29028 0.00795 0.0
C491 C 0.54348 0.26285 0.08462 0.0
C492 C 0.54311 0.2141 0.06574 0.0
C493 C 0.53454 0.19222 0.97068 0.0
C494 C 0.52699 0.2212 0.89448 0.0
loop_
_geom_bond_atom_site_label_1
_geom_bond_atom_site_label_2
_geom_bond_distance
_geom_bond_site_symmetry_2
_ccdc_geom_bond_type
Tb0 N31 2.660 1_656 S
Tb0 N38 2.600 . S
Tb0 O44 2.546 . S
Tb0 O45 2.610 . S
Tb0 O47 2.319 1_556 S
Tb0 O48 2.552 . S
Tb0 O49 2.413 1_556 S
Tb0 O51 2.362 1_656 S
Tb0 O52 2.421 . S
Tb0 C64 2.833 . S
C1 C4 1.432 . S
C1 C5 1.414 . S
C1 N8 1.359 1_655 S
C2 C4 1.417 1_556 S
C2 C6 1.432 1_556 S
C2 C14 1.410 . S
C3 C5 1.444 . S
C3 C6 1.317 . S
C3 H26 0.929 . S
C4 C1 1.432 . S
C4 C2 1.417 1_554 S
C4 N12 1.360 1_554 S
C5 C1 1.414 . S
C5 C3 1.444 . S
C5 C10 1.385 1_655 S
C6 C2 1.432 1_554 S
C6 C3 1.317 . S
C6 H18 0.930 1_554 S
C7 C9 1.392 . S
C7 C10 1.370 . S
C7 H19 0.931 . S
N8 C1 1.359 1_455 S
N8 C9 1.327 . S
N8 Tb11 2.600 . S
C9 C7 1.392 . S
C9 N8 1.327 . S
C9 H16 0.930 . S
C10 C5 1.385 1_455 S
C10 C7 1.370 . S
C10 H29 0.943 . S
Tb11 N8 2.600 . S
Tb11 N12 2.660 1_454 S
Tb11 O45 2.362 1_454 S
Tb11 O46 2.421 . S
Tb11 O50 2.546 . S
Tb11 O51 2.610 . S
Tb11 O53 2.320 1_554 S
Tb11 O54 2.552 . S
Tb11 O55 2.413 1_554 S
Tb11 C75 2.833 . S
N12 C4 1.360 1_556 S
N12 Tb11 2.660 1_656 S
N12 C13 1.305 . S
C13 N12 1.305 . S
C13 C15 1.407 . S
C13 H20 0.930 . S
C14 C2 1.410 . S
C14 C15 1.345 . S
C14 H22 0.930 . S
C15 C13 1.407 . S
C15 C14 1.345 . S
C15 H17 0.930 . S
H16 C9 0.930 . S
H17 C15 0.930 . S
H18 C6 0.930 1_556 S
H19 C7 0.931 . S
H20 C13 0.930 . S
H21 C35 0.930 . S
H22 C14 0.930 . S
H23 C41 0.930 . S
H24 C32 0.930 . S
H25 C39 0.931 . S
H26 C3 0.929 . S
H27 C33 0.930 . S
H28 C66 0.930 1_554 S
H29 C10 0.943 . S
H30 C65 0.929 . S
N31 Tb0 2.660 1_454 S
N31 C32 1.305 . S
N31 C36 1.354 1_554 S
C32 H24 0.930 . S
C32 N31 1.305 . S
C32 C35 1.407 . S
C33 H27 0.930 . S
C33 C34 1.410 . S
C33 C35 1.345 . S
C34 C33 1.410 . S
C34 C36 1.415 1_554 S
C34 C66 1.432 1_554 S
C35 H21 0.930 . S
C35 C32 1.407 . S
C35 C33 1.345 . S
C36 N31 1.354 1_556 S
C36 C34 1.415 1_556 S
C36 C40 1.439 . S
H37 C42 0.924 1_455 S
N38 Tb0 2.600 . S
N38 C40 1.359 1_655 S
N38 C41 1.327 . S
C39 H25 0.931 . S
C39 C41 1.392 . S
C39 C42 1.370 . S
C40 C36 1.439 . S
C40 N38 1.359 1_455 S
C40 C43 1.414 . S
C41 H23 0.930 . S
C41 N38 1.327 . S
C41 C39 1.392 . S
C42 H37 0.924 1_655 S
C42 C39 1.370 . S
C42 C43 1.385 1_655 S
C43 C40 1.414 . S
C43 C42 1.385 1_455 S
C43 C65 1.444 . S
O44 Tb0 2.546 . S
O44 C64 1.251 . S
O45 Tb0 2.610 . S
O45 Tb11 2.362 1_656 S
O45 C56 1.283 . S
O46 Tb11 2.421 . S
O46 C63 1.262 . S
O47 Tb0 2.319 1_554 S
O47 C63 1.261 1_655 S
O48 Tb0 2.552 . S
O48 C56 1.243 . S
O49 Tb0 2.413 1_554 S
O49 C64 1.256 1_554 S
O50 Tb11 2.546 . S
O50 C75 1.251 . S
O51 Tb0 2.362 1_454 S
O51 Tb11 2.610 . S
O51 C67 1.283 . S
O52 Tb0 2.421 . S
O52 C74 1.262 . S
O53 Tb11 2.320 1_556 S
O53 C74 1.260 1_455 S
O54 Tb11 2.552 . S
O54 C67 1.243 . S
O55 Tb11 2.413 1_556 S
O55 C75 1.256 1_556 S
C56 O45 1.283 . S
C56 O48 1.243 . S
C57 C59 1.383 1_556 S
C57 C61 1.393 . S
C57 C64 1.500 . S
C58 C59 1.400 1_556 S
C58 C60 1.384 . S
C59 C57 1.383 1_554 S
C59 C58 1.400 1_554 S
C59 H76 0.930 . S
C60 C58 1.384 . S
C60 C62 1.392 . S
C60 H77 0.931 . S
C61 C57 1.393 . S
C61 C62 1.401 . S
C61 H78 0.930 . S
C62 C60 1.392 . S
C62 C61 1.401 . S
C62 H79 0.930 . S
C63 O46 1.262 . S
C63 O47 1.261 1_455 S
C64 Tb0 2.833 . S
C64 O44 1.251 . S
C64 O49 1.256 1_556 S
C64 C57 1.500 . S
C65 H30 0.929 . S
C65 C43 1.444 . S
C65 C66 1.317 . S
C66 H28 0.930 1_556 S
C66 C34 1.432 1_556 S
C66 C65 1.317 . S
C67 O51 1.283 . S
C67 O54 1.243 . S
C68 C69 1.382 . S
C68 C72 1.393 . S
C68 C75 1.500 . S
C69 C68 1.382 . S
C69 C70 1.400 . S
C69 H80 0.930 1_554 S
C70 C69 1.400 . S
C70 C71 1.384 . S
C71 C70 1.384 . S
C71 C73 1.392 . S
C71 H81 0.931 . S
C72 C68 1.393 . S
C72 C73 1.401 . S
C72 H82 0.930 . S
C73 C71 1.392 . S
C73 C72 1.401 . S
C73 H83 0.930 . S
C74 O52 1.262 . S
C74 O53 1.260 1_655 S
C75 Tb11 2.833 . S
C75 O50 1.251 . S
C75 O55 1.256 1_554 S
C75 C68 1.500 . S
H76 C59 0.930 . S
H77 C60 0.931 . S
H78 C61 0.930 . S
H79 C62 0.930 . S
H80 C69 0.930 1_556 S
H81 C71 0.931 . S
H82 C72 0.930 . S
H83 C73 0.930 . S
Tb84 N115 2.660 1_545 S
Tb84 N122 2.600 1_545 S
Tb84 O128 2.546 . S
Tb84 O129 2.610 1_554 S
Tb84 O131 2.320 1_554 S
Tb84 O132 2.552 . S
Tb84 O133 2.413 . S
Tb84 O135 2.362 1_545 S
Tb84 O136 2.421 . S
Tb84 C148 2.833 . S
C85 C88 1.432 . S
C85 C89 1.414 . S
C85 N92 1.359 . S
C86 C88 1.417 . S
C86 C90 1.432 . S
C86 C98 1.410 1_556 S
C87 C89 1.444 . S
C87 C90 1.317 . S
C87 H110 0.929 . S
C88 C85 1.432 . S
C88 C86 1.417 . S
C88 N96 1.360 . S
C89 C85 1.414 . S
C89 C87 1.444 . S
C89 C94 1.385 . S
C90 C86 1.432 . S
C90 C87 1.317 . S
C90 H102 0.930 . S
C91 C93 1.392 1_545 S
C91 C94 1.370 . S
C91 H103 0.931 1_545 S
N92 C85 1.359 . S
N92 C93 1.327 1_545 S
N92 Tb95 2.600 1_545 S
C93 C91 1.392 1_565 S
C93 N92 1.327 1_565 S
C93 H100 0.930 . S
C94 C89 1.385 . S
C94 C91 1.370 . S
C94 H113 0.930 . S
Tb95 N92 2.600 1_565 S
Tb95 N96 2.660 1_565 S
Tb95 O129 2.362 1_565 S
Tb95 O130 2.421 . S
Tb95 O134 2.546 . S
Tb95 O135 2.610 1_556 S
Tb95 O137 2.320 1_556 S
Tb95 O138 2.552 . S
Tb95 O139 2.413 . S
Tb95 C159 2.833 . S
N96 C88 1.360 . S
N96 Tb95 2.660 1_545 S
N96 C97 1.305 1_556 S
C97 N96 1.305 1_554 S
C97 C99 1.407 . S
C97 H104 0.930 . S
C98 C86 1.410 1_554 S
C98 C99 1.345 . S
C98 H106 0.930 . S
C99 C97 1.407 . S
C99 C98 1.345 . S
C99 H101 0.930 . S
H100 C93 0.930 . S
H101 C99 0.930 . S
H102 C90 0.930 . S
H103 C91 0.931 1_565 S
H104 C97 0.930 . S
H105 C119 0.930 . S
H106 C98 0.930 . S
H107 C125 0.930 . S
H108 C116 0.930 . S
H109 C123 0.931 . S
H110 C87 0.929 . S
H111 C117 0.930 . S
H112 C150 0.930 . S
H113 C94 0.930 . S
H114 C149 0.929 . S
N115 Tb84 2.660 1_565 S
N115 C116 1.305 1_554 S
N115 C120 1.360 . S
C116 H108 0.930 . S
C116 N115 1.305 1_556 S
C116 C119 1.407 . S
C117 H111 0.930 . S
C117 C118 1.410 1_556 S
C117 C119 1.345 . S
C118 C117 1.410 1_554 S
C118 C120 1.417 . S
C118 C150 1.432 . S
C119 H105 0.930 . S
C119 C116 1.407 . S
C119 C117 1.345 . S
C120 N115 1.360 . S
C120 C118 1.417 . S
C120 C124 1.432 . S
H121 C126 0.930 . S
N122 Tb84 2.600 1_565 S
N122 C124 1.359 . S
N122 C125 1.327 1_565 S
C123 H109 0.931 . S
C123 C125 1.393 . S
C123 C126 1.369 1_545 S
C124 C120 1.432 . S
C124 N122 1.359 . S
C124 C127 1.414 . S
C125 H107 0.930 . S
C125 N122 1.327 1_545 S
C125 C123 1.393 . S
C126 H121 0.930 . S
C126 C123 1.369 1_565 S
C126 C127 1.385 . S
C127 C124 1.414 . S
C127 C126 1.385 . S
C127 C149 1.444 . S
O128 Tb84 2.546 . S
O128 C148 1.251 . S
O129 Tb84 2.610 1_556 S
O129 Tb95 2.362 1_545 S
O129 C140 1.283 . S
O130 Tb95 2.421 . S
O130 C147 1.262 1_565 S
O131 Tb84 2.320 1_556 S
O131 C147 1.260 . S
O132 Tb84 2.552 . S
O132 C140 1.243 1_554 S
O133 Tb84 2.413 . S
O133 C148 1.256 . S
O134 Tb95 2.546 . S
O134 C159 1.251 . S
O135 Tb84 2.362 1_565 S
O135 Tb95 2.610 1_554 S
O135 C151 1.283 . S
O136 Tb84 2.421 . S
O136 C158 1.262 . S
O137 Tb95 2.320 1_554 S
O137 C158 1.260 1_565 S
O138 Tb95 2.552 . S
O138 C151 1.243 1_556 S
O139 Tb95 2.413 . S
O139 C159 1.256 . S
C140 O129 1.283 . S
C140 O132 1.243 1_556 S
C141 C143 1.382 . S
C141 C145 1.393 . S
C141 C148 1.500 . S
C142 C143 1.400 . S
C142 C144 1.384 . S
C143 C141 1.382 . S
C143 C142 1.400 . S
C143 H160 0.930 1_554 S
C144 C142 1.384 . S
C144 C146 1.392 . S
C144 H161 0.931 . S
C145 C141 1.393 . S
C145 C146 1.401 . S
C145 H162 0.930 . S
C146 C144 1.392 . S
C146 C145 1.401 . S
C146 H163 0.930 . S
C147 O130 1.262 1_545 S
C147 O131 1.260 . S
C148 Tb84 2.833 . S
C148 O128 1.251 . S
C148 O133 1.256 . S
C148 C141 1.500 . S
C149 H114 0.929 . S
C149 C127 1.444 . S
C149 C150 1.317 . S
C150 H112 0.930 . S
C150 C118 1.432 . S
C150 C149 1.317 . S
C151 O135 1.283 . S
C151 O138 1.243 1_554 S
C152 C153 1.382 . S
C152 C156 1.393 . S
C152 C159 1.500 . S
C153 C152 1.382 . S
C153 C154 1.400 . S
C153 H164 0.930 1_556 S
C154 C153 1.400 . S
C154 C155 1.384 . S
C155 C154 1.384 . S
C155 C157 1.392 . S
C155 H165 0.931 . S
C156 C152 1.393 . S
C156 C157 1.401 . S
C156 H166 0.930 . S
C157 C155 1.392 . S
C157 C156 1.401 . S
C157 H167 0.930 . S
C158 O136 1.262 . S
C158 O137 1.260 1_545 S
C159 Tb95 2.833 . S
C159 O134 1.251 . S
C159 O139 1.256 . S
C159 C152 1.500 . S
H160 C143 0.930 1_556 S
H161 C144 0.931 . S
H162 C145 0.930 . S
H163 C146 0.930 . S
H164 C153 0.930 1_554 S
H165 C155 0.931 . S
H166 C156 0.930 . S
H167 C157 0.930 . S
Tb168 N199 2.660 . S
Tb168 N206 2.600 . S
Tb168 O212 2.546 . S
Tb168 O213 2.610 1_556 S
Tb168 O215 2.320 1_556 S
Tb168 O216 2.552 . S
Tb168 O217 2.413 . S
Tb168 O219 2.362 . S
Tb168 O220 2.421 . S
Tb168 C232 2.833 . S
C169 C172 1.432 . S
C169 C173 1.414 . S
C169 N176 1.359 . S
C170 C172 1.417 . S
C170 C174 1.432 . S
C170 C182 1.410 1_554 S
C171 C173 1.444 . S
C171 C174 1.317 . S
C171 H194 0.929 . S
C172 C169 1.432 . S
C172 C170 1.417 . S
C172 N180 1.360 . S
C173 C169 1.414 . S
C173 C171 1.444 . S
C173 C178 1.385 . S
C174 C170 1.432 . S
C174 C171 1.317 . S
C174 H186 0.930 . S
C175 C177 1.392 . S
C175 C178 1.370 . S
C175 H187 0.931 . S
N176 C169 1.359 . S
N176 C177 1.327 . S
N176 Tb179 2.600 . S
C177 C175 1.392 . S
C177 N176 1.327 . S
C177 H184 0.930 . S
C178 C173 1.385 . S
C178 C175 1.370 . S
C178 H197 0.930 . S
Tb179 N176 2.600 . S
Tb179 N180 2.660 . S
Tb179 O213 2.362 . S
Tb179 O214 2.421 . S
Tb179 O218 2.546 . S
Tb179 O219 2.610 1_554 S
Tb179 O221 2.320 1_554 S
Tb179 O222 2.552 . S
Tb179 O223 2.413 . S
Tb179 C243 2.833 . S
N180 C172 1.360 . S
N180 Tb179 2.660 . S
N180 C181 1.305 1_554 S
C181 N180 1.305 1_556 S
C181 C183 1.407 . S
C181 H188 0.930 . S
C182 C170 1.410 1_556 S
C182 C183 1.345 . S
C182 H190 0.930 . S
C183 C181 1.407 . S
C183 C182 1.345 . S
C183 H185 0.930 . S
H184 C177 0.930 . S
H185 C183 0.930 . S
H186 C174 0.930 . S
H187 C175 0.931 . S
H188 C181 0.930 . S
H189 C203 0.930 . S
H190 C182 0.930 . S
H191 C209 0.930 . S
H192 C200 0.930 . S
H193 C207 0.931 . S
H194 C171 0.929 . S
H195 C201 0.930 . S
H196 C234 0.930 . S
H197 C178 0.930 . S
H198 C233 0.929 . S
N199 Tb168 2.660 . S
N199 C200 1.305 1_556 S
N199 C204 1.360 . S
C200 H192 0.930 . S
C200 N199 1.305 1_554 S
C200 C203 1.407 . S
C201 H195 0.930 . S
C201 C202 1.410 1_554 S
C201 C203 1.345 . S
C202 C201 1.410 1_556 S
C202 C204 1.417 . S
C202 C234 1.432 . S
C203 H189 0.930 . S
C203 C200 1.407 . S
C203 C201 1.345 . S
C204 N199 1.360 . S
C204 C202 1.417 . S
C204 C208 1.432 . S
H205 C210 0.930 . S
N206 Tb168 2.600 . S
N206 C208 1.359 . S
N206 C209 1.327 . S
C207 H193 0.931 . S
C207 C209 1.392 . S
C207 C210 1.370 . S
C208 C204 1.432 . S
C208 N206 1.359 . S
C208 C211 1.414 . S
C209 H191 0.930 . S
C209 N206 1.327 . S
C209 C207 1.392 . S
C210 H205 0.930 . S
C210 C207 1.370 . S
C210 C211 1.385 . S
C211 C208 1.414 . S
C211 C210 1.385 . S
C211 C233 1.444 . S
O212 Tb168 2.546 . S
O212 C232 1.251 . S
O213 Tb168 2.610 1_554 S
O213 Tb179 2.362 . S
O213 C224 1.283 . S
O214 Tb179 2.421 . S
O214 C231 1.262 . S
O215 Tb168 2.320 1_554 S
O215 C231 1.260 . S
O216 Tb168 2.552 . S
O216 C224 1.243 1_556 S
O217 Tb168 2.413 . S
O217 C232 1.256 . S
O218 Tb179 2.546 . S
O218 C243 1.251 . S
O219 Tb168 2.362 . S
O219 Tb179 2.610 1_556 S
O219 C235 1.283 . S
O220 Tb168 2.421 . S
O220 C242 1.262 . S
O221 Tb179 2.320 1_556 S
O221 C242 1.260 . S
O222 Tb179 2.552 . S
O222 C235 1.243 1_554 S
O223 Tb179 2.413 . S
O223 C243 1.256 . S
C224 O213 1.283 . S
C224 O216 1.243 1_554 S
C225 C227 1.382 . S
C225 C229 1.393 . S
C225 C232 1.500 . S
C226 C227 1.400 . S
C226 C228 1.384 . S
C227 C225 1.382 . S
C227 C226 1.400 . S
C227 H244 0.930 1_556 S
C228 C226 1.384 . S
C228 C230 1.392 . S
C228 H245 0.931 . S
C229 C225 1.393 . S
C229 C230 1.401 . S
C229 H246 0.930 . S
C230 C228 1.392 . S
C230 C229 1.401 . S
C230 H247 0.930 . S
C231 O214 1.262 . S
C231 O215 1.260 . S
C232 Tb168 2.833 . S
C232 O212 1.251 . S
C232 O217 1.256 . S
C232 C225 1.500 . S
C233 H198 0.929 . S
C233 C211 1.444 . S
C233 C234 1.317 . S
C234 H196 0.930 . S
C234 C202 1.432 . S
C234 C233 1.317 . S
C235 O219 1.283 . S
C235 O222 1.243 1_556 S
C236 C237 1.382 . S
C236 C240 1.393 . S
C236 C243 1.500 . S
C237 C236 1.382 . S
C237 C238 1.400 . S
C237 H248 0.930 1_554 S
C238 C237 1.400 . S
C238 C239 1.384 . S
C239 C238 1.384 . S
C239 C241 1.392 . S
C239 H249 0.931 . S
C240 C236 1.393 . S
C240 C241 1.401 . S
C240 H250 0.930 . S
C241 C239 1.392 . S
C241 C240 1.401 . S
C241 H251 0.930 . S
C242 O220 1.262 . S
C242 O221 1.260 . S
C243 Tb179 2.833 . S
C243 O218 1.251 . S
C243 O223 1.256 . S
C243 C236 1.500 . S
H244 C227 0.930 1_554 S
H245 C228 0.931 . S
H246 C229 0.930 . S
H247 C230 0.930 . S
H248 C237 0.930 1_556 S
H249 C239 0.931 . S
H250 C240 0.930 . S
H251 C241 0.930 . S
H252 C264 0.928 1_655 S
H253 C266 0.930 . S
H254 C267 0.930 . S
H255 C271 0.959 . S
H256 C271 0.959 . S
H257 C271 0.961 . S
H258 C272 0.960 . S
H259 C272 0.961 . S
H260 C272 0.959 . S
H261 C275 0.929 . S
H262 C276 0.931 . S
H263 C278 0.930 . S
C264 H252 0.928 1_455 S
C264 C265 1.399 . S
C264 C269 1.401 . S
C265 C264 1.399 . S
C265 C266 1.379 . S
C266 H253 0.930 . S
C266 C265 1.379 . S
C266 C267 1.388 . S
C267 H254 0.930 . S
C267 C266 1.388 . S
C267 C268 1.390 . S
C268 C267 1.390 . S
C268 C269 1.394 . S
C268 C274 1.465 . S
C269 C264 1.401 . S
C269 C268 1.394 . S
C269 C270 1.516 . S
C270 C269 1.516 . S
C270 C271 1.502 1_455 S
C270 C272 1.561 . S
C270 C273 1.526 . S
C271 H255 0.959 . S
C271 H256 0.959 . S
C271 H257 0.961 . S
C271 C270 1.502 1_655 S
C272 H258 0.960 . S
C272 H259 0.961 . S
C272 H260 0.959 . S
C272 C270 1.561 . S
C273 C270 1.526 . S
C273 C274 1.396 . S
C273 C278 1.390 . S
C274 C268 1.465 . S
C274 C273 1.396 . S
C274 C275 1.399 . S
C275 H261 0.929 . S
C275 C274 1.399 . S
C275 C276 1.385 . S
C276 H262 0.931 . S
C276 C275 1.385 . S
C276 C277 1.389 . S
C277 C276 1.389 . S
C277 C278 1.387 . S
C278 H263 0.930 . S
C278 C273 1.390 . S
C278 C277 1.387 . S
H279 C291 0.930 . S
H280 C293 0.930 . S
H281 C294 0.930 . S
H282 C298 0.959 . S
H283 C298 0.959 . S
H284 C298 0.961 . S
H285 C299 0.960 . S
H286 C299 0.961 . S
H287 C299 0.959 . S
H288 C302 0.929 . S
H289 C303 0.931 . S
H290 C305 0.930 . S
C291 H279 0.930 . S
C291 C292 1.399 . S
C291 C296 1.399 . S
C292 C291 1.399 . S
C292 C293 1.376 1_565 S
C293 H280 0.930 . S
C293 C292 1.376 1_545 S
C293 C294 1.388 . S
C294 H281 0.930 . S
C294 C293 1.388 . S
C294 C295 1.390 . S
C295 C294 1.390 . S
C295 C296 1.394 1_545 S
C295 C301 1.465 . S
C296 C291 1.399 . S
C296 C295 1.394 1_565 S
C296 C297 1.516 . S
C297 C296 1.516 . S
C297 C298 1.502 . S
C297 C299 1.561 . S
C297 C300 1.526 . S
C298 H282 0.959 . S
C298 H283 0.959 . S
C298 H284 0.961 . S
C298 C297 1.502 . S
C299 H285 0.960 . S
C299 H286 0.961 . S
C299 H287 0.959 . S
C299 C297 1.561 . S
C300 C297 1.526 . S
C300 C301 1.396 1_565 S
C300 C305 1.390 . S
C301 C295 1.465 . S
C301 C300 1.396 1_545 S
C301 C302 1.399 . S
C302 H288 0.929 . S
C302 C301 1.399 . S
C302 C303 1.385 . S
C303 H289 0.931 . S
C303 C302 1.385 . S
C303 C304 1.389 . S
C304 C303 1.389 . S
C304 C305 1.387 1_545 S
C305 H290 0.930 . S
C305 C300 1.390 . S
C305 C304 1.387 1_565 S
H306 C318 0.930 . S
H307 C320 0.930 . S
H308 C321 0.930 . S
H309 C325 0.959 . S
H310 C325 0.959 . S
H311 C325 0.961 . S
H312 C326 0.960 . S
H313 C326 0.961 . S
H314 C326 0.959 . S
H315 C329 0.929 . S
H316 C330 0.931 . S
H317 C332 0.930 . S
C318 H306 0.930 . S
C318 C319 1.399 . S
C318 C323 1.399 . S
C319 C318 1.399 . S
C319 C320 1.376 . S
C320 H307 0.930 . S
C320 C319 1.376 . S
C320 C321 1.388 . S
C321 H308 0.930 . S
C321 C320 1.388 . S
C321 C322 1.390 . S
C322 C321 1.390 . S
C322 C323 1.394 . S
C322 C328 1.465 . S
C323 C318 1.399 . S
C323 C322 1.394 . S
C323 C324 1.516 . S
C324 C323 1.516 . S
C324 C325 1.502 . S
C324 C326 1.561 . S
C324 C327 1.526 . S
C325 H309 0.959 . S
C325 H310 0.959 . S
C325 H311 0.961 . S
C325 C324 1.502 . S
C326 H312 0.960 . S
C326 H313 0.961 . S
C326 H314 0.959 . S
C326 C324 1.561 . S
C327 C324 1.526 . S
C327 C328 1.396 . S
C327 C332 1.390 . S
C328 C322 1.465 . S
C328 C327 1.396 . S
C328 C329 1.399 . S
C329 H315 0.929 . S
C329 C328 1.399 . S
C329 C330 1.385 . S
C330 H316 0.931 . S
C330 C329 1.385 . S
C330 C331 1.389 . S
C331 C330 1.389 . S
C331 C332 1.387 . S
C332 H317 0.930 . S
C332 C327 1.390 . S
C332 C331 1.387 . S
H333 C345 0.930 . S
H334 C347 0.930 . S
H335 C348 0.930 . S
H336 C352 0.959 . S
H337 C352 0.959 . S
H338 C352 0.961 . S
H339 C353 0.960 . S
H340 C353 0.961 . S
H341 C353 0.959 . S
H342 C356 0.929 . S
H343 C357 0.931 . S
H344 C359 0.930 . S
C345 H333 0.930 . S
C345 C346 1.399 1_556 S
C345 C350 1.399 . S
C346 C345 1.399 1_554 S
C346 C347 1.376 . S
C347 H334 0.930 . S
C347 C346 1.376 . S
C347 C348 1.388 . S
C348 H335 0.930 . S
C348 C347 1.388 . S
C348 C349 1.390 . S
C349 C348 1.390 . S
C349 C350 1.394 1_554 S
C349 C355 1.465 . S
C350 C345 1.399 . S
C350 C349 1.394 1_556 S
C350 C351 1.516 . S
C351 C350 1.516 . S
C351 C352 1.502 . S
C351 C353 1.561 . S
C351 C354 1.526 . S
C352 H336 0.959 . S
C352 H337 0.959 . S
C352 H338 0.961 . S
C352 C351 1.502 . S
C353 H339 0.960 . S
C353 H340 0.961 . S
C353 H341 0.959 . S
C353 C351 1.561 . S
C354 C351 1.526 . S
C354 C355 1.396 1_556 S
C354 C359 1.390 . S
C355 C349 1.465 . S
C355 C354 1.396 1_554 S
C355 C356 1.399 . S
C356 H342 0.929 . S
C356 C355 1.399 . S
C356 C357 1.385 . S
C357 H343 0.931 . S
C357 C356 1.385 . S
C357 C358 1.389 . S
C358 C357 1.389 . S
C358 C359 1.387 1_554 S
C359 H344 0.930 . S
C359 C354 1.390 . S
C359 C358 1.387 1_556 S
H360 C372 0.930 . S
H361 C374 0.930 . S
H362 C375 0.930 . S
H363 C379 0.959 . S
H364 C379 0.959 . S
H365 C379 0.961 . S
H366 C380 0.960 . S
H367 C380 0.961 . S
H368 C380 0.959 . S
H369 C383 0.929 . S
H370 C384 0.931 . S
H371 C386 0.930 . S
C372 H360 0.930 . S
C372 C373 1.399 . S
C372 C377 1.399 . S
C373 C372 1.399 . S
C373 C374 1.376 . S
C374 H361 0.930 . S
C374 C373 1.376 . S
C374 C375 1.388 . S
C375 H362 0.930 . S
C375 C374 1.388 . S
C375 C376 1.390 . S
C376 C375 1.390 . S
C376 C377 1.394 . S
C376 C382 1.465 . S
C377 C372 1.399 . S
C377 C376 1.394 . S
C377 C378 1.516 . S
C378 C377 1.516 . S
C378 C379 1.502 . S
C378 C380 1.561 1_554 S
C378 C381 1.526 . S
C379 H363 0.959 . S
C379 H364 0.959 . S
C379 H365 0.961 . S
C379 C378 1.502 . S
C380 H366 0.960 . S
C380 H367 0.961 . S
C380 H368 0.959 . S
C380 C378 1.561 1_556 S
C381 C378 1.526 . S
C381 C382 1.396 . S
C381 C386 1.390 . S
C382 C376 1.465 . S
C382 C381 1.396 . S
C382 C383 1.399 . S
C383 H369 0.929 . S
C383 C382 1.399 . S
C383 C384 1.385 . S
C384 H370 0.931 . S
C384 C383 1.385 . S
C384 C385 1.389 . S
C385 C384 1.389 . S
C385 C386 1.387 . S
C386 H371 0.930 . S
C386 C381 1.390 . S
C386 C385 1.387 . S
H387 C399 0.930 . S
H388 C401 0.930 . S
H389 C402 0.930 . S
H390 C406 0.959 . S
H391 C406 0.959 . S
H392 C406 0.961 . S
H393 C407 0.960 . S
H394 C407 0.961 . S
H395 C407 0.959 . S
H396 C410 0.929 . S
H397 C411 0.931 . S
H398 C413 0.930 . S
C399 H387 0.930 . S
C399 C400 1.399 . S
C399 C404 1.399 . S
C400 C399 1.399 . S
C400 C401 1.376 1_554 S
C401 H388 0.930 . S
C401 C400 1.376 1_556 S
C401 C402 1.388 . S
C402 H389 0.930 . S
C402 C401 1.388 . S
C402 C403 1.390 . S
C403 C402 1.390 . S
C403 C404 1.394 1_556 S
C403 C409 1.465 . S
C404 C399 1.399 . S
C404 C403 1.394 1_554 S
C404 C405 1.516 . S
C405 C404 1.516 . S
C405 C406 1.502 . S
C405 C407 1.561 . S
C405 C408 1.526 . S
C406 H390 0.959 . S
C406 H391 0.959 . S
C406 H392 0.961 . S
C406 C405 1.502 . S
C407 H393 0.960 . S
C407 H394 0.961 . S
C407 H395 0.959 . S
C407 C405 1.561 . S
C408 C405 1.526 . S
C408 C409 1.396 1_554 S
C408 C413 1.390 . S
C409 C403 1.465 . S
C409 C408 1.396 1_556 S
C409 C410 1.399 . S
C410 H396 0.929 . S
C410 C409 1.399 . S
C410 C411 1.385 . S
C411 H397 0.931 . S
C411 C410 1.385 . S
C411 C412 1.389 1_556 S
C412 C411 1.389 1_554 S
C412 C413 1.387 . S
C413 H398 0.930 . S
C413 C408 1.390 . S
C413 C412 1.387 . S
H414 C426 0.930 . S
H415 C428 0.930 . S
H416 C429 0.930 . S
H417 C433 0.959 . S
H418 C433 0.959 . S
H419 C433 0.961 . S
H420 C434 0.960 . S
H421 C434 0.961 . S
H422 C434 0.959 . S
H423 C437 0.929 . S
H424 C438 0.931 . S
H425 C440 0.930 1_554 S
C426 H414 0.930 . S
C426 C427 1.399 . S
C426 C431 1.399 . S
C427 C426 1.399 . S
C427 C428 1.376 . S
C428 H415 0.930 . S
C428 C427 1.376 . S
C428 C429 1.388 . S
C429 H416 0.930 . S
C429 C428 1.388 . S
C429 C430 1.390 . S
C430 C429 1.390 . S
C430 C431 1.394 . S
C430 C436 1.465 . S
C431 C426 1.399 . S
C431 C430 1.394 . S
C431 C432 1.516 . S
C432 C431 1.516 . S
C432 C433 1.502 1_556 S
C432 C434 1.561 . S
C432 C435 1.526 . S
C433 H417 0.959 . S
C433 H418 0.959 . S
C433 H419 0.961 . S
C433 C432 1.502 1_554 S
C434 H420 0.960 . S
C434 H421 0.961 . S
C434 H422 0.959 . S
C434 C432 1.561 . S
C435 C432 1.526 . S
C435 C436 1.396 . S
C435 C440 1.390 . S
C436 C430 1.465 . S
C436 C435 1.396 . S
C436 C437 1.399 . S
C437 H423 0.929 . S
C437 C436 1.399 . S
C437 C438 1.385 . S
C438 H424 0.931 . S
C438 C437 1.385 . S
C438 C439 1.390 . S
C439 C438 1.390 . S
C439 C440 1.389 . S
C440 H425 0.930 1_556 S
C440 C435 1.390 . S
C440 C439 1.389 . S
H441 C453 0.930 . S
H442 C455 0.930 . S
H443 C456 0.930 . S
H444 C460 0.959 . S
H445 C460 0.959 . S
H446 C460 0.961 . S
H447 C461 0.960 . S
H448 C461 0.961 . S
H449 C461 0.959 . S
H450 C464 0.929 . S
H451 C465 0.931 . S
H452 C467 0.930 . S
C453 H441 0.930 . S
C453 C454 1.399 . S
C453 C458 1.399 . S
C454 C453 1.399 . S
C454 C455 1.376 1_556 S
C455 H442 0.930 . S
C455 C454 1.376 1_554 S
C455 C456 1.388 . S
C456 H443 0.930 . S
C456 C455 1.388 . S
C456 C457 1.390 . S
C457 C456 1.390 . S
C457 C458 1.394 1_554 S
C457 C463 1.465 . S
C458 C453 1.399 . S
C458 C457 1.394 1_556 S
C458 C459 1.516 . S
C459 C458 1.516 . S
C459 C460 1.502 . S
C459 C461 1.561 . S
C459 C462 1.526 . S
C460 H444 0.959 . S
C460 H445 0.959 . S
C460 H446 0.961 . S
C460 C459 1.502 . S
C461 H447 0.960 . S
C461 H448 0.961 . S
C461 H449 0.959 . S
C461 C459 1.561 . S
C462 C459 1.526 . S
C462 C463 1.396 1_556 S
C462 C467 1.390 . S
C463 C457 1.465 . S
C463 C462 1.396 1_554 S
C463 C464 1.399 . S
C464 H450 0.929 . S
C464 C463 1.399 . S
C464 C465 1.385 . S
C465 H451 0.931 . S
C465 C464 1.385 . S
C465 C466 1.389 1_554 S
C466 C465 1.389 1_556 S
C466 C467 1.387 . S
C467 H452 0.930 . S
C467 C462 1.390 . S
C467 C466 1.387 . S
H468 C480 0.930 . S
H469 C482 0.930 . S
H470 C483 0.930 . S
H471 C487 0.959 . S
H472 C487 0.959 . S
H473 C487 0.961 . S
H474 C488 0.960 . S
H475 C488 0.961 . S
H476 C488 0.959 . S
H477 C491 0.929 . S
H478 C492 0.931 . S
H479 C494 0.930 . S
C480 H468 0.930 . S
C480 C481 1.399 . S
C480 C485 1.399 . S
C481 C480 1.399 . S
C481 C482 1.376 1_556 S
C482 H469 0.930 . S
C482 C481 1.376 1_554 S
C482 C483 1.388 . S
C483 H470 0.930 . S
C483 C482 1.388 . S
C483 C484 1.390 . S
C484 C483 1.390 . S
C484 C485 1.394 1_554 S
C484 C490 1.465 . S
C485 C480 1.399 . S
C485 C484 1.394 1_556 S
C485 C486 1.516 . S
C486 C485 1.516 . S
C486 C487 1.502 . S
C486 C488 1.561 . S
C486 C489 1.526 . S
C487 H471 0.959 . S
C487 H472 0.959 . S
C487 H473 0.961 . S
C487 C486 1.502 . S
C488 H474 0.960 . S
C488 H475 0.961 . S
C488 H476 0.959 . S
C488 C486 1.561 . S
C489 C486 1.526 . S
C489 C490 1.396 1_556 S
C489 C494 1.390 . S
C490 C484 1.465 . S
C490 C489 1.396 1_554 S
C490 C491 1.399 . S
C491 H477 0.929 . S
C491 C490 1.399 . S
C491 C492 1.385 . S
C492 H478 0.931 . S
C492 C491 1.385 . S
C492 C493 1.389 1_554 S
C493 C492 1.389 1_556 S
C493 C494 1.387 . S
C494 H479 0.930 . S
C494 C489 1.390 . S
C494 C493 1.387 . S
C265 C74 1.488 1_455 S
C277 C63 1.477 . S
C292 C158 1.445 1_565 S
C304 C147 1.500 . S
C319 C242 1.526 . S
C331 C231 1.438 . S
C346 C67 1.523 . S
C358 C226 1.548 1_554 S
C373 C142 0.872 . S
C385 C58 0.838 1_554 S
C400 C151 2.275 . S
C412 C224 2.343 . S
C427 C56 1.515 . S
C439 C238 1.522 1_556 S
C454 C70 0.686 1_556 S
C466 C154 0.861 . S
C481 C235 2.343 . S
C493 C140 2.280 . S
