# Generated by pormake.
# Topology vby, (6)-cn, num edge types: 1
# Building blocks:
#     Node 0, Type 0, BuildingBlock: CUWYAW_clean_sbu_0, # of connection points: 6
#     Node 1, Type 0, BuildingBlock: CUWYAW_clean_sbu_0, # of connection points: 6
#     Node 2, Type 0, BuildingBlock: CUWYAW_clean_sbu_0, # of connection points: 6
#     Node 3, Type 0, BuildingBlock: CUWYAW_clean_sbu_0, # of connection points: 6
#     Node 4, Type 0, BuildingBlock: CUWYAW_clean_sbu_0, # of connection points: 6
#     Node 5, Type 0, BuildingBlock: CUWYAW_clean_sbu_0, # of connection points: 6
#     Node 6, Type 0, BuildingBlock: CUWYAW_clean_sbu_0, # of connection points: 6
#     Node 7, Type 0, BuildingBlock: CUWYAW_clean_sbu_0, # of connection points: 6
#     Edge 8, Type (0, 0), BuildingBlock: ZUJKAS_clean_linker_0, # of connection points: 2
#     Edge 9, Type (0, 0), BuildingBlock: ZUJKAS_clean_linker_0, # of connection points: 2
#     Edge 10, Type (0, 0), BuildingBlock: ZUJKAS_clean_linker_0, # of connection points: 2
#     Edge 11, Type (0, 0), BuildingBlock: ZUJKAS_clean_linker_0, # of connection points: 2
#     Edge 12, Type (0, 0), BuildingBlock: ZUJKAS_clean_linker_0, # of connection points: 2
#     Edge 13, Type (0, 0), BuildingBlock: ZUJKAS_clean_linker_0, # of connection points: 2
#     Edge 14, Type (0, 0), BuildingBlock: ZUJKAS_clean_linker_0, # of connection points: 2
#     Edge 15, Type (0, 0), BuildingBlock: ZUJKAS_clean_linker_0, # of connection points: 2
#     Edge 16, Type (0, 0), BuildingBlock: ZUJKAS_clean_linker_0, # of connection points: 2
#     Edge 17, Type (0, 0), BuildingBlock: ZUJKAS_clean_linker_0, # of connection points: 2
#     Edge 18, Type (0, 0), BuildingBlock: ZUJKAS_clean_linker_0, # of connection points: 2
#     Edge 19, Type (0, 0), BuildingBlock: ZUJKAS_clean_linker_0, # of connection points: 2
#     Edge 20, Type (0, 0), BuildingBlock: ZUJKAS_clean_linker_0, # of connection points: 2
#     Edge 21, Type (0, 0), BuildingBlock: ZUJKAS_clean_linker_0, # of connection points: 2
#     Edge 22, Type (0, 0), BuildingBlock: ZUJKAS_clean_linker_0, # of connection points: 2
#     Edge 23, Type (0, 0), BuildingBlock: ZUJKAS_clean_linker_0, # of connection points: 2
#     Edge 24, Type (0, 0), BuildingBlock: ZUJKAS_clean_linker_0, # of connection points: 2
#     Edge 25, Type (0, 0), BuildingBlock: ZUJKAS_clean_linker_0, # of connection points: 2
#     Edge 26, Type (0, 0), BuildingBlock: ZUJKAS_clean_linker_0, # of connection points: 2
#     Edge 27, Type (0, 0), BuildingBlock: ZUJKAS_clean_linker_0, # of connection points: 2
#     Edge 28, Type (0, 0), BuildingBlock: ZUJKAS_clean_linker_0, # of connection points: 2
#     Edge 29, Type (0, 0), BuildingBlock: ZUJKAS_clean_linker_0, # of connection points: 2
#     Edge 30, Type (0, 0), BuildingBlock: ZUJKAS_clean_linker_0, # of connection points: 2
#     Edge 31, Type (0, 0), BuildingBlock: ZUJKAS_clean_linker_0, # of connection points: 2
# Relax obj value: 0.464
# Max RMSD: 0.237
# Mean RMSD: 0.196
data_MOF--net-vby--node1-CUWYAW_clean_sbu_0--edge1-ZUJKAS_clean_linker_0
_symmetry_space_group_name_H-M    P1
_symmetry_Int_Tables_number       1
_symmetry_cell_setting            triclinic
loop_
_symmetry_equiv_pos_as_xyz
'x, y, z'
_cell_length_a     23.050537
_cell_length_b     91.423923
_cell_length_c     39.10318
_cell_angle_alpha  85.938433
_cell_angle_beta   89.109353
_cell_angle_gamma 79.161394
loop_
_atom_site_label
_atom_site_type_symbol
_atom_site_fract_x
_atom_site_fract_y
_atom_site_fract_z
_atom_type_partial_charge
C0 C 0.99763 0.43864 0.98016 0.0
Eu1 Eu 0.10857 0.43844 -0.00712 0.0
C2 C 0.96234 0.44275 0.94892 0.0
C3 C 0.90091 0.44446 0.95053 0.0
C4 C 0.86809 0.44602 0.92036 0.0
C5 C 0.89635 0.44584 0.88809 0.0
C6 C 0.95785 0.44485 0.88665 0.0
C7 C 0.9905 0.44336 0.91689 0.0
C8 C 0.15221 0.43269 0.05872 0.0
C9 C 0.12712 0.47464 -0.00761 0.0
C10 C 0.32688 0.44414 0.98853 0.0
Eu11 Eu 0.218 0.44039 -0.00934 0.0
C12 C 0.37485 0.43829 0.96475 0.0
C13 C 0.3856 0.44719 0.93539 0.0
C14 C 0.42422 0.44127 0.90999 0.0
C15 C 0.45393 0.42639 0.91362 0.0
C16 C 0.44526 0.41758 0.94351 0.0
C17 C 0.40567 0.42344 0.96878 0.0
C18 C 0.18354 0.43439 0.9267 0.0
C19 C 0.19955 0.40464 -0.00612 0.0
O20 O 0.03953 0.42702 0.97801 0.0
O21 O 1.01545 0.44939 -0.00525 0.0
O22 O 0.11839 0.42522 0.04441 0.0
O23 O 0.16241 0.44309 0.03785 0.0
O24 O 0.08759 0.4655 -0.00743 0.0
O25 O 0.18332 0.46714 -0.00784 0.0
O26 O 0.30832 0.43458 0.01059 0.0
O27 O 0.28332 0.45366 0.97419 0.0
O28 O 0.22924 0.42723 0.94307 0.0
O29 O 0.15576 0.44412 0.94526 0.0
O30 O 0.23545 0.41362 0.00355 0.0
O31 O 0.14659 0.41243 0.98345 0.0
H32 H 0.87859 0.44389 0.97505 0.0
H33 H 0.82089 0.44647 0.92244 0.0
H34 H 0.98083 0.44472 0.86225 0.0
H35 H 0.03807 0.44193 0.91542 0.0
H36 H 0.36294 0.45869 0.93159 0.0
H37 H 0.43145 0.44841 0.88762 0.0
H38 H 0.46841 0.40612 0.94703 0.0
H39 H 0.39839 0.41627 -0.00894 0.0
C40 C 0.0821 0.69028 -0.01027 0.0
Eu41 Eu 0.96864 0.69106 -0.00725 0.0
C42 C 0.11847 0.6949 0.01607 0.0
C43 C 0.09998 0.69441 0.05046 0.0
C44 C 0.13102 0.69975 0.07558 0.0
C45 C 0.18251 0.70534 0.06713 0.0
C46 C 0.20182 0.70548 0.03265 0.0
C47 C 0.16968 0.70044 0.00729 0.0
C48 C 0.93007 0.69462 0.05893 0.0
C49 C 0.9462 0.65448 -0.00686 0.0
C50 C 0.74893 0.69049 0.01445 0.0
Eu51 Eu 0.85917 0.68817 -0.00347 0.0
C52 C 0.71396 0.69974 0.03936 0.0
C53 C 0.65303 0.70414 0.0349 0.0
C54 C 0.61931 0.71255 0.05908 0.0
C55 C 0.64604 0.71665 0.0882 0.0
C56 C 0.70746 0.71252 0.09217 0.0
C57 C 0.74128 0.70425 0.06771 0.0
C58 C 0.89469 0.68607 0.92946 0.0
C59 C 0.88076 0.7247 -0.00722 0.0
O60 O 0.05877 0.67871 -0.00099 0.0
O61 O 0.04395 0.70093 0.97424 0.0
O62 O 0.95866 0.70329 0.04127 0.0
O63 O 0.92094 0.68442 0.04071 0.0
O64 O 0.9835 0.66411 0.98607 0.0
O65 O 0.89135 0.66151 0.00041 0.0
O66 O 0.791 0.68009 0.02742 0.0
O67 O 0.76601 0.69768 0.98731 0.0
O68 O 0.86312 0.67754 0.94574 0.0
O69 O 0.90674 0.69548 0.94903 0.0
O70 O 0.84447 0.71509 0.00208 0.0
O71 O 0.9348 0.71763 0.9839 0.0
H72 H 0.06118 0.68993 0.05806 0.0
H73 H 0.11408 0.6996 0.10155 0.0
H74 H 0.24208 0.70934 0.0252 0.0
H75 H 0.18475 0.70087 0.98092 0.0
H76 H 0.63139 0.70084 0.01308 0.0
H77 H 0.57186 0.71532 0.05567 0.0
H78 H 0.72907 0.71551 0.11436 0.0
H79 H 0.78863 0.70115 0.07123 0.0
C80 C 0.93931 0.66171 0.48381 0.0
Eu81 Eu 0.93239 0.6901 0.4917 0.0
C82 C 0.91716 0.64979 0.50396 0.0
C83 C 0.8729 0.65319 0.52883 0.0
C84 C 0.85919 0.64192 0.55191 0.0
C85 C 0.89037 0.62722 0.5507 0.0
C86 C 0.93303 0.62382 0.52492 0.0
C87 C 0.94629 0.63503 0.50174 0.0
C88 C 0.93004 0.698 0.5579 0.0
C89 C 0.77894 0.70503 0.49267 0.0
C90 C 0.90444 0.74689 0.50179 0.0
Eu91 Eu 0.90646 0.71892 0.49117 0.0
C92 C 0.95019 0.75619 0.499 0.0
C93 C 0.99831 0.75274 0.47663 0.0
C94 C 0.04397 0.76086 0.47585 0.0
C95 C 0.04245 0.7726 0.49742 0.0
C96 C 0.99365 0.77617 0.51941 0.0
C97 C 0.948 0.76799 0.52024 0.0
C98 C 0.90517 0.71018 0.42588 0.0
C99 C 0.05942 0.70426 0.48918 0.0
O100 O 0.90031 0.67212 0.46814 0.0
O101 O 0.97903 0.66715 0.4994 0.0
O102 O 0.97128 0.68857 0.54464 0.0
O103 O 0.89143 0.70331 0.53547 0.0
O104 O 0.82267 0.69289 0.48915 0.0
O105 O 0.80193 0.7174 0.49632 0.0
O106 O 0.91256 0.73618 0.52612 0.0
O107 O 0.8879 0.74245 0.47315 0.0
O108 O 0.86334 0.71951 0.43936 0.0
O109 O 0.94572 0.70544 0.44754 0.0
O110 O 1.01581 0.71618 0.49438 0.0
O111 O 1.03618 0.69209 0.484 0.0
H112 H 0.85068 0.66462 0.53124 0.0
H113 H 0.8262 0.64479 0.57157 0.0
H114 H 0.95702 0.61251 0.52315 0.0
H115 H 0.98094 0.63226 0.48294 0.0
H116 H 1.00097 0.74365 0.46001 0.0
H117 H 0.08045 0.75795 0.45829 0.0
H118 H 0.99146 0.78504 0.53661 0.0
H119 H 0.91148 0.77072 0.53788 0.0
C120 C 0.17747 0.37824 0.48054 0.0
Eu121 Eu 0.17785 0.40559 0.49551 0.0
C122 C 0.13107 0.36914 0.48348 0.0
C123 C 0.08434 0.37248 0.50682 0.0
C124 C 0.03738 0.36479 0.50745 0.0
C125 C 1.03632 0.35355 0.48485 0.0
C126 C 0.08388 0.35 0.462 0.0
C127 C 0.13075 0.35779 0.46124 0.0
C128 C 0.17388 0.41292 0.56221 0.0
C129 C 1.02514 0.42073 0.49807 0.0
C130 C 0.14741 0.4618 0.51771 0.0
Eu131 Eu 0.15288 0.43483 0.49849 0.0
C132 C 0.11073 0.47222 0.53956 0.0
C133 C 0.11497 0.48729 0.536 0.0
C134 C 0.08217 0.49738 0.55725 0.0
C135 C 0.04483 0.49256 0.58278 0.0
C136 C 0.04028 0.47739 0.58605 0.0
C137 C 0.07293 0.4673 0.56448 0.0
C138 C 0.15485 0.42849 0.43139 0.0
C139 C 0.30594 0.41945 0.49556 0.0
O140 O 0.16716 0.38967 0.45809 0.0
O141 O 0.19784 0.38163 0.50931 0.0
O142 O 0.21608 0.40351 0.54918 0.0
O143 O 0.136 0.41833 0.53944 0.0
O144 O 0.06854 0.4088 0.49258 0.0
O145 O 0.04834 0.43291 0.50374 0.0
O146 O 0.12326 0.45892 0.4896 0.0
O147 O 0.17839 0.44989 0.53353 0.0
O148 O 0.11497 0.43819 0.44525 0.0
O149 O 0.19298 0.42232 0.45363 0.0
O150 O 0.26257 0.4316 0.49966 0.0
O151 O 0.28271 0.40714 0.49133 0.0
H152 H 0.08367 0.3812 0.52425 0.0
H153 H 1.00184 0.36766 0.52565 0.0
H154 H 0.08407 0.34149 0.44407 0.0
H155 H 0.16615 0.35516 0.44284 0.0
H156 H 0.14372 0.49127 0.51674 0.0
H157 H 0.08549 0.50904 0.55327 0.0
H158 H 1.01195 0.47332 0.60537 0.0
H159 H 0.06891 0.45568 0.56728 0.0
C160 C 0.50518 0.93456 0.96962 0.0
Eu161 Eu 0.607 0.93914 -0.00989 0.0
C162 C 0.48046 0.9217 0.96053 0.0
C163 C 0.41989 0.92219 0.96467 0.0
C164 C 0.39538 0.90992 0.95778 0.0
C165 C 0.43105 0.89687 0.94655 0.0
C166 C 0.49193 0.89644 0.94212 0.0
C167 C 0.51646 0.90883 0.94889 0.0
C168 C 0.63399 0.93992 0.0579 0.0
C169 C 0.62972 0.97456 -0.00651 0.0
C170 C 0.83043 0.93998 0.01484 0.0
Eu171 Eu 0.72266 0.93956 -0.00268 0.0
C172 C 0.88107 0.92751 0.01546 0.0
C173 C 0.88135 0.91582 -0.00604 0.0
C174 C 0.92724 0.90347 -0.00445 0.0
C175 C 0.97392 0.90254 0.0187 0.0
C176 C 0.97316 0.91417 0.0406 0.0
C177 C 0.92693 0.92656 0.03904 0.0
C178 C 0.69707 0.93617 0.93056 0.0
C179 C 0.69983 0.90426 -0.00517 0.0
O180 O 0.51866 0.93479 0.0018 0.0
O181 O 0.54522 0.93854 0.94893 0.0
O182 O 0.58922 0.94842 0.0425 0.0
O183 O 0.66355 0.93165 0.03668 0.0
O184 O 0.5904 0.96606 0.98602 0.0
O185 O 0.68427 0.96642 0.00087 0.0
O186 O 0.78903 0.93834 0.03717 0.0
O187 O 0.8091 0.94484 0.9845 0.0
O188 O 0.74129 0.92836 0.94751 0.0
O189 O 0.66748 0.94555 0.94962 0.0
O190 O 0.73909 0.91275 0.00203 0.0
O191 O 0.64527 0.91231 0.98769 0.0
H192 H 0.3916 0.93199 0.97382 0.0
H193 H 0.34855 0.9105 0.96233 0.0
H194 H 0.52043 0.88655 0.93356 0.0
H195 H 0.56343 0.90829 0.94531 0.0
H196 H 0.84611 0.91623 0.97576 0.0
H197 H 0.92692 0.89485 0.97796 0.0
H198 H 1.00834 0.9137 0.05891 0.0
H199 H 0.92686 0.93533 0.05627 0.0
C200 C 0.56993 0.19568 0.95736 0.0
Eu201 Eu 0.472 0.19135 0.98685 0.0
C202 C 0.62144 0.18536 0.94545 0.0
C203 C 0.63361 0.17064 0.95978 0.0
C204 C 0.68848 0.16172 0.95479 0.0
C205 C 0.73232 0.16736 0.93528 0.0
C206 C 0.71631 0.18132 0.9167 0.0
C207 C 0.66139 0.19037 0.92223 0.0
C208 C 0.45267 0.18967 0.05637 0.0
C209 C 0.453 0.15538 -0.00634 0.0
C210 C 0.26489 0.1838 0.03164 0.0
Eu211 Eu 0.35881 0.18987 0.00068 0.0
C212 C 0.22265 0.18879 0.05908 0.0
C213 C 0.16523 0.19598 0.05025 0.0
C214 C 0.1197 0.19626 0.07416 0.0
C215 C 0.13064 0.18899 0.10714 0.0
C216 C 0.18967 0.18424 0.11759 0.0
C217 C 0.23539 0.18398 0.0936 0.0
C218 C 0.37548 0.19303 0.9315 0.0
C219 C 0.37843 0.22553 -0.00578 0.0
O220 O 0.52103 0.19629 0.94053 0.0
O221 O 0.56193 0.19508 -0.00947 0.0
O222 O 0.4972 0.18171 0.04134 0.0
O223 O 0.42033 0.19792 0.03414 0.0
O224 O 0.49157 0.16449 0.98586 0.0
O225 O 0.39832 0.16292 0.00115 0.0
O226 O 0.31863 0.17766 0.041 0.0
O227 O 0.26282 0.19208 0.00281 0.0
O228 O 0.33076 0.20024 0.94759 0.0
O229 O 0.40866 0.18417 0.95244 0.0
O230 O 0.34202 0.21638 0.00589 0.0
O231 O 0.43095 0.21813 0.98293 0.0
H232 H 0.60273 0.16647 0.97729 0.0
H233 H 0.69807 0.15108 0.96955 0.0
H234 H 0.74802 0.18582 0.90039 0.0
H235 H 0.65179 0.2016 0.91016 0.0
H236 H 0.15424 0.20001 0.02399 0.0
H237 H 0.07517 0.20031 0.0649 0.0
H238 H 0.19991 0.17903 0.14307 0.0
H239 H 0.27969 0.17871 0.10148 0.0
C240 C 0.44053 0.16663 0.4855 0.0
Eu241 Eu 0.43082 0.19513 0.49301 0.0
C242 C 0.41816 0.15733 0.46172 0.0
C243 C 0.41725 0.14246 0.47215 0.0
C244 C 0.40658 0.13265 0.44835 0.0
C245 C 0.39677 0.13756 0.41356 0.0
C246 C 0.39344 0.15279 0.4037 0.0
C247 C 0.4039 0.16264 0.42769 0.0
C248 C 0.43049 0.20518 0.55739 0.0
C249 C 0.27762 0.21005 0.48941 0.0
C250 C 0.40296 0.25221 0.49349 0.0
Eu251 Eu 0.40455 0.22389 0.48706 0.0
C252 C 0.44917 0.26134 0.48941 0.0
C253 C 0.49691 0.25743 0.46702 0.0
C254 C 0.54347 0.26527 0.46552 0.0
C255 C 0.54324 0.2772 0.48637 0.0
C256 C 0.49472 0.28128 0.50828 0.0
C257 C 0.44818 0.27338 0.50984 0.0
C258 C 0.40316 0.21317 0.42321 0.0
C259 C 0.55807 0.20924 0.49018 0.0
O260 O 0.47707 0.17474 0.47235 0.0
O261 O 0.40252 0.17385 0.50619 0.0
O262 O 0.4722 0.19548 0.54509 0.0
O263 O 0.39137 0.20967 0.53465 0.0
O264 O 0.32176 0.19803 0.48543 0.0
O265 O 0.30028 0.22243 0.49337 0.0
O266 O 0.41036 0.24215 0.51921 0.0
O267 O 0.38665 0.247 0.46572 0.0
O268 O 0.3621 0.22324 0.43508 0.0
O269 O 0.44277 0.20898 0.4457 0.0
O270 O 0.51394 0.22148 0.48884 0.0
O271 O 0.53564 0.19659 0.49162 0.0
H272 H 0.42816 0.13822 0.4983 0.0
H273 H 0.41057 0.12098 0.45688 0.0
H274 H 0.38559 0.15693 0.37722 0.0
H275 H 0.40394 0.17419 0.41929 0.0
H276 H 0.49871 0.24815 0.45103 0.0
H277 H 0.57973 0.26197 0.44804 0.0
H278 H 0.49348 0.2903 0.52493 0.0
H279 H 0.41202 0.27646 0.52752 0.0
C280 C 0.66786 0.87666 0.49052 0.0
Eu281 Eu 0.66645 0.90472 0.50017 0.0
C282 C 0.62158 0.86751 0.4931 0.0
C283 C 0.57363 0.87095 0.51559 0.0
C284 C 0.52735 0.86304 0.516 0.0
C285 C 0.52806 0.85151 0.49393 0.0
C286 C 0.5767 0.84793 0.47184 0.0
C287 C 0.62297 0.8559 0.47137 0.0
C288 C 0.66936 0.91362 0.56582 0.0
C289 C 0.5136 0.91916 0.50112 0.0
C290 C 0.63439 0.96163 0.50644 0.0
Eu291 Eu 0.64116 0.93317 0.49872 0.0
C292 C 0.63442 0.97476 0.48267 0.0
C293 C 0.61416 0.97506 0.44892 0.0
C294 C 0.60933 0.98807 0.42739 0.0
C295 C 0.62513 1.00094 0.43921 0.0
C296 C 0.6488 1.00026 0.47241 0.0
C297 C 0.65311 0.98728 0.49402 0.0
C298 C 0.64007 0.92565 0.432 0.0
C299 C 0.79431 0.91821 0.49902 0.0
O300 O 0.66101 0.88719 0.46581 0.0
O301 O 0.68366 0.88129 0.51911 0.0
O302 O 0.71047 0.90414 0.55213 0.0
O303 O 0.62885 0.9184 0.54417 0.0
O304 O 0.5574 0.90714 0.49754 0.0
O305 O 0.53661 0.93151 0.50462 0.0
O306 O 0.68348 0.95195 0.5088 0.0
O307 O 0.58875 0.95526 0.50482 0.0
O308 O 0.60101 0.93539 0.44597 0.0
O309 O 0.67906 0.91992 0.45407 0.0
O310 O 0.75055 0.93021 0.50362 0.0
O311 O 0.77114 0.90598 0.49433 0.0
H312 H 0.57154 0.87989 0.53259 0.0
H313 H 0.491 0.86595 0.53365 0.0
H314 H 0.5783 0.83922 0.45427 0.0
H315 H 0.65931 0.85319 0.45361 0.0
H316 H 0.60015 0.96541 0.43957 0.0
H317 H 0.59053 0.98823 0.40212 0.0
H318 H 0.66251 1.0099 0.48203 0.0
H319 H 0.66967 0.98714 0.51985 0.0
H320 H 0.43787 0.42744 0.84427 0.0
H321 H 0.51538 0.42303 0.80056 0.0
H322 H 0.64511 0.40939 0.88083 0.0
H323 H 0.56794 0.41302 0.92374 0.0
H324 H 0.58944 0.43863 0.78934 0.0
H325 H 0.72847 0.38447 0.81265 0.0
H326 H 0.65374 0.38784 0.82904 0.0
H327 H 0.71506 0.39028 0.85515 0.0
C328 C 0.48287 0.42294 0.85225 0.0
C329 C 0.49728 0.42064 0.88728 0.0
C330 C 0.52709 0.42039 0.8273 0.0
C331 C 0.58649 0.41571 0.83704 0.0
C332 C 0.59984 0.41244 0.87212 0.0
H333 H 0.78733 0.46156 0.87046 0.0
H334 H 0.71929 0.45399 0.83215 0.0
C335 C 0.55563 0.4147 0.89692 0.0
C336 C 0.63529 0.4175 0.81267 0.0
H337 H 0.78418 0.40679 0.81583 0.0
C338 C 0.63186 0.43133 0.79384 0.0
C339 C 0.69068 0.40776 0.81535 0.0
C340 C 0.69667 0.39169 0.82879 0.0
C341 C 0.68327 0.43689 0.78526 0.0
C342 C 0.73816 0.42877 0.79754 0.0
C343 C 0.74196 0.41361 0.80844 0.0
C344 C 0.78378 0.43658 0.81037 0.0
C345 C 0.67767 0.45207 0.76654 0.0
C346 C 0.84391 0.42987 0.81044 0.0
C347 C 0.88277 0.43392 0.83363 0.0
C348 C 0.86204 0.44483 0.85686 0.0
C349 C 0.80415 0.45288 0.85343 0.0
C350 C 0.76529 0.44871 0.83075 0.0
H351 H 0.64934 0.45265 0.74358 0.0
H352 H 0.65533 0.46076 0.78326 0.0
H353 H 0.72127 0.4546 0.75832 0.0
H354 H 0.85961 0.42056 0.79493 0.0
H355 H 0.92738 0.42755 0.8355 0.0
H356 H 0.24435 0.72826 0.06147 0.0
H357 H 0.31182 0.73436 0.10297 0.0
H358 H 0.26066 0.70197 0.17736 0.0
H359 H 0.19722 0.69472 0.13491 0.0
H360 H 0.312 0.74361 0.16867 0.0
H361 H 0.43091 0.68445 0.16608 0.0
H362 H 0.37032 0.69149 0.13735 0.0
H363 H 0.35684 0.68813 0.18241 0.0
C364 C 0.24766 0.72229 0.0865 0.0
C365 C 0.21664 0.71063 0.09424 0.0
C366 C 0.28539 0.72604 0.11055 0.0
C367 C 0.29227 0.7184 0.1431 0.0
C368 C 0.25715 0.70777 0.15215 0.0
H369 H 0.6514 0.70857 0.15687 0.0
H370 H 0.56852 0.71346 0.19671 0.0
C371 C 0.22036 0.70374 0.12779 0.0
C372 C 0.34306 0.72004 0.16431 0.0
H373 H 0.48551 0.70235 0.17545 0.0
C374 C 0.34967 0.7345 0.17135 0.0
C375 C 0.3917 0.70809 0.16939 0.0
C376 C 0.38755 0.69216 0.16344 0.0
C377 C 0.40572 0.73768 0.17737 0.0
C378 C 0.45579 0.72616 0.17562 0.0
C379 C 0.4474 0.71133 0.17566 0.0
C380 C 0.5129 0.72918 0.1615 0.0
C381 C 0.41136 0.75356 0.18208 0.0
C382 C 0.51166 0.73752 0.12979 0.0
C383 C 0.55904 0.73481 0.10713 0.0
C384 C 0.60821 0.72366 0.11574 0.0
C385 C 0.61363 0.71713 0.14945 0.0
C386 C 0.56624 0.71995 0.17233 0.0
H387 H 0.37719 0.75857 0.20036 0.0
H388 H 0.45569 0.7543 0.19176 0.0
H389 H 0.40327 0.76027 0.15725 0.0
H390 H 0.47132 0.74462 0.12034 0.0
H391 H 0.55445 0.74023 0.08151 0.0
H392 H 0.70529 0.68159 0.48512 0.0
H393 H 0.59798 0.68181 0.48454 0.0
H394 H 0.56509 0.72847 0.50037 0.0
H395 H 0.67127 0.72825 0.50003 0.0
H396 H 0.49288 0.68199 0.5054 0.0
H397 H 0.41904 0.74023 0.45706 0.0
H398 H 0.49542 0.7314 0.45433 0.0
H399 H 0.46516 0.73843 0.49419 0.0
C400 C 0.67644 0.6922 0.48828 0.0
C401 C 0.70489 0.70493 0.49239 0.0
C402 C 0.61124 0.69235 0.48797 0.0
C403 C 0.56388 0.70525 0.49144 0.0
C404 C 0.59286 0.71789 0.49602 0.0
H405 H 0.13271 0.72767 0.49787 0.0
H406 H 0.23997 0.72754 0.49832 0.0
C407 C 0.65784 0.71775 0.49632 0.0
C408 C 0.48916 0.70528 0.49087 0.0
H409 H 0.34513 0.7275 0.47625 0.0
C410 C 0.4622 0.69226 0.49868 0.0
C411 C 0.44058 0.71791 0.48243 0.0
C412 C 0.45589 0.7328 0.47121 0.0
C413 C 0.39748 0.69158 0.49917 0.0
C414 C 0.34893 0.70421 0.49075 0.0
C415 C 0.37585 0.71723 0.48295 0.0
C416 C 0.27426 0.70422 0.49018 0.0
C417 C 0.38211 0.6767 0.51032 0.0
C418 C 0.24546 0.69161 0.48492 0.0
C419 C 0.18053 0.6917 0.48463 0.0
C420 C 0.1334 0.70443 0.48932 0.0
C421 C 0.16167 0.71713 0.49412 0.0
C422 C 0.22681 0.71704 0.49435 0.0
H423 H 0.41878 0.66929 0.52468 0.0
H424 H 0.34229 0.67808 0.52697 0.0
H425 H 0.37328 0.67104 0.4873 0.0
H426 H 0.27339 0.68111 0.48002 0.0
H427 H 0.16721 0.68125 0.48036 0.0
H428 H 0.9152 0.44339 0.50768 0.0
H429 H 0.8086 0.44283 0.50721 0.0
H430 H 0.84883 0.39671 0.48615 0.0
H431 H 0.95443 0.39727 0.48743 0.0
H432 H 0.70603 0.4429 0.48522 0.0
H433 H 0.71771 0.38374 0.52616 0.0
H434 H 0.78025 0.39259 0.53095 0.0
H435 H 0.76356 0.3866 0.48977 0.0
C436 C 0.90304 0.43282 0.50312 0.0
C437 C 0.95133 0.42038 0.49789 0.0
C438 C 0.8383 0.43248 0.50278 0.0
C439 C 0.81121 0.41961 0.49745 0.0
C440 C 0.85992 0.40722 0.49183 0.0
H441 H 0.41557 0.39655 0.48668 0.0
H442 H 0.52234 0.39695 0.48705 0.0
C443 C 0.92456 0.40757 0.49214 0.0
C444 C 0.73666 0.41943 0.49728 0.0
H445 H 0.62562 0.39685 0.50826 0.0
C446 C 0.69051 0.43251 0.49058 0.0
C447 C 0.70681 0.40662 0.50387 0.0
C448 C 0.74407 0.39157 0.51339 0.0
C449 C 0.62488 0.43312 0.48953 0.0
C450 C 0.59495 0.42033 0.49624 0.0
C451 C 0.64113 0.40724 0.50292 0.0
C452 C 0.52031 0.42022 0.49612 0.0
C453 C 0.58777 0.44814 0.47965 0.0
C454 C 0.4718 0.43269 0.50143 0.0
C455 C 0.40708 0.43246 0.50109 0.0
C456 C 0.37991 0.41968 0.49572 0.0
C457 C 0.428 0.40712 0.49089 0.0
C458 C 0.49286 0.40737 0.49118 0.0
H459 H 0.61426 0.45589 0.46667 0.0
H460 H 0.55163 0.44706 0.46213 0.0
H461 H 0.56834 0.45324 0.50315 0.0
H462 H 0.48312 0.4432 0.50689 0.0
H463 H 0.37743 0.44282 0.50554 0.0
H464 H 0.08976 0.90445 0.02118 0.0
H465 H 0.17482 0.88503 0.01215 0.0
H466 H 0.06099 0.85296 0.0041 0.0
H467 H 0.97454 0.87262 0.01307 0.0
H468 H 0.21862 0.85663 0.04605 0.0
H469 H 0.1501 0.85096 0.91251 0.0
H470 H 0.11103 0.86626 0.93542 0.0
H471 H 0.10416 0.84746 0.94875 0.0
C472 C 0.08264 0.89322 0.01838 0.0
C473 C 1.02541 0.8901 0.01775 0.0
C474 C 0.13138 0.88209 0.01312 0.0
C475 C 0.12429 0.86754 0.00725 0.0
C476 C 0.06742 0.86414 0.00815 0.0
H477 H 0.47393 0.86742 0.96721 0.0
H478 H 0.41506 0.84774 0.97504 0.0
C479 C 1.01822 0.87537 0.01327 0.0
C480 C 0.17727 0.85684 -0.0028 0.0
H481 H 0.25078 0.85043 0.92209 0.0
C482 C 0.22603 0.85465 0.01916 0.0
C483 C 0.18635 0.85342 0.96262 0.0
C484 C 0.13533 0.85455 0.93829 0.0
C485 C 0.28359 0.85292 0.00591 0.0
C486 C 0.29162 0.85307 0.9698 0.0
C487 C 0.24419 0.85109 0.9495 0.0
C488 C 0.33544 0.86137 0.95308 0.0
C489 C 0.33322 0.85337 0.03029 0.0
C490 C 0.31318 0.87476 0.9337 0.0
C491 C 0.34732 0.88571 0.92796 0.0
C492 C 0.40405 0.88365 0.94205 0.0
C493 C 0.42967 0.86945 0.95679 0.0
C494 C 0.3957 0.85825 0.96175 0.0
H495 H 0.31915 0.85247 0.05755 0.0
H496 H 0.37029 0.84398 0.02644 0.0
H497 H 0.34938 0.86404 0.02562 0.0
H498 H 0.26727 0.87751 0.92594 0.0
H499 H 0.32723 0.89633 0.91527 0.0
H500 H 0.14046 0.16076 0.13854 0.0
H501 H 0.07045 0.14562 0.12378 0.0
H502 H 0.94224 0.18534 0.0969 0.0
H503 H 1.0113 0.2007 0.11326 0.0
H504 H 0.89558 0.15747 0.10487 0.0
H505 H 0.09124 0.15549 0.018 0.0
H506 H 0.10401 0.14822 0.06166 0.0
H507 H 0.07854 0.16788 0.0522 0.0
C508 C 0.09607 0.16643 0.13195 0.0
C509 C 0.08309 0.18199 0.12385 0.0
C510 C 0.05597 0.15761 0.12328 0.0
C511 C 1.00309 0.16441 0.10704 0.0
C512 C 0.98402 0.17988 0.10825 0.0
H513 H 0.82428 0.18236 0.93862 0.0
H514 H 0.90628 0.17478 0.97732 0.0
C515 C 1.02376 0.18868 0.11758 0.0
C516 C 0.9793 0.15692 0.07962 0.0
H517 H 1.0061 0.14997 -0.00448 0.0
C518 C 0.9202 0.15524 0.08134 0.0
C519 C 1.01165 0.15433 0.0487 0.0
C520 C 0.07475 0.15662 0.04471 0.0
C521 C 0.89124 0.15208 0.05221 0.0
C522 C 0.92263 0.15047 0.02084 0.0
C523 C 0.98284 0.15096 0.01983 0.0
C524 C 0.89043 0.15234 0.9881 0.0
C525 C 0.82585 0.15198 0.05426 0.0
C526 C 0.8589 0.14164 0.97834 0.0
C527 C 0.81225 0.14584 0.95511 0.0
C528 C 0.79548 0.16091 0.94278 0.0
C529 C 0.83435 0.17073 0.94792 0.0
C530 C 0.88149 0.16645 0.97047 0.0
H531 H 0.80775 0.15383 0.08043 0.0
H532 H 0.80154 0.16082 0.03608 0.0
H533 H 0.81739 0.14108 0.04681 0.0
H534 H 0.86645 0.13054 -0.00888 0.0
H535 H 0.78508 0.13775 0.95026 0.0
H536 H 0.16839 0.23325 0.49481 0.0
H537 H 0.06154 0.23299 0.49484 0.0
H538 H 0.09978 0.186 0.48275 0.0
H539 H 0.20583 0.1863 0.48332 0.0
H540 H 0.95893 0.23228 0.47166 0.0
H541 H 0.96812 0.17545 0.52919 0.0
H542 H 1.03129 0.18436 0.53015 0.0
H543 H 1.01409 0.17606 0.49189 0.0
C544 C 0.15578 0.22256 0.49233 0.0
C545 C 0.20369 0.20979 0.48929 0.0
C546 C 0.09089 0.22239 0.4923 0.0
C547 C 0.06323 0.20941 0.48966 0.0
C548 C 0.1115 0.19668 0.48625 0.0
H549 H 0.66799 0.18595 0.49018 0.0
H550 H 0.77455 0.18647 0.48985 0.0
C551 C 0.17632 0.19685 0.48614 0.0
C552 C 0.98857 0.2094 0.48993 0.0
H553 H 0.87663 0.18758 0.50779 0.0
C554 C 0.94292 0.2222 0.47991 0.0
C555 C 0.95818 0.197 0.50024 0.0
C556 C 0.99489 0.18244 0.51379 0.0
C557 C 0.87722 0.22287 0.47904 0.0
C558 C 0.84676 0.21046 0.48937 0.0
C559 C 0.8925 0.19767 0.49947 0.0
C560 C 0.77207 0.21036 0.48962 0.0
C561 C 0.84074 0.23746 0.46544 0.0
C562 C 0.72325 0.22317 0.49011 0.0
C563 C 0.65858 0.22285 0.49012 0.0
C564 C 0.63183 0.20965 0.49007 0.0
C565 C 0.68015 0.19682 0.4901 0.0
C566 C 0.74491 0.19715 0.48995 0.0
H567 H 0.86791 0.24466 0.45106 0.0
H568 H 0.80579 0.23553 0.44802 0.0
H569 H 0.81979 0.24363 0.48724 0.0
H570 H 0.7341 0.23408 0.49127 0.0
H571 H 0.62867 0.23349 0.49045 0.0
H572 H 0.90368 0.89527 0.49055 0.0
H573 H 1.01049 0.89559 0.49096 0.0
H574 H 0.97179 0.94193 0.51002 0.0
H575 H 0.86594 0.94161 0.50878 0.0
H576 H 0.11353 0.89556 0.51317 0.0
H577 H 0.10301 0.95418 0.46802 0.0
H578 H 0.05719 0.95199 0.50479 0.0
H579 H 0.04014 0.94535 0.46436 0.0
C580 C 0.91622 0.90584 0.49464 0.0
C581 C 0.86825 0.91844 0.49931 0.0
C582 C 0.98109 0.90604 0.49494 0.0
C583 C 1.00865 0.91888 0.49965 0.0
C584 C 0.96028 0.93142 0.50478 0.0
H585 H 0.40372 0.94207 0.50816 0.0
H586 H 0.29712 0.94154 0.5079 0.0
C587 C 0.89551 0.93122 0.5045 0.0
C588 C 0.08329 0.91894 0.49973 0.0
H589 H 0.19472 0.94132 0.48721 0.0
C590 C 0.12925 0.90589 0.50718 0.0
C591 C 0.1134 0.93165 0.49224 0.0
C592 C 0.07644 0.9466 0.48159 0.0
C593 C 0.19494 0.90522 0.50816 0.0
C594 C 0.22503 0.91794 0.50072 0.0
C595 C 0.17905 0.93099 0.49323 0.0
C596 C 0.29964 0.91807 0.50081 0.0
C597 C 0.23189 0.89025 0.51868 0.0
C598 C 0.34836 0.90552 0.49658 0.0
C599 C 0.41302 0.90583 0.49685 0.0
C600 C 0.4398 0.91879 0.50107 0.0
C601 C 0.39153 0.93139 0.50487 0.0
C602 C 0.32678 0.93106 0.50464 0.0
H603 H 0.20523 0.88258 0.53179 0.0
H604 H 0.25181 0.88499 0.49549 0.0
H605 H 0.26771 0.89146 0.53631 0.0
H606 H 0.33732 0.89487 0.49209 0.0
H607 H 0.44289 0.8954 0.49331 0.0
H608 H 0.05904 0.63388 0.98302 0.0
H609 H 0.08598 0.60642 0.98297 0.0
H610 H 0.9055 0.60317 0.00334 0.0
H611 H 0.87885 0.63044 0.00296 0.0
H612 H 0.10426 0.58004 0.01408 0.0
H613 H 0.90916 0.57078 0.94634 0.0
H614 H 0.92397 0.5893 0.94921 0.0
H615 H 0.88941 0.58035 0.9845 0.0
C616 C 1.02389 0.62761 0.9873 0.0
C617 C 0.96507 0.63597 -0.00731 0.0
C618 C 0.04002 0.61114 0.98735 0.0
C619 C 0.9994 0.60085 -0.00773 0.0
C620 C 0.94071 0.6093 -0.00199 0.0
H621 H 1.01368 0.49558 -0.00376 0.0
H622 H 0.98741 0.52301 -0.00349 0.0
C623 C 0.92468 0.62572 -0.00182 0.0
C624 C 1.01801 0.58221 -0.00795 0.0
H625 H 0.9705 0.54925 0.97089 0.0
C626 C 0.07385 0.57367 0.00423 0.0
C627 C 0.98225 0.57207 0.97981 0.0
C628 C 0.92311 0.5785 0.9639 0.0
C629 C 0.09244 0.55717 0.00545 0.0
C630 C 0.05683 0.54702 -0.00698 0.0
C631 C 1.00098 0.55558 0.98079 0.0
C632 C 0.07529 0.52834 -0.00722 0.0
C633 C 0.15112 0.55082 0.02197 0.0
C634 C 0.13455 0.51968 -0.00996 0.0
C635 C 0.15026 0.50325 -0.00987 0.0
C636 C 0.1089 0.49317 -0.00754 0.0
C637 C 0.04957 0.50172 -0.00547 0.0
C638 C 1.03385 0.51819 -0.00539 0.0
H639 H 0.16477 0.55866 0.03932 0.0
H640 H 0.14963 0.54017 0.03714 0.0
H641 H 0.18537 0.54879 0.00173 0.0
H642 H 0.17077 0.52561 0.98692 0.0
H643 H 0.19663 0.49838 0.98796 0.0
H644 H 0.92963 0.49414 0.60436 0.0
H645 H 0.86653 0.51538 0.62919 0.0
H646 H 1.01578 0.5375 0.63298 0.0
H647 H 0.07954 0.51598 0.61091 0.0
H648 H 0.93692 0.54616 0.6832 0.0
H649 H 0.81877 0.54898 0.55841 0.0
H650 H 0.81678 0.53334 0.58853 0.0
H651 H 0.88487 0.53533 0.56719 0.0
C652 C 0.94941 0.5033 0.61168 0.0
C653 C 1.00919 0.50363 0.60446 0.0
C654 C 0.9131 0.5155 0.62558 0.0
C655 C 0.93589 0.52828 0.63165 0.0
C656 C 0.99685 0.52787 0.62809 0.0
H657 H 0.97375 0.60823 0.58814 0.0
H658 H 0.96147 0.58582 0.62252 0.0
C659 C 1.0332 0.51562 0.6149 0.0
C660 C 0.89709 0.54298 0.63542 0.0
H661 H 0.81847 0.57103 0.58352 0.0
C662 C 0.90921 0.55153 0.662 0.0
C663 C 0.85966 0.54998 0.60819 0.0
C664 C 0.84415 0.54152 0.57887 0.0
C665 C 0.89205 0.56713 0.65954 0.0
C666 C 0.86235 0.57425 0.62978 0.0
C667 C 0.84211 0.56555 0.60609 0.0
C668 C 0.8661 0.58979 0.61781 0.0
C669 C 0.9102 0.5759 0.68744 0.0
C670 C 0.81657 0.59967 0.60392 0.0
C671 C 0.82378 0.61248 0.58368 0.0
C672 C 0.88066 0.61539 0.57675 0.0
C673 C 0.92952 0.60609 0.59273 0.0
C674 C 0.92234 0.59342 0.61299 0.0
H675 H 0.9069 0.56993 0.71295 0.0
H676 H 0.95706 0.57696 0.68358 0.0
H677 H 0.88253 0.58724 0.68744 0.0
H678 H 0.77288 0.59699 0.60692 0.0
H679 H 0.78544 0.61952 0.57164 0.0
H680 H 0.69239 0.99794 0.01445 0.0
H681 H 0.6643 1.02534 0.01476 0.0
H682 H 0.49707 1.0233 0.97076 0.0
H683 H 0.5241 0.99615 0.97213 0.0
H684 H 0.64541 1.05164 -0.00652 0.0
H685 H 0.40629 1.05591 0.00982 0.0
H686 H 0.45572 1.03824 0.01616 0.0
H687 H 0.43286 1.04579 0.97339 0.0
C688 C 0.64884 1.00302 0.00502 0.0
C689 C 0.61189 0.99316 -0.0064 0.0
C690 C 0.63191 1.01952 0.00511 0.0
C691 C 0.57574 1.02845 -0.00621 0.0
C692 C 0.53958 1.01847 0.98169 0.0
H693 H 0.39152 0.13064 0.01555 0.0
H694 H 0.41996 0.10325 0.01581 0.0
C695 C 0.55622 1.00203 0.98193 0.0
C696 C 0.55704 1.04721 -0.00592 0.0
H697 H 0.43836 0.07826 -0.00474 0.0
C698 C 0.59942 1.05703 -0.00613 0.0
C699 C 0.49763 1.05627 -0.00455 0.0
C700 C 0.44533 1.04861 -0.00093 0.0
C701 C 0.58618 0.0736 -0.0056 0.0
C702 C 0.52671 0.08271 -0.00597 0.0
C703 C 0.48436 0.07287 -0.00515 0.0
C704 C 0.50791 0.10149 -0.00622 0.0
C705 C 0.63864 0.08108 -0.0032 0.0
C706 C 0.5436 0.11226 0.98116 0.0
C707 C 0.52678 0.12869 0.98147 0.0
C708 C 0.47133 0.13679 -0.00629 0.0
C709 C 0.43485 0.12618 0.00566 0.0
C710 C 0.452 0.10969 0.00571 0.0
H711 H 0.6783 0.07315 0.00672 0.0
H712 H 0.64961 0.0855 0.97083 0.0
H713 H 0.6292 0.09038 0.01405 0.0
H714 H 0.58584 0.10814 0.96976 0.0
H715 H 0.55853 0.13521 0.97124 0.0
H716 H 0.3495 0.11218 0.41706 0.0
H717 H 0.39135 0.08969 0.38901 0.0
H718 H 0.49228 0.11485 0.32166 0.0
H719 H 0.45398 0.13724 0.35145 0.0
H720 H 0.41809 0.07621 0.32973 0.0
H721 H 0.61983 0.09171 0.38347 0.0
H722 H 0.54758 0.10251 0.39067 0.0
H723 H 0.58211 0.10367 0.34922 0.0
C724 C 0.37944 0.11303 0.39569 0.0
C725 C 0.40071 0.12629 0.38768 0.0
C726 C 0.40296 0.10017 0.37936 0.0
C727 C 0.44715 0.10047 0.35434 0.0
C728 C 0.45993 0.11429 0.34185 0.0
H729 H 0.63669 1.0064 0.36937 0.0
H730 H 0.60343 1.03017 0.33557 0.0
C731 C 0.43738 0.12714 0.35873 0.0
C732 C 0.48771 0.08626 0.34831 0.0
H733 H 0.6207 0.06674 0.3776 0.0
C734 C 0.46326 0.07417 0.33891 0.0
C735 C 0.54684 0.08363 0.36035 0.0
C736 C 0.57583 0.096 0.37166 0.0
C737 C 0.49362 1.05942 0.34515 0.0
C738 C 0.5499 1.05684 0.36058 0.0
C739 C 0.57734 0.0689 0.3658 0.0
C740 C 0.5734 1.04252 0.37967 0.0
C741 C 0.46293 1.04668 0.33885 0.0
C742 C 0.56826 1.04178 0.41547 0.0
C743 C 0.58674 1.02838 0.43468 0.0
C744 C 0.61113 1.01538 0.41849 0.0
C745 C 0.61762 1.01621 0.38254 0.0
C746 C 0.59881 1.02973 0.36321 0.0
H747 H 0.42009 1.05054 0.32541 0.0
H748 H 0.49168 1.03856 0.3232 0.0
H749 H 0.45469 1.04073 0.36369 0.0
H750 H 0.5484 1.05157 0.42856 0.0
H751 H 0.57981 1.02812 0.46215 0.0
H752 H 0.14061 0.38153 0.97007 0.0
H753 H 0.16941 0.35417 0.96998 0.0
H754 H 0.33162 0.35625 0.02002 0.0
H755 H 0.30381 0.38347 0.01868 0.0
H756 H 0.18592 0.32827 -0.00518 0.0
H757 H 0.42462 0.32453 0.97723 0.0
H758 H 0.39887 0.33426 0.01433 0.0
H759 H 0.37466 0.34217 0.97208 0.0
C760 C 0.18313 0.37644 0.98094 0.0
C761 C 0.21859 0.38622 -0.00592 0.0
C762 C 0.20039 0.36004 0.98098 0.0
C763 C 0.25541 0.35127 -0.00593 0.0
C764 C 0.29018 0.36114 0.00783 0.0
H765 H 0.43635 0.25002 0.96756 0.0
H766 H 0.40792 0.27743 0.96743 0.0
C767 C 0.27314 0.37752 0.00756 0.0
C768 C 0.27432 0.33269 -0.00616 0.0
H769 H 0.39348 0.30195 -0.00779 0.0
C770 C 0.23196 0.32291 -0.00575 0.0
C771 C 0.33388 0.32384 -0.0077 0.0
C772 C 0.38576 0.33166 0.9886 0.0
C773 C 0.24549 0.30641 -0.00621 0.0
C774 C 0.3051 0.29752 -0.00612 0.0
C775 C 0.34745 0.30732 -0.00719 0.0
C776 C 0.32394 0.27892 -0.00587 0.0
C777 C 0.19339 0.29877 -0.00825 0.0
C778 C 0.2902 0.26826 0.00934 0.0
C779 C 0.30697 0.2519 0.00909 0.0
C780 C 0.36023 0.24396 -0.00582 0.0
C781 C 0.3948 0.25449 0.97958 0.0
C782 C 0.37778 0.27091 0.9796 0.0
H783 H 0.15381 0.30654 0.98117 0.0
H784 H 0.20333 0.2892 0.97529 0.0
H785 H 0.18198 0.29469 0.01793 0.0
H786 H 0.24986 0.27245 0.0227 0.0
H787 H 0.27712 0.24532 0.02142 0.0
H788 H 0.63686 0.88101 0.97448 0.0
H789 H 0.66557 0.85363 0.97389 0.0
H790 H 0.83377 0.85591 0.01646 0.0
H791 H 0.80616 0.88305 0.01526 0.0
H792 H 0.68541 0.82757 -0.00374 0.0
H793 H 0.92306 0.82392 0.97424 0.0
H794 H 0.89929 0.83379 0.01143 0.0
H795 H 0.87291 0.84152 0.96939 0.0
C796 C 0.68069 0.87596 0.98352 0.0
C797 C 0.71784 0.88579 -0.00534 0.0
C798 C 0.69796 0.85953 0.98326 0.0
C799 C 0.75458 0.85075 -0.0059 0.0
C800 C 0.79093 0.8607 0.00592 0.0
H801 H 0.93838 0.74949 0.96811 0.0
H802 H 0.90903 0.77683 0.96821 0.0
C803 C 0.77399 0.87709 0.00581 0.0
C804 C 0.77361 0.83212 -0.00638 0.0
H805 H 0.89274 0.80141 -0.00977 0.0
C806 C 0.73142 0.82226 -0.0051 0.0
C807 C 0.83308 0.82327 -0.00897 0.0
C808 C 0.88481 0.83108 0.98609 0.0
C809 C 0.74497 0.80574 -0.00573 0.0
C810 C 0.8046 0.79684 -0.00655 0.0
C811 C 0.84673 0.80672 -0.00843 0.0
C812 C 0.82379 0.77818 -0.00652 0.0
C813 C 0.69272 0.79811 -0.00692 0.0
C814 C 0.78981 0.76735 0.00773 0.0
C815 C 0.80707 0.75097 0.00719 0.0
C816 C 0.86129 0.74315 -0.00697 0.0
C817 C 0.8961 0.75383 0.97948 0.0
C818 C 0.87848 0.77025 0.97966 0.0
H819 H 0.65245 0.80593 0.98362 0.0
H820 H 0.70155 0.78874 0.97602 0.0
H821 H 0.68311 0.79376 0.01935 0.0
H822 H 0.74883 0.77137 0.0206 0.0
H823 H 0.77691 0.7443 0.01878 0.0
H824 H 0.16098 0.76124 0.49451 0.0
H825 H 0.24259 0.77492 0.49393 0.0
H826 H 0.1183 0.81631 0.49955 0.0
H827 H 1.0363 0.80274 0.49991 0.0
H828 H 0.26511 0.79779 0.44679 0.0
H829 H 0.23271 0.81727 0.57828 0.0
H830 H 0.19846 0.8026 0.56384 0.0
H831 H 0.16815 0.82181 0.55165 0.0
C832 C 0.15093 0.77327 0.49542 0.0
C833 C 0.09208 0.7809 0.49731 0.0
C834 C 0.19765 0.78105 0.49526 0.0
C835 C 0.18652 0.79659 0.49718 0.0
C836 C 0.12789 0.80427 0.49881 0.0
H837 H 0.40983 0.86324 0.49705 0.0
H838 H 0.32725 0.8499 0.49705 0.0
C839 C 0.0811 0.7965 0.499 0.0
C840 C 0.23629 0.80478 0.4967 0.0
H841 H 0.30317 0.8271 0.54332 0.0
C842 C 0.27363 0.80416 0.46793 0.0
C843 C 0.24714 0.81309 0.5243 0.0
C844 C 0.20988 0.81367 0.55643 0.0
C845 C 0.32107 0.81182 0.46578 0.0
C846 C 0.33203 0.8201 0.49342 0.0
C847 C 0.2946 0.82075 0.52216 0.0
C848 C 0.38229 0.82813 0.49314 0.0
C849 C 0.35829 0.81124 0.43363 0.0
C850 C 0.44065 0.82028 0.49136 0.0
C851 C 0.48797 0.82786 0.49147 0.0
C852 C 0.47782 0.84343 0.49367 0.0
C853 C 0.41923 0.85123 0.49573 0.0
C854 C 0.37197 0.84364 0.49556 0.0
H855 H 0.33504 0.80785 0.41168 0.0
H856 H 0.37047 0.82224 0.42646 0.0
H857 H 0.39959 0.80292 0.43823 0.0
H858 H 0.44965 0.80826 0.49027 0.0
H859 H 0.53254 0.8215 0.49042 0.0
H860 H 0.91882 0.36587 0.48818 0.0
H861 H 0.83476 0.35305 0.4884 0.0
H862 H 0.95387 0.31091 0.48144 0.0
H863 H 0.03827 0.32367 0.48103 0.0
H864 H 0.86063 0.31456 0.43664 0.0
H865 H 0.77932 0.32776 0.56729 0.0
H866 H 0.78628 0.34389 0.53973 0.0
H867 H 0.85119 0.33041 0.55208 0.0
C868 C 0.92716 0.35385 0.48707 0.0
C869 C 0.98525 0.34576 0.48483 0.0
C870 C 0.87906 0.34654 0.48725 0.0
C871 C 0.88808 0.33099 0.48558 0.0
C872 C 0.94594 0.32291 0.48291 0.0
H873 H 0.66112 0.26504 0.48429 0.0
H874 H 0.74459 0.27807 0.48328 0.0
C875 C 0.99408 0.33022 0.48255 0.0
C876 C 0.8372 0.32316 0.48586 0.0
H877 H 0.71762 0.31665 0.53311 0.0
C878 C 0.82951 0.31495 0.45779 0.0
C879 C 0.79657 0.32372 0.51347 0.0
C880 C 0.8039 0.3318 0.54501 0.0
C881 C 0.78176 0.30748 0.45633 0.0
C882 C 0.74116 0.30805 0.48392 0.0
C883 C 0.74876 0.31627 0.51196 0.0
C884 C 0.69056 0.30013 0.48429 0.0
C885 C 0.77453 0.2993 0.42493 0.0
C886 C 0.63252 0.30817 0.48601 0.0
C887 C 0.58466 0.30075 0.48663 0.0
C888 C 0.594 0.28513 0.48569 0.0
C889 C 0.65233 0.2771 0.48434 0.0
C890 C 0.70012 0.28453 0.48377 0.0
H891 H 0.79973 0.30314 0.4027 0.0
H892 H 0.79138 0.28719 0.43055 0.0
H893 H 0.7273 0.30082 0.41763 0.0
H894 H 0.62423 0.32022 0.48656 0.0
H895 H 0.54033 0.30727 0.4874 0.0
H896 H 0.18934 0.45283 0.09918 0.0
H897 H 0.19664 0.45128 0.16205 0.0
H898 H 0.14431 0.40831 0.1669 0.0
H899 H 0.13517 0.41007 0.10452 0.0
H900 H 0.0849 0.42411 0.21236 0.0
H901 H 0.31833 0.4291 0.22772 0.0
H902 H 0.27709 0.44464 0.20254 0.0
H903 H 0.2883 0.42626 0.1869 0.0
C904 C 0.18001 0.44299 0.11368 0.0
C905 C 0.16159 0.43159 0.0967 0.0
C906 C 0.1846 0.44205 0.14975 0.0
C907 C 0.1719 0.42955 0.16972 0.0
C908 C 0.15447 0.41808 0.1525 0.0
H909 H 0.23954 0.41072 0.39326 0.0
H910 H 0.24557 0.41023 0.33025 0.0
C911 C 0.14933 0.41909 0.11665 0.0
C912 C 0.17319 0.42866 0.2084 0.0
H913 H 0.25821 0.43137 0.27817 0.0
C914 C 0.12311 0.42563 0.22658 0.0
C915 C 0.22311 0.43036 0.22754 0.0
C916 C 0.27997 0.43261 0.21021 0.0
C917 C 0.121 0.42455 0.26274 0.0
C918 C 0.16973 0.42698 0.28186 0.0
C919 C 0.22045 0.42966 0.26381 0.0
C920 C 0.16767 0.4273 0.32034 0.0
C921 C 0.06655 0.42056 0.28005 0.0
C922 C 0.12274 0.43717 0.3361 0.0
C923 C 0.11907 0.43737 0.37188 0.0
C924 C 0.16071 0.42786 0.39327 0.0
C925 C 0.20661 0.41815 0.37765 0.0
C926 C 0.21012 0.41791 0.34157 0.0
H927 H 0.04293 0.41434 0.26318 0.0
H928 H 0.07774 0.41365 0.3044 0.0
H929 H 1.03574 0.43095 0.28589 0.0
H930 H 0.09028 0.44483 0.32066 0.0
H931 H 0.08332 0.44509 0.38281 0.0
H932 H 0.98107 0.71121 0.1 0.0
H933 H 0.97574 0.71196 0.16203 0.0
H934 H 0.86203 0.67939 0.16696 0.0
H935 H 0.8691 0.67821 0.1042 0.0
H936 H 0.88631 0.72069 0.20197 0.0
H937 H 0.97798 0.66147 0.24113 0.0
H938 H 0.98168 0.66914 0.19752 0.0
H939 H 0.91445 0.66397 0.21386 0.0
C940 C 0.95517 0.7041 0.11416 0.0
C941 C 0.92569 0.6946 0.09703 0.0
C942 C 0.95206 0.70455 0.14983 0.0
C943 C 0.91906 0.69561 0.16964 0.0
C944 C 0.88904 0.68614 0.1526 0.0
H945 H 0.81604 0.71781 0.37945 0.0
H946 H 0.81803 0.71354 0.31842 0.0
C947 C 0.89276 0.68556 0.11666 0.0
C948 C 0.915 0.69684 0.20777 0.0
H949 H 0.94033 0.67702 0.28559 0.0
C950 C 0.89814 0.71109 0.22017 0.0
C951 C 0.93119 0.68442 0.23183 0.0
C952 C 0.95291 0.6689 0.22051 0.0
C953 C 0.89716 0.71331 0.25547 0.0
C954 C 0.91165 0.70087 0.27961 0.0
C955 C 0.92868 0.68659 0.26729 0.0
C956 C 0.90972 0.70254 0.31757 0.0
C957 C 0.88239 0.7291 0.26637 0.0
C958 C 0.95977 0.69719 0.33825 0.0
C959 C 0.95852 0.69942 0.37355 0.0
C960 C 0.9071 0.70709 0.3889 0.0
C961 C 0.85672 0.71205 0.36837 0.0
C962 C 0.85781 0.70969 0.33331 0.0
H963 H 0.89052 0.73732 0.24535 0.0
H964 H 0.83486 0.73177 0.27321 0.0
H965 H 0.90872 0.73054 0.289 0.0
H966 H 1.00036 0.69153 0.32694 0.0
H967 H 0.99789 0.69538 0.38864 0.0
H968 H 0.95138 0.7049 0.88912 0.0
H969 H 0.95411 0.70792 0.82629 0.0
H970 H 0.84655 0.67433 0.82061 0.0
H971 H 0.84543 0.67096 0.88321 0.0
H972 H 0.93116 0.66989 0.77544 0.0
H973 H 0.83034 0.72987 0.76129 0.0
H974 H 0.89581 0.7264 0.78706 0.0
H975 H 0.83195 0.71902 0.80175 0.0
C976 C 0.92833 0.69817 0.87444 0.0
C977 C 0.89796 0.68774 0.89127 0.0
C978 C 0.92937 0.70001 0.83843 0.0
C979 C 0.89933 0.69163 0.81834 0.0
C980 C 0.86977 0.68105 0.83525 0.0
H981 H 0.83077 0.70921 0.5956 0.0
H982 H 0.82069 0.70792 0.65858 0.0
C983 C 0.86915 0.67911 0.87117 0.0
C984 C 0.90025 0.69341 0.77984 0.0
H985 H 0.87378 0.71906 0.71085 0.0
C986 C 0.91828 0.68066 0.76144 0.0
C987 C 0.88242 0.70739 0.76112 0.0
C988 C 0.85844 0.72142 0.77878 0.0
C989 C 0.92032 0.6815 0.72533 0.0
C990 C 0.9055 0.69557 0.70668 0.0
C991 C 0.88594 0.70829 0.72495 0.0
C992 C 0.91156 0.69723 0.6684 0.0
C993 C 0.93746 0.66718 0.70755 0.0
C994 C 0.96619 0.69213 0.65277 0.0
C995 C 0.97179 0.69276 0.61703 0.0
C996 C 0.9232 0.69874 0.59575 0.0
C997 C 0.86899 0.70451 0.61125 0.0
C998 C 0.86325 0.70375 0.64726 0.0
H999 H 0.92878 0.65742 0.72405 0.0
H1000 H 0.91306 0.66768 0.6831 0.0
H1001 H 0.98547 0.66529 0.70177 0.0
H1002 H 1.00465 0.68747 0.66826 0.0
H1003 H 1.01441 0.68839 0.606 0.0
H1004 H 0.08605 0.43146 0.59564 0.0
H1005 H 0.08232 0.43698 0.65639 0.0
H1006 H 0.24594 0.4058 0.67411 0.0
H1007 H 0.25105 0.40085 0.61345 0.0
H1008 H 0.07558 0.42096 0.7155 0.0
H1009 H 0.2873 0.44084 0.71606 0.0
H1010 H 0.25304 0.43761 0.67686 0.0
H1011 H 0.29751 0.42234 0.7018 0.0
C1012 C 0.1216 0.42596 0.61243 0.0
C1013 C 0.1694 0.41593 0.5994 0.0
C1014 C 0.11928 0.42904 0.64731 0.0
C1015 C 0.16464 0.42213 0.67011 0.0
C1016 C 0.21129 0.41173 0.6572 0.0
H1017 H 0.24244 0.41337 0.88655 0.0
H1018 H 0.23333 0.41147 0.82488 0.0
C1019 C 0.2139 0.40878 0.62238 0.0
C1020 C 0.16323 0.42555 0.70734 0.0
H1021 H 0.24821 0.43447 0.77113 0.0
C1022 C 0.11311 0.4241 0.72749 0.0
C1023 C 0.21174 0.42983 0.72339 0.0
C1024 C 0.2651 0.43291 0.70331 0.0
C1025 C 0.11135 0.42614 0.76307 0.0
C1026 C 0.16095 0.42974 0.77922 0.0
C1027 C 0.21032 0.43158 0.75898 0.0
C1028 C 0.16401 0.43091 0.81725 0.0
C1029 C 0.05724 0.42392 0.78349 0.0
C1030 C 0.12835 0.44256 0.8339 0.0
C1031 C 0.13402 0.44379 0.86942 0.0
C1032 C 0.17498 0.43329 0.88914 0.0
C1033 C 0.21024 0.42164 0.87233 0.0
C1034 C 0.20506 0.42052 0.83695 0.0
H1035 H 1.02595 0.41911 0.76835 0.0
H1036 H 0.07006 0.41646 0.80688 0.0
H1037 H 1.03394 0.43484 0.79188 0.0
H1038 H 0.09697 0.45089 0.81931 0.0
H1039 H 0.10707 0.45309 0.88128 0.0
H1040 H 0.71955 0.9207 0.09628 0.0
H1041 H 0.72642 0.91666 0.15914 0.0
H1042 H 0.56978 0.95021 0.16923 0.0
H1043 H 0.56264 0.95422 0.10675 0.0
H1044 H 0.73663 0.93592 0.2113 0.0
H1045 H 0.5274 0.91476 0.22703 0.0
H1046 H 0.56301 0.91653 0.1859 0.0
H1047 H 0.51883 0.93263 0.20355 0.0
C1048 C 0.68657 0.92722 0.1119 0.0
C1049 C 0.64023 0.93772 0.09623 0.0
C1050 C 0.69058 0.92491 0.14796 0.0
C1051 C 0.64804 0.93291 0.16935 0.0
C1052 C 0.60256 0.94361 0.15364 0.0
H1053 H 0.56312 0.94091 0.38425 0.0
H1054 H 0.56989 0.94163 0.32196 0.0
C1055 C 0.59869 0.94597 0.11772 0.0
C1056 C 0.65076 0.93015 0.20792 0.0
H1057 H 0.56996 0.92092 0.27784 0.0
C1058 C 0.7004 0.9325 0.22582 0.0
C1059 C 0.60381 0.92562 0.22725 0.0
C1060 C 0.55048 0.92209 0.21 0.0
C1061 C 0.70315 0.93111 0.26214 0.0
C1062 C 0.6555 0.92691 0.28151 0.0
C1063 C 0.60661 0.92419 0.26345 0.0
C1064 C 0.65323 0.92619 0.3203 0.0
C1065 C 0.75612 0.9348 0.27942 0.0
C1066 C 0.69749 0.91712 0.34105 0.0
C1067 C 0.69379 0.91672 0.37728 0.0
C1068 C 0.64553 0.92531 0.39367 0.0
C1069 C 0.60113 0.93415 0.3728 0.0
C1070 C 0.60488 0.93457 0.33689 0.0
H1071 H 0.78131 0.94136 0.26173 0.0
H1072 H 0.74265 0.94124 0.3022 0.0
H1073 H 0.78617 0.92428 0.2881 0.0
H1074 H 0.73472 0.91022 0.32929 0.0
H1075 H 0.72865 0.90972 0.3924 0.0
H1076 H 0.36325 0.20666 0.09145 0.0
H1077 H 0.35492 0.20982 0.15318 0.0
H1078 H 0.52089 0.17951 0.16971 0.0
H1079 H 0.52882 0.17612 0.10791 0.0
H1080 H 0.44129 0.17417 0.21916 0.0
H1081 H 0.44059 0.23488 0.20756 0.0
H1082 H 0.38292 0.2298 0.1833 0.0
H1083 H 0.45895 0.2233 0.17202 0.0
C1084 C 0.39812 0.20068 0.10817 0.0
C1085 C 0.44704 0.19124 0.09441 0.0
C1086 C 0.39351 0.20258 0.14365 0.0
C1087 C 0.4379 0.1952 0.16658 0.0
C1088 C 0.48609 0.18547 0.15292 0.0
H1089 H 0.49165 0.19409 0.39142 0.0
H1090 H 0.50111 0.18926 0.33036 0.0
C1091 C 0.49066 0.18354 0.11741 0.0
C1092 C 0.43394 0.19758 0.20458 0.0
H1093 H 0.41768 0.22462 0.26247 0.0
C1094 C 0.43648 0.18521 0.22854 0.0
C1095 C 0.42769 0.21195 0.2174 0.0
C1096 C 0.42796 0.22573 0.19379 0.0
C1097 C 0.43141 0.18683 0.26433 0.0
C1098 C 0.42472 0.20122 0.27709 0.0
C1099 C 0.42256 0.21356 0.25313 0.0
C1100 C 0.419 0.20383 0.31493 0.0
C1101 C 0.43144 0.17307 0.28807 0.0
C1102 C 0.37047 0.21387 0.32724 0.0
C1103 C 0.36524 0.21671 0.36221 0.0
C1104 C 0.40864 0.20972 0.3861 0.0
C1105 C 0.45726 0.19967 0.3739 0.0
C1106 C 0.46245 0.1968 0.33885 0.0
H1107 H 0.4199 0.16379 0.27433 0.0
H1108 H 0.47628 0.16922 0.29903 0.0
H1109 H 0.3998 0.17546 0.30957 0.0
H1110 H 0.33624 0.21953 0.30971 0.0
H1111 H 0.32716 0.22451 0.37049 0.0
H1112 H 0.33832 0.21729 0.88746 0.0
H1113 H 0.34813 0.21972 0.82516 0.0
H1114 H 0.43425 0.17351 0.82595 0.0
H1115 H 0.42897 0.17154 0.88887 0.0
H1116 H 0.48354 0.18623 0.78009 0.0
H1117 H 0.24934 0.20983 0.75488 0.0
H1118 H 0.27967 0.22203 0.78035 0.0
H1119 H 0.27548 0.20335 0.79741 0.0
C1120 C 0.35939 0.20764 0.87434 0.0
C1121 C 0.38236 0.19418 0.89326 0.0
C1122 C 0.36429 0.20897 0.83839 0.0
C1123 C 0.38988 0.19667 0.81984 0.0
C1124 C 0.41372 0.18323 0.83898 0.0
H1125 H 0.33346 0.20038 0.5954 0.0
H1126 H 0.3247 0.19772 0.65808 0.0
C1127 C 0.41061 0.18206 0.87515 0.0
C1128 C 0.39334 0.19796 0.78092 0.0
H1129 H 0.31573 0.21254 0.70816 0.0
C1130 C 0.44637 0.19186 0.76453 0.0
C1131 C 0.34498 0.20495 0.75965 0.0
C1132 C 0.28407 0.21023 0.77401 0.0
C1133 C 0.45271 0.19272 0.7284 0.0
C1134 C 0.40587 0.20075 0.70731 0.0
C1135 C 0.3525 0.20663 0.72367 0.0
C1136 C 0.41056 0.20288 0.66851 0.0
C1137 C 0.50914 0.18437 0.71353 0.0
C1138 C 0.46075 0.2071 0.65245 0.0
C1139 C 0.46645 0.20813 0.61649 0.0
C1140 C 0.42089 0.20576 0.59526 0.0
C1141 C 0.36917 0.20243 0.61098 0.0
C1142 C 0.3643 0.20088 0.64703 0.0
H1143 H 0.52928 0.1747 0.73102 0.0
H1144 H 0.50152 0.18016 0.68837 0.0
H1145 H 0.54163 0.19191 0.71024 0.0
H1146 H 0.49615 0.20951 0.66767 0.0
H1147 H 0.50678 0.21077 0.60521 0.0
H1148 H 0.75056 0.90215 0.61572 0.0
H1149 H 0.74852 0.90718 0.67644 0.0
H1150 H 0.5826 0.93768 0.66128 0.0
H1151 H 0.58404 0.93243 0.60046 0.0
H1152 H 0.7502 0.9323 0.70746 0.0
H1153 H 0.54226 0.91321 0.74484 0.0
H1154 H 0.57819 0.9094 0.70425 0.0
H1155 H 0.53377 0.92744 0.71029 0.0
C1156 C 0.71334 0.90986 0.62529 0.0
C1157 C 0.66726 0.91678 0.60304 0.0
C1158 C 0.71225 0.91276 0.66019 0.0
C1159 C 0.66494 0.92265 0.67412 0.0
C1160 C 0.61901 0.92971 0.6518 0.0
H1161 H 0.60913 0.95193 0.88693 0.0
H1162 H 0.59895 0.9496 0.82487 0.0
C1163 C 0.62005 0.92678 0.61681 0.0
C1164 C 0.66518 0.92582 0.71157 0.0
H1165 H 0.58723 0.92472 0.78706 0.0
C1166 C 0.71442 0.93061 0.72473 0.0
C1167 C 0.61859 0.92377 0.73459 0.0
C1168 C 0.56543 0.91804 0.72295 0.0
C1169 C 0.71844 0.93336 0.75966 0.0
C1170 C 0.67243 0.93105 0.78279 0.0
C1171 C 0.62258 0.92655 0.7696 0.0
C1172 C 0.67709 0.93246 0.82085 0.0
C1173 C 0.77203 0.93887 0.77141 0.0
C1174 C 0.72353 0.92348 0.83978 0.0
C1175 C 0.72927 0.92479 0.87508 0.0
C1176 C 0.68873 0.93511 0.89284 0.0
C1177 C 0.64145 0.94396 0.87414 0.0
C1178 C 0.63555 0.94259 0.8386 0.0
H1179 H 0.79376 0.9443 0.74976 0.0
H1180 H 0.7602 0.94696 0.79142 0.0
H1181 H 0.80461 0.92925 0.78244 0.0
H1182 H 0.75551 0.91533 0.82724 0.0
H1183 H 0.76592 0.91765 0.88851 0.0
loop_
_geom_bond_atom_site_label_1
_geom_bond_atom_site_label_2
_geom_bond_distance
_geom_bond_site_symmetry_2
_ccdc_geom_bond_type
C0 Eu1 2.835 1_655 S
C0 C2 1.500 . S
C0 O20 1.257 1_554 S
C0 O21 1.260 . S
Eu1 C0 2.835 1_455 S
Eu1 O20 2.473 1_454 S
Eu1 O21 2.480 1_455 S
Eu1 O22 2.430 . S
Eu1 O23 2.670 . S
Eu1 O24 2.393 . S
Eu1 O29 2.355 1_554 S
Eu1 O31 2.374 . S
C2 C0 1.500 . S
C2 C3 1.377 . S
C2 C7 1.377 1_554 S
C3 C2 1.377 . S
C3 C4 1.395 . S
C3 H32 0.931 . S
C4 C3 1.395 . S
C4 C5 1.383 1_554 S
C4 H33 0.931 . S
C5 C4 1.383 1_556 S
C5 C6 1.394 . S
C6 C5 1.394 . S
C6 C7 1.378 . S
C6 H34 0.931 . S
C7 C2 1.377 1_556 S
C7 C6 1.378 . S
C7 H35 0.931 . S
C8 O22 1.259 . S
C8 O23 1.270 . S
C9 O24 1.262 . S
C9 O25 1.251 . S
C10 Eu11 2.835 1_554 S
C10 C12 1.500 . S
C10 O26 1.257 . S
C10 O27 1.260 1_554 S
Eu11 C10 2.835 1_556 S
Eu11 O23 2.355 1_556 S
Eu11 O25 2.374 1_556 S
Eu11 O26 2.473 1_556 S
Eu11 O27 2.480 . S
Eu11 O28 2.430 . S
Eu11 O29 2.670 . S
Eu11 O30 2.394 . S
C12 C10 1.500 . S
C12 C13 1.377 1_554 S
C12 C17 1.377 . S
C13 C12 1.377 1_556 S
C13 C14 1.395 . S
C13 H36 0.931 . S
C14 C13 1.395 . S
C14 C15 1.383 1_556 S
C14 H37 0.931 . S
C15 C14 1.383 1_554 S
C15 C16 1.394 . S
C16 C15 1.394 . S
C16 C17 1.378 . S
C16 H38 0.931 . S
C17 C12 1.377 . S
C17 C16 1.378 . S
C17 H39 0.931 . S
C18 O28 1.259 . S
C18 O29 1.270 . S
C19 O30 1.251 1_554 S
C19 O31 1.251 . S
O20 C0 1.257 1_556 S
O20 Eu1 2.473 1_656 S
O21 C0 1.260 . S
O21 Eu1 2.480 1_655 S
O22 Eu1 2.430 . S
O22 C8 1.259 . S
O23 Eu1 2.670 . S
O23 C8 1.270 . S
O23 Eu11 2.355 1_554 S
O24 Eu1 2.393 . S
O24 C9 1.262 . S
O25 C9 1.251 . S
O25 Eu11 2.374 1_554 S
O26 C10 1.257 . S
O26 Eu11 2.473 1_554 S
O27 C10 1.260 1_556 S
O27 Eu11 2.480 . S
O28 Eu11 2.430 . S
O28 C18 1.259 . S
O29 Eu1 2.355 1_556 S
O29 Eu11 2.670 . S
O29 C18 1.270 . S
O30 Eu11 2.394 . S
O30 C19 1.251 1_556 S
O31 Eu1 2.374 . S
O31 C19 1.251 . S
H32 C3 0.931 . S
H33 C4 0.931 . S
H34 C6 0.931 . S
H35 C7 0.931 . S
H36 C13 0.931 . S
H37 C14 0.931 . S
H38 C16 0.931 . S
H39 C17 0.931 . S
C40 Eu41 2.835 1_455 S
C40 C42 1.500 1_554 S
C40 O60 1.257 1_554 S
C40 O61 1.260 . S
Eu41 C40 2.835 1_655 S
Eu41 O60 2.473 1_654 S
Eu41 O61 2.480 1_655 S
Eu41 O62 2.430 . S
Eu41 O63 2.670 . S
Eu41 O64 2.393 . S
Eu41 O69 2.355 1_554 S
Eu41 O71 2.374 . S
C42 C40 1.500 1_556 S
C42 C43 1.377 1_556 S
C42 C47 1.377 . S
C43 C42 1.377 1_554 S
C43 C44 1.395 . S
C43 H72 0.931 . S
C44 C43 1.395 . S
C44 C45 1.383 1_554 S
C44 H73 0.931 . S
C45 C44 1.383 1_556 S
C45 C46 1.394 . S
C46 C45 1.394 . S
C46 C47 1.378 . S
C46 H74 0.931 . S
C47 C42 1.377 . S
C47 C46 1.378 . S
C47 H75 0.931 . S
C48 O62 1.259 . S
C48 O63 1.270 . S
C49 O64 1.259 . S
C49 O65 1.251 . S
C50 Eu51 2.833 1_554 S
C50 C52 1.500 . S
C50 O66 1.257 . S
C50 O67 1.260 1_554 S
Eu51 C50 2.833 1_556 S
Eu51 O63 2.345 1_556 S
Eu51 O65 2.373 1_556 S
Eu51 O66 2.465 1_556 S
Eu51 O67 2.484 . S
Eu51 O68 2.443 . S
Eu51 O69 2.676 . S
Eu51 O70 2.396 . S
C52 C50 1.500 . S
C52 C53 1.377 1_554 S
C52 C57 1.377 . S
C53 C52 1.377 1_556 S
C53 C54 1.395 . S
C53 H76 0.931 . S
C54 C53 1.395 . S
C54 C55 1.383 1_556 S
C54 H77 0.931 . S
C55 C54 1.383 1_554 S
C55 C56 1.394 . S
C56 C55 1.394 . S
C56 C57 1.378 . S
C56 H78 0.931 . S
C57 C52 1.377 . S
C57 C56 1.378 . S
C57 H79 0.931 . S
C58 O68 1.259 . S
C58 O69 1.270 . S
C59 O70 1.251 . S
C59 O71 1.251 1_556 S
O60 C40 1.257 1_556 S
O60 Eu41 2.473 1_456 S
O61 C40 1.260 . S
O61 Eu41 2.480 1_455 S
O62 Eu41 2.430 . S
O62 C48 1.259 . S
O63 Eu41 2.670 . S
O63 C48 1.270 . S
O63 Eu51 2.345 1_554 S
O64 Eu41 2.393 . S
O64 C49 1.259 . S
O65 C49 1.251 . S
O65 Eu51 2.373 1_554 S
O66 C50 1.257 . S
O66 Eu51 2.465 1_554 S
O67 C50 1.260 1_556 S
O67 Eu51 2.484 . S
O68 Eu51 2.443 . S
O68 C58 1.259 . S
O69 Eu41 2.355 1_556 S
O69 Eu51 2.676 . S
O69 C58 1.270 . S
O70 Eu51 2.396 . S
O70 C59 1.251 . S
O71 Eu41 2.374 . S
O71 C59 1.251 1_554 S
H72 C43 0.931 . S
H73 C44 0.931 . S
H74 C46 0.931 . S
H75 C47 0.931 . S
H76 C53 0.931 . S
H77 C54 0.931 . S
H78 C56 0.931 . S
H79 C57 0.931 . S
C80 Eu81 2.835 . S
C80 C82 1.500 1_455 S
C80 O100 1.257 . S
C80 O101 1.260 . S
Eu81 C80 2.835 . S
Eu81 O100 2.473 . S
Eu81 O101 2.480 . S
Eu81 O102 2.430 . S
Eu81 O103 2.670 . S
Eu81 O104 2.394 1_455 S
Eu81 O109 2.355 . S
Eu81 O111 2.374 . S
C82 C80 1.500 1_655 S
C82 C83 1.377 . S
C82 C87 1.377 . S
C83 C82 1.377 . S
C83 C84 1.395 . S
C83 H112 0.931 . S
C84 C83 1.395 . S
C84 C85 1.383 . S
C84 H113 0.931 . S
C85 C84 1.383 . S
C85 C86 1.394 . S
C86 C85 1.394 . S
C86 C87 1.378 . S
C86 H114 0.931 . S
C87 C82 1.377 . S
C87 C86 1.378 . S
C87 H115 0.931 . S
C88 O102 1.259 . S
C88 O103 1.270 . S
C89 O104 1.251 . S
C89 O105 1.251 . S
C90 Eu91 2.835 . S
C90 C92 1.500 . S
C90 O106 1.257 . S
C90 O107 1.260 . S
Eu91 C90 2.835 . S
Eu91 O103 2.355 . S
Eu91 O105 2.374 1_455 S
Eu91 O106 2.473 . S
Eu91 O107 2.480 . S
Eu91 O108 2.430 . S
Eu91 O109 2.670 . S
Eu91 O110 2.394 . S
C92 C90 1.500 . S
C92 C93 1.377 . S
C92 C97 1.377 . S
C93 C92 1.377 . S
C93 C94 1.395 . S
C93 H116 0.931 . S
C94 C93 1.395 . S
C94 C95 1.383 . S
C94 H117 0.931 . S
C95 C94 1.383 . S
C95 C96 1.394 . S
C96 C95 1.394 . S
C96 C97 1.378 . S
C96 H118 0.931 . S
C97 C92 1.377 . S
C97 C96 1.378 . S
C97 H119 0.931 . S
C98 O108 1.259 . S
C98 O109 1.270 . S
C99 O110 1.251 . S
C99 O111 1.251 . S
O100 C80 1.257 . S
O100 Eu81 2.473 . S
O101 C80 1.260 . S
O101 Eu81 2.480 . S
O102 Eu81 2.430 . S
O102 C88 1.259 . S
O103 Eu81 2.670 . S
O103 C88 1.270 . S
O103 Eu91 2.355 . S
O104 Eu81 2.394 1_655 S
O104 C89 1.251 . S
O105 C89 1.251 . S
O105 Eu91 2.374 1_655 S
O106 C90 1.257 . S
O106 Eu91 2.473 . S
O107 C90 1.260 . S
O107 Eu91 2.480 . S
O108 Eu91 2.430 . S
O108 C98 1.259 . S
O109 Eu81 2.355 . S
O109 Eu91 2.670 . S
O109 C98 1.270 . S
O110 Eu91 2.394 . S
O110 C99 1.251 . S
O111 Eu81 2.374 . S
O111 C99 1.251 . S
H112 C83 0.931 . S
H113 C84 0.931 . S
H114 C86 0.931 . S
H115 C87 0.931 . S
H116 C93 0.931 . S
H117 C94 0.931 . S
H118 C96 0.931 . S
H119 C97 0.931 . S
C120 Eu121 2.835 . S
C120 C122 1.500 . S
C120 O140 1.257 . S
C120 O141 1.260 . S
Eu121 C120 2.835 . S
Eu121 O140 2.473 . S
Eu121 O141 2.480 . S
Eu121 O142 2.430 . S
Eu121 O143 2.670 . S
Eu121 O144 2.394 . S
Eu121 O149 2.355 . S
Eu121 O151 2.374 1_655 S
C122 C120 1.500 . S
C122 C123 1.377 . S
C122 C127 1.377 . S
C123 C122 1.377 . S
C123 C124 1.395 . S
C123 H152 0.931 . S
C124 C123 1.395 . S
C124 C125 1.383 . S
C124 H153 0.931 . S
C125 C124 1.383 . S
C125 C126 1.394 . S
C126 C125 1.394 . S
C126 C127 1.378 . S
C126 H154 0.931 . S
C127 C122 1.377 . S
C127 C126 1.378 . S
C127 H155 0.931 . S
C128 O142 1.259 . S
C128 O143 1.270 . S
C129 O144 1.251 . S
C129 O145 1.251 . S
C130 Eu131 2.835 . S
C130 C132 1.500 1_655 S
C130 O146 1.257 . S
C130 O147 1.260 . S
Eu131 C130 2.835 . S
Eu131 O143 2.355 . S
Eu131 O145 2.374 . S
Eu131 O146 2.473 . S
Eu131 O147 2.480 . S
Eu131 O148 2.430 . S
Eu131 O149 2.670 . S
Eu131 O150 2.394 1_655 S
C132 C130 1.500 1_455 S
C132 C133 1.377 . S
C132 C137 1.377 . S
C133 C132 1.377 . S
C133 C134 1.395 . S
C133 H156 0.931 . S
C134 C133 1.395 . S
C134 C135 1.383 . S
C134 H157 0.931 . S
C135 C134 1.383 . S
C135 C136 1.394 . S
C136 C135 1.394 . S
C136 C137 1.378 . S
C136 H158 0.931 . S
C137 C132 1.377 . S
C137 C136 1.378 . S
C137 H159 0.931 . S
C138 O148 1.259 . S
C138 O149 1.270 . S
C139 O150 1.251 . S
C139 O151 1.251 . S
O140 C120 1.257 . S
O140 Eu121 2.473 . S
O141 C120 1.260 . S
O141 Eu121 2.480 . S
O142 Eu121 2.430 . S
O142 C128 1.259 . S
O143 Eu121 2.670 . S
O143 C128 1.270 . S
O143 Eu131 2.355 . S
O144 Eu121 2.394 . S
O144 C129 1.251 . S
O145 C129 1.251 . S
O145 Eu131 2.374 . S
O146 C130 1.257 . S
O146 Eu131 2.473 . S
O147 C130 1.260 . S
O147 Eu131 2.480 . S
O148 Eu131 2.430 . S
O148 C138 1.259 . S
O149 Eu121 2.355 . S
O149 Eu131 2.670 . S
O149 C138 1.270 . S
O150 Eu131 2.394 1_455 S
O150 C139 1.251 . S
O151 Eu121 2.374 1_455 S
O151 C139 1.251 . S
H152 C123 0.931 . S
H153 C124 0.931 . S
H154 C126 0.931 . S
H155 C127 0.931 . S
H156 C133 0.931 . S
H157 C134 0.931 . S
H158 C136 0.931 . S
H159 C137 0.931 . S
C160 Eu161 2.835 . S
C160 C162 1.500 . S
C160 O180 1.257 1_554 S
C160 O181 1.260 . S
Eu161 C160 2.835 . S
Eu161 O180 2.473 1_554 S
Eu161 O181 2.480 . S
Eu161 O182 2.430 . S
Eu161 O183 2.670 . S
Eu161 O184 2.394 . S
Eu161 O189 2.355 1_554 S
Eu161 O191 2.374 . S
C162 C160 1.500 . S
C162 C163 1.377 . S
C162 C167 1.377 1_554 S
C163 C162 1.377 . S
C163 C164 1.395 . S
C163 H192 0.931 . S
C164 C163 1.395 . S
C164 C165 1.383 1_554 S
C164 H193 0.931 . S
C165 C164 1.383 1_556 S
C165 C166 1.394 . S
C166 C165 1.394 . S
C166 C167 1.378 . S
C166 H194 0.931 . S
C167 C162 1.377 1_556 S
C167 C166 1.378 . S
C167 H195 0.931 . S
C168 O182 1.259 . S
C168 O183 1.270 . S
C169 O184 1.251 . S
C169 O185 1.251 . S
C170 Eu171 2.835 1_554 S
C170 C172 1.500 . S
C170 O186 1.257 . S
C170 O187 1.260 1_554 S
Eu171 C170 2.835 1_556 S
Eu171 O183 2.355 1_556 S
Eu171 O185 2.374 1_556 S
Eu171 O186 2.473 1_556 S
Eu171 O187 2.480 . S
Eu171 O188 2.430 . S
Eu171 O189 2.670 . S
Eu171 O190 2.394 . S
C172 C170 1.500 . S
C172 C173 1.377 1_554 S
C172 C177 1.377 . S
C173 C172 1.377 1_556 S
C173 C174 1.395 . S
C173 H196 0.931 . S
C174 C173 1.395 . S
C174 C175 1.383 1_556 S
C174 H197 0.931 . S
C175 C174 1.383 1_554 S
C175 C176 1.394 . S
C176 C175 1.394 . S
C176 C177 1.378 . S
C176 H198 0.931 . S
C177 C172 1.377 . S
C177 C176 1.378 . S
C177 H199 0.931 . S
C178 O188 1.259 . S
C178 O189 1.270 . S
C179 O190 1.251 1_554 S
C179 O191 1.251 . S
O180 C160 1.257 1_556 S
O180 Eu161 2.473 1_556 S
O181 C160 1.260 . S
O181 Eu161 2.480 . S
O182 Eu161 2.430 . S
O182 C168 1.259 . S
O183 Eu161 2.670 . S
O183 C168 1.270 . S
O183 Eu171 2.355 1_554 S
O184 Eu161 2.394 . S
O184 C169 1.251 . S
O185 C169 1.251 . S
O185 Eu171 2.374 1_554 S
O186 C170 1.257 . S
O186 Eu171 2.473 1_554 S
O187 C170 1.260 1_556 S
O187 Eu171 2.480 . S
O188 Eu171 2.430 . S
O188 C178 1.259 . S
O189 Eu161 2.355 1_556 S
O189 Eu171 2.670 . S
O189 C178 1.270 . S
O190 Eu171 2.394 . S
O190 C179 1.251 1_556 S
O191 Eu161 2.374 . S
O191 C179 1.251 . S
H192 C163 0.931 . S
H193 C164 0.931 . S
H194 C166 0.931 . S
H195 C167 0.931 . S
H196 C173 0.931 . S
H197 C174 0.931 . S
H198 C176 0.931 . S
H199 C177 0.931 . S
C200 Eu201 2.835 . S
C200 C202 1.500 1_554 S
C200 O220 1.257 1_554 S
C200 O221 1.260 . S
Eu201 C200 2.835 . S
Eu201 O220 2.473 1_554 S
Eu201 O221 2.480 . S
Eu201 O222 2.430 . S
Eu201 O223 2.670 . S
Eu201 O224 2.394 . S
Eu201 O229 2.355 1_554 S
Eu201 O231 2.374 . S
C202 C200 1.500 1_556 S
C202 C203 1.377 1_556 S
C202 C207 1.377 . S
C203 C202 1.377 1_554 S
C203 C204 1.395 . S
C203 H232 0.931 . S
C204 C203 1.395 . S
C204 C205 1.383 1_554 S
C204 H233 0.931 . S
C205 C204 1.383 1_556 S
C205 C206 1.394 . S
C206 C205 1.394 . S
C206 C207 1.378 . S
C206 H234 0.931 . S
C207 C202 1.377 . S
C207 C206 1.378 . S
C207 H235 0.931 . S
C208 O222 1.259 . S
C208 O223 1.270 . S
C209 O224 1.251 . S
C209 O225 1.251 . S
C210 Eu211 2.833 1_554 S
C210 C212 1.500 . S
C210 O226 1.257 . S
C210 O227 1.260 1_554 S
Eu211 C210 2.833 1_556 S
Eu211 O223 2.345 1_556 S
Eu211 O225 2.373 1_556 S
Eu211 O226 2.465 1_556 S
Eu211 O227 2.484 . S
Eu211 O228 2.443 . S
Eu211 O229 2.676 . S
Eu211 O230 2.396 . S
C212 C210 1.500 . S
C212 C213 1.377 1_554 S
C212 C217 1.377 . S
C213 C212 1.377 1_556 S
C213 C214 1.395 . S
C213 H236 0.931 . S
C214 C213 1.395 . S
C214 C215 1.383 1_556 S
C214 H237 0.931 . S
C215 C214 1.383 1_554 S
C215 C216 1.394 . S
C216 C215 1.394 . S
C216 C217 1.378 . S
C216 H238 0.931 . S
C217 C212 1.377 . S
C217 C216 1.378 . S
C217 H239 0.931 . S
C218 O228 1.259 . S
C218 O229 1.270 . S
C219 O230 1.251 . S
C219 O231 1.251 1_556 S
O220 C200 1.257 1_556 S
O220 Eu201 2.473 1_556 S
O221 C200 1.260 . S
O221 Eu201 2.480 . S
O222 Eu201 2.430 . S
O222 C208 1.259 . S
O223 Eu201 2.670 . S
O223 C208 1.270 . S
O223 Eu211 2.345 1_554 S
O224 Eu201 2.394 . S
O224 C209 1.251 . S
O225 C209 1.251 . S
O225 Eu211 2.373 1_554 S
O226 C210 1.257 . S
O226 Eu211 2.465 1_554 S
O227 C210 1.260 1_556 S
O227 Eu211 2.484 . S
O228 Eu211 2.443 . S
O228 C218 1.259 . S
O229 Eu201 2.355 1_556 S
O229 Eu211 2.676 . S
O229 C218 1.270 . S
O230 Eu211 2.396 . S
O230 C219 1.251 . S
O231 Eu201 2.374 . S
O231 C219 1.251 1_554 S
H232 C203 0.931 . S
H233 C204 0.931 . S
H234 C206 0.931 . S
H235 C207 0.931 . S
H236 C213 0.931 . S
H237 C214 0.931 . S
H238 C216 0.931 . S
H239 C217 0.931 . S
C240 Eu241 2.835 . S
C240 C242 1.500 . S
C240 O260 1.257 . S
C240 O261 1.260 . S
Eu241 C240 2.835 . S
Eu241 O260 2.473 . S
Eu241 O261 2.480 . S
Eu241 O262 2.430 . S
Eu241 O263 2.670 . S
Eu241 O264 2.394 . S
Eu241 O269 2.355 . S
Eu241 O271 2.374 . S
C242 C240 1.500 . S
C242 C243 1.377 . S
C242 C247 1.377 . S
C243 C242 1.377 . S
C243 C244 1.395 . S
C243 H272 0.931 . S
C244 C243 1.395 . S
C244 C245 1.383 . S
C244 H273 0.931 . S
C245 C244 1.383 . S
C245 C246 1.394 . S
C246 C245 1.394 . S
C246 C247 1.378 . S
C246 H274 0.931 . S
C247 C242 1.377 . S
C247 C246 1.378 . S
C247 H275 0.931 . S
C248 O262 1.259 . S
C248 O263 1.270 . S
C249 O264 1.251 . S
C249 O265 1.251 . S
C250 Eu251 2.835 . S
C250 C252 1.500 . S
C250 O266 1.257 . S
C250 O267 1.260 . S
Eu251 C250 2.835 . S
Eu251 O263 2.355 . S
Eu251 O265 2.374 . S
Eu251 O266 2.473 . S
Eu251 O267 2.480 . S
Eu251 O268 2.430 . S
Eu251 O269 2.670 . S
Eu251 O270 2.394 . S
C252 C250 1.500 . S
C252 C253 1.377 . S
C252 C257 1.377 . S
C253 C252 1.377 . S
C253 C254 1.395 . S
C253 H276 0.931 . S
C254 C253 1.395 . S
C254 C255 1.383 . S
C254 H277 0.931 . S
C255 C254 1.383 . S
C255 C256 1.394 . S
C256 C255 1.394 . S
C256 C257 1.378 . S
C256 H278 0.931 . S
C257 C252 1.377 . S
C257 C256 1.378 . S
C257 H279 0.931 . S
C258 O268 1.259 . S
C258 O269 1.270 . S
C259 O270 1.251 . S
C259 O271 1.251 . S
O260 C240 1.257 . S
O260 Eu241 2.473 . S
O261 C240 1.260 . S
O261 Eu241 2.480 . S
O262 Eu241 2.430 . S
O262 C248 1.259 . S
O263 Eu241 2.670 . S
O263 C248 1.270 . S
O263 Eu251 2.355 . S
O264 Eu241 2.394 . S
O264 C249 1.251 . S
O265 C249 1.251 . S
O265 Eu251 2.374 . S
O266 C250 1.257 . S
O266 Eu251 2.473 . S
O267 C250 1.260 . S
O267 Eu251 2.480 . S
O268 Eu251 2.430 . S
O268 C258 1.259 . S
O269 Eu241 2.355 . S
O269 Eu251 2.670 . S
O269 C258 1.270 . S
O270 Eu251 2.394 . S
O270 C259 1.251 . S
O271 Eu241 2.374 . S
O271 C259 1.251 . S
H272 C243 0.931 . S
H273 C244 0.931 . S
H274 C246 0.931 . S
H275 C247 0.931 . S
H276 C253 0.931 . S
H277 C254 0.931 . S
H278 C256 0.931 . S
H279 C257 0.931 . S
C280 Eu281 2.835 . S
C280 C282 1.500 . S
C280 O300 1.257 . S
C280 O301 1.260 . S
Eu281 C280 2.835 . S
Eu281 O300 2.473 . S
Eu281 O301 2.480 . S
Eu281 O302 2.430 . S
Eu281 O303 2.670 . S
Eu281 O304 2.394 . S
Eu281 O309 2.355 . S
Eu281 O311 2.374 . S
C282 C280 1.500 . S
C282 C283 1.377 . S
C282 C287 1.377 . S
C283 C282 1.377 . S
C283 C284 1.395 . S
C283 H312 0.931 . S
C284 C283 1.395 . S
C284 C285 1.383 . S
C284 H313 0.931 . S
C285 C284 1.383 . S
C285 C286 1.394 . S
C286 C285 1.394 . S
C286 C287 1.378 . S
C286 H314 0.931 . S
C287 C282 1.377 . S
C287 C286 1.378 . S
C287 H315 0.931 . S
C288 O302 1.259 . S
C288 O303 1.270 . S
C289 O304 1.251 . S
C289 O305 1.251 . S
C290 Eu291 2.835 . S
C290 C292 1.500 . S
C290 O306 1.257 . S
C290 O307 1.260 . S
Eu291 C290 2.835 . S
Eu291 O303 2.355 . S
Eu291 O305 2.374 . S
Eu291 O306 2.473 . S
Eu291 O307 2.480 . S
Eu291 O308 2.430 . S
Eu291 O309 2.670 . S
Eu291 O310 2.394 . S
C292 C290 1.500 . S
C292 C293 1.377 . S
C292 C297 1.377 . S
C293 C292 1.377 . S
C293 C294 1.395 . S
C293 H316 0.931 . S
C294 C293 1.395 . S
C294 C295 1.383 . S
C294 H317 0.931 . S
C295 C294 1.383 . S
C295 C296 1.394 . S
C296 C295 1.394 . S
C296 C297 1.378 . S
C296 H318 0.931 . S
C297 C292 1.377 . S
C297 C296 1.378 . S
C297 H319 0.931 . S
C298 O308 1.259 . S
C298 O309 1.270 . S
C299 O310 1.251 . S
C299 O311 1.251 . S
O300 C280 1.257 . S
O300 Eu281 2.473 . S
O301 C280 1.260 . S
O301 Eu281 2.480 . S
O302 Eu281 2.430 . S
O302 C288 1.259 . S
O303 Eu281 2.670 . S
O303 C288 1.270 . S
O303 Eu291 2.355 . S
O304 Eu281 2.394 . S
O304 C289 1.251 . S
O305 C289 1.251 . S
O305 Eu291 2.374 . S
O306 C290 1.257 . S
O306 Eu291 2.473 . S
O307 C290 1.260 . S
O307 Eu291 2.480 . S
O308 Eu291 2.430 . S
O308 C298 1.259 . S
O309 Eu281 2.355 . S
O309 Eu291 2.670 . S
O309 C298 1.270 . S
O310 Eu291 2.394 . S
O310 C299 1.251 . S
O311 Eu281 2.374 . S
O311 C299 1.251 . S
H312 C283 0.931 . S
H313 C284 0.931 . S
H314 C286 0.931 . S
H315 C287 0.931 . S
H316 C293 0.931 . S
H317 C294 0.931 . S
H318 C296 0.931 . S
H319 C297 0.931 . S
H320 C328 0.929 . S
H321 C330 0.930 . S
H322 C332 0.930 . S
H323 C335 0.929 . S
H324 C338 0.930 1_556 S
H325 C340 0.960 . S
H326 C340 0.984 . S
H327 C340 0.960 . S
C328 H320 0.929 . S
C328 C329 1.377 1_556 S
C328 C330 1.384 . S
C329 C328 1.377 1_554 S
C329 C335 1.390 . S
C330 H321 0.930 . S
C330 C328 1.384 . S
C330 C331 1.372 1_556 S
C331 C330 1.372 1_554 S
C331 C332 1.400 . S
C331 C336 1.490 . S
C332 H322 0.930 . S
C332 C331 1.400 . S
C332 C335 1.386 . S
H333 C349 0.930 . S
H334 C350 0.931 . S
C335 H323 0.929 . S
C335 C329 1.390 . S
C335 C332 1.386 . S
C336 C331 1.490 . S
C336 C338 1.395 . S
C336 C339 1.403 . S
H337 C343 0.930 . S
C338 H324 0.930 1_554 S
C338 C336 1.395 . S
C338 C341 1.403 1_554 S
C339 C336 1.403 . S
C339 C340 1.524 . S
C339 C343 1.400 . S
C340 H325 0.960 . S
C340 H326 0.984 . S
C340 H327 0.960 . S
C340 C339 1.524 . S
C341 C338 1.403 1_556 S
C341 C342 1.392 . S
C341 C345 1.495 . S
C342 C341 1.392 . S
C342 C343 1.385 1_556 S
C342 C344 1.478 . S
C343 H337 0.930 . S
C343 C339 1.400 . S
C343 C342 1.385 1_554 S
C344 C342 1.478 . S
C344 C346 1.381 . S
C344 C350 1.383 1_556 S
C345 C341 1.495 . S
C345 H351 0.959 . S
C345 H352 0.961 1_556 S
C345 H353 0.960 . S
C346 C344 1.381 . S
C346 C347 1.394 . S
C346 H354 0.930 . S
C347 C346 1.394 . S
C347 C348 1.383 . S
C347 H355 0.929 . S
C348 C347 1.383 . S
C348 C349 1.377 1_556 S
C349 H333 0.930 . S
C349 C348 1.377 1_554 S
C349 C350 1.379 . S
C350 H334 0.931 . S
C350 C344 1.383 1_554 S
C350 C349 1.379 . S
H351 C345 0.959 . S
H352 C345 0.961 1_554 S
H353 C345 0.960 . S
H354 C346 0.930 . S
H355 C347 0.929 . S
H356 C364 0.929 . S
H357 C366 0.930 . S
H358 C368 0.930 . S
H359 C371 0.929 . S
H360 C374 0.930 . S
H361 C376 0.960 . S
H362 C376 0.960 . S
H363 C376 0.960 . S
C364 H356 0.929 . S
C364 C365 1.377 . S
C364 C366 1.384 . S
C365 C364 1.377 . S
C365 C371 1.390 1_556 S
C366 H357 0.930 . S
C366 C364 1.384 . S
C366 C367 1.372 . S
C367 C366 1.372 . S
C367 C368 1.400 1_556 S
C367 C372 1.490 . S
C368 H358 0.930 . S
C368 C367 1.400 1_554 S
C368 C371 1.386 . S
H369 C385 0.930 . S
H370 C386 0.931 . S
C371 H359 0.929 . S
C371 C365 1.390 1_554 S
C371 C368 1.386 . S
C372 C367 1.490 . S
C372 C374 1.395 1_556 S
C372 C375 1.403 . S
H373 C379 0.928 1_556 S
C374 H360 0.930 . S
C374 C372 1.395 1_554 S
C374 C377 1.403 . S
C375 C372 1.403 . S
C375 C376 1.524 . S
C375 C379 1.400 1_556 S
C376 H361 0.960 . S
C376 H362 0.960 . S
C376 H363 0.960 . S
C376 C375 1.524 . S
C377 C374 1.403 . S
C377 C378 1.392 . S
C377 C381 1.495 . S
C378 C377 1.392 . S
C378 C379 1.385 . S
C378 C380 1.478 . S
C379 H373 0.928 1_554 S
C379 C375 1.400 1_554 S
C379 C378 1.385 . S
C380 C378 1.478 . S
C380 C382 1.381 1_554 S
C380 C386 1.383 . S
C381 C377 1.495 . S
C381 H387 0.959 . S
C381 H388 0.961 . S
C381 H389 0.960 . S
C382 C380 1.381 1_556 S
C382 C383 1.396 . S
C382 H390 0.930 . S
C383 C382 1.396 . S
C383 C384 1.375 1_556 S
C383 H391 0.935 . S
C384 C383 1.375 1_554 S
C384 C385 1.377 . S
C385 H369 0.930 . S
C385 C384 1.377 . S
C385 C386 1.379 . S
C386 H370 0.931 . S
C386 C380 1.383 . S
C386 C385 1.379 . S
H387 C381 0.959 . S
H388 C381 0.961 . S
H389 C381 0.960 . S
H390 C382 0.930 . S
H391 C383 0.935 . S
H392 C400 0.929 . S
H393 C402 0.930 . S
H394 C404 0.930 . S
H395 C407 0.929 . S
H396 C410 0.930 . S
H397 C412 0.960 . S
H398 C412 0.960 . S
H399 C412 0.960 . S
C400 H392 0.929 . S
C400 C401 1.377 . S
C400 C402 1.384 . S
C401 C400 1.377 . S
C401 C407 1.390 . S
C402 H393 0.930 . S
C402 C400 1.384 . S
C402 C403 1.372 . S
C403 C402 1.372 . S
C403 C404 1.400 . S
C403 C408 1.490 . S
C404 H394 0.930 . S
C404 C403 1.400 . S
C404 C407 1.386 . S
H405 C421 0.930 . S
H406 C422 0.931 . S
C407 H395 0.929 . S
C407 C401 1.390 . S
C407 C404 1.386 . S
C408 C403 1.490 . S
C408 C410 1.395 . S
C408 C411 1.403 . S
H409 C415 0.930 . S
C410 H396 0.930 . S
C410 C408 1.395 . S
C410 C413 1.403 . S
C411 C408 1.403 . S
C411 C412 1.524 . S
C411 C415 1.400 . S
C412 H397 0.960 . S
C412 H398 0.960 . S
C412 H399 0.960 . S
C412 C411 1.524 . S
C413 C410 1.403 . S
C413 C414 1.392 . S
C413 C417 1.495 . S
C414 C413 1.392 . S
C414 C415 1.385 . S
C414 C416 1.478 . S
C415 H409 0.930 . S
C415 C411 1.400 . S
C415 C414 1.385 . S
C416 C414 1.478 . S
C416 C418 1.381 . S
C416 C422 1.383 . S
C417 C413 1.495 . S
C417 H423 0.959 . S
C417 H424 0.961 . S
C417 H425 0.960 . S
C418 C416 1.381 . S
C418 C419 1.394 . S
C418 H426 0.930 . S
C419 C418 1.394 . S
C419 C420 1.383 . S
C419 H427 0.929 . S
C420 C419 1.383 . S
C420 C421 1.377 . S
C421 H405 0.930 . S
C421 C420 1.377 . S
C421 C422 1.379 . S
C422 H406 0.931 . S
C422 C416 1.383 . S
C422 C421 1.379 . S
H423 C417 0.959 . S
H424 C417 0.961 . S
H425 C417 0.960 . S
H426 C418 0.930 . S
H427 C419 0.929 . S
H428 C436 0.929 . S
H429 C438 0.930 . S
H430 C440 0.930 . S
H431 C443 0.929 . S
H432 C446 0.930 . S
H433 C448 0.960 . S
H434 C448 0.960 . S
H435 C448 0.960 . S
C436 H428 0.929 . S
C436 C437 1.377 . S
C436 C438 1.384 . S
C437 C436 1.377 . S
C437 C443 1.390 . S
C438 H429 0.930 . S
C438 C436 1.384 . S
C438 C439 1.372 . S
C439 C438 1.372 . S
C439 C440 1.400 . S
C439 C444 1.490 . S
C440 H430 0.930 . S
C440 C439 1.400 . S
C440 C443 1.386 . S
H441 C457 0.930 . S
H442 C458 0.931 . S
C443 H431 0.929 . S
C443 C437 1.390 . S
C443 C440 1.386 . S
C444 C439 1.490 . S
C444 C446 1.395 . S
C444 C447 1.403 . S
H445 C451 0.930 . S
C446 H432 0.930 . S
C446 C444 1.395 . S
C446 C449 1.403 . S
C447 C444 1.403 . S
C447 C448 1.524 . S
C447 C451 1.400 . S
C448 H433 0.960 . S
C448 H434 0.960 . S
C448 H435 0.960 . S
C448 C447 1.524 . S
C449 C446 1.403 . S
C449 C450 1.392 . S
C449 C453 1.495 . S
C450 C449 1.392 . S
C450 C451 1.385 . S
C450 C452 1.478 . S
C451 H445 0.930 . S
C451 C447 1.400 . S
C451 C450 1.385 . S
C452 C450 1.478 . S
C452 C454 1.381 . S
C452 C458 1.383 . S
C453 C449 1.495 . S
C453 H459 0.959 . S
C453 H460 0.961 . S
C453 H461 0.960 . S
C454 C452 1.381 . S
C454 C455 1.394 . S
C454 H462 0.930 . S
C455 C454 1.394 . S
C455 C456 1.383 . S
C455 H463 0.929 . S
C456 C455 1.383 . S
C456 C457 1.377 . S
C457 H441 0.930 . S
C457 C456 1.377 . S
C457 C458 1.379 . S
C458 H442 0.931 . S
C458 C452 1.383 . S
C458 C457 1.379 . S
H459 C453 0.959 . S
H460 C453 0.961 . S
H461 C453 0.960 . S
H462 C454 0.930 . S
H463 C455 0.929 . S
H464 C472 0.929 . S
H465 C474 0.930 . S
H466 C476 0.930 . S
H467 C479 0.929 . S
H468 C482 0.930 . S
H469 C484 0.960 . S
H470 C484 0.960 1_554 S
H471 C484 0.960 . S
C472 H464 0.929 . S
C472 C473 1.377 . S
C472 C474 1.384 . S
C473 C472 1.377 . S
C473 C479 1.390 1_554 S
C474 H465 0.930 . S
C474 C472 1.384 . S
C474 C475 1.372 . S
C475 C474 1.372 . S
C475 C476 1.400 1_554 S
C475 C480 1.490 1_655 S
C476 H466 0.930 . S
C476 C475 1.400 1_556 S
C476 C479 1.386 . S
H477 C493 0.930 . S
H478 C494 0.931 . S
C479 H467 0.929 . S
C479 C473 1.390 1_556 S
C479 C476 1.386 . S
C480 C475 1.490 1_455 S
C480 C482 1.395 . S
C480 C483 1.403 1_554 S
H481 C487 0.930 . S
C482 H468 0.930 . S
C482 C480 1.395 . S
C482 C485 1.403 . S
C483 C480 1.403 1_556 S
C483 C484 1.524 1_455 S
C483 C487 1.400 . S
C484 H469 0.960 . S
C484 H470 0.960 1_556 S
C484 H471 0.960 . S
C484 C483 1.524 1_655 S
C485 C482 1.403 . S
C485 C486 1.392 . S
C485 C489 1.495 . S
C486 C485 1.392 . S
C486 C487 1.385 1_554 S
C486 C488 1.478 1_554 S
C487 H481 0.930 . S
C487 C483 1.400 . S
C487 C486 1.385 1_556 S
C488 C486 1.478 1_556 S
C488 C490 1.381 1_556 S
C488 C494 1.383 . S
C489 C485 1.495 . S
C489 H495 0.959 . S
C489 H496 0.961 . S
C489 H497 0.960 . S
C490 C488 1.381 1_554 S
C490 C491 1.394 . S
C490 H498 0.930 . S
C491 C490 1.394 . S
C491 C492 1.383 1_554 S
C491 H499 0.929 . S
C492 C491 1.383 1_556 S
C492 C493 1.377 . S
C493 H477 0.930 . S
C493 C492 1.377 . S
C493 C494 1.379 . S
C494 H478 0.931 . S
C494 C488 1.383 . S
C494 C493 1.379 . S
H495 C489 0.959 . S
H496 C489 0.961 . S
H497 C489 0.960 . S
H498 C490 0.930 . S
H499 C491 0.929 . S
H500 C508 0.929 . S
H501 C510 0.930 . S
H502 C512 0.930 1_655 S
H503 C515 0.929 . S
H504 C518 0.930 . S
H505 C520 0.960 . S
H506 C520 0.960 . S
H507 C520 0.960 . S
C508 H500 0.929 . S
C508 C509 1.377 . S
C508 C510 1.384 . S
C509 C508 1.377 . S
C509 C515 1.390 . S
C510 H501 0.930 . S
C510 C508 1.384 . S
C510 C511 1.372 . S
C511 C510 1.372 . S
C511 C512 1.400 . S
C511 C516 1.490 1_455 S
C512 H502 0.930 1_455 S
C512 C511 1.400 . S
C512 C515 1.386 . S
H513 C529 0.934 . S
H514 C530 0.931 . S
C515 H503 0.929 . S
C515 C509 1.390 . S
C515 C512 1.386 . S
C516 C511 1.490 1_655 S
C516 C518 1.395 . S
C516 C519 1.403 1_554 S
H517 C523 0.930 . S
C518 H504 0.930 . S
C518 C516 1.395 . S
C518 C521 1.403 . S
C519 C516 1.403 1_556 S
C519 C520 1.524 . S
C519 C523 1.400 . S
C520 H505 0.960 . S
C520 H506 0.960 . S
C520 H507 0.960 . S
C520 C519 1.524 . S
C521 C518 1.403 . S
C521 C522 1.392 . S
C521 C525 1.495 . S
C522 C521 1.392 . S
C522 C523 1.385 1_554 S
C522 C524 1.476 1_554 S
C523 H517 0.930 . S
C523 C519 1.400 . S
C523 C522 1.385 1_556 S
C524 C522 1.476 1_556 S
C524 C526 1.384 . S
C524 C530 1.381 1_556 S
C525 C521 1.495 . S
C525 H531 0.959 . S
C525 H532 0.961 . S
C525 H533 0.960 . S
C526 C524 1.384 . S
C526 C527 1.394 . S
C526 H534 0.930 . S
C527 C526 1.394 . S
C527 C528 1.383 . S
C527 H535 0.929 . S
C528 C527 1.383 . S
C528 C529 1.377 . S
C529 H513 0.934 . S
C529 C528 1.377 . S
C529 C530 1.379 1_556 S
C530 H514 0.931 . S
C530 C524 1.381 1_554 S
C530 C529 1.379 1_554 S
H531 C525 0.959 . S
H532 C525 0.961 . S
H533 C525 0.960 . S
H534 C526 0.930 . S
H535 C527 0.929 . S
H536 C544 0.929 . S
H537 C546 0.930 . S
H538 C548 0.930 . S
H539 C551 0.929 . S
H540 C554 0.930 . S
H541 C556 0.960 . S
H542 C556 0.960 . S
H543 C556 0.960 . S
C544 H536 0.929 . S
C544 C545 1.377 . S
C544 C546 1.384 . S
C545 C544 1.377 . S
C545 C551 1.390 . S
C546 H537 0.930 . S
C546 C544 1.384 . S
C546 C547 1.372 . S
C547 C546 1.372 . S
C547 C548 1.400 . S
C547 C552 1.490 . S
C548 H538 0.930 . S
C548 C547 1.400 . S
C548 C551 1.386 . S
H549 C565 0.930 . S
H550 C566 0.931 . S
C551 H539 0.929 . S
C551 C545 1.390 . S
C551 C548 1.386 . S
C552 C547 1.490 . S
C552 C554 1.395 . S
C552 C555 1.403 . S
H553 C559 0.930 . S
C554 H540 0.930 . S
C554 C552 1.395 . S
C554 C557 1.403 . S
C555 C552 1.403 . S
C555 C556 1.524 . S
C555 C559 1.400 . S
C556 H541 0.960 . S
C556 H542 0.960 . S
C556 H543 0.960 . S
C556 C555 1.524 . S
C557 C554 1.403 . S
C557 C558 1.392 1_455 S
C557 C561 1.495 1_455 S
C558 C557 1.392 1_655 S
C558 C559 1.385 1_655 S
C558 C560 1.478 . S
C559 H553 0.930 . S
C559 C555 1.400 . S
C559 C558 1.385 1_455 S
C560 C558 1.478 . S
C560 C562 1.381 . S
C560 C566 1.383 . S
C561 C557 1.495 1_655 S
C561 H567 0.959 1_655 S
C561 H568 0.961 . S
C561 H569 0.960 . S
C562 C560 1.381 . S
C562 C563 1.394 . S
C562 H570 0.930 . S
C563 C562 1.394 . S
C563 C564 1.383 . S
C563 H571 0.929 . S
C564 C563 1.383 . S
C564 C565 1.377 . S
C565 H549 0.930 . S
C565 C564 1.377 . S
C565 C566 1.379 . S
C566 H550 0.931 . S
C566 C560 1.383 . S
C566 C565 1.379 . S
H567 C561 0.959 1_455 S
H568 C561 0.961 . S
H569 C561 0.960 . S
H570 C562 0.930 . S
H571 C563 0.929 . S
H572 C580 0.929 . S
H573 C582 0.930 . S
H574 C584 0.930 . S
H575 C587 0.929 . S
H576 C590 0.930 . S
H577 C592 0.960 . S
H578 C592 0.960 . S
H579 C592 0.960 . S
C580 H572 0.929 . S
C580 C581 1.377 . S
C580 C582 1.384 . S
C581 C580 1.377 . S
C581 C587 1.390 . S
C582 H573 0.930 . S
C582 C580 1.384 . S
C582 C583 1.372 . S
C583 C582 1.372 . S
C583 C584 1.400 . S
C583 C588 1.490 . S
C584 H574 0.930 . S
C584 C583 1.400 . S
C584 C587 1.386 . S
H585 C601 0.930 . S
H586 C602 0.931 . S
C587 H575 0.929 . S
C587 C581 1.390 . S
C587 C584 1.386 . S
C588 C583 1.490 . S
C588 C590 1.395 . S
C588 C591 1.403 . S
H589 C595 0.930 . S
C590 H576 0.930 . S
C590 C588 1.395 . S
C590 C593 1.403 . S
C591 C588 1.403 . S
C591 C592 1.524 . S
C591 C595 1.400 . S
C592 H577 0.960 . S
C592 H578 0.960 . S
C592 H579 0.960 . S
C592 C591 1.524 . S
C593 C590 1.403 . S
C593 C594 1.392 1_655 S
C593 C597 1.495 1_655 S
C594 C593 1.392 1_455 S
C594 C595 1.385 1_455 S
C594 C596 1.478 . S
C595 H589 0.930 . S
C595 C591 1.400 . S
C595 C594 1.385 1_655 S
C596 C594 1.478 . S
C596 C598 1.381 . S
C596 C602 1.383 . S
C597 C593 1.495 1_455 S
C597 H603 0.959 1_455 S
C597 H604 0.961 . S
C597 H605 0.960 . S
C598 C596 1.381 . S
C598 C599 1.394 . S
C598 H606 0.930 . S
C599 C598 1.394 . S
C599 C600 1.383 . S
C599 H607 0.929 . S
C600 C599 1.383 . S
C600 C601 1.377 . S
C601 H585 0.930 . S
C601 C600 1.377 . S
C601 C602 1.379 . S
C602 H586 0.931 . S
C602 C596 1.383 . S
C602 C601 1.379 . S
H603 C597 0.959 1_655 S
H604 C597 0.961 . S
H605 C597 0.960 . S
H606 C598 0.930 . S
H607 C599 0.929 . S
H608 C616 0.929 . S
H609 C618 0.930 . S
H610 C620 0.930 . S
H611 C623 0.929 . S
H612 C626 0.930 . S
H613 C628 0.960 . S
H614 C628 0.960 . S
H615 C628 0.960 . S
C616 H608 0.929 . S
C616 C617 1.377 1_455 S
C616 C618 1.384 . S
C617 C616 1.377 1_655 S
C617 C623 1.390 . S
C618 H609 0.930 . S
C618 C616 1.384 . S
C618 C619 1.378 . S
C619 C618 1.378 . S
C619 C620 1.394 1_455 S
C619 C624 1.489 . S
C620 H610 0.930 . S
C620 C619 1.394 1_655 S
C620 C623 1.386 . S
H621 C637 0.930 . S
H622 C638 0.931 . S
C623 H611 0.929 . S
C623 C617 1.390 . S
C623 C620 1.386 . S
C624 C619 1.489 . S
C624 C626 1.395 . S
C624 C627 1.403 1_454 S
H625 C631 0.930 . S
C626 H612 0.930 . S
C626 C624 1.395 . S
C626 C629 1.403 . S
C627 C624 1.403 1_656 S
C627 C628 1.524 . S
C627 C631 1.400 . S
C628 H613 0.960 . S
C628 H614 0.960 . S
C628 H615 0.960 . S
C628 C627 1.524 . S
C629 C626 1.403 . S
C629 C630 1.392 . S
C629 C633 1.495 . S
C630 C629 1.392 . S
C630 C631 1.385 1_454 S
C630 C632 1.478 . S
C631 H625 0.930 . S
C631 C627 1.400 . S
C631 C630 1.385 1_656 S
C632 C630 1.478 . S
C632 C634 1.381 . S
C632 C638 1.383 1_455 S
C633 C629 1.495 . S
C633 H639 0.959 . S
C633 H640 0.961 . S
C633 H641 0.960 . S
C634 C632 1.381 . S
C634 C635 1.394 . S
C634 H642 0.930 . S
C635 C634 1.394 . S
C635 C636 1.383 . S
C635 H643 0.929 . S
C636 C635 1.383 . S
C636 C637 1.377 1_455 S
C637 H621 0.930 . S
C637 C636 1.377 1_655 S
C637 C638 1.379 . S
C638 H622 0.931 . S
C638 C632 1.383 1_655 S
C638 C637 1.379 . S
H639 C633 0.959 . S
H640 C633 0.961 . S
H641 C633 0.960 . S
H642 C634 0.930 . S
H643 C635 0.929 . S
H644 C652 0.929 . S
H645 C654 0.930 1_655 S
H646 C656 0.930 . S
H647 C659 0.929 . S
H648 C662 0.930 . S
H649 C664 0.960 . S
H650 C664 0.960 . S
H651 C664 0.960 . S
C652 H644 0.929 . S
C652 C653 1.377 . S
C652 C654 1.384 . S
C653 C652 1.377 . S
C653 C659 1.390 . S
C654 H645 0.930 1_455 S
C654 C652 1.384 . S
C654 C655 1.372 . S
C655 C654 1.372 . S
C655 C656 1.400 . S
C655 C660 1.490 . S
C656 H646 0.930 . S
C656 C655 1.400 . S
C656 C659 1.386 . S
H657 C673 0.930 . S
H658 C674 0.931 1_455 S
C659 H647 0.929 . S
C659 C653 1.390 . S
C659 C656 1.386 . S
C660 C655 1.490 . S
C660 C662 1.395 1_455 S
C660 C663 1.403 . S
H661 C667 0.930 . S
C662 H648 0.930 . S
C662 C660 1.395 1_655 S
C662 C665 1.403 . S
C663 C660 1.403 . S
C663 C664 1.524 . S
C663 C667 1.400 . S
C664 H649 0.960 . S
C664 H650 0.960 . S
C664 H651 0.960 . S
C664 C663 1.524 . S
C665 C662 1.403 . S
C665 C666 1.392 . S
C665 C669 1.495 . S
C666 C665 1.392 . S
C666 C667 1.385 1_655 S
C666 C668 1.478 . S
C667 H661 0.930 . S
C667 C663 1.400 . S
C667 C666 1.385 1_455 S
C668 C666 1.478 . S
C668 C670 1.381 . S
C668 C674 1.383 . S
C669 C665 1.495 . S
C669 H675 0.959 . S
C669 H676 0.961 . S
C669 H677 0.960 . S
C670 C668 1.381 . S
C670 C671 1.394 . S
C670 H678 0.930 . S
C671 C670 1.394 . S
C671 C672 1.383 . S
C671 H679 0.929 . S
C672 C671 1.383 . S
C672 C673 1.377 . S
C673 H657 0.930 . S
C673 C672 1.377 . S
C673 C674 1.379 . S
C674 H658 0.931 1_655 S
C674 C668 1.383 . S
C674 C673 1.379 . S
H675 C669 0.959 . S
H676 C669 0.961 . S
H677 C669 0.960 . S
H678 C670 0.930 . S
H679 C671 0.929 . S
H680 C688 0.929 . S
H681 C690 0.930 . S
H682 C692 0.930 . S
H683 C695 0.929 . S
H684 C698 0.930 . S
H685 C700 0.960 . S
H686 C700 0.960 . S
H687 C700 0.960 1_556 S
C688 H680 0.929 . S
C688 C689 1.377 . S
C688 C690 1.384 . S
C689 C688 1.377 . S
C689 C695 1.390 1_554 S
C690 H681 0.930 . S
C690 C688 1.384 . S
C690 C691 1.372 . S
C691 C690 1.372 . S
C691 C692 1.400 1_554 S
C691 C696 1.490 . S
C692 H682 0.930 . S
C692 C691 1.400 1_556 S
C692 C695 1.386 . S
H693 C709 0.930 . S
H694 C710 0.931 . S
C695 H683 0.929 . S
C695 C689 1.390 1_556 S
C695 C692 1.386 . S
C696 C691 1.490 . S
C696 C698 1.395 . S
C696 C699 1.403 . S
H697 C703 0.930 . S
C698 H684 0.930 . S
C698 C696 1.395 . S
C698 C701 1.403 1_565 S
C699 C696 1.403 . S
C699 C700 1.524 . S
C699 C703 1.400 1_565 S
C700 H685 0.960 . S
C700 H686 0.960 . S
C700 H687 0.960 1_554 S
C700 C699 1.524 . S
C701 C698 1.403 1_545 S
C701 C702 1.392 . S
C701 C705 1.495 . S
C702 C701 1.392 . S
C702 C703 1.385 . S
C702 C704 1.478 . S
C703 H697 0.930 . S
C703 C699 1.400 1_545 S
C703 C702 1.385 . S
C704 C702 1.478 . S
C704 C706 1.381 . S
C704 C710 1.383 1_554 S
C705 C701 1.495 . S
C705 H711 0.959 . S
C705 H712 0.961 1_554 S
C705 H713 0.960 . S
C706 C704 1.381 . S
C706 C707 1.394 . S
C706 H714 0.930 . S
C707 C706 1.394 . S
C707 C708 1.383 . S
C707 H715 0.929 . S
C708 C707 1.383 . S
C708 C709 1.377 1_554 S
C709 H693 0.930 . S
C709 C708 1.377 1_556 S
C709 C710 1.379 . S
C710 H694 0.931 . S
C710 C704 1.383 1_556 S
C710 C709 1.379 . S
H711 C705 0.959 . S
H712 C705 0.961 1_556 S
H713 C705 0.960 . S
H714 C706 0.930 . S
H715 C707 0.929 . S
H716 C724 0.929 . S
H717 C726 0.930 . S
H718 C728 0.930 . S
H719 C731 0.929 . S
H720 C734 0.930 . S
H721 C736 0.960 . S
H722 C736 0.960 . S
H723 C736 0.960 . S
C724 H716 0.929 . S
C724 C725 1.377 . S
C724 C726 1.384 . S
C725 C724 1.377 . S
C725 C731 1.390 . S
C726 H717 0.930 . S
C726 C724 1.384 . S
C726 C727 1.372 . S
C727 C726 1.372 . S
C727 C728 1.400 . S
C727 C732 1.490 . S
C728 H718 0.930 . S
C728 C727 1.400 . S
C728 C731 1.386 . S
H729 C745 0.930 . S
H730 C746 0.931 . S
C731 H719 0.929 . S
C731 C725 1.390 . S
C731 C728 1.386 . S
C732 C727 1.490 . S
C732 C734 1.395 . S
C732 C735 1.403 . S
H733 C739 0.930 . S
C734 H720 0.930 . S
C734 C732 1.395 . S
C734 C737 1.403 1_545 S
C735 C732 1.403 . S
C735 C736 1.524 . S
C735 C739 1.400 1_545 S
C736 H721 0.960 . S
C736 H722 0.960 . S
C736 H723 0.960 . S
C736 C735 1.524 . S
C737 C734 1.403 1_565 S
C737 C738 1.392 . S
C737 C741 1.495 . S
C738 C737 1.392 . S
C738 C739 1.385 . S
C738 C740 1.478 . S
C739 H733 0.930 . S
C739 C735 1.400 1_565 S
C739 C738 1.385 . S
C740 C738 1.478 . S
C740 C742 1.381 . S
C740 C746 1.383 . S
C741 C737 1.495 . S
C741 H747 0.959 . S
C741 H748 0.961 . S
C741 H749 0.960 . S
C742 C740 1.381 . S
C742 C743 1.394 . S
C742 H750 0.930 . S
C743 C742 1.394 . S
C743 C744 1.383 . S
C743 H751 0.929 . S
C744 C743 1.383 . S
C744 C745 1.377 . S
C745 H729 0.930 . S
C745 C744 1.377 . S
C745 C746 1.379 . S
C746 H730 0.931 . S
C746 C740 1.383 . S
C746 C745 1.379 . S
H747 C741 0.959 . S
H748 C741 0.961 . S
H749 C741 0.960 . S
H750 C742 0.930 . S
H751 C743 0.929 . S
H752 C760 0.929 . S
H753 C762 0.930 . S
H754 C764 0.930 . S
H755 C767 0.929 . S
H756 C770 0.930 . S
H757 C772 0.960 . S
H758 C772 0.960 . S
H759 C772 0.960 . S
C760 H752 0.929 . S
C760 C761 1.377 1_556 S
C760 C762 1.384 . S
C761 C760 1.377 1_554 S
C761 C767 1.390 . S
C762 H753 0.930 . S
C762 C760 1.384 . S
C762 C763 1.372 1_556 S
C763 C762 1.372 1_554 S
C763 C764 1.400 . S
C763 C768 1.490 . S
C764 H754 0.930 . S
C764 C763 1.400 . S
C764 C767 1.386 . S
H765 C781 0.930 . S
H766 C782 0.931 . S
C767 H755 0.929 . S
C767 C761 1.390 . S
C767 C764 1.386 . S
C768 C763 1.490 . S
C768 C770 1.395 1_554 S
C768 C771 1.403 . S
H769 C775 0.930 . S
C770 H756 0.930 . S
C770 C768 1.395 1_556 S
C770 C773 1.403 . S
C771 C768 1.403 . S
C771 C772 1.524 . S
C771 C775 1.400 . S
C772 H757 0.960 . S
C772 H758 0.960 . S
C772 H759 0.960 . S
C772 C771 1.524 . S
C773 C770 1.403 . S
C773 C774 1.392 . S
C773 C777 1.495 . S
C774 C773 1.392 . S
C774 C775 1.385 1_556 S
C774 C776 1.478 . S
C775 H769 0.930 . S
C775 C771 1.400 . S
C775 C774 1.385 1_554 S
C776 C774 1.478 . S
C776 C778 1.381 . S
C776 C782 1.383 1_556 S
C777 C773 1.495 . S
C777 H783 0.959 . S
C777 H784 0.961 . S
C777 H785 0.960 . S
C778 C776 1.381 . S
C778 C779 1.394 . S
C778 H786 0.930 . S
C779 C778 1.394 . S
C779 C780 1.383 . S
C779 H787 0.929 . S
C780 C779 1.383 . S
C780 C781 1.377 1_556 S
C781 H765 0.930 . S
C781 C780 1.377 1_554 S
C781 C782 1.379 . S
C782 H766 0.931 . S
C782 C776 1.383 1_554 S
C782 C781 1.379 . S
H783 C777 0.959 . S
H784 C777 0.961 . S
H785 C777 0.960 . S
H786 C778 0.930 . S
H787 C779 0.929 . S
H788 C796 0.929 . S
H789 C798 0.930 . S
H790 C800 0.930 . S
H791 C803 0.929 . S
H792 C806 0.930 . S
H793 C808 0.960 . S
H794 C808 0.960 . S
H795 C808 0.960 1_556 S
C796 H788 0.929 . S
C796 C797 1.377 . S
C796 C798 1.384 . S
C797 C796 1.377 . S
C797 C803 1.390 1_554 S
C798 H789 0.930 . S
C798 C796 1.384 . S
C798 C799 1.372 . S
C799 C798 1.372 . S
C799 C800 1.400 1_554 S
C799 C804 1.490 . S
C800 H790 0.930 . S
C800 C799 1.400 1_556 S
C800 C803 1.386 . S
H801 C817 0.930 . S
H802 C818 0.931 . S
C803 H791 0.929 . S
C803 C797 1.390 1_556 S
C803 C800 1.386 . S
C804 C799 1.490 . S
C804 C806 1.395 . S
C804 C807 1.403 . S
H805 C811 0.930 . S
C806 H792 0.930 . S
C806 C804 1.395 . S
C806 C809 1.403 . S
C807 C804 1.403 . S
C807 C808 1.524 . S
C807 C811 1.400 . S
C808 H793 0.960 . S
C808 H794 0.960 . S
C808 H795 0.960 1_554 S
C808 C807 1.524 . S
C809 C806 1.403 . S
C809 C810 1.392 . S
C809 C813 1.495 . S
C810 C809 1.392 . S
C810 C811 1.385 . S
C810 C812 1.478 . S
C811 H805 0.930 . S
C811 C807 1.400 . S
C811 C810 1.385 . S
C812 C810 1.478 . S
C812 C814 1.381 . S
C812 C818 1.383 1_554 S
C813 C809 1.495 . S
C813 H819 0.959 . S
C813 H820 0.961 1_554 S
C813 H821 0.960 . S
C814 C812 1.381 . S
C814 C815 1.394 . S
C814 H822 0.930 . S
C815 C814 1.394 . S
C815 C816 1.399 . S
C815 H823 0.929 . S
C816 C815 1.399 . S
C816 C817 1.363 1_554 S
C817 H801 0.930 . S
C817 C816 1.363 1_556 S
C817 C818 1.379 . S
C818 H802 0.931 . S
C818 C812 1.383 1_556 S
C818 C817 1.379 . S
H819 C813 0.959 . S
H820 C813 0.961 1_556 S
H821 C813 0.960 . S
H822 C814 0.930 . S
H823 C815 0.929 . S
H824 C832 0.929 . S
H825 C834 0.930 . S
H826 C836 0.930 . S
H827 C839 0.929 . S
H828 C842 0.930 . S
H829 C844 0.960 . S
H830 C844 0.960 . S
H831 C844 0.960 . S
C832 H824 0.929 . S
C832 C833 1.377 . S
C832 C834 1.384 . S
C833 C832 1.377 . S
C833 C839 1.390 . S
C834 H825 0.930 . S
C834 C832 1.384 . S
C834 C835 1.372 . S
C835 C834 1.372 . S
C835 C836 1.400 . S
C835 C840 1.490 . S
C836 H826 0.930 . S
C836 C835 1.400 . S
C836 C839 1.386 . S
H837 C853 0.930 . S
H838 C854 0.931 . S
C839 H827 0.929 . S
C839 C833 1.390 . S
C839 C836 1.386 . S
C840 C835 1.490 . S
C840 C842 1.395 . S
C840 C843 1.403 . S
H841 C847 0.930 . S
C842 H828 0.930 . S
C842 C840 1.395 . S
C842 C845 1.403 . S
C843 C840 1.403 . S
C843 C844 1.524 . S
C843 C847 1.400 . S
C844 H829 0.960 . S
C844 H830 0.960 . S
C844 H831 0.960 . S
C844 C843 1.524 . S
C845 C842 1.403 . S
C845 C846 1.392 . S
C845 C849 1.495 . S
C846 C845 1.392 . S
C846 C847 1.385 . S
C846 C848 1.478 . S
C847 H841 0.930 . S
C847 C843 1.400 . S
C847 C846 1.385 . S
C848 C846 1.478 . S
C848 C850 1.381 . S
C848 C854 1.383 . S
C849 C845 1.495 . S
C849 H855 0.959 . S
C849 H856 0.961 . S
C849 H857 0.960 . S
C850 C848 1.381 . S
C850 C851 1.394 . S
C850 H858 0.930 . S
C851 C850 1.394 . S
C851 C852 1.383 . S
C851 H859 0.929 . S
C852 C851 1.383 . S
C852 C853 1.377 . S
C853 H837 0.930 . S
C853 C852 1.377 . S
C853 C854 1.379 . S
C854 H838 0.931 . S
C854 C848 1.383 . S
C854 C853 1.379 . S
H855 C849 0.959 . S
H856 C849 0.961 . S
H857 C849 0.960 . S
H858 C850 0.930 . S
H859 C851 0.929 . S
H860 C868 0.929 . S
H861 C870 0.930 . S
H862 C872 0.930 . S
H863 C875 0.929 . S
H864 C878 0.930 . S
H865 C880 0.960 . S
H866 C880 0.960 . S
H867 C880 0.960 . S
C868 H860 0.929 . S
C868 C869 1.377 . S
C868 C870 1.384 . S
C869 C868 1.377 . S
C869 C875 1.390 . S
C870 H861 0.930 . S
C870 C868 1.384 . S
C870 C871 1.372 . S
C871 C870 1.372 . S
C871 C872 1.400 . S
C871 C876 1.490 . S
C872 H862 0.930 . S
C872 C871 1.400 . S
C872 C875 1.386 . S
H873 C889 0.930 . S
H874 C890 0.931 . S
C875 H863 0.929 . S
C875 C869 1.390 . S
C875 C872 1.386 . S
C876 C871 1.490 . S
C876 C878 1.395 . S
C876 C879 1.403 . S
H877 C883 0.930 . S
C878 H864 0.930 . S
C878 C876 1.395 . S
C878 C881 1.403 . S
C879 C876 1.403 . S
C879 C880 1.524 . S
C879 C883 1.400 . S
C880 H865 0.960 . S
C880 H866 0.960 . S
C880 H867 0.960 . S
C880 C879 1.524 . S
C881 C878 1.403 . S
C881 C882 1.392 . S
C881 C885 1.495 . S
C882 C881 1.392 . S
C882 C883 1.385 . S
C882 C884 1.478 . S
C883 H877 0.930 . S
C883 C879 1.400 . S
C883 C882 1.385 . S
C884 C882 1.478 . S
C884 C886 1.381 . S
C884 C890 1.383 . S
C885 C881 1.495 . S
C885 H891 0.959 . S
C885 H892 0.961 . S
C885 H893 0.960 . S
C886 C884 1.381 . S
C886 C887 1.394 . S
C886 H894 0.930 . S
C887 C886 1.394 . S
C887 C888 1.383 . S
C887 H895 0.929 . S
C888 C887 1.383 . S
C888 C889 1.377 . S
C889 H873 0.930 . S
C889 C888 1.377 . S
C889 C890 1.379 . S
C890 H874 0.931 . S
C890 C884 1.383 . S
C890 C889 1.379 . S
H891 C885 0.959 . S
H892 C885 0.961 . S
H893 C885 0.960 . S
H894 C886 0.930 . S
H895 C887 0.929 . S
H896 C904 0.928 . S
H897 C906 0.930 1_655 S
H898 C908 0.930 . S
H899 C911 0.929 . S
H900 C914 0.930 . S
H901 C916 0.960 . S
H902 C916 0.960 . S
H903 C916 0.960 . S
C904 H896 0.928 . S
C904 C905 1.377 . S
C904 C906 1.384 . S
C905 C904 1.377 . S
C905 C911 1.390 . S
C906 H897 0.930 1_455 S
C906 C904 1.384 . S
C906 C907 1.372 . S
C907 C906 1.372 . S
C907 C908 1.400 . S
C907 C912 1.490 . S
C908 H898 0.930 . S
C908 C907 1.400 . S
C908 C911 1.386 . S
H909 C925 0.930 . S
H910 C926 0.931 . S
C911 H899 0.929 . S
C911 C905 1.390 . S
C911 C908 1.386 . S
C912 C907 1.490 . S
C912 C914 1.395 1_455 S
C912 C915 1.403 . S
H913 C919 0.930 . S
C914 H900 0.930 . S
C914 C912 1.395 1_655 S
C914 C917 1.403 . S
C915 C912 1.403 . S
C915 C916 1.524 . S
C915 C919 1.400 . S
C916 H901 0.960 . S
C916 H902 0.960 . S
C916 H903 0.960 . S
C916 C915 1.524 . S
C917 C914 1.403 . S
C917 C918 1.392 . S
C917 C921 1.495 . S
C918 C917 1.392 . S
C918 C919 1.385 1_655 S
C918 C920 1.478 . S
C919 H913 0.930 . S
C919 C915 1.400 . S
C919 C918 1.385 1_455 S
C920 C918 1.478 . S
C920 C922 1.381 . S
C920 C926 1.383 1_655 S
C921 C917 1.495 . S
C921 H927 0.959 . S
C921 H928 0.961 . S
C921 H929 0.960 . S
C922 C920 1.381 . S
C922 C923 1.394 . S
C922 H930 0.930 . S
C923 C922 1.394 . S
C923 C924 1.383 . S
C923 H931 0.929 . S
C924 C923 1.383 . S
C924 C925 1.377 1_655 S
C925 H909 0.930 . S
C925 C924 1.377 1_455 S
C925 C926 1.379 . S
C926 H910 0.931 . S
C926 C920 1.383 1_455 S
C926 C925 1.379 . S
H927 C921 0.959 . S
H928 C921 0.961 . S
H929 C921 0.960 . S
H930 C922 0.930 . S
H931 C923 0.929 . S
H932 C940 0.929 1_455 S
H933 C942 0.930 1_455 S
H934 C944 0.930 . S
H935 C947 0.929 . S
H936 C950 0.930 . S
H937 C952 0.960 . S
H938 C952 0.960 . S
H939 C952 0.960 . S
C940 H932 0.929 1_655 S
C940 C941 1.377 . S
C940 C942 1.384 . S
C941 C940 1.377 . S
C941 C947 1.390 . S
C942 H933 0.930 1_655 S
C942 C940 1.384 . S
C942 C943 1.372 . S
C943 C942 1.372 . S
C943 C944 1.400 . S
C943 C948 1.490 . S
C944 H934 0.930 . S
C944 C943 1.400 . S
C944 C947 1.386 . S
H945 C961 0.930 . S
H946 C962 0.931 . S
C947 H935 0.929 . S
C947 C941 1.390 . S
C947 C944 1.386 . S
C948 C943 1.490 . S
C948 C950 1.395 . S
C948 C951 1.403 . S
H949 C955 0.930 . S
C950 H936 0.930 . S
C950 C948 1.395 . S
C950 C953 1.404 1_655 S
C951 C948 1.403 . S
C951 C952 1.524 . S
C951 C955 1.400 . S
C952 H937 0.960 . S
C952 H938 0.960 . S
C952 H939 0.960 . S
C952 C951 1.524 . S
C953 C950 1.404 1_455 S
C953 C954 1.392 . S
C953 C957 1.495 . S
C954 C953 1.392 . S
C954 C955 1.385 1_455 S
C954 C956 1.478 . S
C955 H949 0.930 . S
C955 C951 1.400 . S
C955 C954 1.385 1_655 S
C956 C954 1.478 . S
C956 C958 1.381 . S
C956 C962 1.383 1_455 S
C957 C953 1.495 . S
C957 H963 0.959 . S
C957 H964 0.961 1_455 S
C957 H965 0.960 . S
C958 C956 1.381 . S
C958 C959 1.394 . S
C958 H966 0.930 . S
C959 C958 1.394 . S
C959 C960 1.383 . S
C959 H967 0.929 . S
C960 C959 1.383 . S
C960 C961 1.377 1_455 S
C961 H945 0.930 . S
C961 C960 1.377 1_655 S
C961 C962 1.379 . S
C962 H946 0.931 . S
C962 C956 1.383 1_655 S
C962 C961 1.379 . S
H963 C957 0.959 . S
H964 C957 0.961 1_655 S
H965 C957 0.960 . S
H966 C958 0.930 . S
H967 C959 0.929 . S
H968 C976 0.929 . S
H969 C978 0.930 1_455 S
H970 C980 0.930 . S
H971 C983 0.929 . S
H972 C986 0.930 . S
H973 C988 0.960 . S
H974 C988 0.960 . S
H975 C988 0.960 . S
C976 H968 0.929 . S
C976 C977 1.377 . S
C976 C978 1.384 . S
C977 C976 1.377 . S
C977 C983 1.390 . S
C978 H969 0.930 1_655 S
C978 C976 1.384 . S
C978 C979 1.372 . S
C979 C978 1.372 . S
C979 C980 1.400 . S
C979 C984 1.490 . S
C980 H970 0.930 . S
C980 C979 1.400 . S
C980 C983 1.386 . S
H981 C997 0.930 . S
H982 C998 0.931 1_655 S
C983 H971 0.929 . S
C983 C977 1.390 . S
C983 C980 1.386 . S
C984 C979 1.490 . S
C984 C986 1.395 1_655 S
C984 C987 1.403 . S
H985 C991 0.930 . S
C986 H972 0.930 . S
C986 C984 1.395 1_455 S
C986 C989 1.403 . S
C987 C984 1.403 . S
C987 C988 1.524 . S
C987 C991 1.400 . S
C988 H973 0.960 . S
C988 H974 0.960 . S
C988 H975 0.960 . S
C988 C987 1.524 . S
C989 C986 1.403 . S
C989 C990 1.392 . S
C989 C993 1.495 . S
C990 C989 1.392 . S
C990 C991 1.385 1_455 S
C990 C992 1.478 . S
C991 H985 0.930 . S
C991 C987 1.400 . S
C991 C990 1.385 1_655 S
C992 C990 1.478 . S
C992 C994 1.381 . S
C992 C998 1.383 . S
C993 C989 1.495 . S
C993 H999 0.959 . S
C993 H1000 0.961 . S
C993 H1001 0.960 . S
C994 C992 1.381 . S
C994 C995 1.394 . S
C994 H1002 0.930 . S
C995 C994 1.394 . S
C995 C996 1.383 . S
C995 H1003 0.929 . S
C996 C995 1.383 . S
C996 C997 1.377 . S
C997 H981 0.930 . S
C997 C996 1.377 . S
C997 C998 1.379 . S
C998 H982 0.931 1_455 S
C998 C992 1.383 . S
C998 C997 1.379 . S
H999 C993 0.959 . S
H1000 C993 0.961 . S
H1001 C993 0.960 . S
H1002 C994 0.930 . S
H1003 C995 0.929 . S
H1004 C1012 0.929 . S
H1005 C1014 0.930 . S
H1006 C1016 0.930 . S
H1007 C1019 0.929 1_455 S
H1008 C1022 0.930 . S
H1009 C1024 0.960 . S
H1010 C1024 0.960 . S
H1011 C1024 0.960 . S
C1012 H1004 0.929 . S
C1012 C1013 1.377 . S
C1012 C1014 1.384 . S
C1013 C1012 1.377 . S
C1013 C1019 1.390 . S
C1014 H1005 0.930 . S
C1014 C1012 1.384 . S
C1014 C1015 1.372 . S
C1015 C1014 1.372 . S
C1015 C1016 1.400 1_655 S
C1015 C1020 1.490 . S
C1016 H1006 0.930 . S
C1016 C1015 1.400 1_455 S
C1016 C1019 1.386 1_455 S
H1017 C1033 0.930 . S
H1018 C1034 0.931 . S
C1019 H1007 0.929 1_655 S
C1019 C1013 1.390 . S
C1019 C1016 1.386 1_655 S
C1020 C1015 1.490 . S
C1020 C1022 1.395 . S
C1020 C1023 1.403 1_655 S
H1021 C1027 0.930 . S
C1022 H1008 0.930 . S
C1022 C1020 1.395 . S
C1022 C1025 1.403 . S
C1023 C1020 1.403 1_455 S
C1023 C1024 1.524 . S
C1023 C1027 1.400 . S
C1024 H1009 0.960 . S
C1024 H1010 0.960 . S
C1024 H1011 0.960 . S
C1024 C1023 1.524 . S
C1025 C1022 1.403 . S
C1025 C1026 1.392 1_655 S
C1025 C1029 1.495 . S
C1026 C1025 1.392 1_455 S
C1026 C1027 1.385 . S
C1026 C1028 1.478 . S
C1027 H1021 0.930 . S
C1027 C1023 1.400 . S
C1027 C1026 1.385 . S
C1028 C1026 1.478 . S
C1028 C1030 1.385 . S
C1028 C1034 1.383 . S
C1029 C1025 1.495 . S
C1029 H1035 0.959 . S
C1029 H1036 0.961 . S
C1029 H1037 0.960 . S
C1030 C1028 1.385 . S
C1030 C1031 1.398 . S
C1030 H1038 0.922 1_455 S
C1031 C1030 1.398 . S
C1031 C1032 1.383 . S
C1031 H1039 0.929 . S
C1032 C1031 1.383 . S
C1032 C1033 1.377 . S
C1033 H1017 0.930 . S
C1033 C1032 1.377 . S
C1033 C1034 1.379 . S
C1034 H1018 0.931 . S
C1034 C1028 1.383 . S
C1034 C1033 1.379 . S
H1035 C1029 0.959 . S
H1036 C1029 0.961 . S
H1037 C1029 0.960 . S
H1038 C1030 0.922 1_655 S
H1039 C1031 0.929 . S
H1040 C1048 0.929 . S
H1041 C1050 0.930 . S
H1042 C1052 0.930 . S
H1043 C1055 0.929 . S
H1044 C1058 0.930 . S
H1045 C1060 0.960 . S
H1046 C1060 0.960 . S
H1047 C1060 0.960 . S
C1048 H1040 0.929 . S
C1048 C1049 1.377 . S
C1048 C1050 1.384 . S
C1049 C1048 1.377 . S
C1049 C1055 1.390 . S
C1050 H1041 0.930 . S
C1050 C1048 1.384 . S
C1050 C1051 1.372 . S
C1051 C1050 1.372 . S
C1051 C1052 1.400 . S
C1051 C1056 1.490 . S
C1052 H1042 0.930 . S
C1052 C1051 1.400 . S
C1052 C1055 1.386 . S
H1053 C1069 0.930 . S
H1054 C1070 0.931 . S
C1055 H1043 0.929 . S
C1055 C1049 1.390 . S
C1055 C1052 1.386 . S
C1056 C1051 1.490 . S
C1056 C1058 1.395 . S
C1056 C1059 1.403 . S
H1057 C1063 0.930 . S
C1058 H1044 0.930 . S
C1058 C1056 1.395 . S
C1058 C1061 1.403 . S
C1059 C1056 1.403 . S
C1059 C1060 1.524 . S
C1059 C1063 1.400 . S
C1060 H1045 0.960 . S
C1060 H1046 0.960 . S
C1060 H1047 0.960 . S
C1060 C1059 1.524 . S
C1061 C1058 1.403 . S
C1061 C1062 1.392 . S
C1061 C1065 1.495 . S
C1062 C1061 1.392 . S
C1062 C1063 1.385 . S
C1062 C1064 1.478 . S
C1063 H1057 0.930 . S
C1063 C1059 1.400 . S
C1063 C1062 1.385 . S
C1064 C1062 1.478 . S
C1064 C1066 1.381 . S
C1064 C1070 1.383 . S
C1065 C1061 1.495 . S
C1065 H1071 0.959 . S
C1065 H1072 0.961 . S
C1065 H1073 0.960 . S
C1066 C1064 1.381 . S
C1066 C1067 1.394 . S
C1066 H1074 0.930 . S
C1067 C1066 1.394 . S
C1067 C1068 1.383 . S
C1067 H1075 0.929 . S
C1068 C1067 1.383 . S
C1068 C1069 1.377 . S
C1069 H1053 0.930 . S
C1069 C1068 1.377 . S
C1069 C1070 1.379 . S
C1070 H1054 0.931 . S
C1070 C1064 1.383 . S
C1070 C1069 1.379 . S
H1071 C1065 0.959 . S
H1072 C1065 0.961 . S
H1073 C1065 0.960 . S
H1074 C1066 0.930 . S
H1075 C1067 0.929 . S
H1076 C1084 0.929 . S
H1077 C1086 0.930 . S
H1078 C1088 0.930 . S
H1079 C1091 0.929 . S
H1080 C1094 0.930 . S
H1081 C1096 0.960 . S
H1082 C1096 0.960 . S
H1083 C1096 0.960 . S
C1084 H1076 0.929 . S
C1084 C1085 1.377 . S
C1084 C1086 1.384 . S
C1085 C1084 1.377 . S
C1085 C1091 1.390 . S
C1086 H1077 0.930 . S
C1086 C1084 1.384 . S
C1086 C1087 1.372 . S
C1087 C1086 1.372 . S
C1087 C1088 1.400 . S
C1087 C1092 1.490 . S
C1088 H1078 0.930 . S
C1088 C1087 1.400 . S
C1088 C1091 1.386 . S
H1089 C1105 0.930 . S
H1090 C1106 0.931 . S
C1091 H1079 0.929 . S
C1091 C1085 1.390 . S
C1091 C1088 1.386 . S
C1092 C1087 1.490 . S
C1092 C1094 1.395 . S
C1092 C1095 1.403 . S
H1093 C1099 0.930 . S
C1094 H1080 0.930 . S
C1094 C1092 1.395 . S
C1094 C1097 1.403 . S
C1095 C1092 1.403 . S
C1095 C1096 1.524 . S
C1095 C1099 1.400 . S
C1096 H1081 0.960 . S
C1096 H1082 0.960 . S
C1096 H1083 0.960 . S
C1096 C1095 1.524 . S
C1097 C1094 1.403 . S
C1097 C1098 1.392 . S
C1097 C1101 1.495 . S
C1098 C1097 1.392 . S
C1098 C1099 1.385 . S
C1098 C1100 1.478 . S
C1099 H1093 0.930 . S
C1099 C1095 1.400 . S
C1099 C1098 1.385 . S
C1100 C1098 1.478 . S
C1100 C1102 1.381 . S
C1100 C1106 1.383 . S
C1101 C1097 1.495 . S
C1101 H1107 0.959 . S
C1101 H1108 0.961 . S
C1101 H1109 0.960 . S
C1102 C1100 1.381 . S
C1102 C1103 1.394 . S
C1102 H1110 0.930 . S
C1103 C1102 1.394 . S
C1103 C1104 1.383 . S
C1103 H1111 0.929 . S
C1104 C1103 1.383 . S
C1104 C1105 1.377 . S
C1105 H1089 0.930 . S
C1105 C1104 1.377 . S
C1105 C1106 1.379 . S
C1106 H1090 0.931 . S
C1106 C1100 1.383 . S
C1106 C1105 1.379 . S
H1107 C1101 0.959 . S
H1108 C1101 0.961 . S
H1109 C1101 0.960 . S
H1110 C1102 0.930 . S
H1111 C1103 0.929 . S
H1112 C1120 0.929 . S
H1113 C1122 0.930 . S
H1114 C1124 0.930 . S
H1115 C1127 0.929 . S
H1116 C1130 0.930 . S
H1117 C1132 0.960 . S
H1118 C1132 0.960 . S
H1119 C1132 0.960 . S
C1120 H1112 0.929 . S
C1120 C1121 1.377 . S
C1120 C1122 1.384 . S
C1121 C1120 1.377 . S
C1121 C1127 1.390 . S
C1122 H1113 0.930 . S
C1122 C1120 1.384 . S
C1122 C1123 1.372 . S
C1123 C1122 1.372 . S
C1123 C1124 1.400 . S
C1123 C1128 1.490 . S
C1124 H1114 0.930 . S
C1124 C1123 1.400 . S
C1124 C1127 1.386 . S
H1125 C1141 0.930 . S
H1126 C1142 0.931 . S
C1127 H1115 0.929 . S
C1127 C1121 1.390 . S
C1127 C1124 1.386 . S
C1128 C1123 1.490 . S
C1128 C1130 1.395 . S
C1128 C1131 1.403 . S
H1129 C1135 0.930 . S
C1130 H1116 0.930 . S
C1130 C1128 1.395 . S
C1130 C1133 1.403 . S
C1131 C1128 1.403 . S
C1131 C1132 1.524 . S
C1131 C1135 1.400 . S
C1132 H1117 0.960 . S
C1132 H1118 0.960 . S
C1132 H1119 0.960 . S
C1132 C1131 1.524 . S
C1133 C1130 1.403 . S
C1133 C1134 1.392 . S
C1133 C1137 1.495 . S
C1134 C1133 1.392 . S
C1134 C1135 1.385 . S
C1134 C1136 1.478 . S
C1135 H1129 0.930 . S
C1135 C1131 1.400 . S
C1135 C1134 1.385 . S
C1136 C1134 1.478 . S
C1136 C1138 1.381 . S
C1136 C1142 1.383 . S
C1137 C1133 1.495 . S
C1137 H1143 0.959 . S
C1137 H1144 0.961 . S
C1137 H1145 0.960 . S
C1138 C1136 1.381 . S
C1138 C1139 1.394 . S
C1138 H1146 0.930 . S
C1139 C1138 1.394 . S
C1139 C1140 1.383 . S
C1139 H1147 0.929 . S
C1140 C1139 1.383 . S
C1140 C1141 1.377 . S
C1141 H1125 0.930 . S
C1141 C1140 1.377 . S
C1141 C1142 1.379 . S
C1142 H1126 0.931 . S
C1142 C1136 1.383 . S
C1142 C1141 1.379 . S
H1143 C1137 0.959 . S
H1144 C1137 0.961 . S
H1145 C1137 0.960 . S
H1146 C1138 0.930 . S
H1147 C1139 0.929 . S
H1148 C1156 0.929 . S
H1149 C1158 0.930 . S
H1150 C1160 0.930 . S
H1151 C1163 0.929 . S
H1152 C1166 0.930 . S
H1153 C1168 0.960 . S
H1154 C1168 0.960 . S
H1155 C1168 0.960 . S
C1156 H1148 0.929 . S
C1156 C1157 1.377 . S
C1156 C1158 1.384 . S
C1157 C1156 1.377 . S
C1157 C1163 1.390 . S
C1158 H1149 0.930 . S
C1158 C1156 1.384 . S
C1158 C1159 1.372 . S
C1159 C1158 1.372 . S
C1159 C1160 1.400 . S
C1159 C1164 1.490 . S
C1160 H1150 0.930 . S
C1160 C1159 1.400 . S
C1160 C1163 1.386 . S
H1161 C1177 0.930 . S
H1162 C1178 0.931 . S
C1163 H1151 0.929 . S
C1163 C1157 1.390 . S
C1163 C1160 1.386 . S
C1164 C1159 1.490 . S
C1164 C1166 1.395 . S
C1164 C1167 1.403 . S
H1165 C1171 0.930 . S
C1166 H1152 0.930 . S
C1166 C1164 1.395 . S
C1166 C1169 1.403 . S
C1167 C1164 1.403 . S
C1167 C1168 1.524 . S
C1167 C1171 1.400 . S
C1168 H1153 0.960 . S
C1168 H1154 0.960 . S
C1168 H1155 0.960 . S
C1168 C1167 1.524 . S
C1169 C1166 1.403 . S
C1169 C1170 1.392 . S
C1169 C1173 1.495 . S
C1170 C1169 1.392 . S
C1170 C1171 1.385 . S
C1170 C1172 1.478 . S
C1171 H1165 0.930 . S
C1171 C1167 1.400 . S
C1171 C1170 1.385 . S
C1172 C1170 1.478 . S
C1172 C1174 1.381 . S
C1172 C1178 1.383 . S
C1173 C1169 1.495 . S
C1173 H1179 0.959 . S
C1173 H1180 0.961 . S
C1173 H1181 0.960 . S
C1174 C1172 1.381 . S
C1174 C1175 1.394 . S
C1174 H1182 0.930 . S
C1175 C1174 1.394 . S
C1175 C1176 1.383 . S
C1175 H1183 0.929 . S
C1176 C1175 1.383 . S
C1176 C1177 1.377 . S
C1177 H1161 0.930 . S
C1177 C1176 1.377 . S
C1177 C1178 1.379 . S
C1178 H1162 0.931 . S
C1178 C1172 1.383 . S
C1178 C1177 1.379 . S
H1179 C1173 0.959 . S
H1180 C1173 0.961 . S
H1181 C1173 0.960 . S
H1182 C1174 0.930 . S
H1183 C1175 0.929 . S
C329 C15 0.592 . S
C348 C5 0.676 . S
C365 C45 0.587 . S
C384 C55 0.672 . S
C401 C89 5.032 . S
C420 C99 5.023 . S
C437 C129 5.032 . S
C456 C139 5.022 . S
C473 C175 0.578 . S
C492 C165 0.507 . S
C509 C215 0.563 . S
C528 C205 0.607 . S
C545 C249 5.031 . S
C564 C259 5.026 . S
C581 C299 5.033 . S
C600 C289 5.031 . S
C617 C49 4.745 . S
C636 C9 4.715 . S
C653 C135 0.506 . S
C672 C85 0.560 . S
C689 C169 4.726 . S
C708 C209 4.745 . S
C725 C245 0.503 . S
C744 C295 0.434 . S
C761 C19 4.256 . S
C780 C219 4.263 . S
C797 C179 4.258 . S
C816 C59 4.269 1_554 S
C833 C95 0.464 . S
C852 C285 0.492 . S
C869 C125 0.450 . S
C888 C255 0.457 . S
C905 C8 1.543 . S
C924 C138 1.628 . S
C941 C48 1.555 . S
C960 C98 1.599 . S
C977 C58 1.592 . S
C996 C88 1.556 . S
C1013 C128 1.570 . S
C1032 C18 1.631 . S
C1049 C168 1.535 . S
C1068 C298 1.613 . S
C1085 C208 1.563 . S
C1104 C258 1.640 . S
C1121 C218 1.591 . S
C1140 C248 1.559 . S
C1157 C288 1.564 . S
C1176 C178 1.605 . S
