# Generated by pormake.
# Topology zfs, (5)-cn, num edge types: 1
# Building blocks:
#     Node 0, Type 0, BuildingBlock: BEQFEK_clean_sbu_0, # of connection points: 5
#     Node 1, Type 0, BuildingBlock: BEQFEK_clean_sbu_0, # of connection points: 5
#     Node 2, Type 0, BuildingBlock: BEQFEK_clean_sbu_0, # of connection points: 5
#     Node 3, Type 0, BuildingBlock: BEQFEK_clean_sbu_0, # of connection points: 5
#     Node 4, Type 0, BuildingBlock: BEQFEK_clean_sbu_0, # of connection points: 5
#     Node 5, Type 0, BuildingBlock: BEQFEK_clean_sbu_0, # of connection points: 5
#     Node 6, Type 0, BuildingBlock: BEQFEK_clean_sbu_0, # of connection points: 5
#     Node 7, Type 0, BuildingBlock: BEQFEK_clean_sbu_0, # of connection points: 5
#     Edge 8, Type (0, 0), BuildingBlock: EYOCIG_clean_linker_4, # of connection points: 2
#     Edge 9, Type (0, 0), BuildingBlock: EYOCIG_clean_linker_4, # of connection points: 2
#     Edge 10, Type (0, 0), BuildingBlock: EYOCIG_clean_linker_4, # of connection points: 2
#     Edge 11, Type (0, 0), BuildingBlock: EYOCIG_clean_linker_4, # of connection points: 2
#     Edge 12, Type (0, 0), BuildingBlock: EYOCIG_clean_linker_4, # of connection points: 2
#     Edge 13, Type (0, 0), BuildingBlock: EYOCIG_clean_linker_4, # of connection points: 2
#     Edge 14, Type (0, 0), BuildingBlock: EYOCIG_clean_linker_4, # of connection points: 2
#     Edge 15, Type (0, 0), BuildingBlock: EYOCIG_clean_linker_4, # of connection points: 2
#     Edge 16, Type (0, 0), BuildingBlock: EYOCIG_clean_linker_4, # of connection points: 2
#     Edge 17, Type (0, 0), BuildingBlock: EYOCIG_clean_linker_4, # of connection points: 2
#     Edge 18, Type (0, 0), BuildingBlock: EYOCIG_clean_linker_4, # of connection points: 2
#     Edge 19, Type (0, 0), BuildingBlock: EYOCIG_clean_linker_4, # of connection points: 2
#     Edge 20, Type (0, 0), BuildingBlock: EYOCIG_clean_linker_4, # of connection points: 2
#     Edge 21, Type (0, 0), BuildingBlock: EYOCIG_clean_linker_4, # of connection points: 2
#     Edge 22, Type (0, 0), BuildingBlock: EYOCIG_clean_linker_4, # of connection points: 2
#     Edge 23, Type (0, 0), BuildingBlock: EYOCIG_clean_linker_4, # of connection points: 2
#     Edge 24, Type (0, 0), BuildingBlock: EYOCIG_clean_linker_4, # of connection points: 2
#     Edge 25, Type (0, 0), BuildingBlock: EYOCIG_clean_linker_4, # of connection points: 2
#     Edge 26, Type (0, 0), BuildingBlock: EYOCIG_clean_linker_4, # of connection points: 2
#     Edge 27, Type (0, 0), BuildingBlock: EYOCIG_clean_linker_4, # of connection points: 2
# Relax obj value: 0.339
# Max RMSD: 0.162
# Mean RMSD: 0.162
data_MOF--net-zfs--node1-BEQFEK_clean_sbu_0--edge1-EYOCIG_clean_linker_4
_symmetry_space_group_name_H-M    P1
_symmetry_Int_Tables_number       1
_symmetry_cell_setting            triclinic
loop_
_symmetry_equiv_pos_as_xyz
'x, y, z'
_cell_length_a     25.135633
_cell_length_b     25.129782
_cell_length_c     34.60118
_cell_angle_alpha  90.00912
_cell_angle_beta   89.974908
_cell_angle_gamma 90.01031
loop_
_atom_site_label
_atom_site_type_symbol
_atom_site_fract_x
_atom_site_fract_y
_atom_site_fract_z
_atom_type_partial_charge
Co0 Co 0.1414 0.2796 0.26228 0.0
Co1 Co 0.05651 0.30749 0.20229 0.0
C2 C 0.11808 0.39267 0.24281 0.0
O3 O 0.14536 0.35877 0.26124 0.0
O4 O 0.08214 0.37829 0.21944 0.0
C5 C 0.24173 0.28864 0.29581 0.0
O6 O 0.25077 0.32065 0.26659 0.0
C7 C 0.03361 0.35562 0.12978 0.0
C8 C 0.95783 0.31889 0.11166 0.0
C9 C 0.99799 0.35279 0.09971 0.0
N10 N 1.01581 0.32431 0.15839 0.0
N11 N 0.96984 0.30332 0.14791 0.0
C12 C 0.08675 0.38278 0.12984 0.0
H13 H 0.11631 0.35869 0.14597 0.0
H14 H 0.10128 0.39013 0.10002 0.0
H15 H 0.08279 0.42171 0.14471 0.0
C16 C 0.18288 0.21143 0.19704 0.0
N17 N 0.14911 0.24769 0.21238 0.0
N18 N 0.11284 0.25997 0.18649 0.0
C19 C 0.1228 0.23212 0.15372 0.0
C20 C 0.16741 0.20048 0.15925 0.0
C21 C 0.22755 0.18616 0.21881 0.0
H22 H 0.21484 0.17762 0.24889 0.0
H23 H 0.26142 0.21442 0.22006 0.0
H24 H 0.24094 0.14891 0.20455 0.0
O25 O 0.07352 0.25709 0.28814 0.0
O26 O 1.01114 0.27547 0.24454 0.0
H27 H 0.04668 0.23158 0.12581 0.0
H28 H 0.09918 0.20081 0.09798 0.0
C29 C 0.08934 0.2339 0.11798 0.0
H30 H 0.09665 0.27192 0.10265 0.0
H31 H 0.94838 0.2761 0.16452 0.0
O32 O 0.19935 0.26131 0.29709 0.0
C33 C 0.02489 0.25791 0.27771 0.0
Co34 Co 0.76799 0.14184 0.51224 0.0
Co35 Co 0.73947 0.0568 0.45238 0.0
C36 C 0.65477 0.11881 0.4931 0.0
O37 O 0.68883 0.14611 0.51137 0.0
O38 O 0.66891 0.08269 0.46977 0.0
C39 C 0.76017 0.24276 0.54513 0.0
O40 O 0.72842 0.25186 0.51579 0.0
C41 C 0.69042 0.03263 0.38025 0.0
C42 C 0.73014 0.95874 0.36131 0.0
C43 C 0.69456 0.99765 0.34981 0.0
N44 N 0.72267 1.01572 0.40858 0.0
N45 N 0.74542 0.97079 0.39762 0.0
C46 C 0.66142 0.08478 0.38077 0.0
H47 H 0.62393 0.07988 0.39734 0.0
H48 H 0.68571 0.11553 0.39554 0.0
H49 H 0.65121 0.09832 0.35116 0.0
C50 C 0.83596 0.18285 0.44684 0.0
N51 N 0.79964 0.14923 0.46226 0.0
N52 N 0.7869 0.11312 0.43635 0.0
C53 C 0.81441 0.12314 0.40344 0.0
C54 C 0.84644 0.1675 0.40895 0.0
C55 C 0.86171 0.22728 0.4686 0.0
H56 H 0.87106 0.21414 0.49844 0.0
H57 H 0.8334 0.26105 0.47056 0.0
H58 H 0.89853 0.24101 0.45394 0.0
O59 O 0.79035 0.07404 0.5382 0.0
O60 O 0.77163 1.0116 0.49469 0.0
H61 H 0.81572 0.04742 0.37501 0.0
H62 H 0.84354 0.10107 0.34671 0.0
C63 C 0.81178 0.09007 0.36752 0.0
H64 H 0.77281 0.09641 0.35329 0.0
H65 H 0.7738 0.95036 0.41386 0.0
O66 O 0.78678 0.19995 0.54679 0.0
C67 C 0.78934 0.02538 0.52782 0.0
Co68 Co 0.90541 0.76812 0.76216 0.0
Co69 Co 0.9907 0.74033 0.70234 0.0
C70 C 0.92908 0.65508 0.74281 0.0
O71 O 0.9016 0.68894 0.76115 0.0
O72 O 0.9651 0.66951 0.7195 0.0
C73 C 0.80465 0.75937 0.7952 0.0
O74 O 0.79578 0.72746 0.76589 0.0
C75 C 1.01433 0.69207 0.62995 0.0
C76 C 0.08979 0.72948 0.61183 0.0
C77 C 0.04996 0.6952 0.59989 0.0
N78 N 0.03175 0.72361 0.65854 0.0
N79 N 0.07755 0.74501 0.64807 0.0
C80 C 0.96141 0.66448 0.62995 0.0
H81 H 0.93151 0.68855 0.64579 0.0
H82 H 0.94722 0.6566 0.60012 0.0
H83 H 0.96554 0.62579 0.64511 0.0
C84 C 0.86419 0.83616 0.69684 0.0
N85 N 0.89795 0.79997 0.71224 0.0
N86 N 0.93434 0.7877 0.68641 0.0
C87 C 0.92444 0.81547 0.65361 0.0
C88 C 0.87978 0.84708 0.65906 0.0
C89 C 0.81941 0.86141 0.71854 0.0
H90 H 0.8321 0.8703 0.74856 0.0
H91 H 0.78569 0.83297 0.71998 0.0
H92 H 0.80579 0.89844 0.70413 0.0
O93 O 0.97311 0.79072 0.7882 0.0
O94 O 0.03574 0.77243 0.74473 0.0
H95 H 1.00061 0.8163 0.62573 0.0
H96 H 0.94796 0.84646 0.59773 0.0
C97 C 0.95799 0.81361 0.61789 0.0
H98 H 0.95099 0.7754 0.60273 0.0
H99 H 0.09869 0.7725 0.66465 0.0
O100 O 0.84719 0.78643 0.79677 0.0
C101 C 1.0218 0.78994 0.77789 0.0
Co102 Co 0.2794 0.90578 0.01221 0.0
Co103 Co 0.30723 0.99082 0.95225 0.0
C104 C 0.39243 0.92922 0.99272 0.0
O105 O 0.35856 0.90185 0.01112 0.0
O106 O 0.37803 0.96519 0.96937 0.0
C107 C 0.28836 0.80536 0.04565 0.0
O108 O 0.32036 0.79635 0.01641 0.0
C109 C 0.35522 1.01345 0.87964 0.0
C110 C 0.31853 0.08917 0.86136 0.0
C111 C 0.35229 0.04889 0.84945 0.0
N112 N 0.32407 0.03145 0.90827 0.0
N113 N 0.3031 0.07739 0.8977 0.0
C114 C 0.38226 0.96025 0.87977 0.0
H115 H 0.35814 0.93078 0.89598 0.0
H116 H 0.38955 0.9456 0.84997 0.0
H117 H 0.42121 0.96419 0.89458 0.0
C118 C 0.21113 0.86442 0.94704 0.0
N119 N 0.24743 0.89815 0.96235 0.0
N120 N 0.25966 0.9345 0.93648 0.0
C121 C 0.23171 0.92463 0.90376 0.0
C122 C 0.20008 0.88 0.90929 0.0
C123 C 0.18589 0.81969 0.9688 0.0
H124 H 0.17743 0.83231 0.99891 0.0
H125 H 0.21413 0.7858 0.96996 0.0
H126 H 0.14861 0.80634 0.95459 0.0
O127 O 0.25695 0.97364 0.03814 0.0
O128 O 0.27526 0.03615 0.99458 0.0
H129 H 0.23114 1.00086 0.87596 0.0
H130 H 0.20015 0.94848 0.84816 0.0
C131 C 0.23336 0.95822 0.86807 0.0
H132 H 0.27127 0.9509 0.8526 0.0
H133 H 0.27596 0.09896 0.9143 0.0
O134 O 0.26109 0.84777 0.04699 0.0
C135 C 0.25776 1.02231 0.02777 0.0
Co136 Co 0.14154 0.76823 0.25373 0.0
Co137 Co 0.05649 0.74009 0.31363 0.0
C138 C 0.11838 0.65511 0.27307 0.0
O139 O 0.1457 0.68906 0.2547 0.0
O140 O 0.08235 0.66941 0.29642 0.0
C141 C 0.24242 0.76018 0.22087 0.0
O142 O 0.25145 0.72851 0.25028 0.0
C143 C 0.03365 0.69187 0.3861 0.0
C144 C 0.95767 0.72815 0.40424 0.0
C145 C 0.99801 0.6945 0.41618 0.0
N146 N 1.0157 0.72306 0.35749 0.0
N147 N 0.9696 0.74378 0.36798 0.0
C148 C 0.08697 0.66511 0.38611 0.0
H149 H 0.11634 0.68922 0.36979 0.0
H150 H 0.1016 0.65822 0.41596 0.0
H151 H 0.08323 0.62597 0.37152 0.0
C152 C 0.18266 0.83641 0.31897 0.0
N153 N 0.14898 0.80009 0.30363 0.0
N154 N 0.11268 0.78772 0.3295 0.0
C155 C 0.12255 0.81557 0.36228 0.0
C156 C 0.16711 0.84731 0.35676 0.0
C157 C 0.22727 0.86184 0.29719 0.0
H158 H 0.21426 0.87111 0.26731 0.0
H159 H 0.2609 0.83336 0.29536 0.0
H160 H 0.24113 0.89868 0.31176 0.0
O161 O 0.07371 0.79056 0.22779 0.0
O162 O 1.01122 0.77202 0.27132 0.0
H163 H 0.0464 0.81566 0.39021 0.0
H164 H 0.09867 0.84692 0.41796 0.0
C165 C 0.08906 0.81368 0.39803 0.0
H166 H 0.09663 0.77577 0.41343 0.0
H167 H 0.94797 0.77084 0.35137 0.0
O168 O 0.19965 0.78683 0.21913 0.0
C169 C 0.02505 0.7896 0.23816 0.0
Co170 Co 0.27926 0.14202 0.50378 0.0
Co171 Co 0.30746 0.05669 0.56346 0.0
C172 C 0.3924 0.11874 0.52305 0.0
O173 O 0.35843 0.14614 0.50478 0.0
O174 O 0.37815 0.08254 0.54628 0.0
C175 C 0.2873 0.24307 0.47107 0.0
O176 O 0.31913 0.25206 0.50038 0.0
C177 C 0.35625 0.0316 0.6355 0.0
C178 C 0.31594 0.95786 0.65409 0.0
C179 C 0.35181 0.99641 0.66577 0.0
N180 N 0.32389 1.01517 0.60709 0.0
N181 N 0.30079 0.97032 0.61783 0.0
C182 C 0.38564 0.08355 0.63525 0.0
H183 H 0.42307 0.07855 0.61862 0.0
H184 H 0.36155 0.11463 0.62068 0.0
H185 H 0.396 0.09672 0.66492 0.0
C186 C 0.21124 0.18287 0.56919 0.0
N187 N 0.24752 0.14925 0.55374 0.0
N188 N 0.26014 0.11302 0.57958 0.0
C189 C 0.2326 0.12296 0.61249 0.0
C190 C 0.20066 0.16739 0.60704 0.0
C191 C 0.18563 0.22743 0.5475 0.0
H192 H 0.17629 0.2144 0.51762 0.0
H193 H 0.21401 0.26115 0.54564 0.0
H194 H 0.14881 0.24117 0.56215 0.0
O195 O 0.25678 0.0744 0.47762 0.0
O196 O 0.27531 1.01178 0.52101 0.0
H197 H 0.23086 0.04717 0.64077 0.0
H198 H 0.2035 0.1009 0.66923 0.0
C199 C 0.23511 0.08977 0.64834 0.0
H200 H 0.27418 0.09579 0.6625 0.0
H201 H 0.27226 0.95024 0.60149 0.0
O202 O 0.26063 0.20029 0.46936 0.0
C203 C 0.25767 0.02571 0.4879 0.0
Co204 Co 0.90582 0.27956 0.75385 0.0
Co205 Co 0.99087 0.30738 0.81375 0.0
C206 C 0.92939 0.39263 0.7733 0.0
O207 O 0.90202 0.35875 0.7549 0.0
O208 O 0.96533 0.37823 0.79666 0.0
C209 C 0.8054 0.28861 0.72043 0.0
O210 O 0.79643 0.3207 0.74961 0.0
C211 C 1.01459 0.35543 0.88622 0.0
C212 C 0.0902 0.31808 0.90403 0.0
C213 C 0.05042 0.35231 0.91615 0.0
N214 N 0.03188 0.32397 0.85755 0.0
N215 N 0.07774 0.30259 0.86783 0.0
C216 C 0.96174 0.38315 0.88634 0.0
H217 H 0.93174 0.35917 0.87053 0.0
H218 H 0.94763 0.39106 0.91619 0.0
H219 H 0.96593 0.42184 0.87117 0.0
C220 C 0.86449 0.21135 0.81908 0.0
N221 N 0.8982 0.24765 0.80375 0.0
N222 N 0.93451 0.25995 0.82962 0.0
C223 C 0.92461 0.23207 0.86237 0.0
C224 C 0.88003 0.20036 0.85686 0.0
C225 C 0.81982 0.18602 0.79732 0.0
H226 H 0.83258 0.17733 0.76728 0.0
H227 H 0.78601 0.21434 0.79596 0.0
H228 H 0.80633 0.14887 0.81164 0.0
O229 O 0.97356 0.25694 0.72789 0.0
O230 O 0.03604 0.2753 0.77142 0.0
H231 H 1.00074 0.23115 0.89024 0.0
H232 H 0.94802 0.20106 0.91825 0.0
C233 C 0.95812 0.23389 0.89809 0.0
H234 H 0.95116 0.27211 0.91324 0.0
H235 H 0.09879 0.27516 0.85113 0.0
O236 O 0.84776 0.26127 0.71913 0.0
C237 C 1.02221 0.25773 0.73827 0.0
Co238 Co 0.76787 0.90537 1.0037 0.0
Co239 Co 0.74009 0.99055 0.0636 0.0
C240 C 0.65483 0.92901 0.02314 0.0
O241 O 0.68869 0.9016 1.00475 0.0
O242 O 0.66926 0.96498 0.0465 0.0
C243 C 0.75891 0.80475 0.97045 0.0
O244 O 0.7269 0.79584 0.9997 0.0
C245 C 0.69216 1.01403 0.13618 0.0
C246 C 0.72918 0.08983 0.154 0.0
C247 C 0.6952 0.04985 0.16615 0.0
N248 N 0.72344 0.03152 0.10746 0.0
N249 N 0.74462 0.07749 0.11776 0.0
C250 C 0.66469 0.96103 0.1363 0.0
H251 H 0.6886 0.93123 0.12023 0.0
H252 H 0.65724 0.94672 0.16616 0.0
H253 H 0.6258 0.96512 0.12142 0.0
C254 C 0.83593 0.86404 0.06898 0.0
N255 N 0.79973 0.89781 0.05361 0.0
N256 N 0.78748 0.93419 0.07946 0.0
C257 C 0.8153 0.9243 0.11223 0.0
C258 C 0.84689 0.87962 0.10675 0.0
C259 C 0.86117 0.81926 0.04727 0.0
H260 H 0.86972 0.83184 0.01717 0.0
H261 H 0.83288 0.7854 0.04608 0.0
H262 H 0.89839 0.80588 0.06153 0.0
O263 O 0.79051 0.97311 0.97771 0.0
O264 O 0.77218 0.03568 0.02122 0.0
H265 H 0.816 1.0005 0.14007 0.0
H266 H 0.84656 0.94799 0.16797 0.0
C267 C 0.81355 0.95787 0.14793 0.0
H268 H 0.77549 0.95069 0.16325 0.0
H269 H 0.77188 0.09872 0.10103 0.0
O270 O 0.78611 0.84721 0.96902 0.0
C271 C 0.78973 1.02179 0.98806 0.0
C272 C 0.1299 0.55178 0.26082 0.0
C273 C 0.12584 0.59923 0.26564 0.0
C274 C 0.12978 0.49601 0.25495 0.0
C275 C 0.12559 0.44856 0.25015 0.0
C276 C 0.55149 0.1307 0.50527 0.0
C277 C 0.59893 0.12652 0.50051 0.0
C278 C 0.49571 0.13067 0.51102 0.0
C279 C 0.44826 0.12644 0.51574 0.0
C280 C 0.91778 0.55173 0.75511 0.0
C281 C 0.92178 0.59917 0.75024 0.0
C282 C 0.91787 0.49596 0.76106 0.0
C283 C 0.922 0.44853 0.76592 0.0
C284 C 0.49576 0.91772 1.00493 0.0
C285 C 0.44833 0.92184 1.00008 0.0
C286 C 0.55151 0.91767 0.01088 0.0
C287 C 0.59894 0.9217 0.01574 0.0
C288 C 0.29327 0.28833 0.40351 0.0
C289 C 0.29411 0.2721 0.43608 0.0
C290 C 0.28594 0.29552 0.36371 0.0
C291 C 0.27 0.29592 0.33107 0.0
C292 C 0.75403 0.28796 0.61272 0.0
C293 C 0.75331 0.27171 0.58015 0.0
C294 C 0.76121 0.29528 0.65252 0.0
C295 C 0.77709 0.29581 0.68518 0.0
C296 C 0.75237 0.7601 0.90267 0.0
C297 C 0.75178 0.77617 0.9353 0.0
C298 C 0.75969 0.75286 0.86287 0.0
C299 C 0.77587 0.75227 0.83028 0.0
C300 C 0.29506 0.76107 0.11353 0.0
C301 C 0.29557 0.77698 0.08087 0.0
C302 C 0.28774 0.75388 0.15333 0.0
C303 C 0.27145 0.75323 0.18589 0.0
C304 C 1.01768 0.3793 0.02761 0.0
C305 C 1.00881 0.36726 0.06054 0.0
C306 C 0.03075 0.37906 0.98821 0.0
C307 C 0.03989 0.36677 0.95536 0.0
C308 C 0.66851 0.03031 0.23826 0.0
C309 C 0.68073 0.03931 0.20537 0.0
C310 C 0.66819 1.01746 0.2777 0.0
C311 C 0.68004 1.00874 0.31069 0.0
C312 C 0.03031 0.6687 0.5278 0.0
C313 C 0.03919 0.68075 0.56072 0.0
C314 C 1.0177 0.66843 0.48834 0.0
C315 C 1.00896 0.68021 0.45535 0.0
C316 C 0.37831 1.01586 0.73789 0.0
C317 C 0.36633 1.00719 0.70493 0.0
C318 C 0.37839 0.02866 0.77734 0.0
C319 C 0.36654 0.03777 0.81028 0.0
C320 C 0.20663 0.13129 0.10778 0.0
C321 C 0.18999 0.16229 0.13197 0.0
C322 C 0.22466 0.09456 0.07902 0.0
C323 C 0.23998 0.06256 0.05507 0.0
C324 C 0.95246 0.22466 0.32878 0.0
C325 C 0.98457 0.24005 0.30493 0.0
C326 C 0.91564 0.20658 0.35745 0.0
C327 C 0.88462 0.18993 0.38161 0.0
C328 C 0.82251 0.953 0.57892 0.0
C329 C 0.80715 0.98507 0.55504 0.0
C330 C 0.84059 0.91623 0.60761 0.0
C331 C 0.85725 0.88523 0.63176 0.0
C332 C 0.09398 0.823 0.82916 0.0
C333 C 0.06197 0.80771 0.80523 0.0
C334 C 0.13075 0.84095 0.8579 0.0
C335 C 0.16182 0.8575 0.88206 0.0
C336 C 0.20627 0.91662 0.40811 0.0
C337 C 0.18961 0.88554 0.38401 0.0
C338 C 0.22439 0.95345 0.43675 0.0
C339 C 0.23978 0.98551 0.46062 0.0
C340 C 0.1314 0.2064 0.65852 0.0
C341 C 0.16246 0.18978 0.63437 0.0
C342 C 0.09456 0.22446 0.68717 0.0
C343 C 0.06247 0.23985 0.71102 0.0
C344 C 0.84096 0.13094 0.9082 0.0
C345 C 0.85755 0.16206 0.88409 0.0
C346 C 0.82293 0.09409 0.93687 0.0
C347 C 0.80758 0.06202 0.96076 0.0
C348 C 0.95276 0.82256 0.18696 0.0
C349 C 0.98479 0.8073 0.21088 0.0
C350 C 0.91603 0.84052 0.15821 0.0
C351 C 0.88504 0.8571 0.13403 0.0
loop_
_geom_bond_atom_site_label_1
_geom_bond_atom_site_label_2
_geom_bond_distance
_geom_bond_site_symmetry_2
_ccdc_geom_bond_type
Co0 O3 1.970 . S
Co0 N17 1.989 . S
Co0 O25 1.967 . S
Co0 O32 1.920 . S
Co1 O4 1.966 . S
Co1 N10 2.022 . S
Co1 N18 1.993 . S
Co1 O26 1.941 . S
C2 O3 1.258 . S
C2 O4 1.263 . S
O3 Co0 1.970 . S
O3 C2 1.258 . S
O4 Co1 1.966 . S
O4 C2 1.263 . S
C5 O6 1.235 . S
C5 O32 1.289 . S
O6 C5 1.235 . S
C7 C9 1.400 . S
C7 N10 1.351 . S
C7 C12 1.501 . S
C8 C9 1.393 . S
C8 N11 1.342 . S
C9 C7 1.400 . S
C9 C8 1.393 . S
N10 Co1 2.022 . S
N10 C7 1.351 . S
N10 N11 1.365 . S
N11 C8 1.342 . S
N11 N10 1.365 . S
N11 H31 0.862 1_455 S
C12 C7 1.501 . S
C12 H13 0.961 . S
C12 H14 0.961 . S
C12 H15 0.960 . S
H13 C12 0.961 . S
H14 C12 0.961 . S
H15 C12 0.960 . S
C16 N17 1.342 . S
C16 C20 1.401 . S
C16 C21 1.499 . S
N17 Co0 1.989 . S
N17 C16 1.342 . S
N17 N18 1.388 . S
N18 Co1 1.993 . S
N18 N17 1.388 . S
N18 C19 1.346 . S
C19 N18 1.346 . S
C19 C20 1.396 . S
C19 C29 1.510 . S
C20 C16 1.401 . S
C20 C19 1.396 . S
C21 C16 1.499 . S
C21 H22 0.959 . S
C21 H23 0.960 . S
C21 H24 0.961 . S
H22 C21 0.959 . S
H23 C21 0.960 . S
H24 C21 0.961 . S
O25 Co0 1.967 . S
O25 C33 1.258 . S
O26 Co1 1.941 . S
O26 C33 1.266 . S
H27 C29 0.959 . S
H28 C29 0.961 . S
C29 C19 1.510 . S
C29 H27 0.959 . S
C29 H28 0.961 . S
C29 H30 0.960 . S
H30 C29 0.960 . S
H31 N11 0.862 1_655 S
O32 Co0 1.920 . S
O32 C5 1.289 . S
C33 O25 1.258 . S
C33 O26 1.266 . S
Co34 O37 1.970 . S
Co34 N51 1.989 . S
Co34 O59 1.967 . S
Co34 O66 1.920 . S
Co35 O38 1.966 . S
Co35 N44 2.022 . S
Co35 N52 1.993 . S
Co35 O60 1.941 . S
C36 O37 1.258 . S
C36 O38 1.263 . S
O37 Co34 1.970 . S
O37 C36 1.258 . S
O38 Co35 1.966 . S
O38 C36 1.263 . S
C39 O40 1.235 . S
C39 O66 1.289 . S
O40 C39 1.235 . S
C41 C43 1.400 . S
C41 N44 1.351 . S
C41 C46 1.501 . S
C42 C43 1.393 . S
C42 N45 1.342 . S
C43 C41 1.400 . S
C43 C42 1.393 . S
N44 Co35 2.022 . S
N44 C41 1.351 . S
N44 N45 1.365 . S
N45 C42 1.342 . S
N45 N44 1.365 . S
N45 H65 0.862 1_545 S
C46 C41 1.501 . S
C46 H47 0.961 . S
C46 H48 0.961 . S
C46 H49 0.960 . S
H47 C46 0.961 . S
H48 C46 0.961 . S
H49 C46 0.960 . S
C50 N51 1.342 . S
C50 C54 1.401 . S
C50 C55 1.499 . S
N51 Co34 1.989 . S
N51 C50 1.342 . S
N51 N52 1.388 . S
N52 Co35 1.993 . S
N52 N51 1.388 . S
N52 C53 1.346 . S
C53 N52 1.346 . S
C53 C54 1.396 . S
C53 C63 1.510 . S
C54 C50 1.401 . S
C54 C53 1.396 . S
C55 C50 1.499 . S
C55 H56 0.959 . S
C55 H57 0.960 . S
C55 H58 0.961 . S
H56 C55 0.959 . S
H57 C55 0.960 . S
H58 C55 0.961 . S
O59 Co34 1.967 . S
O59 C67 1.258 . S
O60 Co35 1.941 . S
O60 C67 1.266 . S
H61 C63 0.959 . S
H62 C63 0.961 . S
C63 C53 1.510 . S
C63 H61 0.959 . S
C63 H62 0.961 . S
C63 H64 0.960 . S
H64 C63 0.960 . S
H65 N45 0.862 1_565 S
O66 Co34 1.920 . S
O66 C39 1.289 . S
C67 O59 1.258 . S
C67 O60 1.266 . S
Co68 O71 1.970 . S
Co68 N85 1.989 . S
Co68 O93 1.967 . S
Co68 O100 1.920 . S
Co69 O72 1.966 . S
Co69 N78 2.022 . S
Co69 N86 1.993 . S
Co69 O94 1.941 . S
C70 O71 1.258 . S
C70 O72 1.263 . S
O71 Co68 1.970 . S
O71 C70 1.258 . S
O72 Co69 1.966 . S
O72 C70 1.263 . S
C73 O74 1.235 . S
C73 O100 1.289 . S
O74 C73 1.235 . S
C75 C77 1.400 . S
C75 N78 1.351 . S
C75 C80 1.501 . S
C76 C77 1.393 . S
C76 N79 1.342 . S
C77 C75 1.400 . S
C77 C76 1.393 . S
N78 Co69 2.022 . S
N78 C75 1.351 . S
N78 N79 1.365 . S
N79 C76 1.342 . S
N79 N78 1.365 . S
N79 H99 0.862 1_655 S
C80 C75 1.501 . S
C80 H81 0.961 . S
C80 H82 0.961 . S
C80 H83 0.960 . S
H81 C80 0.961 . S
H82 C80 0.961 . S
H83 C80 0.960 . S
C84 N85 1.342 . S
C84 C88 1.401 . S
C84 C89 1.499 . S
N85 Co68 1.989 . S
N85 C84 1.342 . S
N85 N86 1.388 . S
N86 Co69 1.993 . S
N86 N85 1.388 . S
N86 C87 1.346 . S
C87 N86 1.346 . S
C87 C88 1.396 . S
C87 C97 1.510 . S
C88 C84 1.401 . S
C88 C87 1.396 . S
C89 C84 1.499 . S
C89 H90 0.959 . S
C89 H91 0.960 . S
C89 H92 0.961 . S
H90 C89 0.959 . S
H91 C89 0.960 . S
H92 C89 0.961 . S
O93 Co68 1.967 . S
O93 C101 1.258 . S
O94 Co69 1.941 . S
O94 C101 1.266 . S
H95 C97 0.959 . S
H96 C97 0.961 . S
C97 C87 1.510 . S
C97 H95 0.959 . S
C97 H96 0.961 . S
C97 H98 0.960 . S
H98 C97 0.960 . S
H99 N79 0.862 1_455 S
O100 Co68 1.920 . S
O100 C73 1.289 . S
C101 O93 1.258 . S
C101 O94 1.266 . S
Co102 O105 1.972 . S
Co102 N119 1.989 1_554 S
Co102 O127 1.967 . S
Co102 O134 1.920 . S
Co103 O106 1.966 . S
Co103 N112 2.022 . S
Co103 N120 1.993 . S
Co103 O128 1.941 . S
C104 O105 1.251 1_556 S
C104 O106 1.263 . S
O105 Co102 1.972 . S
O105 C104 1.251 1_554 S
O106 Co103 1.966 . S
O106 C104 1.263 . S
C107 O108 1.235 . S
C107 O134 1.289 . S
O108 C107 1.235 . S
C109 C111 1.400 . S
C109 N112 1.351 . S
C109 C114 1.501 . S
C110 C111 1.393 . S
C110 N113 1.342 . S
C111 C109 1.400 . S
C111 C110 1.393 . S
N112 Co103 2.022 . S
N112 C109 1.351 . S
N112 N113 1.365 . S
N113 C110 1.342 . S
N113 N112 1.365 . S
N113 H133 0.862 1_565 S
C114 C109 1.501 . S
C114 H115 0.961 . S
C114 H116 0.961 . S
C114 H117 0.960 . S
H115 C114 0.961 . S
H116 C114 0.961 . S
H117 C114 0.960 . S
C118 N119 1.342 . S
C118 C122 1.401 . S
C118 C123 1.499 . S
N119 Co102 1.989 1_556 S
N119 C118 1.342 . S
N119 N120 1.388 . S
N120 Co103 1.993 . S
N120 N119 1.388 . S
N120 C121 1.346 . S
C121 N120 1.346 . S
C121 C122 1.396 . S
C121 C131 1.510 . S
C122 C118 1.401 . S
C122 C121 1.396 . S
C123 C118 1.499 . S
C123 H124 0.959 1_556 S
C123 H125 0.960 . S
C123 H126 0.961 . S
H124 C123 0.959 1_554 S
H125 C123 0.960 . S
H126 C123 0.961 . S
O127 Co102 1.967 . S
O127 C135 1.258 . S
O128 Co103 1.941 . S
O128 C135 1.266 1_556 S
H129 C131 0.959 . S
H130 C131 0.961 . S
C131 C121 1.510 . S
C131 H129 0.959 . S
C131 H130 0.961 . S
C131 H132 0.960 . S
H132 C131 0.960 . S
H133 N113 0.862 1_545 S
O134 Co102 1.920 . S
O134 C107 1.289 . S
C135 O127 1.258 . S
C135 O128 1.266 1_554 S
Co136 O139 1.970 . S
Co136 N153 1.989 . S
Co136 O161 1.967 . S
Co136 O168 1.920 . S
Co137 O140 1.966 . S
Co137 N146 2.022 . S
Co137 N154 1.993 . S
Co137 O162 1.941 . S
C138 O139 1.258 . S
C138 O140 1.263 . S
O139 Co136 1.970 . S
O139 C138 1.258 . S
O140 Co137 1.966 . S
O140 C138 1.263 . S
C141 O142 1.235 . S
C141 O168 1.289 . S
O142 C141 1.235 . S
C143 C145 1.400 . S
C143 N146 1.351 . S
C143 C148 1.501 . S
C144 C145 1.393 . S
C144 N147 1.342 . S
C145 C143 1.400 . S
C145 C144 1.393 . S
N146 Co137 2.022 . S
N146 C143 1.351 . S
N146 N147 1.365 . S
N147 C144 1.342 . S
N147 N146 1.365 . S
N147 H167 0.862 1_455 S
C148 C143 1.501 . S
C148 H149 0.961 . S
C148 H150 0.961 . S
C148 H151 0.960 . S
H149 C148 0.961 . S
H150 C148 0.961 . S
H151 C148 0.960 . S
C152 N153 1.342 . S
C152 C156 1.401 . S
C152 C157 1.499 . S
N153 Co136 1.989 . S
N153 C152 1.342 . S
N153 N154 1.388 . S
N154 Co137 1.993 . S
N154 N153 1.388 . S
N154 C155 1.346 . S
C155 N154 1.346 . S
C155 C156 1.396 . S
C155 C165 1.510 . S
C156 C152 1.401 . S
C156 C155 1.396 . S
C157 C152 1.499 . S
C157 H158 0.959 . S
C157 H159 0.960 . S
C157 H160 0.961 . S
H158 C157 0.959 . S
H159 C157 0.960 . S
H160 C157 0.961 . S
O161 Co136 1.967 . S
O161 C169 1.258 . S
O162 Co137 1.941 . S
O162 C169 1.266 . S
H163 C165 0.959 . S
H164 C165 0.961 . S
C165 C155 1.510 . S
C165 H163 0.959 . S
C165 H164 0.961 . S
C165 H166 0.960 . S
H166 C165 0.960 . S
H167 N147 0.862 1_655 S
O168 Co136 1.920 . S
O168 C141 1.289 . S
C169 O161 1.258 . S
C169 O162 1.266 . S
Co170 O173 1.970 . S
Co170 N187 1.989 . S
Co170 O195 1.967 . S
Co170 O202 1.920 . S
Co171 O174 1.966 . S
Co171 N180 2.022 . S
Co171 N188 1.993 . S
Co171 O196 1.941 . S
C172 O173 1.258 . S
C172 O174 1.263 . S
O173 Co170 1.970 . S
O173 C172 1.258 . S
O174 Co171 1.966 . S
O174 C172 1.263 . S
C175 O176 1.235 . S
C175 O202 1.289 . S
O176 C175 1.235 . S
C177 C179 1.400 . S
C177 N180 1.351 . S
C177 C182 1.501 . S
C178 C179 1.393 . S
C178 N181 1.342 . S
C179 C177 1.400 . S
C179 C178 1.393 . S
N180 Co171 2.022 . S
N180 C177 1.351 . S
N180 N181 1.365 . S
N181 C178 1.342 . S
N181 N180 1.365 . S
N181 H201 0.862 1_545 S
C182 C177 1.501 . S
C182 H183 0.961 . S
C182 H184 0.961 . S
C182 H185 0.960 . S
H183 C182 0.961 . S
H184 C182 0.961 . S
H185 C182 0.960 . S
C186 N187 1.342 . S
C186 C190 1.401 . S
C186 C191 1.499 . S
N187 Co170 1.989 . S
N187 C186 1.342 . S
N187 N188 1.388 . S
N188 Co171 1.993 . S
N188 N187 1.388 . S
N188 C189 1.346 . S
C189 N188 1.346 . S
C189 C190 1.396 . S
C189 C199 1.510 . S
C190 C186 1.401 . S
C190 C189 1.396 . S
C191 C186 1.499 . S
C191 H192 0.959 . S
C191 H193 0.960 . S
C191 H194 0.961 . S
H192 C191 0.959 . S
H193 C191 0.960 . S
H194 C191 0.961 . S
O195 Co170 1.967 . S
O195 C203 1.258 . S
O196 Co171 1.941 . S
O196 C203 1.266 . S
H197 C199 0.959 . S
H198 C199 0.961 . S
C199 C189 1.510 . S
C199 H197 0.959 . S
C199 H198 0.961 . S
C199 H200 0.960 . S
H200 C199 0.960 . S
H201 N181 0.862 1_565 S
O202 Co170 1.920 . S
O202 C175 1.289 . S
C203 O195 1.258 . S
C203 O196 1.266 . S
Co204 O207 1.970 . S
Co204 N221 1.989 . S
Co204 O229 1.967 . S
Co204 O236 1.920 . S
Co205 O208 1.966 . S
Co205 N214 2.022 . S
Co205 N222 1.993 . S
Co205 O230 1.941 . S
C206 O207 1.258 . S
C206 O208 1.263 . S
O207 Co204 1.970 . S
O207 C206 1.258 . S
O208 Co205 1.966 . S
O208 C206 1.263 . S
C209 O210 1.235 . S
C209 O236 1.289 . S
O210 C209 1.235 . S
C211 C213 1.400 . S
C211 N214 1.351 . S
C211 C216 1.501 . S
C212 C213 1.393 . S
C212 N215 1.342 . S
C213 C211 1.400 . S
C213 C212 1.393 . S
N214 Co205 2.022 . S
N214 C211 1.351 . S
N214 N215 1.365 . S
N215 C212 1.342 . S
N215 N214 1.365 . S
N215 H235 0.862 1_655 S
C216 C211 1.501 . S
C216 H217 0.961 . S
C216 H218 0.961 . S
C216 H219 0.960 . S
H217 C216 0.961 . S
H218 C216 0.961 . S
H219 C216 0.960 . S
C220 N221 1.342 . S
C220 C224 1.401 . S
C220 C225 1.499 . S
N221 Co204 1.989 . S
N221 C220 1.342 . S
N221 N222 1.388 . S
N222 Co205 1.993 . S
N222 N221 1.388 . S
N222 C223 1.346 . S
C223 N222 1.346 . S
C223 C224 1.396 . S
C223 C233 1.510 . S
C224 C220 1.401 . S
C224 C223 1.396 . S
C225 C220 1.499 . S
C225 H226 0.959 . S
C225 H227 0.960 . S
C225 H228 0.961 . S
H226 C225 0.959 . S
H227 C225 0.960 . S
H228 C225 0.961 . S
O229 Co204 1.967 . S
O229 C237 1.258 . S
O230 Co205 1.941 . S
O230 C237 1.266 . S
H231 C233 0.959 . S
H232 C233 0.961 . S
C233 C223 1.510 . S
C233 H231 0.959 . S
C233 H232 0.961 . S
C233 H234 0.960 . S
H234 C233 0.960 . S
H235 N215 0.862 1_455 S
O236 Co204 1.920 . S
O236 C209 1.289 . S
C237 O229 1.258 . S
C237 O230 1.266 . S
Co238 O241 1.972 . S
Co238 N255 1.989 1_556 S
Co238 O263 1.967 . S
Co238 O270 1.920 . S
Co239 O242 1.966 . S
Co239 N248 2.022 . S
Co239 N256 1.993 . S
Co239 O264 1.941 . S
C240 O241 1.251 1_554 S
C240 O242 1.263 . S
O241 Co238 1.972 . S
O241 C240 1.251 1_556 S
O242 Co239 1.966 . S
O242 C240 1.263 . S
C243 O244 1.235 . S
C243 O270 1.289 . S
O244 C243 1.235 . S
C245 C247 1.400 . S
C245 N248 1.351 . S
C245 C250 1.501 . S
C246 C247 1.393 . S
C246 N249 1.342 . S
C247 C245 1.400 . S
C247 C246 1.393 . S
N248 Co239 2.022 . S
N248 C245 1.351 . S
N248 N249 1.365 . S
N249 C246 1.342 . S
N249 N248 1.365 . S
N249 H269 0.862 1_565 S
C250 C245 1.501 . S
C250 H251 0.961 . S
C250 H252 0.961 . S
C250 H253 0.960 . S
H251 C250 0.961 . S
H252 C250 0.961 . S
H253 C250 0.960 . S
C254 N255 1.342 . S
C254 C258 1.401 . S
C254 C259 1.499 . S
N255 Co238 1.989 1_554 S
N255 C254 1.342 . S
N255 N256 1.388 . S
N256 Co239 1.993 . S
N256 N255 1.388 . S
N256 C257 1.346 . S
C257 N256 1.346 . S
C257 C258 1.396 . S
C257 C267 1.510 . S
C258 C254 1.401 . S
C258 C257 1.396 . S
C259 C254 1.499 . S
C259 H260 0.959 1_554 S
C259 H261 0.960 . S
C259 H262 0.961 . S
H260 C259 0.959 1_556 S
H261 C259 0.960 . S
H262 C259 0.961 . S
O263 Co238 1.967 . S
O263 C271 1.258 . S
O264 Co239 1.941 . S
O264 C271 1.266 1_554 S
H265 C267 0.959 . S
H266 C267 0.961 . S
C267 C257 1.510 . S
C267 H265 0.959 . S
C267 H266 0.961 . S
C267 H268 0.960 . S
H268 C267 0.960 . S
H269 N249 0.862 1_545 S
O270 Co238 1.920 . S
O270 C243 1.289 . S
C271 O263 1.258 . S
C271 O264 1.266 1_556 S
C272 C273 1.170 . S
C272 C274 1.380 . S
C273 C272 1.170 . S
C274 C272 1.380 . S
C274 C275 1.170 . S
C275 C274 1.170 . S
C276 C277 1.170 . S
C276 C278 1.380 . S
C277 C276 1.170 . S
C278 C276 1.380 . S
C278 C279 1.170 . S
C279 C278 1.170 . S
C280 C281 1.170 . S
C280 C282 1.380 . S
C281 C280 1.170 . S
C282 C280 1.380 . S
C282 C283 1.170 . S
C283 C282 1.170 . S
C284 C285 1.170 . S
C284 C286 1.380 1_556 S
C285 C284 1.170 . S
C286 C284 1.380 1_554 S
C286 C287 1.170 . S
C287 C286 1.170 . S
C288 C289 1.170 . S
C288 C290 1.380 . S
C289 C288 1.170 . S
C290 C288 1.380 . S
C290 C291 1.170 . S
C291 C290 1.170 . S
C292 C293 1.170 . S
C292 C294 1.380 . S
C293 C292 1.170 . S
C294 C292 1.380 . S
C294 C295 1.170 . S
C295 C294 1.170 . S
C296 C297 1.170 . S
C296 C298 1.380 . S
C297 C296 1.170 . S
C298 C296 1.380 . S
C298 C299 1.170 . S
C299 C298 1.170 . S
C300 C301 1.170 . S
C300 C302 1.380 . S
C301 C300 1.170 . S
C302 C300 1.380 . S
C302 C303 1.170 . S
C303 C302 1.170 . S
C304 C305 1.170 . S
C304 C306 1.380 1_454 S
C305 C304 1.170 . S
C306 C304 1.380 1_656 S
C306 C307 1.170 . S
C307 C306 1.170 . S
C308 C309 1.170 . S
C308 C310 1.380 1_565 S
C309 C308 1.170 . S
C310 C308 1.380 1_545 S
C310 C311 1.170 . S
C311 C310 1.170 . S
C312 C313 1.170 . S
C312 C314 1.380 1_655 S
C313 C312 1.170 . S
C314 C312 1.380 1_455 S
C314 C315 1.170 . S
C315 C314 1.170 . S
C316 C317 1.170 . S
C316 C318 1.380 1_545 S
C317 C316 1.170 . S
C318 C316 1.380 1_565 S
C318 C319 1.170 . S
C319 C318 1.170 . S
C320 C321 1.170 . S
C320 C322 1.380 . S
C321 C320 1.170 . S
C322 C320 1.380 . S
C322 C323 1.170 . S
C323 C322 1.170 . S
C324 C325 1.170 . S
C324 C326 1.380 . S
C325 C324 1.170 . S
C326 C324 1.380 . S
C326 C327 1.170 . S
C327 C326 1.170 . S
C328 C329 1.170 . S
C328 C330 1.380 . S
C329 C328 1.170 . S
C330 C328 1.380 . S
C330 C331 1.170 . S
C331 C330 1.170 . S
C332 C333 1.170 . S
C332 C334 1.380 . S
C333 C332 1.170 . S
C334 C332 1.380 . S
C334 C335 1.170 . S
C335 C334 1.170 . S
C336 C337 1.170 . S
C336 C338 1.380 . S
C337 C336 1.170 . S
C338 C336 1.380 . S
C338 C339 1.170 . S
C339 C338 1.170 . S
C340 C341 1.170 . S
C340 C342 1.380 . S
C341 C340 1.170 . S
C342 C340 1.380 . S
C342 C343 1.170 . S
C343 C342 1.170 . S
C344 C345 1.170 . S
C344 C346 1.380 . S
C345 C344 1.170 . S
C346 C344 1.380 . S
C346 C347 1.170 . S
C347 C346 1.170 . S
C348 C349 1.170 . S
C348 C350 1.380 . S
C349 C348 1.170 . S
C350 C348 1.380 . S
C350 C351 1.170 . S
C351 C350 1.170 . S
C273 C138 1.127 . S
C275 C2 1.133 . S
C277 C36 1.129 . S
C279 C172 1.134 . S
C281 C70 1.127 . S
C283 C206 1.129 . S
C285 C104 1.132 . S
C287 C240 1.126 . S
C289 C175 0.821 . S
C291 C5 0.796 . S
C293 C39 0.818 . S
C295 C209 0.800 . S
C297 C243 0.803 . S
C299 C73 0.813 . S
C301 C107 0.797 . S
C303 C141 0.821 . S
C305 C9 0.852 . S
C307 C213 0.827 . S
C309 C247 0.836 . S
C311 C43 0.862 . S
C313 C77 0.874 . S
C315 C145 0.893 . S
C317 C179 0.815 . S
C319 C111 0.835 . S
C321 C20 2.365 . S
C323 C135 2.363 1_545 S
C325 C33 2.369 1_655 S
C327 C54 2.356 . S
C329 C67 2.362 1_565 S
C331 C88 2.360 . S
C333 C101 2.364 1_455 S
C335 C122 2.356 . S
C337 C156 2.362 . S
C339 C203 2.362 1_565 S
C341 C190 2.358 . S
C343 C237 2.370 1_455 S
C345 C224 2.365 . S
C347 C271 2.364 1_545 S
C349 C169 2.365 1_655 S
C351 C258 2.365 . S
