# Generated by pormake.
# Topology wlb, (5)-cn, num edge types: 1
# Building blocks:
#     Node 0, Type 0, BuildingBlock: BEQFEK_clean_sbu_0, # of connection points: 5
#     Node 1, Type 0, BuildingBlock: BEQFEK_clean_sbu_0, # of connection points: 5
#     Node 2, Type 0, BuildingBlock: BEQFEK_clean_sbu_0, # of connection points: 5
#     Node 3, Type 0, BuildingBlock: BEQFEK_clean_sbu_0, # of connection points: 5
#     Node 4, Type 0, BuildingBlock: BEQFEK_clean_sbu_0, # of connection points: 5
#     Node 5, Type 0, BuildingBlock: BEQFEK_clean_sbu_0, # of connection points: 5
#     Node 6, Type 0, BuildingBlock: BEQFEK_clean_sbu_0, # of connection points: 5
#     Node 7, Type 0, BuildingBlock: BEQFEK_clean_sbu_0, # of connection points: 5
#     Node 8, Type 0, BuildingBlock: BEQFEK_clean_sbu_0, # of connection points: 5
#     Node 9, Type 0, BuildingBlock: BEQFEK_clean_sbu_0, # of connection points: 5
#     Node 10, Type 0, BuildingBlock: BEQFEK_clean_sbu_0, # of connection points: 5
#     Node 11, Type 0, BuildingBlock: BEQFEK_clean_sbu_0, # of connection points: 5
#     Node 12, Type 0, BuildingBlock: BEQFEK_clean_sbu_0, # of connection points: 5
#     Node 13, Type 0, BuildingBlock: BEQFEK_clean_sbu_0, # of connection points: 5
#     Node 14, Type 0, BuildingBlock: BEQFEK_clean_sbu_0, # of connection points: 5
#     Node 15, Type 0, BuildingBlock: BEQFEK_clean_sbu_0, # of connection points: 5
#     Node 16, Type 0, BuildingBlock: BEQFEK_clean_sbu_0, # of connection points: 5
#     Node 17, Type 0, BuildingBlock: BEQFEK_clean_sbu_0, # of connection points: 5
#     Edge 18, Type (0, 0), BuildingBlock: TEMPAE_clean_linker_10, # of connection points: 2
#     Edge 19, Type (0, 0), BuildingBlock: TEMPAE_clean_linker_10, # of connection points: 2
#     Edge 20, Type (0, 0), BuildingBlock: TEMPAE_clean_linker_10, # of connection points: 2
#     Edge 21, Type (0, 0), BuildingBlock: TEMPAE_clean_linker_10, # of connection points: 2
#     Edge 22, Type (0, 0), BuildingBlock: TEMPAE_clean_linker_10, # of connection points: 2
#     Edge 23, Type (0, 0), BuildingBlock: TEMPAE_clean_linker_10, # of connection points: 2
#     Edge 24, Type (0, 0), BuildingBlock: TEMPAE_clean_linker_10, # of connection points: 2
#     Edge 25, Type (0, 0), BuildingBlock: TEMPAE_clean_linker_10, # of connection points: 2
#     Edge 26, Type (0, 0), BuildingBlock: TEMPAE_clean_linker_10, # of connection points: 2
#     Edge 27, Type (0, 0), BuildingBlock: TEMPAE_clean_linker_10, # of connection points: 2
#     Edge 28, Type (0, 0), BuildingBlock: TEMPAE_clean_linker_10, # of connection points: 2
#     Edge 29, Type (0, 0), BuildingBlock: TEMPAE_clean_linker_10, # of connection points: 2
#     Edge 30, Type (0, 0), BuildingBlock: TEMPAE_clean_linker_10, # of connection points: 2
#     Edge 31, Type (0, 0), BuildingBlock: TEMPAE_clean_linker_10, # of connection points: 2
#     Edge 32, Type (0, 0), BuildingBlock: TEMPAE_clean_linker_10, # of connection points: 2
#     Edge 33, Type (0, 0), BuildingBlock: TEMPAE_clean_linker_10, # of connection points: 2
#     Edge 34, Type (0, 0), BuildingBlock: TEMPAE_clean_linker_10, # of connection points: 2
#     Edge 35, Type (0, 0), BuildingBlock: TEMPAE_clean_linker_10, # of connection points: 2
#     Edge 36, Type (0, 0), BuildingBlock: TEMPAE_clean_linker_10, # of connection points: 2
#     Edge 37, Type (0, 0), BuildingBlock: TEMPAE_clean_linker_10, # of connection points: 2
#     Edge 38, Type (0, 0), BuildingBlock: TEMPAE_clean_linker_10, # of connection points: 2
#     Edge 39, Type (0, 0), BuildingBlock: TEMPAE_clean_linker_10, # of connection points: 2
#     Edge 40, Type (0, 0), BuildingBlock: TEMPAE_clean_linker_10, # of connection points: 2
#     Edge 41, Type (0, 0), BuildingBlock: TEMPAE_clean_linker_10, # of connection points: 2
#     Edge 42, Type (0, 0), BuildingBlock: TEMPAE_clean_linker_10, # of connection points: 2
#     Edge 43, Type (0, 0), BuildingBlock: TEMPAE_clean_linker_10, # of connection points: 2
#     Edge 44, Type (0, 0), BuildingBlock: TEMPAE_clean_linker_10, # of connection points: 2
#     Edge 45, Type (0, 0), BuildingBlock: TEMPAE_clean_linker_10, # of connection points: 2
#     Edge 46, Type (0, 0), BuildingBlock: TEMPAE_clean_linker_10, # of connection points: 2
#     Edge 47, Type (0, 0), BuildingBlock: TEMPAE_clean_linker_10, # of connection points: 2
#     Edge 48, Type (0, 0), BuildingBlock: TEMPAE_clean_linker_10, # of connection points: 2
#     Edge 49, Type (0, 0), BuildingBlock: TEMPAE_clean_linker_10, # of connection points: 2
#     Edge 50, Type (0, 0), BuildingBlock: TEMPAE_clean_linker_10, # of connection points: 2
#     Edge 51, Type (0, 0), BuildingBlock: TEMPAE_clean_linker_10, # of connection points: 2
#     Edge 52, Type (0, 0), BuildingBlock: TEMPAE_clean_linker_10, # of connection points: 2
#     Edge 53, Type (0, 0), BuildingBlock: TEMPAE_clean_linker_10, # of connection points: 2
#     Edge 54, Type (0, 0), BuildingBlock: TEMPAE_clean_linker_10, # of connection points: 2
#     Edge 55, Type (0, 0), BuildingBlock: TEMPAE_clean_linker_10, # of connection points: 2
#     Edge 56, Type (0, 0), BuildingBlock: TEMPAE_clean_linker_10, # of connection points: 2
#     Edge 57, Type (0, 0), BuildingBlock: TEMPAE_clean_linker_10, # of connection points: 2
#     Edge 58, Type (0, 0), BuildingBlock: TEMPAE_clean_linker_10, # of connection points: 2
#     Edge 59, Type (0, 0), BuildingBlock: TEMPAE_clean_linker_10, # of connection points: 2
#     Edge 60, Type (0, 0), BuildingBlock: TEMPAE_clean_linker_10, # of connection points: 2
#     Edge 61, Type (0, 0), BuildingBlock: TEMPAE_clean_linker_10, # of connection points: 2
#     Edge 62, Type (0, 0), BuildingBlock: TEMPAE_clean_linker_10, # of connection points: 2
# Relax obj value: 0.388
# Max RMSD: 0.217
# Mean RMSD: 0.217
data_MOF--net-wlb--node1-BEQFEK_clean_sbu_0--edge1-TEMPAE_clean_linker_10
_symmetry_space_group_name_H-M    P1
_symmetry_Int_Tables_number       1
_symmetry_cell_setting            triclinic
loop_
_symmetry_equiv_pos_as_xyz
'x, y, z'
_cell_length_a     54.216029
_cell_length_b     54.22993
_cell_length_c     37.850998
_cell_angle_alpha  90.004531
_cell_angle_beta   89.966142
_cell_angle_gamma 120.10774
loop_
_atom_site_label
_atom_site_type_symbol
_atom_site_fract_x
_atom_site_fract_y
_atom_site_fract_z
_atom_type_partial_charge
Co0 Co 0.06805 0.17107 0.19719 0.0
Co1 Co 0.02576 0.18949 0.20958 0.0
C2 C 0.03732 0.1749 0.13619 0.0
O3 O 0.0603 0.17526 0.14489 0.0
O4 O 0.02299 0.17884 0.15965 0.0
C5 C 0.10173 0.14626 0.17648 0.0
O6 O 0.09509 0.14927 0.14402 0.0
C7 C 0.00844 0.22823 0.19252 0.0
C8 C 0.98241 0.22598 0.2389 0.0
C9 C -0.00439 0.24161 0.2087 0.0
N10 N 0.00436 0.20669 0.21336 0.0
N11 N 0.9881 0.20462 0.24043 0.0
C12 C 0.02873 0.23841 0.16175 0.0
H13 H 0.0447 0.2315 0.16451 0.0
H14 H 0.04034 0.26198 0.15962 0.0
H15 H 0.01657 0.22921 0.13701 0.0
C16 C 0.10166 0.22081 0.25071 0.0
N17 N 0.08027 0.20476 0.22758 0.0
N18 N 0.0628 0.21481 0.227 0.0
C19 C 0.07318 0.23841 0.24735 0.0
C20 C 0.09772 0.24273 0.26465 0.0
C21 C 0.12401 0.21387 0.26145 0.0
H22 H 0.11711 0.19133 0.25533 0.0
H23 H 0.14392 0.22779 0.24665 0.0
H24 H 0.12858 0.21781 0.29012 0.0
O25 O 0.03033 0.13725 0.21125 0.0
O26 O 0.00639 0.15492 0.23746 0.0
H27 H 0.04151 0.24927 0.26194 0.0
H28 H 0.07709 0.27977 0.25789 0.0
C29 C 0.06179 0.25855 0.24699 0.0
H30 H 0.05826 0.26265 0.21954 0.0
H31 H 0.98277 0.19009 0.26111 0.0
O32 O 0.09462 0.15671 0.20185 0.0
C33 C 0.00857 0.13367 0.22839 0.0
Co34 Co 0.80403 0.89314 0.19308 0.0
Co35 Co 0.79256 0.83577 0.21579 0.0
C36 C 0.80157 0.85576 0.13787 0.0
O37 O 0.79863 0.87744 0.14312 0.0
O38 O 0.80049 0.84048 0.16396 0.0
C39 C 0.81791 0.9575 0.19179 0.0
O40 O 0.7935 0.95706 0.19025 0.0
C41 C 0.75407 0.77846 0.20687 0.0
C42 C 0.76445 0.7574 0.2498 0.0
C43 C 0.7445 0.75269 0.22375 0.0
N44 N 0.77771 0.79758 0.22329 0.0
N45 N 0.7845 0.78509 0.24829 0.0
C46 C 0.7392 0.78662 0.17974 0.0
H47 H 0.74698 0.80978 0.18055 0.0
H48 H 0.7158 0.77497 0.18407 0.0
H49 H 0.74383 0.78155 0.15301 0.0
C50 C 0.75376 0.87743 0.24525 0.0
N51 N 0.7719 0.87234 0.22587 0.0
N52 N 0.76672 0.84658 0.23353 0.0
C53 C 0.74519 0.83428 0.25718 0.0
C54 C 0.73623 0.85343 0.26607 0.0
C55 C 0.7549 0.90551 0.24616 0.0
H56 H 0.77736 0.92282 0.24911 0.0
H57 H 0.74675 0.90875 0.22074 0.0
H58 H 0.742 0.90662 0.2682 0.0
O59 O 0.83956 0.89228 0.20686 0.0
O60 O 0.8281 0.8552 0.24087 0.0
H61 H 0.74978 0.80077 0.28076 0.0
H62 H 0.71592 0.79805 0.29031 0.0
C63 C 0.73269 0.80416 0.27012 0.0
H64 H 0.72208 0.78944 0.24788 0.0
H65 H 0.80169 0.79575 0.26553 0.0
O66 O 0.81848 0.9344 0.1927 0.0
C67 C 0.84684 0.87794 0.22651 0.0
Co68 Co 0.08414 0.90759 0.19491 0.0
Co69 Co 0.14465 0.94977 0.20995 0.0
C70 C 0.11815 0.93812 0.13512 0.0
O71 O 0.0954 0.91491 0.14295 0.0
O72 O 0.13634 0.95194 0.1591 0.0
C73 C 0.02486 0.87165 0.17737 0.0
O74 O 0.03372 0.87324 0.14473 0.0
C75 C 0.1992 0.96019 0.19726 0.0
C76 C 0.22559 -0.00597 0.23572 0.0
C77 C 0.22596 0.97474 0.21188 0.0
N78 N 0.1834 0.96951 0.2129 0.0
N79 N 0.19913 0.99017 0.23525 0.0
C80 C 0.18731 0.93527 0.17246 0.0
H81 H 0.1638 0.92244 0.1745 0.0
H82 H 0.19669 0.92157 0.17781 0.0
H83 H 0.19246 0.94326 0.14491 0.0
C84 C 0.09964 0.87018 0.24136 0.0
N85 N 0.10519 0.89416 0.22339 0.0
N86 N 0.13175 0.91358 0.22955 0.0
C87 C 0.1438 0.90313 0.25171 0.0
C88 C 0.12418 0.87511 0.25964 0.0
C89 C 0.07119 0.84361 0.24249 0.0
H90 H 0.05891 0.8417 0.2182 0.0
H91 H 0.07375 0.82465 0.24557 0.0
H92 H 0.05916 0.84462 0.26564 0.0
O93 O 0.08966 0.94647 0.20948 0.0
O94 O 0.1309 0.96984 0.23687 0.0
H95 H 0.17409 0.91074 0.2935 0.0
H96 H 0.18898 0.92075 0.25011 0.0
C97 C 0.17267 0.92028 0.26819 0.0
H98 H 0.17736 0.9423 0.27334 0.0
H99 H 0.19137 0.00024 0.25163 0.0
O100 O 0.04302 0.88232 0.20202 0.0
C101 C 0.10814 0.9684 0.22634 0.0
Co102 Co 0.16523 0.07157 0.83825 0.0
Co103 Co 0.18541 0.03088 0.82099 0.0
C104 C 0.17132 0.03965 0.8967 0.0
O105 O 0.16896 0.06124 0.88848 0.0
O106 O 0.17705 0.02653 0.87311 0.0
C107 C 0.14859 0.11922 0.8433 0.0
O108 O 0.17178 0.14156 0.85526 0.0
C109 C 0.22431 0.01162 0.82758 0.0
C110 C 0.21311 0.9813 0.783 0.0
C111 C 0.23221 -0.0055 0.81031 0.0
N112 N 0.20195 0.0096 0.81056 0.0
N113 N 0.19498 0.99136 0.78412 0.0
C114 C 0.23683 0.02895 0.86039 0.0
H115 H 0.2324 0.04681 0.86143 0.0
H116 H 0.26012 0.03748 0.86198 0.0
H117 H 0.22682 0.01506 0.88372 0.0
C118 C 0.21738 0.11039 0.79039 0.0
N119 N 0.19992 0.08635 0.80902 0.0
N120 N 0.20909 0.06829 0.80441 0.0
C121 C 0.23244 0.08005 0.78347 0.0
C122 C 0.23878 0.10721 0.77387 0.0
C123 C 0.2129 0.13528 0.78672 0.0
H124 H 0.18984 0.12811 0.78811 0.0
H125 H 0.22389 0.15035 0.80876 0.0
H126 H 0.22194 0.1466 0.76141 0.0
O127 O 0.13182 0.03415 0.82246 0.0
O128 O 0.15057 0.01216 0.79448 0.0
H129 H 0.23221 0.04442 0.75859 0.0
H130 H 0.26437 0.07785 0.75094 0.0
C131 C 0.24766 0.06507 0.77071 0.0
H132 H 0.25812 0.06115 0.7934 0.0
H133 H 0.17822 0.98619 0.7666 0.0
O134 O 0.14812 0.0959 0.83798 0.0
C135 C 0.12891 0.01313 0.80437 0.0
Co136 Co 0.90144 0.08994 0.84291 0.0
Co137 Co 0.94621 0.14825 0.81875 0.0
C138 C 0.93725 0.12793 0.8969 0.0
O139 O 0.9128 0.1059 0.89178 0.0
O140 O 0.95123 0.1439 0.87097 0.0
C141 C 0.85189 0.02512 0.84734 0.0
O142 O 0.82785 0.0254 0.84906 0.0
C143 C 0.96795 0.20786 0.82218 0.0
C144 C -0.00139 0.22442 0.77768 0.0
C145 C 0.98562 0.23229 0.80333 0.0
N146 N 0.96947 0.18635 0.80736 0.0
N147 N 0.98797 0.19619 0.78104 0.0
C148 C 0.95019 0.20462 0.85415 0.0
H149 H 0.94476 0.18496 0.86883 0.0
H150 H 0.92985 0.20305 0.84577 0.0
H151 H 0.96158 0.22318 0.87209 0.0
C152 C 0.86411 0.10593 0.796 0.0
N153 N 0.88852 0.11069 0.81228 0.0
N154 N 0.90881 0.13639 0.8035 0.0
C155 C 0.89844 0.14851 0.78134 0.0
C156 C 0.86958 0.13003 0.77608 0.0
C157 C 0.83618 0.07897 0.79939 0.0
H158 H 0.83177 0.07317 0.8277 0.0
H159 H 0.81858 0.08119 0.78783 0.0
H160 H 0.83748 0.06158 0.78563 0.0
O161 O 0.93829 0.09202 0.82795 0.0
O162 O 0.96125 0.12857 0.7924 0.0
H163 H 0.90555 0.17744 0.73781 0.0
H164 H 0.9213 0.1941 0.77921 0.0
C165 C 0.91647 0.17583 0.76172 0.0
H166 H 0.93662 0.17717 0.75321 0.0
H167 H -0.0072 0.18357 0.76493 0.0
O168 O 0.87555 0.04826 0.84517 0.0
C169 C 0.95918 0.10687 0.80739 0.0
Co170 Co 0.88956 0.81136 0.84124 0.0
Co171 Co 0.82927 0.79372 0.82383 0.0
C172 C 0.852 0.8035 0.89994 0.0
O173 O 0.87542 0.80463 0.8918 0.0
O174 O 0.83423 0.80019 0.87591 0.0
C175 C 0.95225 0.82498 0.84261 0.0
O176 O 0.94848 0.79914 0.84432 0.0
C177 C 0.77265 0.75229 0.83334 0.0
C178 C 0.75044 0.76022 0.78947 0.0
C179 C 0.74699 0.74103 0.81592 0.0
N180 N 0.7908 0.77632 0.81681 0.0
N181 N 0.77756 0.78164 0.79128 0.0
C182 C 0.78168 0.73842 0.86077 0.0
H183 H 0.80487 0.74632 0.85892 0.0
H184 H 0.76992 0.71489 0.85776 0.0
H185 H 0.77724 0.74382 0.8874 0.0
C186 C 0.87593 0.7618 0.78791 0.0
N187 N 0.86977 0.77866 0.80852 0.0
N188 N 0.84284 0.77075 0.80343 0.0
C189 C 0.83101 0.74877 0.78032 0.0
C190 C 0.8515 0.7423 0.76916 0.0
C191 C 0.905 0.76555 0.78394 0.0
H192 H 0.92109 0.78859 0.78298 0.0
H193 H 0.90948 0.75589 0.8071 0.0
H194 H 0.90658 0.75499 0.75962 0.0
O195 O 0.88526 0.84535 0.82926 0.0
O196 O 0.84503 0.83005 0.80041 0.0
H197 H 0.79427 0.74869 0.75912 0.0
H198 H 0.79458 0.71625 0.75033 0.0
C199 C 0.80014 0.73336 0.76987 0.0
H200 H 0.78702 0.72259 0.79329 0.0
H201 H 0.78745 0.79878 0.7738 0.0
O202 O 0.93123 0.82911 0.84123 0.0
C203 C 0.86811 0.85036 0.81203 0.0
Co204 Co 0.73795 0.50742 0.52819 0.0
Co205 Co 0.69358 0.52217 0.54706 0.0
C206 C 0.70446 0.51034 0.4704 0.0
O207 O 0.7279 0.51111 0.47749 0.0
O208 O 0.6903 0.51346 0.49507 0.0
C209 C 0.76837 0.48024 0.50624 0.0
O210 O 0.75679 0.47931 0.47543 0.0
C211 C 0.67524 0.56081 0.53535 0.0
C212 C 0.64067 0.54928 0.57435 0.0
C213 C 0.65646 0.56851 0.548 0.0
N214 N 0.67157 0.53845 0.55404 0.0
N215 N 0.65089 0.53133 0.5773 0.0
C216 C 0.69587 0.57369 0.50524 0.0
H217 H 0.71122 0.56588 0.50486 0.0
H218 H 0.70811 0.59721 0.50714 0.0
H219 H 0.68385 0.5681 0.48001 0.0
C220 C 0.77389 0.55926 0.57694 0.0
N221 N 0.75024 0.54098 0.55826 0.0
N222 N 0.73036 0.54737 0.56476 0.0
C223 C 0.74038 0.56965 0.58733 0.0
C224 C 0.76835 0.578 0.59641 0.0
C225 C 0.80036 0.55726 0.57885 0.0
H226 H 0.80046 0.54297 0.55801 0.0
H227 H 0.81947 0.57871 0.57594 0.0
H228 H 0.80152 0.54888 0.60517 0.0
O229 O 0.70122 0.4726 0.54337 0.0
O230 O 0.67569 0.48681 0.57292 0.0
H231 H 0.70303 0.56673 0.61108 0.0
H232 H 0.73505 0.60051 0.61874 0.0
C233 C 0.72352 0.58315 0.59943 0.0
H234 H 0.71905 0.59285 0.57642 0.0
H235 H 0.64391 0.51441 0.59507 0.0
O236 O 0.76554 0.49424 0.53116 0.0
C237 C 0.67931 0.46693 0.56173 0.0
Co238 Co 0.47269 0.22816 0.52925 0.0
Co239 Co 0.4526 0.16663 0.53799 0.0
C240 C 0.46933 0.19442 0.46632 0.0
O241 O 0.46869 0.2165 0.4769 0.0
O242 O 0.46503 0.17481 0.48795 0.0
C243 C 0.49898 0.28545 0.5076 0.0
O244 O 0.49657 0.27381 0.47646 0.0
C245 C 0.41424 0.10871 0.52652 0.0
C246 C 0.42074 0.0895 0.57479 0.0
C247 C 0.40259 0.08389 0.54625 0.0
N248 N 0.43679 0.1283 0.54428 0.0
N249 N 0.44141 0.11676 0.57231 0.0
C250 C 0.40289 0.11574 0.49421 0.0
H251 H 0.4123 0.1391 0.49147 0.0
H252 H 0.37938 0.10593 0.49526 0.0
H253 H 0.40865 0.1077 0.47047 0.0
C254 C 0.42239 0.21111 0.58179 0.0
N255 N 0.43822 0.20598 0.55809 0.0
N256 N 0.42723 0.17832 0.5556 0.0
C257 C 0.40364 0.16498 0.57607 0.0
C258 C 0.39993 0.18509 0.59457 0.0
C259 C 0.43004 0.24024 0.59421 0.0
H260 H 0.453 0.25547 0.58967 0.0
H261 H 0.41737 0.2476 0.57916 0.0
H262 H 0.42498 0.23986 0.6227 0.0
O263 O 0.50671 0.22427 0.54341 0.0
O264 O 0.48573 0.18182 0.56766 0.0
H265 H 0.39293 0.12257 0.59077 0.0
H266 H 0.36246 0.12758 0.58753 0.0
C267 C 0.38348 0.13345 0.57602 0.0
H268 H 0.37908 0.12578 0.54863 0.0
H269 H 0.45724 0.12797 0.59109 0.0
O270 O 0.48692 0.26944 0.53397 0.0
C271 C 0.50822 0.20442 0.55937 0.0
Co272 Co 0.74889 0.24305 0.53286 0.0
Co273 Co 0.81004 0.28513 0.54588 0.0
C274 C 0.78345 0.27327 0.47176 0.0
O275 O 0.75999 0.25153 0.48118 0.0
O276 O 0.80273 0.28709 0.49457 0.0
C277 C 0.69101 0.20798 0.51149 0.0
O278 O 0.70182 0.21412 0.4795 0.0
C279 C 0.86521 0.29666 0.53515 0.0
C280 C 0.89011 0.33041 0.57448 0.0
C281 C 0.89133 0.31134 0.55114 0.0
N282 N 0.84871 0.30561 0.54962 0.0
N283 N 0.86361 0.32635 0.57229 0.0
C284 C 0.85458 0.27173 0.51051 0.0
H285 H 0.831 0.25887 0.51085 0.0
H286 H 0.86376 0.25813 0.51752 0.0
H287 H 0.86122 0.27971 0.48317 0.0
C288 C 0.76571 0.20566 0.57815 0.0
N289 N 0.77072 0.22952 0.56022 0.0
N290 N 0.7973 0.24911 0.56577 0.0
C291 C 0.80969 0.23924 0.5882 0.0
C292 C 0.79059 0.21092 0.59623 0.0
C293 C 0.73757 0.17868 0.57866 0.0
H294 H 0.7255 0.17673 0.55415 0.0
H295 H 0.74056 0.15997 0.58161 0.0
H296 H 0.72501 0.17917 0.60154 0.0
O297 O 0.75364 0.28144 0.54878 0.0
O298 O 0.79611 0.30462 0.57329 0.0
H299 H 0.83781 0.24937 0.63324 0.0
H300 H 0.85519 0.25905 0.59096 0.0
C301 C 0.83741 0.25789 0.60674 0.0
H302 H 0.84063 0.27955 0.61037 0.0
H303 H 0.85516 0.33612 0.58802 0.0
O304 O 0.70771 0.21614 0.53787 0.0
C305 C 0.77302 0.30332 0.56486 0.0
Co306 Co 0.83152 0.40763 0.17256 0.0
Co307 Co 0.85092 0.36637 0.15964 0.0
C308 C 0.83339 0.37395 0.23271 0.0
O309 O 0.83399 0.39725 0.22461 0.0
O310 O 0.8387 0.36048 0.20928 0.0
C311 C 0.80792 0.44345 0.19175 0.0
O312 O 0.81006 0.43729 0.22477 0.0
C313 C 0.88293 0.33897 0.16916 0.0
C314 C 0.8801 0.32018 0.11622 0.0
C315 C 0.89268 0.32464 0.14907 0.0
N316 N 0.86554 0.34344 0.14889 0.0
N317 N 0.86323 0.33169 0.11756 0.0
C318 C 0.89098 0.34965 0.20629 0.0
H319 H 0.89192 0.37044 0.20941 0.0
H320 H 0.91166 0.3517 0.21403 0.0
H321 H 0.87428 0.33424 0.22447 0.0
C322 C 0.88186 0.44036 0.11885 0.0
N323 N 0.86612 0.42013 0.14342 0.0
N324 N 0.87735 0.40388 0.14721 0.0
C325 C 0.90132 0.41393 0.12785 0.0
C326 C 0.90493 0.43702 0.10752 0.0
C327 C 0.87316 0.46038 0.10395 0.0
H328 H 0.85056 0.45307 0.11037 0.0
H329 H 0.88671 0.48185 0.11556 0.0
H330 H 0.87606 0.46198 0.07484 0.0
O331 O 0.79732 0.37074 0.15757 0.0
O332 O 0.81804 0.35103 0.12909 0.0
H333 H 0.91611 0.38498 0.11506 0.0
H334 H 0.94416 0.42057 0.12628 0.0
C335 C 0.92208 0.40357 0.13247 0.0
H336 H 0.92171 0.39693 0.16019 0.0
H337 H 0.85138 0.33287 0.09661 0.0
O338 O 0.81817 0.4351 0.16747 0.0
C339 C 0.79556 0.35019 0.13952 0.0
Co340 Co 0.56937 0.42074 0.1736 0.0
Co341 Co 0.61044 0.48055 0.15446 0.0
C342 C 0.60286 0.45767 0.23088 0.0
O343 O 0.57953 0.43456 0.22446 0.0
O344 O 0.61593 0.47511 0.20581 0.0
C345 C 0.53872 0.36239 0.19535 0.0
O346 O 0.54889 0.37283 0.22676 0.0
C347 C 0.63191 0.53854 0.16568 0.0
C348 C 0.65858 0.55892 0.11831 0.0
C349 C 0.64801 0.56418 0.14894 0.0
N350 N 0.63197 0.51864 0.14526 0.0
N351 N 0.64803 0.53061 0.11712 0.0
C352 C 0.61778 0.53249 0.20122 0.0
H353 H 0.59645 0.51298 0.19979 0.0
H354 H 0.61569 0.55038 0.21169 0.0
H355 H 0.63084 0.52838 0.22027 0.0
C356 C 0.53018 0.43487 0.12807 0.0
N357 N 0.55459 0.44114 0.14553 0.0
N358 N 0.57301 0.46816 0.14018 0.0
C359 C 0.56125 0.48 0.11982 0.0
C360 C 0.53365 0.45946 0.11122 0.0
C361 C 0.5048 0.40565 0.12523 0.0
H362 H 0.50378 0.39241 0.14813 0.0
H363 H 0.48497 0.40682 0.12357 0.0
H364 H 0.50662 0.39549 0.10068 0.0
O365 O 0.60724 0.42489 0.15739 0.0
O366 O 0.62699 0.46382 0.12547 0.0
H367 H 0.59571 0.51402 0.09152 0.0
H368 H 0.56296 0.51495 0.08968 0.0
C369 C 0.57665 0.51014 0.10676 0.0
H370 H 0.58357 0.52486 0.12962 0.0
H371 H 0.65132 0.51945 0.09696 0.0
O372 O 0.54284 0.37944 0.17012 0.0
C373 C 0.62758 0.44255 0.13776 0.0
Co374 Co 0.55603 0.14467 0.17108 0.0
Co375 Co 0.49468 0.12516 0.15782 0.0
C376 C 0.52092 0.14134 0.23164 0.0
O377 O 0.544 0.14211 0.22241 0.0
O378 O 0.5016 0.13626 0.20898 0.0
C379 C 0.6151 0.16934 0.19122 0.0
O380 O 0.6058 0.16655 0.22386 0.0
C381 C 0.43583 0.08938 0.16862 0.0
C382 C 0.41718 0.09687 0.12048 0.0
C383 C 0.41081 0.08026 0.15051 0.0
N384 N 0.4565 0.10985 0.14942 0.0
N385 N 0.44545 0.11489 0.12112 0.0
C386 C 0.44068 0.07878 0.20303 0.0
H387 H 0.458 0.07369 0.19995 0.0
H388 H 0.42111 0.05995 0.21315 0.0
H389 H 0.44789 0.09605 0.22295 0.0
C390 C 0.53952 0.09137 0.12442 0.0
N391 N 0.53399 0.10914 0.14397 0.0
N392 N 0.50659 0.1 0.14172 0.0
C393 C 0.49385 0.07648 0.1212 0.0
C394 C 0.51416 0.07013 0.10901 0.0
C395 C 0.56872 0.0961 0.11768 0.0
H396 H 0.58351 0.10903 0.1391 0.0
H397 H 0.56808 0.07538 0.11538 0.0
H398 H 0.57671 0.10765 0.09228 0.0
O399 O 0.55237 0.17849 0.1551 0.0
O400 O 0.51099 0.15825 0.12835 0.0
H401 H 0.45731 0.07447 0.09667 0.0
H402 H 0.45652 0.04079 0.09733 0.0
C403 C 0.46274 0.0606 0.11237 0.0
H404 H 0.45023 0.05447 0.13711 0.0
H405 H 0.45733 0.12965 0.10151 0.0
O406 O 0.59719 0.15902 0.16616 0.0
C407 C 0.53341 0.18047 0.1376 0.0
Co408 Co 0.40132 0.83732 0.86289 0.0
Co409 Co 0.3576 0.8526 0.87942 0.0
C410 C 0.36894 0.83926 0.80424 0.0
O411 O 0.39342 0.8425 0.81146 0.0
O412 O 0.35395 0.84118 0.82869 0.0
C413 C 0.45023 0.82158 0.86543 0.0
O414 O 0.47462 0.84567 0.86403 0.0
C415 C 0.34166 0.89199 0.86322 0.0
C416 C 0.31206 0.88759 0.90635 0.0
C417 C 0.32758 0.90457 0.87801 0.0
N418 N 0.33584 0.86938 0.88291 0.0
N419 N 0.31752 0.86605 0.90802 0.0
C420 C 0.36457 0.90387 0.83548 0.0
H421 H 0.37968 0.89598 0.83921 0.0
H422 H 0.37664 0.92751 0.83611 0.0
H423 H 0.35459 0.89678 0.80907 0.0
C424 C 0.43669 0.88847 0.91393 0.0
N425 N 0.41386 0.87084 0.89351 0.0
N426 N 0.39438 0.87817 0.89759 0.0
C427 C 0.40403 0.90066 0.91983 0.0
C428 C 0.43112 0.90796 0.93168 0.0
C429 C 0.46223 0.8852 0.91874 0.0
H430 H 0.45537 0.86228 0.92151 0.0
H431 H 0.47593 0.89351 0.89493 0.0
H432 H 0.47476 0.89702 0.94229 0.0
O433 O 0.3633 0.80284 0.87707 0.0
O434 O 0.33966 0.81876 0.9075 0.0
H435 H 0.36714 0.90024 0.94115 0.0
H436 H 0.39961 0.93396 0.94675 0.0
C437 C 0.38783 0.91554 0.92893 0.0
H438 H 0.38407 0.92433 0.90458 0.0
H439 H 0.3105 0.85044 0.92764 0.0
O440 O 0.42683 0.82155 0.86493 0.0
C441 C 0.34169 0.79813 0.89555 0.0
Co442 Co 0.13496 0.56036 0.85745 0.0
Co443 Co 0.12415 0.503 0.88214 0.0
C444 C 0.13372 0.52259 0.80377 0.0
O445 O 0.12936 0.54341 0.80862 0.0
O446 O 0.13327 0.50751 0.82993 0.0
C447 C 0.165 0.61552 0.83238 0.0
O448 O 0.16775 0.6015 0.8058 0.0
C449 C 0.09437 0.44265 0.8765 0.0
C450 C 0.09274 0.42941 0.93221 0.0
C451 C 0.08103 0.41961 0.89912 0.0
N452 N 0.11145 0.46548 0.89584 0.0
N453 N 0.11146 0.45745 0.9288 0.0
C454 C 0.09152 0.44342 0.83714 0.0
H455 H 0.113 0.45554 0.82512 0.0
H456 H 0.07953 0.45445 0.83055 0.0
H457 H 0.08089 0.42181 0.82532 0.0
C458 C 0.08261 0.54354 0.90485 0.0
N459 N 0.10227 0.53892 0.88855 0.0
N460 N 0.09648 0.5129 0.89607 0.0
C461 C 0.07263 0.49995 0.91619 0.0
C462 C 0.06306 0.51885 0.92288 0.0
C463 C 0.08302 0.57127 0.90429 0.0
H464 H 0.0926 0.58282 0.87929 0.0
H465 H 0.06113 0.56777 0.90754 0.0
H466 H 0.09626 0.58459 0.92661 0.0
O467 O 0.17138 0.56128 0.87166 0.0
O468 O 0.1596 0.52524 0.90754 0.0
H469 H 0.07289 0.46907 0.95086 0.0
H470 H 0.03782 0.46284 0.94129 0.0
C471 C 0.05923 0.4701 0.92986 0.0
H472 H 0.05692 0.45553 0.90804 0.0
H473 H 0.12235 0.47146 0.94947 0.0
O474 O 0.14733 0.60139 0.85667 0.0
C475 C 0.17854 0.54753 0.8925 0.0
Co476 Co 0.41403 0.57284 0.86592 0.0
Co477 Co 0.47726 0.61483 0.87515 0.0
C478 C 0.4521 0.60459 0.80312 0.0
O479 O 0.42764 0.58552 0.81464 0.0
O480 O 0.4731 0.61689 0.82398 0.0
C481 C 0.34818 0.52135 0.86275 0.0
O482 O 0.34299 0.49515 0.85828 0.0
C483 C 0.53629 0.63958 0.86501 0.0
C484 C 0.55452 0.6611 0.91602 0.0
C485 C 0.56111 0.65415 0.88362 0.0
N486 N 0.51532 0.63705 0.88573 0.0
N487 N 0.52611 0.65031 0.91598 0.0
C488 C 0.53226 0.62723 0.82859 0.0
H489 H 0.51349 0.60538 0.82806 0.0
H490 H 0.5513 0.62667 0.81908 0.0
H491 H 0.52825 0.64072 0.81014 0.0
C492 C 0.43125 0.53945 0.91787 0.0
N493 N 0.43647 0.56092 0.89494 0.0
N494 N 0.46412 0.57807 0.89361 0.0
C495 C 0.47742 0.56754 0.91338 0.0
C496 C 0.45724 0.5431 0.93095 0.0
C497 C 0.40199 0.51726 0.9292 0.0
H498 H 0.38665 0.52481 0.92482 0.0
H499 H 0.39516 0.49769 0.91331 0.0
H500 H 0.4019 0.51185 0.9575 0.0
O501 O 0.41409 0.60723 0.88474 0.0
O502 O 0.45988 0.63476 0.89702 0.0
H503 H 0.51972 0.59771 0.93062 0.0
H504 H 0.51449 0.56281 0.92086 0.0
C505 C 0.509 0.57912 0.91269 0.0
H506 H 0.51714 0.58584 0.88555 0.0
H507 H 0.51398 0.65097 0.93699 0.0
O508 O 0.37391 0.54151 0.86399 0.0
C509 C 0.43474 0.6306 0.89605 0.0
Co510 Co 0.50214 0.74243 0.50917 0.0
Co511 Co 0.5171 0.69833 0.49189 0.0
C512 C 0.50374 0.7095 0.56742 0.0
O513 O 0.50674 0.73396 0.56055 0.0
O514 O 0.50609 0.69488 0.54276 0.0
C515 C 0.47473 0.77271 0.52998 0.0
O516 O 0.47608 0.76282 0.56113 0.0
C517 C 0.55494 0.67898 0.50355 0.0
C518 C 0.54668 0.64962 0.45861 0.0
C519 C 0.56545 0.66401 0.48599 0.0
N520 N 0.53185 0.67483 0.48616 0.0
N521 N 0.52619 0.65659 0.46009 0.0
C522 C 0.56897 0.70101 0.532 0.0
H523 H 0.5614 0.71656 0.53135 0.0
H524 H 0.59252 0.71257 0.52914 0.0
H525 H 0.56332 0.69029 0.55813 0.0
C526 C 0.55454 0.77782 0.46038 0.0
N527 N 0.53627 0.75455 0.47969 0.0
N528 N 0.54323 0.73488 0.47483 0.0
C529 C 0.56568 0.74455 0.45254 0.0
C530 C 0.57367 0.77212 0.44209 0.0
C531 C 0.55228 0.80404 0.4568 0.0
H532 H 0.53671 0.80386 0.47592 0.0
H533 H 0.57344 0.82324 0.46123 0.0
H534 H 0.54551 0.80526 0.4295 0.0
O535 O 0.46717 0.70426 0.49565 0.0
O536 O 0.48396 0.68264 0.46302 0.0
H537 H 0.56296 0.70713 0.42947 0.0
H538 H 0.59689 0.73895 0.42216 0.0
C539 C 0.57926 0.72759 0.44121 0.0
H540 H 0.5888 0.72331 0.46447 0.0
H541 H 0.50978 0.65074 0.4418 0.0
O542 O 0.48787 0.76945 0.50434 0.0
C543 C 0.46298 0.68313 0.47654 0.0
Co544 Co 0.23452 0.75268 0.50524 0.0
Co545 Co 0.27929 0.81382 0.49598 0.0
C546 C 0.26501 0.78781 0.56845 0.0
O547 O 0.2434 0.76473 0.55734 0.0
O548 O 0.28051 0.80764 0.5471 0.0
C549 C 0.20024 0.69363 0.52225 0.0
O550 O 0.20979 0.70136 0.55459 0.0
C551 C 0.30973 0.87315 0.50738 0.0
C552 C 0.32487 0.88971 0.45339 0.0
C553 C 0.32281 0.89751 0.48752 0.0
N554 N 0.30336 0.85144 0.48577 0.0
N555 N 0.31313 0.86123 0.45377 0.0
C556 C 0.30134 0.87023 0.54559 0.0
H557 H 0.31241 0.86088 0.56024 0.0
H558 H 0.27804 0.85554 0.5483 0.0
H559 H 0.30726 0.89105 0.55784 0.0
C560 C 0.20455 0.77276 0.45187 0.0
N561 N 0.2251 0.77629 0.47528 0.0
N562 N 0.24291 0.80357 0.47846 0.0
C563 C 0.23334 0.81848 0.46035 0.0
C564 C 0.20901 0.79971 0.44103 0.0
C565 C 0.18272 0.74417 0.4381 0.0
H566 H 0.18901 0.72805 0.44385 0.0
H567 H 0.16194 0.73748 0.45108 0.0
H568 H 0.1802 0.74513 0.40913 0.0
O569 O 0.27013 0.75276 0.49179 0.0
O570 O 0.29728 0.79582 0.47062 0.0
H571 H 0.26247 0.86235 0.44795 0.0
H572 H 0.22787 0.8553 0.46316 0.0
C573 C 0.24475 0.84963 0.46653 0.0
H574 H 0.25297 0.85516 0.49385 0.0
H575 H 0.31003 0.84836 0.43181 0.0
O576 O 0.20528 0.71264 0.49935 0.0
C577 C 0.29308 0.7712 0.47708 0.0
Co578 Co 0.22218 0.47907 0.50383 0.0
Co579 Co 0.15946 0.45653 0.49338 0.0
C580 C 0.18624 0.47326 0.5662 0.0
O581 O 0.21068 0.47838 0.55527 0.0
O582 O 0.16547 0.46471 0.54486 0.0
C583 C 0.28073 0.50228 0.52512 0.0
O584 O 0.27105 0.4981 0.55768 0.0
C585 C 0.10263 0.41655 0.50564 0.0
C586 C 0.07921 0.4263 0.46515 0.0
C587 C 0.07605 0.40797 0.49248 0.0
N588 N 0.12109 0.43866 0.48643 0.0
N589 N 0.10733 0.44474 0.46231 0.0
C590 C 0.11069 0.40565 0.53741 0.0
H591 H 0.1329 0.40999 0.5349 0.0
H592 H 0.09624 0.38255 0.54156 0.0
H593 H 0.10925 0.41689 0.5611 0.0
C594 C 0.20689 0.42556 0.45906 0.0
N595 N 0.20068 0.44322 0.47767 0.0
N596 N 0.17325 0.43368 0.47456 0.0
C597 C 0.16116 0.40996 0.45431 0.0
C598 C 0.18189 0.40374 0.4438 0.0
C599 C 0.23628 0.43028 0.45421 0.0
H600 H 0.24918 0.44001 0.47831 0.0
H601 H 0.23556 0.40991 0.44803 0.0
H602 H 0.24661 0.4452 0.43183 0.0
O603 O 0.21875 0.51176 0.48379 0.0
O604 O 0.17356 0.49173 0.46861 0.0
H605 H 0.12479 0.40992 0.43202 0.0
H606 H 0.12649 0.37831 0.42219 0.0
C607 C 0.13061 0.39452 0.44274 0.0
H608 H 0.11681 0.3835 0.46577 0.0
H609 H 0.1171 0.46128 0.44399 0.0
O610 O 0.26315 0.4931 0.49965 0.0
C611 C 0.19809 0.5135 0.47048 0.0
C612 C 0.91241 0.29478 0.16546 0.0
C613 C 0.91684 0.3216 0.15744 0.0
C614 C 0.93529 0.29154 0.1752 0.0
C615 C 0.96313 0.316 0.17613 0.0
C616 C 0.9675 0.3433 0.16819 0.0
C617 C 0.944 0.34577 0.15881 0.0
C618 C 0.92939 0.26179 0.18374 0.0
C619 C -0.00333 0.36969 0.16831 0.0
C620 C -0.00184 0.28642 0.22684 0.0
C621 C -0.00121 0.26917 0.19976 0.0
C622 C -0.00775 0.30799 0.21894 0.0
C623 C 0.9872 0.3118 0.18338 0.0
C624 C -0.00496 0.29952 0.15597 0.0
C625 C -0.00063 0.27703 0.16441 0.0
C626 C 0.98556 0.32213 0.24876 0.0
C627 C -0.00755 0.30551 0.11766 0.0
H628 H 0.89101 0.27647 0.16442 0.0
H629 H 0.94682 0.36652 0.15244 0.0
H630 H 0.93906 0.25464 0.16326 0.0
H631 H 0.93865 0.26144 0.20969 0.0
H632 H 0.9062 0.246 0.18467 0.0
H633 H -0.00469 0.38868 0.17636 0.0
H634 H 0.01184 0.36769 0.18605 0.0
H635 H 0.00548 0.37357 0.14111 0.0
H636 H -0.00079 0.28117 0.25425 0.0
H637 H -0.00013 0.26394 0.14318 0.0
H638 H 0.96256 0.30911 0.25543 0.0
H639 H -0.00997 0.34374 0.24117 0.0
H640 H -0.00197 0.3237 0.27279 0.0
H641 H 0.97007 0.29163 0.10888 0.0
H642 H 0.00641 0.30091 0.10072 0.0
H643 H -0.00186 0.32804 0.11389 0.0
C644 C 0.63188 0.59594 0.17289 0.0
C645 C 0.6541 0.59167 0.16194 0.0
C646 C 0.63784 0.62139 0.18917 0.0
C647 C 0.66653 0.64295 0.19282 0.0
C648 C 0.68905 0.63864 0.18133 0.0
C649 C 0.6824 0.61288 0.16576 0.0
C650 C 0.61373 0.62518 0.20256 0.0
C651 C 0.72017 0.66117 0.18507 0.0
C652 C 0.70448 0.71921 0.18528 0.0
C653 C 0.71744 0.72624 0.21857 0.0
C654 C 0.68151 0.6922 0.17887 0.0
C655 C 0.67381 0.67125 0.20522 0.0
C656 C 0.6838 0.67902 0.24017 0.0
C657 C 0.7055 0.70691 0.24659 0.0
C658 C 0.66971 0.68481 0.14181 0.0
C659 C 0.67404 0.65757 0.26992 0.0
H660 H 0.60992 0.5792 0.16921 0.0
H661 H 0.69929 0.60902 0.15727 0.0
H662 H 0.61755 0.63214 0.23059 0.0
H663 H 0.61279 0.6421 0.1872 0.0
H664 H 0.59277 0.60523 0.20056 0.0
H665 H 0.73467 0.65314 0.17742 0.0
H666 H 0.72507 0.67966 0.16792 0.0
H667 H 0.725 0.66881 0.21275 0.0
H668 H 0.71363 0.73341 0.16308 0.0
H669 H 0.71457 0.7128 0.27286 0.0
H670 H 0.64699 0.66775 0.14196 0.0
H671 H 0.68196 0.67706 0.12651 0.0
H672 H 0.67162 0.70378 0.12801 0.0
H673 H 0.65598 0.65759 0.28371 0.0
H674 H 0.69131 0.66336 0.28959 0.0
H675 H 0.66655 0.63555 0.26058 0.0
C676 C 0.35977 0.05812 0.16122 0.0
C677 C 0.38372 0.05529 0.15825 0.0
C678 C 0.33378 0.03481 0.17079 0.0
C679 C 0.3321 0.0081 0.1769 0.0
C680 C 0.35626 0.00503 0.17268 0.0
C681 C 0.38199 0.02889 0.16308 0.0
C682 C 0.30844 0.03918 0.17477 0.0
C683 C 0.35509 0.97685 0.17766 0.0
C684 C 0.26981 0.97658 0.23249 0.0
C685 C 0.25008 0.97053 0.20539 0.0
C686 C 0.29755 0.98338 0.22427 0.0
C687 C 0.30485 0.9841 0.18834 0.0
C688 C 0.28341 0.97111 0.16251 0.0
C689 C 0.25604 0.96526 0.17111 0.0
C690 C 0.31992 -0.0044 0.25283 0.0
C691 C 0.29056 0.96949 0.12439 0.0
H692 H 0.36162 0.07877 0.15697 0.0
H693 H 0.40082 0.02699 0.15963 0.0
H694 H 0.29153 0.02555 0.15569 0.0
H695 H 0.29949 0.0333 0.2018 0.0
H696 H 0.31409 0.06163 0.16995 0.0
H697 H 0.37627 0.97999 0.18529 0.0
H698 H 0.33923 0.96336 0.19791 0.0
H699 H 0.34888 0.96502 0.15229 0.0
H700 H 0.26463 0.9793 0.25937 0.0
H701 H 0.24092 0.96032 0.14994 0.0
H702 H 0.32909 0.01907 0.25382 0.0
H703 H 0.3375 0.99128 0.24738 0.0
H704 H 0.31058 0.98674 0.27914 0.0
H705 H 0.29715 0.99021 0.11128 0.0
H706 H 0.27178 0.95263 0.11003 0.0
H707 H 0.30844 0.96515 0.12235 0.0
C708 C 0.2493 0.96329 0.83059 0.0
C709 C 0.25547 0.99025 0.81994 0.0
C710 C 0.27096 0.95889 0.84252 0.0
C711 C 0.29943 0.98226 0.84306 0.0
C712 C 0.3056 0.00973 0.8326 0.0
C713 C 0.2833 0.01337 0.82076 0.0
C714 C 0.26314 0.92905 0.85385 0.0
C715 C 0.33544 0.03511 0.83284 0.0
C716 C 0.33052 0.94966 0.89587 0.0
C717 C 0.33128 0.93229 0.86909 0.0
C718 C 0.32629 0.97224 0.88726 0.0
C719 C 0.32228 0.97643 0.85143 0.0
C720 C 0.32968 0.96332 0.82455 0.0
C721 C 0.33308 0.94039 0.83367 0.0
C722 C 0.32049 0.98756 0.91643 0.0
C723 C 0.32777 0.96917 0.78598 0.0
H724 H 0.22743 0.9458 0.8301 0.0
H725 H 0.28757 0.03423 0.81218 0.0
H726 H 0.27316 0.92045 0.83588 0.0
H727 H 0.2708 0.92926 0.88105 0.0
H728 H 0.23975 0.91408 0.85344 0.0
H729 H 0.33511 0.05483 0.83984 0.0
H730 H 0.3497 0.03246 0.85154 0.0
H731 H 0.34464 0.03814 0.80592 0.0
H732 H 0.33059 0.94409 0.92338 0.0
H733 H 0.33391 0.92717 0.81283 0.0
H734 H 0.29742 0.97558 0.92305 0.0
H735 H 0.32608 0.0094 0.90817 0.0
H736 H 0.33263 0.98883 0.94066 0.0
H737 H 0.3052 0.95668 0.77728 0.0
H738 H 0.34057 0.96283 0.76937 0.0
H739 H 0.33528 0.99208 0.78158 0.0
C740 C 0.03641 0.38959 0.86577 0.0
C741 C 0.05617 0.39185 0.89129 0.0
C742 C 0.01774 0.36328 0.85068 0.0
C743 C 0.01732 0.33886 0.86415 0.0
C744 C 0.03263 0.34056 0.89521 0.0
C745 C 0.05273 0.36738 0.90797 0.0
C746 C 0.00062 0.36208 0.81859 0.0
C747 C 0.03011 0.3143 0.91242 0.0
C748 C 0.97084 0.266 0.82569 0.0
C749 C -0.00817 0.26124 0.81109 0.0
C750 C 0.97837 0.29165 0.84263 0.0
C751 C 0.00716 0.31355 0.84183 0.0
C752 C 0.02752 0.31033 0.82192 0.0
C753 C 0.01969 0.28383 0.80734 0.0
C754 C 0.9557 0.29447 0.86236 0.0
C755 C 0.05806 0.33417 0.81816 0.0
H756 H 0.03703 0.40857 0.85562 0.0
H757 H 0.06687 0.36914 0.9293 0.0
H758 H 0.00344 0.34991 0.79692 0.0
H759 H 0.97768 0.351 0.82558 0.0
H760 H 0.00673 0.38365 0.80855 0.0
H761 H 0.03737 0.31845 0.94035 0.0
H762 H 0.00773 0.29642 0.91157 0.0
H763 H 0.04357 0.30761 0.89792 0.0
H764 H 0.94875 0.24921 0.8257 0.0
H765 H 0.03574 0.28039 0.7949 0.0
H766 H 0.94605 0.30338 0.84428 0.0
H767 H 0.96442 0.30875 0.88562 0.0
H768 H 0.93833 0.27335 0.87147 0.0
H769 H 0.05893 0.35466 0.81238 0.0
H770 H 0.06943 0.32982 0.7968 0.0
H771 H 0.06964 0.33671 0.84328 0.0
C772 C 0.59161 0.63441 0.86812 0.0
C773 C 0.58821 0.65816 0.87231 0.0
C774 C 0.61635 0.63738 0.85288 0.0
C775 C 0.63792 0.66481 0.84257 0.0
C776 C 0.63381 0.68867 0.84558 0.0
C777 C 0.60883 0.68493 0.86075 0.0
C778 C 0.61941 0.61135 0.84896 0.0
C779 C 0.656 0.71839 0.83398 0.0
C780 C 0.71351 0.70326 0.85625 0.0
C781 C 0.72168 0.71338 0.82179 0.0
C782 C 0.68618 0.6809 0.86294 0.0
C783 C 0.66661 0.67033 0.83468 0.0
C784 C 0.67624 0.67651 0.79944 0.0
C785 C 0.70403 0.69852 0.79327 0.0
C786 C 0.67678 0.6731 0.90084 0.0
C787 C 0.65602 0.66373 0.76876 0.0
H788 H 0.57472 0.61352 0.87632 0.0
H789 H 0.60517 0.70278 0.86317 0.0
H790 H 0.63543 0.61422 0.82869 0.0
H791 H 0.62603 0.60666 0.87464 0.0
H792 H 0.59862 0.59247 0.84182 0.0
H793 H 0.64829 0.73383 0.83633 0.0
H794 H 0.67542 0.72629 0.85046 0.0
H795 H 0.66208 0.71824 0.80605 0.0
H796 H 0.727 0.71463 0.87845 0.0
H797 H 0.71097 0.70568 0.76645 0.0
H798 H 0.66134 0.64998 0.90329 0.0
H799 H 0.66613 0.68491 0.90993 0.0
H800 H 0.69518 0.67866 0.91856 0.0
H801 H 0.63959 0.64129 0.77436 0.0
H802 H 0.6676 0.66456 0.74415 0.0
H803 H 0.64495 0.676 0.76425 0.0
C804 C 0.67558 0.61891 0.53189 0.0
C805 C 0.6525 0.59108 0.53416 0.0
C806 C 0.67204 0.64048 0.5172 0.0
C807 C 0.64455 0.63386 0.50626 0.0
C808 C 0.62142 0.60529 0.50725 0.0
C809 C 0.62583 0.58421 0.52139 0.0
C810 C 0.69743 0.67024 0.51512 0.0
C811 C 0.59158 0.597 0.49538 0.0
C812 C 0.60333 0.6673 0.52515 0.0
C813 C 0.59316 0.66643 0.49101 0.0
C814 C 0.62645 0.66333 0.53041 0.0
C815 C 0.63783 0.6565 0.50089 0.0
C816 C 0.6314 0.66118 0.46635 0.0
C817 C 0.60854 0.66579 0.46166 0.0
C818 C 0.63463 0.66069 0.56776 0.0
C819 C 0.64509 0.65627 0.43451 0.0
H820 H 0.69622 0.62396 0.54229 0.0
H821 H 0.60839 0.56235 0.52277 0.0
H822 H 0.69407 0.68405 0.49644 0.0
H823 H 0.70187 0.68014 0.54173 0.0
H824 H 0.71669 0.66946 0.50682 0.0
H825 H 0.57682 0.57358 0.4962 0.0
H826 H 0.58269 0.60709 0.51277 0.0
H827 H 0.59189 0.60429 0.46795 0.0
H828 H 0.59164 0.66806 0.5479 0.0
H829 H 0.60136 0.66659 0.43516 0.0
H830 H 0.65803 0.67006 0.57 0.0
H831 H 0.62437 0.63781 0.57509 0.0
H832 H 0.62767 0.67148 0.58697 0.0
H833 H 0.66771 0.66293 0.43994 0.0
H834 H 0.64396 0.66805 0.41113 0.0
H835 H 0.63367 0.6332 0.42799 0.0
C836 C 0.30082 0.92491 0.50787 0.0
C837 C 0.32529 0.92419 0.49775 0.0
C838 C 0.303 0.94995 0.52074 0.0
C839 C 0.33025 0.97434 0.52305 0.0
C840 C 0.3551 0.97342 0.51298 0.0
C841 C 0.35212 0.94815 0.49996 0.0
C842 C 0.2764 0.95033 0.5317 0.0
C843 C 0.38487 -0.001 0.51534 0.0
C844 C 0.36163 0.04891 0.5096 0.0
C845 C 0.37485 0.05792 0.54256 0.0
C846 C 0.33943 0.02113 0.50509 0.0
C847 C 0.33336 0.00171 0.53298 0.0
C848 C 0.34258 0.01163 0.5676 0.0
C849 C 0.363 0.0402 0.57212 0.0
C850 C 0.32772 0.01129 0.4684 0.0
C851 C 0.33569 0.99183 0.59871 0.0
H852 H 0.28009 0.90581 0.50605 0.0
H853 H 0.37072 0.94686 0.49222 0.0
H854 H 0.2784 0.95784 0.55937 0.0
H855 H 0.27358 0.9655 0.51494 0.0
H856 H 0.25696 0.92897 0.52956 0.0
H857 H 0.40161 -0.00667 0.5103 0.0
H858 H 0.38747 0.01512 0.49541 0.0
H859 H 0.38872 0.00892 0.54186 0.0
H860 H 0.3703 0.06176 0.48625 0.0
H861 H 0.37199 0.04752 0.59821 0.0
H862 H 0.30588 0.99254 0.46926 0.0
H863 H 0.34166 0.00516 0.45394 0.0
H864 H 0.32729 0.02867 0.45336 0.0
H865 H 0.32826 -0.00039 0.62118 0.0
H866 H 0.35538 0.99211 0.60748 0.0
H867 H 0.31924 0.96953 0.59275 0.0
C868 C 0.04591 0.3575 0.50849 0.0
C869 C 0.04963 0.38486 0.5058 0.0
C870 C 0.02073 0.33523 0.52222 0.0
C871 C -0.0012 0.34069 0.53182 0.0
C872 C 0.00309 0.3688 0.53019 0.0
C873 C 0.02866 0.39061 0.51698 0.0
C874 C 0.01751 0.306 0.5248 0.0
C875 C 0.98039 0.3759 0.54061 0.0
C876 C 0.92398 0.3042 0.51314 0.0
C877 C 0.91506 0.30637 0.54703 0.0
C878 C 0.95144 0.30901 0.50804 0.0
C879 C 0.96984 0.31716 0.53753 0.0
C880 C 0.95879 0.31281 0.57211 0.0
C881 C 0.93119 0.3079 0.5766 0.0
C882 C 0.96237 0.31168 0.47074 0.0
C883 C 0.97763 0.31912 0.604 0.0
H884 H 0.0625 0.35342 0.49937 0.0
H885 H 0.03227 0.41215 0.51514 0.0
H886 H 0.00035 0.29182 0.54334 0.0
H887 H 0.01259 0.29596 0.49827 0.0
H888 H 0.03786 0.30769 0.53357 0.0
H889 H 0.98815 0.39913 0.53915 0.0
H890 H 0.96175 0.36489 0.52277 0.0
H891 H 0.97309 0.36881 0.56802 0.0
H892 H 0.91123 0.30255 0.4903 0.0
H893 H 0.92341 0.30816 0.60293 0.0
H894 H 0.97763 0.30378 0.46894 0.0
H895 H 0.97371 0.33447 0.46277 0.0
H896 H 0.9447 0.29962 0.45175 0.0
H897 H -0.00532 0.31393 0.59885 0.0
H898 H 0.965 0.30692 0.62737 0.0
H899 H 0.98792 0.34217 0.61036 0.0
C900 C 0.16503 0.35236 0.43037 0.0
C901 C 0.17738 0.38062 0.41855 0.0
C902 C 0.15483 0.32933 0.40637 0.0
C903 C 0.15625 0.33445 0.36941 0.0
C904 C 0.16917 0.36313 0.35741 0.0
C905 C 0.17971 0.38576 0.38206 0.0
C906 C 0.14141 0.29939 0.42074 0.0
C907 C 0.16972 0.36987 0.31865 0.0
C908 C 0.14286 0.27756 0.2989 0.0
C909 C 0.11323 0.26434 0.29373 0.0
C910 C 0.15693 0.29933 0.32458 0.0
C911 C 0.14156 0.30987 0.34373 0.0
C912 C 0.11172 0.29655 0.33855 0.0
C913 C 0.09796 0.27291 0.31583 0.0
C914 C 0.18827 0.31103 0.33126 0.0
C915 C 0.09396 0.30735 0.35631 0.0
H916 H 0.16234 0.34818 0.45853 0.0
H917 H 0.18827 0.40747 0.37282 0.0
H918 H 0.11795 0.28853 0.41743 0.0
H919 H 0.14913 0.28689 0.40596 0.0
H920 H 0.14603 0.29912 0.44928 0.0
H921 H 0.18278 0.39309 0.31326 0.0
H922 H 0.17826 0.35863 0.30282 0.0
H923 H 0.14761 0.36227 0.30948 0.0
H924 H 0.15521 0.27122 0.28275 0.0
H925 H 0.07491 0.26177 0.31458 0.0
H926 H 0.19216 0.31087 0.36004 0.0
H927 H 0.20058 0.33348 0.32225 0.0
H928 H 0.19648 0.29855 0.31741 0.0
H929 H 0.08754 0.29779 0.38298 0.0
H930 H 0.07419 0.30131 0.34112 0.0
H931 H 0.10596 0.33089 0.35922 0.0
C932 C 0.61841 0.81661 0.42151 0.0
C933 C 0.59554 0.78922 0.41441 0.0
C934 C 0.64134 0.83066 0.39742 0.0
C935 C 0.64199 0.8167 0.36594 0.0
C936 C 0.6185 0.78933 0.35833 0.0
C937 C 0.59531 0.77649 0.38197 0.0
C938 C 0.66527 0.86021 0.40612 0.0
C939 C 0.61862 0.77266 0.32643 0.0
C940 C 0.69145 0.85323 0.28653 0.0
C941 C 0.71436 0.84885 0.29373 0.0
C942 C 0.66857 0.84442 0.3107 0.0
C943 C 0.66784 0.82968 0.34211 0.0
C944 C 0.69139 0.82602 0.34982 0.0
C945 C 0.71478 0.83686 0.32649 0.0
C946 C 0.64474 0.85013 0.30213 0.0
C947 C 0.69123 0.80908 0.38159 0.0
H948 H 0.61896 0.82662 0.44649 0.0
H949 H 0.57754 0.75548 0.376 0.0
H950 H 0.68511 0.85969 0.41143 0.0
H951 H 0.66954 0.87461 0.38323 0.0
H952 H 0.66038 0.86929 0.42961 0.0
H953 H 0.5984 0.75202 0.32366 0.0
H954 H 0.62217 0.78522 0.30196 0.0
H955 H 0.63647 0.76825 0.32871 0.0
H956 H 0.69092 0.86268 0.26152 0.0
H957 H 0.73282 0.83424 0.3329 0.0
H958 H 0.63998 0.85954 0.32538 0.0
H959 H 0.62506 0.82983 0.29581 0.0
H960 H 0.65002 0.86479 0.27928 0.0
H961 H 0.69042 0.81965 0.40626 0.0
H962 H 0.71032 0.80654 0.38256 0.0
H963 H 0.67192 0.78756 0.3811 0.0
C964 C 0.14732 0.8463 0.27383 0.0
C965 C 0.12944 0.85673 0.28435 0.0
C966 C 0.15814 0.83455 0.29848 0.0
C967 C 0.15171 0.83392 0.33496 0.0
C968 C 0.13334 0.84421 0.3456 0.0
C969 C 0.12228 0.85522 0.32018 0.0
C970 C 0.17736 0.82378 0.28551 0.0
C971 C 0.12718 0.84575 0.38415 0.0
C972 C 0.16543 0.78909 0.40284 0.0
C973 C 0.19381 0.80772 0.41333 0.0
C974 C 0.15198 0.79678 0.3764 0.0
C975 C 0.16602 0.82476 0.36209 0.0
C976 C 0.1942 0.84397 0.37335 0.0
C977 C 0.20808 0.83466 0.39673 0.0
C978 C 0.12286 0.77473 0.3633 0.0
C979 C 0.21013 0.87457 0.36084 0.0
H980 H 0.15372 0.84831 0.24635 0.0
H981 H 0.10943 0.86432 0.32863 0.0
H982 H 0.19951 0.83828 0.29445 0.0
H983 H 0.1705 0.80238 0.29674 0.0
H984 H 0.17748 0.82247 0.25622 0.0
H985 H 0.11113 0.85252 0.38805 0.0
H986 H 0.11936 0.8248 0.39711 0.0
H987 H 0.14721 0.86123 0.39769 0.0
H988 H 0.15344 0.76839 0.41503 0.0
H989 H 0.23043 0.84896 0.40163 0.0
H990 H 0.12302 0.7735 0.33402 0.0
H991 H 0.10692 0.78094 0.37061 0.0
H992 H 0.11591 0.75324 0.37432 0.0
H993 H 0.22057 0.87584 0.33518 0.0
H994 H 0.22706 0.88844 0.37988 0.0
H995 H 0.19562 0.88325 0.35717 0.0
C996 C 0.3644 0.19446 0.62814 0.0
C997 C 0.37837 0.17874 0.62373 0.0
C998 C 0.3423 0.18635 0.65344 0.0
C999 C 0.3327 0.16103 0.67363 0.0
C1000 C 0.34696 0.14534 0.66948 0.0
C1001 C 0.37036 0.15522 0.64626 0.0
C1002 C 0.32908 0.2048 0.65845 0.0
C1003 C 0.33683 0.11735 0.68847 0.0
C1004 C 0.28955 0.14386 0.7598 0.0
C1005 C 0.26154 0.12589 0.74812 0.0
C1006 C 0.31264 0.15654 0.73579 0.0
C1007 C 0.30786 0.1507 0.69904 0.0
C1008 C 0.27942 0.13291 0.68715 0.0
C1009 C 0.25671 0.1209 0.71173 0.0
C1010 C 0.34238 0.17521 0.74999 0.0
C1011 C 0.27309 0.1251 0.64863 0.0
H1012 H 0.37031 0.2128 0.61144 0.0
H1013 H 0.38182 0.14366 0.64489 0.0
H1014 H 0.3064 0.193 0.65022 0.0
H1015 H 0.32956 0.21018 0.68684 0.0
H1016 H 0.34028 0.22489 0.643 0.0
H1017 H 0.34921 0.10691 0.68088 0.0
H1018 H 0.3385 0.1207 0.71744 0.0
H1019 H 0.31402 0.10254 0.68232 0.0
H1020 H 0.29357 0.14702 0.78795 0.0
H1021 H 0.23525 0.10625 0.70268 0.0
H1022 H 0.35377 0.19514 0.73432 0.0
H1023 H 0.35468 0.16398 0.74766 0.0
H1024 H 0.34226 0.18078 0.77821 0.0
H1025 H 0.28102 0.14462 0.63235 0.0
H1026 H 0.24993 0.11112 0.64354 0.0
H1027 H 0.28441 0.11391 0.63971 0.0
C1028 C 0.82371 0.19441 0.61828 0.0
C1029 C 0.79686 0.19247 0.62014 0.0
C1030 C 0.83291 0.18206 0.6441 0.0
C1031 C 0.81433 0.16586 0.67198 0.0
C1032 C 0.78644 0.16218 0.67273 0.0
C1033 C 0.77816 0.17575 0.64714 0.0
C1034 C 0.86297 0.18724 0.64204 0.0
C1035 C 0.76567 0.14473 0.7014 0.0
C1036 C 0.83662 0.11882 0.72348 0.0
C1037 C 0.85066 0.13595 0.75284 0.0
C1038 C 0.82368 0.12765 0.69772 0.0
C1039 C 0.82482 0.15432 0.70118 0.0
C1040 C 0.83804 0.17108 0.73161 0.0
C1041 C 0.85056 0.16165 0.75695 0.0
C1042 C 0.80995 0.109 0.6659 0.0
C1043 C 0.84069 0.19995 0.73637 0.0
H1044 H 0.83816 0.20668 0.59711 0.0
H1045 H 0.75749 0.17417 0.64918 0.0
H1046 H 0.87394 0.19483 0.66784 0.0
H1047 H 0.8624 0.16699 0.63574 0.0
H1048 H 0.87586 0.20321 0.6215 0.0
H1049 H 0.7439 0.141 0.69614 0.0
H1050 H 0.7646 0.12384 0.70406 0.0
H1051 H 0.77311 0.15596 0.72707 0.0
H1052 H 0.837 0.0992 0.7197 0.0
H1053 H 0.86158 0.17516 0.77939 0.0
H1054 H 0.82356 0.11891 0.64234 0.0
H1055 H 0.78891 0.10702 0.66051 0.0
H1056 H 0.80703 0.08736 0.6694 0.0
H1057 H 0.85531 0.21481 0.71598 0.0
H1058 H 0.84914 0.20919 0.76284 0.0
H1059 H 0.81971 0.19851 0.73274 0.0
C1060 C 0.83359 0.71962 0.70963 0.0
C1061 C 0.84736 0.72057 0.74148 0.0
C1062 C 0.82311 0.696 0.68671 0.0
C1063 C 0.82836 0.6734 0.69412 0.0
C1064 C 0.84471 0.67554 0.72454 0.0
C1065 C 0.85357 0.6988 0.74815 0.0
C1066 C 0.80472 0.69442 0.65585 0.0
C1067 C 0.85212 0.65281 0.73267 0.0
C1068 C 0.77466 0.60003 0.65669 0.0
C1069 C 0.78628 0.60017 0.62344 0.0
C1070 C 0.78827 0.62333 0.68008 0.0
C1071 C 0.81518 0.64702 0.67113 0.0
C1072 C 0.82813 0.64623 0.6388 0.0
C1073 C 0.81337 0.62311 0.61514 0.0
C1074 C 0.77283 0.62332 0.71331 0.0
C1075 C 0.85713 0.67038 0.62847 0.0
H1076 H 0.82925 0.73666 0.70379 0.0
H1077 H 0.86441 0.69937 0.77245 0.0
H1078 H 0.81344 0.69132 0.63083 0.0
H1079 H 0.78297 0.67576 0.65916 0.0
H1080 H 0.80293 0.71388 0.65339 0.0
H1081 H 0.86708 0.65874 0.75529 0.0
H1082 H 0.83248 0.63248 0.73904 0.0
H1083 H 0.8619 0.6489 0.70914 0.0
H1084 H 0.75395 0.5822 0.66363 0.0
H1085 H 0.82256 0.62363 0.58954 0.0
H1086 H 0.76796 0.64089 0.71203 0.0
H1087 H 0.78651 0.62719 0.73679 0.0
H1088 H 0.75253 0.60291 0.71712 0.0
H1089 H 0.85543 0.68919 0.62073 0.0
H1090 H 0.86632 0.66456 0.60592 0.0
H1091 H 0.87203 0.67677 0.65119 0.0
C1092 C 0.93811 0.43659 0.06028 0.0
C1093 C 0.9266 0.45146 0.07796 0.0
C1094 C 0.96068 0.44996 0.03588 0.0
C1095 C 0.97026 0.47833 0.02506 0.0
C1096 C 0.95714 0.49288 0.04023 0.0
C1097 C 0.93637 0.47976 0.06727 0.0
C1098 C 0.97473 0.43375 0.0224 0.0
C1099 C 0.96492 0.52228 0.02765 0.0
C1100 C 0.04503 0.51975 0.98372 0.0
C1101 C 0.03936 0.5136 0.94766 0.0
C1102 C 0.0228 0.50933 1.00896 0.0
C1103 C -0.00605 0.49245 0.99802 0.0
C1104 C 0.98815 0.48709 0.96133 0.0
C1105 C 0.01086 0.4974 0.93677 0.0
C1106 C 0.03039 0.51482 0.04761 0.0
C1107 C 0.95798 0.4694 0.94798 0.0
H1108 H 0.92972 0.41422 0.06549 0.0
H1109 H 0.92805 0.49189 0.08003 0.0
H1110 H 0.97111 0.42995 0.99362 0.0
H1111 H -0.00187 0.44649 0.0266 0.0
H1112 H 0.96655 0.41285 0.0358 0.0
H1113 H 0.95142 0.52998 0.03997 0.0
H1114 H 0.98757 0.53759 0.03381 0.0
H1115 H 0.96251 0.52216 0.9985 0.0
H1116 H 0.06704 0.5315 0.99239 0.0
H1117 H 0.00637 0.49183 0.90908 0.0
H1118 H 0.02421 0.49434 0.06109 0.0
H1119 H 0.01842 0.524 0.06043 0.0
H1120 H 0.05356 0.52957 0.05179 0.0
H1121 H 0.95005 0.44656 0.95355 0.0
H1122 H 0.95658 0.47184 0.91903 0.0
H1123 H 0.94361 0.47538 0.96163 0.0
C1124 C 0.48669 0.54299 0.98275 0.0
C1125 C 0.46342 0.52757 0.95982 0.0
C1126 C 0.49579 0.52936 1.00684 0.0
C1127 C 0.48008 0.49932 1.01056 0.0
C1128 C 0.45528 0.48364 0.98945 0.0
C1129 C 0.44759 0.4978 0.96394 0.0
C1130 C 0.52293 0.54722 0.02745 0.0
C1131 C 0.43702 0.4518 0.99361 0.0
C1132 C 0.52109 0.46471 0.04896 0.0
C1133 C 0.51509 0.46341 0.0852 0.0
C1134 C 0.50896 0.47515 0.02431 0.0
C1135 C 0.49019 0.48463 0.03596 0.0
C1136 C 0.48328 0.48235 0.0725 0.0
C1137 C 0.49596 0.47204 0.09662 0.0
C1138 C 0.51775 0.47776 0.98605 0.0
C1139 C 0.46358 0.49218 0.0865 0.0
H1140 H 0.4984 0.56602 0.98145 0.0
H1141 H 0.42951 0.48543 0.94681 0.0
H1142 H 0.51863 0.54416 0.05622 0.0
H1143 H 0.53855 0.54031 0.02123 0.0
H1144 H 0.53287 0.57032 0.02137 0.0
H1145 H 0.4175 0.4428 0.97705 0.0
H1146 H 0.44942 0.44138 0.98621 0.0
H1147 H 0.43064 0.44643 0.02169 0.0
H1148 H 0.53655 0.45892 0.04012 0.0
H1149 H 0.49192 0.47197 0.12468 0.0
H1150 H 0.53032 0.50062 0.97869 0.0
H1151 H 0.49869 0.46774 0.96874 0.0
H1152 H 0.53086 0.46768 0.9807 0.0
H1153 H 0.47461 0.5158 0.08596 0.0
H1154 H 0.45682 0.48503 0.11411 0.0
H1155 H 0.44434 0.48412 0.06961 0.0
C1156 C 0.51237 0.02474 0.08858 0.0
C1157 C 0.50926 0.04839 0.08118 0.0
C1158 C 0.50261 0.00163 0.0646 0.0
C1159 C 0.48923 0.00197 0.03244 0.0
C1160 C 0.487 0.02635 0.02447 0.0
C1161 C 0.49716 0.04917 0.04869 0.0
C1162 C 0.50567 0.97632 0.07427 0.0
C1163 C 0.47231 0.02771 0.99127 0.0
C1164 C 0.47641 0.95114 0.95443 0.0
C1165 C 0.44792 0.9298 0.9597 0.0
C1166 C 0.49056 0.97401 0.97864 0.0
C1167 C 0.47571 0.97621 1.00837 0.0
C1168 C 0.4472 0.95421 1.0142 0.0
C1169 C 0.43417 0.93098 0.99065 0.0
C1170 C 0.52118 -0.00365 0.97184 0.0
C1171 C 0.42988 0.95578 0.04448 0.0
H1172 H 0.52127 0.02373 0.1138 0.0
H1173 H 0.49444 0.06725 0.04292 0.0
H1174 H 0.48429 0.9573 0.07825 0.0
H1175 H 0.51609 0.97133 0.05239 0.0
H1176 H 0.5183 0.98003 0.0988 0.0
H1177 H 0.47415 0.0489 0.98759 0.0
H1178 H 0.48141 0.02296 0.96774 0.0
H1179 H 0.44935 0.0113 0.99251 0.0
H1180 H 0.48736 0.95048 0.9308 0.0
H1181 H 0.41241 0.91424 0.99555 0.0
H1182 H 0.53416 -0.00045 0.99589 0.0
H1183 H 0.5226 0.01702 0.96568 0.0
H1184 H 0.53056 0.9905 0.94952 0.0
H1185 H 0.43984 0.95568 0.07 0.0
H1186 H 0.40754 0.93775 0.04434 0.0
H1187 H 0.42946 0.97602 0.0431 0.0
C1188 C 0.00033 0.17016 0.09277 0.0
C1189 C 0.02504 0.1685 0.0995 0.0
C1190 C 0.98633 0.16255 0.06002 0.0
C1191 C -0.00298 0.15291 0.03249 0.0
C1192 C 0.02199 0.15117 0.03873 0.0
C1193 C 0.03573 0.15898 0.07212 0.0
C1194 C 0.95985 0.16478 0.05501 0.0
C1195 C 0.0341 0.14095 1.01012 0.0
C1196 C 0.94362 0.11277 0.95799 0.0
C1197 C 0.95135 0.1342 0.9324 0.0
C1198 C 0.95891 0.11818 0.99003 0.0
C1199 C 0.98234 0.14579 0.99706 0.0
C1200 C -0.00992 0.16746 0.97136 0.0
C1201 C 0.9747 0.1614 0.93948 0.0
C1202 C 0.94998 0.09432 1.01644 0.0
C1203 C 0.01435 0.19736 0.9778 0.0
H1204 H -0.00851 0.17724 0.11343 0.0
H1205 H 0.05451 0.15726 0.0769 0.0
H1206 H 0.96273 0.17895 0.03235 0.0
H1207 H 0.9414 0.14348 0.04884 0.0
H1208 H 0.95457 0.17321 0.07882 0.0
H1209 H 0.05277 0.13951 0.01941 0.0
H1210 H 0.01752 0.11968 1.00051 0.0
H1211 H 0.04075 0.15573 0.98726 0.0
H1212 H 0.92599 0.09155 0.95265 0.0
H1213 H 0.981 0.17815 0.91999 0.0
H1214 H 0.94255 0.09957 0.04112 0.0
H1215 H 0.96847 0.09181 0.02346 0.0
H1216 H 0.93259 0.07366 1.00623 0.0
H1217 H 0.00902 0.20691 1.00037 0.0
H1218 H 0.01894 0.21134 0.95437 0.0
H1219 H 0.03397 0.19694 0.98496 0.0
C1220 C 0.81751 0.79978 0.94675 0.0
C1221 C 0.84584 0.80923 0.93669 0.0
C1222 C 0.81083 0.80804 0.97901 0.0
C1223 C 0.83297 0.82675 1.00201 0.0
C1224 C 0.86169 0.83619 0.99228 0.0
C1225 C 0.86777 0.82717 0.95994 0.0
C1226 C 0.77992 0.79689 0.98827 0.0
C1227 C 0.88604 0.85624 1.01578 0.0
C1228 C 0.81351 0.86568 0.07221 0.0
C1229 C 0.80868 0.8486 0.10225 0.0
C1230 C 0.82193 0.85924 0.0396 0.0
C1231 C 0.82575 0.8352 0.03682 0.0
C1232 C 0.8211 0.81811 0.06711 0.0
C1233 C 0.8126 0.82488 0.09906 0.0
C1234 C 0.82676 0.87815 1.00806 0.0
C1235 C 0.82479 0.7923 0.06574 0.0
H1236 H 0.80036 0.7861 0.92902 0.0
H1237 H 0.88974 0.83508 0.95224 0.0
H1238 H 0.77487 0.78565 1.01405 0.0
H1239 H 0.77589 0.81493 0.99105 0.0
H1240 H 0.76517 0.78197 0.968 0.0
H1241 H 0.90716 0.86252 1.004 0.0
H1242 H 0.88484 0.87577 0.02085 0.0
H1243 H 0.8844 0.84602 0.04174 0.0
H1244 H 0.81094 0.8842 0.0742 0.0
H1245 H 0.8092 0.81145 0.12186 0.0
H1246 H 0.81159 0.86566 0.9867 0.0
H1247 H 0.84858 0.88625 0.99746 0.0
H1248 H 0.82401 0.89659 1.01464 0.0
H1249 H 0.80903 0.77633 0.0472 0.0
H1250 H 0.82196 0.78211 0.09203 0.0
H1251 H 0.84632 0.79836 0.05565 0.0
C1252 C 0.13959 0.02369 0.95051 0.0
C1253 C 0.16386 0.02692 0.9329 0.0
C1254 C 0.12979 0.00781 0.98219 0.0
C1255 C 0.14501 -0.00456 0.99737 0.0
C1256 C 0.16988 -0.00079 0.97999 0.0
C1257 C 0.17864 0.01439 0.94782 0.0
C1258 C 0.10288 0.00394 0.99917 0.0
C1259 C 0.18731 0.98718 0.99539 0.0
C1260 C 0.14077 0.98157 0.09676 0.0
C1261 C 0.12327 0.95176 0.0993 0.0
C1262 C 0.14716 -0.00413 0.06412 0.0
C1263 C 0.13621 0.9802 0.0325 0.0
C1264 C 0.11801 0.95011 0.03471 0.0
C1265 C 0.11152 0.93627 0.06807 0.0
C1266 C 0.1662 0.02789 0.06355 0.0
C1267 C 0.10566 0.93251 1.00175 0.0
H1268 H 0.12757 0.03262 0.93874 0.0
H1269 H 0.1972 0.01649 0.93424 0.0
H1270 H 0.08746 0.98091 1.00298 0.0
H1271 H 0.10778 0.01401 0.02567 0.0
H1272 H 0.09255 0.01339 0.98311 0.0
H1273 H 0.20628 0.99225 0.979 0.0
H1274 H 0.1946 -0.00417 0.02234 0.0
H1275 H 0.17396 0.96368 0.99785 0.0
H1276 H 0.14955 -0.006 0.12062 0.0
H1277 H 0.09782 0.91334 0.06962 0.0
H1278 H 0.1554 0.0379 0.04975 0.0
H1279 H 0.18602 0.03365 0.04868 0.0
H1280 H 0.17212 0.03712 0.09052 0.0
H1281 H 0.09242 0.93965 0.98762 0.0
H1282 H 0.09232 0.9094 1.00765 0.0
H1283 H 0.12306 0.93568 0.98355 0.0
C1284 C 0.644 0.48858 0.27107 0.0
C1285 C 0.61677 0.46433 0.26681 0.0
C1286 C 0.65857 0.49533 0.3036 0.0
C1287 C 0.64594 0.47752 0.33334 0.0
C1288 C 0.61851 0.45287 0.32941 0.0
C1289 C 0.60431 0.44656 0.29631 0.0
C1290 C 0.68764 0.52177 0.3061 0.0
C1291 C 0.60411 0.43322 0.36029 0.0
C1292 C 0.69625 0.48634 0.41041 0.0
C1293 C 0.69153 0.50352 0.43409 0.0
C1294 C 0.68111 0.47709 0.37808 0.0
C1295 C 0.66108 0.48561 0.36863 0.0
C1296 C 0.65664 0.50329 0.39227 0.0
C1297 C 0.67156 0.5117 0.42458 0.0
C1298 C 0.68627 0.45786 0.35418 0.0
C1299 C 0.63615 0.51357 0.38336 0.0
H1300 H 0.65429 0.50245 0.24868 0.0
H1301 H 0.58349 0.42767 0.29356 0.0
H1302 H 0.68747 0.53626 0.32668 0.0
H1303 H 0.70371 0.5159 0.31411 0.0
H1304 H 0.69452 0.53359 0.2807 0.0
H1305 H 0.58367 0.41409 0.35267 0.0
H1306 H 0.61839 0.42619 0.37179 0.0
H1307 H 0.59976 0.44479 0.38132 0.0
H1308 H 0.71109 0.47933 0.41768 0.0
H1309 H 0.66747 0.52474 0.44263 0.0
H1310 H 0.6947 0.46847 0.32837 0.0
H1311 H 0.66585 0.43797 0.3489 0.0
H1312 H 0.70158 0.45217 0.36575 0.0
H1313 H 0.64341 0.52682 0.35908 0.0
H1314 H 0.63431 0.52641 0.40498 0.0
H1315 H 0.61468 0.49516 0.37782 0.0
C1316 C 0.46168 0.18523 0.40063 0.0
C1317 C 0.47946 0.19261 0.43029 0.0
C1318 C 0.4696 0.17822 0.36809 0.0
C1319 C 0.49596 0.17862 0.36502 0.0
C1320 C 0.51438 0.18716 0.3947 0.0
C1321 C 0.50579 0.19368 0.42688 0.0
C1322 C 0.4492 0.16926 0.33736 0.0
C1323 C 0.54282 0.18845 0.39289 0.0
C1324 C 0.50275 0.13134 0.29432 0.0
C1325 C 0.51774 0.15094 0.26738 0.0
C1326 C 0.49594 0.14011 0.32631 0.0
C1327 C 0.50385 0.16915 0.33137 0.0
C1328 C 0.51931 0.18903 0.3042 0.0
C1329 C 0.52594 0.17968 0.27264 0.0
C1330 C 0.47971 0.11813 0.35444 0.0
C1331 C 0.5282 0.2201 0.30799 0.0
H1332 H 0.44107 0.18374 0.40329 0.0
H1333 H 0.51944 0.19894 0.4499 0.0
H1334 H 0.46032 0.18169 0.31343 0.0
H1335 H 0.44117 0.14646 0.33128 0.0
H1336 H 0.43068 0.17215 0.34291 0.0
H1337 H 0.55583 0.19818 0.41694 0.0
H1338 H 0.5394 0.16661 0.38982 0.0
H1339 H 0.55509 0.201 0.36955 0.0
H1340 H 0.49577 0.10902 0.29004 0.0
H1341 H 0.53689 0.19479 0.25149 0.0
H1342 H 0.45891 0.11685 0.35929 0.0
H1343 H 0.49174 0.12453 0.37967 0.0
H1344 H 0.47574 0.09663 0.347 0.0
H1345 H 0.50898 0.22238 0.30847 0.0
H1346 H 0.54219 0.23324 0.28598 0.0
H1347 H 0.53964 0.22867 0.33331 0.0
C1348 C 0.82287 0.37404 0.29877 0.0
C1349 C 0.82407 0.35987 0.26831 0.0
C1350 C 0.81438 0.35974 0.33181 0.0
C1351 C 0.80656 0.33051 0.33449 0.0
C1352 C 0.80685 0.31603 0.30357 0.0
C1353 C 0.81561 0.33075 0.27129 0.0
C1354 C 0.81427 0.37604 0.36403 0.0
C1355 C 0.79836 0.28489 0.3046 0.0
C1356 C 0.8163 0.301 0.42201 0.0
C1357 C 0.78831 0.28504 0.43499 0.0
C1358 C 0.82237 0.31582 0.38969 0.0
C1359 C 0.80004 0.31536 0.36968 0.0
C1360 C 0.77161 0.29904 0.38242 0.0
C1361 C 0.76606 0.28393 0.41472 0.0
C1362 C 0.85287 0.33208 0.37697 0.0
C1363 C 0.74712 0.29806 0.36232 0.0
H1364 H 0.82903 0.39634 0.29695 0.0
H1365 H 0.81574 0.31912 0.24807 0.0
H1366 H 0.79331 0.36445 0.37756 0.0
H1367 H 0.83062 0.37772 0.38304 0.0
H1368 H 0.81878 0.39787 0.35739 0.0
H1369 H 0.79905 0.27647 0.27808 0.0
H1370 H 0.81285 0.28186 0.32246 0.0
H1371 H 0.77645 0.272 0.31531 0.0
H1372 H 0.83367 0.30212 0.43746 0.0
H1373 H 0.74445 0.27219 0.42478 0.0
H1374 H 0.85958 0.3549 0.37336 0.0
H1375 H 0.85466 0.32375 0.35089 0.0
H1376 H 0.86784 0.33052 0.39562 0.0
H1377 H 0.75005 0.31981 0.36079 0.0
H1378 H 0.7262 0.28369 0.37492 0.0
H1379 H 0.74669 0.29079 0.33482 0.0
C1380 C 0.3263 0.80859 0.76715 0.0
C1381 C 0.35524 0.8298 0.7687 0.0
C1382 C 0.31124 0.80026 0.73501 0.0
C1383 C 0.32507 0.81383 0.70312 0.0
C1384 C 0.3545 0.83501 0.70431 0.0
C1385 C 0.36932 0.84254 0.73701 0.0
C1386 C 0.28023 0.77725 0.73536 0.0
C1387 C 0.37012 0.85034 0.67117 0.0
C1388 C 0.28938 0.77615 0.61618 0.0
C1389 C 0.27568 0.79101 0.60537 0.0
C1390 C 0.30584 0.7836 0.64744 0.0
C1391 C 0.30835 0.80619 0.669 0.0
C1392 C 0.29397 0.82083 0.65846 0.0
C1393 C 0.27832 0.81343 0.62657 0.0
C1394 C 0.32129 0.76785 0.65682 0.0
C1395 C 0.29549 0.84468 0.68063 0.0
H1396 H 0.31523 0.79844 0.79145 0.0
H1397 H 0.39155 0.85911 0.73793 0.0
H1398 H 0.26682 0.78631 0.7269 0.0
H1399 H 0.27652 0.76014 0.71635 0.0
H1400 H 0.27306 0.76755 0.76191 0.0
H1401 H 0.3933 0.86465 0.67584 0.0
H1402 H 0.36725 0.83477 0.65028 0.0
H1403 H 0.36106 0.8633 0.66097 0.0
H1404 H 0.28845 0.75962 0.59915 0.0
H1405 H 0.2686 0.82561 0.61775 0.0
H1406 H 0.31435 0.75782 0.68323 0.0
H1407 H 0.34456 0.78306 0.65834 0.0
H1408 H 0.3175 0.75105 0.63722 0.0
H1409 H 0.28638 0.83647 0.70718 0.0
H1410 H 0.28371 0.8544 0.6685 0.0
H1411 H 0.31804 0.86154 0.68444 0.0
C1412 C 0.20067 0.50687 0.61806 0.0
C1413 C 0.18183 0.48027 0.60297 0.0
C1414 C 0.19386 0.51581 0.64991 0.0
C1415 C 0.16784 0.49749 0.66764 0.0
C1416 C 0.14918 0.47034 0.65285 0.0
C1417 C 0.15622 0.46227 0.62067 0.0
C1418 C 0.2142 0.54513 0.66417 0.0
C1419 C 0.12144 0.44985 0.67078 0.0
C1420 C 0.15946 0.50421 0.76686 0.0
C1421 C 0.14259 0.51718 0.76842 0.0
C1422 C 0.16865 0.49881 0.73449 0.0
C1423 C 0.16044 0.50595 0.70231 0.0
C1424 C 0.1438 0.51952 0.70357 0.0
C1425 C 0.13538 0.52529 0.73657 0.0
C1426 C 0.18683 0.48496 0.7348 0.0
C1427 C 0.1346 0.52764 0.67003 0.0
H1428 H 0.22013 0.52125 0.60408 0.0
H1429 H 0.14145 0.44183 0.60908 0.0
H1430 H 0.20315 0.5576 0.66667 0.0
H1431 H 0.22145 0.54341 0.69098 0.0
H1432 H 0.23319 0.55709 0.64697 0.0
H1433 H 0.1095 0.42935 0.6563 0.0
H1434 H 0.12563 0.44534 0.69803 0.0
H1435 H 0.10776 0.45961 0.6729 0.0
H1436 H 0.16582 0.49845 0.79122 0.0
H1437 H 0.12267 0.5356 0.7374 0.0
H1438 H 0.20656 0.49786 0.7192 0.0
H1439 H 0.17504 0.46363 0.72222 0.0
H1440 H 0.19295 0.48239 0.76199 0.0
H1441 H 0.15361 0.54269 0.65447 0.0
H1442 H 0.12149 0.53773 0.67532 0.0
H1443 H 0.12203 0.50846 0.65341 0.0
C1444 C 0.43786 0.62506 0.75257 0.0
C1445 C 0.45629 0.61638 0.76651 0.0
C1446 C 0.44489 0.64176 0.72147 0.0
C1447 C 0.47078 0.64966 0.70334 0.0
C1448 C 0.48913 0.64041 0.71705 0.0
C1449 C 0.48183 0.62422 0.74844 0.0
C1450 C 0.42485 0.65144 0.70836 0.0
C1451 C 0.51679 0.64792 0.69875 0.0
C1452 C 0.47747 0.66563 0.60438 0.0
C1453 C 0.49442 0.69552 0.60292 0.0
C1454 C 0.46899 0.65079 0.63664 0.0
C1455 C 0.47792 0.66594 0.66892 0.0
C1456 C 0.49463 0.69624 0.66784 0.0
C1457 C 0.50239 0.7107 0.63488 0.0
C1458 C 0.45088 0.61868 0.63605 0.0
C1459 C 0.50472 0.71333 0.70151 0.0
H1460 H 0.41858 0.61997 0.76694 0.0
H1461 H 0.49638 0.61797 0.75925 0.0
H1462 H 0.43631 0.67502 0.7061 0.0
H1463 H 0.41702 0.64268 0.68159 0.0
H1464 H 0.4062 0.64463 0.72611 0.0
H1465 H 0.52871 0.63909 0.71264 0.0
H1466 H 0.51249 0.63965 0.67129 0.0
H1467 H 0.53055 0.67143 0.69715 0.0
H1468 H 0.47067 0.65359 0.57994 0.0
H1469 H 0.51538 0.73374 0.63415 0.0
H1470 H 0.43126 0.61166 0.65192 0.0
H1471 H 0.4628 0.60914 0.64819 0.0
H1472 H 0.44459 0.61012 0.60884 0.0
H1473 H 0.48612 0.70944 0.71785 0.0
H1474 H 0.51797 0.73658 0.69638 0.0
H1475 H 0.51742 0.7064 0.71726 0.0
C1476 C 0.13386 0.02134 0.22641 0.0
C1477 C 0.10781 -0.00452 0.22413 0.0
C1478 C 0.13584 0.04731 0.21768 0.0
C1479 C 0.11097 0.04772 0.2078 0.0
C1480 C 0.08438 0.02195 0.20661 0.0
C1481 C 0.08317 -0.004 0.21429 0.0
C1482 C 0.1647 0.0742 0.21823 0.0
C1483 C 0.05733 0.0218 0.19673 0.0
C1484 C 0.10901 0.1159 0.21968 0.0
C1485 C 0.10986 0.12462 0.18457 0.0
C1486 C 0.10999 0.09123 0.22762 0.0
C1487 C 0.11263 0.07528 0.19984 0.0
C1488 C 0.11598 0.08526 0.1646 0.0
C1489 C 0.11435 0.10979 0.15732 0.0
C1490 C 0.10646 0.08131 0.26554 0.0
C1491 C 0.12021 0.06946 0.1345 0.0
H1492 H 0.15322 0.02127 0.23332 0.0
H1493 H 0.0631 0.97613 0.21204 0.0
H1494 H 0.16892 0.08543 0.1925 0.0
H1495 H 0.16507 0.08894 0.23879 0.0
H1496 H 0.18229 0.06983 0.22367 0.0
H1497 H 0.03826 0.00012 0.19815 0.0
H1498 H 0.05406 0.03613 0.21462 0.0
H1499 H 0.05915 0.03007 0.16948 0.0
H1500 H 0.10586 0.1274 0.241 0.0
H1501 H 0.11542 0.11664 0.13018 0.0
H1502 H 0.12409 0.07767 0.27333 0.0
H1503 H 0.08628 0.06067 0.26833 0.0
H1504 H 0.10595 0.09686 0.2842 0.0
H1505 H 0.13859 0.0664 0.14008 0.0
H1506 H 0.12401 0.08089 0.10893 0.0
H1507 H 0.10111 0.04797 0.13176 0.0
C1508 C 0.96785 0.08801 0.25131 0.0
C1509 C 0.98171 0.10686 0.22344 0.0
C1510 C 0.9406 0.06405 0.24632 0.0
C1511 C 0.92688 0.05962 0.21308 0.0
C1512 C 0.94083 0.07903 0.18513 0.0
C1513 C 0.96821 0.10224 0.1906 0.0
C1514 C 0.9265 0.04345 0.27646 0.0
C1515 C 0.92678 0.07546 0.14956 0.0
C1516 C 0.87078 0.98456 0.18792 0.0
C1517 C 0.84534 0.9845 0.19503 0.0
C1518 C 0.89735 0.00889 0.19357 0.0
C1519 C 0.89862 0.03388 0.20677 0.0
C1520 C 0.87305 0.03428 0.21321 0.0
C1521 C 0.84661 0.00952 0.20717 0.0
C1522 C 0.92408 0.00772 0.18573 0.0
C1523 C 0.87364 0.06065 0.22713 0.0
H1524 H 0.97826 0.09205 0.27682 0.0
H1525 H 0.97886 0.1174 0.16937 0.0
H1526 H 0.90549 0.04133 0.28243 0.0
H1527 H 0.92256 0.02202 0.26878 0.0
H1528 H 0.93969 0.05026 0.30083 0.0
H1529 H 0.94031 0.09295 0.13095 0.0
H1530 H 0.92205 0.0549 0.13752 0.0
H1531 H 0.90616 0.0749 0.15284 0.0
H1532 H 0.86997 0.96536 0.17816 0.0
H1533 H 0.82702 0.00952 0.21287 0.0
H1534 H 0.93721 0.01265 0.20998 0.0
H1535 H 0.93714 0.02405 0.1657 0.0
H1536 H 0.91934 0.98652 0.17573 0.0
H1537 H 0.88274 0.06533 0.25418 0.0
H1538 H 0.85204 0.0582 0.22811 0.0
H1539 H 0.88757 0.07935 0.21039 0.0
C1540 C 0.88228 0.87821 0.18589 0.0
C1541 C 0.87471 0.88046 0.22064 0.0
C1542 C 0.90546 0.87436 0.17891 0.0
C1543 C 0.92208 0.87384 0.20736 0.0
C1544 C 0.91483 0.87663 0.24255 0.0
C1545 C 0.89073 0.87929 0.24884 0.0
C1546 C 0.91183 0.87036 0.14114 0.0
C1547 C 0.93252 0.87684 0.27344 0.0
C1548 C 0.97256 0.84552 0.19018 0.0
C1549 C -0.00209 0.87095 0.18348 0.0
C1550 C 0.94748 0.846 0.19835 0.0
C1551 C 0.94824 0.87252 0.1999 0.0
C1552 C 0.97399 0.89814 0.19313 0.0
C1553 C -0.0015 0.89699 0.18496 0.0
C1554 C 0.92026 0.81828 0.20519 0.0
C1555 C 0.9757 0.92681 0.19449 0.0
H1556 H 0.86909 0.87793 0.16417 0.0
H1557 H 0.88426 0.88024 0.27568 0.0
H1558 H 0.93315 0.88806 0.13336 0.0
H1559 H 0.9124 0.85027 0.13865 0.0
H1560 H 0.89575 0.86962 0.1223 0.0
H1561 H 0.92355 0.8784 0.29919 0.0
H1562 H 0.93404 0.85719 0.27339 0.0
H1563 H 0.95454 0.89518 0.271 0.0
H1564 H 0.97246 0.82549 0.18936 0.0
H1565 H 0.0184 0.91659 0.18003 0.0
H1566 H 0.90389 0.8154 0.18547 0.0
H1567 H 0.91166 0.81873 0.23163 0.0
H1568 H 0.92346 0.7996 0.20386 0.0
H1569 H 0.96177 0.92789 0.17383 0.0
H1570 H -0.00224 0.94476 0.19035 0.0
H1571 H 0.96791 0.92969 0.22041 0.0
C1572 C 0.00555 0.1153 0.78356 0.0
C1573 C 0.98568 0.10588 0.81118 0.0
C1574 C 0.03321 0.12012 0.78901 0.0
C1575 C 0.04129 0.11598 0.82308 0.0
C1576 C 0.02145 0.10696 0.85123 0.0
C1577 C -0.00627 0.10158 0.84481 0.0
C1578 C 0.05376 0.12953 0.75832 0.0
C1579 C 0.02962 0.10329 0.8882 0.0
C1580 C 0.0971 0.09408 0.82809 0.0
C1581 C 0.12171 0.11953 0.83786 0.0
C1582 C 0.071 0.09286 0.82333 0.0
C1583 C 0.06924 0.11773 0.8283 0.0
C1584 C 0.09386 0.14361 0.83819 0.0
C1585 C 0.11995 0.14423 0.84279 0.0
C1586 C 0.04521 0.06479 0.81312 0.0
C1587 C 0.09275 0.17061 0.84363 0.0
H1588 H -0.00045 0.11938 0.75782 0.0
H1589 H 0.9788 0.09546 0.86662 0.0
H1590 H 0.07368 0.14947 0.76511 0.0
H1591 H 0.05962 0.11304 0.75268 0.0
H1592 H 0.04464 0.13323 0.73397 0.0
H1593 H 0.0124 0.09832 0.90768 0.0
H1594 H 0.03461 0.0858 0.88859 0.0
H1595 H 0.04912 0.12302 0.89672 0.0
H1596 H 0.09805 0.07477 0.8243 0.0
H1597 H 0.13885 0.16395 0.85028 0.0
H1598 H 0.03605 0.06722 0.78805 0.0
H1599 H 0.02849 0.05811 0.83373 0.0
H1600 H 0.05034 0.0475 0.80971 0.0
H1601 H 0.09047 0.17873 0.81767 0.0
H1602 H 0.11235 0.18754 0.8566 0.0
H1603 H 0.074 0.16641 0.85989 0.0
C1604 C 0.87724 -0.00194 0.85635 0.0
C1605 C 0.85231 -0.00193 0.84638 0.0
C1606 C 0.87968 0.97371 0.85235 0.0
C1607 C 0.85676 0.94879 0.83762 0.0
C1608 C 0.8311 0.94827 0.82866 0.0
C1609 C 0.8291 0.97294 0.83341 0.0
C1610 C 0.90715 0.97495 0.86296 0.0
C1611 C 0.80609 0.9219 0.81327 0.0
C1612 C 0.87486 0.89728 0.79209 0.0
C1613 C 0.86842 0.87712 0.81869 0.0
C1614 C 0.87127 0.9209 0.79799 0.0
C1615 C 0.86015 0.92365 0.83079 0.0
C1616 C 0.85334 0.90298 0.85752 0.0
C1617 C 0.85789 0.88013 0.85123 0.0
C1618 C 0.87916 0.9428 0.76913 0.0
C1619 C 0.841 0.90479 0.89258 0.0
H1620 H 0.89513 0.01734 0.86688 0.0
H1621 H 0.80981 0.97288 0.82572 0.0
H1622 H 0.90271 0.95753 0.88179 0.0
H1623 H 0.91739 0.9718 0.83936 0.0
H1624 H 0.92247 -0.0044 0.87545 0.0
H1625 H 0.78774 0.92502 0.8075 0.0
H1626 H 0.81257 0.91581 0.78846 0.0
H1627 H 0.799 0.9038 0.83192 0.0
H1628 H 0.88243 0.89444 0.76675 0.0
H1629 H 0.85227 0.86394 0.87141 0.0
H1630 H 0.89564 0.96406 0.77891 0.0
H1631 H 0.86026 0.94444 0.7616 0.0
H1632 H 0.88749 0.93754 0.7452 0.0
H1633 H 0.85671 0.92418 0.90699 0.0
H1634 H 0.83512 0.88591 0.90957 0.0
H1635 H 0.82174 0.90662 0.88832 0.0
C1636 C 0.07834 0.97657 0.78999 0.0
C1637 C 0.10315 0.98543 0.80964 0.0
C1638 C 0.05467 0.94915 0.79511 0.0
C1639 C 0.0561 0.93073 0.8207 0.0
C1640 C 0.08124 0.9399 0.8406 0.0
C1641 C 0.10449 0.9671 0.83467 0.0
C1642 C 0.02811 0.93991 0.77343 0.0
C1643 C 0.08348 0.92118 0.86851 0.0
C1644 C 0.9858 0.87475 0.8593 0.0
C1645 C 0.98081 0.85027 0.8409 0.0
C1646 C 0.01064 0.90087 0.85366 0.0
C1647 C 0.0307 0.90263 0.82843 0.0
C1648 C 0.02634 0.87769 0.81077 0.0
C1649 C 0.00139 0.85158 0.81746 0.0
C1650 C 0.01497 0.92675 0.87395 0.0
C1651 C 0.04732 0.87884 0.78365 0.0
H1652 H 0.07758 0.99086 0.77056 0.0
H1653 H 0.1239 0.97422 0.84982 0.0
H1654 H 0.02178 0.91934 0.76015 0.0
H1655 H 0.01025 0.93645 0.79098 0.0
H1656 H 0.03107 0.95593 0.75308 0.0
H1657 H 0.10474 0.93157 0.88146 0.0
H1658 H 0.06699 0.91584 0.88912 0.0
H1659 H 0.07949 0.90082 0.85659 0.0
H1660 H 0.96979 0.87357 0.87753 0.0
H1661 H -0.00277 0.83264 0.80294 0.0
H1662 H 0.01506 0.94264 0.85543 0.0
H1663 H 0.03593 0.93703 0.88752 0.0
H1664 H -0.00196 0.92136 0.89402 0.0
H1665 H 0.0473 0.89134 0.76045 0.0
H1666 H 0.04206 0.85727 0.77454 0.0
H1667 H 0.06925 0.88984 0.79459 0.0
C1668 C 0.74887 0.33262 0.56178 0.0
C1669 C 0.77372 0.33085 0.56275 0.0
C1670 C 0.75037 0.35883 0.55475 0.0
C1671 C 0.77714 0.38322 0.54703 0.0
C1672 C 0.80224 0.38155 0.54841 0.0
C1673 C 0.80027 0.35559 0.55689 0.0
C1674 C 0.72331 0.36031 0.55461 0.0
C1675 C 0.83106 0.40679 0.53931 0.0
C1676 C 0.77408 0.43884 0.48979 0.0
C1677 C 0.77668 0.45887 0.5151 0.0
C1678 C 0.77518 0.41452 0.49971 0.0
C1679 C 0.77884 0.41018 0.53576 0.0
C1680 C 0.78374 0.4314 0.56097 0.0
C1681 C 0.78277 0.45562 0.55028 0.0
C1682 C 0.77113 0.39286 0.47184 0.0
C1683 C 0.78818 0.42775 0.59959 0.0
H1684 H 0.72839 0.31358 0.56607 0.0
H1685 H 0.81964 0.3544 0.55683 0.0
H1686 H 0.72583 0.37799 0.57184 0.0
H1687 H 0.71897 0.36489 0.52748 0.0
H1688 H 0.70461 0.34013 0.56384 0.0
H1689 H 0.84855 0.40185 0.54174 0.0
H1690 H 0.83085 0.41376 0.5118 0.0
H1691 H 0.83589 0.42506 0.55683 0.0
H1692 H 0.76975 0.4414 0.46249 0.0
H1693 H 0.78517 0.47119 0.56997 0.0
H1694 H 0.75067 0.37284 0.47644 0.0
H1695 H 0.78841 0.3876 0.47351 0.0
H1696 H 0.77088 0.40053 0.4447 0.0
H1697 H 0.76782 0.41088 0.61109 0.0
H1698 H 0.79537 0.44771 0.61484 0.0
H1699 H 0.80412 0.42082 0.60292 0.0
C1700 C 0.63889 0.43687 0.52349 0.0
C1701 C 0.65328 0.43972 0.55528 0.0
C1702 C 0.61242 0.4128 0.5167 0.0
C1703 C 0.60036 0.39074 0.54211 0.0
C1704 C 0.61484 0.39351 0.5744 0.0
C1705 C 0.64115 0.41834 0.58087 0.0
C1706 C 0.59743 0.411 0.48231 0.0
C1707 C 0.6028 0.37004 0.60167 0.0
C1708 C 0.522 0.33418 0.53421 0.0
C1709 C 0.52397 0.31342 0.51447 0.0
C1710 C 0.54674 0.35985 0.54312 0.0
C1711 C 0.5738 0.36391 0.53338 0.0
C1712 C 0.57566 0.34264 0.51392 0.0
C1713 C 0.55067 0.3179 0.50415 0.0
C1714 C 0.54398 0.38259 0.56269 0.0
C1715 C 0.60406 0.34582 0.5037 0.0
H1716 H 0.6482 0.45391 0.50413 0.0
H1717 H 0.65222 0.421 0.60566 0.0
H1718 H 0.59515 0.39281 0.46638 0.0
H1719 H 0.57563 0.40709 0.48768 0.0
H1720 H 0.60909 0.43074 0.46626 0.0
H1721 H 0.61626 0.37583 0.62577 0.0
H1722 H 0.58102 0.36498 0.60938 0.0
H1723 H 0.60101 0.35036 0.59022 0.0
H1724 H 0.50121 0.33038 0.54241 0.0
H1725 H 0.55205 0.30141 0.48956 0.0
H1726 H 0.55421 0.4027 0.54724 0.0
H1727 H 0.55526 0.38714 0.58838 0.0
H1728 H 0.52137 0.37632 0.56765 0.0
H1729 H 0.61524 0.36382 0.48495 0.0
H1730 H 0.60175 0.32626 0.4911 0.0
H1731 H 0.61783 0.35078 0.52737 0.0
C1732 C 0.64558 0.20397 0.49083 0.0
C1733 C 0.66082 0.19931 0.51734 0.0
C1734 C 0.61961 0.20259 0.49839 0.0
C1735 C 0.60854 0.19603 0.53316 0.0
C1736 C 0.62256 0.18882 0.5592 0.0
C1737 C 0.64868 0.1907 0.55102 0.0
C1738 C 0.60496 0.20984 0.46969 0.0
C1739 C 0.61075 0.18058 0.59616 0.0
C1740 C 0.5616 0.22654 0.55999 0.0
C1741 C 0.53442 0.20258 0.55672 0.0
C1742 C 0.58605 0.22442 0.55368 0.0
C1743 C 0.58302 0.19802 0.54258 0.0
C1744 C 0.5556 0.17385 0.53918 0.0
C1745 C 0.53171 0.17634 0.54675 0.0
C1746 C 0.61514 0.25048 0.55821 0.0
C1747 C 0.55137 0.14565 0.52608 0.0
H1748 H 0.65478 0.21054 0.4647 0.0
H1749 H 0.66023 0.18666 0.57145 0.0
H1750 H 0.58192 0.19376 0.46877 0.0
H1751 H 0.60681 0.23075 0.47555 0.0
H1752 H 0.61438 0.21105 0.44322 0.0
H1753 H 0.62322 0.17373 0.61258 0.0
H1754 H 0.61092 0.19899 0.6092 0.0
H1755 H 0.58827 0.16298 0.5953 0.0
H1756 H 0.56368 0.24683 0.56729 0.0
H1757 H 0.51069 0.15786 0.54314 0.0
H1758 H 0.62651 0.25641 0.5325 0.0
H1759 H 0.62809 0.24575 0.57674 0.0
H1760 H 0.61391 0.26904 0.56846 0.0
H1761 H 0.55864 0.1479 0.49824 0.0
H1762 H 0.5287 0.12841 0.52733 0.0
H1763 H 0.56438 0.13907 0.54176 0.0
C1764 C 0.77211 0.45792 0.2077 0.0
C1765 C 0.78718 0.45241 0.18175 0.0
C1766 C 0.74788 0.45966 0.1988 0.0
C1767 C 0.73832 0.45522 0.1633 0.0
C1768 C 0.75486 0.45213 0.13666 0.0
C1769 C 0.7793 0.45114 0.14616 0.0
C1770 C 0.73156 0.46444 0.22775 0.0
C1771 C 0.7456 0.44769 0.09844 0.0
C1772 C 0.65824 0.4209 0.15005 0.0
C1773 C 0.6557 0.44418 0.13909 0.0
C1774 C 0.68515 0.42412 0.1572 0.0
C1775 C 0.70994 0.45143 0.15434 0.0
C1776 C 0.70756 0.4749 0.14283 0.0
C1777 C 0.68058 0.4709 0.1348 0.0
C1778 C 0.68706 0.39845 0.16859 0.0
C1779 C 0.73328 0.50453 0.14068 0.0
H1780 H 0.77834 0.45943 0.23517 0.0
H1781 H 0.79109 0.4474 0.12577 0.0
H1782 H 0.72495 0.47984 0.21917 0.0
H1783 H 0.71192 0.44403 0.23388 0.0
H1784 H 0.74433 0.47252 0.25235 0.0
H1785 H 0.76192 0.44772 0.08065 0.0
H1786 H 0.72554 0.42694 0.09563 0.0
H1787 H 0.74112 0.46453 0.08956 0.0
H1788 H 0.63917 0.40033 0.15374 0.0
H1789 H 0.67896 0.48928 0.12705 0.0
H1790 H 0.69558 0.40164 0.19589 0.0
H1791 H 0.70207 0.39584 0.15117 0.0
H1792 H 0.66603 0.3785 0.16788 0.0
H1793 H 0.74207 0.51186 0.16757 0.0
H1794 H 0.72803 0.52018 0.12914 0.0
H1795 H 0.75036 0.50449 0.1246 0.0
C1796 C 0.55619 0.23385 0.13849 0.0
C1797 C 0.53182 0.20681 0.13965 0.0
C1798 C 0.55425 0.25834 0.14528 0.0
C1799 C 0.5276 0.25541 0.15494 0.0
C1800 C 0.50293 0.22816 0.15566 0.0
C1801 C 0.50527 0.2043 0.14744 0.0
C1802 C 0.58082 0.28729 0.14316 0.0
C1803 C 0.47431 0.22403 0.16677 0.0
C1804 C 0.53325 0.31537 0.21201 0.0
C1805 C 0.52981 0.33243 0.18693 0.0
C1806 C 0.5314 0.28957 0.20217 0.0
C1807 C 0.5259 0.28066 0.16646 0.0
C1808 C 0.51997 0.29653 0.1417 0.0
C1809 C 0.52198 0.32226 0.15226 0.0
C1810 C 0.53684 0.27264 0.22962 0.0
C1811 C 0.51337 0.2874 0.10356 0.0
H1812 H 0.57667 0.23579 0.13271 0.0
H1813 H 0.48636 0.18336 0.14915 0.0
H1814 H 0.57696 0.30163 0.12603 0.0
H1815 H 0.58634 0.29705 0.16984 0.0
H1816 H 0.59932 0.28613 0.13256 0.0
H1817 H 0.45709 0.20135 0.16538 0.0
H1818 H 0.47555 0.23161 0.1943 0.0
H1819 H 0.46835 0.23686 0.14977 0.0
H1820 H 0.53897 0.32289 0.23893 0.0
H1821 H 0.51886 0.33512 0.1328 0.0
H1822 H 0.55713 0.27317 0.22353 0.0
H1823 H 0.51962 0.24998 0.22914 0.0
H1824 H 0.5383 0.28112 0.25673 0.0
H1825 H 0.53313 0.291 0.09018 0.0
H1826 H 0.50501 0.29953 0.08917 0.0
H1827 H 0.49756 0.26433 0.10154 0.0
C1828 C 0.77158 0.2972 0.13953 0.0
C1829 C 0.76931 0.32192 0.14144 0.0
C1830 C 0.74859 0.27037 0.14831 0.0
C1831 C 0.72232 0.26796 0.15805 0.0
C1832 C 0.71952 0.29259 0.15891 0.0
C1833 C 0.74318 0.31936 0.15102 0.0
C1834 C 0.75267 0.24478 0.14807 0.0
C1835 C 0.69163 0.29069 0.1688 0.0
C1836 C 0.65296 0.19852 0.14736 0.0
C1837 C 0.64509 0.19051 0.18267 0.0
C1838 C 0.67875 0.22304 0.13889 0.0
C1839 C 0.69739 0.2396 0.16634 0.0
C1840 C 0.6909 0.23012 0.2018 0.0
C1841 C 0.66467 0.2057 0.20959 0.0
C1842 C 0.68498 0.23236 0.10075 0.0
C1843 C 0.71095 0.24657 0.23163 0.0
H1844 H 0.79184 0.29891 0.1329 0.0
H1845 H 0.7414 0.33835 0.15303 0.0
H1846 H 0.74655 0.23382 0.17403 0.0
H1847 H 0.73862 0.22922 0.12792 0.0
H1848 H 0.77506 0.25065 0.14226 0.0
H1849 H 0.69272 0.31168 0.16724 0.0
H1850 H 0.67442 0.27551 0.151 0.0
H1851 H 0.6856 0.2824 0.19612 0.0
H1852 H 0.63818 0.1867 0.12628 0.0
H1853 H 0.65895 0.19936 0.23689 0.0
H1854 H 0.70675 0.2372 0.09337 0.0
H1855 H 0.6841 0.25222 0.09712 0.0
H1856 H 0.66949 0.21593 0.08235 0.0
H1857 H 0.73262 0.25024 0.22595 0.0
H1858 H 0.70366 0.23532 0.25735 0.0
H1859 H 0.71275 0.2678 0.2341 0.0
C1860 C 0.4723 0.79186 0.88103 0.0
C1861 C 0.4489 0.79382 0.86908 0.0
C1862 C 0.46984 0.76509 0.88683 0.0
C1863 C 0.44347 0.73994 0.88018 0.0
C1864 C 0.42003 0.74191 0.86746 0.0
C1865 C 0.42303 0.76876 0.86213 0.0
C1866 C 0.49539 0.7637 0.89998 0.0
C1867 C 0.39172 0.71562 0.85946 0.0
C1868 C 0.44172 0.67087 0.8601 0.0
C1869 C 0.43302 0.65654 0.8925 0.0
C1870 C 0.44576 0.69824 0.85598 0.0
C1871 C 0.44046 0.7114 0.88491 0.0
C1872 C 0.43103 0.69674 0.91761 0.0
C1873 C 0.42777 0.66942 0.92121 0.0
C1874 C 0.45613 0.71319 0.82082 0.0
C1875 C 0.4248 0.7101 0.94878 0.0
H1876 H 0.49229 0.81116 0.88649 0.0
H1877 H 0.40489 0.77008 0.85251 0.0
H1878 H 0.48972 0.75022 0.924 0.0
H1879 H 0.50223 0.75367 0.8796 0.0
H1880 H 0.51369 0.78513 0.90623 0.0
H1881 H 0.37546 0.7209 0.85024 0.0
H1882 H 0.39451 0.70274 0.83875 0.0
H1883 H 0.38348 0.70209 0.88341 0.0
H1884 H 0.44639 0.66092 0.8382 0.0
H1885 H 0.42171 0.65844 0.9464 0.0
H1886 H 0.47645 0.73354 0.82444 0.0
H1887 H 0.44042 0.71853 0.80982 0.0
H1888 H 0.45963 0.70001 0.80118 0.0
H1889 H 0.44438 0.73007 0.95643 0.0
H1890 H 0.41696 0.69565 0.97202 0.0
H1891 H 0.40853 0.71589 0.94145 0.0
C1892 C 0.29389 0.77376 0.86926 0.0
C1893 C 0.31467 0.77172 0.889 0.0
C1894 C 0.26837 0.74947 0.85972 0.0
C1895 C 0.26317 0.72245 0.87105 0.0
C1896 C 0.28389 0.72027 0.89166 0.0
C1897 C 0.30979 0.74504 0.89991 0.0
C1898 C 0.24722 0.75276 0.83714 0.0
C1899 C 0.2788 0.69174 0.90447 0.0
C1900 C 0.18746 0.65955 0.86993 0.0
C1901 C 0.18785 0.64518 0.83928 0.0
C1902 C 0.21163 0.68517 0.88024 0.0
C1903 C 0.23675 0.69642 0.85957 0.0
C1904 C 0.23675 0.68283 0.82768 0.0
C1905 C 0.21222 0.65754 0.81777 0.0
C1906 C 0.21066 0.69959 0.91391 0.0
C1907 C 0.26296 0.69453 0.80454 0.0
H1908 H 0.29801 0.79452 0.86035 0.0
H1909 H 0.32605 0.74361 0.91493 0.0
H1910 H 0.24115 0.7386 0.81372 0.0
H1911 H 0.22748 0.74633 0.8525 0.0
H1912 H 0.25577 0.77503 0.82788 0.0
H1913 H 0.29629 0.6938 0.92175 0.0
H1914 H 0.25844 0.6806 0.91938 0.0
H1915 H 0.27682 0.67812 0.88154 0.0
H1916 H 0.16864 0.65025 0.88658 0.0
H1917 H 0.21272 0.64673 0.79392 0.0
H1918 H 0.21725 0.7222 0.90866 0.0
H1919 H 0.22597 0.6995 0.93329 0.0
H1920 H 0.18908 0.68894 0.926 0.0
H1921 H 0.26948 0.71657 0.79614 0.0
H1922 H 0.25944 0.68133 0.78058 0.0
H1923 H 0.28097 0.69555 0.8197 0.0
C1924 C 0.21947 0.55422 0.85606 0.0
C1925 C 0.20727 0.55104 0.88966 0.0
C1926 C 0.24289 0.55026 0.85083 0.0
C1927 C 0.25498 0.54391 0.88011 0.0
C1928 C 0.24358 0.54204 0.91436 0.0
C1929 C 0.21954 0.54517 0.91864 0.0
C1930 C 0.2536 0.55126 0.8137 0.0
C1931 C 0.2561 0.53564 0.94628 0.0
C1932 C 0.296 0.50487 0.8652 0.0
C1933 C 0.32438 0.52724 0.86657 0.0
C1934 C 0.27322 0.51002 0.86918 0.0
C1935 C 0.27892 0.53823 0.87483 0.0
C1936 C 0.30749 0.56093 0.87592 0.0
C1937 C 0.32987 0.55519 0.87174 0.0
C1938 C 0.24304 0.48521 0.86742 0.0
C1939 C 0.31439 0.59129 0.88172 0.0
H1940 H 0.20942 0.55777 0.83338 0.0
H1941 H 0.20976 0.54215 0.94446 0.0
H1942 H 0.27681 0.56667 0.81214 0.0
H1943 H 0.2504 0.53002 0.80643 0.0
H1944 H 0.24244 0.55733 0.79394 0.0
H1945 H 0.2456 0.5362 0.97125 0.0
H1946 H 0.25382 0.51422 0.94355 0.0
H1947 H 0.27923 0.55131 0.94818 0.0
H1948 H 0.29153 0.48323 0.86109 0.0
H1949 H 0.35171 0.57264 0.87268 0.0
H1950 H 0.23112 0.48884 0.84618 0.0
H1951 H 0.23182 0.4834 0.89263 0.0
H1952 H 0.24226 0.46466 0.86231 0.0
H1953 H 0.30496 0.59782 0.86023 0.0
H1954 H 0.33772 0.60649 0.88252 0.0
H1955 H 0.30482 0.59289 0.90692 0.0
C1956 C 0.33058 0.77511 0.51646 0.0
C1957 C 0.31874 0.7692 0.48252 0.0
C1958 C 0.35729 0.778 0.52287 0.0
C1959 C 0.37219 0.77413 0.49472 0.0
C1960 C 0.3602 0.76798 0.46029 0.0
C1961 C 0.33368 0.7661 0.45443 0.0
C1962 C 0.36961 0.7854 0.55973 0.0
C1963 C 0.37525 0.76311 0.42987 0.0
C1964 C 0.45093 0.79931 0.5085 0.0
C1965 C 0.44925 0.77437 0.52149 0.0
C1966 C 0.42594 0.79968 0.49935 0.0
C1967 C 0.39913 0.77426 0.50225 0.0
C1968 C 0.39773 0.74893 0.51443 0.0
C1969 C 0.42279 0.74943 0.52432 0.0
C1970 C 0.42812 0.82725 0.48731 0.0
C1971 C 0.36972 0.72128 0.51735 0.0
H1972 H 0.31924 0.77843 0.53788 0.0
H1973 H 0.32466 0.76227 0.42808 0.0
H1974 H 0.37234 0.76789 0.57045 0.0
H1975 H 0.39102 0.80484 0.55898 0.0
H1976 H 0.35588 0.78916 0.57818 0.0
H1977 H 0.36343 0.75921 0.40462 0.0
H1978 H 0.39692 0.78182 0.42651 0.0
H1979 H 0.37785 0.74446 0.43563 0.0
H1980 H 0.4716 0.81846 0.50599 0.0
H1981 H 0.42179 0.73004 0.5337 0.0
H1982 H 0.41652 0.83354 0.50608 0.0
H1983 H 0.41789 0.82437 0.46111 0.0
H1984 H 0.45059 0.84489 0.4855 0.0
H1985 H 0.3563 0.72324 0.53804 0.0
H1986 H 0.37268 0.703 0.52419 0.0
H1987 H 0.35784 0.71649 0.49206 0.0
C1988 C 0.2231 0.56631 0.47972 0.0
C1989 C 0.19986 0.54148 0.46611 0.0
C1990 C 0.22117 0.59086 0.48556 0.0
C1991 C 0.19528 0.59031 0.47808 0.0
C1992 C 0.17249 0.56602 0.46218 0.0
C1993 C 0.17528 0.54214 0.45569 0.0
C1994 C 0.24624 0.61681 0.50165 0.0
C1995 C 0.14442 0.56449 0.45431 0.0
C1996 C 0.18461 0.64244 0.53347 0.0
C1997 C 0.19284 0.66498 0.50963 0.0
C1998 C 0.18355 0.61712 0.52288 0.0
C1999 C 0.19182 0.61484 0.48804 0.0
C2000 C 0.19848 0.63685 0.46337 0.0
C2001 C 0.19844 0.66146 0.47432 0.0
C2002 C 0.17497 0.59342 0.54947 0.0
C2003 C 0.2079 0.6355 0.4262 0.0
H2004 H 0.24213 0.56605 0.48788 0.0
H2005 H 0.15723 0.52316 0.44485 0.0
H2006 H 0.25103 0.63621 0.48643 0.0
H2007 H 0.2409 0.61983 0.52902 0.0
H2008 H 0.26569 0.61489 0.50249 0.0
H2009 H 0.12893 0.54414 0.44136 0.0
H2010 H 0.13485 0.56658 0.47925 0.0
H2011 H 0.14782 0.5824 0.43695 0.0
H2012 H 0.18001 0.64499 0.56067 0.0
H2013 H 0.20489 0.67881 0.45567 0.0
H2014 H 0.19396 0.59205 0.55727 0.0
H2015 H 0.15933 0.57261 0.53769 0.0
H2016 H 0.16548 0.5969 0.57366 0.0
H2017 H 0.22946 0.63791 0.42706 0.0
H2018 H 0.20881 0.65259 0.40909 0.0
H2019 H 0.1934 0.61459 0.41385 0.0
C2020 C 0.4373 0.63016 0.47677 0.0
C2021 C 0.43622 0.65546 0.48021 0.0
C2022 C 0.41396 0.60364 0.48559 0.0
C2023 C 0.38842 0.60212 0.49686 0.0
C2024 C 0.38685 0.62738 0.49976 0.0
C2025 C 0.41097 0.65388 0.49191 0.0
C2026 C 0.41679 0.57734 0.4832 0.0
C2027 C 0.35969 0.62637 0.51126 0.0
C2028 C 0.3186 0.53384 0.48274 0.0
C2029 C 0.31066 0.524 0.51751 0.0
C2030 C 0.34428 0.55883 0.4756 0.0
C2031 C 0.36286 0.57394 0.50379 0.0
C2032 C 0.3563 0.56272 0.53851 0.0
C2033 C 0.33007 0.53791 0.54504 0.0
C2034 C 0.35059 0.57003 0.43818 0.0
C2035 C 0.37642 0.57752 0.5689 0.0
H2036 H 0.45689 0.63107 0.46857 0.0
H2037 H 0.41015 0.67332 0.49517 0.0
H2038 H 0.40968 0.56502 0.5082 0.0
H2039 H 0.40291 0.56323 0.46183 0.0
H2040 H 0.43905 0.58262 0.47772 0.0
H2041 H 0.36181 0.64784 0.5117 0.0
H2042 H 0.34205 0.6125 0.49309 0.0
H2043 H 0.35356 0.61693 0.53806 0.0
H2044 H 0.30394 0.52303 0.46117 0.0
H2045 H 0.32428 0.53016 0.57189 0.0
H2046 H 0.37195 0.57419 0.42986 0.0
H2047 H 0.35084 0.5906 0.43682 0.0
H2048 H 0.33456 0.55499 0.41904 0.0
H2049 H 0.3979 0.58093 0.56261 0.0
H2050 H 0.36888 0.56518 0.59388 0.0
H2051 H 0.37877 0.59883 0.57318 0.0
loop_
_geom_bond_atom_site_label_1
_geom_bond_atom_site_label_2
_geom_bond_distance
_geom_bond_site_symmetry_2
_ccdc_geom_bond_type
Co0 O3 1.970 . S
Co0 N17 1.989 . S
Co0 O25 1.967 . S
Co0 O32 1.920 . S
Co1 O4 1.966 . S
Co1 N10 2.022 . S
Co1 N18 1.993 . S
Co1 O26 1.941 . S
C2 O3 1.258 . S
C2 O4 1.263 . S
O3 Co0 1.970 . S
O3 C2 1.258 . S
O4 Co1 1.966 . S
O4 C2 1.263 . S
C5 O6 1.235 . S
C5 O32 1.289 . S
O6 C5 1.235 . S
C7 C9 1.400 . S
C7 N10 1.351 . S
C7 C12 1.501 . S
C8 C9 1.387 1_655 S
C8 N11 1.341 . S
C9 C7 1.400 . S
C9 C8 1.387 1_455 S
N10 Co1 2.022 . S
N10 C7 1.351 . S
N10 N11 1.365 1_455 S
N11 C8 1.341 . S
N11 N10 1.365 1_655 S
N11 H31 0.862 . S
C12 C7 1.501 . S
C12 H13 0.961 . S
C12 H14 0.961 . S
C12 H15 0.960 . S
H13 C12 0.961 . S
H14 C12 0.961 . S
H15 C12 0.960 . S
C16 N17 1.342 . S
C16 C20 1.401 . S
C16 C21 1.499 . S
N17 Co0 1.989 . S
N17 C16 1.342 . S
N17 N18 1.388 . S
N18 Co1 1.993 . S
N18 N17 1.388 . S
N18 C19 1.346 . S
C19 N18 1.346 . S
C19 C20 1.396 . S
C19 C29 1.510 . S
C20 C16 1.401 . S
C20 C19 1.396 . S
C21 C16 1.499 . S
C21 H22 0.959 . S
C21 H23 0.960 . S
C21 H24 0.961 . S
H22 C21 0.959 . S
H23 C21 0.960 . S
H24 C21 0.961 . S
O25 Co0 1.967 . S
O25 C33 1.258 . S
O26 Co1 1.941 . S
O26 C33 1.266 . S
H27 C29 0.959 . S
H28 C29 0.961 . S
C29 C19 1.510 . S
C29 H27 0.959 . S
C29 H28 0.961 . S
C29 H30 0.960 . S
H30 C29 0.960 . S
H31 N11 0.862 . S
O32 Co0 1.920 . S
O32 C5 1.289 . S
C33 O25 1.258 . S
C33 O26 1.266 . S
Co34 O37 1.970 . S
Co34 N51 1.989 . S
Co34 O59 1.967 . S
Co34 O66 1.920 . S
Co35 O38 1.966 . S
Co35 N44 2.022 . S
Co35 N52 1.993 . S
Co35 O60 1.941 . S
C36 O37 1.258 . S
C36 O38 1.263 . S
O37 Co34 1.970 . S
O37 C36 1.258 . S
O38 Co35 1.966 . S
O38 C36 1.263 . S
C39 O40 1.235 . S
C39 O66 1.289 . S
O40 C39 1.235 . S
C41 C43 1.400 . S
C41 N44 1.351 . S
C41 C46 1.501 . S
C42 C43 1.387 . S
C42 N45 1.341 . S
C43 C41 1.400 . S
C43 C42 1.387 . S
N44 Co35 2.022 . S
N44 C41 1.351 . S
N44 N45 1.365 . S
N45 C42 1.341 . S
N45 N44 1.365 . S
N45 H65 0.862 . S
C46 C41 1.501 . S
C46 H47 0.961 . S
C46 H48 0.961 . S
C46 H49 0.960 . S
H47 C46 0.961 . S
H48 C46 0.961 . S
H49 C46 0.960 . S
C50 N51 1.342 . S
C50 C54 1.401 . S
C50 C55 1.499 . S
N51 Co34 1.989 . S
N51 C50 1.342 . S
N51 N52 1.388 . S
N52 Co35 1.993 . S
N52 N51 1.388 . S
N52 C53 1.346 . S
C53 N52 1.346 . S
C53 C54 1.396 . S
C53 C63 1.510 . S
C54 C50 1.401 . S
C54 C53 1.396 . S
C55 C50 1.499 . S
C55 H56 0.959 . S
C55 H57 0.960 . S
C55 H58 0.961 . S
H56 C55 0.959 . S
H57 C55 0.960 . S
H58 C55 0.961 . S
O59 Co34 1.967 . S
O59 C67 1.258 . S
O60 Co35 1.941 . S
O60 C67 1.266 . S
H61 C63 0.959 . S
H62 C63 0.961 . S
C63 C53 1.510 . S
C63 H61 0.959 . S
C63 H62 0.961 . S
C63 H64 0.960 . S
H64 C63 0.960 . S
H65 N45 0.862 . S
O66 Co34 1.920 . S
O66 C39 1.289 . S
C67 O59 1.258 . S
C67 O60 1.266 . S
Co68 O71 1.970 . S
Co68 N85 1.989 . S
Co68 O93 1.967 . S
Co68 O100 1.920 . S
Co69 O72 1.966 . S
Co69 N78 2.022 . S
Co69 N86 1.993 . S
Co69 O94 1.941 . S
C70 O71 1.258 . S
C70 O72 1.263 . S
O71 Co68 1.970 . S
O71 C70 1.258 . S
O72 Co69 1.966 . S
O72 C70 1.263 . S
C73 O74 1.235 . S
C73 O100 1.289 . S
O74 C73 1.235 . S
C75 C77 1.400 . S
C75 N78 1.351 . S
C75 C80 1.501 . S
C76 C77 1.387 1_545 S
C76 N79 1.341 1_545 S
C77 C75 1.400 . S
C77 C76 1.387 1_565 S
N78 Co69 2.022 . S
N78 C75 1.351 . S
N78 N79 1.365 . S
N79 C76 1.341 1_565 S
N79 N78 1.365 . S
N79 H99 0.860 1_565 S
C80 C75 1.501 . S
C80 H81 0.961 . S
C80 H82 0.961 . S
C80 H83 0.960 . S
H81 C80 0.961 . S
H82 C80 0.961 . S
H83 C80 0.960 . S
C84 N85 1.342 . S
C84 C88 1.401 . S
C84 C89 1.499 . S
N85 Co68 1.989 . S
N85 C84 1.342 . S
N85 N86 1.388 . S
N86 Co69 1.993 . S
N86 N85 1.388 . S
N86 C87 1.346 . S
C87 N86 1.346 . S
C87 C88 1.396 . S
C87 C97 1.510 . S
C88 C84 1.401 . S
C88 C87 1.396 . S
C89 C84 1.499 . S
C89 H90 0.959 . S
C89 H91 0.960 . S
C89 H92 0.961 . S
H90 C89 0.959 . S
H91 C89 0.960 . S
H92 C89 0.961 . S
O93 Co68 1.967 . S
O93 C101 1.258 . S
O94 Co69 1.941 . S
O94 C101 1.266 . S
H95 C97 0.959 . S
H96 C97 0.961 . S
C97 C87 1.510 . S
C97 H95 0.959 . S
C97 H96 0.961 . S
C97 H98 0.960 . S
H98 C97 0.960 . S
H99 N79 0.860 1_545 S
O100 Co68 1.920 . S
O100 C73 1.289 . S
C101 O93 1.258 . S
C101 O94 1.266 . S
Co102 O105 1.970 . S
Co102 N119 1.989 . S
Co102 O127 1.967 . S
Co102 O134 1.920 . S
Co103 O106 1.966 . S
Co103 N112 2.022 . S
Co103 N120 1.993 . S
Co103 O128 1.941 . S
C104 O105 1.258 . S
C104 O106 1.263 . S
O105 Co102 1.970 . S
O105 C104 1.258 . S
O106 Co103 1.966 . S
O106 C104 1.263 . S
C107 O108 1.235 . S
C107 O134 1.289 . S
O108 C107 1.235 . S
C109 C111 1.400 . S
C109 N112 1.351 . S
C109 C114 1.501 . S
C110 C111 1.387 1_565 S
C110 N113 1.341 . S
C111 C109 1.400 . S
C111 C110 1.387 1_545 S
N112 Co103 2.022 . S
N112 C109 1.351 . S
N112 N113 1.365 1_545 S
N113 C110 1.341 . S
N113 N112 1.365 1_565 S
N113 H133 0.862 . S
C114 C109 1.501 . S
C114 H115 0.961 . S
C114 H116 0.961 . S
C114 H117 0.960 . S
H115 C114 0.961 . S
H116 C114 0.961 . S
H117 C114 0.960 . S
C118 N119 1.342 . S
C118 C122 1.401 . S
C118 C123 1.499 . S
N119 Co102 1.989 . S
N119 C118 1.342 . S
N119 N120 1.388 . S
N120 Co103 1.993 . S
N120 N119 1.388 . S
N120 C121 1.346 . S
C121 N120 1.346 . S
C121 C122 1.396 . S
C121 C131 1.510 . S
C122 C118 1.401 . S
C122 C121 1.396 . S
C123 C118 1.499 . S
C123 H124 0.959 . S
C123 H125 0.960 . S
C123 H126 0.961 . S
H124 C123 0.959 . S
H125 C123 0.960 . S
H126 C123 0.961 . S
O127 Co102 1.967 . S
O127 C135 1.258 . S
O128 Co103 1.941 . S
O128 C135 1.266 . S
H129 C131 0.959 . S
H130 C131 0.961 . S
C131 C121 1.510 . S
C131 H129 0.959 . S
C131 H130 0.961 . S
C131 H132 0.960 . S
H132 C131 0.960 . S
H133 N113 0.862 . S
O134 Co102 1.920 . S
O134 C107 1.289 . S
C135 O127 1.258 . S
C135 O128 1.266 . S
Co136 O139 1.970 . S
Co136 N153 1.989 . S
Co136 O161 1.967 . S
Co136 O168 1.920 . S
Co137 O140 1.966 . S
Co137 N146 2.022 . S
Co137 N154 1.993 . S
Co137 O162 1.941 . S
C138 O139 1.258 . S
C138 O140 1.263 . S
O139 Co136 1.970 . S
O139 C138 1.258 . S
O140 Co137 1.966 . S
O140 C138 1.263 . S
C141 O142 1.235 . S
C141 O168 1.289 . S
O142 C141 1.235 . S
C143 C145 1.400 . S
C143 N146 1.351 . S
C143 C148 1.501 . S
C144 C145 1.387 1_455 S
C144 N147 1.341 1_455 S
C145 C143 1.400 . S
C145 C144 1.387 1_655 S
N146 Co137 2.022 . S
N146 C143 1.351 . S
N146 N147 1.365 . S
N147 C144 1.341 1_655 S
N147 N146 1.365 . S
N147 H167 0.860 1_655 S
C148 C143 1.501 . S
C148 H149 0.961 . S
C148 H150 0.961 . S
C148 H151 0.960 . S
H149 C148 0.961 . S
H150 C148 0.961 . S
H151 C148 0.960 . S
C152 N153 1.342 . S
C152 C156 1.401 . S
C152 C157 1.499 . S
N153 Co136 1.989 . S
N153 C152 1.342 . S
N153 N154 1.388 . S
N154 Co137 1.993 . S
N154 N153 1.388 . S
N154 C155 1.346 . S
C155 N154 1.346 . S
C155 C156 1.396 . S
C155 C165 1.510 . S
C156 C152 1.401 . S
C156 C155 1.396 . S
C157 C152 1.499 . S
C157 H158 0.959 . S
C157 H159 0.960 . S
C157 H160 0.961 . S
H158 C157 0.959 . S
H159 C157 0.960 . S
H160 C157 0.961 . S
O161 Co136 1.967 . S
O161 C169 1.258 . S
O162 Co137 1.941 . S
O162 C169 1.266 . S
H163 C165 0.959 . S
H164 C165 0.961 . S
C165 C155 1.510 . S
C165 H163 0.959 . S
C165 H164 0.961 . S
C165 H166 0.960 . S
H166 C165 0.960 . S
H167 N147 0.860 1_455 S
O168 Co136 1.920 . S
O168 C141 1.289 . S
C169 O161 1.258 . S
C169 O162 1.266 . S
Co170 O173 1.970 . S
Co170 N187 1.989 . S
Co170 O195 1.967 . S
Co170 O202 1.920 . S
Co171 O174 1.966 . S
Co171 N180 2.022 . S
Co171 N188 1.993 . S
Co171 O196 1.941 . S
C172 O173 1.258 . S
C172 O174 1.263 . S
O173 Co170 1.970 . S
O173 C172 1.258 . S
O174 Co171 1.966 . S
O174 C172 1.263 . S
C175 O176 1.235 . S
C175 O202 1.289 . S
O176 C175 1.235 . S
C177 C179 1.400 . S
C177 N180 1.351 . S
C177 C182 1.501 . S
C178 C179 1.387 . S
C178 N181 1.341 . S
C179 C177 1.400 . S
C179 C178 1.387 . S
N180 Co171 2.022 . S
N180 C177 1.351 . S
N180 N181 1.365 . S
N181 C178 1.341 . S
N181 N180 1.365 . S
N181 H201 0.862 . S
C182 C177 1.501 . S
C182 H183 0.961 . S
C182 H184 0.961 . S
C182 H185 0.960 . S
H183 C182 0.961 . S
H184 C182 0.961 . S
H185 C182 0.960 . S
C186 N187 1.342 . S
C186 C190 1.401 . S
C186 C191 1.499 . S
N187 Co170 1.989 . S
N187 C186 1.342 . S
N187 N188 1.388 . S
N188 Co171 1.993 . S
N188 N187 1.388 . S
N188 C189 1.346 . S
C189 N188 1.346 . S
C189 C190 1.396 . S
C189 C199 1.510 . S
C190 C186 1.401 . S
C190 C189 1.396 . S
C191 C186 1.499 . S
C191 H192 0.959 . S
C191 H193 0.960 . S
C191 H194 0.961 . S
H192 C191 0.959 . S
H193 C191 0.960 . S
H194 C191 0.961 . S
O195 Co170 1.967 . S
O195 C203 1.258 . S
O196 Co171 1.941 . S
O196 C203 1.266 . S
H197 C199 0.959 . S
H198 C199 0.961 . S
C199 C189 1.510 . S
C199 H197 0.959 . S
C199 H198 0.961 . S
C199 H200 0.960 . S
H200 C199 0.960 . S
H201 N181 0.862 . S
O202 Co170 1.920 . S
O202 C175 1.289 . S
C203 O195 1.258 . S
C203 O196 1.266 . S
Co204 O207 1.970 . S
Co204 N221 1.989 . S
Co204 O229 1.967 . S
Co204 O236 1.920 . S
Co205 O208 1.966 . S
Co205 N214 2.022 . S
Co205 N222 1.993 . S
Co205 O230 1.941 . S
C206 O207 1.258 . S
C206 O208 1.263 . S
O207 Co204 1.970 . S
O207 C206 1.258 . S
O208 Co205 1.966 . S
O208 C206 1.263 . S
C209 O210 1.235 . S
C209 O236 1.289 . S
O210 C209 1.235 . S
C211 C213 1.400 . S
C211 N214 1.351 . S
C211 C216 1.501 . S
C212 C213 1.387 . S
C212 N215 1.341 . S
C213 C211 1.400 . S
C213 C212 1.387 . S
N214 Co205 2.022 . S
N214 C211 1.351 . S
N214 N215 1.365 . S
N215 C212 1.341 . S
N215 N214 1.365 . S
N215 H235 0.862 . S
C216 C211 1.501 . S
C216 H217 0.961 . S
C216 H218 0.961 . S
C216 H219 0.960 . S
H217 C216 0.961 . S
H218 C216 0.961 . S
H219 C216 0.960 . S
C220 N221 1.342 . S
C220 C224 1.401 . S
C220 C225 1.499 . S
N221 Co204 1.989 . S
N221 C220 1.342 . S
N221 N222 1.388 . S
N222 Co205 1.993 . S
N222 N221 1.388 . S
N222 C223 1.346 . S
C223 N222 1.346 . S
C223 C224 1.396 . S
C223 C233 1.510 . S
C224 C220 1.401 . S
C224 C223 1.396 . S
C225 C220 1.499 . S
C225 H226 0.959 . S
C225 H227 0.960 . S
C225 H228 0.961 . S
H226 C225 0.959 . S
H227 C225 0.960 . S
H228 C225 0.961 . S
O229 Co204 1.967 . S
O229 C237 1.258 . S
O230 Co205 1.941 . S
O230 C237 1.266 . S
H231 C233 0.959 . S
H232 C233 0.961 . S
C233 C223 1.510 . S
C233 H231 0.959 . S
C233 H232 0.961 . S
C233 H234 0.960 . S
H234 C233 0.960 . S
H235 N215 0.862 . S
O236 Co204 1.920 . S
O236 C209 1.289 . S
C237 O229 1.258 . S
C237 O230 1.266 . S
Co238 O241 1.970 . S
Co238 N255 1.989 . S
Co238 O263 1.967 . S
Co238 O270 1.920 . S
Co239 O242 1.966 . S
Co239 N248 2.022 . S
Co239 N256 1.993 . S
Co239 O264 1.941 . S
C240 O241 1.258 . S
C240 O242 1.263 . S
O241 Co238 1.970 . S
O241 C240 1.258 . S
O242 Co239 1.966 . S
O242 C240 1.263 . S
C243 O244 1.235 . S
C243 O270 1.289 . S
O244 C243 1.235 . S
C245 C247 1.400 . S
C245 N248 1.351 . S
C245 C250 1.501 . S
C246 C247 1.387 . S
C246 N249 1.341 . S
C247 C245 1.400 . S
C247 C246 1.387 . S
N248 Co239 2.022 . S
N248 C245 1.351 . S
N248 N249 1.365 . S
N249 C246 1.341 . S
N249 N248 1.365 . S
N249 H269 0.862 . S
C250 C245 1.501 . S
C250 H251 0.961 . S
C250 H252 0.961 . S
C250 H253 0.960 . S
H251 C250 0.961 . S
H252 C250 0.961 . S
H253 C250 0.960 . S
C254 N255 1.342 . S
C254 C258 1.401 . S
C254 C259 1.499 . S
N255 Co238 1.989 . S
N255 C254 1.342 . S
N255 N256 1.388 . S
N256 Co239 1.993 . S
N256 N255 1.388 . S
N256 C257 1.346 . S
C257 N256 1.346 . S
C257 C258 1.396 . S
C257 C267 1.510 . S
C258 C254 1.401 . S
C258 C257 1.396 . S
C259 C254 1.499 . S
C259 H260 0.959 . S
C259 H261 0.960 . S
C259 H262 0.961 . S
H260 C259 0.959 . S
H261 C259 0.960 . S
H262 C259 0.961 . S
O263 Co238 1.967 . S
O263 C271 1.258 . S
O264 Co239 1.941 . S
O264 C271 1.266 . S
H265 C267 0.959 . S
H266 C267 0.961 . S
C267 C257 1.510 . S
C267 H265 0.959 . S
C267 H266 0.961 . S
C267 H268 0.960 . S
H268 C267 0.960 . S
H269 N249 0.862 . S
O270 Co238 1.920 . S
O270 C243 1.289 . S
C271 O263 1.258 . S
C271 O264 1.266 . S
Co272 O275 1.970 . S
Co272 N289 1.989 . S
Co272 O297 1.967 . S
Co272 O304 1.920 . S
Co273 O276 1.966 . S
Co273 N282 2.022 . S
Co273 N290 1.993 . S
Co273 O298 1.941 . S
C274 O275 1.258 . S
C274 O276 1.263 . S
O275 Co272 1.970 . S
O275 C274 1.258 . S
O276 Co273 1.966 . S
O276 C274 1.263 . S
C277 O278 1.235 . S
C277 O304 1.289 . S
O278 C277 1.235 . S
C279 C281 1.400 . S
C279 N282 1.351 . S
C279 C284 1.501 . S
C280 C281 1.387 . S
C280 N283 1.341 . S
C281 C279 1.400 . S
C281 C280 1.387 . S
N282 Co273 2.022 . S
N282 C279 1.351 . S
N282 N283 1.365 . S
N283 C280 1.341 . S
N283 N282 1.365 . S
N283 H303 0.862 . S
C284 C279 1.501 . S
C284 H285 0.961 . S
C284 H286 0.961 . S
C284 H287 0.960 . S
H285 C284 0.961 . S
H286 C284 0.961 . S
H287 C284 0.960 . S
C288 N289 1.342 . S
C288 C292 1.401 . S
C288 C293 1.499 . S
N289 Co272 1.989 . S
N289 C288 1.342 . S
N289 N290 1.388 . S
N290 Co273 1.993 . S
N290 N289 1.388 . S
N290 C291 1.346 . S
C291 N290 1.346 . S
C291 C292 1.396 . S
C291 C301 1.510 . S
C292 C288 1.401 . S
C292 C291 1.396 . S
C293 C288 1.499 . S
C293 H294 0.959 . S
C293 H295 0.960 . S
C293 H296 0.961 . S
H294 C293 0.959 . S
H295 C293 0.960 . S
H296 C293 0.961 . S
O297 Co272 1.967 . S
O297 C305 1.258 . S
O298 Co273 1.941 . S
O298 C305 1.266 . S
H299 C301 0.959 . S
H300 C301 0.961 . S
C301 C291 1.510 . S
C301 H299 0.959 . S
C301 H300 0.961 . S
C301 H302 0.960 . S
H302 C301 0.960 . S
H303 N283 0.862 . S
O304 Co272 1.920 . S
O304 C277 1.289 . S
C305 O297 1.258 . S
C305 O298 1.266 . S
Co306 O309 1.970 . S
Co306 N323 1.989 . S
Co306 O331 1.967 . S
Co306 O338 1.920 . S
Co307 O310 1.966 . S
Co307 N316 2.022 . S
Co307 N324 1.993 . S
Co307 O332 1.941 . S
C308 O309 1.258 . S
C308 O310 1.263 . S
O309 Co306 1.970 . S
O309 C308 1.258 . S
O310 Co307 1.966 . S
O310 C308 1.263 . S
C311 O312 1.235 . S
C311 O338 1.289 . S
O312 C311 1.235 . S
C313 C315 1.400 . S
C313 N316 1.351 . S
C313 C318 1.501 . S
C314 C315 1.387 . S
C314 N317 1.341 . S
C315 C313 1.400 . S
C315 C314 1.387 . S
N316 Co307 2.022 . S
N316 C313 1.351 . S
N316 N317 1.365 . S
N317 C314 1.341 . S
N317 N316 1.365 . S
N317 H337 0.862 . S
C318 C313 1.501 . S
C318 H319 0.961 . S
C318 H320 0.961 . S
C318 H321 0.960 . S
H319 C318 0.961 . S
H320 C318 0.961 . S
H321 C318 0.960 . S
C322 N323 1.342 . S
C322 C326 1.401 . S
C322 C327 1.499 . S
N323 Co306 1.989 . S
N323 C322 1.342 . S
N323 N324 1.388 . S
N324 Co307 1.993 . S
N324 N323 1.388 . S
N324 C325 1.346 . S
C325 N324 1.346 . S
C325 C326 1.396 . S
C325 C335 1.510 . S
C326 C322 1.401 . S
C326 C325 1.396 . S
C327 C322 1.499 . S
C327 H328 0.959 . S
C327 H329 0.960 . S
C327 H330 0.961 . S
H328 C327 0.959 . S
H329 C327 0.960 . S
H330 C327 0.961 . S
O331 Co306 1.967 . S
O331 C339 1.258 . S
O332 Co307 1.941 . S
O332 C339 1.266 . S
H333 C335 0.959 . S
H334 C335 0.961 . S
C335 C325 1.510 . S
C335 H333 0.959 . S
C335 H334 0.961 . S
C335 H336 0.960 . S
H336 C335 0.960 . S
H337 N317 0.862 . S
O338 Co306 1.920 . S
O338 C311 1.289 . S
C339 O331 1.258 . S
C339 O332 1.266 . S
Co340 O343 1.970 . S
Co340 N357 1.989 . S
Co340 O365 1.967 . S
Co340 O372 1.920 . S
Co341 O344 1.966 . S
Co341 N350 2.022 . S
Co341 N358 1.993 . S
Co341 O366 1.941 . S
C342 O343 1.258 . S
C342 O344 1.263 . S
O343 Co340 1.970 . S
O343 C342 1.258 . S
O344 Co341 1.966 . S
O344 C342 1.263 . S
C345 O346 1.235 . S
C345 O372 1.289 . S
O346 C345 1.235 . S
C347 C349 1.400 . S
C347 N350 1.351 . S
C347 C352 1.501 . S
C348 C349 1.387 . S
C348 N351 1.341 . S
C349 C347 1.400 . S
C349 C348 1.387 . S
N350 Co341 2.022 . S
N350 C347 1.351 . S
N350 N351 1.365 . S
N351 C348 1.341 . S
N351 N350 1.365 . S
N351 H371 0.862 . S
C352 C347 1.501 . S
C352 H353 0.961 . S
C352 H354 0.961 . S
C352 H355 0.960 . S
H353 C352 0.961 . S
H354 C352 0.961 . S
H355 C352 0.960 . S
C356 N357 1.342 . S
C356 C360 1.401 . S
C356 C361 1.499 . S
N357 Co340 1.989 . S
N357 C356 1.342 . S
N357 N358 1.388 . S
N358 Co341 1.993 . S
N358 N357 1.388 . S
N358 C359 1.346 . S
C359 N358 1.346 . S
C359 C360 1.396 . S
C359 C369 1.510 . S
C360 C356 1.401 . S
C360 C359 1.396 . S
C361 C356 1.499 . S
C361 H362 0.959 . S
C361 H363 0.960 . S
C361 H364 0.961 . S
H362 C361 0.959 . S
H363 C361 0.960 . S
H364 C361 0.961 . S
O365 Co340 1.967 . S
O365 C373 1.258 . S
O366 Co341 1.941 . S
O366 C373 1.266 . S
H367 C369 0.959 . S
H368 C369 0.961 . S
C369 C359 1.510 . S
C369 H367 0.959 . S
C369 H368 0.961 . S
C369 H370 0.960 . S
H370 C369 0.960 . S
H371 N351 0.862 . S
O372 Co340 1.920 . S
O372 C345 1.289 . S
C373 O365 1.258 . S
C373 O366 1.266 . S
Co374 O377 1.970 . S
Co374 N391 1.989 . S
Co374 O399 1.967 . S
Co374 O406 1.920 . S
Co375 O378 1.966 . S
Co375 N384 2.022 . S
Co375 N392 1.993 . S
Co375 O400 1.941 . S
C376 O377 1.258 . S
C376 O378 1.263 . S
O377 Co374 1.970 . S
O377 C376 1.258 . S
O378 Co375 1.966 . S
O378 C376 1.263 . S
C379 O380 1.235 . S
C379 O406 1.289 . S
O380 C379 1.235 . S
C381 C383 1.400 . S
C381 N384 1.351 . S
C381 C386 1.501 . S
C382 C383 1.387 . S
C382 N385 1.341 . S
C383 C381 1.400 . S
C383 C382 1.387 . S
N384 Co375 2.022 . S
N384 C381 1.351 . S
N384 N385 1.365 . S
N385 C382 1.341 . S
N385 N384 1.365 . S
N385 H405 0.862 . S
C386 C381 1.501 . S
C386 H387 0.961 . S
C386 H388 0.961 . S
C386 H389 0.960 . S
H387 C386 0.961 . S
H388 C386 0.961 . S
H389 C386 0.960 . S
C390 N391 1.342 . S
C390 C394 1.401 . S
C390 C395 1.499 . S
N391 Co374 1.989 . S
N391 C390 1.342 . S
N391 N392 1.388 . S
N392 Co375 1.993 . S
N392 N391 1.388 . S
N392 C393 1.346 . S
C393 N392 1.346 . S
C393 C394 1.396 . S
C393 C403 1.510 . S
C394 C390 1.401 . S
C394 C393 1.396 . S
C395 C390 1.499 . S
C395 H396 0.959 . S
C395 H397 0.960 . S
C395 H398 0.961 . S
H396 C395 0.959 . S
H397 C395 0.960 . S
H398 C395 0.961 . S
O399 Co374 1.967 . S
O399 C407 1.258 . S
O400 Co375 1.941 . S
O400 C407 1.266 . S
H401 C403 0.959 . S
H402 C403 0.961 . S
C403 C393 1.510 . S
C403 H401 0.959 . S
C403 H402 0.961 . S
C403 H404 0.960 . S
H404 C403 0.960 . S
H405 N385 0.862 . S
O406 Co374 1.920 . S
O406 C379 1.289 . S
C407 O399 1.258 . S
C407 O400 1.266 . S
Co408 O411 1.970 . S
Co408 N425 1.989 . S
Co408 O433 1.967 . S
Co408 O440 1.920 . S
Co409 O412 1.966 . S
Co409 N418 2.022 . S
Co409 N426 1.993 . S
Co409 O434 1.941 . S
C410 O411 1.258 . S
C410 O412 1.263 . S
O411 Co408 1.970 . S
O411 C410 1.258 . S
O412 Co409 1.966 . S
O412 C410 1.263 . S
C413 O414 1.235 . S
C413 O440 1.289 . S
O414 C413 1.235 . S
C415 C417 1.400 . S
C415 N418 1.351 . S
C415 C420 1.501 . S
C416 C417 1.387 . S
C416 N419 1.341 . S
C417 C415 1.400 . S
C417 C416 1.387 . S
N418 Co409 2.022 . S
N418 C415 1.351 . S
N418 N419 1.365 . S
N419 C416 1.341 . S
N419 N418 1.365 . S
N419 H439 0.862 . S
C420 C415 1.501 . S
C420 H421 0.961 . S
C420 H422 0.961 . S
C420 H423 0.960 . S
H421 C420 0.961 . S
H422 C420 0.961 . S
H423 C420 0.960 . S
C424 N425 1.342 . S
C424 C428 1.401 . S
C424 C429 1.499 . S
N425 Co408 1.989 . S
N425 C424 1.342 . S
N425 N426 1.388 . S
N426 Co409 1.993 . S
N426 N425 1.388 . S
N426 C427 1.346 . S
C427 N426 1.346 . S
C427 C428 1.396 . S
C427 C437 1.510 . S
C428 C424 1.401 . S
C428 C427 1.396 . S
C429 C424 1.499 . S
C429 H430 0.959 . S
C429 H431 0.960 . S
C429 H432 0.961 . S
H430 C429 0.959 . S
H431 C429 0.960 . S
H432 C429 0.961 . S
O433 Co408 1.967 . S
O433 C441 1.258 . S
O434 Co409 1.941 . S
O434 C441 1.266 . S
H435 C437 0.959 . S
H436 C437 0.961 . S
C437 C427 1.510 . S
C437 H435 0.959 . S
C437 H436 0.961 . S
C437 H438 0.960 . S
H438 C437 0.960 . S
H439 N419 0.862 . S
O440 Co408 1.920 . S
O440 C413 1.289 . S
C441 O433 1.258 . S
C441 O434 1.266 . S
Co442 O445 1.970 . S
Co442 N459 1.989 . S
Co442 O467 1.967 . S
Co442 O474 1.920 . S
Co443 O446 1.966 . S
Co443 N452 2.022 . S
Co443 N460 1.993 . S
Co443 O468 1.941 . S
C444 O445 1.258 . S
C444 O446 1.263 . S
O445 Co442 1.970 . S
O445 C444 1.258 . S
O446 Co443 1.966 . S
O446 C444 1.263 . S
C447 O448 1.235 . S
C447 O474 1.289 . S
O448 C447 1.235 . S
C449 C451 1.400 . S
C449 N452 1.351 . S
C449 C454 1.501 . S
C450 C451 1.387 . S
C450 N453 1.341 . S
C451 C449 1.400 . S
C451 C450 1.387 . S
N452 Co443 2.022 . S
N452 C449 1.351 . S
N452 N453 1.365 . S
N453 C450 1.341 . S
N453 N452 1.365 . S
N453 H473 0.862 . S
C454 C449 1.501 . S
C454 H455 0.961 . S
C454 H456 0.961 . S
C454 H457 0.960 . S
H455 C454 0.961 . S
H456 C454 0.961 . S
H457 C454 0.960 . S
C458 N459 1.342 . S
C458 C462 1.401 . S
C458 C463 1.499 . S
N459 Co442 1.989 . S
N459 C458 1.342 . S
N459 N460 1.388 . S
N460 Co443 1.993 . S
N460 N459 1.388 . S
N460 C461 1.346 . S
C461 N460 1.346 . S
C461 C462 1.396 . S
C461 C471 1.510 . S
C462 C458 1.401 . S
C462 C461 1.396 . S
C463 C458 1.499 . S
C463 H464 0.959 . S
C463 H465 0.960 . S
C463 H466 0.961 . S
H464 C463 0.959 . S
H465 C463 0.960 . S
H466 C463 0.961 . S
O467 Co442 1.967 . S
O467 C475 1.258 . S
O468 Co443 1.941 . S
O468 C475 1.266 . S
H469 C471 0.959 . S
H470 C471 0.961 . S
C471 C461 1.510 . S
C471 H469 0.959 . S
C471 H470 0.961 . S
C471 H472 0.960 . S
H472 C471 0.960 . S
H473 N453 0.862 . S
O474 Co442 1.920 . S
O474 C447 1.289 . S
C475 O467 1.258 . S
C475 O468 1.266 . S
Co476 O479 1.970 . S
Co476 N493 1.989 . S
Co476 O501 1.967 . S
Co476 O508 1.920 . S
Co477 O480 1.966 . S
Co477 N486 2.022 . S
Co477 N494 1.993 . S
Co477 O502 1.941 . S
C478 O479 1.258 . S
C478 O480 1.263 . S
O479 Co476 1.970 . S
O479 C478 1.258 . S
O480 Co477 1.966 . S
O480 C478 1.263 . S
C481 O482 1.235 . S
C481 O508 1.289 . S
O482 C481 1.235 . S
C483 C485 1.400 . S
C483 N486 1.351 . S
C483 C488 1.501 . S
C484 C485 1.387 . S
C484 N487 1.341 . S
C485 C483 1.400 . S
C485 C484 1.387 . S
N486 Co477 2.022 . S
N486 C483 1.351 . S
N486 N487 1.365 . S
N487 C484 1.341 . S
N487 N486 1.365 . S
N487 H507 0.862 . S
C488 C483 1.501 . S
C488 H489 0.961 . S
C488 H490 0.961 . S
C488 H491 0.960 . S
H489 C488 0.961 . S
H490 C488 0.961 . S
H491 C488 0.960 . S
C492 N493 1.342 . S
C492 C496 1.401 . S
C492 C497 1.499 . S
N493 Co476 1.989 . S
N493 C492 1.342 . S
N493 N494 1.388 . S
N494 Co477 1.993 . S
N494 N493 1.388 . S
N494 C495 1.346 . S
C495 N494 1.346 . S
C495 C496 1.396 . S
C495 C505 1.510 . S
C496 C492 1.401 . S
C496 C495 1.396 . S
C497 C492 1.499 . S
C497 H498 0.959 . S
C497 H499 0.960 . S
C497 H500 0.961 . S
H498 C497 0.959 . S
H499 C497 0.960 . S
H500 C497 0.961 . S
O501 Co476 1.967 . S
O501 C509 1.258 . S
O502 Co477 1.941 . S
O502 C509 1.266 . S
H503 C505 0.959 . S
H504 C505 0.961 . S
C505 C495 1.510 . S
C505 H503 0.959 . S
C505 H504 0.961 . S
C505 H506 0.960 . S
H506 C505 0.960 . S
H507 N487 0.862 . S
O508 Co476 1.920 . S
O508 C481 1.289 . S
C509 O501 1.258 . S
C509 O502 1.266 . S
Co510 O513 1.970 . S
Co510 N527 1.989 . S
Co510 O535 1.967 . S
Co510 O542 1.920 . S
Co511 O514 1.966 . S
Co511 N520 2.022 . S
Co511 N528 1.993 . S
Co511 O536 1.941 . S
C512 O513 1.258 . S
C512 O514 1.263 . S
O513 Co510 1.970 . S
O513 C512 1.258 . S
O514 Co511 1.966 . S
O514 C512 1.263 . S
C515 O516 1.235 . S
C515 O542 1.289 . S
O516 C515 1.235 . S
C517 C519 1.400 . S
C517 N520 1.351 . S
C517 C522 1.501 . S
C518 C519 1.387 . S
C518 N521 1.341 . S
C519 C517 1.400 . S
C519 C518 1.387 . S
N520 Co511 2.022 . S
N520 C517 1.351 . S
N520 N521 1.365 . S
N521 C518 1.341 . S
N521 N520 1.365 . S
N521 H541 0.862 . S
C522 C517 1.501 . S
C522 H523 0.961 . S
C522 H524 0.961 . S
C522 H525 0.960 . S
H523 C522 0.961 . S
H524 C522 0.961 . S
H525 C522 0.960 . S
C526 N527 1.342 . S
C526 C530 1.401 . S
C526 C531 1.499 . S
N527 Co510 1.989 . S
N527 C526 1.342 . S
N527 N528 1.388 . S
N528 Co511 1.993 . S
N528 N527 1.388 . S
N528 C529 1.346 . S
C529 N528 1.346 . S
C529 C530 1.396 . S
C529 C539 1.510 . S
C530 C526 1.401 . S
C530 C529 1.396 . S
C531 C526 1.499 . S
C531 H532 0.959 . S
C531 H533 0.960 . S
C531 H534 0.961 . S
H532 C531 0.959 . S
H533 C531 0.960 . S
H534 C531 0.961 . S
O535 Co510 1.967 . S
O535 C543 1.258 . S
O536 Co511 1.941 . S
O536 C543 1.266 . S
H537 C539 0.959 . S
H538 C539 0.961 . S
C539 C529 1.510 . S
C539 H537 0.959 . S
C539 H538 0.961 . S
C539 H540 0.960 . S
H540 C539 0.960 . S
H541 N521 0.862 . S
O542 Co510 1.920 . S
O542 C515 1.289 . S
C543 O535 1.258 . S
C543 O536 1.266 . S
Co544 O547 1.970 . S
Co544 N561 1.989 . S
Co544 O569 1.967 . S
Co544 O576 1.920 . S
Co545 O548 1.966 . S
Co545 N554 2.022 . S
Co545 N562 1.993 . S
Co545 O570 1.941 . S
C546 O547 1.258 . S
C546 O548 1.263 . S
O547 Co544 1.970 . S
O547 C546 1.258 . S
O548 Co545 1.966 . S
O548 C546 1.263 . S
C549 O550 1.235 . S
C549 O576 1.289 . S
O550 C549 1.235 . S
C551 C553 1.400 . S
C551 N554 1.351 . S
C551 C556 1.501 . S
C552 C553 1.387 . S
C552 N555 1.341 . S
C553 C551 1.400 . S
C553 C552 1.387 . S
N554 Co545 2.022 . S
N554 C551 1.351 . S
N554 N555 1.365 . S
N555 C552 1.341 . S
N555 N554 1.365 . S
N555 H575 0.862 . S
C556 C551 1.501 . S
C556 H557 0.961 . S
C556 H558 0.961 . S
C556 H559 0.960 . S
H557 C556 0.961 . S
H558 C556 0.961 . S
H559 C556 0.960 . S
C560 N561 1.342 . S
C560 C564 1.401 . S
C560 C565 1.499 . S
N561 Co544 1.989 . S
N561 C560 1.342 . S
N561 N562 1.388 . S
N562 Co545 1.993 . S
N562 N561 1.388 . S
N562 C563 1.346 . S
C563 N562 1.346 . S
C563 C564 1.396 . S
C563 C573 1.510 . S
C564 C560 1.401 . S
C564 C563 1.396 . S
C565 C560 1.499 . S
C565 H566 0.959 . S
C565 H567 0.960 . S
C565 H568 0.961 . S
H566 C565 0.959 . S
H567 C565 0.960 . S
H568 C565 0.961 . S
O569 Co544 1.967 . S
O569 C577 1.258 . S
O570 Co545 1.941 . S
O570 C577 1.266 . S
H571 C573 0.959 . S
H572 C573 0.961 . S
C573 C563 1.510 . S
C573 H571 0.959 . S
C573 H572 0.961 . S
C573 H574 0.960 . S
H574 C573 0.960 . S
H575 N555 0.862 . S
O576 Co544 1.920 . S
O576 C549 1.289 . S
C577 O569 1.258 . S
C577 O570 1.266 . S
Co578 O581 1.970 . S
Co578 N595 1.989 . S
Co578 O603 1.967 . S
Co578 O610 1.920 . S
Co579 O582 1.966 . S
Co579 N588 2.022 . S
Co579 N596 1.993 . S
Co579 O604 1.941 . S
C580 O581 1.258 . S
C580 O582 1.263 . S
O581 Co578 1.970 . S
O581 C580 1.258 . S
O582 Co579 1.966 . S
O582 C580 1.263 . S
C583 O584 1.235 . S
C583 O610 1.289 . S
O584 C583 1.235 . S
C585 C587 1.400 . S
C585 N588 1.351 . S
C585 C590 1.501 . S
C586 C587 1.387 . S
C586 N589 1.341 . S
C587 C585 1.400 . S
C587 C586 1.387 . S
N588 Co579 2.022 . S
N588 C585 1.351 . S
N588 N589 1.365 . S
N589 C586 1.341 . S
N589 N588 1.365 . S
N589 H609 0.862 . S
C590 C585 1.501 . S
C590 H591 0.961 . S
C590 H592 0.961 . S
C590 H593 0.960 . S
H591 C590 0.961 . S
H592 C590 0.961 . S
H593 C590 0.960 . S
C594 N595 1.342 . S
C594 C598 1.401 . S
C594 C599 1.499 . S
N595 Co578 1.989 . S
N595 C594 1.342 . S
N595 N596 1.388 . S
N596 Co579 1.993 . S
N596 N595 1.388 . S
N596 C597 1.346 . S
C597 N596 1.346 . S
C597 C598 1.396 . S
C597 C607 1.510 . S
C598 C594 1.401 . S
C598 C597 1.396 . S
C599 C594 1.499 . S
C599 H600 0.959 . S
C599 H601 0.960 . S
C599 H602 0.961 . S
H600 C599 0.959 . S
H601 C599 0.960 . S
H602 C599 0.961 . S
O603 Co578 1.967 . S
O603 C611 1.258 . S
O604 Co579 1.941 . S
O604 C611 1.266 . S
H605 C607 0.959 . S
H606 C607 0.961 . S
C607 C597 1.510 . S
C607 H605 0.959 . S
C607 H606 0.961 . S
C607 H608 0.960 . S
H608 C607 0.960 . S
H609 N589 0.862 . S
O610 Co578 1.920 . S
O610 C583 1.289 . S
C611 O603 1.258 . S
C611 O604 1.266 . S
C612 C613 1.391 . S
C612 C614 1.394 . S
C612 H628 0.931 . S
C613 C612 1.391 . S
C613 C617 1.376 . S
C614 C612 1.394 . S
C614 C615 1.369 . S
C614 C618 1.531 . S
C615 C614 1.369 . S
C615 C616 1.410 . S
C615 C623 1.503 . S
C616 C615 1.410 . S
C616 C617 1.392 . S
C616 C619 1.511 1_655 S
C617 C613 1.376 . S
C617 C616 1.392 . S
C617 H629 0.929 . S
C618 C614 1.531 . S
C618 H630 0.960 . S
C618 H631 0.962 . S
C618 H632 0.960 . S
C619 C616 1.511 1_455 S
C619 H633 0.961 . S
C619 H634 0.961 . S
C619 H635 0.961 . S
C620 C621 1.370 1_655 S
C620 C622 1.363 . S
C620 H636 0.931 . S
C621 C620 1.370 1_455 S
C621 C625 1.408 . S
C622 C620 1.363 . S
C622 C623 1.370 . S
C622 C626 1.524 . S
C623 C615 1.503 . S
C623 C622 1.370 . S
C623 C624 1.403 . S
C624 C623 1.403 . S
C624 C625 1.404 1_655 S
C624 C627 1.539 . S
C625 C621 1.408 . S
C625 C624 1.404 1_455 S
C625 H637 0.930 . S
C626 C622 1.524 . S
C626 H638 0.956 . S
C626 H639 0.961 . S
C626 H640 0.961 . S
C627 C624 1.539 . S
C627 H641 0.958 . S
C627 H642 0.961 1_655 S
C627 H643 0.960 . S
H628 C612 0.931 . S
H629 C617 0.929 . S
H630 C618 0.960 . S
H631 C618 0.962 . S
H632 C618 0.960 . S
H633 C619 0.961 . S
H634 C619 0.961 . S
H635 C619 0.961 . S
H636 C620 0.931 . S
H637 C625 0.930 . S
H638 C626 0.956 . S
H639 C626 0.961 . S
H640 C626 0.961 . S
H641 C627 0.958 . S
H642 C627 0.961 1_455 S
H643 C627 0.960 . S
C644 C645 1.391 . S
C644 C646 1.394 . S
C644 H660 0.931 . S
C645 C644 1.391 . S
C645 C649 1.376 . S
C646 C644 1.394 . S
C646 C647 1.369 . S
C646 C650 1.531 . S
C647 C646 1.369 . S
C647 C648 1.410 . S
C647 C655 1.503 . S
C648 C647 1.410 . S
C648 C649 1.392 . S
C648 C651 1.511 . S
C649 C645 1.376 . S
C649 C648 1.392 . S
C649 H661 0.929 . S
C650 C646 1.531 . S
C650 H662 0.960 . S
C650 H663 0.962 . S
C650 H664 0.960 . S
C651 C648 1.511 . S
C651 H665 0.961 . S
C651 H666 0.961 . S
C651 H667 0.961 . S
C652 C653 1.370 . S
C652 C654 1.363 . S
C652 H668 0.931 . S
C653 C652 1.370 . S
C653 C657 1.408 . S
C654 C652 1.363 . S
C654 C655 1.370 . S
C654 C658 1.524 . S
C655 C647 1.503 . S
C655 C654 1.370 . S
C655 C656 1.403 . S
C656 C655 1.403 . S
C656 C657 1.404 . S
C656 C659 1.539 . S
C657 C653 1.408 . S
C657 C656 1.404 . S
C657 H669 0.930 . S
C658 C654 1.524 . S
C658 H670 0.956 . S
C658 H671 0.961 . S
C658 H672 0.961 . S
C659 C656 1.539 . S
C659 H673 0.958 . S
C659 H674 0.961 . S
C659 H675 0.960 . S
H660 C644 0.931 . S
H661 C649 0.929 . S
H662 C650 0.960 . S
H663 C650 0.962 . S
H664 C650 0.960 . S
H665 C651 0.961 . S
H666 C651 0.961 . S
H667 C651 0.961 . S
H668 C652 0.931 . S
H669 C657 0.930 . S
H670 C658 0.956 . S
H671 C658 0.961 . S
H672 C658 0.961 . S
H673 C659 0.958 . S
H674 C659 0.961 . S
H675 C659 0.960 . S
C676 C677 1.391 . S
C676 C678 1.394 . S
C676 H692 0.931 . S
C677 C676 1.391 . S
C677 C681 1.376 . S
C678 C676 1.394 . S
C678 C679 1.369 . S
C678 C682 1.531 . S
C679 C678 1.369 . S
C679 C680 1.410 . S
C679 C687 1.503 . S
C680 C679 1.410 . S
C680 C681 1.392 . S
C680 C683 1.511 1_545 S
C681 C677 1.376 . S
C681 C680 1.392 . S
C681 H693 0.929 . S
C682 C678 1.531 . S
C682 H694 0.960 . S
C682 H695 0.962 . S
C682 H696 0.960 . S
C683 C680 1.511 1_565 S
C683 H697 0.961 . S
C683 H698 0.961 . S
C683 H699 0.961 . S
C684 C685 1.363 1_545 S
C684 C686 1.363 . S
C684 H700 0.940 . S
C685 C684 1.363 1_565 S
C685 C689 1.408 . S
C686 C684 1.363 . S
C686 C687 1.370 . S
C686 C690 1.524 . S
C687 C679 1.503 . S
C687 C686 1.370 . S
C687 C688 1.400 1_545 S
C688 C687 1.400 1_565 S
C688 C689 1.404 . S
C688 C691 1.542 . S
C689 C685 1.408 . S
C689 C688 1.404 . S
C689 H701 0.930 . S
C690 C686 1.524 . S
C690 H702 0.956 . S
C690 H703 0.961 . S
C690 H704 0.961 . S
C691 C688 1.542 . S
C691 H705 0.958 1_565 S
C691 H706 0.961 . S
C691 H707 0.942 . S
H692 C676 0.931 . S
H693 C681 0.929 . S
H694 C682 0.960 . S
H695 C682 0.962 . S
H696 C682 0.960 . S
H697 C683 0.961 . S
H698 C683 0.961 . S
H699 C683 0.961 . S
H700 C684 0.940 . S
H701 C689 0.930 . S
H702 C690 0.956 . S
H703 C690 0.961 . S
H704 C690 0.961 . S
H705 C691 0.958 1_545 S
H706 C691 0.961 . S
H707 C691 0.942 . S
C708 C709 1.391 1_565 S
C708 C710 1.394 . S
C708 H724 0.931 . S
C709 C708 1.391 1_545 S
C709 C713 1.376 . S
C710 C708 1.394 . S
C710 C711 1.369 . S
C710 C714 1.531 . S
C711 C710 1.369 . S
C711 C712 1.410 1_565 S
C711 C719 1.503 . S
C712 C711 1.410 1_545 S
C712 C713 1.392 . S
C712 C715 1.511 . S
C713 C709 1.376 . S
C713 C712 1.392 . S
C713 H725 0.929 . S
C714 C710 1.531 . S
C714 H726 0.960 . S
C714 H727 0.962 . S
C714 H728 0.960 . S
C715 C712 1.511 . S
C715 H729 0.961 . S
C715 H730 0.961 . S
C715 H731 0.961 . S
C716 C717 1.370 . S
C716 C718 1.363 . S
C716 H732 0.931 . S
C717 C716 1.370 . S
C717 C721 1.408 . S
C718 C716 1.363 . S
C718 C719 1.370 . S
C718 C722 1.524 . S
C719 C711 1.503 . S
C719 C718 1.370 . S
C719 C720 1.403 . S
C720 C719 1.403 . S
C720 C721 1.404 . S
C720 C723 1.539 . S
C721 C717 1.408 . S
C721 C720 1.404 . S
C721 H733 0.930 . S
C722 C718 1.524 . S
C722 H734 0.956 . S
C722 H735 0.961 . S
C722 H736 0.961 . S
C723 C720 1.539 . S
C723 H737 0.958 . S
C723 H738 0.961 . S
C723 H739 0.960 . S
H724 C708 0.931 . S
H725 C713 0.929 . S
H726 C714 0.960 . S
H727 C714 0.962 . S
H728 C714 0.960 . S
H729 C715 0.961 . S
H730 C715 0.961 . S
H731 C715 0.961 . S
H732 C716 0.931 . S
H733 C721 0.930 . S
H734 C722 0.956 . S
H735 C722 0.961 . S
H736 C722 0.961 . S
H737 C723 0.958 . S
H738 C723 0.961 . S
H739 C723 0.960 . S
C740 C741 1.391 . S
C740 C742 1.394 . S
C740 H756 0.931 . S
C741 C740 1.391 . S
C741 C745 1.376 . S
C742 C740 1.394 . S
C742 C743 1.369 . S
C742 C746 1.531 . S
C743 C742 1.369 . S
C743 C744 1.410 . S
C743 C751 1.503 . S
C744 C743 1.410 . S
C744 C745 1.392 . S
C744 C747 1.511 . S
C745 C741 1.376 . S
C745 C744 1.392 . S
C745 H757 0.929 . S
C746 C742 1.531 . S
C746 H758 0.960 . S
C746 H759 0.962 1_455 S
C746 H760 0.960 . S
C747 C744 1.511 . S
C747 H761 0.961 . S
C747 H762 0.961 . S
C747 H763 0.961 . S
C748 C749 1.370 . S
C748 C750 1.363 . S
C748 H764 0.931 . S
C749 C748 1.370 . S
C749 C753 1.408 1_655 S
C750 C748 1.363 . S
C750 C751 1.370 1_655 S
C750 C754 1.524 . S
C751 C743 1.503 . S
C751 C750 1.370 1_455 S
C751 C752 1.403 . S
C752 C751 1.403 . S
C752 C753 1.404 . S
C752 C755 1.539 . S
C753 C749 1.408 1_455 S
C753 C752 1.404 . S
C753 H765 0.930 . S
C754 C750 1.524 . S
C754 H766 0.956 . S
C754 H767 0.961 . S
C754 H768 0.961 . S
C755 C752 1.539 . S
C755 H769 0.958 . S
C755 H770 0.961 . S
C755 H771 0.960 . S
H756 C740 0.931 . S
H757 C745 0.929 . S
H758 C746 0.960 . S
H759 C746 0.962 1_655 S
H760 C746 0.960 . S
H761 C747 0.961 . S
H762 C747 0.961 . S
H763 C747 0.961 . S
H764 C748 0.931 . S
H765 C753 0.930 . S
H766 C754 0.956 . S
H767 C754 0.961 . S
H768 C754 0.961 . S
H769 C755 0.958 . S
H770 C755 0.961 . S
H771 C755 0.960 . S
C772 C773 1.391 . S
C772 C774 1.394 . S
C772 H788 0.931 . S
C773 C772 1.391 . S
C773 C777 1.376 . S
C774 C772 1.394 . S
C774 C775 1.369 . S
C774 C778 1.531 . S
C775 C774 1.369 . S
C775 C776 1.410 . S
C775 C783 1.503 . S
C776 C775 1.410 . S
C776 C777 1.392 . S
C776 C779 1.511 . S
C777 C773 1.376 . S
C777 C776 1.392 . S
C777 H789 0.929 . S
C778 C774 1.531 . S
C778 H790 0.960 . S
C778 H791 0.962 . S
C778 H792 0.960 . S
C779 C776 1.511 . S
C779 H793 0.961 . S
C779 H794 0.961 . S
C779 H795 0.961 . S
C780 C781 1.370 . S
C780 C782 1.363 . S
C780 H796 0.931 . S
C781 C780 1.370 . S
C781 C785 1.408 . S
C782 C780 1.363 . S
C782 C783 1.370 . S
C782 C786 1.524 . S
C783 C775 1.503 . S
C783 C782 1.370 . S
C783 C784 1.403 . S
C784 C783 1.403 . S
C784 C785 1.404 . S
C784 C787 1.539 . S
C785 C781 1.408 . S
C785 C784 1.404 . S
C785 H797 0.930 . S
C786 C782 1.524 . S
C786 H798 0.956 . S
C786 H799 0.961 . S
C786 H800 0.961 . S
C787 C784 1.539 . S
C787 H801 0.958 . S
C787 H802 0.961 . S
C787 H803 0.960 . S
H788 C772 0.931 . S
H789 C777 0.929 . S
H790 C778 0.960 . S
H791 C778 0.962 . S
H792 C778 0.960 . S
H793 C779 0.961 . S
H794 C779 0.961 . S
H795 C779 0.961 . S
H796 C780 0.931 . S
H797 C785 0.930 . S
H798 C786 0.956 . S
H799 C786 0.961 . S
H800 C786 0.961 . S
H801 C787 0.958 . S
H802 C787 0.961 . S
H803 C787 0.960 . S
C804 C805 1.391 . S
C804 C806 1.394 . S
C804 H820 0.931 . S
C805 C804 1.391 . S
C805 C809 1.376 . S
C806 C804 1.394 . S
C806 C807 1.369 . S
C806 C810 1.531 . S
C807 C806 1.369 . S
C807 C808 1.410 . S
C807 C815 1.503 . S
C808 C807 1.410 . S
C808 C809 1.392 . S
C808 C811 1.511 . S
C809 C805 1.376 . S
C809 C808 1.392 . S
C809 H821 0.929 . S
C810 C806 1.531 . S
C810 H822 0.960 . S
C810 H823 0.962 . S
C810 H824 0.960 . S
C811 C808 1.511 . S
C811 H825 0.961 . S
C811 H826 0.961 . S
C811 H827 0.961 . S
C812 C813 1.370 . S
C812 C814 1.363 . S
C812 H828 0.931 . S
C813 C812 1.370 . S
C813 C817 1.408 . S
C814 C812 1.363 . S
C814 C815 1.370 . S
C814 C818 1.524 . S
C815 C807 1.503 . S
C815 C814 1.370 . S
C815 C816 1.403 . S
C816 C815 1.403 . S
C816 C817 1.404 . S
C816 C819 1.539 . S
C817 C813 1.408 . S
C817 C816 1.404 . S
C817 H829 0.930 . S
C818 C814 1.524 . S
C818 H830 0.956 . S
C818 H831 0.961 . S
C818 H832 0.961 . S
C819 C816 1.539 . S
C819 H833 0.958 . S
C819 H834 0.961 . S
C819 H835 0.960 . S
H820 C804 0.931 . S
H821 C809 0.929 . S
H822 C810 0.960 . S
H823 C810 0.962 . S
H824 C810 0.960 . S
H825 C811 0.961 . S
H826 C811 0.961 . S
H827 C811 0.961 . S
H828 C812 0.931 . S
H829 C817 0.930 . S
H830 C818 0.956 . S
H831 C818 0.961 . S
H832 C818 0.961 . S
H833 C819 0.958 . S
H834 C819 0.961 . S
H835 C819 0.960 . S
C836 C837 1.391 . S
C836 C838 1.394 . S
C836 H852 0.931 . S
C837 C836 1.391 . S
C837 C841 1.376 . S
C838 C836 1.394 . S
C838 C839 1.369 . S
C838 C842 1.531 . S
C839 C838 1.369 . S
C839 C840 1.410 . S
C839 C847 1.503 1_565 S
C840 C839 1.410 . S
C840 C841 1.392 . S
C840 C843 1.511 . S
C841 C837 1.376 . S
C841 C840 1.392 . S
C841 H853 0.929 . S
C842 C838 1.531 . S
C842 H854 0.960 . S
C842 H855 0.962 . S
C842 H856 0.960 . S
C843 C840 1.511 . S
C843 H857 0.961 . S
C843 H858 0.961 1_565 S
C843 H859 0.961 . S
C844 C845 1.370 . S
C844 C846 1.363 . S
C844 H860 0.931 . S
C845 C844 1.370 . S
C845 C849 1.408 . S
C846 C844 1.363 . S
C846 C847 1.370 . S
C846 C850 1.524 . S
C847 C839 1.503 1_545 S
C847 C846 1.370 . S
C847 C848 1.403 . S
C848 C847 1.403 . S
C848 C849 1.404 . S
C848 C851 1.539 . S
C849 C845 1.408 . S
C849 C848 1.404 . S
C849 H861 0.930 . S
C850 C846 1.524 . S
C850 H862 0.959 . S
C850 H863 0.961 1_545 S
C850 H864 0.961 . S
C851 C848 1.539 . S
C851 H865 0.958 . S
C851 H866 0.961 . S
C851 H867 0.960 1_545 S
H852 C836 0.931 . S
H853 C841 0.929 . S
H854 C842 0.960 . S
H855 C842 0.962 . S
H856 C842 0.960 . S
H857 C843 0.961 . S
H858 C843 0.961 1_545 S
H859 C843 0.961 . S
H860 C844 0.931 . S
H861 C849 0.930 . S
H862 C850 0.959 . S
H863 C850 0.961 1_565 S
H864 C850 0.961 . S
H865 C851 0.958 . S
H866 C851 0.961 . S
H867 C851 0.960 1_565 S
C868 C869 1.391 . S
C868 C870 1.394 . S
C868 H884 0.931 . S
C869 C868 1.391 . S
C869 C873 1.376 . S
C870 C868 1.394 . S
C870 C871 1.369 . S
C870 C874 1.531 . S
C871 C870 1.369 . S
C871 C872 1.410 . S
C871 C879 1.503 1_455 S
C872 C871 1.410 . S
C872 C873 1.392 . S
C872 C875 1.511 . S
C873 C869 1.376 . S
C873 C872 1.392 . S
C873 H885 0.929 . S
C874 C870 1.531 . S
C874 H886 0.960 1_455 S
C874 H887 0.962 . S
C874 H888 0.960 . S
C875 C872 1.511 . S
C875 H889 0.961 . S
C875 H890 0.961 1_455 S
C875 H891 0.961 . S
C876 C877 1.370 . S
C876 C878 1.363 . S
C876 H892 0.931 . S
C877 C876 1.370 . S
C877 C881 1.408 . S
C878 C876 1.363 . S
C878 C879 1.370 . S
C878 C882 1.524 . S
C879 C871 1.503 1_655 S
C879 C878 1.370 . S
C879 C880 1.403 . S
C880 C879 1.403 . S
C880 C881 1.404 . S
C880 C883 1.539 . S
C881 C877 1.408 . S
C881 C880 1.404 . S
C881 H893 0.930 . S
C882 C878 1.524 . S
C882 H894 0.956 . S
C882 H895 0.961 . S
C882 H896 0.961 . S
C883 C880 1.539 . S
C883 H897 0.958 . S
C883 H898 0.961 . S
C883 H899 0.946 1_655 S
H884 C868 0.931 . S
H885 C873 0.929 . S
H886 C874 0.960 1_655 S
H887 C874 0.962 . S
H888 C874 0.960 . S
H889 C875 0.961 . S
H890 C875 0.961 1_655 S
H891 C875 0.961 . S
H892 C876 0.931 . S
H893 C881 0.930 . S
H894 C882 0.956 . S
H895 C882 0.961 . S
H896 C882 0.961 . S
H897 C883 0.958 . S
H898 C883 0.961 . S
H899 C883 0.946 1_455 S
C900 C901 1.391 . S
C900 C902 1.394 . S
C900 H916 0.931 . S
C901 C900 1.391 . S
C901 C905 1.376 . S
C902 C900 1.394 . S
C902 C903 1.369 . S
C902 C906 1.531 . S
C903 C902 1.369 . S
C903 C904 1.410 . S
C903 C911 1.503 . S
C904 C903 1.410 . S
C904 C905 1.392 . S
C904 C907 1.511 . S
C905 C901 1.376 . S
C905 C904 1.392 . S
C905 H917 0.929 . S
C906 C902 1.531 . S
C906 H918 0.960 . S
C906 H919 0.962 . S
C906 H920 0.960 . S
C907 C904 1.511 . S
C907 H921 0.961 . S
C907 H922 0.961 . S
C907 H923 0.961 . S
C908 C909 1.370 . S
C908 C910 1.363 . S
C908 H924 0.931 . S
C909 C908 1.370 . S
C909 C913 1.408 . S
C910 C908 1.363 . S
C910 C911 1.370 . S
C910 C914 1.524 . S
C911 C903 1.503 . S
C911 C910 1.370 . S
C911 C912 1.403 . S
C912 C911 1.403 . S
C912 C913 1.404 . S
C912 C915 1.539 . S
C913 C909 1.408 . S
C913 C912 1.404 . S
C913 H925 0.930 . S
C914 C910 1.524 . S
C914 H926 0.956 . S
C914 H927 0.961 . S
C914 H928 0.961 . S
C915 C912 1.539 . S
C915 H929 0.958 . S
C915 H930 0.961 . S
C915 H931 0.960 . S
H916 C900 0.931 . S
H917 C905 0.929 . S
H918 C906 0.960 . S
H919 C906 0.962 . S
H920 C906 0.960 . S
H921 C907 0.961 . S
H922 C907 0.961 . S
H923 C907 0.961 . S
H924 C908 0.931 . S
H925 C913 0.930 . S
H926 C914 0.956 . S
H927 C914 0.961 . S
H928 C914 0.961 . S
H929 C915 0.958 . S
H930 C915 0.961 . S
H931 C915 0.960 . S
C932 C933 1.391 . S
C932 C934 1.394 . S
C932 H948 0.931 . S
C933 C932 1.391 . S
C933 C937 1.376 . S
C934 C932 1.394 . S
C934 C935 1.369 . S
C934 C938 1.531 . S
C935 C934 1.369 . S
C935 C936 1.410 . S
C935 C943 1.503 . S
C936 C935 1.410 . S
C936 C937 1.392 . S
C936 C939 1.511 . S
C937 C933 1.376 . S
C937 C936 1.392 . S
C937 H949 0.929 . S
C938 C934 1.531 . S
C938 H950 0.960 . S
C938 H951 0.962 . S
C938 H952 0.960 . S
C939 C936 1.511 . S
C939 H953 0.961 . S
C939 H954 0.961 . S
C939 H955 0.961 . S
C940 C941 1.370 . S
C940 C942 1.363 . S
C940 H956 0.931 . S
C941 C940 1.370 . S
C941 C945 1.408 . S
C942 C940 1.363 . S
C942 C943 1.370 . S
C942 C946 1.524 . S
C943 C935 1.503 . S
C943 C942 1.370 . S
C943 C944 1.403 . S
C944 C943 1.403 . S
C944 C945 1.404 . S
C944 C947 1.539 . S
C945 C941 1.408 . S
C945 C944 1.404 . S
C945 H957 0.930 . S
C946 C942 1.524 . S
C946 H958 0.956 . S
C946 H959 0.961 . S
C946 H960 0.961 . S
C947 C944 1.539 . S
C947 H961 0.958 . S
C947 H962 0.961 . S
C947 H963 0.960 . S
H948 C932 0.931 . S
H949 C937 0.929 . S
H950 C938 0.960 . S
H951 C938 0.962 . S
H952 C938 0.960 . S
H953 C939 0.961 . S
H954 C939 0.961 . S
H955 C939 0.961 . S
H956 C940 0.931 . S
H957 C945 0.930 . S
H958 C946 0.956 . S
H959 C946 0.961 . S
H960 C946 0.961 . S
H961 C947 0.958 . S
H962 C947 0.961 . S
H963 C947 0.960 . S
C964 C965 1.391 . S
C964 C966 1.394 . S
C964 H980 0.931 . S
C965 C964 1.391 . S
C965 C969 1.376 . S
C966 C964 1.394 . S
C966 C967 1.369 . S
C966 C970 1.531 . S
C967 C966 1.369 . S
C967 C968 1.410 . S
C967 C975 1.503 . S
C968 C967 1.410 . S
C968 C969 1.392 . S
C968 C971 1.511 . S
C969 C965 1.376 . S
C969 C968 1.392 . S
C969 H981 0.929 . S
C970 C966 1.531 . S
C970 H982 0.960 . S
C970 H983 0.962 . S
C970 H984 0.960 . S
C971 C968 1.511 . S
C971 H985 0.961 . S
C971 H986 0.961 . S
C971 H987 0.961 . S
C972 C973 1.370 . S
C972 C974 1.363 . S
C972 H988 0.931 . S
C973 C972 1.370 . S
C973 C977 1.408 . S
C974 C972 1.363 . S
C974 C975 1.370 . S
C974 C978 1.524 . S
C975 C967 1.503 . S
C975 C974 1.370 . S
C975 C976 1.403 . S
C976 C975 1.403 . S
C976 C977 1.404 . S
C976 C979 1.539 . S
C977 C973 1.408 . S
C977 C976 1.404 . S
C977 H989 0.930 . S
C978 C974 1.524 . S
C978 H990 0.956 . S
C978 H991 0.961 . S
C978 H992 0.961 . S
C979 C976 1.539 . S
C979 H993 0.958 . S
C979 H994 0.961 . S
C979 H995 0.960 . S
H980 C964 0.931 . S
H981 C969 0.929 . S
H982 C970 0.960 . S
H983 C970 0.962 . S
H984 C970 0.960 . S
H985 C971 0.961 . S
H986 C971 0.961 . S
H987 C971 0.961 . S
H988 C972 0.931 . S
H989 C977 0.930 . S
H990 C978 0.956 . S
H991 C978 0.961 . S
H992 C978 0.961 . S
H993 C979 0.958 . S
H994 C979 0.961 . S
H995 C979 0.960 . S
C996 C997 1.391 . S
C996 C998 1.394 . S
C996 H1012 0.931 . S
C997 C996 1.391 . S
C997 C1001 1.376 . S
C998 C996 1.394 . S
C998 C999 1.369 . S
C998 C1002 1.531 . S
C999 C998 1.369 . S
C999 C1000 1.410 . S
C999 C1007 1.503 . S
C1000 C999 1.410 . S
C1000 C1001 1.392 . S
C1000 C1003 1.511 . S
C1001 C997 1.376 . S
C1001 C1000 1.392 . S
C1001 H1013 0.929 . S
C1002 C998 1.531 . S
C1002 H1014 0.960 . S
C1002 H1015 0.962 . S
C1002 H1016 0.960 . S
C1003 C1000 1.511 . S
C1003 H1017 0.961 . S
C1003 H1018 0.961 . S
C1003 H1019 0.961 . S
C1004 C1005 1.370 . S
C1004 C1006 1.363 . S
C1004 H1020 0.931 . S
C1005 C1004 1.370 . S
C1005 C1009 1.408 . S
C1006 C1004 1.363 . S
C1006 C1007 1.370 . S
C1006 C1010 1.524 . S
C1007 C999 1.503 . S
C1007 C1006 1.370 . S
C1007 C1008 1.403 . S
C1008 C1007 1.403 . S
C1008 C1009 1.404 . S
C1008 C1011 1.539 . S
C1009 C1005 1.408 . S
C1009 C1008 1.404 . S
C1009 H1021 0.930 . S
C1010 C1006 1.524 . S
C1010 H1022 0.956 . S
C1010 H1023 0.961 . S
C1010 H1024 0.961 . S
C1011 C1008 1.539 . S
C1011 H1025 0.958 . S
C1011 H1026 0.961 . S
C1011 H1027 0.960 . S
H1012 C996 0.931 . S
H1013 C1001 0.929 . S
H1014 C1002 0.960 . S
H1015 C1002 0.962 . S
H1016 C1002 0.960 . S
H1017 C1003 0.961 . S
H1018 C1003 0.961 . S
H1019 C1003 0.961 . S
H1020 C1004 0.931 . S
H1021 C1009 0.930 . S
H1022 C1010 0.956 . S
H1023 C1010 0.961 . S
H1024 C1010 0.961 . S
H1025 C1011 0.958 . S
H1026 C1011 0.961 . S
H1027 C1011 0.960 . S
C1028 C1029 1.391 . S
C1028 C1030 1.394 . S
C1028 H1044 0.931 . S
C1029 C1028 1.391 . S
C1029 C1033 1.376 . S
C1030 C1028 1.394 . S
C1030 C1031 1.369 . S
C1030 C1034 1.531 . S
C1031 C1030 1.369 . S
C1031 C1032 1.410 . S
C1031 C1039 1.503 . S
C1032 C1031 1.410 . S
C1032 C1033 1.392 . S
C1032 C1035 1.511 . S
C1033 C1029 1.376 . S
C1033 C1032 1.392 . S
C1033 H1045 0.929 . S
C1034 C1030 1.531 . S
C1034 H1046 0.960 . S
C1034 H1047 0.962 . S
C1034 H1048 0.960 . S
C1035 C1032 1.511 . S
C1035 H1049 0.961 . S
C1035 H1050 0.961 . S
C1035 H1051 0.961 . S
C1036 C1037 1.370 . S
C1036 C1038 1.363 . S
C1036 H1052 0.931 . S
C1037 C1036 1.370 . S
C1037 C1041 1.408 . S
C1038 C1036 1.363 . S
C1038 C1039 1.370 . S
C1038 C1042 1.524 . S
C1039 C1031 1.503 . S
C1039 C1038 1.370 . S
C1039 C1040 1.403 . S
C1040 C1039 1.403 . S
C1040 C1041 1.404 . S
C1040 C1043 1.539 . S
C1041 C1037 1.408 . S
C1041 C1040 1.404 . S
C1041 H1053 0.930 . S
C1042 C1038 1.524 . S
C1042 H1054 0.956 . S
C1042 H1055 0.961 . S
C1042 H1056 0.961 . S
C1043 C1040 1.539 . S
C1043 H1057 0.958 . S
C1043 H1058 0.961 . S
C1043 H1059 0.960 . S
H1044 C1028 0.931 . S
H1045 C1033 0.929 . S
H1046 C1034 0.960 . S
H1047 C1034 0.962 . S
H1048 C1034 0.960 . S
H1049 C1035 0.961 . S
H1050 C1035 0.961 . S
H1051 C1035 0.961 . S
H1052 C1036 0.931 . S
H1053 C1041 0.930 . S
H1054 C1042 0.956 . S
H1055 C1042 0.961 . S
H1056 C1042 0.961 . S
H1057 C1043 0.958 . S
H1058 C1043 0.961 . S
H1059 C1043 0.960 . S
C1060 C1061 1.391 . S
C1060 C1062 1.394 . S
C1060 H1076 0.931 . S
C1061 C1060 1.391 . S
C1061 C1065 1.376 . S
C1062 C1060 1.394 . S
C1062 C1063 1.369 . S
C1062 C1066 1.531 . S
C1063 C1062 1.369 . S
C1063 C1064 1.410 . S
C1063 C1071 1.503 . S
C1064 C1063 1.410 . S
C1064 C1065 1.392 . S
C1064 C1067 1.511 . S
C1065 C1061 1.376 . S
C1065 C1064 1.392 . S
C1065 H1077 0.929 . S
C1066 C1062 1.531 . S
C1066 H1078 0.960 . S
C1066 H1079 0.962 . S
C1066 H1080 0.960 . S
C1067 C1064 1.511 . S
C1067 H1081 0.961 . S
C1067 H1082 0.961 . S
C1067 H1083 0.961 . S
C1068 C1069 1.370 . S
C1068 C1070 1.363 . S
C1068 H1084 0.931 . S
C1069 C1068 1.370 . S
C1069 C1073 1.408 . S
C1070 C1068 1.363 . S
C1070 C1071 1.370 . S
C1070 C1074 1.524 . S
C1071 C1063 1.503 . S
C1071 C1070 1.370 . S
C1071 C1072 1.403 . S
C1072 C1071 1.403 . S
C1072 C1073 1.404 . S
C1072 C1075 1.539 . S
C1073 C1069 1.408 . S
C1073 C1072 1.404 . S
C1073 H1085 0.930 . S
C1074 C1070 1.524 . S
C1074 H1086 0.956 . S
C1074 H1087 0.961 . S
C1074 H1088 0.961 . S
C1075 C1072 1.539 . S
C1075 H1089 0.958 . S
C1075 H1090 0.961 . S
C1075 H1091 0.960 . S
H1076 C1060 0.931 . S
H1077 C1065 0.929 . S
H1078 C1066 0.960 . S
H1079 C1066 0.962 . S
H1080 C1066 0.960 . S
H1081 C1067 0.961 . S
H1082 C1067 0.961 . S
H1083 C1067 0.961 . S
H1084 C1068 0.931 . S
H1085 C1073 0.930 . S
H1086 C1074 0.956 . S
H1087 C1074 0.961 . S
H1088 C1074 0.961 . S
H1089 C1075 0.958 . S
H1090 C1075 0.961 . S
H1091 C1075 0.960 . S
C1092 C1093 1.391 . S
C1092 C1094 1.394 . S
C1092 H1108 0.931 . S
C1093 C1092 1.391 . S
C1093 C1097 1.376 . S
C1094 C1092 1.394 . S
C1094 C1095 1.369 . S
C1094 C1098 1.531 . S
C1095 C1094 1.369 . S
C1095 C1096 1.410 . S
C1095 C1103 1.503 1_654 S
C1096 C1095 1.410 . S
C1096 C1097 1.392 . S
C1096 C1099 1.511 1_554 S
C1097 C1093 1.376 . S
C1097 C1096 1.392 . S
C1097 H1109 0.929 . S
C1098 C1094 1.531 . S
C1098 H1110 0.960 1_655 S
C1098 H1111 0.962 1_655 S
C1098 H1112 0.960 . S
C1099 C1096 1.511 1_556 S
C1099 H1113 0.961 . S
C1099 H1114 0.961 . S
C1099 H1115 0.961 . S
C1100 C1101 1.370 . S
C1100 C1102 1.374 . S
C1100 H1116 0.931 . S
C1101 C1100 1.370 . S
C1101 C1105 1.408 . S
C1102 C1100 1.374 . S
C1102 C1103 1.379 . S
C1102 C1106 1.504 1_556 S
C1103 C1095 1.503 1_456 S
C1103 C1102 1.379 . S
C1103 C1104 1.403 . S
C1104 C1103 1.403 . S
C1104 C1105 1.404 . S
C1104 C1107 1.539 1_455 S
C1105 C1101 1.408 . S
C1105 C1104 1.404 . S
C1105 H1117 0.930 . S
C1106 C1102 1.504 1_554 S
C1106 H1118 0.956 . S
C1106 H1119 0.961 . S
C1106 H1120 0.961 . S
C1107 C1104 1.539 1_655 S
C1107 H1121 0.958 . S
C1107 H1122 0.961 . S
C1107 H1123 0.960 . S
H1108 C1092 0.931 . S
H1109 C1097 0.929 . S
H1110 C1098 0.960 1_455 S
H1111 C1098 0.962 1_455 S
H1112 C1098 0.960 . S
H1113 C1099 0.961 . S
H1114 C1099 0.961 . S
H1115 C1099 0.961 . S
H1116 C1100 0.931 . S
H1117 C1105 0.930 . S
H1118 C1106 0.956 . S
H1119 C1106 0.961 . S
H1120 C1106 0.961 . S
H1121 C1107 0.958 . S
H1122 C1107 0.961 . S
H1123 C1107 0.960 . S
C1124 C1125 1.391 . S
C1124 C1126 1.394 . S
C1124 H1140 0.931 . S
C1125 C1124 1.391 . S
C1125 C1129 1.376 . S
C1126 C1124 1.394 . S
C1126 C1127 1.369 . S
C1126 C1130 1.531 . S
C1127 C1126 1.369 . S
C1127 C1128 1.410 . S
C1127 C1135 1.503 1_556 S
C1128 C1127 1.410 . S
C1128 C1129 1.392 . S
C1128 C1131 1.511 . S
C1129 C1125 1.376 . S
C1129 C1128 1.392 . S
C1129 H1141 0.929 . S
C1130 C1126 1.531 . S
C1130 H1142 0.960 1_556 S
C1130 H1143 0.962 . S
C1130 H1144 0.960 . S
C1131 C1128 1.511 . S
C1131 H1145 0.961 . S
C1131 H1146 0.961 1_556 S
C1131 H1147 0.961 1_556 S
C1132 C1133 1.370 . S
C1132 C1134 1.363 1_554 S
C1132 H1148 0.931 . S
C1133 C1132 1.370 . S
C1133 C1137 1.408 . S
C1134 C1132 1.363 1_556 S
C1134 C1135 1.370 1_556 S
C1134 C1138 1.524 . S
C1135 C1127 1.503 1_554 S
C1135 C1134 1.370 1_554 S
C1135 C1136 1.403 . S
C1136 C1135 1.403 . S
C1136 C1137 1.404 . S
C1136 C1139 1.539 . S
C1137 C1133 1.408 . S
C1137 C1136 1.404 . S
C1137 H1149 0.930 . S
C1138 C1134 1.524 . S
C1138 H1150 0.956 . S
C1138 H1151 0.961 . S
C1138 H1152 0.961 . S
C1139 C1136 1.539 . S
C1139 H1153 0.958 . S
C1139 H1154 0.961 . S
C1139 H1155 0.960 . S
H1140 C1124 0.931 . S
H1141 C1129 0.929 . S
H1142 C1130 0.960 1_554 S
H1143 C1130 0.962 . S
H1144 C1130 0.960 . S
H1145 C1131 0.961 . S
H1146 C1131 0.961 1_554 S
H1147 C1131 0.961 1_554 S
H1148 C1132 0.931 . S
H1149 C1137 0.930 . S
H1150 C1138 0.956 . S
H1151 C1138 0.961 . S
H1152 C1138 0.961 . S
H1153 C1139 0.958 . S
H1154 C1139 0.961 . S
H1155 C1139 0.960 . S
C1156 C1157 1.391 . S
C1156 C1158 1.394 . S
C1156 H1172 0.931 . S
C1157 C1156 1.391 . S
C1157 C1161 1.376 . S
C1158 C1156 1.394 . S
C1158 C1159 1.369 . S
C1158 C1162 1.531 1_545 S
C1159 C1158 1.369 . S
C1159 C1160 1.410 . S
C1159 C1167 1.503 1_544 S
C1160 C1159 1.410 . S
C1160 C1161 1.392 . S
C1160 C1163 1.511 1_554 S
C1161 C1157 1.376 . S
C1161 C1160 1.392 . S
C1161 H1173 0.929 . S
C1162 C1158 1.531 1_565 S
C1162 H1174 0.960 . S
C1162 H1175 0.962 . S
C1162 H1176 0.960 . S
C1163 C1160 1.511 1_556 S
C1163 H1177 0.961 . S
C1163 H1178 0.961 . S
C1163 H1179 0.961 . S
C1164 C1165 1.370 . S
C1164 C1166 1.363 . S
C1164 H1180 0.931 . S
C1165 C1164 1.370 . S
C1165 C1169 1.408 . S
C1166 C1164 1.363 . S
C1166 C1167 1.370 . S
C1166 C1170 1.524 1_565 S
C1167 C1159 1.503 1_566 S
C1167 C1166 1.370 . S
C1167 C1168 1.403 . S
C1168 C1167 1.403 . S
C1168 C1169 1.404 . S
C1168 C1171 1.539 1_556 S
C1169 C1165 1.408 . S
C1169 C1168 1.404 . S
C1169 H1181 0.930 . S
C1170 C1166 1.524 1_545 S
C1170 H1182 0.956 . S
C1170 H1183 0.961 . S
C1170 H1184 0.961 1_545 S
C1171 C1168 1.539 1_554 S
C1171 H1185 0.958 . S
C1171 H1186 0.961 . S
C1171 H1187 0.960 . S
H1172 C1156 0.931 . S
H1173 C1161 0.929 . S
H1174 C1162 0.960 . S
H1175 C1162 0.962 . S
H1176 C1162 0.960 . S
H1177 C1163 0.961 . S
H1178 C1163 0.961 . S
H1179 C1163 0.961 . S
H1180 C1164 0.931 . S
H1181 C1169 0.930 . S
H1182 C1170 0.956 . S
H1183 C1170 0.961 . S
H1184 C1170 0.961 1_565 S
H1185 C1171 0.958 . S
H1186 C1171 0.961 . S
H1187 C1171 0.960 . S
C1188 C1189 1.391 . S
C1188 C1190 1.396 1_455 S
C1188 H1204 0.931 . S
C1189 C1188 1.391 . S
C1189 C1193 1.376 . S
C1190 C1188 1.396 1_655 S
C1190 C1191 1.371 1_655 S
C1190 C1194 1.526 . S
C1191 C1190 1.371 1_455 S
C1191 C1192 1.410 . S
C1191 C1199 1.503 1_454 S
C1192 C1191 1.410 . S
C1192 C1193 1.392 . S
C1192 C1195 1.511 1_554 S
C1193 C1189 1.376 . S
C1193 C1192 1.392 . S
C1193 H1205 0.929 . S
C1194 C1190 1.526 . S
C1194 H1206 0.960 . S
C1194 H1207 0.962 . S
C1194 H1208 0.960 . S
C1195 C1192 1.511 1_556 S
C1195 H1209 0.961 . S
C1195 H1210 0.961 . S
C1195 H1211 0.961 . S
C1196 C1197 1.370 . S
C1196 C1198 1.363 . S
C1196 H1212 0.931 . S
C1197 C1196 1.370 . S
C1197 C1201 1.408 . S
C1198 C1196 1.363 . S
C1198 C1199 1.370 . S
C1198 C1202 1.524 1_556 S
C1199 C1191 1.503 1_656 S
C1199 C1198 1.370 . S
C1199 C1200 1.403 . S
C1200 C1199 1.403 . S
C1200 C1201 1.404 . S
C1200 C1203 1.539 1_655 S
C1201 C1197 1.408 . S
C1201 C1200 1.404 . S
C1201 H1213 0.930 . S
C1202 C1198 1.524 1_554 S
C1202 H1214 0.956 . S
C1202 H1215 0.961 . S
C1202 H1216 0.963 . S
C1203 C1200 1.539 1_455 S
C1203 H1217 0.958 . S
C1203 H1218 0.961 . S
C1203 H1219 0.960 . S
H1204 C1188 0.931 . S
H1205 C1193 0.929 . S
H1206 C1194 0.960 . S
H1207 C1194 0.962 . S
H1208 C1194 0.960 . S
H1209 C1195 0.961 . S
H1210 C1195 0.961 . S
H1211 C1195 0.961 . S
H1212 C1196 0.931 . S
H1213 C1201 0.930 . S
H1214 C1202 0.956 . S
H1215 C1202 0.961 . S
H1216 C1202 0.963 . S
H1217 C1203 0.958 . S
H1218 C1203 0.961 . S
H1219 C1203 0.960 . S
C1220 C1221 1.391 . S
C1220 C1222 1.394 . S
C1220 H1236 0.931 . S
C1221 C1220 1.391 . S
C1221 C1225 1.376 . S
C1222 C1220 1.394 . S
C1222 C1223 1.369 . S
C1222 C1226 1.531 . S
C1223 C1222 1.369 . S
C1223 C1224 1.410 . S
C1223 C1231 1.503 1_556 S
C1224 C1223 1.410 . S
C1224 C1225 1.392 . S
C1224 C1227 1.511 1_556 S
C1225 C1221 1.376 . S
C1225 C1224 1.392 . S
C1225 H1237 0.929 . S
C1226 C1222 1.531 . S
C1226 H1238 0.960 . S
C1226 H1239 0.962 . S
C1226 H1240 0.960 . S
C1227 C1224 1.511 1_554 S
C1227 H1241 0.961 1_554 S
C1227 H1242 0.961 . S
C1227 H1243 0.961 . S
C1228 C1229 1.370 . S
C1228 C1230 1.363 . S
C1228 H1244 0.931 . S
C1229 C1228 1.370 . S
C1229 C1233 1.408 . S
C1230 C1228 1.363 . S
C1230 C1231 1.370 . S
C1230 C1234 1.524 1_554 S
C1231 C1223 1.503 1_554 S
C1231 C1230 1.370 . S
C1231 C1232 1.403 . S
C1232 C1231 1.403 . S
C1232 C1233 1.404 . S
C1232 C1235 1.539 . S
C1233 C1229 1.408 . S
C1233 C1232 1.404 . S
C1233 H1245 0.930 . S
C1234 C1230 1.524 1_556 S
C1234 H1246 0.956 . S
C1234 H1247 0.961 . S
C1234 H1248 0.961 . S
C1235 C1232 1.539 . S
C1235 H1249 0.958 . S
C1235 H1250 0.961 . S
C1235 H1251 0.960 . S
H1236 C1220 0.931 . S
H1237 C1225 0.929 . S
H1238 C1226 0.960 . S
H1239 C1226 0.962 . S
H1240 C1226 0.960 . S
H1241 C1227 0.961 1_556 S
H1242 C1227 0.961 . S
H1243 C1227 0.961 . S
H1244 C1228 0.931 . S
H1245 C1233 0.930 . S
H1246 C1234 0.956 . S
H1247 C1234 0.961 . S
H1248 C1234 0.961 . S
H1249 C1235 0.958 . S
H1250 C1235 0.961 . S
H1251 C1235 0.960 . S
C1252 C1253 1.391 . S
C1252 C1254 1.394 . S
C1252 H1268 0.931 . S
C1253 C1252 1.391 . S
C1253 C1257 1.376 . S
C1254 C1252 1.394 . S
C1254 C1255 1.378 . S
C1254 C1258 1.531 . S
C1255 C1254 1.378 . S
C1255 C1256 1.407 . S
C1255 C1263 1.498 1_546 S
C1256 C1255 1.407 . S
C1256 C1257 1.392 . S
C1256 C1259 1.511 1_545 S
C1257 C1253 1.376 . S
C1257 C1256 1.392 . S
C1257 H1269 0.929 . S
C1258 C1254 1.531 . S
C1258 H1270 0.960 1_545 S
C1258 H1271 0.958 1_556 S
C1258 H1272 0.960 . S
C1259 C1256 1.511 1_565 S
C1259 H1273 0.961 1_565 S
C1259 H1274 0.961 1_556 S
C1259 H1275 0.961 . S
C1260 C1261 1.370 . S
C1260 C1262 1.363 . S
C1260 H1276 0.931 . S
C1261 C1260 1.370 . S
C1261 C1265 1.408 . S
C1262 C1260 1.363 . S
C1262 C1263 1.370 . S
C1262 C1266 1.524 1_565 S
C1263 C1255 1.498 1_564 S
C1263 C1262 1.370 . S
C1263 C1264 1.403 . S
C1264 C1263 1.403 . S
C1264 C1265 1.404 . S
C1264 C1267 1.539 1_554 S
C1265 C1261 1.408 . S
C1265 C1264 1.404 . S
C1265 H1277 0.930 . S
C1266 C1262 1.524 1_545 S
C1266 H1278 0.956 . S
C1266 H1279 0.961 . S
C1266 H1280 0.961 . S
C1267 C1264 1.539 1_556 S
C1267 H1281 0.958 . S
C1267 H1282 0.961 . S
C1267 H1283 0.960 . S
H1268 C1252 0.931 . S
H1269 C1257 0.929 . S
H1270 C1258 0.960 1_565 S
H1271 C1258 0.958 1_554 S
H1272 C1258 0.960 . S
H1273 C1259 0.961 1_545 S
H1274 C1259 0.961 1_554 S
H1275 C1259 0.961 . S
H1276 C1260 0.931 . S
H1277 C1265 0.930 . S
H1278 C1266 0.956 . S
H1279 C1266 0.961 . S
H1280 C1266 0.961 . S
H1281 C1267 0.958 . S
H1282 C1267 0.961 . S
H1283 C1267 0.960 . S
C1284 C1285 1.391 . S
C1284 C1286 1.394 . S
C1284 H1300 0.931 . S
C1285 C1284 1.391 . S
C1285 C1289 1.376 . S
C1286 C1284 1.394 . S
C1286 C1287 1.369 . S
C1286 C1290 1.531 . S
C1287 C1286 1.369 . S
C1287 C1288 1.410 . S
C1287 C1295 1.503 . S
C1288 C1287 1.410 . S
C1288 C1289 1.392 . S
C1288 C1291 1.511 . S
C1289 C1285 1.376 . S
C1289 C1288 1.392 . S
C1289 H1301 0.929 . S
C1290 C1286 1.531 . S
C1290 H1302 0.960 . S
C1290 H1303 0.962 . S
C1290 H1304 0.960 . S
C1291 C1288 1.511 . S
C1291 H1305 0.961 . S
C1291 H1306 0.961 . S
C1291 H1307 0.961 . S
C1292 C1293 1.370 . S
C1292 C1294 1.363 . S
C1292 H1308 0.931 . S
C1293 C1292 1.370 . S
C1293 C1297 1.408 . S
C1294 C1292 1.363 . S
C1294 C1295 1.370 . S
C1294 C1298 1.524 . S
C1295 C1287 1.503 . S
C1295 C1294 1.370 . S
C1295 C1296 1.403 . S
C1296 C1295 1.403 . S
C1296 C1297 1.404 . S
C1296 C1299 1.539 . S
C1297 C1293 1.408 . S
C1297 C1296 1.404 . S
C1297 H1309 0.930 . S
C1298 C1294 1.524 . S
C1298 H1310 0.956 . S
C1298 H1311 0.961 . S
C1298 H1312 0.961 . S
C1299 C1296 1.539 . S
C1299 H1313 0.958 . S
C1299 H1314 0.961 . S
C1299 H1315 0.960 . S
H1300 C1284 0.931 . S
H1301 C1289 0.929 . S
H1302 C1290 0.960 . S
H1303 C1290 0.962 . S
H1304 C1290 0.960 . S
H1305 C1291 0.961 . S
H1306 C1291 0.961 . S
H1307 C1291 0.961 . S
H1308 C1292 0.931 . S
H1309 C1297 0.930 . S
H1310 C1298 0.956 . S
H1311 C1298 0.961 . S
H1312 C1298 0.961 . S
H1313 C1299 0.958 . S
H1314 C1299 0.961 . S
H1315 C1299 0.960 . S
C1316 C1317 1.391 . S
C1316 C1318 1.394 . S
C1316 H1332 0.931 . S
C1317 C1316 1.391 . S
C1317 C1321 1.376 . S
C1318 C1316 1.394 . S
C1318 C1319 1.369 . S
C1318 C1322 1.531 . S
C1319 C1318 1.369 . S
C1319 C1320 1.410 . S
C1319 C1327 1.503 . S
C1320 C1319 1.410 . S
C1320 C1321 1.392 . S
C1320 C1323 1.511 . S
C1321 C1317 1.376 . S
C1321 C1320 1.392 . S
C1321 H1333 0.929 . S
C1322 C1318 1.531 . S
C1322 H1334 0.960 . S
C1322 H1335 0.962 . S
C1322 H1336 0.960 . S
C1323 C1320 1.511 . S
C1323 H1337 0.961 . S
C1323 H1338 0.961 . S
C1323 H1339 0.961 . S
C1324 C1325 1.370 . S
C1324 C1326 1.363 . S
C1324 H1340 0.931 . S
C1325 C1324 1.370 . S
C1325 C1329 1.408 . S
C1326 C1324 1.363 . S
C1326 C1327 1.370 . S
C1326 C1330 1.524 . S
C1327 C1319 1.503 . S
C1327 C1326 1.370 . S
C1327 C1328 1.403 . S
C1328 C1327 1.403 . S
C1328 C1329 1.404 . S
C1328 C1331 1.539 . S
C1329 C1325 1.408 . S
C1329 C1328 1.404 . S
C1329 H1341 0.930 . S
C1330 C1326 1.524 . S
C1330 H1342 0.956 . S
C1330 H1343 0.961 . S
C1330 H1344 0.961 . S
C1331 C1328 1.539 . S
C1331 H1345 0.958 . S
C1331 H1346 0.961 . S
C1331 H1347 0.960 . S
H1332 C1316 0.931 . S
H1333 C1321 0.929 . S
H1334 C1322 0.960 . S
H1335 C1322 0.962 . S
H1336 C1322 0.960 . S
H1337 C1323 0.961 . S
H1338 C1323 0.961 . S
H1339 C1323 0.961 . S
H1340 C1324 0.931 . S
H1341 C1329 0.930 . S
H1342 C1330 0.956 . S
H1343 C1330 0.961 . S
H1344 C1330 0.961 . S
H1345 C1331 0.958 . S
H1346 C1331 0.961 . S
H1347 C1331 0.960 . S
C1348 C1349 1.391 . S
C1348 C1350 1.394 . S
C1348 H1364 0.931 . S
C1349 C1348 1.391 . S
C1349 C1353 1.376 . S
C1350 C1348 1.394 . S
C1350 C1351 1.369 . S
C1350 C1354 1.531 . S
C1351 C1350 1.369 . S
C1351 C1352 1.410 . S
C1351 C1359 1.503 . S
C1352 C1351 1.410 . S
C1352 C1353 1.392 . S
C1352 C1355 1.511 . S
C1353 C1349 1.376 . S
C1353 C1352 1.392 . S
C1353 H1365 0.929 . S
C1354 C1350 1.531 . S
C1354 H1366 0.960 . S
C1354 H1367 0.962 . S
C1354 H1368 0.960 . S
C1355 C1352 1.511 . S
C1355 H1369 0.961 . S
C1355 H1370 0.961 . S
C1355 H1371 0.961 . S
C1356 C1357 1.370 . S
C1356 C1358 1.363 . S
C1356 H1372 0.931 . S
C1357 C1356 1.370 . S
C1357 C1361 1.408 . S
C1358 C1356 1.363 . S
C1358 C1359 1.370 . S
C1358 C1362 1.524 . S
C1359 C1351 1.503 . S
C1359 C1358 1.370 . S
C1359 C1360 1.403 . S
C1360 C1359 1.403 . S
C1360 C1361 1.404 . S
C1360 C1363 1.539 . S
C1361 C1357 1.408 . S
C1361 C1360 1.404 . S
C1361 H1373 0.930 . S
C1362 C1358 1.524 . S
C1362 H1374 0.956 . S
C1362 H1375 0.961 . S
C1362 H1376 0.961 . S
C1363 C1360 1.539 . S
C1363 H1377 0.958 . S
C1363 H1378 0.961 . S
C1363 H1379 0.960 . S
H1364 C1348 0.931 . S
H1365 C1353 0.929 . S
H1366 C1354 0.960 . S
H1367 C1354 0.962 . S
H1368 C1354 0.960 . S
H1369 C1355 0.961 . S
H1370 C1355 0.961 . S
H1371 C1355 0.961 . S
H1372 C1356 0.931 . S
H1373 C1361 0.930 . S
H1374 C1362 0.956 . S
H1375 C1362 0.961 . S
H1376 C1362 0.961 . S
H1377 C1363 0.958 . S
H1378 C1363 0.961 . S
H1379 C1363 0.960 . S
C1380 C1381 1.391 . S
C1380 C1382 1.394 . S
C1380 H1396 0.931 . S
C1381 C1380 1.391 . S
C1381 C1385 1.376 . S
C1382 C1380 1.394 . S
C1382 C1383 1.369 . S
C1382 C1386 1.531 . S
C1383 C1382 1.369 . S
C1383 C1384 1.410 . S
C1383 C1391 1.503 . S
C1384 C1383 1.410 . S
C1384 C1385 1.392 . S
C1384 C1387 1.511 . S
C1385 C1381 1.376 . S
C1385 C1384 1.392 . S
C1385 H1397 0.929 . S
C1386 C1382 1.531 . S
C1386 H1398 0.960 . S
C1386 H1399 0.962 . S
C1386 H1400 0.960 . S
C1387 C1384 1.511 . S
C1387 H1401 0.961 . S
C1387 H1402 0.961 . S
C1387 H1403 0.961 . S
C1388 C1389 1.370 . S
C1388 C1390 1.363 . S
C1388 H1404 0.931 . S
C1389 C1388 1.370 . S
C1389 C1393 1.408 . S
C1390 C1388 1.363 . S
C1390 C1391 1.370 . S
C1390 C1394 1.524 . S
C1391 C1383 1.503 . S
C1391 C1390 1.370 . S
C1391 C1392 1.403 . S
C1392 C1391 1.403 . S
C1392 C1393 1.404 . S
C1392 C1395 1.539 . S
C1393 C1389 1.408 . S
C1393 C1392 1.404 . S
C1393 H1405 0.930 . S
C1394 C1390 1.524 . S
C1394 H1406 0.956 . S
C1394 H1407 0.961 . S
C1394 H1408 0.961 . S
C1395 C1392 1.539 . S
C1395 H1409 0.958 . S
C1395 H1410 0.961 . S
C1395 H1411 0.960 . S
H1396 C1380 0.931 . S
H1397 C1385 0.929 . S
H1398 C1386 0.960 . S
H1399 C1386 0.962 . S
H1400 C1386 0.960 . S
H1401 C1387 0.961 . S
H1402 C1387 0.961 . S
H1403 C1387 0.961 . S
H1404 C1388 0.931 . S
H1405 C1393 0.930 . S
H1406 C1394 0.956 . S
H1407 C1394 0.961 . S
H1408 C1394 0.961 . S
H1409 C1395 0.958 . S
H1410 C1395 0.961 . S
H1411 C1395 0.960 . S
C1412 C1413 1.391 . S
C1412 C1414 1.394 . S
C1412 H1428 0.931 . S
C1413 C1412 1.391 . S
C1413 C1417 1.376 . S
C1414 C1412 1.394 . S
C1414 C1415 1.369 . S
C1414 C1418 1.531 . S
C1415 C1414 1.369 . S
C1415 C1416 1.410 . S
C1415 C1423 1.503 . S
C1416 C1415 1.410 . S
C1416 C1417 1.392 . S
C1416 C1419 1.511 . S
C1417 C1413 1.376 . S
C1417 C1416 1.392 . S
C1417 H1429 0.929 . S
C1418 C1414 1.531 . S
C1418 H1430 0.960 . S
C1418 H1431 0.962 . S
C1418 H1432 0.960 . S
C1419 C1416 1.511 . S
C1419 H1433 0.961 . S
C1419 H1434 0.961 . S
C1419 H1435 0.961 . S
C1420 C1421 1.370 . S
C1420 C1422 1.363 . S
C1420 H1436 0.931 . S
C1421 C1420 1.370 . S
C1421 C1425 1.408 . S
C1422 C1420 1.363 . S
C1422 C1423 1.370 . S
C1422 C1426 1.524 . S
C1423 C1415 1.503 . S
C1423 C1422 1.370 . S
C1423 C1424 1.403 . S
C1424 C1423 1.403 . S
C1424 C1425 1.404 . S
C1424 C1427 1.539 . S
C1425 C1421 1.408 . S
C1425 C1424 1.404 . S
C1425 H1437 0.930 . S
C1426 C1422 1.524 . S
C1426 H1438 0.956 . S
C1426 H1439 0.961 . S
C1426 H1440 0.961 . S
C1427 C1424 1.539 . S
C1427 H1441 0.958 . S
C1427 H1442 0.961 . S
C1427 H1443 0.960 . S
H1428 C1412 0.931 . S
H1429 C1417 0.929 . S
H1430 C1418 0.960 . S
H1431 C1418 0.962 . S
H1432 C1418 0.960 . S
H1433 C1419 0.961 . S
H1434 C1419 0.961 . S
H1435 C1419 0.961 . S
H1436 C1420 0.931 . S
H1437 C1425 0.930 . S
H1438 C1426 0.956 . S
H1439 C1426 0.961 . S
H1440 C1426 0.961 . S
H1441 C1427 0.958 . S
H1442 C1427 0.961 . S
H1443 C1427 0.960 . S
C1444 C1445 1.391 . S
C1444 C1446 1.394 . S
C1444 H1460 0.931 . S
C1445 C1444 1.391 . S
C1445 C1449 1.376 . S
C1446 C1444 1.394 . S
C1446 C1447 1.369 . S
C1446 C1450 1.531 . S
C1447 C1446 1.369 . S
C1447 C1448 1.410 . S
C1447 C1455 1.503 . S
C1448 C1447 1.410 . S
C1448 C1449 1.392 . S
C1448 C1451 1.511 . S
C1449 C1445 1.376 . S
C1449 C1448 1.392 . S
C1449 H1461 0.929 . S
C1450 C1446 1.531 . S
C1450 H1462 0.960 . S
C1450 H1463 0.962 . S
C1450 H1464 0.960 . S
C1451 C1448 1.511 . S
C1451 H1465 0.961 . S
C1451 H1466 0.961 . S
C1451 H1467 0.961 . S
C1452 C1453 1.370 . S
C1452 C1454 1.363 . S
C1452 H1468 0.931 . S
C1453 C1452 1.370 . S
C1453 C1457 1.408 . S
C1454 C1452 1.363 . S
C1454 C1455 1.370 . S
C1454 C1458 1.524 . S
C1455 C1447 1.503 . S
C1455 C1454 1.370 . S
C1455 C1456 1.403 . S
C1456 C1455 1.403 . S
C1456 C1457 1.404 . S
C1456 C1459 1.539 . S
C1457 C1453 1.408 . S
C1457 C1456 1.404 . S
C1457 H1469 0.930 . S
C1458 C1454 1.524 . S
C1458 H1470 0.956 . S
C1458 H1471 0.961 . S
C1458 H1472 0.961 . S
C1459 C1456 1.539 . S
C1459 H1473 0.958 . S
C1459 H1474 0.961 . S
C1459 H1475 0.960 . S
H1460 C1444 0.931 . S
H1461 C1449 0.929 . S
H1462 C1450 0.960 . S
H1463 C1450 0.962 . S
H1464 C1450 0.960 . S
H1465 C1451 0.961 . S
H1466 C1451 0.961 . S
H1467 C1451 0.961 . S
H1468 C1452 0.931 . S
H1469 C1457 0.930 . S
H1470 C1458 0.956 . S
H1471 C1458 0.961 . S
H1472 C1458 0.961 . S
H1473 C1459 0.958 . S
H1474 C1459 0.961 . S
H1475 C1459 0.960 . S
C1476 C1477 1.391 . S
C1476 C1478 1.394 . S
C1476 H1492 0.931 . S
C1477 C1476 1.391 . S
C1477 C1481 1.376 . S
C1478 C1476 1.394 . S
C1478 C1479 1.369 . S
C1478 C1482 1.531 . S
C1479 C1478 1.369 . S
C1479 C1480 1.410 . S
C1479 C1487 1.503 . S
C1480 C1479 1.410 . S
C1480 C1481 1.392 . S
C1480 C1483 1.511 . S
C1481 C1477 1.376 . S
C1481 C1480 1.392 . S
C1481 H1493 0.929 1_545 S
C1482 C1478 1.531 . S
C1482 H1494 0.960 . S
C1482 H1495 0.962 . S
C1482 H1496 0.960 . S
C1483 C1480 1.511 . S
C1483 H1497 0.961 . S
C1483 H1498 0.961 . S
C1483 H1499 0.961 . S
C1484 C1485 1.370 . S
C1484 C1486 1.363 . S
C1484 H1500 0.931 . S
C1485 C1484 1.370 . S
C1485 C1489 1.408 . S
C1486 C1484 1.363 . S
C1486 C1487 1.370 . S
C1486 C1490 1.524 . S
C1487 C1479 1.503 . S
C1487 C1486 1.370 . S
C1487 C1488 1.403 . S
C1488 C1487 1.403 . S
C1488 C1489 1.404 . S
C1488 C1491 1.539 . S
C1489 C1485 1.408 . S
C1489 C1488 1.404 . S
C1489 H1501 0.930 . S
C1490 C1486 1.524 . S
C1490 H1502 0.956 . S
C1490 H1503 0.961 . S
C1490 H1504 0.961 . S
C1491 C1488 1.539 . S
C1491 H1505 0.958 . S
C1491 H1506 0.961 . S
C1491 H1507 0.960 . S
H1492 C1476 0.931 . S
H1493 C1481 0.929 1_565 S
H1494 C1482 0.960 . S
H1495 C1482 0.962 . S
H1496 C1482 0.960 . S
H1497 C1483 0.961 . S
H1498 C1483 0.961 . S
H1499 C1483 0.961 . S
H1500 C1484 0.931 . S
H1501 C1489 0.930 . S
H1502 C1490 0.956 . S
H1503 C1490 0.961 . S
H1504 C1490 0.961 . S
H1505 C1491 0.958 . S
H1506 C1491 0.961 . S
H1507 C1491 0.960 . S
C1508 C1509 1.391 . S
C1508 C1510 1.394 . S
C1508 H1524 0.931 . S
C1509 C1508 1.391 . S
C1509 C1513 1.376 . S
C1510 C1508 1.394 . S
C1510 C1511 1.369 . S
C1510 C1514 1.531 . S
C1511 C1510 1.369 . S
C1511 C1512 1.410 . S
C1511 C1519 1.503 . S
C1512 C1511 1.410 . S
C1512 C1513 1.392 . S
C1512 C1515 1.511 . S
C1513 C1509 1.376 . S
C1513 C1512 1.392 . S
C1513 H1525 0.929 . S
C1514 C1510 1.531 . S
C1514 H1526 0.960 . S
C1514 H1527 0.962 . S
C1514 H1528 0.960 . S
C1515 C1512 1.511 . S
C1515 H1529 0.961 . S
C1515 H1530 0.961 . S
C1515 H1531 0.961 . S
C1516 C1517 1.370 . S
C1516 C1518 1.363 1_565 S
C1516 H1532 0.931 . S
C1517 C1516 1.370 . S
C1517 C1521 1.408 1_565 S
C1518 C1516 1.363 1_545 S
C1518 C1519 1.370 . S
C1518 C1522 1.524 . S
C1519 C1511 1.503 . S
C1519 C1518 1.370 . S
C1519 C1520 1.403 . S
C1520 C1519 1.403 . S
C1520 C1521 1.404 . S
C1520 C1523 1.539 . S
C1521 C1517 1.408 1_545 S
C1521 C1520 1.404 . S
C1521 H1533 0.930 . S
C1522 C1518 1.524 . S
C1522 H1534 0.956 . S
C1522 H1535 0.961 . S
C1522 H1536 0.961 1_545 S
C1523 C1520 1.539 . S
C1523 H1537 0.958 . S
C1523 H1538 0.961 . S
C1523 H1539 0.960 . S
H1524 C1508 0.931 . S
H1525 C1513 0.929 . S
H1526 C1514 0.960 . S
H1527 C1514 0.962 . S
H1528 C1514 0.960 . S
H1529 C1515 0.961 . S
H1530 C1515 0.961 . S
H1531 C1515 0.961 . S
H1532 C1516 0.931 . S
H1533 C1521 0.930 . S
H1534 C1522 0.956 . S
H1535 C1522 0.961 . S
H1536 C1522 0.961 1_565 S
H1537 C1523 0.958 . S
H1538 C1523 0.961 . S
H1539 C1523 0.960 . S
C1540 C1541 1.391 . S
C1540 C1542 1.394 . S
C1540 H1556 0.931 . S
C1541 C1540 1.391 . S
C1541 C1545 1.376 . S
C1542 C1540 1.394 . S
C1542 C1543 1.369 . S
C1542 C1546 1.531 . S
C1543 C1542 1.369 . S
C1543 C1544 1.410 . S
C1543 C1551 1.503 . S
C1544 C1543 1.410 . S
C1544 C1545 1.392 . S
C1544 C1547 1.511 . S
C1545 C1541 1.376 . S
C1545 C1544 1.392 . S
C1545 H1557 0.929 . S
C1546 C1542 1.531 . S
C1546 H1558 0.960 . S
C1546 H1559 0.962 . S
C1546 H1560 0.960 . S
C1547 C1544 1.511 . S
C1547 H1561 0.961 . S
C1547 H1562 0.961 . S
C1547 H1563 0.961 . S
C1548 C1549 1.370 1_655 S
C1548 C1550 1.363 . S
C1548 H1564 0.931 . S
C1549 C1548 1.370 1_455 S
C1549 C1553 1.408 . S
C1550 C1548 1.363 . S
C1550 C1551 1.370 . S
C1550 C1554 1.524 . S
C1551 C1543 1.503 . S
C1551 C1550 1.370 . S
C1551 C1552 1.403 . S
C1552 C1551 1.403 . S
C1552 C1553 1.404 1_655 S
C1552 C1555 1.539 . S
C1553 C1549 1.408 . S
C1553 C1552 1.404 1_455 S
C1553 H1565 0.930 . S
C1554 C1550 1.524 . S
C1554 H1566 0.956 . S
C1554 H1567 0.961 . S
C1554 H1568 0.961 . S
C1555 C1552 1.539 . S
C1555 H1569 0.958 . S
C1555 H1570 0.961 1_655 S
C1555 H1571 0.960 . S
H1556 C1540 0.931 . S
H1557 C1545 0.929 . S
H1558 C1546 0.960 . S
H1559 C1546 0.962 . S
H1560 C1546 0.960 . S
H1561 C1547 0.961 . S
H1562 C1547 0.961 . S
H1563 C1547 0.961 . S
H1564 C1548 0.931 . S
H1565 C1553 0.930 . S
H1566 C1554 0.956 . S
H1567 C1554 0.961 . S
H1568 C1554 0.961 . S
H1569 C1555 0.958 . S
H1570 C1555 0.961 1_455 S
H1571 C1555 0.960 . S
C1572 C1573 1.391 . S
C1572 C1574 1.394 . S
C1572 H1588 0.931 . S
C1573 C1572 1.391 . S
C1573 C1577 1.376 . S
C1574 C1572 1.394 . S
C1574 C1575 1.369 . S
C1574 C1578 1.531 . S
C1575 C1574 1.369 . S
C1575 C1576 1.410 . S
C1575 C1583 1.503 . S
C1576 C1575 1.410 . S
C1576 C1577 1.392 . S
C1576 C1579 1.511 . S
C1577 C1573 1.376 . S
C1577 C1576 1.392 . S
C1577 H1589 0.929 . S
C1578 C1574 1.531 . S
C1578 H1590 0.960 . S
C1578 H1591 0.962 . S
C1578 H1592 0.960 . S
C1579 C1576 1.511 . S
C1579 H1593 0.961 . S
C1579 H1594 0.961 . S
C1579 H1595 0.961 . S
C1580 C1581 1.370 . S
C1580 C1582 1.363 . S
C1580 H1596 0.931 . S
C1581 C1580 1.370 . S
C1581 C1585 1.408 . S
C1582 C1580 1.363 . S
C1582 C1583 1.370 . S
C1582 C1586 1.524 . S
C1583 C1575 1.503 . S
C1583 C1582 1.370 . S
C1583 C1584 1.403 . S
C1584 C1583 1.403 . S
C1584 C1585 1.404 . S
C1584 C1587 1.539 . S
C1585 C1581 1.408 . S
C1585 C1584 1.404 . S
C1585 H1597 0.930 . S
C1586 C1582 1.524 . S
C1586 H1598 0.956 . S
C1586 H1599 0.961 . S
C1586 H1600 0.961 . S
C1587 C1584 1.539 . S
C1587 H1601 0.958 . S
C1587 H1602 0.961 . S
C1587 H1603 0.960 . S
H1588 C1572 0.931 . S
H1589 C1577 0.929 . S
H1590 C1578 0.960 . S
H1591 C1578 0.962 . S
H1592 C1578 0.960 . S
H1593 C1579 0.961 . S
H1594 C1579 0.961 . S
H1595 C1579 0.961 . S
H1596 C1580 0.931 . S
H1597 C1585 0.930 . S
H1598 C1586 0.956 . S
H1599 C1586 0.961 . S
H1600 C1586 0.961 . S
H1601 C1587 0.958 . S
H1602 C1587 0.961 . S
H1603 C1587 0.960 . S
C1604 C1605 1.391 . S
C1604 C1606 1.394 1_545 S
C1604 H1620 0.931 . S
C1605 C1604 1.391 . S
C1605 C1609 1.376 1_545 S
C1606 C1604 1.394 1_565 S
C1606 C1607 1.369 . S
C1606 C1610 1.531 . S
C1607 C1606 1.369 . S
C1607 C1608 1.410 . S
C1607 C1615 1.503 . S
C1608 C1607 1.410 . S
C1608 C1609 1.392 . S
C1608 C1611 1.511 . S
C1609 C1605 1.376 1_565 S
C1609 C1608 1.392 . S
C1609 H1621 0.929 . S
C1610 C1606 1.531 . S
C1610 H1622 0.960 . S
C1610 H1623 0.962 . S
C1610 H1624 0.960 . S
C1611 C1608 1.511 . S
C1611 H1625 0.961 . S
C1611 H1626 0.961 . S
C1611 H1627 0.961 . S
C1612 C1613 1.370 . S
C1612 C1614 1.363 . S
C1612 H1628 0.931 . S
C1613 C1612 1.370 . S
C1613 C1617 1.408 . S
C1614 C1612 1.363 . S
C1614 C1615 1.370 . S
C1614 C1618 1.524 . S
C1615 C1607 1.503 . S
C1615 C1614 1.370 . S
C1615 C1616 1.403 . S
C1616 C1615 1.403 . S
C1616 C1617 1.404 . S
C1616 C1619 1.539 . S
C1617 C1613 1.408 . S
C1617 C1616 1.404 . S
C1617 H1629 0.930 . S
C1618 C1614 1.524 . S
C1618 H1630 0.956 . S
C1618 H1631 0.961 . S
C1618 H1632 0.961 . S
C1619 C1616 1.539 . S
C1619 H1633 0.958 . S
C1619 H1634 0.961 . S
C1619 H1635 0.960 . S
H1620 C1604 0.931 . S
H1621 C1609 0.929 . S
H1622 C1610 0.960 . S
H1623 C1610 0.962 . S
H1624 C1610 0.960 . S
H1625 C1611 0.961 . S
H1626 C1611 0.961 . S
H1627 C1611 0.961 . S
H1628 C1612 0.931 . S
H1629 C1617 0.930 . S
H1630 C1618 0.956 . S
H1631 C1618 0.961 . S
H1632 C1618 0.961 . S
H1633 C1619 0.958 . S
H1634 C1619 0.961 . S
H1635 C1619 0.960 . S
C1636 C1637 1.391 . S
C1636 C1638 1.394 . S
C1636 H1652 0.931 . S
C1637 C1636 1.391 . S
C1637 C1641 1.376 . S
C1638 C1636 1.394 . S
C1638 C1639 1.369 . S
C1638 C1642 1.531 . S
C1639 C1638 1.369 . S
C1639 C1640 1.410 . S
C1639 C1647 1.503 . S
C1640 C1639 1.410 . S
C1640 C1641 1.392 . S
C1640 C1643 1.511 . S
C1641 C1637 1.376 . S
C1641 C1640 1.392 . S
C1641 H1653 0.929 . S
C1642 C1638 1.531 . S
C1642 H1654 0.960 . S
C1642 H1655 0.962 . S
C1642 H1656 0.960 . S
C1643 C1640 1.511 . S
C1643 H1657 0.961 . S
C1643 H1658 0.961 . S
C1643 H1659 0.961 . S
C1644 C1645 1.370 . S
C1644 C1646 1.363 1_655 S
C1644 H1660 0.931 . S
C1645 C1644 1.370 . S
C1645 C1649 1.408 1_655 S
C1646 C1644 1.363 1_455 S
C1646 C1647 1.370 . S
C1646 C1650 1.524 . S
C1647 C1639 1.503 . S
C1647 C1646 1.370 . S
C1647 C1648 1.403 . S
C1648 C1647 1.403 . S
C1648 C1649 1.404 . S
C1648 C1651 1.539 . S
C1649 C1645 1.408 1_455 S
C1649 C1648 1.404 . S
C1649 H1661 0.941 1_455 S
C1650 C1646 1.524 . S
C1650 H1662 0.956 . S
C1650 H1663 0.961 . S
C1650 H1664 0.961 . S
C1651 C1648 1.539 . S
C1651 H1665 0.958 . S
C1651 H1666 0.961 . S
C1651 H1667 0.960 . S
H1652 C1636 0.931 . S
H1653 C1641 0.929 . S
H1654 C1642 0.960 . S
H1655 C1642 0.962 . S
H1656 C1642 0.960 . S
H1657 C1643 0.961 . S
H1658 C1643 0.961 . S
H1659 C1643 0.961 . S
H1660 C1644 0.931 . S
H1661 C1649 0.941 1_655 S
H1662 C1650 0.956 . S
H1663 C1650 0.961 . S
H1664 C1650 0.961 . S
H1665 C1651 0.958 . S
H1666 C1651 0.961 . S
H1667 C1651 0.960 . S
C1668 C1669 1.391 . S
C1668 C1670 1.394 . S
C1668 H1684 0.931 . S
C1669 C1668 1.391 . S
C1669 C1673 1.376 . S
C1670 C1668 1.394 . S
C1670 C1671 1.369 . S
C1670 C1674 1.531 . S
C1671 C1670 1.369 . S
C1671 C1672 1.410 . S
C1671 C1679 1.503 . S
C1672 C1671 1.410 . S
C1672 C1673 1.392 . S
C1672 C1675 1.511 . S
C1673 C1669 1.376 . S
C1673 C1672 1.392 . S
C1673 H1685 0.929 . S
C1674 C1670 1.531 . S
C1674 H1686 0.960 . S
C1674 H1687 0.962 . S
C1674 H1688 0.960 . S
C1675 C1672 1.511 . S
C1675 H1689 0.961 . S
C1675 H1690 0.961 . S
C1675 H1691 0.961 . S
C1676 C1677 1.370 . S
C1676 C1678 1.363 . S
C1676 H1692 0.931 . S
C1677 C1676 1.370 . S
C1677 C1681 1.408 . S
C1678 C1676 1.363 . S
C1678 C1679 1.370 . S
C1678 C1682 1.524 . S
C1679 C1671 1.503 . S
C1679 C1678 1.370 . S
C1679 C1680 1.403 . S
C1680 C1679 1.403 . S
C1680 C1681 1.404 . S
C1680 C1683 1.539 . S
C1681 C1677 1.408 . S
C1681 C1680 1.404 . S
C1681 H1693 0.930 . S
C1682 C1678 1.524 . S
C1682 H1694 0.956 . S
C1682 H1695 0.961 . S
C1682 H1696 0.961 . S
C1683 C1680 1.539 . S
C1683 H1697 0.958 . S
C1683 H1698 0.961 . S
C1683 H1699 0.960 . S
H1684 C1668 0.931 . S
H1685 C1673 0.929 . S
H1686 C1674 0.960 . S
H1687 C1674 0.962 . S
H1688 C1674 0.960 . S
H1689 C1675 0.961 . S
H1690 C1675 0.961 . S
H1691 C1675 0.961 . S
H1692 C1676 0.931 . S
H1693 C1681 0.930 . S
H1694 C1682 0.956 . S
H1695 C1682 0.961 . S
H1696 C1682 0.961 . S
H1697 C1683 0.958 . S
H1698 C1683 0.961 . S
H1699 C1683 0.960 . S
C1700 C1701 1.391 . S
C1700 C1702 1.394 . S
C1700 H1716 0.931 . S
C1701 C1700 1.391 . S
C1701 C1705 1.376 . S
C1702 C1700 1.394 . S
C1702 C1703 1.369 . S
C1702 C1706 1.531 . S
C1703 C1702 1.369 . S
C1703 C1704 1.410 . S
C1703 C1711 1.503 . S
C1704 C1703 1.410 . S
C1704 C1705 1.392 . S
C1704 C1707 1.511 . S
C1705 C1701 1.376 . S
C1705 C1704 1.392 . S
C1705 H1717 0.929 . S
C1706 C1702 1.531 . S
C1706 H1718 0.960 . S
C1706 H1719 0.962 . S
C1706 H1720 0.960 . S
C1707 C1704 1.511 . S
C1707 H1721 0.961 . S
C1707 H1722 0.961 . S
C1707 H1723 0.961 . S
C1708 C1709 1.370 . S
C1708 C1710 1.363 . S
C1708 H1724 0.931 . S
C1709 C1708 1.370 . S
C1709 C1713 1.408 . S
C1710 C1708 1.363 . S
C1710 C1711 1.370 . S
C1710 C1714 1.524 . S
C1711 C1703 1.503 . S
C1711 C1710 1.370 . S
C1711 C1712 1.403 . S
C1712 C1711 1.403 . S
C1712 C1713 1.404 . S
C1712 C1715 1.539 . S
C1713 C1709 1.408 . S
C1713 C1712 1.404 . S
C1713 H1725 0.930 . S
C1714 C1710 1.524 . S
C1714 H1726 0.956 . S
C1714 H1727 0.961 . S
C1714 H1728 0.961 . S
C1715 C1712 1.539 . S
C1715 H1729 0.958 . S
C1715 H1730 0.961 . S
C1715 H1731 0.960 . S
H1716 C1700 0.931 . S
H1717 C1705 0.929 . S
H1718 C1706 0.960 . S
H1719 C1706 0.962 . S
H1720 C1706 0.960 . S
H1721 C1707 0.961 . S
H1722 C1707 0.961 . S
H1723 C1707 0.961 . S
H1724 C1708 0.931 . S
H1725 C1713 0.930 . S
H1726 C1714 0.956 . S
H1727 C1714 0.961 . S
H1728 C1714 0.961 . S
H1729 C1715 0.958 . S
H1730 C1715 0.961 . S
H1731 C1715 0.960 . S
C1732 C1733 1.391 . S
C1732 C1734 1.394 . S
C1732 H1748 0.931 . S
C1733 C1732 1.391 . S
C1733 C1737 1.376 . S
C1734 C1732 1.394 . S
C1734 C1735 1.369 . S
C1734 C1738 1.531 . S
C1735 C1734 1.369 . S
C1735 C1736 1.410 . S
C1735 C1743 1.503 . S
C1736 C1735 1.410 . S
C1736 C1737 1.392 . S
C1736 C1739 1.511 . S
C1737 C1733 1.376 . S
C1737 C1736 1.392 . S
C1737 H1749 0.929 . S
C1738 C1734 1.531 . S
C1738 H1750 0.960 . S
C1738 H1751 0.962 . S
C1738 H1752 0.960 . S
C1739 C1736 1.511 . S
C1739 H1753 0.961 . S
C1739 H1754 0.961 . S
C1739 H1755 0.961 . S
C1740 C1741 1.370 . S
C1740 C1742 1.363 . S
C1740 H1756 0.931 . S
C1741 C1740 1.370 . S
C1741 C1745 1.408 . S
C1742 C1740 1.363 . S
C1742 C1743 1.370 . S
C1742 C1746 1.524 . S
C1743 C1735 1.503 . S
C1743 C1742 1.370 . S
C1743 C1744 1.403 . S
C1744 C1743 1.403 . S
C1744 C1745 1.404 . S
C1744 C1747 1.539 . S
C1745 C1741 1.408 . S
C1745 C1744 1.404 . S
C1745 H1757 0.930 . S
C1746 C1742 1.524 . S
C1746 H1758 0.956 . S
C1746 H1759 0.961 . S
C1746 H1760 0.961 . S
C1747 C1744 1.539 . S
C1747 H1761 0.958 . S
C1747 H1762 0.961 . S
C1747 H1763 0.960 . S
H1748 C1732 0.931 . S
H1749 C1737 0.929 . S
H1750 C1738 0.960 . S
H1751 C1738 0.962 . S
H1752 C1738 0.960 . S
H1753 C1739 0.961 . S
H1754 C1739 0.961 . S
H1755 C1739 0.961 . S
H1756 C1740 0.931 . S
H1757 C1745 0.930 . S
H1758 C1746 0.956 . S
H1759 C1746 0.961 . S
H1760 C1746 0.961 . S
H1761 C1747 0.958 . S
H1762 C1747 0.961 . S
H1763 C1747 0.960 . S
C1764 C1765 1.391 . S
C1764 C1766 1.394 . S
C1764 H1780 0.931 . S
C1765 C1764 1.391 . S
C1765 C1769 1.376 . S
C1766 C1764 1.394 . S
C1766 C1767 1.369 . S
C1766 C1770 1.531 . S
C1767 C1766 1.369 . S
C1767 C1768 1.410 . S
C1767 C1775 1.503 . S
C1768 C1767 1.410 . S
C1768 C1769 1.392 . S
C1768 C1771 1.511 . S
C1769 C1765 1.376 . S
C1769 C1768 1.392 . S
C1769 H1781 0.929 . S
C1770 C1766 1.531 . S
C1770 H1782 0.960 . S
C1770 H1783 0.962 . S
C1770 H1784 0.960 . S
C1771 C1768 1.511 . S
C1771 H1785 0.961 . S
C1771 H1786 0.961 . S
C1771 H1787 0.961 . S
C1772 C1773 1.370 . S
C1772 C1774 1.363 . S
C1772 H1788 0.931 . S
C1773 C1772 1.370 . S
C1773 C1777 1.408 . S
C1774 C1772 1.363 . S
C1774 C1775 1.370 . S
C1774 C1778 1.524 . S
C1775 C1767 1.503 . S
C1775 C1774 1.370 . S
C1775 C1776 1.403 . S
C1776 C1775 1.403 . S
C1776 C1777 1.404 . S
C1776 C1779 1.539 . S
C1777 C1773 1.408 . S
C1777 C1776 1.404 . S
C1777 H1789 0.930 . S
C1778 C1774 1.524 . S
C1778 H1790 0.956 . S
C1778 H1791 0.961 . S
C1778 H1792 0.961 . S
C1779 C1776 1.539 . S
C1779 H1793 0.958 . S
C1779 H1794 0.961 . S
C1779 H1795 0.960 . S
H1780 C1764 0.931 . S
H1781 C1769 0.929 . S
H1782 C1770 0.960 . S
H1783 C1770 0.962 . S
H1784 C1770 0.960 . S
H1785 C1771 0.961 . S
H1786 C1771 0.961 . S
H1787 C1771 0.961 . S
H1788 C1772 0.931 . S
H1789 C1777 0.930 . S
H1790 C1778 0.956 . S
H1791 C1778 0.961 . S
H1792 C1778 0.961 . S
H1793 C1779 0.958 . S
H1794 C1779 0.961 . S
H1795 C1779 0.960 . S
C1796 C1797 1.391 . S
C1796 C1798 1.394 . S
C1796 H1812 0.931 . S
C1797 C1796 1.391 . S
C1797 C1801 1.376 . S
C1798 C1796 1.394 . S
C1798 C1799 1.369 . S
C1798 C1802 1.531 . S
C1799 C1798 1.369 . S
C1799 C1800 1.410 . S
C1799 C1807 1.503 . S
C1800 C1799 1.410 . S
C1800 C1801 1.392 . S
C1800 C1803 1.511 . S
C1801 C1797 1.376 . S
C1801 C1800 1.392 . S
C1801 H1813 0.929 . S
C1802 C1798 1.531 . S
C1802 H1814 0.960 . S
C1802 H1815 0.962 . S
C1802 H1816 0.960 . S
C1803 C1800 1.511 . S
C1803 H1817 0.961 . S
C1803 H1818 0.961 . S
C1803 H1819 0.961 . S
C1804 C1805 1.370 . S
C1804 C1806 1.363 . S
C1804 H1820 0.931 . S
C1805 C1804 1.370 . S
C1805 C1809 1.408 . S
C1806 C1804 1.363 . S
C1806 C1807 1.370 . S
C1806 C1810 1.524 . S
C1807 C1799 1.503 . S
C1807 C1806 1.370 . S
C1807 C1808 1.403 . S
C1808 C1807 1.403 . S
C1808 C1809 1.404 . S
C1808 C1811 1.539 . S
C1809 C1805 1.408 . S
C1809 C1808 1.404 . S
C1809 H1821 0.930 . S
C1810 C1806 1.524 . S
C1810 H1822 0.956 . S
C1810 H1823 0.961 . S
C1810 H1824 0.961 . S
C1811 C1808 1.539 . S
C1811 H1825 0.958 . S
C1811 H1826 0.961 . S
C1811 H1827 0.960 . S
H1812 C1796 0.931 . S
H1813 C1801 0.929 . S
H1814 C1802 0.960 . S
H1815 C1802 0.962 . S
H1816 C1802 0.960 . S
H1817 C1803 0.961 . S
H1818 C1803 0.961 . S
H1819 C1803 0.961 . S
H1820 C1804 0.931 . S
H1821 C1809 0.930 . S
H1822 C1810 0.956 . S
H1823 C1810 0.961 . S
H1824 C1810 0.961 . S
H1825 C1811 0.958 . S
H1826 C1811 0.961 . S
H1827 C1811 0.960 . S
C1828 C1829 1.391 . S
C1828 C1830 1.394 . S
C1828 H1844 0.931 . S
C1829 C1828 1.391 . S
C1829 C1833 1.376 . S
C1830 C1828 1.394 . S
C1830 C1831 1.369 . S
C1830 C1834 1.531 . S
C1831 C1830 1.369 . S
C1831 C1832 1.410 . S
C1831 C1839 1.503 . S
C1832 C1831 1.410 . S
C1832 C1833 1.392 . S
C1832 C1835 1.511 . S
C1833 C1829 1.376 . S
C1833 C1832 1.392 . S
C1833 H1845 0.929 . S
C1834 C1830 1.531 . S
C1834 H1846 0.960 . S
C1834 H1847 0.962 . S
C1834 H1848 0.960 . S
C1835 C1832 1.511 . S
C1835 H1849 0.961 . S
C1835 H1850 0.961 . S
C1835 H1851 0.961 . S
C1836 C1837 1.370 . S
C1836 C1838 1.363 . S
C1836 H1852 0.931 . S
C1837 C1836 1.370 . S
C1837 C1841 1.408 . S
C1838 C1836 1.363 . S
C1838 C1839 1.370 . S
C1838 C1842 1.524 . S
C1839 C1831 1.503 . S
C1839 C1838 1.370 . S
C1839 C1840 1.403 . S
C1840 C1839 1.403 . S
C1840 C1841 1.404 . S
C1840 C1843 1.539 . S
C1841 C1837 1.408 . S
C1841 C1840 1.404 . S
C1841 H1853 0.930 . S
C1842 C1838 1.524 . S
C1842 H1854 0.956 . S
C1842 H1855 0.961 . S
C1842 H1856 0.961 . S
C1843 C1840 1.539 . S
C1843 H1857 0.958 . S
C1843 H1858 0.961 . S
C1843 H1859 0.960 . S
H1844 C1828 0.931 . S
H1845 C1833 0.929 . S
H1846 C1834 0.960 . S
H1847 C1834 0.962 . S
H1848 C1834 0.960 . S
H1849 C1835 0.961 . S
H1850 C1835 0.961 . S
H1851 C1835 0.961 . S
H1852 C1836 0.931 . S
H1853 C1841 0.930 . S
H1854 C1842 0.956 . S
H1855 C1842 0.961 . S
H1856 C1842 0.961 . S
H1857 C1843 0.958 . S
H1858 C1843 0.961 . S
H1859 C1843 0.960 . S
C1860 C1861 1.391 . S
C1860 C1862 1.394 . S
C1860 H1876 0.931 . S
C1861 C1860 1.391 . S
C1861 C1865 1.376 . S
C1862 C1860 1.394 . S
C1862 C1863 1.369 . S
C1862 C1866 1.531 . S
C1863 C1862 1.369 . S
C1863 C1864 1.410 . S
C1863 C1871 1.503 . S
C1864 C1863 1.410 . S
C1864 C1865 1.392 . S
C1864 C1867 1.511 . S
C1865 C1861 1.376 . S
C1865 C1864 1.392 . S
C1865 H1877 0.929 . S
C1866 C1862 1.531 . S
C1866 H1878 0.960 . S
C1866 H1879 0.962 . S
C1866 H1880 0.960 . S
C1867 C1864 1.511 . S
C1867 H1881 0.961 . S
C1867 H1882 0.961 . S
C1867 H1883 0.961 . S
C1868 C1869 1.370 . S
C1868 C1870 1.363 . S
C1868 H1884 0.931 . S
C1869 C1868 1.370 . S
C1869 C1873 1.408 . S
C1870 C1868 1.363 . S
C1870 C1871 1.370 . S
C1870 C1874 1.524 . S
C1871 C1863 1.503 . S
C1871 C1870 1.370 . S
C1871 C1872 1.403 . S
C1872 C1871 1.403 . S
C1872 C1873 1.404 . S
C1872 C1875 1.539 . S
C1873 C1869 1.408 . S
C1873 C1872 1.404 . S
C1873 H1885 0.930 . S
C1874 C1870 1.524 . S
C1874 H1886 0.956 . S
C1874 H1887 0.961 . S
C1874 H1888 0.961 . S
C1875 C1872 1.539 . S
C1875 H1889 0.958 . S
C1875 H1890 0.961 . S
C1875 H1891 0.960 . S
H1876 C1860 0.931 . S
H1877 C1865 0.929 . S
H1878 C1866 0.960 . S
H1879 C1866 0.962 . S
H1880 C1866 0.960 . S
H1881 C1867 0.961 . S
H1882 C1867 0.961 . S
H1883 C1867 0.961 . S
H1884 C1868 0.931 . S
H1885 C1873 0.930 . S
H1886 C1874 0.956 . S
H1887 C1874 0.961 . S
H1888 C1874 0.961 . S
H1889 C1875 0.958 . S
H1890 C1875 0.961 . S
H1891 C1875 0.960 . S
C1892 C1893 1.391 . S
C1892 C1894 1.394 . S
C1892 H1908 0.931 . S
C1893 C1892 1.391 . S
C1893 C1897 1.376 . S
C1894 C1892 1.394 . S
C1894 C1895 1.369 . S
C1894 C1898 1.531 . S
C1895 C1894 1.369 . S
C1895 C1896 1.410 . S
C1895 C1903 1.503 . S
C1896 C1895 1.410 . S
C1896 C1897 1.392 . S
C1896 C1899 1.511 . S
C1897 C1893 1.376 . S
C1897 C1896 1.392 . S
C1897 H1909 0.929 . S
C1898 C1894 1.531 . S
C1898 H1910 0.960 . S
C1898 H1911 0.962 . S
C1898 H1912 0.960 . S
C1899 C1896 1.511 . S
C1899 H1913 0.961 . S
C1899 H1914 0.961 . S
C1899 H1915 0.961 . S
C1900 C1901 1.370 . S
C1900 C1902 1.363 . S
C1900 H1916 0.931 . S
C1901 C1900 1.370 . S
C1901 C1905 1.408 . S
C1902 C1900 1.363 . S
C1902 C1903 1.370 . S
C1902 C1906 1.524 . S
C1903 C1895 1.503 . S
C1903 C1902 1.370 . S
C1903 C1904 1.403 . S
C1904 C1903 1.403 . S
C1904 C1905 1.404 . S
C1904 C1907 1.539 . S
C1905 C1901 1.408 . S
C1905 C1904 1.404 . S
C1905 H1917 0.930 . S
C1906 C1902 1.524 . S
C1906 H1918 0.956 . S
C1906 H1919 0.961 . S
C1906 H1920 0.961 . S
C1907 C1904 1.539 . S
C1907 H1921 0.958 . S
C1907 H1922 0.961 . S
C1907 H1923 0.960 . S
H1908 C1892 0.931 . S
H1909 C1897 0.929 . S
H1910 C1898 0.960 . S
H1911 C1898 0.962 . S
H1912 C1898 0.960 . S
H1913 C1899 0.961 . S
H1914 C1899 0.961 . S
H1915 C1899 0.961 . S
H1916 C1900 0.931 . S
H1917 C1905 0.930 . S
H1918 C1906 0.956 . S
H1919 C1906 0.961 . S
H1920 C1906 0.961 . S
H1921 C1907 0.958 . S
H1922 C1907 0.961 . S
H1923 C1907 0.960 . S
C1924 C1925 1.391 . S
C1924 C1926 1.394 . S
C1924 H1940 0.931 . S
C1925 C1924 1.391 . S
C1925 C1929 1.376 . S
C1926 C1924 1.394 . S
C1926 C1927 1.369 . S
C1926 C1930 1.531 . S
C1927 C1926 1.369 . S
C1927 C1928 1.410 . S
C1927 C1935 1.503 . S
C1928 C1927 1.410 . S
C1928 C1929 1.392 . S
C1928 C1931 1.511 . S
C1929 C1925 1.376 . S
C1929 C1928 1.392 . S
C1929 H1941 0.929 . S
C1930 C1926 1.531 . S
C1930 H1942 0.960 . S
C1930 H1943 0.962 . S
C1930 H1944 0.960 . S
C1931 C1928 1.511 . S
C1931 H1945 0.961 . S
C1931 H1946 0.961 . S
C1931 H1947 0.961 . S
C1932 C1933 1.370 . S
C1932 C1934 1.363 . S
C1932 H1948 0.931 . S
C1933 C1932 1.370 . S
C1933 C1937 1.408 . S
C1934 C1932 1.363 . S
C1934 C1935 1.370 . S
C1934 C1938 1.524 . S
C1935 C1927 1.503 . S
C1935 C1934 1.370 . S
C1935 C1936 1.403 . S
C1936 C1935 1.403 . S
C1936 C1937 1.404 . S
C1936 C1939 1.539 . S
C1937 C1933 1.408 . S
C1937 C1936 1.404 . S
C1937 H1949 0.930 . S
C1938 C1934 1.524 . S
C1938 H1950 0.956 . S
C1938 H1951 0.961 . S
C1938 H1952 0.961 . S
C1939 C1936 1.539 . S
C1939 H1953 0.958 . S
C1939 H1954 0.961 . S
C1939 H1955 0.960 . S
H1940 C1924 0.931 . S
H1941 C1929 0.929 . S
H1942 C1930 0.960 . S
H1943 C1930 0.962 . S
H1944 C1930 0.960 . S
H1945 C1931 0.961 . S
H1946 C1931 0.961 . S
H1947 C1931 0.961 . S
H1948 C1932 0.931 . S
H1949 C1937 0.930 . S
H1950 C1938 0.956 . S
H1951 C1938 0.961 . S
H1952 C1938 0.961 . S
H1953 C1939 0.958 . S
H1954 C1939 0.961 . S
H1955 C1939 0.960 . S
C1956 C1957 1.391 . S
C1956 C1958 1.394 . S
C1956 H1972 0.931 . S
C1957 C1956 1.391 . S
C1957 C1961 1.376 . S
C1958 C1956 1.394 . S
C1958 C1959 1.369 . S
C1958 C1962 1.531 . S
C1959 C1958 1.369 . S
C1959 C1960 1.410 . S
C1959 C1967 1.503 . S
C1960 C1959 1.410 . S
C1960 C1961 1.392 . S
C1960 C1963 1.511 . S
C1961 C1957 1.376 . S
C1961 C1960 1.392 . S
C1961 H1973 0.929 . S
C1962 C1958 1.531 . S
C1962 H1974 0.960 . S
C1962 H1975 0.962 . S
C1962 H1976 0.960 . S
C1963 C1960 1.511 . S
C1963 H1977 0.961 . S
C1963 H1978 0.961 . S
C1963 H1979 0.961 . S
C1964 C1965 1.370 . S
C1964 C1966 1.363 . S
C1964 H1980 0.931 . S
C1965 C1964 1.370 . S
C1965 C1969 1.408 . S
C1966 C1964 1.363 . S
C1966 C1967 1.370 . S
C1966 C1970 1.524 . S
C1967 C1959 1.503 . S
C1967 C1966 1.370 . S
C1967 C1968 1.403 . S
C1968 C1967 1.403 . S
C1968 C1969 1.404 . S
C1968 C1971 1.539 . S
C1969 C1965 1.408 . S
C1969 C1968 1.404 . S
C1969 H1981 0.930 . S
C1970 C1966 1.524 . S
C1970 H1982 0.956 . S
C1970 H1983 0.961 . S
C1970 H1984 0.961 . S
C1971 C1968 1.539 . S
C1971 H1985 0.958 . S
C1971 H1986 0.961 . S
C1971 H1987 0.960 . S
H1972 C1956 0.931 . S
H1973 C1961 0.929 . S
H1974 C1962 0.960 . S
H1975 C1962 0.962 . S
H1976 C1962 0.960 . S
H1977 C1963 0.961 . S
H1978 C1963 0.961 . S
H1979 C1963 0.961 . S
H1980 C1964 0.931 . S
H1981 C1969 0.930 . S
H1982 C1970 0.956 . S
H1983 C1970 0.961 . S
H1984 C1970 0.961 . S
H1985 C1971 0.958 . S
H1986 C1971 0.961 . S
H1987 C1971 0.960 . S
C1988 C1989 1.391 . S
C1988 C1990 1.394 . S
C1988 H2004 0.931 . S
C1989 C1988 1.391 . S
C1989 C1993 1.376 . S
C1990 C1988 1.394 . S
C1990 C1991 1.369 . S
C1990 C1994 1.531 . S
C1991 C1990 1.369 . S
C1991 C1992 1.410 . S
C1991 C1999 1.503 . S
C1992 C1991 1.410 . S
C1992 C1993 1.392 . S
C1992 C1995 1.511 . S
C1993 C1989 1.376 . S
C1993 C1992 1.392 . S
C1993 H2005 0.929 . S
C1994 C1990 1.531 . S
C1994 H2006 0.960 . S
C1994 H2007 0.962 . S
C1994 H2008 0.960 . S
C1995 C1992 1.511 . S
C1995 H2009 0.961 . S
C1995 H2010 0.961 . S
C1995 H2011 0.961 . S
C1996 C1997 1.370 . S
C1996 C1998 1.363 . S
C1996 H2012 0.931 . S
C1997 C1996 1.370 . S
C1997 C2001 1.408 . S
C1998 C1996 1.363 . S
C1998 C1999 1.370 . S
C1998 C2002 1.524 . S
C1999 C1991 1.503 . S
C1999 C1998 1.370 . S
C1999 C2000 1.403 . S
C2000 C1999 1.403 . S
C2000 C2001 1.404 . S
C2000 C2003 1.539 . S
C2001 C1997 1.408 . S
C2001 C2000 1.404 . S
C2001 H2013 0.930 . S
C2002 C1998 1.524 . S
C2002 H2014 0.956 . S
C2002 H2015 0.961 . S
C2002 H2016 0.961 . S
C2003 C2000 1.539 . S
C2003 H2017 0.958 . S
C2003 H2018 0.961 . S
C2003 H2019 0.960 . S
H2004 C1988 0.931 . S
H2005 C1993 0.929 . S
H2006 C1994 0.960 . S
H2007 C1994 0.962 . S
H2008 C1994 0.960 . S
H2009 C1995 0.961 . S
H2010 C1995 0.961 . S
H2011 C1995 0.961 . S
H2012 C1996 0.931 . S
H2013 C2001 0.930 . S
H2014 C2002 0.956 . S
H2015 C2002 0.961 . S
H2016 C2002 0.961 . S
H2017 C2003 0.958 . S
H2018 C2003 0.961 . S
H2019 C2003 0.960 . S
C2020 C2021 1.391 . S
C2020 C2022 1.394 . S
C2020 H2036 0.931 . S
C2021 C2020 1.391 . S
C2021 C2025 1.376 . S
C2022 C2020 1.394 . S
C2022 C2023 1.369 . S
C2022 C2026 1.531 . S
C2023 C2022 1.369 . S
C2023 C2024 1.410 . S
C2023 C2031 1.503 . S
C2024 C2023 1.410 . S
C2024 C2025 1.392 . S
C2024 C2027 1.511 . S
C2025 C2021 1.376 . S
C2025 C2024 1.392 . S
C2025 H2037 0.929 . S
C2026 C2022 1.531 . S
C2026 H2038 0.960 . S
C2026 H2039 0.962 . S
C2026 H2040 0.960 . S
C2027 C2024 1.511 . S
C2027 H2041 0.961 . S
C2027 H2042 0.961 . S
C2027 H2043 0.961 . S
C2028 C2029 1.370 . S
C2028 C2030 1.363 . S
C2028 H2044 0.931 . S
C2029 C2028 1.370 . S
C2029 C2033 1.408 . S
C2030 C2028 1.363 . S
C2030 C2031 1.370 . S
C2030 C2034 1.524 . S
C2031 C2023 1.503 . S
C2031 C2030 1.370 . S
C2031 C2032 1.403 . S
C2032 C2031 1.403 . S
C2032 C2033 1.404 . S
C2032 C2035 1.539 . S
C2033 C2029 1.408 . S
C2033 C2032 1.404 . S
C2033 H2045 0.930 . S
C2034 C2030 1.524 . S
C2034 H2046 0.956 . S
C2034 H2047 0.961 . S
C2034 H2048 0.961 . S
C2035 C2032 1.539 . S
C2035 H2049 0.958 . S
C2035 H2050 0.961 . S
C2035 H2051 0.960 . S
H2036 C2020 0.931 . S
H2037 C2025 0.929 . S
H2038 C2026 0.960 . S
H2039 C2026 0.962 . S
H2040 C2026 0.960 . S
H2041 C2027 0.961 . S
H2042 C2027 0.961 . S
H2043 C2027 0.961 . S
H2044 C2028 0.931 . S
H2045 C2033 0.930 . S
H2046 C2034 0.956 . S
H2047 C2034 0.961 . S
H2048 C2034 0.961 . S
H2049 C2035 0.958 . S
H2050 C2035 0.961 . S
H2051 C2035 0.960 . S
C613 C315 0.438 . S
C621 C9 0.515 . S
C645 C349 0.503 . S
C653 C43 0.434 . S
C677 C383 0.451 . S
C685 C77 0.517 . S
C709 C111 0.427 . S
C717 C417 0.512 . S
C741 C451 0.440 . S
C749 C145 0.434 . S
C773 C485 0.538 . S
C781 C179 0.443 . S
C805 C213 0.535 . S
C813 C519 0.442 . S
C837 C553 0.505 . S
C845 C247 0.434 . S
C869 C587 0.539 . S
C877 C281 0.443 . S
C901 C598 1.888 . S
C909 C20 1.892 . S
C933 C530 1.876 . S
C941 C54 1.898 . S
C965 C88 1.890 . S
C973 C564 1.891 . S
C997 C258 1.879 . S
C1005 C122 1.905 . S
C1029 C292 1.899 . S
C1037 C156 1.891 . S
C1061 C190 1.913 . S
C1069 C224 1.898 . S
C1093 C326 1.904 . S
C1101 C462 1.891 . S
C1125 C496 1.910 . S
C1133 C360 1.893 . S
C1157 C394 1.877 . S
C1165 C428 1.897 . S
C1189 C2 1.828 . S
C1197 C138 1.811 . S
C1221 C172 1.834 . S
C1229 C36 1.809 . S
C1253 C104 1.791 . S
C1261 C70 1.828 . S
C1285 C342 1.823 . S
C1293 C206 1.813 . S
C1317 C240 1.829 . S
C1325 C376 1.814 . S
C1349 C308 1.809 . S
C1357 C274 1.823 . S
C1381 C410 1.805 . S
C1389 C546 1.821 . S
C1413 C580 1.791 . S
C1421 C444 1.828 . S
C1445 C478 1.791 . S
C1453 C512 1.828 . S
C1477 C101 1.294 1_545 S
C1485 C5 1.315 . S
C1509 C33 1.315 1_655 S
C1517 C39 1.329 . S
C1541 C67 1.330 . S
C1549 C73 1.303 . S
C1573 C169 1.301 1_455 S
C1581 C107 1.328 . S
C1605 C141 1.325 . S
C1613 C203 1.311 . S
C1637 C135 1.325 1_565 S
C1645 C175 1.328 . S
C1669 C305 1.338 . S
C1677 C209 1.322 . S
C1701 C237 1.323 . S
C1709 C243 1.304 . S
C1733 C277 1.340 . S
C1741 C271 1.314 . S
C1765 C311 1.343 . S
C1773 C373 1.320 . S
C1797 C407 1.336 . S
C1805 C345 1.323 . S
C1829 C339 1.294 . S
C1837 C379 1.315 . S
C1861 C413 1.303 . S
C1869 C509 1.334 . S
C1893 C441 1.311 . S
C1901 C447 1.306 . S
C1925 C475 1.336 . S
C1933 C481 1.304 . S
C1957 C577 1.327 . S
C1965 C515 1.303 . S
C1989 C611 1.347 . S
C1997 C549 1.314 . S
C2021 C543 1.293 . S
C2029 C583 1.316 . S
