# Generated by pormake.
# Topology acs-a, (4)-cn, num edge types: 1
# Building blocks:
#     Node 0, Type 0, BuildingBlock: QUQFOY_clean_sbu_1, # of connection points: 4
#     Node 1, Type 0, BuildingBlock: QUQFOY_clean_sbu_1, # of connection points: 4
#     Node 2, Type 0, BuildingBlock: QUQFOY_clean_sbu_1, # of connection points: 4
#     Node 3, Type 0, BuildingBlock: QUQFOY_clean_sbu_1, # of connection points: 4
#     Node 4, Type 0, BuildingBlock: QUQFOY_clean_sbu_1, # of connection points: 4
#     Node 5, Type 0, BuildingBlock: QUQFOY_clean_sbu_1, # of connection points: 4
#     Node 6, Type 0, BuildingBlock: QUQFOY_clean_sbu_1, # of connection points: 4
#     Node 7, Type 0, BuildingBlock: QUQFOY_clean_sbu_1, # of connection points: 4
#     Node 8, Type 0, BuildingBlock: QUQFOY_clean_sbu_1, # of connection points: 4
#     Node 9, Type 0, BuildingBlock: QUQFOY_clean_sbu_1, # of connection points: 4
#     Node 10, Type 0, BuildingBlock: QUQFOY_clean_sbu_1, # of connection points: 4
#     Node 11, Type 0, BuildingBlock: QUQFOY_clean_sbu_1, # of connection points: 4
#     Edge 12, Type (0, 0), BuildingBlock: MIFKUJ_clean_linker_0, # of connection points: 2
#     Edge 13, Type (0, 0), BuildingBlock: MIFKUJ_clean_linker_0, # of connection points: 2
#     Edge 14, Type (0, 0), BuildingBlock: MIFKUJ_clean_linker_0, # of connection points: 2
#     Edge 15, Type (0, 0), BuildingBlock: MIFKUJ_clean_linker_0, # of connection points: 2
#     Edge 16, Type (0, 0), BuildingBlock: MIFKUJ_clean_linker_0, # of connection points: 2
#     Edge 17, Type (0, 0), BuildingBlock: MIFKUJ_clean_linker_0, # of connection points: 2
#     Edge 18, Type (0, 0), BuildingBlock: MIFKUJ_clean_linker_0, # of connection points: 2
#     Edge 19, Type (0, 0), BuildingBlock: MIFKUJ_clean_linker_0, # of connection points: 2
#     Edge 20, Type (0, 0), BuildingBlock: MIFKUJ_clean_linker_0, # of connection points: 2
#     Edge 21, Type (0, 0), BuildingBlock: MIFKUJ_clean_linker_0, # of connection points: 2
#     Edge 22, Type (0, 0), BuildingBlock: MIFKUJ_clean_linker_0, # of connection points: 2
#     Edge 23, Type (0, 0), BuildingBlock: MIFKUJ_clean_linker_0, # of connection points: 2
#     Edge 24, Type (0, 0), BuildingBlock: MIFKUJ_clean_linker_0, # of connection points: 2
#     Edge 25, Type (0, 0), BuildingBlock: MIFKUJ_clean_linker_0, # of connection points: 2
#     Edge 26, Type (0, 0), BuildingBlock: MIFKUJ_clean_linker_0, # of connection points: 2
#     Edge 27, Type (0, 0), BuildingBlock: MIFKUJ_clean_linker_0, # of connection points: 2
#     Edge 28, Type (0, 0), BuildingBlock: MIFKUJ_clean_linker_0, # of connection points: 2
#     Edge 29, Type (0, 0), BuildingBlock: MIFKUJ_clean_linker_0, # of connection points: 2
#     Edge 30, Type (0, 0), BuildingBlock: MIFKUJ_clean_linker_0, # of connection points: 2
#     Edge 31, Type (0, 0), BuildingBlock: MIFKUJ_clean_linker_0, # of connection points: 2
#     Edge 32, Type (0, 0), BuildingBlock: MIFKUJ_clean_linker_0, # of connection points: 2
#     Edge 33, Type (0, 0), BuildingBlock: MIFKUJ_clean_linker_0, # of connection points: 2
#     Edge 34, Type (0, 0), BuildingBlock: MIFKUJ_clean_linker_0, # of connection points: 2
#     Edge 35, Type (0, 0), BuildingBlock: MIFKUJ_clean_linker_0, # of connection points: 2
# Relax obj value: 0.485
# Max RMSD: 0.256
# Mean RMSD: 0.239
data_MOF--net-acs-a--node1-QUQFOY_clean_sbu_1--edge1-MIFKUJ_clean_linker_0
_symmetry_space_group_name_H-M    P1
_symmetry_Int_Tables_number       1
_symmetry_cell_setting            triclinic
loop_
_symmetry_equiv_pos_as_xyz
'x, y, z'
_cell_length_a     60.431717
_cell_length_b     60.503486
_cell_length_c     66.181247
_cell_angle_alpha  90.023377
_cell_angle_beta   90.071813
_cell_angle_gamma 116.09376
loop_
_atom_site_label
_atom_site_type_symbol
_atom_site_fract_x
_atom_site_fract_y
_atom_site_fract_z
_atom_type_partial_charge
O0 O 0.55161 0.14546 0.09471 0.0
Cd1 Cd 0.56273 0.11782 0.09227 0.0
Cd2 Cd 0.55926 0.11792 0.13209 0.0
O3 O 0.53887 0.13692 0.12612 0.0
O4 O 0.55506 0.10582 0.06409 0.0
O5 O 0.53725 0.08273 0.09078 0.0
C6 C 0.53929 0.08509 0.07136 0.0
C7 C 0.54636 0.0904 0.1592 0.0
C8 C 0.54058 0.14874 0.10991 0.0
C9 C 0.60988 0.13684 0.11356 0.0
O10 O 0.59715 0.13692 0.12881 0.0
O11 O 0.59936 0.12717 0.09707 0.0
O12 O 0.55548 0.11384 0.16176 0.0
O13 O 0.54416 0.08219 0.14094 0.0
O14 O 0.37128 0.54816 0.58155 0.0
Cd15 Cd 0.40849 0.55794 0.58381 0.0
Cd16 Cd 0.39721 0.54761 0.62159 0.0
O17 O 0.3617 0.52924 0.61088 0.0
O18 O 0.41988 0.55358 0.55668 0.0
O19 O 0.42025 0.53181 0.58354 0.0
C20 C 0.42439 0.53642 0.56447 0.0
C21 C 0.41086 0.53032 0.6474 0.0
C22 C 0.35511 0.53491 0.59421 0.0
C23 C 0.42599 0.60079 0.61024 0.0
O24 O 0.41141 0.58558 0.62291 0.0
O25 O 0.43035 0.59318 0.59354 0.0
O26 O 0.39423 0.53781 0.65043 0.0
O27 O 0.41936 0.53181 0.6293 0.0
O28 O 0.83224 0.40371 0.11758 0.0
Cd29 Cd 0.85567 0.38723 0.12141 0.0
Cd30 Cd 0.85858 0.39236 0.08124 0.0
O31 O 0.84083 0.41405 0.08562 0.0
O32 O 0.85919 0.38687 0.15116 0.0
O33 O 0.89051 0.40831 0.13105 0.0
C34 C 0.88215 0.40174 0.14912 0.0
C35 C 0.8938 0.40868 0.06157 0.0
C36 C 0.83012 0.41475 0.10189 0.0
C37 C 0.8346 0.34103 0.09708 0.0
O38 O 0.83768 0.35476 0.08181 0.0
O39 O 0.84255 0.3504 0.11431 0.0
O40 O 0.87214 0.39986 0.05357 0.0
O41 O 0.89549 0.40788 0.08101 0.0
O42 O 0.42704 0.84052 0.59071 0.0
Cd43 Cd 0.41846 0.86945 0.5862 0.0
Cd44 Cd 0.41881 0.87098 0.62739 0.0
O45 O 0.43415 0.84672 0.62337 0.0
O46 O 0.4268 0.87862 0.55753 0.0
O47 O 0.44542 0.90367 0.58304 0.0
C48 C 0.44327 0.8996 0.56379 0.0
C49 C 0.43466 0.89789 0.65475 0.0
C50 C 0.43423 0.83532 0.60728 0.0
C51 C 0.37037 0.85748 0.60563 0.0
O52 O 0.38131 0.85855 0.62229 0.0
O53 O 0.38234 0.86269 0.58918 0.0
O54 O 0.42129 0.87468 0.65716 0.0
O55 O 0.43917 0.90628 0.63652 0.0
O56 O 0.60345 0.43678 0.08814 0.0
Cd57 Cd 0.56623 0.42637 0.09124 0.0
Cd58 Cd 0.57888 0.43555 0.12966 0.0
O59 O 0.6135 0.45533 0.11762 0.0
O60 O 0.55468 0.42871 0.06367 0.0
O61 O 0.55379 0.45202 0.0892 0.0
C62 C 0.54988 0.44618 0.07029 0.0
C63 C 0.56848 0.45172 0.15816 0.0
C64 C 0.61979 0.45046 0.10054 0.0
C65 C 0.54977 0.38284 0.11693 0.0
O66 O 0.56495 0.39752 0.12961 0.0
O67 O 0.54477 0.3911 0.10083 0.0
O68 O 0.58511 0.4439 0.15872 0.0
O69 O 0.55772 0.45083 0.14111 0.0
O70 O 0.15104 0.59904 0.62858 0.0
Cd71 Cd 0.12743 0.61506 0.63244 0.0
Cd72 Cd 0.12185 0.60899 0.59127 0.0
O73 O 0.14054 0.5882 0.59689 0.0
O74 O 0.12293 0.61559 0.66206 0.0
O75 O 0.09252 0.59325 0.64123 0.0
C76 C 0.10022 0.60021 0.65941 0.0
C77 C 0.091 0.59235 0.56702 0.0
C78 C 0.15219 0.58776 0.61273 0.0
C79 C 0.14574 0.66081 0.60738 0.0
O80 O 0.14073 0.64694 0.59195 0.0
O81 O 0.14045 0.65156 0.62495 0.0
O82 O 0.11395 0.60179 0.56224 0.0
O83 O 0.08534 0.59268 0.5858 0.0
O84 O 0.84369 0.43643 0.41365 0.0
Cd85 Cd 0.87165 0.42685 0.40672 0.0
Cd86 Cd 0.8596 0.43114 0.36946 0.0
O87 O 0.84126 0.44896 0.38289 0.0
O88 O 0.89138 0.43251 0.43169 0.0
O89 O 0.9054 0.45468 0.4038 0.0
C90 C 0.90875 0.45053 0.42244 0.0
C91 C 0.88295 0.44795 0.34053 0.0
C92 C 0.83518 0.44695 0.4014 0.0
C93 C 0.84868 0.38053 0.38375 0.0
O94 O 0.84339 0.39315 0.37098 0.0
O95 O 0.86247 0.39101 0.3987 0.0
O96 O 0.85923 0.43827 0.34026 0.0
O97 O 0.89372 0.44873 0.35758 0.0
O98 O 0.34942 0.84324 0.90149 0.0
Cd99 Cd 0.38641 0.86471 0.90624 0.0
Cd100 Cd 0.38838 0.86685 0.86517 0.0
O101 O 0.35071 0.84673 0.86833 0.0
O102 O 0.38946 0.87411 0.93518 0.0
O103 O 0.40102 0.90128 0.91026 0.0
C104 C 0.39914 0.89676 0.92944 0.0
C105 C 0.4011 0.89656 0.8397 0.0
C106 C 0.33859 0.83834 0.88448 0.0
C107 C 0.41679 0.84316 0.88618 0.0
O108 O 0.41026 0.84877 0.86943 0.0
O109 O 0.40945 0.84825 0.90272 0.0
O110 O 0.39073 0.87338 0.83575 0.0
O111 O 0.40454 0.90328 0.85841 0.0
O112 O 0.59597 0.4286 0.3954 0.0
Cd113 Cd 0.56139 0.40702 0.38347 0.0
Cd114 Cd 0.5517 0.39833 0.42326 0.0
O115 O 0.58832 0.42079 0.42779 0.0
O116 O 0.56823 0.41629 0.3546 0.0
O117 O 0.53984 0.4219 0.37183 0.0
C118 C 0.55162 0.42413 0.35512 0.0
C119 C 0.52397 0.40894 0.43973 0.0
C120 C 0.60335 0.43151 0.41363 0.0
C121 C 0.54379 0.35476 0.39788 0.0
O122 O 0.54309 0.36261 0.41556 0.0
O123 O 0.54989 0.36931 0.38286 0.0
O124 O 0.53483 0.39768 0.44903 0.0
O125 O 0.52831 0.41349 0.42067 0.0
O126 O 0.16265 0.55594 0.91566 0.0
Cd127 Cd 0.13305 0.56393 0.9117 0.0
Cd128 Cd 0.13694 0.5514 0.87539 0.0
O129 O 0.1545 0.53262 0.8886 0.0
O130 O 0.11789 0.56116 0.93863 0.0
O131 O 0.09891 0.53677 0.91275 0.0
C132 C 0.09872 0.54279 0.93148 0.0
C133 C 0.10879 0.53441 0.84922 0.0
C134 C 0.16646 0.54058 0.9049 0.0
C135 C 0.15257 0.60461 0.88357 0.0
O136 O 0.15653 0.58928 0.87286 0.0
O137 O 0.13986 0.59751 0.89956 0.0
O138 O 0.13186 0.54022 0.84693 0.0
O139 O 0.10126 0.53682 0.86697 0.0
O140 O 0.6499 0.13985 0.40543 0.0
Cd141 Cd 0.61226 0.11881 0.40308 0.0
Cd142 Cd 0.62305 0.12135 0.36451 0.0
O143 O 0.65889 0.13425 0.37423 0.0
O144 O 0.6016 0.10696 0.43092 0.0
O145 O 0.59644 0.08195 0.40502 0.0
C146 C 0.59363 0.08486 0.42403 0.0
C147 C 0.6086 0.09133 0.33936 0.0
C148 C 0.6658 0.14282 0.39184 0.0
C149 C 0.59443 0.14821 0.37821 0.0
O150 O 0.60817 0.14636 0.36447 0.0
O151 O 0.59149 0.13661 0.39471 0.0
O152 O 0.62441 0.11361 0.3356 0.0
O153 O 0.60122 0.08574 0.35778 0.0
O154 O 0.41862 0.57978 0.87158 0.0
Cd155 Cd 0.45536 0.59771 0.86385 0.0
Cd156 Cd 0.46078 0.59755 0.90529 0.0
O157 O 0.42304 0.57781 0.90453 0.0
O158 O 0.45394 0.59607 0.83393 0.0
O159 O 0.47267 0.57859 0.85194 0.0
C160 C 0.46621 0.58329 0.83447 0.0
C161 C 0.48093 0.58192 0.9267 0.0
C162 C 0.40934 0.57307 0.88902 0.0
C163 C 0.47831 0.64678 0.88496 0.0
O164 O 0.47531 0.63515 0.90149 0.0
O165 O 0.47232 0.63519 0.86831 0.0
O166 O 0.46945 0.59391 0.93358 0.0
O167 O 0.48149 0.57922 0.90737 0.0
H168 H 0.56705 0.04703 0.3394 0.0
H169 H 0.54606 0.02248 0.30963 0.0
H170 H 0.60508 0.0723 0.27179 0.0
H171 H 0.6261 0.09612 0.30116 0.0
H172 H 0.52716 0.03698 0.28161 0.0
H173 H 0.61255 0.05209 0.22979 0.0
H174 H 0.64977 0.04538 0.23249 0.0
H175 H 0.61674 0.99382 0.28066 0.0
H176 H 0.57909 -0.00014 0.27807 0.0
H177 H 0.53948 0.1018 0.19743 0.0
H178 H 0.53684 0.0787 0.22788 0.0
H179 H 0.53663 0.01877 0.1923 0.0
H180 H 0.53985 0.04245 0.16132 0.0
H181 H 0.56982 0.02994 0.21975 0.0
H182 H 0.48679 0.00822 0.22476 0.0
H183 H 0.44736 0.01092 0.22224 0.0
H184 H 0.47144 0.06724 0.26777 0.0
H185 H 0.51116 0.06523 0.27037 0.0
C186 C 0.57585 0.05218 0.32477 0.0
C187 C 0.59807 0.07365 0.32256 0.0
C188 C 0.56383 0.03817 0.30777 0.0
C189 C 0.574 0.04532 0.28839 0.0
C190 C 0.59701 0.06587 0.28651 0.0
C191 C 0.60894 0.07977 0.30337 0.0
C192 C 0.55929 0.0347 0.26979 0.0
C193 C 0.53621 0.03488 0.26812 0.0
C194 C 0.57023 0.03027 0.25231 0.0
C195 C 0.59285 0.02638 0.25368 0.0
C196 C 0.61303 0.03909 0.24081 0.0
C197 C 0.63429 0.03547 0.24237 0.0
C198 C 0.63562 0.01918 0.25672 0.0
C199 C 0.6157 0.00646 0.26956 0.0
C200 C 0.5944 0.01 0.26807 0.0
C201 C 0.53834 0.08349 0.19597 0.0
C202 C 0.54014 0.07405 0.177 0.0
C203 C 0.53648 0.07007 0.21346 0.0
C204 C 0.53617 0.04675 0.21248 0.0
C205 C 0.53664 0.03664 0.19344 0.0
C206 C 0.53845 0.05015 0.17577 0.0
C207 C 0.53943 0.03549 0.23153 0.0
C208 C 0.56021 0.03093 0.23328 0.0
C209 C 0.52595 0.03508 0.24911 0.0
C210 C 0.502 0.03645 0.24782 0.0
C211 C 0.48374 0.02125 0.2342 0.0
C212 C 0.46132 0.02267 0.23275 0.0
C213 C 0.45688 0.03921 0.24486 0.0
C214 C 0.47487 0.05437 0.25845 0.0
C215 C 0.49733 0.05304 0.25996 0.0
H216 H 0.43952 0.04029 0.2437 0.0
H217 H 0.6521 0.01642 0.25791 0.0
H218 H 0.45517 0.52802 0.64978 0.0
H219 H 0.47573 0.52461 0.68082 0.0
H220 H 0.41088 0.51329 0.71511 0.0
H221 H 0.3904 0.51625 0.68443 0.0
H222 H 0.48802 0.5567 0.70919 0.0
H223 H 0.40493 0.48613 0.75763 0.0
H224 H 0.37181 0.44411 0.75356 0.0
H225 H 0.41286 0.42986 0.70667 0.0
H226 H 0.44647 0.47166 0.71064 0.0
H227 H 0.4651 0.59981 0.79672 0.0
H228 H 0.46871 0.58184 0.7649 0.0
H229 H 0.48304 0.52727 0.79681 0.0
H230 H 0.4792 0.54536 0.82919 0.0
H231 H 0.4477 0.50612 0.76929 0.0
H232 H 0.5282 0.5675 0.76613 0.0
H233 H 0.56318 0.60849 0.7701 0.0
H234 H 0.53125 0.63821 0.72623 0.0
H235 H 0.49588 0.59753 0.7222 0.0
C236 C 0.44507 0.52393 0.66387 0.0
C237 C 0.4213 0.52269 0.66475 0.0
C238 C 0.45684 0.52204 0.6816 0.0
C239 C 0.44488 0.51857 0.70036 0.0
C240 C 0.42043 0.51544 0.70088 0.0
C241 C 0.40877 0.51742 0.68328 0.0
C242 C 0.45871 0.52275 0.7197 0.0
C243 C 0.47954 0.54537 0.72228 0.0
C244 C 0.44847 0.50746 0.73671 0.0
C245 C 0.42832 0.48213 0.73447 0.0
C246 C 0.40707 0.474 0.74658 0.0
C247 C 0.38814 0.45021 0.74425 0.0
C248 C 0.39023 0.43432 0.72987 0.0
C249 C 0.41125 0.44219 0.71779 0.0
C250 C 0.43024 0.46595 0.72006 0.0
C251 C 0.46942 0.58424 0.79706 0.0
C252 C 0.47173 0.57391 0.81546 0.0
C253 C 0.47175 0.5741 0.77879 0.0
C254 C 0.47652 0.5534 0.77841 0.0
C255 C 0.47959 0.54339 0.79676 0.0
C256 C 0.47743 0.55374 0.81521 0.0
C257 C 0.47519 0.54107 0.75874 0.0
C258 C 0.45681 0.51693 0.75612 0.0
C259 C 0.48804 0.55471 0.74165 0.0
C260 C 0.50936 0.57934 0.74382 0.0
C261 C 0.52857 0.58278 0.75737 0.0
C262 C 0.54848 0.60598 0.75964 0.0
C263 C 0.54945 0.62593 0.74841 0.0
C264 C 0.53051 0.62272 0.73487 0.0
C265 C 0.51055 0.59956 0.73255 0.0
H266 H 0.56488 0.64388 0.75019 0.0
H267 H 0.37554 0.41592 0.72808 0.0
H268 H 0.92468 0.44475 0.15288 0.0
H269 H 0.94557 0.46396 0.18462 0.0
H270 H 0.89458 0.40055 0.21769 0.0
H271 H 0.87399 0.38152 0.18641 0.0
H272 H 0.92484 0.47751 0.2143 0.0
H273 H 0.91682 0.38992 0.25869 0.0
H274 H 0.92614 0.35475 0.25255 0.0
H275 H 0.97738 0.3953 0.20604 0.0
H276 H 0.9687 0.43092 0.21209 0.0
H277 H 0.86569 0.45492 0.30444 0.0
H278 H 0.88543 0.46052 0.27174 0.0
H279 H 0.95148 0.46469 0.30018 0.0
H280 H 0.93138 0.45854 0.33331 0.0
H281 H 0.93828 0.43219 0.27175 0.0
H282 H 0.95359 0.51447 0.27199 0.0
H283 H 0.94692 0.55131 0.27793 0.0
H284 H 0.88743 0.52519 0.23509 0.0
H285 H 0.89343 0.48801 0.22911 0.0
C286 C 0.91845 0.43471 0.16691 0.0
C287 C 0.89763 0.41174 0.16724 0.0
C288 C 0.93034 0.4457 0.185 0.0
C289 C 0.92182 0.43361 0.20353 0.0
C290 C 0.90188 0.41007 0.2036 0.0
C291 C 0.88993 0.39928 0.18569 0.0
C292 C 0.93086 0.44635 0.22314 0.0
C293 C 0.9283 0.46794 0.22685 0.0
C294 C 0.93661 0.43454 0.23936 0.0
C295 C 0.94211 0.41318 0.23588 0.0
C296 C 0.93027 0.39148 0.24729 0.0
C297 C 0.93539 0.37141 0.24378 0.0
C298 C 0.95234 0.37279 0.22892 0.0
C299 C 0.96423 0.39425 0.21754 0.0
C300 C 0.95919 0.41438 0.22098 0.0
C301 C 0.88462 0.45757 0.30386 0.0
C302 C 0.89688 0.45602 0.32144 0.0
C303 C 0.89605 0.46108 0.28509 0.0
C304 C 0.92011 0.46332 0.28342 0.0
C305 C 0.93296 0.46315 0.3011 0.0
C306 C 0.92148 0.45967 0.32001 0.0
C307 C 0.92972 0.46187 0.26306 0.0
C308 C 0.93586 0.44243 0.2592 0.0
C309 C 0.9278 0.47599 0.24668 0.0
C310 C 0.92404 0.49841 0.25007 0.0
C311 C 0.93901 0.51651 0.26389 0.0
C312 C 0.93534 0.53747 0.26727 0.0
C313 C 0.91678 0.5406 0.25688 0.0
C314 C 0.90185 0.52278 0.24309 0.0
C315 C 0.90543 0.50177 0.23966 0.0
H316 H 0.91396 0.55683 0.25952 0.0
H317 H 0.95626 0.35722 0.22622 0.0
H318 H 0.44095 0.94206 0.83835 0.0
H319 H 0.45813 0.9671 0.80786 0.0
H320 H 0.39669 0.91537 0.77305 0.0
H321 H 0.37985 0.89065 0.80305 0.0
H322 H 0.47382 0.95094 0.77652 0.0
H323 H 0.38237 0.93793 0.7347 0.0
H324 H 0.34608 0.94489 0.74242 0.0
H325 H 0.38637 0.99581 0.78931 0.0
H326 H 0.4231 0.98952 0.78169 0.0
H327 H 0.44331 0.88459 0.69167 0.0
H328 H 0.45182 0.90809 0.72277 0.0
H329 H 0.45458 0.97091 0.68997 0.0
H330 H 0.44597 0.94705 0.65833 0.0
H331 H 0.42341 0.95994 0.72082 0.0
H332 H 0.50605 0.97834 0.71672 0.0
H333 H 0.54347 0.97326 0.70914 0.0
H334 H 0.52349 0.91667 0.75413 0.0
H335 H 0.48576 0.92106 0.76178 0.0
C336 C 0.43084 0.93658 0.82426 0.0
C337 C 0.40923 0.91436 0.82293 0.0
C338 C 0.44064 0.95085 0.80689 0.0
C339 C 0.42859 0.94331 0.78817 0.0
C340 C 0.40612 0.92197 0.78732 0.0
C341 C 0.39661 0.90764 0.80446 0.0
C342 C 0.44087 0.95443 0.76884 0.0
C343 C 0.46316 0.95355 0.76437 0.0
C344 C 0.42771 0.95929 0.75314 0.0
C345 C 0.40562 0.96332 0.75754 0.0
C346 C 0.38365 0.95085 0.7465 0.0
C347 C 0.36294 0.95461 0.75091 0.0
C348 C 0.36392 0.97079 0.76633 0.0
C349 C 0.38563 0.98326 0.77738 0.0
C350 C 0.4064 0.97958 0.77303 0.0
C351 C 0.44626 0.90358 0.69095 0.0
C352 C 0.44379 0.91395 0.67264 0.0
C353 C 0.45143 0.91716 0.70875 0.0
C354 C 0.4542 0.94144 0.70873 0.0
C355 C 0.45278 0.9523 0.6903 0.0
C356 C 0.44789 0.93869 0.67228 0.0
C357 C 0.45457 0.95326 0.72848 0.0
C358 C 0.43476 0.95859 0.73301 0.0
C359 C 0.47027 0.95297 0.74426 0.0
C360 C 0.49306 0.95017 0.73991 0.0
C361 C 0.50957 0.96475 0.72497 0.0
C362 C 0.53085 0.96198 0.72065 0.0
C363 C 0.53587 0.94469 0.73118 0.0
C364 C 0.51962 0.93012 0.74604 0.0
C365 C 0.49831 0.93281 0.75043 0.0
H366 H 0.55235 0.94256 0.7278 0.0
H367 H 0.34786 0.97366 0.76973 0.0
H368 H 0.58424 0.44862 0.32591 0.0
H369 H 0.57642 0.46369 0.29393 0.0
H370 H 0.5003 0.43968 0.31054 0.0
H371 H 0.50827 0.4248 0.34318 0.0
H372 H 0.50759 0.42158 0.27285 0.0
H373 H 0.53156 0.49876 0.30352 0.0
H374 H 0.55573 0.5342 0.32545 0.0
H375 H 0.62021 0.55061 0.28957 0.0
H376 H 0.59658 0.51506 0.2676 0.0
H377 H 0.52375 0.45042 0.16785 0.0
H378 H 0.51031 0.45615 0.20172 0.0
H379 H 0.58364 0.47653 0.22458 0.0
H380 H 0.59696 0.4708 0.19114 0.0
H381 H 0.56189 0.50278 0.24313 0.0
H382 H 0.54118 0.41657 0.22447 0.0
H383 H 0.51934 0.37962 0.20334 0.0
H384 H 0.4502 0.38012 0.21745 0.0
H385 H 0.47174 0.41725 0.23852 0.0
C386 C 0.56591 0.4469 0.32294 0.0
C387 C 0.54682 0.43543 0.33693 0.0
C388 C 0.56151 0.45572 0.30472 0.0
C389 C 0.53785 0.45306 0.29995 0.0
C390 C 0.51875 0.44213 0.31407 0.0
C391 C 0.52331 0.43367 0.33264 0.0
C392 C 0.53321 0.45914 0.27917 0.0
C393 C 0.51866 0.4396 0.26641 0.0
C394 C 0.54779 0.48261 0.27079 0.0
C395 C 0.56222 0.5042 0.28386 0.0
C396 C 0.55092 0.50984 0.30034 0.0
C397 C 0.56453 0.52997 0.31279 0.0
C398 C 0.58948 0.54466 0.30889 0.0
C399 C 0.60087 0.53925 0.29254 0.0
C400 C 0.58734 0.51914 0.28004 0.0
C401 C 0.53709 0.45682 0.18002 0.0
C402 C 0.5613 0.45988 0.177 0.0
C403 C 0.5294 0.46003 0.19933 0.0
C404 C 0.54594 0.46656 0.21569 0.0
C405 C 0.57058 0.47156 0.2122 0.0
C406 C 0.57814 0.4681 0.19309 0.0
C407 C 0.53752 0.46486 0.23691 0.0
C408 C 0.5497 0.48517 0.24969 0.0
C409 C 0.52094 0.44208 0.24536 0.0
C410 C 0.50804 0.41978 0.23281 0.0
C411 C 0.52133 0.40885 0.22295 0.0
C412 C 0.50902 0.38789 0.21101 0.0
C413 C 0.4834 0.37758 0.209 0.0
C414 C 0.47005 0.38817 0.21898 0.0
C415 C 0.48229 0.40916 0.23091 0.0
H416 H 0.4739 0.36134 0.19975 0.0
H417 H 0.59999 0.56023 0.31855 0.0
H418 H 0.0754 0.55198 0.66928 0.0
H419 H 0.06092 0.53587 0.70307 0.0
H420 H 0.07527 0.60888 0.72323 0.0
H421 H 0.09144 0.62511 0.68981 0.0
H422 H 0.09878 0.59419 0.74541 0.0
H423 H 0.01528 0.55619 0.7249 0.0
H424 H 0.97918 0.53166 0.70368 0.0
H425 H 0.99019 0.46717 0.71414 0.0
H426 H 0.02658 0.49136 0.73518 0.0
H427 H 0.06515 0.53766 0.84542 0.0
H428 H 0.04705 0.54229 0.81344 0.0
H429 H 0.09888 0.52491 0.78054 0.0
H430 H 0.11692 0.52014 0.8122 0.0
H431 H 0.03365 0.51405 0.76877 0.0
H432 H 0.13446 0.58354 0.7623 0.0
H433 H 0.16962 0.60884 0.78427 0.0
H434 H 0.11989 0.61342 0.8285 0.0
H435 H 0.08451 0.58863 0.8066 0.0
C436 C 0.07455 0.56434 0.68078 0.0
C437 C 0.08453 0.58971 0.67713 0.0
C438 C 0.06615 0.55513 0.70011 0.0
C439 C 0.067 0.57113 0.71586 0.0
C440 C 0.0746 0.59616 0.71145 0.0
C441 C 0.08372 0.60544 0.69235 0.0
C442 C 0.06472 0.56292 0.73729 0.0
C443 C 0.08407 0.57695 0.75049 0.0
C444 C 0.04568 0.54037 0.74421 0.0
C445 C 0.02377 0.52567 0.73156 0.0
C446 C 0.01012 0.53682 0.72257 0.0
C447 C 0.98958 0.52296 0.71059 0.0
C448 C 0.98241 0.49788 0.70755 0.0
C449 C 0.99576 0.4866 0.71651 0.0
C450 C 0.01632 0.50037 0.7285 0.0
C451 C 0.07192 0.5337 0.8314 0.0
C452 C 0.09277 0.52904 0.83125 0.0
C453 C 0.0615 0.53629 0.81316 0.0
C454 C 0.07187 0.5342 0.79474 0.0
C455 C 0.09068 0.5266 0.79466 0.0
C456 C 0.10106 0.52403 0.81278 0.0
C457 C 0.06767 0.5453 0.77617 0.0
C458 C 0.04758 0.5317 0.76359 0.0
C459 C 0.08561 0.56858 0.76986 0.0
C460 C 0.10684 0.58399 0.78292 0.0
C461 C 0.13105 0.59004 0.77668 0.0
C462 C 0.15101 0.6043 0.78911 0.0
C463 C 0.14698 0.61264 0.8078 0.0
C464 C 0.12298 0.60686 0.81405 0.0
C465 C 0.10298 0.5927 0.80164 0.0
H466 H 0.16245 0.62365 0.81742 0.0
H467 H 0.9665 0.48719 0.69826 0.0
H468 H 0.50442 0.03891 0.08142 0.0
H469 H 0.47754 0.0065 0.05834 0.0
H470 H 0.51158 0.05371 0.00741 0.0
H471 H 0.53831 0.08613 0.03025 0.0
H472 H 0.46147 0.0313 0.0043 0.0
H473 H 0.52669 0.00814 0.01912 0.0
H474 H 0.55344 -0.00235 0.04136 0.0
H475 H 0.49001 0.9366 0.06543 0.0
H476 H 0.46284 0.94694 0.0435 0.0
H477 H 0.42746 0.94592 0.92278 0.0
H478 H 0.44781 0.97785 0.94823 0.0
H479 H 0.41369 0.92466 0.9956 0.0
H480 H 0.39372 0.89261 0.97031 0.0
H481 H 0.46135 0.9493 0.00221 0.0
H482 H 0.39609 0.97051 0.9859 0.0
H483 H 0.36912 0.98084 0.96379 0.0
H484 H 0.43169 0.04518 0.94286 0.0
H485 H 0.4591 0.03504 0.96464 0.0
C486 C 0.50623 0.04233 0.0653 0.0
C487 C 0.52353 0.06504 0.05765 0.0
C488 C 0.49088 0.02381 0.05215 0.0
C489 C 0.49266 0.02772 0.03118 0.0
C490 C 0.50988 0.05037 0.02355 0.0
C491 C 0.52523 0.06882 0.03664 0.0
C492 C 0.47671 0.00823 0.01705 0.0
C493 C 0.46156 0.01342 0.00369 0.0
C494 C 0.4764 0.98474 0.01668 0.0
C495 C 0.49272 0.97848 0.02984 0.0
C496 C 0.51843 0.99261 0.02928 0.0
C497 C 0.53367 0.98666 0.0418 0.0
C498 C 0.52343 0.96652 0.05484 0.0
C499 C 0.49792 0.95223 0.05535 0.0
C500 C 0.48259 0.95811 0.04287 0.0
C501 C 0.42401 0.94112 0.93861 0.0
C502 C 0.40909 0.91674 0.94454 0.0
C503 C 0.43558 0.9594 0.95315 0.0
C504 C 0.43219 0.95364 0.97383 0.0
C505 C 0.41663 0.92948 0.97974 0.0
C506 C 0.40519 0.91121 0.96525 0.0
C507 C 0.44615 0.97237 0.98928 0.0
C508 C 0.46101 0.96707 0.0029 0.0
C509 C 0.44611 0.99572 0.98991 0.0
C510 C 0.42968 0.00188 0.97678 0.0
C511 C 0.40413 0.98675 0.97646 0.0
C512 C 0.38876 0.99259 0.96401 0.0
C513 C 0.39869 0.01362 0.95189 0.0
C514 C 0.42402 0.02888 0.95224 0.0
C515 C 0.43948 0.02311 0.96465 0.0
H516 H 0.38676 0.01812 0.94227 0.0
H517 H 0.53526 0.96194 0.06452 0.0
H518 H 0.43509 0.54244 0.52423 0.0
H519 H 0.44908 0.51827 0.50282 0.0
H520 H 0.44789 0.47371 0.55407 0.0
H521 H 0.43417 0.49808 0.57574 0.0
H522 H 0.48944 0.48725 0.53221 0.0
H523 H 0.40262 0.45177 0.51843 0.0
H524 H 0.3634 0.45228 0.50888 0.0
H525 H 0.39349 0.4828 0.45104 0.0
H526 H 0.43303 0.48279 0.46035 0.0
H527 H 0.50659 0.39669 0.47806 0.0
H528 H 0.48619 0.4157 0.49865 0.0
H529 H 0.48678 0.46107 0.44819 0.0
H530 H 0.5068 0.4417 0.42728 0.0
H531 H 0.44449 0.44609 0.46981 0.0
H532 H 0.53139 0.48345 0.48374 0.0
H533 H 0.57111 0.48382 0.49293 0.0
H534 H 0.54136 0.45092 0.5502 0.0
H535 H 0.50133 0.45003 0.54122 0.0
C536 C 0.43781 0.52751 0.53099 0.0
C537 C 0.43347 0.52212 0.55168 0.0
C538 C 0.44567 0.51362 0.51868 0.0
C539 C 0.44915 0.49396 0.52679 0.0
C540 C 0.44519 0.48875 0.5475 0.0
C541 C 0.43735 0.50267 0.55985 0.0
C542 C 0.45746 0.4792 0.51371 0.0
C543 C 0.47939 0.4779 0.51875 0.0
C544 C 0.44468 0.4676 0.49585 0.0
C545 C 0.42086 0.46748 0.49016 0.0
C546 C 0.40094 0.45876 0.50373 0.0
C547 C 0.37864 0.45893 0.49835 0.0
C548 C 0.37597 0.46762 0.47938 0.0
C549 C 0.39559 0.4761 0.46573 0.0
C550 C 0.41794 0.47599 0.47105 0.0
C551 C 0.50207 0.41046 0.47123 0.0
C552 C 0.50856 0.41793 0.45112 0.0
C553 C 0.49047 0.42135 0.48305 0.0
C554 C 0.48549 0.44017 0.47507 0.0
C555 C 0.49061 0.44667 0.45465 0.0
C556 C 0.50206 0.4356 0.44274 0.0
C557 C 0.4764 0.45408 0.48839 0.0
C558 C 0.45442 0.4553 0.48335 0.0
C559 C 0.48918 0.46575 0.50622 0.0
C560 C 0.5133 0.46645 0.51173 0.0
C561 C 0.53327 0.47613 0.49823 0.0
C562 C 0.55584 0.47646 0.50341 0.0
C563 C 0.55874 0.46734 0.52211 0.0
C564 C 0.53908 0.45794 0.53571 0.0
C565 C 0.51645 0.45754 0.53059 0.0
H566 H 0.57623 0.46761 0.52609 0.0
H567 H 0.35869 0.46774 0.47525 0.0
H568 H 0.09637 0.5462 0.97237 0.0
H569 H 0.0618 0.52204 0.99447 0.0
H570 H 0.0186 0.48344 0.94273 0.0
H571 H 0.05323 0.50749 0.92041 0.0
H572 H 0.9937 0.50055 0.97036 0.0
H573 H 0.04177 0.45478 0.97055 0.0
H574 H 0.07978 0.44957 0.97454 0.0
H575 H 0.08567 0.47302 0.03638 0.0
H576 H 0.04787 0.47872 0.03267 0.0
H577 H 0.89584 0.40632 0.02064 0.0
H578 H 0.93137 0.42809 -0.00109 0.0
H579 H 0.97699 0.45945 0.05136 0.0
H580 H 0.94146 0.43716 0.07335 0.0
H581 H 0.00116 0.44635 0.02354 0.0
H582 H 0.95457 0.49285 0.02423 0.0
H583 H 0.91751 0.4999 0.02109 0.0
H584 H 0.90995 0.47765 0.95885 0.0
H585 H 0.94679 0.47013 0.9617 0.0
C586 C 0.0795 0.53263 0.96565 0.0
C587 C 0.0775 0.5287 0.94465 0.0
C588 C 0.05984 0.51878 0.97832 0.0
C589 C 0.03782 0.50086 0.9702 0.0
C590 C 0.03554 0.49718 0.94922 0.0
C591 C 0.05531 0.51087 0.93653 0.0
C592 C 0.01712 0.4861 0.98367 0.0
C593 C 0.99514 0.4884 0.98179 0.0
C594 C 0.01946 0.47095 -0.00103 0.0
C595 C 0.04212 0.4674 0.00127 0.0
C596 C 0.05129 0.45902 0.98495 0.0
C597 C 0.07277 0.45594 0.98717 0.0
C598 C 0.08517 0.46102 0.00569 0.0
C599 C 0.07606 0.46912 0.02204 0.0
C600 C 0.0546 0.47226 0.01989 0.0
C601 C 0.91346 0.4177 0.02759 0.0
C602 C 0.91584 0.42024 0.0487 0.0
C603 C 0.93373 0.4302 0.01514 0.0
C604 C 0.95667 0.44578 0.02351 0.0
C605 C 0.95938 0.44761 0.04461 0.0
C606 C 0.93909 0.43489 0.05713 0.0
C607 C 0.97758 0.46063 0.01016 0.0
C608 C -0.00035 0.45844 0.01209 0.0
C609 C 0.97544 0.47614 0.99503 0.0
C610 C 0.9533 0.4807 0.99324 0.0
C611 C 0.94489 0.48928 0.00992 0.0
C612 C 0.92394 0.49338 0.00818 0.0
C613 C 0.91134 0.48916 0.98979 0.0
C614 C 0.91971 0.48088 0.97309 0.0
C615 C 0.94063 0.47671 0.97475 0.0
H616 H 0.89513 0.49236 0.98848 0.0
H617 H 0.1018 0.45862 0.00737 0.0
H618 H 0.59376 0.08518 0.46509 0.0
H619 H 0.57001 0.05117 0.48775 0.0
H620 H 0.54053 0.00282 0.43654 0.0
H621 H 0.56448 0.0369 0.41364 0.0
H622 H 0.50467 0.00221 0.46354 0.0
H623 H 0.57983 0.99431 0.46566 0.0
H624 H 0.62459 0.0084 0.4695 0.0
H625 H 0.62104 0.03074 0.53052 0.0
H626 H 0.57629 0.01711 0.52696 0.0
H627 H 0.44314 0.8952 0.52284 0.0
H628 H 0.47007 0.92519 0.49854 0.0
H629 H 0.5067 0.97582 0.54708 0.0
H630 H 0.47996 0.94564 0.57166 0.0
H631 H 0.53934 0.97346 0.52012 0.0
H632 H 0.46526 0.98408 0.5176 0.0
H633 H 0.42061 0.97092 0.51405 0.0
H634 H 0.42229 0.94458 0.45409 0.0
H635 H 0.46693 0.95729 0.45739 0.0
C636 C 0.58244 0.06726 0.45863 0.0
C637 C 0.58089 0.06369 0.4376 0.0
C638 C 0.56898 0.04783 0.47161 0.0
C639 C 0.55365 0.02451 0.4638 0.0
C640 C 0.55236 0.02072 0.44282 0.0
C641 C 0.56607 0.04014 0.42979 0.0
C642 C 0.53783 0.00467 0.47761 0.0
C643 C 0.51221 0.99553 0.47568 0.0
C644 C 0.54779 0.99662 0.49376 0.0
C645 C 0.57472 0.00488 0.49597 0.0
C646 C 0.58862 0.00243 0.47984 0.0
C647 C 0.61399 0.01029 0.48198 0.0
C648 C 0.62566 0.02051 0.50023 0.0
C649 C 0.61198 0.02284 0.51639 0.0
C650 C 0.5866 0.01502 0.51432 0.0
C651 C 0.45687 0.91273 0.52839 0.0
C652 C 0.45936 0.91811 0.54918 0.0
C653 C 0.47221 0.92987 0.51445 0.0
C654 C 0.49019 0.9528 0.521 0.0
C655 C 0.49289 0.9582 0.54175 0.0
C656 C 0.47755 0.941 0.55575 0.0
C657 C 0.50617 0.9711 0.50612 0.0
C658 C 0.5318 0.97999 0.50788 0.0
C659 C 0.49623 0.97905 0.48986 0.0
C660 C 0.46939 0.9714 0.48783 0.0
C661 C 0.45607 0.97529 0.50372 0.0
C662 C 0.43077 0.96795 0.50174 0.0
C663 C 0.41861 0.95686 0.48388 0.0
C664 C 0.43173 0.95314 0.46793 0.0
C665 C 0.45704 0.96043 0.46984 0.0
H666 H 0.39902 0.95119 0.48237 0.0
H667 H 0.6453 0.02658 0.50186 0.0
H668 H 0.49432 0.54507 0.91892 0.0
H669 H 0.50731 0.5229 0.94361 0.0
H670 H 0.50461 0.57063 0.99097 0.0
H671 H 0.49146 0.59271 0.9665 0.0
H672 H 0.54602 0.56057 0.99329 0.0
H673 H 0.45784 0.51808 0.98657 0.0
H674 H 0.41865 0.49753 0.96792 0.0
H675 H 0.44057 0.44343 0.94575 0.0
H676 H 0.48009 0.4639 0.96405 0.0
H677 H 0.54283 0.48712 0.07809 0.0
H678 H 0.5317 0.51111 0.05378 0.0
H679 H 0.52708 0.46017 0.00647 0.0
H680 H 0.53787 0.43603 0.03059 0.0
H681 H 0.48944 0.4724 0.00429 0.0
H682 H 0.57753 0.51453 0.01093 0.0
H683 H 0.61696 0.53511 0.02925 0.0
H684 H 0.59571 0.58979 0.05121 0.0
H685 H 0.55598 0.56931 0.03324 0.0
C686 C 0.49687 0.55106 0.93453 0.0
C687 C 0.49172 0.57048 0.94083 0.0
C688 C 0.50418 0.53834 0.9486 0.0
C689 C 0.50665 0.54503 0.9691 0.0
C690 C 0.50275 0.5652 0.97522 0.0
C691 C 0.49516 0.57771 0.96123 0.0
C692 C 0.51194 0.53019 0.98437 0.0
C693 C 0.53357 0.54136 0.99588 0.0
C694 C 0.4958 0.50507 0.98746 0.0
C695 C 0.47203 0.49269 0.97649 0.0
C696 C 0.4544 0.50194 0.97757 0.0
C697 C 0.43211 0.49028 0.96709 0.0
C698 C 0.42716 0.46923 0.95561 0.0
C699 C 0.44446 0.45976 0.95462 0.0
C700 C 0.4668 0.47138 0.96505 0.0
C701 C 0.53922 0.48093 0.06255 0.0
C702 C 0.54134 0.45976 0.05623 0.0
C703 C 0.53301 0.49471 0.04867 0.0
C704 C 0.52891 0.48757 0.02828 0.0
C705 C 0.53024 0.46602 0.02212 0.0
C706 C 0.53646 0.45228 0.03593 0.0
C707 C 0.52365 0.5027 0.0132 0.0
C708 C 0.50196 0.49159 0.00173 0.0
C709 C 0.53978 0.52786 0.01012 0.0
C710 C 0.56367 0.54023 0.02092 0.0
C711 C 0.58117 0.53082 0.01981 0.0
C712 C 0.60359 0.54249 0.0301 0.0
C713 C 0.60881 0.5637 0.04143 0.0
C714 C 0.59163 0.57333 0.04245 0.0
C715 C 0.56916 0.5617 0.03221 0.0
H716 H 0.62618 0.57272 0.04939 0.0
H717 H 0.40988 0.46022 0.94752 0.0
H718 H 0.93241 0.43794 0.45172 0.0
H719 H 0.96451 0.46576 0.47439 0.0
H720 H 0.96499 0.5282 0.44245 0.0
H721 H 0.93399 0.50024 0.41889 0.0
H722 H 0.00844 0.53994 0.45431 0.0
H723 H 0.93136 0.50538 0.4876 0.0
H724 H 0.89185 0.47276 0.49954 0.0
H725 H 0.93054 0.44187 0.53543 0.0
H726 H 0.9703 0.47411 0.52348 0.0
H727 H 0.04256 0.58369 0.56806 0.0
H728 H 0.01151 0.56455 0.54157 0.0
H729 H 0.06561 0.5547 0.50493 0.0
H730 H 0.09674 0.57492 0.53071 0.0
H731 H 0.99145 0.52198 0.52733 0.0
H732 H 0.05526 0.55368 0.45602 0.0
H733 H 0.09139 0.5906 0.44423 0.0
H734 H 0.07346 0.63564 0.48487 0.0
H735 H 0.03703 0.59907 0.49671 0.0
C736 C 0.93982 0.45761 0.44931 0.0
C737 C 0.93077 0.46705 0.43371 0.0
C738 C 0.95794 0.4735 0.46237 0.0
C739 C 0.96654 0.49909 0.46059 0.0
C740 C 0.9585 0.50854 0.44425 0.0
C741 C 0.94086 0.49259 0.43077 0.0
C742 C 0.98304 0.51578 0.47627 0.0
C743 C 0.00471 0.53608 0.47027 0.0
C744 C 0.97768 0.51141 0.49714 0.0
C745 C 0.95381 0.49207 0.50453 0.0
C746 C 0.93144 0.49155 0.49795 0.0
C747 C 0.909 0.47314 0.50473 0.0
C748 C 0.90869 0.45524 0.51821 0.0
C749 C 0.93082 0.45575 0.52498 0.0
C750 C 0.95331 0.47411 0.51823 0.0
C751 C 0.04778 0.57763 0.55423 0.0
C752 C 0.07204 0.58092 0.55134 0.0
C753 C 0.03007 0.5667 0.53912 0.0
C754 C 0.0363 0.55857 0.52104 0.0
C755 C 0.06048 0.56153 0.51839 0.0
C756 C 0.07824 0.57291 0.53324 0.0
C757 C 0.01734 0.54568 0.50539 0.0
C758 C 0.99513 0.52607 0.51138 0.0
C759 C 0.0217 0.55142 0.48457 0.0
C760 C 0.04349 0.57356 0.47736 0.0
C761 C 0.05894 0.57147 0.46237 0.0
C762 C 0.0795 0.59234 0.45569 0.0
C763 C 0.08475 0.61544 0.46383 0.0
C764 C 0.06942 0.61773 0.47863 0.0
C765 C 0.04883 0.59693 0.48535 0.0
H766 H 0.10068 0.63157 0.45865 0.0
H767 H 0.89129 0.44099 0.52343 0.0
H768 H 0.50664 0.15339 0.13463 0.0
H769 H 0.49613 0.18806 0.13635 0.0
H770 H 0.54619 0.22324 0.08715 0.0
H771 H 0.55563 0.18818 0.08469 0.0
H772 H 0.52196 0.2315 0.14667 0.0
H773 H 0.53431 0.26299 0.06187 0.0
H774 H 0.52377 0.24385 0.02813 0.0
H775 H 0.46603 0.1791 0.05393 0.0
H776 H 0.47596 0.19796 0.08779 0.0
H777 H 0.57089 0.35862 0.13803 0.0
H778 H 0.5585 0.31456 0.13848 0.0
H779 H 0.49388 0.30215 0.10321 0.0
H780 H 0.50724 0.34663 0.10163 0.0
H781 H 0.51215 0.27695 0.0877 0.0
H782 H 0.49172 0.28318 0.15526 0.0
H783 H 0.49629 0.29994 0.1898 0.0
H784 H 0.55822 0.28442 0.2 0.0
H785 H 0.55429 0.26791 0.16543 0.0
C786 C 0.51494 0.16831 0.12389 0.0
C787 C 0.53191 0.16807 0.10949 0.0
C788 C 0.50899 0.18815 0.12494 0.0
C789 C 0.52015 0.20826 0.11178 0.0
C790 C 0.53673 0.20772 0.09712 0.0
C791 C 0.54227 0.18769 0.09579 0.0
C792 C 0.51638 0.23079 0.11444 0.0
C793 C 0.51949 0.24129 0.1338 0.0
C794 C 0.51223 0.24323 0.09783 0.0
C795 C 0.50598 0.23188 0.07742 0.0
C796 C 0.51925 0.24474 0.06035 0.0
C797 C 0.51341 0.23391 0.0412 0.0
C798 C 0.49428 0.21026 0.0389 0.0
C799 C 0.48089 0.1974 0.05574 0.0
C800 C 0.48664 0.20813 0.07492 0.0
C801 C 0.5538 0.34647 0.13069 0.0
C802 C 0.54003 0.35602 0.11978 0.0
C803 C 0.54659 0.32118 0.13107 0.0
C804 C 0.52499 0.30481 0.12114 0.0
C805 C 0.51063 0.31432 0.11096 0.0
C806 C 0.51821 0.33972 0.11013 0.0
C807 C 0.5189 0.27819 0.11979 0.0
C808 C 0.51398 0.26692 0.10067 0.0
C809 C 0.52035 0.26462 0.13676 0.0
C810 C 0.52274 0.27436 0.15768 0.0
C811 C 0.5064 0.28345 0.16483 0.0
C812 C 0.50887 0.29291 0.18442 0.0
C813 C 0.52754 0.29326 0.19708 0.0
C814 C 0.54375 0.28411 0.19018 0.0
C815 C 0.54138 0.27466 0.17059 0.0
H816 H 0.52944 0.3006 0.21224 0.0
H817 H 0.4898 0.20191 0.02406 0.0
H818 H 0.3375 0.5596 0.56974 0.0
H819 H 0.29717 0.55918 0.57156 0.0
H820 H 0.27304 0.49839 0.61346 0.0
H821 H 0.31414 0.49979 0.61263 0.0
H822 H 0.25193 0.53349 0.56543 0.0
H823 H 0.23675 0.50469 0.64907 0.0
H824 H 0.26077 0.50376 0.679 0.0
H825 H 0.32469 0.56482 0.65555 0.0
H826 H 0.30096 0.56626 0.62562 0.0
H827 H 0.14514 0.54679 0.59123 0.0
H828 H 0.17358 0.52813 0.58787 0.0
H829 H 0.22462 0.58301 0.6283 0.0
H830 H 0.19545 0.60054 0.63274 0.0
H831 H 0.22781 0.54395 0.6351 0.0
H832 H 0.22782 0.58648 0.57351 0.0
H833 H 0.20949 0.59576 0.54327 0.0
H834 H 0.18543 0.52161 0.52217 0.0
H835 H 0.20339 0.51183 0.55242 0.0
C836 C 0.32347 0.54575 0.579 0.0
C837 C 0.32912 0.53003 0.59134 0.0
C838 C 0.30032 0.5455 0.58001 0.0
C839 C 0.28221 0.52922 0.5931 0.0
C840 C 0.28695 0.51165 0.60373 0.0
C841 C 0.31038 0.51233 0.60314 0.0
C842 C 0.25975 0.53273 0.59712 0.0
C843 C 0.2465 0.53552 0.58068 0.0
C844 C 0.25284 0.53586 0.61699 0.0
C845 C 0.26717 0.53535 0.63503 0.0
C846 C 0.25591 0.51793 0.65035 0.0
C847 C 0.26947 0.51732 0.6673 0.0
C848 C 0.29426 0.53415 0.66914 0.0
C849 C 0.30551 0.55173 0.65408 0.0
C850 C 0.29203 0.55245 0.63712 0.0
C851 C 0.1623 0.55459 0.59961 0.0
C852 C 0.16824 0.57518 0.61214 0.0
C853 C 0.17862 0.54403 0.59758 0.0
C854 C 0.20159 0.5545 0.60741 0.0
C855 C 0.20706 0.57454 0.62052 0.0
C856 C 0.19042 0.58462 0.62303 0.0
C857 C 0.2205 0.54555 0.60338 0.0
C858 C 0.23293 0.54151 0.61985 0.0
C859 C 0.22746 0.54253 0.5835 0.0
C860 C 0.21666 0.54835 0.56532 0.0
C861 C 0.21847 0.57212 0.56248 0.0
C862 C 0.20817 0.57747 0.54534 0.0
C863 C 0.19623 0.55926 0.53085 0.0
C864 C 0.19463 0.53568 0.53344 0.0
C865 C 0.20486 0.53022 0.55057 0.0
H866 H 0.18827 0.56344 0.51759 0.0
H867 H 0.30473 0.53362 0.68225 0.0
H868 H 0.79519 0.31862 0.07243 0.0
H869 H 0.76315 0.27663 0.07501 0.0
H870 H 0.80601 0.26074 0.12 0.0
H871 H 0.83729 0.30367 0.11861 0.0
H872 H 0.75379 0.233 0.07027 0.0
H873 H 0.76947 0.22055 0.15411 0.0
H874 H 0.789 0.24536 0.18441 0.0
H875 H 0.77706 0.30534 0.16074 0.0
H876 H 0.75726 0.28077 0.13043 0.0
H877 H 0.64421 0.12713 0.09345 0.0
H878 H 0.68869 0.15353 0.09169 0.0
H879 H 0.68006 0.20554 0.13185 0.0
H880 H 0.63635 0.17833 0.13489 0.0
H881 H 0.72079 0.20791 0.13941 0.0
H882 H 0.68036 0.20775 0.07567 0.0
H883 H 0.65643 0.18873 0.04489 0.0
H884 H 0.71025 0.16392 0.0276 0.0
H885 H 0.73437 0.18261 0.0584 0.0
C886 C 0.79799 0.30606 0.08262 0.0
C887 C 0.81849 0.31443 0.09554 0.0
C888 C 0.77966 0.28195 0.08406 0.0
C889 C 0.78174 0.26552 0.09811 0.0
C890 C 0.80351 0.27322 0.10955 0.0
C891 C 0.82147 0.29767 0.10864 0.0
C892 C 0.75998 0.24158 0.102 0.0
C893 C 0.74671 0.22742 0.08543 0.0
C894 C 0.75053 0.23413 0.12174 0.0
C895 C 0.76224 0.24897 0.13993 0.0
C896 C 0.77101 0.23902 0.15542 0.0
C897 C 0.78211 0.25304 0.17257 0.0
C898 C 0.78436 0.27695 0.17446 0.0
C899 C 0.7754 0.28685 0.15923 0.0
C900 C 0.76424 0.2729 0.14207 0.0
C901 C 0.65205 0.14397 0.10221 0.0
C902 C 0.63692 0.15081 0.11422 0.0
C903 C 0.6774 0.15916 0.10108 0.0
C904 C 0.68779 0.18195 0.11119 0.0
C905 C 0.67271 0.18811 0.1239 0.0
C906 C 0.64762 0.17256 0.1256 0.0
C907 C 0.71371 0.20043 0.1076 0.0
C908 C 0.72804 0.21323 0.12426 0.0
C909 C 0.72342 0.20752 0.08788 0.0
C910 C 0.70895 0.19625 0.06943 0.0
C911 C 0.68699 0.1981 0.06535 0.0
C912 C 0.67341 0.18741 0.0479 0.0
C913 C 0.68177 0.17505 0.03433 0.0
C914 C 0.70376 0.17343 0.03815 0.0
C915 C 0.71739 0.18407 0.05559 0.0
H916 H 0.67124 0.16678 0.02084 0.0
H917 H 0.793 0.28777 0.18774 0.0
H918 H 0.46489 0.82861 0.63441 0.0
H919 H 0.47499 0.79365 0.63646 0.0
H920 H 0.42798 0.76034 0.58502 0.0
H921 H 0.41918 0.79579 0.58221 0.0
H922 H 0.45038 0.74973 0.64492 0.0
H923 H 0.442 0.72286 0.55895 0.0
H924 H 0.45367 0.74393 0.52606 0.0
H925 H 0.50923 0.80782 0.55496 0.0
H926 H 0.49816 0.78702 0.588 0.0
H927 H 0.40446 0.62363 0.63243 0.0
H928 H 0.41629 0.66749 0.63441 0.0
H929 H 0.48131 0.68233 0.59895 0.0
H930 H 0.46835 0.63801 0.59571 0.0
H931 H 0.46351 0.70812 0.58475 0.0
H932 H 0.48263 0.69937 0.65196 0.0
H933 H 0.47816 0.68147 0.68603 0.0
H934 H 0.41489 0.69459 0.69677 0.0
H935 H 0.41874 0.71225 0.66266 0.0
C936 C 0.45708 0.81396 0.62337 0.0
C937 C 0.44141 0.81496 0.60806 0.0
C938 C 0.4628 0.79396 0.62457 0.0
C939 C 0.45261 0.77443 0.6107 0.0
C940 C 0.43682 0.77546 0.5955 0.0
C941 C 0.43162 0.79569 0.59398 0.0
C942 C 0.45694 0.75215 0.6128 0.0
C943 C 0.45354 0.74077 0.6318 0.0
C944 C 0.46219 0.74088 0.59591 0.0
C945 C 0.46914 0.75338 0.576 0.0
C946 C 0.45683 0.74133 0.55829 0.0
C947 C 0.46331 0.75326 0.53961 0.0
C948 C 0.48215 0.77721 0.53843 0.0
C949 C 0.4946 0.78928 0.55591 0.0
C950 C 0.4882 0.77744 0.57462 0.0
C951 C 0.42152 0.63626 0.62537 0.0
C952 C 0.43549 0.62745 0.61391 0.0
C953 C 0.42843 0.66145 0.62665 0.0
C954 C 0.44999 0.67848 0.61713 0.0
C955 C 0.46458 0.66967 0.60641 0.0
C956 C 0.45724 0.64436 0.60462 0.0
C957 C 0.45567 0.70506 0.61669 0.0
C958 C 0.46096 0.71729 0.598 0.0
C959 C 0.45338 0.71762 0.63406 0.0
C960 C 0.45095 0.70708 0.65467 0.0
C961 C 0.46768 0.69832 0.66153 0.0
C962 C 0.46526 0.68822 0.68087 0.0
C963 C 0.44624 0.68688 0.69355 0.0
C964 C 0.42963 0.69567 0.68693 0.0
C965 C 0.43195 0.70577 0.66761 0.0
H966 H 0.4444 0.67904 0.70851 0.0
H967 H 0.48712 0.78641 0.52395 0.0
H968 H 0.65982 0.48889 0.11696 0.0
H969 H 0.70301 0.49667 0.11403 0.0
H970 H 0.68161 0.43478 0.07336 0.0
H971 H 0.63901 0.42809 0.07523 0.0
H972 H 0.72249 0.47162 0.12698 0.0
H973 H 0.72495 0.4337 0.04537 0.0
H974 H 0.71146 0.43777 0.01099 0.0
H975 H 0.70978 0.50558 0.02771 0.0
H976 H 0.72362 0.50215 0.06211 0.0
H977 H 0.79038 0.40479 0.12594 0.0
H978 H 0.76163 0.423 0.12418 0.0
H979 H 0.8057 0.4725 0.07739 0.0
H980 H 0.83371 0.45313 0.07828 0.0
H981 H 0.76253 0.45711 0.06643 0.0
H982 H 0.80044 0.49272 0.12744 0.0
H983 H 0.81838 0.49612 0.16144 0.0
H984 H 0.7475 0.44685 0.1849 0.0
H985 H 0.72917 0.44284 0.151 0.0
C986 C 0.66454 0.47746 0.10693 0.0
C987 C 0.64609 0.45788 0.09633 0.0
C988 C 0.6892 0.48184 0.10532 0.0
C989 C 0.69578 0.46643 0.09338 0.0
C990 C 0.67735 0.44746 0.08221 0.0
C991 C 0.65285 0.4435 0.0834 0.0
C992 C 0.721 0.46792 0.09452 0.0
C993 C 0.73141 0.46881 0.11368 0.0
C994 C 0.7334 0.46535 0.07718 0.0
C995 C 0.72526 0.4676 0.0564 0.0
C996 C 0.72189 0.44958 0.0417 0.0
C997 C 0.71413 0.45175 0.0222 0.0
C998 C 0.70973 0.4719 0.01718 0.0
C999 C 0.71313 0.48995 0.03164 0.0
C1000 C 0.7209 0.48788 0.05115 0.0
C1001 C 0.79409 0.41976 0.11546 0.0
C1002 C 0.81422 0.42753 0.10223 0.0
C1003 C 0.77774 0.43035 0.11456 0.0
C1004 C 0.78164 0.44951 0.10089 0.0
C1005 C 0.80222 0.45777 0.08806 0.0
C1006 C 0.81825 0.44673 0.0886 0.0
C1007 C 0.76307 0.45933 0.09897 0.0
C1008 C 0.75397 0.46059 0.07967 0.0
C1009 C 0.7526 0.46511 0.1161 0.0
C1010 C 0.76344 0.46742 0.13661 0.0
C1011 C 0.78869 0.48249 0.13982 0.0
C1012 C 0.79893 0.48454 0.15908 0.0
C1013 C 0.78409 0.47169 0.17531 0.0
C1014 C 0.75897 0.4568 0.17232 0.0
C1015 C 0.74863 0.45467 0.15308 0.0
H1016 H 0.79206 0.4733 0.19022 0.0
H1017 H 0.70371 0.47353 0.00208 0.0
H1018 H 0.16681 0.6947 0.63733 0.0
H1019 H 0.19809 0.73683 0.63351 0.0
H1020 H 0.18948 0.73044 0.5687 0.0
H1021 H 0.15861 0.68775 0.5724 0.0
H1022 H 0.23467 0.74373 0.57786 0.0
H1023 H 0.17749 0.7736 0.59694 0.0
H1024 H 0.14442 0.77668 0.61671 0.0
H1025 H 0.19098 0.79784 0.66922 0.0
H1026 H 0.22423 0.79454 0.64986 0.0
H1027 H 0.34132 0.8543 0.57297 0.0
H1028 H 0.29672 0.83022 0.57046 0.0
H1029 H 0.29322 0.81348 0.63404 0.0
H1030 H 0.3378 0.83777 0.63681 0.0
H1031 H 0.25084 0.81726 0.61981 0.0
H1032 H 0.30236 0.77662 0.60212 0.0
H1033 H 0.33538 0.77285 0.58273 0.0
H1034 H 0.29781 0.77147 0.52727 0.0
H1035 H 0.26473 0.77559 0.54636 0.0
C1036 C 0.17107 0.70239 0.62226 0.0
C1037 C 0.1605 0.68771 0.60515 0.0
C1038 C 0.18887 0.72666 0.6201 0.0
C1039 C 0.19616 0.73693 0.60081 0.0
C1040 C 0.18421 0.72291 0.58375 0.0
C1041 C 0.16657 0.69849 0.58588 0.0
C1042 C 0.21882 0.7604 0.59851 0.0
C1043 C 0.23783 0.76006 0.58655 0.0
C1044 C 0.22327 0.7816 0.61018 0.0
C1045 C 0.20336 0.78372 0.62193 0.0
C1046 C 0.18064 0.77876 0.61274 0.0
C1047 C 0.16186 0.78056 0.62387 0.0
C1048 C 0.16559 0.78743 0.64421 0.0
C1049 C 0.18813 0.79254 0.65345 0.0
C1050 C 0.20697 0.79075 0.64239 0.0
C1051 C 0.33103 0.84602 0.58655 0.0
C1052 C 0.34319 0.84748 0.60501 0.0
C1053 C 0.30552 0.83234 0.58508 0.0
C1054 C 0.29179 0.81975 0.60198 0.0
C1055 C 0.30352 0.82305 0.62081 0.0
C1056 C 0.32904 0.83682 0.62233 0.0
C1057 C 0.26639 0.80011 0.5995 0.0
C1058 C 0.24713 0.80115 0.61064 0.0
C1059 C 0.26155 0.77946 0.58707 0.0
C1060 C 0.28127 0.77671 0.57562 0.0
C1061 C 0.30125 0.77568 0.58578 0.0
C1062 C 0.31995 0.77346 0.57485 0.0
C1063 C 0.31873 0.772 0.55377 0.0
C1064 C 0.29876 0.77266 0.54359 0.0
C1065 C 0.28003 0.77494 0.55445 0.0
H1066 H 0.33323 0.77028 0.54533 0.0
H1067 H 0.15102 0.78881 0.65281 0.0
H1068 H 0.81211 0.46842 0.37882 0.0
H1069 H 0.77782 0.47677 0.38888 0.0
H1070 H 0.78216 0.45295 0.44958 0.0
H1071 H 0.81634 0.44404 0.4395 0.0
H1072 H 0.73737 0.42933 0.43536 0.0
H1073 H 0.79404 0.51342 0.43967 0.0
H1074 H 0.8282 0.55271 0.42925 0.0
H1075 H 0.78682 0.55521 0.37724 0.0
H1076 H 0.75254 0.51576 0.38716 0.0
H1077 H 0.62654 0.43733 0.45024 0.0
H1078 H 0.67067 0.45151 0.45593 0.0
H1079 H 0.68458 0.46955 0.39273 0.0
H1080 H 0.64066 0.45578 0.38691 0.0
H1081 H 0.72278 0.50134 0.41694 0.0
H1082 H 0.67273 0.4129 0.40831 0.0
H1083 H 0.63858 0.37294 0.41748 0.0
H1084 H 0.66863 0.37891 0.47718 0.0
H1085 H 0.7028 0.4191 0.46841 0.0
C1086 C 0.80611 0.46535 0.39441 0.0
C1087 C 0.8168 0.45528 0.4083 0.0
C1088 C 0.7866 0.47038 0.40021 0.0
C1089 C 0.77752 0.4657 0.42004 0.0
C1090 C 0.78893 0.45677 0.43421 0.0
C1091 C 0.80844 0.45166 0.42841 0.0
C1092 C 0.75418 0.46695 0.42503 0.0
C1093 C 0.73443 0.44538 0.43194 0.0
C1094 C 0.75017 0.48771 0.4202 0.0
C1095 C 0.77072 0.51153 0.41414 0.0
C1096 C 0.79227 0.52225 0.42593 0.0
C1097 C 0.81166 0.54458 0.42012 0.0
C1098 C 0.80969 0.55644 0.40258 0.0
C1099 C 0.78831 0.54601 0.39083 0.0
C1100 C 0.76887 0.52368 0.39657 0.0
C1101 C 0.63904 0.44493 0.43764 0.0
C1102 C 0.63003 0.44491 0.41802 0.0
C1103 C 0.66426 0.45305 0.44095 0.0
C1104 C 0.68079 0.46113 0.42468 0.0
C1105 C 0.67211 0.46331 0.40548 0.0
C1106 C 0.64694 0.45525 0.40216 0.0
C1107 C 0.70617 0.4636 0.42675 0.0
C1108 C 0.72612 0.4857 0.42104 0.0
C1109 C 0.71047 0.44333 0.43259 0.0
C1110 C 0.6901 0.41909 0.4378 0.0
C1111 C 0.67194 0.40575 0.42343 0.0
C1112 C 0.65261 0.38307 0.42855 0.0
C1113 C 0.65139 0.37343 0.44792 0.0
C1114 C 0.66957 0.38643 0.4622 0.0
C1115 C 0.68892 0.40915 0.45716 0.0
H1116 H 0.63641 0.35587 0.45186 0.0
H1117 H 0.82472 0.57372 0.39811 0.0
H1118 H 0.30605 0.83163 0.85354 0.0
H1119 H 0.26466 0.79785 0.8497 0.0
H1120 H 0.272 0.76939 0.90789 0.0
H1121 H 0.31232 0.8037 0.91225 0.0
H1122 H 0.25153 0.75365 0.84469 0.0
H1123 H 0.22196 0.73407 0.93031 0.0
H1124 H 0.22176 0.75793 0.96043 0.0
H1125 H 0.22568 0.81723 0.92267 0.0
H1126 H 0.22553 0.79359 0.89228 0.0
H1127 H 0.19657 0.62968 0.86499 0.0
H1128 H 0.21913 0.67396 0.86071 0.0
H1129 H 0.15754 0.68333 0.88525 0.0
H1130 H 0.13569 0.63888 0.89104 0.0
H1131 H 0.19384 0.71472 0.90134 0.0
H1132 H 0.17767 0.69618 0.83327 0.0
H1133 H 0.17263 0.67384 0.80115 0.0
H1134 H 0.25041 0.69524 0.7993 0.0
H1135 H 0.2559 0.71728 0.83163 0.0
C1136 C 0.29845 0.81849 0.86572 0.0
C1137 C 0.31239 0.82034 0.88322 0.0
C1138 C 0.27484 0.79913 0.86349 0.0
C1139 C 0.2649 0.78106 0.87857 0.0
C1140 C 0.27867 0.78339 0.89626 0.0
C1141 C 0.30194 0.803 0.89871 0.0
C1142 C 0.24161 0.75834 0.87515 0.0
C1143 C 0.23869 0.7453 0.85697 0.0
C1144 C 0.22395 0.74783 0.89067 0.0
C1145 C 0.22379 0.76203 0.90897 0.0
C1146 C 0.22257 0.7521 0.92839 0.0
C1147 C 0.22258 0.76563 0.94553 0.0
C1148 C 0.22374 0.78909 0.94346 0.0
C1149 C 0.22485 0.79907 0.92425 0.0
C1150 C 0.22483 0.78563 0.90706 0.0
C1151 C 0.1877 0.64116 0.86918 0.0
C1152 C 0.16448 0.63095 0.87842 0.0
C1153 C 0.20052 0.66654 0.86654 0.0
C1154 C 0.18996 0.68219 0.8723 0.0
C1155 C 0.16618 0.67178 0.88071 0.0
C1156 C 0.15367 0.6464 0.88396 0.0
C1157 C 0.20492 0.70938 0.87148 0.0
C1158 C 0.20619 0.7233 0.88881 0.0
C1159 C 0.22016 0.72113 0.85474 0.0
C1160 C 0.21719 0.70841 0.83496 0.0
C1161 C 0.19372 0.69608 0.82607 0.0
C1162 C 0.19077 0.68343 0.80782 0.0
C1163 C 0.21119 0.68313 0.79819 0.0
C1164 C 0.23461 0.69553 0.80677 0.0
C1165 C 0.23766 0.70815 0.82505 0.0
H1166 H 0.20885 0.67328 0.78409 0.0
H1167 H 0.22376 0.79953 0.95675 0.0
H1168 H 0.61653 0.19437 0.36288 0.0
H1169 H 0.60128 0.22561 0.36396 0.0
H1170 H 0.53203 0.17193 0.3881 0.0
H1171 H 0.54827 0.1413 0.38868 0.0
H1172 H 0.56954 0.23577 0.34933 0.0
H1173 H 0.50586 0.19714 0.41876 0.0
H1174 H 0.50196 0.17178 0.44898 0.0
H1175 H 0.57971 0.19283 0.44765 0.0
H1176 H 0.58409 0.21851 0.41758 0.0
H1177 H 0.52412 0.3238 0.36564 0.0
H1178 H 0.52435 0.28381 0.36014 0.0
H1179 H 0.5603 0.29062 0.41787 0.0
H1180 H 0.55809 0.32921 0.424 0.0
H1181 H 0.53376 0.24687 0.41372 0.0
H1182 H 0.59131 0.30679 0.3683 0.0
H1183 H 0.6045 0.33776 0.34107 0.0
H1184 H 0.55527 0.28386 0.29964 0.0
H1185 H 0.5416 0.25264 0.32672 0.0
C1186 C 0.59798 0.18926 0.36825 0.0
C1187 C 0.58363 0.16562 0.3759 0.0
C1188 C 0.5892 0.20709 0.36881 0.0
C1189 C 0.56564 0.2014 0.37656 0.0
C1190 C 0.55058 0.17711 0.38273 0.0
C1191 C 0.55974 0.15954 0.38289 0.0
C1192 C 0.55766 0.2213 0.37922 0.0
C1193 C 0.56166 0.23812 0.36342 0.0
C1194 C 0.54764 0.22474 0.39766 0.0
C1195 C 0.54521 0.20945 0.41578 0.0
C1196 C 0.52211 0.19636 0.42495 0.0
C1197 C 0.51982 0.18194 0.44205 0.0
C1198 C 0.54055 0.18061 0.45018 0.0
C1199 C 0.56364 0.19379 0.44129 0.0
C1200 C 0.56604 0.20826 0.42422 0.0
C1201 C 0.53155 0.31637 0.37727 0.0
C1202 C 0.54106 0.3295 0.39523 0.0
C1203 C 0.53193 0.29366 0.37406 0.0
C1204 C 0.54293 0.28433 0.38834 0.0
C1205 C 0.55162 0.29719 0.40658 0.0
C1206 C 0.5504 0.31934 0.4101 0.0
C1207 C 0.54667 0.26199 0.38417 0.0
C1208 C 0.54151 0.24446 0.39958 0.0
C1209 C 0.55708 0.25878 0.36585 0.0
C1210 C 0.56522 0.2775 0.34957 0.0
C1211 C 0.58319 0.30161 0.35341 0.0
C1212 C 0.59077 0.31919 0.33801 0.0
C1213 C 0.58067 0.3128 0.31865 0.0
C1214 C 0.56303 0.28879 0.31465 0.0
C1215 C 0.55536 0.27115 0.33001 0.0
H1216 H 0.58656 0.32643 0.30674 0.0
H1217 H 0.53874 0.16942 0.4634 0.0
H1218 H 0.20891 0.57056 0.92376 0.0
H1219 H 0.24705 0.5663 0.92458 0.0
H1220 H 0.20967 0.49384 0.89811 0.0
H1221 H 0.17173 0.49901 0.89578 0.0
H1222 H 0.26716 0.542 0.9388 0.0
H1223 H 0.24718 0.48239 0.86723 0.0
H1224 H 0.22058 0.47173 0.83693 0.0
H1225 H 0.21791 0.54141 0.84015 0.0
H1226 H 0.24469 0.55255 0.87032 0.0
H1227 H 0.38213 0.54194 0.91902 0.0
H1228 H 0.33765 0.52574 0.92443 0.0
H1229 H 0.33177 0.5633 0.87068 0.0
H1230 H 0.37572 0.5781 0.8646 0.0
H1231 H 0.29351 0.52367 0.87248 0.0
H1232 H 0.33715 0.58738 0.92134 0.0
H1233 H 0.36641 0.60718 0.9492 0.0
H1234 H 0.32621 0.54484 0.98729 0.0
H1235 H 0.29686 0.52457 0.95955 0.0
C1236 C 0.20869 0.55353 0.91844 0.0
C1237 C 0.18751 0.53526 0.90943 0.0
C1238 C 0.23055 0.55105 0.91896 0.0
C1239 C 0.23152 0.53 0.91092 0.0
C1240 C 0.20965 0.51062 0.90378 0.0
C1241 C 0.18793 0.51347 0.90261 0.0
C1242 C 0.25589 0.5298 0.90826 0.0
C1243 C 0.27282 0.53775 0.92433 0.0
C1244 C 0.26354 0.52455 0.88935 0.0
C1245 C 0.24762 0.51812 0.87115 0.0
C1246 C 0.24092 0.49542 0.86143 0.0
C1247 C 0.22583 0.4893 0.84429 0.0
C1248 C 0.21748 0.50584 0.83667 0.0
C1249 C 0.22431 0.52858 0.84611 0.0
C1250 C 0.23944 0.5348 0.86322 0.0
C1251 C 0.3712 0.54638 0.90823 0.0
C1252 C 0.38234 0.56139 0.89146 0.0
C1253 C 0.34582 0.53723 0.91138 0.0
C1254 C 0.33135 0.5437 0.89821 0.0
C1255 C 0.34243 0.55795 0.88106 0.0
C1256 C 0.36761 0.56651 0.87762 0.0
C1257 C 0.30509 0.5371 0.9027 0.0
C1258 C 0.28774 0.5275 0.88705 0.0
C1259 C 0.29744 0.54223 0.92164 0.0
C1260 C 0.31503 0.55434 0.93832 0.0
C1261 C 0.33467 0.57784 0.93563 0.0
C1262 C 0.35125 0.58915 0.95139 0.0
C1263 C 0.34822 0.57723 0.96998 0.0
C1264 C 0.32856 0.55401 0.97287 0.0
C1265 C 0.31195 0.54261 0.95713 0.0
H1266 H 0.36107 0.58602 0.98218 0.0
H1267 H 0.20577 0.50105 0.82342 0.0
H1268 H 0.68406 0.17906 0.42009 0.0
H1269 H 0.72406 0.21461 0.41935 0.0
H1270 H 0.74717 0.18136 0.37117 0.0
H1271 H 0.70633 0.14624 0.371 0.0
H1272 H 0.77013 0.23021 0.42262 0.0
H1273 H 0.77937 0.2239 0.33678 0.0
H1274 H 0.75373 0.20373 0.307 0.0
H1275 H 0.69009 0.20254 0.33674 0.0
H1276 H 0.71543 0.22295 0.36656 0.0
H1277 H 0.86497 0.34839 0.39931 0.0
H1278 H 0.84278 0.30338 0.39992 0.0
H1279 H 0.78266 0.30696 0.36701 0.0
H1280 H 0.80539 0.35154 0.36528 0.0
H1281 H 0.78588 0.26944 0.35499 0.0
H1282 H 0.78563 0.30247 0.42178 0.0
H1283 H 0.80472 0.32547 0.4529 0.0
H1284 H 0.83971 0.27823 0.46346 0.0
H1285 H 0.821 0.25511 0.43226 0.0
C1286 C 0.69784 0.17896 0.40968 0.0
C1287 C 0.69188 0.16014 0.39528 0.0
C1288 C 0.72082 0.19935 0.4093 0.0
C1289 C 0.73843 0.20108 0.39477 0.0
C1290 C 0.7336 0.18081 0.3821 0.0
C1291 C 0.71032 0.16067 0.38208 0.0
C1292 C 0.75985 0.2253 0.39117 0.0
C1293 C 0.77381 0.23867 0.40778 0.0
C1294 C 0.76452 0.23659 0.37187 0.0
C1295 C 0.74921 0.2246 0.35394 0.0
C1296 C 0.75991 0.21936 0.33691 0.0
C1297 C 0.74544 0.20789 0.32004 0.0
C1298 C 0.72028 0.20177 0.32001 0.0
C1299 C 0.70956 0.20722 0.33681 0.0
C1300 C 0.72396 0.21873 0.35368 0.0
C1301 C 0.84719 0.33945 0.39193 0.0
C1302 C 0.83681 0.35343 0.38235 0.0
C1303 C 0.83445 0.31375 0.39238 0.0
C1304 C 0.81076 0.3017 0.38391 0.0
C1305 C 0.80091 0.3157 0.37364 0.0
C1306 C 0.81389 0.34125 0.3727 0.0
C1307 C 0.79532 0.27482 0.38662 0.0
C1308 C 0.78269 0.26084 0.36977 0.0
C1309 C 0.79096 0.26344 0.40588 0.0
C1310 C 0.80221 0.2773 0.42459 0.0
C1311 C 0.79753 0.29711 0.43068 0.0
C1312 C 0.80826 0.31015 0.44833 0.0
C1313 C 0.8235 0.30338 0.46011 0.0
C1314 C 0.82797 0.2835 0.45429 0.0
C1315 C 0.81731 0.27042 0.43663 0.0
H1316 H 0.83178 0.31349 0.47377 0.0
H1317 H 0.7091 0.19285 0.30696 0.0
H1318 H 0.49078 0.67759 0.91775 0.0
H1319 H 0.49148 0.71823 0.91923 0.0
H1320 H 0.48079 0.71666 0.85471 0.0
H1321 H 0.48056 0.67632 0.85298 0.0
H1322 H 0.50834 0.7637 0.86828 0.0
H1323 H 0.43166 0.69366 0.88504 0.0
H1324 H 0.40553 0.65607 0.90398 0.0
H1325 H 0.42368 0.69714 0.95945 0.0
H1326 H 0.45021 0.73492 0.94084 0.0
H1327 H 0.43134 0.82405 0.85409 0.0
H1328 H 0.45222 0.79746 0.85534 0.0
H1329 H 0.45744 0.8047 0.92024 0.0
H1330 H 0.43627 0.83096 0.91918 0.0
H1331 H 0.43725 0.75789 0.90923 0.0
H1332 H 0.5091 0.83005 0.8903 0.0
H1333 H 0.53372 0.86693 0.87003 0.0
H1334 H 0.52322 0.82185 0.8174 0.0
H1335 H 0.49824 0.78471 0.83728 0.0
C1336 C 0.48931 0.68618 0.90378 0.0
C1337 C 0.48504 0.67345 0.88531 0.0
C1338 C 0.48969 0.70941 0.90467 0.0
C1339 C 0.48557 0.72014 0.88714 0.0
C1340 C 0.48385 0.70863 0.86843 0.0
C1341 C 0.48362 0.68547 0.8675 0.0
C1342 C 0.47937 0.74121 0.88859 0.0
C1343 C 0.49281 0.76252 0.87721 0.0
C1344 C 0.45923 0.73968 0.9004 0.0
C1345 C 0.44314 0.71703 0.91159 0.0
C1346 C 0.43021 0.69463 0.90129 0.0
C1347 C 0.41532 0.6733 0.91196 0.0
C1348 C 0.41301 0.6742 0.93292 0.0
C1349 C 0.42553 0.69646 0.94323 0.0
C1350 C 0.4405 0.71783 0.93263 0.0
C1351 C 0.43726 0.8203 0.86861 0.0
C1352 C 0.43191 0.82944 0.88655 0.0
C1353 C 0.44935 0.80522 0.86928 0.0
C1354 C 0.45651 0.7992 0.88788 0.0
C1355 C 0.45207 0.80911 0.90573 0.0
C1356 C 0.43993 0.8241 0.90508 0.0
C1357 C 0.4662 0.78057 0.88893 0.0
C1358 C 0.45318 0.75949 0.90065 0.0
C1359 C 0.48654 0.78231 0.87727 0.0
C1360 C 0.50163 0.8046 0.86527 0.0
C1361 C 0.51188 0.82801 0.87437 0.0
C1362 C 0.52593 0.84896 0.86295 0.0
C1363 C 0.52999 0.84674 0.84243 0.0
C1364 C 0.52005 0.82355 0.83329 0.0
C1365 C 0.50597 0.80253 0.84464 0.0
H1366 H 0.54088 0.86298 0.83362 0.0
H1367 H 0.40146 0.65767 0.94115 0.0
loop_
_geom_bond_atom_site_label_1
_geom_bond_atom_site_label_2
_geom_bond_distance
_geom_bond_site_symmetry_2
_ccdc_geom_bond_type
O0 Cd1 2.223 . S
O0 C8 1.315 . S
Cd1 O0 2.223 . S
Cd1 O4 2.297 . S
Cd1 O5 2.439 . S
Cd1 O11 2.240 . S
Cd2 O3 2.240 . S
Cd2 O10 2.223 . S
Cd2 O12 2.297 . S
Cd2 O13 2.439 . S
O3 Cd2 2.240 . S
O3 C8 1.279 . S
O4 Cd1 2.297 . S
O4 C6 1.247 . S
O5 Cd1 2.439 . S
O5 C6 1.208 . S
C6 O4 1.247 . S
C6 O5 1.208 . S
C7 O12 1.247 . S
C7 O13 1.208 . S
C8 O0 1.315 . S
C8 O3 1.279 . S
C9 O10 1.315 . S
C9 O11 1.279 . S
O10 Cd2 2.223 . S
O10 C9 1.315 . S
O11 Cd1 2.240 . S
O11 C9 1.279 . S
O12 Cd2 2.297 . S
O12 C7 1.247 . S
O13 Cd2 2.439 . S
O13 C7 1.208 . S
O14 Cd15 2.223 . S
O14 C22 1.315 . S
Cd15 O14 2.223 . S
Cd15 O18 2.297 . S
Cd15 O19 2.439 . S
Cd15 O25 2.240 . S
Cd16 O17 2.240 . S
Cd16 O24 2.223 . S
Cd16 O26 2.297 . S
Cd16 O27 2.439 . S
O17 Cd16 2.240 . S
O17 C22 1.279 . S
O18 Cd15 2.297 . S
O18 C20 1.247 . S
O19 Cd15 2.439 . S
O19 C20 1.208 . S
C20 O18 1.247 . S
C20 O19 1.208 . S
C21 O26 1.247 . S
C21 O27 1.208 . S
C22 O14 1.315 . S
C22 O17 1.279 . S
C23 O24 1.315 . S
C23 O25 1.279 . S
O24 Cd16 2.223 . S
O24 C23 1.315 . S
O25 Cd15 2.240 . S
O25 C23 1.279 . S
O26 Cd16 2.297 . S
O26 C21 1.247 . S
O27 Cd16 2.439 . S
O27 C21 1.208 . S
O28 Cd29 2.223 . S
O28 C36 1.315 . S
Cd29 O28 2.223 . S
Cd29 O32 2.297 . S
Cd29 O33 2.439 . S
Cd29 O39 2.240 . S
Cd30 O31 2.240 . S
Cd30 O38 2.223 . S
Cd30 O40 2.297 . S
Cd30 O41 2.439 . S
O31 Cd30 2.240 . S
O31 C36 1.279 . S
O32 Cd29 2.297 . S
O32 C34 1.247 . S
O33 Cd29 2.439 . S
O33 C34 1.208 . S
C34 O32 1.247 . S
C34 O33 1.208 . S
C35 O40 1.247 . S
C35 O41 1.208 . S
C36 O28 1.315 . S
C36 O31 1.279 . S
C37 O38 1.315 . S
C37 O39 1.279 . S
O38 Cd30 2.223 . S
O38 C37 1.315 . S
O39 Cd29 2.240 . S
O39 C37 1.279 . S
O40 Cd30 2.297 . S
O40 C35 1.247 . S
O41 Cd30 2.439 . S
O41 C35 1.208 . S
O42 Cd43 2.223 . S
O42 C50 1.315 . S
Cd43 O42 2.223 . S
Cd43 O46 2.297 . S
Cd43 O47 2.439 . S
Cd43 O53 2.240 . S
Cd44 O45 2.240 . S
Cd44 O52 2.223 . S
Cd44 O54 2.297 . S
Cd44 O55 2.439 . S
O45 Cd44 2.240 . S
O45 C50 1.279 . S
O46 Cd43 2.297 . S
O46 C48 1.247 . S
O47 Cd43 2.439 . S
O47 C48 1.208 . S
C48 O46 1.247 . S
C48 O47 1.208 . S
C49 O54 1.247 . S
C49 O55 1.208 . S
C50 O42 1.315 . S
C50 O45 1.279 . S
C51 O52 1.315 . S
C51 O53 1.279 . S
O52 Cd44 2.223 . S
O52 C51 1.315 . S
O53 Cd43 2.240 . S
O53 C51 1.279 . S
O54 Cd44 2.297 . S
O54 C49 1.247 . S
O55 Cd44 2.439 . S
O55 C49 1.208 . S
O56 Cd57 2.223 . S
O56 C64 1.315 . S
Cd57 O56 2.223 . S
Cd57 O60 2.297 . S
Cd57 O61 2.439 . S
Cd57 O67 2.240 . S
Cd58 O59 2.240 . S
Cd58 O66 2.223 . S
Cd58 O68 2.297 . S
Cd58 O69 2.439 . S
O59 Cd58 2.240 . S
O59 C64 1.279 . S
O60 Cd57 2.297 . S
O60 C62 1.247 . S
O61 Cd57 2.439 . S
O61 C62 1.208 . S
C62 O60 1.247 . S
C62 O61 1.208 . S
C63 O68 1.247 . S
C63 O69 1.208 . S
C64 O56 1.315 . S
C64 O59 1.279 . S
C65 O66 1.315 . S
C65 O67 1.279 . S
O66 Cd58 2.223 . S
O66 C65 1.315 . S
O67 Cd57 2.240 . S
O67 C65 1.279 . S
O68 Cd58 2.297 . S
O68 C63 1.247 . S
O69 Cd58 2.439 . S
O69 C63 1.208 . S
O70 Cd71 2.223 . S
O70 C78 1.315 . S
Cd71 O70 2.223 . S
Cd71 O74 2.297 . S
Cd71 O75 2.439 . S
Cd71 O81 2.240 . S
Cd72 O73 2.240 . S
Cd72 O80 2.223 . S
Cd72 O82 2.297 . S
Cd72 O83 2.439 . S
O73 Cd72 2.240 . S
O73 C78 1.279 . S
O74 Cd71 2.297 . S
O74 C76 1.247 . S
O75 Cd71 2.439 . S
O75 C76 1.208 . S
C76 O74 1.247 . S
C76 O75 1.208 . S
C77 O82 1.247 . S
C77 O83 1.208 . S
C78 O70 1.315 . S
C78 O73 1.279 . S
C79 O80 1.315 . S
C79 O81 1.279 . S
O80 Cd72 2.223 . S
O80 C79 1.315 . S
O81 Cd71 2.240 . S
O81 C79 1.279 . S
O82 Cd72 2.297 . S
O82 C77 1.247 . S
O83 Cd72 2.439 . S
O83 C77 1.208 . S
O84 Cd85 2.223 . S
O84 C92 1.315 . S
Cd85 O84 2.223 . S
Cd85 O88 2.297 . S
Cd85 O89 2.439 . S
Cd85 O95 2.240 . S
Cd86 O87 2.240 . S
Cd86 O94 2.223 . S
Cd86 O96 2.297 . S
Cd86 O97 2.439 . S
O87 Cd86 2.240 . S
O87 C92 1.279 . S
O88 Cd85 2.297 . S
O88 C90 1.247 . S
O89 Cd85 2.439 . S
O89 C90 1.208 . S
C90 O88 1.247 . S
C90 O89 1.208 . S
C91 O96 1.247 . S
C91 O97 1.208 . S
C92 O84 1.315 . S
C92 O87 1.279 . S
C93 O94 1.315 . S
C93 O95 1.279 . S
O94 Cd86 2.223 . S
O94 C93 1.315 . S
O95 Cd85 2.240 . S
O95 C93 1.279 . S
O96 Cd86 2.297 . S
O96 C91 1.247 . S
O97 Cd86 2.439 . S
O97 C91 1.208 . S
O98 Cd99 2.223 . S
O98 C106 1.315 . S
Cd99 O98 2.223 . S
Cd99 O102 2.297 . S
Cd99 O103 2.439 . S
Cd99 O109 2.240 . S
Cd100 O101 2.240 . S
Cd100 O108 2.223 . S
Cd100 O110 2.297 . S
Cd100 O111 2.439 . S
O101 Cd100 2.240 . S
O101 C106 1.279 . S
O102 Cd99 2.297 . S
O102 C104 1.247 . S
O103 Cd99 2.439 . S
O103 C104 1.208 . S
C104 O102 1.247 . S
C104 O103 1.208 . S
C105 O110 1.247 . S
C105 O111 1.208 . S
C106 O98 1.315 . S
C106 O101 1.279 . S
C107 O108 1.315 . S
C107 O109 1.279 . S
O108 Cd100 2.223 . S
O108 C107 1.315 . S
O109 Cd99 2.240 . S
O109 C107 1.279 . S
O110 Cd100 2.297 . S
O110 C105 1.247 . S
O111 Cd100 2.439 . S
O111 C105 1.208 . S
O112 Cd113 2.223 . S
O112 C120 1.315 . S
Cd113 O112 2.223 . S
Cd113 O116 2.297 . S
Cd113 O117 2.439 . S
Cd113 O123 2.240 . S
Cd114 O115 2.240 . S
Cd114 O122 2.223 . S
Cd114 O124 2.297 . S
Cd114 O125 2.439 . S
O115 Cd114 2.240 . S
O115 C120 1.279 . S
O116 Cd113 2.297 . S
O116 C118 1.247 . S
O117 Cd113 2.439 . S
O117 C118 1.208 . S
C118 O116 1.247 . S
C118 O117 1.208 . S
C119 O124 1.247 . S
C119 O125 1.208 . S
C120 O112 1.315 . S
C120 O115 1.279 . S
C121 O122 1.315 . S
C121 O123 1.279 . S
O122 Cd114 2.223 . S
O122 C121 1.315 . S
O123 Cd113 2.240 . S
O123 C121 1.279 . S
O124 Cd114 2.297 . S
O124 C119 1.247 . S
O125 Cd114 2.439 . S
O125 C119 1.208 . S
O126 Cd127 2.223 . S
O126 C134 1.315 . S
Cd127 O126 2.223 . S
Cd127 O130 2.297 . S
Cd127 O131 2.439 . S
Cd127 O137 2.240 . S
Cd128 O129 2.240 . S
Cd128 O136 2.223 . S
Cd128 O138 2.297 . S
Cd128 O139 2.439 . S
O129 Cd128 2.240 . S
O129 C134 1.279 . S
O130 Cd127 2.297 . S
O130 C132 1.247 . S
O131 Cd127 2.439 . S
O131 C132 1.208 . S
C132 O130 1.247 . S
C132 O131 1.208 . S
C133 O138 1.247 . S
C133 O139 1.208 . S
C134 O126 1.315 . S
C134 O129 1.279 . S
C135 O136 1.315 . S
C135 O137 1.279 . S
O136 Cd128 2.223 . S
O136 C135 1.315 . S
O137 Cd127 2.240 . S
O137 C135 1.279 . S
O138 Cd128 2.297 . S
O138 C133 1.247 . S
O139 Cd128 2.439 . S
O139 C133 1.208 . S
O140 Cd141 2.223 . S
O140 C148 1.315 . S
Cd141 O140 2.223 . S
Cd141 O144 2.297 . S
Cd141 O145 2.439 . S
Cd141 O151 2.240 . S
Cd142 O143 2.240 . S
Cd142 O150 2.223 . S
Cd142 O152 2.297 . S
Cd142 O153 2.439 . S
O143 Cd142 2.240 . S
O143 C148 1.279 . S
O144 Cd141 2.297 . S
O144 C146 1.247 . S
O145 Cd141 2.439 . S
O145 C146 1.208 . S
C146 O144 1.247 . S
C146 O145 1.208 . S
C147 O152 1.247 . S
C147 O153 1.208 . S
C148 O140 1.315 . S
C148 O143 1.279 . S
C149 O150 1.315 . S
C149 O151 1.279 . S
O150 Cd142 2.223 . S
O150 C149 1.315 . S
O151 Cd141 2.240 . S
O151 C149 1.279 . S
O152 Cd142 2.297 . S
O152 C147 1.247 . S
O153 Cd142 2.439 . S
O153 C147 1.208 . S
O154 Cd155 2.223 . S
O154 C162 1.315 . S
Cd155 O154 2.223 . S
Cd155 O158 2.297 . S
Cd155 O159 2.439 . S
Cd155 O165 2.240 . S
Cd156 O157 2.240 . S
Cd156 O164 2.223 . S
Cd156 O166 2.297 . S
Cd156 O167 2.439 . S
O157 Cd156 2.240 . S
O157 C162 1.279 . S
O158 Cd155 2.297 . S
O158 C160 1.247 . S
O159 Cd155 2.439 . S
O159 C160 1.208 . S
C160 O158 1.247 . S
C160 O159 1.208 . S
C161 O166 1.247 . S
C161 O167 1.208 . S
C162 O154 1.315 . S
C162 O157 1.279 . S
C163 O164 1.315 . S
C163 O165 1.279 . S
O164 Cd156 2.223 . S
O164 C163 1.315 . S
O165 Cd155 2.240 . S
O165 C163 1.279 . S
O166 Cd156 2.297 . S
O166 C161 1.247 . S
O167 Cd156 2.439 . S
O167 C161 1.208 . S
H168 C186 0.951 . S
H169 C188 0.951 . S
H170 C190 0.950 . S
H171 C191 0.950 . S
H172 C193 0.950 . S
H173 C196 0.950 . S
H174 C197 0.950 . S
H175 C199 0.950 . S
H176 C200 0.950 . S
H177 C201 0.951 . S
H178 C203 0.951 . S
H179 C205 0.950 . S
H180 C206 0.950 . S
H181 C208 0.950 . S
H182 C211 0.950 . S
H183 C212 0.950 . S
H184 C214 0.950 . S
H185 C215 0.950 . S
C186 H168 0.951 . S
C186 C187 1.366 . S
C186 C188 1.388 . S
C187 C186 1.366 . S
C187 C191 1.385 . S
C188 H169 0.951 . S
C188 C186 1.388 . S
C188 C189 1.366 . S
C189 C188 1.366 . S
C189 C190 1.414 . S
C189 C192 1.499 . S
C190 H170 0.950 . S
C190 C189 1.414 . S
C190 C191 1.374 . S
C191 H171 0.950 . S
C191 C187 1.385 . S
C191 C190 1.374 . S
C192 C189 1.499 . S
C192 C193 1.373 . S
C192 C194 1.389 . S
C193 H172 0.950 . S
C193 C192 1.373 . S
C193 C209 1.377 . S
C194 C192 1.389 . S
C194 C195 1.524 . S
C194 C208 1.377 . S
C195 C194 1.524 . S
C195 C196 1.397 . S
C195 C200 1.363 . S
C196 H173 0.950 . S
C196 C195 1.397 . S
C196 C197 1.334 . S
C197 H174 0.950 . S
C197 C196 1.334 . S
C197 C198 1.287 . S
C198 C197 1.287 . S
C198 C199 1.524 . S
C198 H217 0.913 . S
C199 H175 0.950 . S
C199 C198 1.524 . S
C199 C200 1.415 . S
C200 H176 0.950 . S
C200 C195 1.363 . S
C200 C199 1.415 . S
C201 H177 0.951 . S
C201 C202 1.366 . S
C201 C203 1.388 . S
C202 C201 1.366 . S
C202 C206 1.385 . S
C203 H178 0.951 . S
C203 C201 1.388 . S
C203 C204 1.366 . S
C204 C203 1.366 . S
C204 C205 1.414 . S
C204 C207 1.499 . S
C205 H179 0.950 . S
C205 C204 1.414 . S
C205 C206 1.374 . S
C206 H180 0.950 . S
C206 C202 1.385 . S
C206 C205 1.374 . S
C207 C204 1.499 . S
C207 C208 1.373 . S
C207 C209 1.389 . S
C208 H181 0.950 . S
C208 C194 1.377 . S
C208 C207 1.373 . S
C209 C193 1.377 . S
C209 C207 1.389 . S
C209 C210 1.524 . S
C210 C209 1.524 . S
C210 C211 1.397 . S
C210 C215 1.363 . S
C211 H182 0.950 . S
C211 C210 1.397 . S
C211 C212 1.334 . S
C212 H183 0.950 . S
C212 C211 1.334 . S
C212 C213 1.287 . S
C213 C212 1.287 . S
C213 C214 1.524 . S
C213 H216 0.999 . S
C214 H184 0.950 . S
C214 C213 1.524 . S
C214 C215 1.415 . S
C215 H185 0.950 . S
C215 C210 1.363 . S
C215 C214 1.415 . S
H216 C213 0.999 . S
H217 C198 0.913 . S
H218 C236 0.951 . S
H219 C238 0.951 . S
H220 C240 0.950 . S
H221 C241 0.950 . S
H222 C243 0.950 . S
H223 C246 0.950 . S
H224 C247 0.950 . S
H225 C249 0.950 . S
H226 C250 0.950 . S
H227 C251 0.951 . S
H228 C253 0.951 . S
H229 C255 0.950 . S
H230 C256 0.950 . S
H231 C258 0.950 . S
H232 C261 0.950 . S
H233 C262 0.950 . S
H234 C264 0.950 . S
H235 C265 0.950 . S
C236 H218 0.951 . S
C236 C237 1.366 . S
C236 C238 1.388 . S
C237 C236 1.366 . S
C237 C241 1.385 . S
C238 H219 0.951 . S
C238 C236 1.388 . S
C238 C239 1.366 . S
C239 C238 1.366 . S
C239 C240 1.414 . S
C239 C242 1.499 . S
C240 H220 0.950 . S
C240 C239 1.414 . S
C240 C241 1.374 . S
C241 H221 0.950 . S
C241 C237 1.385 . S
C241 C240 1.374 . S
C242 C239 1.499 . S
C242 C243 1.373 . S
C242 C244 1.389 . S
C243 H222 0.950 . S
C243 C242 1.373 . S
C243 C259 1.377 . S
C244 C242 1.389 . S
C244 C245 1.524 . S
C244 C258 1.377 . S
C245 C244 1.524 . S
C245 C246 1.397 . S
C245 C250 1.363 . S
C246 H223 0.950 . S
C246 C245 1.397 . S
C246 C247 1.334 . S
C247 H224 0.950 . S
C247 C246 1.334 . S
C247 C248 1.287 . S
C248 C247 1.287 . S
C248 C249 1.524 . S
C248 H267 0.913 . S
C249 H225 0.950 . S
C249 C248 1.524 . S
C249 C250 1.415 . S
C250 H226 0.950 . S
C250 C245 1.363 . S
C250 C249 1.415 . S
C251 H227 0.951 . S
C251 C252 1.366 . S
C251 C253 1.388 . S
C252 C251 1.366 . S
C252 C256 1.385 . S
C253 H228 0.951 . S
C253 C251 1.388 . S
C253 C254 1.366 . S
C254 C253 1.366 . S
C254 C255 1.414 . S
C254 C257 1.499 . S
C255 H229 0.950 . S
C255 C254 1.414 . S
C255 C256 1.374 . S
C256 H230 0.950 . S
C256 C252 1.385 . S
C256 C255 1.374 . S
C257 C254 1.499 . S
C257 C258 1.373 . S
C257 C259 1.389 . S
C258 H231 0.950 . S
C258 C244 1.377 . S
C258 C257 1.373 . S
C259 C243 1.377 . S
C259 C257 1.389 . S
C259 C260 1.524 . S
C260 C259 1.524 . S
C260 C261 1.397 . S
C260 C265 1.363 . S
C261 H232 0.950 . S
C261 C260 1.397 . S
C261 C262 1.334 . S
C262 H233 0.950 . S
C262 C261 1.334 . S
C262 C263 1.287 . S
C263 C262 1.287 . S
C263 C264 1.524 . S
C263 H266 0.999 . S
C264 H234 0.950 . S
C264 C263 1.524 . S
C264 C265 1.415 . S
C265 H235 0.950 . S
C265 C260 1.363 . S
C265 C264 1.415 . S
H266 C263 0.999 . S
H267 C248 0.913 . S
H268 C286 0.951 . S
H269 C288 0.951 . S
H270 C290 0.950 . S
H271 C291 0.950 . S
H272 C293 0.950 . S
H273 C296 0.950 . S
H274 C297 0.950 . S
H275 C299 0.950 . S
H276 C300 0.950 . S
H277 C301 0.951 . S
H278 C303 0.951 . S
H279 C305 0.950 . S
H280 C306 0.950 . S
H281 C308 0.950 . S
H282 C311 0.950 . S
H283 C312 0.950 . S
H284 C314 0.950 . S
H285 C315 0.950 . S
C286 H268 0.951 . S
C286 C287 1.366 . S
C286 C288 1.388 . S
C287 C286 1.366 . S
C287 C291 1.385 . S
C288 H269 0.951 . S
C288 C286 1.388 . S
C288 C289 1.366 . S
C289 C288 1.366 . S
C289 C290 1.414 . S
C289 C292 1.499 . S
C290 H270 0.950 . S
C290 C289 1.414 . S
C290 C291 1.374 . S
C291 H271 0.950 . S
C291 C287 1.385 . S
C291 C290 1.374 . S
C292 C289 1.499 . S
C292 C293 1.373 . S
C292 C294 1.389 . S
C293 H272 0.950 . S
C293 C292 1.373 . S
C293 C309 1.377 . S
C294 C292 1.389 . S
C294 C295 1.524 . S
C294 C308 1.377 . S
C295 C294 1.524 . S
C295 C296 1.397 . S
C295 C300 1.363 . S
C296 H273 0.950 . S
C296 C295 1.397 . S
C296 C297 1.334 . S
C297 H274 0.950 . S
C297 C296 1.334 . S
C297 C298 1.287 . S
C298 C297 1.287 . S
C298 C299 1.524 . S
C298 H317 0.913 . S
C299 H275 0.950 . S
C299 C298 1.524 . S
C299 C300 1.415 . S
C300 H276 0.950 . S
C300 C295 1.363 . S
C300 C299 1.415 . S
C301 H277 0.951 . S
C301 C302 1.366 . S
C301 C303 1.388 . S
C302 C301 1.366 . S
C302 C306 1.385 . S
C303 H278 0.951 . S
C303 C301 1.388 . S
C303 C304 1.366 . S
C304 C303 1.366 . S
C304 C305 1.414 . S
C304 C307 1.499 . S
C305 H279 0.950 . S
C305 C304 1.414 . S
C305 C306 1.374 . S
C306 H280 0.950 . S
C306 C302 1.385 . S
C306 C305 1.374 . S
C307 C304 1.499 . S
C307 C308 1.373 . S
C307 C309 1.389 . S
C308 H281 0.950 . S
C308 C294 1.377 . S
C308 C307 1.373 . S
C309 C293 1.377 . S
C309 C307 1.389 . S
C309 C310 1.524 . S
C310 C309 1.524 . S
C310 C311 1.397 . S
C310 C315 1.363 . S
C311 H282 0.950 . S
C311 C310 1.397 . S
C311 C312 1.334 . S
C312 H283 0.950 . S
C312 C311 1.334 . S
C312 C313 1.287 . S
C313 C312 1.287 . S
C313 C314 1.524 . S
C313 H316 0.999 . S
C314 H284 0.950 . S
C314 C313 1.524 . S
C314 C315 1.415 . S
C315 H285 0.950 . S
C315 C310 1.363 . S
C315 C314 1.415 . S
H316 C313 0.999 . S
H317 C298 0.913 . S
H318 C336 0.951 . S
H319 C338 0.951 . S
H320 C340 0.950 . S
H321 C341 0.950 . S
H322 C343 0.950 . S
H323 C346 0.950 . S
H324 C347 0.950 . S
H325 C349 0.950 . S
H326 C350 0.950 . S
H327 C351 0.951 . S
H328 C353 0.951 . S
H329 C355 0.950 . S
H330 C356 0.950 . S
H331 C358 0.950 . S
H332 C361 0.950 . S
H333 C362 0.950 . S
H334 C364 0.950 . S
H335 C365 0.950 . S
C336 H318 0.951 . S
C336 C337 1.366 . S
C336 C338 1.388 . S
C337 C336 1.366 . S
C337 C341 1.385 . S
C338 H319 0.951 . S
C338 C336 1.388 . S
C338 C339 1.366 . S
C339 C338 1.366 . S
C339 C340 1.414 . S
C339 C342 1.499 . S
C340 H320 0.950 . S
C340 C339 1.414 . S
C340 C341 1.374 . S
C341 H321 0.950 . S
C341 C337 1.385 . S
C341 C340 1.374 . S
C342 C339 1.499 . S
C342 C343 1.373 . S
C342 C344 1.389 . S
C343 H322 0.950 . S
C343 C342 1.373 . S
C343 C359 1.377 . S
C344 C342 1.389 . S
C344 C345 1.524 . S
C344 C358 1.377 . S
C345 C344 1.524 . S
C345 C346 1.397 . S
C345 C350 1.363 . S
C346 H323 0.950 . S
C346 C345 1.397 . S
C346 C347 1.334 . S
C347 H324 0.950 . S
C347 C346 1.334 . S
C347 C348 1.287 . S
C348 C347 1.287 . S
C348 C349 1.524 . S
C348 H367 0.913 . S
C349 H325 0.950 . S
C349 C348 1.524 . S
C349 C350 1.415 . S
C350 H326 0.950 . S
C350 C345 1.363 . S
C350 C349 1.415 . S
C351 H327 0.951 . S
C351 C352 1.366 . S
C351 C353 1.388 . S
C352 C351 1.366 . S
C352 C356 1.385 . S
C353 H328 0.951 . S
C353 C351 1.388 . S
C353 C354 1.366 . S
C354 C353 1.366 . S
C354 C355 1.414 . S
C354 C357 1.499 . S
C355 H329 0.950 . S
C355 C354 1.414 . S
C355 C356 1.374 . S
C356 H330 0.950 . S
C356 C352 1.385 . S
C356 C355 1.374 . S
C357 C354 1.499 . S
C357 C358 1.373 . S
C357 C359 1.389 . S
C358 H331 0.950 . S
C358 C344 1.377 . S
C358 C357 1.373 . S
C359 C343 1.377 . S
C359 C357 1.389 . S
C359 C360 1.524 . S
C360 C359 1.524 . S
C360 C361 1.397 . S
C360 C365 1.363 . S
C361 H332 0.950 . S
C361 C360 1.397 . S
C361 C362 1.334 . S
C362 H333 0.950 . S
C362 C361 1.334 . S
C362 C363 1.287 . S
C363 C362 1.287 . S
C363 C364 1.524 . S
C363 H366 0.999 . S
C364 H334 0.950 . S
C364 C363 1.524 . S
C364 C365 1.415 . S
C365 H335 0.950 . S
C365 C360 1.363 . S
C365 C364 1.415 . S
H366 C363 0.999 . S
H367 C348 0.913 . S
H368 C386 0.951 . S
H369 C388 0.951 . S
H370 C390 0.950 . S
H371 C391 0.950 . S
H372 C393 0.950 . S
H373 C396 0.950 . S
H374 C397 0.950 . S
H375 C399 0.950 . S
H376 C400 0.950 . S
H377 C401 0.951 . S
H378 C403 0.951 . S
H379 C405 0.950 . S
H380 C406 0.950 . S
H381 C408 0.950 . S
H382 C411 0.950 . S
H383 C412 0.950 . S
H384 C414 0.950 . S
H385 C415 0.950 . S
C386 H368 0.951 . S
C386 C387 1.366 . S
C386 C388 1.388 . S
C387 C386 1.366 . S
C387 C391 1.385 . S
C388 H369 0.951 . S
C388 C386 1.388 . S
C388 C389 1.366 . S
C389 C388 1.366 . S
C389 C390 1.414 . S
C389 C392 1.499 . S
C390 H370 0.950 . S
C390 C389 1.414 . S
C390 C391 1.374 . S
C391 H371 0.950 . S
C391 C387 1.385 . S
C391 C390 1.374 . S
C392 C389 1.499 . S
C392 C393 1.373 . S
C392 C394 1.389 . S
C393 H372 0.950 . S
C393 C392 1.373 . S
C393 C409 1.377 . S
C394 C392 1.389 . S
C394 C395 1.524 . S
C394 C408 1.377 . S
C395 C394 1.524 . S
C395 C396 1.397 . S
C395 C400 1.363 . S
C396 H373 0.950 . S
C396 C395 1.397 . S
C396 C397 1.334 . S
C397 H374 0.950 . S
C397 C396 1.334 . S
C397 C398 1.287 . S
C398 C397 1.287 . S
C398 C399 1.524 . S
C398 H417 0.913 . S
C399 H375 0.950 . S
C399 C398 1.524 . S
C399 C400 1.415 . S
C400 H376 0.950 . S
C400 C395 1.363 . S
C400 C399 1.415 . S
C401 H377 0.951 . S
C401 C402 1.366 . S
C401 C403 1.388 . S
C402 C401 1.366 . S
C402 C406 1.385 . S
C403 H378 0.951 . S
C403 C401 1.388 . S
C403 C404 1.366 . S
C404 C403 1.366 . S
C404 C405 1.414 . S
C404 C407 1.499 . S
C405 H379 0.950 . S
C405 C404 1.414 . S
C405 C406 1.374 . S
C406 H380 0.950 . S
C406 C402 1.385 . S
C406 C405 1.374 . S
C407 C404 1.499 . S
C407 C408 1.373 . S
C407 C409 1.389 . S
C408 H381 0.950 . S
C408 C394 1.377 . S
C408 C407 1.373 . S
C409 C393 1.377 . S
C409 C407 1.389 . S
C409 C410 1.524 . S
C410 C409 1.524 . S
C410 C411 1.397 . S
C410 C415 1.363 . S
C411 H382 0.950 . S
C411 C410 1.397 . S
C411 C412 1.334 . S
C412 H383 0.950 . S
C412 C411 1.334 . S
C412 C413 1.287 . S
C413 C412 1.287 . S
C413 C414 1.524 . S
C413 H416 0.999 . S
C414 H384 0.950 . S
C414 C413 1.524 . S
C414 C415 1.415 . S
C415 H385 0.950 . S
C415 C410 1.363 . S
C415 C414 1.415 . S
H416 C413 0.999 . S
H417 C398 0.913 . S
H418 C436 0.951 . S
H419 C438 0.951 . S
H420 C440 0.950 . S
H421 C441 0.950 . S
H422 C443 0.950 . S
H423 C446 0.950 . S
H424 C447 0.950 . S
H425 C449 0.950 . S
H426 C450 0.950 . S
H427 C451 0.951 . S
H428 C453 0.951 . S
H429 C455 0.950 . S
H430 C456 0.950 . S
H431 C458 0.950 . S
H432 C461 0.950 . S
H433 C462 0.950 . S
H434 C464 0.950 . S
H435 C465 0.950 . S
C436 H418 0.951 . S
C436 C437 1.366 . S
C436 C438 1.388 . S
C437 C436 1.366 . S
C437 C441 1.385 . S
C438 H419 0.951 . S
C438 C436 1.388 . S
C438 C439 1.366 . S
C439 C438 1.366 . S
C439 C440 1.414 . S
C439 C442 1.499 . S
C440 H420 0.950 . S
C440 C439 1.414 . S
C440 C441 1.374 . S
C441 H421 0.950 . S
C441 C437 1.385 . S
C441 C440 1.374 . S
C442 C439 1.499 . S
C442 C443 1.373 . S
C442 C444 1.389 . S
C443 H422 0.950 . S
C443 C442 1.373 . S
C443 C459 1.377 . S
C444 C442 1.389 . S
C444 C445 1.524 . S
C444 C458 1.377 . S
C445 C444 1.524 . S
C445 C446 1.397 . S
C445 C450 1.363 . S
C446 H423 0.950 . S
C446 C445 1.397 . S
C446 C447 1.334 . S
C447 H424 0.950 . S
C447 C446 1.334 . S
C447 C448 1.287 . S
C448 C447 1.287 . S
C448 C449 1.524 . S
C448 H467 0.913 . S
C449 H425 0.950 . S
C449 C448 1.524 . S
C449 C450 1.415 . S
C450 H426 0.950 . S
C450 C445 1.363 . S
C450 C449 1.415 . S
C451 H427 0.951 . S
C451 C452 1.366 . S
C451 C453 1.388 . S
C452 C451 1.366 . S
C452 C456 1.385 . S
C453 H428 0.951 . S
C453 C451 1.388 . S
C453 C454 1.366 . S
C454 C453 1.366 . S
C454 C455 1.414 . S
C454 C457 1.499 . S
C455 H429 0.950 . S
C455 C454 1.414 . S
C455 C456 1.374 . S
C456 H430 0.950 . S
C456 C452 1.385 . S
C456 C455 1.374 . S
C457 C454 1.499 . S
C457 C458 1.373 . S
C457 C459 1.389 . S
C458 H431 0.950 . S
C458 C444 1.377 . S
C458 C457 1.373 . S
C459 C443 1.377 . S
C459 C457 1.389 . S
C459 C460 1.524 . S
C460 C459 1.524 . S
C460 C461 1.397 . S
C460 C465 1.363 . S
C461 H432 0.950 . S
C461 C460 1.397 . S
C461 C462 1.334 . S
C462 H433 0.950 . S
C462 C461 1.334 . S
C462 C463 1.287 . S
C463 C462 1.287 . S
C463 C464 1.524 . S
C463 H466 0.999 . S
C464 H434 0.950 . S
C464 C463 1.524 . S
C464 C465 1.415 . S
C465 H435 0.950 . S
C465 C460 1.363 . S
C465 C464 1.415 . S
H466 C463 0.999 . S
H467 C448 0.913 . S
H468 C486 0.951 . S
H469 C488 0.951 . S
H470 C490 0.950 . S
H471 C491 0.950 . S
H472 C493 0.950 . S
H473 C496 0.950 . S
H474 C497 0.950 . S
H475 C499 0.950 . S
H476 C500 0.950 . S
H477 C501 0.951 . S
H478 C503 0.951 . S
H479 C505 0.950 . S
H480 C506 0.950 . S
H481 C508 0.950 . S
H482 C511 0.950 . S
H483 C512 0.950 . S
H484 C514 0.950 . S
H485 C515 0.950 . S
C486 H468 0.951 . S
C486 C487 1.366 . S
C486 C488 1.388 . S
C487 C486 1.366 . S
C487 C491 1.385 . S
C488 H469 0.951 . S
C488 C486 1.388 . S
C488 C489 1.366 . S
C489 C488 1.366 . S
C489 C490 1.414 . S
C489 C492 1.499 . S
C490 H470 0.950 . S
C490 C489 1.414 . S
C490 C491 1.374 . S
C491 H471 0.950 . S
C491 C487 1.385 . S
C491 C490 1.374 . S
C492 C489 1.499 . S
C492 C493 1.373 . S
C492 C494 1.389 . S
C493 H472 0.950 . S
C493 C492 1.373 . S
C493 C509 1.377 1_554 S
C494 C492 1.389 . S
C494 C495 1.524 . S
C494 C508 1.377 1_544 S
C495 C494 1.524 . S
C495 C496 1.397 . S
C495 C500 1.363 1_545 S
C496 H473 0.950 . S
C496 C495 1.397 . S
C496 C497 1.334 . S
C497 H474 0.950 . S
C497 C496 1.334 . S
C497 C498 1.287 . S
C498 C497 1.287 . S
C498 C499 1.524 1_545 S
C498 H517 0.913 . S
C499 H475 0.950 . S
C499 C498 1.524 1_565 S
C499 C500 1.415 . S
C500 H476 0.950 . S
C500 C495 1.363 1_565 S
C500 C499 1.415 . S
C501 H477 0.951 . S
C501 C502 1.366 . S
C501 C503 1.388 . S
C502 C501 1.366 . S
C502 C506 1.385 . S
C503 H478 0.951 . S
C503 C501 1.388 . S
C503 C504 1.366 . S
C504 C503 1.366 . S
C504 C505 1.414 . S
C504 C507 1.499 . S
C505 H479 0.950 . S
C505 C504 1.414 . S
C505 C506 1.374 . S
C506 H480 0.950 . S
C506 C502 1.385 . S
C506 C505 1.374 . S
C507 C504 1.499 . S
C507 C508 1.373 . S
C507 C509 1.389 1_565 S
C508 H481 0.950 . S
C508 C494 1.377 1_566 S
C508 C507 1.373 . S
C509 C493 1.377 1_556 S
C509 C507 1.389 1_545 S
C509 C510 1.524 . S
C510 C509 1.524 . S
C510 C511 1.397 1_545 S
C510 C515 1.363 . S
C511 H482 0.950 . S
C511 C510 1.397 1_565 S
C511 C512 1.334 . S
C512 H483 0.950 . S
C512 C511 1.334 . S
C512 C513 1.287 . S
C513 C512 1.287 . S
C513 C514 1.524 1_565 S
C513 H516 0.999 . S
C514 H484 0.950 . S
C514 C513 1.524 1_545 S
C514 C515 1.415 . S
C515 H485 0.950 . S
C515 C510 1.363 . S
C515 C514 1.415 . S
H516 C513 0.999 . S
H517 C498 0.913 . S
H518 C536 0.951 . S
H519 C538 0.951 . S
H520 C540 0.950 . S
H521 C541 0.950 . S
H522 C543 0.950 . S
H523 C546 0.950 . S
H524 C547 0.950 . S
H525 C549 0.950 . S
H526 C550 0.950 . S
H527 C551 0.951 . S
H528 C553 0.951 . S
H529 C555 0.950 . S
H530 C556 0.950 . S
H531 C558 0.950 . S
H532 C561 0.950 . S
H533 C562 0.950 . S
H534 C564 0.950 . S
H535 C565 0.950 . S
C536 H518 0.951 . S
C536 C537 1.366 . S
C536 C538 1.388 . S
C537 C536 1.366 . S
C537 C541 1.385 . S
C538 H519 0.951 . S
C538 C536 1.388 . S
C538 C539 1.366 . S
C539 C538 1.366 . S
C539 C540 1.414 . S
C539 C542 1.499 . S
C540 H520 0.950 . S
C540 C539 1.414 . S
C540 C541 1.374 . S
C541 H521 0.950 . S
C541 C537 1.385 . S
C541 C540 1.374 . S
C542 C539 1.499 . S
C542 C543 1.373 . S
C542 C544 1.389 . S
C543 H522 0.950 . S
C543 C542 1.373 . S
C543 C559 1.377 . S
C544 C542 1.389 . S
C544 C545 1.524 . S
C544 C558 1.377 . S
C545 C544 1.524 . S
C545 C546 1.397 . S
C545 C550 1.363 . S
C546 H523 0.950 . S
C546 C545 1.397 . S
C546 C547 1.334 . S
C547 H524 0.950 . S
C547 C546 1.334 . S
C547 C548 1.287 . S
C548 C547 1.287 . S
C548 C549 1.524 . S
C548 H567 0.913 . S
C549 H525 0.950 . S
C549 C548 1.524 . S
C549 C550 1.415 . S
C550 H526 0.950 . S
C550 C545 1.363 . S
C550 C549 1.415 . S
C551 H527 0.951 . S
C551 C552 1.366 . S
C551 C553 1.388 . S
C552 C551 1.366 . S
C552 C556 1.385 . S
C553 H528 0.951 . S
C553 C551 1.388 . S
C553 C554 1.366 . S
C554 C553 1.366 . S
C554 C555 1.414 . S
C554 C557 1.499 . S
C555 H529 0.950 . S
C555 C554 1.414 . S
C555 C556 1.374 . S
C556 H530 0.950 . S
C556 C552 1.385 . S
C556 C555 1.374 . S
C557 C554 1.499 . S
C557 C558 1.373 . S
C557 C559 1.389 . S
C558 H531 0.950 . S
C558 C544 1.377 . S
C558 C557 1.373 . S
C559 C543 1.377 . S
C559 C557 1.389 . S
C559 C560 1.524 . S
C560 C559 1.524 . S
C560 C561 1.397 . S
C560 C565 1.363 . S
C561 H532 0.950 . S
C561 C560 1.397 . S
C561 C562 1.334 . S
C562 H533 0.950 . S
C562 C561 1.334 . S
C562 C563 1.287 . S
C563 C562 1.287 . S
C563 C564 1.524 . S
C563 H566 0.999 . S
C564 H534 0.950 . S
C564 C563 1.524 . S
C564 C565 1.415 . S
C565 H535 0.950 . S
C565 C560 1.363 . S
C565 C564 1.415 . S
H566 C563 0.999 . S
H567 C548 0.913 . S
H568 C586 0.951 . S
H569 C588 0.951 . S
H570 C590 0.950 . S
H571 C591 0.950 . S
H572 C593 0.950 . S
H573 C596 0.950 . S
H574 C597 0.950 . S
H575 C599 0.950 1_554 S
H576 C600 0.950 . S
H577 C601 0.951 . S
H578 C603 0.951 . S
H579 C605 0.950 . S
H580 C606 0.950 . S
H581 C608 0.953 1_655 S
H582 C611 0.950 . S
H583 C612 0.950 . S
H584 C614 0.950 1_556 S
H585 C615 0.950 . S
C586 H568 0.951 . S
C586 C587 1.366 . S
C586 C588 1.388 . S
C587 C586 1.366 . S
C587 C591 1.385 . S
C588 H569 0.951 . S
C588 C586 1.388 . S
C588 C589 1.366 . S
C589 C588 1.366 . S
C589 C590 1.414 . S
C589 C592 1.499 . S
C590 H570 0.950 . S
C590 C589 1.414 . S
C590 C591 1.374 . S
C591 H571 0.950 . S
C591 C587 1.385 . S
C591 C590 1.374 . S
C592 C589 1.499 . S
C592 C593 1.373 . S
C592 C594 1.389 . S
C593 H572 0.950 . S
C593 C592 1.373 . S
C593 C609 1.377 1_456 S
C594 C592 1.389 . S
C594 C595 1.524 . S
C594 C608 1.381 1_556 S
C595 C594 1.524 . S
C595 C596 1.397 . S
C595 C600 1.363 1_556 S
C596 H573 0.950 . S
C596 C595 1.397 . S
C596 C597 1.334 . S
C597 H574 0.950 . S
C597 C596 1.334 . S
C597 C598 1.287 . S
C598 C597 1.287 . S
C598 C599 1.524 . S
C598 H617 0.913 . S
C599 H575 0.950 1_556 S
C599 C598 1.524 . S
C599 C600 1.415 1_556 S
C600 H576 0.950 . S
C600 C595 1.363 1_554 S
C600 C599 1.415 1_554 S
C601 H577 0.951 . S
C601 C602 1.366 . S
C601 C603 1.388 . S
C602 C601 1.366 . S
C602 C606 1.385 . S
C603 H578 0.951 . S
C603 C601 1.388 . S
C603 C604 1.366 . S
C604 C603 1.366 . S
C604 C605 1.414 . S
C604 C607 1.499 . S
C605 H579 0.950 . S
C605 C604 1.414 . S
C605 C606 1.374 . S
C606 H580 0.950 . S
C606 C602 1.385 . S
C606 C605 1.374 . S
C607 C604 1.499 . S
C607 C608 1.366 1_655 S
C607 C609 1.389 . S
C608 H581 0.953 1_455 S
C608 C594 1.381 1_554 S
C608 C607 1.366 1_455 S
C609 C593 1.377 1_654 S
C609 C607 1.389 . S
C609 C610 1.524 . S
C610 C609 1.524 . S
C610 C611 1.397 . S
C610 C615 1.363 1_554 S
C611 H582 0.950 . S
C611 C610 1.397 . S
C611 C612 1.334 . S
C612 H583 0.950 . S
C612 C611 1.334 . S
C612 C613 1.287 . S
C613 C612 1.287 . S
C613 C614 1.524 . S
C613 H616 0.999 . S
C614 H584 0.950 1_554 S
C614 C613 1.524 . S
C614 C615 1.415 1_554 S
C615 H585 0.950 . S
C615 C610 1.363 1_556 S
C615 C614 1.415 1_556 S
H616 C613 0.999 . S
H617 C598 0.913 . S
H618 C636 0.951 . S
H619 C638 0.951 . S
H620 C640 0.950 . S
H621 C641 0.950 . S
H622 C643 0.950 . S
H623 C646 0.950 . S
H624 C647 0.950 . S
H625 C649 0.950 . S
H626 C650 0.950 . S
H627 C651 0.951 . S
H628 C653 0.951 . S
H629 C655 0.950 . S
H630 C656 0.950 . S
H631 C658 0.950 . S
H632 C661 0.950 . S
H633 C662 0.950 . S
H634 C664 0.950 . S
H635 C665 0.950 . S
C636 H618 0.951 . S
C636 C637 1.366 . S
C636 C638 1.388 . S
C637 C636 1.366 . S
C637 C641 1.385 . S
C638 H619 0.951 . S
C638 C636 1.388 . S
C638 C639 1.366 . S
C639 C638 1.366 . S
C639 C640 1.414 . S
C639 C642 1.499 . S
C640 H620 0.950 . S
C640 C639 1.414 . S
C640 C641 1.374 . S
C641 H621 0.950 . S
C641 C637 1.385 . S
C641 C640 1.374 . S
C642 C639 1.499 . S
C642 C643 1.373 . S
C642 C644 1.389 . S
C643 H622 0.950 . S
C643 C642 1.373 . S
C643 C659 1.377 1_545 S
C644 C642 1.389 . S
C644 C645 1.524 . S
C644 C658 1.377 1_545 S
C645 C644 1.524 . S
C645 C646 1.397 . S
C645 C650 1.363 . S
C646 H623 0.950 . S
C646 C645 1.397 . S
C646 C647 1.334 . S
C647 H624 0.950 . S
C647 C646 1.334 . S
C647 C648 1.287 . S
C648 C647 1.287 . S
C648 C649 1.524 . S
C648 H667 0.913 . S
C649 H625 0.950 . S
C649 C648 1.524 . S
C649 C650 1.415 . S
C650 H626 0.950 . S
C650 C645 1.363 . S
C650 C649 1.415 . S
C651 H627 0.951 . S
C651 C652 1.366 . S
C651 C653 1.388 . S
C652 C651 1.366 . S
C652 C656 1.385 . S
C653 H628 0.951 . S
C653 C651 1.388 . S
C653 C654 1.366 . S
C654 C653 1.366 . S
C654 C655 1.414 . S
C654 C657 1.499 . S
C655 H629 0.950 . S
C655 C654 1.414 . S
C655 C656 1.374 . S
C656 H630 0.950 . S
C656 C652 1.385 . S
C656 C655 1.374 . S
C657 C654 1.499 . S
C657 C658 1.373 . S
C657 C659 1.389 . S
C658 H631 0.950 . S
C658 C644 1.377 1_565 S
C658 C657 1.373 . S
C659 C643 1.377 1_565 S
C659 C657 1.389 . S
C659 C660 1.524 . S
C660 C659 1.524 . S
C660 C661 1.397 . S
C660 C665 1.363 . S
C661 H632 0.950 . S
C661 C660 1.397 . S
C661 C662 1.334 . S
C662 H633 0.950 . S
C662 C661 1.334 . S
C662 C663 1.287 . S
C663 C662 1.287 . S
C663 C664 1.524 . S
C663 H666 0.999 . S
C664 H634 0.950 . S
C664 C663 1.524 . S
C664 C665 1.415 . S
C665 H635 0.950 . S
C665 C660 1.363 . S
C665 C664 1.415 . S
H666 C663 0.999 . S
H667 C648 0.913 . S
H668 C686 0.951 . S
H669 C688 0.951 . S
H670 C690 0.950 . S
H671 C691 0.950 . S
H672 C693 0.950 . S
H673 C696 0.950 . S
H674 C697 0.950 . S
H675 C699 0.950 . S
H676 C700 0.950 . S
H677 C701 0.951 . S
H678 C703 0.951 . S
H679 C705 0.950 . S
H680 C706 0.950 . S
H681 C708 0.950 . S
H682 C711 0.950 . S
H683 C712 0.950 . S
H684 C714 0.950 . S
H685 C715 0.950 . S
C686 H668 0.951 . S
C686 C687 1.366 . S
C686 C688 1.388 . S
C687 C686 1.366 . S
C687 C691 1.385 . S
C688 H669 0.951 . S
C688 C686 1.388 . S
C688 C689 1.366 . S
C689 C688 1.366 . S
C689 C690 1.414 . S
C689 C692 1.499 . S
C690 H670 0.950 . S
C690 C689 1.414 . S
C690 C691 1.374 . S
C691 H671 0.950 . S
C691 C687 1.385 . S
C691 C690 1.374 . S
C692 C689 1.499 . S
C692 C693 1.373 . S
C692 C694 1.389 1_556 S
C693 H672 0.950 . S
C693 C692 1.373 . S
C693 C709 1.377 . S
C694 C692 1.389 1_554 S
C694 C695 1.524 . S
C694 C708 1.377 . S
C695 C694 1.524 . S
C695 C696 1.397 . S
C695 C700 1.363 . S
C696 H673 0.950 . S
C696 C695 1.397 . S
C696 C697 1.334 . S
C697 H674 0.950 . S
C697 C696 1.334 . S
C697 C698 1.287 . S
C698 C697 1.287 . S
C698 C699 1.524 . S
C698 H717 0.913 . S
C699 H675 0.950 . S
C699 C698 1.524 . S
C699 C700 1.415 . S
C700 H676 0.950 . S
C700 C695 1.363 . S
C700 C699 1.415 . S
C701 H677 0.951 . S
C701 C702 1.366 . S
C701 C703 1.388 . S
C702 C701 1.366 . S
C702 C706 1.385 . S
C703 H678 0.951 . S
C703 C701 1.388 . S
C703 C704 1.366 . S
C704 C703 1.366 . S
C704 C705 1.414 . S
C704 C707 1.499 . S
C705 H679 0.950 . S
C705 C704 1.414 . S
C705 C706 1.374 . S
C706 H680 0.950 . S
C706 C702 1.385 . S
C706 C705 1.374 . S
C707 C704 1.499 . S
C707 C708 1.373 . S
C707 C709 1.389 1_554 S
C708 H681 0.950 . S
C708 C694 1.377 . S
C708 C707 1.373 . S
C709 C693 1.377 . S
C709 C707 1.389 1_556 S
C709 C710 1.524 . S
C710 C709 1.524 . S
C710 C711 1.397 . S
C710 C715 1.363 . S
C711 H682 0.950 . S
C711 C710 1.397 . S
C711 C712 1.334 . S
C712 H683 0.950 . S
C712 C711 1.334 . S
C712 C713 1.287 . S
C713 C712 1.287 . S
C713 C714 1.524 . S
C713 H716 0.999 . S
C714 H684 0.950 . S
C714 C713 1.524 . S
C714 C715 1.415 . S
C715 H685 0.950 . S
C715 C710 1.363 . S
C715 C714 1.415 . S
H716 C713 0.999 . S
H717 C698 0.913 . S
H718 C736 0.951 . S
H719 C738 0.951 . S
H720 C740 0.950 . S
H721 C741 0.950 . S
H722 C743 0.950 . S
H723 C746 0.950 . S
H724 C747 0.950 . S
H725 C749 0.950 . S
H726 C750 0.950 1_455 S
H727 C751 0.951 . S
H728 C753 0.951 . S
H729 C755 0.950 . S
H730 C756 0.950 . S
H731 C758 0.950 . S
H732 C761 0.950 . S
H733 C762 0.950 . S
H734 C764 0.950 . S
H735 C765 0.950 1_655 S
C736 H718 0.951 . S
C736 C737 1.366 . S
C736 C738 1.388 . S
C737 C736 1.366 . S
C737 C741 1.385 . S
C738 H719 0.951 . S
C738 C736 1.388 . S
C738 C739 1.366 . S
C739 C738 1.366 . S
C739 C740 1.414 . S
C739 C742 1.499 . S
C740 H720 0.950 . S
C740 C739 1.414 . S
C740 C741 1.374 . S
C741 H721 0.950 . S
C741 C737 1.385 . S
C741 C740 1.374 . S
C742 C739 1.499 . S
C742 C743 1.373 . S
C742 C744 1.389 . S
C743 H722 0.950 . S
C743 C742 1.373 . S
C743 C759 1.377 1_655 S
C744 C742 1.389 . S
C744 C745 1.524 . S
C744 C758 1.377 1_655 S
C745 C744 1.524 . S
C745 C746 1.397 . S
C745 C750 1.363 . S
C746 H723 0.950 . S
C746 C745 1.397 . S
C746 C747 1.334 . S
C747 H724 0.950 . S
C747 C746 1.334 . S
C747 C748 1.287 . S
C748 C747 1.287 . S
C748 C749 1.524 . S
C748 H767 0.913 . S
C749 H725 0.950 . S
C749 C748 1.524 . S
C749 C750 1.415 . S
C750 H726 0.950 1_655 S
C750 C745 1.363 . S
C750 C749 1.415 . S
C751 H727 0.951 . S
C751 C752 1.366 . S
C751 C753 1.388 . S
C752 C751 1.366 . S
C752 C756 1.385 . S
C753 H728 0.951 . S
C753 C751 1.388 . S
C753 C754 1.366 . S
C754 C753 1.366 . S
C754 C755 1.414 . S
C754 C757 1.499 . S
C755 H729 0.950 . S
C755 C754 1.414 . S
C755 C756 1.374 . S
C756 H730 0.950 . S
C756 C752 1.385 . S
C756 C755 1.374 . S
C757 C754 1.499 . S
C757 C758 1.373 . S
C757 C759 1.389 . S
C758 H731 0.950 . S
C758 C744 1.377 1_455 S
C758 C757 1.373 . S
C759 C743 1.377 1_455 S
C759 C757 1.389 . S
C759 C760 1.524 . S
C760 C759 1.524 . S
C760 C761 1.397 . S
C760 C765 1.363 . S
C761 H732 0.950 . S
C761 C760 1.397 . S
C761 C762 1.334 . S
C762 H733 0.950 . S
C762 C761 1.334 . S
C762 C763 1.287 . S
C763 C762 1.287 . S
C763 C764 1.524 . S
C763 H766 0.999 . S
C764 H734 0.950 . S
C764 C763 1.524 . S
C764 C765 1.415 . S
C765 H735 0.950 1_455 S
C765 C760 1.363 . S
C765 C764 1.415 . S
H766 C763 0.999 . S
H767 C748 0.913 . S
H768 C786 0.951 . S
H769 C788 0.951 . S
H770 C790 0.950 . S
H771 C791 0.950 . S
H772 C793 0.950 . S
H773 C796 0.950 . S
H774 C797 0.950 . S
H775 C799 0.950 . S
H776 C800 0.950 . S
H777 C801 0.951 . S
H778 C803 0.951 . S
H779 C805 0.950 . S
H780 C806 0.950 . S
H781 C808 0.950 . S
H782 C811 0.950 . S
H783 C812 0.950 . S
H784 C814 0.950 . S
H785 C815 0.950 . S
C786 H768 0.951 . S
C786 C787 1.366 . S
C786 C788 1.388 . S
C787 C786 1.366 . S
C787 C791 1.385 . S
C788 H769 0.951 . S
C788 C786 1.388 . S
C788 C789 1.366 . S
C789 C788 1.366 . S
C789 C790 1.414 . S
C789 C792 1.499 . S
C790 H770 0.950 . S
C790 C789 1.414 . S
C790 C791 1.374 . S
C791 H771 0.950 . S
C791 C787 1.385 . S
C791 C790 1.374 . S
C792 C789 1.499 . S
C792 C793 1.373 . S
C792 C794 1.389 . S
C793 H772 0.950 . S
C793 C792 1.373 . S
C793 C809 1.377 . S
C794 C792 1.389 . S
C794 C795 1.524 . S
C794 C808 1.377 . S
C795 C794 1.524 . S
C795 C796 1.397 . S
C795 C800 1.363 . S
C796 H773 0.950 . S
C796 C795 1.397 . S
C796 C797 1.334 . S
C797 H774 0.950 . S
C797 C796 1.334 . S
C797 C798 1.287 . S
C798 C797 1.287 . S
C798 C799 1.524 . S
C798 H817 0.913 . S
C799 H775 0.950 . S
C799 C798 1.524 . S
C799 C800 1.415 . S
C800 H776 0.950 . S
C800 C795 1.363 . S
C800 C799 1.415 . S
C801 H777 0.951 . S
C801 C802 1.366 . S
C801 C803 1.388 . S
C802 C801 1.366 . S
C802 C806 1.385 . S
C803 H778 0.951 . S
C803 C801 1.388 . S
C803 C804 1.366 . S
C804 C803 1.366 . S
C804 C805 1.414 . S
C804 C807 1.499 . S
C805 H779 0.950 . S
C805 C804 1.414 . S
C805 C806 1.374 . S
C806 H780 0.950 . S
C806 C802 1.385 . S
C806 C805 1.374 . S
C807 C804 1.499 . S
C807 C808 1.373 . S
C807 C809 1.389 . S
C808 H781 0.950 . S
C808 C794 1.377 . S
C808 C807 1.373 . S
C809 C793 1.377 . S
C809 C807 1.389 . S
C809 C810 1.524 . S
C810 C809 1.524 . S
C810 C811 1.397 . S
C810 C815 1.363 . S
C811 H782 0.950 . S
C811 C810 1.397 . S
C811 C812 1.334 . S
C812 H783 0.950 . S
C812 C811 1.334 . S
C812 C813 1.287 . S
C813 C812 1.287 . S
C813 C814 1.524 . S
C813 H816 0.999 . S
C814 H784 0.950 . S
C814 C813 1.524 . S
C814 C815 1.415 . S
C815 H785 0.950 . S
C815 C810 1.363 . S
C815 C814 1.415 . S
H816 C813 0.999 . S
H817 C798 0.913 . S
H818 C836 0.951 . S
H819 C838 0.951 . S
H820 C840 0.950 . S
H821 C841 0.950 . S
H822 C843 0.950 . S
H823 C846 0.950 . S
H824 C847 0.950 . S
H825 C849 0.950 . S
H826 C850 0.950 . S
H827 C851 0.951 . S
H828 C853 0.951 . S
H829 C855 0.950 . S
H830 C856 0.950 . S
H831 C858 0.950 . S
H832 C861 0.950 . S
H833 C862 0.950 . S
H834 C864 0.950 . S
H835 C865 0.950 . S
C836 H818 0.951 . S
C836 C837 1.366 . S
C836 C838 1.388 . S
C837 C836 1.366 . S
C837 C841 1.385 . S
C838 H819 0.951 . S
C838 C836 1.388 . S
C838 C839 1.366 . S
C839 C838 1.366 . S
C839 C840 1.414 . S
C839 C842 1.499 . S
C840 H820 0.950 . S
C840 C839 1.414 . S
C840 C841 1.374 . S
C841 H821 0.950 . S
C841 C837 1.385 . S
C841 C840 1.374 . S
C842 C839 1.499 . S
C842 C843 1.373 . S
C842 C844 1.389 . S
C843 H822 0.950 . S
C843 C842 1.373 . S
C843 C859 1.377 . S
C844 C842 1.389 . S
C844 C845 1.524 . S
C844 C858 1.377 . S
C845 C844 1.524 . S
C845 C846 1.397 . S
C845 C850 1.363 . S
C846 H823 0.950 . S
C846 C845 1.397 . S
C846 C847 1.334 . S
C847 H824 0.950 . S
C847 C846 1.334 . S
C847 C848 1.287 . S
C848 C847 1.287 . S
C848 C849 1.524 . S
C848 H867 0.913 . S
C849 H825 0.950 . S
C849 C848 1.524 . S
C849 C850 1.415 . S
C850 H826 0.950 . S
C850 C845 1.363 . S
C850 C849 1.415 . S
C851 H827 0.951 . S
C851 C852 1.366 . S
C851 C853 1.388 . S
C852 C851 1.366 . S
C852 C856 1.385 . S
C853 H828 0.951 . S
C853 C851 1.388 . S
C853 C854 1.366 . S
C854 C853 1.366 . S
C854 C855 1.414 . S
C854 C857 1.499 . S
C855 H829 0.950 . S
C855 C854 1.414 . S
C855 C856 1.374 . S
C856 H830 0.950 . S
C856 C852 1.385 . S
C856 C855 1.374 . S
C857 C854 1.499 . S
C857 C858 1.373 . S
C857 C859 1.389 . S
C858 H831 0.950 . S
C858 C844 1.377 . S
C858 C857 1.373 . S
C859 C843 1.377 . S
C859 C857 1.389 . S
C859 C860 1.524 . S
C860 C859 1.524 . S
C860 C861 1.397 . S
C860 C865 1.363 . S
C861 H832 0.950 . S
C861 C860 1.397 . S
C861 C862 1.334 . S
C862 H833 0.950 . S
C862 C861 1.334 . S
C862 C863 1.287 . S
C863 C862 1.287 . S
C863 C864 1.524 . S
C863 H866 0.999 . S
C864 H834 0.950 . S
C864 C863 1.524 . S
C864 C865 1.415 . S
C865 H835 0.950 . S
C865 C860 1.363 . S
C865 C864 1.415 . S
H866 C863 0.999 . S
H867 C848 0.913 . S
H868 C886 0.951 . S
H869 C888 0.951 . S
H870 C890 0.950 . S
H871 C891 0.950 . S
H872 C893 0.950 . S
H873 C896 0.950 . S
H874 C897 0.950 . S
H875 C899 0.950 . S
H876 C900 0.950 . S
H877 C901 0.951 . S
H878 C903 0.951 . S
H879 C905 0.950 . S
H880 C906 0.950 . S
H881 C908 0.950 . S
H882 C911 0.950 . S
H883 C912 0.950 . S
H884 C914 0.950 . S
H885 C915 0.950 . S
C886 H868 0.951 . S
C886 C887 1.366 . S
C886 C888 1.388 . S
C887 C886 1.366 . S
C887 C891 1.385 . S
C888 H869 0.951 . S
C888 C886 1.388 . S
C888 C889 1.366 . S
C889 C888 1.366 . S
C889 C890 1.414 . S
C889 C892 1.499 . S
C890 H870 0.950 . S
C890 C889 1.414 . S
C890 C891 1.374 . S
C891 H871 0.950 . S
C891 C887 1.385 . S
C891 C890 1.374 . S
C892 C889 1.499 . S
C892 C893 1.373 . S
C892 C894 1.389 . S
C893 H872 0.950 . S
C893 C892 1.373 . S
C893 C909 1.377 . S
C894 C892 1.389 . S
C894 C895 1.524 . S
C894 C908 1.377 . S
C895 C894 1.524 . S
C895 C896 1.397 . S
C895 C900 1.363 . S
C896 H873 0.950 . S
C896 C895 1.397 . S
C896 C897 1.334 . S
C897 H874 0.950 . S
C897 C896 1.334 . S
C897 C898 1.287 . S
C898 C897 1.287 . S
C898 C899 1.524 . S
C898 H917 0.913 . S
C899 H875 0.950 . S
C899 C898 1.524 . S
C899 C900 1.415 . S
C900 H876 0.950 . S
C900 C895 1.363 . S
C900 C899 1.415 . S
C901 H877 0.951 . S
C901 C902 1.366 . S
C901 C903 1.388 . S
C902 C901 1.366 . S
C902 C906 1.385 . S
C903 H878 0.951 . S
C903 C901 1.388 . S
C903 C904 1.366 . S
C904 C903 1.366 . S
C904 C905 1.414 . S
C904 C907 1.499 . S
C905 H879 0.950 . S
C905 C904 1.414 . S
C905 C906 1.374 . S
C906 H880 0.950 . S
C906 C902 1.385 . S
C906 C905 1.374 . S
C907 C904 1.499 . S
C907 C908 1.373 . S
C907 C909 1.389 . S
C908 H881 0.950 . S
C908 C894 1.377 . S
C908 C907 1.373 . S
C909 C893 1.377 . S
C909 C907 1.389 . S
C909 C910 1.524 . S
C910 C909 1.524 . S
C910 C911 1.397 . S
C910 C915 1.363 . S
C911 H882 0.950 . S
C911 C910 1.397 . S
C911 C912 1.334 . S
C912 H883 0.950 . S
C912 C911 1.334 . S
C912 C913 1.287 . S
C913 C912 1.287 . S
C913 C914 1.524 . S
C913 H916 0.999 . S
C914 H884 0.950 . S
C914 C913 1.524 . S
C914 C915 1.415 . S
C915 H885 0.950 . S
C915 C910 1.363 . S
C915 C914 1.415 . S
H916 C913 0.999 . S
H917 C898 0.913 . S
H918 C936 0.951 . S
H919 C938 0.951 . S
H920 C940 0.950 . S
H921 C941 0.950 . S
H922 C943 0.950 . S
H923 C946 0.950 . S
H924 C947 0.950 . S
H925 C949 0.950 . S
H926 C950 0.950 . S
H927 C951 0.951 . S
H928 C953 0.951 . S
H929 C955 0.950 . S
H930 C956 0.950 . S
H931 C958 0.950 . S
H932 C961 0.950 . S
H933 C962 0.950 . S
H934 C964 0.950 . S
H935 C965 0.950 . S
C936 H918 0.951 . S
C936 C937 1.366 . S
C936 C938 1.388 . S
C937 C936 1.366 . S
C937 C941 1.385 . S
C938 H919 0.951 . S
C938 C936 1.388 . S
C938 C939 1.366 . S
C939 C938 1.366 . S
C939 C940 1.414 . S
C939 C942 1.499 . S
C940 H920 0.950 . S
C940 C939 1.414 . S
C940 C941 1.374 . S
C941 H921 0.950 . S
C941 C937 1.385 . S
C941 C940 1.374 . S
C942 C939 1.499 . S
C942 C943 1.373 . S
C942 C944 1.389 . S
C943 H922 0.950 . S
C943 C942 1.373 . S
C943 C959 1.377 . S
C944 C942 1.389 . S
C944 C945 1.524 . S
C944 C958 1.377 . S
C945 C944 1.524 . S
C945 C946 1.397 . S
C945 C950 1.363 . S
C946 H923 0.950 . S
C946 C945 1.397 . S
C946 C947 1.334 . S
C947 H924 0.950 . S
C947 C946 1.334 . S
C947 C948 1.287 . S
C948 C947 1.287 . S
C948 C949 1.524 . S
C948 H967 0.913 . S
C949 H925 0.950 . S
C949 C948 1.524 . S
C949 C950 1.415 . S
C950 H926 0.950 . S
C950 C945 1.363 . S
C950 C949 1.415 . S
C951 H927 0.951 . S
C951 C952 1.366 . S
C951 C953 1.388 . S
C952 C951 1.366 . S
C952 C956 1.385 . S
C953 H928 0.951 . S
C953 C951 1.388 . S
C953 C954 1.366 . S
C954 C953 1.366 . S
C954 C955 1.414 . S
C954 C957 1.499 . S
C955 H929 0.950 . S
C955 C954 1.414 . S
C955 C956 1.374 . S
C956 H930 0.950 . S
C956 C952 1.385 . S
C956 C955 1.374 . S
C957 C954 1.499 . S
C957 C958 1.373 . S
C957 C959 1.389 . S
C958 H931 0.950 . S
C958 C944 1.377 . S
C958 C957 1.373 . S
C959 C943 1.377 . S
C959 C957 1.389 . S
C959 C960 1.524 . S
C960 C959 1.524 . S
C960 C961 1.397 . S
C960 C965 1.363 . S
C961 H932 0.950 . S
C961 C960 1.397 . S
C961 C962 1.334 . S
C962 H933 0.950 . S
C962 C961 1.334 . S
C962 C963 1.287 . S
C963 C962 1.287 . S
C963 C964 1.524 . S
C963 H966 0.999 . S
C964 H934 0.950 . S
C964 C963 1.524 . S
C964 C965 1.415 . S
C965 H935 0.950 . S
C965 C960 1.363 . S
C965 C964 1.415 . S
H966 C963 0.999 . S
H967 C948 0.913 . S
H968 C986 0.951 . S
H969 C988 0.951 . S
H970 C990 0.950 . S
H971 C991 0.950 . S
H972 C993 0.950 . S
H973 C996 0.950 . S
H974 C997 0.950 . S
H975 C999 0.950 1_556 S
H976 C1000 0.950 . S
H977 C1001 0.951 . S
H978 C1003 0.951 . S
H979 C1005 0.950 . S
H980 C1006 0.950 . S
H981 C1008 0.950 . S
H982 C1011 0.950 . S
H983 C1012 0.950 . S
H984 C1014 0.950 . S
H985 C1015 0.950 . S
C986 H968 0.951 . S
C986 C987 1.366 . S
C986 C988 1.388 . S
C987 C986 1.366 . S
C987 C991 1.385 . S
C988 H969 0.951 . S
C988 C986 1.388 . S
C988 C989 1.366 . S
C989 C988 1.366 . S
C989 C990 1.414 . S
C989 C992 1.499 . S
C990 H970 0.950 . S
C990 C989 1.414 . S
C990 C991 1.374 . S
C991 H971 0.950 . S
C991 C987 1.385 . S
C991 C990 1.374 . S
C992 C989 1.499 . S
C992 C993 1.373 . S
C992 C994 1.389 . S
C993 H972 0.950 . S
C993 C992 1.373 . S
C993 C1009 1.377 . S
C994 C992 1.389 . S
C994 C995 1.524 . S
C994 C1008 1.377 . S
C995 C994 1.524 . S
C995 C996 1.397 . S
C995 C1000 1.363 . S
C996 H973 0.950 . S
C996 C995 1.397 . S
C996 C997 1.334 . S
C997 H974 0.950 . S
C997 C996 1.334 . S
C997 C998 1.287 . S
C998 C997 1.287 . S
C998 C999 1.524 . S
C998 H1017 0.913 1_554 S
C999 H975 0.950 1_554 S
C999 C998 1.524 . S
C999 C1000 1.415 . S
C1000 H976 0.950 . S
C1000 C995 1.363 . S
C1000 C999 1.415 . S
C1001 H977 0.951 . S
C1001 C1002 1.366 . S
C1001 C1003 1.388 . S
C1002 C1001 1.366 . S
C1002 C1006 1.385 . S
C1003 H978 0.951 . S
C1003 C1001 1.388 . S
C1003 C1004 1.366 . S
C1004 C1003 1.366 . S
C1004 C1005 1.414 . S
C1004 C1007 1.499 . S
C1005 H979 0.950 . S
C1005 C1004 1.414 . S
C1005 C1006 1.374 . S
C1006 H980 0.950 . S
C1006 C1002 1.385 . S
C1006 C1005 1.374 . S
C1007 C1004 1.499 . S
C1007 C1008 1.373 . S
C1007 C1009 1.389 . S
C1008 H981 0.950 . S
C1008 C994 1.377 . S
C1008 C1007 1.373 . S
C1009 C993 1.377 . S
C1009 C1007 1.389 . S
C1009 C1010 1.524 . S
C1010 C1009 1.524 . S
C1010 C1011 1.397 . S
C1010 C1015 1.363 . S
C1011 H982 0.950 . S
C1011 C1010 1.397 . S
C1011 C1012 1.334 . S
C1012 H983 0.950 . S
C1012 C1011 1.334 . S
C1012 C1013 1.287 . S
C1013 C1012 1.287 . S
C1013 C1014 1.524 . S
C1013 H1016 0.999 . S
C1014 H984 0.950 . S
C1014 C1013 1.524 . S
C1014 C1015 1.415 . S
C1015 H985 0.950 . S
C1015 C1010 1.363 . S
C1015 C1014 1.415 . S
H1016 C1013 0.999 . S
H1017 C998 0.913 1_556 S
H1018 C1036 0.951 . S
H1019 C1038 0.951 . S
H1020 C1040 0.950 . S
H1021 C1041 0.950 . S
H1022 C1043 0.950 . S
H1023 C1046 0.950 . S
H1024 C1047 0.950 . S
H1025 C1049 0.950 . S
H1026 C1050 0.950 . S
H1027 C1051 0.951 . S
H1028 C1053 0.951 . S
H1029 C1055 0.950 . S
H1030 C1056 0.950 . S
H1031 C1058 0.950 . S
H1032 C1061 0.950 . S
H1033 C1062 0.950 . S
H1034 C1064 0.950 . S
H1035 C1065 0.950 . S
C1036 H1018 0.951 . S
C1036 C1037 1.366 . S
C1036 C1038 1.388 . S
C1037 C1036 1.366 . S
C1037 C1041 1.385 . S
C1038 H1019 0.951 . S
C1038 C1036 1.388 . S
C1038 C1039 1.366 . S
C1039 C1038 1.366 . S
C1039 C1040 1.414 . S
C1039 C1042 1.499 . S
C1040 H1020 0.950 . S
C1040 C1039 1.414 . S
C1040 C1041 1.374 . S
C1041 H1021 0.950 . S
C1041 C1037 1.385 . S
C1041 C1040 1.374 . S
C1042 C1039 1.499 . S
C1042 C1043 1.373 . S
C1042 C1044 1.389 . S
C1043 H1022 0.950 . S
C1043 C1042 1.373 . S
C1043 C1059 1.377 . S
C1044 C1042 1.389 . S
C1044 C1045 1.524 . S
C1044 C1058 1.377 . S
C1045 C1044 1.524 . S
C1045 C1046 1.397 . S
C1045 C1050 1.363 . S
C1046 H1023 0.950 . S
C1046 C1045 1.397 . S
C1046 C1047 1.334 . S
C1047 H1024 0.950 . S
C1047 C1046 1.334 . S
C1047 C1048 1.287 . S
C1048 C1047 1.287 . S
C1048 C1049 1.524 . S
C1048 H1067 0.913 . S
C1049 H1025 0.950 . S
C1049 C1048 1.524 . S
C1049 C1050 1.415 . S
C1050 H1026 0.950 . S
C1050 C1045 1.363 . S
C1050 C1049 1.415 . S
C1051 H1027 0.951 . S
C1051 C1052 1.366 . S
C1051 C1053 1.388 . S
C1052 C1051 1.366 . S
C1052 C1056 1.385 . S
C1053 H1028 0.951 . S
C1053 C1051 1.388 . S
C1053 C1054 1.366 . S
C1054 C1053 1.366 . S
C1054 C1055 1.414 . S
C1054 C1057 1.499 . S
C1055 H1029 0.950 . S
C1055 C1054 1.414 . S
C1055 C1056 1.374 . S
C1056 H1030 0.950 . S
C1056 C1052 1.385 . S
C1056 C1055 1.374 . S
C1057 C1054 1.499 . S
C1057 C1058 1.373 . S
C1057 C1059 1.389 . S
C1058 H1031 0.950 . S
C1058 C1044 1.377 . S
C1058 C1057 1.373 . S
C1059 C1043 1.377 . S
C1059 C1057 1.389 . S
C1059 C1060 1.524 . S
C1060 C1059 1.524 . S
C1060 C1061 1.397 . S
C1060 C1065 1.363 . S
C1061 H1032 0.950 . S
C1061 C1060 1.397 . S
C1061 C1062 1.334 . S
C1062 H1033 0.950 . S
C1062 C1061 1.334 . S
C1062 C1063 1.287 . S
C1063 C1062 1.287 . S
C1063 C1064 1.524 . S
C1063 H1066 0.999 . S
C1064 H1034 0.950 . S
C1064 C1063 1.524 . S
C1064 C1065 1.415 . S
C1065 H1035 0.950 . S
C1065 C1060 1.363 . S
C1065 C1064 1.415 . S
H1066 C1063 0.999 . S
H1067 C1048 0.913 . S
H1068 C1086 0.951 . S
H1069 C1088 0.951 . S
H1070 C1090 0.950 . S
H1071 C1091 0.950 . S
H1072 C1093 0.950 . S
H1073 C1096 0.950 . S
H1074 C1097 0.950 . S
H1075 C1099 0.950 . S
H1076 C1100 0.950 . S
H1077 C1101 0.951 . S
H1078 C1103 0.951 . S
H1079 C1105 0.950 . S
H1080 C1106 0.950 . S
H1081 C1108 0.950 . S
H1082 C1111 0.950 . S
H1083 C1112 0.950 . S
H1084 C1114 0.950 . S
H1085 C1115 0.950 . S
C1086 H1068 0.951 . S
C1086 C1087 1.366 . S
C1086 C1088 1.388 . S
C1087 C1086 1.366 . S
C1087 C1091 1.385 . S
C1088 H1069 0.951 . S
C1088 C1086 1.388 . S
C1088 C1089 1.366 . S
C1089 C1088 1.366 . S
C1089 C1090 1.414 . S
C1089 C1092 1.499 . S
C1090 H1070 0.950 . S
C1090 C1089 1.414 . S
C1090 C1091 1.374 . S
C1091 H1071 0.950 . S
C1091 C1087 1.385 . S
C1091 C1090 1.374 . S
C1092 C1089 1.499 . S
C1092 C1093 1.373 . S
C1092 C1094 1.389 . S
C1093 H1072 0.950 . S
C1093 C1092 1.373 . S
C1093 C1109 1.377 . S
C1094 C1092 1.389 . S
C1094 C1095 1.524 . S
C1094 C1108 1.377 . S
C1095 C1094 1.524 . S
C1095 C1096 1.397 . S
C1095 C1100 1.363 . S
C1096 H1073 0.950 . S
C1096 C1095 1.397 . S
C1096 C1097 1.334 . S
C1097 H1074 0.950 . S
C1097 C1096 1.334 . S
C1097 C1098 1.287 . S
C1098 C1097 1.287 . S
C1098 C1099 1.524 . S
C1098 H1117 0.913 . S
C1099 H1075 0.950 . S
C1099 C1098 1.524 . S
C1099 C1100 1.415 . S
C1100 H1076 0.950 . S
C1100 C1095 1.363 . S
C1100 C1099 1.415 . S
C1101 H1077 0.951 . S
C1101 C1102 1.366 . S
C1101 C1103 1.388 . S
C1102 C1101 1.366 . S
C1102 C1106 1.385 . S
C1103 H1078 0.951 . S
C1103 C1101 1.388 . S
C1103 C1104 1.366 . S
C1104 C1103 1.366 . S
C1104 C1105 1.414 . S
C1104 C1107 1.499 . S
C1105 H1079 0.950 . S
C1105 C1104 1.414 . S
C1105 C1106 1.374 . S
C1106 H1080 0.950 . S
C1106 C1102 1.385 . S
C1106 C1105 1.374 . S
C1107 C1104 1.499 . S
C1107 C1108 1.373 . S
C1107 C1109 1.389 . S
C1108 H1081 0.950 . S
C1108 C1094 1.377 . S
C1108 C1107 1.373 . S
C1109 C1093 1.377 . S
C1109 C1107 1.389 . S
C1109 C1110 1.524 . S
C1110 C1109 1.524 . S
C1110 C1111 1.397 . S
C1110 C1115 1.363 . S
C1111 H1082 0.950 . S
C1111 C1110 1.397 . S
C1111 C1112 1.334 . S
C1112 H1083 0.950 . S
C1112 C1111 1.334 . S
C1112 C1113 1.287 . S
C1113 C1112 1.287 . S
C1113 C1114 1.524 . S
C1113 H1116 0.999 . S
C1114 H1084 0.950 . S
C1114 C1113 1.524 . S
C1114 C1115 1.415 . S
C1115 H1085 0.950 . S
C1115 C1110 1.363 . S
C1115 C1114 1.415 . S
H1116 C1113 0.999 . S
H1117 C1098 0.913 . S
H1118 C1136 0.951 . S
H1119 C1138 0.951 . S
H1120 C1140 0.950 . S
H1121 C1141 0.950 . S
H1122 C1143 0.950 . S
H1123 C1146 0.950 . S
H1124 C1147 0.950 . S
H1125 C1149 0.950 . S
H1126 C1150 0.950 . S
H1127 C1151 0.951 . S
H1128 C1153 0.951 . S
H1129 C1155 0.950 . S
H1130 C1156 0.950 . S
H1131 C1158 0.950 . S
H1132 C1161 0.950 . S
H1133 C1162 0.950 . S
H1134 C1164 0.950 . S
H1135 C1165 0.950 . S
C1136 H1118 0.951 . S
C1136 C1137 1.366 . S
C1136 C1138 1.388 . S
C1137 C1136 1.366 . S
C1137 C1141 1.385 . S
C1138 H1119 0.951 . S
C1138 C1136 1.388 . S
C1138 C1139 1.366 . S
C1139 C1138 1.366 . S
C1139 C1140 1.414 . S
C1139 C1142 1.499 . S
C1140 H1120 0.950 . S
C1140 C1139 1.414 . S
C1140 C1141 1.374 . S
C1141 H1121 0.950 . S
C1141 C1137 1.385 . S
C1141 C1140 1.374 . S
C1142 C1139 1.499 . S
C1142 C1143 1.373 . S
C1142 C1144 1.389 . S
C1143 H1122 0.950 . S
C1143 C1142 1.373 . S
C1143 C1159 1.377 . S
C1144 C1142 1.389 . S
C1144 C1145 1.524 . S
C1144 C1158 1.377 . S
C1145 C1144 1.524 . S
C1145 C1146 1.397 . S
C1145 C1150 1.363 . S
C1146 H1123 0.950 . S
C1146 C1145 1.397 . S
C1146 C1147 1.334 . S
C1147 H1124 0.950 . S
C1147 C1146 1.334 . S
C1147 C1148 1.287 . S
C1148 C1147 1.287 . S
C1148 C1149 1.524 . S
C1148 H1167 0.913 . S
C1149 H1125 0.950 . S
C1149 C1148 1.524 . S
C1149 C1150 1.415 . S
C1150 H1126 0.950 . S
C1150 C1145 1.363 . S
C1150 C1149 1.415 . S
C1151 H1127 0.951 . S
C1151 C1152 1.366 . S
C1151 C1153 1.388 . S
C1152 C1151 1.366 . S
C1152 C1156 1.385 . S
C1153 H1128 0.951 . S
C1153 C1151 1.388 . S
C1153 C1154 1.366 . S
C1154 C1153 1.366 . S
C1154 C1155 1.414 . S
C1154 C1157 1.499 . S
C1155 H1129 0.950 . S
C1155 C1154 1.414 . S
C1155 C1156 1.374 . S
C1156 H1130 0.950 . S
C1156 C1152 1.385 . S
C1156 C1155 1.374 . S
C1157 C1154 1.499 . S
C1157 C1158 1.373 . S
C1157 C1159 1.389 . S
C1158 H1131 0.950 . S
C1158 C1144 1.377 . S
C1158 C1157 1.373 . S
C1159 C1143 1.377 . S
C1159 C1157 1.389 . S
C1159 C1160 1.524 . S
C1160 C1159 1.524 . S
C1160 C1161 1.397 . S
C1160 C1165 1.363 . S
C1161 H1132 0.950 . S
C1161 C1160 1.397 . S
C1161 C1162 1.334 . S
C1162 H1133 0.950 . S
C1162 C1161 1.334 . S
C1162 C1163 1.287 . S
C1163 C1162 1.287 . S
C1163 C1164 1.524 . S
C1163 H1166 0.999 . S
C1164 H1134 0.950 . S
C1164 C1163 1.524 . S
C1164 C1165 1.415 . S
C1165 H1135 0.950 . S
C1165 C1160 1.363 . S
C1165 C1164 1.415 . S
H1166 C1163 0.999 . S
H1167 C1148 0.913 . S
H1168 C1186 0.951 . S
H1169 C1188 0.951 . S
H1170 C1190 0.950 . S
H1171 C1191 0.950 . S
H1172 C1193 0.950 . S
H1173 C1196 0.950 . S
H1174 C1197 0.950 . S
H1175 C1199 0.950 . S
H1176 C1200 0.950 . S
H1177 C1201 0.951 . S
H1178 C1203 0.951 . S
H1179 C1205 0.950 . S
H1180 C1206 0.950 . S
H1181 C1208 0.950 . S
H1182 C1211 0.950 . S
H1183 C1212 0.950 . S
H1184 C1214 0.950 . S
H1185 C1215 0.950 . S
C1186 H1168 0.951 . S
C1186 C1187 1.366 . S
C1186 C1188 1.388 . S
C1187 C1186 1.366 . S
C1187 C1191 1.385 . S
C1188 H1169 0.951 . S
C1188 C1186 1.388 . S
C1188 C1189 1.366 . S
C1189 C1188 1.366 . S
C1189 C1190 1.414 . S
C1189 C1192 1.499 . S
C1190 H1170 0.950 . S
C1190 C1189 1.414 . S
C1190 C1191 1.374 . S
C1191 H1171 0.950 . S
C1191 C1187 1.385 . S
C1191 C1190 1.374 . S
C1192 C1189 1.499 . S
C1192 C1193 1.373 . S
C1192 C1194 1.389 . S
C1193 H1172 0.950 . S
C1193 C1192 1.373 . S
C1193 C1209 1.377 . S
C1194 C1192 1.389 . S
C1194 C1195 1.524 . S
C1194 C1208 1.377 . S
C1195 C1194 1.524 . S
C1195 C1196 1.397 . S
C1195 C1200 1.363 . S
C1196 H1173 0.950 . S
C1196 C1195 1.397 . S
C1196 C1197 1.334 . S
C1197 H1174 0.950 . S
C1197 C1196 1.334 . S
C1197 C1198 1.287 . S
C1198 C1197 1.287 . S
C1198 C1199 1.524 . S
C1198 H1217 0.913 . S
C1199 H1175 0.950 . S
C1199 C1198 1.524 . S
C1199 C1200 1.415 . S
C1200 H1176 0.950 . S
C1200 C1195 1.363 . S
C1200 C1199 1.415 . S
C1201 H1177 0.951 . S
C1201 C1202 1.366 . S
C1201 C1203 1.388 . S
C1202 C1201 1.366 . S
C1202 C1206 1.385 . S
C1203 H1178 0.951 . S
C1203 C1201 1.388 . S
C1203 C1204 1.366 . S
C1204 C1203 1.366 . S
C1204 C1205 1.414 . S
C1204 C1207 1.499 . S
C1205 H1179 0.950 . S
C1205 C1204 1.414 . S
C1205 C1206 1.374 . S
C1206 H1180 0.950 . S
C1206 C1202 1.385 . S
C1206 C1205 1.374 . S
C1207 C1204 1.499 . S
C1207 C1208 1.373 . S
C1207 C1209 1.389 . S
C1208 H1181 0.950 . S
C1208 C1194 1.377 . S
C1208 C1207 1.373 . S
C1209 C1193 1.377 . S
C1209 C1207 1.389 . S
C1209 C1210 1.524 . S
C1210 C1209 1.524 . S
C1210 C1211 1.397 . S
C1210 C1215 1.363 . S
C1211 H1182 0.950 . S
C1211 C1210 1.397 . S
C1211 C1212 1.334 . S
C1212 H1183 0.950 . S
C1212 C1211 1.334 . S
C1212 C1213 1.287 . S
C1213 C1212 1.287 . S
C1213 C1214 1.524 . S
C1213 H1216 0.999 . S
C1214 H1184 0.950 . S
C1214 C1213 1.524 . S
C1214 C1215 1.415 . S
C1215 H1185 0.950 . S
C1215 C1210 1.363 . S
C1215 C1214 1.415 . S
H1216 C1213 0.999 . S
H1217 C1198 0.913 . S
H1218 C1236 0.951 . S
H1219 C1238 0.951 . S
H1220 C1240 0.950 . S
H1221 C1241 0.950 . S
H1222 C1243 0.950 . S
H1223 C1246 0.950 . S
H1224 C1247 0.950 . S
H1225 C1249 0.950 . S
H1226 C1250 0.950 . S
H1227 C1251 0.951 . S
H1228 C1253 0.951 . S
H1229 C1255 0.950 . S
H1230 C1256 0.950 . S
H1231 C1258 0.950 . S
H1232 C1261 0.950 . S
H1233 C1262 0.950 . S
H1234 C1264 0.950 . S
H1235 C1265 0.950 . S
C1236 H1218 0.951 . S
C1236 C1237 1.366 . S
C1236 C1238 1.388 . S
C1237 C1236 1.366 . S
C1237 C1241 1.385 . S
C1238 H1219 0.951 . S
C1238 C1236 1.388 . S
C1238 C1239 1.366 . S
C1239 C1238 1.366 . S
C1239 C1240 1.414 . S
C1239 C1242 1.499 . S
C1240 H1220 0.950 . S
C1240 C1239 1.414 . S
C1240 C1241 1.374 . S
C1241 H1221 0.950 . S
C1241 C1237 1.385 . S
C1241 C1240 1.374 . S
C1242 C1239 1.499 . S
C1242 C1243 1.373 . S
C1242 C1244 1.389 . S
C1243 H1222 0.950 . S
C1243 C1242 1.373 . S
C1243 C1259 1.377 . S
C1244 C1242 1.389 . S
C1244 C1245 1.524 . S
C1244 C1258 1.377 . S
C1245 C1244 1.524 . S
C1245 C1246 1.397 . S
C1245 C1250 1.363 . S
C1246 H1223 0.950 . S
C1246 C1245 1.397 . S
C1246 C1247 1.334 . S
C1247 H1224 0.950 . S
C1247 C1246 1.334 . S
C1247 C1248 1.287 . S
C1248 C1247 1.287 . S
C1248 C1249 1.524 . S
C1248 H1267 0.913 . S
C1249 H1225 0.950 . S
C1249 C1248 1.524 . S
C1249 C1250 1.415 . S
C1250 H1226 0.950 . S
C1250 C1245 1.363 . S
C1250 C1249 1.415 . S
C1251 H1227 0.951 . S
C1251 C1252 1.366 . S
C1251 C1253 1.388 . S
C1252 C1251 1.366 . S
C1252 C1256 1.385 . S
C1253 H1228 0.951 . S
C1253 C1251 1.388 . S
C1253 C1254 1.366 . S
C1254 C1253 1.366 . S
C1254 C1255 1.414 . S
C1254 C1257 1.499 . S
C1255 H1229 0.950 . S
C1255 C1254 1.414 . S
C1255 C1256 1.374 . S
C1256 H1230 0.950 . S
C1256 C1252 1.385 . S
C1256 C1255 1.374 . S
C1257 C1254 1.499 . S
C1257 C1258 1.373 . S
C1257 C1259 1.389 . S
C1258 H1231 0.950 . S
C1258 C1244 1.377 . S
C1258 C1257 1.373 . S
C1259 C1243 1.377 . S
C1259 C1257 1.389 . S
C1259 C1260 1.524 . S
C1260 C1259 1.524 . S
C1260 C1261 1.397 . S
C1260 C1265 1.363 . S
C1261 H1232 0.950 . S
C1261 C1260 1.397 . S
C1261 C1262 1.334 . S
C1262 H1233 0.950 . S
C1262 C1261 1.334 . S
C1262 C1263 1.287 . S
C1263 C1262 1.287 . S
C1263 C1264 1.524 . S
C1263 H1266 0.999 . S
C1264 H1234 0.950 . S
C1264 C1263 1.524 . S
C1264 C1265 1.415 . S
C1265 H1235 0.950 . S
C1265 C1260 1.363 . S
C1265 C1264 1.415 . S
H1266 C1263 0.999 . S
H1267 C1248 0.913 . S
H1268 C1286 0.951 . S
H1269 C1288 0.951 . S
H1270 C1290 0.950 . S
H1271 C1291 0.950 . S
H1272 C1293 0.950 . S
H1273 C1296 0.950 . S
H1274 C1297 0.950 . S
H1275 C1299 0.950 . S
H1276 C1300 0.950 . S
H1277 C1301 0.951 . S
H1278 C1303 0.951 . S
H1279 C1305 0.950 . S
H1280 C1306 0.950 . S
H1281 C1308 0.950 . S
H1282 C1311 0.950 . S
H1283 C1312 0.950 . S
H1284 C1314 0.950 . S
H1285 C1315 0.950 . S
C1286 H1268 0.951 . S
C1286 C1287 1.366 . S
C1286 C1288 1.388 . S
C1287 C1286 1.366 . S
C1287 C1291 1.385 . S
C1288 H1269 0.951 . S
C1288 C1286 1.388 . S
C1288 C1289 1.366 . S
C1289 C1288 1.366 . S
C1289 C1290 1.414 . S
C1289 C1292 1.499 . S
C1290 H1270 0.950 . S
C1290 C1289 1.414 . S
C1290 C1291 1.374 . S
C1291 H1271 0.950 . S
C1291 C1287 1.385 . S
C1291 C1290 1.374 . S
C1292 C1289 1.499 . S
C1292 C1293 1.373 . S
C1292 C1294 1.389 . S
C1293 H1272 0.950 . S
C1293 C1292 1.373 . S
C1293 C1309 1.377 . S
C1294 C1292 1.389 . S
C1294 C1295 1.524 . S
C1294 C1308 1.377 . S
C1295 C1294 1.524 . S
C1295 C1296 1.397 . S
C1295 C1300 1.363 . S
C1296 H1273 0.950 . S
C1296 C1295 1.397 . S
C1296 C1297 1.334 . S
C1297 H1274 0.950 . S
C1297 C1296 1.334 . S
C1297 C1298 1.287 . S
C1298 C1297 1.287 . S
C1298 C1299 1.524 . S
C1298 H1317 0.913 . S
C1299 H1275 0.950 . S
C1299 C1298 1.524 . S
C1299 C1300 1.415 . S
C1300 H1276 0.950 . S
C1300 C1295 1.363 . S
C1300 C1299 1.415 . S
C1301 H1277 0.951 . S
C1301 C1302 1.366 . S
C1301 C1303 1.388 . S
C1302 C1301 1.366 . S
C1302 C1306 1.385 . S
C1303 H1278 0.951 . S
C1303 C1301 1.388 . S
C1303 C1304 1.366 . S
C1304 C1303 1.366 . S
C1304 C1305 1.414 . S
C1304 C1307 1.499 . S
C1305 H1279 0.950 . S
C1305 C1304 1.414 . S
C1305 C1306 1.374 . S
C1306 H1280 0.950 . S
C1306 C1302 1.385 . S
C1306 C1305 1.374 . S
C1307 C1304 1.499 . S
C1307 C1308 1.373 . S
C1307 C1309 1.389 . S
C1308 H1281 0.950 . S
C1308 C1294 1.377 . S
C1308 C1307 1.373 . S
C1309 C1293 1.377 . S
C1309 C1307 1.389 . S
C1309 C1310 1.524 . S
C1310 C1309 1.524 . S
C1310 C1311 1.397 . S
C1310 C1315 1.363 . S
C1311 H1282 0.950 . S
C1311 C1310 1.397 . S
C1311 C1312 1.334 . S
C1312 H1283 0.950 . S
C1312 C1311 1.334 . S
C1312 C1313 1.287 . S
C1313 C1312 1.287 . S
C1313 C1314 1.524 . S
C1313 H1316 0.999 . S
C1314 H1284 0.950 . S
C1314 C1313 1.524 . S
C1314 C1315 1.415 . S
C1315 H1285 0.950 . S
C1315 C1310 1.363 . S
C1315 C1314 1.415 . S
H1316 C1313 0.999 . S
H1317 C1298 0.913 . S
H1318 C1336 0.951 . S
H1319 C1338 0.951 . S
H1320 C1340 0.950 . S
H1321 C1341 0.950 . S
H1322 C1343 0.950 . S
H1323 C1346 0.950 . S
H1324 C1347 0.950 . S
H1325 C1349 0.950 1_554 S
H1326 C1350 0.950 . S
H1327 C1351 0.951 . S
H1328 C1353 0.951 . S
H1329 C1355 0.950 . S
H1330 C1356 0.950 . S
H1331 C1358 0.950 . S
H1332 C1361 0.950 . S
H1333 C1362 0.950 . S
H1334 C1364 0.950 . S
H1335 C1365 0.950 . S
C1336 H1318 0.951 . S
C1336 C1337 1.366 . S
C1336 C1338 1.388 . S
C1337 C1336 1.366 . S
C1337 C1341 1.385 . S
C1338 H1319 0.951 . S
C1338 C1336 1.388 . S
C1338 C1339 1.366 . S
C1339 C1338 1.366 . S
C1339 C1340 1.414 . S
C1339 C1342 1.499 . S
C1340 H1320 0.950 . S
C1340 C1339 1.414 . S
C1340 C1341 1.374 . S
C1341 H1321 0.950 . S
C1341 C1337 1.385 . S
C1341 C1340 1.374 . S
C1342 C1339 1.499 . S
C1342 C1343 1.373 . S
C1342 C1344 1.389 . S
C1343 H1322 0.950 . S
C1343 C1342 1.373 . S
C1343 C1359 1.377 . S
C1344 C1342 1.389 . S
C1344 C1345 1.524 . S
C1344 C1358 1.377 . S
C1345 C1344 1.524 . S
C1345 C1346 1.397 . S
C1345 C1350 1.363 . S
C1346 H1323 0.950 . S
C1346 C1345 1.397 . S
C1346 C1347 1.334 . S
C1347 H1324 0.950 . S
C1347 C1346 1.334 . S
C1347 C1348 1.287 . S
C1348 C1347 1.287 . S
C1348 C1349 1.524 . S
C1348 H1367 0.913 1_556 S
C1349 H1325 0.950 1_556 S
C1349 C1348 1.524 . S
C1349 C1350 1.415 . S
C1350 H1326 0.950 . S
C1350 C1345 1.363 . S
C1350 C1349 1.415 . S
C1351 H1327 0.951 . S
C1351 C1352 1.366 . S
C1351 C1353 1.388 . S
C1352 C1351 1.366 . S
C1352 C1356 1.385 . S
C1353 H1328 0.951 . S
C1353 C1351 1.388 . S
C1353 C1354 1.366 . S
C1354 C1353 1.366 . S
C1354 C1355 1.414 . S
C1354 C1357 1.499 . S
C1355 H1329 0.950 . S
C1355 C1354 1.414 . S
C1355 C1356 1.374 . S
C1356 H1330 0.950 . S
C1356 C1352 1.385 . S
C1356 C1355 1.374 . S
C1357 C1354 1.499 . S
C1357 C1358 1.373 . S
C1357 C1359 1.389 . S
C1358 H1331 0.950 . S
C1358 C1344 1.377 . S
C1358 C1357 1.373 . S
C1359 C1343 1.377 . S
C1359 C1357 1.389 . S
C1359 C1360 1.524 . S
C1360 C1359 1.524 . S
C1360 C1361 1.397 . S
C1360 C1365 1.363 . S
C1361 H1332 0.950 . S
C1361 C1360 1.397 . S
C1361 C1362 1.334 . S
C1362 H1333 0.950 . S
C1362 C1361 1.334 . S
C1362 C1363 1.287 . S
C1363 C1362 1.287 . S
C1363 C1364 1.524 . S
C1363 H1366 0.999 . S
C1364 H1334 0.950 . S
C1364 C1363 1.524 . S
C1364 C1365 1.415 . S
C1365 H1335 0.950 . S
C1365 C1360 1.363 . S
C1365 C1364 1.415 . S
H1366 C1363 0.999 . S
H1367 C1348 0.913 1_554 S
C187 C147 1.409 . S
C202 C7 1.398 . S
C237 C21 1.308 . S
C252 C160 1.309 . S
C287 C34 1.408 . S
C302 C91 1.399 . S
C337 C105 1.409 . S
C352 C49 1.399 . S
C387 C118 1.307 . S
C402 C63 1.308 . S
C437 C76 1.408 . S
C452 C133 1.399 . S
C487 C6 0.775 . S
C502 C104 0.771 . S
C537 C20 0.720 . S
C552 C119 0.721 . S
C587 C132 0.774 . S
C602 C35 0.773 . S
C637 C146 0.771 . S
C652 C48 0.775 . S
C687 C161 0.721 . S
C702 C62 0.720 . S
C737 C90 0.775 . S
C752 C77 0.772 . S
C787 C8 1.006 . S
C802 C65 1.009 . S
C837 C22 1.105 . S
C852 C78 1.120 . S
C887 C37 0.980 . S
C902 C9 0.988 . S
C937 C50 1.006 . S
C952 C23 1.009 . S
C987 C64 1.105 . S
C1002 C36 1.121 . S
C1037 C79 0.979 . S
C1052 C51 0.989 . S
C1087 C92 1.006 . S
C1102 C120 1.009 . S
C1137 C106 0.979 . S
C1152 C135 0.989 . S
C1187 C149 1.120 . S
C1202 C121 1.105 . S
C1237 C134 1.007 . S
C1252 C162 1.009 . S
C1287 C148 0.980 . S
C1302 C93 0.988 . S
C1337 C163 1.105 . S
C1352 C107 1.120 . S
