# Generated by pormake.
# Topology dia, (4)-cn, num edge types: 1
# Building blocks:
#     Node 0, Type 0, BuildingBlock: TATPOV_clean_sbu_0, # of connection points: 4
#     Node 1, Type 0, BuildingBlock: TATPOV_clean_sbu_0, # of connection points: 4
#     Node 2, Type 0, BuildingBlock: TATPOV_clean_sbu_0, # of connection points: 4
#     Node 3, Type 0, BuildingBlock: TATPOV_clean_sbu_0, # of connection points: 4
#     Node 4, Type 0, BuildingBlock: TATPOV_clean_sbu_0, # of connection points: 4
#     Node 5, Type 0, BuildingBlock: TATPOV_clean_sbu_0, # of connection points: 4
#     Node 6, Type 0, BuildingBlock: TATPOV_clean_sbu_0, # of connection points: 4
#     Node 7, Type 0, BuildingBlock: TATPOV_clean_sbu_0, # of connection points: 4
#     Edge 8, Type (0, 0), BuildingBlock: FUNLAD_clean_linker_0, # of connection points: 2
#     Edge 9, Type (0, 0), BuildingBlock: FUNLAD_clean_linker_0, # of connection points: 2
#     Edge 10, Type (0, 0), BuildingBlock: FUNLAD_clean_linker_0, # of connection points: 2
#     Edge 11, Type (0, 0), BuildingBlock: FUNLAD_clean_linker_0, # of connection points: 2
#     Edge 12, Type (0, 0), BuildingBlock: FUNLAD_clean_linker_0, # of connection points: 2
#     Edge 13, Type (0, 0), BuildingBlock: FUNLAD_clean_linker_0, # of connection points: 2
#     Edge 14, Type (0, 0), BuildingBlock: FUNLAD_clean_linker_0, # of connection points: 2
#     Edge 15, Type (0, 0), BuildingBlock: FUNLAD_clean_linker_0, # of connection points: 2
#     Edge 16, Type (0, 0), BuildingBlock: FUNLAD_clean_linker_0, # of connection points: 2
#     Edge 17, Type (0, 0), BuildingBlock: FUNLAD_clean_linker_0, # of connection points: 2
#     Edge 18, Type (0, 0), BuildingBlock: FUNLAD_clean_linker_0, # of connection points: 2
#     Edge 19, Type (0, 0), BuildingBlock: FUNLAD_clean_linker_0, # of connection points: 2
#     Edge 20, Type (0, 0), BuildingBlock: FUNLAD_clean_linker_0, # of connection points: 2
#     Edge 21, Type (0, 0), BuildingBlock: FUNLAD_clean_linker_0, # of connection points: 2
#     Edge 22, Type (0, 0), BuildingBlock: FUNLAD_clean_linker_0, # of connection points: 2
#     Edge 23, Type (0, 0), BuildingBlock: FUNLAD_clean_linker_0, # of connection points: 2
# Relax obj value: 0.006
# Max RMSD: 0.039
# Mean RMSD: 0.039
data_MOF--net-dia--node1-TATPOV_clean_sbu_0--edge1-FUNLAD_clean_linker_0
_symmetry_space_group_name_H-M    P1
_symmetry_Int_Tables_number       1
_symmetry_cell_setting            triclinic
loop_
_symmetry_equiv_pos_as_xyz
'x, y, z'
_cell_length_a     38.175227
_cell_length_b     42.386852
_cell_length_c     42.477133
_cell_angle_alpha  94.325665
_cell_angle_beta   91.959747
_cell_angle_gamma 92.401874
loop_
_atom_site_label
_atom_site_type_symbol
_atom_site_fract_x
_atom_site_fract_y
_atom_site_fract_z
_atom_type_partial_charge
Zn0 Zn 0.18438 0.0944 0.59019 0.0
Zn1 Zn 0.13508 0.12806 0.61655 0.0
O2 O 0.16431 0.11175 0.65379 0.0
O3 O 0.2088 0.08916 0.63102 0.0
O4 O 0.09933 0.15576 0.63845 0.0
O5 O 0.19951 0.12913 0.56434 0.0
O6 O 0.16009 0.15841 0.5875 0.0
C7 C 0.19312 0.09764 0.65575 0.0
C8 C 0.11552 0.06754 0.5749 0.0
O9 O 0.1061 0.0926 0.59031 0.0
O10 O 0.14771 0.06208 0.5727 0.0
C11 C 0.08159 0.14659 0.66118 0.0
O12 O 0.08589 0.11805 0.67039 0.0
C13 C 0.18449 0.15509 0.56785 0.0
Zn14 Zn 0.78717 0.38627 0.87806 0.0
Zn15 Zn 0.83387 0.35606 0.84453 0.0
O16 O 0.80412 0.32128 0.86516 0.0
O17 O 0.76278 0.34718 0.88946 0.0
O18 O 0.86745 0.3305 0.81753 0.0
O19 O 0.76891 0.40735 0.84162 0.0
O20 O 0.80905 0.38416 0.813 0.0
C21 C 0.77677 0.32142 0.88166 0.0
C22 C 0.85792 0.40129 0.90112 0.0
O23 O 0.86555 0.38256 0.87765 0.0
O24 O 0.82619 0.40662 0.90641 0.0
C25 C 0.88744 0.31145 0.83037 0.0
O26 O 0.88626 0.30923 0.86101 0.0
C27 C 0.78364 0.40274 0.81562 0.0
Zn28 Zn 0.69042 0.10684 0.11644 0.0
Zn29 Zn 0.64095 0.13963 0.14185 0.0
O30 O 0.66661 0.11887 0.17859 0.0
O31 O 0.71185 0.09658 0.15693 0.0
O32 O 0.60614 0.16747 0.16484 0.0
O33 O 0.71038 0.14224 0.09443 0.0
O34 O 0.66817 0.17045 0.11436 0.0
C35 C 0.69435 0.10329 0.18101 0.0
C36 C 0.62108 0.08252 0.09642 0.0
O37 O 0.61139 0.10637 0.11357 0.0
O38 O 0.65336 0.07723 0.0944 0.0
C39 C 0.58438 0.15552 0.18315 0.0
O40 O 0.58407 0.12486 0.18607 0.0
C41 C 0.69473 0.16791 0.09698 0.0
Zn42 Zn 0.82652 0.90437 0.40075 0.0
Zn43 Zn 0.85857 0.86698 0.3645 0.0
O44 O 0.83562 0.83808 0.39621 0.0
O45 O 0.82004 0.87353 0.43301 0.0
O46 O 0.88402 0.83666 0.33465 0.0
O47 O 0.7881 0.91028 0.3695 0.0
O48 O 0.82362 0.88865 0.33529 0.0
C49 C 0.82361 0.84496 0.42344 0.0
C50 C 0.89626 0.92542 0.3985 0.0
O51 O 0.89818 0.89779 0.38469 0.0
O52 O 0.86676 0.93581 0.40551 0.0
C53 C 0.90727 0.81938 0.34564 0.0
O54 O 0.91416 0.82153 0.37627 0.0
C55 C 0.79588 0.90351 0.34121 0.0
Zn56 Zn 0.14963 0.58154 0.07063 0.0
Zn57 Zn 0.11092 0.62034 0.10625 0.0
O58 O 0.14602 0.6031 0.13825 0.0
O59 O 0.18042 0.57456 0.10799 0.0
O60 O 0.08209 0.65063 0.13308 0.0
O61 O 0.16235 0.61618 0.04328 0.0
O62 O 0.13402 0.64899 0.0749 0.0
C63 C 0.17256 0.58595 0.13508 0.0
C64 C 0.07749 0.56126 0.06845 0.0
O65 O 0.07441 0.58703 0.08549 0.0
O66 O 0.10738 0.55298 0.05989 0.0
C67 C 0.06733 0.64235 0.15778 0.0
O68 O 0.07073 0.61335 0.16605 0.0
C69 C 0.15296 0.64387 0.05102 0.0
Zn70 Zn 0.30396 0.41428 0.39933 0.0
Zn71 Zn 0.35047 0.38428 0.36459 0.0
O72 O 0.31665 0.34881 0.37841 0.0
O73 O 0.27536 0.3746 0.4029 0.0
O74 O 0.38436 0.36038 0.33648 0.0
O75 O 0.29262 0.44228 0.36549 0.0
O76 O 0.32884 0.41597 0.3352 0.0
C77 C 0.2878 0.34877 0.39274 0.0
C78 C 0.37322 0.42145 0.42723 0.0
O79 O 0.38125 0.40572 0.40186 0.0
O80 O 0.34159 0.42751 0.43201 0.0
C81 C 0.39914 0.33595 0.34523 0.0
O82 O 0.39286 0.32647 0.37332 0.0
C83 C 0.30683 0.43766 0.33921 0.0
Zn84 Zn 0.31992 0.9189 0.91341 0.0
Zn85 Zn 0.36216 0.88578 0.87796 0.0
O86 O 0.33403 0.85253 0.90171 0.0
O87 O 0.30296 0.88151 0.93458 0.0
O88 O 0.39335 0.8587 0.84996 0.0
O89 O 0.29345 0.93257 0.87627 0.0
O90 O 0.3329 0.91013 0.84641 0.0
C91 C 0.31244 0.85468 0.92398 0.0
C92 C 0.39118 0.93909 0.92577 0.0
O93 O 0.39672 0.9155 0.90635 0.0
O94 O 0.36017 0.94607 0.932 0.0
C95 C 0.41389 0.83972 0.86219 0.0
O96 O 0.41503 0.83853 0.89303 0.0
C97 C 0.30598 0.92687 0.84939 0.0
Zn98 Zn 0.65642 0.59844 0.59451 0.0
Zn99 Zn 0.62351 0.63689 0.62955 0.0
O100 O 0.65979 0.61841 0.65996 0.0
O101 O 0.69548 0.59607 0.62629 0.0
O102 O 0.5976 0.6689 0.65721 0.0
O103 O 0.6615 0.62726 0.56024 0.0
O104 O 0.64501 0.66385 0.59548 0.0
C105 C 0.68815 0.60441 0.65439 0.0
C106 C 0.58719 0.57587 0.59924 0.0
O107 O 0.58467 0.60385 0.61209 0.0
O108 O 0.61687 0.56615 0.59182 0.0
C109 C 0.58099 0.66109 0.68112 0.0
O110 O 0.58087 0.63149 0.68836 0.0
C111 C 0.65701 0.65601 0.56844 0.0
C112 C 0.23707 0.31936 0.41379 0.0
C113 C 0.27082 0.31897 0.40156 0.0
C114 C 0.22371 0.29366 0.42888 0.0
C115 C 0.24398 0.26714 0.43219 0.0
C116 C 0.27618 0.26543 0.41727 0.0
C117 C 0.28962 0.29123 0.40211 0.0
C118 C 0.23338 0.24205 0.4528 0.0
C119 C 0.21603 0.24841 0.47953 0.0
C120 C 0.20889 0.22472 0.5027 0.0
C121 C 0.18102 0.22898 0.52314 0.0
C122 C 0.1735 0.20694 0.54515 0.0
C123 C 0.19399 0.18037 0.54719 0.0
H124 H 0.25292 0.19542 0.4915 0.0
C125 C 0.22273 0.17686 0.5276 0.0
C126 C 0.2302 0.19881 0.50571 0.0
H127 H 0.2394 0.1569 0.52888 0.0
H128 H 0.2216 0.34016 0.41307 0.0
H129 H 0.19805 0.29511 0.43884 0.0
H130 H 0.29197 0.24493 0.41906 0.0
H131 H 0.3156 0.29017 0.39271 0.0
H132 H 0.24251 0.21849 0.44699 0.0
H133 H 0.20717 0.27211 0.48522 0.0
H134 H 0.16461 0.24911 0.52168 0.0
H135 H 0.15123 0.21033 0.55997 0.0
C136 C 0.69299 0.58187 0.70667 0.0
C137 C 0.70936 0.59217 0.67997 0.0
C138 C 0.70986 0.56122 0.72565 0.0
C139 C 0.74344 0.55103 0.71838 0.0
C140 C 0.76138 0.56436 0.69408 0.0
C141 C 0.74431 0.58456 0.67474 0.0
C142 C 0.75852 0.52428 0.73372 0.0
C143 C 0.73862 0.49794 0.73736 0.0
C144 C 0.75111 0.47033 0.75316 0.0
C145 C 0.72622 0.45156 0.76762 0.0
C146 C 0.73684 0.42767 0.78606 0.0
C147 C 0.77251 0.42161 0.7898 0.0
H148 H 0.80644 0.4761 0.7432 0.0
C149 C 0.79729 0.4384 0.77316 0.0
C150 C 0.78669 0.4628 0.75501 0.0
H151 H 0.82499 0.43418 0.7759 0.0
H152 H 0.6661 0.58742 0.71126 0.0
H153 H 0.69592 0.55186 0.74495 0.0
H154 H 0.78749 0.55717 0.68844 0.0
H155 H 0.75758 0.59246 0.65441 0.0
H156 H 0.78628 0.52574 0.74034 0.0
H157 H 0.71105 0.49718 0.72983 0.0
H158 H 0.69862 0.45651 0.76612 0.0
H159 H 0.71728 0.41494 0.79871 0.0
C160 C 0.56045 0.07021 0.07311 0.0
C161 C 0.5952 0.06144 0.07758 0.0
C162 C 0.53698 0.05124 0.05317 0.0
C163 C 0.5479 0.02312 0.03739 0.0
C164 C 0.58212 0.01369 0.04299 0.0
C165 C 0.60565 0.03276 0.06266 0.0
C166 C 0.52407 0.00295 0.01535 0.0
C167 C 0.49906 0.01513 -0.00253 0.0
C168 C 0.47315 0.99547 0.97703 0.0
C169 C 0.44013 0.00764 0.97165 0.0
C170 C 0.41394 0.98941 0.95439 0.0
C171 C 0.42035 0.95873 0.94161 0.0
H172 H 0.50577 0.95551 0.9661 0.0
C173 C 0.45394 0.94701 0.94553 0.0
C174 C 0.48018 0.96521 0.96325 0.0
H175 H 0.45962 0.92353 0.9357 0.0
H176 H 0.55155 0.09202 0.08449 0.0
H177 H 0.51033 0.0586 0.05031 0.0
H178 H 0.59095 0.9919 0.03149 0.0
H179 H 0.63218 0.02514 0.06589 0.0
H180 H 0.52765 0.97761 0.0137 0.0
H181 H 0.49603 0.04057 -0.00088 0.0
H182 H 0.4342 0.03101 0.98165 0.0
H183 H 0.38843 -0.0007 0.95139 0.0
C184 C 0.92047 0.79521 0.29148 0.0
C185 C 0.9264 0.79707 0.32447 0.0
C186 C 0.93864 0.77399 0.27177 0.0
C187 C 0.96327 0.75419 0.28465 0.0
C188 C 0.96888 0.75598 0.3176 0.0
C189 C 0.95086 0.77719 0.33723 0.0
C190 C 0.98273 0.73059 0.26496 0.0
C191 C 0.988 0.73213 0.23383 0.0
C192 C 0.00823 0.70858 0.21478 0.0
C193 C 0.0235 0.71751 0.18696 0.0
C194 C 0.04268 0.69613 0.16846 0.0
C195 C 0.0468 0.66511 0.17719 0.0
H196 H -0.00035 0.66904 0.24385 0.0
C197 C 0.03104 0.65596 0.20473 0.0
C198 C 0.01191 0.67735 0.22325 0.0
H199 H 0.03336 0.63218 0.21203 0.0
H200 H 0.90166 0.81003 0.28086 0.0
H201 H 0.93275 0.77285 0.24662 0.0
H202 H 0.98743 0.74093 0.32829 0.0
H203 H 0.95606 0.77786 0.36251 0.0
H204 H -0.00534 0.71198 0.27727 0.0
H205 H 0.97882 0.75221 0.22199 0.0
H206 H 0.02085 0.74126 0.17963 0.0
H207 H 0.0543 0.70396 0.14732 0.0
C208 C 0.25907 0.95761 0.82561 0.0
C209 C 0.29118 0.94278 0.82257 0.0
C210 C 0.24739 0.9772 0.80292 0.0
C211 C 0.26775 0.98258 0.77676 0.0
C212 C 0.29862 0.96606 0.7726 0.0
C213 C 0.31033 0.94636 0.79535 0.0
C214 C 0.25779 0.0053 0.75353 0.0
C215 C 0.2375 0.03006 0.76025 0.0
C216 C 0.22821 0.05218 0.73629 0.0
C217 C 0.1947 0.06463 0.73572 0.0
C218 C 0.18377 0.08188 0.7106 0.0
C219 C 0.20645 0.08699 0.68595 0.0
H220 H 0.27848 0.05204 0.71387 0.0
C221 C 0.24106 0.07714 0.68827 0.0
C222 C 0.25189 0.05999 0.71324 0.0
H223 H 0.25937 0.08134 0.66994 0.0
H224 H 0.24334 0.95483 0.84606 0.0
H225 H 0.22261 0.98823 0.80624 0.0
H226 H 0.31444 0.96936 0.7523 0.0
H227 H 0.3351 0.93515 0.7923 0.0
H228 H 0.26845 0.00185 0.73019 0.0
H229 H 0.22625 0.03374 0.78328 0.0
H230 H 0.17627 0.05942 0.75367 0.0
H231 H 0.15698 0.08931 0.70945 0.0
C232 C 0.87672 0.43309 0.9511 0.0
C233 C 0.88571 0.41696 0.92257 0.0
C234 C 0.90251 0.44847 0.97143 0.0
C235 C 0.93796 0.44847 0.96346 0.0
C236 C 0.947 0.43181 0.93523 0.0
C237 C 0.92116 0.41617 0.91497 0.0
C238 C 0.96631 0.46507 0.984 0.0
C239 C 0.96084 0.48792 0.00698 0.0
C240 C -0.01 0.5053 0.02581 0.0
C241 C 0.98523 0.53627 0.03871 0.0
C242 C 0.01323 0.55425 0.05409 0.0
C243 C 0.04642 0.54143 0.05674 0.0
H244 H 0.02688 0.46753 0.02247 0.0
C245 C 0.05054 0.5098 0.04562 0.0
C246 C 0.02259 0.49182 0.0306 0.0
H247 H 0.07565 0.49904 0.04799 0.0
H248 H 0.84966 0.43373 0.95793 0.0
H249 H 0.89434 0.45992 0.99339 0.0
H250 H 0.97415 0.43112 0.92864 0.0
H251 H 0.92893 0.40382 0.89323 0.0
H252 H -0.00701 0.45931 0.97859 0.0
H253 H 0.93463 0.49601 0.0107 0.0
H254 H 0.96017 0.54702 0.03585 0.0
H255 H 0.00928 0.57853 0.06259 0.0
C256 C 0.43852 0.2908 0.3337 0.0
C257 C 0.42241 0.31781 0.32382 0.0
C258 C 0.4599 0.27322 0.31349 0.0
C259 C 0.46553 0.28205 0.28268 0.0
C260 C 0.44997 0.3094 0.27306 0.0
C261 C 0.42856 0.327 0.29329 0.0
C262 C 0.48815 0.26393 0.26033 0.0
C263 C 0.49471 0.23304 0.26234 0.0
C264 C 0.51717 0.21415 0.24048 0.0
C265 C 0.51533 0.18101 0.24091 0.0
C266 C 0.5367 0.16211 0.22199 0.0
C267 C 0.56072 0.17582 0.2021 0.0
H268 H 0.54412 0.25338 0.2197 0.0
C269 C 0.56253 0.20899 0.20138 0.0
C270 C 0.54111 0.22797 0.2204 0.0
H271 H 0.5809 0.22037 0.18649 0.0
H272 H 0.4347 0.28318 0.35715 0.0
H273 H 0.4723 0.25305 0.32241 0.0
H274 H 0.45408 0.31705 0.24964 0.0
H275 H 0.41673 0.34774 0.28492 0.0
H276 H 0.49829 0.27629 0.2409 0.0
H277 H 0.48205 0.22028 0.28036 0.0
H278 H 0.49736 0.16957 0.25615 0.0
H279 H 0.53455 0.13668 0.22324 0.0
C280 C 0.79743 0.79081 0.4296 0.0
C281 C 0.81081 0.82022 0.44323 0.0
C282 C 0.77957 0.76988 0.44803 0.0
C283 C 0.77517 0.77808 0.48036 0.0
C284 C 0.7909 0.80639 0.49431 0.0
C285 C 0.80825 0.82743 0.47589 0.0
C286 C 0.75377 0.75817 0.50017 0.0
C287 C 0.7253 0.74074 0.48872 0.0
C288 C 0.70394 0.72122 0.5089 0.0
C289 C 0.68942 0.69202 0.49598 0.0
C290 C 0.67246 0.67144 0.51517 0.0
C291 C 0.66909 0.68002 0.54751 0.0
H292 H 0.70844 0.75366 0.55112 0.0
C293 C 0.68115 0.71028 0.55995 0.0
C294 C 0.69861 0.73073 0.54079 0.0
H295 H 0.67871 0.71751 0.58476 0.0
H296 H 0.79923 0.78466 0.40451 0.0
H297 H 0.76882 0.74762 0.43683 0.0
H298 H 0.78837 0.81294 0.51926 0.0
H299 H 0.81873 0.84983 0.48706 0.0
H300 H 0.76081 0.75918 0.52524 0.0
H301 H 0.71818 0.73954 0.46367 0.0
H302 H 0.69269 0.68446 0.47135 0.0
H303 H 0.66302 0.64834 0.50491 0.0
C304 C 0.22526 0.56239 0.15839 0.0
C305 C 0.19363 0.5777 0.16282 0.0
C306 C 0.24361 0.55125 0.18388 0.0
C307 C 0.23053 0.55492 0.21438 0.0
C308 C 0.20013 0.57196 0.21916 0.0
C309 C 0.18173 0.58321 0.19358 0.0
C310 C 0.24707 0.5402 0.24138 0.0
C311 C 0.26401 0.51291 0.23783 0.0
C312 C 0.27626 0.49519 0.26464 0.0
C313 C 0.30151 0.47233 0.2595 0.0
C314 C 0.31196 0.45372 0.2837 0.0
C315 C 0.2971 0.45754 0.31345 0.0
H316 H 0.24103 0.51531 0.29929 0.0
C317 C 0.27193 0.48049 0.31856 0.0
C318 C 0.26149 0.49894 0.29448 0.0
H319 H 0.25968 0.48394 0.34112 0.0
H320 H 0.23559 0.55839 0.13506 0.0
H321 H 0.26778 0.53949 0.17947 0.0
H322 H 0.1898 0.57546 0.24255 0.0
H323 H 0.15759 0.59516 0.19776 0.0
H324 H 0.24288 0.55111 0.26478 0.0
H325 H 0.26797 0.50213 0.21429 0.0
H326 H 0.31301 0.46868 0.2366 0.0
H327 H 0.33135 0.4362 0.279 0.0
C328 C 0.73045 0.29223 0.90866 0.0
C329 C 0.76432 0.29308 0.89671 0.0
C330 C 0.72162 0.27138 0.93122 0.0
C331 C 0.74661 0.25111 0.94232 0.0
C332 C 0.77899 0.24932 0.92768 0.0
C333 C 0.78789 0.27027 0.90501 0.0
C334 C 0.74052 0.23332 0.97044 0.0
C335 C 0.72199 0.24502 0.99484 0.0
C336 C 0.71745 0.22843 0.02396 0.0
C337 C 0.6867 0.23222 0.04084 0.0
C338 C 0.68019 0.21429 0.06653 0.0
C339 C 0.70456 0.19253 0.07576 0.0
H340 H 0.76788 0.2065 0.02359 0.0
C341 C 0.73666 0.19095 0.0606 0.0
C342 C 0.7431 0.20875 0.03501 0.0
H343 H 0.75627 0.17482 0.06759 0.0
H344 H 0.71151 0.30917 0.90215 0.0
H345 H 0.69578 0.2722 0.94091 0.0
H346 H 0.79837 0.23333 0.93543 0.0
H347 H 0.81414 0.27037 0.8961 0.0
H348 H 0.75348 0.21112 0.97182 0.0
H349 H 0.70916 0.26728 0.99342 0.0
H350 H 0.66691 0.24785 0.03316 0.0
H351 H 0.65525 0.21606 0.07781 0.0
C352 C 0.74414 0.932 0.32303 0.0
C353 C 0.7761 0.91815 0.31613 0.0
C354 C 0.72991 0.95333 0.30325 0.0
C355 C 0.74754 0.96127 0.27626 0.0
C356 C 0.77733 0.94478 0.26758 0.0
C357 C 0.7916 0.9234 0.28739 0.0
C358 C 0.73743 0.98802 0.25791 0.0
C359 C 0.72006 0.01295 0.27002 0.0
C360 C 0.71533 0.04098 0.25192 0.0
C361 C 0.68289 0.05534 0.25111 0.0
C362 C 0.67671 0.07852 0.23001 0.0
C363 C 0.70313 0.08762 0.20985 0.0
H364 H 0.76853 0.04293 0.23558 0.0
C365 C 0.73672 0.07579 0.21348 0.0
C366 C 0.74277 0.05266 0.2343 0.0
H367 H 0.75776 0.08282 0.19863 0.0
H368 H 0.73115 0.92782 0.34471 0.0
H369 H 0.70592 0.96434 0.3099 0.0
H370 H 0.79099 0.95001 0.24651 0.0
H371 H 0.81611 0.91291 0.28133 0.0
H372 H 0.74735 0.98854 0.23425 0.0
H373 H 0.70923 0.01319 0.29331 0.0
H374 H 0.66165 0.04711 0.26512 0.0
H375 H 0.65057 0.0873 0.22771 0.0
C376 C 0.95837 0.92995 0.41946 0.0
C377 C 0.92789 0.9445 0.40979 0.0
C378 C 0.98514 0.94779 0.43677 0.0
C379 C 0.98175 0.98042 0.44435 0.0
C380 C 0.95277 0.99528 0.43207 0.0
C381 C 0.92591 0.97747 0.41521 0.0
C382 C 0.00656 -0.00051 0.4664 0.0
C383 C 0.02373 0.98727 0.49049 0.0
C384 C 0.0454 0.00736 0.51427 0.0
C385 C 0.0763 0.99563 0.52658 0.0
C386 C 0.09845 0.01486 0.54742 0.0
C387 C 0.0896 0.04594 0.55688 0.0
H388 H 0.01123 0.04714 0.51666 0.0
C389 C 0.0575 0.05697 0.5462 0.0
C390 C 0.03561 0.03789 0.52493 0.0
H391 H 0.05001 0.08079 0.55319 0.0
H392 H 0.96056 0.90458 0.4154 0.0
H393 H 0.00785 0.93582 0.4449 0.0
H394 H 0.94986 0.02047 0.43712 0.0
H395 H 0.90282 0.98931 0.40764 0.0
H396 H 0.0085 0.02489 0.46424 0.0
H397 H 0.02228 0.96194 0.49293 0.0
H398 H 0.084 0.97198 0.51913 0.0
H399 H 0.12293 0.00564 0.55554 0.0
C400 C 0.91191 0.29227 0.77821 0.0
C401 C 0.91114 0.29136 0.81123 0.0
C402 C 0.93375 0.27258 0.76038 0.0
C403 C 0.95551 0.25161 0.77524 0.0
C404 C 0.95463 0.25085 0.80822 0.0
C405 C 0.93288 0.27046 0.82597 0.0
C406 C 0.97851 0.22928 0.75757 0.0
C407 C 0.98831 0.23186 0.72757 0.0
C408 C 0.01181 0.20934 0.71076 0.0
C409 C 0.03062 0.21934 0.68515 0.0
C410 C 0.05309 0.19903 0.66893 0.0
C411 C 0.05712 0.16804 0.67777 0.0
H412 H 0.00045 0.16887 0.73796 0.0
C413 C 0.03776 0.15777 0.70297 0.0
C414 C 0.01531 0.17806 0.71918 0.0
H415 H 0.03989 0.13396 0.71024 0.0
H416 H 0.89533 0.30793 0.76605 0.0
H417 H 0.93283 0.27353 0.73501 0.0
H418 H 0.97086 0.23492 0.82042 0.0
H419 H 0.933 0.26902 0.85133 0.0
H420 H 0.98895 0.21052 0.77065 0.0
H421 H 0.98041 0.252 0.71515 0.0
H422 H 0.02824 0.24313 0.67785 0.0
H423 H 0.06745 0.20773 0.64955 0.0
C424 C 0.54334 0.6761 0.7268 0.0
C425 C 0.5616 0.68488 0.70039 0.0
C426 C 0.5247 0.69828 0.74482 0.0
C427 C 0.52401 0.72998 0.737 0.0
C428 C 0.542 0.73864 0.71042 0.0
C429 C 0.5607 0.71645 0.69241 0.0
C430 C 0.50388 0.75427 0.75521 0.0
C431 C 0.49548 0.75222 0.78565 0.0
C432 C 0.47524 0.77606 0.80433 0.0
C433 C 0.4767 0.77607 0.83743 0.0
C434 C 0.45721 0.79698 0.85607 0.0
C435 C 0.43543 0.81839 0.84213 0.0
H436 H 0.45084 0.79795 0.76488 0.0
C437 C 0.43394 0.81855 0.80899 0.0
C438 C 0.45353 0.7976 0.79027 0.0
H439 H 0.41726 0.83458 0.79744 0.0
H440 H 0.54317 0.65194 0.7335 0.0
H441 H 0.51033 0.69021 0.76442 0.0
H442 H 0.54173 0.76275 0.70358 0.0
H443 H 0.57431 0.72405 0.67215 0.0
H444 H 0.49715 0.7751 0.74333 0.0
H445 H 0.50496 0.73268 0.79818 0.0
H446 H 0.49294 0.75971 0.849 0.0
H447 H 0.45902 0.79609 0.88149 0.0
C448 C 0.18591 0.66404 0.00636 0.0
C449 C 0.16588 0.67027 0.03313 0.0
C450 C 0.20091 0.68881 0.99087 0.0
C451 C 0.19638 0.72039 0.00197 0.0
C452 C 0.17498 0.72662 0.02776 0.0
C453 C 0.15995 0.70181 0.0433 0.0
C454 C 0.21382 0.74739 0.98765 0.0
C455 C 0.24409 0.74529 0.97231 0.0
C456 C 0.26265 0.77328 0.96069 0.0
C457 C 0.2838 0.76945 0.93436 0.0
C458 C 0.30083 0.79574 0.92258 0.0
C459 C 0.2971 0.82621 0.93718 0.0
H460 H 0.24569 0.80734 -0.00271 0.0
C461 C 0.27713 0.82972 0.96432 0.0
C462 C 0.26029 0.8036 0.97603 0.0
H463 H 0.27427 0.85279 0.97655 0.0
H464 H 0.19052 0.63997 -0.00244 0.0
H465 H 0.21601 0.683 0.97031 0.0
H466 H 0.17072 0.75079 0.03651 0.0
H467 H 0.14446 0.70739 0.06371 0.0
H468 H 0.20198 0.77017 0.9913 0.0
H469 H 0.25601 0.72263 0.96818 0.0
H470 H 0.28653 0.7462 0.92249 0.0
H471 H 0.31624 0.79229 0.90176 0.0
C472 C 0.39041 0.44648 0.48084 0.0
C473 C 0.40043 0.43354 0.4512 0.0
C474 C 0.41544 0.45986 0.50309 0.0
C475 C 0.45115 0.46098 0.49607 0.0
C476 C 0.46134 0.4469 0.46697 0.0
C477 C 0.43622 0.43332 0.44468 0.0
C478 C 0.47838 0.47678 0.51832 0.0
C479 C 0.4716 0.49992 0.54059 0.0
C480 C 0.4998 0.5179 0.56005 0.0
C481 C 0.49513 0.54969 0.57032 0.0
C482 C 0.52295 0.56839 0.58506 0.0
C483 C 0.5558 0.55545 0.58976 0.0
H484 H 0.53579 0.47956 0.56114 0.0
C485 C 0.55952 0.523 0.58183 0.0
C486 C 0.53177 0.50435 0.56731 0.0
H487 H 0.58434 0.51219 0.58583 0.0
H488 H 0.36307 0.4465 0.48687 0.0
H489 H 0.40657 0.46923 0.52569 0.0
H490 H 0.48875 0.44708 0.46113 0.0
H491 H 0.44477 0.42336 0.42214 0.0
H492 H 0.50536 0.47086 0.51436 0.0
H493 H 0.44519 0.50822 0.5426 0.0
H494 H 0.4705 0.56051 0.5655 0.0
H495 H 0.5193 0.59329 0.5911 0.0
loop_
_geom_bond_atom_site_label_1
_geom_bond_atom_site_label_2
_geom_bond_distance
_geom_bond_site_symmetry_2
_ccdc_geom_bond_type
Zn0 O3 2.031 . S
Zn0 O5 2.049 . S
Zn0 O10 2.067 . S
Zn1 O2 1.962 . S
Zn1 O4 1.986 . S
Zn1 O6 1.996 . S
Zn1 O9 1.943 . S
O2 Zn1 1.962 . S
O2 C7 1.254 . S
O3 Zn0 2.031 . S
O3 C7 1.269 . S
O4 Zn1 1.986 . S
O4 C11 1.262 . S
O5 Zn0 2.049 . S
O5 C13 1.260 . S
O6 Zn1 1.996 . S
O6 C13 1.257 . S
C7 O2 1.254 . S
C7 O3 1.269 . S
C8 O9 1.249 . S
C8 O10 1.270 . S
O9 Zn1 1.943 . S
O9 C8 1.249 . S
O10 Zn0 2.067 . S
O10 C8 1.270 . S
C11 O4 1.262 . S
C11 O12 1.232 . S
O12 C11 1.232 . S
C13 O5 1.260 . S
C13 O6 1.257 . S
Zn14 O17 2.031 . S
Zn14 O19 2.049 . S
Zn14 O24 2.067 . S
Zn15 O16 1.962 . S
Zn15 O18 1.986 . S
Zn15 O20 1.996 . S
Zn15 O23 1.943 . S
O16 Zn15 1.962 . S
O16 C21 1.254 . S
O17 Zn14 2.031 . S
O17 C21 1.269 . S
O18 Zn15 1.986 . S
O18 C25 1.262 . S
O19 Zn14 2.049 . S
O19 C27 1.260 . S
O20 Zn15 1.996 . S
O20 C27 1.257 . S
C21 O16 1.254 . S
C21 O17 1.269 . S
C22 O23 1.249 . S
C22 O24 1.270 . S
O23 Zn15 1.943 . S
O23 C22 1.249 . S
O24 Zn14 2.067 . S
O24 C22 1.270 . S
C25 O18 1.262 . S
C25 O26 1.232 . S
O26 C25 1.232 . S
C27 O19 1.260 . S
C27 O20 1.257 . S
Zn28 O31 2.031 . S
Zn28 O33 2.049 . S
Zn28 O38 2.067 . S
Zn29 O30 1.962 . S
Zn29 O32 1.986 . S
Zn29 O34 1.996 . S
Zn29 O37 1.943 . S
O30 Zn29 1.962 . S
O30 C35 1.254 . S
O31 Zn28 2.031 . S
O31 C35 1.269 . S
O32 Zn29 1.986 . S
O32 C39 1.262 . S
O33 Zn28 2.049 . S
O33 C41 1.260 . S
O34 Zn29 1.996 . S
O34 C41 1.257 . S
C35 O30 1.254 . S
C35 O31 1.269 . S
C36 O37 1.249 . S
C36 O38 1.270 . S
O37 Zn29 1.943 . S
O37 C36 1.249 . S
O38 Zn28 2.067 . S
O38 C36 1.270 . S
C39 O32 1.262 . S
C39 O40 1.232 . S
O40 C39 1.232 . S
C41 O33 1.260 . S
C41 O34 1.257 . S
Zn42 O45 2.031 . S
Zn42 O47 2.049 . S
Zn42 O52 2.067 . S
Zn43 O44 1.962 . S
Zn43 O46 1.986 . S
Zn43 O48 1.996 . S
Zn43 O51 1.943 . S
O44 Zn43 1.962 . S
O44 C49 1.254 . S
O45 Zn42 2.031 . S
O45 C49 1.269 . S
O46 Zn43 1.986 . S
O46 C53 1.262 . S
O47 Zn42 2.049 . S
O47 C55 1.260 . S
O48 Zn43 1.996 . S
O48 C55 1.257 . S
C49 O44 1.254 . S
C49 O45 1.269 . S
C50 O51 1.249 . S
C50 O52 1.270 . S
O51 Zn43 1.943 . S
O51 C50 1.249 . S
O52 Zn42 2.067 . S
O52 C50 1.270 . S
C53 O46 1.262 . S
C53 O54 1.232 . S
O54 C53 1.232 . S
C55 O47 1.260 . S
C55 O48 1.257 . S
Zn56 O59 2.031 . S
Zn56 O61 2.049 . S
Zn56 O66 2.067 . S
Zn57 O58 1.962 . S
Zn57 O60 1.986 . S
Zn57 O62 1.996 . S
Zn57 O65 1.943 . S
O58 Zn57 1.962 . S
O58 C63 1.254 . S
O59 Zn56 2.031 . S
O59 C63 1.269 . S
O60 Zn57 1.986 . S
O60 C67 1.262 . S
O61 Zn56 2.049 . S
O61 C69 1.260 . S
O62 Zn57 1.996 . S
O62 C69 1.257 . S
C63 O58 1.254 . S
C63 O59 1.269 . S
C64 O65 1.249 . S
C64 O66 1.270 . S
O65 Zn57 1.943 . S
O65 C64 1.249 . S
O66 Zn56 2.067 . S
O66 C64 1.270 . S
C67 O60 1.262 . S
C67 O68 1.232 . S
O68 C67 1.232 . S
C69 O61 1.260 . S
C69 O62 1.257 . S
Zn70 O73 2.031 . S
Zn70 O75 2.049 . S
Zn70 O80 2.067 . S
Zn71 O72 1.962 . S
Zn71 O74 1.986 . S
Zn71 O76 1.996 . S
Zn71 O79 1.943 . S
O72 Zn71 1.962 . S
O72 C77 1.254 . S
O73 Zn70 2.031 . S
O73 C77 1.269 . S
O74 Zn71 1.986 . S
O74 C81 1.262 . S
O75 Zn70 2.049 . S
O75 C83 1.260 . S
O76 Zn71 1.996 . S
O76 C83 1.257 . S
C77 O72 1.254 . S
C77 O73 1.269 . S
C78 O79 1.249 . S
C78 O80 1.270 . S
O79 Zn71 1.943 . S
O79 C78 1.249 . S
O80 Zn70 2.067 . S
O80 C78 1.270 . S
C81 O74 1.262 . S
C81 O82 1.232 . S
O82 C81 1.232 . S
C83 O75 1.260 . S
C83 O76 1.257 . S
Zn84 O87 2.031 . S
Zn84 O89 2.049 . S
Zn84 O94 2.067 . S
Zn85 O86 1.962 . S
Zn85 O88 1.986 . S
Zn85 O90 1.996 . S
Zn85 O93 1.943 . S
O86 Zn85 1.962 . S
O86 C91 1.254 . S
O87 Zn84 2.031 . S
O87 C91 1.269 . S
O88 Zn85 1.986 . S
O88 C95 1.262 . S
O89 Zn84 2.049 . S
O89 C97 1.260 . S
O90 Zn85 1.996 . S
O90 C97 1.257 . S
C91 O86 1.254 . S
C91 O87 1.269 . S
C92 O93 1.249 . S
C92 O94 1.270 . S
O93 Zn85 1.943 . S
O93 C92 1.249 . S
O94 Zn84 2.067 . S
O94 C92 1.270 . S
C95 O88 1.262 . S
C95 O96 1.232 . S
O96 C95 1.232 . S
C97 O89 1.260 . S
C97 O90 1.257 . S
Zn98 O101 2.031 . S
Zn98 O103 2.049 . S
Zn98 O108 2.067 . S
Zn99 O100 1.962 . S
Zn99 O102 1.986 . S
Zn99 O104 1.996 . S
Zn99 O107 1.943 . S
O100 Zn99 1.962 . S
O100 C105 1.254 . S
O101 Zn98 2.031 . S
O101 C105 1.269 . S
O102 Zn99 1.986 . S
O102 C109 1.262 . S
O103 Zn98 2.049 . S
O103 C111 1.260 . S
O104 Zn99 1.996 . S
O104 C111 1.257 . S
C105 O100 1.254 . S
C105 O101 1.269 . S
C106 O107 1.249 . S
C106 O108 1.270 . S
O107 Zn99 1.943 . S
O107 C106 1.249 . S
O108 Zn98 2.067 . S
O108 C106 1.270 . S
C109 O102 1.262 . S
C109 O110 1.232 . S
O110 C109 1.232 . S
C111 O103 1.260 . S
C111 O104 1.257 . S
C112 C113 1.386 . S
C112 C114 1.383 . S
C112 H128 0.951 . S
C113 C112 1.386 . S
C113 C117 1.383 . S
C114 C112 1.383 . S
C114 C115 1.402 . S
C114 H129 0.951 . S
C115 C114 1.402 . S
C115 C116 1.375 . S
C115 C118 1.481 . S
C116 C115 1.375 . S
C116 C117 1.367 . S
C116 H130 0.951 . S
C117 C113 1.383 . S
C117 C116 1.367 . S
C117 H131 0.950 . S
C118 C115 1.481 . S
C118 C119 1.297 . S
C118 H132 0.950 . S
C119 C118 1.297 . S
C119 C120 1.479 . S
C119 H133 0.950 . S
C120 C119 1.479 . S
C120 C121 1.375 . S
C120 C126 1.404 . S
C121 C120 1.375 . S
C121 C122 1.369 . S
C121 H134 0.950 . S
C122 C121 1.369 . S
C122 C123 1.392 . S
C122 H135 0.951 . S
C123 C122 1.392 . S
C123 C125 1.384 . S
H124 C126 0.949 . S
C125 C123 1.384 . S
C125 C126 1.385 . S
C125 H127 0.950 . S
C126 C120 1.404 . S
C126 H124 0.949 . S
C126 C125 1.385 . S
H127 C125 0.950 . S
H128 C112 0.951 . S
H129 C114 0.951 . S
H130 C116 0.951 . S
H131 C117 0.950 . S
H132 C118 0.950 . S
H133 C119 0.950 . S
H134 C121 0.950 . S
H135 C122 0.951 . S
C136 C137 1.386 . S
C136 C138 1.383 . S
C136 H152 0.951 . S
C137 C136 1.386 . S
C137 C141 1.383 . S
C138 C136 1.383 . S
C138 C139 1.402 . S
C138 H153 0.951 . S
C139 C138 1.402 . S
C139 C140 1.375 . S
C139 C142 1.481 . S
C140 C139 1.375 . S
C140 C141 1.367 . S
C140 H154 0.951 . S
C141 C137 1.383 . S
C141 C140 1.367 . S
C141 H155 0.950 . S
C142 C139 1.481 . S
C142 C143 1.297 . S
C142 H156 0.950 . S
C143 C142 1.297 . S
C143 C144 1.479 . S
C143 H157 0.950 . S
C144 C143 1.479 . S
C144 C145 1.375 . S
C144 C150 1.404 . S
C145 C144 1.375 . S
C145 C146 1.369 . S
C145 H158 0.950 . S
C146 C145 1.369 . S
C146 C147 1.392 . S
C146 H159 0.951 . S
C147 C146 1.392 . S
C147 C149 1.384 . S
H148 C150 0.949 . S
C149 C147 1.384 . S
C149 C150 1.385 . S
C149 H151 0.950 . S
C150 C144 1.404 . S
C150 H148 0.949 . S
C150 C149 1.385 . S
H151 C149 0.950 . S
H152 C136 0.951 . S
H153 C138 0.951 . S
H154 C140 0.951 . S
H155 C141 0.950 . S
H156 C142 0.950 . S
H157 C143 0.950 . S
H158 C145 0.950 . S
H159 C146 0.951 . S
C160 C161 1.386 . S
C160 C162 1.383 . S
C160 H176 0.951 . S
C161 C160 1.386 . S
C161 C165 1.383 . S
C162 C160 1.383 . S
C162 C163 1.402 . S
C162 H177 0.951 . S
C163 C162 1.402 . S
C163 C164 1.375 . S
C163 C166 1.481 1_554 S
C164 C163 1.375 . S
C164 C165 1.367 . S
C164 H178 0.951 . S
C165 C161 1.383 . S
C165 C164 1.367 . S
C165 H179 0.950 . S
C166 C163 1.481 1_556 S
C166 C167 1.297 . S
C166 H180 0.950 1_545 S
C167 C166 1.297 . S
C167 C168 1.479 1_545 S
C167 H181 0.950 . S
C168 C167 1.479 1_565 S
C168 C169 1.375 . S
C168 C174 1.404 . S
C169 C168 1.375 . S
C169 C170 1.369 . S
C169 H182 0.950 . S
C170 C169 1.369 . S
C170 C171 1.392 . S
C170 H183 0.951 . S
C171 C170 1.392 . S
C171 C173 1.384 . S
H172 C174 0.949 . S
C173 C171 1.384 . S
C173 C174 1.385 . S
C173 H175 0.950 . S
C174 C168 1.404 . S
C174 H172 0.949 . S
C174 C173 1.385 . S
H175 C173 0.950 . S
H176 C160 0.951 . S
H177 C162 0.951 . S
H178 C164 0.951 . S
H179 C165 0.950 . S
H180 C166 0.950 1_565 S
H181 C167 0.950 . S
H182 C169 0.950 . S
H183 C170 0.951 . S
C184 C185 1.386 . S
C184 C186 1.383 . S
C184 H200 0.951 . S
C185 C184 1.386 . S
C185 C189 1.383 . S
C186 C184 1.383 . S
C186 C187 1.402 . S
C186 H201 0.951 . S
C187 C186 1.402 . S
C187 C188 1.375 . S
C187 C190 1.481 1_655 S
C188 C187 1.375 . S
C188 C189 1.367 . S
C188 H202 0.951 . S
C189 C185 1.383 . S
C189 C188 1.367 . S
C189 H203 0.950 . S
C190 C187 1.481 1_455 S
C190 C191 1.297 . S
C190 H204 0.950 . S
C191 C190 1.297 . S
C191 C192 1.479 . S
C191 H205 0.950 . S
C192 C191 1.479 . S
C192 C193 1.375 . S
C192 C198 1.404 . S
C193 C192 1.375 . S
C193 C194 1.369 . S
C193 H206 0.950 . S
C194 C193 1.369 . S
C194 C195 1.392 . S
C194 H207 0.951 . S
C195 C194 1.392 . S
C195 C197 1.384 . S
H196 C198 0.949 . S
C197 C195 1.384 . S
C197 C198 1.385 . S
C197 H199 0.950 . S
C198 C192 1.404 . S
C198 H196 0.949 . S
C198 C197 1.385 . S
H199 C197 0.950 . S
H200 C184 0.951 . S
H201 C186 0.951 . S
H202 C188 0.951 . S
H203 C189 0.950 . S
H204 C190 0.950 . S
H205 C191 0.950 . S
H206 C193 0.950 . S
H207 C194 0.951 . S
C208 C209 1.386 . S
C208 C210 1.383 . S
C208 H224 0.951 . S
C209 C208 1.386 . S
C209 C213 1.383 . S
C210 C208 1.383 . S
C210 C211 1.402 . S
C210 H225 0.951 . S
C211 C210 1.402 . S
C211 C212 1.375 . S
C211 C214 1.481 1_565 S
C212 C211 1.375 . S
C212 C213 1.367 . S
C212 H226 0.951 1_565 S
C213 C209 1.383 . S
C213 C212 1.367 . S
C213 H227 0.950 . S
C214 C211 1.481 1_545 S
C214 C215 1.297 . S
C214 H228 0.950 . S
C215 C214 1.297 . S
C215 C216 1.479 . S
C215 H229 0.950 1_545 S
C216 C215 1.479 . S
C216 C217 1.375 . S
C216 C222 1.404 . S
C217 C216 1.375 . S
C217 C218 1.369 . S
C217 H230 0.950 1_545 S
C218 C217 1.369 . S
C218 C219 1.392 . S
C218 H231 0.951 . S
C219 C218 1.392 . S
C219 C221 1.384 . S
H220 C222 0.949 . S
C221 C219 1.384 . S
C221 C222 1.385 . S
C221 H223 0.950 . S
C222 C216 1.404 . S
C222 H220 0.949 . S
C222 C221 1.385 . S
H223 C221 0.950 . S
H224 C208 0.951 . S
H225 C210 0.951 . S
H226 C212 0.951 1_545 S
H227 C213 0.950 . S
H228 C214 0.950 . S
H229 C215 0.950 1_565 S
H230 C217 0.950 1_565 S
H231 C218 0.951 . S
C232 C233 1.386 . S
C232 C234 1.383 . S
C232 H248 0.951 . S
C233 C232 1.386 . S
C233 C237 1.383 . S
C234 C232 1.383 . S
C234 C235 1.402 . S
C234 H249 0.951 . S
C235 C234 1.402 . S
C235 C236 1.375 . S
C235 C238 1.481 1_556 S
C236 C235 1.375 . S
C236 C237 1.367 . S
C236 H250 0.951 . S
C237 C233 1.383 . S
C237 C236 1.367 . S
C237 H251 0.950 . S
C238 C235 1.481 1_554 S
C238 C239 1.297 . S
C238 H252 0.950 1_655 S
C239 C238 1.297 . S
C239 C240 1.479 1_655 S
C239 H253 0.950 . S
C240 C239 1.479 1_455 S
C240 C241 1.375 . S
C240 C246 1.404 . S
C241 C240 1.375 . S
C241 C242 1.369 . S
C241 H254 0.955 . S
C242 C241 1.369 . S
C242 C243 1.392 . S
C242 H255 0.951 . S
C243 C242 1.392 . S
C243 C245 1.384 . S
H244 C246 0.949 . S
C245 C243 1.384 . S
C245 C246 1.385 . S
C245 H247 0.950 . S
C246 C240 1.404 . S
C246 H244 0.949 . S
C246 C245 1.385 . S
H247 C245 0.950 . S
H248 C232 0.951 . S
H249 C234 0.951 . S
H250 C236 0.951 . S
H251 C237 0.950 . S
H252 C238 0.950 1_455 S
H253 C239 0.950 . S
H254 C241 0.955 . S
H255 C242 0.951 . S
C256 C257 1.386 . S
C256 C258 1.383 . S
C256 H272 0.951 . S
C257 C256 1.386 . S
C257 C261 1.383 . S
C258 C256 1.383 . S
C258 C259 1.402 . S
C258 H273 0.951 . S
C259 C258 1.402 . S
C259 C260 1.375 . S
C259 C262 1.481 . S
C260 C259 1.375 . S
C260 C261 1.367 . S
C260 H274 0.951 . S
C261 C257 1.383 . S
C261 C260 1.367 . S
C261 H275 0.950 . S
C262 C259 1.481 . S
C262 C263 1.297 . S
C262 H276 0.950 . S
C263 C262 1.297 . S
C263 C264 1.479 . S
C263 H277 0.950 . S
C264 C263 1.479 . S
C264 C265 1.375 . S
C264 C270 1.404 . S
C265 C264 1.375 . S
C265 C266 1.369 . S
C265 H278 0.950 . S
C266 C265 1.369 . S
C266 C267 1.392 . S
C266 H279 0.951 . S
C267 C266 1.392 . S
C267 C269 1.384 . S
H268 C270 0.949 . S
C269 C267 1.384 . S
C269 C270 1.385 . S
C269 H271 0.950 . S
C270 C264 1.404 . S
C270 H268 0.949 . S
C270 C269 1.385 . S
H271 C269 0.950 . S
H272 C256 0.951 . S
H273 C258 0.951 . S
H274 C260 0.951 . S
H275 C261 0.950 . S
H276 C262 0.950 . S
H277 C263 0.950 . S
H278 C265 0.950 . S
H279 C266 0.951 . S
C280 C281 1.386 . S
C280 C282 1.383 . S
C280 H296 0.951 . S
C281 C280 1.386 . S
C281 C285 1.383 . S
C282 C280 1.383 . S
C282 C283 1.402 . S
C282 H297 0.951 . S
C283 C282 1.402 . S
C283 C284 1.375 . S
C283 C286 1.481 . S
C284 C283 1.375 . S
C284 C285 1.367 . S
C284 H298 0.951 . S
C285 C281 1.383 . S
C285 C284 1.367 . S
C285 H299 0.950 . S
C286 C283 1.481 . S
C286 C287 1.297 . S
C286 H300 0.950 . S
C287 C286 1.297 . S
C287 C288 1.479 . S
C287 H301 0.950 . S
C288 C287 1.479 . S
C288 C289 1.375 . S
C288 C294 1.404 . S
C289 C288 1.375 . S
C289 C290 1.369 . S
C289 H302 0.950 . S
C290 C289 1.369 . S
C290 C291 1.392 . S
C290 H303 0.951 . S
C291 C290 1.392 . S
C291 C293 1.384 . S
H292 C294 0.949 . S
C293 C291 1.384 . S
C293 C294 1.385 . S
C293 H295 0.950 . S
C294 C288 1.404 . S
C294 H292 0.949 . S
C294 C293 1.385 . S
H295 C293 0.950 . S
H296 C280 0.951 . S
H297 C282 0.951 . S
H298 C284 0.951 . S
H299 C285 0.950 . S
H300 C286 0.950 . S
H301 C287 0.950 . S
H302 C289 0.950 . S
H303 C290 0.951 . S
C304 C305 1.386 . S
C304 C306 1.383 . S
C304 H320 0.951 . S
C305 C304 1.386 . S
C305 C309 1.383 . S
C306 C304 1.383 . S
C306 C307 1.402 . S
C306 H321 0.951 . S
C307 C306 1.402 . S
C307 C308 1.375 . S
C307 C310 1.481 . S
C308 C307 1.375 . S
C308 C309 1.367 . S
C308 H322 0.951 . S
C309 C305 1.383 . S
C309 C308 1.367 . S
C309 H323 0.950 . S
C310 C307 1.481 . S
C310 C311 1.297 . S
C310 H324 0.950 . S
C311 C310 1.297 . S
C311 C312 1.479 . S
C311 H325 0.950 . S
C312 C311 1.479 . S
C312 C313 1.375 . S
C312 C318 1.404 . S
C313 C312 1.375 . S
C313 C314 1.369 . S
C313 H326 0.950 . S
C314 C313 1.369 . S
C314 C315 1.392 . S
C314 H327 0.951 . S
C315 C314 1.392 . S
C315 C317 1.384 . S
H316 C318 0.949 . S
C317 C315 1.384 . S
C317 C318 1.385 . S
C317 H319 0.950 . S
C318 C312 1.404 . S
C318 H316 0.949 . S
C318 C317 1.385 . S
H319 C317 0.950 . S
H320 C304 0.951 . S
H321 C306 0.951 . S
H322 C308 0.951 . S
H323 C309 0.950 . S
H324 C310 0.950 . S
H325 C311 0.950 . S
H326 C313 0.950 . S
H327 C314 0.951 . S
C328 C329 1.386 . S
C328 C330 1.383 . S
C328 H344 0.951 . S
C329 C328 1.386 . S
C329 C333 1.383 . S
C330 C328 1.383 . S
C330 C331 1.402 . S
C330 H345 0.951 . S
C331 C330 1.402 . S
C331 C332 1.375 . S
C331 C334 1.481 . S
C332 C331 1.375 . S
C332 C333 1.367 . S
C332 H346 0.951 . S
C333 C329 1.383 . S
C333 C332 1.367 . S
C333 H347 0.950 . S
C334 C331 1.481 . S
C334 C335 1.297 . S
C334 H348 0.950 1_556 S
C335 C334 1.297 . S
C335 C336 1.479 1_556 S
C335 H349 0.950 . S
C336 C335 1.479 1_554 S
C336 C337 1.375 . S
C336 C342 1.404 . S
C337 C336 1.375 . S
C337 C338 1.369 . S
C337 H350 0.950 . S
C338 C337 1.369 . S
C338 C339 1.392 . S
C338 H351 0.951 . S
C339 C338 1.392 . S
C339 C341 1.384 . S
H340 C342 0.949 . S
C341 C339 1.384 . S
C341 C342 1.385 . S
C341 H343 0.950 . S
C342 C336 1.404 . S
C342 H340 0.949 . S
C342 C341 1.385 . S
H343 C341 0.950 . S
H344 C328 0.951 . S
H345 C330 0.951 . S
H346 C332 0.951 . S
H347 C333 0.950 . S
H348 C334 0.950 1_554 S
H349 C335 0.950 . S
H350 C337 0.950 . S
H351 C338 0.951 . S
C352 C353 1.386 . S
C352 C354 1.383 . S
C352 H368 0.951 . S
C353 C352 1.386 . S
C353 C357 1.383 . S
C354 C352 1.383 . S
C354 C355 1.402 . S
C354 H369 0.951 . S
C355 C354 1.402 . S
C355 C356 1.375 . S
C355 C358 1.481 1_565 S
C356 C355 1.375 . S
C356 C357 1.367 . S
C356 H370 0.951 . S
C357 C353 1.383 . S
C357 C356 1.367 . S
C357 H371 0.950 . S
C358 C355 1.481 1_545 S
C358 C359 1.297 . S
C358 H372 0.950 . S
C359 C358 1.297 . S
C359 C360 1.479 . S
C359 H373 0.950 . S
C360 C359 1.479 . S
C360 C361 1.375 . S
C360 C366 1.404 . S
C361 C360 1.375 . S
C361 C362 1.369 . S
C361 H374 0.950 . S
C362 C361 1.369 . S
C362 C363 1.392 . S
C362 H375 0.951 . S
C363 C362 1.392 . S
C363 C365 1.384 . S
H364 C366 0.949 . S
C365 C363 1.384 . S
C365 C366 1.385 . S
C365 H367 0.950 . S
C366 C360 1.404 . S
C366 H364 0.949 . S
C366 C365 1.385 . S
H367 C365 0.950 . S
H368 C352 0.951 . S
H369 C354 0.951 . S
H370 C356 0.951 . S
H371 C357 0.950 . S
H372 C358 0.950 . S
H373 C359 0.950 . S
H374 C361 0.950 . S
H375 C362 0.951 . S
C376 C377 1.386 . S
C376 C378 1.383 . S
C376 H392 0.951 . S
C377 C376 1.386 . S
C377 C381 1.383 . S
C378 C376 1.383 . S
C378 C379 1.402 . S
C378 H393 0.951 . S
C379 C378 1.402 . S
C379 C380 1.375 . S
C379 C382 1.481 1_565 S
C380 C379 1.375 . S
C380 C381 1.367 . S
C380 H394 0.951 1_565 S
C381 C377 1.383 . S
C381 C380 1.367 . S
C381 H395 0.950 . S
C382 C379 1.481 1_545 S
C382 C383 1.302 1_655 S
C382 H396 0.950 . S
C383 C382 1.302 1_455 S
C383 C384 1.497 . S
C383 H397 0.927 1_545 S
C384 C383 1.497 . S
C384 C385 1.375 . S
C384 C390 1.404 . S
C385 C384 1.375 . S
C385 C386 1.369 . S
C385 H398 0.950 1_545 S
C386 C385 1.369 . S
C386 C387 1.392 . S
C386 H399 0.951 . S
C387 C386 1.392 . S
C387 C389 1.384 . S
H388 C390 0.949 . S
C389 C387 1.384 . S
C389 C390 1.385 . S
C389 H391 0.950 . S
C390 C384 1.404 . S
C390 H388 0.949 . S
C390 C389 1.385 . S
H391 C389 0.950 . S
H392 C376 0.951 . S
H393 C378 0.951 . S
H394 C380 0.951 1_545 S
H395 C381 0.950 . S
H396 C382 0.950 . S
H397 C383 0.927 1_565 S
H398 C385 0.950 1_565 S
H399 C386 0.951 . S
C400 C401 1.386 . S
C400 C402 1.383 . S
C400 H416 0.951 . S
C401 C400 1.386 . S
C401 C405 1.383 . S
C402 C400 1.383 . S
C402 C403 1.402 . S
C402 H417 0.951 . S
C403 C402 1.402 . S
C403 C404 1.375 . S
C403 C406 1.472 1_655 S
C404 C403 1.375 . S
C404 C405 1.367 . S
C404 H418 0.951 . S
C405 C401 1.383 . S
C405 C404 1.367 . S
C405 H419 0.950 . S
C406 C403 1.472 1_455 S
C406 C407 1.306 . S
C406 H420 0.950 1_455 S
C407 C406 1.306 . S
C407 C408 1.479 . S
C407 H421 0.950 . S
C408 C407 1.479 . S
C408 C409 1.375 . S
C408 C414 1.404 . S
C409 C408 1.375 . S
C409 C410 1.369 . S
C409 H422 0.950 . S
C410 C409 1.369 . S
C410 C411 1.392 . S
C410 H423 0.951 . S
C411 C410 1.392 . S
C411 C413 1.384 . S
H412 C414 0.949 . S
C413 C411 1.384 . S
C413 C414 1.385 . S
C413 H415 0.950 . S
C414 C408 1.404 . S
C414 H412 0.949 . S
C414 C413 1.385 . S
H415 C413 0.950 . S
H416 C400 0.951 . S
H417 C402 0.951 . S
H418 C404 0.951 . S
H419 C405 0.950 . S
H420 C406 0.950 1_655 S
H421 C407 0.950 . S
H422 C409 0.950 . S
H423 C410 0.951 . S
C424 C425 1.386 . S
C424 C426 1.383 . S
C424 H440 0.951 . S
C425 C424 1.386 . S
C425 C429 1.383 . S
C426 C424 1.383 . S
C426 C427 1.402 . S
C426 H441 0.951 . S
C427 C426 1.402 . S
C427 C428 1.375 . S
C427 C430 1.481 . S
C428 C427 1.375 . S
C428 C429 1.367 . S
C428 H442 0.951 . S
C429 C425 1.383 . S
C429 C428 1.367 . S
C429 H443 0.950 . S
C430 C427 1.481 . S
C430 C431 1.297 . S
C430 H444 0.950 . S
C431 C430 1.297 . S
C431 C432 1.479 . S
C431 H445 0.950 . S
C432 C431 1.479 . S
C432 C433 1.375 . S
C432 C438 1.404 . S
C433 C432 1.375 . S
C433 C434 1.369 . S
C433 H446 0.950 . S
C434 C433 1.369 . S
C434 C435 1.392 . S
C434 H447 0.951 . S
C435 C434 1.392 . S
C435 C437 1.384 . S
H436 C438 0.949 . S
C437 C435 1.384 . S
C437 C438 1.385 . S
C437 H439 0.950 . S
C438 C432 1.404 . S
C438 H436 0.949 . S
C438 C437 1.385 . S
H439 C437 0.950 . S
H440 C424 0.951 . S
H441 C426 0.951 . S
H442 C428 0.951 . S
H443 C429 0.950 . S
H444 C430 0.950 . S
H445 C431 0.950 . S
H446 C433 0.950 . S
H447 C434 0.951 . S
C448 C449 1.386 . S
C448 C450 1.383 . S
C448 H464 0.951 . S
C449 C448 1.386 . S
C449 C453 1.383 . S
C450 C448 1.383 . S
C450 C451 1.402 . S
C450 H465 0.937 1_554 S
C451 C450 1.402 . S
C451 C452 1.375 . S
C451 C454 1.481 . S
C452 C451 1.375 . S
C452 C453 1.367 . S
C452 H466 0.951 . S
C453 C449 1.383 . S
C453 C452 1.367 . S
C453 H467 0.950 . S
C454 C451 1.481 . S
C454 C455 1.297 1_554 S
C454 H468 0.950 . S
C455 C454 1.297 1_556 S
C455 C456 1.479 . S
C455 H469 0.950 . S
C456 C455 1.479 . S
C456 C457 1.375 . S
C456 C462 1.404 . S
C457 C456 1.375 . S
C457 C458 1.369 . S
C457 H470 0.950 . S
C458 C457 1.369 . S
C458 C459 1.392 . S
C458 H471 0.951 . S
C459 C458 1.392 . S
C459 C461 1.384 . S
H460 C462 0.949 1_554 S
C461 C459 1.384 . S
C461 C462 1.385 . S
C461 H463 0.950 . S
C462 C456 1.404 . S
C462 H460 0.949 1_556 S
C462 C461 1.385 . S
H463 C461 0.950 . S
H464 C448 0.951 . S
H465 C450 0.937 1_556 S
H466 C452 0.951 . S
H467 C453 0.950 . S
H468 C454 0.950 . S
H469 C455 0.950 . S
H470 C457 0.950 . S
H471 C458 0.951 . S
C472 C473 1.386 . S
C472 C474 1.383 . S
C472 H488 0.951 . S
C473 C472 1.386 . S
C473 C477 1.383 . S
C474 C472 1.383 . S
C474 C475 1.402 . S
C474 H489 0.951 . S
C475 C474 1.402 . S
C475 C476 1.375 . S
C475 C478 1.481 . S
C476 C475 1.375 . S
C476 C477 1.367 . S
C476 H490 0.951 . S
C477 C473 1.383 . S
C477 C476 1.367 . S
C477 H491 0.950 . S
C478 C475 1.481 . S
C478 C479 1.297 . S
C478 H492 0.950 . S
C479 C478 1.297 . S
C479 C480 1.479 . S
C479 H493 0.950 . S
C480 C479 1.479 . S
C480 C481 1.375 . S
C480 C486 1.404 . S
C481 C480 1.375 . S
C481 C482 1.369 . S
C481 H494 0.950 . S
C482 C481 1.369 . S
C482 C483 1.392 . S
C482 H495 0.951 . S
C483 C482 1.392 . S
C483 C485 1.384 . S
H484 C486 0.949 . S
C485 C483 1.384 . S
C485 C486 1.385 . S
C485 H487 0.950 . S
C486 C480 1.404 . S
C486 H484 0.949 . S
C486 C485 1.385 . S
H487 C485 0.950 . S
H488 C472 0.951 . S
H489 C474 0.951 . S
H490 C476 0.951 . S
H491 C477 0.950 . S
H492 C478 0.950 . S
H493 C479 0.950 . S
H494 C481 0.950 . S
H495 C482 0.951 . S
C113 C77 1.482 . S
C123 C13 1.455 . S
C137 C105 1.479 . S
C147 C27 1.455 . S
C161 C36 1.432 . S
C171 C92 1.418 . S
C185 C53 1.484 . S
C195 C67 1.479 . S
C209 C97 1.371 . S
C219 C7 1.501 . S
C233 C22 1.472 . S
C243 C64 1.491 . S
C257 C81 1.499 . S
C267 C39 1.493 . S
C281 C49 1.498 . S
C291 C111 1.320 . S
C305 C63 1.500 . S
C315 C83 1.324 . S
C329 C21 1.500 . S
C339 C41 1.349 . S
C353 C55 1.403 . S
C363 C35 1.490 . S
C377 C50 1.443 . S
C387 C8 1.408 . S
C401 C25 1.482 . S
C411 C11 1.475 . S
C425 C109 1.500 . S
C435 C95 1.498 . S
C449 C69 1.425 . S
C459 C91 1.462 . S
C473 C78 1.474 . S
C483 C106 1.493 . S
