# Generated by pormake.
# Topology vmg, (6)-cn, num edge types: 1
# Building blocks:
#     Node 0, Type 0, BuildingBlock: IZENUY_clean_sbu_0, # of connection points: 6
#     Node 1, Type 0, BuildingBlock: IZENUY_clean_sbu_0, # of connection points: 6
#     Node 2, Type 0, BuildingBlock: IZENUY_clean_sbu_0, # of connection points: 6
#     Node 3, Type 0, BuildingBlock: IZENUY_clean_sbu_0, # of connection points: 6
#     Node 4, Type 0, BuildingBlock: IZENUY_clean_sbu_0, # of connection points: 6
#     Node 5, Type 0, BuildingBlock: IZENUY_clean_sbu_0, # of connection points: 6
#     Node 6, Type 0, BuildingBlock: IZENUY_clean_sbu_0, # of connection points: 6
#     Node 7, Type 0, BuildingBlock: IZENUY_clean_sbu_0, # of connection points: 6
#     Edge 8, Type (0, 0), BuildingBlock: CIFDUS_clean_linker_0, # of connection points: 2
#     Edge 9, Type (0, 0), BuildingBlock: CIFDUS_clean_linker_0, # of connection points: 2
#     Edge 10, Type (0, 0), BuildingBlock: CIFDUS_clean_linker_0, # of connection points: 2
#     Edge 11, Type (0, 0), BuildingBlock: CIFDUS_clean_linker_0, # of connection points: 2
#     Edge 12, Type (0, 0), BuildingBlock: CIFDUS_clean_linker_0, # of connection points: 2
#     Edge 13, Type (0, 0), BuildingBlock: CIFDUS_clean_linker_0, # of connection points: 2
#     Edge 14, Type (0, 0), BuildingBlock: CIFDUS_clean_linker_0, # of connection points: 2
#     Edge 15, Type (0, 0), BuildingBlock: CIFDUS_clean_linker_0, # of connection points: 2
#     Edge 16, Type (0, 0), BuildingBlock: CIFDUS_clean_linker_0, # of connection points: 2
#     Edge 17, Type (0, 0), BuildingBlock: CIFDUS_clean_linker_0, # of connection points: 2
#     Edge 18, Type (0, 0), BuildingBlock: CIFDUS_clean_linker_0, # of connection points: 2
#     Edge 19, Type (0, 0), BuildingBlock: CIFDUS_clean_linker_0, # of connection points: 2
#     Edge 20, Type (0, 0), BuildingBlock: CIFDUS_clean_linker_0, # of connection points: 2
#     Edge 21, Type (0, 0), BuildingBlock: CIFDUS_clean_linker_0, # of connection points: 2
#     Edge 22, Type (0, 0), BuildingBlock: CIFDUS_clean_linker_0, # of connection points: 2
#     Edge 23, Type (0, 0), BuildingBlock: CIFDUS_clean_linker_0, # of connection points: 2
#     Edge 24, Type (0, 0), BuildingBlock: CIFDUS_clean_linker_0, # of connection points: 2
#     Edge 25, Type (0, 0), BuildingBlock: CIFDUS_clean_linker_0, # of connection points: 2
#     Edge 26, Type (0, 0), BuildingBlock: CIFDUS_clean_linker_0, # of connection points: 2
#     Edge 27, Type (0, 0), BuildingBlock: CIFDUS_clean_linker_0, # of connection points: 2
#     Edge 28, Type (0, 0), BuildingBlock: CIFDUS_clean_linker_0, # of connection points: 2
#     Edge 29, Type (0, 0), BuildingBlock: CIFDUS_clean_linker_0, # of connection points: 2
#     Edge 30, Type (0, 0), BuildingBlock: CIFDUS_clean_linker_0, # of connection points: 2
#     Edge 31, Type (0, 0), BuildingBlock: CIFDUS_clean_linker_0, # of connection points: 2
# Relax obj value: 0.255
# Max RMSD: 0.238
# Mean RMSD: 0.238
data_MOF--net-vmg--node1-IZENUY_clean_sbu_0--edge1-CIFDUS_clean_linker_0
_symmetry_space_group_name_H-M    P1
_symmetry_Int_Tables_number       1
_symmetry_cell_setting            triclinic
loop_
_symmetry_equiv_pos_as_xyz
'x, y, z'
_cell_length_a     24.781257
_cell_length_b     38.931387
_cell_length_c     23.182989
_cell_angle_alpha  90.460196
_cell_angle_beta   100.32131
_cell_angle_gamma 90.048704
loop_
_atom_site_label
_atom_site_type_symbol
_atom_site_fract_x
_atom_site_fract_y
_atom_site_fract_z
_atom_type_partial_charge
Fe0 Fe 0.2501 0.39577 0.20464 0.0
Fe1 Fe 0.1768 0.40655 0.08476 0.0
O2 O 0.2256 0.42252 0.14393 0.0
Fe3 Fe 0.24829 0.4656 0.14313 0.0
O4 O 0.2216 0.47549 0.20852 0.0
O5 O 0.25757 0.4312 0.25989 0.0
O6 O 0.18127 0.39 0.2198 0.0
C7 C 0.1401 0.38002 0.18347 0.0
C8 C 0.34462 0.42925 0.19466 0.0
O9 O 0.14272 0.37759 0.12953 0.0
C10 C 0.24509 0.44983 0.02886 0.0
O11 O 0.24662 0.35555 0.15964 0.0
O12 O 0.22303 0.3737 0.06903 0.0
O13 O 0.31726 0.45676 0.1846 0.0
O14 O 0.32065 0.40057 0.19436 0.0
C15 C 0.13547 0.47027 0.09392 0.0
O16 O 0.20131 0.43296 0.02915 0.0
O17 O 0.2753 0.45882 0.07634 0.0
C18 C 0.24296 0.35081 0.10451 0.0
O19 O 0.12737 0.4385 0.09673 0.0
O20 O 0.18367 0.4823 0.10191 0.0
C21 C 0.23459 0.46048 0.25671 0.0
Fe22 Fe 0.75617 0.45947 0.37067 0.0
Fe23 Fe 0.76499 0.38815 0.31577 0.0
O24 O 0.78534 0.41807 0.37337 0.0
Fe25 Fe 0.83611 0.40673 0.43359 0.0
O26 O 0.88068 0.43996 0.4165 0.0
O27 O 0.81936 0.48094 0.40972 0.0
O28 O 0.77962 0.46891 0.30348 0.0
C29 C 0.76586 0.45217 0.2565 0.0
C30 C 0.76293 0.44861 0.48621 0.0
O31 O 0.75078 0.42098 0.25741 0.0
C32 C 0.77697 0.34791 0.41976 0.0
O33 O 0.68819 0.44527 0.33123 0.0
O34 O 0.69463 0.38892 0.32719 0.0
O35 O 0.80931 0.43458 0.48707 0.0
O36 O 0.73084 0.45274 0.4382 0.0
C37 C 0.87624 0.37873 0.33751 0.0
O38 O 0.77506 0.35017 0.36458 0.0
O39 O 0.79397 0.37273 0.45327 0.0
C40 C 0.66582 0.41576 0.32448 0.0
O41 O 0.83426 0.38605 0.30034 0.0
O42 O 0.87327 0.3775 0.39148 0.0
C43 C 0.86916 0.47129 0.41835 0.0
Fe44 Fe 0.75473 0.56586 0.87571 0.0
Fe45 Fe 0.75295 0.63629 0.81611 0.0
O46 O 0.77755 0.60895 0.87596 0.0
Fe47 Fe 0.8266 0.62433 0.93533 0.0
O48 O 0.87578 0.59254 0.92215 0.0
O49 O 0.81937 0.54879 0.91637 0.0
O50 O 0.78124 0.55663 0.81 0.0
C51 C 0.76823 0.57216 0.76228 0.0
C52 C 0.75814 0.58081 0.9903 0.0
O53 O 0.74518 0.60139 0.75995 0.0
C54 C 0.76082 0.68024 0.91755 0.0
O55 O 0.68576 0.57506 0.83463 0.0
O56 O 0.68244 0.63136 0.82656 0.0
O57 O 0.80218 0.59744 0.99028 0.0
O58 O 0.72789 0.57204 0.94273 0.0
C59 C 0.86302 0.65182 0.83727 0.0
O60 O 0.75685 0.67609 0.86226 0.0
O61 O 0.78057 0.65693 0.95219 0.0
C62 C 0.65843 0.60264 0.82551 0.0
O63 O 0.8217 0.64221 0.80081 0.0
O64 O 0.86057 0.65376 0.89129 0.0
C65 C 0.86763 0.56075 0.92437 0.0
Fe66 Fe 0.23797 0.6436 0.70475 0.0
Fe67 Fe 0.16674 0.62555 0.58659 0.0
O68 O 0.21768 0.614 0.64663 0.0
Fe69 Fe 0.24701 0.57261 0.64874 0.0
O70 O 0.22364 0.56266 0.71585 0.0
O71 O 0.25218 0.61044 0.76259 0.0
O72 O 0.16867 0.64552 0.72019 0.0
C73 C 0.12665 0.65295 0.68316 0.0
C74 C 0.33723 0.61626 0.69568 0.0
O75 O 0.12942 0.65434 0.62917 0.0
C76 C 0.24015 0.58406 0.53332 0.0
O77 O 0.22794 0.68187 0.65665 0.0
O78 O 0.20826 0.66003 0.56734 0.0
O79 O 0.31494 0.58675 0.68841 0.0
O80 O 0.30834 0.64305 0.69338 0.0
C81 C 0.13413 0.56074 0.60083 0.0
O82 O 0.19378 0.59812 0.53262 0.0
O83 O 0.27226 0.57981 0.5813 0.0
C84 C 0.22512 0.68464 0.60143 0.0
O85 O 0.12249 0.59201 0.6032 0.0
O86 O 0.18396 0.55118 0.60934 0.0
C87 C 0.23727 0.57919 0.76308 0.0
Fe88 Fe 0.76554 0.89528 0.20925 0.0
Fe89 Fe 0.67833 0.90943 0.10065 0.0
O90 O 0.73579 0.92292 0.15233 0.0
Fe91 Fe 0.76308 0.96468 0.14786 0.0
O92 O 0.74672 0.97627 0.21794 0.0
O93 O 0.78441 0.9306 0.26385 0.0
O94 O 0.70254 0.89245 0.23698 0.0
C95 C 0.65612 0.88439 0.20864 0.0
C96 C 0.85806 0.92408 0.18508 0.0
O97 O 0.6476 0.88317 0.15294 0.0
C98 C 0.74376 0.94779 0.03298 0.0
O99 O 0.75101 0.85527 0.16485 0.0
O100 O 0.71489 0.8736 0.07702 0.0
O101 O 0.83403 0.95293 0.18124 0.0
O102 O 0.83103 0.89673 0.18537 0.0
C103 C 0.64845 0.97524 0.11179 0.0
O104 O 0.69881 0.93378 0.03957 0.0
O105 O 0.78003 0.95523 0.07688 0.0
C106 C 0.73826 0.85042 0.10968 0.0
O107 O 0.63779 0.94442 0.12069 0.0
O108 O 0.69768 0.9846 0.11362 0.0
C109 C 0.76516 0.96092 0.26494 0.0
Fe110 Fe 0.27165 0.96325 0.37673 0.0
Fe111 Fe 0.26972 0.89185 0.31751 0.0
O112 O 0.29399 0.91994 0.37759 0.0
Fe113 Fe 0.34185 0.90477 0.43842 0.0
O114 O 0.37642 0.94546 0.45507 0.0
O115 O 0.34163 0.97976 0.38352 0.0
O116 O 0.26485 0.96839 0.29811 0.0
C117 C 0.28416 0.95178 0.25964 0.0
C118 C 0.27627 0.94396 0.49553 0.0
O119 O 0.2943 0.92006 0.26519 0.0
C120 C 0.27035 0.84865 0.4111 0.0
O121 O 0.20017 0.95042 0.3696 0.0
O122 O 0.20116 0.91071 0.30158 0.0
O123 O 0.2958 0.91425 0.49002 0.0
O124 O 0.27441 0.96591 0.45537 0.0
C125 C 0.38263 0.87813 0.34442 0.0
O126 O 0.24284 0.86142 0.3651 0.0
O127 O 0.31658 0.86083 0.43337 0.0
C128 C 0.17518 0.93086 0.32981 0.0
O129 O 0.33457 0.86837 0.32234 0.0
O130 O 0.39133 0.8956 0.39129 0.0
C131 C 0.3806 0.97116 0.42368 0.0
Fe132 Fe 0.26842 0.06456 0.88345 0.0
Fe133 Fe 0.25906 0.13367 0.82017 0.0
O134 O 0.29088 0.10741 0.87845 0.0
Fe135 Fe 0.3457 0.12363 0.93134 0.0
O136 O 0.3918 0.09085 0.91385 0.0
O137 O 0.33573 0.04787 0.91798 0.0
O138 O 0.28612 0.05345 0.81367 0.0
C139 C 0.26566 0.06778 0.76634 0.0
C140 C 0.28465 0.08189 0.99799 0.0
O141 O 0.24515 0.09776 0.76645 0.0
C142 C 0.27862 0.17957 0.91914 0.0
O143 O 0.19666 0.07302 0.8499 0.0
O144 O 0.1924 0.12909 0.84111 0.0
O145 O 0.32775 0.09816 0.99216 0.0
O146 O 0.24984 0.07305 0.95385 0.0
C147 C 0.36754 0.14963 0.82414 0.0
O148 O 0.26789 0.1742 0.86397 0.0
O149 O 0.30363 0.15739 0.9529 0.0
C150 C 0.16884 0.10043 0.84226 0.0
O151 O 0.32288 0.13939 0.79437 0.0
O152 O 0.37389 0.15148 0.87965 0.0
C153 C 0.38395 0.05938 0.92101 0.0
Fe154 Fe 0.75867 0.13921 0.71191 0.0
Fe155 Fe 0.67682 0.12487 0.59886 0.0
O156 O 0.73146 0.11127 0.6534 0.0
Fe157 Fe 0.75861 0.06941 0.64992 0.0
O158 O 0.73891 0.05832 0.71847 0.0
O159 O 0.77504 0.10424 0.76632 0.0
O160 O 0.69358 0.14229 0.7356 0.0
C161 C 0.64884 0.15087 0.7044 0.0
C162 C 0.85303 0.11036 0.69253 0.0
O163 O 0.64383 0.15182 0.64891 0.0
C164 C 0.74504 0.08552 0.53515 0.0
O165 O 0.74675 0.17902 0.66791 0.0
O166 O 0.71645 0.15986 0.57866 0.0
O167 O 0.82895 0.08138 0.68655 0.0
O168 O 0.82574 0.13761 0.69205 0.0
C169 C 0.64426 0.05962 0.6071 0.0
O170 O 0.69981 0.09993 0.53936 0.0
O171 O 0.77917 0.078 0.58049 0.0
C172 C 0.73839 0.18318 0.61266 0.0
O173 O 0.63368 0.09058 0.61535 0.0
O174 O 0.69362 0.04967 0.61251 0.0
C175 C 0.75595 0.07384 0.7661 0.0
H176 H 0.59434 0.46639 0.28183 0.0
H177 H 0.60208 0.35815 0.32126 0.0
H178 H 0.50397 0.35241 0.28316 0.0
H179 H 0.41587 0.37807 0.23798 0.0
H180 H 0.40914 0.48628 0.19765 0.0
H181 H 0.50684 0.49186 0.2362 0.0
C182 C 0.57455 0.44158 0.28257 0.0
C183 C 0.60563 0.41279 0.30462 0.0
C184 C 0.51825 0.43833 0.25988 0.0
C185 C 0.57925 0.38077 0.30456 0.0
C186 C 0.5231 0.37743 0.28265 0.0
C187 C 0.43578 0.40284 0.23729 0.0
C188 C 0.4049 0.43168 0.21489 0.0
C189 C 0.49221 0.406 0.25987 0.0
C190 C 0.43162 0.46359 0.21461 0.0
C191 C 0.4876 0.46688 0.23683 0.0
H192 H 0.58715 0.65396 0.78274 0.0
H193 H 0.59389 0.54564 0.82222 0.0
H194 H 0.49621 0.5401 0.78361 0.0
H195 H 0.40874 0.5656 0.73806 0.0
H196 H 0.40089 0.67395 0.6995 0.0
H197 H 0.49898 0.67968 0.73777 0.0
C198 C 0.56724 0.62918 0.78326 0.0
C199 C 0.59813 0.60029 0.80539 0.0
C200 C 0.5108 0.62604 0.76063 0.0
C201 C 0.57141 0.56837 0.80543 0.0
C202 C 0.51544 0.5651 0.78319 0.0
C203 C 0.4285 0.59044 0.73755 0.0
C204 C 0.3974 0.61925 0.71567 0.0
C205 C 0.48479 0.59368 0.76033 0.0
C206 C 0.42375 0.65131 0.71605 0.0
C207 C 0.47988 0.65465 0.73806 0.0
H208 H 0.10838 0.88822 0.25623 0.0
H209 H 0.10698 0.98142 0.35816 0.0
H210 H 0.00938 0.98894 0.31868 0.0
H211 H 0.92433 0.96889 0.25504 0.0
H212 H 0.92572 0.87429 0.15721 0.0
H213 H 0.02392 0.86782 0.1944 0.0
C214 C 0.08683 0.9102 0.27002 0.0
C215 C 0.11513 0.93426 0.31005 0.0
C216 C 0.03089 0.91433 0.24722 0.0
C217 C 0.08626 0.9624 0.32765 0.0
C218 C 0.03051 0.96685 0.30478 0.0
C219 C 0.94644 0.94718 0.24119 0.0
C220 C 0.9182 0.92233 0.20279 0.0
C221 C 1.0025 0.94308 0.26424 0.0
C222 C 0.94685 0.89384 0.18636 0.0
C223 C 1.00282 0.89006 0.20783 0.0
H224 H 0.10066 0.14881 0.78483 0.0
H225 H 0.10239 0.04551 0.85142 0.0
H226 H 1.00573 0.03851 0.80762 0.0
H227 H 0.92072 0.06154 0.74951 0.0
H228 H 0.91946 0.16489 0.68336 0.0
H229 H 0.01614 0.17175 0.72693 0.0
C230 C 0.07979 0.1249 0.79046 0.0
C231 C 0.10878 0.09781 0.82169 0.0
C232 C 0.02447 0.1208 0.7643 0.0
C233 C 0.08108 0.06685 0.82778 0.0
C234 C 0.02586 0.06273 0.80244 0.0
C235 C 0.94185 0.08536 0.74389 0.0
C236 C 0.91303 0.11257 0.71289 0.0
C237 C 0.99727 0.0894 0.77007 0.0
C238 C 0.94077 0.14351 0.70689 0.0
C239 C 0.99597 0.14753 0.73206 0.0
H240 H 0.22426 0.33136 0.98954 0.0
H241 H 0.28763 0.29321 0.16285 0.0
H242 H 0.30325 0.23696 0.12064 0.0
H243 H 0.29829 0.1987 0.03471 0.0
H244 H 0.23369 0.2371 0.86183 0.0
H245 H 0.21867 0.29325 0.90417 0.0
C246 C 0.24172 0.31088 0.0184 0.0
C247 C 0.25487 0.31675 0.07961 0.0
C248 C 0.25002 0.27858 0.9939 0.0
C249 C 0.27719 0.28962 0.11579 0.0
C250 C 0.28601 0.2574 0.09161 0.0
C251 C 0.28081 0.21927 1.00607 0.0
C252 C 0.26723 0.21349 0.94484 0.0
C253 C 0.27239 0.25157 0.03075 0.0
C254 C 0.24451 0.24062 0.90888 0.0
C255 C 0.23604 0.2728 0.93311 0.0
H256 H 0.79096 0.3332 0.53613 0.0
H257 H 0.73863 0.28795 0.3644 0.0
H258 H 0.72295 0.23316 0.40948 0.0
H259 H 0.72454 0.19833 0.49691 0.0
H260 H 0.7772 0.24313 0.6689 0.0
H261 H 0.7928 0.29812 0.62397 0.0
C262 C 0.77599 0.31143 0.50835 0.0
C263 C 0.766 0.31478 0.44675 0.0
C264 C 0.7674 0.27998 0.53455 0.0
C265 C 0.74673 0.28617 0.41176 0.0
C266 C 0.7378 0.25482 0.43754 0.0
C267 C 0.73944 0.22005 0.52487 0.0
C268 C 0.74953 0.21653 0.58642 0.0
C269 C 0.74814 0.25146 0.49881 0.0
C270 C 0.76906 0.24504 0.62156 0.0
C271 C 0.77788 0.27649 0.59585 0.0
H272 H 0.71551 0.83274 0.99359 0.0
H273 H 0.77817 0.79108 0.16463 0.0
H274 H 0.78834 0.7349 0.12002 0.0
H275 H 0.77988 0.69788 0.0332 0.0
H276 H 0.71903 0.73926 0.86157 0.0
H277 H 0.7071 0.79541 0.90615 0.0
C278 C 0.73144 0.81143 0.02134 0.0
C279 C 0.74602 0.81631 0.0827 0.0
C280 C 0.73719 0.77915 0.99534 0.0
C281 C 0.76669 0.78826 0.11751 0.0
C282 C 0.77239 0.75607 0.09198 0.0
C283 C 0.76372 0.71903 1.00519 0.0
C284 C 0.75028 0.71414 0.94378 0.0
C285 C 0.75771 0.75125 0.03102 0.0
C286 C 0.72962 0.74212 0.90875 0.0
C287 C 0.72296 0.77427 0.93429 0.0
H288 H 0.18687 0.70628 0.4904 0.0
H289 H 0.2873 0.73805 0.65397 0.0
H290 H 0.30814 0.79211 0.60942 0.0
H291 H 0.3005 0.82914 0.5235 0.0
H292 H 0.19819 0.7986 0.36044 0.0
H293 H 0.17473 0.74515 0.40569 0.0
C294 C 0.21335 0.72503 0.51637 0.0
C295 C 0.23602 0.718 0.57537 0.0
C296 C 0.22463 0.75616 0.49063 0.0
C297 C 0.26944 0.7428 0.60858 0.0
C298 C 0.28142 0.77366 0.58308 0.0
C299 C 0.27297 0.81082 0.49775 0.0
C300 C 0.25165 0.81759 0.4384 0.0
C301 C 0.25964 0.78042 0.52407 0.0
C302 C 0.2152 0.79395 0.40607 0.0
C303 C 0.20203 0.76336 0.4319 0.0
H304 H 0.97037 0.58099 0.97285 0.0
H305 H 0.86771 0.49095 0.93424 0.0
H306 H 0.94093 0.45522 0.98694 0.0
H307 H 0.03284 0.44991 0.04501 0.0
H308 H 0.13533 0.54001 0.08375 0.0
H309 H 0.0622 0.57568 0.03084 0.0
C310 C 0.96407 0.5535 0.97538 0.0
C311 C 0.91372 0.53861 0.94967 0.0
C312 C 1.00573 0.5333 1.00657 0.0
C313 C 0.9062 0.503 0.95363 0.0
C314 C 0.94783 0.48261 0.98404 0.0
C315 C 0.0391 0.4774 0.04245 0.0
C316 C 0.08939 0.49232 0.06828 0.0
C317 C 0.99745 0.49759 1.0112 0.0
C318 C 0.0969 0.52793 0.06426 0.0
C319 C 0.05531 0.5483 0.03374 0.0
H320 H 0.02552 0.57459 0.57689 0.0
H321 H 0.1439 0.49596 0.55673 0.0
H322 H 0.07249 0.46295 0.4934 0.0
H323 H 0.97781 0.45744 0.44205 0.0
H324 H 0.85948 0.53611 0.4622 0.0
H325 H 0.93091 0.56913 0.52546 0.0
C326 C 0.03578 0.55006 0.55915 0.0
C327 C 0.09005 0.53773 0.57163 0.0
C328 C 0.99509 0.53181 0.52159 0.0
C329 C 0.10243 0.50587 0.54838 0.0
C330 C 0.06179 0.48723 0.51156 0.0
C331 C 0.96757 0.48199 0.45975 0.0
C332 C 0.9133 0.49433 0.44732 0.0
C333 C 0.00829 0.50025 0.49727 0.0
C334 C 0.90095 0.5262 0.47052 0.0
C335 C 0.94159 0.54484 0.5073 0.0
H336 H 0.54512 0.95492 0.06623 0.0
H337 H 0.65126 0.04392 0.08739 0.0
H338 H 0.5799 0.07729 0.0256 0.0
H339 H 0.48801 0.08068 0.96503 0.0
H340 H 0.38362 0.99079 0.94308 0.0
H341 H 0.45501 0.95785 1.00457 0.0
C342 C 0.55265 0.98175 0.0581 0.0
C343 C 0.60336 0.997 0.08187 0.0
C344 C 0.51235 1.00034 0.02134 0.0
C345 C 0.61241 0.03167 0.07004 0.0
C346 C 0.57186 0.05063 0.0343 0.0
C347 C 0.4811 0.05374 0.97291 0.0
C348 C 0.43046 0.03823 0.94941 0.0
C349 C 0.52192 0.03508 1.00921 0.0
C350 C 0.42221 1.00335 0.96045 0.0
C351 C 0.4628 0.98457 0.99603 0.0
H352 H 0.48085 0.95024 0.47256 0.0
H353 H 0.38683 0.04152 0.41994 0.0
H354 H 0.46106 0.07713 0.47418 0.0
H355 H 0.54844 0.08138 0.54291 0.0
H356 H 0.64192 0.98975 0.59583 0.0
H357 H 0.57066 0.95471 0.53595 0.0
C358 C 0.47697 0.97802 0.4723 0.0
C359 C 0.4285 0.99338 0.44288 0.0
C360 C 0.51873 0.99795 0.50478 0.0
C361 C 0.424 0.02926 0.44199 0.0
C362 C 0.46601 0.04948 0.47366 0.0
C363 C 0.55307 0.05369 0.54195 0.0
C364 C 0.59986 0.03801 0.57481 0.0
C365 C 0.51269 0.03395 0.50661 0.0
C366 C 0.6059 1.00227 0.57167 0.0
C367 C 0.56547 0.98234 0.53715 0.0
H368 H 0.12139 0.37663 0.29607 0.0
H369 H 0.0392 0.369 0.11576 0.0
H370 H 0.95065 0.36568 0.14748 0.0
H371 H 0.89573 0.36952 0.22594 0.0
H372 H 0.97799 0.3768 0.40624 0.0
H373 H 0.06687 0.37542 0.37493 0.0
C374 C 0.08422 0.37375 0.26366 0.0
C375 C 0.08726 0.37318 0.2035 0.0
C376 C 0.03315 0.37199 0.28219 0.0
C377 C 0.03842 0.36938 0.16232 0.0
C378 C 0.98756 0.36767 0.18042 0.0
C379 C 0.93308 0.37035 0.25848 0.0
C380 C 0.9299 0.37335 0.31842 0.0
C381 C 0.98431 0.36962 0.24017 0.0
C382 C 0.97893 0.3743 0.35986 0.0
C383 C 0.02993 0.3737 0.34197 0.0
H384 H 0.10737 0.6618 0.79489 0.0
H385 H 0.02493 0.65542 0.61455 0.0
H386 H 0.93611 0.657 0.64592 0.0
H387 H 0.88165 0.65568 0.72476 0.0
H388 H 0.96398 0.66239 0.90513 0.0
H389 H 0.05254 0.66556 0.87342 0.0
C390 C 0.07 0.66121 0.76236 0.0
C391 C 0.07309 0.65839 0.70239 0.0
C392 C 0.0188 0.66206 0.7807 0.0
C393 C 0.02405 0.65775 0.66097 0.0
C394 C 0.97308 0.65848 0.67889 0.0
C395 C 0.91886 0.65834 0.75719 0.0
C396 C 0.91586 0.65868 0.81734 0.0
C397 C 0.96992 0.66 0.73868 0.0
C398 C 0.96474 0.66218 0.85856 0.0
C399 C 0.0156 0.66381 0.84047 0.0
H400 H 0.49208 0.88189 0.38715 0.0
H401 H 0.3759 0.85992 0.22913 0.0
H402 H 0.45035 0.85759 0.17289 0.0
H403 H 0.54816 0.86698 0.16714 0.0
H404 H 0.66319 0.88793 0.32695 0.0
H405 H 0.58982 0.88521 0.38326 0.0
C406 C 0.48307 0.87606 0.34057 0.0
C407 C 0.42843 0.87124 0.31252 0.0
C408 C 0.52601 0.87484 0.3084 0.0
C409 C 0.41762 0.86356 0.25207 0.0
C410 C 0.4602 0.86246 0.21969 0.0
C411 C 0.55727 0.87044 0.21434 0.0
C412 C 0.61132 0.87797 0.24229 0.0
C413 C 0.51454 0.86881 0.24714 0.0
C414 C 0.62216 0.88226 0.30375 0.0
C415 C 0.58011 0.88079 0.33631 0.0
H416 H 0.54025 0.15688 0.65511 0.0
H417 H 0.65138 0.16127 0.82128 0.0
H418 H 0.57427 0.1649 0.87288 0.0
H419 H 0.47525 0.1608 0.87192 0.0
H420 H 0.36385 0.15505 0.70607 0.0
H421 H 0.44068 0.15843 0.65387 0.0
C422 C 0.54763 0.1593 0.70251 0.0
C423 C 0.60169 0.15851 0.73404 0.0
C424 C 0.50286 0.16087 0.73233 0.0
C425 C 0.61029 0.16154 0.79563 0.0
C426 C 0.56613 0.16357 0.82539 0.0
C427 C 0.46764 0.16097 0.82437 0.0
C428 C 0.41371 0.15742 0.79322 0.0
C429 C 0.5122 0.16235 0.79435 0.0
C430 C 0.40487 0.15755 0.73145 0.0
C431 C 0.44887 0.15939 0.70138 0.0
H432 H 0.28097 0.51494 0.01732 0.0
H433 H 0.21795 0.42496 0.91775 0.0
H434 H 0.20991 0.45735 0.8267 0.0
H435 H 0.21514 0.51171 0.77641 0.0
H436 H 0.27469 0.60278 0.87531 0.0
H437 H 0.28882 0.56953 0.96595 0.0
C438 C 0.26684 0.50222 0.97553 0.0
C439 C 0.25081 0.46744 0.97407 0.0
C440 C 0.26043 0.52137 0.92354 0.0
C441 C 0.23108 0.45157 0.91981 0.0
C442 C 0.22601 0.47016 0.86788 0.0
C443 C 0.2312 0.52447 0.81769 0.0
C444 C 0.24355 0.55985 0.81888 0.0
C445 C 0.23942 0.50522 0.86939 0.0
C446 C 0.26444 0.57569 0.873 0.0
C447 C 0.27285 0.55663 0.92483 0.0
H448 H 0.83985 0.47373 0.57457 0.0
H449 H 0.66537 0.47242 0.5101 0.0
H450 H 0.6516 0.51355 0.58659 0.0
H451 H 0.68961 0.55005 0.67249 0.0
H452 H 0.86386 0.55021 0.7365 0.0
H453 H 0.87758 0.51016 0.65858 0.0
C454 C 0.79866 0.48193 0.5778 0.0
C455 C 0.75361 0.46957 0.53718 0.0
C456 C 0.79122 0.50612 0.62092 0.0
C457 C 0.70069 0.48124 0.54124 0.0
C458 C 0.69284 0.50499 0.58463 0.0
C459 C 0.73054 0.54183 0.66824 0.0
C460 C 0.77588 0.55346 0.70902 0.0
C461 C 0.73786 0.51789 0.62441 0.0
C462 C 0.82864 0.54193 0.70467 0.0
C463 C 0.83638 0.51878 0.66064 0.0
H464 H 0.7871 0.51964 0.24276 0.0
H465 H 0.72914 0.42809 0.1444 0.0
H466 H 0.71502 0.46111 0.05346 0.0
H467 H 0.72264 0.51565 1.00179 0.0
H468 H 0.78396 0.60607 0.1011 0.0
H469 H 0.79178 0.57389 0.19232 0.0
C470 C 0.77139 0.50672 0.20154 0.0
C471 C 0.75951 0.47129 0.20055 0.0
C472 C 0.76313 0.52582 0.14975 0.0
C473 C 0.73903 0.45523 0.14652 0.0
C474 C 0.73062 0.47415 0.09454 0.0
C475 C 0.73631 0.52849 0.04357 0.0
C476 C 0.75198 0.56332 0.04496 0.0
C477 C 0.74261 0.50947 0.09565 0.0
C478 C 0.77112 0.5794 0.09915 0.0
C479 C 0.77608 0.56094 0.15116 0.0
H480 H 0.31282 0.48171 0.3478 0.0
H481 H 0.13925 0.48449 0.28032 0.0
H482 H 0.12576 0.52483 0.35791 0.0
H483 H 0.16352 0.56047 0.44303 0.0
H484 H 0.33742 0.55899 0.51068 0.0
H485 H 0.3509 0.51776 0.43429 0.0
C486 C 0.27205 0.49067 0.35116 0.0
C487 C 0.22684 0.47974 0.30949 0.0
C488 C 0.26491 0.51479 0.39483 0.0
C489 C 0.17436 0.49223 0.31276 0.0
C490 C 0.16676 0.51553 0.35665 0.0
C491 C 0.20455 0.55165 0.44052 0.0
C492 C 0.24949 0.56322 0.48213 0.0
C493 C 0.21182 0.52743 0.39733 0.0
C494 C 0.30218 0.55079 0.47886 0.0
C495 C 0.30986 0.52697 0.43549 0.0
H496 H 0.79924 1.00592 0.01659 0.0
H497 H 0.69227 0.92843 0.9234 0.0
H498 H 0.68698 0.96076 0.83239 0.0
H499 H 0.70928 1.01215 0.78082 0.0
H500 H 0.81232 0.09114 0.87532 0.0
H501 H 0.82191 0.0572 0.96487 0.0
C502 C 0.7756 0.99572 0.97616 0.0
C503 C 0.74672 0.96453 0.97656 0.0
C504 C 0.77124 1.01501 0.92464 0.0
C505 C 0.7152 0.95218 0.92407 0.0
C506 C 0.71191 0.97077 0.8722 0.0
C507 C 0.73395 0.022 0.82095 0.0
C508 C 0.76008 0.05421 0.82126 0.0
C509 C 0.73907 1.00245 0.87223 0.0
C510 C 0.79153 0.06658 0.87383 0.0
C511 C 0.79728 0.04708 0.92497 0.0
H512 H 0.30138 1.00244 0.75205 0.0
H513 H 0.21388 0.08654 0.65709 0.0
H514 H 0.20175 0.05257 0.56688 0.0
H515 H 0.22066 1.00103 0.51417 0.0
H516 H 0.3134 0.91803 0.60605 0.0
H517 H 0.31653 0.94904 0.69916 0.0
C518 C 0.27957 1.01339 0.71167 0.0
C519 C 0.25901 0.04724 0.71138 0.0
C520 C 0.27293 0.99373 0.65975 0.0
C521 C 0.23059 0.06079 0.65863 0.0
C522 C 0.22335 0.0413 0.60706 0.0
C523 C 0.24105 0.98939 0.55463 0.0
C524 C 0.2673 0.95737 0.55304 0.0
C525 C 0.24487 1.00797 0.60708 0.0
C526 C 0.29272 0.94253 0.60598 0.0
C527 C 0.29514 0.9605 0.65907 0.0
H528 H 0.303 0.0193 0.24978 0.0
H529 H 0.27537 0.92555 0.14814 0.0
H530 H 0.27064 0.95842 0.05754 0.0
H531 H 0.27047 1.01404 1.00779 0.0
H532 H 0.30336 0.10724 0.10976 0.0
H533 H 0.30901 0.0743 0.20055 0.0
C534 C 0.29622 1.00602 0.20776 0.0
C535 C 0.28893 0.97012 0.20538 0.0
C536 C 0.29354 0.02502 0.15634 0.0
C537 C 0.2812 0.95314 0.15093 0.0
C538 C 0.27802 0.97195 0.09926 0.0
C539 C 0.27809 0.02712 0.04999 0.0
C540 C 0.28483 0.06303 0.0526 0.0
C541 C 0.28312 1.00792 0.10152 0.0
C542 C 0.29694 0.0797 0.10715 0.0
C543 C 0.30049 0.06087 0.15877 0.0
H544 H 0.80128 0.02734 0.51896 0.0
H545 H 0.69912 0.10581 0.42504 0.0
H546 H 0.69743 0.07423 0.33309 0.0
H547 H 0.72053 0.02312 0.28072 0.0
H548 H 0.81892 0.94299 0.37478 0.0
H549 H 0.82595 0.97638 0.4658 0.0
C550 C 0.77953 0.0379 0.47821 0.0
C551 C 0.75078 0.06912 0.47872 0.0
C552 C 0.77727 0.01904 0.42586 0.0
C553 C 0.72181 0.08199 0.42572 0.0
C554 C 0.72058 0.06384 0.37325 0.0
C555 C 0.74377 1.01289 0.32101 0.0
C556 C 0.76919 0.9805 0.32078 0.0
C557 C 0.74735 0.03208 0.37303 0.0
C558 C 0.79876 0.96772 0.37363 0.0
C559 C 0.80297 0.98688 0.42564 0.0
loop_
_geom_bond_atom_site_label_1
_geom_bond_atom_site_label_2
_geom_bond_distance
_geom_bond_site_symmetry_2
_ccdc_geom_bond_type
Fe0 O2 1.918 . S
Fe0 O5 1.997 . S
Fe0 O6 2.002 . S
Fe0 O11 1.976 . S
Fe0 O14 1.996 . S
Fe1 O2 1.918 . S
Fe1 O9 1.997 . S
Fe1 O12 1.996 . S
Fe1 O16 1.976 1_554 S
Fe1 O19 2.002 . S
O2 Fe0 1.918 . S
O2 Fe1 1.918 . S
O2 Fe3 1.918 . S
Fe3 O2 1.918 . S
Fe3 O4 2.002 . S
Fe3 O13 1.976 . S
Fe3 O17 1.996 . S
Fe3 O20 1.997 . S
O4 Fe3 2.002 . S
O4 C21 1.295 . S
O5 Fe0 1.997 . S
O5 C21 1.235 . S
O6 Fe0 2.002 . S
O6 C7 1.295 . S
C7 O6 1.295 . S
C7 O9 1.235 . S
C8 O13 1.287 . S
C8 O14 1.255 . S
O9 Fe1 1.997 . S
O9 C7 1.235 . S
C10 O16 1.287 . S
C10 O17 1.255 1_556 S
O11 Fe0 1.976 . S
O11 C18 1.287 . S
O12 Fe1 1.996 . S
O12 C18 1.255 . S
O13 Fe3 1.976 . S
O13 C8 1.287 . S
O14 Fe0 1.996 . S
O14 C8 1.255 . S
C15 O19 1.295 . S
C15 O20 1.235 . S
O16 Fe1 1.976 1_556 S
O16 C10 1.287 . S
O17 Fe3 1.996 . S
O17 C10 1.255 1_554 S
C18 O11 1.287 . S
C18 O12 1.255 . S
O19 Fe1 2.002 . S
O19 C15 1.295 . S
O20 Fe3 1.997 . S
O20 C15 1.235 . S
C21 O4 1.295 . S
C21 O5 1.235 . S
Fe22 O24 1.918 . S
Fe22 O27 1.997 . S
Fe22 O28 2.002 . S
Fe22 O33 1.976 . S
Fe22 O36 1.996 . S
Fe23 O24 1.918 . S
Fe23 O31 1.997 . S
Fe23 O34 1.996 . S
Fe23 O38 1.976 . S
Fe23 O41 2.002 . S
O24 Fe22 1.918 . S
O24 Fe23 1.918 . S
O24 Fe25 1.918 . S
Fe25 O24 1.918 . S
Fe25 O26 2.002 . S
Fe25 O35 1.976 . S
Fe25 O39 1.996 . S
Fe25 O42 1.997 . S
O26 Fe25 2.002 . S
O26 C43 1.295 . S
O27 Fe22 1.997 . S
O27 C43 1.235 . S
O28 Fe22 2.002 . S
O28 C29 1.295 . S
C29 O28 1.295 . S
C29 O31 1.235 . S
C30 O35 1.287 . S
C30 O36 1.255 . S
O31 Fe23 1.997 . S
O31 C29 1.235 . S
C32 O38 1.287 . S
C32 O39 1.255 . S
O33 Fe22 1.976 . S
O33 C40 1.287 . S
O34 Fe23 1.996 . S
O34 C40 1.255 . S
O35 Fe25 1.976 . S
O35 C30 1.287 . S
O36 Fe22 1.996 . S
O36 C30 1.255 . S
C37 O41 1.295 . S
C37 O42 1.235 . S
O38 Fe23 1.976 . S
O38 C32 1.287 . S
O39 Fe25 1.996 . S
O39 C32 1.255 . S
C40 O33 1.287 . S
C40 O34 1.255 . S
O41 Fe23 2.002 . S
O41 C37 1.295 . S
O42 Fe25 1.997 . S
O42 C37 1.235 . S
C43 O26 1.295 . S
C43 O27 1.235 . S
Fe44 O46 1.918 . S
Fe44 O49 1.997 . S
Fe44 O50 2.002 . S
Fe44 O55 1.976 . S
Fe44 O58 1.996 . S
Fe45 O46 1.918 . S
Fe45 O53 1.997 . S
Fe45 O56 1.996 . S
Fe45 O60 1.976 . S
Fe45 O63 2.002 . S
O46 Fe44 1.918 . S
O46 Fe45 1.918 . S
O46 Fe47 1.918 . S
Fe47 O46 1.918 . S
Fe47 O48 2.002 . S
Fe47 O57 1.976 1_556 S
Fe47 O61 1.996 . S
Fe47 O64 1.997 . S
O48 Fe47 2.002 . S
O48 C65 1.295 . S
O49 Fe44 1.997 . S
O49 C65 1.235 . S
O50 Fe44 2.002 . S
O50 C51 1.295 . S
C51 O50 1.295 . S
C51 O53 1.235 . S
C52 O57 1.287 . S
C52 O58 1.255 1_554 S
O53 Fe45 1.997 . S
O53 C51 1.235 . S
C54 O60 1.287 . S
C54 O61 1.255 . S
O55 Fe44 1.976 . S
O55 C62 1.287 . S
O56 Fe45 1.996 . S
O56 C62 1.255 . S
O57 Fe47 1.976 1_554 S
O57 C52 1.287 . S
O58 Fe44 1.996 . S
O58 C52 1.255 1_556 S
C59 O63 1.295 . S
C59 O64 1.235 . S
O60 Fe45 1.976 . S
O60 C54 1.287 . S
O61 Fe47 1.996 . S
O61 C54 1.255 . S
C62 O55 1.287 . S
C62 O56 1.255 . S
O63 Fe45 2.002 . S
O63 C59 1.295 . S
O64 Fe47 1.997 . S
O64 C59 1.235 . S
C65 O48 1.295 . S
C65 O49 1.235 . S
Fe66 O68 1.918 . S
Fe66 O71 1.997 . S
Fe66 O72 2.002 . S
Fe66 O77 1.976 . S
Fe66 O80 1.996 . S
Fe67 O68 1.918 . S
Fe67 O75 1.997 . S
Fe67 O78 1.996 . S
Fe67 O82 1.976 . S
Fe67 O85 2.002 . S
O68 Fe66 1.918 . S
O68 Fe67 1.918 . S
O68 Fe69 1.918 . S
Fe69 O68 1.918 . S
Fe69 O70 2.002 . S
Fe69 O79 1.976 . S
Fe69 O83 1.996 . S
Fe69 O86 1.997 . S
O70 Fe69 2.002 . S
O70 C87 1.295 . S
O71 Fe66 1.997 . S
O71 C87 1.235 . S
O72 Fe66 2.002 . S
O72 C73 1.295 . S
C73 O72 1.295 . S
C73 O75 1.235 . S
C74 O79 1.287 . S
C74 O80 1.255 . S
O75 Fe67 1.997 . S
O75 C73 1.235 . S
C76 O82 1.287 . S
C76 O83 1.255 . S
O77 Fe66 1.976 . S
O77 C84 1.287 . S
O78 Fe67 1.996 . S
O78 C84 1.255 . S
O79 Fe69 1.976 . S
O79 C74 1.287 . S
O80 Fe66 1.996 . S
O80 C74 1.255 . S
C81 O85 1.295 . S
C81 O86 1.235 . S
O82 Fe67 1.976 . S
O82 C76 1.287 . S
O83 Fe69 1.996 . S
O83 C76 1.255 . S
C84 O77 1.287 . S
C84 O78 1.255 . S
O85 Fe67 2.002 . S
O85 C81 1.295 . S
O86 Fe69 1.997 . S
O86 C81 1.235 . S
C87 O70 1.295 . S
C87 O71 1.235 . S
Fe88 O90 1.918 . S
Fe88 O93 1.997 . S
Fe88 O94 2.002 . S
Fe88 O99 1.976 . S
Fe88 O102 1.996 . S
Fe89 O90 1.918 . S
Fe89 O97 1.997 . S
Fe89 O100 1.996 . S
Fe89 O104 1.976 1_554 S
Fe89 O107 2.002 . S
O90 Fe88 1.918 . S
O90 Fe89 1.918 . S
O90 Fe91 1.918 . S
Fe91 O90 1.918 . S
Fe91 O92 2.002 . S
Fe91 O101 1.976 . S
Fe91 O105 1.996 . S
Fe91 O108 1.997 . S
O92 Fe91 2.002 . S
O92 C109 1.295 . S
O93 Fe88 1.997 . S
O93 C109 1.235 . S
O94 Fe88 2.002 . S
O94 C95 1.295 . S
C95 O94 1.295 . S
C95 O97 1.235 . S
C96 O101 1.287 . S
C96 O102 1.255 . S
O97 Fe89 1.997 . S
O97 C95 1.235 . S
C98 O104 1.287 . S
C98 O105 1.255 1_556 S
O99 Fe88 1.976 . S
O99 C106 1.287 . S
O100 Fe89 1.996 . S
O100 C106 1.255 . S
O101 Fe91 1.976 . S
O101 C96 1.287 . S
O102 Fe88 1.996 . S
O102 C96 1.255 . S
C103 O107 1.295 . S
C103 O108 1.235 . S
O104 Fe89 1.976 1_556 S
O104 C98 1.287 . S
O105 Fe91 1.996 . S
O105 C98 1.255 1_554 S
C106 O99 1.287 . S
C106 O100 1.255 . S
O107 Fe89 2.002 . S
O107 C103 1.295 . S
O108 Fe91 1.997 . S
O108 C103 1.235 . S
C109 O92 1.295 . S
C109 O93 1.235 . S
Fe110 O112 1.918 . S
Fe110 O115 1.997 . S
Fe110 O116 2.002 . S
Fe110 O121 1.976 . S
Fe110 O124 1.996 . S
Fe111 O112 1.918 . S
Fe111 O119 1.997 . S
Fe111 O122 1.996 . S
Fe111 O126 1.976 . S
Fe111 O129 2.002 . S
O112 Fe110 1.918 . S
O112 Fe111 1.918 . S
O112 Fe113 1.918 . S
Fe113 O112 1.918 . S
Fe113 O114 2.002 . S
Fe113 O123 1.976 . S
Fe113 O127 1.996 . S
Fe113 O130 1.997 . S
O114 Fe113 2.002 . S
O114 C131 1.295 . S
O115 Fe110 1.997 . S
O115 C131 1.235 . S
O116 Fe110 2.002 . S
O116 C117 1.295 . S
C117 O116 1.295 . S
C117 O119 1.235 . S
C118 O123 1.287 . S
C118 O124 1.255 . S
O119 Fe111 1.997 . S
O119 C117 1.235 . S
C120 O126 1.287 . S
C120 O127 1.255 . S
O121 Fe110 1.976 . S
O121 C128 1.287 . S
O122 Fe111 1.996 . S
O122 C128 1.255 . S
O123 Fe113 1.976 . S
O123 C118 1.287 . S
O124 Fe110 1.996 . S
O124 C118 1.255 . S
C125 O129 1.295 . S
C125 O130 1.235 . S
O126 Fe111 1.976 . S
O126 C120 1.287 . S
O127 Fe113 1.996 . S
O127 C120 1.255 . S
C128 O121 1.287 . S
C128 O122 1.255 . S
O129 Fe111 2.002 . S
O129 C125 1.295 . S
O130 Fe113 1.997 . S
O130 C125 1.235 . S
C131 O114 1.295 . S
C131 O115 1.235 . S
Fe132 O134 1.918 . S
Fe132 O137 1.997 . S
Fe132 O138 2.002 . S
Fe132 O143 1.976 . S
Fe132 O146 1.996 . S
Fe133 O134 1.918 . S
Fe133 O141 1.997 . S
Fe133 O144 1.996 . S
Fe133 O148 1.976 . S
Fe133 O151 2.002 . S
O134 Fe132 1.918 . S
O134 Fe133 1.918 . S
O134 Fe135 1.918 . S
Fe135 O134 1.918 . S
Fe135 O136 2.002 . S
Fe135 O145 1.976 1_556 S
Fe135 O149 1.996 . S
Fe135 O152 1.997 . S
O136 Fe135 2.002 . S
O136 C153 1.295 . S
O137 Fe132 1.997 . S
O137 C153 1.235 . S
O138 Fe132 2.002 . S
O138 C139 1.295 . S
C139 O138 1.295 . S
C139 O141 1.235 . S
C140 O145 1.287 . S
C140 O146 1.255 1_554 S
O141 Fe133 1.997 . S
O141 C139 1.235 . S
C142 O148 1.287 . S
C142 O149 1.255 . S
O143 Fe132 1.976 . S
O143 C150 1.287 . S
O144 Fe133 1.996 . S
O144 C150 1.255 . S
O145 Fe135 1.976 1_554 S
O145 C140 1.287 . S
O146 Fe132 1.996 . S
O146 C140 1.255 1_556 S
C147 O151 1.295 . S
C147 O152 1.235 . S
O148 Fe133 1.976 . S
O148 C142 1.287 . S
O149 Fe135 1.996 . S
O149 C142 1.255 . S
C150 O143 1.287 . S
C150 O144 1.255 . S
O151 Fe133 2.002 . S
O151 C147 1.295 . S
O152 Fe135 1.997 . S
O152 C147 1.235 . S
C153 O136 1.295 . S
C153 O137 1.235 . S
Fe154 O156 1.918 . S
Fe154 O159 1.997 . S
Fe154 O160 2.002 . S
Fe154 O165 1.976 . S
Fe154 O168 1.996 . S
Fe155 O156 1.918 . S
Fe155 O163 1.997 . S
Fe155 O166 1.996 . S
Fe155 O170 1.976 . S
Fe155 O173 2.002 . S
O156 Fe154 1.918 . S
O156 Fe155 1.918 . S
O156 Fe157 1.918 . S
Fe157 O156 1.918 . S
Fe157 O158 2.002 . S
Fe157 O167 1.976 . S
Fe157 O171 1.996 . S
Fe157 O174 1.997 . S
O158 Fe157 2.002 . S
O158 C175 1.295 . S
O159 Fe154 1.997 . S
O159 C175 1.235 . S
O160 Fe154 2.002 . S
O160 C161 1.295 . S
C161 O160 1.295 . S
C161 O163 1.235 . S
C162 O167 1.287 . S
C162 O168 1.255 . S
O163 Fe155 1.997 . S
O163 C161 1.235 . S
C164 O170 1.287 . S
C164 O171 1.255 . S
O165 Fe154 1.976 . S
O165 C172 1.287 . S
O166 Fe155 1.996 . S
O166 C172 1.255 . S
O167 Fe157 1.976 . S
O167 C162 1.287 . S
O168 Fe154 1.996 . S
O168 C162 1.255 . S
C169 O173 1.295 . S
C169 O174 1.235 . S
O170 Fe155 1.976 . S
O170 C164 1.287 . S
O171 Fe157 1.996 . S
O171 C164 1.255 . S
C172 O165 1.287 . S
C172 O166 1.255 . S
O173 Fe155 2.002 . S
O173 C169 1.295 . S
O174 Fe157 1.997 . S
O174 C169 1.235 . S
C175 O158 1.295 . S
C175 O159 1.235 . S
H176 C182 0.930 . S
H177 C185 0.930 . S
H178 C186 0.930 . S
H179 C187 0.930 . S
H180 C190 0.930 . S
H181 C191 0.930 . S
C182 H176 0.930 . S
C182 C183 1.355 . S
C182 C184 1.415 . S
C183 C182 1.355 . S
C183 C185 1.419 . S
C184 C182 1.415 . S
C184 C189 1.425 . S
C184 C191 1.409 . S
C185 H177 0.930 . S
C185 C183 1.419 . S
C185 C186 1.362 . S
C186 H178 0.930 . S
C186 C185 1.362 . S
C186 C189 1.409 . S
C187 H179 0.930 . S
C187 C188 1.355 . S
C187 C189 1.415 . S
C188 C187 1.355 . S
C188 C190 1.419 . S
C189 C184 1.425 . S
C189 C186 1.409 . S
C189 C187 1.415 . S
C190 H180 0.930 . S
C190 C188 1.419 . S
C190 C191 1.362 . S
C191 H181 0.930 . S
C191 C184 1.409 . S
C191 C190 1.362 . S
H192 C198 0.930 . S
H193 C201 0.930 . S
H194 C202 0.930 . S
H195 C203 0.930 . S
H196 C206 0.930 . S
H197 C207 0.930 . S
C198 H192 0.930 . S
C198 C199 1.355 . S
C198 C200 1.415 . S
C199 C198 1.355 . S
C199 C201 1.419 . S
C200 C198 1.415 . S
C200 C205 1.425 . S
C200 C207 1.409 . S
C201 H193 0.930 . S
C201 C199 1.419 . S
C201 C202 1.362 . S
C202 H194 0.930 . S
C202 C201 1.362 . S
C202 C205 1.409 . S
C203 H195 0.930 . S
C203 C204 1.355 . S
C203 C205 1.415 . S
C204 C203 1.355 . S
C204 C206 1.419 . S
C205 C200 1.425 . S
C205 C202 1.409 . S
C205 C203 1.415 . S
C206 H196 0.930 . S
C206 C204 1.419 . S
C206 C207 1.362 . S
C207 H197 0.930 . S
C207 C200 1.409 . S
C207 C206 1.362 . S
H208 C214 0.930 . S
H209 C217 0.930 . S
H210 C218 0.930 1_655 S
H211 C219 0.930 . S
H212 C222 0.930 . S
H213 C223 0.930 1_455 S
C214 H208 0.930 . S
C214 C215 1.355 . S
C214 C216 1.415 . S
C215 C214 1.355 . S
C215 C217 1.419 . S
C216 C214 1.415 . S
C216 C221 1.425 1_455 S
C216 C223 1.409 1_455 S
C217 H209 0.930 . S
C217 C215 1.419 . S
C217 C218 1.362 . S
C218 H210 0.930 1_455 S
C218 C217 1.362 . S
C218 C221 1.409 1_455 S
C219 H211 0.930 . S
C219 C220 1.355 . S
C219 C221 1.415 . S
C220 C219 1.355 . S
C220 C222 1.419 . S
C221 C216 1.425 1_655 S
C221 C218 1.409 1_655 S
C221 C219 1.415 . S
C222 H212 0.930 . S
C222 C220 1.419 . S
C222 C223 1.362 . S
C223 H213 0.930 1_655 S
C223 C216 1.409 1_655 S
C223 C222 1.362 . S
H224 C230 0.930 . S
H225 C233 0.930 . S
H226 C234 0.930 1_655 S
H227 C235 0.930 . S
H228 C238 0.930 . S
H229 C239 0.930 1_455 S
C230 H224 0.930 . S
C230 C231 1.355 . S
C230 C232 1.415 . S
C231 C230 1.355 . S
C231 C233 1.419 . S
C232 C230 1.415 . S
C232 C237 1.425 1_455 S
C232 C239 1.409 1_455 S
C233 H225 0.930 . S
C233 C231 1.419 . S
C233 C234 1.362 . S
C234 H226 0.930 1_455 S
C234 C233 1.362 . S
C234 C237 1.409 1_455 S
C235 H227 0.930 . S
C235 C236 1.355 . S
C235 C237 1.415 . S
C236 C235 1.355 . S
C236 C238 1.419 . S
C237 C232 1.425 1_655 S
C237 C234 1.409 1_655 S
C237 C235 1.415 . S
C238 H228 0.930 . S
C238 C236 1.419 . S
C238 C239 1.362 . S
C239 H229 0.930 1_655 S
C239 C232 1.409 1_655 S
C239 C238 1.362 . S
H240 C246 0.930 1_556 S
H241 C249 0.930 . S
H242 C250 0.930 . S
H243 C251 0.930 1_554 S
H244 C254 0.930 . S
H245 C255 0.930 . S
C246 H240 0.930 1_554 S
C246 C247 1.355 . S
C246 C248 1.415 1_554 S
C247 C246 1.355 . S
C247 C249 1.419 . S
C248 C246 1.415 1_556 S
C248 C253 1.425 1_556 S
C248 C255 1.409 . S
C249 H241 0.930 . S
C249 C247 1.419 . S
C249 C250 1.362 . S
C250 H242 0.930 . S
C250 C249 1.362 . S
C250 C253 1.409 . S
C251 H243 0.930 1_556 S
C251 C252 1.355 . S
C251 C253 1.415 1_556 S
C252 C251 1.355 . S
C252 C254 1.419 . S
C253 C248 1.425 1_554 S
C253 C250 1.409 . S
C253 C251 1.415 1_554 S
C254 H244 0.930 . S
C254 C252 1.419 . S
C254 C255 1.362 . S
C255 H245 0.930 . S
C255 C248 1.409 . S
C255 C254 1.362 . S
H256 C262 0.930 . S
H257 C265 0.930 . S
H258 C266 0.930 . S
H259 C267 0.930 . S
H260 C270 0.930 . S
H261 C271 0.930 . S
C262 H256 0.930 . S
C262 C263 1.355 . S
C262 C264 1.415 . S
C263 C262 1.355 . S
C263 C265 1.419 . S
C264 C262 1.415 . S
C264 C269 1.425 . S
C264 C271 1.409 . S
C265 H257 0.930 . S
C265 C263 1.419 . S
C265 C266 1.362 . S
C266 H258 0.930 . S
C266 C265 1.362 . S
C266 C269 1.409 . S
C267 H259 0.930 . S
C267 C268 1.355 . S
C267 C269 1.415 . S
C268 C267 1.355 . S
C268 C270 1.419 . S
C269 C264 1.425 . S
C269 C266 1.409 . S
C269 C267 1.415 . S
C270 H260 0.930 . S
C270 C268 1.419 . S
C270 C271 1.362 . S
C271 H261 0.930 . S
C271 C264 1.409 . S
C271 C270 1.362 . S
H272 C278 0.930 . S
H273 C281 0.930 . S
H274 C282 0.930 . S
H275 C283 0.930 . S
H276 C286 0.930 . S
H277 C287 0.930 . S
C278 H272 0.930 . S
C278 C279 1.355 . S
C278 C280 1.415 . S
C279 C278 1.355 . S
C279 C281 1.419 . S
C280 C278 1.415 . S
C280 C285 1.425 1_554 S
C280 C287 1.409 . S
C281 H273 0.930 . S
C281 C279 1.419 . S
C281 C282 1.362 1_554 S
C282 H274 0.930 . S
C282 C281 1.362 1_556 S
C282 C285 1.409 . S
C283 H275 0.930 . S
C283 C284 1.355 . S
C283 C285 1.415 . S
C284 C283 1.355 . S
C284 C286 1.419 . S
C285 C280 1.425 1_556 S
C285 C282 1.409 . S
C285 C283 1.415 . S
C286 H276 0.930 . S
C286 C284 1.419 . S
C286 C287 1.362 1_556 S
C287 H277 0.930 . S
C287 C280 1.409 . S
C287 C286 1.362 1_554 S
H288 C294 0.930 . S
H289 C297 0.930 . S
H290 C298 0.930 . S
H291 C299 0.930 . S
H292 C302 0.930 . S
H293 C303 0.930 . S
C294 H288 0.930 . S
C294 C295 1.355 . S
C294 C296 1.415 . S
C295 C294 1.355 . S
C295 C297 1.419 . S
C296 C294 1.415 . S
C296 C301 1.425 . S
C296 C303 1.409 . S
C297 H289 0.930 . S
C297 C295 1.419 . S
C297 C298 1.362 . S
C298 H290 0.930 . S
C298 C297 1.362 . S
C298 C301 1.409 . S
C299 H291 0.930 . S
C299 C300 1.355 . S
C299 C301 1.415 . S
C300 C299 1.355 . S
C300 C302 1.419 . S
C301 C296 1.425 . S
C301 C298 1.409 . S
C301 C299 1.415 . S
C302 H292 0.930 . S
C302 C300 1.419 . S
C302 C303 1.362 . S
C303 H293 0.930 . S
C303 C296 1.409 . S
C303 C302 1.362 . S
H304 C310 0.930 . S
H305 C313 0.930 . S
H306 C314 0.930 . S
H307 C315 0.930 . S
H308 C318 0.930 . S
H309 C319 0.930 . S
C310 H304 0.930 . S
C310 C311 1.355 . S
C310 C312 1.415 1_655 S
C311 C310 1.355 . S
C311 C313 1.419 . S
C312 C310 1.415 1_455 S
C312 C317 1.425 1_456 S
C312 C319 1.409 . S
C313 H305 0.930 . S
C313 C311 1.419 . S
C313 C314 1.362 1_556 S
C314 H306 0.930 . S
C314 C313 1.362 1_554 S
C314 C317 1.409 . S
C315 H307 0.930 . S
C315 C316 1.355 . S
C315 C317 1.415 1_455 S
C316 C315 1.355 . S
C316 C318 1.419 . S
C317 C312 1.425 1_654 S
C317 C314 1.409 . S
C317 C315 1.415 1_655 S
C318 H308 0.930 . S
C318 C316 1.419 . S
C318 C319 1.362 1_554 S
C319 H309 0.930 . S
C319 C312 1.409 . S
C319 C318 1.362 1_556 S
H320 C326 0.930 . S
H321 C329 0.930 . S
H322 C330 0.930 . S
H323 C331 0.930 . S
H324 C334 0.930 . S
H325 C335 0.930 . S
C326 H320 0.930 . S
C326 C327 1.355 . S
C326 C328 1.415 . S
C327 C326 1.355 . S
C327 C329 1.419 . S
C328 C326 1.415 . S
C328 C333 1.425 1_455 S
C328 C335 1.409 1_455 S
C329 H321 0.930 . S
C329 C327 1.419 . S
C329 C330 1.362 . S
C330 H322 0.930 . S
C330 C329 1.362 . S
C330 C333 1.409 1_455 S
C331 H323 0.930 . S
C331 C332 1.355 . S
C331 C333 1.415 . S
C332 C331 1.355 . S
C332 C334 1.419 . S
C333 C328 1.425 1_655 S
C333 C330 1.409 1_655 S
C333 C331 1.415 . S
C334 H324 0.930 . S
C334 C332 1.419 . S
C334 C335 1.362 . S
C335 H325 0.930 . S
C335 C328 1.409 1_655 S
C335 C334 1.362 . S
H336 C342 0.921 1_545 S
H337 C345 0.930 . S
H338 C346 0.930 . S
H339 C347 0.921 1_565 S
H340 C350 0.930 . S
H341 C351 0.930 . S
C342 H336 0.921 1_565 S
C342 C343 1.370 . S
C342 C344 1.409 1_565 S
C343 C342 1.370 . S
C343 C345 1.419 1_554 S
C344 C342 1.409 1_545 S
C344 C349 1.425 1_544 S
C344 C351 1.409 . S
C345 H337 0.930 . S
C345 C343 1.419 1_556 S
C345 C346 1.362 . S
C346 H338 0.930 . S
C346 C345 1.362 . S
C346 C349 1.409 . S
C347 H339 0.921 1_545 S
C347 C348 1.370 . S
C347 C349 1.409 1_545 S
C348 C347 1.370 . S
C348 C350 1.419 1_556 S
C349 C344 1.425 1_566 S
C349 C346 1.409 . S
C349 C347 1.409 1_565 S
C350 H340 0.930 . S
C350 C348 1.419 1_554 S
C350 C351 1.362 . S
C351 H341 0.930 . S
C351 C344 1.409 . S
C351 C350 1.362 . S
H352 C358 0.930 . S
H353 C361 0.930 . S
H354 C362 0.930 . S
H355 C363 0.930 . S
H356 C366 0.930 . S
H357 C367 0.930 . S
C358 H352 0.930 . S
C358 C359 1.355 1_545 S
C358 C360 1.415 . S
C359 C358 1.355 1_565 S
C359 C361 1.419 . S
C360 C358 1.415 . S
C360 C365 1.425 1_545 S
C360 C367 1.409 . S
C361 H353 0.930 . S
C361 C359 1.419 . S
C361 C362 1.362 . S
C362 H354 0.930 . S
C362 C361 1.362 . S
C362 C365 1.409 . S
C363 H355 0.930 . S
C363 C364 1.355 1_565 S
C363 C365 1.415 . S
C364 C363 1.355 1_545 S
C364 C366 1.419 . S
C365 C360 1.425 1_565 S
C365 C362 1.409 . S
C365 C363 1.415 . S
C366 H356 0.930 . S
C366 C364 1.419 . S
C366 C367 1.362 . S
C367 H357 0.930 . S
C367 C360 1.409 . S
C367 C366 1.362 . S
H368 C374 0.930 . S
H369 C377 0.930 . S
H370 C378 0.937 . S
H371 C379 0.930 . S
H372 C382 0.930 . S
H373 C383 0.937 . S
C374 H368 0.930 . S
C374 C375 1.355 . S
C374 C376 1.415 . S
C375 C374 1.355 . S
C375 C377 1.419 . S
C376 C374 1.415 . S
C376 C381 1.425 1_455 S
C376 C383 1.414 . S
C377 H369 0.930 . S
C377 C375 1.419 . S
C377 C378 1.351 1_455 S
C378 H370 0.937 . S
C378 C377 1.351 1_655 S
C378 C381 1.414 . S
C379 H371 0.930 . S
C379 C380 1.355 . S
C379 C381 1.415 . S
C380 C379 1.355 . S
C380 C382 1.419 . S
C381 C376 1.425 1_655 S
C381 C378 1.414 . S
C381 C379 1.415 . S
C382 H372 0.930 . S
C382 C380 1.419 . S
C382 C383 1.351 1_655 S
C383 H373 0.937 . S
C383 C376 1.414 . S
C383 C382 1.351 1_455 S
H384 C390 0.930 . S
H385 C393 0.930 . S
H386 C394 0.930 . S
H387 C395 0.930 . S
H388 C398 0.930 . S
H389 C399 0.930 . S
C390 H384 0.930 . S
C390 C391 1.355 . S
C390 C392 1.415 . S
C391 C390 1.355 . S
C391 C393 1.419 . S
C392 C390 1.415 . S
C392 C397 1.425 1_455 S
C392 C399 1.409 . S
C393 H385 0.930 . S
C393 C391 1.419 . S
C393 C394 1.362 1_455 S
C394 H386 0.930 . S
C394 C393 1.362 1_655 S
C394 C397 1.409 . S
C395 H387 0.930 . S
C395 C396 1.355 . S
C395 C397 1.415 . S
C396 C395 1.355 . S
C396 C398 1.419 . S
C397 C392 1.425 1_655 S
C397 C394 1.409 . S
C397 C395 1.415 . S
C398 H388 0.930 . S
C398 C396 1.419 . S
C398 C399 1.362 1_655 S
C399 H389 0.930 . S
C399 C392 1.409 . S
C399 C398 1.362 1_455 S
H400 C406 0.930 . S
H401 C409 0.930 . S
H402 C410 0.930 . S
H403 C411 0.930 . S
H404 C414 0.930 . S
H405 C415 0.930 . S
C406 H400 0.930 . S
C406 C407 1.355 . S
C406 C408 1.415 . S
C407 C406 1.355 . S
C407 C409 1.419 . S
C408 C406 1.415 . S
C408 C413 1.425 . S
C408 C415 1.409 . S
C409 H401 0.930 . S
C409 C407 1.419 . S
C409 C410 1.362 . S
C410 H402 0.930 . S
C410 C409 1.362 . S
C410 C413 1.409 . S
C411 H403 0.930 . S
C411 C412 1.355 . S
C411 C413 1.415 . S
C412 C411 1.355 . S
C412 C414 1.419 . S
C413 C408 1.425 . S
C413 C410 1.409 . S
C413 C411 1.415 . S
C414 H404 0.930 . S
C414 C412 1.419 . S
C414 C415 1.362 . S
C415 H405 0.930 . S
C415 C408 1.409 . S
C415 C414 1.362 . S
H416 C422 0.930 . S
H417 C425 0.930 . S
H418 C426 0.930 . S
H419 C427 0.930 . S
H420 C430 0.930 . S
H421 C431 0.930 . S
C422 H416 0.930 . S
C422 C423 1.355 . S
C422 C424 1.415 . S
C423 C422 1.355 . S
C423 C425 1.419 . S
C424 C422 1.415 . S
C424 C429 1.425 . S
C424 C431 1.409 . S
C425 H417 0.930 . S
C425 C423 1.419 . S
C425 C426 1.362 . S
C426 H418 0.930 . S
C426 C425 1.362 . S
C426 C429 1.409 . S
C427 H419 0.930 . S
C427 C428 1.355 . S
C427 C429 1.415 . S
C428 C427 1.355 . S
C428 C430 1.419 . S
C429 C424 1.425 . S
C429 C426 1.409 . S
C429 C427 1.415 . S
C430 H420 0.930 . S
C430 C428 1.419 . S
C430 C431 1.362 . S
C431 H421 0.930 . S
C431 C424 1.409 . S
C431 C430 1.362 . S
H432 C438 0.930 . S
H433 C441 0.930 . S
H434 C442 0.930 . S
H435 C443 0.930 . S
H436 C446 0.930 . S
H437 C447 0.930 . S
C438 H432 0.930 . S
C438 C439 1.355 . S
C438 C440 1.415 . S
C439 C438 1.355 . S
C439 C441 1.419 . S
C440 C438 1.415 . S
C440 C445 1.425 . S
C440 C447 1.409 . S
C441 H433 0.930 . S
C441 C439 1.419 . S
C441 C442 1.362 . S
C442 H434 0.930 . S
C442 C441 1.362 . S
C442 C445 1.409 . S
C443 H435 0.930 . S
C443 C444 1.355 . S
C443 C445 1.415 . S
C444 C443 1.355 . S
C444 C446 1.419 . S
C445 C440 1.425 . S
C445 C442 1.409 . S
C445 C443 1.415 . S
C446 H436 0.930 . S
C446 C444 1.419 . S
C446 C447 1.362 . S
C447 H437 0.930 . S
C447 C440 1.409 . S
C447 C446 1.362 . S
H448 C454 0.930 . S
H449 C457 0.930 . S
H450 C458 0.930 . S
H451 C459 0.930 . S
H452 C462 0.930 . S
H453 C463 0.930 . S
C454 H448 0.930 . S
C454 C455 1.355 . S
C454 C456 1.415 . S
C455 C454 1.355 . S
C455 C457 1.419 . S
C456 C454 1.415 . S
C456 C461 1.425 . S
C456 C463 1.409 . S
C457 H449 0.930 . S
C457 C455 1.419 . S
C457 C458 1.362 . S
C458 H450 0.930 . S
C458 C457 1.362 . S
C458 C461 1.409 . S
C459 H451 0.930 . S
C459 C460 1.355 . S
C459 C461 1.415 . S
C460 C459 1.355 . S
C460 C462 1.419 . S
C461 C456 1.425 . S
C461 C458 1.409 . S
C461 C459 1.415 . S
C462 H452 0.930 . S
C462 C460 1.419 . S
C462 C463 1.362 . S
C463 H453 0.930 . S
C463 C456 1.409 . S
C463 C462 1.362 . S
H464 C470 0.930 . S
H465 C473 0.930 . S
H466 C474 0.930 . S
H467 C475 0.930 . S
H468 C478 0.930 . S
H469 C479 0.930 . S
C470 H464 0.930 . S
C470 C471 1.355 . S
C470 C472 1.415 . S
C471 C470 1.355 . S
C471 C473 1.419 . S
C472 C470 1.415 . S
C472 C477 1.425 . S
C472 C479 1.409 . S
C473 H465 0.930 . S
C473 C471 1.419 . S
C473 C474 1.362 . S
C474 H466 0.930 . S
C474 C473 1.362 . S
C474 C477 1.409 . S
C475 H467 0.930 . S
C475 C476 1.355 . S
C475 C477 1.415 . S
C476 C475 1.355 . S
C476 C478 1.419 . S
C477 C472 1.425 . S
C477 C474 1.409 . S
C477 C475 1.415 . S
C478 H468 0.930 . S
C478 C476 1.419 . S
C478 C479 1.362 . S
C479 H469 0.930 . S
C479 C472 1.409 . S
C479 C478 1.362 . S
H480 C486 0.930 . S
H481 C489 0.930 . S
H482 C490 0.930 . S
H483 C491 0.930 . S
H484 C494 0.930 . S
H485 C495 0.930 . S
C486 H480 0.930 . S
C486 C487 1.355 . S
C486 C488 1.415 . S
C487 C486 1.355 . S
C487 C489 1.419 . S
C488 C486 1.415 . S
C488 C493 1.425 . S
C488 C495 1.409 . S
C489 H481 0.930 . S
C489 C487 1.419 . S
C489 C490 1.362 . S
C490 H482 0.930 . S
C490 C489 1.362 . S
C490 C493 1.409 . S
C491 H483 0.930 . S
C491 C492 1.355 . S
C491 C493 1.415 . S
C492 C491 1.355 . S
C492 C494 1.419 . S
C493 C488 1.425 . S
C493 C490 1.409 . S
C493 C491 1.415 . S
C494 H484 0.930 . S
C494 C492 1.419 . S
C494 C495 1.362 . S
C495 H485 0.930 . S
C495 C488 1.409 . S
C495 C494 1.362 . S
H496 C502 0.930 . S
H497 C505 0.930 . S
H498 C506 0.930 . S
H499 C507 0.930 . S
H500 C510 0.932 . S
H501 C511 0.930 . S
C502 H496 0.930 . S
C502 C503 1.355 . S
C502 C504 1.415 . S
C503 C502 1.355 . S
C503 C505 1.419 . S
C504 C502 1.415 . S
C504 C509 1.425 1_565 S
C504 C511 1.409 . S
C505 H497 0.930 . S
C505 C503 1.419 . S
C505 C506 1.362 1_565 S
C506 H498 0.930 . S
C506 C505 1.362 1_545 S
C506 C509 1.409 . S
C507 H499 0.930 . S
C507 C508 1.355 . S
C507 C509 1.415 . S
C508 C507 1.355 . S
C508 C510 1.393 1_545 S
C509 C504 1.425 1_545 S
C509 C506 1.409 . S
C509 C507 1.415 . S
C510 H500 0.932 . S
C510 C508 1.393 1_565 S
C510 C511 1.388 . S
C511 H501 0.930 . S
C511 C504 1.409 . S
C511 C510 1.388 . S
H512 C518 0.930 . S
H513 C521 0.930 . S
H514 C522 0.934 . S
H515 C523 0.930 . S
H516 C526 0.930 . S
H517 C527 0.930 . S
C518 H512 0.930 . S
C518 C519 1.355 . S
C518 C520 1.415 1_545 S
C519 C518 1.355 . S
C519 C521 1.419 . S
C520 C518 1.415 1_565 S
C520 C525 1.425 . S
C520 C527 1.409 . S
C521 H513 0.930 . S
C521 C519 1.419 . S
C521 C522 1.362 . S
C522 H514 0.934 . S
C522 C521 1.362 . S
C522 C525 1.409 1_545 S
C523 H515 0.930 . S
C523 C524 1.355 . S
C523 C525 1.415 . S
C524 C523 1.355 . S
C524 C526 1.419 . S
C525 C520 1.425 . S
C525 C522 1.409 1_565 S
C525 C523 1.415 . S
C526 H516 0.930 . S
C526 C524 1.419 . S
C526 C527 1.362 . S
C527 H517 0.930 . S
C527 C520 1.409 . S
C527 C526 1.362 . S
H528 C534 0.930 1_545 S
H529 C537 0.930 . S
H530 C538 0.930 . S
H531 C539 0.930 . S
H532 C542 0.930 . S
H533 C543 0.930 . S
C534 H528 0.930 1_565 S
C534 C535 1.355 . S
C534 C536 1.415 1_565 S
C535 C534 1.355 . S
C535 C537 1.419 . S
C536 C534 1.415 1_545 S
C536 C541 1.425 . S
C536 C543 1.409 . S
C537 H529 0.930 . S
C537 C535 1.419 . S
C537 C538 1.362 . S
C538 H530 0.930 . S
C538 C537 1.362 . S
C538 C541 1.409 1_565 S
C539 H531 0.930 . S
C539 C540 1.355 . S
C539 C541 1.415 . S
C540 C539 1.355 . S
C540 C542 1.419 . S
C541 C536 1.425 . S
C541 C538 1.409 1_545 S
C541 C539 1.415 . S
C542 H532 0.930 . S
C542 C540 1.419 . S
C542 C543 1.362 . S
C543 H533 0.930 . S
C543 C536 1.409 . S
C543 C542 1.362 . S
H544 C550 0.930 . S
H545 C553 0.930 . S
H546 C554 0.930 1_565 S
H547 C555 0.930 . S
H548 C558 0.930 . S
H549 C559 0.930 . S
C550 H544 0.930 . S
C550 C551 1.355 . S
C550 C552 1.415 . S
C551 C550 1.355 . S
C551 C553 1.419 . S
C552 C550 1.415 . S
C552 C557 1.425 . S
C552 C559 1.409 . S
C553 H545 0.930 . S
C553 C551 1.419 . S
C553 C554 1.362 . S
C554 H546 0.930 1_545 S
C554 C553 1.362 . S
C554 C557 1.409 . S
C555 H547 0.930 . S
C555 C556 1.355 . S
C555 C557 1.415 1_565 S
C556 C555 1.355 . S
C556 C558 1.419 . S
C557 C552 1.425 . S
C557 C554 1.409 . S
C557 C555 1.415 1_545 S
C558 H548 0.930 . S
C558 C556 1.419 . S
C558 C559 1.362 1_565 S
C559 H549 0.930 . S
C559 C552 1.409 . S
C559 C558 1.362 1_545 S
C183 C40 1.395 . S
C188 C8 1.395 . S
C199 C62 1.351 . S
C204 C74 1.351 . S
C215 C128 1.392 . S
C220 C96 1.392 . S
C231 C150 1.395 . S
C236 C162 1.396 . S
C247 C18 1.636 . S
C252 C142 1.636 . S
C263 C32 1.636 . S
C268 C172 1.636 . S
C279 C106 1.610 . S
C284 C54 1.610 . S
C295 C84 1.612 . S
C300 C120 1.612 . S
C311 C65 1.124 . S
C316 C15 1.124 . S
C327 C81 1.043 . S
C332 C43 1.043 . S
C343 C103 1.043 . S
C348 C153 1.043 . S
C359 C131 1.112 . S
C364 C169 1.112 . S
C375 C7 1.599 . S
C380 C37 1.622 . S
C391 C73 1.620 . S
C396 C59 1.607 . S
C407 C125 1.595 . S
C412 C95 1.587 . S
C423 C161 1.599 . S
C428 C147 1.585 . S
C439 C10 1.342 . S
C444 C87 1.367 . S
C455 C30 1.322 . S
C460 C51 1.360 . S
C471 C29 1.350 . S
C476 C52 1.306 . S
C487 C21 1.337 . S
C492 C76 1.267 . S
C503 C98 1.256 . S
C508 C175 1.331 . S
C519 C139 1.347 . S
C524 C118 1.300 . S
C535 C117 1.366 . S
C540 C140 1.343 . S
C551 C164 1.282 . S
C556 C109 1.343 . S
