# Generated by pormake.
# Topology uku, (4)-cn, num edge types: 1
# Building blocks:
#     Node 0, Type 0, BuildingBlock: QUQFOY_clean_sbu_1, # of connection points: 4
#     Node 1, Type 0, BuildingBlock: QUQFOY_clean_sbu_1, # of connection points: 4
#     Node 2, Type 0, BuildingBlock: QUQFOY_clean_sbu_1, # of connection points: 4
#     Node 3, Type 0, BuildingBlock: QUQFOY_clean_sbu_1, # of connection points: 4
#     Node 4, Type 0, BuildingBlock: QUQFOY_clean_sbu_1, # of connection points: 4
#     Node 5, Type 0, BuildingBlock: QUQFOY_clean_sbu_1, # of connection points: 4
#     Node 6, Type 0, BuildingBlock: QUQFOY_clean_sbu_1, # of connection points: 4
#     Node 7, Type 0, BuildingBlock: QUQFOY_clean_sbu_1, # of connection points: 4
#     Node 8, Type 0, BuildingBlock: QUQFOY_clean_sbu_1, # of connection points: 4
#     Node 9, Type 0, BuildingBlock: QUQFOY_clean_sbu_1, # of connection points: 4
#     Node 10, Type 0, BuildingBlock: QUQFOY_clean_sbu_1, # of connection points: 4
#     Node 11, Type 0, BuildingBlock: QUQFOY_clean_sbu_1, # of connection points: 4
#     Edge 12, Type (0, 0), BuildingBlock: AJUNOK_clean_linker_0, # of connection points: 2
#     Edge 13, Type (0, 0), BuildingBlock: AJUNOK_clean_linker_0, # of connection points: 2
#     Edge 14, Type (0, 0), BuildingBlock: AJUNOK_clean_linker_0, # of connection points: 2
#     Edge 15, Type (0, 0), BuildingBlock: AJUNOK_clean_linker_0, # of connection points: 2
#     Edge 16, Type (0, 0), BuildingBlock: AJUNOK_clean_linker_0, # of connection points: 2
#     Edge 17, Type (0, 0), BuildingBlock: AJUNOK_clean_linker_0, # of connection points: 2
#     Edge 18, Type (0, 0), BuildingBlock: AJUNOK_clean_linker_0, # of connection points: 2
#     Edge 19, Type (0, 0), BuildingBlock: AJUNOK_clean_linker_0, # of connection points: 2
#     Edge 20, Type (0, 0), BuildingBlock: AJUNOK_clean_linker_0, # of connection points: 2
#     Edge 21, Type (0, 0), BuildingBlock: AJUNOK_clean_linker_0, # of connection points: 2
#     Edge 22, Type (0, 0), BuildingBlock: AJUNOK_clean_linker_0, # of connection points: 2
#     Edge 23, Type (0, 0), BuildingBlock: AJUNOK_clean_linker_0, # of connection points: 2
#     Edge 24, Type (0, 0), BuildingBlock: AJUNOK_clean_linker_0, # of connection points: 2
#     Edge 25, Type (0, 0), BuildingBlock: AJUNOK_clean_linker_0, # of connection points: 2
#     Edge 26, Type (0, 0), BuildingBlock: AJUNOK_clean_linker_0, # of connection points: 2
#     Edge 27, Type (0, 0), BuildingBlock: AJUNOK_clean_linker_0, # of connection points: 2
#     Edge 28, Type (0, 0), BuildingBlock: AJUNOK_clean_linker_0, # of connection points: 2
#     Edge 29, Type (0, 0), BuildingBlock: AJUNOK_clean_linker_0, # of connection points: 2
#     Edge 30, Type (0, 0), BuildingBlock: AJUNOK_clean_linker_0, # of connection points: 2
#     Edge 31, Type (0, 0), BuildingBlock: AJUNOK_clean_linker_0, # of connection points: 2
#     Edge 32, Type (0, 0), BuildingBlock: AJUNOK_clean_linker_0, # of connection points: 2
#     Edge 33, Type (0, 0), BuildingBlock: AJUNOK_clean_linker_0, # of connection points: 2
#     Edge 34, Type (0, 0), BuildingBlock: AJUNOK_clean_linker_0, # of connection points: 2
#     Edge 35, Type (0, 0), BuildingBlock: AJUNOK_clean_linker_0, # of connection points: 2
# Relax obj value: 0.260
# Max RMSD: 0.221
# Mean RMSD: 0.221
data_MOF--net-uku--node1-QUQFOY_clean_sbu_1--edge1-AJUNOK_clean_linker_0
_symmetry_space_group_name_H-M    P1
_symmetry_Int_Tables_number       1
_symmetry_cell_setting            triclinic
loop_
_symmetry_equiv_pos_as_xyz
'x, y, z'
_cell_length_a     32.228662
_cell_length_b     32.408768
_cell_length_c     32.388216
_cell_angle_alpha  89.97888
_cell_angle_beta   89.980093
_cell_angle_gamma 89.962834
loop_
_atom_site_label
_atom_site_type_symbol
_atom_site_fract_x
_atom_site_fract_y
_atom_site_fract_z
_atom_type_partial_charge
O0 O 0.08348 0.08708 0.62136 0.0
Cd1 Cd 0.11377 0.14125 0.60974 0.0
Cd2 Cd 0.09015 0.15715 0.68191 0.0
O3 O 0.04397 0.11479 0.66962 0.0
O4 O 0.10438 0.15425 0.55005 0.0
O5 O 0.0719 0.1862 0.60131 0.0
C6 C 0.07505 0.17876 0.56219 0.0
C7 C 0.08509 0.22031 0.71624 0.0
C8 C 0.05253 0.08491 0.64553 0.0
C9 C 0.17697 0.12916 0.67132 0.0
O10 O 0.14504 0.12877 0.69414 0.0
O11 O 0.17432 0.14208 0.63418 0.0
O12 O 0.07621 0.18594 0.73429 0.0
O13 O 0.09345 0.21936 0.67727 0.0
O14 O 0.93259 0.92827 0.62193 0.0
Cd15 Cd 0.90193 0.87432 0.61037 0.0
Cd16 Cd 0.92613 0.858 0.68237 0.0
O17 O 0.97228 0.90037 0.66989 0.0
O18 O 0.91067 0.86197 0.55049 0.0
O19 O 0.94325 0.82902 0.60105 0.0
C20 C 0.93986 0.83701 0.56204 0.0
C21 C 0.93181 0.79502 0.71709 0.0
C22 C 0.96369 0.93031 0.64588 0.0
C23 C 0.83915 0.88634 0.67235 0.0
O24 O 0.87122 0.8863 0.69498 0.0
O25 O 0.84152 0.87378 0.63508 0.0
O26 O 0.94045 0.82958 0.73486 0.0
O27 O 0.92327 0.7957 0.67815 0.0
O28 O 0.08469 0.92793 0.39097 0.0
Cd29 Cd 0.11607 0.87415 0.40129 0.0
Cd30 Cd 0.08962 0.85845 0.33003 0.0
O31 O 0.04277 0.89923 0.34541 0.0
O32 O 0.10678 0.85995 0.46088 0.0
O33 O 0.07463 0.82899 0.4089 0.0
C34 C 0.07718 0.8361 0.4481 0.0
C35 C 0.08591 0.7946 0.29672 0.0
C36 C 0.052 0.92918 0.36915 0.0
C37 C 0.17611 0.88752 0.3368 0.0
O38 O 0.14296 0.88862 0.3158 0.0
O39 O 0.17537 0.87346 0.37365 0.0
O40 O 0.07447 0.82826 0.27868 0.0
O41 O 0.09608 0.79655 0.33521 0.0
O42 O 0.9293 0.08525 0.39195 0.0
Cd43 Cd 0.89885 0.13971 0.40179 0.0
Cd44 Cd 0.92601 0.15471 0.33031 0.0
O45 O 0.97156 0.11257 0.34583 0.0
O46 O 0.90796 0.15429 0.4613 0.0
O47 O 0.94063 0.18463 0.40927 0.0
C48 C 0.9377 0.178 0.44854 0.0
C49 C 0.93285 0.21784 0.29597 0.0
C50 C 0.96176 0.08299 0.36983 0.0
C51 C 0.83863 0.12749 0.33727 0.0
O52 O 0.87173 0.12618 0.31615 0.0
O53 O 0.8396 0.14114 0.37425 0.0
O54 O 0.9426 0.18341 0.27847 0.0
O55 O 0.92211 0.21693 0.33434 0.0
O56 O 0.63128 0.09103 0.07888 0.0
Cd57 Cd 0.61351 0.11838 0.13291 0.0
Cd58 Cd 0.68258 0.09189 0.15475 0.0
O59 O 0.66947 0.04573 0.11232 0.0
O60 O 0.55279 0.10788 0.14086 0.0
O61 O 0.60213 0.07558 0.17611 0.0
C62 C 0.56343 0.07852 0.16589 0.0
C63 C 0.71485 0.08555 0.21911 0.0
C64 C 0.65192 0.0577 0.07915 0.0
C65 C 0.67596 0.17905 0.12625 0.0
O66 O 0.69764 0.14636 0.1266 0.0
O67 O 0.63814 0.17782 0.13776 0.0
O68 O 0.73373 0.07609 0.18529 0.0
O69 O 0.67609 0.09543 0.21691 0.0
O70 O 0.38411 0.92591 0.07849 0.0
Cd71 Cd 0.40186 0.89882 0.13262 0.0
Cd72 Cd 0.33206 0.9247 0.15405 0.0
O73 O 0.34516 0.97089 0.11154 0.0
O74 O 0.46211 0.91141 0.14166 0.0
O75 O 0.4109 0.94186 0.17592 0.0
C76 C 0.4498 0.9406 0.16613 0.0
C77 C 0.29946 0.93058 0.21835 0.0
C78 C 0.36312 0.95904 0.07853 0.0
C79 C 0.33991 0.83764 0.12551 0.0
O80 O 0.3179 0.87011 0.12584 0.0
O81 O 0.37765 0.83917 0.13727 0.0
O82 O 0.28061 0.93997 0.18449 0.0
O83 O 0.33829 0.92105 0.21623 0.0
O84 O 0.63305 0.92828 0.92985 0.0
Cd85 Cd 0.61566 0.89938 0.8766 0.0
Cd86 Cd 0.68464 0.92563 0.85383 0.0
O87 O 0.67084 0.97278 0.89502 0.0
O88 O 0.55477 0.90905 0.86897 0.0
O89 O 0.6034 0.9411 0.83257 0.0
C90 C 0.56484 0.93804 0.8433 0.0
C91 C 0.71628 0.93143 0.78904 0.0
C92 C 0.65301 0.96198 0.92845 0.0
C93 C 0.67867 0.83913 0.88454 0.0
O94 O 0.70024 0.87185 0.88317 0.0
O95 O 0.64077 0.83999 0.87325 0.0
O96 O 0.73537 0.94156 0.82253 0.0
O97 O 0.67782 0.92066 0.79181 0.0
O98 O 0.38308 0.08792 0.92896 0.0
Cd99 Cd 0.40122 0.11617 0.8756 0.0
Cd100 Cd 0.33171 0.09074 0.85259 0.0
O101 O 0.34503 0.04367 0.89411 0.0
O102 O 0.46167 0.10401 0.86729 0.0
O103 O 0.4112 0.07384 0.83177 0.0
C104 C 0.44991 0.07509 0.84227 0.0
C105 C 0.30003 0.0849 0.78783 0.0
C106 C 0.3628 0.05442 0.92758 0.0
C107 C 0.33897 0.17728 0.88299 0.0
O108 O 0.31692 0.14487 0.88158 0.0
O109 O 0.37693 0.17589 0.87191 0.0
O110 O 0.28082 0.07515 0.82138 0.0
O111 O 0.33858 0.09536 0.79052 0.0
O112 O 0.08654 0.62646 0.08897 0.0
Cd113 Cd 0.14208 0.61228 0.11573 0.0
Cd114 Cd 0.15996 0.68109 0.08632 0.0
O115 O 0.11757 0.66385 0.04138 0.0
O116 O 0.15399 0.55244 0.10453 0.0
O117 O 0.18483 0.60409 0.07174 0.0
C118 C 0.17697 0.56506 0.07417 0.0
C119 C 0.22399 0.71409 0.07911 0.0
C120 C 0.08528 0.64547 0.05474 0.0
C121 C 0.13322 0.67713 0.17382 0.0
O122 O 0.13131 0.69701 0.14013 0.0
O123 O 0.14714 0.64023 0.17394 0.0
O124 O 0.18979 0.73181 0.06831 0.0
O125 O 0.22236 0.67611 0.09099 0.0
O126 O 0.08631 0.38787 0.92505 0.0
Cd127 Cd 0.14142 0.40213 0.89744 0.0
Cd128 Cd 0.15989 0.33394 0.92685 0.0
O129 O 0.11802 0.35077 0.97241 0.0
O130 O 0.15226 0.46235 0.90651 0.0
O131 O 0.18467 0.41246 0.94062 0.0
C132 C 0.17623 0.45129 0.93669 0.0
C133 C 0.22392 0.3007 0.93305 0.0
C134 C 0.08547 0.36891 0.95932 0.0
C135 C 0.13192 0.33738 0.83967 0.0
O136 O 0.13052 0.3177 0.87351 0.0
O137 O 0.1458 0.37425 0.83919 0.0
O138 O 0.18981 0.2831 0.94426 0.0
O139 O 0.22224 0.33879 0.92147 0.0
O140 O 0.93212 0.62815 0.9275 0.0
Cd141 Cd 0.87747 0.61324 0.89933 0.0
Cd142 Cd 0.85785 0.68171 0.92821 0.0
O143 O 0.89872 0.66429 0.97445 0.0
O144 O 0.86649 0.55326 0.91034 0.0
O145 O 0.83385 0.60437 0.94235 0.0
C146 C 0.84268 0.56551 0.94021 0.0
C147 C 0.79405 0.7155 0.93415 0.0
C148 C 0.93166 0.64624 0.96224 0.0
C149 C 0.8867 0.67785 0.84127 0.0
O150 O 0.88774 0.69769 0.87502 0.0
O151 O 0.87317 0.64084 0.84091 0.0
O152 O 0.82827 0.73281 0.94543 0.0
O153 O 0.79547 0.67742 0.92255 0.0
O154 O 0.9329 0.38619 0.08724 0.0
Cd155 Cd 0.8785 0.40114 0.11585 0.0
Cd156 Cd 0.85793 0.33327 0.08664 0.0
O157 O 0.89917 0.35019 0.04051 0.0
O158 O 0.8686 0.46159 0.10712 0.0
O159 O 0.83473 0.41246 0.07342 0.0
C160 C 0.84397 0.4511 0.07728 0.0
C161 C 0.79329 0.30137 0.08005 0.0
C162 C 0.93226 0.36799 0.05258 0.0
C163 C 0.88745 0.33605 0.17346 0.0
O164 O 0.88747 0.31614 0.13974 0.0
O165 O 0.87463 0.37331 0.1741 0.0
O166 O 0.82707 0.2832 0.06874 0.0
O167 O 0.79569 0.33922 0.09223 0.0
C168 C 0.96589 0.18895 0.52009 0.0
C169 C 0.97208 0.18984 0.47706 0.0
C170 C 0.99959 0.18968 0.54771 0.0
C171 C 0.04091 0.19025 0.53341 0.0
H172 H 0.9349 0.18538 0.53253 0.0
H173 H 0.99319 0.18636 0.58039 0.0
S174 S 0.07415 0.19783 0.42413 0.0
N175 N 0.023 0.19611 0.42181 0.0
N176 N 0.08597 0.19586 0.4737 0.0
C177 C 0.04748 0.19398 0.49071 0.0
C178 C 0.01317 0.19425 0.46258 0.0
C179 C 0.04857 0.82375 0.51931 0.0
C180 C 0.04234 0.82492 0.47631 0.0
C181 C 0.01484 0.82338 0.54695 0.0
C182 C 0.97352 0.82534 0.53274 0.0
H183 H 0.0797 0.82532 0.53177 0.0
H184 H 0.02139 0.82492 0.57972 0.0
S185 S 0.94009 0.82481 0.42323 0.0
N186 N 0.99126 0.82401 0.42093 0.0
N187 N 0.92832 0.82484 0.47285 0.0
C188 C 0.96683 0.82392 0.4899 0.0
C189 C 1.00111 0.82328 0.46173 0.0
C190 C 0.52102 0.96997 0.17785 0.0
C191 C 0.47781 0.9758 0.17599 0.0
C192 C 0.54845 1.00375 0.17845 0.0
C193 C 0.53381 0.0447 0.17592 0.0
H194 H 0.53383 0.93907 0.17706 0.0
H195 H 0.58148 0.99753 0.17784 0.0
S196 S 0.42344 0.07691 0.17325 0.0
N197 N 0.42162 0.02601 0.17472 0.0
N198 N 0.47317 0.08911 0.17423 0.0
C199 C 0.49067 0.05099 0.17606 0.0
C200 C 0.4627 0.01666 0.17654 0.0
C201 C 0.54906 0.01254 0.82991 0.0
C202 C 0.53481 0.97151 0.83314 0.0
C203 C 0.52133 0.04612 0.83034 0.0
C204 C 0.47819 0.04 0.83269 0.0
H205 H 0.58203 0.01901 0.83007 0.0
H206 H 0.53386 0.07713 0.83058 0.0
S207 S 0.42475 0.93857 0.8378 0.0
N208 N 0.47457 0.92671 0.83635 0.0
N209 N 0.42247 0.98942 0.83552 0.0
C210 C 0.46344 0.99902 0.83298 0.0
C211 C 0.49172 0.96491 0.83365 0.0
C212 C 0.18895 0.46651 0.01147 0.0
C213 C 0.18668 0.48084 0.97038 0.0
C214 C 0.18852 0.49398 0.04511 0.0
C215 C 0.18698 0.53694 0.03909 0.0
H216 H 0.18799 0.43373 0.01789 0.0
H217 H 0.18749 0.48138 0.0761 0.0
S218 S 0.18554 0.59044 0.93753 0.0
N219 N 0.186 0.5409 0.92562 0.0
N220 N 0.18669 0.59252 0.98845 0.0
C221 C 0.18795 0.55171 0.99808 0.0
C222 C 0.18738 0.52369 0.96387 0.0
C223 C 0.83093 0.49442 0.96914 0.0
C224 C 0.83294 0.53733 0.9753 0.0
C225 C 0.83063 0.46681 1.0027 0.0
C226 C 0.83359 0.48095 0.04381 0.0
H227 H 0.83142 0.48196 0.9381 0.0
H228 H 0.83114 0.43405 0.99616 0.0
S229 S 0.83681 0.59039 0.07696 0.0
N230 N 0.83484 0.59269 0.02607 0.0
N231 N 0.83583 0.54082 0.08873 0.0
C232 C 0.83357 0.52378 0.05046 0.0
C233 C 0.83283 0.55194 0.01636 0.0
C234 C 0.25076 0.13627 0.69507 0.0
C235 C 0.21534 0.11171 0.68918 0.0
C236 C 0.28108 0.12507 0.72442 0.0
C237 C 0.27636 0.08936 0.74892 0.0
H238 H 0.25321 0.16591 0.67978 0.0
H239 H 0.30618 0.1464 0.73061 0.0
S240 S 0.19304 0.0113 0.73945 0.0
N241 N 0.18057 0.04727 0.70552 0.0
N242 N 0.2368 0.02683 0.76091 0.0
C243 C 0.24317 0.06282 0.74029 0.0
C244 C 0.21283 0.07387 0.7103 0.0
C245 C 0.73498 0.89136 0.72547 0.0
C246 C 0.74007 0.92686 0.75018 0.0
C247 C 0.76525 0.87994 0.69613 0.0
C248 C 0.80104 0.90406 0.6905 0.0
H249 H 0.70956 0.87034 0.73144 0.0
H250 H 0.76243 0.85047 0.68062 0.0
S251 S 0.8245 1.00385 0.74138 0.0
N252 N 0.78045 0.98878 0.76261 0.0
N253 N 0.83662 0.96791 0.70731 0.0
C254 C 0.80399 0.94171 0.71186 0.0
C255 C 0.77367 0.953 0.74179 0.0
C256 C 0.23905 0.94968 0.26189 0.0
C257 C 0.27517 0.926 0.25696 0.0
C258 C 0.20911 0.9391 0.29129 0.0
C259 C 0.21383 0.9042 0.31679 0.0
H260 H 0.23256 0.97508 0.2411 0.0
H261 H 0.18056 0.9568 0.29204 0.0
S262 S 0.30499 0.83475 0.31964 0.0
N263 N 0.31618 0.86853 0.28305 0.0
N264 N 0.25918 0.84837 0.33814 0.0
C265 C 0.25135 0.88234 0.31484 0.0
C266 C 0.28223 0.89331 0.28488 0.0
C267 C 0.77502 0.06583 0.26263 0.0
C268 C 0.73908 0.08981 0.25776 0.0
C269 C 0.80511 0.07619 0.2919 0.0
C270 C 0.80073 0.11114 0.31737 0.0
H271 H 0.78126 0.04039 0.24183 0.0
H272 H 0.83352 0.05827 0.29259 0.0
S273 S 0.71006 0.18121 0.32054 0.0
N274 N 0.69854 0.14755 0.28396 0.0
N275 N 0.75582 0.16726 0.33889 0.0
C276 C 0.76336 0.13327 0.31555 0.0
C277 C 0.73232 0.12253 0.28569 0.0
C278 C 0.70008 0.25253 0.13167 0.0
C279 C 0.69531 0.21628 0.1084 0.0
C280 C 0.72932 0.28267 0.11989 0.0
C281 C 0.75471 0.27705 0.08481 0.0
H282 H 0.68383 0.25601 0.16075 0.0
H283 H 0.73456 0.30861 0.14032 0.0
S284 S 0.74784 0.19116 0.00965 0.0
N285 N 0.71344 0.17952 0.04559 0.0
N286 N 0.76847 0.23555 0.02393 0.0
C287 C 0.74714 0.24285 0.05941 0.0
C288 C 0.71738 0.21259 0.07113 0.0
C289 C 0.28791 0.73337 0.11869 0.0
C290 C 0.26221 0.73896 0.08383 0.0
C291 C 0.31681 0.76379 0.13052 0.0
C292 C 0.32096 0.80029 0.1075 0.0
H293 H 0.28314 0.70719 0.13893 0.0
H294 H 0.33328 0.76028 0.15945 0.0
S295 S 0.26748 0.82554 0.00928 0.0
N296 N 0.2475 0.78078 0.02338 0.0
N297 N 0.30197 0.83732 0.04506 0.0
C298 C 0.29861 0.80401 0.07039 0.0
C299 C 0.26915 0.77348 0.05865 0.0
C300 C 0.73016 0.73455 0.89421 0.0
C301 C 0.75621 0.74089 0.92868 0.0
C302 C 0.70157 0.76499 0.88157 0.0
C303 C 0.69817 0.80235 0.90328 0.0
H304 H 0.73432 0.70758 0.8749 0.0
H305 H 0.68465 0.76066 0.85301 0.0
S306 S 0.75282 0.83009 1.00014 0.0
N307 N 0.77197 0.78454 0.98751 0.0
N308 N 0.71829 0.84123 0.96417 0.0
C309 C 0.72097 0.80703 0.93999 0.0
C310 C 0.75 0.7764 0.95263 0.0
C311 C 0.31618 0.25143 0.87996 0.0
C312 C 0.31996 0.21421 0.90189 0.0
C313 C 0.28761 0.28184 0.89273 0.0
C314 C 0.26193 0.27558 0.9275 0.0
H315 H 0.33272 0.25561 0.85115 0.0
H316 H 0.28312 0.30865 0.87326 0.0
S317 S 0.26631 0.18675 0.99943 0.0
N318 N 0.30057 0.17558 0.96321 0.0
N319 N 0.24687 0.23218 0.98674 0.0
C320 C 0.26853 0.24024 0.95162 0.0
C321 C 0.29757 0.20967 0.93889 0.0
C322 C 0.06912 0.7517 0.2355 0.0
C323 C 0.0921 0.75664 0.27195 0.0
C324 C 0.08085 0.7228 0.20568 0.0
C325 C 0.11621 0.69777 0.21088 0.0
H326 H 0.04325 0.772 0.2288 0.0
H327 H 0.06347 0.72184 0.17705 0.0
S328 S 0.18434 0.69521 0.3028 0.0
N329 N 0.14961 0.73118 0.31357 0.0
N330 N 0.17182 0.67691 0.25684 0.0
C331 C 0.1375 0.6998 0.24858 0.0
C332 C 0.12539 0.72929 0.27931 0.0
C333 C 0.06883 0.26133 0.7788 0.0
C334 C 0.09054 0.2581 0.74139 0.0
C335 C 0.08055 0.28997 0.80882 0.0
C336 C 0.11466 0.31646 0.80288 0.0
H337 H 0.04408 0.23988 0.78602 0.0
H338 H 0.06419 0.28965 0.83807 0.0
S339 S 0.17874 0.32396 0.70831 0.0
N340 N 0.14516 0.2868 0.6981 0.0
N341 N 0.16738 0.34067 0.75519 0.0
C342 C 0.13447 0.31617 0.7643 0.0
C343 C 0.12235 0.28691 0.73337 0.0
C344 C 0.93721 0.72612 0.81025 0.0
C345 C 0.9037 0.69889 0.80438 0.0
C346 C 0.94851 0.75477 0.78005 0.0
C347 C 0.92693 0.75731 0.74252 0.0
H348 H 0.95342 0.72699 0.83957 0.0
H349 H 0.97279 0.77675 0.78722 0.0
S350 S 0.84033 0.68938 0.70956 0.0
N351 N 0.85177 0.67325 0.75663 0.0
N352 N 0.87316 0.72716 0.69922 0.0
C353 C 0.89577 0.72779 0.73459 0.0
C354 C 0.8841 0.6985 0.76571 0.0
C355 C 0.89475 0.28277 0.27736 0.0
C356 C 0.92844 0.2557 0.27074 0.0
C357 C 0.8832 0.31207 0.24727 0.0
C358 C 0.90525 0.31513 0.20996 0.0
H359 H 0.87518 0.27906 0.3043 0.0
H360 H 0.85517 0.32995 0.25181 0.0
S361 S 1.00076 0.25761 0.18183 0.0
N362 N 0.9871 0.23837 0.22704 0.0
N363 N 0.96595 0.29342 0.17104 0.0
C364 C 0.94133 0.29113 0.20508 0.0
C365 C 0.95281 0.26137 0.23534 0.0
C366 C 0.01818 0.02667 0.60949 0.0
C367 C 0.02842 0.04649 0.64668 0.0
C368 C 0.99759 0.98868 0.60957 0.0
C369 C 0.98794 0.96864 0.64683 0.0
H370 H 0.02585 0.04081 0.58013 0.0
H371 H 0.98942 0.97473 0.58028 0.0
S372 S 0.00913 0.00723 0.75243 0.0
N373 N 0.02763 0.0435 0.72165 0.0
N374 N 0.99007 0.97116 0.72179 0.0
C375 C 0.99856 0.98781 0.68422 0.0
C376 C 0.01848 0.02708 0.68415 0.0
C377 C 0.99784 0.02594 0.33287 0.0
C378 C 0.98594 0.04455 0.37025 0.0
C379 C 0.01758 0.98737 0.33259 0.0
C380 C 0.02687 0.96692 0.36971 0.0
H381 H 0.99106 0.04087 0.3037 0.0
H382 H 0.02664 0.97399 0.30328 0.0
S383 S 1.00268 1.00295 0.47557 0.0
N384 N 0.98437 0.0396 0.44512 0.0
N385 N 0.02312 0.9679 0.4446 0.0
C386 C 0.01549 0.98539 0.40721 0.0
C387 C 0.99454 0.02405 0.40747 0.0
C388 C 0.6542 0.96768 1.00507 0.0
C389 C 0.6559 0.98721 0.96621 0.0
C390 C 0.65451 0.99058 0.04172 0.0
C391 C 0.65557 0.03381 0.04067 0.0
H392 H 0.6524 0.93436 0.00721 0.0
H393 H 0.6525 0.97441 0.07094 0.0
S394 S 0.66271 0.09975 0.94719 0.0
N395 N 0.66096 0.05215 0.92905 0.0
N396 N 0.66057 0.0954 0.99795 0.0
C397 C 0.65827 0.05373 1.00212 0.0
C398 C 0.65876 0.03036 0.96484 0.0
C399 C 0.35994 0.02606 0.04089 0.0
C400 C 0.3596 0.98282 0.03994 0.0
C401 C 0.36042 0.04891 1.00418 0.0
C402 C 0.35958 0.02927 0.96536 0.0
H403 H 0.36132 0.04231 0.0701 0.0
H404 H 0.36169 0.08225 1.00623 0.0
S405 S 0.35513 0.91664 0.94648 0.0
N406 N 0.35635 0.92108 0.99727 0.0
N407 N 0.35626 0.96423 0.92828 0.0
C408 C 0.35748 0.9861 0.96406 0.0
C409 C 0.3578 0.96279 1.00139 0.0
C410 C 1.00871 0.64768 0.96636 0.0
C411 C 0.97009 0.64752 0.98677 0.0
C412 C 0.04598 0.64798 0.98852 0.0
C413 C 0.04586 0.64714 0.03181 0.0
H414 H 0.01016 0.64777 0.93294 0.0
H415 H 0.07504 0.64791 0.97165 0.0
S416 S 0.95303 0.64733 0.09985 0.0
N417 N 0.93394 0.6476 0.05255 0.0
N418 N 1.00399 0.6472 0.09446 0.0
C419 C 1.00744 0.64726 0.05262 0.0
C420 C 0.96953 0.64777 0.03002 0.0
C421 C 0.04651 0.36664 0.02579 0.0
C422 C 0.04622 0.36691 0.98251 0.0
C423 C 0.00932 0.36691 0.04812 0.0
C424 C 0.97061 0.36648 0.02788 0.0
H425 H 0.07563 0.36725 0.04252 0.0
H426 H 0.0109 0.36733 0.08152 0.0
S427 S 0.9532 0.36447 0.91487 0.0
N428 N 1.00416 0.36526 0.92006 0.0
N429 N 0.93425 0.36486 0.96225 0.0
C430 C 0.96991 0.36547 0.98464 0.0
C431 C 1.00774 0.36599 0.96187 0.0
loop_
_geom_bond_atom_site_label_1
_geom_bond_atom_site_label_2
_geom_bond_distance
_geom_bond_site_symmetry_2
_ccdc_geom_bond_type
O0 Cd1 2.223 . S
O0 C8 1.315 . S
Cd1 O0 2.223 . S
Cd1 O4 2.297 . S
Cd1 O5 2.439 . S
Cd1 O11 2.240 . S
Cd2 O3 2.240 . S
Cd2 O10 2.223 . S
Cd2 O12 2.297 . S
Cd2 O13 2.439 . S
O3 Cd2 2.240 . S
O3 C8 1.279 . S
O4 Cd1 2.297 . S
O4 C6 1.247 . S
O5 Cd1 2.439 . S
O5 C6 1.208 . S
C6 O4 1.247 . S
C6 O5 1.208 . S
C7 O12 1.247 . S
C7 O13 1.208 . S
C8 O0 1.315 . S
C8 O3 1.279 . S
C9 O10 1.315 . S
C9 O11 1.279 . S
O10 Cd2 2.223 . S
O10 C9 1.315 . S
O11 Cd1 2.240 . S
O11 C9 1.279 . S
O12 Cd2 2.297 . S
O12 C7 1.247 . S
O13 Cd2 2.439 . S
O13 C7 1.208 . S
O14 Cd15 2.223 . S
O14 C22 1.315 . S
Cd15 O14 2.223 . S
Cd15 O18 2.297 . S
Cd15 O19 2.439 . S
Cd15 O25 2.240 . S
Cd16 O17 2.240 . S
Cd16 O24 2.223 . S
Cd16 O26 2.297 . S
Cd16 O27 2.439 . S
O17 Cd16 2.240 . S
O17 C22 1.279 . S
O18 Cd15 2.297 . S
O18 C20 1.247 . S
O19 Cd15 2.439 . S
O19 C20 1.208 . S
C20 O18 1.247 . S
C20 O19 1.208 . S
C21 O26 1.247 . S
C21 O27 1.208 . S
C22 O14 1.315 . S
C22 O17 1.279 . S
C23 O24 1.315 . S
C23 O25 1.279 . S
O24 Cd16 2.223 . S
O24 C23 1.315 . S
O25 Cd15 2.240 . S
O25 C23 1.279 . S
O26 Cd16 2.297 . S
O26 C21 1.247 . S
O27 Cd16 2.439 . S
O27 C21 1.208 . S
O28 Cd29 2.223 . S
O28 C36 1.315 . S
Cd29 O28 2.223 . S
Cd29 O32 2.297 . S
Cd29 O33 2.439 . S
Cd29 O39 2.240 . S
Cd30 O31 2.240 . S
Cd30 O38 2.223 . S
Cd30 O40 2.297 . S
Cd30 O41 2.439 . S
O31 Cd30 2.240 . S
O31 C36 1.279 . S
O32 Cd29 2.297 . S
O32 C34 1.247 . S
O33 Cd29 2.439 . S
O33 C34 1.208 . S
C34 O32 1.247 . S
C34 O33 1.208 . S
C35 O40 1.247 . S
C35 O41 1.208 . S
C36 O28 1.315 . S
C36 O31 1.279 . S
C37 O38 1.315 . S
C37 O39 1.279 . S
O38 Cd30 2.223 . S
O38 C37 1.315 . S
O39 Cd29 2.240 . S
O39 C37 1.279 . S
O40 Cd30 2.297 . S
O40 C35 1.247 . S
O41 Cd30 2.439 . S
O41 C35 1.208 . S
O42 Cd43 2.223 . S
O42 C50 1.315 . S
Cd43 O42 2.223 . S
Cd43 O46 2.297 . S
Cd43 O47 2.439 . S
Cd43 O53 2.240 . S
Cd44 O45 2.240 . S
Cd44 O52 2.223 . S
Cd44 O54 2.297 . S
Cd44 O55 2.439 . S
O45 Cd44 2.240 . S
O45 C50 1.279 . S
O46 Cd43 2.297 . S
O46 C48 1.247 . S
O47 Cd43 2.439 . S
O47 C48 1.208 . S
C48 O46 1.247 . S
C48 O47 1.208 . S
C49 O54 1.247 . S
C49 O55 1.208 . S
C50 O42 1.315 . S
C50 O45 1.279 . S
C51 O52 1.315 . S
C51 O53 1.279 . S
O52 Cd44 2.223 . S
O52 C51 1.315 . S
O53 Cd43 2.240 . S
O53 C51 1.279 . S
O54 Cd44 2.297 . S
O54 C49 1.247 . S
O55 Cd44 2.439 . S
O55 C49 1.208 . S
O56 Cd57 2.223 . S
O56 C64 1.315 . S
Cd57 O56 2.223 . S
Cd57 O60 2.297 . S
Cd57 O61 2.439 . S
Cd57 O67 2.240 . S
Cd58 O59 2.240 . S
Cd58 O66 2.223 . S
Cd58 O68 2.297 . S
Cd58 O69 2.439 . S
O59 Cd58 2.240 . S
O59 C64 1.279 . S
O60 Cd57 2.297 . S
O60 C62 1.247 . S
O61 Cd57 2.439 . S
O61 C62 1.208 . S
C62 O60 1.247 . S
C62 O61 1.208 . S
C63 O68 1.247 . S
C63 O69 1.208 . S
C64 O56 1.315 . S
C64 O59 1.279 . S
C65 O66 1.315 . S
C65 O67 1.279 . S
O66 Cd58 2.223 . S
O66 C65 1.315 . S
O67 Cd57 2.240 . S
O67 C65 1.279 . S
O68 Cd58 2.297 . S
O68 C63 1.247 . S
O69 Cd58 2.439 . S
O69 C63 1.208 . S
O70 Cd71 2.223 . S
O70 C78 1.315 . S
Cd71 O70 2.223 . S
Cd71 O74 2.297 . S
Cd71 O75 2.439 . S
Cd71 O81 2.240 . S
Cd72 O73 2.240 . S
Cd72 O80 2.223 . S
Cd72 O82 2.297 . S
Cd72 O83 2.439 . S
O73 Cd72 2.240 . S
O73 C78 1.279 . S
O74 Cd71 2.297 . S
O74 C76 1.247 . S
O75 Cd71 2.439 . S
O75 C76 1.208 . S
C76 O74 1.247 . S
C76 O75 1.208 . S
C77 O82 1.247 . S
C77 O83 1.208 . S
C78 O70 1.315 . S
C78 O73 1.279 . S
C79 O80 1.315 . S
C79 O81 1.279 . S
O80 Cd72 2.223 . S
O80 C79 1.315 . S
O81 Cd71 2.240 . S
O81 C79 1.279 . S
O82 Cd72 2.297 . S
O82 C77 1.247 . S
O83 Cd72 2.439 . S
O83 C77 1.208 . S
O84 Cd85 2.223 . S
O84 C92 1.315 . S
Cd85 O84 2.223 . S
Cd85 O88 2.297 . S
Cd85 O89 2.439 . S
Cd85 O95 2.240 . S
Cd86 O87 2.240 . S
Cd86 O94 2.223 . S
Cd86 O96 2.297 . S
Cd86 O97 2.439 . S
O87 Cd86 2.240 . S
O87 C92 1.279 . S
O88 Cd85 2.297 . S
O88 C90 1.247 . S
O89 Cd85 2.439 . S
O89 C90 1.208 . S
C90 O88 1.247 . S
C90 O89 1.208 . S
C91 O96 1.247 . S
C91 O97 1.208 . S
C92 O84 1.315 . S
C92 O87 1.279 . S
C93 O94 1.315 . S
C93 O95 1.279 . S
O94 Cd86 2.223 . S
O94 C93 1.315 . S
O95 Cd85 2.240 . S
O95 C93 1.279 . S
O96 Cd86 2.297 . S
O96 C91 1.247 . S
O97 Cd86 2.439 . S
O97 C91 1.208 . S
O98 Cd99 2.223 . S
O98 C106 1.315 . S
Cd99 O98 2.223 . S
Cd99 O102 2.297 . S
Cd99 O103 2.439 . S
Cd99 O109 2.240 . S
Cd100 O101 2.240 . S
Cd100 O108 2.223 . S
Cd100 O110 2.297 . S
Cd100 O111 2.439 . S
O101 Cd100 2.240 . S
O101 C106 1.279 . S
O102 Cd99 2.297 . S
O102 C104 1.247 . S
O103 Cd99 2.439 . S
O103 C104 1.208 . S
C104 O102 1.247 . S
C104 O103 1.208 . S
C105 O110 1.247 . S
C105 O111 1.208 . S
C106 O98 1.315 . S
C106 O101 1.279 . S
C107 O108 1.315 . S
C107 O109 1.279 . S
O108 Cd100 2.223 . S
O108 C107 1.315 . S
O109 Cd99 2.240 . S
O109 C107 1.279 . S
O110 Cd100 2.297 . S
O110 C105 1.247 . S
O111 Cd100 2.439 . S
O111 C105 1.208 . S
O112 Cd113 2.223 . S
O112 C120 1.315 . S
Cd113 O112 2.223 . S
Cd113 O116 2.297 . S
Cd113 O117 2.439 . S
Cd113 O123 2.240 . S
Cd114 O115 2.240 . S
Cd114 O122 2.223 . S
Cd114 O124 2.297 . S
Cd114 O125 2.439 . S
O115 Cd114 2.240 . S
O115 C120 1.279 . S
O116 Cd113 2.297 . S
O116 C118 1.247 . S
O117 Cd113 2.439 . S
O117 C118 1.208 . S
C118 O116 1.247 . S
C118 O117 1.208 . S
C119 O124 1.247 . S
C119 O125 1.208 . S
C120 O112 1.315 . S
C120 O115 1.279 . S
C121 O122 1.315 . S
C121 O123 1.279 . S
O122 Cd114 2.223 . S
O122 C121 1.315 . S
O123 Cd113 2.240 . S
O123 C121 1.279 . S
O124 Cd114 2.297 . S
O124 C119 1.247 . S
O125 Cd114 2.439 . S
O125 C119 1.208 . S
O126 Cd127 2.223 . S
O126 C134 1.315 . S
Cd127 O126 2.223 . S
Cd127 O130 2.297 . S
Cd127 O131 2.439 . S
Cd127 O137 2.240 . S
Cd128 O129 2.240 . S
Cd128 O136 2.223 . S
Cd128 O138 2.297 . S
Cd128 O139 2.439 . S
O129 Cd128 2.240 . S
O129 C134 1.279 . S
O130 Cd127 2.297 . S
O130 C132 1.247 . S
O131 Cd127 2.439 . S
O131 C132 1.208 . S
C132 O130 1.247 . S
C132 O131 1.208 . S
C133 O138 1.247 . S
C133 O139 1.208 . S
C134 O126 1.315 . S
C134 O129 1.279 . S
C135 O136 1.315 . S
C135 O137 1.279 . S
O136 Cd128 2.223 . S
O136 C135 1.315 . S
O137 Cd127 2.240 . S
O137 C135 1.279 . S
O138 Cd128 2.297 . S
O138 C133 1.247 . S
O139 Cd128 2.439 . S
O139 C133 1.208 . S
O140 Cd141 2.223 . S
O140 C148 1.315 . S
Cd141 O140 2.223 . S
Cd141 O144 2.297 . S
Cd141 O145 2.439 . S
Cd141 O151 2.240 . S
Cd142 O143 2.240 . S
Cd142 O150 2.223 . S
Cd142 O152 2.297 . S
Cd142 O153 2.439 . S
O143 Cd142 2.240 . S
O143 C148 1.279 . S
O144 Cd141 2.297 . S
O144 C146 1.247 . S
O145 Cd141 2.439 . S
O145 C146 1.208 . S
C146 O144 1.247 . S
C146 O145 1.208 . S
C147 O152 1.247 . S
C147 O153 1.208 . S
C148 O140 1.315 . S
C148 O143 1.279 . S
C149 O150 1.315 . S
C149 O151 1.279 . S
O150 Cd142 2.223 . S
O150 C149 1.315 . S
O151 Cd141 2.240 . S
O151 C149 1.279 . S
O152 Cd142 2.297 . S
O152 C147 1.247 . S
O153 Cd142 2.439 . S
O153 C147 1.208 . S
O154 Cd155 2.223 . S
O154 C162 1.315 . S
Cd155 O154 2.223 . S
Cd155 O158 2.297 . S
Cd155 O159 2.439 . S
Cd155 O165 2.240 . S
Cd156 O157 2.240 . S
Cd156 O164 2.223 . S
Cd156 O166 2.297 . S
Cd156 O167 2.439 . S
O157 Cd156 2.240 . S
O157 C162 1.279 . S
O158 Cd155 2.297 . S
O158 C160 1.247 . S
O159 Cd155 2.439 . S
O159 C160 1.208 . S
C160 O158 1.247 . S
C160 O159 1.208 . S
C161 O166 1.247 . S
C161 O167 1.208 . S
C162 O154 1.315 . S
C162 O157 1.279 . S
C163 O164 1.315 . S
C163 O165 1.279 . S
O164 Cd156 2.223 . S
O164 C163 1.315 . S
O165 Cd155 2.240 . S
O165 C163 1.279 . S
O166 Cd156 2.297 . S
O166 C161 1.247 . S
O167 Cd156 2.439 . S
O167 C161 1.208 . S
C168 C169 1.369 . S
C168 C170 1.419 1_655 S
C168 H172 0.930 . S
C169 C168 1.369 . S
C169 C178 1.429 . S
C170 C168 1.419 1_455 S
C170 C171 1.363 . S
C170 H173 0.929 . S
C171 C170 1.363 . S
C171 C177 1.428 . S
H172 C168 0.930 . S
H173 C170 0.929 . S
S174 N175 1.613 1_455 S
S174 N176 1.610 . S
N175 S174 1.613 1_655 S
N175 C178 1.350 . S
N176 S174 1.610 . S
N176 C177 1.351 . S
C177 C171 1.428 . S
C177 N176 1.351 . S
C177 C178 1.434 1_455 S
C178 C169 1.429 . S
C178 N175 1.350 . S
C178 C177 1.434 1_655 S
C179 C180 1.369 . S
C179 C181 1.419 . S
C179 H183 0.930 . S
C180 C179 1.369 . S
C180 C189 1.429 1_455 S
C181 C179 1.419 . S
C181 C182 1.363 1_455 S
C181 H184 0.929 . S
C182 C181 1.363 1_655 S
C182 C188 1.428 . S
H183 C179 0.930 . S
H184 C181 0.929 . S
S185 N186 1.613 . S
S185 N187 1.610 . S
N186 S185 1.613 . S
N186 C189 1.350 . S
N187 S185 1.610 . S
N187 C188 1.351 . S
C188 C182 1.428 . S
C188 N187 1.351 . S
C188 C189 1.434 . S
C189 C180 1.429 1_655 S
C189 N186 1.350 . S
C189 C188 1.434 . S
C190 C191 1.369 . S
C190 C192 1.419 . S
C190 H194 0.930 . S
C191 C190 1.369 . S
C191 C200 1.429 1_565 S
C192 C190 1.419 . S
C192 C193 1.363 1_565 S
C192 H195 0.929 . S
C193 C192 1.363 1_545 S
C193 C199 1.428 . S
H194 C190 0.930 . S
H195 C192 0.929 . S
S196 N197 1.613 . S
S196 N198 1.610 . S
N197 S196 1.613 . S
N197 C200 1.350 . S
N198 S196 1.610 . S
N198 C199 1.351 . S
C199 C193 1.428 . S
C199 N198 1.351 . S
C199 C200 1.434 . S
C200 C191 1.429 1_545 S
C200 N197 1.350 . S
C200 C199 1.434 . S
C201 C202 1.369 1_545 S
C201 C203 1.419 . S
C201 H205 0.930 . S
C202 C201 1.369 1_565 S
C202 C211 1.429 . S
C203 C201 1.419 . S
C203 C204 1.363 . S
C203 H206 0.929 . S
C204 C203 1.363 . S
C204 C210 1.428 1_545 S
H205 C201 0.930 . S
H206 C203 0.929 . S
S207 N208 1.613 . S
S207 N209 1.610 . S
N208 S207 1.613 . S
N208 C211 1.350 . S
N209 S207 1.610 . S
N209 C210 1.351 . S
C210 C204 1.428 1_565 S
C210 N209 1.351 . S
C210 C211 1.434 . S
C211 C202 1.429 . S
C211 N208 1.350 . S
C211 C210 1.434 . S
C212 C213 1.369 1_554 S
C212 C214 1.419 . S
C212 H216 0.930 . S
C213 C212 1.369 1_556 S
C213 C222 1.429 . S
C214 C212 1.419 . S
C214 C215 1.363 . S
C214 H217 0.929 . S
C215 C214 1.363 . S
C215 C221 1.428 1_554 S
H216 C212 0.930 . S
H217 C214 0.929 . S
S218 N219 1.613 . S
S218 N220 1.610 . S
N219 S218 1.613 . S
N219 C222 1.350 . S
N220 S218 1.610 . S
N220 C221 1.351 . S
C221 C215 1.428 1_556 S
C221 N220 1.351 . S
C221 C222 1.434 . S
C222 C213 1.429 . S
C222 N219 1.350 . S
C222 C221 1.434 . S
C223 C224 1.369 . S
C223 C225 1.419 . S
C223 H227 0.930 . S
C224 C223 1.369 . S
C224 C233 1.429 1_556 S
C225 C223 1.419 . S
C225 C226 1.363 1_556 S
C225 H228 0.929 . S
C226 C225 1.363 1_554 S
C226 C232 1.428 . S
H227 C223 0.930 . S
H228 C225 0.929 . S
S229 N230 1.613 . S
S229 N231 1.610 . S
N230 S229 1.613 . S
N230 C233 1.350 . S
N231 S229 1.610 . S
N231 C232 1.351 . S
C232 C226 1.428 . S
C232 N231 1.351 . S
C232 C233 1.434 . S
C233 C224 1.429 1_554 S
C233 N230 1.350 . S
C233 C232 1.434 . S
C234 C235 1.369 . S
C234 C236 1.419 . S
C234 H238 0.930 . S
C235 C234 1.369 . S
C235 C244 1.429 . S
C236 C234 1.419 . S
C236 C237 1.363 . S
C236 H239 0.929 . S
C237 C236 1.363 . S
C237 C243 1.428 . S
H238 C234 0.930 . S
H239 C236 0.929 . S
S240 N241 1.613 . S
S240 N242 1.610 . S
N241 S240 1.613 . S
N241 C244 1.350 . S
N242 S240 1.610 . S
N242 C243 1.351 . S
C243 C237 1.428 . S
C243 N242 1.351 . S
C243 C244 1.434 . S
C244 C235 1.429 . S
C244 N241 1.350 . S
C244 C243 1.434 . S
C245 C246 1.369 . S
C245 C247 1.419 . S
C245 H249 0.930 . S
C246 C245 1.369 . S
C246 C255 1.429 . S
C247 C245 1.419 . S
C247 C248 1.363 . S
C247 H250 0.929 . S
C248 C247 1.363 . S
C248 C254 1.428 . S
H249 C245 0.930 . S
H250 C247 0.929 . S
S251 N252 1.613 1_545 S
S251 N253 1.610 1_545 S
N252 S251 1.613 1_565 S
N252 C255 1.350 . S
N253 S251 1.610 1_565 S
N253 C254 1.351 . S
C254 C248 1.428 . S
C254 N253 1.351 . S
C254 C255 1.434 . S
C255 C246 1.429 . S
C255 N252 1.350 . S
C255 C254 1.434 . S
C256 C257 1.369 . S
C256 C258 1.419 . S
C256 H260 0.930 . S
C257 C256 1.369 . S
C257 C266 1.429 . S
C258 C256 1.419 . S
C258 C259 1.363 . S
C258 H261 0.929 . S
C259 C258 1.363 . S
C259 C265 1.428 . S
H260 C256 0.930 . S
H261 C258 0.929 . S
S262 N263 1.613 . S
S262 N264 1.610 . S
N263 S262 1.613 . S
N263 C266 1.350 . S
N264 S262 1.610 . S
N264 C265 1.351 . S
C265 C259 1.428 . S
C265 N264 1.351 . S
C265 C266 1.434 . S
C266 C257 1.429 . S
C266 N263 1.350 . S
C266 C265 1.434 . S
C267 C268 1.369 . S
C267 C269 1.419 . S
C267 H271 0.930 . S
C268 C267 1.369 . S
C268 C277 1.429 . S
C269 C267 1.419 . S
C269 C270 1.363 . S
C269 H272 0.929 . S
C270 C269 1.363 . S
C270 C276 1.428 . S
H271 C267 0.930 . S
H272 C269 0.929 . S
S273 N274 1.613 . S
S273 N275 1.610 . S
N274 S273 1.613 . S
N274 C277 1.350 . S
N275 S273 1.610 . S
N275 C276 1.351 . S
C276 C270 1.428 . S
C276 N275 1.351 . S
C276 C277 1.434 . S
C277 C268 1.429 . S
C277 N274 1.350 . S
C277 C276 1.434 . S
C278 C279 1.369 . S
C278 C280 1.419 . S
C278 H282 0.930 . S
C279 C278 1.369 . S
C279 C288 1.429 . S
C280 C278 1.419 . S
C280 C281 1.363 . S
C280 H283 0.929 . S
C281 C280 1.363 . S
C281 C287 1.428 . S
H282 C278 0.930 . S
H283 C280 0.929 . S
S284 N285 1.613 . S
S284 N286 1.610 . S
N285 S284 1.613 . S
N285 C288 1.350 . S
N286 S284 1.610 . S
N286 C287 1.351 . S
C287 C281 1.428 . S
C287 N286 1.351 . S
C287 C288 1.434 . S
C288 C279 1.429 . S
C288 N285 1.350 . S
C288 C287 1.434 . S
C289 C290 1.369 . S
C289 C291 1.419 . S
C289 H293 0.930 . S
C290 C289 1.369 . S
C290 C299 1.429 . S
C291 C289 1.419 . S
C291 C292 1.363 . S
C291 H294 0.929 . S
C292 C291 1.363 . S
C292 C298 1.428 . S
H293 C289 0.930 . S
H294 C291 0.929 . S
S295 N296 1.613 . S
S295 N297 1.610 . S
N296 S295 1.613 . S
N296 C299 1.350 . S
N297 S295 1.610 . S
N297 C298 1.351 . S
C298 C292 1.428 . S
C298 N297 1.351 . S
C298 C299 1.434 . S
C299 C290 1.429 . S
C299 N296 1.350 . S
C299 C298 1.434 . S
C300 C301 1.369 . S
C300 C302 1.419 . S
C300 H304 0.930 . S
C301 C300 1.369 . S
C301 C310 1.429 . S
C302 C300 1.419 . S
C302 C303 1.363 . S
C302 H305 0.929 . S
C303 C302 1.363 . S
C303 C309 1.428 . S
H304 C300 0.930 . S
H305 C302 0.929 . S
S306 N307 1.613 . S
S306 N308 1.610 . S
N307 S306 1.613 . S
N307 C310 1.350 . S
N308 S306 1.610 . S
N308 C309 1.351 . S
C309 C303 1.428 . S
C309 N308 1.351 . S
C309 C310 1.434 . S
C310 C301 1.429 . S
C310 N307 1.350 . S
C310 C309 1.434 . S
C311 C312 1.369 . S
C311 C313 1.419 . S
C311 H315 0.930 . S
C312 C311 1.369 . S
C312 C321 1.429 . S
C313 C311 1.419 . S
C313 C314 1.363 . S
C313 H316 0.929 . S
C314 C313 1.363 . S
C314 C320 1.428 . S
H315 C311 0.930 . S
H316 C313 0.929 . S
S317 N318 1.613 . S
S317 N319 1.610 . S
N318 S317 1.613 . S
N318 C321 1.350 . S
N319 S317 1.610 . S
N319 C320 1.351 . S
C320 C314 1.428 . S
C320 N319 1.351 . S
C320 C321 1.434 . S
C321 C312 1.429 . S
C321 N318 1.350 . S
C321 C320 1.434 . S
C322 C323 1.369 . S
C322 C324 1.419 . S
C322 H326 0.930 . S
C323 C322 1.369 . S
C323 C332 1.429 . S
C324 C322 1.419 . S
C324 C325 1.363 . S
C324 H327 0.929 . S
C325 C324 1.363 . S
C325 C331 1.428 . S
H326 C322 0.930 . S
H327 C324 0.929 . S
S328 N329 1.613 . S
S328 N330 1.610 . S
N329 S328 1.613 . S
N329 C332 1.350 . S
N330 S328 1.610 . S
N330 C331 1.351 . S
C331 C325 1.428 . S
C331 N330 1.351 . S
C331 C332 1.434 . S
C332 C323 1.429 . S
C332 N329 1.350 . S
C332 C331 1.434 . S
C333 C334 1.369 . S
C333 C335 1.419 . S
C333 H337 0.930 . S
C334 C333 1.369 . S
C334 C343 1.429 . S
C335 C333 1.419 . S
C335 C336 1.363 . S
C335 H338 0.929 . S
C336 C335 1.363 . S
C336 C342 1.428 . S
H337 C333 0.930 . S
H338 C335 0.929 . S
S339 N340 1.613 . S
S339 N341 1.610 . S
N340 S339 1.613 . S
N340 C343 1.350 . S
N341 S339 1.610 . S
N341 C342 1.351 . S
C342 C336 1.428 . S
C342 N341 1.351 . S
C342 C343 1.434 . S
C343 C334 1.429 . S
C343 N340 1.350 . S
C343 C342 1.434 . S
C344 C345 1.369 . S
C344 C346 1.419 . S
C344 H348 0.930 . S
C345 C344 1.369 . S
C345 C354 1.429 . S
C346 C344 1.419 . S
C346 C347 1.363 . S
C346 H349 0.929 . S
C347 C346 1.363 . S
C347 C353 1.428 . S
H348 C344 0.930 . S
H349 C346 0.929 . S
S350 N351 1.613 . S
S350 N352 1.610 . S
N351 S350 1.613 . S
N351 C354 1.350 . S
N352 S350 1.610 . S
N352 C353 1.351 . S
C353 C347 1.428 . S
C353 N352 1.351 . S
C353 C354 1.434 . S
C354 C345 1.429 . S
C354 N351 1.350 . S
C354 C353 1.434 . S
C355 C356 1.369 . S
C355 C357 1.419 . S
C355 H359 0.930 . S
C356 C355 1.369 . S
C356 C365 1.429 . S
C357 C355 1.419 . S
C357 C358 1.363 . S
C357 H360 0.929 . S
C358 C357 1.363 . S
C358 C364 1.428 . S
H359 C355 0.930 . S
H360 C357 0.929 . S
S361 N362 1.613 . S
S361 N363 1.610 . S
N362 S361 1.613 . S
N362 C365 1.350 . S
N363 S361 1.610 . S
N363 C364 1.351 . S
C364 C358 1.428 . S
C364 N363 1.351 . S
C364 C365 1.434 . S
C365 C356 1.429 . S
C365 N362 1.350 . S
C365 C364 1.434 . S
C366 C367 1.369 1_655 S
C366 C368 1.419 1_545 S
C366 H370 0.930 . S
C367 C366 1.369 1_455 S
C367 C376 1.429 . S
C368 C366 1.419 1_565 S
C368 C369 1.363 . S
C368 H371 0.929 . S
C369 C368 1.363 . S
C369 C375 1.428 1_655 S
H370 C366 0.930 . S
H371 C368 0.929 . S
S372 N373 1.613 1_565 S
S372 N374 1.610 . S
N373 S372 1.613 1_545 S
N373 C376 1.350 . S
N374 S372 1.610 . S
N374 C375 1.351 . S
C375 C369 1.428 1_455 S
C375 N374 1.351 . S
C375 C376 1.434 1_565 S
C376 C367 1.429 . S
C376 N373 1.350 . S
C376 C375 1.434 1_545 S
C377 C378 1.369 1_455 S
C377 C379 1.419 1_545 S
C377 H381 0.930 . S
C378 C377 1.369 1_655 S
C378 C387 1.429 . S
C379 C377 1.419 1_565 S
C379 C380 1.363 . S
C379 H382 0.929 . S
C380 C379 1.363 . S
C380 C386 1.428 1_455 S
H381 C377 0.930 . S
H382 C379 0.929 . S
S383 N384 1.613 1_565 S
S383 N385 1.610 . S
N384 S383 1.613 1_545 S
N384 C387 1.350 . S
N385 S383 1.610 . S
N385 C386 1.351 . S
C386 C380 1.428 1_655 S
C386 N385 1.351 . S
C386 C387 1.434 1_565 S
C387 C378 1.429 . S
C387 N384 1.350 . S
C387 C386 1.434 1_545 S
C388 C389 1.369 . S
C388 C390 1.419 1_556 S
C388 H392 0.930 . S
C389 C388 1.369 . S
C389 C398 1.429 1_565 S
C390 C388 1.419 1_554 S
C390 C391 1.363 1_565 S
C390 H393 0.929 . S
C391 C390 1.363 1_545 S
C391 C397 1.428 . S
H392 C388 0.930 . S
H393 C390 0.929 . S
S394 N395 1.613 . S
S394 N396 1.610 1_556 S
N395 S394 1.613 . S
N395 C398 1.350 . S
N396 S394 1.610 1_554 S
N396 C397 1.351 . S
C397 C391 1.428 . S
C397 N396 1.351 . S
C397 C398 1.434 1_554 S
C398 C389 1.429 1_545 S
C398 N395 1.350 . S
C398 C397 1.434 1_556 S
C399 C400 1.369 1_545 S
C399 C401 1.419 1_554 S
C399 H403 0.930 . S
C400 C399 1.369 1_565 S
C400 C409 1.429 . S
C401 C399 1.419 1_556 S
C401 C402 1.363 . S
C401 H404 0.929 . S
C402 C401 1.363 . S
C402 C408 1.428 1_545 S
H403 C399 0.930 . S
H404 C401 0.929 . S
S405 N406 1.613 1_556 S
S405 N407 1.610 . S
N406 S405 1.613 1_554 S
N406 C409 1.350 . S
N407 S405 1.610 . S
N407 C408 1.351 . S
C408 C402 1.428 1_565 S
C408 N407 1.351 . S
C408 C409 1.434 1_556 S
C409 C400 1.429 . S
C409 N406 1.350 . S
C409 C408 1.434 1_554 S
C410 C411 1.369 . S
C410 C412 1.419 1_655 S
C410 H414 0.930 . S
C411 C410 1.369 . S
C411 C420 1.429 1_556 S
C412 C410 1.419 1_455 S
C412 C413 1.363 1_556 S
C412 H415 0.929 . S
C413 C412 1.363 1_554 S
C413 C419 1.428 . S
H414 C410 0.930 . S
H415 C412 0.929 . S
S416 N417 1.613 . S
S416 N418 1.610 1_655 S
N417 S416 1.613 . S
N417 C420 1.350 . S
N418 S416 1.610 1_455 S
N418 C419 1.351 . S
C419 C413 1.428 . S
C419 N418 1.351 . S
C419 C420 1.434 1_455 S
C420 C411 1.429 1_554 S
C420 N417 1.350 . S
C420 C419 1.434 1_655 S
C421 C422 1.369 1_554 S
C421 C423 1.419 1_455 S
C421 H425 0.930 . S
C422 C421 1.369 1_556 S
C422 C431 1.429 . S
C423 C421 1.419 1_655 S
C423 C424 1.363 . S
C423 H426 0.929 . S
C424 C423 1.363 . S
C424 C430 1.428 1_554 S
H425 C421 0.930 . S
H426 C423 0.929 . S
S427 N428 1.613 1_655 S
S427 N429 1.610 . S
N428 S427 1.613 1_455 S
N428 C431 1.350 . S
N429 S427 1.610 . S
N429 C430 1.351 . S
C430 C424 1.428 1_556 S
C430 N429 1.351 . S
C430 C431 1.434 1_655 S
C431 C422 1.429 . S
C431 N428 1.350 . S
C431 C430 1.434 1_455 S
C169 C48 1.200 . S
C171 C6 1.197 . S
C180 C34 1.194 . S
C182 C20 1.190 . S
C191 C76 1.198 . S
C193 C62 1.192 . S
C202 C90 1.199 . S
C204 C104 1.199 . S
C213 C132 1.192 . S
C215 C118 1.197 . S
C224 C146 1.200 . S
C226 C160 1.195 . S
C235 C9 1.310 . S
C237 C105 1.166 . S
C246 C91 1.166 . S
C248 C23 1.309 . S
C257 C77 1.159 . S
C259 C37 1.307 . S
C268 C63 1.151 . S
C270 C51 1.306 . S
C279 C65 1.309 . S
C281 C161 1.165 . S
C290 C119 1.152 . S
C292 C79 1.306 . S
C301 C147 1.170 . S
C303 C93 1.310 . S
C312 C107 1.309 . S
C314 C133 1.164 . S
C323 C35 1.151 . S
C325 C121 1.306 . S
C334 C7 1.159 . S
C336 C135 1.307 . S
C345 C149 1.307 . S
C347 C21 1.160 . S
C356 C49 1.156 . S
C358 C163 1.307 . S
C367 C8 1.457 . S
C369 C22 1.458 . S
C378 C50 1.452 . S
C380 C36 1.454 . S
C389 C92 1.457 . S
C391 C64 1.454 . S
C400 C78 1.452 . S
C402 C106 1.454 . S
C411 C148 1.459 . S
C413 C120 1.457 . S
C422 C134 1.452 . S
C424 C162 1.454 . S
