# Generated by pormake.
# Topology srs-g, (5)-cn, num edge types: 1
# Building blocks:
#     Node 0, Type 0, BuildingBlock: XOMCOT_clean_sbu_1, # of connection points: 5
#     Node 1, Type 0, BuildingBlock: XOMCOT_clean_sbu_1, # of connection points: 5
#     Node 2, Type 0, BuildingBlock: XOMCOT_clean_sbu_1, # of connection points: 5
#     Node 3, Type 0, BuildingBlock: XOMCOT_clean_sbu_1, # of connection points: 5
#     Node 4, Type 0, BuildingBlock: XOMCOT_clean_sbu_1, # of connection points: 5
#     Node 5, Type 0, BuildingBlock: XOMCOT_clean_sbu_1, # of connection points: 5
#     Node 6, Type 0, BuildingBlock: XOMCOT_clean_sbu_1, # of connection points: 5
#     Node 7, Type 0, BuildingBlock: XOMCOT_clean_sbu_1, # of connection points: 5
#     Node 8, Type 0, BuildingBlock: XOMCOT_clean_sbu_1, # of connection points: 5
#     Node 9, Type 0, BuildingBlock: XOMCOT_clean_sbu_1, # of connection points: 5
#     Node 10, Type 0, BuildingBlock: XOMCOT_clean_sbu_1, # of connection points: 5
#     Node 11, Type 0, BuildingBlock: XOMCOT_clean_sbu_1, # of connection points: 5
#     Node 12, Type 0, BuildingBlock: XOMCOT_clean_sbu_1, # of connection points: 5
#     Node 13, Type 0, BuildingBlock: XOMCOT_clean_sbu_1, # of connection points: 5
#     Node 14, Type 0, BuildingBlock: XOMCOT_clean_sbu_1, # of connection points: 5
#     Node 15, Type 0, BuildingBlock: XOMCOT_clean_sbu_1, # of connection points: 5
#     Node 16, Type 0, BuildingBlock: XOMCOT_clean_sbu_1, # of connection points: 5
#     Node 17, Type 0, BuildingBlock: XOMCOT_clean_sbu_1, # of connection points: 5
#     Node 18, Type 0, BuildingBlock: XOMCOT_clean_sbu_1, # of connection points: 5
#     Node 19, Type 0, BuildingBlock: XOMCOT_clean_sbu_1, # of connection points: 5
#     Node 20, Type 0, BuildingBlock: XOMCOT_clean_sbu_1, # of connection points: 5
#     Node 21, Type 0, BuildingBlock: XOMCOT_clean_sbu_1, # of connection points: 5
#     Node 22, Type 0, BuildingBlock: XOMCOT_clean_sbu_1, # of connection points: 5
#     Node 23, Type 0, BuildingBlock: XOMCOT_clean_sbu_1, # of connection points: 5
#     Node 24, Type 0, BuildingBlock: XOMCOT_clean_sbu_1, # of connection points: 5
#     Node 25, Type 0, BuildingBlock: XOMCOT_clean_sbu_1, # of connection points: 5
#     Node 26, Type 0, BuildingBlock: XOMCOT_clean_sbu_1, # of connection points: 5
#     Node 27, Type 0, BuildingBlock: XOMCOT_clean_sbu_1, # of connection points: 5
#     Node 28, Type 0, BuildingBlock: XOMCOT_clean_sbu_1, # of connection points: 5
#     Node 29, Type 0, BuildingBlock: XOMCOT_clean_sbu_1, # of connection points: 5
#     Node 30, Type 0, BuildingBlock: XOMCOT_clean_sbu_1, # of connection points: 5
#     Node 31, Type 0, BuildingBlock: XOMCOT_clean_sbu_1, # of connection points: 5
#     Node 32, Type 0, BuildingBlock: XOMCOT_clean_sbu_1, # of connection points: 5
#     Node 33, Type 0, BuildingBlock: XOMCOT_clean_sbu_1, # of connection points: 5
#     Node 34, Type 0, BuildingBlock: XOMCOT_clean_sbu_1, # of connection points: 5
#     Node 35, Type 0, BuildingBlock: XOMCOT_clean_sbu_1, # of connection points: 5
#     Node 36, Type 0, BuildingBlock: XOMCOT_clean_sbu_1, # of connection points: 5
#     Node 37, Type 0, BuildingBlock: XOMCOT_clean_sbu_1, # of connection points: 5
#     Node 38, Type 0, BuildingBlock: XOMCOT_clean_sbu_1, # of connection points: 5
#     Node 39, Type 0, BuildingBlock: XOMCOT_clean_sbu_1, # of connection points: 5
#     Node 40, Type 0, BuildingBlock: XOMCOT_clean_sbu_1, # of connection points: 5
#     Node 41, Type 0, BuildingBlock: XOMCOT_clean_sbu_1, # of connection points: 5
#     Node 42, Type 0, BuildingBlock: XOMCOT_clean_sbu_1, # of connection points: 5
#     Node 43, Type 0, BuildingBlock: XOMCOT_clean_sbu_1, # of connection points: 5
#     Node 44, Type 0, BuildingBlock: XOMCOT_clean_sbu_1, # of connection points: 5
#     Node 45, Type 0, BuildingBlock: XOMCOT_clean_sbu_1, # of connection points: 5
#     Node 46, Type 0, BuildingBlock: XOMCOT_clean_sbu_1, # of connection points: 5
#     Node 47, Type 0, BuildingBlock: XOMCOT_clean_sbu_1, # of connection points: 5
#     Edge 48, Type (0, 0), BuildingBlock: AJUNOK_clean_linker_0, # of connection points: 2
#     Edge 49, Type (0, 0), BuildingBlock: AJUNOK_clean_linker_0, # of connection points: 2
#     Edge 50, Type (0, 0), BuildingBlock: AJUNOK_clean_linker_0, # of connection points: 2
#     Edge 51, Type (0, 0), BuildingBlock: AJUNOK_clean_linker_0, # of connection points: 2
#     Edge 52, Type (0, 0), BuildingBlock: AJUNOK_clean_linker_0, # of connection points: 2
#     Edge 53, Type (0, 0), BuildingBlock: AJUNOK_clean_linker_0, # of connection points: 2
#     Edge 54, Type (0, 0), BuildingBlock: AJUNOK_clean_linker_0, # of connection points: 2
#     Edge 55, Type (0, 0), BuildingBlock: AJUNOK_clean_linker_0, # of connection points: 2
#     Edge 56, Type (0, 0), BuildingBlock: AJUNOK_clean_linker_0, # of connection points: 2
#     Edge 57, Type (0, 0), BuildingBlock: AJUNOK_clean_linker_0, # of connection points: 2
#     Edge 58, Type (0, 0), BuildingBlock: AJUNOK_clean_linker_0, # of connection points: 2
#     Edge 59, Type (0, 0), BuildingBlock: AJUNOK_clean_linker_0, # of connection points: 2
#     Edge 60, Type (0, 0), BuildingBlock: AJUNOK_clean_linker_0, # of connection points: 2
#     Edge 61, Type (0, 0), BuildingBlock: AJUNOK_clean_linker_0, # of connection points: 2
#     Edge 62, Type (0, 0), BuildingBlock: AJUNOK_clean_linker_0, # of connection points: 2
#     Edge 63, Type (0, 0), BuildingBlock: AJUNOK_clean_linker_0, # of connection points: 2
#     Edge 64, Type (0, 0), BuildingBlock: AJUNOK_clean_linker_0, # of connection points: 2
#     Edge 65, Type (0, 0), BuildingBlock: AJUNOK_clean_linker_0, # of connection points: 2
#     Edge 66, Type (0, 0), BuildingBlock: AJUNOK_clean_linker_0, # of connection points: 2
#     Edge 67, Type (0, 0), BuildingBlock: AJUNOK_clean_linker_0, # of connection points: 2
#     Edge 68, Type (0, 0), BuildingBlock: AJUNOK_clean_linker_0, # of connection points: 2
#     Edge 69, Type (0, 0), BuildingBlock: AJUNOK_clean_linker_0, # of connection points: 2
#     Edge 70, Type (0, 0), BuildingBlock: AJUNOK_clean_linker_0, # of connection points: 2
#     Edge 71, Type (0, 0), BuildingBlock: AJUNOK_clean_linker_0, # of connection points: 2
#     Edge 72, Type (0, 0), BuildingBlock: AJUNOK_clean_linker_0, # of connection points: 2
#     Edge 73, Type (0, 0), BuildingBlock: AJUNOK_clean_linker_0, # of connection points: 2
#     Edge 74, Type (0, 0), BuildingBlock: AJUNOK_clean_linker_0, # of connection points: 2
#     Edge 75, Type (0, 0), BuildingBlock: AJUNOK_clean_linker_0, # of connection points: 2
#     Edge 76, Type (0, 0), BuildingBlock: AJUNOK_clean_linker_0, # of connection points: 2
#     Edge 77, Type (0, 0), BuildingBlock: AJUNOK_clean_linker_0, # of connection points: 2
#     Edge 78, Type (0, 0), BuildingBlock: AJUNOK_clean_linker_0, # of connection points: 2
#     Edge 79, Type (0, 0), BuildingBlock: AJUNOK_clean_linker_0, # of connection points: 2
#     Edge 80, Type (0, 0), BuildingBlock: AJUNOK_clean_linker_0, # of connection points: 2
#     Edge 81, Type (0, 0), BuildingBlock: AJUNOK_clean_linker_0, # of connection points: 2
#     Edge 82, Type (0, 0), BuildingBlock: AJUNOK_clean_linker_0, # of connection points: 2
#     Edge 83, Type (0, 0), BuildingBlock: AJUNOK_clean_linker_0, # of connection points: 2
#     Edge 84, Type (0, 0), BuildingBlock: AJUNOK_clean_linker_0, # of connection points: 2
#     Edge 85, Type (0, 0), BuildingBlock: AJUNOK_clean_linker_0, # of connection points: 2
#     Edge 86, Type (0, 0), BuildingBlock: AJUNOK_clean_linker_0, # of connection points: 2
#     Edge 87, Type (0, 0), BuildingBlock: AJUNOK_clean_linker_0, # of connection points: 2
#     Edge 88, Type (0, 0), BuildingBlock: AJUNOK_clean_linker_0, # of connection points: 2
#     Edge 89, Type (0, 0), BuildingBlock: AJUNOK_clean_linker_0, # of connection points: 2
#     Edge 90, Type (0, 0), BuildingBlock: AJUNOK_clean_linker_0, # of connection points: 2
#     Edge 91, Type (0, 0), BuildingBlock: AJUNOK_clean_linker_0, # of connection points: 2
#     Edge 92, Type (0, 0), BuildingBlock: AJUNOK_clean_linker_0, # of connection points: 2
#     Edge 93, Type (0, 0), BuildingBlock: AJUNOK_clean_linker_0, # of connection points: 2
#     Edge 94, Type (0, 0), BuildingBlock: AJUNOK_clean_linker_0, # of connection points: 2
#     Edge 95, Type (0, 0), BuildingBlock: AJUNOK_clean_linker_0, # of connection points: 2
#     Edge 96, Type (0, 0), BuildingBlock: AJUNOK_clean_linker_0, # of connection points: 2
#     Edge 97, Type (0, 0), BuildingBlock: AJUNOK_clean_linker_0, # of connection points: 2
#     Edge 98, Type (0, 0), BuildingBlock: AJUNOK_clean_linker_0, # of connection points: 2
#     Edge 99, Type (0, 0), BuildingBlock: AJUNOK_clean_linker_0, # of connection points: 2
#     Edge 100, Type (0, 0), BuildingBlock: AJUNOK_clean_linker_0, # of connection points: 2
#     Edge 101, Type (0, 0), BuildingBlock: AJUNOK_clean_linker_0, # of connection points: 2
#     Edge 102, Type (0, 0), BuildingBlock: AJUNOK_clean_linker_0, # of connection points: 2
#     Edge 103, Type (0, 0), BuildingBlock: AJUNOK_clean_linker_0, # of connection points: 2
#     Edge 104, Type (0, 0), BuildingBlock: AJUNOK_clean_linker_0, # of connection points: 2
#     Edge 105, Type (0, 0), BuildingBlock: AJUNOK_clean_linker_0, # of connection points: 2
#     Edge 106, Type (0, 0), BuildingBlock: AJUNOK_clean_linker_0, # of connection points: 2
#     Edge 107, Type (0, 0), BuildingBlock: AJUNOK_clean_linker_0, # of connection points: 2
#     Edge 108, Type (0, 0), BuildingBlock: AJUNOK_clean_linker_0, # of connection points: 2
#     Edge 109, Type (0, 0), BuildingBlock: AJUNOK_clean_linker_0, # of connection points: 2
#     Edge 110, Type (0, 0), BuildingBlock: AJUNOK_clean_linker_0, # of connection points: 2
#     Edge 111, Type (0, 0), BuildingBlock: AJUNOK_clean_linker_0, # of connection points: 2
#     Edge 112, Type (0, 0), BuildingBlock: AJUNOK_clean_linker_0, # of connection points: 2
#     Edge 113, Type (0, 0), BuildingBlock: AJUNOK_clean_linker_0, # of connection points: 2
#     Edge 114, Type (0, 0), BuildingBlock: AJUNOK_clean_linker_0, # of connection points: 2
#     Edge 115, Type (0, 0), BuildingBlock: AJUNOK_clean_linker_0, # of connection points: 2
#     Edge 116, Type (0, 0), BuildingBlock: AJUNOK_clean_linker_0, # of connection points: 2
#     Edge 117, Type (0, 0), BuildingBlock: AJUNOK_clean_linker_0, # of connection points: 2
#     Edge 118, Type (0, 0), BuildingBlock: AJUNOK_clean_linker_0, # of connection points: 2
#     Edge 119, Type (0, 0), BuildingBlock: AJUNOK_clean_linker_0, # of connection points: 2
#     Edge 120, Type (0, 0), BuildingBlock: AJUNOK_clean_linker_0, # of connection points: 2
#     Edge 121, Type (0, 0), BuildingBlock: AJUNOK_clean_linker_0, # of connection points: 2
#     Edge 122, Type (0, 0), BuildingBlock: AJUNOK_clean_linker_0, # of connection points: 2
#     Edge 123, Type (0, 0), BuildingBlock: AJUNOK_clean_linker_0, # of connection points: 2
#     Edge 124, Type (0, 0), BuildingBlock: AJUNOK_clean_linker_0, # of connection points: 2
#     Edge 125, Type (0, 0), BuildingBlock: AJUNOK_clean_linker_0, # of connection points: 2
#     Edge 126, Type (0, 0), BuildingBlock: AJUNOK_clean_linker_0, # of connection points: 2
#     Edge 127, Type (0, 0), BuildingBlock: AJUNOK_clean_linker_0, # of connection points: 2
#     Edge 128, Type (0, 0), BuildingBlock: AJUNOK_clean_linker_0, # of connection points: 2
#     Edge 129, Type (0, 0), BuildingBlock: AJUNOK_clean_linker_0, # of connection points: 2
#     Edge 130, Type (0, 0), BuildingBlock: AJUNOK_clean_linker_0, # of connection points: 2
#     Edge 131, Type (0, 0), BuildingBlock: AJUNOK_clean_linker_0, # of connection points: 2
#     Edge 132, Type (0, 0), BuildingBlock: AJUNOK_clean_linker_0, # of connection points: 2
#     Edge 133, Type (0, 0), BuildingBlock: AJUNOK_clean_linker_0, # of connection points: 2
#     Edge 134, Type (0, 0), BuildingBlock: AJUNOK_clean_linker_0, # of connection points: 2
#     Edge 135, Type (0, 0), BuildingBlock: AJUNOK_clean_linker_0, # of connection points: 2
#     Edge 136, Type (0, 0), BuildingBlock: AJUNOK_clean_linker_0, # of connection points: 2
#     Edge 137, Type (0, 0), BuildingBlock: AJUNOK_clean_linker_0, # of connection points: 2
#     Edge 138, Type (0, 0), BuildingBlock: AJUNOK_clean_linker_0, # of connection points: 2
#     Edge 139, Type (0, 0), BuildingBlock: AJUNOK_clean_linker_0, # of connection points: 2
#     Edge 140, Type (0, 0), BuildingBlock: AJUNOK_clean_linker_0, # of connection points: 2
#     Edge 141, Type (0, 0), BuildingBlock: AJUNOK_clean_linker_0, # of connection points: 2
#     Edge 142, Type (0, 0), BuildingBlock: AJUNOK_clean_linker_0, # of connection points: 2
#     Edge 143, Type (0, 0), BuildingBlock: AJUNOK_clean_linker_0, # of connection points: 2
#     Edge 144, Type (0, 0), BuildingBlock: AJUNOK_clean_linker_0, # of connection points: 2
#     Edge 145, Type (0, 0), BuildingBlock: AJUNOK_clean_linker_0, # of connection points: 2
#     Edge 146, Type (0, 0), BuildingBlock: AJUNOK_clean_linker_0, # of connection points: 2
#     Edge 147, Type (0, 0), BuildingBlock: AJUNOK_clean_linker_0, # of connection points: 2
#     Edge 148, Type (0, 0), BuildingBlock: AJUNOK_clean_linker_0, # of connection points: 2
#     Edge 149, Type (0, 0), BuildingBlock: AJUNOK_clean_linker_0, # of connection points: 2
#     Edge 150, Type (0, 0), BuildingBlock: AJUNOK_clean_linker_0, # of connection points: 2
#     Edge 151, Type (0, 0), BuildingBlock: AJUNOK_clean_linker_0, # of connection points: 2
#     Edge 152, Type (0, 0), BuildingBlock: AJUNOK_clean_linker_0, # of connection points: 2
#     Edge 153, Type (0, 0), BuildingBlock: AJUNOK_clean_linker_0, # of connection points: 2
#     Edge 154, Type (0, 0), BuildingBlock: AJUNOK_clean_linker_0, # of connection points: 2
#     Edge 155, Type (0, 0), BuildingBlock: AJUNOK_clean_linker_0, # of connection points: 2
#     Edge 156, Type (0, 0), BuildingBlock: AJUNOK_clean_linker_0, # of connection points: 2
#     Edge 157, Type (0, 0), BuildingBlock: AJUNOK_clean_linker_0, # of connection points: 2
#     Edge 158, Type (0, 0), BuildingBlock: AJUNOK_clean_linker_0, # of connection points: 2
#     Edge 159, Type (0, 0), BuildingBlock: AJUNOK_clean_linker_0, # of connection points: 2
#     Edge 160, Type (0, 0), BuildingBlock: AJUNOK_clean_linker_0, # of connection points: 2
#     Edge 161, Type (0, 0), BuildingBlock: AJUNOK_clean_linker_0, # of connection points: 2
#     Edge 162, Type (0, 0), BuildingBlock: AJUNOK_clean_linker_0, # of connection points: 2
#     Edge 163, Type (0, 0), BuildingBlock: AJUNOK_clean_linker_0, # of connection points: 2
#     Edge 164, Type (0, 0), BuildingBlock: AJUNOK_clean_linker_0, # of connection points: 2
#     Edge 165, Type (0, 0), BuildingBlock: AJUNOK_clean_linker_0, # of connection points: 2
#     Edge 166, Type (0, 0), BuildingBlock: AJUNOK_clean_linker_0, # of connection points: 2
#     Edge 167, Type (0, 0), BuildingBlock: AJUNOK_clean_linker_0, # of connection points: 2
# Relax obj value: 0.923
# Max RMSD: 0.246
# Mean RMSD: 0.246
data_MOF--net-srs-g--node1-XOMCOT_clean_sbu_1--edge1-AJUNOK_clean_linker_0
_symmetry_space_group_name_H-M    P1
_symmetry_Int_Tables_number       1
_symmetry_cell_setting            triclinic
loop_
_symmetry_equiv_pos_as_xyz
'x, y, z'
_cell_length_a     66.77418
_cell_length_b     66.758818
_cell_length_c     66.75888
_cell_angle_alpha  90.017222
_cell_angle_beta   90.023235
_cell_angle_gamma 90.018087
loop_
_atom_site_label
_atom_site_type_symbol
_atom_site_fract_x
_atom_site_fract_y
_atom_site_fract_z
_atom_type_partial_charge
C0 C 0.05274 0.01065 0.1931 0.0
C1 C 0.07056 0.00755 0.20323 0.0
N2 N 0.0837 0.02154 0.19704 0.0
N3 N 0.05474 0.0267 0.18094 0.0
C4 C 0.07378 0.03281 0.18361 0.0
H5 H 0.03924 0.0018 0.19454 0.0
Co6 Co 0.03686 0.03904 0.16332 0.0
C7 C 0.03772 0.0817 0.17532 0.0
O8 O 0.01805 0.08208 0.17493 0.0
N9 N 0.01956 0.05204 0.14493 0.0
C10 C 0.99535 0.06526 0.12601 0.0
C11 C -0.00047 0.05249 0.14166 0.0
C12 C 0.02699 0.06484 0.1311 0.0
N13 N 0.01274 0.07291 0.11941 0.0
O14 O 0.05678 0.03765 0.14312 0.0
H15 H 0.98825 0.0447 0.15013 0.0
H16 H 0.04272 0.06848 0.12973 0.0
O17 O 0.04692 0.06533 0.17162 0.0
C18 C 0.05923 0.02046 0.1353 0.0
O19 O 0.04799 0.00551 0.14143 0.0
N20 N 0.01724 0.03824 0.1832 0.0
C21 C 0.99516 0.0218 0.21467 0.0
C22 C 0.00969 0.03675 0.2182 0.0
C23 C 0.02037 0.04499 0.20223 0.0
C24 C 0.00267 0.02446 0.17945 0.0
C25 C 0.9905 0.01723 0.19471 0.0
H26 H 0.0329 0.05467 0.20556 0.0
H27 H 0.00151 0.01775 0.16475 0.0
H28 H 0.08036 0.04537 0.17576 0.0
H29 H 0.07373 0.99577 0.2139 0.0
H30 H 0.98063 0.06904 0.12038 0.0
H31 H 0.01429 0.04073 0.23323 0.0
H32 H 0.97872 0.00682 0.19085 0.0
C33 C 0.23016 0.80352 0.44431 0.0
C34 C 0.23254 0.82167 0.45406 0.0
N35 N 0.21662 0.83324 0.44969 0.0
N36 N 0.21265 0.80372 0.43419 0.0
C37 C 0.20473 0.82187 0.43802 0.0
H38 H 0.24093 0.79144 0.44384 0.0
Co39 Co 0.20228 0.78628 0.41509 0.0
C40 C 0.15818 0.78532 0.42289 0.0
O41 O 0.15712 0.76626 0.41808 0.0
N42 N 0.19168 0.76949 0.39525 0.0
C43 C 0.18112 0.74543 0.37465 0.0
C44 C 0.19331 0.74979 0.39083 0.0
C45 C 0.1788 0.77667 0.38144 0.0
N46 N 0.17198 0.76247 0.36895 0.0
O47 O 0.20339 0.80743 0.39625 0.0
H48 H 0.20227 0.73909 0.399 0.0
H49 H 0.17389 0.7921 0.38093 0.0
O50 O 0.17507 0.79434 0.42275 0.0
C51 C 0.21972 0.80951 0.38671 0.0
O52 O 0.23442 0.79691 0.39026 0.0
N53 N 0.20314 0.76561 0.43379 0.0
C54 C 0.21994 0.74748 0.46705 0.0
C55 C 0.20072 0.75583 0.46817 0.0
C56 C 0.19274 0.76537 0.4514 0.0
C57 C 0.22037 0.75487 0.43178 0.0
C58 C 0.22905 0.74553 0.4483 0.0
H59 H 0.17975 0.77467 0.45361 0.0
H60 H 0.22888 0.75597 0.41804 0.0
H61 H 0.19079 0.82701 0.43159 0.0
H62 H 0.24542 0.82637 0.46272 0.0
H63 H 0.17864 0.73078 0.36815 0.0
H64 H 0.19332 0.75759 0.48251 0.0
H65 H 0.24401 0.73938 0.44692 0.0
C66 C 0.44388 0.98539 0.6911 0.0
C67 C 0.4268 0.98898 0.70221 0.0
N68 N 0.41575 0.9721 0.70234 0.0
N69 N 0.44336 0.96641 0.6842 0.0
C70 C 0.42602 0.95879 0.69117 0.0
H71 H 0.4556 0.99606 0.68776 0.0
Co72 Co 0.461 0.95393 0.66668 0.0
C73 C 0.46322 0.91159 0.67974 0.0
O74 O 0.48265 0.91196 0.6767 0.0
N75 N 0.47832 0.94109 0.64817 0.0
C76 C 0.50248 0.92917 0.62836 0.0
C77 C 0.49814 0.94205 0.64388 0.0
C78 C 0.47118 0.92744 0.63502 0.0
N79 N 0.48545 0.91992 0.62298 0.0
O80 O 0.44024 0.95354 0.64724 0.0
H81 H 0.50914 0.95116 0.65135 0.0
H82 H 0.45559 0.92313 0.63418 0.0
O83 O 0.45278 0.92742 0.67686 0.0
C84 C 0.44115 0.96867 0.6357 0.0
O85 O 0.45564 0.98171 0.63848 0.0
N86 N 0.4812 0.95667 0.68579 0.0
C87 C 0.50331 0.97517 0.7162 0.0
C88 C 0.48955 0.95971 0.72053 0.0
C89 C 0.47889 0.95046 0.70511 0.0
C90 C 0.49491 0.97107 0.68125 0.0
C91 C 0.5071 0.97941 0.69597 0.0
H92 H 0.46699 0.94025 0.70909 0.0
H93 H 0.49532 0.97738 0.66634 0.0
H94 H 0.42042 0.94411 0.6872 0.0
H95 H 0.42262 0.00298 0.70925 0.0
H96 H 0.51703 0.92666 0.62168 0.0
H97 H 0.48552 0.95592 0.73575 0.0
H98 H 0.51827 0.99018 0.69142 0.0
C99 C 0.26815 0.19107 0.94137 0.0
C100 C 0.26565 0.17342 0.95189 0.0
N101 N 0.28369 0.16455 0.95369 0.0
N102 N 0.28765 0.19324 0.93668 0.0
C103 C 0.29667 0.17697 0.94448 0.0
H104 H 0.25636 0.20094 0.93627 0.0
Co105 Co 0.29903 0.21112 0.9187 0.0
C106 C 0.34121 0.21497 0.93164 0.0
O107 O 0.33978 0.23456 0.93047 0.0
N108 N 0.3108 0.2285 0.89988 0.0
C109 C 0.32097 0.25255 0.87908 0.0
C110 C 0.30853 0.24803 0.89496 0.0
C111 C 0.32471 0.2217 0.88688 0.0
N112 N 0.33104 0.23583 0.87404 0.0
O113 O 0.29958 0.19011 0.8996 0.0
H114 H 0.29863 0.25851 0.90223 0.0
H115 H 0.33004 0.20639 0.88666 0.0
O116 O 0.326 0.20397 0.9279 0.0
C117 C 0.28435 0.19006 0.88815 0.0
O118 O 0.27138 0.20479 0.88961 0.0
N119 N 0.29595 0.23147 0.93763 0.0
C120 C 0.27516 0.25021 0.96838 0.0
C121 C 0.29299 0.23992 0.97242 0.0
C122 C 0.3031 0.23036 0.95679 0.0
C123 C 0.27954 0.24283 0.93338 0.0
C124 C 0.26911 0.25268 0.94852 0.0
H125 H 0.31482 0.21994 0.96067 0.0
H126 H 0.27289 0.24207 0.91862 0.0
H127 H 0.31232 0.17349 0.94223 0.0
H128 H 0.2515 0.16688 0.95633 0.0
H129 H 0.32259 0.26704 0.872 0.0
H130 H 0.2975 0.23699 0.98773 0.0
H131 H 0.25492 0.25975 0.94503 0.0
C132 C 0.05127 0.98401 0.30517 0.0
C133 C 0.06913 0.98823 0.29558 0.0
N134 N 0.08285 0.975 0.30207 0.0
N135 N 0.05386 0.96797 0.31726 0.0
C136 C 0.07325 0.9629 0.31498 0.0
H137 H 0.03743 0.99226 0.30362 0.0
Co138 Co 0.03638 0.95525 0.33493 0.0
C139 C 0.03727 0.91231 0.3232 0.0
O140 O 0.01781 0.91142 0.32594 0.0
N141 N 0.01941 0.94213 0.35332 0.0
C142 C 0.9953 0.92768 0.37136 0.0
C143 C -0.00056 0.94177 0.35685 0.0
C144 C 0.0269 0.92844 0.36617 0.0
N145 N 0.01266 0.91913 0.37691 0.0
O146 O 0.05656 0.95659 0.35507 0.0
H147 H 0.98825 0.95047 0.34915 0.0
H148 H 0.04265 0.92493 0.36721 0.0
O149 O 0.04655 0.92891 0.32587 0.0
C150 C 0.05959 0.97375 0.36279 0.0
O151 O 0.04914 0.98912 0.35632 0.0
N152 N 0.01654 0.95597 0.31527 0.0
C153 C 0.99422 0.97126 0.28342 0.0
C154 C 0.0085 0.95604 0.28036 0.0
C155 C 0.01934 0.94844 0.29649 0.0
C156 C 0.00232 0.9702 0.31867 0.0
C157 C 0.99038 0.97738 0.30314 0.0
H158 H 0.03175 0.93861 0.29328 0.0
H159 H 0.00147 0.97741 0.33315 0.0
H160 H 0.08034 0.95069 0.32295 0.0
H161 H 0.07199 0.00035 0.2852 0.0
H162 H 0.98062 0.92358 0.3769 0.0
H163 H 0.01304 0.95149 0.2655 0.0
H164 H 0.97962 0.98907 0.30636 0.0
C165 C 0.26592 0.80916 0.56133 0.0
C166 C 0.26112 0.82593 0.55021 0.0
N167 N 0.27826 0.8355 0.54569 0.0
N168 N 0.28593 0.80854 0.56404 0.0
C169 C 0.29297 0.8248 0.55435 0.0
H170 H 0.25545 0.7986 0.56776 0.0
Co171 Co 0.30022 0.7912 0.58051 0.0
C172 C 0.34081 0.80779 0.57734 0.0
O173 O 0.34074 0.81061 0.59682 0.0
N174 N 0.31497 0.77389 0.59712 0.0
C175 C 0.34069 0.75493 0.60657 0.0
C176 C 0.32852 0.76023 0.59082 0.0
C177 C 0.31883 0.77607 0.61689 0.0
N178 N 0.33461 0.76505 0.62289 0.0
O179 O 0.30076 0.81177 0.60026 0.0
H180 H 0.33092 0.75604 0.57537 0.0
H181 H 0.31201 0.78732 0.62628 0.0
O182 O 0.32545 0.80021 0.56884 0.0
C183 C 0.28483 0.81146 0.61078 0.0
O184 O 0.27164 0.79725 0.6074 0.0
N185 N 0.29726 0.77117 0.56149 0.0
C186 C 0.27749 0.75066 0.53147 0.0
C187 C 0.29455 0.76202 0.527 0.0
C188 C 0.30424 0.77239 0.54234 0.0
C189 C 0.2824 0.75809 0.56641 0.0
C190 C 0.27221 0.7476 0.5515 0.0
H191 H 0.3156 0.78309 0.53836 0.0
H192 H 0.27681 0.75774 0.58161 0.0
H193 H 0.30843 0.82962 0.55471 0.0
H194 H 0.24624 0.83106 0.54633 0.0
H195 H 0.35408 0.74583 0.60568 0.0
H196 H 0.29867 0.765 0.51159 0.0
H197 H 0.25881 0.73929 0.55534 0.0
C198 C 0.44613 0.01628 0.80419 0.0
C199 C 0.42877 0.01376 0.79317 0.0
N200 N 0.41597 0.02858 0.7981 0.0
N201 N 0.44425 0.03273 0.81578 0.0
C202 C 0.42576 0.03972 0.81182 0.0
H203 H 0.45925 0.0068 0.80371 0.0
Co204 Co 0.46155 0.04423 0.83439 0.0
C205 C 0.46293 0.08745 0.82374 0.0
O206 O 0.48226 0.08773 0.82743 0.0
N207 N 0.47823 0.05602 0.85394 0.0
C208 C 0.50131 0.06552 0.87613 0.0
C209 C 0.49726 0.05298 0.86026 0.0
C210 C 0.47113 0.07024 0.86648 0.0
N211 N 0.48482 0.07645 0.87989 0.0
O212 O 0.4406 0.04344 0.8534 0.0
H213 H 0.50771 0.0423 0.85424 0.0
H214 H 0.45612 0.07627 0.86554 0.0
O215 O 0.45304 0.07111 0.82551 0.0
C216 C 0.44046 0.02771 0.86413 0.0
O217 O 0.4549 0.01454 0.86184 0.0
N218 N 0.48218 0.04303 0.81551 0.0
C219 C 0.50481 0.02727 0.78401 0.0
C220 C 0.49115 0.04303 0.7808 0.0
C221 C 0.48025 0.05093 0.79676 0.0
C222 C 0.49573 0.02821 0.81905 0.0
C223 C 0.50798 0.02095 0.80381 0.0
H224 H 0.46834 0.0613 0.79336 0.0
H225 H 0.49559 0.02038 0.8332 0.0
H226 H 0.41936 0.05259 0.81932 0.0
H227 H 0.426 0.00211 0.78224 0.0
H228 H 0.51516 0.0661 0.88454 0.0
H229 H 0.48701 0.04788 0.76592 0.0
H230 H 0.51829 0.00894 0.80727 0.0
C231 C 0.22374 0.19632 0.05141 0.0
C232 C 0.22697 0.17888 0.04076 0.0
N233 N 0.21253 0.16581 0.04584 0.0
N234 N 0.2072 0.19414 0.06286 0.0
C235 C 0.20086 0.17533 0.0592 0.0
H236 H 0.23327 0.2094 0.05129 0.0
Co237 Co 0.196 0.21101 0.08196 0.0
C238 C 0.15306 0.21319 0.07129 0.0
O239 O 0.15349 0.23258 0.07464 0.0
N240 N 0.18468 0.22727 0.10187 0.0
C241 C 0.17677 0.24956 0.12539 0.0
C242 C 0.18861 0.24586 0.10884 0.0
C243 C 0.17063 0.22005 0.11449 0.0
N244 N 0.16547 0.2332 0.12883 0.0
O245 O 0.19705 0.18962 0.10062 0.0
H246 H 0.19968 0.256 0.10285 0.0
H247 H 0.16424 0.20521 0.11316 0.0
O248 O 0.169 0.20276 0.07336 0.0
C249 C 0.21323 0.18985 0.11068 0.0
O250 O 0.22612 0.20436 0.10744 0.0
N251 N 0.19725 0.23215 0.06352 0.0
C252 C 0.21563 0.25087 0.03132 0.0
C253 C 0.19678 0.24193 0.02899 0.0
C254 C 0.18815 0.23196 0.04517 0.0
C255 C 0.21399 0.24345 0.06658 0.0
C256 C 0.22343 0.2531 0.05063 0.0
H257 H 0.176 0.22188 0.04191 0.0
H258 H 0.22193 0.24232 0.08065 0.0
H259 H 0.18826 0.16845 0.06673 0.0
H260 H 0.23941 0.17571 0.03086 0.0
H261 H 0.17706 0.26293 0.13455 0.0
H262 H 0.19037 0.23995 0.01421 0.0
H263 H 0.2381 0.25963 0.05295 0.0
C264 C 0.19174 0.05392 0.01446 0.0
C265 C 0.20175 0.07184 0.01189 0.0
N266 N 0.19725 0.08384 0.0275 0.0
N267 N 0.18119 0.0547 0.03167 0.0
C268 C 0.18479 0.07307 0.03915 0.0
H269 H 0.19203 0.04121 0.00441 0.0
Co270 Co 0.16376 0.03614 0.04292 0.0
C271 C 0.17657 0.03367 0.08528 0.0
O272 O 0.17574 0.01405 0.08385 0.0
N273 N 0.14539 0.01808 0.05447 0.0
C274 C 0.12343 0.99426 0.06261 0.0
C275 C 0.13898 0.99934 0.05006 0.0
C276 C 0.13324 0.02398 0.06953 0.0
N277 N 0.11992 0.00985 0.07487 0.0
O278 O 0.14336 0.05599 0.04276 0.0
H279 H 0.1444 0.98994 0.03814 0.0
H280 H 0.13403 0.03864 0.0764 0.0
O281 O 0.17232 0.04449 0.07003 0.0
C282 C 0.13573 0.05848 0.02547 0.0
O283 O 0.14195 0.04713 0.01065 0.0
N284 N 0.18396 0.01667 0.04103 0.0
C285 C 0.21624 0.99417 0.02652 0.0
C286 C 0.21901 0.00891 0.04135 0.0
C287 C 0.20273 0.01982 0.04851 0.0
C288 C 0.18098 0.00256 0.02659 0.0
C289 C 0.19662 0.99043 0.01994 0.0
H290 H 0.20575 0.03239 0.05822 0.0
H291 H 0.16695 0.00204 0.01862 0.0
H292 H 0.17784 0.07872 0.05266 0.0
H293 H 0.21164 0.07563 -0.00037 0.0
H294 H 0.11482 0.98053 0.06208 0.0
H295 H 0.23377 0.01362 0.04606 0.0
H296 H 0.19355 0.97952 0.00835 0.0
C297 C 0.19273 0.94905 0.27 0.0
C298 C 0.17569 0.96065 0.26806 0.0
N299 N 0.16429 0.95785 0.28448 0.0
N300 N 0.1919 0.93904 0.28754 0.0
C301 C 0.17433 0.94449 0.29577 0.0
H302 H 0.20484 0.94786 0.2593 0.0
Co303 Co 0.20937 0.92045 0.29896 0.0
C304 C 0.21251 0.93529 0.34081 0.0
O305 O 0.23205 0.9363 0.33899 0.0
N306 N 0.22649 0.90104 0.31122 0.0
C307 C 0.24969 0.88595 0.33009 0.0
C308 C 0.24574 0.90194 0.31766 0.0
C309 C 0.21952 0.88394 0.31958 0.0
N310 N 0.23296 0.87489 0.33155 0.0
O311 O 0.18787 0.90179 0.29882 0.0
H312 H 0.25592 0.91425 0.31522 0.0
H313 H 0.20455 0.87836 0.31768 0.0
O314 O 0.20177 0.92964 0.32597 0.0
C315 C 0.18502 0.89451 0.28142 0.0
O316 O 0.19667 0.90033 0.26667 0.0
N317 N 0.23024 0.93902 0.29638 0.0
C318 C 0.25242 0.96825 0.27635 0.0
C319 C 0.23842 0.97352 0.29124 0.0
C320 C 0.22769 0.95869 0.30126 0.0
C321 C 0.24475 0.93352 0.28311 0.0
C322 C 0.25676 0.94784 0.27379 0.0
H323 H 0.21545 0.96322 0.31083 0.0
H324 H 0.2461 0.91802 0.2786 0.0
H325 H 0.16858 0.93802 0.30947 0.0
H326 H 0.17192 0.97025 0.25555 0.0
H327 H 0.26331 0.88352 0.33855 0.0
H328 H 0.23414 0.98894 0.29381 0.0
H329 H 0.26822 0.9428 0.26353 0.0
C330 C 0.30969 0.94315 0.51123 0.0
C331 C 0.29816 0.9264 0.50735 0.0
N332 N 0.29886 0.91457 0.52363 0.0
N333 N 0.3176 0.94157 0.52978 0.0
C334 C 0.31087 0.9239 0.53682 0.0
H335 H 0.31257 0.9554 0.50103 0.0
Co336 Co 0.33574 0.95859 0.54218 0.0
C337 C 0.32482 0.95898 0.58514 0.0
O338 O 0.32831 0.97834 0.58547 0.0
N339 N 0.35489 0.97526 0.55473 0.0
C340 C 0.37503 0.99913 0.56662 0.0
C341 C 0.35932 0.99504 0.55388 0.0
C342 C 0.36828 0.96782 0.56799 0.0
N343 N 0.38061 0.9819 0.57542 0.0
O344 O 0.35519 0.93787 0.54065 0.0
H345 H 0.35167 0.00615 0.54506 0.0
H346 H 0.36882 0.95222 0.57238 0.0
O347 O 0.32697 0.94912 0.56881 0.0
C348 C 0.36599 0.93871 0.52497 0.0
O349 O 0.36294 0.95339 0.51222 0.0
N350 N 0.31632 0.97884 0.5416 0.0
C351 C 0.28415 0.00185 0.52768 0.0
C352 C 0.28142 0.98714 0.54254 0.0
C353 C 0.29765 0.976 0.54943 0.0
C354 C 0.31936 0.99319 0.52742 0.0
C355 C 0.30376 0.00551 0.52101 0.0
H356 H 0.29455 0.96342 0.55908 0.0
H357 H 0.33357 0.99396 0.51969 0.0
H358 H 0.31548 0.91742 0.55093 0.0
H359 H 0.29032 0.92293 0.49358 0.0
H360 H 0.38143 0.01373 0.56956 0.0
H361 H 0.26668 0.98257 0.54741 0.0
H362 H 0.30681 0.01653 0.50952 0.0
C363 C 0.30287 0.05037 0.77146 0.0
C364 C 0.32053 0.04025 0.76766 0.0
N365 N 0.33382 0.04543 0.7819 0.0
N366 N 0.30513 0.06158 0.78817 0.0
C367 C 0.32412 0.05823 0.79407 0.0
H368 H 0.28957 0.05014 0.76223 0.0
Co369 Co 0.28827 0.08024 0.80031 0.0
C370 C 0.28792 0.06894 0.84336 0.0
O371 O 0.26884 0.07356 0.84457 0.0
N372 N 0.27212 0.09964 0.81275 0.0
C373 C 0.2495 0.12162 0.82366 0.0
C374 C 0.25288 0.10569 0.81089 0.0
C375 C 0.27996 0.11217 0.82656 0.0
N376 N 0.2666 0.12543 0.83362 0.0
O377 O 0.30943 0.09928 0.79943 0.0
H378 H 0.24191 0.09927 0.80091 0.0
H379 H 0.29543 0.11166 0.83128 0.0
O380 O 0.29721 0.07071 0.8267 0.0
C381 C 0.31225 0.10704 0.78227 0.0
O382 O 0.30138 0.10085 0.76706 0.0
N383 N 0.26734 0.06173 0.79904 0.0
C384 C 0.24764 0.03044 0.78015 0.0
C385 C 0.25834 0.02704 0.79789 0.0
C386 C 0.26828 0.04295 0.80711 0.0
C387 C 0.25511 0.06555 0.78313 0.0
C388 C 0.24477 0.0501 0.77364 0.0
H389 H 0.27895 0.03939 0.8187 0.0
H390 H 0.25571 0.08003 0.7759 0.0
H391 H 0.33102 0.06565 0.80674 0.0
H392 H 0.32366 0.0307 0.75493 0.0
H393 H 0.23558 0.12972 0.82549 0.0
H394 H 0.26129 0.01189 0.80292 0.0
H395 H 0.23718 0.05313 0.75961 0.0
C396 C 0.17675 0.9358 0.4874 0.0
C397 C 0.18639 0.91762 0.48918 0.0
N398 N 0.19558 0.91352 0.47168 0.0
N399 N 0.17983 0.94311 0.46886 0.0
C400 C 0.19193 0.9296 0.45996 0.0
H401 H 0.16641 0.94216 0.49813 0.0
Co402 Co 0.16349 0.96194 0.45634 0.0
C403 C 0.17905 0.96575 0.41514 0.0
O404 O 0.17851 0.98531 0.41728 0.0
N405 N 0.14598 0.98011 0.44357 0.0
C406 C 0.12319 0.00282 0.43452 0.0
C407 C 0.13879 0.99866 0.44747 0.0
C408 C 0.13459 0.97358 0.42817 0.0
N409 N 0.12045 0.98676 0.42268 0.0
O410 O 0.14351 0.94183 0.45436 0.0
H411 H 0.14359 0.00839 0.45942 0.0
H412 H 0.13634 0.95898 0.42137 0.0
O413 O 0.17389 0.95438 0.42969 0.0
C414 C 0.12988 0.94247 0.46764 0.0
O415 O 0.12971 0.95752 0.48033 0.0
N416 N 0.18332 0.98142 0.46041 0.0
C417 C 0.21435 0.0028 0.47885 0.0
C418 C 0.21827 0.98902 0.46338 0.0
C419 C 0.20262 0.97861 0.45433 0.0
C420 C 0.17913 0.99515 0.47493 0.0
C421 C 0.19425 0.00678 0.48352 0.0
H422 H 0.20643 0.96678 0.44402 0.0
H423 H 0.1643 0.99585 0.4813 0.0
H424 H 0.19698 0.93096 0.44469 0.0
H425 H 0.185 0.90733 0.50164 0.0
H426 H 0.11395 0.01614 0.43452 0.0
H427 H 0.2334 0.98481 0.45938 0.0
H428 H 0.19012 0.01772 0.49471 0.0
C429 C 0.30358 0.9497 0.72999 0.0
C430 C 0.32079 0.96054 0.73387 0.0
N431 N 0.33417 0.95611 0.71952 0.0
N432 N 0.30627 0.93873 0.71319 0.0
C433 C 0.32511 0.94292 0.70729 0.0
H434 H 0.29033 0.94923 0.73928 0.0
Co435 Co 0.29 0.91924 0.70163 0.0
C436 C 0.28944 0.92805 0.65822 0.0
O437 O 0.27022 0.92386 0.65775 0.0
N438 N 0.27433 0.89888 0.68992 0.0
C439 C 0.25133 0.87751 0.67856 0.0
C440 C 0.25474 0.89377 0.69084 0.0
C441 C 0.28236 0.88538 0.67715 0.0
N442 N 0.26881 0.87233 0.66999 0.0
O443 O 0.31159 0.90111 0.7035 0.0
H444 H 0.24337 0.90143 0.69937 0.0
H445 H 0.29797 0.88535 0.67278 0.0
O446 O 0.29896 0.92756 0.67485 0.0
C447 C 0.31215 0.8914 0.71986 0.0
O448 O 0.29778 0.89416 0.73302 0.0
N449 N 0.26866 0.93727 0.70191 0.0
C450 C 0.24829 0.96889 0.71947 0.0
C451 C 0.25911 0.97183 0.70172 0.0
C452 C 0.26938 0.95576 0.69316 0.0
C453 C 0.25638 0.93384 0.71786 0.0
C454 C 0.24566 0.94942 0.72665 0.0
H455 H 0.28009 0.95902 0.68153 0.0
H456 H 0.25714 0.91963 0.72561 0.0
H457 H 0.33246 0.93571 0.69475 0.0
H458 H 0.3236 0.9701 0.74668 0.0
H459 H 0.23699 0.87052 0.67567 0.0
H460 H 0.26187 0.98683 0.69618 0.0
H461 H 0.23798 0.94676 0.7407 0.0
C462 C 0.31359 0.0558 0.98905 0.0
C463 C 0.30412 0.07401 0.99189 0.0
N464 N 0.30201 0.08293 0.97388 0.0
N465 N 0.31738 0.05338 0.96937 0.0
C466 C 0.30991 0.06993 0.96062 0.0
H467 H 0.31895 0.04588 0.00068 0.0
Co468 Co 0.3353 0.03584 0.95726 0.0
C469 C 0.32274 0.03314 0.91461 0.0
O470 O 0.32606 0.01375 0.91475 0.0
N471 N 0.35424 0.01893 0.9447 0.0
C472 C 0.37402 0.99531 0.93173 0.0
C473 C 0.35893 0.99919 0.9453 0.0
C474 C 0.36683 0.0265 0.93079 0.0
N475 N 0.3787 0.01256 0.92248 0.0
O476 O 0.35409 0.05713 0.95686 0.0
H477 H 0.35182 0.98799 0.95447 0.0
H478 H 0.36714 0.04213 0.9266 0.0
O479 O 0.32541 0.04346 0.93054 0.0
C480 C 0.36542 0.0578 0.97215 0.0
O481 O 0.36421 0.04335 0.98547 0.0
N482 N 0.31654 0.01531 0.95984 0.0
C483 C 0.28581 0.99304 0.97749 0.0
C484 C 0.28183 0.00664 0.96185 0.0
C485 C 0.29738 0.01747 0.95312 0.0
C486 C 0.32086 0.00159 0.97431 0.0
C487 C 0.30593 0.98944 0.98243 0.0
H488 H 0.29351 0.02933 0.94284 0.0
H489 H 0.33567 0.00115 0.98083 0.0
H490 H 0.31171 0.07324 0.94491 0.0
H491 H 0.30084 0.08084 0.00621 0.0
H492 H 0.3807 0.98087 0.92862 0.0
H493 H 0.26668 0.01051 0.95759 0.0
H494 H 0.31015 0.97848 0.99355 0.0
C495 C 0.19276 0.0534 0.22977 0.0
C496 C 0.17586 0.04171 0.2324 0.0
N497 N 0.16341 0.04502 0.21684 0.0
N498 N 0.19095 0.06378 0.21253 0.0
C499 C 0.17291 0.05851 0.20521 0.0
H500 H 0.20565 0.05399 0.23957 0.0
Co501 Co 0.2083 0.08164 0.19998 0.0
C502 C 0.20999 0.06766 0.1581 0.0
O503 O 0.22961 0.06871 0.15895 0.0
N504 N 0.22512 0.10028 0.18675 0.0
C505 C 0.24868 0.12047 0.17433 0.0
C506 C 0.24489 0.10484 0.18725 0.0
C507 C 0.21748 0.11326 0.17321 0.0
N508 N 0.23131 0.12576 0.16564 0.0
O509 O 0.18734 0.10085 0.20046 0.0
H510 H 0.25619 0.09747 0.19607 0.0
H511 H 0.20183 0.11369 0.16903 0.0
O512 O 0.19946 0.07194 0.17352 0.0
C513 C 0.18892 0.11438 0.21379 0.0
O514 O 0.20548 0.11561 0.22436 0.0
N515 N 0.22875 0.06255 0.20199 0.0
C516 C 0.25151 0.0321 0.21961 0.0
C517 C 0.23723 0.02778 0.20467 0.0
C518 C 0.22623 0.04321 0.19587 0.0
C519 C 0.24277 0.06707 0.21612 0.0
C520 C 0.25505 0.05229 0.22425 0.0
H521 H 0.21387 0.03917 0.18624 0.0
H522 H 0.24319 0.08191 0.22258 0.0
H523 H 0.16669 0.06474 0.1916 0.0
H524 H 0.17327 0.03128 0.24452 0.0
H525 H 0.26314 0.12718 0.17138 0.0
H526 H 0.23281 0.0126 0.20121 0.0
H527 H 0.26581 0.05658 0.23559 0.0
C528 C 0.01086 0.18782 0.05516 0.0
C529 C 0.00802 0.19825 0.07284 0.0
N530 N 0.02423 0.19532 0.08452 0.0
N531 N 0.02881 0.17858 0.05582 0.0
C532 C 0.03643 0.18331 0.07388 0.0
H533 H 0.00059 0.18709 0.04265 0.0
Co534 Co 0.04133 0.16192 0.03737 0.0
C535 C 0.08254 0.17757 0.0351 0.0
O536 O 0.08137 0.1767 0.01546 0.0
N537 N 0.05437 0.14425 0.0195 0.0
C538 C 0.06413 0.12234 0.99624 0.0
C539 C 0.05082 0.13746 0.00072 0.0
C540 C 0.06982 0.13286 0.02596 0.0
N541 N 0.07605 0.11952 0.01223 0.0
O542 O 0.0423 0.14177 0.05727 0.0
H543 H 0.03895 0.14221 0.99091 0.0
H544 H 0.0762 0.13408 0.04081 0.0
O545 O 0.06762 0.17222 0.04584 0.0
C546 C 0.02694 0.13053 0.05669 0.0
O547 O 0.01352 0.13369 0.04263 0.0
N548 N 0.03822 0.18191 0.01783 0.0
C549 C 0.02093 0.21308 0.99574 0.0
C550 C 0.03563 0.21694 0.01037 0.0
C551 C 0.04414 0.20121 0.02113 0.0
C552 C 0.02433 0.17785 0.00343 0.0
C553 C 0.0165 0.193 0.99138 0.0
H554 H 0.05359 0.20492 0.03372 0.0
H555 H 0.01766 0.16317 0.00257 0.0
H556 H 0.05058 0.17763 0.07939 0.0
H557 H 0.99522 0.20743 0.07663 0.0
H558 H 0.06426 0.11346 0.98268 0.0
H559 H 0.03932 0.23206 0.01492 0.0
H560 H 0.00591 0.18892 0.97984 0.0
C561 C 0.51527 0.31465 0.94235 0.0
C562 C 0.51225 0.30449 0.92457 0.0
N563 N 0.53028 0.29967 0.91686 0.0
N564 N 0.53509 0.3163 0.9457 0.0
C565 C 0.54374 0.30675 0.93018 0.0
H566 H 0.50386 0.3219 0.95126 0.0
Co567 Co 0.54755 0.33378 0.96348 0.0
C568 C 0.58956 0.32029 0.96591 0.0
O569 O 0.5883 0.3217 0.9855 0.0
N570 N 0.5603 0.35224 0.98071 0.0
C571 C 0.57236 0.37277 0.00418 0.0
C572 C 0.55901 0.35746 0.00027 0.0
C573 C 0.57444 0.36464 0.97327 0.0
N574 N 0.58215 0.37703 0.98711 0.0
O575 O 0.54731 0.35333 0.94291 0.0
H576 H 0.54916 0.35088 0.01122 0.0
H577 H 0.57882 0.36479 0.95769 0.0
O578 O 0.57434 0.32449 0.95502 0.0
C579 C 0.53228 0.36497 0.94403 0.0
O580 O 0.5199 0.36291 0.95919 0.0
N581 N 0.54541 0.31431 0.98347 0.0
C582 C 0.52879 0.28288 0.00559 0.0
C583 C 0.54388 0.27934 0.99131 0.0
C584 C 0.55206 0.2952 0.98055 0.0
C585 C 0.53109 0.31813 0.99748 0.0
C586 C 0.52324 0.30281 0.00933 0.0
H587 H 0.56187 0.29166 0.9682 0.0
H588 H 0.52426 0.33279 0.9982 0.0
H589 H 0.55973 0.3062 0.92786 0.0
H590 H 0.498 0.3026 0.91709 0.0
H591 H 0.57468 0.38017 0.01842 0.0
H592 H 0.54795 0.26435 0.98674 0.0
H593 H 0.51156 0.30641 0.01997 0.0
C594 C 0.93953 0.2694 0.1928 0.0
C595 C 0.94981 0.26672 0.17502 0.0
N596 N 0.95185 0.28474 0.1661 0.0
N597 N 0.93513 0.28898 0.19496 0.0
C598 C 0.94302 0.29786 0.17866 0.0
H599 H 0.93434 0.2577 0.20272 0.0
Co600 Co 0.91737 0.3009 0.21278 0.0
C601 C 0.93163 0.34279 0.2164 0.0
O602 O 0.93055 0.3417 0.23602 0.0
N603 N 0.89888 0.31329 0.23007 0.0
C604 C 0.8779 0.32397 0.25373 0.0
C605 C 0.8931 0.31066 0.24931 0.0
C606 C 0.88702 0.3282 0.22331 0.0
N607 N 0.87434 0.33508 0.23731 0.0
O608 O 0.89844 0.30224 0.1917 0.0
H609 H 0.89913 0.29977 0.25959 0.0
H610 H 0.88734 0.33363 0.20805 0.0
O611 O 0.92745 0.32749 0.20569 0.0
C612 C 0.8868 0.28716 0.19144 0.0
O613 O 0.88836 0.27383 0.20584 0.0
N614 N 0.93594 0.29714 0.23322 0.0
C615 C 0.96558 0.275 0.25208 0.0
C616 C 0.97046 0.29271 0.24195 0.0
C617 C 0.95535 0.30357 0.23237 0.0
C618 C 0.93091 0.28082 0.24439 0.0
C619 C 0.94549 0.26972 0.2543 0.0
H620 H 0.95976 0.31525 0.22212 0.0
H621 H 0.91595 0.27471 0.24333 0.0
H622 H 0.94117 0.31359 0.17535 0.0
H623 H 0.95388 0.25246 0.16849 0.0
H624 H 0.86999 0.32527 0.26782 0.0
H625 H 0.98597 0.29663 0.23924 0.0
H626 H 0.94137 0.25563 0.26124 0.0
C627 C 0.986 0.69807 0.44501 0.0
C628 C 0.98911 0.70943 0.42797 0.0
N629 N 0.97351 0.70639 0.41561 0.0
N630 N 0.96855 0.68801 0.44313 0.0
C631 C 0.9614 0.69337 0.42503 0.0
H632 H 0.99627 0.69646 0.45743 0.0
Co633 Co 0.95752 0.66799 0.45898 0.0
C634 C 0.91425 0.67776 0.46201 0.0
O635 O 0.91435 0.67239 0.48093 0.0
N636 N 0.9461 0.64715 0.4744 0.0
C637 C 0.93341 0.62662 0.49748 0.0
C638 C 0.94599 0.64264 0.49418 0.0
C639 C 0.93372 0.63342 0.46617 0.0
N640 N 0.92554 0.62104 0.4798 0.0
O641 O 0.95804 0.65085 0.43635 0.0
H642 H 0.95369 0.65077 0.50582 0.0
H643 H 0.93045 0.63277 0.45036 0.0
O644 O 0.93049 0.6774 0.45185 0.0
C645 C 0.97406 0.64059 0.43541 0.0
O646 O 0.98743 0.64267 0.44971 0.0
N647 N 0.95948 0.68474 0.48114 0.0
C648 C 0.97846 0.7131 0.50481 0.0
C649 C 0.96065 0.71793 0.49472 0.0
C650 C 0.95138 0.70345 0.4827 0.0
C651 C 0.97574 0.67947 0.49227 0.0
C652 C 0.98515 0.69328 0.50466 0.0
H653 H 0.93944 0.7081 0.47283 0.0
H654 H 0.98278 0.66509 0.48982 0.0
H655 H 0.94816 0.68688 0.41827 0.0
H656 H 0.00224 0.71828 0.42446 0.0
H657 H 0.92974 0.62013 0.51188 0.0
H658 H 0.95549 0.7333 0.494 0.0
H659 H 0.99911 0.68919 0.51186 0.0
C660 C 0.04863 0.22478 0.19621 0.0
C661 C 0.03815 0.22809 0.17868 0.0
N662 N 0.04468 0.21482 0.16502 0.0
N663 N 0.06137 0.20928 0.19352 0.0
C664 C 0.05869 0.20372 0.1743 0.0
H665 H 0.04695 0.2331 0.21 0.0
Co666 Co 0.079 0.1968 0.21129 0.0
C667 C 0.07988 0.15635 0.1934 0.0
O668 O 0.09907 0.15857 0.18977 0.0
N669 N 0.09669 0.18363 0.22893 0.0
C670 C 0.10741 0.15947 0.24926 0.0
C671 C 0.09146 0.17143 0.24425 0.0
C672 C 0.11614 0.17916 0.22545 0.0
N673 N 0.12279 0.16417 0.23717 0.0
O674 O 0.0993 0.19857 0.19131 0.0
H675 H 0.07644 0.16955 0.24996 0.0
H676 H 0.12463 0.18474 0.21286 0.0
O677 O 0.07014 0.1706 0.20167 0.0
C678 C 0.10651 0.21617 0.1897 0.0
O679 O 0.09993 0.23023 0.20181 0.0
N680 N 0.05929 0.19749 0.23086 0.0
C681 C 0.02691 0.21416 0.25053 0.0
C682 C 0.02458 0.19651 0.2393 0.0
C683 C 0.04104 0.18848 0.22927 0.0
C684 C 0.06239 0.21264 0.24416 0.0
C685 C 0.0463 0.22131 0.25421 0.0
H686 H 0.03851 0.17673 0.21849 0.0
H687 H 0.07694 0.21973 0.24491 0.0
H688 H 0.06679 0.19159 0.1672 0.0
H689 H 0.02688 0.23945 0.17607 0.0
H690 H 0.10707 0.14685 0.25944 0.0
H691 H 0.0098 0.19052 0.23624 0.0
H692 H 0.04875 0.23502 0.26253 0.0
C693 C 0.48866 0.81609 0.56113 0.0
C694 C 0.48991 0.80613 0.57922 0.0
N695 N 0.47146 0.79965 0.58417 0.0
N696 N 0.4695 0.81587 0.55473 0.0
C697 C 0.45962 0.80514 0.56873 0.0
H698 H 0.50048 0.82474 0.55421 0.0
Co699 Co 0.45827 0.83376 0.53632 0.0
C700 C 0.41523 0.82293 0.53395 0.0
O701 O 0.41599 0.82383 0.51431 0.0
N702 N 0.44669 0.85261 0.51855 0.0
C703 C 0.43527 0.87221 0.49398 0.0
C704 C 0.44812 0.85674 0.49874 0.0
C705 C 0.43296 0.86588 0.5253 0.0
N706 N 0.42577 0.87787 0.51082 0.0
O707 O 0.45835 0.85327 0.5568 0.0
H708 H 0.45739 0.84899 0.48805 0.0
H709 H 0.42798 0.86657 0.5407 0.0
O710 O 0.43116 0.82592 0.54418 0.0
C711 C 0.47316 0.86521 0.55734 0.0
O712 O 0.48655 0.86441 0.54294 0.0
N713 N 0.46014 0.81417 0.51649 0.0
C714 C 0.47522 0.78228 0.4939 0.0
C715 C 0.45972 0.77936 0.50791 0.0
C716 C 0.45221 0.79549 0.51882 0.0
C717 C 0.47501 0.81739 0.50292 0.0
C718 C 0.48202 0.80193 0.49076 0.0
H719 H 0.44171 0.79241 0.53071 0.0
H720 H 0.48258 0.8317 0.50254 0.0
H721 H 0.44365 0.80262 0.56843 0.0
H722 H 0.50289 0.80556 0.58892 0.0
H723 H 0.43271 0.87835 0.4792 0.0
H724 H 0.45464 0.76457 0.5121 0.0
H725 H 0.49392 0.80516 0.48024 0.0
C726 C 0.94036 0.73474 0.30692 0.0
C727 C 0.9515 0.7388 0.32388 0.0
N728 N 0.95283 0.72184 0.3347 0.0
N729 N 0.93466 0.71536 0.30728 0.0
C730 C 0.94235 0.70798 0.32442 0.0
H731 H 0.93616 0.74533 0.29541 0.0
Co732 Co 0.91748 0.70227 0.28975 0.0
C733 C 0.93308 0.66128 0.28663 0.0
O734 O 0.93165 0.66287 0.26707 0.0
N735 N 0.89933 0.68866 0.27258 0.0
C736 C 0.88036 0.67559 0.24831 0.0
C737 C 0.89583 0.68856 0.25258 0.0
C738 C 0.88593 0.67532 0.27988 0.0
N739 N 0.87411 0.66741 0.26561 0.0
O740 O 0.89849 0.70128 0.31068 0.0
H741 H 0.90399 0.69684 0.24141 0.0
H742 H 0.88474 0.67139 0.29555 0.0
O743 O 0.9283 0.67608 0.29782 0.0
C744 C 0.88687 0.71637 0.31062 0.0
O745 O 0.88822 0.72927 0.29581 0.0
N746 N 0.93642 0.70582 0.2694 0.0
C747 C 0.96608 0.72613 0.24792 0.0
C748 C 0.97106 0.71083 0.26158 0.0
C749 C 0.95604 0.70075 0.27202 0.0
C750 C 0.93127 0.72003 0.25569 0.0
C751 C 0.94572 0.7294 0.24391 0.0
H752 H 0.96046 0.69084 0.28401 0.0
H753 H 0.916 0.72537 0.25497 0.0
H754 H 0.93936 0.69301 0.32989 0.0
H755 H 0.95773 0.75315 0.32815 0.0
H756 H 0.87447 0.6722 0.23359 0.0
H757 H 0.98643 0.70785 0.26576 0.0
H758 H 0.94083 0.7402 0.23289 0.0
C759 C 0.55766 0.26448 0.80697 0.0
C760 C 0.54766 0.26209 0.82497 0.0
N761 N 0.54928 0.27931 0.83542 0.0
N762 N 0.56543 0.28311 0.80621 0.0
C763 C 0.55995 0.29169 0.82361 0.0
H764 H 0.56006 0.25307 0.79571 0.0
Co765 Co 0.58346 0.29456 0.78837 0.0
C766 C 0.57193 0.33762 0.78593 0.0
O767 O 0.57583 0.33797 0.76666 0.0
N768 N 0.60241 0.3065 0.77106 0.0
C769 C 0.6222 0.31813 0.74677 0.0
C770 C 0.60666 0.30529 0.75126 0.0
C771 C 0.61565 0.32014 0.77807 0.0
N772 N 0.62777 0.32742 0.76376 0.0
O773 O 0.60255 0.29507 0.80943 0.0
H774 H 0.59892 0.2962 0.7404 0.0
H775 H 0.61619 0.32502 0.79351 0.0
O776 O 0.57396 0.32138 0.79588 0.0
C777 C 0.61401 0.27987 0.8101 0.0
O778 O 0.61255 0.26628 0.79593 0.0
N779 N 0.5645 0.29191 0.76803 0.0
C780 C 0.53335 0.27413 0.74639 0.0
C781 C 0.52971 0.29023 0.75956 0.0
C782 C 0.54549 0.29912 0.76996 0.0
C783 C 0.56844 0.2767 0.75501 0.0
C784 C 0.55331 0.26831 0.74333 0.0
H785 H 0.5419 0.3099 0.78146 0.0
H786 H 0.58309 0.26981 0.75493 0.0
H787 H 0.56468 0.30653 0.82807 0.0
H788 H 0.54099 0.24837 0.83045 0.0
H789 H 0.62844 0.32084 0.73206 0.0
H790 H 0.5147 0.29472 0.76361 0.0
H791 H 0.55708 0.25608 0.73338 0.0
C792 C 0.55557 0.51254 0.69174 0.0
C793 C 0.57309 0.50833 0.70192 0.0
N794 N 0.58433 0.52504 0.70199 0.0
N795 N 0.55606 0.53175 0.68543 0.0
C796 C 0.57384 0.53888 0.69181 0.0
H797 H 0.54364 0.50209 0.68841 0.0
Co798 Co 0.53824 0.54484 0.66856 0.0
C799 C 0.53541 0.58588 0.68445 0.0
O800 O 0.51582 0.58422 0.68376 0.0
N801 N 0.52081 0.55849 0.65078 0.0
C802 C 0.49655 0.57126 0.63164 0.0
C803 C 0.50098 0.55763 0.64644 0.0
C804 C 0.52783 0.57294 0.63845 0.0
N805 N 0.5135 0.58094 0.6268 0.0
O806 O 0.55889 0.54607 0.64924 0.0
H807 H 0.49005 0.548 0.65333 0.0
H808 H 0.5434 0.57737 0.6378 0.0
O809 O 0.54643 0.57102 0.67945 0.0
C810 C 0.5591 0.53061 0.63812 0.0
O811 O 0.54465 0.51738 0.64008 0.0
N812 N 0.51814 0.5411 0.68761 0.0
C813 C 0.49553 0.52152 0.71691 0.0
C814 C 0.50957 0.53643 0.72211 0.0
C815 C 0.52058 0.54616 0.70726 0.0
C816 C 0.50438 0.52701 0.68229 0.0
C817 C 0.49196 0.51814 0.69649 0.0
H818 H 0.53268 0.5559 0.71181 0.0
H819 H 0.50405 0.52139 0.66711 0.0
H820 H 0.57956 0.5536 0.6881 0.0
H821 H 0.5776 0.494 0.70802 0.0
H822 H 0.48201 0.57387 0.62497 0.0
H823 H 0.51349 0.5394 0.73756 0.0
H824 H 0.48076 0.50765 0.69137 0.0
C825 C 0.7333 0.30764 0.9465 0.0
C826 C 0.73583 0.32493 0.95761 0.0
N827 N 0.72028 0.33722 0.95377 0.0
N828 N 0.71614 0.30905 0.93592 0.0
C829 C 0.7087 0.32721 0.94056 0.0
H830 H 0.74325 0.29486 0.94624 0.0
Co831 Co 0.7044 0.29118 0.91789 0.0
C832 C 0.66249 0.28798 0.93125 0.0
O833 O 0.66402 0.26844 0.92936 0.0
N834 N 0.69213 0.27389 0.89907 0.0
C835 C 0.68059 0.25005 0.87864 0.0
C836 C 0.69374 0.2543 0.894 0.0
C837 C 0.67795 0.281 0.88648 0.0
N838 N 0.67057 0.26691 0.87413 0.0
O839 O 0.70431 0.3118 0.89838 0.0
H840 H 0.70356 0.24346 0.90077 0.0
H841 H 0.6732 0.29648 0.88627 0.0
O842 O 0.67754 0.29918 0.92733 0.0
C843 C 0.72142 0.31411 0.89034 0.0
O844 O 0.73628 0.30259 0.89614 0.0
N845 N 0.70678 0.2709 0.93711 0.0
C846 C 0.72355 0.24793 0.96788 0.0
C847 C 0.7084 0.26208 0.97184 0.0
C848 C 0.70006 0.2732 0.95627 0.0
C849 C 0.72127 0.25717 0.93293 0.0
C850 C 0.72905 0.24481 0.94783 0.0
H851 H 0.69017 0.2854 0.96012 0.0
H852 H 0.72822 0.25703 0.91831 0.0
H853 H 0.69517 0.33321 0.93395 0.0
H854 H 0.74797 0.32799 0.9679 0.0
H855 H 0.67847 0.23566 0.87147 0.0
H856 H 0.70436 0.26626 0.98694 0.0
H857 H 0.74068 0.23425 0.94383 0.0
C858 C 0.93948 0.48893 0.18114 0.0
C859 C 0.92216 0.49304 0.19165 0.0
N860 N 0.91316 0.47552 0.19596 0.0
N861 N 0.94111 0.46895 0.17871 0.0
C862 C 0.92483 0.46122 0.18784 0.0
H863 H 0.94969 0.49979 0.17481 0.0
Co864 Co 0.95936 0.45565 0.16258 0.0
C865 C 0.9624 0.41508 0.17942 0.0
O866 O 0.98199 0.41676 0.17873 0.0
N867 N 0.9773 0.44185 0.14542 0.0
C868 C 0.00203 0.42956 0.12659 0.0
C869 C 0.99721 0.4428 0.14166 0.0
C870 C 0.97062 0.42764 0.13261 0.0
N871 N 0.98516 0.4202 0.12085 0.0
O872 O 0.93896 0.45381 0.14293 0.0
H873 H 0.00793 0.45226 0.14912 0.0
H874 H 0.95513 0.42298 0.13162 0.0
O875 O 0.9513 0.42963 0.17376 0.0
C876 C 0.93973 0.46655 0.12878 0.0
O877 O 0.95551 0.47819 0.12721 0.0
N878 N 0.97898 0.45981 0.18224 0.0
C879 C 0.0016 0.47777 0.21266 0.0
C880 C 0.98692 0.46329 0.21707 0.0
C881 C 0.97585 0.45451 0.20173 0.0
C882 C 0.99317 0.47373 0.17763 0.0
C883 C 0.00545 0.48195 0.19242 0.0
H884 H 0.96336 0.44509 0.20583 0.0
H885 H 0.99415 0.47953 0.16254 0.0
H886 H 0.92075 0.44554 0.18738 0.0
H887 H 0.91624 0.50772 0.19519 0.0
H888 H 0.01681 0.42698 0.12048 0.0
H889 H 0.98265 0.45991 0.23234 0.0
H890 H 0.01695 0.49241 0.18792 0.0
C891 C 0.76366 0.69014 0.4342 0.0
C892 C 0.76056 0.67279 0.44498 0.0
N893 N 0.77759 0.66832 0.4548 0.0
N894 N 0.78268 0.69635 0.43698 0.0
C895 C 0.79028 0.68342 0.45043 0.0
H896 H 0.75361 0.69623 0.42306 0.0
Co897 Co 0.79691 0.71242 0.419 0.0
C898 C 0.83997 0.71142 0.43104 0.0
O899 O 0.84078 0.73077 0.42752 0.0
N900 N 0.81068 0.72812 0.40017 0.0
C901 C 0.82274 0.751 0.3791 0.0
C902 C 0.80963 0.7476 0.3947 0.0
C903 C 0.82432 0.72011 0.3876 0.0
N904 N 0.83207 0.73364 0.3749 0.0
O905 O 0.79546 0.6912 0.39994 0.0
H906 H 0.79998 0.75874 0.4013 0.0
H907 H 0.82834 0.70441 0.38758 0.0
O908 O 0.82325 0.70211 0.42897 0.0
C909 C 0.78145 0.69352 0.38719 0.0
O910 O 0.77061 0.70992 0.38808 0.0
N911 N 0.79602 0.7332 0.43748 0.0
C912 C 0.77704 0.75343 0.46826 0.0
C913 C 0.7947 0.74273 0.47201 0.0
C914 C 0.80392 0.73241 0.45634 0.0
C915 C 0.78021 0.74541 0.43334 0.0
C916 C 0.7707 0.75604 0.44851 0.0
H917 H 0.81538 0.72169 0.46013 0.0
H918 H 0.77318 0.7447 0.41876 0.0
H919 H 0.80573 0.68332 0.4548 0.0
H920 H 0.74787 0.66281 0.44342 0.0
H921 H 0.82522 0.76508 0.37145 0.0
H922 H 0.79949 0.73986 0.48725 0.0
H923 H 0.7567 0.76359 0.44527 0.0
C924 C 0.55025 0.47993 0.80307 0.0
C925 C 0.56789 0.48382 0.79294 0.0
N926 N 0.58152 0.47016 0.79877 0.0
N927 N 0.55287 0.46375 0.81494 0.0
C928 C 0.57206 0.45828 0.81199 0.0
H929 H 0.53657 0.48854 0.80211 0.0
Co930 Co 0.53581 0.45131 0.83327 0.0
C931 C 0.53626 0.40841 0.8218 0.0
O932 O 0.51703 0.40718 0.8258 0.0
N933 N 0.51937 0.43855 0.85242 0.0
C934 C 0.49636 0.42752 0.874 0.0
C935 C 0.49982 0.43971 0.85771 0.0
C936 C 0.52723 0.42545 0.8657 0.0
N937 N 0.51375 0.4187 0.87901 0.0
O938 O 0.55656 0.45259 0.8527 0.0
H939 H 0.4885 0.44867 0.85053 0.0
H940 H 0.54279 0.42095 0.86571 0.0
O941 O 0.54545 0.42508 0.82405 0.0
C942 C 0.55941 0.46978 0.86039 0.0
O943 O 0.5486 0.48498 0.85411 0.0
N944 N 0.51534 0.45203 0.81422 0.0
C945 C 0.49249 0.46772 0.78289 0.0
C946 C 0.50662 0.45242 0.77945 0.0
C947 C 0.51765 0.44456 0.79534 0.0
C948 C 0.50122 0.46626 0.81798 0.0
C949 C 0.48888 0.47345 0.80278 0.0
H950 H 0.52992 0.43466 0.79183 0.0
H951 H 0.50087 0.47363 0.83239 0.0
H952 H 0.57913 0.44591 0.81973 0.0
H953 H 0.57068 0.49609 0.78271 0.0
H954 H 0.48214 0.42524 0.88143 0.0
H955 H 0.51103 0.44804 0.76451 0.0
H956 H 0.47814 0.48504 0.80639 0.0
C957 C 0.76581 0.3064 0.05492 0.0
C958 C 0.76283 0.32246 0.04218 0.0
N959 N 0.77966 0.33359 0.04209 0.0
N960 N 0.78435 0.30765 0.06286 0.0
C961 C 0.79226 0.32444 0.05491 0.0
H962 H 0.75506 0.29481 0.05847 0.0
Co963 Co 0.79651 0.29146 0.08206 0.0
C964 C 0.83914 0.28926 0.07052 0.0
O965 O 0.83894 0.27 0.07455 0.0
N966 N 0.8092 0.27585 0.10216 0.0
C967 C 0.82197 0.25351 0.1235 0.0
C968 C 0.80896 0.25633 0.10773 0.0
C969 C 0.8225 0.28436 0.11489 0.0
N970 N 0.83058 0.27119 0.12779 0.0
O971 O 0.79551 0.31334 0.10009 0.0
H972 H 0.80042 0.24452 0.10084 0.0
H973 H 0.82629 0.3001 0.11465 0.0
O974 O 0.82312 0.29962 0.0724 0.0
C975 C 0.77974 0.3126 0.11078 0.0
O976 O 0.76721 0.29768 0.10798 0.0
N977 N 0.79507 0.26996 0.0642 0.0
C978 C 0.77696 0.24681 0.03438 0.0
C979 C 0.79248 0.26039 0.02976 0.0
C980 C 0.80157 0.27156 0.0449 0.0
C981 C 0.78094 0.25609 0.06912 0.0
C982 C 0.77283 0.24338 0.0547 0.0
H983 H 0.81166 0.28344 0.04058 0.0
H984 H 0.77443 0.25612 0.08393 0.0
H985 H 0.8067 0.33045 0.05917 0.0
H986 H 0.74931 0.32587 0.03389 0.0
H987 H 0.82511 0.23948 0.13098 0.0
H988 H 0.79631 0.26406 0.01445 0.0
H989 H 0.76212 0.23226 0.05951 0.0
C990 C 0.94038 0.51363 0.3123 0.0
C991 C 0.92222 0.51083 0.30275 0.0
N992 N 0.91367 0.52892 0.29999 0.0
N993 N 0.94314 0.53336 0.31554 0.0
C994 C 0.92684 0.54221 0.30763 0.0
H995 H 0.95009 0.502 0.31802 0.0
Co996 Co 0.96136 0.54538 0.33282 0.0
C997 C 0.96505 0.58722 0.3191 0.0
O998 O 0.98458 0.58525 0.32046 0.0
N999 N 0.97906 0.5578 0.35108 0.0
C1000 C 0.00353 0.57068 0.36984 0.0
C1001 C 0.99883 0.55663 0.35542 0.0
C1002 C 0.97224 0.57244 0.36328 0.0
N1003 N 0.98674 0.58077 0.37448 0.0
O1004 O 0.94084 0.54578 0.35252 0.0
H1005 H 0.0095 0.54668 0.34855 0.0
H1006 H 0.95673 0.57706 0.36381 0.0
O1007 O 0.95361 0.57243 0.32342 0.0
C1008 C 0.94073 0.53054 0.36396 0.0
O1009 O 0.95538 0.51749 0.36248 0.0
N1010 N 0.98113 0.54272 0.31311 0.0
C1011 C 0.00369 0.52716 0.28142 0.0
C1012 C 0.98912 0.54202 0.27814 0.0
C1013 C 0.97809 0.5496 0.2941 0.0
C1014 C 0.9952 0.52838 0.31666 0.0
C1015 C 0.00725 0.52105 0.30122 0.0
H1016 H 0.96561 0.55928 0.2907 0.0
H1017 H 0.99601 0.52134 0.33122 0.0
H1018 H 0.92391 0.55807 0.30877 0.0
H1019 H 0.91515 0.49654 0.29983 0.0
H1020 H 0.01821 0.5735 0.37614 0.0
H1021 H 0.98461 0.5464 0.26321 0.0
H1022 H 0.01803 0.50943 0.3046 0.0
C1023 C 0.72721 0.69613 0.55109 0.0
C1024 C 0.73065 0.67834 0.54107 0.0
N1025 N 0.7175 0.66476 0.54799 0.0
N1026 N 0.71171 0.69367 0.56388 0.0
C1027 C 0.70624 0.67439 0.56161 0.0
H1028 H 0.73576 0.70975 0.54935 0.0
Co1029 Co 0.69994 0.71091 0.58243 0.0
C1030 C 0.65664 0.71088 0.57171 0.0
O1031 O 0.6554 0.73008 0.57587 0.0
N1032 N 0.68803 0.72754 0.60164 0.0
C1033 C 0.67836 0.75117 0.62306 0.0
C1034 C 0.69112 0.74667 0.60745 0.0
C1035 C 0.67371 0.72073 0.61416 0.0
N1036 N 0.6673 0.73477 0.62709 0.0
O1037 O 0.70096 0.69004 0.60174 0.0
H1038 H 0.702 0.75679 0.60111 0.0
H1039 H 0.66766 0.70571 0.61341 0.0
O1040 O 0.67342 0.7018 0.57347 0.0
C1041 C 0.71691 0.69038 0.61215 0.0
O1042 O 0.72996 0.70475 0.60888 0.0
N1043 N 0.70097 0.73157 0.56361 0.0
C1044 C 0.71811 0.75136 0.53145 0.0
C1045 C 0.69943 0.74202 0.52935 0.0
C1046 C 0.69137 0.73159 0.54553 0.0
C1047 C 0.71758 0.74309 0.56651 0.0
C1048 C 0.72637 0.75331 0.55059 0.0
H1049 H 0.67914 0.72154 0.54247 0.0
H1050 H 0.72574 0.74196 0.58046 0.0
H1051 H 0.69431 0.66736 0.57006 0.0
H1052 H 0.74225 0.67541 0.53013 0.0
H1053 H 0.67767 0.76525 0.63106 0.0
H1054 H 0.69268 0.74026 0.51469 0.0
H1055 H 0.74093 0.76016 0.55272 0.0
C1056 C 0.69171 0.5543 0.51653 0.0
C1057 C 0.70258 0.57177 0.51404 0.0
N1058 N 0.69944 0.58346 0.53019 0.0
N1059 N 0.68185 0.5552 0.53414 0.0
C1060 C 0.68656 0.57323 0.54182 0.0
H1061 H 0.69115 0.54175 0.50629 0.0
Co1062 Co 0.66492 0.53714 0.54679 0.0
C1063 C 0.67982 0.53525 0.58828 0.0
O1064 O 0.67904 0.51562 0.58701 0.0
N1065 N 0.64709 0.5197 0.56019 0.0
C1066 C 0.62728 0.49616 0.57325 0.0
C1067 C 0.64207 0.50005 0.55936 0.0
C1068 C 0.63511 0.52717 0.57469 0.0
N1069 N 0.62314 0.51331 0.58297 0.0
O1070 O 0.64489 0.5573 0.54693 0.0
H1071 H 0.64842 0.48898 0.5495 0.0
H1072 H 0.63493 0.5428 0.57892 0.0
O1073 O 0.6749 0.54598 0.57318 0.0
C1074 C 0.63341 0.55614 0.53176 0.0
O1075 O 0.63631 0.54155 0.51888 0.0
N1076 N 0.68472 0.5174 0.54429 0.0
C1077 C 0.7158 0.49587 0.52629 0.0
C1078 C 0.71975 0.51036 0.54112 0.0
C1079 C 0.70404 0.52082 0.55002 0.0
C1080 C 0.68054 0.50285 0.5306 0.0
C1081 C 0.69571 0.49108 0.52239 0.0
H1082 H 0.70774 0.53341 0.55949 0.0
H1083 H 0.66562 0.50158 0.52447 0.0
H1084 H 0.68018 0.579 0.55555 0.0
H1085 H 0.71213 0.57551 0.50148 0.0
H1086 H 0.6201 0.48187 0.57596 0.0
H1087 H 0.73486 0.51515 0.54451 0.0
H1088 H 0.69161 0.47949 0.51186 0.0
C1089 C 0.69293 0.44665 0.76712 0.0
C1090 C 0.67558 0.45773 0.76491 0.0
N1091 N 0.66305 0.4529 0.77999 0.0
N1092 N 0.69131 0.43512 0.78364 0.0
C1093 C 0.67297 0.43916 0.79096 0.0
H1094 H 0.7059 0.44711 0.75744 0.0
Co1095 Co 0.70894 0.41676 0.795 0.0
C1096 C 0.71099 0.42793 0.83805 0.0
O1097 O 0.73037 0.42453 0.83789 0.0
N1098 N 0.72601 0.39746 0.80669 0.0
C1099 C 0.74946 0.3757 0.81625 0.0
C1100 C 0.74504 0.39125 0.80344 0.0
C1101 C 0.71926 0.38514 0.82126 0.0
N1102 N 0.7332 0.37204 0.82754 0.0
O1103 O 0.6882 0.39736 0.79441 0.0
H1104 H 0.75528 0.39712 0.79248 0.0
H1105 H 0.70434 0.38606 0.82752 0.0
O1106 O 0.70073 0.42575 0.82198 0.0
C1107 C 0.68882 0.38676 0.77858 0.0
O1108 O 0.70318 0.39015 0.76556 0.0
N1109 N 0.72936 0.43586 0.79347 0.0
C1110 C 0.75232 0.46716 0.77772 0.0
C1111 C 0.73848 0.47055 0.7933 0.0
C1112 C 0.72743 0.45467 0.80119 0.0
C1113 C 0.74295 0.4322 0.77871 0.0
C1114 C 0.75539 0.44731 0.77152 0.0
H1115 H 0.71546 0.45817 0.81148 0.0
H1116 H 0.74273 0.41803 0.77091 0.0
H1117 H 0.66681 0.43177 0.80401 0.0
H1118 H 0.67265 0.46868 0.75333 0.0
H1119 H 0.76342 0.36749 0.81683 0.0
H1120 H 0.73438 0.48547 0.79801 0.0
H1121 H 0.76582 0.44368 0.75966 0.0
C1122 C 0.80339 0.44463 0.0116 0.0
C1123 C 0.79339 0.42711 0.00683 0.0
N1124 N 0.79854 0.41324 0.02047 0.0
N1125 N 0.81439 0.44165 0.02834 0.0
C1126 C 0.8112 0.42233 0.03323 0.0
H1127 H 0.80256 0.45864 0.00351 0.0
Co1128 Co 0.83071 0.45923 0.0427 0.0
C1129 C 0.82975 0.44078 0.0826 0.0
O1130 O 0.84907 0.43755 0.081 0.0
N1131 N 0.84718 0.47659 0.05776 0.0
C1132 C 0.85587 0.49547 0.08386 0.0
C1133 C 0.8406 0.49041 0.07106 0.0
C1134 C 0.86669 0.47396 0.06257 0.0
N1135 N 0.87213 0.48483 0.07868 0.0
O1136 O 0.85107 0.4395 0.04191 0.0
H1137 H 0.82517 0.49488 0.07296 0.0
H1138 H 0.87611 0.46243 0.05623 0.0
O1139 O 0.82028 0.44885 0.06803 0.0
C1140 C 0.86095 0.43858 0.02565 0.0
O1141 O 0.85756 0.45201 0.01167 0.0
N1142 N 0.81077 0.47859 0.0414 0.0
C1143 C 0.78007 0.50265 0.02682 0.0
C1144 C 0.77596 0.48645 0.03969 0.0
C1145 C 0.79157 0.47478 0.04709 0.0
C1146 C 0.8153 0.49499 0.03013 0.0
C1147 C 0.80016 0.50751 0.02303 0.0
H1148 H 0.78797 0.46135 0.05537 0.0
H1149 H 0.83059 0.49752 0.02542 0.0
H1150 H 0.81801 0.415 0.04599 0.0
H1151 H 0.78339 0.42468 0.9943 0.0
H1152 H 0.85456 0.50463 0.09719 0.0
H1153 H 0.76083 0.4814 0.04248 0.0
H1154 H 0.80409 0.5199 0.01333 0.0
C1155 C 0.80431 0.55975 0.26781 0.0
C1156 C 0.82186 0.54914 0.26502 0.0
N1157 N 0.83166 0.54841 0.28267 0.0
N1158 N 0.80316 0.56563 0.28709 0.0
C1159 C 0.81985 0.5583 0.29571 0.0
H1160 H 0.79391 0.56424 0.25622 0.0
Co1161 Co 0.78652 0.58486 0.29839 0.0
C1162 C 0.78457 0.57519 0.34188 0.0
O1163 O 0.76558 0.58027 0.34253 0.0
N1164 N 0.77044 0.6049 0.30978 0.0
C1165 C 0.74711 0.62648 0.31991 0.0
C1166 C 0.75103 0.61028 0.30766 0.0
C1167 C 0.77788 0.61812 0.32318 0.0
N1168 N 0.76411 0.63128 0.32964 0.0
O1169 O 0.80837 0.60304 0.29774 0.0
H1170 H 0.74025 0.60293 0.29811 0.0
H1171 H 0.79324 0.61797 0.32835 0.0
O1172 O 0.79416 0.57596 0.32533 0.0
C1173 C 0.80873 0.61317 0.28161 0.0
O1174 O 0.79439 0.61034 0.26843 0.0
N1175 N 0.76526 0.56688 0.29677 0.0
C1176 C 0.74703 0.53488 0.27771 0.0
C1177 C 0.75558 0.53236 0.29671 0.0
C1178 C 0.76502 0.54857 0.30591 0.0
C1179 C 0.75462 0.57004 0.27963 0.0
C1180 C 0.74515 0.55419 0.26989 0.0
H1181 H 0.77443 0.54543 0.31863 0.0
H1182 H 0.75596 0.58422 0.27192 0.0
H1183 H 0.82412 0.56154 0.31097 0.0
H1184 H 0.82769 0.54396 0.25082 0.0
H1185 H 0.73278 0.63382 0.32182 0.0
H1186 H 0.75758 0.5175 0.30291 0.0
H1187 H 0.73905 0.55654 0.25503 0.0
C1188 C 0.69628 0.44946 0.98222 0.0
C1189 C 0.70677 0.432 0.98608 0.0
N1190 N 0.70143 0.41839 0.9722 0.0
N1191 N 0.68472 0.44674 0.96582 0.0
C1192 C 0.68818 0.42767 0.96021 0.0
H1193 H 0.6968 0.46308 0.99098 0.0
Co1194 Co 0.66615 0.46334 0.95317 0.0
C1195 C 0.67827 0.46361 0.91041 0.0
O1196 O 0.67412 0.48282 0.90944 0.0
N1197 N 0.64665 0.47929 0.94017 0.0
C1198 C 0.62444 0.50158 0.92896 0.0
C1199 C 0.64054 0.4986 0.94148 0.0
C1200 C 0.63398 0.47108 0.92667 0.0
N1201 N 0.62026 0.48413 0.91983 0.0
O1202 O 0.64754 0.4419 0.95404 0.0
H1203 H 0.64699 0.51009 0.95077 0.0
H1204 H 0.63518 0.45577 0.92152 0.0
O1205 O 0.67607 0.45419 0.92696 0.0
C1206 C 0.63648 0.4418 0.96953 0.0
O1207 O 0.63793 0.45672 0.98229 0.0
N1208 N 0.68449 0.48444 0.95447 0.0
C1209 C 0.71453 0.50702 0.97278 0.0
C1210 C 0.71904 0.49364 0.95706 0.0
C1211 C 0.70374 0.48272 0.94785 0.0
C1212 C 0.67973 0.49832 0.96864 0.0
C1213 C 0.69428 0.51081 0.97681 0.0
H1214 H 0.70791 0.47085 0.93769 0.0
H1215 H 0.66502 0.49829 0.97535 0.0
H1216 H 0.68078 0.4205 0.94768 0.0
H1217 H 0.71687 0.42929 0.99847 0.0
H1218 H 0.61628 0.51544 0.92694 0.0
H1219 H 0.73433 0.48986 0.95328 0.0
H1220 H 0.6897 0.52181 0.98776 0.0
C1221 C 0.80703 0.44219 0.23294 0.0
C1222 C 0.82415 0.45324 0.23638 0.0
N1223 N 0.83372 0.45546 0.2188 0.0
N1224 N 0.80611 0.43734 0.21335 0.0
C1225 C 0.8226 0.44567 0.20515 0.0
H1226 H 0.79658 0.43696 0.24416 0.0
Co1227 Co 0.78885 0.41887 0.20189 0.0
C1228 C 0.78835 0.42829 0.15853 0.0
O1229 O 0.76869 0.42739 0.15844 0.0
N1230 N 0.77196 0.39955 0.19029 0.0
C1231 C 0.74765 0.37991 0.17856 0.0
C1232 C 0.7521 0.39566 0.19119 0.0
C1233 C 0.77912 0.38588 0.17722 0.0
N1234 N 0.76477 0.37388 0.16981 0.0
O1235 O 0.80963 0.39972 0.20365 0.0
H1236 H 0.74126 0.40388 0.19989 0.0
H1237 H 0.79469 0.385 0.17281 0.0
O1238 O 0.79792 0.42611 0.17498 0.0
C1239 C 0.80968 0.38923 0.21954 0.0
O1240 O 0.79475 0.39106 0.23223 0.0
N1241 N 0.76865 0.43807 0.2024 0.0
C1242 C 0.74967 0.47062 0.21981 0.0
C1243 C 0.76058 0.47302 0.20205 0.0
C1244 C 0.77027 0.45651 0.19366 0.0
C1245 C 0.75648 0.4353 0.21855 0.0
C1246 C 0.74649 0.45136 0.2273 0.0
H1247 H 0.78118 0.45927 0.18208 0.0
H1248 H 0.75665 0.42108 0.22632 0.0
H1249 H 0.82733 0.44327 0.18984 0.0
H1250 H 0.82967 0.45836 0.25075 0.0
H1251 H 0.7329 0.37389 0.17556 0.0
H1252 H 0.76389 0.48786 0.19638 0.0
H1253 H 0.73878 0.44915 0.24141 0.0
C1254 C 0.81161 0.55913 0.48616 0.0
C1255 C 0.8028 0.57771 0.48899 0.0
N1256 N 0.80386 0.58803 0.47164 0.0
N1257 N 0.81791 0.55775 0.46704 0.0
C1258 C 0.81284 0.57538 0.4587 0.0
H1259 H 0.81405 0.5478 0.49747 0.0
Co1260 Co 0.83431 0.53912 0.45426 0.0
C1261 C 0.81955 0.53773 0.41213 0.0
O1262 O 0.8224 0.51827 0.41141 0.0
N1263 N 0.85176 0.52125 0.44097 0.0
C1264 C 0.87251 0.49754 0.42982 0.0
C1265 C 0.85746 0.50193 0.44331 0.0
C1266 C 0.86361 0.52806 0.42603 0.0
N1267 N 0.87616 0.51406 0.41888 0.0
O1268 O 0.85434 0.55907 0.45297 0.0
H1269 H 0.85169 0.4916 0.45427 0.0
H1270 H 0.86348 0.54341 0.42084 0.0
O1271 O 0.82363 0.54746 0.42811 0.0
C1272 C 0.86656 0.55897 0.46756 0.0
O1273 O 0.86479 0.54493 0.48125 0.0
N1274 N 0.8145 0.51966 0.45752 0.0
C1275 C 0.78332 0.4973 0.4743 0.0
C1276 C 0.77958 0.51171 0.45937 0.0
C1277 C 0.79533 0.52257 0.45108 0.0
C1278 C 0.8185 0.50568 0.47184 0.0
C1279 C 0.8033 0.49374 0.47977 0.0
H1280 H 0.79168 0.53489 0.44129 0.0
H1281 H 0.83323 0.50497 0.47848 0.0
H1282 H 0.81631 0.57895 0.44343 0.0
H1283 H 0.79692 0.58345 0.50296 0.0
H1284 H 0.88037 0.48344 0.42838 0.0
H1285 H 0.76452 0.51616 0.45542 0.0
H1286 H 0.80706 0.48304 0.49135 0.0
C1287 C 0.69174 0.55898 0.73431 0.0
C1288 C 0.6749 0.5474 0.73753 0.0
N1289 N 0.66435 0.54679 0.72035 0.0
N1290 N 0.69154 0.56574 0.71527 0.0
C1291 C 0.67462 0.55815 0.70724 0.0
H1292 H 0.70312 0.56266 0.74525 0.0
Co1293 Co 0.70926 0.58343 0.70298 0.0
C1294 C 0.71238 0.56893 0.66151 0.0
O1295 O 0.73197 0.5697 0.66308 0.0
N1296 N 0.72652 0.60192 0.69006 0.0
C1297 C 0.75048 0.62165 0.67762 0.0
C1298 C 0.74635 0.60619 0.69064 0.0
C1299 C 0.7192 0.61489 0.67632 0.0
N1300 N 0.73326 0.62714 0.66875 0.0
O1301 O 0.68852 0.60275 0.70241 0.0
H1302 H 0.75752 0.59862 0.69946 0.0
H1303 H 0.70367 0.61533 0.67179 0.0
O1304 O 0.70134 0.57349 0.67646 0.0
C1305 C 0.6863 0.61176 0.71905 0.0
O1306 O 0.69789 0.60681 0.73418 0.0
N1307 N 0.72952 0.56437 0.70603 0.0
C1308 C 0.7516 0.53431 0.72507 0.0
C1309 C 0.73771 0.52968 0.70983 0.0
C1310 C 0.727 0.5449 0.70037 0.0
C1311 C 0.74332 0.5692 0.72026 0.0
C1312 C 0.75545 0.5546 0.72893 0.0
H1313 H 0.71494 0.5407 0.69043 0.0
H1314 H 0.74385 0.58424 0.72622 0.0
H1315 H 0.66936 0.56168 0.69232 0.0
H1316 H 0.67056 0.5403 0.75145 0.0
H1317 H 0.76508 0.62802 0.67464 0.0
H1318 H 0.7336 0.51437 0.70642 0.0
H1319 H 0.76661 0.55931 0.73965 0.0
C1320 C 0.51395 0.69325 0.55394 0.0
C1321 C 0.51159 0.70499 0.57085 0.0
N1322 N 0.52783 0.70251 0.58257 0.0
N1323 N 0.53155 0.68342 0.55519 0.0
C1324 C 0.53947 0.68922 0.57284 0.0
H1325 H 0.50338 0.69166 0.54176 0.0
Co1326 Co 0.54285 0.66421 0.53847 0.0
C1327 C 0.58602 0.67456 0.53624 0.0
O1328 O 0.58661 0.66953 0.51723 0.0
N1329 N 0.55465 0.64405 0.52229 0.0
C1330 C 0.56624 0.62304 0.499 0.0
C1331 C 0.55394 0.63919 0.50259 0.0
C1332 C 0.56755 0.63054 0.53014 0.0
N1333 N 0.57472 0.61765 0.51644 0.0
O1334 O 0.54259 0.64629 0.56037 0.0
H1335 H 0.5457 0.64695 0.49111 0.0
H1336 H 0.57202 0.63036 0.54572 0.0
O1337 O 0.5696 0.67349 0.54602 0.0
C1338 C 0.52682 0.63573 0.56161 0.0
O1339 O 0.51323 0.63724 0.54745 0.0
N1340 N 0.54106 0.6822 0.51713 0.0
C1341 C 0.52421 0.7126 0.49376 0.0
C1342 C 0.54014 0.71659 0.50708 0.0
C1343 C 0.54856 0.70116 0.51836 0.0
C1344 C 0.52637 0.67785 0.50367 0.0
C1345 C 0.5188 0.69248 0.49087 0.0
H1346 H 0.55913 0.70513 0.52995 0.0
H1347 H 0.5193 0.66328 0.50388 0.0
H1348 H 0.55312 0.68297 0.57894 0.0
H1349 H 0.49884 0.71436 0.57438 0.0
H1350 H 0.56923 0.61628 0.48457 0.0
H1351 H 0.54491 0.7317 0.51042 0.0
H1352 H 0.50771 0.68804 0.47997 0.0
C1353 C 0.01972 0.79519 0.44615 0.0
C1354 C 0.01678 0.78451 0.42865 0.0
N1355 N 0.02832 0.7928 0.41442 0.0
N1356 N 0.03329 0.8099 0.44286 0.0
C1357 C 0.0382 0.80788 0.42336 0.0
H1358 H 0.01212 0.79249 0.46015 0.0
Co1359 Co 0.04387 0.83026 0.45905 0.0
C1360 C 0.08816 0.82282 0.45843 0.0
O1361 O 0.09036 0.82969 0.47675 0.0
N1362 N 0.05464 0.85107 0.47444 0.0
C1363 C 0.06404 0.87338 0.49739 0.0
C1364 C 0.05231 0.85672 0.49374 0.0
C1365 C 0.06743 0.86468 0.46671 0.0
N1366 N 0.07371 0.87808 0.48034 0.0
O1367 O 0.04206 0.84807 0.43711 0.0
H1368 H 0.04289 0.84929 0.50458 0.0
H1369 H 0.0723 0.86461 0.45125 0.0
O1370 O 0.07074 0.8221 0.4505 0.0
C1371 C 0.02592 0.85811 0.43647 0.0
O1372 O 0.01256 0.85547 0.45067 0.0
N1373 N 0.04361 0.81301 0.48098 0.0
C1374 C 0.02967 0.78204 0.50506 0.0
C1375 C 0.04929 0.78168 0.49738 0.0
C1376 C 0.0557 0.79696 0.48464 0.0
C1377 C 0.02593 0.81511 0.4909 0.0
C1378 C 0.0185 0.79971 0.5028 0.0
H1379 H 0.06933 0.79462 0.47638 0.0
H1380 H 0.01634 0.8277 0.4874 0.0
H1381 H 0.04879 0.81746 0.41569 0.0
H1382 H 0.00657 0.77212 0.42638 0.0
H1383 H 0.06564 0.88117 0.51153 0.0
H1384 H 0.05867 0.76856 0.49911 0.0
H1385 H 0.00317 0.80082 0.50787 0.0
C1386 C 0.43875 0.76478 0.69278 0.0
C1387 C 0.44811 0.76194 0.67445 0.0
N1388 N 0.4476 0.77941 0.66437 0.0
N1389 N 0.43269 0.784 0.69414 0.0
C1390 C 0.43859 0.79245 0.67682 0.0
H1391 H 0.43555 0.75335 0.70381 0.0
Co1392 Co 0.41534 0.79661 0.712 0.0
C1393 C 0.42932 0.83908 0.7141 0.0
O1394 O 0.42578 0.83953 0.73344 0.0
N1395 N 0.39712 0.80993 0.72923 0.0
C1396 C 0.37857 0.82415 0.75314 0.0
C1397 C 0.39305 0.80999 0.74912 0.0
C1398 C 0.38479 0.82411 0.72172 0.0
N1399 N 0.37367 0.83315 0.73583 0.0
O1400 O 0.39611 0.79728 0.69093 0.0
H1401 H 0.40024 0.80094 0.76037 0.0
H1402 H 0.38414 0.82794 0.70602 0.0
O1403 O 0.42608 0.82304 0.70408 0.0
C1404 C 0.38186 0.78467 0.69219 0.0
O1405 O 0.3801 0.77375 0.70847 0.0
N1406 N 0.43422 0.79349 0.73228 0.0
C1407 C 0.46404 0.77459 0.75477 0.0
C1408 C 0.4688 0.7898 0.74089 0.0
C1409 C 0.45367 0.79925 0.73001 0.0
C1410 C 0.42923 0.7794 0.74615 0.0
C1411 C 0.4437 0.77082 0.75849 0.0
H1412 H 0.45794 0.80926 0.71805 0.0
H1413 H 0.41413 0.7736 0.74667 0.0
H1414 H 0.43536 0.80778 0.67291 0.0
H1415 H 0.45365 0.7479 0.66853 0.0
H1416 H 0.37247 0.82784 0.7677 0.0
H1417 H 0.48413 0.79322 0.73692 0.0
H1418 H 0.43886 0.76026 0.76974 0.0
C1419 C 0.48523 0.19186 0.94408 0.0
C1420 C 0.48751 0.20276 0.92661 0.0
N1421 N 0.47087 0.20028 0.91546 0.0
N1422 N 0.46727 0.18259 0.94372 0.0
C1423 C 0.45912 0.18776 0.92601 0.0
H1424 H 0.49593 0.19073 0.95619 0.0
Co1425 Co 0.45512 0.1654 0.96202 0.0
C1426 C 0.41378 0.18059 0.96482 0.0
O1427 O 0.41527 0.17988 0.98444 0.0
N1428 N 0.44219 0.14741 0.97972 0.0
C1429 C 0.43026 0.12732 0.00363 0.0
C1430 C 0.4437 0.14238 0.99933 0.0
C1431 C 0.42763 0.1352 0.9727 0.0
N1432 N 0.42009 0.123 0.9868 0.0
O1433 O 0.45447 0.14544 0.94177 0.0
H1434 H 0.45377 0.14884 0.01014 0.0
H1435 H 0.42286 0.13498 0.95722 0.0
O1436 O 0.42865 0.17544 0.95391 0.0
C1437 C 0.47147 0.13707 0.93986 0.0
O1438 O 0.48614 0.14257 0.95178 0.0
N1439 N 0.45822 0.18503 0.98184 0.0
C1440 C 0.47655 0.21553 0.00402 0.0
C1441 C 0.46166 0.21988 0.9897 0.0
C1442 C 0.45256 0.20446 0.97893 0.0
C1443 C 0.47222 0.1805 0.99597 0.0
C1444 C 0.48047 0.1953 0.00815 0.0
H1445 H 0.44288 0.20844 0.9666 0.0
H1446 H 0.47842 0.16558 0.99667 0.0
H1447 H 0.445 0.1819 0.92063 0.0
H1448 H 0.5003 0.21183 0.92245 0.0
H1449 H 0.42817 0.12006 0.01797 0.0
H1450 H 0.45826 0.23512 0.98535 0.0
H1451 H 0.49098 0.19081 0.0196 0.0
C1452 C 0.54852 0.73113 0.69512 0.0
C1453 C 0.53822 0.73441 0.67745 0.0
N1454 N 0.5438 0.72017 0.66434 0.0
N1455 N 0.56022 0.71476 0.69302 0.0
C1456 C 0.55695 0.70847 0.67412 0.0
H1457 H 0.54801 0.74045 0.70837 0.0
Co1458 Co 0.57936 0.70369 0.71009 0.0
C1459 C 0.56745 0.66134 0.71362 0.0
O1460 O 0.56942 0.66304 0.73313 0.0
N1461 N 0.59941 0.69224 0.72644 0.0
C1462 C 0.62355 0.68382 0.74793 0.0
C1463 C 0.60727 0.6961 0.74473 0.0
C1464 C 0.61131 0.67767 0.71898 0.0
N1465 N 0.62615 0.6724 0.73154 0.0
O1466 O 0.59817 0.70445 0.68873 0.0
H1467 H 0.60221 0.7073 0.75516 0.0
H1468 H 0.60898 0.67093 0.70444 0.0
O1469 O 0.57059 0.67649 0.70229 0.0
C1470 C 0.60504 0.72195 0.68553 0.0
O1471 O 0.59871 0.73683 0.69676 0.0
N1472 N 0.56089 0.70521 0.73118 0.0
C1473 C 0.53037 0.7212 0.75502 0.0
C1474 C 0.5264 0.7059 0.74102 0.0
C1475 C 0.54186 0.69794 0.72948 0.0
C1476 C 0.56511 0.71967 0.74494 0.0
C1477 C 0.55039 0.727 0.75777 0.0
H1478 H 0.53789 0.68802 0.71733 0.0
H1479 H 0.57932 0.72735 0.74446 0.0
H1480 H 0.56476 0.69599 0.66732 0.0
H1481 H 0.52828 0.74678 0.67414 0.0
H1482 H 0.63307 0.68371 0.76106 0.0
H1483 H 0.5113 0.70155 0.73715 0.0
H1484 H 0.55441 0.73872 0.76823 0.0
C1485 C 0.98538 0.3098 0.05484 0.0
C1486 C 0.98844 0.30096 0.07335 0.0
N1487 N 0.97136 0.30256 0.08406 0.0
N1488 N 0.96649 0.31684 0.05401 0.0
C1489 C 0.95845 0.31213 0.07186 0.0
H1490 H 0.99653 0.3121 0.04332 0.0
Co1491 Co 0.95435 0.33417 0.03596 0.0
C1492 C 0.91138 0.3222 0.03511 0.0
O1493 O 0.91073 0.32529 0.01569 0.0
N1494 N 0.94175 0.35251 0.01851 0.0
C1495 C 0.92841 0.3713 0.99431 0.0
C1496 C 0.94204 0.35636 0.9986 0.0
C1497 C 0.92808 0.36551 0.0258 0.0
N1498 N 0.91948 0.37675 0.01151 0.0
O1499 O 0.95483 0.35401 0.0563 0.0
H1500 H 0.95104 0.34872 0.98759 0.0
H1501 H 0.92421 0.36651 0.04149 0.0
O1502 O 0.92769 0.32501 0.04477 0.0
C1503 C 0.97061 0.36466 0.05627 0.0
O1504 O 0.98398 0.36167 0.04216 0.0
N1505 N 0.956 0.31442 0.01625 0.0
C1506 C 0.97137 0.28232 0.99422 0.0
C1507 C 0.95617 0.27941 0.00854 0.0
C1508 C 0.94859 0.29562 0.01923 0.0
C1509 C 0.97039 0.31767 0.00216 0.0
C1510 C 0.97765 0.30201 0.99039 0.0
H1511 H 0.93865 0.2925 0.03158 0.0
H1512 H 0.97754 0.33217 0.00119 0.0
H1513 H 0.94364 0.31679 0.0763 0.0
H1514 H 0.00253 0.29518 0.07885 0.0
H1515 H 0.92499 0.37733 0.97965 0.0
H1516 H 0.95154 0.26459 0.01316 0.0
H1517 H 0.98939 0.30513 0.97966 0.0
C1518 C 0.44687 0.23057 0.80397 0.0
C1519 C 0.45733 0.2339 0.82157 0.0
N1520 N 0.45115 0.22027 0.83504 0.0
N1521 N 0.43458 0.21467 0.80649 0.0
C1522 C 0.43752 0.20889 0.82559 0.0
H1523 H 0.44811 0.2392 0.79032 0.0
Co1524 Co 0.41632 0.20222 0.78946 0.0
C1525 C 0.42848 0.15952 0.78923 0.0
O1526 O 0.42481 0.15876 0.76991 0.0
N1527 N 0.39709 0.1893 0.77314 0.0
C1528 C 0.37508 0.17789 0.75072 0.0
C1529 C 0.39097 0.19069 0.75384 0.0
C1530 C 0.3846 0.17557 0.78122 0.0
N1531 N 0.37102 0.16857 0.76809 0.0
O1532 O 0.39712 0.20337 0.81044 0.0
H1533 H 0.39727 0.20021 0.74246 0.0
H1534 H 0.38585 0.17035 0.7965 0.0
O1535 O 0.42591 0.17593 0.79881 0.0
C1536 C 0.3862 0.21896 0.80973 0.0
O1537 O 0.3887 0.23154 0.79481 0.0
N1538 N 0.43523 0.2033 0.76878 0.0
C1539 C 0.46607 0.22082 0.74652 0.0
C1540 C 0.47004 0.20546 0.76049 0.0
C1541 C 0.45439 0.19663 0.77118 0.0
C1542 C 0.43097 0.21722 0.75449 0.0
C1543 C 0.44593 0.225 0.74222 0.0
H1544 H 0.4582 0.18672 0.78338 0.0
H1545 H 0.41632 0.22402 0.75396 0.0
H1546 H 0.42962 0.19658 0.8326 0.0
H1547 H 0.46815 0.24564 0.82441 0.0
H1548 H 0.367 0.17579 0.73682 0.0
H1549 H 0.48516 0.20158 0.76481 0.0
H1550 H 0.44163 0.23554 0.73074 0.0
C1551 C 0.05775 0.76583 0.3042 0.0
C1552 C 0.04639 0.76188 0.32104 0.0
N1553 N 0.04687 0.77822 0.33286 0.0
N1554 N 0.06537 0.78449 0.30563 0.0
C1555 C 0.05863 0.79153 0.32329 0.0
H1556 H 0.06069 0.75562 0.29196 0.0
Co1557 Co 0.08334 0.79732 0.28874 0.0
C1558 C 0.07188 0.84026 0.28911 0.0
O1559 O 0.07484 0.84092 0.26967 0.0
N1560 N 0.10231 0.81034 0.27236 0.0
C1561 C 0.12325 0.82231 0.24929 0.0
C1562 C 0.10804 0.80885 0.25297 0.0
C1563 C 0.11457 0.82452 0.28004 0.0
N1564 N 0.12716 0.83226 0.26638 0.0
O1565 O 0.10282 0.79562 0.3093 0.0
H1566 H 0.10191 0.79879 0.24196 0.0
H1567 H 0.11383 0.82956 0.29543 0.0
O1568 O 0.07421 0.82376 0.29864 0.0
C1569 C 0.11351 0.7799 0.30782 0.0
O1570 O 0.11036 0.76775 0.29265 0.0
N1571 N 0.06401 0.79675 0.26849 0.0
C1572 C 0.03214 0.78064 0.24657 0.0
C1573 C 0.02895 0.79576 0.26095 0.0
C1574 C 0.04508 0.80383 0.2715 0.0
C1575 C 0.0675 0.78265 0.25415 0.0
C1576 C 0.05199 0.77523 0.24231 0.0
H1577 H 0.04181 0.81357 0.28397 0.0
H1578 H 0.08192 0.77538 0.25337 0.0
H1579 H 0.06308 0.80579 0.32958 0.0
H1580 H 0.03869 0.74803 0.3245 0.0
H1581 H 0.13102 0.82428 0.2352 0.0
H1582 H 0.01409 0.79987 0.26586 0.0
H1583 H 0.05541 0.76372 0.23141 0.0
C1584 C 0.03449 0.11572 0.09019 0.0
C1585 C 0.0234 0.11523 0.07229 0.0
C1586 C 0.03078 0.10197 0.10557 0.0
C1587 C 0.01589 0.08718 0.1036 0.0
H1588 H 0.04592 0.12701 0.09252 0.0
H1589 H 0.03947 0.10307 0.11922 0.0
S1590 S 0.98373 0.07845 0.0592 0.0
N1591 N 0.99747 0.0981 0.05314 0.0
N1592 N 0.99077 0.07213 0.08204 0.0
C1593 C 0.0049 0.08631 0.0857 0.0
C1594 C 0.00863 0.10033 0.07004 0.0
C1595 C 0.14138 0.77933 0.35718 0.0
C1596 C 0.15694 0.7655 0.3538 0.0
C1597 C 0.12749 0.78395 0.34221 0.0
C1598 C 0.12852 0.77481 0.32329 0.0
H1599 H 0.13994 0.7867 0.37156 0.0
H1600 H 0.1158 0.79469 0.34557 0.0
S1601 S 0.16656 0.73772 0.30675 0.0
N1602 N 0.17274 0.74289 0.33014 0.0
N1603 N 0.14641 0.75124 0.30194 0.0
C1604 C 0.14384 0.76071 0.31977 0.0
C1605 C 0.15807 0.7561 0.33506 0.0
C1606 C 0.49302 0.90801 0.5889 0.0
C1607 C 0.48265 0.90571 0.60705 0.0
C1608 C 0.48975 0.8949 0.57286 0.0
C1609 C 0.47597 0.87902 0.5744 0.0
H1610 H 0.50344 0.92029 0.58697 0.0
H1611 H 0.49797 0.89737 0.55909 0.0
S1612 S 0.44637 0.86551 0.6195 0.0
N1613 N 0.45907 0.88564 0.62617 0.0
N1614 N 0.4527 0.86107 0.59602 0.0
C1615 C 0.46575 0.87634 0.59264 0.0
C1616 C 0.46915 0.88966 0.60896 0.0
C1617 C 0.36109 0.21916 0.8606 0.0
C1618 C 0.34515 0.23273 0.85804 0.0
C1619 C 0.37413 0.21459 0.84484 0.0
C1620 C 0.37185 0.22357 0.82594 0.0
H1621 H 0.36352 0.21199 0.87494 0.0
H1622 H 0.38621 0.20411 0.84758 0.0
S1623 S 0.33194 0.25936 0.81114 0.0
N1624 N 0.32735 0.25446 0.83493 0.0
N1625 N 0.35212 0.24629 0.80536 0.0
C1626 C 0.35601 0.23722 0.82316 0.0
C1627 C 0.34263 0.24174 0.8392 0.0
C1628 C 0.00371 0.90208 0.40834 0.0
C1629 C 0.01558 0.90312 0.39103 0.0
C1630 C 0.00704 0.88731 0.42283 0.0
C1631 C 0.02242 0.87307 0.42055 0.0
H1632 H 0.99209 0.91308 0.41094 0.0
H1633 H 0.9977 0.88733 0.43609 0.0
S1634 S 0.05645 0.8681 0.37688 0.0
N1635 N 0.04221 0.88759 0.37155 0.0
N1636 N 0.0489 0.86022 0.39906 0.0
C1637 C 0.03409 0.87362 0.40305 0.0
C1638 C 0.03057 0.88854 0.38821 0.0
C1639 C 0.36674 0.7737 0.63878 0.0
C1640 C 0.34628 0.76901 0.64053 0.0
C1641 C 0.378 0.77931 0.65556 0.0
C1642 C 0.36924 0.78021 0.67467 0.0
H1643 H 0.37397 0.77344 0.62426 0.0
H1644 H 0.39376 0.78249 0.65367 0.0
S1645 S 0.31623 0.76949 0.68712 0.0
N1646 N 0.31766 0.76589 0.66267 0.0
N1647 N 0.33897 0.776 0.69442 0.0
C1648 C 0.34885 0.77544 0.67665 0.0
C1649 C 0.33732 0.77002 0.6595 0.0
C1650 C 0.46293 0.09406 0.90391 0.0
C1651 C 0.48189 0.09159 0.89497 0.0
C1652 C 0.45953 0.10902 0.91823 0.0
C1653 C 0.47505 0.12185 0.92429 0.0
H1654 H 0.45066 0.08422 0.89997 0.0
H1655 H 0.44478 0.11029 0.92487 0.0
S1656 S 0.52683 0.12293 0.90417 0.0
N1657 N 0.51589 0.10427 0.89217 0.0
N1658 N 0.5097 0.132 0.91952 0.0
C1659 C 0.49399 0.11974 0.91533 0.0
C1660 C 0.49737 0.10468 0.90058 0.0
C1661 C 0.1343 0.20585 0.16693 0.0
C1662 C 0.12174 0.22097 0.17439 0.0
C1663 C 0.14885 0.21011 0.15245 0.0
C1664 C 0.15124 0.22959 0.14467 0.0
H1665 H 0.13302 0.19064 0.17245 0.0
H1666 H 0.15835 0.19801 0.14733 0.0
S1667 S 0.12123 0.27425 0.1584 0.0
N1668 N 0.11225 0.25613 0.17263 0.0
N1669 N 0.13927 0.26395 0.145 0.0
C1670 C 0.13872 0.24483 0.15195 0.0
C1671 C 0.12402 0.24055 0.16687 0.0
C1672 C 0.09554 0.03076 0.09308 0.0
C1673 C 0.10449 0.01195 0.08977 0.0
C1674 C 0.08097 0.0334 0.1079 0.0
C1675 C 0.07464 0.01727 0.11982 0.0
H1676 H 0.09971 0.04355 0.08403 0.0
H1677 H 0.07447 0.04814 0.10985 0.0
S1678 S 0.09422 0.96528 0.11806 0.0
N1679 N 0.10667 0.97719 0.10034 0.0
N1680 N 0.07889 0.98199 0.12791 0.0
C1681 C 0.08345 0.99838 0.11672 0.0
C1682 C 0.09845 0.99574 0.10175 0.0
C1683 C 0.24448 0.84486 0.34968 0.0
C1684 C 0.2292 0.85859 0.34521 0.0
C1685 C 0.24121 0.82895 0.36297 0.0
C1686 C 0.22251 0.82616 0.37233 0.0
H1687 H 0.25905 0.84635 0.34272 0.0
H1688 H 0.25351 0.81881 0.36594 0.0
S1689 S 0.17751 0.85823 0.36602 0.0
N1690 N 0.19477 0.8688 0.35187 0.0
N1691 N 0.18841 0.83848 0.37608 0.0
C1692 C 0.20704 0.83978 0.36796 0.0
C1693 C 0.21043 0.85609 0.3546 0.0
C1694 C 0.39287 0.96511 0.60596 0.0
C1695 C 0.39592 0.97888 0.59029 0.0
C1696 C 0.40765 0.96169 0.62045 0.0
C1697 C 0.42602 0.97199 0.61985 0.0
H1698 H 0.37881 0.9571 0.60717 0.0
H1699 H 0.40453 0.95113 0.63237 0.0
S1700 S 0.44194 0.00848 0.58097 0.0
N1701 N 0.41901 0.00199 0.57436 0.0
N1702 N 0.44677 0.99587 0.60169 0.0
C1703 C 0.42934 0.98563 0.60409 0.0
C1704 C 0.41429 0.98903 0.58932 0.0
C1705 C 0.26219 0.1602 0.84522 0.0
C1706 C 0.27061 0.14112 0.84786 0.0
C1707 C 0.26695 0.17599 0.85821 0.0
C1708 C 0.28036 0.17328 0.87427 0.0
H1709 H 0.25218 0.16305 0.83278 0.0
H1710 H 0.26017 0.19048 0.85552 0.0
S1711 S 0.30498 0.12562 0.88877 0.0
N1712 N 0.29184 0.11997 0.86859 0.0
N1713 N 0.30113 0.14973 0.89274 0.0
C1714 C 0.28867 0.15418 0.87726 0.0
C1715 C 0.28368 0.13807 0.86413 0.0
C1716 C 0.09851 0.99895 0.3956 0.0
C1717 C 0.10479 0.98338 0.40825 0.0
C1718 C 0.08384 0.99568 0.38093 0.0
C1719 C 0.07502 0.97669 0.37837 0.0
H1720 H 0.10526 0.01365 0.39683 0.0
H1721 H 0.07961 0.00807 0.37135 0.0
S1722 S 0.08471 0.93146 0.40913 0.0
N1723 N 0.0998 0.9487 0.41843 0.0
N1724 N 0.07275 0.94243 0.39048 0.0
C1725 C 0.08092 0.96107 0.39115 0.0
C1726 C 0.09566 0.96445 0.40621 0.0
C1727 C 0.29065 0.84531 0.62569 0.0
C1728 C 0.281 0.82662 0.62645 0.0
C1729 C 0.28647 0.86019 0.63988 0.0
C1730 C 0.27255 0.85691 0.65539 0.0
H1731 H 0.30123 0.84861 0.61384 0.0
H1732 H 0.29399 0.87449 0.63853 0.0
S1733 S 0.24463 0.80994 0.66511 0.0
N1734 N 0.2577 0.80525 0.64465 0.0
N1735 N 0.25012 0.83322 0.6714 0.0
C1736 C 0.2631 0.83819 0.65655 0.0
C1737 C 0.26728 0.82303 0.64208 0.0
C1738 C 0.42693 0.00954 0.89385 0.0
C1739 C 0.42423 0.02392 0.87867 0.0
C1740 C 0.41184 0.00559 0.90786 0.0
C1741 C 0.39351 0.01586 0.90718 0.0
H1742 H 0.44093 0.00143 0.89513 0.0
H1743 H 0.41471 0.99478 0.9196 0.0
S1744 S 0.37809 0.05338 0.8691 0.0
N1745 N 0.4013 0.0475 0.86298 0.0
N1746 N 0.37287 0.03988 0.88914 0.0
C1747 C 0.39038 0.02986 0.89172 0.0
C1748 C 0.40577 0.03395 0.87752 0.0
C1749 C 0.21316 0.13931 0.13649 0.0
C1750 C 0.22759 0.14174 0.15168 0.0
C1751 C 0.20843 0.15501 0.12341 0.0
C1752 C 0.21802 0.17369 0.125 0.0
H1753 H 0.20554 0.12512 0.13465 0.0
H1754 H 0.19735 0.15238 0.11184 0.0
S1755 S 0.256 0.1881 0.16301 0.0
N1756 N 0.25072 0.1645 0.16815 0.0
N1757 N 0.24214 0.19395 0.14339 0.0
C1758 C 0.23244 0.17634 0.14016 0.0
C1759 C 0.23717 0.16037 0.15353 0.0
C1760 C 0.10828 0.08084 0.03747 0.0
C1761 C 0.12067 0.07424 0.02181 0.0
C1762 C 0.09367 0.09553 0.03418 0.0
C1763 C 0.09106 0.1043 0.01516 0.0
H1764 H 0.10965 0.07438 0.0523 0.0
H1765 H 0.08417 0.09984 0.04658 0.0
S1766 S 0.121 0.09356 0.96966 0.0
N1767 N 0.13011 0.07828 0.98683 0.0
N1768 N 0.10293 0.10621 0.98083 0.0
C1769 C 0.10361 0.0981 0.99948 0.0
C1770 C 0.11837 0.08301 0.00277 0.0
C1771 C 0.60757 0.42714 0.98813 0.0
C1772 C 0.62289 0.42485 0.97383 0.0
C1773 C 0.59464 0.4113 0.99284 0.0
C1774 C 0.59666 0.39256 0.98351 0.0
H1775 H 0.60531 0.44138 0.99558 0.0
H1776 H 0.58267 0.41388 0.00346 0.0
S1777 S 0.63563 0.37808 0.94658 0.0
N1778 N 0.63999 0.40199 0.95116 0.0
N1779 N 0.61618 0.37204 0.96059 0.0
C1780 C 0.61232 0.38985 0.96967 0.0
C1781 C 0.6253 0.40605 0.96466 0.0
C1782 C 0.82382 0.3596 0.23735 0.0
C1783 C 0.82665 0.37592 0.22432 0.0
C1784 C 0.83964 0.34667 0.24212 0.0
C1785 C 0.85886 0.34972 0.23414 0.0
H1786 H 0.80917 0.35652 0.24359 0.0
H1787 H 0.83668 0.33385 0.2516 0.0
S1788 S 0.87478 0.39189 0.20158 0.0
N1789 N 0.85054 0.39544 0.2049 0.0
N1790 N 0.88036 0.37139 0.21425 0.0
C1791 C 0.8621 0.36649 0.22179 0.0
C1792 C 0.84597 0.37953 0.21677 0.0
C1793 C 0.89631 0.57328 0.48512 0.0
C1794 C 0.88186 0.57483 0.46984 0.0
C1795 C 0.91049 0.5884 0.48825 0.0
C1796 C 0.91077 0.60569 0.47626 0.0
H1797 H 0.89671 0.56029 0.49482 0.0
H1798 H 0.92145 0.58646 0.50004 0.0
S1799 S 0.87582 0.61735 0.43454 0.0
N1800 N 0.86867 0.5951 0.44257 0.0
N1801 N 0.89485 0.6238 0.44889 0.0
C1802 C 0.89634 0.60749 0.46096 0.0
C1803 C 0.88201 0.592 0.45764 0.0
C1804 C 0.15878 0.15906 0.23142 0.0
C1805 C 0.13924 0.15137 0.23209 0.0
C1806 C 0.17486 0.14701 0.22531 0.0
C1807 C 0.17172 0.12712 0.21905 0.0
H1808 H 0.16157 0.17445 0.23575 0.0
H1809 H 0.18981 0.15333 0.22531 0.0
S1810 S 0.12317 0.10017 0.21771 0.0
N1811 N 0.11751 0.12284 0.22584 0.0
N1812 N 0.14762 0.10028 0.21398 0.0
C1813 C 0.15217 0.11939 0.21936 0.0
C1814 C 0.13592 0.1315 0.22598 0.0
C1815 C 0.3949 0.88988 0.52712 0.0
C1816 C 0.41057 0.89296 0.51336 0.0
C1817 C 0.3806 0.90476 0.53084 0.0
C1818 C 0.38135 0.92328 0.52084 0.0
H1819 H 0.39363 0.8758 0.53507 0.0
H1820 H 0.3688 0.90165 0.54153 0.0
S1821 S 0.4198 0.93906 0.48386 0.0
N1822 N 0.42633 0.91604 0.49012 0.0
N1823 N 0.3993 0.94398 0.49676 0.0
C1824 C 0.39688 0.92651 0.50692 0.0
C1825 C 0.4115 0.91135 0.50323 0.0
C1826 C 0.84341 0.62585 0.2879 0.0
C1827 C 0.82528 0.62725 0.27727 0.0
C1828 C 0.85941 0.63877 0.28373 0.0
C1829 C 0.85788 0.65359 0.26881 0.0
H1830 H 0.84535 0.61457 0.29941 0.0
H1831 H 0.87315 0.63709 0.29218 0.0
S1832 S 0.81325 0.66429 0.23754 0.0
N1833 N 0.80652 0.64508 0.25157 0.0
N1834 N 0.83653 0.66949 0.24402 0.0
C1835 C 0.83982 0.65523 0.25815 0.0
C1836 C 0.82353 0.64205 0.26234 0.0
C1837 C 0.63996 0.35797 0.78054 0.0
C1838 C 0.64296 0.34245 0.76657 0.0
C1839 C 0.65491 0.37215 0.78445 0.0
C1840 C 0.6734 0.37141 0.77444 0.0
H1841 H 0.62588 0.35922 0.78848 0.0
H1842 H 0.65185 0.38387 0.79525 0.0
S1843 S 0.68908 0.33325 0.73711 0.0
N1844 N 0.66602 0.32678 0.74324 0.0
N1845 N 0.69408 0.3536 0.75024 0.0
C1846 C 0.67659 0.356 0.76038 0.0
C1847 C 0.66137 0.3415 0.75649 0.0
C1848 C 0.50625 0.59314 0.59281 0.0
C1849 C 0.5163 0.59543 0.61115 0.0
C1850 C 0.50977 0.60629 0.57689 0.0
C1851 C 0.52351 0.62216 0.57873 0.0
H1852 H 0.49598 0.58079 0.5906 0.0
H1853 H 0.50188 0.60378 0.56293 0.0
S1854 S 0.55193 0.63594 0.62449 0.0
N1855 N 0.53925 0.61569 0.63089 0.0
N1856 N 0.54615 0.6403 0.60084 0.0
C1857 C 0.5333 0.62492 0.59718 0.0
C1858 C 0.52962 0.61158 0.61343 0.0
C1859 C 0.64424 0.26335 0.82458 0.0
C1860 C 0.62828 0.27696 0.82678 0.0
C1861 C 0.65779 0.25989 0.84021 0.0
C1862 C 0.65584 0.26982 0.85866 0.0
H1863 H 0.64644 0.25545 0.81058 0.0
H1864 H 0.67013 0.24967 0.83771 0.0
S1865 S 0.61555 0.30539 0.87284 0.0
N1866 N 0.61074 0.29965 0.84926 0.0
N1867 N 0.63586 0.29264 0.87882 0.0
C1868 C 0.63967 0.28307 0.86126 0.0
C1869 C 0.62599 0.28678 0.84528 0.0
C1870 C 0.96436 0.37738 0.09089 0.0
C1871 C 0.97455 0.37915 0.07255 0.0
C1872 C 0.96825 0.39057 0.10673 0.0
C1873 C 0.98241 0.40606 0.10481 0.0
H1874 H 0.95344 0.36557 0.09315 0.0
H1875 H 0.96015 0.3886 0.12064 0.0
S1876 S 0.0122 0.41793 0.05946 0.0
N1877 N 0.99898 0.398 0.05314 0.0
N1878 N 0.00597 0.42299 0.08285 0.0
C1879 C 0.99261 0.40809 0.08652 0.0
C1880 C 0.98873 0.3946 0.0704 0.0
C1881 C 0.8439 0.73838 0.34033 0.0
C1882 C 0.84634 0.7297 0.35931 0.0
C1883 C 0.85698 0.73376 0.32461 0.0
C1884 C 0.87295 0.72026 0.32733 0.0
H1885 H 0.83155 0.7485 0.33751 0.0
H1886 H 0.85443 0.74072 0.31018 0.0
S1887 S 0.88689 0.69502 0.37486 0.0
N1888 N 0.86666 0.7081 0.38044 0.0
N1889 N 0.89116 0.69918 0.35086 0.0
C1890 C 0.87576 0.71173 0.34638 0.0
C1891 C 0.86248 0.71652 0.36239 0.0
C1892 C 0.53176 0.38969 0.89296 0.0
C1893 C 0.51783 0.40531 0.89538 0.0
C1894 C 0.53665 0.37694 0.90887 0.0
C1895 C 0.52774 0.37933 0.9278 0.0
H1896 H 0.53879 0.38717 0.87856 0.0
H1897 H 0.54723 0.36494 0.90618 0.0
S1898 S 0.49156 0.41899 0.94233 0.0
N1899 N 0.49612 0.42323 0.91841 0.0
N1900 N 0.50502 0.39913 0.94833 0.0
C1901 C 0.51398 0.39508 0.9305 0.0
C1902 C 0.50906 0.40808 0.91429 0.0
C1903 C 0.85686 0.26985 0.17743 0.0
C1904 C 0.87239 0.28389 0.17495 0.0
C1905 C 0.84339 0.26569 0.16191 0.0
C1906 C 0.84492 0.2754 0.14333 0.0
H1907 H 0.85499 0.262 0.19151 0.0
H1908 H 0.8315 0.25499 0.16457 0.0
S1909 S 0.88383 0.31233 0.12859 0.0
N1910 N 0.88907 0.30691 0.15215 0.0
N1911 N 0.86383 0.29893 0.1229 0.0
C1912 C 0.86052 0.28933 0.14053 0.0
C1913 C 0.87423 0.29362 0.15637 0.0
C1914 C 0.99183 0.61076 0.42171 0.0
C1915 C 0.97751 0.62602 0.41912 0.0
C1916 C 0.99513 0.59633 0.40686 0.0
C1917 C 0.98431 0.59668 0.38883 0.0
H1918 H 0.00028 0.60963 0.43551 0.0
H1919 H 0.0058 0.58448 0.40974 0.0
S1920 S 0.94684 0.63491 0.37364 0.0
N1921 N 0.9534 0.64144 0.39658 0.0
N1922 N 0.96007 0.61469 0.36839 0.0
C1923 C 0.97051 0.61234 0.3857 0.0
C1924 C 0.96699 0.62691 0.40092 0.0
C1925 C 0.63309 0.70988 0.66414 0.0
C1926 C 0.62041 0.72553 0.67007 0.0
C1927 C 0.6486 0.71316 0.65047 0.0
C1928 C 0.65175 0.73214 0.64181 0.0
H1929 H 0.63123 0.69506 0.67037 0.0
H1930 H 0.6583 0.7007 0.64678 0.0
S1931 S 0.62089 0.77753 0.65045 0.0
N1932 N 0.61104 0.76042 0.66533 0.0
N1933 N 0.63972 0.76639 0.63893 0.0
C1934 C 0.63873 0.7478 0.64713 0.0
C1935 C 0.62313 0.74453 0.66136 0.0
C1936 C 0.57349 0.5121 0.60909 0.0
C1937 C 0.57585 0.52656 0.62426 0.0
C1938 C 0.58918 0.50741 0.59602 0.0
C1939 C 0.60784 0.51696 0.59767 0.0
H1940 H 0.55931 0.50446 0.60711 0.0
H1941 H 0.58653 0.49664 0.58419 0.0
S1942 S 0.62244 0.55453 0.63604 0.0
N1943 N 0.5987 0.5496 0.6409 0.0
N1944 N 0.62835 0.54043 0.6166 0.0
C1945 C 0.61063 0.53104 0.61315 0.0
C1946 C 0.59459 0.53595 0.62636 0.0
C1947 C 0.70892 0.33453 0.86171 0.0
C1948 C 0.72465 0.32922 0.8746 0.0
C1949 C 0.71193 0.34831 0.8462 0.0
C1950 C 0.73072 0.35742 0.84317 0.0
H1951 H 0.69427 0.32772 0.86337 0.0
H1952 H 0.69949 0.3517 0.83636 0.0
S1953 S 0.77618 0.35001 0.87423 0.0
N1954 N 0.75937 0.3348 0.88411 0.0
N1955 N 0.76485 0.36115 0.85529 0.0
C1956 C 0.74645 0.35252 0.85626 0.0
C1957 C 0.74344 0.33833 0.87192 0.0
C1958 C 0.90845 0.48166 0.08392 0.0
C1959 C 0.88886 0.48034 0.09138 0.0
C1960 C 0.92492 0.4769 0.09607 0.0
C1961 C 0.92221 0.47009 0.11583 0.0
H1962 H 0.91098 0.48667 0.0687 0.0
H1963 H 0.93985 0.47852 0.08994 0.0
S1964 S 0.87369 0.46337 0.14204 0.0
N1965 N 0.86752 0.47134 0.11945 0.0
N1966 N 0.89839 0.46211 0.14223 0.0
C1967 C 0.90262 0.46827 0.12328 0.0
C1968 C 0.88593 0.47347 0.11106 0.0
C1969 C 0.78039 0.64331 0.36054 0.0
C1970 C 0.76748 0.6468 0.34423 0.0
C1971 C 0.78493 0.6585 0.37429 0.0
C1972 C 0.77672 0.67779 0.37225 0.0
H1973 H 0.78699 0.62866 0.36273 0.0
H1974 H 0.79484 0.65503 0.38666 0.0
S1975 S 0.7427 0.69479 0.33158 0.0
N1976 N 0.74703 0.671 0.32645 0.0
N1977 N 0.7553 0.69962 0.3523 0.0
C1978 C 0.76374 0.68146 0.35598 0.0
C1979 C 0.75915 0.66595 0.342 0.0
C1980 C 0.59926 0.49521 0.89159 0.0
C1981 C 0.60476 0.48027 0.90536 0.0
C1982 C 0.58454 0.49164 0.87709 0.0
C1983 C 0.57494 0.47295 0.87573 0.0
H1984 H 0.60661 0.50966 0.89182 0.0
H1985 H 0.58087 0.50354 0.86668 0.0
S1986 S 0.58243 0.42946 0.90944 0.0
N1987 N 0.59827 0.44657 0.91772 0.0
N1988 N 0.57108 0.43969 0.89 0.0
C1989 C 0.58009 0.45793 0.88952 0.0
C1990 C 0.59489 0.46164 0.90447 0.0
C1991 C 0.78185 0.36148 0.13955 0.0
C1992 C 0.76762 0.35865 0.15484 0.0
C1993 C 0.78573 0.34651 0.1254 0.0
C1994 C 0.77542 0.32816 0.12594 0.0
H1995 H 0.79003 0.37545 0.13845 0.0
H1996 H 0.79679 0.34941 0.11389 0.0
S1997 S 0.73724 0.31301 0.16349 0.0
N1998 N 0.74366 0.33597 0.17009 0.0
N1999 N 0.75061 0.30783 0.14335 0.0
C2000 C 0.76107 0.32515 0.14113 0.0
C2001 C 0.75722 0.34041 0.15559 0.0
C2002 C 0.91083 0.50908 0.40721 0.0
C2003 C 0.8917 0.51732 0.40431 0.0
C2004 C 0.92662 0.5136 0.39414 0.0
C2005 C 0.92387 0.52659 0.37775 0.0
H2006 H 0.91374 0.49952 0.41998 0.0
H2007 H 0.94117 0.50705 0.39708 0.0
S2008 S 0.87598 0.5502 0.36233 0.0
N2009 N 0.8704 0.53767 0.38291 0.0
N2010 N 0.90013 0.54646 0.35853 0.0
C2011 C 0.90467 0.53454 0.37441 0.0
C2012 C 0.88857 0.52981 0.38762 0.0
C2013 C 0.711 0.65609 0.62593 0.0
C2014 C 0.72125 0.67446 0.62692 0.0
C2015 C 0.7153 0.64059 0.63939 0.0
C2016 C 0.72991 0.64291 0.65443 0.0
H2017 H 0.69973 0.65354 0.61453 0.0
H2018 H 0.7072 0.62662 0.63792 0.0
S2019 S 0.7599 0.6886 0.66436 0.0
N2020 N 0.74614 0.69438 0.64465 0.0
N2021 N 0.75385 0.66535 0.67017 0.0
C2022 C 0.7401 0.66127 0.65573 0.0
C2023 C 0.73583 0.67703 0.64195 0.0
C2024 C 0.61882 0.59006 0.53784 0.0
C2025 C 0.61788 0.57146 0.52799 0.0
C2026 C 0.60476 0.6051 0.53388 0.0
C2027 C 0.5892 0.60209 0.51997 0.0
H2028 H 0.6307 0.59318 0.54847 0.0
H2029 H 0.60624 0.6193 0.54157 0.0
S2030 S 0.57913 0.5556 0.49133 0.0
N2031 N 0.59954 0.55057 0.50434 0.0
N2032 N 0.573 0.57883 0.49718 0.0
C2033 C 0.58789 0.5835 0.51025 0.0
C2034 C 0.60223 0.56818 0.51422 0.0
C2035 C 0.09838 0.92855 0.48219 0.0
C2036 C 0.11538 0.92589 0.47 0.0
C2037 C 0.08494 0.91282 0.48568 0.0
C2038 C 0.08798 0.89388 0.47709 0.0
H2039 H 0.09539 0.9429 0.48914 0.0
H2040 H 0.07192 0.91554 0.49496 0.0
S2041 S 0.13092 0.87858 0.44522 0.0
N2042 N 0.13493 0.90252 0.44995 0.0
N2043 N 0.10979 0.87294 0.45676 0.0
C2044 C 0.10502 0.89092 0.46503 0.0
C2045 C 0.11867 0.90693 0.4614 0.0
C2046 C 0.34125 0.84888 0.74356 0.0
C2047 C 0.35918 0.84875 0.73259 0.0
C2048 C 0.3262 0.86288 0.73944 0.0
C2049 C 0.32853 0.8772 0.72414 0.0
H2050 H 0.33858 0.8377 0.755 0.0
H2051 H 0.31248 0.86217 0.74806 0.0
S2052 S 0.37365 0.88454 0.69253 0.0
N2053 N 0.37922 0.86533 0.70705 0.0
N2054 N 0.35073 0.89126 0.69888 0.0
C2055 C 0.34665 0.87762 0.71345 0.0
C2056 C 0.36204 0.8635 0.71779 0.0
C2057 C 0.39516 0.07272 0.98911 0.0
C2058 C 0.37911 0.07484 0.9756 0.0
C2059 C 0.40821 0.08865 0.99306 0.0
C2060 C 0.40565 0.10731 0.98371 0.0
H2061 H 0.39785 0.05854 0.99653 0.0
H2062 H 0.42069 0.08621 0.00313 0.0
S2063 S 0.36472 0.1214 0.94883 0.0
N2064 N 0.36063 0.09752 0.95384 0.0
N2065 N 0.38498 0.12758 0.9616 0.0
C2066 C 0.38934 0.10985 0.9706 0.0
C2067 C 0.37613 0.09358 0.96645 0.0
C2068 C 0.66323 0.6312 0.74097 0.0
C2069 C 0.67087 0.62731 0.72172 0.0
C2070 C 0.64873 0.64602 0.74407 0.0
C2071 C 0.64145 0.65759 0.72807 0.0
H2072 H 0.6683 0.62257 0.75374 0.0
H2073 H 0.64295 0.64822 0.75906 0.0
S2074 S 0.65822 0.65458 0.67506 0.0
N2075 N 0.67093 0.63681 0.6866 0.0
N2076 N 0.64419 0.6651 0.69248 0.0
C2077 C 0.64935 0.65412 0.7088 0.0
C2078 C 0.66392 0.63886 0.70561 0.0
C2079 C 0.90428 0.4094 0.00342 0.0
C2080 C 0.90406 0.39151 0.01447 0.0
C2081 C 0.89025 0.42455 0.00715 0.0
C2082 C 0.87557 0.42238 0.02213 0.0
H2083 H 0.91568 0.41189 0.99217 0.0
H2084 H 0.89114 0.4382 0.99843 0.0
S2085 S 0.86726 0.37745 0.05378 0.0
N2086 N 0.8868 0.37172 0.03978 0.0
N2087 N 0.86085 0.40038 0.04717 0.0
C2088 C 0.87487 0.40434 0.03295 0.0
C2089 C 0.889 0.38885 0.02901 0.0
C2090 C 0.35097 0.13967 0.7569 0.0
C2091 C 0.35596 0.15362 0.77185 0.0
C2092 C 0.33685 0.12458 0.76047 0.0
C2093 C 0.32739 0.12279 0.7792 0.0
H2094 H 0.35826 0.14023 0.74243 0.0
H2095 H 0.33352 0.11409 0.74854 0.0
S2096 S 0.33363 0.15672 0.82273 0.0
N2097 N 0.34906 0.16566 0.8056 0.0
N2098 N 0.32305 0.13684 0.81249 0.0
C2099 C 0.33203 0.13675 0.79422 0.0
C2100 C 0.34618 0.1523 0.7905 0.0
C2101 C 0.16439 0.86541 0.29259 0.0
C2102 C 0.16943 0.87934 0.27768 0.0
C2103 C 0.15074 0.84996 0.28869 0.0
C2104 C 0.14142 0.84808 0.26984 0.0
H2105 H 0.1714 0.8661 0.30721 0.0
H2106 H 0.1477 0.83923 0.30045 0.0
S2107 S 0.14759 0.88251 0.22668 0.0
N2108 N 0.16304 0.89129 0.24388 0.0
N2109 N 0.13684 0.86266 0.23679 0.0
C2110 C 0.14582 0.86238 0.25505 0.0
C2111 C 0.15992 0.87794 0.25894 0.0
C2112 C 0.13804 0.03387 0.19251 0.0
C2113 C 0.14411 0.03622 0.21258 0.0
C2114 C 0.11853 0.02812 0.18764 0.0
C2115 C 0.10432 0.02416 0.2026 0.0
H2116 H 0.14832 0.03699 0.18038 0.0
H2117 H 0.11431 0.02725 0.17199 0.0
S2118 S 0.11268 0.02639 0.2574 0.0
N2119 N 0.13442 0.03302 0.2476 0.0
N2120 N 0.09772 0.02167 0.23825 0.0
C2121 C 0.11036 0.02521 0.22272 0.0
C2122 C 0.13028 0.03135 0.22776 0.0
C2123 C 0.21731 0.86139 0.47381 0.0
C2124 C 0.21351 0.85406 0.45445 0.0
C2125 C 0.21202 0.88107 0.47917 0.0
C2126 C 0.20281 0.8941 0.46533 0.0
H2127 H 0.22371 0.85161 0.48506 0.0
H2128 H 0.21479 0.88602 0.49436 0.0
S2129 S 0.19124 0.88228 0.41209 0.0
N2130 N 0.20187 0.8618 0.42086 0.0
N2131 N 0.19059 0.89799 0.4311 0.0
C2132 C 0.19957 0.887 0.44568 0.0
C2133 C 0.20526 0.86718 0.44021 0.0
C2134 C 0.36083 0.98016 0.71134 0.0
C2135 C 0.35492 0.96143 0.7188 0.0
C2136 C 0.38106 0.98411 0.70706 0.0
C2137 C 0.39582 0.96934 0.71005 0.0
H2138 H 0.34964 0.99136 0.70784 0.0
H2139 H 0.38501 0.99831 0.7003 0.0
S2140 S 0.38797 0.9191 0.73232 0.0
N2141 N 0.36528 0.92888 0.73101 0.0
N2142 N 0.40332 0.93627 0.72326 0.0
C2143 C 0.3901 0.95107 0.71878 0.0
C2144 C 0.36961 0.9471 0.72306 0.0
C2145 C 0.30673 0.11343 0.95368 0.0
C2146 C 0.29704 0.10356 0.96959 0.0
C2147 C 0.3022 0.13316 0.9487 0.0
C2148 C 0.28791 0.14419 0.9595 0.0
H2149 H 0.31817 0.10601 0.94495 0.0
H2150 H 0.30989 0.1397 0.93603 0.0
S2151 S 0.2588 0.12592 0.00311 0.0
N2152 N 0.27256 0.10648 0.99641 0.0
N2153 N 0.26447 0.14413 0.98734 0.0
C2154 C 0.2782 0.13475 0.97565 0.0
C2155 C 0.28275 0.11439 0.98069 0.0
C2156 C 0.11025 0.97204 0.2775 0.0
C2157 C 0.10378 0.97416 0.2974 0.0
C2158 C 0.1304 0.96776 0.27316 0.0
C2159 C 0.14459 0.96561 0.28864 0.0
H2160 H 0.09948 0.97258 0.26538 0.0
H2161 H 0.13465 0.96504 0.25776 0.0
S2162 S 0.13547 0.97366 0.34292 0.0
N2163 N 0.11325 0.97634 0.33239 0.0
N2164 N 0.15114 0.96896 0.32437 0.0
C2165 C 0.13844 0.96934 0.30846 0.0
C2166 C 0.11801 0.97343 0.31281 0.0
C2167 C 0.27055 0.87153 0.54544 0.0
C2168 C 0.28065 0.85505 0.5371 0.0
C2169 C 0.27581 0.89117 0.54009 0.0
C2170 C 0.29097 0.89479 0.52597 0.0
H2171 H 0.25949 0.86924 0.55708 0.0
H2172 H 0.26865 0.90364 0.54759 0.0
S2173 S 0.32066 0.85682 0.49877 0.0
N2174 N 0.30564 0.84359 0.51335 0.0
N2175 N 0.31518 0.88058 0.50302 0.0
C2176 C 0.30033 0.87847 0.51674 0.0
C2177 C 0.29524 0.85854 0.52239 0.0
C2178 C 0.36855 0.05627 0.78668 0.0
C2179 C 0.35479 0.04081 0.78295 0.0
C2180 C 0.38868 0.05212 0.79048 0.0
C2181 C 0.39588 0.03231 0.79103 0.0
H2182 H 0.36355 0.0717 0.78707 0.0
H2183 H 0.39861 0.06458 0.79352 0.0
S2184 S 0.36591 0.98654 0.78076 0.0
N2185 N 0.34971 0.00511 0.77858 0.0
N2186 N 0.38763 0.99706 0.78629 0.0
C2187 C 0.38242 0.01671 0.78632 0.0
C2188 C 0.36184 0.02104 0.78217 0.0
C2189 C 0.20972 0.13064 0.05581 0.0
C2190 C 0.21112 0.14505 0.0406 0.0
C2191 C 0.20614 0.11053 0.05127 0.0
C2192 C 0.20355 0.10412 0.03134 0.0
H2193 H 0.21106 0.13508 0.07136 0.0
H2194 H 0.20496 0.09995 0.0635 0.0
S2195 S 0.20593 0.13639 0.98613 0.0
N2196 N 0.21017 0.15188 0.00497 0.0
N2197 N 0.20288 0.11399 0.99623 0.0
C2198 C 0.20547 0.11839 0.01592 0.0
C2199 C 0.20936 0.13891 0.02062 0.0
C2200 C 0.05324 0.21224 0.12947 0.0
C2201 C 0.03863 0.2127 0.14453 0.0
C2202 C 0.04817 0.20756 0.1097 0.0
C2203 C 0.02832 0.20287 0.10432 0.0
H2204 H 0.06879 0.21508 0.13316 0.0
H2205 H 0.05998 0.20708 0.0986 0.0
S2206 S 0.98457 0.2021 0.13853 0.0
N2207 N 0.00357 0.2086 0.15301 0.0
N2208 N 0.99392 0.19931 0.11579 0.0
C2209 C 0.01344 0.20389 0.1192 0.0
C2210 C 0.01864 0.20888 0.13936 0.0
C2211 C 0.55221 0.30063 0.88722 0.0
C2212 C 0.53483 0.29335 0.89665 0.0
C2213 C 0.55687 0.29554 0.86756 0.0
C2214 C 0.54429 0.28315 0.8561 0.0
H2215 H 0.56223 0.31084 0.89483 0.0
H2216 H 0.57051 0.30154 0.86128 0.0
S2217 S 0.4969 0.25998 0.87345 0.0
N2218 N 0.50509 0.27258 0.89311 0.0
N2219 N 0.51357 0.26362 0.85552 0.0
C2220 C 0.52689 0.27555 0.86522 0.0
C2221 C 0.52218 0.2806 0.88556 0.0
C2222 C 0.95343 0.30929 0.11561 0.0
C2223 C 0.96772 0.29804 0.10494 0.0
C2224 C 0.94839 0.30471 0.1353 0.0
C2225 C 0.95779 0.28901 0.14572 0.0
H2226 H 0.94589 0.3219 0.10879 0.0
H2227 H 0.93667 0.31351 0.14221 0.0
S2228 S 0.99746 0.25581 0.12545 0.0
N2229 N 0.99168 0.27064 0.10653 0.0
N2230 N 0.98304 0.2628 0.14429 0.0
C2231 C 0.9726 0.27793 0.13559 0.0
C2232 C 0.97748 0.28235 0.11514 0.0
C2233 C 0.9574 0.73369 0.36946 0.0
C2234 C 0.9611 0.71935 0.35444 0.0
C2235 C 0.96259 0.72992 0.38951 0.0
C2236 C 0.97183 0.71186 0.39497 0.0
H2237 H 0.94944 0.74735 0.36587 0.0
H2238 H 0.95854 0.74069 0.40094 0.0
S2239 S 0.98698 0.6707 0.36114 0.0
N2240 N 0.97624 0.68728 0.34623 0.0
N2241 N 0.98588 0.68029 0.38393 0.0
C2242 C 0.9766 0.69796 0.38001 0.0
C2243 C 0.97128 0.7017 0.35971 0.0
C2244 C 0.47636 0.78043 0.61567 0.0
C2245 C 0.46484 0.79363 0.60389 0.0
C2246 C 0.4704 0.77524 0.63525 0.0
C2247 C 0.4528 0.7832 0.64371 0.0
H2248 H 0.49011 0.77423 0.60973 0.0
H2249 H 0.47985 0.7654 0.64402 0.0
S2250 S 0.41719 0.81809 0.61905 0.0
N2251 N 0.43523 0.81483 0.60254 0.0
N2252 N 0.42339 0.80396 0.63828 0.0
C2253 C 0.44096 0.79596 0.63184 0.0
C2254 C 0.44714 0.80148 0.61222 0.0
C2255 C 0.60949 0.5363 0.72634 0.0
C2256 C 0.60478 0.52709 0.70804 0.0
C2257 C 0.62932 0.54165 0.7309 0.0
C2258 C 0.64485 0.53826 0.71708 0.0
H2259 H 0.59764 0.54009 0.73675 0.0
H2260 H 0.63235 0.54949 0.74477 0.0
S2261 S 0.64016 0.513 0.66785 0.0
N2262 N 0.61705 0.51357 0.6767 0.0
N2263 N 0.65434 0.52374 0.68508 0.0
C2264 C 0.64033 0.52825 0.69912 0.0
C2265 C 0.62025 0.52264 0.69463 0.0
C2266 C 0.69166 0.38327 0.96819 0.0
C2267 C 0.70678 0.3976 0.97096 0.0
C2268 C 0.69629 0.36339 0.96365 0.0
C2269 C 0.71626 0.35703 0.96147 0.0
H2270 H 0.67609 0.38768 0.96906 0.0
H2271 H 0.68405 0.35301 0.96129 0.0
S2272 S 0.76144 0.38867 0.96884 0.0
N2273 N 0.74247 0.40408 0.97272 0.0
N2274 N 0.7514 0.36662 0.96375 0.0
C2275 C 0.73162 0.37102 0.96531 0.0
C2276 C 0.72681 0.39135 0.97014 0.0
C2277 C 0.8574 0.47783 0.2017 0.0
C2278 C 0.85374 0.46248 0.2156 0.0
C2279 C 0.87703 0.48295 0.19622 0.0
C2280 C 0.8935 0.47246 0.2041 0.0
H2281 H 0.84495 0.48547 0.19465 0.0
H2282 H 0.87932 0.49439 0.18495 0.0
S2283 S 0.8917 0.43128 0.24122 0.0
N2284 N 0.86798 0.43727 0.23752 0.0
N2285 N 0.90491 0.44653 0.22688 0.0
C2286 C 0.88999 0.45741 0.21835 0.0
C2287 C 0.87007 0.45249 0.22419 0.0
C2288 C 0.78186 0.6173 0.47864 0.0
C2289 C 0.79773 0.60851 0.46774 0.0
C2290 C 0.77518 0.63688 0.47445 0.0
C2291 C 0.78414 0.64828 0.45923 0.0
H2292 H 0.77434 0.60889 0.49027 0.0
H2293 H 0.76299 0.64317 0.48311 0.0
S2294 S 0.82551 0.63264 0.42574 0.0
N2295 N 0.82248 0.61367 0.44125 0.0
N2296 N 0.80856 0.64924 0.43241 0.0
C2297 C 0.79965 0.63964 0.44801 0.0
C2298 C 0.80682 0.6201 0.45253 0.0
C2299 C 0.63647 0.46109 0.80415 0.0
C2300 C 0.64314 0.46023 0.78417 0.0
C2301 C 0.61649 0.4652 0.80876 0.0
C2302 C 0.60238 0.46891 0.79363 0.0
H2303 H 0.64668 0.45806 0.81637 0.0
H2304 H 0.6119 0.46505 0.82432 0.0
S2305 S 0.61217 0.47026 0.73905 0.0
N2306 N 0.63408 0.46464 0.74909 0.0
N2307 N 0.59646 0.47286 0.75799 0.0
C2308 C 0.60895 0.46935 0.77366 0.0
C2309 C 0.62936 0.46492 0.76887 0.0
C2310 C 0.76843 0.3678 0.03338 0.0
C2311 C 0.78308 0.35265 0.03261 0.0
C2312 C 0.77311 0.38761 0.02793 0.0
C2313 C 0.7925 0.39269 0.02156 0.0
H2314 H 0.75375 0.3646 0.03945 0.0
H2315 H 0.76196 0.39923 0.02988 0.0
S2316 S 0.83486 0.35804 0.01333 0.0
N2317 N 0.81674 0.34366 0.02213 0.0
N2318 N 0.82554 0.38094 0.01244 0.0
C2319 C 0.80671 0.37748 0.0193 0.0
C2320 C 0.80198 0.35741 0.02467 0.0
C2321 C 0.86362 0.5543 0.29995 0.0
C2322 C 0.85227 0.54299 0.28629 0.0
C2323 C 0.88341 0.54947 0.30429 0.0
C2324 C 0.8931 0.5333 0.2949 0.0
H2325 H 0.85729 0.56724 0.30737 0.0
H2326 H 0.89101 0.55848 0.3154 0.0
S2327 S 0.87033 0.49907 0.25741 0.0
N2328 N 0.8521 0.51475 0.26326 0.0
N2329 N 0.88993 0.50608 0.27082 0.0
C2330 C 0.88209 0.52188 0.28095 0.0
C2331 C 0.86161 0.52671 0.27668 0.0
C2332 C 0.71319 0.63764 0.52327 0.0
C2333 C 0.71615 0.64389 0.54314 0.0
C2334 C 0.70869 0.61753 0.51887 0.0
C2335 C 0.70714 0.60319 0.53426 0.0
H2336 H 0.71332 0.64854 0.51126 0.0
H2337 H 0.70539 0.6134 0.50354 0.0
S2338 S 0.71722 0.6117 0.5883 0.0
N2339 N 0.7196 0.63403 0.57793 0.0
N2340 N 0.71174 0.59625 0.56976 0.0
C2341 C 0.71157 0.60913 0.554 0.0
C2342 C 0.71591 0.62951 0.55842 0.0
C2343 C 0.51964 0.71586 0.6367 0.0
C2344 C 0.53934 0.71903 0.64337 0.0
C2345 C 0.51571 0.71149 0.61646 0.0
C2346 C 0.53141 0.71027 0.6024 0.0
H2347 H 0.50743 0.71573 0.64737 0.0
H2348 H 0.50052 0.70801 0.61201 0.0
S2349 S 0.58507 0.72101 0.61217 0.0
N2350 N 0.57423 0.72305 0.6343 0.0
N2351 N 0.56695 0.71538 0.59628 0.0
C2352 C 0.55094 0.71491 0.6088 0.0
C2353 C 0.55488 0.71915 0.62931 0.0
C2354 C 0.03612 0.769 0.38729 0.0
C2355 C 0.02939 0.78792 0.39355 0.0
C2356 C 0.04076 0.7654 0.36706 0.0
C2357 C 0.03872 0.78066 0.35264 0.0
H2358 H 0.0389 0.75738 0.39826 0.0
H2359 H 0.04704 0.75105 0.36288 0.0
S2360 S 0.0182 0.83152 0.3612 0.0
N2361 N 0.01862 0.82115 0.38366 0.0
N2362 N 0.02695 0.81437 0.34566 0.0
C2363 C 0.03059 0.79911 0.35862 0.0
C2364 C 0.02602 0.80275 0.37909 0.0
C2365 C 0.47651 0.21369 0.86105 0.0
C2366 C 0.45672 0.21837 0.85567 0.0
C2367 C 0.48136 0.20868 0.88093 0.0
C2368 C 0.4665 0.20818 0.89589 0.0
H2369 H 0.48803 0.21305 0.84966 0.0
H2370 H 0.49656 0.20427 0.88442 0.0
S2371 S 0.41295 0.22165 0.88952 0.0
N2372 N 0.42263 0.22379 0.86685 0.0
N2373 N 0.43165 0.21481 0.9042 0.0
C2374 C 0.4469 0.21392 0.89075 0.0
C2375 C 0.44202 0.21888 0.87062 0.0
C2376 C 0.04902 0.13489 0.19232 0.0
C2377 C 0.06963 0.13714 0.18842 0.0
C2378 C 0.03896 0.11694 0.18811 0.0
C2379 C 0.04903 0.10036 0.17987 0.0
H2380 H 0.04047 0.14709 0.19868 0.0
H2381 H 0.02311 0.11609 0.19146 0.0
S2382 S 0.10282 0.0985 0.16585 0.0
N2383 N 0.09966 0.1212 0.17515 0.0
N2384 N 0.08072 0.08753 0.16732 0.0
C2385 C 0.0696 0.10237 0.17573 0.0
C2386 C 0.07988 0.12071 0.17995 0.0
C2387 C 0.1421 0.81068 0.44521 0.0
C2388 C 0.14017 0.79571 0.43051 0.0
C2389 C 0.12517 0.81957 0.45388 0.0
C2390 C 0.10569 0.81412 0.44793 0.0
H2391 H 0.15677 0.81512 0.45054 0.0
H2392 H 0.12741 0.83068 0.4655 0.0
S2393 S 0.09265 0.77695 0.40859 0.0
N2394 N 0.11737 0.77663 0.40948 0.0
N2395 N 0.08556 0.79355 0.4255 0.0
C2396 C 0.10359 0.79975 0.43262 0.0
C2397 C 0.12084 0.79047 0.42401 0.0
C2398 C 0.43826 0.89386 0.70146 0.0
C2399 C 0.45378 0.89297 0.68725 0.0
C2400 C 0.43038 0.87632 0.71001 0.0
C2401 C 0.43725 0.85725 0.70415 0.0
H2402 H 0.43267 0.90823 0.70652 0.0
H2403 H 0.41883 0.8777 0.72132 0.0
S2404 S 0.47688 0.84674 0.66673 0.0
N2405 N 0.47544 0.87143 0.66742 0.0
N2406 N 0.46003 0.83855 0.68285 0.0
C2407 C 0.45226 0.85615 0.68947 0.0
C2408 C 0.46068 0.87399 0.68119 0.0
C2409 C 0.36834 0.21363 0.9571 0.0
C2410 C 0.35974 0.20593 0.93952 0.0
C2411 C 0.38575 0.20517 0.96521 0.0
C2412 C 0.39552 0.18912 0.95568 0.0
H2413 H 0.36135 0.22606 0.96485 0.0
H2414 H 0.39175 0.21143 0.97894 0.0
S2415 S 0.37938 0.16412 0.90877 0.0
N2416 N 0.36219 0.18149 0.91268 0.0
N2417 N 0.39554 0.16613 0.92743 0.0
C2418 C 0.3873 0.18156 0.93782 0.0
C2419 C 0.36921 0.18981 0.92988 0.0
C2420 C 0.04035 0.87504 0.32099 0.0
C2421 C 0.04791 0.89415 0.31608 0.0
C2422 C 0.04888 0.85752 0.31306 0.0
C2423 C 0.06492 0.85853 0.29951 0.0
H2424 H 0.02754 0.8736 0.33083 0.0
H2425 H 0.04229 0.84318 0.31682 0.0
S2426 S 0.09119 0.90458 0.28286 0.0
N2427 N 0.07332 0.91281 0.29786 0.0
N2428 N 0.0889 0.87994 0.28245 0.0
C2429 C 0.07303 0.87743 0.29495 0.0
C2430 C 0.06466 0.89524 0.30339 0.0
C2431 C 0.39528 0.81903 0.56543 0.0
C2432 C 0.39591 0.81915 0.54438 0.0
C2433 C 0.37742 0.81556 0.57585 0.0
C2434 C 0.35927 0.81216 0.56568 0.0
H2435 H 0.40873 0.8217 0.57399 0.0
H2436 H 0.37794 0.81537 0.59207 0.0
S2437 S 0.3523 0.81227 0.51048 0.0
N2438 N 0.37649 0.81627 0.51363 0.0
N2439 N 0.34284 0.81026 0.53321 0.0
C2440 C 0.35952 0.8127 0.54459 0.0
C2441 C 0.37781 0.81609 0.53395 0.0
C2442 C 0.43889 0.1048 0.80087 0.0
C2443 C 0.45303 0.10587 0.81643 0.0
C2444 C 0.43084 0.12226 0.79236 0.0
C2445 C 0.43621 0.1414 0.79948 0.0
H2446 H 0.43458 0.0904 0.79472 0.0
H2447 H 0.42041 0.12076 0.78001 0.0
S2448 S 0.47126 0.15215 0.84127 0.0
N2449 N 0.47129 0.12747 0.83937 0.0
N2450 N 0.45569 0.16025 0.82382 0.0
C2451 C 0.44965 0.14261 0.81565 0.0
C2452 C 0.4582 0.12484 0.824 0.0
C2453 C 0.12737 0.18589 0.06916 0.0
C2454 C 0.13505 0.2042 0.06213 0.0
C2455 C 0.10999 0.17748 0.06069 0.0
C2456 C 0.10027 0.18681 0.04449 0.0
H2457 H 0.13465 0.1782 0.08146 0.0
H2458 H 0.10437 0.16343 0.06654 0.0
S2459 S 0.1147 0.23471 0.02042 0.0
N2460 N 0.13157 0.2314 0.03821 0.0
N2461 N 0.09953 0.21521 0.02178 0.0
C2462 C 0.10797 0.20497 0.03723 0.0
C2463 C 0.12523 0.21378 0.04619 0.0
C2464 C 0.20715 0.04071 0.13261 0.0
C2465 C 0.20052 0.05924 0.14 0.0
C2466 C 0.19904 0.0325 0.11507 0.0
C2467 C 0.18443 0.04282 0.10392 0.0
H2468 H 0.21864 0.03242 0.14054 0.0
H2469 H 0.20458 0.01812 0.11 0.0
S2470 S 0.1624 0.09218 0.11678 0.0
N2471 N 0.17847 0.08772 0.13508 0.0
N2472 N 0.16374 0.0727 0.10153 0.0
C2473 C 0.17781 0.06151 0.11105 0.0
C2474 C 0.1857 0.06961 0.12928 0.0
C2475 C 0.20398 0.96625 0.38754 0.0
C2476 C 0.18717 0.95724 0.3964 0.0
C2477 C 0.21201 0.95892 0.36961 0.0
C2478 C 0.20319 0.94266 0.35952 0.0
H2479 H 0.21117 0.97894 0.39467 0.0
H2480 H 0.22513 0.96624 0.36347 0.0
S2481 S 0.15848 0.91422 0.37613 0.0
N2482 N 0.16182 0.93124 0.3938 0.0
N2483 N 0.17648 0.9179 0.35954 0.0
C2484 C 0.18614 0.93368 0.36802 0.0
C2485 C 0.17827 0.94083 0.38664 0.0
C2486 C 0.32303 0.95658 0.62241 0.0
C2487 C 0.3171 0.94927 0.60352 0.0
C2488 C 0.31462 0.94907 0.64015 0.0
C2489 C 0.29962 0.93431 0.63959 0.0
H2490 H 0.3341 0.9684 0.62349 0.0
H2491 H 0.31936 0.95539 0.65433 0.0
S2492 S 0.27966 0.90929 0.59413 0.0
N2493 N 0.29607 0.92564 0.58547 0.0
N2494 N 0.28 0.91179 0.61874 0.0
C2495 C 0.29395 0.92647 0.62086 0.0
C2496 C 0.30278 0.93385 0.60284 0.0
C2497 C 0.30131 0.05872 0.89761 0.0
C2498 C 0.315 0.04279 0.89621 0.0
C2499 C 0.29277 0.06721 0.88039 0.0
C2500 C 0.29811 0.06052 0.86113 0.0
H2501 H 0.29661 0.06423 0.91212 0.0
H2502 H 0.28185 0.07908 0.88218 0.0
S2503 S 0.33402 0.01987 0.84924 0.0
N2504 N 0.33372 0.02081 0.87397 0.0
N2505 N 0.31841 0.03747 0.84162 0.0
C2506 C 0.31229 0.04507 0.85948 0.0
C2507 C 0.32052 0.036 0.87702 0.0
C2508 C 0.63457 0.31318 0.93165 0.0
C2509 C 0.64414 0.29647 0.9402 0.0
C2510 C 0.61654 0.32062 0.93969 0.0
C2511 C 0.60796 0.31195 0.95689 0.0
H2512 H 0.64084 0.32027 0.91847 0.0
H2513 H 0.60948 0.33343 0.93266 0.0
S2514 S 0.62749 0.26822 0.98502 0.0
N2515 N 0.64372 0.27151 0.96666 0.0
N2516 N 0.61042 0.28588 0.98215 0.0
C2517 C 0.61758 0.29543 0.96565 0.0
C2518 C 0.63554 0.28758 0.95721 0.0
C2519 C 0.95398 0.37267 0.21598 0.0
C2520 C 0.93871 0.36143 0.20683 0.0
C2521 C 0.96149 0.39006 0.20695 0.0
C2522 C 0.95355 0.39718 0.1888 0.0
H2523 H 0.96052 0.36772 0.22999 0.0
H2524 H 0.97355 0.39808 0.21429 0.0
S2525 S 0.91289 0.37373 0.15918 0.0
N2526 N 0.91574 0.35873 0.17866 0.0
N2527 N 0.92931 0.39202 0.16217 0.0
C2528 C 0.93792 0.38642 0.17974 0.0
C2529 C 0.93066 0.36836 0.18863 0.0
C2530 C 0.89539 0.70086 0.43922 0.0
C2531 C 0.89533 0.68484 0.45285 0.0
C2532 C 0.87738 0.70899 0.43199 0.0
C2533 C 0.85861 0.70106 0.43764 0.0
H2534 H 0.90941 0.70768 0.43472 0.0
H2535 H 0.87818 0.72178 0.42204 0.0
S2536 S 0.85062 0.65756 0.47136 0.0
N2537 N 0.87515 0.66051 0.47085 0.0
N2538 N 0.84147 0.67515 0.45659 0.0
C2539 C 0.8585 0.6843 0.45041 0.0
C2540 C 0.8768 0.67638 0.4582 0.0
C2541 C 0.93975 0.61505 0.31924 0.0
C2542 C 0.95675 0.60595 0.31074 0.0
C2543 C 0.93244 0.63339 0.31182 0.0
C2544 C 0.94155 0.64279 0.29529 0.0
H2545 H 0.93229 0.60813 0.33188 0.0
H2546 H 0.91935 0.64002 0.31875 0.0
S2547 S 0.98614 0.62481 0.26755 0.0
N2548 N 0.98245 0.60773 0.28504 0.0
N2549 N 0.96832 0.64165 0.27071 0.0
C2550 C 0.95838 0.63369 0.2866 0.0
C2551 C 0.96609 0.6154 0.29443 0.0
C2552 C 0.5402 0.37132 0.81882 0.0
C2553 C 0.54673 0.39067 0.81356 0.0
C2554 C 0.54891 0.35418 0.81032 0.0
C2555 C 0.56411 0.3558 0.79586 0.0
H2556 H 0.52817 0.36938 0.82953 0.0
H2557 H 0.54325 0.33959 0.81463 0.0
S2558 S 0.5873 0.40289 0.77759 0.0
N2559 N 0.57006 0.41036 0.79369 0.0
N2560 N 0.58602 0.37818 0.77729 0.0
C2561 C 0.57105 0.37502 0.79071 0.0
C2562 C 0.56249 0.39245 0.7997 0.0
C2563 C 0.53458 0.61572 0.70683 0.0
C2564 C 0.54434 0.60486 0.69164 0.0
C2565 C 0.54224 0.63399 0.71378 0.0
C2566 C 0.55957 0.64241 0.70535 0.0
H2567 H 0.52103 0.60992 0.71362 0.0
H2568 H 0.53442 0.6417 0.72573 0.0
S2569 S 0.59065 0.62023 0.66509 0.0
N2570 N 0.57244 0.6038 0.6685 0.0
N2571 N 0.58635 0.63868 0.68104 0.0
C2572 C 0.56937 0.63193 0.68998 0.0
C2573 C 0.56189 0.61298 0.68327 0.0
C2574 C 0.87422 0.32101 0.03912 0.0
C2575 C 0.89329 0.31464 0.04542 0.0
C2576 C 0.85673 0.31333 0.04789 0.0
C2577 C 0.85771 0.29853 0.06282 0.0
H2578 H 0.87279 0.33197 0.02725 0.0
H2579 H 0.84236 0.31845 0.04245 0.0
S2580 S 0.90396 0.27688 0.08475 0.0
N2581 N 0.91209 0.29303 0.06788 0.0
N2582 N 0.87927 0.27806 0.08385 0.0
C2583 C 0.87668 0.29213 0.06936 0.0
C2584 C 0.89447 0.30033 0.06081 0.0
C2585 C 0.60253 0.69912 0.55899 0.0
C2586 C 0.60412 0.68269 0.54595 0.0
C2587 C 0.61961 0.70795 0.56741 0.0
C2588 C 0.6389 0.70041 0.56344 0.0
H2589 H 0.58801 0.7056 0.56216 0.0
H2590 H 0.61769 0.72088 0.57702 0.0
S2591 S 0.65093 0.65675 0.53114 0.0
N2592 N 0.6263 0.65872 0.52991 0.0
N2593 N 0.65844 0.675 0.54606 0.0
C2594 C 0.64062 0.68356 0.55087 0.0
C2595 C 0.62322 0.67481 0.54201 0.0
C2596 C 0.70245 0.53427 0.6179 0.0
C2597 C 0.68778 0.54452 0.60677 0.0
C2598 C 0.71035 0.5424 0.63556 0.0
C2599 C 0.70343 0.56076 0.64307 0.0
H2600 H 0.70813 0.51996 0.61277 0.0
H2601 H 0.72181 0.53412 0.64353 0.0
S2602 S 0.66522 0.59359 0.61982 0.0
N2603 N 0.66686 0.57425 0.60442 0.0
N2604 N 0.68117 0.5891 0.63821 0.0
C2605 C 0.68862 0.57112 0.63231 0.0
C2606 C 0.68096 0.56312 0.61397 0.0
C2607 C 0.67981 0.45991 0.87314 0.0
C2608 C 0.68571 0.45318 0.89226 0.0
C2609 C 0.68736 0.45107 0.85561 0.0
C2610 C 0.70152 0.43553 0.85658 0.0
H2611 H 0.6693 0.47219 0.87169 0.0
H2612 H 0.68265 0.45693 0.84123 0.0
S2613 S 0.72111 0.41166 0.9028 0.0
N2614 N 0.70576 0.42924 0.911 0.0
N2615 N 0.72043 0.41306 0.8781 0.0
C2616 C 0.70725 0.42836 0.87555 0.0
C2617 C 0.6992 0.43705 0.89339 0.0
C2618 C 0.79927 0.44244 0.1045 0.0
C2619 C 0.8194 0.43673 0.10192 0.0
C2620 C 0.78941 0.43969 0.12284 0.0
C2621 C 0.79929 0.43126 0.13943 0.0
H2622 H 0.79103 0.44929 0.09232 0.0
H2623 H 0.77394 0.44442 0.12405 0.0
S2624 S 0.85157 0.41238 0.14038 0.0
N2625 N 0.84858 0.42121 0.11748 0.0
N2626 N 0.83006 0.41627 0.15189 0.0
C2627 C 0.81933 0.42521 0.13706 0.0
C2628 C 0.82936 0.42786 0.11833 0.0
C2629 C 0.80808 0.55098 0.35808 0.0
C2630 C 0.79422 0.56674 0.3599 0.0
C2631 C 0.81623 0.54172 0.37509 0.0
C2632 C 0.81115 0.54818 0.3945 0.0
H2633 H 0.8122 0.54535 0.34344 0.0
H2634 H 0.82659 0.5294 0.37303 0.0
S2635 S 0.77621 0.58948 0.40728 0.0
N2636 N 0.77621 0.58881 0.38255 0.0
N2637 N 0.7916 0.57152 0.41448 0.0
C2638 C 0.79767 0.56424 0.39648 0.0
C2639 C 0.78917 0.57347 0.37919 0.0
C2640 C 0.98692 0.00467 0.26793 0.0
C2641 C 0.98721 0.98363 0.26617 0.0
C2642 C 0.9869 0.017 0.251 0.0
C2643 C 0.98809 0.00888 0.23158 0.0
H2644 H 0.98847 0.01189 0.28236 0.0
H2645 H 0.9876 0.03304 0.2533 0.0
S2646 S 0.98322 0.95462 0.21901 0.0
N2647 N 0.98289 0.95536 0.24369 0.0
N2648 N 0.98565 0.9781 0.21176 0.0
C2649 C 0.98589 0.98785 0.22963 0.0
C2650 C 0.98484 0.97538 0.24696 0.0
C2651 C 0.25873 0.73089 0.50537 0.0
C2652 C 0.2619 0.74874 0.51604 0.0
C2653 C 0.24439 0.73008 0.48992 0.0
C2654 C 0.23272 0.747 0.48512 0.0
H2655 H 0.26767 0.71776 0.50864 0.0
H2656 H 0.2427 0.71636 0.48142 0.0
S2657 S 0.23611 0.7973 0.50866 0.0
N2658 N 0.25262 0.78354 0.52085 0.0
N2659 N 0.22589 0.78216 0.49201 0.0
C2660 C 0.23572 0.76478 0.49602 0.0
C2661 C 0.25027 0.76559 0.51147 0.0
C2662 C 0.51226 0.99359 0.76894 0.0
C2663 C 0.51171 0.01461 0.76683 0.0
C2664 C 0.51226 0.98093 0.75226 0.0
C2665 C 0.51059 0.98861 0.73269 0.0
H2666 H 0.51098 0.98654 0.78346 0.0
H2667 H 0.51192 0.96494 0.75492 0.0
S2668 S 0.51532 0.0426 0.719 0.0
N2669 N 0.5159 0.04237 0.74369 0.0
N2670 N 0.51273 0.01898 0.71226 0.0
C2671 C 0.51264 0.00961 0.73031 0.0
C2672 C 0.51388 0.02245 0.74741 0.0
C2673 C 0.25603 0.26873 0.99517 0.0
C2674 C 0.25974 0.25123 0.98408 0.0
C2675 C 0.24118 0.26894 0.01015 0.0
C2676 C 0.22948 0.2518 0.01403 0.0
H2677 H 0.26479 0.28211 0.99243 0.0
H2678 H 0.23897 0.28244 0.01887 0.0
S2679 S 0.2342 0.20224 0.98912 0.0
N2680 N 0.25105 0.2165 0.97804 0.0
N2681 N 0.22327 0.21677 0.00584 0.0
C2682 C 0.23314 0.23434 0.00279 0.0
C2683 C 0.24824 0.23411 0.98788 0.0
C2684 C 0.2497 0.98382 0.98206 0.0
C2685 C 0.26893 0.98593 0.99046 0.0
C2686 C 0.23251 0.98457 0.99398 0.0
C2687 C 0.2338 0.9864 0.01499 0.0
H2688 H 0.24773 0.9834 0.96596 0.0
H2689 H 0.21828 0.98551 0.98631 0.0
S2690 S 0.28043 0.98417 0.04509 0.0
N2691 N 0.28815 0.98529 0.02166 0.0
N2692 N 0.25577 0.98375 0.0439 0.0
C2693 C 0.25287 0.98457 0.02376 0.0
C2694 C 0.27047 0.98496 0.01159 0.0
C2695 C 0.26018 0.01954 0.25402 0.0
C2696 C 0.2589 0.01589 0.23324 0.0
C2697 C 0.26085 0.00384 0.26783 0.0
C2698 C 0.25927 0.98375 0.26164 0.0
H2699 H 0.25893 0.03454 0.26002 0.0
H2700 H 0.2609 0.00762 0.28361 0.0
S2701 S 0.26204 0.96614 0.20871 0.0
N2702 N 0.2622 0.99078 0.20708 0.0
N2703 N 0.26059 0.96112 0.23285 0.0
C2704 C 0.26058 0.97985 0.24084 0.0
C2705 C 0.26099 0.99596 0.22674 0.0
C2706 C 0.26773 0.01132 0.49518 0.0
C2707 C 0.26652 0.00961 0.5162 0.0
C2708 C 0.2505 0.01196 0.4833 0.0
C2709 C 0.23129 0.0099 0.49177 0.0
H2710 H 0.28194 0.01038 0.48748 0.0
H2711 H 0.2524 0.01227 0.4672 0.0
S2712 S 0.21995 0.01191 0.54639 0.0
N2713 N 0.24461 0.01234 0.54515 0.0
N2714 N 0.21216 0.01066 0.52297 0.0
C2715 C 0.22982 0.01097 0.51288 0.0
C2716 C 0.24746 0.01143 0.525 0.0
C2717 C 0.26453 0.00722 0.75713 0.0
C2718 C 0.24645 0.01428 0.7652 0.0
C2719 C 0.26467 0.99321 0.7417 0.0
C2720 C 0.24673 0.98549 0.7339 0.0
H2721 H 0.27875 0.01278 0.76265 0.0
H2722 H 0.279 0.98801 0.73613 0.0
S2723 S 0.1954 0.99902 0.74986 0.0
N2724 N 0.21011 0.01297 0.76411 0.0
N2725 N 0.21039 0.98559 0.73541 0.0
C2726 C 0.22849 0.99224 0.74186 0.0
C2727 C 0.22834 0.00697 0.75741 0.0
C2728 C 0.01658 0.24926 0.98663 0.0
C2729 C 0.00822 0.22995 0.98819 0.0
C2730 C 0.00449 0.26635 0.98655 0.0
C2731 C 0.98344 0.26487 0.9871 0.0
H2732 H 0.03265 0.25134 0.98722 0.0
H2733 H 0.01191 0.2807 0.98788 0.0
S2734 S 0.95386 0.218 0.98358 0.0
N2735 N 0.97726 0.21047 0.98598 0.0
N2736 N 0.95488 0.24267 0.98307 0.0
C2737 C 0.97494 0.24573 0.98491 0.0
C2738 C 0.9872 0.22823 0.98605 0.0
C2739 C 0.49505 0.2682 0.01319 0.0
C2740 C 0.51603 0.26593 0.01271 0.0
C2741 C 0.48231 0.25157 0.01307 0.0
C2742 C 0.48992 0.23196 0.0115 0.0
H2743 H 0.48818 0.28281 0.01186 0.0
H2744 H 0.46633 0.25427 0.0125 0.0
S2745 S 0.54381 0.21801 0.01628 0.0
N2746 N 0.5437 0.2427 0.01685 0.0
N2747 N 0.52016 0.21136 0.01375 0.0
C2748 C 0.51087 0.22946 0.01368 0.0
C2749 C 0.52378 0.24649 0.01492 0.0
C2750 C 0.9837 0.24731 0.23613 0.0
C2751 C 0.98062 0.259 0.2533 0.0
C2752 C 0.99796 0.2321 0.23593 0.0
C2753 C 0.0097 0.22794 0.25294 0.0
H2754 H 0.97523 0.25024 0.22258 0.0
H2755 H 0.00039 0.22416 0.22198 0.0
S2756 S 0.00636 0.25369 0.30207 0.0
N2757 N 0.98949 0.26513 0.288 0.0
N2758 N 0.01665 0.2363 0.28775 0.0
C2759 C 0.00638 0.23925 0.27044 0.0
C2760 C 0.9917 0.25482 0.27061 0.0
C2761 C 0.02327 0.74608 0.49768 0.0
C2762 C 0.01918 0.76289 0.50979 0.0
C2763 C 0.01061 0.72953 0.49744 0.0
C2764 C 0.99313 0.72905 0.50908 0.0
H2765 H 0.03543 0.74615 0.48697 0.0
H2766 H 0.01382 0.7176 0.4869 0.0
S2767 S 0.97717 0.7671 0.54605 0.0
N2768 N 0.99789 0.77641 0.53623 0.0
N2769 N 0.97335 0.74541 0.53475 0.0
C2770 C 0.9894 0.74492 0.52229 0.0
C2771 C 0.00264 0.76176 0.52293 0.0
C2772 C 0.51988 0.7488 0.48442 0.0
C2773 C 0.51142 0.72956 0.4863 0.0
C2774 C 0.50798 0.76601 0.48497 0.0
C2775 C 0.48694 0.76477 0.48623 0.0
H2776 H 0.53597 0.75078 0.48428 0.0
H2777 H 0.51566 0.78023 0.48616 0.0
S2778 S 0.45679 0.71827 0.48254 0.0
N2779 N 0.48014 0.71047 0.48449 0.0
N2780 N 0.4581 0.74292 0.48234 0.0
C2781 C 0.4782 0.74574 0.48395 0.0
C2782 C 0.4903 0.7281 0.48465 0.0
C2783 C 0.00176 0.73342 0.23874 0.0
C2784 C 0.98198 0.74035 0.24093 0.0
C2785 C 0.01798 0.74666 0.23873 0.0
C2786 C 0.01515 0.76757 0.23994 0.0
H2787 H 0.00496 0.71752 0.23863 0.0
H2788 H 0.03278 0.74012 0.23948 0.0
S2789 S 0.96626 0.7939 0.23859 0.0
N2790 N 0.96042 0.76996 0.24038 0.0
N2791 N 0.99092 0.79462 0.23745 0.0
C2792 C 0.99541 0.77478 0.23858 0.0
C2793 C 0.97881 0.76129 0.2397 0.0
C2794 C 0.50245 0.22708 0.73904 0.0
C2795 C 0.4827 0.23444 0.7398 0.0
C2796 C 0.51893 0.24001 0.73946 0.0
C2797 C 0.51648 0.261 0.73957 0.0
H2798 H 0.50535 0.21115 0.73966 0.0
H2799 H 0.53353 0.23326 0.74132 0.0
S2800 S 0.4684 0.2882 0.73401 0.0
N2801 N 0.46193 0.26452 0.73662 0.0
N2802 N 0.49307 0.28834 0.7343 0.0
C2803 C 0.49702 0.2685 0.73669 0.0
C2804 C 0.4801 0.2554 0.73746 0.0
C2805 C 0.48492 0.5017 0.7687 0.0
C2806 C 0.48567 0.48075 0.76598 0.0
C2807 C 0.4854 0.51481 0.75241 0.0
C2808 C 0.48766 0.50768 0.73271 0.0
H2809 H 0.4858 0.50833 0.78345 0.0
H2810 H 0.48572 0.53073 0.75551 0.0
S2811 S 0.48354 0.45412 0.71728 0.0
N2812 N 0.48227 0.45362 0.74194 0.0
N2813 N 0.48617 0.47794 0.7113 0.0
C2814 C 0.4857 0.48677 0.72963 0.0
C2815 C 0.48405 0.47344 0.74629 0.0
C2816 C 0.7703 0.23823 0.99835 0.0
C2817 C 0.76309 0.23975 0.01812 0.0
C2818 C 0.75731 0.23899 0.98195 0.0
C2819 C 0.73638 0.24019 0.98454 0.0
H2820 H 0.78623 0.23816 0.99536 0.0
H2821 H 0.76405 0.24039 0.96729 0.0
S2822 S 0.70927 0.23617 0.03282 0.0
N2823 N 0.73309 0.23789 0.03913 0.0
N2824 N 0.70899 0.23623 0.00814 0.0
C2825 C 0.72888 0.23774 0.00406 0.0
C2826 C 0.7421 0.23818 0.0209 0.0
C2827 C 0.0118 0.48203 0.24854 0.0
C2828 C 0.00986 0.4904 0.22927 0.0
C2829 C 0.01203 0.49413 0.26564 0.0
C2830 C 0.01129 0.51517 0.26413 0.0
H2831 H 0.01123 0.46595 0.25063 0.0
H2832 H 0.01083 0.48672 0.27999 0.0
S2833 S 0.01461 0.54469 0.21723 0.0
N2834 N 0.0121 0.52129 0.20972 0.0
N2835 N 0.01528 0.54371 0.2419 0.0
C2836 C 0.01344 0.52365 0.24497 0.0
C2837 C 0.01213 0.51138 0.22749 0.0
C2838 C 0.7576 0.77101 0.49538 0.0
C2839 C 0.76164 0.75384 0.48395 0.0
C2840 C 0.7428 0.77057 0.51039 0.0
C2841 C 0.73152 0.75307 0.51393 0.0
H2842 H 0.76609 0.78462 0.49294 0.0
H2843 H 0.74037 0.7838 0.51946 0.0
S2844 S 0.73715 0.7042 0.48785 0.0
N2845 N 0.75361 0.71908 0.477 0.0
N2846 N 0.726 0.7181 0.50498 0.0
C2847 C 0.73545 0.73596 0.50227 0.0
C2848 C 0.75047 0.7364 0.4873 0.0
C2849 C 0.75206 0.48795 0.52052 0.0
C2850 C 0.73244 0.48904 0.51287 0.0
C2851 C 0.76871 0.48869 0.50784 0.0
C2852 C 0.76647 0.48961 0.48687 0.0
H2853 H 0.75469 0.48827 0.53653 0.0
H2854 H 0.78326 0.49032 0.51479 0.0
S2855 S 0.71872 0.48519 0.45886 0.0
N2856 N 0.71196 0.48684 0.48256 0.0
N2857 N 0.74341 0.48549 0.45901 0.0
C2858 C 0.74712 0.487 0.47899 0.0
C2859 C 0.73005 0.4873 0.49187 0.0
C2860 C 0.76047 0.48188 0.74405 0.0
C2861 C 0.75952 0.4842 0.76504 0.0
C2862 C 0.76071 0.49842 0.73125 0.0
C2863 C 0.75891 0.51805 0.73872 0.0
H2864 H 0.75926 0.4673 0.73709 0.0
H2865 H 0.76057 0.49562 0.71527 0.0
S2866 S 0.76286 0.53233 0.7926 0.0
N2867 N 0.76335 0.50764 0.79265 0.0
N2868 N 0.76068 0.53883 0.76887 0.0
C2869 C 0.76067 0.52066 0.7597 0.0
C2870 C 0.76163 0.5037 0.77274 0.0
C2871 C 0.7667 0.51379 0.99358 0.0
C2872 C 0.7637 0.51127 0.01432 0.0
C2873 C 0.75049 0.5151 0.98035 0.0
C2874 C 0.73063 0.51315 0.98719 0.0
H2875 H 0.78156 0.51294 0.98718 0.0
H2876 H 0.75368 0.51595 0.96447 0.0
S2877 S 0.71503 0.51243 0.04087 0.0
N2878 N 0.7397 0.51267 0.04156 0.0
N2879 N 0.70911 0.51257 0.01689 0.0
C2880 C 0.72749 0.51326 0.00819 0.0
C2881 C 0.74408 0.5129 0.02166 0.0
C2882 C 0.72933 0.51135 0.25408 0.0
C2883 C 0.74695 0.51785 0.26366 0.0
C2884 C 0.73001 0.49605 0.23957 0.0
C2885 C 0.74841 0.4875 0.23392 0.0
H2886 H 0.71506 0.51807 0.25787 0.0
H2887 H 0.71623 0.49096 0.23269 0.0
S2888 S 0.79863 0.49984 0.25413 0.0
N2889 N 0.78314 0.51478 0.26628 0.0
N2890 N 0.78442 0.48653 0.23889 0.0
C2891 C 0.76602 0.49409 0.24327 0.0
C2892 C 0.7653 0.5092 0.25815 0.0
C2893 C 0.5163 0.75506 0.76349 0.0
C2894 C 0.5137 0.7341 0.76264 0.0
C2895 C 0.49991 0.76806 0.76381 0.0
C2896 C 0.48018 0.76082 0.76218 0.0
H2897 H 0.53096 0.7618 0.76211 0.0
H2898 H 0.50292 0.784 0.76357 0.0
S2899 S 0.46533 0.70712 0.76669 0.0
N2900 N 0.49002 0.7068 0.76691 0.0
N2901 N 0.45908 0.73091 0.76442 0.0
C2902 C 0.47734 0.73988 0.76416 0.0
C2903 C 0.49415 0.72666 0.76505 0.0
loop_
_geom_bond_atom_site_label_1
_geom_bond_atom_site_label_2
_geom_bond_distance
_geom_bond_site_symmetry_2
_ccdc_geom_bond_type
C0 C1 1.351 . S
C0 N3 1.368 . S
C0 H5 0.931 . S
C1 C0 1.351 . S
C1 N2 1.373 . S
C1 H29 0.930 . S
N2 C1 1.373 . S
N2 C4 1.340 . S
N3 C0 1.368 . S
N3 C4 1.321 . S
N3 Co6 2.135 . S
C4 N2 1.340 . S
C4 N3 1.321 . S
C4 H28 0.930 . S
H5 C0 0.931 . S
Co6 N3 2.135 . S
Co6 N9 2.121 . S
Co6 O14 2.055 . S
Co6 O17 2.039 . S
Co6 N20 2.140 . S
C7 O8 1.227 . S
C7 O17 1.265 . S
O8 C7 1.227 . S
N9 Co6 2.121 . S
N9 C11 1.375 . S
N9 C12 1.313 . S
C10 C11 1.338 1_655 S
C10 N13 1.377 . S
C10 H30 0.930 . S
C11 N9 1.375 . S
C11 C10 1.338 1_455 S
C11 H15 0.931 . S
C12 N9 1.313 . S
C12 N13 1.344 1_455 S
C12 H16 0.930 . S
N13 C10 1.377 . S
N13 C12 1.344 1_655 S
O14 Co6 2.055 . S
O14 C18 1.253 . S
H15 C11 0.931 . S
H16 C12 0.930 . S
O17 Co6 2.039 . S
O17 C7 1.265 . S
C18 O14 1.253 . S
C18 O19 1.227 . S
O19 C18 1.227 . S
N20 Co6 2.140 . S
N20 C23 1.346 . S
N20 C24 1.345 . S
C21 C22 1.424 . S
C21 C25 1.394 . S
C22 C21 1.424 . S
C22 C23 1.369 . S
C22 H31 0.929 . S
C23 N20 1.346 . S
C23 C22 1.369 . S
C23 H26 0.928 . S
C24 N20 1.345 . S
C24 C25 1.371 . S
C24 H27 0.931 . S
C25 C21 1.394 . S
C25 C24 1.371 . S
C25 H32 0.930 1_545 S
H26 C23 0.928 . S
H27 C24 0.931 . S
H28 C4 0.930 . S
H29 C1 0.930 . S
H30 C10 0.930 . S
H31 C22 0.929 . S
H32 C25 0.930 1_565 S
C33 C34 1.351 . S
C33 N36 1.368 . S
C33 H38 0.931 . S
C34 C33 1.351 . S
C34 N35 1.373 . S
C34 H62 0.930 . S
N35 C34 1.373 . S
N35 C37 1.340 . S
N36 C33 1.368 . S
N36 C37 1.321 . S
N36 Co39 2.135 . S
C37 N35 1.340 . S
C37 N36 1.321 . S
C37 H61 0.930 . S
H38 C33 0.931 . S
Co39 N36 2.135 . S
Co39 N42 2.121 . S
Co39 O47 2.055 . S
Co39 O50 2.039 . S
Co39 N53 2.140 . S
C40 O41 1.227 . S
C40 O50 1.265 . S
O41 C40 1.227 . S
N42 Co39 2.121 . S
N42 C44 1.375 . S
N42 C45 1.313 . S
C43 C44 1.338 . S
C43 N46 1.377 . S
C43 H63 0.930 . S
C44 N42 1.375 . S
C44 C43 1.338 . S
C44 H48 0.931 . S
C45 N42 1.313 . S
C45 N46 1.344 . S
C45 H49 0.930 . S
N46 C43 1.377 . S
N46 C45 1.344 . S
O47 Co39 2.055 . S
O47 C51 1.253 . S
H48 C44 0.931 . S
H49 C45 0.930 . S
O50 Co39 2.039 . S
O50 C40 1.265 . S
C51 O47 1.253 . S
C51 O52 1.227 . S
O52 C51 1.227 . S
N53 Co39 2.140 . S
N53 C56 1.346 . S
N53 C57 1.345 . S
C54 C55 1.387 . S
C54 C58 1.391 . S
C55 C54 1.387 . S
C55 C56 1.369 . S
C55 H64 0.929 . S
C56 N53 1.346 . S
C56 C55 1.369 . S
C56 H59 0.928 . S
C57 N53 1.345 . S
C57 C58 1.371 . S
C57 H60 0.931 . S
C58 C54 1.391 . S
C58 C57 1.371 . S
C58 H65 0.930 . S
H59 C56 0.928 . S
H60 C57 0.931 . S
H61 C37 0.930 . S
H62 C34 0.930 . S
H63 C43 0.930 . S
H64 C55 0.929 . S
H65 C58 0.930 . S
C66 C67 1.351 . S
C66 N69 1.368 . S
C66 H71 0.931 . S
C67 C66 1.351 . S
C67 N68 1.373 . S
C67 H95 0.930 . S
N68 C67 1.373 . S
N68 C70 1.340 . S
N69 C66 1.368 . S
N69 C70 1.321 . S
N69 Co72 2.135 . S
C70 N68 1.340 . S
C70 N69 1.321 . S
C70 H94 0.930 . S
H71 C66 0.931 . S
Co72 N69 2.135 . S
Co72 N75 2.121 . S
Co72 O80 2.055 . S
Co72 O83 2.039 . S
Co72 N86 2.140 . S
C73 O74 1.227 . S
C73 O83 1.265 . S
O74 C73 1.227 . S
N75 Co72 2.121 . S
N75 C77 1.375 . S
N75 C78 1.313 . S
C76 C77 1.338 . S
C76 N79 1.377 . S
C76 H96 0.930 . S
C77 N75 1.375 . S
C77 C76 1.338 . S
C77 H81 0.931 . S
C78 N75 1.313 . S
C78 N79 1.344 . S
C78 H82 0.930 . S
N79 C76 1.377 . S
N79 C78 1.344 . S
O80 Co72 2.055 . S
O80 C84 1.253 . S
H81 C77 0.931 . S
H82 C78 0.930 . S
O83 Co72 2.039 . S
O83 C73 1.265 . S
C84 O80 1.253 . S
C84 O85 1.227 . S
O85 C84 1.227 . S
N86 Co72 2.140 . S
N86 C89 1.346 . S
N86 C90 1.345 . S
C87 C88 1.423 . S
C87 C91 1.394 . S
C88 C87 1.423 . S
C88 C89 1.369 . S
C88 H97 0.929 . S
C89 N86 1.346 . S
C89 C88 1.369 . S
C89 H92 0.928 . S
C90 N86 1.345 . S
C90 C91 1.371 . S
C90 H93 0.931 . S
C91 C87 1.394 . S
C91 C90 1.371 . S
C91 H98 0.930 1_565 S
H92 C89 0.928 . S
H93 C90 0.931 . S
H94 C70 0.930 . S
H95 C67 0.930 . S
H96 C76 0.930 . S
H97 C88 0.929 . S
H98 C91 0.930 1_545 S
C99 C100 1.351 . S
C99 N102 1.368 . S
C99 H104 0.931 . S
C100 C99 1.351 . S
C100 N101 1.373 . S
C100 H128 0.930 . S
N101 C100 1.373 . S
N101 C103 1.340 . S
N102 C99 1.368 . S
N102 C103 1.321 . S
N102 Co105 2.135 . S
C103 N101 1.340 . S
C103 N102 1.321 . S
C103 H127 0.930 . S
H104 C99 0.931 . S
Co105 N102 2.135 . S
Co105 N108 2.121 . S
Co105 O113 2.055 . S
Co105 O116 2.039 . S
Co105 N119 2.140 . S
C106 O107 1.227 . S
C106 O116 1.265 . S
O107 C106 1.227 . S
N108 Co105 2.121 . S
N108 C110 1.375 . S
N108 C111 1.313 . S
C109 C110 1.338 . S
C109 N112 1.377 . S
C109 H129 0.930 . S
C110 N108 1.375 . S
C110 C109 1.338 . S
C110 H114 0.931 . S
C111 N108 1.313 . S
C111 N112 1.344 . S
C111 H115 0.930 . S
N112 C109 1.377 . S
N112 C111 1.344 . S
O113 Co105 2.055 . S
O113 C117 1.253 . S
H114 C110 0.931 . S
H115 C111 0.930 . S
O116 Co105 2.039 . S
O116 C106 1.265 . S
C117 O113 1.253 . S
C117 O118 1.227 . S
O118 C117 1.227 . S
N119 Co105 2.140 . S
N119 C122 1.346 . S
N119 C123 1.345 . S
C120 C121 1.387 . S
C120 C124 1.391 . S
C121 C120 1.387 . S
C121 C122 1.369 . S
C121 H130 0.929 . S
C122 N119 1.346 . S
C122 C121 1.369 . S
C122 H125 0.928 . S
C123 N119 1.345 . S
C123 C124 1.371 . S
C123 H126 0.931 . S
C124 C120 1.391 . S
C124 C123 1.371 . S
C124 H131 0.930 . S
H125 C122 0.928 . S
H126 C123 0.931 . S
H127 C103 0.930 . S
H128 C100 0.930 . S
H129 C109 0.930 . S
H130 C121 0.929 . S
H131 C124 0.930 . S
C132 C133 1.351 . S
C132 N135 1.368 . S
C132 H137 0.931 . S
C133 C132 1.351 . S
C133 N134 1.373 . S
C133 H161 0.930 . S
N134 C133 1.373 . S
N134 C136 1.340 . S
N135 C132 1.368 . S
N135 C136 1.321 . S
N135 Co138 2.135 . S
C136 N134 1.340 . S
C136 N135 1.321 . S
C136 H160 0.930 . S
H137 C132 0.931 . S
Co138 N135 2.135 . S
Co138 N141 2.121 . S
Co138 O146 2.055 . S
Co138 O149 2.039 . S
Co138 N152 2.140 . S
C139 O140 1.227 . S
C139 O149 1.265 . S
O140 C139 1.227 . S
N141 Co138 2.121 . S
N141 C143 1.375 . S
N141 C144 1.313 . S
C142 C143 1.338 1_655 S
C142 N145 1.377 . S
C142 H162 0.930 . S
C143 N141 1.375 . S
C143 C142 1.338 1_455 S
C143 H147 0.931 . S
C144 N141 1.313 . S
C144 N145 1.344 1_455 S
C144 H148 0.930 . S
N145 C142 1.377 . S
N145 C144 1.344 1_655 S
O146 Co138 2.055 . S
O146 C150 1.253 . S
H147 C143 0.931 . S
H148 C144 0.930 . S
O149 Co138 2.039 . S
O149 C139 1.265 . S
C150 O146 1.253 . S
C150 O151 1.227 . S
O151 C150 1.227 . S
N152 Co138 2.140 . S
N152 C155 1.346 . S
N152 C156 1.345 . S
C153 C154 1.423 . S
C153 C157 1.394 . S
C154 C153 1.423 . S
C154 C155 1.369 . S
C154 H163 0.929 . S
C155 N152 1.346 . S
C155 C154 1.369 . S
C155 H158 0.928 . S
C156 N152 1.345 . S
C156 C157 1.371 . S
C156 H159 0.931 . S
C157 C153 1.394 . S
C157 C156 1.371 . S
C157 H164 0.930 1_565 S
H158 C155 0.928 . S
H159 C156 0.931 . S
H160 C136 0.930 . S
H161 C133 0.930 . S
H162 C142 0.930 . S
H163 C154 0.929 . S
H164 C157 0.930 1_545 S
C165 C166 1.351 . S
C165 N168 1.368 . S
C165 H170 0.931 . S
C166 C165 1.351 . S
C166 N167 1.373 . S
C166 H194 0.930 . S
N167 C166 1.373 . S
N167 C169 1.340 . S
N168 C165 1.368 . S
N168 C169 1.321 . S
N168 Co171 2.135 . S
C169 N167 1.340 . S
C169 N168 1.321 . S
C169 H193 0.930 . S
H170 C165 0.931 . S
Co171 N168 2.135 . S
Co171 N174 2.121 . S
Co171 O179 2.055 . S
Co171 O182 2.039 . S
Co171 N185 2.140 . S
C172 O173 1.227 . S
C172 O182 1.265 . S
O173 C172 1.227 . S
N174 Co171 2.121 . S
N174 C176 1.375 . S
N174 C177 1.313 . S
C175 C176 1.338 . S
C175 N178 1.377 . S
C175 H195 0.930 . S
C176 N174 1.375 . S
C176 C175 1.338 . S
C176 H180 0.931 . S
C177 N174 1.313 . S
C177 N178 1.344 . S
C177 H181 0.930 . S
N178 C175 1.377 . S
N178 C177 1.344 . S
O179 Co171 2.055 . S
O179 C183 1.253 . S
H180 C176 0.931 . S
H181 C177 0.930 . S
O182 Co171 2.039 . S
O182 C172 1.265 . S
C183 O179 1.253 . S
C183 O184 1.227 . S
O184 C183 1.227 . S
N185 Co171 2.140 . S
N185 C188 1.346 . S
N185 C189 1.345 . S
C186 C187 1.387 . S
C186 C190 1.391 . S
C187 C186 1.387 . S
C187 C188 1.369 . S
C187 H196 0.929 . S
C188 N185 1.346 . S
C188 C187 1.369 . S
C188 H191 0.928 . S
C189 N185 1.345 . S
C189 C190 1.371 . S
C189 H192 0.931 . S
C190 C186 1.391 . S
C190 C189 1.371 . S
C190 H197 0.930 . S
H191 C188 0.928 . S
H192 C189 0.931 . S
H193 C169 0.930 . S
H194 C166 0.930 . S
H195 C175 0.930 . S
H196 C187 0.929 . S
H197 C190 0.930 . S
C198 C199 1.351 . S
C198 N201 1.368 . S
C198 H203 0.931 . S
C199 C198 1.351 . S
C199 N200 1.373 . S
C199 H227 0.930 . S
N200 C199 1.373 . S
N200 C202 1.340 . S
N201 C198 1.368 . S
N201 C202 1.321 . S
N201 Co204 2.135 . S
C202 N200 1.340 . S
C202 N201 1.321 . S
C202 H226 0.930 . S
H203 C198 0.931 . S
Co204 N201 2.135 . S
Co204 N207 2.121 . S
Co204 O212 2.055 . S
Co204 O215 2.039 . S
Co204 N218 2.140 . S
C205 O206 1.227 . S
C205 O215 1.265 . S
O206 C205 1.227 . S
N207 Co204 2.121 . S
N207 C209 1.375 . S
N207 C210 1.313 . S
C208 C209 1.338 . S
C208 N211 1.377 . S
C208 H228 0.930 . S
C209 N207 1.375 . S
C209 C208 1.338 . S
C209 H213 0.931 . S
C210 N207 1.313 . S
C210 N211 1.344 . S
C210 H214 0.930 . S
N211 C208 1.377 . S
N211 C210 1.344 . S
O212 Co204 2.055 . S
O212 C216 1.253 . S
H213 C209 0.931 . S
H214 C210 0.930 . S
O215 Co204 2.039 . S
O215 C205 1.265 . S
C216 O212 1.253 . S
C216 O217 1.227 . S
O217 C216 1.227 . S
N218 Co204 2.140 . S
N218 C221 1.346 . S
N218 C222 1.345 . S
C219 C220 1.425 . S
C219 C223 1.394 . S
C220 C219 1.425 . S
C220 C221 1.369 . S
C220 H229 0.929 . S
C221 N218 1.346 . S
C221 C220 1.369 . S
C221 H224 0.928 . S
C222 N218 1.345 . S
C222 C223 1.371 . S
C222 H225 0.931 . S
C223 C219 1.394 . S
C223 C222 1.371 . S
C223 H230 0.930 1_545 S
H224 C221 0.928 . S
H225 C222 0.931 . S
H226 C202 0.930 . S
H227 C199 0.930 . S
H228 C208 0.930 . S
H229 C220 0.929 . S
H230 C223 0.930 1_565 S
C231 C232 1.351 . S
C231 N234 1.368 . S
C231 H236 0.931 . S
C232 C231 1.351 . S
C232 N233 1.373 . S
C232 H260 0.930 . S
N233 C232 1.373 . S
N233 C235 1.340 . S
N234 C231 1.368 . S
N234 C235 1.321 . S
N234 Co237 2.135 . S
C235 N233 1.340 . S
C235 N234 1.321 . S
C235 H259 0.930 . S
H236 C231 0.931 . S
Co237 N234 2.135 . S
Co237 N240 2.121 . S
Co237 O245 2.055 . S
Co237 O248 2.039 . S
Co237 N251 2.140 . S
C238 O239 1.227 . S
C238 O248 1.265 . S
O239 C238 1.227 . S
N240 Co237 2.121 . S
N240 C242 1.375 . S
N240 C243 1.313 . S
C241 C242 1.338 . S
C241 N244 1.377 . S
C241 H261 0.930 . S
C242 N240 1.375 . S
C242 C241 1.338 . S
C242 H246 0.931 . S
C243 N240 1.313 . S
C243 N244 1.344 . S
C243 H247 0.930 . S
N244 C241 1.377 . S
N244 C243 1.344 . S
O245 Co237 2.055 . S
O245 C249 1.253 . S
H246 C242 0.931 . S
H247 C243 0.930 . S
O248 Co237 2.039 . S
O248 C238 1.265 . S
C249 O245 1.253 . S
C249 O250 1.227 . S
O250 C249 1.227 . S
N251 Co237 2.140 . S
N251 C254 1.346 . S
N251 C255 1.345 . S
C252 C253 1.387 . S
C252 C256 1.391 . S
C253 C252 1.387 . S
C253 C254 1.369 . S
C253 H262 0.929 . S
C254 N251 1.346 . S
C254 C253 1.369 . S
C254 H257 0.928 . S
C255 N251 1.345 . S
C255 C256 1.371 . S
C255 H258 0.931 . S
C256 C252 1.391 . S
C256 C255 1.371 . S
C256 H263 0.930 . S
H257 C254 0.928 . S
H258 C255 0.931 . S
H259 C235 0.930 . S
H260 C232 0.930 . S
H261 C241 0.930 . S
H262 C253 0.929 . S
H263 C256 0.930 . S
C264 C265 1.351 . S
C264 N267 1.368 . S
C264 H269 0.931 . S
C265 C264 1.351 . S
C265 N266 1.373 . S
C265 H293 0.930 . S
N266 C265 1.373 . S
N266 C268 1.340 . S
N267 C264 1.368 . S
N267 C268 1.321 . S
N267 Co270 2.135 . S
C268 N266 1.340 . S
C268 N267 1.321 . S
C268 H292 0.930 . S
H269 C264 0.931 . S
Co270 N267 2.135 . S
Co270 N273 2.121 . S
Co270 O278 2.055 . S
Co270 O281 2.039 . S
Co270 N284 2.140 . S
C271 O272 1.227 . S
C271 O281 1.265 . S
O272 C271 1.227 . S
N273 Co270 2.121 . S
N273 C275 1.375 . S
N273 C276 1.313 . S
C274 C275 1.338 1_565 S
C274 N277 1.377 . S
C274 H294 0.930 . S
C275 N273 1.375 . S
C275 C274 1.338 1_545 S
C275 H279 0.931 . S
C276 N273 1.313 . S
C276 N277 1.344 1_545 S
C276 H280 0.930 . S
N277 C274 1.377 . S
N277 C276 1.344 1_565 S
O278 Co270 2.055 . S
O278 C282 1.253 . S
H279 C275 0.931 . S
H280 C276 0.930 . S
O281 Co270 2.039 . S
O281 C271 1.265 . S
C282 O278 1.253 . S
C282 O283 1.227 . S
O283 C282 1.227 . S
N284 Co270 2.140 . S
N284 C287 1.346 . S
N284 C288 1.345 . S
C285 C286 1.424 . S
C285 C289 1.394 . S
C286 C285 1.424 . S
C286 C287 1.369 . S
C286 H295 0.929 . S
C287 N284 1.346 . S
C287 C286 1.369 . S
C287 H290 0.928 . S
C288 N284 1.345 . S
C288 C289 1.371 . S
C288 H291 0.931 . S
C289 C285 1.394 . S
C289 C288 1.371 . S
C289 H296 0.930 1_554 S
H290 C287 0.928 . S
H291 C288 0.931 . S
H292 C268 0.930 . S
H293 C265 0.930 . S
H294 C274 0.930 . S
H295 C286 0.929 . S
H296 C289 0.930 1_556 S
C297 C298 1.351 . S
C297 N300 1.368 . S
C297 H302 0.931 . S
C298 C297 1.351 . S
C298 N299 1.373 . S
C298 H326 0.930 . S
N299 C298 1.373 . S
N299 C301 1.340 . S
N300 C297 1.368 . S
N300 C301 1.321 . S
N300 Co303 2.135 . S
C301 N299 1.340 . S
C301 N300 1.321 . S
C301 H325 0.930 . S
H302 C297 0.931 . S
Co303 N300 2.135 . S
Co303 N306 2.121 . S
Co303 O311 2.055 . S
Co303 O314 2.039 . S
Co303 N317 2.140 . S
C304 O305 1.227 . S
C304 O314 1.265 . S
O305 C304 1.227 . S
N306 Co303 2.121 . S
N306 C308 1.375 . S
N306 C309 1.313 . S
C307 C308 1.338 . S
C307 N310 1.377 . S
C307 H327 0.930 . S
C308 N306 1.375 . S
C308 C307 1.338 . S
C308 H312 0.931 . S
C309 N306 1.313 . S
C309 N310 1.344 . S
C309 H313 0.930 . S
N310 C307 1.377 . S
N310 C309 1.344 . S
O311 Co303 2.055 . S
O311 C315 1.253 . S
H312 C308 0.931 . S
H313 C309 0.930 . S
O314 Co303 2.039 . S
O314 C304 1.265 . S
C315 O311 1.253 . S
C315 O316 1.227 . S
O316 C315 1.227 . S
N317 Co303 2.140 . S
N317 C320 1.346 . S
N317 C321 1.345 . S
C318 C319 1.387 . S
C318 C322 1.391 . S
C319 C318 1.387 . S
C319 C320 1.369 . S
C319 H328 0.929 . S
C320 N317 1.346 . S
C320 C319 1.369 . S
C320 H323 0.928 . S
C321 N317 1.345 . S
C321 C322 1.371 . S
C321 H324 0.931 . S
C322 C318 1.391 . S
C322 C321 1.371 . S
C322 H329 0.930 . S
H323 C320 0.928 . S
H324 C321 0.931 . S
H325 C301 0.930 . S
H326 C298 0.930 . S
H327 C307 0.930 . S
H328 C319 0.929 . S
H329 C322 0.930 . S
C330 C331 1.351 . S
C330 N333 1.368 . S
C330 H335 0.931 . S
C331 C330 1.351 . S
C331 N332 1.373 . S
C331 H359 0.930 . S
N332 C331 1.373 . S
N332 C334 1.340 . S
N333 C330 1.368 . S
N333 C334 1.321 . S
N333 Co336 2.135 . S
C334 N332 1.340 . S
C334 N333 1.321 . S
C334 H358 0.930 . S
H335 C330 0.931 . S
Co336 N333 2.135 . S
Co336 N339 2.121 . S
Co336 O344 2.055 . S
Co336 O347 2.039 . S
Co336 N350 2.140 . S
C337 O338 1.227 . S
C337 O347 1.265 . S
O338 C337 1.227 . S
N339 Co336 2.121 . S
N339 C341 1.375 . S
N339 C342 1.313 . S
C340 C341 1.338 1_545 S
C340 N343 1.377 . S
C340 H360 0.930 . S
C341 N339 1.375 . S
C341 C340 1.338 1_565 S
C341 H345 0.931 . S
C342 N339 1.313 . S
C342 N343 1.344 1_565 S
C342 H346 0.930 . S
N343 C340 1.377 . S
N343 C342 1.344 1_545 S
O344 Co336 2.055 . S
O344 C348 1.253 . S
H345 C341 0.931 . S
H346 C342 0.930 . S
O347 Co336 2.039 . S
O347 C337 1.265 . S
C348 O344 1.253 . S
C348 O349 1.227 . S
O349 C348 1.227 . S
N350 Co336 2.140 . S
N350 C353 1.346 . S
N350 C354 1.345 . S
C351 C352 1.387 . S
C351 C355 1.391 . S
C352 C351 1.387 . S
C352 C353 1.369 . S
C352 H361 0.929 . S
C353 N350 1.346 . S
C353 C352 1.369 . S
C353 H356 0.928 . S
C354 N350 1.345 . S
C354 C355 1.371 . S
C354 H357 0.931 . S
C355 C351 1.391 . S
C355 C354 1.371 . S
C355 H362 0.930 . S
H356 C353 0.928 . S
H357 C354 0.931 . S
H358 C334 0.930 . S
H359 C331 0.930 . S
H360 C340 0.930 . S
H361 C352 0.929 . S
H362 C355 0.930 . S
C363 C364 1.351 . S
C363 N366 1.368 . S
C363 H368 0.931 . S
C364 C363 1.351 . S
C364 N365 1.373 . S
C364 H392 0.930 . S
N365 C364 1.373 . S
N365 C367 1.340 . S
N366 C363 1.368 . S
N366 C367 1.321 . S
N366 Co369 2.135 . S
C367 N365 1.340 . S
C367 N366 1.321 . S
C367 H391 0.930 . S
H368 C363 0.931 . S
Co369 N366 2.135 . S
Co369 N372 2.121 . S
Co369 O377 2.055 . S
Co369 O380 2.039 . S
Co369 N383 2.140 . S
C370 O371 1.227 . S
C370 O380 1.265 . S
O371 C370 1.227 . S
N372 Co369 2.121 . S
N372 C374 1.375 . S
N372 C375 1.313 . S
C373 C374 1.338 . S
C373 N376 1.377 . S
C373 H393 0.930 . S
C374 N372 1.375 . S
C374 C373 1.338 . S
C374 H378 0.931 . S
C375 N372 1.313 . S
C375 N376 1.344 . S
C375 H379 0.930 . S
N376 C373 1.377 . S
N376 C375 1.344 . S
O377 Co369 2.055 . S
O377 C381 1.253 . S
H378 C374 0.931 . S
H379 C375 0.930 . S
O380 Co369 2.039 . S
O380 C370 1.265 . S
C381 O377 1.253 . S
C381 O382 1.227 . S
O382 C381 1.227 . S
N383 Co369 2.140 . S
N383 C386 1.346 . S
N383 C387 1.345 . S
C384 C385 1.387 . S
C384 C388 1.391 . S
C385 C384 1.387 . S
C385 C386 1.369 . S
C385 H394 0.929 . S
C386 N383 1.346 . S
C386 C385 1.369 . S
C386 H389 0.928 . S
C387 N383 1.345 . S
C387 C388 1.371 . S
C387 H390 0.931 . S
C388 C384 1.391 . S
C388 C387 1.371 . S
C388 H395 0.930 . S
H389 C386 0.928 . S
H390 C387 0.931 . S
H391 C367 0.930 . S
H392 C364 0.930 . S
H393 C373 0.930 . S
H394 C385 0.929 . S
H395 C388 0.930 . S
C396 C397 1.351 . S
C396 N399 1.368 . S
C396 H401 0.931 . S
C397 C396 1.351 . S
C397 N398 1.373 . S
C397 H425 0.930 . S
N398 C397 1.373 . S
N398 C400 1.340 . S
N399 C396 1.368 . S
N399 C400 1.321 . S
N399 Co402 2.135 . S
C400 N398 1.340 . S
C400 N399 1.321 . S
C400 H424 0.930 . S
H401 C396 0.931 . S
Co402 N399 2.135 . S
Co402 N405 2.121 . S
Co402 O410 2.055 . S
Co402 O413 2.039 . S
Co402 N416 2.140 . S
C403 O404 1.227 . S
C403 O413 1.265 . S
O404 C403 1.227 . S
N405 Co402 2.121 . S
N405 C407 1.375 . S
N405 C408 1.313 . S
C406 C407 1.338 1_545 S
C406 N409 1.377 . S
C406 H426 0.930 . S
C407 N405 1.375 . S
C407 C406 1.338 1_565 S
C407 H411 0.931 . S
C408 N405 1.313 . S
C408 N409 1.344 1_565 S
C408 H412 0.930 . S
N409 C406 1.377 . S
N409 C408 1.344 1_545 S
O410 Co402 2.055 . S
O410 C414 1.253 . S
H411 C407 0.931 . S
H412 C408 0.930 . S
O413 Co402 2.039 . S
O413 C403 1.265 . S
C414 O410 1.253 . S
C414 O415 1.227 . S
O415 C414 1.227 . S
N416 Co402 2.140 . S
N416 C419 1.346 . S
N416 C420 1.345 . S
C417 C418 1.387 . S
C417 C421 1.391 . S
C418 C417 1.387 . S
C418 C419 1.369 . S
C418 H427 0.929 . S
C419 N416 1.346 . S
C419 C418 1.369 . S
C419 H422 0.928 . S
C420 N416 1.345 . S
C420 C421 1.371 . S
C420 H423 0.931 . S
C421 C417 1.391 . S
C421 C420 1.371 . S
C421 H428 0.930 . S
H422 C419 0.928 . S
H423 C420 0.931 . S
H424 C400 0.930 . S
H425 C397 0.930 . S
H426 C406 0.930 . S
H427 C418 0.929 . S
H428 C421 0.930 . S
C429 C430 1.351 . S
C429 N432 1.368 . S
C429 H434 0.931 . S
C430 C429 1.351 . S
C430 N431 1.373 . S
C430 H458 0.930 . S
N431 C430 1.373 . S
N431 C433 1.340 . S
N432 C429 1.368 . S
N432 C433 1.321 . S
N432 Co435 2.135 . S
C433 N431 1.340 . S
C433 N432 1.321 . S
C433 H457 0.930 . S
H434 C429 0.931 . S
Co435 N432 2.135 . S
Co435 N438 2.121 . S
Co435 O443 2.055 . S
Co435 O446 2.039 . S
Co435 N449 2.140 . S
C436 O437 1.227 . S
C436 O446 1.265 . S
O437 C436 1.227 . S
N438 Co435 2.121 . S
N438 C440 1.375 . S
N438 C441 1.313 . S
C439 C440 1.338 . S
C439 N442 1.377 . S
C439 H459 0.930 . S
C440 N438 1.375 . S
C440 C439 1.338 . S
C440 H444 0.931 . S
C441 N438 1.313 . S
C441 N442 1.344 . S
C441 H445 0.930 . S
N442 C439 1.377 . S
N442 C441 1.344 . S
O443 Co435 2.055 . S
O443 C447 1.253 . S
H444 C440 0.931 . S
H445 C441 0.930 . S
O446 Co435 2.039 . S
O446 C436 1.265 . S
C447 O443 1.253 . S
C447 O448 1.227 . S
O448 C447 1.227 . S
N449 Co435 2.140 . S
N449 C452 1.346 . S
N449 C453 1.345 . S
C450 C451 1.387 . S
C450 C454 1.391 . S
C451 C450 1.387 . S
C451 C452 1.369 . S
C451 H460 0.929 . S
C452 N449 1.346 . S
C452 C451 1.369 . S
C452 H455 0.928 . S
C453 N449 1.345 . S
C453 C454 1.371 . S
C453 H456 0.931 . S
C454 C450 1.391 . S
C454 C453 1.371 . S
C454 H461 0.930 . S
H455 C452 0.928 . S
H456 C453 0.931 . S
H457 C433 0.930 . S
H458 C430 0.930 . S
H459 C439 0.930 . S
H460 C451 0.929 . S
H461 C454 0.930 . S
C462 C463 1.351 . S
C462 N465 1.368 . S
C462 H467 0.931 . S
C463 C462 1.351 . S
C463 N464 1.373 . S
C463 H491 0.930 . S
N464 C463 1.373 . S
N464 C466 1.340 . S
N465 C462 1.368 . S
N465 C466 1.321 . S
N465 Co468 2.135 . S
C466 N464 1.340 . S
C466 N465 1.321 . S
C466 H490 0.930 . S
H467 C462 0.931 . S
Co468 N465 2.135 . S
Co468 N471 2.121 . S
Co468 O476 2.055 . S
Co468 O479 2.039 . S
Co468 N482 2.140 . S
C469 O470 1.227 . S
C469 O479 1.265 . S
O470 C469 1.227 . S
N471 Co468 2.121 . S
N471 C473 1.375 . S
N471 C474 1.313 . S
C472 C473 1.338 1_565 S
C472 N475 1.377 . S
C472 H492 0.930 . S
C473 N471 1.375 . S
C473 C472 1.338 1_545 S
C473 H477 0.931 . S
C474 N471 1.313 . S
C474 N475 1.344 1_545 S
C474 H478 0.930 . S
N475 C472 1.377 . S
N475 C474 1.344 1_565 S
O476 Co468 2.055 . S
O476 C480 1.253 . S
H477 C473 0.931 . S
H478 C474 0.930 . S
O479 Co468 2.039 . S
O479 C469 1.265 . S
C480 O476 1.253 . S
C480 O481 1.227 . S
O481 C480 1.227 . S
N482 Co468 2.140 . S
N482 C485 1.346 . S
N482 C486 1.345 . S
C483 C484 1.423 . S
C483 C487 1.394 . S
C484 C483 1.423 . S
C484 C485 1.369 . S
C484 H493 0.929 . S
C485 N482 1.346 . S
C485 C484 1.369 . S
C485 H488 0.928 . S
C486 N482 1.345 . S
C486 C487 1.371 . S
C486 H489 0.931 . S
C487 C483 1.394 . S
C487 C486 1.371 . S
C487 H494 0.930 1_556 S
H488 C485 0.928 . S
H489 C486 0.931 . S
H490 C466 0.930 . S
H491 C463 0.930 . S
H492 C472 0.930 . S
H493 C484 0.929 . S
H494 C487 0.930 1_554 S
C495 C496 1.351 . S
C495 N498 1.368 . S
C495 H500 0.931 . S
C496 C495 1.351 . S
C496 N497 1.373 . S
C496 H524 0.930 . S
N497 C496 1.373 . S
N497 C499 1.340 . S
N498 C495 1.368 . S
N498 C499 1.321 . S
N498 Co501 2.135 . S
C499 N497 1.340 . S
C499 N498 1.321 . S
C499 H523 0.930 . S
H500 C495 0.931 . S
Co501 N498 2.135 . S
Co501 N504 2.121 . S
Co501 O509 2.055 . S
Co501 O512 2.039 . S
Co501 N515 2.140 . S
C502 O503 1.227 . S
C502 O512 1.265 . S
O503 C502 1.227 . S
N504 Co501 2.121 . S
N504 C506 1.375 . S
N504 C507 1.313 . S
C505 C506 1.338 . S
C505 N508 1.377 . S
C505 H525 0.930 . S
C506 N504 1.375 . S
C506 C505 1.338 . S
C506 H510 0.931 . S
C507 N504 1.313 . S
C507 N508 1.344 . S
C507 H511 0.930 . S
N508 C505 1.377 . S
N508 C507 1.344 . S
O509 Co501 2.055 . S
O509 C513 1.253 . S
H510 C506 0.931 . S
H511 C507 0.930 . S
O512 Co501 2.039 . S
O512 C502 1.265 . S
C513 O509 1.253 . S
C513 O514 1.227 . S
O514 C513 1.227 . S
N515 Co501 2.140 . S
N515 C518 1.346 . S
N515 C519 1.345 . S
C516 C517 1.387 . S
C516 C520 1.391 . S
C517 C516 1.387 . S
C517 C518 1.369 . S
C517 H526 0.929 . S
C518 N515 1.346 . S
C518 C517 1.369 . S
C518 H521 0.928 . S
C519 N515 1.345 . S
C519 C520 1.371 . S
C519 H522 0.931 . S
C520 C516 1.391 . S
C520 C519 1.371 . S
C520 H527 0.930 . S
H521 C518 0.928 . S
H522 C519 0.931 . S
H523 C499 0.930 . S
H524 C496 0.930 . S
H525 C505 0.930 . S
H526 C517 0.929 . S
H527 C520 0.930 . S
C528 C529 1.351 . S
C528 N531 1.368 . S
C528 H533 0.931 . S
C529 C528 1.351 . S
C529 N530 1.373 . S
C529 H557 0.930 . S
N530 C529 1.373 . S
N530 C532 1.340 . S
N531 C528 1.368 . S
N531 C532 1.321 . S
N531 Co534 2.135 . S
C532 N530 1.340 . S
C532 N531 1.321 . S
C532 H556 0.930 . S
H533 C528 0.931 . S
Co534 N531 2.135 . S
Co534 N537 2.121 . S
Co534 O542 2.055 . S
Co534 O545 2.039 . S
Co534 N548 2.140 . S
C535 O536 1.227 . S
C535 O545 1.265 . S
O536 C535 1.227 . S
N537 Co534 2.121 . S
N537 C539 1.375 . S
N537 C540 1.313 . S
C538 C539 1.338 1_556 S
C538 N541 1.377 . S
C538 H558 0.930 . S
C539 N537 1.375 . S
C539 C538 1.338 1_554 S
C539 H543 0.931 . S
C540 N537 1.313 . S
C540 N541 1.344 1_554 S
C540 H544 0.930 . S
N541 C538 1.377 . S
N541 C540 1.344 1_556 S
O542 Co534 2.055 . S
O542 C546 1.253 . S
H543 C539 0.931 . S
H544 C540 0.930 . S
O545 Co534 2.039 . S
O545 C535 1.265 . S
C546 O542 1.253 . S
C546 O547 1.227 . S
O547 C546 1.227 . S
N548 Co534 2.140 . S
N548 C551 1.346 . S
N548 C552 1.345 . S
C549 C550 1.424 . S
C549 C553 1.394 . S
C550 C549 1.424 . S
C550 C551 1.369 . S
C550 H559 0.929 . S
C551 N548 1.346 . S
C551 C550 1.369 . S
C551 H554 0.928 . S
C552 N548 1.345 . S
C552 C553 1.371 . S
C552 H555 0.931 . S
C553 C549 1.394 . S
C553 C552 1.371 . S
C553 H560 0.930 1_455 S
H554 C551 0.928 . S
H555 C552 0.931 . S
H556 C532 0.930 . S
H557 C529 0.930 . S
H558 C538 0.930 . S
H559 C550 0.929 . S
H560 C553 0.930 1_655 S
C561 C562 1.351 . S
C561 N564 1.368 . S
C561 H566 0.931 . S
C562 C561 1.351 . S
C562 N563 1.373 . S
C562 H590 0.930 . S
N563 C562 1.373 . S
N563 C565 1.340 . S
N564 C561 1.368 . S
N564 C565 1.321 . S
N564 Co567 2.135 . S
C565 N563 1.340 . S
C565 N564 1.321 . S
C565 H589 0.930 . S
H566 C561 0.931 . S
Co567 N564 2.135 . S
Co567 N570 2.121 . S
Co567 O575 2.055 . S
Co567 O578 2.039 . S
Co567 N581 2.140 . S
C568 O569 1.227 . S
C568 O578 1.265 . S
O569 C568 1.227 . S
N570 Co567 2.121 . S
N570 C572 1.375 . S
N570 C573 1.313 . S
C571 C572 1.338 1_554 S
C571 N574 1.377 . S
C571 H591 0.930 . S
C572 N570 1.375 . S
C572 C571 1.338 1_556 S
C572 H576 0.931 . S
C573 N570 1.313 . S
C573 N574 1.344 1_556 S
C573 H577 0.930 . S
N574 C571 1.377 . S
N574 C573 1.344 1_554 S
O575 Co567 2.055 . S
O575 C579 1.253 . S
H576 C572 0.931 . S
H577 C573 0.930 . S
O578 Co567 2.039 . S
O578 C568 1.265 . S
C579 O575 1.253 . S
C579 O580 1.227 . S
O580 C579 1.227 . S
N581 Co567 2.140 . S
N581 C584 1.346 . S
N581 C585 1.345 . S
C582 C583 1.387 . S
C582 C586 1.391 . S
C583 C582 1.387 . S
C583 C584 1.369 . S
C583 H592 0.929 . S
C584 N581 1.346 . S
C584 C583 1.369 . S
C584 H587 0.928 . S
C585 N581 1.345 . S
C585 C586 1.371 . S
C585 H588 0.931 . S
C586 C582 1.391 . S
C586 C585 1.371 . S
C586 H593 0.930 . S
H587 C584 0.928 . S
H588 C585 0.931 . S
H589 C565 0.930 . S
H590 C562 0.930 . S
H591 C571 0.930 . S
H592 C583 0.929 . S
H593 C586 0.930 . S
C594 C595 1.351 . S
C594 N597 1.368 . S
C594 H599 0.931 . S
C595 C594 1.351 . S
C595 N596 1.373 . S
C595 H623 0.930 . S
N596 C595 1.373 . S
N596 C598 1.340 . S
N597 C594 1.368 . S
N597 C598 1.321 . S
N597 Co600 2.135 . S
C598 N596 1.340 . S
C598 N597 1.321 . S
C598 H622 0.930 . S
H599 C594 0.931 . S
Co600 N597 2.135 . S
Co600 N603 2.121 . S
Co600 O608 2.055 . S
Co600 O611 2.039 . S
Co600 N614 2.140 . S
C601 O602 1.227 . S
C601 O611 1.265 . S
O602 C601 1.227 . S
N603 Co600 2.121 . S
N603 C605 1.375 . S
N603 C606 1.313 . S
C604 C605 1.338 . S
C604 N607 1.377 . S
C604 H624 0.930 . S
C605 N603 1.375 . S
C605 C604 1.338 . S
C605 H609 0.931 . S
C606 N603 1.313 . S
C606 N607 1.344 . S
C606 H610 0.930 . S
N607 C604 1.377 . S
N607 C606 1.344 . S
O608 Co600 2.055 . S
O608 C612 1.253 . S
H609 C605 0.931 . S
H610 C606 0.930 . S
O611 Co600 2.039 . S
O611 C601 1.265 . S
C612 O608 1.253 . S
C612 O613 1.227 . S
O613 C612 1.227 . S
N614 Co600 2.140 . S
N614 C617 1.346 . S
N614 C618 1.345 . S
C615 C616 1.387 . S
C615 C619 1.391 . S
C616 C615 1.387 . S
C616 C617 1.369 . S
C616 H625 0.929 . S
C617 N614 1.346 . S
C617 C616 1.369 . S
C617 H620 0.928 . S
C618 N614 1.345 . S
C618 C619 1.371 . S
C618 H621 0.931 . S
C619 C615 1.391 . S
C619 C618 1.371 . S
C619 H626 0.930 . S
H620 C617 0.928 . S
H621 C618 0.931 . S
H622 C598 0.930 . S
H623 C595 0.930 . S
H624 C604 0.930 . S
H625 C616 0.929 . S
H626 C619 0.930 . S
C627 C628 1.351 . S
C627 N630 1.368 . S
C627 H632 0.931 . S
C628 C627 1.351 . S
C628 N629 1.373 . S
C628 H656 0.930 . S
N629 C628 1.373 . S
N629 C631 1.340 . S
N630 C627 1.368 . S
N630 C631 1.321 . S
N630 Co633 2.135 . S
C631 N629 1.340 . S
C631 N630 1.321 . S
C631 H655 0.930 . S
H632 C627 0.931 . S
Co633 N630 2.135 . S
Co633 N636 2.121 . S
Co633 O641 2.055 . S
Co633 O644 2.039 . S
Co633 N647 2.140 . S
C634 O635 1.227 . S
C634 O644 1.265 . S
O635 C634 1.227 . S
N636 Co633 2.121 . S
N636 C638 1.375 . S
N636 C639 1.313 . S
C637 C638 1.338 . S
C637 N640 1.377 . S
C637 H657 0.930 . S
C638 N636 1.375 . S
C638 C637 1.338 . S
C638 H642 0.931 . S
C639 N636 1.313 . S
C639 N640 1.344 . S
C639 H643 0.930 . S
N640 C637 1.377 . S
N640 C639 1.344 . S
O641 Co633 2.055 . S
O641 C645 1.253 . S
H642 C638 0.931 . S
H643 C639 0.930 . S
O644 Co633 2.039 . S
O644 C634 1.265 . S
C645 O641 1.253 . S
C645 O646 1.227 . S
O646 C645 1.227 . S
N647 Co633 2.140 . S
N647 C650 1.346 . S
N647 C651 1.345 . S
C648 C649 1.423 . S
C648 C652 1.394 . S
C649 C648 1.423 . S
C649 C650 1.369 . S
C649 H658 0.929 . S
C650 N647 1.346 . S
C650 C649 1.369 . S
C650 H653 0.928 . S
C651 N647 1.345 . S
C651 C652 1.371 . S
C651 H654 0.931 . S
C652 C648 1.394 . S
C652 C651 1.371 . S
C652 H659 0.930 1_655 S
H653 C650 0.928 . S
H654 C651 0.931 . S
H655 C631 0.930 . S
H656 C628 0.930 . S
H657 C637 0.930 . S
H658 C649 0.929 . S
H659 C652 0.930 1_455 S
C660 C661 1.351 . S
C660 N663 1.368 . S
C660 H665 0.931 . S
C661 C660 1.351 . S
C661 N662 1.373 . S
C661 H689 0.930 . S
N662 C661 1.373 . S
N662 C664 1.340 . S
N663 C660 1.368 . S
N663 C664 1.321 . S
N663 Co666 2.135 . S
C664 N662 1.340 . S
C664 N663 1.321 . S
C664 H688 0.930 . S
H665 C660 0.931 . S
Co666 N663 2.135 . S
Co666 N669 2.121 . S
Co666 O674 2.055 . S
Co666 O677 2.039 . S
Co666 N680 2.140 . S
C667 O668 1.227 . S
C667 O677 1.265 . S
O668 C667 1.227 . S
N669 Co666 2.121 . S
N669 C671 1.375 . S
N669 C672 1.313 . S
C670 C671 1.338 . S
C670 N673 1.377 . S
C670 H690 0.930 . S
C671 N669 1.375 . S
C671 C670 1.338 . S
C671 H675 0.931 . S
C672 N669 1.313 . S
C672 N673 1.344 . S
C672 H676 0.930 . S
N673 C670 1.377 . S
N673 C672 1.344 . S
O674 Co666 2.055 . S
O674 C678 1.253 . S
H675 C671 0.931 . S
H676 C672 0.930 . S
O677 Co666 2.039 . S
O677 C667 1.265 . S
C678 O674 1.253 . S
C678 O679 1.227 . S
O679 C678 1.227 . S
N680 Co666 2.140 . S
N680 C683 1.346 . S
N680 C684 1.345 . S
C681 C682 1.387 . S
C681 C685 1.391 . S
C682 C681 1.387 . S
C682 C683 1.369 . S
C682 H691 0.929 . S
C683 N680 1.346 . S
C683 C682 1.369 . S
C683 H686 0.928 . S
C684 N680 1.345 . S
C684 C685 1.371 . S
C684 H687 0.931 . S
C685 C681 1.391 . S
C685 C684 1.371 . S
C685 H692 0.930 . S
H686 C683 0.928 . S
H687 C684 0.931 . S
H688 C664 0.930 . S
H689 C661 0.930 . S
H690 C670 0.930 . S
H691 C682 0.929 . S
H692 C685 0.930 . S
C693 C694 1.351 . S
C693 N696 1.368 . S
C693 H698 0.931 . S
C694 C693 1.351 . S
C694 N695 1.373 . S
C694 H722 0.930 . S
N695 C694 1.373 . S
N695 C697 1.340 . S
N696 C693 1.368 . S
N696 C697 1.321 . S
N696 Co699 2.135 . S
C697 N695 1.340 . S
C697 N696 1.321 . S
C697 H721 0.930 . S
H698 C693 0.931 . S
Co699 N696 2.135 . S
Co699 N702 2.121 . S
Co699 O707 2.055 . S
Co699 O710 2.039 . S
Co699 N713 2.140 . S
C700 O701 1.227 . S
C700 O710 1.265 . S
O701 C700 1.227 . S
N702 Co699 2.121 . S
N702 C704 1.375 . S
N702 C705 1.313 . S
C703 C704 1.338 . S
C703 N706 1.377 . S
C703 H723 0.930 . S
C704 N702 1.375 . S
C704 C703 1.338 . S
C704 H708 0.931 . S
C705 N702 1.313 . S
C705 N706 1.344 . S
C705 H709 0.930 . S
N706 C703 1.377 . S
N706 C705 1.344 . S
O707 Co699 2.055 . S
O707 C711 1.253 . S
H708 C704 0.931 . S
H709 C705 0.930 . S
O710 Co699 2.039 . S
O710 C700 1.265 . S
C711 O707 1.253 . S
C711 O712 1.227 . S
O712 C711 1.227 . S
N713 Co699 2.140 . S
N713 C716 1.346 . S
N713 C717 1.345 . S
C714 C715 1.387 . S
C714 C718 1.391 . S
C715 C714 1.387 . S
C715 C716 1.369 . S
C715 H724 0.929 . S
C716 N713 1.346 . S
C716 C715 1.369 . S
C716 H719 0.928 . S
C717 N713 1.345 . S
C717 C718 1.371 . S
C717 H720 0.931 . S
C718 C714 1.391 . S
C718 C717 1.371 . S
C718 H725 0.930 . S
H719 C716 0.928 . S
H720 C717 0.931 . S
H721 C697 0.930 . S
H722 C694 0.930 . S
H723 C703 0.930 . S
H724 C715 0.929 . S
H725 C718 0.930 . S
C726 C727 1.351 . S
C726 N729 1.368 . S
C726 H731 0.931 . S
C727 C726 1.351 . S
C727 N728 1.373 . S
C727 H755 0.930 . S
N728 C727 1.373 . S
N728 C730 1.340 . S
N729 C726 1.368 . S
N729 C730 1.321 . S
N729 Co732 2.135 . S
C730 N728 1.340 . S
C730 N729 1.321 . S
C730 H754 0.930 . S
H731 C726 0.931 . S
Co732 N729 2.135 . S
Co732 N735 2.121 . S
Co732 O740 2.055 . S
Co732 O743 2.039 . S
Co732 N746 2.140 . S
C733 O734 1.227 . S
C733 O743 1.265 . S
O734 C733 1.227 . S
N735 Co732 2.121 . S
N735 C737 1.375 . S
N735 C738 1.313 . S
C736 C737 1.338 . S
C736 N739 1.377 . S
C736 H756 0.930 . S
C737 N735 1.375 . S
C737 C736 1.338 . S
C737 H741 0.931 . S
C738 N735 1.313 . S
C738 N739 1.344 . S
C738 H742 0.930 . S
N739 C736 1.377 . S
N739 C738 1.344 . S
O740 Co732 2.055 . S
O740 C744 1.253 . S
H741 C737 0.931 . S
H742 C738 0.930 . S
O743 Co732 2.039 . S
O743 C733 1.265 . S
C744 O740 1.253 . S
C744 O745 1.227 . S
O745 C744 1.227 . S
N746 Co732 2.140 . S
N746 C749 1.346 . S
N746 C750 1.345 . S
C747 C748 1.387 . S
C747 C751 1.391 . S
C748 C747 1.387 . S
C748 C749 1.369 . S
C748 H757 0.929 . S
C749 N746 1.346 . S
C749 C748 1.369 . S
C749 H752 0.928 . S
C750 N746 1.345 . S
C750 C751 1.371 . S
C750 H753 0.931 . S
C751 C747 1.391 . S
C751 C750 1.371 . S
C751 H758 0.930 . S
H752 C749 0.928 . S
H753 C750 0.931 . S
H754 C730 0.930 . S
H755 C727 0.930 . S
H756 C736 0.930 . S
H757 C748 0.929 . S
H758 C751 0.930 . S
C759 C760 1.351 . S
C759 N762 1.368 . S
C759 H764 0.931 . S
C760 C759 1.351 . S
C760 N761 1.373 . S
C760 H788 0.930 . S
N761 C760 1.373 . S
N761 C763 1.340 . S
N762 C759 1.368 . S
N762 C763 1.321 . S
N762 Co765 2.135 . S
C763 N761 1.340 . S
C763 N762 1.321 . S
C763 H787 0.930 . S
H764 C759 0.931 . S
Co765 N762 2.135 . S
Co765 N768 2.121 . S
Co765 O773 2.055 . S
Co765 O776 2.039 . S
Co765 N779 2.140 . S
C766 O767 1.227 . S
C766 O776 1.265 . S
O767 C766 1.227 . S
N768 Co765 2.121 . S
N768 C770 1.375 . S
N768 C771 1.313 . S
C769 C770 1.338 . S
C769 N772 1.377 . S
C769 H789 0.930 . S
C770 N768 1.375 . S
C770 C769 1.338 . S
C770 H774 0.931 . S
C771 N768 1.313 . S
C771 N772 1.344 . S
C771 H775 0.930 . S
N772 C769 1.377 . S
N772 C771 1.344 . S
O773 Co765 2.055 . S
O773 C777 1.253 . S
H774 C770 0.931 . S
H775 C771 0.930 . S
O776 Co765 2.039 . S
O776 C766 1.265 . S
C777 O773 1.253 . S
C777 O778 1.227 . S
O778 C777 1.227 . S
N779 Co765 2.140 . S
N779 C782 1.346 . S
N779 C783 1.345 . S
C780 C781 1.387 . S
C780 C784 1.391 . S
C781 C780 1.387 . S
C781 C782 1.369 . S
C781 H790 0.929 . S
C782 N779 1.346 . S
C782 C781 1.369 . S
C782 H785 0.928 . S
C783 N779 1.345 . S
C783 C784 1.371 . S
C783 H786 0.931 . S
C784 C780 1.391 . S
C784 C783 1.371 . S
C784 H791 0.930 . S
H785 C782 0.928 . S
H786 C783 0.931 . S
H787 C763 0.930 . S
H788 C760 0.930 . S
H789 C769 0.930 . S
H790 C781 0.929 . S
H791 C784 0.930 . S
C792 C793 1.351 . S
C792 N795 1.368 . S
C792 H797 0.931 . S
C793 C792 1.351 . S
C793 N794 1.373 . S
C793 H821 0.930 . S
N794 C793 1.373 . S
N794 C796 1.340 . S
N795 C792 1.368 . S
N795 C796 1.321 . S
N795 Co798 2.135 . S
C796 N794 1.340 . S
C796 N795 1.321 . S
C796 H820 0.930 . S
H797 C792 0.931 . S
Co798 N795 2.135 . S
Co798 N801 2.121 . S
Co798 O806 2.055 . S
Co798 O809 2.039 . S
Co798 N812 2.140 . S
C799 O800 1.227 . S
C799 O809 1.265 . S
O800 C799 1.227 . S
N801 Co798 2.121 . S
N801 C803 1.375 . S
N801 C804 1.313 . S
C802 C803 1.338 . S
C802 N805 1.377 . S
C802 H822 0.930 . S
C803 N801 1.375 . S
C803 C802 1.338 . S
C803 H807 0.931 . S
C804 N801 1.313 . S
C804 N805 1.344 . S
C804 H808 0.930 . S
N805 C802 1.377 . S
N805 C804 1.344 . S
O806 Co798 2.055 . S
O806 C810 1.253 . S
H807 C803 0.931 . S
H808 C804 0.930 . S
O809 Co798 2.039 . S
O809 C799 1.265 . S
C810 O806 1.253 . S
C810 O811 1.227 . S
O811 C810 1.227 . S
N812 Co798 2.140 . S
N812 C815 1.346 . S
N812 C816 1.345 . S
C813 C814 1.387 . S
C813 C817 1.391 . S
C814 C813 1.387 . S
C814 C815 1.369 . S
C814 H823 0.929 . S
C815 N812 1.346 . S
C815 C814 1.369 . S
C815 H818 0.928 . S
C816 N812 1.345 . S
C816 C817 1.371 . S
C816 H819 0.931 . S
C817 C813 1.391 . S
C817 C816 1.371 . S
C817 H824 0.930 . S
H818 C815 0.928 . S
H819 C816 0.931 . S
H820 C796 0.930 . S
H821 C793 0.930 . S
H822 C802 0.930 . S
H823 C814 0.929 . S
H824 C817 0.930 . S
C825 C826 1.351 . S
C825 N828 1.368 . S
C825 H830 0.931 . S
C826 C825 1.351 . S
C826 N827 1.373 . S
C826 H854 0.930 . S
N827 C826 1.373 . S
N827 C829 1.340 . S
N828 C825 1.368 . S
N828 C829 1.321 . S
N828 Co831 2.135 . S
C829 N827 1.340 . S
C829 N828 1.321 . S
C829 H853 0.930 . S
H830 C825 0.931 . S
Co831 N828 2.135 . S
Co831 N834 2.121 . S
Co831 O839 2.055 . S
Co831 O842 2.039 . S
Co831 N845 2.140 . S
C832 O833 1.227 . S
C832 O842 1.265 . S
O833 C832 1.227 . S
N834 Co831 2.121 . S
N834 C836 1.375 . S
N834 C837 1.313 . S
C835 C836 1.338 . S
C835 N838 1.377 . S
C835 H855 0.930 . S
C836 N834 1.375 . S
C836 C835 1.338 . S
C836 H840 0.931 . S
C837 N834 1.313 . S
C837 N838 1.344 . S
C837 H841 0.930 . S
N838 C835 1.377 . S
N838 C837 1.344 . S
O839 Co831 2.055 . S
O839 C843 1.253 . S
H840 C836 0.931 . S
H841 C837 0.930 . S
O842 Co831 2.039 . S
O842 C832 1.265 . S
C843 O839 1.253 . S
C843 O844 1.227 . S
O844 C843 1.227 . S
N845 Co831 2.140 . S
N845 C848 1.346 . S
N845 C849 1.345 . S
C846 C847 1.387 . S
C846 C850 1.391 . S
C847 C846 1.387 . S
C847 C848 1.369 . S
C847 H856 0.929 . S
C848 N845 1.346 . S
C848 C847 1.369 . S
C848 H851 0.928 . S
C849 N845 1.345 . S
C849 C850 1.371 . S
C849 H852 0.931 . S
C850 C846 1.391 . S
C850 C849 1.371 . S
C850 H857 0.930 . S
H851 C848 0.928 . S
H852 C849 0.931 . S
H853 C829 0.930 . S
H854 C826 0.930 . S
H855 C835 0.930 . S
H856 C847 0.929 . S
H857 C850 0.930 . S
C858 C859 1.351 . S
C858 N861 1.368 . S
C858 H863 0.931 . S
C859 C858 1.351 . S
C859 N860 1.373 . S
C859 H887 0.930 . S
N860 C859 1.373 . S
N860 C862 1.340 . S
N861 C858 1.368 . S
N861 C862 1.321 . S
N861 Co864 2.135 . S
C862 N860 1.340 . S
C862 N861 1.321 . S
C862 H886 0.930 . S
H863 C858 0.931 . S
Co864 N861 2.135 . S
Co864 N867 2.121 . S
Co864 O872 2.055 . S
Co864 O875 2.039 . S
Co864 N878 2.140 . S
C865 O866 1.227 . S
C865 O875 1.265 . S
O866 C865 1.227 . S
N867 Co864 2.121 . S
N867 C869 1.375 . S
N867 C870 1.313 . S
C868 C869 1.338 1_455 S
C868 N871 1.377 . S
C868 H888 0.930 . S
C869 N867 1.375 . S
C869 C868 1.338 1_655 S
C869 H873 0.931 . S
C870 N867 1.313 . S
C870 N871 1.344 1_655 S
C870 H874 0.930 . S
N871 C868 1.377 . S
N871 C870 1.344 1_455 S
O872 Co864 2.055 . S
O872 C876 1.253 . S
H873 C869 0.931 . S
H874 C870 0.930 . S
O875 Co864 2.039 . S
O875 C865 1.265 . S
C876 O872 1.253 . S
C876 O877 1.227 . S
O877 C876 1.227 . S
N878 Co864 2.140 . S
N878 C881 1.346 . S
N878 C882 1.345 . S
C879 C880 1.387 . S
C879 C883 1.391 . S
C880 C879 1.387 . S
C880 C881 1.369 . S
C880 H889 0.929 . S
C881 N878 1.346 . S
C881 C880 1.369 . S
C881 H884 0.928 . S
C882 N878 1.345 . S
C882 C883 1.371 . S
C882 H885 0.931 . S
C883 C879 1.391 . S
C883 C882 1.371 . S
C883 H890 0.930 . S
H884 C881 0.928 . S
H885 C882 0.931 . S
H886 C862 0.930 . S
H887 C859 0.930 . S
H888 C868 0.930 . S
H889 C880 0.929 . S
H890 C883 0.930 . S
C891 C892 1.351 . S
C891 N894 1.368 . S
C891 H896 0.931 . S
C892 C891 1.351 . S
C892 N893 1.373 . S
C892 H920 0.930 . S
N893 C892 1.373 . S
N893 C895 1.340 . S
N894 C891 1.368 . S
N894 C895 1.321 . S
N894 Co897 2.135 . S
C895 N893 1.340 . S
C895 N894 1.321 . S
C895 H919 0.930 . S
H896 C891 0.931 . S
Co897 N894 2.135 . S
Co897 N900 2.121 . S
Co897 O905 2.055 . S
Co897 O908 2.039 . S
Co897 N911 2.140 . S
C898 O899 1.227 . S
C898 O908 1.265 . S
O899 C898 1.227 . S
N900 Co897 2.121 . S
N900 C902 1.375 . S
N900 C903 1.313 . S
C901 C902 1.338 . S
C901 N904 1.377 . S
C901 H921 0.930 . S
C902 N900 1.375 . S
C902 C901 1.338 . S
C902 H906 0.931 . S
C903 N900 1.313 . S
C903 N904 1.344 . S
C903 H907 0.930 . S
N904 C901 1.377 . S
N904 C903 1.344 . S
O905 Co897 2.055 . S
O905 C909 1.253 . S
H906 C902 0.931 . S
H907 C903 0.930 . S
O908 Co897 2.039 . S
O908 C898 1.265 . S
C909 O905 1.253 . S
C909 O910 1.227 . S
O910 C909 1.227 . S
N911 Co897 2.140 . S
N911 C914 1.346 . S
N911 C915 1.345 . S
C912 C913 1.387 . S
C912 C916 1.391 . S
C913 C912 1.387 . S
C913 C914 1.369 . S
C913 H922 0.929 . S
C914 N911 1.346 . S
C914 C913 1.369 . S
C914 H917 0.928 . S
C915 N911 1.345 . S
C915 C916 1.371 . S
C915 H918 0.931 . S
C916 C912 1.391 . S
C916 C915 1.371 . S
C916 H923 0.930 . S
H917 C914 0.928 . S
H918 C915 0.931 . S
H919 C895 0.930 . S
H920 C892 0.930 . S
H921 C901 0.930 . S
H922 C913 0.929 . S
H923 C916 0.930 . S
C924 C925 1.351 . S
C924 N927 1.368 . S
C924 H929 0.931 . S
C925 C924 1.351 . S
C925 N926 1.373 . S
C925 H953 0.930 . S
N926 C925 1.373 . S
N926 C928 1.340 . S
N927 C924 1.368 . S
N927 C928 1.321 . S
N927 Co930 2.135 . S
C928 N926 1.340 . S
C928 N927 1.321 . S
C928 H952 0.930 . S
H929 C924 0.931 . S
Co930 N927 2.135 . S
Co930 N933 2.121 . S
Co930 O938 2.055 . S
Co930 O941 2.039 . S
Co930 N944 2.140 . S
C931 O932 1.227 . S
C931 O941 1.265 . S
O932 C931 1.227 . S
N933 Co930 2.121 . S
N933 C935 1.375 . S
N933 C936 1.313 . S
C934 C935 1.338 . S
C934 N937 1.377 . S
C934 H954 0.930 . S
C935 N933 1.375 . S
C935 C934 1.338 . S
C935 H939 0.931 . S
C936 N933 1.313 . S
C936 N937 1.344 . S
C936 H940 0.930 . S
N937 C934 1.377 . S
N937 C936 1.344 . S
O938 Co930 2.055 . S
O938 C942 1.253 . S
H939 C935 0.931 . S
H940 C936 0.930 . S
O941 Co930 2.039 . S
O941 C931 1.265 . S
C942 O938 1.253 . S
C942 O943 1.227 . S
O943 C942 1.227 . S
N944 Co930 2.140 . S
N944 C947 1.346 . S
N944 C948 1.345 . S
C945 C946 1.387 . S
C945 C949 1.391 . S
C946 C945 1.387 . S
C946 C947 1.369 . S
C946 H955 0.929 . S
C947 N944 1.346 . S
C947 C946 1.369 . S
C947 H950 0.928 . S
C948 N944 1.345 . S
C948 C949 1.371 . S
C948 H951 0.931 . S
C949 C945 1.391 . S
C949 C948 1.371 . S
C949 H956 0.930 . S
H950 C947 0.928 . S
H951 C948 0.931 . S
H952 C928 0.930 . S
H953 C925 0.930 . S
H954 C934 0.930 . S
H955 C946 0.929 . S
H956 C949 0.930 . S
C957 C958 1.351 . S
C957 N960 1.368 . S
C957 H962 0.931 . S
C958 C957 1.351 . S
C958 N959 1.373 . S
C958 H986 0.930 . S
N959 C958 1.373 . S
N959 C961 1.340 . S
N960 C957 1.368 . S
N960 C961 1.321 . S
N960 Co963 2.135 . S
C961 N959 1.340 . S
C961 N960 1.321 . S
C961 H985 0.930 . S
H962 C957 0.931 . S
Co963 N960 2.135 . S
Co963 N966 2.121 . S
Co963 O971 2.055 . S
Co963 O974 2.039 . S
Co963 N977 2.140 . S
C964 O965 1.227 . S
C964 O974 1.265 . S
O965 C964 1.227 . S
N966 Co963 2.121 . S
N966 C968 1.375 . S
N966 C969 1.313 . S
C967 C968 1.338 . S
C967 N970 1.377 . S
C967 H987 0.930 . S
C968 N966 1.375 . S
C968 C967 1.338 . S
C968 H972 0.931 . S
C969 N966 1.313 . S
C969 N970 1.344 . S
C969 H973 0.930 . S
N970 C967 1.377 . S
N970 C969 1.344 . S
O971 Co963 2.055 . S
O971 C975 1.253 . S
H972 C968 0.931 . S
H973 C969 0.930 . S
O974 Co963 2.039 . S
O974 C964 1.265 . S
C975 O971 1.253 . S
C975 O976 1.227 . S
O976 C975 1.227 . S
N977 Co963 2.140 . S
N977 C980 1.346 . S
N977 C981 1.345 . S
C978 C979 1.387 . S
C978 C982 1.391 . S
C979 C978 1.387 . S
C979 C980 1.369 . S
C979 H988 0.929 . S
C980 N977 1.346 . S
C980 C979 1.369 . S
C980 H983 0.928 . S
C981 N977 1.345 . S
C981 C982 1.371 . S
C981 H984 0.931 . S
C982 C978 1.391 . S
C982 C981 1.371 . S
C982 H989 0.930 . S
H983 C980 0.928 . S
H984 C981 0.931 . S
H985 C961 0.930 . S
H986 C958 0.930 . S
H987 C967 0.930 . S
H988 C979 0.929 . S
H989 C982 0.930 . S
C990 C991 1.351 . S
C990 N993 1.368 . S
C990 H995 0.931 . S
C991 C990 1.351 . S
C991 N992 1.373 . S
C991 H1019 0.930 . S
N992 C991 1.373 . S
N992 C994 1.340 . S
N993 C990 1.368 . S
N993 C994 1.321 . S
N993 Co996 2.135 . S
C994 N992 1.340 . S
C994 N993 1.321 . S
C994 H1018 0.930 . S
H995 C990 0.931 . S
Co996 N993 2.135 . S
Co996 N999 2.121 . S
Co996 O1004 2.055 . S
Co996 O1007 2.039 . S
Co996 N1010 2.140 . S
C997 O998 1.227 . S
C997 O1007 1.265 . S
O998 C997 1.227 . S
N999 Co996 2.121 . S
N999 C1001 1.375 . S
N999 C1002 1.313 . S
C1000 C1001 1.338 1_455 S
C1000 N1003 1.377 . S
C1000 H1020 0.930 . S
C1001 N999 1.375 . S
C1001 C1000 1.338 1_655 S
C1001 H1005 0.931 . S
C1002 N999 1.313 . S
C1002 N1003 1.344 1_655 S
C1002 H1006 0.930 . S
N1003 C1000 1.377 . S
N1003 C1002 1.344 1_455 S
O1004 Co996 2.055 . S
O1004 C1008 1.253 . S
H1005 C1001 0.931 . S
H1006 C1002 0.930 . S
O1007 Co996 2.039 . S
O1007 C997 1.265 . S
C1008 O1004 1.253 . S
C1008 O1009 1.227 . S
O1009 C1008 1.227 . S
N1010 Co996 2.140 . S
N1010 C1013 1.346 . S
N1010 C1014 1.345 . S
C1011 C1012 1.387 . S
C1011 C1015 1.391 . S
C1012 C1011 1.387 . S
C1012 C1013 1.369 . S
C1012 H1021 0.929 . S
C1013 N1010 1.346 . S
C1013 C1012 1.369 . S
C1013 H1016 0.928 . S
C1014 N1010 1.345 . S
C1014 C1015 1.371 . S
C1014 H1017 0.931 . S
C1015 C1011 1.391 . S
C1015 C1014 1.371 . S
C1015 H1022 0.930 . S
H1016 C1013 0.928 . S
H1017 C1014 0.931 . S
H1018 C994 0.930 . S
H1019 C991 0.930 . S
H1020 C1000 0.930 . S
H1021 C1012 0.929 . S
H1022 C1015 0.930 . S
C1023 C1024 1.351 . S
C1023 N1026 1.368 . S
C1023 H1028 0.931 . S
C1024 C1023 1.351 . S
C1024 N1025 1.373 . S
C1024 H1052 0.930 . S
N1025 C1024 1.373 . S
N1025 C1027 1.340 . S
N1026 C1023 1.368 . S
N1026 C1027 1.321 . S
N1026 Co1029 2.135 . S
C1027 N1025 1.340 . S
C1027 N1026 1.321 . S
C1027 H1051 0.930 . S
H1028 C1023 0.931 . S
Co1029 N1026 2.135 . S
Co1029 N1032 2.121 . S
Co1029 O1037 2.055 . S
Co1029 O1040 2.039 . S
Co1029 N1043 2.140 . S
C1030 O1031 1.227 . S
C1030 O1040 1.265 . S
O1031 C1030 1.227 . S
N1032 Co1029 2.121 . S
N1032 C1034 1.375 . S
N1032 C1035 1.313 . S
C1033 C1034 1.338 . S
C1033 N1036 1.377 . S
C1033 H1053 0.930 . S
C1034 N1032 1.375 . S
C1034 C1033 1.338 . S
C1034 H1038 0.931 . S
C1035 N1032 1.313 . S
C1035 N1036 1.344 . S
C1035 H1039 0.930 . S
N1036 C1033 1.377 . S
N1036 C1035 1.344 . S
O1037 Co1029 2.055 . S
O1037 C1041 1.253 . S
H1038 C1034 0.931 . S
H1039 C1035 0.930 . S
O1040 Co1029 2.039 . S
O1040 C1030 1.265 . S
C1041 O1037 1.253 . S
C1041 O1042 1.227 . S
O1042 C1041 1.227 . S
N1043 Co1029 2.140 . S
N1043 C1046 1.346 . S
N1043 C1047 1.345 . S
C1044 C1045 1.387 . S
C1044 C1048 1.391 . S
C1045 C1044 1.387 . S
C1045 C1046 1.369 . S
C1045 H1054 0.929 . S
C1046 N1043 1.346 . S
C1046 C1045 1.369 . S
C1046 H1049 0.928 . S
C1047 N1043 1.345 . S
C1047 C1048 1.371 . S
C1047 H1050 0.931 . S
C1048 C1044 1.391 . S
C1048 C1047 1.371 . S
C1048 H1055 0.930 . S
H1049 C1046 0.928 . S
H1050 C1047 0.931 . S
H1051 C1027 0.930 . S
H1052 C1024 0.930 . S
H1053 C1033 0.930 . S
H1054 C1045 0.929 . S
H1055 C1048 0.930 . S
C1056 C1057 1.351 . S
C1056 N1059 1.368 . S
C1056 H1061 0.931 . S
C1057 C1056 1.351 . S
C1057 N1058 1.373 . S
C1057 H1085 0.930 . S
N1058 C1057 1.373 . S
N1058 C1060 1.340 . S
N1059 C1056 1.368 . S
N1059 C1060 1.321 . S
N1059 Co1062 2.135 . S
C1060 N1058 1.340 . S
C1060 N1059 1.321 . S
C1060 H1084 0.930 . S
H1061 C1056 0.931 . S
Co1062 N1059 2.135 . S
Co1062 N1065 2.121 . S
Co1062 O1070 2.055 . S
Co1062 O1073 2.039 . S
Co1062 N1076 2.140 . S
C1063 O1064 1.227 . S
C1063 O1073 1.265 . S
O1064 C1063 1.227 . S
N1065 Co1062 2.121 . S
N1065 C1067 1.375 . S
N1065 C1068 1.313 . S
C1066 C1067 1.338 . S
C1066 N1069 1.377 . S
C1066 H1086 0.930 . S
C1067 N1065 1.375 . S
C1067 C1066 1.338 . S
C1067 H1071 0.931 . S
C1068 N1065 1.313 . S
C1068 N1069 1.344 . S
C1068 H1072 0.930 . S
N1069 C1066 1.377 . S
N1069 C1068 1.344 . S
O1070 Co1062 2.055 . S
O1070 C1074 1.253 . S
H1071 C1067 0.931 . S
H1072 C1068 0.930 . S
O1073 Co1062 2.039 . S
O1073 C1063 1.265 . S
C1074 O1070 1.253 . S
C1074 O1075 1.227 . S
O1075 C1074 1.227 . S
N1076 Co1062 2.140 . S
N1076 C1079 1.346 . S
N1076 C1080 1.345 . S
C1077 C1078 1.387 . S
C1077 C1081 1.391 . S
C1078 C1077 1.387 . S
C1078 C1079 1.369 . S
C1078 H1087 0.929 . S
C1079 N1076 1.346 . S
C1079 C1078 1.369 . S
C1079 H1082 0.928 . S
C1080 N1076 1.345 . S
C1080 C1081 1.371 . S
C1080 H1083 0.931 . S
C1081 C1077 1.391 . S
C1081 C1080 1.371 . S
C1081 H1088 0.930 . S
H1082 C1079 0.928 . S
H1083 C1080 0.931 . S
H1084 C1060 0.930 . S
H1085 C1057 0.930 . S
H1086 C1066 0.930 . S
H1087 C1078 0.929 . S
H1088 C1081 0.930 . S
C1089 C1090 1.351 . S
C1089 N1092 1.368 . S
C1089 H1094 0.931 . S
C1090 C1089 1.351 . S
C1090 N1091 1.373 . S
C1090 H1118 0.930 . S
N1091 C1090 1.373 . S
N1091 C1093 1.340 . S
N1092 C1089 1.368 . S
N1092 C1093 1.321 . S
N1092 Co1095 2.135 . S
C1093 N1091 1.340 . S
C1093 N1092 1.321 . S
C1093 H1117 0.930 . S
H1094 C1089 0.931 . S
Co1095 N1092 2.135 . S
Co1095 N1098 2.121 . S
Co1095 O1103 2.055 . S
Co1095 O1106 2.039 . S
Co1095 N1109 2.140 . S
C1096 O1097 1.227 . S
C1096 O1106 1.265 . S
O1097 C1096 1.227 . S
N1098 Co1095 2.121 . S
N1098 C1100 1.375 . S
N1098 C1101 1.313 . S
C1099 C1100 1.338 . S
C1099 N1102 1.377 . S
C1099 H1119 0.930 . S
C1100 N1098 1.375 . S
C1100 C1099 1.338 . S
C1100 H1104 0.931 . S
C1101 N1098 1.313 . S
C1101 N1102 1.344 . S
C1101 H1105 0.930 . S
N1102 C1099 1.377 . S
N1102 C1101 1.344 . S
O1103 Co1095 2.055 . S
O1103 C1107 1.253 . S
H1104 C1100 0.931 . S
H1105 C1101 0.930 . S
O1106 Co1095 2.039 . S
O1106 C1096 1.265 . S
C1107 O1103 1.253 . S
C1107 O1108 1.227 . S
O1108 C1107 1.227 . S
N1109 Co1095 2.140 . S
N1109 C1112 1.346 . S
N1109 C1113 1.345 . S
C1110 C1111 1.387 . S
C1110 C1114 1.391 . S
C1111 C1110 1.387 . S
C1111 C1112 1.369 . S
C1111 H1120 0.929 . S
C1112 N1109 1.346 . S
C1112 C1111 1.369 . S
C1112 H1115 0.928 . S
C1113 N1109 1.345 . S
C1113 C1114 1.371 . S
C1113 H1116 0.931 . S
C1114 C1110 1.391 . S
C1114 C1113 1.371 . S
C1114 H1121 0.930 . S
H1115 C1112 0.928 . S
H1116 C1113 0.931 . S
H1117 C1093 0.930 . S
H1118 C1090 0.930 . S
H1119 C1099 0.930 . S
H1120 C1111 0.929 . S
H1121 C1114 0.930 . S
C1122 C1123 1.351 . S
C1122 N1125 1.368 . S
C1122 H1127 0.931 . S
C1123 C1122 1.351 . S
C1123 N1124 1.373 . S
C1123 H1151 0.930 . S
N1124 C1123 1.373 . S
N1124 C1126 1.340 . S
N1125 C1122 1.368 . S
N1125 C1126 1.321 . S
N1125 Co1128 2.135 . S
C1126 N1124 1.340 . S
C1126 N1125 1.321 . S
C1126 H1150 0.930 . S
H1127 C1122 0.931 . S
Co1128 N1125 2.135 . S
Co1128 N1131 2.121 . S
Co1128 O1136 2.055 . S
Co1128 O1139 2.039 . S
Co1128 N1142 2.140 . S
C1129 O1130 1.227 . S
C1129 O1139 1.265 . S
O1130 C1129 1.227 . S
N1131 Co1128 2.121 . S
N1131 C1133 1.375 . S
N1131 C1134 1.313 . S
C1132 C1133 1.338 . S
C1132 N1135 1.377 . S
C1132 H1152 0.930 . S
C1133 N1131 1.375 . S
C1133 C1132 1.338 . S
C1133 H1137 0.931 . S
C1134 N1131 1.313 . S
C1134 N1135 1.344 . S
C1134 H1138 0.930 . S
N1135 C1132 1.377 . S
N1135 C1134 1.344 . S
O1136 Co1128 2.055 . S
O1136 C1140 1.253 . S
H1137 C1133 0.931 . S
H1138 C1134 0.930 . S
O1139 Co1128 2.039 . S
O1139 C1129 1.265 . S
C1140 O1136 1.253 . S
C1140 O1141 1.227 . S
O1141 C1140 1.227 . S
N1142 Co1128 2.140 . S
N1142 C1145 1.346 . S
N1142 C1146 1.345 . S
C1143 C1144 1.425 . S
C1143 C1147 1.394 . S
C1144 C1143 1.425 . S
C1144 C1145 1.369 . S
C1144 H1153 0.929 . S
C1145 N1142 1.346 . S
C1145 C1144 1.369 . S
C1145 H1148 0.928 . S
C1146 N1142 1.345 . S
C1146 C1147 1.371 . S
C1146 H1149 0.931 . S
C1147 C1143 1.394 . S
C1147 C1146 1.371 . S
C1147 H1154 0.930 1_554 S
H1148 C1145 0.928 . S
H1149 C1146 0.931 . S
H1150 C1126 0.930 . S
H1151 C1123 0.930 . S
H1152 C1132 0.930 . S
H1153 C1144 0.929 . S
H1154 C1147 0.930 1_556 S
C1155 C1156 1.351 . S
C1155 N1158 1.368 . S
C1155 H1160 0.931 . S
C1156 C1155 1.351 . S
C1156 N1157 1.373 . S
C1156 H1184 0.930 . S
N1157 C1156 1.373 . S
N1157 C1159 1.340 . S
N1158 C1155 1.368 . S
N1158 C1159 1.321 . S
N1158 Co1161 2.135 . S
C1159 N1157 1.340 . S
C1159 N1158 1.321 . S
C1159 H1183 0.930 . S
H1160 C1155 0.931 . S
Co1161 N1158 2.135 . S
Co1161 N1164 2.121 . S
Co1161 O1169 2.055 . S
Co1161 O1172 2.039 . S
Co1161 N1175 2.140 . S
C1162 O1163 1.227 . S
C1162 O1172 1.265 . S
O1163 C1162 1.227 . S
N1164 Co1161 2.121 . S
N1164 C1166 1.375 . S
N1164 C1167 1.313 . S
C1165 C1166 1.338 . S
C1165 N1168 1.377 . S
C1165 H1185 0.930 . S
C1166 N1164 1.375 . S
C1166 C1165 1.338 . S
C1166 H1170 0.931 . S
C1167 N1164 1.313 . S
C1167 N1168 1.344 . S
C1167 H1171 0.930 . S
N1168 C1165 1.377 . S
N1168 C1167 1.344 . S
O1169 Co1161 2.055 . S
O1169 C1173 1.253 . S
H1170 C1166 0.931 . S
H1171 C1167 0.930 . S
O1172 Co1161 2.039 . S
O1172 C1162 1.265 . S
C1173 O1169 1.253 . S
C1173 O1174 1.227 . S
O1174 C1173 1.227 . S
N1175 Co1161 2.140 . S
N1175 C1178 1.346 . S
N1175 C1179 1.345 . S
C1176 C1177 1.387 . S
C1176 C1180 1.391 . S
C1177 C1176 1.387 . S
C1177 C1178 1.369 . S
C1177 H1186 0.929 . S
C1178 N1175 1.346 . S
C1178 C1177 1.369 . S
C1178 H1181 0.928 . S
C1179 N1175 1.345 . S
C1179 C1180 1.371 . S
C1179 H1182 0.931 . S
C1180 C1176 1.391 . S
C1180 C1179 1.371 . S
C1180 H1187 0.930 . S
H1181 C1178 0.928 . S
H1182 C1179 0.931 . S
H1183 C1159 0.930 . S
H1184 C1156 0.930 . S
H1185 C1165 0.930 . S
H1186 C1177 0.929 . S
H1187 C1180 0.930 . S
C1188 C1189 1.351 . S
C1188 N1191 1.368 . S
C1188 H1193 0.931 . S
C1189 C1188 1.351 . S
C1189 N1190 1.373 . S
C1189 H1217 0.930 . S
N1190 C1189 1.373 . S
N1190 C1192 1.340 . S
N1191 C1188 1.368 . S
N1191 C1192 1.321 . S
N1191 Co1194 2.135 . S
C1192 N1190 1.340 . S
C1192 N1191 1.321 . S
C1192 H1216 0.930 . S
H1193 C1188 0.931 . S
Co1194 N1191 2.135 . S
Co1194 N1197 2.121 . S
Co1194 O1202 2.055 . S
Co1194 O1205 2.039 . S
Co1194 N1208 2.140 . S
C1195 O1196 1.227 . S
C1195 O1205 1.265 . S
O1196 C1195 1.227 . S
N1197 Co1194 2.121 . S
N1197 C1199 1.375 . S
N1197 C1200 1.313 . S
C1198 C1199 1.338 . S
C1198 N1201 1.377 . S
C1198 H1218 0.930 . S
C1199 N1197 1.375 . S
C1199 C1198 1.338 . S
C1199 H1203 0.931 . S
C1200 N1197 1.313 . S
C1200 N1201 1.344 . S
C1200 H1204 0.930 . S
N1201 C1198 1.377 . S
N1201 C1200 1.344 . S
O1202 Co1194 2.055 . S
O1202 C1206 1.253 . S
H1203 C1199 0.931 . S
H1204 C1200 0.930 . S
O1205 Co1194 2.039 . S
O1205 C1195 1.265 . S
C1206 O1202 1.253 . S
C1206 O1207 1.227 . S
O1207 C1206 1.227 . S
N1208 Co1194 2.140 . S
N1208 C1211 1.346 . S
N1208 C1212 1.345 . S
C1209 C1210 1.423 . S
C1209 C1213 1.394 . S
C1210 C1209 1.423 . S
C1210 C1211 1.369 . S
C1210 H1219 0.929 . S
C1211 N1208 1.346 . S
C1211 C1210 1.369 . S
C1211 H1214 0.928 . S
C1212 N1208 1.345 . S
C1212 C1213 1.371 . S
C1212 H1215 0.931 . S
C1213 C1209 1.394 . S
C1213 C1212 1.371 . S
C1213 H1220 0.930 1_556 S
H1214 C1211 0.928 . S
H1215 C1212 0.931 . S
H1216 C1192 0.930 . S
H1217 C1189 0.930 . S
H1218 C1198 0.930 . S
H1219 C1210 0.929 . S
H1220 C1213 0.930 1_554 S
C1221 C1222 1.351 . S
C1221 N1224 1.368 . S
C1221 H1226 0.931 . S
C1222 C1221 1.351 . S
C1222 N1223 1.373 . S
C1222 H1250 0.930 . S
N1223 C1222 1.373 . S
N1223 C1225 1.340 . S
N1224 C1221 1.368 . S
N1224 C1225 1.321 . S
N1224 Co1227 2.135 . S
C1225 N1223 1.340 . S
C1225 N1224 1.321 . S
C1225 H1249 0.930 . S
H1226 C1221 0.931 . S
Co1227 N1224 2.135 . S
Co1227 N1230 2.121 . S
Co1227 O1235 2.055 . S
Co1227 O1238 2.039 . S
Co1227 N1241 2.140 . S
C1228 O1229 1.227 . S
C1228 O1238 1.265 . S
O1229 C1228 1.227 . S
N1230 Co1227 2.121 . S
N1230 C1232 1.375 . S
N1230 C1233 1.313 . S
C1231 C1232 1.338 . S
C1231 N1234 1.377 . S
C1231 H1251 0.930 . S
C1232 N1230 1.375 . S
C1232 C1231 1.338 . S
C1232 H1236 0.931 . S
C1233 N1230 1.313 . S
C1233 N1234 1.344 . S
C1233 H1237 0.930 . S
N1234 C1231 1.377 . S
N1234 C1233 1.344 . S
O1235 Co1227 2.055 . S
O1235 C1239 1.253 . S
H1236 C1232 0.931 . S
H1237 C1233 0.930 . S
O1238 Co1227 2.039 . S
O1238 C1228 1.265 . S
C1239 O1235 1.253 . S
C1239 O1240 1.227 . S
O1240 C1239 1.227 . S
N1241 Co1227 2.140 . S
N1241 C1244 1.346 . S
N1241 C1245 1.345 . S
C1242 C1243 1.387 . S
C1242 C1246 1.391 . S
C1243 C1242 1.387 . S
C1243 C1244 1.369 . S
C1243 H1252 0.929 . S
C1244 N1241 1.346 . S
C1244 C1243 1.369 . S
C1244 H1247 0.928 . S
C1245 N1241 1.345 . S
C1245 C1246 1.371 . S
C1245 H1248 0.931 . S
C1246 C1242 1.391 . S
C1246 C1245 1.371 . S
C1246 H1253 0.930 . S
H1247 C1244 0.928 . S
H1248 C1245 0.931 . S
H1249 C1225 0.930 . S
H1250 C1222 0.930 . S
H1251 C1231 0.930 . S
H1252 C1243 0.929 . S
H1253 C1246 0.930 . S
C1254 C1255 1.351 . S
C1254 N1257 1.368 . S
C1254 H1259 0.931 . S
C1255 C1254 1.351 . S
C1255 N1256 1.373 . S
C1255 H1283 0.930 . S
N1256 C1255 1.373 . S
N1256 C1258 1.340 . S
N1257 C1254 1.368 . S
N1257 C1258 1.321 . S
N1257 Co1260 2.135 . S
C1258 N1256 1.340 . S
C1258 N1257 1.321 . S
C1258 H1282 0.930 . S
H1259 C1254 0.931 . S
Co1260 N1257 2.135 . S
Co1260 N1263 2.121 . S
Co1260 O1268 2.055 . S
Co1260 O1271 2.039 . S
Co1260 N1274 2.140 . S
C1261 O1262 1.227 . S
C1261 O1271 1.265 . S
O1262 C1261 1.227 . S
N1263 Co1260 2.121 . S
N1263 C1265 1.375 . S
N1263 C1266 1.313 . S
C1264 C1265 1.338 . S
C1264 N1267 1.377 . S
C1264 H1284 0.930 . S
C1265 N1263 1.375 . S
C1265 C1264 1.338 . S
C1265 H1269 0.931 . S
C1266 N1263 1.313 . S
C1266 N1267 1.344 . S
C1266 H1270 0.930 . S
N1267 C1264 1.377 . S
N1267 C1266 1.344 . S
O1268 Co1260 2.055 . S
O1268 C1272 1.253 . S
H1269 C1265 0.931 . S
H1270 C1266 0.930 . S
O1271 Co1260 2.039 . S
O1271 C1261 1.265 . S
C1272 O1268 1.253 . S
C1272 O1273 1.227 . S
O1273 C1272 1.227 . S
N1274 Co1260 2.140 . S
N1274 C1277 1.346 . S
N1274 C1278 1.345 . S
C1275 C1276 1.387 . S
C1275 C1279 1.391 . S
C1276 C1275 1.387 . S
C1276 C1277 1.369 . S
C1276 H1285 0.929 . S
C1277 N1274 1.346 . S
C1277 C1276 1.369 . S
C1277 H1280 0.928 . S
C1278 N1274 1.345 . S
C1278 C1279 1.371 . S
C1278 H1281 0.931 . S
C1279 C1275 1.391 . S
C1279 C1278 1.371 . S
C1279 H1286 0.930 . S
H1280 C1277 0.928 . S
H1281 C1278 0.931 . S
H1282 C1258 0.930 . S
H1283 C1255 0.930 . S
H1284 C1264 0.930 . S
H1285 C1276 0.929 . S
H1286 C1279 0.930 . S
C1287 C1288 1.351 . S
C1287 N1290 1.368 . S
C1287 H1292 0.931 . S
C1288 C1287 1.351 . S
C1288 N1289 1.373 . S
C1288 H1316 0.930 . S
N1289 C1288 1.373 . S
N1289 C1291 1.340 . S
N1290 C1287 1.368 . S
N1290 C1291 1.321 . S
N1290 Co1293 2.135 . S
C1291 N1289 1.340 . S
C1291 N1290 1.321 . S
C1291 H1315 0.930 . S
H1292 C1287 0.931 . S
Co1293 N1290 2.135 . S
Co1293 N1296 2.121 . S
Co1293 O1301 2.055 . S
Co1293 O1304 2.039 . S
Co1293 N1307 2.140 . S
C1294 O1295 1.227 . S
C1294 O1304 1.265 . S
O1295 C1294 1.227 . S
N1296 Co1293 2.121 . S
N1296 C1298 1.375 . S
N1296 C1299 1.313 . S
C1297 C1298 1.338 . S
C1297 N1300 1.377 . S
C1297 H1317 0.930 . S
C1298 N1296 1.375 . S
C1298 C1297 1.338 . S
C1298 H1302 0.931 . S
C1299 N1296 1.313 . S
C1299 N1300 1.344 . S
C1299 H1303 0.930 . S
N1300 C1297 1.377 . S
N1300 C1299 1.344 . S
O1301 Co1293 2.055 . S
O1301 C1305 1.253 . S
H1302 C1298 0.931 . S
H1303 C1299 0.930 . S
O1304 Co1293 2.039 . S
O1304 C1294 1.265 . S
C1305 O1301 1.253 . S
C1305 O1306 1.227 . S
O1306 C1305 1.227 . S
N1307 Co1293 2.140 . S
N1307 C1310 1.346 . S
N1307 C1311 1.345 . S
C1308 C1309 1.387 . S
C1308 C1312 1.391 . S
C1309 C1308 1.387 . S
C1309 C1310 1.369 . S
C1309 H1318 0.929 . S
C1310 N1307 1.346 . S
C1310 C1309 1.369 . S
C1310 H1313 0.928 . S
C1311 N1307 1.345 . S
C1311 C1312 1.371 . S
C1311 H1314 0.931 . S
C1312 C1308 1.391 . S
C1312 C1311 1.371 . S
C1312 H1319 0.930 . S
H1313 C1310 0.928 . S
H1314 C1311 0.931 . S
H1315 C1291 0.930 . S
H1316 C1288 0.930 . S
H1317 C1297 0.930 . S
H1318 C1309 0.929 . S
H1319 C1312 0.930 . S
C1320 C1321 1.351 . S
C1320 N1323 1.368 . S
C1320 H1325 0.931 . S
C1321 C1320 1.351 . S
C1321 N1322 1.373 . S
C1321 H1349 0.930 . S
N1322 C1321 1.373 . S
N1322 C1324 1.340 . S
N1323 C1320 1.368 . S
N1323 C1324 1.321 . S
N1323 Co1326 2.135 . S
C1324 N1322 1.340 . S
C1324 N1323 1.321 . S
C1324 H1348 0.930 . S
H1325 C1320 0.931 . S
Co1326 N1323 2.135 . S
Co1326 N1329 2.121 . S
Co1326 O1334 2.055 . S
Co1326 O1337 2.039 . S
Co1326 N1340 2.140 . S
C1327 O1328 1.227 . S
C1327 O1337 1.265 . S
O1328 C1327 1.227 . S
N1329 Co1326 2.121 . S
N1329 C1331 1.375 . S
N1329 C1332 1.313 . S
C1330 C1331 1.338 . S
C1330 N1333 1.377 . S
C1330 H1350 0.930 . S
C1331 N1329 1.375 . S
C1331 C1330 1.338 . S
C1331 H1335 0.931 . S
C1332 N1329 1.313 . S
C1332 N1333 1.344 . S
C1332 H1336 0.930 . S
N1333 C1330 1.377 . S
N1333 C1332 1.344 . S
O1334 Co1326 2.055 . S
O1334 C1338 1.253 . S
H1335 C1331 0.931 . S
H1336 C1332 0.930 . S
O1337 Co1326 2.039 . S
O1337 C1327 1.265 . S
C1338 O1334 1.253 . S
C1338 O1339 1.227 . S
O1339 C1338 1.227 . S
N1340 Co1326 2.140 . S
N1340 C1343 1.346 . S
N1340 C1344 1.345 . S
C1341 C1342 1.387 . S
C1341 C1345 1.391 . S
C1342 C1341 1.387 . S
C1342 C1343 1.369 . S
C1342 H1351 0.929 . S
C1343 N1340 1.346 . S
C1343 C1342 1.369 . S
C1343 H1346 0.928 . S
C1344 N1340 1.345 . S
C1344 C1345 1.371 . S
C1344 H1347 0.931 . S
C1345 C1341 1.391 . S
C1345 C1344 1.371 . S
C1345 H1352 0.930 . S
H1346 C1343 0.928 . S
H1347 C1344 0.931 . S
H1348 C1324 0.930 . S
H1349 C1321 0.930 . S
H1350 C1330 0.930 . S
H1351 C1342 0.929 . S
H1352 C1345 0.930 . S
C1353 C1354 1.351 . S
C1353 N1356 1.368 . S
C1353 H1358 0.931 . S
C1354 C1353 1.351 . S
C1354 N1355 1.373 . S
C1354 H1382 0.930 . S
N1355 C1354 1.373 . S
N1355 C1357 1.340 . S
N1356 C1353 1.368 . S
N1356 C1357 1.321 . S
N1356 Co1359 2.135 . S
C1357 N1355 1.340 . S
C1357 N1356 1.321 . S
C1357 H1381 0.930 . S
H1358 C1353 0.931 . S
Co1359 N1356 2.135 . S
Co1359 N1362 2.121 . S
Co1359 O1367 2.055 . S
Co1359 O1370 2.039 . S
Co1359 N1373 2.140 . S
C1360 O1361 1.227 . S
C1360 O1370 1.265 . S
O1361 C1360 1.227 . S
N1362 Co1359 2.121 . S
N1362 C1364 1.375 . S
N1362 C1365 1.313 . S
C1363 C1364 1.338 . S
C1363 N1366 1.377 . S
C1363 H1383 0.930 . S
C1364 N1362 1.375 . S
C1364 C1363 1.338 . S
C1364 H1368 0.931 . S
C1365 N1362 1.313 . S
C1365 N1366 1.344 . S
C1365 H1369 0.930 . S
N1366 C1363 1.377 . S
N1366 C1365 1.344 . S
O1367 Co1359 2.055 . S
O1367 C1371 1.253 . S
H1368 C1364 0.931 . S
H1369 C1365 0.930 . S
O1370 Co1359 2.039 . S
O1370 C1360 1.265 . S
C1371 O1367 1.253 . S
C1371 O1372 1.227 . S
O1372 C1371 1.227 . S
N1373 Co1359 2.140 . S
N1373 C1376 1.346 . S
N1373 C1377 1.345 . S
C1374 C1375 1.425 . S
C1374 C1378 1.394 . S
C1375 C1374 1.425 . S
C1375 C1376 1.369 . S
C1375 H1384 0.929 . S
C1376 N1373 1.346 . S
C1376 C1375 1.369 . S
C1376 H1379 0.928 . S
C1377 N1373 1.345 . S
C1377 C1378 1.371 . S
C1377 H1380 0.931 . S
C1378 C1374 1.394 . S
C1378 C1377 1.371 . S
C1378 H1385 0.930 1_455 S
H1379 C1376 0.928 . S
H1380 C1377 0.931 . S
H1381 C1357 0.930 . S
H1382 C1354 0.930 . S
H1383 C1363 0.930 . S
H1384 C1375 0.929 . S
H1385 C1378 0.930 1_655 S
C1386 C1387 1.351 . S
C1386 N1389 1.368 . S
C1386 H1391 0.931 . S
C1387 C1386 1.351 . S
C1387 N1388 1.373 . S
C1387 H1415 0.930 . S
N1388 C1387 1.373 . S
N1388 C1390 1.340 . S
N1389 C1386 1.368 . S
N1389 C1390 1.321 . S
N1389 Co1392 2.135 . S
C1390 N1388 1.340 . S
C1390 N1389 1.321 . S
C1390 H1414 0.930 . S
H1391 C1386 0.931 . S
Co1392 N1389 2.135 . S
Co1392 N1395 2.121 . S
Co1392 O1400 2.055 . S
Co1392 O1403 2.039 . S
Co1392 N1406 2.140 . S
C1393 O1394 1.227 . S
C1393 O1403 1.265 . S
O1394 C1393 1.227 . S
N1395 Co1392 2.121 . S
N1395 C1397 1.375 . S
N1395 C1398 1.313 . S
C1396 C1397 1.338 . S
C1396 N1399 1.377 . S
C1396 H1416 0.930 . S
C1397 N1395 1.375 . S
C1397 C1396 1.338 . S
C1397 H1401 0.931 . S
C1398 N1395 1.313 . S
C1398 N1399 1.344 . S
C1398 H1402 0.930 . S
N1399 C1396 1.377 . S
N1399 C1398 1.344 . S
O1400 Co1392 2.055 . S
O1400 C1404 1.253 . S
H1401 C1397 0.931 . S
H1402 C1398 0.930 . S
O1403 Co1392 2.039 . S
O1403 C1393 1.265 . S
C1404 O1400 1.253 . S
C1404 O1405 1.227 . S
O1405 C1404 1.227 . S
N1406 Co1392 2.140 . S
N1406 C1409 1.346 . S
N1406 C1410 1.345 . S
C1407 C1408 1.387 . S
C1407 C1411 1.391 . S
C1408 C1407 1.387 . S
C1408 C1409 1.369 . S
C1408 H1417 0.929 . S
C1409 N1406 1.346 . S
C1409 C1408 1.369 . S
C1409 H1412 0.928 . S
C1410 N1406 1.345 . S
C1410 C1411 1.371 . S
C1410 H1413 0.931 . S
C1411 C1407 1.391 . S
C1411 C1410 1.371 . S
C1411 H1418 0.930 . S
H1412 C1409 0.928 . S
H1413 C1410 0.931 . S
H1414 C1390 0.930 . S
H1415 C1387 0.930 . S
H1416 C1396 0.930 . S
H1417 C1408 0.929 . S
H1418 C1411 0.930 . S
C1419 C1420 1.351 . S
C1419 N1422 1.368 . S
C1419 H1424 0.931 . S
C1420 C1419 1.351 . S
C1420 N1421 1.373 . S
C1420 H1448 0.930 . S
N1421 C1420 1.373 . S
N1421 C1423 1.340 . S
N1422 C1419 1.368 . S
N1422 C1423 1.321 . S
N1422 Co1425 2.135 . S
C1423 N1421 1.340 . S
C1423 N1422 1.321 . S
C1423 H1447 0.930 . S
H1424 C1419 0.931 . S
Co1425 N1422 2.135 . S
Co1425 N1428 2.121 . S
Co1425 O1433 2.055 . S
Co1425 O1436 2.039 . S
Co1425 N1439 2.140 . S
C1426 O1427 1.227 . S
C1426 O1436 1.265 . S
O1427 C1426 1.227 . S
N1428 Co1425 2.121 . S
N1428 C1430 1.375 . S
N1428 C1431 1.313 . S
C1429 C1430 1.338 1_554 S
C1429 N1432 1.377 . S
C1429 H1449 0.930 . S
C1430 N1428 1.375 . S
C1430 C1429 1.338 1_556 S
C1430 H1434 0.931 . S
C1431 N1428 1.313 . S
C1431 N1432 1.344 1_556 S
C1431 H1435 0.930 . S
N1432 C1429 1.377 . S
N1432 C1431 1.344 1_554 S
O1433 Co1425 2.055 . S
O1433 C1437 1.253 . S
H1434 C1430 0.931 . S
H1435 C1431 0.930 . S
O1436 Co1425 2.039 . S
O1436 C1426 1.265 . S
C1437 O1433 1.253 . S
C1437 O1438 1.227 . S
O1438 C1437 1.227 . S
N1439 Co1425 2.140 . S
N1439 C1442 1.346 . S
N1439 C1443 1.345 . S
C1440 C1441 1.387 . S
C1440 C1444 1.391 . S
C1441 C1440 1.387 . S
C1441 C1442 1.369 . S
C1441 H1450 0.929 . S
C1442 N1439 1.346 . S
C1442 C1441 1.369 . S
C1442 H1445 0.928 . S
C1443 N1439 1.345 . S
C1443 C1444 1.371 . S
C1443 H1446 0.931 . S
C1444 C1440 1.391 . S
C1444 C1443 1.371 . S
C1444 H1451 0.930 . S
H1445 C1442 0.928 . S
H1446 C1443 0.931 . S
H1447 C1423 0.930 . S
H1448 C1420 0.930 . S
H1449 C1429 0.930 . S
H1450 C1441 0.929 . S
H1451 C1444 0.930 . S
C1452 C1453 1.351 . S
C1452 N1455 1.368 . S
C1452 H1457 0.931 . S
C1453 C1452 1.351 . S
C1453 N1454 1.373 . S
C1453 H1481 0.930 . S
N1454 C1453 1.373 . S
N1454 C1456 1.340 . S
N1455 C1452 1.368 . S
N1455 C1456 1.321 . S
N1455 Co1458 2.135 . S
C1456 N1454 1.340 . S
C1456 N1455 1.321 . S
C1456 H1480 0.930 . S
H1457 C1452 0.931 . S
Co1458 N1455 2.135 . S
Co1458 N1461 2.121 . S
Co1458 O1466 2.055 . S
Co1458 O1469 2.039 . S
Co1458 N1472 2.140 . S
C1459 O1460 1.227 . S
C1459 O1469 1.265 . S
O1460 C1459 1.227 . S
N1461 Co1458 2.121 . S
N1461 C1463 1.375 . S
N1461 C1464 1.313 . S
C1462 C1463 1.338 . S
C1462 N1465 1.377 . S
C1462 H1482 0.930 . S
C1463 N1461 1.375 . S
C1463 C1462 1.338 . S
C1463 H1467 0.931 . S
C1464 N1461 1.313 . S
C1464 N1465 1.344 . S
C1464 H1468 0.930 . S
N1465 C1462 1.377 . S
N1465 C1464 1.344 . S
O1466 Co1458 2.055 . S
O1466 C1470 1.253 . S
H1467 C1463 0.931 . S
H1468 C1464 0.930 . S
O1469 Co1458 2.039 . S
O1469 C1459 1.265 . S
C1470 O1466 1.253 . S
C1470 O1471 1.227 . S
O1471 C1470 1.227 . S
N1472 Co1458 2.140 . S
N1472 C1475 1.346 . S
N1472 C1476 1.345 . S
C1473 C1474 1.387 . S
C1473 C1477 1.391 . S
C1474 C1473 1.387 . S
C1474 C1475 1.369 . S
C1474 H1483 0.929 . S
C1475 N1472 1.346 . S
C1475 C1474 1.369 . S
C1475 H1478 0.928 . S
C1476 N1472 1.345 . S
C1476 C1477 1.371 . S
C1476 H1479 0.931 . S
C1477 C1473 1.391 . S
C1477 C1476 1.371 . S
C1477 H1484 0.930 . S
H1478 C1475 0.928 . S
H1479 C1476 0.931 . S
H1480 C1456 0.930 . S
H1481 C1453 0.930 . S
H1482 C1462 0.930 . S
H1483 C1474 0.929 . S
H1484 C1477 0.930 . S
C1485 C1486 1.351 . S
C1485 N1488 1.368 . S
C1485 H1490 0.931 . S
C1486 C1485 1.351 . S
C1486 N1487 1.373 . S
C1486 H1514 0.930 . S
N1487 C1486 1.373 . S
N1487 C1489 1.340 . S
N1488 C1485 1.368 . S
N1488 C1489 1.321 . S
N1488 Co1491 2.135 . S
C1489 N1487 1.340 . S
C1489 N1488 1.321 . S
C1489 H1513 0.930 . S
H1490 C1485 0.931 . S
Co1491 N1488 2.135 . S
Co1491 N1494 2.121 . S
Co1491 O1499 2.055 . S
Co1491 O1502 2.039 . S
Co1491 N1505 2.140 . S
C1492 O1493 1.227 . S
C1492 O1502 1.265 . S
O1493 C1492 1.227 . S
N1494 Co1491 2.121 . S
N1494 C1496 1.375 . S
N1494 C1497 1.313 . S
C1495 C1496 1.338 1_556 S
C1495 N1498 1.377 . S
C1495 H1515 0.930 . S
C1496 N1494 1.375 . S
C1496 C1495 1.338 1_554 S
C1496 H1500 0.931 . S
C1497 N1494 1.313 . S
C1497 N1498 1.344 1_554 S
C1497 H1501 0.930 . S
N1498 C1495 1.377 . S
N1498 C1497 1.344 1_556 S
O1499 Co1491 2.055 . S
O1499 C1503 1.253 . S
H1500 C1496 0.931 . S
H1501 C1497 0.930 . S
O1502 Co1491 2.039 . S
O1502 C1492 1.265 . S
C1503 O1499 1.253 . S
C1503 O1504 1.227 . S
O1504 C1503 1.227 . S
N1505 Co1491 2.140 . S
N1505 C1508 1.346 . S
N1505 C1509 1.345 . S
C1506 C1507 1.423 . S
C1506 C1510 1.394 . S
C1507 C1506 1.423 . S
C1507 C1508 1.369 . S
C1507 H1516 0.929 . S
C1508 N1505 1.346 . S
C1508 C1507 1.369 . S
C1508 H1511 0.928 . S
C1509 N1505 1.345 . S
C1509 C1510 1.371 . S
C1509 H1512 0.931 . S
C1510 C1506 1.394 . S
C1510 C1509 1.371 . S
C1510 H1517 0.930 1_655 S
H1511 C1508 0.928 . S
H1512 C1509 0.931 . S
H1513 C1489 0.930 . S
H1514 C1486 0.930 . S
H1515 C1495 0.930 . S
H1516 C1507 0.929 . S
H1517 C1510 0.930 1_455 S
C1518 C1519 1.351 . S
C1518 N1521 1.368 . S
C1518 H1523 0.931 . S
C1519 C1518 1.351 . S
C1519 N1520 1.373 . S
C1519 H1547 0.930 . S
N1520 C1519 1.373 . S
N1520 C1522 1.340 . S
N1521 C1518 1.368 . S
N1521 C1522 1.321 . S
N1521 Co1524 2.135 . S
C1522 N1520 1.340 . S
C1522 N1521 1.321 . S
C1522 H1546 0.930 . S
H1523 C1518 0.931 . S
Co1524 N1521 2.135 . S
Co1524 N1527 2.121 . S
Co1524 O1532 2.055 . S
Co1524 O1535 2.039 . S
Co1524 N1538 2.140 . S
C1525 O1526 1.227 . S
C1525 O1535 1.265 . S
O1526 C1525 1.227 . S
N1527 Co1524 2.121 . S
N1527 C1529 1.375 . S
N1527 C1530 1.313 . S
C1528 C1529 1.338 . S
C1528 N1531 1.377 . S
C1528 H1548 0.930 . S
C1529 N1527 1.375 . S
C1529 C1528 1.338 . S
C1529 H1533 0.931 . S
C1530 N1527 1.313 . S
C1530 N1531 1.344 . S
C1530 H1534 0.930 . S
N1531 C1528 1.377 . S
N1531 C1530 1.344 . S
O1532 Co1524 2.055 . S
O1532 C1536 1.253 . S
H1533 C1529 0.931 . S
H1534 C1530 0.930 . S
O1535 Co1524 2.039 . S
O1535 C1525 1.265 . S
C1536 O1532 1.253 . S
C1536 O1537 1.227 . S
O1537 C1536 1.227 . S
N1538 Co1524 2.140 . S
N1538 C1541 1.346 . S
N1538 C1542 1.345 . S
C1539 C1540 1.387 . S
C1539 C1543 1.391 . S
C1540 C1539 1.387 . S
C1540 C1541 1.369 . S
C1540 H1549 0.929 . S
C1541 N1538 1.346 . S
C1541 C1540 1.369 . S
C1541 H1544 0.928 . S
C1542 N1538 1.345 . S
C1542 C1543 1.371 . S
C1542 H1545 0.931 . S
C1543 C1539 1.391 . S
C1543 C1542 1.371 . S
C1543 H1550 0.930 . S
H1544 C1541 0.928 . S
H1545 C1542 0.931 . S
H1546 C1522 0.930 . S
H1547 C1519 0.930 . S
H1548 C1528 0.930 . S
H1549 C1540 0.929 . S
H1550 C1543 0.930 . S
C1551 C1552 1.351 . S
C1551 N1554 1.368 . S
C1551 H1556 0.931 . S
C1552 C1551 1.351 . S
C1552 N1553 1.373 . S
C1552 H1580 0.930 . S
N1553 C1552 1.373 . S
N1553 C1555 1.340 . S
N1554 C1551 1.368 . S
N1554 C1555 1.321 . S
N1554 Co1557 2.135 . S
C1555 N1553 1.340 . S
C1555 N1554 1.321 . S
C1555 H1579 0.930 . S
H1556 C1551 0.931 . S
Co1557 N1554 2.135 . S
Co1557 N1560 2.121 . S
Co1557 O1565 2.055 . S
Co1557 O1568 2.039 . S
Co1557 N1571 2.140 . S
C1558 O1559 1.227 . S
C1558 O1568 1.265 . S
O1559 C1558 1.227 . S
N1560 Co1557 2.121 . S
N1560 C1562 1.375 . S
N1560 C1563 1.313 . S
C1561 C1562 1.338 . S
C1561 N1564 1.377 . S
C1561 H1581 0.930 . S
C1562 N1560 1.375 . S
C1562 C1561 1.338 . S
C1562 H1566 0.931 . S
C1563 N1560 1.313 . S
C1563 N1564 1.344 . S
C1563 H1567 0.930 . S
N1564 C1561 1.377 . S
N1564 C1563 1.344 . S
O1565 Co1557 2.055 . S
O1565 C1569 1.253 . S
H1566 C1562 0.931 . S
H1567 C1563 0.930 . S
O1568 Co1557 2.039 . S
O1568 C1558 1.265 . S
C1569 O1565 1.253 . S
C1569 O1570 1.227 . S
O1570 C1569 1.227 . S
N1571 Co1557 2.140 . S
N1571 C1574 1.346 . S
N1571 C1575 1.345 . S
C1572 C1573 1.387 . S
C1572 C1576 1.391 . S
C1573 C1572 1.387 . S
C1573 C1574 1.369 . S
C1573 H1582 0.929 . S
C1574 N1571 1.346 . S
C1574 C1573 1.369 . S
C1574 H1577 0.928 . S
C1575 N1571 1.345 . S
C1575 C1576 1.371 . S
C1575 H1578 0.931 . S
C1576 C1572 1.391 . S
C1576 C1575 1.371 . S
C1576 H1583 0.930 . S
H1577 C1574 0.928 . S
H1578 C1575 0.931 . S
H1579 C1555 0.930 . S
H1580 C1552 0.930 . S
H1581 C1561 0.930 . S
H1582 C1573 0.929 . S
H1583 C1576 0.930 . S
C1584 C1585 1.369 . S
C1584 C1586 1.419 . S
C1584 H1588 0.930 . S
C1585 C1584 1.369 . S
C1585 C1594 1.429 1_455 S
C1586 C1584 1.419 . S
C1586 C1587 1.363 1_455 S
C1586 H1589 0.929 . S
C1587 C1586 1.363 1_655 S
C1587 C1593 1.428 . S
H1588 C1584 0.930 . S
H1589 C1586 0.929 . S
S1590 N1591 1.613 . S
S1590 N1592 1.610 . S
N1591 S1590 1.613 . S
N1591 C1594 1.350 . S
N1592 S1590 1.610 . S
N1592 C1593 1.351 . S
C1593 C1587 1.428 . S
C1593 N1592 1.351 . S
C1593 C1594 1.434 . S
C1594 C1585 1.429 1_655 S
C1594 N1591 1.350 . S
C1594 C1593 1.434 . S
C1595 C1596 1.369 . S
C1595 C1597 1.419 . S
C1595 H1599 0.930 . S
C1596 C1595 1.369 . S
C1596 C1605 1.429 . S
C1597 C1595 1.419 . S
C1597 C1598 1.363 . S
C1597 H1600 0.929 . S
C1598 C1597 1.363 . S
C1598 C1604 1.428 . S
H1599 C1595 0.930 . S
H1600 C1597 0.929 . S
S1601 N1602 1.613 . S
S1601 N1603 1.610 . S
N1602 S1601 1.613 . S
N1602 C1605 1.350 . S
N1603 S1601 1.610 . S
N1603 C1604 1.351 . S
C1604 C1598 1.428 . S
C1604 N1603 1.351 . S
C1604 C1605 1.434 . S
C1605 C1596 1.429 . S
C1605 N1602 1.350 . S
C1605 C1604 1.434 . S
C1606 C1607 1.369 . S
C1606 C1608 1.419 . S
C1606 H1610 0.930 . S
C1607 C1606 1.369 . S
C1607 C1616 1.429 . S
C1608 C1606 1.419 . S
C1608 C1609 1.363 . S
C1608 H1611 0.929 . S
C1609 C1608 1.363 . S
C1609 C1615 1.428 . S
H1610 C1606 0.930 . S
H1611 C1608 0.929 . S
S1612 N1613 1.613 . S
S1612 N1614 1.610 . S
N1613 S1612 1.613 . S
N1613 C1616 1.350 . S
N1614 S1612 1.610 . S
N1614 C1615 1.351 . S
C1615 C1609 1.428 . S
C1615 N1614 1.351 . S
C1615 C1616 1.434 . S
C1616 C1607 1.429 . S
C1616 N1613 1.350 . S
C1616 C1615 1.434 . S
C1617 C1618 1.369 . S
C1617 C1619 1.419 . S
C1617 H1621 0.930 . S
C1618 C1617 1.369 . S
C1618 C1627 1.429 . S
C1619 C1617 1.419 . S
C1619 C1620 1.363 . S
C1619 H1622 0.929 . S
C1620 C1619 1.363 . S
C1620 C1626 1.428 . S
H1621 C1617 0.930 . S
H1622 C1619 0.929 . S
S1623 N1624 1.613 . S
S1623 N1625 1.610 . S
N1624 S1623 1.613 . S
N1624 C1627 1.350 . S
N1625 S1623 1.610 . S
N1625 C1626 1.351 . S
C1626 C1620 1.428 . S
C1626 N1625 1.351 . S
C1626 C1627 1.434 . S
C1627 C1618 1.429 . S
C1627 N1624 1.350 . S
C1627 C1626 1.434 . S
C1628 C1629 1.369 . S
C1628 C1630 1.419 1_655 S
C1628 H1632 0.930 . S
C1629 C1628 1.369 . S
C1629 C1638 1.429 1_655 S
C1630 C1628 1.419 1_455 S
C1630 C1631 1.363 . S
C1630 H1633 0.929 . S
C1631 C1630 1.363 . S
C1631 C1637 1.428 . S
H1632 C1628 0.930 . S
H1633 C1630 0.929 . S
S1634 N1635 1.613 . S
S1634 N1636 1.610 . S
N1635 S1634 1.613 . S
N1635 C1638 1.350 . S
N1636 S1634 1.610 . S
N1636 C1637 1.351 . S
C1637 C1631 1.428 . S
C1637 N1636 1.351 . S
C1637 C1638 1.434 . S
C1638 C1629 1.429 1_455 S
C1638 N1635 1.350 . S
C1638 C1637 1.434 . S
C1639 C1640 1.369 . S
C1639 C1641 1.419 . S
C1639 H1643 0.930 . S
C1640 C1639 1.369 . S
C1640 C1649 1.429 . S
C1641 C1639 1.419 . S
C1641 C1642 1.363 . S
C1641 H1644 0.929 . S
C1642 C1641 1.363 . S
C1642 C1648 1.428 . S
H1643 C1639 0.930 . S
H1644 C1641 0.929 . S
S1645 N1646 1.613 . S
S1645 N1647 1.610 . S
N1646 S1645 1.613 . S
N1646 C1649 1.350 . S
N1647 S1645 1.610 . S
N1647 C1648 1.351 . S
C1648 C1642 1.428 . S
C1648 N1647 1.351 . S
C1648 C1649 1.434 . S
C1649 C1640 1.429 . S
C1649 N1646 1.350 . S
C1649 C1648 1.434 . S
C1650 C1651 1.369 . S
C1650 C1652 1.419 . S
C1650 H1654 0.930 . S
C1651 C1650 1.369 . S
C1651 C1660 1.429 . S
C1652 C1650 1.419 . S
C1652 C1653 1.363 . S
C1652 H1655 0.929 . S
C1653 C1652 1.363 . S
C1653 C1659 1.428 . S
H1654 C1650 0.930 . S
H1655 C1652 0.929 . S
S1656 N1657 1.613 . S
S1656 N1658 1.610 . S
N1657 S1656 1.613 . S
N1657 C1660 1.350 . S
N1658 S1656 1.610 . S
N1658 C1659 1.351 . S
C1659 C1653 1.428 . S
C1659 N1658 1.351 . S
C1659 C1660 1.434 . S
C1660 C1651 1.429 . S
C1660 N1657 1.350 . S
C1660 C1659 1.434 . S
C1661 C1662 1.369 . S
C1661 C1663 1.419 . S
C1661 H1665 0.930 . S
C1662 C1661 1.369 . S
C1662 C1671 1.429 . S
C1663 C1661 1.419 . S
C1663 C1664 1.363 . S
C1663 H1666 0.929 . S
C1664 C1663 1.363 . S
C1664 C1670 1.428 . S
H1665 C1661 0.930 . S
H1666 C1663 0.929 . S
S1667 N1668 1.613 . S
S1667 N1669 1.610 . S
N1668 S1667 1.613 . S
N1668 C1671 1.350 . S
N1669 S1667 1.610 . S
N1669 C1670 1.351 . S
C1670 C1664 1.428 . S
C1670 N1669 1.351 . S
C1670 C1671 1.434 . S
C1671 C1662 1.429 . S
C1671 N1668 1.350 . S
C1671 C1670 1.434 . S
C1672 C1673 1.369 1_545 S
C1672 C1674 1.419 . S
C1672 H1676 0.930 . S
C1673 C1672 1.369 1_565 S
C1673 C1682 1.429 . S
C1674 C1672 1.419 . S
C1674 C1675 1.363 . S
C1674 H1677 0.929 . S
C1675 C1674 1.363 . S
C1675 C1681 1.428 . S
H1676 C1672 0.930 . S
H1677 C1674 0.929 . S
S1678 N1679 1.613 . S
S1678 N1680 1.610 1_565 S
N1679 S1678 1.613 . S
N1679 C1682 1.350 . S
N1680 S1678 1.610 1_545 S
N1680 C1681 1.351 . S
C1681 C1675 1.428 . S
C1681 N1680 1.351 . S
C1681 C1682 1.434 1_545 S
C1682 C1673 1.429 . S
C1682 N1679 1.350 . S
C1682 C1681 1.434 1_565 S
C1683 C1684 1.369 . S
C1683 C1685 1.419 . S
C1683 H1687 0.930 . S
C1684 C1683 1.369 . S
C1684 C1693 1.429 . S
C1685 C1683 1.419 . S
C1685 C1686 1.363 . S
C1685 H1688 0.929 . S
C1686 C1685 1.363 . S
C1686 C1692 1.428 . S
H1687 C1683 0.930 . S
H1688 C1685 0.929 . S
S1689 N1690 1.613 . S
S1689 N1691 1.610 . S
N1690 S1689 1.613 . S
N1690 C1693 1.350 . S
N1691 S1689 1.610 . S
N1691 C1692 1.351 . S
C1692 C1686 1.428 . S
C1692 N1691 1.351 . S
C1692 C1693 1.434 . S
C1693 C1684 1.429 . S
C1693 N1690 1.350 . S
C1693 C1692 1.434 . S
C1694 C1695 1.369 1_565 S
C1694 C1696 1.419 . S
C1694 H1698 0.930 . S
C1695 C1694 1.369 1_545 S
C1695 C1704 1.429 . S
C1696 C1694 1.419 . S
C1696 C1697 1.363 . S
C1696 H1699 0.929 . S
C1697 C1696 1.363 . S
C1697 C1703 1.428 1_565 S
H1698 C1694 0.930 . S
H1699 C1696 0.929 . S
S1700 N1701 1.613 . S
S1700 N1702 1.610 . S
N1701 S1700 1.613 . S
N1701 C1704 1.350 . S
N1702 S1700 1.610 . S
N1702 C1703 1.351 . S
C1703 C1697 1.428 1_545 S
C1703 N1702 1.351 . S
C1703 C1704 1.434 . S
C1704 C1695 1.429 . S
C1704 N1701 1.350 . S
C1704 C1703 1.434 . S
C1705 C1706 1.369 . S
C1705 C1707 1.419 . S
C1705 H1709 0.930 . S
C1706 C1705 1.369 . S
C1706 C1715 1.429 . S
C1707 C1705 1.419 . S
C1707 C1708 1.363 . S
C1707 H1710 0.929 . S
C1708 C1707 1.363 . S
C1708 C1714 1.428 . S
H1709 C1705 0.930 . S
H1710 C1707 0.929 . S
S1711 N1712 1.613 . S
S1711 N1713 1.610 . S
N1712 S1711 1.613 . S
N1712 C1715 1.350 . S
N1713 S1711 1.610 . S
N1713 C1714 1.351 . S
C1714 C1708 1.428 . S
C1714 N1713 1.351 . S
C1714 C1715 1.434 . S
C1715 C1706 1.429 . S
C1715 N1712 1.350 . S
C1715 C1714 1.434 . S
C1716 C1717 1.369 . S
C1716 C1718 1.419 1_545 S
C1716 H1720 0.930 . S
C1717 C1716 1.369 . S
C1717 C1726 1.429 1_545 S
C1718 C1716 1.419 1_565 S
C1718 C1719 1.363 . S
C1718 H1721 0.929 1_565 S
C1719 C1718 1.363 . S
C1719 C1725 1.428 . S
H1720 C1716 0.930 . S
H1721 C1718 0.929 1_545 S
S1722 N1723 1.613 . S
S1722 N1724 1.610 . S
N1723 S1722 1.613 . S
N1723 C1726 1.350 . S
N1724 S1722 1.610 . S
N1724 C1725 1.351 . S
C1725 C1719 1.428 . S
C1725 N1724 1.351 . S
C1725 C1726 1.434 . S
C1726 C1717 1.429 1_565 S
C1726 N1723 1.350 . S
C1726 C1725 1.434 . S
C1727 C1728 1.369 . S
C1727 C1729 1.419 . S
C1727 H1731 0.930 . S
C1728 C1727 1.369 . S
C1728 C1737 1.429 . S
C1729 C1727 1.419 . S
C1729 C1730 1.363 . S
C1729 H1732 0.929 . S
C1730 C1729 1.363 . S
C1730 C1736 1.428 . S
H1731 C1727 0.930 . S
H1732 C1729 0.929 . S
S1733 N1734 1.613 . S
S1733 N1735 1.610 . S
N1734 S1733 1.613 . S
N1734 C1737 1.350 . S
N1735 S1733 1.610 . S
N1735 C1736 1.351 . S
C1736 C1730 1.428 . S
C1736 N1735 1.351 . S
C1736 C1737 1.434 . S
C1737 C1728 1.429 . S
C1737 N1734 1.350 . S
C1737 C1736 1.434 . S
C1738 C1739 1.369 1_565 S
C1738 C1740 1.419 . S
C1738 H1742 0.930 . S
C1739 C1738 1.369 1_545 S
C1739 C1748 1.429 . S
C1740 C1738 1.419 . S
C1740 C1741 1.363 . S
C1740 H1743 0.929 . S
C1741 C1740 1.363 . S
C1741 C1747 1.428 1_565 S
H1742 C1738 0.930 . S
H1743 C1740 0.929 . S
S1744 N1745 1.613 . S
S1744 N1746 1.610 . S
N1745 S1744 1.613 . S
N1745 C1748 1.350 . S
N1746 S1744 1.610 . S
N1746 C1747 1.351 . S
C1747 C1741 1.428 1_545 S
C1747 N1746 1.351 . S
C1747 C1748 1.434 . S
C1748 C1739 1.429 . S
C1748 N1745 1.350 . S
C1748 C1747 1.434 . S
C1749 C1750 1.369 . S
C1749 C1751 1.419 . S
C1749 H1753 0.930 . S
C1750 C1749 1.369 . S
C1750 C1759 1.429 . S
C1751 C1749 1.419 . S
C1751 C1752 1.363 . S
C1751 H1754 0.929 . S
C1752 C1751 1.363 . S
C1752 C1758 1.428 . S
H1753 C1749 0.930 . S
H1754 C1751 0.929 . S
S1755 N1756 1.613 . S
S1755 N1757 1.610 . S
N1756 S1755 1.613 . S
N1756 C1759 1.350 . S
N1757 S1755 1.610 . S
N1757 C1758 1.351 . S
C1758 C1752 1.428 . S
C1758 N1757 1.351 . S
C1758 C1759 1.434 . S
C1759 C1750 1.429 . S
C1759 N1756 1.350 . S
C1759 C1758 1.434 . S
C1760 C1761 1.369 . S
C1760 C1762 1.419 . S
C1760 H1764 0.930 . S
C1761 C1760 1.369 . S
C1761 C1770 1.429 . S
C1762 C1760 1.419 . S
C1762 C1763 1.363 1_554 S
C1762 H1765 0.929 . S
C1763 C1762 1.363 1_556 S
C1763 C1769 1.428 . S
H1764 C1760 0.930 . S
H1765 C1762 0.929 . S
S1766 N1767 1.613 1_556 S
S1766 N1768 1.610 . S
N1767 S1766 1.613 1_554 S
N1767 C1770 1.350 . S
N1768 S1766 1.610 . S
N1768 C1769 1.351 . S
C1769 C1763 1.428 . S
C1769 N1768 1.351 . S
C1769 C1770 1.434 1_556 S
C1770 C1761 1.429 . S
C1770 N1767 1.350 . S
C1770 C1769 1.434 1_554 S
C1771 C1772 1.369 . S
C1771 C1773 1.419 1_556 S
C1771 H1775 0.943 . S
C1772 C1771 1.369 . S
C1772 C1781 1.429 . S
C1773 C1771 1.419 1_554 S
C1773 C1774 1.363 . S
C1773 H1776 0.929 . S
C1774 C1773 1.363 . S
C1774 C1780 1.428 1_554 S
H1775 C1771 0.943 . S
H1776 C1773 0.929 . S
S1777 N1778 1.613 . S
S1777 N1779 1.610 . S
N1778 S1777 1.613 . S
N1778 C1781 1.350 . S
N1779 S1777 1.610 . S
N1779 C1780 1.351 . S
C1780 C1774 1.428 1_556 S
C1780 N1779 1.351 . S
C1780 C1781 1.434 . S
C1781 C1772 1.429 . S
C1781 N1778 1.350 . S
C1781 C1780 1.434 . S
C1782 C1783 1.369 . S
C1782 C1784 1.419 . S
C1782 H1786 0.930 . S
C1783 C1782 1.369 . S
C1783 C1792 1.429 . S
C1784 C1782 1.419 . S
C1784 C1785 1.363 . S
C1784 H1787 0.929 . S
C1785 C1784 1.363 . S
C1785 C1791 1.428 . S
H1786 C1782 0.930 . S
H1787 C1784 0.929 . S
S1788 N1789 1.613 . S
S1788 N1790 1.610 . S
N1789 S1788 1.613 . S
N1789 C1792 1.350 . S
N1790 S1788 1.610 . S
N1790 C1791 1.351 . S
C1791 C1785 1.428 . S
C1791 N1790 1.351 . S
C1791 C1792 1.434 . S
C1792 C1783 1.429 . S
C1792 N1789 1.350 . S
C1792 C1791 1.434 . S
C1793 C1794 1.369 . S
C1793 C1795 1.419 . S
C1793 H1797 0.930 . S
C1794 C1793 1.369 . S
C1794 C1803 1.429 . S
C1795 C1793 1.419 . S
C1795 C1796 1.363 . S
C1795 H1798 0.929 . S
C1796 C1795 1.363 . S
C1796 C1802 1.428 . S
H1797 C1793 0.930 . S
H1798 C1795 0.929 . S
S1799 N1800 1.613 . S
S1799 N1801 1.610 . S
N1800 S1799 1.613 . S
N1800 C1803 1.350 . S
N1801 S1799 1.610 . S
N1801 C1802 1.351 . S
C1802 C1796 1.428 . S
C1802 N1801 1.351 . S
C1802 C1803 1.434 . S
C1803 C1794 1.429 . S
C1803 N1800 1.350 . S
C1803 C1802 1.434 . S
C1804 C1805 1.369 . S
C1804 C1806 1.419 . S
C1804 H1808 0.930 . S
C1805 C1804 1.369 . S
C1805 C1814 1.429 . S
C1806 C1804 1.419 . S
C1806 C1807 1.363 . S
C1806 H1809 0.929 . S
C1807 C1806 1.363 . S
C1807 C1813 1.428 . S
H1808 C1804 0.930 . S
H1809 C1806 0.929 . S
S1810 N1811 1.613 . S
S1810 N1812 1.610 . S
N1811 S1810 1.613 . S
N1811 C1814 1.350 . S
N1812 S1810 1.610 . S
N1812 C1813 1.351 . S
C1813 C1807 1.428 . S
C1813 N1812 1.351 . S
C1813 C1814 1.434 . S
C1814 C1805 1.429 . S
C1814 N1811 1.350 . S
C1814 C1813 1.434 . S
C1815 C1816 1.369 . S
C1815 C1817 1.419 . S
C1815 H1819 0.930 . S
C1816 C1815 1.369 . S
C1816 C1825 1.429 . S
C1817 C1815 1.419 . S
C1817 C1818 1.363 . S
C1817 H1820 0.929 . S
C1818 C1817 1.363 . S
C1818 C1824 1.428 . S
H1819 C1815 0.930 . S
H1820 C1817 0.929 . S
S1821 N1822 1.613 . S
S1821 N1823 1.610 . S
N1822 S1821 1.613 . S
N1822 C1825 1.350 . S
N1823 S1821 1.610 . S
N1823 C1824 1.351 . S
C1824 C1818 1.428 . S
C1824 N1823 1.351 . S
C1824 C1825 1.434 . S
C1825 C1816 1.429 . S
C1825 N1822 1.350 . S
C1825 C1824 1.434 . S
C1826 C1827 1.369 . S
C1826 C1828 1.419 . S
C1826 H1830 0.930 . S
C1827 C1826 1.369 . S
C1827 C1836 1.429 . S
C1828 C1826 1.419 . S
C1828 C1829 1.363 . S
C1828 H1831 0.929 . S
C1829 C1828 1.363 . S
C1829 C1835 1.428 . S
H1830 C1826 0.930 . S
H1831 C1828 0.929 . S
S1832 N1833 1.613 . S
S1832 N1834 1.610 . S
N1833 S1832 1.613 . S
N1833 C1836 1.350 . S
N1834 S1832 1.610 . S
N1834 C1835 1.351 . S
C1835 C1829 1.428 . S
C1835 N1834 1.351 . S
C1835 C1836 1.434 . S
C1836 C1827 1.429 . S
C1836 N1833 1.350 . S
C1836 C1835 1.434 . S
C1837 C1838 1.369 . S
C1837 C1839 1.419 . S
C1837 H1841 0.930 . S
C1838 C1837 1.369 . S
C1838 C1847 1.429 . S
C1839 C1837 1.419 . S
C1839 C1840 1.363 . S
C1839 H1842 0.929 . S
C1840 C1839 1.363 . S
C1840 C1846 1.428 . S
H1841 C1837 0.930 . S
H1842 C1839 0.929 . S
S1843 N1844 1.613 . S
S1843 N1845 1.610 . S
N1844 S1843 1.613 . S
N1844 C1847 1.350 . S
N1845 S1843 1.610 . S
N1845 C1846 1.351 . S
C1846 C1840 1.428 . S
C1846 N1845 1.351 . S
C1846 C1847 1.434 . S
C1847 C1838 1.429 . S
C1847 N1844 1.350 . S
C1847 C1846 1.434 . S
C1848 C1849 1.369 . S
C1848 C1850 1.419 . S
C1848 H1852 0.930 . S
C1849 C1848 1.369 . S
C1849 C1858 1.429 . S
C1850 C1848 1.419 . S
C1850 C1851 1.363 . S
C1850 H1853 0.929 . S
C1851 C1850 1.363 . S
C1851 C1857 1.428 . S
H1852 C1848 0.930 . S
H1853 C1850 0.929 . S
S1854 N1855 1.613 . S
S1854 N1856 1.610 . S
N1855 S1854 1.613 . S
N1855 C1858 1.350 . S
N1856 S1854 1.610 . S
N1856 C1857 1.351 . S
C1857 C1851 1.428 . S
C1857 N1856 1.351 . S
C1857 C1858 1.434 . S
C1858 C1849 1.429 . S
C1858 N1855 1.350 . S
C1858 C1857 1.434 . S
C1859 C1860 1.369 . S
C1859 C1861 1.419 . S
C1859 H1863 0.930 . S
C1860 C1859 1.369 . S
C1860 C1869 1.429 . S
C1861 C1859 1.419 . S
C1861 C1862 1.363 . S
C1861 H1864 0.929 . S
C1862 C1861 1.363 . S
C1862 C1868 1.428 . S
H1863 C1859 0.930 . S
H1864 C1861 0.929 . S
S1865 N1866 1.613 . S
S1865 N1867 1.610 . S
N1866 S1865 1.613 . S
N1866 C1869 1.350 . S
N1867 S1865 1.610 . S
N1867 C1868 1.351 . S
C1868 C1862 1.428 . S
C1868 N1867 1.351 . S
C1868 C1869 1.434 . S
C1869 C1860 1.429 . S
C1869 N1866 1.350 . S
C1869 C1868 1.434 . S
C1870 C1871 1.369 . S
C1870 C1872 1.416 . S
C1870 H1874 0.930 . S
C1871 C1870 1.369 . S
C1871 C1880 1.429 . S
C1872 C1870 1.416 . S
C1872 C1873 1.364 1_655 S
C1872 H1875 0.931 1_655 S
C1873 C1872 1.364 1_455 S
C1873 C1879 1.428 1_455 S
H1874 C1870 0.930 . S
H1875 C1872 0.931 1_455 S
S1876 N1877 1.613 . S
S1876 N1878 1.610 . S
N1877 S1876 1.613 . S
N1877 C1880 1.350 . S
N1878 S1876 1.610 . S
N1878 C1879 1.351 . S
C1879 C1873 1.428 1_655 S
C1879 N1878 1.351 . S
C1879 C1880 1.434 . S
C1880 C1871 1.429 . S
C1880 N1877 1.350 . S
C1880 C1879 1.434 . S
C1881 C1882 1.369 . S
C1881 C1883 1.419 . S
C1881 H1885 0.930 . S
C1882 C1881 1.369 . S
C1882 C1891 1.429 . S
C1883 C1881 1.419 . S
C1883 C1884 1.363 . S
C1883 H1886 0.929 . S
C1884 C1883 1.363 . S
C1884 C1890 1.428 . S
H1885 C1881 0.930 . S
H1886 C1883 0.929 . S
S1887 N1888 1.613 . S
S1887 N1889 1.610 . S
N1888 S1887 1.613 . S
N1888 C1891 1.350 . S
N1889 S1887 1.610 . S
N1889 C1890 1.351 . S
C1890 C1884 1.428 . S
C1890 N1889 1.351 . S
C1890 C1891 1.434 . S
C1891 C1882 1.429 . S
C1891 N1888 1.350 . S
C1891 C1890 1.434 . S
C1892 C1893 1.369 . S
C1892 C1894 1.419 . S
C1892 H1896 0.930 . S
C1893 C1892 1.369 . S
C1893 C1902 1.429 . S
C1894 C1892 1.419 . S
C1894 C1895 1.363 . S
C1894 H1897 0.929 . S
C1895 C1894 1.363 . S
C1895 C1901 1.428 . S
H1896 C1892 0.930 . S
H1897 C1894 0.929 . S
S1898 N1899 1.613 . S
S1898 N1900 1.610 . S
N1899 S1898 1.613 . S
N1899 C1902 1.350 . S
N1900 S1898 1.610 . S
N1900 C1901 1.351 . S
C1901 C1895 1.428 . S
C1901 N1900 1.351 . S
C1901 C1902 1.434 . S
C1902 C1893 1.429 . S
C1902 N1899 1.350 . S
C1902 C1901 1.434 . S
C1903 C1904 1.369 . S
C1903 C1905 1.419 . S
C1903 H1907 0.930 . S
C1904 C1903 1.369 . S
C1904 C1913 1.429 . S
C1905 C1903 1.419 . S
C1905 C1906 1.363 . S
C1905 H1908 0.929 . S
C1906 C1905 1.363 . S
C1906 C1912 1.428 . S
H1907 C1903 0.930 . S
H1908 C1905 0.929 . S
S1909 N1910 1.613 . S
S1909 N1911 1.610 . S
N1910 S1909 1.613 . S
N1910 C1913 1.350 . S
N1911 S1909 1.610 . S
N1911 C1912 1.351 . S
C1912 C1906 1.428 . S
C1912 N1911 1.351 . S
C1912 C1913 1.434 . S
C1913 C1904 1.429 . S
C1913 N1910 1.350 . S
C1913 C1912 1.434 . S
C1914 C1915 1.327 1_455 S
C1914 C1916 1.440 . S
C1914 H1918 0.954 . S
C1915 C1914 1.327 1_655 S
C1915 C1924 1.429 . S
C1916 C1914 1.440 . S
C1916 C1917 1.363 . S
C1916 H1919 0.929 . S
C1917 C1916 1.363 . S
C1917 C1923 1.428 1_455 S
H1918 C1914 0.954 . S
H1919 C1916 0.929 . S
S1920 N1921 1.613 . S
S1920 N1922 1.610 . S
N1921 S1920 1.613 . S
N1921 C1924 1.350 . S
N1922 S1920 1.610 . S
N1922 C1923 1.351 . S
C1923 C1917 1.428 1_655 S
C1923 N1922 1.351 . S
C1923 C1924 1.434 . S
C1924 C1915 1.429 . S
C1924 N1921 1.350 . S
C1924 C1923 1.434 . S
C1925 C1926 1.369 . S
C1925 C1927 1.419 . S
C1925 H1929 0.930 . S
C1926 C1925 1.369 . S
C1926 C1935 1.429 . S
C1927 C1925 1.419 . S
C1927 C1928 1.363 . S
C1927 H1930 0.929 . S
C1928 C1927 1.363 . S
C1928 C1934 1.428 . S
H1929 C1925 0.930 . S
H1930 C1927 0.929 . S
S1931 N1932 1.613 . S
S1931 N1933 1.610 . S
N1932 S1931 1.613 . S
N1932 C1935 1.350 . S
N1933 S1931 1.610 . S
N1933 C1934 1.351 . S
C1934 C1928 1.428 . S
C1934 N1933 1.351 . S
C1934 C1935 1.434 . S
C1935 C1926 1.429 . S
C1935 N1932 1.350 . S
C1935 C1934 1.434 . S
C1936 C1937 1.369 . S
C1936 C1938 1.419 . S
C1936 H1940 0.930 . S
C1937 C1936 1.369 . S
C1937 C1946 1.429 . S
C1938 C1936 1.419 . S
C1938 C1939 1.363 . S
C1938 H1941 0.929 . S
C1939 C1938 1.363 . S
C1939 C1945 1.428 . S
H1940 C1936 0.930 . S
H1941 C1938 0.929 . S
S1942 N1943 1.613 . S
S1942 N1944 1.610 . S
N1943 S1942 1.613 . S
N1943 C1946 1.350 . S
N1944 S1942 1.610 . S
N1944 C1945 1.351 . S
C1945 C1939 1.428 . S
C1945 N1944 1.351 . S
C1945 C1946 1.434 . S
C1946 C1937 1.429 . S
C1946 N1943 1.350 . S
C1946 C1945 1.434 . S
C1947 C1948 1.369 . S
C1947 C1949 1.419 . S
C1947 H1951 0.930 . S
C1948 C1947 1.369 . S
C1948 C1957 1.429 . S
C1949 C1947 1.419 . S
C1949 C1950 1.363 . S
C1949 H1952 0.929 . S
C1950 C1949 1.363 . S
C1950 C1956 1.428 . S
H1951 C1947 0.930 . S
H1952 C1949 0.929 . S
S1953 N1954 1.613 . S
S1953 N1955 1.610 . S
N1954 S1953 1.613 . S
N1954 C1957 1.350 . S
N1955 S1953 1.610 . S
N1955 C1956 1.351 . S
C1956 C1950 1.428 . S
C1956 N1955 1.351 . S
C1956 C1957 1.434 . S
C1957 C1948 1.429 . S
C1957 N1954 1.350 . S
C1957 C1956 1.434 . S
C1958 C1959 1.369 . S
C1958 C1960 1.419 . S
C1958 H1962 0.930 . S
C1959 C1958 1.369 . S
C1959 C1968 1.429 . S
C1960 C1958 1.419 . S
C1960 C1961 1.363 . S
C1960 H1963 0.929 . S
C1961 C1960 1.363 . S
C1961 C1967 1.428 . S
H1962 C1958 0.930 . S
H1963 C1960 0.929 . S
S1964 N1965 1.613 . S
S1964 N1966 1.610 . S
N1965 S1964 1.613 . S
N1965 C1968 1.350 . S
N1966 S1964 1.610 . S
N1966 C1967 1.351 . S
C1967 C1961 1.428 . S
C1967 N1966 1.351 . S
C1967 C1968 1.434 . S
C1968 C1959 1.429 . S
C1968 N1965 1.350 . S
C1968 C1967 1.434 . S
C1969 C1970 1.369 . S
C1969 C1971 1.419 . S
C1969 H1973 0.930 . S
C1970 C1969 1.369 . S
C1970 C1979 1.429 . S
C1971 C1969 1.419 . S
C1971 C1972 1.363 . S
C1971 H1974 0.929 . S
C1972 C1971 1.363 . S
C1972 C1978 1.428 . S
H1973 C1969 0.930 . S
H1974 C1971 0.929 . S
S1975 N1976 1.613 . S
S1975 N1977 1.610 . S
N1976 S1975 1.613 . S
N1976 C1979 1.350 . S
N1977 S1975 1.610 . S
N1977 C1978 1.351 . S
C1978 C1972 1.428 . S
C1978 N1977 1.351 . S
C1978 C1979 1.434 . S
C1979 C1970 1.429 . S
C1979 N1976 1.350 . S
C1979 C1978 1.434 . S
C1980 C1981 1.369 . S
C1980 C1982 1.419 . S
C1980 H1984 0.930 . S
C1981 C1980 1.369 . S
C1981 C1990 1.429 . S
C1982 C1980 1.419 . S
C1982 C1983 1.363 . S
C1982 H1985 0.929 . S
C1983 C1982 1.363 . S
C1983 C1989 1.428 . S
H1984 C1980 0.930 . S
H1985 C1982 0.929 . S
S1986 N1987 1.613 . S
S1986 N1988 1.610 . S
N1987 S1986 1.613 . S
N1987 C1990 1.350 . S
N1988 S1986 1.610 . S
N1988 C1989 1.351 . S
C1989 C1983 1.428 . S
C1989 N1988 1.351 . S
C1989 C1990 1.434 . S
C1990 C1981 1.429 . S
C1990 N1987 1.350 . S
C1990 C1989 1.434 . S
C1991 C1992 1.369 . S
C1991 C1993 1.419 . S
C1991 H1995 0.930 . S
C1992 C1991 1.369 . S
C1992 C2001 1.429 . S
C1993 C1991 1.419 . S
C1993 C1994 1.363 . S
C1993 H1996 0.929 . S
C1994 C1993 1.363 . S
C1994 C2000 1.428 . S
H1995 C1991 0.930 . S
H1996 C1993 0.929 . S
S1997 N1998 1.613 . S
S1997 N1999 1.610 . S
N1998 S1997 1.613 . S
N1998 C2001 1.350 . S
N1999 S1997 1.610 . S
N1999 C2000 1.351 . S
C2000 C1994 1.428 . S
C2000 N1999 1.351 . S
C2000 C2001 1.434 . S
C2001 C1992 1.429 . S
C2001 N1998 1.350 . S
C2001 C2000 1.434 . S
C2002 C2003 1.369 . S
C2002 C2004 1.419 . S
C2002 H2006 0.930 . S
C2003 C2002 1.369 . S
C2003 C2012 1.429 . S
C2004 C2002 1.419 . S
C2004 C2005 1.363 . S
C2004 H2007 0.929 . S
C2005 C2004 1.363 . S
C2005 C2011 1.428 . S
H2006 C2002 0.930 . S
H2007 C2004 0.929 . S
S2008 N2009 1.613 . S
S2008 N2010 1.610 . S
N2009 S2008 1.613 . S
N2009 C2012 1.350 . S
N2010 S2008 1.610 . S
N2010 C2011 1.351 . S
C2011 C2005 1.428 . S
C2011 N2010 1.351 . S
C2011 C2012 1.434 . S
C2012 C2003 1.429 . S
C2012 N2009 1.350 . S
C2012 C2011 1.434 . S
C2013 C2014 1.369 . S
C2013 C2015 1.419 . S
C2013 H2017 0.930 . S
C2014 C2013 1.369 . S
C2014 C2023 1.429 . S
C2015 C2013 1.419 . S
C2015 C2016 1.363 . S
C2015 H2018 0.929 . S
C2016 C2015 1.363 . S
C2016 C2022 1.428 . S
H2017 C2013 0.930 . S
H2018 C2015 0.929 . S
S2019 N2020 1.613 . S
S2019 N2021 1.610 . S
N2020 S2019 1.613 . S
N2020 C2023 1.350 . S
N2021 S2019 1.610 . S
N2021 C2022 1.351 . S
C2022 C2016 1.428 . S
C2022 N2021 1.351 . S
C2022 C2023 1.434 . S
C2023 C2014 1.429 . S
C2023 N2020 1.350 . S
C2023 C2022 1.434 . S
C2024 C2025 1.369 . S
C2024 C2026 1.419 . S
C2024 H2028 0.930 . S
C2025 C2024 1.369 . S
C2025 C2034 1.429 . S
C2026 C2024 1.419 . S
C2026 C2027 1.363 . S
C2026 H2029 0.929 . S
C2027 C2026 1.363 . S
C2027 C2033 1.428 . S
H2028 C2024 0.930 . S
H2029 C2026 0.929 . S
S2030 N2031 1.613 . S
S2030 N2032 1.610 . S
N2031 S2030 1.613 . S
N2031 C2034 1.350 . S
N2032 S2030 1.610 . S
N2032 C2033 1.351 . S
C2033 C2027 1.428 . S
C2033 N2032 1.351 . S
C2033 C2034 1.434 . S
C2034 C2025 1.429 . S
C2034 N2031 1.350 . S
C2034 C2033 1.434 . S
C2035 C2036 1.369 . S
C2035 C2037 1.419 . S
C2035 H2039 0.930 . S
C2036 C2035 1.369 . S
C2036 C2045 1.429 . S
C2037 C2035 1.419 . S
C2037 C2038 1.363 . S
C2037 H2040 0.929 . S
C2038 C2037 1.363 . S
C2038 C2044 1.428 . S
H2039 C2035 0.930 . S
H2040 C2037 0.929 . S
S2041 N2042 1.613 . S
S2041 N2043 1.610 . S
N2042 S2041 1.613 . S
N2042 C2045 1.350 . S
N2043 S2041 1.610 . S
N2043 C2044 1.351 . S
C2044 C2038 1.428 . S
C2044 N2043 1.351 . S
C2044 C2045 1.434 . S
C2045 C2036 1.429 . S
C2045 N2042 1.350 . S
C2045 C2044 1.434 . S
C2046 C2047 1.369 . S
C2046 C2048 1.419 . S
C2046 H2050 0.930 . S
C2047 C2046 1.369 . S
C2047 C2056 1.429 . S
C2048 C2046 1.419 . S
C2048 C2049 1.363 . S
C2048 H2051 0.929 . S
C2049 C2048 1.363 . S
C2049 C2055 1.428 . S
H2050 C2046 0.930 . S
H2051 C2048 0.929 . S
S2052 N2053 1.613 . S
S2052 N2054 1.610 . S
N2053 S2052 1.613 . S
N2053 C2056 1.350 . S
N2054 S2052 1.610 . S
N2054 C2055 1.351 . S
C2055 C2049 1.428 . S
C2055 N2054 1.351 . S
C2055 C2056 1.434 . S
C2056 C2047 1.429 . S
C2056 N2053 1.350 . S
C2056 C2055 1.434 . S
C2057 C2058 1.369 . S
C2057 C2059 1.419 . S
C2057 H2061 0.930 . S
C2058 C2057 1.369 . S
C2058 C2067 1.429 . S
C2059 C2057 1.419 . S
C2059 C2060 1.363 1_556 S
C2059 H2062 0.929 1_556 S
C2060 C2059 1.363 1_554 S
C2060 C2066 1.428 1_554 S
H2061 C2057 0.930 . S
H2062 C2059 0.929 1_554 S
S2063 N2064 1.613 . S
S2063 N2065 1.610 . S
N2064 S2063 1.613 . S
N2064 C2067 1.350 . S
N2065 S2063 1.610 . S
N2065 C2066 1.351 . S
C2066 C2060 1.428 1_556 S
C2066 N2065 1.351 . S
C2066 C2067 1.434 . S
C2067 C2058 1.429 . S
C2067 N2064 1.350 . S
C2067 C2066 1.434 . S
C2068 C2069 1.369 . S
C2068 C2070 1.419 . S
C2068 H2072 0.930 . S
C2069 C2068 1.369 . S
C2069 C2078 1.429 . S
C2070 C2068 1.419 . S
C2070 C2071 1.363 . S
C2070 H2073 0.929 . S
C2071 C2070 1.363 . S
C2071 C2077 1.428 . S
H2072 C2068 0.930 . S
H2073 C2070 0.929 . S
S2074 N2075 1.613 . S
S2074 N2076 1.610 . S
N2075 S2074 1.613 . S
N2075 C2078 1.350 . S
N2076 S2074 1.610 . S
N2076 C2077 1.351 . S
C2077 C2071 1.428 . S
C2077 N2076 1.351 . S
C2077 C2078 1.434 . S
C2078 C2069 1.429 . S
C2078 N2075 1.350 . S
C2078 C2077 1.434 . S
C2079 C2080 1.369 . S
C2079 C2081 1.419 . S
C2079 H2083 0.930 . S
C2080 C2079 1.369 . S
C2080 C2089 1.429 1_556 S
C2081 C2079 1.419 . S
C2081 C2082 1.363 1_556 S
C2081 H2084 0.929 . S
C2082 C2081 1.363 1_554 S
C2082 C2088 1.428 . S
H2083 C2079 0.930 . S
H2084 C2081 0.929 . S
S2085 N2086 1.613 . S
S2085 N2087 1.610 . S
N2086 S2085 1.613 . S
N2086 C2089 1.350 . S
N2087 S2085 1.610 . S
N2087 C2088 1.351 . S
C2088 C2082 1.428 . S
C2088 N2087 1.351 . S
C2088 C2089 1.434 . S
C2089 C2080 1.429 1_554 S
C2089 N2086 1.350 . S
C2089 C2088 1.434 . S
C2090 C2091 1.369 . S
C2090 C2092 1.419 . S
C2090 H2094 0.930 . S
C2091 C2090 1.369 . S
C2091 C2100 1.429 . S
C2092 C2090 1.419 . S
C2092 C2093 1.363 . S
C2092 H2095 0.929 . S
C2093 C2092 1.363 . S
C2093 C2099 1.428 . S
H2094 C2090 0.930 . S
H2095 C2092 0.929 . S
S2096 N2097 1.613 . S
S2096 N2098 1.610 . S
N2097 S2096 1.613 . S
N2097 C2100 1.350 . S
N2098 S2096 1.610 . S
N2098 C2099 1.351 . S
C2099 C2093 1.428 . S
C2099 N2098 1.351 . S
C2099 C2100 1.434 . S
C2100 C2091 1.429 . S
C2100 N2097 1.350 . S
C2100 C2099 1.434 . S
C2101 C2102 1.369 . S
C2101 C2103 1.419 . S
C2101 H2105 0.930 . S
C2102 C2101 1.369 . S
C2102 C2111 1.429 . S
C2103 C2101 1.419 . S
C2103 C2104 1.363 . S
C2103 H2106 0.929 . S
C2104 C2103 1.363 . S
C2104 C2110 1.428 . S
H2105 C2101 0.930 . S
H2106 C2103 0.929 . S
S2107 N2108 1.613 . S
S2107 N2109 1.610 . S
N2108 S2107 1.613 . S
N2108 C2111 1.350 . S
N2109 S2107 1.610 . S
N2109 C2110 1.351 . S
C2110 C2104 1.428 . S
C2110 N2109 1.351 . S
C2110 C2111 1.434 . S
C2111 C2102 1.429 . S
C2111 N2108 1.350 . S
C2111 C2110 1.434 . S
C2112 C2113 1.369 . S
C2112 C2114 1.419 . S
C2112 H2116 0.930 . S
C2113 C2112 1.369 . S
C2113 C2122 1.429 . S
C2114 C2112 1.419 . S
C2114 C2115 1.363 . S
C2114 H2117 0.929 . S
C2115 C2114 1.363 . S
C2115 C2121 1.428 . S
H2116 C2112 0.930 . S
H2117 C2114 0.929 . S
S2118 N2119 1.613 . S
S2118 N2120 1.610 . S
N2119 S2118 1.613 . S
N2119 C2122 1.350 . S
N2120 S2118 1.610 . S
N2120 C2121 1.351 . S
C2121 C2115 1.428 . S
C2121 N2120 1.351 . S
C2121 C2122 1.434 . S
C2122 C2113 1.429 . S
C2122 N2119 1.350 . S
C2122 C2121 1.434 . S
C2123 C2124 1.369 . S
C2123 C2125 1.419 . S
C2123 H2127 0.930 . S
C2124 C2123 1.369 . S
C2124 C2133 1.429 . S
C2125 C2123 1.419 . S
C2125 C2126 1.363 . S
C2125 H2128 0.929 . S
C2126 C2125 1.363 . S
C2126 C2132 1.428 . S
H2127 C2123 0.930 . S
H2128 C2125 0.929 . S
S2129 N2130 1.613 . S
S2129 N2131 1.610 . S
N2130 S2129 1.613 . S
N2130 C2133 1.350 . S
N2131 S2129 1.610 . S
N2131 C2132 1.351 . S
C2132 C2126 1.428 . S
C2132 N2131 1.351 . S
C2132 C2133 1.434 . S
C2133 C2124 1.429 . S
C2133 N2130 1.350 . S
C2133 C2132 1.434 . S
C2134 C2135 1.369 . S
C2134 C2136 1.419 . S
C2134 H2138 0.930 . S
C2135 C2134 1.369 . S
C2135 C2144 1.429 . S
C2136 C2134 1.419 . S
C2136 C2137 1.363 . S
C2136 H2139 0.929 . S
C2137 C2136 1.363 . S
C2137 C2143 1.428 . S
H2138 C2134 0.930 . S
H2139 C2136 0.929 . S
S2140 N2141 1.613 . S
S2140 N2142 1.610 . S
N2141 S2140 1.613 . S
N2141 C2144 1.350 . S
N2142 S2140 1.610 . S
N2142 C2143 1.351 . S
C2143 C2137 1.428 . S
C2143 N2142 1.351 . S
C2143 C2144 1.434 . S
C2144 C2135 1.429 . S
C2144 N2141 1.350 . S
C2144 C2143 1.434 . S
C2145 C2146 1.369 . S
C2145 C2147 1.419 . S
C2145 H2149 0.930 . S
C2146 C2145 1.369 . S
C2146 C2155 1.429 . S
C2147 C2145 1.419 . S
C2147 C2148 1.363 . S
C2147 H2150 0.929 . S
C2148 C2147 1.363 . S
C2148 C2154 1.428 . S
H2149 C2145 0.930 . S
H2150 C2147 0.929 . S
S2151 N2152 1.613 . S
S2151 N2153 1.610 . S
N2152 S2151 1.613 . S
N2152 C2155 1.350 . S
N2153 S2151 1.610 . S
N2153 C2154 1.351 . S
C2154 C2148 1.428 . S
C2154 N2153 1.351 . S
C2154 C2155 1.434 . S
C2155 C2146 1.429 . S
C2155 N2152 1.350 . S
C2155 C2154 1.434 . S
C2156 C2157 1.369 . S
C2156 C2158 1.419 . S
C2156 H2160 0.930 . S
C2157 C2156 1.369 . S
C2157 C2166 1.429 . S
C2158 C2156 1.419 . S
C2158 C2159 1.363 . S
C2158 H2161 0.929 . S
C2159 C2158 1.363 . S
C2159 C2165 1.428 . S
H2160 C2156 0.930 . S
H2161 C2158 0.929 . S
S2162 N2163 1.613 . S
S2162 N2164 1.610 . S
N2163 S2162 1.613 . S
N2163 C2166 1.350 . S
N2164 S2162 1.610 . S
N2164 C2165 1.351 . S
C2165 C2159 1.428 . S
C2165 N2164 1.351 . S
C2165 C2166 1.434 . S
C2166 C2157 1.429 . S
C2166 N2163 1.350 . S
C2166 C2165 1.434 . S
C2167 C2168 1.369 . S
C2167 C2169 1.419 . S
C2167 H2171 0.930 . S
C2168 C2167 1.369 . S
C2168 C2177 1.429 . S
C2169 C2167 1.419 . S
C2169 C2170 1.363 . S
C2169 H2172 0.929 . S
C2170 C2169 1.363 . S
C2170 C2176 1.428 . S
H2171 C2167 0.930 . S
H2172 C2169 0.929 . S
S2173 N2174 1.613 . S
S2173 N2175 1.610 . S
N2174 S2173 1.613 . S
N2174 C2177 1.350 . S
N2175 S2173 1.610 . S
N2175 C2176 1.351 . S
C2176 C2170 1.428 . S
C2176 N2175 1.351 . S
C2176 C2177 1.434 . S
C2177 C2168 1.429 . S
C2177 N2174 1.350 . S
C2177 C2176 1.434 . S
C2178 C2179 1.369 . S
C2178 C2180 1.419 . S
C2178 H2182 0.930 . S
C2179 C2178 1.369 . S
C2179 C2188 1.429 . S
C2180 C2178 1.419 . S
C2180 C2181 1.363 . S
C2180 H2183 0.929 . S
C2181 C2180 1.363 . S
C2181 C2187 1.428 . S
H2182 C2178 0.930 . S
H2183 C2180 0.929 . S
S2184 N2185 1.608 . S
S2184 N2186 1.608 . S
N2185 S2184 1.608 . S
N2185 C2188 1.350 . S
N2186 S2184 1.608 . S
N2186 C2187 1.351 . S
C2187 C2181 1.428 . S
C2187 N2186 1.351 . S
C2187 C2188 1.434 . S
C2188 C2179 1.429 . S
C2188 N2185 1.350 . S
C2188 C2187 1.434 . S
C2189 C2190 1.369 . S
C2189 C2191 1.419 . S
C2189 H2193 0.930 . S
C2190 C2189 1.369 . S
C2190 C2199 1.429 . S
C2191 C2189 1.419 . S
C2191 C2192 1.363 . S
C2191 H2194 0.929 . S
C2192 C2191 1.363 . S
C2192 C2198 1.428 . S
H2193 C2189 0.930 . S
H2194 C2191 0.929 . S
S2195 N2196 1.613 1_556 S
S2195 N2197 1.610 1_556 S
N2196 S2195 1.613 1_554 S
N2196 C2199 1.350 . S
N2197 S2195 1.610 1_554 S
N2197 C2198 1.351 . S
C2198 C2192 1.428 . S
C2198 N2197 1.351 . S
C2198 C2199 1.434 . S
C2199 C2190 1.429 . S
C2199 N2196 1.350 . S
C2199 C2198 1.434 . S
C2200 C2201 1.369 . S
C2200 C2202 1.419 . S
C2200 H2204 0.930 . S
C2201 C2200 1.369 . S
C2201 C2210 1.429 . S
C2202 C2200 1.419 . S
C2202 C2203 1.363 . S
C2202 H2205 0.929 . S
C2203 C2202 1.363 . S
C2203 C2209 1.428 . S
H2204 C2200 0.930 . S
H2205 C2202 0.929 . S
S2206 N2207 1.613 1_655 S
S2206 N2208 1.610 1_655 S
N2207 S2206 1.613 1_455 S
N2207 C2210 1.350 . S
N2208 S2206 1.610 1_455 S
N2208 C2209 1.351 . S
C2209 C2203 1.428 . S
C2209 N2208 1.351 . S
C2209 C2210 1.434 . S
C2210 C2201 1.429 . S
C2210 N2207 1.350 . S
C2210 C2209 1.434 . S
C2211 C2212 1.369 . S
C2211 C2213 1.419 . S
C2211 H2215 0.930 . S
C2212 C2211 1.369 . S
C2212 C2221 1.429 . S
C2213 C2211 1.419 . S
C2213 C2214 1.363 . S
C2213 H2216 0.929 . S
C2214 C2213 1.363 . S
C2214 C2220 1.428 . S
H2215 C2211 0.930 . S
H2216 C2213 0.929 . S
S2217 N2218 1.613 . S
S2217 N2219 1.610 . S
N2218 S2217 1.613 . S
N2218 C2221 1.350 . S
N2219 S2217 1.610 . S
N2219 C2220 1.351 . S
C2220 C2214 1.428 . S
C2220 N2219 1.351 . S
C2220 C2221 1.434 . S
C2221 C2212 1.429 . S
C2221 N2218 1.350 . S
C2221 C2220 1.434 . S
C2222 C2223 1.369 . S
C2222 C2224 1.419 . S
C2222 H2226 0.930 . S
C2223 C2222 1.369 . S
C2223 C2232 1.429 . S
C2224 C2222 1.419 . S
C2224 C2225 1.363 . S
C2224 H2227 0.929 . S
C2225 C2224 1.363 . S
C2225 C2231 1.428 . S
H2226 C2222 0.930 . S
H2227 C2224 0.929 . S
S2228 N2229 1.613 . S
S2228 N2230 1.610 . S
N2229 S2228 1.613 . S
N2229 C2232 1.350 . S
N2230 S2228 1.610 . S
N2230 C2231 1.351 . S
C2231 C2225 1.428 . S
C2231 N2230 1.351 . S
C2231 C2232 1.434 . S
C2232 C2223 1.429 . S
C2232 N2229 1.350 . S
C2232 C2231 1.434 . S
C2233 C2234 1.369 . S
C2233 C2235 1.419 . S
C2233 H2237 0.930 . S
C2234 C2233 1.369 . S
C2234 C2243 1.429 . S
C2235 C2233 1.419 . S
C2235 C2236 1.363 . S
C2235 H2238 0.929 . S
C2236 C2235 1.363 . S
C2236 C2242 1.428 . S
H2237 C2233 0.930 . S
H2238 C2235 0.929 . S
S2239 N2240 1.613 . S
S2239 N2241 1.610 . S
N2240 S2239 1.613 . S
N2240 C2243 1.350 . S
N2241 S2239 1.610 . S
N2241 C2242 1.351 . S
C2242 C2236 1.428 . S
C2242 N2241 1.351 . S
C2242 C2243 1.434 . S
C2243 C2234 1.429 . S
C2243 N2240 1.350 . S
C2243 C2242 1.434 . S
C2244 C2245 1.369 . S
C2244 C2246 1.419 . S
C2244 H2248 0.930 . S
C2245 C2244 1.369 . S
C2245 C2254 1.429 . S
C2246 C2244 1.419 . S
C2246 C2247 1.363 . S
C2246 H2249 0.929 . S
C2247 C2246 1.363 . S
C2247 C2253 1.428 . S
H2248 C2244 0.930 . S
H2249 C2246 0.929 . S
S2250 N2251 1.613 . S
S2250 N2252 1.610 . S
N2251 S2250 1.613 . S
N2251 C2254 1.350 . S
N2252 S2250 1.610 . S
N2252 C2253 1.351 . S
C2253 C2247 1.428 . S
C2253 N2252 1.351 . S
C2253 C2254 1.434 . S
C2254 C2245 1.429 . S
C2254 N2251 1.350 . S
C2254 C2253 1.434 . S
C2255 C2256 1.369 . S
C2255 C2257 1.419 . S
C2255 H2259 0.930 . S
C2256 C2255 1.369 . S
C2256 C2265 1.429 . S
C2257 C2255 1.419 . S
C2257 C2258 1.363 . S
C2257 H2260 0.929 . S
C2258 C2257 1.363 . S
C2258 C2264 1.428 . S
H2259 C2255 0.930 . S
H2260 C2257 0.929 . S
S2261 N2262 1.613 . S
S2261 N2263 1.610 . S
N2262 S2261 1.613 . S
N2262 C2265 1.350 . S
N2263 S2261 1.610 . S
N2263 C2264 1.351 . S
C2264 C2258 1.428 . S
C2264 N2263 1.351 . S
C2264 C2265 1.434 . S
C2265 C2256 1.429 . S
C2265 N2262 1.350 . S
C2265 C2264 1.434 . S
C2266 C2267 1.369 . S
C2266 C2268 1.419 . S
C2266 H2270 0.930 . S
C2267 C2266 1.369 . S
C2267 C2276 1.429 . S
C2268 C2266 1.419 . S
C2268 C2269 1.363 . S
C2268 H2271 0.929 . S
C2269 C2268 1.363 . S
C2269 C2275 1.428 . S
H2270 C2266 0.930 . S
H2271 C2268 0.929 . S
S2272 N2273 1.613 . S
S2272 N2274 1.610 . S
N2273 S2272 1.613 . S
N2273 C2276 1.350 . S
N2274 S2272 1.610 . S
N2274 C2275 1.351 . S
C2275 C2269 1.428 . S
C2275 N2274 1.351 . S
C2275 C2276 1.434 . S
C2276 C2267 1.429 . S
C2276 N2273 1.350 . S
C2276 C2275 1.434 . S
C2277 C2278 1.369 . S
C2277 C2279 1.419 . S
C2277 H2281 0.930 . S
C2278 C2277 1.369 . S
C2278 C2287 1.429 . S
C2279 C2277 1.419 . S
C2279 C2280 1.363 . S
C2279 H2282 0.929 . S
C2280 C2279 1.363 . S
C2280 C2286 1.428 . S
H2281 C2277 0.930 . S
H2282 C2279 0.929 . S
S2283 N2284 1.613 . S
S2283 N2285 1.610 . S
N2284 S2283 1.613 . S
N2284 C2287 1.350 . S
N2285 S2283 1.610 . S
N2285 C2286 1.351 . S
C2286 C2280 1.428 . S
C2286 N2285 1.351 . S
C2286 C2287 1.434 . S
C2287 C2278 1.429 . S
C2287 N2284 1.350 . S
C2287 C2286 1.434 . S
C2288 C2289 1.369 . S
C2288 C2290 1.419 . S
C2288 H2292 0.930 . S
C2289 C2288 1.369 . S
C2289 C2298 1.429 . S
C2290 C2288 1.419 . S
C2290 C2291 1.363 . S
C2290 H2293 0.929 . S
C2291 C2290 1.363 . S
C2291 C2297 1.428 . S
H2292 C2288 0.930 . S
H2293 C2290 0.929 . S
S2294 N2295 1.613 . S
S2294 N2296 1.610 . S
N2295 S2294 1.613 . S
N2295 C2298 1.350 . S
N2296 S2294 1.610 . S
N2296 C2297 1.351 . S
C2297 C2291 1.428 . S
C2297 N2296 1.351 . S
C2297 C2298 1.434 . S
C2298 C2289 1.429 . S
C2298 N2295 1.350 . S
C2298 C2297 1.434 . S
C2299 C2300 1.369 . S
C2299 C2301 1.419 . S
C2299 H2303 0.930 . S
C2300 C2299 1.369 . S
C2300 C2309 1.429 . S
C2301 C2299 1.419 . S
C2301 C2302 1.363 . S
C2301 H2304 0.929 . S
C2302 C2301 1.363 . S
C2302 C2308 1.428 . S
H2303 C2299 0.930 . S
H2304 C2301 0.929 . S
S2305 N2306 1.613 . S
S2305 N2307 1.610 . S
N2306 S2305 1.613 . S
N2306 C2309 1.350 . S
N2307 S2305 1.610 . S
N2307 C2308 1.351 . S
C2308 C2302 1.428 . S
C2308 N2307 1.351 . S
C2308 C2309 1.434 . S
C2309 C2300 1.429 . S
C2309 N2306 1.350 . S
C2309 C2308 1.434 . S
C2310 C2311 1.369 . S
C2310 C2312 1.419 . S
C2310 H2314 0.930 . S
C2311 C2310 1.369 . S
C2311 C2320 1.429 . S
C2312 C2310 1.419 . S
C2312 C2313 1.363 . S
C2312 H2315 0.929 . S
C2313 C2312 1.363 . S
C2313 C2319 1.428 . S
H2314 C2310 0.930 . S
H2315 C2312 0.929 . S
S2316 N2317 1.613 . S
S2316 N2318 1.610 . S
N2317 S2316 1.613 . S
N2317 C2320 1.350 . S
N2318 S2316 1.610 . S
N2318 C2319 1.351 . S
C2319 C2313 1.428 . S
C2319 N2318 1.351 . S
C2319 C2320 1.434 . S
C2320 C2311 1.429 . S
C2320 N2317 1.350 . S
C2320 C2319 1.434 . S
C2321 C2322 1.369 . S
C2321 C2323 1.419 . S
C2321 H2325 0.930 . S
C2322 C2321 1.369 . S
C2322 C2331 1.429 . S
C2323 C2321 1.419 . S
C2323 C2324 1.363 . S
C2323 H2326 0.929 . S
C2324 C2323 1.363 . S
C2324 C2330 1.428 . S
H2325 C2321 0.930 . S
H2326 C2323 0.929 . S
S2327 N2328 1.613 . S
S2327 N2329 1.610 . S
N2328 S2327 1.613 . S
N2328 C2331 1.350 . S
N2329 S2327 1.610 . S
N2329 C2330 1.351 . S
C2330 C2324 1.428 . S
C2330 N2329 1.351 . S
C2330 C2331 1.434 . S
C2331 C2322 1.429 . S
C2331 N2328 1.350 . S
C2331 C2330 1.434 . S
C2332 C2333 1.369 . S
C2332 C2334 1.419 . S
C2332 H2336 0.930 . S
C2333 C2332 1.369 . S
C2333 C2342 1.429 . S
C2334 C2332 1.419 . S
C2334 C2335 1.363 . S
C2334 H2337 0.929 . S
C2335 C2334 1.363 . S
C2335 C2341 1.428 . S
H2336 C2332 0.930 . S
H2337 C2334 0.929 . S
S2338 N2339 1.613 . S
S2338 N2340 1.610 . S
N2339 S2338 1.613 . S
N2339 C2342 1.350 . S
N2340 S2338 1.610 . S
N2340 C2341 1.351 . S
C2341 C2335 1.428 . S
C2341 N2340 1.351 . S
C2341 C2342 1.434 . S
C2342 C2333 1.429 . S
C2342 N2339 1.350 . S
C2342 C2341 1.434 . S
C2343 C2344 1.369 . S
C2343 C2345 1.419 . S
C2343 H2347 0.930 . S
C2344 C2343 1.369 . S
C2344 C2353 1.429 . S
C2345 C2343 1.419 . S
C2345 C2346 1.363 . S
C2345 H2348 0.929 . S
C2346 C2345 1.363 . S
C2346 C2352 1.428 . S
H2347 C2343 0.930 . S
H2348 C2345 0.929 . S
S2349 N2350 1.613 . S
S2349 N2351 1.610 . S
N2350 S2349 1.613 . S
N2350 C2353 1.350 . S
N2351 S2349 1.610 . S
N2351 C2352 1.351 . S
C2352 C2346 1.428 . S
C2352 N2351 1.351 . S
C2352 C2353 1.434 . S
C2353 C2344 1.429 . S
C2353 N2350 1.350 . S
C2353 C2352 1.434 . S
C2354 C2355 1.369 . S
C2354 C2356 1.419 . S
C2354 H2358 0.930 . S
C2355 C2354 1.369 . S
C2355 C2364 1.429 . S
C2356 C2354 1.419 . S
C2356 C2357 1.363 . S
C2356 H2359 0.929 . S
C2357 C2356 1.363 . S
C2357 C2363 1.428 . S
H2358 C2354 0.930 . S
H2359 C2356 0.929 . S
S2360 N2361 1.613 . S
S2360 N2362 1.610 . S
N2361 S2360 1.613 . S
N2361 C2364 1.350 . S
N2362 S2360 1.610 . S
N2362 C2363 1.351 . S
C2363 C2357 1.428 . S
C2363 N2362 1.351 . S
C2363 C2364 1.434 . S
C2364 C2355 1.429 . S
C2364 N2361 1.350 . S
C2364 C2363 1.434 . S
C2365 C2366 1.369 . S
C2365 C2367 1.419 . S
C2365 H2369 0.930 . S
C2366 C2365 1.369 . S
C2366 C2375 1.429 . S
C2367 C2365 1.419 . S
C2367 C2368 1.363 . S
C2367 H2370 0.929 . S
C2368 C2367 1.363 . S
C2368 C2374 1.428 . S
H2369 C2365 0.930 . S
H2370 C2367 0.929 . S
S2371 N2372 1.613 . S
S2371 N2373 1.610 . S
N2372 S2371 1.613 . S
N2372 C2375 1.350 . S
N2373 S2371 1.610 . S
N2373 C2374 1.351 . S
C2374 C2368 1.428 . S
C2374 N2373 1.351 . S
C2374 C2375 1.434 . S
C2375 C2366 1.429 . S
C2375 N2372 1.350 . S
C2375 C2374 1.434 . S
C2376 C2377 1.369 . S
C2376 C2378 1.419 . S
C2376 H2380 0.930 . S
C2377 C2376 1.369 . S
C2377 C2386 1.429 . S
C2378 C2376 1.419 . S
C2378 C2379 1.363 . S
C2378 H2381 0.929 . S
C2379 C2378 1.363 . S
C2379 C2385 1.428 . S
H2380 C2376 0.930 . S
H2381 C2378 0.929 . S
S2382 N2383 1.613 . S
S2382 N2384 1.610 . S
N2383 S2382 1.613 . S
N2383 C2386 1.350 . S
N2384 S2382 1.610 . S
N2384 C2385 1.351 . S
C2385 C2379 1.428 . S
C2385 N2384 1.351 . S
C2385 C2386 1.434 . S
C2386 C2377 1.429 . S
C2386 N2383 1.350 . S
C2386 C2385 1.434 . S
C2387 C2388 1.369 . S
C2387 C2389 1.419 . S
C2387 H2391 0.930 . S
C2388 C2387 1.369 . S
C2388 C2397 1.429 . S
C2389 C2387 1.419 . S
C2389 C2390 1.363 . S
C2389 H2392 0.929 . S
C2390 C2389 1.363 . S
C2390 C2396 1.428 . S
H2391 C2387 0.930 . S
H2392 C2389 0.929 . S
S2393 N2394 1.613 . S
S2393 N2395 1.610 . S
N2394 S2393 1.613 . S
N2394 C2397 1.350 . S
N2395 S2393 1.610 . S
N2395 C2396 1.351 . S
C2396 C2390 1.428 . S
C2396 N2395 1.351 . S
C2396 C2397 1.434 . S
C2397 C2388 1.429 . S
C2397 N2394 1.350 . S
C2397 C2396 1.434 . S
C2398 C2399 1.369 . S
C2398 C2400 1.419 . S
C2398 H2402 0.930 . S
C2399 C2398 1.369 . S
C2399 C2408 1.429 . S
C2400 C2398 1.419 . S
C2400 C2401 1.363 . S
C2400 H2403 0.929 . S
C2401 C2400 1.363 . S
C2401 C2407 1.428 . S
H2402 C2398 0.930 . S
H2403 C2400 0.929 . S
S2404 N2405 1.613 . S
S2404 N2406 1.610 . S
N2405 S2404 1.613 . S
N2405 C2408 1.350 . S
N2406 S2404 1.610 . S
N2406 C2407 1.351 . S
C2407 C2401 1.428 . S
C2407 N2406 1.351 . S
C2407 C2408 1.434 . S
C2408 C2399 1.429 . S
C2408 N2405 1.350 . S
C2408 C2407 1.434 . S
C2409 C2410 1.369 . S
C2409 C2411 1.419 . S
C2409 H2413 0.930 . S
C2410 C2409 1.369 . S
C2410 C2419 1.429 . S
C2411 C2409 1.419 . S
C2411 C2412 1.363 . S
C2411 H2414 0.929 . S
C2412 C2411 1.363 . S
C2412 C2418 1.428 . S
H2413 C2409 0.930 . S
H2414 C2411 0.929 . S
S2415 N2416 1.613 . S
S2415 N2417 1.610 . S
N2416 S2415 1.613 . S
N2416 C2419 1.350 . S
N2417 S2415 1.610 . S
N2417 C2418 1.351 . S
C2418 C2412 1.428 . S
C2418 N2417 1.351 . S
C2418 C2419 1.434 . S
C2419 C2410 1.429 . S
C2419 N2416 1.350 . S
C2419 C2418 1.434 . S
C2420 C2421 1.369 . S
C2420 C2422 1.419 . S
C2420 H2424 0.930 . S
C2421 C2420 1.369 . S
C2421 C2430 1.429 . S
C2422 C2420 1.419 . S
C2422 C2423 1.363 . S
C2422 H2425 0.929 . S
C2423 C2422 1.363 . S
C2423 C2429 1.428 . S
H2424 C2420 0.930 . S
H2425 C2422 0.929 . S
S2426 N2427 1.613 . S
S2426 N2428 1.610 . S
N2427 S2426 1.613 . S
N2427 C2430 1.350 . S
N2428 S2426 1.610 . S
N2428 C2429 1.351 . S
C2429 C2423 1.428 . S
C2429 N2428 1.351 . S
C2429 C2430 1.434 . S
C2430 C2421 1.429 . S
C2430 N2427 1.350 . S
C2430 C2429 1.434 . S
C2431 C2432 1.369 . S
C2431 C2433 1.419 . S
C2431 H2435 0.930 . S
C2432 C2431 1.369 . S
C2432 C2441 1.429 . S
C2433 C2431 1.419 . S
C2433 C2434 1.363 . S
C2433 H2436 0.929 . S
C2434 C2433 1.363 . S
C2434 C2440 1.428 . S
H2435 C2431 0.930 . S
H2436 C2433 0.929 . S
S2437 N2438 1.613 . S
S2437 N2439 1.610 . S
N2438 S2437 1.613 . S
N2438 C2441 1.350 . S
N2439 S2437 1.610 . S
N2439 C2440 1.351 . S
C2440 C2434 1.428 . S
C2440 N2439 1.351 . S
C2440 C2441 1.434 . S
C2441 C2432 1.429 . S
C2441 N2438 1.350 . S
C2441 C2440 1.434 . S
C2442 C2443 1.369 . S
C2442 C2444 1.419 . S
C2442 H2446 0.930 . S
C2443 C2442 1.369 . S
C2443 C2452 1.429 . S
C2444 C2442 1.419 . S
C2444 C2445 1.363 . S
C2444 H2447 0.929 . S
C2445 C2444 1.363 . S
C2445 C2451 1.428 . S
H2446 C2442 0.930 . S
H2447 C2444 0.929 . S
S2448 N2449 1.613 . S
S2448 N2450 1.610 . S
N2449 S2448 1.613 . S
N2449 C2452 1.350 . S
N2450 S2448 1.610 . S
N2450 C2451 1.351 . S
C2451 C2445 1.428 . S
C2451 N2450 1.351 . S
C2451 C2452 1.434 . S
C2452 C2443 1.429 . S
C2452 N2449 1.350 . S
C2452 C2451 1.434 . S
C2453 C2454 1.369 . S
C2453 C2455 1.419 . S
C2453 H2457 0.930 . S
C2454 C2453 1.369 . S
C2454 C2463 1.429 . S
C2455 C2453 1.419 . S
C2455 C2456 1.363 . S
C2455 H2458 0.929 . S
C2456 C2455 1.363 . S
C2456 C2462 1.428 . S
H2457 C2453 0.930 . S
H2458 C2455 0.929 . S
S2459 N2460 1.613 . S
S2459 N2461 1.610 . S
N2460 S2459 1.613 . S
N2460 C2463 1.350 . S
N2461 S2459 1.610 . S
N2461 C2462 1.351 . S
C2462 C2456 1.428 . S
C2462 N2461 1.351 . S
C2462 C2463 1.434 . S
C2463 C2454 1.429 . S
C2463 N2460 1.350 . S
C2463 C2462 1.434 . S
C2464 C2465 1.369 . S
C2464 C2466 1.419 . S
C2464 H2468 0.930 . S
C2465 C2464 1.369 . S
C2465 C2474 1.429 . S
C2466 C2464 1.419 . S
C2466 C2467 1.363 . S
C2466 H2469 0.929 . S
C2467 C2466 1.363 . S
C2467 C2473 1.428 . S
H2468 C2464 0.930 . S
H2469 C2466 0.929 . S
S2470 N2471 1.613 . S
S2470 N2472 1.610 . S
N2471 S2470 1.613 . S
N2471 C2474 1.350 . S
N2472 S2470 1.610 . S
N2472 C2473 1.351 . S
C2473 C2467 1.428 . S
C2473 N2472 1.351 . S
C2473 C2474 1.434 . S
C2474 C2465 1.429 . S
C2474 N2471 1.350 . S
C2474 C2473 1.434 . S
C2475 C2476 1.369 . S
C2475 C2477 1.419 . S
C2475 H2479 0.930 . S
C2476 C2475 1.369 . S
C2476 C2485 1.429 . S
C2477 C2475 1.419 . S
C2477 C2478 1.363 . S
C2477 H2480 0.929 . S
C2478 C2477 1.363 . S
C2478 C2484 1.428 . S
H2479 C2475 0.930 . S
H2480 C2477 0.929 . S
S2481 N2482 1.613 . S
S2481 N2483 1.610 . S
N2482 S2481 1.613 . S
N2482 C2485 1.350 . S
N2483 S2481 1.610 . S
N2483 C2484 1.351 . S
C2484 C2478 1.428 . S
C2484 N2483 1.351 . S
C2484 C2485 1.434 . S
C2485 C2476 1.429 . S
C2485 N2482 1.350 . S
C2485 C2484 1.434 . S
C2486 C2487 1.369 . S
C2486 C2488 1.419 . S
C2486 H2490 0.930 . S
C2487 C2486 1.369 . S
C2487 C2496 1.429 . S
C2488 C2486 1.419 . S
C2488 C2489 1.363 . S
C2488 H2491 0.929 . S
C2489 C2488 1.363 . S
C2489 C2495 1.428 . S
H2490 C2486 0.930 . S
H2491 C2488 0.929 . S
S2492 N2493 1.613 . S
S2492 N2494 1.610 . S
N2493 S2492 1.613 . S
N2493 C2496 1.350 . S
N2494 S2492 1.610 . S
N2494 C2495 1.351 . S
C2495 C2489 1.428 . S
C2495 N2494 1.351 . S
C2495 C2496 1.434 . S
C2496 C2487 1.429 . S
C2496 N2493 1.350 . S
C2496 C2495 1.434 . S
C2497 C2498 1.369 . S
C2497 C2499 1.419 . S
C2497 H2501 0.930 . S
C2498 C2497 1.369 . S
C2498 C2507 1.429 . S
C2499 C2497 1.419 . S
C2499 C2500 1.363 . S
C2499 H2502 0.929 . S
C2500 C2499 1.363 . S
C2500 C2506 1.428 . S
H2501 C2497 0.930 . S
H2502 C2499 0.929 . S
S2503 N2504 1.613 . S
S2503 N2505 1.610 . S
N2504 S2503 1.613 . S
N2504 C2507 1.350 . S
N2505 S2503 1.610 . S
N2505 C2506 1.351 . S
C2506 C2500 1.428 . S
C2506 N2505 1.351 . S
C2506 C2507 1.434 . S
C2507 C2498 1.429 . S
C2507 N2504 1.350 . S
C2507 C2506 1.434 . S
C2508 C2509 1.369 . S
C2508 C2510 1.419 . S
C2508 H2512 0.930 . S
C2509 C2508 1.369 . S
C2509 C2518 1.429 . S
C2510 C2508 1.419 . S
C2510 C2511 1.363 . S
C2510 H2513 0.929 . S
C2511 C2510 1.363 . S
C2511 C2517 1.428 . S
H2512 C2508 0.930 . S
H2513 C2510 0.929 . S
S2514 N2515 1.613 . S
S2514 N2516 1.610 . S
N2515 S2514 1.613 . S
N2515 C2518 1.350 . S
N2516 S2514 1.610 . S
N2516 C2517 1.351 . S
C2517 C2511 1.428 . S
C2517 N2516 1.351 . S
C2517 C2518 1.434 . S
C2518 C2509 1.429 . S
C2518 N2515 1.350 . S
C2518 C2517 1.434 . S
C2519 C2520 1.369 . S
C2519 C2521 1.419 . S
C2519 H2523 0.930 . S
C2520 C2519 1.369 . S
C2520 C2529 1.429 . S
C2521 C2519 1.419 . S
C2521 C2522 1.363 . S
C2521 H2524 0.929 . S
C2522 C2521 1.363 . S
C2522 C2528 1.428 . S
H2523 C2519 0.930 . S
H2524 C2521 0.929 . S
S2525 N2526 1.613 . S
S2525 N2527 1.610 . S
N2526 S2525 1.613 . S
N2526 C2529 1.350 . S
N2527 S2525 1.610 . S
N2527 C2528 1.351 . S
C2528 C2522 1.428 . S
C2528 N2527 1.351 . S
C2528 C2529 1.434 . S
C2529 C2520 1.429 . S
C2529 N2526 1.350 . S
C2529 C2528 1.434 . S
C2530 C2531 1.369 . S
C2530 C2532 1.419 . S
C2530 H2534 0.930 . S
C2531 C2530 1.369 . S
C2531 C2540 1.429 . S
C2532 C2530 1.419 . S
C2532 C2533 1.363 . S
C2532 H2535 0.929 . S
C2533 C2532 1.363 . S
C2533 C2539 1.428 . S
H2534 C2530 0.930 . S
H2535 C2532 0.929 . S
S2536 N2537 1.613 . S
S2536 N2538 1.610 . S
N2537 S2536 1.613 . S
N2537 C2540 1.350 . S
N2538 S2536 1.610 . S
N2538 C2539 1.351 . S
C2539 C2533 1.428 . S
C2539 N2538 1.351 . S
C2539 C2540 1.434 . S
C2540 C2531 1.429 . S
C2540 N2537 1.350 . S
C2540 C2539 1.434 . S
C2541 C2542 1.369 . S
C2541 C2543 1.419 . S
C2541 H2545 0.930 . S
C2542 C2541 1.369 . S
C2542 C2551 1.429 . S
C2543 C2541 1.419 . S
C2543 C2544 1.363 . S
C2543 H2546 0.929 . S
C2544 C2543 1.363 . S
C2544 C2550 1.428 . S
H2545 C2541 0.930 . S
H2546 C2543 0.929 . S
S2547 N2548 1.613 . S
S2547 N2549 1.610 . S
N2548 S2547 1.613 . S
N2548 C2551 1.350 . S
N2549 S2547 1.610 . S
N2549 C2550 1.351 . S
C2550 C2544 1.428 . S
C2550 N2549 1.351 . S
C2550 C2551 1.434 . S
C2551 C2542 1.429 . S
C2551 N2548 1.350 . S
C2551 C2550 1.434 . S
C2552 C2553 1.369 . S
C2552 C2554 1.419 . S
C2552 H2556 0.930 . S
C2553 C2552 1.369 . S
C2553 C2562 1.429 . S
C2554 C2552 1.419 . S
C2554 C2555 1.363 . S
C2554 H2557 0.929 . S
C2555 C2554 1.363 . S
C2555 C2561 1.428 . S
H2556 C2552 0.930 . S
H2557 C2554 0.929 . S
S2558 N2559 1.613 . S
S2558 N2560 1.610 . S
N2559 S2558 1.613 . S
N2559 C2562 1.350 . S
N2560 S2558 1.610 . S
N2560 C2561 1.351 . S
C2561 C2555 1.428 . S
C2561 N2560 1.351 . S
C2561 C2562 1.434 . S
C2562 C2553 1.429 . S
C2562 N2559 1.350 . S
C2562 C2561 1.434 . S
C2563 C2564 1.369 . S
C2563 C2565 1.419 . S
C2563 H2567 0.930 . S
C2564 C2563 1.369 . S
C2564 C2573 1.429 . S
C2565 C2563 1.419 . S
C2565 C2566 1.363 . S
C2565 H2568 0.929 . S
C2566 C2565 1.363 . S
C2566 C2572 1.428 . S
H2567 C2563 0.930 . S
H2568 C2565 0.929 . S
S2569 N2570 1.613 . S
S2569 N2571 1.610 . S
N2570 S2569 1.613 . S
N2570 C2573 1.350 . S
N2571 S2569 1.610 . S
N2571 C2572 1.351 . S
C2572 C2566 1.428 . S
C2572 N2571 1.351 . S
C2572 C2573 1.434 . S
C2573 C2564 1.429 . S
C2573 N2570 1.350 . S
C2573 C2572 1.434 . S
C2574 C2575 1.369 . S
C2574 C2576 1.419 . S
C2574 H2578 0.930 . S
C2575 C2574 1.369 . S
C2575 C2584 1.429 . S
C2576 C2574 1.419 . S
C2576 C2577 1.363 . S
C2576 H2579 0.929 . S
C2577 C2576 1.363 . S
C2577 C2583 1.428 . S
H2578 C2574 0.930 . S
H2579 C2576 0.929 . S
S2580 N2581 1.613 . S
S2580 N2582 1.610 . S
N2581 S2580 1.613 . S
N2581 C2584 1.350 . S
N2582 S2580 1.610 . S
N2582 C2583 1.351 . S
C2583 C2577 1.428 . S
C2583 N2582 1.351 . S
C2583 C2584 1.434 . S
C2584 C2575 1.429 . S
C2584 N2581 1.350 . S
C2584 C2583 1.434 . S
C2585 C2586 1.369 . S
C2585 C2587 1.419 . S
C2585 H2589 0.930 . S
C2586 C2585 1.369 . S
C2586 C2595 1.429 . S
C2587 C2585 1.419 . S
C2587 C2588 1.363 . S
C2587 H2590 0.929 . S
C2588 C2587 1.363 . S
C2588 C2594 1.428 . S
H2589 C2585 0.930 . S
H2590 C2587 0.929 . S
S2591 N2592 1.613 . S
S2591 N2593 1.610 . S
N2592 S2591 1.613 . S
N2592 C2595 1.350 . S
N2593 S2591 1.610 . S
N2593 C2594 1.351 . S
C2594 C2588 1.428 . S
C2594 N2593 1.351 . S
C2594 C2595 1.434 . S
C2595 C2586 1.429 . S
C2595 N2592 1.350 . S
C2595 C2594 1.434 . S
C2596 C2597 1.369 . S
C2596 C2598 1.419 . S
C2596 H2600 0.930 . S
C2597 C2596 1.369 . S
C2597 C2606 1.429 . S
C2598 C2596 1.419 . S
C2598 C2599 1.363 . S
C2598 H2601 0.929 . S
C2599 C2598 1.363 . S
C2599 C2605 1.428 . S
H2600 C2596 0.930 . S
H2601 C2598 0.929 . S
S2602 N2603 1.613 . S
S2602 N2604 1.610 . S
N2603 S2602 1.613 . S
N2603 C2606 1.350 . S
N2604 S2602 1.610 . S
N2604 C2605 1.351 . S
C2605 C2599 1.428 . S
C2605 N2604 1.351 . S
C2605 C2606 1.434 . S
C2606 C2597 1.429 . S
C2606 N2603 1.350 . S
C2606 C2605 1.434 . S
C2607 C2608 1.369 . S
C2607 C2609 1.419 . S
C2607 H2611 0.930 . S
C2608 C2607 1.369 . S
C2608 C2617 1.429 . S
C2609 C2607 1.419 . S
C2609 C2610 1.363 . S
C2609 H2612 0.929 . S
C2610 C2609 1.363 . S
C2610 C2616 1.428 . S
H2611 C2607 0.930 . S
H2612 C2609 0.929 . S
S2613 N2614 1.613 . S
S2613 N2615 1.610 . S
N2614 S2613 1.613 . S
N2614 C2617 1.350 . S
N2615 S2613 1.610 . S
N2615 C2616 1.351 . S
C2616 C2610 1.428 . S
C2616 N2615 1.351 . S
C2616 C2617 1.434 . S
C2617 C2608 1.429 . S
C2617 N2614 1.350 . S
C2617 C2616 1.434 . S
C2618 C2619 1.369 . S
C2618 C2620 1.419 . S
C2618 H2622 0.930 . S
C2619 C2618 1.369 . S
C2619 C2628 1.429 . S
C2620 C2618 1.419 . S
C2620 C2621 1.363 . S
C2620 H2623 0.929 . S
C2621 C2620 1.363 . S
C2621 C2627 1.428 . S
H2622 C2618 0.930 . S
H2623 C2620 0.929 . S
S2624 N2625 1.613 . S
S2624 N2626 1.610 . S
N2625 S2624 1.613 . S
N2625 C2628 1.350 . S
N2626 S2624 1.610 . S
N2626 C2627 1.351 . S
C2627 C2621 1.428 . S
C2627 N2626 1.351 . S
C2627 C2628 1.434 . S
C2628 C2619 1.429 . S
C2628 N2625 1.350 . S
C2628 C2627 1.434 . S
C2629 C2630 1.369 . S
C2629 C2631 1.419 . S
C2629 H2633 0.930 . S
C2630 C2629 1.369 . S
C2630 C2639 1.429 . S
C2631 C2629 1.419 . S
C2631 C2632 1.363 . S
C2631 H2634 0.929 . S
C2632 C2631 1.363 . S
C2632 C2638 1.428 . S
H2633 C2629 0.930 . S
H2634 C2631 0.929 . S
S2635 N2636 1.613 . S
S2635 N2637 1.610 . S
N2636 S2635 1.613 . S
N2636 C2639 1.350 . S
N2637 S2635 1.610 . S
N2637 C2638 1.351 . S
C2638 C2632 1.428 . S
C2638 N2637 1.351 . S
C2638 C2639 1.434 . S
C2639 C2630 1.429 . S
C2639 N2636 1.350 . S
C2639 C2638 1.434 . S
C2640 C2641 1.369 . S
C2640 C2642 1.419 . S
C2640 H2644 0.930 . S
C2641 C2640 1.369 . S
C2641 C2650 1.429 1_445 S
C2642 C2640 1.419 . S
C2642 C2643 1.363 1_545 S
C2642 H2645 0.929 . S
C2643 C2642 1.363 1_565 S
C2643 C2649 1.428 1_455 S
H2644 C2640 0.930 . S
H2645 C2642 0.929 . S
S2646 N2647 1.613 . S
S2646 N2648 1.610 . S
N2647 S2646 1.613 . S
N2647 C2650 1.350 . S
N2648 S2646 1.610 . S
N2648 C2649 1.351 . S
C2649 C2643 1.428 1_655 S
C2649 N2648 1.351 . S
C2649 C2650 1.434 . S
C2650 C2641 1.429 1_665 S
C2650 N2647 1.350 . S
C2650 C2649 1.434 . S
C2651 C2652 1.369 . S
C2651 C2653 1.419 . S
C2651 H2655 0.930 . S
C2652 C2651 1.369 . S
C2652 C2661 1.429 . S
C2653 C2651 1.419 . S
C2653 C2654 1.363 . S
C2653 H2656 0.929 . S
C2654 C2653 1.363 . S
C2654 C2660 1.428 . S
H2655 C2651 0.930 . S
H2656 C2653 0.929 . S
S2657 N2658 1.613 . S
S2657 N2659 1.610 . S
N2658 S2657 1.613 . S
N2658 C2661 1.350 . S
N2659 S2657 1.610 . S
N2659 C2660 1.351 . S
C2660 C2654 1.428 . S
C2660 N2659 1.351 . S
C2660 C2661 1.434 . S
C2661 C2652 1.429 . S
C2661 N2658 1.350 . S
C2661 C2660 1.434 . S
C2662 C2663 1.369 . S
C2662 C2664 1.419 . S
C2662 H2666 0.930 . S
C2663 C2662 1.369 . S
C2663 C2672 1.429 1_565 S
C2664 C2662 1.419 . S
C2664 C2665 1.363 1_565 S
C2664 H2667 0.929 . S
C2665 C2664 1.363 1_545 S
C2665 C2671 1.428 . S
H2666 C2662 0.930 . S
H2667 C2664 0.929 . S
S2668 N2669 1.613 . S
S2668 N2670 1.610 . S
N2669 S2668 1.613 . S
N2669 C2672 1.350 . S
N2670 S2668 1.610 . S
N2670 C2671 1.351 . S
C2671 C2665 1.428 . S
C2671 N2670 1.351 . S
C2671 C2672 1.434 . S
C2672 C2663 1.429 1_545 S
C2672 N2669 1.350 . S
C2672 C2671 1.434 . S
C2673 C2674 1.369 . S
C2673 C2675 1.419 1_556 S
C2673 H2677 0.930 . S
C2674 C2673 1.369 . S
C2674 C2683 1.429 . S
C2675 C2673 1.419 1_554 S
C2675 C2676 1.363 . S
C2675 H2678 0.929 . S
C2676 C2675 1.363 . S
C2676 C2682 1.428 . S
H2677 C2673 0.930 . S
H2678 C2675 0.929 . S
S2679 N2680 1.613 1_554 S
S2679 N2681 1.610 . S
N2680 S2679 1.613 1_556 S
N2680 C2683 1.350 . S
N2681 S2679 1.610 . S
N2681 C2682 1.351 . S
C2682 C2676 1.428 . S
C2682 N2681 1.351 . S
C2682 C2683 1.434 1_554 S
C2683 C2674 1.429 . S
C2683 N2680 1.350 . S
C2683 C2682 1.434 1_556 S
C2684 C2685 1.380 1_556 S
C2684 C2686 1.419 . S
C2684 H2688 0.920 1_545 S
C2685 C2684 1.380 1_554 S
C2685 C2694 1.429 . S
C2686 C2684 1.419 . S
C2686 C2687 1.370 . S
C2686 H2689 0.922 1_545 S
C2687 C2686 1.370 . S
C2687 C2693 1.428 1_556 S
H2688 C2684 0.920 1_565 S
H2689 C2686 0.922 1_565 S
S2690 N2691 1.613 . S
S2690 N2692 1.610 . S
N2691 S2690 1.613 . S
N2691 C2694 1.350 . S
N2692 S2690 1.610 . S
N2692 C2693 1.351 . S
C2693 C2687 1.428 1_554 S
C2693 N2692 1.351 . S
C2693 C2694 1.434 . S
C2694 C2685 1.429 . S
C2694 N2691 1.350 . S
C2694 C2693 1.434 . S
C2695 C2696 1.369 . S
C2695 C2697 1.419 1_545 S
C2695 H2699 0.930 . S
C2696 C2695 1.369 . S
C2696 C2705 1.429 . S
C2697 C2695 1.419 1_565 S
C2697 C2698 1.363 . S
C2697 H2700 0.929 . S
C2698 C2697 1.363 . S
C2698 C2704 1.428 . S
H2699 C2695 0.930 . S
H2700 C2697 0.929 . S
S2701 N2702 1.613 . S
S2701 N2703 1.610 1_545 S
N2702 S2701 1.613 . S
N2702 C2705 1.350 . S
N2703 S2701 1.610 1_565 S
N2703 C2704 1.351 . S
C2704 C2698 1.428 . S
C2704 N2703 1.351 . S
C2704 C2705 1.434 1_565 S
C2705 C2696 1.429 . S
C2705 N2702 1.350 . S
C2705 C2704 1.434 1_545 S
C2706 C2707 1.351 1_545 S
C2706 C2708 1.419 . S
C2706 H2710 0.950 . S
C2707 C2706 1.351 1_565 S
C2707 C2716 1.429 . S
C2708 C2706 1.419 . S
C2708 C2709 1.349 1_545 S
C2708 H2711 0.944 . S
C2709 C2708 1.349 1_565 S
C2709 C2715 1.428 . S
H2710 C2706 0.950 . S
H2711 C2708 0.944 . S
S2712 N2713 1.613 . S
S2712 N2714 1.610 . S
N2713 S2712 1.613 . S
N2713 C2716 1.350 . S
N2714 S2712 1.610 . S
N2714 C2715 1.351 . S
C2715 C2709 1.428 . S
C2715 N2714 1.351 . S
C2715 C2716 1.434 . S
C2716 C2707 1.429 . S
C2716 N2713 1.350 . S
C2716 C2715 1.434 . S
C2717 C2718 1.369 . S
C2717 C2719 1.419 1_545 S
C2717 H2721 0.930 . S
C2718 C2717 1.369 . S
C2718 C2727 1.429 . S
C2719 C2717 1.419 1_565 S
C2719 C2720 1.363 . S
C2719 H2722 0.929 . S
C2720 C2719 1.363 . S
C2720 C2726 1.428 . S
H2721 C2717 0.930 . S
H2722 C2719 0.929 . S
S2723 N2724 1.613 1_565 S
S2723 N2725 1.610 . S
N2724 S2723 1.613 1_545 S
N2724 C2727 1.350 . S
N2725 S2723 1.610 . S
N2725 C2726 1.351 . S
C2726 C2720 1.428 . S
C2726 N2725 1.351 . S
C2726 C2727 1.434 1_565 S
C2727 C2718 1.429 . S
C2727 N2724 1.350 . S
C2727 C2726 1.434 1_545 S
C2728 C2729 1.369 1_455 S
C2728 C2730 1.419 . S
C2728 H2732 0.930 . S
C2729 C2728 1.369 1_655 S
C2729 C2738 1.429 . S
C2730 C2728 1.419 . S
C2730 C2731 1.363 . S
C2730 H2733 0.929 . S
C2731 C2730 1.363 . S
C2731 C2737 1.428 1_455 S
H2732 C2728 0.930 . S
H2733 C2730 0.929 . S
S2734 N2735 1.613 . S
S2734 N2736 1.610 . S
N2735 S2734 1.613 . S
N2735 C2738 1.350 . S
N2736 S2734 1.610 . S
N2736 C2737 1.351 . S
C2737 C2731 1.428 1_655 S
C2737 N2736 1.351 . S
C2737 C2738 1.434 . S
C2738 C2729 1.429 . S
C2738 N2735 1.350 . S
C2738 C2737 1.434 . S
C2739 C2740 1.369 . S
C2739 C2741 1.419 . S
C2739 H2743 0.930 . S
C2740 C2739 1.369 . S
C2740 C2749 1.429 . S
C2741 C2739 1.419 . S
C2741 C2742 1.363 . S
C2741 H2744 0.929 . S
C2742 C2741 1.363 . S
C2742 C2748 1.428 . S
H2743 C2739 0.930 . S
H2744 C2741 0.929 . S
S2745 N2746 1.613 . S
S2745 N2747 1.610 . S
N2746 S2745 1.613 . S
N2746 C2749 1.350 1_554 S
N2747 S2745 1.610 . S
N2747 C2748 1.351 1_554 S
C2748 C2742 1.428 . S
C2748 N2747 1.351 1_556 S
C2748 C2749 1.434 . S
C2749 C2740 1.429 . S
C2749 N2746 1.350 1_556 S
C2749 C2748 1.434 . S
C2750 C2751 1.369 . S
C2750 C2752 1.419 1_655 S
C2750 H2754 0.930 . S
C2751 C2750 1.369 . S
C2751 C2760 1.429 . S
C2752 C2750 1.419 1_455 S
C2752 C2753 1.363 . S
C2752 H2755 0.929 . S
C2753 C2752 1.363 . S
C2753 C2759 1.428 . S
H2754 C2750 0.930 . S
H2755 C2752 0.929 . S
S2756 N2757 1.613 1_455 S
S2756 N2758 1.610 . S
N2757 S2756 1.613 1_655 S
N2757 C2760 1.350 . S
N2758 S2756 1.610 . S
N2758 C2759 1.351 . S
C2759 C2753 1.428 . S
C2759 N2758 1.351 . S
C2759 C2760 1.434 1_455 S
C2760 C2751 1.429 . S
C2760 N2757 1.350 . S
C2760 C2759 1.434 1_655 S
C2761 C2762 1.369 1_455 S
C2761 C2763 1.419 . S
C2761 H2765 0.930 . S
C2762 C2761 1.369 1_655 S
C2762 C2771 1.429 . S
C2763 C2761 1.419 . S
C2763 C2764 1.363 . S
C2763 H2766 0.929 . S
C2764 C2763 1.363 . S
C2764 C2770 1.428 1_455 S
H2765 C2761 0.930 . S
H2766 C2763 0.929 . S
S2767 N2768 1.613 . S
S2767 N2769 1.610 . S
N2768 S2767 1.613 . S
N2768 C2771 1.350 . S
N2769 S2767 1.610 . S
N2769 C2770 1.351 . S
C2770 C2764 1.428 1_655 S
C2770 N2769 1.351 . S
C2770 C2771 1.434 . S
C2771 C2762 1.429 . S
C2771 N2768 1.350 . S
C2771 C2770 1.434 . S
C2772 C2773 1.369 . S
C2772 C2774 1.419 . S
C2772 H2776 0.930 . S
C2773 C2772 1.369 . S
C2773 C2782 1.429 . S
C2774 C2772 1.419 . S
C2774 C2775 1.363 . S
C2774 H2777 0.929 . S
C2775 C2774 1.363 . S
C2775 C2781 1.428 . S
H2776 C2772 0.930 . S
H2777 C2774 0.929 . S
S2778 N2779 1.613 . S
S2778 N2780 1.610 . S
N2779 S2778 1.613 . S
N2779 C2782 1.350 . S
N2780 S2778 1.610 . S
N2780 C2781 1.351 . S
C2781 C2775 1.428 . S
C2781 N2780 1.351 . S
C2781 C2782 1.434 . S
C2782 C2773 1.429 . S
C2782 N2779 1.350 . S
C2782 C2781 1.434 . S
C2783 C2784 1.369 . S
C2783 C2785 1.419 1_655 S
C2783 H2787 0.930 . S
C2784 C2783 1.369 . S
C2784 C2793 1.429 . S
C2785 C2783 1.419 1_455 S
C2785 C2786 1.363 . S
C2785 H2788 0.929 . S
C2786 C2785 1.363 . S
C2786 C2792 1.428 . S
H2787 C2783 0.930 . S
H2788 C2785 0.929 . S
S2789 N2790 1.613 1_455 S
S2789 N2791 1.610 . S
N2790 S2789 1.613 1_655 S
N2790 C2793 1.350 . S
N2791 S2789 1.610 . S
N2791 C2792 1.351 . S
C2792 C2786 1.428 . S
C2792 N2791 1.351 . S
C2792 C2793 1.434 1_455 S
C2793 C2784 1.429 . S
C2793 N2790 1.350 . S
C2793 C2792 1.434 1_655 S
C2794 C2795 1.369 . S
C2794 C2796 1.419 . S
C2794 H2798 0.930 . S
C2795 C2794 1.369 . S
C2795 C2804 1.429 . S
C2796 C2794 1.419 . S
C2796 C2797 1.363 . S
C2796 H2799 0.929 . S
C2797 C2796 1.363 . S
C2797 C2803 1.428 . S
H2798 C2794 0.930 . S
H2799 C2796 0.929 . S
S2800 N2801 1.613 . S
S2800 N2802 1.610 . S
N2801 S2800 1.613 . S
N2801 C2804 1.350 . S
N2802 S2800 1.610 . S
N2802 C2803 1.351 . S
C2803 C2797 1.428 . S
C2803 N2802 1.351 . S
C2803 C2804 1.434 . S
C2804 C2795 1.429 . S
C2804 N2801 1.350 . S
C2804 C2803 1.434 . S
C2805 C2806 1.369 . S
C2805 C2807 1.419 . S
C2805 H2809 0.930 . S
C2806 C2805 1.369 . S
C2806 C2815 1.429 . S
C2807 C2805 1.419 . S
C2807 C2808 1.363 . S
C2807 H2810 0.929 . S
C2808 C2807 1.363 . S
C2808 C2814 1.428 . S
H2809 C2805 0.930 . S
H2810 C2807 0.929 . S
S2811 N2812 1.613 . S
S2811 N2813 1.610 . S
N2812 S2811 1.613 . S
N2812 C2815 1.350 . S
N2813 S2811 1.610 . S
N2813 C2814 1.351 . S
C2814 C2808 1.428 . S
C2814 N2813 1.351 . S
C2814 C2815 1.434 . S
C2815 C2806 1.429 . S
C2815 N2812 1.350 . S
C2815 C2814 1.434 . S
C2816 C2817 1.369 . S
C2816 C2818 1.419 1_554 S
C2816 H2820 0.930 . S
C2817 C2816 1.369 . S
C2817 C2826 1.429 . S
C2818 C2816 1.419 1_556 S
C2818 C2819 1.363 . S
C2818 H2821 0.929 . S
C2819 C2818 1.363 . S
C2819 C2825 1.428 . S
H2820 C2816 0.930 . S
H2821 C2818 0.929 . S
S2822 N2823 1.613 1_556 S
S2822 N2824 1.610 . S
N2823 S2822 1.613 1_554 S
N2823 C2826 1.350 . S
N2824 S2822 1.610 . S
N2824 C2825 1.351 . S
C2825 C2819 1.428 . S
C2825 N2824 1.351 . S
C2825 C2826 1.434 1_556 S
C2826 C2817 1.429 . S
C2826 N2823 1.350 . S
C2826 C2825 1.434 1_554 S
C2827 C2828 1.369 . S
C2827 C2829 1.419 . S
C2827 H2831 0.930 . S
C2828 C2827 1.369 . S
C2828 C2837 1.429 . S
C2829 C2827 1.419 . S
C2829 C2830 1.363 . S
C2829 H2832 0.929 . S
C2830 C2829 1.363 . S
C2830 C2836 1.432 . S
H2831 C2827 0.930 . S
H2832 C2829 0.929 . S
S2833 N2834 1.613 . S
S2833 N2835 1.610 . S
N2834 S2833 1.613 . S
N2834 C2837 1.349 1_455 S
N2835 S2833 1.610 . S
N2835 C2836 1.347 1_455 S
C2836 C2830 1.432 . S
C2836 N2835 1.347 1_655 S
C2836 C2837 1.434 . S
C2837 C2828 1.429 . S
C2837 N2834 1.349 1_655 S
C2837 C2836 1.434 . S
C2838 C2839 1.369 . S
C2838 C2840 1.419 . S
C2838 H2842 0.930 . S
C2839 C2838 1.369 . S
C2839 C2848 1.429 . S
C2840 C2838 1.419 . S
C2840 C2841 1.363 . S
C2840 H2843 0.929 . S
C2841 C2840 1.363 . S
C2841 C2847 1.428 . S
H2842 C2838 0.930 . S
H2843 C2840 0.929 . S
S2844 N2845 1.613 . S
S2844 N2846 1.610 . S
N2845 S2844 1.613 . S
N2845 C2848 1.350 . S
N2846 S2844 1.610 . S
N2846 C2847 1.351 . S
C2847 C2841 1.428 . S
C2847 N2846 1.351 . S
C2847 C2848 1.434 . S
C2848 C2839 1.429 . S
C2848 N2845 1.350 . S
C2848 C2847 1.434 . S
C2849 C2850 1.369 . S
C2849 C2851 1.419 . S
C2849 H2853 0.930 . S
C2850 C2849 1.369 . S
C2850 C2859 1.429 . S
C2851 C2849 1.419 . S
C2851 C2852 1.363 . S
C2851 H2854 0.929 . S
C2852 C2851 1.363 . S
C2852 C2858 1.428 . S
H2853 C2849 0.930 . S
H2854 C2851 0.929 . S
S2855 N2856 1.613 . S
S2855 N2857 1.610 . S
N2856 S2855 1.613 . S
N2856 C2859 1.350 . S
N2857 S2855 1.610 . S
N2857 C2858 1.351 . S
C2858 C2852 1.428 . S
C2858 N2857 1.351 . S
C2858 C2859 1.434 . S
C2859 C2850 1.429 . S
C2859 N2856 1.350 . S
C2859 C2858 1.434 . S
C2860 C2861 1.369 . S
C2860 C2862 1.419 . S
C2860 H2864 0.930 . S
C2861 C2860 1.369 . S
C2861 C2870 1.429 . S
C2862 C2860 1.419 . S
C2862 C2863 1.363 . S
C2862 H2865 0.929 . S
C2863 C2862 1.363 . S
C2863 C2869 1.428 . S
H2864 C2860 0.930 . S
H2865 C2862 0.929 . S
S2866 N2867 1.613 . S
S2866 N2868 1.610 . S
N2867 S2866 1.613 . S
N2867 C2870 1.350 . S
N2868 S2866 1.610 . S
N2868 C2869 1.351 . S
C2869 C2863 1.428 . S
C2869 N2868 1.351 . S
C2869 C2870 1.434 . S
C2870 C2861 1.429 . S
C2870 N2867 1.350 . S
C2870 C2869 1.434 . S
C2871 C2872 1.369 . S
C2871 C2873 1.419 . S
C2871 H2875 0.930 . S
C2872 C2871 1.369 . S
C2872 C2881 1.429 1_556 S
C2873 C2871 1.419 . S
C2873 C2874 1.363 1_556 S
C2873 H2876 0.929 . S
C2874 C2873 1.363 1_554 S
C2874 C2880 1.428 . S
H2875 C2871 0.930 . S
H2876 C2873 0.929 . S
S2877 N2878 1.613 . S
S2877 N2879 1.610 . S
N2878 S2877 1.613 . S
N2878 C2881 1.350 . S
N2879 S2877 1.610 . S
N2879 C2880 1.351 . S
C2880 C2874 1.428 . S
C2880 N2879 1.351 . S
C2880 C2881 1.434 . S
C2881 C2872 1.429 1_554 S
C2881 N2878 1.350 . S
C2881 C2880 1.434 . S
C2882 C2883 1.369 . S
C2882 C2884 1.419 . S
C2882 H2886 0.930 . S
C2883 C2882 1.369 . S
C2883 C2892 1.429 . S
C2884 C2882 1.419 . S
C2884 C2885 1.363 . S
C2884 H2887 0.929 . S
C2885 C2884 1.363 . S
C2885 C2891 1.428 . S
H2886 C2882 0.930 . S
H2887 C2884 0.929 . S
S2888 N2889 1.613 . S
S2888 N2890 1.610 . S
N2889 S2888 1.613 . S
N2889 C2892 1.350 . S
N2890 S2888 1.610 . S
N2890 C2891 1.351 . S
C2891 C2885 1.428 . S
C2891 N2890 1.351 . S
C2891 C2892 1.434 . S
C2892 C2883 1.429 . S
C2892 N2889 1.350 . S
C2892 C2891 1.434 . S
C2893 C2894 1.369 . S
C2893 C2895 1.419 . S
C2893 H2897 0.930 . S
C2894 C2893 1.369 . S
C2894 C2903 1.429 . S
C2895 C2893 1.419 . S
C2895 C2896 1.363 . S
C2895 H2898 0.929 . S
C2896 C2895 1.363 . S
C2896 C2902 1.428 . S
H2897 C2893 0.930 . S
H2898 C2895 0.929 . S
S2899 N2900 1.613 . S
S2899 N2901 1.610 . S
N2900 S2899 1.613 . S
N2900 C2903 1.350 . S
N2901 S2899 1.610 . S
N2901 C2902 1.351 . S
C2902 C2896 1.428 . S
C2902 N2901 1.351 . S
C2902 C2903 1.434 . S
C2903 C2894 1.429 . S
C2903 N2900 1.350 . S
C2903 C2902 1.434 . S
C1585 C546 1.997 . S
C1587 N13 1.520 . S
C1596 N46 1.523 . S
C1598 C1569 1.998 . S
C1607 N79 1.507 . S
C1609 C711 1.999 . S
C1618 N112 1.515 . S
C1620 C1536 1.999 . S
C1629 N145 1.508 . S
C1631 C1371 1.998 . S
C1640 N178 1.514 . S
C1642 C1404 2.000 . S
C1651 N211 1.516 . S
C1653 C1437 1.997 . S
C1662 C678 1.998 . S
C1664 N244 1.510 . S
C1673 N277 1.515 . S
C1675 C18 1.997 . S
C1684 N310 1.509 . S
C1686 C51 1.999 . S
C1695 N343 1.521 . S
C1697 C84 1.997 . S
C1706 N376 1.510 . S
C1708 C117 2.000 . S
C1717 N409 1.513 . S
C1719 C150 2.000 . S
C1728 C183 1.997 . S
C1730 N442 1.521 . S
C1739 C216 1.999 . S
C1741 N475 1.510 . S
C1750 N508 1.522 . S
C1752 C249 2.000 . S
C1761 C282 1.997 . S
C1763 N541 1.511 . S
C1772 C1206 1.998 . S
C1774 N574 1.508 . S
C1783 C1239 1.998 . S
C1785 N607 1.509 . S
C1794 C1272 2.000 . S
C1796 N640 1.512 . S
C1805 N673 1.512 . S
C1807 C513 1.998 . S
C1816 N706 1.523 . S
C1818 C348 1.999 . S
C1827 C1173 1.997 . S
C1829 N739 1.520 . S
C1838 N772 1.521 . S
C1840 C1107 1.998 . S
C1849 N805 1.507 . S
C1851 C1338 1.998 . S
C1860 C777 1.997 . S
C1862 N838 1.509 . S
C1871 C1503 2.000 . S
C1873 N871 1.521 . S
C1882 N904 1.510 . S
C1884 C744 1.997 . S
C1893 N937 1.523 . S
C1895 C579 1.998 . S
C1904 C612 2.000 . S
C1906 N970 1.516 . S
C1915 C645 1.998 . S
C1917 N1003 1.509 . S
C1926 C1470 1.998 . S
C1928 N1036 1.510 . S
C1937 C810 1.999 . S
C1939 N1069 1.509 . S
C1948 C843 1.997 . S
C1950 N1102 1.513 . S
C1959 N1135 1.513 . S
C1961 C876 1.997 . S
C1970 N1168 1.521 . S
C1972 C909 1.999 . S
C1981 N1201 1.514 . S
C1983 C942 2.000 . S
C1992 N1234 1.523 . S
C1994 C975 1.998 . S
C2003 N1267 1.514 . S
C2005 C1008 1.997 . S
C2014 C1041 1.999 . S
C2016 N1300 1.521 . S
C2025 C1074 1.997 . S
C2027 N1333 1.516 . S
C2036 C414 1.997 . S
C2038 N1366 1.508 . S
C2047 N1399 1.510 . S
C2049 C447 1.999 . S
C2058 C480 1.999 . S
C2060 N1432 1.509 . S
C2069 C1305 2.000 . S
C2071 N1465 1.518 . S
C2080 N1498 1.510 . S
C2082 C1140 1.999 . S
C2091 N1531 1.512 . S
C2093 C381 1.999 . S
C2102 C315 1.998 . S
C2104 N1564 1.510 . S
C2113 N497 0.556 . S
C2115 N2 0.567 . S
C2124 N35 0.543 . S
C2126 N398 0.552 . S
C2135 N431 0.550 . S
C2137 N68 0.566 . S
C2146 N464 0.571 . S
C2148 N101 0.558 . S
C2157 N134 0.547 . S
C2159 N299 0.563 . S
C2168 N167 0.568 . S
C2170 N332 0.551 . S
C2179 N365 0.566 . S
C2181 N200 0.550 . S
C2190 N233 0.571 . S
C2192 N266 0.557 . S
C2201 N662 0.571 . S
C2203 N530 0.556 . S
C2212 N563 0.570 . S
C2214 N761 0.562 . S
C2223 N1487 0.571 . S
C2225 N596 0.559 . S
C2234 N728 0.566 . S
C2236 N629 0.549 . S
C2245 N695 0.543 . S
C2247 N1388 0.551 . S
C2256 N794 0.555 . S
C2258 N1289 0.567 . S
C2267 N1190 0.560 . S
C2269 N827 0.546 . S
C2278 N1223 0.549 . S
C2280 N860 0.565 . S
C2289 N1256 0.551 . S
C2291 N893 0.546 . S
C2300 N1091 0.561 . S
C2302 N926 0.568 . S
C2311 N959 0.562 . S
C2313 N1124 0.547 . S
C2322 N1157 0.571 . S
C2324 N992 0.560 . S
C2333 N1025 0.544 . S
C2335 N1058 0.561 . S
C2344 N1454 0.543 . S
C2346 N1322 0.558 . S
C2355 N1355 0.551 . S
C2357 N1553 0.566 . S
C2366 N1520 0.551 . S
C2368 N1421 0.566 . S
C2377 C667 1.607 . S
C2379 C7 1.604 . S
C2388 C40 1.610 . S
C2390 C1360 1.604 . S
C2399 C73 1.610 . S
C2401 C1393 1.606 . S
C2410 C106 1.603 . S
C2412 C1426 1.608 . S
C2421 C139 1.603 . S
C2423 C1558 1.608 . S
C2432 C700 1.610 . S
C2434 C172 1.605 . S
C2443 C205 1.610 . S
C2445 C1525 1.605 . S
C2454 C238 1.608 . S
C2456 C535 1.607 . S
C2465 C502 1.605 . S
C2467 C271 1.605 . S
C2476 C403 1.603 . S
C2478 C304 1.608 . S
C2487 C337 1.603 . S
C2489 C436 1.609 . S
C2498 C469 1.608 . S
C2500 C370 1.604 . S
C2509 C832 1.609 . S
C2511 C568 1.606 . S
C2520 C601 1.604 . S
C2522 C865 1.607 . S
C2531 C634 1.609 . S
C2533 C898 1.604 . S
C2542 C997 1.609 . S
C2544 C733 1.607 . S
C2553 C931 1.604 . S
C2555 C766 1.607 . S
C2564 C799 1.603 . S
C2566 C1459 1.607 . S
C2575 C1492 1.603 . S
C2577 C964 1.608 . S
C2586 C1327 1.610 . S
C2588 C1030 1.605 . S
C2597 C1063 1.603 . S
C2599 C1294 1.607 . S
C2608 C1195 1.606 . S
C2610 C1096 1.609 . S
C2619 C1129 1.607 . S
C2621 C1228 1.605 . S
C2630 C1162 1.608 . S
C2632 C1261 1.604 . S
C2641 C153 1.949 1_545 S
C2643 C21 1.955 1_565 S
C2652 C186 1.957 . S
C2654 C54 1.954 . S
C2663 C219 1.948 1_565 S
C2665 C87 1.954 1_545 S
C2674 C120 1.960 . S
C2676 C252 1.954 . S
C2685 C483 1.955 1_554 S
C2687 C285 1.947 1_556 S
C2696 C516 1.953 . S
C2698 C318 1.959 . S
C2707 C351 1.952 . S
C2709 C417 1.957 . S
C2718 C384 1.961 . S
C2720 C450 1.960 . S
C2729 C549 1.956 1_655 S
C2731 C1506 1.948 1_455 S
C2740 C582 1.952 . S
C2742 C1440 1.961 . S
C2751 C615 1.961 . S
C2753 C681 1.961 . S
C2762 C1374 1.954 1_655 S
C2764 C648 1.952 1_455 S
C2773 C1341 1.963 . S
C2775 C714 1.958 . S
C2784 C747 1.963 . S
C2786 C1572 1.956 . S
C2795 C1539 1.963 . S
C2797 C780 1.958 . S
C2806 C945 1.952 . S
C2808 C813 1.961 . S
C2817 C978 1.963 . S
C2819 C846 1.954 . S
C2828 C879 1.962 . S
C2830 C1011 1.956 . S
C2839 C912 1.955 . S
C2841 C1044 1.957 . S
C2850 C1077 1.963 . S
C2852 C1275 1.954 . S
C2861 C1110 1.955 . S
C2863 C1308 1.963 . S
C2872 C1143 1.945 1_556 S
C2874 C1209 1.952 1_554 S
C2883 C1176 1.957 . S
C2885 C1242 1.954 . S
C2894 C1473 1.953 . S
C2896 C1407 1.959 . S
