# Generated by pormake.
# Topology nov, (5)-cn, num edge types: 1
# Building blocks:
#     Node 0, Type 0, BuildingBlock: XOMCOT_clean_sbu_0, # of connection points: 5
#     Node 1, Type 0, BuildingBlock: XOMCOT_clean_sbu_0, # of connection points: 5
#     Node 2, Type 0, BuildingBlock: XOMCOT_clean_sbu_0, # of connection points: 5
#     Node 3, Type 0, BuildingBlock: XOMCOT_clean_sbu_0, # of connection points: 5
#     Node 4, Type 0, BuildingBlock: XOMCOT_clean_sbu_0, # of connection points: 5
#     Node 5, Type 0, BuildingBlock: XOMCOT_clean_sbu_0, # of connection points: 5
#     Node 6, Type 0, BuildingBlock: XOMCOT_clean_sbu_0, # of connection points: 5
#     Node 7, Type 0, BuildingBlock: XOMCOT_clean_sbu_0, # of connection points: 5
#     Edge 8, Type (0, 0), BuildingBlock: XUDNAN_clean_linker_2, # of connection points: 2
#     Edge 9, Type (0, 0), BuildingBlock: XUDNAN_clean_linker_2, # of connection points: 2
#     Edge 10, Type (0, 0), BuildingBlock: XUDNAN_clean_linker_2, # of connection points: 2
#     Edge 11, Type (0, 0), BuildingBlock: XUDNAN_clean_linker_2, # of connection points: 2
#     Edge 12, Type (0, 0), BuildingBlock: XUDNAN_clean_linker_2, # of connection points: 2
#     Edge 13, Type (0, 0), BuildingBlock: XUDNAN_clean_linker_2, # of connection points: 2
#     Edge 14, Type (0, 0), BuildingBlock: XUDNAN_clean_linker_2, # of connection points: 2
#     Edge 15, Type (0, 0), BuildingBlock: XUDNAN_clean_linker_2, # of connection points: 2
#     Edge 16, Type (0, 0), BuildingBlock: XUDNAN_clean_linker_2, # of connection points: 2
#     Edge 17, Type (0, 0), BuildingBlock: XUDNAN_clean_linker_2, # of connection points: 2
#     Edge 18, Type (0, 0), BuildingBlock: XUDNAN_clean_linker_2, # of connection points: 2
#     Edge 19, Type (0, 0), BuildingBlock: XUDNAN_clean_linker_2, # of connection points: 2
#     Edge 20, Type (0, 0), BuildingBlock: XUDNAN_clean_linker_2, # of connection points: 2
#     Edge 21, Type (0, 0), BuildingBlock: XUDNAN_clean_linker_2, # of connection points: 2
#     Edge 22, Type (0, 0), BuildingBlock: XUDNAN_clean_linker_2, # of connection points: 2
#     Edge 23, Type (0, 0), BuildingBlock: XUDNAN_clean_linker_2, # of connection points: 2
#     Edge 24, Type (0, 0), BuildingBlock: XUDNAN_clean_linker_2, # of connection points: 2
#     Edge 25, Type (0, 0), BuildingBlock: XUDNAN_clean_linker_2, # of connection points: 2
#     Edge 26, Type (0, 0), BuildingBlock: XUDNAN_clean_linker_2, # of connection points: 2
#     Edge 27, Type (0, 0), BuildingBlock: XUDNAN_clean_linker_2, # of connection points: 2
# Relax obj value: 0.158
# Max RMSD: 0.189
# Mean RMSD: 0.189
data_MOF--net-nov--node1-XOMCOT_clean_sbu_0--edge1-XUDNAN_clean_linker_2
_symmetry_space_group_name_H-M    P1
_symmetry_Int_Tables_number       1
_symmetry_cell_setting            triclinic
loop_
_symmetry_equiv_pos_as_xyz
'x, y, z'
_cell_length_a     27.164144
_cell_length_b     54.182094
_cell_length_c     28.199824
_cell_angle_alpha  89.952302
_cell_angle_beta   89.656203
_cell_angle_gamma 89.944056
loop_
_atom_site_label
_atom_site_type_symbol
_atom_site_fract_x
_atom_site_fract_y
_atom_site_fract_z
_atom_type_partial_charge
Co0 Co 0.02378 0.16052 0.16096 0.0
C1 C 0.02273 0.10962 0.11833 0.0
C2 C 0.09356 0.12713 0.11507 0.0
C3 C 0.09664 0.10488 0.09197 0.0
N4 N 0.04728 0.13025 0.13159 0.0
N5 N 0.0522 0.09391 0.09396 0.0
H6 H 0.98391 0.10649 0.12446 0.0
H7 H 0.12282 0.14054 0.11816 0.0
C8 C 0.11172 0.17782 0.22099 0.0
O9 O 0.09164 0.19916 0.23151 0.0
N10 N 0.99956 0.19095 0.18909 0.0
C11 C 0.97993 0.20997 0.16476 0.0
C12 C 0.9616 0.227 0.1963 0.0
C13 C 0.99108 0.19629 0.2353 0.0
N14 N 0.96889 0.21848 0.24059 0.0
C15 C 0.02558 0.17503 0.06329 0.0
C16 C 0.09469 0.21209 0.0721 0.0
C17 C 0.06989 0.20963 0.02895 0.0
C18 C 0.03589 0.19028 0.02434 0.0
C19 C 0.08283 0.19677 0.11011 0.0
N20 N 0.0478 0.17887 0.10597 0.0
H21 H 0.99817 0.16072 0.05978 0.0
H22 H 0.10042 0.2004 0.14317 0.0
H23 H 0.97809 0.21127 0.12657 0.0
H24 H 1.00111 0.18426 0.26437 0.0
O25 O 0.95738 0.1541 0.14023 0.0
O26 O 0.98867 0.14209 0.20911 0.0
O27 O 0.08982 0.16244 0.19394 0.0
C28 C 0.95079 0.14341 0.18114 0.0
H29 H 0.129 0.09744 0.0745 0.0
H30 H 0.9449 0.24453 0.18733 0.0
H31 H 0.12215 0.22632 0.07711 0.0
H32 H 0.01572 0.18762 0.99174 0.0
Co33 Co 0.56528 0.86499 0.65753 0.0
C34 C 0.57102 0.91212 0.59997 0.0
C35 C 0.51377 0.91255 0.65246 0.0
C36 C 0.51334 0.93477 0.62919 0.0
N37 N 0.5483 0.89768 0.63287 0.0
N38 N 0.54927 0.93449 0.59627 0.0
H39 H 0.60368 0.90706 0.5803 0.0
H40 H 0.4913 0.90804 0.68297 0.0
C41 C 0.45551 0.86366 0.65974 0.0
O42 O 0.45752 0.87029 0.61492 0.0
N43 N 0.58192 0.83347 0.68501 0.0
C44 C 0.61057 0.81523 0.66773 0.0
C45 C 0.61577 0.79742 0.70258 0.0
C46 C 0.57054 0.82678 0.72966 0.0
N47 N 0.59083 0.80491 0.74157 0.0
C48 C 0.57303 0.85532 0.55751 0.0
C49 C 0.50887 0.81582 0.55437 0.0
C50 C 0.53074 0.82405 0.51205 0.0
C51 C 0.56377 0.84383 0.51426 0.0
C52 C 0.51878 0.82813 0.59704 0.0
N53 N 0.54884 0.84843 0.59791 0.0
H54 H 0.6011 0.86921 0.55851 0.0
H55 H 0.50231 0.82129 0.62947 0.0
H56 H 0.62759 0.81522 0.63296 0.0
H57 H 0.54864 0.83811 0.75331 0.0
O58 O 0.6337 0.87112 0.64415 0.0
O59 O 0.59615 0.881 0.71159 0.0
O60 O 0.49541 0.86091 0.68319 0.0
C61 C 0.63652 0.88062 0.68628 0.0
H62 H 0.48961 0.95035 0.63696 0.0
H63 H 0.63792 0.78085 0.70012 0.0
H64 H 0.48392 0.80024 0.55443 0.0
H65 H 0.58327 0.85006 0.48283 0.0
Co66 Co 0.03413 0.87107 0.8544 0.0
C67 C 0.0312 0.91841 0.91096 0.0
C68 C 0.08814 0.91771 0.85827 0.0
C69 C 0.08898 0.94025 0.88017 0.0
N70 N 0.05311 0.90349 0.87842 0.0
N71 N 0.05306 0.94089 0.91337 0.0
H72 H 0.9982 0.91367 0.93034 0.0
H73 H 0.11041 0.91265 0.82797 0.0
C74 C 0.14611 0.86758 0.84381 0.0
O75 O 0.15303 0.87457 0.88787 0.0
N76 N 0.01616 0.83965 0.82768 0.0
C77 C 0.98814 0.82121 0.84513 0.0
C78 C 0.98433 0.8031 0.81063 0.0
C79 C 0.02848 0.83278 0.78344 0.0
N80 N 1.00955 0.81064 0.77181 0.0
C81 C 0.02393 0.86144 0.9536 0.0
C82 C 0.08871 0.82217 0.9586 0.0
C83 C 0.06402 0.82977 0.99992 0.0
C84 C 0.03102 0.84954 0.99683 0.0
C85 C 0.08097 0.8349 0.91592 0.0
N86 N 0.05004 0.85484 0.91416 0.0
H87 H 0.99582 0.87534 0.95164 0.0
H88 H 0.09887 0.82828 0.88408 0.0
H89 H 0.97119 0.8211 0.87994 0.0
H90 H 0.05069 0.84408 0.76005 0.0
O91 O 0.96514 0.8781 0.86637 0.0
O92 O 1.00525 0.88713 0.79999 0.0
O93 O 0.10251 0.86569 0.82729 0.0
C94 C 0.96382 0.88694 0.82348 0.0
H95 H 0.11397 0.95509 0.87134 0.0
H96 H 0.96347 0.78615 0.81339 0.0
H97 H 0.11383 0.80664 0.95929 0.0
H98 H 1.00968 0.85538 0.02742 0.0
Co99 Co 0.55571 0.15589 0.35284 0.0
C100 C 0.56459 0.10616 0.40021 0.0
C101 C 0.49038 0.11957 0.3975 0.0
C102 C 0.49014 0.09704 0.41936 0.0
N103 N 0.53693 0.12555 0.38541 0.0
N104 N 0.53665 0.08832 0.42089 0.0
H105 H 0.60403 0.10495 0.39546 0.0
H106 H 0.4581 0.13063 0.39097 0.0
C107 C 0.45871 0.17714 0.31881 0.0
O108 O 0.47329 0.19965 0.32883 0.0
N109 N 0.57386 0.18601 0.31938 0.0
C110 C 0.601 0.20528 0.3344 0.0
C111 C 0.60362 0.2226 0.29867 0.0
C112 C 0.56207 0.19153 0.27414 0.0
N113 N 0.57869 0.21404 0.26087 0.0
C114 C 0.57935 0.1818 0.43882 0.0
C115 C 0.48457 0.19489 0.46415 0.0
C116 C 0.52383 0.20451 0.49003 0.0
C117 C 0.57166 0.19706 0.47819 0.0
C118 C 0.49385 0.17937 0.42565 0.0
N119 N 0.54096 0.17438 0.41109 0.0
H120 H 0.61666 0.17681 0.42967 0.0
H121 H 0.46256 0.1717 0.40798 0.0
H122 H 0.61789 0.20698 0.3687 0.0
H123 H 0.54085 0.17937 0.25178 0.0
O124 O 0.62506 0.14922 0.36269 0.0
O125 O 0.58211 0.13716 0.3004 0.0
O126 O 0.48635 0.15862 0.32778 0.0
C127 C 0.62451 0.13849 0.3214 0.0
H128 H 0.45774 0.08804 0.43355 0.0
H129 H 0.62129 0.24044 0.30105 0.0
H130 H 0.44688 0.19943 0.47347 0.0
H131 H 0.60299 0.20375 0.49797 0.0
Co132 Co 0.53262 0.65586 0.16425 0.0
C133 C 0.53808 0.60699 0.11394 0.0
C134 C 0.58024 0.6083 0.17784 0.0
C135 C 0.57961 0.5844 0.16208 0.0
N136 N 0.55507 0.62279 0.14741 0.0
N137 N 0.55296 0.58352 0.1221 0.0
H138 H 0.51162 0.61184 0.08707 0.0
H139 H 0.59475 0.61425 0.21154 0.0
C140 C 0.63989 0.65747 0.18492 0.0
O141 O 0.64733 0.64827 0.14235 0.0
N142 N 0.5094 0.68812 0.18339 0.0
C143 C 0.47986 0.70315 0.15833 0.0
C144 C 0.4715 0.72423 0.18435 0.0
C145 C 0.51822 0.70005 0.22451 0.0
N146 N 0.49567 0.72232 0.22594 0.0
C147 C 0.53945 0.66514 0.06335 0.0
C148 C 0.59877 0.7063 0.07175 0.0
C149 C 0.57687 0.70149 0.02789 0.0
C150 C 0.54818 0.68009 0.02349 0.0
C151 C 0.58857 0.69123 0.11055 0.0
N152 N 0.5591 0.67089 0.10645 0.0
H153 H 0.51356 0.65022 0.06019 0.0
H154 H 0.60141 0.69724 0.14478 0.0
H155 H 0.46551 0.69905 0.12353 0.0
H156 H 0.54119 0.69272 0.2524 0.0
O157 O 0.4676 0.64794 0.14202 0.0
O158 O 0.49438 0.6415 0.21526 0.0
O159 O 0.59603 0.66179 0.19952 0.0
C160 C 0.45854 0.64022 0.18487 0.0
H161 H 0.59526 0.56859 0.18006 0.0
H162 H 0.44887 0.73967 0.17356 0.0
H163 H 0.6214 0.72251 0.07693 0.0
H164 H 0.52969 0.6759 0.99055 0.0
Co165 Co 0.05763 0.36769 0.6532 0.0
C166 C 0.06065 0.41613 0.60122 0.0
C167 C 0.98877 0.40743 0.62827 0.0
C168 C 0.98654 0.42987 0.60609 0.0
N169 N 0.03519 0.39865 0.62553 0.0
N170 N 0.03158 0.43543 0.58889 0.0
H171 H 0.09936 0.41476 0.59244 0.0
H172 H 0.95799 0.39842 0.6453 0.0
C173 C 0.96682 0.34736 0.70249 0.0
O174 O 0.97862 0.32485 0.68934 0.0
N175 N 0.07943 0.33713 0.68244 0.0
C176 C 0.09929 0.31653 0.66334 0.0
C177 C 0.10863 0.29988 0.69921 0.0
C178 C 0.07833 0.3329 0.72957 0.0
N179 N 0.09537 0.31026 0.74078 0.0
C180 C 0.06365 0.34143 0.56524 0.0
C181 C 0.96428 0.33358 0.55238 0.0
C182 C 0.99769 0.32282 0.5203 0.0
C183 C 0.04793 0.32754 0.52656 0.0
C184 C 0.98167 0.34757 0.5905 0.0
N185 N 0.03106 0.35009 0.59835 0.0
H186 H 0.1026 0.34463 0.569 0.0
H187 H 0.95496 0.35634 0.61322 0.0
H188 H 0.10719 0.31348 0.62636 0.0
H189 H 0.06389 0.34603 0.75501 0.0
O190 O 0.12382 0.37334 0.63003 0.0
O191 O 0.09566 0.38556 0.70001 0.0
O192 O 0.99392 0.36563 0.69044 0.0
C193 C 0.13252 0.38388 0.67048 0.0
H194 H 0.95413 0.44142 0.60377 0.0
H195 H 0.12449 0.28167 0.69503 0.0
H196 H 0.92499 0.33104 0.54855 0.0
H197 H 0.07515 0.32069 0.50162 0.0
Co198 Co 0.52616 0.37305 0.85001 0.0
C199 C 0.52148 0.41768 0.91212 0.0
C200 C 0.56888 0.4222 0.85153 0.0
C201 C 0.56841 0.4439 0.87663 0.0
N202 N 0.53971 0.40575 0.87377 0.0
N203 N 0.53854 0.44116 0.91469 0.0
H204 H 0.49569 0.40955 0.93695 0.0
H205 H 0.58882 0.41871 0.81891 0.0
C206 C 0.62579 0.3516 0.82199 0.0
O207 O 0.6088 0.32902 0.82565 0.0
N208 N 0.51252 0.34041 0.8243 0.0
C209 C 0.5036 0.31886 0.84703 0.0
C210 C 0.49812 0.30039 0.81385 0.0
C211 C 0.5115 0.33468 0.77769 0.0
N212 N 0.50291 0.31049 0.77045 0.0
C213 C 0.49411 0.3554 0.94056 0.0
C214 C 0.58274 0.33603 0.97046 0.0
C215 C 0.53949 0.32943 0.99475 0.0
C216 C 0.4953 0.34055 0.98091 0.0
C217 C 0.58 0.35127 0.9303 0.0
N218 N 0.53544 0.35915 0.91361 0.0
H219 H 0.4589 0.36241 0.92951 0.0
H220 H 0.61378 0.35584 0.91236 0.0
H221 H 0.50219 0.31623 0.8849 0.0
H222 H 0.51854 0.34775 0.74945 0.0
O223 O 0.45601 0.37933 0.85302 0.0
O224 O 0.50328 0.38772 0.79115 0.0
O225 O 0.59845 0.37012 0.83239 0.0
C226 C 0.45939 0.3875 0.80986 0.0
H227 H 0.58913 0.46033 0.86774 0.0
H228 H 0.49098 0.28109 0.821 0.0
H229 H 0.61803 0.32849 0.98077 0.0
H230 H 0.46125 0.33687 0.9998 0.0
Co231 Co 0.06216 0.65835 0.35003 0.0
C232 C 0.05995 0.61165 0.40835 0.0
C233 C 1.00905 0.61166 0.35061 0.0
C234 C 1.00655 0.58916 0.37267 0.0
N235 N 0.04123 0.62622 0.37373 0.0
N236 N 0.0385 0.58911 0.40898 0.0
H237 H 0.0898 0.61679 0.4313 0.0
H238 H 0.98996 0.61669 0.31848 0.0
C239 C 0.95358 0.66156 0.35268 0.0
O240 O 0.95722 0.65374 0.39667 0.0
N241 N 0.08404 0.6897 0.32467 0.0
C242 C 0.11898 0.70393 0.3444 0.0
C243 C 0.12465 0.72484 0.31748 0.0
C244 C 0.06935 0.70192 0.2854 0.0
N245 N 0.0935 0.72363 0.28049 0.0
C246 C 0.07462 0.66991 0.45026 0.0
C247 C 0.01522 0.71135 0.4479 0.0
C248 C 0.04145 0.70627 0.48925 0.0
C249 C 0.07078 0.68497 0.49067 0.0
C250 C 0.0203 0.6961 0.40868 0.0
N251 N 0.04884 0.67528 0.41005 0.0
H252 H 0.10099 0.65509 0.45042 0.0
H253 H 1.00316 0.70195 0.37613 0.0
H254 H 0.13865 0.69946 0.37653 0.0
H255 H 0.04107 0.69538 0.26165 0.0
O256 O 0.13012 0.64938 0.35981 0.0
O257 O 0.08765 0.6421 0.2943 0.0
O258 O 0.99247 0.6648 0.32748 0.0
C259 C 0.12934 0.64076 0.31674 0.0
H260 H 0.98456 0.57359 0.36145 0.0
H261 H 0.14996 0.73981 0.32447 0.0
H262 H 0.99255 0.72775 0.44502 0.0
H263 H 0.09288 0.68086 0.52153 0.0
H264 H 0.08228 0.98886 0.9027 0.0
H265 H 0.99636 0.94058 0.99415 0.0
H266 H 0.98023 0.97572 0.04789 0.0
H267 H 0.14232 0.02011 0.99432 0.0
H268 H 0.14321 0.04938 0.96391 0.0
H269 H 0.14286 0.02115 0.93042 0.0
H270 H 0.06475 0.03572 0.88599 0.0
H271 H 0.06482 0.06404 0.91941 0.0
H272 H 0.0109 0.04469 0.91946 0.0
H273 H 0.97729 0.01678 0.09416 0.0
H274 H 0.99215 0.05816 0.12935 0.0
H275 H 0.08391 0.07739 0.00885 0.0
C276 C 0.06003 0.98535 0.93383 0.0
C277 C 0.04074 0.96162 0.94376 0.0
C278 C 0.01121 0.95849 0.98505 0.0
C279 C 1.00193 0.97839 0.01599 0.0
C280 C 0.02245 1.00137 1.00532 0.0
C281 C 0.05099 1.0048 0.96517 0.0
C282 C 0.07169 0.03068 0.96276 0.0
C283 C 0.12836 0.03029 0.96288 0.0
C284 C 0.05184 0.0446 0.91933 0.0
C285 C 0.05121 0.04126 1.00834 0.0
C286 C 0.02216 0.02433 0.0322 0.0
C287 C 0.99989 0.03014 0.07559 0.0
C288 C 1.00831 0.05366 0.09525 0.0
C289 C 0.03939 0.07082 0.07192 0.0
C290 C 0.06039 0.06452 0.02766 0.0
H291 H 0.47796 0.04868 0.43939 0.0
H292 H 0.62923 0.07398 0.44825 0.0
H293 H 0.65189 0.03468 0.48746 0.0
H294 H 0.47286 0.02368 0.5533 0.0
H295 H 0.43307 0.99852 0.53701 0.0
H296 H 0.43108 0.02698 0.50426 0.0
H297 H 0.4484 1.0031 0.42625 0.0
H298 H 0.4506 0.97451 0.45884 0.0
H299 H 0.50194 0.98352 0.42194 0.0
H300 H 0.65587 0.99252 0.53109 0.0
H301 H 0.63928 0.95441 0.57801 0.0
H302 H 0.48463 0.95996 0.5441 0.0
C303 C 0.51597 0.04628 0.44941 0.0
C304 C 0.55161 0.0648 0.44077 0.0
C305 C 0.60111 0.06016 0.45396 0.0
C306 C 0.61433 0.03784 0.47639 0.0
C307 C 0.57768 0.02034 0.48538 0.0
C308 C 0.52947 0.02449 0.47226 0.0
C309 C 0.49579 1.004 0.48882 0.0
C310 C 0.45588 1.01389 0.52287 0.0
C311 C 0.47285 0.99049 0.44643 0.0
C312 C 0.53222 0.98776 0.51432 0.0
C313 C 0.57955 0.99706 0.51134 0.0
C314 C 0.61895 0.9851 0.53333 0.0
C315 C 0.60937 0.96347 0.55967 0.0
C316 C 0.56073 0.95445 0.56444 0.0
C317 C 0.52209 0.96659 0.54087 0.0
H318 H 0.55181 0.57553 0.02706 0.0
H319 H 0.5231 0.54108 0.16302 0.0
H320 H 0.5078 0.50124 0.12328 0.0
H321 H 0.4619 0.5384 0.95705 0.0
H322 H 0.50264 0.53661 0.90647 0.0
H323 H 0.5045 0.56314 0.94495 0.0
H324 H 0.59783 0.55612 0.95782 0.0
H325 H 0.5962 0.52953 0.9197 0.0
H326 H 0.61898 0.52663 0.97935 0.0
H327 H 0.50351 0.46433 0.06982 0.0
H328 H 0.51227 0.43304 1.00666 0.0
H329 H 0.54401 0.49117 0.90504 0.0
C330 C 0.54093 0.5597 0.04808 0.0
C331 C 0.53835 0.56131 0.09799 0.0
C332 C 0.52534 0.54013 0.12473 0.0
C333 C 0.51636 0.51748 0.10245 0.0
C334 C 0.52054 0.51625 0.05328 0.0
C335 C 0.53235 0.53679 0.02633 0.0
C336 C 0.53865 0.52994 0.97453 0.0
C337 C 0.49958 0.54278 0.94395 0.0
C338 C 0.59103 0.5359 0.95684 0.0
C339 C 0.52995 0.50231 0.9769 0.0
C340 C 0.51882 0.49483 0.0225 0.0
C341 C 0.51155 0.47001 0.0338 0.0
C342 C 0.51643 0.45234 0.99763 0.0
C343 C 0.52894 0.45951 0.95078 0.0
C344 C 0.53488 0.48494 0.94045 0.0
H345 H 0.9701 0.46438 0.53775 0.0
H346 H 0.12217 0.45727 0.58188 0.0
H347 H 0.14163 0.49685 0.54167 0.0
H348 H 0.992 0.49066 0.4243 0.0
H349 H 0.93946 0.51094 0.42766 0.0
H350 H 0.93886 0.48205 0.45915 0.0
H351 H 0.92022 0.50523 0.53766 0.0
H352 H 0.92099 0.53423 0.50645 0.0
H353 H 0.96077 0.52958 0.55659 0.0
H354 H 0.14269 0.53864 0.49694 0.0
H355 H 0.12614 0.57622 0.44906 0.0
H356 H 0.97288 0.55499 0.43835 0.0
C357 C 1.00751 0.4711 0.53952 0.0
C358 C 0.04448 0.4577 0.56343 0.0
C359 C 0.09321 0.46707 0.56357 0.0
C360 C 0.1045 0.48964 0.54112 0.0
C361 C 0.06666 0.50258 0.51874 0.0
C362 C 0.0192 0.49347 0.51776 0.0
C363 C 0.98474 0.51058 0.4917 0.0
C364 C 0.96249 0.49779 0.44811 0.0
C365 C 0.94431 0.52049 0.5251 0.0
C366 C 0.02018 0.53073 0.47744 0.0
C367 C 0.06726 0.52606 0.49351 0.0
C368 C 0.10591 0.5424 0.48427 0.0
C369 C 0.09616 0.56377 0.45735 0.0
C370 C 0.04827 0.56843 0.43977 0.0
C371 C 1.00998 0.55176 0.45069 0.0
H372 H 0.38222 0.21038 0.31218 0.0
H373 H 0.42063 0.13366 0.28668 0.0
H374 H 0.33603 0.12552 0.25986 0.0
H375 H 0.26048 0.19873 0.35733 0.0
H376 H 0.23362 0.22559 0.32995 0.0
H377 H 0.29763 0.22571 0.34624 0.0
H378 H 0.32215 0.23683 0.25988 0.0
H379 H 0.2582 0.23687 0.24337 0.0
H380 H 0.30144 0.21755 0.2119 0.0
H381 H 0.24772 0.12559 0.23525 0.0
H382 H 0.16107 0.1339 0.21493 0.0
H383 H 0.17899 0.21025 0.25842 0.0
C384 C 0.37293 0.1919 0.30073 0.0
C385 C 0.40817 0.17268 0.30146 0.0
C386 C 0.39434 0.14871 0.28649 0.0
C387 C 0.34634 0.14387 0.27117 0.0
C388 C 0.31245 0.16315 0.27123 0.0
C389 C 0.32501 0.18668 0.28564 0.0
C390 C 0.28128 0.20401 0.28272 0.0
C391 C 0.26745 0.2141 0.332 0.0
C392 C 0.29138 0.22505 0.24736 0.0
C393 C 0.24227 0.18653 0.26437 0.0
C394 C 0.26111 0.16308 0.25784 0.0
C395 C 0.23247 0.14387 0.24035 0.0
C396 C 0.18328 0.14878 0.2289 0.0
C397 C 0.1631 0.17269 0.23524 0.0
C398 C 0.1931 0.19172 0.25354 0.0
H399 H 0.42815 0.87008 0.75382 0.0
H400 H 0.37198 0.84935 0.61574 0.0
H401 H 0.28851 0.84563 0.64952 0.0
H402 H 0.34511 0.83064 0.82532 0.0
H403 H 0.33705 0.85348 0.87114 0.0
H404 H 0.39365 0.85235 0.8375 0.0
H405 H 0.38248 0.89825 0.81417 0.0
H406 H 0.32583 0.89949 0.84757 0.0
H407 H 0.32639 0.90789 0.78571 0.0
H408 H 0.21104 0.84603 0.69595 0.0
H409 H 0.14261 0.85165 0.75215 0.0
H410 H 0.24603 0.87349 0.86132 0.0
C411 C 0.39835 0.86431 0.73104 0.0
C412 C 0.4066 0.85983 0.68215 0.0
C413 C 0.36653 0.85287 0.65322 0.0
C414 C 0.31898 0.85063 0.67212 0.0
C415 C 0.31178 0.85556 0.72009 0.0
C416 C 0.35015 0.86231 0.74931 0.0
C417 C 0.33126 0.86808 0.79898 0.0
C418 C 0.35307 0.85006 0.83539 0.0
C419 C 0.34214 0.89503 0.81238 0.0
C420 C 0.27633 0.86381 0.79276 0.0
C421 C 0.26625 0.85634 0.74702 0.0
C422 C 0.21844 0.85176 0.73197 0.0
C423 C 0.1797 0.85507 0.76431 0.0
C424 C 0.18863 0.86306 0.81137 0.0
C425 C 0.23785 0.86727 0.82576 0.0
H426 H 0.86961 0.87806 0.85546 0.0
H427 H 0.95188 0.91029 0.73852 0.0
H428 H 0.87445 0.91689 0.69502 0.0
H429 H 0.78837 0.84458 0.78643 0.0
H430 H 0.73508 0.84887 0.82391 0.0
H431 H 0.79573 0.84995 0.84907 0.0
H432 H 0.77756 0.8934 0.88324 0.0
H433 H 0.71665 0.89242 0.85826 0.0
H434 H 0.75733 0.91768 0.84414 0.0
H435 H 0.7909 0.9148 0.65978 0.0
H436 H 0.70597 0.90491 0.63563 0.0
H437 H 0.67575 0.87499 0.77536 0.0
C438 C 0.87116 0.88717 0.82129 0.0
C439 C 0.91682 0.89389 0.80055 0.0
C440 C 0.91738 0.90515 0.75525 0.0
C441 C 0.87354 0.90902 0.73029 0.0
C442 C 0.82928 0.90164 0.75116 0.0
C443 C 0.82761 0.89111 0.79578 0.0
C444 C 0.77563 0.88293 0.80831 0.0
C445 C 0.77361 0.85493 0.81745 0.0
C446 C 0.75561 0.89748 0.85103 0.0
C447 C 0.74868 0.88982 0.76319 0.0
C448 C 0.78039 0.90078 0.73089 0.0
C449 C 0.76548 0.90675 0.68511 0.0
C450 C 0.71725 0.90103 0.67167 0.0
C451 C 0.68426 0.88965 0.70393 0.0
C452 C 0.69987 0.88442 0.75058 0.0
H453 H 0.71945 0.14306 0.35302 0.0
H454 H 0.63318 0.11795 0.23339 0.0
H455 H 0.7094 0.11168 0.18702 0.0
H456 H 0.80262 0.17756 0.28886 0.0
H457 H 0.8559 0.17022 0.32397 0.0
H458 H 0.79554 0.1692 0.35043 0.0
H459 H 0.80991 0.12382 0.37598 0.0
H460 H 0.87062 0.12475 0.34986 0.0
H461 H 0.82759 0.10124 0.33213 0.0
H462 H 0.79271 0.11487 0.14951 0.0
H463 H 0.87845 0.12438 0.12562 0.0
H464 H 0.91178 0.14522 0.27023 0.0
C465 C 0.7167 0.13553 0.31758 0.0
C466 C 0.67037 0.13088 0.2969 0.0
C467 C 0.66826 0.12149 0.2501 0.0
C468 C 0.71139 0.11786 0.22344 0.0
C469 C 0.75641 0.12339 0.24429 0.0
C470 C 0.75948 0.13167 0.29055 0.0
C471 C 0.81211 0.13803 0.3033 0.0
C472 C 0.81678 0.16537 0.31745 0.0
C473 C 0.83118 0.12093 0.34265 0.0
C474 C 0.8378 0.13287 0.2565 0.0
C475 C 0.80502 0.12437 0.22295 0.0
C476 C 0.81901 0.12086 0.17576 0.0
C477 C 0.86762 0.12638 0.16245 0.0
C478 C 0.90167 0.13499 0.19634 0.0
C479 C 0.88676 0.13786 0.24404 0.0
H480 H 0.92275 0.65696 0.26052 0.0
H481 H 0.87289 0.67629 0.40212 0.0
H482 H 0.78795 0.68068 0.37286 0.0
H483 H 0.836 0.69699 0.19436 0.0
H484 H 0.82679 0.67425 0.14867 0.0
H485 H 0.88475 0.67574 0.17932 0.0
H486 H 0.8763 0.62962 0.20235 0.0
H487 H 0.81826 0.62802 0.17209 0.0
H488 H 0.82198 0.6194 0.23371 0.0
H489 H 0.70796 0.68005 0.33019 0.0
H490 H 0.63746 0.6734 0.27701 0.0
H491 H 0.73822 0.65293 0.16344 0.0
C492 C 0.89406 0.66272 0.28497 0.0
C493 C 0.90424 0.6665 0.33343 0.0
C494 C 0.86571 0.67335 0.3648 0.0
C495 C 0.81743 0.67598 0.34851 0.0
C496 C 0.80824 0.67156 0.30077 0.0
C497 C 0.84537 0.66507 0.26938 0.0
C498 C 0.82475 0.65933 0.22082 0.0
C499 C 0.84423 0.67768 0.18359 0.0
C500 C 0.83599 0.6325 0.20642 0.0
C501 C 0.77026 0.66313 0.23018 0.0
C502 C 0.76165 0.67052 0.27634 0.0
C503 C 0.71421 0.67445 0.29382 0.0
C504 C 0.67439 0.67057 0.26336 0.0
C505 C 0.68226 0.6626 0.21608 0.0
C506 C 0.73094 0.65906 0.19935 0.0
H507 H 0.89228 0.31436 0.72271 0.0
H508 H 0.93239 0.39165 0.73542 0.0
H509 H 0.85074 0.40078 0.76958 0.0
H510 H 0.76874 0.32419 0.68809 0.0
H511 H 0.74395 0.29855 0.72124 0.0
H512 H 0.80666 0.29763 0.70029 0.0
H513 H 0.83706 0.28994 0.78596 0.0
H514 H 0.77437 0.29071 0.80717 0.0
H515 H 0.81958 0.31109 0.83242 0.0
H516 H 0.76332 0.40211 0.79838 0.0
H517 H 0.6768 0.39524 0.82191 0.0
H518 H 0.69318 0.3171 0.79128 0.0
C519 C 0.88416 0.33315 0.7332 0.0
C520 C 0.91891 0.35227 0.72626 0.0
C521 C 0.90651 0.37665 0.74022 0.0
C522 C 0.86017 0.38205 0.75975 0.0
C523 C 0.82655 0.36288 0.76539 0.0
C524 C 0.83798 0.33889 0.75283 0.0
C525 C 0.79459 0.32185 0.76151 0.0
C526 C 0.77748 0.30986 0.71501 0.0
C527 C 0.80716 0.30224 0.799 0.0
C528 C 0.75682 0.34009 0.7802 0.0
C529 C 0.77609 0.36364 0.7823 0.0
C530 C 0.74791 0.38371 0.79722 0.0
C531 C 0.6987 0.37963 0.8104 0.0
C532 C 0.67807 0.35563 0.8086 0.0
C533 C 0.70782 0.33565 0.79339 0.0
H534 H 0.36364 0.38762 0.8408 0.0
H535 H 0.45431 0.40005 0.71587 0.0
H536 H 0.37927 0.40507 0.66764 0.0
H537 H 0.27557 0.35128 0.78608 0.0
H538 H 0.22371 0.36313 0.81911 0.0
H539 H 0.28414 0.36363 0.84479 0.0
H540 H 0.27679 0.41082 0.85811 0.0
H541 H 0.21612 0.41046 0.83257 0.0
H542 H 0.26273 0.43069 0.80869 0.0
H543 H 0.2949 0.40337 0.63147 0.0
H544 H 0.20769 0.39641 0.61067 0.0
H545 H 0.1717 0.38643 0.75943 0.0
C546 C 0.36776 0.39198 0.80351 0.0
C547 C 0.41487 0.39362 0.78214 0.0
C548 C 0.41864 0.39895 0.73309 0.0
C549 C 0.37619 0.40182 0.70541 0.0
C550 C 0.33028 0.39955 0.7274 0.0
C551 C 0.32581 0.39498 0.77545 0.0
C552 C 0.27235 0.39171 0.78988 0.0
C553 C 0.26344 0.36591 0.8112 0.0
C554 C 0.25605 0.41214 0.82435 0.0
C555 C 0.24748 0.39447 0.74224 0.0
C556 C 0.28152 0.3991 0.70666 0.0
C557 C 0.26783 0.40026 0.65914 0.0
C558 C 0.21828 0.39624 0.64764 0.0
C559 C 0.18296 0.3913 0.68351 0.0
C560 C 0.19771 0.39087 0.73143 0.0
H561 H 0.22332 0.6421 0.35096 0.0
H562 H 0.13815 0.62166 0.22739 0.0
H563 H 0.21507 0.61368 0.18295 0.0
H564 H 0.3111 0.67536 0.29146 0.0
H565 H 0.36254 0.66622 0.32757 0.0
H566 H 0.3014 0.66617 0.35227 0.0
H567 H 0.31092 0.62011 0.37535 0.0
H568 H 0.37241 0.62005 0.35092 0.0
H569 H 0.32785 0.59787 0.33061 0.0
H570 H 0.29981 0.61444 0.14845 0.0
H571 H 0.38669 0.62252 0.12721 0.0
H572 H 0.41739 0.64143 0.27344 0.0
C573 C 0.22083 0.6352 0.31502 0.0
C574 C 0.17478 0.63235 0.29268 0.0
C575 C 0.17305 0.62382 0.24529 0.0
C576 C 0.21655 0.61919 0.21979 0.0
C577 C 0.26142 0.62295 0.24236 0.0
C578 C 0.2639 0.6305 0.2891 0.0
C579 C 0.31659 0.63543 0.30367 0.0
C580 C 0.32327 0.66239 0.31965 0.0
C581 C 0.3329 0.61728 0.34243 0.0
C582 C 0.34314 0.63043 0.2573 0.0
C583 C 0.3107 0.623 0.22251 0.0
C584 C 0.32576 0.61967 0.17562 0.0
C585 C 0.37507 0.62439 0.16384 0.0
C586 C 0.40868 0.63225 0.19884 0.0
C587 C 0.39269 0.63479 0.24629 0.0
H588 H 0.08767 0.26145 0.76299 0.0
H589 H 0.10616 0.33427 0.82429 0.0
H590 H 0.10336 0.31611 0.90444 0.0
H591 H 1.0032 0.23876 0.84871 0.0
H592 H 0.02793 0.20788 0.84993 0.0
H593 H 0.03363 0.22631 0.79701 0.0
H594 H 0.12826 0.2203 0.79766 0.0
H595 H 0.12284 0.20169 0.85042 0.0
H596 H 0.16247 0.22836 0.84999 0.0
H597 H 0.09433 0.29069 0.97738 0.0
H598 H 0.08216 0.25941 0.03945 0.0
H599 H 0.07265 0.20235 0.93169 0.0
C600 C 0.09196 0.27351 0.79324 0.0
C601 C 0.09693 0.29933 0.78735 0.0
C602 C 0.10159 0.31452 0.82792 0.0
C603 C 0.10034 0.30436 0.87359 0.0
C604 C 0.09459 0.27893 0.87813 0.0
C605 C 0.09076 0.26365 0.83916 0.0
C606 C 0.08366 0.23698 0.85413 0.0
C607 C 0.03416 0.2269 0.83639 0.0
C608 C 0.12689 0.22089 0.83704 0.0
C609 C 0.08363 0.23973 0.90763 0.0
C610 C 0.09009 0.2641 0.92056 0.0
C611 C 0.08999 0.27148 0.96776 0.0
C612 C 0.08338 0.25348 1.00281 0.0
C613 C 0.07725 0.22825 0.99069 0.0
C614 C 0.07724 0.22141 0.94226 0.0
H615 H 0.52927 0.7744 0.48929 0.0
H616 H 0.50846 0.84747 0.42957 0.0
H617 H 0.49571 0.82912 0.35058 0.0
H618 H 0.59691 0.7497 0.39147 0.0
H619 H 0.5698 0.71939 0.3946 0.0
H620 H 0.57451 0.73791 0.44737 0.0
H621 H 0.48054 0.73394 0.46148 0.0
H622 H 0.47558 0.71524 0.40891 0.0
H623 H 0.43867 0.74273 0.41505 0.0
H624 H 0.48808 0.80343 0.27796 0.0
H625 H 0.48551 0.77181 0.21549 0.0
H626 H 0.51127 0.71479 0.32075 0.0
C627 C 0.52127 0.78645 0.45966 0.0
C628 C 0.51983 0.81239 0.46554 0.0
C629 C 0.51007 0.82759 0.42579 0.0
C630 C 0.50262 0.81734 0.38082 0.0
C631 C 0.50512 0.79179 0.376 0.0
C632 C 0.5141 0.77649 0.41422 0.0
C633 C 0.51646 0.74967 0.39864 0.0
C634 C 0.56746 0.73852 0.40861 0.0
C635 C 0.47536 0.7345 0.42243 0.0
C636 C 0.50775 0.75238 0.34573 0.0
C637 C 0.50106 0.77686 0.33364 0.0
C638 C 0.49287 0.78417 0.28702 0.0
C639 C 0.49122 0.766 0.25175 0.0
C640 C 0.49782 0.74071 0.26301 0.0
C641 C 0.50638 0.73392 0.31081 0.0
H642 H 0.06397 0.77977 0.01983 0.0
H643 H 0.08065 0.85184 0.08481 0.0
H644 H 0.08793 0.83222 0.16337 0.0
H645 H 0.99048 0.75318 0.11314 0.0
H646 H 0.01838 0.72304 0.10956 0.0
H647 H 0.01589 0.74242 0.05768 0.0
H648 H 0.1105 0.73905 0.04767 0.0
H649 H 0.11322 0.71947 0.09926 0.0
H650 H 0.14979 0.74719 0.09652 0.0
H651 H 0.09278 0.80551 0.23436 0.0
H652 H 0.09705 0.77271 0.29476 0.0
H653 H 0.0761 0.71728 0.18592 0.0
C654 C 0.06977 0.79133 0.05059 0.0
C655 C 0.07173 0.81735 0.04629 0.0
C656 C 0.07868 0.83191 0.08739 0.0
C657 C 0.08291 0.82094 0.13213 0.0
C658 C 0.07996 0.79535 0.13534 0.0
C659 C 0.0737 0.78065 0.09583 0.0
C660 C 0.07116 0.75356 0.10971 0.0
C661 C 0.02099 0.7424 0.09675 0.0
C662 C 0.11371 0.73896 0.08694 0.0
C663 C 0.07712 0.75542 0.16312 0.0
C664 C 0.08218 0.77976 0.1769 0.0
C665 C 0.08897 0.78638 0.22405 0.0
C666 C 0.09148 0.76762 0.25807 0.0
C667 C 0.08707 0.74249 0.24501 0.0
C668 C 0.07908 0.73635 0.1969 0.0
H669 H 0.54165 0.26587 0.74768 0.0
H670 H 0.45838 0.32747 0.69171 0.0
H671 H 0.45352 0.30658 0.61384 0.0
H672 H 0.6137 0.25562 0.64184 0.0
H673 H 0.61468 0.22251 0.64818 0.0
H674 H 0.60982 0.24183 0.69995 0.0
H675 H 0.53002 0.21905 0.72522 0.0
H676 H 0.53464 0.19965 0.67354 0.0
H677 H 0.47935 0.21724 0.68437 0.0
H678 H 0.45589 0.2786 0.54321 0.0
H679 H 0.47054 0.24673 0.48206 0.0
H680 H 0.55677 0.20424 0.58213 0.0
C681 C 0.52208 0.27476 0.71902 0.0
C682 C 0.5 0.29814 0.72549 0.0
C683 C 0.47553 0.30958 0.68715 0.0
C684 C 0.47246 0.29782 0.64301 0.0
C685 C 0.4947 0.27479 0.63769 0.0
C686 C 0.5195 0.26347 0.67445 0.0
C687 C 0.54192 0.23916 0.65869 0.0
C688 C 0.59838 0.23983 0.66238 0.0
C689 C 0.52017 0.2175 0.68715 0.0
C690 C 0.52552 0.23849 0.60744 0.0
C691 C 0.49791 0.25912 0.59626 0.0
C692 C 0.47763 0.26243 0.55146 0.0
C693 C 0.48596 0.24422 0.51707 0.0
C694 C 0.51477 0.22314 0.52748 0.0
C695 C 0.53492 0.22031 0.57323 0.0
H696 H 0.59637 0.75564 0.76233 0.0
H697 H 0.58304 0.82827 0.82606 0.0
H698 H 0.57815 0.80936 0.90514 0.0
H699 H 0.51271 0.72464 0.84169 0.0
H700 H 0.5481 0.69653 0.84478 0.0
H701 H 0.55128 0.71557 0.79244 0.0
H702 H 0.64607 0.71819 0.80043 0.0
H703 H 0.6432 0.6991 0.85272 0.0
H704 H 0.67234 0.72894 0.85521 0.0
H705 H 0.57299 0.78333 0.97667 0.0
H706 H 0.56915 0.75132 0.03818 0.0
H707 H 0.5879 0.69462 0.93068 0.0
C708 C 0.5928 0.76752 0.79299 0.0
C709 C 0.58954 0.79348 0.78781 0.0
C710 C 0.58455 0.80838 0.82885 0.0
C711 C 0.5821 0.7978 0.87406 0.0
C712 C 0.5848 0.77225 0.8779 0.0
C713 C 0.59016 0.75721 0.83868 0.0
C714 C 0.59168 0.7302 0.85326 0.0
C715 C 0.54836 0.7159 0.83176 0.0
C716 C 0.64128 0.71842 0.83959 0.0
C717 C 0.58623 0.73252 0.90673 0.0
C718 C 0.5824 0.75701 0.91989 0.0
C719 C 0.5765 0.76409 0.96694 0.0
C720 C 0.57476 0.74571 1.0017 0.0
C721 C 0.57919 0.72039 0.98954 0.0
C722 C 0.58459 0.71377 0.94118 0.0
H723 H 0.04229 0.28137 0.48318 0.0
H724 H 0.91499 0.329 0.46549 0.0
H725 H 0.88891 0.30405 0.39703 0.0
H726 H 0.06964 0.27565 0.36151 0.0
H727 H 0.08948 0.24395 0.3651 0.0
H728 H 0.09506 0.2638 0.41589 0.0
H729 H 0.04425 0.23278 0.46617 0.0
H730 H 0.03827 0.21289 0.41534 0.0
H731 H 0.98405 0.22353 0.44635 0.0
H732 H 0.8804 0.27632 0.32648 0.0
H733 H 0.89146 0.24854 0.25778 0.0
H734 H 0.025 0.21947 0.31993 0.0
C735 C 1.00883 0.28658 0.46508 0.0
C736 C 0.98064 0.30719 0.48009 0.0
C737 C 0.93684 0.3131 0.45545 0.0
C738 C 0.92177 0.29907 0.41633 0.0
C739 C 0.95076 0.2791 0.40226 0.0
C740 C 0.99338 0.27286 0.42586 0.0
C741 C 0.01964 0.25154 0.40169 0.0
C742 C 0.07151 0.2592 0.38506 0.0
C743 C 0.02165 0.22884 0.43434 0.0
C744 C 0.98574 0.24717 0.36008 0.0
C745 C 0.94594 0.2631 0.3614 0.0
C746 C 0.91112 0.2636 0.32535 0.0
C747 C 0.91776 0.24784 0.28644 0.0
C748 C 0.9589 0.23181 0.28373 0.0
C749 C 0.99266 0.23113 0.32162 0.0
H750 H 0.60596 0.3211 0.06745 0.0
H751 H 0.47243 0.2924 1.00411 0.0
H752 H 0.46973 0.25929 0.06379 0.0
H753 H 0.65935 0.26129 0.09663 0.0
H754 H 0.68478 0.27166 0.15204 0.0
H755 H 0.67708 0.29312 0.1038 0.0
H756 H 0.62506 0.32162 0.15825 0.0
H757 H 0.63263 0.30026 0.20663 0.0
H758 H 0.57174 0.30927 0.18831 0.0
H759 H 0.4798 0.22983 0.13066 0.0
H760 H 0.50139 0.20613 0.20191 0.0
H761 H 0.62987 0.25261 0.22181 0.0
C762 C 0.57636 0.30776 0.06602 0.0
C763 C 0.53906 0.30959 0.03135 0.0
C764 C 0.50083 0.29177 0.03087 0.0
C765 C 0.49917 0.27273 0.06439 0.0
C766 C 0.53613 0.27156 0.09823 0.0
C767 C 0.57404 0.28854 0.09943 0.0
C768 C 0.60852 0.28317 0.14035 0.0
C769 C 0.66051 0.27694 0.1221 0.0
C770 C 0.60952 0.30487 0.17546 0.0
C771 C 0.58372 0.26069 0.162 0.0
C772 C 0.54219 0.25428 0.13692 0.0
C773 C 0.51252 0.23452 0.15041 0.0
C774 C 0.52538 0.22101 0.19089 0.0
C775 C 0.56763 0.22725 0.21763 0.0
C776 C 0.59724 0.24734 0.20251 0.0
H777 H 0.0288 0.69917 0.586 0.0
H778 H 0.05528 0.75549 0.47924 0.0
H779 H 0.04901 0.78771 0.54024 0.0
H780 H 0.94046 0.73315 0.65392 0.0
H781 H 0.96182 0.72285 0.71101 0.0
H782 H 0.97016 0.70353 0.65962 0.0
H783 H 0.06398 0.7016 0.67508 0.0
H784 H 0.05585 0.72071 0.72683 0.0
H785 H 0.0983 0.7299 0.68073 0.0
H786 H 0.03554 0.81389 0.60975 0.0
H787 H 0.02184 0.83334 0.68712 0.0
H788 H 1.00677 0.76107 0.75243 0.0
C789 C 0.03388 0.71828 0.57579 0.0
C790 C 0.04187 0.72488 0.52779 0.0
C791 C 0.04821 0.75006 0.51563 0.0
C792 C 0.04489 0.76851 0.55003 0.0
C793 C 0.03559 0.76153 0.59665 0.0
C794 C 0.03069 0.7371 0.60996 0.0
C795 C 0.0205 0.73505 0.66289 0.0
C796 C 0.97024 0.72293 0.6724 0.0
C797 C 0.06215 0.72098 0.68786 0.0
C798 C 0.02008 0.76215 0.67683 0.0
C799 C 0.0288 0.77695 0.6378 0.0
C800 C 0.02941 0.80254 0.6408 0.0
C801 C 0.02184 0.8134 0.68511 0.0
C802 C 0.01411 0.79878 0.72621 0.0
C803 C 0.01257 0.77275 0.72176 0.0
loop_
_geom_bond_atom_site_label_1
_geom_bond_atom_site_label_2
_geom_bond_distance
_geom_bond_site_symmetry_2
_ccdc_geom_bond_type
Co0 N4 2.148 . S
Co0 N10 2.128 . S
Co0 N20 2.194 . S
Co0 O25 2.351 1_455 S
Co0 O26 2.155 1_455 S
Co0 O27 2.096 . S
C1 N4 1.301 1_655 S
C1 N5 1.328 1_655 S
C1 H6 0.930 . S
C2 C3 1.333 . S
C2 N4 1.317 . S
C2 H7 0.930 . S
C3 C2 1.333 . S
C3 N5 1.350 . S
C3 H29 0.931 . S
N4 Co0 2.148 . S
N4 C1 1.301 1_455 S
N4 C2 1.317 . S
N5 C1 1.328 1_455 S
N5 C3 1.350 . S
H6 C1 0.930 . S
H7 C2 0.930 . S
C8 O9 1.224 . S
C8 O27 1.247 . S
O9 C8 1.224 . S
N10 Co0 2.128 . S
N10 C11 1.355 1_455 S
N10 C13 1.311 . S
C11 N10 1.355 1_655 S
C11 C12 1.363 . S
C11 H23 0.929 . S
C12 C11 1.363 . S
C12 N14 1.375 1_655 S
C12 H30 0.931 . S
C13 N10 1.311 . S
C13 N14 1.347 . S
C13 H24 0.929 . S
N14 C12 1.375 1_455 S
N14 C13 1.347 . S
C15 C18 1.365 . S
C15 N20 1.328 1_655 S
C15 H21 0.929 . S
C16 C17 1.362 . S
C16 C19 1.378 . S
C16 H31 0.929 . S
C17 C16 1.362 . S
C17 C18 1.366 1_455 S
C18 C15 1.365 . S
C18 C17 1.366 1_655 S
C18 H32 0.930 . S
C19 C16 1.378 . S
C19 N20 1.315 . S
C19 H22 0.930 . S
N20 Co0 2.194 . S
N20 C15 1.328 1_455 S
N20 C19 1.315 . S
H21 C15 0.929 . S
H22 C19 0.930 . S
H23 C11 0.929 . S
H24 C13 0.929 . S
O25 Co0 2.351 1_655 S
O25 C28 1.244 . S
O26 Co0 2.155 1_655 S
O26 C28 1.240 . S
O27 Co0 2.096 . S
O27 C8 1.247 . S
C28 O25 1.244 . S
C28 O26 1.240 . S
H29 C3 0.931 . S
H30 C12 0.931 . S
H31 C16 0.929 . S
H32 C18 0.930 . S
Co33 N37 2.148 . S
Co33 N43 2.128 . S
Co33 N53 2.194 . S
Co33 O58 2.351 . S
Co33 O59 2.155 . S
Co33 O60 2.096 . S
C34 N37 1.301 . S
C34 N38 1.328 . S
C34 H39 0.930 . S
C35 C36 1.333 . S
C35 N37 1.317 . S
C35 H40 0.930 . S
C36 C35 1.333 . S
C36 N38 1.350 . S
C36 H62 0.931 . S
N37 Co33 2.148 . S
N37 C34 1.301 . S
N37 C35 1.317 . S
N38 C34 1.328 . S
N38 C36 1.350 . S
H39 C34 0.930 . S
H40 C35 0.930 . S
C41 O42 1.224 . S
C41 O60 1.247 . S
O42 C41 1.224 . S
N43 Co33 2.128 . S
N43 C44 1.355 . S
N43 C46 1.311 . S
C44 N43 1.355 . S
C44 C45 1.363 . S
C44 H56 0.929 . S
C45 C44 1.363 . S
C45 N47 1.375 . S
C45 H63 0.931 . S
C46 N43 1.311 . S
C46 N47 1.347 . S
C46 H57 0.929 . S
N47 C45 1.375 . S
N47 C46 1.347 . S
C48 C51 1.365 . S
C48 N53 1.328 . S
C48 H54 0.929 . S
C49 C50 1.362 . S
C49 C52 1.378 . S
C49 H64 0.929 . S
C50 C49 1.362 . S
C50 C51 1.366 . S
C51 C48 1.365 . S
C51 C50 1.366 . S
C51 H65 0.930 . S
C52 C49 1.378 . S
C52 N53 1.315 . S
C52 H55 0.930 . S
N53 Co33 2.194 . S
N53 C48 1.328 . S
N53 C52 1.315 . S
H54 C48 0.929 . S
H55 C52 0.930 . S
H56 C44 0.929 . S
H57 C46 0.929 . S
O58 Co33 2.351 . S
O58 C61 1.244 . S
O59 Co33 2.155 . S
O59 C61 1.240 . S
O60 Co33 2.096 . S
O60 C41 1.247 . S
C61 O58 1.244 . S
C61 O59 1.240 . S
H62 C36 0.931 . S
H63 C45 0.931 . S
H64 C49 0.929 . S
H65 C51 0.930 . S
Co66 N70 2.148 . S
Co66 N76 2.128 . S
Co66 N86 2.194 . S
Co66 O91 2.351 1_455 S
Co66 O92 2.155 1_455 S
Co66 O93 2.096 . S
C67 N70 1.301 1_655 S
C67 N71 1.328 1_655 S
C67 H72 0.930 . S
C68 C69 1.333 . S
C68 N70 1.317 . S
C68 H73 0.930 . S
C69 C68 1.333 . S
C69 N71 1.350 . S
C69 H95 0.931 . S
N70 Co66 2.148 . S
N70 C67 1.301 1_455 S
N70 C68 1.317 . S
N71 C67 1.328 1_455 S
N71 C69 1.350 . S
H72 C67 0.930 . S
H73 C68 0.930 . S
C74 O75 1.224 . S
C74 O93 1.247 . S
O75 C74 1.224 . S
N76 Co66 2.128 . S
N76 C77 1.355 1_455 S
N76 C79 1.311 . S
C77 N76 1.355 1_655 S
C77 C78 1.363 . S
C77 H89 0.929 . S
C78 C77 1.363 . S
C78 N80 1.375 1_655 S
C78 H96 0.931 . S
C79 N76 1.311 . S
C79 N80 1.347 . S
C79 H90 0.929 . S
N80 C78 1.375 1_455 S
N80 C79 1.347 . S
C81 C84 1.365 . S
C81 N86 1.328 1_655 S
C81 H87 0.929 . S
C82 C83 1.362 . S
C82 C85 1.378 . S
C82 H97 0.929 . S
C83 C82 1.362 . S
C83 C84 1.366 1_455 S
C84 C81 1.365 . S
C84 C83 1.366 1_655 S
C84 H98 0.930 . S
C85 C82 1.378 . S
C85 N86 1.315 . S
C85 H88 0.930 . S
N86 Co66 2.194 . S
N86 C81 1.328 1_455 S
N86 C85 1.315 . S
H87 C81 0.929 . S
H88 C85 0.930 . S
H89 C77 0.929 . S
H90 C79 0.929 . S
O91 Co66 2.351 1_655 S
O91 C94 1.244 . S
O92 Co66 2.155 1_655 S
O92 C94 1.240 . S
O93 Co66 2.096 . S
O93 C74 1.247 . S
C94 O91 1.244 . S
C94 O92 1.240 . S
H95 C69 0.931 . S
H96 C78 0.931 . S
H97 C82 0.929 . S
H98 C84 0.930 . S
Co99 N103 2.148 . S
Co99 N109 2.128 . S
Co99 N119 2.194 . S
Co99 O124 2.351 . S
Co99 O125 2.155 . S
Co99 O126 2.096 . S
C100 N103 1.301 . S
C100 N104 1.328 . S
C100 H105 0.930 . S
C101 C102 1.333 . S
C101 N103 1.317 . S
C101 H106 0.930 . S
C102 C101 1.333 . S
C102 N104 1.350 . S
C102 H128 0.931 . S
N103 Co99 2.148 . S
N103 C100 1.301 . S
N103 C101 1.317 . S
N104 C100 1.328 . S
N104 C102 1.350 . S
H105 C100 0.930 . S
H106 C101 0.930 . S
C107 O108 1.224 . S
C107 O126 1.247 . S
O108 C107 1.224 . S
N109 Co99 2.128 . S
N109 C110 1.355 . S
N109 C112 1.311 . S
C110 N109 1.355 . S
C110 C111 1.363 . S
C110 H122 0.929 . S
C111 C110 1.363 . S
C111 N113 1.375 . S
C111 H129 0.931 . S
C112 N109 1.311 . S
C112 N113 1.347 . S
C112 H123 0.929 . S
N113 C111 1.375 . S
N113 C112 1.347 . S
C114 C117 1.365 . S
C114 N119 1.328 . S
C114 H120 0.929 . S
C115 C116 1.362 . S
C115 C118 1.378 . S
C115 H130 0.929 . S
C116 C115 1.362 . S
C116 C117 1.366 . S
C117 C114 1.365 . S
C117 C116 1.366 . S
C117 H131 0.930 . S
C118 C115 1.378 . S
C118 N119 1.315 . S
C118 H121 0.930 . S
N119 Co99 2.194 . S
N119 C114 1.328 . S
N119 C118 1.315 . S
H120 C114 0.929 . S
H121 C118 0.930 . S
H122 C110 0.929 . S
H123 C112 0.929 . S
O124 Co99 2.351 . S
O124 C127 1.244 . S
O125 Co99 2.155 . S
O125 C127 1.240 . S
O126 Co99 2.096 . S
O126 C107 1.247 . S
C127 O124 1.244 . S
C127 O125 1.240 . S
H128 C102 0.931 . S
H129 C111 0.931 . S
H130 C115 0.929 . S
H131 C117 0.930 . S
Co132 N136 2.148 . S
Co132 N142 2.128 . S
Co132 N152 2.194 . S
Co132 O157 2.351 . S
Co132 O158 2.155 . S
Co132 O159 2.096 . S
C133 N136 1.301 . S
C133 N137 1.328 . S
C133 H138 0.930 . S
C134 C135 1.333 . S
C134 N136 1.317 . S
C134 H139 0.930 . S
C135 C134 1.333 . S
C135 N137 1.350 . S
C135 H161 0.931 . S
N136 Co132 2.148 . S
N136 C133 1.301 . S
N136 C134 1.317 . S
N137 C133 1.328 . S
N137 C135 1.350 . S
H138 C133 0.930 . S
H139 C134 0.930 . S
C140 O141 1.224 . S
C140 O159 1.247 . S
O141 C140 1.224 . S
N142 Co132 2.128 . S
N142 C143 1.355 . S
N142 C145 1.311 . S
C143 N142 1.355 . S
C143 C144 1.363 . S
C143 H155 0.929 . S
C144 C143 1.363 . S
C144 N146 1.375 . S
C144 H162 0.931 . S
C145 N142 1.311 . S
C145 N146 1.347 . S
C145 H156 0.929 . S
N146 C144 1.375 . S
N146 C145 1.347 . S
C147 C150 1.365 . S
C147 N152 1.328 . S
C147 H153 0.929 . S
C148 C149 1.362 . S
C148 C151 1.378 . S
C148 H163 0.929 . S
C149 C148 1.362 . S
C149 C150 1.366 . S
C150 C147 1.365 . S
C150 C149 1.366 . S
C150 H164 0.930 . S
C151 C148 1.378 . S
C151 N152 1.315 . S
C151 H154 0.930 . S
N152 Co132 2.194 . S
N152 C147 1.328 . S
N152 C151 1.315 . S
H153 C147 0.929 . S
H154 C151 0.930 . S
H155 C143 0.929 . S
H156 C145 0.929 . S
O157 Co132 2.351 . S
O157 C160 1.244 . S
O158 Co132 2.155 . S
O158 C160 1.240 . S
O159 Co132 2.096 . S
O159 C140 1.247 . S
C160 O157 1.244 . S
C160 O158 1.240 . S
H161 C135 0.931 . S
H162 C144 0.931 . S
H163 C148 0.929 . S
H164 C150 0.930 . S
Co165 N169 2.148 . S
Co165 N175 2.128 . S
Co165 N185 2.194 . S
Co165 O190 2.351 . S
Co165 O191 2.155 . S
Co165 O192 2.096 1_455 S
C166 N169 1.301 . S
C166 N170 1.328 . S
C166 H171 0.930 . S
C167 C168 1.333 . S
C167 N169 1.317 . S
C167 H172 0.930 1_455 S
C168 C167 1.333 . S
C168 N170 1.350 . S
C168 H194 0.931 1_455 S
N169 Co165 2.148 . S
N169 C166 1.301 . S
N169 C167 1.317 . S
N170 C166 1.328 . S
N170 C168 1.350 . S
H171 C166 0.930 . S
H172 C167 0.930 1_655 S
C173 O174 1.224 . S
C173 O192 1.247 . S
O174 C173 1.224 . S
N175 Co165 2.128 . S
N175 C176 1.355 . S
N175 C178 1.311 . S
C176 N175 1.355 . S
C176 C177 1.363 . S
C176 H188 0.929 . S
C177 C176 1.363 . S
C177 N179 1.375 . S
C177 H195 0.931 . S
C178 N175 1.311 . S
C178 N179 1.347 . S
C178 H189 0.929 . S
N179 C177 1.375 . S
N179 C178 1.347 . S
C180 C183 1.365 . S
C180 N185 1.328 . S
C180 H186 0.929 . S
C181 C182 1.382 . S
C181 C184 1.380 . S
C181 H196 0.907 1_455 S
C182 C181 1.382 . S
C182 C183 1.366 . S
C183 C180 1.365 . S
C183 C182 1.366 . S
C183 H197 0.930 . S
C184 C181 1.380 . S
C184 N185 1.315 . S
C184 H187 0.930 1_455 S
N185 Co165 2.194 . S
N185 C180 1.328 . S
N185 C184 1.315 . S
H186 C180 0.929 . S
H187 C184 0.930 1_655 S
H188 C176 0.929 . S
H189 C178 0.929 . S
O190 Co165 2.351 . S
O190 C193 1.244 . S
O191 Co165 2.155 . S
O191 C193 1.240 . S
O192 Co165 2.096 1_655 S
O192 C173 1.247 . S
C193 O190 1.244 . S
C193 O191 1.240 . S
H194 C168 0.931 1_655 S
H195 C177 0.931 . S
H196 C181 0.907 1_655 S
H197 C183 0.930 . S
Co198 N202 2.148 . S
Co198 N208 2.128 . S
Co198 N218 2.194 . S
Co198 O223 2.351 . S
Co198 O224 2.155 . S
Co198 O225 2.096 . S
C199 N202 1.301 . S
C199 N203 1.328 . S
C199 H204 0.930 . S
C200 C201 1.333 . S
C200 N202 1.317 . S
C200 H205 0.930 . S
C201 C200 1.333 . S
C201 N203 1.350 . S
C201 H227 0.931 . S
N202 Co198 2.148 . S
N202 C199 1.301 . S
N202 C200 1.317 . S
N203 C199 1.328 . S
N203 C201 1.350 . S
H204 C199 0.930 . S
H205 C200 0.930 . S
C206 O207 1.224 . S
C206 O225 1.247 . S
O207 C206 1.224 . S
N208 Co198 2.128 . S
N208 C209 1.355 . S
N208 C211 1.311 . S
C209 N208 1.355 . S
C209 C210 1.363 . S
C209 H221 0.929 . S
C210 C209 1.363 . S
C210 N212 1.375 . S
C210 H228 0.931 . S
C211 N208 1.311 . S
C211 N212 1.347 . S
C211 H222 0.929 . S
N212 C210 1.375 . S
N212 C211 1.347 . S
C213 C216 1.365 . S
C213 N218 1.328 . S
C213 H219 0.929 . S
C214 C215 1.362 . S
C214 C217 1.378 . S
C214 H229 0.929 . S
C215 C214 1.362 . S
C215 C216 1.366 . S
C216 C213 1.365 . S
C216 C215 1.366 . S
C216 H230 0.930 . S
C217 C214 1.378 . S
C217 N218 1.315 . S
C217 H220 0.930 . S
N218 Co198 2.194 . S
N218 C213 1.328 . S
N218 C217 1.315 . S
H219 C213 0.929 . S
H220 C217 0.930 . S
H221 C209 0.929 . S
H222 C211 0.929 . S
O223 Co198 2.351 . S
O223 C226 1.244 . S
O224 Co198 2.155 . S
O224 C226 1.240 . S
O225 Co198 2.096 . S
O225 C206 1.247 . S
C226 O223 1.244 . S
C226 O224 1.240 . S
H227 C201 0.931 . S
H228 C210 0.931 . S
H229 C214 0.929 . S
H230 C216 0.930 . S
Co231 N235 2.148 . S
Co231 N241 2.128 . S
Co231 N251 2.194 . S
Co231 O256 2.351 . S
Co231 O257 2.155 . S
Co231 O258 2.096 1_455 S
C232 N235 1.301 . S
C232 N236 1.328 . S
C232 H237 0.930 . S
C233 C234 1.333 . S
C233 N235 1.317 . S
C233 H238 0.930 1_455 S
C234 C233 1.333 . S
C234 N236 1.350 . S
C234 H260 0.931 1_455 S
N235 Co231 2.148 . S
N235 C232 1.301 . S
N235 C233 1.317 . S
N236 C232 1.328 . S
N236 C234 1.350 . S
H237 C232 0.930 . S
H238 C233 0.930 1_655 S
C239 O240 1.224 . S
C239 O258 1.247 . S
O240 C239 1.224 . S
N241 Co231 2.128 . S
N241 C242 1.355 . S
N241 C244 1.311 . S
C242 N241 1.355 . S
C242 C243 1.363 . S
C242 H254 0.929 . S
C243 C242 1.363 . S
C243 N245 1.375 . S
C243 H261 0.931 . S
C244 N241 1.311 . S
C244 N245 1.347 . S
C244 H255 0.929 . S
N245 C243 1.375 . S
N245 C244 1.347 . S
C246 C249 1.365 . S
C246 N251 1.328 . S
C246 H252 0.929 . S
C247 C248 1.382 . S
C247 C250 1.380 . S
C247 H262 0.907 1_455 S
C248 C247 1.382 . S
C248 C249 1.366 . S
C249 C246 1.365 . S
C249 C248 1.366 . S
C249 H263 0.930 . S
C250 C247 1.380 . S
C250 N251 1.315 . S
C250 H253 0.930 1_455 S
N251 Co231 2.194 . S
N251 C246 1.328 . S
N251 C250 1.315 . S
H252 C246 0.929 . S
H253 C250 0.930 1_655 S
H254 C242 0.929 . S
H255 C244 0.929 . S
O256 Co231 2.351 . S
O256 C259 1.244 . S
O257 Co231 2.155 . S
O257 C259 1.240 . S
O258 Co231 2.096 1_655 S
O258 C239 1.247 . S
C259 O256 1.244 . S
C259 O257 1.240 . S
H260 C234 0.931 1_655 S
H261 C243 0.931 . S
H262 C247 0.907 1_655 S
H263 C249 0.930 . S
H264 C276 0.930 . S
H265 C278 0.930 1_554 S
H266 C279 0.930 . S
H267 C283 0.959 . S
H268 C283 0.959 . S
H269 C283 0.961 . S
H270 C284 0.960 . S
H271 C284 0.961 1_455 S
H272 C284 0.959 . S
H273 C287 0.929 . S
H274 C288 0.931 . S
H275 C290 0.930 1_556 S
C276 H264 0.930 . S
C276 C277 1.399 1_455 S
C276 C281 1.399 . S
C277 C276 1.399 1_655 S
C277 C278 1.376 . S
C278 H265 0.930 1_556 S
C278 C277 1.376 . S
C278 C279 1.388 1_556 S
C279 H266 0.930 . S
C279 C278 1.388 1_554 S
C279 C280 1.390 . S
C280 C279 1.390 . S
C280 C281 1.394 1_654 S
C280 C286 1.465 1_565 S
C281 C276 1.399 . S
C281 C280 1.394 1_456 S
C281 C282 1.516 1_565 S
C282 C281 1.516 1_545 S
C282 C283 1.502 . S
C282 C284 1.561 1_455 S
C282 C285 1.526 . S
C283 H267 0.959 . S
C283 H268 0.959 . S
C283 H269 0.961 . S
C283 C282 1.502 . S
C284 H270 0.960 . S
C284 H271 0.961 1_655 S
C284 H272 0.959 . S
C284 C282 1.561 1_655 S
C285 C282 1.526 . S
C285 C286 1.396 1_456 S
C285 C290 1.390 1_556 S
C286 C280 1.465 1_545 S
C286 C285 1.396 1_654 S
C286 C287 1.399 . S
C287 H273 0.929 . S
C287 C286 1.399 . S
C287 C288 1.385 . S
C288 H274 0.931 . S
C288 C287 1.385 . S
C288 C289 1.389 . S
C289 C288 1.389 . S
C289 C290 1.387 1_655 S
C290 H275 0.930 1_554 S
C290 C285 1.390 1_554 S
C290 C289 1.387 1_455 S
H291 C303 0.930 . S
H292 C305 0.930 . S
H293 C306 0.930 . S
H294 C310 0.959 . S
H295 C310 0.959 . S
H296 C310 0.961 . S
H297 C311 0.960 . S
H298 C311 0.961 . S
H299 C311 0.959 . S
H300 C314 0.929 . S
H301 C315 0.931 . S
H302 C317 0.930 . S
C303 H291 0.930 . S
C303 C304 1.399 . S
C303 C308 1.399 . S
C304 C303 1.399 . S
C304 C305 1.376 . S
C305 H292 0.930 . S
C305 C304 1.376 . S
C305 C306 1.388 . S
C306 H293 0.930 . S
C306 C305 1.388 . S
C306 C307 1.390 . S
C307 C306 1.390 . S
C307 C308 1.394 . S
C307 C313 1.465 1_545 S
C308 C303 1.399 . S
C308 C307 1.394 . S
C308 C309 1.516 1_545 S
C309 C308 1.516 1_565 S
C309 C310 1.502 . S
C309 C311 1.561 . S
C309 C312 1.526 . S
C310 H294 0.959 . S
C310 H295 0.959 . S
C310 H296 0.961 . S
C310 C309 1.502 . S
C311 H297 0.960 . S
C311 H298 0.961 . S
C311 H299 0.959 . S
C311 C309 1.561 . S
C312 C309 1.526 . S
C312 C313 1.396 . S
C312 C317 1.390 . S
C313 C307 1.465 1_565 S
C313 C312 1.396 . S
C313 C314 1.399 . S
C314 H300 0.929 . S
C314 C313 1.399 . S
C314 C315 1.385 . S
C315 H301 0.931 . S
C315 C314 1.385 . S
C315 C316 1.389 . S
C316 C315 1.389 . S
C316 C317 1.387 . S
C317 H302 0.930 . S
C317 C312 1.390 . S
C317 C316 1.387 . S
H318 C330 0.930 1_556 S
H319 C332 0.930 . S
H320 C333 0.930 . S
H321 C337 0.959 . S
H322 C337 0.959 . S
H323 C337 0.961 . S
H324 C338 0.960 . S
H325 C338 0.961 . S
H326 C338 0.959 . S
H327 C341 0.929 . S
H328 C342 0.931 1_554 S
H329 C344 0.930 . S
C330 H318 0.930 1_554 S
C330 C331 1.399 . S
C330 C335 1.399 1_554 S
C331 C330 1.399 . S
C331 C332 1.376 . S
C332 H319 0.930 . S
C332 C331 1.376 . S
C332 C333 1.388 . S
C333 H320 0.930 . S
C333 C332 1.388 . S
C333 C334 1.390 . S
C334 C333 1.390 . S
C334 C335 1.394 1_554 S
C334 C340 1.465 . S
C335 C330 1.399 1_556 S
C335 C334 1.394 1_556 S
C335 C336 1.516 . S
C336 C335 1.516 . S
C336 C337 1.502 . S
C336 C338 1.561 . S
C336 C339 1.526 . S
C337 H321 0.959 . S
C337 H322 0.959 . S
C337 H323 0.961 . S
C337 C336 1.502 . S
C338 H324 0.960 . S
C338 H325 0.961 . S
C338 H326 0.959 . S
C338 C336 1.561 . S
C339 C336 1.526 . S
C339 C340 1.396 1_556 S
C339 C344 1.390 . S
C340 C334 1.465 . S
C340 C339 1.396 1_554 S
C340 C341 1.399 . S
C341 H327 0.929 . S
C341 C340 1.399 . S
C341 C342 1.385 1_554 S
C342 H328 0.931 1_556 S
C342 C341 1.385 1_556 S
C342 C343 1.389 . S
C343 C342 1.389 . S
C343 C344 1.387 . S
C344 H329 0.930 . S
C344 C339 1.390 . S
C344 C343 1.387 . S
H345 C357 0.930 . S
H346 C359 0.930 . S
H347 C360 0.930 . S
H348 C364 0.959 . S
H349 C364 0.959 . S
H350 C364 0.961 . S
H351 C365 0.960 . S
H352 C365 0.961 . S
H353 C365 0.959 . S
H354 C368 0.929 . S
H355 C369 0.931 . S
H356 C371 0.930 . S
C357 H345 0.930 . S
C357 C358 1.399 . S
C357 C362 1.399 . S
C358 C357 1.399 . S
C358 C359 1.376 . S
C359 H346 0.930 . S
C359 C358 1.376 . S
C359 C360 1.388 . S
C360 H347 0.930 . S
C360 C359 1.388 . S
C360 C361 1.390 . S
C361 C360 1.390 . S
C361 C362 1.394 . S
C361 C367 1.465 . S
C362 C357 1.399 . S
C362 C361 1.394 . S
C362 C363 1.516 . S
C363 C362 1.516 . S
C363 C364 1.502 1_455 S
C363 C365 1.561 . S
C363 C366 1.526 . S
C364 H348 0.959 . S
C364 H349 0.959 . S
C364 H350 0.961 . S
C364 C363 1.502 1_655 S
C365 H351 0.960 . S
C365 H352 0.961 . S
C365 H353 0.959 . S
C365 C363 1.561 . S
C366 C363 1.526 . S
C366 C367 1.396 . S
C366 C371 1.390 . S
C367 C361 1.465 . S
C367 C366 1.396 . S
C367 C368 1.399 . S
C368 H354 0.929 . S
C368 C367 1.399 . S
C368 C369 1.385 . S
C369 H355 0.931 . S
C369 C368 1.385 . S
C369 C370 1.389 . S
C370 C369 1.389 . S
C370 C371 1.387 . S
C371 H356 0.930 . S
C371 C366 1.390 . S
C371 C370 1.387 . S
H372 C384 0.930 . S
H373 C386 0.930 . S
H374 C387 0.930 . S
H375 C391 0.959 . S
H376 C391 0.959 . S
H377 C391 0.961 . S
H378 C392 0.960 . S
H379 C392 0.961 . S
H380 C392 0.959 . S
H381 C395 0.929 . S
H382 C396 0.931 . S
H383 C398 0.930 . S
C384 H372 0.930 . S
C384 C385 1.399 . S
C384 C389 1.399 . S
C385 C384 1.399 . S
C385 C386 1.376 . S
C386 H373 0.930 . S
C386 C385 1.376 . S
C386 C387 1.388 . S
C387 H374 0.930 . S
C387 C386 1.388 . S
C387 C388 1.390 . S
C388 C387 1.390 . S
C388 C389 1.394 . S
C388 C394 1.465 . S
C389 C384 1.399 . S
C389 C388 1.394 . S
C389 C390 1.516 . S
C390 C389 1.516 . S
C390 C391 1.502 . S
C390 C392 1.561 . S
C390 C393 1.526 . S
C391 H375 0.959 . S
C391 H376 0.959 . S
C391 H377 0.961 . S
C391 C390 1.502 . S
C392 H378 0.960 . S
C392 H379 0.961 . S
C392 H380 0.959 . S
C392 C390 1.561 . S
C393 C390 1.526 . S
C393 C394 1.396 . S
C393 C398 1.390 . S
C394 C388 1.465 . S
C394 C393 1.396 . S
C394 C395 1.399 . S
C395 H381 0.929 . S
C395 C394 1.399 . S
C395 C396 1.385 . S
C396 H382 0.931 . S
C396 C395 1.385 . S
C396 C397 1.389 . S
C397 C396 1.389 . S
C397 C398 1.387 . S
C398 H383 0.930 . S
C398 C393 1.390 . S
C398 C397 1.387 . S
H399 C411 0.930 . S
H400 C413 0.930 . S
H401 C414 0.930 . S
H402 C418 0.959 . S
H403 C418 0.959 . S
H404 C418 0.961 . S
H405 C419 0.960 . S
H406 C419 0.961 . S
H407 C419 0.959 . S
H408 C422 0.929 . S
H409 C423 0.931 . S
H410 C425 0.930 . S
C411 H399 0.930 . S
C411 C412 1.399 . S
C411 C416 1.399 . S
C412 C411 1.399 . S
C412 C413 1.376 . S
C413 H400 0.930 . S
C413 C412 1.376 . S
C413 C414 1.388 . S
C414 H401 0.930 . S
C414 C413 1.388 . S
C414 C415 1.390 . S
C415 C414 1.390 . S
C415 C416 1.394 . S
C415 C421 1.465 . S
C416 C411 1.399 . S
C416 C415 1.394 . S
C416 C417 1.516 . S
C417 C416 1.516 . S
C417 C418 1.502 . S
C417 C419 1.561 . S
C417 C420 1.526 . S
C418 H402 0.959 . S
C418 H403 0.959 . S
C418 H404 0.961 . S
C418 C417 1.502 . S
C419 H405 0.960 . S
C419 H406 0.961 . S
C419 H407 0.959 . S
C419 C417 1.561 . S
C420 C417 1.526 . S
C420 C421 1.396 . S
C420 C425 1.390 . S
C421 C415 1.465 . S
C421 C420 1.396 . S
C421 C422 1.399 . S
C422 H408 0.929 . S
C422 C421 1.399 . S
C422 C423 1.385 . S
C423 H409 0.931 . S
C423 C422 1.385 . S
C423 C424 1.389 . S
C424 C423 1.389 . S
C424 C425 1.387 . S
C425 H410 0.930 . S
C425 C420 1.390 . S
C425 C424 1.387 . S
H426 C438 0.930 . S
H427 C440 0.930 . S
H428 C441 0.930 . S
H429 C445 0.959 . S
H430 C445 0.959 . S
H431 C445 0.961 . S
H432 C446 0.960 . S
H433 C446 0.961 . S
H434 C446 0.959 . S
H435 C449 0.929 . S
H436 C450 0.931 . S
H437 C452 0.930 . S
C438 H426 0.930 . S
C438 C439 1.399 . S
C438 C443 1.399 . S
C439 C438 1.399 . S
C439 C440 1.376 . S
C440 H427 0.930 . S
C440 C439 1.376 . S
C440 C441 1.388 . S
C441 H428 0.930 . S
C441 C440 1.388 . S
C441 C442 1.390 . S
C442 C441 1.390 . S
C442 C443 1.394 . S
C442 C448 1.465 . S
C443 C438 1.399 . S
C443 C442 1.394 . S
C443 C444 1.516 . S
C444 C443 1.516 . S
C444 C445 1.502 . S
C444 C446 1.561 . S
C444 C447 1.526 . S
C445 H429 0.959 . S
C445 H430 0.959 . S
C445 H431 0.961 . S
C445 C444 1.502 . S
C446 H432 0.960 . S
C446 H433 0.961 . S
C446 H434 0.959 . S
C446 C444 1.561 . S
C447 C444 1.526 . S
C447 C448 1.396 . S
C447 C452 1.390 . S
C448 C442 1.465 . S
C448 C447 1.396 . S
C448 C449 1.399 . S
C449 H435 0.929 . S
C449 C448 1.399 . S
C449 C450 1.385 . S
C450 H436 0.931 . S
C450 C449 1.385 . S
C450 C451 1.389 . S
C451 C450 1.389 . S
C451 C452 1.387 . S
C452 H437 0.930 . S
C452 C447 1.390 . S
C452 C451 1.387 . S
H453 C465 0.930 . S
H454 C467 0.930 . S
H455 C468 0.930 . S
H456 C472 0.959 . S
H457 C472 0.959 . S
H458 C472 0.961 . S
H459 C473 0.960 . S
H460 C473 0.961 . S
H461 C473 0.959 . S
H462 C476 0.929 . S
H463 C477 0.931 . S
H464 C479 0.930 . S
C465 H453 0.930 . S
C465 C466 1.399 . S
C465 C470 1.399 . S
C466 C465 1.399 . S
C466 C467 1.376 . S
C467 H454 0.930 . S
C467 C466 1.376 . S
C467 C468 1.388 . S
C468 H455 0.930 . S
C468 C467 1.388 . S
C468 C469 1.390 . S
C469 C468 1.390 . S
C469 C470 1.394 . S
C469 C475 1.465 . S
C470 C465 1.399 . S
C470 C469 1.394 . S
C470 C471 1.516 . S
C471 C470 1.516 . S
C471 C472 1.502 . S
C471 C473 1.561 . S
C471 C474 1.526 . S
C472 H456 0.959 . S
C472 H457 0.959 . S
C472 H458 0.961 . S
C472 C471 1.502 . S
C473 H459 0.960 . S
C473 H460 0.961 . S
C473 H461 0.959 . S
C473 C471 1.561 . S
C474 C471 1.526 . S
C474 C475 1.396 . S
C474 C479 1.390 . S
C475 C469 1.465 . S
C475 C474 1.396 . S
C475 C476 1.399 . S
C476 H462 0.929 . S
C476 C475 1.399 . S
C476 C477 1.385 . S
C477 H463 0.931 . S
C477 C476 1.385 . S
C477 C478 1.389 . S
C478 C477 1.389 . S
C478 C479 1.387 . S
C479 H464 0.930 . S
C479 C474 1.390 . S
C479 C478 1.387 . S
H480 C492 0.930 . S
H481 C494 0.930 . S
H482 C495 0.930 . S
H483 C499 0.959 . S
H484 C499 0.959 . S
H485 C499 0.961 . S
H486 C500 0.960 . S
H487 C500 0.961 . S
H488 C500 0.959 . S
H489 C503 0.929 . S
H490 C504 0.931 . S
H491 C506 0.930 . S
C492 H480 0.930 . S
C492 C493 1.399 . S
C492 C497 1.399 . S
C493 C492 1.399 . S
C493 C494 1.376 . S
C494 H481 0.930 . S
C494 C493 1.376 . S
C494 C495 1.388 . S
C495 H482 0.930 . S
C495 C494 1.388 . S
C495 C496 1.390 . S
C496 C495 1.390 . S
C496 C497 1.394 . S
C496 C502 1.465 . S
C497 C492 1.399 . S
C497 C496 1.394 . S
C497 C498 1.516 . S
C498 C497 1.516 . S
C498 C499 1.502 . S
C498 C500 1.561 . S
C498 C501 1.526 . S
C499 H483 0.959 . S
C499 H484 0.959 . S
C499 H485 0.961 . S
C499 C498 1.502 . S
C500 H486 0.960 . S
C500 H487 0.961 . S
C500 H488 0.959 . S
C500 C498 1.561 . S
C501 C498 1.526 . S
C501 C502 1.396 . S
C501 C506 1.390 . S
C502 C496 1.465 . S
C502 C501 1.396 . S
C502 C503 1.399 . S
C503 H489 0.929 . S
C503 C502 1.399 . S
C503 C504 1.385 . S
C504 H490 0.931 . S
C504 C503 1.385 . S
C504 C505 1.389 . S
C505 C504 1.389 . S
C505 C506 1.387 . S
C506 H491 0.930 . S
C506 C501 1.390 . S
C506 C505 1.387 . S
H507 C519 0.930 . S
H508 C521 0.930 . S
H509 C522 0.930 . S
H510 C526 0.959 . S
H511 C526 0.959 . S
H512 C526 0.961 . S
H513 C527 0.960 . S
H514 C527 0.961 . S
H515 C527 0.959 . S
H516 C530 0.929 . S
H517 C531 0.931 . S
H518 C533 0.930 . S
C519 H507 0.930 . S
C519 C520 1.399 . S
C519 C524 1.399 . S
C520 C519 1.399 . S
C520 C521 1.376 . S
C521 H508 0.930 . S
C521 C520 1.376 . S
C521 C522 1.388 . S
C522 H509 0.930 . S
C522 C521 1.388 . S
C522 C523 1.390 . S
C523 C522 1.390 . S
C523 C524 1.394 . S
C523 C529 1.465 . S
C524 C519 1.399 . S
C524 C523 1.394 . S
C524 C525 1.516 . S
C525 C524 1.516 . S
C525 C526 1.502 . S
C525 C527 1.561 . S
C525 C528 1.526 . S
C526 H510 0.959 . S
C526 H511 0.959 . S
C526 H512 0.961 . S
C526 C525 1.502 . S
C527 H513 0.960 . S
C527 H514 0.961 . S
C527 H515 0.959 . S
C527 C525 1.561 . S
C528 C525 1.526 . S
C528 C529 1.396 . S
C528 C533 1.390 . S
C529 C523 1.465 . S
C529 C528 1.396 . S
C529 C530 1.399 . S
C530 H516 0.929 . S
C530 C529 1.399 . S
C530 C531 1.385 . S
C531 H517 0.931 . S
C531 C530 1.385 . S
C531 C532 1.389 . S
C532 C531 1.389 . S
C532 C533 1.387 . S
C533 H518 0.930 . S
C533 C528 1.390 . S
C533 C532 1.387 . S
H534 C546 0.930 . S
H535 C548 0.930 . S
H536 C549 0.930 . S
H537 C553 0.959 . S
H538 C553 0.959 . S
H539 C553 0.961 . S
H540 C554 0.960 . S
H541 C554 0.961 . S
H542 C554 0.959 . S
H543 C557 0.929 . S
H544 C558 0.931 . S
H545 C560 0.930 . S
C546 H534 0.930 . S
C546 C547 1.399 . S
C546 C551 1.399 . S
C547 C546 1.399 . S
C547 C548 1.376 . S
C548 H535 0.930 . S
C548 C547 1.376 . S
C548 C549 1.388 . S
C549 H536 0.930 . S
C549 C548 1.388 . S
C549 C550 1.390 . S
C550 C549 1.390 . S
C550 C551 1.394 . S
C550 C556 1.465 . S
C551 C546 1.399 . S
C551 C550 1.394 . S
C551 C552 1.516 . S
C552 C551 1.516 . S
C552 C553 1.502 . S
C552 C554 1.561 . S
C552 C555 1.526 . S
C553 H537 0.959 . S
C553 H538 0.959 . S
C553 H539 0.961 . S
C553 C552 1.502 . S
C554 H540 0.960 . S
C554 H541 0.961 . S
C554 H542 0.959 . S
C554 C552 1.561 . S
C555 C552 1.526 . S
C555 C556 1.396 . S
C555 C560 1.390 . S
C556 C550 1.465 . S
C556 C555 1.396 . S
C556 C557 1.399 . S
C557 H543 0.929 . S
C557 C556 1.399 . S
C557 C558 1.385 . S
C558 H544 0.931 . S
C558 C557 1.385 . S
C558 C559 1.389 . S
C559 C558 1.389 . S
C559 C560 1.387 . S
C560 H545 0.930 . S
C560 C555 1.390 . S
C560 C559 1.387 . S
H561 C573 0.930 . S
H562 C575 0.930 . S
H563 C576 0.930 . S
H564 C580 0.959 . S
H565 C580 0.959 . S
H566 C580 0.961 . S
H567 C581 0.960 . S
H568 C581 0.961 . S
H569 C581 0.959 . S
H570 C584 0.929 . S
H571 C585 0.931 . S
H572 C587 0.930 . S
C573 H561 0.930 . S
C573 C574 1.399 . S
C573 C578 1.399 . S
C574 C573 1.399 . S
C574 C575 1.376 . S
C575 H562 0.930 . S
C575 C574 1.376 . S
C575 C576 1.388 . S
C576 H563 0.930 . S
C576 C575 1.388 . S
C576 C577 1.390 . S
C577 C576 1.390 . S
C577 C578 1.394 . S
C577 C583 1.465 . S
C578 C573 1.399 . S
C578 C577 1.394 . S
C578 C579 1.516 . S
C579 C578 1.516 . S
C579 C580 1.502 . S
C579 C581 1.561 . S
C579 C582 1.526 . S
C580 H564 0.959 . S
C580 H565 0.959 . S
C580 H566 0.961 . S
C580 C579 1.502 . S
C581 H567 0.960 . S
C581 H568 0.961 . S
C581 H569 0.959 . S
C581 C579 1.561 . S
C582 C579 1.526 . S
C582 C583 1.396 . S
C582 C587 1.390 . S
C583 C577 1.465 . S
C583 C582 1.396 . S
C583 C584 1.399 . S
C584 H570 0.929 . S
C584 C583 1.399 . S
C584 C585 1.385 . S
C585 H571 0.931 . S
C585 C584 1.385 . S
C585 C586 1.389 . S
C586 C585 1.389 . S
C586 C587 1.387 . S
C587 H572 0.930 . S
C587 C582 1.390 . S
C587 C586 1.387 . S
H588 C600 0.930 . S
H589 C602 0.930 1_655 S
H590 C603 0.930 1_655 S
H591 C607 0.959 . S
H592 C607 0.959 . S
H593 C607 0.961 . S
H594 C608 0.960 . S
H595 C608 0.961 . S
H596 C608 0.959 . S
H597 C611 0.925 1_655 S
H598 C612 0.931 1_654 S
H599 C614 0.930 . S
C600 H588 0.930 . S
C600 C601 1.399 . S
C600 C605 1.399 . S
C601 C600 1.399 . S
C601 C602 1.376 . S
C602 H589 0.930 1_455 S
C602 C601 1.376 . S
C602 C603 1.388 . S
C603 H590 0.930 1_455 S
C603 C602 1.388 . S
C603 C604 1.390 . S
C604 C603 1.390 . S
C604 C605 1.394 . S
C604 C610 1.465 . S
C605 C600 1.399 . S
C605 C604 1.394 . S
C605 C606 1.516 . S
C606 C605 1.516 . S
C606 C607 1.502 . S
C606 C608 1.561 . S
C606 C609 1.526 . S
C607 H591 0.959 . S
C607 H592 0.959 . S
C607 H593 0.961 . S
C607 C606 1.502 . S
C608 H594 0.960 . S
C608 H595 0.961 . S
C608 H596 0.959 . S
C608 C606 1.561 . S
C609 C606 1.526 . S
C609 C610 1.396 . S
C609 C614 1.390 . S
C610 C604 1.465 . S
C610 C609 1.396 . S
C610 C611 1.403 . S
C611 H597 0.925 1_455 S
C611 C610 1.403 . S
C611 C612 1.386 . S
C612 H598 0.931 1_456 S
C612 C611 1.386 . S
C612 C613 1.389 . S
C613 C612 1.389 . S
C613 C614 1.387 . S
C614 H599 0.930 . S
C614 C609 1.390 . S
C614 C613 1.387 . S
H615 C627 0.930 . S
H616 C629 0.930 . S
H617 C630 0.930 . S
H618 C634 0.959 . S
H619 C634 0.959 . S
H620 C634 0.961 . S
H621 C635 0.960 . S
H622 C635 0.961 . S
H623 C635 0.959 . S
H624 C638 0.929 . S
H625 C639 0.931 . S
H626 C641 0.930 . S
C627 H615 0.930 . S
C627 C628 1.399 . S
C627 C632 1.399 . S
C628 C627 1.399 . S
C628 C629 1.376 . S
C629 H616 0.930 . S
C629 C628 1.376 . S
C629 C630 1.388 . S
C630 H617 0.930 . S
C630 C629 1.388 . S
C630 C631 1.390 . S
C631 C630 1.390 . S
C631 C632 1.394 . S
C631 C637 1.465 . S
C632 C627 1.399 . S
C632 C631 1.394 . S
C632 C633 1.516 . S
C633 C632 1.516 . S
C633 C634 1.502 . S
C633 C635 1.561 . S
C633 C636 1.526 . S
C634 H618 0.959 . S
C634 H619 0.959 . S
C634 H620 0.961 . S
C634 C633 1.502 . S
C635 H621 0.960 . S
C635 H622 0.961 . S
C635 H623 0.959 . S
C635 C633 1.561 . S
C636 C633 1.526 . S
C636 C637 1.396 . S
C636 C641 1.390 . S
C637 C631 1.465 . S
C637 C636 1.396 . S
C637 C638 1.399 . S
C638 H624 0.929 . S
C638 C637 1.399 . S
C638 C639 1.385 . S
C639 H625 0.931 . S
C639 C638 1.385 . S
C639 C640 1.389 . S
C640 C639 1.389 . S
C640 C641 1.387 . S
C641 H626 0.930 . S
C641 C636 1.390 . S
C641 C640 1.387 . S
H642 C654 0.930 . S
H643 C656 0.930 . S
H644 C657 0.930 . S
H645 C661 0.959 . S
H646 C661 0.959 . S
H647 C661 0.961 . S
H648 C662 0.960 . S
H649 C662 0.961 . S
H650 C662 0.959 . S
H651 C665 0.929 . S
H652 C666 0.931 . S
H653 C668 0.930 . S
C654 H642 0.930 . S
C654 C655 1.399 . S
C654 C659 1.399 . S
C655 C654 1.399 . S
C655 C656 1.376 . S
C656 H643 0.930 . S
C656 C655 1.376 . S
C656 C657 1.388 . S
C657 H644 0.930 . S
C657 C656 1.388 . S
C657 C658 1.390 . S
C658 C657 1.390 . S
C658 C659 1.394 . S
C658 C664 1.465 . S
C659 C654 1.399 . S
C659 C658 1.394 . S
C659 C660 1.516 . S
C660 C659 1.516 . S
C660 C661 1.502 1_455 S
C660 C662 1.561 . S
C660 C663 1.526 . S
C661 H645 0.959 . S
C661 H646 0.959 . S
C661 H647 0.961 . S
C661 C660 1.502 1_655 S
C662 H648 0.960 . S
C662 H649 0.961 . S
C662 H650 0.959 . S
C662 C660 1.561 . S
C663 C660 1.526 . S
C663 C664 1.396 . S
C663 C668 1.390 . S
C664 C658 1.465 . S
C664 C663 1.396 . S
C664 C665 1.399 . S
C665 H651 0.929 . S
C665 C664 1.399 . S
C665 C666 1.385 . S
C666 H652 0.931 . S
C666 C665 1.385 . S
C666 C667 1.389 . S
C667 C666 1.389 . S
C667 C668 1.387 . S
C668 H653 0.930 . S
C668 C663 1.390 . S
C668 C667 1.387 . S
H669 C681 0.930 . S
H670 C683 0.930 . S
H671 C684 0.930 . S
H672 C688 0.959 . S
H673 C688 0.959 . S
H674 C688 0.961 . S
H675 C689 0.960 . S
H676 C689 0.961 . S
H677 C689 0.959 . S
H678 C692 0.929 . S
H679 C693 0.931 . S
H680 C695 0.930 . S
C681 H669 0.930 . S
C681 C682 1.399 . S
C681 C686 1.399 . S
C682 C681 1.399 . S
C682 C683 1.376 . S
C683 H670 0.930 . S
C683 C682 1.376 . S
C683 C684 1.388 . S
C684 H671 0.930 . S
C684 C683 1.388 . S
C684 C685 1.390 . S
C685 C684 1.390 . S
C685 C686 1.394 . S
C685 C691 1.465 . S
C686 C681 1.399 . S
C686 C685 1.394 . S
C686 C687 1.516 . S
C687 C686 1.516 . S
C687 C688 1.502 . S
C687 C689 1.561 . S
C687 C690 1.526 . S
C688 H672 0.959 . S
C688 H673 0.959 . S
C688 H674 0.961 . S
C688 C687 1.502 . S
C689 H675 0.960 . S
C689 H676 0.961 . S
C689 H677 0.959 . S
C689 C687 1.561 . S
C690 C687 1.526 . S
C690 C691 1.396 . S
C690 C695 1.390 . S
C691 C685 1.465 . S
C691 C690 1.396 . S
C691 C692 1.399 . S
C692 H678 0.929 . S
C692 C691 1.399 . S
C692 C693 1.385 . S
C693 H679 0.931 . S
C693 C692 1.385 . S
C693 C694 1.389 . S
C694 C693 1.389 . S
C694 C695 1.387 . S
C695 H680 0.930 . S
C695 C690 1.390 . S
C695 C694 1.387 . S
H696 C708 0.930 . S
H697 C710 0.930 . S
H698 C711 0.930 . S
H699 C715 0.959 . S
H700 C715 0.959 . S
H701 C715 0.961 . S
H702 C716 0.960 . S
H703 C716 0.961 . S
H704 C716 0.959 . S
H705 C719 0.929 . S
H706 C720 0.931 1_554 S
H707 C722 0.930 . S
C708 H696 0.930 . S
C708 C709 1.399 . S
C708 C713 1.399 . S
C709 C708 1.399 . S
C709 C710 1.376 . S
C710 H697 0.930 . S
C710 C709 1.376 . S
C710 C711 1.388 . S
C711 H698 0.930 . S
C711 C710 1.388 . S
C711 C712 1.390 . S
C712 C711 1.390 . S
C712 C713 1.394 . S
C712 C718 1.465 . S
C713 C708 1.399 . S
C713 C712 1.394 . S
C713 C714 1.516 . S
C714 C713 1.516 . S
C714 C715 1.502 . S
C714 C716 1.561 . S
C714 C717 1.526 . S
C715 H699 0.959 . S
C715 H700 0.959 . S
C715 H701 0.961 . S
C715 C714 1.502 . S
C716 H702 0.960 . S
C716 H703 0.961 . S
C716 H704 0.959 . S
C716 C714 1.561 . S
C717 C714 1.526 . S
C717 C718 1.396 . S
C717 C722 1.390 . S
C718 C712 1.465 . S
C718 C717 1.396 . S
C718 C719 1.399 . S
C719 H705 0.929 . S
C719 C718 1.399 . S
C719 C720 1.385 . S
C720 H706 0.931 1_556 S
C720 C719 1.385 . S
C720 C721 1.389 . S
C721 C720 1.389 . S
C721 C722 1.387 . S
C722 H707 0.930 . S
C722 C717 1.390 . S
C722 C721 1.387 . S
H723 C735 0.930 . S
H724 C737 0.930 . S
H725 C738 0.930 . S
H726 C742 0.959 . S
H727 C742 0.959 . S
H728 C742 0.961 . S
H729 C743 0.960 . S
H730 C743 0.961 . S
H731 C743 0.959 . S
H732 C746 0.929 . S
H733 C747 0.931 . S
H734 C749 0.930 . S
C735 H723 0.930 . S
C735 C736 1.399 . S
C735 C740 1.399 . S
C736 C735 1.399 . S
C736 C737 1.376 1_455 S
C737 H724 0.930 . S
C737 C736 1.376 1_655 S
C737 C738 1.388 . S
C738 H725 0.930 . S
C738 C737 1.388 . S
C738 C739 1.390 1_655 S
C739 C738 1.390 1_455 S
C739 C740 1.394 . S
C739 C745 1.465 . S
C740 C735 1.399 . S
C740 C739 1.394 . S
C740 C741 1.516 . S
C741 C740 1.516 . S
C741 C742 1.502 . S
C741 C743 1.561 . S
C741 C744 1.526 . S
C742 H726 0.959 . S
C742 H727 0.959 . S
C742 H728 0.961 . S
C742 C741 1.502 . S
C743 H729 0.960 . S
C743 H730 0.961 . S
C743 H731 0.959 . S
C743 C741 1.561 . S
C744 C741 1.526 . S
C744 C745 1.396 . S
C744 C749 1.390 . S
C745 C739 1.465 . S
C745 C744 1.396 . S
C745 C746 1.399 1_455 S
C746 H732 0.929 . S
C746 C745 1.399 1_655 S
C746 C747 1.385 . S
C747 H733 0.931 . S
C747 C746 1.385 . S
C747 C748 1.389 1_655 S
C748 C747 1.389 1_455 S
C748 C749 1.387 . S
C749 H734 0.930 . S
C749 C744 1.390 . S
C749 C748 1.387 . S
H750 C762 0.930 . S
H751 C764 0.930 1_556 S
H752 C765 0.930 . S
H753 C769 0.959 . S
H754 C769 0.959 . S
H755 C769 0.961 . S
H756 C770 0.960 . S
H757 C770 0.961 . S
H758 C770 0.959 . S
H759 C773 0.929 . S
H760 C774 0.931 . S
H761 C776 0.930 . S
C762 H750 0.930 . S
C762 C763 1.399 . S
C762 C767 1.399 . S
C763 C762 1.399 . S
C763 C764 1.376 . S
C764 H751 0.930 1_554 S
C764 C763 1.376 . S
C764 C765 1.388 . S
C765 H752 0.930 . S
C765 C764 1.388 . S
C765 C766 1.390 . S
C766 C765 1.390 . S
C766 C767 1.394 . S
C766 C772 1.465 . S
C767 C762 1.399 . S
C767 C766 1.394 . S
C767 C768 1.516 . S
C768 C767 1.516 . S
C768 C769 1.502 . S
C768 C770 1.561 . S
C768 C771 1.526 . S
C769 H753 0.959 . S
C769 H754 0.959 . S
C769 H755 0.961 . S
C769 C768 1.502 . S
C770 H756 0.960 . S
C770 H757 0.961 . S
C770 H758 0.959 . S
C770 C768 1.561 . S
C771 C768 1.526 . S
C771 C772 1.396 . S
C771 C776 1.390 . S
C772 C766 1.465 . S
C772 C771 1.396 . S
C772 C773 1.399 . S
C773 H759 0.929 . S
C773 C772 1.399 . S
C773 C774 1.385 . S
C774 H760 0.931 . S
C774 C773 1.385 . S
C774 C775 1.389 . S
C775 C774 1.389 . S
C775 C776 1.387 . S
C776 H761 0.930 . S
C776 C771 1.390 . S
C776 C775 1.387 . S
H777 C789 0.930 . S
H778 C791 0.930 . S
H779 C792 0.930 . S
H780 C796 0.959 . S
H781 C796 0.959 . S
H782 C796 0.961 . S
H783 C797 0.960 . S
H784 C797 0.961 . S
H785 C797 0.959 . S
H786 C800 0.929 . S
H787 C801 0.931 . S
H788 C803 0.930 . S
C789 H777 0.930 . S
C789 C790 1.399 . S
C789 C794 1.399 . S
C790 C789 1.399 . S
C790 C791 1.376 . S
C791 H778 0.930 . S
C791 C790 1.376 . S
C791 C792 1.388 . S
C792 H779 0.930 . S
C792 C791 1.388 . S
C792 C793 1.390 . S
C793 C792 1.390 . S
C793 C794 1.394 . S
C793 C799 1.465 . S
C794 C789 1.399 . S
C794 C793 1.394 . S
C794 C795 1.516 . S
C795 C794 1.516 . S
C795 C796 1.502 1_455 S
C795 C797 1.561 . S
C795 C798 1.526 . S
C796 H780 0.959 . S
C796 H781 0.959 . S
C796 H782 0.961 . S
C796 C795 1.502 1_655 S
C797 H783 0.960 . S
C797 H784 0.961 . S
C797 H785 0.959 . S
C797 C795 1.561 . S
C798 C795 1.526 . S
C798 C799 1.396 . S
C798 C803 1.390 . S
C799 C793 1.465 . S
C799 C798 1.396 . S
C799 C800 1.399 . S
C800 H786 0.929 . S
C800 C799 1.399 . S
C800 C801 1.385 . S
C801 H787 0.931 . S
C801 C800 1.385 . S
C801 C802 1.389 . S
C802 C801 1.389 . S
C802 C803 1.387 . S
C803 H788 0.930 . S
C803 C798 1.390 . S
C803 C802 1.387 . S
C277 N71 1.422 1_655 S
C289 N5 1.377 1_655 S
C304 N104 1.422 . S
C316 N38 1.375 . S
C331 N137 1.333 . S
C343 N203 1.385 . S
C358 N170 1.421 . S
C370 N236 1.386 . S
C385 C107 1.579 . S
C397 C8 1.567 . S
C412 C41 1.530 . S
C424 C74 1.548 . S
C439 C94 1.114 . S
C451 C61 1.111 . S
C466 C127 1.036 . S
C478 C28 1.039 . S
C493 C239 1.530 . S
C505 C140 1.548 . S
C520 C173 1.569 . S
C532 C206 1.541 . S
C547 C226 1.040 . S
C559 C193 1.047 . S
C574 C259 1.047 . S
C586 C160 1.056 . S
C601 N179 1.550 . S
C613 C17 1.597 1_556 S
C628 C50 1.593 . S
C640 N146 1.535 . S
C655 C83 1.591 1_554 S
C667 N245 1.544 . S
C682 N212 1.531 . S
C694 C116 1.599 . S
C709 N47 1.529 . S
C721 C149 1.599 1_556 S
C736 C182 1.597 . S
C748 N14 1.521 . S
C763 C215 1.594 1_554 S
C775 N113 1.569 . S
C790 C248 1.596 . S
C802 N80 1.558 . S
