# Generated by pormake.
# Topology sra, (4)-cn, num edge types: 1
# Building blocks:
#     Node 0, Type 0, BuildingBlock: CEKHIL_clean_sbu_0, # of connection points: 4
#     Node 1, Type 0, BuildingBlock: CEKHIL_clean_sbu_0, # of connection points: 4
#     Node 2, Type 0, BuildingBlock: CEKHIL_clean_sbu_0, # of connection points: 4
#     Node 3, Type 0, BuildingBlock: CEKHIL_clean_sbu_0, # of connection points: 4
#     Node 4, Type 0, BuildingBlock: CEKHIL_clean_sbu_0, # of connection points: 4
#     Node 5, Type 0, BuildingBlock: CEKHIL_clean_sbu_0, # of connection points: 4
#     Node 6, Type 0, BuildingBlock: CEKHIL_clean_sbu_0, # of connection points: 4
#     Node 7, Type 0, BuildingBlock: CEKHIL_clean_sbu_0, # of connection points: 4
#     Edge 8, Type (0, 0), BuildingBlock: KIFKEQ_clean_linker_1, # of connection points: 2
#     Edge 9, Type (0, 0), BuildingBlock: KIFKEQ_clean_linker_1, # of connection points: 2
#     Edge 10, Type (0, 0), BuildingBlock: KIFKEQ_clean_linker_1, # of connection points: 2
#     Edge 11, Type (0, 0), BuildingBlock: KIFKEQ_clean_linker_1, # of connection points: 2
#     Edge 12, Type (0, 0), BuildingBlock: KIFKEQ_clean_linker_1, # of connection points: 2
#     Edge 13, Type (0, 0), BuildingBlock: KIFKEQ_clean_linker_1, # of connection points: 2
#     Edge 14, Type (0, 0), BuildingBlock: KIFKEQ_clean_linker_1, # of connection points: 2
#     Edge 15, Type (0, 0), BuildingBlock: KIFKEQ_clean_linker_1, # of connection points: 2
#     Edge 16, Type (0, 0), BuildingBlock: KIFKEQ_clean_linker_1, # of connection points: 2
#     Edge 17, Type (0, 0), BuildingBlock: KIFKEQ_clean_linker_1, # of connection points: 2
#     Edge 18, Type (0, 0), BuildingBlock: KIFKEQ_clean_linker_1, # of connection points: 2
#     Edge 19, Type (0, 0), BuildingBlock: KIFKEQ_clean_linker_1, # of connection points: 2
#     Edge 20, Type (0, 0), BuildingBlock: KIFKEQ_clean_linker_1, # of connection points: 2
#     Edge 21, Type (0, 0), BuildingBlock: KIFKEQ_clean_linker_1, # of connection points: 2
#     Edge 22, Type (0, 0), BuildingBlock: KIFKEQ_clean_linker_1, # of connection points: 2
#     Edge 23, Type (0, 0), BuildingBlock: KIFKEQ_clean_linker_1, # of connection points: 2
# Relax obj value: 0.033
# Max RMSD: 0.069
# Mean RMSD: 0.069
data_MOF--net-sra--node1-CEKHIL_clean_sbu_0--edge1-KIFKEQ_clean_linker_1
_symmetry_space_group_name_H-M    P1
_symmetry_Int_Tables_number       1
_symmetry_cell_setting            triclinic
loop_
_symmetry_equiv_pos_as_xyz
'x, y, z'
_cell_length_a     27.524993
_cell_length_b     53.340328
_cell_length_c     31.760913
_cell_angle_alpha  89.950996
_cell_angle_beta   90.005149
_cell_angle_gamma 90.001587
loop_
_atom_site_label
_atom_site_type_symbol
_atom_site_fract_x
_atom_site_fract_y
_atom_site_fract_z
_atom_type_partial_charge
Co0 Co 0.02329 0.11065 0.15329 0.0
O1 O 0.02834 0.07554 0.1402 0.0
O2 O -0.00093 0.10401 0.09659 0.0
C3 C 0.09887 0.11431 0.18059 0.0
O4 O 0.01441 0.14889 0.1563 0.0
Co5 Co 0.0304 0.12677 0.24751 0.0
O6 O 0.03005 0.16095 0.223 0.0
C7 C 0.94103 0.10293 0.2163 0.0
C8 C 0.01007 0.08061 0.1036 0.0
C9 C 0.01971 0.166 0.18474 0.0
O10 O 0.95637 0.10507 0.1781 0.0
O11 O 0.96724 0.10807 0.24845 0.0
O12 O 0.09234 0.11558 0.14011 0.0
O13 O 0.0608 0.10869 0.20217 0.0
Co14 Co 0.00357 0.40712 0.15414 0.0
O15 O 0.00799 0.44276 0.14415 0.0
O16 O 0.02868 0.41368 0.09795 0.0
C17 C 0.92792 0.40809 0.18144 0.0
O18 O 0.00238 0.36855 0.15279 0.0
Co19 Co 0.98936 0.38611 0.24494 0.0
O20 O 0.97026 0.35535 0.21409 0.0
C21 C 0.08574 0.40498 0.218 0.0
C22 C 0.02381 0.43738 0.1068 0.0
C23 C 0.98409 0.35125 0.17642 0.0
O24 O 0.07093 0.40729 0.17963 0.0
O25 O 0.05784 0.3986 0.24846 0.0
O26 O 0.934 0.40763 0.14087 0.0
O27 O 0.96704 0.40979 0.20347 0.0
Co28 Co 0.02257 0.90663 0.84729 0.0
O29 O 0.02459 0.94256 0.85471 0.0
O30 O 0.99648 0.91588 0.90199 0.0
C31 C 0.09887 0.9031 0.82203 0.0
O32 O 0.01651 0.86825 0.85151 0.0
Co33 Co 0.03451 0.88235 0.75876 0.0
O34 O 0.0474 0.85163 0.79214 0.0
C35 C 0.94131 0.90625 0.78222 0.0
C36 C 0.00619 0.93899 0.89183 0.0
C37 C 0.03189 0.84941 0.82974 0.0
O38 O 0.95628 0.90928 0.82034 0.0
O39 O 0.96814 0.89747 0.75275 0.0
O40 O 0.09147 0.9044 0.86238 0.0
O41 O 0.06093 0.90591 0.79872 0.0
Co42 Co 0.0051 0.60969 0.84817 0.0
O43 O 0.00803 0.57404 0.85854 0.0
O44 O 0.0297 0.60309 0.90448 0.0
C45 C 0.92959 0.60954 0.82055 0.0
O46 O 0.00572 0.64821 0.84926 0.0
Co47 Co 0.9924 0.63091 0.75744 0.0
O48 O 0.97649 0.66244 0.78754 0.0
C49 C 0.0875 0.61045 0.78464 0.0
C50 C 0.02403 0.57941 0.89586 0.0
C51 C 0.98992 0.66608 0.82545 0.0
O52 O 0.07253 0.60872 0.82303 0.0
O53 O 0.05992 0.61696 0.75403 0.0
O54 O 0.93549 0.61002 0.86115 0.0
O55 O 0.96872 0.60736 0.79865 0.0
Co56 Co 0.52571 0.61117 0.65304 0.0
O57 O 0.52357 0.5754 0.64451 0.0
O58 O 0.49978 0.60332 0.5975 0.0
C59 C 0.60175 0.61151 0.6797 0.0
O60 O 0.52474 0.64975 0.6502 0.0
Co61 Co 0.53975 0.6335 0.74287 0.0
O62 O 0.55756 0.66395 0.71055 0.0
C63 C 0.44401 0.61316 0.71746 0.0
C64 C 0.50657 0.57985 0.6072 0.0
C65 C 0.54292 0.66749 0.67295 0.0
O66 O 0.45872 0.61033 0.67918 0.0
O67 O 0.47175 0.62044 0.74744 0.0
O68 O 0.59521 0.61148 0.63916 0.0
O69 O 0.56293 0.60966 0.70207 0.0
Co70 Co 0.50263 0.90818 0.65676 0.0
O71 O 0.49878 0.94369 0.64588 0.0
O72 O 0.52774 0.91596 0.60085 0.0
C73 C 0.42672 0.90436 0.68304 0.0
O74 O 0.51049 0.86977 0.65717 0.0
Co75 Co 0.49349 0.88936 0.74968 0.0
O76 O 0.49329 0.85595 0.72267 0.0
C77 C 0.58477 0.91266 0.7209 0.0
C78 C 0.5172 0.93926 0.60909 0.0
C79 C 0.50438 0.85192 0.68426 0.0
O80 O 0.56934 0.91259 0.68255 0.0
O81 O 0.55821 0.90639 0.75228 0.0
O82 O 0.43361 0.90436 0.64256 0.0
O83 O 0.46464 0.909 0.70543 0.0
Co84 Co 0.5245 0.40705 0.34961 0.0
O85 O 0.52228 0.44272 0.35901 0.0
O86 O 0.49888 0.41441 0.40551 0.0
C87 C 0.6004 0.40702 0.32272 0.0
O88 O 0.52379 0.36845 0.35125 0.0
Co89 Co 0.53808 0.38597 0.25881 0.0
O90 O 0.55584 0.35509 0.29001 0.0
C91 C 0.44256 0.40601 0.28534 0.0
C92 C 0.50558 0.43797 0.39631 0.0
C93 C 0.54169 0.35103 0.32762 0.0
O94 O 0.45735 0.40805 0.32375 0.0
O95 O 0.47031 0.3994 0.25494 0.0
O96 O 0.59406 0.40666 0.36327 0.0
O97 O 0.56149 0.40914 0.30055 0.0
Co98 Co 0.50362 0.11024 0.34548 0.0
O99 O 0.4988 0.075 0.35795 0.0
O100 O 0.52766 0.10324 0.40211 0.0
C101 C 0.42813 0.11396 0.31803 0.0
O102 O 0.51215 0.14854 0.34325 0.0
Co103 Co 0.49678 0.12716 0.25163 0.0
O104 O 0.49645 0.16115 0.27683 0.0
C105 C 0.58609 0.1031 0.28255 0.0
C106 C 0.51685 0.07986 0.3947 0.0
C107 C 0.50662 0.16589 0.31521 0.0
O108 O 0.57067 0.10497 0.32076 0.0
O109 O 0.55994 0.10847 0.25045 0.0
O110 O 0.4345 0.11492 0.35855 0.0
O111 O 0.46632 0.10858 0.29644 0.0
H112 H 0.91294 0.31759 0.19206 0.0
H113 H 0.05126 0.32512 0.12942 0.0
H114 H 0.91718 0.27224 0.18438 0.0
H115 H 0.0561 0.27923 0.12248 0.0
H116 H 0.0303 0.19114 0.10859 0.0
H117 H 0.01737 0.23634 0.09561 0.0
H118 H 0.97564 0.24591 0.22561 0.0
H119 H 0.9885 0.20175 0.23845 0.0
C120 C 0.9438 0.30954 0.17576 0.0
C121 C 0.98206 0.32486 0.16186 0.0
C122 C 0.9463 0.28354 0.17145 0.0
C123 C 0.98746 0.27211 0.15365 0.0
C124 C 0.0239 0.2875 0.1363 0.0
C125 C 0.02115 0.31375 0.14027 0.0
C126 C 0.01804 0.20299 0.13415 0.0
C127 C 0.01061 0.19283 0.17459 0.0
C128 C 0.01088 0.22881 0.12678 0.0
C129 C 0.995 0.24465 0.15949 0.0
C130 C 0.98711 0.23424 0.19953 0.0
C131 C 0.99494 0.20885 0.20697 0.0
H132 H 0.09974 0.81262 0.82732 0.0
H133 H 0.95266 0.82769 0.86661 0.0
H134 H 0.08696 0.76781 0.83905 0.0
H135 H 0.93927 0.78258 0.87728 0.0
H136 H 0.92859 0.70389 0.80363 0.0
H137 H 0.93782 0.74856 0.81809 0.0
H138 H 0.06436 0.73296 0.89392 0.0
H139 H 0.05452 0.68794 0.88009 0.0
C140 C 0.06509 0.80635 0.83962 0.0
C141 C 0.02725 0.82358 0.84623 0.0
C142 C 0.05778 0.78071 0.84642 0.0
C143 C 0.01206 0.77167 0.85893 0.0
C144 C 0.97489 0.78904 0.86765 0.0
C145 C 0.98261 0.81483 0.86184 0.0
C146 C 0.95771 0.70991 0.82423 0.0
C147 C 0.99097 0.6924 0.84055 0.0
C148 C 0.96281 0.7355 0.83272 0.0
C149 C 0.00186 0.74427 0.85708 0.0
C150 C 0.03393 0.7267 0.87501 0.0
C151 C 0.02818 0.70096 0.86726 0.0
H152 H 0.61513 0.70111 0.68386 0.0
H153 H 0.47262 0.6933 0.62891 0.0
H154 H 0.61016 0.74645 0.67602 0.0
H155 H 0.46707 0.73918 0.62185 0.0
H156 H 0.49051 0.82756 0.60775 0.0
H157 H 0.50382 0.78254 0.59314 0.0
H158 H 0.55381 0.77217 0.7208 0.0
H159 H 0.54049 0.81611 0.73522 0.0
C160 C 0.58319 0.7091 0.66908 0.0
C161 C 0.54405 0.69371 0.65747 0.0
C162 C 0.58027 0.73509 0.66468 0.0
C163 C 0.53782 0.74644 0.64913 0.0
C164 C 0.50028 0.73097 0.63387 0.0
C165 C 0.50345 0.70473 0.6379 0.0
C166 C 0.50471 0.81558 0.63238 0.0
C167 C 0.51422 0.8254 0.67269 0.0
C168 C 0.51209 0.78986 0.62411 0.0
C169 C 0.53031 0.77385 0.65572 0.0
C170 C 0.54047 0.78397 0.69553 0.0
C171 C 0.5324 0.80923 0.7039 0.0
H172 H 0.61305 0.31745 0.31292 0.0
H173 H 0.47337 0.32472 0.37331 0.0
H174 H 0.60832 0.27204 0.31955 0.0
H175 H 0.46818 0.27876 0.37935 0.0
H176 H 0.49596 0.19018 0.39209 0.0
H177 H 0.50816 0.2353 0.40628 0.0
H178 H 0.5488 0.24652 0.2764 0.0
H179 H 0.53656 0.20244 0.26231 0.0
C180 C 0.58181 0.30932 0.32859 0.0
C181 C 0.54331 0.3246 0.3421 0.0
C182 C 0.57905 0.2833 0.3323 0.0
C183 C 0.53745 0.2718 0.34919 0.0
C184 C 0.50072 0.2871 0.36625 0.0
C185 C 0.50369 0.31339 0.36282 0.0
C186 C 0.50777 0.20237 0.3668 0.0
C187 C 0.51514 0.19268 0.32604 0.0
C188 C 0.51451 0.22814 0.37486 0.0
C189 C 0.5299 0.24441 0.34254 0.0
C190 C 0.53764 0.2345 0.30216 0.0
C191 C 0.53021 0.20915 0.29402 0.0
H192 H 0.34379 0.13069 0.35405 0.0
H193 H 0.40484 0.10589 0.23599 0.0
H194 H 0.26429 0.13484 0.32061 0.0
H195 H 0.32546 0.10891 0.20303 0.0
H196 H 0.18325 0.13108 0.14458 0.0
H197 H 0.26282 0.13504 0.17798 0.0
H198 H 0.20165 0.10881 0.29545 0.0
H199 H 0.12224 0.10597 0.26254 0.0
C200 C 0.34018 0.12613 0.32096 0.0
C201 C 0.38043 0.11784 0.29771 0.0
C202 C 0.29458 0.12836 0.3018 0.0
C203 C 0.28817 0.12206 0.25907 0.0
C204 C 0.32892 0.11432 0.23573 0.0
C205 C 0.37449 0.11238 0.25476 0.0
C206 C 0.18688 0.12642 0.17763 0.0
C207 C 0.14662 0.1181 0.20087 0.0
C208 C 0.23251 0.12854 0.19677 0.0
C209 C 0.23894 0.1221 0.23946 0.0
C210 C 0.19819 0.11433 0.26278 0.0
C211 C 0.15259 0.11249 0.24378 0.0
H212 H 0.68656 0.39224 0.35823 0.0
H213 H 0.62227 0.41671 0.2412 0.0
H214 H 0.7657 0.38934 0.32367 0.0
H215 H 0.70107 0.4151 0.20724 0.0
H216 H 0.84193 0.39317 0.14605 0.0
H217 H 0.76304 0.38964 0.18074 0.0
H218 H 0.82742 0.41521 0.29732 0.0
H219 H 0.90615 0.41745 0.26315 0.0
C220 C 0.68946 0.39711 0.32521 0.0
C221 C 0.6484 0.40477 0.30245 0.0
C222 C 0.73479 0.39558 0.30538 0.0
C223 C 0.74001 0.40206 0.26256 0.0
C224 C 0.69854 0.40948 0.23993 0.0
C225 C 0.6533 0.41064 0.25955 0.0
C226 C 0.83905 0.3979 0.17912 0.0
C227 C 0.88002 0.40569 0.20184 0.0
C228 C 0.79385 0.396 0.19903 0.0
C229 C 0.78861 0.40224 0.24192 0.0
C230 C 0.82998 0.40979 0.26455 0.0
C231 C 0.87515 0.41132 0.24482 0.0
H232 H 0.1872 0.91214 0.85785 0.0
H233 H 0.1196 0.88522 0.74394 0.0
H234 H 0.2665 0.90999 0.82397 0.0
H235 H 0.1988 0.88152 0.71071 0.0
H236 H 0.33748 0.90931 0.64671 0.0
H237 H 0.25864 0.90653 0.68116 0.0
H238 H 0.32944 0.88565 0.79769 0.0
H239 H 0.4081 0.88996 0.76362 0.0
C240 C 0.1895 0.90525 0.82584 0.0
C241 C 0.14731 0.89907 0.80341 0.0
C242 C 0.23501 0.90385 0.80637 0.0
C243 C 0.23934 0.89575 0.76428 0.0
C244 C 0.19701 0.88847 0.74268 0.0
C245 C 0.15153 0.89038 0.76186 0.0
C246 C 0.336 0.90395 0.67959 0.0
C247 C 0.37883 0.90005 0.70257 0.0
C248 C 0.29076 0.90218 0.69941 0.0
C249 C 0.28735 0.89599 0.74249 0.0
C250 C 0.33044 0.89107 0.76485 0.0
C251 C 0.37562 0.89333 0.74523 0.0
H252 H 0.62359 0.6031 0.76164 0.0
H253 H 0.68833 0.62488 0.64331 0.0
H254 H 0.70255 0.60449 0.79531 0.0
H255 H 0.76771 0.62756 0.67753 0.0
H256 H 0.84427 0.62589 0.85526 0.0
H257 H 0.76549 0.62969 0.82049 0.0
H258 H 0.82868 0.60166 0.70503 0.0
H259 H 0.9074 0.59919 0.73924 0.0
C260 C 0.65476 0.60855 0.74292 0.0
C261 C 0.6499 0.61372 0.69976 0.0
C262 C 0.70012 0.60957 0.76237 0.0
C263 C 0.74178 0.61618 0.7393 0.0
C264 C 0.73663 0.62197 0.69619 0.0
C265 C 0.69117 0.62057 0.67655 0.0
C266 C 0.84116 0.62069 0.82241 0.0
C267 C 0.8818 0.61215 0.80001 0.0
C268 C 0.79601 0.62274 0.80245 0.0
C269 C 0.79045 0.61587 0.75986 0.0
C270 C 0.83151 0.60757 0.73753 0.0
C271 C 0.87666 0.60592 0.75729 0.0
H272 H 0.65641 0.92558 0.66446 0.0
H273 H 0.63116 0.91194 0.79691 0.0
H274 H 0.7433 0.92933 0.67834 0.0
H275 H 0.71744 0.91471 0.81034 0.0
H276 H 0.87452 0.93173 0.83014 0.0
H277 H 0.78907 0.93916 0.81395 0.0
H278 H 0.8067 0.90079 0.69509 0.0
H279 H 0.89193 0.89422 0.71047 0.0
C280 C 0.66922 0.9236 0.69654 0.0
C281 C 0.6367 0.91816 0.72942 0.0
C282 C 0.7191 0.92559 0.70448 0.0
C283 C 0.73756 0.92204 0.74542 0.0
C284 C 0.7047 0.91785 0.77851 0.0
C285 C 0.65499 0.91604 0.77066 0.0
C286 C 0.86021 0.9251 0.8004 0.0
C287 C 0.89008 0.91221 0.7718 0.0
C288 C 0.81117 0.9293 0.79113 0.0
C289 C 0.7908 0.92048 0.75326 0.0
C290 C 0.82113 0.90824 0.72422 0.0
C291 C 0.87011 0.90426 0.73328 0.0
H292 H 0.39667 0.62585 0.78976 0.0
H293 H 0.37393 0.59044 0.66893 0.0
H294 H 0.31134 0.62105 0.80611 0.0
H295 H 0.28809 0.58485 0.68608 0.0
H296 H 0.13223 0.61386 0.7081 0.0
H297 H 0.21806 0.61076 0.69262 0.0
H298 H 0.24717 0.59282 0.82294 0.0
H299 H 0.1608 0.59678 0.83894 0.0
C300 C 0.37361 0.61667 0.76684 0.0
C301 C 0.39222 0.6087 0.72781 0.0
C302 C 0.32454 0.61372 0.77646 0.0
C303 C 0.2927 0.60253 0.7475 0.0
C304 C 0.31149 0.59387 0.70889 0.0
C305 C 0.3607 0.59702 0.69907 0.0
C306 C 0.1567 0.60907 0.73357 0.0
C307 C 0.13949 0.60593 0.77498 0.0
C308 C 0.2061 0.60705 0.7245 0.0
C309 C 0.2397 0.60168 0.75652 0.0
C310 C 0.22235 0.59743 0.79763 0.0
C311 C 0.17279 0.59958 0.8068 0.0
H312 H 0.62557 0.08364 0.21088 0.0
H313 H 0.66314 0.1082 0.33626 0.0
H314 H 0.71125 0.07812 0.19445 0.0
H315 H 0.74894 0.10378 0.31938 0.0
H316 H 0.90144 0.08331 0.28787 0.0
H317 H 0.81572 0.07789 0.30428 0.0
H318 H 0.7782 0.10392 0.17945 0.0
H319 H 0.86401 0.10824 0.16259 0.0
C320 C 0.65219 0.08772 0.23505 0.0
C321 C 0.63758 0.09654 0.27479 0.0
C322 C 0.70139 0.08473 0.22552 0.0
C323 C 0.7373 0.09082 0.2553 0.0
C324 C 0.72249 0.09858 0.29572 0.0
C325 C 0.67319 0.10123 0.30544 0.0
C326 C 0.87485 0.08748 0.26371 0.0
C327 C 0.88951 0.09638 0.22401 0.0
C328 C 0.82562 0.08456 0.27324 0.0
C329 C 0.78976 0.09078 0.24349 0.0
C330 C 0.80461 0.09862 0.20309 0.0
C331 C 0.85393 0.1012 0.19338 0.0
H332 H 0.13225 0.39432 0.29168 0.0
H333 H 0.15719 0.42478 0.16731 0.0
H334 H 0.21777 0.39843 0.30775 0.0
H335 H 0.24327 0.42969 0.1841 0.0
H336 H 0.39746 0.3997 0.20954 0.0
H337 H 0.31177 0.40304 0.19369 0.0
H338 H 0.28344 0.42629 0.32169 0.0
H339 H 0.36969 0.4221 0.33816 0.0
C340 C 0.15585 0.40225 0.26786 0.0
C341 C 0.13776 0.40903 0.22799 0.0
C342 C 0.20504 0.40482 0.27731 0.0
C343 C 0.23754 0.41442 0.2473 0.0
C344 C 0.21933 0.42189 0.20777 0.0
C345 C 0.16997 0.41914 0.19815 0.0
C346 C 0.3732 0.40572 0.2344 0.0
C347 C 0.39059 0.41035 0.27536 0.0
C348 C 0.32389 0.40786 0.2251 0.0
C349 C 0.29055 0.41485 0.25639 0.0
C350 C 0.30806 0.42045 0.29699 0.0
C351 C 0.35754 0.41815 0.30642 0.0
H352 H 0.02789 0.03086 0.11397 0.0
H353 H 0.97785 0.08435 0.02151 0.0
H354 H 0.02174 0.99744 0.06252 0.0
H355 H 0.97066 0.05049 0.96968 0.0
H356 H 0.97132 0.93761 0.97277 0.0
H357 H 0.96614 0.9722 0.02292 0.0
H358 H 0.02211 0.02294 0.92858 0.0
H359 H 0.02618 0.98853 0.87833 0.0
C360 C 0.01507 0.03549 0.08267 0.0
C361 C 0.00349 0.06037 0.07189 0.0
C362 C 0.01116 0.01619 0.05314 0.0
C363 C 0.9955 0.02112 0.01183 0.0
C364 C 0.98328 0.046 1.00108 0.0
C365 C 0.98714 0.06541 0.03082 0.0
C366 C 0.98202 0.9562 0.96263 0.0
C367 C -0.00061 0.96023 0.92158 0.0
C368 C 0.97935 0.97605 0.99146 0.0
C369 C 0.99405 1.00044 0.98002 0.0
C370 C 0.00997 1.00455 0.9385 0.0
C371 C 0.01261 0.98472 0.9097 0.0
H372 H 0.01309 0.58196 0.98123 0.0
H373 H 0.053 0.53143 0.88123 0.0
H374 H 0.01695 0.54762 0.03161 0.0
H375 H 0.06092 0.49733 0.93167 0.0
H376 H 0.01558 0.43472 0.02117 0.0
H377 H 0.01947 0.4691 0.9709 0.0
H378 H 0.05849 0.51984 0.07173 0.0
H379 H 0.05066 0.48565 0.12197 0.0
C380 C 0.02396 0.56357 0.97026 0.0
C381 C 0.03254 0.55935 0.92732 0.0
C382 C 0.02651 0.54374 0.99923 0.0
C383 C 0.03904 0.51926 0.98618 0.0
C384 C 0.04974 0.51551 0.94322 0.0
C385 C 0.04579 0.53518 0.91416 0.0
C386 C 0.02541 0.45322 0.03237 0.0
C387 C 0.03263 0.45751 0.07548 0.0
C388 C 0.02796 0.47307 0.00347 0.0
C389 C 0.03908 0.49769 0.01677 0.0
C390 C 0.04844 0.50154 0.05994 0.0
C391 C 0.04456 0.48182 0.0889 0.0
H392 H 0.47312 0.43501 0.47824 0.0
H393 H 0.5207 0.48788 0.38386 0.0
H394 H 0.46594 0.46921 0.52919 0.0
H395 H 0.51508 0.52171 0.43465 0.0
H396 H 0.47177 0.58232 0.52605 0.0
H397 H 0.46401 0.54798 0.47553 0.0
H398 H 0.51712 0.49601 0.56931 0.0
H399 H 0.52331 0.53004 0.61979 0.0
C400 C 0.4818 0.45391 0.4683 0.0
C401 C 0.4976 0.45863 0.42698 0.0
C402 C 0.47802 0.47354 0.49758 0.0
C403 C 0.49009 0.49836 0.48626 0.0
C404 C 0.50471 0.50303 0.44456 0.0
C405 C 0.5083 0.48349 0.41539 0.0
C406 C 0.48123 0.56351 0.53594 0.0
C407 C 0.49832 0.559 0.57694 0.0
C408 C 0.47711 0.54379 0.5069 0.0
C409 C 0.49017 0.51909 0.51809 0.0
C410 C 0.50602 0.5146 0.55952 0.0
C411 C 0.50993 0.53424 0.5885 0.0
H412 H 0.55126 0.93659 0.52771 0.0
H413 H 0.49768 0.98889 0.6204 0.0
H414 H 0.55736 0.97071 0.47641 0.0
H415 H 0.50265 0.0227 0.56922 0.0
H416 H 0.49864 0.03012 0.38403 0.0
H417 H 0.50384 0.9966 0.43559 0.0
H418 H 0.55532 0.04938 0.52855 0.0
H419 H 0.54903 0.08327 0.47673 0.0
C420 C 0.54098 0.95535 0.5372 0.0
C421 C 0.52382 0.95993 0.57813 0.0
C422 C 0.5442 0.97492 0.50774 0.0
C423 C 0.53034 0.99956 0.5185 0.0
C424 C 0.5143 1.00414 0.55981 0.0
C425 C 0.5111 0.98463 0.58916 0.0
C426 C 0.51136 0.03464 0.41539 0.0
C427 C 0.52321 0.05948 0.42625 0.0
C428 C 0.51472 0.01529 0.44497 0.0
C429 C 0.53006 0.02013 0.48639 0.0
C430 C 0.54282 0.04494 0.4971 0.0
C431 C 0.53948 0.06439 0.46736 0.0
loop_
_geom_bond_atom_site_label_1
_geom_bond_atom_site_label_2
_geom_bond_distance
_geom_bond_site_symmetry_2
_ccdc_geom_bond_type
Co0 O1 2.216 . S
Co0 O2 2.091 . S
Co0 O4 2.004 . S
Co0 O10 2.021 1_455 S
Co0 O12 2.137 . S
Co0 O13 2.244 . S
O1 Co0 2.216 . S
O1 C8 1.247 . S
O2 Co0 2.091 . S
O2 C8 1.261 . S
C3 O12 1.247 . S
C3 O13 1.272 . S
O4 Co0 2.004 . S
O4 C9 1.259 . S
Co5 O6 2.061 . S
Co5 O11 2.052 1_455 S
Co5 O13 2.135 . S
O6 Co5 2.061 . S
O6 C9 1.235 . S
C7 O10 1.238 . S
C7 O11 1.241 . S
C8 O1 1.247 . S
C8 O2 1.261 . S
C9 O4 1.259 . S
C9 O6 1.235 . S
O10 Co0 2.021 1_655 S
O10 C7 1.238 . S
O11 Co5 2.052 1_655 S
O11 C7 1.241 . S
O12 Co0 2.137 . S
O12 C3 1.247 . S
O13 Co0 2.244 . S
O13 C3 1.272 . S
O13 Co5 2.135 . S
Co14 O15 2.216 . S
Co14 O16 2.091 . S
Co14 O18 2.004 . S
Co14 O24 2.021 . S
Co14 O26 2.137 1_455 S
Co14 O27 2.244 1_455 S
O15 Co14 2.216 . S
O15 C22 1.247 . S
O16 Co14 2.091 . S
O16 C22 1.261 . S
C17 O26 1.247 . S
C17 O27 1.272 . S
O18 Co14 2.004 . S
O18 C23 1.259 . S
Co19 O20 2.061 . S
Co19 O25 2.052 . S
Co19 O27 2.135 1_455 S
O20 Co19 2.061 . S
O20 C23 1.235 . S
C21 O24 1.238 . S
C21 O25 1.241 . S
C22 O15 1.247 . S
C22 O16 1.261 . S
C23 O18 1.259 . S
C23 O20 1.235 . S
O24 Co14 2.021 . S
O24 C21 1.238 . S
O25 Co19 2.052 . S
O25 C21 1.241 . S
O26 Co14 2.137 1_655 S
O26 C17 1.247 . S
O27 Co14 2.244 1_655 S
O27 C17 1.272 . S
O27 Co19 2.135 1_655 S
Co28 O29 2.216 . S
Co28 O30 2.091 . S
Co28 O32 2.004 . S
Co28 O38 2.021 1_455 S
Co28 O40 2.137 . S
Co28 O41 2.244 . S
O29 Co28 2.216 . S
O29 C36 1.247 . S
O30 Co28 2.091 . S
O30 C36 1.261 . S
C31 O40 1.247 . S
C31 O41 1.272 . S
O32 Co28 2.004 . S
O32 C37 1.259 . S
Co33 O34 2.061 . S
Co33 O39 2.052 1_455 S
Co33 O41 2.135 . S
O34 Co33 2.061 . S
O34 C37 1.235 . S
C35 O38 1.238 . S
C35 O39 1.241 . S
C36 O29 1.247 . S
C36 O30 1.261 . S
C37 O32 1.259 . S
C37 O34 1.235 . S
O38 Co28 2.021 1_655 S
O38 C35 1.238 . S
O39 Co33 2.052 1_655 S
O39 C35 1.241 . S
O40 Co28 2.137 . S
O40 C31 1.247 . S
O41 Co28 2.244 . S
O41 C31 1.272 . S
O41 Co33 2.135 . S
Co42 O43 2.216 . S
Co42 O44 2.091 . S
Co42 O46 2.004 . S
Co42 O52 2.021 . S
Co42 O54 2.137 1_455 S
Co42 O55 2.244 1_455 S
O43 Co42 2.216 . S
O43 C50 1.247 . S
O44 Co42 2.091 . S
O44 C50 1.261 . S
C45 O54 1.247 . S
C45 O55 1.272 . S
O46 Co42 2.004 . S
O46 C51 1.259 . S
Co47 O48 2.061 . S
Co47 O53 2.052 . S
Co47 O55 2.135 1_455 S
O48 Co47 2.061 . S
O48 C51 1.235 . S
C49 O52 1.238 . S
C49 O53 1.241 . S
C50 O43 1.247 . S
C50 O44 1.261 . S
C51 O46 1.259 . S
C51 O48 1.235 . S
O52 Co42 2.021 . S
O52 C49 1.238 . S
O53 Co47 2.052 . S
O53 C49 1.241 . S
O54 Co42 2.137 1_655 S
O54 C45 1.247 . S
O55 Co42 2.244 1_655 S
O55 C45 1.272 . S
O55 Co47 2.135 1_655 S
Co56 O57 2.216 . S
Co56 O58 2.091 . S
Co56 O60 2.004 . S
Co56 O66 2.021 . S
Co56 O68 2.137 . S
Co56 O69 2.244 . S
O57 Co56 2.216 . S
O57 C64 1.247 . S
O58 Co56 2.091 . S
O58 C64 1.261 . S
C59 O68 1.247 . S
C59 O69 1.272 . S
O60 Co56 2.004 . S
O60 C65 1.259 . S
Co61 O62 2.061 . S
Co61 O67 2.052 . S
Co61 O69 2.135 . S
O62 Co61 2.061 . S
O62 C65 1.235 . S
C63 O66 1.238 . S
C63 O67 1.241 . S
C64 O57 1.247 . S
C64 O58 1.261 . S
C65 O60 1.259 . S
C65 O62 1.235 . S
O66 Co56 2.021 . S
O66 C63 1.238 . S
O67 Co61 2.052 . S
O67 C63 1.241 . S
O68 Co56 2.137 . S
O68 C59 1.247 . S
O69 Co56 2.244 . S
O69 C59 1.272 . S
O69 Co61 2.135 . S
Co70 O71 2.216 . S
Co70 O72 2.091 . S
Co70 O74 2.004 . S
Co70 O80 2.021 . S
Co70 O82 2.137 . S
Co70 O83 2.244 . S
O71 Co70 2.216 . S
O71 C78 1.247 . S
O72 Co70 2.091 . S
O72 C78 1.261 . S
C73 O82 1.247 . S
C73 O83 1.272 . S
O74 Co70 2.004 . S
O74 C79 1.259 . S
Co75 O76 2.061 . S
Co75 O81 2.052 . S
Co75 O83 2.135 . S
O76 Co75 2.061 . S
O76 C79 1.235 . S
C77 O80 1.238 . S
C77 O81 1.241 . S
C78 O71 1.247 . S
C78 O72 1.261 . S
C79 O74 1.259 . S
C79 O76 1.235 . S
O80 Co70 2.021 . S
O80 C77 1.238 . S
O81 Co75 2.052 . S
O81 C77 1.241 . S
O82 Co70 2.137 . S
O82 C73 1.247 . S
O83 Co70 2.244 . S
O83 C73 1.272 . S
O83 Co75 2.135 . S
Co84 O85 2.216 . S
Co84 O86 2.091 . S
Co84 O88 2.004 . S
Co84 O94 2.021 . S
Co84 O96 2.137 . S
Co84 O97 2.244 . S
O85 Co84 2.216 . S
O85 C92 1.247 . S
O86 Co84 2.091 . S
O86 C92 1.261 . S
C87 O96 1.247 . S
C87 O97 1.272 . S
O88 Co84 2.004 . S
O88 C93 1.259 . S
Co89 O90 2.061 . S
Co89 O95 2.052 . S
Co89 O97 2.135 . S
O90 Co89 2.061 . S
O90 C93 1.235 . S
C91 O94 1.238 . S
C91 O95 1.241 . S
C92 O85 1.247 . S
C92 O86 1.261 . S
C93 O88 1.259 . S
C93 O90 1.235 . S
O94 Co84 2.021 . S
O94 C91 1.238 . S
O95 Co89 2.052 . S
O95 C91 1.241 . S
O96 Co84 2.137 . S
O96 C87 1.247 . S
O97 Co84 2.244 . S
O97 C87 1.272 . S
O97 Co89 2.135 . S
Co98 O99 2.216 . S
Co98 O100 2.091 . S
Co98 O102 2.004 . S
Co98 O108 2.021 . S
Co98 O110 2.137 . S
Co98 O111 2.244 . S
O99 Co98 2.216 . S
O99 C106 1.247 . S
O100 Co98 2.091 . S
O100 C106 1.261 . S
C101 O110 1.247 . S
C101 O111 1.272 . S
O102 Co98 2.004 . S
O102 C107 1.259 . S
Co103 O104 2.061 . S
Co103 O109 2.052 . S
Co103 O111 2.135 . S
O104 Co103 2.061 . S
O104 C107 1.235 . S
C105 O108 1.238 . S
C105 O109 1.241 . S
C106 O99 1.247 . S
C106 O100 1.261 . S
C107 O102 1.259 . S
C107 O104 1.235 . S
O108 Co98 2.021 . S
O108 C105 1.238 . S
O109 Co103 2.052 . S
O109 C105 1.241 . S
O110 Co98 2.137 . S
O110 C101 1.247 . S
O111 Co98 2.244 . S
O111 C101 1.272 . S
O111 Co103 2.135 . S
H112 C120 0.950 . S
H113 C125 0.950 . S
H114 C122 0.950 . S
H115 C124 0.950 . S
H116 C126 0.950 . S
H117 C128 0.950 . S
H118 C130 0.950 . S
H119 C131 0.950 . S
C120 H112 0.950 . S
C120 C121 1.386 1_655 S
C120 C122 1.391 . S
C121 C120 1.386 1_455 S
C121 C125 1.393 . S
C122 H114 0.950 . S
C122 C120 1.391 . S
C122 C123 1.400 1_655 S
C123 C122 1.400 1_455 S
C123 C124 1.398 . S
C123 C129 1.491 . S
C124 H115 0.950 . S
C124 C123 1.398 . S
C124 C125 1.391 . S
C125 H113 0.950 . S
C125 C121 1.393 . S
C125 C124 1.391 . S
C126 H116 0.950 . S
C126 C127 1.386 . S
C126 C128 1.391 . S
C127 C126 1.386 . S
C127 C131 1.393 1_455 S
C128 H117 0.950 . S
C128 C126 1.391 . S
C128 C129 1.400 . S
C129 C123 1.491 . S
C129 C128 1.400 . S
C129 C130 1.398 1_455 S
C130 H118 0.950 . S
C130 C129 1.398 1_655 S
C130 C131 1.391 . S
C131 H119 0.950 . S
C131 C127 1.393 1_655 S
C131 C130 1.391 . S
H132 C140 0.950 . S
H133 C145 0.950 . S
H134 C142 0.950 . S
H135 C144 0.950 . S
H136 C146 0.950 . S
H137 C148 0.950 . S
H138 C150 0.950 . S
H139 C151 0.950 . S
C140 H132 0.950 . S
C140 C141 1.386 . S
C140 C142 1.391 . S
C141 C140 1.386 . S
C141 C145 1.393 . S
C142 H134 0.950 . S
C142 C140 1.391 . S
C142 C143 1.400 . S
C143 C142 1.400 . S
C143 C144 1.398 . S
C143 C149 1.491 . S
C144 H135 0.950 . S
C144 C143 1.398 . S
C144 C145 1.391 . S
C145 H133 0.950 . S
C145 C141 1.393 . S
C145 C144 1.391 . S
C146 H136 0.950 . S
C146 C147 1.386 . S
C146 C148 1.391 . S
C147 C146 1.386 . S
C147 C151 1.393 . S
C148 H137 0.950 . S
C148 C146 1.391 . S
C148 C149 1.400 . S
C149 C143 1.491 . S
C149 C148 1.400 . S
C149 C150 1.398 . S
C150 H138 0.950 . S
C150 C149 1.398 . S
C150 C151 1.391 . S
C151 H139 0.950 . S
C151 C147 1.393 . S
C151 C150 1.391 . S
H152 C160 0.950 . S
H153 C165 0.950 . S
H154 C162 0.950 . S
H155 C164 0.950 . S
H156 C166 0.950 . S
H157 C168 0.950 . S
H158 C170 0.950 . S
H159 C171 0.950 . S
C160 H152 0.950 . S
C160 C161 1.386 . S
C160 C162 1.391 . S
C161 C160 1.386 . S
C161 C165 1.393 . S
C162 H154 0.950 . S
C162 C160 1.391 . S
C162 C163 1.400 . S
C163 C162 1.400 . S
C163 C164 1.398 . S
C163 C169 1.491 . S
C164 H155 0.950 . S
C164 C163 1.398 . S
C164 C165 1.391 . S
C165 H153 0.950 . S
C165 C161 1.393 . S
C165 C164 1.391 . S
C166 H156 0.950 . S
C166 C167 1.386 . S
C166 C168 1.391 . S
C167 C166 1.386 . S
C167 C171 1.393 . S
C168 H157 0.950 . S
C168 C166 1.391 . S
C168 C169 1.400 . S
C169 C163 1.491 . S
C169 C168 1.400 . S
C169 C170 1.398 . S
C170 H158 0.950 . S
C170 C169 1.398 . S
C170 C171 1.391 . S
C171 H159 0.950 . S
C171 C167 1.393 . S
C171 C170 1.391 . S
H172 C180 0.950 . S
H173 C185 0.950 . S
H174 C182 0.950 . S
H175 C184 0.950 . S
H176 C186 0.950 . S
H177 C188 0.950 . S
H178 C190 0.950 . S
H179 C191 0.950 . S
C180 H172 0.950 . S
C180 C181 1.386 . S
C180 C182 1.391 . S
C181 C180 1.386 . S
C181 C185 1.393 . S
C182 H174 0.950 . S
C182 C180 1.391 . S
C182 C183 1.400 . S
C183 C182 1.400 . S
C183 C184 1.398 . S
C183 C189 1.491 . S
C184 H175 0.950 . S
C184 C183 1.398 . S
C184 C185 1.391 . S
C185 H173 0.950 . S
C185 C181 1.393 . S
C185 C184 1.391 . S
C186 H176 0.950 . S
C186 C187 1.386 . S
C186 C188 1.391 . S
C187 C186 1.386 . S
C187 C191 1.393 . S
C188 H177 0.950 . S
C188 C186 1.391 . S
C188 C189 1.400 . S
C189 C183 1.491 . S
C189 C188 1.400 . S
C189 C190 1.398 . S
C190 H178 0.950 . S
C190 C189 1.398 . S
C190 C191 1.391 . S
C191 H179 0.950 . S
C191 C187 1.393 . S
C191 C190 1.391 . S
H192 C200 0.950 . S
H193 C205 0.950 . S
H194 C202 0.950 . S
H195 C204 0.950 . S
H196 C206 0.950 . S
H197 C208 0.950 . S
H198 C210 0.950 . S
H199 C211 0.950 . S
C200 H192 0.950 . S
C200 C201 1.386 . S
C200 C202 1.391 . S
C201 C200 1.386 . S
C201 C205 1.393 . S
C202 H194 0.950 . S
C202 C200 1.391 . S
C202 C203 1.400 . S
C203 C202 1.400 . S
C203 C204 1.398 . S
C203 C209 1.491 . S
C204 H195 0.950 . S
C204 C203 1.398 . S
C204 C205 1.391 . S
C205 H193 0.950 . S
C205 C201 1.393 . S
C205 C204 1.391 . S
C206 H196 0.950 . S
C206 C207 1.386 . S
C206 C208 1.391 . S
C207 C206 1.386 . S
C207 C211 1.393 . S
C208 H197 0.950 . S
C208 C206 1.391 . S
C208 C209 1.400 . S
C209 C203 1.491 . S
C209 C208 1.400 . S
C209 C210 1.398 . S
C210 H198 0.950 . S
C210 C209 1.398 . S
C210 C211 1.391 . S
C211 H199 0.950 . S
C211 C207 1.393 . S
C211 C210 1.391 . S
H212 C220 0.950 . S
H213 C225 0.950 . S
H214 C222 0.950 . S
H215 C224 0.950 . S
H216 C226 0.950 . S
H217 C228 0.950 . S
H218 C230 0.950 . S
H219 C231 0.950 . S
C220 H212 0.950 . S
C220 C221 1.386 . S
C220 C222 1.391 . S
C221 C220 1.386 . S
C221 C225 1.393 . S
C222 H214 0.950 . S
C222 C220 1.391 . S
C222 C223 1.400 . S
C223 C222 1.400 . S
C223 C224 1.398 . S
C223 C229 1.491 . S
C224 H215 0.950 . S
C224 C223 1.398 . S
C224 C225 1.391 . S
C225 H213 0.950 . S
C225 C221 1.393 . S
C225 C224 1.391 . S
C226 H216 0.950 . S
C226 C227 1.386 . S
C226 C228 1.391 . S
C227 C226 1.386 . S
C227 C231 1.393 . S
C228 H217 0.950 . S
C228 C226 1.391 . S
C228 C229 1.400 . S
C229 C223 1.491 . S
C229 C228 1.400 . S
C229 C230 1.398 . S
C230 H218 0.950 . S
C230 C229 1.398 . S
C230 C231 1.391 . S
C231 H219 0.950 . S
C231 C227 1.393 . S
C231 C230 1.391 . S
H232 C240 0.950 . S
H233 C245 0.950 . S
H234 C242 0.950 . S
H235 C244 0.950 . S
H236 C246 0.950 . S
H237 C248 0.950 . S
H238 C250 0.950 . S
H239 C251 0.950 . S
C240 H232 0.950 . S
C240 C241 1.386 . S
C240 C242 1.391 . S
C241 C240 1.386 . S
C241 C245 1.393 . S
C242 H234 0.950 . S
C242 C240 1.391 . S
C242 C243 1.400 . S
C243 C242 1.400 . S
C243 C244 1.398 . S
C243 C249 1.491 . S
C244 H235 0.950 . S
C244 C243 1.398 . S
C244 C245 1.391 . S
C245 H233 0.950 . S
C245 C241 1.393 . S
C245 C244 1.391 . S
C246 H236 0.950 . S
C246 C247 1.386 . S
C246 C248 1.391 . S
C247 C246 1.386 . S
C247 C251 1.393 . S
C248 H237 0.950 . S
C248 C246 1.391 . S
C248 C249 1.400 . S
C249 C243 1.491 . S
C249 C248 1.400 . S
C249 C250 1.398 . S
C250 H238 0.950 . S
C250 C249 1.398 . S
C250 C251 1.391 . S
C251 H239 0.950 . S
C251 C247 1.393 . S
C251 C250 1.391 . S
H252 C260 0.950 . S
H253 C265 0.950 . S
H254 C262 0.950 . S
H255 C264 0.950 . S
H256 C266 0.950 . S
H257 C268 0.950 . S
H258 C270 0.950 . S
H259 C271 0.950 . S
C260 H252 0.950 . S
C260 C261 1.386 . S
C260 C262 1.391 . S
C261 C260 1.386 . S
C261 C265 1.393 . S
C262 H254 0.950 . S
C262 C260 1.391 . S
C262 C263 1.400 . S
C263 C262 1.400 . S
C263 C264 1.398 . S
C263 C269 1.491 . S
C264 H255 0.950 . S
C264 C263 1.398 . S
C264 C265 1.391 . S
C265 H253 0.950 . S
C265 C261 1.393 . S
C265 C264 1.391 . S
C266 H256 0.950 . S
C266 C267 1.386 . S
C266 C268 1.391 . S
C267 C266 1.386 . S
C267 C271 1.393 . S
C268 H257 0.950 . S
C268 C266 1.391 . S
C268 C269 1.400 . S
C269 C263 1.491 . S
C269 C268 1.400 . S
C269 C270 1.398 . S
C270 H258 0.950 . S
C270 C269 1.398 . S
C270 C271 1.391 . S
C271 H259 0.950 . S
C271 C267 1.393 . S
C271 C270 1.391 . S
H272 C280 0.950 . S
H273 C285 0.950 . S
H274 C282 0.950 . S
H275 C284 0.950 . S
H276 C286 0.950 . S
H277 C288 0.950 . S
H278 C290 0.950 . S
H279 C291 0.950 . S
C280 H272 0.950 . S
C280 C281 1.386 . S
C280 C282 1.391 . S
C281 C280 1.386 . S
C281 C285 1.393 . S
C282 H274 0.950 . S
C282 C280 1.391 . S
C282 C283 1.400 . S
C283 C282 1.400 . S
C283 C284 1.398 . S
C283 C289 1.491 . S
C284 H275 0.950 . S
C284 C283 1.398 . S
C284 C285 1.391 . S
C285 H273 0.950 . S
C285 C281 1.393 . S
C285 C284 1.391 . S
C286 H276 0.950 . S
C286 C287 1.386 . S
C286 C288 1.391 . S
C287 C286 1.386 . S
C287 C291 1.393 . S
C288 H277 0.950 . S
C288 C286 1.391 . S
C288 C289 1.400 . S
C289 C283 1.491 . S
C289 C288 1.400 . S
C289 C290 1.398 . S
C290 H278 0.950 . S
C290 C289 1.398 . S
C290 C291 1.391 . S
C291 H279 0.950 . S
C291 C287 1.393 . S
C291 C290 1.391 . S
H292 C300 0.950 . S
H293 C305 0.950 . S
H294 C302 0.950 . S
H295 C304 0.950 . S
H296 C306 0.950 . S
H297 C308 0.950 . S
H298 C310 0.950 . S
H299 C311 0.950 . S
C300 H292 0.950 . S
C300 C301 1.386 . S
C300 C302 1.391 . S
C301 C300 1.386 . S
C301 C305 1.393 . S
C302 H294 0.950 . S
C302 C300 1.391 . S
C302 C303 1.400 . S
C303 C302 1.400 . S
C303 C304 1.398 . S
C303 C309 1.491 . S
C304 H295 0.950 . S
C304 C303 1.398 . S
C304 C305 1.391 . S
C305 H293 0.950 . S
C305 C301 1.393 . S
C305 C304 1.391 . S
C306 H296 0.950 . S
C306 C307 1.386 . S
C306 C308 1.391 . S
C307 C306 1.386 . S
C307 C311 1.393 . S
C308 H297 0.950 . S
C308 C306 1.391 . S
C308 C309 1.400 . S
C309 C303 1.491 . S
C309 C308 1.400 . S
C309 C310 1.398 . S
C310 H298 0.950 . S
C310 C309 1.398 . S
C310 C311 1.391 . S
C311 H299 0.950 . S
C311 C307 1.393 . S
C311 C310 1.391 . S
H312 C320 0.950 . S
H313 C325 0.950 . S
H314 C322 0.950 . S
H315 C324 0.950 . S
H316 C326 0.950 . S
H317 C328 0.950 . S
H318 C330 0.950 . S
H319 C331 0.950 . S
C320 H312 0.950 . S
C320 C321 1.386 . S
C320 C322 1.391 . S
C321 C320 1.386 . S
C321 C325 1.393 . S
C322 H314 0.950 . S
C322 C320 1.391 . S
C322 C323 1.400 . S
C323 C322 1.400 . S
C323 C324 1.398 . S
C323 C329 1.491 . S
C324 H315 0.950 . S
C324 C323 1.398 . S
C324 C325 1.391 . S
C325 H313 0.950 . S
C325 C321 1.393 . S
C325 C324 1.391 . S
C326 H316 0.950 . S
C326 C327 1.386 . S
C326 C328 1.391 . S
C327 C326 1.386 . S
C327 C331 1.393 . S
C328 H317 0.950 . S
C328 C326 1.391 . S
C328 C329 1.400 . S
C329 C323 1.491 . S
C329 C328 1.400 . S
C329 C330 1.398 . S
C330 H318 0.950 . S
C330 C329 1.398 . S
C330 C331 1.391 . S
C331 H319 0.950 . S
C331 C327 1.393 . S
C331 C330 1.391 . S
H332 C340 0.950 . S
H333 C345 0.950 . S
H334 C342 0.950 . S
H335 C344 0.950 . S
H336 C346 0.950 . S
H337 C348 0.950 . S
H338 C350 0.950 . S
H339 C351 0.950 . S
C340 H332 0.950 . S
C340 C341 1.386 . S
C340 C342 1.391 . S
C341 C340 1.386 . S
C341 C345 1.393 . S
C342 H334 0.950 . S
C342 C340 1.391 . S
C342 C343 1.400 . S
C343 C342 1.400 . S
C343 C344 1.398 . S
C343 C349 1.491 . S
C344 H335 0.950 . S
C344 C343 1.398 . S
C344 C345 1.391 . S
C345 H333 0.950 . S
C345 C341 1.393 . S
C345 C344 1.391 . S
C346 H336 0.950 . S
C346 C347 1.386 . S
C346 C348 1.391 . S
C347 C346 1.386 . S
C347 C351 1.393 . S
C348 H337 0.950 . S
C348 C346 1.391 . S
C348 C349 1.400 . S
C349 C343 1.491 . S
C349 C348 1.400 . S
C349 C350 1.398 . S
C350 H338 0.950 . S
C350 C349 1.398 . S
C350 C351 1.391 . S
C351 H339 0.950 . S
C351 C347 1.393 . S
C351 C350 1.391 . S
H352 C360 0.950 . S
H353 C365 0.950 . S
H354 C362 0.950 . S
H355 C364 0.950 . S
H356 C366 0.950 . S
H357 C368 0.950 . S
H358 C370 0.950 . S
H359 C371 0.950 . S
C360 H352 0.950 . S
C360 C361 1.386 . S
C360 C362 1.391 . S
C361 C360 1.386 . S
C361 C365 1.393 1_455 S
C362 H354 0.950 . S
C362 C360 1.391 . S
C362 C363 1.400 . S
C363 C362 1.400 . S
C363 C364 1.398 1_455 S
C363 C369 1.491 1_544 S
C364 H355 0.950 . S
C364 C363 1.398 1_655 S
C364 C365 1.391 . S
C365 H353 0.950 . S
C365 C361 1.393 1_655 S
C365 C364 1.391 . S
C366 H356 0.950 . S
C366 C367 1.386 1_655 S
C366 C368 1.391 . S
C367 C366 1.386 1_455 S
C367 C371 1.393 . S
C368 H357 0.950 . S
C368 C366 1.391 . S
C368 C369 1.400 1_655 S
C369 C363 1.491 1_566 S
C369 C368 1.400 1_455 S
C369 C370 1.398 . S
C370 H358 0.950 . S
C370 C369 1.398 . S
C370 C371 1.391 . S
C371 H359 0.950 . S
C371 C367 1.393 . S
C371 C370 1.391 . S
H372 C380 0.950 . S
H373 C385 0.950 . S
H374 C382 0.950 1_554 S
H375 C384 0.950 . S
H376 C386 0.950 . S
H377 C388 0.950 1_556 S
H378 C390 0.950 . S
H379 C391 0.950 . S
C380 H372 0.950 . S
C380 C381 1.386 1_655 S
C380 C382 1.391 . S
C381 C380 1.386 1_455 S
C381 C385 1.393 . S
C382 H374 0.950 1_556 S
C382 C380 1.391 . S
C382 C383 1.400 1_655 S
C383 C382 1.400 1_455 S
C383 C384 1.398 . S
C383 C389 1.491 1_556 S
C384 H375 0.950 . S
C384 C383 1.398 . S
C384 C385 1.391 . S
C385 H373 0.950 . S
C385 C381 1.393 . S
C385 C384 1.391 . S
C386 H376 0.950 . S
C386 C387 1.386 . S
C386 C388 1.391 . S
C387 C386 1.386 . S
C387 C391 1.393 1_455 S
C388 H377 0.950 1_554 S
C388 C386 1.391 . S
C388 C389 1.400 . S
C389 C383 1.491 1_554 S
C389 C388 1.400 . S
C389 C390 1.398 1_455 S
C390 H378 0.950 . S
C390 C389 1.398 1_655 S
C390 C391 1.391 . S
C391 H379 0.950 . S
C391 C387 1.393 1_655 S
C391 C390 1.391 . S
H392 C400 0.950 . S
H393 C405 0.950 . S
H394 C402 0.950 . S
H395 C404 0.950 . S
H396 C406 0.950 . S
H397 C408 0.950 . S
H398 C410 0.950 . S
H399 C411 0.950 . S
C400 H392 0.950 . S
C400 C401 1.386 . S
C400 C402 1.391 . S
C401 C400 1.386 . S
C401 C405 1.393 . S
C402 H394 0.950 . S
C402 C400 1.391 . S
C402 C403 1.400 . S
C403 C402 1.400 . S
C403 C404 1.398 . S
C403 C409 1.491 . S
C404 H395 0.950 . S
C404 C403 1.398 . S
C404 C405 1.391 . S
C405 H393 0.950 . S
C405 C401 1.393 . S
C405 C404 1.391 . S
C406 H396 0.950 . S
C406 C407 1.386 . S
C406 C408 1.391 . S
C407 C406 1.386 . S
C407 C411 1.393 . S
C408 H397 0.950 . S
C408 C406 1.391 . S
C408 C409 1.400 . S
C409 C403 1.491 . S
C409 C408 1.400 . S
C409 C410 1.398 . S
C410 H398 0.950 . S
C410 C409 1.398 . S
C410 C411 1.391 . S
C411 H399 0.950 . S
C411 C407 1.393 . S
C411 C410 1.391 . S
H412 C420 0.950 . S
H413 C425 0.950 . S
H414 C422 0.950 . S
H415 C424 0.950 . S
H416 C426 0.950 . S
H417 C428 0.950 . S
H418 C430 0.950 . S
H419 C431 0.950 . S
C420 H412 0.950 . S
C420 C421 1.386 . S
C420 C422 1.391 . S
C421 C420 1.386 . S
C421 C425 1.393 . S
C422 H414 0.950 . S
C422 C420 1.391 . S
C422 C423 1.400 . S
C423 C422 1.400 . S
C423 C424 1.398 . S
C423 C429 1.491 1_565 S
C424 H415 0.950 . S
C424 C423 1.398 . S
C424 C425 1.391 . S
C425 H413 0.950 . S
C425 C421 1.393 . S
C425 C424 1.391 . S
C426 H416 0.950 . S
C426 C427 1.386 . S
C426 C428 1.391 . S
C427 C426 1.386 . S
C427 C431 1.393 . S
C428 H417 0.950 . S
C428 C426 1.391 . S
C428 C429 1.400 . S
C429 C423 1.491 1_545 S
C429 C428 1.400 . S
C429 C430 1.398 . S
C430 H418 0.950 . S
C430 C429 1.398 . S
C430 C431 1.391 . S
C431 H419 0.950 . S
C431 C427 1.393 . S
C431 C430 1.391 . S
C121 C23 1.421 . S
C127 C9 1.404 . S
C141 C37 1.414 . S
C147 C51 1.415 . S
C161 C65 1.421 . S
C167 C79 1.405 . S
C181 C93 1.420 . S
C187 C107 1.405 . S
C201 C101 1.439 . S
C207 C3 1.443 . S
C221 C87 1.439 . S
C227 C17 1.443 . S
C241 C31 1.433 . S
C247 C73 1.436 . S
C261 C59 1.433 . S
C267 C45 1.434 . S
C281 C77 1.372 . S
C287 C35 1.363 . S
C301 C63 1.364 . S
C307 C49 1.371 . S
C321 C105 1.354 . S
C327 C7 1.372 . S
C341 C21 1.357 . S
C347 C91 1.373 . S
C361 C8 1.370 . S
C367 C36 1.371 . S
C381 C50 1.370 . S
C387 C22 1.372 . S
C401 C92 1.369 . S
C407 C64 1.372 . S
C421 C78 1.369 . S
C427 C106 1.369 . S
