# Generated by pormake.
# Topology uni, (4)-cn, num edge types: 1
# Building blocks:
#     Node 0, Type 0, BuildingBlock: QUQFOY_clean_sbu_1, # of connection points: 4
#     Node 1, Type 0, BuildingBlock: QUQFOY_clean_sbu_1, # of connection points: 4
#     Node 2, Type 0, BuildingBlock: QUQFOY_clean_sbu_1, # of connection points: 4
#     Node 3, Type 0, BuildingBlock: QUQFOY_clean_sbu_1, # of connection points: 4
#     Node 4, Type 0, BuildingBlock: QUQFOY_clean_sbu_1, # of connection points: 4
#     Node 5, Type 0, BuildingBlock: QUQFOY_clean_sbu_1, # of connection points: 4
#     Edge 6, Type (0, 0), BuildingBlock: KIFKEQ_clean_linker_1, # of connection points: 2
#     Edge 7, Type (0, 0), BuildingBlock: KIFKEQ_clean_linker_1, # of connection points: 2
#     Edge 8, Type (0, 0), BuildingBlock: KIFKEQ_clean_linker_1, # of connection points: 2
#     Edge 9, Type (0, 0), BuildingBlock: KIFKEQ_clean_linker_1, # of connection points: 2
#     Edge 10, Type (0, 0), BuildingBlock: KIFKEQ_clean_linker_1, # of connection points: 2
#     Edge 11, Type (0, 0), BuildingBlock: KIFKEQ_clean_linker_1, # of connection points: 2
#     Edge 12, Type (0, 0), BuildingBlock: KIFKEQ_clean_linker_1, # of connection points: 2
#     Edge 13, Type (0, 0), BuildingBlock: KIFKEQ_clean_linker_1, # of connection points: 2
#     Edge 14, Type (0, 0), BuildingBlock: KIFKEQ_clean_linker_1, # of connection points: 2
#     Edge 15, Type (0, 0), BuildingBlock: KIFKEQ_clean_linker_1, # of connection points: 2
#     Edge 16, Type (0, 0), BuildingBlock: KIFKEQ_clean_linker_1, # of connection points: 2
#     Edge 17, Type (0, 0), BuildingBlock: KIFKEQ_clean_linker_1, # of connection points: 2
# Relax obj value: 0.074
# Max RMSD: 0.155
# Mean RMSD: 0.155
data_MOF--net-uni--node1-QUQFOY_clean_sbu_1--edge1-KIFKEQ_clean_linker_1
_symmetry_space_group_name_H-M    P1
_symmetry_Int_Tables_number       1
_symmetry_cell_setting            triclinic
loop_
_symmetry_equiv_pos_as_xyz
'x, y, z'
_cell_length_a     43.192159
_cell_length_b     43.207203
_cell_length_c     23.236535
_cell_angle_alpha  89.739248
_cell_angle_beta   89.943847
_cell_angle_gamma 119.89651
loop_
_atom_site_label
_atom_site_type_symbol
_atom_site_fract_x
_atom_site_fract_y
_atom_site_fract_z
_atom_type_partial_charge
O0 O 0.62454 0.04221 0.96787 0.0
Cd1 Cd 0.66013 0.0584 0.0346 0.0
Cd2 Cd 0.62001 0.9829 0.05159 0.0
O3 O 0.59628 0.98343 0.97454 0.0
O4 O 0.68891 0.10976 0.01387 0.0
O5 O 0.71279 0.0752 0.02177 0.0
C6 C 0.71657 0.10608 0.00977 0.0
C7 C 0.62687 0.93364 0.07333 0.0
C8 C 0.60123 0.01176 0.94954 0.0
C9 C 0.61571 0.03286 0.14039 0.0
O10 O 0.60554 1.00156 0.12222 0.0
O11 O 0.63906 0.06005 0.11305 0.0
O12 O 0.59604 0.93136 0.07181 0.0
O13 O 0.65439 0.96396 0.0601 0.0
O14 O 0.60662 0.62116 0.1354 0.0
Cd15 Cd 0.62308 0.65317 0.20717 0.0
Cd16 Cd 0.66325 0.61789 0.21754 0.0
O17 O 0.6415 0.59743 0.13866 0.0
O18 O 0.5982 0.68069 0.19342 0.0
O19 O 0.65685 0.70655 0.19875 0.0
C20 C 0.62882 0.70931 0.19001 0.0
C21 C 0.72118 0.6286 0.23575 0.0
C22 C 0.61717 0.60095 0.11423 0.0
C23 C 0.60609 0.60344 0.30699 0.0
O24 O 0.62854 0.59583 0.28561 0.0
O25 O 0.60153 0.6278 0.28475 0.0
O26 O 0.69461 0.59693 0.22877 0.0
O27 O 0.71523 0.65497 0.23138 0.0
O28 O 1.0 0.59501 0.31668 0.0
Cd29 Cd 0.99011 0.61926 0.38483 0.0
Cd30 Cd 0.06399 0.65586 0.38292 0.0
O31 O 0.05769 0.63178 0.30425 0.0
O32 O 0.93759 0.59874 0.38016 0.0
O33 O 0.97538 0.65639 0.3696 0.0
C34 C 0.94284 0.6303 0.37008 0.0
C35 C 0.11362 0.71253 0.39801 0.0
C36 C 0.0287 0.60468 0.28863 0.0
C37 C 0.02474 0.6041 0.48112 0.0
O38 O 0.05334 0.62259 0.45268 0.0
O39 O 0.9958 0.60216 0.46484 0.0
O40 O 0.11667 0.68474 0.39029 0.0
O41 O 0.08209 0.70874 0.39449 0.0
O42 O 0.42819 1.00234 0.46049 0.0
Cd43 Cd 0.39509 0.98564 0.53149 0.0
Cd44 Cd 0.43109 0.0605 0.54489 0.0
O45 O 0.45255 0.06082 0.46587 0.0
O46 O 0.36703 0.9339 0.51415 0.0
O47 O 0.34197 0.96739 0.52271 0.0
C48 C 0.33881 0.93673 0.51142 0.0
C49 C 0.42092 0.10784 0.56509 0.0
C50 C 0.44898 0.03333 0.44041 0.0
C51 C 0.4434 0.01504 0.63238 0.0
O52 O 0.45169 0.04561 0.61224 0.0
O53 O 0.41904 0.98683 0.60907 0.0
O54 O 0.45253 0.11251 0.55859 0.0
O55 O 0.39431 0.07588 0.55936 0.0
O56 O 0.45308 0.42035 0.64545 0.0
Cd57 Cd 0.43172 0.38649 0.71478 0.0
Cd58 Cd 0.39661 0.42652 0.72425 0.0
O59 O 0.42107 0.44732 0.64585 0.0
O60 O 0.45246 0.35489 0.7049 0.0
O61 O 0.3944 0.33442 0.7027 0.0
C62 C 0.42069 0.32831 0.6989 0.0
C63 C 0.34037 0.42007 0.74292 0.0
C64 C 0.44523 0.44254 0.6235 0.0
C65 C 0.44986 0.43383 0.81644 0.0
O66 O 0.42944 0.44411 0.79509 0.0
O67 O 0.45305 0.40915 0.79281 0.0
O68 O 0.36866 0.45088 0.7383 0.0
O69 O 0.34344 0.39223 0.73421 0.0
O70 O 0.05451 0.44958 0.81697 0.0
Cd71 Cd 0.06689 0.42735 0.8852 0.0
Cd72 Cd 0.99184 0.38882 0.88625 0.0
O73 O 0.99658 0.41328 0.80791 0.0
O74 O 0.1194 0.4511 0.87405 0.0
O75 O 0.08485 0.39256 0.87145 0.0
C76 C 0.11622 0.42024 0.86587 0.0
C77 C 0.94243 0.33182 0.90163 0.0
C78 C 0.02544 0.44005 0.79057 0.0
C79 C 0.03226 0.44131 -0.0169 0.0
O80 O 1.00336 0.42152 0.95653 0.0
O81 O 0.06164 0.44495 0.96488 0.0
O82 O 0.93927 0.35971 0.89584 0.0
O83 O 0.97397 0.33579 0.89651 0.0
H84 H 0.57758 0.98376 0.22322 0.0
H85 H 0.60991 0.0913 0.16788 0.0
H86 H 0.53795 0.98672 0.29454 0.0
H87 H 0.56918 0.09387 0.23814 0.0
H88 H 0.51176 0.0923 0.40842 0.0
H89 H 0.55516 0.09482 0.33845 0.0
H90 H 0.48208 0.98543 0.29128 0.0
H91 H 0.43941 0.98258 0.36236 0.0
C92 C 0.57642 0.00816 0.22666 0.0
C93 C 0.59665 0.03719 0.1897 0.0
C94 C 0.55341 0.00974 0.26709 0.0
C95 C 0.5497 0.0402 0.27104 0.0
C96 C 0.57139 0.07 0.2362 0.0
C97 C 0.59478 0.06856 0.19603 0.0
C98 C 0.50478 0.06901 0.38238 0.0
C99 C 0.47232 0.03712 0.39123 0.0
C100 C 0.52968 0.07043 0.34236 0.0
C101 C 0.52243 0.04008 0.31018 0.0
C102 C 0.48901 0.00895 0.31667 0.0
C103 C 0.46435 0.00741 0.35696 0.0
H104 H 0.56393 0.61721 0.37922 0.0
H105 H 0.59496 0.5386 0.34139 0.0
H106 H 0.52416 0.57841 0.45536 0.0
H107 H 0.55431 0.49941 0.41448 0.0
H108 H 0.50929 0.45247 0.5872 0.0
H109 H 0.54812 0.49277 0.51349 0.0
H110 H 0.46981 0.52434 0.47475 0.0
H111 H 0.43137 0.4849 0.5515 0.0
C112 C 0.56223 0.59169 0.38713 0.0
C113 C 0.58294 0.5812 0.35479 0.0
C114 C 0.53919 0.56927 0.43033 0.0
C115 C 0.53607 0.53575 0.44142 0.0
C116 C 0.55658 0.52532 0.4084 0.0
C117 C 0.57991 0.54784 0.36616 0.0
C118 C 0.50009 0.46773 0.56276 0.0
C119 C 0.46706 0.46524 0.57498 0.0
C120 C 0.52241 0.49087 0.52014 0.0
C121 C 0.5121 0.51172 0.4876 0.0
C122 C 0.47885 0.50904 0.49941 0.0
C123 C 0.45664 0.48618 0.54296 0.0
H124 H 0.97023 0.42728 0.71767 0.0
H125 H 0.07981 0.50485 0.75704 0.0
H126 H 0.96961 0.46741 0.64373 0.0
H127 H 0.07869 0.54516 0.68566 0.0
H128 H 0.07923 0.59357 0.51372 0.0
H129 H 0.07834 0.55257 0.58573 0.0
H130 H 0.96993 0.52301 0.63128 0.0
H131 H 0.97029 0.56331 0.55675 0.0
C132 C 0.99416 0.45278 0.71048 0.0
C133 C 0.02513 0.46272 0.74295 0.0
C134 C 0.99369 0.47594 0.66859 0.0
C135 C 0.0241 0.50956 0.65874 0.0
C136 C 0.055 0.51927 0.69122 0.0
C137 C 0.05559 0.49609 0.73241 0.0
C138 C 0.05523 0.57863 0.53933 0.0
C139 C 0.02485 0.58184 0.52955 0.0
C140 C 0.05476 0.5551 0.58088 0.0
C141 C 0.02408 0.53447 0.61448 0.0
C142 C 0.99382 0.5381 0.60555 0.0
C143 C 0.99416 0.56148 0.56332 0.0
H144 H 0.59046 0.06521 0.91335 0.0
H145 H 0.5578 0.9548 0.88014 0.0
H146 H 0.55047 0.0638 0.83974 0.0
H147 H 0.51853 0.95385 0.80314 0.0
H148 H 0.4274 0.9581 0.70433 0.0
H149 H 0.46482 0.95545 0.78126 0.0
H150 H 0.54651 0.06357 0.7402 0.0
H151 H 0.5088 0.06673 0.66651 0.0
C152 C 0.57516 0.04071 0.88949 0.0
C153 C 0.57769 0.01023 0.90213 0.0
C154 C 0.55221 0.03994 0.84692 0.0
C155 C 0.53159 0.00889 0.81466 0.0
C156 C 0.53385 0.97816 0.8274 0.0
C157 C 0.55655 0.97876 0.87108 0.0
C158 C 0.45324 0.98132 0.71238 0.0
C159 C 0.46488 0.0128 0.68001 0.0
C160 C 0.47482 0.97972 0.75602 0.0
C161 C 0.50859 0.00942 0.76745 0.0
C162 C 0.5203 0.0405 0.73397 0.0
C163 C 0.49863 0.04229 0.69139 0.0
H164 H 0.61221 0.53772 0.08348 0.0
H165 H 0.57682 0.61176 0.03551 0.0
H166 H 0.57119 0.49487 0.01399 0.0
H167 H 0.53702 0.56973 0.96426 0.0
H168 H 0.4399 0.47528 0.89367 0.0
H169 H 0.48233 0.51537 0.9642 0.0
H170 H 0.55644 0.48006 0.91597 0.0
H171 H 0.51317 0.43876 0.84718 0.0
C172 C 0.59633 0.5452 0.05699 0.0
C173 C 0.59751 0.57797 0.06518 0.0
C174 C 0.57276 0.52061 0.01717 0.0
C175 C 0.55024 0.52852 -0.01575 0.0
C176 C 0.55311 0.56225 -0.00984 0.0
C177 C 0.57625 0.58656 0.03049 0.0
C178 C 0.46504 0.4757 0.89882 0.0
C179 C 0.47326 0.45398 0.86482 0.0
C180 C 0.48958 0.499 0.93873 0.0
C181 C 0.52319 0.50158 0.94493 0.0
C182 C 0.53079 0.47871 0.91257 0.0
C183 C 0.50597 0.45498 0.87316 0.0
H184 H 0.08745 0.4854 0.05442 0.0
H185 H 0.97584 0.44741 0.02028 0.0
H186 H 0.08674 0.52513 0.12829 0.0
H187 H 0.97556 0.48786 0.09153 0.0
H188 H 0.97556 0.53813 0.26063 0.0
H189 H 0.97729 0.49767 0.19065 0.0
H190 H 0.08359 0.57866 0.13908 0.0
H191 H 0.08243 0.61888 0.21147 0.0
C192 C 0.06277 0.48539 0.06283 0.0
C193 C 0.03169 0.4631 0.03161 0.0
C194 C 0.06245 0.50844 0.10468 0.0
C195 C 0.03112 0.50985 0.11579 0.0
C196 C 1.00002 0.48715 0.08499 0.0
C197 C 1.00023 0.46393 0.04382 0.0
C198 C 0.99924 0.54753 0.23409 0.0
C199 C 0.02882 0.58183 0.24153 0.0
C200 C 1.0002 0.52427 0.19374 0.0
C201 C 0.03058 0.53483 0.15907 0.0
C202 C 0.05999 0.56941 0.16573 0.0
C203 C 0.05918 0.59263 0.20674 0.0
H204 H 0.57559 0.71841 0.14741 0.0
H205 H 0.68697 0.77735 0.19476 0.0
H206 H 0.57772 0.77327 0.11872 0.0
H207 H 0.68881 0.83326 0.16795 0.0
H208 H 0.68351 0.92184 0.05915 0.0
H209 H 0.68617 0.86852 0.08808 0.0
H210 H 0.58039 0.82349 0.16187 0.0
H211 H 0.57725 0.8754 0.13102 0.0
C212 C 0.60052 0.74324 0.15242 0.0
C213 C 0.63102 0.74354 0.17397 0.0
C214 C 0.60171 0.77485 0.13617 0.0
C215 C 0.63329 0.80788 0.14183 0.0
C216 C 0.66408 0.80828 0.16276 0.0
C217 C 0.66299 0.77633 0.1785 0.0
C218 C 0.66089 0.9004 0.08144 0.0
C219 C 0.62995 0.90251 0.09193 0.0
C220 C 0.66248 0.86999 0.09837 0.0
C221 C 0.63327 0.8414 0.12658 0.0
C222 C 0.60299 0.8444 0.13875 0.0
C223 C 0.60123 0.87433 0.12122 0.0
H224 H 0.94334 0.68805 0.31846 0.0
H225 H 0.87293 0.58359 0.39055 0.0
H226 H 0.89126 0.69135 0.28428 0.0
H227 H 0.82151 0.58718 0.35779 0.0
H228 H 0.74253 0.57955 0.22751 0.0
H229 H 0.79766 0.58408 0.26147 0.0
H230 H 0.83545 0.69291 0.31374 0.0
H231 H 0.77983 0.68857 0.27836 0.0
C232 C 0.91682 0.66614 0.32789 0.0
C233 C 0.9122 0.63533 0.35642 0.0
C234 C 0.88706 0.66805 0.30838 0.0
C235 C 0.85234 0.63919 0.31726 0.0
C236 C 0.84792 0.60944 0.34884 0.0
C237 C 0.87743 0.60747 0.36793 0.0
C238 C 0.7626 0.6046 0.24583 0.0
C239 C 0.75662 0.63357 0.2509 0.0
C240 C 0.79417 0.60712 0.26564 0.0
C241 C 0.82058 0.63858 0.2915 0.0
C242 C 0.8155 0.66828 0.29416 0.0
C243 C 0.78371 0.66579 0.27398 0.0
H244 H 0.12177 0.78005 0.39716 0.0
H245 H 0.17699 0.72223 0.43567 0.0
H246 H 0.17552 0.83611 0.42298 0.0
H247 H 0.22935 0.77709 0.46372 0.0
H248 H 0.33039 0.87986 0.45099 0.0
H249 H 0.27549 0.82816 0.42066 0.0
H250 H 0.2145 0.87092 0.50086 0.0
H251 H 0.27037 0.92421 0.52894 0.0
C252 C 0.14528 0.77932 0.41129 0.0
C253 C 0.14536 0.74684 0.4135 0.0
C254 C 0.17596 0.81134 0.42648 0.0
C255 C 0.20703 0.81127 0.44469 0.0
C256 C 0.20643 0.77849 0.44824 0.0
C257 C 0.17622 0.74685 0.43236 0.0
C258 C 0.30531 0.87832 0.46228 0.0
C259 C 0.30466 0.90584 0.49311 0.0
C260 C 0.2737 0.8485 0.44507 0.0
C261 C 0.2404 0.84488 0.45929 0.0
C262 C 0.23966 0.87287 0.48899 0.0
C263 C 0.27159 0.90325 0.50544 0.0
H264 H 0.46774 0.30531 0.7173 0.0
H265 H 0.36232 0.27091 0.65027 0.0
H266 H 0.46382 0.25013 0.68533 0.0
H267 H 0.35871 0.2154 0.61652 0.0
H268 H 0.36124 0.10697 0.60922 0.0
H269 H 0.35732 0.15838 0.64486 0.0
H270 H 0.46619 0.2287 0.59024 0.0
H271 H 0.47032 0.17794 0.5563 0.0
C272 C 0.4436 0.28582 0.69587 0.0
C273 C 0.41554 0.29264 0.68559 0.0
C274 C 0.44143 0.25424 0.67721 0.0
C275 C 0.41132 0.22877 0.6471 0.0
C276 C 0.3823 0.23459 0.63947 0.0
C277 C 0.38437 0.26632 0.65871 0.0
C278 C 0.38412 0.13351 0.60445 0.0
C279 C 0.41624 0.1384 0.58073 0.0
C280 C 0.38187 0.16289 0.62477 0.0
C281 C 0.4117 0.1975 0.6215 0.0
C282 C 0.44306 0.2023 0.59499 0.0
C283 C 0.44536 0.17317 0.57518 0.0
H284 H 0.12597 0.36187 0.87033 0.0
H285 H 0.177 0.47259 0.81811 0.0
H286 H 0.17939 0.35961 0.84084 0.0
H287 H 0.22892 0.46999 0.78622 0.0
H288 H 0.33202 0.47118 0.79511 0.0
H289 H 0.2774 0.46856 0.82642 0.0
H290 H 0.21628 0.36086 0.76179 0.0
H291 H 0.27199 0.36303 0.7328 0.0
C292 C 0.14848 0.38558 0.85228 0.0
C293 C 0.14758 0.41756 0.84748 0.0
C294 C 0.17896 0.38426 0.83499 0.0
C295 C 0.20881 0.41478 0.81191 0.0
C296 C 0.20707 0.44626 0.80548 0.0
C297 C 0.17711 0.44773 0.82356 0.0
C298 C 0.30698 0.44692 0.78732 0.0
C299 C 0.30628 0.41747 0.76079 0.0
C300 C 0.27549 0.44544 0.80507 0.0
C301 C 0.24219 0.41473 0.79572 0.0
C302 C 0.24143 0.3849 0.76993 0.0
C303 C 0.27326 0.38619 0.75293 0.0
H304 H 0.93503 0.26461 0.89904 0.0
H305 H 0.87829 0.32073 0.93845 0.0
H306 H 0.88116 0.20774 0.92245 0.0
H307 H 0.82574 0.26499 0.96376 0.0
H308 H 0.72559 0.16249 0.9465 0.0
H309 H 0.78088 0.21448 0.91688 0.0
H310 H 0.84094 0.17152 0.0001 0.0
H311 H 0.78473 0.11803 0.02767 0.0
C312 C 0.91117 0.2648 0.91285 0.0
C313 C 0.91073 0.29707 0.91607 0.0
C314 C 0.88042 0.23232 0.92659 0.0
C315 C 0.84889 0.23169 0.94415 0.0
C316 C 0.84909 0.26421 0.94873 0.0
C317 C 0.8794 0.29633 0.93445 0.0
C318 C 0.75055 0.164 0.95841 0.0
C319 C 0.75087 0.13648 -0.00982 0.0
C320 C 0.78234 0.19395 0.94164 0.0
C321 C 0.81546 0.19766 0.95721 0.0
C322 C 0.8159 0.1695 -0.01268 0.0
C323 C 0.78379 0.139 0.00338 0.0
loop_
_geom_bond_atom_site_label_1
_geom_bond_atom_site_label_2
_geom_bond_distance
_geom_bond_site_symmetry_2
_ccdc_geom_bond_type
O0 Cd1 2.223 . S
O0 C8 1.315 1_554 S
Cd1 O0 2.223 . S
Cd1 O4 2.297 . S
Cd1 O5 2.439 . S
Cd1 O11 2.240 . S
Cd2 O3 2.240 1_564 S
Cd2 O10 2.223 . S
Cd2 O12 2.297 . S
Cd2 O13 2.439 . S
O3 Cd2 2.240 1_546 S
O3 C8 1.279 . S
O4 Cd1 2.297 . S
O4 C6 1.247 . S
O5 Cd1 2.439 . S
O5 C6 1.208 . S
C6 O4 1.247 . S
C6 O5 1.208 . S
C7 O12 1.247 . S
C7 O13 1.208 . S
C8 O0 1.315 1_556 S
C8 O3 1.279 . S
C9 O10 1.315 . S
C9 O11 1.279 1_565 S
O10 Cd2 2.223 . S
O10 C9 1.315 . S
O11 Cd1 2.240 . S
O11 C9 1.279 1_545 S
O12 Cd2 2.297 . S
O12 C7 1.247 . S
O13 Cd2 2.439 . S
O13 C7 1.208 . S
O14 Cd15 2.223 . S
O14 C22 1.315 . S
Cd15 O14 2.223 . S
Cd15 O18 2.297 . S
Cd15 O19 2.439 . S
Cd15 O25 2.240 . S
Cd16 O17 2.240 . S
Cd16 O24 2.223 . S
Cd16 O26 2.297 . S
Cd16 O27 2.439 . S
O17 Cd16 2.240 . S
O17 C22 1.279 . S
O18 Cd15 2.297 . S
O18 C20 1.247 . S
O19 Cd15 2.439 . S
O19 C20 1.208 . S
C20 O18 1.247 . S
C20 O19 1.208 . S
C21 O26 1.247 . S
C21 O27 1.208 . S
C22 O14 1.315 . S
C22 O17 1.279 . S
C23 O24 1.315 . S
C23 O25 1.279 . S
O24 Cd16 2.223 . S
O24 C23 1.315 . S
O25 Cd15 2.240 . S
O25 C23 1.279 . S
O26 Cd16 2.297 . S
O26 C21 1.247 . S
O27 Cd16 2.439 . S
O27 C21 1.208 . S
O28 Cd29 2.223 . S
O28 C36 1.306 1_655 S
Cd29 O28 2.223 . S
Cd29 O32 2.297 . S
Cd29 O33 2.439 . S
Cd29 O39 2.240 1_655 S
Cd30 O31 2.240 . S
Cd30 O38 2.223 . S
Cd30 O40 2.297 . S
Cd30 O41 2.439 . S
O31 Cd30 2.240 . S
O31 C36 1.280 . S
O32 Cd29 2.297 . S
O32 C34 1.247 . S
O33 Cd29 2.439 . S
O33 C34 1.208 . S
C34 O32 1.247 . S
C34 O33 1.208 . S
C35 O40 1.247 . S
C35 O41 1.208 . S
C36 O28 1.306 1_455 S
C36 O31 1.280 . S
C37 O38 1.315 . S
C37 O39 1.279 . S
O38 Cd30 2.223 . S
O38 C37 1.315 . S
O39 Cd29 2.240 1_455 S
O39 C37 1.279 . S
O40 Cd30 2.297 . S
O40 C35 1.247 . S
O41 Cd30 2.439 . S
O41 C35 1.208 . S
O42 Cd43 2.223 . S
O42 C50 1.315 . S
Cd43 O42 2.223 . S
Cd43 O46 2.297 . S
Cd43 O47 2.439 . S
Cd43 O53 2.240 1_565 S
Cd44 O45 2.240 . S
Cd44 O52 2.223 . S
Cd44 O54 2.297 . S
Cd44 O55 2.439 . S
O45 Cd44 2.240 . S
O45 C50 1.279 1_545 S
O46 Cd43 2.297 . S
O46 C48 1.247 . S
O47 Cd43 2.439 . S
O47 C48 1.208 . S
C48 O46 1.247 . S
C48 O47 1.208 . S
C49 O54 1.247 . S
C49 O55 1.208 . S
C50 O42 1.315 . S
C50 O45 1.279 1_565 S
C51 O52 1.315 . S
C51 O53 1.279 . S
O52 Cd44 2.223 . S
O52 C51 1.315 . S
O53 Cd43 2.240 1_545 S
O53 C51 1.279 . S
O54 Cd44 2.297 . S
O54 C49 1.247 . S
O55 Cd44 2.439 . S
O55 C49 1.208 . S
O56 Cd57 2.223 . S
O56 C64 1.315 . S
Cd57 O56 2.223 . S
Cd57 O60 2.297 . S
Cd57 O61 2.439 . S
Cd57 O67 2.240 . S
Cd58 O59 2.240 . S
Cd58 O66 2.223 . S
Cd58 O68 2.297 . S
Cd58 O69 2.439 . S
O59 Cd58 2.240 . S
O59 C64 1.279 . S
O60 Cd57 2.297 . S
O60 C62 1.247 . S
O61 Cd57 2.439 . S
O61 C62 1.208 . S
C62 O60 1.247 . S
C62 O61 1.208 . S
C63 O68 1.247 . S
C63 O69 1.208 . S
C64 O56 1.315 . S
C64 O59 1.279 . S
C65 O66 1.315 . S
C65 O67 1.279 . S
O66 Cd58 2.223 . S
O66 C65 1.315 . S
O67 Cd57 2.240 . S
O67 C65 1.279 . S
O68 Cd58 2.297 . S
O68 C63 1.247 . S
O69 Cd58 2.439 . S
O69 C63 1.208 . S
O70 Cd71 2.223 . S
O70 C78 1.315 . S
Cd71 O70 2.223 . S
Cd71 O74 2.297 . S
Cd71 O75 2.439 . S
Cd71 O81 2.240 . S
Cd72 O73 2.240 1_655 S
Cd72 O80 2.223 . S
Cd72 O82 2.297 . S
Cd72 O83 2.439 . S
O73 Cd72 2.240 1_455 S
O73 C78 1.279 . S
O74 Cd71 2.297 . S
O74 C76 1.247 . S
O75 Cd71 2.439 . S
O75 C76 1.208 . S
C76 O74 1.247 . S
C76 O75 1.208 . S
C77 O82 1.247 . S
C77 O83 1.208 . S
C78 O70 1.315 . S
C78 O73 1.279 . S
C79 O80 1.303 1_455 S
C79 O81 1.293 . S
O80 Cd72 2.223 . S
O80 C79 1.303 1_655 S
O81 Cd71 2.240 . S
O81 C79 1.293 . S
O82 Cd72 2.297 . S
O82 C77 1.247 . S
O83 Cd72 2.439 . S
O83 C77 1.208 . S
H84 C92 0.950 . S
H85 C97 0.950 . S
H86 C94 0.950 . S
H87 C96 0.950 . S
H88 C98 0.950 . S
H89 C100 0.950 . S
H90 C102 0.950 . S
H91 C103 0.950 . S
C92 H84 0.950 . S
C92 C93 1.386 1_565 S
C92 C94 1.391 . S
C93 C92 1.386 1_545 S
C93 C97 1.393 . S
C94 H86 0.950 . S
C94 C92 1.391 . S
C94 C95 1.400 1_565 S
C95 C94 1.400 1_545 S
C95 C96 1.398 . S
C95 C101 1.491 . S
C96 H87 0.950 . S
C96 C95 1.398 . S
C96 C97 1.391 . S
C97 H85 0.950 . S
C97 C93 1.393 . S
C97 C96 1.391 . S
C98 H88 0.950 . S
C98 C99 1.386 . S
C98 C100 1.391 . S
C99 C98 1.386 . S
C99 C103 1.393 1_545 S
C100 H89 0.950 . S
C100 C98 1.391 . S
C100 C101 1.400 . S
C101 C95 1.491 . S
C101 C100 1.400 . S
C101 C102 1.398 1_545 S
C102 H90 0.950 . S
C102 C101 1.398 1_565 S
C102 C103 1.391 . S
C103 H91 0.950 . S
C103 C99 1.393 1_565 S
C103 C102 1.391 . S
H104 C112 0.950 . S
H105 C117 0.950 . S
H106 C114 0.950 . S
H107 C116 0.950 . S
H108 C118 0.950 . S
H109 C120 0.950 . S
H110 C122 0.950 . S
H111 C123 0.950 . S
C112 H104 0.950 . S
C112 C113 1.386 . S
C112 C114 1.391 . S
C113 C112 1.386 . S
C113 C117 1.393 . S
C114 H106 0.950 . S
C114 C112 1.391 . S
C114 C115 1.400 . S
C115 C114 1.400 . S
C115 C116 1.398 . S
C115 C121 1.491 . S
C116 H107 0.950 . S
C116 C115 1.398 . S
C116 C117 1.391 . S
C117 H105 0.950 . S
C117 C113 1.393 . S
C117 C116 1.391 . S
C118 H108 0.950 . S
C118 C119 1.386 . S
C118 C120 1.391 . S
C119 C118 1.386 . S
C119 C123 1.393 . S
C120 H109 0.950 . S
C120 C118 1.391 . S
C120 C121 1.400 . S
C121 C115 1.491 . S
C121 C120 1.400 . S
C121 C122 1.398 . S
C122 H110 0.950 . S
C122 C121 1.398 . S
C122 C123 1.391 . S
C123 H111 0.950 . S
C123 C119 1.393 . S
C123 C122 1.391 . S
H124 C132 0.950 1_655 S
H125 C137 0.950 . S
H126 C134 0.950 1_655 S
H127 C136 0.950 . S
H128 C138 0.950 . S
H129 C140 0.950 . S
H130 C142 0.950 1_655 S
H131 C143 0.950 1_655 S
C132 H124 0.950 1_455 S
C132 C133 1.386 . S
C132 C134 1.391 . S
C133 C132 1.386 . S
C133 C137 1.393 . S
C134 H126 0.950 1_455 S
C134 C132 1.391 . S
C134 C135 1.400 . S
C135 C134 1.400 . S
C135 C136 1.398 . S
C135 C141 1.491 . S
C136 H127 0.950 . S
C136 C135 1.398 . S
C136 C137 1.391 . S
C137 H125 0.950 . S
C137 C133 1.393 . S
C137 C136 1.391 . S
C138 H128 0.950 . S
C138 C139 1.386 . S
C138 C140 1.391 . S
C139 C138 1.386 . S
C139 C143 1.393 . S
C140 H129 0.950 . S
C140 C138 1.391 . S
C140 C141 1.400 . S
C141 C135 1.491 . S
C141 C140 1.400 . S
C141 C142 1.398 . S
C142 H130 0.950 1_455 S
C142 C141 1.398 . S
C142 C143 1.391 . S
C143 H131 0.950 1_455 S
C143 C139 1.393 . S
C143 C142 1.391 . S
H144 C152 0.950 . S
H145 C157 0.950 . S
H146 C154 0.950 . S
H147 C156 0.950 . S
H148 C158 0.950 . S
H149 C160 0.950 . S
H150 C162 0.950 . S
H151 C163 0.950 . S
C152 H144 0.950 . S
C152 C153 1.386 . S
C152 C154 1.391 . S
C153 C152 1.386 . S
C153 C157 1.393 1_545 S
C154 H146 0.950 . S
C154 C152 1.391 . S
C154 C155 1.400 . S
C155 C154 1.400 . S
C155 C156 1.398 1_545 S
C155 C161 1.491 . S
C156 H147 0.950 . S
C156 C155 1.398 1_565 S
C156 C157 1.391 . S
C157 H145 0.950 . S
C157 C153 1.393 1_565 S
C157 C156 1.391 . S
C158 H148 0.950 . S
C158 C159 1.386 1_565 S
C158 C160 1.391 . S
C159 C158 1.386 1_545 S
C159 C163 1.393 . S
C160 H149 0.950 . S
C160 C158 1.391 . S
C160 C161 1.400 1_565 S
C161 C155 1.491 . S
C161 C160 1.400 1_545 S
C161 C162 1.398 . S
C162 H150 0.950 . S
C162 C161 1.398 . S
C162 C163 1.391 . S
C163 H151 0.950 . S
C163 C159 1.393 . S
C163 C162 1.391 . S
H164 C172 0.950 . S
H165 C177 0.950 . S
H166 C174 0.950 . S
H167 C176 0.950 1_556 S
H168 C178 0.950 . S
H169 C180 0.950 . S
H170 C182 0.950 1_554 S
H171 C183 0.950 . S
C172 H164 0.950 . S
C172 C173 1.386 . S
C172 C174 1.391 . S
C173 C172 1.386 . S
C173 C177 1.393 . S
C174 H166 0.950 . S
C174 C172 1.391 . S
C174 C175 1.400 . S
C175 C174 1.400 . S
C175 C176 1.398 . S
C175 C181 1.491 1_554 S
C176 H167 0.950 1_554 S
C176 C175 1.398 . S
C176 C177 1.391 . S
C177 H165 0.950 . S
C177 C173 1.393 . S
C177 C176 1.391 . S
C178 H168 0.950 . S
C178 C179 1.386 . S
C178 C180 1.391 . S
C179 C178 1.386 . S
C179 C183 1.393 . S
C180 H169 0.950 . S
C180 C178 1.391 . S
C180 C181 1.400 . S
C181 C175 1.491 1_556 S
C181 C180 1.400 . S
C181 C182 1.398 . S
C182 H170 0.950 1_556 S
C182 C181 1.398 . S
C182 C183 1.391 . S
C183 H171 0.950 . S
C183 C179 1.393 . S
C183 C182 1.391 . S
H184 C192 0.954 . S
H185 C197 0.950 . S
H186 C194 0.950 . S
H187 C196 0.950 . S
H188 C198 0.950 . S
H189 C200 0.950 . S
H190 C202 0.950 . S
H191 C203 0.950 . S
C192 H184 0.954 . S
C192 C193 1.386 . S
C192 C194 1.391 . S
C193 C192 1.386 . S
C193 C197 1.393 1_455 S
C194 H186 0.950 . S
C194 C192 1.391 . S
C194 C195 1.400 . S
C195 C194 1.400 . S
C195 C196 1.398 1_455 S
C195 C201 1.491 . S
C196 H187 0.950 . S
C196 C195 1.398 1_655 S
C196 C197 1.391 . S
C197 H185 0.950 . S
C197 C193 1.393 1_655 S
C197 C196 1.391 . S
C198 H188 0.950 . S
C198 C199 1.386 1_655 S
C198 C200 1.391 . S
C199 C198 1.386 1_455 S
C199 C203 1.393 . S
C200 H189 0.950 . S
C200 C198 1.391 . S
C200 C201 1.400 1_655 S
C201 C195 1.491 . S
C201 C200 1.400 1_455 S
C201 C202 1.398 . S
C202 H190 0.950 . S
C202 C201 1.398 . S
C202 C203 1.391 . S
C203 H191 0.950 . S
C203 C199 1.393 . S
C203 C202 1.391 . S
H204 C212 0.950 . S
H205 C217 0.950 . S
H206 C214 0.950 . S
H207 C216 0.950 . S
H208 C218 0.950 . S
H209 C220 0.950 . S
H210 C222 0.950 . S
H211 C223 0.950 . S
C212 H204 0.950 . S
C212 C213 1.386 . S
C212 C214 1.391 . S
C213 C212 1.386 . S
C213 C217 1.393 . S
C214 H206 0.950 . S
C214 C212 1.391 . S
C214 C215 1.400 . S
C215 C214 1.400 . S
C215 C216 1.398 . S
C215 C221 1.491 . S
C216 H207 0.950 . S
C216 C215 1.398 . S
C216 C217 1.391 . S
C217 H205 0.950 . S
C217 C213 1.393 . S
C217 C216 1.391 . S
C218 H208 0.950 . S
C218 C219 1.386 . S
C218 C220 1.391 . S
C219 C218 1.386 . S
C219 C223 1.393 . S
C220 H209 0.950 . S
C220 C218 1.391 . S
C220 C221 1.400 . S
C221 C215 1.491 . S
C221 C220 1.400 . S
C221 C222 1.398 . S
C222 H210 0.950 . S
C222 C221 1.398 . S
C222 C223 1.391 . S
C223 H211 0.950 . S
C223 C219 1.393 . S
C223 C222 1.391 . S
H224 C232 0.950 . S
H225 C237 0.950 . S
H226 C234 0.950 . S
H227 C236 0.950 . S
H228 C238 0.950 . S
H229 C240 0.950 . S
H230 C242 0.950 . S
H231 C243 0.950 . S
C232 H224 0.950 . S
C232 C233 1.386 . S
C232 C234 1.391 . S
C233 C232 1.386 . S
C233 C237 1.393 . S
C234 H226 0.950 . S
C234 C232 1.391 . S
C234 C235 1.400 . S
C235 C234 1.400 . S
C235 C236 1.398 . S
C235 C241 1.491 . S
C236 H227 0.950 . S
C236 C235 1.398 . S
C236 C237 1.391 . S
C237 H225 0.950 . S
C237 C233 1.393 . S
C237 C236 1.391 . S
C238 H228 0.950 . S
C238 C239 1.386 . S
C238 C240 1.391 . S
C239 C238 1.386 . S
C239 C243 1.393 . S
C240 H229 0.950 . S
C240 C238 1.391 . S
C240 C241 1.400 . S
C241 C235 1.491 . S
C241 C240 1.400 . S
C241 C242 1.398 . S
C242 H230 0.950 . S
C242 C241 1.398 . S
C242 C243 1.391 . S
C243 H231 0.950 . S
C243 C239 1.393 . S
C243 C242 1.391 . S
H244 C252 0.950 . S
H245 C257 0.950 . S
H246 C254 0.950 . S
H247 C256 0.950 . S
H248 C258 0.950 . S
H249 C260 0.950 . S
H250 C262 0.950 . S
H251 C263 0.950 . S
C252 H244 0.950 . S
C252 C253 1.386 . S
C252 C254 1.391 . S
C253 C252 1.386 . S
C253 C257 1.393 . S
C254 H246 0.950 . S
C254 C252 1.391 . S
C254 C255 1.400 . S
C255 C254 1.400 . S
C255 C256 1.398 . S
C255 C261 1.491 . S
C256 H247 0.950 . S
C256 C255 1.398 . S
C256 C257 1.391 . S
C257 H245 0.950 . S
C257 C253 1.393 . S
C257 C256 1.391 . S
C258 H248 0.950 . S
C258 C259 1.386 . S
C258 C260 1.391 . S
C259 C258 1.386 . S
C259 C263 1.393 . S
C260 H249 0.950 . S
C260 C258 1.391 . S
C260 C261 1.400 . S
C261 C255 1.491 . S
C261 C260 1.400 . S
C261 C262 1.398 . S
C262 H250 0.950 . S
C262 C261 1.398 . S
C262 C263 1.391 . S
C263 H251 0.950 . S
C263 C259 1.393 . S
C263 C262 1.391 . S
H264 C272 0.950 . S
H265 C277 0.950 . S
H266 C274 0.950 . S
H267 C276 0.950 . S
H268 C278 0.950 . S
H269 C280 0.950 . S
H270 C282 0.950 . S
H271 C283 0.950 . S
C272 H264 0.950 . S
C272 C273 1.386 . S
C272 C274 1.391 . S
C273 C272 1.386 . S
C273 C277 1.393 . S
C274 H266 0.950 . S
C274 C272 1.391 . S
C274 C275 1.400 . S
C275 C274 1.400 . S
C275 C276 1.398 . S
C275 C281 1.491 . S
C276 H267 0.950 . S
C276 C275 1.398 . S
C276 C277 1.391 . S
C277 H265 0.950 . S
C277 C273 1.393 . S
C277 C276 1.391 . S
C278 H268 0.950 . S
C278 C279 1.386 . S
C278 C280 1.391 . S
C279 C278 1.386 . S
C279 C283 1.393 . S
C280 H269 0.950 . S
C280 C278 1.391 . S
C280 C281 1.400 . S
C281 C275 1.491 . S
C281 C280 1.400 . S
C281 C282 1.398 . S
C282 H270 0.950 . S
C282 C281 1.398 . S
C282 C283 1.391 . S
C283 H271 0.950 . S
C283 C279 1.393 . S
C283 C282 1.391 . S
H284 C292 0.950 . S
H285 C297 0.950 . S
H286 C294 0.950 . S
H287 C296 0.950 . S
H288 C298 0.950 . S
H289 C300 0.950 . S
H290 C302 0.950 . S
H291 C303 0.950 . S
C292 H284 0.950 . S
C292 C293 1.386 . S
C292 C294 1.391 . S
C293 C292 1.386 . S
C293 C297 1.393 . S
C294 H286 0.950 . S
C294 C292 1.391 . S
C294 C295 1.400 . S
C295 C294 1.400 . S
C295 C296 1.398 . S
C295 C301 1.491 . S
C296 H287 0.950 . S
C296 C295 1.398 . S
C296 C297 1.391 . S
C297 H285 0.950 . S
C297 C293 1.393 . S
C297 C296 1.391 . S
C298 H288 0.950 . S
C298 C299 1.386 . S
C298 C300 1.391 . S
C299 C298 1.386 . S
C299 C303 1.393 . S
C300 H289 0.950 . S
C300 C298 1.391 . S
C300 C301 1.400 . S
C301 C295 1.491 . S
C301 C300 1.400 . S
C301 C302 1.398 . S
C302 H290 0.950 . S
C302 C301 1.398 . S
C302 C303 1.391 . S
C303 H291 0.950 . S
C303 C299 1.393 . S
C303 C302 1.391 . S
H304 C312 0.950 . S
H305 C317 0.950 . S
H306 C314 0.950 . S
H307 C316 0.950 . S
H308 C318 0.950 . S
H309 C320 0.950 . S
H310 C322 0.950 . S
H311 C323 0.950 . S
C312 H304 0.950 . S
C312 C313 1.386 . S
C312 C314 1.391 . S
C313 C312 1.386 . S
C313 C317 1.393 1_556 S
C314 H306 0.950 . S
C314 C312 1.391 . S
C314 C315 1.400 . S
C315 C314 1.400 . S
C315 C316 1.398 1_556 S
C315 C321 1.491 . S
C316 H307 0.950 . S
C316 C315 1.398 1_554 S
C316 C317 1.391 . S
C317 H305 0.950 . S
C317 C313 1.393 1_554 S
C317 C316 1.391 . S
C318 H308 0.950 . S
C318 C319 1.386 . S
C318 C320 1.391 . S
C319 C318 1.386 . S
C319 C323 1.393 1_554 S
C320 H309 0.950 . S
C320 C318 1.391 . S
C320 C321 1.400 1_554 S
C321 C315 1.491 . S
C321 C320 1.400 1_556 S
C321 C322 1.398 . S
C322 H310 0.950 . S
C322 C321 1.398 . S
C322 C323 1.391 . S
C323 H311 0.950 . S
C323 C319 1.393 1_556 S
C323 C322 1.391 . S
C93 C9 1.826 1_545 S
C99 C50 1.817 1_545 S
C113 C23 1.819 . S
C119 C64 1.826 . S
C133 C78 1.819 . S
C139 C37 1.826 . S
C153 C8 1.823 . S
C159 C51 1.820 . S
C173 C22 1.818 . S
C179 C65 1.826 . S
C193 C79 1.815 1_554 S
C199 C36 1.832 . S
C213 C20 1.428 . S
C219 C7 1.419 . S
C233 C34 1.446 . S
C239 C21 1.427 . S
C253 C35 1.432 . S
C259 C48 1.446 . S
C273 C62 1.443 . S
C279 C49 1.421 . S
C293 C76 1.442 . S
C299 C63 1.441 . S
C313 C77 1.445 . S
C319 C6 1.434 . S
