# Generated by pormake.
# Topology soi, (5)-cn, num edge types: 1
# Building blocks:
#     Node 0, Type 0, BuildingBlock: XOMCOT_clean_sbu_1, # of connection points: 5
#     Node 1, Type 0, BuildingBlock: XOMCOT_clean_sbu_1, # of connection points: 5
#     Node 2, Type 0, BuildingBlock: XOMCOT_clean_sbu_1, # of connection points: 5
#     Node 3, Type 0, BuildingBlock: XOMCOT_clean_sbu_1, # of connection points: 5
#     Node 4, Type 0, BuildingBlock: XOMCOT_clean_sbu_1, # of connection points: 5
#     Node 5, Type 0, BuildingBlock: XOMCOT_clean_sbu_1, # of connection points: 5
#     Node 6, Type 0, BuildingBlock: XOMCOT_clean_sbu_1, # of connection points: 5
#     Node 7, Type 0, BuildingBlock: XOMCOT_clean_sbu_1, # of connection points: 5
#     Node 8, Type 0, BuildingBlock: XOMCOT_clean_sbu_1, # of connection points: 5
#     Node 9, Type 0, BuildingBlock: XOMCOT_clean_sbu_1, # of connection points: 5
#     Node 10, Type 0, BuildingBlock: XOMCOT_clean_sbu_1, # of connection points: 5
#     Node 11, Type 0, BuildingBlock: XOMCOT_clean_sbu_1, # of connection points: 5
#     Node 12, Type 0, BuildingBlock: XOMCOT_clean_sbu_1, # of connection points: 5
#     Node 13, Type 0, BuildingBlock: XOMCOT_clean_sbu_1, # of connection points: 5
#     Node 14, Type 0, BuildingBlock: XOMCOT_clean_sbu_1, # of connection points: 5
#     Node 15, Type 0, BuildingBlock: XOMCOT_clean_sbu_1, # of connection points: 5
#     Edge 16, Type (0, 0), BuildingBlock: XIVTED_clean_linker_0, # of connection points: 2
#     Edge 17, Type (0, 0), BuildingBlock: XIVTED_clean_linker_0, # of connection points: 2
#     Edge 18, Type (0, 0), BuildingBlock: XIVTED_clean_linker_0, # of connection points: 2
#     Edge 19, Type (0, 0), BuildingBlock: XIVTED_clean_linker_0, # of connection points: 2
#     Edge 20, Type (0, 0), BuildingBlock: XIVTED_clean_linker_0, # of connection points: 2
#     Edge 21, Type (0, 0), BuildingBlock: XIVTED_clean_linker_0, # of connection points: 2
#     Edge 22, Type (0, 0), BuildingBlock: XIVTED_clean_linker_0, # of connection points: 2
#     Edge 23, Type (0, 0), BuildingBlock: XIVTED_clean_linker_0, # of connection points: 2
#     Edge 24, Type (0, 0), BuildingBlock: XIVTED_clean_linker_0, # of connection points: 2
#     Edge 25, Type (0, 0), BuildingBlock: XIVTED_clean_linker_0, # of connection points: 2
#     Edge 26, Type (0, 0), BuildingBlock: XIVTED_clean_linker_0, # of connection points: 2
#     Edge 27, Type (0, 0), BuildingBlock: XIVTED_clean_linker_0, # of connection points: 2
#     Edge 28, Type (0, 0), BuildingBlock: XIVTED_clean_linker_0, # of connection points: 2
#     Edge 29, Type (0, 0), BuildingBlock: XIVTED_clean_linker_0, # of connection points: 2
#     Edge 30, Type (0, 0), BuildingBlock: XIVTED_clean_linker_0, # of connection points: 2
#     Edge 31, Type (0, 0), BuildingBlock: XIVTED_clean_linker_0, # of connection points: 2
#     Edge 32, Type (0, 0), BuildingBlock: XIVTED_clean_linker_0, # of connection points: 2
#     Edge 33, Type (0, 0), BuildingBlock: XIVTED_clean_linker_0, # of connection points: 2
#     Edge 34, Type (0, 0), BuildingBlock: XIVTED_clean_linker_0, # of connection points: 2
#     Edge 35, Type (0, 0), BuildingBlock: XIVTED_clean_linker_0, # of connection points: 2
#     Edge 36, Type (0, 0), BuildingBlock: XIVTED_clean_linker_0, # of connection points: 2
#     Edge 37, Type (0, 0), BuildingBlock: XIVTED_clean_linker_0, # of connection points: 2
#     Edge 38, Type (0, 0), BuildingBlock: XIVTED_clean_linker_0, # of connection points: 2
#     Edge 39, Type (0, 0), BuildingBlock: XIVTED_clean_linker_0, # of connection points: 2
#     Edge 40, Type (0, 0), BuildingBlock: XIVTED_clean_linker_0, # of connection points: 2
#     Edge 41, Type (0, 0), BuildingBlock: XIVTED_clean_linker_0, # of connection points: 2
#     Edge 42, Type (0, 0), BuildingBlock: XIVTED_clean_linker_0, # of connection points: 2
#     Edge 43, Type (0, 0), BuildingBlock: XIVTED_clean_linker_0, # of connection points: 2
#     Edge 44, Type (0, 0), BuildingBlock: XIVTED_clean_linker_0, # of connection points: 2
#     Edge 45, Type (0, 0), BuildingBlock: XIVTED_clean_linker_0, # of connection points: 2
#     Edge 46, Type (0, 0), BuildingBlock: XIVTED_clean_linker_0, # of connection points: 2
#     Edge 47, Type (0, 0), BuildingBlock: XIVTED_clean_linker_0, # of connection points: 2
#     Edge 48, Type (0, 0), BuildingBlock: XIVTED_clean_linker_0, # of connection points: 2
#     Edge 49, Type (0, 0), BuildingBlock: XIVTED_clean_linker_0, # of connection points: 2
#     Edge 50, Type (0, 0), BuildingBlock: XIVTED_clean_linker_0, # of connection points: 2
#     Edge 51, Type (0, 0), BuildingBlock: XIVTED_clean_linker_0, # of connection points: 2
#     Edge 52, Type (0, 0), BuildingBlock: XIVTED_clean_linker_0, # of connection points: 2
#     Edge 53, Type (0, 0), BuildingBlock: XIVTED_clean_linker_0, # of connection points: 2
#     Edge 54, Type (0, 0), BuildingBlock: XIVTED_clean_linker_0, # of connection points: 2
#     Edge 55, Type (0, 0), BuildingBlock: XIVTED_clean_linker_0, # of connection points: 2
# Relax obj value: 0.119
# Max RMSD: 0.164
# Mean RMSD: 0.164
data_MOF--net-soi--node1-XOMCOT_clean_sbu_1--edge1-XIVTED_clean_linker_0
_symmetry_space_group_name_H-M    P1
_symmetry_Int_Tables_number       1
_symmetry_cell_setting            triclinic
loop_
_symmetry_equiv_pos_as_xyz
'x, y, z'
_cell_length_a     47.574152
_cell_length_b     25.755139
_cell_length_c     66.666232
_cell_angle_alpha  89.529828
_cell_angle_beta   90.039682
_cell_angle_gamma 89.989453
loop_
_atom_site_label
_atom_site_type_symbol
_atom_site_fract_x
_atom_site_fract_y
_atom_site_fract_z
_atom_type_partial_charge
C0 C 0.34197 0.04199 0.09544 0.0
C1 C 0.33141 0.05279 0.07672 0.0
N2 N 0.30384 0.064 0.07851 0.0
N3 N 0.32134 0.04683 0.10913 0.0
C4 C 0.29827 0.06003 0.0984 0.0
H5 H 0.36318 0.02959 0.09884 0.0
Co6 Co 0.32594 0.02955 0.13615 0.0
C7 C 0.30282 0.12442 0.15552 0.0
O8 O 0.32582 0.12857 0.16634 0.0
N9 N 0.33094 0.00796 0.16296 0.0
C10 C 0.3444 0.95144 0.18656 0.0
C11 C 0.34532 0.96366 0.16651 0.0
C12 C 0.32038 0.02074 0.18117 0.0
N13 N 0.32876 0.9875 0.19582 0.0
O14 O 0.2955 0.98141 0.13463 0.0
H15 H 0.35556 0.94107 0.15502 0.0
H16 H 0.30564 0.05181 0.18372 0.0
O17 O 0.29985 0.08583 0.14367 0.0
C18 C 0.30004 0.94013 0.12474 0.0
O19 O 0.32374 0.93548 0.11481 0.0
N20 N 0.3573 0.07491 0.13723 0.0
C21 C 0.40536 0.13689 0.13567 0.0
C22 C 0.37946 0.15621 0.12902 0.0
C23 C 0.35585 0.12427 0.12951 0.0
C24 C 0.38264 0.05504 0.14308 0.0
C25 C 0.40688 0.0855 0.1426 0.0
H26 H 0.33638 0.1391 0.12337 0.0
H27 H 0.38451 0.01497 0.14758 0.0
H28 H 0.27771 0.06497 0.10503 0.0
H29 H 0.3429 0.04971 0.06278 0.0
H30 H 0.35465 0.91873 0.19376 0.0
H31 H 0.37763 0.19521 0.12295 0.0
H32 H 0.42666 0.06891 0.14755 0.0
C33 C 0.6439 0.4759 0.10067 0.0
C34 C 0.65555 0.47264 0.08195 0.0
N35 N 0.68266 0.45859 0.08397 0.0
N36 N 0.66337 0.46332 0.1146 0.0
C37 C 0.68701 0.45351 0.10396 0.0
H38 H 0.62268 0.48813 0.10391 0.0
Co39 Co 0.65632 0.46512 0.14216 0.0
C40 C 0.68406 0.37265 0.15985 0.0
O41 O 0.66315 0.3686 0.17262 0.0
N42 N 0.64893 0.46875 0.17025 0.0
C43 C 0.62964 0.4622 0.20068 0.0
C44 C 0.62491 0.45843 0.18048 0.0
C45 C 0.66779 0.48019 0.1849 0.0
N46 N 0.65655 0.47576 0.20342 0.0
O47 O 0.68472 0.51689 0.1451 0.0
H48 H 0.60504 0.44724 0.1742 0.0
H49 H 0.68963 0.4895 0.18213 0.0
O50 O 0.6841 0.40953 0.14681 0.0
C51 C 0.67696 0.56115 0.1385 0.0
O52 O 0.65174 0.56611 0.13067 0.0
N53 N 0.6269 0.41742 0.13819 0.0
C54 C 0.57885 0.35747 0.13239 0.0
C55 C 0.60569 0.33498 0.13131 0.0
C56 C 0.62951 0.366 0.13367 0.0
C57 C 0.60121 0.44069 0.13717 0.0
C58 C 0.57689 0.41145 0.1346 0.0
H59 H 0.64983 0.34837 0.13162 0.0
H60 H 0.59962 0.48227 0.13909 0.0
H61 H 0.70697 0.4433 0.11072 0.0
H62 H 0.64511 0.48178 0.06792 0.0
H63 H 0.61449 0.45534 0.21253 0.0
H64 H 0.60837 0.29373 0.129 0.0
H65 H 0.55674 0.43103 0.1345 0.0
C66 C 0.35093 0.97597 0.44565 0.0
C67 C 0.33847 0.96871 0.46404 0.0
N68 N 0.31125 0.95643 0.46111 0.0
N69 N 0.33183 0.96748 0.43111 0.0
C70 C 0.30769 0.95628 0.44097 0.0
H71 H 0.37248 0.98743 0.44299 0.0
Co72 Co 0.33922 0.97653 0.40387 0.0
C73 C 0.31761 0.87953 0.38643 0.0
O74 O 0.34132 0.87512 0.37646 0.0
N75 N 0.34667 0.99003 0.37635 0.0
C76 C 0.36288 0.03605 0.35034 0.0
C77 C 0.36494 0.02745 0.37058 0.0
C78 C 0.33279 0.97816 0.35916 0.0
N79 N 0.34265 0.00502 0.34312 0.0
O80 O 0.30934 0.02557 0.4024 0.0
H81 H 0.37798 0.04966 0.38063 0.0
H82 H 0.31457 0.95321 0.35846 0.0
O83 O 0.3134 0.91939 0.39741 0.0
C84 C 0.31767 0.07187 0.40525 0.0
O85 O 0.3444 0.08025 0.40893 0.0
N86 N 0.37006 0.9294 0.40629 0.0
C87 C 0.41669 0.86522 0.41338 0.0
C88 C 0.38973 0.84999 0.41953 0.0
C89 C 0.36682 0.88274 0.41602 0.0
C90 C 0.39634 0.94553 0.40097 0.0
C91 C 0.41973 0.91373 0.40392 0.0
H92 H 0.34648 0.87098 0.42165 0.0
H93 H 0.3998 0.98382 0.39505 0.0
H94 H 0.2879 0.94871 0.43352 0.0
H95 H 0.34847 0.97383 0.47848 0.0
H96 H 0.37495 0.06389 0.34166 0.0
H97 H 0.38635 0.81377 0.42752 0.0
H98 H 0.44007 0.92756 0.39895 0.0
C99 C 0.65826 0.50137 0.44529 0.0
C100 C 0.6681 0.50445 0.46459 0.0
N101 N 0.69004 0.53757 0.46486 0.0
N102 N 0.67386 0.53221 0.4333 0.0
C103 C 0.69318 0.55374 0.44559 0.0
H104 H 0.64065 0.47833 0.44027 0.0
Co105 Co 0.66602 0.5396 0.40614 0.0
C106 C 0.69098 0.63928 0.39293 0.0
O107 O 0.66808 0.64729 0.38237 0.0
N108 N 0.65752 0.54523 0.37803 0.0
C109 C 0.63797 0.56435 0.34837 0.0
C110 C 0.63444 0.56514 0.36874 0.0
C111 C 0.67452 0.53169 0.36253 0.0
N112 N 0.66312 0.54335 0.34449 0.0
O113 O 0.69485 0.48986 0.40045 0.0
H114 H 0.61642 0.5821 0.37585 0.0
H115 H 0.69523 0.51495 0.36432 0.0
O116 O 0.6933 0.59763 0.40351 0.0
C117 C 0.68582 0.44327 0.40127 0.0
O118 O 0.65893 0.43558 0.40468 0.0
N119 N 0.63643 0.58423 0.41316 0.0
C120 C 0.58895 0.64251 0.42271 0.0
C121 C 0.61606 0.66177 0.42648 0.0
C122 C 0.63955 0.63162 0.42192 0.0
C123 C 0.61048 0.56206 0.41213 0.0
C124 C 0.58638 0.59104 0.41613 0.0
H125 H 0.66012 0.64646 0.42558 0.0
H126 H 0.60845 0.52261 0.40686 0.0
H127 H 0.70885 0.58137 0.44059 0.0
H128 H 0.65986 0.48326 0.47737 0.0
H129 H 0.62317 0.57819 0.3372 0.0
H130 H 0.6192 0.69986 0.43285 0.0
H131 H 0.56607 0.57368 0.41327 0.0
C132 C 0.63635 0.97619 0.94617 0.0
C133 C 0.64709 0.98224 0.96519 0.0
N134 N 0.67409 0.9662 0.96525 0.0
N135 N 0.65638 0.95608 0.93428 0.0
C136 C 0.67917 0.9507 0.94624 0.0
H137 H 0.61538 0.98631 0.94123 0.0
Co138 Co 0.65276 0.94263 0.90704 0.0
C139 C 0.70166 0.87791 0.89844 0.0
O140 O 0.70966 0.91313 0.88526 0.0
N141 N 0.64919 0.92854 0.87937 0.0
C142 C 0.64415 0.88317 0.85137 0.0
C143 C 0.64394 0.88095 0.87189 0.0
C144 C 0.65259 0.95915 0.8629 0.0
N145 N 0.64981 0.9323 0.84557 0.0
O146 O 0.68173 0.9927 0.90198 0.0
H147 H 0.64072 0.84622 0.88082 0.0
H148 H 0.65782 0.99992 0.86362 0.0
O149 O 0.67981 0.88597 0.90906 0.0
C150 C 0.67309 0.03958 0.9015 0.0
O151 O 0.6459 0.04831 0.90237 0.0
N152 N 0.62301 0.8972 0.91267 0.0
C153 C 0.57589 0.83517 0.91925 0.0
C154 C 0.60227 0.82037 0.9268 0.0
C155 C 0.62557 0.85238 0.92359 0.0
C156 C 0.59743 0.91308 0.90579 0.0
C157 C 0.57355 0.88257 0.90888 0.0
H158 H 0.64555 0.84119 0.92998 0.0
H159 H 0.59568 0.94941 0.89762 0.0
H160 H 0.6991 0.93572 0.94105 0.0
H161 H 0.63598 0.99839 0.97785 0.0
H162 H 0.64041 0.85067 0.84155 0.0
H163 H 0.60479 0.78461 0.93528 0.0
H164 H 0.55358 0.89539 0.90279 0.0
C165 C 0.32915 0.47321 0.93917 0.0
C166 C 0.31779 0.47446 0.95802 0.0
N167 N 0.29548 0.50658 0.95769 0.0
N168 N 0.31435 0.50468 0.92686 0.0
C169 C 0.29363 0.52427 0.93852 0.0
H170 H 0.34726 0.45079 0.93469 0.0
Co171 Co 0.32558 0.5131 0.90027 0.0
C172 C 0.29934 0.61021 0.88443 0.0
O173 O 0.32148 0.61731 0.87299 0.0
N174 N 0.33799 0.51897 0.87308 0.0
C175 C 0.36448 0.53305 0.84599 0.0
C176 C 0.3641 0.53133 0.86649 0.0
C177 C 0.32307 0.51198 0.8559 0.0
N178 N 0.33871 0.52114 0.83926 0.0
O179 O 0.29765 0.46319 0.89237 0.0
H180 H 0.38217 0.53942 0.8756 0.0
H181 H 0.301 0.50185 0.85557 0.0
O182 O 0.29829 0.57058 0.89622 0.0
C183 C 0.30629 0.41632 0.89324 0.0
O184 O 0.33274 0.40784 0.89793 0.0
N185 N 0.35421 0.55843 0.90925 0.0
C186 C 0.40206 0.61477 0.92003 0.0
C187 C 0.37569 0.63911 0.91855 0.0
C188 C 0.35188 0.60994 0.91372 0.0
C189 C 0.37891 0.5332 0.91291 0.0
C190 C 0.40313 0.56058 0.91807 0.0
H191 H 0.33186 0.62936 0.91359 0.0
H192 H 0.38018 0.49174 0.91059 0.0
H193 H 0.27788 0.55145 0.93324 0.0
H194 H 0.32516 0.45278 0.97098 0.0
H195 H 0.38254 0.5418 0.83668 0.0
H196 H 0.37342 0.68057 0.92052 0.0
H197 H 0.42262 0.53943 0.92003 0.0
C198 C 0.65329 0.00441 0.60428 0.0
C199 C 0.66292 0.00145 0.58484 0.0
N200 N 0.68854 0.0238 0.58391 0.0
N201 N 0.67266 0.0286 0.61559 0.0
C202 C 0.69394 0.03964 0.60283 0.0
H203 H 0.63328 0.99042 0.6098 0.0
Co204 Co 0.66887 0.04501 0.64267 0.0
C205 C 0.71633 0.11553 0.65019 0.0
O206 O 0.72327 0.08846 0.66623 0.0
N207 N 0.66483 0.06215 0.66998 0.0
C208 C 0.65821 0.10921 0.69737 0.0
C209 C 0.66005 0.1105 0.67686 0.0
C210 C 0.66573 0.03203 0.68672 0.0
N211 N 0.66191 0.05984 0.70371 0.0
O212 O 0.69817 0.9962 0.64908 0.0
H213 H 0.65807 0.14483 0.66752 0.0
H214 H 0.66944 0.99064 0.68642 0.0
O215 O 0.6956 0.10136 0.63943 0.0
C216 C 0.68877 0.9498 0.64909 0.0
O217 O 0.66176 0.94275 0.64594 0.0
N218 N 0.63897 0.08899 0.63614 0.0
C219 C 0.59106 0.14802 0.62816 0.0
C220 C 0.61725 0.16233 0.62008 0.0
C221 C 0.64099 0.13205 0.62415 0.0
C222 C 0.61364 0.07348 0.64355 0.0
C223 C 0.58947 0.10265 0.63991 0.0
H224 H 0.66088 0.14304 0.61755 0.0
H225 H 0.61235 0.03853 0.65262 0.0
H226 H 0.7128 0.05996 0.60727 0.0
H227 H 0.65191 0.98389 0.57242 0.0
H228 H 0.65408 0.14236 0.70677 0.0
H229 H 0.61935 0.19633 0.61054 0.0
H230 H 0.56983 0.09022 0.6466 0.0
C231 C 0.36011 0.50808 0.59426 0.0
C232 C 0.34994 0.5188 0.57528 0.0
N233 N 0.32208 0.50876 0.57501 0.0
N234 N 0.33882 0.49105 0.60587 0.0
C235 C 0.31602 0.49203 0.59379 0.0
H236 H 0.38153 0.51302 0.59935 0.0
Co237 Co 0.33919 0.47337 0.63309 0.0
C238 C 0.28719 0.41251 0.63494 0.0
O239 O 0.27581 0.44719 0.64677 0.0
N240 N 0.33871 0.45467 0.66045 0.0
C241 C 0.33619 0.40476 0.68776 0.0
C242 C 0.33966 0.40525 0.66735 0.0
C243 C 0.33484 0.48368 0.67708 0.0
N244 N 0.33299 0.45405 0.69393 0.0
O245 O 0.31086 0.5244 0.63754 0.0
H246 H 0.34207 0.37136 0.65802 0.0
H247 H 0.33247 0.52546 0.67678 0.0
O248 O 0.31194 0.41939 0.62817 0.0
C249 C 0.32103 0.57014 0.63687 0.0
O250 O 0.34826 0.57575 0.63432 0.0
N251 N 0.36869 0.42717 0.62863 0.0
C252 C 0.41643 0.36585 0.62371 0.0
C253 C 0.39132 0.35393 0.61362 0.0
C254 C 0.36765 0.38544 0.61616 0.0
C255 C 0.39297 0.44001 0.63818 0.0
C256 C 0.41701 0.40967 0.63608 0.0
H257 H 0.34872 0.37679 0.60789 0.0
H258 H 0.39356 0.47396 0.64762 0.0
H259 H 0.29528 0.48074 0.5988 0.0
H260 H 0.3621 0.53388 0.56282 0.0
H261 H 0.33606 0.37061 0.69732 0.0
H262 H 0.39011 0.32113 0.6036 0.0
H263 H 0.43577 0.42016 0.64431 0.0
C264 C 0.85417 0.56521 0.59976 0.0
C265 C 0.84315 0.57464 0.58106 0.0
N266 N 0.81513 0.5808 0.58284 0.0
N267 N 0.83336 0.56616 0.61345 0.0
C268 C 0.80973 0.57546 0.60271 0.0
H269 H 0.87585 0.55582 0.60308 0.0
Co270 Co 0.83822 0.54634 0.64023 0.0
C271 C 0.8152 0.63825 0.66127 0.0
O272 O 0.83797 0.64022 0.67242 0.0
N273 N 0.84338 0.5219 0.66656 0.0
C274 C 0.85689 0.46001 0.6879 0.0
C275 C 0.85784 0.47712 0.66847 0.0
C276 C 0.83267 0.53014 0.68516 0.0
N277 N 0.84099 0.49318 0.69846 0.0
O278 O 0.8077 0.49805 0.63815 0.0
H279 H 0.86787 0.45726 0.65616 0.0
H280 H 0.81758 0.55998 0.68873 0.0
O281 O 0.8122 0.6015 0.64861 0.0
C282 C 0.81148 0.45732 0.62776 0.0
O283 O 0.83453 0.45306 0.61706 0.0
N284 N 0.86965 0.5921 0.64209 0.0
C285 C 0.91751 0.65549 0.64322 0.0
C286 C 0.89196 0.67446 0.63559 0.0
C287 C 0.8684 0.64211 0.63501 0.0
C288 C 0.89467 0.57254 0.64871 0.0
C289 C 0.91857 0.60369 0.64982 0.0
H290 H 0.84914 0.65716 0.6286 0.0
H291 H 0.89669 0.53231 0.65284 0.0
H292 H 0.78894 0.57598 0.60926 0.0
H293 H 0.85473 0.57364 0.5671 0.0
H294 H 0.86678 0.42518 0.69374 0.0
H295 H 0.89023 0.7136 0.62967 0.0
H296 H 0.93772 0.58695 0.6558 0.0
C297 C 0.14355 0.97152 0.59725 0.0
C298 C 0.15055 0.96414 0.57739 0.0
N299 N 0.17841 0.95472 0.57627 0.0
N300 N 0.16687 0.96654 0.60859 0.0
C301 C 0.18767 0.95642 0.59542 0.0
H302 H 0.12297 0.98126 0.603 0.0
Co303 Co 0.17165 0.97868 0.63592 0.0
C304 C 0.20184 0.88811 0.65133 0.0
O305 O 0.18477 0.88982 0.6668 0.0
N306 N 0.1782 0.99277 0.66366 0.0
C307 C 0.2053 0.01168 0.68996 0.0
C308 C 0.20479 0.00266 0.66981 0.0
C309 C 0.16285 0.99597 0.68082 0.0
N310 N 0.17895 0.00748 0.69697 0.0
O311 O 0.19916 0.02991 0.62935 0.0
H312 H 0.22316 0.00183 0.66028 0.0
H313 H 0.14048 0.98974 0.68175 0.0
O314 O 0.19984 0.92257 0.63741 0.0
C315 C 0.1864 0.07304 0.62711 0.0
O316 O 0.15883 0.07331 0.62845 0.0
N317 N 0.14214 0.93191 0.64139 0.0
C318 C 0.09326 0.8721 0.64476 0.0
C319 C 0.1178 0.85139 0.63631 0.0
C320 C 0.1418 0.88211 0.63445 0.0
C321 C 0.11808 0.9536 0.64855 0.0
C322 C 0.09365 0.92411 0.65091 0.0
H323 H 0.15964 0.86649 0.62651 0.0
H324 H 0.11756 0.9946 0.65189 0.0
H325 H 0.2095 0.95304 0.59979 0.0
H326 H 0.13628 0.96638 0.56477 0.0
H327 H 0.22387 0.01884 0.69891 0.0
H328 H 0.11819 0.81244 0.63032 0.0
H329 H 0.07518 0.94232 0.6572 0.0
C330 C 0.83959 0.50448 0.94235 0.0
C331 C 0.83043 0.51007 0.96183 0.0
N332 N 0.80745 0.48012 0.96448 0.0
N333 N 0.82265 0.47075 0.93283 0.0
C334 C 0.80314 0.45709 0.9466 0.0
H335 H 0.8575 0.52354 0.93555 0.0
Co336 Co 0.82535 0.44936 0.90618 0.0
C337 C 0.80661 0.33843 0.91594 0.0
O338 O 0.83255 0.32163 0.91694 0.0
N339 N 0.82704 0.42833 0.87882 0.0
C340 C 0.83079 0.37847 0.85186 0.0
C341 C 0.82987 0.37907 0.87232 0.0
C342 C 0.82646 0.45716 0.86164 0.0
N343 N 0.82889 0.42759 0.845 0.0
O344 O 0.79252 0.48997 0.90042 0.0
H345 H 0.83224 0.34516 0.8816 0.0
H346 H 0.82508 0.49902 0.86128 0.0
O347 O 0.80158 0.38648 0.91195 0.0
C348 C 0.80139 0.53579 0.89665 0.0
O349 O 0.82869 0.54372 0.89625 0.0
N350 N 0.86023 0.41551 0.91204 0.0
C351 C 0.91221 0.36741 0.91785 0.0
C352 C 0.8924 0.3684 0.93335 0.0
C353 C 0.86672 0.39368 0.9303 0.0
C354 C 0.88095 0.42081 0.89798 0.0
C355 C 0.90672 0.39583 0.90031 0.0
H356 H 0.8513 0.39205 0.94217 0.0
H357 H 0.87758 0.44391 0.88461 0.0
H358 H 0.78623 0.43023 0.9436 0.0
H359 H 0.83977 0.53487 0.97303 0.0
H360 H 0.83281 0.34403 0.84279 0.0
H361 H 0.89607 0.3477 0.94732 0.0
H362 H 0.92211 0.39821 0.88837 0.0
C363 C 0.1498 0.98271 0.94301 0.0
C364 C 0.16061 0.99037 0.96178 0.0
N365 N 0.18075 0.02699 0.9605 0.0
N366 N 0.16298 0.0141 0.92981 0.0
C367 C 0.18195 0.04067 0.94085 0.0
H368 H 0.13295 0.9564 0.93921 0.0
Co369 Co 0.15093 0.015 0.90345 0.0
C370 C 0.17536 0.11004 0.88455 0.0
O371 O 0.15169 0.11662 0.87467 0.0
N372 N 0.13748 0.01222 0.87669 0.0
C373 C 0.1094 0.99485 0.85085 0.0
C374 C 0.11106 0.99911 0.87124 0.0
C375 C 0.15177 0.01372 0.85906 0.0
N376 N 0.13499 0.00393 0.8431 0.0
O377 O 0.17842 0.9633 0.89699 0.0
H378 H 0.09395 0.99032 0.88122 0.0
H379 H 0.17419 0.02031 0.85802 0.0
O380 O 0.17801 0.07095 0.89648 0.0
C381 C 0.16985 0.9166 0.89885 0.0
O382 O 0.14355 0.90849 0.90401 0.0
N383 N 0.12291 0.06315 0.91096 0.0
C384 C 0.0772 0.12601 0.92022 0.0
C385 C 0.10444 0.14666 0.91984 0.0
C386 C 0.12718 0.11413 0.91571 0.0
C387 C 0.09726 0.04138 0.91441 0.0
C388 C 0.07389 0.07223 0.91839 0.0
H389 H 0.14802 0.13033 0.91645 0.0
H390 H 0.09483 0.99971 0.91377 0.0
H391 H 0.19575 0.07024 0.93476 0.0
H392 H 0.15426 0.97011 0.97532 0.0
H393 H 0.09071 0.98512 0.84241 0.0
H394 H 0.1081 0.1877 0.92212 0.0
H395 H 0.05339 0.05426 0.91982 0.0
C396 C 0.14749 0.50997 0.44285 0.0
C397 C 0.15745 0.52378 0.46147 0.0
N398 N 0.18581 0.52348 0.46099 0.0
N399 N 0.16943 0.50003 0.43068 0.0
C400 C 0.19236 0.51061 0.44193 0.0
H401 H 0.12564 0.50623 0.43861 0.0
Co402 Co 0.16895 0.47699 0.40399 0.0
C403 C 0.20621 0.39443 0.42446 0.0
O404 O 0.2 0.40518 0.44316 0.0
N405 N 0.1689 0.45435 0.37726 0.0
C406 C 0.16956 0.40174 0.351 0.0
C407 C 0.17011 0.40423 0.37154 0.0
C408 C 0.16736 0.48166 0.35985 0.0
N409 N 0.16787 0.45044 0.34358 0.0
O410 O 0.19923 0.5234 0.39806 0.0
H411 H 0.17089 0.37129 0.3817 0.0
H412 H 0.16603 0.52357 0.35914 0.0
O413 O 0.19542 0.42046 0.40997 0.0
C414 C 0.19022 0.56978 0.39609 0.0
O415 O 0.16301 0.57797 0.39741 0.0
N416 N 0.13743 0.43456 0.40926 0.0
C417 C 0.08782 0.37778 0.41331 0.0
C418 C 0.11098 0.36708 0.42563 0.0
C419 C 0.13564 0.39591 0.42335 0.0
C420 C 0.11456 0.44703 0.39784 0.0
C421 C 0.08969 0.41857 0.39937 0.0
H422 H 0.15282 0.38731 0.43318 0.0
H423 H 0.11577 0.47896 0.38724 0.0
H424 H 0.21358 0.50553 0.43646 0.0
H425 H 0.14463 0.53233 0.47443 0.0
H426 H 0.16971 0.36656 0.34223 0.0
H427 H 0.11023 0.33605 0.43669 0.0
H428 H 0.07203 0.42856 0.38982 0.0
C429 C 0.85054 0.01368 0.44661 0.0
C430 C 0.83881 0.01424 0.46536 0.0
N431 N 0.81341 0.03713 0.46409 0.0
N432 N 0.83288 0.03653 0.43344 0.0
C433 C 0.81015 0.05003 0.44447 0.0
H434 H 0.87062 0.99692 0.44273 0.0
Co435 Co 0.84207 0.04144 0.40636 0.0
C436 C 0.81708 0.13858 0.39059 0.0
O437 O 0.83986 0.14454 0.37969 0.0
N438 N 0.85201 0.04391 0.37851 0.0
C439 C 0.87496 0.05326 0.34951 0.0
C440 C 0.87738 0.05327 0.36994 0.0
C441 C 0.83466 0.03692 0.36253 0.0
N442 N 0.84813 0.04315 0.3448 0.0
O443 O 0.81368 0.9911 0.40053 0.0
H444 H 0.89689 0.06027 0.37751 0.0
H445 H 0.81242 0.02871 0.36384 0.0
O446 O 0.81483 0.09886 0.40224 0.0
C447 C 0.82197 0.94445 0.40317 0.0
O448 O 0.8482 0.93643 0.40855 0.0
N449 N 0.87125 0.08764 0.41338 0.0
C450 C 0.91844 0.14782 0.42122 0.0
C451 C 0.89145 0.16877 0.42345 0.0
C452 C 0.86798 0.1375 0.41989 0.0
C453 C 0.89709 0.06491 0.4143 0.0
C454 C 0.92113 0.09464 0.41749 0.0
H455 H 0.84739 0.15378 0.42228 0.0
H456 H 0.89918 0.02396 0.4111 0.0
H457 H 0.7917 0.06883 0.43829 0.0
H458 H 0.84798 0.99768 0.47883 0.0
H459 H 0.89185 0.05936 0.33887 0.0
H460 H 0.88851 0.20926 0.42717 0.0
H461 H 0.94164 0.07655 0.41652 0.0
C462 C 0.13891 0.49122 0.09971 0.0
C463 C 0.14773 0.4882 0.08008 0.0
N464 N 0.17344 0.50995 0.07865 0.0
N465 N 0.15889 0.51488 0.11065 0.0
C466 C 0.17975 0.5255 0.09747 0.0
H467 H 0.11903 0.47768 0.10561 0.0
Co468 Co 0.15583 0.53149 0.13777 0.0
C469 C 0.20449 0.59874 0.14494 0.0
O470 O 0.21122 0.57091 0.16084 0.0
N471 N 0.15246 0.5491 0.16509 0.0
C472 C 0.14737 0.59784 0.19223 0.0
C473 C 0.14858 0.59801 0.17172 0.0
C474 C 0.15352 0.51972 0.18205 0.0
N475 N 0.15044 0.54862 0.19883 0.0
O476 O 0.18466 0.48169 0.14396 0.0
H477 H 0.14732 0.63217 0.16223 0.0
H478 H 0.15646 0.47808 0.18208 0.0
O479 O 0.18335 0.58611 0.1343 0.0
C480 C 0.17562 0.43507 0.14405 0.0
O481 O 0.14868 0.42714 0.14097 0.0
N482 N 0.12638 0.57681 0.13149 0.0
C483 C 0.07899 0.63846 0.12572 0.0
C484 C 0.10542 0.65536 0.11903 0.0
C485 C 0.12891 0.62347 0.12176 0.0
C486 C 0.10073 0.55907 0.13746 0.0
C487 C 0.07668 0.58925 0.13467 0.0
H488 H 0.14905 0.63677 0.11631 0.0
H489 H 0.09911 0.52157 0.14481 0.0
H490 H 0.19894 0.54535 0.1015 0.0
H491 H 0.13611 0.471 0.06786 0.0
H492 H 0.14522 0.63176 0.20157 0.0
H493 H 0.10787 0.69289 0.11178 0.0
H494 H 0.05663 0.57495 0.14007 0.0
C495 C 0.84256 0.99548 0.10131 0.0
C496 C 0.83171 0.99886 0.08219 0.0
N497 N 0.80501 0.98125 0.08253 0.0
N498 N 0.82288 0.97562 0.11369 0.0
C499 C 0.8002 0.96765 0.10188 0.0
H500 H 0.86344 0.00692 0.10593 0.0
Co501 Co 0.82705 0.96305 0.14114 0.0
C502 C 0.77867 0.89803 0.15118 0.0
O503 O 0.77265 0.92897 0.16614 0.0
N504 N 0.83123 0.94969 0.16885 0.0
C505 C 0.83451 0.90537 0.19753 0.0
C506 C 0.83556 0.90218 0.17704 0.0
C507 C 0.82799 0.98136 0.18482 0.0
N508 N 0.82956 0.95508 0.20246 0.0
O509 O 0.79862 0.0136 0.14635 0.0
H510 H 0.8382 0.86678 0.16866 0.0
H511 H 0.82341 0.02239 0.18356 0.0
O512 O 0.79945 0.90811 0.13973 0.0
C513 C 0.80774 0.05992 0.14451 0.0
O514 O 0.83438 0.06699 0.14006 0.0
N515 N 0.85636 0.91708 0.13572 0.0
C516 C 0.90471 0.85745 0.13016 0.0
C517 C 0.87799 0.83758 0.12538 0.0
C518 C 0.85404 0.86834 0.128 0.0
C519 C 0.88201 0.93758 0.13993 0.0
C520 C 0.90643 0.90868 0.13715 0.0
H521 H 0.83376 0.85253 0.1241 0.0
H522 H 0.88341 0.97677 0.14556 0.0
H523 H 0.78061 0.95168 0.10736 0.0
H524 H 0.8426 0.01391 0.06914 0.0
H525 H 0.83698 0.87335 0.20801 0.0
H526 H 0.87542 0.79831 0.12003 0.0
H527 H 0.92646 0.92666 0.14042 0.0
H528 H 0.2685 0.91091 0.15718 0.0
H529 H 0.20908 0.651 0.10926 0.0
H530 H 0.29055 0.86487 0.09715 0.0
H531 H 0.23056 0.66161 0.17199 0.0
H532 H 0.22975 0.73729 0.10366 0.0
H533 H 0.24405 0.82766 0.16189 0.0
C534 C 0.26763 0.88377 0.14486 0.0
C535 C 0.28148 0.89457 0.12674 0.0
C536 C 0.22995 0.72052 0.11862 0.0
C537 C 0.25376 0.79989 0.13203 0.0
C538 C 0.21825 0.67142 0.12182 0.0
C539 C 0.21841 0.64903 0.14108 0.0
C540 C 0.24116 0.74788 0.13488 0.0
C541 C 0.23037 0.67721 0.15686 0.0
C542 C 0.25399 0.8362 0.14763 0.0
C543 C 0.28014 0.85782 0.11135 0.0
N544 N 0.24107 0.72543 0.15346 0.0
N545 N 0.26647 0.81207 0.11432 0.0
H546 H 0.68293 0.63603 0.11015 0.0
H547 H 0.75374 0.84059 0.18079 0.0
H548 H 0.71183 0.59074 0.16905 0.0
H549 H 0.77116 0.84093 0.11728 0.0
H550 H 0.73177 0.75483 0.17751 0.0
H551 H 0.70945 0.7172 0.11291 0.0
C552 C 0.69511 0.64313 0.12359 0.0
C553 C 0.69538 0.60689 0.13939 0.0
C554 C 0.74046 0.77379 0.16434 0.0
C555 C 0.72494 0.69983 0.14285 0.0
C556 C 0.75268 0.82282 0.16613 0.0
C557 C 0.76405 0.84788 0.14923 0.0
C558 C 0.73903 0.75041 0.14544 0.0
C559 C 0.76255 0.82286 0.13065 0.0
C560 C 0.71021 0.68925 0.12513 0.0
C561 C 0.71138 0.6177 0.15651 0.0
N562 N 0.74996 0.77567 0.12919 0.0
N563 N 0.72523 0.66379 0.15795 0.0
H564 H 0.26402 0.07587 0.41993 0.0
H565 H 0.23774 0.37264 0.39126 0.0
H566 H 0.32752 0.16828 0.39042 0.0
H567 H 0.20931 0.30658 0.44738 0.0
H568 H 0.26273 0.2912 0.38421 0.0
H569 H 0.23477 0.15432 0.42322 0.0
C570 C 0.27149 0.11245 0.41381 0.0
C571 C 0.29814 0.11606 0.405 0.0
C572 C 0.25093 0.29476 0.39802 0.0
C573 C 0.26504 0.20481 0.40848 0.0
C574 C 0.23678 0.34103 0.40206 0.0
C575 C 0.22185 0.34647 0.42005 0.0
C576 C 0.24939 0.25339 0.41181 0.0
C577 C 0.22099 0.30424 0.43349 0.0
C578 C 0.25498 0.15702 0.41582 0.0
C579 C 0.30712 0.16425 0.39745 0.0
N580 N 0.23445 0.25928 0.42904 0.0
N581 N 0.29056 0.20686 0.39931 0.0
H582 H 0.82151 0.23325 0.37226 0.0
H583 H 0.67429 0.34215 0.4105 0.0
H584 H 0.76651 0.14424 0.41089 0.0
H585 H 0.74061 0.44087 0.38796 0.0
H586 H 0.7055 0.26728 0.40777 0.0
H587 H 0.78975 0.30693 0.37474 0.0
C588 C 0.80265 0.22896 0.38122 0.0
C589 C 0.79673 0.18222 0.39141 0.0
C590 C 0.71324 0.30529 0.40344 0.0
C591 C 0.76011 0.26716 0.39426 0.0
C592 C 0.69542 0.34813 0.40491 0.0
C593 C 0.70485 0.39799 0.39942 0.0
C594 C 0.74067 0.31204 0.39619 0.0
C595 C 0.73248 0.40324 0.39239 0.0
C596 C 0.78458 0.27134 0.38268 0.0
C597 C 0.77194 0.17941 0.40278 0.0
N598 N 0.74938 0.36074 0.39088 0.0
N599 N 0.75448 0.22129 0.40386 0.0
H600 H 0.72971 0.03751 0.90921 0.0
H601 H 0.75168 0.34583 0.90221 0.0
H602 H 0.66142 0.14282 0.89611 0.0
H603 H 0.81077 0.23907 0.92931 0.0
H604 H 0.71845 0.2733 0.89812 0.0
H605 H 0.76083 0.11204 0.91367 0.0
C606 C 0.72133 0.07627 0.90706 0.0
C607 C 0.69292 0.08389 0.90231 0.0
C608 C 0.73865 0.26607 0.90509 0.0
C609 C 0.72837 0.16962 0.90758 0.0
C610 C 0.75749 0.30749 0.90756 0.0
C611 C 0.78413 0.29852 0.91597 0.0
C612 C 0.74668 0.21553 0.91096 0.0
C613 C 0.79062 0.24789 0.92252 0.0
C614 C 0.73904 0.1189 0.90977 0.0
C615 C 0.68319 0.13515 0.89984 0.0
N616 N 0.77221 0.20845 0.91973 0.0
N617 N 0.70086 0.17606 0.9025 0.0
H618 H 0.25163 0.41588 0.87933 0.0
H619 H 0.22715 0.1137 0.90316 0.0
H620 H 0.31701 0.31425 0.90142 0.0
H621 H 0.17101 0.20505 0.86618 0.0
H622 H 0.25936 0.18799 0.9045 0.0
H623 H 0.22042 0.34037 0.87628 0.0
C624 C 0.25944 0.37779 0.88349 0.0
C625 C 0.28701 0.3715 0.89061 0.0
C626 C 0.24004 0.19158 0.896 0.0
C627 C 0.25138 0.285 0.88735 0.0
C628 C 0.22166 0.14914 0.89522 0.0
C629 C 0.1963 0.15294 0.88453 0.0
C630 C 0.23289 0.23842 0.88623 0.0
C631 C 0.19031 0.20009 0.87459 0.0
C632 C 0.24166 0.33467 0.88171 0.0
C633 C 0.29598 0.32108 0.89578 0.0
N634 N 0.20831 0.24095 0.8758 0.0
N635 N 0.27822 0.27997 0.89417 0.0
H636 H 0.67569 0.84886 0.64185 0.0
H637 H 0.82192 0.73198 0.67972 0.0
H638 H 0.74394 0.9457 0.66205 0.0
H639 H 0.76408 0.64741 0.64224 0.0
H640 H 0.79137 0.80807 0.67728 0.0
H641 H 0.70567 0.77277 0.64567 0.0
C642 C 0.697 0.8542 0.64716 0.0
C643 C 0.7073 0.90391 0.65164 0.0
C644 C 0.78534 0.77282 0.66965 0.0
C645 C 0.74181 0.81633 0.65613 0.0
C646 C 0.80265 0.72914 0.67113 0.0
C647 C 0.79556 0.68302 0.66118 0.0
C648 C 0.76051 0.77037 0.65834 0.0
C649 C 0.7704 0.68201 0.65018 0.0
C650 C 0.71414 0.8106 0.64927 0.0
C651 C 0.73516 0.90818 0.65838 0.0
N652 N 0.75378 0.72498 0.64909 0.0
N653 N 0.75144 0.86489 0.6605 0.0
H654 H 0.1983 0.79691 0.67201 0.0
H655 H 0.33385 0.6683 0.62462 0.0
H656 H 0.24549 0.87279 0.62486 0.0
H657 H 0.26725 0.57774 0.65148 0.0
H658 H 0.30459 0.74593 0.62718 0.0
H659 H 0.22639 0.71893 0.6675 0.0
C660 C 0.21472 0.79736 0.66076 0.0
C661 C 0.21968 0.84166 0.64885 0.0
C662 C 0.29635 0.70904 0.63242 0.0
C663 C 0.25193 0.75209 0.64367 0.0
C664 C 0.31305 0.66476 0.63108 0.0
C665 C 0.30297 0.61657 0.63797 0.0
C666 C 0.26956 0.70532 0.64103 0.0
C667 C 0.2758 0.61415 0.64601 0.0
C668 C 0.23059 0.75257 0.65812 0.0
C669 C 0.24104 0.83956 0.63439 0.0
N670 N 0.2601 0.65809 0.6475 0.0
N671 N 0.25658 0.79553 0.63229 0.0
H672 H 0.78129 0.42799 0.66086 0.0
H673 H 0.72016 0.16729 0.61428 0.0
H674 H 0.80082 0.38165 0.60043 0.0
H675 H 0.74252 0.17965 0.67679 0.0
H676 H 0.74075 0.25343 0.60817 0.0
H677 H 0.7569 0.34492 0.66613 0.0
C678 C 0.77989 0.40082 0.64858 0.0
C679 C 0.79301 0.4116 0.63017 0.0
C680 C 0.74115 0.23712 0.6232 0.0
C681 C 0.76532 0.31691 0.6361 0.0
C682 C 0.72947 0.18808 0.62669 0.0
C683 C 0.7299 0.16615 0.64604 0.0
C684 C 0.75266 0.26493 0.63926 0.0
C685 C 0.74208 0.19484 0.66161 0.0
C686 C 0.76628 0.35331 0.65166 0.0
C687 C 0.79099 0.37471 0.61485 0.0
N688 N 0.75278 0.24296 0.65792 0.0
N689 N 0.77736 0.32901 0.61813 0.0
H690 H 0.30983 0.32133 0.6216 0.0
H691 H 0.16365 0.16968 0.62458 0.0
H692 H 0.23142 0.39057 0.63994 0.0
H693 H 0.2436 0.09025 0.62543 0.0
H694 H 0.18816 0.25249 0.62438 0.0
H695 H 0.2857 0.23821 0.61741 0.0
C696 C 0.28748 0.31924 0.62453 0.0
C697 C 0.27257 0.36299 0.63113 0.0
C698 C 0.20038 0.217 0.62453 0.0
C699 C 0.24496 0.26808 0.62637 0.0
C700 C 0.18642 0.16957 0.62457 0.0
C701 C 0.20162 0.12285 0.62518 0.0
C702 C 0.22982 0.21802 0.62496 0.0
C703 C 0.23108 0.12535 0.62505 0.0
C704 C 0.2738 0.2717 0.62225 0.0
C705 C 0.24373 0.35783 0.6349 0.0
N706 N 0.24428 0.17228 0.62501 0.0
N707 N 0.23086 0.31125 0.63245 0.0
H708 H 0.81083 0.61976 0.87324 0.0
H709 H 0.68722 0.79055 0.92033 0.0
H710 H 0.75028 0.55574 0.91467 0.0
H711 H 0.74716 0.84669 0.87668 0.0
H712 H 0.70853 0.70408 0.91828 0.0
H713 H 0.78545 0.7017 0.87322 0.0
C714 C 0.79185 0.62283 0.88213 0.0
C715 C 0.78263 0.581 0.89398 0.0
C716 C 0.71697 0.73538 0.90917 0.0
C717 C 0.75364 0.67556 0.89446 0.0
C718 C 0.70493 0.78489 0.91041 0.0
C719 C 0.71543 0.82619 0.89869 0.0
C720 C 0.73969 0.72711 0.89613 0.0
C721 C 0.73834 0.81629 0.88605 0.0
C722 C 0.77741 0.6698 0.8822 0.0
C723 C 0.75791 0.58703 0.90519 0.0
N724 N 0.74963 0.76794 0.88512 0.0
N725 N 0.7444 0.63379 0.90536 0.0
H726 H 0.22313 0.91546 0.8828 0.0
H727 H 0.25031 0.61402 0.90659 0.0
H728 H 0.16013 0.81523 0.90896 0.0
H729 H 0.30141 0.70506 0.86597 0.0
H730 H 0.21841 0.68849 0.9099 0.0
H731 H 0.25399 0.83993 0.87892 0.0
C732 C 0.21579 0.87765 0.88772 0.0
C733 C 0.18898 0.87171 0.89616 0.0
C734 C 0.23657 0.69192 0.90021 0.0
C735 C 0.22421 0.78516 0.89191 0.0
C736 C 0.25476 0.64942 0.8983 0.0
C737 C 0.27861 0.65312 0.88599 0.0
C738 C 0.24246 0.73859 0.8899 0.0
C739 C 0.28332 0.70016 0.87564 0.0
C740 C 0.23337 0.83451 0.88546 0.0
C741 C 0.18057 0.82167 0.90228 0.0
N742 N 0.26557 0.74097 0.87793 0.0
N743 N 0.19814 0.78044 0.90012 0.0
H744 H 0.24694 0.56958 0.38775 0.0
H745 H 0.26437 0.8757 0.40233 0.0
H746 H 0.17722 0.67222 0.39949 0.0
H747 H 0.32591 0.7821 0.37169 0.0
H748 H 0.2333 0.79994 0.40424 0.0
H749 H 0.27781 0.64569 0.38469 0.0
C750 C 0.23814 0.60801 0.38965 0.0
C751 C 0.20947 0.61455 0.39381 0.0
C752 C 0.25356 0.79616 0.397 0.0
C753 C 0.24456 0.70145 0.39054 0.0
C754 C 0.27128 0.83937 0.39591 0.0
C755 C 0.29772 0.83534 0.38677 0.0
C756 C 0.26252 0.74841 0.38916 0.0
C757 C 0.30564 0.78715 0.37878 0.0
C758 C 0.25571 0.65139 0.38786 0.0
C759 C 0.19916 0.66527 0.39616 0.0
N760 N 0.28821 0.74552 0.38027 0.0
N761 N 0.21669 0.70668 0.3946 0.0
H762 H 0.76821 0.94316 0.38799 0.0
H763 H 0.74125 0.64239 0.41381 0.0
H764 H 0.83159 0.84365 0.4142 0.0
H765 H 0.68774 0.73467 0.37518 0.0
H766 H 0.77353 0.71664 0.41628 0.0
H767 H 0.73686 0.86802 0.38544 0.0
C768 C 0.77553 0.90557 0.3932 0.0
C769 C 0.80258 0.89972 0.40126 0.0
C770 C 0.75473 0.72037 0.40722 0.0
C771 C 0.76681 0.81357 0.39851 0.0
C772 C 0.73634 0.67801 0.40581 0.0
C773 C 0.71174 0.68213 0.39427 0.0
C774 C 0.74829 0.76722 0.39718 0.0
C775 C 0.70641 0.72943 0.38426 0.0
C776 C 0.75767 0.86264 0.39171 0.0
C777 C 0.81095 0.84998 0.40778 0.0
N778 N 0.7244 0.76999 0.38602 0.0
N779 N 0.79313 0.80892 0.40634 0.0
H780 H 0.25135 0.12994 0.13675 0.0
H781 H 0.23091 0.43378 0.15651 0.0
H782 H 0.3087 0.21978 0.17275 0.0
H783 H 0.16369 0.33329 0.13722 0.0
H784 H 0.26147 0.35734 0.16012 0.0
H785 H 0.22025 0.20566 0.13445 0.0
C786 C 0.25732 0.16539 0.14428 0.0
C787 C 0.28264 0.16834 0.15502 0.0
C788 C 0.23998 0.35214 0.15516 0.0
C789 C 0.24739 0.2554 0.15218 0.0
C790 C 0.22259 0.39575 0.15305 0.0
C791 C 0.19469 0.38996 0.1466 0.0
C792 C 0.22949 0.30256 0.15052 0.0
C793 C 0.18501 0.33968 0.14233 0.0
C794 C 0.23958 0.20863 0.14295 0.0
C795 C 0.28934 0.2155 0.16439 0.0
N796 N 0.20238 0.29807 0.14426 0.0
N797 N 0.27195 0.25719 0.16263 0.0
H798 H 0.73079 0.36439 0.1357 0.0
H799 H 0.75503 0.06377 0.16128 0.0
H800 H 0.68248 0.28025 0.18012 0.0
H801 H 0.8183 0.15984 0.13317 0.0
H802 H 0.72548 0.14103 0.16543 0.0
H803 H 0.76113 0.28801 0.13195 0.0
C804 C 0.72667 0.3301 0.14474 0.0
C805 C 0.70407 0.32883 0.15825 0.0
C806 C 0.74587 0.1451 0.15838 0.0
C807 C 0.73831 0.24124 0.1538 0.0
C808 C 0.76265 0.10102 0.15595 0.0
C809 C 0.78917 0.10544 0.14694 0.0
C810 C 0.75555 0.19369 0.15151 0.0
C811 C 0.79806 0.1547 0.14031 0.0
C812 C 0.74394 0.28653 0.14258 0.0
C813 C 0.69966 0.28319 0.16954 0.0
N814 N 0.78125 0.19685 0.14265 0.0
N815 N 0.71647 0.24119 0.16696 0.0
H816 H 0.24721 0.04774 0.07883 0.0
H817 H 0.2346 0.06281 0.95962 0.0
H818 H 0.3155 0.09678 0.04049 0.0
H819 H 0.16465 0.0341 0.99929 0.0
H820 H 0.26386 0.08305 0.98888 0.0
H821 H 0.21581 0.05015 0.04996 0.0
C822 C 0.2556 0.05974 0.06445 0.0
C823 C 0.28426 0.07124 0.06214 0.0
C824 C 0.24201 0.07281 0.99114 0.0
C825 C 0.24835 0.0732 0.02878 0.0
C826 C 0.2253 0.06152 0.97443 0.0
C827 C 0.19731 0.04576 0.97705 0.0
C828 C 0.23058 0.06825 1.01055 0.0
C829 C 0.18633 0.04465 0.9966 0.0
C830 C 0.23763 0.06083 0.04788 0.0
C831 C 0.29378 0.08623 0.04296 0.0
N832 N 0.20302 0.05515 1.01257 0.0
N833 N 0.27597 0.08619 0.02701 0.0
H834 H 0.82353 0.49776 1.00317 0.0
H835 H 0.67179 0.42377 0.04675 0.0
H836 H 0.75306 0.4483 0.96723 0.0
H837 H 0.7385 0.48238 0.08401 0.0
H838 H 0.70335 0.42551 1.01803 0.0
H839 H 0.79457 0.4874 0.0333 0.0
C840 C 0.80201 0.48488 1.00154 0.0
C841 C 0.79082 0.47394 0.9825 0.0
C842 C 0.71127 0.43781 0.03246 0.0
C843 C 0.75767 0.46135 1.01703 0.0
C844 C 0.69321 0.43685 0.04887 0.0
C845 C 0.70244 0.45354 0.06773 0.0
C846 C 0.73891 0.45589 0.03478 0.0
C847 C 0.73059 0.4691 0.06973 0.0
C848 C 0.78555 0.47865 1.0188 0.0
C849 C 0.76287 0.45658 0.98147 0.0
N850 N 0.7478 0.47041 0.05338 0.0
N851 N 0.74735 0.45097 0.99843 0.0
H852 H 0.3197 0.91449 0.49791 0.0
H853 H 0.16668 0.98824 0.5382 0.0
H854 H 0.25551 0.9806 0.45985 0.0
H855 H 0.22928 0.90727 0.5734 0.0
H856 H 0.1975 0.98261 0.50893 0.0
H857 H 0.28582 0.90869 0.52526 0.0
C858 C 0.2984 0.92768 0.4953 0.0
C859 C 0.2905 0.94848 0.47662 0.0
C860 C 0.20439 0.96582 0.52304 0.0
C861 C 0.25138 0.94206 0.50798 0.0
C862 C 0.18673 0.9688 0.53979 0.0
C863 C 0.19543 0.94868 0.55846 0.0
C864 C 0.23101 0.94262 0.52494 0.0
C865 C 0.22183 0.92434 0.55951 0.0
C866 C 0.27898 0.92418 0.51092 0.0
C867 C 0.26244 0.96412 0.47399 0.0
N868 N 0.23866 0.9223 0.54307 0.0
N869 N 0.24395 0.96109 0.48956 0.0
H870 H 0.8247 0.61931 0.54542 0.0
H871 H 0.67418 0.53269 0.50403 0.0
H872 H 0.76029 0.54986 0.58245 0.0
H873 H 0.74368 0.57501 0.46565 0.0
H874 H 0.70331 0.54993 0.53326 0.0
H875 H 0.7931 0.61493 0.51663 0.0
C876 C 0.80388 0.60329 0.54755 0.0
C877 C 0.79536 0.58427 0.56642 0.0
C878 C 0.71218 0.55562 0.51845 0.0
C879 C 0.75888 0.57958 0.53342 0.0
C880 C 0.69558 0.54547 0.50168 0.0
C881 C 0.70654 0.55155 0.48221 0.0
C882 C 0.74002 0.57225 0.51587 0.0
C883 C 0.73425 0.56978 0.48027 0.0
C884 C 0.78581 0.60094 0.53108 0.0
C885 C 0.76783 0.56514 0.5683 0.0
N886 N 0.75007 0.57916 0.49688 0.0
N887 N 0.75067 0.56294 0.55198 0.0
H888 H 0.73139 0.96862 0.96401 0.0
H889 H 0.74773 0.97811 0.08366 0.0
H890 H 0.66125 0.96501 1.00504 0.0
H891 H 0.81807 0.97631 0.0428 0.0
H892 H 0.71581 0.97263 0.05508 0.0
H893 H 0.76347 0.97068 0.99262 0.0
C894 C 0.72266 0.9679 0.97899 0.0
C895 C 0.69344 0.96671 0.98201 0.0
C896 C 0.73824 0.97341 0.05236 0.0
C897 C 0.73022 0.96966 1.01498 0.0
C898 C 0.75655 0.97626 0.06873 0.0
C899 C 0.78578 0.97777 0.06576 0.0
C900 C 0.74912 0.97202 0.03278 0.0
C901 C 0.79578 0.97602 0.04592 0.0
C902 C 0.74105 0.96939 0.99536 0.0
C903 C 0.68352 0.96665 1.00188 0.0
N904 N 0.77753 0.97326 0.03024 0.0
N905 N 0.70183 0.96813 1.01755 0.0
H906 H 0.15558 0.51301 0.03978 0.0
H907 H 0.31205 0.51781 0.99607 0.0
H908 H 0.23029 0.52041 0.0764 0.0
H909 H 0.23868 0.51995 0.95816 0.0
H910 H 0.28193 0.52452 0.02551 0.0
H911 H 0.18492 0.51967 1.00976 0.0
C912 C 0.17813 0.51591 0.04156 0.0
C913 C 0.19042 0.51572 0.06077 0.0
C914 C 0.27229 0.52394 1.0108 0.0
C915 C 0.22418 0.52396 0.02631 0.0
C916 C 0.28951 0.52005 0.99398 0.0
C917 C 0.27781 0.51777 0.97468 0.0
C918 C 0.24297 0.52507 1.00843 0.0
C919 C 0.2485 0.52169 0.97279 0.0
C920 C 0.19486 0.52012 0.02437 0.0
C921 C 0.21976 0.5207 0.06203 0.0
N922 N 0.23203 0.52451 0.98949 0.0
N923 N 0.23557 0.52428 0.04508 0.0
H924 H 0.74511 0.03956 0.58302 0.0
H925 H 0.75611 0.03505 0.46299 0.0
H926 H 0.67272 0.02265 0.54452 0.0
H927 H 0.82664 0.05353 0.50293 0.0
H928 H 0.72445 0.03613 0.49215 0.0
H929 H 0.77462 0.04955 0.55347 0.0
C930 C 0.73529 0.03829 0.56839 0.0
C931 C 0.70625 0.0301 0.56641 0.0
C932 C 0.74686 0.04026 0.49448 0.0
C933 C 0.74026 0.04099 0.5322 0.0
C934 C 0.76488 0.04001 0.47783 0.0
C935 C 0.79408 0.04356 0.48056 0.0
C936 C 0.75818 0.04432 0.51393 0.0
C937 C 0.80434 0.04961 0.50015 0.0
C938 C 0.75225 0.04379 0.55144 0.0
C939 C 0.695 0.0281 0.54689 0.0
N940 N 0.78649 0.04951 0.51602 0.0
N941 N 0.71201 0.03337 0.53057 0.0
H942 H 0.3346 0.51492 0.5351 0.0
H943 H 0.17358 0.51556 0.50093 0.0
H944 H 0.2649 0.51705 0.57656 0.0
H945 H 0.24248 0.54095 0.45983 0.0
H946 H 0.20676 0.5159 0.5287 0.0
H947 H 0.30142 0.52363 0.50732 0.0
C948 C 0.31242 0.51754 0.53846 0.0
C949 C 0.30273 0.51493 0.55837 0.0
C950 C 0.21461 0.52167 0.51361 0.0
C951 C 0.26443 0.52435 0.52641 0.0
C952 C 0.19557 0.52183 0.49764 0.0
C953 C 0.20503 0.52793 0.47777 0.0
C954 C 0.24348 0.52734 0.50982 0.0
C955 C 0.23406 0.53516 0.47473 0.0
C956 C 0.29342 0.52234 0.52252 0.0
C957 C 0.27354 0.5179 0.56158 0.0
N958 N 0.2522 0.53432 0.49052 0.0
N959 N 0.25551 0.52224 0.54581 0.0
H960 H 0.32096 0.07462 0.21776 0.0
H961 H 0.32485 0.92029 0.32278 0.0
H962 H 0.32511 0.90773 0.22258 0.0
H963 H 0.33987 0.08462 0.31644 0.0
H964 H 0.31537 0.91583 0.28658 0.0
H965 H 0.31821 0.07962 0.25438 0.0
C966 C 0.32083 0.03901 0.2265 0.0
C967 C 0.32362 0.99074 0.2171 0.0
C968 C 0.32047 0.95294 0.29317 0.0
C969 C 0.3207 0.9961 0.25902 0.0
C970 C 0.3257 0.9555 0.31381 0.0
C971 C 0.33352 0.00273 0.32253 0.0
C972 C 0.32281 0.99807 0.28125 0.0
C973 C 0.33445 0.04725 0.31024 0.0
C974 C 0.31946 0.04186 0.24741 0.0
C975 C 0.32354 0.9458 0.22922 0.0
N976 N 0.32933 0.04379 0.29025 0.0
N977 N 0.3223 0.94957 0.24953 0.0
H978 H 0.68162 0.56262 0.21703 0.0
H979 H 0.68361 0.45332 0.32996 0.0
H980 H 0.65974 0.40588 0.23343 0.0
H981 H 0.66657 0.61261 0.3142 0.0
H982 H 0.69221 0.43464 0.29428 0.0
H983 H 0.69348 0.57993 0.25237 0.0
C984 C 0.68025 0.53152 0.22802 0.0
C985 C 0.66968 0.48294 0.22256 0.0
C986 C 0.68727 0.47395 0.29873 0.0
C987 C 0.68299 0.50204 0.26262 0.0
C988 C 0.68258 0.48456 0.31901 0.0
C989 C 0.67423 0.53437 0.32481 0.0
C990 C 0.68395 0.51372 0.28433 0.0
C991 C 0.67279 0.57365 0.31015 0.0
C992 C 0.68678 0.54138 0.24811 0.0
C993 C 0.66779 0.44385 0.23725 0.0
N994 N 0.67738 0.56246 0.29055 0.0
N995 N 0.67416 0.45429 0.25666 0.0
H996 H 0.65942 0.87444 0.81214 0.0
H997 H 0.66746 0.1177 0.73766 0.0
H998 H 0.64806 0.03256 0.83171 0.0
H999 H 0.65609 0.96005 0.71751 0.0
H1000 H 0.66509 0.08716 0.7722 0.0
H1001 H 0.66295 0.90529 0.77774 0.0
C1002 C 0.65743 0.91566 0.80933 0.0
C1003 C 0.65302 0.95076 0.82511 0.0
C1004 C 0.66307 0.05928 0.76021 0.0
C1005 C 0.65771 0.98651 0.78531 0.0
C1006 C 0.66429 0.07669 0.74035 0.0
C1007 C 0.66166 0.04163 0.72435 0.0
C1008 C 0.6595 0.00624 0.76431 0.0
C1009 C 0.65836 0.98871 0.72915 0.0
C1010 C 0.65962 0.93325 0.78955 0.0
C1011 C 0.65153 0.00391 0.82022 0.0
N1012 N 0.65737 0.97271 0.74866 0.0
N1013 N 0.65385 0.02011 0.80078 0.0
H1014 H 0.34841 0.54531 0.71098 0.0
H1015 H 0.30386 0.45131 0.82166 0.0
H1016 H 0.30677 0.39997 0.7236 0.0
H1017 H 0.35608 0.58439 0.8093 0.0
H1018 H 0.2973 0.43975 0.78535 0.0
H1019 H 0.34422 0.56799 0.7465 0.0
C1020 C 0.3381 0.51847 0.72116 0.0
C1021 C 0.32835 0.47034 0.71434 0.0
C1022 C 0.30994 0.47185 0.79061 0.0
C1023 C 0.32355 0.49579 0.75504 0.0
C1024 C 0.31347 0.4786 0.8113 0.0
C1025 C 0.33082 0.51839 0.81842 0.0
C1026 C 0.32371 0.50542 0.77702 0.0
C1027 C 0.34296 0.55263 0.80439 0.0
C1028 C 0.33582 0.53126 0.74146 0.0
C1029 C 0.3152 0.43695 0.72826 0.0
N1030 N 0.33936 0.54515 0.78441 0.0
N1031 N 0.31335 0.45013 0.74792 0.0
H1032 H 0.80854 0.51694 0.82753 0.0
H1033 H 0.8329 0.40312 0.71844 0.0
H1034 H 0.85278 0.37476 0.81448 0.0
H1035 H 0.83258 0.56913 0.72623 0.0
H1036 H 0.82838 0.39153 0.75449 0.0
H1037 H 0.80829 0.53767 0.79126 0.0
C1038 C 0.81826 0.49025 0.81717 0.0
C1039 C 0.83015 0.44338 0.82414 0.0
C1040 C 0.82921 0.4306 0.74838 0.0
C1041 C 0.82935 0.46633 0.78293 0.0
C1042 C 0.8318 0.43724 0.72778 0.0
C1043 C 0.83382 0.48714 0.71937 0.0
C1044 C 0.82848 0.47411 0.76087 0.0
C1045 C 0.83128 0.53001 0.73219 0.0
C1046 C 0.81799 0.50204 0.79653 0.0
C1047 C 0.84248 0.41038 0.80997 0.0
N1048 N 0.82901 0.52258 0.75245 0.0
N1049 N 0.84149 0.42224 0.79017 0.0
H1050 H 0.11017 0.94628 0.81421 0.0
H1051 H 0.20329 0.06662 0.72551 0.0
H1052 H 0.17604 0.05843 0.82383 0.0
H1053 H 0.13663 0.95604 0.71608 0.0
H1054 H 0.19316 0.06535 0.76138 0.0
H1055 H 0.11959 0.94953 0.77833 0.0
C1056 C 0.12661 0.97176 0.80878 0.0
C1057 C 0.14217 0.00256 0.82209 0.0
C1058 C 0.18065 0.04148 0.7515 0.0
C1059 C 0.15322 0.0062 0.78081 0.0
C1060 C 0.18645 0.04211 0.731 0.0
C1061 C 0.17093 0.01102 0.71777 0.0
C1062 C 0.15916 0.00943 0.75894 0.0
C1063 C 0.14899 0.98081 0.72569 0.0
C1064 C 0.13203 0.97346 0.78824 0.0
C1065 C 0.16365 0.03386 0.81416 0.0
N1066 N 0.14388 0.98051 0.74578 0.0
N1067 N 0.16847 0.03505 0.79402 0.0
H1068 H 0.1888 0.39736 0.31187 0.0
H1069 H 0.12582 0.59584 0.23053 0.0
H1070 H 0.1432 0.53628 0.32717 0.0
H1071 H 0.17714 0.46414 0.21487 0.0
H1072 H 0.13058 0.5725 0.26583 0.0
H1073 H 0.18369 0.41944 0.27639 0.0
C1074 C 0.17762 0.43247 0.30779 0.0
C1075 C 0.16625 0.46484 0.32261 0.0
C1076 C 0.14081 0.54861 0.25472 0.0
C1077 C 0.16044 0.49054 0.28182 0.0
C1078 C 0.13818 0.56201 0.23449 0.0
C1079 C 0.15136 0.53225 0.21962 0.0
C1080 C 0.15669 0.50492 0.26029 0.0
C1081 C 0.16651 0.48808 0.22575 0.0
C1082 C 0.17482 0.44516 0.28748 0.0
C1083 C 0.15247 0.51037 0.31634 0.0
N1084 N 0.16886 0.47589 0.24562 0.0
N1085 N 0.14986 0.52171 0.29644 0.0
H1086 H 0.81129 0.97158 0.33077 0.0
H1087 H 0.84311 0.05084 0.2163 0.0
H1088 H 0.86141 0.1033 0.31294 0.0
H1089 H 0.80764 0.9038 0.23448 0.0
H1090 H 0.84124 0.07937 0.2513 0.0
H1091 H 0.80077 0.95516 0.29523 0.0
C1092 C 0.81951 0.99764 0.31938 0.0
C1093 C 0.83748 0.03841 0.32468 0.0
C1094 C 0.83365 0.041 0.24759 0.0
C1095 C 0.82589 0.0199 0.28419 0.0
C1096 C 0.83461 0.02486 0.2276 0.0
C1097 C 0.826 0.97459 0.22253 0.0
C1098 C 0.8238 0.00674 0.26256 0.0
C1099 C 0.81516 0.94242 0.23781 0.0
C1100 C 0.81375 0.98811 0.29913 0.0
C1101 C 0.84782 0.07096 0.30939 0.0
N1102 N 0.81454 0.95887 0.25712 0.0
N1103 N 0.84208 0.06079 0.28985 0.0
H1104 H 0.56876 0.26967 0.11009 0.0
H1105 H 0.41069 0.23696 0.14815 0.0
H1106 H 0.5301 0.37084 0.15349 0.0
H1107 H 0.45747 0.11198 0.12131 0.0
H1108 H 0.45271 0.29151 0.14654 0.0
H1109 H 0.52652 0.2156 0.11061 0.0
C1110 C 0.5515 0.28052 0.11976 0.0
C1111 C 0.55307 0.32502 0.13176 0.0
C1112 C 0.4538 0.25212 0.14104 0.0
C1113 C 0.50456 0.26376 0.13213 0.0
C1114 C 0.42983 0.22113 0.14187 0.0
C1115 C 0.43072 0.16995 0.13491 0.0
C1116 C 0.47874 0.23195 0.13299 0.0
C1117 C 0.45606 0.1511 0.12704 0.0
C1118 C 0.52736 0.24973 0.11997 0.0
C1119 C 0.52974 0.33755 0.1437 0.0
N1120 N 0.47909 0.18221 0.12621 0.0
N1121 N 0.50647 0.30714 0.14355 0.0
H1122 H 0.41979 0.75844 0.41268 0.0
H1123 H 0.58533 0.74751 0.41566 0.0
H1124 H 0.47056 0.89478 0.42303 0.0
H1125 H 0.53469 0.61575 0.43364 0.0
H1126 H 0.54346 0.80158 0.41603 0.0
H1127 H 0.46143 0.70441 0.41792 0.0
C1128 C 0.43954 0.77712 0.41623 0.0
C1129 C 0.44158 0.8315 0.4172 0.0
C1130 C 0.5416 0.7609 0.42007 0.0
C1131 C 0.48939 0.76971 0.42279 0.0
C1132 C 0.56559 0.72988 0.42002 0.0
C1133 C 0.56377 0.67659 0.42458 0.0
C1134 C 0.5154 0.73851 0.42433 0.0
C1135 C 0.53721 0.65622 0.42957 0.0
C1136 C 0.46331 0.74617 0.41915 0.0
C1137 C 0.46797 0.85326 0.42157 0.0
N1138 N 0.51402 0.68708 0.4291 0.0
N1139 N 0.49085 0.82235 0.424 0.0
H1140 H 0.57293 0.73054 0.9132 0.0
H1141 H 0.41008 0.70551 0.94128 0.0
H1142 H 0.52243 0.86171 0.9307 0.0
H1143 H 0.4543 0.59533 0.90428 0.0
H1144 H 0.45274 0.75833 0.9427 0.0
H1145 H 0.53126 0.67509 0.91548 0.0
C1146 C 0.55312 0.74753 0.91773 0.0
C1147 C 0.55108 0.80081 0.92169 0.0
C1148 C 0.45303 0.72239 0.93438 0.0
C1149 C 0.50336 0.73768 0.92429 0.0
C1150 C 0.42864 0.69224 0.93347 0.0
C1151 C 0.42834 0.64569 0.92257 0.0
C1152 C 0.47745 0.70571 0.92453 0.0
C1153 C 0.45342 0.63025 0.91316 0.0
C1154 C 0.52933 0.71597 0.9189 0.0
C1155 C 0.52482 0.82091 0.9273 0.0
N1156 N 0.47686 0.66015 0.91435 0.0
N1157 N 0.50196 0.78932 0.92845 0.0
H1158 H 0.41962 0.25945 0.62198 0.0
H1159 H 0.58745 0.25434 0.62723 0.0
H1160 H 0.47137 0.39711 0.6206 0.0
H1161 H 0.53666 0.11629 0.62158 0.0
H1162 H 0.54517 0.30719 0.62367 0.0
H1163 H 0.46212 0.20619 0.62066 0.0
C1164 C 0.43988 0.27852 0.62118 0.0
C1165 C 0.44189 0.3329 0.62158 0.0
C1166 C 0.54327 0.26534 0.62309 0.0
C1167 C 0.49067 0.27211 0.62034 0.0
C1168 C 0.56747 0.23508 0.625 0.0
C1169 C 0.56567 0.18068 0.62481 0.0
C1170 C 0.51697 0.24113 0.62106 0.0
C1171 C 0.53905 0.15804 0.62219 0.0
C1172 C 0.46416 0.24806 0.62054 0.0
C1173 C 0.46878 0.35536 0.62074 0.0
N1174 N 0.51576 0.18833 0.62053 0.0
N1175 N 0.49207 0.32491 0.62028 0.0
H1176 H 0.92102 0.76047 0.65057 0.0
H1177 H 0.08829 0.76751 0.65249 0.0
H1178 H 0.97259 0.62696 0.63724 0.0
H1179 H 0.03834 0.90403 0.63973 0.0
H1180 H 0.04549 0.71535 0.65234 0.0
H1181 H 0.96346 0.81395 0.65159 0.0
C1182 C 0.94115 0.74232 0.64775 0.0
C1183 C 0.94307 0.68886 0.64386 0.0
C1184 C 0.04397 0.75677 0.64961 0.0
C1185 C 0.99174 0.74982 0.64554 0.0
C1186 C 0.0684 0.78664 0.64961 0.0
C1187 C 0.06711 0.84041 0.64598 0.0
C1188 C 0.01791 0.78078 0.64623 0.0
C1189 C 0.0405 0.86296 0.64287 0.0
C1190 C 0.96536 0.7729 0.64847 0.0
C1191 C 0.96993 0.66761 0.64074 0.0
N1192 N 0.01696 0.83304 0.64308 0.0
N1193 N 0.99317 0.69807 0.64173 0.0
H1194 H 0.02993 0.12103 0.89752 0.0
H1195 H 0.94954 0.35631 0.9492 0.0
H1196 H 0.06809 0.20947 0.94502 0.0
H1197 H 0.93161 0.30129 0.88959 0.0
H1198 H 0.99 0.29682 0.95088 0.0
H1199 H 0.98988 0.18 0.89772 0.0
C1200 C 0.0297 0.15258 0.90817 0.0
C1201 C 0.0523 0.16033 0.92131 0.0
C1202 C 0.97722 0.29814 0.93743 0.0
C1203 C 0.00663 0.2284 0.92146 0.0
C1204 C 0.95418 0.33182 0.93649 0.0
C1205 C 0.93739 0.33385 0.91918 0.0
C1206 C 0.98303 0.26577 0.92109 0.0
C1207 C 0.94425 0.30146 0.9031 0.0
C1208 C 0.00697 0.18651 0.90814 0.0
C1209 C 0.05113 0.2024 0.93456 0.0
N1210 N 0.96641 0.26858 0.9045 0.0
N1211 N 0.02857 0.23492 0.93436 0.0
H1212 H 0.05958 0.33189 0.38268 0.0
H1213 H 0.93348 0.22153 0.44884 0.0
H1214 H 0.05796 0.35047 0.44691 0.0
H1215 H 0.95999 0.15156 0.39342 0.0
H1216 H 0.9747 0.27919 0.44731 0.0
H1217 H 0.01803 0.27613 0.38507 0.0
C1218 C 0.0503 0.32449 0.39726 0.0
C1219 C 0.06214 0.34562 0.41463 0.0
C1220 C 0.97148 0.25096 0.43558 0.0
C1221 C 0.01473 0.28217 0.41747 0.0
C1222 C 0.94802 0.21831 0.43641 0.0
C1223 C 0.94356 0.18163 0.4213 0.0
C1224 C 0.99008 0.24753 0.41929 0.0
C1225 C 0.96293 0.17889 0.4055 0.0
C1226 C 0.02676 0.29246 0.39863 0.0
C1227 C 0.0495 0.33451 0.4332 0.0
N1228 N 0.98523 0.21166 0.40482 0.0
N1229 N 0.02632 0.30368 0.43414 0.0
H1230 H 0.91642 0.78086 0.10251 0.0
H1231 H 0.0747 0.7389 0.13784 0.0
H1232 H 0.95242 0.85947 0.15351 0.0
H1233 H 0.0268 0.61571 0.1108 0.0
H1234 H 0.03243 0.79333 0.13788 0.0
H1235 H 0.95904 0.72805 0.10024 0.0
C1236 C 0.93309 0.78707 0.11329 0.0
C1237 C 0.9306 0.82509 0.12822 0.0
C1238 C 0.03124 0.75447 0.13185 0.0
C1239 C 0.97976 0.76566 0.12521 0.0
C1240 C 0.05534 0.72363 0.13168 0.0
C1241 C 0.05413 0.67284 0.12434 0.0
C1242 C 0.00589 0.73466 0.12431 0.0
C1243 C 0.02848 0.65462 0.11671 0.0
C1244 C 0.95748 0.75706 0.11186 0.0
C1245 C 0.95338 0.83173 0.14144 0.0
N1246 N 0.00532 0.68561 0.11683 0.0
N1247 N 0.97699 0.80257 0.13954 0.0
loop_
_geom_bond_atom_site_label_1
_geom_bond_atom_site_label_2
_geom_bond_distance
_geom_bond_site_symmetry_2
_ccdc_geom_bond_type
C0 C1 1.351 . S
C0 N3 1.368 . S
C0 H5 0.931 . S
C1 C0 1.351 . S
C1 N2 1.373 . S
C1 H29 0.930 . S
N2 C1 1.373 . S
N2 C4 1.340 . S
N3 C0 1.368 . S
N3 C4 1.321 . S
N3 Co6 2.135 . S
C4 N2 1.340 . S
C4 N3 1.321 . S
C4 H28 0.930 . S
H5 C0 0.931 . S
Co6 N3 2.135 . S
Co6 N9 2.121 . S
Co6 O14 2.055 . S
Co6 O17 2.039 . S
Co6 N20 2.140 . S
C7 O8 1.227 . S
C7 O17 1.265 . S
O8 C7 1.227 . S
N9 Co6 2.121 . S
N9 C11 1.375 . S
N9 C12 1.313 . S
C10 C11 1.338 . S
C10 N13 1.377 . S
C10 H30 0.930 . S
C11 N9 1.375 . S
C11 C10 1.338 . S
C11 H15 0.931 . S
C12 N9 1.313 . S
C12 N13 1.344 . S
C12 H16 0.930 . S
N13 C10 1.377 . S
N13 C12 1.344 . S
O14 Co6 2.055 . S
O14 C18 1.253 . S
H15 C11 0.931 . S
H16 C12 0.930 . S
O17 Co6 2.039 . S
O17 C7 1.265 . S
C18 O14 1.253 . S
C18 O19 1.227 . S
O19 C18 1.227 . S
N20 Co6 2.140 . S
N20 C23 1.346 . S
N20 C24 1.345 . S
C21 C22 1.387 . S
C21 C25 1.391 . S
C22 C21 1.387 . S
C22 C23 1.369 . S
C22 H31 0.929 . S
C23 N20 1.346 . S
C23 C22 1.369 . S
C23 H26 0.928 . S
C24 N20 1.345 . S
C24 C25 1.371 . S
C24 H27 0.931 . S
C25 C21 1.391 . S
C25 C24 1.371 . S
C25 H32 0.930 . S
H26 C23 0.928 . S
H27 C24 0.931 . S
H28 C4 0.930 . S
H29 C1 0.930 . S
H30 C10 0.930 . S
H31 C22 0.929 . S
H32 C25 0.930 . S
C33 C34 1.351 . S
C33 N36 1.368 . S
C33 H38 0.931 . S
C34 C33 1.351 . S
C34 N35 1.373 . S
C34 H62 0.930 . S
N35 C34 1.373 . S
N35 C37 1.340 . S
N36 C33 1.368 . S
N36 C37 1.321 . S
N36 Co39 2.135 . S
C37 N35 1.340 . S
C37 N36 1.321 . S
C37 H61 0.930 . S
H38 C33 0.931 . S
Co39 N36 2.135 . S
Co39 N42 2.121 . S
Co39 O47 2.055 . S
Co39 O50 2.039 . S
Co39 N53 2.140 . S
C40 O41 1.227 . S
C40 O50 1.265 . S
O41 C40 1.227 . S
N42 Co39 2.121 . S
N42 C44 1.375 . S
N42 C45 1.313 . S
C43 C44 1.338 . S
C43 N46 1.377 . S
C43 H63 0.930 . S
C44 N42 1.375 . S
C44 C43 1.338 . S
C44 H48 0.931 . S
C45 N42 1.313 . S
C45 N46 1.344 . S
C45 H49 0.930 . S
N46 C43 1.377 . S
N46 C45 1.344 . S
O47 Co39 2.055 . S
O47 C51 1.253 . S
H48 C44 0.931 . S
H49 C45 0.930 . S
O50 Co39 2.039 . S
O50 C40 1.265 . S
C51 O47 1.253 . S
C51 O52 1.227 . S
O52 C51 1.227 . S
N53 Co39 2.140 . S
N53 C56 1.346 . S
N53 C57 1.345 . S
C54 C55 1.387 . S
C54 C58 1.391 . S
C55 C54 1.387 . S
C55 C56 1.369 . S
C55 H64 0.929 . S
C56 N53 1.346 . S
C56 C55 1.369 . S
C56 H59 0.928 . S
C57 N53 1.345 . S
C57 C58 1.371 . S
C57 H60 0.931 . S
C58 C54 1.391 . S
C58 C57 1.371 . S
C58 H65 0.930 . S
H59 C56 0.928 . S
H60 C57 0.931 . S
H61 C37 0.930 . S
H62 C34 0.930 . S
H63 C43 0.930 . S
H64 C55 0.929 . S
H65 C58 0.930 . S
C66 C67 1.351 . S
C66 N69 1.368 . S
C66 H71 0.931 . S
C67 C66 1.351 . S
C67 N68 1.373 . S
C67 H95 0.930 . S
N68 C67 1.373 . S
N68 C70 1.340 . S
N69 C66 1.368 . S
N69 C70 1.321 . S
N69 Co72 2.135 . S
C70 N68 1.340 . S
C70 N69 1.321 . S
C70 H94 0.930 . S
H71 C66 0.931 . S
Co72 N69 2.135 . S
Co72 N75 2.121 . S
Co72 O80 2.055 . S
Co72 O83 2.039 . S
Co72 N86 2.140 . S
C73 O74 1.227 . S
C73 O83 1.265 . S
O74 C73 1.227 . S
N75 Co72 2.121 . S
N75 C77 1.375 . S
N75 C78 1.313 . S
C76 C77 1.338 . S
C76 N79 1.377 . S
C76 H96 0.930 . S
C77 N75 1.375 . S
C77 C76 1.338 . S
C77 H81 0.931 . S
C78 N75 1.313 . S
C78 N79 1.344 . S
C78 H82 0.930 . S
N79 C76 1.377 . S
N79 C78 1.344 . S
O80 Co72 2.055 . S
O80 C84 1.253 . S
H81 C77 0.931 . S
H82 C78 0.930 . S
O83 Co72 2.039 . S
O83 C73 1.265 . S
C84 O80 1.253 . S
C84 O85 1.227 . S
O85 C84 1.227 . S
N86 Co72 2.140 . S
N86 C89 1.346 . S
N86 C90 1.345 . S
C87 C88 1.387 . S
C87 C91 1.391 . S
C88 C87 1.387 . S
C88 C89 1.369 . S
C88 H97 0.929 . S
C89 N86 1.346 . S
C89 C88 1.369 . S
C89 H92 0.928 . S
C90 N86 1.345 . S
C90 C91 1.371 . S
C90 H93 0.931 . S
C91 C87 1.391 . S
C91 C90 1.371 . S
C91 H98 0.930 . S
H92 C89 0.928 . S
H93 C90 0.931 . S
H94 C70 0.930 . S
H95 C67 0.930 . S
H96 C76 0.930 . S
H97 C88 0.929 . S
H98 C91 0.930 . S
C99 C100 1.351 . S
C99 N102 1.368 . S
C99 H104 0.931 . S
C100 C99 1.351 . S
C100 N101 1.373 . S
C100 H128 0.930 . S
N101 C100 1.373 . S
N101 C103 1.340 . S
N102 C99 1.368 . S
N102 C103 1.321 . S
N102 Co105 2.135 . S
C103 N101 1.340 . S
C103 N102 1.321 . S
C103 H127 0.930 . S
H104 C99 0.931 . S
Co105 N102 2.135 . S
Co105 N108 2.121 . S
Co105 O113 2.055 . S
Co105 O116 2.039 . S
Co105 N119 2.140 . S
C106 O107 1.227 . S
C106 O116 1.265 . S
O107 C106 1.227 . S
N108 Co105 2.121 . S
N108 C110 1.375 . S
N108 C111 1.313 . S
C109 C110 1.338 . S
C109 N112 1.377 . S
C109 H129 0.930 . S
C110 N108 1.375 . S
C110 C109 1.338 . S
C110 H114 0.931 . S
C111 N108 1.313 . S
C111 N112 1.344 . S
C111 H115 0.930 . S
N112 C109 1.377 . S
N112 C111 1.344 . S
O113 Co105 2.055 . S
O113 C117 1.253 . S
H114 C110 0.931 . S
H115 C111 0.930 . S
O116 Co105 2.039 . S
O116 C106 1.265 . S
C117 O113 1.253 . S
C117 O118 1.227 . S
O118 C117 1.227 . S
N119 Co105 2.140 . S
N119 C122 1.346 . S
N119 C123 1.345 . S
C120 C121 1.387 . S
C120 C124 1.391 . S
C121 C120 1.387 . S
C121 C122 1.369 . S
C121 H130 0.929 . S
C122 N119 1.346 . S
C122 C121 1.369 . S
C122 H125 0.928 . S
C123 N119 1.345 . S
C123 C124 1.371 . S
C123 H126 0.931 . S
C124 C120 1.391 . S
C124 C123 1.371 . S
C124 H131 0.930 . S
H125 C122 0.928 . S
H126 C123 0.931 . S
H127 C103 0.930 . S
H128 C100 0.930 . S
H129 C109 0.930 . S
H130 C121 0.929 . S
H131 C124 0.930 . S
C132 C133 1.351 . S
C132 N135 1.368 . S
C132 H137 0.931 . S
C133 C132 1.351 . S
C133 N134 1.373 . S
C133 H161 0.930 . S
N134 C133 1.373 . S
N134 C136 1.340 . S
N135 C132 1.368 . S
N135 C136 1.321 . S
N135 Co138 2.135 . S
C136 N134 1.340 . S
C136 N135 1.321 . S
C136 H160 0.930 . S
H137 C132 0.931 . S
Co138 N135 2.135 . S
Co138 N141 2.121 . S
Co138 O146 2.055 . S
Co138 O149 2.039 . S
Co138 N152 2.140 . S
C139 O140 1.227 . S
C139 O149 1.265 . S
O140 C139 1.227 . S
N141 Co138 2.121 . S
N141 C143 1.375 . S
N141 C144 1.313 . S
C142 C143 1.338 . S
C142 N145 1.377 . S
C142 H162 0.930 . S
C143 N141 1.375 . S
C143 C142 1.338 . S
C143 H147 0.931 . S
C144 N141 1.313 . S
C144 N145 1.344 . S
C144 H148 0.930 . S
N145 C142 1.377 . S
N145 C144 1.344 . S
O146 Co138 2.055 . S
O146 C150 1.253 . S
H147 C143 0.931 . S
H148 C144 0.930 . S
O149 Co138 2.039 . S
O149 C139 1.265 . S
C150 O146 1.253 . S
C150 O151 1.227 . S
O151 C150 1.227 . S
N152 Co138 2.140 . S
N152 C155 1.346 . S
N152 C156 1.345 . S
C153 C154 1.387 . S
C153 C157 1.391 . S
C154 C153 1.387 . S
C154 C155 1.369 . S
C154 H163 0.929 . S
C155 N152 1.346 . S
C155 C154 1.369 . S
C155 H158 0.928 . S
C156 N152 1.345 . S
C156 C157 1.371 . S
C156 H159 0.931 . S
C157 C153 1.391 . S
C157 C156 1.371 . S
C157 H164 0.930 . S
H158 C155 0.928 . S
H159 C156 0.931 . S
H160 C136 0.930 . S
H161 C133 0.930 . S
H162 C142 0.930 . S
H163 C154 0.929 . S
H164 C157 0.930 . S
C165 C166 1.351 . S
C165 N168 1.368 . S
C165 H170 0.931 . S
C166 C165 1.351 . S
C166 N167 1.373 . S
C166 H194 0.930 . S
N167 C166 1.373 . S
N167 C169 1.340 . S
N168 C165 1.368 . S
N168 C169 1.321 . S
N168 Co171 2.135 . S
C169 N167 1.340 . S
C169 N168 1.321 . S
C169 H193 0.930 . S
H170 C165 0.931 . S
Co171 N168 2.135 . S
Co171 N174 2.121 . S
Co171 O179 2.055 . S
Co171 O182 2.039 . S
Co171 N185 2.140 . S
C172 O173 1.227 . S
C172 O182 1.265 . S
O173 C172 1.227 . S
N174 Co171 2.121 . S
N174 C176 1.375 . S
N174 C177 1.313 . S
C175 C176 1.338 . S
C175 N178 1.377 . S
C175 H195 0.930 . S
C176 N174 1.375 . S
C176 C175 1.338 . S
C176 H180 0.931 . S
C177 N174 1.313 . S
C177 N178 1.344 . S
C177 H181 0.930 . S
N178 C175 1.377 . S
N178 C177 1.344 . S
O179 Co171 2.055 . S
O179 C183 1.253 . S
H180 C176 0.931 . S
H181 C177 0.930 . S
O182 Co171 2.039 . S
O182 C172 1.265 . S
C183 O179 1.253 . S
C183 O184 1.227 . S
O184 C183 1.227 . S
N185 Co171 2.140 . S
N185 C188 1.346 . S
N185 C189 1.345 . S
C186 C187 1.387 . S
C186 C190 1.391 . S
C187 C186 1.387 . S
C187 C188 1.369 . S
C187 H196 0.929 . S
C188 N185 1.346 . S
C188 C187 1.369 . S
C188 H191 0.928 . S
C189 N185 1.345 . S
C189 C190 1.371 . S
C189 H192 0.931 . S
C190 C186 1.391 . S
C190 C189 1.371 . S
C190 H197 0.930 . S
H191 C188 0.928 . S
H192 C189 0.931 . S
H193 C169 0.930 . S
H194 C166 0.930 . S
H195 C175 0.930 . S
H196 C187 0.929 . S
H197 C190 0.930 . S
C198 C199 1.351 . S
C198 N201 1.368 . S
C198 H203 0.931 . S
C199 C198 1.351 . S
C199 N200 1.373 . S
C199 H227 0.930 . S
N200 C199 1.373 . S
N200 C202 1.340 . S
N201 C198 1.368 . S
N201 C202 1.321 . S
N201 Co204 2.135 . S
C202 N200 1.340 . S
C202 N201 1.321 . S
C202 H226 0.930 . S
H203 C198 0.931 . S
Co204 N201 2.135 . S
Co204 N207 2.121 . S
Co204 O212 2.055 . S
Co204 O215 2.039 . S
Co204 N218 2.140 . S
C205 O206 1.227 . S
C205 O215 1.265 . S
O206 C205 1.227 . S
N207 Co204 2.121 . S
N207 C209 1.375 . S
N207 C210 1.313 . S
C208 C209 1.338 . S
C208 N211 1.377 . S
C208 H228 0.930 . S
C209 N207 1.375 . S
C209 C208 1.338 . S
C209 H213 0.931 . S
C210 N207 1.313 . S
C210 N211 1.344 . S
C210 H214 0.930 . S
N211 C208 1.377 . S
N211 C210 1.344 . S
O212 Co204 2.055 . S
O212 C216 1.253 . S
H213 C209 0.931 . S
H214 C210 0.930 . S
O215 Co204 2.039 . S
O215 C205 1.265 . S
C216 O212 1.253 . S
C216 O217 1.227 . S
O217 C216 1.227 . S
N218 Co204 2.140 . S
N218 C221 1.346 . S
N218 C222 1.345 . S
C219 C220 1.387 . S
C219 C223 1.391 . S
C220 C219 1.387 . S
C220 C221 1.369 . S
C220 H229 0.929 . S
C221 N218 1.346 . S
C221 C220 1.369 . S
C221 H224 0.928 . S
C222 N218 1.345 . S
C222 C223 1.371 . S
C222 H225 0.931 . S
C223 C219 1.391 . S
C223 C222 1.371 . S
C223 H230 0.930 . S
H224 C221 0.928 . S
H225 C222 0.931 . S
H226 C202 0.930 . S
H227 C199 0.930 . S
H228 C208 0.930 . S
H229 C220 0.929 . S
H230 C223 0.930 . S
C231 C232 1.351 . S
C231 N234 1.368 . S
C231 H236 0.931 . S
C232 C231 1.351 . S
C232 N233 1.373 . S
C232 H260 0.930 . S
N233 C232 1.373 . S
N233 C235 1.340 . S
N234 C231 1.368 . S
N234 C235 1.321 . S
N234 Co237 2.135 . S
C235 N233 1.340 . S
C235 N234 1.321 . S
C235 H259 0.930 . S
H236 C231 0.931 . S
Co237 N234 2.135 . S
Co237 N240 2.121 . S
Co237 O245 2.055 . S
Co237 O248 2.039 . S
Co237 N251 2.140 . S
C238 O239 1.227 . S
C238 O248 1.265 . S
O239 C238 1.227 . S
N240 Co237 2.121 . S
N240 C242 1.375 . S
N240 C243 1.313 . S
C241 C242 1.338 . S
C241 N244 1.377 . S
C241 H261 0.930 . S
C242 N240 1.375 . S
C242 C241 1.338 . S
C242 H246 0.931 . S
C243 N240 1.313 . S
C243 N244 1.344 . S
C243 H247 0.930 . S
N244 C241 1.377 . S
N244 C243 1.344 . S
O245 Co237 2.055 . S
O245 C249 1.253 . S
H246 C242 0.931 . S
H247 C243 0.930 . S
O248 Co237 2.039 . S
O248 C238 1.265 . S
C249 O245 1.253 . S
C249 O250 1.227 . S
O250 C249 1.227 . S
N251 Co237 2.140 . S
N251 C254 1.346 . S
N251 C255 1.345 . S
C252 C253 1.387 . S
C252 C256 1.391 . S
C253 C252 1.387 . S
C253 C254 1.369 . S
C253 H262 0.929 . S
C254 N251 1.346 . S
C254 C253 1.369 . S
C254 H257 0.928 . S
C255 N251 1.345 . S
C255 C256 1.371 . S
C255 H258 0.931 . S
C256 C252 1.391 . S
C256 C255 1.371 . S
C256 H263 0.930 . S
H257 C254 0.928 . S
H258 C255 0.931 . S
H259 C235 0.930 . S
H260 C232 0.930 . S
H261 C241 0.930 . S
H262 C253 0.929 . S
H263 C256 0.930 . S
C264 C265 1.351 . S
C264 N267 1.368 . S
C264 H269 0.931 . S
C265 C264 1.351 . S
C265 N266 1.373 . S
C265 H293 0.930 . S
N266 C265 1.373 . S
N266 C268 1.340 . S
N267 C264 1.368 . S
N267 C268 1.321 . S
N267 Co270 2.135 . S
C268 N266 1.340 . S
C268 N267 1.321 . S
C268 H292 0.930 . S
H269 C264 0.931 . S
Co270 N267 2.135 . S
Co270 N273 2.121 . S
Co270 O278 2.055 . S
Co270 O281 2.039 . S
Co270 N284 2.140 . S
C271 O272 1.227 . S
C271 O281 1.265 . S
O272 C271 1.227 . S
N273 Co270 2.121 . S
N273 C275 1.375 . S
N273 C276 1.313 . S
C274 C275 1.338 . S
C274 N277 1.377 . S
C274 H294 0.930 . S
C275 N273 1.375 . S
C275 C274 1.338 . S
C275 H279 0.931 . S
C276 N273 1.313 . S
C276 N277 1.344 . S
C276 H280 0.930 . S
N277 C274 1.377 . S
N277 C276 1.344 . S
O278 Co270 2.055 . S
O278 C282 1.253 . S
H279 C275 0.931 . S
H280 C276 0.930 . S
O281 Co270 2.039 . S
O281 C271 1.265 . S
C282 O278 1.253 . S
C282 O283 1.227 . S
O283 C282 1.227 . S
N284 Co270 2.140 . S
N284 C287 1.346 . S
N284 C288 1.345 . S
C285 C286 1.387 . S
C285 C289 1.391 . S
C286 C285 1.387 . S
C286 C287 1.369 . S
C286 H295 0.929 . S
C287 N284 1.346 . S
C287 C286 1.369 . S
C287 H290 0.928 . S
C288 N284 1.345 . S
C288 C289 1.371 . S
C288 H291 0.931 . S
C289 C285 1.391 . S
C289 C288 1.371 . S
C289 H296 0.930 . S
H290 C287 0.928 . S
H291 C288 0.931 . S
H292 C268 0.930 . S
H293 C265 0.930 . S
H294 C274 0.930 . S
H295 C286 0.929 . S
H296 C289 0.930 . S
C297 C298 1.351 . S
C297 N300 1.368 . S
C297 H302 0.931 . S
C298 C297 1.351 . S
C298 N299 1.373 . S
C298 H326 0.930 . S
N299 C298 1.373 . S
N299 C301 1.340 . S
N300 C297 1.368 . S
N300 C301 1.321 . S
N300 Co303 2.135 . S
C301 N299 1.340 . S
C301 N300 1.321 . S
C301 H325 0.930 . S
H302 C297 0.931 . S
Co303 N300 2.135 . S
Co303 N306 2.121 . S
Co303 O311 2.055 . S
Co303 O314 2.039 . S
Co303 N317 2.140 . S
C304 O305 1.227 . S
C304 O314 1.265 . S
O305 C304 1.227 . S
N306 Co303 2.121 . S
N306 C308 1.375 . S
N306 C309 1.313 . S
C307 C308 1.338 . S
C307 N310 1.377 . S
C307 H327 0.930 . S
C308 N306 1.375 . S
C308 C307 1.338 . S
C308 H312 0.931 . S
C309 N306 1.313 . S
C309 N310 1.344 . S
C309 H313 0.930 . S
N310 C307 1.377 . S
N310 C309 1.344 . S
O311 Co303 2.055 . S
O311 C315 1.253 . S
H312 C308 0.931 . S
H313 C309 0.930 . S
O314 Co303 2.039 . S
O314 C304 1.265 . S
C315 O311 1.253 . S
C315 O316 1.227 . S
O316 C315 1.227 . S
N317 Co303 2.140 . S
N317 C320 1.346 . S
N317 C321 1.345 . S
C318 C319 1.387 . S
C318 C322 1.391 . S
C319 C318 1.387 . S
C319 C320 1.369 . S
C319 H328 0.929 . S
C320 N317 1.346 . S
C320 C319 1.369 . S
C320 H323 0.928 . S
C321 N317 1.345 . S
C321 C322 1.371 . S
C321 H324 0.931 . S
C322 C318 1.391 . S
C322 C321 1.371 . S
C322 H329 0.930 . S
H323 C320 0.928 . S
H324 C321 0.931 . S
H325 C301 0.930 . S
H326 C298 0.930 . S
H327 C307 0.930 . S
H328 C319 0.929 . S
H329 C322 0.930 . S
C330 C331 1.351 . S
C330 N333 1.368 . S
C330 H335 0.931 . S
C331 C330 1.351 . S
C331 N332 1.373 . S
C331 H359 0.930 . S
N332 C331 1.373 . S
N332 C334 1.340 . S
N333 C330 1.368 . S
N333 C334 1.321 . S
N333 Co336 2.135 . S
C334 N332 1.340 . S
C334 N333 1.321 . S
C334 H358 0.930 . S
H335 C330 0.931 . S
Co336 N333 2.135 . S
Co336 N339 2.121 . S
Co336 O344 2.055 . S
Co336 O347 2.039 . S
Co336 N350 2.140 . S
C337 O338 1.227 . S
C337 O347 1.265 . S
O338 C337 1.227 . S
N339 Co336 2.121 . S
N339 C341 1.375 . S
N339 C342 1.313 . S
C340 C341 1.338 . S
C340 N343 1.377 . S
C340 H360 0.930 . S
C341 N339 1.375 . S
C341 C340 1.338 . S
C341 H345 0.931 . S
C342 N339 1.313 . S
C342 N343 1.344 . S
C342 H346 0.930 . S
N343 C340 1.377 . S
N343 C342 1.344 . S
O344 Co336 2.055 . S
O344 C348 1.253 . S
H345 C341 0.931 . S
H346 C342 0.930 . S
O347 Co336 2.039 . S
O347 C337 1.265 . S
C348 O344 1.253 . S
C348 O349 1.227 . S
O349 C348 1.227 . S
N350 Co336 2.140 . S
N350 C353 1.346 . S
N350 C354 1.345 . S
C351 C352 1.387 . S
C351 C355 1.391 . S
C352 C351 1.387 . S
C352 C353 1.369 . S
C352 H361 0.929 . S
C353 N350 1.346 . S
C353 C352 1.369 . S
C353 H356 0.928 . S
C354 N350 1.345 . S
C354 C355 1.371 . S
C354 H357 0.931 . S
C355 C351 1.391 . S
C355 C354 1.371 . S
C355 H362 0.930 . S
H356 C353 0.928 . S
H357 C354 0.931 . S
H358 C334 0.930 . S
H359 C331 0.930 . S
H360 C340 0.930 . S
H361 C352 0.929 . S
H362 C355 0.930 . S
C363 C364 1.351 . S
C363 N366 1.368 . S
C363 H368 0.931 . S
C364 C363 1.351 . S
C364 N365 1.373 . S
C364 H392 0.930 . S
N365 C364 1.373 . S
N365 C367 1.340 . S
N366 C363 1.368 . S
N366 C367 1.321 . S
N366 Co369 2.135 . S
C367 N365 1.340 . S
C367 N366 1.321 . S
C367 H391 0.930 . S
H368 C363 0.931 . S
Co369 N366 2.135 . S
Co369 N372 2.121 . S
Co369 O377 2.055 . S
Co369 O380 2.039 . S
Co369 N383 2.140 . S
C370 O371 1.227 . S
C370 O380 1.265 . S
O371 C370 1.227 . S
N372 Co369 2.121 . S
N372 C374 1.375 . S
N372 C375 1.313 . S
C373 C374 1.338 . S
C373 N376 1.377 . S
C373 H393 0.930 . S
C374 N372 1.375 . S
C374 C373 1.338 . S
C374 H378 0.931 . S
C375 N372 1.313 . S
C375 N376 1.344 . S
C375 H379 0.930 . S
N376 C373 1.377 . S
N376 C375 1.344 . S
O377 Co369 2.055 . S
O377 C381 1.253 . S
H378 C374 0.931 . S
H379 C375 0.930 . S
O380 Co369 2.039 . S
O380 C370 1.265 . S
C381 O377 1.253 . S
C381 O382 1.227 . S
O382 C381 1.227 . S
N383 Co369 2.140 . S
N383 C386 1.346 . S
N383 C387 1.345 . S
C384 C385 1.387 . S
C384 C388 1.391 . S
C385 C384 1.387 . S
C385 C386 1.369 . S
C385 H394 0.929 . S
C386 N383 1.346 . S
C386 C385 1.369 . S
C386 H389 0.928 . S
C387 N383 1.345 . S
C387 C388 1.371 . S
C387 H390 0.931 . S
C388 C384 1.391 . S
C388 C387 1.371 . S
C388 H395 0.930 . S
H389 C386 0.928 . S
H390 C387 0.931 . S
H391 C367 0.930 . S
H392 C364 0.930 . S
H393 C373 0.930 . S
H394 C385 0.929 . S
H395 C388 0.930 . S
C396 C397 1.351 . S
C396 N399 1.368 . S
C396 H401 0.931 . S
C397 C396 1.351 . S
C397 N398 1.373 . S
C397 H425 0.930 . S
N398 C397 1.373 . S
N398 C400 1.340 . S
N399 C396 1.368 . S
N399 C400 1.321 . S
N399 Co402 2.135 . S
C400 N398 1.340 . S
C400 N399 1.321 . S
C400 H424 0.930 . S
H401 C396 0.931 . S
Co402 N399 2.135 . S
Co402 N405 2.121 . S
Co402 O410 2.055 . S
Co402 O413 2.039 . S
Co402 N416 2.140 . S
C403 O404 1.227 . S
C403 O413 1.265 . S
O404 C403 1.227 . S
N405 Co402 2.121 . S
N405 C407 1.375 . S
N405 C408 1.313 . S
C406 C407 1.338 . S
C406 N409 1.377 . S
C406 H426 0.930 . S
C407 N405 1.375 . S
C407 C406 1.338 . S
C407 H411 0.931 . S
C408 N405 1.313 . S
C408 N409 1.344 . S
C408 H412 0.930 . S
N409 C406 1.377 . S
N409 C408 1.344 . S
O410 Co402 2.055 . S
O410 C414 1.253 . S
H411 C407 0.931 . S
H412 C408 0.930 . S
O413 Co402 2.039 . S
O413 C403 1.265 . S
C414 O410 1.253 . S
C414 O415 1.227 . S
O415 C414 1.227 . S
N416 Co402 2.140 . S
N416 C419 1.346 . S
N416 C420 1.345 . S
C417 C418 1.387 . S
C417 C421 1.391 . S
C418 C417 1.387 . S
C418 C419 1.369 . S
C418 H427 0.929 . S
C419 N416 1.346 . S
C419 C418 1.369 . S
C419 H422 0.928 . S
C420 N416 1.345 . S
C420 C421 1.371 . S
C420 H423 0.931 . S
C421 C417 1.391 . S
C421 C420 1.371 . S
C421 H428 0.930 . S
H422 C419 0.928 . S
H423 C420 0.931 . S
H424 C400 0.930 . S
H425 C397 0.930 . S
H426 C406 0.930 . S
H427 C418 0.929 . S
H428 C421 0.930 . S
C429 C430 1.351 . S
C429 N432 1.368 . S
C429 H434 0.931 . S
C430 C429 1.351 . S
C430 N431 1.373 . S
C430 H458 0.930 . S
N431 C430 1.373 . S
N431 C433 1.340 . S
N432 C429 1.368 . S
N432 C433 1.321 . S
N432 Co435 2.135 . S
C433 N431 1.340 . S
C433 N432 1.321 . S
C433 H457 0.930 . S
H434 C429 0.931 . S
Co435 N432 2.135 . S
Co435 N438 2.121 . S
Co435 O443 2.055 . S
Co435 O446 2.039 . S
Co435 N449 2.140 . S
C436 O437 1.227 . S
C436 O446 1.265 . S
O437 C436 1.227 . S
N438 Co435 2.121 . S
N438 C440 1.375 . S
N438 C441 1.313 . S
C439 C440 1.338 . S
C439 N442 1.377 . S
C439 H459 0.930 . S
C440 N438 1.375 . S
C440 C439 1.338 . S
C440 H444 0.931 . S
C441 N438 1.313 . S
C441 N442 1.344 . S
C441 H445 0.930 . S
N442 C439 1.377 . S
N442 C441 1.344 . S
O443 Co435 2.055 . S
O443 C447 1.253 . S
H444 C440 0.931 . S
H445 C441 0.930 . S
O446 Co435 2.039 . S
O446 C436 1.265 . S
C447 O443 1.253 . S
C447 O448 1.227 . S
O448 C447 1.227 . S
N449 Co435 2.140 . S
N449 C452 1.346 . S
N449 C453 1.345 . S
C450 C451 1.387 . S
C450 C454 1.391 . S
C451 C450 1.387 . S
C451 C452 1.369 . S
C451 H460 0.929 . S
C452 N449 1.346 . S
C452 C451 1.369 . S
C452 H455 0.928 . S
C453 N449 1.345 . S
C453 C454 1.371 . S
C453 H456 0.931 . S
C454 C450 1.391 . S
C454 C453 1.371 . S
C454 H461 0.930 . S
H455 C452 0.928 . S
H456 C453 0.931 . S
H457 C433 0.930 . S
H458 C430 0.930 . S
H459 C439 0.930 . S
H460 C451 0.929 . S
H461 C454 0.930 . S
C462 C463 1.351 . S
C462 N465 1.368 . S
C462 H467 0.931 . S
C463 C462 1.351 . S
C463 N464 1.373 . S
C463 H491 0.930 . S
N464 C463 1.373 . S
N464 C466 1.340 . S
N465 C462 1.368 . S
N465 C466 1.321 . S
N465 Co468 2.135 . S
C466 N464 1.340 . S
C466 N465 1.321 . S
C466 H490 0.930 . S
H467 C462 0.931 . S
Co468 N465 2.135 . S
Co468 N471 2.121 . S
Co468 O476 2.055 . S
Co468 O479 2.039 . S
Co468 N482 2.140 . S
C469 O470 1.227 . S
C469 O479 1.265 . S
O470 C469 1.227 . S
N471 Co468 2.121 . S
N471 C473 1.375 . S
N471 C474 1.313 . S
C472 C473 1.338 . S
C472 N475 1.377 . S
C472 H492 0.930 . S
C473 N471 1.375 . S
C473 C472 1.338 . S
C473 H477 0.931 . S
C474 N471 1.313 . S
C474 N475 1.344 . S
C474 H478 0.930 . S
N475 C472 1.377 . S
N475 C474 1.344 . S
O476 Co468 2.055 . S
O476 C480 1.253 . S
H477 C473 0.931 . S
H478 C474 0.930 . S
O479 Co468 2.039 . S
O479 C469 1.265 . S
C480 O476 1.253 . S
C480 O481 1.227 . S
O481 C480 1.227 . S
N482 Co468 2.140 . S
N482 C485 1.346 . S
N482 C486 1.345 . S
C483 C484 1.387 . S
C483 C487 1.391 . S
C484 C483 1.387 . S
C484 C485 1.369 . S
C484 H493 0.929 . S
C485 N482 1.346 . S
C485 C484 1.369 . S
C485 H488 0.928 . S
C486 N482 1.345 . S
C486 C487 1.371 . S
C486 H489 0.931 . S
C487 C483 1.391 . S
C487 C486 1.371 . S
C487 H494 0.930 . S
H488 C485 0.928 . S
H489 C486 0.931 . S
H490 C466 0.930 . S
H491 C463 0.930 . S
H492 C472 0.930 . S
H493 C484 0.929 . S
H494 C487 0.930 . S
C495 C496 1.351 . S
C495 N498 1.368 . S
C495 H500 0.931 . S
C496 C495 1.351 . S
C496 N497 1.373 . S
C496 H524 0.930 . S
N497 C496 1.373 . S
N497 C499 1.340 . S
N498 C495 1.368 . S
N498 C499 1.321 . S
N498 Co501 2.135 . S
C499 N497 1.340 . S
C499 N498 1.321 . S
C499 H523 0.930 . S
H500 C495 0.931 . S
Co501 N498 2.135 . S
Co501 N504 2.121 . S
Co501 O509 2.055 . S
Co501 O512 2.039 . S
Co501 N515 2.140 . S
C502 O503 1.227 . S
C502 O512 1.265 . S
O503 C502 1.227 . S
N504 Co501 2.121 . S
N504 C506 1.375 . S
N504 C507 1.313 . S
C505 C506 1.338 . S
C505 N508 1.377 . S
C505 H525 0.930 . S
C506 N504 1.375 . S
C506 C505 1.338 . S
C506 H510 0.931 . S
C507 N504 1.313 . S
C507 N508 1.344 . S
C507 H511 0.930 . S
N508 C505 1.377 . S
N508 C507 1.344 . S
O509 Co501 2.055 . S
O509 C513 1.253 . S
H510 C506 0.931 . S
H511 C507 0.930 . S
O512 Co501 2.039 . S
O512 C502 1.265 . S
C513 O509 1.253 . S
C513 O514 1.227 . S
O514 C513 1.227 . S
N515 Co501 2.140 . S
N515 C518 1.346 . S
N515 C519 1.345 . S
C516 C517 1.387 . S
C516 C520 1.391 . S
C517 C516 1.387 . S
C517 C518 1.369 . S
C517 H526 0.929 . S
C518 N515 1.346 . S
C518 C517 1.369 . S
C518 H521 0.928 . S
C519 N515 1.345 . S
C519 C520 1.371 . S
C519 H522 0.931 . S
C520 C516 1.391 . S
C520 C519 1.371 . S
C520 H527 0.930 . S
H521 C518 0.928 . S
H522 C519 0.931 . S
H523 C499 0.930 . S
H524 C496 0.930 . S
H525 C505 0.930 . S
H526 C517 0.929 . S
H527 C520 0.930 . S
H528 C534 0.930 . S
H529 C538 0.930 . S
H530 C543 0.929 . S
H531 C541 0.929 . S
H532 C536 0.929 . S
H533 C542 0.929 . S
C534 H528 0.930 . S
C534 C535 1.367 . S
C534 C542 1.378 1_545 S
C535 C534 1.367 . S
C535 C543 1.433 1_545 S
C536 H532 0.929 . S
C536 C538 1.378 . S
C536 C540 1.350 . S
C537 C540 1.463 . S
C537 C542 1.350 . S
C537 N545 1.427 . S
C538 H529 0.930 . S
C538 C536 1.378 . S
C538 C539 1.367 . S
C539 C538 1.367 . S
C539 C541 1.433 . S
C540 C536 1.350 . S
C540 C537 1.463 . S
C540 N544 1.427 . S
C541 H531 0.929 . S
C541 C539 1.433 . S
C541 N544 1.384 . S
C542 H533 0.929 . S
C542 C534 1.378 1_565 S
C542 C537 1.350 . S
C543 H530 0.929 . S
C543 C535 1.433 1_565 S
C543 N545 1.384 . S
N544 C540 1.427 . S
N544 C541 1.384 . S
N545 C537 1.427 . S
N545 C543 1.384 . S
H546 C552 0.930 . S
H547 C556 0.930 . S
H548 C561 0.929 . S
H549 C559 0.929 . S
H550 C554 0.929 . S
H551 C560 0.929 . S
C552 H546 0.930 . S
C552 C553 1.367 . S
C552 C560 1.378 . S
C553 C552 1.367 . S
C553 C561 1.433 . S
C554 H550 0.929 . S
C554 C556 1.378 . S
C554 C558 1.350 . S
C555 C558 1.463 . S
C555 C560 1.350 . S
C555 N563 1.427 . S
C556 H547 0.930 . S
C556 C554 1.378 . S
C556 C557 1.367 . S
C557 C556 1.367 . S
C557 C559 1.433 . S
C558 C554 1.350 . S
C558 C555 1.463 . S
C558 N562 1.427 . S
C559 H549 0.929 . S
C559 C557 1.433 . S
C559 N562 1.384 . S
C560 H551 0.929 . S
C560 C552 1.378 . S
C560 C555 1.350 . S
C561 H548 0.929 . S
C561 C553 1.433 . S
C561 N563 1.384 . S
N562 C558 1.427 . S
N562 C559 1.384 . S
N563 C555 1.427 . S
N563 C561 1.384 . S
H564 C570 0.930 . S
H565 C574 0.930 . S
H566 C579 0.929 . S
H567 C577 0.929 . S
H568 C572 0.929 . S
H569 C578 0.929 . S
C570 H564 0.930 . S
C570 C571 1.367 . S
C570 C578 1.378 1_565 S
C571 C570 1.367 . S
C571 C579 1.433 1_565 S
C572 H568 0.929 . S
C572 C574 1.378 . S
C572 C576 1.350 . S
C573 C576 1.463 . S
C573 C578 1.350 . S
C573 N581 1.427 . S
C574 H565 0.930 . S
C574 C572 1.378 . S
C574 C575 1.367 . S
C575 C574 1.367 . S
C575 C577 1.433 . S
C576 C572 1.350 . S
C576 C573 1.463 . S
C576 N580 1.427 . S
C577 H567 0.929 . S
C577 C575 1.433 . S
C577 N580 1.384 . S
C578 H569 0.929 . S
C578 C570 1.378 1_545 S
C578 C573 1.350 . S
C579 H566 0.929 . S
C579 C571 1.433 1_545 S
C579 N581 1.384 . S
N580 C576 1.427 . S
N580 C577 1.384 . S
N581 C573 1.427 . S
N581 C579 1.384 . S
H582 C588 0.930 . S
H583 C592 0.930 . S
H584 C597 0.929 . S
H585 C595 0.929 . S
H586 C590 0.929 . S
H587 C596 0.929 . S
C588 H582 0.930 . S
C588 C589 1.367 . S
C588 C596 1.378 . S
C589 C588 1.367 . S
C589 C597 1.433 . S
C590 H586 0.929 . S
C590 C592 1.378 . S
C590 C594 1.350 . S
C591 C594 1.463 . S
C591 C596 1.350 . S
C591 N599 1.427 . S
C592 H583 0.930 . S
C592 C590 1.378 . S
C592 C593 1.367 . S
C593 C592 1.367 . S
C593 C595 1.433 . S
C594 C590 1.350 . S
C594 C591 1.463 . S
C594 N598 1.427 . S
C595 H585 0.929 . S
C595 C593 1.433 . S
C595 N598 1.384 . S
C596 H587 0.929 . S
C596 C588 1.378 . S
C596 C591 1.350 . S
C597 H584 0.929 . S
C597 C589 1.433 . S
C597 N599 1.384 . S
N598 C594 1.427 . S
N598 C595 1.384 . S
N599 C591 1.427 . S
N599 C597 1.384 . S
H600 C606 0.930 1_565 S
H601 C610 0.930 . S
H602 C615 0.929 . S
H603 C613 0.929 . S
H604 C608 0.929 . S
H605 C614 0.929 . S
C606 H600 0.930 1_545 S
C606 C607 1.367 1_545 S
C606 C614 1.378 . S
C607 C606 1.367 1_565 S
C607 C615 1.433 1_565 S
C608 H604 0.929 . S
C608 C610 1.378 . S
C608 C612 1.350 . S
C609 C612 1.463 . S
C609 C614 1.350 . S
C609 N617 1.427 . S
C610 H601 0.930 . S
C610 C608 1.378 . S
C610 C611 1.367 . S
C611 C610 1.367 . S
C611 C613 1.433 . S
C612 C608 1.350 . S
C612 C609 1.463 . S
C612 N616 1.427 . S
C613 H603 0.929 . S
C613 C611 1.433 . S
C613 N616 1.384 . S
C614 H605 0.929 . S
C614 C606 1.378 . S
C614 C609 1.350 . S
C615 H602 0.929 . S
C615 C607 1.433 1_545 S
C615 N617 1.384 . S
N616 C612 1.427 . S
N616 C613 1.384 . S
N617 C609 1.427 . S
N617 C615 1.384 . S
H618 C624 0.930 . S
H619 C628 0.930 . S
H620 C633 0.929 . S
H621 C631 0.929 . S
H622 C626 0.929 . S
H623 C632 0.929 . S
C624 H618 0.930 . S
C624 C625 1.367 . S
C624 C632 1.378 . S
C625 C624 1.367 . S
C625 C633 1.433 . S
C626 H622 0.929 . S
C626 C628 1.378 . S
C626 C630 1.350 . S
C627 C630 1.463 . S
C627 C632 1.350 . S
C627 N635 1.427 . S
C628 H619 0.930 . S
C628 C626 1.378 . S
C628 C629 1.367 . S
C629 C628 1.367 . S
C629 C631 1.433 . S
C630 C626 1.350 . S
C630 C627 1.463 . S
C630 N634 1.427 . S
C631 H621 0.929 . S
C631 C629 1.433 . S
C631 N634 1.384 . S
C632 H623 0.929 . S
C632 C624 1.378 . S
C632 C627 1.350 . S
C633 H620 0.929 . S
C633 C625 1.433 . S
C633 N635 1.384 . S
N634 C630 1.427 . S
N634 C631 1.384 . S
N635 C627 1.427 . S
N635 C633 1.384 . S
H636 C642 0.930 . S
H637 C646 0.930 . S
H638 C651 0.929 . S
H639 C649 0.929 . S
H640 C644 0.929 . S
H641 C650 0.929 . S
C642 H636 0.930 . S
C642 C643 1.367 1_565 S
C642 C650 1.378 . S
C643 C642 1.367 1_545 S
C643 C651 1.433 . S
C644 H640 0.929 . S
C644 C646 1.378 . S
C644 C648 1.350 . S
C645 C648 1.463 . S
C645 C650 1.350 . S
C645 N653 1.427 . S
C646 H637 0.930 . S
C646 C644 1.378 . S
C646 C647 1.367 . S
C647 C646 1.367 . S
C647 C649 1.433 . S
C648 C644 1.350 . S
C648 C645 1.463 . S
C648 N652 1.427 . S
C649 H639 0.929 . S
C649 C647 1.433 . S
C649 N652 1.384 . S
C650 H641 0.929 . S
C650 C642 1.378 . S
C650 C645 1.350 . S
C651 H638 0.929 . S
C651 C643 1.433 . S
C651 N653 1.384 1_545 S
N652 C648 1.427 . S
N652 C649 1.384 . S
N653 C645 1.427 . S
N653 C651 1.384 1_565 S
H654 C660 0.930 . S
H655 C664 0.930 . S
H656 C669 0.929 . S
H657 C667 0.929 . S
H658 C662 0.929 . S
H659 C668 0.929 . S
C660 H654 0.930 . S
C660 C661 1.367 . S
C660 C668 1.378 . S
C661 C660 1.367 . S
C661 C669 1.433 . S
C662 H658 0.929 . S
C662 C664 1.378 . S
C662 C666 1.350 . S
C663 C666 1.463 . S
C663 C668 1.350 . S
C663 N671 1.427 . S
C664 H655 0.930 . S
C664 C662 1.378 . S
C664 C665 1.367 . S
C665 C664 1.367 . S
C665 C667 1.433 . S
C666 C662 1.350 . S
C666 C663 1.463 . S
C666 N670 1.427 . S
C667 H657 0.929 . S
C667 C665 1.433 . S
C667 N670 1.384 . S
C668 H659 0.929 . S
C668 C660 1.378 . S
C668 C663 1.350 . S
C669 H656 0.929 . S
C669 C661 1.433 . S
C669 N671 1.384 . S
N670 C666 1.427 . S
N670 C667 1.384 . S
N671 C663 1.427 . S
N671 C669 1.384 . S
H672 C678 0.930 . S
H673 C682 0.930 . S
H674 C687 0.929 . S
H675 C685 0.929 . S
H676 C680 0.929 . S
H677 C686 0.929 . S
C678 H672 0.930 . S
C678 C679 1.367 . S
C678 C686 1.378 . S
C679 C678 1.367 . S
C679 C687 1.433 . S
C680 H676 0.929 . S
C680 C682 1.378 . S
C680 C684 1.350 . S
C681 C684 1.463 . S
C681 C686 1.350 . S
C681 N689 1.427 . S
C682 H673 0.930 . S
C682 C680 1.378 . S
C682 C683 1.367 . S
C683 C682 1.367 . S
C683 C685 1.433 . S
C684 C680 1.350 . S
C684 C681 1.463 . S
C684 N688 1.427 . S
C685 H675 0.929 . S
C685 C683 1.433 . S
C685 N688 1.384 . S
C686 H677 0.929 . S
C686 C678 1.378 . S
C686 C681 1.350 . S
C687 H674 0.929 . S
C687 C679 1.433 . S
C687 N689 1.384 . S
N688 C684 1.427 . S
N688 C685 1.384 . S
N689 C681 1.427 . S
N689 C687 1.384 . S
H690 C696 0.930 . S
H691 C700 0.930 1_565 S
H692 C705 0.929 . S
H693 C703 0.924 1_565 S
H694 C698 0.929 . S
H695 C704 0.929 . S
C696 H690 0.930 . S
C696 C697 1.367 . S
C696 C704 1.378 . S
C697 C696 1.367 . S
C697 C705 1.433 . S
C698 H694 0.929 . S
C698 C700 1.378 . S
C698 C702 1.350 . S
C699 C702 1.463 . S
C699 C704 1.350 . S
C699 N707 1.427 . S
C700 H691 0.930 1_545 S
C700 C698 1.378 . S
C700 C701 1.367 1_545 S
C701 C700 1.367 1_565 S
C701 C703 1.433 1_565 S
C702 C698 1.350 . S
C702 C699 1.463 . S
C702 N706 1.427 . S
C703 H693 0.924 1_545 S
C703 C701 1.433 1_545 S
C703 N706 1.384 . S
C704 H695 0.929 . S
C704 C696 1.378 . S
C704 C699 1.350 . S
C705 H692 0.929 . S
C705 C697 1.433 . S
C705 N707 1.384 . S
N706 C702 1.427 . S
N706 C703 1.384 . S
N707 C699 1.427 . S
N707 C705 1.384 . S
H708 C714 0.930 . S
H709 C718 0.930 . S
H710 C723 0.929 . S
H711 C721 0.929 . S
H712 C716 0.929 . S
H713 C722 0.929 . S
C714 H708 0.930 . S
C714 C715 1.367 . S
C714 C722 1.378 . S
C715 C714 1.367 . S
C715 C723 1.433 . S
C716 H712 0.929 . S
C716 C718 1.378 . S
C716 C720 1.350 . S
C717 C720 1.463 . S
C717 C722 1.350 . S
C717 N725 1.427 . S
C718 H709 0.930 . S
C718 C716 1.378 . S
C718 C719 1.367 . S
C719 C718 1.367 . S
C719 C721 1.433 . S
C720 C716 1.350 . S
C720 C717 1.463 . S
C720 N724 1.427 . S
C721 H711 0.929 . S
C721 C719 1.433 . S
C721 N724 1.384 . S
C722 H713 0.929 . S
C722 C714 1.378 . S
C722 C717 1.350 . S
C723 H710 0.929 . S
C723 C715 1.433 . S
C723 N725 1.384 . S
N724 C720 1.427 . S
N724 C721 1.384 . S
N725 C717 1.427 . S
N725 C723 1.384 . S
H726 C732 0.920 1_545 S
H727 C736 0.930 . S
H728 C741 0.929 . S
H729 C739 0.929 . S
H730 C734 0.929 . S
H731 C740 0.929 . S
C732 H726 0.920 1_565 S
C732 C733 1.364 1_565 S
C732 C740 1.391 . S
C733 C732 1.364 1_545 S
C733 C741 1.433 1_545 S
C734 H730 0.929 . S
C734 C736 1.378 . S
C734 C738 1.350 . S
C735 C738 1.463 . S
C735 C740 1.350 . S
C735 N743 1.427 . S
C736 H727 0.930 . S
C736 C734 1.378 . S
C736 C737 1.367 . S
C737 C736 1.367 . S
C737 C739 1.433 . S
C738 C734 1.350 . S
C738 C735 1.463 . S
C738 N742 1.427 . S
C739 H729 0.929 . S
C739 C737 1.433 . S
C739 N742 1.384 . S
C740 H731 0.929 . S
C740 C732 1.391 . S
C740 C735 1.350 . S
C741 H728 0.929 . S
C741 C733 1.433 1_565 S
C741 N743 1.384 . S
N742 C738 1.427 . S
N742 C739 1.384 . S
N743 C735 1.427 . S
N743 C741 1.384 . S
H744 C750 0.930 . S
H745 C754 0.930 . S
H746 C759 0.929 . S
H747 C757 0.929 . S
H748 C752 0.929 . S
H749 C758 0.929 . S
C750 H744 0.930 . S
C750 C751 1.367 . S
C750 C758 1.378 . S
C751 C750 1.367 . S
C751 C759 1.433 . S
C752 H748 0.929 . S
C752 C754 1.378 . S
C752 C756 1.350 . S
C753 C756 1.463 . S
C753 C758 1.350 . S
C753 N761 1.427 . S
C754 H745 0.930 . S
C754 C752 1.378 . S
C754 C755 1.367 . S
C755 C754 1.367 . S
C755 C757 1.433 . S
C756 C752 1.350 . S
C756 C753 1.463 . S
C756 N760 1.427 . S
C757 H747 0.929 . S
C757 C755 1.433 . S
C757 N760 1.384 . S
C758 H749 0.929 . S
C758 C750 1.378 . S
C758 C753 1.350 . S
C759 H746 0.929 . S
C759 C751 1.433 . S
C759 N761 1.384 . S
N760 C756 1.427 . S
N760 C757 1.384 . S
N761 C753 1.427 . S
N761 C759 1.384 . S
H762 C768 0.930 1_545 S
H763 C772 0.930 . S
H764 C777 0.929 . S
H765 C775 0.929 . S
H766 C770 0.929 . S
H767 C776 0.929 . S
C768 H762 0.930 1_565 S
C768 C769 1.367 1_565 S
C768 C776 1.378 . S
C769 C768 1.367 1_545 S
C769 C777 1.433 1_545 S
C770 H766 0.929 . S
C770 C772 1.378 . S
C770 C774 1.350 . S
C771 C774 1.463 . S
C771 C776 1.350 . S
C771 N779 1.427 . S
C772 H763 0.930 . S
C772 C770 1.378 . S
C772 C773 1.367 . S
C773 C772 1.367 . S
C773 C775 1.433 . S
C774 C770 1.350 . S
C774 C771 1.463 . S
C774 N778 1.427 . S
C775 H765 0.929 . S
C775 C773 1.433 . S
C775 N778 1.384 . S
C776 H767 0.929 . S
C776 C768 1.378 . S
C776 C771 1.350 . S
C777 H764 0.929 . S
C777 C769 1.433 1_565 S
C777 N779 1.384 . S
N778 C774 1.427 . S
N778 C775 1.384 . S
N779 C771 1.427 . S
N779 C777 1.384 . S
H780 C786 0.930 . S
H781 C790 0.930 . S
H782 C795 0.929 . S
H783 C793 0.929 . S
H784 C788 0.929 . S
H785 C794 0.929 . S
C786 H780 0.930 . S
C786 C787 1.367 . S
C786 C794 1.378 . S
C787 C786 1.367 . S
C787 C795 1.433 . S
C788 H784 0.929 . S
C788 C790 1.378 . S
C788 C792 1.350 . S
C789 C792 1.463 . S
C789 C794 1.350 . S
C789 N797 1.427 . S
C790 H781 0.930 . S
C790 C788 1.378 . S
C790 C791 1.367 . S
C791 C790 1.367 . S
C791 C793 1.433 . S
C792 C788 1.350 . S
C792 C789 1.463 . S
C792 N796 1.427 . S
C793 H783 0.929 . S
C793 C791 1.433 . S
C793 N796 1.384 . S
C794 H785 0.929 . S
C794 C786 1.378 . S
C794 C789 1.350 . S
C795 H782 0.929 . S
C795 C787 1.433 . S
C795 N797 1.384 . S
N796 C792 1.427 . S
N796 C793 1.384 . S
N797 C789 1.427 . S
N797 C795 1.384 . S
H798 C804 0.930 . S
H799 C808 0.930 1_565 S
H800 C813 0.929 . S
H801 C811 0.929 . S
H802 C806 0.929 . S
H803 C812 0.929 . S
C804 H798 0.930 . S
C804 C805 1.367 . S
C804 C812 1.378 . S
C805 C804 1.367 . S
C805 C813 1.433 . S
C806 H802 0.929 . S
C806 C808 1.378 . S
C806 C810 1.350 . S
C807 C810 1.463 . S
C807 C812 1.350 . S
C807 N815 1.427 . S
C808 H799 0.930 1_545 S
C808 C806 1.378 . S
C808 C809 1.367 1_545 S
C809 C808 1.367 1_565 S
C809 C811 1.433 1_565 S
C810 C806 1.350 . S
C810 C807 1.463 . S
C810 N814 1.427 . S
C811 H801 0.929 . S
C811 C809 1.433 1_545 S
C811 N814 1.384 . S
C812 H803 0.929 . S
C812 C804 1.378 . S
C812 C807 1.350 . S
C813 H800 0.929 . S
C813 C805 1.433 . S
C813 N815 1.384 . S
N814 C810 1.427 . S
N814 C811 1.384 . S
N815 C807 1.427 . S
N815 C813 1.384 . S
H816 C822 0.930 . S
H817 C826 0.930 . S
H818 C831 0.929 . S
H819 C829 0.929 . S
H820 C824 0.929 . S
H821 C830 0.929 . S
C822 H816 0.930 . S
C822 C823 1.367 . S
C822 C830 1.378 . S
C823 C822 1.367 . S
C823 C831 1.433 . S
C824 H820 0.929 . S
C824 C826 1.378 . S
C824 C828 1.350 . S
C825 C828 1.463 1_554 S
C825 C830 1.350 . S
C825 N833 1.427 . S
C826 H817 0.930 . S
C826 C824 1.378 . S
C826 C827 1.367 . S
C827 C826 1.367 . S
C827 C829 1.433 . S
C828 C824 1.350 . S
C828 C825 1.463 1_556 S
C828 N832 1.427 . S
C829 H819 0.929 . S
C829 C827 1.433 . S
C829 N832 1.384 . S
C830 H821 0.929 . S
C830 C822 1.378 . S
C830 C825 1.350 . S
C831 H818 0.929 . S
C831 C823 1.433 . S
C831 N833 1.384 . S
N832 C828 1.427 . S
N832 C829 1.384 . S
N833 C825 1.427 . S
N833 C831 1.384 . S
H834 C840 0.930 . S
H835 C844 0.930 . S
H836 C849 0.929 . S
H837 C847 0.929 . S
H838 C842 0.931 1_556 S
H839 C848 0.931 1_554 S
C840 H834 0.930 . S
C840 C841 1.367 . S
C840 C848 1.378 . S
C841 C840 1.367 . S
C841 C849 1.433 . S
C842 H838 0.931 1_554 S
C842 C844 1.378 . S
C842 C846 1.350 . S
C843 C846 1.463 1_556 S
C843 C848 1.350 . S
C843 N851 1.427 . S
C844 H835 0.930 . S
C844 C842 1.378 . S
C844 C845 1.367 . S
C845 C844 1.367 . S
C845 C847 1.433 . S
C846 C842 1.350 . S
C846 C843 1.463 1_554 S
C846 N850 1.427 . S
C847 H837 0.929 . S
C847 C845 1.433 . S
C847 N850 1.384 . S
C848 H839 0.931 1_556 S
C848 C840 1.378 . S
C848 C843 1.350 . S
C849 H836 0.929 . S
C849 C841 1.433 . S
C849 N851 1.384 . S
N850 C846 1.427 . S
N850 C847 1.384 . S
N851 C843 1.427 . S
N851 C849 1.384 . S
H852 C858 0.930 . S
H853 C862 0.930 . S
H854 C867 0.929 . S
H855 C865 0.929 . S
H856 C860 0.929 . S
H857 C866 0.929 . S
C858 H852 0.930 . S
C858 C859 1.367 . S
C858 C866 1.378 . S
C859 C858 1.367 . S
C859 C867 1.433 . S
C860 H856 0.929 . S
C860 C862 1.378 . S
C860 C864 1.350 . S
C861 C864 1.463 . S
C861 C866 1.350 . S
C861 N869 1.427 . S
C862 H853 0.930 . S
C862 C860 1.378 . S
C862 C863 1.367 . S
C863 C862 1.367 . S
C863 C865 1.433 . S
C864 C860 1.350 . S
C864 C861 1.463 . S
C864 N868 1.427 . S
C865 H855 0.929 . S
C865 C863 1.433 . S
C865 N868 1.384 . S
C866 H857 0.929 . S
C866 C858 1.378 . S
C866 C861 1.350 . S
C867 H854 0.929 . S
C867 C859 1.433 . S
C867 N869 1.384 . S
N868 C864 1.427 . S
N868 C865 1.384 . S
N869 C861 1.427 . S
N869 C867 1.384 . S
H870 C876 0.930 . S
H871 C880 0.930 . S
H872 C885 0.929 . S
H873 C883 0.929 . S
H874 C878 0.929 . S
H875 C884 0.929 . S
C876 H870 0.930 . S
C876 C877 1.367 . S
C876 C884 1.378 . S
C877 C876 1.367 . S
C877 C885 1.433 . S
C878 H874 0.929 . S
C878 C880 1.378 . S
C878 C882 1.350 . S
C879 C882 1.463 . S
C879 C884 1.350 . S
C879 N887 1.427 . S
C880 H871 0.930 . S
C880 C878 1.378 . S
C880 C881 1.367 . S
C881 C880 1.367 . S
C881 C883 1.433 . S
C882 C878 1.350 . S
C882 C879 1.463 . S
C882 N886 1.427 . S
C883 H873 0.929 . S
C883 C881 1.433 . S
C883 N886 1.384 . S
C884 H875 0.929 . S
C884 C876 1.378 . S
C884 C879 1.350 . S
C885 H872 0.929 . S
C885 C877 1.433 . S
C885 N887 1.384 . S
N886 C882 1.427 . S
N886 C883 1.384 . S
N887 C879 1.427 . S
N887 C885 1.384 . S
H888 C894 0.930 . S
H889 C898 0.930 . S
H890 C903 0.929 . S
H891 C901 0.929 . S
H892 C896 0.929 . S
H893 C902 0.929 . S
C894 H888 0.930 . S
C894 C895 1.367 . S
C894 C902 1.378 . S
C895 C894 1.367 . S
C895 C903 1.433 . S
C896 H892 0.929 . S
C896 C898 1.378 . S
C896 C900 1.350 . S
C897 C900 1.463 1_556 S
C897 C902 1.350 . S
C897 N905 1.427 . S
C898 H889 0.930 . S
C898 C896 1.378 . S
C898 C899 1.367 . S
C899 C898 1.367 . S
C899 C901 1.433 . S
C900 C896 1.350 . S
C900 C897 1.463 1_554 S
C900 N904 1.427 . S
C901 H891 0.929 . S
C901 C899 1.433 . S
C901 N904 1.384 . S
C902 H893 0.929 . S
C902 C894 1.378 . S
C902 C897 1.350 . S
C903 H890 0.929 . S
C903 C895 1.433 . S
C903 N905 1.384 . S
N904 C900 1.427 . S
N904 C901 1.384 . S
N905 C897 1.427 . S
N905 C903 1.384 . S
H906 C912 0.930 . S
H907 C916 0.930 . S
H908 C921 0.929 . S
H909 C919 0.929 . S
H910 C914 0.929 . S
H911 C920 0.929 . S
C912 H906 0.930 . S
C912 C913 1.367 . S
C912 C920 1.378 . S
C913 C912 1.367 . S
C913 C921 1.433 . S
C914 H910 0.929 . S
C914 C916 1.378 . S
C914 C918 1.350 . S
C915 C918 1.463 1_554 S
C915 C920 1.350 . S
C915 N923 1.427 . S
C916 H907 0.930 . S
C916 C914 1.378 . S
C916 C917 1.367 . S
C917 C916 1.367 . S
C917 C919 1.433 . S
C918 C914 1.350 . S
C918 C915 1.463 1_556 S
C918 N922 1.427 . S
C919 H909 0.929 . S
C919 C917 1.433 . S
C919 N922 1.384 . S
C920 H911 0.929 . S
C920 C912 1.378 . S
C920 C915 1.350 . S
C921 H908 0.929 . S
C921 C913 1.433 . S
C921 N923 1.384 . S
N922 C918 1.427 . S
N922 C919 1.384 . S
N923 C915 1.427 . S
N923 C921 1.384 . S
H924 C930 0.930 . S
H925 C934 0.930 . S
H926 C939 0.929 . S
H927 C937 0.929 . S
H928 C932 0.929 . S
H929 C938 0.929 . S
C930 H924 0.930 . S
C930 C931 1.367 . S
C930 C938 1.378 . S
C931 C930 1.367 . S
C931 C939 1.433 . S
C932 H928 0.929 . S
C932 C934 1.378 . S
C932 C936 1.350 . S
C933 C936 1.463 . S
C933 C938 1.350 . S
C933 N941 1.427 . S
C934 H925 0.930 . S
C934 C932 1.378 . S
C934 C935 1.367 . S
C935 C934 1.367 . S
C935 C937 1.433 . S
C936 C932 1.350 . S
C936 C933 1.463 . S
C936 N940 1.427 . S
C937 H927 0.929 . S
C937 C935 1.433 . S
C937 N940 1.384 . S
C938 H929 0.929 . S
C938 C930 1.378 . S
C938 C933 1.350 . S
C939 H926 0.929 . S
C939 C931 1.433 . S
C939 N941 1.384 . S
N940 C936 1.427 . S
N940 C937 1.384 . S
N941 C933 1.427 . S
N941 C939 1.384 . S
H942 C948 0.930 . S
H943 C952 0.930 . S
H944 C957 0.929 . S
H945 C955 0.929 . S
H946 C950 0.929 . S
H947 C956 0.929 . S
C948 H942 0.930 . S
C948 C949 1.367 . S
C948 C956 1.378 . S
C949 C948 1.367 . S
C949 C957 1.433 . S
C950 H946 0.929 . S
C950 C952 1.378 . S
C950 C954 1.350 . S
C951 C954 1.463 . S
C951 C956 1.350 . S
C951 N959 1.427 . S
C952 H943 0.930 . S
C952 C950 1.378 . S
C952 C953 1.367 . S
C953 C952 1.367 . S
C953 C955 1.433 . S
C954 C950 1.350 . S
C954 C951 1.463 . S
C954 N958 1.427 . S
C955 H945 0.929 . S
C955 C953 1.433 . S
C955 N958 1.384 . S
C956 H947 0.929 . S
C956 C948 1.378 . S
C956 C951 1.350 . S
C957 H944 0.929 . S
C957 C949 1.433 . S
C957 N959 1.384 . S
N958 C954 1.427 . S
N958 C955 1.384 . S
N959 C951 1.427 . S
N959 C957 1.384 . S
H960 C966 0.930 . S
H961 C970 0.930 . S
H962 C975 0.929 . S
H963 C973 0.929 . S
H964 C968 0.929 . S
H965 C974 0.929 . S
C966 H960 0.930 . S
C966 C967 1.367 . S
C966 C974 1.378 . S
C967 C966 1.367 . S
C967 C975 1.433 . S
C968 H964 0.929 . S
C968 C970 1.378 . S
C968 C972 1.350 . S
C969 C972 1.463 1_545 S
C969 C974 1.350 . S
C969 N977 1.427 1_545 S
C970 H961 0.930 . S
C970 C968 1.378 . S
C970 C971 1.367 . S
C971 C970 1.367 . S
C971 C973 1.433 . S
C972 C968 1.350 . S
C972 C969 1.463 1_565 S
C972 N976 1.427 1_565 S
C973 H963 0.929 . S
C973 C971 1.433 . S
C973 N976 1.384 1_565 S
C974 H965 0.929 . S
C974 C966 1.378 . S
C974 C969 1.350 . S
C975 H962 0.929 . S
C975 C967 1.433 . S
C975 N977 1.384 1_545 S
N976 C972 1.427 1_545 S
N976 C973 1.384 1_545 S
N977 C969 1.427 1_565 S
N977 C975 1.384 1_565 S
H978 C984 0.930 . S
H979 C988 0.930 . S
H980 C993 0.929 . S
H981 C991 0.929 . S
H982 C986 0.929 . S
H983 C992 0.929 . S
C984 H978 0.930 . S
C984 C985 1.367 . S
C984 C992 1.378 . S
C985 C984 1.367 . S
C985 C993 1.433 . S
C986 H982 0.929 . S
C986 C988 1.378 . S
C986 C990 1.350 . S
C987 C990 1.463 . S
C987 C992 1.350 . S
C987 N995 1.427 . S
C988 H979 0.930 . S
C988 C986 1.378 . S
C988 C989 1.367 . S
C989 C988 1.367 . S
C989 C991 1.433 . S
C990 C986 1.350 . S
C990 C987 1.463 . S
C990 N994 1.427 . S
C991 H981 0.929 . S
C991 C989 1.433 . S
C991 N994 1.384 . S
C992 H983 0.929 . S
C992 C984 1.378 . S
C992 C987 1.350 . S
C993 H980 0.929 . S
C993 C985 1.433 . S
C993 N995 1.384 . S
N994 C990 1.427 . S
N994 C991 1.384 . S
N995 C987 1.427 . S
N995 C993 1.384 . S
H996 C1002 0.930 . S
H997 C1006 0.930 . S
H998 C1011 0.929 . S
H999 C1009 0.929 . S
H1000 C1004 0.929 . S
H1001 C1010 0.929 . S
C1002 H996 0.930 . S
C1002 C1003 1.367 . S
C1002 C1010 1.378 . S
C1003 C1002 1.367 . S
C1003 C1011 1.433 . S
C1004 H1000 0.929 . S
C1004 C1006 1.378 . S
C1004 C1008 1.350 . S
C1005 C1008 1.463 1_565 S
C1005 C1010 1.350 . S
C1005 N1013 1.427 . S
C1006 H997 0.930 . S
C1006 C1004 1.378 . S
C1006 C1007 1.367 . S
C1007 C1006 1.367 . S
C1007 C1009 1.433 . S
C1008 C1004 1.350 . S
C1008 C1005 1.463 1_545 S
C1008 N1012 1.427 . S
C1009 H999 0.929 . S
C1009 C1007 1.433 . S
C1009 N1012 1.384 . S
C1010 H1001 0.929 . S
C1010 C1002 1.378 . S
C1010 C1005 1.350 . S
C1011 H998 0.929 . S
C1011 C1003 1.433 . S
C1011 N1013 1.384 . S
N1012 C1008 1.427 . S
N1012 C1009 1.384 . S
N1013 C1005 1.427 . S
N1013 C1011 1.384 . S
H1014 C1020 0.930 . S
H1015 C1024 0.930 . S
H1016 C1029 0.929 . S
H1017 C1027 0.929 . S
H1018 C1022 0.929 . S
H1019 C1028 0.929 . S
C1020 H1014 0.930 . S
C1020 C1021 1.367 . S
C1020 C1028 1.378 . S
C1021 C1020 1.367 . S
C1021 C1029 1.433 . S
C1022 H1018 0.929 . S
C1022 C1024 1.378 . S
C1022 C1026 1.350 . S
C1023 C1026 1.463 . S
C1023 C1028 1.350 . S
C1023 N1031 1.427 . S
C1024 H1015 0.930 . S
C1024 C1022 1.378 . S
C1024 C1025 1.367 . S
C1025 C1024 1.367 . S
C1025 C1027 1.433 . S
C1026 C1022 1.350 . S
C1026 C1023 1.463 . S
C1026 N1030 1.427 . S
C1027 H1017 0.929 . S
C1027 C1025 1.433 . S
C1027 N1030 1.384 . S
C1028 H1019 0.929 . S
C1028 C1020 1.378 . S
C1028 C1023 1.350 . S
C1029 H1016 0.929 . S
C1029 C1021 1.433 . S
C1029 N1031 1.384 . S
N1030 C1026 1.427 . S
N1030 C1027 1.384 . S
N1031 C1023 1.427 . S
N1031 C1029 1.384 . S
H1032 C1038 0.930 . S
H1033 C1042 0.930 . S
H1034 C1047 0.929 . S
H1035 C1045 0.929 . S
H1036 C1040 0.929 . S
H1037 C1046 0.929 . S
C1038 H1032 0.930 . S
C1038 C1039 1.367 . S
C1038 C1046 1.378 . S
C1039 C1038 1.367 . S
C1039 C1047 1.433 . S
C1040 H1036 0.929 . S
C1040 C1042 1.378 . S
C1040 C1044 1.350 . S
C1041 C1044 1.463 . S
C1041 C1046 1.350 . S
C1041 N1049 1.427 . S
C1042 H1033 0.930 . S
C1042 C1040 1.378 . S
C1042 C1043 1.367 . S
C1043 C1042 1.367 . S
C1043 C1045 1.433 . S
C1044 C1040 1.350 . S
C1044 C1041 1.463 . S
C1044 N1048 1.427 . S
C1045 H1035 0.929 . S
C1045 C1043 1.433 . S
C1045 N1048 1.384 . S
C1046 H1037 0.929 . S
C1046 C1038 1.378 . S
C1046 C1041 1.350 . S
C1047 H1034 0.929 . S
C1047 C1039 1.433 . S
C1047 N1049 1.384 . S
N1048 C1044 1.427 . S
N1048 C1045 1.384 . S
N1049 C1041 1.427 . S
N1049 C1047 1.384 . S
H1050 C1056 0.930 . S
H1051 C1060 0.930 . S
H1052 C1065 0.929 . S
H1053 C1063 0.929 . S
H1054 C1058 0.929 . S
H1055 C1064 0.929 . S
C1056 H1050 0.930 . S
C1056 C1057 1.367 . S
C1056 C1064 1.378 . S
C1057 C1056 1.367 . S
C1057 C1065 1.433 . S
C1058 H1054 0.929 . S
C1058 C1060 1.378 . S
C1058 C1062 1.350 . S
C1059 C1062 1.463 1_545 S
C1059 C1064 1.350 . S
C1059 N1067 1.427 . S
C1060 H1051 0.930 . S
C1060 C1058 1.378 . S
C1060 C1061 1.367 . S
C1061 C1060 1.367 . S
C1061 C1063 1.433 . S
C1062 C1058 1.350 . S
C1062 C1059 1.463 1_565 S
C1062 N1066 1.427 . S
C1063 H1053 0.929 . S
C1063 C1061 1.433 . S
C1063 N1066 1.384 . S
C1064 H1055 0.929 . S
C1064 C1056 1.378 . S
C1064 C1059 1.350 . S
C1065 H1052 0.929 . S
C1065 C1057 1.433 . S
C1065 N1067 1.384 . S
N1066 C1062 1.427 . S
N1066 C1063 1.384 . S
N1067 C1059 1.427 . S
N1067 C1065 1.384 . S
H1068 C1074 0.930 . S
H1069 C1078 0.930 . S
H1070 C1083 0.929 . S
H1071 C1081 0.929 . S
H1072 C1076 0.929 . S
H1073 C1082 0.929 . S
C1074 H1068 0.930 . S
C1074 C1075 1.367 . S
C1074 C1082 1.378 . S
C1075 C1074 1.367 . S
C1075 C1083 1.433 . S
C1076 H1072 0.929 . S
C1076 C1078 1.378 . S
C1076 C1080 1.350 . S
C1077 C1080 1.463 . S
C1077 C1082 1.350 . S
C1077 N1085 1.427 . S
C1078 H1069 0.930 . S
C1078 C1076 1.378 . S
C1078 C1079 1.367 . S
C1079 C1078 1.367 . S
C1079 C1081 1.433 . S
C1080 C1076 1.350 . S
C1080 C1077 1.463 . S
C1080 N1084 1.427 . S
C1081 H1071 0.929 . S
C1081 C1079 1.433 . S
C1081 N1084 1.384 . S
C1082 H1073 0.929 . S
C1082 C1074 1.378 . S
C1082 C1077 1.350 . S
C1083 H1070 0.929 . S
C1083 C1075 1.433 . S
C1083 N1085 1.384 . S
N1084 C1080 1.427 . S
N1084 C1081 1.384 . S
N1085 C1077 1.427 . S
N1085 C1083 1.384 . S
H1086 C1092 0.930 . S
H1087 C1096 0.930 . S
H1088 C1101 0.929 . S
H1089 C1099 0.929 . S
H1090 C1094 0.929 . S
H1091 C1100 0.929 . S
C1092 H1086 0.930 . S
C1092 C1093 1.367 . S
C1092 C1100 1.378 . S
C1093 C1092 1.367 . S
C1093 C1101 1.433 . S
C1094 H1090 0.929 . S
C1094 C1096 1.378 . S
C1094 C1098 1.350 . S
C1095 C1098 1.463 1_545 S
C1095 C1100 1.350 . S
C1095 N1103 1.427 . S
C1096 H1087 0.930 . S
C1096 C1094 1.378 . S
C1096 C1097 1.367 . S
C1097 C1096 1.367 . S
C1097 C1099 1.433 . S
C1098 C1094 1.350 . S
C1098 C1095 1.463 1_565 S
C1098 N1102 1.427 . S
C1099 H1089 0.929 . S
C1099 C1097 1.433 . S
C1099 N1102 1.384 . S
C1100 H1091 0.929 . S
C1100 C1092 1.378 . S
C1100 C1095 1.350 . S
C1101 H1088 0.929 . S
C1101 C1093 1.433 . S
C1101 N1103 1.384 . S
N1102 C1098 1.427 . S
N1102 C1099 1.384 . S
N1103 C1095 1.427 . S
N1103 C1101 1.384 . S
H1104 C1110 0.930 . S
H1105 C1114 0.930 . S
H1106 C1119 0.929 . S
H1107 C1117 0.929 . S
H1108 C1112 0.929 . S
H1109 C1118 0.929 . S
C1110 H1104 0.930 . S
C1110 C1111 1.367 . S
C1110 C1118 1.378 . S
C1111 C1110 1.367 . S
C1111 C1119 1.433 . S
C1112 H1108 0.929 . S
C1112 C1114 1.378 . S
C1112 C1116 1.350 . S
C1113 C1116 1.463 . S
C1113 C1118 1.350 . S
C1113 N1121 1.427 . S
C1114 H1105 0.930 . S
C1114 C1112 1.378 . S
C1114 C1115 1.367 . S
C1115 C1114 1.367 . S
C1115 C1117 1.433 . S
C1116 C1112 1.350 . S
C1116 C1113 1.463 . S
C1116 N1120 1.427 . S
C1117 H1107 0.929 . S
C1117 C1115 1.433 . S
C1117 N1120 1.384 . S
C1118 H1109 0.929 . S
C1118 C1110 1.378 . S
C1118 C1113 1.350 . S
C1119 H1106 0.929 . S
C1119 C1111 1.433 . S
C1119 N1121 1.384 . S
N1120 C1116 1.427 . S
N1120 C1117 1.384 . S
N1121 C1113 1.427 . S
N1121 C1119 1.384 . S
H1122 C1128 0.930 . S
H1123 C1132 0.930 . S
H1124 C1137 0.929 . S
H1125 C1135 0.929 . S
H1126 C1130 0.929 . S
H1127 C1136 0.929 . S
C1128 H1122 0.930 . S
C1128 C1129 1.367 . S
C1128 C1136 1.378 . S
C1129 C1128 1.367 . S
C1129 C1137 1.433 . S
C1130 H1126 0.929 . S
C1130 C1132 1.378 . S
C1130 C1134 1.350 . S
C1131 C1134 1.463 . S
C1131 C1136 1.350 . S
C1131 N1139 1.427 . S
C1132 H1123 0.930 . S
C1132 C1130 1.378 . S
C1132 C1133 1.367 . S
C1133 C1132 1.367 . S
C1133 C1135 1.433 . S
C1134 C1130 1.350 . S
C1134 C1131 1.463 . S
C1134 N1138 1.427 . S
C1135 H1125 0.929 . S
C1135 C1133 1.433 . S
C1135 N1138 1.384 . S
C1136 H1127 0.929 . S
C1136 C1128 1.378 . S
C1136 C1131 1.350 . S
C1137 H1124 0.929 . S
C1137 C1129 1.433 . S
C1137 N1139 1.384 . S
N1138 C1134 1.427 . S
N1138 C1135 1.384 . S
N1139 C1131 1.427 . S
N1139 C1137 1.384 . S
H1140 C1146 0.930 . S
H1141 C1150 0.930 . S
H1142 C1155 0.929 . S
H1143 C1153 0.929 . S
H1144 C1148 0.929 . S
H1145 C1154 0.929 . S
C1146 H1140 0.930 . S
C1146 C1147 1.367 . S
C1146 C1154 1.378 . S
C1147 C1146 1.367 . S
C1147 C1155 1.433 . S
C1148 H1144 0.929 . S
C1148 C1150 1.378 . S
C1148 C1152 1.350 . S
C1149 C1152 1.463 . S
C1149 C1154 1.350 . S
C1149 N1157 1.427 . S
C1150 H1141 0.930 . S
C1150 C1148 1.378 . S
C1150 C1151 1.367 . S
C1151 C1150 1.367 . S
C1151 C1153 1.433 . S
C1152 C1148 1.350 . S
C1152 C1149 1.463 . S
C1152 N1156 1.427 . S
C1153 H1143 0.929 . S
C1153 C1151 1.433 . S
C1153 N1156 1.384 . S
C1154 H1145 0.929 . S
C1154 C1146 1.378 . S
C1154 C1149 1.350 . S
C1155 H1142 0.929 . S
C1155 C1147 1.433 . S
C1155 N1157 1.384 . S
N1156 C1152 1.427 . S
N1156 C1153 1.384 . S
N1157 C1149 1.427 . S
N1157 C1155 1.384 . S
H1158 C1164 0.930 . S
H1159 C1168 0.930 . S
H1160 C1173 0.929 . S
H1161 C1171 0.929 . S
H1162 C1166 0.929 . S
H1163 C1172 0.929 . S
C1164 H1158 0.930 . S
C1164 C1165 1.367 . S
C1164 C1172 1.378 . S
C1165 C1164 1.367 . S
C1165 C1173 1.433 . S
C1166 H1162 0.929 . S
C1166 C1168 1.378 . S
C1166 C1170 1.350 . S
C1167 C1170 1.463 . S
C1167 C1172 1.350 . S
C1167 N1175 1.427 . S
C1168 H1159 0.930 . S
C1168 C1166 1.378 . S
C1168 C1169 1.367 . S
C1169 C1168 1.367 . S
C1169 C1171 1.433 . S
C1170 C1166 1.350 . S
C1170 C1167 1.463 . S
C1170 N1174 1.427 . S
C1171 H1161 0.929 . S
C1171 C1169 1.433 . S
C1171 N1174 1.384 . S
C1172 H1163 0.929 . S
C1172 C1164 1.378 . S
C1172 C1167 1.350 . S
C1173 H1160 0.929 . S
C1173 C1165 1.433 . S
C1173 N1175 1.384 . S
N1174 C1170 1.427 . S
N1174 C1171 1.384 . S
N1175 C1167 1.427 . S
N1175 C1173 1.384 . S
H1176 C1182 0.930 . S
H1177 C1186 0.930 . S
H1178 C1191 0.929 . S
H1179 C1189 0.929 . S
H1180 C1184 0.929 . S
H1181 C1190 0.929 . S
C1182 H1176 0.930 . S
C1182 C1183 1.367 . S
C1182 C1190 1.378 . S
C1183 C1182 1.367 . S
C1183 C1191 1.433 . S
C1184 H1180 0.929 . S
C1184 C1186 1.378 . S
C1184 C1188 1.350 . S
C1185 C1188 1.463 1_655 S
C1185 C1190 1.350 . S
C1185 N1193 1.427 . S
C1186 H1177 0.930 . S
C1186 C1184 1.378 . S
C1186 C1187 1.367 . S
C1187 C1186 1.367 . S
C1187 C1189 1.433 . S
C1188 C1184 1.350 . S
C1188 C1185 1.463 1_455 S
C1188 N1192 1.427 . S
C1189 H1179 0.929 . S
C1189 C1187 1.433 . S
C1189 N1192 1.384 . S
C1190 H1181 0.929 . S
C1190 C1182 1.378 . S
C1190 C1185 1.350 . S
C1191 H1178 0.929 . S
C1191 C1183 1.433 . S
C1191 N1193 1.384 . S
N1192 C1188 1.427 . S
N1192 C1189 1.384 . S
N1193 C1185 1.427 . S
N1193 C1191 1.384 . S
H1194 C1200 0.930 . S
H1195 C1204 0.930 . S
H1196 C1209 0.929 . S
H1197 C1207 0.929 . S
H1198 C1202 0.929 . S
H1199 C1208 0.929 . S
C1200 H1194 0.930 . S
C1200 C1201 1.367 . S
C1200 C1208 1.378 . S
C1201 C1200 1.367 . S
C1201 C1209 1.433 . S
C1202 H1198 0.929 . S
C1202 C1204 1.378 . S
C1202 C1206 1.350 . S
C1203 C1206 1.463 1_455 S
C1203 C1208 1.350 . S
C1203 N1211 1.427 . S
C1204 H1195 0.930 . S
C1204 C1202 1.378 . S
C1204 C1205 1.367 . S
C1205 C1204 1.367 . S
C1205 C1207 1.433 . S
C1206 C1202 1.350 . S
C1206 C1203 1.463 1_655 S
C1206 N1210 1.427 . S
C1207 H1197 0.929 . S
C1207 C1205 1.433 . S
C1207 N1210 1.384 . S
C1208 H1199 0.929 . S
C1208 C1200 1.378 . S
C1208 C1203 1.350 . S
C1209 H1196 0.929 . S
C1209 C1201 1.433 . S
C1209 N1211 1.384 . S
N1210 C1206 1.427 . S
N1210 C1207 1.384 . S
N1211 C1203 1.427 . S
N1211 C1209 1.384 . S
H1212 C1218 0.930 . S
H1213 C1222 0.930 . S
H1214 C1227 0.929 . S
H1215 C1225 0.929 . S
H1216 C1220 0.929 . S
H1217 C1226 0.929 . S
C1218 H1212 0.930 . S
C1218 C1219 1.367 . S
C1218 C1226 1.378 . S
C1219 C1218 1.367 . S
C1219 C1227 1.433 . S
C1220 H1216 0.929 . S
C1220 C1222 1.378 . S
C1220 C1224 1.350 . S
C1221 C1224 1.463 1_455 S
C1221 C1226 1.350 . S
C1221 N1229 1.427 . S
C1222 H1213 0.930 . S
C1222 C1220 1.378 . S
C1222 C1223 1.367 . S
C1223 C1222 1.367 . S
C1223 C1225 1.433 . S
C1224 C1220 1.350 . S
C1224 C1221 1.463 1_655 S
C1224 N1228 1.427 . S
C1225 H1215 0.929 . S
C1225 C1223 1.433 . S
C1225 N1228 1.384 . S
C1226 H1217 0.929 . S
C1226 C1218 1.378 . S
C1226 C1221 1.350 . S
C1227 H1214 0.929 . S
C1227 C1219 1.433 . S
C1227 N1229 1.384 . S
N1228 C1224 1.427 . S
N1228 C1225 1.384 . S
N1229 C1221 1.427 . S
N1229 C1227 1.384 . S
H1230 C1236 0.930 . S
H1231 C1240 0.930 . S
H1232 C1245 0.929 . S
H1233 C1243 0.929 . S
H1234 C1238 0.929 . S
H1235 C1244 0.929 . S
C1236 H1230 0.930 . S
C1236 C1237 1.367 . S
C1236 C1244 1.378 . S
C1237 C1236 1.367 . S
C1237 C1245 1.433 . S
C1238 H1234 0.929 . S
C1238 C1240 1.378 . S
C1238 C1242 1.350 . S
C1239 C1242 1.463 1_655 S
C1239 C1244 1.350 . S
C1239 N1247 1.427 . S
C1240 H1231 0.930 . S
C1240 C1238 1.378 . S
C1240 C1241 1.367 . S
C1241 C1240 1.367 . S
C1241 C1243 1.433 . S
C1242 C1238 1.350 . S
C1242 C1239 1.463 1_455 S
C1242 N1246 1.427 . S
C1243 H1233 0.929 . S
C1243 C1241 1.433 . S
C1243 N1246 1.384 . S
C1244 H1235 0.929 . S
C1244 C1236 1.378 . S
C1244 C1239 1.350 . S
C1245 H1232 0.929 . S
C1245 C1237 1.433 . S
C1245 N1247 1.384 . S
N1246 C1242 1.427 . S
N1246 C1243 1.384 . S
N1247 C1239 1.427 . S
N1247 C1245 1.384 . S
C535 C18 0.763 . S
C539 C469 0.768 . S
C553 C51 0.765 . S
C557 C502 0.766 . S
C571 C84 0.764 . S
C575 C403 0.770 . S
C589 C436 0.752 . S
C593 C117 0.763 . S
C607 C150 0.765 . S
C611 C337 0.773 . S
C625 C183 0.765 . S
C629 C370 0.773 . S
C643 C216 0.764 . S
C647 C271 0.761 . S
C661 C304 0.762 . S
C665 C249 0.765 . S
C679 C282 0.763 . S
C683 C205 0.760 . S
C697 C238 0.755 . S
C701 C315 0.762 . S
C715 C348 0.762 . S
C719 C139 0.758 . S
C733 C381 0.763 . S
C737 C172 0.764 . S
C751 C414 0.764 . S
C755 C73 0.771 . S
C769 C447 0.763 . S
C773 C106 0.761 . S
C787 C7 0.769 . S
C791 C480 0.764 . S
C805 C40 0.761 . S
C809 C513 0.763 . S
C823 N2 1.668 . S
C827 N365 1.683 . S
C841 N332 1.676 . S
C845 N35 1.682 . S
C859 N68 1.682 . S
C863 N299 1.677 . S
C877 N266 1.684 . S
C881 N101 1.672 . S
C895 N134 1.674 . S
C899 N497 1.670 . S
C913 N464 1.670 . S
C917 N167 1.684 . S
C931 N200 1.677 . S
C935 N431 1.669 . S
C949 N233 1.674 . S
C953 N398 1.684 . S
C967 N13 1.834 . S
C971 N79 1.835 . S
C985 N46 1.835 . S
C989 N112 1.834 . S
C1003 N145 1.835 . S
C1007 N211 1.834 . S
C1021 N244 1.834 . S
C1025 N178 1.834 . S
C1039 N343 1.833 . S
C1043 N277 1.835 . S
C1057 N376 1.835 . S
C1061 N310 1.834 . S
C1075 N409 1.835 . S
C1079 N475 1.834 . S
C1093 N442 1.835 . S
C1097 N508 1.833 . S
C1111 C54 1.581 . S
C1115 C21 1.579 . S
C1129 C87 1.574 . S
C1133 C120 1.575 . S
C1147 C153 1.576 . S
C1151 C186 1.579 . S
C1165 C252 1.574 . S
C1169 C219 1.576 . S
C1183 C285 1.574 . S
C1187 C318 1.574 . S
C1201 C384 1.577 . S
C1205 C351 1.580 . S
C1219 C417 1.576 . S
C1223 C450 1.579 . S
C1237 C516 1.577 . S
C1241 C483 1.575 . S
